# Generated by pormake.
# Topology une, (4)-cn, num edge types: 1
# Building blocks:
#     Node 0, Type 0, BuildingBlock: UXUYUI_clean_sbu_0, # of connection points: 4
#     Node 1, Type 0, BuildingBlock: UXUYUI_clean_sbu_0, # of connection points: 4
#     Node 2, Type 0, BuildingBlock: UXUYUI_clean_sbu_0, # of connection points: 4
#     Node 3, Type 0, BuildingBlock: UXUYUI_clean_sbu_0, # of connection points: 4
#     Node 4, Type 0, BuildingBlock: UXUYUI_clean_sbu_0, # of connection points: 4
#     Node 5, Type 0, BuildingBlock: UXUYUI_clean_sbu_0, # of connection points: 4
#     Node 6, Type 0, BuildingBlock: UXUYUI_clean_sbu_0, # of connection points: 4
#     Node 7, Type 0, BuildingBlock: UXUYUI_clean_sbu_0, # of connection points: 4
#     Node 8, Type 0, BuildingBlock: UXUYUI_clean_sbu_0, # of connection points: 4
#     Node 9, Type 0, BuildingBlock: UXUYUI_clean_sbu_0, # of connection points: 4
#     Node 10, Type 0, BuildingBlock: UXUYUI_clean_sbu_0, # of connection points: 4
#     Node 11, Type 0, BuildingBlock: UXUYUI_clean_sbu_0, # of connection points: 4
#     Node 12, Type 0, BuildingBlock: UXUYUI_clean_sbu_0, # of connection points: 4
#     Node 13, Type 0, BuildingBlock: UXUYUI_clean_sbu_0, # of connection points: 4
#     Node 14, Type 0, BuildingBlock: UXUYUI_clean_sbu_0, # of connection points: 4
#     Node 15, Type 0, BuildingBlock: UXUYUI_clean_sbu_0, # of connection points: 4
#     Node 16, Type 0, BuildingBlock: UXUYUI_clean_sbu_0, # of connection points: 4
#     Node 17, Type 0, BuildingBlock: UXUYUI_clean_sbu_0, # of connection points: 4
#     Edge 18, Type (0, 0), BuildingBlock: OJICUG_clean_linker_0, # of connection points: 2
#     Edge 19, Type (0, 0), BuildingBlock: OJICUG_clean_linker_0, # of connection points: 2
#     Edge 20, Type (0, 0), BuildingBlock: OJICUG_clean_linker_0, # of connection points: 2
#     Edge 21, Type (0, 0), BuildingBlock: OJICUG_clean_linker_0, # of connection points: 2
#     Edge 22, Type (0, 0), BuildingBlock: OJICUG_clean_linker_0, # of connection points: 2
#     Edge 23, Type (0, 0), BuildingBlock: OJICUG_clean_linker_0, # of connection points: 2
#     Edge 24, Type (0, 0), BuildingBlock: OJICUG_clean_linker_0, # of connection points: 2
#     Edge 25, Type (0, 0), BuildingBlock: OJICUG_clean_linker_0, # of connection points: 2
#     Edge 26, Type (0, 0), BuildingBlock: OJICUG_clean_linker_0, # of connection points: 2
#     Edge 27, Type (0, 0), BuildingBlock: OJICUG_clean_linker_0, # of connection points: 2
#     Edge 28, Type (0, 0), BuildingBlock: OJICUG_clean_linker_0, # of connection points: 2
#     Edge 29, Type (0, 0), BuildingBlock: OJICUG_clean_linker_0, # of connection points: 2
#     Edge 30, Type (0, 0), BuildingBlock: OJICUG_clean_linker_0, # of connection points: 2
#     Edge 31, Type (0, 0), BuildingBlock: OJICUG_clean_linker_0, # of connection points: 2
#     Edge 32, Type (0, 0), BuildingBlock: OJICUG_clean_linker_0, # of connection points: 2
#     Edge 33, Type (0, 0), BuildingBlock: OJICUG_clean_linker_0, # of connection points: 2
#     Edge 34, Type (0, 0), BuildingBlock: OJICUG_clean_linker_0, # of connection points: 2
#     Edge 35, Type (0, 0), BuildingBlock: OJICUG_clean_linker_0, # of connection points: 2
#     Edge 36, Type (0, 0), BuildingBlock: OJICUG_clean_linker_0, # of connection points: 2
#     Edge 37, Type (0, 0), BuildingBlock: OJICUG_clean_linker_0, # of connection points: 2
#     Edge 38, Type (0, 0), BuildingBlock: OJICUG_clean_linker_0, # of connection points: 2
#     Edge 39, Type (0, 0), BuildingBlock: OJICUG_clean_linker_0, # of connection points: 2
#     Edge 40, Type (0, 0), BuildingBlock: OJICUG_clean_linker_0, # of connection points: 2
#     Edge 41, Type (0, 0), BuildingBlock: OJICUG_clean_linker_0, # of connection points: 2
#     Edge 42, Type (0, 0), BuildingBlock: OJICUG_clean_linker_0, # of connection points: 2
#     Edge 43, Type (0, 0), BuildingBlock: OJICUG_clean_linker_0, # of connection points: 2
#     Edge 44, Type (0, 0), BuildingBlock: OJICUG_clean_linker_0, # of connection points: 2
#     Edge 45, Type (0, 0), BuildingBlock: OJICUG_clean_linker_0, # of connection points: 2
#     Edge 46, Type (0, 0), BuildingBlock: OJICUG_clean_linker_0, # of connection points: 2
#     Edge 47, Type (0, 0), BuildingBlock: OJICUG_clean_linker_0, # of connection points: 2
#     Edge 48, Type (0, 0), BuildingBlock: OJICUG_clean_linker_0, # of connection points: 2
#     Edge 49, Type (0, 0), BuildingBlock: OJICUG_clean_linker_0, # of connection points: 2
#     Edge 50, Type (0, 0), BuildingBlock: OJICUG_clean_linker_0, # of connection points: 2
#     Edge 51, Type (0, 0), BuildingBlock: OJICUG_clean_linker_0, # of connection points: 2
#     Edge 52, Type (0, 0), BuildingBlock: OJICUG_clean_linker_0, # of connection points: 2
#     Edge 53, Type (0, 0), BuildingBlock: OJICUG_clean_linker_0, # of connection points: 2
# Relax obj value: 0.347
# Max RMSD: 0.226
# Mean RMSD: 0.222
data_MOF--net-une--node1-UXUYUI_clean_sbu_0--edge1-OJICUG_clean_linker_0
_symmetry_space_group_name_H-M    P1
_symmetry_Int_Tables_number       1
_symmetry_cell_setting            triclinic
loop_
_symmetry_equiv_pos_as_xyz
'x, y, z'
_cell_length_a     45.273688
_cell_length_b     45.226055
_cell_length_c     64.578147
_cell_angle_alpha  89.956464
_cell_angle_beta   89.94111
_cell_angle_gamma 120.00811
loop_
_atom_site_label
_atom_site_type_symbol
_atom_site_fract_x
_atom_site_fract_y
_atom_site_fract_z
_atom_type_partial_charge
Li0 Li 0.35015 0.06492 0.04507 0.0
Li1 Li 0.34935 0.05934 0.08347 0.0
Li2 Li 0.37912 0.03688 0.05954 0.0
Li3 Li 0.31787 0.00886 0.06149 0.0
C4 C 0.4089 0.11734 0.05674 0.0
N5 N 0.44504 0.18237 0.04019 0.0
C6 C 0.40968 0.14494 0.067 0.0
C7 C 0.42662 0.12291 0.03807 0.0
C8 C 0.42809 0.1776 0.05839 0.0
C9 C 0.44468 0.15593 0.02994 0.0
C10 C 0.27709 0.03548 0.06115 0.0
C11 C 0.21867 0.99858 0.07179 0.0
N12 N 0.2078 0.00587 0.0539 0.0
C13 C 0.26527 0.04261 0.04287 0.0
C14 C 0.25354 0.01332 0.07576 0.0
C15 C 0.23018 0.02741 0.0395 0.0
C16 C 0.35114 0.08737 0.00351 0.0
N17 N 0.3502 0.09399 0.02396 0.0
C18 C 0.34917 0.14493 0.01605 0.0
C19 C 0.34856 0.1217 0.0304 0.0
C20 C 0.35091 0.13928 0.99482 0.0
C21 C 0.35149 0.10987 0.98853 0.0
H22 H 0.35144 0.06462 0.99881 0.0
H23 H 0.3467 0.12564 0.04675 0.0
C24 C 0.37697 0.10583 0.11835 0.0
N25 N 0.34845 0.08312 0.10793 0.0
C26 C 0.37506 0.12702 0.13352 0.0
C27 C 0.31433 0.09951 0.12777 0.0
C28 C 0.31752 0.07946 0.11258 0.0
C29 C 0.34342 0.12453 0.13808 0.0
H30 H 0.40144 0.10879 0.11413 0.0
H31 H 0.29529 0.06167 0.10403 0.0
C32 C 0.35616 0.00609 0.02235 0.0
N33 N 0.37753 0.97407 0.99459 0.0
C34 C 0.33993 0.97043 0.02172 0.0
C35 C 0.38319 0.0254 0.00879 0.0
C36 C 0.35109 0.95474 0.00757 0.0
C37 C 0.39368 0.00876 0.99492 0.0
C38 C 0.33421 0.99011 0.09936 0.0
C39 C 0.34052 0.96287 0.10021 0.0
C40 C 0.31239 0.9921 0.11391 0.0
C41 C 0.32453 0.93782 0.11545 0.0
C42 C 0.2969 0.96656 0.12892 0.0
N43 N 0.30321 0.94016 0.12936 0.0
C44 C 0.44714 0.05353 0.04865 0.0
C45 C 0.40665 0.9946 0.05164 0.0
C46 C 0.47017 0.04602 0.03882 0.0
N47 N 0.41559 0.02791 0.0541 0.0
C48 C 0.42864 0.98597 0.04166 0.0
C49 C 0.4604 0.01188 0.03448 0.0
H50 H 0.45374 0.0798 0.05081 0.0
H51 H 0.38131 0.97473 0.05587 0.0
C52 C 0.2637 0.966 0.03815 0.0
N53 N 0.27681 0.96649 0.05714 0.0
C54 C 0.23374 0.93765 0.03162 0.0
C55 C 0.2311 0.90999 0.06417 0.0
C56 C 0.26116 0.93929 0.07023 0.0
C57 C 0.21708 0.90912 0.04464 0.0
H58 H 0.27684 0.9878 0.02798 0.0
H59 H 0.27179 0.94003 0.08525 0.0
O60 O 0.39045 0.08502 0.06472 0.0
O61 O 0.31144 0.04968 0.06455 0.0
O62 O 0.34588 0.02197 0.0363 0.0
O63 O 0.34995 0.01506 0.08469 0.0
H64 H 0.39577 0.14117 0.08127 0.0
H65 H 0.42601 0.1019 0.02976 0.0
H66 H 0.42874 0.19912 0.06612 0.0
H67 H 0.45829 0.16052 0.01545 0.0
H68 H 0.20024 0.98116 0.08288 0.0
H69 H 0.28289 0.05944 0.03129 0.0
H70 H 0.26203 0.00686 0.0898 0.0
H71 H 0.22074 0.03265 0.0254 0.0
H72 H 0.34777 0.16684 0.0215 0.0
H73 H 0.35258 0.10456 0.97229 0.0
H74 H 0.3983 0.14607 0.1409 0.0
H75 H 0.28925 0.09581 0.13105 0.0
H76 H 0.31935 0.95496 0.03226 0.0
H77 H 0.39624 0.05296 0.0091 0.0
H78 H 0.33887 0.9272 0.007 0.0
H79 H 0.41473 0.02342 0.98446 0.0
H80 H 0.3576 0.96106 0.08926 0.0
H81 H 0.30732 0.01299 0.11358 0.0
H82 H 0.3291 0.91655 0.11624 0.0
H83 H 0.27984 0.96773 0.1402 0.0
H84 H 0.4945 0.06675 0.03358 0.0
H85 H 0.42035 0.95932 0.03888 0.0
H86 H 0.22421 0.93774 0.01625 0.0
H87 H 0.21895 0.88835 0.07459 0.0
Li88 Li 0.96178 0.34211 0.06077 0.0
Li89 Li 0.9907 0.30742 0.06443 0.0
Li90 Li 0.93649 0.28546 0.04503 0.0
Li91 Li 0.9365 0.28855 0.08284 0.0
C92 C 0.9831 0.33244 0.01873 0.0
N93 N 0.98599 0.34468 0.97668 0.0
C94 C 0.00655 0.32901 0.00637 0.0
C95 C 0.96101 0.34193 0.00973 0.0
C96 C 0.00764 0.33536 0.98513 0.0
C97 C 0.9629 0.34805 0.98843 0.0
C98 C 0.00524 0.34695 0.10117 0.0
C99 C 0.03766 0.34166 0.12908 0.0
N100 N 0.05608 0.37627 0.13062 0.0
C101 C 0.02443 0.38246 0.10305 0.0
C102 C 0.01182 0.32635 0.11429 0.0
C103 C 0.05004 0.39679 0.11804 0.0
C104 C 0.94845 0.39554 0.04933 0.0
N105 N 0.97272 0.38727 0.05392 0.0
C106 C 0.01591 0.43847 0.03797 0.0
C107 C 0.00601 0.4083 0.0489 0.0
C108 C 0.99126 0.44701 0.03201 0.0
C109 C 0.95727 0.42561 0.03841 0.0
H110 H 0.92202 0.37781 0.05292 0.0
H111 H 0.02448 0.40038 0.05208 0.0
C112 C 0.03369 0.28578 0.04984 0.0
N113 N 0.03328 0.30909 0.0629 0.0
C114 C 0.06428 0.28701 0.04506 0.0
C115 C 0.0935 0.33565 0.0678 0.0
C116 C 0.0623 0.33367 0.07199 0.0
C117 C 0.09489 0.31266 0.05373 0.0
H118 H 0.01035 0.26715 0.04237 0.0
H119 H 0.06167 0.35268 0.08174 0.0
C120 C 0.87826 0.28317 0.06244 0.0
N121 N 0.80834 0.24036 0.06251 0.0
C122 C 0.86437 0.24788 0.06426 0.0
C123 C 0.85657 0.2967 0.06061 0.0
C124 C 0.82898 0.22666 0.06429 0.0
C125 C 0.82129 0.27463 0.06069 0.0
C126 C 0.94652 0.23068 0.06887 0.0
C127 C 0.91902 0.20122 0.06057 0.0
C128 C 0.9709 0.22795 0.08071 0.0
C129 C 0.91607 0.16949 0.06456 0.0
C130 C 0.96703 0.19575 0.08436 0.0
N131 N 0.93991 0.16743 0.07629 0.0
C132 C 0.92703 0.24166 0.01217 0.0
C133 C 0.88585 0.25934 0.01347 0.0
C134 C 0.91014 0.21996 0.9956 0.0
N135 N 0.91409 0.25993 0.0211 0.0
C136 C 0.86782 0.23759 0.99716 0.0
C137 C 0.87941 0.2168 0.98833 0.0
H138 H 0.95003 0.24331 0.01831 0.0
H139 H 0.87669 0.27497 0.0204 0.0
C140 C 0.88153 0.26142 0.113 0.0
N141 N 0.91155 0.26377 0.10719 0.0
C142 C 0.86098 0.23765 0.12805 0.0
C143 C 0.90391 0.22134 0.13213 0.0
C144 C 0.92335 0.24509 0.11694 0.0
C145 C 0.8718 0.21665 0.13747 0.0
H146 H 0.87279 0.27696 0.10542 0.0
H147 H 0.94736 0.24759 0.11241 0.0
O148 O 0.98143 0.32601 0.03951 0.0
O149 O 0.9802 0.33259 0.08651 0.0
O150 O 0.91286 0.30444 0.06217 0.0
O151 O 0.95025 0.26212 0.06481 0.0
H152 H 0.02372 0.32154 0.01312 0.0
H153 H 0.94232 0.34413 0.01904 0.0
H154 H 0.02569 0.33285 0.97536 0.0
H155 H 0.94593 0.35538 0.98124 0.0
H156 H 0.04316 0.32602 0.13926 0.0
H157 H 0.01957 0.39877 0.09307 0.0
H158 H 0.99762 0.29891 0.11285 0.0
H159 H 0.06512 0.42424 0.11966 0.0
H160 H 0.04225 0.45374 0.03313 0.0
H161 H 0.93747 0.43135 0.03436 0.0
H162 H 0.06408 0.26927 0.03373 0.0
H163 H 0.11644 0.3558 0.07487 0.0
H164 H 0.88076 0.23707 0.06585 0.0
H165 H 0.86688 0.32395 0.05913 0.0
H166 H 0.81793 0.19931 0.06576 0.0
H167 H 0.80421 0.28475 0.05929 0.0
H168 H 0.90022 0.20275 0.05102 0.0
H169 H 0.99246 0.25045 0.08718 0.0
H170 H 0.89488 0.1465 0.05827 0.0
H171 H 0.9856 0.19329 0.0936 0.0
H172 H 0.92056 0.20514 0.98897 0.0
H173 H 0.84422 0.23601 0.99225 0.0
H174 H 0.83664 0.23531 0.13201 0.0
H175 H 0.91329 0.20571 0.13892 0.0
Li176 Li 0.6857 0.67929 0.06684 0.0
Li177 Li 0.70339 0.64125 0.08354 0.0
Li178 Li 0.71093 0.65167 0.04607 0.0
Li179 Li 0.65367 0.61734 0.06164 0.0
C180 C 0.75549 0.71769 0.07277 0.0
N181 N 0.80264 0.78491 0.08152 0.0
C182 C 0.76713 0.72745 0.09304 0.0
C183 C 0.76804 0.74203 0.05693 0.0
C184 C 0.79096 0.76158 0.09714 0.0
C185 C 0.79177 0.77592 0.06168 0.0
C186 C 0.62876 0.62722 0.09615 0.0
C187 C 0.582 0.5783 0.1126 0.0
N188 N 0.5626 0.59341 0.1109 0.0
C189 C 0.60852 0.64244 0.09475 0.0
C190 C 0.61557 0.59506 0.10531 0.0
C191 C 0.57507 0.62487 0.10223 0.0
C192 C 0.65716 0.71712 0.05412 0.0
N193 N 0.68085 0.71861 0.06759 0.0
C194 C 0.69823 0.77656 0.07587 0.0
C195 C 0.70034 0.74707 0.07905 0.0
C196 C 0.67555 0.77639 0.06095 0.0
C197 C 0.65418 0.74579 0.05045 0.0
H198 H 0.6414 0.69393 0.04557 0.0
H199 H 0.71825 0.74735 0.09017 0.0
C200 C 0.75923 0.64161 0.10081 0.0
N201 N 0.7287 0.63837 0.10617 0.0
C202 C 0.78239 0.64455 0.11597 0.0
C203 C 0.7428 0.64181 0.1421 0.0
C204 C 0.71994 0.63815 0.12634 0.0
C205 C 0.77456 0.64529 0.1369 0.0
H206 H 0.7662 0.64339 0.08466 0.0
H207 H 0.69589 0.63651 0.13014 0.0
C208 C 0.66875 0.66088 0.02033 0.0
N209 N 0.66803 0.67459 0.97871 0.0
C210 C 0.64713 0.63489 0.00682 0.0
C211 C 0.68985 0.69387 0.01272 0.0
C212 C 0.64718 0.64234 0.98581 0.0
C213 C 0.68916 0.70027 0.99161 0.0
C214 C 0.70181 0.58551 0.06725 0.0
C215 C 0.73098 0.58721 0.05866 0.0
C216 C 0.68386 0.56167 0.0828 0.0
C217 C 0.74209 0.56541 0.06608 0.0
C218 C 0.6958 0.54031 0.08981 0.0
N219 N 0.72444 0.54263 0.08139 0.0
C220 C 0.77393 0.67561 0.02755 0.0
C221 C 0.72788 0.63746 0.00622 0.0
C222 C 0.7974 0.67619 0.0134 0.0
N223 N 0.73997 0.65613 0.02386 0.0
C224 C 0.75056 0.63765 0.99146 0.0
C225 C 0.7857 0.65651 0.99532 0.0
H226 H 0.78278 0.68936 0.04197 0.0
H227 H 0.70075 0.6212 0.00406 0.0
C228 C 0.58645 0.59239 0.04966 0.0
N229 N 0.60953 0.58231 0.05374 0.0
C230 C 0.55704 0.57137 0.03838 0.0
C231 C 0.57509 0.52939 0.03623 0.0
C232 C 0.60417 0.55123 0.0477 0.0
C233 C 0.55163 0.53991 0.03083 0.0
H234 H 0.59208 0.61782 0.05384 0.0
H235 H 0.62357 0.54441 0.05049 0.0
O236 O 0.73217 0.68441 0.06844 0.0
O237 O 0.6614 0.64381 0.08867 0.0
O238 O 0.66907 0.65411 0.04095 0.0
O239 O 0.69076 0.60691 0.06035 0.0
H240 H 0.75768 0.70899 0.1055 0.0
H241 H 0.75954 0.73483 0.04114 0.0
H242 H 0.80009 0.76954 0.11276 0.0
H243 H 0.80158 0.79507 0.04959 0.0
H244 H 0.57138 0.5533 0.11962 0.0
H245 H 0.61843 0.66742 0.08782 0.0
H246 H 0.63107 0.58316 0.10674 0.0
H247 H 0.55902 0.63622 0.10112 0.0
H248 H 0.71476 0.79943 0.08457 0.0
H249 H 0.63657 0.74436 0.03863 0.0
H250 H 0.80688 0.64788 0.11135 0.0
H251 H 0.73602 0.64247 0.15811 0.0
H252 H 0.63069 0.60919 0.01244 0.0
H253 H 0.7065 0.7143 0.023 0.0
H254 H 0.63068 0.62245 0.97516 0.0
H255 H 0.7054 0.72567 0.98549 0.0
H256 H 0.74507 0.60537 0.04652 0.0
H257 H 0.66104 0.55977 0.08942 0.0
H258 H 0.76476 0.56661 0.05969 0.0
H259 H 0.68227 0.52187 0.10193 0.0
H260 H 0.82439 0.69094 0.01685 0.0
H261 H 0.74077 0.62178 0.9778 0.0
H262 H 0.5395 0.58037 0.03484 0.0
H263 H 0.57223 0.50559 0.03053 0.0
Li264 Li 0.62738 0.96312 0.94943 0.0
Li265 Li 0.68593 0.99445 0.93882 0.0
Li266 Li 0.65409 0.93982 0.9245 0.0
Li267 Li 0.67003 0.94709 0.96118 0.0
C268 C 0.65532 0.00733 0.90937 0.0
N269 N 0.67852 0.06722 0.88722 0.0
C270 C 0.64379 0.02994 0.91428 0.0
C271 C 0.6784 0.015 0.89309 0.0
C272 C 0.65587 0.06013 0.90292 0.0
C273 C 0.68992 0.04547 0.88211 0.0
C274 C 0.69174 0.01088 0.98032 0.0
C275 C 0.74845 0.03764 0.99468 0.0
N276 N 0.74123 0.05841 0.00619 0.0
C277 C 0.68486 0.03247 0.99228 0.0
C278 C 0.72375 0.0134 0.98153 0.0
C279 C 0.71021 0.05631 0.0053 0.0
C280 C 0.59069 0.96467 0.9822 0.0
N281 N 0.59021 0.96581 0.96118 0.0
C282 C 0.54434 0.97773 0.96221 0.0
C283 C 0.56733 0.97165 0.95098 0.0
C284 C 0.54545 0.97821 0.984 0.0
C285 C 0.56859 0.97092 0.99394 0.0
H286 H 0.60916 0.95998 0.98989 0.0
H287 H 0.56762 0.97263 0.93424 0.0
C288 C 0.75323 0.04516 0.92954 0.0
N289 N 0.72203 0.03993 0.93508 0.0
C290 C 0.78216 0.07707 0.93255 0.0
C291 C 0.74579 0.09818 0.94511 0.0
C292 C 0.71764 0.06583 0.94204 0.0
C293 C 0.77865 0.10358 0.94127 0.0
H294 H 0.75591 0.02396 0.92426 0.0
H295 H 0.69262 0.06065 0.94688 0.0
C296 C 0.5934 0.88943 0.94567 0.0
N297 N 0.53071 0.8325 0.93809 0.0
C298 C 0.58569 0.85777 0.95389 0.0
C299 C 0.56925 0.89225 0.93369 0.0
C300 C 0.55385 0.82925 0.94984 0.0
C301 C 0.53767 0.86313 0.93002 0.0
C302 C 0.71177 0.93703 0.93511 0.0
C303 C 0.68899 0.90213 0.93796 0.0
C304 C 0.7459 0.94812 0.93042 0.0
C305 C 0.70074 0.879 0.93601 0.0
C306 C 0.75667 0.92418 0.92863 0.0
N307 N 0.73406 0.89041 0.93143 0.0
C308 C 0.67949 0.92615 0.88897 0.0
C309 C 0.62476 0.88008 0.89726 0.0
C310 C 0.68384 0.90679 0.87372 0.0
N311 N 0.65068 0.91243 0.90072 0.0
C312 C 0.62782 0.85992 0.88191 0.0
C313 C 0.65806 0.87289 0.87019 0.0
H314 H 0.70009 0.95163 0.89227 0.0
H315 H 0.6022 0.86931 0.90682 0.0
C316 C 0.65273 0.91497 0.99904 0.0
N317 N 0.67839 0.92777 0.9849 0.0
C318 C 0.65363 0.89621 0.01591 0.0
C319 C 0.70808 0.9053 0.00376 0.0
C320 C 0.70646 0.92457 0.98737 0.0
C321 C 0.68089 0.88986 0.01799 0.0
H322 H 0.63092 0.91833 0.99676 0.0
H323 H 0.72694 0.93565 0.97619 0.0
O324 O 0.64409 0.97786 0.92047 0.0
O325 O 0.66762 0.98831 0.96692 0.0
O326 O 0.62437 0.91753 0.9496 0.0
O327 O 0.70099 0.96038 0.93665 0.0
H328 H 0.62607 0.02447 0.92691 0.0
H329 H 0.68756 0.99778 0.88909 0.0
H330 H 0.64735 0.07798 0.90663 0.0
H331 H 0.70795 0.05185 0.86955 0.0
H332 H 0.77342 0.04006 0.99565 0.0
H333 H 0.66028 0.031 0.99138 0.0
H334 H 0.72967 0.99722 0.97216 0.0
H335 H 0.70529 0.07325 0.01462 0.0
H336 H 0.52686 0.98331 0.95397 0.0
H337 H 0.5699 0.97049 0.01068 0.0
H338 H 0.80714 0.08036 0.92938 0.0
H339 H 0.74208 0.11779 0.95219 0.0
H340 H 0.60415 0.85529 0.96327 0.0
H341 H 0.57493 0.91659 0.92717 0.0
H342 H 0.54754 0.80455 0.95605 0.0
H343 H 0.51872 0.86486 0.92074 0.0
H344 H 0.66253 0.89288 0.9416 0.0
H345 H 0.76393 0.97498 0.92817 0.0
H346 H 0.68337 0.85197 0.93814 0.0
H347 H 0.78301 0.93246 0.92501 0.0
H348 H 0.70787 0.91794 0.86548 0.0
H349 H 0.6069 0.8342 0.87955 0.0
H350 H 0.63253 0.88574 0.02674 0.0
H351 H 0.72955 0.90105 0.00448 0.0
Li352 Li 0.05158 0.70126 0.9121 0.0
Li353 Li 0.05324 0.71413 0.94869 0.0
Li354 Li 0.03703 0.65457 0.94051 0.0
Li355 Li -0.00035 0.67718 0.93314 0.0
C356 C 0.11344 0.71976 0.94066 0.0
N357 N 0.17822 0.765 0.95488 0.0
C358 C 0.13212 0.75226 0.93185 0.0
C359 C 0.12778 0.7102 0.95663 0.0
C360 C 0.1648 0.77478 0.93927 0.0
C361 C 0.16055 0.73346 0.96362 0.0
C362 C 0.03277 0.75554 0.93076 0.0
C363 C 0.016 0.78846 0.95211 0.0
N364 N 0.03695 0.81691 0.94096 0.0
C365 C 0.054 0.78511 0.91944 0.0
C366 C 0.01352 0.75724 0.94716 0.0
C367 C 0.0558 0.81587 0.92487 0.0
C368 C 0.05971 0.73881 0.87613 0.0
N369 N 0.07301 0.72207 0.88657 0.0
C370 C 0.12352 0.74897 0.86585 0.0
C371 C 0.10374 0.72575 0.8813 0.0
C372 C 0.11157 0.76866 0.85585 0.0
C373 C 0.07864 0.76236 0.86067 0.0
H374 H 0.03549 0.7359 0.8809 0.0
H375 H 0.11387 0.71237 0.89002 0.0
C376 C 0.07685 0.73795 0.98909 0.0
N377 N 0.07766 0.74805 0.96914 0.0
C378 C 0.0955 0.76198 0.00437 0.0
C379 C 0.11543 0.80615 0.97823 0.0
C380 C 0.09686 0.78134 0.9635 0.0
C381 C 0.11486 0.79659 0.99895 0.0
H382 H 0.06211 0.71117 0.99307 0.0
H383 H 0.09867 0.78861 0.94746 0.0
C384 C 0.98335 0.63349 0.903 0.0
N385 N 0.92153 0.59772 0.88281 0.0
C386 C 0.96098 0.59927 0.90793 0.0
C387 C 0.97439 0.64947 0.88773 0.0
C388 C 0.92981 0.58164 0.89756 0.0
C389 C 0.94298 0.63097 0.87772 0.0
C390 C 0.99235 0.65916 0.97515 0.0
C391 C 0.97389 0.62401 0.97897 0.0
C392 C 0.98601 0.6811 0.98716 0.0
C393 C 0.94871 0.61134 0.9943 0.0
C394 C 0.96059 0.66745 0.00233 0.0
N395 N 0.94258 0.63314 0.00553 0.0
C396 C 0.0487 0.62195 0.97234 0.0
C397 C 0.02525 0.5855 0.94332 0.0
C398 C 0.04401 0.59469 0.98473 0.0
N399 N 0.03867 0.61683 0.95221 0.0
C400 C 0.02005 0.55734 0.95521 0.0
C401 C 0.02867 0.56163 0.97638 0.0
H402 H 0.05825 0.64693 0.97917 0.0
H403 H 0.01712 0.58203 0.92733 0.0
C404 C 0.94303 0.68761 0.92866 0.0
N405 N 0.95251 0.66429 0.93354 0.0
C406 C 0.911 0.68209 0.93462 0.0
C407 C 0.89767 0.62677 0.94787 0.0
C408 C 0.92984 0.63337 0.94164 0.0
C409 C 0.88879 0.65217 0.94546 0.0
H410 H 0.9611 0.71151 0.92149 0.0
H411 H 0.93749 0.61468 0.94458 0.0
O412 O 0.08125 0.69749 0.93374 0.0
O413 O 0.03083 0.72517 0.92578 0.0
O414 O 0.01369 0.65145 0.91324 0.0
O415 O 0.01709 0.67205 0.96014 0.0
H416 H 0.12124 0.7603 0.9197 0.0
H417 H 0.11381 0.6851 0.96354 0.0
H418 H 0.17942 0.8001 0.93269 0.0
H419 H 0.17194 0.72643 0.976 0.0
H420 H 0.00124 0.79007 0.96479 0.0
H421 H 0.06955 0.78458 0.90691 0.0
H422 H 0.99662 0.73462 0.95588 0.0
H423 H 0.07234 0.83897 0.91634 0.0
H424 H 0.14846 0.75244 0.86237 0.0
H425 H 0.06841 0.77706 0.85361 0.0
H426 H 0.09484 0.75367 0.02019 0.0
H427 H 0.13098 0.83248 0.97333 0.0
H428 H 0.96732 0.58662 0.91987 0.0
H429 H 0.99134 0.67596 0.8838 0.0
H430 H 0.91214 0.55521 0.90132 0.0
H431 H 0.93564 0.64307 0.86595 0.0
H432 H 0.97838 0.60656 0.96988 0.0
H433 H 0.00076 0.70842 0.98497 0.0
H434 H 0.93397 0.58417 0.99721 0.0
H435 H 0.95529 0.68415 0.01162 0.0
H436 H 0.05052 0.59925 0.00099 0.0
H437 H 0.00853 0.53238 0.94806 0.0
H438 H 0.90494 0.7022 0.93236 0.0
H439 H 0.88085 0.60304 0.95579 0.0
Li440 Li 0.28573 0.34678 0.95376 0.0
Li441 Li 0.31519 0.32304 0.9324 0.0
Li442 Li 0.34296 0.38349 0.93947 0.0
Li443 Li 0.29271 0.35503 0.91692 0.0
C444 C 0.34308 0.35778 0.97831 0.0
N445 N 0.376 0.38369 0.0155 0.0
C446 C 0.36344 0.34578 0.98689 0.0
C447 C 0.33939 0.3829 0.98863 0.0
C448 C 0.37988 0.35921 0.00572 0.0
C449 C 0.35626 0.39569 0.00742 0.0
C450 C 0.23651 0.2937 0.92218 0.0
C451 C 0.20226 0.25798 0.89404 0.0
N452 N 0.17519 0.26022 0.90121 0.0
C453 C 0.20821 0.29527 0.92942 0.0
C454 C 0.23341 0.27454 0.9045 0.0
C455 C 0.17748 0.27829 0.91855 0.0
C456 C 0.24121 0.35946 0.97558 0.0
N457 N 0.25679 0.34051 0.97625 0.0
C458 C 0.22845 0.31421 0.0079 0.0
C459 C 0.25115 0.31828 0.99197 0.0
C460 C 0.21178 0.33338 0.00752 0.0
C461 C 0.21855 0.35632 0.99111 0.0
H462 H 0.24583 0.37645 0.96267 0.0
H463 H 0.26401 0.30355 0.992 0.0
C464 C 0.35746 0.29483 0.93419 0.0
N465 N 0.32443 0.2868 0.93209 0.0
C466 C 0.36528 0.26963 0.93938 0.0
C467 C 0.30496 0.22817 0.93936 0.0
C468 C 0.29832 0.25416 0.9339 0.0
C469 C 0.33876 0.23611 0.94306 0.0
H470 H 0.37759 0.32118 0.93327 0.0
H471 H 0.27227 0.24877 0.93269 0.0
C472 C 0.31153 0.42146 0.9303 0.0
N473 N 0.33005 0.48454 0.91335 0.0
C474 C 0.33012 0.43181 0.91181 0.0
C475 C 0.30237 0.44323 0.94014 0.0
C476 C 0.33922 0.46378 0.90349 0.0
C477 C 0.31199 0.47501 0.93134 0.0
C478 C 0.3559 0.35036 0.89969 0.0
C479 C 0.39154 0.36803 0.89907 0.0
C480 C 0.33762 0.32138 0.88739 0.0
C481 C 0.4083 0.3559 0.8865 0.0
C482 C 0.3553 0.31004 0.87503 0.0
N483 N 0.38999 0.32736 0.87486 0.0
C484 C 0.41028 0.41109 0.95142 0.0
C485 C 0.38994 0.44986 0.95579 0.0
C486 C 0.43902 0.43165 0.96338 0.0
N487 N 0.38611 0.42007 0.94825 0.0
C488 C 0.41849 0.47136 0.96772 0.0
C489 C 0.44291 0.46176 0.9722 0.0
H490 H 0.40594 0.38661 0.946 0.0
H491 H 0.36984 0.45586 0.95388 0.0
C492 C 0.24101 0.36247 0.89962 0.0
N493 N 0.26728 0.35763 0.89419 0.0
C494 C 0.21664 0.35854 0.88504 0.0
C495 C 0.24817 0.34723 0.85908 0.0
C496 C 0.27169 0.35078 0.87431 0.0
C497 C 0.2196 0.35025 0.86445 0.0
H498 H 0.23797 0.36752 0.91562 0.0
H499 H 0.29278 0.34698 0.87042 0.0
O500 O 0.32787 0.34583 0.95951 0.0
O501 O 0.26701 0.31072 0.93239 0.0
O502 O 0.30222 0.39028 0.93883 0.0
O503 O 0.33907 0.36178 0.91199 0.0
H504 H 0.36674 0.32652 0.97898 0.0
H505 H 0.32415 0.39285 0.98203 0.0
H506 H 0.39582 0.35027 0.01252 0.0
H507 H 0.35382 0.41528 0.01552 0.0
H508 H 0.1996 0.24331 0.88024 0.0
H509 H 0.21004 0.30977 0.94313 0.0
H510 H 0.2548 0.2725 0.89889 0.0
H511 H 0.15548 0.27956 0.92387 0.0
H512 H 0.22389 0.29625 0.02029 0.0
H513 H 0.20561 0.37094 0.98989 0.0
H514 H 0.39169 0.27679 0.94184 0.0
H515 H 0.28369 0.20284 0.94231 0.0
H516 H 0.33742 0.41543 0.90387 0.0
H517 H 0.28816 0.43576 0.95452 0.0
H518 H 0.35357 0.47208 0.88919 0.0
H519 H 0.30512 0.49212 0.93883 0.0
H520 H 0.4061 0.39094 0.90813 0.0
H521 H 0.31008 0.30767 0.8875 0.0
H522 H 0.43588 0.36922 0.88595 0.0
H523 H 0.34144 0.28747 0.86556 0.0
H524 H 0.45733 0.4234 0.96635 0.0
H525 H 0.42028 0.49413 0.97444 0.0
H526 H 0.19495 0.36054 0.89019 0.0
H527 H 0.25208 0.34161 0.84336 0.0
Li528 Li 0.02086 0.39943 0.38088 0.0
Li529 Li 0.02077 0.3933 0.4192 0.0
Li530 Li 0.05089 0.37204 0.39471 0.0
Li531 Li 0.98957 0.34296 0.39706 0.0
C532 C 0.07922 0.4525 0.39273 0.0
N533 N 0.1139 0.5182 0.37705 0.0
C534 C 0.07929 0.47931 0.40353 0.0
C535 C 0.09694 0.45918 0.37399 0.0
C536 C 0.09696 0.51234 0.39535 0.0
C537 C 0.11425 0.49253 0.3663 0.0
C538 C 0.94789 0.36862 0.39731 0.0
C539 C 0.88967 0.3308 0.40799 0.0
N540 N 0.87847 0.33811 0.39024 0.0
C541 C 0.93572 0.37578 0.37919 0.0
C542 C 0.92461 0.34599 0.41186 0.0
C543 C 0.90057 0.36012 0.37591 0.0
C544 C 0.01943 0.42069 0.33947 0.0
N545 N 0.01986 0.42818 0.35989 0.0
C546 C 0.01767 0.47847 0.35175 0.0
C547 C 0.01837 0.45603 0.36623 0.0
C548 C 0.01786 0.47182 0.33053 0.0
C549 C 0.01842 0.44234 0.32439 0.0
H550 H 0.01954 0.39781 0.33487 0.0
H551 H 0.01747 0.46062 0.38258 0.0
C552 C 0.04786 0.43824 0.45492 0.0
N553 N 0.01958 0.41617 0.44404 0.0
C554 C 0.04547 0.45817 0.47078 0.0
C555 C 0.98486 0.43098 0.46455 0.0
C556 C 0.98852 0.41223 0.44869 0.0
C557 C 0.01359 0.45479 0.4756 0.0
H558 H 0.07244 0.44147 0.45071 0.0
H559 H 0.96658 0.3953 0.43961 0.0
C560 C 0.02783 0.34193 0.35739 0.0
N561 N 0.05028 0.31173 0.329 0.0
C562 C 0.0122 0.30634 0.35627 0.0
C563 C 0.05477 0.36209 0.34396 0.0
C564 C 0.0239 0.29158 0.34181 0.0
C565 C 0.06582 0.34636 0.32977 0.0
C566 C 0.00742 0.32484 0.43487 0.0
C567 C 0.01535 0.29873 0.43622 0.0
C568 C 0.98489 0.32606 0.44919 0.0
C569 C 0.00023 0.27401 0.45172 0.0
C570 C 0.9703 0.30088 0.46447 0.0
N571 N 0.97819 0.27557 0.4654 0.0
C572 C 0.11852 0.38864 0.38236 0.0
C573 C 0.07818 0.32996 0.38652 0.0
C574 C 0.14079 0.38061 0.37201 0.0
N575 N 0.08737 0.36336 0.38866 0.0
C576 C 0.09936 0.32077 0.37605 0.0
C577 C 0.13073 0.34623 0.36795 0.0
H578 H 0.12535 0.41503 0.38429 0.0
H579 H 0.05299 0.31035 0.39123 0.0
C580 C 0.93497 0.29968 0.37411 0.0
N581 N 0.949 0.30018 0.39278 0.0
C582 C 0.90495 0.27112 0.36785 0.0
C583 C 0.90443 0.24315 0.39987 0.0
C584 C 0.93446 0.27268 0.40571 0.0
C585 C 0.8893 0.24238 0.38077 0.0
H586 H 0.94735 0.32166 0.36401 0.0
H587 H 0.94596 0.27337 0.42042 0.0
O588 O 0.06153 0.41986 0.40031 0.0
O589 O 0.98232 0.38323 0.4006 0.0
O590 O 0.01715 0.3569 0.37173 0.0
O591 O 0.02223 0.34943 0.41989 0.0
H592 H 0.06542 0.47467 0.41791 0.0
H593 H 0.09691 0.43879 0.36529 0.0
H594 H 0.09706 0.53327 0.4035 0.0
H595 H 0.12785 0.49798 0.35174 0.0
H596 H 0.87146 0.31303 0.41904 0.0
H597 H 0.95311 0.39299 0.36766 0.0
H598 H 0.93336 0.33956 0.42581 0.0
H599 H 0.89087 0.36537 0.36192 0.0
H600 H 0.01637 0.50048 0.3571 0.0
H601 H 0.01835 0.43627 0.30816 0.0
H602 H 0.06826 0.47633 0.47896 0.0
H603 H 0.95993 0.42795 0.4675 0.0
H604 H 0.99166 0.29023 0.36669 0.0
H605 H 0.06734 0.38962 0.34465 0.0
H606 H 0.01216 0.2641 0.34088 0.0
H607 H 0.08683 0.3617 0.31943 0.0
H608 H 0.03305 0.29757 0.42548 0.0
H609 H 0.97858 0.34608 0.44848 0.0
H610 H 0.00607 0.25362 0.4529 0.0
H611 H 0.9527 0.30145 0.47558 0.0
H612 H 0.16509 0.40118 0.36663 0.0
H613 H 0.09002 0.29397 0.37316 0.0
H614 H 0.89452 0.27126 0.35278 0.0
H615 H 0.89309 0.22129 0.41016 0.0
Li616 Li 0.63208 0.67576 0.39562 0.0
Li617 Li 0.66135 0.64138 0.40022 0.0
Li618 Li 0.6083 0.61904 0.38014 0.0
Li619 Li 0.60646 0.62203 0.41772 0.0
C620 C 0.65463 0.66302 0.35387 0.0
N621 N 0.65626 0.667 0.31117 0.0
C622 C 0.67483 0.65346 0.34256 0.0
C623 C 0.63526 0.67462 0.34349 0.0
C624 C 0.67531 0.65565 0.32097 0.0
C625 C 0.63644 0.67645 0.32189 0.0
C626 C 0.67513 0.6811 0.43623 0.0
C627 C 0.7087 0.67645 0.46365 0.0
N628 N 0.72696 0.71108 0.46502 0.0
C629 C 0.69415 0.71664 0.43793 0.0
C630 C 0.68236 0.6608 0.44921 0.0
C631 C 0.72028 0.73132 0.45258 0.0
C632 C 0.618 0.72872 0.38425 0.0
N633 N 0.64247 0.72069 0.38872 0.0
C634 C 0.68537 0.77233 0.37303 0.0
C635 C 0.67572 0.74204 0.38374 0.0
C636 C 0.66051 0.78067 0.36723 0.0
C637 C 0.62655 0.75889 0.37354 0.0
H638 H 0.59163 0.71081 0.38786 0.0
H639 H 0.69439 0.73434 0.38685 0.0
C640 C 0.70502 0.61903 0.38793 0.0
N641 N 0.70433 0.64377 0.39945 0.0
C642 C 0.73594 0.62103 0.3831 0.0
C643 C 0.76498 0.67332 0.40282 0.0
C644 C 0.73342 0.67049 0.40709 0.0
C645 C 0.76661 0.64895 0.3901 0.0
H646 H 0.68162 0.59873 0.38145 0.0
H647 H 0.73248 0.69054 0.41556 0.0
C648 C 0.54887 0.61633 0.39558 0.0
N649 N 0.47906 0.5736 0.39316 0.0
C650 C 0.5347 0.58107 0.39783 0.0
C651 C 0.52752 0.62987 0.39204 0.0
C652 C 0.49937 0.55989 0.39658 0.0
C653 C 0.49229 0.60784 0.39088 0.0
C654 C 0.6168 0.56444 0.40571 0.0
C655 C 0.58908 0.53466 0.39787 0.0
C656 C 0.64054 0.56202 0.41837 0.0
C657 C 0.58518 0.50296 0.40324 0.0
C658 C 0.63572 0.52985 0.42339 0.0
N659 N 0.60836 0.50123 0.4158 0.0
C660 C 0.59886 0.57321 0.34847 0.0
C661 C 0.55963 0.59339 0.34751 0.0
C662 C 0.58211 0.5509 0.33213 0.0
N663 N 0.58674 0.59301 0.3562 0.0
C664 C 0.54169 0.57103 0.33143 0.0
C665 C 0.55228 0.54863 0.32389 0.0
H666 H 0.62101 0.57409 0.35543 0.0
H667 H 0.55118 0.61022 0.35349 0.0
C668 C 0.54979 0.59478 0.44652 0.0
N669 N 0.5804 0.59754 0.44185 0.0
C670 C 0.52834 0.57106 0.46131 0.0
C671 C 0.57159 0.55582 0.46761 0.0
C672 C 0.59199 0.57958 0.45265 0.0
C673 C 0.53884 0.55053 0.47166 0.0
H674 H 0.54132 0.60994 0.43823 0.0
H675 H 0.61659 0.58266 0.44916 0.0
O676 O 0.65323 0.66035 0.37498 0.0
O677 O 0.64961 0.66639 0.42189 0.0
O678 O 0.58347 0.6375 0.39639 0.0
O679 O 0.62144 0.59581 0.40033 0.0
H680 H 0.68987 0.64431 0.35035 0.0
H681 H 0.61912 0.68166 0.352 0.0
H682 H 0.69078 0.64828 0.312 0.0
H683 H 0.62149 0.68525 0.31365 0.0
H684 H 0.7147 0.66105 0.47372 0.0
H685 H 0.68878 0.73272 0.42806 0.0
H686 H 0.66819 0.63333 0.44793 0.0
H687 H 0.73524 0.75879 0.45406 0.0
H688 H 0.71171 0.78793 0.36825 0.0
H689 H 0.6066 0.76448 0.36961 0.0
H690 H 0.73581 0.60208 0.3728 0.0
H691 H 0.78793 0.6952 0.40863 0.0
H692 H 0.55081 0.57028 0.40072 0.0
H693 H 0.53802 0.65708 0.39015 0.0
H694 H 0.4881 0.53256 0.39838 0.0
H695 H 0.47547 0.61797 0.38814 0.0
H696 H 0.57086 0.53588 0.38762 0.0
H697 H 0.66231 0.58475 0.42445 0.0
H698 H 0.56379 0.47974 0.39733 0.0
H699 H 0.65376 0.52764 0.43332 0.0
H700 H 0.59185 0.53488 0.32649 0.0
H701 H 0.51881 0.57022 0.32576 0.0
H702 H 0.50358 0.56838 0.46432 0.0
H703 H 0.58083 0.54066 0.4752 0.0
Li704 Li 0.35391 -9e-05 0.39831 0.0
Li705 Li 0.37306 0.96618 0.41478 0.0
Li706 Li 0.38066 0.97505 0.37697 0.0
Li707 Li 0.3204 0.93952 0.39243 0.0
C708 C 0.42837 0.03876 0.40472 0.0
N709 N 0.48401 0.10072 0.41573 0.0
C710 C 0.4353 0.04788 0.42558 0.0
C711 C 0.44996 0.06116 0.38947 0.0
C712 C 0.4635 0.07929 0.43083 0.0
C713 C 0.47788 0.09237 0.39534 0.0
C714 C 0.31468 0.97826 0.43177 0.0
C715 C 0.26625 0.98054 0.44544 0.0
N716 N 0.28776 0.00964 0.45582 0.0
C717 C 0.33627 0.00786 0.44284 0.0
C718 C 0.27936 0.9642 0.4333 0.0
C719 C 0.32219 0.02348 0.45479 0.0
C720 C 0.31485 0.03156 0.39538 0.0
N721 N 0.34736 0.03857 0.39875 0.0
C722 C 0.36861 0.09803 0.39317 0.0
C723 C 0.37388 0.0712 0.39864 0.0
C724 C 0.33571 0.09115 0.38783 0.0
C725 C 0.30837 0.05762 0.39 0.0
H726 H 0.29425 0.00536 0.39532 0.0
H727 H 0.39947 0.07644 0.40132 0.0
C728 C 0.42817 0.96492 0.43199 0.0
N729 N 0.39838 0.96328 0.43738 0.0
C730 C 0.45223 0.96977 0.44703 0.0
C731 C 0.41451 0.97105 0.47306 0.0
C732 C 0.39081 0.96557 0.45747 0.0
C733 C 0.44614 0.97403 0.46786 0.0
H734 H 0.43397 0.96415 0.41582 0.0
H735 H 0.36733 0.96517 0.46125 0.0
C736 C 0.33653 0.998 0.35753 0.0
N737 N 0.33268 0.04357 0.33069 0.0
C738 C 0.30493 0.99144 0.34991 0.0
C739 C 0.36618 0.02754 0.35132 0.0
C740 C 0.30351 0.01482 0.33638 0.0
C741 C 0.3637 0.05033 0.33781 0.0
C742 C 0.36385 0.9057 0.40103 0.0
C743 C 0.39101 0.9011 0.39519 0.0
C744 C 0.34117 0.885 0.4164 0.0
C745 C 0.3952 0.87591 0.40501 0.0
C746 C 0.34623 0.86008 0.42585 0.0
N747 N 0.37292 0.85611 0.42002 0.0
C748 C 0.44259 0.99311 0.3586 0.0
C749 C 0.39604 0.96906 0.33514 0.0
C750 C 0.46524 0.99749 0.34273 0.0
N751 N 0.40887 0.97947 0.35449 0.0
C752 C 0.41779 0.97237 0.31881 0.0
C753 C 0.45286 0.98701 0.32258 0.0
H754 H 0.45182 0.00044 0.37425 0.0
H755 H 0.36897 0.95804 0.33247 0.0
C756 C 0.252 0.91265 0.38249 0.0
N757 N 0.27675 0.90415 0.38414 0.0
C758 C 0.22255 0.89223 0.37107 0.0
C759 C 0.24386 0.85379 0.36398 0.0
C760 C 0.273 0.87502 0.37558 0.0
C761 C 0.21871 0.86299 0.36101 0.0
H762 H 0.25628 0.93666 0.38872 0.0
H763 H 0.29363 0.86953 0.3765 0.0
O764 O 0.40089 0.00805 0.39919 0.0
O765 O 0.32796 0.96278 0.41977 0.0
O766 O 0.33843 0.97599 0.3713 0.0
O767 O 0.35967 0.93059 0.39188 0.0
H768 H 0.41922 0.03097 0.43765 0.0
H769 H 0.44515 0.05468 0.37325 0.0
H770 H 0.46909 0.08663 0.44691 0.0
H771 H 0.49467 0.10996 0.38369 0.0
H772 H 0.23897 0.97004 0.44666 0.0
H773 H 0.36359 0.01893 0.44196 0.0
H774 H 0.26223 0.94082 0.42529 0.0
H775 H 0.33865 0.04662 0.46325 0.0
H776 H 0.39052 0.1234 0.39157 0.0
H777 H 0.2825 0.05122 0.38634 0.0
H778 H 0.47579 0.97114 0.44222 0.0
H779 H 0.40874 0.97462 0.48882 0.0
H780 H 0.28171 0.96867 0.35448 0.0
H781 H 0.39079 0.033 0.35709 0.0
H782 H 0.27922 0.01016 0.33045 0.0
H783 H 0.38644 0.07344 0.33302 0.0
H784 H 0.40878 0.91701 0.38331 0.0
H785 H 0.32005 0.88834 0.42107 0.0
H786 H 0.41619 0.87213 0.40074 0.0
H787 H 0.32897 0.84393 0.43784 0.0
H788 H 0.49207 0.00823 0.34626 0.0
H789 H 0.40746 0.96382 0.30344 0.0
H790 H 0.20369 0.90012 0.36939 0.0
H791 H 0.24218 0.83172 0.35631 0.0
Li792 Li 0.35327 0.32566 0.27345 0.0
Li793 Li 0.29267 0.29447 0.27957 0.0
Li794 Li 0.3306 0.2713 0.29023 0.0
Li795 Li 0.32129 0.27412 0.25323 0.0
C796 C 0.34279 0.3386 0.31371 0.0
N797 N 0.36964 0.39327 0.34075 0.0
C798 C 0.32851 0.35973 0.31507 0.0
C799 C 0.37037 0.34499 0.32639 0.0
C800 C 0.34253 0.38731 0.32876 0.0
C801 C 0.38369 0.37285 0.33987 0.0
C802 C 0.33066 0.3456 0.24203 0.0
C803 C 0.37143 0.38313 0.21674 0.0
N804 N 0.3624 0.40701 0.22097 0.0
C805 C 0.32164 0.37041 0.24607 0.0
C806 C 0.3556 0.35187 0.22718 0.0
C807 C 0.33804 0.40134 0.23528 0.0
C808 C 0.42283 0.37502 0.26766 0.0
N809 N 0.39182 0.37095 0.27264 0.0
C810 C 0.41724 0.42983 0.28175 0.0
C811 C 0.38844 0.39796 0.27853 0.0
C812 C 0.44974 0.43381 0.2788 0.0
C813 C 0.45238 0.40635 0.27087 0.0
H814 H 0.42481 0.35356 0.26212 0.0
H815 H 0.36349 0.39449 0.28163 0.0
C816 C 0.24851 0.28624 0.3105 0.0
N817 N 0.25476 0.29679 0.29047 0.0
C818 C 0.22649 0.29215 0.32258 0.0
C819 C 0.21577 0.31781 0.29282 0.0
C820 C 0.23854 0.31179 0.28132 0.0
C821 C 0.21011 0.30872 0.31396 0.0
H822 H 0.26227 0.27491 0.31744 0.0
H823 H 0.24412 0.32015 0.26538 0.0
C824 C 0.3891 0.28281 0.27496 0.0
N825 N 0.43716 0.26766 0.29006 0.0
C826 C 0.39199 0.25592 0.26646 0.0
C827 C 0.41074 0.30197 0.29111 0.0
C828 C 0.41642 0.24866 0.27432 0.0
C829 C 0.43484 0.29393 0.29854 0.0
C830 C 0.2578 0.22115 0.26729 0.0
C831 C 0.25259 0.18799 0.2681 0.0
C832 C 0.23316 0.227 0.25822 0.0
C833 C 0.2228 0.16117 0.25969 0.0
C834 C 0.20366 0.19946 0.25003 0.0
N835 N 0.19915 0.16741 0.25091 0.0
C836 C 0.33411 0.24839 0.33083 0.0
C837 C 0.33285 0.21403 0.30275 0.0
C838 C 0.3333 0.22465 0.34503 0.0
N839 N 0.33391 0.24261 0.31016 0.0
C840 C 0.33226 0.18985 0.3163 0.0
C841 C 0.33197 0.19472 0.33777 0.0
H842 H 0.3339 0.27087 0.33627 0.0
H843 H 0.33178 0.20972 0.28624 0.0
C844 C 0.35265 0.26151 0.22041 0.0
N845 N 0.32093 0.25175 0.22784 0.0
C846 C 0.3572 0.24295 0.20473 0.0
C847 C 0.29607 0.20626 0.20316 0.0
C848 C 0.29272 0.22534 0.21912 0.0
C849 C 0.32875 0.21437 0.19627 0.0
H850 H 0.37471 0.28282 0.2274 0.0
H851 H 0.26769 0.21815 0.22494 0.0
O852 O 0.32927 0.31132 0.30046 0.0
O853 O 0.31531 0.31538 0.25264 0.0
O854 O 0.36509 0.29018 0.26764 0.0
O855 O 0.28672 0.24766 0.27553 0.0
H856 H 0.30729 0.35539 0.30535 0.0
H857 H 0.38126 0.32851 0.32598 0.0
H858 H 0.33194 0.40403 0.3298 0.0
H859 H 0.40513 0.37815 0.34969 0.0
H860 H 0.39093 0.38843 0.20529 0.0
H861 H 0.30257 0.36605 0.25764 0.0
H862 H 0.36289 0.33292 0.22392 0.0
H863 H 0.33149 0.42088 0.23834 0.0
H864 H 0.41412 0.45041 0.28786 0.0
H865 H 0.47705 0.40867 0.2681 0.0
H866 H 0.22373 0.2852 0.3388 0.0
H867 H 0.20333 0.33008 0.28533 0.0
H868 H 0.3752 0.24039 0.25418 0.0
H869 H 0.40906 0.32296 0.29777 0.0
H870 H 0.4188 0.22783 0.26795 0.0
H871 H 0.45172 0.30861 0.31103 0.0
H872 H 0.27136 0.18301 0.2751 0.0
H873 H 0.23692 0.25253 0.25731 0.0
H874 H 0.21848 0.13538 0.26014 0.0
H875 H 0.1844 0.2036 0.24292 0.0
H876 H 0.33271 0.22918 0.36145 0.0
H877 H 0.33181 0.16745 0.31 0.0
H878 H 0.38279 0.25045 0.19958 0.0
H879 H 0.27344 0.18444 0.19698 0.0
Li880 Li 0.72374 0.03697 0.24854 0.0
Li881 Li 0.72327 0.04908 0.28523 0.0
Li882 Li 0.70697 0.98979 0.27671 0.0
Li883 Li 0.67054 0.01312 0.26799 0.0
C884 C 0.78339 0.05506 0.27879 0.0
N885 N 0.84608 0.10129 0.29528 0.0
C886 C 0.8018 0.08813 0.27071 0.0
C887 C 0.79695 0.04544 0.29516 0.0
C888 C 0.83344 0.11113 0.27927 0.0
C889 C 0.82866 0.06921 0.30331 0.0
C890 C 0.69946 0.08859 0.26688 0.0
C891 C 0.6748 0.11434 0.28832 0.0
N892 N 0.69233 0.14392 0.27742 0.0
C893 C 0.71715 0.11922 0.25585 0.0
C894 C 0.67808 0.08612 0.28322 0.0
C895 C 0.71324 0.14691 0.26144 0.0
C896 C 0.73304 0.07492 0.21284 0.0
N897 N 0.74651 0.05858 0.22353 0.0
C898 C 0.79754 0.08627 0.2033 0.0
C899 C 0.77772 0.06303 0.21874 0.0
C900 C 0.78513 0.10517 0.19282 0.0
C901 C 0.75195 0.09841 0.19737 0.0
H902 H 0.70842 0.07137 0.21727 0.0
H903 H 0.78803 0.05009 0.22772 0.0
C904 C 0.74834 0.07171 0.32548 0.0
N905 N 0.74658 0.0824 0.30606 0.0
C906 C 0.76739 0.09546 0.34079 0.0
C907 C 0.78208 0.1406 0.31581 0.0
C908 C 0.76314 0.11606 0.301 0.0
C909 C 0.78451 0.1304 0.33596 0.0
H910 H 0.73556 0.04469 0.32892 0.0
H911 H 0.76281 0.12388 0.28527 0.0
C912 C 0.65517 0.96885 0.23872 0.0
N913 N 0.59313 0.9321 0.21892 0.0
C914 C 0.63154 0.936 0.24552 0.0
C915 C 0.64736 0.98295 0.22179 0.0
C916 C 0.60028 0.91784 0.23531 0.0
C917 C 0.61582 0.96398 0.21201 0.0
C918 C 0.66213 0.99389 0.31115 0.0
C919 C 0.64313 0.95859 0.31434 0.0
C920 C 0.65802 0.01573 0.32464 0.0
C921 C 0.61972 0.94573 0.33065 0.0
C922 C 0.63435 0.00187 0.34077 0.0
N923 N 0.61582 0.96745 0.3434 0.0
C924 C 0.71707 0.9565 0.30883 0.0
C925 C 0.69449 0.92053 0.27953 0.0
C926 C 0.71217 0.92907 0.32112 0.0
N927 N 0.70764 0.95171 0.2886 0.0
C928 C 0.6891 0.89221 0.29131 0.0
C929 C 0.69726 0.89618 0.31255 0.0
H930 H 0.72645 0.98138 0.31577 0.0
H931 H 0.68679 0.91733 0.26346 0.0
C932 C 0.61589 0.02433 0.25774 0.0
N933 N 0.62379 0.00172 0.26636 0.0
C934 C 0.58369 0.0206 0.26087 0.0
C935 C 0.56699 0.96786 0.27913 0.0
C936 C 0.59957 0.97283 0.2758 0.0
C937 C 0.55937 0.99289 0.27258 0.0
H938 H 0.63518 0.0464 0.24952 0.0
H939 H 0.60595 0.95442 0.28166 0.0
O940 O 0.75197 0.03249 0.27095 0.0
O941 O 0.70335 0.06135 0.26178 0.0
O942 O 0.68556 0.98739 0.24881 0.0
O943 O 0.68565 0.007 0.29546 0.0
H944 H 0.79145 0.0962 0.25826 0.0
H945 H 0.78313 0.01994 0.30155 0.0
H946 H 0.84782 0.13689 0.27328 0.0
H947 H 0.83941 0.06215 0.31604 0.0
H948 H 0.65827 0.11271 0.30091 0.0
H949 H 0.73409 0.12177 0.24329 0.0
H950 H 0.6639 0.06252 0.29171 0.0
H951 H 0.72691 0.17081 0.25311 0.0
H952 H 0.82274 0.09022 0.20009 0.0
H953 H 0.74141 0.11256 0.18995 0.0
H954 H 0.76895 0.08665 0.35613 0.0
H955 H 0.7958 0.16724 0.31129 0.0
H956 H 0.637 0.92489 0.25878 0.0
H957 H 0.66534 0.00839 0.2164 0.0
H958 H 0.58164 0.89248 0.24049 0.0
H959 H 0.60935 0.97464 0.19895 0.0
H960 H 0.64599 0.94124 0.30413 0.0
H961 H 0.67318 0.04313 0.32286 0.0
H962 H 0.60464 0.91846 0.33315 0.0
H963 H 0.63084 0.0185 0.35126 0.0
H964 H 0.71829 0.93337 0.33744 0.0
H965 H 0.6779 0.86738 0.28401 0.0
H966 H 0.57852 0.04013 0.25525 0.0
H967 H 0.54897 0.94605 0.28817 0.0
Li968 Li 0.95081 0.67809 0.28596 0.0
Li969 Li 0.97874 0.65187 0.26485 0.0
Li970 Li 0.00763 0.71265 0.2706 0.0
Li971 Li 0.95661 0.68402 0.24889 0.0
C972 C 0.01132 0.68896 0.30906 0.0
N973 N 0.0517 0.71695 0.34365 0.0
C974 C 0.03424 0.67837 0.31505 0.0
C975 C 0.00876 0.71361 0.32072 0.0
C976 C 0.05447 0.69287 0.33258 0.0
C977 C 0.02944 0.72749 0.33814 0.0
C978 C 0.89988 0.62389 0.25544 0.0
C979 C 0.86394 0.58643 0.2284 0.0
N980 N 0.83804 0.59115 0.23498 0.0
C981 C 0.87275 0.62797 0.26211 0.0
C982 C 0.89531 0.60258 0.23863 0.0
C983 C 0.84174 0.61133 0.25151 0.0
C984 C 0.90709 0.6921 0.30794 0.0
N985 N 0.92331 0.67377 0.30885 0.0
C986 C 0.8982 0.65057 0.34173 0.0
C987 C 0.91957 0.6534 0.32528 0.0
C988 C 0.88072 0.66896 0.34109 0.0
C989 C 0.88554 0.69004 0.32392 0.0
H990 H 0.91033 0.70774 0.29451 0.0
H991 H 0.93299 0.63921 0.32552 0.0
C992 C 0.02018 0.62267 0.26639 0.0
N993 N 0.98716 0.61508 0.26532 0.0
C994 C 0.02795 0.5977 0.27226 0.0
C995 C 0.96753 0.55719 0.27478 0.0
C996 C 0.96091 0.58295 0.26871 0.0
C997 C 0.00146 0.5649 0.27751 0.0
H998 H 0.0405 0.6487 0.26419 0.0
H999 H 0.93493 0.57797 0.26825 0.0
C1000 C 0.97731 0.75155 0.26088 0.0
N1001 N 0.99634 0.81386 0.24261 0.0
C1002 C 0.99632 0.76104 0.24254 0.0
C1003 C 0.96799 0.77378 0.26991 0.0
C1004 C 0.00568 0.79263 0.23355 0.0
C1005 C 0.97786 0.80516 0.26045 0.0
C1006 C 0.01777 0.67669 0.23102 0.0
C1007 C 0.0532 0.69466 0.22858 0.0
C1008 C 0.99826 0.6462 0.22022 0.0
C1009 C 0.06859 0.68135 0.21576 0.0
C1010 C 0.01459 0.6337 0.20757 0.0
N1011 N 0.04914 0.65137 0.20564 0.0
C1012 C 0.07637 0.74078 0.27987 0.0
C1013 C 0.05499 0.7779 0.28743 0.0
C1014 C 0.10562 0.76085 0.29154 0.0
N1015 N 0.05144 0.7491 0.27846 0.0
C1016 C 0.08396 0.79881 0.29921 0.0
C1017 C 0.10917 0.78968 0.30198 0.0
H1018 H 0.0722 0.71692 0.27345 0.0
H1019 H 0.03425 0.7832 0.28693 0.0
C1020 C 0.90576 0.69288 0.23099 0.0
N1021 N 0.93075 0.68578 0.22608 0.0
C1022 C 0.88091 0.68798 0.21648 0.0
C1023 C 0.90943 0.671 0.19156 0.0
C1024 C 0.93349 0.67574 0.2067 0.0
C1025 C 0.88202 0.67618 0.19652 0.0
H1026 H 0.90394 0.70038 0.24663 0.0
H1027 H 0.95354 0.67016 0.20321 0.0
O1028 O 0.99226 0.67602 0.2915 0.0
O1029 O 0.93071 0.64068 0.26532 0.0
O1030 O 0.96775 0.72077 0.27007 0.0
O1031 O 0.0023 0.68925 0.24362 0.0
H1032 H 0.03662 0.65941 0.30615 0.0
H1033 H 0.99148 0.72243 0.31613 0.0
H1034 H 0.07247 0.68508 0.33733 0.0
H1035 H 0.02795 0.74681 0.3472 0.0
H1036 H 0.86016 0.57012 0.21525 0.0
H1037 H 0.87573 0.6442 0.27515 0.0
H1038 H 0.91574 0.59855 0.23349 0.0
H1039 H 0.82066 0.61457 0.25637 0.0
H1040 H 0.89526 0.63414 0.35471 0.0
H1041 H 0.87196 0.70399 0.3225 0.0
H1042 H 0.05444 0.60461 0.27398 0.0
H1043 H 0.94634 0.5324 0.27894 0.0
H1044 H 0.00377 0.7443 0.23523 0.0
H1045 H 0.9534 0.76693 0.28415 0.0
H1046 H 0.02036 0.80028 0.21935 0.0
H1047 H 0.97085 0.82262 0.2673 0.0
H1048 H 0.06864 0.71874 0.23638 0.0
H1049 H 0.97085 0.63218 0.22176 0.0
H1050 H 0.09601 0.69491 0.21382 0.0
H1051 H -0.00021 0.60997 0.19928 0.0
H1052 H 0.12452 0.753 0.29313 0.0
H1053 H 0.0854 0.82052 0.30722 0.0
H1054 H 0.86019 0.69187 0.22127 0.0
H1055 H 0.91196 0.6627 0.17628 0.0
Li1056 Li 0.68529 0.73455 0.71561 0.0
Li1057 Li 0.68562 0.72781 0.75362 0.0
Li1058 Li 0.71489 0.70618 0.72983 0.0
Li1059 Li 0.65227 0.67702 0.73204 0.0
C1060 C 0.73844 0.7891 0.73656 0.0
N1061 N 0.76317 0.85828 0.74135 0.0
C1062 C 0.71589 0.80159 0.73854 0.0
C1063 C 0.77358 0.81182 0.73695 0.0
C1064 C 0.72888 0.83663 0.74097 0.0
C1065 C 0.78558 0.84671 0.7394 0.0
C1066 C 0.6172 0.71676 0.73989 0.0
C1067 C 0.56064 0.68835 0.7547 0.0
N1068 N 0.55652 0.7149 0.74872 0.0
C1069 C 0.61235 0.74372 0.73385 0.0
C1070 C 0.59107 0.68878 0.75035 0.0
C1071 C 0.58152 0.74232 0.73848 0.0
C1072 C 0.65395 0.75386 0.68518 0.0
N1073 N 0.68454 0.76165 0.69351 0.0
C1074 C 0.71353 0.81019 0.67139 0.0
C1075 C 0.71413 0.78866 0.68661 0.0
C1076 C 0.68216 0.80384 0.66321 0.0
C1077 C 0.65212 0.7748 0.66995 0.0
H1078 H 0.63089 0.7319 0.6908 0.0
H1079 H 0.73821 0.7939 0.6932 0.0
C1080 C 0.71342 0.77798 0.78645 0.0
N1081 N 0.68495 0.74992 0.77923 0.0
C1082 C 0.71097 0.79763 0.8024 0.0
C1083 C 0.6506 0.75749 0.80458 0.0
C1084 C 0.65411 0.73905 0.78839 0.0
C1085 C 0.67906 0.78776 0.81137 0.0
H1086 H 0.73787 0.78601 0.7793 0.0
H1087 H 0.63183 0.71671 0.78271 0.0
C1088 C 0.69325 0.68968 0.68815 0.0
N1089 N 0.71855 0.68659 0.64978 0.0
C1090 C 0.67527 0.66082 0.67572 0.0
C1091 C 0.72404 0.71698 0.68109 0.0
C1092 C 0.68847 0.65977 0.65634 0.0
C1093 C 0.73645 0.71491 0.66166 0.0
C1094 C 0.67237 0.65624 0.76786 0.0
C1095 C 0.68494 0.63361 0.76784 0.0
C1096 C 0.64628 0.65094 0.78158 0.0
C1097 C 0.67092 0.60581 0.78143 0.0
C1098 C 0.63294 0.62287 0.79494 0.0
N1099 N 0.64541 0.60105 0.79458 0.0
C1100 C 0.78197 0.72315 0.71722 0.0
C1101 C 0.73999 0.66442 0.71674 0.0
C1102 C 0.80419 0.71665 0.70556 0.0
N1103 N 0.7503 0.69721 0.72214 0.0
C1104 C 0.76142 0.65675 0.70523 0.0
C1105 C 0.79361 0.68318 0.69893 0.0
H1106 H 0.78903 0.74914 0.72103 0.0
H1107 H 0.7141 0.64457 0.71997 0.0
C1108 C 0.59286 0.63839 0.71185 0.0
N1109 N 0.61137 0.63531 0.72735 0.0
C1110 C 0.56305 0.61005 0.70497 0.0
C1111 C 0.57145 0.57561 0.73034 0.0
C1112 C 0.60137 0.60475 0.73668 0.0
C1113 C 0.55205 0.57801 0.71412 0.0
H1114 H 0.60185 0.66293 0.70448 0.0
H1115 H 0.61679 0.60263 0.74864 0.0
O1116 O 0.72632 0.75489 0.73403 0.0
O1117 O 0.64694 0.7173 0.73502 0.0
O1118 O 0.68099 0.69081 0.70731 0.0
O1119 O 0.68588 0.68361 0.75468 0.0
H1120 H 0.68868 0.78442 0.73832 0.0
H1121 H 0.79139 0.8026 0.73539 0.0
H1122 H 0.71169 0.8466 0.74257 0.0
H1123 H 0.81272 0.86458 0.73976 0.0
H1124 H 0.54029 0.66691 0.76285 0.0
H1125 H 0.6321 0.7655 0.72562 0.0
H1126 H 0.59436 0.66776 0.75528 0.0
H1127 H 0.57745 0.76302 0.7339 0.0
H1128 H 0.73733 0.83195 0.66636 0.0
H1129 H 0.62738 0.76911 0.66418 0.0
H1130 H 0.73365 0.82061 0.80742 0.0
H1131 H 0.62551 0.74899 0.81103 0.0
H1132 H 0.65143 0.63944 0.68102 0.0
H1133 H 0.73842 0.73933 0.69064 0.0
H1134 H 0.67485 0.6376 0.64653 0.0
H1135 H 0.76036 0.73577 0.65605 0.0
H1136 H 0.70538 0.63751 0.7575 0.0
H1137 H 0.63617 0.66804 0.78176 0.0
H1138 H 0.68035 0.58806 0.78154 0.0
H1139 H 0.61261 0.61838 0.80557 0.0
H1140 H 0.82884 0.73775 0.70111 0.0
H1141 H 0.75196 0.63072 0.70017 0.0
H1142 H 0.54952 0.61308 0.69207 0.0
H1143 H 0.5639 0.55142 0.73784 0.0
Li1144 Li 0.32008 0.97523 0.7299 0.0
Li1145 Li 0.29115 0.00848 0.72633 0.0
Li1146 Li 0.26604 0.95551 0.7485 0.0
Li1147 Li 0.26587 0.95234 0.71024 0.0
C1148 C 0.33448 0.01358 0.76694 0.0
N1149 N 0.38484 0.04178 0.79676 0.0
C1150 C 0.3566 0.04887 0.76757 0.0
C1151 C 0.33781 0.99266 0.78158 0.0
C1152 C 0.38196 0.06263 0.78273 0.0
C1153 C 0.36346 0.00739 0.79651 0.0
C1154 C 0.31148 0.00639 0.68543 0.0
C1155 C 0.28541 0.02368 0.65914 0.0
N1156 N 0.31385 0.03499 0.64723 0.0
C1157 C 0.34043 0.01812 0.67295 0.0
C1158 C 0.28369 0.00908 0.67848 0.0
C1159 C 0.34114 0.03251 0.65367 0.0
C1160 C 0.3632 0.95721 0.71225 0.0
N1161 N 0.36253 0.97667 0.72804 0.0
C1162 C 0.42152 0.99769 0.73504 0.0
C1163 C 0.39078 0.99654 0.73955 0.0
C1164 C 0.42318 0.97857 0.71839 0.0
C1165 C 0.3933 0.95767 0.70717 0.0
H1166 H 0.34045 0.94214 0.70315 0.0
H1167 H 0.39003 0.01241 0.75172 0.0
C1168 C 0.27657 0.06128 0.71542 0.0
N1169 N 0.30133 0.05362 0.71987 0.0
C1170 C 0.28484 0.09158 0.70495 0.0
C1171 C 0.34391 0.10585 0.70457 0.0
C1172 C 0.33454 0.07543 0.71504 0.0
C1173 C 0.31881 0.1139 0.69887 0.0
H1174 H 0.25021 0.04292 0.7188 0.0
H1175 H 0.35342 0.06794 0.71796 0.0
C1176 C 0.27964 0.89943 0.7333 0.0
N1177 N 0.2799 0.83887 0.73846 0.0
C1178 C 0.25425 0.86938 0.72418 0.0
C1179 C 0.30522 0.89864 0.745 0.0
C1180 C 0.25481 0.83903 0.72698 0.0
C1181 C 0.30488 0.86779 0.74745 0.0
C1182 C 0.20769 0.94838 0.72852 0.0
C1183 C 0.19527 0.91325 0.7299 0.0
C1184 C 0.18477 0.96055 0.72783 0.0
C1185 C 0.1601 0.89086 0.73063 0.0
C1186 C 0.14976 0.93733 0.72859 0.0
N1187 N 0.13825 0.90326 0.72996 0.0
C1188 C 0.2114 0.9286 0.77885 0.0
C1189 C 0.25133 0.90952 0.78133 0.0
C1190 C 0.19034 0.90435 0.79355 0.0
N1191 N 0.24075 0.92995 0.77253 0.0
C1192 C 0.2314 0.88532 0.79618 0.0
C1193 C 0.2 0.88183 0.80208 0.0
H1194 H 0.20353 0.94529 0.77188 0.0
H1195 H 0.2747 0.91105 0.7763 0.0
C1196 C 0.25714 0.90922 0.67705 0.0
N1197 N 0.24334 0.92635 0.68647 0.0
C1198 C 0.24021 0.8872 0.66061 0.0
C1199 C 0.19616 0.90238 0.6632 0.0
C1200 C 0.21415 0.92437 0.6794 0.0
C1201 C 0.20868 0.88271 0.6539 0.0
H1202 H 0.28082 0.91192 0.68276 0.0
H1203 H 0.20424 0.9391 0.68669 0.0
O1204 O 0.30946 -0.00026 0.75224 0.0
O1205 O 0.3106 0.99265 0.70445 0.0
O1206 O 0.27989 0.92956 0.73035 0.0
O1207 O 0.24204 0.97087 0.72776 0.0
H1208 H 0.35418 0.06549 0.75651 0.0
H1209 H 0.32109 0.96536 0.78128 0.0
H1210 H 0.39931 0.08989 0.78335 0.0
H1211 H 0.36644 0.99148 0.80787 0.0
H1212 H 0.26415 0.02606 0.6536 0.0
H1213 H 0.36215 0.01621 0.67815 0.0
H1214 H 0.26112 0.00021 0.688 0.0
H1215 H 0.36339 0.04174 0.64383 0.0
H1216 H 0.44395 0.01411 0.74411 0.0
H1217 H 0.39347 0.94313 0.6939 0.0
H1218 H 0.26469 0.09688 0.70103 0.0
H1219 H 0.37025 0.1218 0.6999 0.0
H1220 H 0.2343 0.86941 0.715 0.0
H1221 H 0.32494 0.92155 0.75232 0.0
H1222 H 0.23532 0.81561 0.72001 0.0
H1223 H 0.32446 0.86683 0.75652 0.0
H1224 H 0.21257 0.90338 0.73053 0.0
H1225 H 0.19395 0.98766 0.72674 0.0
H1226 H 0.15018 0.86363 0.73175 0.0
H1227 H 0.13173 0.9464 0.72809 0.0
H1228 H 0.16651 0.90283 0.79791 0.0
H1229 H 0.23982 0.86844 0.80226 0.0
H1230 H 0.25124 0.87318 0.65363 0.0
H1231 H 0.17189 0.8997 0.65875 0.0
Li1232 Li 0.03995 0.31233 0.75008 0.0
Li1233 Li 0.02018 0.34646 0.73278 0.0
Li1234 Li 0.98795 0.28442 0.727 0.0
Li1235 Li 0.04597 0.31932 0.71242 0.0
C1236 C 0.97994 0.32255 0.76631 0.0
N1237 N 0.95023 0.35046 0.79095 0.0
C1238 C 0.00033 0.35225 0.77763 0.0
C1239 C 0.94445 0.30676 0.76776 0.0
C1240 C 0.98483 0.36606 0.78992 0.0
C1241 C 0.92991 0.32133 0.78025 0.0
C1242 C 0.09121 0.38633 0.72639 0.0
C1243 C 0.111 0.42823 0.69896 0.0
N1244 N 0.1386 0.44938 0.7106 0.0
C1245 C 0.11996 0.40838 0.738 0.0
C1246 C 0.08683 0.39624 0.70664 0.0
C1247 C 0.14355 0.44018 0.72978 0.0
C1248 C 0.06833 0.28557 0.78064 0.0
N1249 N 0.06478 0.31224 0.77412 0.0
C1250 C 0.10683 0.34945 0.79842 0.0
C1251 C 0.08301 0.34355 0.78297 0.0
C1252 C 0.11184 0.32272 0.80517 0.0
C1253 C 0.09155 0.29019 0.79634 0.0
H1254 H 0.05413 0.26094 0.77334 0.0
H1255 H 0.08012 0.36446 0.77735 0.0
C1256 C 0.97929 0.37569 0.72973 0.0
N1257 N 0.01208 0.38398 0.73337 0.0
C1258 C 0.97144 0.40101 0.72495 0.0
C1259 C 0.03103 0.44317 0.72873 0.0
C1260 C 0.03747 0.4171 0.73426 0.0
C1261 C 0.99784 0.43516 0.72298 0.0
H1262 H 0.95951 0.34914 0.72926 0.0
H1263 H 0.06316 0.42334 0.73792 0.0
C1264 C 0.01783 0.24481 0.73713 0.0
N1265 N 0.99768 0.18202 0.75503 0.0
C1266 C 0.03299 0.22583 0.73102 0.0
C1267 C 0.99231 0.23181 0.7523 0.0
C1268 C 0.02249 0.19416 0.74028 0.0
C1269 C 0.98251 0.20002 0.76116 0.0
C1270 C 0.99322 0.32487 0.68794 0.0
C1271 C 0.97496 0.29629 0.67529 0.0
C1272 C 0.99886 0.35673 0.68125 0.0
C1273 C 0.96273 0.30003 0.6562 0.0
C1274 C 0.98626 0.35944 0.66204 0.0
N1275 N 0.96859 0.33127 0.65001 0.0
C1276 C 0.92006 0.2585 0.71621 0.0
C1277 C 0.93909 0.21884 0.71105 0.0
C1278 C 0.89038 0.23801 0.70497 0.0
N1279 N 0.94393 0.24895 0.71872 0.0
C1280 C 0.90969 0.19749 0.69975 0.0
C1281 C 0.88534 0.20751 0.69604 0.0
H1282 H 0.92521 0.28323 0.72166 0.0
H1283 H 0.95906 0.21248 0.71233 0.0
C1284 C 0.10822 0.33986 0.69247 0.0
N1285 N 0.07392 0.32272 0.68954 0.0
C1286 C 0.13009 0.34314 0.67635 0.0
C1287 C 0.08096 0.30963 0.65465 0.0
C1288 C 0.05999 0.30738 0.67118 0.0
C1289 C 0.1165 0.32791 0.65715 0.0
H1290 H 0.11866 0.35071 0.70744 0.0
H1291 H 0.03267 0.29291 0.66945 0.0
O1292 O 0.99459 0.30888 0.75393 0.0
O1293 O 0.06787 0.35509 0.73428 0.0
O1294 O 0.02764 0.27564 0.72797 0.0
O1295 O 0.00459 0.32154 0.70699 0.0
H1296 H 0.02782 0.36486 0.77662 0.0
H1297 H 0.92829 0.28343 0.7594 0.0
H1298 H 0.0003 0.38924 0.79859 0.0
H1299 H 0.90246 0.30945 0.78146 0.0
H1300 H 0.10784 0.4362 0.68373 0.0
H1301 H 0.12409 0.40107 0.7532 0.0
H1302 H 0.06517 0.37935 0.69729 0.0
H1303 H 0.16582 0.45753 0.73864 0.0
H1304 H 0.1221 0.37513 0.80434 0.0
H1305 H 0.09393 0.26857 0.80122 0.0
H1306 H 0.94517 0.39345 0.72167 0.0
H1307 H 0.05246 0.46888 0.72763 0.0
H1308 H 0.05266 0.2355 0.71923 0.0
H1309 H 0.98011 0.24597 0.75716 0.0
H1310 H 0.03403 0.17921 0.73571 0.0
H1311 H 0.96283 0.18964 0.77291 0.0
H1312 H 0.97052 0.27148 0.68006 0.0
H1313 H 0.01281 0.37921 0.69074 0.0
H1314 H 0.94861 0.2781 0.64628 0.0
H1315 H 0.99048 0.38394 0.65671 0.0
H1316 H 0.8722 0.24663 0.70262 0.0
H1317 H 0.90717 0.17452 0.69287 0.0
H1318 H 0.15735 0.35661 0.67907 0.0
H1319 H 0.06958 0.29718 0.64013 0.0
Li1320 Li 0.95035 0.63014 0.60785 0.0
Li1321 Li 0.01106 0.66013 0.60356 0.0
Li1322 Li 0.97888 0.60629 0.5847 0.0
Li1323 Li 0.98353 0.6071 0.62181 0.0
C1324 C 0.99301 0.67777 0.56947 0.0
N1325 N 0.02942 0.73691 0.5466 0.0
C1326 C 0.98453 0.7035 0.57046 0.0
C1327 C 0.01973 0.68193 0.55667 0.0
C1328 C 0.00331 0.73326 0.55882 0.0
C1329 C 0.03792 0.71207 0.54529 0.0
C1330 C 0.97191 0.64971 0.64833 0.0
C1331 C 0.97057 0.67887 0.67924 0.0
N1332 N 0.94268 0.64972 0.68589 0.0
C1333 C 0.94327 0.62 0.65548 0.0
C1334 C 0.9857 0.67939 0.66028 0.0
C1335 C 0.92884 0.62054 0.6745 0.0
C1336 C 0.88318 0.61206 0.62237 0.0
N1337 N 0.91392 0.63796 0.61587 0.0
C1338 C 0.90292 0.67916 0.63199 0.0
C1339 C 0.92372 0.67107 0.62011 0.0
C1340 C 0.87177 0.65289 0.63977 0.0
C1341 C 0.86151 0.61903 0.63423 0.0
H1342 H 0.87649 0.58585 0.61981 0.0
H1343 H 0.94901 0.69103 0.61581 0.0
C1344 C 0.08057 0.70921 0.59708 0.0
N1345 N 0.04959 0.70429 0.60294 0.0
C1346 C 0.1098 0.74088 0.60016 0.0
C1347 C 0.07414 0.76227 0.61362 0.0
C1348 C 0.0457 0.73013 0.61051 0.0
C1349 C 0.10679 0.76753 0.60913 0.0
H1350 H 0.08274 0.6881 0.59101 0.0
H1351 H 0.02064 0.72524 0.61506 0.0
C1352 C 0.91118 0.56147 0.59554 0.0
N1353 N 0.85038 0.52039 0.57528 0.0
C1354 C 0.89258 0.52649 0.59976 0.0
C1355 C 0.89884 0.57559 0.58101 0.0
C1356 C 0.86192 0.50614 0.58934 0.0
C1357 C 0.86802 0.55438 0.57096 0.0
C1358 C 0.04349 0.61713 0.61157 0.0
C1359 C 0.04704 0.58896 0.60669 0.0
C1360 C 0.06253 0.63877 0.62777 0.0
C1361 C 0.06974 0.58297 0.6181 0.0
C1362 C 0.08495 0.6319 0.63879 0.0
N1363 N 0.08806 0.60438 0.63378 0.0
C1364 C 0.01368 0.59103 0.55519 0.0
C1365 C 0.95407 0.55406 0.55235 0.0
C1366 C 0.01989 0.57178 0.54077 0.0
N1367 N 0.98126 0.58161 0.56105 0.0
C1368 C 0.95911 0.53419 0.5377 0.0
C1369 C 0.99244 0.54246 0.53207 0.0
H1370 H 0.03498 0.61274 0.56245 0.0
H1371 H 0.92849 0.54666 0.55715 0.0
C1372 C 0.99627 0.59076 0.66307 0.0
N1373 N 0.9863 0.58007 0.64332 0.0
C1374 C 0.99635 0.56816 0.67783 0.0
C1375 C 0.97786 0.52492 0.65123 0.0
C1376 C 0.9773 0.54798 0.63721 0.0
C1377 C 0.98688 0.53457 0.672 0.0
H1378 H 0.00395 0.61669 0.66744 0.0
H1379 H 0.97005 0.54048 0.62129 0.0
O1380 O 0.97543 0.64876 0.58108 0.0
O1381 O 0.98593 0.65025 0.62946 0.0
O1382 O 0.94108 0.58155 0.60582 0.0
O1383 O 0.02081 0.62299 0.60093 0.0
H1384 H 0.96367 0.70054 0.58008 0.0
H1385 H 0.02664 0.66228 0.55576 0.0
H1386 H 0.99712 0.75345 0.55949 0.0
H1387 H 0.05885 0.71575 0.53544 0.0
H1388 H 0.98096 0.70168 0.68865 0.0
H1389 H 0.93216 0.59684 0.64637 0.0
H1390 H 0.00777 0.70263 0.65489 0.0
H1391 H 0.90659 0.5978 0.68018 0.0
H1392 H 0.91229 0.70555 0.63617 0.0
H1393 H 0.83762 0.59796 0.63973 0.0
H1394 H 0.13458 0.74408 0.59645 0.0
H1395 H 0.0708 0.78204 0.62081 0.0
H1396 H 0.90176 0.5152 0.611 0.0
H1397 H 0.91268 0.60259 0.57756 0.0
H1398 H 0.84728 0.47902 0.59245 0.0
H1399 H 0.85814 0.56495 0.55971 0.0
H1400 H 0.03218 0.57171 0.59438 0.0
H1401 H 0.05964 0.66035 0.63197 0.0
H1402 H 0.07269 0.56122 0.61454 0.0
H1403 H 0.09976 0.64836 0.65141 0.0
H1404 H 0.04603 0.57908 0.5372 0.0
H1405 H 0.93707 0.51224 0.53113 0.0
H1406 H 0.0034 0.57687 0.69361 0.0
H1407 H 0.9716 0.49989 0.64566 0.0
Li1408 Li 0.38369 0.38523 0.61783 0.0
Li1409 Li 0.38424 0.37218 0.5813 0.0
Li1410 Li 0.33096 0.3493 0.60051 0.0
Li1411 Li 0.3667 0.3254 0.60979 0.0
C1412 C 0.35941 0.42418 0.59864 0.0
N1413 N 0.35033 0.47869 0.60816 0.0
C1414 C 0.37608 0.45435 0.58709 0.0
C1415 C 0.33811 0.42177 0.61501 0.0
C1416 C 0.37119 0.48163 0.59216 0.0
C1417 C 0.33381 0.44956 0.61958 0.0
C1418 C 0.4433 0.38992 0.61209 0.0
C1419 C 0.48802 0.40328 0.6369 0.0
N1420 N 0.50564 0.43559 0.62921 0.0
C1421 C 0.46192 0.42321 0.60437 0.0
C1422 C 0.45649 0.37978 0.62842 0.0
C1423 C 0.49337 0.44593 0.61325 0.0
C1424 C 0.41089 0.40812 0.65749 0.0
N1425 N 0.40731 0.41889 0.63847 0.0
C1426 C 0.44216 0.47715 0.64839 0.0
C1427 C 0.42254 0.45264 0.6337 0.0
C1428 C 0.44678 0.46681 0.66802 0.0
C1429 C 0.43083 0.43183 0.67259 0.0
H1430 H 0.39906 0.38107 0.66069 0.0
H1431 H 0.42074 0.4606 0.61824 0.0
C1432 C 0.39525 0.4097 0.5451 0.0
N1433 N 0.40789 0.3932 0.55643 0.0
C1434 C 0.41512 0.43292 0.52974 0.0
C1435 C 0.45994 0.42024 0.53715 0.0
C1436 C 0.43917 0.39725 0.55242 0.0
C1437 C 0.44839 0.43929 0.52603 0.0
H1438 H 0.37055 0.4065 0.54893 0.0
H1439 H 0.44881 0.38421 0.56191 0.0
C1440 C 0.32293 0.33143 0.64424 0.0
N1441 N 0.27793 0.30714 0.67723 0.0
C1442 C 0.30342 0.29632 0.64797 0.0
C1443 C 0.32006 0.35419 0.65759 0.0
C1444 C 0.28067 0.28454 0.66463 0.0
C1445 C 0.29702 0.34141 0.67409 0.0
C1446 C 0.31535 0.30455 0.57151 0.0
C1447 C 0.29127 0.2719 0.57837 0.0
C1448 C 0.3081 0.31872 0.55438 0.0
C1449 C 0.26014 0.25399 0.56799 0.0
C1450 C 0.27667 0.3 0.54443 0.0
N1451 N 0.25353 0.2683 0.5514 0.0
C1452 C 0.27607 0.36031 0.59001 0.0
C1453 C 0.26037 0.30962 0.60883 0.0
C1454 C 0.24404 0.35683 0.59352 0.0
N1455 N 0.28426 0.33806 0.59886 0.0
C1456 C 0.22803 0.30496 0.61259 0.0
C1457 C 0.22023 0.32979 0.60588 0.0
H1458 H 0.29506 0.382 0.58138 0.0
H1459 H 0.26694 0.29142 0.61482 0.0
C1460 C 0.37556 0.29133 0.64215 0.0
N1461 N 0.36657 0.28698 0.62184 0.0
C1462 C 0.37024 0.26359 0.65428 0.0
C1463 C 0.3477 0.22737 0.62417 0.0
C1464 C 0.35345 0.25597 0.61257 0.0
C1465 C 0.35544 0.23086 0.64547 0.0
H1466 H 0.38503 0.31611 0.64923 0.0
H1467 H 0.34617 0.25314 0.59643 0.0
O1468 O 0.36431 0.39739 0.59403 0.0
O1469 O 0.41197 0.36766 0.60402 0.0
O1470 O 0.34575 0.34347 0.62816 0.0
O1471 O 0.34565 0.32285 0.58173 0.0
H1472 H 0.39296 0.45686 0.5745 0.0
H1473 H 0.32471 0.39851 0.62391 0.0
H1474 H 0.38405 0.50516 0.58341 0.0
H1475 H 0.31729 0.44795 0.63217 0.0
H1476 H 0.49846 0.39584 0.64961 0.0
H1477 H 0.45185 0.43164 0.59194 0.0
H1478 H 0.44246 0.35412 0.63455 0.0
H1479 H 0.5079 0.47185 0.60755 0.0
H1480 H 0.45486 0.50391 0.64413 0.0
H1481 H 0.4341 0.42297 0.68753 0.0
H1482 H 0.40523 0.44721 0.52177 0.0
H1483 H 0.48522 0.42393 0.5346 0.0
H1484 H 0.30538 0.27827 0.63789 0.0
H1485 H 0.33567 0.38147 0.65541 0.0
H1486 H 0.26518 0.25742 0.66755 0.0
H1487 H 0.29444 0.35875 0.68447 0.0
H1488 H 0.2963 0.26075 0.59177 0.0
H1489 H 0.32643 0.34401 0.54894 0.0
H1490 H 0.24116 0.22879 0.57321 0.0
H1491 H 0.27063 0.3107 0.53121 0.0
H1492 H 0.23871 0.37613 0.58768 0.0
H1493 H 0.21044 0.28361 0.6221 0.0
H1494 H 0.37607 0.26753 0.67065 0.0
H1495 H 0.33662 0.20271 0.61667 0.0
Li1496 Li 0.6462 0.99065 0.6009 0.0
Li1497 Li 0.61729 0.01654 0.62076 0.0
Li1498 Li 0.62458 0.02233 0.58383 0.0
Li1499 Li 0.67448 0.05162 0.60634 0.0
C1500 C 0.56735 0.96279 0.5904 0.0
N1501 N 0.50548 0.93106 0.56996 0.0
C1502 C 0.54055 0.96734 0.59717 0.0
C1503 C 0.56247 0.9416 0.57347 0.0
C1504 C 0.50951 0.95117 0.58658 0.0
C1505 C 0.53107 0.92595 0.56326 0.0
C1506 C 0.67548 0.02857 0.6456 0.0
C1507 C 0.69008 0.06797 0.67404 0.0
N1508 N 0.71118 0.05728 0.68164 0.0
C1509 C 0.69723 0.0179 0.6537 0.0
C1510 C 0.67178 0.05374 0.65584 0.0
C1511 C 0.71508 0.03274 0.67195 0.0
C1512 C 0.68721 0.96115 0.60459 0.0
N1513 N 0.65442 0.95376 0.60218 0.0
C1514 C 0.63366 0.89518 0.61043 0.0
C1515 C 0.6278 0.92147 0.6044 0.0
C1516 C 0.6672 0.90247 0.61429 0.0
C1517 C 0.69425 0.93565 0.61041 0.0
H1518 H 0.70777 0.98726 0.60323 0.0
H1519 H 0.60196 0.9166 0.60287 0.0
C1520 C 0.57649 0.03278 0.64471 0.0
N1521 N 0.58859 0.01083 0.64323 0.0
C1522 C 0.5534 0.02857 0.66025 0.0
C1523 C 0.5561 0.97948 0.67268 0.0
C1524 C 0.57932 0.98475 0.65687 0.0
C1525 C 0.54257 0.00139 0.67435 0.0
H1526 H 0.58403 0.05293 0.63342 0.0
H1527 H 0.58944 0.96769 0.65517 0.0
C1528 C 0.68668 0.01467 0.56806 0.0
N1529 N 0.71918 0.98811 0.54476 0.0
C1530 C 0.72224 0.03227 0.5665 0.0
C1531 C 0.66764 0.98388 0.55746 0.0
C1532 C 0.7382 0.01834 0.55472 0.0
C1533 C 0.68453 0.97076 0.54586 0.0
C1534 C 0.64442 0.08983 0.59497 0.0
C1535 C 0.66313 0.09807 0.57652 0.0
C1536 C 0.63609 0.11311 0.60355 0.0
C1537 C 0.67317 0.12945 0.567 0.0
C1538 C 0.64663 0.14423 0.59356 0.0
N1539 N 0.6648 0.15169 0.57564 0.0
C1540 C 0.57411 0.02983 0.56402 0.0
C1541 C 0.60394 0.01287 0.54117 0.0
C1542 C 0.54986 0.02382 0.54883 0.0
N1543 N 0.59981 0.02327 0.56016 0.0
C1544 C 0.58052 0.00706 0.52538 0.0
C1545 C 0.5525 0.01157 0.52938 0.0
H1546 H 0.57133 0.03783 0.57933 0.0
H1547 H 0.62442 0.00759 0.53856 0.0
C1548 C 0.74243 0.07988 0.61723 0.0
N1549 N 0.71783 0.08841 0.6146 0.0
C1550 C 0.77143 0.10064 0.62893 0.0
C1551 C 0.75017 0.13958 0.6342 0.0
C1552 C 0.72143 0.11794 0.62244 0.0
C1553 C 0.77507 0.1304 0.63814 0.0
H1554 H 0.73823 0.05554 0.61166 0.0
H1555 H 0.70094 0.12349 0.62099 0.0
O1556 O 0.59824 0.97916 0.60024 0.0
O1557 O 0.65887 0.01529 0.62732 0.0
O1558 O 0.67064 0.02782 0.57964 0.0
O1559 O 0.63422 0.05929 0.60471 0.0
H1560 H 0.54382 0.98361 0.61025 0.0
H1561 H 0.58274 0.93742 0.56817 0.0
H1562 H 0.48867 0.95476 0.59152 0.0
H1563 H 0.52706 0.90976 0.55001 0.0
H1564 H 0.68767 0.08765 0.68205 0.0
H1565 H 0.70053 0.99859 0.64587 0.0
H1566 H 0.65549 0.06271 0.64959 0.0
H1567 H 0.73212 0.02486 0.67836 0.0
H1568 H 0.61202 0.87012 0.6135 0.0
H1569 H 0.72049 0.94229 0.61296 0.0
H1570 H 0.54305 0.04558 0.66065 0.0
H1571 H 0.54844 0.95828 0.68327 0.0
H1572 H 0.73735 0.05653 0.57419 0.0
H1573 H 0.64013 0.97005 0.5584 0.0
H1574 H 0.76571 0.03162 0.55346 0.0
H1575 H 0.67009 0.94679 0.53774 0.0
H1576 H 0.6698 0.08055 0.56951 0.0
H1577 H 0.6218 0.10732 0.61786 0.0
H1578 H 0.68762 0.13611 0.55272 0.0
H1579 H 0.64041 0.16248 0.60007 0.0
H1580 H 0.5288 0.02792 0.55241 0.0
H1581 H 0.58334 0.99756 0.51055 0.0
H1582 H 0.7901 0.09272 0.63144 0.0
H1583 H 0.75172 0.16203 0.64125 0.0
C1584 C 0.46803 0.98018 0.00497 0.0
C1585 C 0.48223 0.00338 0.0215 0.0
H1586 H 0.47693 0.95428 0.97999 0.0
C1587 C 0.51739 0.01878 0.02524 0.0
H1588 H 0.44106 0.96828 0.00154 0.0
C1589 C 0.53782 0.01069 0.01297 0.0
C1590 C 0.52362 0.98734 0.99652 0.0
H1591 H 0.52902 0.03675 0.03784 0.0
H1592 H 0.56485 0.02287 0.01629 0.0
C1593 C 0.48856 0.97241 0.99251 0.0
C1594 C 0.0322 0.50695 0.02004 0.0
C1595 C 0.00068 0.47662 0.01797 0.0
H1596 H 0.06613 0.55705 0.00833 0.0
C1597 C 0.97889 0.47419 0.00172 0.0
H1598 H 0.04958 0.50983 0.0324 0.0
C1599 C 0.98826 0.50144 0.988 0.0
C1600 C 0.01971 0.53182 0.99014 0.0
H1601 H 0.9547 0.45103 0.99939 0.0
H1602 H 0.97051 0.49888 0.97596 0.0
C1603 C 0.04161 0.53415 0.00629 0.0
C1604 C 0.47927 0.46507 0.00246 0.0
C1605 C 0.47097 0.48175 0.98707 0.0
H1606 H 0.51063 0.47022 0.02858 0.0
C1607 C 0.48908 0.51757 0.98635 0.0
H1608 H 0.46532 0.43748 0.00367 0.0
C1609 C 0.51503 0.53631 0.0006 0.0
C1610 C 0.52334 0.5197 0.01606 0.0
H1611 H 0.48351 0.53113 0.97456 0.0
H1612 H 0.52901 0.56387 0.99924 0.0
C1613 C 0.50515 0.48383 0.01679 0.0
C1614 C 0.16981 0.35766 0.33735 0.0
C1615 C 0.15152 0.33691 0.3543 0.0
H1616 H 0.20281 0.36555 0.31166 0.0
C1617 C 0.15202 0.30638 0.35747 0.0
H1618 H 0.16953 0.38098 0.33404 0.0
C1619 C 0.1701 0.29683 0.3441 0.0
C1620 C 0.18884 0.31782 0.32734 0.0
H1621 H 0.1386 0.28978 0.3704 0.0
H1622 H 0.16925 0.27284 0.34696 0.0
C1623 C 0.18838 0.34838 0.32416 0.0
C1624 C 0.64798 0.80817 0.3372 0.0
C1625 C 0.66971 0.81052 0.35346 0.0
H1626 H 0.63952 0.83315 0.31163 0.0
C1627 C 0.70098 0.84103 0.35581 0.0
H1628 H 0.62398 0.78488 0.33467 0.0
C1629 C 0.71022 0.86848 0.34231 0.0
C1630 C 0.68841 0.86621 0.32612 0.0
H1631 H 0.71829 0.84384 0.36821 0.0
H1632 H 0.73457 0.89151 0.34454 0.0
C1633 C 0.65719 0.83566 0.32372 0.0
C1634 C 0.1543 0.84427 0.31811 0.0
C1635 C 0.13755 0.8085 0.3169 0.0
H1636 H 0.19323 0.88943 0.33271 0.0
C1637 C 0.14738 0.79065 0.33051 0.0
H1638 H 0.14758 0.85879 0.30773 0.0
C1639 C 0.17346 0.80818 0.34494 0.0
C1640 C 0.19023 0.84398 0.34615 0.0
H1641 H 0.13449 0.76301 0.33029 0.0
H1642 H 0.1802 0.79367 0.35532 0.0
C1643 C 0.18036 0.8618 0.33252 0.0
C1644 C 0.8486 0.69 0.65261 0.0
C1645 C 0.85151 0.66061 0.65483 0.0
H1646 H 0.82802 0.72005 0.66468 0.0
C1647 C 0.83593 0.63921 0.67203 0.0
H1648 H 0.85997 0.70689 0.63948 0.0
C1649 C 0.81764 0.64678 0.68648 0.0
C1650 C 0.81463 0.67607 0.68421 0.0
H1651 H 0.83831 0.61682 0.67455 0.0
H1652 H 0.80605 0.62981 0.69956 0.0
C1653 C 0.83041 0.69764 0.66712 0.0
C1654 C 0.36808 0.20259 0.67504 0.0
C1655 C 0.34649 0.20058 0.65878 0.0
H1656 H 0.37601 0.17737 0.70067 0.0
C1657 C 0.3155 0.16991 0.656 0.0
H1658 H 0.39226 0.22568 0.67756 0.0
C1659 C 0.30633 0.14203 0.66915 0.0
C1660 C 0.32786 0.14411 0.68547 0.0
H1661 H 0.298 0.16757 0.64384 0.0
H1662 H 0.28254 0.11865 0.66632 0.0
C1663 C 0.35886 0.17476 0.68822 0.0
C1664 C 0.81254 0.13333 0.66765 0.0
C1665 C 0.80329 0.15027 0.65297 0.0
H1666 H 0.84512 0.138 0.69296 0.0
C1667 C 0.82068 0.18613 0.65291 0.0
H1668 H 0.79913 0.10571 0.66842 0.0
C1669 C 0.84697 0.20463 0.66704 0.0
C1670 C 0.85638 0.1877 0.68164 0.0
H1671 H 0.81435 0.19992 0.64171 0.0
H1672 H 0.86043 0.23225 0.66622 0.0
C1673 C 0.83879 0.15182 0.68179 0.0
C1674 C 0.36096 0.16018 0.17067 0.0
C1675 C 0.34054 0.14842 0.15281 0.0
H1676 H 0.37314 0.1901 0.19838 0.0
C1677 C 0.31688 0.15949 0.14915 0.0
H1678 H 0.37916 0.152 0.17417 0.0
C1679 C 0.31311 0.18089 0.16318 0.0
C1680 C 0.33329 0.19232 0.18106 0.0
H1681 H 0.30132 0.15184 0.13532 0.0
H1682 H 0.29461 0.18881 0.15993 0.0
C1683 C 0.35747 0.18198 0.18458 0.0
C1684 C 0.81454 0.16747 0.14751 0.0
C1685 C 0.84932 0.18884 0.15199 0.0
H1686 H 0.76728 0.12377 0.15644 0.0
C1687 C 0.86284 0.18232 0.16986 0.0
H1688 H 0.80349 0.17145 0.13366 0.0
C1689 C 0.84212 0.15503 0.18292 0.0
C1690 C 0.80736 0.13342 0.1784 0.0
H1691 H 0.88945 0.19853 0.17386 0.0
H1692 H 0.85329 0.15127 0.19679 0.0
C1693 C 0.79383 0.14004 0.16053 0.0
C1694 C 0.83704 0.68693 0.18098 0.0
C1695 C 0.85407 0.66801 0.18136 0.0
H1696 H 0.79824 0.69418 0.16685 0.0
C1697 C 0.84356 0.64063 0.16741 0.0
H1698 H 0.84463 0.70851 0.19119 0.0
C1699 C 0.81736 0.6329 0.15323 0.0
C1700 C 0.80056 0.65189 0.15291 0.0
H1701 H 0.85531 0.62486 0.16751 0.0
H1702 H 0.81012 0.61195 0.14252 0.0
C1703 C 0.81042 0.67877 0.16703 0.0
C1704 C 0.6829 0.8651 0.83695 0.0
C1705 C 0.66342 0.85097 0.85506 0.0
H1706 H 0.70336 0.85633 0.80918 0.0
C1707 C 0.64989 0.81584 0.85884 0.0
H1708 H 0.69328 0.89184 0.83324 0.0
C1709 C 0.65532 0.79543 0.84483 0.0
C1710 C 0.67484 0.80968 0.82684 0.0
H1711 H 0.63545 0.80405 0.87278 0.0
H1712 H 0.64445 0.76847 0.84815 0.0
C1713 C 0.68873 0.84476 0.82311 0.0
C1714 C 0.16907 0.81808 0.84638 0.0
C1715 C 0.13418 0.79738 0.84181 0.0
H1716 H 0.21693 0.86124 0.83773 0.0
C1717 C 0.12096 0.80542 0.82434 0.0
H1718 H 0.18003 0.81329 0.85998 0.0
C1719 C 0.14212 0.83332 0.81174 0.0
C1720 C 0.17703 0.85371 0.81624 0.0
H1721 H 0.09432 0.78991 0.82023 0.0
H1722 H 0.13132 0.83842 0.79818 0.0
C1723 C 0.19022 0.8458 0.83373 0.0
C1724 C 0.17399 0.36104 0.85015 0.0
C1725 C 0.19236 0.34355 0.84903 0.0
H1726 H 0.13364 0.36735 0.83803 0.0
C1727 C 0.18365 0.31878 0.83347 0.0
H1728 H 0.18009 0.38062 0.86168 0.0
C1729 C 0.15755 0.31192 0.81937 0.0
C1730 C 0.13901 0.32924 0.8206 0.0
H1731 H 0.19666 0.30426 0.83225 0.0
H1732 H 0.15229 0.29329 0.80733 0.0
C1733 C 0.14751 0.35375 0.8363 0.0
C1734 C 0.03179 0.51261 0.49063 0.0
C1735 C 0.01001 0.47706 0.49111 0.0
H1736 H 0.04277 0.56119 0.50257 0.0
C1737 C 0.98295 0.46313 0.5054 0.0
H1738 H 0.05253 0.52411 0.47955 0.0
C1739 C 0.97743 0.48427 0.51871 0.0
C1740 C 0.99864 0.51998 0.51793 0.0
H1741 H 0.96591 0.43578 0.50624 0.0
H1742 H 0.9566 0.47251 0.52969 0.0
C1743 C 0.02609 0.53384 0.50381 0.0
C1744 C 0.48099 0.50118 0.48055 0.0
C1745 C 0.51542 0.52265 0.48585 0.0
H1746 H 0.43311 0.45756 0.48867 0.0
C1747 C 0.52766 0.51623 0.50433 0.0
H1748 H 0.47091 0.50504 0.46624 0.0
C1749 C 0.50604 0.489 0.51717 0.0
C1750 C 0.47162 0.46738 0.51183 0.0
H1751 H 0.55394 0.53251 0.50899 0.0
H1752 H 0.51619 0.48532 0.5315 0.0
C1753 C 0.45936 0.47385 0.49337 0.0
C1754 C 0.49088 0.98117 0.51912 0.0
C1755 C 0.52535 0.00211 0.51369 0.0
H1756 H 0.43897 0.955 0.50892 0.0
C1757 C 0.53366 0.01361 0.4932 0.0
H1758 H 0.48382 0.97158 0.53479 0.0
C1759 C 0.508 0.00464 0.47845 0.0
C1760 C 0.47338 0.98338 0.48372 0.0
H1761 H 0.56002 0.03006 0.48867 0.0
H1762 H 0.51542 0.01492 0.46296 0.0
C1763 C 0.46519 0.97175 0.50429 0.0
C1764 C 0.16149 0.88148 0.02595 0.0
C1765 C 0.18647 0.87822 0.03694 0.0
H1766 H 0.11875 0.85774 0.00548 0.0
C1767 C 0.18431 0.84617 0.03799 0.0
H1768 H 0.16223 0.90578 0.02522 0.0
C1769 C 0.1593 0.8186 0.02673 0.0
C1770 C 0.13624 0.82284 0.01429 0.0
H1771 H 0.20335 0.84303 0.04628 0.0
H1772 H 0.15953 0.79476 0.02661 0.0
C1773 C 0.13666 0.85407 0.01469 0.0
C1774 C 0.15472 0.35116 0.04156 0.0
C1775 C 0.12806 0.31795 0.04591 0.0
H1776 H 0.20262 0.38205 0.02649 0.0
C1777 C 0.13189 0.29001 0.04024 0.0
H1778 H 0.15268 0.37331 0.04555 0.0
C1779 C 0.16038 0.29508 0.0289 0.0
C1780 C 0.18559 0.32818 0.02312 0.0
H1781 H 0.11212 0.26413 0.04371 0.0
H1782 H 0.16151 0.27297 0.02356 0.0
C1783 C 0.18322 0.35619 0.03038 0.0
C1784 C 0.64615 0.8073 0.04812 0.0
C1785 C 0.67627 0.80828 0.05453 0.0
H1786 H 0.62392 0.8316 0.03121 0.0
C1787 C 0.70752 0.83872 0.0519 0.0
H1788 H 0.62156 0.78454 0.05035 0.0
C1789 C 0.70886 0.86642 0.04142 0.0
C1790 C 0.67905 0.86409 0.03309 0.0
H1791 H 0.73125 0.84044 0.05668 0.0
H1792 H 0.73349 0.88901 0.03899 0.0
C1793 C 0.64752 0.83468 0.03736 0.0
C1794 C 0.81217 0.16672 0.94768 0.0
C1795 C 0.80859 0.1342 0.94985 0.0
H1796 H 0.83839 0.21888 0.9575 0.0
C1797 C 0.83113 0.13009 0.96284 0.0
H1798 H 0.79516 0.17054 0.93768 0.0
C1799 C 0.8553 0.15741 0.97449 0.0
C1800 C 0.85776 0.18963 0.97328 0.0
H1801 H 0.82853 0.10516 0.96512 0.0
H1802 H 0.87052 0.15255 0.9854 0.0
C1803 C 0.83673 0.19426 0.95916 0.0
C1804 C 0.8324 0.64357 0.99058 0.0
C1805 C 0.81014 0.65319 0.98182 0.0
H1806 H 0.87444 0.63546 0.98581 0.0
C1807 C 0.8121 0.66025 0.96052 0.0
H1808 H 0.83111 0.63773 0.00695 0.0
C1809 C 0.83711 0.65907 0.94833 0.0
C1810 C 0.85982 0.65006 0.95726 0.0
H1811 H 0.79507 0.66769 0.9535 0.0
H1812 H 0.83901 0.6656 0.93206 0.0
C1813 C 0.85688 0.64188 0.97843 0.0
C1814 C 0.36898 0.22246 0.97046 0.0
C1815 C 0.34571 0.21129 0.95391 0.0
H1816 H 0.38916 0.2084 0.9961 0.0
C1817 C 0.32663 0.17613 0.94962 0.0
H1818 H 0.38375 0.24926 0.97445 0.0
C1819 C 0.32948 0.15259 0.96231 0.0
C1820 C 0.3513 0.16386 0.97954 0.0
H1821 H 0.30871 0.16676 0.93688 0.0
H1822 H 0.31339 0.12557 0.95925 0.0
C1823 C 0.37177 0.19902 0.98309 0.0
C1824 C 0.83228 0.21454 0.3638 0.0
C1825 C 0.85844 0.21147 0.37338 0.0
H1826 H 0.78779 0.19079 0.34472 0.0
C1827 C 0.85704 0.17974 0.37327 0.0
H1828 H 0.83252 0.23862 0.36397 0.0
C1829 C 0.83144 0.15234 0.3622 0.0
C1830 C 0.80695 0.15639 0.35116 0.0
H1831 H 0.87704 0.17681 0.38047 0.0
H1832 H 0.83222 0.12885 0.36112 0.0
C1833 C 0.80677 0.18725 0.35279 0.0
C1834 C 0.8524 0.69272 0.36348 0.0
C1835 C 0.85568 0.66471 0.35732 0.0
H1836 H 0.82166 0.70975 0.37846 0.0
C1837 C 0.83236 0.63211 0.36498 0.0
H1838 H 0.87042 0.71828 0.3582 0.0
C1839 C 0.80468 0.62726 0.3771 0.0
C1840 C 0.79966 0.65486 0.38163 0.0
H1841 H 0.83419 0.60998 0.36056 0.0
H1842 H 0.78631 0.60161 0.38203 0.0
C1843 C 0.82463 0.68785 0.37539 0.0
C1844 C 0.34977 0.17734 0.37032 0.0
C1845 C 0.32985 0.16828 0.35226 0.0
H1846 H 0.36665 0.15993 0.39615 0.0
C1847 C 0.30905 0.13354 0.34745 0.0
H1848 H 0.36605 0.2039 0.37445 0.0
C1849 C 0.30974 0.10849 0.35964 0.0
C1850 C 0.33097 0.11753 0.37713 0.0
H1851 H 0.29283 0.12566 0.33388 0.0
H1852 H 0.29486 0.08216 0.3547 0.0
C1853 C 0.35031 0.15218 0.38265 0.0
C1854 C 0.52661 0.48812 0.31172 0.0
C1855 C 0.53031 0.52073 0.30933 0.0
H1856 H 0.49845 0.43528 0.30372 0.0
C1857 C 0.51004 0.5252 0.29452 0.0
H1858 H 0.5412 0.48338 0.32317 0.0
C1859 C 0.48494 0.49723 0.28358 0.0
C1860 C 0.4801 0.46444 0.28696 0.0
H1861 H 0.51269 0.55006 0.29189 0.0
H1862 H 0.46854 0.50102 0.27302 0.0
C1863 C 0.50196 0.46038 0.30057 0.0
C1864 C 0.49752 0.96242 0.28271 0.0
C1865 C 0.529 0.9929 0.28106 0.0
H1866 H 0.44817 0.93685 0.2971 0.0
C1867 C 0.53302 0.02255 0.2907 0.0
H1868 H 0.49375 0.93927 0.27536 0.0
C1869 C 0.50719 0.02107 0.30318 0.0
C1870 C 0.47675 0.99005 0.30606 0.0
H1871 H 0.55709 0.04632 0.28992 0.0
H1872 H 0.51168 0.04378 0.31146 0.0
C1873 C 0.47146 0.96107 0.29504 0.0
C1874 C 0.98958 0.50545 0.28553 0.0
C1875 C 0.00895 0.54087 0.28884 0.0
H1876 H 0.97733 0.45564 0.29616 0.0
C1877 C 0.03333 0.55325 0.30479 0.0
H1878 H 0.97074 0.49519 0.2733 0.0
C1879 C 0.03712 0.53075 0.31775 0.0
C1880 C 0.01665 0.49536 0.31509 0.0
H1881 H 0.04833 0.58033 0.308 0.0
H1882 H 0.05546 0.54106 0.33026 0.0
C1883 C 0.9935 0.48286 0.29851 0.0
C1884 C 0.46844 0.52217 0.68665 0.0
C1885 C 0.47038 0.49265 0.68286 0.0
H1886 H 0.49208 0.57185 0.70025 0.0
C1887 C 0.49714 0.48965 0.69159 0.0
H1888 H 0.44776 0.52484 0.68027 0.0
C1889 C 0.52285 0.51675 0.70275 0.0
C1890 C 0.52206 0.5472 0.70549 0.0
H1891 H 0.49931 0.46721 0.68872 0.0
H1892 H 0.5443 0.51452 0.70813 0.0
C1893 C 0.49388 0.54908 0.69799 0.0
C1894 C 0.51413 0.0217 0.69923 0.0
C1895 C 0.51506 0.99453 0.68933 0.0
H1896 H 0.48429 0.038 0.71614 0.0
C1897 C 0.48746 0.96123 0.69188 0.0
H1898 H 0.5353 0.04757 0.69784 0.0
C1899 C 0.45837 0.95562 0.70268 0.0
C1900 C 0.45629 0.98322 0.71105 0.0
H1901 H 0.48738 0.93975 0.68441 0.0
H1902 H 0.43687 0.92987 0.70361 0.0
C1903 C 0.48501 0.01613 0.70995 0.0
C1904 C 0.01313 0.49628 0.71585 0.0
C1905 C 0.99173 0.46103 0.71242 0.0
H1906 H 0.02934 0.54705 0.70553 0.0
C1907 C 0.96649 0.45068 0.69701 0.0
H1908 H 0.0323 0.50551 0.72788 0.0
C1909 C 0.96376 0.47462 0.68485 0.0
C1910 C 0.98692 0.50969 0.68712 0.0
H1911 H 0.94964 0.42401 0.69347 0.0
H1912 H 0.94397 0.46535 0.67319 0.0
C1913 C 0.01106 0.5203 0.70319 0.0
C1914 C 0.16501 0.85897 0.62538 0.0
C1915 C 0.18714 0.85522 0.63903 0.0
H1916 H 0.12217 0.83399 0.60492 0.0
C1917 C 0.18566 0.82343 0.64013 0.0
H1918 H 0.16598 0.88327 0.62376 0.0
C1919 C 0.16107 0.79552 0.62903 0.0
C1920 C 0.13721 0.79867 0.61677 0.0
H1921 H 0.20189 0.81934 0.65064 0.0
H1922 H 0.15918 0.77089 0.6313 0.0
C1923 C 0.14009 0.83087 0.61447 0.0
C1924 C 0.16959 0.36033 0.63617 0.0
C1925 C 0.13964 0.32946 0.64047 0.0
H1926 H 0.21845 0.38463 0.62156 0.0
C1927 C 0.13399 0.29951 0.63046 0.0
H1928 H 0.17434 0.38384 0.64351 0.0
C1929 C 0.15921 0.29994 0.61775 0.0
C1930 C 0.19033 0.33037 0.61475 0.0
H1931 H 0.1111 0.27536 0.63354 0.0
H1932 H 0.1551 0.27616 0.61115 0.0
C1933 C 0.19466 0.36081 0.62339 0.0
C1934 C 0.65767 0.81819 0.63236 0.0
C1935 C 0.68056 0.82889 0.6491 0.0
H1936 H 0.63603 0.83313 0.6078 0.0
C1937 C 0.70062 0.86396 0.65322 0.0
H1938 H 0.64214 0.79133 0.62868 0.0
C1939 C 0.69714 0.88775 0.64134 0.0
C1940 C 0.67355 0.87712 0.62499 0.0
H1941 H 0.71799 0.87305 0.66624 0.0
H1942 H 0.71186 0.91441 0.64567 0.0
C1943 C 0.65421 0.84209 0.62041 0.0
loop_
_geom_bond_atom_site_label_1
_geom_bond_atom_site_label_2
_geom_bond_distance
_geom_bond_site_symmetry_2
_ccdc_geom_bond_type
Li0 N17 1.990 . S
Li0 O60 1.956 . S
Li0 O61 1.970 . S
Li0 O62 1.961 . S
Li1 N25 1.990 . S
Li1 O60 1.970 . S
Li1 O61 1.956 . S
Li1 O63 1.961 . S
Li2 N47 1.990 . S
Li2 O60 1.961 . S
Li2 O62 1.956 . S
Li2 O63 1.970 . S
Li3 N53 1.990 . S
Li3 O61 1.961 1_565 S
Li3 O62 1.970 1_565 S
Li3 O63 1.956 1_565 S
C4 C6 1.348 . S
C4 C7 1.356 . S
C4 O60 1.325 . S
N5 C8 1.314 . S
N5 C9 1.279 . S
C6 C4 1.348 . S
C6 C8 1.353 . S
C6 H64 0.929 . S
C7 C4 1.356 . S
C7 C9 1.358 . S
C7 H65 0.930 . S
C8 N5 1.314 . S
C8 C6 1.353 . S
C8 H66 0.930 . S
C9 N5 1.279 . S
C9 C7 1.358 . S
C9 H67 0.930 . S
C10 C13 1.348 . S
C10 C14 1.356 . S
C10 O61 1.325 . S
C11 N12 1.279 . S
C11 C14 1.358 . S
C11 H68 0.915 1_545 S
N12 C11 1.279 . S
N12 C15 1.314 . S
C13 C10 1.348 . S
C13 C15 1.353 . S
C13 H69 0.929 . S
C14 C10 1.356 . S
C14 C11 1.358 . S
C14 H70 0.930 1_545 S
C15 N12 1.314 . S
C15 C13 1.353 . S
C15 H71 0.930 . S
C16 N17 1.314 . S
C16 C21 1.353 1_554 S
C16 H22 0.930 . S
N17 Li0 1.990 . S
N17 C16 1.314 . S
N17 C19 1.279 . S
C18 C19 1.358 . S
C18 C20 1.356 1_554 S
C18 H72 0.930 . S
C19 N17 1.279 . S
C19 C18 1.358 . S
C19 H23 0.930 . S
C20 C18 1.356 1_556 S
C20 C21 1.348 . S
C21 C16 1.353 1_556 S
C21 C20 1.348 . S
C21 H73 0.929 . S
H22 C16 0.930 . S
H23 C19 0.930 . S
C24 N25 1.314 . S
C24 C26 1.353 . S
C24 H30 0.930 . S
N25 Li1 1.990 . S
N25 C24 1.314 . S
N25 C28 1.279 . S
C26 C24 1.353 . S
C26 C29 1.348 . S
C26 H74 0.929 . S
C27 C28 1.358 . S
C27 C29 1.356 . S
C27 H75 0.930 . S
C28 N25 1.279 . S
C28 C27 1.358 . S
C28 H31 0.930 . S
C29 C26 1.348 . S
C29 C27 1.356 . S
H30 C24 0.930 . S
H31 C28 0.930 . S
C32 C34 1.348 1_545 S
C32 C35 1.356 1_554 S
C32 O62 1.325 . S
N33 C36 1.327 . S
N33 C37 1.258 1_565 S
C34 C32 1.348 1_565 S
C34 C36 1.353 1_554 S
C34 H76 0.929 . S
C35 C32 1.356 1_556 S
C35 C37 1.358 . S
C35 H77 0.930 . S
C36 N33 1.327 . S
C36 C34 1.353 1_556 S
C36 H78 0.930 . S
C37 N33 1.258 1_545 S
C37 C35 1.358 . S
C37 H79 0.930 . S
C38 C39 1.348 . S
C38 C40 1.356 . S
C38 O63 1.325 1_565 S
C39 C38 1.348 . S
C39 C41 1.353 . S
C39 H80 0.929 . S
C40 C38 1.356 . S
C40 C42 1.358 . S
C40 H81 0.930 . S
C41 C39 1.353 . S
C41 N43 1.314 . S
C41 H82 0.930 . S
C42 C40 1.358 . S
C42 N43 1.279 . S
C42 H83 0.930 . S
N43 C41 1.314 . S
N43 C42 1.279 . S
C44 C46 1.353 . S
C44 N47 1.314 . S
C44 H50 0.930 . S
C45 N47 1.279 . S
C45 C48 1.358 . S
C45 H51 0.930 . S
C46 C44 1.353 . S
C46 C49 1.348 . S
C46 H84 0.929 . S
N47 Li2 1.990 . S
N47 C44 1.314 . S
N47 C45 1.279 . S
C48 C45 1.358 . S
C48 C49 1.356 . S
C48 H85 0.930 . S
C49 C46 1.348 . S
C49 C48 1.356 . S
H50 C44 0.930 . S
H51 C45 0.930 . S
C52 N53 1.314 . S
C52 C54 1.353 . S
C52 H58 0.930 . S
N53 Li3 1.990 . S
N53 C52 1.314 . S
N53 C56 1.279 . S
C54 C52 1.353 . S
C54 C57 1.348 . S
C54 H86 0.929 . S
C55 C56 1.358 . S
C55 C57 1.356 . S
C55 H87 0.930 . S
C56 N53 1.279 . S
C56 C55 1.358 . S
C56 H59 0.930 . S
C57 C54 1.348 . S
C57 C55 1.356 . S
H58 C52 0.930 . S
H59 C56 0.930 . S
O60 Li0 1.956 . S
O60 Li1 1.970 . S
O60 Li2 1.961 . S
O60 C4 1.325 . S
O61 Li0 1.970 . S
O61 Li1 1.956 . S
O61 Li3 1.961 1_545 S
O61 C10 1.325 . S
O62 Li0 1.961 . S
O62 Li2 1.956 . S
O62 Li3 1.970 1_545 S
O62 C32 1.325 . S
O63 Li1 1.961 . S
O63 Li2 1.970 . S
O63 Li3 1.956 1_545 S
O63 C38 1.325 1_545 S
H64 C6 0.929 . S
H65 C7 0.930 . S
H66 C8 0.930 . S
H67 C9 0.930 . S
H68 C11 0.915 1_565 S
H69 C13 0.929 . S
H70 C14 0.930 1_565 S
H71 C15 0.930 . S
H72 C18 0.930 . S
H73 C21 0.929 . S
H74 C26 0.929 . S
H75 C27 0.930 . S
H76 C34 0.929 . S
H77 C35 0.930 . S
H78 C36 0.930 . S
H79 C37 0.930 . S
H80 C39 0.929 . S
H81 C40 0.930 . S
H82 C41 0.930 . S
H83 C42 0.930 . S
H84 C46 0.929 . S
H85 C48 0.930 . S
H86 C54 0.929 . S
H87 C55 0.930 . S
Li88 N105 1.990 . S
Li88 O148 1.956 . S
Li88 O149 1.970 . S
Li88 O150 1.961 . S
Li89 N113 1.990 . S
Li89 O148 1.970 1_455 S
Li89 O149 1.956 1_455 S
Li89 O151 1.961 1_455 S
Li90 N135 1.990 . S
Li90 O148 1.961 . S
Li90 O150 1.956 . S
Li90 O151 1.970 . S
Li91 N141 1.990 . S
Li91 O149 1.961 . S
Li91 O150 1.970 . S
Li91 O151 1.956 . S
C92 C94 1.348 1_655 S
C92 C95 1.356 1_554 S
C92 O148 1.325 . S
N93 C96 1.322 . S
N93 C97 1.270 1_455 S
C94 C92 1.348 1_455 S
C94 C96 1.353 1_554 S
C94 H152 0.929 . S
C95 C92 1.356 1_556 S
C95 C97 1.358 . S
C95 H153 0.942 . S
C96 N93 1.322 . S
C96 C94 1.353 1_556 S
C96 H154 0.930 . S
C97 N93 1.270 1_655 S
C97 C95 1.358 . S
C97 H155 0.930 . S
C98 C101 1.348 . S
C98 C102 1.356 . S
C98 O149 1.325 1_455 S
C99 N100 1.279 . S
C99 C102 1.358 . S
C99 H156 0.930 . S
N100 C99 1.279 . S
N100 C103 1.314 . S
C101 C98 1.348 . S
C101 C103 1.353 . S
C101 H157 0.929 . S
C102 C98 1.356 . S
C102 C99 1.358 . S
C102 H158 0.930 . S
C103 N100 1.314 . S
C103 C101 1.353 . S
C103 H159 0.930 . S
C104 N105 1.314 . S
C104 C109 1.353 . S
C104 H110 0.930 . S
N105 Li88 1.990 . S
N105 C104 1.314 . S
N105 C107 1.279 . S
C106 C107 1.358 . S
C106 C108 1.356 . S
C106 H160 0.930 . S
C107 N105 1.279 . S
C107 C106 1.358 . S
C107 H111 0.930 . S
C108 C106 1.356 . S
C108 C109 1.348 . S
C109 C104 1.353 . S
C109 C108 1.348 . S
C109 H161 0.929 . S
H110 C104 0.930 . S
H111 C107 0.930 . S
C112 N113 1.314 . S
C112 C114 1.353 . S
C112 H118 0.930 . S
N113 Li89 1.990 . S
N113 C112 1.314 . S
N113 C116 1.279 . S
C114 C112 1.353 . S
C114 C117 1.348 . S
C114 H162 0.929 . S
C115 C116 1.358 . S
C115 C117 1.356 . S
C115 H163 0.930 . S
C116 N113 1.279 . S
C116 C115 1.358 . S
C116 H119 0.930 . S
C117 C114 1.348 . S
C117 C115 1.356 . S
H118 C112 0.930 . S
H119 C116 0.930 . S
C120 C122 1.348 . S
C120 C123 1.356 . S
C120 O150 1.325 . S
N121 C124 1.314 . S
N121 C125 1.279 . S
C122 C120 1.348 . S
C122 C124 1.353 . S
C122 H164 0.929 . S
C123 C120 1.356 . S
C123 C125 1.358 . S
C123 H165 0.930 . S
C124 N121 1.314 . S
C124 C122 1.353 . S
C124 H166 0.930 . S
C125 N121 1.279 . S
C125 C123 1.358 . S
C125 H167 0.930 . S
C126 C127 1.348 . S
C126 C128 1.356 . S
C126 O151 1.325 . S
C127 C126 1.348 . S
C127 C129 1.353 . S
C127 H168 0.929 . S
C128 C126 1.356 . S
C128 C130 1.358 . S
C128 H169 0.930 1_655 S
C129 C127 1.353 . S
C129 N131 1.314 . S
C129 H170 0.930 . S
C130 C128 1.358 . S
C130 N131 1.279 . S
C130 H171 0.930 1_655 S
N131 C129 1.314 . S
N131 C130 1.279 . S
C132 C134 1.353 1_554 S
C132 N135 1.314 . S
C132 H138 0.930 . S
C133 N135 1.279 . S
C133 C136 1.358 . S
C133 H139 0.930 . S
C134 C132 1.353 1_556 S
C134 C137 1.348 . S
C134 H172 0.929 . S
N135 Li90 1.990 . S
N135 C132 1.314 . S
N135 C133 1.279 . S
C136 C133 1.358 . S
C136 C137 1.356 1_554 S
C136 H173 0.930 . S
C137 C134 1.348 . S
C137 C136 1.356 1_556 S
H138 C132 0.930 . S
H139 C133 0.930 . S
C140 N141 1.314 . S
C140 C142 1.353 . S
C140 H146 0.930 . S
N141 Li91 1.990 . S
N141 C140 1.314 . S
N141 C144 1.279 . S
C142 C140 1.353 . S
C142 C145 1.348 . S
C142 H174 0.929 . S
C143 C144 1.358 . S
C143 C145 1.356 . S
C143 H175 0.930 . S
C144 N141 1.279 . S
C144 C143 1.358 . S
C144 H147 0.930 . S
C145 C142 1.348 . S
C145 C143 1.356 . S
H146 C140 0.930 . S
H147 C144 0.930 . S
O148 Li88 1.956 . S
O148 Li89 1.970 1_655 S
O148 Li90 1.961 . S
O148 C92 1.325 . S
O149 Li88 1.970 . S
O149 Li89 1.956 1_655 S
O149 Li91 1.961 . S
O149 C98 1.325 1_655 S
O150 Li88 1.961 . S
O150 Li90 1.956 . S
O150 Li91 1.970 . S
O150 C120 1.325 . S
O151 Li89 1.961 1_655 S
O151 Li90 1.970 . S
O151 Li91 1.956 . S
O151 C126 1.325 . S
H152 C94 0.929 . S
H153 C95 0.942 . S
H154 C96 0.930 . S
H155 C97 0.930 . S
H156 C99 0.930 . S
H157 C101 0.929 . S
H158 C102 0.930 . S
H159 C103 0.930 . S
H160 C106 0.930 . S
H161 C109 0.929 . S
H162 C114 0.929 . S
H163 C115 0.930 . S
H164 C122 0.929 . S
H165 C123 0.930 . S
H166 C124 0.930 . S
H167 C125 0.930 . S
H168 C127 0.929 . S
H169 C128 0.930 1_455 S
H170 C129 0.930 . S
H171 C130 0.930 1_455 S
H172 C134 0.929 . S
H173 C136 0.930 . S
H174 C142 0.929 . S
H175 C143 0.930 . S
Li176 N193 1.990 . S
Li176 O236 1.956 . S
Li176 O237 1.970 . S
Li176 O238 1.961 . S
Li177 N201 1.990 . S
Li177 O236 1.970 . S
Li177 O237 1.956 . S
Li177 O239 1.961 . S
Li178 N223 1.990 . S
Li178 O236 1.961 . S
Li178 O238 1.956 . S
Li178 O239 1.970 . S
Li179 N229 1.990 . S
Li179 O237 1.961 . S
Li179 O238 1.970 . S
Li179 O239 1.956 . S
C180 C182 1.348 . S
C180 C183 1.356 . S
C180 O236 1.325 . S
N181 C184 1.314 . S
N181 C185 1.279 . S
C182 C180 1.348 . S
C182 C184 1.353 . S
C182 H240 0.929 . S
C183 C180 1.356 . S
C183 C185 1.358 . S
C183 H241 0.930 . S
C184 N181 1.314 . S
C184 C182 1.353 . S
C184 H242 0.930 . S
C185 N181 1.279 . S
C185 C183 1.358 . S
C185 H243 0.930 . S
C186 C189 1.348 . S
C186 C190 1.356 . S
C186 O237 1.325 . S
C187 N188 1.279 . S
C187 C190 1.358 . S
C187 H244 0.930 . S
N188 C187 1.279 . S
N188 C191 1.314 . S
C189 C186 1.348 . S
C189 C191 1.353 . S
C189 H245 0.929 . S
C190 C186 1.356 . S
C190 C187 1.358 . S
C190 H246 0.930 . S
C191 N188 1.314 . S
C191 C189 1.353 . S
C191 H247 0.930 . S
C192 N193 1.314 . S
C192 C197 1.353 . S
C192 H198 0.930 . S
N193 Li176 1.990 . S
N193 C192 1.314 . S
N193 C195 1.279 . S
C194 C195 1.358 . S
C194 C196 1.356 . S
C194 H248 0.930 . S
C195 N193 1.279 . S
C195 C194 1.358 . S
C195 H199 0.930 . S
C196 C194 1.356 . S
C196 C197 1.348 . S
C197 C192 1.353 . S
C197 C196 1.348 . S
C197 H249 0.929 . S
H198 C192 0.930 . S
H199 C195 0.930 . S
C200 N201 1.314 . S
C200 C202 1.353 . S
C200 H206 0.930 . S
N201 Li177 1.990 . S
N201 C200 1.314 . S
N201 C204 1.279 . S
C202 C200 1.353 . S
C202 C205 1.348 . S
C202 H250 0.929 . S
C203 C204 1.358 . S
C203 C205 1.356 . S
C203 H251 0.930 . S
C204 N201 1.279 . S
C204 C203 1.358 . S
C204 H207 0.930 . S
C205 C202 1.348 . S
C205 C203 1.356 . S
H206 C200 0.930 . S
H207 C204 0.930 . S
C208 C210 1.335 1_554 S
C208 C211 1.356 1_554 S
C208 O238 1.325 . S
N209 C212 1.314 . S
N209 C213 1.279 . S
C210 C208 1.335 1_556 S
C210 C212 1.376 . S
C210 H252 0.919 1_556 S
C211 C208 1.356 1_556 S
C211 C213 1.358 . S
C211 H253 0.930 1_556 S
C212 N209 1.314 . S
C212 C210 1.376 . S
C212 H254 0.930 . S
C213 N209 1.279 . S
C213 C211 1.358 . S
C213 H255 0.930 . S
C214 C215 1.348 . S
C214 C216 1.356 . S
C214 O239 1.325 . S
C215 C214 1.348 . S
C215 C217 1.353 . S
C215 H256 0.929 . S
C216 C214 1.356 . S
C216 C218 1.358 . S
C216 H257 0.930 . S
C217 C215 1.353 . S
C217 N219 1.314 . S
C217 H258 0.930 . S
C218 C216 1.358 . S
C218 N219 1.279 . S
C218 H259 0.930 . S
N219 C217 1.314 . S
N219 C218 1.279 . S
C220 C222 1.353 . S
C220 N223 1.314 . S
C220 H226 0.930 . S
C221 N223 1.279 . S
C221 C224 1.358 1_554 S
C221 H227 0.930 1_554 S
C222 C220 1.353 . S
C222 C225 1.295 1_554 S
C222 H260 0.929 . S
N223 Li178 1.990 . S
N223 C220 1.314 . S
N223 C221 1.279 . S
C224 C221 1.358 1_556 S
C224 C225 1.378 . S
C224 H261 0.930 . S
C225 C222 1.295 1_556 S
C225 C224 1.378 . S
H226 C220 0.930 . S
H227 C221 0.930 1_556 S
C228 N229 1.314 . S
C228 C230 1.353 . S
C228 H234 0.930 . S
N229 Li179 1.990 . S
N229 C228 1.314 . S
N229 C232 1.279 . S
C230 C228 1.353 . S
C230 C233 1.348 . S
C230 H262 0.929 . S
C231 C232 1.358 . S
C231 C233 1.356 . S
C231 H263 0.930 . S
C232 N229 1.279 . S
C232 C231 1.358 . S
C232 H235 0.930 . S
C233 C230 1.348 . S
C233 C231 1.356 . S
H234 C228 0.930 . S
H235 C232 0.930 . S
O236 Li176 1.956 . S
O236 Li177 1.970 . S
O236 Li178 1.961 . S
O236 C180 1.325 . S
O237 Li176 1.970 . S
O237 Li177 1.956 . S
O237 Li179 1.961 . S
O237 C186 1.325 . S
O238 Li176 1.961 . S
O238 Li178 1.956 . S
O238 Li179 1.970 . S
O238 C208 1.325 . S
O239 Li177 1.961 . S
O239 Li178 1.970 . S
O239 Li179 1.956 . S
O239 C214 1.325 . S
H240 C182 0.929 . S
H241 C183 0.930 . S
H242 C184 0.930 . S
H243 C185 0.930 . S
H244 C187 0.930 . S
H245 C189 0.929 . S
H246 C190 0.930 . S
H247 C191 0.930 . S
H248 C194 0.930 . S
H249 C197 0.929 . S
H250 C202 0.929 . S
H251 C203 0.930 . S
H252 C210 0.919 1_554 S
H253 C211 0.930 1_554 S
H254 C212 0.930 . S
H255 C213 0.930 . S
H256 C215 0.929 . S
H257 C216 0.930 . S
H258 C217 0.930 . S
H259 C218 0.930 . S
H260 C222 0.929 . S
H261 C224 0.930 . S
H262 C230 0.929 . S
H263 C231 0.930 . S
Li264 N281 1.990 . S
Li264 O324 1.956 . S
Li264 O325 1.970 . S
Li264 O326 1.961 . S
Li265 N289 1.990 . S
Li265 O324 1.970 1_545 S
Li265 O325 1.956 1_545 S
Li265 O327 1.961 1_545 S
Li266 N311 1.990 . S
Li266 O324 1.961 . S
Li266 O326 1.956 . S
Li266 O327 1.970 . S
Li267 N317 1.990 . S
Li267 O325 1.961 . S
Li267 O326 1.970 . S
Li267 O327 1.956 . S
C268 C270 1.348 . S
C268 C271 1.356 . S
C268 O324 1.325 1_545 S
N269 C272 1.314 . S
N269 C273 1.279 . S
C270 C268 1.348 . S
C270 C272 1.353 . S
C270 H328 0.929 . S
C271 C268 1.356 . S
C271 C273 1.358 . S
C271 H329 0.930 1_545 S
C272 N269 1.314 . S
C272 C270 1.353 . S
C272 H330 0.930 . S
C273 N269 1.279 . S
C273 C271 1.358 . S
C273 H331 0.930 . S
C274 C277 1.369 . S
C274 C278 1.356 1_556 S
C274 O325 1.325 . S
C275 N276 1.279 1_565 S
C275 C278 1.358 . S
C275 H332 0.930 . S
N276 C275 1.279 1_545 S
N276 C279 1.314 . S
C277 C274 1.369 . S
C277 C279 1.300 1_566 S
C277 H333 0.962 1_565 S
C278 C274 1.356 1_554 S
C278 C275 1.358 . S
C278 H334 0.928 . S
C279 N276 1.314 . S
C279 C277 1.300 1_544 S
C279 H335 0.930 . S
C280 N281 1.314 . S
C280 C285 1.353 . S
C280 H286 0.930 . S
N281 Li264 1.990 . S
N281 C280 1.314 . S
N281 C283 1.279 . S
C282 C283 1.358 . S
C282 C284 1.356 . S
C282 H336 0.930 1_565 S
C283 N281 1.279 . S
C283 C282 1.358 . S
C283 H287 0.930 1_565 S
C284 C282 1.356 . S
C284 C285 1.348 . S
C285 C280 1.353 . S
C285 C284 1.348 . S
C285 H337 0.929 . S
H286 C280 0.930 . S
H287 C283 0.930 1_545 S
C288 N289 1.314 . S
C288 C290 1.353 . S
C288 H294 0.930 . S
N289 Li265 1.990 . S
N289 C288 1.314 . S
N289 C292 1.279 . S
C290 C288 1.353 . S
C290 C293 1.348 . S
C290 H338 0.929 . S
C291 C292 1.358 . S
C291 C293 1.356 . S
C291 H339 0.930 . S
C292 N289 1.279 . S
C292 C291 1.358 . S
C292 H295 0.930 . S
C293 C290 1.348 . S
C293 C291 1.356 . S
H294 C288 0.930 . S
H295 C292 0.930 . S
C296 C298 1.348 . S
C296 C299 1.356 . S
C296 O326 1.325 . S
N297 C300 1.314 . S
N297 C301 1.279 . S
C298 C296 1.348 . S
C298 C300 1.353 . S
C298 H340 0.929 . S
C299 C296 1.356 . S
C299 C301 1.358 . S
C299 H341 0.930 . S
C300 N297 1.314 . S
C300 C298 1.353 . S
C300 H342 0.930 . S
C301 N297 1.279 . S
C301 C299 1.358 . S
C301 H343 0.930 . S
C302 C303 1.348 . S
C302 C304 1.356 . S
C302 O327 1.325 . S
C303 C302 1.348 . S
C303 C305 1.353 . S
C303 H344 0.929 . S
C304 C302 1.356 . S
C304 C306 1.358 . S
C304 H345 0.930 . S
C305 C303 1.353 . S
C305 N307 1.314 . S
C305 H346 0.930 . S
C306 C304 1.358 . S
C306 N307 1.279 . S
C306 H347 0.930 . S
N307 C305 1.314 . S
N307 C306 1.279 . S
C308 C310 1.353 . S
C308 N311 1.314 . S
C308 H314 0.930 . S
C309 N311 1.279 . S
C309 C312 1.358 . S
C309 H315 0.930 . S
C310 C308 1.353 . S
C310 C313 1.348 . S
C310 H348 0.929 . S
N311 Li266 1.990 . S
N311 C308 1.314 . S
N311 C309 1.279 . S
C312 C309 1.358 . S
C312 C313 1.356 . S
C312 H349 0.930 . S
C313 C310 1.348 . S
C313 C312 1.356 . S
H314 C308 0.930 . S
H315 C309 0.930 . S
C316 N317 1.314 . S
C316 C318 1.353 1_556 S
C316 H322 0.930 . S
N317 Li267 1.990 . S
N317 C316 1.314 . S
N317 C320 1.279 . S
C318 C316 1.353 1_554 S
C318 C321 1.348 . S
C318 H350 0.929 . S
C319 C320 1.358 . S
C319 C321 1.356 1_556 S
C319 H351 0.930 . S
C320 N317 1.279 . S
C320 C319 1.358 . S
C320 H323 0.930 . S
C321 C318 1.348 . S
C321 C319 1.356 1_554 S
H322 C316 0.930 . S
H323 C320 0.930 . S
O324 Li264 1.956 . S
O324 Li265 1.970 1_565 S
O324 Li266 1.961 . S
O324 C268 1.325 1_565 S
O325 Li264 1.970 . S
O325 Li265 1.956 1_565 S
O325 Li267 1.961 . S
O325 C274 1.325 . S
O326 Li264 1.961 . S
O326 Li266 1.956 . S
O326 Li267 1.970 . S
O326 C296 1.325 . S
O327 Li265 1.961 1_565 S
O327 Li266 1.970 . S
O327 Li267 1.956 . S
O327 C302 1.325 . S
H328 C270 0.929 . S
H329 C271 0.930 1_565 S
H330 C272 0.930 . S
H331 C273 0.930 . S
H332 C275 0.930 . S
H333 C277 0.962 1_545 S
H334 C278 0.928 . S
H335 C279 0.930 . S
H336 C282 0.930 1_545 S
H337 C285 0.929 . S
H338 C290 0.929 . S
H339 C291 0.930 . S
H340 C298 0.929 . S
H341 C299 0.930 . S
H342 C300 0.930 . S
H343 C301 0.930 . S
H344 C303 0.929 . S
H345 C304 0.930 . S
H346 C305 0.930 . S
H347 C306 0.930 . S
H348 C310 0.929 . S
H349 C312 0.930 . S
H350 C318 0.929 . S
H351 C319 0.930 . S
Li352 N369 1.990 . S
Li352 O412 1.956 . S
Li352 O413 1.970 . S
Li352 O414 1.958 1_455 S
Li353 N377 1.990 . S
Li353 O412 1.970 . S
Li353 O413 1.956 . S
Li353 O415 1.961 . S
Li354 N399 1.990 . S
Li354 O412 1.961 . S
Li354 O414 1.952 1_455 S
Li354 O415 1.970 . S
Li355 N405 1.990 . S
Li355 O413 1.961 1_655 S
Li355 O414 1.973 . S
Li355 O415 1.956 1_655 S
C356 C358 1.348 . S
C356 C359 1.356 . S
C356 O412 1.325 . S
N357 C360 1.314 . S
N357 C361 1.279 . S
C358 C356 1.348 . S
C358 C360 1.353 . S
C358 H416 0.929 . S
C359 C356 1.356 . S
C359 C361 1.358 . S
C359 H417 0.930 . S
C360 N357 1.314 . S
C360 C358 1.353 . S
C360 H418 0.930 . S
C361 N357 1.279 . S
C361 C359 1.358 . S
C361 H419 0.930 . S
C362 C365 1.348 . S
C362 C366 1.356 . S
C362 O413 1.325 . S
C363 N364 1.279 . S
C363 C366 1.358 . S
C363 H420 0.930 . S
N364 C363 1.279 . S
N364 C367 1.314 . S
C365 C362 1.348 . S
C365 C367 1.353 . S
C365 H421 0.929 . S
C366 C362 1.356 . S
C366 C363 1.358 . S
C366 H422 0.930 . S
C367 N364 1.314 . S
C367 C365 1.353 . S
C367 H423 0.930 . S
C368 N369 1.314 . S
C368 C373 1.353 . S
C368 H374 0.930 . S
N369 Li352 1.990 . S
N369 C368 1.314 . S
N369 C371 1.279 . S
C370 C371 1.358 . S
C370 C372 1.356 . S
C370 H424 0.930 . S
C371 N369 1.279 . S
C371 C370 1.358 . S
C371 H375 0.930 . S
C372 C370 1.356 . S
C372 C373 1.348 . S
C373 C368 1.353 . S
C373 C372 1.348 . S
C373 H425 0.929 . S
H374 C368 0.930 . S
H375 C371 0.930 . S
C376 N377 1.314 . S
C376 C378 1.353 1_556 S
C376 H382 0.930 . S
N377 Li353 1.990 . S
N377 C376 1.314 . S
N377 C380 1.279 . S
C378 C376 1.353 1_554 S
C378 C381 1.348 . S
C378 H426 0.929 . S
C379 C380 1.358 . S
C379 C381 1.356 1_556 S
C379 H427 0.930 . S
C380 N377 1.279 . S
C380 C379 1.358 . S
C380 H383 0.930 . S
C381 C378 1.348 . S
C381 C379 1.356 1_554 S
H382 C376 0.930 . S
H383 C380 0.930 . S
C384 C386 1.348 . S
C384 C387 1.356 . S
C384 O414 1.327 . S
N385 C388 1.314 . S
N385 C389 1.279 . S
C386 C384 1.348 . S
C386 C388 1.353 . S
C386 H428 0.929 . S
C387 C384 1.356 . S
C387 C389 1.358 . S
C387 H429 0.930 1_655 S
C388 N385 1.314 . S
C388 C386 1.353 . S
C388 H430 0.930 . S
C389 N385 1.279 . S
C389 C387 1.358 . S
C389 H431 0.930 . S
C390 C391 1.348 1_455 S
C390 C392 1.356 1_556 S
C390 O415 1.325 . S
C391 C390 1.348 1_655 S
C391 C393 1.353 1_556 S
C391 H432 0.929 . S
C392 C390 1.356 1_554 S
C392 C394 1.358 . S
C392 H433 0.930 1_554 S
C393 C391 1.353 1_554 S
C393 N395 1.314 . S
C393 H434 0.930 . S
C394 C392 1.358 . S
C394 N395 1.279 1_455 S
C394 H435 0.930 . S
N395 C393 1.314 . S
N395 C394 1.279 1_655 S
C396 C398 1.353 . S
C396 N399 1.314 . S
C396 H402 0.930 . S
C397 N399 1.279 . S
C397 C400 1.368 1_455 S
C397 H403 0.930 1_455 S
C398 C396 1.353 . S
C398 C401 1.348 . S
C398 H436 0.929 . S
N399 Li354 1.990 . S
N399 C396 1.314 . S
N399 C397 1.279 . S
C400 C397 1.368 1_655 S
C400 C401 1.338 1_655 S
C400 H437 0.939 . S
C401 C398 1.348 . S
C401 C400 1.338 1_455 S
H402 C396 0.930 . S
H403 C397 0.930 1_655 S
C404 N405 1.314 . S
C404 C406 1.353 . S
C404 H410 0.930 . S
N405 Li355 1.990 . S
N405 C404 1.314 . S
N405 C408 1.279 . S
C406 C404 1.353 . S
C406 C409 1.348 . S
C406 H438 0.929 . S
C407 C408 1.358 . S
C407 C409 1.356 . S
C407 H439 0.930 . S
C408 N405 1.279 . S
C408 C407 1.358 . S
C408 H411 0.930 . S
C409 C406 1.348 . S
C409 C407 1.356 . S
H410 C404 0.930 . S
H411 C408 0.930 . S
O412 Li352 1.956 . S
O412 Li353 1.970 . S
O412 Li354 1.961 . S
O412 C356 1.325 . S
O413 Li352 1.970 . S
O413 Li353 1.956 . S
O413 Li355 1.961 1_455 S
O413 C362 1.325 . S
O414 Li352 1.958 1_655 S
O414 Li354 1.952 1_655 S
O414 Li355 1.973 . S
O414 C384 1.327 . S
O415 Li353 1.961 . S
O415 Li354 1.970 . S
O415 Li355 1.956 1_455 S
O415 C390 1.325 . S
H416 C358 0.929 . S
H417 C359 0.930 . S
H418 C360 0.930 . S
H419 C361 0.930 . S
H420 C363 0.930 . S
H421 C365 0.929 . S
H422 C366 0.930 . S
H423 C367 0.930 . S
H424 C370 0.930 . S
H425 C373 0.929 . S
H426 C378 0.929 . S
H427 C379 0.930 . S
H428 C386 0.929 . S
H429 C387 0.930 1_455 S
H430 C388 0.930 . S
H431 C389 0.930 . S
H432 C391 0.929 . S
H433 C392 0.930 1_556 S
H434 C393 0.930 . S
H435 C394 0.930 . S
H436 C398 0.929 . S
H437 C400 0.939 . S
H438 C406 0.929 . S
H439 C407 0.930 . S
Li440 N457 1.990 . S
Li440 O500 1.956 . S
Li440 O501 1.970 . S
Li440 O502 1.961 . S
Li441 N465 1.990 . S
Li441 O500 1.970 . S
Li441 O501 1.956 . S
Li441 O503 1.961 . S
Li442 N487 1.990 . S
Li442 O500 1.961 . S
Li442 O502 1.956 . S
Li442 O503 1.970 . S
Li443 N493 1.990 . S
Li443 O501 1.961 . S
Li443 O502 1.970 . S
Li443 O503 1.956 . S
C444 C446 1.348 . S
C444 C447 1.356 1_556 S
C444 O500 1.325 . S
N445 C448 1.314 . S
N445 C449 1.279 . S
C446 C444 1.348 . S
C446 C448 1.353 1_556 S
C446 H504 0.929 . S
C447 C444 1.356 1_554 S
C447 C449 1.358 . S
C447 H505 0.930 1_554 S
C448 N445 1.314 . S
C448 C446 1.353 1_554 S
C448 H506 0.930 . S
C449 N445 1.279 . S
C449 C447 1.358 . S
C449 H507 0.930 . S
C450 C453 1.348 . S
C450 C454 1.356 . S
C450 O501 1.325 . S
C451 N452 1.279 . S
C451 C454 1.358 . S
C451 H508 0.930 . S
N452 C451 1.279 . S
N452 C455 1.314 . S
C453 C450 1.348 . S
C453 C455 1.353 . S
C453 H509 0.929 . S
C454 C450 1.356 . S
C454 C451 1.358 . S
C454 H510 0.930 . S
C455 N452 1.314 . S
C455 C453 1.353 . S
C455 H511 0.930 . S
C456 N457 1.314 . S
C456 C461 1.353 . S
C456 H462 0.930 . S
N457 Li440 1.990 . S
N457 C456 1.314 . S
N457 C459 1.279 . S
C458 C459 1.358 1_554 S
C458 C460 1.355 1_554 S
C458 H512 0.930 . S
C459 N457 1.279 . S
C459 C458 1.358 1_556 S
C459 H463 0.930 1_556 S
C460 C458 1.355 1_556 S
C460 C461 1.350 . S
C461 C456 1.353 . S
C461 C460 1.350 . S
C461 H513 0.929 . S
H462 C456 0.930 . S
H463 C459 0.930 1_554 S
C464 N465 1.314 . S
C464 C466 1.353 . S
C464 H470 0.930 . S
N465 Li441 1.990 . S
N465 C464 1.314 . S
N465 C468 1.279 . S
C466 C464 1.353 . S
C466 C469 1.348 . S
C466 H514 0.929 . S
C467 C468 1.358 . S
C467 C469 1.356 . S
C467 H515 0.930 . S
C468 N465 1.279 . S
C468 C467 1.358 . S
C468 H471 0.930 . S
C469 C466 1.348 . S
C469 C467 1.356 . S
H470 C464 0.930 . S
H471 C468 0.930 . S
C472 C474 1.348 . S
C472 C475 1.356 . S
C472 O502 1.325 . S
N473 C476 1.314 . S
N473 C477 1.279 . S
C474 C472 1.348 . S
C474 C476 1.353 . S
C474 H516 0.929 . S
C475 C472 1.356 . S
C475 C477 1.358 . S
C475 H517 0.930 . S
C476 N473 1.314 . S
C476 C474 1.353 . S
C476 H518 0.930 . S
C477 N473 1.279 . S
C477 C475 1.358 . S
C477 H519 0.930 . S
C478 C479 1.348 . S
C478 C480 1.356 . S
C478 O503 1.325 . S
C479 C478 1.348 . S
C479 C481 1.353 . S
C479 H520 0.929 . S
C480 C478 1.356 . S
C480 C482 1.358 . S
C480 H521 0.930 . S
C481 C479 1.353 . S
C481 N483 1.314 . S
C481 H522 0.930 . S
C482 C480 1.358 . S
C482 N483 1.279 . S
C482 H523 0.930 . S
N483 C481 1.314 . S
N483 C482 1.279 . S
C484 C486 1.353 . S
C484 N487 1.314 . S
C484 H490 0.930 . S
C485 N487 1.279 . S
C485 C488 1.358 . S
C485 H491 0.930 . S
C486 C484 1.353 . S
C486 C489 1.348 . S
C486 H524 0.929 . S
N487 Li442 1.990 . S
N487 C484 1.314 . S
N487 C485 1.279 . S
C488 C485 1.358 . S
C488 C489 1.356 . S
C488 H525 0.930 . S
C489 C486 1.348 . S
C489 C488 1.356 . S
H490 C484 0.930 . S
H491 C485 0.930 . S
C492 N493 1.314 . S
C492 C494 1.353 . S
C492 H498 0.930 . S
N493 Li443 1.990 . S
N493 C492 1.314 . S
N493 C496 1.279 . S
C494 C492 1.353 . S
C494 C497 1.348 . S
C494 H526 0.929 . S
C495 C496 1.358 . S
C495 C497 1.356 . S
C495 H527 0.930 . S
C496 N493 1.279 . S
C496 C495 1.358 . S
C496 H499 0.930 . S
C497 C494 1.348 . S
C497 C495 1.356 . S
H498 C492 0.930 . S
H499 C496 0.930 . S
O500 Li440 1.956 . S
O500 Li441 1.970 . S
O500 Li442 1.961 . S
O500 C444 1.325 . S
O501 Li440 1.970 . S
O501 Li441 1.956 . S
O501 Li443 1.961 . S
O501 C450 1.325 . S
O502 Li440 1.961 . S
O502 Li442 1.956 . S
O502 Li443 1.970 . S
O502 C472 1.325 . S
O503 Li441 1.961 . S
O503 Li442 1.970 . S
O503 Li443 1.956 . S
O503 C478 1.325 . S
H504 C446 0.929 . S
H505 C447 0.930 1_556 S
H506 C448 0.930 . S
H507 C449 0.930 . S
H508 C451 0.930 . S
H509 C453 0.929 . S
H510 C454 0.930 . S
H511 C455 0.930 . S
H512 C458 0.930 . S
H513 C461 0.929 . S
H514 C466 0.929 . S
H515 C467 0.930 . S
H516 C474 0.929 . S
H517 C475 0.930 . S
H518 C476 0.930 . S
H519 C477 0.930 . S
H520 C479 0.929 . S
H521 C480 0.930 . S
H522 C481 0.930 . S
H523 C482 0.930 . S
H524 C486 0.929 . S
H525 C488 0.930 . S
H526 C494 0.929 . S
H527 C495 0.930 . S
Li528 N545 1.981 . S
Li528 O588 1.974 . S
Li528 O589 1.957 1_455 S
Li528 O590 1.971 1_455 S
Li529 N553 1.990 . S
Li529 O588 1.970 1_655 S
Li529 O589 1.956 . S
Li529 O591 1.961 1_655 S
Li530 N575 1.990 . S
Li530 O588 1.961 . S
Li530 O590 1.956 1_455 S
Li530 O591 1.970 . S
Li531 N581 1.990 . S
Li531 O589 1.961 . S
Li531 O590 1.970 . S
Li531 O591 1.956 1_655 S
C532 C534 1.348 . S
C532 C535 1.356 . S
C532 O588 1.325 . S
N533 C536 1.314 . S
N533 C537 1.279 . S
C534 C532 1.348 . S
C534 C536 1.353 . S
C534 H592 0.929 . S
C535 C532 1.356 . S
C535 C537 1.358 . S
C535 H593 0.930 . S
C536 N533 1.314 . S
C536 C534 1.353 . S
C536 H594 0.930 . S
C537 N533 1.279 . S
C537 C535 1.358 . S
C537 H595 0.930 . S
C538 C541 1.348 . S
C538 C542 1.356 . S
C538 O589 1.325 . S
C539 N540 1.279 . S
C539 C542 1.358 . S
C539 H596 0.930 . S
N540 C539 1.279 . S
N540 C543 1.314 . S
C541 C538 1.348 . S
C541 C543 1.353 . S
C541 H597 0.929 . S
C542 C538 1.356 . S
C542 C539 1.358 . S
C542 H598 0.930 . S
C543 N540 1.314 . S
C543 C541 1.353 . S
C543 H599 0.930 . S
C544 N545 1.314 1_655 S
C544 C549 1.353 . S
C544 H550 0.930 . S
N545 Li528 1.981 . S
N545 C544 1.314 1_455 S
N545 C547 1.279 . S
C546 C547 1.358 . S
C546 C548 1.356 1_455 S
C546 H600 0.930 . S
C547 N545 1.279 . S
C547 C546 1.358 . S
C547 H551 0.930 . S
C548 C546 1.356 1_655 S
C548 C549 1.348 . S
C549 C544 1.353 . S
C549 C548 1.348 . S
C549 H601 0.929 . S
H550 C544 0.930 . S
H551 C547 0.930 . S
C552 N553 1.314 1_455 S
C552 C554 1.353 . S
C552 H558 0.930 . S
N553 Li529 1.990 . S
N553 C552 1.314 1_655 S
N553 C556 1.279 . S
C554 C552 1.353 . S
C554 C557 1.348 . S
C554 H602 0.929 . S
C555 C556 1.358 . S
C555 C557 1.356 1_655 S
C555 H603 0.930 . S
C556 N553 1.279 . S
C556 C555 1.358 . S
C556 H559 0.930 . S
C557 C554 1.348 . S
C557 C555 1.356 1_455 S
H558 C552 0.930 . S
H559 C556 0.930 . S
C560 C562 1.349 . S
C560 C563 1.349 1_655 S
C560 O590 1.328 . S
N561 C564 1.314 1_455 S
N561 C565 1.279 . S
C562 C560 1.349 . S
C562 C564 1.353 . S
C562 H604 0.929 . S
C563 C560 1.349 1_455 S
C563 C565 1.358 . S
C563 H605 0.930 . S
C564 N561 1.314 1_655 S
C564 C562 1.353 . S
C564 H606 0.930 . S
C565 N561 1.279 . S
C565 C563 1.358 . S
C565 H607 0.930 . S
C566 C567 1.348 . S
C566 C568 1.356 1_455 S
C566 O591 1.325 . S
C567 C566 1.348 . S
C567 C569 1.353 . S
C567 H608 0.929 . S
C568 C566 1.356 1_655 S
C568 C570 1.358 . S
C568 H609 0.930 . S
C569 C567 1.353 . S
C569 N571 1.308 1_455 S
C569 H610 0.930 . S
C570 C568 1.358 . S
C570 N571 1.292 . S
C570 H611 0.930 . S
N571 C569 1.308 1_655 S
N571 C570 1.292 . S
C572 C574 1.353 . S
C572 N575 1.314 . S
C572 H578 0.930 . S
C573 N575 1.279 . S
C573 C576 1.358 . S
C573 H579 0.930 . S
C574 C572 1.353 . S
C574 C577 1.348 . S
C574 H612 0.929 . S
N575 Li530 1.990 . S
N575 C572 1.314 . S
N575 C573 1.279 . S
C576 C573 1.358 . S
C576 C577 1.356 . S
C576 H613 0.930 . S
C577 C574 1.348 . S
C577 C576 1.356 . S
H578 C572 0.930 . S
H579 C573 0.930 . S
C580 N581 1.314 . S
C580 C582 1.353 . S
C580 H586 0.930 . S
N581 Li531 1.990 . S
N581 C580 1.314 . S
N581 C584 1.279 . S
C582 C580 1.353 . S
C582 C585 1.348 . S
C582 H614 0.929 . S
C583 C584 1.358 . S
C583 C585 1.356 . S
C583 H615 0.930 . S
C584 N581 1.279 . S
C584 C583 1.358 . S
C584 H587 0.930 . S
C585 C582 1.348 . S
C585 C583 1.356 . S
H586 C580 0.930 . S
H587 C584 0.930 . S
O588 Li528 1.974 . S
O588 Li529 1.970 1_455 S
O588 Li530 1.961 . S
O588 C532 1.325 . S
O589 Li528 1.957 1_655 S
O589 Li529 1.956 . S
O589 Li531 1.961 . S
O589 C538 1.325 . S
O590 Li528 1.971 1_655 S
O590 Li530 1.956 1_655 S
O590 Li531 1.970 . S
O590 C560 1.328 . S
O591 Li529 1.961 1_455 S
O591 Li530 1.970 . S
O591 Li531 1.956 1_455 S
O591 C566 1.325 . S
H592 C534 0.929 . S
H593 C535 0.930 . S
H594 C536 0.930 . S
H595 C537 0.930 . S
H596 C539 0.930 . S
H597 C541 0.929 . S
H598 C542 0.930 . S
H599 C543 0.930 . S
H600 C546 0.930 . S
H601 C549 0.929 . S
H602 C554 0.929 . S
H603 C555 0.930 . S
H604 C562 0.929 . S
H605 C563 0.930 . S
H606 C564 0.930 . S
H607 C565 0.930 . S
H608 C567 0.929 . S
H609 C568 0.930 . S
H610 C569 0.930 . S
H611 C570 0.930 . S
H612 C574 0.929 . S
H613 C576 0.930 . S
H614 C582 0.929 . S
H615 C583 0.930 . S
Li616 N633 1.990 . S
Li616 O676 1.956 . S
Li616 O677 1.970 . S
Li616 O678 1.961 . S
Li617 N641 1.990 . S
Li617 O676 1.970 . S
Li617 O677 1.956 . S
Li617 O679 1.961 . S
Li618 N663 1.990 . S
Li618 O676 1.961 . S
Li618 O678 1.956 . S
Li618 O679 1.970 . S
Li619 N669 1.990 . S
Li619 O677 1.961 . S
Li619 O678 1.970 . S
Li619 O679 1.956 . S
C620 C622 1.348 . S
C620 C623 1.356 . S
C620 O676 1.325 . S
N621 C624 1.314 . S
N621 C625 1.279 . S
C622 C620 1.348 . S
C622 C624 1.353 . S
C622 H680 0.929 . S
C623 C620 1.356 . S
C623 C625 1.358 . S
C623 H681 0.930 . S
C624 N621 1.314 . S
C624 C622 1.353 . S
C624 H682 0.930 . S
C625 N621 1.279 . S
C625 C623 1.358 . S
C625 H683 0.930 . S
C626 C629 1.348 . S
C626 C630 1.356 . S
C626 O677 1.325 . S
C627 N628 1.279 . S
C627 C630 1.358 . S
C627 H684 0.930 . S
N628 C627 1.279 . S
N628 C631 1.314 . S
C629 C626 1.348 . S
C629 C631 1.353 . S
C629 H685 0.929 . S
C630 C626 1.356 . S
C630 C627 1.358 . S
C630 H686 0.930 . S
C631 N628 1.314 . S
C631 C629 1.353 . S
C631 H687 0.930 . S
C632 N633 1.314 . S
C632 C637 1.353 . S
C632 H638 0.930 . S
N633 Li616 1.990 . S
N633 C632 1.314 . S
N633 C635 1.279 . S
C634 C635 1.358 . S
C634 C636 1.356 . S
C634 H688 0.930 . S
C635 N633 1.279 . S
C635 C634 1.358 . S
C635 H639 0.930 . S
C636 C634 1.356 . S
C636 C637 1.348 . S
C637 C632 1.353 . S
C637 C636 1.348 . S
C637 H689 0.929 . S
H638 C632 0.930 . S
H639 C635 0.930 . S
C640 N641 1.314 . S
C640 C642 1.353 . S
C640 H646 0.930 . S
N641 Li617 1.990 . S
N641 C640 1.314 . S
N641 C644 1.279 . S
C642 C640 1.353 . S
C642 C645 1.348 . S
C642 H690 0.929 . S
C643 C644 1.358 . S
C643 C645 1.356 . S
C643 H691 0.930 . S
C644 N641 1.279 . S
C644 C643 1.358 . S
C644 H647 0.930 . S
C645 C642 1.348 . S
C645 C643 1.356 . S
H646 C640 0.930 . S
H647 C644 0.930 . S
C648 C650 1.348 . S
C648 C651 1.356 . S
C648 O678 1.325 . S
N649 C652 1.314 . S
N649 C653 1.279 . S
C650 C648 1.348 . S
C650 C652 1.353 . S
C650 H692 0.929 . S
C651 C648 1.356 . S
C651 C653 1.358 . S
C651 H693 0.930 . S
C652 N649 1.314 . S
C652 C650 1.353 . S
C652 H694 0.930 . S
C653 N649 1.279 . S
C653 C651 1.358 . S
C653 H695 0.930 . S
C654 C655 1.348 . S
C654 C656 1.356 . S
C654 O679 1.325 . S
C655 C654 1.348 . S
C655 C657 1.353 . S
C655 H696 0.929 . S
C656 C654 1.356 . S
C656 C658 1.358 . S
C656 H697 0.930 . S
C657 C655 1.353 . S
C657 N659 1.314 . S
C657 H698 0.930 . S
C658 C656 1.358 . S
C658 N659 1.279 . S
C658 H699 0.930 . S
N659 C657 1.314 . S
N659 C658 1.279 . S
C660 C662 1.353 . S
C660 N663 1.314 . S
C660 H666 0.930 . S
C661 N663 1.279 . S
C661 C664 1.358 . S
C661 H667 0.930 . S
C662 C660 1.353 . S
C662 C665 1.348 . S
C662 H700 0.929 . S
N663 Li618 1.990 . S
N663 C660 1.314 . S
N663 C661 1.279 . S
C664 C661 1.358 . S
C664 C665 1.356 . S
C664 H701 0.930 . S
C665 C662 1.348 . S
C665 C664 1.356 . S
H666 C660 0.930 . S
H667 C661 0.930 . S
C668 N669 1.314 . S
C668 C670 1.353 . S
C668 H674 0.930 . S
N669 Li619 1.990 . S
N669 C668 1.314 . S
N669 C672 1.279 . S
C670 C668 1.353 . S
C670 C673 1.348 . S
C670 H702 0.929 . S
C671 C672 1.358 . S
C671 C673 1.356 . S
C671 H703 0.930 . S
C672 N669 1.279 . S
C672 C671 1.358 . S
C672 H675 0.930 . S
C673 C670 1.348 . S
C673 C671 1.356 . S
H674 C668 0.930 . S
H675 C672 0.930 . S
O676 Li616 1.956 . S
O676 Li617 1.970 . S
O676 Li618 1.961 . S
O676 C620 1.325 . S
O677 Li616 1.970 . S
O677 Li617 1.956 . S
O677 Li619 1.961 . S
O677 C626 1.325 . S
O678 Li616 1.961 . S
O678 Li618 1.956 . S
O678 Li619 1.970 . S
O678 C648 1.325 . S
O679 Li617 1.961 . S
O679 Li618 1.970 . S
O679 Li619 1.956 . S
O679 C654 1.325 . S
H680 C622 0.929 . S
H681 C623 0.930 . S
H682 C624 0.930 . S
H683 C625 0.930 . S
H684 C627 0.930 . S
H685 C629 0.929 . S
H686 C630 0.930 . S
H687 C631 0.930 . S
H688 C634 0.930 . S
H689 C637 0.929 . S
H690 C642 0.929 . S
H691 C643 0.930 . S
H692 C650 0.929 . S
H693 C651 0.930 . S
H694 C652 0.930 . S
H695 C653 0.930 . S
H696 C655 0.929 . S
H697 C656 0.930 . S
H698 C657 0.930 . S
H699 C658 0.930 . S
H700 C662 0.929 . S
H701 C664 0.930 . S
H702 C670 0.929 . S
H703 C671 0.930 . S
Li704 N721 1.990 . S
Li704 O764 1.956 . S
Li704 O765 1.957 1_545 S
Li704 O766 1.959 . S
Li705 N729 1.990 . S
Li705 O764 1.970 1_565 S
Li705 O765 1.971 . S
Li705 O767 1.961 . S
Li706 N751 1.990 . S
Li706 O764 1.961 . S
Li706 O766 1.957 . S
Li706 O767 1.970 1_545 S
Li707 N757 1.990 . S
Li707 O765 1.984 . S
Li707 O766 1.972 1_565 S
Li707 O767 1.956 . S
C708 C710 1.348 . S
C708 C711 1.356 . S
C708 O764 1.325 . S
N709 C712 1.314 . S
N709 C713 1.279 . S
C710 C708 1.348 . S
C710 C712 1.353 . S
C710 H768 0.929 . S
C711 C708 1.356 . S
C711 C713 1.358 . S
C711 H769 0.930 . S
C712 N709 1.314 . S
C712 C710 1.353 . S
C712 H770 0.930 . S
C713 N709 1.279 . S
C713 C711 1.358 . S
C713 H771 0.930 . S
C714 C717 1.348 1_565 S
C714 C718 1.356 . S
C714 O765 1.314 . S
C715 N716 1.279 . S
C715 C718 1.358 . S
C715 H772 0.930 . S
N716 C715 1.279 . S
N716 C719 1.314 1_565 S
C717 C714 1.348 1_545 S
C717 C719 1.353 . S
C717 H773 0.929 . S
C718 C714 1.356 . S
C718 C715 1.358 . S
C718 H774 0.930 . S
C719 N716 1.314 1_545 S
C719 C717 1.353 . S
C719 H775 0.930 . S
C720 N721 1.314 . S
C720 C725 1.353 . S
C720 H726 0.930 . S
N721 Li704 1.990 . S
N721 C720 1.314 . S
N721 C723 1.279 . S
C722 C723 1.358 . S
C722 C724 1.356 . S
C722 H776 0.930 . S
C723 N721 1.279 . S
C723 C722 1.358 . S
C723 H727 0.930 . S
C724 C722 1.356 . S
C724 C725 1.348 . S
C725 C720 1.353 . S
C725 C724 1.348 . S
C725 H777 0.929 . S
H726 C720 0.930 . S
H727 C723 0.930 . S
C728 N729 1.314 . S
C728 C730 1.353 . S
C728 H734 0.930 . S
N729 Li705 1.990 . S
N729 C728 1.314 . S
N729 C732 1.279 1_565 S
C730 C728 1.353 . S
C730 C733 1.348 . S
C730 H778 0.929 . S
C731 C732 1.358 . S
C731 C733 1.356 1_545 S
C731 H779 0.930 . S
C732 N729 1.279 1_545 S
C732 C731 1.358 . S
C732 H735 0.930 . S
C733 C730 1.348 . S
C733 C731 1.356 1_565 S
H734 C728 0.930 . S
H735 C732 0.930 . S
C736 C738 1.325 1_545 S
C736 C739 1.383 . S
C736 O766 1.320 . S
N737 C740 1.314 1_545 S
N737 C741 1.279 . S
C738 C736 1.325 1_565 S
C738 C740 1.353 . S
C738 H780 0.929 . S
C739 C736 1.383 . S
C739 C741 1.358 . S
C739 H781 0.930 . S
C740 N737 1.314 1_565 S
C740 C738 1.353 . S
C740 H782 0.930 . S
C741 N737 1.279 . S
C741 C739 1.358 . S
C741 H783 0.930 . S
C742 C743 1.348 . S
C742 C744 1.356 . S
C742 O767 1.325 . S
C743 C742 1.348 . S
C743 C745 1.353 . S
C743 H784 0.929 . S
C744 C742 1.356 . S
C744 C746 1.358 . S
C744 H785 0.930 . S
C745 C743 1.353 . S
C745 N747 1.314 . S
C745 H786 0.930 . S
C746 C744 1.358 . S
C746 N747 1.279 . S
C746 H787 0.930 . S
N747 C745 1.314 . S
N747 C746 1.279 . S
C748 C750 1.353 . S
C748 N751 1.314 . S
C748 H754 0.930 . S
C749 N751 1.279 1_565 S
C749 C752 1.358 . S
C749 H755 0.930 . S
C750 C748 1.353 . S
C750 C753 1.348 . S
C750 H788 0.929 . S
N751 Li706 1.990 . S
N751 C748 1.314 . S
N751 C749 1.279 1_545 S
C752 C749 1.358 . S
C752 C753 1.356 1_565 S
C752 H789 0.930 . S
C753 C750 1.348 . S
C753 C752 1.356 1_545 S
H754 C748 0.930 . S
H755 C749 0.930 . S
C756 N757 1.314 . S
C756 C758 1.353 . S
C756 H762 0.930 . S
N757 Li707 1.990 . S
N757 C756 1.314 . S
N757 C760 1.279 . S
C758 C756 1.353 . S
C758 C761 1.348 . S
C758 H790 0.929 . S
C759 C760 1.358 . S
C759 C761 1.356 . S
C759 H791 0.930 . S
C760 N757 1.279 . S
C760 C759 1.358 . S
C760 H763 0.930 . S
C761 C758 1.348 . S
C761 C759 1.356 . S
H762 C756 0.930 . S
H763 C760 0.930 . S
O764 Li704 1.956 . S
O764 Li705 1.970 1_545 S
O764 Li706 1.961 . S
O764 C708 1.325 . S
O765 Li704 1.957 1_565 S
O765 Li705 1.971 . S
O765 Li707 1.984 . S
O765 C714 1.314 . S
O766 Li704 1.959 . S
O766 Li706 1.957 . S
O766 Li707 1.972 1_545 S
O766 C736 1.320 . S
O767 Li705 1.961 . S
O767 Li706 1.970 1_565 S
O767 Li707 1.956 . S
O767 C742 1.325 . S
H768 C710 0.929 . S
H769 C711 0.930 . S
H770 C712 0.930 . S
H771 C713 0.930 . S
H772 C715 0.930 . S
H773 C717 0.929 . S
H774 C718 0.930 . S
H775 C719 0.930 . S
H776 C722 0.930 . S
H777 C725 0.929 . S
H778 C730 0.929 . S
H779 C731 0.930 . S
H780 C738 0.929 . S
H781 C739 0.930 . S
H782 C740 0.930 . S
H783 C741 0.930 . S
H784 C743 0.929 . S
H785 C744 0.930 . S
H786 C745 0.930 . S
H787 C746 0.930 . S
H788 C750 0.929 . S
H789 C752 0.930 . S
H790 C758 0.929 . S
H791 C759 0.930 . S
Li792 N809 1.990 . S
Li792 O852 1.956 . S
Li792 O853 1.970 . S
Li792 O854 1.961 . S
Li793 N817 1.990 . S
Li793 O852 1.970 . S
Li793 O853 1.956 . S
Li793 O855 1.961 . S
Li794 N839 1.990 . S
Li794 O852 1.961 . S
Li794 O854 1.956 . S
Li794 O855 1.970 . S
Li795 N845 1.990 . S
Li795 O853 1.961 . S
Li795 O854 1.970 . S
Li795 O855 1.956 . S
C796 C798 1.348 . S
C796 C799 1.356 . S
C796 O852 1.325 . S
N797 C800 1.314 . S
N797 C801 1.279 . S
C798 C796 1.348 . S
C798 C800 1.353 . S
C798 H856 0.929 . S
C799 C796 1.356 . S
C799 C801 1.358 . S
C799 H857 0.930 . S
C800 N797 1.314 . S
C800 C798 1.353 . S
C800 H858 0.930 . S
C801 N797 1.279 . S
C801 C799 1.358 . S
C801 H859 0.930 . S
C802 C805 1.348 . S
C802 C806 1.356 . S
C802 O853 1.325 . S
C803 N804 1.279 . S
C803 C806 1.358 . S
C803 H860 0.930 . S
N804 C803 1.279 . S
N804 C807 1.314 . S
C805 C802 1.348 . S
C805 C807 1.353 . S
C805 H861 0.929 . S
C806 C802 1.356 . S
C806 C803 1.358 . S
C806 H862 0.930 . S
C807 N804 1.314 . S
C807 C805 1.353 . S
C807 H863 0.930 . S
C808 N809 1.314 . S
C808 C813 1.353 . S
C808 H814 0.930 . S
N809 Li792 1.990 . S
N809 C808 1.314 . S
N809 C811 1.279 . S
C810 C811 1.358 . S
C810 C812 1.356 . S
C810 H864 0.930 . S
C811 N809 1.279 . S
C811 C810 1.358 . S
C811 H815 0.930 . S
C812 C810 1.356 . S
C812 C813 1.348 . S
C813 C808 1.353 . S
C813 C812 1.348 . S
C813 H865 0.929 . S
H814 C808 0.930 . S
H815 C811 0.930 . S
C816 N817 1.314 . S
C816 C818 1.353 . S
C816 H822 0.930 . S
N817 Li793 1.990 . S
N817 C816 1.314 . S
N817 C820 1.279 . S
C818 C816 1.353 . S
C818 C821 1.348 . S
C818 H866 0.929 . S
C819 C820 1.358 . S
C819 C821 1.356 . S
C819 H867 0.930 . S
C820 N817 1.279 . S
C820 C819 1.358 . S
C820 H823 0.930 . S
C821 C818 1.348 . S
C821 C819 1.356 . S
H822 C816 0.930 . S
H823 C820 0.930 . S
C824 C826 1.348 . S
C824 C827 1.356 . S
C824 O854 1.325 . S
N825 C828 1.314 . S
N825 C829 1.279 . S
C826 C824 1.348 . S
C826 C828 1.353 . S
C826 H868 0.929 . S
C827 C824 1.356 . S
C827 C829 1.358 . S
C827 H869 0.930 . S
C828 N825 1.314 . S
C828 C826 1.353 . S
C828 H870 0.930 . S
C829 N825 1.279 . S
C829 C827 1.358 . S
C829 H871 0.930 . S
C830 C831 1.348 . S
C830 C832 1.356 . S
C830 O855 1.325 . S
C831 C830 1.348 . S
C831 C833 1.353 . S
C831 H872 0.929 . S
C832 C830 1.356 . S
C832 C834 1.358 . S
C832 H873 0.930 . S
C833 C831 1.353 . S
C833 N835 1.314 . S
C833 H874 0.930 . S
C834 C832 1.358 . S
C834 N835 1.279 . S
C834 H875 0.930 . S
N835 C833 1.314 . S
N835 C834 1.279 . S
C836 C838 1.353 . S
C836 N839 1.314 . S
C836 H842 0.930 . S
C837 N839 1.279 . S
C837 C840 1.358 . S
C837 H843 0.930 . S
C838 C836 1.353 . S
C838 C841 1.348 . S
C838 H876 0.929 . S
N839 Li794 1.990 . S
N839 C836 1.314 . S
N839 C837 1.279 . S
C840 C837 1.358 . S
C840 C841 1.356 . S
C840 H877 0.930 . S
C841 C838 1.348 . S
C841 C840 1.356 . S
H842 C836 0.930 . S
H843 C837 0.930 . S
C844 N845 1.314 . S
C844 C846 1.353 . S
C844 H850 0.930 . S
N845 Li795 1.990 . S
N845 C844 1.314 . S
N845 C848 1.279 . S
C846 C844 1.353 . S
C846 C849 1.348 . S
C846 H878 0.929 . S
C847 C848 1.358 . S
C847 C849 1.356 . S
C847 H879 0.930 . S
C848 N845 1.279 . S
C848 C847 1.358 . S
C848 H851 0.930 . S
C849 C846 1.348 . S
C849 C847 1.356 . S
H850 C844 0.930 . S
H851 C848 0.930 . S
O852 Li792 1.956 . S
O852 Li793 1.970 . S
O852 Li794 1.961 . S
O852 C796 1.325 . S
O853 Li792 1.970 . S
O853 Li793 1.956 . S
O853 Li795 1.961 . S
O853 C802 1.325 . S
O854 Li792 1.961 . S
O854 Li794 1.956 . S
O854 Li795 1.970 . S
O854 C824 1.325 . S
O855 Li793 1.961 . S
O855 Li794 1.970 . S
O855 Li795 1.956 . S
O855 C830 1.325 . S
H856 C798 0.929 . S
H857 C799 0.930 . S
H858 C800 0.930 . S
H859 C801 0.930 . S
H860 C803 0.930 . S
H861 C805 0.929 . S
H862 C806 0.930 . S
H863 C807 0.930 . S
H864 C810 0.930 . S
H865 C813 0.929 . S
H866 C818 0.929 . S
H867 C819 0.930 . S
H868 C826 0.929 . S
H869 C827 0.930 . S
H870 C828 0.930 . S
H871 C829 0.930 . S
H872 C831 0.929 . S
H873 C832 0.930 . S
H874 C833 0.930 . S
H875 C834 0.930 . S
H876 C838 0.929 . S
H877 C840 0.930 . S
H878 C846 0.929 . S
H879 C847 0.930 . S
Li880 N897 1.990 . S
Li880 O940 1.956 . S
Li880 O941 1.970 . S
Li880 O942 1.961 . S
Li881 N905 1.990 . S
Li881 O940 1.970 . S
Li881 O941 1.956 . S
Li881 O943 1.961 . S
Li882 N927 1.990 1_545 S
Li882 O940 1.961 . S
Li882 O942 1.956 . S
Li882 O943 1.970 . S
Li883 N933 1.990 . S
Li883 O941 1.961 . S
Li883 O942 1.970 . S
Li883 O943 1.956 . S
C884 C886 1.348 . S
C884 C887 1.356 . S
C884 O940 1.325 . S
N885 C888 1.314 . S
N885 C889 1.279 . S
C886 C884 1.348 . S
C886 C888 1.353 . S
C886 H944 0.929 . S
C887 C884 1.356 . S
C887 C889 1.358 . S
C887 H945 0.930 . S
C888 N885 1.314 . S
C888 C886 1.353 . S
C888 H946 0.930 . S
C889 N885 1.279 . S
C889 C887 1.358 . S
C889 H947 0.930 . S
C890 C893 1.348 . S
C890 C894 1.356 . S
C890 O941 1.325 . S
C891 N892 1.279 . S
C891 C894 1.358 . S
C891 H948 0.930 . S
N892 C891 1.279 . S
N892 C895 1.314 . S
C893 C890 1.348 . S
C893 C895 1.353 . S
C893 H949 0.929 . S
C894 C890 1.356 . S
C894 C891 1.358 . S
C894 H950 0.930 . S
C895 N892 1.314 . S
C895 C893 1.353 . S
C895 H951 0.930 . S
C896 N897 1.314 . S
C896 C901 1.353 . S
C896 H902 0.930 . S
N897 Li880 1.990 . S
N897 C896 1.314 . S
N897 C899 1.279 . S
C898 C899 1.358 . S
C898 C900 1.356 . S
C898 H952 0.930 . S
C899 N897 1.279 . S
C899 C898 1.358 . S
C899 H903 0.930 . S
C900 C898 1.356 . S
C900 C901 1.348 . S
C901 C896 1.353 . S
C901 C900 1.348 . S
C901 H953 0.929 . S
H902 C896 0.930 . S
H903 C899 0.930 . S
C904 N905 1.314 . S
C904 C906 1.353 . S
C904 H910 0.930 . S
N905 Li881 1.990 . S
N905 C904 1.314 . S
N905 C908 1.279 . S
C906 C904 1.353 . S
C906 C909 1.348 . S
C906 H954 0.929 . S
C907 C908 1.358 . S
C907 C909 1.356 . S
C907 H955 0.930 . S
C908 N905 1.279 . S
C908 C907 1.358 . S
C908 H911 0.930 . S
C909 C906 1.348 . S
C909 C907 1.356 . S
H910 C904 0.930 . S
H911 C908 0.930 . S
C912 C914 1.348 . S
C912 C915 1.356 . S
C912 O942 1.325 1_565 S
N913 C916 1.314 . S
N913 C917 1.279 . S
C914 C912 1.348 . S
C914 C916 1.353 . S
C914 H956 0.929 . S
C915 C912 1.356 . S
C915 C917 1.358 . S
C915 H957 0.930 . S
C916 N913 1.314 . S
C916 C914 1.353 . S
C916 H958 0.930 . S
C917 N913 1.279 . S
C917 C915 1.358 . S
C917 H959 0.930 . S
C918 C919 1.348 1_545 S
C918 C920 1.356 . S
C918 O943 1.325 . S
C919 C918 1.348 1_565 S
C919 C921 1.353 . S
C919 H960 0.929 . S
C920 C918 1.356 . S
C920 C922 1.358 . S
C920 H961 0.930 . S
C921 C919 1.353 . S
C921 N923 1.314 1_565 S
C921 H962 0.930 . S
C922 C920 1.358 . S
C922 N923 1.279 . S
C922 H963 0.930 . S
N923 C921 1.314 1_545 S
N923 C922 1.279 . S
C924 C926 1.353 . S
C924 N927 1.314 . S
C924 H930 0.930 . S
C925 N927 1.279 . S
C925 C928 1.358 . S
C925 H931 0.930 . S
C926 C924 1.353 . S
C926 C929 1.348 . S
C926 H964 0.929 . S
N927 Li882 1.990 1_565 S
N927 C924 1.314 . S
N927 C925 1.279 . S
C928 C925 1.358 . S
C928 C929 1.356 . S
C928 H965 0.930 . S
C929 C926 1.348 . S
C929 C928 1.356 . S
H930 C924 0.930 . S
H931 C925 0.930 . S
C932 N933 1.314 . S
C932 C934 1.353 . S
C932 H938 0.930 . S
N933 Li883 1.990 . S
N933 C932 1.314 . S
N933 C936 1.279 . S
C934 C932 1.353 . S
C934 C937 1.348 . S
C934 H966 0.929 . S
C935 C936 1.358 . S
C935 C937 1.356 . S
C935 H967 0.930 . S
C936 N933 1.279 . S
C936 C935 1.358 . S
C936 H939 0.930 . S
C937 C934 1.348 . S
C937 C935 1.356 . S
H938 C932 0.930 . S
H939 C936 0.930 . S
O940 Li880 1.956 . S
O940 Li881 1.970 . S
O940 Li882 1.961 . S
O940 C884 1.325 . S
O941 Li880 1.970 . S
O941 Li881 1.956 . S
O941 Li883 1.961 . S
O941 C890 1.325 . S
O942 Li880 1.961 . S
O942 Li882 1.956 . S
O942 Li883 1.970 . S
O942 C912 1.325 1_545 S
O943 Li881 1.961 . S
O943 Li882 1.970 . S
O943 Li883 1.956 . S
O943 C918 1.325 . S
H944 C886 0.929 . S
H945 C887 0.930 . S
H946 C888 0.930 . S
H947 C889 0.930 . S
H948 C891 0.930 . S
H949 C893 0.929 . S
H950 C894 0.930 . S
H951 C895 0.930 . S
H952 C898 0.930 . S
H953 C901 0.929 . S
H954 C906 0.929 . S
H955 C907 0.930 . S
H956 C914 0.929 . S
H957 C915 0.930 . S
H958 C916 0.930 . S
H959 C917 0.930 . S
H960 C919 0.929 . S
H961 C920 0.930 . S
H962 C921 0.930 . S
H963 C922 0.930 . S
H964 C926 0.929 . S
H965 C928 0.930 . S
H966 C934 0.929 . S
H967 C935 0.930 . S
Li968 N985 1.990 . S
Li968 O1028 1.956 . S
Li968 O1029 1.970 . S
Li968 O1030 1.961 . S
Li969 N993 1.990 . S
Li969 O1028 1.970 . S
Li969 O1029 1.956 . S
Li969 O1031 1.961 . S
Li970 N1015 1.990 1_655 S
Li970 O1028 1.961 . S
Li970 O1030 1.956 . S
Li970 O1031 1.970 . S
Li971 N1021 1.990 . S
Li971 O1029 1.961 . S
Li971 O1030 1.970 . S
Li971 O1031 1.956 . S
C972 C974 1.348 . S
C972 C975 1.356 . S
C972 O1028 1.325 . S
N973 C976 1.314 . S
N973 C977 1.279 . S
C974 C972 1.348 . S
C974 C976 1.353 . S
C974 H1032 0.929 . S
C975 C972 1.356 . S
C975 C977 1.358 . S
C975 H1033 0.930 . S
C976 N973 1.314 . S
C976 C974 1.353 . S
C976 H1034 0.930 . S
C977 N973 1.279 . S
C977 C975 1.358 . S
C977 H1035 0.930 1_655 S
C978 C981 1.348 . S
C978 C982 1.356 . S
C978 O1029 1.325 . S
C979 N980 1.279 . S
C979 C982 1.358 . S
C979 H1036 0.930 . S
N980 C979 1.279 . S
N980 C983 1.314 . S
C981 C978 1.348 . S
C981 C983 1.353 . S
C981 H1037 0.929 . S
C982 C978 1.356 . S
C982 C979 1.358 . S
C982 H1038 0.930 . S
C983 N980 1.314 . S
C983 C981 1.353 . S
C983 H1039 0.930 . S
C984 N985 1.314 . S
C984 C989 1.353 . S
C984 H990 0.930 . S
N985 Li968 1.990 . S
N985 C984 1.314 . S
N985 C987 1.279 . S
C986 C987 1.358 . S
C986 C988 1.356 . S
C986 H1040 0.930 . S
C987 N985 1.279 . S
C987 C986 1.358 . S
C987 H991 0.930 . S
C988 C986 1.356 . S
C988 C989 1.348 . S
C989 C984 1.353 . S
C989 C988 1.348 . S
C989 H1041 0.929 . S
H990 C984 0.930 . S
H991 C987 0.930 . S
C992 N993 1.314 . S
C992 C994 1.353 . S
C992 H998 0.930 1_655 S
N993 Li969 1.990 . S
N993 C992 1.314 . S
N993 C996 1.279 . S
C994 C992 1.353 . S
C994 C997 1.348 . S
C994 H1042 0.929 1_655 S
C995 C996 1.358 . S
C995 C997 1.356 . S
C995 H1043 0.930 . S
C996 N993 1.279 . S
C996 C995 1.358 . S
C996 H999 0.930 . S
C997 C994 1.348 . S
C997 C995 1.356 . S
H998 C992 0.930 1_455 S
H999 C996 0.930 . S
C1000 C1002 1.348 . S
C1000 C1003 1.356 . S
C1000 O1030 1.325 . S
N1001 C1004 1.314 . S
N1001 C1005 1.279 . S
C1002 C1000 1.348 . S
C1002 C1004 1.353 . S
C1002 H1044 0.929 . S
C1003 C1000 1.356 . S
C1003 C1005 1.358 . S
C1003 H1045 0.930 . S
C1004 N1001 1.314 . S
C1004 C1002 1.353 . S
C1004 H1046 0.930 . S
C1005 N1001 1.279 . S
C1005 C1003 1.358 . S
C1005 H1047 0.930 . S
C1006 C1007 1.348 . S
C1006 C1008 1.356 . S
C1006 O1031 1.325 1_455 S
C1007 C1006 1.348 . S
C1007 C1009 1.353 . S
C1007 H1048 0.929 . S
C1008 C1006 1.356 . S
C1008 C1010 1.358 . S
C1008 H1049 0.930 1_455 S
C1009 C1007 1.353 . S
C1009 N1011 1.314 . S
C1009 H1050 0.930 . S
C1010 C1008 1.358 . S
C1010 N1011 1.279 . S
C1010 H1051 0.930 . S
N1011 C1009 1.314 . S
N1011 C1010 1.279 . S
C1012 C1014 1.353 . S
C1012 N1015 1.314 . S
C1012 H1018 0.930 . S
C1013 N1015 1.279 . S
C1013 C1016 1.358 . S
C1013 H1019 0.930 . S
C1014 C1012 1.353 . S
C1014 C1017 1.348 . S
C1014 H1052 0.929 . S
N1015 Li970 1.990 1_455 S
N1015 C1012 1.314 . S
N1015 C1013 1.279 . S
C1016 C1013 1.358 . S
C1016 C1017 1.356 . S
C1016 H1053 0.930 . S
C1017 C1014 1.348 . S
C1017 C1016 1.356 . S
H1018 C1012 0.930 . S
H1019 C1013 0.930 . S
C1020 N1021 1.314 . S
C1020 C1022 1.353 . S
C1020 H1026 0.930 . S
N1021 Li971 1.990 . S
N1021 C1020 1.314 . S
N1021 C1024 1.279 . S
C1022 C1020 1.353 . S
C1022 C1025 1.348 . S
C1022 H1054 0.929 . S
C1023 C1024 1.358 . S
C1023 C1025 1.356 . S
C1023 H1055 0.930 . S
C1024 N1021 1.279 . S
C1024 C1023 1.358 . S
C1024 H1027 0.930 . S
C1025 C1022 1.348 . S
C1025 C1023 1.356 . S
H1026 C1020 0.930 . S
H1027 C1024 0.930 . S
O1028 Li968 1.956 . S
O1028 Li969 1.970 . S
O1028 Li970 1.961 . S
O1028 C972 1.325 . S
O1029 Li968 1.970 . S
O1029 Li969 1.956 . S
O1029 Li971 1.961 . S
O1029 C978 1.325 . S
O1030 Li968 1.961 . S
O1030 Li970 1.956 . S
O1030 Li971 1.970 . S
O1030 C1000 1.325 . S
O1031 Li969 1.961 . S
O1031 Li970 1.970 . S
O1031 Li971 1.956 . S
O1031 C1006 1.325 1_655 S
H1032 C974 0.929 . S
H1033 C975 0.930 . S
H1034 C976 0.930 . S
H1035 C977 0.930 1_455 S
H1036 C979 0.930 . S
H1037 C981 0.929 . S
H1038 C982 0.930 . S
H1039 C983 0.930 . S
H1040 C986 0.930 . S
H1041 C989 0.929 . S
H1042 C994 0.929 1_455 S
H1043 C995 0.930 . S
H1044 C1002 0.929 . S
H1045 C1003 0.930 . S
H1046 C1004 0.930 . S
H1047 C1005 0.930 . S
H1048 C1007 0.929 . S
H1049 C1008 0.930 1_655 S
H1050 C1009 0.930 . S
H1051 C1010 0.930 . S
H1052 C1014 0.929 . S
H1053 C1016 0.930 . S
H1054 C1022 0.929 . S
H1055 C1023 0.930 . S
Li1056 N1073 1.990 . S
Li1056 O1116 1.956 . S
Li1056 O1117 1.970 . S
Li1056 O1118 1.961 . S
Li1057 N1081 1.990 . S
Li1057 O1116 1.970 . S
Li1057 O1117 1.956 . S
Li1057 O1119 1.961 . S
Li1058 N1103 1.990 . S
Li1058 O1116 1.961 . S
Li1058 O1118 1.956 . S
Li1058 O1119 1.970 . S
Li1059 N1109 1.990 . S
Li1059 O1117 1.961 . S
Li1059 O1118 1.970 . S
Li1059 O1119 1.956 . S
C1060 C1062 1.348 . S
C1060 C1063 1.356 . S
C1060 O1116 1.325 . S
N1061 C1064 1.314 . S
N1061 C1065 1.279 . S
C1062 C1060 1.348 . S
C1062 C1064 1.353 . S
C1062 H1120 0.929 . S
C1063 C1060 1.356 . S
C1063 C1065 1.358 . S
C1063 H1121 0.930 . S
C1064 N1061 1.314 . S
C1064 C1062 1.353 . S
C1064 H1122 0.930 . S
C1065 N1061 1.279 . S
C1065 C1063 1.358 . S
C1065 H1123 0.930 . S
C1066 C1069 1.348 . S
C1066 C1070 1.356 . S
C1066 O1117 1.325 . S
C1067 N1068 1.279 . S
C1067 C1070 1.358 . S
C1067 H1124 0.930 . S
N1068 C1067 1.279 . S
N1068 C1071 1.314 . S
C1069 C1066 1.348 . S
C1069 C1071 1.353 . S
C1069 H1125 0.929 . S
C1070 C1066 1.356 . S
C1070 C1067 1.358 . S
C1070 H1126 0.930 . S
C1071 N1068 1.314 . S
C1071 C1069 1.353 . S
C1071 H1127 0.930 . S
C1072 N1073 1.314 . S
C1072 C1077 1.353 . S
C1072 H1078 0.930 . S
N1073 Li1056 1.990 . S
N1073 C1072 1.314 . S
N1073 C1075 1.279 . S
C1074 C1075 1.358 . S
C1074 C1076 1.356 . S
C1074 H1128 0.930 . S
C1075 N1073 1.279 . S
C1075 C1074 1.358 . S
C1075 H1079 0.930 . S
C1076 C1074 1.356 . S
C1076 C1077 1.348 . S
C1077 C1072 1.353 . S
C1077 C1076 1.348 . S
C1077 H1129 0.929 . S
H1078 C1072 0.930 . S
H1079 C1075 0.930 . S
C1080 N1081 1.314 . S
C1080 C1082 1.353 . S
C1080 H1086 0.930 . S
N1081 Li1057 1.990 . S
N1081 C1080 1.314 . S
N1081 C1084 1.279 . S
C1082 C1080 1.353 . S
C1082 C1085 1.348 . S
C1082 H1130 0.929 . S
C1083 C1084 1.358 . S
C1083 C1085 1.356 . S
C1083 H1131 0.930 . S
C1084 N1081 1.279 . S
C1084 C1083 1.358 . S
C1084 H1087 0.930 . S
C1085 C1082 1.348 . S
C1085 C1083 1.356 . S
H1086 C1080 0.930 . S
H1087 C1084 0.930 . S
C1088 C1090 1.348 . S
C1088 C1091 1.356 . S
C1088 O1118 1.325 . S
N1089 C1092 1.314 . S
N1089 C1093 1.279 . S
C1090 C1088 1.348 . S
C1090 C1092 1.353 . S
C1090 H1132 0.929 . S
C1091 C1088 1.356 . S
C1091 C1093 1.358 . S
C1091 H1133 0.930 . S
C1092 N1089 1.314 . S
C1092 C1090 1.353 . S
C1092 H1134 0.930 . S
C1093 N1089 1.279 . S
C1093 C1091 1.358 . S
C1093 H1135 0.930 . S
C1094 C1095 1.348 . S
C1094 C1096 1.356 . S
C1094 O1119 1.325 . S
C1095 C1094 1.348 . S
C1095 C1097 1.353 . S
C1095 H1136 0.929 . S
C1096 C1094 1.356 . S
C1096 C1098 1.358 . S
C1096 H1137 0.930 . S
C1097 C1095 1.353 . S
C1097 N1099 1.314 . S
C1097 H1138 0.930 . S
C1098 C1096 1.358 . S
C1098 N1099 1.279 . S
C1098 H1139 0.930 . S
N1099 C1097 1.314 . S
N1099 C1098 1.279 . S
C1100 C1102 1.353 . S
C1100 N1103 1.314 . S
C1100 H1106 0.930 . S
C1101 N1103 1.279 . S
C1101 C1104 1.358 . S
C1101 H1107 0.930 . S
C1102 C1100 1.353 . S
C1102 C1105 1.348 . S
C1102 H1140 0.929 . S
N1103 Li1058 1.990 . S
N1103 C1100 1.314 . S
N1103 C1101 1.279 . S
C1104 C1101 1.358 . S
C1104 C1105 1.356 . S
C1104 H1141 0.930 . S
C1105 C1102 1.348 . S
C1105 C1104 1.356 . S
H1106 C1100 0.930 . S
H1107 C1101 0.930 . S
C1108 N1109 1.314 . S
C1108 C1110 1.353 . S
C1108 H1114 0.930 . S
N1109 Li1059 1.990 . S
N1109 C1108 1.314 . S
N1109 C1112 1.279 . S
C1110 C1108 1.353 . S
C1110 C1113 1.348 . S
C1110 H1142 0.929 . S
C1111 C1112 1.358 . S
C1111 C1113 1.356 . S
C1111 H1143 0.930 . S
C1112 N1109 1.279 . S
C1112 C1111 1.358 . S
C1112 H1115 0.930 . S
C1113 C1110 1.348 . S
C1113 C1111 1.356 . S
H1114 C1108 0.930 . S
H1115 C1112 0.930 . S
O1116 Li1056 1.956 . S
O1116 Li1057 1.970 . S
O1116 Li1058 1.961 . S
O1116 C1060 1.325 . S
O1117 Li1056 1.970 . S
O1117 Li1057 1.956 . S
O1117 Li1059 1.961 . S
O1117 C1066 1.325 . S
O1118 Li1056 1.961 . S
O1118 Li1058 1.956 . S
O1118 Li1059 1.970 . S
O1118 C1088 1.325 . S
O1119 Li1057 1.961 . S
O1119 Li1058 1.970 . S
O1119 Li1059 1.956 . S
O1119 C1094 1.325 . S
H1120 C1062 0.929 . S
H1121 C1063 0.930 . S
H1122 C1064 0.930 . S
H1123 C1065 0.930 . S
H1124 C1067 0.930 . S
H1125 C1069 0.929 . S
H1126 C1070 0.930 . S
H1127 C1071 0.930 . S
H1128 C1074 0.930 . S
H1129 C1077 0.929 . S
H1130 C1082 0.929 . S
H1131 C1083 0.930 . S
H1132 C1090 0.929 . S
H1133 C1091 0.930 . S
H1134 C1092 0.930 . S
H1135 C1093 0.930 . S
H1136 C1095 0.929 . S
H1137 C1096 0.930 . S
H1138 C1097 0.930 . S
H1139 C1098 0.930 . S
H1140 C1102 0.929 . S
H1141 C1104 0.930 . S
H1142 C1110 0.929 . S
H1143 C1111 0.930 . S
Li1144 N1161 1.990 . S
Li1144 O1204 1.956 . S
Li1144 O1205 1.970 . S
Li1144 O1206 1.961 . S
Li1145 N1169 1.990 1_565 S
Li1145 O1204 1.970 . S
Li1145 O1205 1.956 . S
Li1145 O1207 1.961 . S
Li1146 N1191 1.990 . S
Li1146 O1204 1.961 . S
Li1146 O1206 1.956 . S
Li1146 O1207 1.970 . S
Li1147 N1197 1.990 . S
Li1147 O1205 1.961 . S
Li1147 O1206 1.970 . S
Li1147 O1207 1.956 . S
C1148 C1150 1.348 . S
C1148 C1151 1.356 . S
C1148 O1204 1.325 1_545 S
N1149 C1152 1.314 . S
N1149 C1153 1.279 . S
C1150 C1148 1.348 . S
C1150 C1152 1.353 . S
C1150 H1208 0.929 . S
C1151 C1148 1.356 . S
C1151 C1153 1.358 . S
C1151 H1209 0.930 1_545 S
C1152 N1149 1.314 . S
C1152 C1150 1.353 . S
C1152 H1210 0.930 . S
C1153 N1149 1.279 . S
C1153 C1151 1.358 . S
C1153 H1211 0.930 . S
C1154 C1157 1.348 . S
C1154 C1158 1.356 . S
C1154 O1205 1.325 . S
C1155 N1156 1.279 . S
C1155 C1158 1.358 . S
C1155 H1212 0.930 . S
N1156 C1155 1.279 . S
N1156 C1159 1.307 . S
C1157 C1154 1.348 . S
C1157 C1159 1.357 . S
C1157 H1213 0.929 . S
C1158 C1154 1.356 . S
C1158 C1155 1.358 . S
C1158 H1214 0.930 . S
C1159 N1156 1.307 . S
C1159 C1157 1.357 . S
C1159 H1215 0.933 1_565 S
C1160 N1161 1.314 . S
C1160 C1165 1.353 . S
C1160 H1166 0.930 . S
N1161 Li1144 1.990 . S
N1161 C1160 1.314 . S
N1161 C1163 1.279 . S
C1162 C1163 1.358 . S
C1162 C1164 1.356 . S
C1162 H1216 0.930 1_565 S
C1163 N1161 1.279 . S
C1163 C1162 1.358 . S
C1163 H1167 0.930 1_565 S
C1164 C1162 1.356 . S
C1164 C1165 1.348 . S
C1165 C1160 1.353 . S
C1165 C1164 1.348 . S
C1165 H1217 0.929 . S
H1166 C1160 0.930 . S
H1167 C1163 0.930 1_545 S
C1168 N1169 1.314 . S
C1168 C1170 1.353 . S
C1168 H1174 0.930 . S
N1169 Li1145 1.990 1_545 S
N1169 C1168 1.314 . S
N1169 C1172 1.279 . S
C1170 C1168 1.353 . S
C1170 C1173 1.348 . S
C1170 H1218 0.929 . S
C1171 C1172 1.358 . S
C1171 C1173 1.356 . S
C1171 H1219 0.930 . S
C1172 N1169 1.279 . S
C1172 C1171 1.358 . S
C1172 H1175 0.930 . S
C1173 C1170 1.348 . S
C1173 C1171 1.356 . S
H1174 C1168 0.930 . S
H1175 C1172 0.930 . S
C1176 C1178 1.348 . S
C1176 C1179 1.356 . S
C1176 O1206 1.325 . S
N1177 C1180 1.314 . S
N1177 C1181 1.279 . S
C1178 C1176 1.348 . S
C1178 C1180 1.353 . S
C1178 H1220 0.929 . S
C1179 C1176 1.356 . S
C1179 C1181 1.358 . S
C1179 H1221 0.930 . S
C1180 N1177 1.314 . S
C1180 C1178 1.353 . S
C1180 H1222 0.930 . S
C1181 N1177 1.279 . S
C1181 C1179 1.358 . S
C1181 H1223 0.930 . S
C1182 C1183 1.348 . S
C1182 C1184 1.356 . S
C1182 O1207 1.325 . S
C1183 C1182 1.348 . S
C1183 C1185 1.353 . S
C1183 H1224 0.929 . S
C1184 C1182 1.356 . S
C1184 C1186 1.358 . S
C1184 H1225 0.930 . S
C1185 C1183 1.353 . S
C1185 N1187 1.314 . S
C1185 H1226 0.930 . S
C1186 C1184 1.358 . S
C1186 N1187 1.279 . S
C1186 H1227 0.930 . S
N1187 C1185 1.314 . S
N1187 C1186 1.279 . S
C1188 C1190 1.353 . S
C1188 N1191 1.314 . S
C1188 H1194 0.930 . S
C1189 N1191 1.279 . S
C1189 C1192 1.358 . S
C1189 H1195 0.930 . S
C1190 C1188 1.353 . S
C1190 C1193 1.348 . S
C1190 H1228 0.929 . S
N1191 Li1146 1.990 . S
N1191 C1188 1.314 . S
N1191 C1189 1.279 . S
C1192 C1189 1.358 . S
C1192 C1193 1.356 . S
C1192 H1229 0.930 . S
C1193 C1190 1.348 . S
C1193 C1192 1.356 . S
H1194 C1188 0.930 . S
H1195 C1189 0.930 . S
C1196 N1197 1.314 . S
C1196 C1198 1.353 . S
C1196 H1202 0.930 . S
N1197 Li1147 1.990 . S
N1197 C1196 1.314 . S
N1197 C1200 1.279 . S
C1198 C1196 1.353 . S
C1198 C1201 1.348 . S
C1198 H1230 0.929 . S
C1199 C1200 1.358 . S
C1199 C1201 1.356 . S
C1199 H1231 0.930 . S
C1200 N1197 1.279 . S
C1200 C1199 1.358 . S
C1200 H1203 0.930 . S
C1201 C1198 1.348 . S
C1201 C1199 1.356 . S
H1202 C1196 0.930 . S
H1203 C1200 0.930 . S
O1204 Li1144 1.956 . S
O1204 Li1145 1.970 . S
O1204 Li1146 1.961 . S
O1204 C1148 1.325 1_565 S
O1205 Li1144 1.970 . S
O1205 Li1145 1.956 . S
O1205 Li1147 1.961 . S
O1205 C1154 1.325 . S
O1206 Li1144 1.961 . S
O1206 Li1146 1.956 . S
O1206 Li1147 1.970 . S
O1206 C1176 1.325 . S
O1207 Li1145 1.961 . S
O1207 Li1146 1.970 . S
O1207 Li1147 1.956 . S
O1207 C1182 1.325 . S
H1208 C1150 0.929 . S
H1209 C1151 0.930 1_565 S
H1210 C1152 0.930 . S
H1211 C1153 0.930 . S
H1212 C1155 0.930 . S
H1213 C1157 0.929 . S
H1214 C1158 0.930 . S
H1215 C1159 0.933 1_545 S
H1216 C1162 0.930 1_545 S
H1217 C1165 0.929 . S
H1218 C1170 0.929 . S
H1219 C1171 0.930 . S
H1220 C1178 0.929 . S
H1221 C1179 0.930 . S
H1222 C1180 0.930 . S
H1223 C1181 0.930 . S
H1224 C1183 0.929 . S
H1225 C1184 0.930 . S
H1226 C1185 0.930 . S
H1227 C1186 0.930 . S
H1228 C1190 0.929 . S
H1229 C1192 0.930 . S
H1230 C1198 0.929 . S
H1231 C1199 0.930 . S
Li1232 N1249 1.990 . S
Li1232 O1292 1.956 . S
Li1232 O1293 1.970 . S
Li1232 O1294 1.961 . S
Li1233 N1257 1.990 . S
Li1233 O1292 1.970 . S
Li1233 O1293 1.956 . S
Li1233 O1295 1.961 . S
Li1234 N1279 1.990 1_455 S
Li1234 O1292 1.961 . S
Li1234 O1294 1.956 . S
Li1234 O1295 1.970 . S
Li1235 N1285 1.990 . S
Li1235 O1293 1.961 . S
Li1235 O1294 1.970 . S
Li1235 O1295 1.956 . S
C1236 C1238 1.348 . S
C1236 C1239 1.356 . S
C1236 O1292 1.325 1_655 S
N1237 C1240 1.314 . S
N1237 C1241 1.279 . S
C1238 C1236 1.348 . S
C1238 C1240 1.353 . S
C1238 H1296 0.929 . S
C1239 C1236 1.356 . S
C1239 C1241 1.358 . S
C1239 H1297 0.930 . S
C1240 N1237 1.314 . S
C1240 C1238 1.353 . S
C1240 H1298 0.930 . S
C1241 N1237 1.279 . S
C1241 C1239 1.358 . S
C1241 H1299 0.930 . S
C1242 C1245 1.348 . S
C1242 C1246 1.356 . S
C1242 O1293 1.325 . S
C1243 N1244 1.279 . S
C1243 C1246 1.358 . S
C1243 H1300 0.930 . S
N1244 C1243 1.279 . S
N1244 C1247 1.314 . S
C1245 C1242 1.348 . S
C1245 C1247 1.353 . S
C1245 H1301 0.929 . S
C1246 C1242 1.356 . S
C1246 C1243 1.358 . S
C1246 H1302 0.930 . S
C1247 N1244 1.314 . S
C1247 C1245 1.353 . S
C1247 H1303 0.930 . S
C1248 N1249 1.314 . S
C1248 C1253 1.353 . S
C1248 H1254 0.930 . S
N1249 Li1232 1.990 . S
N1249 C1248 1.314 . S
N1249 C1251 1.279 . S
C1250 C1251 1.358 . S
C1250 C1252 1.356 . S
C1250 H1304 0.930 . S
C1251 N1249 1.279 . S
C1251 C1250 1.358 . S
C1251 H1255 0.930 . S
C1252 C1250 1.356 . S
C1252 C1253 1.348 . S
C1253 C1248 1.353 . S
C1253 C1252 1.348 . S
C1253 H1305 0.929 . S
H1254 C1248 0.930 . S
H1255 C1251 0.930 . S
C1256 N1257 1.314 . S
C1256 C1258 1.353 . S
C1256 H1262 0.930 1_455 S
N1257 Li1233 1.990 . S
N1257 C1256 1.314 . S
N1257 C1260 1.279 . S
C1258 C1256 1.353 . S
C1258 C1261 1.348 . S
C1258 H1306 0.929 1_455 S
C1259 C1260 1.358 . S
C1259 C1261 1.356 . S
C1259 H1307 0.930 . S
C1260 N1257 1.279 . S
C1260 C1259 1.358 . S
C1260 H1263 0.930 . S
C1261 C1258 1.348 . S
C1261 C1259 1.356 . S
H1262 C1256 0.930 1_655 S
H1263 C1260 0.930 . S
C1264 C1266 1.348 . S
C1264 C1267 1.356 . S
C1264 O1294 1.325 . S
N1265 C1268 1.314 . S
N1265 C1269 1.279 . S
C1266 C1264 1.348 . S
C1266 C1268 1.353 . S
C1266 H1308 0.929 . S
C1267 C1264 1.356 . S
C1267 C1269 1.358 . S
C1267 H1309 0.930 . S
C1268 N1265 1.314 . S
C1268 C1266 1.353 . S
C1268 H1310 0.930 . S
C1269 N1265 1.279 . S
C1269 C1267 1.358 . S
C1269 H1311 0.930 . S
C1270 C1271 1.341 1_455 S
C1270 C1272 1.356 . S
C1270 O1295 1.325 . S
C1271 C1270 1.341 1_655 S
C1271 C1273 1.359 . S
C1271 H1312 0.931 . S
C1272 C1270 1.356 . S
C1272 C1274 1.358 . S
C1272 H1313 0.930 . S
C1273 C1271 1.359 . S
C1273 N1275 1.314 1_655 S
C1273 H1314 0.930 . S
C1274 C1272 1.358 . S
C1274 N1275 1.279 . S
C1274 H1315 0.930 . S
N1275 C1273 1.314 1_455 S
N1275 C1274 1.279 . S
C1276 C1278 1.353 . S
C1276 N1279 1.314 . S
C1276 H1282 0.930 . S
C1277 N1279 1.279 . S
C1277 C1280 1.358 . S
C1277 H1283 0.930 . S
C1278 C1276 1.353 . S
C1278 C1281 1.348 . S
C1278 H1316 0.929 . S
N1279 Li1234 1.990 1_655 S
N1279 C1276 1.314 . S
N1279 C1277 1.279 . S
C1280 C1277 1.358 . S
C1280 C1281 1.356 . S
C1280 H1317 0.930 . S
C1281 C1278 1.348 . S
C1281 C1280 1.356 . S
H1282 C1276 0.930 . S
H1283 C1277 0.930 . S
C1284 N1285 1.314 . S
C1284 C1286 1.353 . S
C1284 H1290 0.930 . S
N1285 Li1235 1.990 . S
N1285 C1284 1.314 . S
N1285 C1288 1.279 . S
C1286 C1284 1.353 . S
C1286 C1289 1.348 . S
C1286 H1318 0.929 . S
C1287 C1288 1.358 . S
C1287 C1289 1.356 . S
C1287 H1319 0.930 . S
C1288 N1285 1.279 . S
C1288 C1287 1.358 . S
C1288 H1291 0.930 . S
C1289 C1286 1.348 . S
C1289 C1287 1.356 . S
H1290 C1284 0.930 . S
H1291 C1288 0.930 . S
O1292 Li1232 1.956 . S
O1292 Li1233 1.970 . S
O1292 Li1234 1.961 . S
O1292 C1236 1.325 1_455 S
O1293 Li1232 1.970 . S
O1293 Li1233 1.956 . S
O1293 Li1235 1.961 . S
O1293 C1242 1.325 . S
O1294 Li1232 1.961 . S
O1294 Li1234 1.956 . S
O1294 Li1235 1.970 . S
O1294 C1264 1.325 . S
O1295 Li1233 1.961 . S
O1295 Li1234 1.970 . S
O1295 Li1235 1.956 . S
O1295 C1270 1.325 . S
H1296 C1238 0.929 . S
H1297 C1239 0.930 . S
H1298 C1240 0.930 . S
H1299 C1241 0.930 . S
H1300 C1243 0.930 . S
H1301 C1245 0.929 . S
H1302 C1246 0.930 . S
H1303 C1247 0.930 . S
H1304 C1250 0.930 . S
H1305 C1253 0.929 . S
H1306 C1258 0.929 1_655 S
H1307 C1259 0.930 . S
H1308 C1266 0.929 . S
H1309 C1267 0.930 . S
H1310 C1268 0.930 . S
H1311 C1269 0.930 . S
H1312 C1271 0.931 . S
H1313 C1272 0.930 . S
H1314 C1273 0.930 . S
H1315 C1274 0.930 . S
H1316 C1278 0.929 . S
H1317 C1280 0.930 . S
H1318 C1286 0.929 . S
H1319 C1287 0.930 . S
Li1320 N1337 1.990 . S
Li1320 O1380 1.954 1_655 S
Li1320 O1381 1.970 . S
Li1320 O1382 1.961 . S
Li1321 N1345 1.990 . S
Li1321 O1380 1.974 . S
Li1321 O1381 1.956 1_455 S
Li1321 O1383 1.961 . S
Li1322 N1367 1.990 . S
Li1322 O1380 1.963 1_655 S
Li1322 O1382 1.956 . S
Li1322 O1383 1.970 1_655 S
Li1323 N1373 1.990 . S
Li1323 O1381 1.961 1_455 S
Li1323 O1382 1.970 1_455 S
Li1323 O1383 1.956 . S
C1324 C1326 1.348 1_655 S
C1324 C1327 1.356 . S
C1324 O1380 1.323 1_655 S
N1325 C1328 1.314 1_655 S
N1325 C1329 1.279 . S
C1326 C1324 1.348 1_455 S
C1326 C1328 1.353 . S
C1326 H1384 0.929 . S
C1327 C1324 1.356 . S
C1327 C1329 1.358 . S
C1327 H1385 0.930 . S
C1328 N1325 1.314 1_455 S
C1328 C1326 1.353 . S
C1328 H1386 0.930 . S
C1329 N1325 1.279 . S
C1329 C1327 1.358 . S
C1329 H1387 0.930 . S
C1330 C1333 1.332 1_455 S
C1330 C1334 1.370 . S
C1330 O1381 1.327 1_455 S
C1331 N1332 1.279 . S
C1331 C1334 1.358 . S
C1331 H1388 0.930 . S
N1332 C1331 1.279 . S
N1332 C1335 1.314 1_455 S
C1333 C1330 1.332 1_655 S
C1333 C1335 1.353 . S
C1333 H1389 0.929 . S
C1334 C1330 1.370 . S
C1334 C1331 1.358 . S
C1334 H1390 0.930 . S
C1335 N1332 1.314 1_655 S
C1335 C1333 1.353 . S
C1335 H1391 0.930 . S
C1336 N1337 1.314 . S
C1336 C1341 1.353 . S
C1336 H1342 0.930 . S
N1337 Li1320 1.990 . S
N1337 C1336 1.314 . S
N1337 C1339 1.279 . S
C1338 C1339 1.358 . S
C1338 C1340 1.356 . S
C1338 H1392 0.930 . S
C1339 N1337 1.279 . S
C1339 C1338 1.358 . S
C1339 H1343 0.930 . S
C1340 C1338 1.356 . S
C1340 C1341 1.348 . S
C1341 C1336 1.353 . S
C1341 C1340 1.348 . S
C1341 H1393 0.929 . S
H1342 C1336 0.930 . S
H1343 C1339 0.930 . S
C1344 N1345 1.314 . S
C1344 C1346 1.353 . S
C1344 H1350 0.930 . S
N1345 Li1321 1.990 . S
N1345 C1344 1.314 . S
N1345 C1348 1.279 . S
C1346 C1344 1.353 . S
C1346 C1349 1.348 . S
C1346 H1394 0.929 . S
C1347 C1348 1.358 . S
C1347 C1349 1.356 . S
C1347 H1395 0.930 . S
C1348 N1345 1.279 . S
C1348 C1347 1.358 . S
C1348 H1351 0.930 . S
C1349 C1346 1.348 . S
C1349 C1347 1.356 . S
H1350 C1344 0.930 . S
H1351 C1348 0.930 . S
C1352 C1354 1.348 . S
C1352 C1355 1.356 . S
C1352 O1382 1.325 . S
N1353 C1356 1.314 . S
N1353 C1357 1.279 . S
C1354 C1352 1.348 . S
C1354 C1356 1.353 . S
C1354 H1396 0.929 . S
C1355 C1352 1.356 . S
C1355 C1357 1.358 . S
C1355 H1397 0.930 . S
C1356 N1353 1.314 . S
C1356 C1354 1.353 . S
C1356 H1398 0.930 . S
C1357 N1353 1.279 . S
C1357 C1355 1.358 . S
C1357 H1399 0.930 . S
C1358 C1359 1.348 . S
C1358 C1360 1.356 . S
C1358 O1383 1.325 . S
C1359 C1358 1.348 . S
C1359 C1361 1.353 . S
C1359 H1400 0.929 . S
C1360 C1358 1.356 . S
C1360 C1362 1.358 . S
C1360 H1401 0.930 . S
C1361 C1359 1.353 . S
C1361 N1363 1.314 . S
C1361 H1402 0.930 . S
C1362 C1360 1.358 . S
C1362 N1363 1.279 . S
C1362 H1403 0.930 . S
N1363 C1361 1.314 . S
N1363 C1362 1.279 . S
C1364 C1366 1.353 . S
C1364 N1367 1.314 1_455 S
C1364 H1370 0.930 . S
C1365 N1367 1.279 . S
C1365 C1368 1.358 . S
C1365 H1371 0.930 . S
C1366 C1364 1.353 . S
C1366 C1369 1.348 1_455 S
C1366 H1404 0.929 . S
N1367 Li1322 1.990 . S
N1367 C1364 1.314 1_655 S
N1367 C1365 1.279 . S
C1368 C1365 1.358 . S
C1368 C1369 1.356 . S
C1368 H1405 0.930 . S
C1369 C1366 1.348 1_655 S
C1369 C1368 1.356 . S
H1370 C1364 0.930 . S
H1371 C1365 0.930 . S
C1372 N1373 1.314 1_655 S
C1372 C1374 1.353 . S
C1372 H1378 0.930 . S
N1373 Li1323 1.990 . S
N1373 C1372 1.314 1_455 S
N1373 C1376 1.279 . S
C1374 C1372 1.353 . S
C1374 C1377 1.348 1_655 S
C1374 H1406 0.929 . S
C1375 C1376 1.358 . S
C1375 C1377 1.356 . S
C1375 H1407 0.930 . S
C1376 N1373 1.279 . S
C1376 C1375 1.358 . S
C1376 H1379 0.930 . S
C1377 C1374 1.348 1_455 S
C1377 C1375 1.356 . S
H1378 C1372 0.930 . S
H1379 C1376 0.930 . S
O1380 Li1320 1.954 1_455 S
O1380 Li1321 1.974 . S
O1380 Li1322 1.963 1_455 S
O1380 C1324 1.323 1_455 S
O1381 Li1320 1.970 . S
O1381 Li1321 1.956 1_655 S
O1381 Li1323 1.961 1_655 S
O1381 C1330 1.327 1_655 S
O1382 Li1320 1.961 . S
O1382 Li1322 1.956 . S
O1382 Li1323 1.970 1_655 S
O1382 C1352 1.325 . S
O1383 Li1321 1.961 . S
O1383 Li1322 1.970 1_455 S
O1383 Li1323 1.956 . S
O1383 C1358 1.325 . S
H1384 C1326 0.929 . S
H1385 C1327 0.930 . S
H1386 C1328 0.930 . S
H1387 C1329 0.930 . S
H1388 C1331 0.930 . S
H1389 C1333 0.929 . S
H1390 C1334 0.930 . S
H1391 C1335 0.930 . S
H1392 C1338 0.930 . S
H1393 C1341 0.929 . S
H1394 C1346 0.929 . S
H1395 C1347 0.930 . S
H1396 C1354 0.929 . S
H1397 C1355 0.930 . S
H1398 C1356 0.930 . S
H1399 C1357 0.930 . S
H1400 C1359 0.929 . S
H1401 C1360 0.930 . S
H1402 C1361 0.930 . S
H1403 C1362 0.930 . S
H1404 C1366 0.929 . S
H1405 C1368 0.930 . S
H1406 C1374 0.929 . S
H1407 C1375 0.930 . S
Li1408 N1425 1.990 . S
Li1408 O1468 1.956 . S
Li1408 O1469 1.970 . S
Li1408 O1470 1.961 . S
Li1409 N1433 1.990 . S
Li1409 O1468 1.970 . S
Li1409 O1469 1.956 . S
Li1409 O1471 1.961 . S
Li1410 N1455 1.990 . S
Li1410 O1468 1.961 . S
Li1410 O1470 1.956 . S
Li1410 O1471 1.970 . S
Li1411 N1461 1.990 . S
Li1411 O1469 1.961 . S
Li1411 O1470 1.970 . S
Li1411 O1471 1.956 . S
C1412 C1414 1.348 . S
C1412 C1415 1.356 . S
C1412 O1468 1.325 . S
N1413 C1416 1.314 . S
N1413 C1417 1.279 . S
C1414 C1412 1.348 . S
C1414 C1416 1.353 . S
C1414 H1472 0.929 . S
C1415 C1412 1.356 . S
C1415 C1417 1.358 . S
C1415 H1473 0.930 . S
C1416 N1413 1.314 . S
C1416 C1414 1.353 . S
C1416 H1474 0.930 . S
C1417 N1413 1.279 . S
C1417 C1415 1.358 . S
C1417 H1475 0.930 . S
C1418 C1421 1.348 . S
C1418 C1422 1.356 . S
C1418 O1469 1.325 . S
C1419 N1420 1.279 . S
C1419 C1422 1.358 . S
C1419 H1476 0.930 . S
N1420 C1419 1.279 . S
N1420 C1423 1.314 . S
C1421 C1418 1.348 . S
C1421 C1423 1.353 . S
C1421 H1477 0.929 . S
C1422 C1418 1.356 . S
C1422 C1419 1.358 . S
C1422 H1478 0.930 . S
C1423 N1420 1.314 . S
C1423 C1421 1.353 . S
C1423 H1479 0.930 . S
C1424 N1425 1.314 . S
C1424 C1429 1.353 . S
C1424 H1430 0.930 . S
N1425 Li1408 1.990 . S
N1425 C1424 1.314 . S
N1425 C1427 1.279 . S
C1426 C1427 1.358 . S
C1426 C1428 1.356 . S
C1426 H1480 0.930 . S
C1427 N1425 1.279 . S
C1427 C1426 1.358 . S
C1427 H1431 0.930 . S
C1428 C1426 1.356 . S
C1428 C1429 1.348 . S
C1429 C1424 1.353 . S
C1429 C1428 1.348 . S
C1429 H1481 0.929 . S
H1430 C1424 0.930 . S
H1431 C1427 0.930 . S
C1432 N1433 1.314 . S
C1432 C1434 1.353 . S
C1432 H1438 0.930 . S
N1433 Li1409 1.990 . S
N1433 C1432 1.314 . S
N1433 C1436 1.279 . S
C1434 C1432 1.353 . S
C1434 C1437 1.348 . S
C1434 H1482 0.929 . S
C1435 C1436 1.358 . S
C1435 C1437 1.356 . S
C1435 H1483 0.930 . S
C1436 N1433 1.279 . S
C1436 C1435 1.358 . S
C1436 H1439 0.930 . S
C1437 C1434 1.348 . S
C1437 C1435 1.356 . S
H1438 C1432 0.930 . S
H1439 C1436 0.930 . S
C1440 C1442 1.348 . S
C1440 C1443 1.356 . S
C1440 O1470 1.325 . S
N1441 C1444 1.314 . S
N1441 C1445 1.279 . S
C1442 C1440 1.348 . S
C1442 C1444 1.353 . S
C1442 H1484 0.929 . S
C1443 C1440 1.356 . S
C1443 C1445 1.358 . S
C1443 H1485 0.930 . S
C1444 N1441 1.314 . S
C1444 C1442 1.353 . S
C1444 H1486 0.930 . S
C1445 N1441 1.279 . S
C1445 C1443 1.358 . S
C1445 H1487 0.930 . S
C1446 C1447 1.348 . S
C1446 C1448 1.356 . S
C1446 O1471 1.325 . S
C1447 C1446 1.348 . S
C1447 C1449 1.353 . S
C1447 H1488 0.929 . S
C1448 C1446 1.356 . S
C1448 C1450 1.358 . S
C1448 H1489 0.930 . S
C1449 C1447 1.353 . S
C1449 N1451 1.314 . S
C1449 H1490 0.930 . S
C1450 C1448 1.358 . S
C1450 N1451 1.279 . S
C1450 H1491 0.930 . S
N1451 C1449 1.314 . S
N1451 C1450 1.279 . S
C1452 C1454 1.353 . S
C1452 N1455 1.314 . S
C1452 H1458 0.930 . S
C1453 N1455 1.279 . S
C1453 C1456 1.358 . S
C1453 H1459 0.930 . S
C1454 C1452 1.353 . S
C1454 C1457 1.348 . S
C1454 H1492 0.929 . S
N1455 Li1410 1.990 . S
N1455 C1452 1.314 . S
N1455 C1453 1.279 . S
C1456 C1453 1.358 . S
C1456 C1457 1.356 . S
C1456 H1493 0.930 . S
C1457 C1454 1.348 . S
C1457 C1456 1.356 . S
H1458 C1452 0.930 . S
H1459 C1453 0.930 . S
C1460 N1461 1.314 . S
C1460 C1462 1.353 . S
C1460 H1466 0.930 . S
N1461 Li1411 1.990 . S
N1461 C1460 1.314 . S
N1461 C1464 1.279 . S
C1462 C1460 1.353 . S
C1462 C1465 1.348 . S
C1462 H1494 0.929 . S
C1463 C1464 1.358 . S
C1463 C1465 1.356 . S
C1463 H1495 0.930 . S
C1464 N1461 1.279 . S
C1464 C1463 1.358 . S
C1464 H1467 0.930 . S
C1465 C1462 1.348 . S
C1465 C1463 1.356 . S
H1466 C1460 0.930 . S
H1467 C1464 0.930 . S
O1468 Li1408 1.956 . S
O1468 Li1409 1.970 . S
O1468 Li1410 1.961 . S
O1468 C1412 1.325 . S
O1469 Li1408 1.970 . S
O1469 Li1409 1.956 . S
O1469 Li1411 1.961 . S
O1469 C1418 1.325 . S
O1470 Li1408 1.961 . S
O1470 Li1410 1.956 . S
O1470 Li1411 1.970 . S
O1470 C1440 1.325 . S
O1471 Li1409 1.961 . S
O1471 Li1410 1.970 . S
O1471 Li1411 1.956 . S
O1471 C1446 1.325 . S
H1472 C1414 0.929 . S
H1473 C1415 0.930 . S
H1474 C1416 0.930 . S
H1475 C1417 0.930 . S
H1476 C1419 0.930 . S
H1477 C1421 0.929 . S
H1478 C1422 0.930 . S
H1479 C1423 0.930 . S
H1480 C1426 0.930 . S
H1481 C1429 0.929 . S
H1482 C1434 0.929 . S
H1483 C1435 0.930 . S
H1484 C1442 0.929 . S
H1485 C1443 0.930 . S
H1486 C1444 0.930 . S
H1487 C1445 0.930 . S
H1488 C1447 0.929 . S
H1489 C1448 0.930 . S
H1490 C1449 0.930 . S
H1491 C1450 0.930 . S
H1492 C1454 0.929 . S
H1493 C1456 0.930 . S
H1494 C1462 0.929 . S
H1495 C1463 0.930 . S
Li1496 N1513 1.990 . S
Li1496 O1556 1.956 . S
Li1496 O1557 1.989 . S
Li1496 O1558 1.961 1_565 S
Li1497 N1521 1.978 1_565 S
Li1497 O1556 1.976 . S
Li1497 O1557 1.947 . S
Li1497 O1559 1.956 1_565 S
Li1498 N1543 1.991 . S
Li1498 O1556 1.959 . S
Li1498 O1558 1.954 1_565 S
Li1498 O1559 1.973 1_565 S
Li1499 N1549 1.990 . S
Li1499 O1557 1.946 1_545 S
Li1499 O1558 1.970 . S
Li1499 O1559 1.956 . S
C1500 C1502 1.348 . S
C1500 C1503 1.356 . S
C1500 O1556 1.325 . S
N1501 C1504 1.314 . S
N1501 C1505 1.279 . S
C1502 C1500 1.348 . S
C1502 C1504 1.353 . S
C1502 H1560 0.929 . S
C1503 C1500 1.356 . S
C1503 C1505 1.358 . S
C1503 H1561 0.930 . S
C1504 N1501 1.314 . S
C1504 C1502 1.353 . S
C1504 H1562 0.930 . S
C1505 N1501 1.279 . S
C1505 C1503 1.358 . S
C1505 H1563 0.930 . S
C1506 C1509 1.367 . S
C1506 C1510 1.339 1_565 S
C1506 O1557 1.325 . S
C1507 N1508 1.278 . S
C1507 C1510 1.358 . S
C1507 H1564 0.930 . S
N1508 C1507 1.278 . S
N1508 C1511 1.316 1_545 S
C1509 C1506 1.367 . S
C1509 C1511 1.353 . S
C1509 H1565 0.929 . S
C1510 C1506 1.339 1_545 S
C1510 C1507 1.358 . S
C1510 H1566 0.930 . S
C1511 N1508 1.316 1_565 S
C1511 C1509 1.353 . S
C1511 H1567 0.930 . S
C1512 N1513 1.314 . S
C1512 C1517 1.353 . S
C1512 H1518 0.930 . S
N1513 Li1496 1.990 . S
N1513 C1512 1.314 . S
N1513 C1515 1.279 . S
C1514 C1515 1.358 . S
C1514 C1516 1.356 . S
C1514 H1568 0.930 . S
C1515 N1513 1.279 . S
C1515 C1514 1.358 . S
C1515 H1519 0.930 . S
C1516 C1514 1.356 . S
C1516 C1517 1.348 . S
C1517 C1512 1.353 . S
C1517 C1516 1.348 . S
C1517 H1569 0.929 . S
H1518 C1512 0.930 . S
H1519 C1515 0.930 . S
C1520 N1521 1.327 . S
C1520 C1522 1.353 . S
C1520 H1526 0.930 . S
N1521 Li1497 1.978 1_545 S
N1521 C1520 1.327 . S
N1521 C1524 1.275 1_545 S
C1522 C1520 1.353 . S
C1522 C1525 1.348 1_545 S
C1522 H1570 0.929 . S
C1523 C1524 1.358 . S
C1523 C1525 1.356 . S
C1523 H1571 0.930 . S
C1524 N1521 1.275 1_565 S
C1524 C1523 1.358 . S
C1524 H1527 0.930 . S
C1525 C1522 1.348 1_565 S
C1525 C1523 1.356 . S
H1526 C1520 0.930 . S
H1527 C1524 0.930 . S
C1528 C1530 1.348 . S
C1528 C1531 1.356 1_545 S
C1528 O1558 1.325 . S
N1529 C1532 1.314 . S
N1529 C1533 1.279 1_545 S
C1530 C1528 1.348 . S
C1530 C1532 1.353 . S
C1530 H1572 0.929 . S
C1531 C1528 1.356 1_565 S
C1531 C1533 1.358 . S
C1531 H1573 0.930 . S
C1532 N1529 1.314 . S
C1532 C1530 1.353 . S
C1532 H1574 0.930 . S
C1533 N1529 1.279 1_565 S
C1533 C1531 1.358 . S
C1533 H1575 0.930 . S
C1534 C1535 1.348 . S
C1534 C1536 1.356 . S
C1534 O1559 1.325 . S
C1535 C1534 1.348 . S
C1535 C1537 1.353 . S
C1535 H1576 0.929 . S
C1536 C1534 1.356 . S
C1536 C1538 1.358 . S
C1536 H1577 0.930 . S
C1537 C1535 1.353 . S
C1537 N1539 1.314 . S
C1537 H1578 0.930 . S
C1538 C1536 1.358 . S
C1538 N1539 1.279 . S
C1538 H1579 0.930 . S
N1539 C1537 1.314 . S
N1539 C1538 1.279 . S
C1540 C1542 1.353 . S
C1540 N1543 1.314 . S
C1540 H1546 0.930 . S
C1541 N1543 1.279 1_545 S
C1541 C1544 1.358 . S
C1541 H1547 0.930 . S
C1542 C1540 1.353 . S
C1542 C1545 1.348 1_565 S
C1542 H1580 0.929 . S
N1543 Li1498 1.991 . S
N1543 C1540 1.314 . S
N1543 C1541 1.279 1_565 S
C1544 C1541 1.358 . S
C1544 C1545 1.356 . S
C1544 H1581 0.930 . S
C1545 C1542 1.348 1_545 S
C1545 C1544 1.356 . S
H1546 C1540 0.930 . S
H1547 C1541 0.930 . S
C1548 N1549 1.314 . S
C1548 C1550 1.353 . S
C1548 H1554 0.930 . S
N1549 Li1499 1.990 . S
N1549 C1548 1.314 . S
N1549 C1552 1.279 . S
C1550 C1548 1.353 . S
C1550 C1553 1.348 . S
C1550 H1582 0.929 . S
C1551 C1552 1.358 . S
C1551 C1553 1.356 . S
C1551 H1583 0.930 . S
C1552 N1549 1.279 . S
C1552 C1551 1.358 . S
C1552 H1555 0.930 . S
C1553 C1550 1.348 . S
C1553 C1551 1.356 . S
H1554 C1548 0.930 . S
H1555 C1552 0.930 . S
O1556 Li1496 1.956 . S
O1556 Li1497 1.976 . S
O1556 Li1498 1.959 . S
O1556 C1500 1.325 . S
O1557 Li1496 1.989 . S
O1557 Li1497 1.947 . S
O1557 Li1499 1.946 1_565 S
O1557 C1506 1.325 . S
O1558 Li1496 1.961 1_545 S
O1558 Li1498 1.954 1_545 S
O1558 Li1499 1.970 . S
O1558 C1528 1.325 . S
O1559 Li1497 1.956 1_545 S
O1559 Li1498 1.973 1_545 S
O1559 Li1499 1.956 . S
O1559 C1534 1.325 . S
H1560 C1502 0.929 . S
H1561 C1503 0.930 . S
H1562 C1504 0.930 . S
H1563 C1505 0.930 . S
H1564 C1507 0.930 . S
H1565 C1509 0.929 . S
H1566 C1510 0.930 . S
H1567 C1511 0.930 . S
H1568 C1514 0.930 . S
H1569 C1517 0.929 . S
H1570 C1522 0.929 . S
H1571 C1523 0.930 . S
H1572 C1530 0.929 . S
H1573 C1531 0.930 . S
H1574 C1532 0.930 . S
H1575 C1533 0.930 . S
H1576 C1535 0.929 . S
H1577 C1536 0.930 . S
H1578 C1537 0.930 . S
H1579 C1538 0.930 . S
H1580 C1542 0.929 . S
H1581 C1544 0.930 . S
H1582 C1550 0.929 . S
H1583 C1551 0.930 . S
C1584 C1585 1.387 1_556 S
C1584 H1588 0.950 . S
C1584 C1593 1.390 1_545 S
C1585 C1584 1.387 1_554 S
C1585 C1587 1.387 . S
H1586 C1593 0.950 . S
C1587 C1585 1.387 . S
C1587 C1589 1.390 1_545 S
C1587 H1591 0.950 . S
H1588 C1584 0.950 . S
C1589 C1587 1.390 1_565 S
C1589 C1590 1.387 1_554 S
C1589 H1592 0.950 . S
C1590 C1589 1.387 1_556 S
C1590 C1593 1.387 . S
H1591 C1587 0.950 . S
H1592 C1589 0.950 . S
C1593 C1584 1.390 1_565 S
C1593 H1586 0.950 . S
C1593 C1590 1.387 . S
C1594 C1595 1.387 1_455 S
C1594 H1598 0.950 . S
C1594 C1603 1.390 1_554 S
C1595 C1594 1.387 1_655 S
C1595 C1597 1.387 . S
H1596 C1603 0.950 . S
C1597 C1595 1.387 . S
C1597 C1599 1.390 1_554 S
C1597 H1601 0.950 . S
H1598 C1594 0.950 . S
C1599 C1597 1.390 1_556 S
C1599 C1600 1.387 1_655 S
C1599 H1602 0.950 . S
C1600 C1599 1.387 1_455 S
C1600 C1603 1.387 . S
H1601 C1597 0.950 . S
H1602 C1599 0.950 . S
C1603 C1594 1.390 1_556 S
C1603 H1596 0.950 . S
C1603 C1600 1.387 . S
C1604 C1605 1.353 1_554 S
C1604 H1608 0.954 . S
C1604 C1613 1.422 . S
C1605 C1604 1.353 1_556 S
C1605 C1607 1.387 . S
H1606 C1613 0.950 . S
C1607 C1605 1.387 . S
C1607 C1609 1.390 . S
C1607 H1611 0.950 . S
H1608 C1604 0.954 . S
C1609 C1607 1.390 . S
C1609 C1610 1.387 1_556 S
C1609 H1612 0.950 . S
C1610 C1609 1.387 1_554 S
C1610 C1613 1.387 . S
H1611 C1607 0.950 . S
H1612 C1609 0.950 . S
C1613 C1604 1.422 . S
C1613 H1606 0.950 . S
C1613 C1610 1.387 . S
C1614 C1615 1.387 . S
C1614 H1618 0.950 . S
C1614 C1623 1.390 . S
C1615 C1614 1.387 . S
C1615 C1617 1.387 . S
H1616 C1623 0.950 . S
C1617 C1615 1.387 . S
C1617 C1619 1.390 . S
C1617 H1621 0.950 . S
H1618 C1614 0.950 . S
C1619 C1617 1.390 . S
C1619 C1620 1.387 . S
C1619 H1622 0.950 . S
C1620 C1619 1.387 . S
C1620 C1623 1.387 . S
H1621 C1617 0.950 . S
H1622 C1619 0.950 . S
C1623 C1614 1.390 . S
C1623 H1616 0.950 . S
C1623 C1620 1.387 . S
C1624 C1625 1.387 . S
C1624 H1628 0.950 . S
C1624 C1633 1.390 . S
C1625 C1624 1.387 . S
C1625 C1627 1.387 . S
H1626 C1633 0.950 . S
C1627 C1625 1.387 . S
C1627 C1629 1.390 . S
C1627 H1631 0.950 . S
H1628 C1624 0.950 . S
C1629 C1627 1.390 . S
C1629 C1630 1.387 . S
C1629 H1632 0.950 . S
C1630 C1629 1.387 . S
C1630 C1633 1.387 . S
H1631 C1627 0.950 . S
H1632 C1629 0.950 . S
C1633 C1624 1.390 . S
C1633 H1626 0.950 . S
C1633 C1630 1.387 . S
C1634 C1635 1.387 . S
C1634 H1638 0.950 . S
C1634 C1643 1.390 . S
C1635 C1634 1.387 . S
C1635 C1637 1.387 . S
H1636 C1643 0.950 . S
C1637 C1635 1.387 . S
C1637 C1639 1.390 . S
C1637 H1641 0.950 . S
H1638 C1634 0.950 . S
C1639 C1637 1.390 . S
C1639 C1640 1.387 . S
C1639 H1642 0.950 . S
C1640 C1639 1.387 . S
C1640 C1643 1.387 . S
H1641 C1637 0.950 . S
H1642 C1639 0.950 . S
C1643 C1634 1.390 . S
C1643 H1636 0.950 . S
C1643 C1640 1.387 . S
C1644 C1645 1.387 . S
C1644 H1648 0.950 . S
C1644 C1653 1.390 . S
C1645 C1644 1.387 . S
C1645 C1647 1.387 . S
H1646 C1653 0.950 . S
C1647 C1645 1.387 . S
C1647 C1649 1.390 . S
C1647 H1651 0.950 . S
H1648 C1644 0.950 . S
C1649 C1647 1.390 . S
C1649 C1650 1.387 . S
C1649 H1652 0.950 . S
C1650 C1649 1.387 . S
C1650 C1653 1.387 . S
H1651 C1647 0.950 . S
H1652 C1649 0.950 . S
C1653 C1644 1.390 . S
C1653 H1646 0.950 . S
C1653 C1650 1.387 . S
C1654 C1655 1.387 . S
C1654 H1658 0.950 . S
C1654 C1663 1.390 . S
C1655 C1654 1.387 . S
C1655 C1657 1.387 . S
H1656 C1663 0.950 . S
C1657 C1655 1.387 . S
C1657 C1659 1.390 . S
C1657 H1661 0.950 . S
H1658 C1654 0.950 . S
C1659 C1657 1.390 . S
C1659 C1660 1.387 . S
C1659 H1662 0.950 . S
C1660 C1659 1.387 . S
C1660 C1663 1.387 . S
H1661 C1657 0.950 . S
H1662 C1659 0.950 . S
C1663 C1654 1.390 . S
C1663 H1656 0.950 . S
C1663 C1660 1.387 . S
C1664 C1665 1.387 . S
C1664 H1668 0.950 . S
C1664 C1673 1.390 . S
C1665 C1664 1.387 . S
C1665 C1667 1.387 . S
H1666 C1673 0.950 . S
C1667 C1665 1.387 . S
C1667 C1669 1.390 . S
C1667 H1671 0.950 . S
H1668 C1664 0.950 . S
C1669 C1667 1.390 . S
C1669 C1670 1.387 . S
C1669 H1672 0.950 . S
C1670 C1669 1.387 . S
C1670 C1673 1.387 . S
H1671 C1667 0.950 . S
H1672 C1669 0.950 . S
C1673 C1664 1.390 . S
C1673 H1666 0.950 . S
C1673 C1670 1.387 . S
C1674 C1675 1.387 . S
C1674 H1678 0.950 . S
C1674 C1683 1.390 . S
C1675 C1674 1.387 . S
C1675 C1677 1.387 . S
H1676 C1683 0.950 . S
C1677 C1675 1.387 . S
C1677 C1679 1.390 . S
C1677 H1681 0.950 . S
H1678 C1674 0.950 . S
C1679 C1677 1.390 . S
C1679 C1680 1.387 . S
C1679 H1682 0.950 . S
C1680 C1679 1.387 . S
C1680 C1683 1.387 . S
H1681 C1677 0.950 . S
H1682 C1679 0.950 . S
C1683 C1674 1.390 . S
C1683 H1676 0.950 . S
C1683 C1680 1.387 . S
C1684 C1685 1.387 . S
C1684 H1688 0.950 . S
C1684 C1693 1.390 . S
C1685 C1684 1.387 . S
C1685 C1687 1.387 . S
H1686 C1693 0.950 . S
C1687 C1685 1.387 . S
C1687 C1689 1.390 . S
C1687 H1691 0.950 . S
H1688 C1684 0.950 . S
C1689 C1687 1.390 . S
C1689 C1690 1.387 . S
C1689 H1692 0.950 . S
C1690 C1689 1.387 . S
C1690 C1693 1.387 . S
H1691 C1687 0.950 . S
H1692 C1689 0.950 . S
C1693 C1684 1.390 . S
C1693 H1686 0.950 . S
C1693 C1690 1.387 . S
C1694 C1695 1.387 . S
C1694 H1698 0.950 . S
C1694 C1703 1.390 . S
C1695 C1694 1.387 . S
C1695 C1697 1.387 . S
H1696 C1703 0.950 . S
C1697 C1695 1.387 . S
C1697 C1699 1.390 . S
C1697 H1701 0.950 . S
H1698 C1694 0.950 . S
C1699 C1697 1.390 . S
C1699 C1700 1.387 . S
C1699 H1702 0.950 . S
C1700 C1699 1.387 . S
C1700 C1703 1.387 . S
H1701 C1697 0.950 . S
H1702 C1699 0.950 . S
C1703 C1694 1.390 . S
C1703 H1696 0.950 . S
C1703 C1700 1.387 . S
C1704 C1705 1.387 . S
C1704 H1708 0.950 . S
C1704 C1713 1.390 . S
C1705 C1704 1.387 . S
C1705 C1707 1.387 . S
H1706 C1713 0.950 . S
C1707 C1705 1.387 . S
C1707 C1709 1.390 . S
C1707 H1711 0.950 . S
H1708 C1704 0.950 . S
C1709 C1707 1.390 . S
C1709 C1710 1.387 . S
C1709 H1712 0.950 . S
C1710 C1709 1.387 . S
C1710 C1713 1.387 . S
H1711 C1707 0.950 . S
H1712 C1709 0.950 . S
C1713 C1704 1.390 . S
C1713 H1706 0.950 . S
C1713 C1710 1.387 . S
C1714 C1715 1.387 . S
C1714 H1718 0.950 . S
C1714 C1723 1.390 . S
C1715 C1714 1.387 . S
C1715 C1717 1.387 . S
H1716 C1723 0.950 . S
C1717 C1715 1.387 . S
C1717 C1719 1.390 . S
C1717 H1721 0.950 . S
H1718 C1714 0.950 . S
C1719 C1717 1.390 . S
C1719 C1720 1.387 . S
C1719 H1722 0.950 . S
C1720 C1719 1.387 . S
C1720 C1723 1.387 . S
H1721 C1717 0.950 . S
H1722 C1719 0.950 . S
C1723 C1714 1.390 . S
C1723 H1716 0.950 . S
C1723 C1720 1.387 . S
C1724 C1725 1.387 . S
C1724 H1728 0.950 . S
C1724 C1733 1.390 . S
C1725 C1724 1.387 . S
C1725 C1727 1.387 . S
H1726 C1733 0.950 . S
C1727 C1725 1.387 . S
C1727 C1729 1.390 . S
C1727 H1731 0.950 . S
H1728 C1724 0.950 . S
C1729 C1727 1.390 . S
C1729 C1730 1.387 . S
C1729 H1732 0.950 . S
C1730 C1729 1.387 . S
C1730 C1733 1.387 . S
H1731 C1727 0.950 . S
H1732 C1729 0.950 . S
C1733 C1724 1.390 . S
C1733 H1726 0.950 . S
C1733 C1730 1.387 . S
C1734 C1735 1.382 1_655 S
C1734 H1738 0.946 . S
C1734 C1743 1.399 . S
C1735 C1734 1.382 1_455 S
C1735 C1737 1.387 . S
H1736 C1743 0.950 . S
C1737 C1735 1.387 . S
C1737 C1739 1.390 . S
C1737 H1741 0.950 . S
H1738 C1734 0.946 . S
C1739 C1737 1.390 . S
C1739 C1740 1.389 . S
C1739 H1742 0.950 . S
C1740 C1739 1.389 . S
C1740 C1743 1.389 1_455 S
H1741 C1737 0.950 . S
H1742 C1739 0.950 . S
C1743 C1734 1.399 . S
C1743 H1736 0.950 . S
C1743 C1740 1.389 1_655 S
C1744 C1745 1.387 . S
C1744 H1748 0.950 . S
C1744 C1753 1.390 . S
C1745 C1744 1.387 . S
C1745 C1747 1.387 . S
H1746 C1753 0.950 . S
C1747 C1745 1.387 . S
C1747 C1749 1.390 . S
C1747 H1751 0.950 . S
H1748 C1744 0.950 . S
C1749 C1747 1.390 . S
C1749 C1750 1.387 . S
C1749 H1752 0.950 . S
C1750 C1749 1.387 . S
C1750 C1753 1.387 . S
H1751 C1747 0.950 . S
H1752 C1749 0.950 . S
C1753 C1744 1.390 . S
C1753 H1746 0.950 . S
C1753 C1750 1.387 . S
C1754 C1755 1.387 1_565 S
C1754 H1758 0.950 . S
C1754 C1763 1.390 . S
C1755 C1754 1.387 1_545 S
C1755 C1757 1.387 . S
H1756 C1763 0.950 . S
C1757 C1755 1.387 . S
C1757 C1759 1.390 . S
C1757 H1761 0.950 . S
H1758 C1754 0.950 . S
C1759 C1757 1.390 . S
C1759 C1760 1.383 1_545 S
C1759 H1762 0.950 . S
C1760 C1759 1.383 1_565 S
C1760 C1763 1.396 . S
H1761 C1757 0.950 . S
H1762 C1759 0.950 . S
C1763 C1754 1.390 . S
C1763 H1756 0.950 . S
C1763 C1760 1.396 . S
C1764 C1765 1.387 . S
C1764 H1768 0.950 . S
C1764 C1773 1.390 . S
C1765 C1764 1.387 . S
C1765 C1767 1.387 . S
H1766 C1773 0.950 . S
C1767 C1765 1.387 . S
C1767 C1769 1.390 . S
C1767 H1771 0.950 . S
H1768 C1764 0.950 . S
C1769 C1767 1.390 . S
C1769 C1770 1.387 . S
C1769 H1772 0.950 . S
C1770 C1769 1.387 . S
C1770 C1773 1.387 . S
H1771 C1767 0.950 . S
H1772 C1769 0.950 . S
C1773 C1764 1.390 . S
C1773 H1766 0.950 . S
C1773 C1770 1.387 . S
C1774 C1775 1.387 . S
C1774 H1778 0.950 . S
C1774 C1783 1.390 . S
C1775 C1774 1.387 . S
C1775 C1777 1.387 . S
H1776 C1783 0.950 . S
C1777 C1775 1.387 . S
C1777 C1779 1.390 . S
C1777 H1781 0.950 . S
H1778 C1774 0.950 . S
C1779 C1777 1.390 . S
C1779 C1780 1.387 . S
C1779 H1782 0.950 1_554 S
C1780 C1779 1.387 . S
C1780 C1783 1.387 . S
H1781 C1777 0.950 . S
H1782 C1779 0.950 1_556 S
C1783 C1774 1.390 . S
C1783 H1776 0.950 . S
C1783 C1780 1.387 . S
C1784 C1785 1.387 . S
C1784 H1788 0.950 . S
C1784 C1793 1.390 . S
C1785 C1784 1.387 . S
C1785 C1787 1.387 . S
H1786 C1793 0.950 . S
C1787 C1785 1.387 . S
C1787 C1789 1.390 . S
C1787 H1791 0.950 . S
H1788 C1784 0.950 . S
C1789 C1787 1.390 . S
C1789 C1790 1.387 . S
C1789 H1792 0.950 . S
C1790 C1789 1.387 . S
C1790 C1793 1.387 . S
H1791 C1787 0.950 . S
H1792 C1789 0.950 . S
C1793 C1784 1.390 . S
C1793 H1786 0.950 . S
C1793 C1790 1.387 . S
C1794 C1795 1.387 . S
C1794 H1798 0.950 . S
C1794 C1803 1.390 . S
C1795 C1794 1.387 . S
C1795 C1797 1.387 . S
H1796 C1803 0.950 . S
C1797 C1795 1.387 . S
C1797 C1799 1.390 . S
C1797 H1801 0.950 . S
H1798 C1794 0.950 . S
C1799 C1797 1.390 . S
C1799 C1800 1.387 . S
C1799 H1802 0.950 . S
C1800 C1799 1.387 . S
C1800 C1803 1.387 . S
H1801 C1797 0.950 . S
H1802 C1799 0.950 . S
C1803 C1794 1.390 . S
C1803 H1796 0.950 . S
C1803 C1800 1.387 . S
C1804 C1805 1.387 . S
C1804 H1808 0.950 1_556 S
C1804 C1813 1.390 . S
C1805 C1804 1.387 . S
C1805 C1807 1.387 . S
H1806 C1813 0.950 . S
C1807 C1805 1.387 . S
C1807 C1809 1.390 . S
C1807 H1811 0.950 . S
H1808 C1804 0.950 1_554 S
C1809 C1807 1.390 . S
C1809 C1810 1.387 . S
C1809 H1812 0.950 . S
C1810 C1809 1.387 . S
C1810 C1813 1.387 . S
H1811 C1807 0.950 . S
H1812 C1809 0.950 . S
C1813 C1804 1.390 . S
C1813 H1806 0.950 . S
C1813 C1810 1.387 . S
C1814 C1815 1.387 . S
C1814 H1818 0.950 . S
C1814 C1823 1.390 . S
C1815 C1814 1.387 . S
C1815 C1817 1.387 . S
H1816 C1823 0.950 . S
C1817 C1815 1.387 . S
C1817 C1819 1.390 . S
C1817 H1821 0.950 . S
H1818 C1814 0.950 . S
C1819 C1817 1.390 . S
C1819 C1820 1.387 . S
C1819 H1822 0.950 . S
C1820 C1819 1.387 . S
C1820 C1823 1.387 . S
H1821 C1817 0.950 . S
H1822 C1819 0.950 . S
C1823 C1814 1.390 . S
C1823 H1816 0.950 . S
C1823 C1820 1.387 . S
C1824 C1825 1.387 . S
C1824 H1828 0.950 . S
C1824 C1833 1.390 . S
C1825 C1824 1.387 . S
C1825 C1827 1.387 . S
H1826 C1833 0.950 . S
C1827 C1825 1.387 . S
C1827 C1829 1.390 . S
C1827 H1831 0.950 . S
H1828 C1824 0.950 . S
C1829 C1827 1.390 . S
C1829 C1830 1.387 . S
C1829 H1832 0.950 . S
C1830 C1829 1.387 . S
C1830 C1833 1.387 . S
H1831 C1827 0.950 . S
H1832 C1829 0.950 . S
C1833 C1824 1.390 . S
C1833 H1826 0.950 . S
C1833 C1830 1.387 . S
C1834 C1835 1.387 . S
C1834 H1838 0.950 . S
C1834 C1843 1.390 . S
C1835 C1834 1.387 . S
C1835 C1837 1.387 . S
H1836 C1843 0.950 . S
C1837 C1835 1.387 . S
C1837 C1839 1.390 . S
C1837 H1841 0.950 . S
H1838 C1834 0.950 . S
C1839 C1837 1.390 . S
C1839 C1840 1.387 . S
C1839 H1842 0.950 . S
C1840 C1839 1.387 . S
C1840 C1843 1.387 . S
H1841 C1837 0.950 . S
H1842 C1839 0.950 . S
C1843 C1834 1.390 . S
C1843 H1836 0.950 . S
C1843 C1840 1.387 . S
C1844 C1845 1.387 . S
C1844 H1848 0.950 . S
C1844 C1853 1.390 . S
C1845 C1844 1.387 . S
C1845 C1847 1.387 . S
H1846 C1853 0.950 . S
C1847 C1845 1.387 . S
C1847 C1849 1.390 . S
C1847 H1851 0.950 . S
H1848 C1844 0.950 . S
C1849 C1847 1.390 . S
C1849 C1850 1.387 . S
C1849 H1852 0.950 . S
C1850 C1849 1.387 . S
C1850 C1853 1.387 . S
H1851 C1847 0.950 . S
H1852 C1849 0.950 . S
C1853 C1844 1.390 . S
C1853 H1846 0.950 . S
C1853 C1850 1.387 . S
C1854 C1855 1.387 . S
C1854 H1858 0.950 . S
C1854 C1863 1.390 . S
C1855 C1854 1.387 . S
C1855 C1857 1.387 . S
H1856 C1863 0.950 . S
C1857 C1855 1.387 . S
C1857 C1859 1.390 . S
C1857 H1861 0.950 . S
H1858 C1854 0.950 . S
C1859 C1857 1.390 . S
C1859 C1860 1.387 . S
C1859 H1862 0.950 . S
C1860 C1859 1.387 . S
C1860 C1863 1.387 . S
H1861 C1857 0.950 . S
H1862 C1859 0.950 . S
C1863 C1854 1.390 . S
C1863 H1856 0.950 . S
C1863 C1860 1.387 . S
C1864 C1865 1.392 . S
C1864 H1868 0.946 1_545 S
C1864 C1873 1.389 1_545 S
C1865 C1864 1.392 . S
C1865 C1867 1.387 . S
H1866 C1873 0.950 . S
C1867 C1865 1.387 . S
C1867 C1869 1.390 . S
C1867 H1871 0.950 . S
H1868 C1864 0.946 1_565 S
C1869 C1867 1.390 . S
C1869 C1870 1.402 . S
C1869 H1872 0.950 . S
C1870 C1869 1.402 . S
C1870 C1873 1.378 1_545 S
H1871 C1867 0.950 . S
H1872 C1869 0.950 . S
C1873 C1864 1.389 1_565 S
C1873 H1866 0.950 . S
C1873 C1870 1.378 1_565 S
C1874 C1875 1.387 . S
C1874 H1878 0.950 . S
C1874 C1883 1.390 . S
C1875 C1874 1.387 . S
C1875 C1877 1.387 . S
H1876 C1883 0.950 . S
C1877 C1875 1.387 . S
C1877 C1879 1.390 1_655 S
C1877 H1881 0.950 1_655 S
H1878 C1874 0.950 . S
C1879 C1877 1.390 1_455 S
C1879 C1880 1.387 1_455 S
C1879 H1882 0.950 . S
C1880 C1879 1.387 1_655 S
C1880 C1883 1.387 . S
H1881 C1877 0.950 1_455 S
H1882 C1879 0.950 . S
C1883 C1874 1.390 . S
C1883 H1876 0.950 . S
C1883 C1880 1.387 . S
C1884 C1885 1.387 . S
C1884 H1888 0.950 . S
C1884 C1893 1.390 . S
C1885 C1884 1.387 . S
C1885 C1887 1.387 . S
H1886 C1893 0.950 . S
C1887 C1885 1.387 . S
C1887 C1889 1.390 . S
C1887 H1891 0.950 . S
H1888 C1884 0.950 . S
C1889 C1887 1.390 . S
C1889 C1890 1.387 . S
C1889 H1892 0.950 . S
C1890 C1889 1.387 . S
C1890 C1893 1.387 . S
H1891 C1887 0.950 . S
H1892 C1889 0.950 . S
C1893 C1884 1.390 . S
C1893 H1886 0.950 . S
C1893 C1890 1.387 . S
C1894 C1895 1.387 1_545 S
C1894 H1898 0.950 . S
C1894 C1903 1.390 . S
C1895 C1894 1.387 1_565 S
C1895 C1897 1.387 . S
H1896 C1903 0.950 . S
C1897 C1895 1.387 . S
C1897 C1899 1.390 . S
C1897 H1901 0.950 . S
H1898 C1894 0.950 . S
C1899 C1897 1.390 . S
C1899 C1900 1.387 . S
C1899 H1902 0.950 . S
C1900 C1899 1.387 . S
C1900 C1903 1.387 1_565 S
H1901 C1897 0.950 . S
H1902 C1899 0.950 . S
C1903 C1894 1.390 . S
C1903 H1896 0.950 . S
C1903 C1900 1.387 1_545 S
C1904 C1905 1.387 . S
C1904 H1908 0.950 . S
C1904 C1913 1.390 . S
C1905 C1904 1.387 . S
C1905 C1907 1.387 . S
H1906 C1913 0.950 . S
C1907 C1905 1.387 . S
C1907 C1909 1.404 . S
C1907 H1911 0.950 . S
H1908 C1904 0.950 . S
C1909 C1907 1.404 . S
C1909 C1910 1.374 . S
C1909 H1912 0.950 1_455 S
C1910 C1909 1.374 . S
C1910 C1913 1.387 . S
H1911 C1907 0.950 . S
H1912 C1909 0.950 1_655 S
C1913 C1904 1.390 . S
C1913 H1906 0.950 . S
C1913 C1910 1.387 . S
C1914 C1915 1.387 . S
C1914 H1918 0.950 . S
C1914 C1923 1.390 . S
C1915 C1914 1.387 . S
C1915 C1917 1.387 . S
H1916 C1923 0.950 . S
C1917 C1915 1.387 . S
C1917 C1919 1.390 . S
C1917 H1921 0.950 . S
H1918 C1914 0.950 . S
C1919 C1917 1.390 . S
C1919 C1920 1.387 . S
C1919 H1922 0.950 . S
C1920 C1919 1.387 . S
C1920 C1923 1.387 . S
H1921 C1917 0.950 . S
H1922 C1919 0.950 . S
C1923 C1914 1.390 . S
C1923 H1916 0.950 . S
C1923 C1920 1.387 . S
C1924 C1925 1.387 . S
C1924 H1928 0.950 . S
C1924 C1933 1.390 . S
C1925 C1924 1.387 . S
C1925 C1927 1.387 . S
H1926 C1933 0.950 . S
C1927 C1925 1.387 . S
C1927 C1929 1.390 . S
C1927 H1931 0.950 . S
H1928 C1924 0.950 . S
C1929 C1927 1.390 . S
C1929 C1930 1.387 . S
C1929 H1932 0.950 . S
C1930 C1929 1.387 . S
C1930 C1933 1.387 . S
H1931 C1927 0.950 . S
H1932 C1929 0.950 . S
C1933 C1924 1.390 . S
C1933 H1926 0.950 . S
C1933 C1930 1.387 . S
C1934 C1935 1.387 . S
C1934 H1938 0.950 . S
C1934 C1943 1.390 . S
C1935 C1934 1.387 . S
C1935 C1937 1.387 . S
H1936 C1943 0.950 . S
C1937 C1935 1.387 . S
C1937 C1939 1.390 . S
C1937 H1941 0.950 . S
H1938 C1934 0.950 . S
C1939 C1937 1.390 . S
C1939 C1940 1.387 . S
C1939 H1942 0.950 . S
C1940 C1939 1.387 . S
C1940 C1943 1.387 . S
H1941 C1937 0.950 . S
H1942 C1939 0.950 . S
C1943 C1934 1.390 . S
C1943 H1936 0.950 . S
C1943 C1940 1.387 . S
C1585 C49 2.006 . S
C1590 C284 2.026 . S
C1595 C108 2.035 . S
C1600 C401 2.055 . S
C1605 C489 2.045 . S
C1610 C233 2.059 . S
C1615 C577 2.009 . S
C1620 C821 2.033 . S
C1625 C636 2.015 . S
C1630 C929 2.032 . S
C1635 C1017 2.008 . S
C1640 C761 2.022 . S
C1645 C1340 2.029 . S
C1650 C1105 2.011 . S
C1655 C1465 2.037 . S
C1660 C1173 2.014 . S
C1665 C1553 2.007 . S
C1670 C1281 2.021 . S
C1675 C29 2.857 . S
C1680 C849 2.848 . S
C1685 C145 2.851 . S
C1690 C900 2.852 . S
C1695 C1025 2.938 . S
C1700 C205 2.935 . S
C1705 C313 2.852 . S
C1710 C1085 2.851 . S
C1715 C372 2.850 . S
C1720 C1193 2.853 . S
C1725 C497 2.937 . S
C1730 C1252 2.936 . S
C1735 C557 2.898 . S
C1740 C1369 2.899 1_455 S
C1745 C673 2.923 . S
C1750 C1437 2.920 . S
C1755 C1545 2.819 . S
C1760 C733 2.812 . S
C1765 C57 0.597 . S
C1770 C381 0.510 . S
C1775 C117 0.582 . S
C1780 C460 0.491 1_554 S
C1785 C196 0.617 . S
C1790 C321 0.520 . S
C1795 C293 0.618 . S
C1800 C137 0.497 . S
C1805 C225 0.524 . S
C1810 C409 0.614 . S
C1815 C469 0.624 . S
C1820 C20 0.544 . S
C1825 C585 0.592 . S
C1830 C909 0.524 . S
C1835 C988 0.534 . S
C1840 C645 0.614 . S
C1845 C841 0.450 . S
C1850 C724 0.559 . S
C1855 C665 0.494 . S
C1860 C812 0.610 . S
C1865 C937 0.622 . S
C1870 C753 0.564 . S
C1875 C997 0.636 . S
C1880 C548 0.571 . S
C1885 C1428 0.512 . S
C1890 C1113 0.599 . S
C1895 C1525 0.520 . S
C1900 C1164 0.587 . S
C1905 C1261 0.641 . S
C1910 C1377 0.557 . S
C1915 C1201 0.509 . S
C1920 C1349 0.611 . S
C1925 C1289 0.541 . S
C1930 C1457 0.635 . S
C1935 C1076 0.475 . S
C1940 C1516 0.558 . S
