# Generated by pormake.
# Topology umj, (4)-cn, num edge types: 1
# Building blocks:
#     Node 0, Type 0, BuildingBlock: QUQFOY_clean_sbu_1, # of connection points: 4
#     Node 1, Type 0, BuildingBlock: QUQFOY_clean_sbu_1, # of connection points: 4
#     Node 2, Type 0, BuildingBlock: QUQFOY_clean_sbu_1, # of connection points: 4
#     Node 3, Type 0, BuildingBlock: QUQFOY_clean_sbu_1, # of connection points: 4
#     Node 4, Type 0, BuildingBlock: QUQFOY_clean_sbu_1, # of connection points: 4
#     Node 5, Type 0, BuildingBlock: QUQFOY_clean_sbu_1, # of connection points: 4
#     Node 6, Type 0, BuildingBlock: QUQFOY_clean_sbu_1, # of connection points: 4
#     Node 7, Type 0, BuildingBlock: QUQFOY_clean_sbu_1, # of connection points: 4
#     Node 8, Type 0, BuildingBlock: QUQFOY_clean_sbu_1, # of connection points: 4
#     Node 9, Type 0, BuildingBlock: QUQFOY_clean_sbu_1, # of connection points: 4
#     Node 10, Type 0, BuildingBlock: QUQFOY_clean_sbu_1, # of connection points: 4
#     Node 11, Type 0, BuildingBlock: QUQFOY_clean_sbu_1, # of connection points: 4
#     Edge 12, Type (0, 0), BuildingBlock: KIFKEQ_clean_linker_1, # of connection points: 2
#     Edge 13, Type (0, 0), BuildingBlock: KIFKEQ_clean_linker_1, # of connection points: 2
#     Edge 14, Type (0, 0), BuildingBlock: KIFKEQ_clean_linker_1, # of connection points: 2
#     Edge 15, Type (0, 0), BuildingBlock: KIFKEQ_clean_linker_1, # of connection points: 2
#     Edge 16, Type (0, 0), BuildingBlock: KIFKEQ_clean_linker_1, # of connection points: 2
#     Edge 17, Type (0, 0), BuildingBlock: KIFKEQ_clean_linker_1, # of connection points: 2
#     Edge 18, Type (0, 0), BuildingBlock: KIFKEQ_clean_linker_1, # of connection points: 2
#     Edge 19, Type (0, 0), BuildingBlock: KIFKEQ_clean_linker_1, # of connection points: 2
#     Edge 20, Type (0, 0), BuildingBlock: KIFKEQ_clean_linker_1, # of connection points: 2
#     Edge 21, Type (0, 0), BuildingBlock: KIFKEQ_clean_linker_1, # of connection points: 2
#     Edge 22, Type (0, 0), BuildingBlock: KIFKEQ_clean_linker_1, # of connection points: 2
#     Edge 23, Type (0, 0), BuildingBlock: KIFKEQ_clean_linker_1, # of connection points: 2
#     Edge 24, Type (0, 0), BuildingBlock: KIFKEQ_clean_linker_1, # of connection points: 2
#     Edge 25, Type (0, 0), BuildingBlock: KIFKEQ_clean_linker_1, # of connection points: 2
#     Edge 26, Type (0, 0), BuildingBlock: KIFKEQ_clean_linker_1, # of connection points: 2
#     Edge 27, Type (0, 0), BuildingBlock: KIFKEQ_clean_linker_1, # of connection points: 2
#     Edge 28, Type (0, 0), BuildingBlock: KIFKEQ_clean_linker_1, # of connection points: 2
#     Edge 29, Type (0, 0), BuildingBlock: KIFKEQ_clean_linker_1, # of connection points: 2
#     Edge 30, Type (0, 0), BuildingBlock: KIFKEQ_clean_linker_1, # of connection points: 2
#     Edge 31, Type (0, 0), BuildingBlock: KIFKEQ_clean_linker_1, # of connection points: 2
#     Edge 32, Type (0, 0), BuildingBlock: KIFKEQ_clean_linker_1, # of connection points: 2
#     Edge 33, Type (0, 0), BuildingBlock: KIFKEQ_clean_linker_1, # of connection points: 2
#     Edge 34, Type (0, 0), BuildingBlock: KIFKEQ_clean_linker_1, # of connection points: 2
#     Edge 35, Type (0, 0), BuildingBlock: KIFKEQ_clean_linker_1, # of connection points: 2
# Relax obj value: 0.075
# Max RMSD: 0.415
# Mean RMSD: 0.259
data_MOF--net-umj--node1-QUQFOY_clean_sbu_1--edge1-KIFKEQ_clean_linker_1
_symmetry_space_group_name_H-M    P1
_symmetry_Int_Tables_number       1
_symmetry_cell_setting            triclinic
loop_
_symmetry_equiv_pos_as_xyz
'x, y, z'
_cell_length_a     30.064043
_cell_length_b     30.000336
_cell_length_c     85.403743
_cell_angle_alpha  85.437504
_cell_angle_beta   91.420994
_cell_angle_gamma 119.8223
loop_
_atom_site_label
_atom_site_type_symbol
_atom_site_fract_x
_atom_site_fract_y
_atom_site_fract_z
_atom_type_partial_charge
O0 O 0.02457 0.30217 0.1075 0.0
Cd1 Cd 1.00854 0.29633 0.08414 0.0
Cd2 Cd 0.11027 0.31967 0.08327 0.0
O3 O 0.10922 0.3395 0.10635 0.0
O4 O 0.95483 0.31828 0.08055 0.0
O5 O 0.03495 0.36459 0.07202 0.0
C6 C 0.99111 0.36115 0.07404 0.0
C7 C 0.15535 0.36799 0.06031 0.0
C8 C 0.06767 0.32387 0.1142 0.0
C9 C 0.02936 0.2125 0.0762 0.0
O10 O 0.07499 0.24242 0.08038 0.0
O11 O 0.99614 0.22741 0.07537 0.0
O12 O 0.17792 0.35381 0.07103 0.0
O13 O 0.10999 0.3592 0.06349 0.0
O14 O 0.7786 0.99499 0.44226 0.0
Cd15 Cd 0.77598 1.00128 0.41856 0.0
Cd16 Cd 0.84456 0.09791 0.41984 0.0
O17 O 0.80824 0.07885 0.44239 0.0
O18 O 0.70394 0.96047 0.40967 0.0
O19 O 0.74028 0.04223 0.41453 0.0
C20 C 0.70087 1.00197 0.40991 0.0
C21 C 0.84087 0.14262 0.39632 0.0
C22 C 0.78877 0.03393 0.4497 0.0
C23 C 0.88745 0.03751 0.41069 0.0
O24 O 0.89738 0.07582 0.41837 0.0
O25 O 0.84094 0.00618 0.40715 0.0
O26 O 0.86783 0.16781 0.40791 0.0
O27 O 0.81533 0.09324 0.39832 0.0
O28 O 0.78333 0.73721 0.78172 0.0
Cd29 Cd 0.78028 0.73491 0.75813 0.0
Cd30 Cd 0.75052 0.80254 0.75756 0.0
O31 O 0.72711 0.76441 0.78049 0.0
O32 O 0.75301 0.66292 0.75043 0.0
O33 O 0.70493 0.69813 0.75356 0.0
C34 C 0.70834 0.65947 0.74969 0.0
C35 C 0.70816 0.79717 0.73357 0.0
C36 C 0.75199 0.74633 0.78857 0.0
C37 C 0.85623 0.848 0.74904 0.0
O38 O 0.82518 0.85705 0.75607 0.0
O39 O 0.84275 0.80156 0.74623 0.0
O40 O 0.70462 0.82285 0.7445 0.0
O41 O 0.73447 0.77447 0.73639 0.0
O42 O 0.02919 0.78369 0.11535 0.0
Cd43 Cd 0.01749 0.77802 0.09216 0.0
Cd44 Cd 0.92217 0.75064 0.09631 0.0
O45 O 0.94543 0.7328 0.11883 0.0
O46 O 0.05419 0.74716 0.08099 0.0
O47 O 0.97565 0.70105 0.09085 0.0
C48 C 0.01329 0.70263 0.08354 0.0
C49 C 0.88419 0.70527 0.07387 0.0
C50 C 0.99088 0.75556 0.12442 0.0
C51 C 0.97747 0.85444 0.08445 0.0
O52 O 0.93857 0.82422 0.09304 0.0
O53 O 1.01001 0.84072 0.08091 0.0
O54 O 0.85604 0.69949 0.08594 0.0
O55 O 0.93274 0.7357 0.07464 0.0
O56 O 0.30752 0.03386 0.44453 0.0
Cd57 Cd 0.30439 0.0234 0.42144 0.0
Cd58 Cd 0.23859 0.92839 0.42703 0.0
O59 O 0.27826 0.95008 0.44879 0.0
O60 O 0.373 0.06005 0.4094 0.0
O61 O 0.33934 0.98103 0.42061 0.0
C62 C 0.3766 0.01911 0.41277 0.0
C63 C 0.24602 0.89422 0.40371 0.0
C64 C 0.29848 0.99515 0.45392 0.0
C65 C 0.18954 0.98291 0.41569 0.0
O66 O 0.18159 0.94486 0.42521 0.0
O67 O 0.23538 0.01508 0.41072 0.0
O68 O 0.22454 0.86405 0.41624 0.0
O69 O 0.26453 0.94277 0.40468 0.0
O70 O 0.28184 0.26019 0.77674 0.0
Cd71 Cd 0.29036 0.2625 0.75339 0.0
Cd72 Cd 0.31771 0.19447 0.75787 0.0
O73 O 0.33621 0.23083 0.77961 0.0
O74 O 0.3213 0.33576 0.74306 0.0
O75 O 0.36709 0.29865 0.75015 0.0
C76 C 0.36575 0.33882 0.74438 0.0
C77 C 0.3604 0.2038 0.73378 0.0
C78 C 0.31122 0.25028 0.7854 0.0
C79 C 0.21447 0.1495 0.74835 0.0
O80 O 0.2436 0.13956 0.75716 0.0
O81 O 0.22926 0.19636 0.74325 0.0
O82 O 0.36664 0.17925 0.74604 0.0
O83 O 0.33211 0.22409 0.73542 0.0
O84 O 0.77596 0.01648 0.57536 0.0
Cd85 Cd 0.78633 0.02843 0.59887 0.0
Cd86 Cd 0.76218 0.92381 0.59928 0.0
O87 O 0.74632 0.93238 0.57557 0.0
O88 O 0.76319 0.07992 0.60308 0.0
O89 O 0.72198 0.99802 0.61172 0.0
C90 C 0.72327 0.04156 0.61007 0.0
C91 C 0.7082 0.86712 0.61968 0.0
C92 C 0.75814 0.97564 0.56814 0.0
C93 C 0.86964 1.00445 0.60862 0.0
O94 O 0.83831 0.9589 0.60508 0.0
O95 O 0.85643 0.03903 0.60794 0.0
O96 O 0.72962 0.85165 0.61017 0.0
O97 O 0.71383 0.91224 0.61659 0.0
O98 O 0.73667 0.75682 0.9136 0.0
Cd99 Cd 0.72435 0.75691 0.93693 0.0
Cd100 Cd 0.79949 0.7297 0.9393 0.0
O101 O 0.77589 0.71073 0.91604 0.0
O102 O 0.64803 0.72756 0.94163 0.0
O103 O 0.68982 0.6852 0.94664 0.0
C104 C 0.64693 0.68488 0.9463 0.0
C105 C 0.80349 0.68076 0.96167 0.0
C106 C 0.75467 0.73171 0.90746 0.0
C107 C 0.82808 0.8372 0.94662 0.0
O108 O 0.84261 0.8068 0.94234 0.0
O109 O 0.78039 0.82321 0.94721 0.0
O110 O 0.83821 0.69758 0.95069 0.0
O111 O 0.76497 0.68766 0.95921 0.0
O112 O 0.0264 0.76887 0.24899 0.0
Cd113 Cd 0.03543 0.76499 0.27231 0.0
Cd114 Cd 0.12991 0.83452 0.26882 0.0
O115 O 0.11018 0.80088 0.24658 0.0
O116 O 0.99934 0.69186 0.28292 0.0
O117 O 0.07964 0.7321 0.27436 0.0
C118 C 0.04133 0.69096 0.28066 0.0
C119 C 0.16623 0.82348 0.29276 0.0
C120 C 0.06542 0.78092 0.24049 0.0
C121 C 0.07132 0.87671 0.27894 0.0
O122 O 0.11054 0.88906 0.27051 0.0
O123 O 0.03968 0.82915 0.28299 0.0
O124 O 0.19531 0.84926 0.28063 0.0
O125 O 0.1175 0.80231 0.291 0.0
O126 O 0.29943 0.01566 0.57779 0.0
Cd127 Cd 0.30429 0.01988 0.60114 0.0
Cd128 Cd 0.33033 0.11528 0.59746 0.0
O129 O 0.35134 0.10007 0.57541 0.0
O130 O 0.33639 0.9795 0.61195 0.0
O131 O 0.38062 0.06229 0.60425 0.0
C132 C 0.38026 0.02165 0.61045 0.0
C133 C 0.36986 0.14556 0.62173 0.0
C134 C 0.32873 0.05639 0.56934 0.0
C135 C 0.22632 0.05562 0.60672 0.0
O136 O 0.25631 0.09659 0.59846 0.0
O137 O 0.2406 0.02268 0.61106 0.0
O138 O 0.37781 0.17767 0.60963 0.0
O139 O 0.34187 0.0973 0.61982 0.0
O140 O 0.26739 0.25049 0.90962 0.0
Cd141 Cd 0.25955 0.25953 0.93218 0.0
Cd142 Cd 0.19586 0.2912 0.92607 0.0
O143 O 0.23724 0.30391 0.9043 0.0
O144 O 0.32527 0.29448 0.94505 0.0
O145 O 0.29411 0.33747 0.93116 0.0
C146 C 0.32954 0.3384 0.94009 0.0
C147 C 0.20857 0.33521 0.94924 0.0
C148 C 0.2588 0.27919 0.89975 0.0
C149 C 0.14139 0.18833 0.93787 0.0
O150 O 0.13481 0.22017 0.92882 0.0
O151 O 0.18685 0.19937 0.94217 0.0
O152 O 0.19079 0.34771 0.93671 0.0
O153 O 0.22011 0.29962 0.94843 0.0
O154 O 0.06775 0.29924 0.24071 0.0
Cd155 Cd 0.06454 0.29871 0.26439 0.0
Cd156 Cd 0.96526 0.22659 0.2624 0.0
O157 O 0.98324 0.2636 0.23923 0.0
O158 O 0.10584 0.36874 0.27362 0.0
O159 O 0.02397 0.33315 0.26789 0.0
C160 C 0.06409 0.37128 0.27313 0.0
C161 C 0.91674 0.22632 0.28368 0.0
C162 C 0.02777 0.28647 0.23255 0.0
C163 C 0.02976 0.18633 0.27467 0.0
O164 O 0.98936 0.17501 0.26697 0.0
O165 O 0.06218 0.23337 0.27684 0.0
O166 O 0.89392 0.19847 0.27209 0.0
O167 O 0.96563 0.25512 0.28276 0.0
H168 H 0.11643 0.34842 0.21575 0.0
H169 H 0.9538 0.24901 0.20997 0.0
H170 H 0.12879 0.36325 0.1874 0.0
H171 H 0.96635 0.26251 0.1815 0.0
H172 H 0.99478 0.32744 0.13126 0.0
H173 H 0.98633 0.32295 0.15961 0.0
H174 H 0.12954 0.32258 0.16471 0.0
H175 H 0.13873 0.32885 0.13608 0.0
C176 C 0.08318 0.32962 0.20843 0.0
C177 C 0.03401 0.29741 0.21519 0.0
C178 C 0.09042 0.33788 0.19211 0.0
C179 C 0.04875 0.31398 0.18204 0.0
C180 C 0.99939 0.28229 0.18882 0.0
C181 C 0.99209 0.2743 0.20518 0.0
C182 C 0.02486 0.32699 0.13842 0.0
C183 C 0.06736 0.32822 0.1314 0.0
C184 C 0.01972 0.32392 0.15473 0.0
C185 C 0.05668 0.32143 0.16458 0.0
C186 C 0.10036 0.32474 0.15755 0.0
C187 C 0.10576 0.32836 0.14112 0.0
H188 H 0.82722 0.10592 0.47167 0.0
H189 H 0.72752 0.94346 0.46676 0.0
H190 H 0.81593 0.09004 0.50019 0.0
H191 H 0.71472 0.92778 0.49506 0.0
H192 H 0.75299 0.90937 0.54677 0.0
H193 H 0.75771 0.92381 0.51817 0.0
H194 H 0.75876 0.06728 0.52169 0.0
H195 H 0.75591 0.05364 0.55016 0.0
C196 C 0.80226 0.06699 0.47666 0.0
C197 C 0.7786 0.02601 0.46693 0.0
C198 C 0.79557 0.05778 0.49303 0.0
C199 C 0.7646 0.00742 0.50004 0.0
C200 C 0.73974 0.96683 0.4902 0.0
C201 C 0.74682 0.97595 0.47391 0.0
C202 C 0.75361 0.94363 0.54141 0.0
C203 C 0.75436 0.98041 0.55077 0.0
C204 C 0.75624 0.95199 0.52498 0.0
C205 C 0.75912 0.99708 0.51752 0.0
C206 C 0.75786 0.03277 0.52694 0.0
C207 C 0.75575 0.02467 0.54332 0.0
H208 H 0.68309 0.75145 0.80803 0.0
H209 H 0.80983 0.72183 0.80867 0.0
H210 H 0.67898 0.74133 0.83671 0.0
H211 H 0.80728 0.71399 0.83712 0.0
H212 H 0.77187 0.66943 0.88921 0.0
H213 H 0.76522 0.66641 0.86063 0.0
H214 H 0.72495 0.78648 0.85808 0.0
H215 H 0.72955 0.78794 0.88632 0.0
C216 C 0.71003 0.74279 0.81426 0.0
C217 C 0.74687 0.73772 0.80599 0.0
C218 C 0.70797 0.73728 0.83074 0.0
C219 C 0.74309 0.72717 0.83937 0.0
C220 C 0.77907 0.72096 0.83101 0.0
C221 C 0.78077 0.72592 0.8146 0.0
C222 C 0.76138 0.69492 0.88251 0.0
C223 C 0.75121 0.7288 0.89012 0.0
C224 C 0.75771 0.6934 0.8661 0.0
C225 C 0.74429 0.7261 0.85692 0.0
C226 C 0.73416 0.75981 0.86464 0.0
C227 C 0.7373 0.76095 0.88094 0.0
H228 H 0.92383 0.73107 0.14915 0.0
H229 H 0.07956 0.77159 0.13835 0.0
H230 H 0.94329 0.73468 0.17709 0.0
H231 H 0.09858 0.7729 0.16618 0.0
H232 H 0.13276 0.83175 0.21558 0.0
H233 H 0.11408 0.82195 0.18764 0.0
H234 H 0.96103 0.69716 0.19947 0.0
H235 H 0.97912 0.70884 0.22717 0.0
C236 C 0.9619 0.73967 0.15277 0.0
C237 C 1.00012 0.75127 0.14151 0.0
C238 C 0.9732 0.74165 0.16883 0.0
C239 C 0.02283 0.75448 0.17405 0.0
C240 C 0.06036 0.76413 0.16272 0.0
C241 C 0.04927 0.7629 0.14671 0.0
C242 C 0.09539 0.80195 0.21216 0.0
C243 C 0.05738 0.77142 0.22358 0.0
C244 C 0.08455 0.7961 0.19611 0.0
C245 C 0.03565 0.759 0.19114 0.0
C246 C 0.99857 0.72708 0.2027 0.0
C247 C 1.00915 0.73348 0.21865 0.0
H248 H 0.32314 0.9741 0.55641 0.0
H249 H 0.34685 0.12674 0.54412 0.0
H250 H 0.32221 0.95982 0.52878 0.0
H251 H 0.34335 0.11178 0.51627 0.0
H252 H 0.36586 0.08458 0.46664 0.0
H253 H 0.38029 0.10117 0.49423 0.0
H254 H 0.26949 0.94166 0.50716 0.0
H255 H 0.2571 0.9248 0.47946 0.0
C256 C 0.3283 1.00477 0.54774 0.0
C257 C 0.3349 0.05153 0.55246 0.0
C258 C 0.32722 0.99636 0.53184 0.0
C259 C 0.33176 0.03413 0.52011 0.0
C260 C 0.3402 0.08177 0.52486 0.0
C261 C 0.34217 0.0905 0.54086 0.0
C262 C 0.34498 0.05287 0.47539 0.0
C263 C 0.31023 1.0033 0.47082 0.0
C264 C 0.35294 0.06253 0.49127 0.0
C265 C 0.32583 0.02306 0.50311 0.0
C266 C 0.29184 0.9731 0.4985 0.0
C267 C 0.28447 0.96328 0.48257 0.0
H268 H 0.30262 0.32649 0.7975 0.0
H269 H 0.32584 0.19812 0.81118 0.0
H270 H 0.29614 0.33905 0.82491 0.0
H271 H 0.31674 0.20875 0.83881 0.0
H272 H 0.3289 0.25743 0.88812 0.0
H273 H 0.34875 0.25578 0.86083 0.0
H274 H 0.23898 0.30333 0.84607 0.0
H275 H 0.22111 0.30729 0.87347 0.0
C276 C 0.30654 0.30098 0.80644 0.0
C277 C 0.3146 0.26118 0.80217 0.0
C278 C 0.30223 0.30783 0.82221 0.0
C279 C 0.30488 0.27444 0.83425 0.0
C280 C 0.31492 0.23569 0.82997 0.0
C281 C 0.32014 0.22942 0.8141 0.0
C282 C 0.30934 0.26805 0.87903 0.0
C283 C 0.2733 0.28245 0.883 0.0
C284 C 0.32045 0.26666 0.86332 0.0
C285 C 0.29533 0.27895 0.85106 0.0
C286 C 0.25992 0.29435 0.85507 0.0
C287 C 0.24937 0.29647 0.87083 0.0
H288 H 0.10785 0.38495 0.03485 0.0
H289 H 0.24903 0.3893 0.04862 0.0
H290 H 0.13047 0.39119 1.00747 0.0
H291 H 0.27359 0.39896 0.02101 0.0
H292 H 0.25215 0.31889 0.97559 0.0
H293 H 0.24916 0.34227 1.00171 0.0
H294 H 0.17591 0.42851 0.98399 0.0
H295 H 0.17659 0.40226 0.9576 0.0
C296 C 0.14468 0.38899 0.03203 0.0
C297 C 0.17617 0.38555 0.04399 0.0
C298 C 0.15791 0.39296 0.0162 0.0
C299 C 0.20346 0.39442 0.01183 0.0
C300 C 0.23735 0.39616 0.02384 0.0
C301 C 0.22363 0.39125 0.03972 0.0
C302 C 0.23577 0.3433 0.97716 0.0
C303 C 0.21371 0.35788 0.96449 0.0
C304 C 0.23465 0.3574 0.99225 0.0
C305 C 0.21196 0.38717 0.99521 0.0
C306 C 0.19279 0.40466 0.98231 0.0
C307 C 0.1935 0.39001 0.96712 0.0
H308 H 0.76453 0.11094 0.37508 0.0
H309 H 0.92102 0.22867 0.38177 0.0
H310 H 0.77209 0.1386 0.34721 0.0
H311 H 0.92996 0.25486 0.35377 0.0
H312 H 0.94061 0.30146 0.30336 0.0
H313 H 0.91325 0.29007 0.3307 0.0
H314 H 0.80993 0.12812 0.32548 0.0
H315 H 0.83558 0.14064 0.29794 0.0
C316 C 0.80036 0.14345 0.37059 0.0
C317 C 0.8423 0.16757 0.38055 0.0
C318 C 0.80493 0.15897 0.35456 0.0
C319 C 0.85196 0.19831 0.34801 0.0
C320 C 0.89287 0.22476 0.35826 0.0
C321 C 0.88791 0.2098 0.37439 0.0
C322 C 0.91076 0.26381 0.30798 0.0
C323 C 0.89027 0.22185 0.29856 0.0
C324 C 0.89553 0.25707 0.32373 0.0
C325 C 0.86019 0.20791 0.33056 0.0
C326 C 0.8369 0.16674 0.32073 0.0
C327 C 0.85151 0.17377 0.30487 0.0
H328 H 0.67652 0.72101 0.71383 0.0
H329 H 0.69359 0.87135 0.71739 0.0
H330 H 0.6585 0.72522 0.686 0.0
H331 H 0.67832 0.87717 0.6893 0.0
H332 H 0.6447 0.87974 0.63882 0.0
H333 H 0.62788 0.8526 0.66672 0.0
H334 H 0.70947 0.76866 0.6637 0.0
H335 H 0.72418 0.79408 0.63576 0.0
C336 C 0.67555 0.7547 0.70867 0.0
C337 C 0.68675 0.79603 0.71774 0.0
C338 C 0.66575 0.75737 0.69265 0.0
C339 C 0.66799 0.80197 0.6852 0.0
C340 C 0.67577 0.84192 0.69456 0.0
C341 C 0.68467 0.83878 0.7107 0.0
C342 C 0.65754 0.85406 0.64405 0.0
C343 C 0.68608 0.83929 0.63511 0.0
C344 C 0.64844 0.83901 0.66011 0.0
C345 C 0.6682 0.80931 0.66766 0.0
C346 C 0.69317 0.79117 0.65839 0.0
C347 C 0.70169 0.80572 0.64228 0.0
H348 H 0.92825 0.67201 0.05402 0.0
H349 H 0.7938 0.68592 0.06001 0.0
H350 H 0.9037 0.64844 0.02729 0.0
H351 H 0.77046 0.66558 0.03286 0.0
H352 H 0.89362 0.70082 0.97558 0.0
H353 H 0.90745 0.69303 1.00356 0.0
H354 H 0.74354 0.61221 0.01215 0.0
H355 H 0.73021 0.62251 0.98413 0.0
C356 C 0.89288 0.6692 0.04964 0.0
C357 C 0.86296 0.68092 0.05905 0.0
C358 C 0.87907 0.6563 0.03422 0.0
C359 C 0.83565 0.65615 0.02763 0.0
C360 C 0.80394 0.66474 0.03745 0.0
C361 C 0.81725 0.67655 0.05305 0.0
C362 C 0.86052 0.68 0.98339 0.0
C363 C 0.81091 0.66265 0.97765 0.0
C364 C 0.86833 0.67545 0.99953 0.0
C365 C 0.82662 0.65269 1.01032 0.0
C366 C 0.77672 0.63127 1.00434 0.0
C367 C 0.769 0.63655 0.98822 0.0
H368 H 0.2661 0.87633 0.3028 0.0
H369 H 0.1118 0.76716 0.31899 0.0
H370 H 0.29475 0.88436 0.33002 0.0
H371 H 0.13941 0.77682 0.34593 0.0
H372 H 0.29867 0.95146 0.37741 0.0
H373 H 0.28681 0.92604 0.35081 0.0
H374 H 0.18344 0.76813 0.36784 0.0
H375 H 0.19373 0.79458 0.3947 0.0
C376 C 0.23849 0.85344 0.31212 0.0
C377 C 0.18656 0.82177 0.3087 0.0
C378 C 0.25474 0.85834 0.32777 0.0
C379 C 0.21932 0.83199 0.34034 0.0
C380 C 0.16813 0.79752 0.33673 0.0
C381 C 0.1521 0.79235 0.32116 0.0
C382 C 0.2739 0.91108 0.37557 0.0
C383 C 0.24633 0.87521 0.38819 0.0
C384 C 0.26749 0.8963 0.36021 0.0
C385 C 0.23356 0.84501 0.35698 0.0
C386 C 0.20901 0.80825 0.36979 0.0
C387 C 0.21523 0.82322 0.38523 0.0
H388 H 0.36393 0.08444 0.64775 0.0
H389 H 0.4152 0.24327 0.63216 0.0
H390 H 0.37614 0.10595 0.6748 0.0
H391 H 0.42983 0.26567 0.65947 0.0
H392 H 0.35961 0.26129 0.70768 0.0
H393 H 0.37641 0.2539 0.68075 0.0
H394 H 0.42564 0.14496 0.69651 0.0
H395 H 0.40639 0.15087 0.72371 0.0
C396 C 0.37905 0.12439 0.65008 0.0
C397 C 0.38768 0.16199 0.63776 0.0
C398 C 0.3866 0.13689 0.6657 0.0
C399 C 0.40342 0.18753 0.66951 0.0
C400 C 0.41573 0.22598 0.65707 0.0
C401 C 0.40781 0.21332 0.64137 0.0
C402 C 0.37469 0.23619 0.70548 0.0
C403 C 0.38076 0.20592 0.71788 0.0
C404 C 0.38491 0.23235 0.68993 0.0
C405 C 0.4019 0.19835 0.68627 0.0
C406 C 0.41153 0.17077 0.6988 0.0
C407 C 0.40096 0.17443 0.71443 0.0
H408 H 0.92539 0.61292 0.07955 0.0
H409 H 0.09001 0.68212 0.07671 0.0
H410 H 0.91555 0.53037 0.07399 0.0
H411 H 0.08048 0.5986 0.07188 0.0
H412 H 0.91993 0.38035 0.08654 0.0
H413 H 0.92416 0.46346 0.08668 0.0
H414 H 0.05606 0.53165 0.05525 0.0
H415 H 0.05287 0.44881 0.05571 0.0
C416 C 0.95962 0.61047 0.07772 0.0
C417 C 1.00856 0.65406 0.07867 0.0
C418 C 0.95395 0.56286 0.07463 0.0
C419 C 0.99711 0.55713 0.07268 0.0
C420 C 0.04619 0.60132 0.07312 0.0
C421 C 0.05182 0.64931 0.07597 0.0
C422 C 0.94903 0.41279 0.07936 0.0
C423 C 0.98612 0.40792 0.07117 0.0
C424 C 0.9516 0.46073 0.07942 0.0
C425 C 0.99098 0.50494 0.07113 0.0
C426 C 0.026 0.49905 0.06211 0.0
C427 C 0.02378 0.45129 0.0622 0.0
H428 H 0.68839 0.0858 0.40912 0.0
H429 H 0.60577 0.92314 0.40225 0.0
H430 H 0.60966 0.08895 0.40682 0.0
H431 H 0.52638 0.92666 0.39922 0.0
H432 H 0.39204 0.93786 0.41965 0.0
H433 H 0.46896 0.93315 0.41576 0.0
H434 H 0.54167 0.08595 0.39197 0.0
H435 H 0.46454 0.09142 0.39653 0.0
C436 C 0.65343 0.05072 0.40681 0.0
C437 C 0.65336 1.00397 0.4061 0.0
C438 C 0.60808 0.0527 0.40532 0.0
C439 C 0.56117 0.00803 0.40295 0.0
C440 C 0.56153 0.96171 0.40136 0.0
C441 C 0.6071 0.95967 0.40297 0.0
C442 C 0.42422 0.97045 0.41347 0.0
C443 C 0.42226 0.01537 0.40859 0.0
C444 C 0.46842 0.96748 0.41108 0.0
C445 C 0.51203 0.00919 0.4036 0.0
C446 C 0.50926 0.05334 0.39804 0.0
C447 C 0.46494 0.05646 0.40056 0.0
H448 H 0.3863 0.43806 0.74601 0.0
H449 H 0.45622 0.34854 0.73519 0.0
H450 H 0.47042 0.51552 0.74515 0.0
H451 H 0.54013 0.4261 0.73341 0.0
H452 H 0.68617 0.55857 0.75307 0.0
H453 H 0.60332 0.48209 0.74934 0.0
H454 H 0.54196 0.57944 0.7317 0.0
H455 H 0.62358 0.65518 0.73641 0.0
C456 C 0.41955 0.4353 0.74294 0.0
C457 C 0.41468 0.38726 0.74073 0.0
C458 C 0.46806 0.47981 0.74242 0.0
C459 C 0.51284 0.4775 0.73938 0.0
C460 C 0.50716 0.4296 0.73622 0.0
C461 C 0.45885 0.38508 0.73705 0.0
C462 C 0.65507 0.56339 0.7482 0.0
C463 C 0.66131 0.61282 0.74513 0.0
C464 C 0.60739 0.5195 0.74598 0.0
C465 C 0.5651 0.52407 0.74035 0.0
C466 C 0.5727 0.57388 0.73647 0.0
C467 C 0.61987 0.61752 0.739 0.0
H468 H 0.40198 0.94254 0.61386 0.0
H469 H 0.47083 0.10697 0.616 0.0
H470 H 0.48664 0.9502 0.61632 0.0
H471 H 0.55497 0.11463 0.619 0.0
H472 H 0.69918 0.11639 0.60052 0.0
H473 H 0.61635 0.11166 0.60314 0.0
H474 H 0.55949 0.96779 0.63167 0.0
H475 H 0.64177 0.97186 0.62858 0.0
C476 C 0.43502 0.98012 0.61525 0.0
C477 C 0.42969 0.02413 0.61459 0.0
C478 C 0.48372 0.98464 0.61669 0.0
C479 C 0.52816 0.03325 0.61767 0.0
C480 C 0.5221 0.07677 0.61788 0.0
C481 C 0.47365 0.07229 0.61629 0.0
C482 C 0.66936 0.08436 0.60763 0.0
C483 C 0.67714 0.04448 0.61427 0.0
C484 C 0.62165 0.08154 0.60917 0.0
C485 C 0.5806 0.03894 0.61749 0.0
C486 C 0.58955 1.00057 0.62487 0.0
C487 C 0.63706 1.00322 0.62324 0.0
H488 H 0.35008 0.43336 0.92802 0.0
H489 H 0.40855 0.3583 0.96069 0.0
H490 H 0.42367 0.5162 0.93225 0.0
H491 H 0.48196 0.44237 0.96561 0.0
H492 H 0.63613 0.58973 0.95305 0.0
H493 H 0.55825 0.50691 0.95381 0.0
H494 H 0.46872 0.58363 0.94808 0.0
H495 H 0.54764 0.6671 0.94644 0.0
C496 C 0.37838 0.43458 0.93634 0.0
C497 C 0.37351 0.3889 0.94391 0.0
C498 C 0.42063 0.48254 0.93892 0.0
C499 C 0.45929 0.48667 0.94931 0.0
C500 C 0.4536 0.44098 0.9573 0.0
C501 C 0.41134 0.39265 0.95457 0.0
C502 C 0.59984 0.58914 0.95213 0.0
C503 C 0.59831 0.6353 0.94949 0.0
C504 C 0.55482 0.54126 0.9527 0.0
C505 C 0.50667 0.53793 0.95083 0.0
C506 C 0.505 0.58431 0.94916 0.0
C507 C 0.55027 0.63237 0.94839 0.0
H508 H 0.12562 0.68184 0.27641 0.0
H509 H 0.96733 0.59364 0.29203 0.0
H510 H 0.13129 0.60407 0.27754 0.0
H511 H 0.97363 0.51517 0.29392 0.0
H512 H 0.98149 0.38525 0.27122 0.0
H513 H 0.97659 0.46081 0.27629 0.0
H514 H 0.13403 0.53505 0.29141 0.0
H515 H 0.13953 0.45936 0.28556 0.0
C516 C 0.09216 0.64583 0.28043 0.0
C517 C 0.0457 0.64394 0.28391 0.0
C518 C 0.09562 0.60101 0.28122 0.0
C519 C 0.05286 0.55286 0.28568 0.0
C520 C 1.00714 0.55135 0.29009 0.0
C521 C 1.00353 0.59638 0.28915 0.0
C522 C 0.01515 0.41751 0.27571 0.0
C523 C 0.06121 0.41645 0.27777 0.0
C524 C 0.0121 0.46089 0.27882 0.0
C525 C 0.05488 0.5045 0.28425 0.0
C526 C 0.10047 0.50263 0.28696 0.0
C527 C 0.10367 0.45916 0.28369 0.0
H528 H 0.94157 0.12212 0.0847 0.0
H529 H 0.08812 0.18317 0.06133 0.0
H530 H 0.92838 0.03512 0.08439 0.0
H531 H 0.07404 0.0964 0.06 0.0
H532 H 0.06728 0.94645 0.08004 0.0
H533 H 0.07683 0.03213 0.0757 0.0
H534 H 0.91222 0.96357 0.07194 0.0
H535 H 0.90309 0.87857 0.07728 0.0
C536 C 0.97014 0.11666 0.07901 0.0
C537 C 0.01588 0.15935 0.0731 0.0
C538 C 0.96272 0.06667 0.07879 0.0
C539 C 1.00048 0.05812 0.07235 0.0
C540 C 0.0447 0.10102 0.06551 0.0
C541 C 0.05254 0.15089 0.06607 0.0
C542 C 0.03334 0.94987 0.07804 0.0
C543 C 0.98451 0.90586 0.0791 0.0
C544 C 0.03864 0.9991 0.07549 0.0
C545 C 0.99521 0.00546 0.0736 0.0
C546 C 0.94657 0.96086 0.07378 0.0
C547 C 0.9413 0.91189 0.07667 0.0
H548 H 0.88439 0.94967 0.40159 0.0
H549 H 0.98907 0.10777 0.41085 0.0
H550 H 0.95738 0.93559 0.39885 0.0
H551 H 0.06106 0.09357 0.40856 0.0
H552 H 0.18909 0.06451 0.3984 0.0
H553 H 0.11524 0.07659 0.39298 0.0
H554 H 0.01569 0.92785 0.41708 0.0
H555 H 0.08849 0.91534 0.42209 0.0
C556 C 0.92286 0.98155 0.4028 0.0
C557 C 0.93073 0.02959 0.40665 0.0
C558 C 0.96474 0.97347 0.40134 0.0
C559 C 0.0153 0.01333 0.40363 0.0
C560 C 0.023 0.06206 0.40656 0.0
C561 C 0.98141 0.07004 0.40804 0.0
C562 C 0.15132 0.03415 0.40232 0.0
C563 C 0.145 0.9893 0.41085 0.0
C564 C 0.10894 0.0411 0.39927 0.0
C565 C 0.05932 1.00331 0.40467 0.0
C566 C 0.05296 0.95755 0.41255 0.0
C567 C 0.09508 0.95065 0.41558 0.0
H568 H 0.17996 0.04702 0.75466 0.0
H569 H 0.13285 0.15244 0.73362 0.0
H570 H 0.09462 0.97522 0.75156 0.0
H571 H 0.04677 0.07956 0.73008 0.0
H572 H 0.88893 0.95014 0.75015 0.0
H573 H 0.97523 0.02241 0.74681 0.0
H574 H 0.02889 0.91979 0.73476 0.0
H575 H 0.94176 0.84644 0.73857 0.0
C576 C 0.15153 0.05494 0.74914 0.0
C577 C 0.16333 0.10588 0.74457 0.0
C578 C 0.10244 0.01337 0.7472 0.0
C579 C 0.06339 0.02125 0.74061 0.0
C580 C 0.07565 0.072 0.73541 0.0
C581 C 0.12509 0.11385 0.73735 0.0
C582 C 0.91889 0.94274 0.74663 0.0
C583 C 0.9083 0.89211 0.74484 0.0
C584 C 0.96858 0.98458 0.74456 0.0
C585 C 1.00944 0.97726 0.74059 0.0
C586 C 0.99854 0.92688 0.73805 0.0
C587 C 0.94852 0.88479 0.74013 0.0
H588 H 0.95983 0.09353 0.60097 0.0
H589 H 0.89925 0.94134 0.62427 0.0
H590 H 0.04619 0.10563 0.60263 0.0
H591 H 0.9855 0.9541 0.62687 0.0
H592 H 0.1346 0.96471 0.60978 0.0
H593 H 0.04929 0.95452 0.61242 0.0
H594 H 0.11766 0.11854 0.61638 0.0
H595 H 0.20214 0.12852 0.61275 0.0
C596 C 0.96523 0.06334 0.60692 0.0
C597 C 0.92275 0.01649 0.61244 0.0
C598 C 0.01491 0.07014 0.60791 0.0
C599 C 0.02346 0.03058 0.61474 0.0
C600 C 0.98087 0.98497 0.62111 0.0
C601 C 0.93128 0.97785 0.61982 0.0
C602 C 0.1312 0.99832 0.61144 0.0
C603 C 0.17501 0.04738 0.61094 0.0
C604 C 0.08219 0.99265 0.61301 0.0
C605 C 0.07586 0.03583 0.61446 0.0
C606 C 0.12029 0.08447 0.61484 0.0
C607 C 0.16899 0.09018 0.61293 0.0
H608 H 0.83332 0.92881 0.93679 0.0
H609 H 0.91541 0.86435 0.96283 0.0
H610 H 0.90878 0.0144 0.93679 0.0
H611 H 0.98984 0.94993 0.96389 0.0
H612 H 0.13474 0.09404 0.94405 0.0
H613 H 0.05706 0.01065 0.9485 0.0
H614 H 0.96693 0.0869 0.94831 0.0
H615 H 0.04435 0.1695 0.94282 0.0
C616 C 0.86696 0.93334 0.94303 0.0
C617 C 0.8685 0.88999 0.9498 0.0
C618 C 0.91054 0.98255 0.94306 0.0
C619 C 0.95644 0.98972 0.95015 0.0
C620 C 0.95626 0.94635 0.95786 0.0
C621 C 0.91321 0.89718 0.95748 0.0
C622 C 0.09833 0.09283 0.94516 0.0
C623 C 0.09567 0.13828 0.94298 0.0
C624 C 0.05348 0.04489 0.9478 0.0
C625 C 1.00486 0.04125 0.94867 0.0
C626 C 1.00298 0.08738 0.94729 0.0
C627 C 0.0476 0.13503 0.9443 0.0
H628 H 0.14242 0.96828 0.28917 0.0
H629 H 0.98218 0.88013 0.27825 0.0
H630 H 0.13347 0.04333 0.29238 0.0
H631 H 0.97338 0.95595 0.28026 0.0
H632 H 0.9603 0.09299 0.28823 0.0
H633 H 0.9698 0.01726 0.29351 0.0
H634 H 0.12793 0.10674 0.27739 0.0
H635 H 0.11875 0.18304 0.27329 0.0
C636 C 0.10506 0.96501 0.2876 0.0
C637 C 0.06295 0.91851 0.28348 0.0
C638 C 0.09998 0.00827 0.28923 0.0
C639 C 0.05293 0.00668 0.28629 0.0
C640 C 1.01019 0.9591 0.28285 0.0
C641 C 0.01506 0.91537 0.28164 0.0
C642 C 0.99742 0.09652 0.28623 0.0
C643 C 0.03884 0.14378 0.28038 0.0
C644 C 1.00277 0.05289 0.28904 0.0
C645 C 0.04936 0.05495 0.28562 0.0
C646 C 0.09152 0.10318 0.28042 0.0
C647 C 0.08642 0.1472 0.27801 0.0
loop_
_geom_bond_atom_site_label_1
_geom_bond_atom_site_label_2
_geom_bond_distance
_geom_bond_site_symmetry_2
_ccdc_geom_bond_type
O0 Cd1 2.223 . S
O0 C8 1.315 1_655 S
Cd1 O0 2.223 . S
Cd1 O4 2.297 . S
Cd1 O5 2.439 . S
Cd1 O11 2.240 . S
Cd2 O3 2.240 . S
Cd2 O10 2.223 . S
Cd2 O12 2.297 . S
Cd2 O13 2.439 . S
O3 Cd2 2.240 . S
O3 C8 1.279 . S
O4 Cd1 2.297 . S
O4 C6 1.247 . S
O5 Cd1 2.439 . S
O5 C6 1.208 . S
C6 O4 1.247 . S
C6 O5 1.208 . S
C7 O12 1.247 . S
C7 O13 1.208 . S
C8 O0 1.315 1_455 S
C8 O3 1.279 . S
C9 O10 1.315 1_655 S
C9 O11 1.279 . S
O10 Cd2 2.223 . S
O10 C9 1.315 1_455 S
O11 Cd1 2.240 . S
O11 C9 1.279 . S
O12 Cd2 2.297 . S
O12 C7 1.247 . S
O13 Cd2 2.439 . S
O13 C7 1.208 . S
O14 Cd15 2.223 . S
O14 C22 1.315 1_565 S
Cd15 O14 2.223 . S
Cd15 O18 2.297 . S
Cd15 O19 2.439 . S
Cd15 O25 2.240 . S
Cd16 O17 2.240 . S
Cd16 O24 2.223 . S
Cd16 O26 2.297 . S
Cd16 O27 2.439 . S
O17 Cd16 2.240 . S
O17 C22 1.279 . S
O18 Cd15 2.297 . S
O18 C20 1.247 . S
O19 Cd15 2.439 . S
O19 C20 1.208 . S
C20 O18 1.247 . S
C20 O19 1.208 . S
C21 O26 1.247 . S
C21 O27 1.208 . S
C22 O14 1.315 1_545 S
C22 O17 1.279 . S
C23 O24 1.315 1_565 S
C23 O25 1.279 . S
O24 Cd16 2.223 . S
O24 C23 1.315 1_545 S
O25 Cd15 2.240 . S
O25 C23 1.279 . S
O26 Cd16 2.297 . S
O26 C21 1.247 . S
O27 Cd16 2.439 . S
O27 C21 1.208 . S
O28 Cd29 2.223 . S
O28 C36 1.315 . S
Cd29 O28 2.223 . S
Cd29 O32 2.297 . S
Cd29 O33 2.439 . S
Cd29 O39 2.240 . S
Cd30 O31 2.240 . S
Cd30 O38 2.223 . S
Cd30 O40 2.297 . S
Cd30 O41 2.439 . S
O31 Cd30 2.240 . S
O31 C36 1.279 . S
O32 Cd29 2.297 . S
O32 C34 1.247 . S
O33 Cd29 2.439 . S
O33 C34 1.208 . S
C34 O32 1.247 . S
C34 O33 1.208 . S
C35 O40 1.247 . S
C35 O41 1.208 . S
C36 O28 1.315 . S
C36 O31 1.279 . S
C37 O38 1.315 . S
C37 O39 1.279 . S
O38 Cd30 2.223 . S
O38 C37 1.315 . S
O39 Cd29 2.240 . S
O39 C37 1.279 . S
O40 Cd30 2.297 . S
O40 C35 1.247 . S
O41 Cd30 2.439 . S
O41 C35 1.208 . S
O42 Cd43 2.223 . S
O42 C50 1.315 . S
Cd43 O42 2.223 . S
Cd43 O46 2.297 . S
Cd43 O47 2.439 . S
Cd43 O53 2.240 . S
Cd44 O45 2.240 . S
Cd44 O52 2.223 . S
Cd44 O54 2.297 . S
Cd44 O55 2.439 . S
O45 Cd44 2.240 . S
O45 C50 1.279 . S
O46 Cd43 2.297 . S
O46 C48 1.247 . S
O47 Cd43 2.439 . S
O47 C48 1.208 . S
C48 O46 1.247 . S
C48 O47 1.208 . S
C49 O54 1.247 . S
C49 O55 1.208 . S
C50 O42 1.315 . S
C50 O45 1.279 . S
C51 O52 1.315 . S
C51 O53 1.279 . S
O52 Cd44 2.223 . S
O52 C51 1.315 . S
O53 Cd43 2.240 . S
O53 C51 1.279 . S
O54 Cd44 2.297 . S
O54 C49 1.247 . S
O55 Cd44 2.439 . S
O55 C49 1.208 . S
O56 Cd57 2.223 . S
O56 C64 1.315 . S
Cd57 O56 2.223 . S
Cd57 O60 2.297 . S
Cd57 O61 2.439 . S
Cd57 O67 2.240 . S
Cd58 O59 2.240 . S
Cd58 O66 2.223 . S
Cd58 O68 2.297 . S
Cd58 O69 2.439 . S
O59 Cd58 2.240 . S
O59 C64 1.279 . S
O60 Cd57 2.297 . S
O60 C62 1.247 . S
O61 Cd57 2.439 . S
O61 C62 1.208 . S
C62 O60 1.247 . S
C62 O61 1.208 . S
C63 O68 1.247 . S
C63 O69 1.208 . S
C64 O56 1.315 . S
C64 O59 1.279 . S
C65 O66 1.315 . S
C65 O67 1.279 . S
O66 Cd58 2.223 . S
O66 C65 1.315 . S
O67 Cd57 2.240 . S
O67 C65 1.279 . S
O68 Cd58 2.297 . S
O68 C63 1.247 . S
O69 Cd58 2.439 . S
O69 C63 1.208 . S
O70 Cd71 2.223 . S
O70 C78 1.315 . S
Cd71 O70 2.223 . S
Cd71 O74 2.297 . S
Cd71 O75 2.439 . S
Cd71 O81 2.240 . S
Cd72 O73 2.240 . S
Cd72 O80 2.223 . S
Cd72 O82 2.297 . S
Cd72 O83 2.439 . S
O73 Cd72 2.240 . S
O73 C78 1.279 . S
O74 Cd71 2.297 . S
O74 C76 1.247 . S
O75 Cd71 2.439 . S
O75 C76 1.208 . S
C76 O74 1.247 . S
C76 O75 1.208 . S
C77 O82 1.247 . S
C77 O83 1.208 . S
C78 O70 1.315 . S
C78 O73 1.279 . S
C79 O80 1.315 . S
C79 O81 1.279 . S
O80 Cd72 2.223 . S
O80 C79 1.315 . S
O81 Cd71 2.240 . S
O81 C79 1.279 . S
O82 Cd72 2.297 . S
O82 C77 1.247 . S
O83 Cd72 2.439 . S
O83 C77 1.208 . S
O84 Cd85 2.223 . S
O84 C92 1.315 1_545 S
Cd85 O84 2.223 . S
Cd85 O88 2.297 . S
Cd85 O89 2.439 . S
Cd85 O95 2.240 . S
Cd86 O87 2.240 . S
Cd86 O94 2.223 . S
Cd86 O96 2.297 . S
Cd86 O97 2.439 . S
O87 Cd86 2.240 . S
O87 C92 1.279 . S
O88 Cd85 2.297 . S
O88 C90 1.247 . S
O89 Cd85 2.439 . S
O89 C90 1.208 . S
C90 O88 1.247 . S
C90 O89 1.208 . S
C91 O96 1.247 . S
C91 O97 1.208 . S
C92 O84 1.315 1_565 S
C92 O87 1.279 . S
C93 O94 1.315 1_545 S
C93 O95 1.279 . S
O94 Cd86 2.223 . S
O94 C93 1.315 1_565 S
O95 Cd85 2.240 . S
O95 C93 1.279 . S
O96 Cd86 2.297 . S
O96 C91 1.247 . S
O97 Cd86 2.439 . S
O97 C91 1.208 . S
O98 Cd99 2.223 . S
O98 C106 1.315 . S
Cd99 O98 2.223 . S
Cd99 O102 2.297 . S
Cd99 O103 2.439 . S
Cd99 O109 2.240 . S
Cd100 O101 2.240 . S
Cd100 O108 2.223 . S
Cd100 O110 2.297 . S
Cd100 O111 2.439 . S
O101 Cd100 2.240 . S
O101 C106 1.279 . S
O102 Cd99 2.297 . S
O102 C104 1.247 . S
O103 Cd99 2.439 . S
O103 C104 1.208 . S
C104 O102 1.247 . S
C104 O103 1.208 . S
C105 O110 1.247 . S
C105 O111 1.208 . S
C106 O98 1.315 . S
C106 O101 1.279 . S
C107 O108 1.315 . S
C107 O109 1.279 . S
O108 Cd100 2.223 . S
O108 C107 1.315 . S
O109 Cd99 2.240 . S
O109 C107 1.279 . S
O110 Cd100 2.297 . S
O110 C105 1.247 . S
O111 Cd100 2.439 . S
O111 C105 1.208 . S
O112 Cd113 2.223 . S
O112 C120 1.315 . S
Cd113 O112 2.223 . S
Cd113 O116 2.297 . S
Cd113 O117 2.439 . S
Cd113 O123 2.240 . S
Cd114 O115 2.240 . S
Cd114 O122 2.223 . S
Cd114 O124 2.297 . S
Cd114 O125 2.439 . S
O115 Cd114 2.240 . S
O115 C120 1.279 . S
O116 Cd113 2.297 . S
O116 C118 1.247 . S
O117 Cd113 2.439 . S
O117 C118 1.208 . S
C118 O116 1.247 . S
C118 O117 1.208 . S
C119 O124 1.247 . S
C119 O125 1.208 . S
C120 O112 1.315 . S
C120 O115 1.279 . S
C121 O122 1.315 . S
C121 O123 1.279 . S
O122 Cd114 2.223 . S
O122 C121 1.315 . S
O123 Cd113 2.240 . S
O123 C121 1.279 . S
O124 Cd114 2.297 . S
O124 C119 1.247 . S
O125 Cd114 2.439 . S
O125 C119 1.208 . S
O126 Cd127 2.223 . S
O126 C134 1.315 . S
Cd127 O126 2.223 . S
Cd127 O130 2.297 . S
Cd127 O131 2.439 . S
Cd127 O137 2.240 . S
Cd128 O129 2.240 . S
Cd128 O136 2.223 . S
Cd128 O138 2.297 . S
Cd128 O139 2.439 . S
O129 Cd128 2.240 . S
O129 C134 1.279 . S
O130 Cd127 2.297 . S
O130 C132 1.247 . S
O131 Cd127 2.439 . S
O131 C132 1.208 . S
C132 O130 1.247 . S
C132 O131 1.208 . S
C133 O138 1.247 . S
C133 O139 1.208 . S
C134 O126 1.315 . S
C134 O129 1.279 . S
C135 O136 1.315 . S
C135 O137 1.279 . S
O136 Cd128 2.223 . S
O136 C135 1.315 . S
O137 Cd127 2.240 . S
O137 C135 1.279 . S
O138 Cd128 2.297 . S
O138 C133 1.247 . S
O139 Cd128 2.439 . S
O139 C133 1.208 . S
O140 Cd141 2.223 . S
O140 C148 1.315 . S
Cd141 O140 2.223 . S
Cd141 O144 2.297 . S
Cd141 O145 2.439 . S
Cd141 O151 2.240 . S
Cd142 O143 2.240 . S
Cd142 O150 2.223 . S
Cd142 O152 2.297 . S
Cd142 O153 2.439 . S
O143 Cd142 2.240 . S
O143 C148 1.279 . S
O144 Cd141 2.297 . S
O144 C146 1.247 . S
O145 Cd141 2.439 . S
O145 C146 1.208 . S
C146 O144 1.247 . S
C146 O145 1.208 . S
C147 O152 1.247 . S
C147 O153 1.208 . S
C148 O140 1.315 . S
C148 O143 1.279 . S
C149 O150 1.315 . S
C149 O151 1.279 . S
O150 Cd142 2.223 . S
O150 C149 1.315 . S
O151 Cd141 2.240 . S
O151 C149 1.279 . S
O152 Cd142 2.297 . S
O152 C147 1.247 . S
O153 Cd142 2.439 . S
O153 C147 1.208 . S
O154 Cd155 2.223 . S
O154 C162 1.315 1_455 S
Cd155 O154 2.223 . S
Cd155 O158 2.297 . S
Cd155 O159 2.439 . S
Cd155 O165 2.240 . S
Cd156 O157 2.240 . S
Cd156 O164 2.223 . S
Cd156 O166 2.297 . S
Cd156 O167 2.439 . S
O157 Cd156 2.240 . S
O157 C162 1.279 . S
O158 Cd155 2.297 . S
O158 C160 1.247 . S
O159 Cd155 2.439 . S
O159 C160 1.208 . S
C160 O158 1.247 . S
C160 O159 1.208 . S
C161 O166 1.247 . S
C161 O167 1.208 . S
C162 O154 1.315 1_655 S
C162 O157 1.279 . S
C163 O164 1.315 1_455 S
C163 O165 1.279 . S
O164 Cd156 2.223 . S
O164 C163 1.315 1_655 S
O165 Cd155 2.240 . S
O165 C163 1.279 . S
O166 Cd156 2.297 . S
O166 C161 1.247 . S
O167 Cd156 2.439 . S
O167 C161 1.208 . S
H168 C176 0.950 . S
H169 C181 0.950 . S
H170 C178 0.950 . S
H171 C180 0.950 . S
H172 C182 0.950 . S
H173 C184 0.950 . S
H174 C186 0.950 . S
H175 C187 0.950 . S
C176 H168 0.950 . S
C176 C177 1.386 1_455 S
C176 C178 1.391 . S
C177 C176 1.386 1_655 S
C177 C181 1.393 . S
C178 H170 0.950 . S
C178 C176 1.391 . S
C178 C179 1.400 1_455 S
C179 C178 1.400 1_655 S
C179 C180 1.398 . S
C179 C185 1.491 1_655 S
C180 H171 0.950 . S
C180 C179 1.398 . S
C180 C181 1.391 . S
C181 H169 0.950 . S
C181 C177 1.393 . S
C181 C180 1.391 . S
C182 H172 0.950 . S
C182 C183 1.386 1_655 S
C182 C184 1.391 . S
C183 C182 1.386 1_455 S
C183 C187 1.393 . S
C184 H173 0.950 . S
C184 C182 1.391 . S
C184 C185 1.400 1_655 S
C185 C179 1.491 1_455 S
C185 C184 1.400 1_455 S
C185 C186 1.398 . S
C186 H174 0.950 . S
C186 C185 1.398 . S
C186 C187 1.391 . S
C187 H175 0.950 . S
C187 C183 1.393 . S
C187 C186 1.391 . S
H188 C196 0.950 . S
H189 C201 0.950 . S
H190 C198 0.950 . S
H191 C200 0.950 . S
H192 C202 0.950 . S
H193 C204 0.950 . S
H194 C206 0.950 . S
H195 C207 0.950 . S
C196 H188 0.950 . S
C196 C197 1.386 . S
C196 C198 1.391 . S
C197 C196 1.386 . S
C197 C201 1.393 1_545 S
C198 H190 0.950 . S
C198 C196 1.391 . S
C198 C199 1.400 . S
C199 C198 1.400 . S
C199 C200 1.398 1_545 S
C199 C205 1.491 1_545 S
C200 H191 0.950 . S
C200 C199 1.398 1_565 S
C200 C201 1.391 . S
C201 H189 0.950 . S
C201 C197 1.393 1_565 S
C201 C200 1.391 . S
C202 H192 0.950 . S
C202 C203 1.386 . S
C202 C204 1.391 . S
C203 C202 1.386 . S
C203 C207 1.393 1_565 S
C204 H193 0.950 . S
C204 C202 1.391 . S
C204 C205 1.400 . S
C205 C199 1.491 1_565 S
C205 C204 1.400 . S
C205 C206 1.398 1_565 S
C206 H194 0.950 . S
C206 C205 1.398 1_545 S
C206 C207 1.391 . S
C207 H195 0.950 . S
C207 C203 1.393 1_545 S
C207 C206 1.391 . S
H208 C216 0.950 . S
H209 C221 0.950 . S
H210 C218 0.950 . S
H211 C220 0.950 . S
H212 C222 0.950 . S
H213 C224 0.950 . S
H214 C226 0.950 . S
H215 C227 0.950 . S
C216 H208 0.950 . S
C216 C217 1.386 . S
C216 C218 1.391 . S
C217 C216 1.386 . S
C217 C221 1.393 . S
C218 H210 0.950 . S
C218 C216 1.391 . S
C218 C219 1.400 . S
C219 C218 1.400 . S
C219 C220 1.398 . S
C219 C225 1.491 . S
C220 H211 0.950 . S
C220 C219 1.398 . S
C220 C221 1.391 . S
C221 H209 0.950 . S
C221 C217 1.393 . S
C221 C220 1.391 . S
C222 H212 0.950 . S
C222 C223 1.386 . S
C222 C224 1.391 . S
C223 C222 1.386 . S
C223 C227 1.393 . S
C224 H213 0.950 . S
C224 C222 1.391 . S
C224 C225 1.400 . S
C225 C219 1.491 . S
C225 C224 1.400 . S
C225 C226 1.398 . S
C226 H214 0.950 . S
C226 C225 1.398 . S
C226 C227 1.391 . S
C227 H215 0.950 . S
C227 C223 1.393 . S
C227 C226 1.391 . S
H228 C236 0.950 . S
H229 C241 0.950 . S
H230 C238 0.950 . S
H231 C240 0.950 1_455 S
H232 C242 0.950 . S
H233 C244 0.950 . S
H234 C246 0.950 1_655 S
H235 C247 0.950 . S
C236 H228 0.950 . S
C236 C237 1.386 . S
C236 C238 1.391 . S
C237 C236 1.386 . S
C237 C241 1.393 . S
C238 H230 0.950 . S
C238 C236 1.391 . S
C238 C239 1.400 . S
C239 C238 1.400 . S
C239 C240 1.398 . S
C239 C245 1.491 1_655 S
C240 H231 0.950 1_655 S
C240 C239 1.398 . S
C240 C241 1.391 . S
C241 H229 0.950 . S
C241 C237 1.393 . S
C241 C240 1.391 . S
C242 H232 0.950 . S
C242 C243 1.386 . S
C242 C244 1.391 . S
C243 C242 1.386 . S
C243 C247 1.393 . S
C244 H233 0.950 . S
C244 C242 1.391 . S
C244 C245 1.400 . S
C245 C239 1.491 1_455 S
C245 C244 1.400 . S
C245 C246 1.398 . S
C246 H234 0.950 1_455 S
C246 C245 1.398 . S
C246 C247 1.391 . S
C247 H235 0.950 . S
C247 C243 1.393 . S
C247 C246 1.391 . S
H248 C256 0.950 . S
H249 C261 0.950 . S
H250 C258 0.950 1_565 S
H251 C260 0.950 . S
H252 C262 0.950 . S
H253 C264 0.950 1_545 S
H254 C266 0.950 . S
H255 C267 0.950 . S
C256 H248 0.950 . S
C256 C257 1.386 . S
C256 C258 1.391 . S
C257 C256 1.386 . S
C257 C261 1.393 . S
C258 H250 0.950 1_545 S
C258 C256 1.391 . S
C258 C259 1.400 . S
C259 C258 1.400 . S
C259 C260 1.398 . S
C259 C265 1.491 1_545 S
C260 H251 0.950 . S
C260 C259 1.398 . S
C260 C261 1.391 . S
C261 H249 0.950 . S
C261 C257 1.393 . S
C261 C260 1.391 . S
C262 H252 0.950 . S
C262 C263 1.386 . S
C262 C264 1.391 . S
C263 C262 1.386 . S
C263 C267 1.393 . S
C264 H253 0.950 1_565 S
C264 C262 1.391 . S
C264 C265 1.400 . S
C265 C259 1.491 1_565 S
C265 C264 1.400 . S
C265 C266 1.398 . S
C266 H254 0.950 . S
C266 C265 1.398 . S
C266 C267 1.391 . S
C267 H255 0.950 . S
C267 C263 1.393 . S
C267 C266 1.391 . S
H268 C276 0.950 . S
H269 C281 0.950 . S
H270 C278 0.950 . S
H271 C280 0.950 . S
H272 C282 0.950 . S
H273 C284 0.950 . S
H274 C286 0.950 . S
H275 C287 0.950 . S
C276 H268 0.950 . S
C276 C277 1.386 . S
C276 C278 1.391 . S
C277 C276 1.386 . S
C277 C281 1.393 . S
C278 H270 0.950 . S
C278 C276 1.391 . S
C278 C279 1.400 . S
C279 C278 1.400 . S
C279 C280 1.398 . S
C279 C285 1.491 . S
C280 H271 0.950 . S
C280 C279 1.398 . S
C280 C281 1.391 . S
C281 H269 0.950 . S
C281 C277 1.393 . S
C281 C280 1.391 . S
C282 H272 0.950 . S
C282 C283 1.386 . S
C282 C284 1.391 . S
C283 C282 1.386 . S
C283 C287 1.393 . S
C284 H273 0.950 . S
C284 C282 1.391 . S
C284 C285 1.400 . S
C285 C279 1.491 . S
C285 C284 1.400 . S
C285 C286 1.398 . S
C286 H274 0.950 . S
C286 C285 1.398 . S
C286 C287 1.391 . S
C287 H275 0.950 . S
C287 C283 1.393 . S
C287 C286 1.391 . S
H288 C296 0.950 . S
H289 C301 0.950 . S
H290 C298 0.932 1_556 S
H291 C300 0.905 1_556 S
H292 C302 0.950 . S
H293 C304 0.950 . S
H294 C306 0.950 . S
H295 C307 0.950 . S
C296 H288 0.950 . S
C296 C297 1.386 . S
C296 C298 1.391 . S
C297 C296 1.386 . S
C297 C301 1.393 . S
C298 H290 0.932 1_554 S
C298 C296 1.391 . S
C298 C299 1.400 1_554 S
C299 C298 1.400 1_556 S
C299 C300 1.371 1_556 S
C299 C305 1.491 . S
C300 H291 0.905 1_554 S
C300 C299 1.371 1_554 S
C300 C301 1.466 . S
C301 H289 0.950 . S
C301 C297 1.393 . S
C301 C300 1.466 . S
C302 H292 0.950 . S
C302 C303 1.386 . S
C302 C304 1.391 . S
C303 C302 1.386 . S
C303 C307 1.393 . S
C304 H293 0.950 . S
C304 C302 1.391 . S
C304 C305 1.400 . S
C305 C299 1.491 . S
C305 C304 1.400 . S
C305 C306 1.398 . S
C306 H294 0.950 . S
C306 C305 1.398 . S
C306 C307 1.391 . S
C307 H295 0.950 . S
C307 C303 1.393 . S
C307 C306 1.391 . S
H308 C316 0.950 . S
H309 C321 0.950 . S
H310 C318 0.950 . S
H311 C320 0.950 . S
H312 C322 0.950 . S
H313 C324 0.950 . S
H314 C326 0.950 . S
H315 C327 0.950 . S
C316 H308 0.950 . S
C316 C317 1.386 . S
C316 C318 1.391 . S
C317 C316 1.386 . S
C317 C321 1.393 . S
C318 H310 0.950 . S
C318 C316 1.391 . S
C318 C319 1.400 . S
C319 C318 1.400 . S
C319 C320 1.398 . S
C319 C325 1.491 . S
C320 H311 0.950 . S
C320 C319 1.398 . S
C320 C321 1.391 . S
C321 H309 0.950 . S
C321 C317 1.393 . S
C321 C320 1.391 . S
C322 H312 0.950 . S
C322 C323 1.386 . S
C322 C324 1.391 . S
C323 C322 1.386 . S
C323 C327 1.393 . S
C324 H313 0.950 . S
C324 C322 1.391 . S
C324 C325 1.400 . S
C325 C319 1.491 . S
C325 C324 1.400 . S
C325 C326 1.398 . S
C326 H314 0.950 . S
C326 C325 1.398 . S
C326 C327 1.391 . S
C327 H315 0.950 . S
C327 C323 1.393 . S
C327 C326 1.391 . S
H328 C336 0.950 . S
H329 C341 0.950 . S
H330 C338 0.950 . S
H331 C340 0.950 . S
H332 C342 0.950 . S
H333 C344 0.950 . S
H334 C346 0.950 . S
H335 C347 0.950 . S
C336 H328 0.950 . S
C336 C337 1.386 . S
C336 C338 1.391 . S
C337 C336 1.386 . S
C337 C341 1.393 . S
C338 H330 0.950 . S
C338 C336 1.391 . S
C338 C339 1.400 . S
C339 C338 1.400 . S
C339 C340 1.398 . S
C339 C345 1.491 . S
C340 H331 0.950 . S
C340 C339 1.398 . S
C340 C341 1.391 . S
C341 H329 0.950 . S
C341 C337 1.393 . S
C341 C340 1.391 . S
C342 H332 0.950 . S
C342 C343 1.386 . S
C342 C344 1.391 . S
C343 C342 1.386 . S
C343 C347 1.393 . S
C344 H333 0.950 . S
C344 C342 1.391 . S
C344 C345 1.400 . S
C345 C339 1.491 . S
C345 C344 1.400 . S
C345 C346 1.398 . S
C346 H334 0.950 . S
C346 C345 1.398 . S
C346 C347 1.391 . S
C347 H335 0.950 . S
C347 C343 1.393 . S
C347 C346 1.391 . S
H348 C356 0.950 . S
H349 C361 0.950 . S
H350 C358 0.950 . S
H351 C360 0.950 . S
H352 C362 0.950 . S
H353 C364 0.951 . S
H354 C366 0.950 . S
H355 C367 0.950 . S
C356 H348 0.950 . S
C356 C357 1.386 . S
C356 C358 1.391 . S
C357 C356 1.386 . S
C357 C361 1.393 . S
C358 H350 0.950 . S
C358 C356 1.391 . S
C358 C359 1.400 . S
C359 C358 1.400 . S
C359 C360 1.398 . S
C359 C365 1.505 . S
C360 H351 0.950 . S
C360 C359 1.398 . S
C360 C361 1.391 . S
C361 H349 0.950 . S
C361 C357 1.393 . S
C361 C360 1.391 . S
C362 H352 0.950 . S
C362 C363 1.386 . S
C362 C364 1.391 . S
C363 C362 1.386 . S
C363 C367 1.393 . S
C364 H353 0.951 . S
C364 C362 1.391 . S
C364 C365 1.395 1_556 S
C365 C359 1.505 . S
C365 C364 1.395 1_554 S
C365 C366 1.389 1_554 S
C366 H354 0.950 . S
C366 C365 1.389 1_556 S
C366 C367 1.391 . S
C367 H355 0.950 . S
C367 C363 1.393 . S
C367 C366 1.391 . S
H368 C376 0.950 . S
H369 C381 0.950 . S
H370 C378 0.950 . S
H371 C380 0.950 . S
H372 C382 0.950 . S
H373 C384 0.950 . S
H374 C386 0.950 . S
H375 C387 0.950 . S
C376 H368 0.950 . S
C376 C377 1.386 . S
C376 C378 1.391 . S
C377 C376 1.386 . S
C377 C381 1.393 . S
C378 H370 0.950 . S
C378 C376 1.391 . S
C378 C379 1.400 . S
C379 C378 1.400 . S
C379 C380 1.398 . S
C379 C385 1.491 . S
C380 H371 0.950 . S
C380 C379 1.398 . S
C380 C381 1.391 . S
C381 H369 0.950 . S
C381 C377 1.393 . S
C381 C380 1.391 . S
C382 H372 0.950 . S
C382 C383 1.386 . S
C382 C384 1.391 . S
C383 C382 1.386 . S
C383 C387 1.393 . S
C384 H373 0.950 . S
C384 C382 1.391 . S
C384 C385 1.400 . S
C385 C379 1.491 . S
C385 C384 1.400 . S
C385 C386 1.398 . S
C386 H374 0.950 . S
C386 C385 1.398 . S
C386 C387 1.391 . S
C387 H375 0.950 . S
C387 C383 1.393 . S
C387 C386 1.391 . S
H388 C396 0.950 . S
H389 C401 0.950 . S
H390 C398 0.950 . S
H391 C400 0.950 . S
H392 C402 0.950 . S
H393 C404 0.950 . S
H394 C406 0.950 . S
H395 C407 0.950 . S
C396 H388 0.950 . S
C396 C397 1.386 . S
C396 C398 1.391 . S
C397 C396 1.386 . S
C397 C401 1.393 . S
C398 H390 0.950 . S
C398 C396 1.391 . S
C398 C399 1.400 . S
C399 C398 1.400 . S
C399 C400 1.398 . S
C399 C405 1.491 . S
C400 H391 0.950 . S
C400 C399 1.398 . S
C400 C401 1.391 . S
C401 H389 0.950 . S
C401 C397 1.393 . S
C401 C400 1.391 . S
C402 H392 0.950 . S
C402 C403 1.386 . S
C402 C404 1.391 . S
C403 C402 1.386 . S
C403 C407 1.393 . S
C404 H393 0.950 . S
C404 C402 1.391 . S
C404 C405 1.400 . S
C405 C399 1.491 . S
C405 C404 1.400 . S
C405 C406 1.398 . S
C406 H394 0.950 . S
C406 C405 1.398 . S
C406 C407 1.391 . S
C407 H395 0.950 . S
C407 C403 1.393 . S
C407 C406 1.391 . S
H408 C416 0.950 . S
H409 C421 0.950 . S
H410 C418 0.950 . S
H411 C420 0.950 . S
H412 C422 0.950 . S
H413 C424 0.950 . S
H414 C426 0.950 . S
H415 C427 0.950 . S
C416 H408 0.950 . S
C416 C417 1.386 . S
C416 C418 1.391 . S
C417 C416 1.386 . S
C417 C421 1.393 . S
C418 H410 0.950 . S
C418 C416 1.391 . S
C418 C419 1.400 . S
C419 C418 1.400 . S
C419 C420 1.398 . S
C419 C425 1.491 . S
C420 H411 0.950 . S
C420 C419 1.398 . S
C420 C421 1.391 . S
C421 H409 0.950 . S
C421 C417 1.393 . S
C421 C420 1.391 . S
C422 H412 0.950 . S
C422 C423 1.386 . S
C422 C424 1.391 . S
C423 C422 1.386 . S
C423 C427 1.393 . S
C424 H413 0.950 . S
C424 C422 1.391 . S
C424 C425 1.400 . S
C425 C419 1.491 . S
C425 C424 1.400 . S
C425 C426 1.398 . S
C426 H414 0.950 . S
C426 C425 1.398 . S
C426 C427 1.391 . S
C427 H415 0.950 . S
C427 C423 1.393 . S
C427 C426 1.391 . S
H428 C436 0.950 . S
H429 C441 0.950 . S
H430 C438 0.950 . S
H431 C440 0.950 . S
H432 C442 0.950 . S
H433 C444 0.950 . S
H434 C446 0.950 . S
H435 C447 0.950 . S
C436 H428 0.950 . S
C436 C437 1.386 . S
C436 C438 1.391 . S
C437 C436 1.386 . S
C437 C441 1.393 . S
C438 H430 0.950 . S
C438 C436 1.391 . S
C438 C439 1.400 . S
C439 C438 1.400 . S
C439 C440 1.398 . S
C439 C445 1.491 . S
C440 H431 0.950 . S
C440 C439 1.398 . S
C440 C441 1.391 . S
C441 H429 0.950 . S
C441 C437 1.393 . S
C441 C440 1.391 . S
C442 H432 0.950 . S
C442 C443 1.386 . S
C442 C444 1.391 . S
C443 C442 1.386 . S
C443 C447 1.393 . S
C444 H433 0.950 . S
C444 C442 1.391 . S
C444 C445 1.400 . S
C445 C439 1.491 . S
C445 C444 1.400 . S
C445 C446 1.398 . S
C446 H434 0.950 . S
C446 C445 1.398 . S
C446 C447 1.391 . S
C447 H435 0.950 . S
C447 C443 1.393 . S
C447 C446 1.391 . S
H448 C456 0.950 . S
H449 C461 0.950 . S
H450 C458 0.950 . S
H451 C460 0.950 . S
H452 C462 0.950 . S
H453 C464 0.950 . S
H454 C466 0.950 . S
H455 C467 0.950 . S
C456 H448 0.950 . S
C456 C457 1.386 . S
C456 C458 1.391 . S
C457 C456 1.386 . S
C457 C461 1.393 . S
C458 H450 0.950 . S
C458 C456 1.391 . S
C458 C459 1.400 . S
C459 C458 1.400 . S
C459 C460 1.398 . S
C459 C465 1.491 . S
C460 H451 0.950 . S
C460 C459 1.398 . S
C460 C461 1.391 . S
C461 H449 0.950 . S
C461 C457 1.393 . S
C461 C460 1.391 . S
C462 H452 0.950 . S
C462 C463 1.386 . S
C462 C464 1.391 . S
C463 C462 1.386 . S
C463 C467 1.393 . S
C464 H453 0.950 . S
C464 C462 1.391 . S
C464 C465 1.400 . S
C465 C459 1.491 . S
C465 C464 1.400 . S
C465 C466 1.398 . S
C466 H454 0.950 . S
C466 C465 1.398 . S
C466 C467 1.391 . S
C467 H455 0.950 . S
C467 C463 1.393 . S
C467 C466 1.391 . S
H468 C476 0.950 . S
H469 C481 0.950 . S
H470 C478 0.950 . S
H471 C480 0.950 . S
H472 C482 0.950 . S
H473 C484 0.950 . S
H474 C486 0.950 1_565 S
H475 C487 0.950 1_565 S
C476 H468 0.950 . S
C476 C477 1.386 . S
C476 C478 1.391 . S
C477 C476 1.386 . S
C477 C481 1.393 . S
C478 H470 0.950 . S
C478 C476 1.391 . S
C478 C479 1.400 . S
C479 C478 1.400 . S
C479 C480 1.398 . S
C479 C485 1.491 . S
C480 H471 0.950 . S
C480 C479 1.398 . S
C480 C481 1.391 . S
C481 H469 0.950 . S
C481 C477 1.393 . S
C481 C480 1.391 . S
C482 H472 0.950 . S
C482 C483 1.386 . S
C482 C484 1.391 . S
C483 C482 1.386 . S
C483 C487 1.393 . S
C484 H473 0.950 . S
C484 C482 1.391 . S
C484 C485 1.400 . S
C485 C479 1.491 . S
C485 C484 1.400 . S
C485 C486 1.398 . S
C486 H474 0.950 1_545 S
C486 C485 1.398 . S
C486 C487 1.391 . S
C487 H475 0.950 1_545 S
C487 C483 1.393 . S
C487 C486 1.391 . S
H488 C496 0.950 . S
H489 C501 0.950 . S
H490 C498 0.950 . S
H491 C500 0.950 . S
H492 C502 0.950 . S
H493 C504 0.950 . S
H494 C506 0.950 . S
H495 C507 0.950 . S
C496 H488 0.950 . S
C496 C497 1.386 . S
C496 C498 1.391 . S
C497 C496 1.386 . S
C497 C501 1.393 . S
C498 H490 0.950 . S
C498 C496 1.391 . S
C498 C499 1.400 . S
C499 C498 1.400 . S
C499 C500 1.398 . S
C499 C505 1.491 . S
C500 H491 0.950 . S
C500 C499 1.398 . S
C500 C501 1.391 . S
C501 H489 0.950 . S
C501 C497 1.393 . S
C501 C500 1.391 . S
C502 H492 0.950 . S
C502 C503 1.386 . S
C502 C504 1.391 . S
C503 C502 1.386 . S
C503 C507 1.393 . S
C504 H493 0.950 . S
C504 C502 1.391 . S
C504 C505 1.400 . S
C505 C499 1.491 . S
C505 C504 1.400 . S
C505 C506 1.398 . S
C506 H494 0.950 . S
C506 C505 1.398 . S
C506 C507 1.391 . S
C507 H495 0.950 . S
C507 C503 1.393 . S
C507 C506 1.391 . S
H508 C516 0.950 . S
H509 C521 0.950 . S
H510 C518 0.950 . S
H511 C520 0.950 . S
H512 C522 0.950 . S
H513 C524 0.950 . S
H514 C526 0.950 . S
H515 C527 0.950 . S
C516 H508 0.950 . S
C516 C517 1.386 . S
C516 C518 1.391 . S
C517 C516 1.386 . S
C517 C521 1.393 . S
C518 H510 0.950 . S
C518 C516 1.391 . S
C518 C519 1.400 . S
C519 C518 1.400 . S
C519 C520 1.398 . S
C519 C525 1.491 . S
C520 H511 0.950 . S
C520 C519 1.398 . S
C520 C521 1.391 . S
C521 H509 0.950 . S
C521 C517 1.393 . S
C521 C520 1.391 . S
C522 H512 0.950 . S
C522 C523 1.386 . S
C522 C524 1.391 . S
C523 C522 1.386 . S
C523 C527 1.393 . S
C524 H513 0.950 . S
C524 C522 1.391 . S
C524 C525 1.400 . S
C525 C519 1.491 . S
C525 C524 1.400 . S
C525 C526 1.398 . S
C526 H514 0.950 . S
C526 C525 1.398 . S
C526 C527 1.391 . S
C527 H515 0.950 . S
C527 C523 1.393 . S
C527 C526 1.391 . S
H528 C536 0.950 . S
H529 C541 0.950 . S
H530 C538 0.950 . S
H531 C540 0.950 . S
H532 C542 0.950 . S
H533 C544 0.950 . S
H534 C546 0.950 . S
H535 C547 0.950 . S
C536 H528 0.950 . S
C536 C537 1.386 . S
C536 C538 1.391 . S
C537 C536 1.386 . S
C537 C541 1.393 . S
C538 H530 0.950 . S
C538 C536 1.391 . S
C538 C539 1.400 . S
C539 C538 1.400 . S
C539 C540 1.398 . S
C539 C545 1.491 1_545 S
C540 H531 0.950 . S
C540 C539 1.398 . S
C540 C541 1.391 . S
C541 H529 0.950 . S
C541 C537 1.393 . S
C541 C540 1.391 . S
C542 H532 0.950 . S
C542 C543 1.386 . S
C542 C544 1.391 . S
C543 C542 1.386 . S
C543 C547 1.393 . S
C544 H533 0.950 . S
C544 C542 1.391 . S
C544 C545 1.400 . S
C545 C539 1.491 1_565 S
C545 C544 1.400 . S
C545 C546 1.398 . S
C546 H534 0.950 . S
C546 C545 1.398 . S
C546 C547 1.391 . S
C547 H535 0.950 . S
C547 C543 1.393 . S
C547 C546 1.391 . S
H548 C556 0.950 . S
H549 C561 0.950 1_545 S
H550 C558 0.950 . S
H551 C560 0.950 1_445 S
H552 C562 0.950 1_545 S
H553 C564 0.950 1_545 S
H554 C566 0.950 . S
H555 C567 0.950 . S
C556 H548 0.950 . S
C556 C557 1.386 . S
C556 C558 1.391 . S
C557 C556 1.386 . S
C557 C561 1.393 . S
C558 H550 0.950 . S
C558 C556 1.391 . S
C558 C559 1.400 . S
C559 C558 1.400 . S
C559 C560 1.398 . S
C559 C565 1.491 1_655 S
C560 H551 0.950 1_665 S
C560 C559 1.398 . S
C560 C561 1.391 . S
C561 H549 0.950 1_565 S
C561 C557 1.393 . S
C561 C560 1.391 . S
C562 H552 0.950 1_565 S
C562 C563 1.386 . S
C562 C564 1.391 . S
C563 C562 1.386 . S
C563 C567 1.393 . S
C564 H553 0.950 1_565 S
C564 C562 1.391 . S
C564 C565 1.400 . S
C565 C559 1.491 1_455 S
C565 C564 1.400 . S
C565 C566 1.398 . S
C566 H554 0.950 . S
C566 C565 1.398 . S
C566 C567 1.391 . S
C567 H555 0.950 . S
C567 C563 1.393 . S
C567 C566 1.391 . S
H568 C576 0.950 . S
H569 C581 0.950 . S
H570 C578 0.950 . S
H571 C580 0.950 . S
H572 C582 0.950 . S
H573 C584 0.950 . S
H574 C586 0.950 . S
H575 C587 0.950 . S
C576 H568 0.950 . S
C576 C577 1.386 . S
C576 C578 1.391 1_545 S
C577 C576 1.386 . S
C577 C581 1.393 . S
C578 H570 0.950 . S
C578 C576 1.391 1_565 S
C578 C579 1.400 . S
C579 C578 1.400 . S
C579 C580 1.398 1_565 S
C579 C585 1.491 . S
C580 H571 0.950 . S
C580 C579 1.398 1_545 S
C580 C581 1.391 . S
C581 H569 0.950 . S
C581 C577 1.393 . S
C581 C580 1.391 . S
C582 H572 0.950 . S
C582 C583 1.386 . S
C582 C584 1.391 1_655 S
C583 C582 1.386 . S
C583 C587 1.393 1_655 S
C584 H573 0.950 . S
C584 C582 1.391 1_455 S
C584 C585 1.400 . S
C585 C579 1.491 . S
C585 C584 1.400 . S
C585 C586 1.398 . S
C586 H574 0.950 . S
C586 C585 1.398 . S
C586 C587 1.391 . S
C587 H575 0.950 . S
C587 C583 1.393 1_455 S
C587 C586 1.391 . S
H588 C596 0.950 . S
H589 C601 0.950 . S
H590 C598 0.950 . S
H591 C600 0.950 . S
H592 C602 0.950 . S
H593 C604 0.950 . S
H594 C606 0.950 . S
H595 C607 0.950 . S
C596 H588 0.950 . S
C596 C597 1.386 . S
C596 C598 1.391 1_655 S
C597 C596 1.386 . S
C597 C601 1.393 . S
C598 H590 0.950 . S
C598 C596 1.391 1_455 S
C598 C599 1.400 . S
C599 C598 1.400 . S
C599 C600 1.398 . S
C599 C605 1.491 . S
C600 H591 0.950 . S
C600 C599 1.398 . S
C600 C601 1.391 1_455 S
C601 H589 0.950 . S
C601 C597 1.393 . S
C601 C600 1.391 1_655 S
C602 H592 0.950 . S
C602 C603 1.386 . S
C602 C604 1.391 . S
C603 C602 1.386 . S
C603 C607 1.393 . S
C604 H593 0.950 . S
C604 C602 1.391 . S
C604 C605 1.400 . S
C605 C599 1.491 . S
C605 C604 1.400 . S
C605 C606 1.398 . S
C606 H594 0.950 . S
C606 C605 1.398 . S
C606 C607 1.391 . S
C607 H595 0.950 . S
C607 C603 1.393 . S
C607 C606 1.391 . S
H608 C616 0.950 . S
H609 C621 0.950 . S
H610 C618 0.950 . S
H611 C620 0.950 . S
H612 C622 0.950 . S
H613 C624 0.950 . S
H614 C626 0.950 . S
H615 C627 0.950 . S
C616 H608 0.950 . S
C616 C617 1.386 . S
C616 C618 1.391 1_565 S
C617 C616 1.386 . S
C617 C621 1.393 . S
C618 H610 0.950 . S
C618 C616 1.391 1_545 S
C618 C619 1.400 . S
C619 C618 1.400 . S
C619 C620 1.398 1_545 S
C619 C625 1.491 . S
C620 H611 0.950 . S
C620 C619 1.398 1_565 S
C620 C621 1.391 . S
C621 H609 0.950 . S
C621 C617 1.393 . S
C621 C620 1.391 . S
C622 H612 0.950 . S
C622 C623 1.386 . S
C622 C624 1.391 . S
C623 C622 1.386 . S
C623 C627 1.393 . S
C624 H613 0.950 . S
C624 C622 1.391 . S
C624 C625 1.400 1_455 S
C625 C619 1.491 . S
C625 C624 1.400 1_655 S
C625 C626 1.398 . S
C626 H614 0.950 . S
C626 C625 1.398 . S
C626 C627 1.391 1_655 S
C627 H615 0.950 . S
C627 C623 1.393 . S
C627 C626 1.391 1_455 S
H628 C636 0.950 . S
H629 C641 0.950 . S
H630 C638 0.950 . S
H631 C640 0.950 . S
H632 C642 0.950 1_655 S
H633 C644 0.950 . S
H634 C646 0.950 . S
H635 C647 0.950 . S
C636 H628 0.950 . S
C636 C637 1.386 . S
C636 C638 1.391 1_565 S
C637 C636 1.386 . S
C637 C641 1.393 . S
C638 H630 0.950 . S
C638 C636 1.391 1_545 S
C638 C639 1.400 . S
C639 C638 1.400 . S
C639 C640 1.398 1_545 S
C639 C645 1.491 . S
C640 H631 0.950 . S
C640 C639 1.398 1_565 S
C640 C641 1.391 . S
C641 H629 0.950 . S
C641 C637 1.393 . S
C641 C640 1.391 . S
C642 H632 0.950 1_455 S
C642 C643 1.386 . S
C642 C644 1.391 . S
C643 C642 1.386 . S
C643 C647 1.393 . S
C644 H633 0.950 . S
C644 C642 1.391 . S
C644 C645 1.400 . S
C645 C639 1.491 . S
C645 C644 1.400 . S
C645 C646 1.398 . S
C646 H634 0.950 . S
C646 C645 1.398 . S
C646 C647 1.391 . S
C647 H635 0.950 . S
C647 C643 1.393 . S
C647 C646 1.391 . S
C177 C162 1.068 . S
C183 C8 1.048 . S
C197 C22 0.973 . S
C203 C92 0.984 . S
C217 C36 1.097 . S
C223 C106 1.106 . S
C237 C50 1.716 . S
C243 C120 1.695 . S
C257 C134 1.860 . S
C263 C64 1.856 . S
C277 C78 2.055 . S
C283 C148 2.069 . S
C297 C7 1.956 . S
C303 C147 1.879 . S
C317 C21 1.341 . S
C323 C161 1.336 . S
C337 C35 1.305 . S
C343 C91 1.305 . S
C357 C49 1.654 . S
C363 C105 1.691 . S
C377 C119 2.228 . S
C383 C63 2.227 . S
C397 C133 2.390 . S
C403 C77 2.361 . S
C417 C48 1.448 . S
C423 C6 1.445 . S
C437 C20 1.428 . S
C443 C62 1.431 . S
C457 C76 1.469 . S
C463 C34 1.471 . S
C477 C132 1.464 . S
C483 C90 1.466 . S
C497 C146 1.463 . S
C503 C104 1.455 . S
C517 C118 1.411 . S
C523 C160 1.406 . S
C537 C9 1.307 . S
C543 C51 1.302 . S
C557 C23 1.257 . S
C563 C65 1.265 . S
C577 C79 1.266 . S
C583 C37 1.261 . S
C597 C93 1.268 . S
C603 C135 1.271 . S
C617 C107 1.309 . S
C623 C149 1.305 . S
C637 C121 1.259 . S
C643 C163 1.255 . S
