# Generated by pormake.
# Topology umc, (4)-cn, num edge types: 1
# Building blocks:
#     Node 0, Type 0, BuildingBlock: CEKHIL_clean_sbu_0, # of connection points: 4
#     Node 1, Type 0, BuildingBlock: CEKHIL_clean_sbu_0, # of connection points: 4
#     Node 2, Type 0, BuildingBlock: CEKHIL_clean_sbu_0, # of connection points: 4
#     Node 3, Type 0, BuildingBlock: CEKHIL_clean_sbu_0, # of connection points: 4
#     Node 4, Type 0, BuildingBlock: CEKHIL_clean_sbu_0, # of connection points: 4
#     Node 5, Type 0, BuildingBlock: CEKHIL_clean_sbu_0, # of connection points: 4
#     Node 6, Type 0, BuildingBlock: CEKHIL_clean_sbu_0, # of connection points: 4
#     Node 7, Type 0, BuildingBlock: CEKHIL_clean_sbu_0, # of connection points: 4
#     Node 8, Type 0, BuildingBlock: CEKHIL_clean_sbu_0, # of connection points: 4
#     Node 9, Type 0, BuildingBlock: CEKHIL_clean_sbu_0, # of connection points: 4
#     Node 10, Type 0, BuildingBlock: CEKHIL_clean_sbu_0, # of connection points: 4
#     Node 11, Type 0, BuildingBlock: CEKHIL_clean_sbu_0, # of connection points: 4
#     Node 12, Type 0, BuildingBlock: CEKHIL_clean_sbu_0, # of connection points: 4
#     Node 13, Type 0, BuildingBlock: CEKHIL_clean_sbu_0, # of connection points: 4
#     Node 14, Type 0, BuildingBlock: CEKHIL_clean_sbu_0, # of connection points: 4
#     Node 15, Type 0, BuildingBlock: CEKHIL_clean_sbu_0, # of connection points: 4
#     Edge 16, Type (0, 0), BuildingBlock: EZIPEK_clean_linker_0, # of connection points: 2
#     Edge 17, Type (0, 0), BuildingBlock: EZIPEK_clean_linker_0, # of connection points: 2
#     Edge 18, Type (0, 0), BuildingBlock: EZIPEK_clean_linker_0, # of connection points: 2
#     Edge 19, Type (0, 0), BuildingBlock: EZIPEK_clean_linker_0, # of connection points: 2
#     Edge 20, Type (0, 0), BuildingBlock: EZIPEK_clean_linker_0, # of connection points: 2
#     Edge 21, Type (0, 0), BuildingBlock: EZIPEK_clean_linker_0, # of connection points: 2
#     Edge 22, Type (0, 0), BuildingBlock: EZIPEK_clean_linker_0, # of connection points: 2
#     Edge 23, Type (0, 0), BuildingBlock: EZIPEK_clean_linker_0, # of connection points: 2
#     Edge 24, Type (0, 0), BuildingBlock: EZIPEK_clean_linker_0, # of connection points: 2
#     Edge 25, Type (0, 0), BuildingBlock: EZIPEK_clean_linker_0, # of connection points: 2
#     Edge 26, Type (0, 0), BuildingBlock: EZIPEK_clean_linker_0, # of connection points: 2
#     Edge 27, Type (0, 0), BuildingBlock: EZIPEK_clean_linker_0, # of connection points: 2
#     Edge 28, Type (0, 0), BuildingBlock: EZIPEK_clean_linker_0, # of connection points: 2
#     Edge 29, Type (0, 0), BuildingBlock: EZIPEK_clean_linker_0, # of connection points: 2
#     Edge 30, Type (0, 0), BuildingBlock: EZIPEK_clean_linker_0, # of connection points: 2
#     Edge 31, Type (0, 0), BuildingBlock: EZIPEK_clean_linker_0, # of connection points: 2
#     Edge 32, Type (0, 0), BuildingBlock: EZIPEK_clean_linker_0, # of connection points: 2
#     Edge 33, Type (0, 0), BuildingBlock: EZIPEK_clean_linker_0, # of connection points: 2
#     Edge 34, Type (0, 0), BuildingBlock: EZIPEK_clean_linker_0, # of connection points: 2
#     Edge 35, Type (0, 0), BuildingBlock: EZIPEK_clean_linker_0, # of connection points: 2
#     Edge 36, Type (0, 0), BuildingBlock: EZIPEK_clean_linker_0, # of connection points: 2
#     Edge 37, Type (0, 0), BuildingBlock: EZIPEK_clean_linker_0, # of connection points: 2
#     Edge 38, Type (0, 0), BuildingBlock: EZIPEK_clean_linker_0, # of connection points: 2
#     Edge 39, Type (0, 0), BuildingBlock: EZIPEK_clean_linker_0, # of connection points: 2
#     Edge 40, Type (0, 0), BuildingBlock: EZIPEK_clean_linker_0, # of connection points: 2
#     Edge 41, Type (0, 0), BuildingBlock: EZIPEK_clean_linker_0, # of connection points: 2
#     Edge 42, Type (0, 0), BuildingBlock: EZIPEK_clean_linker_0, # of connection points: 2
#     Edge 43, Type (0, 0), BuildingBlock: EZIPEK_clean_linker_0, # of connection points: 2
#     Edge 44, Type (0, 0), BuildingBlock: EZIPEK_clean_linker_0, # of connection points: 2
#     Edge 45, Type (0, 0), BuildingBlock: EZIPEK_clean_linker_0, # of connection points: 2
#     Edge 46, Type (0, 0), BuildingBlock: EZIPEK_clean_linker_0, # of connection points: 2
#     Edge 47, Type (0, 0), BuildingBlock: EZIPEK_clean_linker_0, # of connection points: 2
# Relax obj value: 0.081
# Max RMSD: 0.168
# Mean RMSD: 0.168
data_MOF--net-umc--node1-CEKHIL_clean_sbu_0--edge1-EZIPEK_clean_linker_0
_symmetry_space_group_name_H-M    P1
_symmetry_Int_Tables_number       1
_symmetry_cell_setting            triclinic
loop_
_symmetry_equiv_pos_as_xyz
'x, y, z'
_cell_length_a     33.564895
_cell_length_b     24.236844
_cell_length_c     40.201843
_cell_angle_alpha  89.992551
_cell_angle_beta   89.968464
_cell_angle_gamma 90.019063
loop_
_atom_site_label
_atom_site_type_symbol
_atom_site_fract_x
_atom_site_fract_y
_atom_site_fract_z
_atom_type_partial_charge
Co0 Co 0.34754 0.08526 0.36206 0.0
O1 O 0.29555 0.11818 0.35871 0.0
O2 O 0.34911 0.16192 0.37692 0.0
C3 C 0.34687 0.04623 0.31112 0.0
O4 O 0.40653 0.0634 0.36778 0.0
Co5 Co 0.35343 0.95848 0.36238 0.0
O6 O 0.41171 0.97087 0.36343 0.0
C7 C 0.33017 0.01485 0.42348 0.0
C8 C 0.31115 0.16316 0.37009 0.0
C9 C 0.42733 0.01844 0.36687 0.0
O10 O 0.33558 0.06115 0.40871 0.0
O11 O 0.33307 0.96814 0.40895 0.0
O12 O 0.35694 0.0975 0.31488 0.0
O13 O 0.33358 0.02158 0.33749 0.0
Co14 Co 0.67418 0.92052 0.36465 0.0
O15 O 0.7238 0.88079 0.36646 0.0
O16 O 0.66628 0.84855 0.38516 0.0
C17 C 0.67928 0.9474 0.31113 0.0
O18 O 0.61691 0.95099 0.3655 0.0
Co19 Co 0.67793 0.04762 0.35356 0.0
O20 O 0.61901 0.04201 0.35337 0.0
C21 C 0.6939 0.00257 0.4199 0.0
C22 C 0.70417 0.84063 0.37992 0.0
C23 C 0.59976 0.99807 0.36017 0.0
O24 O 0.68476 0.95421 0.40941 0.0
O25 O 0.6964 0.04503 0.40108 0.0
O26 O 0.66699 0.89822 0.31861 0.0
O27 O 0.69267 0.97611 0.3359 0.0
Co28 Co 0.33398 0.9259 0.12584 0.0
O29 O 0.28254 0.89115 0.12549 0.0
O30 O 0.33765 0.85141 0.10736 0.0
C31 C 0.33095 0.95627 0.17854 0.0
O32 O 0.39241 0.95222 0.12395 0.0
Co33 Co 0.33415 0.05393 0.1339 0.0
O34 O 0.3928 0.04457 0.13245 0.0
C35 C 0.31518 0.00556 0.06924 0.0
C36 C 0.29958 0.84763 0.11354 0.0
C37 C 0.41082 0.99897 0.12751 0.0
O38 O 0.32437 0.95764 0.08044 0.0
O39 O 0.31267 0.04874 0.08742 0.0
O40 O 0.34105 0.90576 0.17225 0.0
O41 O 0.31815 0.98434 0.15334 0.0
Co42 Co 0.66592 0.06801 0.12496 0.0
O43 O 0.71923 0.09754 0.12687 0.0
O44 O 0.66631 0.14541 0.11151 0.0
C45 C 0.66787 0.02719 0.17563 0.0
O46 O 0.60592 0.05103 0.12167 0.0
Co47 Co 0.65495 0.94253 0.12325 0.0
O48 O 0.59719 0.95885 0.11933 0.0
C49 C 0.6818 0.99789 0.06325 0.0
C50 C 0.70447 0.14421 0.11733 0.0
C51 C 0.58348 0.00778 0.1197 0.0
O52 O 0.67431 0.04438 0.07728 0.0
O53 O 0.68113 0.95194 0.07883 0.0
O54 O 0.65948 0.07911 0.17256 0.0
O55 O 0.67878 0.00245 0.14854 0.0
Co56 Co 0.67031 0.93935 0.62379 0.0
O57 O 0.72343 0.90897 0.62437 0.0
O58 O 0.6697 0.86247 0.60943 0.0
C59 C 0.67322 0.97907 0.6747 0.0
O60 O 0.61047 0.95719 0.62158 0.0
Co61 Co 0.66049 0.06543 0.62316 0.0
O62 O 0.60262 0.04952 0.61896 0.0
C63 C 0.68681 0.0109 0.56299 0.0
C64 C 0.70802 0.86277 0.61455 0.0
C65 C 0.58848 1.00084 0.6197 0.0
O66 O 0.67777 0.9644 0.57635 0.0
O67 O 0.68766 0.05622 0.57919 0.0
O68 O 0.665 0.92707 0.67143 0.0
O69 O 0.68381 0.00424 0.64767 0.0
Co70 Co 0.33827 0.07974 0.63082 0.0
O71 O 0.28758 0.11659 0.63425 0.0
O72 O 0.34324 0.1569 0.61753 0.0
C73 C 0.33397 0.03903 0.68137 0.0
O74 O 0.39668 0.05446 0.62553 0.0
Co75 Co 0.34124 0.95421 0.62832 0.0
O76 O 0.3998 0.96177 0.62869 0.0
C77 C 0.32492 0.01427 0.56692 0.0
C78 C 0.30527 0.16075 0.62388 0.0
C79 C 0.41641 0.00863 0.62607 0.0
O80 O 0.3261 0.05936 0.58352 0.0
O81 O 0.32881 0.96672 0.5802 0.0
O82 O 0.34748 0.08886 0.67796 0.0
O83 O 0.32079 0.01596 0.65436 0.0
Co84 Co 0.66586 0.08887 0.86314 0.0
O85 O 0.71921 0.11851 0.86278 0.0
O86 O 0.66638 0.16435 0.88033 0.0
C87 C 0.66957 0.05566 0.81065 0.0
O88 O 0.60586 0.07074 0.86585 0.0
Co89 Co 0.6554 0.96235 0.856 0.0
O90 O 0.59762 0.98044 0.85403 0.0
C91 C 0.68201 0.00869 0.91952 0.0
C92 C 0.7045 0.16409 0.87408 0.0
C93 C 0.58351 0.02803 0.86075 0.0
O94 O 0.67372 0.05751 0.90906 0.0
O95 O 0.68317 0.96652 0.90037 0.0
O96 O 0.66009 0.10671 0.81615 0.0
O97 O 0.67911 0.02741 0.83669 0.0
Co98 Co 0.33667 0.92964 0.86871 0.0
O99 O 0.28775 0.88837 0.87147 0.0
O100 O 0.34674 0.85567 0.88598 0.0
C101 C 0.32404 0.96018 0.8163 0.0
O102 O 0.39382 0.9609 0.86772 0.0
Co103 Co 0.33286 0.05605 0.86106 0.0
O104 O 0.39149 0.05195 0.85653 0.0
C105 C 0.31809 0.00622 0.92639 0.0
C106 C 0.30861 0.84739 0.88236 0.0
C107 C 0.411 0.0078 0.86199 0.0
O108 O 0.32804 0.95884 0.91483 0.0
O109 O 0.31511 0.04979 0.90861 0.0
O110 O 0.34095 0.91289 0.82174 0.0
O111 O 0.31404 0.98651 0.84298 0.0
Co112 Co 0.83143 0.56038 0.37185 0.0
O113 O 0.77945 0.59374 0.37168 0.0
O114 O 0.83425 0.63615 0.38824 0.0
C115 C 0.82858 0.52595 0.31991 0.0
O116 O 0.89043 0.53654 0.37377 0.0
Co117 Co 0.83453 0.43214 0.36766 0.0
O118 O 0.89286 0.44405 0.3663 0.0
C119 C 0.8157 0.48474 0.43132 0.0
C120 C 0.7961 0.63854 0.3823 0.0
C121 C 0.90987 0.49062 0.37026 0.0
O122 O 0.82254 0.53212 0.41826 0.0
O123 O 0.81561 0.43955 0.41487 0.0
O124 O 0.83762 0.57721 0.32501 0.0
O125 O 0.8166 0.49912 0.34597 0.0
Co126 Co 0.16545 0.42611 0.36839 0.0
O127 O 0.21888 0.39707 0.36647 0.0
O128 O 0.16639 0.34949 0.38327 0.0
C129 C 0.16677 0.46371 0.31687 0.0
O130 O 0.10542 0.44258 0.37202 0.0
Co131 Co 0.15365 0.55151 0.36714 0.0
O132 O 0.09606 0.53471 0.37202 0.0
C133 C 0.1816 0.5004 0.4282 0.0
C134 C 0.20443 0.35072 0.37686 0.0
C135 C 0.08271 0.48562 0.3732 0.0
O136 O 0.17441 0.45282 0.4154 0.0
O137 O 0.18032 0.54525 0.41152 0.0
O138 O 0.15839 0.41204 0.32117 0.0
O139 O 0.17776 0.49025 0.34329 0.0
Co140 Co 0.8479 0.40908 0.13294 0.0
O141 O 0.79504 0.37789 0.13339 0.0
O142 O 0.84876 0.33348 0.1162 0.0
C143 C 0.8448 0.44402 0.18513 0.0
O144 O 0.90755 0.42837 0.13038 0.0
Co145 Co 0.85656 0.53512 0.1366 0.0
O146 O 0.91435 0.52098 0.13011 0.0
C147 C 0.83067 0.48579 0.07462 0.0
C148 C 0.81053 0.33296 0.12183 0.0
C149 C 0.92902 0.47262 0.12898 0.0
O150 O 0.83951 0.4381 0.08645 0.0
O151 O 0.82981 0.52961 0.09225 0.0
O152 O 0.85418 0.39282 0.18011 0.0
O153 O 0.83391 0.47129 0.15897 0.0
Co154 Co 0.17619 0.56652 0.12733 0.0
O155 O 0.22614 0.60551 0.12572 0.0
O156 O 0.16901 0.63877 0.10696 0.0
C157 C 0.18053 0.53933 0.18071 0.0
O158 O 0.11868 0.53673 0.12659 0.0
Co159 Co 0.17957 0.43932 0.13761 0.0
O160 O 0.12065 0.44531 0.13769 0.0
C161 C 0.1973 0.4851 0.07202 0.0
C162 C 0.20693 0.64611 0.11236 0.0
C163 C 0.10145 0.48961 0.13174 0.0
O164 O 0.18686 0.5329 0.08258 0.0
O165 O 0.19997 0.44246 0.09064 0.0
O166 O 0.1689 0.58881 0.17329 0.0
O167 O 0.19405 0.51056 0.15599 0.0
Co168 Co 0.16514 0.42974 0.63183 0.0
O169 O 0.21807 0.39919 0.63358 0.0
O170 O 0.16496 0.35306 0.6168 0.0
C171 C 0.16689 0.46723 0.68332 0.0
O172 O 0.10552 0.44904 0.62831 0.0
Co173 Co 0.15747 0.55589 0.63269 0.0
O174 O 0.09938 0.54179 0.62838 0.0
C175 C 0.18374 0.50275 0.57204 0.0
C176 C 0.20305 0.35326 0.62314 0.0
C177 C 0.08428 0.49358 0.6274 0.0
O178 O 0.17407 0.45606 0.58481 0.0
O179 O 0.18569 0.54724 0.589 0.0
O180 O 0.15792 0.41574 0.6791 0.0
O181 O 0.17872 0.49319 0.65694 0.0
Co182 Co 0.83577 0.58537 0.62806 0.0
O183 O 0.78531 0.62318 0.62554 0.0
O184 O 0.84236 0.6577 0.60751 0.0
C185 C 0.82938 0.55934 0.68182 0.0
O186 O 0.89378 0.55739 0.62801 0.0
Co187 Co 0.83529 0.4583 0.64091 0.0
O188 O 0.89394 0.46756 0.64325 0.0
C189 C 0.81743 0.50083 0.5741 0.0
C190 C 0.80433 0.6644 0.61265 0.0
C191 C 0.91206 0.51178 0.63507 0.0
O192 O 0.82661 0.54989 0.5835 0.0
O193 O 0.81494 0.45955 0.59388 0.0
O194 O 0.84117 0.60864 0.67412 0.0
O195 O 0.81794 0.52959 0.65688 0.0
Co196 Co 0.17609 0.57141 0.87298 0.0
O197 O 0.22871 0.60283 0.87023 0.0
O198 O 0.17652 0.64623 0.89108 0.0
C199 C 0.17574 0.54041 0.82003 0.0
O200 O 0.11665 0.5508 0.87874 0.0
Co201 Co 0.16544 0.44541 0.86482 0.0
O202 O 0.10824 0.46403 0.86003 0.0
C203 C 0.19169 0.49049 0.92939 0.0
C204 C 0.21412 0.6475 0.88294 0.0
C205 C 0.09411 0.5094 0.87083 0.0
O206 O 0.1885 0.53973 0.91796 0.0
O207 O 0.18552 0.44706 0.912 0.0
O208 O 0.16621 0.59097 0.82684 0.0
O209 O 0.18805 0.51111 0.84493 0.0
Co210 Co 0.84081 0.4373 0.86708 0.0
O211 O 0.78903 0.40273 0.8665 0.0
O212 O 0.8451 0.35949 0.87891 0.0
C213 C 0.83421 0.48095 0.81757 0.0
O214 O 0.90003 0.45997 0.86892 0.0
Co215 Co 0.84564 0.56327 0.87156 0.0
O216 O 0.90418 0.55267 0.87045 0.0
C217 C 0.8267 0.50142 0.93144 0.0
C218 C 0.80662 0.35738 0.87493 0.0
C219 C 0.92046 0.50527 0.86986 0.0
O220 O 0.83367 0.45668 0.91543 0.0
O221 O 0.82645 0.54905 0.91786 0.0
O222 O 0.84528 0.42977 0.81915 0.0
O223 O 0.82345 0.50291 0.84558 0.0
C224 C 0.35957 0.038 0.47849 0.0
C225 C 0.32721 0.01594 0.46011 0.0
C226 C 0.2925 0.99279 0.51197 0.0
C227 C 0.3239 0.01793 0.53021 0.0
N228 N 0.38404 0.07372 0.53047 0.0
N229 N 0.26047 0.97975 0.45829 0.0
C230 C 0.3562 0.04376 0.51337 0.0
C231 C 0.29297 0.99517 0.47654 0.0
N232 N 0.39476 0.05031 0.46289 0.0
N233 N 0.26225 0.96683 0.52854 0.0
H234 H 0.25997 0.98124 0.43235 0.0
H235 H 0.23305 0.96944 0.46866 0.0
H236 H 0.25928 0.96802 0.55436 0.0
H237 H 0.24106 0.94209 0.51694 0.0
H238 H 0.42105 0.05914 0.47557 0.0
H239 H 0.3991 0.04662 0.43734 0.0
H240 H 0.40435 0.09993 0.51885 0.0
H241 H 0.38583 0.07568 0.55625 0.0
C242 C 0.72269 0.9839 0.51054 0.0
C243 C 0.69124 0.01307 0.52638 0.0
C244 C 0.66296 0.03781 0.47212 0.0
C245 C 0.69527 0.01057 0.45629 0.0
N246 N 0.75841 0.96395 0.45926 0.0
N247 N 0.63334 0.07239 0.52281 0.0
C248 C 0.72588 0.98533 0.47521 0.0
C249 C 0.66224 0.04191 0.50732 0.0
N250 N 0.74912 0.95433 0.52931 0.0
N251 N 0.63139 0.05626 0.45361 0.0
H252 H 0.62819 0.0717 0.54835 0.0
H253 H 0.61537 0.1008 0.51049 0.0
H254 H 0.6305 0.05481 0.42773 0.0
H255 H 0.60445 0.06922 0.4638 0.0
H256 H 0.76967 0.9267 0.51942 0.0
H257 H 0.74934 0.95533 0.55524 0.0
H258 H 0.78362 0.94925 0.47139 0.0
H259 H 0.76147 0.9646 0.43342 0.0
C260 C 0.28182 0.98508 0.01487 0.0
C261 C 0.31273 0.01182 0.03278 0.0
C262 C 0.34618 0.03675 0.98066 0.0
C263 C 0.31458 0.01167 0.96277 0.0
N264 N 0.25 0.96858 0.96147 0.0
N265 N 0.3724 0.06793 0.03348 0.0
C266 C 0.28167 0.98771 0.97951 0.0
C267 C 0.34408 0.03965 0.01587 0.0
N268 N 0.25315 0.95631 0.03174 0.0
N269 N 0.37947 0.05452 0.96408 0.0
H270 H 0.37465 0.067 0.05931 0.0
H271 H 0.39265 0.09506 0.02265 0.0
H272 H 0.38215 0.05394 0.93824 0.0
H273 H 0.4058 0.06622 0.97577 0.0
H274 H 0.2326 0.93029 0.02037 0.0
H275 H 0.25097 0.9564 0.05763 0.0
H276 H 0.22336 0.95517 0.97196 0.0
H277 H 0.24922 0.96975 0.93553 0.0
C278 C 0.65847 0.96514 0.97281 0.0
C279 C 0.68595 1.0003 0.95604 0.0
C280 C 0.71519 0.02689 0.0099 0.0
C281 C 0.68497 0.9965 0.02646 0.0
N282 N 0.62343 0.94477 0.02379 0.0
N283 N 0.73992 0.06603 0.95823 0.0
C284 C 0.65577 0.96721 0.00799 0.0
C285 C 0.71417 0.03163 0.97453 0.0
N286 N 0.63417 0.93016 0.95543 0.0
N287 N 0.7455 0.04967 0.02801 0.0
H288 H 0.7427 0.06675 0.93239 0.0
H289 H 0.75746 0.09544 0.97011 0.0
H290 H 0.74718 0.04648 0.05385 0.0
H291 H 0.77055 0.06805 0.0175 0.0
H292 H 0.61853 0.89797 0.96659 0.0
H293 H 0.63108 0.93016 0.92973 0.0
H294 H 0.59837 0.93013 0.01133 0.0
H295 H 0.61938 0.94536 0.04946 0.0
C296 C 0.84477 0.4612 0.52146 0.0
C297 C 0.81396 0.49074 0.53794 0.0
C298 C 0.78048 0.5071 0.48457 0.0
C299 C 0.81313 0.4822 0.46798 0.0
N300 N 0.87904 0.44232 0.46969 0.0
N301 N 0.75371 0.54469 0.53596 0.0
C302 C 0.84576 0.46034 0.48616 0.0
C303 C 0.78206 0.51444 0.5197 0.0
N304 N 0.8736 0.43474 0.53948 0.0
N305 N 0.74768 0.52259 0.46669 0.0
H306 H 0.75264 0.54813 0.56181 0.0
H307 H 0.73241 0.56869 0.52395 0.0
H308 H 0.74576 0.51757 0.44096 0.0
H309 H 0.72126 0.53639 0.47737 0.0
H310 H 0.89354 0.40663 0.52918 0.0
H311 H 0.87637 0.43793 0.56522 0.0
H312 H 0.90587 0.43309 0.48142 0.0
H313 H 0.88125 0.44062 0.44385 0.0
C314 C 0.21515 0.47492 0.51757 0.0
C315 C 0.18638 0.50647 0.53525 0.0
C316 C 0.15484 0.53361 0.48267 0.0
C317 C 0.1848 0.50452 0.46489 0.0
N318 N 0.24659 0.45419 0.46448 0.0
N319 N 0.13162 0.57177 0.53458 0.0
C320 C 0.21584 0.4769 0.4821 0.0
C321 C 0.15743 0.53808 0.51777 0.0
N322 N 0.2416 0.44282 0.53472 0.0
N323 N 0.12207 0.55358 0.46632 0.0
H324 H 0.12825 0.57202 0.56029 0.0
H325 H 0.11461 0.60211 0.52298 0.0
H326 H 0.11823 0.55134 0.44067 0.0
H327 H 0.09663 0.56795 0.47834 0.0
H328 H 0.25994 0.41357 0.52356 0.0
H329 H 0.24393 0.44348 0.56059 0.0
H330 H 0.27213 0.43787 0.47535 0.0
H331 H 0.24801 0.45538 0.43856 0.0
C332 C 0.8596 0.51935 0.98574 0.0
C333 C 0.82622 0.49867 0.96809 0.0
C334 C 0.79609 0.46675 0.02029 0.0
C335 C 0.8279 0.49169 0.03809 0.0
N336 N 0.88802 0.54711 0.03826 0.0
N337 N 0.761 0.45739 0.96765 0.0
C338 C 0.85889 0.51994 0.02097 0.0
C339 C 0.79399 0.47342 0.9851 0.0
N340 N 0.89314 0.53526 0.96884 0.0
N341 N 0.76815 0.43646 0.03702 0.0
H342 H 0.75883 0.46143 0.94188 0.0
H343 H 0.7348 0.44352 0.9787 0.0
H344 H 0.76751 0.43338 0.0629 0.0
H345 H 0.74691 0.41189 0.02535 0.0
H346 H 0.92024 0.54375 0.98035 0.0
H347 H 0.89533 0.53514 0.94298 0.0
H348 H 0.90782 0.57472 0.02725 0.0
H349 H 0.89136 0.54493 0.06396 0.0
C350 C 0.16395 0.46145 0.01899 0.0
C351 C 0.19918 0.47786 0.03566 0.0
C352 C 0.23202 0.49466 0.98207 0.0
C353 C 0.19533 0.48418 0.9658 0.0
N354 N 0.12425 0.47044 0.96928 0.0
N355 N 0.26583 0.51452 0.0342 0.0
C356 C 0.16075 0.47054 0.98435 0.0
C357 C 0.23312 0.49555 0.01751 0.0
N358 N 0.13321 0.43804 0.03633 0.0
N359 N 0.26568 0.50315 0.96363 0.0
H360 H 0.26799 0.51347 0.06009 0.0
H361 H 0.28982 0.53384 0.02262 0.0
H362 H 0.26547 0.50344 0.93767 0.0
H363 H 0.29409 0.50597 0.97386 0.0
H364 H 0.10855 0.42013 0.02488 0.0
H365 H 0.13375 0.43214 0.06201 0.0
H366 H 0.09747 0.4666 0.98217 0.0
H367 H 0.1204 0.48056 0.94432 0.0
C368 C 0.53501 0.98759 0.39192 0.0
C369 C 0.55545 0.00318 0.36241 0.0
C370 C 0.49307 0.04228 0.34021 0.0
C371 C 0.47177 0.02028 0.36772 0.0
N372 N 0.47194 0.96723 0.41858 0.0
N373 N 0.55245 0.0381 0.30614 0.0
C374 C 0.49264 0.9915 0.3932 0.0
C375 C 0.53409 0.02886 0.33601 0.0
N376 N 0.55606 0.97169 0.41941 0.0
N377 N 0.47428 0.07597 0.31791 0.0
H378 H 0.58229 0.02894 0.30169 0.0
H379 H 0.5373 0.05 0.28471 0.0
H380 H 0.44416 0.08587 0.31927 0.0
H381 H 0.48932 0.0982 0.29962 0.0
H382 H 0.54318 0.96626 0.44276 0.0
H383 H 0.58702 0.96878 0.41986 0.0
H384 H 0.48477 0.93977 0.43539 0.0
H385 H 0.44131 0.97189 0.42176 0.0
C386 C 0.47492 0.98947 0.09498 0.0
C387 C 0.45525 0.00172 0.12547 0.0
C388 C 0.51994 0.02416 0.15123 0.0
C389 C 0.53932 0.01335 0.12059 0.0
N390 N 0.53527 0.99768 0.06175 0.0
N391 N 0.45843 0.04225 0.18055 0.0
C392 C 0.51675 0.99924 0.09201 0.0
C393 C 0.47757 0.02267 0.15293 0.0
N394 N 0.45359 0.96933 0.06867 0.0
N395 N 0.54211 0.0337 0.1792 0.0
H396 H 0.42774 0.04016 0.18394 0.0
H397 H 0.47268 0.06429 0.19932 0.0
H398 H 0.57298 0.0383 0.17877 0.0
H399 H 0.53026 0.03372 0.20314 0.0
H400 H 0.46661 0.95347 0.0472 0.0
H401 H 0.42265 0.96574 0.06876 0.0
H402 H 0.5205 0.99229 0.03924 0.0
H403 H 0.56534 0.00748 0.05889 0.0
C404 C 0.52488 0.99632 0.65208 0.0
C405 C 0.54439 0.99609 0.62074 0.0
C406 C 0.4796 0.00186 0.59261 0.0
C407 C 0.46058 0.00877 0.62393 0.0
N408 N 0.465 0.01782 0.68348 0.0
N409 N 0.54133 0.0036 0.56107 0.0
C410 C 0.48326 0.00755 0.65369 0.0
C411 C 0.522 1.00034 0.59094 0.0
N412 N 0.5461 0.98451 0.68021 0.0
N413 N 0.4571 0.99458 0.56462 0.0
H414 H 0.57215 0.99927 0.55883 0.0
H415 H 0.52715 0.01352 0.53882 0.0
H416 H 0.42605 0.99468 0.56502 0.0
H417 H 0.46898 0.9839 0.54158 0.0
H418 H 0.53325 0.97926 0.70356 0.0
H419 H 0.57634 0.97469 0.67966 0.0
H420 H 0.48036 0.02317 0.70574 0.0
H421 H 0.43449 0.02539 0.68558 0.0
C422 C 0.5157 0.05746 0.84031 0.0
C423 C 0.53923 0.03143 0.8649 0.0
C424 C 0.47788 0.99473 0.89057 0.0
C425 C 0.4555 0.01254 0.8625 0.0
N426 N 0.45563 0.05221 0.80731 0.0
N427 N 0.54291 0.97492 0.91409 0.0
C428 C 0.47514 0.04165 0.83646 0.0
C429 C 0.52028 0.99976 0.89017 0.0
N430 N 0.53158 0.09849 0.82125 0.0
N431 N 0.45872 0.97597 0.91839 0.0
H432 H 0.5733 0.9827 0.91665 0.0
H433 H 0.53185 0.9454 0.93052 0.0
H434 H 0.42784 0.97306 0.92025 0.0
H435 H 0.47316 0.96808 0.94081 0.0
H436 H 0.5148 0.12172 0.80453 0.0
H437 H 0.5601 0.114 0.82542 0.0
H438 H 0.46977 0.0687 0.78647 0.0
H439 H 0.42661 0.03879 0.80268 0.0
C440 C 0.97512 0.50274 0.4007 0.0
C441 C 0.95437 0.49001 0.37082 0.0
C442 C 0.01821 0.46855 0.34329 0.0
C443 C 0.03861 0.47936 0.37345 0.0
N444 N 0.03652 0.4943 0.43243 0.0
N445 N 0.95569 0.45035 0.31548 0.0
C446 C 0.01701 0.49306 0.40261 0.0
C447 C 0.97579 0.46968 0.34269 0.0
N448 N 0.9548 0.52348 0.42741 0.0
N449 N 0.03947 0.45904 0.31482 0.0
H450 H 0.92487 0.45229 0.31296 0.0
H451 H 0.9693 0.42881 0.29617 0.0
H452 H 0.07034 0.4544 0.31457 0.0
H453 H 0.02686 0.45887 0.29116 0.0
H454 H 0.96866 0.53933 0.4485 0.0
H455 H 0.92394 0.52806 0.42787 0.0
H456 H 0.02243 0.49933 0.45529 0.0
H457 H 0.06664 0.48434 0.43452 0.0
C458 C 0.03631 0.4653 0.15961 0.0
C459 C 0.05703 0.48511 0.13099 0.0
C460 C 0.99425 0.48307 0.09923 0.0
C461 C 0.97325 0.46885 0.12862 0.0
N462 N 0.97302 0.44995 0.18741 0.0
N463 N 0.05573 0.51472 0.07362 0.0
C464 C 0.994 0.46045 0.15891 0.0
C465 C 0.03593 0.49475 0.10083 0.0
N466 N 0.05705 0.45045 0.18751 0.0
N467 N 0.97433 0.48331 0.06957 0.0
H468 H 0.08649 0.5204 0.07293 0.0
H469 H 0.04162 0.52856 0.05215 0.0
H470 H 0.94423 0.47294 0.06775 0.0
H471 H 0.98794 0.4886 0.04654 0.0
H472 H 0.0445 0.42909 0.20738 0.0
H473 H 0.08756 0.45649 0.19031 0.0
H474 H 0.98534 0.45154 0.21115 0.0
H475 H 0.94245 0.44231 0.18756 0.0
C476 C 0.97576 0.51432 0.60148 0.0
C477 C 0.9564 0.50833 0.63276 0.0
C478 C 0.01985 0.47872 0.65791 0.0
C479 C 0.03991 0.49057 0.62765 0.0
N480 N 0.03795 0.52194 0.57086 0.0
N481 N 0.96064 0.491 0.69173 0.0
C482 C 0.01807 0.5091 0.59952 0.0
C483 C 0.97864 0.49192 0.6612 0.0
N484 N 0.95356 0.52217 0.57335 0.0
N485 N 0.04011 0.45436 0.68349 0.0
H486 H 0.93055 0.49984 0.6952 0.0
H487 H 0.97602 0.48605 0.71401 0.0
H488 H 0.07027 0.44445 0.68217 0.0
H489 H 0.02647 0.43944 0.70494 0.0
H490 H 0.96527 0.52045 0.5494 0.0
H491 H 0.92264 0.52624 0.57363 0.0
H492 H 0.02495 0.54252 0.55089 0.0
H493 H 0.06821 0.51379 0.56762 0.0
C494 C 0.02873 0.47177 0.89315 0.0
C495 C 0.04968 0.51257 0.87431 0.0
C496 C 0.98649 0.53996 0.84881 0.0
C497 C 0.96505 0.50399 0.87025 0.0
N498 N 0.96618 0.4455 0.91886 0.0
N499 N 0.04514 0.59627 0.84161 0.0
C500 C 0.98624 0.47253 0.89415 0.0
C501 C 0.02754 0.55035 0.8547 0.0
N502 N 0.04911 0.43186 0.91006 0.0
N503 N 0.96826 0.56192 0.82152 0.0
H504 H 0.07473 0.60681 0.8459 0.0
H505 H 0.02902 0.62704 0.82948 0.0
H506 H 0.93936 0.55111 0.81477 0.0
H507 H 0.98344 0.58455 0.80346 0.0
H508 H 0.03521 0.39772 0.92074 0.0
H509 H 0.08002 0.43052 0.91153 0.0
H510 H 0.98045 0.42708 0.93901 0.0
H511 H 0.93526 0.44613 0.92115 0.0
C512 C 0.2504 0.28344 0.40565 0.0
C513 C 0.22981 0.30048 0.37657 0.0
C514 C 0.2682 0.23439 0.34323 0.0
C515 C 0.28632 0.21383 0.3726 0.0
N516 N 0.29137 0.2136 0.43241 0.0
N517 N 0.21389 0.28611 0.31877 0.0
C518 C 0.2767 0.23712 0.40405 0.0
C519 C 0.23722 0.27412 0.34569 0.0
N520 N 0.24532 0.31217 0.43459 0.0
N521 N 0.2817 0.21735 0.31281 0.0
H522 H 0.19063 0.31452 0.31969 0.0
H523 H 0.21497 0.26422 0.2965 0.0
H524 H 0.30501 0.1893 0.30997 0.0
H525 H 0.27266 0.23496 0.29043 0.0
H526 H 0.26266 0.30604 0.45574 0.0
H527 H 0.22505 0.3446 0.43683 0.0
H528 H 0.28212 0.22461 0.45622 0.0
H529 H 0.31103 0.18027 0.43211 0.0
C530 C 0.74776 0.77384 0.41156 0.0
C531 C 0.72348 0.7859 0.38357 0.0
C532 C 0.75087 0.70613 0.35416 0.0
C533 C 0.77278 0.69091 0.38302 0.0
N534 N 0.78691 0.70521 0.4412 0.0
N535 N 0.69523 0.75698 0.33133 0.0
C536 C 0.76989 0.72343 0.41236 0.0
C537 C 0.72279 0.74972 0.35597 0.0
N538 N 0.75005 0.81089 0.43709 0.0
N539 N 0.75861 0.68125 0.32432 0.0
H540 H 0.67417 0.78858 0.33172 0.0
H541 H 0.69063 0.72846 0.31233 0.0
H542 H 0.78058 0.65136 0.32119 0.0
H543 H 0.74654 0.69466 0.30186 0.0
H544 H 0.77045 0.80765 0.45651 0.0
H545 H 0.7328 0.8467 0.43784 0.0
H546 H 0.78245 0.72412 0.46416 0.0
H547 H 0.80297 0.66847 0.44267 0.0
C548 C 0.2264 0.73534 0.1379 0.0
C549 C 0.22657 0.70077 0.10956 0.0
C550 C 0.2734 0.76416 0.08189 0.0
C551 C 0.27673 0.79489 0.11188 0.0
N552 N 0.26335 0.80076 0.1709 0.0
N553 N 0.25284 0.67833 0.05551 0.0
C554 C 0.25501 0.7781 0.14054 0.0
C555 C 0.25088 0.71402 0.08175 0.0
N556 N 0.19875 0.72743 0.16242 0.0
N557 N 0.29032 0.78385 0.05335 0.0
H558 H 0.23542 0.6427 0.05417 0.0
H559 H 0.27315 0.68246 0.03608 0.0
H560 H 0.30673 0.82038 0.05259 0.0
H561 H 0.28552 0.76636 0.03003 0.0
H562 H 0.19466 0.75492 0.18206 0.0
H563 H 0.17708 0.69667 0.1613 0.0
H564 H 0.25131 0.78609 0.1931 0.0
H565 H 0.2858 0.8298 0.17456 0.0
C566 C 0.74429 0.21758 0.08725 0.0
C567 C 0.72989 0.19453 0.11744 0.0
C568 C 0.77382 0.25587 0.14932 0.0
C569 C 0.78579 0.28219 0.11943 0.0
N570 N 0.77972 0.29282 0.0601 0.0
N571 N 0.72536 0.19811 0.17725 0.0
C572 C 0.77034 0.26428 0.08836 0.0
C573 C 0.74314 0.2155 0.14848 0.0
N574 N 0.73399 0.19383 0.05764 0.0
N575 N 0.7927 0.26838 0.1785 0.0
H576 H 0.70232 0.16929 0.17765 0.0
H577 H 0.73062 0.21599 0.20038 0.0
H578 H 0.81572 0.29714 0.18001 0.0
H579 H 0.78835 0.24662 0.20053 0.0
H580 H 0.74675 0.20462 0.03495 0.0
H581 H 0.71425 0.16067 0.05604 0.0
H582 H 0.76612 0.28598 0.0372 0.0
H583 H 0.79968 0.32584 0.06001 0.0
C584 C 0.75564 0.79636 0.64106 0.0
C585 C 0.73308 0.81201 0.61269 0.0
C586 C 0.75967 0.73173 0.58237 0.0
C587 C 0.78427 0.71893 0.61003 0.0
N588 N 0.81248 0.74643 0.66258 0.0
N589 N 0.71901 0.80048 0.55429 0.0
C590 C 0.78452 0.75384 0.63828 0.0
C591 C 0.73653 0.78128 0.58269 0.0
N592 N 0.74776 0.81974 0.67132 0.0
N593 N 0.75803 0.69614 0.55607 0.0
H594 H 0.70224 0.83668 0.55361 0.0
H595 H 0.72375 0.78309 0.53093 0.0
H596 H 0.77609 0.66118 0.55449 0.0
H597 H 0.73749 0.69968 0.53678 0.0
H598 H 0.76044 0.80605 0.69347 0.0
H599 H 0.72515 0.84856 0.67497 0.0
H600 H 0.81663 0.77403 0.68214 0.0
H601 H 0.8343 0.71591 0.66132 0.0
C602 C 0.23908 0.27767 0.59178 0.0
C603 C 0.22825 0.30272 0.62241 0.0
C604 C 0.27486 0.242 0.65212 0.0
C605 C 0.28278 0.21344 0.62212 0.0
N606 N 0.2703 0.19993 0.56371 0.0
N607 N 0.23061 0.30282 0.68241 0.0
C608 C 0.26437 0.23021 0.59196 0.0
C609 C 0.24484 0.28334 0.65276 0.0
N610 N 0.22631 0.30034 0.56253 0.0
N611 N 0.29664 0.23016 0.67996 0.0
H612 H 0.2079 0.33199 0.68401 0.0
H613 H 0.23841 0.28633 0.70541 0.0
H614 H 0.31904 0.20033 0.68026 0.0
H615 H 0.29526 0.25324 0.70177 0.0
H616 H 0.23662 0.28799 0.53927 0.0
H617 H 0.20725 0.3343 0.56161 0.0
H618 H 0.25439 0.20598 0.54179 0.0
H619 H 0.28984 0.16647 0.56276 0.0
C620 C 0.74742 0.2339 0.8452 0.0
C621 C 0.72982 0.21466 0.87524 0.0
C622 C 0.76392 0.2887 0.90604 0.0
C623 C 0.78357 0.30504 0.87631 0.0
N624 N 0.79964 0.28759 0.8189 0.0
N625 N 0.72541 0.2184 0.935 0.0
C626 C 0.77707 0.27575 0.84633 0.0
C627 C 0.73909 0.24071 0.90593 0.0
N628 N 0.73435 0.21408 0.81528 0.0
N629 N 0.76846 0.31969 0.93418 0.0
H630 H 0.70696 0.18378 0.9357 0.0
H631 H 0.73448 0.23169 0.95843 0.0
H632 H 0.7878 0.35334 0.93541 0.0
H633 H 0.75162 0.31398 0.95567 0.0
H634 H 0.74275 0.23066 0.79244 0.0
H635 H 0.71191 0.18462 0.81318 0.0
H636 H 0.79949 0.26373 0.79736 0.0
H637 H 0.82136 0.31838 0.81867 0.0
C638 C 0.25914 0.71577 0.85484 0.0
C639 C 0.23888 0.69865 0.88418 0.0
C640 C 0.26724 0.77813 0.9141 0.0
C641 C 0.28968 0.79225 0.88538 0.0
N642 N 0.31358 0.76796 0.83083 0.0
N643 N 0.22919 0.70789 0.94338 0.0
C644 C 0.28787 0.75867 0.85663 0.0
C645 C 0.24441 0.72831 0.91435 0.0
N646 N 0.24911 0.69356 0.8247 0.0
N647 N 0.26721 0.81287 0.94087 0.0
H648 H 0.21274 0.67143 0.9445 0.0
H649 H 0.2356 0.72452 0.96666 0.0
H650 H 0.28502 0.84815 0.94196 0.0
H651 H 0.24807 0.80838 0.96109 0.0
H652 H 0.25988 0.70852 0.80213 0.0
H653 H 0.22661 0.66436 0.82172 0.0
H654 H 0.31645 0.74135 0.81063 0.0
H655 H 0.33488 0.79928 0.83118 0.0
C656 C 0.37434 0.99152 0.26331 0.0
C657 C 0.34263 0.02223 0.27745 0.0
C658 C 0.30214 0.00646 0.22759 0.0
C659 C 0.33502 0.9796 0.21239 0.0
N660 N 0.40405 0.95078 0.21432 0.0
N661 N 0.27851 0.06617 0.27171 0.0
C662 C 0.37146 0.97275 0.22996 0.0
C663 C 0.30718 0.03189 0.25916 0.0
N664 N 0.40744 0.98056 0.28179 0.0
N665 N 0.2654 0.00468 0.21291 0.0
H666 H 0.28025 0.08387 0.2953 0.0
H667 H 0.25441 0.08036 0.25784 0.0
H668 H 0.25993 0.98467 0.19042 0.0
H669 H 0.23943 0.01818 0.22451 0.0
H670 H 0.42909 0.95172 0.27539 0.0
H671 H 0.41233 0.99893 0.30464 0.0
H672 H 0.4325 0.94977 0.22454 0.0
H673 H 0.40417 0.93824 0.18959 0.0
C674 C 0.64331 0.96758 0.22235 0.0
C675 C 0.67314 0.0025 0.20912 0.0
C676 C 0.7098 0.99664 0.26185 0.0
C677 C 0.677 0.96841 0.27644 0.0
N678 N 0.60866 0.93714 0.27158 0.0
N679 N 0.73341 0.05522 0.21714 0.0
C680 C 0.64271 0.95649 0.25695 0.0
C681 C 0.70588 0.01877 0.22921 0.0
N682 N 0.61576 0.94426 0.20183 0.0
N683 N 0.74552 0.99934 0.27809 0.0
H684 H 0.73335 0.06923 0.19262 0.0
H685 H 0.75491 0.07396 0.23202 0.0
H686 H 0.75059 0.98111 0.30117 0.0
H687 H 0.77144 0.01451 0.26715 0.0
H688 H 0.59563 0.91409 0.2095 0.0
H689 H 0.61615 0.95078 0.17636 0.0
H690 H 0.58171 0.93332 0.25893 0.0
H691 H 0.60563 0.93143 0.29712 0.0
C692 C 0.63932 0.04466 0.75449 0.0
C693 C 0.67136 0.0334 0.77629 0.0
C694 C 0.70674 0.98771 0.73043 0.0
C695 C 0.67608 0.00432 0.70826 0.0
N696 N 0.62056 0.06465 0.69813 0.0
N697 N 0.73976 0.00403 0.78313 0.0
C698 C 0.64464 0.03779 0.71995 0.0
C699 C 0.70631 0.00731 0.76388 0.0
N700 N 0.60306 0.05953 0.76686 0.0
N701 N 0.73645 0.95376 0.71948 0.0
H702 H 0.74132 0.01954 0.80726 0.0
H703 H 0.76718 0.99053 0.77413 0.0
H704 H 0.73962 0.94274 0.69454 0.0
H705 H 0.75675 0.93471 0.73535 0.0
H706 H 0.57771 0.06372 0.7521 0.0
H707 H 0.59752 0.06031 0.79229 0.0
H708 H 0.5987 0.09272 0.70542 0.0
H709 H 0.62658 0.0644 0.67288 0.0
C710 C 0.32107 0.94158 0.75511 0.0
C711 C 0.3159 0.97979 0.78152 0.0
C712 C 0.30776 0.05243 0.73942 0.0
C713 C 0.32488 0.01698 0.7151 0.0
N714 N 0.3515 0.92697 0.70179 0.0
N715 N 0.29741 0.07326 0.79736 0.0
C716 C 0.33227 0.96115 0.72336 0.0
C717 C 0.30716 0.03579 0.77339 0.0
N718 N 0.3131 0.88684 0.7597 0.0
N719 N 0.2893 0.10015 0.72982 0.0
H720 H 0.28639 0.06252 0.82059 0.0
H721 H 0.29879 0.11572 0.79336 0.0
H722 H 0.28552 0.11115 0.70496 0.0
H723 H 0.27324 0.1252 0.74605 0.0
H724 H 0.31409 0.8582 0.74035 0.0
H725 H 0.29964 0.87194 0.78131 0.0
H726 H 0.36055 0.88724 0.70831 0.0
H727 H 0.36212 0.94033 0.67897 0.0
C728 C 0.80824 0.44542 0.23976 0.0
C729 C 0.83957 0.46578 0.21937 0.0
C730 C 0.86672 0.51667 0.26674 0.0
C731 C 0.83319 0.50129 0.28629 0.0
N732 N 0.76745 0.46044 0.28859 0.0
N733 N 0.89347 0.53016 0.21176 0.0
C734 C 0.80277 0.46777 0.27222 0.0
C735 C 0.86712 0.50437 0.23234 0.0
N736 N 0.78326 0.40535 0.22803 0.0
N737 N 0.89914 0.54113 0.28115 0.0
H738 H 0.89458 0.5219 0.18654 0.0
H739 H 0.91122 0.56329 0.21904 0.0
H740 H 0.9015 0.54843 0.30658 0.0
H741 H 0.92591 0.54775 0.26863 0.0
H742 H 0.76331 0.38399 0.24316 0.0
H743 H 0.78402 0.39105 0.20359 0.0
H744 H 0.74275 0.44144 0.27788 0.0
H745 H 0.76108 0.47817 0.31157 0.0
C746 C 0.20474 0.46807 0.2631 0.0
C747 C 0.17216 0.48612 0.28286 0.0
C748 C 0.14291 0.53156 0.23441 0.0
C749 C 0.1773 0.51831 0.21531 0.0
N750 N 0.24527 0.48506 0.21439 0.0
N751 N 0.11527 0.54561 0.28914 0.0
C752 C 0.2094 0.48928 0.23032 0.0
C753 C 0.14291 0.52131 0.26909 0.0
N754 N 0.23142 0.43089 0.27561 0.0
N755 N 0.10934 0.5515 0.21934 0.0
H756 H 0.11486 0.53927 0.31463 0.0
H757 H 0.0957 0.57616 0.28107 0.0
H758 H 0.10673 0.55663 0.19372 0.0
H759 H 0.08228 0.55634 0.23169 0.0
H760 H 0.25265 0.41102 0.26097 0.0
H761 H 0.23086 0.41727 0.3002 0.0
H762 H 0.27078 0.46934 0.22568 0.0
H763 H 0.25097 0.50254 0.1912 0.0
C764 C 0.13861 0.5277 0.76667 0.0
C765 C 0.17393 0.51948 0.78536 0.0
C766 C 0.20537 0.47687 0.73656 0.0
C767 C 0.17119 0.49002 0.71733 0.0
N768 N 0.10906 0.5388 0.71252 0.0
N769 N 0.24395 0.49619 0.78615 0.0
C770 C 0.13903 0.51886 0.73192 0.0
C771 C 0.2082 0.49651 0.76987 0.0
N772 N 0.10396 0.54144 0.78236 0.0
N773 N 0.23503 0.44532 0.72311 0.0
H774 H 0.24769 0.51155 0.81015 0.0
H775 H 0.27071 0.48541 0.77477 0.0
H776 H 0.23519 0.43299 0.69826 0.0
H777 H 0.2582 0.42864 0.7371 0.0
H778 H 0.07631 0.54218 0.77059 0.0
H779 H 0.10224 0.54596 0.80796 0.0
H780 H 0.08681 0.56508 0.72121 0.0
H781 H 0.10902 0.53357 0.68697 0.0
C782 C 0.79771 0.50496 0.72893 0.0
C783 C 0.82867 0.54001 0.717 0.0
C784 C 0.85212 0.55109 0.77418 0.0
C785 C 0.82732 0.50741 0.78471 0.0
N786 N 0.77651 0.44041 0.77144 0.0
N787 N 0.89157 0.58557 0.72886 0.0
C788 C 0.80029 0.48328 0.76178 0.0
C789 C 0.8576 0.56024 0.73977 0.0
N790 N 0.76455 0.49527 0.7101 0.0
N791 N 0.86984 0.58482 0.79679 0.0
H792 H 0.89925 0.58888 0.70384 0.0
H793 H 0.91467 0.5966 0.74489 0.0
H794 H 0.86423 0.58131 0.82206 0.0
H795 H 0.88571 0.6201 0.79004 0.0
H796 H 0.73979 0.47393 0.71899 0.0
H797 H 0.75938 0.51416 0.68725 0.0
H798 H 0.76001 0.4169 0.75467 0.0
H799 H 0.77473 0.42679 0.79601 0.0
loop_
_geom_bond_atom_site_label_1
_geom_bond_atom_site_label_2
_geom_bond_distance
_geom_bond_site_symmetry_2
_ccdc_geom_bond_type
Co0 O1 2.216 . S
Co0 O2 2.091 . S
Co0 O4 2.004 . S
Co0 O10 2.021 . S
Co0 O12 2.137 . S
Co0 O13 2.244 1_545 S
O1 Co0 2.216 . S
O1 C8 1.247 . S
O2 Co0 2.091 . S
O2 C8 1.261 . S
C3 O12 1.247 . S
C3 O13 1.272 1_545 S
O4 Co0 2.004 . S
O4 C9 1.259 . S
Co5 O6 2.061 . S
Co5 O11 2.052 . S
Co5 O13 2.135 . S
O6 Co5 2.061 . S
O6 C9 1.235 1_565 S
C7 O10 1.238 . S
C7 O11 1.241 1_545 S
C8 O1 1.247 . S
C8 O2 1.261 . S
C9 O4 1.259 . S
C9 O6 1.235 1_545 S
O10 Co0 2.021 . S
O10 C7 1.238 . S
O11 Co5 2.052 . S
O11 C7 1.241 1_565 S
O12 Co0 2.137 . S
O12 C3 1.247 . S
O13 Co0 2.244 1_565 S
O13 C3 1.272 1_565 S
O13 Co5 2.135 . S
Co14 O15 2.216 . S
Co14 O16 2.091 . S
Co14 O18 2.004 . S
Co14 O24 2.021 . S
Co14 O26 2.137 . S
Co14 O27 2.244 1_565 S
O15 Co14 2.216 . S
O15 C22 1.247 . S
O16 Co14 2.091 . S
O16 C22 1.261 . S
C17 O26 1.247 . S
C17 O27 1.272 1_565 S
O18 Co14 2.004 . S
O18 C23 1.259 . S
Co19 O20 2.061 . S
Co19 O25 2.052 . S
Co19 O27 2.135 . S
O20 Co19 2.061 . S
O20 C23 1.235 1_545 S
C21 O24 1.238 . S
C21 O25 1.241 1_565 S
C22 O15 1.247 . S
C22 O16 1.261 . S
C23 O18 1.259 . S
C23 O20 1.235 1_565 S
O24 Co14 2.021 . S
O24 C21 1.238 . S
O25 Co19 2.052 . S
O25 C21 1.241 1_545 S
O26 Co14 2.137 . S
O26 C17 1.247 . S
O27 Co14 2.244 1_545 S
O27 C17 1.272 1_545 S
O27 Co19 2.135 . S
Co28 O29 2.216 . S
Co28 O30 2.091 . S
Co28 O32 2.004 . S
Co28 O38 2.021 . S
Co28 O40 2.137 . S
Co28 O41 2.244 1_565 S
O29 Co28 2.216 . S
O29 C36 1.247 . S
O30 Co28 2.091 . S
O30 C36 1.261 . S
C31 O40 1.247 . S
C31 O41 1.272 1_565 S
O32 Co28 2.004 . S
O32 C37 1.259 . S
Co33 O34 2.061 . S
Co33 O39 2.052 . S
Co33 O41 2.135 . S
O34 Co33 2.061 . S
O34 C37 1.235 1_545 S
C35 O38 1.238 . S
C35 O39 1.241 1_565 S
C36 O29 1.247 . S
C36 O30 1.261 . S
C37 O32 1.259 . S
C37 O34 1.235 1_565 S
O38 Co28 2.021 . S
O38 C35 1.238 . S
O39 Co33 2.052 . S
O39 C35 1.241 1_545 S
O40 Co28 2.137 . S
O40 C31 1.247 . S
O41 Co28 2.244 1_545 S
O41 C31 1.272 1_545 S
O41 Co33 2.135 . S
Co42 O43 2.216 . S
Co42 O44 2.091 . S
Co42 O46 2.004 . S
Co42 O52 2.021 . S
Co42 O54 2.137 . S
Co42 O55 2.244 1_545 S
O43 Co42 2.216 . S
O43 C50 1.247 . S
O44 Co42 2.091 . S
O44 C50 1.261 . S
C45 O54 1.247 . S
C45 O55 1.272 1_545 S
O46 Co42 2.004 . S
O46 C51 1.259 . S
Co47 O48 2.061 . S
Co47 O53 2.052 . S
Co47 O55 2.135 . S
O48 Co47 2.061 . S
O48 C51 1.235 1_565 S
C49 O52 1.238 . S
C49 O53 1.241 1_545 S
C50 O43 1.247 . S
C50 O44 1.261 . S
C51 O46 1.259 . S
C51 O48 1.235 1_545 S
O52 Co42 2.021 . S
O52 C49 1.238 . S
O53 Co47 2.052 . S
O53 C49 1.241 1_565 S
O54 Co42 2.137 . S
O54 C45 1.247 . S
O55 Co42 2.244 1_565 S
O55 C45 1.272 1_565 S
O55 Co47 2.135 . S
Co56 O57 2.216 . S
Co56 O58 2.091 . S
Co56 O60 2.004 . S
Co56 O66 2.021 . S
Co56 O68 2.137 . S
Co56 O69 2.244 1_565 S
O57 Co56 2.216 . S
O57 C64 1.247 . S
O58 Co56 2.091 . S
O58 C64 1.261 . S
C59 O68 1.247 . S
C59 O69 1.272 1_565 S
O60 Co56 2.004 . S
O60 C65 1.259 . S
Co61 O62 2.061 . S
Co61 O67 2.052 . S
Co61 O69 2.135 . S
O62 Co61 2.061 . S
O62 C65 1.235 1_545 S
C63 O66 1.238 . S
C63 O67 1.241 1_565 S
C64 O57 1.247 . S
C64 O58 1.261 . S
C65 O60 1.259 . S
C65 O62 1.235 1_565 S
O66 Co56 2.021 . S
O66 C63 1.238 . S
O67 Co61 2.052 . S
O67 C63 1.241 1_545 S
O68 Co56 2.137 . S
O68 C59 1.247 . S
O69 Co56 2.244 1_545 S
O69 C59 1.272 1_545 S
O69 Co61 2.135 . S
Co70 O71 2.216 . S
Co70 O72 2.091 . S
Co70 O74 2.004 . S
Co70 O80 2.021 . S
Co70 O82 2.137 . S
Co70 O83 2.244 1_545 S
O71 Co70 2.216 . S
O71 C78 1.247 . S
O72 Co70 2.091 . S
O72 C78 1.261 . S
C73 O82 1.247 . S
C73 O83 1.272 1_545 S
O74 Co70 2.004 . S
O74 C79 1.259 . S
Co75 O76 2.061 . S
Co75 O81 2.052 . S
Co75 O83 2.135 . S
O76 Co75 2.061 . S
O76 C79 1.235 1_565 S
C77 O80 1.238 . S
C77 O81 1.241 1_545 S
C78 O71 1.247 . S
C78 O72 1.261 . S
C79 O74 1.259 . S
C79 O76 1.235 1_545 S
O80 Co70 2.021 . S
O80 C77 1.238 . S
O81 Co75 2.052 . S
O81 C77 1.241 1_565 S
O82 Co70 2.137 . S
O82 C73 1.247 . S
O83 Co70 2.244 1_565 S
O83 C73 1.272 1_565 S
O83 Co75 2.135 . S
Co84 O85 2.216 . S
Co84 O86 2.091 . S
Co84 O88 2.004 . S
Co84 O94 2.021 . S
Co84 O96 2.137 . S
Co84 O97 2.244 1_545 S
O85 Co84 2.216 . S
O85 C92 1.247 . S
O86 Co84 2.091 . S
O86 C92 1.261 . S
C87 O96 1.247 . S
C87 O97 1.272 1_545 S
O88 Co84 2.004 . S
O88 C93 1.259 . S
Co89 O90 2.061 . S
Co89 O95 2.052 . S
Co89 O97 2.135 . S
O90 Co89 2.061 . S
O90 C93 1.235 1_565 S
C91 O94 1.238 . S
C91 O95 1.241 1_545 S
C92 O85 1.247 . S
C92 O86 1.261 . S
C93 O88 1.259 . S
C93 O90 1.235 1_545 S
O94 Co84 2.021 . S
O94 C91 1.238 . S
O95 Co89 2.052 . S
O95 C91 1.241 1_565 S
O96 Co84 2.137 . S
O96 C87 1.247 . S
O97 Co84 2.244 1_565 S
O97 C87 1.272 1_565 S
O97 Co89 2.135 . S
Co98 O99 2.216 . S
Co98 O100 2.091 . S
Co98 O102 2.004 . S
Co98 O108 2.021 . S
Co98 O110 2.137 . S
Co98 O111 2.244 1_565 S
O99 Co98 2.216 . S
O99 C106 1.247 . S
O100 Co98 2.091 . S
O100 C106 1.261 . S
C101 O110 1.247 . S
C101 O111 1.272 1_565 S
O102 Co98 2.004 . S
O102 C107 1.259 . S
Co103 O104 2.061 . S
Co103 O109 2.052 . S
Co103 O111 2.135 . S
O104 Co103 2.061 . S
O104 C107 1.235 1_545 S
C105 O108 1.238 . S
C105 O109 1.241 1_565 S
C106 O99 1.247 . S
C106 O100 1.261 . S
C107 O102 1.259 . S
C107 O104 1.235 1_565 S
O108 Co98 2.021 . S
O108 C105 1.238 . S
O109 Co103 2.052 . S
O109 C105 1.241 1_545 S
O110 Co98 2.137 . S
O110 C101 1.247 . S
O111 Co98 2.244 1_545 S
O111 C101 1.272 1_545 S
O111 Co103 2.135 . S
Co112 O113 2.216 . S
Co112 O114 2.091 . S
Co112 O116 2.004 . S
Co112 O122 2.021 . S
Co112 O124 2.137 . S
Co112 O125 2.244 . S
O113 Co112 2.216 . S
O113 C120 1.247 . S
O114 Co112 2.091 . S
O114 C120 1.261 . S
C115 O124 1.247 . S
C115 O125 1.272 . S
O116 Co112 2.004 . S
O116 C121 1.259 . S
Co117 O118 2.061 . S
Co117 O123 2.052 . S
Co117 O125 2.135 . S
O118 Co117 2.061 . S
O118 C121 1.235 . S
C119 O122 1.238 . S
C119 O123 1.241 . S
C120 O113 1.247 . S
C120 O114 1.261 . S
C121 O116 1.259 . S
C121 O118 1.235 . S
O122 Co112 2.021 . S
O122 C119 1.238 . S
O123 Co117 2.052 . S
O123 C119 1.241 . S
O124 Co112 2.137 . S
O124 C115 1.247 . S
O125 Co112 2.244 . S
O125 C115 1.272 . S
O125 Co117 2.135 . S
Co126 O127 2.216 . S
Co126 O128 2.091 . S
Co126 O130 2.004 . S
Co126 O136 2.021 . S
Co126 O138 2.137 . S
Co126 O139 2.244 . S
O127 Co126 2.216 . S
O127 C134 1.247 . S
O128 Co126 2.091 . S
O128 C134 1.261 . S
C129 O138 1.247 . S
C129 O139 1.272 . S
O130 Co126 2.004 . S
O130 C135 1.259 . S
Co131 O132 2.061 . S
Co131 O137 2.052 . S
Co131 O139 2.135 . S
O132 Co131 2.061 . S
O132 C135 1.235 . S
C133 O136 1.238 . S
C133 O137 1.241 . S
C134 O127 1.247 . S
C134 O128 1.261 . S
C135 O130 1.259 . S
C135 O132 1.235 . S
O136 Co126 2.021 . S
O136 C133 1.238 . S
O137 Co131 2.052 . S
O137 C133 1.241 . S
O138 Co126 2.137 . S
O138 C129 1.247 . S
O139 Co126 2.244 . S
O139 C129 1.272 . S
O139 Co131 2.135 . S
Co140 O141 2.216 . S
Co140 O142 2.091 . S
Co140 O144 2.004 . S
Co140 O150 2.021 . S
Co140 O152 2.137 . S
Co140 O153 2.244 . S
O141 Co140 2.216 . S
O141 C148 1.247 . S
O142 Co140 2.091 . S
O142 C148 1.261 . S
C143 O152 1.247 . S
C143 O153 1.272 . S
O144 Co140 2.004 . S
O144 C149 1.259 . S
Co145 O146 2.061 . S
Co145 O151 2.052 . S
Co145 O153 2.135 . S
O146 Co145 2.061 . S
O146 C149 1.235 . S
C147 O150 1.238 . S
C147 O151 1.241 . S
C148 O141 1.247 . S
C148 O142 1.261 . S
C149 O144 1.259 . S
C149 O146 1.235 . S
O150 Co140 2.021 . S
O150 C147 1.238 . S
O151 Co145 2.052 . S
O151 C147 1.241 . S
O152 Co140 2.137 . S
O152 C143 1.247 . S
O153 Co140 2.244 . S
O153 C143 1.272 . S
O153 Co145 2.135 . S
Co154 O155 2.216 . S
Co154 O156 2.091 . S
Co154 O158 2.004 . S
Co154 O164 2.021 . S
Co154 O166 2.137 . S
Co154 O167 2.244 . S
O155 Co154 2.216 . S
O155 C162 1.247 . S
O156 Co154 2.091 . S
O156 C162 1.261 . S
C157 O166 1.247 . S
C157 O167 1.272 . S
O158 Co154 2.004 . S
O158 C163 1.259 . S
Co159 O160 2.061 . S
Co159 O165 2.052 . S
Co159 O167 2.135 . S
O160 Co159 2.061 . S
O160 C163 1.235 . S
C161 O164 1.238 . S
C161 O165 1.241 . S
C162 O155 1.247 . S
C162 O156 1.261 . S
C163 O158 1.259 . S
C163 O160 1.235 . S
O164 Co154 2.021 . S
O164 C161 1.238 . S
O165 Co159 2.052 . S
O165 C161 1.241 . S
O166 Co154 2.137 . S
O166 C157 1.247 . S
O167 Co154 2.244 . S
O167 C157 1.272 . S
O167 Co159 2.135 . S
Co168 O169 2.216 . S
Co168 O170 2.091 . S
Co168 O172 2.004 . S
Co168 O178 2.021 . S
Co168 O180 2.137 . S
Co168 O181 2.244 . S
O169 Co168 2.216 . S
O169 C176 1.247 . S
O170 Co168 2.091 . S
O170 C176 1.261 . S
C171 O180 1.247 . S
C171 O181 1.272 . S
O172 Co168 2.004 . S
O172 C177 1.259 . S
Co173 O174 2.061 . S
Co173 O179 2.052 . S
Co173 O181 2.135 . S
O174 Co173 2.061 . S
O174 C177 1.235 . S
C175 O178 1.238 . S
C175 O179 1.241 . S
C176 O169 1.247 . S
C176 O170 1.261 . S
C177 O172 1.259 . S
C177 O174 1.235 . S
O178 Co168 2.021 . S
O178 C175 1.238 . S
O179 Co173 2.052 . S
O179 C175 1.241 . S
O180 Co168 2.137 . S
O180 C171 1.247 . S
O181 Co168 2.244 . S
O181 C171 1.272 . S
O181 Co173 2.135 . S
Co182 O183 2.216 . S
Co182 O184 2.091 . S
Co182 O186 2.004 . S
Co182 O192 2.021 . S
Co182 O194 2.137 . S
Co182 O195 2.244 . S
O183 Co182 2.216 . S
O183 C190 1.247 . S
O184 Co182 2.091 . S
O184 C190 1.261 . S
C185 O194 1.247 . S
C185 O195 1.272 . S
O186 Co182 2.004 . S
O186 C191 1.259 . S
Co187 O188 2.061 . S
Co187 O193 2.052 . S
Co187 O195 2.135 . S
O188 Co187 2.061 . S
O188 C191 1.235 . S
C189 O192 1.238 . S
C189 O193 1.241 . S
C190 O183 1.247 . S
C190 O184 1.261 . S
C191 O186 1.259 . S
C191 O188 1.235 . S
O192 Co182 2.021 . S
O192 C189 1.238 . S
O193 Co187 2.052 . S
O193 C189 1.241 . S
O194 Co182 2.137 . S
O194 C185 1.247 . S
O195 Co182 2.244 . S
O195 C185 1.272 . S
O195 Co187 2.135 . S
Co196 O197 2.216 . S
Co196 O198 2.091 . S
Co196 O200 2.004 . S
Co196 O206 2.021 . S
Co196 O208 2.137 . S
Co196 O209 2.244 . S
O197 Co196 2.216 . S
O197 C204 1.247 . S
O198 Co196 2.091 . S
O198 C204 1.261 . S
C199 O208 1.247 . S
C199 O209 1.272 . S
O200 Co196 2.004 . S
O200 C205 1.259 . S
Co201 O202 2.061 . S
Co201 O207 2.052 . S
Co201 O209 2.135 . S
O202 Co201 2.061 . S
O202 C205 1.235 . S
C203 O206 1.238 . S
C203 O207 1.241 . S
C204 O197 1.247 . S
C204 O198 1.261 . S
C205 O200 1.259 . S
C205 O202 1.235 . S
O206 Co196 2.021 . S
O206 C203 1.238 . S
O207 Co201 2.052 . S
O207 C203 1.241 . S
O208 Co196 2.137 . S
O208 C199 1.247 . S
O209 Co196 2.244 . S
O209 C199 1.272 . S
O209 Co201 2.135 . S
Co210 O211 2.216 . S
Co210 O212 2.091 . S
Co210 O214 2.004 . S
Co210 O220 2.021 . S
Co210 O222 2.137 . S
Co210 O223 2.244 . S
O211 Co210 2.216 . S
O211 C218 1.247 . S
O212 Co210 2.091 . S
O212 C218 1.261 . S
C213 O222 1.247 . S
C213 O223 1.272 . S
O214 Co210 2.004 . S
O214 C219 1.259 . S
Co215 O216 2.061 . S
Co215 O221 2.052 . S
Co215 O223 2.135 . S
O216 Co215 2.061 . S
O216 C219 1.235 . S
C217 O220 1.238 . S
C217 O221 1.241 . S
C218 O211 1.247 . S
C218 O212 1.261 . S
C219 O214 1.259 . S
C219 O216 1.235 . S
O220 Co210 2.021 . S
O220 C217 1.238 . S
O221 Co215 2.052 . S
O221 C217 1.241 . S
O222 Co210 2.137 . S
O222 C213 1.247 . S
O223 Co210 2.244 . S
O223 C213 1.272 . S
O223 Co215 2.135 . S
C224 C225 1.363 . S
C224 C230 1.379 . S
C224 N232 1.356 . S
C225 C224 1.363 . S
C225 C231 1.363 1_545 S
C226 C227 1.363 1_565 S
C226 C231 1.379 . S
C226 N233 1.356 . S
C227 C226 1.363 1_545 S
C227 C230 1.363 . S
N228 C230 1.356 . S
N228 H240 0.984 . S
N228 H241 0.985 . S
N229 C231 1.356 . S
N229 H234 0.984 . S
N229 H235 0.985 . S
C230 C224 1.379 . S
C230 C227 1.363 . S
C230 N228 1.356 . S
C231 C225 1.363 1_565 S
C231 C226 1.379 . S
C231 N229 1.356 . S
N232 C224 1.356 . S
N232 H238 0.984 . S
N232 H239 0.984 . S
N233 C226 1.356 . S
N233 H236 0.984 . S
N233 H237 0.985 . S
H234 N229 0.984 . S
H235 N229 0.985 . S
H236 N233 0.984 . S
H237 N233 0.985 . S
H238 N232 0.984 . S
H239 N232 0.984 . S
H240 N228 0.984 . S
H241 N228 0.985 . S
C242 C243 1.363 . S
C242 C248 1.379 . S
C242 N250 1.356 . S
C243 C242 1.363 . S
C243 C249 1.363 1_565 S
C244 C245 1.363 1_545 S
C244 C249 1.379 . S
C244 N251 1.356 . S
C245 C244 1.363 1_565 S
C245 C248 1.363 . S
N246 C248 1.356 . S
N246 H258 0.984 . S
N246 H259 0.985 . S
N247 C249 1.356 . S
N247 H252 0.984 . S
N247 H253 0.985 . S
C248 C242 1.379 . S
C248 C245 1.363 . S
C248 N246 1.356 . S
C249 C243 1.363 1_545 S
C249 C244 1.379 . S
C249 N247 1.356 . S
N250 C242 1.356 . S
N250 H256 0.984 . S
N250 H257 0.984 . S
N251 C244 1.356 . S
N251 H254 0.984 . S
N251 H255 0.985 . S
H252 N247 0.984 . S
H253 N247 0.985 . S
H254 N251 0.984 . S
H255 N251 0.985 . S
H256 N250 0.984 . S
H257 N250 0.984 . S
H258 N246 0.984 . S
H259 N246 0.985 . S
C260 C261 1.363 1_545 S
C260 C266 1.379 1_554 S
C260 N268 1.356 . S
C261 C260 1.363 1_565 S
C261 C267 1.363 . S
C262 C263 1.363 . S
C262 C267 1.379 1_556 S
C262 N269 1.356 . S
C263 C262 1.363 . S
C263 C266 1.363 1_565 S
N264 C266 1.356 . S
N264 H276 0.984 . S
N264 H277 0.985 . S
N265 C267 1.356 . S
N265 H270 0.984 . S
N265 H271 0.985 . S
C266 C260 1.379 1_556 S
C266 C263 1.363 1_545 S
C266 N264 1.356 . S
C267 C261 1.363 . S
C267 C262 1.379 1_554 S
C267 N265 1.356 . S
N268 C260 1.356 . S
N268 H274 0.984 . S
N268 H275 0.984 . S
N269 C262 1.356 . S
N269 H272 0.984 . S
N269 H273 0.985 . S
H270 N265 0.984 . S
H271 N265 0.985 . S
H272 N269 0.984 . S
H273 N269 0.985 . S
H274 N268 0.984 . S
H275 N268 0.984 . S
H276 N264 0.984 . S
H277 N264 0.985 . S
C278 C279 1.363 1_565 S
C278 C284 1.379 1_556 S
C278 N286 1.356 . S
C279 C278 1.363 1_545 S
C279 C285 1.363 . S
C280 C281 1.363 . S
C280 C285 1.379 1_554 S
C280 N287 1.356 . S
C281 C280 1.363 . S
C281 C284 1.363 1_545 S
N282 C284 1.356 . S
N282 H294 0.984 . S
N282 H295 0.985 . S
N283 C285 1.356 . S
N283 H288 0.984 . S
N283 H289 0.985 . S
C284 C278 1.379 1_554 S
C284 C281 1.363 1_565 S
C284 N282 1.356 . S
C285 C279 1.363 . S
C285 C280 1.379 1_556 S
C285 N283 1.356 . S
N286 C278 1.356 . S
N286 H292 0.984 . S
N286 H293 0.984 . S
N287 C280 1.356 . S
N287 H290 0.984 . S
N287 H291 0.985 . S
H288 N283 0.984 . S
H289 N283 0.985 . S
H290 N287 0.984 . S
H291 N287 0.985 . S
H292 N286 0.984 . S
H293 N286 0.984 . S
H294 N282 0.984 . S
H295 N282 0.985 . S
C296 C297 1.363 . S
C296 C302 1.379 . S
C296 N304 1.356 . S
C297 C296 1.363 . S
C297 C303 1.363 . S
C298 C299 1.363 . S
C298 C303 1.379 . S
C298 N305 1.356 . S
C299 C298 1.363 . S
C299 C302 1.363 . S
N300 C302 1.356 . S
N300 H312 0.984 . S
N300 H313 0.985 . S
N301 C303 1.356 . S
N301 H306 0.984 . S
N301 H307 0.985 . S
C302 C296 1.379 . S
C302 C299 1.363 . S
C302 N300 1.356 . S
C303 C297 1.363 . S
C303 C298 1.379 . S
C303 N301 1.356 . S
N304 C296 1.356 . S
N304 H310 0.984 . S
N304 H311 0.984 . S
N305 C298 1.356 . S
N305 H308 0.984 . S
N305 H309 0.985 . S
H306 N301 0.984 . S
H307 N301 0.985 . S
H308 N305 0.984 . S
H309 N305 0.985 . S
H310 N304 0.984 . S
H311 N304 0.984 . S
H312 N300 0.984 . S
H313 N300 0.985 . S
C314 C315 1.363 . S
C314 C320 1.379 . S
C314 N322 1.356 . S
C315 C314 1.363 . S
C315 C321 1.363 . S
C316 C317 1.363 . S
C316 C321 1.379 . S
C316 N323 1.356 . S
C317 C316 1.363 . S
C317 C320 1.363 . S
N318 C320 1.356 . S
N318 H330 0.984 . S
N318 H331 0.985 . S
N319 C321 1.356 . S
N319 H324 0.984 . S
N319 H325 0.985 . S
C320 C314 1.379 . S
C320 C317 1.363 . S
C320 N318 1.356 . S
C321 C315 1.363 . S
C321 C316 1.379 . S
C321 N319 1.356 . S
N322 C314 1.356 . S
N322 H328 0.984 . S
N322 H329 0.984 . S
N323 C316 1.356 . S
N323 H326 0.984 . S
N323 H327 0.985 . S
H324 N319 0.984 . S
H325 N319 0.985 . S
H326 N323 0.984 . S
H327 N323 0.985 . S
H328 N322 0.984 . S
H329 N322 0.984 . S
H330 N318 0.984 . S
H331 N318 0.985 . S
C332 C333 1.363 . S
C332 C338 1.379 1_556 S
C332 N340 1.356 . S
C333 C332 1.363 . S
C333 C339 1.363 . S
C334 C335 1.363 . S
C334 C339 1.379 1_554 S
C334 N341 1.356 . S
C335 C334 1.363 . S
C335 C338 1.363 . S
N336 C338 1.356 . S
N336 H348 0.984 . S
N336 H349 0.985 . S
N337 C339 1.356 . S
N337 H342 0.984 . S
N337 H343 0.985 . S
C338 C332 1.379 1_554 S
C338 C335 1.363 . S
C338 N336 1.356 . S
C339 C333 1.363 . S
C339 C334 1.379 1_556 S
C339 N337 1.356 . S
N340 C332 1.356 . S
N340 H346 0.984 . S
N340 H347 0.984 . S
N341 C334 1.356 . S
N341 H344 0.984 . S
N341 H345 0.985 . S
H342 N337 0.984 . S
H343 N337 0.985 . S
H344 N341 0.984 . S
H345 N341 0.985 . S
H346 N340 0.984 . S
H347 N340 0.984 . S
H348 N336 0.984 . S
H349 N336 0.985 . S
C350 C351 1.363 . S
C350 C356 1.379 1_554 S
C350 N358 1.356 . S
C351 C350 1.363 . S
C351 C357 1.363 . S
C352 C353 1.363 . S
C352 C357 1.379 1_556 S
C352 N359 1.356 . S
C353 C352 1.363 . S
C353 C356 1.363 . S
N354 C356 1.356 . S
N354 H366 0.984 . S
N354 H367 0.985 . S
N355 C357 1.356 . S
N355 H360 0.984 . S
N355 H361 0.985 . S
C356 C350 1.379 1_556 S
C356 C353 1.363 . S
C356 N354 1.356 . S
C357 C351 1.363 . S
C357 C352 1.379 1_554 S
C357 N355 1.356 . S
N358 C350 1.356 . S
N358 H364 0.984 . S
N358 H365 0.984 . S
N359 C352 1.356 . S
N359 H362 0.984 . S
N359 H363 0.985 . S
H360 N355 0.984 . S
H361 N355 0.985 . S
H362 N359 0.984 . S
H363 N359 0.985 . S
H364 N358 0.984 . S
H365 N358 0.984 . S
H366 N354 0.984 . S
H367 N354 0.985 . S
C368 C369 1.363 . S
C368 C374 1.379 . S
C368 N376 1.356 . S
C369 C368 1.363 . S
C369 C375 1.363 1_565 S
C370 C371 1.363 . S
C370 C375 1.379 . S
C370 N377 1.356 . S
C371 C370 1.363 . S
C371 C374 1.363 1_545 S
N372 C374 1.356 . S
N372 H384 0.984 . S
N372 H385 0.985 . S
N373 C375 1.356 . S
N373 H378 0.984 . S
N373 H379 0.985 . S
C374 C368 1.379 . S
C374 C371 1.363 1_565 S
C374 N372 1.356 . S
C375 C369 1.363 1_545 S
C375 C370 1.379 . S
C375 N373 1.356 . S
N376 C368 1.356 . S
N376 H382 0.984 . S
N376 H383 0.984 . S
N377 C370 1.356 . S
N377 H380 0.984 . S
N377 H381 0.985 . S
H378 N373 0.984 . S
H379 N373 0.985 . S
H380 N377 0.984 . S
H381 N377 0.985 . S
H382 N376 0.984 . S
H383 N376 0.984 . S
H384 N372 0.984 . S
H385 N372 0.985 . S
C386 C387 1.363 . S
C386 C392 1.379 . S
C386 N394 1.356 . S
C387 C386 1.363 . S
C387 C393 1.363 1_565 S
C388 C389 1.363 . S
C388 C393 1.379 . S
C388 N395 1.356 . S
C389 C388 1.363 . S
C389 C392 1.363 1_545 S
N390 C392 1.356 . S
N390 H402 0.984 . S
N390 H403 0.985 . S
N391 C393 1.356 . S
N391 H396 0.984 . S
N391 H397 0.985 . S
C392 C386 1.379 . S
C392 C389 1.363 1_565 S
C392 N390 1.356 . S
C393 C387 1.363 1_545 S
C393 C388 1.379 . S
C393 N391 1.356 . S
N394 C386 1.356 . S
N394 H400 0.984 . S
N394 H401 0.984 . S
N395 C388 1.356 . S
N395 H398 0.984 . S
N395 H399 0.985 . S
H396 N391 0.984 . S
H397 N391 0.985 . S
H398 N395 0.984 . S
H399 N395 0.985 . S
H400 N394 0.984 . S
H401 N394 0.984 . S
H402 N390 0.984 . S
H403 N390 0.985 . S
C404 C405 1.363 . S
C404 C410 1.379 . S
C404 N412 1.356 . S
C405 C404 1.363 . S
C405 C411 1.363 1_565 S
C406 C407 1.363 . S
C406 C411 1.379 . S
C406 N413 1.356 . S
C407 C406 1.363 . S
C407 C410 1.363 1_545 S
N408 C410 1.356 . S
N408 H420 0.984 . S
N408 H421 0.985 . S
N409 C411 1.356 . S
N409 H414 0.984 . S
N409 H415 0.985 . S
C410 C404 1.379 . S
C410 C407 1.363 1_565 S
C410 N408 1.356 . S
C411 C405 1.363 1_545 S
C411 C406 1.379 . S
C411 N409 1.356 . S
N412 C404 1.356 . S
N412 H418 0.984 . S
N412 H419 0.984 . S
N413 C406 1.356 . S
N413 H416 0.984 . S
N413 H417 0.985 . S
H414 N409 0.984 . S
H415 N409 0.985 . S
H416 N413 0.984 . S
H417 N413 0.985 . S
H418 N412 0.984 . S
H419 N412 0.984 . S
H420 N408 0.984 . S
H421 N408 0.985 . S
C422 C423 1.363 . S
C422 C428 1.379 . S
C422 N430 1.356 . S
C423 C422 1.363 . S
C423 C429 1.363 1_545 S
C424 C425 1.363 . S
C424 C429 1.379 . S
C424 N431 1.356 . S
C425 C424 1.363 . S
C425 C428 1.363 1_565 S
N426 C428 1.356 . S
N426 H438 0.984 . S
N426 H439 0.985 . S
N427 C429 1.356 . S
N427 H432 0.984 . S
N427 H433 0.985 . S
C428 C422 1.379 . S
C428 C425 1.363 1_545 S
C428 N426 1.356 . S
C429 C423 1.363 1_565 S
C429 C424 1.379 . S
C429 N427 1.356 . S
N430 C422 1.356 . S
N430 H436 0.984 . S
N430 H437 0.984 . S
N431 C424 1.356 . S
N431 H434 0.984 . S
N431 H435 0.985 . S
H432 N427 0.984 . S
H433 N427 0.985 . S
H434 N431 0.984 . S
H435 N431 0.985 . S
H436 N430 0.984 . S
H437 N430 0.984 . S
H438 N426 0.984 . S
H439 N426 0.985 . S
C440 C441 1.363 . S
C440 C446 1.379 1_655 S
C440 N448 1.356 . S
C441 C440 1.363 . S
C441 C447 1.363 . S
C442 C443 1.363 . S
C442 C447 1.379 1_455 S
C442 N449 1.356 . S
C443 C442 1.363 . S
C443 C446 1.363 . S
N444 C446 1.356 . S
N444 H456 0.984 . S
N444 H457 0.985 . S
N445 C447 1.356 . S
N445 H450 0.984 . S
N445 H451 0.985 . S
C446 C440 1.379 1_455 S
C446 C443 1.363 . S
C446 N444 1.356 . S
C447 C441 1.363 . S
C447 C442 1.379 1_655 S
C447 N445 1.356 . S
N448 C440 1.356 . S
N448 H454 0.984 . S
N448 H455 0.984 . S
N449 C442 1.356 . S
N449 H452 0.984 . S
N449 H453 0.985 . S
H450 N445 0.984 . S
H451 N445 0.985 . S
H452 N449 0.984 . S
H453 N449 0.985 . S
H454 N448 0.984 . S
H455 N448 0.984 . S
H456 N444 0.984 . S
H457 N444 0.985 . S
C458 C459 1.363 . S
C458 C464 1.379 1_455 S
C458 N466 1.356 . S
C459 C458 1.363 . S
C459 C465 1.363 . S
C460 C461 1.363 . S
C460 C465 1.379 1_655 S
C460 N467 1.356 . S
C461 C460 1.363 . S
C461 C464 1.363 . S
N462 C464 1.356 . S
N462 H474 0.984 . S
N462 H475 0.985 . S
N463 C465 1.356 . S
N463 H468 0.984 . S
N463 H469 0.985 . S
C464 C458 1.379 1_655 S
C464 C461 1.363 . S
C464 N462 1.356 . S
C465 C459 1.363 . S
C465 C460 1.379 1_455 S
C465 N463 1.356 . S
N466 C458 1.356 . S
N466 H472 0.984 . S
N466 H473 0.984 . S
N467 C460 1.356 . S
N467 H470 0.984 . S
N467 H471 0.985 . S
H468 N463 0.984 . S
H469 N463 0.985 . S
H470 N467 0.984 . S
H471 N467 0.985 . S
H472 N466 0.984 . S
H473 N466 0.984 . S
H474 N462 0.984 . S
H475 N462 0.985 . S
C476 C477 1.363 . S
C476 C482 1.379 1_655 S
C476 N484 1.356 . S
C477 C476 1.363 . S
C477 C483 1.363 . S
C478 C479 1.363 . S
C478 C483 1.379 1_455 S
C478 N485 1.356 . S
C479 C478 1.363 . S
C479 C482 1.363 . S
N480 C482 1.356 . S
N480 H492 0.984 . S
N480 H493 0.985 . S
N481 C483 1.356 . S
N481 H486 0.984 . S
N481 H487 0.985 . S
C482 C476 1.379 1_455 S
C482 C479 1.363 . S
C482 N480 1.356 . S
C483 C477 1.363 . S
C483 C478 1.379 1_655 S
C483 N481 1.356 . S
N484 C476 1.356 . S
N484 H490 0.984 . S
N484 H491 0.984 . S
N485 C478 1.356 . S
N485 H488 0.984 . S
N485 H489 0.985 . S
H486 N481 0.984 . S
H487 N481 0.985 . S
H488 N485 0.984 . S
H489 N485 0.985 . S
H490 N484 0.984 . S
H491 N484 0.984 . S
H492 N480 0.984 . S
H493 N480 0.985 . S
C494 C495 1.363 . S
C494 C500 1.379 1_455 S
C494 N502 1.356 . S
C495 C494 1.363 . S
C495 C501 1.363 . S
C496 C497 1.363 . S
C496 C501 1.379 1_655 S
C496 N503 1.356 . S
C497 C496 1.363 . S
C497 C500 1.363 . S
N498 C500 1.356 . S
N498 H510 0.984 . S
N498 H511 0.985 . S
N499 C501 1.356 . S
N499 H504 0.984 . S
N499 H505 0.985 . S
C500 C494 1.379 1_655 S
C500 C497 1.363 . S
C500 N498 1.356 . S
C501 C495 1.363 . S
C501 C496 1.379 1_455 S
C501 N499 1.356 . S
N502 C494 1.356 . S
N502 H508 0.984 . S
N502 H509 0.984 . S
N503 C496 1.356 . S
N503 H506 0.984 . S
N503 H507 0.985 . S
H504 N499 0.984 . S
H505 N499 0.985 . S
H506 N503 0.984 . S
H507 N503 0.985 . S
H508 N502 0.984 . S
H509 N502 0.984 . S
H510 N498 0.984 . S
H511 N498 0.985 . S
C512 C513 1.363 . S
C512 C518 1.379 . S
C512 N520 1.356 . S
C513 C512 1.363 . S
C513 C519 1.363 . S
C514 C515 1.363 . S
C514 C519 1.379 . S
C514 N521 1.356 . S
C515 C514 1.363 . S
C515 C518 1.363 . S
N516 C518 1.356 . S
N516 H528 0.984 . S
N516 H529 0.985 . S
N517 C519 1.356 . S
N517 H522 0.984 . S
N517 H523 0.985 . S
C518 C512 1.379 . S
C518 C515 1.363 . S
C518 N516 1.356 . S
C519 C513 1.363 . S
C519 C514 1.379 . S
C519 N517 1.356 . S
N520 C512 1.356 . S
N520 H526 0.984 . S
N520 H527 0.984 . S
N521 C514 1.356 . S
N521 H524 0.984 . S
N521 H525 0.985 . S
H522 N517 0.984 . S
H523 N517 0.985 . S
H524 N521 0.984 . S
H525 N521 0.985 . S
H526 N520 0.984 . S
H527 N520 0.984 . S
H528 N516 0.984 . S
H529 N516 0.985 . S
C530 C531 1.363 . S
C530 C536 1.379 . S
C530 N538 1.356 . S
C531 C530 1.363 . S
C531 C537 1.363 . S
C532 C533 1.363 . S
C532 C537 1.379 . S
C532 N539 1.356 . S
C533 C532 1.363 . S
C533 C536 1.363 . S
N534 C536 1.356 . S
N534 H546 0.984 . S
N534 H547 0.985 . S
N535 C537 1.356 . S
N535 H540 0.984 . S
N535 H541 0.985 . S
C536 C530 1.379 . S
C536 C533 1.363 . S
C536 N534 1.356 . S
C537 C531 1.363 . S
C537 C532 1.379 . S
C537 N535 1.356 . S
N538 C530 1.356 . S
N538 H544 0.984 . S
N538 H545 0.984 . S
N539 C532 1.356 . S
N539 H542 0.984 . S
N539 H543 0.985 . S
H540 N535 0.984 . S
H541 N535 0.985 . S
H542 N539 0.984 . S
H543 N539 0.985 . S
H544 N538 0.984 . S
H545 N538 0.984 . S
H546 N534 0.984 . S
H547 N534 0.985 . S
C548 C549 1.363 . S
C548 C554 1.379 . S
C548 N556 1.356 . S
C549 C548 1.363 . S
C549 C555 1.363 . S
C550 C551 1.363 . S
C550 C555 1.379 . S
C550 N557 1.356 . S
C551 C550 1.363 . S
C551 C554 1.363 . S
N552 C554 1.356 . S
N552 H564 0.984 . S
N552 H565 0.985 . S
N553 C555 1.356 . S
N553 H558 0.984 . S
N553 H559 0.985 . S
C554 C548 1.379 . S
C554 C551 1.363 . S
C554 N552 1.356 . S
C555 C549 1.363 . S
C555 C550 1.379 . S
C555 N553 1.356 . S
N556 C548 1.356 . S
N556 H562 0.984 . S
N556 H563 0.984 . S
N557 C550 1.356 . S
N557 H560 0.984 . S
N557 H561 0.985 . S
H558 N553 0.984 . S
H559 N553 0.985 . S
H560 N557 0.984 . S
H561 N557 0.985 . S
H562 N556 0.984 . S
H563 N556 0.984 . S
H564 N552 0.984 . S
H565 N552 0.985 . S
C566 C567 1.363 . S
C566 C572 1.379 . S
C566 N574 1.356 . S
C567 C566 1.363 . S
C567 C573 1.363 . S
C568 C569 1.363 . S
C568 C573 1.379 . S
C568 N575 1.356 . S
C569 C568 1.363 . S
C569 C572 1.363 . S
N570 C572 1.356 . S
N570 H582 0.984 . S
N570 H583 0.985 . S
N571 C573 1.356 . S
N571 H576 0.984 . S
N571 H577 0.985 . S
C572 C566 1.379 . S
C572 C569 1.363 . S
C572 N570 1.356 . S
C573 C567 1.363 . S
C573 C568 1.379 . S
C573 N571 1.356 . S
N574 C566 1.356 . S
N574 H580 0.984 . S
N574 H581 0.984 . S
N575 C568 1.356 . S
N575 H578 0.984 . S
N575 H579 0.985 . S
H576 N571 0.984 . S
H577 N571 0.985 . S
H578 N575 0.984 . S
H579 N575 0.985 . S
H580 N574 0.984 . S
H581 N574 0.984 . S
H582 N570 0.984 . S
H583 N570 0.985 . S
C584 C585 1.363 . S
C584 C590 1.379 . S
C584 N592 1.356 . S
C585 C584 1.363 . S
C585 C591 1.363 . S
C586 C587 1.363 . S
C586 C591 1.379 . S
C586 N593 1.356 . S
C587 C586 1.363 . S
C587 C590 1.363 . S
N588 C590 1.356 . S
N588 H600 0.984 . S
N588 H601 0.985 . S
N589 C591 1.356 . S
N589 H594 0.984 . S
N589 H595 0.985 . S
C590 C584 1.379 . S
C590 C587 1.363 . S
C590 N588 1.356 . S
C591 C585 1.363 . S
C591 C586 1.379 . S
C591 N589 1.356 . S
N592 C584 1.356 . S
N592 H598 0.984 . S
N592 H599 0.984 . S
N593 C586 1.356 . S
N593 H596 0.984 . S
N593 H597 0.985 . S
H594 N589 0.984 . S
H595 N589 0.985 . S
H596 N593 0.984 . S
H597 N593 0.985 . S
H598 N592 0.984 . S
H599 N592 0.984 . S
H600 N588 0.984 . S
H601 N588 0.985 . S
C602 C603 1.363 . S
C602 C608 1.379 . S
C602 N610 1.356 . S
C603 C602 1.363 . S
C603 C609 1.363 . S
C604 C605 1.363 . S
C604 C609 1.379 . S
C604 N611 1.356 . S
C605 C604 1.363 . S
C605 C608 1.363 . S
N606 C608 1.356 . S
N606 H618 0.984 . S
N606 H619 0.985 . S
N607 C609 1.356 . S
N607 H612 0.984 . S
N607 H613 0.985 . S
C608 C602 1.379 . S
C608 C605 1.363 . S
C608 N606 1.356 . S
C609 C603 1.363 . S
C609 C604 1.379 . S
C609 N607 1.356 . S
N610 C602 1.356 . S
N610 H616 0.984 . S
N610 H617 0.984 . S
N611 C604 1.356 . S
N611 H614 0.984 . S
N611 H615 0.985 . S
H612 N607 0.984 . S
H613 N607 0.985 . S
H614 N611 0.984 . S
H615 N611 0.985 . S
H616 N610 0.984 . S
H617 N610 0.984 . S
H618 N606 0.984 . S
H619 N606 0.985 . S
C620 C621 1.363 . S
C620 C626 1.379 . S
C620 N628 1.356 . S
C621 C620 1.363 . S
C621 C627 1.363 . S
C622 C623 1.363 . S
C622 C627 1.379 . S
C622 N629 1.356 . S
C623 C622 1.363 . S
C623 C626 1.363 . S
N624 C626 1.356 . S
N624 H636 0.984 . S
N624 H637 0.985 . S
N625 C627 1.356 . S
N625 H630 0.984 . S
N625 H631 0.985 . S
C626 C620 1.379 . S
C626 C623 1.363 . S
C626 N624 1.356 . S
C627 C621 1.363 . S
C627 C622 1.379 . S
C627 N625 1.356 . S
N628 C620 1.356 . S
N628 H634 0.984 . S
N628 H635 0.984 . S
N629 C622 1.356 . S
N629 H632 0.984 . S
N629 H633 0.985 . S
H630 N625 0.984 . S
H631 N625 0.985 . S
H632 N629 0.984 . S
H633 N629 0.985 . S
H634 N628 0.984 . S
H635 N628 0.984 . S
H636 N624 0.984 . S
H637 N624 0.985 . S
C638 C639 1.363 . S
C638 C644 1.379 . S
C638 N646 1.356 . S
C639 C638 1.363 . S
C639 C645 1.363 . S
C640 C641 1.363 . S
C640 C645 1.379 . S
C640 N647 1.356 . S
C641 C640 1.363 . S
C641 C644 1.363 . S
N642 C644 1.356 . S
N642 H654 0.984 . S
N642 H655 0.985 . S
N643 C645 1.356 . S
N643 H648 0.984 . S
N643 H649 0.985 . S
C644 C638 1.379 . S
C644 C641 1.363 . S
C644 N642 1.356 . S
C645 C639 1.363 . S
C645 C640 1.379 . S
C645 N643 1.356 . S
N646 C638 1.356 . S
N646 H652 0.984 . S
N646 H653 0.984 . S
N647 C640 1.356 . S
N647 H650 0.984 . S
N647 H651 0.985 . S
H648 N643 0.984 . S
H649 N643 0.985 . S
H650 N647 0.984 . S
H651 N647 0.985 . S
H652 N646 0.984 . S
H653 N646 0.984 . S
H654 N642 0.984 . S
H655 N642 0.985 . S
C656 C657 1.363 . S
C656 C662 1.379 . S
C656 N664 1.356 . S
C657 C656 1.363 . S
C657 C663 1.363 1_565 S
C658 C659 1.363 . S
C658 C663 1.379 . S
C658 N665 1.356 . S
C659 C658 1.363 . S
C659 C662 1.363 1_545 S
N660 C662 1.356 . S
N660 H672 0.984 . S
N660 H673 0.985 . S
N661 C663 1.356 . S
N661 H666 0.984 . S
N661 H667 0.985 . S
C662 C656 1.379 . S
C662 C659 1.363 1_565 S
C662 N660 1.356 . S
C663 C657 1.363 1_545 S
C663 C658 1.379 . S
C663 N661 1.356 . S
N664 C656 1.356 . S
N664 H670 0.984 . S
N664 H671 0.984 . S
N665 C658 1.356 . S
N665 H668 0.984 . S
N665 H669 0.985 . S
H666 N661 0.984 . S
H667 N661 0.985 . S
H668 N665 0.984 . S
H669 N665 0.985 . S
H670 N664 0.984 . S
H671 N664 0.984 . S
H672 N660 0.984 . S
H673 N660 0.985 . S
C674 C675 1.363 . S
C674 C680 1.379 . S
C674 N682 1.356 . S
C675 C674 1.363 . S
C675 C681 1.363 1_565 S
C676 C677 1.363 . S
C676 C681 1.379 . S
C676 N683 1.356 . S
C677 C676 1.363 . S
C677 C680 1.363 1_545 S
N678 C680 1.356 . S
N678 H690 0.984 . S
N678 H691 0.985 . S
N679 C681 1.356 . S
N679 H684 0.984 . S
N679 H685 0.985 . S
C680 C674 1.379 . S
C680 C677 1.363 1_565 S
C680 N678 1.356 . S
C681 C675 1.363 1_545 S
C681 C676 1.379 . S
C681 N679 1.356 . S
N682 C674 1.356 . S
N682 H688 0.984 . S
N682 H689 0.984 . S
N683 C676 1.356 . S
N683 H686 0.984 . S
N683 H687 0.985 . S
H684 N679 0.984 . S
H685 N679 0.985 . S
H686 N683 0.984 . S
H687 N683 0.985 . S
H688 N682 0.984 . S
H689 N682 0.984 . S
H690 N678 0.984 . S
H691 N678 0.985 . S
C692 C693 1.363 1_545 S
C692 C698 1.379 . S
C692 N700 1.356 . S
C693 C692 1.363 1_565 S
C693 C699 1.363 . S
C694 C695 1.363 1_565 S
C694 C699 1.379 . S
C694 N701 1.356 . S
C695 C694 1.363 1_545 S
C695 C698 1.363 . S
N696 C698 1.356 . S
N696 H708 0.984 . S
N696 H709 0.985 . S
N697 C699 1.356 . S
N697 H702 0.984 . S
N697 H703 0.985 . S
C698 C692 1.379 . S
C698 C695 1.363 . S
C698 N696 1.356 . S
C699 C693 1.363 . S
C699 C694 1.379 . S
C699 N697 1.356 . S
N700 C692 1.356 . S
N700 H706 0.984 . S
N700 H707 0.984 . S
N701 C694 1.356 . S
N701 H704 0.984 . S
N701 H705 0.985 . S
H702 N697 0.984 . S
H703 N697 0.985 . S
H704 N701 0.984 . S
H705 N701 0.985 . S
H706 N700 0.984 . S
H707 N700 0.984 . S
H708 N696 0.984 . S
H709 N696 0.985 . S
C710 C711 1.363 1_565 S
C710 C716 1.379 . S
C710 N718 1.356 . S
C711 C710 1.363 1_545 S
C711 C717 1.363 . S
C712 C713 1.363 1_545 S
C712 C717 1.379 . S
C712 N719 1.356 . S
C713 C712 1.363 1_565 S
C713 C716 1.363 . S
N714 C716 1.356 . S
N714 H726 0.984 . S
N714 H727 0.985 . S
N715 C717 1.356 . S
N715 H720 0.984 . S
N715 H721 0.985 . S
C716 C710 1.379 . S
C716 C713 1.363 . S
C716 N714 1.356 . S
C717 C711 1.363 . S
C717 C712 1.379 . S
C717 N715 1.356 . S
N718 C710 1.356 . S
N718 H724 0.984 . S
N718 H725 0.984 . S
N719 C712 1.356 . S
N719 H722 0.984 . S
N719 H723 0.985 . S
H720 N715 0.984 . S
H721 N715 0.985 . S
H722 N719 0.984 . S
H723 N719 0.985 . S
H724 N718 0.984 . S
H725 N718 0.984 . S
H726 N714 0.984 . S
H727 N714 0.985 . S
C728 C729 1.363 . S
C728 C734 1.379 . S
C728 N736 1.356 . S
C729 C728 1.363 . S
C729 C735 1.363 . S
C730 C731 1.363 . S
C730 C735 1.379 . S
C730 N737 1.356 . S
C731 C730 1.363 . S
C731 C734 1.363 . S
N732 C734 1.356 . S
N732 H744 0.984 . S
N732 H745 0.985 . S
N733 C735 1.356 . S
N733 H738 0.984 . S
N733 H739 0.985 . S
C734 C728 1.379 . S
C734 C731 1.363 . S
C734 N732 1.356 . S
C735 C729 1.363 . S
C735 C730 1.379 . S
C735 N733 1.356 . S
N736 C728 1.356 . S
N736 H742 0.984 . S
N736 H743 0.984 . S
N737 C730 1.356 . S
N737 H740 0.984 . S
N737 H741 0.985 . S
H738 N733 0.984 . S
H739 N733 0.985 . S
H740 N737 0.984 . S
H741 N737 0.985 . S
H742 N736 0.984 . S
H743 N736 0.984 . S
H744 N732 0.984 . S
H745 N732 0.985 . S
C746 C747 1.363 . S
C746 C752 1.379 . S
C746 N754 1.356 . S
C747 C746 1.363 . S
C747 C753 1.363 . S
C748 C749 1.363 . S
C748 C753 1.379 . S
C748 N755 1.356 . S
C749 C748 1.363 . S
C749 C752 1.363 . S
N750 C752 1.356 . S
N750 H762 0.984 . S
N750 H763 0.985 . S
N751 C753 1.356 . S
N751 H756 0.984 . S
N751 H757 0.985 . S
C752 C746 1.379 . S
C752 C749 1.363 . S
C752 N750 1.356 . S
C753 C747 1.363 . S
C753 C748 1.379 . S
C753 N751 1.356 . S
N754 C746 1.356 . S
N754 H760 0.984 . S
N754 H761 0.984 . S
N755 C748 1.356 . S
N755 H758 0.984 . S
N755 H759 0.985 . S
H756 N751 0.984 . S
H757 N751 0.985 . S
H758 N755 0.984 . S
H759 N755 0.985 . S
H760 N754 0.984 . S
H761 N754 0.984 . S
H762 N750 0.984 . S
H763 N750 0.985 . S
C764 C765 1.363 . S
C764 C770 1.379 . S
C764 N772 1.356 . S
C765 C764 1.363 . S
C765 C771 1.363 . S
C766 C767 1.363 . S
C766 C771 1.379 . S
C766 N773 1.356 . S
C767 C766 1.363 . S
C767 C770 1.363 . S
N768 C770 1.356 . S
N768 H780 0.984 . S
N768 H781 0.985 . S
N769 C771 1.356 . S
N769 H774 0.984 . S
N769 H775 0.985 . S
C770 C764 1.379 . S
C770 C767 1.363 . S
C770 N768 1.356 . S
C771 C765 1.363 . S
C771 C766 1.379 . S
C771 N769 1.356 . S
N772 C764 1.356 . S
N772 H778 0.984 . S
N772 H779 0.984 . S
N773 C766 1.356 . S
N773 H776 0.984 . S
N773 H777 0.985 . S
H774 N769 0.984 . S
H775 N769 0.985 . S
H776 N773 0.984 . S
H777 N773 0.985 . S
H778 N772 0.984 . S
H779 N772 0.984 . S
H780 N768 0.984 . S
H781 N768 0.985 . S
C782 C783 1.363 . S
C782 C788 1.379 . S
C782 N790 1.356 . S
C783 C782 1.363 . S
C783 C789 1.363 . S
C784 C785 1.363 . S
C784 C789 1.379 . S
C784 N791 1.356 . S
C785 C784 1.363 . S
C785 C788 1.363 . S
N786 C788 1.356 . S
N786 H798 0.984 . S
N786 H799 0.985 . S
N787 C789 1.356 . S
N787 H792 0.984 . S
N787 H793 0.985 . S
C788 C782 1.379 . S
C788 C785 1.363 . S
C788 N786 1.356 . S
C789 C783 1.363 . S
C789 C784 1.379 . S
C789 N787 1.356 . S
N790 C782 1.356 . S
N790 H796 0.984 . S
N790 H797 0.984 . S
N791 C784 1.356 . S
N791 H794 0.984 . S
N791 H795 0.985 . S
H792 N787 0.984 . S
H793 N787 0.985 . S
H794 N791 0.984 . S
H795 N791 0.985 . S
H796 N790 0.984 . S
H797 N790 0.984 . S
H798 N786 0.984 . S
H799 N786 0.985 . S
C225 C7 1.373 . S
C227 C77 1.373 . S
C243 C63 1.373 . S
C245 C21 1.373 . S
C261 C35 1.373 . S
C263 C105 1.373 . S
C279 C91 1.373 . S
C281 C49 1.373 . S
C297 C189 1.373 . S
C299 C119 1.373 . S
C315 C175 1.373 . S
C317 C133 1.373 . S
C333 C217 1.373 . S
C335 C147 1.373 . S
C351 C161 1.373 . S
C353 C203 1.373 . S
C369 C23 1.485 . S
C371 C9 1.485 . S
C387 C37 1.485 . S
C389 C51 1.485 . S
C405 C65 1.485 . S
C407 C79 1.485 . S
C423 C93 1.485 . S
C425 C107 1.485 . S
C441 C121 1.485 . S
C443 C135 1.485 . S
C459 C163 1.485 . S
C461 C149 1.485 . S
C477 C191 1.485 . S
C479 C177 1.485 . S
C495 C205 1.485 . S
C497 C219 1.485 . S
C513 C134 1.514 . S
C515 C8 1.514 . S
C531 C22 1.514 . S
C533 C120 1.514 . S
C549 C162 1.514 . S
C551 C36 1.514 . S
C567 C50 1.514 . S
C569 C148 1.514 . S
C585 C64 1.514 . S
C587 C190 1.514 . S
C603 C176 1.514 . S
C605 C78 1.514 . S
C621 C92 1.514 . S
C623 C218 1.514 . S
C639 C204 1.514 . S
C641 C106 1.514 . S
C657 C3 1.395 1_565 S
C659 C31 1.395 1_545 S
C675 C45 1.396 1_565 S
C677 C17 1.396 1_545 S
C693 C87 1.395 1_565 S
C695 C59 1.395 1_545 S
C711 C101 1.396 1_545 S
C713 C73 1.396 1_565 S
C729 C143 1.395 . S
C731 C115 1.395 . S
C747 C129 1.396 . S
C749 C157 1.396 . S
C765 C199 1.395 . S
C767 C171 1.395 . S
C783 C185 1.396 . S
C785 C213 1.396 . S
