# Generated by pormake.
# Topology snk, (6)-cn, num edge types: 1
# Building blocks:
#     Node 0, Type 0, BuildingBlock: BETFAJ_clean_sbu_0, # of connection points: 6
#     Node 1, Type 0, BuildingBlock: BETFAJ_clean_sbu_0, # of connection points: 6
#     Node 2, Type 0, BuildingBlock: BETFAJ_clean_sbu_0, # of connection points: 6
#     Node 3, Type 0, BuildingBlock: BETFAJ_clean_sbu_0, # of connection points: 6
#     Node 4, Type 0, BuildingBlock: BETFAJ_clean_sbu_0, # of connection points: 6
#     Node 5, Type 0, BuildingBlock: BETFAJ_clean_sbu_0, # of connection points: 6
#     Node 6, Type 0, BuildingBlock: BETFAJ_clean_sbu_0, # of connection points: 6
#     Node 7, Type 0, BuildingBlock: BETFAJ_clean_sbu_0, # of connection points: 6
#     Edge 8, Type (0, 0), BuildingBlock: AJUNOK_clean_linker_0, # of connection points: 2
#     Edge 9, Type (0, 0), BuildingBlock: AJUNOK_clean_linker_0, # of connection points: 2
#     Edge 10, Type (0, 0), BuildingBlock: AJUNOK_clean_linker_0, # of connection points: 2
#     Edge 11, Type (0, 0), BuildingBlock: AJUNOK_clean_linker_0, # of connection points: 2
#     Edge 12, Type (0, 0), BuildingBlock: AJUNOK_clean_linker_0, # of connection points: 2
#     Edge 13, Type (0, 0), BuildingBlock: AJUNOK_clean_linker_0, # of connection points: 2
#     Edge 14, Type (0, 0), BuildingBlock: AJUNOK_clean_linker_0, # of connection points: 2
#     Edge 15, Type (0, 0), BuildingBlock: AJUNOK_clean_linker_0, # of connection points: 2
#     Edge 16, Type (0, 0), BuildingBlock: AJUNOK_clean_linker_0, # of connection points: 2
#     Edge 17, Type (0, 0), BuildingBlock: AJUNOK_clean_linker_0, # of connection points: 2
#     Edge 18, Type (0, 0), BuildingBlock: AJUNOK_clean_linker_0, # of connection points: 2
#     Edge 19, Type (0, 0), BuildingBlock: AJUNOK_clean_linker_0, # of connection points: 2
#     Edge 20, Type (0, 0), BuildingBlock: AJUNOK_clean_linker_0, # of connection points: 2
#     Edge 21, Type (0, 0), BuildingBlock: AJUNOK_clean_linker_0, # of connection points: 2
#     Edge 22, Type (0, 0), BuildingBlock: AJUNOK_clean_linker_0, # of connection points: 2
#     Edge 23, Type (0, 0), BuildingBlock: AJUNOK_clean_linker_0, # of connection points: 2
#     Edge 24, Type (0, 0), BuildingBlock: AJUNOK_clean_linker_0, # of connection points: 2
#     Edge 25, Type (0, 0), BuildingBlock: AJUNOK_clean_linker_0, # of connection points: 2
#     Edge 26, Type (0, 0), BuildingBlock: AJUNOK_clean_linker_0, # of connection points: 2
#     Edge 27, Type (0, 0), BuildingBlock: AJUNOK_clean_linker_0, # of connection points: 2
#     Edge 28, Type (0, 0), BuildingBlock: AJUNOK_clean_linker_0, # of connection points: 2
#     Edge 29, Type (0, 0), BuildingBlock: AJUNOK_clean_linker_0, # of connection points: 2
#     Edge 30, Type (0, 0), BuildingBlock: AJUNOK_clean_linker_0, # of connection points: 2
#     Edge 31, Type (0, 0), BuildingBlock: AJUNOK_clean_linker_0, # of connection points: 2
# Relax obj value: 0.120
# Max RMSD: 0.191
# Mean RMSD: 0.150
data_MOF--net-snk--node1-BETFAJ_clean_sbu_0--edge1-AJUNOK_clean_linker_0
_symmetry_space_group_name_H-M    P1
_symmetry_Int_Tables_number       1
_symmetry_cell_setting            triclinic
loop_
_symmetry_equiv_pos_as_xyz
'x, y, z'
_cell_length_a     26.772213
_cell_length_b     26.892084
_cell_length_c     21.125557
_cell_angle_alpha  82.505828
_cell_angle_beta   97.434842
_cell_angle_gamma 89.038578
loop_
_atom_site_label
_atom_site_type_symbol
_atom_site_fract_x
_atom_site_fract_y
_atom_site_fract_z
_atom_type_partial_charge
Sm0 Sm 0.99456 0.97216 0.46816 0.0
Sm1 Sm 0.02408 0.03022 0.58309 0.0
C2 C 0.96808 0.94144 0.35487 0.0
C3 C 0.97825 0.95409 0.28817 0.0
C4 C 0.99788 1.00053 0.26725 0.0
C5 C 1.00917 0.01106 0.20417 0.0
C6 C 1.00138 0.97515 0.16139 0.0
C7 C 0.9814 0.92885 0.18257 0.0
C8 C 0.97004 0.9184 0.24554 0.0
C9 C 0.05867 0.92102 0.5676 0.0
C10 C 0.08228 0.05799 0.46005 0.0
C11 C 0.05278 0.06139 0.69564 0.0
C12 C 0.04922 0.0465 0.76414 0.0
C13 C 0.03238 0.99904 0.78624 0.0
C14 C 0.02737 0.98631 0.8514 0.0
C15 C 0.0391 0.02089 0.89521 0.0
C16 C 0.0564 0.06817 0.87278 0.0
C17 C 0.06153 0.0808 0.80774 0.0
C18 C 0.96072 0.08187 0.48289 0.0
C19 C 0.93797 0.94291 0.5921 0.0
O20 O 0.94138 0.97444 0.37792 0.0
O21 O 1.0063 0.92182 0.39587 0.0
O22 O 0.06154 0.96677 0.54618 0.0
O23 O 0.02309 0.89997 0.53391 0.0
O24 O 0.04908 0.03091 0.42886 0.0
O25 O 0.08493 0.05919 0.52261 0.0
O26 O 0.08109 0.03243 0.66865 0.0
O27 O 0.01055 0.07647 0.65922 0.0
O28 O 0.95707 0.03622 0.50447 0.0
O29 O 0.99629 0.10251 0.51712 0.0
O30 O 0.97147 0.96981 0.62314 0.0
O31 O 0.93429 0.94234 0.52928 0.0
H32 H 1.00474 0.02843 0.29972 0.0
H33 H 0.02457 0.04701 0.18903 0.0
H34 H 0.97411 0.90091 0.15025 0.0
H35 H 0.95499 0.88234 0.26106 0.0
H36 H 0.02253 0.97219 0.75302 0.0
H37 H 0.01319 0.94993 0.86725 0.0
H38 H 0.06583 0.0954 0.90559 0.0
H39 H 0.07463 0.11758 0.79135 0.0
Sm40 Sm 0.24017 0.72288 0.84392 0.0
Sm41 Sm 0.27282 0.77928 0.71809 0.0
C42 C 0.23536 0.67792 0.96244 0.0
C43 C 0.2378 0.69391 1.02683 0.0
C44 C 0.24398 0.65796 0.08183 0.0
C45 C 0.24604 0.67279 0.14322 0.0
C46 C 0.24173 0.72387 0.15064 0.0
C47 C 0.23599 0.75984 0.09527 0.0
C48 C 0.23407 0.74498 0.03391 0.0
C49 C 0.17828 0.80295 0.78421 0.0
C50 C 0.31894 0.81687 0.85003 0.0
C51 C 0.27551 0.82531 0.59961 0.0
C52 C 0.26877 0.8106 0.53433 0.0
C53 C 0.26113 0.84751 0.48036 0.0
C54 C 0.25501 0.83389 0.41811 0.0
C55 C 0.25633 0.78303 0.40883 0.0
C56 C 0.26382 0.74614 0.46319 0.0
C57 C 0.26975 0.75979 0.52539 0.0
C58 C 0.33682 0.70176 0.78018 0.0
C59 C 0.1935 0.68587 0.71166 0.0
O60 O 0.27705 0.68064 0.93622 0.0
O61 O 0.19564 0.69381 0.92156 0.0
O62 O 0.22562 0.8013 0.79066 0.0
O63 O 0.16189 0.76232 0.81362 0.0
O64 O 0.30429 0.77381 0.87852 0.0
O65 O 0.30425 0.8329 0.78844 0.0
O66 O 0.23519 0.82478 0.62861 0.0
O67 O 0.31561 0.80645 0.63783 0.0
O68 O 0.28931 0.70137 0.77306 0.0
O69 O 0.35164 0.74207 0.74813 0.0
O70 O 0.20911 0.72854 0.68362 0.0
O71 O 0.20812 0.66939 0.77317 0.0
H72 H 0.24709 0.61839 0.0773 0.0
H73 H 0.25048 0.64424 0.18494 0.0
H74 H 0.23364 0.7995 0.09944 0.0
H75 H 0.22975 0.77333 0.99196 0.0
H76 H 0.26021 0.88691 0.48636 0.0
H77 H 0.25013 0.86317 0.37723 0.0
H78 H 0.26478 0.70668 0.45754 0.0
H79 H 0.27525 0.73071 0.56653 0.0
Sm80 Sm 0.52672 0.97184 0.09074 0.0
Sm81 Sm 0.49117 0.03372 0.95971 0.0
C82 C 0.55498 0.93901 0.21481 0.0
C83 C 0.5482 0.95403 0.27812 0.0
C84 C 0.53831 0.00434 0.28525 0.0
C85 C 0.5308 0.01753 0.34551 0.0
C86 C 0.53317 0.98069 0.39982 0.0
C87 C 0.54308 0.93039 0.39229 0.0
C88 C 0.55058 0.91726 0.3321 0.0
C89 C 0.45834 0.92544 1.01138 0.0
C90 C 0.43799 0.06165 0.07924 0.0
C91 C 0.46361 0.06697 0.8356 0.0
C92 C 0.47346 0.05375 0.77243 0.0
C93 C 0.48482 0.00402 0.76402 0.0
C94 C 0.49524 0.99257 0.70406 0.0
C95 C 0.49472 0.03063 0.6514 0.0
C96 C 0.48281 0.08027 0.65998 0.0
C97 C 0.47242 0.09167 0.7199 0.0
C98 C 0.55924 0.08 0.03951 0.0
C99 C 0.58048 0.9441 0.97156 0.0
O100 O 0.58245 0.96753 0.17913 0.0
O101 O 0.5149 0.92387 0.18145 0.0
O102 O 0.45599 0.97132 1.01853 0.0
O103 O 0.49617 0.90218 0.04886 0.0
O104 O 0.4757 0.03496 0.11524 0.0
O105 O 0.43095 0.06268 1.01586 0.0
O106 O 0.43742 0.03578 0.86979 0.0
O107 O 0.50145 0.08448 0.87055 0.0
O108 O 0.56174 0.03426 0.03181 0.0
O109 O 0.52135 0.10331 1.0022 0.0
O110 O 0.5433 0.97136 0.93521 0.0
O111 O 0.58678 0.94241 0.03499 0.0
H112 H 0.53602 0.03334 0.24417 0.0
H113 H 0.52229 0.05645 0.34936 0.0
H114 H 0.54533 0.90118 0.43313 0.0
H115 H 0.55809 0.87823 0.32766 0.0
H116 H 0.48583 0.97409 0.80385 0.0
H117 H 0.50432 0.95399 0.69906 0.0
H118 H 0.48098 0.11027 0.62014 0.0
H119 H 0.46356 0.13025 0.72523 0.0
Sm120 Sm 0.22251 0.2703 0.20921 0.0
Sm121 Sm 0.28809 0.23334 0.33771 0.0
C122 C 0.18689 0.29521 0.0852 0.0
C123 C 0.20014 0.28532 1.02146 0.0
C124 C 0.24539 0.30156 0.99949 0.0
C125 C 0.25691 0.29183 0.93918 0.0
C126 C 0.22376 0.26531 0.89949 0.0
C127 C 0.17832 0.24961 0.92129 0.0
C128 C 0.16669 0.25953 0.98139 0.0
C129 C 0.18039 0.2001 0.29065 0.0
C130 C 0.31452 0.18404 0.21493 0.0
C131 C 0.31653 0.20176 0.46201 0.0
C132 C 0.30141 0.21083 0.52524 0.0
C133 C 0.25578 0.19352 0.54505 0.0
C134 C 0.24257 0.20176 0.60513 0.0
C135 C 0.2748 0.22715 0.64729 0.0
C136 C 0.32027 0.24461 0.6273 0.0
C137 C 0.33346 0.23638 0.56726 0.0
C138 C 0.33237 0.3041 0.25908 0.0
C139 C 0.20011 0.32447 0.32993 0.0
O140 O 0.21644 0.32352 0.1183 0.0
O141 O 0.17085 0.25736 0.12166 0.0
O142 O 0.22538 0.19886 0.27921 0.0
O143 O 0.15513 0.23873 0.25777 0.0
O144 O 0.28593 0.22134 0.1812 0.0
O145 O 0.31836 0.17614 0.27861 0.0
O146 O 0.28556 0.17752 0.4247 0.0
O147 O 0.33787 0.23849 0.42964 0.0
O148 O 0.28633 0.305 0.26713 0.0
O149 O 0.35708 0.2669 0.29631 0.0
O150 O 0.22839 0.28733 0.36464 0.0
O151 O 0.19533 0.33057 0.26617 0.0
H152 H 0.27208 0.3216 0.02892 0.0
H153 H 0.29226 0.30436 0.92402 0.0
H154 H 0.15135 0.23015 0.89148 0.0
H155 H 0.13132 0.24704 0.99659 0.0
H156 H 0.23018 0.1735 0.51421 0.0
H157 H 0.20683 0.18861 0.6183 0.0
H158 H 0.34609 0.26408 0.65859 0.0
H159 H 0.36903 0.24985 0.55379 0.0
Sm160 Sm 0.7415 0.22629 0.33481 0.0
Sm161 Sm 0.77558 0.2818 0.20979 0.0
C162 C 0.73468 0.1822 0.45321 0.0
C163 C 0.73948 0.19829 0.51767 0.0
C164 C 0.74362 0.16241 0.57264 0.0
C165 C 0.74876 0.17741 0.63413 0.0
C166 C 0.74996 0.22864 0.64169 0.0
C167 C 0.74541 0.2645 0.58624 0.0
C168 C 0.74048 0.24945 0.52481 0.0
C169 C 0.67962 0.30538 0.27183 0.0
C170 C 0.82318 0.31732 0.34264 0.0
C171 C 0.7799 0.32814 0.09176 0.0
C172 C 0.77526 0.31394 1.0263 0.0
C173 C 0.77055 0.35127 0.9728 0.0
C174 C 0.7666 0.33818 0.91036 0.0
C175 C 0.76749 0.28745 0.9004 0.0
C176 C 0.77151 0.25015 0.95428 0.0
C177 C 0.77538 0.26327 1.01669 0.0
C178 C 0.83782 0.20253 0.27073 0.0
C179 C 0.6972 0.18768 0.20332 0.0
O180 O 0.7761 0.18168 0.42657 0.0
O181 O 0.69575 0.20088 0.41271 0.0
O182 O 0.72707 0.30459 0.28033 0.0
O183 O 0.6633 0.26466 0.30114 0.0
O184 O 0.80653 0.27508 0.37041 0.0
O185 O 0.80898 0.33421 0.28116 0.0
O186 O 0.73879 0.32648 0.11919 0.0
O187 O 0.8196 0.30985 0.13113 0.0
O188 O 0.79036 0.20348 0.26416 0.0
O189 O 0.85364 0.2427 0.23953 0.0
O190 O 0.71168 0.23081 0.17491 0.0
O191 O 0.71168 0.1718 0.26495 0.0
H192 H 0.74304 0.12275 0.56803 0.0
H193 H 0.75237 0.1489 0.67585 0.0
H194 H 0.74506 0.30423 0.59028 0.0
H195 H 0.73728 0.27773 0.48283 0.0
H196 H 0.76989 0.39057 0.97931 0.0
H197 H 0.76235 0.36777 0.86985 0.0
H198 H 0.77231 0.21078 0.94818 0.0
H199 H 0.7787 0.2339 0.05748 0.0
Sm200 Sm 0.7318 0.77065 0.71706 0.0
Sm201 Sm 0.79636 0.73392 0.84612 0.0
C202 C 0.70286 0.80066 0.5925 0.0
C203 C 0.71662 0.78912 0.5298 0.0
C204 C 0.7671 0.78703 0.51788 0.0
C205 C 0.77899 0.77618 0.45818 0.0
C206 C 0.74078 0.76668 0.40923 0.0
C207 C 0.69037 0.76879 0.42139 0.0
C208 C 0.67849 0.77989 0.48089 0.0
C209 C 0.68499 0.70299 0.79657 0.0
C210 C 0.81889 0.67874 0.726 0.0
C211 C 0.83249 0.70861 0.9699 0.0
C212 C 0.81767 0.71438 0.03404 0.0
C213 C 0.76734 0.71093 0.04624 0.0
C214 C 0.75434 0.71771 0.10698 0.0
C215 C 0.79132 0.72823 0.15688 0.0
C216 C 0.84161 0.73163 0.14426 0.0
C217 C 0.85458 0.7247 0.0837 0.0
C218 C 0.83997 0.80223 0.76349 0.0
C219 C 0.70565 0.82149 0.83857 0.0
O220 O 0.73555 0.82431 0.62835 0.0
O221 O 0.68064 0.76546 0.62623 0.0
O222 O 0.73123 0.70009 0.78968 0.0
O223 O 0.66161 0.73996 0.75761 0.0
O224 O 0.7908 0.71571 0.69072 0.0
O225 O 0.82344 0.67323 0.78971 0.0
O226 O 0.80645 0.67857 0.93534 0.0
O227 O 0.8443 0.74954 0.93527 0.0
O228 O 0.79513 0.80467 0.77515 0.0
O229 O 0.86438 0.76337 0.79703 0.0
O230 O 0.73278 0.7834 0.87292 0.0
O231 O 0.70303 0.82945 0.775 0.0
H232 H 0.79742 0.79371 0.55465 0.0
H233 H 0.81818 0.77473 0.45049 0.0
H234 H 0.65997 0.7626 0.38446 0.0
H235 H 0.6393 0.78143 0.48865 0.0
H236 H 0.73793 0.70368 1.00862 0.0
H237 H 0.71509 0.71601 0.11429 0.0
H238 H 0.87112 0.7394 0.18146 0.0
H239 H 0.89361 0.72765 0.07554 0.0
Sm240 Sm 0.48436 0.47922 0.96992 0.0
Sm241 Sm 0.5295 0.53012 0.08708 0.0
C242 C 0.44854 0.45622 0.85462 0.0
C243 C 0.45901 0.46801 0.78732 0.0
C244 C 0.46374 0.51766 0.75888 0.0
C245 C 0.47602 0.52754 0.69607 0.0
C246 C 0.48373 0.48799 0.66051 0.0
C247 C 0.47784 0.43847 0.68858 0.0
C248 C 0.46573 0.42861 0.75138 0.0
C249 C 0.5556 0.42274 0.05619 0.0
C250 C 0.57543 0.56117 0.95533 0.0
C251 C 0.56548 0.55428 0.20178 0.0
C252 C 0.55689 0.54301 0.26977 0.0
C253 C 0.54822 0.4941 0.29763 0.0
C254 C 0.53838 0.48506 0.36164 0.0
C255 C 0.53682 0.52474 0.39888 0.0
C256 C 0.54533 0.57361 0.3705 0.0
C257 C 0.55554 0.58255 0.30681 0.0
C258 C 0.45989 0.58743 0.99955 0.0
C259 C 0.43759 0.4494 0.10041 0.0
O260 O 0.42894 0.49213 0.88096 0.0
O261 O 0.48314 0.429 0.89415 0.0
O262 O 0.55808 0.46899 0.03713 0.0
O263 O 0.5157 0.40431 0.02735 0.0
O264 O 0.53637 0.53885 0.92768 0.0
O265 O 0.58667 0.55692 1.01872 0.0
O266 O 0.58564 0.51866 0.1755 0.0
O267 O 0.52936 0.57995 0.16302 0.0
O268 O 0.4564 0.5413 1.0188 0.0
O269 O 0.4992 0.60533 0.03028 0.0
O270 O 0.47813 0.46909 0.12878 0.0
O271 O 0.42602 0.45486 0.03714 0.0
H272 H 0.45817 0.54881 0.7852 0.0
H273 H 0.47922 0.56612 0.67512 0.0
H274 H 0.48354 0.40727 0.66234 0.0
H275 H 0.46216 0.39004 0.77222 0.0
H276 H 0.54866 0.46296 0.2699 0.0
H277 H 0.53203 0.44698 0.38205 0.0
H278 H 0.54305 0.60524 0.39703 0.0
H279 H 0.56165 0.62063 0.28607 0.0
Sm280 Sm 0.02846 0.46796 0.59312 0.0
Sm281 Sm 0.98902 0.53176 0.46403 0.0
C282 C 0.05633 0.43486 0.71714 0.0
C283 C 0.04717 0.44797 0.78105 0.0
C284 C 0.05525 0.4963 0.79829 0.0
C285 C 0.04642 0.50732 0.85918 0.0
C286 C 0.02935 0.47033 0.90425 0.0
C287 C 0.0207 0.42227 0.8864 0.0
C288 C 0.02971 0.41123 0.82576 0.0
C289 C 0.96306 0.42019 0.51159 0.0
C290 C 0.93615 0.55421 0.58606 0.0
C291 C 0.96111 0.56303 0.33956 0.0
C292 C 0.97009 0.54745 0.27678 0.0
C293 C 0.96283 0.49803 0.26309 0.0
C294 C 0.97207 0.48441 0.20355 0.0
C295 C 0.98928 0.5197 0.1565 0.0
C296 C 0.99632 0.56909 0.17047 0.0
C297 C 0.98683 0.58273 0.22973 0.0
C298 C 0.05421 0.57985 0.54539 0.0
C299 C 0.08218 0.44648 0.4716 0.0
O300 O 0.08328 0.465 0.68246 0.0
O301 O 0.01818 0.41751 0.68248 0.0
O302 O 0.95812 0.46548 0.52072 0.0
O303 O 1.00162 0.39809 0.54885 0.0
O304 O 0.97437 0.5271 0.62014 0.0
O305 O 0.9289 0.55841 0.52227 0.0
O306 O 0.93356 0.53451 0.37533 0.0
O307 O 0.99969 0.58045 0.37338 0.0
O308 O 0.05935 0.5345 0.53647 0.0
O309 O 0.01583 0.60182 0.50756 0.0
O310 O 0.04357 0.47288 0.43741 0.0
O311 O 0.08929 0.4423 0.53534 0.0
H312 H 0.06834 0.52564 0.7648 0.0
H313 H 0.05337 0.54474 0.87122 0.0
H314 H 1.00633 0.39323 0.91908 0.0
H315 H 0.0228 0.3738 0.81364 0.0
H316 H 0.95001 0.46985 0.29831 0.0
H317 H 0.96518 0.44633 0.19415 0.0
H318 H 0.0098 0.5972 0.13574 0.0
H319 H 0.99282 0.62102 0.23897 0.0
C320 C 0.13032 0.07876 0.36641 0.0
C321 C 0.11292 0.09264 0.42194 0.0
C322 C 0.15415 0.1133 0.32534 0.0
C323 C 0.1594 0.16328 0.33712 0.0
H324 H 0.12491 0.04114 0.35421 0.0
H325 H 0.16675 0.10139 0.2828 0.0
S326 S 0.11949 0.21897 0.47475 0.0
N327 N 0.10413 0.15962 0.48726 0.0
N328 N 0.14537 0.22513 0.40742 0.0
C329 C 0.14242 0.1776 0.39235 0.0
C330 C 0.12016 0.14205 0.43559 0.0
C331 C 0.06975 0.85118 0.65776 0.0
C332 C 0.08839 0.89497 0.62648 0.0
C333 C 0.09811 0.82313 0.71112 0.0
C334 C 0.14651 0.83746 0.73451 0.0
H335 H 0.03322 0.83789 0.6403 0.0
H336 H 0.08275 0.78882 0.73233 0.0
S337 S 0.21038 0.95195 0.67385 0.0
N338 N 0.15638 0.95372 0.62574 0.0
N339 N 0.21015 0.90061 0.72612 0.0
C340 C 0.16462 0.88254 0.70575 0.0
C341 C 0.13543 0.91142 0.65162 0.0
C342 C 0.39474 0.82155 0.92971 0.0
C343 C 0.35388 0.84639 0.88878 0.0
C344 C 0.42836 0.84777 0.96841 0.0
C345 C 0.42155 0.89968 0.96928 0.0
H346 H 0.40103 0.78146 0.93147 0.0
H347 H 0.45976 0.82694 0.9983 0.0
S348 S 0.31683 0.98103 0.87563 0.0
N349 N 0.30693 0.92517 0.85274 0.0
N350 N 0.36816 0.97419 0.92904 0.0
C351 C 0.37978 0.92475 0.92993 0.0
C352 C 0.34642 0.89817 0.88876 0.0
C353 C 0.41362 0.09123 0.17975 0.0
C354 C 0.40449 0.09208 0.11219 0.0
C355 C 0.38408 0.12025 0.21255 0.0
C356 C 0.34403 0.15175 0.17943 0.0
H357 H 0.44421 0.06816 0.20801 0.0
H358 H 0.39334 0.11846 0.26426 0.0
S359 S 0.3019 0.16571 1.00282 0.0
N360 N 0.35072 0.12583 1.01378 0.0
N361 N 0.29528 0.18021 0.07488 0.0
C362 C 0.33377 0.15234 0.11194 0.0
C363 C 0.36386 0.12263 0.07855 0.0
C364 C 0.88381 0.92389 0.67969 0.0
C365 C 0.90834 0.90767 0.63065 0.0
C366 C 0.85982 0.88971 0.72106 0.0
C367 C 0.86167 0.83806 0.71646 0.0
H368 H 0.88352 0.96315 0.68638 0.0
H369 H 0.84142 0.90349 0.75843 0.0
S370 S 0.92107 0.7765 0.59661 0.0
N371 N 0.93141 0.83677 0.57856 0.0
N372 N 0.88941 0.77235 0.65912 0.0
C373 C 0.88594 0.82142 0.66769 0.0
C374 C 0.90852 0.85634 0.624 0.0
C375 C 0.88058 0.09715 0.4062 0.0
C376 C 0.93102 0.10861 0.42429 0.0
C377 C 0.85079 0.12656 0.35461 0.0
C378 C 0.8708 0.16783 0.31922 0.0
H379 H 0.86351 0.06669 0.43366 0.0
H380 H 0.81154 0.1178 0.34358 0.0
S381 S 1.00325 0.2079 0.34146 0.0
N382 N 1.00102 0.1604 0.39884 0.0
N383 N 0.94584 0.21477 0.30158 0.0
C384 C 0.92214 0.1773 0.33433 0.0
C385 C 0.95204 0.14796 0.38712 0.0
C386 C 0.62041 0.18281 0.12554 0.0
C387 C 0.66231 0.1582 0.16458 0.0
C388 C 0.58726 0.15681 0.08598 0.0
C389 C 0.5954 0.10543 0.0827 0.0
H390 H 0.61299 0.22252 0.12589 0.0
H391 H 0.55515 0.17742 0.05735 0.0
S392 S 0.70238 0.02488 0.17195 0.0
N393 N 0.71129 0.08019 0.19689 0.0
N394 N 0.65052 0.03162 0.11947 0.0
C395 C 0.63788 0.08056 0.12067 0.0
C396 C 0.67095 0.10688 0.16245 0.0
C397 C 0.63503 0.8844 0.83955 0.0
C398 C 0.67591 0.85425 0.8731 0.0
C399 C 0.60497 0.91338 0.87176 0.0
C400 C 0.61443 0.91382 0.93906 0.0
H401 H 0.62543 0.88498 0.78804 0.0
H402 H 0.57366 0.93528 0.84331 0.0
S403 S 0.71966 0.84463 0.04895 0.0
N404 N 0.72611 0.82889 0.97742 0.0
N405 N 0.66972 0.88312 0.03751 0.0
C406 C 0.656 0.88476 0.97302 0.0
C407 C 0.68661 0.85512 0.94023 0.0
C408 C 0.65446 0.60642 0.9337 0.0
C409 C 0.60422 0.59525 0.91325 0.0
C410 C 0.68119 0.63994 0.89475 0.0
C411 C 0.65825 0.66453 0.83496 0.0
H412 H 0.67327 0.58915 0.98003 0.0
H413 H 0.7195 0.64768 0.91242 0.0
S414 S 0.52797 0.64801 0.75847 0.0
N415 N 0.53319 0.61091 0.82781 0.0
N416 N 0.58294 0.67454 0.75635 0.0
C417 C 0.60828 0.65349 0.81382 0.0
C418 C 0.58144 0.61869 0.8525 0.0
C419 C 0.60138 0.32105 0.19364 0.0
C420 C 0.6482 0.33788 0.21927 0.0
C421 C 0.57227 0.34862 0.14046 0.0
C422 C 0.58831 0.39459 0.11146 0.0
H423 H 0.58748 0.28564 0.21379 0.0
H424 H 0.53674 0.33371 0.12211 0.0
S425 S 0.70784 0.4555 0.16055 0.0
N426 N 0.70929 0.40355 0.2121 0.0
N427 N 0.65421 0.45572 0.112 0.0
C428 C 0.63481 0.41223 0.13693 0.0
C429 C 0.66477 0.38384 0.19096 0.0
C430 C 0.88943 0.42095 0.42399 0.0
C431 C 0.92823 0.3942 0.46716 0.0
C432 C 0.85651 0.39646 0.38152 0.0
C433 C 0.86042 0.34418 0.38237 0.0
H434 H 0.88405 0.46095 0.42343 0.0
H435 H 0.82684 0.41824 0.3495 0.0
S436 S 0.95538 0.25675 0.48553 0.0
N437 N 0.96907 0.31244 0.50649 0.0
N438 N 0.90626 0.26655 0.42906 0.0
C439 C 0.89897 0.31708 0.42517 0.0
C440 C 0.93306 0.34202 0.46706 0.0
C441 C 0.84665 0.65503 0.62405 0.0
C442 C 0.84705 0.64447 0.69149 0.0
C443 C 0.87413 0.62502 0.58999 0.0
C444 C 0.90336 0.58299 0.62171 0.0
H445 H 0.8256 0.68742 0.59701 0.0
H446 H 0.87343 0.63572 0.53864 0.0
S447 S 0.91388 0.53584 0.7968 0.0
N448 N 0.87707 0.58679 0.78785 0.0
N449 N 0.92826 0.53033 0.72434 0.0
C450 C 0.90291 0.57101 0.68885 0.0
C451 C 0.87496 0.60166 0.72352 0.0
C452 C 0.41012 0.3404 0.22146 0.0
C453 C 0.35735 0.34326 0.21911 0.0
C454 C 0.43551 0.37572 0.18383 0.0
C455 C 0.4091 0.41438 0.14075 0.0
H456 H 0.43224 0.31064 0.25277 0.0
H457 H 0.47617 0.37211 0.18759 0.0
S458 S 0.27148 0.44158 0.11962 0.0
N459 N 0.28011 0.39123 0.17424 0.0
N460 N 0.32781 0.45534 0.09967 0.0
C461 C 0.35652 0.41821 0.13798 0.0
C462 C 0.33066 0.38323 0.17817 0.0
C463 C 0.38255 0.59852 0.91733 0.0
C464 C 0.42948 0.61563 0.94223 0.0
C465 C 0.35304 0.62596 0.86383 0.0
C466 C 0.36987 0.67096 0.83298 0.0
H467 H 0.3681 0.56426 0.94006 0.0
H468 H 0.31656 0.61219 0.84702 0.0
S469 S 0.49149 0.73035 0.8775 0.0
N470 N 0.49206 0.67965 0.93078 0.0
N471 N 0.43757 0.73022 0.82986 0.0
C472 C 0.41748 0.68754 0.85632 0.0
C473 C 0.44698 0.66019 0.91118 0.0
C474 C 0.16034 0.60567 0.6751 0.0
C475 C 0.1567 0.65817 0.67222 0.0
C476 C 0.12753 0.58034 0.63342 0.0
C477 C 0.08913 0.60651 0.58897 0.0
H478 H 0.18963 0.5843 0.70823 0.0
H479 H 0.13256 0.54013 0.63573 0.0
S480 S 0.06262 0.74424 0.5652 0.0
N481 N 0.11141 0.7353 0.6222 0.0
N482 N 0.04889 0.68798 0.54632 0.0
C483 C 0.08458 0.65892 0.58702 0.0
C484 C 0.11853 0.68464 0.62808 0.0
C485 C 0.17126 0.34609 0.43221 0.0
C486 C 0.17216 0.35831 0.36518 0.0
C487 C 0.14354 0.37543 0.46678 0.0
C488 C 0.11563 0.41854 0.43603 0.0
H489 H 0.19145 0.31292 0.45846 0.0
H490 H 0.14294 0.36336 0.51763 0.0
S491 S 0.11114 0.47164 0.26366 0.0
N492 N 0.14621 0.41962 0.27098 0.0
N493 N 0.09474 0.47494 0.33568 0.0
C494 C 0.11798 0.43257 0.36966 0.0
C495 C 0.14604 0.40252 0.33439 0.0
C496 C 1.00336 0.04238 0.99225 0.0
C497 C 0.03128 0.00871 0.96367 0.0
C498 C 0.99434 0.03145 0.05637 0.0
C499 C 0.0129 0.98644 0.09429 0.0
H500 H 0.98757 0.07708 0.96445 0.0
H501 H 0.97184 0.05802 0.07605 0.0
S502 S 0.09221 0.88798 0.04411 0.0
N503 N 0.08007 0.93001 0.97925 0.0
N504 N 0.06322 0.90947 0.09997 0.0
C505 C 0.04177 0.95292 0.06673 0.0
C506 C 0.05092 0.96404 1.00139 0.0
C507 C 0.2864 0.7339 0.32703 0.0
C508 C 0.25132 0.76835 0.34273 0.0
C509 C 0.28295 0.71975 0.265 0.0
C510 C 0.24425 0.73945 0.21612 0.0
H511 H 0.31726 0.71826 0.36277 0.0
H512 H 0.31125 0.69365 0.255 0.0
S513 S 0.14042 0.82771 0.2338 0.0
N514 N 0.17504 0.81975 0.30521 0.0
N515 N 0.1685 0.79314 0.18873 0.0
C516 C 0.2085 0.77341 0.23139 0.0
C517 C 0.21204 0.78784 0.29459 0.0
C518 C 0.48183 0.97834 0.5605 0.0
C519 C 0.5057 0.01841 0.58747 0.0
C520 C 0.49093 0.9665 0.50005 0.0
C521 C 0.52431 0.99419 0.46397 0.0
H522 H 0.45526 0.95636 0.58591 0.0
H523 H 0.4711 0.93574 0.48103 0.0
S524 S 0.6 0.0998 0.51541 0.0
N525 N 0.56657 0.0839 0.57494 0.0
N526 N 0.58359 0.06168 0.46155 0.0
C527 C 0.54904 0.03387 0.49078 0.0
C528 C 0.53979 0.04593 0.55237 0.0
C529 C 0.25427 0.29268 0.79262 0.0
C530 C 0.23643 0.2545 0.83544 0.0
C531 C 0.26635 0.28356 0.73217 0.0
C532 C 0.26118 0.23584 0.71174 0.0
H533 H 0.25837 0.3302 0.8056 0.0
H534 H 0.27935 0.3144 0.70082 0.0
S535 S 0.21999 0.12183 0.80768 0.0
N536 N 0.21676 0.16628 0.85418 0.0
N537 N 0.23948 0.14921 0.74106 0.0
C538 C 0.24396 0.19715 0.75438 0.0
C539 C 0.23162 0.20644 0.81595 0.0
C540 C 0.72983 0.23677 0.81544 0.0
C541 C 0.76374 0.2733 0.83406 0.0
C542 C 0.72564 0.22266 0.75334 0.0
C543 C 0.75523 0.24443 0.70729 0.0
H544 H 0.70585 0.21934 0.84893 0.0
H545 H 0.69852 0.19485 0.74107 0.0
S546 S 0.85267 0.33894 0.73339 0.0
N547 N 0.82928 0.32913 0.80237 0.0
N548 N 0.82155 0.30253 0.68589 0.0
C549 C 0.78974 0.28058 0.72552 0.0
C550 C 0.79395 0.295 0.78875 0.0
C551 C 0.78589 0.78669 0.3118 0.0
C552 C 0.75339 0.75564 0.34528 0.0
C553 C 0.79769 0.77764 0.2512 0.0
C554 C 0.77773 0.73698 0.22138 0.0
H555 H 0.80178 0.8188 0.33217 0.0
H556 H 0.82224 0.8032 0.22712 0.0
S557 S 0.69404 0.6419 0.29124 0.0
N558 N 0.70341 0.68102 0.34541 0.0
N559 N 0.72588 0.66374 0.23221 0.0
C560 C 0.74573 0.7052 0.25482 0.0
C561 C 0.73356 0.71455 0.31645 0.0
C562 C 0.47149 0.47608 0.54366 0.0
C563 C 0.49797 0.49808 0.59431 0.0
C564 C 0.48446 0.48468 0.48094 0.0
C565 C 0.52464 0.51541 0.46634 0.0
H566 H 0.44001 0.45251 0.55241 0.0
H567 H 0.46228 0.46767 0.44337 0.0
S568 S 0.60867 0.57836 0.58318 0.0
N569 N 0.56779 0.54989 0.6265 0.0
N570 N 0.59269 0.56552 0.50904 0.0
C571 C 0.55198 0.53696 0.51691 0.0
C572 C 0.53854 0.52843 0.58069 0.0
C573 C 0.99277 0.52625 0.975 0.0
C574 C 0.01982 0.48204 0.9692 0.0
C575 C 0.98284 0.53779 0.03534 0.0
C576 C 0.99952 0.50569 0.09277 0.0
H577 H 0.97855 0.55196 0.93241 0.0
H578 H 0.9614 0.57202 0.03688 0.0
S579 S 0.07545 0.38707 0.10475 0.0
N580 N 0.06557 0.40732 1.02681 0.0
N581 N 0.04652 0.42861 0.13968 0.0
C582 C 0.02698 0.46151 0.08768 0.0
C583 C 0.03725 0.44985 1.02622 0.0
loop_
_geom_bond_atom_site_label_1
_geom_bond_atom_site_label_2
_geom_bond_distance
_geom_bond_site_symmetry_2
_ccdc_geom_bond_type
Sm0 C2 2.846 1_655 S
Sm0 O20 2.543 1_565 S
Sm0 O21 2.450 1_655 S
Sm0 O22 2.681 1_655 S
Sm0 O23 2.464 1_655 S
Sm0 O24 2.396 1_665 S
Sm0 O28 2.386 1_565 S
Sm0 O31 2.408 . S
Sm1 C11 2.846 1_455 S
Sm1 O22 2.386 1_545 S
Sm1 O25 2.408 . S
Sm1 O26 2.543 1_545 S
Sm1 O27 2.450 1_455 S
Sm1 O28 2.681 1_455 S
Sm1 O29 2.464 1_455 S
Sm1 O30 2.396 1_445 S
C2 Sm0 2.846 1_455 S
C2 C3 1.506 . S
C2 O20 1.261 1_465 S
C2 O21 1.242 . S
C3 C2 1.506 . S
C3 C4 1.358 1_565 S
C3 C8 1.382 . S
C4 C3 1.358 1_545 S
C4 C5 1.385 . S
C4 H32 0.930 1_455 S
C5 C4 1.385 . S
C5 C6 1.395 1_545 S
C5 H33 0.929 . S
C6 C5 1.395 1_565 S
C6 C7 1.335 . S
C7 C6 1.335 . S
C7 C8 1.398 . S
C7 H34 0.930 . S
C8 C3 1.382 . S
C8 C7 1.398 . S
C8 H35 0.929 . S
C9 O22 1.271 . S
C9 O23 1.251 . S
C10 O24 1.252 . S
C10 O25 1.272 . S
C11 Sm1 2.846 1_655 S
C11 C12 1.506 . S
C11 O26 1.261 1_645 S
C11 O27 1.242 . S
C12 C11 1.506 . S
C12 C13 1.358 1_545 S
C12 C17 1.382 . S
C13 C12 1.358 1_565 S
C13 C14 1.385 . S
C13 H36 0.930 1_655 S
C14 C13 1.385 . S
C14 C15 1.395 1_565 S
C14 H37 0.929 . S
C15 C14 1.395 1_545 S
C15 C16 1.335 . S
C16 C15 1.335 . S
C16 C17 1.398 . S
C16 H38 0.930 . S
C17 C12 1.382 . S
C17 C16 1.398 . S
C17 H39 0.929 . S
C18 O28 1.271 . S
C18 O29 1.251 . S
C19 O30 1.252 . S
C19 O31 1.272 . S
O20 Sm0 2.543 1_545 S
O20 C2 1.261 1_645 S
O21 Sm0 2.450 1_455 S
O21 C2 1.242 . S
O22 Sm0 2.681 1_455 S
O22 Sm1 2.386 1_565 S
O22 C9 1.271 . S
O23 Sm0 2.464 1_455 S
O23 C9 1.251 . S
O24 Sm0 2.396 1_445 S
O24 C10 1.252 . S
O25 Sm1 2.408 . S
O25 C10 1.272 . S
O26 Sm1 2.543 1_565 S
O26 C11 1.261 1_465 S
O27 Sm1 2.450 1_655 S
O27 C11 1.242 . S
O28 Sm0 2.386 1_545 S
O28 Sm1 2.681 1_655 S
O28 C18 1.271 . S
O29 Sm1 2.464 1_655 S
O29 C18 1.251 . S
O30 Sm1 2.396 1_665 S
O30 C19 1.252 . S
O31 Sm0 2.408 . S
O31 C19 1.272 . S
H32 C4 0.930 1_655 S
H33 C5 0.929 . S
H34 C7 0.930 . S
H35 C8 0.929 . S
H36 C13 0.930 1_455 S
H37 C14 0.929 . S
H38 C16 0.930 . S
H39 C17 0.929 . S
Sm40 C42 2.846 . S
Sm40 O60 2.543 . S
Sm40 O61 2.450 . S
Sm40 O62 2.681 . S
Sm40 O63 2.464 . S
Sm40 O64 2.396 . S
Sm40 O68 2.386 . S
Sm40 O71 2.408 . S
Sm41 C51 2.846 . S
Sm41 O62 2.386 . S
Sm41 O65 2.408 . S
Sm41 O66 2.543 . S
Sm41 O67 2.450 . S
Sm41 O68 2.681 . S
Sm41 O69 2.464 . S
Sm41 O70 2.396 . S
C42 Sm40 2.846 . S
C42 C43 1.506 1_556 S
C42 O60 1.261 . S
C42 O61 1.242 . S
C43 C42 1.506 1_554 S
C43 C44 1.358 . S
C43 C48 1.382 . S
C44 C43 1.358 . S
C44 C45 1.385 . S
C44 H72 0.930 . S
C45 C44 1.385 . S
C45 C46 1.395 . S
C45 H73 0.929 . S
C46 C45 1.395 . S
C46 C47 1.335 . S
C47 C46 1.335 . S
C47 C48 1.398 . S
C47 H74 0.930 . S
C48 C43 1.382 . S
C48 C47 1.398 . S
C48 H75 0.929 1_554 S
C49 O62 1.271 . S
C49 O63 1.251 . S
C50 O64 1.252 . S
C50 O65 1.272 . S
C51 Sm41 2.846 . S
C51 C52 1.506 . S
C51 O66 1.261 . S
C51 O67 1.242 . S
C52 C51 1.506 . S
C52 C53 1.358 . S
C52 C57 1.382 . S
C53 C52 1.358 . S
C53 C54 1.385 . S
C53 H76 0.930 . S
C54 C53 1.385 . S
C54 C55 1.395 . S
C54 H77 0.929 . S
C55 C54 1.395 . S
C55 C56 1.335 . S
C56 C55 1.335 . S
C56 C57 1.398 . S
C56 H78 0.930 . S
C57 C52 1.382 . S
C57 C56 1.398 . S
C57 H79 0.929 . S
C58 O68 1.271 . S
C58 O69 1.251 . S
C59 O70 1.252 . S
C59 O71 1.272 . S
O60 Sm40 2.543 . S
O60 C42 1.261 . S
O61 Sm40 2.450 . S
O61 C42 1.242 . S
O62 Sm40 2.681 . S
O62 Sm41 2.386 . S
O62 C49 1.271 . S
O63 Sm40 2.464 . S
O63 C49 1.251 . S
O64 Sm40 2.396 . S
O64 C50 1.252 . S
O65 Sm41 2.408 . S
O65 C50 1.272 . S
O66 Sm41 2.543 . S
O66 C51 1.261 . S
O67 Sm41 2.450 . S
O67 C51 1.242 . S
O68 Sm40 2.386 . S
O68 Sm41 2.681 . S
O68 C58 1.271 . S
O69 Sm41 2.464 . S
O69 C58 1.251 . S
O70 Sm41 2.396 . S
O70 C59 1.252 . S
O71 Sm40 2.408 . S
O71 C59 1.272 . S
H72 C44 0.930 . S
H73 C45 0.929 . S
H74 C47 0.930 . S
H75 C48 0.929 1_556 S
H76 C53 0.930 . S
H77 C54 0.929 . S
H78 C56 0.930 . S
H79 C57 0.929 . S
Sm80 C82 2.846 . S
Sm80 O100 2.543 . S
Sm80 O101 2.450 . S
Sm80 O102 2.681 1_554 S
Sm80 O103 2.464 . S
Sm80 O104 2.396 1_565 S
Sm80 O108 2.386 1_565 S
Sm80 O111 2.408 . S
Sm81 C91 2.846 . S
Sm81 O102 2.386 1_545 S
Sm81 O105 2.408 . S
Sm81 O106 2.543 . S
Sm81 O107 2.450 . S
Sm81 O108 2.681 1_556 S
Sm81 O109 2.464 . S
Sm81 O110 2.396 1_545 S
C82 Sm80 2.846 . S
C82 C83 1.506 . S
C82 O100 1.261 . S
C82 O101 1.242 . S
C83 C82 1.506 . S
C83 C84 1.358 . S
C83 C88 1.382 . S
C84 C83 1.358 . S
C84 C85 1.385 . S
C84 H112 0.930 1_565 S
C85 C84 1.385 . S
C85 C86 1.395 . S
C85 H113 0.929 1_565 S
C86 C85 1.395 . S
C86 C87 1.335 . S
C87 C86 1.335 . S
C87 C88 1.398 . S
C87 H114 0.930 . S
C88 C83 1.382 . S
C88 C87 1.398 . S
C88 H115 0.929 . S
C89 O102 1.271 . S
C89 O103 1.251 1_556 S
C90 O104 1.252 . S
C90 O105 1.272 1_554 S
C91 Sm81 2.846 . S
C91 C92 1.506 . S
C91 O106 1.261 . S
C91 O107 1.242 . S
C92 C91 1.506 . S
C92 C93 1.358 . S
C92 C97 1.382 . S
C93 C92 1.358 . S
C93 C94 1.385 . S
C93 H116 0.930 1_545 S
C94 C93 1.385 . S
C94 C95 1.395 . S
C94 H117 0.929 1_545 S
C95 C94 1.395 . S
C95 C96 1.335 . S
C96 C95 1.335 . S
C96 C97 1.398 . S
C96 H118 0.930 . S
C97 C92 1.382 . S
C97 C96 1.398 . S
C97 H119 0.929 . S
C98 O108 1.271 . S
C98 O109 1.251 1_554 S
C99 O110 1.252 . S
C99 O111 1.272 1_556 S
O100 Sm80 2.543 . S
O100 C82 1.261 . S
O101 Sm80 2.450 . S
O101 C82 1.242 . S
O102 Sm80 2.681 1_556 S
O102 Sm81 2.386 1_565 S
O102 C89 1.271 . S
O103 Sm80 2.464 . S
O103 C89 1.251 1_554 S
O104 Sm80 2.396 1_545 S
O104 C90 1.252 . S
O105 Sm81 2.408 . S
O105 C90 1.272 1_556 S
O106 Sm81 2.543 . S
O106 C91 1.261 . S
O107 Sm81 2.450 . S
O107 C91 1.242 . S
O108 Sm80 2.386 1_545 S
O108 Sm81 2.681 1_554 S
O108 C98 1.271 . S
O109 Sm81 2.464 . S
O109 C98 1.251 1_556 S
O110 Sm81 2.396 1_565 S
O110 C99 1.252 . S
O111 Sm80 2.408 . S
O111 C99 1.272 1_554 S
H112 C84 0.930 1_545 S
H113 C85 0.929 1_545 S
H114 C87 0.930 . S
H115 C88 0.929 . S
H116 C93 0.930 1_565 S
H117 C94 0.929 1_565 S
H118 C96 0.930 . S
H119 C97 0.929 . S
Sm120 C122 2.846 . S
Sm120 O140 2.543 . S
Sm120 O141 2.450 . S
Sm120 O142 2.681 . S
Sm120 O143 2.464 . S
Sm120 O144 2.396 . S
Sm120 O148 2.386 . S
Sm120 O151 2.408 . S
Sm121 C131 2.846 . S
Sm121 O142 2.386 . S
Sm121 O145 2.408 . S
Sm121 O146 2.543 . S
Sm121 O147 2.450 . S
Sm121 O148 2.681 . S
Sm121 O149 2.464 . S
Sm121 O150 2.396 . S
C122 Sm120 2.846 . S
C122 C123 1.506 1_554 S
C122 O140 1.261 . S
C122 O141 1.242 . S
C123 C122 1.506 1_556 S
C123 C124 1.358 . S
C123 C128 1.382 . S
C124 C123 1.358 . S
C124 C125 1.385 . S
C124 H152 0.930 . S
C125 C124 1.385 . S
C125 C126 1.395 . S
C125 H153 0.929 . S
C126 C125 1.395 . S
C126 C127 1.335 . S
C127 C126 1.335 . S
C127 C128 1.398 . S
C127 H154 0.930 . S
C128 C123 1.382 . S
C128 C127 1.398 . S
C128 H155 0.929 . S
C129 O142 1.271 . S
C129 O143 1.251 . S
C130 O144 1.252 . S
C130 O145 1.272 . S
C131 Sm121 2.846 . S
C131 C132 1.506 . S
C131 O146 1.261 . S
C131 O147 1.242 . S
C132 C131 1.506 . S
C132 C133 1.358 . S
C132 C137 1.382 . S
C133 C132 1.358 . S
C133 C134 1.385 . S
C133 H156 0.930 . S
C134 C133 1.385 . S
C134 C135 1.395 . S
C134 H157 0.929 . S
C135 C134 1.395 . S
C135 C136 1.335 . S
C136 C135 1.335 . S
C136 C137 1.398 . S
C136 H158 0.930 . S
C137 C132 1.382 . S
C137 C136 1.398 . S
C137 H159 0.929 . S
C138 O148 1.271 . S
C138 O149 1.251 . S
C139 O150 1.252 . S
C139 O151 1.272 . S
O140 Sm120 2.543 . S
O140 C122 1.261 . S
O141 Sm120 2.450 . S
O141 C122 1.242 . S
O142 Sm120 2.681 . S
O142 Sm121 2.386 . S
O142 C129 1.271 . S
O143 Sm120 2.464 . S
O143 C129 1.251 . S
O144 Sm120 2.396 . S
O144 C130 1.252 . S
O145 Sm121 2.408 . S
O145 C130 1.272 . S
O146 Sm121 2.543 . S
O146 C131 1.261 . S
O147 Sm121 2.450 . S
O147 C131 1.242 . S
O148 Sm120 2.386 . S
O148 Sm121 2.681 . S
O148 C138 1.271 . S
O149 Sm121 2.464 . S
O149 C138 1.251 . S
O150 Sm121 2.396 . S
O150 C139 1.252 . S
O151 Sm120 2.408 . S
O151 C139 1.272 . S
H152 C124 0.930 . S
H153 C125 0.929 . S
H154 C127 0.930 . S
H155 C128 0.929 . S
H156 C133 0.930 . S
H157 C134 0.929 . S
H158 C136 0.930 . S
H159 C137 0.929 . S
Sm160 C162 2.846 . S
Sm160 O180 2.543 . S
Sm160 O181 2.450 . S
Sm160 O182 2.681 . S
Sm160 O183 2.464 . S
Sm160 O184 2.396 . S
Sm160 O188 2.386 . S
Sm160 O191 2.408 . S
Sm161 C171 2.846 . S
Sm161 O182 2.386 . S
Sm161 O185 2.408 . S
Sm161 O186 2.543 . S
Sm161 O187 2.450 . S
Sm161 O188 2.681 . S
Sm161 O189 2.464 . S
Sm161 O190 2.396 . S
C162 Sm160 2.846 . S
C162 C163 1.506 . S
C162 O180 1.261 . S
C162 O181 1.242 . S
C163 C162 1.506 . S
C163 C164 1.358 . S
C163 C168 1.382 . S
C164 C163 1.358 . S
C164 C165 1.385 . S
C164 H192 0.930 . S
C165 C164 1.385 . S
C165 C166 1.395 . S
C165 H193 0.929 . S
C166 C165 1.395 . S
C166 C167 1.335 . S
C167 C166 1.335 . S
C167 C168 1.398 . S
C167 H194 0.930 . S
C168 C163 1.382 . S
C168 C167 1.398 . S
C168 H195 0.929 . S
C169 O182 1.271 . S
C169 O183 1.251 . S
C170 O184 1.252 . S
C170 O185 1.272 . S
C171 Sm161 2.846 . S
C171 C172 1.506 1_554 S
C171 O186 1.261 . S
C171 O187 1.242 . S
C172 C171 1.506 1_556 S
C172 C173 1.358 . S
C172 C177 1.382 . S
C173 C172 1.358 . S
C173 C174 1.385 . S
C173 H196 0.930 . S
C174 C173 1.385 . S
C174 C175 1.395 . S
C174 H197 0.929 . S
C175 C174 1.395 . S
C175 C176 1.335 . S
C176 C175 1.335 . S
C176 C177 1.398 . S
C176 H198 0.930 . S
C177 C172 1.382 . S
C177 C176 1.398 . S
C177 H199 0.929 1_556 S
C178 O188 1.271 . S
C178 O189 1.251 . S
C179 O190 1.252 . S
C179 O191 1.272 . S
O180 Sm160 2.543 . S
O180 C162 1.261 . S
O181 Sm160 2.450 . S
O181 C162 1.242 . S
O182 Sm160 2.681 . S
O182 Sm161 2.386 . S
O182 C169 1.271 . S
O183 Sm160 2.464 . S
O183 C169 1.251 . S
O184 Sm160 2.396 . S
O184 C170 1.252 . S
O185 Sm161 2.408 . S
O185 C170 1.272 . S
O186 Sm161 2.543 . S
O186 C171 1.261 . S
O187 Sm161 2.450 . S
O187 C171 1.242 . S
O188 Sm160 2.386 . S
O188 Sm161 2.681 . S
O188 C178 1.271 . S
O189 Sm161 2.464 . S
O189 C178 1.251 . S
O190 Sm161 2.396 . S
O190 C179 1.252 . S
O191 Sm160 2.408 . S
O191 C179 1.272 . S
H192 C164 0.930 . S
H193 C165 0.929 . S
H194 C167 0.930 . S
H195 C168 0.929 . S
H196 C173 0.930 . S
H197 C174 0.929 . S
H198 C176 0.930 . S
H199 C177 0.929 1_554 S
Sm200 C202 2.846 . S
Sm200 O220 2.543 . S
Sm200 O221 2.450 . S
Sm200 O222 2.681 . S
Sm200 O223 2.464 . S
Sm200 O224 2.396 . S
Sm200 O228 2.386 . S
Sm200 O231 2.408 . S
Sm201 C211 2.846 . S
Sm201 O222 2.386 . S
Sm201 O225 2.408 . S
Sm201 O226 2.543 . S
Sm201 O227 2.450 . S
Sm201 O228 2.681 . S
Sm201 O229 2.464 . S
Sm201 O230 2.396 . S
C202 Sm200 2.846 . S
C202 C203 1.506 . S
C202 O220 1.261 . S
C202 O221 1.242 . S
C203 C202 1.506 . S
C203 C204 1.358 . S
C203 C208 1.382 . S
C204 C203 1.358 . S
C204 C205 1.385 . S
C204 H232 0.930 . S
C205 C204 1.385 . S
C205 C206 1.395 . S
C205 H233 0.929 . S
C206 C205 1.395 . S
C206 C207 1.335 . S
C207 C206 1.335 . S
C207 C208 1.398 . S
C207 H234 0.930 . S
C208 C203 1.382 . S
C208 C207 1.398 . S
C208 H235 0.929 . S
C209 O222 1.271 . S
C209 O223 1.251 . S
C210 O224 1.252 . S
C210 O225 1.272 . S
C211 Sm201 2.846 . S
C211 C212 1.506 1_556 S
C211 O226 1.261 . S
C211 O227 1.242 . S
C212 C211 1.506 1_554 S
C212 C213 1.358 . S
C212 C217 1.382 . S
C213 C212 1.358 . S
C213 C214 1.385 . S
C213 H236 0.930 . S
C214 C213 1.385 . S
C214 C215 1.395 . S
C214 H237 0.929 . S
C215 C214 1.395 . S
C215 C216 1.335 . S
C216 C215 1.335 . S
C216 C217 1.398 . S
C216 H238 0.930 . S
C217 C212 1.382 . S
C217 C216 1.398 . S
C217 H239 0.929 . S
C218 O228 1.271 . S
C218 O229 1.251 . S
C219 O230 1.252 . S
C219 O231 1.272 . S
O220 Sm200 2.543 . S
O220 C202 1.261 . S
O221 Sm200 2.450 . S
O221 C202 1.242 . S
O222 Sm200 2.681 . S
O222 Sm201 2.386 . S
O222 C209 1.271 . S
O223 Sm200 2.464 . S
O223 C209 1.251 . S
O224 Sm200 2.396 . S
O224 C210 1.252 . S
O225 Sm201 2.408 . S
O225 C210 1.272 . S
O226 Sm201 2.543 . S
O226 C211 1.261 . S
O227 Sm201 2.450 . S
O227 C211 1.242 . S
O228 Sm200 2.386 . S
O228 Sm201 2.681 . S
O228 C218 1.271 . S
O229 Sm201 2.464 . S
O229 C218 1.251 . S
O230 Sm201 2.396 . S
O230 C219 1.252 . S
O231 Sm200 2.408 . S
O231 C219 1.272 . S
H232 C204 0.930 . S
H233 C205 0.929 . S
H234 C207 0.930 . S
H235 C208 0.929 . S
H236 C213 0.930 . S
H237 C214 0.929 . S
H238 C216 0.930 . S
H239 C217 0.929 . S
Sm240 C242 2.846 . S
Sm240 O260 2.543 . S
Sm240 O261 2.450 . S
Sm240 O262 2.681 1_556 S
Sm240 O263 2.464 . S
Sm240 O264 2.396 . S
Sm240 O268 2.386 . S
Sm240 O271 2.408 1_556 S
Sm241 C251 2.846 . S
Sm241 O262 2.386 . S
Sm241 O265 2.408 1_554 S
Sm241 O266 2.543 . S
Sm241 O267 2.450 . S
Sm241 O268 2.681 1_554 S
Sm241 O269 2.464 . S
Sm241 O270 2.396 . S
C242 Sm240 2.846 . S
C242 C243 1.506 . S
C242 O260 1.261 . S
C242 O261 1.242 . S
C243 C242 1.506 . S
C243 C244 1.358 . S
C243 C248 1.382 . S
C244 C243 1.358 . S
C244 C245 1.385 . S
C244 H272 0.930 . S
C245 C244 1.385 . S
C245 C246 1.395 . S
C245 H273 0.929 . S
C246 C245 1.395 . S
C246 C247 1.335 . S
C247 C246 1.335 . S
C247 C248 1.398 . S
C247 H274 0.930 . S
C248 C243 1.382 . S
C248 C247 1.398 . S
C248 H275 0.929 . S
C249 O262 1.271 . S
C249 O263 1.251 1_554 S
C250 O264 1.252 . S
C250 O265 1.272 . S
C251 Sm241 2.846 . S
C251 C252 1.506 . S
C251 O266 1.261 . S
C251 O267 1.242 . S
C252 C251 1.506 . S
C252 C253 1.358 . S
C252 C257 1.382 . S
C253 C252 1.358 . S
C253 C254 1.385 . S
C253 H276 0.930 . S
C254 C253 1.385 . S
C254 C255 1.395 . S
C254 H277 0.929 . S
C255 C254 1.395 . S
C255 C256 1.335 . S
C256 C255 1.335 . S
C256 C257 1.398 . S
C256 H278 0.930 . S
C257 C252 1.382 . S
C257 C256 1.398 . S
C257 H279 0.929 . S
C258 O268 1.271 . S
C258 O269 1.251 1_556 S
C259 O270 1.252 . S
C259 O271 1.272 . S
O260 Sm240 2.543 . S
O260 C242 1.261 . S
O261 Sm240 2.450 . S
O261 C242 1.242 . S
O262 Sm240 2.681 1_554 S
O262 Sm241 2.386 . S
O262 C249 1.271 . S
O263 Sm240 2.464 . S
O263 C249 1.251 1_556 S
O264 Sm240 2.396 . S
O264 C250 1.252 . S
O265 Sm241 2.408 1_556 S
O265 C250 1.272 . S
O266 Sm241 2.543 . S
O266 C251 1.261 . S
O267 Sm241 2.450 . S
O267 C251 1.242 . S
O268 Sm240 2.386 . S
O268 Sm241 2.681 1_556 S
O268 C258 1.271 . S
O269 Sm241 2.464 . S
O269 C258 1.251 1_554 S
O270 Sm241 2.396 . S
O270 C259 1.252 . S
O271 Sm240 2.408 1_554 S
O271 C259 1.272 . S
H272 C244 0.930 . S
H273 C245 0.929 . S
H274 C247 0.930 . S
H275 C248 0.929 . S
H276 C253 0.930 . S
H277 C254 0.929 . S
H278 C256 0.930 . S
H279 C257 0.929 . S
Sm280 C282 2.846 1_455 S
Sm280 O300 2.543 . S
Sm280 O301 2.450 1_455 S
Sm280 O302 2.681 1_455 S
Sm280 O303 2.464 1_455 S
Sm280 O304 2.396 1_455 S
Sm280 O308 2.386 . S
Sm280 O311 2.408 . S
Sm281 C291 2.846 1_655 S
Sm281 O302 2.386 . S
Sm281 O305 2.408 . S
Sm281 O306 2.543 . S
Sm281 O307 2.450 1_655 S
Sm281 O308 2.681 1_655 S
Sm281 O309 2.464 1_655 S
Sm281 O310 2.396 1_655 S
C282 Sm280 2.846 1_655 S
C282 C283 1.506 . S
C282 O300 1.261 1_655 S
C282 O301 1.242 . S
C283 C282 1.506 . S
C283 C284 1.358 . S
C283 C288 1.382 . S
C284 C283 1.358 . S
C284 C285 1.385 . S
C284 H312 0.930 1_655 S
C285 C284 1.385 . S
C285 C286 1.395 . S
C285 H313 0.929 . S
C286 C285 1.395 . S
C286 C287 1.335 . S
C287 C286 1.335 . S
C287 C288 1.398 . S
C287 H314 0.930 . S
C288 C283 1.382 . S
C288 C287 1.398 . S
C288 H315 0.929 . S
C289 O302 1.271 . S
C289 O303 1.251 . S
C290 O304 1.252 . S
C290 O305 1.272 . S
C291 Sm281 2.846 1_455 S
C291 C292 1.506 . S
C291 O306 1.261 1_455 S
C291 O307 1.242 . S
C292 C291 1.506 . S
C292 C293 1.358 . S
C292 C297 1.382 . S
C293 C292 1.358 . S
C293 C294 1.385 . S
C293 H316 0.930 1_455 S
C294 C293 1.385 . S
C294 C295 1.395 . S
C294 H317 0.929 . S
C295 C294 1.395 . S
C295 C296 1.335 . S
C296 C295 1.335 . S
C296 C297 1.398 . S
C296 H318 0.930 . S
C297 C292 1.382 . S
C297 C296 1.398 . S
C297 H319 0.929 . S
C298 O308 1.271 . S
C298 O309 1.251 . S
C299 O310 1.252 . S
C299 O311 1.272 . S
O300 Sm280 2.543 . S
O300 C282 1.261 1_455 S
O301 Sm280 2.450 1_655 S
O301 C282 1.242 . S
O302 Sm280 2.681 1_655 S
O302 Sm281 2.386 . S
O302 C289 1.271 . S
O303 Sm280 2.464 1_655 S
O303 C289 1.251 . S
O304 Sm280 2.396 1_655 S
O304 C290 1.252 . S
O305 Sm281 2.408 . S
O305 C290 1.272 . S
O306 Sm281 2.543 . S
O306 C291 1.261 1_655 S
O307 Sm281 2.450 1_455 S
O307 C291 1.242 . S
O308 Sm280 2.386 . S
O308 Sm281 2.681 1_455 S
O308 C298 1.271 . S
O309 Sm281 2.464 1_455 S
O309 C298 1.251 . S
O310 Sm281 2.396 1_455 S
O310 C299 1.252 . S
O311 Sm280 2.408 . S
O311 C299 1.272 . S
H312 C284 0.930 1_455 S
H313 C285 0.929 . S
H314 C287 0.930 . S
H315 C288 0.929 . S
H316 C293 0.930 1_655 S
H317 C294 0.929 . S
H318 C296 0.930 . S
H319 C297 0.929 . S
C320 C321 1.369 . S
C320 C322 1.419 . S
C320 H324 0.930 . S
C321 C320 1.369 . S
C321 C330 1.429 . S
C322 C320 1.419 . S
C322 C323 1.363 . S
C322 H325 0.929 . S
C323 C322 1.363 . S
C323 C329 1.428 . S
H324 C320 0.930 . S
H325 C322 0.929 . S
S326 N327 1.613 . S
S326 N328 1.610 . S
N327 S326 1.613 . S
N327 C330 1.350 . S
N328 S326 1.610 . S
N328 C329 1.351 . S
C329 C323 1.428 . S
C329 N328 1.351 . S
C329 C330 1.434 . S
C330 C321 1.429 . S
C330 N327 1.350 . S
C330 C329 1.434 . S
C331 C332 1.369 . S
C331 C333 1.419 . S
C331 H335 0.930 . S
C332 C331 1.369 . S
C332 C341 1.429 . S
C333 C331 1.419 . S
C333 C334 1.363 . S
C333 H336 0.929 . S
C334 C333 1.363 . S
C334 C340 1.428 . S
H335 C331 0.930 . S
H336 C333 0.929 . S
S337 N338 1.613 . S
S337 N339 1.610 . S
N338 S337 1.613 . S
N338 C341 1.350 . S
N339 S337 1.610 . S
N339 C340 1.351 . S
C340 C334 1.428 . S
C340 N339 1.351 . S
C340 C341 1.434 . S
C341 C332 1.429 . S
C341 N338 1.350 . S
C341 C340 1.434 . S
C342 C343 1.369 . S
C342 C344 1.419 . S
C342 H346 0.930 . S
C343 C342 1.369 . S
C343 C352 1.429 . S
C344 C342 1.419 . S
C344 C345 1.363 . S
C344 H347 0.929 . S
C345 C344 1.363 . S
C345 C351 1.428 . S
H346 C342 0.930 . S
H347 C344 0.929 . S
S348 N349 1.613 . S
S348 N350 1.610 . S
N349 S348 1.613 . S
N349 C352 1.350 . S
N350 S348 1.610 . S
N350 C351 1.351 . S
C351 C345 1.428 . S
C351 N350 1.351 . S
C351 C352 1.434 . S
C352 C343 1.429 . S
C352 N349 1.350 . S
C352 C351 1.434 . S
C353 C354 1.369 . S
C353 C355 1.419 . S
C353 H357 0.930 . S
C354 C353 1.369 . S
C354 C363 1.429 . S
C355 C353 1.419 . S
C355 C356 1.363 . S
C355 H358 0.929 . S
C356 C355 1.363 . S
C356 C362 1.428 . S
H357 C353 0.930 . S
H358 C355 0.929 . S
S359 N360 1.611 . S
S359 N361 1.610 1_556 S
N360 S359 1.611 . S
N360 C363 1.333 1_556 S
N361 S359 1.610 1_554 S
N361 C362 1.351 . S
C362 C356 1.428 . S
C362 N361 1.351 . S
C362 C363 1.434 . S
C363 C354 1.429 . S
C363 N360 1.333 1_554 S
C363 C362 1.434 . S
C364 C365 1.369 . S
C364 C366 1.419 . S
C364 H368 0.930 . S
C365 C364 1.369 . S
C365 C374 1.429 . S
C366 C364 1.419 . S
C366 C367 1.363 . S
C366 H369 0.929 . S
C367 C366 1.363 . S
C367 C373 1.428 . S
H368 C364 0.930 . S
H369 C366 0.929 . S
S370 N371 1.613 . S
S370 N372 1.610 . S
N371 S370 1.613 . S
N371 C374 1.350 . S
N372 S370 1.610 . S
N372 C373 1.351 . S
C373 C367 1.428 . S
C373 N372 1.351 . S
C373 C374 1.434 . S
C374 C365 1.429 . S
C374 N371 1.350 . S
C374 C373 1.434 . S
C375 C376 1.369 . S
C375 C377 1.419 . S
C375 H379 0.930 . S
C376 C375 1.369 . S
C376 C385 1.429 . S
C377 C375 1.419 . S
C377 C378 1.363 . S
C377 H380 0.929 . S
C378 C377 1.363 . S
C378 C384 1.428 . S
H379 C375 0.930 . S
H380 C377 0.929 . S
S381 N382 1.613 . S
S381 N383 1.610 . S
N382 S381 1.613 . S
N382 C385 1.350 . S
N383 S381 1.610 . S
N383 C384 1.351 . S
C384 C378 1.428 . S
C384 N383 1.351 . S
C384 C385 1.434 . S
C385 C376 1.429 . S
C385 N382 1.350 . S
C385 C384 1.434 . S
C386 C387 1.369 . S
C386 C388 1.419 . S
C386 H390 0.930 . S
C387 C386 1.369 . S
C387 C396 1.429 . S
C388 C386 1.419 . S
C388 C389 1.363 . S
C388 H391 0.929 . S
C389 C388 1.363 . S
C389 C395 1.428 . S
H390 C386 0.930 . S
H391 C388 0.929 . S
S392 N393 1.613 . S
S392 N394 1.610 . S
N393 S392 1.613 . S
N393 C396 1.350 . S
N394 S392 1.610 . S
N394 C395 1.351 . S
C395 C389 1.428 . S
C395 N394 1.351 . S
C395 C396 1.434 . S
C396 C387 1.429 . S
C396 N393 1.350 . S
C396 C395 1.434 . S
C397 C398 1.369 . S
C397 C399 1.419 . S
C397 H401 0.930 . S
C398 C397 1.369 . S
C398 C407 1.429 . S
C399 C397 1.419 . S
C399 C400 1.363 . S
C399 H402 0.929 . S
C400 C399 1.363 . S
C400 C406 1.428 . S
H401 C397 0.930 . S
H402 C399 0.929 . S
S403 N404 1.613 1_554 S
S403 N405 1.610 1_554 S
N404 S403 1.613 1_556 S
N404 C407 1.350 . S
N405 S403 1.610 1_556 S
N405 C406 1.351 . S
C406 C400 1.428 . S
C406 N405 1.351 . S
C406 C407 1.434 . S
C407 C398 1.429 . S
C407 N404 1.350 . S
C407 C406 1.434 . S
C408 C409 1.369 . S
C408 C410 1.419 . S
C408 H412 0.930 . S
C409 C408 1.369 . S
C409 C418 1.429 . S
C410 C408 1.419 . S
C410 C411 1.363 . S
C410 H413 0.929 . S
C411 C410 1.363 . S
C411 C417 1.428 . S
H412 C408 0.930 . S
H413 C410 0.929 . S
S414 N415 1.613 . S
S414 N416 1.610 . S
N415 S414 1.613 . S
N415 C418 1.350 . S
N416 S414 1.610 . S
N416 C417 1.351 . S
C417 C411 1.428 . S
C417 N416 1.351 . S
C417 C418 1.434 . S
C418 C409 1.429 . S
C418 N415 1.350 . S
C418 C417 1.434 . S
C419 C420 1.369 . S
C419 C421 1.419 . S
C419 H423 0.930 . S
C420 C419 1.369 . S
C420 C429 1.429 . S
C421 C419 1.419 . S
C421 C422 1.363 . S
C421 H424 0.929 . S
C422 C421 1.363 . S
C422 C428 1.428 . S
H423 C419 0.930 . S
H424 C421 0.929 . S
S425 N426 1.613 . S
S425 N427 1.610 . S
N426 S425 1.613 . S
N426 C429 1.350 . S
N427 S425 1.610 . S
N427 C428 1.351 . S
C428 C422 1.428 . S
C428 N427 1.351 . S
C428 C429 1.434 . S
C429 C420 1.429 . S
C429 N426 1.350 . S
C429 C428 1.434 . S
C430 C431 1.369 . S
C430 C432 1.419 . S
C430 H434 0.930 . S
C431 C430 1.369 . S
C431 C440 1.429 . S
C432 C430 1.419 . S
C432 C433 1.363 . S
C432 H435 0.929 . S
C433 C432 1.363 . S
C433 C439 1.428 . S
H434 C430 0.930 . S
H435 C432 0.929 . S
S436 N437 1.613 . S
S436 N438 1.610 . S
N437 S436 1.613 . S
N437 C440 1.350 . S
N438 S436 1.610 . S
N438 C439 1.351 . S
C439 C433 1.428 . S
C439 N438 1.351 . S
C439 C440 1.434 . S
C440 C431 1.429 . S
C440 N437 1.350 . S
C440 C439 1.434 . S
C441 C442 1.369 . S
C441 C443 1.419 . S
C441 H445 0.930 . S
C442 C441 1.369 . S
C442 C451 1.429 . S
C443 C441 1.419 . S
C443 C444 1.363 . S
C443 H446 0.929 . S
C444 C443 1.363 . S
C444 C450 1.428 . S
H445 C441 0.930 . S
H446 C443 0.929 . S
S447 N448 1.613 . S
S447 N449 1.610 . S
N448 S447 1.613 . S
N448 C451 1.350 . S
N449 S447 1.610 . S
N449 C450 1.351 . S
C450 C444 1.428 . S
C450 N449 1.351 . S
C450 C451 1.434 . S
C451 C442 1.429 . S
C451 N448 1.350 . S
C451 C450 1.434 . S
C452 C453 1.369 . S
C452 C454 1.419 . S
C452 H456 0.930 . S
C453 C452 1.369 . S
C453 C462 1.429 . S
C454 C452 1.419 . S
C454 C455 1.363 . S
C454 H457 0.929 . S
C455 C454 1.363 . S
C455 C461 1.428 . S
H456 C452 0.930 . S
H457 C454 0.929 . S
S458 N459 1.613 . S
S458 N460 1.610 . S
N459 S458 1.613 . S
N459 C462 1.350 . S
N460 S458 1.610 . S
N460 C461 1.351 . S
C461 C455 1.428 . S
C461 N460 1.351 . S
C461 C462 1.434 . S
C462 C453 1.429 . S
C462 N459 1.350 . S
C462 C461 1.434 . S
C463 C464 1.369 . S
C463 C465 1.419 . S
C463 H467 0.930 . S
C464 C463 1.369 . S
C464 C473 1.429 . S
C465 C463 1.419 . S
C465 C466 1.363 . S
C465 H468 0.929 . S
C466 C465 1.363 . S
C466 C472 1.428 . S
H467 C463 0.930 . S
H468 C465 0.929 . S
S469 N470 1.613 . S
S469 N471 1.610 . S
N470 S469 1.613 . S
N470 C473 1.350 . S
N471 S469 1.610 . S
N471 C472 1.351 . S
C472 C466 1.428 . S
C472 N471 1.351 . S
C472 C473 1.434 . S
C473 C464 1.429 . S
C473 N470 1.350 . S
C473 C472 1.434 . S
C474 C475 1.369 . S
C474 C476 1.419 . S
C474 H478 0.930 . S
C475 C474 1.369 . S
C475 C484 1.429 . S
C476 C474 1.419 . S
C476 C477 1.363 . S
C476 H479 0.929 . S
C477 C476 1.363 . S
C477 C483 1.428 . S
H478 C474 0.930 . S
H479 C476 0.929 . S
S480 N481 1.613 . S
S480 N482 1.610 . S
N481 S480 1.613 . S
N481 C484 1.350 . S
N482 S480 1.610 . S
N482 C483 1.351 . S
C483 C477 1.428 . S
C483 N482 1.351 . S
C483 C484 1.434 . S
C484 C475 1.429 . S
C484 N481 1.350 . S
C484 C483 1.434 . S
C485 C486 1.369 . S
C485 C487 1.419 . S
C485 H489 0.930 . S
C486 C485 1.369 . S
C486 C495 1.429 . S
C487 C485 1.419 . S
C487 C488 1.363 . S
C487 H490 0.929 . S
C488 C487 1.363 . S
C488 C494 1.428 . S
H489 C485 0.930 . S
H490 C487 0.929 . S
S491 N492 1.613 . S
S491 N493 1.610 . S
N492 S491 1.613 . S
N492 C495 1.350 . S
N493 S491 1.610 . S
N493 C494 1.351 . S
C494 C488 1.428 . S
C494 N493 1.351 . S
C494 C495 1.434 . S
C495 C486 1.429 . S
C495 N492 1.350 . S
C495 C494 1.434 . S
C496 C497 1.369 1_565 S
C496 C498 1.419 1_556 S
C496 H500 0.930 . S
C497 C496 1.369 1_545 S
C497 C506 1.429 1_655 S
C498 C496 1.419 1_554 S
C498 C499 1.363 1_655 S
C498 H501 0.929 . S
C499 C498 1.363 1_455 S
C499 C505 1.428 1_565 S
H500 C496 0.930 . S
H501 C498 0.929 . S
S502 N503 1.613 . S
S502 N504 1.610 1_556 S
N503 S502 1.613 . S
N503 C506 1.350 . S
N504 S502 1.610 1_554 S
N504 C505 1.351 . S
C505 C499 1.428 1_545 S
C505 N504 1.351 . S
C505 C506 1.434 1_554 S
C506 C497 1.429 1_455 S
C506 N503 1.350 . S
C506 C505 1.434 1_556 S
C507 C508 1.369 . S
C507 C509 1.419 . S
C507 H511 0.930 . S
C508 C507 1.369 . S
C508 C517 1.429 . S
C509 C507 1.419 . S
C509 C510 1.363 . S
C509 H512 0.929 . S
C510 C509 1.363 . S
C510 C516 1.428 . S
H511 C507 0.930 . S
H512 C509 0.929 . S
S513 N514 1.613 . S
S513 N515 1.610 . S
N514 S513 1.613 . S
N514 C517 1.350 . S
N515 S513 1.610 . S
N515 C516 1.351 . S
C516 C510 1.428 . S
C516 N515 1.351 . S
C516 C517 1.434 . S
C517 C508 1.429 . S
C517 N514 1.350 . S
C517 C516 1.434 . S
C518 C519 1.369 . S
C518 C520 1.419 1_545 S
C518 H522 0.930 . S
C519 C518 1.369 . S
C519 C528 1.429 . S
C520 C518 1.419 1_565 S
C520 C521 1.363 . S
C520 H523 0.929 . S
C521 C520 1.363 . S
C521 C527 1.428 . S
H522 C518 0.930 . S
H523 C520 0.929 . S
S524 N525 1.613 1_565 S
S524 N526 1.610 . S
N525 S524 1.613 1_545 S
N525 C528 1.350 . S
N526 S524 1.610 . S
N526 C527 1.351 . S
C527 C521 1.428 . S
C527 N526 1.351 . S
C527 C528 1.434 1_565 S
C528 C519 1.429 . S
C528 N525 1.350 . S
C528 C527 1.434 1_545 S
C529 C530 1.369 . S
C529 C531 1.419 . S
C529 H533 0.930 . S
C530 C529 1.369 . S
C530 C539 1.429 . S
C531 C529 1.419 . S
C531 C532 1.363 . S
C531 H534 0.929 . S
C532 C531 1.363 . S
C532 C538 1.428 . S
H533 C529 0.930 . S
H534 C531 0.929 . S
S535 N536 1.613 . S
S535 N537 1.610 . S
N536 S535 1.613 . S
N536 C539 1.350 . S
N537 S535 1.610 . S
N537 C538 1.351 . S
C538 C532 1.428 . S
C538 N537 1.351 . S
C538 C539 1.434 . S
C539 C530 1.429 . S
C539 N536 1.350 . S
C539 C538 1.434 . S
C540 C541 1.369 . S
C540 C542 1.419 . S
C540 H544 0.930 . S
C541 C540 1.369 . S
C541 C550 1.429 . S
C542 C540 1.419 . S
C542 C543 1.363 . S
C542 H545 0.929 . S
C543 C542 1.363 . S
C543 C549 1.428 . S
H544 C540 0.930 . S
H545 C542 0.929 . S
S546 N547 1.613 . S
S546 N548 1.610 . S
N547 S546 1.613 . S
N547 C550 1.350 . S
N548 S546 1.610 . S
N548 C549 1.351 . S
C549 C543 1.428 . S
C549 N548 1.351 . S
C549 C550 1.434 . S
C550 C541 1.429 . S
C550 N547 1.350 . S
C550 C549 1.434 . S
C551 C552 1.369 . S
C551 C553 1.419 . S
C551 H555 0.930 . S
C552 C551 1.369 . S
C552 C561 1.429 . S
C553 C551 1.419 . S
C553 C554 1.363 . S
C553 H556 0.929 . S
C554 C553 1.363 . S
C554 C560 1.428 . S
H555 C551 0.930 . S
H556 C553 0.929 . S
S557 N558 1.613 . S
S557 N559 1.610 . S
N558 S557 1.613 . S
N558 C561 1.350 . S
N559 S557 1.610 . S
N559 C560 1.351 . S
C560 C554 1.428 . S
C560 N559 1.351 . S
C560 C561 1.434 . S
C561 C552 1.429 . S
C561 N558 1.350 . S
C561 C560 1.434 . S
C562 C563 1.369 . S
C562 C564 1.419 . S
C562 H566 0.930 . S
C563 C562 1.369 . S
C563 C572 1.429 . S
C564 C562 1.419 . S
C564 C565 1.363 . S
C564 H567 0.929 . S
C565 C564 1.363 . S
C565 C571 1.428 . S
H566 C562 0.930 . S
H567 C564 0.929 . S
S568 N569 1.613 . S
S568 N570 1.610 . S
N569 S568 1.613 . S
N569 C572 1.350 . S
N570 S568 1.610 . S
N570 C571 1.351 . S
C571 C565 1.428 . S
C571 N570 1.351 . S
C571 C572 1.434 . S
C572 C563 1.429 . S
C572 N569 1.350 . S
C572 C571 1.434 . S
C573 C574 1.369 . S
C573 C575 1.419 1_655 S
C573 H577 0.930 . S
C574 C573 1.369 . S
C574 C583 1.429 1_556 S
C575 C573 1.419 1_455 S
C575 C576 1.363 1_556 S
C575 H578 0.929 . S
C576 C575 1.363 1_554 S
C576 C582 1.428 . S
H577 C573 0.930 . S
H578 C575 0.929 . S
S579 N580 1.613 . S
S579 N581 1.610 1_655 S
N580 S579 1.613 . S
N580 C583 1.350 . S
N581 S579 1.610 1_455 S
N581 C582 1.351 . S
C582 C576 1.428 . S
C582 N581 1.351 . S
C582 C583 1.434 1_455 S
C583 C574 1.429 1_554 S
C583 N580 1.350 . S
C583 C582 1.434 1_655 S
C321 C10 1.569 . S
C323 C129 1.545 . S
C332 C9 1.041 . S
C334 C49 1.042 . S
C343 C50 1.567 . S
C345 C89 1.552 . S
C354 C90 1.982 . S
C356 C130 1.979 . S
C365 C19 1.568 . S
C367 C218 1.551 . S
C376 C18 1.036 . S
C378 C178 1.035 . S
C387 C179 1.566 . S
C389 C98 1.549 . S
C398 C219 1.982 . S
C400 C99 1.985 . S
C409 C250 1.569 . S
C411 C209 1.548 . S
C420 C169 1.038 . S
C422 C249 1.039 . S
C431 C289 1.546 . S
C433 C170 1.570 . S
C442 C210 1.981 . S
C444 C290 1.983 . S
C453 C138 1.552 . S
C455 C259 1.565 . S
C464 C258 1.036 . S
C466 C58 1.037 . S
C475 C59 1.569 . S
C477 C298 1.546 . S
C486 C139 1.981 . S
C488 C299 1.980 . S
C497 C15 1.502 . S
C499 C6 1.512 . S
C508 C55 1.508 . S
C510 C46 1.508 . S
C519 C95 1.912 . S
C521 C86 1.904 . S
C530 C126 1.912 . S
C532 C135 1.904 . S
C541 C175 1.502 . S
C543 C166 1.512 . S
C552 C206 1.911 . S
C554 C215 1.905 . S
C563 C246 1.504 . S
C565 C255 1.510 . S
C574 C286 1.913 . S
C576 C295 1.904 . S
