# Generated by pormake.
# Topology umn, (4)-cn, num edge types: 1
# Building blocks:
#     Node 0, Type 0, BuildingBlock: QUQFOY_clean_sbu_1, # of connection points: 4
#     Node 1, Type 0, BuildingBlock: QUQFOY_clean_sbu_1, # of connection points: 4
#     Node 2, Type 0, BuildingBlock: QUQFOY_clean_sbu_1, # of connection points: 4
#     Node 3, Type 0, BuildingBlock: QUQFOY_clean_sbu_1, # of connection points: 4
#     Node 4, Type 0, BuildingBlock: QUQFOY_clean_sbu_1, # of connection points: 4
#     Node 5, Type 0, BuildingBlock: QUQFOY_clean_sbu_1, # of connection points: 4
#     Node 6, Type 0, BuildingBlock: QUQFOY_clean_sbu_1, # of connection points: 4
#     Node 7, Type 0, BuildingBlock: QUQFOY_clean_sbu_1, # of connection points: 4
#     Node 8, Type 0, BuildingBlock: QUQFOY_clean_sbu_1, # of connection points: 4
#     Node 9, Type 0, BuildingBlock: QUQFOY_clean_sbu_1, # of connection points: 4
#     Node 10, Type 0, BuildingBlock: QUQFOY_clean_sbu_1, # of connection points: 4
#     Node 11, Type 0, BuildingBlock: QUQFOY_clean_sbu_1, # of connection points: 4
#     Node 12, Type 0, BuildingBlock: QUQFOY_clean_sbu_1, # of connection points: 4
#     Node 13, Type 0, BuildingBlock: QUQFOY_clean_sbu_1, # of connection points: 4
#     Node 14, Type 0, BuildingBlock: QUQFOY_clean_sbu_1, # of connection points: 4
#     Node 15, Type 0, BuildingBlock: QUQFOY_clean_sbu_1, # of connection points: 4
#     Node 16, Type 0, BuildingBlock: QUQFOY_clean_sbu_1, # of connection points: 4
#     Node 17, Type 0, BuildingBlock: QUQFOY_clean_sbu_1, # of connection points: 4
#     Node 18, Type 0, BuildingBlock: QUQFOY_clean_sbu_1, # of connection points: 4
#     Node 19, Type 0, BuildingBlock: QUQFOY_clean_sbu_1, # of connection points: 4
#     Node 20, Type 0, BuildingBlock: QUQFOY_clean_sbu_1, # of connection points: 4
#     Node 21, Type 0, BuildingBlock: QUQFOY_clean_sbu_1, # of connection points: 4
#     Node 22, Type 0, BuildingBlock: QUQFOY_clean_sbu_1, # of connection points: 4
#     Node 23, Type 0, BuildingBlock: QUQFOY_clean_sbu_1, # of connection points: 4
#     Node 24, Type 0, BuildingBlock: QUQFOY_clean_sbu_1, # of connection points: 4
#     Node 25, Type 0, BuildingBlock: QUQFOY_clean_sbu_1, # of connection points: 4
#     Node 26, Type 0, BuildingBlock: QUQFOY_clean_sbu_1, # of connection points: 4
#     Node 27, Type 0, BuildingBlock: QUQFOY_clean_sbu_1, # of connection points: 4
#     Node 28, Type 0, BuildingBlock: QUQFOY_clean_sbu_1, # of connection points: 4
#     Node 29, Type 0, BuildingBlock: QUQFOY_clean_sbu_1, # of connection points: 4
#     Node 30, Type 0, BuildingBlock: QUQFOY_clean_sbu_1, # of connection points: 4
#     Node 31, Type 0, BuildingBlock: QUQFOY_clean_sbu_1, # of connection points: 4
#     Node 32, Type 0, BuildingBlock: QUQFOY_clean_sbu_1, # of connection points: 4
#     Node 33, Type 0, BuildingBlock: QUQFOY_clean_sbu_1, # of connection points: 4
#     Node 34, Type 0, BuildingBlock: QUQFOY_clean_sbu_1, # of connection points: 4
#     Node 35, Type 0, BuildingBlock: QUQFOY_clean_sbu_1, # of connection points: 4
#     Edge 36, Type (0, 0), BuildingBlock: ZUJKAS_clean_linker_0, # of connection points: 2
#     Edge 37, Type (0, 0), BuildingBlock: ZUJKAS_clean_linker_0, # of connection points: 2
#     Edge 38, Type (0, 0), BuildingBlock: ZUJKAS_clean_linker_0, # of connection points: 2
#     Edge 39, Type (0, 0), BuildingBlock: ZUJKAS_clean_linker_0, # of connection points: 2
#     Edge 40, Type (0, 0), BuildingBlock: ZUJKAS_clean_linker_0, # of connection points: 2
#     Edge 41, Type (0, 0), BuildingBlock: ZUJKAS_clean_linker_0, # of connection points: 2
#     Edge 42, Type (0, 0), BuildingBlock: ZUJKAS_clean_linker_0, # of connection points: 2
#     Edge 43, Type (0, 0), BuildingBlock: ZUJKAS_clean_linker_0, # of connection points: 2
#     Edge 44, Type (0, 0), BuildingBlock: ZUJKAS_clean_linker_0, # of connection points: 2
#     Edge 45, Type (0, 0), BuildingBlock: ZUJKAS_clean_linker_0, # of connection points: 2
#     Edge 46, Type (0, 0), BuildingBlock: ZUJKAS_clean_linker_0, # of connection points: 2
#     Edge 47, Type (0, 0), BuildingBlock: ZUJKAS_clean_linker_0, # of connection points: 2
#     Edge 48, Type (0, 0), BuildingBlock: ZUJKAS_clean_linker_0, # of connection points: 2
#     Edge 49, Type (0, 0), BuildingBlock: ZUJKAS_clean_linker_0, # of connection points: 2
#     Edge 50, Type (0, 0), BuildingBlock: ZUJKAS_clean_linker_0, # of connection points: 2
#     Edge 51, Type (0, 0), BuildingBlock: ZUJKAS_clean_linker_0, # of connection points: 2
#     Edge 52, Type (0, 0), BuildingBlock: ZUJKAS_clean_linker_0, # of connection points: 2
#     Edge 53, Type (0, 0), BuildingBlock: ZUJKAS_clean_linker_0, # of connection points: 2
#     Edge 54, Type (0, 0), BuildingBlock: ZUJKAS_clean_linker_0, # of connection points: 2
#     Edge 55, Type (0, 0), BuildingBlock: ZUJKAS_clean_linker_0, # of connection points: 2
#     Edge 56, Type (0, 0), BuildingBlock: ZUJKAS_clean_linker_0, # of connection points: 2
#     Edge 57, Type (0, 0), BuildingBlock: ZUJKAS_clean_linker_0, # of connection points: 2
#     Edge 58, Type (0, 0), BuildingBlock: ZUJKAS_clean_linker_0, # of connection points: 2
#     Edge 59, Type (0, 0), BuildingBlock: ZUJKAS_clean_linker_0, # of connection points: 2
#     Edge 60, Type (0, 0), BuildingBlock: ZUJKAS_clean_linker_0, # of connection points: 2
#     Edge 61, Type (0, 0), BuildingBlock: ZUJKAS_clean_linker_0, # of connection points: 2
#     Edge 62, Type (0, 0), BuildingBlock: ZUJKAS_clean_linker_0, # of connection points: 2
#     Edge 63, Type (0, 0), BuildingBlock: ZUJKAS_clean_linker_0, # of connection points: 2
#     Edge 64, Type (0, 0), BuildingBlock: ZUJKAS_clean_linker_0, # of connection points: 2
#     Edge 65, Type (0, 0), BuildingBlock: ZUJKAS_clean_linker_0, # of connection points: 2
#     Edge 66, Type (0, 0), BuildingBlock: ZUJKAS_clean_linker_0, # of connection points: 2
#     Edge 67, Type (0, 0), BuildingBlock: ZUJKAS_clean_linker_0, # of connection points: 2
#     Edge 68, Type (0, 0), BuildingBlock: ZUJKAS_clean_linker_0, # of connection points: 2
#     Edge 69, Type (0, 0), BuildingBlock: ZUJKAS_clean_linker_0, # of connection points: 2
#     Edge 70, Type (0, 0), BuildingBlock: ZUJKAS_clean_linker_0, # of connection points: 2
#     Edge 71, Type (0, 0), BuildingBlock: ZUJKAS_clean_linker_0, # of connection points: 2
#     Edge 72, Type (0, 0), BuildingBlock: ZUJKAS_clean_linker_0, # of connection points: 2
#     Edge 73, Type (0, 0), BuildingBlock: ZUJKAS_clean_linker_0, # of connection points: 2
#     Edge 74, Type (0, 0), BuildingBlock: ZUJKAS_clean_linker_0, # of connection points: 2
#     Edge 75, Type (0, 0), BuildingBlock: ZUJKAS_clean_linker_0, # of connection points: 2
#     Edge 76, Type (0, 0), BuildingBlock: ZUJKAS_clean_linker_0, # of connection points: 2
#     Edge 77, Type (0, 0), BuildingBlock: ZUJKAS_clean_linker_0, # of connection points: 2
#     Edge 78, Type (0, 0), BuildingBlock: ZUJKAS_clean_linker_0, # of connection points: 2
#     Edge 79, Type (0, 0), BuildingBlock: ZUJKAS_clean_linker_0, # of connection points: 2
#     Edge 80, Type (0, 0), BuildingBlock: ZUJKAS_clean_linker_0, # of connection points: 2
#     Edge 81, Type (0, 0), BuildingBlock: ZUJKAS_clean_linker_0, # of connection points: 2
#     Edge 82, Type (0, 0), BuildingBlock: ZUJKAS_clean_linker_0, # of connection points: 2
#     Edge 83, Type (0, 0), BuildingBlock: ZUJKAS_clean_linker_0, # of connection points: 2
#     Edge 84, Type (0, 0), BuildingBlock: ZUJKAS_clean_linker_0, # of connection points: 2
#     Edge 85, Type (0, 0), BuildingBlock: ZUJKAS_clean_linker_0, # of connection points: 2
#     Edge 86, Type (0, 0), BuildingBlock: ZUJKAS_clean_linker_0, # of connection points: 2
#     Edge 87, Type (0, 0), BuildingBlock: ZUJKAS_clean_linker_0, # of connection points: 2
#     Edge 88, Type (0, 0), BuildingBlock: ZUJKAS_clean_linker_0, # of connection points: 2
#     Edge 89, Type (0, 0), BuildingBlock: ZUJKAS_clean_linker_0, # of connection points: 2
#     Edge 90, Type (0, 0), BuildingBlock: ZUJKAS_clean_linker_0, # of connection points: 2
#     Edge 91, Type (0, 0), BuildingBlock: ZUJKAS_clean_linker_0, # of connection points: 2
#     Edge 92, Type (0, 0), BuildingBlock: ZUJKAS_clean_linker_0, # of connection points: 2
#     Edge 93, Type (0, 0), BuildingBlock: ZUJKAS_clean_linker_0, # of connection points: 2
#     Edge 94, Type (0, 0), BuildingBlock: ZUJKAS_clean_linker_0, # of connection points: 2
#     Edge 95, Type (0, 0), BuildingBlock: ZUJKAS_clean_linker_0, # of connection points: 2
#     Edge 96, Type (0, 0), BuildingBlock: ZUJKAS_clean_linker_0, # of connection points: 2
#     Edge 97, Type (0, 0), BuildingBlock: ZUJKAS_clean_linker_0, # of connection points: 2
#     Edge 98, Type (0, 0), BuildingBlock: ZUJKAS_clean_linker_0, # of connection points: 2
#     Edge 99, Type (0, 0), BuildingBlock: ZUJKAS_clean_linker_0, # of connection points: 2
#     Edge 100, Type (0, 0), BuildingBlock: ZUJKAS_clean_linker_0, # of connection points: 2
#     Edge 101, Type (0, 0), BuildingBlock: ZUJKAS_clean_linker_0, # of connection points: 2
#     Edge 102, Type (0, 0), BuildingBlock: ZUJKAS_clean_linker_0, # of connection points: 2
#     Edge 103, Type (0, 0), BuildingBlock: ZUJKAS_clean_linker_0, # of connection points: 2
#     Edge 104, Type (0, 0), BuildingBlock: ZUJKAS_clean_linker_0, # of connection points: 2
#     Edge 105, Type (0, 0), BuildingBlock: ZUJKAS_clean_linker_0, # of connection points: 2
#     Edge 106, Type (0, 0), BuildingBlock: ZUJKAS_clean_linker_0, # of connection points: 2
#     Edge 107, Type (0, 0), BuildingBlock: ZUJKAS_clean_linker_0, # of connection points: 2
# Relax obj value: 0.078
# Max RMSD: 0.126
# Mean RMSD: 0.126
data_MOF--net-umn--node1-QUQFOY_clean_sbu_1--edge1-ZUJKAS_clean_linker_0
_symmetry_space_group_name_H-M    P1
_symmetry_Int_Tables_number       1
_symmetry_cell_setting            triclinic
loop_
_symmetry_equiv_pos_as_xyz
'x, y, z'
_cell_length_a     115.74786
_cell_length_b     115.78401
_cell_length_c     49.654735
_cell_angle_alpha  90.002527
_cell_angle_beta   89.998151
_cell_angle_gamma 119.98588
loop_
_atom_site_label
_atom_site_type_symbol
_atom_site_fract_x
_atom_site_fract_y
_atom_site_fract_z
_atom_type_partial_charge
O0 O 0.33581 0.08834 0.26502 0.0
Cd1 Cd 0.33356 0.08825 0.22402 0.0
Cd2 Cd 0.34917 0.07682 0.22887 0.0
O3 O 0.35118 0.08252 0.26916 0.0
O4 O 0.32374 0.09817 0.22125 0.0
O5 O 0.34338 0.10525 0.2023 0.0
C6 C 0.33349 0.1071 0.20739 0.0
C7 C 0.36637 0.07941 0.20023 0.0
C8 C 0.34341 0.08606 0.27977 0.0
C9 C 0.3205 0.05969 0.21087 0.0
O10 O 0.33111 0.06031 0.21965 0.0
O11 O 0.31973 0.07019 0.20846 0.0
O12 O 0.36246 0.07116 0.22017 0.0
O13 O 0.36119 0.087 0.19777 0.0
O14 O 0.90525 0.25005 0.27101 0.0
Cd15 Cd 0.90723 0.24697 0.23099 0.0
Cd16 Cd 0.91999 0.27444 0.23199 0.0
O17 O 0.91413 0.27191 0.2721 0.0
O18 O 0.8972 0.22718 0.23003 0.0
O19 O 0.89136 0.23939 0.20578 0.0
C20 C 0.88912 0.22775 0.21308 0.0
C21 C 0.91732 0.28839 0.20167 0.0
C22 C 0.90865 0.26069 0.28411 0.0
C23 C 0.93651 0.26166 0.21982 0.0
O24 O 0.93632 0.27235 0.22452 0.0
O25 O 0.92579 0.25048 0.21994 0.0
O26 O 0.92554 0.29316 0.22158 0.0
O27 O 0.90997 0.27557 0.19981 0.0
O28 O 0.74655 0.6525 0.27156 0.0
Cd29 Cd 0.75092 0.65829 0.23207 0.0
Cd30 Cd 0.72324 0.64513 0.23028 0.0
O31 O 0.72454 0.64155 0.27091 0.0
O32 O 0.77069 0.66715 0.23367 0.0
O33 O 0.75868 0.65023 0.20661 0.0
C34 C 0.77025 0.659 0.21563 0.0
C35 C 0.70912 0.62897 0.19927 0.0
C36 C 0.73547 0.64615 0.28382 0.0
C37 C 0.73815 0.67466 0.2195 0.0
O38 O 0.72692 0.66409 0.22218 0.0
O39 O 0.74891 0.67434 0.22164 0.0
O40 O 0.70447 0.63313 0.2182 0.0
O41 O 0.72183 0.63343 0.19887 0.0
O42 O 0.09238 0.3439 0.24003 0.0
Cd43 Cd 0.09095 0.33842 0.27972 0.0
Cd44 Cd 0.07772 0.35275 0.28124 0.0
O45 O 0.08275 0.35621 0.24072 0.0
O46 O 0.10134 0.32901 0.27892 0.0
O47 O 0.10695 0.34655 0.30463 0.0
C48 C 0.10937 0.33742 0.29627 0.0
C49 C 0.08057 0.36922 0.31215 0.0
C50 C 0.08838 0.35088 0.22778 0.0
C51 C 0.06184 0.32331 0.29273 0.0
O52 O 0.06179 0.33416 0.28937 0.0
O53 O 0.07262 0.323 0.29097 0.0
O54 O 0.07186 0.36551 0.29308 0.0
O55 O 0.08827 0.36411 0.31274 0.0
O56 O 0.66074 0.75057 0.24688 0.0
Cd57 Cd 0.66368 0.75248 0.28775 0.0
Cd58 Cd 0.64835 0.7255 0.28283 0.0
O59 O 0.64593 0.72921 0.24278 0.0
O60 O 0.67361 0.77222 0.29084 0.0
O61 O 0.65443 0.75965 0.31139 0.0
C62 C 0.66424 0.7714 0.30602 0.0
C63 C 0.63135 0.71198 0.31286 0.0
C64 C 0.65324 0.74062 0.23218 0.0
C65 C 0.67713 0.73696 0.299 0.0
O66 O 0.66642 0.72682 0.29105 0.0
O67 O 0.67782 0.74819 0.30136 0.0
O68 O 0.6345 0.70694 0.29292 0.0
O69 O 0.63726 0.72484 0.31466 0.0
O70 O 0.24934 0.90538 0.24085 0.0
Cd71 Cd 0.24659 0.9068 0.28127 0.0
Cd72 Cd 0.27385 0.91907 0.27846 0.0
O73 O 0.27093 0.91271 0.2386 0.0
O74 O 0.2268 0.89707 0.28232 0.0
O75 O 0.23876 0.89054 0.30549 0.0
C76 C 0.22719 0.88863 0.29854 0.0
C77 C 0.28737 0.91632 0.30977 0.0
C78 C 0.25964 0.90806 0.2271 0.0
C79 C 0.26146 0.9359 0.29172 0.0
O80 O 0.27189 0.93556 0.28512 0.0
O81 O 0.25032 0.92522 0.29363 0.0
O82 O 0.29243 0.92446 0.28976 0.0
O83 O 0.27452 0.90904 0.311 0.0
O84 O 0.64847 0.90221 0.73444 0.0
Cd85 Cd 0.65526 0.9035 0.77315 0.0
Cd86 Cd 0.64211 0.91796 0.77874 0.0
O87 O 0.63806 0.91374 0.73808 0.0
O88 O 0.66403 0.89257 0.76988 0.0
O89 O 0.64765 0.88768 0.79847 0.0
C90 C 0.65623 0.88488 0.78839 0.0
C91 C 0.62626 0.91627 0.81023 0.0
C92 C 0.64209 0.90732 0.72378 0.0
C93 C 0.67185 0.93249 0.78697 0.0
O94 O 0.66118 0.93306 0.78646 0.0
O95 O 0.67156 0.92153 0.78296 0.0
O96 O 0.63063 0.9252 0.79156 0.0
O97 O 0.63036 0.90773 0.81018 0.0
O98 O 0.08639 0.7521 0.75095 0.0
Cd99 Cd 0.08573 0.75378 0.79196 0.0
Cd100 Cd 0.07496 0.72689 0.78644 0.0
O101 O 0.08129 0.73113 0.74657 0.0
O102 O 0.09528 0.77349 0.79575 0.0
O103 O 0.10258 0.76101 0.81423 0.0
C104 C 0.10425 0.77272 0.80959 0.0
C105 C 0.07818 0.71269 0.81506 0.0
C106 C 0.08464 0.74242 0.73611 0.0
C107 C 0.05697 0.73749 0.80367 0.0
O108 O 0.05793 0.7277 0.7948 0.0
O109 O 0.0673 0.74884 0.80671 0.0
O110 O 0.07024 0.70815 0.79465 0.0
O111 O 0.08503 0.72548 0.81822 0.0
O112 O 0.24734 0.34228 0.73869 0.0
Cd113 Cd 0.24273 0.33635 0.77805 0.0
Cd114 Cd 0.27046 0.35003 0.78093 0.0
O115 O 0.26933 0.35364 0.74032 0.0
O116 O 0.22297 0.32751 0.77648 0.0
O117 O 0.23505 0.34455 0.80325 0.0
C118 C 0.22346 0.33577 0.79432 0.0
C119 C 0.28533 0.36627 0.81103 0.0
C120 C 0.25852 0.34891 0.72694 0.0
C121 C 0.25576 0.32037 0.79137 0.0
O122 O 0.26687 0.33111 0.78918 0.0
O123 O 0.24488 0.3204 0.78863 0.0
O124 O 0.28944 0.36167 0.79196 0.0
O125 O 0.27271 0.36219 0.81213 0.0
O126 O 0.90335 0.65016 0.77478 0.0
Cd127 Cd 0.90457 0.65659 0.7358 0.0
Cd128 Cd 0.9198 0.64415 0.73121 0.0
O129 O 0.91569 0.64057 0.77207 0.0
O130 O 0.89338 0.66512 0.73869 0.0
O131 O 0.88876 0.64873 0.71034 0.0
C132 C 0.88578 0.65722 0.7202 0.0
C133 C 0.9183 0.62797 0.70074 0.0
C134 C 0.90892 0.64434 0.78597 0.0
C135 C 0.93364 0.67374 0.72212 0.0
O136 O 0.9346 0.66328 0.7228 0.0
O137 O 0.92248 0.67307 0.72603 0.0
O138 O 0.92724 0.63267 0.71939 0.0
O139 O 0.90969 0.63198 0.70012 0.0
O140 O 0.33765 0.24703 0.76726 0.0
Cd141 Cd 0.33389 0.24463 0.72667 0.0
Cd142 Cd 0.34929 0.27169 0.72993 0.0
O143 O 0.3525 0.26844 0.7697 0.0
O144 O 0.32402 0.22487 0.7243 0.0
O145 O 0.34294 0.23735 0.70277 0.0
C146 C 0.33326 0.22563 0.70878 0.0
C147 C 0.36594 0.28514 0.69927 0.0
C148 C 0.3455 0.25718 0.7811 0.0
C149 C 0.32025 0.26001 0.71567 0.0
O150 O 0.33108 0.27026 0.72273 0.0
O151 O 0.31953 0.24875 0.71374 0.0
O152 O 0.36287 0.29022 0.71926 0.0
O153 O 0.36011 0.27229 0.69767 0.0
O154 O 0.7499 0.08751 0.76343 0.0
Cd155 Cd 0.75123 0.08654 0.72238 0.0
Cd156 Cd 0.72472 0.07644 0.72836 0.0
O157 O 0.72916 0.08311 0.76793 0.0
O158 O 0.77088 0.09591 0.71784 0.0
O159 O 0.75832 0.10317 0.69957 0.0
C160 C 0.77004 0.10478 0.7038 0.0
C161 C 0.71103 0.08006 0.69914 0.0
C162 C 0.7404 0.0862 0.7783 0.0
C163 C 0.73454 0.05783 0.71149 0.0
O164 O 0.72498 0.05908 0.72074 0.0
O165 O 0.74594 0.06801 0.70782 0.0
O166 O 0.7062 0.0723 0.71976 0.0
O167 O 0.72385 0.08652 0.69611 0.0
O168 O 0.01093 0.42556 0.60646 0.0
Cd169 Cd 0.00525 0.4242 0.56687 0.0
Cd170 Cd 0.0192 0.41045 0.56445 0.0
O171 O 0.02242 0.41504 0.60513 0.0
O172 O 0.99582 0.43456 0.56827 0.0
O173 O 0.01322 0.44024 0.54207 0.0
C174 C 0.00408 0.44259 0.55074 0.0
C175 C 0.03581 0.41267 0.53448 0.0
C176 C 0.01754 0.42102 0.61837 0.0
C177 C 0.98973 0.39511 0.55317 0.0
O178 O 0.00051 0.39484 0.5559 0.0
O179 O 0.98964 0.40597 0.55564 0.0
O180 O 0.03161 0.40399 0.55362 0.0
O181 O 0.03107 0.42067 0.53316 0.0
O182 O 0.57133 0.58326 0.60305 0.0
Cd183 Cd 0.57302 0.57968 0.56317 0.0
Cd184 Cd 0.58608 0.60746 0.56341 0.0
O185 O 0.58042 0.60516 0.60368 0.0
O186 O 0.56291 0.55987 0.56349 0.0
O187 O 0.55708 0.57171 0.53804 0.0
C188 C 0.55482 0.56018 0.54618 0.0
C189 C 0.58434 0.62211 0.5333 0.0
C190 C 0.57494 0.59401 0.61595 0.0
C191 C 0.60224 0.59411 0.5517 0.0
O192 O 0.60211 0.60486 0.55603 0.0
O193 O 0.5915 0.58295 0.5521 0.0
O194 O 0.59248 0.62644 0.55339 0.0
O195 O 0.57652 0.60937 0.53116 0.0
O196 O 0.41297 0.98484 0.60641 0.0
Cd197 Cd 0.41767 0.99092 0.56711 0.0
Cd198 Cd 0.38997 0.97711 0.5634 0.0
O199 O 0.39097 0.97374 0.60422 0.0
O200 O 0.43744 -9e-05 0.56893 0.0
O201 O 0.42557 0.98303 0.54164 0.0
C202 C 0.43709 0.99183 0.5508 0.0
C203 C 0.37542 0.9607 0.53315 0.0
C204 C 0.40169 0.97836 0.61788 0.0
C205 C 0.40443 0.00675 0.55353 0.0
O206 O 0.39335 0.99593 0.55508 0.0
O207 O 0.41533 0.0068 0.55676 0.0
O208 O 0.37105 0.96507 0.5522 0.0
O209 O 0.38811 0.96514 0.53208 0.0
O210 O 0.7581 0.67642 0.57379 0.0
Cd211 Cd 0.75664 0.67153 0.61387 0.0
Cd212 Cd 0.74381 0.68633 0.61352 0.0
O213 O 0.74909 0.6893 0.57304 0.0
O214 O 0.76674 0.66181 0.61393 0.0
O215 O 0.77266 0.67969 0.63876 0.0
C216 C 0.77487 0.67032 0.63101 0.0
C217 C 0.7463 0.70311 0.64336 0.0
C218 C 0.75442 0.68348 0.56079 0.0
C219 C 0.72753 0.657 0.62636 0.0
O220 O 0.72771 0.66789 0.6218 0.0
O221 O 0.73822 0.65649 0.62567 0.0
O222 O 0.73787 0.69924 0.62376 0.0
O223 O 0.75397 0.69799 0.64511 0.0
O224 O 0.32445 0.08206 0.57916 0.0
Cd225 Cd 0.32759 0.08407 0.61998 0.0
Cd226 Cd 0.31153 0.05705 0.6154 0.0
O227 O 0.30886 0.06094 0.57565 0.0
O228 O 0.33788 0.10381 0.62289 0.0
O229 O 0.31854 0.09159 0.64321 0.0
C230 C 0.32851 0.10323 0.63772 0.0
C231 C 0.29457 0.04297 0.64505 0.0
C232 C 0.31644 0.07222 0.56477 0.0
C233 C 0.34037 0.06795 0.63089 0.0
O234 O 0.32952 0.05805 0.62272 0.0
O235 O 0.34136 0.0793 0.63377 0.0
O236 O 0.29773 0.03833 0.62446 0.0
O237 O 0.30045 0.05578 0.64783 0.0
O238 O 0.91419 0.23958 0.57642 0.0
Cd239 Cd 0.91127 0.24118 0.6167 0.0
Cd240 Cd 0.93862 0.25333 0.6153 0.0
O241 O 0.93592 0.24748 0.57519 0.0
O242 O 0.89149 0.23129 0.61809 0.0
O243 O 0.90373 0.22502 0.64108 0.0
C244 C 0.89208 0.22295 0.6343 0.0
C245 C 0.95271 0.25071 0.64535 0.0
C246 C 0.92472 0.24259 0.56321 0.0
C247 C 0.92635 0.27028 0.62829 0.0
O248 O 0.93683 0.26983 0.62275 0.0
O249 O 0.91506 0.2597 0.62881 0.0
O250 O 0.95739 0.25883 0.62525 0.0
O251 O 0.9399 0.24341 0.6475 0.0
O252 O 0.33018 0.24506 0.0819 0.0
Cd253 Cd 0.33262 0.24583 0.1229 0.0
Cd254 Cd 0.31713 0.25705 0.11752 0.0
O255 O 0.31479 0.25082 0.07761 0.0
O256 O 0.34239 0.2359 0.12676 0.0
O257 O 0.32278 0.22917 0.1456 0.0
C258 C 0.33263 0.22719 0.14095 0.0
C259 C 0.29993 0.25327 0.14719 0.0
C260 C 0.32243 0.2471 0.06711 0.0
C261 C 0.34571 0.27463 0.13467 0.0
O262 O 0.33506 0.27394 0.12595 0.0
O263 O 0.34646 0.26414 0.13747 0.0
O264 O 0.30309 0.26151 0.12735 0.0
O265 O 0.30598 0.24645 0.14911 0.0
O266 O 0.75541 0.08435 0.07807 0.0
Cd267 Cd 0.75403 0.08675 0.11863 0.0
Cd268 Cd 0.74192 0.05945 0.11491 0.0
O269 O 0.74825 0.06282 0.075 0.0
O270 O 0.76405 0.10651 0.12083 0.0
O271 O 0.77031 0.09398 0.14269 0.0
C272 C 0.77244 0.10572 0.13653 0.0
C273 C 0.74418 0.04491 0.14435 0.0
C274 C 0.75282 0.0742 0.06393 0.0
C275 C 0.72501 0.07167 0.1297 0.0
O276 O 0.72546 0.06134 0.12272 0.0
O277 O 0.73562 0.08289 0.1314 0.0
O278 O 0.73603 0.04053 0.12425 0.0
O279 O 0.75178 0.05768 0.14671 0.0
O280 O 0.91864 0.67899 0.07101 0.0
Cd281 Cd 0.91344 0.6725 0.10995 0.0
Cd282 Cd 0.94116 0.68508 0.11451 0.0
O283 O 0.94058 0.68874 0.0737 0.0
O284 O 0.89373 0.66399 0.10709 0.0
O285 O 0.90551 0.68035 0.13548 0.0
C286 C 0.89403 0.67188 0.12561 0.0
C287 C 0.95582 0.70122 0.14505 0.0
C288 C 0.93003 0.68494 0.05983 0.0
C289 C 0.92546 0.65547 0.12373 0.0
O290 O 0.93686 0.66595 0.12289 0.0
O291 O 0.91494 0.65608 0.11983 0.0
O292 O 0.96008 0.69661 0.12627 0.0
O293 O 0.94319 0.69715 0.14576 0.0
O294 O 0.57056 0.98469 0.10846 0.0
Cd295 Cd 0.5719 0.99137 0.06966 0.0
Cd296 Cd 0.587 0.97886 0.06447 0.0
O297 O 0.58301 0.97525 0.10531 0.0
O298 O 0.56057 -0.00027 0.07254 0.0
O299 O 0.55628 0.98357 0.04378 0.0
C300 C 0.55314 0.99193 0.05374 0.0
C301 C 0.58528 0.96251 0.03427 0.0
C302 C 0.57617 0.97885 0.11939 0.0
C303 C 0.6009 0.00846 0.05544 0.0
O304 O 0.60178 0.99796 0.05567 0.0
O305 O 0.58983 0.00786 0.06002 0.0
O306 O 0.59436 0.96734 0.05262 0.0
O307 O 0.57668 0.96654 0.03374 0.0
O308 O 0.00566 0.58242 0.09916 0.0
Cd309 Cd 0.00178 0.57973 0.05864 0.0
Cd310 Cd 0.0166 0.6072 0.06194 0.0
O311 O 0.01957 0.60407 0.10202 0.0
O312 O 0.99197 0.55993 0.05748 0.0
O313 O 0.01048 0.5721 0.03457 0.0
C314 C 0.00092 0.56047 0.04142 0.0
C315 C 0.03333 0.62134 0.03195 0.0
C316 C 0.01298 0.59269 0.11322 0.0
C317 C 0.98747 0.59449 0.04707 0.0
O318 O 0.99814 0.60499 0.05388 0.0
O319 O 0.9871 0.58337 0.04572 0.0
O320 O 0.02969 0.626 0.05177 0.0
O321 O 0.02805 0.60854 0.03017 0.0
O322 O 0.41045 0.42673 0.11002 0.0
Cd323 Cd 0.41659 0.42596 0.07162 0.0
Cd324 Cd 0.38902 0.4097 0.06487 0.0
O325 O 0.38875 0.41319 0.10581 0.0
O326 O 0.43613 0.43783 0.0759 0.0
O327 O 0.42439 0.44174 0.04612 0.0
C328 C 0.4358 0.44518 0.0569 0.0
C329 C 0.37358 0.41007 0.03473 0.0
C330 C 0.39889 0.42041 0.1204 0.0
C331 C 0.40619 0.39726 0.05677 0.0
O332 O 0.39457 0.39581 0.05599 0.0
O333 O 0.41623 0.40852 0.06223 0.0
O334 O 0.37004 0.40094 0.05283 0.0
O335 O 0.38592 0.41947 0.03443 0.0
O336 O 0.6732 0.75633 0.93283 0.0
Cd337 Cd 0.6699 0.75517 0.89207 0.0
Cd338 Cd 0.68512 0.74328 0.89659 0.0
O339 O 0.68779 0.74948 0.93661 0.0
O340 O 0.65973 0.76476 0.88992 0.0
O341 O 0.67864 0.77154 0.86816 0.0
C342 C 0.66879 0.77331 0.87423 0.0
C343 C 0.70193 0.74674 0.86609 0.0
C344 C 0.68069 0.7538 0.94735 0.0
C345 C 0.65629 0.72616 0.88076 0.0
O346 O 0.66697 0.72661 0.88853 0.0
O347 O 0.65569 0.73677 0.87863 0.0
O348 O 0.69884 0.7385 0.88592 0.0
O349 O 0.69608 0.75376 0.86469 0.0
O350 O 0.24506 0.91424 0.92756 0.0
Cd351 Cd 0.24462 0.91256 0.88639 0.0
Cd352 Cd 0.25535 0.93917 0.8927 0.0
O353 O 0.24968 0.93501 0.93293 0.0
O354 O 0.23481 0.89285 0.88258 0.0
O355 O 0.22724 0.90547 0.86599 0.0
C356 C 0.22556 0.89372 0.87007 0.0
C357 C 0.25147 0.95285 0.86389 0.0
C358 C 0.24688 0.92377 0.94292 0.0
C359 C 0.27303 0.92867 0.87287 0.0
O360 O 0.27221 0.93831 0.88306 0.0
O361 O 0.26262 0.91742 0.86944 0.0
O362 O 0.25979 0.95776 0.88365 0.0
O363 O 0.24455 0.94001 0.86173 0.0
O364 O 0.07896 0.32264 0.93665 0.0
Cd365 Cd 0.08227 0.32766 0.89663 0.0
Cd366 Cd 0.05483 0.31356 0.89728 0.0
O367 O 0.05701 0.31039 0.93768 0.0
O368 O 0.10206 0.33694 0.89604 0.0
O369 O 0.08959 0.31912 0.8714 0.0
C370 C 0.10131 0.32828 0.87892 0.0
C371 C 0.04127 0.29685 0.86678 0.0
C372 C 0.06821 0.3158 0.94975 0.0
C373 C 0.06825 0.34284 0.88451 0.0
O374 O 0.05738 0.33209 0.88892 0.0
O375 O 0.0793 0.34303 0.88531 0.0
O376 O 0.03624 0.30053 0.88584 0.0
O377 O 0.0541 0.30216 0.86595 0.0
O378 O 0.42715 0.01417 0.90288 0.0
Cd379 Cd 0.42551 0.00729 0.94158 0.0
Cd380 Cd 0.4102 0.01967 0.94608 0.0
O381 O 0.41448 0.02341 0.90528 0.0
O382 O 0.43695 -0.00096 0.93886 0.0
O383 O 0.44089 0.01491 0.96809 0.0
C384 C 0.44417 0.00667 0.95805 0.0
C385 C 0.41081 0.03551 0.97652 0.0
C386 C 0.4215 0.01988 0.89157 0.0
C387 C 0.39642 0.98992 0.95401 0.0
O388 O 0.39553 0.00043 0.95395 0.0
O389 O 0.40756 0.99058 0.95007 0.0
O390 O 0.40201 0.03052 0.95765 0.0
O391 O 0.41983 0.03205 0.9773 0.0
O392 O 0.98362 0.41225 0.90334 0.0
Cd393 Cd 0.99018 0.41766 0.94219 0.0
Cd394 Cd 0.97733 0.39002 0.94734 0.0
O395 O 0.97356 0.39031 0.90655 0.0
O396 O -0.00118 0.43735 0.93896 0.0
O397 O 0.9823 0.42576 0.96718 0.0
C398 C 0.99085 0.43717 0.95717 0.0
C399 C 0.96117 0.37611 0.97855 0.0
C400 C 0.97747 0.4008 0.89245 0.0
C401 C 0.00695 0.40544 0.95666 0.0
O402 O 0.99638 0.39411 0.95585 0.0
O403 O 0.00649 0.41602 0.95251 0.0
O404 O 0.96556 0.37137 0.96026 0.0
O405 O 0.96547 0.38878 0.97831 0.0
O406 O 0.58259 0.57096 0.90556 0.0
Cd407 Cd 0.57877 0.57281 0.94519 0.0
Cd408 Cd 0.60646 0.58662 0.94597 0.0
O409 O 0.60459 0.58139 0.90546 0.0
O410 O 0.55898 0.56228 0.94459 0.0
O411 O 0.57105 0.55723 0.9712 0.0
C412 C 0.55945 0.55461 0.9627 0.0
C413 C 0.62091 0.58461 0.97619 0.0
C414 C 0.59352 0.57529 0.89292 0.0
C415 C 0.59237 0.60204 0.95701 0.0
O416 O 0.6034 0.60231 0.95398 0.0
O417 O 0.58141 0.59115 0.95532 0.0
O418 O 0.62536 0.59311 0.9567 0.0
O419 O 0.60816 0.57664 0.97766 0.0
O420 O 0.9926 0.57554 0.41274 0.0
Cd421 Cd 0.99475 0.5756 0.45376 0.0
Cd422 Cd 0.9796 0.58741 0.44884 0.0
O423 O 0.97767 0.58192 0.40843 0.0
O424 O 0.00466 0.56576 0.45631 0.0
O425 O 0.98518 0.55868 0.47589 0.0
C426 C 0.9951 0.5569 0.47064 0.0
C427 C 0.96237 0.58383 0.47824 0.0
C428 C 0.98528 0.57816 0.3979 0.0
C429 C 0.00811 0.60425 0.4672 0.0
O430 O 0.99762 0.6039 0.45846 0.0
O431 O 0.00866 0.59362 0.46929 0.0
O432 O 0.96587 0.59229 0.45872 0.0
O433 O 0.96802 0.57663 0.47983 0.0
O434 O 0.42419 0.41217 0.40647 0.0
Cd435 Cd 0.42332 0.41717 0.44578 0.0
Cd436 Cd 0.40848 0.38939 0.44966 0.0
O437 O 0.41244 0.3902 0.40871 0.0
O438 O 0.43435 0.4369 0.44313 0.0
O439 O 0.43948 0.42509 0.47033 0.0
C440 C 0.44228 0.43658 0.46084 0.0
C441 C 0.41019 0.37448 0.4791 0.0
C442 C 0.41887 0.40085 0.39501 0.0
C443 C 0.39438 0.4048 0.46076 0.0
O444 O 0.39361 0.39348 0.45909 0.0
O445 O 0.40542 0.41543 0.45698 0.0
O446 O 0.40118 0.37039 0.4606 0.0
O447 O 0.41874 0.38709 0.48014 0.0
O448 O 0.58502 0.01143 0.40565 0.0
Cd449 Cd 0.58015 0.00511 0.4448 0.0
Cd450 Cd 0.60778 0.01833 0.44839 0.0
O451 O 0.60702 0.022 0.40772 0.0
O452 O 0.56041 0.99639 0.44265 0.0
O453 O 0.57233 0.01306 0.47034 0.0
C454 C 0.5608 0.00444 0.46092 0.0
C455 C 0.62183 0.03461 0.47931 0.0
C456 C 0.59632 0.01775 0.39416 0.0
C457 C 0.59284 0.98871 0.45815 0.0
O458 O 0.60406 -0.00063 0.45656 0.0
O459 O 0.58209 0.98896 0.455 0.0
O460 O 0.6265 0.03027 0.46077 0.0
O461 O 0.60913 0.03018 0.47948 0.0
O462 O 0.24019 0.32224 0.43543 0.0
Cd463 Cd 0.24197 0.32765 0.39564 0.0
Cd464 Cd 0.25559 0.31357 0.39552 0.0
O465 O 0.25008 0.31017 0.43581 0.0
O466 O 0.23151 0.33699 0.39576 0.0
O467 O 0.22613 0.31944 0.37028 0.0
C468 C 0.2236 0.32854 0.37834 0.0
C469 C 0.25362 0.29695 0.36588 0.0
C470 C 0.24418 0.31538 0.44818 0.0
C471 C 0.27123 0.34305 0.38392 0.0
O472 O 0.27142 0.33228 0.38769 0.0
O473 O 0.26034 0.34316 0.38492 0.0
O474 O 0.26206 0.30107 0.38548 0.0
O475 O 0.24573 0.30179 0.36386 0.0
O476 O 0.67498 0.91717 0.4376 0.0
Cd477 Cd 0.66917 0.91236 0.39819 0.0
Cd478 Cd 0.68269 0.94029 0.39501 0.0
O479 O 0.68584 0.93918 0.43586 0.0
O480 O 0.66035 0.89261 0.40014 0.0
O481 O 0.67759 0.9046 0.37375 0.0
C482 C 0.66878 0.89305 0.38274 0.0
C483 C 0.69917 0.95565 0.36581 0.0
C484 C 0.68131 0.92841 0.44928 0.0
C485 C 0.65307 0.92518 0.38363 0.0
O486 O 0.66375 0.93635 0.38587 0.0
O487 O 0.65319 0.91437 0.38681 0.0
O488 O 0.69408 0.95941 0.38458 0.0
O489 O 0.69542 0.94311 0.36446 0.0
O490 O 0.08197 0.75831 0.43664 0.0
Cd491 Cd 0.08421 0.75671 0.39609 0.0
Cd492 Cd 0.05712 0.74462 0.40022 0.0
O493 O 0.06047 0.75123 0.43995 0.0
O494 O 0.10398 0.76636 0.3941 0.0
O495 O 0.09183 0.77287 0.3716 0.0
C496 C 0.10345 0.77476 0.378 0.0
C497 C 0.04377 0.74756 0.36887 0.0
C498 C 0.07188 0.7558 0.45091 0.0
C499 C 0.06913 0.72756 0.38639 0.0
O500 O 0.0588 0.72797 0.39354 0.0
O501 O 0.08027 0.73821 0.38392 0.0
O502 O 0.03861 0.73959 0.3891 0.0
O503 O 0.05664 0.75461 0.36748 0.0
H504 H 0.24053 0.94044 0.28653 0.0
H505 H 0.24212 0.9616 0.27369 0.0
H506 H 0.2848 0.98161 0.28392 0.0
H507 H 0.28336 0.96059 0.2966 0.0
H508 H 0.27071 0.99663 0.29953 0.0
H509 H 0.26001 0.97441 0.19645 0.0
H510 H 0.24874 0.96566 0.22376 0.0
H511 H 0.26497 0.96728 0.22323 0.0
C512 C 0.25021 0.94943 0.28698 0.0
C513 C 0.26188 0.94884 0.29208 0.0
C514 C 0.25107 0.96147 0.27954 0.0
C515 C 0.26358 0.97303 0.27748 0.0
C516 C 0.27506 0.97273 0.28535 0.0
H517 H 0.31899 0.03572 0.20339 0.0
H518 H 0.29994 0.01404 0.21461 0.0
C519 C 0.27423 0.96071 0.29253 0.0
C520 C 0.26526 0.98495 0.26328 0.0
H521 H 0.27111 0.9977 0.19961 0.0
C522 C 0.27032 0.99688 0.27773 0.0
C523 C 0.26474 0.98512 0.23482 0.0
C524 C 0.25935 0.97248 0.21847 0.0
C525 C 0.27607 0.00918 0.26434 0.0
C526 C 0.27672 0.0094 0.23586 0.0
C527 C 0.2705 0.99741 0.22142 0.0
C528 C 0.28647 0.0216 0.22169 0.0
C529 C 0.28265 0.02185 0.28074 0.0
C530 C 0.28487 0.03281 0.22026 0.0
C531 C 0.29576 0.04524 0.21364 0.0
C532 C 0.30834 0.04654 0.20875 0.0
C533 C 0.30945 0.03503 0.20735 0.0
C534 C 0.29857 0.02264 0.21369 0.0
H535 H 0.28159 0.01988 0.30275 0.0
H536 H 0.29344 0.02773 0.27578 0.0
H537 H 0.2781 0.02805 0.27571 0.0
H538 H 0.27555 0.03213 0.2262 0.0
H539 H 0.29461 0.05395 0.21483 0.0
H540 H 0.03761 0.31989 0.30701 0.0
H541 H 0.01597 0.30056 0.29674 0.0
H542 H 0.03528 0.27906 0.26937 0.0
H543 H 0.05704 0.29837 0.27986 0.0
H544 H 0.02029 0.28327 0.22989 0.0
H545 H 0.99041 0.26219 0.32222 0.0
H546 H -0.00083 0.28008 0.3226 0.0
H547 H 0.00846 0.27142 0.32246 0.0
C548 C 0.03724 0.31088 0.29977 0.0
C549 C 0.04901 0.31069 0.29393 0.0
C550 C 0.02486 0.2998 0.29408 0.0
C551 C 0.02405 0.28838 0.28239 0.0
C552 C 0.03573 0.28776 0.27859 0.0
H553 H 0.94139 0.2413 0.22984 0.0
H554 H 0.9631 0.24352 0.23998 0.0
C555 C 0.04814 0.2988 0.28463 0.0
C556 C 0.01144 0.27855 0.26949 0.0
H557 H 0.97805 0.26157 0.28179 0.0
C558 C 0.01106 0.2781 0.24122 0.0
C559 C -0.00054 0.2717 0.28425 0.0
C560 C -0.00061 0.27125 0.31459 0.0
C561 C -0.00111 0.27226 0.22737 0.0
C562 C 0.98692 0.26681 0.24225 0.0
C563 C 0.98728 0.26589 0.2704 0.0
C564 C 0.97434 0.26447 0.22988 0.0
C565 C -0.00105 0.27279 0.19703 0.0
C566 C 0.97358 0.27544 0.22004 0.0
C567 C 0.96123 0.27426 0.21456 0.0
C568 C 0.94945 0.26208 0.21875 0.0
C569 C 0.95031 0.25082 0.22634 0.0
C570 C 0.96268 0.25205 0.23219 0.0
H571 H 0.00794 0.27296 0.18865 0.0
H572 H 0.98989 0.26413 0.18849 0.0
H573 H -0.00085 0.28205 0.19051 0.0
H574 H 0.98246 0.28517 0.21856 0.0
H575 H 0.96087 0.28309 0.20867 0.0
H576 H 0.71828 0.67957 0.20517 0.0
H577 H 0.71687 0.69921 0.21739 0.0
H578 H 0.75738 0.71853 0.24651 0.0
H579 H 0.75895 0.69892 0.23406 0.0
H580 H 0.73799 0.71378 0.28587 0.0
H581 H 0.73122 0.73854 0.19714 0.0
H582 H 0.7216 0.72072 0.19437 0.0
H583 H 0.73953 0.72884 0.19526 0.0
C584 C 0.72707 0.68819 0.21317 0.0
C585 C 0.73865 0.68764 0.21901 0.0
C586 C 0.72629 0.69946 0.21998 0.0
C587 C 0.73704 0.71031 0.2328 0.0
C588 C 0.74903 0.71028 0.23645 0.0
H589 H 0.70278 0.75726 0.29337 0.0
H590 H 0.72216 0.75488 0.28305 0.0
C591 C 0.74989 0.69906 0.22928 0.0
C592 C 0.73458 0.72003 0.24718 0.0
H593 H 0.71915 0.73819 0.23791 0.0
C594 C 0.73432 0.71954 0.27545 0.0
C595 C 0.72996 0.72765 0.23362 0.0
C596 C 0.73072 0.72909 0.2034 0.0
C597 C 0.72809 0.72519 0.29031 0.0
C598 C 0.72203 0.73141 0.27646 0.0
C599 C 0.72371 0.73327 0.24848 0.0
C600 C 0.71179 0.73356 0.28935 0.0
C601 C 0.72716 0.7236 0.32049 0.0
C602 C 0.69971 0.7224 0.29718 0.0
C603 C 0.68859 0.72367 0.30271 0.0
C604 C 0.68942 0.73615 0.30063 0.0
C605 C 0.70186 0.74751 0.29524 0.0
C606 C 0.71294 0.74619 0.28928 0.0
H607 H 0.73565 0.72275 0.32864 0.0
H608 H 0.727 0.73213 0.33035 0.0
H609 H 0.71781 0.71433 0.32577 0.0
H610 H 0.69858 0.71252 0.29692 0.0
H611 H 0.67915 0.71476 0.30685 0.0
H612 H 0.67661 0.9572 0.80131 0.0
H613 H 0.69583 0.97829 0.78783 0.0
H614 H 0.71551 0.95749 0.75845 0.0
H615 H 0.69623 0.93623 0.77182 0.0
H616 H 0.72493 0.99247 0.79345 0.0
H617 H 0.70622 0.97265 0.69039 0.0
H618 H 0.69636 0.96466 0.71991 0.0
H619 H 0.71086 0.96337 0.71263 0.0
C620 C 0.68519 0.95712 0.79282 0.0
C621 C 0.68478 0.94505 0.78703 0.0
C622 C 0.6962 0.96919 0.78519 0.0
C623 C 0.70691 0.96936 0.77164 0.0
C624 C 0.70722 0.95749 0.7686 0.0
H625 H 0.75418 0.05124 0.71003 0.0
H626 H 0.75136 0.02918 0.71922 0.0
C627 C 0.69621 0.94537 0.77636 0.0
C628 C 0.71628 0.98157 0.75694 0.0
H629 H 0.71936 0.99573 0.69516 0.0
C630 C 0.72418 0.99319 0.77181 0.0
C631 C 0.71514 0.98238 0.7287 0.0
C632 C 0.70668 0.97015 0.71182 0.0
C633 C 0.72998 0.00577 0.75954 0.0
C634 C 0.72781 0.00662 0.73175 0.0
C635 C 0.72099 0.99495 0.71643 0.0
C636 C 0.72982 0.01918 0.72003 0.0
C637 C 0.73726 0.01809 0.77681 0.0
C638 C 0.71861 0.02061 0.71598 0.0
C639 C 0.72015 0.03312 0.71085 0.0
C640 C 0.73295 0.0444 0.70955 0.0
C641 C 0.74418 0.04272 0.71099 0.0
C642 C 0.74262 0.03017 0.71636 0.0
H643 H 0.73761 0.01565 0.79833 0.0
H644 H 0.74764 0.02428 0.76944 0.0
H645 H 0.73231 0.02418 0.77537 0.0
H646 H 0.70865 0.01218 0.71868 0.0
H647 H 0.71132 0.03408 0.70959 0.0
H648 H 0.0508 0.75729 0.79957 0.0
H649 H 0.02878 0.7543 0.78943 0.0
H650 H 0.0112 0.71186 0.80071 0.0
H651 H 0.03313 0.71473 0.81048 0.0
H652 H 0.01562 0.73817 0.74344 0.0
H653 H 0.98337 0.72033 0.83365 0.0
H654 H 0.00137 0.7301 0.83568 0.0
H655 H 0.99322 0.71241 0.82979 0.0
C656 C 0.04217 0.74738 0.80093 0.0
C657 C 0.04367 0.7362 0.80554 0.0
C658 C 0.02962 0.74571 0.79506 0.0
C659 C 0.0184 0.73289 0.79443 0.0
C660 C 0.01972 0.72187 0.8015 0.0
H661 H 0.95857 0.67954 0.70659 0.0
H662 H 0.9794 0.69915 0.7199 0.0
C663 C 0.03226 0.7235 0.80695 0.0
C664 C 0.0059 0.73051 0.78165 0.0
H665 H 0.97232 0.71195 0.79045 0.0
C666 C 0.00613 0.73284 0.75384 0.0
C667 C 0.99358 0.72374 0.79528 0.0
C668 C 0.99285 0.72161 0.82533 0.0
C669 C 0.99429 0.72722 0.73884 0.0
C670 C 0.98205 0.71911 0.75206 0.0
C671 C 0.98175 0.71809 0.78028 0.0
C672 C 0.96997 0.70956 0.73717 0.0
C673 C 0.99504 0.72924 0.70876 0.0
C674 C 0.95782 0.70916 0.74147 0.0
C675 C 0.94586 0.69795 0.73372 0.0
C676 C 0.94594 0.68689 0.72214 0.0
C677 C 0.9582 0.68787 0.7156 0.0
C678 C 0.97013 0.69913 0.72305 0.0
H679 H 0.00386 0.73893 0.70312 0.0
H680 H 0.99609 0.7212 0.69892 0.0
H681 H 0.98589 0.72888 0.70089 0.0
H682 H 0.95752 0.71708 0.7525 0.0
H683 H 0.93657 0.6975 0.73904 0.0
H684 H 0.29459 0.23968 0.72124 0.0
H685 H 0.27508 0.24195 0.73089 0.0
H686 H 0.29864 0.28435 0.71754 0.0
H687 H 0.31819 0.28222 0.70821 0.0
H688 H 0.27725 0.25844 0.77575 0.0
H689 H 0.26203 0.27396 0.6833 0.0
H690 H 0.2709 0.26479 0.68254 0.0
H691 H 0.27982 0.28256 0.68753 0.0
C692 C 0.2955 0.24942 0.71941 0.0
C693 C 0.30794 0.26081 0.71424 0.0
C694 C 0.28434 0.25068 0.72498 0.0
C695 C 0.28544 0.26328 0.72479 0.0
C696 C 0.29756 0.2745 0.71737 0.0
H697 H 0.27571 0.31602 0.80775 0.0
H698 H 0.27806 0.29687 0.79593 0.0
C699 C 0.30874 0.27328 0.7122 0.0
C700 C 0.27493 0.26531 0.73682 0.0
H701 H 0.25862 0.28246 0.72561 0.0
C702 C 0.27277 0.26328 0.76468 0.0
C703 C 0.26897 0.27144 0.72231 0.0
C704 C 0.27044 0.2732 0.69219 0.0
C705 C 0.26603 0.26861 0.77884 0.0
C706 C 0.26142 0.2761 0.76471 0.0
C707 C 0.26226 0.27679 0.73648 0.0
C708 C 0.2583 0.28546 0.77866 0.0
C709 C 0.26468 0.26696 0.80899 0.0
C710 C 0.24622 0.28516 0.77382 0.0
C711 C 0.24483 0.2961 0.78076 0.0
C712 C 0.25563 0.30758 0.79201 0.0
C713 C 0.26726 0.30734 0.799 0.0
C714 C 0.26857 0.29635 0.7924 0.0
H715 H 0.2643 0.25758 0.8154 0.0
H716 H 0.2735 0.27539 0.81869 0.0
H717 H 0.25559 0.26691 0.8163 0.0
H718 H 0.23824 0.27688 0.76304 0.0
H719 H 0.23575 0.296 0.77507 0.0
H720 H 0.96463 0.39098 0.5627 0.0
H721 H 0.94497 0.36962 0.57406 0.0
H722 H 0.9664 0.34925 0.55358 0.0
H723 H 0.98601 0.37044 0.54206 0.0
H724 H 0.93796 0.33476 0.5416 0.0
H725 H 0.95042 0.35462 0.64649 0.0
H726 H 0.94686 0.3637 0.62159 0.0
H727 H 0.96185 0.3628 0.61904 0.0
C728 C 0.96501 0.38191 0.5597 0.0
C729 C 0.97697 0.3824 0.55208 0.0
C730 C 0.95377 0.36973 0.56632 0.0
C731 C 0.95438 0.35796 0.5652 0.0
C732 C 0.96579 0.35828 0.5547 0.0
H733 H 0.94848 0.29459 0.63558 0.0
H734 H 0.95068 0.31611 0.6247 0.0
C735 C 0.97701 0.37041 0.54821 0.0
C736 C 0.94435 0.34567 0.57878 0.0
H737 H 0.93802 0.33152 0.64123 0.0
C738 C 0.9375 0.33403 0.5634 0.0
C739 C 0.94387 0.34486 0.60725 0.0
C740 C 0.95114 0.35711 0.62472 0.0
C741 C 0.93126 0.32144 0.57568 0.0
C742 C 0.93188 0.32061 0.60403 0.0
C743 C 0.93757 0.33227 0.61952 0.0
C744 C 0.92964 0.30818 0.6169 0.0
C745 C 0.92527 0.30915 0.55813 0.0
C746 C 0.91697 0.29675 0.6176 0.0
C747 C 0.91568 0.28439 0.62393 0.0
C748 C 0.92708 0.28336 0.62937 0.0
C749 C 0.93955 0.29504 0.63119 0.0
C750 C 0.94081 0.30735 0.62504 0.0
H751 H 0.92622 0.31161 0.53633 0.0
H752 H 0.93022 0.30322 0.56216 0.0
H753 H 0.91452 0.30279 0.56295 0.0
H754 H 0.90824 0.29726 0.61163 0.0
H755 H 0.90591 0.27556 0.62248 0.0
H756 H 0.60702 0.57352 0.56048 0.0
H757 H 0.62859 0.57569 0.57202 0.0
H758 H 0.64811 0.61771 0.55393 0.0
H759 H 0.62672 0.61567 0.54232 0.0
H760 H 0.66305 0.6042 0.54025 0.0
H761 H 0.64341 0.59565 0.64541 0.0
H762 H 0.63436 0.58326 0.62002 0.0
H763 H 0.6351 0.59909 0.6185 0.0
C764 C 0.61596 0.58313 0.55806 0.0
C765 C 0.61517 0.5945 0.551 0.0
C766 C 0.62825 0.58434 0.56479 0.0
C767 C 0.63984 0.59689 0.5643 0.0
C768 C 0.63923 0.60794 0.55453 0.0
H769 H 0.70311 0.65436 0.63531 0.0
H770 H 0.68164 0.63491 0.62461 0.0
C771 C 0.627 0.60677 0.54798 0.0
C772 C 0.65223 0.59926 0.57758 0.0
H773 H 0.66654 0.60677 0.63991 0.0
C774 C 0.66385 0.60432 0.56203 0.0
C775 C 0.65312 0.59939 0.60602 0.0
C776 C 0.64088 0.5941 0.62364 0.0
C777 C 0.67647 0.61072 0.57417 0.0
C778 C 0.67737 0.61196 0.60256 0.0
C779 C 0.66574 0.60573 0.61817 0.0
C780 C 0.6898 0.62213 0.61549 0.0
C781 C 0.68871 0.6173 0.55648 0.0
C782 C 0.70135 0.62108 0.61544 0.0
C783 C 0.71368 0.63222 0.62162 0.0
C784 C 0.71456 0.64452 0.6277 0.0
C785 C 0.70278 0.64508 0.63038 0.0
C786 C 0.69049 0.63396 0.62435 0.0
H787 H 0.68618 0.61601 0.5347 0.0
H788 H 0.69458 0.62813 0.56096 0.0
H789 H 0.69514 0.61293 0.56069 0.0
H790 H 0.70094 0.61196 0.60893 0.0
H791 H 0.72259 0.63145 0.61953 0.0
H792 H 0.36643 0.08801 0.6301 0.0
H793 H 0.38581 0.08554 0.62011 0.0
H794 H 0.36092 0.04278 0.62414 0.0
H795 H 0.34157 0.04511 0.63408 0.0
H796 H 0.3884 0.05419 0.64538 0.0
H797 H 0.38461 0.07078 0.54184 0.0
H798 H 0.38644 0.08124 0.57024 0.0
H799 H 0.37122 0.06572 0.56583 0.0
C800 C 0.36517 0.07809 0.62974 0.0
C801 C 0.35243 0.06672 0.6324 0.0
C802 C 0.37624 0.07672 0.62391 0.0
C803 C 0.37469 0.06399 0.62096 0.0
C804 C 0.36227 0.05269 0.62626 0.0
H805 H 0.38387 0.01072 0.54007 0.0
H806 H 0.38156 0.02971 0.55342 0.0
C807 C 0.35121 0.05404 0.63187 0.0
C808 C 0.3852 0.06205 0.60873 0.0
H809 H 0.39574 0.05871 0.54656 0.0
C810 C 0.39048 0.05559 0.62395 0.0
C811 C 0.38777 0.06391 0.58074 0.0
C812 C 0.38223 0.07076 0.56353 0.0
C813 C 0.39724 0.04982 0.6115 0.0
C814 C 0.39877 0.05065 0.58315 0.0
C815 C 0.39458 0.05818 0.56828 0.0
C816 C 0.40173 0.04134 0.56852 0.0
C817 C 0.40149 0.04174 0.62838 0.0
C818 C 0.41412 0.04203 0.57098 0.0
C819 C 0.41548 0.03116 0.56328 0.0
C820 C 0.40442 0.01949 0.55326 0.0
C821 C 0.39251 0.0195 0.54805 0.0
C822 C 0.39118 0.03036 0.5556 0.0
H823 H 0.39878 0.04143 0.64994 0.0
H824 H 0.39677 0.03135 0.62071 0.0
H825 H 0.41246 0.04613 0.62701 0.0
H826 H 0.4224 0.05053 0.58063 0.0
H827 H 0.42483 0.03149 0.56739 0.0
H828 H 0.42712 0.39498 0.0757 0.0
H829 H 0.42621 0.37421 0.08892 0.0
H830 H 0.38745 0.35174 0.05195 0.0
H831 H 0.38823 0.37237 0.0388 0.0
H832 H 0.406 0.35886 0.12473 0.0
H833 H 0.40356 0.32798 0.038 0.0
H834 H 0.41105 0.3459 0.03578 0.0
H835 H 0.39327 0.33527 0.03241 0.0
C836 C 0.41865 0.38561 0.06936 0.0
C837 C 0.40762 0.38528 0.05664 0.0
C838 C 0.41816 0.37376 0.07697 0.0
C839 C 0.40678 0.36146 0.07141 0.0
C840 C 0.39643 0.36112 0.05608 0.0
H841 H 0.34734 0.29876 0.14095 0.0
H842 H 0.36689 0.32049 0.13234 0.0
C843 C 0.39684 0.37294 0.04874 0.0
C844 C 0.40418 0.34936 0.08632 0.0
H845 H 0.38974 0.31584 0.07709 0.0
C846 C 0.40291 0.34949 0.11445 0.0
C847 C 0.40033 0.33719 0.07302 0.0
C848 C 0.40226 0.3366 0.04314 0.0
C849 C 0.39637 0.33758 0.12911 0.0
C850 C 0.391 0.32534 0.11522 0.0
C851 C 0.39373 0.32527 0.08768 0.0
C852 C 0.38042 0.31284 0.12719 0.0
C853 C 0.39438 0.33815 0.15898 0.0
C854 C 0.38167 0.30141 0.12798 0.0
C855 C 0.3705 0.28896 0.13314 0.0
C856 C 0.35789 0.28778 0.13689 0.0
C857 C 0.35691 0.29937 0.13806 0.0
C858 C 0.3681 0.3118 0.1333 0.0
H859 H 0.40257 0.34746 0.1679 0.0
H860 H 0.38488 0.33808 0.16253 0.0
H861 H 0.39386 0.32944 0.16949 0.0
H862 H 0.39108 0.30203 0.12308 0.0
H863 H 0.37155 0.28019 0.132 0.0
H864 H 0.60417 0.03247 0.07166 0.0
H865 H 0.62535 0.05229 0.0831 0.0
H866 H 0.64663 0.03378 0.05022 0.0
H867 H 0.62559 0.01398 0.03884 0.0
H868 H 0.64088 0.04837 0.12038 0.0
H869 H 0.67084 0.07291 0.02994 0.0
H870 H 0.65285 0.06274 0.02898 0.0
H871 H 0.66313 0.05513 0.02731 0.0
C872 C 0.61337 0.03282 0.06588 0.0
C873 C 0.61324 0.02158 0.05474 0.0
C874 C 0.62545 0.04417 0.07246 0.0
C875 C 0.63754 0.04451 0.06745 0.0
C876 C 0.63743 0.03382 0.05386 0.0
H877 H 0.70082 0.04968 0.13896 0.0
H878 H 0.6791 0.04742 0.12975 0.0
C879 C 0.62538 0.02244 0.04755 0.0
C880 C 0.64991 0.05438 0.08108 0.0
H881 H 0.68333 0.07265 0.06971 0.0
C882 C 0.65013 0.0541 0.10936 0.0
C883 C 0.66193 0.062 0.06678 0.0
C884 C 0.66216 0.06333 0.03656 0.0
C885 C 0.66223 0.05992 0.12346 0.0
C886 C 0.6743 0.06608 0.10884 0.0
C887 C 0.67404 0.06776 0.08088 0.0
C888 C 0.68691 0.06834 0.12093 0.0
C889 C 0.66203 0.05858 0.15368 0.0
C890 C 0.69843 0.08093 0.11982 0.0
C891 C 0.71088 0.08227 0.12531 0.0
C892 C 0.71195 0.07095 0.13132 0.0
C893 C 0.70029 0.05855 0.13432 0.0
C894 C 0.68787 0.05727 0.12922 0.0
H895 H 0.65289 0.05796 0.16238 0.0
H896 H 0.66201 0.04926 0.15899 0.0
H897 H 0.67093 0.06711 0.16298 0.0
H898 H 0.69787 0.08955 0.11321 0.0
H899 H 0.71971 0.09195 0.12272 0.0
H900 H 0.90467 0.63154 0.10741 0.0
H901 H 0.90603 0.6118 0.09523 0.0
H902 H 0.94587 0.63015 0.12781 0.0
H903 H 0.94464 0.64988 0.13987 0.0
H904 H 0.92551 0.61612 0.05757 0.0
H905 H 0.93106 0.59085 0.14661 0.0
H906 H 0.92313 0.6009 0.14825 0.0
H907 H 0.94103 0.60861 0.14997 0.0
C908 C 0.91352 0.63115 0.11299 0.0
C909 C 0.92466 0.64235 0.12421 0.0
C910 C 0.91426 0.61985 0.10598 0.0
C911 C 0.92602 0.6195 0.11067 0.0
C912 C 0.93661 0.63011 0.1244 0.0
H913 H 0.98469 0.61619 0.03828 0.0
H914 H 0.96487 0.61783 0.04747 0.0
C915 C 0.93594 0.64145 0.13112 0.0
C916 C 0.92856 0.60978 0.09649 0.0
H917 H 0.94402 0.59172 0.10665 0.0
C918 C 0.9291 0.61035 0.06823 0.0
C919 C 0.93304 0.60211 0.11031 0.0
C920 C 0.9319 0.60046 0.14047 0.0
C921 C 0.93553 0.60481 0.05372 0.0
C922 C 0.94155 0.59864 0.06791 0.0
C923 C 0.93954 0.59662 0.0958 0.0
C924 C 0.9521 0.59677 0.0556 0.0
C925 C 0.93671 0.60648 0.02356 0.0
C926 C 0.95135 0.58432 0.05631 0.0
C927 C 0.96268 0.58334 0.05086 0.0
C928 C 0.97496 0.59488 0.04529 0.0
C929 C 0.97539 0.60715 0.0426 0.0
C930 C 0.96404 0.60808 0.04768 0.0
H931 H 0.92808 0.60696 0.01503 0.0
H932 H 0.94589 0.61597 0.01858 0.0
H933 H 0.93734 0.59817 0.01381 0.0
H934 H 0.94225 0.57552 0.06262 0.0
H935 H 0.96205 0.57374 0.05317 0.0
H936 H 0.61268 0.6265 0.97161 0.0
H937 H 0.61478 0.64788 0.95963 0.0
H938 H 0.57437 0.62778 0.92985 0.0
H939 H 0.57211 0.60629 0.94212 0.0
H940 H 0.59445 0.64234 0.89087 0.0
H941 H 0.60094 0.67341 0.98033 0.0
H942 H 0.61005 0.66467 0.98326 0.0
H943 H 0.59211 0.65537 0.98152 0.0
C944 C 0.60407 0.62665 0.96351 0.0
C945 C 0.5923 0.61474 0.95748 0.0
C946 C 0.60524 0.63889 0.95683 0.0
C947 C 0.59471 0.63938 0.94392 0.0
C948 C 0.58256 0.62758 0.94 0.0
H949 H 0.63068 0.72107 0.88545 0.0
H950 H 0.61104 0.69938 0.89484 0.0
C951 C 0.58129 0.61532 0.94707 0.0
C952 C 0.59756 0.65173 0.92979 0.0
H953 H 0.61339 0.68525 0.94011 0.0
C954 C 0.59815 0.65171 0.90154 0.0
C955 C 0.60223 0.66388 0.9437 0.0
C956 C 0.60118 0.66434 0.97389 0.0
C957 C 0.60472 0.66369 0.88709 0.0
C958 C 0.61078 0.67585 0.90134 0.0
C959 C 0.60882 0.67586 0.92925 0.0
C960 C 0.62128 0.68827 0.88902 0.0
C961 C 0.60599 0.66324 0.85695 0.0
C962 C 0.63339 0.68907 0.88179 0.0
C963 C 0.64465 0.70141 0.87681 0.0
C964 C 0.64395 0.71314 0.87884 0.0
C965 C 0.63152 0.71219 0.88365 0.0
C966 C 0.62028 0.69983 0.88906 0.0
H967 H 0.59755 0.65402 0.84833 0.0
H968 H 0.60637 0.67206 0.8472 0.0
H969 H 0.61536 0.66326 0.85208 0.0
H970 H 0.63439 0.68025 0.88207 0.0
H971 H 0.65408 0.70185 0.87307 0.0
H972 H 0.39345 0.96602 0.93753 0.0
H973 H 0.3726 0.94676 0.92229 0.0
H974 H 0.35066 0.96517 0.95212 0.0
H975 H 0.37133 0.98434 0.96751 0.0
H976 H 0.33678 0.93627 0.95541 0.0
H977 H 0.35829 0.95659 0.85412 0.0
H978 H 0.36724 0.95164 0.87657 0.0
H979 H 0.36576 0.96598 0.88441 0.0
C980 C 0.38414 0.96574 0.94178 0.0
C981 C 0.38404 0.97684 0.95313 0.0
C982 C 0.37225 0.95475 0.93292 0.0
C983 C 0.3602 0.95474 0.93552 0.0
C984 C 0.35992 0.96506 0.94978 0.0
H985 H 0.29702 0.95155 0.86985 0.0
H986 H 0.31871 0.95374 0.87896 0.0
C987 C 0.37175 0.97604 0.95851 0.0
C988 C 0.34828 0.94551 0.91982 0.0
H989 H 0.33517 0.94324 0.85719 0.0
C990 C 0.33642 0.93734 0.93377 0.0
C991 C 0.34795 0.94703 0.89157 0.0
C992 C 0.36044 0.9558 0.87563 0.0
C993 C 0.32405 0.93168 0.92065 0.0
C994 C 0.32365 0.93424 0.89289 0.0
C995 C 0.33558 0.9413 0.87844 0.0
C996 C 0.31129 0.93249 0.88051 0.0
C997 C 0.31146 0.92417 0.9371 0.0
C998 C 0.30013 0.91981 0.87673 0.0
C999 C 0.28768 0.91852 0.87139 0.0
C1000 C 0.2863 0.92992 0.87003 0.0
C1001 C 0.29776 0.9426 0.87108 0.0
C1002 C 0.31017 0.94386 0.87623 0.0
H1003 H 0.31357 0.92369 0.95878 0.0
H1004 H 0.30529 0.92902 0.93524 0.0
H1005 H 0.3055 0.91383 0.92937 0.0
H1006 H 0.30088 0.91094 0.87968 0.0
H1007 H 0.27902 0.90862 0.87058 0.0
H1008 H 0.04714 0.34627 0.87307 0.0
H1009 H 0.0456 0.36613 0.88216 0.0
H1010 H 0.08738 0.38785 0.90283 0.0
H1011 H 0.08904 0.36798 0.89359 0.0
H1012 H 0.07038 0.3861 0.94444 0.0
H1013 H 0.05767 0.40326 0.8513 0.0
H1014 H 0.04817 0.38544 0.85404 0.0
H1015 H 0.06606 0.39362 0.85099 0.0
C1016 C 0.05611 0.35539 0.87862 0.0
C1017 C 0.06816 0.35552 0.88291 0.0
C1018 C 0.05525 0.36678 0.88363 0.0
C1019 C 0.0664 0.37847 0.89303 0.0
C1020 C 0.0787 0.37895 0.89538 0.0
H1021 H 0.03116 0.42607 0.94104 0.0
H1022 H 0.05095 0.42454 0.93021 0.0
C1023 C 0.07961 0.36758 0.89005 0.0
C1024 C 0.06437 0.38899 0.90503 0.0
H1025 H 0.04741 0.40541 0.89284 0.0
C1026 C 0.06579 0.39076 0.93307 0.0
C1027 C 0.05863 0.39524 0.89019 0.0
C1028 C 0.05768 0.3944 0.85991 0.0
C1029 C 0.06011 0.39723 0.94695 0.0
C1030 C 0.05282 0.40193 0.93237 0.0
C1031 C 0.05287 0.40164 0.90409 0.0
C1032 C 0.04289 0.4045 0.94561 0.0
C1033 C 0.06115 0.39815 0.97722 0.0
C1034 C 0.03204 0.39393 0.95883 0.0
C1035 C 0.02068 0.3947 0.96481 0.0
C1036 C 0.02 0.40607 0.95764 0.0
C1037 C 0.03138 0.41716 0.94682 0.0
C1038 C 0.04271 0.41632 0.94058 0.0
H1039 H 0.07064 0.39894 0.98418 0.0
H1040 H 0.06056 0.40686 0.98485 0.0
H1041 H 0.05283 0.38895 0.98611 0.0
H1042 H 0.03186 0.38462 0.96246 0.0
H1043 H 0.0121 0.38603 0.97326 0.0
H1044 H 0.08968 0.72293 0.39544 0.0
H1045 H 0.0876 0.70156 0.40825 0.0
H1046 H 0.04553 0.68171 0.39035 0.0
H1047 H 0.04745 0.70302 0.37808 0.0
H1048 H 0.06894 0.6881 0.45286 0.0
H1049 H 0.05836 0.65546 0.36391 0.0
H1050 H 0.06773 0.67347 0.36184 0.0
H1051 H 0.04981 0.66482 0.36328 0.0
C1052 C 0.08009 0.71394 0.39322 0.0
C1053 C 0.06867 0.71462 0.38605 0.0
C1054 C 0.07894 0.70177 0.4006 0.0
C1055 C 0.06644 0.69013 0.40014 0.0
C1056 C 0.0553 0.69061 0.39047 0.0
H1057 H 0.01025 0.62836 0.47709 0.0
H1058 H 0.02964 0.65004 0.46718 0.0
C1059 C 0.05639 0.70278 0.38358 0.0
C1060 C 0.06428 0.67807 0.41445 0.0
H1061 H 0.04846 0.64443 0.40619 0.0
C1062 C 0.0649 0.67856 0.4427 0.0
C1063 C 0.05916 0.66572 0.40112 0.0
C1064 C 0.05883 0.66481 0.37082 0.0
C1065 C 0.05909 0.66683 0.458 0.0
C1066 C 0.05262 0.65444 0.4446 0.0
C1067 C 0.05339 0.65399 0.41642 0.0
C1068 C 0.04272 0.64218 0.45838 0.0
C1069 C 0.05902 0.66774 0.48827 0.0
C1070 C 0.04387 0.6307 0.45784 0.0
C1071 C 0.03282 0.6183 0.46383 0.0
C1072 C 0.02043 0.61725 0.46969 0.0
C1073 C 0.01966 0.6289 0.47255 0.0
C1074 C 0.03076 0.64129 0.46703 0.0
H1075 H 0.06764 0.6772 0.4956 0.0
H1076 H 0.04975 0.66753 0.49478 0.0
H1077 H 0.05929 0.6592 0.49781 0.0
H1078 H 0.053 0.63122 0.45096 0.0
H1079 H 0.03368 0.60946 0.46137 0.0
H1080 H 0.27538 0.36798 0.39469 0.0
H1081 H 0.29679 0.38771 0.40545 0.0
H1082 H 0.31717 0.36651 0.38317 0.0
H1083 H 0.2959 0.34679 0.37253 0.0
H1084 H 0.31161 0.38523 0.44695 0.0
H1085 H 0.34248 0.40421 0.35538 0.0
H1086 H 0.32446 0.3945 0.35421 0.0
H1087 H 0.33422 0.38635 0.35678 0.0
C1088 C 0.28446 0.36768 0.3911 0.0
C1089 C 0.28397 0.35578 0.38307 0.0
C1090 C 0.29667 0.37897 0.39731 0.0
C1091 C 0.30854 0.37858 0.39498 0.0
C1092 C 0.30814 0.3671 0.38466 0.0
H1093 H 0.36977 0.38513 0.47648 0.0
H1094 H 0.34863 0.38377 0.46556 0.0
C1095 C 0.29596 0.35579 0.37876 0.0
C1096 C 0.32094 0.38888 0.40786 0.0
H1097 H 0.35445 0.40567 0.39716 0.0
C1098 C 0.32097 0.39013 0.436 0.0
C1099 C 0.3331 0.39545 0.39359 0.0
C1100 C 0.33355 0.39517 0.36327 0.0
C1101 C 0.33297 0.39641 0.45045 0.0
C1102 C 0.34513 0.40144 0.43634 0.0
C1103 C 0.3451 0.40165 0.40805 0.0
C1104 C 0.35752 0.40388 0.44989 0.0
C1105 C 0.33251 0.39678 0.48076 0.0
C1106 C 0.36953 0.41581 0.44563 0.0
C1107 C 0.38168 0.41662 0.45194 0.0
C1108 C 0.38195 0.4054 0.46206 0.0
C1109 C 0.36987 0.39391 0.46858 0.0
C1110 C 0.35776 0.39316 0.46252 0.0
H1111 H 0.32371 0.39741 0.48766 0.0
H1112 H 0.33157 0.38744 0.48903 0.0
H1113 H 0.3417 0.40537 0.48909 0.0
H1114 H 0.36954 0.42416 0.43574 0.0
H1115 H 0.39083 0.42563 0.44668 0.0
H1116 H 0.64903 0.94579 0.3712 0.0
H1117 H 0.6294 0.94734 0.38241 0.0
H1118 H 0.60827 0.90577 0.4047 0.0
H1119 H 0.62806 0.90415 0.39386 0.0
H1120 H 0.60166 0.93412 0.37094 0.0
H1121 H 0.61272 0.9257 0.47622 0.0
H1122 H 0.62421 0.92857 0.44912 0.0
H1123 H 0.60887 0.91297 0.4514 0.0
C1124 C 0.6401 0.93686 0.37773 0.0
C1125 C 0.64021 0.92495 0.38229 0.0
C1126 C 0.62885 0.93775 0.38405 0.0
C1127 C 0.61752 0.92675 0.39501 0.0
C1128 C 0.61703 0.91443 0.39672 0.0
H1129 H 0.57144 0.96381 0.44882 0.0
H1130 H 0.57247 0.94372 0.43789 0.0
C1131 C 0.62833 0.91352 0.39036 0.0
C1132 C 0.60745 0.92909 0.40829 0.0
H1133 H 0.60076 0.93679 0.47055 0.0
C1134 C 0.601 0.93428 0.39271 0.0
C1135 C 0.60667 0.92925 0.43674 0.0
C1136 C 0.61349 0.92388 0.4545 0.0
C1137 C 0.59503 0.94095 0.40479 0.0
C1138 C 0.59539 0.94223 0.43318 0.0
C1139 C 0.60053 0.93576 0.44881 0.0
C1140 C 0.59357 0.95271 0.44612 0.0
C1141 C 0.58968 0.94777 0.38698 0.0
C1142 C 0.60489 0.96404 0.45619 0.0
C1143 C 0.60435 0.97547 0.46256 0.0
C1144 C 0.59247 0.97576 0.45894 0.0
C1145 C 0.58079 0.96394 0.45158 0.0
C1146 C 0.58135 0.95246 0.44517 0.0
H1147 H 0.59108 0.94658 0.36522 0.0
H1148 H 0.57885 0.9435 0.39077 0.0
H1149 H 0.59472 0.95859 0.39167 0.0
H1150 H 0.61441 0.96439 0.45721 0.0
H1151 H 0.61347 0.98435 0.46849 0.0
H1152 H 0.33414 0.09412 0.53656 0.0
H1153 H 0.33806 0.09624 0.48844 0.0
H1154 H 0.3051 0.05637 0.47659 0.0
H1155 H 0.30143 0.05389 0.5255 0.0
H1156 H 0.32602 0.06009 0.44794 0.0
H1157 H 0.31905 0.10325 0.43004 0.0
H1158 H 0.33144 0.1071 0.45544 0.0
H1159 H 0.31444 0.0942 0.46141 0.0
C1160 C 0.32753 0.0858 0.52384 0.0
C1161 C 0.31738 0.07383 0.53503 0.0
C1162 C 0.32977 0.0871 0.49615 0.0
C1163 C 0.32173 0.07659 0.47871 0.0
C1164 C 0.3114 0.06466 0.48964 0.0
H1165 H 0.32407 0.08805 0.30677 0.0
H1166 H 0.31918 0.08533 0.35451 0.0
C1167 C 0.30925 0.06327 0.51758 0.0
C1168 C 0.32467 0.07796 0.44932 0.0
H1169 H 0.33114 0.09895 0.39603 0.0
C1170 C 0.32699 0.0685 0.43648 0.0
C1171 C 0.32581 0.08887 0.43423 0.0
C1172 C 0.3224 0.09883 0.44595 0.0
C1173 C 0.33062 0.06975 0.40914 0.0
C1174 C 0.33247 0.08105 0.39446 0.0
C1175 C 0.32998 0.0904 0.40729 0.0
C1176 C 0.33599 0.08294 0.36529 0.0
C1177 C 0.33209 0.05876 0.3962 0.0
C1178 C 0.34727 0.08277 0.35518 0.0
C1179 C 0.35002 0.08411 0.32743 0.0
C1180 C 0.3417 0.08597 0.30944 0.0
C1181 C 0.33076 0.08669 0.3199 0.0
C1182 C 0.32791 0.08511 0.34734 0.0
H1183 H 0.3267 0.04929 0.40771 0.0
H1184 H 0.32826 0.05688 0.37522 0.0
H1185 H 0.3428 0.0617 0.39574 0.0
H1186 H 0.35391 0.08153 0.36867 0.0
H1187 H 0.35854 0.08357 0.32007 0.0
H1188 H 0.9452 0.25507 0.52672 0.0
H1189 H 0.943 0.25874 0.47874 0.0
H1190 H 0.90032 0.23375 0.48455 0.0
H1191 H 0.90236 0.22999 0.53221 0.0
H1192 H 0.92946 0.24028 0.43321 0.0
H1193 H 0.90719 0.2715 0.46047 0.0
H1194 H 0.91646 0.26743 0.48416 0.0
H1195 H 0.8995 0.25534 0.47613 0.0
C1196 C 0.93538 0.25007 0.51762 0.0
C1197 C 0.92394 0.24235 0.53339 0.0
C1198 C 0.93414 0.25226 0.49027 0.0
C1199 C 0.92147 0.24678 0.47838 0.0
C1200 C 0.91016 0.23829 0.49354 0.0
H1201 H 0.89485 0.23849 0.31508 0.0
H1202 H 0.89819 0.23616 0.36283 0.0
C1203 C 0.91137 0.23609 0.52076 0.0
C1204 C 0.9199 0.25038 0.45053 0.0
H1205 H 0.90619 0.26564 0.41424 0.0
C1206 C 0.92447 0.2459 0.42903 0.0
C1207 C 0.91354 0.25788 0.44521 0.0
C1208 C 0.90898 0.26344 0.46768 0.0
C1209 C 0.92239 0.2483 0.40223 0.0
C1210 C 0.91547 0.25526 0.39691 0.0
C1211 C 0.91136 0.26019 0.41842 0.0
C1212 C 0.91212 0.25712 0.36905 0.0
C1213 C 0.92754 0.24332 0.37977 0.0
C1214 C 0.91826 0.26981 0.35715 0.0
C1215 C 0.91632 0.27122 0.32974 0.0
C1216 C 0.90819 0.25993 0.31393 0.0
C1217 C 0.90127 0.24738 0.32657 0.0
C1218 C 0.90322 0.246 0.35384 0.0
H1219 H 0.93523 0.24098 0.387 0.0
H1220 H 0.91914 0.23406 0.37123 0.0
H1221 H 0.93188 0.2508 0.36334 0.0
H1222 H 0.92506 0.27853 0.36871 0.0
H1223 H 0.92182 0.28101 0.32065 0.0
H1224 H 0.76722 0.67414 0.5292 0.0
H1225 H 0.76307 0.66802 0.48175 0.0
H1226 H 0.737 0.68451 0.47697 0.0
H1227 H 0.741 0.69063 0.52481 0.0
H1228 H 0.73474 0.65008 0.46269 0.0
H1229 H 0.76293 0.6985 0.40835 0.0
H1230 H 0.76755 0.69613 0.44181 0.0
H1231 H 0.75296 0.69756 0.43707 0.0
C1232 C 0.76082 0.67676 0.51801 0.0
C1233 C 0.75438 0.68282 0.53092 0.0
C1234 C 0.75842 0.67318 0.49089 0.0
C1235 C 0.74965 0.67571 0.47598 0.0
C1236 C 0.74383 0.68251 0.4882 0.0
H1237 H 0.71493 0.64103 0.31858 0.0
H1238 H 0.71706 0.64701 0.36648 0.0
C1239 C 0.7462 0.68607 0.51548 0.0
C1240 C 0.74594 0.6703 0.44832 0.0
H1241 H 0.75126 0.67911 0.38198 0.0
C1242 C 0.73823 0.65641 0.445 0.0
C1243 C 0.75056 0.67861 0.42541 0.0
C1244 C 0.75901 0.69354 0.42808 0.0
C1245 C 0.7352 0.6506 0.41925 0.0
C1246 C 0.74002 0.65889 0.39635 0.0
C1247 C 0.74755 0.67279 0.39966 0.0
C1248 C 0.73807 0.65338 0.36874 0.0
C1249 C 0.72723 0.63563 0.41658 0.0
C1250 C 0.74905 0.65453 0.35453 0.0
C1251 C 0.74785 0.65103 0.32736 0.0
C1252 C 0.73566 0.64642 0.31371 0.0
C1253 C 0.72443 0.64445 0.32848 0.0
C1254 C 0.72565 0.64794 0.35581 0.0
H1255 H 0.72531 0.63053 0.43638 0.0
H1256 H 0.7175 0.63272 0.40692 0.0
H1257 H 0.73258 0.63208 0.40343 0.0
H1258 H 0.7587 0.65864 0.36422 0.0
H1259 H 0.7567 0.65264 0.31669 0.0
H1260 H 0.10187 0.34287 0.19486 0.0
H1261 H 0.09773 0.33729 0.14717 0.0
H1262 H 0.07023 0.35215 0.1451 0.0
H1263 H 0.07425 0.35774 0.19313 0.0
H1264 H 0.06988 0.31861 0.12863 0.0
H1265 H 0.09512 0.36767 0.07592 0.0
H1266 H 0.10018 0.36544 0.10904 0.0
H1267 H 0.08501 0.36586 0.10497 0.0
C1268 C 0.09517 0.34526 0.18421 0.0
C1269 C 0.08832 0.35068 0.19792 0.0
C1270 C 0.09278 0.342 0.15696 0.0
C1271 C 0.08361 0.3442 0.14274 0.0
C1272 C 0.07739 0.35041 0.15577 0.0
H1273 H 0.04793 0.30918 0.98619 0.0
H1274 H 0.05047 0.31491 0.03426 0.0
C1275 C 0.07975 0.35367 0.18318 0.0
C1276 C 0.07986 0.33899 0.11497 0.0
H1277 H 0.08383 0.34842 0.04898 0.0
C1278 C 0.07282 0.32511 0.11118 0.0
C1279 C 0.08376 0.34752 0.09238 0.0
C1280 C 0.0915 0.36247 0.09553 0.0
C1281 C 0.06974 0.31952 0.08525 0.0
C1282 C 0.07382 0.32804 0.06265 0.0
C1283 C 0.08069 0.34193 0.06644 0.0
C1284 C 0.07181 0.32283 0.03479 0.0
C1285 C 0.06253 0.30457 0.08206 0.0
C1286 C 0.08289 0.32499 0.01953 0.0
C1287 C 0.08148 0.32166 0.99227 0.0
C1288 C 0.06895 0.3162 0.97959 0.0
C1289 C 0.0577 0.31329 0.99534 0.0
C1290 C 0.05913 0.31661 0.02276 0.0
H1291 H 0.06133 0.29937 0.10154 0.0
H1292 H 0.05248 0.30113 0.07343 0.0
H1293 H 0.06802 0.30164 0.06784 0.0
H1294 H 0.09273 0.32971 0.02853 0.0
H1295 H 0.09035 0.32399 0.98082 0.0
H1296 H 0.63839 0.72269 0.19209 0.0
H1297 H 0.64292 0.72528 0.14348 0.0
H1298 H 0.6766 0.76457 0.15715 0.0
H1299 H 0.67174 0.7624 0.20489 0.0
H1300 H 0.66468 0.76551 0.11529 0.0
H1301 H 0.67084 0.72123 0.10526 0.0
H1302 H 0.65452 0.71704 0.11678 0.0
H1303 H 0.66886 0.72719 0.1375 0.0
C1304 C 0.64663 0.73194 0.18462 0.0
C1305 C 0.65469 0.7423 0.20248 0.0
C1306 C 0.64934 0.73334 0.15686 0.0
C1307 C 0.66035 0.74499 0.1466 0.0
C1308 C 0.66809 0.75545 0.1644 0.0
H1309 H 0.69562 0.75056 0.987 0.0
H1310 H 0.69174 0.74937 0.03587 0.0
C1311 C 0.66526 0.75418 0.19186 0.0
C1312 C 0.66395 0.74657 0.11747 0.0
H1313 H 0.67117 0.73228 0.06465 0.0
C1314 C 0.66615 0.75824 0.10432 0.0
C1315 C 0.66621 0.73728 0.10315 0.0
C1316 C 0.66513 0.72506 0.11646 0.0
C1317 C 0.67042 0.76086 0.07744 0.0
C1318 C 0.67194 0.75124 0.06268 0.0
C1319 C 0.66991 0.73962 0.07584 0.0
C1320 C 0.67497 0.75274 0.03332 0.0
C1321 C 0.67356 0.7741 0.06547 0.0
C1322 C 0.6669 0.75504 0.01563 0.0
C1323 C 0.66928 0.75604 0.988 0.0
C1324 C 0.67958 0.75436 0.97708 0.0
C1325 C 0.68769 0.75202 0.99474 0.0
C1326 C 0.68542 0.75125 0.02264 0.0
H1327 H 0.67675 0.78191 0.08127 0.0
H1328 H 0.68156 0.77754 0.05006 0.0
H1329 H 0.66444 0.77311 0.0559 0.0
H1330 H 0.65849 0.75577 0.02311 0.0
H1331 H 0.66266 0.75763 0.97511 0.0
H1332 H 0.23725 0.90087 0.19758 0.0
H1333 H 0.23552 0.90312 0.14948 0.0
H1334 H 0.27728 0.91598 0.14006 0.0
H1335 H 0.27928 0.91434 0.18897 0.0
H1336 H 0.27116 0.93182 0.1127 0.0
H1337 H 0.2332 0.87992 0.08874 0.0
H1338 H 0.22725 0.88643 0.11455 0.0
H1339 H 0.24155 0.88452 0.12088 0.0
C1340 C 0.24609 0.90397 0.18538 0.0
C1341 C 0.25843 0.90738 0.19728 0.0
C1342 C 0.24503 0.90518 0.15769 0.0
C1343 C 0.25619 0.90949 0.14095 0.0
C1344 C 0.26849 0.91256 0.15256 0.0
H1345 H 0.24818 0.90368 0.96815 0.0
H1346 H 0.25091 0.9011 0.01571 0.0
C1347 C 0.26962 0.91153 0.1805 0.0
C1348 C 0.25503 0.91148 0.11167 0.0
H1349 H 0.23587 0.89644 0.05632 0.0
C1350 C 0.26355 0.92403 0.10025 0.0
C1351 C 0.24518 0.90131 0.09531 0.0
C1352 C 0.23639 0.88726 0.10546 0.0
C1353 C 0.26237 0.92676 0.07309 0.0
C1354 C 0.25205 0.91679 0.05713 0.0
C1355 C 0.24365 0.90419 0.06855 0.0
C1356 C 0.25032 0.91874 0.02805 0.0
C1357 C 0.2724 0.94017 0.06171 0.0
C1358 C 0.2489 0.92947 0.01883 0.0
C1359 C 0.24757 0.93114 0.99119 0.0
C1360 C 0.24728 0.92191 0.97243 0.0
C1361 C 0.24826 0.91097 0.98193 0.0
C1362 C 0.24985 0.90947 0.00926 0.0
H1363 H 0.28167 0.94503 0.07396 0.0
H1364 H 0.2751 0.93925 0.04068 0.0
H1365 H 0.26806 0.94681 0.0618 0.0
H1366 H 0.24883 0.93655 0.03295 0.0
H1367 H 0.24679 0.93964 0.98454 0.0
H1368 H 0.64036 0.92585 0.69247 0.0
H1369 H 0.64613 0.93016 0.6446 0.0
H1370 H 0.64987 0.89499 0.64029 0.0
H1371 H 0.64418 0.89063 0.68797 0.0
H1372 H 0.67165 0.9342 0.62571 0.0
H1373 H 0.62899 0.8933 0.57107 0.0
H1374 H 0.6275 0.89828 0.6048 0.0
H1375 H 0.63484 0.88797 0.59936 0.0
C1376 C 0.64194 0.91877 0.6811 0.0
C1377 C 0.64182 0.90789 0.69401 0.0
C1378 C 0.64535 0.92132 0.65381 0.0
C1379 C 0.64843 0.9129 0.63894 0.0
C1380 C 0.6474 0.90154 0.65132 0.0
H1381 H 0.67862 0.90889 0.48364 0.0
H1382 H 0.67208 0.9065 0.53096 0.0
C1383 C 0.64414 0.89906 0.67859 0.0
C1384 C 0.65409 0.91664 0.61144 0.0
H1385 H 0.64923 0.90555 0.54655 0.0
C1386 C 0.66671 0.92805 0.60828 0.0
C1387 C 0.64766 0.90853 0.58889 0.0
C1388 C 0.63394 0.89639 0.59103 0.0
C1389 C 0.67328 0.9313 0.58326 0.0
C1390 C 0.66693 0.92305 0.56074 0.0
C1391 C 0.65416 0.91182 0.56386 0.0
C1392 C 0.67324 0.9257 0.53369 0.0
C1393 C 0.68714 0.94323 0.58144 0.0
C1394 C 0.67665 0.93756 0.51977 0.0
C1395 C 0.68062 0.93904 0.49274 0.0
C1396 C 0.681 0.92859 0.47908 0.0
C1397 C 0.67841 0.91711 0.49359 0.0
C1398 C 0.67459 0.9157 0.5206 0.0
H1399 H 0.69196 0.94622 0.60154 0.0
H1400 H 0.69358 0.94118 0.568 0.0
H1401 H 0.68655 0.95179 0.57301 0.0
H1402 H 0.67548 0.94533 0.52927 0.0
H1403 H 0.68237 0.94793 0.48204 0.0
H1404 H 0.09421 0.76151 0.47924 0.0
H1405 H 0.09629 0.75918 0.52717 0.0
H1406 H 0.05554 0.74971 0.53891 0.0
H1407 H 0.05311 0.7513 0.49014 0.0
H1408 H 0.09535 0.77116 0.56916 0.0
H1409 H 0.05426 0.71878 0.57666 0.0
H1410 H 0.06012 0.72716 0.54478 0.0
H1411 H 0.04871 0.72984 0.56486 0.0
C1412 C 0.08564 0.759 0.49188 0.0
C1413 C 0.07342 0.75647 0.48067 0.0
C1414 C 0.08688 0.75766 0.51945 0.0
C1415 C 0.076 0.75393 0.53674 0.0
C1416 C 0.06396 0.75214 0.52591 0.0
H1417 H 0.08602 0.76344 0.70896 0.0
H1418 H 0.08421 0.7658 0.66094 0.0
C1419 C 0.06263 0.75325 0.49806 0.0
C1420 C 0.07749 0.75197 0.56593 0.0
H1421 H 0.0642 0.7297 0.61783 0.0
C1422 C 0.08854 0.76206 0.57971 0.0
C1423 C 0.06883 0.73997 0.57968 0.0
C1424 C 0.0574 0.72826 0.56568 0.0
C1425 C 0.09112 0.76056 0.6067 0.0
C1426 C 0.08207 0.74888 0.62088 0.0
C1427 C 0.0711 0.7387 0.60708 0.0
C1428 C 0.08347 0.74732 0.65026 0.0
C1429 C 0.10376 0.77141 0.61943 0.0
C1430 C 0.08322 0.73588 0.66064 0.0
C1431 C 0.08396 0.73432 0.68852 0.0
C1432 C 0.08504 0.74421 0.70645 0.0
C1433 C 0.08542 0.75568 0.69585 0.0
C1434 C 0.08446 0.75712 0.66822 0.0
H1435 H 0.11164 0.77681 0.60407 0.0
H1436 H 0.10165 0.7788 0.62916 0.0
H1437 H 0.10771 0.76735 0.63487 0.0
H1438 H 0.08235 0.72812 0.64718 0.0
H1439 H 0.08352 0.72532 0.69601 0.0
H1440 H 0.23017 0.32323 0.47998 0.0
H1441 H 0.23378 0.32889 0.52772 0.0
H1442 H 0.26143 0.31428 0.53206 0.0
H1443 H 0.25798 0.30862 0.48397 0.0
H1444 H 0.24134 0.30788 0.57851 0.0
H1445 H 0.27208 0.3614 0.55066 0.0
H1446 H 0.25622 0.35222 0.53397 0.0
H1447 H 0.26895 0.34803 0.52769 0.0
C1448 C 0.23682 0.32094 0.49112 0.0
C1449 C 0.2439 0.3156 0.47803 0.0
C1450 C 0.23891 0.32425 0.51839 0.0
C1451 C 0.24807 0.32225 0.53316 0.0
C1452 C 0.2544 0.31599 0.52083 0.0
H1453 H 0.27968 0.35502 0.69324 0.0
H1454 H 0.27834 0.34941 0.64523 0.0
C1455 C 0.25234 0.31268 0.49341 0.0
C1456 C 0.25152 0.32748 0.56095 0.0
H1457 H 0.26625 0.35657 0.59684 0.0
C1458 C 0.24689 0.3185 0.58257 0.0
C1459 C 0.25888 0.34135 0.56608 0.0
C1460 C 0.26444 0.35136 0.54343 0.0
C1461 C 0.24899 0.32309 0.60929 0.0
C1462 C 0.25583 0.33698 0.61438 0.0
C1463 C 0.26092 0.34594 0.5928 0.0
C1464 C 0.25719 0.34225 0.64205 0.0
C1465 C 0.24372 0.31308 0.63196 0.0
C1466 C 0.24589 0.34071 0.6556 0.0
C1467 C 0.24663 0.344 0.68282 0.0
C1468 C 0.2587 0.34885 0.69708 0.0
C1469 C 0.27025 0.35134 0.68288 0.0
C1470 C 0.26949 0.34806 0.65551 0.0
H1471 H 0.24108 0.30293 0.62502 0.0
H1472 H 0.25119 0.31614 0.6484 0.0
H1473 H 0.23461 0.31261 0.6404 0.0
H1474 H 0.23636 0.33643 0.64538 0.0
H1475 H 0.23756 0.34204 0.69303 0.0
H1476 H 0.94979 0.68604 0.02769 0.0
H1477 H 0.94775 0.67993 0.97993 0.0
H1478 H 0.90905 0.67678 0.97719 0.0
H1479 H 0.91098 0.68285 0.02471 0.0
H1480 H 0.92632 0.65467 0.96173 0.0
H1481 H 0.92723 0.69692 0.90721 0.0
H1482 H 0.93387 0.69856 0.94081 0.0
H1483 H 0.9162 0.69115 0.9357 0.0
C1484 C 0.94106 0.68452 0.01668 0.0
C1485 C 0.93054 0.68493 0.03001 0.0
C1486 C 0.93986 0.68091 0.98945 0.0
C1487 C 0.92825 0.6779 0.97503 0.0
C1488 C 0.91816 0.6792 0.98783 0.0
H1489 H 0.89216 0.64658 0.8214 0.0
H1490 H 0.89677 0.65328 0.86857 0.0
C1491 C 0.91928 0.68268 0.01503 0.0
C1492 C 0.92598 0.67208 0.9476 0.0
H1493 H 0.91882 0.6765 0.88309 0.0
C1494 C 0.92484 0.65949 0.94441 0.0
C1495 C 0.92395 0.67835 0.92516 0.0
C1496 C 0.92548 0.69205 0.92723 0.0
C1497 C 0.92124 0.65279 0.91954 0.0
C1498 C 0.91898 0.65896 0.89718 0.0
C1499 C 0.92043 0.6717 0.90029 0.0
C1500 C 0.91505 0.65251 0.87027 0.0
C1501 C 0.91943 0.63897 0.91771 0.0
C1502 C 0.92348 0.64926 0.85583 0.0
C1503 C 0.92074 0.64521 0.82887 0.0
C1504 C 0.90966 0.64459 0.81578 0.0
C1505 C 0.90078 0.64698 0.83086 0.0
C1506 C 0.90345 0.65089 0.8578 0.0
H1507 H 0.91794 0.63427 0.93788 0.0
H1508 H 0.91078 0.63241 0.90476 0.0
H1509 H 0.9285 0.63961 0.90868 0.0
H1510 H 0.93259 0.65062 0.86484 0.0
H1511 H 0.92788 0.64362 0.81776 0.0
H1512 H 0.34165 0.24502 0.03985 0.0
H1513 H 0.3459 0.24698 0.99183 0.0
H1514 H 0.31055 0.24979 0.97836 0.0
H1515 H 0.30657 0.24853 0.02714 0.0
H1516 H 0.33357 0.23263 0.95125 0.0
H1517 H 0.33693 0.28171 0.93732 0.0
H1518 H 0.3359 0.27462 0.97017 0.0
H1519 H 0.32106 0.26929 0.95028 0.0
C1520 C 0.33469 0.246 0.0268 0.0
C1521 C 0.32378 0.24669 0.03746 0.0
C1522 C 0.33717 0.24714 0.99921 0.0
C1523 C 0.32874 0.24883 0.98138 0.0
C1524 C 0.31746 0.24892 0.99174 0.0
H1525 H 0.3286 0.23544 0.81063 0.0
H1526 H 0.32538 0.23384 0.85897 0.0
C1527 C 0.31509 0.24803 0.0196 0.0
C1528 C 0.33189 0.25034 0.95207 0.0
H1529 H 0.33727 0.27043 0.89755 0.0
C1530 C 0.33443 0.24095 0.93959 0.0
C1531 C 0.33334 0.26135 0.93688 0.0
C1532 C 0.33181 0.27239 0.94939 0.0
C1533 C 0.33825 0.24216 0.91246 0.0
C1534 C 0.33899 0.25275 0.89689 0.0
C1535 C 0.33662 0.26226 0.9094 0.0
C1536 C 0.34155 0.25377 0.86739 0.0
C1537 C 0.34174 0.2322 0.90105 0.0
C1538 C 0.35154 0.26566 0.85569 0.0
C1539 C 0.35327 0.26673 0.82765 0.0
C1540 C 0.34505 0.25591 0.81088 0.0
C1541 C 0.33526 0.24395 0.82282 0.0
C1542 C 0.33343 0.24297 0.85063 0.0
H1543 H 0.34544 0.22814 0.91702 0.0
H1544 H 0.33266 0.22369 0.89224 0.0
H1545 H 0.34948 0.23671 0.88512 0.0
H1546 H 0.35789 0.27416 0.86821 0.0
H1547 H 0.36083 0.27611 0.81911 0.0
H1548 H 0.72357 0.08578 0.81822 0.0
H1549 H 0.72634 0.08477 0.86708 0.0
H1550 H 0.76361 0.08568 0.8537 0.0
H1551 H 0.76127 0.0873 0.80558 0.0
H1552 H 0.72746 0.06637 0.89656 0.0
H1553 H 0.77506 0.11336 0.91027 0.0
H1554 H 0.76564 0.10952 0.87942 0.0
H1555 H 0.77679 0.10313 0.88539 0.0
C1556 C 0.73248 0.08604 0.82579 0.0
C1557 C 0.74226 0.08678 0.80794 0.0
C1558 C 0.73402 0.0854 0.85369 0.0
C1559 C 0.74533 0.08541 0.86417 0.0
C1560 C 0.75503 0.08611 0.84631 0.0
H1561 H 0.74837 0.05531 0.02508 0.0
H1562 H 0.74705 0.05764 0.9762 0.0
C1563 C 0.75361 0.08696 0.81864 0.0
C1564 C 0.74679 0.08403 0.89358 0.0
H1565 H 0.76894 0.09721 0.94556 0.0
C1566 C 0.73647 0.0732 0.90737 0.0
C1567 C 0.75849 0.093 0.9078 0.0
C1568 C 0.76954 0.10547 0.89499 0.0
C1569 C 0.73758 0.07098 0.93485 0.0
C1570 C 0.74958 0.07956 0.9487 0.0
C1571 C 0.75983 0.09046 0.93491 0.0
C1572 C 0.75136 0.07812 0.97797 0.0
C1573 C 0.72575 0.05969 0.94883 0.0
C1574 C 0.75502 0.08905 0.99509 0.0
C1575 C 0.75618 0.08787 0.02274 0.0
C1576 C 0.75355 0.07566 0.03417 0.0
C1577 C 0.75039 0.06482 0.01697 0.0
C1578 C 0.74945 0.0661 0.98905 0.0
H1579 H 0.71633 0.05658 0.93761 0.0
H1580 H 0.72721 0.05094 0.95005 0.0
H1581 H 0.72459 0.06253 0.96958 0.0
H1582 H 0.75664 0.09846 0.98714 0.0
H1583 H 0.75865 0.09646 0.03524 0.0
H1584 H 0.01374 0.43724 0.65251 0.0
H1585 H 0.00708 0.43285 0.69975 0.0
H1586 H 0.01246 0.39858 0.69844 0.0
H1587 H 0.01948 0.40313 0.65134 0.0
H1588 H 0.98481 0.41048 0.71532 0.0
H1589 H 0.02831 0.41449 0.77074 0.0
H1590 H 0.0297 0.421 0.73713 0.0
H1591 H 0.02337 0.40348 0.74229 0.0
C1592 C 0.01395 0.42903 0.66254 0.0
C1593 C 0.01714 0.42053 0.64817 0.0
C1594 C 0.01005 0.42648 0.6895 0.0
C1595 C 0.00922 0.41537 0.70267 0.0
C1596 C 0.01322 0.40734 0.68889 0.0
H1597 H 0.97655 0.38103 0.86072 0.0
H1598 H 0.98248 0.3829 0.81288 0.0
C1599 C 0.01727 0.40998 0.66193 0.0
C1600 C 0.00287 0.41147 0.72967 0.0
H1601 H 0.00782 0.40525 0.79463 0.0
C1602 C 0.98987 0.40937 0.73266 0.0
C1603 C 0.0094 0.40987 0.75224 0.0
C1604 C 0.02351 0.41244 0.75058 0.0
C1605 C 0.9833 0.40586 0.75761 0.0
C1606 C 0.98989 0.40445 0.78021 0.0
C1607 C 0.00275 0.40624 0.77717 0.0
C1608 C 0.98411 0.40221 0.80763 0.0
C1609 C 0.96935 0.40368 0.75966 0.0
C1610 C 0.98264 0.41224 0.82022 0.0
C1611 C 0.97929 0.41122 0.84748 0.0
C1612 C 0.97732 0.40012 0.86266 0.0
C1613 C 0.97786 0.38963 0.84953 0.0
C1614 C 0.98137 0.39074 0.82226 0.0
H1615 H 0.96445 0.4018 0.73962 0.0
H1616 H 0.96309 0.39515 0.77313 0.0
H1617 H 0.96978 0.41273 0.7683 0.0
H1618 H 0.98484 0.42123 0.80937 0.0
H1619 H 0.979 0.41948 0.85703 0.0
H1620 H 0.57184 0.56109 0.86078 0.0
H1621 H 0.56971 0.56503 0.81327 0.0
H1622 H 0.61174 0.59364 0.80956 0.0
H1623 H 0.61401 0.58986 0.85744 0.0
H1624 H 0.57819 0.59311 0.79487 0.0
H1625 H 0.60195 0.56828 0.74029 0.0
H1626 H 0.59485 0.56303 0.77352 0.0
H1627 H 0.6103 0.57833 0.76938 0.0
C1628 C 0.58073 0.56801 0.8498 0.0
C1629 C 0.59309 0.57523 0.86304 0.0
C1630 C 0.57946 0.57028 0.82265 0.0
C1631 C 0.59053 0.5797 0.80803 0.0
C1632 C 0.60308 0.5863 0.82056 0.0
H1633 H 0.58862 0.61448 0.65199 0.0
H1634 H 0.59236 0.61217 0.69988 0.0
C1635 C 0.60437 0.58406 0.84787 0.0
C1636 C 0.5886 0.58327 0.78042 0.0
H1637 H 0.59318 0.57905 0.71403 0.0
C1638 C 0.58155 0.59015 0.77716 0.0
C1639 C 0.59298 0.57934 0.75747 0.0
C1640 C 0.6004 0.57178 0.76008 0.0
C1641 C 0.57861 0.59305 0.75143 0.0
C1642 C 0.58281 0.58893 0.72848 0.0
C1643 C 0.59001 0.58222 0.73175 0.0
C1644 C 0.5792 0.5908 0.70083 0.0
C1645 C 0.57069 0.6001 0.74884 0.0
C1646 C 0.57023 0.57963 0.68587 0.0
C1647 C 0.56798 0.58091 0.65871 0.0
C1648 C 0.57478 0.5934 0.64582 0.0
C1649 C 0.58314 0.60474 0.66131 0.0
C1650 C 0.58536 0.60343 0.68863 0.0
H1651 H 0.56689 0.6013 0.76858 0.0
H1652 H 0.5771 0.61014 0.74002 0.0
H1653 H 0.56211 0.5945 0.73503 0.0
H1654 H 0.56532 0.56981 0.69499 0.0
H1655 H 0.56143 0.57196 0.64747 0.0
H1656 H 0.40227 0.01982 0.85932 0.0
H1657 H 0.39779 0.01244 0.81232 0.0
H1658 H 0.43451 0.01144 0.80948 0.0
H1659 H 0.43892 0.01854 0.85649 0.0
H1660 H 0.41089 0.02057 0.76252 0.0
H1661 H 0.40615 0.9726 0.79527 0.0
H1662 H 0.40696 0.98486 0.81882 0.0
H1663 H 0.42196 0.98682 0.80366 0.0
C1664 C 0.4096 0.01844 0.84844 0.0
C1665 C 0.42087 0.01961 0.86175 0.0
C1666 C 0.40697 0.01411 0.82163 0.0
C1667 C 0.41559 0.01095 0.80772 0.0
C1668 C 0.42751 0.01342 0.82011 0.0
H1669 H 0.42149 0.98232 0.65288 0.0
H1670 H 0.42325 0.98885 0.70016 0.0
C1671 C 0.43009 0.01763 0.8469 0.0
C1672 C 0.41176 0.00423 0.78108 0.0
H1673 H 0.40633 0.97605 0.74795 0.0
C1674 C 0.40977 0.01079 0.75936 0.0
C1675 C 0.41014 0.99138 0.77709 0.0
C1676 C 0.41127 0.98343 0.79999 0.0
C1677 C 0.40676 0.00508 0.73349 0.0
C1678 C 0.40557 0.99243 0.72938 0.0
C1679 C 0.40726 0.98574 0.7512 0.0
C1680 C 0.40351 0.98645 0.70216 0.0
C1681 C 0.40532 0.0128 0.71051 0.0
C1682 C 0.39154 0.98224 0.68807 0.0
C1683 C 0.39043 0.97832 0.66106 0.0
C1684 C 0.40133 0.97868 0.6477 0.0
C1685 C 0.41293 0.98196 0.66254 0.0
C1686 C 0.41398 0.98576 0.68954 0.0
H1687 H 0.40854 0.02326 0.7162 0.0
H1688 H 0.41128 0.01289 0.6929 0.0
H1689 H 0.39471 0.00788 0.70419 0.0
H1690 H 0.38327 0.98253 0.69763 0.0
H1691 H 0.38139 0.97594 0.65018 0.0
H1692 H 0.59492 0.97766 0.15102 0.0
H1693 H 0.59907 0.98351 0.19886 0.0
H1694 H 0.56346 0.98653 0.20263 0.0
H1695 H 0.55925 0.98073 0.15498 0.0
H1696 H 0.60269 0.00878 0.21768 0.0
H1697 H 0.5619 0.96588 0.27194 0.0
H1698 H 0.56697 0.96449 0.23825 0.0
H1699 H 0.55651 0.97165 0.24363 0.0
C1700 C 0.58772 0.9791 0.16226 0.0
C1701 C 0.57676 0.97874 0.14919 0.0
C1702 C 0.59018 0.98257 0.18953 0.0
C1703 C 0.58158 0.98546 0.20425 0.0
C1704 C 0.57015 0.9842 0.19172 0.0
H1705 H 0.5769 0.01525 0.35966 0.0
H1706 H 0.57467 0.00892 0.31223 0.0
C1707 C 0.56776 0.98088 0.16446 0.0
C1708 C 0.58517 0.99113 0.23177 0.0
H1709 H 0.5739 0.98612 0.29654 0.0
C1710 C 0.5965 0.00379 0.23504 0.0
C1711 C 0.57702 0.98462 0.25424 0.0
C1712 C 0.56497 0.97085 0.252 0.0
C1713 C 0.59964 0.01033 0.26008 0.0
C1714 C 0.59135 0.00391 0.28251 0.0
C1715 C 0.58019 0.99111 0.27929 0.0
C1716 C 0.59392 0.01016 0.30961 0.0
C1717 C 0.6115 0.02423 0.26204 0.0
C1718 C 0.60575 0.01357 0.32362 0.0
C1719 C 0.60715 0.01741 0.35072 0.0
C1720 C 0.59662 0.01767 0.36435 0.0
C1721 C 0.58518 0.01513 0.34974 0.0
C1722 C 0.58386 0.01143 0.32266 0.0
H1723 H 0.61451 0.02909 0.24197 0.0
H1724 H 0.60935 0.03059 0.27548 0.0
H1725 H 0.62009 0.0237 0.27054 0.0
H1726 H 0.61357 0.01247 0.31415 0.0
H1727 H 0.61601 0.01913 0.36148 0.0
H1728 H 0.00549 0.57756 0.37151 0.0
H1729 H 0.01069 0.58065 0.32393 0.0
H1730 H 0.97481 0.58227 0.30872 0.0
H1731 H 0.96988 0.57993 0.35721 0.0
H1732 H -0.00028 0.5669 0.28251 0.0
H1733 H 0.00074 0.61492 0.26948 0.0
H1734 H -0.00062 0.60754 0.30214 0.0
H1735 H 0.98487 0.60187 0.28108 0.0
C1736 C -0.0014 0.57851 0.35817 0.0
C1737 C 0.98725 0.57852 0.36829 0.0
C1738 C 0.00164 0.58032 0.33081 0.0
C1739 C 0.99332 0.58197 0.3126 0.0
C1740 C 0.98164 0.58145 0.3224 0.0
H1741 H 0.99664 0.57045 0.14204 0.0
H1742 H 0.99274 0.56844 0.19013 0.0
C1743 C 0.97872 0.57993 0.35008 0.0
C1744 C 0.99697 0.58399 0.28349 0.0
H1745 H 0.00222 0.60437 0.22951 0.0
C1746 C 0.00033 0.57516 0.27103 0.0
C1747 C 0.99809 0.59493 0.26851 0.0
C1748 C 0.99572 0.60544 0.28104 0.0
C1749 C 0.00464 0.57686 0.24419 0.0
C1750 C 0.00502 0.58733 0.22875 0.0
C1751 C 0.00185 0.59628 0.24122 0.0
C1752 C 0.00797 0.58869 0.19936 0.0
C1753 C 0.00905 0.56756 0.23296 0.0
C1754 C 0.01764 0.6009 0.18812 0.0
C1755 C 0.01975 0.60221 0.16016 0.0
C1756 C 0.01224 0.5913 0.14301 0.0
C1757 C 0.00278 0.57905 0.15451 0.0
C1758 C 0.00056 0.57783 0.18221 0.0
H1759 H 0.01293 0.56378 0.24913 0.0
H1760 H 0.00036 0.5588 0.22372 0.0
H1761 H 0.01693 0.57253 0.21744 0.0
H1762 H 0.02345 0.60947 0.20093 0.0
H1763 H 0.02702 0.6118 0.15198 0.0
H1764 H 0.41697 0.43735 0.15707 0.0
H1765 H 0.41833 0.43266 0.20456 0.0
H1766 H 0.38038 0.39639 0.19866 0.0
H1767 H 0.37891 0.40098 0.15097 0.0
H1768 H 0.40051 0.42654 0.25063 0.0
H1769 H 0.40799 0.38449 0.21973 0.0
H1770 H 0.40962 0.39716 0.19634 0.0
H1771 H 0.39339 0.3844 0.20703 0.0
C1772 C 0.40873 0.42854 0.16601 0.0
C1773 C 0.39788 0.41948 0.15015 0.0
C1774 C 0.40955 0.42586 0.19314 0.0
C1775 C 0.39961 0.41403 0.20489 0.0
C1776 C 0.38826 0.40547 0.18977 0.0
H1777 H 0.40039 0.38091 0.36289 0.0
H1778 H 0.39549 0.3832 0.31581 0.0
C1779 C 0.38737 0.40819 0.16261 0.0
C1780 C 0.4017 0.41034 0.23229 0.0
H1781 H 0.40921 0.3892 0.26609 0.0
C1782 C 0.40232 0.41833 0.25407 0.0
C1783 C 0.40406 0.39961 0.23666 0.0
C1784 C 0.40384 0.39093 0.21376 0.0
C1785 C 0.40532 0.41593 0.28014 0.0
C1786 C 0.40813 0.40548 0.28438 0.0
C1787 C 0.40716 0.39726 0.26273 0.0
C1788 C 0.41229 0.40315 0.31117 0.0
C1789 C 0.40538 0.42458 0.30295 0.0
C1790 C 0.42382 0.41326 0.32354 0.0
C1791 C 0.42665 0.41199 0.35035 0.0
C1792 C 0.41807 0.40051 0.36523 0.0
C1793 C 0.40722 0.38986 0.35198 0.0
C1794 C 0.40434 0.39119 0.32514 0.0
H1795 H 0.39949 0.42947 0.29791 0.0
H1796 H 0.40127 0.41867 0.32166 0.0
H1797 H 0.41579 0.43253 0.30698 0.0
H1798 H 0.43029 0.42242 0.31285 0.0
H1799 H 0.43515 0.42032 0.35988 0.0
H1800 H 0.35268 0.22158 0.13572 0.0
H1801 H 0.35238 0.20103 0.14767 0.0
H1802 H 0.31257 0.18486 0.1794 0.0
H1803 H 0.31269 0.20546 0.16713 0.0
H1804 H 0.3486 0.18841 0.19776 0.0
H1805 H 0.30918 0.15675 0.12406 0.0
H1806 H 0.31784 0.17474 0.12282 0.0
H1807 H 0.30483 0.16594 0.14711 0.0
C1808 C 0.34385 0.2137 0.14534 0.0
C1809 C 0.33266 0.2151 0.15032 0.0
C1810 C 0.34372 0.20196 0.15217 0.0
C1811 C 0.33239 0.19138 0.164 0.0
C1812 C 0.32132 0.19286 0.16981 0.0
H1813 H 0.31335 0.11252 0.21368 0.0
H1814 H 0.31344 0.13307 0.20261 0.0
C1815 C 0.32144 0.20464 0.16297 0.0
C1816 C 0.33224 0.17879 0.16988 0.0
H1817 H 0.31705 0.14588 0.15272 0.0
C1818 C 0.34171 0.1791 0.18793 0.0
C1819 C 0.32328 0.16672 0.15686 0.0
C1820 C 0.31326 0.16596 0.13645 0.0
C1821 C 0.34235 0.16757 0.19365 0.0
C1822 C 0.33342 0.15551 0.18057 0.0
C1823 C 0.32392 0.15519 0.16257 0.0
C1824 C 0.33341 0.14296 0.18613 0.0
C1825 C 0.35238 0.16833 0.21403 0.0
C1826 C 0.34453 0.14164 0.17997 0.0
C1827 C 0.34453 0.12986 0.18628 0.0
C1828 C 0.33337 0.11925 0.19877 0.0
C1829 C 0.32213 0.12052 0.20417 0.0
C1830 C 0.32214 0.13225 0.19785 0.0
H1831 H 0.35639 0.17749 0.22655 0.0
H1832 H 0.34785 0.1595 0.22752 0.0
H1833 H 0.36086 0.16846 0.20332 0.0
H1834 H 0.35323 0.14974 0.17045 0.0
H1835 H 0.35331 0.12914 0.1818 0.0
H1836 H 0.79336 0.10799 0.16674 0.0
H1837 H 0.81349 0.12867 0.18006 0.0
H1838 H 0.79833 0.15173 0.14125 0.0
H1839 H 0.77836 0.13126 0.1277 0.0
H1840 H 0.82474 0.15934 0.12713 0.0
H1841 H 0.81719 0.15586 0.23807 0.0
H1842 H 0.8163 0.14146 0.22232 0.0
H1843 H 0.8039 0.14598 0.2147 0.0
C1844 C 0.79428 0.11747 0.16128 0.0
C1845 C 0.78428 0.118 0.14619 0.0
C1846 C 0.80575 0.12926 0.16896 0.0
C1847 C 0.80731 0.1417 0.16179 0.0
C1848 C 0.79729 0.14222 0.14698 0.0
H1849 H 0.86844 0.22501 0.18145 0.0
H1850 H 0.84863 0.20411 0.16787 0.0
C1851 C 0.78587 0.1305 0.13931 0.0
C1852 C 0.81957 0.15424 0.16882 0.0
H1853 H 0.83757 0.1736 0.22184 0.0
C1854 C 0.82756 0.16249 0.14782 0.0
C1855 C 0.82316 0.15828 0.19583 0.0
C1856 C 0.81466 0.15001 0.21908 0.0
C1857 C 0.83919 0.17463 0.15314 0.0
C1858 C 0.84275 0.1787 0.18015 0.0
C1859 C 0.83477 0.17044 0.20114 0.0
C1860 C 0.85488 0.19137 0.18721 0.0
C1861 C 0.8477 0.18287 0.12985 0.0
C1862 C 0.86483 0.19109 0.20275 0.0
C1863 C 0.87605 0.20294 0.21064 0.0
C1864 C 0.87752 0.21533 0.2032 0.0
C1865 C 0.86761 0.21561 0.18734 0.0
C1866 C 0.85633 0.2037 0.17949 0.0
H1867 H 0.84538 0.1769 0.11107 0.0
H1868 H 0.84579 0.19122 0.12608 0.0
H1869 H 0.85846 0.18718 0.13447 0.0
H1870 H 0.86387 0.18168 0.20892 0.0
H1871 H 0.8835 0.20237 0.22283 0.0
H1872 H 0.77332 0.64382 0.17683 0.0
H1873 H 0.79434 0.64582 0.16099 0.0
H1874 H 0.81624 0.67809 0.2168 0.0
H1875 H 0.79546 0.6763 0.23244 0.0
H1876 H 0.82668 0.68346 0.16469 0.0
H1877 H 0.818 0.63444 0.20172 0.0
H1878 H 0.80503 0.63373 0.18069 0.0
H1879 H 0.80822 0.64171 0.21303 0.0
C1880 C 0.78262 0.6513 0.18575 0.0
C1881 C 0.78273 0.65987 0.20592 0.0
C1882 C 0.79459 0.65239 0.17679 0.0
C1883 C 0.8068 0.66201 0.18798 0.0
C1884 C 0.80691 0.67059 0.20798 0.0
H1885 H 0.89073 0.68679 0.16465 0.0
H1886 H 0.86962 0.68472 0.18008 0.0
C1887 C 0.79501 0.66952 0.2169 0.0
C1888 C 0.81957 0.66341 0.17864 0.0
H1889 H 0.83741 0.64726 0.17558 0.0
C1890 C 0.82906 0.67556 0.16709 0.0
C1891 C 0.82261 0.65309 0.18194 0.0
C1892 C 0.813 0.64003 0.19522 0.0
C1893 C 0.84147 0.67762 0.15836 0.0
C1894 C 0.84451 0.66731 0.16167 0.0
C1895 C 0.83502 0.65515 0.17317 0.0
C1896 C 0.85732 0.66876 0.15251 0.0
C1897 C 0.85111 0.69069 0.14515 0.0
C1898 C 0.85733 0.66033 0.13229 0.0
C1899 C 0.86929 0.66145 0.12357 0.0
C1900 C 0.8815 0.67098 0.13501 0.0
C1901 C 0.88149 0.6794 0.15539 0.0
C1902 C 0.86946 0.67827 0.16412 0.0
H1903 H 0.84614 0.69633 0.13873 0.0
H1904 H 0.8591 0.69695 0.15969 0.0
H1905 H 0.85587 0.68902 0.12729 0.0
H1906 H 0.84806 0.65291 0.12315 0.0
H1907 H 0.86893 0.65479 0.10786 0.0
H1908 H 0.11596 0.31872 0.28249 0.0
H1909 H 0.13529 0.31723 0.29695 0.0
H1910 H 0.14866 0.35262 0.34527 0.0
H1911 H 0.12914 0.35412 0.33109 0.0
H1912 H 0.16216 0.33616 0.28947 0.0
H1913 H 0.14943 0.32559 0.39797 0.0
H1914 H 0.13739 0.32401 0.37297 0.0
H1915 H 0.14954 0.34019 0.38531 0.0
C1916 C 0.12295 0.32617 0.29632 0.0
C1917 C 0.121 0.33653 0.30573 0.0
C1918 C 0.13401 0.3253 0.30452 0.0
C1919 C 0.14331 0.33472 0.32236 0.0
C1920 C 0.14145 0.34511 0.33182 0.0
H1921 H 0.21687 0.34721 0.39141 0.0
H1922 H 0.19745 0.34846 0.37666 0.0
C1923 C 0.13034 0.34599 0.32363 0.0
C1924 C 0.15512 0.33378 0.33036 0.0
H1925 H 0.17062 0.32925 0.38441 0.0
C1926 C 0.16401 0.33461 0.31021 0.0
C1927 C 0.15743 0.33172 0.35741 0.0
C1928 C 0.1479 0.3302 0.37968 0.0
C1929 C 0.17533 0.33368 0.31647 0.0
C1930 C 0.17767 0.33165 0.34353 0.0
C1931 C 0.16876 0.33079 0.36367 0.0
C1932 C 0.18955 0.33086 0.35159 0.0
C1933 C 0.18486 0.33518 0.29421 0.0
C1934 C 0.19151 0.3205 0.34237 0.0
C1935 C 0.20267 0.31975 0.35073 0.0
C1936 C 0.21196 0.32932 0.36855 0.0
C1937 C 0.20992 0.33967 0.37766 0.0
C1938 C 0.19882 0.34041 0.3693 0.0
H1939 H 0.18325 0.33965 0.2758 0.0
H1940 H 0.19537 0.34149 0.30084 0.0
H1941 H 0.18332 0.3252 0.28882 0.0
H1942 H 0.18433 0.3129 0.32902 0.0
H1943 H 0.20395 0.31163 0.3435 0.0
H1944 H 0.68633 0.89023 0.35 0.0
H1945 H 0.68539 0.86932 0.33688 0.0
H1946 H 0.64922 0.84701 0.38282 0.0
H1947 H 0.65002 0.86769 0.39589 0.0
H1948 H 0.68467 0.84937 0.37361 0.0
H1949 H 0.64003 0.82922 0.30743 0.0
H1950 H 0.64961 0.84663 0.31648 0.0
H1951 H 0.63803 0.8347 0.34006 0.0
C1952 C 0.67814 0.88086 0.35712 0.0
C1953 C 0.66824 0.88061 0.37391 0.0
C1954 C 0.67763 0.86895 0.34966 0.0
C1955 C 0.66715 0.85666 0.35865 0.0
C1956 C 0.65727 0.8564 0.37533 0.0
H1957 H 0.64577 0.77361 0.33699 0.0
H1958 H 0.6466 0.79427 0.35162 0.0
C1959 C 0.65779 0.86824 0.38287 0.0
C1960 C 0.6667 0.84406 0.35147 0.0
H1961 H 0.64802 0.81453 0.31857 0.0
C1962 C 0.67671 0.84177 0.36144 0.0
C1963 C 0.65621 0.83415 0.33587 0.0
C1964 C 0.6454 0.83629 0.32412 0.0
C1965 C 0.67643 0.82971 0.35647 0.0
C1966 C 0.666 0.81983 0.34067 0.0
C1967 C 0.65596 0.82211 0.33079 0.0
C1968 C 0.66569 0.80733 0.33299 0.0
C1969 C 0.68717 0.82756 0.36858 0.0
C1970 C 0.67609 0.80788 0.31758 0.0
C1971 C 0.67566 0.79617 0.30931 0.0
C1972 C 0.66475 0.78365 0.31608 0.0
C1973 C 0.65433 0.7831 0.33157 0.0
C1974 C 0.65478 0.79487 0.33989 0.0
H1975 H 0.69194 0.83416 0.38623 0.0
H1976 H 0.68309 0.81704 0.37499 0.0
H1977 H 0.69504 0.82992 0.35329 0.0
H1978 H 0.68445 0.81738 0.31153 0.0
H1979 H 0.68383 0.79697 0.29726 0.0
H1980 H 0.12878 0.78015 0.38761 0.0
H1981 H 0.14954 0.79964 0.3736 0.0
H1982 H 0.12735 0.81495 0.33182 0.0
H1983 H 0.10635 0.79543 0.34611 0.0
H1984 H 0.15903 0.809 0.32167 0.0
H1985 H 0.15243 0.8458 0.38189 0.0
H1986 H 0.1425 0.82805 0.3874 0.0
H1987 H 0.13893 0.83562 0.35946 0.0
C1988 C 0.12826 0.78763 0.3754 0.0
C1989 C 0.11591 0.7863 0.36809 0.0
C1990 C 0.14016 0.79875 0.3674 0.0
C1991 C 0.13996 0.80879 0.35203 0.0
C1992 C 0.12768 0.80739 0.34411 0.0
H1993 H 0.20194 0.88327 0.28806 0.0
H1994 H 0.18106 0.86376 0.30154 0.0
C1995 C 0.11571 0.79622 0.35213 0.0
C1996 C 0.15271 0.82069 0.34447 0.0
H1997 H 0.17136 0.85434 0.35358 0.0
C1998 C 0.16175 0.81893 0.32864 0.0
C1999 C 0.15621 0.83357 0.35377 0.0
C2000 C 0.14708 0.83593 0.37176 0.0
C2001 C 0.17418 0.82977 0.32147 0.0
C2002 C 0.17768 0.84265 0.3308 0.0
C2003 C 0.16863 0.84442 0.34659 0.0
C2004 C 0.19048 0.85453 0.32344 0.0
C2005 C 0.18332 0.82742 0.30353 0.0
C2006 C 0.2027 0.85589 0.33171 0.0
C2007 C 0.21473 0.86707 0.32401 0.0
C2008 C 0.21466 0.87705 0.30801 0.0
C2009 C 0.20236 0.87574 0.3003 0.0
C2010 C 0.1904 0.86461 0.308 0.0
H2011 H 0.17798 0.81756 0.29337 0.0
H2012 H 0.18793 0.83531 0.28792 0.0
H2013 H 0.19145 0.82771 0.31588 0.0
H2014 H 0.20293 0.84829 0.34405 0.0
H2015 H 0.22404 0.86784 0.33032 0.0
H2016 H 0.67457 0.87815 0.77252 0.0
H2017 H 0.67655 0.85908 0.78692 0.0
H2018 H 0.64261 0.84641 0.83931 0.0
H2019 H 0.64048 0.86554 0.82489 0.0
H2020 H 0.68006 0.85245 0.84095 0.0
H2021 H 0.63372 0.81313 0.79221 0.0
H2022 H 0.6414 0.83051 0.78296 0.0
H2023 H 0.63185 0.82468 0.81343 0.0
C2024 C 0.66748 0.87131 0.78707 0.0
C2025 C 0.65732 0.87332 0.7975 0.0
C2026 C 0.66866 0.86044 0.79529 0.0
C2027 C 0.65965 0.85131 0.81393 0.0
C2028 C 0.64954 0.85328 0.8246 0.0
H2029 H 0.64955 0.77941 0.88603 0.0
H2030 H 0.64795 0.79856 0.87089 0.0
C2031 C 0.64837 0.86423 0.81644 0.0
C2032 C 0.66103 0.83981 0.82228 0.0
H2033 H 0.6457 0.8059 0.81922 0.0
C2034 C 0.67258 0.84226 0.8362 0.0
C2035 C 0.65125 0.82658 0.81588 0.0
C2036 C 0.63889 0.82349 0.80011 0.0
C2037 C 0.6745 0.83175 0.84444 0.0
C2038 C 0.66472 0.81851 0.83804 0.0
C2039 C 0.65319 0.81608 0.82399 0.0
C2040 C 0.66592 0.80694 0.84682 0.0
C2041 C 0.6868 0.8349 0.86053 0.0
C2042 C 0.67651 0.80523 0.83803 0.0
C2043 C 0.6775 0.79427 0.84677 0.0
C2044 C 0.66785 0.78482 0.86423 0.0
C2045 C 0.65717 0.7865 0.8726 0.0
C2046 C 0.65622 0.79744 0.86396 0.0
H2047 H 0.69164 0.84512 0.8691 0.0
H2048 H 0.68432 0.82766 0.87724 0.0
H2049 H 0.69412 0.83421 0.84719 0.0
H2050 H 0.68396 0.81234 0.82436 0.0
H2051 H 0.6858 0.79319 0.83989 0.0
H2052 H 0.10911 0.79818 0.80512 0.0
H2053 H 0.12964 0.81873 0.81584 0.0
H2054 H 0.14736 0.79591 0.84425 0.0
H2055 H 0.12669 0.77514 0.83377 0.0
H2056 H 0.15178 0.81786 0.8779 0.0
H2057 H 0.16398 0.83286 0.77077 0.0
H2058 H 0.14756 0.82909 0.78083 0.0
H2059 H 0.15179 0.81612 0.78076 0.0
C2060 C 0.11733 0.79748 0.81378 0.0
C2061 C 0.11632 0.78502 0.8184 0.0
C2062 C 0.12908 0.80926 0.81974 0.0
C2063 C 0.14008 0.80882 0.83027 0.0
C2064 C 0.13898 0.79642 0.83589 0.0
H2065 H 0.22022 0.86812 0.87504 0.0
H2066 H 0.19939 0.84773 0.86516 0.0
C2067 C 0.12718 0.78459 0.82995 0.0
C2068 C 0.15273 0.82135 0.83518 0.0
H2069 H 0.17732 0.84891 0.80361 0.0
C2070 C 0.15742 0.82463 0.86168 0.0
C2071 C 0.15999 0.83015 0.81392 0.0
C2072 C 0.15567 0.82686 0.78493 0.0
C2073 C 0.1691 0.83663 0.86759 0.0
C2074 C 0.17637 0.84543 0.84633 0.0
C2075 C 0.17167 0.84216 0.81983 0.0
C2076 C 0.18911 0.85787 0.85116 0.0
C2077 C 0.17347 0.83991 0.89656 0.0
C2078 C 0.19036 0.87034 0.84559 0.0
C2079 C 0.20233 0.88208 0.85108 0.0
C2080 C 0.21321 0.88149 0.86207 0.0
C2081 C 0.212 0.86895 0.86677 0.0
C2082 C 0.20008 0.85726 0.86129 0.0
H2083 H 0.16516 0.83394 0.91074 0.0
H2084 H 0.18155 0.83764 0.9006 0.0
H2085 H 0.1774 0.85066 0.90073 0.0
H2086 H 0.182 0.87097 0.83752 0.0
H2087 H 0.20297 0.89159 0.84722 0.0
H2088 H 0.12685 0.34677 0.89149 0.0
H2089 H 0.14733 0.34774 0.87627 0.0
H2090 H 0.12436 0.31218 0.82897 0.0
H2091 H 0.10366 0.31116 0.84398 0.0
H2092 H 0.15459 0.32808 0.88363 0.0
H2093 H 0.15215 0.33897 0.77536 0.0
H2094 H 0.14217 0.34102 0.80078 0.0
H2095 H 0.13756 0.32467 0.7886 0.0
C2096 C 0.1261 0.33917 0.87772 0.0
C2097 C 0.11362 0.32889 0.86887 0.0
C2098 C 0.13783 0.33975 0.86909 0.0
C2099 C 0.13734 0.33012 0.85135 0.0
C2100 C 0.12492 0.31983 0.84237 0.0
H2101 H 0.1981 0.31758 0.7799 0.0
H2102 H 0.17742 0.3163 0.79474 0.0
C2103 C 0.11313 0.31923 0.85103 0.0
C2104 C 0.1499 0.33075 0.84296 0.0
H2105 H 0.16971 0.33533 0.78852 0.0
C2106 C 0.15793 0.32968 0.86285 0.0
C2107 C 0.15418 0.33287 0.81586 0.0
C2108 C 0.14615 0.33456 0.79388 0.0
C2109 C 0.17009 0.33048 0.85629 0.0
C2110 C 0.17441 0.33266 0.82919 0.0
C2111 C 0.16636 0.3337 0.80929 0.0
C2112 C 0.18708 0.3335 0.82087 0.0
C2113 C 0.17807 0.32871 0.87829 0.0
C2114 C 0.19939 0.34368 0.83059 0.0
C2115 C 0.2113 0.34443 0.8222 0.0
C2116 C 0.21103 0.33507 0.80382 0.0
C2117 C 0.19866 0.32495 0.7941 0.0
C2118 C 0.18682 0.32419 0.80251 0.0
H2119 H 0.17192 0.32396 0.89649 0.0
H2120 H 0.18234 0.32253 0.87119 0.0
H2121 H 0.18645 0.33862 0.88421 0.0
H2122 H 0.1998 0.3511 0.84442 0.0
H2123 H 0.22067 0.35238 0.82991 0.0
H2124 H 0.87819 0.67479 0.73699 0.0
H2125 H 0.85917 0.67665 0.7218 0.0
H2126 H 0.84806 0.6439 0.66689 0.0
H2127 H 0.86714 0.64187 0.68216 0.0
H2128 H 0.85368 0.6814 0.6685 0.0
H2129 H 0.81353 0.63342 0.71017 0.0
H2130 H 0.83069 0.64089 0.72096 0.0
H2131 H 0.82562 0.63229 0.6893 0.0
C2132 C 0.8717 0.66792 0.72174 0.0
C2133 C 0.87415 0.65813 0.71082 0.0
C2134 C 0.86084 0.66903 0.71308 0.0
C2135 C 0.85217 0.66034 0.69346 0.0
C2136 C 0.85456 0.65057 0.68237 0.0
H2137 H 0.78174 0.65193 0.61639 0.0
H2138 H 0.8007 0.65005 0.63185 0.0
C2139 C 0.86548 0.64946 0.69101 0.0
C2140 C 0.84077 0.66176 0.68443 0.0
H2141 H 0.80678 0.64598 0.68372 0.0
C2142 C 0.84341 0.67368 0.67184 0.0
C2143 C 0.82743 0.65167 0.68894 0.0
C2144 C 0.82407 0.63887 0.70327 0.0
C2145 C 0.83302 0.67571 0.66317 0.0
C2146 C 0.81967 0.66563 0.66773 0.0
C2147 C 0.81704 0.6537 0.68036 0.0
C2148 C 0.80825 0.66701 0.65864 0.0
C2149 C 0.83642 0.68847 0.64865 0.0
C2150 C 0.80615 0.67714 0.66881 0.0
C2151 C 0.79529 0.67829 0.65993 0.0
C2152 C 0.78635 0.66926 0.6409 0.0
C2153 C 0.78844 0.65907 0.63105 0.0
C2154 C 0.79927 0.65795 0.63986 0.0
H2155 H 0.84687 0.69369 0.64119 0.0
H2156 H 0.82962 0.68649 0.63132 0.0
H2157 H 0.83526 0.69527 0.66273 0.0
H2158 H 0.81285 0.68408 0.68372 0.0
H2159 H 0.79389 0.6862 0.66797 0.0
H2160 H 0.31329 0.20013 0.71649 0.0
H2161 H 0.31293 0.17961 0.70388 0.0
H2162 H 0.35164 0.20253 0.66691 0.0
H2163 H 0.35218 0.22326 0.67978 0.0
H2164 H 0.31495 0.17031 0.65266 0.0
H2165 H 0.35637 0.17795 0.72067 0.0
H2166 H 0.34794 0.18745 0.72374 0.0
H2167 H 0.36012 0.19138 0.69771 0.0
C2168 C 0.32174 0.20085 0.7056 0.0
C2169 C 0.33282 0.21333 0.69928 0.0
C2170 C 0.32149 0.1891 0.69839 0.0
C2171 C 0.33233 0.18957 0.68485 0.0
C2172 C 0.34328 0.20199 0.6778 0.0
H2173 H 0.34878 0.12861 0.63015 0.0
H2174 H 0.34935 0.1493 0.64214 0.0
C2175 C 0.34353 0.2138 0.685 0.0
C2176 C 0.33209 0.17699 0.6784 0.0
H2177 H 0.34735 0.15897 0.69248 0.0
C2178 C 0.32202 0.1678 0.66135 0.0
C2179 C 0.3413 0.17378 0.68992 0.0
C2180 C 0.35199 0.18308 0.70922 0.0
C2181 C 0.32102 0.15552 0.65516 0.0
C2182 C 0.3302 0.15228 0.66676 0.0
C2183 C 0.34029 0.16149 0.68376 0.0
C2184 C 0.32983 0.1396 0.66064 0.0
C2185 C 0.31034 0.14624 0.63581 0.0
C2186 C 0.31874 0.12727 0.66762 0.0
C2187 C 0.31836 0.11536 0.66076 0.0
C2188 C 0.32909 0.11564 0.64693 0.0
C2189 C 0.34032 0.12803 0.64071 0.0
C2190 C 0.34069 0.13989 0.64755 0.0
H2191 H 0.30615 0.15145 0.62404 0.0
H2192 H 0.31433 0.14169 0.62157 0.0
H2193 H 0.30208 0.13807 0.64732 0.0
H2194 H 0.31037 0.12687 0.6782 0.0
H2195 H 0.3096 0.10597 0.6659 0.0
H2196 H 0.86672 0.21795 0.62693 0.0
H2197 H 0.84601 0.19803 0.63961 0.0
H2198 H 0.86842 0.18125 0.67488 0.0
H2199 H 0.88933 0.20136 0.66259 0.0
H2200 H 0.83763 0.17237 0.62244 0.0
H2201 H 0.84157 0.17594 0.73395 0.0
H2202 H 0.8519 0.18981 0.71217 0.0
H2203 H 0.85574 0.17673 0.71737 0.0
C2204 C 0.86729 0.2101 0.63764 0.0
C2205 C 0.87967 0.21122 0.64379 0.0
C2206 C 0.85543 0.19871 0.64482 0.0
C2207 C 0.85569 0.18823 0.65835 0.0
C2208 C 0.86802 0.18935 0.66486 0.0
H2209 H 0.79552 0.10979 0.70875 0.0
H2210 H 0.81601 0.13001 0.69625 0.0
C2211 C 0.87994 0.20081 0.65775 0.0
C2212 C 0.84301 0.17591 0.6644 0.0
H2213 H 0.82392 0.15592 0.71576 0.0
C2214 C 0.83459 0.16878 0.64284 0.0
C2215 C 0.83909 0.17132 0.69104 0.0
C2216 C 0.84748 0.17889 0.71501 0.0
C2217 C 0.82243 0.15702 0.64719 0.0
C2218 C 0.81856 0.1524 0.6738 0.0
C2219 C 0.82695 0.15953 0.69536 0.0
C2220 C 0.806 0.13996 0.67977 0.0
C2221 C 0.81396 0.14947 0.62328 0.0
C2222 C 0.79357 0.13885 0.67443 0.0
C2223 C 0.78178 0.12725 0.68152 0.0
C2224 C 0.78229 0.11666 0.69418 0.0
C2225 C 0.79477 0.11777 0.69904 0.0
C2226 C 0.80651 0.12932 0.69197 0.0
H2227 H 0.81964 0.15277 0.6041 0.0
H2228 H 0.80996 0.13859 0.62569 0.0
H2229 H 0.80537 0.1512 0.6218 0.0
H2230 H 0.79301 0.14706 0.66535 0.0
H2231 H 0.77231 0.12672 0.67766 0.0
H2232 H 0.98462 0.4483 0.56321 0.0
H2233 H 0.98275 0.46741 0.54879 0.0
H2234 H 0.01918 0.48226 0.50326 0.0
H2235 H 0.02104 0.46293 0.51727 0.0
H2236 H 0.00041 0.49396 0.5582 0.0
H2237 H 0.99339 0.48336 0.44849 0.0
H2238 H 0.99177 0.47107 0.47288 0.0
H2239 H 0.00801 0.48393 0.46226 0.0
C2240 C 0.99222 0.45557 0.54999 0.0
C2241 C 0.00298 0.4541 0.54131 0.0
C2242 C 0.99112 0.4665 0.5418 0.0
C2243 C 0.00073 0.47615 0.52475 0.0
C2244 C 0.01152 0.47476 0.51603 0.0
H2245 H 0.01472 0.55103 0.46128 0.0
H2246 H 0.01556 0.53131 0.47538 0.0
C2247 C 0.01261 0.46377 0.52414 0.0
C2248 C -0.00041 0.48787 0.51692 0.0
H2249 H 0.99647 0.50428 0.46283 0.0
C2250 C -0.00052 0.4962 0.53736 0.0
C2251 C -0.00168 0.49069 0.48973 0.0
C2252 C 0.99775 0.48174 0.46706 0.0
C2253 C -0.00157 0.50746 0.53129 0.0
C2254 C 0.99729 0.51034 0.50411 0.0
C2255 C 0.99733 0.50199 0.48367 0.0
C2256 C 0.99665 0.52232 0.49629 0.0
C2257 C -0.00114 0.51638 0.5539 0.0
C2258 C 0.98569 0.52375 0.50339 0.0
C2259 C 0.98516 0.53506 0.49535 0.0
C2260 C 0.99558 0.54505 0.48004 0.0
C2261 C 0.00653 0.54354 0.47309 0.0
C2262 C 0.00703 0.53227 0.48107 0.0
H2263 H 0.00239 0.51424 0.57306 0.0
H2264 H 0.0055 0.52703 0.54864 0.0
H2265 H 0.98869 0.5148 0.55727 0.0
H2266 H 0.97749 0.51605 0.51486 0.0
H2267 H 0.97657 0.53592 0.5009 0.0
H2268 H 0.53557 0.55689 0.50965 0.0
H2269 H 0.51629 0.53575 0.49505 0.0
H2270 H 0.52895 0.51408 0.54629 0.0
H2271 H 0.54806 0.53498 0.56105 0.0
H2272 H 0.51639 0.51324 0.47042 0.0
H2273 H 0.4898 0.50024 0.56855 0.0
H2274 H 0.50298 0.5169 0.5606 0.0
H2275 H 0.50694 0.50433 0.57035 0.0
C2276 C 0.53422 0.54761 0.5178 0.0
C2277 C 0.54329 0.54761 0.5366 0.0
C2278 C 0.52322 0.53558 0.50946 0.0
C2279 C 0.52112 0.52342 0.51997 0.0
C2280 C 0.53027 0.52339 0.53837 0.0
H2281 H 0.46138 0.43981 0.49767 0.0
H2282 H 0.48098 0.46085 0.51157 0.0
C2283 C 0.54123 0.53536 0.54666 0.0
C2284 C 0.50951 0.51066 0.51142 0.0
H2285 H 0.48144 0.48337 0.53503 0.0
C2286 C 0.50869 0.50673 0.48446 0.0
C2287 C 0.49957 0.50218 0.52991 0.0
C2288 C 0.49975 0.50614 0.55893 0.0
C2289 C 0.49827 0.4944 0.47554 0.0
C2290 C 0.48831 0.48593 0.49402 0.0
C2291 C 0.48914 0.48986 0.52099 0.0
C2292 C 0.47665 0.47319 0.48549 0.0
C2293 C 0.49815 0.49043 0.44654 0.0
C2294 C 0.46769 0.47324 0.46659 0.0
C2295 C 0.45657 0.46132 0.45865 0.0
C2296 C 0.45412 0.44909 0.46962 0.0
C2297 C 0.46303 0.44906 0.48881 0.0
C2298 C 0.4742 0.46105 0.49676 0.0
H2299 H 0.50819 0.49614 0.43719 0.0
H2300 H 0.49466 0.47962 0.44481 0.0
H2301 H 0.49122 0.49253 0.4349 0.0
H2302 H 0.46924 0.48253 0.45811 0.0
H2303 H 0.44987 0.46171 0.44395 0.0
H2304 H 0.5356 0.98713 0.444 0.0
H2305 H 0.51481 0.98542 0.45939 0.0
H2306 H 0.53668 0.01778 0.51502 0.0
H2307 H 0.5577 0.0197 0.49947 0.0
H2308 H 0.5044 0.98026 0.51187 0.0
H2309 H 0.51302 0.02904 0.47342 0.0
H2310 H 0.52272 0.02165 0.46227 0.0
H2311 H 0.52604 0.02982 0.49442 0.0
C2312 C 0.53604 0.99394 0.45945 0.0
C2313 C 0.54831 0.00359 0.47048 0.0
C2314 C 0.52413 0.99292 0.46823 0.0
C2315 C 0.52423 0.00155 0.4881 0.0
C2316 C 0.53643 0.01117 0.49932 0.0
H2317 H 0.46229 0.0094 0.56736 0.0
H2318 H 0.48313 0.01127 0.55188 0.0
C2319 C 0.54841 0.01221 0.49052 0.0
C2320 C 0.51146 0.0002 0.49731 0.0
H2321 H 0.49363 0.01636 0.49967 0.0
C2322 C 0.50201 0.98813 0.50918 0.0
C2323 C 0.50841 0.01049 0.49364 0.0
C2324 C 0.51801 0.02345 0.48005 0.0
C2325 C 0.48962 0.98613 0.51791 0.0
C2326 C 0.48656 0.99641 0.51422 0.0
C2327 C 0.49602 0.00849 0.50236 0.0
C2328 C 0.47377 0.99503 0.52337 0.0
C2329 C 0.48003 0.97317 0.53155 0.0
C2330 C 0.46158 0.98532 0.51227 0.0
C2331 C 0.44957 0.98419 0.52113 0.0
C2332 C 0.44962 0.99281 0.54111 0.0
C2333 C 0.46188 0.00258 0.55197 0.0
C2334 C 0.47383 0.00369 0.54314 0.0
H2335 H 0.48506 0.96764 0.53833 0.0
H2336 H 0.47526 0.97496 0.54922 0.0
H2337 H 0.47206 0.96675 0.51714 0.0
H2338 H 0.46136 0.97869 0.49664 0.0
H2339 H 0.4403 0.97662 0.5123 0.0
H2340 H 0.4613 0.02067 0.99933 0.0
H2341 H 0.47997 0.0183 0.01609 0.0
H2342 H 0.47158 0.98815 0.95617 0.0
H2343 H 0.45295 0.99031 0.93954 0.0
H2344 H 0.475 0.98101 0.00836 0.0
H2345 H 0.51628 0.03113 0.979 0.0
H2346 H 0.5033 0.0311 0.99891 0.0
H2347 H 0.49962 0.02417 0.96556 0.0
C2348 C 0.46349 0.01359 0.98967 0.0
C2349 C 0.45567 0.0057 0.96809 0.0
C2350 C 0.47417 0.01229 0.99918 0.0
C2351 C 0.47721 0.00314 0.98715 0.0
C2352 C 0.46941 0.99528 0.96566 0.0
H2353 H 0.53575 0.97778 0.01294 0.0
H2354 H 0.517 0.98011 0.99657 0.0
C2355 C 0.45877 0.99656 0.95618 0.0
C2356 C 0.48829 0.00145 0.99719 0.0
H2357 H 0.52212 0.0175 1.00436 0.0
C2358 C 0.48531 0.98897 0.00747 0.0
C2359 C 0.50171 0.01186 0.99587 0.0
C2360 C 0.50549 0.0253 0.98404 0.0
C2361 C 0.49541 0.98666 0.01688 0.0
C2362 C 0.50882 0.99706 0.01554 0.0
C2363 C 0.5118 0.00955 1.00528 0.0
C2364 C 0.51993 0.99535 0.02543 0.0
C2365 C 0.49162 0.97322 0.02872 0.0
C2366 C 0.52784 0.00328 0.04674 0.0
C2367 C 0.53853 0.00203 0.05599 0.0
C2368 C 0.54156 0.99284 0.04401 0.0
C2369 C 0.53361 0.98488 0.02264 0.0
C2370 C 0.52288 0.98616 0.01336 0.0
H2371 H 0.48085 0.96744 0.03393 0.0
H2372 H 0.49372 0.96738 0.01377 0.0
H2373 H 0.49756 0.97434 0.0471 0.0
H2374 H 0.52573 0.01045 0.05627 0.0
H2375 H 0.54445 0.00833 0.07248 0.0
H2376 H 0.98229 0.53511 0.05481 0.0
H2377 H 0.98102 0.51442 0.04025 0.0
H2378 H 0.01639 0.53668 0.99204 0.0
H2379 H 0.01776 0.55763 0.00651 0.0
H2380 H 0.9939 0.51405 0.96578 0.0
H2381 H 0.00648 0.50089 0.06487 0.0
H2382 H 0.99347 0.50506 0.06576 0.0
H2383 H 0.01013 0.51759 0.05669 0.0
C2384 C 0.98984 0.53567 0.04112 0.0
C2385 C 0.00017 0.54803 0.03188 0.0
C2386 C 0.98911 0.52381 0.03295 0.0
C2387 C -0.00128 0.52406 0.01546 0.0
C2388 C 0.00894 0.53634 0.00575 0.0
H2389 H 0.00862 0.46225 0.94034 0.0
H2390 H 0.01023 0.48316 0.95434 0.0
C2391 C 0.00971 0.54826 0.01401 0.0
C2392 C 0.99783 0.51141 0.00701 0.0
H2393 H -0.00154 0.48413 0.03114 0.0
C2394 C 0.99499 0.50754 0.97997 0.0
C2395 C -0.00085 0.50293 0.02571 0.0
C2396 C 0.00258 0.50684 0.05485 0.0
C2397 C 0.99318 0.49522 0.97118 0.0
C2398 C 0.99451 0.48674 0.98988 0.0
C2399 C 0.99738 0.49064 0.01691 0.0
C2400 C 0.99341 0.47396 0.98157 0.0
C2401 C 0.98957 0.49129 0.9421 0.0
C2402 C 0.98364 0.46186 0.99287 0.0
C2403 C 0.98274 0.44982 0.98505 0.0
C2404 C 0.99165 0.44975 0.96593 0.0
C2405 C 0.00152 0.46193 0.95497 0.0
C2406 C 0.00242 0.47391 0.96281 0.0
H2407 H 0.98529 0.49699 0.93249 0.0
H2408 H -0.00131 0.49342 0.93077 0.0
H2409 H 0.98226 0.48047 0.94024 0.0
H2410 H 0.97667 0.46174 0.00758 0.0
H2411 H 0.97507 0.4406 0.9939 0.0
H2412 H 0.46081 0.45399 0.07623 0.0
H2413 H 0.48165 0.4729 0.0606 0.0
H2414 H 0.46015 0.48185 1.00101 0.0
H2415 H 0.43908 0.46287 0.0167 0.0
H2416 H 0.49219 0.47672 0.0076 0.0
H2417 H 0.48368 0.5178 0.04038 0.0
H2418 H 0.47409 0.50104 0.05337 0.0
H2419 H 0.47062 0.50495 0.02043 0.0
C2420 C 0.46045 0.46001 0.05989 0.0
C2421 C 0.44827 0.45695 0.04771 0.0
C2422 C 0.47239 0.4708 0.05099 0.0
C2423 C 0.47241 0.47881 0.02985 0.0
C2424 C 0.46029 0.47587 0.01764 0.0
H2425 H 0.53418 0.54677 0.94633 0.0
H2426 H 0.51341 0.52817 0.96303 0.0
C2427 C 0.44829 0.46502 0.02654 0.0
C2428 C 0.48522 0.48997 0.0202 0.0
H2429 H 0.50315 0.52385 0.01486 0.0
C2430 C 0.49463 0.48704 0.00921 0.0
C2431 C 0.48831 0.50338 0.02245 0.0
C2432 C 0.47871 0.50706 0.03498 0.0
C2433 C 0.50702 0.49719 0.99992 0.0
C2434 C 0.51014 0.51061 1.0022 0.0
C2435 C 0.50072 0.51354 0.01325 0.0
C2436 C 0.5229 0.52177 0.99228 0.0
C2437 C 0.51653 0.49345 0.98714 0.0
C2438 C 0.53515 0.52439 1.00335 0.0
C2439 C 0.54712 0.53504 0.99375 0.0
C2440 C 0.54697 0.54326 0.97309 0.0
C2441 C 0.53466 0.54063 0.96226 0.0
C2442 C 0.52276 0.53001 0.97179 0.0
H2443 H 0.51143 0.48277 0.98121 0.0
H2444 H 0.52134 0.49964 0.96904 0.0
H2445 H 0.52448 0.4952 1.0018 0.0
H2446 H 0.53543 0.51827 0.01954 0.0
H2447 H 0.55644 0.53687 1.00258 0.0
H2448 H 0.39338 0.04487 0.97852 0.0
H2449 H 0.3892 0.05581 0.01622 0.0
H2450 H 0.42108 0.05576 0.06101 0.0
H2451 H 0.42542 0.04485 0.02315 0.0
H2452 H 0.38155 0.04385 0.06671 0.0
H2453 H 0.42718 0.09369 0.0743 0.0
H2454 H 0.4229 0.0836 0.0442 0.0
H2455 H 0.43001 0.07978 0.07258 0.0
C2456 C 0.3997 0.04741 0.99615 0.0
C2457 C 0.40972 0.04393 0.99782 0.0
C2458 C 0.39728 0.05367 0.01772 0.0
C2459 C 0.40486 0.05668 0.04141 0.0
C2460 C 0.41525 0.05374 0.04278 0.0
H2461 H 0.37832 0.06418 0.20004 0.0
H2462 H 0.38916 0.05998 0.16208 0.0
C2463 C 0.41768 0.04745 0.02114 0.0
C2464 C 0.4009 0.06157 0.06545 0.0
H2465 H 0.41144 0.08747 0.11 0.0
C2466 C 0.38809 0.05341 0.0761 0.0
C2467 C 0.40942 0.07405 0.07766 0.0
C2468 C 0.42311 0.08338 0.06654 0.0
C2469 C 0.3836 0.05731 0.0987 0.0
C2470 C 0.39217 0.06968 0.11119 0.0
C2471 C 0.40494 0.07795 0.10046 0.0
C2472 C 0.38779 0.07399 0.13538 0.0
C2473 C 0.36965 0.04821 0.10902 0.0
C2474 C 0.38388 0.08365 0.13326 0.0
C2475 C 0.37764 0.08608 0.15497 0.0
C2476 C 0.37522 0.07889 0.17917 0.0
C2477 C 0.37996 0.06986 0.18171 0.0
C2478 C 0.38616 0.06743 0.16002 0.0
H2479 H 0.36354 0.04012 0.09452 0.0
H2480 H 0.37019 0.04357 0.12819 0.0
H2481 H 0.36453 0.05396 0.1132 0.0
H2482 H 0.38504 0.0888 0.11437 0.0
H2483 H 0.37412 0.09309 0.15232 0.0
H2484 H 0.90904 0.28212 0.14939 0.0
H2485 H 0.9134 0.29774 0.11231 0.0
H2486 H 0.93007 0.33055 0.16848 0.0
H2487 H 0.92627 0.31506 0.20539 0.0
H2488 H 0.90693 0.3163 0.09818 0.0
H2489 H 0.96121 0.34116 0.11931 0.0
H2490 H 0.94933 0.32593 0.13576 0.0
H2491 H 0.95172 0.34172 0.14731 0.0
C2492 C 0.91344 0.29264 0.15389 0.0
C2493 C 0.91749 0.29739 0.18025 0.0
C2494 C 0.91595 0.30157 0.13266 0.0
C2495 C 0.92244 0.31538 0.13746 0.0
C2496 C 0.92547 0.32 0.16411 0.0
H2497 H 0.95598 0.38354 0.02742 0.0
H2498 H 0.94479 0.36905 0.06615 0.0
C2499 C 0.92319 0.31112 0.18524 0.0
C2500 C 0.92679 0.32494 0.1145 0.0
H2501 H 0.95441 0.3508 0.08546 0.0
C2502 C 0.9173 0.32386 0.09545 0.0
C2503 C 0.94037 0.33476 0.11072 0.0
C2504 C 0.95126 0.3359 0.12919 0.0
C2505 C 0.92104 0.33234 0.07289 0.0
C2506 C 0.93456 0.34216 0.06934 0.0
C2507 C 0.944 0.34337 0.08848 0.0
C2508 C 0.93942 0.35071 0.045 0.0
C2509 C 0.91054 0.33078 0.05293 0.0
C2510 C 0.93994 0.34518 0.02021 0.0
C2511 C 0.94644 0.35343 0.99818 0.0
C2512 C 0.95249 0.36737 1.00047 0.0
C2513 C 0.95136 0.37285 0.02495 0.0
C2514 C 0.94499 0.36459 0.0471 0.0
H2515 H 0.90029 0.32457 0.06108 0.0
H2516 H 0.912 0.34068 0.04709 0.0
H2517 H 0.91145 0.3259 0.03444 0.0
H2518 H 0.93586 0.33452 0.01827 0.0
H2519 H 0.94713 0.34889 0.97962 0.0
H2520 H 0.64801 0.59634 0.97362 0.0
H2521 H 0.66343 0.60011 0.01059 0.0
H2522 H 0.63014 0.57856 0.06443 0.0
H2523 H 0.61466 0.57433 0.02724 0.0
H2524 H 0.66619 0.61449 0.05316 0.0
H2525 H 0.6534 0.56419 0.08864 0.0
H2526 H 0.64749 0.56686 0.05691 0.0
H2527 H 0.6391 0.56634 0.08782 0.0
C2528 C 0.64396 0.59211 0.99318 0.0
C2529 C 0.6301 0.58502 0.99748 0.0
C2530 C 0.6528 0.5943 0.01435 0.0
C2531 C 0.64801 0.58955 0.04037 0.0
C2532 C 0.63414 0.58206 0.04449 0.0
H2533 H 0.68188 0.61593 0.19775 0.0
H2534 H 0.66745 0.60496 0.15897 0.0
C2535 C 0.62527 0.5797 0.02319 0.0
C2536 C 0.65747 0.59371 0.06352 0.0
H2537 H 0.66629 0.58235 0.11909 0.0
C2538 C 0.66632 0.60741 0.06729 0.0
C2539 C 0.65766 0.58452 0.08215 0.0
C2540 C 0.64899 0.56966 0.07854 0.0
C2541 C 0.67505 0.61218 0.08936 0.0
C2542 C 0.67498 0.60303 0.10827 0.0
C2543 C 0.6663 0.58933 0.10451 0.0
C2544 C 0.68352 0.60777 0.13264 0.0
C2545 C 0.6841 0.62701 0.09278 0.0
C2546 C 0.6973 0.61263 0.13086 0.0
C2547 C 0.70559 0.61886 0.15306 0.0
C2548 C 0.70024 0.62042 0.17733 0.0
C2549 C 0.68633 0.61493 0.17936 0.0
C2550 C 0.67806 0.60863 0.15724 0.0
H2551 H 0.68212 0.63286 0.07761 0.0
H2552 H 0.68286 0.63013 0.11323 0.0
H2553 H 0.69465 0.62949 0.09078 0.0
H2554 H 0.70169 0.61207 0.11199 0.0
H2555 H 0.71625 0.623 0.15079 0.0
H2556 H 0.06872 0.38454 0.31231 0.0
H2557 H 0.06544 0.39571 0.35094 0.0
H2558 H 0.08861 0.3843 0.40066 0.0
H2559 H 0.09209 0.37321 0.36199 0.0
H2560 H 0.0604 0.37551 0.41691 0.0
H2561 H 0.09111 0.42998 0.3975 0.0
H2562 H 0.08176 0.41956 0.36958 0.0
H2563 H 0.09522 0.41804 0.3836 0.0
C2564 C 0.07341 0.38469 0.33128 0.0
C2565 C 0.08064 0.37795 0.33409 0.0
C2566 C 0.07156 0.39112 0.35331 0.0
C2567 C 0.07684 0.39089 0.3786 0.0
C2568 C 0.08454 0.38468 0.38123 0.0
H2569 H 0.05232 0.40228 0.53811 0.0
H2570 H 0.06409 0.39846 0.50139 0.0
C2571 C 0.08654 0.37837 0.3591 0.0
C2572 C 0.07284 0.39558 0.40278 0.0
H2573 H 0.0755 0.42325 0.43333 0.0
C2574 C 0.06381 0.38596 0.42073 0.0
C2575 C 0.07714 0.40918 0.40734 0.0
C2576 C 0.08691 0.41986 0.38864 0.0
C2577 C 0.05867 0.38951 0.4428 0.0
C2578 C 0.06306 0.40316 0.44768 0.0
C2579 C 0.07221 0.41282 0.42977 0.0
C2580 C 0.05783 0.40745 0.47069 0.0
C2581 C 0.04813 0.37851 0.45993 0.0
C2582 C 0.05122 0.41467 0.46611 0.0
C2583 C 0.04476 0.41718 0.48727 0.0
C2584 C 0.0447 0.4124 0.51333 0.0
C2585 C 0.05204 0.40593 0.51818 0.0
C2586 C 0.05869 0.40365 0.49715 0.0
H2587 H 0.04319 0.36882 0.44909 0.0
H2588 H 0.05285 0.37725 0.47828 0.0
H2589 H 0.04034 0.38089 0.4662 0.0
H2590 H 0.05051 0.41782 0.44592 0.0
H2591 H 0.03918 0.42218 0.48289 0.0
H2592 H 0.57565 0.61638 0.48109 0.0
H2593 H 0.58075 0.63231 0.44426 0.0
H2594 H 0.59963 0.6649 0.50062 0.0
H2595 H 0.59503 0.64907 0.53725 0.0
H2596 H 0.57574 0.65216 0.43129 0.0
H2597 H 0.6299 0.67364 0.44988 0.0
H2598 H 0.6175 0.65867 0.46635 0.0
H2599 H 0.62114 0.67478 0.47861 0.0
C2600 C 0.5807 0.62693 0.48569 0.0
C2601 C 0.5851 0.63147 0.51203 0.0
C2602 C 0.58364 0.63604 0.4646 0.0
C2603 C 0.59093 0.64984 0.4695 0.0
C2604 C 0.59439 0.65433 0.49615 0.0
H2605 H 0.62769 0.71919 0.36331 0.0
H2606 H 0.61618 0.70434 0.40135 0.0
C2607 C 0.59165 0.64525 0.51713 0.0
C2608 C 0.59561 0.65949 0.44666 0.0
H2609 H 0.62378 0.68451 0.41737 0.0
C2610 C 0.58624 0.65923 0.42827 0.0
C2611 C 0.60935 0.66868 0.44249 0.0
C2612 C 0.62006 0.6689 0.46019 0.0
C2613 C 0.59023 0.66798 0.40608 0.0
C2614 C 0.60393 0.67721 0.4022 0.0
C2615 C 0.61326 0.67754 0.42062 0.0
C2616 C 0.60899 0.68615 0.37838 0.0
C2617 C 0.57982 0.66736 0.38698 0.0
C2618 C 0.60857 0.68085 0.35275 0.0
C2619 C 0.61523 0.6893 0.33103 0.0
C2620 C 0.6224 0.70323 0.3345 0.0
C2621 C 0.6222 0.70852 0.35989 0.0
C2622 C 0.61566 0.70005 0.38168 0.0
H2623 H 0.56962 0.66169 0.39562 0.0
H2624 H 0.58195 0.67756 0.38169 0.0
H2625 H 0.58005 0.66235 0.3681 0.0
H2626 H 0.60365 0.67016 0.34983 0.0
H2627 H 0.61519 0.68489 0.31178 0.0
H2628 H 0.34829 0.94576 0.53552 0.0
H2629 H 0.33287 0.93404 0.4986 0.0
H2630 H 0.36617 0.94485 0.44528 0.0
H2631 H 0.38164 0.95617 0.48246 0.0
H2632 H 0.33046 0.94553 0.45543 0.0
H2633 H 0.34246 0.90712 0.42209 0.0
H2634 H 0.34841 0.91591 0.4536 0.0
H2635 H 0.3569 0.92346 0.42258 0.0
C2636 C 0.35233 0.94536 0.51609 0.0
C2637 C 0.3662 0.95189 0.51193 0.0
C2638 C 0.3435 0.93867 0.49496 0.0
C2639 C 0.3483 0.93843 0.46909 0.0
C2640 C 0.36216 0.94456 0.46512 0.0
H2641 H 0.31461 0.92875 0.31058 0.0
H2642 H 0.32895 0.93232 0.34957 0.0
C2643 C 0.37102 0.95111 0.4864 0.0
C2644 C 0.33886 0.93308 0.44591 0.0
H2645 H 0.32969 0.91233 0.39121 0.0
C2646 C 0.33019 0.93812 0.44166 0.0
C2647 C 0.33849 0.92345 0.42775 0.0
C2648 C 0.34697 0.91708 0.43187 0.0
C2649 C 0.32145 0.93407 0.4196 0.0
C2650 C 0.3213 0.92469 0.4012 0.0
C2651 C 0.32984 0.91952 0.4054 0.0
C2652 C 0.31268 0.92069 0.37692 0.0
C2653 C 0.31264 0.94011 0.41565 0.0
C2654 C 0.29878 0.9126 0.3792 0.0
C2655 C 0.29053 0.91047 0.3569 0.0
C2656 C 0.29605 0.91649 0.33198 0.0
C2657 C 0.31002 0.924 0.32948 0.0
C2658 C 0.31825 0.92603 0.35172 0.0
H2659 H 0.31517 0.94849 0.42975 0.0
H2660 H 0.31352 0.9438 0.39468 0.0
H2661 H 0.30208 0.93235 0.41901 0.0
H2662 H 0.2943 0.90836 0.3985 0.0
H2663 H 0.27982 0.90466 0.35955 0.0
H2664 H 0.61418 0.93134 0.81265 0.0
H2665 H 0.60372 0.93513 0.85186 0.0
H2666 H 0.60932 0.90666 0.89747 0.0
H2667 H 0.61979 0.9027 0.85823 0.0
H2668 H 0.58067 0.91182 0.89505 0.0
H2669 H 0.63197 0.94948 0.92836 0.0
H2670 H 0.62798 0.94633 0.893 0.0
H2671 H 0.62883 0.93399 0.91329 0.0
C2672 C 0.61295 0.92565 0.83081 0.0
C2673 C 0.6179 0.91677 0.83235 0.0
C2674 C 0.60692 0.92781 0.85316 0.0
C2675 C 0.60577 0.92118 0.87748 0.0
C2676 C 0.61007 0.91181 0.87877 0.0
H2677 H 0.59847 0.94853 0.03594 0.0
H2678 H 0.60169 0.9364 0.99919 0.0
C2679 C 0.61604 0.90957 0.85634 0.0
C2680 C 0.60155 0.92526 0.90214 0.0
H2681 H 0.61409 0.94747 0.95403 0.0
C2682 C 0.58793 0.91954 0.90814 0.0
C2683 C 0.61107 0.93528 0.9191 0.0
C2684 C 0.62581 0.94171 0.91332 0.0
C2685 C 0.58359 0.92367 0.93077 0.0
C2686 C 0.59313 0.93401 0.94737 0.0
C2687 C 0.60676 0.93954 0.94142 0.0
C2688 C 0.58938 0.93957 0.97068 0.0
C2689 C 0.56886 0.91681 0.93681 0.0
C2690 C 0.58113 0.94514 0.96722 0.0
C2691 C 0.57911 0.95195 0.98841 0.0
C2692 C 0.58554 0.95352 0.0133 0.0
C2693 C 0.5934 0.94753 0.017 0.0
C2694 C 0.59527 0.9406 0.99597 0.0
H2695 H 0.5635 0.90663 0.92798 0.0
H2696 H 0.56697 0.91604 0.95884 0.0
H2697 H 0.56461 0.92264 0.92781 0.0
H2698 H 0.57673 0.9448 0.94778 0.0
H2699 H 0.5731 0.95657 0.98485 0.0
H2700 H 0.04745 0.6486 0.03242 0.0
H2701 H 0.05873 0.66349 0.99443 0.0
H2702 H 0.05015 0.62965 0.9446 0.0
H2703 H 0.03885 0.61463 0.98256 0.0
H2704 H 0.08053 0.66625 0.95594 0.0
H2705 H 0.0306 0.64888 0.90999 0.0
H2706 H 0.03264 0.64654 0.94526 0.0
H2707 H 0.03447 0.63631 0.92045 0.0
C2708 C 0.04818 0.64431 0.01355 0.0
C2709 C 0.04214 0.6304 0.01049 0.0
C2710 C 0.05466 0.65286 0.99187 0.0
C2711 C 0.05515 0.64766 0.96666 0.0
C2712 C 0.04981 0.63384 0.96388 0.0
H2713 H 0.06861 0.68594 0.8099 0.0
H2714 H 0.06507 0.67001 0.84567 0.0
C2715 C 0.04339 0.62528 0.98563 0.0
C2716 C 0.06009 0.65659 0.94282 0.0
H2717 H 0.04917 0.66526 0.88668 0.0
C2718 C 0.07372 0.66601 0.94065 0.0
C2719 C 0.05117 0.65624 0.92294 0.0
C2720 C 0.03638 0.64653 0.92467 0.0
C2721 C 0.07868 0.67507 0.91899 0.0
C2722 C 0.0697 0.67495 0.89942 0.0
C2723 C 0.05609 0.66537 0.90153 0.0
C2724 C 0.07393 0.68487 0.8771 0.0
C2725 C 0.09351 0.68455 0.91716 0.0
C2726 C 0.08044 0.69863 0.88256 0.0
C2727 C 0.08266 0.7078 0.86198 0.0
C2728 C 0.07819 0.70339 0.83562 0.0
C2729 C 0.07217 0.68968 0.82998 0.0
C2730 C 0.07011 0.68054 0.85046 0.0
H2731 H 0.0992 0.68049 0.9276 0.0
H2732 H 0.09689 0.68669 0.89589 0.0
H2733 H 0.09594 0.69408 0.92713 0.0
H2734 H 0.08319 0.70226 0.90297 0.0
H2735 H 0.08719 0.71828 0.86706 0.0
H2736 H 0.31233 0.37691 0.81249 0.0
H2737 H 0.32721 0.38756 0.85071 0.0
H2738 H 0.29456 0.38539 0.8965 0.0
H2739 H 0.2795 0.3747 0.85821 0.0
H2740 H 0.322 0.41074 0.90189 0.0
H2741 H 0.32089 0.36267 0.91846 0.0
H2742 H 0.32481 0.36929 0.88483 0.0
H2743 H 0.30852 0.36389 0.89844 0.0
C2744 C 0.30832 0.37891 0.83047 0.0
C2745 C 0.29467 0.37481 0.83238 0.0
C2746 C 0.31686 0.385 0.8523 0.0
C2747 C 0.31194 0.38712 0.87649 0.0
C2748 C 0.29853 0.38384 0.87797 0.0
H2749 H 0.34685 0.3925 0.03307 0.0
H2750 H 0.33155 0.38836 0.99575 0.0
C2751 C 0.28995 0.37772 0.85608 0.0
C2752 C 0.32049 0.39145 0.90088 0.0
H2753 H 0.33559 0.38083 0.94559 0.0
C2754 C 0.32497 0.40422 0.91155 0.0
C2755 C 0.32421 0.38286 0.91355 0.0
C2756 C 0.3193 0.36886 0.90345 0.0
C2757 C 0.3333 0.40871 0.9344 0.0
C2758 C 0.33726 0.4002 0.94667 0.0
C2759 C 0.33259 0.38737 0.93613 0.0
C2760 C 0.34616 0.40419 0.97061 0.0
C2761 C 0.33765 0.42241 0.94544 0.0
C2762 C 0.35944 0.41466 0.96916 0.0
C2763 C 0.36826 0.41709 0.9906 0.0
C2764 C 0.36396 0.40899 0.01374 0.0
C2765 C 0.35051 0.3989 0.01553 0.0
C2766 C 0.34173 0.39651 0.99419 0.0
H2767 H 0.33127 0.42637 0.93792 0.0
H2768 H 0.33739 0.42227 0.9678 0.0
H2769 H 0.34806 0.42935 0.93903 0.0
H2770 H 0.36315 0.42057 0.95099 0.0
H2771 H 0.37856 0.42489 0.98852 0.0
H2772 H 0.90684 0.62273 0.65064 0.0
H2773 H 0.9109 0.61137 0.61337 0.0
H2774 H 0.93491 0.60204 0.66559 0.0
H2775 H 0.93128 0.61379 0.70255 0.0
H2776 H 0.948 0.61345 0.6215 0.0
H2777 H 0.89763 0.57353 0.59155 0.0
H2778 H 0.89901 0.58966 0.59175 0.0
H2779 H 0.90068 0.58258 0.62278 0.0
C2780 C 0.91273 0.61799 0.65432 0.0
C2781 C 0.91877 0.61919 0.67953 0.0
C2782 C 0.91499 0.61142 0.633 0.0
C2783 C 0.92311 0.60569 0.63664 0.0
C2784 C 0.9286 0.60636 0.66221 0.0
H2785 H 0.95738 0.57155 0.52748 0.0
H2786 H 0.9463 0.57513 0.56603 0.0
C2787 C 0.92651 0.61307 0.68337 0.0
C2788 C 0.92712 0.60034 0.61333 0.0
H2789 H 0.91529 0.5788 0.55987 0.0
C2790 C 0.94081 0.60574 0.60829 0.0
C2791 C 0.91777 0.59031 0.59591 0.0
C2792 C 0.90296 0.58359 0.6009 0.0
C2793 C 0.9454 0.60162 0.58618 0.0
C2794 C 0.93609 0.59183 0.56853 0.0
C2795 C 0.9224 0.58631 0.5735 0.0
C2796 C 0.94062 0.5877 0.54431 0.0
C2797 C 0.96022 0.60798 0.5814 0.0
C2798 C 0.9407 0.59325 0.51917 0.0
C2799 C 0.94707 0.59129 0.49715 0.0
C2800 C 0.95343 0.58369 0.49985 0.0
C2801 C 0.95256 0.57742 0.52466 0.0
C2802 C 0.94625 0.57947 0.54674 0.0
H2803 H 0.96612 0.61638 0.59544 0.0
H2804 H 0.96331 0.60039 0.58413 0.0
H2805 H 0.96268 0.61172 0.5604 0.0
H2806 H 0.93643 0.59966 0.51693 0.0
H2807 H 0.94753 0.59623 0.47833 0.0
H2808 H 0.38128 0.31232 0.69932 0.0
H2809 H 0.39239 0.32683 0.66073 0.0
H2810 H 0.38124 0.29237 0.61088 0.0
H2811 H 0.37014 0.27773 0.64943 0.0
H2812 H 0.41295 0.32721 0.61807 0.0
H2813 H 0.3623 0.31418 0.5817 0.0
H2814 H 0.36553 0.31239 0.61659 0.0
H2815 H 0.36502 0.30081 0.59198 0.0
C2816 C 0.38144 0.30781 0.68032 0.0
C2817 C 0.37472 0.29385 0.67742 0.0
C2818 C 0.38783 0.31613 0.65831 0.0
C2819 C 0.38755 0.31066 0.63297 0.0
C2820 C 0.38154 0.29677 0.63031 0.0
H2821 H 0.39756 0.34737 0.47589 0.0
H2822 H 0.39394 0.33163 0.51209 0.0
C2823 C 0.37522 0.28842 0.65238 0.0
C2824 C 0.39219 0.3194 0.60889 0.0
H2825 H 0.38053 0.32939 0.55595 0.0
C2826 C 0.4059 0.32766 0.60432 0.0
C2827 C 0.38295 0.31995 0.59109 0.0
C2828 C 0.36811 0.31144 0.59547 0.0
C2829 C 0.41063 0.33644 0.58217 0.0
C2830 C 0.40137 0.3372 0.56463 0.0
C2831 C 0.38765 0.32881 0.56924 0.0
C2832 C 0.40548 0.34679 0.54174 0.0
C2833 C 0.42548 0.34463 0.57761 0.0
C2834 C 0.41348 0.36059 0.54601 0.0
C2835 C 0.41575 0.36964 0.52513 0.0
C2836 C 0.40982 0.36505 0.49974 0.0
C2837 C 0.40224 0.35123 0.49524 0.0
C2838 C 0.40014 0.34221 0.51595 0.0
H2839 H 0.43078 0.33983 0.58682 0.0
H2840 H 0.4279 0.34613 0.5558 0.0
H2841 H 0.42933 0.35454 0.58719 0.0
H2842 H 0.41744 0.36443 0.56582 0.0
H2843 H 0.42151 0.38022 0.52931 0.0
H2844 H 0.64905 0.04764 0.4809 0.0
H2845 H 0.66349 0.05914 0.51933 0.0
H2846 H 0.62925 0.05269 0.56557 0.0
H2847 H 0.61468 0.04118 0.52712 0.0
H2848 H 0.66625 0.08203 0.55514 0.0
H2849 H 0.64703 0.03269 0.60518 0.0
H2850 H 0.64546 0.03421 0.56936 0.0
H2851 H 0.635 0.03681 0.59228 0.0
C2852 C 0.64459 0.04886 0.49906 0.0
C2853 C 0.63069 0.04339 0.501 0.0
C2854 C 0.65288 0.05548 0.52098 0.0
C2855 C 0.64742 0.05666 0.54533 0.0
C2856 C 0.63364 0.05182 0.54695 0.0
H2857 H 0.68444 0.07145 0.70371 0.0
H2858 H 0.66878 0.06795 0.66737 0.0
C2859 C 0.62534 0.04528 0.52494 0.0
C2860 C 0.65601 0.0618 0.56958 0.0
H2861 H 0.66371 0.05137 0.62762 0.0
C2862 C 0.66565 0.07538 0.57116 0.0
C2863 C 0.65519 0.0531 0.59039 0.0
C2864 C 0.64519 0.03836 0.58936 0.0
C2865 C 0.67453 0.08049 0.59308 0.0
C2866 C 0.67399 0.0717 0.61355 0.0
C2867 C 0.66415 0.05815 0.61207 0.0
C2868 C 0.6838 0.07602 0.63608 0.0
C2869 C 0.68429 0.09527 0.59418 0.0
C2870 C 0.69755 0.08208 0.63085 0.0
C2871 C 0.70657 0.08429 0.65174 0.0
C2872 C 0.70199 0.08022 0.67818 0.0
C2873 C 0.6883 0.07468 0.68356 0.0
C2874 C 0.67932 0.07265 0.66277 0.0
H2875 H 0.68048 0.10099 0.58297 0.0
H2876 H 0.68641 0.09895 0.61526 0.0
H2877 H 0.69379 0.09733 0.58458 0.0
H2878 H 0.70128 0.08447 0.61043 0.0
H2879 H 0.71703 0.08843 0.64686 0.0
H2880 H 0.73513 0.71898 0.64043 0.0
H2881 H 0.73152 0.73081 0.67725 0.0
H2882 H 0.75242 0.71847 0.73153 0.0
H2883 H 0.75647 0.70702 0.6945 0.0
H2884 H 0.71685 0.71917 0.71959 0.0
H2885 H 0.76717 0.75613 0.75602 0.0
H2886 H 0.76453 0.74762 0.72422 0.0
H2887 H 0.76479 0.7396 0.75511 0.0
C2888 C 0.73926 0.71907 0.66005 0.0
C2889 C 0.74609 0.71205 0.66452 0.0
C2890 C 0.73717 0.72583 0.68114 0.0
C2891 C 0.74176 0.72566 0.70725 0.0
C2892 C 0.74904 0.71907 0.71152 0.0
H2893 H 0.71704 0.73463 0.86536 0.0
H2894 H 0.72813 0.73143 0.82647 0.0
C2895 C 0.7513 0.71245 0.69031 0.0
C2896 C 0.73761 0.73101 0.73032 0.0
H2897 H 0.74891 0.75102 0.78611 0.0
C2898 C 0.72391 0.7263 0.73385 0.0
C2899 C 0.74677 0.74027 0.74913 0.0
C2900 C 0.76164 0.7463 0.7458 0.0
C2901 C 0.71912 0.73027 0.75587 0.0
C2902 C 0.72825 0.73927 0.77494 0.0
C2903 C 0.74195 0.74413 0.77141 0.0
C2904 C 0.7235 0.74313 0.79926 0.0
C2905 C 0.70427 0.72451 0.75908 0.0
C2906 C 0.71763 0.75117 0.79707 0.0
C2907 C 0.71133 0.75308 0.81932 0.0
C2908 C 0.71071 0.7469 0.8441 0.0
C2909 C 0.71729 0.73949 0.84657 0.0
C2910 C 0.72366 0.73767 0.82437 0.0
H2911 H 0.69846 0.7162 0.74479 0.0
H2912 H 0.70114 0.72079 0.77994 0.0
H2913 H 0.70173 0.73243 0.75538 0.0
H2914 H 0.71747 0.75551 0.77786 0.0
H2915 H 0.70636 0.75883 0.8167 0.0
H2916 H 0.27764 0.01613 0.64104 0.0
H2917 H 0.26585 0.00044 0.67755 0.0
H2918 H 0.28022 0.03316 0.73377 0.0
H2919 H 0.29166 0.04892 0.69713 0.0
H2920 H 0.27777 0.99638 0.71829 0.0
H2921 H 0.24271 0.0111 0.76009 0.0
H2922 H 0.25081 0.01708 0.72794 0.0
H2923 H 0.25947 0.02485 0.7587 0.0
C2924 C 0.278 0.02002 0.66105 0.0
C2925 C 0.2856 0.03378 0.66616 0.0
C2926 C 0.27127 0.01102 0.68195 0.0
C2927 C 0.27203 0.01556 0.7085 0.0
C2928 C 0.27917 0.02937 0.71345 0.0
H2929 H 0.26367 0.98008 0.86455 0.0
H2930 H 0.26672 0.99481 0.82658 0.0
C2931 C 0.28578 0.0384 0.69245 0.0
C2932 C 0.2667 0.00581 0.73117 0.0
H2933 H 0.24757 0.99714 0.78825 0.0
C2934 C 0.271 0.99644 0.73332 0.0
C2935 C 0.25792 0.00589 0.75098 0.0
C2936 C 0.25235 0.01519 0.74919 0.0
C2937 C 0.26708 0.98744 0.75492 0.0
C2938 C 0.25854 0.9877 0.77497 0.0
C2939 C 0.2541 0.99695 0.77282 0.0
C2940 C 0.25476 0.97883 0.79888 0.0
C2941 C 0.27245 0.97796 0.75664 0.0
C2942 C 0.2466 0.96497 0.79618 0.0
C2943 C 0.24478 0.95649 0.8179 0.0
C2944 C 0.25115 0.96174 0.84268 0.0
C2945 C 0.25865 0.97569 0.84574 0.0
C2946 C 0.2604 0.98414 0.82406 0.0
H2947 H 0.28063 0.98049 0.74198 0.0
H2948 H 0.27623 0.97803 0.77723 0.0
H2949 H 0.26429 0.96767 0.75234 0.0
H2950 H 0.24208 0.96067 0.77693 0.0
H2951 H 0.23894 0.94581 0.81482 0.0
H2952 H 0.94667 0.24255 0.69775 0.0
H2953 H 0.96246 0.24723 0.73465 0.0
H2954 H 0.99508 0.26398 0.67802 0.0
H2955 H 0.97941 0.25984 0.64127 0.0
H2956 H 0.98148 0.24117 0.74862 0.0
H2957 H 0.00523 0.29529 0.7267 0.0
H2958 H 0.98999 0.28313 0.71065 0.0
H2959 H 0.00584 0.28579 0.69877 0.0
C2960 C 0.95718 0.24702 0.69311 0.0
C2961 C 0.96181 0.251 0.66666 0.0
C2962 C 0.96621 0.24972 0.71424 0.0
C2963 C 0.98001 0.25632 0.70925 0.0
C2964 C 0.98453 0.25928 0.68252 0.0
H2965 H 0.04878 0.29233 0.81736 0.0
H2966 H 0.0342 0.28068 0.77905 0.0
C2967 C 0.97555 0.2568 0.66149 0.0
C2968 C 0.98966 0.26093 0.73206 0.0
H2969 H 0.01529 0.28894 0.76049 0.0
C2970 C 0.98889 0.25161 0.75118 0.0
C2971 C -0.00072 0.27459 0.7356 0.0
C2972 C 8e-05 0.2853 0.71702 0.0
C2973 C 0.99751 0.25558 0.77355 0.0
C2974 C 0.00713 0.26919 0.77688 0.0
C2975 C 0.00801 0.27847 0.75767 0.0
C2976 C 0.01584 0.2743 0.80099 0.0
C2977 C 0.99631 0.24522 0.79351 0.0
C2978 C 0.01034 0.27439 0.82611 0.0
C2979 C 0.01864 0.28113 0.84794 0.0
C2980 C 0.0326 0.28788 0.8451 0.0
C2981 C 0.03808 0.28718 0.82028 0.0
C2982 C 0.02976 0.28055 0.79835 0.0
H2983 H 0.99047 0.23496 0.78525 0.0
H2984 H 0.00634 0.24708 0.79956 0.0
H2985 H 0.99119 0.24584 0.81188 0.0
H2986 H -0.00036 0.2698 0.82849 0.0
H2987 H 0.0141 0.28149 0.86677 0.0
H2988 H 0.28441 0.26492 0.14672 0.0
H2989 H 0.27283 0.26793 0.18495 0.0
H2990 H 0.28359 0.24429 0.23478 0.0
H2991 H 0.29518 0.24117 0.19661 0.0
H2992 H 0.25194 0.24828 0.22532 0.0
H2993 H 0.30212 0.28384 0.26688 0.0
H2994 H 0.2996 0.27906 0.23183 0.0
H2995 H 0.29909 0.26762 0.2568 0.0
C2996 C 0.28407 0.2601 0.16563 0.0
C2997 C 0.29083 0.2529 0.16866 0.0
C2998 C 0.27742 0.26182 0.18744 0.0
C2999 C 0.27747 0.25644 0.21271 0.0
C3000 C 0.28349 0.24856 0.21543 0.0
H3001 H 0.26498 0.2813 0.36993 0.0
H3002 H 0.26879 0.26927 0.3338 0.0
C3003 C 0.29008 0.24677 0.19357 0.0
C3004 C 0.27254 0.26032 0.2367 0.0
H3005 H 0.28356 0.28081 0.29151 0.0
C3006 C 0.2588 0.25532 0.23995 0.0
C3007 C 0.28154 0.26951 0.25567 0.0
C3008 C 0.29643 0.27543 0.25272 0.0
C3009 C 0.25382 0.25923 0.26188 0.0
C3010 C 0.26286 0.26868 0.28057 0.0
C3011 C 0.2766 0.27354 0.27732 0.0
C3012 C 0.25854 0.2741 0.30323 0.0
C3013 C 0.23893 0.25307 0.26495 0.0
C3014 C 0.25119 0.28055 0.29839 0.0
C3015 C 0.24881 0.28729 0.3192 0.0
C3016 C 0.25399 0.28793 0.34512 0.0
C3017 C 0.26089 0.28103 0.35017 0.0
C3018 C 0.26309 0.27416 0.32949 0.0
H3019 H 0.23352 0.24317 0.25496 0.0
H3020 H 0.23596 0.25186 0.28649 0.0
H3021 H 0.2357 0.25962 0.25524 0.0
H3022 H 0.24784 0.28097 0.27824 0.0
H3023 H 0.24358 0.29262 0.3146 0.0
H3024 H 0.72905 0.01774 0.14453 0.0
H3025 H 0.72492 0.00272 0.18247 0.0
H3026 H 0.75348 0.03572 0.23037 0.0
H3027 H 0.7577 0.05093 0.19245 0.0
H3028 H 0.75203 0.00742 0.23373 0.0
H3029 H 0.70528 0.009 0.25085 0.0
H3030 H 0.70874 0.00612 0.21693 0.0
H3031 H 0.71929 0.02192 0.23264 0.0
C3032 C 0.73469 0.0218 0.16291 0.0
C3033 C 0.74363 0.03558 0.16551 0.0
C3034 C 0.73231 0.01318 0.18456 0.0
C3035 C 0.73883 0.01813 0.20922 0.0
C3036 C 0.74838 0.03171 0.21145 0.0
H3037 H 0.70939 0.98258 0.36538 0.0
H3038 H 0.7208 0.99803 0.3284 0.0
C3039 C 0.75076 0.04038 0.18976 0.0
C3040 C 0.73452 0.00941 0.23334 0.0
H3041 H 0.70884 0.99447 0.27818 0.0
C3042 C 0.74262 0.00458 0.24355 0.0
C3043 C 0.72228 0.00584 0.24616 0.0
C3044 C 0.71338 0.01101 0.23631 0.0
C3045 C 0.73865 0.99609 0.26616 0.0
C3046 C 0.72627 0.99233 0.27867 0.0
C3047 C 0.71831 0.99733 0.26857 0.0
C3048 C 0.72126 0.98329 0.30238 0.0
C3049 C 0.74777 0.99134 0.27671 0.0
C3050 C 0.71797 0.96988 0.30032 0.0
C3051 C 0.71142 0.96096 0.32155 0.0
C3052 C 0.70797 0.9653 0.34511 0.0
C3053 C 0.71185 0.97887 0.34752 0.0
C3054 C 0.71838 0.98774 0.32637 0.0
H3055 H 0.7581 0.99748 0.26893 0.0
H3056 H 0.74804 0.99157 0.29907 0.0
H3057 H 0.74396 0.98088 0.27021 0.0
H3058 H 0.71988 0.96615 0.28184 0.0
H3059 H 0.70851 0.95057 0.31898 0.0
H3060 H 0.05133 0.75757 0.31791 0.0
H3061 H 0.03673 0.75347 0.27901 0.0
H3062 H 0.00219 0.73269 0.32998 0.0
H3063 H 0.01666 0.7366 0.36892 0.0
H3064 H 0.01652 0.72506 0.26568 0.0
H3065 H 0.9946 0.75786 0.27928 0.0
H3066 H 0.01054 0.7618 0.29349 0.0
H3067 H 0.99541 0.74906 0.30847 0.0
C3068 C 0.04063 0.75243 0.321 0.0
C3069 C 0.03516 0.74738 0.34652 0.0
C3070 C 0.03231 0.75007 0.29872 0.0
C3071 C 0.01839 0.74284 0.30165 0.0
C3072 C 0.0129 0.73843 0.32734 0.0
H3073 H 0.94962 0.70558 0.19591 0.0
H3074 H 0.96517 0.7168 0.23317 0.0
C3075 C 0.0212 0.74065 0.34956 0.0
C3076 C 0.00963 0.73845 0.27755 0.0
H3077 H 0.9854 0.7416 0.24471 0.0
C3078 C 0.0098 0.72877 0.26089 0.0
C3079 C 0.00074 0.74314 0.27172 0.0
C3080 C 0.00028 0.7536 0.28902 0.0
C3081 C 0.00113 0.72341 0.23882 0.0
C3082 C 0.99232 0.72822 0.23261 0.0
C3083 C 0.9922 0.73798 0.24929 0.0
C3084 C 0.98297 0.72292 0.20932 0.0
C3085 C 0.00114 0.71224 0.22311 0.0
C3086 C 0.98776 0.72311 0.18324 0.0
C3087 C 0.97891 0.71654 0.16207 0.0
C3088 C 0.96505 0.70992 0.16635 0.0
C3089 C 0.96024 0.71059 0.19197 0.0
C3090 C 0.96913 0.71699 0.2133 0.0
H3091 H 0.00543 0.70717 0.23503 0.0
H3092 H 0.99089 0.70468 0.21683 0.0
H3093 H 0.00735 0.7164 0.20478 0.0
H3094 H -0.00162 0.72799 0.17942 0.0
H3095 H 0.98292 0.71634 0.14248 0.0
loop_
_geom_bond_atom_site_label_1
_geom_bond_atom_site_label_2
_geom_bond_distance
_geom_bond_site_symmetry_2
_ccdc_geom_bond_type
O0 Cd1 2.223 . S
O0 C8 1.315 . S
Cd1 O0 2.223 . S
Cd1 O4 2.297 . S
Cd1 O5 2.439 . S
Cd1 O11 2.240 . S
Cd2 O3 2.240 . S
Cd2 O10 2.223 . S
Cd2 O12 2.297 . S
Cd2 O13 2.439 . S
O3 Cd2 2.240 . S
O3 C8 1.279 . S
O4 Cd1 2.297 . S
O4 C6 1.247 . S
O5 Cd1 2.439 . S
O5 C6 1.208 . S
C6 O4 1.247 . S
C6 O5 1.208 . S
C7 O12 1.247 . S
C7 O13 1.208 . S
C8 O0 1.315 . S
C8 O3 1.279 . S
C9 O10 1.315 . S
C9 O11 1.279 . S
O10 Cd2 2.223 . S
O10 C9 1.315 . S
O11 Cd1 2.240 . S
O11 C9 1.279 . S
O12 Cd2 2.297 . S
O12 C7 1.247 . S
O13 Cd2 2.439 . S
O13 C7 1.208 . S
O14 Cd15 2.223 . S
O14 C22 1.315 . S
Cd15 O14 2.223 . S
Cd15 O18 2.297 . S
Cd15 O19 2.439 . S
Cd15 O25 2.240 . S
Cd16 O17 2.240 . S
Cd16 O24 2.223 . S
Cd16 O26 2.297 . S
Cd16 O27 2.439 . S
O17 Cd16 2.240 . S
O17 C22 1.279 . S
O18 Cd15 2.297 . S
O18 C20 1.247 . S
O19 Cd15 2.439 . S
O19 C20 1.208 . S
C20 O18 1.247 . S
C20 O19 1.208 . S
C21 O26 1.247 . S
C21 O27 1.208 . S
C22 O14 1.315 . S
C22 O17 1.279 . S
C23 O24 1.315 . S
C23 O25 1.279 . S
O24 Cd16 2.223 . S
O24 C23 1.315 . S
O25 Cd15 2.240 . S
O25 C23 1.279 . S
O26 Cd16 2.297 . S
O26 C21 1.247 . S
O27 Cd16 2.439 . S
O27 C21 1.208 . S
O28 Cd29 2.223 . S
O28 C36 1.315 . S
Cd29 O28 2.223 . S
Cd29 O32 2.297 . S
Cd29 O33 2.439 . S
Cd29 O39 2.240 . S
Cd30 O31 2.240 . S
Cd30 O38 2.223 . S
Cd30 O40 2.297 . S
Cd30 O41 2.439 . S
O31 Cd30 2.240 . S
O31 C36 1.279 . S
O32 Cd29 2.297 . S
O32 C34 1.247 . S
O33 Cd29 2.439 . S
O33 C34 1.208 . S
C34 O32 1.247 . S
C34 O33 1.208 . S
C35 O40 1.247 . S
C35 O41 1.208 . S
C36 O28 1.315 . S
C36 O31 1.279 . S
C37 O38 1.315 . S
C37 O39 1.279 . S
O38 Cd30 2.223 . S
O38 C37 1.315 . S
O39 Cd29 2.240 . S
O39 C37 1.279 . S
O40 Cd30 2.297 . S
O40 C35 1.247 . S
O41 Cd30 2.439 . S
O41 C35 1.208 . S
O42 Cd43 2.223 . S
O42 C50 1.315 . S
Cd43 O42 2.223 . S
Cd43 O46 2.297 . S
Cd43 O47 2.439 . S
Cd43 O53 2.240 . S
Cd44 O45 2.240 . S
Cd44 O52 2.223 . S
Cd44 O54 2.297 . S
Cd44 O55 2.439 . S
O45 Cd44 2.240 . S
O45 C50 1.279 . S
O46 Cd43 2.297 . S
O46 C48 1.247 . S
O47 Cd43 2.439 . S
O47 C48 1.208 . S
C48 O46 1.247 . S
C48 O47 1.208 . S
C49 O54 1.247 . S
C49 O55 1.208 . S
C50 O42 1.315 . S
C50 O45 1.279 . S
C51 O52 1.315 . S
C51 O53 1.279 . S
O52 Cd44 2.223 . S
O52 C51 1.315 . S
O53 Cd43 2.240 . S
O53 C51 1.279 . S
O54 Cd44 2.297 . S
O54 C49 1.247 . S
O55 Cd44 2.439 . S
O55 C49 1.208 . S
O56 Cd57 2.223 . S
O56 C64 1.315 . S
Cd57 O56 2.223 . S
Cd57 O60 2.297 . S
Cd57 O61 2.439 . S
Cd57 O67 2.240 . S
Cd58 O59 2.240 . S
Cd58 O66 2.223 . S
Cd58 O68 2.297 . S
Cd58 O69 2.439 . S
O59 Cd58 2.240 . S
O59 C64 1.279 . S
O60 Cd57 2.297 . S
O60 C62 1.247 . S
O61 Cd57 2.439 . S
O61 C62 1.208 . S
C62 O60 1.247 . S
C62 O61 1.208 . S
C63 O68 1.247 . S
C63 O69 1.208 . S
C64 O56 1.315 . S
C64 O59 1.279 . S
C65 O66 1.315 . S
C65 O67 1.279 . S
O66 Cd58 2.223 . S
O66 C65 1.315 . S
O67 Cd57 2.240 . S
O67 C65 1.279 . S
O68 Cd58 2.297 . S
O68 C63 1.247 . S
O69 Cd58 2.439 . S
O69 C63 1.208 . S
O70 Cd71 2.223 . S
O70 C78 1.315 . S
Cd71 O70 2.223 . S
Cd71 O74 2.297 . S
Cd71 O75 2.439 . S
Cd71 O81 2.240 . S
Cd72 O73 2.240 . S
Cd72 O80 2.223 . S
Cd72 O82 2.297 . S
Cd72 O83 2.439 . S
O73 Cd72 2.240 . S
O73 C78 1.279 . S
O74 Cd71 2.297 . S
O74 C76 1.247 . S
O75 Cd71 2.439 . S
O75 C76 1.208 . S
C76 O74 1.247 . S
C76 O75 1.208 . S
C77 O82 1.247 . S
C77 O83 1.208 . S
C78 O70 1.315 . S
C78 O73 1.279 . S
C79 O80 1.315 . S
C79 O81 1.279 . S
O80 Cd72 2.223 . S
O80 C79 1.315 . S
O81 Cd71 2.240 . S
O81 C79 1.279 . S
O82 Cd72 2.297 . S
O82 C77 1.247 . S
O83 Cd72 2.439 . S
O83 C77 1.208 . S
O84 Cd85 2.223 . S
O84 C92 1.315 . S
Cd85 O84 2.223 . S
Cd85 O88 2.297 . S
Cd85 O89 2.439 . S
Cd85 O95 2.240 . S
Cd86 O87 2.240 . S
Cd86 O94 2.223 . S
Cd86 O96 2.297 . S
Cd86 O97 2.439 . S
O87 Cd86 2.240 . S
O87 C92 1.279 . S
O88 Cd85 2.297 . S
O88 C90 1.247 . S
O89 Cd85 2.439 . S
O89 C90 1.208 . S
C90 O88 1.247 . S
C90 O89 1.208 . S
C91 O96 1.247 . S
C91 O97 1.208 . S
C92 O84 1.315 . S
C92 O87 1.279 . S
C93 O94 1.315 . S
C93 O95 1.279 . S
O94 Cd86 2.223 . S
O94 C93 1.315 . S
O95 Cd85 2.240 . S
O95 C93 1.279 . S
O96 Cd86 2.297 . S
O96 C91 1.247 . S
O97 Cd86 2.439 . S
O97 C91 1.208 . S
O98 Cd99 2.223 . S
O98 C106 1.315 . S
Cd99 O98 2.223 . S
Cd99 O102 2.297 . S
Cd99 O103 2.439 . S
Cd99 O109 2.240 . S
Cd100 O101 2.240 . S
Cd100 O108 2.223 . S
Cd100 O110 2.297 . S
Cd100 O111 2.439 . S
O101 Cd100 2.240 . S
O101 C106 1.279 . S
O102 Cd99 2.297 . S
O102 C104 1.247 . S
O103 Cd99 2.439 . S
O103 C104 1.208 . S
C104 O102 1.247 . S
C104 O103 1.208 . S
C105 O110 1.247 . S
C105 O111 1.208 . S
C106 O98 1.315 . S
C106 O101 1.279 . S
C107 O108 1.315 . S
C107 O109 1.279 . S
O108 Cd100 2.223 . S
O108 C107 1.315 . S
O109 Cd99 2.240 . S
O109 C107 1.279 . S
O110 Cd100 2.297 . S
O110 C105 1.247 . S
O111 Cd100 2.439 . S
O111 C105 1.208 . S
O112 Cd113 2.223 . S
O112 C120 1.315 . S
Cd113 O112 2.223 . S
Cd113 O116 2.297 . S
Cd113 O117 2.439 . S
Cd113 O123 2.240 . S
Cd114 O115 2.240 . S
Cd114 O122 2.223 . S
Cd114 O124 2.297 . S
Cd114 O125 2.439 . S
O115 Cd114 2.240 . S
O115 C120 1.279 . S
O116 Cd113 2.297 . S
O116 C118 1.247 . S
O117 Cd113 2.439 . S
O117 C118 1.208 . S
C118 O116 1.247 . S
C118 O117 1.208 . S
C119 O124 1.247 . S
C119 O125 1.208 . S
C120 O112 1.315 . S
C120 O115 1.279 . S
C121 O122 1.315 . S
C121 O123 1.279 . S
O122 Cd114 2.223 . S
O122 C121 1.315 . S
O123 Cd113 2.240 . S
O123 C121 1.279 . S
O124 Cd114 2.297 . S
O124 C119 1.247 . S
O125 Cd114 2.439 . S
O125 C119 1.208 . S
O126 Cd127 2.223 . S
O126 C134 1.315 . S
Cd127 O126 2.223 . S
Cd127 O130 2.297 . S
Cd127 O131 2.439 . S
Cd127 O137 2.240 . S
Cd128 O129 2.240 . S
Cd128 O136 2.223 . S
Cd128 O138 2.297 . S
Cd128 O139 2.439 . S
O129 Cd128 2.240 . S
O129 C134 1.279 . S
O130 Cd127 2.297 . S
O130 C132 1.247 . S
O131 Cd127 2.439 . S
O131 C132 1.208 . S
C132 O130 1.247 . S
C132 O131 1.208 . S
C133 O138 1.247 . S
C133 O139 1.208 . S
C134 O126 1.315 . S
C134 O129 1.279 . S
C135 O136 1.315 . S
C135 O137 1.279 . S
O136 Cd128 2.223 . S
O136 C135 1.315 . S
O137 Cd127 2.240 . S
O137 C135 1.279 . S
O138 Cd128 2.297 . S
O138 C133 1.247 . S
O139 Cd128 2.439 . S
O139 C133 1.208 . S
O140 Cd141 2.223 . S
O140 C148 1.315 . S
Cd141 O140 2.223 . S
Cd141 O144 2.297 . S
Cd141 O145 2.439 . S
Cd141 O151 2.240 . S
Cd142 O143 2.240 . S
Cd142 O150 2.223 . S
Cd142 O152 2.297 . S
Cd142 O153 2.439 . S
O143 Cd142 2.240 . S
O143 C148 1.279 . S
O144 Cd141 2.297 . S
O144 C146 1.247 . S
O145 Cd141 2.439 . S
O145 C146 1.208 . S
C146 O144 1.247 . S
C146 O145 1.208 . S
C147 O152 1.247 . S
C147 O153 1.208 . S
C148 O140 1.315 . S
C148 O143 1.279 . S
C149 O150 1.315 . S
C149 O151 1.279 . S
O150 Cd142 2.223 . S
O150 C149 1.315 . S
O151 Cd141 2.240 . S
O151 C149 1.279 . S
O152 Cd142 2.297 . S
O152 C147 1.247 . S
O153 Cd142 2.439 . S
O153 C147 1.208 . S
O154 Cd155 2.223 . S
O154 C162 1.315 . S
Cd155 O154 2.223 . S
Cd155 O158 2.297 . S
Cd155 O159 2.439 . S
Cd155 O165 2.240 . S
Cd156 O157 2.240 . S
Cd156 O164 2.223 . S
Cd156 O166 2.297 . S
Cd156 O167 2.439 . S
O157 Cd156 2.240 . S
O157 C162 1.279 . S
O158 Cd155 2.297 . S
O158 C160 1.247 . S
O159 Cd155 2.439 . S
O159 C160 1.208 . S
C160 O158 1.247 . S
C160 O159 1.208 . S
C161 O166 1.247 . S
C161 O167 1.208 . S
C162 O154 1.315 . S
C162 O157 1.279 . S
C163 O164 1.315 . S
C163 O165 1.279 . S
O164 Cd156 2.223 . S
O164 C163 1.315 . S
O165 Cd155 2.240 . S
O165 C163 1.279 . S
O166 Cd156 2.297 . S
O166 C161 1.247 . S
O167 Cd156 2.439 . S
O167 C161 1.208 . S
O168 Cd169 2.223 . S
O168 C176 1.315 . S
Cd169 O168 2.223 . S
Cd169 O172 2.297 . S
Cd169 O173 2.439 . S
Cd169 O179 2.240 . S
Cd170 O171 2.240 . S
Cd170 O178 2.223 . S
Cd170 O180 2.297 . S
Cd170 O181 2.439 . S
O171 Cd170 2.240 . S
O171 C176 1.279 . S
O172 Cd169 2.297 . S
O172 C174 1.247 . S
O173 Cd169 2.439 . S
O173 C174 1.208 . S
C174 O172 1.247 . S
C174 O173 1.208 . S
C175 O180 1.247 . S
C175 O181 1.208 . S
C176 O168 1.315 . S
C176 O171 1.279 . S
C177 O178 1.315 . S
C177 O179 1.279 . S
O178 Cd170 2.223 . S
O178 C177 1.315 . S
O179 Cd169 2.240 . S
O179 C177 1.279 . S
O180 Cd170 2.297 . S
O180 C175 1.247 . S
O181 Cd170 2.439 . S
O181 C175 1.208 . S
O182 Cd183 2.223 . S
O182 C190 1.315 . S
Cd183 O182 2.223 . S
Cd183 O186 2.297 . S
Cd183 O187 2.439 . S
Cd183 O193 2.240 . S
Cd184 O185 2.240 . S
Cd184 O192 2.223 . S
Cd184 O194 2.297 . S
Cd184 O195 2.439 . S
O185 Cd184 2.240 . S
O185 C190 1.279 . S
O186 Cd183 2.297 . S
O186 C188 1.247 . S
O187 Cd183 2.439 . S
O187 C188 1.208 . S
C188 O186 1.247 . S
C188 O187 1.208 . S
C189 O194 1.247 . S
C189 O195 1.208 . S
C190 O182 1.315 . S
C190 O185 1.279 . S
C191 O192 1.315 . S
C191 O193 1.279 . S
O192 Cd184 2.223 . S
O192 C191 1.315 . S
O193 Cd183 2.240 . S
O193 C191 1.279 . S
O194 Cd184 2.297 . S
O194 C189 1.247 . S
O195 Cd184 2.439 . S
O195 C189 1.208 . S
O196 Cd197 2.223 . S
O196 C204 1.315 . S
Cd197 O196 2.223 . S
Cd197 O200 2.297 . S
Cd197 O201 2.439 . S
Cd197 O207 2.240 . S
Cd198 O199 2.240 . S
Cd198 O206 2.223 . S
Cd198 O208 2.297 . S
Cd198 O209 2.439 . S
O199 Cd198 2.240 . S
O199 C204 1.279 . S
O200 Cd197 2.297 . S
O200 C202 1.247 . S
O201 Cd197 2.439 . S
O201 C202 1.208 . S
C202 O200 1.247 . S
C202 O201 1.208 . S
C203 O208 1.247 . S
C203 O209 1.208 . S
C204 O196 1.315 . S
C204 O199 1.279 . S
C205 O206 1.315 . S
C205 O207 1.279 . S
O206 Cd198 2.223 . S
O206 C205 1.315 . S
O207 Cd197 2.240 . S
O207 C205 1.279 . S
O208 Cd198 2.297 . S
O208 C203 1.247 . S
O209 Cd198 2.439 . S
O209 C203 1.208 . S
O210 Cd211 2.223 . S
O210 C218 1.315 . S
Cd211 O210 2.223 . S
Cd211 O214 2.297 . S
Cd211 O215 2.439 . S
Cd211 O221 2.240 . S
Cd212 O213 2.240 . S
Cd212 O220 2.223 . S
Cd212 O222 2.297 . S
Cd212 O223 2.439 . S
O213 Cd212 2.240 . S
O213 C218 1.279 . S
O214 Cd211 2.297 . S
O214 C216 1.247 . S
O215 Cd211 2.439 . S
O215 C216 1.208 . S
C216 O214 1.247 . S
C216 O215 1.208 . S
C217 O222 1.247 . S
C217 O223 1.208 . S
C218 O210 1.315 . S
C218 O213 1.279 . S
C219 O220 1.315 . S
C219 O221 1.279 . S
O220 Cd212 2.223 . S
O220 C219 1.315 . S
O221 Cd211 2.240 . S
O221 C219 1.279 . S
O222 Cd212 2.297 . S
O222 C217 1.247 . S
O223 Cd212 2.439 . S
O223 C217 1.208 . S
O224 Cd225 2.223 . S
O224 C232 1.315 . S
Cd225 O224 2.223 . S
Cd225 O228 2.297 . S
Cd225 O229 2.439 . S
Cd225 O235 2.240 . S
Cd226 O227 2.240 . S
Cd226 O234 2.223 . S
Cd226 O236 2.297 . S
Cd226 O237 2.439 . S
O227 Cd226 2.240 . S
O227 C232 1.279 . S
O228 Cd225 2.297 . S
O228 C230 1.247 . S
O229 Cd225 2.439 . S
O229 C230 1.208 . S
C230 O228 1.247 . S
C230 O229 1.208 . S
C231 O236 1.247 . S
C231 O237 1.208 . S
C232 O224 1.315 . S
C232 O227 1.279 . S
C233 O234 1.315 . S
C233 O235 1.279 . S
O234 Cd226 2.223 . S
O234 C233 1.315 . S
O235 Cd225 2.240 . S
O235 C233 1.279 . S
O236 Cd226 2.297 . S
O236 C231 1.247 . S
O237 Cd226 2.439 . S
O237 C231 1.208 . S
O238 Cd239 2.223 . S
O238 C246 1.315 . S
Cd239 O238 2.223 . S
Cd239 O242 2.297 . S
Cd239 O243 2.439 . S
Cd239 O249 2.240 . S
Cd240 O241 2.240 . S
Cd240 O248 2.223 . S
Cd240 O250 2.297 . S
Cd240 O251 2.439 . S
O241 Cd240 2.240 . S
O241 C246 1.279 . S
O242 Cd239 2.297 . S
O242 C244 1.247 . S
O243 Cd239 2.439 . S
O243 C244 1.208 . S
C244 O242 1.247 . S
C244 O243 1.208 . S
C245 O250 1.247 . S
C245 O251 1.208 . S
C246 O238 1.315 . S
C246 O241 1.279 . S
C247 O248 1.315 . S
C247 O249 1.279 . S
O248 Cd240 2.223 . S
O248 C247 1.315 . S
O249 Cd239 2.240 . S
O249 C247 1.279 . S
O250 Cd240 2.297 . S
O250 C245 1.247 . S
O251 Cd240 2.439 . S
O251 C245 1.208 . S
O252 Cd253 2.223 . S
O252 C260 1.315 . S
Cd253 O252 2.223 . S
Cd253 O256 2.297 . S
Cd253 O257 2.439 . S
Cd253 O263 2.240 . S
Cd254 O255 2.240 . S
Cd254 O262 2.223 . S
Cd254 O264 2.297 . S
Cd254 O265 2.439 . S
O255 Cd254 2.240 . S
O255 C260 1.279 . S
O256 Cd253 2.297 . S
O256 C258 1.247 . S
O257 Cd253 2.439 . S
O257 C258 1.208 . S
C258 O256 1.247 . S
C258 O257 1.208 . S
C259 O264 1.247 . S
C259 O265 1.208 . S
C260 O252 1.315 . S
C260 O255 1.279 . S
C261 O262 1.315 . S
C261 O263 1.279 . S
O262 Cd254 2.223 . S
O262 C261 1.315 . S
O263 Cd253 2.240 . S
O263 C261 1.279 . S
O264 Cd254 2.297 . S
O264 C259 1.247 . S
O265 Cd254 2.439 . S
O265 C259 1.208 . S
O266 Cd267 2.223 . S
O266 C274 1.315 . S
Cd267 O266 2.223 . S
Cd267 O270 2.297 . S
Cd267 O271 2.439 . S
Cd267 O277 2.240 . S
Cd268 O269 2.240 . S
Cd268 O276 2.223 . S
Cd268 O278 2.297 . S
Cd268 O279 2.439 . S
O269 Cd268 2.240 . S
O269 C274 1.279 . S
O270 Cd267 2.297 . S
O270 C272 1.247 . S
O271 Cd267 2.439 . S
O271 C272 1.208 . S
C272 O270 1.247 . S
C272 O271 1.208 . S
C273 O278 1.247 . S
C273 O279 1.208 . S
C274 O266 1.315 . S
C274 O269 1.279 . S
C275 O276 1.315 . S
C275 O277 1.279 . S
O276 Cd268 2.223 . S
O276 C275 1.315 . S
O277 Cd267 2.240 . S
O277 C275 1.279 . S
O278 Cd268 2.297 . S
O278 C273 1.247 . S
O279 Cd268 2.439 . S
O279 C273 1.208 . S
O280 Cd281 2.223 . S
O280 C288 1.315 . S
Cd281 O280 2.223 . S
Cd281 O284 2.297 . S
Cd281 O285 2.439 . S
Cd281 O291 2.240 . S
Cd282 O283 2.240 . S
Cd282 O290 2.223 . S
Cd282 O292 2.297 . S
Cd282 O293 2.439 . S
O283 Cd282 2.240 . S
O283 C288 1.279 . S
O284 Cd281 2.297 . S
O284 C286 1.247 . S
O285 Cd281 2.439 . S
O285 C286 1.208 . S
C286 O284 1.247 . S
C286 O285 1.208 . S
C287 O292 1.247 . S
C287 O293 1.208 . S
C288 O280 1.315 . S
C288 O283 1.279 . S
C289 O290 1.315 . S
C289 O291 1.279 . S
O290 Cd282 2.223 . S
O290 C289 1.315 . S
O291 Cd281 2.240 . S
O291 C289 1.279 . S
O292 Cd282 2.297 . S
O292 C287 1.247 . S
O293 Cd282 2.439 . S
O293 C287 1.208 . S
O294 Cd295 2.223 . S
O294 C302 1.315 . S
Cd295 O294 2.223 . S
Cd295 O298 2.297 . S
Cd295 O299 2.439 . S
Cd295 O305 2.240 . S
Cd296 O297 2.240 . S
Cd296 O304 2.223 . S
Cd296 O306 2.297 . S
Cd296 O307 2.439 . S
O297 Cd296 2.240 . S
O297 C302 1.279 . S
O298 Cd295 2.297 . S
O298 C300 1.247 . S
O299 Cd295 2.439 . S
O299 C300 1.208 . S
C300 O298 1.247 . S
C300 O299 1.208 . S
C301 O306 1.247 . S
C301 O307 1.208 . S
C302 O294 1.315 . S
C302 O297 1.279 . S
C303 O304 1.315 . S
C303 O305 1.279 . S
O304 Cd296 2.223 . S
O304 C303 1.315 . S
O305 Cd295 2.240 . S
O305 C303 1.279 . S
O306 Cd296 2.297 . S
O306 C301 1.247 . S
O307 Cd296 2.439 . S
O307 C301 1.208 . S
O308 Cd309 2.223 . S
O308 C316 1.315 . S
Cd309 O308 2.223 . S
Cd309 O312 2.297 . S
Cd309 O313 2.439 . S
Cd309 O319 2.240 . S
Cd310 O311 2.240 . S
Cd310 O318 2.223 . S
Cd310 O320 2.297 . S
Cd310 O321 2.439 . S
O311 Cd310 2.240 . S
O311 C316 1.279 . S
O312 Cd309 2.297 . S
O312 C314 1.247 . S
O313 Cd309 2.439 . S
O313 C314 1.208 . S
C314 O312 1.247 . S
C314 O313 1.208 . S
C315 O320 1.247 . S
C315 O321 1.208 . S
C316 O308 1.315 . S
C316 O311 1.279 . S
C317 O318 1.315 . S
C317 O319 1.279 . S
O318 Cd310 2.223 . S
O318 C317 1.315 . S
O319 Cd309 2.240 . S
O319 C317 1.279 . S
O320 Cd310 2.297 . S
O320 C315 1.247 . S
O321 Cd310 2.439 . S
O321 C315 1.208 . S
O322 Cd323 2.223 . S
O322 C330 1.315 . S
Cd323 O322 2.223 . S
Cd323 O326 2.297 . S
Cd323 O327 2.439 . S
Cd323 O333 2.240 . S
Cd324 O325 2.240 . S
Cd324 O332 2.223 . S
Cd324 O334 2.297 . S
Cd324 O335 2.439 . S
O325 Cd324 2.240 . S
O325 C330 1.279 . S
O326 Cd323 2.297 . S
O326 C328 1.247 . S
O327 Cd323 2.439 . S
O327 C328 1.208 . S
C328 O326 1.247 . S
C328 O327 1.208 . S
C329 O334 1.247 . S
C329 O335 1.208 . S
C330 O322 1.315 . S
C330 O325 1.279 . S
C331 O332 1.315 . S
C331 O333 1.279 . S
O332 Cd324 2.223 . S
O332 C331 1.315 . S
O333 Cd323 2.240 . S
O333 C331 1.279 . S
O334 Cd324 2.297 . S
O334 C329 1.247 . S
O335 Cd324 2.439 . S
O335 C329 1.208 . S
O336 Cd337 2.223 . S
O336 C344 1.315 . S
Cd337 O336 2.223 . S
Cd337 O340 2.297 . S
Cd337 O341 2.439 . S
Cd337 O347 2.240 . S
Cd338 O339 2.240 . S
Cd338 O346 2.223 . S
Cd338 O348 2.297 . S
Cd338 O349 2.439 . S
O339 Cd338 2.240 . S
O339 C344 1.279 . S
O340 Cd337 2.297 . S
O340 C342 1.247 . S
O341 Cd337 2.439 . S
O341 C342 1.208 . S
C342 O340 1.247 . S
C342 O341 1.208 . S
C343 O348 1.247 . S
C343 O349 1.208 . S
C344 O336 1.315 . S
C344 O339 1.279 . S
C345 O346 1.315 . S
C345 O347 1.279 . S
O346 Cd338 2.223 . S
O346 C345 1.315 . S
O347 Cd337 2.240 . S
O347 C345 1.279 . S
O348 Cd338 2.297 . S
O348 C343 1.247 . S
O349 Cd338 2.439 . S
O349 C343 1.208 . S
O350 Cd351 2.223 . S
O350 C358 1.315 . S
Cd351 O350 2.223 . S
Cd351 O354 2.297 . S
Cd351 O355 2.439 . S
Cd351 O361 2.240 . S
Cd352 O353 2.240 . S
Cd352 O360 2.223 . S
Cd352 O362 2.297 . S
Cd352 O363 2.439 . S
O353 Cd352 2.240 . S
O353 C358 1.279 . S
O354 Cd351 2.297 . S
O354 C356 1.247 . S
O355 Cd351 2.439 . S
O355 C356 1.208 . S
C356 O354 1.247 . S
C356 O355 1.208 . S
C357 O362 1.247 . S
C357 O363 1.208 . S
C358 O350 1.315 . S
C358 O353 1.279 . S
C359 O360 1.315 . S
C359 O361 1.279 . S
O360 Cd352 2.223 . S
O360 C359 1.315 . S
O361 Cd351 2.240 . S
O361 C359 1.279 . S
O362 Cd352 2.297 . S
O362 C357 1.247 . S
O363 Cd352 2.439 . S
O363 C357 1.208 . S
O364 Cd365 2.223 . S
O364 C372 1.315 . S
Cd365 O364 2.223 . S
Cd365 O368 2.297 . S
Cd365 O369 2.439 . S
Cd365 O375 2.240 . S
Cd366 O367 2.240 . S
Cd366 O374 2.223 . S
Cd366 O376 2.297 . S
Cd366 O377 2.439 . S
O367 Cd366 2.240 . S
O367 C372 1.279 . S
O368 Cd365 2.297 . S
O368 C370 1.247 . S
O369 Cd365 2.439 . S
O369 C370 1.208 . S
C370 O368 1.247 . S
C370 O369 1.208 . S
C371 O376 1.247 . S
C371 O377 1.208 . S
C372 O364 1.315 . S
C372 O367 1.279 . S
C373 O374 1.315 . S
C373 O375 1.279 . S
O374 Cd366 2.223 . S
O374 C373 1.315 . S
O375 Cd365 2.240 . S
O375 C373 1.279 . S
O376 Cd366 2.297 . S
O376 C371 1.247 . S
O377 Cd366 2.439 . S
O377 C371 1.208 . S
O378 Cd379 2.223 . S
O378 C386 1.315 . S
Cd379 O378 2.223 . S
Cd379 O382 2.297 . S
Cd379 O383 2.439 . S
Cd379 O389 2.240 . S
Cd380 O381 2.240 . S
Cd380 O388 2.223 . S
Cd380 O390 2.297 . S
Cd380 O391 2.439 . S
O381 Cd380 2.240 . S
O381 C386 1.279 . S
O382 Cd379 2.297 . S
O382 C384 1.247 . S
O383 Cd379 2.439 . S
O383 C384 1.208 . S
C384 O382 1.247 . S
C384 O383 1.208 . S
C385 O390 1.247 . S
C385 O391 1.208 . S
C386 O378 1.315 . S
C386 O381 1.279 . S
C387 O388 1.315 . S
C387 O389 1.279 . S
O388 Cd380 2.223 . S
O388 C387 1.315 . S
O389 Cd379 2.240 . S
O389 C387 1.279 . S
O390 Cd380 2.297 . S
O390 C385 1.247 . S
O391 Cd380 2.439 . S
O391 C385 1.208 . S
O392 Cd393 2.223 . S
O392 C400 1.315 . S
Cd393 O392 2.223 . S
Cd393 O396 2.297 . S
Cd393 O397 2.439 . S
Cd393 O403 2.240 . S
Cd394 O395 2.240 . S
Cd394 O402 2.223 . S
Cd394 O404 2.297 . S
Cd394 O405 2.439 . S
O395 Cd394 2.240 . S
O395 C400 1.279 . S
O396 Cd393 2.297 . S
O396 C398 1.247 . S
O397 Cd393 2.439 . S
O397 C398 1.208 . S
C398 O396 1.247 . S
C398 O397 1.208 . S
C399 O404 1.247 . S
C399 O405 1.208 . S
C400 O392 1.315 . S
C400 O395 1.279 . S
C401 O402 1.315 . S
C401 O403 1.279 . S
O402 Cd394 2.223 . S
O402 C401 1.315 . S
O403 Cd393 2.240 . S
O403 C401 1.279 . S
O404 Cd394 2.297 . S
O404 C399 1.247 . S
O405 Cd394 2.439 . S
O405 C399 1.208 . S
O406 Cd407 2.223 . S
O406 C414 1.315 . S
Cd407 O406 2.223 . S
Cd407 O410 2.297 . S
Cd407 O411 2.439 . S
Cd407 O417 2.240 . S
Cd408 O409 2.240 . S
Cd408 O416 2.223 . S
Cd408 O418 2.297 . S
Cd408 O419 2.439 . S
O409 Cd408 2.240 . S
O409 C414 1.279 . S
O410 Cd407 2.297 . S
O410 C412 1.247 . S
O411 Cd407 2.439 . S
O411 C412 1.208 . S
C412 O410 1.247 . S
C412 O411 1.208 . S
C413 O418 1.247 . S
C413 O419 1.208 . S
C414 O406 1.315 . S
C414 O409 1.279 . S
C415 O416 1.315 . S
C415 O417 1.279 . S
O416 Cd408 2.223 . S
O416 C415 1.315 . S
O417 Cd407 2.240 . S
O417 C415 1.279 . S
O418 Cd408 2.297 . S
O418 C413 1.247 . S
O419 Cd408 2.439 . S
O419 C413 1.208 . S
O420 Cd421 2.223 . S
O420 C428 1.315 . S
Cd421 O420 2.223 . S
Cd421 O424 2.297 . S
Cd421 O425 2.439 . S
Cd421 O431 2.240 . S
Cd422 O423 2.240 . S
Cd422 O430 2.223 . S
Cd422 O432 2.297 . S
Cd422 O433 2.439 . S
O423 Cd422 2.240 . S
O423 C428 1.279 . S
O424 Cd421 2.297 . S
O424 C426 1.247 . S
O425 Cd421 2.439 . S
O425 C426 1.208 . S
C426 O424 1.247 . S
C426 O425 1.208 . S
C427 O432 1.247 . S
C427 O433 1.208 . S
C428 O420 1.315 . S
C428 O423 1.279 . S
C429 O430 1.315 . S
C429 O431 1.279 . S
O430 Cd422 2.223 . S
O430 C429 1.315 . S
O431 Cd421 2.240 . S
O431 C429 1.279 . S
O432 Cd422 2.297 . S
O432 C427 1.247 . S
O433 Cd422 2.439 . S
O433 C427 1.208 . S
O434 Cd435 2.223 . S
O434 C442 1.315 . S
Cd435 O434 2.223 . S
Cd435 O438 2.297 . S
Cd435 O439 2.439 . S
Cd435 O445 2.240 . S
Cd436 O437 2.240 . S
Cd436 O444 2.223 . S
Cd436 O446 2.297 . S
Cd436 O447 2.439 . S
O437 Cd436 2.240 . S
O437 C442 1.279 . S
O438 Cd435 2.297 . S
O438 C440 1.247 . S
O439 Cd435 2.439 . S
O439 C440 1.208 . S
C440 O438 1.247 . S
C440 O439 1.208 . S
C441 O446 1.247 . S
C441 O447 1.208 . S
C442 O434 1.315 . S
C442 O437 1.279 . S
C443 O444 1.315 . S
C443 O445 1.279 . S
O444 Cd436 2.223 . S
O444 C443 1.315 . S
O445 Cd435 2.240 . S
O445 C443 1.279 . S
O446 Cd436 2.297 . S
O446 C441 1.247 . S
O447 Cd436 2.439 . S
O447 C441 1.208 . S
O448 Cd449 2.223 . S
O448 C456 1.315 . S
Cd449 O448 2.223 . S
Cd449 O452 2.297 . S
Cd449 O453 2.439 . S
Cd449 O459 2.240 . S
Cd450 O451 2.240 . S
Cd450 O458 2.223 . S
Cd450 O460 2.297 . S
Cd450 O461 2.439 . S
O451 Cd450 2.240 . S
O451 C456 1.279 . S
O452 Cd449 2.297 . S
O452 C454 1.247 . S
O453 Cd449 2.439 . S
O453 C454 1.208 . S
C454 O452 1.247 . S
C454 O453 1.208 . S
C455 O460 1.247 . S
C455 O461 1.208 . S
C456 O448 1.315 . S
C456 O451 1.279 . S
C457 O458 1.315 . S
C457 O459 1.279 . S
O458 Cd450 2.223 . S
O458 C457 1.315 . S
O459 Cd449 2.240 . S
O459 C457 1.279 . S
O460 Cd450 2.297 . S
O460 C455 1.247 . S
O461 Cd450 2.439 . S
O461 C455 1.208 . S
O462 Cd463 2.223 . S
O462 C470 1.315 . S
Cd463 O462 2.223 . S
Cd463 O466 2.297 . S
Cd463 O467 2.439 . S
Cd463 O473 2.240 . S
Cd464 O465 2.240 . S
Cd464 O472 2.223 . S
Cd464 O474 2.297 . S
Cd464 O475 2.439 . S
O465 Cd464 2.240 . S
O465 C470 1.279 . S
O466 Cd463 2.297 . S
O466 C468 1.247 . S
O467 Cd463 2.439 . S
O467 C468 1.208 . S
C468 O466 1.247 . S
C468 O467 1.208 . S
C469 O474 1.247 . S
C469 O475 1.208 . S
C470 O462 1.315 . S
C470 O465 1.279 . S
C471 O472 1.315 . S
C471 O473 1.279 . S
O472 Cd464 2.223 . S
O472 C471 1.315 . S
O473 Cd463 2.240 . S
O473 C471 1.279 . S
O474 Cd464 2.297 . S
O474 C469 1.247 . S
O475 Cd464 2.439 . S
O475 C469 1.208 . S
O476 Cd477 2.223 . S
O476 C484 1.315 . S
Cd477 O476 2.223 . S
Cd477 O480 2.297 . S
Cd477 O481 2.439 . S
Cd477 O487 2.240 . S
Cd478 O479 2.240 . S
Cd478 O486 2.223 . S
Cd478 O488 2.297 . S
Cd478 O489 2.439 . S
O479 Cd478 2.240 . S
O479 C484 1.279 . S
O480 Cd477 2.297 . S
O480 C482 1.247 . S
O481 Cd477 2.439 . S
O481 C482 1.208 . S
C482 O480 1.247 . S
C482 O481 1.208 . S
C483 O488 1.247 . S
C483 O489 1.208 . S
C484 O476 1.315 . S
C484 O479 1.279 . S
C485 O486 1.315 . S
C485 O487 1.279 . S
O486 Cd478 2.223 . S
O486 C485 1.315 . S
O487 Cd477 2.240 . S
O487 C485 1.279 . S
O488 Cd478 2.297 . S
O488 C483 1.247 . S
O489 Cd478 2.439 . S
O489 C483 1.208 . S
O490 Cd491 2.223 . S
O490 C498 1.315 . S
Cd491 O490 2.223 . S
Cd491 O494 2.297 . S
Cd491 O495 2.439 . S
Cd491 O501 2.240 . S
Cd492 O493 2.240 . S
Cd492 O500 2.223 . S
Cd492 O502 2.297 . S
Cd492 O503 2.439 . S
O493 Cd492 2.240 . S
O493 C498 1.279 . S
O494 Cd491 2.297 . S
O494 C496 1.247 . S
O495 Cd491 2.439 . S
O495 C496 1.208 . S
C496 O494 1.247 . S
C496 O495 1.208 . S
C497 O502 1.247 . S
C497 O503 1.208 . S
C498 O490 1.315 . S
C498 O493 1.279 . S
C499 O500 1.315 . S
C499 O501 1.279 . S
O500 Cd492 2.223 . S
O500 C499 1.315 . S
O501 Cd491 2.240 . S
O501 C499 1.279 . S
O502 Cd492 2.297 . S
O502 C497 1.247 . S
O503 Cd492 2.439 . S
O503 C497 1.208 . S
H504 C512 0.929 . S
H505 C514 0.930 . S
H506 C516 0.930 . S
H507 C519 0.929 . S
H508 C522 0.930 . S
H509 C524 0.960 . S
H510 C524 0.960 . S
H511 C524 0.960 . S
C512 H504 0.929 . S
C512 C513 1.377 . S
C512 C514 1.384 . S
C513 C512 1.377 . S
C513 C519 1.390 . S
C514 H505 0.930 . S
C514 C512 1.384 . S
C514 C515 1.372 . S
C515 C514 1.372 . S
C515 C516 1.400 . S
C515 C520 1.490 . S
C516 H506 0.930 . S
C516 C515 1.400 . S
C516 C519 1.386 . S
H517 C533 0.930 . S
H518 C534 0.931 . S
C519 H507 0.929 . S
C519 C513 1.390 . S
C519 C516 1.386 . S
C520 C515 1.490 . S
C520 C522 1.395 . S
C520 C523 1.403 . S
H521 C527 0.930 . S
C522 H508 0.930 . S
C522 C520 1.395 . S
C522 C525 1.403 1_565 S
C523 C520 1.403 . S
C523 C524 1.524 . S
C523 C527 1.400 1_565 S
C524 H509 0.960 . S
C524 H510 0.960 . S
C524 H511 0.960 . S
C524 C523 1.524 . S
C525 C522 1.403 1_545 S
C525 C526 1.392 . S
C525 C529 1.495 . S
C526 C525 1.392 . S
C526 C527 1.385 . S
C526 C528 1.478 . S
C527 H521 0.930 . S
C527 C523 1.400 1_545 S
C527 C526 1.385 . S
C528 C526 1.478 . S
C528 C530 1.381 . S
C528 C534 1.383 . S
C529 C525 1.495 . S
C529 H535 0.959 . S
C529 H536 0.961 . S
C529 H537 0.960 . S
C530 C528 1.381 . S
C530 C531 1.394 . S
C530 H538 0.930 . S
C531 C530 1.394 . S
C531 C532 1.383 . S
C531 H539 0.929 . S
C532 C531 1.383 . S
C532 C533 1.377 . S
C533 H517 0.930 . S
C533 C532 1.377 . S
C533 C534 1.379 . S
C534 H518 0.931 . S
C534 C528 1.383 . S
C534 C533 1.379 . S
H535 C529 0.959 . S
H536 C529 0.961 . S
H537 C529 0.960 . S
H538 C530 0.930 . S
H539 C531 0.929 . S
H540 C548 0.929 . S
H541 C550 0.930 . S
H542 C552 0.930 . S
H543 C555 0.929 . S
H544 C558 0.930 . S
H545 C560 0.960 . S
H546 C560 0.960 . S
H547 C560 0.960 . S
C548 H540 0.929 . S
C548 C549 1.377 . S
C548 C550 1.384 . S
C549 C548 1.377 . S
C549 C555 1.390 . S
C550 H541 0.930 . S
C550 C548 1.384 . S
C550 C551 1.372 . S
C551 C550 1.372 . S
C551 C552 1.400 . S
C551 C556 1.490 . S
C552 H542 0.930 . S
C552 C551 1.400 . S
C552 C555 1.386 . S
H553 C569 0.930 . S
H554 C570 0.931 . S
C555 H543 0.929 . S
C555 C549 1.390 . S
C555 C552 1.386 . S
C556 C551 1.490 . S
C556 C558 1.395 . S
C556 C559 1.403 . S
H557 C563 0.930 . S
C558 H544 0.930 . S
C558 C556 1.395 . S
C558 C561 1.403 1_455 S
C559 C556 1.403 . S
C559 C560 1.524 . S
C559 C563 1.400 1_455 S
C560 H545 0.960 . S
C560 H546 0.960 . S
C560 H547 0.960 . S
C560 C559 1.524 . S
C561 C558 1.403 1_655 S
C561 C562 1.392 . S
C561 C565 1.495 . S
C562 C561 1.392 . S
C562 C563 1.385 . S
C562 C564 1.478 . S
C563 H557 0.930 . S
C563 C559 1.400 1_655 S
C563 C562 1.385 . S
C564 C562 1.478 . S
C564 C566 1.381 . S
C564 C570 1.383 . S
C565 C561 1.495 . S
C565 H571 0.959 . S
C565 H572 0.961 . S
C565 H573 0.960 . S
C566 C564 1.381 . S
C566 C567 1.394 . S
C566 H574 0.930 . S
C567 C566 1.394 . S
C567 C568 1.383 . S
C567 H575 0.929 . S
C568 C567 1.383 . S
C568 C569 1.377 . S
C569 H553 0.930 . S
C569 C568 1.377 . S
C569 C570 1.379 . S
C570 H554 0.931 . S
C570 C564 1.383 . S
C570 C569 1.379 . S
H571 C565 0.959 . S
H572 C565 0.961 . S
H573 C565 0.960 . S
H574 C566 0.930 . S
H575 C567 0.929 . S
H576 C584 0.929 . S
H577 C586 0.930 . S
H578 C588 0.930 . S
H579 C591 0.929 . S
H580 C594 0.930 . S
H581 C596 0.960 . S
H582 C596 0.960 . S
H583 C596 0.960 . S
C584 H576 0.929 . S
C584 C585 1.377 . S
C584 C586 1.384 . S
C585 C584 1.377 . S
C585 C591 1.390 . S
C586 H577 0.930 . S
C586 C584 1.384 . S
C586 C587 1.372 . S
C587 C586 1.372 . S
C587 C588 1.400 . S
C587 C592 1.490 . S
C588 H578 0.930 . S
C588 C587 1.400 . S
C588 C591 1.386 . S
H589 C605 0.930 . S
H590 C606 0.931 . S
C591 H579 0.929 . S
C591 C585 1.390 . S
C591 C588 1.386 . S
C592 C587 1.490 . S
C592 C594 1.395 . S
C592 C595 1.403 . S
H593 C599 0.930 . S
C594 H580 0.930 . S
C594 C592 1.395 . S
C594 C597 1.403 . S
C595 C592 1.403 . S
C595 C596 1.524 . S
C595 C599 1.400 . S
C596 H581 0.960 . S
C596 H582 0.960 . S
C596 H583 0.960 . S
C596 C595 1.524 . S
C597 C594 1.403 . S
C597 C598 1.392 . S
C597 C601 1.495 . S
C598 C597 1.392 . S
C598 C599 1.385 . S
C598 C600 1.478 . S
C599 H593 0.930 . S
C599 C595 1.400 . S
C599 C598 1.385 . S
C600 C598 1.478 . S
C600 C602 1.381 . S
C600 C606 1.383 . S
C601 C597 1.495 . S
C601 H607 0.959 . S
C601 H608 0.961 . S
C601 H609 0.960 . S
C602 C600 1.381 . S
C602 C603 1.394 . S
C602 H610 0.930 . S
C603 C602 1.394 . S
C603 C604 1.383 . S
C603 H611 0.929 . S
C604 C603 1.383 . S
C604 C605 1.377 . S
C605 H589 0.930 . S
C605 C604 1.377 . S
C605 C606 1.379 . S
C606 H590 0.931 . S
C606 C600 1.383 . S
C606 C605 1.379 . S
H607 C601 0.959 . S
H608 C601 0.961 . S
H609 C601 0.960 . S
H610 C602 0.930 . S
H611 C603 0.929 . S
H612 C620 0.929 . S
H613 C622 0.930 . S
H614 C624 0.930 . S
H615 C627 0.929 . S
H616 C630 0.930 . S
H617 C632 0.960 . S
H618 C632 0.960 . S
H619 C632 0.960 . S
C620 H612 0.929 . S
C620 C621 1.377 . S
C620 C622 1.384 . S
C621 C620 1.377 . S
C621 C627 1.390 . S
C622 H613 0.930 . S
C622 C620 1.384 . S
C622 C623 1.372 . S
C623 C622 1.372 . S
C623 C624 1.400 . S
C623 C628 1.490 . S
C624 H614 0.930 . S
C624 C623 1.400 . S
C624 C627 1.386 . S
H625 C641 0.930 . S
H626 C642 0.931 . S
C627 H615 0.929 . S
C627 C621 1.390 . S
C627 C624 1.386 . S
C628 C623 1.490 . S
C628 C630 1.395 . S
C628 C631 1.403 . S
H629 C635 0.930 . S
C630 H616 0.930 . S
C630 C628 1.395 . S
C630 C633 1.403 1_565 S
C631 C628 1.403 . S
C631 C632 1.524 . S
C631 C635 1.400 1_565 S
C632 H617 0.960 . S
C632 H618 0.960 . S
C632 H619 0.960 . S
C632 C631 1.524 . S
C633 C630 1.403 1_545 S
C633 C634 1.392 . S
C633 C637 1.495 . S
C634 C633 1.392 . S
C634 C635 1.385 . S
C634 C636 1.478 . S
C635 H629 0.930 . S
C635 C631 1.400 1_545 S
C635 C634 1.385 . S
C636 C634 1.478 . S
C636 C638 1.381 . S
C636 C642 1.383 . S
C637 C633 1.495 . S
C637 H643 0.959 . S
C637 H644 0.961 . S
C637 H645 0.960 . S
C638 C636 1.381 . S
C638 C639 1.394 . S
C638 H646 0.930 . S
C639 C638 1.394 . S
C639 C640 1.383 . S
C639 H647 0.929 . S
C640 C639 1.383 . S
C640 C641 1.377 . S
C641 H625 0.930 . S
C641 C640 1.377 . S
C641 C642 1.379 . S
C642 H626 0.931 . S
C642 C636 1.383 . S
C642 C641 1.379 . S
H643 C637 0.959 . S
H644 C637 0.961 . S
H645 C637 0.960 . S
H646 C638 0.930 . S
H647 C639 0.929 . S
H648 C656 0.929 . S
H649 C658 0.930 . S
H650 C660 0.930 . S
H651 C663 0.929 . S
H652 C666 0.930 . S
H653 C668 0.960 . S
H654 C668 0.960 . S
H655 C668 0.960 . S
C656 H648 0.929 . S
C656 C657 1.377 . S
C656 C658 1.384 . S
C657 C656 1.377 . S
C657 C663 1.390 . S
C658 H649 0.930 . S
C658 C656 1.384 . S
C658 C659 1.372 . S
C659 C658 1.372 . S
C659 C660 1.400 . S
C659 C664 1.490 . S
C660 H650 0.930 . S
C660 C659 1.400 . S
C660 C663 1.386 . S
H661 C677 0.930 . S
H662 C678 0.931 . S
C663 H651 0.929 . S
C663 C657 1.390 . S
C663 C660 1.386 . S
C664 C659 1.490 . S
C664 C666 1.395 . S
C664 C667 1.403 . S
H665 C671 0.930 . S
C666 H652 0.930 . S
C666 C664 1.395 . S
C666 C669 1.403 1_455 S
C667 C664 1.403 . S
C667 C668 1.524 . S
C667 C671 1.400 1_455 S
C668 H653 0.960 . S
C668 H654 0.960 . S
C668 H655 0.960 . S
C668 C667 1.524 . S
C669 C666 1.403 1_655 S
C669 C670 1.392 . S
C669 C673 1.495 . S
C670 C669 1.392 . S
C670 C671 1.385 . S
C670 C672 1.478 . S
C671 H665 0.930 . S
C671 C667 1.400 1_655 S
C671 C670 1.385 . S
C672 C670 1.478 . S
C672 C674 1.381 . S
C672 C678 1.383 . S
C673 C669 1.495 . S
C673 H679 0.959 . S
C673 H680 0.961 . S
C673 H681 0.960 . S
C674 C672 1.381 . S
C674 C675 1.394 . S
C674 H682 0.930 . S
C675 C674 1.394 . S
C675 C676 1.383 . S
C675 H683 0.929 . S
C676 C675 1.383 . S
C676 C677 1.377 . S
C677 H661 0.930 . S
C677 C676 1.377 . S
C677 C678 1.379 . S
C678 H662 0.931 . S
C678 C672 1.383 . S
C678 C677 1.379 . S
H679 C673 0.959 . S
H680 C673 0.961 . S
H681 C673 0.960 . S
H682 C674 0.930 . S
H683 C675 0.929 . S
H684 C692 0.929 . S
H685 C694 0.930 . S
H686 C696 0.930 . S
H687 C699 0.929 . S
H688 C702 0.930 . S
H689 C704 0.960 . S
H690 C704 0.960 . S
H691 C704 0.960 . S
C692 H684 0.929 . S
C692 C693 1.377 . S
C692 C694 1.384 . S
C693 C692 1.377 . S
C693 C699 1.390 . S
C694 H685 0.930 . S
C694 C692 1.384 . S
C694 C695 1.372 . S
C695 C694 1.372 . S
C695 C696 1.400 . S
C695 C700 1.490 . S
C696 H686 0.930 . S
C696 C695 1.400 . S
C696 C699 1.386 . S
H697 C713 0.930 . S
H698 C714 0.931 . S
C699 H687 0.929 . S
C699 C693 1.390 . S
C699 C696 1.386 . S
C700 C695 1.490 . S
C700 C702 1.395 . S
C700 C703 1.403 . S
H701 C707 0.930 . S
C702 H688 0.930 . S
C702 C700 1.395 . S
C702 C705 1.403 . S
C703 C700 1.403 . S
C703 C704 1.524 . S
C703 C707 1.400 . S
C704 H689 0.960 . S
C704 H690 0.960 . S
C704 H691 0.960 . S
C704 C703 1.524 . S
C705 C702 1.403 . S
C705 C706 1.392 . S
C705 C709 1.495 . S
C706 C705 1.392 . S
C706 C707 1.385 . S
C706 C708 1.478 . S
C707 H701 0.930 . S
C707 C703 1.400 . S
C707 C706 1.385 . S
C708 C706 1.478 . S
C708 C710 1.381 . S
C708 C714 1.383 . S
C709 C705 1.495 . S
C709 H715 0.959 . S
C709 H716 0.961 . S
C709 H717 0.960 . S
C710 C708 1.381 . S
C710 C711 1.394 . S
C710 H718 0.930 . S
C711 C710 1.394 . S
C711 C712 1.383 . S
C711 H719 0.929 . S
C712 C711 1.383 . S
C712 C713 1.377 . S
C713 H697 0.930 . S
C713 C712 1.377 . S
C713 C714 1.379 . S
C714 H698 0.931 . S
C714 C708 1.383 . S
C714 C713 1.379 . S
H715 C709 0.959 . S
H716 C709 0.961 . S
H717 C709 0.960 . S
H718 C710 0.930 . S
H719 C711 0.929 . S
H720 C728 0.929 . S
H721 C730 0.930 . S
H722 C732 0.930 . S
H723 C735 0.929 . S
H724 C738 0.930 . S
H725 C740 0.960 . S
H726 C740 0.960 . S
H727 C740 0.960 . S
C728 H720 0.929 . S
C728 C729 1.377 1_655 S
C728 C730 1.384 . S
C729 C728 1.377 1_455 S
C729 C735 1.390 . S
C730 H721 0.930 . S
C730 C728 1.384 . S
C730 C731 1.372 . S
C731 C730 1.372 . S
C731 C732 1.400 . S
C731 C736 1.490 . S
C732 H722 0.930 . S
C732 C731 1.400 . S
C732 C735 1.386 1_655 S
H733 C749 0.930 . S
H734 C750 0.931 . S
C735 H723 0.929 . S
C735 C729 1.390 . S
C735 C732 1.386 1_455 S
C736 C731 1.490 . S
C736 C738 1.395 . S
C736 C739 1.403 . S
H737 C743 0.930 . S
C738 H724 0.930 . S
C738 C736 1.395 . S
C738 C741 1.403 . S
C739 C736 1.403 . S
C739 C740 1.524 1_655 S
C739 C743 1.400 . S
C740 H725 0.960 . S
C740 H726 0.960 . S
C740 H727 0.960 . S
C740 C739 1.524 1_455 S
C741 C738 1.403 . S
C741 C742 1.392 . S
C741 C745 1.495 . S
C742 C741 1.392 . S
C742 C743 1.385 . S
C742 C744 1.478 . S
C743 H737 0.930 . S
C743 C739 1.400 . S
C743 C742 1.385 . S
C744 C742 1.478 . S
C744 C746 1.381 . S
C744 C750 1.383 . S
C745 C741 1.495 . S
C745 H751 0.959 . S
C745 H752 0.961 . S
C745 H753 0.960 . S
C746 C744 1.381 . S
C746 C747 1.394 . S
C746 H754 0.930 . S
C747 C746 1.394 . S
C747 C748 1.383 . S
C747 H755 0.929 . S
C748 C747 1.383 . S
C748 C749 1.377 . S
C749 H733 0.930 . S
C749 C748 1.377 . S
C749 C750 1.379 . S
C750 H734 0.931 . S
C750 C744 1.383 . S
C750 C749 1.379 . S
H751 C745 0.959 . S
H752 C745 0.961 . S
H753 C745 0.960 . S
H754 C746 0.930 . S
H755 C747 0.929 . S
H756 C764 0.929 . S
H757 C766 0.930 . S
H758 C768 0.930 . S
H759 C771 0.929 . S
H760 C774 0.930 . S
H761 C776 0.960 . S
H762 C776 0.960 . S
H763 C776 0.960 . S
C764 H756 0.929 . S
C764 C765 1.377 . S
C764 C766 1.384 . S
C765 C764 1.377 . S
C765 C771 1.390 . S
C766 H757 0.930 . S
C766 C764 1.384 . S
C766 C767 1.372 . S
C767 C766 1.372 . S
C767 C768 1.400 . S
C767 C772 1.490 . S
C768 H758 0.930 . S
C768 C767 1.400 . S
C768 C771 1.386 . S
H769 C785 0.930 . S
H770 C786 0.931 . S
C771 H759 0.929 . S
C771 C765 1.390 . S
C771 C768 1.386 . S
C772 C767 1.490 . S
C772 C774 1.395 . S
C772 C775 1.403 . S
H773 C779 0.930 . S
C774 H760 0.930 . S
C774 C772 1.395 . S
C774 C777 1.403 . S
C775 C772 1.403 . S
C775 C776 1.524 . S
C775 C779 1.400 . S
C776 H761 0.960 . S
C776 H762 0.960 . S
C776 H763 0.960 . S
C776 C775 1.524 . S
C777 C774 1.403 . S
C777 C778 1.392 . S
C777 C781 1.495 . S
C778 C777 1.392 . S
C778 C779 1.385 . S
C778 C780 1.478 . S
C779 H773 0.930 . S
C779 C775 1.400 . S
C779 C778 1.385 . S
C780 C778 1.478 . S
C780 C782 1.381 . S
C780 C786 1.383 . S
C781 C777 1.495 . S
C781 H787 0.959 . S
C781 H788 0.961 . S
C781 H789 0.960 . S
C782 C780 1.381 . S
C782 C783 1.394 . S
C782 H790 0.930 . S
C783 C782 1.394 . S
C783 C784 1.383 . S
C783 H791 0.929 . S
C784 C783 1.383 . S
C784 C785 1.377 . S
C785 H769 0.930 . S
C785 C784 1.377 . S
C785 C786 1.379 . S
C786 H770 0.931 . S
C786 C780 1.383 . S
C786 C785 1.379 . S
H787 C781 0.959 . S
H788 C781 0.961 . S
H789 C781 0.960 . S
H790 C782 0.930 . S
H791 C783 0.929 . S
H792 C800 0.929 . S
H793 C802 0.930 . S
H794 C804 0.930 . S
H795 C807 0.929 . S
H796 C810 0.930 . S
H797 C812 0.960 . S
H798 C812 0.960 . S
H799 C812 0.960 . S
C800 H792 0.929 . S
C800 C801 1.377 . S
C800 C802 1.384 . S
C801 C800 1.377 . S
C801 C807 1.390 . S
C802 H793 0.930 . S
C802 C800 1.384 . S
C802 C803 1.372 . S
C803 C802 1.372 . S
C803 C804 1.400 . S
C803 C808 1.490 . S
C804 H794 0.930 . S
C804 C803 1.400 . S
C804 C807 1.386 . S
H805 C821 0.901 1_565 S
H806 C822 0.931 . S
C807 H795 0.929 . S
C807 C801 1.390 . S
C807 C804 1.386 . S
C808 C803 1.490 . S
C808 C810 1.395 . S
C808 C811 1.403 . S
H809 C815 0.930 . S
C810 H796 0.930 . S
C810 C808 1.395 . S
C810 C813 1.403 . S
C811 C808 1.403 . S
C811 C812 1.524 . S
C811 C815 1.400 . S
C812 H797 0.960 . S
C812 H798 0.960 . S
C812 H799 0.960 . S
C812 C811 1.524 . S
C813 C810 1.403 . S
C813 C814 1.392 . S
C813 C817 1.495 . S
C814 C813 1.392 . S
C814 C815 1.385 . S
C814 C816 1.478 . S
C815 H809 0.930 . S
C815 C811 1.400 . S
C815 C814 1.385 . S
C816 C814 1.478 . S
C816 C818 1.381 . S
C816 C822 1.383 . S
C817 C813 1.495 . S
C817 H823 0.959 . S
C817 H824 0.961 . S
C817 H825 0.960 . S
C818 C816 1.381 . S
C818 C819 1.394 . S
C818 H826 0.930 . S
C819 C818 1.394 . S
C819 C820 1.383 1_545 S
C819 H827 0.929 . S
C820 C819 1.383 1_565 S
C820 C821 1.358 1_565 S
C821 H805 0.901 1_545 S
C821 C820 1.358 1_545 S
C821 C822 1.429 . S
C822 H806 0.931 . S
C822 C816 1.383 . S
C822 C821 1.429 . S
H823 C817 0.959 . S
H824 C817 0.961 . S
H825 C817 0.960 . S
H826 C818 0.930 . S
H827 C819 0.929 . S
H828 C836 0.929 . S
H829 C838 0.930 . S
H830 C840 0.930 . S
H831 C843 0.929 . S
H832 C846 0.930 . S
H833 C848 0.960 . S
H834 C848 0.960 . S
H835 C848 0.960 . S
C836 H828 0.929 . S
C836 C837 1.377 . S
C836 C838 1.384 . S
C837 C836 1.377 . S
C837 C843 1.390 . S
C838 H829 0.930 . S
C838 C836 1.384 . S
C838 C839 1.372 . S
C839 C838 1.372 . S
C839 C840 1.400 . S
C839 C844 1.490 . S
C840 H830 0.930 . S
C840 C839 1.400 . S
C840 C843 1.386 . S
H841 C857 0.930 . S
H842 C858 0.931 . S
C843 H831 0.929 . S
C843 C837 1.390 . S
C843 C840 1.386 . S
C844 C839 1.490 . S
C844 C846 1.395 . S
C844 C847 1.403 . S
H845 C851 0.930 . S
C846 H832 0.930 . S
C846 C844 1.395 . S
C846 C849 1.403 . S
C847 C844 1.403 . S
C847 C848 1.524 . S
C847 C851 1.400 . S
C848 H833 0.960 . S
C848 H834 0.960 . S
C848 H835 0.960 . S
C848 C847 1.524 . S
C849 C846 1.403 . S
C849 C850 1.392 . S
C849 C853 1.495 . S
C850 C849 1.392 . S
C850 C851 1.385 . S
C850 C852 1.478 . S
C851 H845 0.930 . S
C851 C847 1.400 . S
C851 C850 1.385 . S
C852 C850 1.478 . S
C852 C854 1.381 . S
C852 C858 1.383 . S
C853 C849 1.495 . S
C853 H859 0.959 . S
C853 H860 0.961 . S
C853 H861 0.960 . S
C854 C852 1.381 . S
C854 C855 1.394 . S
C854 H862 0.930 . S
C855 C854 1.394 . S
C855 C856 1.383 . S
C855 H863 0.929 . S
C856 C855 1.383 . S
C856 C857 1.377 . S
C857 H841 0.930 . S
C857 C856 1.377 . S
C857 C858 1.379 . S
C858 H842 0.931 . S
C858 C852 1.383 . S
C858 C857 1.379 . S
H859 C853 0.959 . S
H860 C853 0.961 . S
H861 C853 0.960 . S
H862 C854 0.930 . S
H863 C855 0.929 . S
H864 C872 0.929 . S
H865 C874 0.930 . S
H866 C876 0.930 . S
H867 C879 0.929 . S
H868 C882 0.930 . S
H869 C884 0.960 . S
H870 C884 0.960 . S
H871 C884 0.966 1_565 S
C872 H864 0.929 . S
C872 C873 1.377 1_545 S
C872 C874 1.384 . S
C873 C872 1.377 1_565 S
C873 C879 1.390 . S
C874 H865 0.930 . S
C874 C872 1.384 . S
C874 C875 1.372 . S
C875 C874 1.372 . S
C875 C876 1.400 1_545 S
C875 C880 1.490 . S
C876 H866 0.930 . S
C876 C875 1.400 1_565 S
C876 C879 1.386 . S
H877 C893 0.930 . S
H878 C894 0.931 . S
C879 H867 0.929 . S
C879 C873 1.390 . S
C879 C876 1.386 . S
C880 C875 1.490 . S
C880 C882 1.395 . S
C880 C883 1.403 . S
H881 C887 0.930 . S
C882 H868 0.930 . S
C882 C880 1.395 . S
C882 C885 1.403 . S
C883 C880 1.403 . S
C883 C884 1.524 . S
C883 C887 1.400 . S
C884 H869 0.960 . S
C884 H870 0.960 . S
C884 H871 0.966 1_545 S
C884 C883 1.524 . S
C885 C882 1.403 . S
C885 C886 1.392 . S
C885 C889 1.495 . S
C886 C885 1.392 . S
C886 C887 1.385 . S
C886 C888 1.478 . S
C887 H881 0.930 . S
C887 C883 1.400 . S
C887 C886 1.385 . S
C888 C886 1.478 . S
C888 C890 1.381 . S
C888 C894 1.383 . S
C889 C885 1.495 . S
C889 H895 0.959 . S
C889 H896 0.961 . S
C889 H897 0.960 . S
C890 C888 1.381 . S
C890 C891 1.394 . S
C890 H898 0.930 . S
C891 C890 1.394 . S
C891 C892 1.383 . S
C891 H899 0.929 . S
C892 C891 1.383 . S
C892 C893 1.377 . S
C893 H877 0.930 . S
C893 C892 1.377 . S
C893 C894 1.379 . S
C894 H878 0.931 . S
C894 C888 1.383 . S
C894 C893 1.379 . S
H895 C889 0.959 . S
H896 C889 0.961 . S
H897 C889 0.960 . S
H898 C890 0.930 . S
H899 C891 0.929 . S
H900 C908 0.929 . S
H901 C910 0.930 . S
H902 C912 0.930 . S
H903 C915 0.929 . S
H904 C918 0.930 . S
H905 C920 0.960 . S
H906 C920 0.960 . S
H907 C920 0.960 . S
C908 H900 0.929 . S
C908 C909 1.377 . S
C908 C910 1.384 . S
C909 C908 1.377 . S
C909 C915 1.390 . S
C910 H901 0.930 . S
C910 C908 1.384 . S
C910 C911 1.372 . S
C911 C910 1.372 . S
C911 C912 1.400 . S
C911 C916 1.490 . S
C912 H902 0.930 . S
C912 C911 1.400 . S
C912 C915 1.386 . S
H913 C929 0.930 . S
H914 C930 0.931 . S
C915 H903 0.929 . S
C915 C909 1.390 . S
C915 C912 1.386 . S
C916 C911 1.490 . S
C916 C918 1.395 . S
C916 C919 1.403 . S
H917 C923 0.930 . S
C918 H904 0.930 . S
C918 C916 1.395 . S
C918 C921 1.403 . S
C919 C916 1.403 . S
C919 C920 1.524 . S
C919 C923 1.400 . S
C920 H905 0.960 . S
C920 H906 0.960 . S
C920 H907 0.960 . S
C920 C919 1.524 . S
C921 C918 1.403 . S
C921 C922 1.392 . S
C921 C925 1.495 . S
C922 C921 1.392 . S
C922 C923 1.385 . S
C922 C924 1.478 . S
C923 H917 0.930 . S
C923 C919 1.400 . S
C923 C922 1.385 . S
C924 C922 1.478 . S
C924 C926 1.381 . S
C924 C930 1.383 1_655 S
C925 C921 1.495 . S
C925 H931 0.959 . S
C925 H932 0.961 . S
C925 H933 0.960 . S
C926 C924 1.381 . S
C926 C927 1.394 . S
C926 H934 0.930 . S
C927 C926 1.394 . S
C927 C928 1.383 1_655 S
C927 H935 0.929 . S
C928 C927 1.383 1_455 S
C928 C929 1.377 . S
C929 H913 0.930 . S
C929 C928 1.377 . S
C929 C930 1.379 . S
C930 H914 0.931 . S
C930 C924 1.383 1_455 S
C930 C929 1.379 . S
H931 C925 0.959 . S
H932 C925 0.961 . S
H933 C925 0.960 . S
H934 C926 0.930 . S
H935 C927 0.929 . S
H936 C944 0.929 . S
H937 C946 0.930 . S
H938 C948 0.930 . S
H939 C951 0.929 . S
H940 C954 0.930 . S
H941 C956 0.960 . S
H942 C956 0.960 . S
H943 C956 0.960 . S
C944 H936 0.929 . S
C944 C945 1.377 . S
C944 C946 1.384 . S
C945 C944 1.377 . S
C945 C951 1.390 . S
C946 H937 0.930 . S
C946 C944 1.384 . S
C946 C947 1.372 . S
C947 C946 1.372 . S
C947 C948 1.400 . S
C947 C952 1.490 . S
C948 H938 0.930 . S
C948 C947 1.400 . S
C948 C951 1.386 . S
H949 C965 0.930 . S
H950 C966 0.931 . S
C951 H939 0.929 . S
C951 C945 1.390 . S
C951 C948 1.386 . S
C952 C947 1.490 . S
C952 C954 1.395 . S
C952 C955 1.403 . S
H953 C959 0.930 . S
C954 H940 0.930 . S
C954 C952 1.395 . S
C954 C957 1.403 . S
C955 C952 1.403 . S
C955 C956 1.524 . S
C955 C959 1.400 . S
C956 H941 0.960 . S
C956 H942 0.960 . S
C956 H943 0.960 . S
C956 C955 1.524 . S
C957 C954 1.403 . S
C957 C958 1.392 . S
C957 C961 1.495 . S
C958 C957 1.392 . S
C958 C959 1.385 . S
C958 C960 1.478 . S
C959 H953 0.930 . S
C959 C955 1.400 . S
C959 C958 1.385 . S
C960 C958 1.478 . S
C960 C962 1.381 . S
C960 C966 1.383 . S
C961 C957 1.495 . S
C961 H967 0.959 . S
C961 H968 0.961 . S
C961 H969 0.960 . S
C962 C960 1.381 . S
C962 C963 1.394 . S
C962 H970 0.930 . S
C963 C962 1.394 . S
C963 C964 1.383 . S
C963 H971 0.929 . S
C964 C963 1.383 . S
C964 C965 1.377 . S
C965 H949 0.930 . S
C965 C964 1.377 . S
C965 C966 1.379 . S
C966 H950 0.931 . S
C966 C960 1.383 . S
C966 C965 1.379 . S
H967 C961 0.959 . S
H968 C961 0.961 . S
H969 C961 0.960 . S
H970 C962 0.930 . S
H971 C963 0.929 . S
H972 C980 0.930 1_545 S
H973 C982 0.930 . S
H974 C984 0.930 . S
H975 C987 0.930 1_545 S
H976 C990 0.930 . S
H977 C992 0.893 1_545 S
H978 C992 0.931 1_545 S
H979 C992 0.976 . S
C980 H972 0.930 1_565 S
C980 C981 1.378 1_565 S
C980 C982 1.385 . S
C981 C980 1.378 1_545 S
C981 C987 1.390 1_545 S
C982 H973 0.930 . S
C982 C980 1.385 . S
C982 C983 1.372 . S
C983 C982 1.372 . S
C983 C984 1.400 . S
C983 C988 1.490 . S
C984 H974 0.930 . S
C984 C983 1.400 . S
C984 C987 1.386 . S
H985 C1001 0.930 . S
H986 C1002 0.931 . S
C987 H975 0.930 1_565 S
C987 C981 1.390 1_565 S
C987 C984 1.386 . S
C988 C983 1.490 . S
C988 C990 1.395 . S
C988 C991 1.403 . S
H989 C995 0.930 . S
C990 H976 0.930 . S
C990 C988 1.395 . S
C990 C993 1.403 . S
C991 C988 1.403 . S
C991 C992 1.575 . S
C991 C995 1.400 . S
C992 H977 0.893 1_565 S
C992 H978 0.931 1_565 S
C992 H979 0.976 . S
C992 C991 1.575 . S
C993 C990 1.403 . S
C993 C994 1.392 . S
C993 C997 1.495 . S
C994 C993 1.392 . S
C994 C995 1.385 . S
C994 C996 1.478 . S
C995 H989 0.930 . S
C995 C991 1.400 . S
C995 C994 1.385 . S
C996 C994 1.478 . S
C996 C998 1.381 . S
C996 C1002 1.383 . S
C997 C993 1.495 . S
C997 H1003 0.959 . S
C997 H1004 0.961 . S
C997 H1005 0.960 . S
C998 C996 1.381 . S
C998 C999 1.394 . S
C998 H1006 0.930 . S
C999 C998 1.394 . S
C999 C1000 1.383 . S
C999 H1007 0.929 . S
C1000 C999 1.383 . S
C1000 C1001 1.377 . S
C1001 H985 0.930 . S
C1001 C1000 1.377 . S
C1001 C1002 1.379 . S
C1002 H986 0.931 . S
C1002 C996 1.383 . S
C1002 C1001 1.379 . S
H1003 C997 0.959 . S
H1004 C997 0.961 . S
H1005 C997 0.960 . S
H1006 C998 0.930 . S
H1007 C999 0.929 . S
H1008 C1016 0.929 . S
H1009 C1018 0.930 . S
H1010 C1020 0.930 . S
H1011 C1023 0.929 . S
H1012 C1026 0.930 . S
H1013 C1028 0.960 . S
H1014 C1028 0.960 . S
H1015 C1028 0.960 . S
C1016 H1008 0.929 . S
C1016 C1017 1.377 . S
C1016 C1018 1.384 . S
C1017 C1016 1.377 . S
C1017 C1023 1.390 . S
C1018 H1009 0.930 . S
C1018 C1016 1.384 . S
C1018 C1019 1.372 . S
C1019 C1018 1.372 . S
C1019 C1020 1.400 . S
C1019 C1024 1.490 . S
C1020 H1010 0.930 . S
C1020 C1019 1.400 . S
C1020 C1023 1.386 . S
H1021 C1037 0.930 . S
H1022 C1038 0.931 . S
C1023 H1011 0.929 . S
C1023 C1017 1.390 . S
C1023 C1020 1.386 . S
C1024 C1019 1.490 . S
C1024 C1026 1.395 . S
C1024 C1027 1.403 . S
H1025 C1031 0.930 . S
C1026 H1012 0.930 . S
C1026 C1024 1.395 . S
C1026 C1029 1.403 . S
C1027 C1024 1.403 . S
C1027 C1028 1.524 . S
C1027 C1031 1.400 . S
C1028 H1013 0.960 . S
C1028 H1014 0.960 . S
C1028 H1015 0.960 . S
C1028 C1027 1.524 . S
C1029 C1026 1.403 . S
C1029 C1030 1.392 . S
C1029 C1033 1.495 . S
C1030 C1029 1.392 . S
C1030 C1031 1.385 . S
C1030 C1032 1.478 . S
C1031 H1025 0.930 . S
C1031 C1027 1.400 . S
C1031 C1030 1.385 . S
C1032 C1030 1.478 . S
C1032 C1034 1.381 . S
C1032 C1038 1.383 . S
C1033 C1029 1.495 . S
C1033 H1039 0.959 . S
C1033 H1040 0.961 . S
C1033 H1041 0.960 . S
C1034 C1032 1.381 . S
C1034 C1035 1.432 . S
C1034 H1042 0.930 . S
C1035 C1034 1.432 . S
C1035 C1036 1.367 1_455 S
C1035 H1043 0.910 1_455 S
C1036 C1035 1.367 1_655 S
C1036 C1037 1.377 1_655 S
C1037 H1021 0.930 . S
C1037 C1036 1.377 1_455 S
C1037 C1038 1.379 . S
C1038 H1022 0.931 . S
C1038 C1032 1.383 . S
C1038 C1037 1.379 . S
H1039 C1033 0.959 . S
H1040 C1033 0.961 . S
H1041 C1033 0.960 . S
H1042 C1034 0.930 . S
H1043 C1035 0.910 1_655 S
H1044 C1052 0.929 . S
H1045 C1054 0.930 . S
H1046 C1056 0.930 . S
H1047 C1059 0.929 . S
H1048 C1062 0.930 . S
H1049 C1064 0.960 . S
H1050 C1064 0.960 . S
H1051 C1064 0.960 . S
C1052 H1044 0.929 . S
C1052 C1053 1.377 . S
C1052 C1054 1.384 . S
C1053 C1052 1.377 . S
C1053 C1059 1.390 . S
C1054 H1045 0.930 . S
C1054 C1052 1.384 . S
C1054 C1055 1.372 . S
C1055 C1054 1.372 . S
C1055 C1056 1.400 . S
C1055 C1060 1.490 . S
C1056 H1046 0.930 . S
C1056 C1055 1.400 . S
C1056 C1059 1.386 . S
H1057 C1073 0.930 . S
H1058 C1074 0.931 . S
C1059 H1047 0.929 . S
C1059 C1053 1.390 . S
C1059 C1056 1.386 . S
C1060 C1055 1.490 . S
C1060 C1062 1.395 . S
C1060 C1063 1.403 . S
H1061 C1067 0.930 . S
C1062 H1048 0.930 . S
C1062 C1060 1.395 . S
C1062 C1065 1.403 . S
C1063 C1060 1.403 . S
C1063 C1064 1.524 . S
C1063 C1067 1.400 . S
C1064 H1049 0.960 . S
C1064 H1050 0.960 . S
C1064 H1051 0.960 . S
C1064 C1063 1.524 . S
C1065 C1062 1.403 . S
C1065 C1066 1.392 . S
C1065 C1069 1.495 . S
C1066 C1065 1.392 . S
C1066 C1067 1.385 . S
C1066 C1068 1.478 . S
C1067 H1061 0.930 . S
C1067 C1063 1.400 . S
C1067 C1066 1.385 . S
C1068 C1066 1.478 . S
C1068 C1070 1.381 . S
C1068 C1074 1.383 1_455 S
C1069 C1065 1.495 . S
C1069 H1075 0.959 . S
C1069 H1076 0.961 . S
C1069 H1077 0.960 . S
C1070 C1068 1.381 . S
C1070 C1071 1.394 . S
C1070 H1078 0.930 . S
C1071 C1070 1.394 . S
C1071 C1072 1.383 1_455 S
C1071 H1079 0.929 . S
C1072 C1071 1.383 1_655 S
C1072 C1073 1.377 . S
C1073 H1057 0.930 . S
C1073 C1072 1.377 . S
C1073 C1074 1.379 . S
C1074 H1058 0.931 . S
C1074 C1068 1.383 1_655 S
C1074 C1073 1.379 . S
H1075 C1069 0.959 . S
H1076 C1069 0.961 . S
H1077 C1069 0.960 . S
H1078 C1070 0.930 . S
H1079 C1071 0.929 . S
H1080 C1088 0.929 . S
H1081 C1090 0.930 . S
H1082 C1092 0.930 . S
H1083 C1095 0.929 . S
H1084 C1098 0.930 . S
H1085 C1100 0.960 . S
H1086 C1100 0.960 . S
H1087 C1100 0.960 . S
C1088 H1080 0.929 . S
C1088 C1089 1.377 . S
C1088 C1090 1.384 . S
C1089 C1088 1.377 . S
C1089 C1095 1.390 . S
C1090 H1081 0.930 . S
C1090 C1088 1.384 . S
C1090 C1091 1.372 . S
C1091 C1090 1.372 . S
C1091 C1092 1.400 . S
C1091 C1096 1.490 . S
C1092 H1082 0.930 . S
C1092 C1091 1.400 . S
C1092 C1095 1.386 . S
H1093 C1109 0.930 . S
H1094 C1110 0.931 . S
C1095 H1083 0.929 . S
C1095 C1089 1.390 . S
C1095 C1092 1.386 . S
C1096 C1091 1.490 . S
C1096 C1098 1.395 . S
C1096 C1099 1.403 . S
H1097 C1103 0.930 . S
C1098 H1084 0.930 . S
C1098 C1096 1.395 . S
C1098 C1101 1.403 . S
C1099 C1096 1.403 . S
C1099 C1100 1.524 . S
C1099 C1103 1.400 . S
C1100 H1085 0.960 . S
C1100 H1086 0.960 . S
C1100 H1087 0.960 . S
C1100 C1099 1.524 . S
C1101 C1098 1.403 . S
C1101 C1102 1.392 . S
C1101 C1105 1.495 . S
C1102 C1101 1.392 . S
C1102 C1103 1.385 . S
C1102 C1104 1.478 . S
C1103 H1097 0.930 . S
C1103 C1099 1.400 . S
C1103 C1102 1.385 . S
C1104 C1102 1.478 . S
C1104 C1106 1.381 . S
C1104 C1110 1.383 . S
C1105 C1101 1.495 . S
C1105 H1111 0.959 . S
C1105 H1112 0.961 . S
C1105 H1113 0.960 . S
C1106 C1104 1.381 . S
C1106 C1107 1.394 . S
C1106 H1114 0.930 . S
C1107 C1106 1.394 . S
C1107 C1108 1.383 . S
C1107 H1115 0.929 . S
C1108 C1107 1.383 . S
C1108 C1109 1.377 . S
C1109 H1093 0.930 . S
C1109 C1108 1.377 . S
C1109 C1110 1.379 . S
C1110 H1094 0.931 . S
C1110 C1104 1.383 . S
C1110 C1109 1.379 . S
H1111 C1105 0.959 . S
H1112 C1105 0.961 . S
H1113 C1105 0.960 . S
H1114 C1106 0.930 . S
H1115 C1107 0.929 . S
H1116 C1124 0.929 . S
H1117 C1126 0.930 . S
H1118 C1128 0.930 . S
H1119 C1131 0.929 . S
H1120 C1134 0.930 . S
H1121 C1136 0.960 . S
H1122 C1136 0.960 . S
H1123 C1136 0.960 . S
C1124 H1116 0.929 . S
C1124 C1125 1.377 . S
C1124 C1126 1.384 . S
C1125 C1124 1.377 . S
C1125 C1131 1.390 . S
C1126 H1117 0.930 . S
C1126 C1124 1.384 . S
C1126 C1127 1.372 . S
C1127 C1126 1.372 . S
C1127 C1128 1.400 . S
C1127 C1132 1.490 . S
C1128 H1118 0.930 . S
C1128 C1127 1.400 . S
C1128 C1131 1.386 . S
H1129 C1145 0.930 . S
H1130 C1146 0.931 . S
C1131 H1119 0.929 . S
C1131 C1125 1.390 . S
C1131 C1128 1.386 . S
C1132 C1127 1.490 . S
C1132 C1134 1.395 . S
C1132 C1135 1.403 . S
H1133 C1139 0.930 . S
C1134 H1120 0.930 . S
C1134 C1132 1.395 . S
C1134 C1137 1.403 . S
C1135 C1132 1.403 . S
C1135 C1136 1.524 . S
C1135 C1139 1.400 . S
C1136 H1121 0.960 . S
C1136 H1122 0.960 . S
C1136 H1123 0.960 . S
C1136 C1135 1.524 . S
C1137 C1134 1.403 . S
C1137 C1138 1.392 . S
C1137 C1141 1.495 . S
C1138 C1137 1.392 . S
C1138 C1139 1.385 . S
C1138 C1140 1.478 . S
C1139 H1133 0.930 . S
C1139 C1135 1.400 . S
C1139 C1138 1.385 . S
C1140 C1138 1.478 . S
C1140 C1142 1.381 . S
C1140 C1146 1.383 . S
C1141 C1137 1.495 . S
C1141 H1147 0.959 . S
C1141 H1148 0.961 . S
C1141 H1149 0.960 . S
C1142 C1140 1.381 . S
C1142 C1143 1.394 1_565 S
C1142 H1150 0.930 . S
C1143 C1142 1.394 1_545 S
C1143 C1144 1.383 . S
C1143 H1151 0.929 . S
C1144 C1143 1.383 . S
C1144 C1145 1.377 1_545 S
C1145 H1129 0.930 . S
C1145 C1144 1.377 1_565 S
C1145 C1146 1.379 . S
C1146 H1130 0.931 . S
C1146 C1140 1.383 . S
C1146 C1145 1.379 . S
H1147 C1141 0.959 . S
H1148 C1141 0.961 . S
H1149 C1141 0.960 . S
H1150 C1142 0.930 . S
H1151 C1143 0.929 . S
H1152 C1160 0.929 . S
H1153 C1162 0.930 . S
H1154 C1164 0.930 . S
H1155 C1167 0.929 . S
H1156 C1170 0.930 . S
H1157 C1172 0.960 . S
H1158 C1172 0.960 . S
H1159 C1172 0.960 . S
C1160 H1152 0.929 . S
C1160 C1161 1.377 . S
C1160 C1162 1.384 . S
C1161 C1160 1.377 . S
C1161 C1167 1.390 . S
C1162 H1153 0.930 . S
C1162 C1160 1.384 . S
C1162 C1163 1.372 . S
C1163 C1162 1.372 . S
C1163 C1164 1.400 . S
C1163 C1168 1.490 . S
C1164 H1154 0.930 . S
C1164 C1163 1.400 . S
C1164 C1167 1.386 . S
H1165 C1181 0.930 . S
H1166 C1182 0.931 . S
C1167 H1155 0.929 . S
C1167 C1161 1.390 . S
C1167 C1164 1.386 . S
C1168 C1163 1.490 . S
C1168 C1170 1.395 . S
C1168 C1171 1.403 . S
H1169 C1175 0.930 . S
C1170 H1156 0.930 . S
C1170 C1168 1.395 . S
C1170 C1173 1.403 . S
C1171 C1168 1.403 . S
C1171 C1172 1.524 . S
C1171 C1175 1.400 . S
C1172 H1157 0.960 . S
C1172 H1158 0.960 . S
C1172 H1159 0.960 . S
C1172 C1171 1.524 . S
C1173 C1170 1.403 . S
C1173 C1174 1.392 . S
C1173 C1177 1.495 . S
C1174 C1173 1.392 . S
C1174 C1175 1.385 . S
C1174 C1176 1.478 . S
C1175 H1169 0.930 . S
C1175 C1171 1.400 . S
C1175 C1174 1.385 . S
C1176 C1174 1.478 . S
C1176 C1178 1.381 . S
C1176 C1182 1.383 . S
C1177 C1173 1.495 . S
C1177 H1183 0.959 . S
C1177 H1184 0.961 . S
C1177 H1185 0.960 . S
C1178 C1176 1.381 . S
C1178 C1179 1.394 . S
C1178 H1186 0.930 . S
C1179 C1178 1.394 . S
C1179 C1180 1.383 . S
C1179 H1187 0.929 . S
C1180 C1179 1.383 . S
C1180 C1181 1.377 . S
C1181 H1165 0.930 . S
C1181 C1180 1.377 . S
C1181 C1182 1.379 . S
C1182 H1166 0.931 . S
C1182 C1176 1.383 . S
C1182 C1181 1.379 . S
H1183 C1177 0.959 . S
H1184 C1177 0.961 . S
H1185 C1177 0.960 . S
H1186 C1178 0.930 . S
H1187 C1179 0.929 . S
H1188 C1196 0.929 . S
H1189 C1198 0.930 . S
H1190 C1200 0.930 . S
H1191 C1203 0.929 . S
H1192 C1206 0.930 . S
H1193 C1208 0.960 . S
H1194 C1208 0.960 . S
H1195 C1208 0.960 . S
C1196 H1188 0.929 . S
C1196 C1197 1.377 . S
C1196 C1198 1.384 . S
C1197 C1196 1.377 . S
C1197 C1203 1.390 . S
C1198 H1189 0.930 . S
C1198 C1196 1.384 . S
C1198 C1199 1.372 . S
C1199 C1198 1.372 . S
C1199 C1200 1.400 . S
C1199 C1204 1.490 . S
C1200 H1190 0.930 . S
C1200 C1199 1.400 . S
C1200 C1203 1.386 . S
H1201 C1217 0.930 . S
H1202 C1218 0.931 . S
C1203 H1191 0.929 . S
C1203 C1197 1.390 . S
C1203 C1200 1.386 . S
C1204 C1199 1.490 . S
C1204 C1206 1.395 . S
C1204 C1207 1.403 . S
H1205 C1211 0.930 . S
C1206 H1192 0.930 . S
C1206 C1204 1.395 . S
C1206 C1209 1.403 . S
C1207 C1204 1.403 . S
C1207 C1208 1.524 . S
C1207 C1211 1.400 . S
C1208 H1193 0.960 . S
C1208 H1194 0.960 . S
C1208 H1195 0.960 . S
C1208 C1207 1.524 . S
C1209 C1206 1.403 . S
C1209 C1210 1.392 . S
C1209 C1213 1.495 . S
C1210 C1209 1.392 . S
C1210 C1211 1.385 . S
C1210 C1212 1.478 . S
C1211 H1205 0.930 . S
C1211 C1207 1.400 . S
C1211 C1210 1.385 . S
C1212 C1210 1.478 . S
C1212 C1214 1.381 . S
C1212 C1218 1.383 . S
C1213 C1209 1.495 . S
C1213 H1219 0.959 . S
C1213 H1220 0.961 . S
C1213 H1221 0.960 . S
C1214 C1212 1.381 . S
C1214 C1215 1.394 . S
C1214 H1222 0.930 . S
C1215 C1214 1.394 . S
C1215 C1216 1.383 . S
C1215 H1223 0.929 . S
C1216 C1215 1.383 . S
C1216 C1217 1.377 . S
C1217 H1201 0.930 . S
C1217 C1216 1.377 . S
C1217 C1218 1.379 . S
C1218 H1202 0.931 . S
C1218 C1212 1.383 . S
C1218 C1217 1.379 . S
H1219 C1213 0.959 . S
H1220 C1213 0.961 . S
H1221 C1213 0.960 . S
H1222 C1214 0.930 . S
H1223 C1215 0.929 . S
H1224 C1232 0.929 . S
H1225 C1234 0.930 . S
H1226 C1236 0.930 . S
H1227 C1239 0.929 . S
H1228 C1242 0.930 . S
H1229 C1244 0.960 . S
H1230 C1244 0.960 . S
H1231 C1244 0.960 . S
C1232 H1224 0.929 . S
C1232 C1233 1.377 . S
C1232 C1234 1.384 . S
C1233 C1232 1.377 . S
C1233 C1239 1.390 . S
C1234 H1225 0.930 . S
C1234 C1232 1.384 . S
C1234 C1235 1.372 . S
C1235 C1234 1.372 . S
C1235 C1236 1.400 . S
C1235 C1240 1.490 . S
C1236 H1226 0.930 . S
C1236 C1235 1.400 . S
C1236 C1239 1.386 . S
H1237 C1253 0.930 . S
H1238 C1254 0.931 . S
C1239 H1227 0.929 . S
C1239 C1233 1.390 . S
C1239 C1236 1.386 . S
C1240 C1235 1.490 . S
C1240 C1242 1.395 . S
C1240 C1243 1.403 . S
H1241 C1247 0.930 . S
C1242 H1228 0.930 . S
C1242 C1240 1.395 . S
C1242 C1245 1.403 . S
C1243 C1240 1.403 . S
C1243 C1244 1.524 . S
C1243 C1247 1.400 . S
C1244 H1229 0.960 . S
C1244 H1230 0.960 . S
C1244 H1231 0.960 . S
C1244 C1243 1.524 . S
C1245 C1242 1.403 . S
C1245 C1246 1.392 . S
C1245 C1249 1.495 . S
C1246 C1245 1.392 . S
C1246 C1247 1.385 . S
C1246 C1248 1.478 . S
C1247 H1241 0.930 . S
C1247 C1243 1.400 . S
C1247 C1246 1.385 . S
C1248 C1246 1.478 . S
C1248 C1250 1.381 . S
C1248 C1254 1.383 . S
C1249 C1245 1.495 . S
C1249 H1255 0.959 . S
C1249 H1256 0.961 . S
C1249 H1257 0.960 . S
C1250 C1248 1.381 . S
C1250 C1251 1.394 . S
C1250 H1258 0.930 . S
C1251 C1250 1.394 . S
C1251 C1252 1.383 . S
C1251 H1259 0.929 . S
C1252 C1251 1.383 . S
C1252 C1253 1.377 . S
C1253 H1237 0.930 . S
C1253 C1252 1.377 . S
C1253 C1254 1.379 . S
C1254 H1238 0.931 . S
C1254 C1248 1.383 . S
C1254 C1253 1.379 . S
H1255 C1249 0.959 . S
H1256 C1249 0.961 . S
H1257 C1249 0.960 . S
H1258 C1250 0.930 . S
H1259 C1251 0.929 . S
H1260 C1268 0.929 . S
H1261 C1270 0.930 . S
H1262 C1272 0.930 . S
H1263 C1275 0.929 . S
H1264 C1278 0.930 . S
H1265 C1280 0.960 . S
H1266 C1280 0.960 . S
H1267 C1280 0.960 . S
C1268 H1260 0.929 . S
C1268 C1269 1.377 . S
C1268 C1270 1.384 . S
C1269 C1268 1.377 . S
C1269 C1275 1.390 . S
C1270 H1261 0.930 . S
C1270 C1268 1.384 . S
C1270 C1271 1.372 . S
C1271 C1270 1.372 . S
C1271 C1272 1.400 . S
C1271 C1276 1.490 . S
C1272 H1262 0.930 . S
C1272 C1271 1.400 . S
C1272 C1275 1.386 . S
H1273 C1289 0.930 . S
H1274 C1290 0.931 . S
C1275 H1263 0.929 . S
C1275 C1269 1.390 . S
C1275 C1272 1.386 . S
C1276 C1271 1.490 . S
C1276 C1278 1.395 . S
C1276 C1279 1.403 . S
H1277 C1283 0.930 . S
C1278 H1264 0.930 . S
C1278 C1276 1.395 . S
C1278 C1281 1.403 . S
C1279 C1276 1.403 . S
C1279 C1280 1.524 . S
C1279 C1283 1.400 . S
C1280 H1265 0.960 . S
C1280 H1266 0.960 . S
C1280 H1267 0.960 . S
C1280 C1279 1.524 . S
C1281 C1278 1.403 . S
C1281 C1282 1.392 . S
C1281 C1285 1.495 . S
C1282 C1281 1.392 . S
C1282 C1283 1.385 . S
C1282 C1284 1.478 . S
C1283 H1277 0.930 . S
C1283 C1279 1.400 . S
C1283 C1282 1.385 . S
C1284 C1282 1.478 . S
C1284 C1286 1.381 . S
C1284 C1290 1.383 . S
C1285 C1281 1.495 . S
C1285 H1291 0.959 . S
C1285 H1292 0.961 . S
C1285 H1293 0.960 . S
C1286 C1284 1.381 . S
C1286 C1287 1.394 1_554 S
C1286 H1294 0.930 . S
C1287 C1286 1.394 1_556 S
C1287 C1288 1.383 . S
C1287 H1295 0.929 . S
C1288 C1287 1.383 . S
C1288 C1289 1.377 . S
C1289 H1273 0.930 . S
C1289 C1288 1.377 . S
C1289 C1290 1.379 1_556 S
C1290 H1274 0.931 . S
C1290 C1284 1.383 . S
C1290 C1289 1.379 1_554 S
H1291 C1285 0.959 . S
H1292 C1285 0.961 . S
H1293 C1285 0.960 . S
H1294 C1286 0.930 . S
H1295 C1287 0.929 . S
H1296 C1304 0.929 . S
H1297 C1306 0.930 . S
H1298 C1308 0.930 . S
H1299 C1311 0.929 . S
H1300 C1314 0.930 . S
H1301 C1316 0.960 . S
H1302 C1316 0.960 . S
H1303 C1316 0.960 . S
C1304 H1296 0.929 . S
C1304 C1305 1.377 . S
C1304 C1306 1.384 . S
C1305 C1304 1.377 . S
C1305 C1311 1.390 . S
C1306 H1297 0.930 . S
C1306 C1304 1.384 . S
C1306 C1307 1.372 . S
C1307 C1306 1.372 . S
C1307 C1308 1.400 . S
C1307 C1312 1.490 . S
C1308 H1298 0.930 . S
C1308 C1307 1.400 . S
C1308 C1311 1.386 . S
H1309 C1325 0.930 . S
H1310 C1326 0.931 . S
C1311 H1299 0.929 . S
C1311 C1305 1.390 . S
C1311 C1308 1.386 . S
C1312 C1307 1.490 . S
C1312 C1314 1.395 . S
C1312 C1315 1.403 . S
H1313 C1319 0.930 . S
C1314 H1300 0.930 . S
C1314 C1312 1.395 . S
C1314 C1317 1.403 . S
C1315 C1312 1.403 . S
C1315 C1316 1.524 . S
C1315 C1319 1.400 . S
C1316 H1301 0.960 . S
C1316 H1302 0.960 . S
C1316 H1303 0.960 . S
C1316 C1315 1.524 . S
C1317 C1314 1.403 . S
C1317 C1318 1.392 . S
C1317 C1321 1.495 . S
C1318 C1317 1.392 . S
C1318 C1319 1.385 . S
C1318 C1320 1.478 . S
C1319 H1313 0.930 . S
C1319 C1315 1.400 . S
C1319 C1318 1.385 . S
C1320 C1318 1.478 . S
C1320 C1322 1.381 . S
C1320 C1326 1.383 . S
C1321 C1317 1.495 . S
C1321 H1327 0.959 . S
C1321 H1328 0.961 . S
C1321 H1329 0.960 . S
C1322 C1320 1.381 . S
C1322 C1323 1.394 1_554 S
C1322 H1330 0.930 . S
C1323 C1322 1.394 1_556 S
C1323 C1324 1.383 . S
C1323 H1331 0.929 . S
C1324 C1323 1.383 . S
C1324 C1325 1.377 . S
C1325 H1309 0.930 . S
C1325 C1324 1.377 . S
C1325 C1326 1.379 1_556 S
C1326 H1310 0.931 . S
C1326 C1320 1.383 . S
C1326 C1325 1.379 1_554 S
H1327 C1321 0.959 . S
H1328 C1321 0.961 . S
H1329 C1321 0.960 . S
H1330 C1322 0.930 . S
H1331 C1323 0.929 . S
H1332 C1340 0.929 . S
H1333 C1342 0.930 . S
H1334 C1344 0.930 . S
H1335 C1347 0.929 . S
H1336 C1350 0.930 . S
H1337 C1352 0.960 . S
H1338 C1352 0.960 . S
H1339 C1352 0.960 . S
C1340 H1332 0.929 . S
C1340 C1341 1.377 . S
C1340 C1342 1.384 . S
C1341 C1340 1.377 . S
C1341 C1347 1.390 . S
C1342 H1333 0.930 . S
C1342 C1340 1.384 . S
C1342 C1343 1.372 . S
C1343 C1342 1.372 . S
C1343 C1344 1.400 . S
C1343 C1348 1.490 . S
C1344 H1334 0.930 . S
C1344 C1343 1.400 . S
C1344 C1347 1.386 . S
H1345 C1361 0.930 . S
H1346 C1362 0.931 . S
C1347 H1335 0.929 . S
C1347 C1341 1.390 . S
C1347 C1344 1.386 . S
C1348 C1343 1.490 . S
C1348 C1350 1.395 . S
C1348 C1351 1.403 . S
H1349 C1355 0.930 . S
C1350 H1336 0.930 . S
C1350 C1348 1.395 . S
C1350 C1353 1.403 . S
C1351 C1348 1.403 . S
C1351 C1352 1.524 . S
C1351 C1355 1.400 . S
C1352 H1337 0.960 . S
C1352 H1338 0.960 . S
C1352 H1339 0.960 . S
C1352 C1351 1.524 . S
C1353 C1350 1.403 . S
C1353 C1354 1.392 . S
C1353 C1357 1.495 . S
C1354 C1353 1.392 . S
C1354 C1355 1.385 . S
C1354 C1356 1.478 . S
C1355 H1349 0.930 . S
C1355 C1351 1.400 . S
C1355 C1354 1.385 . S
C1356 C1354 1.478 . S
C1356 C1358 1.381 . S
C1356 C1362 1.383 . S
C1357 C1353 1.495 . S
C1357 H1363 0.959 . S
C1357 H1364 0.961 . S
C1357 H1365 0.960 . S
C1358 C1356 1.381 . S
C1358 C1359 1.394 1_554 S
C1358 H1366 0.930 . S
C1359 C1358 1.394 1_556 S
C1359 C1360 1.383 . S
C1359 H1367 0.929 . S
C1360 C1359 1.383 . S
C1360 C1361 1.377 . S
C1361 H1345 0.930 . S
C1361 C1360 1.377 . S
C1361 C1362 1.379 1_556 S
C1362 H1346 0.931 . S
C1362 C1356 1.383 . S
C1362 C1361 1.379 1_554 S
H1363 C1357 0.959 . S
H1364 C1357 0.961 . S
H1365 C1357 0.960 . S
H1366 C1358 0.930 . S
H1367 C1359 0.929 . S
H1368 C1376 0.929 . S
H1369 C1378 0.930 . S
H1370 C1380 0.930 . S
H1371 C1383 0.929 . S
H1372 C1386 0.930 . S
H1373 C1388 0.960 . S
H1374 C1388 0.960 . S
H1375 C1388 0.960 . S
C1376 H1368 0.929 . S
C1376 C1377 1.377 . S
C1376 C1378 1.384 . S
C1377 C1376 1.377 . S
C1377 C1383 1.390 . S
C1378 H1369 0.930 . S
C1378 C1376 1.384 . S
C1378 C1379 1.372 . S
C1379 C1378 1.372 . S
C1379 C1380 1.400 . S
C1379 C1384 1.490 . S
C1380 H1370 0.930 . S
C1380 C1379 1.400 . S
C1380 C1383 1.386 . S
H1381 C1397 0.930 . S
H1382 C1398 0.931 . S
C1383 H1371 0.929 . S
C1383 C1377 1.390 . S
C1383 C1380 1.386 . S
C1384 C1379 1.490 . S
C1384 C1386 1.395 . S
C1384 C1387 1.403 . S
H1385 C1391 0.930 . S
C1386 H1372 0.930 . S
C1386 C1384 1.395 . S
C1386 C1389 1.403 . S
C1387 C1384 1.403 . S
C1387 C1388 1.524 . S
C1387 C1391 1.400 . S
C1388 H1373 0.960 . S
C1388 H1374 0.960 . S
C1388 H1375 0.960 . S
C1388 C1387 1.524 . S
C1389 C1386 1.403 . S
C1389 C1390 1.392 . S
C1389 C1393 1.495 . S
C1390 C1389 1.392 . S
C1390 C1391 1.385 . S
C1390 C1392 1.478 . S
C1391 H1385 0.930 . S
C1391 C1387 1.400 . S
C1391 C1390 1.385 . S
C1392 C1390 1.478 . S
C1392 C1394 1.381 . S
C1392 C1398 1.383 . S
C1393 C1389 1.495 . S
C1393 H1399 0.959 . S
C1393 H1400 0.961 . S
C1393 H1401 0.960 . S
C1394 C1392 1.381 . S
C1394 C1395 1.394 . S
C1394 H1402 0.930 . S
C1395 C1394 1.394 . S
C1395 C1396 1.383 . S
C1395 H1403 0.929 . S
C1396 C1395 1.383 . S
C1396 C1397 1.377 . S
C1397 H1381 0.930 . S
C1397 C1396 1.377 . S
C1397 C1398 1.379 . S
C1398 H1382 0.931 . S
C1398 C1392 1.383 . S
C1398 C1397 1.379 . S
H1399 C1393 0.959 . S
H1400 C1393 0.961 . S
H1401 C1393 0.960 . S
H1402 C1394 0.930 . S
H1403 C1395 0.929 . S
H1404 C1412 0.929 . S
H1405 C1414 0.930 . S
H1406 C1416 0.930 . S
H1407 C1419 0.929 . S
H1408 C1422 0.930 . S
H1409 C1424 0.960 . S
H1410 C1424 0.960 . S
H1411 C1424 0.960 . S
C1412 H1404 0.929 . S
C1412 C1413 1.377 . S
C1412 C1414 1.384 . S
C1413 C1412 1.377 . S
C1413 C1419 1.390 . S
C1414 H1405 0.930 . S
C1414 C1412 1.384 . S
C1414 C1415 1.372 . S
C1415 C1414 1.372 . S
C1415 C1416 1.400 . S
C1415 C1420 1.490 . S
C1416 H1406 0.930 . S
C1416 C1415 1.400 . S
C1416 C1419 1.386 . S
H1417 C1433 0.930 . S
H1418 C1434 0.931 . S
C1419 H1407 0.929 . S
C1419 C1413 1.390 . S
C1419 C1416 1.386 . S
C1420 C1415 1.490 . S
C1420 C1422 1.395 . S
C1420 C1423 1.403 . S
H1421 C1427 0.930 . S
C1422 H1408 0.930 . S
C1422 C1420 1.395 . S
C1422 C1425 1.403 . S
C1423 C1420 1.403 . S
C1423 C1424 1.524 . S
C1423 C1427 1.400 . S
C1424 H1409 0.960 . S
C1424 H1410 0.960 . S
C1424 H1411 0.960 . S
C1424 C1423 1.524 . S
C1425 C1422 1.403 . S
C1425 C1426 1.392 . S
C1425 C1429 1.495 . S
C1426 C1425 1.392 . S
C1426 C1427 1.385 . S
C1426 C1428 1.478 . S
C1427 H1421 0.930 . S
C1427 C1423 1.400 . S
C1427 C1426 1.385 . S
C1428 C1426 1.478 . S
C1428 C1430 1.381 . S
C1428 C1434 1.383 . S
C1429 C1425 1.495 . S
C1429 H1435 0.959 . S
C1429 H1436 0.961 . S
C1429 H1437 0.960 . S
C1430 C1428 1.381 . S
C1430 C1431 1.394 . S
C1430 H1438 0.930 . S
C1431 C1430 1.394 . S
C1431 C1432 1.383 . S
C1431 H1439 0.929 . S
C1432 C1431 1.383 . S
C1432 C1433 1.377 . S
C1433 H1417 0.930 . S
C1433 C1432 1.377 . S
C1433 C1434 1.379 . S
C1434 H1418 0.931 . S
C1434 C1428 1.383 . S
C1434 C1433 1.379 . S
H1435 C1429 0.959 . S
H1436 C1429 0.961 . S
H1437 C1429 0.960 . S
H1438 C1430 0.930 . S
H1439 C1431 0.929 . S
H1440 C1448 0.929 . S
H1441 C1450 0.930 . S
H1442 C1452 0.930 . S
H1443 C1455 0.929 . S
H1444 C1458 0.930 . S
H1445 C1460 0.960 . S
H1446 C1460 0.960 . S
H1447 C1460 0.960 . S
C1448 H1440 0.929 . S
C1448 C1449 1.377 . S
C1448 C1450 1.384 . S
C1449 C1448 1.377 . S
C1449 C1455 1.390 . S
C1450 H1441 0.930 . S
C1450 C1448 1.384 . S
C1450 C1451 1.372 . S
C1451 C1450 1.372 . S
C1451 C1452 1.400 . S
C1451 C1456 1.490 . S
C1452 H1442 0.930 . S
C1452 C1451 1.400 . S
C1452 C1455 1.386 . S
H1453 C1469 0.930 . S
H1454 C1470 0.931 . S
C1455 H1443 0.929 . S
C1455 C1449 1.390 . S
C1455 C1452 1.386 . S
C1456 C1451 1.490 . S
C1456 C1458 1.395 . S
C1456 C1459 1.403 . S
H1457 C1463 0.930 . S
C1458 H1444 0.930 . S
C1458 C1456 1.395 . S
C1458 C1461 1.403 . S
C1459 C1456 1.403 . S
C1459 C1460 1.524 . S
C1459 C1463 1.400 . S
C1460 H1445 0.960 . S
C1460 H1446 0.960 . S
C1460 H1447 0.960 . S
C1460 C1459 1.524 . S
C1461 C1458 1.403 . S
C1461 C1462 1.392 . S
C1461 C1465 1.495 . S
C1462 C1461 1.392 . S
C1462 C1463 1.385 . S
C1462 C1464 1.478 . S
C1463 H1457 0.930 . S
C1463 C1459 1.400 . S
C1463 C1462 1.385 . S
C1464 C1462 1.478 . S
C1464 C1466 1.381 . S
C1464 C1470 1.383 . S
C1465 C1461 1.495 . S
C1465 H1471 0.959 . S
C1465 H1472 0.961 . S
C1465 H1473 0.960 . S
C1466 C1464 1.381 . S
C1466 C1467 1.394 . S
C1466 H1474 0.930 . S
C1467 C1466 1.394 . S
C1467 C1468 1.383 . S
C1467 H1475 0.929 . S
C1468 C1467 1.383 . S
C1468 C1469 1.377 . S
C1469 H1453 0.930 . S
C1469 C1468 1.377 . S
C1469 C1470 1.379 . S
C1470 H1454 0.931 . S
C1470 C1464 1.383 . S
C1470 C1469 1.379 . S
H1471 C1465 0.959 . S
H1472 C1465 0.961 . S
H1473 C1465 0.960 . S
H1474 C1466 0.930 . S
H1475 C1467 0.929 . S
H1476 C1484 0.929 . S
H1477 C1486 0.930 . S
H1478 C1488 0.930 . S
H1479 C1491 0.929 . S
H1480 C1494 0.930 . S
H1481 C1496 0.960 . S
H1482 C1496 0.960 . S
H1483 C1496 0.960 . S
C1484 H1476 0.929 . S
C1484 C1485 1.377 . S
C1484 C1486 1.384 1_554 S
C1485 C1484 1.377 . S
C1485 C1491 1.390 . S
C1486 H1477 0.930 . S
C1486 C1484 1.384 1_556 S
C1486 C1487 1.372 . S
C1487 C1486 1.372 . S
C1487 C1488 1.400 . S
C1487 C1492 1.490 . S
C1488 H1478 0.930 . S
C1488 C1487 1.400 . S
C1488 C1491 1.386 1_556 S
H1489 C1505 0.930 . S
H1490 C1506 0.931 . S
C1491 H1479 0.929 . S
C1491 C1485 1.390 . S
C1491 C1488 1.386 1_554 S
C1492 C1487 1.490 . S
C1492 C1494 1.395 . S
C1492 C1495 1.403 . S
H1493 C1499 0.930 . S
C1494 H1480 0.930 . S
C1494 C1492 1.395 . S
C1494 C1497 1.403 . S
C1495 C1492 1.403 . S
C1495 C1496 1.524 . S
C1495 C1499 1.400 . S
C1496 H1481 0.960 . S
C1496 H1482 0.960 . S
C1496 H1483 0.960 . S
C1496 C1495 1.524 . S
C1497 C1494 1.403 . S
C1497 C1498 1.392 . S
C1497 C1501 1.495 . S
C1498 C1497 1.392 . S
C1498 C1499 1.385 . S
C1498 C1500 1.478 . S
C1499 H1493 0.930 . S
C1499 C1495 1.400 . S
C1499 C1498 1.385 . S
C1500 C1498 1.478 . S
C1500 C1502 1.381 . S
C1500 C1506 1.383 . S
C1501 C1497 1.495 . S
C1501 H1507 0.959 . S
C1501 H1508 0.961 . S
C1501 H1509 0.960 . S
C1502 C1500 1.381 . S
C1502 C1503 1.394 . S
C1502 H1510 0.930 . S
C1503 C1502 1.394 . S
C1503 C1504 1.383 . S
C1503 H1511 0.929 . S
C1504 C1503 1.383 . S
C1504 C1505 1.377 . S
C1505 H1489 0.930 . S
C1505 C1504 1.377 . S
C1505 C1506 1.379 . S
C1506 H1490 0.931 . S
C1506 C1500 1.383 . S
C1506 C1505 1.379 . S
H1507 C1501 0.959 . S
H1508 C1501 0.961 . S
H1509 C1501 0.960 . S
H1510 C1502 0.930 . S
H1511 C1503 0.929 . S
H1512 C1520 0.929 . S
H1513 C1522 0.930 . S
H1514 C1524 0.930 . S
H1515 C1527 0.929 . S
H1516 C1530 0.930 . S
H1517 C1532 0.960 . S
H1518 C1532 0.960 . S
H1519 C1532 0.960 . S
C1520 H1512 0.929 . S
C1520 C1521 1.377 . S
C1520 C1522 1.384 1_554 S
C1521 C1520 1.377 . S
C1521 C1527 1.390 . S
C1522 H1513 0.930 . S
C1522 C1520 1.384 1_556 S
C1522 C1523 1.372 . S
C1523 C1522 1.372 . S
C1523 C1524 1.400 . S
C1523 C1528 1.490 . S
C1524 H1514 0.930 . S
C1524 C1523 1.400 . S
C1524 C1527 1.386 1_556 S
H1525 C1541 0.930 . S
H1526 C1542 0.931 . S
C1527 H1515 0.929 . S
C1527 C1521 1.390 . S
C1527 C1524 1.386 1_554 S
C1528 C1523 1.490 . S
C1528 C1530 1.395 . S
C1528 C1531 1.403 . S
H1529 C1535 0.930 . S
C1530 H1516 0.930 . S
C1530 C1528 1.395 . S
C1530 C1533 1.403 . S
C1531 C1528 1.403 . S
C1531 C1532 1.524 . S
C1531 C1535 1.400 . S
C1532 H1517 0.960 . S
C1532 H1518 0.960 . S
C1532 H1519 0.960 . S
C1532 C1531 1.524 . S
C1533 C1530 1.403 . S
C1533 C1534 1.392 . S
C1533 C1537 1.495 . S
C1534 C1533 1.392 . S
C1534 C1535 1.385 . S
C1534 C1536 1.478 . S
C1535 H1529 0.930 . S
C1535 C1531 1.400 . S
C1535 C1534 1.385 . S
C1536 C1534 1.478 . S
C1536 C1538 1.381 . S
C1536 C1542 1.383 . S
C1537 C1533 1.495 . S
C1537 H1543 0.959 . S
C1537 H1544 0.961 . S
C1537 H1545 0.960 . S
C1538 C1536 1.381 . S
C1538 C1539 1.394 . S
C1538 H1546 0.930 . S
C1539 C1538 1.394 . S
C1539 C1540 1.383 . S
C1539 H1547 0.929 . S
C1540 C1539 1.383 . S
C1540 C1541 1.377 . S
C1541 H1525 0.930 . S
C1541 C1540 1.377 . S
C1541 C1542 1.379 . S
C1542 H1526 0.931 . S
C1542 C1536 1.383 . S
C1542 C1541 1.379 . S
H1543 C1537 0.959 . S
H1544 C1537 0.961 . S
H1545 C1537 0.960 . S
H1546 C1538 0.930 . S
H1547 C1539 0.929 . S
H1548 C1556 0.929 . S
H1549 C1558 0.930 . S
H1550 C1560 0.930 . S
H1551 C1563 0.929 . S
H1552 C1566 0.930 . S
H1553 C1568 0.960 . S
H1554 C1568 0.960 . S
H1555 C1568 0.960 . S
C1556 H1548 0.929 . S
C1556 C1557 1.377 . S
C1556 C1558 1.384 . S
C1557 C1556 1.377 . S
C1557 C1563 1.390 . S
C1558 H1549 0.930 . S
C1558 C1556 1.384 . S
C1558 C1559 1.372 . S
C1559 C1558 1.372 . S
C1559 C1560 1.400 . S
C1559 C1564 1.490 . S
C1560 H1550 0.930 . S
C1560 C1559 1.400 . S
C1560 C1563 1.386 . S
H1561 C1577 0.930 . S
H1562 C1578 0.931 . S
C1563 H1551 0.929 . S
C1563 C1557 1.390 . S
C1563 C1560 1.386 . S
C1564 C1559 1.490 . S
C1564 C1566 1.395 . S
C1564 C1567 1.403 . S
H1565 C1571 0.930 . S
C1566 H1552 0.930 . S
C1566 C1564 1.395 . S
C1566 C1569 1.403 . S
C1567 C1564 1.403 . S
C1567 C1568 1.524 . S
C1567 C1571 1.400 . S
C1568 H1553 0.960 . S
C1568 H1554 0.960 . S
C1568 H1555 0.960 . S
C1568 C1567 1.524 . S
C1569 C1566 1.403 . S
C1569 C1570 1.392 . S
C1569 C1573 1.495 . S
C1570 C1569 1.392 . S
C1570 C1571 1.385 . S
C1570 C1572 1.478 . S
C1571 H1565 0.930 . S
C1571 C1567 1.400 . S
C1571 C1570 1.385 . S
C1572 C1570 1.478 . S
C1572 C1574 1.381 . S
C1572 C1578 1.383 . S
C1573 C1569 1.495 . S
C1573 H1579 0.959 . S
C1573 H1580 0.961 . S
C1573 H1581 0.960 . S
C1574 C1572 1.381 . S
C1574 C1575 1.394 1_556 S
C1574 H1582 0.930 . S
C1575 C1574 1.394 1_554 S
C1575 C1576 1.383 . S
C1575 H1583 0.929 . S
C1576 C1575 1.383 . S
C1576 C1577 1.377 . S
C1577 H1561 0.930 . S
C1577 C1576 1.377 . S
C1577 C1578 1.379 1_554 S
C1578 H1562 0.931 . S
C1578 C1572 1.383 . S
C1578 C1577 1.379 1_556 S
H1579 C1573 0.959 . S
H1580 C1573 0.961 . S
H1581 C1573 0.960 . S
H1582 C1574 0.930 . S
H1583 C1575 0.929 . S
H1584 C1592 0.929 . S
H1585 C1594 0.930 . S
H1586 C1596 0.930 . S
H1587 C1599 0.929 . S
H1588 C1602 0.930 . S
H1589 C1604 0.960 . S
H1590 C1604 0.960 . S
H1591 C1604 0.960 . S
C1592 H1584 0.929 . S
C1592 C1593 1.377 . S
C1592 C1594 1.384 . S
C1593 C1592 1.377 . S
C1593 C1599 1.390 . S
C1594 H1585 0.930 . S
C1594 C1592 1.384 . S
C1594 C1595 1.372 . S
C1595 C1594 1.372 . S
C1595 C1596 1.400 . S
C1595 C1600 1.490 . S
C1596 H1586 0.930 . S
C1596 C1595 1.400 . S
C1596 C1599 1.386 . S
H1597 C1613 0.930 . S
H1598 C1614 0.931 . S
C1599 H1587 0.929 . S
C1599 C1593 1.390 . S
C1599 C1596 1.386 . S
C1600 C1595 1.490 . S
C1600 C1602 1.395 1_455 S
C1600 C1603 1.403 . S
H1601 C1607 0.930 . S
C1602 H1588 0.930 . S
C1602 C1600 1.395 1_655 S
C1602 C1605 1.403 . S
C1603 C1600 1.403 . S
C1603 C1604 1.524 . S
C1603 C1607 1.400 . S
C1604 H1589 0.960 . S
C1604 H1590 0.960 . S
C1604 H1591 0.960 . S
C1604 C1603 1.524 . S
C1605 C1602 1.403 . S
C1605 C1606 1.392 . S
C1605 C1609 1.495 . S
C1606 C1605 1.392 . S
C1606 C1607 1.385 1_655 S
C1606 C1608 1.478 . S
C1607 H1601 0.930 . S
C1607 C1603 1.400 . S
C1607 C1606 1.385 1_455 S
C1608 C1606 1.478 . S
C1608 C1610 1.381 . S
C1608 C1614 1.383 . S
C1609 C1605 1.495 . S
C1609 H1615 0.959 . S
C1609 H1616 0.961 . S
C1609 H1617 0.960 . S
C1610 C1608 1.381 . S
C1610 C1611 1.394 . S
C1610 H1618 0.930 . S
C1611 C1610 1.394 . S
C1611 C1612 1.383 . S
C1611 H1619 0.929 . S
C1612 C1611 1.383 . S
C1612 C1613 1.377 . S
C1613 H1597 0.930 . S
C1613 C1612 1.377 . S
C1613 C1614 1.379 . S
C1614 H1598 0.931 . S
C1614 C1608 1.383 . S
C1614 C1613 1.379 . S
H1615 C1609 0.959 . S
H1616 C1609 0.961 . S
H1617 C1609 0.960 . S
H1618 C1610 0.930 . S
H1619 C1611 0.929 . S
H1620 C1628 0.929 . S
H1621 C1630 0.930 . S
H1622 C1632 0.930 . S
H1623 C1635 0.929 . S
H1624 C1638 0.930 . S
H1625 C1640 0.960 . S
H1626 C1640 0.960 . S
H1627 C1640 0.960 . S
C1628 H1620 0.929 . S
C1628 C1629 1.377 . S
C1628 C1630 1.384 . S
C1629 C1628 1.377 . S
C1629 C1635 1.390 . S
C1630 H1621 0.930 . S
C1630 C1628 1.384 . S
C1630 C1631 1.372 . S
C1631 C1630 1.372 . S
C1631 C1632 1.400 . S
C1631 C1636 1.490 . S
C1632 H1622 0.930 . S
C1632 C1631 1.400 . S
C1632 C1635 1.386 . S
H1633 C1649 0.930 . S
H1634 C1650 0.931 . S
C1635 H1623 0.929 . S
C1635 C1629 1.390 . S
C1635 C1632 1.386 . S
C1636 C1631 1.490 . S
C1636 C1638 1.395 . S
C1636 C1639 1.403 . S
H1637 C1643 0.930 . S
C1638 H1624 0.930 . S
C1638 C1636 1.395 . S
C1638 C1641 1.403 . S
C1639 C1636 1.403 . S
C1639 C1640 1.524 . S
C1639 C1643 1.400 . S
C1640 H1625 0.960 . S
C1640 H1626 0.960 . S
C1640 H1627 0.960 . S
C1640 C1639 1.524 . S
C1641 C1638 1.403 . S
C1641 C1642 1.392 . S
C1641 C1645 1.495 . S
C1642 C1641 1.392 . S
C1642 C1643 1.385 . S
C1642 C1644 1.478 . S
C1643 H1637 0.930 . S
C1643 C1639 1.400 . S
C1643 C1642 1.385 . S
C1644 C1642 1.478 . S
C1644 C1646 1.381 . S
C1644 C1650 1.383 . S
C1645 C1641 1.495 . S
C1645 H1651 0.959 . S
C1645 H1652 0.961 . S
C1645 H1653 0.960 . S
C1646 C1644 1.381 . S
C1646 C1647 1.394 . S
C1646 H1654 0.930 . S
C1647 C1646 1.394 . S
C1647 C1648 1.383 . S
C1647 H1655 0.929 . S
C1648 C1647 1.383 . S
C1648 C1649 1.377 . S
C1649 H1633 0.930 . S
C1649 C1648 1.377 . S
C1649 C1650 1.379 . S
C1650 H1634 0.931 . S
C1650 C1644 1.383 . S
C1650 C1649 1.379 . S
H1651 C1645 0.959 . S
H1652 C1645 0.961 . S
H1653 C1645 0.960 . S
H1654 C1646 0.930 . S
H1655 C1647 0.929 . S
H1656 C1664 0.929 . S
H1657 C1666 0.938 . S
H1658 C1668 0.930 . S
H1659 C1671 0.929 . S
H1660 C1674 0.930 . S
H1661 C1676 0.960 . S
H1662 C1676 0.960 . S
H1663 C1676 0.960 . S
C1664 H1656 0.929 . S
C1664 C1665 1.377 . S
C1664 C1666 1.384 . S
C1665 C1664 1.377 . S
C1665 C1671 1.390 . S
C1666 H1657 0.938 . S
C1666 C1664 1.384 . S
C1666 C1667 1.372 . S
C1667 C1666 1.372 . S
C1667 C1668 1.400 . S
C1667 C1672 1.490 . S
C1668 H1658 0.930 . S
C1668 C1667 1.400 . S
C1668 C1671 1.386 . S
H1669 C1685 0.930 . S
H1670 C1686 0.931 1_545 S
C1671 H1659 0.929 . S
C1671 C1665 1.390 . S
C1671 C1668 1.386 . S
C1672 C1667 1.490 . S
C1672 C1674 1.395 . S
C1672 C1675 1.403 1_545 S
H1673 C1679 0.930 . S
C1674 H1660 0.930 . S
C1674 C1672 1.395 . S
C1674 C1677 1.403 . S
C1675 C1672 1.403 1_565 S
C1675 C1676 1.524 . S
C1675 C1679 1.400 . S
C1676 H1661 0.960 . S
C1676 H1662 0.960 . S
C1676 H1663 0.960 . S
C1676 C1675 1.524 . S
C1677 C1674 1.403 . S
C1677 C1678 1.392 1_545 S
C1677 C1681 1.495 . S
C1678 C1677 1.392 1_565 S
C1678 C1679 1.385 . S
C1678 C1680 1.478 . S
C1679 H1673 0.930 . S
C1679 C1675 1.400 . S
C1679 C1678 1.385 . S
C1680 C1678 1.478 . S
C1680 C1682 1.381 . S
C1680 C1686 1.383 . S
C1681 C1677 1.495 . S
C1681 H1687 0.959 . S
C1681 H1688 0.961 . S
C1681 H1689 0.960 . S
C1682 C1680 1.381 . S
C1682 C1683 1.394 . S
C1682 H1690 0.930 . S
C1683 C1682 1.394 . S
C1683 C1684 1.383 . S
C1683 H1691 0.929 . S
C1684 C1683 1.383 . S
C1684 C1685 1.377 . S
C1685 H1669 0.930 . S
C1685 C1684 1.377 . S
C1685 C1686 1.379 . S
C1686 H1670 0.931 1_565 S
C1686 C1680 1.383 . S
C1686 C1685 1.379 . S
H1687 C1681 0.959 . S
H1688 C1681 0.961 . S
H1689 C1681 0.960 . S
H1690 C1682 0.930 . S
H1691 C1683 0.929 . S
H1692 C1700 0.929 . S
H1693 C1702 0.930 . S
H1694 C1704 0.930 . S
H1695 C1707 0.929 . S
H1696 C1710 0.930 . S
H1697 C1712 0.960 . S
H1698 C1712 0.960 . S
H1699 C1712 0.960 . S
C1700 H1692 0.929 . S
C1700 C1701 1.377 . S
C1700 C1702 1.384 . S
C1701 C1700 1.377 . S
C1701 C1707 1.390 . S
C1702 H1693 0.930 . S
C1702 C1700 1.384 . S
C1702 C1703 1.372 . S
C1703 C1702 1.372 . S
C1703 C1704 1.400 . S
C1703 C1708 1.490 . S
C1704 H1694 0.930 . S
C1704 C1703 1.400 . S
C1704 C1707 1.386 . S
H1705 C1721 0.930 . S
H1706 C1722 0.931 . S
C1707 H1695 0.929 . S
C1707 C1701 1.390 . S
C1707 C1704 1.386 . S
C1708 C1703 1.490 . S
C1708 C1710 1.395 1_565 S
C1708 C1711 1.403 . S
H1709 C1715 0.930 . S
C1710 H1696 0.930 . S
C1710 C1708 1.395 1_545 S
C1710 C1713 1.403 . S
C1711 C1708 1.403 . S
C1711 C1712 1.524 . S
C1711 C1715 1.400 . S
C1712 H1697 0.960 . S
C1712 H1698 0.960 . S
C1712 H1699 0.960 . S
C1712 C1711 1.524 . S
C1713 C1710 1.403 . S
C1713 C1714 1.392 . S
C1713 C1717 1.495 . S
C1714 C1713 1.392 . S
C1714 C1715 1.385 1_545 S
C1714 C1716 1.478 . S
C1715 H1709 0.930 . S
C1715 C1711 1.400 . S
C1715 C1714 1.385 1_565 S
C1716 C1714 1.478 . S
C1716 C1718 1.381 . S
C1716 C1722 1.383 . S
C1717 C1713 1.495 . S
C1717 H1723 0.959 . S
C1717 H1724 0.961 . S
C1717 H1725 0.960 . S
C1718 C1716 1.381 . S
C1718 C1719 1.394 . S
C1718 H1726 0.930 . S
C1719 C1718 1.394 . S
C1719 C1720 1.383 . S
C1719 H1727 0.929 . S
C1720 C1719 1.383 . S
C1720 C1721 1.377 . S
C1721 H1705 0.930 . S
C1721 C1720 1.377 . S
C1721 C1722 1.379 . S
C1722 H1706 0.931 . S
C1722 C1716 1.383 . S
C1722 C1721 1.379 . S
H1723 C1717 0.959 . S
H1724 C1717 0.961 . S
H1725 C1717 0.960 . S
H1726 C1718 0.930 . S
H1727 C1719 0.929 . S
H1728 C1736 0.891 1_455 S
H1729 C1738 0.913 1_455 S
H1730 C1740 0.930 . S
H1731 C1743 0.929 . S
H1732 C1746 0.930 . S
H1733 C1748 0.960 . S
H1734 C1748 0.960 . S
H1735 C1748 0.960 . S
C1736 H1728 0.891 1_655 S
C1736 C1737 1.377 . S
C1736 C1738 1.390 . S
C1737 C1736 1.377 . S
C1737 C1743 1.390 . S
C1738 H1729 0.913 1_655 S
C1738 C1736 1.390 . S
C1738 C1739 1.382 . S
C1739 C1738 1.382 . S
C1739 C1740 1.400 . S
C1739 C1744 1.490 . S
C1740 H1730 0.930 . S
C1740 C1739 1.400 . S
C1740 C1743 1.386 . S
H1741 C1757 0.933 1_655 S
H1742 C1758 0.931 1_655 S
C1743 H1731 0.929 . S
C1743 C1737 1.390 . S
C1743 C1740 1.386 . S
C1744 C1739 1.490 . S
C1744 C1746 1.395 1_655 S
C1744 C1747 1.403 . S
H1745 C1751 0.930 . S
C1746 H1732 0.930 . S
C1746 C1744 1.395 1_455 S
C1746 C1749 1.403 . S
C1747 C1744 1.403 . S
C1747 C1748 1.524 . S
C1747 C1751 1.400 . S
C1748 H1733 0.960 . S
C1748 H1734 0.960 . S
C1748 H1735 0.960 . S
C1748 C1747 1.524 . S
C1749 C1746 1.403 . S
C1749 C1750 1.392 . S
C1749 C1753 1.495 . S
C1750 C1749 1.392 . S
C1750 C1751 1.385 1_455 S
C1750 C1752 1.478 . S
C1751 H1745 0.930 . S
C1751 C1747 1.400 . S
C1751 C1750 1.385 1_655 S
C1752 C1750 1.478 . S
C1752 C1754 1.381 . S
C1752 C1758 1.383 . S
C1753 C1749 1.495 . S
C1753 H1759 0.959 . S
C1753 H1760 0.961 . S
C1753 H1761 0.960 . S
C1754 C1752 1.381 . S
C1754 C1755 1.394 . S
C1754 H1762 0.930 . S
C1755 C1754 1.394 . S
C1755 C1756 1.383 . S
C1755 H1763 0.929 . S
C1756 C1755 1.383 . S
C1756 C1757 1.377 . S
C1757 H1741 0.933 1_455 S
C1757 C1756 1.377 . S
C1757 C1758 1.379 . S
C1758 H1742 0.931 1_455 S
C1758 C1752 1.383 . S
C1758 C1757 1.379 . S
H1759 C1753 0.959 . S
H1760 C1753 0.961 . S
H1761 C1753 0.960 . S
H1762 C1754 0.930 . S
H1763 C1755 0.929 . S
H1764 C1772 0.929 . S
H1765 C1774 0.930 . S
H1766 C1776 0.930 . S
H1767 C1779 0.929 . S
H1768 C1782 0.930 . S
H1769 C1784 0.960 . S
H1770 C1784 0.960 . S
H1771 C1784 0.960 . S
C1772 H1764 0.929 . S
C1772 C1773 1.377 . S
C1772 C1774 1.384 . S
C1773 C1772 1.377 . S
C1773 C1779 1.390 . S
C1774 H1765 0.930 . S
C1774 C1772 1.384 . S
C1774 C1775 1.372 . S
C1775 C1774 1.372 . S
C1775 C1776 1.400 . S
C1775 C1780 1.490 . S
C1776 H1766 0.930 . S
C1776 C1775 1.400 . S
C1776 C1779 1.386 . S
H1777 C1793 0.930 . S
H1778 C1794 0.931 . S
C1779 H1767 0.929 . S
C1779 C1773 1.390 . S
C1779 C1776 1.386 . S
C1780 C1775 1.490 . S
C1780 C1782 1.395 . S
C1780 C1783 1.403 . S
H1781 C1787 0.930 . S
C1782 H1768 0.930 . S
C1782 C1780 1.395 . S
C1782 C1785 1.403 . S
C1783 C1780 1.403 . S
C1783 C1784 1.524 . S
C1783 C1787 1.400 . S
C1784 H1769 0.960 . S
C1784 H1770 0.960 . S
C1784 H1771 0.960 . S
C1784 C1783 1.524 . S
C1785 C1782 1.403 . S
C1785 C1786 1.392 . S
C1785 C1789 1.495 . S
C1786 C1785 1.392 . S
C1786 C1787 1.385 . S
C1786 C1788 1.478 . S
C1787 H1781 0.930 . S
C1787 C1783 1.400 . S
C1787 C1786 1.385 . S
C1788 C1786 1.478 . S
C1788 C1790 1.381 . S
C1788 C1794 1.383 . S
C1789 C1785 1.495 . S
C1789 H1795 0.959 . S
C1789 H1796 0.961 . S
C1789 H1797 0.960 . S
C1790 C1788 1.381 . S
C1790 C1791 1.394 . S
C1790 H1798 0.930 . S
C1791 C1790 1.394 . S
C1791 C1792 1.383 . S
C1791 H1799 0.929 . S
C1792 C1791 1.383 . S
C1792 C1793 1.377 . S
C1793 H1777 0.930 . S
C1793 C1792 1.377 . S
C1793 C1794 1.379 . S
C1794 H1778 0.931 . S
C1794 C1788 1.383 . S
C1794 C1793 1.379 . S
H1795 C1789 0.959 . S
H1796 C1789 0.961 . S
H1797 C1789 0.960 . S
H1798 C1790 0.930 . S
H1799 C1791 0.929 . S
H1800 C1808 0.929 . S
H1801 C1810 0.930 . S
H1802 C1812 0.930 . S
H1803 C1815 0.929 . S
H1804 C1818 0.930 . S
H1805 C1820 0.960 . S
H1806 C1820 0.960 . S
H1807 C1820 0.960 . S
C1808 H1800 0.929 . S
C1808 C1809 1.377 . S
C1808 C1810 1.384 . S
C1809 C1808 1.377 . S
C1809 C1815 1.390 . S
C1810 H1801 0.930 . S
C1810 C1808 1.384 . S
C1810 C1811 1.372 . S
C1811 C1810 1.372 . S
C1811 C1812 1.400 . S
C1811 C1816 1.490 . S
C1812 H1802 0.930 . S
C1812 C1811 1.400 . S
C1812 C1815 1.386 . S
H1813 C1829 0.930 . S
H1814 C1830 0.931 . S
C1815 H1803 0.929 . S
C1815 C1809 1.390 . S
C1815 C1812 1.386 . S
C1816 C1811 1.490 . S
C1816 C1818 1.395 . S
C1816 C1819 1.403 . S
H1817 C1823 0.930 . S
C1818 H1804 0.930 . S
C1818 C1816 1.395 . S
C1818 C1821 1.403 . S
C1819 C1816 1.403 . S
C1819 C1820 1.524 . S
C1819 C1823 1.400 . S
C1820 H1805 0.960 . S
C1820 H1806 0.960 . S
C1820 H1807 0.960 . S
C1820 C1819 1.524 . S
C1821 C1818 1.403 . S
C1821 C1822 1.392 . S
C1821 C1825 1.495 . S
C1822 C1821 1.392 . S
C1822 C1823 1.385 . S
C1822 C1824 1.478 . S
C1823 H1817 0.930 . S
C1823 C1819 1.400 . S
C1823 C1822 1.385 . S
C1824 C1822 1.478 . S
C1824 C1826 1.381 . S
C1824 C1830 1.383 . S
C1825 C1821 1.495 . S
C1825 H1831 0.959 . S
C1825 H1832 0.961 . S
C1825 H1833 0.960 . S
C1826 C1824 1.381 . S
C1826 C1827 1.394 . S
C1826 H1834 0.930 . S
C1827 C1826 1.394 . S
C1827 C1828 1.383 . S
C1827 H1835 0.929 . S
C1828 C1827 1.383 . S
C1828 C1829 1.377 . S
C1829 H1813 0.930 . S
C1829 C1828 1.377 . S
C1829 C1830 1.379 . S
C1830 H1814 0.931 . S
C1830 C1824 1.383 . S
C1830 C1829 1.379 . S
H1831 C1825 0.959 . S
H1832 C1825 0.961 . S
H1833 C1825 0.960 . S
H1834 C1826 0.930 . S
H1835 C1827 0.929 . S
H1836 C1844 0.929 . S
H1837 C1846 0.930 . S
H1838 C1848 0.930 . S
H1839 C1851 0.929 . S
H1840 C1854 0.930 . S
H1841 C1856 0.960 . S
H1842 C1856 0.960 . S
H1843 C1856 0.960 . S
C1844 H1836 0.929 . S
C1844 C1845 1.377 . S
C1844 C1846 1.384 . S
C1845 C1844 1.377 . S
C1845 C1851 1.390 . S
C1846 H1837 0.930 . S
C1846 C1844 1.384 . S
C1846 C1847 1.372 . S
C1847 C1846 1.372 . S
C1847 C1848 1.400 . S
C1847 C1852 1.490 . S
C1848 H1838 0.930 . S
C1848 C1847 1.400 . S
C1848 C1851 1.386 . S
H1849 C1865 0.930 . S
H1850 C1866 0.931 . S
C1851 H1839 0.929 . S
C1851 C1845 1.390 . S
C1851 C1848 1.386 . S
C1852 C1847 1.490 . S
C1852 C1854 1.395 . S
C1852 C1855 1.403 . S
H1853 C1859 0.930 . S
C1854 H1840 0.930 . S
C1854 C1852 1.395 . S
C1854 C1857 1.403 . S
C1855 C1852 1.403 . S
C1855 C1856 1.524 . S
C1855 C1859 1.400 . S
C1856 H1841 0.960 . S
C1856 H1842 0.960 . S
C1856 H1843 0.960 . S
C1856 C1855 1.524 . S
C1857 C1854 1.403 . S
C1857 C1858 1.392 . S
C1857 C1861 1.495 . S
C1858 C1857 1.392 . S
C1858 C1859 1.385 . S
C1858 C1860 1.478 . S
C1859 H1853 0.930 . S
C1859 C1855 1.400 . S
C1859 C1858 1.385 . S
C1860 C1858 1.478 . S
C1860 C1862 1.381 . S
C1860 C1866 1.383 . S
C1861 C1857 1.495 . S
C1861 H1867 0.959 . S
C1861 H1868 0.961 . S
C1861 H1869 0.960 . S
C1862 C1860 1.381 . S
C1862 C1863 1.394 . S
C1862 H1870 0.930 . S
C1863 C1862 1.394 . S
C1863 C1864 1.383 . S
C1863 H1871 0.929 . S
C1864 C1863 1.383 . S
C1864 C1865 1.377 . S
C1865 H1849 0.930 . S
C1865 C1864 1.377 . S
C1865 C1866 1.379 . S
C1866 H1850 0.931 . S
C1866 C1860 1.383 . S
C1866 C1865 1.379 . S
H1867 C1861 0.959 . S
H1868 C1861 0.961 . S
H1869 C1861 0.960 . S
H1870 C1862 0.930 . S
H1871 C1863 0.929 . S
H1872 C1880 0.929 . S
H1873 C1882 0.930 . S
H1874 C1884 0.930 . S
H1875 C1887 0.929 . S
H1876 C1890 0.930 . S
H1877 C1892 0.960 . S
H1878 C1892 0.960 . S
H1879 C1892 0.960 . S
C1880 H1872 0.929 . S
C1880 C1881 1.377 . S
C1880 C1882 1.384 . S
C1881 C1880 1.377 . S
C1881 C1887 1.390 . S
C1882 H1873 0.930 . S
C1882 C1880 1.384 . S
C1882 C1883 1.372 . S
C1883 C1882 1.372 . S
C1883 C1884 1.400 . S
C1883 C1888 1.490 . S
C1884 H1874 0.930 . S
C1884 C1883 1.400 . S
C1884 C1887 1.386 . S
H1885 C1901 0.930 . S
H1886 C1902 0.931 . S
C1887 H1875 0.929 . S
C1887 C1881 1.390 . S
C1887 C1884 1.386 . S
C1888 C1883 1.490 . S
C1888 C1890 1.395 . S
C1888 C1891 1.403 . S
H1889 C1895 0.930 . S
C1890 H1876 0.930 . S
C1890 C1888 1.395 . S
C1890 C1893 1.403 . S
C1891 C1888 1.403 . S
C1891 C1892 1.524 . S
C1891 C1895 1.400 . S
C1892 H1877 0.960 . S
C1892 H1878 0.960 . S
C1892 H1879 0.960 . S
C1892 C1891 1.524 . S
C1893 C1890 1.403 . S
C1893 C1894 1.392 . S
C1893 C1897 1.495 . S
C1894 C1893 1.392 . S
C1894 C1895 1.385 . S
C1894 C1896 1.478 . S
C1895 H1889 0.930 . S
C1895 C1891 1.400 . S
C1895 C1894 1.385 . S
C1896 C1894 1.478 . S
C1896 C1898 1.381 . S
C1896 C1902 1.383 . S
C1897 C1893 1.495 . S
C1897 H1903 0.959 . S
C1897 H1904 0.961 . S
C1897 H1905 0.960 . S
C1898 C1896 1.381 . S
C1898 C1899 1.394 . S
C1898 H1906 0.930 . S
C1899 C1898 1.394 . S
C1899 C1900 1.383 . S
C1899 H1907 0.929 . S
C1900 C1899 1.383 . S
C1900 C1901 1.377 . S
C1901 H1885 0.930 . S
C1901 C1900 1.377 . S
C1901 C1902 1.379 . S
C1902 H1886 0.931 . S
C1902 C1896 1.383 . S
C1902 C1901 1.379 . S
H1903 C1897 0.959 . S
H1904 C1897 0.961 . S
H1905 C1897 0.960 . S
H1906 C1898 0.930 . S
H1907 C1899 0.929 . S
H1908 C1916 0.929 . S
H1909 C1918 0.930 . S
H1910 C1920 0.930 . S
H1911 C1923 0.929 . S
H1912 C1926 0.930 . S
H1913 C1928 0.960 . S
H1914 C1928 0.960 . S
H1915 C1928 0.960 . S
C1916 H1908 0.929 . S
C1916 C1917 1.377 . S
C1916 C1918 1.384 . S
C1917 C1916 1.377 . S
C1917 C1923 1.390 . S
C1918 H1909 0.930 . S
C1918 C1916 1.384 . S
C1918 C1919 1.372 . S
C1919 C1918 1.372 . S
C1919 C1920 1.400 . S
C1919 C1924 1.490 . S
C1920 H1910 0.930 . S
C1920 C1919 1.400 . S
C1920 C1923 1.386 . S
H1921 C1937 0.930 . S
H1922 C1938 0.931 . S
C1923 H1911 0.929 . S
C1923 C1917 1.390 . S
C1923 C1920 1.386 . S
C1924 C1919 1.490 . S
C1924 C1926 1.395 . S
C1924 C1927 1.403 . S
H1925 C1931 0.930 . S
C1926 H1912 0.930 . S
C1926 C1924 1.395 . S
C1926 C1929 1.403 . S
C1927 C1924 1.403 . S
C1927 C1928 1.524 . S
C1927 C1931 1.400 . S
C1928 H1913 0.960 . S
C1928 H1914 0.960 . S
C1928 H1915 0.960 . S
C1928 C1927 1.524 . S
C1929 C1926 1.403 . S
C1929 C1930 1.392 . S
C1929 C1933 1.495 . S
C1930 C1929 1.392 . S
C1930 C1931 1.385 . S
C1930 C1932 1.478 . S
C1931 H1925 0.930 . S
C1931 C1927 1.400 . S
C1931 C1930 1.385 . S
C1932 C1930 1.478 . S
C1932 C1934 1.381 . S
C1932 C1938 1.383 . S
C1933 C1929 1.495 . S
C1933 H1939 0.959 . S
C1933 H1940 0.961 . S
C1933 H1941 0.960 . S
C1934 C1932 1.381 . S
C1934 C1935 1.394 . S
C1934 H1942 0.930 . S
C1935 C1934 1.394 . S
C1935 C1936 1.383 . S
C1935 H1943 0.929 . S
C1936 C1935 1.383 . S
C1936 C1937 1.377 . S
C1937 H1921 0.930 . S
C1937 C1936 1.377 . S
C1937 C1938 1.379 . S
C1938 H1922 0.931 . S
C1938 C1932 1.383 . S
C1938 C1937 1.379 . S
H1939 C1933 0.959 . S
H1940 C1933 0.961 . S
H1941 C1933 0.960 . S
H1942 C1934 0.930 . S
H1943 C1935 0.929 . S
H1944 C1952 0.929 . S
H1945 C1954 0.930 . S
H1946 C1956 0.930 . S
H1947 C1959 0.929 . S
H1948 C1962 0.930 . S
H1949 C1964 0.960 . S
H1950 C1964 0.960 . S
H1951 C1964 0.960 . S
C1952 H1944 0.929 . S
C1952 C1953 1.377 . S
C1952 C1954 1.384 . S
C1953 C1952 1.377 . S
C1953 C1959 1.390 . S
C1954 H1945 0.930 . S
C1954 C1952 1.384 . S
C1954 C1955 1.372 . S
C1955 C1954 1.372 . S
C1955 C1956 1.400 . S
C1955 C1960 1.490 . S
C1956 H1946 0.930 . S
C1956 C1955 1.400 . S
C1956 C1959 1.386 . S
H1957 C1973 0.930 . S
H1958 C1974 0.931 . S
C1959 H1947 0.929 . S
C1959 C1953 1.390 . S
C1959 C1956 1.386 . S
C1960 C1955 1.490 . S
C1960 C1962 1.395 . S
C1960 C1963 1.403 . S
H1961 C1967 0.930 . S
C1962 H1948 0.930 . S
C1962 C1960 1.395 . S
C1962 C1965 1.403 . S
C1963 C1960 1.403 . S
C1963 C1964 1.524 . S
C1963 C1967 1.400 . S
C1964 H1949 0.960 . S
C1964 H1950 0.960 . S
C1964 H1951 0.960 . S
C1964 C1963 1.524 . S
C1965 C1962 1.403 . S
C1965 C1966 1.392 . S
C1965 C1969 1.495 . S
C1966 C1965 1.392 . S
C1966 C1967 1.385 . S
C1966 C1968 1.478 . S
C1967 H1961 0.930 . S
C1967 C1963 1.400 . S
C1967 C1966 1.385 . S
C1968 C1966 1.478 . S
C1968 C1970 1.381 . S
C1968 C1974 1.383 . S
C1969 C1965 1.495 . S
C1969 H1975 0.959 . S
C1969 H1976 0.961 . S
C1969 H1977 0.960 . S
C1970 C1968 1.381 . S
C1970 C1971 1.394 . S
C1970 H1978 0.930 . S
C1971 C1970 1.394 . S
C1971 C1972 1.383 . S
C1971 H1979 0.929 . S
C1972 C1971 1.383 . S
C1972 C1973 1.377 . S
C1973 H1957 0.930 . S
C1973 C1972 1.377 . S
C1973 C1974 1.379 . S
C1974 H1958 0.931 . S
C1974 C1968 1.383 . S
C1974 C1973 1.379 . S
H1975 C1969 0.959 . S
H1976 C1969 0.961 . S
H1977 C1969 0.960 . S
H1978 C1970 0.930 . S
H1979 C1971 0.929 . S
H1980 C1988 0.929 . S
H1981 C1990 0.930 . S
H1982 C1992 0.930 . S
H1983 C1995 0.929 . S
H1984 C1998 0.930 . S
H1985 C2000 0.960 . S
H1986 C2000 0.960 . S
H1987 C2000 0.960 . S
C1988 H1980 0.929 . S
C1988 C1989 1.377 . S
C1988 C1990 1.384 . S
C1989 C1988 1.377 . S
C1989 C1995 1.390 . S
C1990 H1981 0.930 . S
C1990 C1988 1.384 . S
C1990 C1991 1.372 . S
C1991 C1990 1.372 . S
C1991 C1992 1.400 . S
C1991 C1996 1.490 . S
C1992 H1982 0.930 . S
C1992 C1991 1.400 . S
C1992 C1995 1.386 . S
H1993 C2009 0.930 . S
H1994 C2010 0.931 . S
C1995 H1983 0.929 . S
C1995 C1989 1.390 . S
C1995 C1992 1.386 . S
C1996 C1991 1.490 . S
C1996 C1998 1.395 . S
C1996 C1999 1.403 . S
H1997 C2003 0.930 . S
C1998 H1984 0.930 . S
C1998 C1996 1.395 . S
C1998 C2001 1.403 . S
C1999 C1996 1.403 . S
C1999 C2000 1.524 . S
C1999 C2003 1.400 . S
C2000 H1985 0.960 . S
C2000 H1986 0.960 . S
C2000 H1987 0.960 . S
C2000 C1999 1.524 . S
C2001 C1998 1.403 . S
C2001 C2002 1.392 . S
C2001 C2005 1.495 . S
C2002 C2001 1.392 . S
C2002 C2003 1.385 . S
C2002 C2004 1.478 . S
C2003 H1997 0.930 . S
C2003 C1999 1.400 . S
C2003 C2002 1.385 . S
C2004 C2002 1.478 . S
C2004 C2006 1.381 . S
C2004 C2010 1.383 . S
C2005 C2001 1.495 . S
C2005 H2011 0.959 . S
C2005 H2012 0.961 . S
C2005 H2013 0.960 . S
C2006 C2004 1.381 . S
C2006 C2007 1.394 . S
C2006 H2014 0.930 . S
C2007 C2006 1.394 . S
C2007 C2008 1.383 . S
C2007 H2015 0.929 . S
C2008 C2007 1.383 . S
C2008 C2009 1.377 . S
C2009 H1993 0.930 . S
C2009 C2008 1.377 . S
C2009 C2010 1.379 . S
C2010 H1994 0.931 . S
C2010 C2004 1.383 . S
C2010 C2009 1.379 . S
H2011 C2005 0.959 . S
H2012 C2005 0.961 . S
H2013 C2005 0.960 . S
H2014 C2006 0.930 . S
H2015 C2007 0.929 . S
H2016 C2024 0.929 . S
H2017 C2026 0.930 . S
H2018 C2028 0.930 . S
H2019 C2031 0.929 . S
H2020 C2034 0.930 . S
H2021 C2036 0.960 . S
H2022 C2036 0.960 . S
H2023 C2036 0.960 . S
C2024 H2016 0.929 . S
C2024 C2025 1.377 . S
C2024 C2026 1.384 . S
C2025 C2024 1.377 . S
C2025 C2031 1.390 . S
C2026 H2017 0.930 . S
C2026 C2024 1.384 . S
C2026 C2027 1.372 . S
C2027 C2026 1.372 . S
C2027 C2028 1.400 . S
C2027 C2032 1.490 . S
C2028 H2018 0.930 . S
C2028 C2027 1.400 . S
C2028 C2031 1.386 . S
H2029 C2045 0.930 . S
H2030 C2046 0.931 . S
C2031 H2019 0.929 . S
C2031 C2025 1.390 . S
C2031 C2028 1.386 . S
C2032 C2027 1.490 . S
C2032 C2034 1.395 . S
C2032 C2035 1.403 . S
H2033 C2039 0.930 . S
C2034 H2020 0.930 . S
C2034 C2032 1.395 . S
C2034 C2037 1.403 . S
C2035 C2032 1.403 . S
C2035 C2036 1.524 . S
C2035 C2039 1.400 . S
C2036 H2021 0.960 . S
C2036 H2022 0.960 . S
C2036 H2023 0.960 . S
C2036 C2035 1.524 . S
C2037 C2034 1.403 . S
C2037 C2038 1.392 . S
C2037 C2041 1.495 . S
C2038 C2037 1.392 . S
C2038 C2039 1.385 . S
C2038 C2040 1.478 . S
C2039 H2033 0.930 . S
C2039 C2035 1.400 . S
C2039 C2038 1.385 . S
C2040 C2038 1.478 . S
C2040 C2042 1.381 . S
C2040 C2046 1.383 . S
C2041 C2037 1.495 . S
C2041 H2047 0.959 . S
C2041 H2048 0.961 . S
C2041 H2049 0.960 . S
C2042 C2040 1.381 . S
C2042 C2043 1.394 . S
C2042 H2050 0.930 . S
C2043 C2042 1.394 . S
C2043 C2044 1.383 . S
C2043 H2051 0.929 . S
C2044 C2043 1.383 . S
C2044 C2045 1.377 . S
C2045 H2029 0.930 . S
C2045 C2044 1.377 . S
C2045 C2046 1.379 . S
C2046 H2030 0.931 . S
C2046 C2040 1.383 . S
C2046 C2045 1.379 . S
H2047 C2041 0.959 . S
H2048 C2041 0.961 . S
H2049 C2041 0.960 . S
H2050 C2042 0.930 . S
H2051 C2043 0.929 . S
H2052 C2060 0.929 . S
H2053 C2062 0.930 . S
H2054 C2064 0.930 . S
H2055 C2067 0.929 . S
H2056 C2070 0.930 . S
H2057 C2072 0.960 . S
H2058 C2072 0.960 . S
H2059 C2072 0.960 . S
C2060 H2052 0.929 . S
C2060 C2061 1.377 . S
C2060 C2062 1.384 . S
C2061 C2060 1.377 . S
C2061 C2067 1.390 . S
C2062 H2053 0.930 . S
C2062 C2060 1.384 . S
C2062 C2063 1.372 . S
C2063 C2062 1.372 . S
C2063 C2064 1.400 . S
C2063 C2068 1.490 . S
C2064 H2054 0.930 . S
C2064 C2063 1.400 . S
C2064 C2067 1.386 . S
H2065 C2081 0.930 . S
H2066 C2082 0.931 . S
C2067 H2055 0.929 . S
C2067 C2061 1.390 . S
C2067 C2064 1.386 . S
C2068 C2063 1.490 . S
C2068 C2070 1.395 . S
C2068 C2071 1.403 . S
H2069 C2075 0.930 . S
C2070 H2056 0.930 . S
C2070 C2068 1.395 . S
C2070 C2073 1.403 . S
C2071 C2068 1.403 . S
C2071 C2072 1.524 . S
C2071 C2075 1.400 . S
C2072 H2057 0.960 . S
C2072 H2058 0.960 . S
C2072 H2059 0.960 . S
C2072 C2071 1.524 . S
C2073 C2070 1.403 . S
C2073 C2074 1.392 . S
C2073 C2077 1.495 . S
C2074 C2073 1.392 . S
C2074 C2075 1.385 . S
C2074 C2076 1.478 . S
C2075 H2069 0.930 . S
C2075 C2071 1.400 . S
C2075 C2074 1.385 . S
C2076 C2074 1.478 . S
C2076 C2078 1.381 . S
C2076 C2082 1.383 . S
C2077 C2073 1.495 . S
C2077 H2083 0.959 . S
C2077 H2084 0.961 . S
C2077 H2085 0.960 . S
C2078 C2076 1.381 . S
C2078 C2079 1.394 . S
C2078 H2086 0.930 . S
C2079 C2078 1.394 . S
C2079 C2080 1.383 . S
C2079 H2087 0.929 . S
C2080 C2079 1.383 . S
C2080 C2081 1.377 . S
C2081 H2065 0.930 . S
C2081 C2080 1.377 . S
C2081 C2082 1.379 . S
C2082 H2066 0.931 . S
C2082 C2076 1.383 . S
C2082 C2081 1.379 . S
H2083 C2077 0.959 . S
H2084 C2077 0.961 . S
H2085 C2077 0.960 . S
H2086 C2078 0.930 . S
H2087 C2079 0.929 . S
H2088 C2096 0.929 . S
H2089 C2098 0.930 . S
H2090 C2100 0.930 . S
H2091 C2103 0.929 . S
H2092 C2106 0.930 . S
H2093 C2108 0.960 . S
H2094 C2108 0.960 . S
H2095 C2108 0.960 . S
C2096 H2088 0.929 . S
C2096 C2097 1.377 . S
C2096 C2098 1.384 . S
C2097 C2096 1.377 . S
C2097 C2103 1.390 . S
C2098 H2089 0.930 . S
C2098 C2096 1.384 . S
C2098 C2099 1.372 . S
C2099 C2098 1.372 . S
C2099 C2100 1.400 . S
C2099 C2104 1.490 . S
C2100 H2090 0.930 . S
C2100 C2099 1.400 . S
C2100 C2103 1.386 . S
H2101 C2117 0.930 . S
H2102 C2118 0.931 . S
C2103 H2091 0.929 . S
C2103 C2097 1.390 . S
C2103 C2100 1.386 . S
C2104 C2099 1.490 . S
C2104 C2106 1.395 . S
C2104 C2107 1.403 . S
H2105 C2111 0.930 . S
C2106 H2092 0.930 . S
C2106 C2104 1.395 . S
C2106 C2109 1.403 . S
C2107 C2104 1.403 . S
C2107 C2108 1.524 . S
C2107 C2111 1.400 . S
C2108 H2093 0.960 . S
C2108 H2094 0.960 . S
C2108 H2095 0.960 . S
C2108 C2107 1.524 . S
C2109 C2106 1.403 . S
C2109 C2110 1.392 . S
C2109 C2113 1.495 . S
C2110 C2109 1.392 . S
C2110 C2111 1.385 . S
C2110 C2112 1.478 . S
C2111 H2105 0.930 . S
C2111 C2107 1.400 . S
C2111 C2110 1.385 . S
C2112 C2110 1.478 . S
C2112 C2114 1.381 . S
C2112 C2118 1.383 . S
C2113 C2109 1.495 . S
C2113 H2119 0.959 . S
C2113 H2120 0.961 . S
C2113 H2121 0.960 . S
C2114 C2112 1.381 . S
C2114 C2115 1.394 . S
C2114 H2122 0.930 . S
C2115 C2114 1.394 . S
C2115 C2116 1.383 . S
C2115 H2123 0.929 . S
C2116 C2115 1.383 . S
C2116 C2117 1.377 . S
C2117 H2101 0.930 . S
C2117 C2116 1.377 . S
C2117 C2118 1.379 . S
C2118 H2102 0.931 . S
C2118 C2112 1.383 . S
C2118 C2117 1.379 . S
H2119 C2113 0.959 . S
H2120 C2113 0.961 . S
H2121 C2113 0.960 . S
H2122 C2114 0.930 . S
H2123 C2115 0.929 . S
H2124 C2132 0.929 . S
H2125 C2134 0.930 . S
H2126 C2136 0.930 . S
H2127 C2139 0.929 . S
H2128 C2142 0.930 . S
H2129 C2144 0.960 . S
H2130 C2144 0.960 . S
H2131 C2144 0.960 . S
C2132 H2124 0.929 . S
C2132 C2133 1.377 . S
C2132 C2134 1.384 . S
C2133 C2132 1.377 . S
C2133 C2139 1.390 . S
C2134 H2125 0.930 . S
C2134 C2132 1.384 . S
C2134 C2135 1.372 . S
C2135 C2134 1.372 . S
C2135 C2136 1.400 . S
C2135 C2140 1.490 . S
C2136 H2126 0.930 . S
C2136 C2135 1.400 . S
C2136 C2139 1.386 . S
H2137 C2153 0.930 . S
H2138 C2154 0.931 . S
C2139 H2127 0.929 . S
C2139 C2133 1.390 . S
C2139 C2136 1.386 . S
C2140 C2135 1.490 . S
C2140 C2142 1.395 . S
C2140 C2143 1.403 . S
H2141 C2147 0.930 . S
C2142 H2128 0.930 . S
C2142 C2140 1.395 . S
C2142 C2145 1.403 . S
C2143 C2140 1.403 . S
C2143 C2144 1.524 . S
C2143 C2147 1.400 . S
C2144 H2129 0.960 . S
C2144 H2130 0.960 . S
C2144 H2131 0.960 . S
C2144 C2143 1.524 . S
C2145 C2142 1.403 . S
C2145 C2146 1.392 . S
C2145 C2149 1.495 . S
C2146 C2145 1.392 . S
C2146 C2147 1.385 . S
C2146 C2148 1.478 . S
C2147 H2141 0.930 . S
C2147 C2143 1.400 . S
C2147 C2146 1.385 . S
C2148 C2146 1.478 . S
C2148 C2150 1.381 . S
C2148 C2154 1.383 . S
C2149 C2145 1.495 . S
C2149 H2155 0.959 . S
C2149 H2156 0.961 . S
C2149 H2157 0.960 . S
C2150 C2148 1.381 . S
C2150 C2151 1.394 . S
C2150 H2158 0.930 . S
C2151 C2150 1.394 . S
C2151 C2152 1.383 . S
C2151 H2159 0.929 . S
C2152 C2151 1.383 . S
C2152 C2153 1.377 . S
C2153 H2137 0.930 . S
C2153 C2152 1.377 . S
C2153 C2154 1.379 . S
C2154 H2138 0.931 . S
C2154 C2148 1.383 . S
C2154 C2153 1.379 . S
H2155 C2149 0.959 . S
H2156 C2149 0.961 . S
H2157 C2149 0.960 . S
H2158 C2150 0.930 . S
H2159 C2151 0.929 . S
H2160 C2168 0.929 . S
H2161 C2170 0.930 . S
H2162 C2172 0.930 . S
H2163 C2175 0.929 . S
H2164 C2178 0.930 . S
H2165 C2180 0.960 . S
H2166 C2180 0.960 . S
H2167 C2180 0.960 . S
C2168 H2160 0.929 . S
C2168 C2169 1.377 . S
C2168 C2170 1.384 . S
C2169 C2168 1.377 . S
C2169 C2175 1.390 . S
C2170 H2161 0.930 . S
C2170 C2168 1.384 . S
C2170 C2171 1.372 . S
C2171 C2170 1.372 . S
C2171 C2172 1.400 . S
C2171 C2176 1.490 . S
C2172 H2162 0.930 . S
C2172 C2171 1.400 . S
C2172 C2175 1.386 . S
H2173 C2189 0.930 . S
H2174 C2190 0.931 . S
C2175 H2163 0.929 . S
C2175 C2169 1.390 . S
C2175 C2172 1.386 . S
C2176 C2171 1.490 . S
C2176 C2178 1.395 . S
C2176 C2179 1.403 . S
H2177 C2183 0.930 . S
C2178 H2164 0.930 . S
C2178 C2176 1.395 . S
C2178 C2181 1.403 . S
C2179 C2176 1.403 . S
C2179 C2180 1.524 . S
C2179 C2183 1.400 . S
C2180 H2165 0.960 . S
C2180 H2166 0.960 . S
C2180 H2167 0.960 . S
C2180 C2179 1.524 . S
C2181 C2178 1.403 . S
C2181 C2182 1.392 . S
C2181 C2185 1.495 . S
C2182 C2181 1.392 . S
C2182 C2183 1.385 . S
C2182 C2184 1.478 . S
C2183 H2177 0.930 . S
C2183 C2179 1.400 . S
C2183 C2182 1.385 . S
C2184 C2182 1.478 . S
C2184 C2186 1.381 . S
C2184 C2190 1.383 . S
C2185 C2181 1.495 . S
C2185 H2191 0.959 . S
C2185 H2192 0.961 . S
C2185 H2193 0.960 . S
C2186 C2184 1.381 . S
C2186 C2187 1.394 . S
C2186 H2194 0.930 . S
C2187 C2186 1.394 . S
C2187 C2188 1.383 . S
C2187 H2195 0.929 . S
C2188 C2187 1.383 . S
C2188 C2189 1.377 . S
C2189 H2173 0.930 . S
C2189 C2188 1.377 . S
C2189 C2190 1.379 . S
C2190 H2174 0.931 . S
C2190 C2184 1.383 . S
C2190 C2189 1.379 . S
H2191 C2185 0.959 . S
H2192 C2185 0.961 . S
H2193 C2185 0.960 . S
H2194 C2186 0.930 . S
H2195 C2187 0.929 . S
H2196 C2204 0.929 . S
H2197 C2206 0.930 . S
H2198 C2208 0.930 . S
H2199 C2211 0.929 . S
H2200 C2214 0.930 . S
H2201 C2216 0.960 . S
H2202 C2216 0.960 . S
H2203 C2216 0.960 . S
C2204 H2196 0.929 . S
C2204 C2205 1.377 . S
C2204 C2206 1.384 . S
C2205 C2204 1.377 . S
C2205 C2211 1.390 . S
C2206 H2197 0.930 . S
C2206 C2204 1.384 . S
C2206 C2207 1.372 . S
C2207 C2206 1.372 . S
C2207 C2208 1.400 . S
C2207 C2212 1.490 . S
C2208 H2198 0.930 . S
C2208 C2207 1.400 . S
C2208 C2211 1.386 . S
H2209 C2225 0.930 . S
H2210 C2226 0.931 . S
C2211 H2199 0.929 . S
C2211 C2205 1.390 . S
C2211 C2208 1.386 . S
C2212 C2207 1.490 . S
C2212 C2214 1.395 . S
C2212 C2215 1.403 . S
H2213 C2219 0.930 . S
C2214 H2200 0.930 . S
C2214 C2212 1.395 . S
C2214 C2217 1.403 . S
C2215 C2212 1.403 . S
C2215 C2216 1.524 . S
C2215 C2219 1.400 . S
C2216 H2201 0.960 . S
C2216 H2202 0.960 . S
C2216 H2203 0.960 . S
C2216 C2215 1.524 . S
C2217 C2214 1.403 . S
C2217 C2218 1.392 . S
C2217 C2221 1.495 . S
C2218 C2217 1.392 . S
C2218 C2219 1.385 . S
C2218 C2220 1.478 . S
C2219 H2213 0.930 . S
C2219 C2215 1.400 . S
C2219 C2218 1.385 . S
C2220 C2218 1.478 . S
C2220 C2222 1.381 . S
C2220 C2226 1.383 . S
C2221 C2217 1.495 . S
C2221 H2227 0.959 . S
C2221 H2228 0.961 . S
C2221 H2229 0.960 . S
C2222 C2220 1.381 . S
C2222 C2223 1.394 . S
C2222 H2230 0.930 . S
C2223 C2222 1.394 . S
C2223 C2224 1.383 . S
C2223 H2231 0.929 . S
C2224 C2223 1.383 . S
C2224 C2225 1.377 . S
C2225 H2209 0.930 . S
C2225 C2224 1.377 . S
C2225 C2226 1.379 . S
C2226 H2210 0.931 . S
C2226 C2220 1.383 . S
C2226 C2225 1.379 . S
H2227 C2221 0.959 . S
H2228 C2221 0.961 . S
H2229 C2221 0.960 . S
H2230 C2222 0.930 . S
H2231 C2223 0.929 . S
H2232 C2240 0.929 . S
H2233 C2242 0.930 1_655 S
H2234 C2244 0.930 . S
H2235 C2247 0.929 . S
H2236 C2250 0.930 . S
H2237 C2252 0.960 . S
H2238 C2252 0.960 . S
H2239 C2252 0.960 . S
C2240 H2232 0.929 . S
C2240 C2241 1.377 . S
C2240 C2242 1.384 . S
C2241 C2240 1.377 . S
C2241 C2247 1.390 . S
C2242 H2233 0.930 1_455 S
C2242 C2240 1.384 . S
C2242 C2243 1.372 . S
C2243 C2242 1.372 . S
C2243 C2244 1.400 . S
C2243 C2248 1.490 . S
C2244 H2234 0.930 . S
C2244 C2243 1.400 . S
C2244 C2247 1.386 . S
H2245 C2261 0.930 . S
H2246 C2262 0.931 . S
C2247 H2235 0.929 . S
C2247 C2241 1.390 . S
C2247 C2244 1.386 . S
C2248 C2243 1.490 . S
C2248 C2250 1.395 1_455 S
C2248 C2251 1.403 . S
H2249 C2255 0.930 . S
C2250 H2236 0.930 . S
C2250 C2248 1.395 1_655 S
C2250 C2253 1.403 . S
C2251 C2248 1.403 . S
C2251 C2252 1.524 . S
C2251 C2255 1.400 . S
C2252 H2237 0.960 . S
C2252 H2238 0.960 . S
C2252 H2239 0.960 . S
C2252 C2251 1.524 . S
C2253 C2250 1.403 . S
C2253 C2254 1.392 . S
C2253 C2257 1.495 . S
C2254 C2253 1.392 . S
C2254 C2255 1.385 1_655 S
C2254 C2256 1.478 . S
C2255 H2249 0.930 . S
C2255 C2251 1.400 . S
C2255 C2254 1.385 1_455 S
C2256 C2254 1.478 . S
C2256 C2258 1.381 . S
C2256 C2262 1.383 . S
C2257 C2253 1.495 . S
C2257 H2263 0.959 . S
C2257 H2264 0.961 . S
C2257 H2265 0.960 . S
C2258 C2256 1.381 . S
C2258 C2259 1.394 . S
C2258 H2266 0.930 . S
C2259 C2258 1.394 . S
C2259 C2260 1.383 . S
C2259 H2267 0.929 . S
C2260 C2259 1.383 . S
C2260 C2261 1.377 . S
C2261 H2245 0.930 . S
C2261 C2260 1.377 . S
C2261 C2262 1.379 . S
C2262 H2246 0.931 . S
C2262 C2256 1.383 . S
C2262 C2261 1.379 . S
H2263 C2257 0.959 . S
H2264 C2257 0.961 . S
H2265 C2257 0.960 . S
H2266 C2258 0.930 . S
H2267 C2259 0.929 . S
H2268 C2276 0.929 . S
H2269 C2278 0.930 . S
H2270 C2280 0.930 . S
H2271 C2283 0.929 . S
H2272 C2286 0.930 . S
H2273 C2288 0.960 . S
H2274 C2288 0.960 . S
H2275 C2288 0.960 . S
C2276 H2268 0.929 . S
C2276 C2277 1.377 . S
C2276 C2278 1.384 . S
C2277 C2276 1.377 . S
C2277 C2283 1.390 . S
C2278 H2269 0.930 . S
C2278 C2276 1.384 . S
C2278 C2279 1.372 . S
C2279 C2278 1.372 . S
C2279 C2280 1.400 . S
C2279 C2284 1.490 . S
C2280 H2270 0.930 . S
C2280 C2279 1.400 . S
C2280 C2283 1.386 . S
H2281 C2297 0.930 . S
H2282 C2298 0.931 . S
C2283 H2271 0.929 . S
C2283 C2277 1.390 . S
C2283 C2280 1.386 . S
C2284 C2279 1.490 . S
C2284 C2286 1.395 . S
C2284 C2287 1.403 . S
H2285 C2291 0.930 . S
C2286 H2272 0.930 . S
C2286 C2284 1.395 . S
C2286 C2289 1.403 . S
C2287 C2284 1.403 . S
C2287 C2288 1.524 . S
C2287 C2291 1.400 . S
C2288 H2273 0.960 . S
C2288 H2274 0.960 . S
C2288 H2275 0.960 . S
C2288 C2287 1.524 . S
C2289 C2286 1.403 . S
C2289 C2290 1.392 . S
C2289 C2293 1.495 . S
C2290 C2289 1.392 . S
C2290 C2291 1.385 . S
C2290 C2292 1.478 . S
C2291 H2285 0.930 . S
C2291 C2287 1.400 . S
C2291 C2290 1.385 . S
C2292 C2290 1.478 . S
C2292 C2294 1.381 . S
C2292 C2298 1.383 . S
C2293 C2289 1.495 . S
C2293 H2299 0.959 . S
C2293 H2300 0.961 . S
C2293 H2301 0.960 . S
C2294 C2292 1.381 . S
C2294 C2295 1.394 . S
C2294 H2302 0.930 . S
C2295 C2294 1.394 . S
C2295 C2296 1.383 . S
C2295 H2303 0.929 . S
C2296 C2295 1.383 . S
C2296 C2297 1.377 . S
C2297 H2281 0.930 . S
C2297 C2296 1.377 . S
C2297 C2298 1.379 . S
C2298 H2282 0.931 . S
C2298 C2292 1.383 . S
C2298 C2297 1.379 . S
H2299 C2293 0.959 . S
H2300 C2293 0.961 . S
H2301 C2293 0.960 . S
H2302 C2294 0.930 . S
H2303 C2295 0.929 . S
H2304 C2312 0.929 . S
H2305 C2314 0.930 . S
H2306 C2316 0.930 . S
H2307 C2319 0.929 . S
H2308 C2322 0.930 . S
H2309 C2324 0.960 . S
H2310 C2324 0.960 . S
H2311 C2324 0.960 . S
C2312 H2304 0.929 . S
C2312 C2313 1.377 . S
C2312 C2314 1.384 . S
C2313 C2312 1.377 . S
C2313 C2319 1.390 . S
C2314 H2305 0.930 . S
C2314 C2312 1.384 . S
C2314 C2315 1.372 . S
C2315 C2314 1.372 . S
C2315 C2316 1.400 . S
C2315 C2320 1.490 . S
C2316 H2306 0.930 . S
C2316 C2315 1.400 . S
C2316 C2319 1.386 . S
H2317 C2333 0.930 . S
H2318 C2334 0.931 . S
C2319 H2307 0.929 . S
C2319 C2313 1.390 . S
C2319 C2316 1.386 . S
C2320 C2315 1.490 . S
C2320 C2322 1.395 1_545 S
C2320 C2323 1.403 . S
H2321 C2327 0.930 . S
C2322 H2308 0.930 . S
C2322 C2320 1.395 1_565 S
C2322 C2325 1.403 . S
C2323 C2320 1.403 . S
C2323 C2324 1.524 . S
C2323 C2327 1.400 . S
C2324 H2309 0.960 . S
C2324 H2310 0.960 . S
C2324 H2311 0.960 . S
C2324 C2323 1.524 . S
C2325 C2322 1.403 . S
C2325 C2326 1.392 . S
C2325 C2329 1.495 . S
C2326 C2325 1.392 . S
C2326 C2327 1.385 1_565 S
C2326 C2328 1.478 . S
C2327 H2321 0.930 . S
C2327 C2323 1.400 . S
C2327 C2326 1.385 1_545 S
C2328 C2326 1.478 . S
C2328 C2330 1.381 . S
C2328 C2334 1.383 . S
C2329 C2325 1.495 . S
C2329 H2335 0.959 . S
C2329 H2336 0.961 . S
C2329 H2337 0.960 . S
C2330 C2328 1.381 . S
C2330 C2331 1.394 . S
C2330 H2338 0.930 . S
C2331 C2330 1.394 . S
C2331 C2332 1.383 . S
C2331 H2339 0.929 . S
C2332 C2331 1.383 . S
C2332 C2333 1.377 . S
C2333 H2317 0.930 . S
C2333 C2332 1.377 . S
C2333 C2334 1.379 . S
C2334 H2318 0.931 . S
C2334 C2328 1.383 . S
C2334 C2333 1.379 . S
H2335 C2329 0.959 . S
H2336 C2329 0.961 . S
H2337 C2329 0.960 . S
H2338 C2330 0.930 . S
H2339 C2331 0.929 . S
H2340 C2348 0.946 . S
H2341 C2350 0.930 1_554 S
H2342 C2352 0.930 . S
H2343 C2355 0.929 . S
H2344 C2358 0.930 . S
H2345 C2360 0.960 . S
H2346 C2360 0.960 . S
H2347 C2360 0.960 . S
C2348 H2340 0.946 . S
C2348 C2349 1.377 . S
C2348 C2350 1.384 . S
C2349 C2348 1.377 . S
C2349 C2355 1.390 . S
C2350 H2341 0.930 1_556 S
C2350 C2348 1.384 . S
C2350 C2351 1.372 . S
C2351 C2350 1.372 . S
C2351 C2352 1.400 . S
C2351 C2356 1.490 . S
C2352 H2342 0.930 . S
C2352 C2351 1.400 . S
C2352 C2355 1.386 . S
H2353 C2369 0.943 . S
H2354 C2370 0.931 1_556 S
C2355 H2343 0.929 . S
C2355 C2349 1.390 . S
C2355 C2352 1.386 . S
C2356 C2351 1.490 . S
C2356 C2358 1.395 1_546 S
C2356 C2359 1.403 . S
H2357 C2363 0.928 1_556 S
C2358 H2344 0.930 . S
C2358 C2356 1.395 1_564 S
C2358 C2361 1.403 . S
C2359 C2356 1.403 . S
C2359 C2360 1.524 . S
C2359 C2363 1.394 1_556 S
C2360 H2345 0.960 . S
C2360 H2346 0.960 . S
C2360 H2347 0.960 . S
C2360 C2359 1.524 . S
C2361 C2358 1.403 . S
C2361 C2362 1.392 . S
C2361 C2365 1.495 . S
C2362 C2361 1.392 . S
C2362 C2363 1.393 1_565 S
C2362 C2364 1.478 . S
C2363 H2357 0.928 1_554 S
C2363 C2359 1.394 1_554 S
C2363 C2362 1.393 1_545 S
C2364 C2362 1.478 . S
C2364 C2366 1.381 . S
C2364 C2370 1.383 . S
C2365 C2361 1.495 . S
C2365 H2371 0.959 . S
C2365 H2372 0.961 . S
C2365 H2373 0.960 . S
C2366 C2364 1.381 . S
C2366 C2367 1.394 . S
C2366 H2374 0.930 . S
C2367 C2366 1.394 . S
C2367 C2368 1.383 . S
C2367 H2375 0.929 . S
C2368 C2367 1.383 . S
C2368 C2369 1.377 . S
C2369 H2353 0.943 . S
C2369 C2368 1.377 . S
C2369 C2370 1.379 . S
C2370 H2354 0.931 1_554 S
C2370 C2364 1.383 . S
C2370 C2369 1.379 . S
H2371 C2365 0.959 . S
H2372 C2365 0.961 . S
H2373 C2365 0.960 . S
H2374 C2366 0.930 . S
H2375 C2367 0.929 . S
H2376 C2384 0.929 1_655 S
H2377 C2386 0.930 . S
H2378 C2388 0.930 . S
H2379 C2391 0.929 . S
H2380 C2394 0.930 . S
H2381 C2396 0.940 . S
H2382 C2396 1.047 . S
H2383 C2396 0.906 1_455 S
C2384 H2376 0.929 1_455 S
C2384 C2385 1.377 . S
C2384 C2386 1.384 1_455 S
C2385 C2384 1.377 . S
C2385 C2391 1.390 . S
C2386 H2377 0.930 . S
C2386 C2384 1.384 1_655 S
C2386 C2387 1.372 1_655 S
C2387 C2386 1.372 1_455 S
C2387 C2388 1.400 . S
C2387 C2392 1.490 . S
C2388 H2378 0.930 . S
C2388 C2387 1.400 . S
C2388 C2391 1.386 . S
H2389 C2405 0.930 1_455 S
H2390 C2406 0.931 . S
C2391 H2379 0.929 . S
C2391 C2385 1.390 . S
C2391 C2388 1.386 . S
C2392 C2387 1.490 . S
C2392 C2394 1.395 1_554 S
C2392 C2395 1.409 1_455 S
H2393 C2399 0.930 . S
C2394 H2380 0.930 . S
C2394 C2392 1.395 1_556 S
C2394 C2397 1.424 1_455 S
C2395 C2392 1.409 1_655 S
C2395 C2396 1.521 . S
C2395 C2399 1.393 . S
C2396 H2381 0.940 . S
C2396 H2382 1.047 . S
C2396 H2383 0.906 1_655 S
C2396 C2395 1.521 . S
C2397 C2394 1.424 1_655 S
C2397 C2398 1.378 . S
C2397 C2401 1.495 . S
C2398 C2397 1.378 . S
C2398 C2399 1.385 1_556 S
C2398 C2400 1.478 . S
C2399 H2393 0.930 . S
C2399 C2395 1.393 . S
C2399 C2398 1.385 1_554 S
C2400 C2398 1.478 . S
C2400 C2402 1.381 . S
C2400 C2406 1.383 1_655 S
C2401 C2397 1.495 . S
C2401 H2407 0.980 1_655 S
C2401 H2408 0.896 1_655 S
C2401 H2409 1.006 . S
C2402 C2400 1.381 . S
C2402 C2403 1.394 . S
C2402 H2410 0.930 . S
C2403 C2402 1.394 . S
C2403 C2404 1.383 . S
C2403 H2411 0.929 . S
C2404 C2403 1.383 . S
C2404 C2405 1.377 . S
C2405 H2389 0.930 1_655 S
C2405 C2404 1.377 . S
C2405 C2406 1.379 1_655 S
C2406 H2390 0.931 . S
C2406 C2400 1.383 1_455 S
C2406 C2405 1.379 1_455 S
H2407 C2401 0.980 1_455 S
H2408 C2401 0.896 1_455 S
H2409 C2401 1.006 . S
H2410 C2402 0.930 . S
H2411 C2403 0.929 . S
H2412 C2420 0.929 . S
H2413 C2422 0.930 . S
H2414 C2424 0.930 . S
H2415 C2427 0.929 . S
H2416 C2430 0.930 . S
H2417 C2432 0.960 . S
H2418 C2432 0.960 . S
H2419 C2432 0.960 . S
C2420 H2412 0.929 . S
C2420 C2421 1.377 . S
C2420 C2422 1.384 . S
C2421 C2420 1.377 . S
C2421 C2427 1.390 . S
C2422 H2413 0.930 . S
C2422 C2420 1.384 . S
C2422 C2423 1.372 . S
C2423 C2422 1.372 . S
C2423 C2424 1.400 . S
C2423 C2428 1.490 . S
C2424 H2414 0.930 . S
C2424 C2423 1.400 . S
C2424 C2427 1.386 . S
H2425 C2441 0.930 . S
H2426 C2442 0.931 . S
C2427 H2415 0.929 . S
C2427 C2421 1.390 . S
C2427 C2424 1.386 . S
C2428 C2423 1.490 . S
C2428 C2430 1.395 1_554 S
C2428 C2431 1.403 . S
H2429 C2435 0.930 . S
C2430 H2416 0.930 . S
C2430 C2428 1.395 1_556 S
C2430 C2433 1.403 . S
C2431 C2428 1.403 . S
C2431 C2432 1.524 . S
C2431 C2435 1.400 . S
C2432 H2417 0.960 . S
C2432 H2418 0.960 . S
C2432 H2419 0.960 . S
C2432 C2431 1.524 . S
C2433 C2430 1.403 . S
C2433 C2434 1.392 . S
C2433 C2437 1.495 . S
C2434 C2433 1.392 . S
C2434 C2435 1.385 1_556 S
C2434 C2436 1.478 . S
C2435 H2429 0.930 . S
C2435 C2431 1.400 . S
C2435 C2434 1.385 1_554 S
C2436 C2434 1.478 . S
C2436 C2438 1.381 . S
C2436 C2442 1.383 . S
C2437 C2433 1.495 . S
C2437 H2443 0.959 . S
C2437 H2444 0.961 . S
C2437 H2445 0.960 . S
C2438 C2436 1.381 . S
C2438 C2439 1.394 . S
C2438 H2446 0.930 . S
C2439 C2438 1.394 . S
C2439 C2440 1.383 . S
C2439 H2447 0.929 . S
C2440 C2439 1.383 . S
C2440 C2441 1.377 . S
C2441 H2425 0.930 . S
C2441 C2440 1.377 . S
C2441 C2442 1.379 . S
C2442 H2426 0.931 . S
C2442 C2436 1.383 . S
C2442 C2441 1.379 . S
H2443 C2437 0.959 . S
H2444 C2437 0.961 . S
H2445 C2437 0.960 . S
H2446 C2438 0.930 . S
H2447 C2439 0.929 . S
H2448 C2456 0.929 . S
H2449 C2458 0.930 . S
H2450 C2460 0.930 . S
H2451 C2463 0.929 . S
H2452 C2466 0.930 . S
H2453 C2468 0.960 . S
H2454 C2468 0.960 . S
H2455 C2468 0.960 . S
C2456 H2448 0.929 . S
C2456 C2457 1.378 . S
C2456 C2458 1.384 1_556 S
C2457 C2456 1.378 . S
C2457 C2463 1.384 1_556 S
C2458 H2449 0.930 . S
C2458 C2456 1.384 1_554 S
C2458 C2459 1.372 . S
C2459 C2458 1.372 . S
C2459 C2460 1.400 . S
C2459 C2464 1.490 . S
C2460 H2450 0.930 . S
C2460 C2459 1.400 . S
C2460 C2463 1.386 . S
H2461 C2477 0.930 . S
H2462 C2478 0.931 . S
C2463 H2451 0.929 . S
C2463 C2457 1.384 1_554 S
C2463 C2460 1.386 . S
C2464 C2459 1.490 . S
C2464 C2466 1.395 . S
C2464 C2467 1.403 . S
H2465 C2471 0.930 . S
C2466 H2452 0.930 . S
C2466 C2464 1.395 . S
C2466 C2469 1.403 . S
C2467 C2464 1.403 . S
C2467 C2468 1.524 . S
C2467 C2471 1.400 . S
C2468 H2453 0.960 . S
C2468 H2454 0.960 . S
C2468 H2455 0.960 . S
C2468 C2467 1.524 . S
C2469 C2466 1.403 . S
C2469 C2470 1.392 . S
C2469 C2473 1.495 . S
C2470 C2469 1.392 . S
C2470 C2471 1.385 . S
C2470 C2472 1.478 . S
C2471 H2465 0.930 . S
C2471 C2467 1.400 . S
C2471 C2470 1.385 . S
C2472 C2470 1.478 . S
C2472 C2474 1.381 . S
C2472 C2478 1.383 . S
C2473 C2469 1.495 . S
C2473 H2479 0.959 . S
C2473 H2480 0.961 . S
C2473 H2481 0.960 . S
C2474 C2472 1.381 . S
C2474 C2475 1.394 . S
C2474 H2482 0.930 . S
C2475 C2474 1.394 . S
C2475 C2476 1.383 . S
C2475 H2483 0.929 . S
C2476 C2475 1.383 . S
C2476 C2477 1.377 . S
C2477 H2461 0.930 . S
C2477 C2476 1.377 . S
C2477 C2478 1.379 . S
C2478 H2462 0.931 . S
C2478 C2472 1.383 . S
C2478 C2477 1.379 . S
H2479 C2473 0.959 . S
H2480 C2473 0.961 . S
H2481 C2473 0.960 . S
H2482 C2474 0.930 . S
H2483 C2475 0.929 . S
H2484 C2492 0.929 . S
H2485 C2494 0.930 . S
H2486 C2496 0.930 . S
H2487 C2499 0.929 . S
H2488 C2502 0.930 . S
H2489 C2504 0.960 . S
H2490 C2504 0.960 . S
H2491 C2504 0.960 . S
C2492 H2484 0.929 . S
C2492 C2493 1.377 . S
C2492 C2494 1.384 . S
C2493 C2492 1.377 . S
C2493 C2499 1.390 . S
C2494 H2485 0.930 . S
C2494 C2492 1.384 . S
C2494 C2495 1.372 . S
C2495 C2494 1.372 . S
C2495 C2496 1.400 . S
C2495 C2500 1.490 . S
C2496 H2486 0.930 . S
C2496 C2495 1.400 . S
C2496 C2499 1.386 . S
H2497 C2513 0.930 . S
H2498 C2514 0.931 . S
C2499 H2487 0.929 . S
C2499 C2493 1.390 . S
C2499 C2496 1.386 . S
C2500 C2495 1.490 . S
C2500 C2502 1.395 . S
C2500 C2503 1.403 . S
H2501 C2507 0.930 . S
C2502 H2488 0.930 . S
C2502 C2500 1.395 . S
C2502 C2505 1.403 . S
C2503 C2500 1.403 . S
C2503 C2504 1.524 . S
C2503 C2507 1.400 . S
C2504 H2489 0.960 . S
C2504 H2490 0.960 . S
C2504 H2491 0.960 . S
C2504 C2503 1.524 . S
C2505 C2502 1.403 . S
C2505 C2506 1.392 . S
C2505 C2509 1.495 . S
C2506 C2505 1.392 . S
C2506 C2507 1.385 . S
C2506 C2508 1.478 . S
C2507 H2501 0.930 . S
C2507 C2503 1.400 . S
C2507 C2506 1.385 . S
C2508 C2506 1.478 . S
C2508 C2510 1.381 . S
C2508 C2514 1.383 . S
C2509 C2505 1.495 . S
C2509 H2515 0.959 . S
C2509 H2516 0.961 . S
C2509 H2517 0.960 . S
C2510 C2508 1.381 . S
C2510 C2511 1.394 1_554 S
C2510 H2518 0.930 . S
C2511 C2510 1.394 1_556 S
C2511 C2512 1.383 . S
C2511 H2519 0.929 . S
C2512 C2511 1.383 . S
C2512 C2513 1.377 1_556 S
C2513 H2497 0.930 . S
C2513 C2512 1.377 1_554 S
C2513 C2514 1.379 . S
C2514 H2498 0.931 . S
C2514 C2508 1.383 . S
C2514 C2513 1.379 . S
H2515 C2509 0.959 . S
H2516 C2509 0.961 . S
H2517 C2509 0.960 . S
H2518 C2510 0.930 . S
H2519 C2511 0.929 . S
H2520 C2528 0.963 . S
H2521 C2530 0.930 . S
H2522 C2532 0.930 . S
H2523 C2535 0.929 . S
H2524 C2538 0.930 . S
H2525 C2540 0.960 . S
H2526 C2540 0.960 . S
H2527 C2540 0.960 . S
C2528 H2520 0.963 . S
C2528 C2529 1.376 1_556 S
C2528 C2530 1.353 1_556 S
C2529 C2528 1.376 1_554 S
C2529 C2535 1.389 . S
C2530 H2521 0.930 . S
C2530 C2528 1.353 1_554 S
C2530 C2531 1.372 . S
C2531 C2530 1.372 . S
C2531 C2532 1.400 . S
C2531 C2536 1.490 . S
C2532 H2522 0.930 . S
C2532 C2531 1.400 . S
C2532 C2535 1.386 . S
H2533 C2549 0.930 . S
H2534 C2550 0.931 . S
C2535 H2523 0.929 . S
C2535 C2529 1.389 . S
C2535 C2532 1.386 . S
C2536 C2531 1.490 . S
C2536 C2538 1.395 . S
C2536 C2539 1.403 . S
H2537 C2543 0.930 . S
C2538 H2524 0.930 . S
C2538 C2536 1.395 . S
C2538 C2541 1.403 . S
C2539 C2536 1.403 . S
C2539 C2540 1.524 . S
C2539 C2543 1.400 . S
C2540 H2525 0.960 . S
C2540 H2526 0.960 . S
C2540 H2527 0.960 . S
C2540 C2539 1.524 . S
C2541 C2538 1.403 . S
C2541 C2542 1.392 . S
C2541 C2545 1.495 . S
C2542 C2541 1.392 . S
C2542 C2543 1.385 . S
C2542 C2544 1.478 . S
C2543 H2537 0.930 . S
C2543 C2539 1.400 . S
C2543 C2542 1.385 . S
C2544 C2542 1.478 . S
C2544 C2546 1.381 . S
C2544 C2550 1.383 . S
C2545 C2541 1.495 . S
C2545 H2551 0.959 . S
C2545 H2552 0.961 . S
C2545 H2553 0.960 . S
C2546 C2544 1.381 . S
C2546 C2547 1.394 . S
C2546 H2554 0.930 . S
C2547 C2546 1.394 . S
C2547 C2548 1.383 . S
C2547 H2555 0.929 . S
C2548 C2547 1.383 . S
C2548 C2549 1.377 . S
C2549 H2533 0.930 . S
C2549 C2548 1.377 . S
C2549 C2550 1.379 . S
C2550 H2534 0.931 . S
C2550 C2544 1.383 . S
C2550 C2549 1.379 . S
H2551 C2545 0.959 . S
H2552 C2545 0.961 . S
H2553 C2545 0.960 . S
H2554 C2546 0.930 . S
H2555 C2547 0.929 . S
H2556 C2564 0.929 . S
H2557 C2566 0.930 . S
H2558 C2568 0.930 . S
H2559 C2571 0.929 . S
H2560 C2574 0.930 . S
H2561 C2576 0.960 . S
H2562 C2576 0.960 . S
H2563 C2576 0.960 . S
C2564 H2556 0.929 . S
C2564 C2565 1.377 . S
C2564 C2566 1.384 . S
C2565 C2564 1.377 . S
C2565 C2571 1.390 . S
C2566 H2557 0.930 . S
C2566 C2564 1.384 . S
C2566 C2567 1.372 . S
C2567 C2566 1.372 . S
C2567 C2568 1.400 . S
C2567 C2572 1.490 . S
C2568 H2558 0.930 . S
C2568 C2567 1.400 . S
C2568 C2571 1.386 . S
H2569 C2585 0.930 . S
H2570 C2586 0.931 . S
C2571 H2559 0.929 . S
C2571 C2565 1.390 . S
C2571 C2568 1.386 . S
C2572 C2567 1.490 . S
C2572 C2574 1.395 . S
C2572 C2575 1.403 . S
H2573 C2579 0.930 . S
C2574 H2560 0.930 . S
C2574 C2572 1.395 . S
C2574 C2577 1.403 . S
C2575 C2572 1.403 . S
C2575 C2576 1.524 . S
C2575 C2579 1.400 . S
C2576 H2561 0.960 . S
C2576 H2562 0.960 . S
C2576 H2563 0.960 . S
C2576 C2575 1.524 . S
C2577 C2574 1.403 . S
C2577 C2578 1.392 . S
C2577 C2581 1.495 . S
C2578 C2577 1.392 . S
C2578 C2579 1.385 . S
C2578 C2580 1.478 . S
C2579 H2573 0.930 . S
C2579 C2575 1.400 . S
C2579 C2578 1.385 . S
C2580 C2578 1.478 . S
C2580 C2582 1.381 . S
C2580 C2586 1.383 . S
C2581 C2577 1.495 . S
C2581 H2587 0.959 . S
C2581 H2588 0.961 . S
C2581 H2589 0.960 . S
C2582 C2580 1.381 . S
C2582 C2583 1.394 . S
C2582 H2590 0.930 . S
C2583 C2582 1.394 . S
C2583 C2584 1.383 . S
C2583 H2591 0.929 . S
C2584 C2583 1.383 . S
C2584 C2585 1.377 . S
C2585 H2569 0.930 . S
C2585 C2584 1.377 . S
C2585 C2586 1.379 . S
C2586 H2570 0.931 . S
C2586 C2580 1.383 . S
C2586 C2585 1.379 . S
H2587 C2581 0.959 . S
H2588 C2581 0.961 . S
H2589 C2581 0.960 . S
H2590 C2582 0.930 . S
H2591 C2583 0.929 . S
H2592 C2600 0.929 . S
H2593 C2602 0.930 . S
H2594 C2604 0.930 . S
H2595 C2607 0.929 . S
H2596 C2610 0.930 . S
H2597 C2612 0.960 . S
H2598 C2612 0.960 . S
H2599 C2612 0.960 . S
C2600 H2592 0.929 . S
C2600 C2601 1.377 . S
C2600 C2602 1.384 . S
C2601 C2600 1.377 . S
C2601 C2607 1.390 . S
C2602 H2593 0.930 . S
C2602 C2600 1.384 . S
C2602 C2603 1.372 . S
C2603 C2602 1.372 . S
C2603 C2604 1.400 . S
C2603 C2608 1.490 . S
C2604 H2594 0.930 . S
C2604 C2603 1.400 . S
C2604 C2607 1.386 . S
H2605 C2621 0.930 . S
H2606 C2622 0.931 . S
C2607 H2595 0.929 . S
C2607 C2601 1.390 . S
C2607 C2604 1.386 . S
C2608 C2603 1.490 . S
C2608 C2610 1.395 . S
C2608 C2611 1.403 . S
H2609 C2615 0.930 . S
C2610 H2596 0.930 . S
C2610 C2608 1.395 . S
C2610 C2613 1.403 . S
C2611 C2608 1.403 . S
C2611 C2612 1.524 . S
C2611 C2615 1.400 . S
C2612 H2597 0.960 . S
C2612 H2598 0.960 . S
C2612 H2599 0.960 . S
C2612 C2611 1.524 . S
C2613 C2610 1.403 . S
C2613 C2614 1.392 . S
C2613 C2617 1.495 . S
C2614 C2613 1.392 . S
C2614 C2615 1.385 . S
C2614 C2616 1.478 . S
C2615 H2609 0.930 . S
C2615 C2611 1.400 . S
C2615 C2614 1.385 . S
C2616 C2614 1.478 . S
C2616 C2618 1.381 . S
C2616 C2622 1.383 . S
C2617 C2613 1.495 . S
C2617 H2623 0.959 . S
C2617 H2624 0.961 . S
C2617 H2625 0.960 . S
C2618 C2616 1.381 . S
C2618 C2619 1.394 . S
C2618 H2626 0.930 . S
C2619 C2618 1.394 . S
C2619 C2620 1.383 . S
C2619 H2627 0.929 . S
C2620 C2619 1.383 . S
C2620 C2621 1.377 . S
C2621 H2605 0.930 . S
C2621 C2620 1.377 . S
C2621 C2622 1.379 . S
C2622 H2606 0.931 . S
C2622 C2616 1.383 . S
C2622 C2621 1.379 . S
H2623 C2617 0.959 . S
H2624 C2617 0.961 . S
H2625 C2617 0.960 . S
H2626 C2618 0.930 . S
H2627 C2619 0.929 . S
H2628 C2636 0.929 . S
H2629 C2638 0.930 . S
H2630 C2640 0.930 . S
H2631 C2643 0.929 . S
H2632 C2646 0.930 . S
H2633 C2648 0.960 . S
H2634 C2648 0.960 . S
H2635 C2648 0.960 . S
C2636 H2628 0.929 . S
C2636 C2637 1.377 . S
C2636 C2638 1.384 . S
C2637 C2636 1.377 . S
C2637 C2643 1.390 . S
C2638 H2629 0.930 . S
C2638 C2636 1.384 . S
C2638 C2639 1.372 . S
C2639 C2638 1.372 . S
C2639 C2640 1.400 . S
C2639 C2644 1.490 . S
C2640 H2630 0.930 . S
C2640 C2639 1.400 . S
C2640 C2643 1.386 . S
H2641 C2657 0.930 . S
H2642 C2658 0.931 . S
C2643 H2631 0.929 . S
C2643 C2637 1.390 . S
C2643 C2640 1.386 . S
C2644 C2639 1.490 . S
C2644 C2646 1.395 . S
C2644 C2647 1.403 . S
H2645 C2651 0.930 . S
C2646 H2632 0.930 . S
C2646 C2644 1.395 . S
C2646 C2649 1.403 . S
C2647 C2644 1.403 . S
C2647 C2648 1.524 . S
C2647 C2651 1.400 . S
C2648 H2633 0.960 . S
C2648 H2634 0.960 . S
C2648 H2635 0.960 . S
C2648 C2647 1.524 . S
C2649 C2646 1.403 . S
C2649 C2650 1.392 . S
C2649 C2653 1.495 . S
C2650 C2649 1.392 . S
C2650 C2651 1.385 . S
C2650 C2652 1.478 . S
C2651 H2645 0.930 . S
C2651 C2647 1.400 . S
C2651 C2650 1.385 . S
C2652 C2650 1.478 . S
C2652 C2654 1.381 . S
C2652 C2658 1.383 . S
C2653 C2649 1.495 . S
C2653 H2659 0.959 . S
C2653 H2660 0.961 . S
C2653 H2661 0.960 . S
C2654 C2652 1.381 . S
C2654 C2655 1.394 . S
C2654 H2662 0.930 . S
C2655 C2654 1.394 . S
C2655 C2656 1.383 . S
C2655 H2663 0.929 . S
C2656 C2655 1.383 . S
C2656 C2657 1.377 . S
C2657 H2641 0.930 . S
C2657 C2656 1.377 . S
C2657 C2658 1.379 . S
C2658 H2642 0.931 . S
C2658 C2652 1.383 . S
C2658 C2657 1.379 . S
H2659 C2653 0.959 . S
H2660 C2653 0.961 . S
H2661 C2653 0.960 . S
H2662 C2654 0.930 . S
H2663 C2655 0.929 . S
H2664 C2672 0.929 . S
H2665 C2674 0.930 . S
H2666 C2676 0.930 . S
H2667 C2679 0.929 . S
H2668 C2682 0.930 . S
H2669 C2684 0.960 . S
H2670 C2684 0.960 . S
H2671 C2684 0.960 . S
C2672 H2664 0.929 . S
C2672 C2673 1.377 . S
C2672 C2674 1.384 . S
C2673 C2672 1.377 . S
C2673 C2679 1.390 . S
C2674 H2665 0.930 . S
C2674 C2672 1.384 . S
C2674 C2675 1.372 . S
C2675 C2674 1.372 . S
C2675 C2676 1.400 . S
C2675 C2680 1.490 . S
C2676 H2666 0.930 . S
C2676 C2675 1.400 . S
C2676 C2679 1.386 . S
H2677 C2693 0.930 . S
H2678 C2694 0.931 . S
C2679 H2667 0.929 . S
C2679 C2673 1.390 . S
C2679 C2676 1.386 . S
C2680 C2675 1.490 . S
C2680 C2682 1.395 . S
C2680 C2683 1.403 . S
H2681 C2687 0.930 . S
C2682 H2668 0.930 . S
C2682 C2680 1.395 . S
C2682 C2685 1.403 . S
C2683 C2680 1.403 . S
C2683 C2684 1.524 . S
C2683 C2687 1.400 . S
C2684 H2669 0.960 . S
C2684 H2670 0.960 . S
C2684 H2671 0.960 . S
C2684 C2683 1.524 . S
C2685 C2682 1.403 . S
C2685 C2686 1.392 . S
C2685 C2689 1.495 . S
C2686 C2685 1.392 . S
C2686 C2687 1.385 . S
C2686 C2688 1.478 . S
C2687 H2681 0.930 . S
C2687 C2683 1.400 . S
C2687 C2686 1.385 . S
C2688 C2686 1.478 . S
C2688 C2690 1.381 . S
C2688 C2694 1.383 . S
C2689 C2685 1.495 . S
C2689 H2695 0.959 . S
C2689 H2696 0.961 . S
C2689 H2697 0.960 . S
C2690 C2688 1.381 . S
C2690 C2691 1.394 . S
C2690 H2698 0.930 . S
C2691 C2690 1.394 . S
C2691 C2692 1.387 1_556 S
C2691 H2699 0.929 . S
C2692 C2691 1.387 1_554 S
C2692 C2693 1.376 . S
C2693 H2677 0.930 . S
C2693 C2692 1.376 . S
C2693 C2694 1.379 1_554 S
C2694 H2678 0.931 . S
C2694 C2688 1.383 . S
C2694 C2693 1.379 1_556 S
H2695 C2689 0.959 . S
H2696 C2689 0.961 . S
H2697 C2689 0.960 . S
H2698 C2690 0.930 . S
H2699 C2691 0.929 . S
H2700 C2708 0.930 1_554 S
H2701 C2710 0.930 . S
H2702 C2712 0.930 . S
H2703 C2715 0.929 . S
H2704 C2718 0.930 . S
H2705 C2720 0.960 . S
H2706 C2720 0.960 . S
H2707 C2720 0.960 . S
C2708 H2700 0.930 1_556 S
C2708 C2709 1.377 . S
C2708 C2710 1.383 . S
C2709 C2708 1.377 . S
C2709 C2715 1.389 . S
C2710 H2701 0.930 . S
C2710 C2708 1.383 . S
C2710 C2711 1.372 . S
C2711 C2710 1.372 . S
C2711 C2712 1.400 . S
C2711 C2716 1.490 . S
C2712 H2702 0.930 . S
C2712 C2711 1.400 . S
C2712 C2715 1.386 . S
H2713 C2729 0.930 . S
H2714 C2730 0.931 . S
C2715 H2703 0.929 . S
C2715 C2709 1.389 . S
C2715 C2712 1.386 . S
C2716 C2711 1.490 . S
C2716 C2718 1.395 . S
C2716 C2719 1.403 . S
H2717 C2723 0.930 . S
C2718 H2704 0.930 . S
C2718 C2716 1.395 . S
C2718 C2721 1.403 . S
C2719 C2716 1.403 . S
C2719 C2720 1.524 . S
C2719 C2723 1.400 . S
C2720 H2705 0.960 . S
C2720 H2706 0.960 . S
C2720 H2707 0.960 . S
C2720 C2719 1.524 . S
C2721 C2718 1.403 . S
C2721 C2722 1.392 . S
C2721 C2725 1.495 . S
C2722 C2721 1.392 . S
C2722 C2723 1.385 . S
C2722 C2724 1.478 . S
C2723 H2717 0.930 . S
C2723 C2719 1.400 . S
C2723 C2722 1.385 . S
C2724 C2722 1.478 . S
C2724 C2726 1.381 . S
C2724 C2730 1.383 . S
C2725 C2721 1.495 . S
C2725 H2731 0.959 . S
C2725 H2732 0.961 . S
C2725 H2733 0.960 . S
C2726 C2724 1.381 . S
C2726 C2727 1.394 . S
C2726 H2734 0.930 . S
C2727 C2726 1.394 . S
C2727 C2728 1.383 . S
C2727 H2735 0.929 . S
C2728 C2727 1.383 . S
C2728 C2729 1.377 . S
C2729 H2713 0.930 . S
C2729 C2728 1.377 . S
C2729 C2730 1.379 . S
C2730 H2714 0.931 . S
C2730 C2724 1.383 . S
C2730 C2729 1.379 . S
H2731 C2725 0.959 . S
H2732 C2725 0.961 . S
H2733 C2725 0.960 . S
H2734 C2726 0.930 . S
H2735 C2727 0.929 . S
H2736 C2744 0.929 . S
H2737 C2746 0.930 . S
H2738 C2748 0.930 . S
H2739 C2751 0.929 . S
H2740 C2754 0.930 . S
H2741 C2756 0.960 . S
H2742 C2756 0.960 . S
H2743 C2756 0.960 . S
C2744 H2736 0.929 . S
C2744 C2745 1.377 . S
C2744 C2746 1.384 . S
C2745 C2744 1.377 . S
C2745 C2751 1.390 . S
C2746 H2737 0.930 . S
C2746 C2744 1.384 . S
C2746 C2747 1.372 . S
C2747 C2746 1.372 . S
C2747 C2748 1.400 . S
C2747 C2752 1.490 . S
C2748 H2738 0.930 . S
C2748 C2747 1.400 . S
C2748 C2751 1.386 . S
H2749 C2765 0.930 . S
H2750 C2766 0.931 . S
C2751 H2739 0.929 . S
C2751 C2745 1.390 . S
C2751 C2748 1.386 . S
C2752 C2747 1.490 . S
C2752 C2754 1.395 . S
C2752 C2755 1.403 . S
H2753 C2759 0.930 . S
C2754 H2740 0.930 . S
C2754 C2752 1.395 . S
C2754 C2757 1.403 . S
C2755 C2752 1.403 . S
C2755 C2756 1.524 . S
C2755 C2759 1.400 . S
C2756 H2741 0.960 . S
C2756 H2742 0.960 . S
C2756 H2743 0.960 . S
C2756 C2755 1.524 . S
C2757 C2754 1.403 . S
C2757 C2758 1.392 . S
C2757 C2761 1.495 . S
C2758 C2757 1.392 . S
C2758 C2759 1.385 . S
C2758 C2760 1.478 . S
C2759 H2753 0.930 . S
C2759 C2755 1.400 . S
C2759 C2758 1.385 . S
C2760 C2758 1.478 . S
C2760 C2762 1.381 . S
C2760 C2766 1.383 . S
C2761 C2757 1.495 . S
C2761 H2767 0.959 . S
C2761 H2768 0.961 . S
C2761 H2769 0.960 . S
C2762 C2760 1.381 . S
C2762 C2763 1.394 . S
C2762 H2770 0.930 . S
C2763 C2762 1.394 . S
C2763 C2764 1.362 1_556 S
C2763 H2771 0.929 . S
C2764 C2763 1.362 1_554 S
C2764 C2765 1.378 . S
C2765 H2749 0.930 . S
C2765 C2764 1.378 . S
C2765 C2766 1.379 1_554 S
C2766 H2750 0.931 . S
C2766 C2760 1.383 . S
C2766 C2765 1.379 1_556 S
H2767 C2761 0.959 . S
H2768 C2761 0.961 . S
H2769 C2761 0.960 . S
H2770 C2762 0.930 . S
H2771 C2763 0.929 . S
H2772 C2780 0.929 . S
H2773 C2782 0.930 . S
H2774 C2784 0.930 . S
H2775 C2787 0.929 . S
H2776 C2790 0.930 . S
H2777 C2792 0.960 . S
H2778 C2792 0.960 . S
H2779 C2792 0.960 . S
C2780 H2772 0.929 . S
C2780 C2781 1.377 . S
C2780 C2782 1.384 . S
C2781 C2780 1.377 . S
C2781 C2787 1.390 . S
C2782 H2773 0.930 . S
C2782 C2780 1.384 . S
C2782 C2783 1.372 . S
C2783 C2782 1.372 . S
C2783 C2784 1.400 . S
C2783 C2788 1.490 . S
C2784 H2774 0.930 . S
C2784 C2783 1.400 . S
C2784 C2787 1.386 . S
H2785 C2801 0.930 . S
H2786 C2802 0.931 . S
C2787 H2775 0.929 . S
C2787 C2781 1.390 . S
C2787 C2784 1.386 . S
C2788 C2783 1.490 . S
C2788 C2790 1.395 . S
C2788 C2791 1.403 . S
H2789 C2795 0.930 . S
C2790 H2776 0.930 . S
C2790 C2788 1.395 . S
C2790 C2793 1.403 . S
C2791 C2788 1.403 . S
C2791 C2792 1.524 . S
C2791 C2795 1.400 . S
C2792 H2777 0.960 . S
C2792 H2778 0.960 . S
C2792 H2779 0.960 . S
C2792 C2791 1.524 . S
C2793 C2790 1.403 . S
C2793 C2794 1.392 . S
C2793 C2797 1.495 . S
C2794 C2793 1.392 . S
C2794 C2795 1.385 . S
C2794 C2796 1.478 . S
C2795 H2789 0.930 . S
C2795 C2791 1.400 . S
C2795 C2794 1.385 . S
C2796 C2794 1.478 . S
C2796 C2798 1.381 . S
C2796 C2802 1.383 . S
C2797 C2793 1.495 . S
C2797 H2803 0.959 . S
C2797 H2804 0.961 . S
C2797 H2805 0.960 . S
C2798 C2796 1.381 . S
C2798 C2799 1.394 . S
C2798 H2806 0.930 . S
C2799 C2798 1.394 . S
C2799 C2800 1.383 . S
C2799 H2807 0.929 . S
C2800 C2799 1.383 . S
C2800 C2801 1.377 . S
C2801 H2785 0.930 . S
C2801 C2800 1.377 . S
C2801 C2802 1.379 . S
C2802 H2786 0.931 . S
C2802 C2796 1.383 . S
C2802 C2801 1.379 . S
H2803 C2797 0.959 . S
H2804 C2797 0.961 . S
H2805 C2797 0.960 . S
H2806 C2798 0.930 . S
H2807 C2799 0.929 . S
H2808 C2816 0.929 . S
H2809 C2818 0.930 . S
H2810 C2820 0.930 . S
H2811 C2823 0.929 . S
H2812 C2826 0.930 . S
H2813 C2828 0.960 . S
H2814 C2828 0.960 . S
H2815 C2828 0.960 . S
C2816 H2808 0.929 . S
C2816 C2817 1.377 . S
C2816 C2818 1.384 . S
C2817 C2816 1.377 . S
C2817 C2823 1.390 . S
C2818 H2809 0.930 . S
C2818 C2816 1.384 . S
C2818 C2819 1.372 . S
C2819 C2818 1.372 . S
C2819 C2820 1.400 . S
C2819 C2824 1.490 . S
C2820 H2810 0.930 . S
C2820 C2819 1.400 . S
C2820 C2823 1.386 . S
H2821 C2837 0.930 . S
H2822 C2838 0.931 . S
C2823 H2811 0.929 . S
C2823 C2817 1.390 . S
C2823 C2820 1.386 . S
C2824 C2819 1.490 . S
C2824 C2826 1.395 . S
C2824 C2827 1.403 . S
H2825 C2831 0.930 . S
C2826 H2812 0.930 . S
C2826 C2824 1.395 . S
C2826 C2829 1.403 . S
C2827 C2824 1.403 . S
C2827 C2828 1.524 . S
C2827 C2831 1.400 . S
C2828 H2813 0.960 . S
C2828 H2814 0.960 . S
C2828 H2815 0.960 . S
C2828 C2827 1.524 . S
C2829 C2826 1.403 . S
C2829 C2830 1.392 . S
C2829 C2833 1.495 . S
C2830 C2829 1.392 . S
C2830 C2831 1.385 . S
C2830 C2832 1.478 . S
C2831 H2825 0.930 . S
C2831 C2827 1.400 . S
C2831 C2830 1.385 . S
C2832 C2830 1.478 . S
C2832 C2834 1.381 . S
C2832 C2838 1.383 . S
C2833 C2829 1.495 . S
C2833 H2839 0.959 . S
C2833 H2840 0.961 . S
C2833 H2841 0.960 . S
C2834 C2832 1.381 . S
C2834 C2835 1.394 . S
C2834 H2842 0.930 . S
C2835 C2834 1.394 . S
C2835 C2836 1.383 . S
C2835 H2843 0.929 . S
C2836 C2835 1.383 . S
C2836 C2837 1.377 . S
C2837 H2821 0.930 . S
C2837 C2836 1.377 . S
C2837 C2838 1.379 . S
C2838 H2822 0.931 . S
C2838 C2832 1.383 . S
C2838 C2837 1.379 . S
H2839 C2833 0.959 . S
H2840 C2833 0.961 . S
H2841 C2833 0.960 . S
H2842 C2834 0.930 . S
H2843 C2835 0.929 . S
H2844 C2852 0.929 . S
H2845 C2854 0.930 . S
H2846 C2856 0.930 . S
H2847 C2859 0.929 . S
H2848 C2862 0.930 . S
H2849 C2864 0.960 . S
H2850 C2864 0.960 . S
H2851 C2864 0.960 . S
C2852 H2844 0.929 . S
C2852 C2853 1.377 . S
C2852 C2854 1.384 . S
C2853 C2852 1.377 . S
C2853 C2859 1.390 . S
C2854 H2845 0.930 . S
C2854 C2852 1.384 . S
C2854 C2855 1.372 . S
C2855 C2854 1.372 . S
C2855 C2856 1.400 . S
C2855 C2860 1.490 . S
C2856 H2846 0.930 . S
C2856 C2855 1.400 . S
C2856 C2859 1.386 . S
H2857 C2873 0.930 . S
H2858 C2874 0.931 . S
C2859 H2847 0.929 . S
C2859 C2853 1.390 . S
C2859 C2856 1.386 . S
C2860 C2855 1.490 . S
C2860 C2862 1.395 . S
C2860 C2863 1.403 . S
H2861 C2867 0.930 . S
C2862 H2848 0.930 . S
C2862 C2860 1.395 . S
C2862 C2865 1.403 . S
C2863 C2860 1.403 . S
C2863 C2864 1.524 . S
C2863 C2867 1.400 . S
C2864 H2849 0.960 . S
C2864 H2850 0.960 . S
C2864 H2851 0.960 . S
C2864 C2863 1.524 . S
C2865 C2862 1.403 . S
C2865 C2866 1.392 . S
C2865 C2869 1.495 . S
C2866 C2865 1.392 . S
C2866 C2867 1.385 . S
C2866 C2868 1.478 . S
C2867 H2861 0.930 . S
C2867 C2863 1.400 . S
C2867 C2866 1.385 . S
C2868 C2866 1.478 . S
C2868 C2870 1.381 . S
C2868 C2874 1.383 . S
C2869 C2865 1.495 . S
C2869 H2875 0.959 . S
C2869 H2876 0.961 . S
C2869 H2877 0.960 . S
C2870 C2868 1.381 . S
C2870 C2871 1.394 . S
C2870 H2878 0.930 . S
C2871 C2870 1.394 . S
C2871 C2872 1.383 . S
C2871 H2879 0.929 . S
C2872 C2871 1.383 . S
C2872 C2873 1.377 . S
C2873 H2857 0.930 . S
C2873 C2872 1.377 . S
C2873 C2874 1.379 . S
C2874 H2858 0.931 . S
C2874 C2868 1.383 . S
C2874 C2873 1.379 . S
H2875 C2869 0.959 . S
H2876 C2869 0.961 . S
H2877 C2869 0.960 . S
H2878 C2870 0.930 . S
H2879 C2871 0.929 . S
H2880 C2888 0.929 . S
H2881 C2890 0.930 . S
H2882 C2892 0.930 . S
H2883 C2895 0.929 . S
H2884 C2898 0.930 . S
H2885 C2900 0.960 . S
H2886 C2900 0.960 . S
H2887 C2900 0.960 . S
C2888 H2880 0.929 . S
C2888 C2889 1.377 . S
C2888 C2890 1.384 . S
C2889 C2888 1.377 . S
C2889 C2895 1.390 . S
C2890 H2881 0.930 . S
C2890 C2888 1.384 . S
C2890 C2891 1.372 . S
C2891 C2890 1.372 . S
C2891 C2892 1.400 . S
C2891 C2896 1.490 . S
C2892 H2882 0.930 . S
C2892 C2891 1.400 . S
C2892 C2895 1.386 . S
H2893 C2909 0.930 . S
H2894 C2910 0.931 . S
C2895 H2883 0.929 . S
C2895 C2889 1.390 . S
C2895 C2892 1.386 . S
C2896 C2891 1.490 . S
C2896 C2898 1.395 . S
C2896 C2899 1.403 . S
H2897 C2903 0.930 . S
C2898 H2884 0.930 . S
C2898 C2896 1.395 . S
C2898 C2901 1.403 . S
C2899 C2896 1.403 . S
C2899 C2900 1.524 . S
C2899 C2903 1.400 . S
C2900 H2885 0.960 . S
C2900 H2886 0.960 . S
C2900 H2887 0.960 . S
C2900 C2899 1.524 . S
C2901 C2898 1.403 . S
C2901 C2902 1.392 . S
C2901 C2905 1.495 . S
C2902 C2901 1.392 . S
C2902 C2903 1.385 . S
C2902 C2904 1.478 . S
C2903 H2897 0.930 . S
C2903 C2899 1.400 . S
C2903 C2902 1.385 . S
C2904 C2902 1.478 . S
C2904 C2906 1.381 . S
C2904 C2910 1.383 . S
C2905 C2901 1.495 . S
C2905 H2911 0.959 . S
C2905 H2912 0.961 . S
C2905 H2913 0.960 . S
C2906 C2904 1.381 . S
C2906 C2907 1.394 . S
C2906 H2914 0.930 . S
C2907 C2906 1.394 . S
C2907 C2908 1.383 . S
C2907 H2915 0.929 . S
C2908 C2907 1.383 . S
C2908 C2909 1.377 . S
C2909 H2893 0.930 . S
C2909 C2908 1.377 . S
C2909 C2910 1.379 . S
C2910 H2894 0.931 . S
C2910 C2904 1.383 . S
C2910 C2909 1.379 . S
H2911 C2905 0.959 . S
H2912 C2905 0.961 . S
H2913 C2905 0.960 . S
H2914 C2906 0.930 . S
H2915 C2907 0.929 . S
H2916 C2924 0.929 . S
H2917 C2926 0.930 . S
H2918 C2928 0.930 . S
H2919 C2931 0.929 . S
H2920 C2934 0.930 . S
H2921 C2936 0.960 . S
H2922 C2936 0.960 . S
H2923 C2936 0.960 . S
C2924 H2916 0.929 . S
C2924 C2925 1.377 . S
C2924 C2926 1.384 . S
C2925 C2924 1.377 . S
C2925 C2931 1.390 . S
C2926 H2917 0.930 . S
C2926 C2924 1.384 . S
C2926 C2927 1.372 . S
C2927 C2926 1.372 . S
C2927 C2928 1.400 . S
C2927 C2932 1.490 . S
C2928 H2918 0.930 . S
C2928 C2927 1.400 . S
C2928 C2931 1.386 . S
H2929 C2945 0.930 . S
H2930 C2946 0.931 . S
C2931 H2919 0.929 . S
C2931 C2925 1.390 . S
C2931 C2928 1.386 . S
C2932 C2927 1.490 . S
C2932 C2934 1.395 1_545 S
C2932 C2935 1.403 . S
H2933 C2939 0.930 . S
C2934 H2920 0.930 . S
C2934 C2932 1.395 1_565 S
C2934 C2937 1.403 . S
C2935 C2932 1.403 . S
C2935 C2936 1.524 . S
C2935 C2939 1.400 . S
C2936 H2921 0.960 . S
C2936 H2922 0.960 . S
C2936 H2923 0.960 . S
C2936 C2935 1.524 . S
C2937 C2934 1.403 . S
C2937 C2938 1.392 . S
C2937 C2941 1.495 . S
C2938 C2937 1.392 . S
C2938 C2939 1.385 1_565 S
C2938 C2940 1.478 . S
C2939 H2933 0.930 . S
C2939 C2935 1.400 . S
C2939 C2938 1.385 1_545 S
C2940 C2938 1.478 . S
C2940 C2942 1.381 . S
C2940 C2946 1.383 . S
C2941 C2937 1.495 . S
C2941 H2947 0.959 . S
C2941 H2948 0.961 . S
C2941 H2949 0.960 . S
C2942 C2940 1.381 . S
C2942 C2943 1.394 . S
C2942 H2950 0.930 . S
C2943 C2942 1.394 . S
C2943 C2944 1.383 . S
C2943 H2951 0.929 . S
C2944 C2943 1.383 . S
C2944 C2945 1.377 . S
C2945 H2929 0.930 . S
C2945 C2944 1.377 . S
C2945 C2946 1.379 . S
C2946 H2930 0.931 . S
C2946 C2940 1.383 . S
C2946 C2945 1.379 . S
H2947 C2941 0.959 . S
H2948 C2941 0.961 . S
H2949 C2941 0.960 . S
H2950 C2942 0.930 . S
H2951 C2943 0.929 . S
H2952 C2960 0.929 . S
H2953 C2962 0.930 . S
H2954 C2964 0.930 . S
H2955 C2967 0.929 . S
H2956 C2970 0.930 . S
H2957 C2972 0.960 . S
H2958 C2972 0.960 . S
H2959 C2972 0.960 . S
C2960 H2952 0.929 . S
C2960 C2961 1.377 . S
C2960 C2962 1.384 . S
C2961 C2960 1.377 . S
C2961 C2967 1.390 . S
C2962 H2953 0.930 . S
C2962 C2960 1.384 . S
C2962 C2963 1.372 . S
C2963 C2962 1.372 . S
C2963 C2964 1.400 . S
C2963 C2968 1.490 . S
C2964 H2954 0.930 . S
C2964 C2963 1.400 . S
C2964 C2967 1.386 . S
H2965 C2981 0.930 . S
H2966 C2982 0.931 . S
C2967 H2955 0.929 . S
C2967 C2961 1.390 . S
C2967 C2964 1.386 . S
C2968 C2963 1.490 . S
C2968 C2970 1.395 . S
C2968 C2971 1.403 1_655 S
H2969 C2975 0.930 . S
C2970 H2956 0.930 . S
C2970 C2968 1.395 . S
C2970 C2973 1.403 . S
C2971 C2968 1.403 1_455 S
C2971 C2972 1.524 . S
C2971 C2975 1.400 . S
C2972 H2957 0.960 . S
C2972 H2958 0.960 . S
C2972 H2959 0.960 . S
C2972 C2971 1.524 . S
C2973 C2970 1.403 . S
C2973 C2974 1.392 1_655 S
C2973 C2977 1.495 . S
C2974 C2973 1.392 1_455 S
C2974 C2975 1.385 . S
C2974 C2976 1.478 . S
C2975 H2969 0.930 . S
C2975 C2971 1.400 . S
C2975 C2974 1.385 . S
C2976 C2974 1.478 . S
C2976 C2978 1.381 . S
C2976 C2982 1.383 . S
C2977 C2973 1.495 . S
C2977 H2983 0.959 . S
C2977 H2984 0.961 . S
C2977 H2985 0.960 . S
C2978 C2976 1.381 . S
C2978 C2979 1.394 . S
C2978 H2986 0.930 . S
C2979 C2978 1.394 . S
C2979 C2980 1.383 . S
C2979 H2987 0.929 . S
C2980 C2979 1.383 . S
C2980 C2981 1.377 . S
C2981 H2965 0.930 . S
C2981 C2980 1.377 . S
C2981 C2982 1.379 . S
C2982 H2966 0.931 . S
C2982 C2976 1.383 . S
C2982 C2981 1.379 . S
H2983 C2977 0.959 . S
H2984 C2977 0.961 . S
H2985 C2977 0.960 . S
H2986 C2978 0.930 . S
H2987 C2979 0.929 . S
H2988 C2996 0.929 . S
H2989 C2998 0.930 . S
H2990 C3000 0.930 . S
H2991 C3003 0.929 . S
H2992 C3006 0.930 . S
H2993 C3008 0.960 . S
H2994 C3008 0.960 . S
H2995 C3008 0.960 . S
C2996 H2988 0.929 . S
C2996 C2997 1.377 . S
C2996 C2998 1.384 . S
C2997 C2996 1.377 . S
C2997 C3003 1.390 . S
C2998 H2989 0.930 . S
C2998 C2996 1.384 . S
C2998 C2999 1.372 . S
C2999 C2998 1.372 . S
C2999 C3000 1.400 . S
C2999 C3004 1.490 . S
C3000 H2990 0.930 . S
C3000 C2999 1.400 . S
C3000 C3003 1.386 . S
H3001 C3017 0.930 . S
H3002 C3018 0.931 . S
C3003 H2991 0.929 . S
C3003 C2997 1.390 . S
C3003 C3000 1.386 . S
C3004 C2999 1.490 . S
C3004 C3006 1.395 . S
C3004 C3007 1.403 . S
H3005 C3011 0.930 . S
C3006 H2992 0.930 . S
C3006 C3004 1.395 . S
C3006 C3009 1.403 . S
C3007 C3004 1.403 . S
C3007 C3008 1.524 . S
C3007 C3011 1.400 . S
C3008 H2993 0.960 . S
C3008 H2994 0.960 . S
C3008 H2995 0.960 . S
C3008 C3007 1.524 . S
C3009 C3006 1.403 . S
C3009 C3010 1.392 . S
C3009 C3013 1.495 . S
C3010 C3009 1.392 . S
C3010 C3011 1.385 . S
C3010 C3012 1.478 . S
C3011 H3005 0.930 . S
C3011 C3007 1.400 . S
C3011 C3010 1.385 . S
C3012 C3010 1.478 . S
C3012 C3014 1.381 . S
C3012 C3018 1.383 . S
C3013 C3009 1.495 . S
C3013 H3019 0.959 . S
C3013 H3020 0.961 . S
C3013 H3021 0.960 . S
C3014 C3012 1.381 . S
C3014 C3015 1.394 . S
C3014 H3022 0.930 . S
C3015 C3014 1.394 . S
C3015 C3016 1.383 . S
C3015 H3023 0.929 . S
C3016 C3015 1.383 . S
C3016 C3017 1.377 . S
C3017 H3001 0.930 . S
C3017 C3016 1.377 . S
C3017 C3018 1.379 . S
C3018 H3002 0.931 . S
C3018 C3012 1.383 . S
C3018 C3017 1.379 . S
H3019 C3013 0.959 . S
H3020 C3013 0.961 . S
H3021 C3013 0.960 . S
H3022 C3014 0.930 . S
H3023 C3015 0.929 . S
H3024 C3032 0.929 . S
H3025 C3034 0.930 . S
H3026 C3036 0.930 . S
H3027 C3039 0.929 . S
H3028 C3042 0.930 . S
H3029 C3044 0.984 . S
H3030 C3044 0.988 . S
H3031 C3044 0.887 1_545 S
C3032 H3024 0.929 . S
C3032 C3033 1.377 . S
C3032 C3034 1.384 . S
C3033 C3032 1.377 . S
C3033 C3039 1.390 . S
C3034 H3025 0.930 . S
C3034 C3032 1.384 . S
C3034 C3035 1.372 . S
C3035 C3034 1.372 . S
C3035 C3036 1.400 . S
C3035 C3040 1.490 . S
C3036 H3026 0.930 . S
C3036 C3035 1.400 . S
C3036 C3039 1.386 . S
H3037 C3053 0.930 . S
H3038 C3054 0.931 . S
C3039 H3027 0.929 . S
C3039 C3033 1.390 . S
C3039 C3036 1.386 . S
C3040 C3035 1.490 . S
C3040 C3042 1.395 . S
C3040 C3043 1.403 . S
H3041 C3047 0.930 . S
C3042 H3028 0.930 . S
C3042 C3040 1.395 . S
C3042 C3045 1.400 1_545 S
C3043 C3040 1.403 . S
C3043 C3044 1.551 1_545 S
C3043 C3047 1.400 1_545 S
C3044 H3029 0.984 . S
C3044 H3030 0.988 . S
C3044 H3031 0.887 1_565 S
C3044 C3043 1.551 1_565 S
C3045 C3042 1.400 1_565 S
C3045 C3046 1.393 . S
C3045 C3049 1.501 1_565 S
C3046 C3045 1.393 . S
C3046 C3047 1.385 . S
C3046 C3048 1.478 . S
C3047 H3041 0.930 . S
C3047 C3043 1.400 1_565 S
C3047 C3046 1.385 . S
C3048 C3046 1.478 . S
C3048 C3050 1.381 . S
C3048 C3054 1.383 . S
C3049 C3045 1.501 1_545 S
C3049 H3055 0.961 . S
C3049 H3056 0.964 . S
C3049 H3057 0.952 1_545 S
C3050 C3048 1.381 . S
C3050 C3051 1.394 . S
C3050 H3058 0.930 . S
C3051 C3050 1.394 . S
C3051 C3052 1.383 . S
C3051 H3059 0.929 . S
C3052 C3051 1.383 . S
C3052 C3053 1.377 . S
C3053 H3037 0.930 . S
C3053 C3052 1.377 . S
C3053 C3054 1.379 . S
C3054 H3038 0.931 . S
C3054 C3048 1.383 . S
C3054 C3053 1.379 . S
H3055 C3049 0.961 . S
H3056 C3049 0.964 . S
H3057 C3049 0.952 1_565 S
H3058 C3050 0.930 . S
H3059 C3051 0.929 . S
H3060 C3068 0.929 . S
H3061 C3070 0.930 . S
H3062 C3072 0.930 . S
H3063 C3075 0.929 . S
H3064 C3078 0.930 . S
H3065 C3080 0.960 . S
H3066 C3080 0.960 . S
H3067 C3080 0.960 . S
C3068 H3060 0.929 . S
C3068 C3069 1.377 . S
C3068 C3070 1.384 . S
C3069 C3068 1.377 . S
C3069 C3075 1.390 . S
C3070 H3061 0.930 . S
C3070 C3068 1.384 . S
C3070 C3071 1.372 . S
C3071 C3070 1.372 . S
C3071 C3072 1.400 . S
C3071 C3076 1.490 . S
C3072 H3062 0.930 . S
C3072 C3071 1.400 . S
C3072 C3075 1.386 . S
H3073 C3089 0.930 . S
H3074 C3090 0.931 . S
C3075 H3063 0.929 . S
C3075 C3069 1.390 . S
C3075 C3072 1.386 . S
C3076 C3071 1.490 . S
C3076 C3078 1.395 . S
C3076 C3079 1.403 1_455 S
H3077 C3083 0.930 . S
C3078 H3064 0.930 . S
C3078 C3076 1.395 . S
C3078 C3081 1.403 . S
C3079 C3076 1.403 1_655 S
C3079 C3080 1.524 . S
C3079 C3083 1.400 . S
C3080 H3065 0.960 . S
C3080 H3066 0.960 . S
C3080 H3067 0.960 . S
C3080 C3079 1.524 . S
C3081 C3078 1.403 . S
C3081 C3082 1.392 1_455 S
C3081 C3085 1.495 . S
C3082 C3081 1.392 1_655 S
C3082 C3083 1.385 . S
C3082 C3084 1.478 . S
C3083 H3077 0.930 . S
C3083 C3079 1.400 . S
C3083 C3082 1.385 . S
C3084 C3082 1.478 . S
C3084 C3086 1.381 . S
C3084 C3090 1.383 . S
C3085 C3081 1.495 . S
C3085 H3091 0.959 . S
C3085 H3092 0.961 . S
C3085 H3093 0.960 . S
C3086 C3084 1.381 . S
C3086 C3087 1.394 . S
C3086 H3094 0.930 . S
C3087 C3086 1.394 . S
C3087 C3088 1.383 . S
C3087 H3095 0.929 . S
C3088 C3087 1.383 . S
C3088 C3089 1.377 . S
C3089 H3073 0.930 . S
C3089 C3088 1.377 . S
C3089 C3090 1.379 . S
C3090 H3074 0.931 . S
C3090 C3084 1.383 . S
C3090 C3089 1.379 . S
H3091 C3085 0.959 . S
H3092 C3085 0.961 . S
H3093 C3085 0.960 . S
H3094 C3086 0.930 . S
H3095 C3087 0.929 . S
C513 C79 1.110 . S
C532 C9 1.128 . S
C549 C51 1.111 . S
C568 C23 1.079 . S
C585 C37 1.104 . S
C604 C65 1.085 . S
C621 C93 1.103 . S
C640 C163 1.106 . S
C657 C107 1.104 . S
C676 C135 1.133 . S
C693 C149 1.103 . S
C712 C121 1.134 . S
C729 C177 1.105 . S
C748 C247 1.134 . S
C765 C191 1.105 . S
C784 C219 1.134 . S
C801 C233 1.104 . S
C820 C205 1.133 . S
C837 C331 1.113 . S
C856 C261 1.082 . S
C873 C303 1.110 . S
C892 C275 1.116 . S
C909 C289 1.112 . S
C928 C317 1.101 . S
C945 C415 1.107 . S
C964 C345 1.077 . S
C981 C387 1.103 . S
C1000 C359 1.130 . S
C1017 C373 1.103 . S
C1036 C401 1.129 . S
C1053 C499 1.112 . S
C1072 C429 1.102 . S
C1089 C471 1.113 . S
C1108 C443 1.089 . S
C1125 C485 1.101 . S
C1144 C457 1.126 . S
C1161 C232 1.606 . S
C1180 C8 1.610 . S
C1197 C246 1.606 . S
C1216 C22 1.591 . S
C1233 C218 1.612 . S
C1252 C36 1.636 . S
C1269 C50 1.615 . S
C1288 C372 1.634 . S
C1305 C64 1.614 . S
C1324 C344 1.587 . S
C1341 C78 1.610 . S
C1360 C358 1.633 . S
C1377 C92 1.616 . S
C1396 C484 1.636 . S
C1413 C498 1.606 . S
C1432 C106 1.601 . S
C1449 C470 1.607 . S
C1468 C120 1.580 . S
C1485 C288 1.617 . S
C1504 C134 1.633 . S
C1521 C260 1.609 . S
C1540 C148 1.617 . S
C1557 C162 1.611 . S
C1576 C274 1.586 . S
C1593 C176 1.615 . S
C1612 C400 1.631 . S
C1629 C414 1.609 . S
C1648 C190 1.631 . S
C1665 C386 1.606 . S
C1684 C204 1.595 . S
C1701 C302 1.617 . S
C1720 C456 1.630 . S
C1737 C428 1.609 . S
C1756 C316 1.619 . S
C1773 C330 1.606 . S
C1792 C442 1.583 . S
C1809 C258 1.522 . S
C1828 C6 1.536 . S
C1845 C272 1.523 . S
C1864 C20 1.529 . S
C1881 C34 1.523 . S
C1900 C286 1.536 . S
C1917 C48 1.515 . S
C1936 C468 1.516 . S
C1953 C482 1.522 . S
C1972 C62 1.506 . S
C1989 C496 1.523 . S
C2008 C76 1.535 . S
C2025 C90 1.522 . S
C2044 C342 1.536 . S
C2061 C104 1.515 . S
C2080 C356 1.508 . S
C2097 C370 1.516 . S
C2116 C118 1.516 . S
C2133 C132 1.517 . S
C2152 C216 1.527 . S
C2169 C146 1.524 . S
C2188 C230 1.533 . S
C2205 C244 1.520 . S
C2224 C160 1.537 . S
C2241 C174 1.520 . S
C2260 C426 1.536 . S
C2277 C188 1.523 . S
C2296 C440 1.515 . S
C2313 C454 1.523 . S
C2332 C202 1.535 . S
C2349 C384 1.522 . S
C2368 C300 1.536 . S
C2385 C314 1.516 . S
C2404 C398 1.514 . S
C2421 C328 1.517 . S
C2440 C412 1.525 . S
C2457 C385 1.165 . S
C2476 C7 1.139 . S
C2493 C21 1.159 . S
C2512 C399 1.146 . S
C2529 C413 1.167 1_554 S
C2548 C35 1.175 . S
C2565 C49 1.158 . S
C2584 C175 1.135 . S
C2601 C189 1.162 . S
C2620 C63 1.162 . S
C2637 C203 1.167 . S
C2656 C77 1.178 . S
C2673 C91 1.157 . S
C2692 C301 1.173 . S
C2709 C315 1.161 1_556 S
C2728 C105 1.185 . S
C2745 C119 1.158 . S
C2764 C329 1.188 . S
C2781 C133 1.166 . S
C2800 C427 1.166 . S
C2817 C147 1.162 . S
C2836 C441 1.183 . S
C2853 C455 1.158 . S
C2872 C161 1.184 . S
C2889 C217 1.163 . S
C2908 C343 1.157 . S
C2925 C231 1.168 . S
C2944 C357 1.184 . S
C2961 C245 1.159 . S
C2980 C371 1.147 . S
C2997 C259 1.158 . S
C3016 C469 1.185 . S
C3033 C273 1.158 . S
C3052 C483 1.162 . S
C3069 C497 1.164 . S
C3088 C287 1.137 . S
