# Generated by pormake.
# Topology umk, (4)-cn, num edge types: 1
# Building blocks:
#     Node 0, Type 0, BuildingBlock: KUFVIS_clean_sbu_0, # of connection points: 4
#     Node 1, Type 0, BuildingBlock: KUFVIS_clean_sbu_0, # of connection points: 4
#     Node 2, Type 0, BuildingBlock: KUFVIS_clean_sbu_0, # of connection points: 4
#     Node 3, Type 0, BuildingBlock: KUFVIS_clean_sbu_0, # of connection points: 4
#     Node 4, Type 0, BuildingBlock: KUFVIS_clean_sbu_0, # of connection points: 4
#     Node 5, Type 0, BuildingBlock: KUFVIS_clean_sbu_0, # of connection points: 4
#     Node 6, Type 0, BuildingBlock: KUFVIS_clean_sbu_0, # of connection points: 4
#     Node 7, Type 0, BuildingBlock: KUFVIS_clean_sbu_0, # of connection points: 4
#     Node 8, Type 0, BuildingBlock: KUFVIS_clean_sbu_0, # of connection points: 4
#     Node 9, Type 0, BuildingBlock: KUFVIS_clean_sbu_0, # of connection points: 4
#     Node 10, Type 0, BuildingBlock: KUFVIS_clean_sbu_0, # of connection points: 4
#     Node 11, Type 0, BuildingBlock: KUFVIS_clean_sbu_0, # of connection points: 4
#     Node 12, Type 0, BuildingBlock: KUFVIS_clean_sbu_0, # of connection points: 4
#     Node 13, Type 0, BuildingBlock: KUFVIS_clean_sbu_0, # of connection points: 4
#     Node 14, Type 0, BuildingBlock: KUFVIS_clean_sbu_0, # of connection points: 4
#     Node 15, Type 0, BuildingBlock: KUFVIS_clean_sbu_0, # of connection points: 4
#     Node 16, Type 0, BuildingBlock: KUFVIS_clean_sbu_0, # of connection points: 4
#     Node 17, Type 0, BuildingBlock: KUFVIS_clean_sbu_0, # of connection points: 4
#     Node 18, Type 0, BuildingBlock: KUFVIS_clean_sbu_0, # of connection points: 4
#     Node 19, Type 0, BuildingBlock: KUFVIS_clean_sbu_0, # of connection points: 4
#     Node 20, Type 0, BuildingBlock: KUFVIS_clean_sbu_0, # of connection points: 4
#     Node 21, Type 0, BuildingBlock: KUFVIS_clean_sbu_0, # of connection points: 4
#     Node 22, Type 0, BuildingBlock: KUFVIS_clean_sbu_0, # of connection points: 4
#     Node 23, Type 0, BuildingBlock: KUFVIS_clean_sbu_0, # of connection points: 4
#     Edge 24, Type (0, 0), BuildingBlock: UVAHIK_clean_linker_0, # of connection points: 2
#     Edge 25, Type (0, 0), BuildingBlock: UVAHIK_clean_linker_0, # of connection points: 2
#     Edge 26, Type (0, 0), BuildingBlock: UVAHIK_clean_linker_0, # of connection points: 2
#     Edge 27, Type (0, 0), BuildingBlock: UVAHIK_clean_linker_0, # of connection points: 2
#     Edge 28, Type (0, 0), BuildingBlock: UVAHIK_clean_linker_0, # of connection points: 2
#     Edge 29, Type (0, 0), BuildingBlock: UVAHIK_clean_linker_0, # of connection points: 2
#     Edge 30, Type (0, 0), BuildingBlock: UVAHIK_clean_linker_0, # of connection points: 2
#     Edge 31, Type (0, 0), BuildingBlock: UVAHIK_clean_linker_0, # of connection points: 2
#     Edge 32, Type (0, 0), BuildingBlock: UVAHIK_clean_linker_0, # of connection points: 2
#     Edge 33, Type (0, 0), BuildingBlock: UVAHIK_clean_linker_0, # of connection points: 2
#     Edge 34, Type (0, 0), BuildingBlock: UVAHIK_clean_linker_0, # of connection points: 2
#     Edge 35, Type (0, 0), BuildingBlock: UVAHIK_clean_linker_0, # of connection points: 2
#     Edge 36, Type (0, 0), BuildingBlock: UVAHIK_clean_linker_0, # of connection points: 2
#     Edge 37, Type (0, 0), BuildingBlock: UVAHIK_clean_linker_0, # of connection points: 2
#     Edge 38, Type (0, 0), BuildingBlock: UVAHIK_clean_linker_0, # of connection points: 2
#     Edge 39, Type (0, 0), BuildingBlock: UVAHIK_clean_linker_0, # of connection points: 2
#     Edge 40, Type (0, 0), BuildingBlock: UVAHIK_clean_linker_0, # of connection points: 2
#     Edge 41, Type (0, 0), BuildingBlock: UVAHIK_clean_linker_0, # of connection points: 2
#     Edge 42, Type (0, 0), BuildingBlock: UVAHIK_clean_linker_0, # of connection points: 2
#     Edge 43, Type (0, 0), BuildingBlock: UVAHIK_clean_linker_0, # of connection points: 2
#     Edge 44, Type (0, 0), BuildingBlock: UVAHIK_clean_linker_0, # of connection points: 2
#     Edge 45, Type (0, 0), BuildingBlock: UVAHIK_clean_linker_0, # of connection points: 2
#     Edge 46, Type (0, 0), BuildingBlock: UVAHIK_clean_linker_0, # of connection points: 2
#     Edge 47, Type (0, 0), BuildingBlock: UVAHIK_clean_linker_0, # of connection points: 2
#     Edge 48, Type (0, 0), BuildingBlock: UVAHIK_clean_linker_0, # of connection points: 2
#     Edge 49, Type (0, 0), BuildingBlock: UVAHIK_clean_linker_0, # of connection points: 2
#     Edge 50, Type (0, 0), BuildingBlock: UVAHIK_clean_linker_0, # of connection points: 2
#     Edge 51, Type (0, 0), BuildingBlock: UVAHIK_clean_linker_0, # of connection points: 2
#     Edge 52, Type (0, 0), BuildingBlock: UVAHIK_clean_linker_0, # of connection points: 2
#     Edge 53, Type (0, 0), BuildingBlock: UVAHIK_clean_linker_0, # of connection points: 2
#     Edge 54, Type (0, 0), BuildingBlock: UVAHIK_clean_linker_0, # of connection points: 2
#     Edge 55, Type (0, 0), BuildingBlock: UVAHIK_clean_linker_0, # of connection points: 2
#     Edge 56, Type (0, 0), BuildingBlock: UVAHIK_clean_linker_0, # of connection points: 2
#     Edge 57, Type (0, 0), BuildingBlock: UVAHIK_clean_linker_0, # of connection points: 2
#     Edge 58, Type (0, 0), BuildingBlock: UVAHIK_clean_linker_0, # of connection points: 2
#     Edge 59, Type (0, 0), BuildingBlock: UVAHIK_clean_linker_0, # of connection points: 2
#     Edge 60, Type (0, 0), BuildingBlock: UVAHIK_clean_linker_0, # of connection points: 2
#     Edge 61, Type (0, 0), BuildingBlock: UVAHIK_clean_linker_0, # of connection points: 2
#     Edge 62, Type (0, 0), BuildingBlock: UVAHIK_clean_linker_0, # of connection points: 2
#     Edge 63, Type (0, 0), BuildingBlock: UVAHIK_clean_linker_0, # of connection points: 2
#     Edge 64, Type (0, 0), BuildingBlock: UVAHIK_clean_linker_0, # of connection points: 2
#     Edge 65, Type (0, 0), BuildingBlock: UVAHIK_clean_linker_0, # of connection points: 2
#     Edge 66, Type (0, 0), BuildingBlock: UVAHIK_clean_linker_0, # of connection points: 2
#     Edge 67, Type (0, 0), BuildingBlock: UVAHIK_clean_linker_0, # of connection points: 2
#     Edge 68, Type (0, 0), BuildingBlock: UVAHIK_clean_linker_0, # of connection points: 2
#     Edge 69, Type (0, 0), BuildingBlock: UVAHIK_clean_linker_0, # of connection points: 2
#     Edge 70, Type (0, 0), BuildingBlock: UVAHIK_clean_linker_0, # of connection points: 2
#     Edge 71, Type (0, 0), BuildingBlock: UVAHIK_clean_linker_0, # of connection points: 2
# Relax obj value: 0.072
# Max RMSD: 0.061
# Mean RMSD: 0.061
data_MOF--net-umk--node1-KUFVIS_clean_sbu_0--edge1-UVAHIK_clean_linker_0
_symmetry_space_group_name_H-M    P1
_symmetry_Int_Tables_number       1
_symmetry_cell_setting            triclinic
loop_
_symmetry_equiv_pos_as_xyz
'x, y, z'
_cell_length_a     85.731458
_cell_length_b     85.72695
_cell_length_c     55.418378
_cell_angle_alpha  89.997707
_cell_angle_beta   90.000764
_cell_angle_gamma 120.00783
loop_
_atom_site_label
_atom_site_type_symbol
_atom_site_fract_x
_atom_site_fract_y
_atom_site_fract_z
_atom_type_partial_charge
Mn0 Mn 0.33359 0.46841 0.07306 0.0
Mn1 Mn 0.37234 0.49298 0.10384 0.0
C2 C 0.35908 0.48997 0.05309 0.0
C3 C 0.30597 0.46465 0.06006 0.0
C4 C 0.35761 0.45376 0.08962 0.0
O5 O 0.32558 0.46421 0.10844 0.0
O6 O 0.35163 0.48441 0.1263 0.0
C7 C 0.36827 0.52412 0.11762 0.0
N8 N 0.378 0.51747 0.10687 0.0
C9 C 0.40192 0.5473 0.0971 0.0
C10 C 0.39226 0.55449 0.10837 0.0
C11 C 0.37532 0.54284 0.11857 0.0
C12 C 0.39423 0.52854 0.09678 0.0
H13 H 0.3552 0.51521 0.12531 0.0
C14 C 0.33473 0.47292 0.12692 0.0
O15 O 0.30864 0.45103 0.06168 0.0
O16 O 0.31913 0.48021 0.06663 0.0
N17 N 0.39352 0.50229 0.08421 0.0
C18 C 0.40048 0.49316 0.0725 0.0
C19 C 0.41705 0.50282 0.06046 0.0
C20 C 0.42637 0.52174 0.06077 0.0
C21 C 0.41901 0.53084 0.07309 0.0
C22 C 0.4025 0.5205 0.08488 0.0
H23 H 0.39344 0.47863 0.07229 0.0
O24 O 0.3459 0.4772 0.04106 0.0
O25 O 0.35682 0.48985 0.07626 0.0
O26 O 0.3444 0.45193 0.07687 0.0
O27 O 0.36806 0.46813 0.10128 0.0
C28 C 0.42723 0.54976 0.07372 0.0
C29 C 0.41867 0.55798 0.08567 0.0
H30 H 0.39761 0.56891 0.10902 0.0
H31 H 0.36771 0.54828 0.12709 0.0
H32 H 0.42263 0.4957 0.05096 0.0
H33 H 0.43909 0.52913 0.05133 0.0
H34 H 0.43996 0.5581 0.06467 0.0
H35 H 0.42495 0.57253 0.08562 0.0
Mn36 Mn 0.86658 0.33364 0.5758 0.0
Mn37 Mn 0.87784 0.36961 0.61171 0.0
C38 C 0.87057 0.36022 0.55913 0.0
C39 C 0.84417 0.30668 0.5589 0.0
C40 C 0.90447 0.35807 0.59544 0.0
O41 O 0.86142 0.32279 0.60969 0.0
O42 O 0.86642 0.34722 0.6312 0.0
C43 C 0.84127 0.36166 0.62575 0.0
N44 N 0.85773 0.37314 0.61615 0.0
C45 C 0.85018 0.39649 0.6117 0.0
C46 C 0.83319 0.38498 0.62172 0.0
C47 C 0.82868 0.36745 0.62865 0.0
C48 C 0.86212 0.38994 0.60914 0.0
H49 H 0.83781 0.34822 0.63116 0.0
C50 C 0.86139 0.33048 0.62938 0.0
O51 O 0.8606 0.3099 0.56126 0.0
O52 O 0.84078 0.3189 0.56684 0.0
N53 N 0.88894 0.39238 0.59554 0.0
C54 C 0.90543 0.40137 0.5848 0.0
C55 C 0.91173 0.4189 0.57605 0.0
C56 C 0.90119 0.42711 0.57883 0.0
C57 C 0.88434 0.41766 0.59018 0.0
C58 C 0.87873 0.4002 0.59842 0.0
H59 H 0.91369 0.39522 0.5829 0.0
O60 O 0.87121 0.34816 0.54569 0.0
O61 O 0.86714 0.35619 0.58187 0.0
O62 O 0.89383 0.34514 0.58167 0.0
O63 O 0.89954 0.36741 0.60789 0.0
C64 C 0.8728 0.42478 0.59339 0.0
C65 C 0.85568 0.41415 0.60395 0.0
H66 H 0.82346 0.38941 0.62403 0.0
H67 H 0.81557 0.35845 0.63629 0.0
H68 H 0.92474 0.42611 0.56731 0.0
H69 H 0.90612 0.44064 0.57208 0.0
H70 H 0.87687 0.43835 0.58758 0.0
H71 H 0.8468 0.41966 0.6059 0.0
Mn72 Mn 0.53315 0.86584 0.07464 0.0
Mn73 Mn 0.5078 0.87898 0.10561 0.0
C74 C 0.51139 0.86948 0.05469 0.0
C75 C 0.53756 0.84248 0.06119 0.0
C76 C 0.54701 0.90423 0.09198 0.0
O77 O 0.53723 0.86174 0.10993 0.0
O78 O 0.51662 0.86695 0.12787 0.0
C79 C 0.47703 0.84334 0.11877 0.0
N80 N 0.48345 0.85979 0.10828 0.0
C81 C 0.45348 0.8534 0.09843 0.0
C82 C 0.44653 0.83647 0.10941 0.0
C83 C 0.45836 0.83139 0.11952 0.0
C84 C 0.4722 0.86475 0.0983 0.0
H85 H 0.4861 0.83936 0.12641 0.0
C86 C 0.52833 0.86182 0.1284 0.0
O87 O 0.55095 0.85885 0.06315 0.0
O88 O 0.52184 0.83969 0.06765 0.0
N89 N 0.49823 0.8907 0.08617 0.0
C90 C 0.50717 0.90692 0.07472 0.0
C91 C 0.49732 0.91366 0.06279 0.0
C92 C 0.4784 0.90376 0.06294 0.0
C93 C 0.4695 0.88717 0.075 0.0
C94 C 0.48003 0.88117 0.08668 0.0
H95 H 0.52169 0.91465 0.07464 0.0
O96 O 0.5244 0.8695 0.04269 0.0
O97 O 0.51142 0.8671 0.07781 0.0
O98 O 0.5492 0.89314 0.07906 0.0
O99 O 0.53246 0.8999 0.10345 0.0
C100 C 0.45061 0.87617 0.07544 0.0
C101 C 0.44261 0.85928 0.0871 0.0
H102 H 0.43215 0.82718 0.10991 0.0
H103 H 0.45311 0.81829 0.12784 0.0
H104 H 0.50428 0.92647 0.05349 0.0
H105 H 0.47086 0.90895 0.05359 0.0
H106 H 0.44213 0.88041 0.06646 0.0
H107 H 0.42809 0.85079 0.08691 0.0
Mn108 Mn 0.6679 0.53284 0.5752 0.0
Mn109 Mn 0.63021 0.50886 0.60823 0.0
C110 C 0.64161 0.51125 0.55666 0.0
C111 C 0.69496 0.53628 0.56029 0.0
C112 C 0.64463 0.54792 0.59349 0.0
O113 O 0.67714 0.53739 0.61002 0.0
O114 O 0.65165 0.51761 0.62937 0.0
C115 C 0.63457 0.47778 0.62141 0.0
N116 N 0.62455 0.48439 0.61138 0.0
C117 C 0.60004 0.45451 0.60345 0.0
C118 C 0.60999 0.44737 0.61399 0.0
C119 C 0.62738 0.45906 0.62287 0.0
C120 C 0.60793 0.47327 0.60244 0.0
H121 H 0.64795 0.48674 0.62816 0.0
C122 C 0.66858 0.52898 0.62899 0.0
O123 O 0.69247 0.54998 0.56238 0.0
O124 O 0.68198 0.52081 0.5675 0.0
N125 N 0.60839 0.49941 0.58998 0.0
C126 C 0.60109 0.50846 0.57885 0.0
C127 C 0.58405 0.49872 0.56802 0.0
C128 C 0.57458 0.47981 0.56904 0.0
C129 C 0.58227 0.47082 0.58083 0.0
C130 C 0.59932 0.48123 0.59121 0.0
H131 H 0.60822 0.52299 0.57818 0.0
O132 O 0.65447 0.52382 0.54398 0.0
O133 O 0.64468 0.51151 0.57964 0.0
O134 O 0.65742 0.54953 0.58001 0.0
O135 O 0.6345 0.5337 0.60562 0.0
C136 C 0.57379 0.45192 0.58243 0.0
C137 C 0.58271 0.44376 0.59358 0.0
H138 H 0.6045 0.43294 0.61513 0.0
H139 H 0.63521 0.45366 0.63085 0.0
H140 H 0.5782 0.50577 0.55896 0.0
H141 H 0.56146 0.47234 0.56061 0.0
H142 H 0.56053 0.44352 0.57474 0.0
H143 H 0.5762 0.4292 0.59422 0.0
Mn144 Mn 0.13562 0.66745 0.07827 0.0
Mn145 Mn 0.12449 0.63098 0.11298 0.0
C146 C 0.13157 0.64108 0.06065 0.0
C147 C 0.15804 0.69463 0.06185 0.0
C148 C 0.09782 0.64281 0.0979 0.0
O149 O 0.14077 0.67775 0.11255 0.0
O150 O 0.13625 0.6531 0.13295 0.0
C151 C 0.16125 0.63865 0.12539 0.0
N152 N 0.14455 0.62725 0.11641 0.0
C153 C 0.15182 0.60379 0.11076 0.0
C154 C 0.16901 0.61518 0.12032 0.0
C155 C 0.17379 0.63273 0.1275 0.0
C156 C 0.13994 0.61048 0.10899 0.0
H157 H 0.16497 0.65217 0.13081 0.0
C158 C 0.14116 0.66984 0.13188 0.0
O159 O 0.14162 0.6914 0.06445 0.0
O160 O 0.16143 0.6823 0.06936 0.0
N161 N 0.11308 0.60841 0.09633 0.0
C162 C 0.09644 0.5996 0.08599 0.0
C163 C 0.08985 0.58209 0.077 0.0
C164 C 0.10028 0.57371 0.07912 0.0
C165 C 0.11732 0.58299 0.09 0.0
C166 C 0.12319 0.60042 0.09855 0.0
H167 H 0.08825 0.60587 0.08464 0.0
O168 O 0.13098 0.65335 0.04766 0.0
O169 O 0.13502 0.6448 0.08343 0.0
O170 O 0.1084 0.65584 0.08422 0.0
O171 O 0.10282 0.6334 0.11007 0.0
C172 C 0.12878 0.57571 0.0925 0.0
C173 C 0.14608 0.58616 0.10265 0.0
H174 H 0.17871 0.61065 0.122 0.0
H175 H 0.18709 0.64166 0.13468 0.0
H176 H 0.0767 0.57502 0.06862 0.0
H177 H 0.09511 0.56018 0.07224 0.0
H178 H 0.12452 0.56216 0.08643 0.0
H179 H 0.1549 0.58055 0.10401 0.0
Mn180 Mn 0.46765 0.1346 0.57458 0.0
Mn181 Mn 0.49304 0.12119 0.60491 0.0
C182 C 0.48931 0.13104 0.55422 0.0
C183 C 0.46332 0.15816 0.56185 0.0
C184 C 0.45376 0.0961 0.59144 0.0
O185 O 0.46369 0.13845 0.61001 0.0
O186 O 0.4844 0.13319 0.62752 0.0
C187 C 0.52396 0.15671 0.61818 0.0
N188 N 0.51743 0.14031 0.60751 0.0
C189 C 0.54732 0.14662 0.59729 0.0
C190 C 0.55438 0.1635 0.60845 0.0
C191 C 0.54264 0.16859 0.61884 0.0
C192 C 0.52859 0.13533 0.59725 0.0
H193 H 0.51497 0.1607 0.62604 0.0
C194 C 0.4727 0.13832 0.62832 0.0
O195 O 0.44989 0.14178 0.56357 0.0
O196 O 0.47904 0.1608 0.56805 0.0
N197 N 0.50245 0.1095 0.58511 0.0
C198 C 0.49341 0.09335 0.57353 0.0
C199 C 0.50316 0.0866 0.56134 0.0
C200 C 0.52207 0.09644 0.56136 0.0
C201 C 0.53108 0.11297 0.57354 0.0
C202 C 0.52065 0.11897 0.58548 0.0
H203 H 0.47888 0.08567 0.57355 0.0
O204 O 0.4763 0.13116 0.54241 0.0
O205 O 0.48935 0.13325 0.57739 0.0
O206 O 0.45156 0.10726 0.57868 0.0
O207 O 0.46833 0.10036 0.60281 0.0
C208 C 0.54998 0.1239 0.57388 0.0
C209 C 0.55809 0.14073 0.5857 0.0
H210 H 0.56878 0.17274 0.60888 0.0
H211 H 0.54798 0.18166 0.62729 0.0
H212 H 0.49611 0.07385 0.55194 0.0
H213 H 0.52954 0.09124 0.55181 0.0
H214 H 0.55839 0.11965 0.56471 0.0
H215 H 0.57262 0.14917 0.58543 0.0
Mn216 Mn 0.53424 0.66709 0.9259 0.0
Mn217 Mn 0.50896 0.62867 0.89474 0.0
C218 C 0.51255 0.64157 0.94571 0.0
C219 C 0.53849 0.69469 0.93989 0.0
C220 C 0.54819 0.6427 0.90827 0.0
O221 O 0.53825 0.67544 0.89067 0.0
O222 O 0.51782 0.64959 0.8726 0.0
C223 C 0.47821 0.63359 0.88165 0.0
N224 N 0.48462 0.62353 0.89209 0.0
C225 C 0.45464 0.59999 0.90199 0.0
C226 C 0.44771 0.60999 0.89106 0.0
C227 C 0.45955 0.6269 0.88095 0.0
C228 C 0.47336 0.60732 0.90207 0.0
H229 H 0.48729 0.64664 0.87403 0.0
C230 C 0.52943 0.66646 0.87215 0.0
O231 O 0.55196 0.69185 0.93764 0.0
O232 O 0.52281 0.68177 0.93325 0.0
N233 N 0.49937 0.60733 0.91408 0.0
C234 C 0.50829 0.6 0.92546 0.0
C235 C 0.49842 0.5834 0.93738 0.0
C236 C 0.47951 0.57444 0.9373 0.0
C237 C 0.47063 0.58217 0.92531 0.0
C238 C 0.48117 0.59869 0.91363 0.0
H239 H 0.52282 0.60678 0.9255 0.0
O240 O 0.52556 0.6545 0.95777 0.0
O241 O 0.51255 0.64408 0.92262 0.0
O242 O 0.55037 0.65597 0.92119 0.0
O243 O 0.53362 0.63241 0.89688 0.0
C244 C 0.45174 0.57431 0.92493 0.0
C245 C 0.44375 0.58323 0.91333 0.0
H246 H 0.43333 0.60493 0.8906 0.0
H247 H 0.45431 0.63478 0.87268 0.0
H248 H 0.50538 0.57754 0.94663 0.0
H249 H 0.47196 0.5617 0.94665 0.0
H250 H 0.44324 0.56159 0.93391 0.0
H251 H 0.42923 0.57723 0.91356 0.0
Mn252 Mn 0.8669 0.53203 0.42448 0.0
Mn253 Mn 0.88071 0.50818 0.39133 0.0
C254 C 0.87161 0.51042 0.44293 0.0
C255 C 0.84324 0.53549 0.43917 0.0
C256 C 0.90527 0.54723 0.40622 0.0
O257 O 0.86228 0.53666 0.38967 0.0
O258 O 0.86793 0.51687 0.37026 0.0
C259 C 0.84533 0.47703 0.37817 0.0
N260 N 0.86196 0.48369 0.38816 0.0
C261 C 0.85673 0.45384 0.396 0.0
C262 C 0.83962 0.44665 0.38549 0.0
C263 C 0.83386 0.4583 0.37667 0.0
C264 C 0.86754 0.47261 0.39704 0.0
H265 H 0.84084 0.48595 0.37147 0.0
C266 C 0.86239 0.52825 0.37069 0.0
O267 O 0.85946 0.54916 0.43725 0.0
O268 O 0.84077 0.52001 0.43204 0.0
N269 N 0.89318 0.4988 0.4095 0.0
C270 C 0.90956 0.50789 0.42054 0.0
C271 C 0.91695 0.4982 0.43126 0.0
C272 C 0.90757 0.4793 0.43023 0.0
C273 C 0.89085 0.47025 0.41852 0.0
C274 C 0.88412 0.48062 0.40823 0.0
H275 H 0.91692 0.52242 0.42121 0.0
O276 O 0.87125 0.52293 0.45568 0.0
O277 O 0.86885 0.51074 0.41995 0.0
O278 O 0.89407 0.54874 0.4198 0.0
O279 O 0.9012 0.53307 0.39396 0.0
C280 C 0.88049 0.45135 0.4169 0.0
C281 C 0.86339 0.44314 0.40579 0.0
H282 H 0.83073 0.43221 0.38432 0.0
H283 H 0.82061 0.45286 0.36872 0.0
H284 H 0.92987 0.50528 0.44025 0.0
H285 H 0.91329 0.47186 0.43858 0.0
H286 H 0.8854 0.44298 0.42454 0.0
H287 H 0.85539 0.42858 0.40513 0.0
Mn288 Mn 0.33376 0.8664 0.92726 0.0
Mn289 Mn 0.37206 0.87859 0.89634 0.0
C290 C 0.35897 0.86968 0.94737 0.0
C291 C 0.30581 0.84323 0.94064 0.0
C292 C 0.35879 0.90451 0.90944 0.0
O293 O 0.32561 0.86231 0.89194 0.0
O294 O 0.35116 0.86659 0.87419 0.0
C295 C 0.36661 0.84261 0.88391 0.0
N296 N 0.37684 0.85912 0.89414 0.0
C297 C 0.40016 0.85241 0.90425 0.0
C298 C 0.38996 0.8354 0.89356 0.0
C299 C 0.37308 0.83045 0.88345 0.0
C300 C 0.39303 0.86397 0.90411 0.0
H301 H 0.35359 0.83874 0.87625 0.0
C302 C 0.33443 0.86191 0.87358 0.0
O303 O 0.30898 0.85967 0.93869 0.0
O304 O 0.31866 0.8403 0.93425 0.0
N305 N 0.39341 0.89025 0.91567 0.0
C306 C 0.40095 0.90661 0.92678 0.0
C307 C 0.41756 0.91327 0.93863 0.0
C308 C 0.42634 0.90314 0.93874 0.0
C309 C 0.41839 0.88641 0.92703 0.0
C310 C 0.40186 0.8805 0.91542 0.0
H311 H 0.39434 0.91452 0.92665 0.0
O312 O 0.34608 0.86996 0.95928 0.0
O313 O 0.35655 0.86721 0.92426 0.0
O314 O 0.3455 0.89379 0.92267 0.0
O315 O 0.36868 0.89972 0.89802 0.0
C316 C 0.42604 0.87519 0.92686 0.0
C317 C 0.41691 0.85819 0.91552 0.0
H318 H 0.39486 0.82595 0.89327 0.0
H319 H 0.36506 0.81729 0.87535 0.0
H320 H 0.4236 0.92619 0.94766 0.0
H321 H 0.43909 0.90828 0.94802 0.0
H322 H 0.43877 0.87937 0.93579 0.0
H323 H 0.42276 0.84954 0.91591 0.0
Mn324 Mn 0.46912 0.33437 0.42535 0.0
Mn325 Mn 0.49369 0.3697 0.38834 0.0
C326 C 0.49217 0.361 0.44111 0.0
C327 C 0.46442 0.30756 0.44291 0.0
C328 C 0.45602 0.35916 0.40567 0.0
O329 O 0.46285 0.32299 0.39185 0.0
O330 O 0.48161 0.34708 0.36932 0.0
C331 C 0.52113 0.36034 0.37332 0.0
N332 N 0.51689 0.37233 0.38309 0.0
C333 C 0.54818 0.39485 0.38685 0.0
C334 C 0.55289 0.38279 0.37668 0.0
C335 C 0.5393 0.36543 0.36999 0.0
C336 C 0.52985 0.38899 0.3898 0.0
H337 H 0.5107 0.34702 0.36809 0.0
C338 C 0.46993 0.33039 0.37177 0.0
O339 O 0.45133 0.31097 0.44066 0.0
O340 O 0.47999 0.31949 0.4345 0.0
N341 N 0.50631 0.39266 0.4039 0.0
C342 C 0.49951 0.40229 0.41462 0.0
C343 C 0.51135 0.41979 0.42297 0.0
C344 C 0.53001 0.42731 0.41985 0.0
C345 C 0.53668 0.41721 0.40851 0.0
C346 C 0.52424 0.39983 0.4006 0.0
H347 H 0.48517 0.39665 0.41682 0.0
O348 O 0.47955 0.34928 0.45497 0.0
O349 O 0.49123 0.35661 0.41845 0.0
O350 O 0.4536 0.34614 0.41937 0.0
O351 O 0.47024 0.36832 0.39305 0.0
C352 C 0.55519 0.4236 0.40501 0.0
C353 C 0.56094 0.41238 0.39436 0.0
H354 H 0.5669 0.38667 0.37407 0.0
H355 H 0.54283 0.35602 0.36223 0.0
H356 H 0.5061 0.4275 0.4317 0.0
H357 H 0.53908 0.44081 0.42632 0.0
H358 H 0.56515 0.43705 0.41068 0.0
H359 H 0.57522 0.41735 0.39214 0.0
Mn360 Mn 0.13459 0.46951 0.92415 0.0
Mn361 Mn 0.12118 0.49383 0.89129 0.0
C362 C 0.1299 0.49105 0.94284 0.0
C363 C 0.15795 0.46571 0.9392 0.0
C364 C 0.09632 0.45472 0.90561 0.0
O365 O 0.13946 0.46517 0.88932 0.0
O366 O 0.13384 0.48506 0.87012 0.0
C367 C 0.15684 0.52479 0.87863 0.0
N368 N 0.14018 0.51826 0.8885 0.0
C369 C 0.1459 0.54818 0.89709 0.0
C370 C 0.16304 0.55525 0.88672 0.0
C371 C 0.16857 0.54349 0.87758 0.0
C372 C 0.13482 0.52943 0.89768 0.0
H373 H 0.16115 0.51579 0.87171 0.0
C374 C 0.13937 0.47367 0.87042 0.0
O375 O 0.14172 0.45213 0.93682 0.0
O376 O 0.16064 0.4813 0.93219 0.0
N377 N 0.10885 0.50332 0.90954 0.0
C378 C 0.09233 0.49432 0.92023 0.0
C379 C 0.0851 0.50411 0.9311 0.0
C380 C 0.09479 0.52302 0.93058 0.0
C381 C 0.11164 0.53198 0.91919 0.0
C382 C 0.11817 0.52152 0.90869 0.0
H383 H 0.08475 0.47979 0.92052 0.0
O384 O 0.13005 0.47837 0.95544 0.0
O385 O 0.13283 0.49092 0.91989 0.0
O386 O 0.10747 0.453 0.91902 0.0
O387 O 0.10048 0.46903 0.89362 0.0
C388 C 0.1223 0.55088 0.9181 0.0
C389 C 0.13946 0.55898 0.90719 0.0
H390 H 0.17213 0.56966 0.8859 0.0
H391 H 0.18184 0.54884 0.86974 0.0
H392 H 0.07207 0.49709 0.93983 0.0
H393 H 0.0892 0.53053 0.93907 0.0
H394 H 0.11756 0.55932 0.92596 0.0
H395 H 0.14769 0.57353 0.9069 0.0
Mn396 Mn 0.66716 0.13444 0.42711 0.0
Mn397 Mn 0.62901 0.12241 0.3959 0.0
C398 C 0.64192 0.13123 0.44703 0.0
C399 C 0.69511 0.15757 0.4405 0.0
C400 C 0.64213 0.09639 0.40916 0.0
O401 O 0.67542 0.13851 0.39186 0.0
O402 O 0.65001 0.1344 0.3739 0.0
C403 C 0.6346 0.15844 0.38346 0.0
N404 N 0.6243 0.14191 0.39364 0.0
C405 C 0.60099 0.14868 0.40354 0.0
C406 C 0.61126 0.1657 0.39291 0.0
C407 C 0.62818 0.17063 0.38293 0.0
C408 C 0.60808 0.13709 0.40349 0.0
H409 H 0.64764 0.16228 0.37589 0.0
C410 C 0.66671 0.139 0.37342 0.0
O411 O 0.69189 0.1411 0.43864 0.0
O412 O 0.68229 0.16053 0.43409 0.0
N413 N 0.60758 0.11075 0.41508 0.0
C414 C 0.59995 0.09437 0.42613 0.0
C415 C 0.58329 0.08772 0.43783 0.0
C416 C 0.57455 0.09788 0.43785 0.0
C417 C 0.58259 0.11464 0.4262 0.0
C418 C 0.59917 0.12054 0.41474 0.0
H419 H 0.60653 0.08643 0.42606 0.0
O420 O 0.65474 0.13091 0.45904 0.0
O421 O 0.64442 0.13371 0.42394 0.0
O422 O 0.65536 0.10706 0.4225 0.0
O423 O 0.63233 0.10123 0.39763 0.0
C424 C 0.57498 0.12589 0.42595 0.0
C425 C 0.58419 0.14292 0.41467 0.0
H426 H 0.60639 0.17518 0.39256 0.0
H427 H 0.63624 0.18379 0.37487 0.0
H428 H 0.57718 0.07478 0.44682 0.0
H429 H 0.56175 0.09275 0.44702 0.0
H430 H 0.56221 0.12173 0.43477 0.0
H431 H 0.57836 0.15159 0.41499 0.0
Mn432 Mn 0.66764 0.53382 0.92583 0.0
Mn433 Mn 0.63012 0.50926 0.89269 0.0
C434 C 0.6414 0.51211 0.94439 0.0
C435 C 0.69489 0.53789 0.941 0.0
C436 C 0.64406 0.54835 0.90686 0.0
O437 O 0.67699 0.53823 0.89105 0.0
O438 O 0.65166 0.51807 0.87173 0.0
C439 C 0.63494 0.47835 0.88023 0.0
N440 N 0.62474 0.48486 0.88993 0.0
C441 C 0.6003 0.45491 0.89775 0.0
C442 C 0.61045 0.44786 0.88755 0.0
C443 C 0.62789 0.45964 0.8789 0.0
C444 C 0.60807 0.47366 0.89867 0.0
H445 H 0.64836 0.48737 0.87363 0.0
C446 C 0.66855 0.52961 0.87213 0.0
O447 O 0.69209 0.55137 0.93858 0.0
O448 O 0.68207 0.52224 0.93403 0.0
N449 N 0.60821 0.49972 0.91073 0.0
C450 C 0.60071 0.50869 0.92153 0.0
C451 C 0.58358 0.49887 0.93211 0.0
C452 C 0.57423 0.47997 0.93114 0.0
C453 C 0.58213 0.47105 0.91968 0.0
C454 C 0.59927 0.48154 0.90957 0.0
H455 H 0.60774 0.52322 0.92213 0.0
O456 O 0.65413 0.52487 0.95703 0.0
O457 O 0.64456 0.51227 0.92147 0.0
O458 O 0.65686 0.55018 0.92052 0.0
O459 O 0.63411 0.53401 0.89483 0.0
C460 C 0.57376 0.45216 0.91811 0.0
C461 C 0.58289 0.44408 0.90731 0.0
H462 H 0.60506 0.43345 0.88649 0.0
H463 H 0.63587 0.45431 0.87119 0.0
H464 H 0.57757 0.50586 0.94092 0.0
H465 H 0.56103 0.47244 0.93936 0.0
H466 H 0.56043 0.4437 0.92556 0.0
H467 H 0.57647 0.42953 0.90671 0.0
Mn468 Mn 0.13362 0.66772 0.42831 0.0
Mn469 Mn 0.12103 0.63004 0.39566 0.0
C470 C 0.12994 0.64192 0.44712 0.0
C471 C 0.15673 0.69517 0.44301 0.0
C472 C 0.09546 0.64345 0.40999 0.0
O473 O 0.13802 0.67674 0.39341 0.0
O474 O 0.13318 0.65144 0.37428 0.0
C475 C 0.15689 0.63545 0.38258 0.0
N476 N 0.14035 0.6251 0.3927 0.0
C477 C 0.14688 0.60148 0.40161 0.0
C478 C 0.1639 0.61179 0.39098 0.0
C479 C 0.16895 0.62888 0.38153 0.0
C480 C 0.13541 0.6087 0.40204 0.0
H481 H 0.16085 0.64864 0.37547 0.0
C482 C 0.13818 0.66826 0.37452 0.0
O483 O 0.14036 0.69219 0.44091 0.0
O484 O 0.15967 0.68246 0.43591 0.0
N485 N 0.10924 0.6083 0.41422 0.0
C486 C 0.09293 0.6007 0.42549 0.0
C487 C 0.08623 0.5839 0.43687 0.0
C488 C 0.09626 0.57503 0.43636 0.0
C489 C 0.11293 0.58305 0.42449 0.0
C490 C 0.11889 0.59977 0.41336 0.0
H491 H 0.08512 0.6074 0.42588 0.0
O492 O 0.12968 0.65455 0.4597 0.0
O493 O 0.13255 0.64489 0.42411 0.0
O494 O 0.10635 0.65644 0.42347 0.0
O495 O 0.09999 0.63357 0.39806 0.0
C496 C 0.12406 0.57531 0.42373 0.0
C497 C 0.14103 0.58453 0.41233 0.0
H498 H 0.17328 0.60682 0.39027 0.0
H499 H 0.18212 0.63699 0.37351 0.0
H500 H 0.07336 0.57782 0.44603 0.0
H501 H 0.09111 0.56215 0.44532 0.0
H502 H 0.11985 0.56244 0.43227 0.0
H503 H 0.14962 0.57861 0.41228 0.0
Mn504 Mn 0.46873 0.13498 0.92698 0.0
Mn505 Mn 0.49456 0.12257 0.89576 0.0
C506 C 0.49049 0.13133 0.94691 0.0
C507 C 0.46428 0.15824 0.94076 0.0
C508 C 0.45532 0.09686 0.90889 0.0
O509 O 0.46474 0.13932 0.89176 0.0
O510 O 0.48573 0.13474 0.87378 0.0
C511 C 0.52522 0.15849 0.88343 0.0
N512 N 0.51885 0.14193 0.89355 0.0
C513 C 0.54884 0.14844 0.90354 0.0
C514 C 0.55573 0.1655 0.89296 0.0
C515 C 0.54386 0.17057 0.88296 0.0
C516 C 0.53014 0.13697 0.90342 0.0
H517 H 0.51612 0.16246 0.87585 0.0
C518 C 0.47385 0.13963 0.87332 0.0
O519 O 0.45087 0.14188 0.9386 0.0
O520 O 0.47999 0.16105 0.93427 0.0
N521 N 0.50415 0.11073 0.91491 0.0
C522 C 0.49526 0.09434 0.92593 0.0
C523 C 0.50514 0.08756 0.93767 0.0
C524 C 0.52405 0.0976 0.93775 0.0
C525 C 0.53291 0.11436 0.92613 0.0
C526 C 0.52235 0.12039 0.91463 0.0
H527 H 0.48073 0.0865 0.92582 0.0
O528 O 0.47739 0.13112 0.95889 0.0
O529 O 0.49058 0.13394 0.92383 0.0
O530 O 0.45287 0.10764 0.92215 0.0
O531 O 0.46997 0.10154 0.89746 0.0
C532 C 0.55179 0.12549 0.92595 0.0
C533 C 0.55975 0.14254 0.91471 0.0
H534 H 0.5701 0.17488 0.89267 0.0
H535 H 0.54907 0.18377 0.87494 0.0
H536 H 0.4982 0.07462 0.94663 0.0
H537 H 0.53162 0.09237 0.94695 0.0
H538 H 0.5603 0.12122 0.93481 0.0
H539 H 0.57425 0.15112 0.9151 0.0
Mn540 Mn 0.33456 0.46812 0.42574 0.0
Mn541 Mn 0.37256 0.49458 0.39438 0.0
C542 C 0.35989 0.49005 0.44565 0.0
C543 C 0.30671 0.46297 0.44006 0.0
C544 C 0.35972 0.45543 0.40714 0.0
O545 O 0.32605 0.4642 0.39057 0.0
O546 O 0.35145 0.48548 0.37256 0.0
C547 C 0.36655 0.52484 0.38255 0.0
N548 N 0.37703 0.51872 0.39241 0.0
C549 C 0.4002 0.54885 0.40239 0.0
C550 C 0.38974 0.5555 0.39207 0.0
C551 C 0.37281 0.54343 0.38221 0.0
C552 C 0.39327 0.5302 0.40215 0.0
H553 H 0.35349 0.51559 0.37509 0.0
C554 C 0.33473 0.47344 0.37214 0.0
O555 O 0.30999 0.44981 0.43747 0.0
O556 O 0.31935 0.47885 0.43361 0.0
N557 N 0.39411 0.50446 0.41333 0.0
C558 C 0.40193 0.49578 0.42409 0.0
C559 C 0.41864 0.50588 0.43565 0.0
C560 C 0.42723 0.52477 0.43581 0.0
C561 C 0.419 0.53341 0.42445 0.0
C562 C 0.40237 0.52265 0.41311 0.0
H563 H 0.39546 0.48127 0.42391 0.0
O564 O 0.34717 0.47675 0.45759 0.0
O565 O 0.35725 0.49024 0.42262 0.0
O566 O 0.34642 0.45268 0.42043 0.0
O567 O 0.3695 0.47017 0.39582 0.0
C568 C 0.42645 0.55225 0.42437 0.0
C569 C 0.41704 0.55997 0.4134 0.0
H570 H 0.39448 0.56982 0.39188 0.0
H571 H 0.36459 0.54844 0.3744 0.0
H572 H 0.4249 0.49912 0.44441 0.0
H573 H 0.44007 0.53251 0.44487 0.0
H574 H 0.43924 0.56091 0.4331 0.0
H575 H 0.42274 0.57445 0.41386 0.0
Mn576 Mn 0.86814 0.3331 0.93046 0.0
Mn577 Mn 0.88014 0.37053 0.89749 0.0
C578 C 0.87187 0.35892 0.94917 0.0
C579 C 0.84525 0.30566 0.94553 0.0
C580 C 0.90603 0.35741 0.91132 0.0
O581 O 0.86342 0.32388 0.8957 0.0
O582 O 0.86783 0.34899 0.87635 0.0
C583 C 0.84417 0.36498 0.88479 0.0
N584 N 0.86072 0.37535 0.89486 0.0
C585 C 0.85413 0.39891 0.90393 0.0
C586 C 0.83706 0.38854 0.89349 0.0
C587 C 0.83204 0.37148 0.88395 0.0
C588 C 0.86567 0.39176 0.90418 0.0
H589 H 0.84026 0.35186 0.87749 0.0
C590 C 0.863 0.33223 0.87685 0.0
O591 O 0.86162 0.30871 0.94317 0.0
O592 O 0.84219 0.3183 0.93851 0.0
N593 N 0.89204 0.39236 0.91582 0.0
C594 C 0.90847 0.40009 0.92678 0.0
C595 C 0.91521 0.41692 0.93808 0.0
C596 C 0.90508 0.42569 0.93781 0.0
C597 C 0.88829 0.41755 0.92625 0.0
C598 C 0.8823 0.40081 0.9152 0.0
H599 H 0.91635 0.39346 0.92699 0.0
O600 O 0.87234 0.3464 0.96174 0.0
O601 O 0.869 0.35583 0.9262 0.0
O602 O 0.89537 0.34449 0.92508 0.0
O603 O 0.90126 0.36713 0.89948 0.0
C604 C 0.87708 0.42521 0.92573 0.0
C605 C 0.86 0.41588 0.9146 0.0
H606 H 0.82763 0.39346 0.89292 0.0
H607 H 0.81885 0.36335 0.87599 0.0
H608 H 0.92817 0.4231 0.947 0.0
H609 H 0.91026 0.4386 0.9467 0.0
H610 H 0.88131 0.4381 0.93422 0.0
H611 H 0.85137 0.42175 0.9147 0.0
Mn612 Mn 0.53325 0.86604 0.42699 0.0
Mn613 Mn 0.50701 0.8778 0.39551 0.0
C614 C 0.51134 0.86951 0.44679 0.0
C615 C 0.53821 0.84322 0.44133 0.0
C616 C 0.54617 0.90397 0.40845 0.0
O617 O 0.53724 0.86149 0.39184 0.0
O618 O 0.51607 0.86573 0.37373 0.0
C619 C 0.47666 0.84161 0.38353 0.0
N620 N 0.48283 0.85821 0.39344 0.0
C621 C 0.45273 0.85137 0.40333 0.0
C622 C 0.44603 0.83427 0.39296 0.0
C623 C 0.45806 0.82934 0.38312 0.0
C624 C 0.47139 0.86303 0.40315 0.0
H625 H 0.48588 0.83775 0.3761 0.0
C626 C 0.52807 0.86099 0.37337 0.0
O627 O 0.55143 0.85964 0.43883 0.0
O628 O 0.52238 0.84007 0.43479 0.0
N629 N 0.49718 0.88952 0.41445 0.0
C630 C 0.5059 0.90599 0.42528 0.0
C631 C 0.49585 0.91265 0.43685 0.0
C632 C 0.47695 0.90241 0.43695 0.0
C633 C 0.46827 0.88557 0.42551 0.0
C634 C 0.47899 0.87966 0.41417 0.0
H635 H 0.52042 0.91398 0.42516 0.0
O636 O 0.52457 0.87003 0.4588 0.0
O637 O 0.51121 0.86673 0.42375 0.0
O638 O 0.54882 0.89335 0.42177 0.0
O639 O 0.53147 0.89907 0.39705 0.0
C640 C 0.44942 0.87424 0.42537 0.0
C641 C 0.44165 0.85713 0.41433 0.0
H642 H 0.4317 0.82474 0.39271 0.0
H643 H 0.453 0.81612 0.37527 0.0
H644 H 0.50265 0.92565 0.44567 0.0
H645 H 0.46925 0.90754 0.44602 0.0
H646 H 0.44079 0.87841 0.4341 0.0
H647 H 0.42717 0.84841 0.41474 0.0
Mn648 Mn 0.46768 0.33503 0.07353 0.0
Mn649 Mn 0.49024 0.37115 0.11013 0.0
C650 C 0.4904 0.36191 0.05791 0.0
C651 C 0.46417 0.30834 0.05707 0.0
C652 C 0.45278 0.35904 0.09077 0.0
O653 O 0.46128 0.32391 0.10715 0.0
O654 O 0.47792 0.34877 0.12964 0.0
C655 C 0.51771 0.36284 0.12841 0.0
N656 N 0.51346 0.37442 0.11738 0.0
C657 C 0.54467 0.3974 0.11494 0.0
C658 C 0.54939 0.38577 0.12641 0.0
C659 C 0.53585 0.36838 0.13307 0.0
C660 C 0.52638 0.39111 0.11069 0.0
H661 H 0.50733 0.34949 0.13362 0.0
C662 C 0.46717 0.33184 0.12733 0.0
O663 O 0.45073 0.31128 0.05841 0.0
O664 O 0.47949 0.32077 0.06557 0.0
N665 N 0.50296 0.39392 0.09413 0.0
C666 C 0.4962 0.40309 0.08205 0.0
C667 C 0.50802 0.42053 0.07349 0.0
C668 C 0.52661 0.42848 0.07782 0.0
C669 C 0.53322 0.41886 0.09057 0.0
C670 C 0.5208 0.40151 0.09859 0.0
H671 H 0.48191 0.39711 0.07891 0.0
O672 O 0.47825 0.34983 0.04387 0.0
O673 O 0.48913 0.35781 0.08072 0.0
O674 O 0.45112 0.3458 0.07815 0.0
O675 O 0.46673 0.36909 0.1034 0.0
C676 C 0.55166 0.4257 0.09535 0.0
C677 C 0.55739 0.41493 0.10736 0.0
H678 H 0.56337 0.39 0.13006 0.0
H679 H 0.53939 0.35929 0.14184 0.0
H680 H 0.50282 0.42787 0.06367 0.0
H681 H 0.53567 0.44193 0.07117 0.0
H682 H 0.56159 0.43915 0.08964 0.0
H683 H 0.57163 0.42023 0.11056 0.0
Mn684 Mn 0.13482 0.4676 0.57266 0.0
Mn685 Mn 0.1231 0.49396 0.60386 0.0
C686 C 0.1315 0.48953 0.55263 0.0
C687 C 0.15776 0.46259 0.55901 0.0
C688 C 0.09693 0.45476 0.59109 0.0
O689 O 0.13914 0.4636 0.6079 0.0
O690 O 0.13523 0.48505 0.62579 0.0
C691 C 0.15924 0.52444 0.61574 0.0
N692 N 0.14265 0.51818 0.60578 0.0
C693 C 0.14938 0.54822 0.59568 0.0
C694 C 0.16648 0.55501 0.60608 0.0
C695 C 0.17146 0.54305 0.61605 0.0
C696 C 0.13777 0.52954 0.59595 0.0
H697 H 0.16313 0.51527 0.62329 0.0
C698 C 0.13979 0.47292 0.62628 0.0
O699 O 0.14129 0.44939 0.56115 0.0
O700 O 0.16084 0.47843 0.56531 0.0
N701 N 0.11133 0.50366 0.58477 0.0
C702 C 0.09487 0.49485 0.57392 0.0
C703 C 0.08816 0.50482 0.56223 0.0
C704 C 0.09835 0.52372 0.56202 0.0
C705 C 0.11518 0.53249 0.57347 0.0
C706 C 0.12113 0.52185 0.58493 0.0
H707 H 0.08692 0.48034 0.57414 0.0
O708 O 0.13107 0.47629 0.54072 0.0
O709 O 0.13417 0.48967 0.5757 0.0
O710 O 0.10747 0.4521 0.57764 0.0
O711 O 0.10188 0.46947 0.6025 0.0
C712 C 0.12645 0.55136 0.57351 0.0
C713 C 0.14356 0.55921 0.58457 0.0
H714 H 0.17597 0.56935 0.60626 0.0
H715 H 0.18468 0.54818 0.62393 0.0
H716 H 0.07517 0.49795 0.5534 0.0
H717 H 0.09318 0.53136 0.55284 0.0
H718 H 0.12225 0.55992 0.56468 0.0
H719 H 0.15224 0.5737 0.58408 0.0
Mn720 Mn 0.6672 0.13301 0.07487 0.0
Mn721 Mn 0.62854 0.11995 0.10537 0.0
C722 C 0.64203 0.12965 0.05462 0.0
C723 C 0.69516 0.15637 0.06201 0.0
C724 C 0.6424 0.0946 0.09186 0.0
O725 O 0.6751 0.13687 0.11026 0.0
O726 O 0.64925 0.13183 0.12789 0.0
C727 C 0.63349 0.1556 0.11862 0.0
N728 N 0.62348 0.1392 0.10799 0.0
C729 C 0.60006 0.14576 0.09786 0.0
C730 C 0.61002 0.16264 0.10899 0.0
C731 C 0.62684 0.16761 0.11931 0.0
C732 C 0.60735 0.13435 0.0978 0.0
H733 H 0.64647 0.1595 0.12642 0.0
C734 C 0.66606 0.13685 0.12861 0.0
O735 O 0.69206 0.13994 0.06377 0.0
O736 O 0.68221 0.15919 0.06824 0.0
N737 N 0.60739 0.10838 0.08565 0.0
C738 C 0.60012 0.09221 0.07409 0.0
C739 C 0.58363 0.08559 0.06194 0.0
C740 C 0.57469 0.09556 0.062 0.0
C741 C 0.58236 0.1121 0.07417 0.0
C742 C 0.59879 0.11798 0.08606 0.0
H743 H 0.60687 0.08443 0.07408 0.0
O744 O 0.65506 0.12961 0.04276 0.0
O745 O 0.64427 0.13189 0.07778 0.0
O746 O 0.65577 0.10568 0.07905 0.0
O747 O 0.63219 0.09897 0.10326 0.0
C748 C 0.57454 0.12316 0.07453 0.0
C749 C 0.5834 0.14 0.08633 0.0
H750 H 0.60498 0.17198 0.10944 0.0
H751 H 0.63468 0.18067 0.12773 0.0
H752 H 0.57781 0.07282 0.05256 0.0
H753 H 0.56203 0.09046 0.05248 0.0
H754 H 0.56188 0.11901 0.0654 0.0
H755 H 0.57743 0.14854 0.08608 0.0
Mn756 Mn 0.53511 0.667 0.57317 0.0
Mn757 Mn 0.50982 0.62832 0.60381 0.0
C758 C 0.51333 0.6417 0.55305 0.0
C759 C 0.53945 0.69484 0.56012 0.0
C760 C 0.54905 0.64246 0.59015 0.0
O761 O 0.5392 0.67497 0.60855 0.0
O762 O 0.51857 0.64905 0.62628 0.0
C763 C 0.47897 0.63298 0.61723 0.0
N764 N 0.48544 0.62307 0.60655 0.0
C765 C 0.45551 0.59947 0.59655 0.0
C766 C 0.4485 0.60933 0.60773 0.0
C767 C 0.46029 0.62619 0.61801 0.0
C768 C 0.47423 0.6069 0.5964 0.0
H769 H 0.488 0.64599 0.625 0.0
C770 C 0.53027 0.66589 0.62695 0.0
O771 O 0.55287 0.69188 0.56188 0.0
O772 O 0.52375 0.68183 0.56652 0.0
N773 N 0.50032 0.60716 0.58412 0.0
C774 C 0.5093 0.60002 0.57246 0.0
C775 C 0.4995 0.58351 0.56031 0.0
C776 C 0.48059 0.57445 0.56045 0.0
C777 C 0.47163 0.58199 0.57271 0.0
C778 C 0.48212 0.59844 0.5846 0.0
H779 H 0.52383 0.60687 0.57239 0.0
O780 O 0.52632 0.65474 0.54111 0.0
O781 O 0.5134 0.64398 0.57621 0.0
O782 O 0.5512 0.65576 0.5773 0.0
O783 O 0.53451 0.63217 0.60159 0.0
C784 C 0.45273 0.57404 0.57316 0.0
C785 C 0.44468 0.58279 0.58503 0.0
H786 H 0.43411 0.60419 0.60825 0.0
H787 H 0.45499 0.63395 0.62647 0.0
H788 H 0.50651 0.57779 0.55085 0.0
H789 H 0.47308 0.56178 0.55092 0.0
H790 H 0.44429 0.56137 0.56403 0.0
H791 H 0.43015 0.57671 0.58485 0.0
Mn792 Mn 0.86745 0.53373 0.07372 0.0
Mn793 Mn 0.87918 0.50765 0.10557 0.0
C794 C 0.87098 0.51179 0.05413 0.0
C795 C 0.84435 0.53837 0.05962 0.0
C796 C 0.9053 0.54683 0.09256 0.0
O797 O 0.86295 0.53789 0.10879 0.0
O798 O 0.86689 0.51661 0.12714 0.0
C799 C 0.84305 0.47715 0.11742 0.0
N800 N 0.85969 0.48342 0.1076 0.0
C801 C 0.85309 0.45336 0.09785 0.0
C802 C 0.83595 0.44657 0.10812 0.0
C803 C 0.83089 0.45852 0.11785 0.0
C804 C 0.86466 0.47205 0.09801 0.0
H805 H 0.83909 0.48631 0.12478 0.0
C806 C 0.86226 0.52869 0.12733 0.0
O807 O 0.86076 0.55171 0.06174 0.0
O808 O 0.84144 0.52264 0.06619 0.0
N809 N 0.89109 0.49794 0.08681 0.0
C810 C 0.90757 0.50675 0.07602 0.0
C811 C 0.91435 0.49677 0.06451 0.0
C812 C 0.90421 0.47787 0.06442 0.0
C813 C 0.88736 0.4691 0.07581 0.0
C814 C 0.88133 0.47974 0.08709 0.0
H815 H 0.91547 0.52126 0.07612 0.0
O816 O 0.8714 0.52493 0.04199 0.0
O817 O 0.86822 0.51177 0.07716 0.0
O818 O 0.89479 0.54941 0.07889 0.0
O819 O 0.90033 0.53217 0.10411 0.0
C820 C 0.87613 0.45023 0.07597 0.0
C821 C 0.859 0.44237 0.08694 0.0
H822 H 0.8265 0.43222 0.10837 0.0
H823 H 0.81763 0.45339 0.12562 0.0
H824 H 0.92736 0.50364 0.05571 0.0
H825 H 0.90943 0.47023 0.05537 0.0
H826 H 0.8804 0.44166 0.06729 0.0
H827 H 0.85035 0.42787 0.08654 0.0
Mn828 Mn 0.33424 0.86729 0.57449 0.0
Mn829 Mn 0.37295 0.88057 0.605 0.0
C830 C 0.35947 0.87074 0.55427 0.0
C831 C 0.30635 0.84385 0.56154 0.0
C832 C 0.35893 0.90577 0.59137 0.0
O833 O 0.32633 0.86342 0.60989 0.0
O834 O 0.35226 0.86868 0.62754 0.0
C835 C 0.36814 0.84499 0.61841 0.0
N836 N 0.3781 0.86138 0.60772 0.0
C837 C 0.40158 0.8549 0.59765 0.0
C838 C 0.39168 0.83804 0.60883 0.0
C839 C 0.37485 0.83304 0.61916 0.0
C840 C 0.39423 0.86626 0.59753 0.0
H841 H 0.35515 0.84107 0.62621 0.0
C842 C 0.33543 0.86357 0.62827 0.0
O843 O 0.30937 0.86025 0.56333 0.0
O844 O 0.31933 0.8411 0.56785 0.0
N845 N 0.39409 0.89215 0.58526 0.0
C846 C 0.4013 0.90829 0.57362 0.0
C847 C 0.41779 0.91494 0.56146 0.0
C848 C 0.42678 0.90502 0.56157 0.0
C849 C 0.41917 0.88851 0.57381 0.0
C850 C 0.40275 0.88261 0.58572 0.0
H851 H 0.39451 0.91603 0.57357 0.0
O852 O 0.34642 0.87072 0.54239 0.0
O853 O 0.35723 0.86852 0.57743 0.0
O854 O 0.34557 0.89462 0.57862 0.0
O855 O 0.36921 0.90149 0.60277 0.0
C856 C 0.42705 0.8775 0.57424 0.0
C857 C 0.41825 0.86069 0.5861 0.0
H858 H 0.39676 0.82874 0.60933 0.0
H859 H 0.36705 0.81998 0.62763 0.0
H860 H 0.42356 0.92768 0.55201 0.0
H861 H 0.43944 0.91014 0.55203 0.0
H862 H 0.43971 0.88167 0.56509 0.0
H863 H 0.42426 0.85219 0.5859 0.0
C864 C 0.31189 0.45268 0.15765 0.0
C865 C 0.32574 0.46984 0.15063 0.0
C866 C 0.30528 0.44966 0.1814 0.0
C867 C 0.30404 0.4732 0.23686 0.0
H868 H 0.31055 0.43769 0.27183 0.0
C869 C 0.33131 0.48447 0.3321 0.0
C870 C 0.32545 0.47021 0.34862 0.0
C871 C 0.32449 0.48145 0.30871 0.0
C872 C 0.30815 0.44734 0.26233 0.0
H873 H 0.34278 0.49742 0.16246 0.0
H874 H 0.33107 0.4923 0.20329 0.0
H875 H 0.31066 0.43762 0.22771 0.0
H876 H 0.30732 0.44162 0.35384 0.0
H877 H 0.29557 0.43619 0.31233 0.0
H878 H 0.30262 0.48362 0.27137 0.0
C879 C 0.32533 0.48114 0.1907 0.0
C880 C 0.30822 0.44729 0.23705 0.0
C881 C 0.33214 0.48405 0.16731 0.0
C882 C 0.31202 0.45288 0.34149 0.0
C883 C 0.30537 0.44976 0.31776 0.0
C884 C 0.30393 0.47322 0.26205 0.0
C885 C 0.31211 0.46386 0.19821 0.0
C886 C 0.30707 0.46079 0.22412 0.0
C887 C 0.31177 0.46401 0.30104 0.0
C888 C 0.30691 0.46087 0.27505 0.0
H889 H 0.30678 0.44146 0.14518 0.0
H890 H 0.29511 0.4362 0.18676 0.0
H891 H 0.30284 0.48359 0.22734 0.0
H892 H 0.34161 0.49798 0.33704 0.0
H893 H 0.32992 0.49268 0.29623 0.0
C894 C 0.83954 0.31715 0.66284 0.0
C895 C 0.85544 0.31998 0.65178 0.0
C896 C 0.83609 0.31183 0.68697 0.0
C897 C 0.8519 0.29734 0.74067 0.0
H898 H 0.83968 0.32958 0.7739 0.0
C899 C 0.8678 0.31723 0.84147 0.0
C900 C 0.85691 0.32245 0.8539 0.0
C901 C 0.86421 0.31188 0.81727 0.0
C902 C 0.84266 0.3201 0.76508 0.0
H903 H 0.8798 0.31868 0.65646 0.0
H904 H 0.87395 0.30957 0.69891 0.0
H905 H 0.83914 0.3286 0.73037 0.0
H906 H 0.83308 0.32497 0.85184 0.0
H907 H 0.82621 0.3148 0.81009 0.0
H908 H 0.85588 0.28926 0.77572 0.0
C909 C 0.86393 0.31106 0.6889 0.0
C910 C 0.84237 0.31956 0.73995 0.0
C911 C 0.86729 0.31625 0.66462 0.0
C912 C 0.84167 0.32102 0.8425 0.0
C913 C 0.83788 0.31537 0.81852 0.0
C914 C 0.85209 0.29781 0.76598 0.0
C915 C 0.84868 0.30959 0.70062 0.0
C916 C 0.84719 0.30837 0.72738 0.0
C917 C 0.84957 0.31155 0.80523 0.0
C918 C 0.84768 0.30939 0.7785 0.0
H919 H 0.83027 0.32004 0.65323 0.0
H920 H 0.82405 0.31047 0.69532 0.0
H921 H 0.85561 0.28852 0.73151 0.0
H922 H 0.87977 0.31849 0.84993 0.0
H923 H 0.87359 0.30918 0.80763 0.0
C924 C 0.51705 0.84648 0.33336 0.0
C925 C 0.53131 0.85493 0.34987 0.0
C926 C 0.52009 0.8427 0.30997 0.0
C927 C 0.55415 0.86066 0.2636 0.0
H928 H 0.51805 0.81902 0.22857 0.0
C929 C 0.54871 0.85934 0.15901 0.0
C930 C 0.53149 0.85586 0.15203 0.0
C931 C 0.55179 0.8557 0.1827 0.0
C932 C 0.52839 0.83063 0.2381 0.0
H933 H 0.55991 0.86549 0.35509 0.0
H934 H 0.56537 0.85919 0.31358 0.0
H935 H 0.51806 0.81871 0.2726 0.0
H936 H 0.50385 0.84495 0.16387 0.0
H937 H 0.50908 0.8383 0.20461 0.0
H938 H 0.56378 0.87298 0.22901 0.0
C939 C 0.55179 0.85537 0.31902 0.0
C940 C 0.5284 0.83046 0.26329 0.0
C941 C 0.54865 0.85888 0.34275 0.0
C942 C 0.51728 0.84782 0.16869 0.0
C943 C 0.52025 0.84388 0.19203 0.0
C944 C 0.55417 0.86081 0.23832 0.0
C945 C 0.53754 0.84747 0.30231 0.0
C946 C 0.54069 0.84581 0.27631 0.0
C947 C 0.53759 0.84811 0.1995 0.0
C948 C 0.54071 0.84613 0.22539 0.0
H949 H 0.50353 0.84323 0.33831 0.0
H950 H 0.50886 0.83687 0.2975 0.0
H951 H 0.56375 0.87271 0.27312 0.0
H952 H 0.55992 0.86562 0.14655 0.0
H953 H 0.56529 0.85912 0.18802 0.0
C954 C 0.69183 0.55032 0.84222 0.0
C955 C 0.67833 0.53294 0.84903 0.0
C956 C 0.69888 0.55357 0.81871 0.0
C957 C 0.69645 0.55593 0.76314 0.0
H958 H 0.70292 0.52018 0.72872 0.0
C959 C 0.67263 0.51832 0.66893 0.0
C960 C 0.67829 0.53241 0.65217 0.0
C961 C 0.67987 0.52158 0.6921 0.0
C962 C 0.70141 0.53044 0.73808 0.0
H963 H 0.66246 0.50521 0.83718 0.0
H964 H 0.67491 0.51072 0.79677 0.0
H965 H 0.70298 0.52033 0.77276 0.0
H966 H 0.69641 0.5609 0.64623 0.0
H967 H 0.70884 0.56677 0.68742 0.0
H968 H 0.69367 0.56527 0.72839 0.0
C969 C 0.68007 0.5219 0.80932 0.0
C970 C 0.70144 0.53053 0.76327 0.0
C971 C 0.67282 0.51875 0.83248 0.0
C972 C 0.6919 0.54978 0.65879 0.0
C973 C 0.69893 0.55315 0.68232 0.0
C974 C 0.69643 0.55586 0.73787 0.0
C975 C 0.69284 0.53939 0.80193 0.0
C976 C 0.69801 0.54265 0.77605 0.0
C977 C 0.69277 0.53908 0.69929 0.0
C978 C 0.69797 0.5425 0.72514 0.0
H979 H 0.69623 0.56152 0.85461 0.0
H980 H 0.7087 0.56719 0.81345 0.0
H981 H 0.6937 0.5654 0.77249 0.0
H982 H 0.66218 0.50479 0.66437 0.0
H983 H 0.67462 0.5105 0.70482 0.0
C984 C 0.14011 0.69133 0.34473 0.0
C985 C 0.14426 0.67797 0.35132 0.0
C986 C 0.14384 0.69854 0.32131 0.0
C987 C 0.1703 0.70284 0.26637 0.0
H988 H 0.12767 0.69346 0.23044 0.0
C989 C 0.1567 0.6755 0.17138 0.0
C990 C 0.1473 0.68004 0.15471 0.0
C991 C 0.16021 0.68271 0.19456 0.0
C992 C 0.13986 0.69671 0.24021 0.0
H993 H 0.15644 0.66248 0.33913 0.0
H994 H 0.16333 0.67531 0.29885 0.0
H995 H 0.12684 0.69277 0.27453 0.0
H996 H 0.13479 0.69629 0.14887 0.0
H997 H 0.14061 0.70875 0.19005 0.0
H998 H 0.183 0.70568 0.23214 0.0
C999 C 0.15712 0.68017 0.31154 0.0
C1000 C 0.13938 0.69628 0.26548 0.0
C1001 C 0.15306 0.67272 0.33459 0.0
C1002 C 0.14218 0.69267 0.16136 0.0
C1003 C 0.14541 0.6997 0.1849 0.0
C1004 C 0.17082 0.70333 0.24119 0.0
C1005 C 0.15221 0.69286 0.30443 0.0
C1006 C 0.1543 0.69841 0.27872 0.0
C1007 C 0.15418 0.69449 0.20186 0.0
C1008 C 0.1553 0.69929 0.22783 0.0
H1009 H 0.13321 0.69552 0.35726 0.0
H1010 H 0.13987 0.70826 0.31624 0.0
H1011 H 0.18209 0.70479 0.27616 0.0
H1012 H 0.16081 0.6658 0.1668 0.0
H1013 H 0.16674 0.67818 0.20722 0.0
C1014 C 0.48486 0.15378 0.83312 0.0
C1015 C 0.47065 0.14566 0.84977 0.0
C1016 C 0.48182 0.15761 0.80975 0.0
C1017 C 0.44753 0.14015 0.76372 0.0
H1018 H 0.48399 0.18138 0.72839 0.0
C1019 C 0.45263 0.14116 0.65909 0.0
C1020 C 0.46972 0.14429 0.65205 0.0
C1021 C 0.44971 0.14493 0.68279 0.0
C1022 C 0.47354 0.16989 0.73801 0.0
H1023 H 0.44219 0.13573 0.85527 0.0
H1024 H 0.43673 0.14208 0.81379 0.0
H1025 H 0.48416 0.1818 0.77243 0.0
H1026 H 0.49731 0.15471 0.66379 0.0
H1027 H 0.49237 0.16158 0.70455 0.0
H1028 H 0.43762 0.12782 0.72921 0.0
C1029 C 0.45026 0.14562 0.81911 0.0
C1030 C 0.47365 0.17012 0.7632 0.0
C1031 C 0.4534 0.14207 0.84281 0.0
C1032 C 0.48398 0.15209 0.66866 0.0
C1033 C 0.48117 0.15617 0.692 0.0
C1034 C 0.44742 0.13993 0.73844 0.0
C1035 C 0.46444 0.1532 0.80226 0.0
C1036 C 0.46122 0.1549 0.7763 0.0
C1037 C 0.46396 0.1523 0.69952 0.0
C1038 C 0.46099 0.15445 0.7254 0.0
H1039 H 0.49831 0.15676 0.83794 0.0
H1040 H 0.49298 0.16319 0.79716 0.0
H1041 H 0.43783 0.12819 0.77332 0.0
H1042 H 0.44138 0.13507 0.64667 0.0
H1043 H 0.4363 0.14178 0.68816 0.0
C1044 C 0.55049 0.68877 0.65768 0.0
C1045 C 0.53335 0.6749 0.65065 0.0
C1046 C 0.55348 0.69545 0.68139 0.0
C1047 C 0.52977 0.69675 0.73667 0.0
H1048 H 0.5654 0.69062 0.77194 0.0
C1049 C 0.51846 0.66934 0.8318 0.0
C1050 C 0.53263 0.67558 0.84853 0.0
C1051 C 0.52151 0.67612 0.80838 0.0
C1052 C 0.55572 0.69291 0.76235 0.0
H1053 H 0.50574 0.6579 0.66244 0.0
H1054 H 0.5108 0.6697 0.7032 0.0
H1055 H 0.56557 0.69041 0.72782 0.0
H1056 H 0.56106 0.69427 0.85408 0.0
H1057 H 0.56654 0.70592 0.8125 0.0
H1058 H 0.5192 0.69809 0.77111 0.0
C1059 C 0.52199 0.67542 0.69064 0.0
C1060 C 0.55581 0.69279 0.73707 0.0
C1061 C 0.51911 0.66854 0.66729 0.0
C1062 C 0.54987 0.68929 0.84156 0.0
C1063 C 0.55302 0.69589 0.81781 0.0
C1064 C 0.52969 0.69689 0.76186 0.0
C1065 C 0.53925 0.68867 0.69815 0.0
C1066 C 0.54227 0.69379 0.72404 0.0
C1067 C 0.53887 0.68916 0.80091 0.0
C1068 C 0.54209 0.69405 0.77495 0.0
H1069 H 0.56173 0.69384 0.64524 0.0
H1070 H 0.56693 0.70563 0.68675 0.0
H1071 H 0.51935 0.69785 0.72707 0.0
H1072 H 0.50503 0.65881 0.8366 0.0
H1073 H 0.51037 0.67044 0.79575 0.0
C1074 C 0.8598 0.54903 0.34093 0.0
C1075 C 0.85604 0.53165 0.34756 0.0
C1076 C 0.85606 0.55236 0.31743 0.0
C1077 C 0.83078 0.5296 0.26176 0.0
H1078 H 0.87343 0.56449 0.22725 0.0
C1079 C 0.84744 0.51783 0.1672 0.0
C1080 C 0.8561 0.53204 0.15066 0.0
C1081 C 0.84344 0.52098 0.19042 0.0
C1082 C 0.86122 0.55504 0.23662 0.0
H1083 H 0.84446 0.50402 0.33542 0.0
H1084 H 0.83762 0.50968 0.29502 0.0
H1085 H 0.87336 0.56442 0.27135 0.0
H1086 H 0.86683 0.56065 0.14518 0.0
H1087 H 0.8602 0.56629 0.18641 0.0
H1088 H 0.81906 0.51943 0.2271 0.0
C1089 C 0.84349 0.52078 0.30771 0.0
C1090 C 0.86118 0.555 0.2619 0.0
C1091 C 0.84754 0.51755 0.33084 0.0
C1092 C 0.86007 0.54944 0.15756 0.0
C1093 C 0.85635 0.55267 0.18112 0.0
C1094 C 0.83081 0.52964 0.23657 0.0
C1095 C 0.8481 0.53828 0.3005 0.0
C1096 C 0.84629 0.54167 0.27466 0.0
C1097 C 0.84822 0.53848 0.19788 0.0
C1098 C 0.84637 0.54174 0.22376 0.0
H1099 H 0.86646 0.56016 0.35346 0.0
H1100 H 0.85978 0.56598 0.31231 0.0
H1101 H 0.81901 0.51935 0.27115 0.0
H1102 H 0.84416 0.50428 0.16242 0.0
H1103 H 0.83743 0.50979 0.20296 0.0
C1104 C 0.33281 0.8498 0.66864 0.0
C1105 C 0.32644 0.85766 0.65198 0.0
C1106 C 0.32591 0.84579 0.69199 0.0
C1107 C 0.30853 0.86222 0.73837 0.0
H1108 H 0.3029 0.82016 0.77237 0.0
C1109 C 0.31185 0.85986 0.8428 0.0
C1110 C 0.32532 0.85602 0.84994 0.0
C1111 C 0.30531 0.85644 0.81902 0.0
C1112 C 0.30421 0.8319 0.76313 0.0
H1113 H 0.30747 0.86706 0.64653 0.0
H1114 H 0.29566 0.86046 0.68802 0.0
H1115 H 0.30331 0.82064 0.72833 0.0
H1116 H 0.34166 0.84461 0.83831 0.0
H1117 H 0.33015 0.83842 0.7974 0.0
H1118 H 0.31067 0.87396 0.77324 0.0
C1119 C 0.30586 0.85722 0.68269 0.0
C1120 C 0.30443 0.83216 0.73794 0.0
C1121 C 0.31256 0.86092 0.65899 0.0
C1122 C 0.33133 0.84778 0.83336 0.0
C1123 C 0.32461 0.8441 0.80992 0.0
C1124 C 0.30835 0.86197 0.76364 0.0
C1125 C 0.31264 0.84978 0.69946 0.0
C1126 C 0.30749 0.84766 0.72534 0.0
C1127 C 0.31185 0.84874 0.80226 0.0
C1128 C 0.30709 0.84715 0.77625 0.0
H1129 H 0.34346 0.84708 0.66381 0.0
H1130 H 0.33162 0.84032 0.70456 0.0
H1131 H 0.31098 0.87438 0.72913 0.0
H1132 H 0.30704 0.86629 0.85519 0.0
H1133 H 0.29548 0.86016 0.81359 0.0
C1134 C 0.47464 0.31331 0.33919 0.0
C1135 C 0.46401 0.3197 0.34957 0.0
C1136 C 0.47159 0.30706 0.31537 0.0
C1137 C 0.4407 0.29695 0.26231 0.0
H1138 H 0.48545 0.31777 0.22636 0.0
C1139 C 0.44907 0.32261 0.16482 0.0
C1140 C 0.46144 0.32128 0.14967 0.0
C1141 C 0.44647 0.31606 0.18843 0.0
C1142 C 0.47279 0.31148 0.23607 0.0
H1143 H 0.44162 0.3242 0.34396 0.0
H1144 H 0.43641 0.31368 0.30229 0.0
H1145 H 0.48622 0.31762 0.27007 0.0
H1146 H 0.48042 0.31175 0.1466 0.0
H1147 H 0.47594 0.30027 0.18809 0.0
H1148 H 0.42743 0.29191 0.22801 0.0
C1149 C 0.44677 0.31289 0.31248 0.0
C1150 C 0.47321 0.31135 0.26126 0.0
C1151 C 0.44973 0.31896 0.33635 0.0
C1152 C 0.47059 0.31261 0.15797 0.0
C1153 C 0.46813 0.3062 0.1817 0.0
C1154 C 0.4403 0.29723 0.23707 0.0
C1155 C 0.45807 0.30747 0.30138 0.0
C1156 C 0.45721 0.30458 0.27476 0.0
C1157 C 0.45644 0.30836 0.19741 0.0
C1158 C 0.45639 0.30496 0.22371 0.0
H1159 H 0.48588 0.31401 0.34908 0.0
H1160 H 0.48036 0.3027 0.30759 0.0
H1161 H 0.42809 0.29131 0.27208 0.0
H1162 H 0.44214 0.32956 0.15879 0.0
H1163 H 0.43757 0.31817 0.20014 0.0
C1164 C 0.15439 0.48397 0.66625 0.0
C1165 C 0.14584 0.46969 0.64979 0.0
C1166 C 0.15828 0.48095 0.6896 0.0
C1167 C 0.17082 0.47259 0.73604 0.0
H1168 H 0.12836 0.43765 0.77083 0.0
C1169 C 0.14198 0.453 0.84047 0.0
C1170 C 0.1457 0.47034 0.84721 0.0
C1171 C 0.14567 0.44973 0.81691 0.0
C1172 C 0.14051 0.44712 0.76138 0.0
H1173 H 0.13519 0.44107 0.64462 0.0
H1174 H 0.14165 0.43564 0.68606 0.0
H1175 H 0.12832 0.43752 0.72673 0.0
H1176 H 0.15716 0.49799 0.83517 0.0
H1177 H 0.16392 0.49244 0.79467 0.0
H1178 H 0.18257 0.48296 0.77062 0.0
C1179 C 0.14548 0.44923 0.68061 0.0
C1180 C 0.14049 0.44705 0.7361 0.0
C1181 C 0.14186 0.45234 0.65693 0.0
C1182 C 0.15411 0.48448 0.83052 0.0
C1183 C 0.15811 0.48132 0.80732 0.0
C1184 C 0.17084 0.47266 0.76123 0.0
C1185 C 0.15351 0.4635 0.69727 0.0
C1186 C 0.15532 0.46037 0.72322 0.0
C1187 C 0.15355 0.46385 0.80001 0.0
C1188 C 0.15536 0.46052 0.77414 0.0
H1189 H 0.15766 0.4975 0.66129 0.0
H1190 H 0.16421 0.4922 0.70204 0.0
H1191 H 0.18255 0.48282 0.72657 0.0
H1192 H 0.13539 0.44184 0.85297 0.0
H1193 H 0.14199 0.43613 0.81173 0.0
C1194 C 0.68943 0.14101 0.34294 0.0
C1195 C 0.67595 0.14489 0.34987 0.0
C1196 C 0.69612 0.14444 0.31924 0.0
C1197 C 0.69757 0.16897 0.26319 0.0
H1198 H 0.69061 0.12633 0.22946 0.0
C1199 C 0.66881 0.15078 0.16889 0.0
C1200 C 0.67509 0.14282 0.15228 0.0
C1201 C 0.67578 0.15489 0.19218 0.0
C1202 C 0.69312 0.13853 0.23863 0.0
H1203 H 0.65974 0.15636 0.33798 0.0
H1204 H 0.67149 0.16256 0.29719 0.0
H1205 H 0.69087 0.12685 0.27357 0.0
H1206 H 0.694 0.13333 0.14686 0.0
H1207 H 0.70594 0.1401 0.18828 0.0
H1208 H 0.69857 0.18017 0.22832 0.0
C1209 C 0.67693 0.15686 0.30981 0.0
C1210 C 0.69328 0.13884 0.2639 0.0
C1211 C 0.67007 0.15316 0.33318 0.0
C1212 C 0.68897 0.13955 0.15928 0.0
C1213 C 0.69574 0.14335 0.18293 0.0
C1214 C 0.69739 0.16865 0.23801 0.0
C1215 C 0.68971 0.15217 0.30235 0.0
C1216 C 0.69458 0.15372 0.2764 0.0
C1217 C 0.68905 0.1509 0.19966 0.0
C1218 C 0.69425 0.15309 0.2255 0.0
H1219 H 0.69415 0.13455 0.35544 0.0
H1220 H 0.70596 0.14068 0.31396 0.0
H1221 H 0.69893 0.18075 0.27236 0.0
H1222 H 0.65816 0.15351 0.16405 0.0
H1223 H 0.67014 0.16044 0.20473 0.0
C1224 C 0.17006 0.4469 0.95706 0.0
C1225 C 0.17253 0.46389 0.9508 0.0
C1226 C 0.18358 0.44549 0.96942 0.0
C1227 C 0.2218 0.47125 0.01011 0.0
H1228 H 0.23843 0.43869 0.99016 0.0
C1229 C 0.28781 0.47839 0.0462 0.0
C1230 C 0.28917 0.46291 0.04993 0.0
C1231 C 0.27256 0.47718 0.03533 0.0
C1232 C 0.23374 0.44763 0.99626 0.0
H1233 H 0.19123 0.49267 0.95221 0.0
H1234 H 0.21462 0.49019 0.97383 0.0
H1235 H 0.21372 0.43888 0.96836 0.0
H1236 H 0.27538 0.43391 0.04555 0.0
H1237 H 0.24845 0.4317 0.027 0.0
H1238 H 0.24155 0.47995 0.03807 0.0
C1239 C 0.20224 0.47797 0.96932 0.0
C1240 C 0.21963 0.44778 0.98369 0.0
C1241 C 0.18887 0.47938 0.95677 0.0
C1242 C 0.27475 0.44609 0.0429 0.0
C1243 C 0.25937 0.44486 0.03211 0.0
C1244 C 0.23574 0.47099 0.02279 0.0
C1245 C 0.19969 0.46104 0.97601 0.0
C1246 C 0.21376 0.45984 0.99021 0.0
C1247 C 0.25813 0.46042 0.02805 0.0
C1248 C 0.24217 0.45945 0.01577 0.0
H1249 H 0.15762 0.43472 0.9527 0.0
H1250 H 0.18123 0.43226 0.97439 0.0
H1251 H 0.21731 0.48044 0.01586 0.0
H1252 H 0.29872 0.49158 0.05123 0.0
H1253 H 0.27231 0.48951 0.03211 0.0
C1254 C 0.7142 0.18948 0.45379 0.0
C1255 C 0.71221 0.17234 0.45041 0.0
C1256 C 0.72982 0.2034 0.46408 0.0
C1257 C 0.7689 0.21243 0.50229 0.0
H1258 H 0.78599 0.26143 0.4809 0.0
C1259 C 0.83283 0.276 0.54047 0.0
C1260 C 0.83002 0.29031 0.5467 0.0
C1261 C 0.81952 0.26095 0.52804 0.0
C1262 C 0.78136 0.24782 0.4871 0.0
H1263 H 0.72525 0.15643 0.45496 0.0
H1264 H 0.75287 0.18097 0.47262 0.0
H1265 H 0.76137 0.2365 0.45947 0.0
H1266 H 0.81097 0.29995 0.54498 0.0
H1267 H 0.78799 0.27394 0.52316 0.0
H1268 H 0.78913 0.224 0.52992 0.0
C1269 C 0.74214 0.18353 0.46759 0.0
C1270 C 0.76719 0.23351 0.47488 0.0
C1271 C 0.72638 0.1695 0.45734 0.0
C1272 C 0.8136 0.28918 0.54046 0.0
C1273 C 0.80046 0.27432 0.52781 0.0
C1274 C 0.78326 0.22681 0.51439 0.0
C1275 C 0.74403 0.20066 0.47115 0.0
C1276 C 0.76044 0.21564 0.48266 0.0
C1277 C 0.8033 0.26011 0.5213 0.0
C1278 C 0.78933 0.24467 0.50725 0.0
H1279 H 0.70351 0.19213 0.44884 0.0
H1280 H 0.73056 0.21624 0.46698 0.0
H1281 H 0.764 0.19888 0.50891 0.0
H1282 H 0.84534 0.27647 0.54506 0.0
H1283 H 0.82206 0.25018 0.52321 0.0
C1284 C 0.52444 0.81075 0.04685 0.0
C1285 C 0.53971 0.82771 0.05086 0.0
C1286 C 0.52604 0.79696 0.0359 0.0
C1287 C 0.55628 0.78851 0.99712 0.0
H1288 H 0.52386 0.73906 0.01629 0.0
C1289 C 0.55744 0.72567 0.95767 0.0
C1290 C 0.54045 0.71125 0.95118 0.0
C1291 C 0.55887 0.74062 0.97003 0.0
C1292 C 0.53297 0.7528 0.01068 0.0
H1293 H 0.56872 0.84341 0.04684 0.0
H1294 H 0.57159 0.8191 0.02812 0.0
H1295 H 0.52394 0.76352 0.03867 0.0
H1296 H 0.5117 0.70142 0.95207 0.0
H1297 H 0.51421 0.72728 0.97369 0.0
H1298 H 0.56535 0.77755 0.96917 0.0
C1299 C 0.55831 0.81659 0.0331 0.0
C1300 C 0.53298 0.76685 0.02345 0.0
C1301 C 0.55669 0.83048 0.04398 0.0
C1302 C 0.525 0.71226 0.95682 0.0
C1303 C 0.52641 0.72703 0.96936 0.0
C1304 C 0.55639 0.7744 0.98446 0.0
C1305 C 0.54297 0.79965 0.02881 0.0
C1306 C 0.54434 0.78488 0.01654 0.0
C1307 C 0.54332 0.74126 0.97638 0.0
C1308 C 0.54445 0.7564 0.99081 0.0
H1309 H 0.51113 0.80818 0.05174 0.0
H1310 H 0.51386 0.78427 0.03248 0.0
H1311 H 0.56511 0.8022 0.99114 0.0
H1312 H 0.56959 0.72528 0.95357 0.0
H1313 H 0.57207 0.75141 0.97524 0.0
C1314 C 0.71204 0.52216 0.54352 0.0
C1315 C 0.7113 0.53781 0.54885 0.0
C1316 C 0.72674 0.52324 0.53116 0.0
C1317 C 0.77432 0.55303 0.51615 0.0
H1318 H 0.76373 0.5197 0.4631 0.0
C1319 C 0.83066 0.55399 0.45669 0.0
C1320 C 0.82831 0.53714 0.44994 0.0
C1321 C 0.81661 0.55524 0.46774 0.0
C1322 C 0.76698 0.52898 0.47802 0.0
H1323 H 0.72569 0.56694 0.54595 0.0
H1324 H 0.75162 0.56883 0.52456 0.0
H1325 H 0.73914 0.51966 0.48508 0.0
H1326 H 0.80938 0.50841 0.44953 0.0
H1327 H 0.78519 0.51051 0.46912 0.0
H1328 H 0.80217 0.56203 0.50953 0.0
C1329 C 0.74072 0.55573 0.52992 0.0
C1330 C 0.75285 0.52898 0.49058 0.0
C1331 C 0.72586 0.55464 0.5421 0.0
C1332 C 0.81162 0.52162 0.45433 0.0
C1333 C 0.79766 0.52285 0.46546 0.0
C1334 C 0.7885 0.55293 0.50371 0.0
C1335 C 0.74115 0.54 0.52399 0.0
C1336 C 0.75634 0.54084 0.50997 0.0
C1337 C 0.79993 0.53966 0.47236 0.0
C1338 C 0.785 0.54072 0.48467 0.0
H1339 H 0.70107 0.50898 0.54847 0.0
H1340 H 0.72681 0.51091 0.52717 0.0
H1341 H 0.77741 0.56226 0.5311 0.0
H1342 H 0.84336 0.56621 0.45353 0.0
H1343 H 0.8188 0.56844 0.47252 0.0
C1344 C 0.28685 0.81136 0.9542 0.0
C1345 C 0.28878 0.82847 0.95074 0.0
C1346 C 0.27135 0.79749 0.96482 0.0
C1347 C 0.23272 0.78871 0.00386 0.0
H1348 H 0.2155 0.73953 0.98319 0.0
C1349 C 0.16925 0.72531 0.04346 0.0
C1350 C 0.17215 0.71105 0.04966 0.0
C1351 C 0.18245 0.74032 0.03083 0.0
C1352 C 0.22018 0.7532 0.9892 0.0
H1353 H 0.27574 0.84436 0.95549 0.0
H1354 H 0.24835 0.81992 0.97371 0.0
H1355 H 0.23981 0.76429 0.96111 0.0
H1356 H 0.19125 0.70148 0.04775 0.0
H1357 H 0.21402 0.72742 0.02558 0.0
H1358 H 0.21282 0.77736 0.03194 0.0
C1359 C 0.25902 0.81734 0.96849 0.0
C1360 C 0.23417 0.76741 0.9766 0.0
C1361 C 0.27466 0.83132 0.9579 0.0
C1362 C 0.18856 0.71221 0.04325 0.0
C1363 C 0.20158 0.72703 0.03041 0.0
C1364 C 0.21853 0.77443 0.01634 0.0
C1365 C 0.25721 0.80025 0.97217 0.0
C1366 C 0.24096 0.78535 0.9841 0.0
C1367 C 0.19863 0.74117 0.02386 0.0
C1368 C 0.21242 0.75651 0.00946 0.0
H1369 H 0.2975 0.8087 0.94908 0.0
H1370 H 0.27068 0.78468 0.96779 0.0
H1371 H 0.23766 0.80232 0.01028 0.0
H1372 H 0.15675 0.72481 0.04817 0.0
H1373 H 0.17983 0.75104 0.02598 0.0
C1374 C 0.4765 0.19016 0.54872 0.0
C1375 C 0.46122 0.17313 0.55222 0.0
C1376 C 0.47496 0.20421 0.53853 0.0
C1377 C 0.44492 0.21356 0.50075 0.0
H1378 H 0.47753 0.26259 0.52141 0.0
C1379 C 0.445 0.27718 0.46212 0.0
C1380 C 0.46214 0.29129 0.45547 0.0
C1381 C 0.44322 0.2622 0.47478 0.0
C1382 C 0.46835 0.24896 0.51542 0.0
H1383 H 0.43221 0.15758 0.54809 0.0
H1384 H 0.42942 0.18232 0.53066 0.0
H1385 H 0.4771 0.23762 0.54293 0.0
H1386 H 0.49078 0.30065 0.45674 0.0
H1387 H 0.48766 0.27476 0.47897 0.0
H1388 H 0.43619 0.22514 0.47324 0.0
C1389 C 0.44268 0.1847 0.53547 0.0
C1390 C 0.46814 0.23463 0.52768 0.0
C1391 C 0.44425 0.17055 0.5456 0.0
C1392 C 0.47739 0.29004 0.46158 0.0
C1393 C 0.47562 0.27525 0.47446 0.0
C1394 C 0.44501 0.22795 0.48861 0.0
C1395 C 0.45805 0.20171 0.5317 0.0
C1396 C 0.45676 0.21675 0.52016 0.0
C1397 C 0.45856 0.26123 0.48134 0.0
C1398 C 0.45703 0.24581 0.49549 0.0
H1399 H 0.4898 0.19261 0.55344 0.0
H1400 H 0.48715 0.21695 0.53548 0.0
H1401 H 0.43607 0.2 0.49431 0.0
H1402 H 0.433 0.27776 0.45764 0.0
H1403 H 0.4299 0.25158 0.4799 0.0
C1404 C 0.83232 0.55745 0.04212 0.0
C1405 C 0.82959 0.54052 0.04926 0.0
C1406 C 0.81829 0.55899 0.03149 0.0
C1407 C 0.76837 0.53363 0.02362 0.0
H1408 H 0.77791 0.56503 0.96851 0.0
C1409 C 0.7124 0.52452 0.95861 0.0
C1410 C 0.71142 0.53991 0.95245 0.0
C1411 C 0.72734 0.52611 0.9709 0.0
C1412 C 0.77509 0.55635 0.98404 0.0
H1413 H 0.80999 0.51197 0.05078 0.0
H1414 H 0.78589 0.51456 0.03201 0.0
H1415 H 0.80303 0.56519 0.98977 0.0
H1416 H 0.72564 0.5691 0.95376 0.0
H1417 H 0.75202 0.57188 0.97501 0.0
H1418 H 0.74044 0.52439 0.01745 0.0
C1419 C 0.79864 0.52676 0.03502 0.0
C1420 C 0.78947 0.55647 0.99629 0.0
C1421 C 0.81256 0.52525 0.04568 0.0
C1422 C 0.72599 0.55699 0.95829 0.0
C1423 C 0.7411 0.55859 0.97038 0.0
C1424 C 0.75406 0.53339 0.01127 0.0
C1425 C 0.80126 0.54362 0.02777 0.0
C1426 C 0.78625 0.54486 0.01599 0.0
C1427 C 0.74178 0.54313 0.97715 0.0
C1428 C 0.75722 0.54451 0.99111 0.0
H1429 H 0.8453 0.56947 0.04463 0.0
H1430 H 0.82075 0.57221 0.02632 0.0
H1431 H 0.76537 0.52485 0.03908 0.0
H1432 H 0.70144 0.51116 0.95437 0.0
H1433 H 0.7276 0.51397 0.97558 0.0
C1434 C 0.16863 0.72608 0.46096 0.0
C1435 C 0.17125 0.71169 0.45447 0.0
C1436 C 0.18215 0.74109 0.47322 0.0
C1437 C 0.22056 0.75371 0.51348 0.0
H1438 H 0.23767 0.8029 0.49303 0.0
C1439 C 0.28751 0.81199 0.54786 0.0
C1440 C 0.2893 0.82901 0.55163 0.0
C1441 C 0.27197 0.79808 0.53735 0.0
C1442 C 0.23285 0.78927 0.49928 0.0
H1443 H 0.19023 0.70194 0.45538 0.0
H1444 H 0.21358 0.7279 0.47684 0.0
H1445 H 0.21255 0.77803 0.47169 0.0
H1446 H 0.27599 0.84471 0.54763 0.0
H1447 H 0.24855 0.82022 0.52966 0.0
H1448 H 0.2406 0.76472 0.54109 0.0
C1449 C 0.2011 0.72759 0.47256 0.0
C1450 C 0.2185 0.77504 0.48698 0.0
C1451 C 0.18774 0.71276 0.46012 0.0
C1452 C 0.27502 0.83174 0.54495 0.0
C1453 C 0.25935 0.81773 0.53449 0.0
C1454 C 0.23473 0.76789 0.52589 0.0
C1455 C 0.1984 0.74182 0.47949 0.0
C1456 C 0.21249 0.7571 0.49364 0.0
C1457 C 0.25767 0.80074 0.53046 0.0
C1458 C 0.24136 0.78585 0.51864 0.0
H1459 H 0.15607 0.72565 0.45685 0.0
H1460 H 0.17972 0.75188 0.47837 0.0
H1461 H 0.21597 0.74003 0.51932 0.0
H1462 H 0.29829 0.80944 0.55262 0.0
H1463 H 0.27138 0.78534 0.53411 0.0
C1464 C 0.44523 0.17052 0.9576 0.0
C1465 C 0.46225 0.17296 0.95153 0.0
C1466 C 0.44377 0.18429 0.96918 0.0
C1467 C 0.46959 0.22334 0.00846 0.0
H1468 H 0.43769 0.24028 0.98662 0.0
C1469 C 0.47777 0.29027 0.04223 0.0
C1470 C 0.46239 0.2918 0.04594 0.0
C1471 C 0.47639 0.27492 0.03139 0.0
C1472 C 0.44646 0.23553 0.99323 0.0
H1473 H 0.491 0.1919 0.95242 0.0
H1474 H 0.48843 0.21566 0.97269 0.0
H1475 H 0.43743 0.21482 0.96621 0.0
H1476 H 0.43343 0.27836 0.04126 0.0
H1477 H 0.43093 0.25129 0.02275 0.0
H1478 H 0.47858 0.24374 0.03556 0.0
C1479 C 0.47623 0.20313 0.96863 0.0
C1480 C 0.44633 0.22097 0.98147 0.0
C1481 C 0.47768 0.18952 0.95687 0.0
C1482 C 0.44554 0.27758 0.03861 0.0
C1483 C 0.44413 0.26211 0.02787 0.0
C1484 C 0.46961 0.23771 0.02034 0.0
C1485 C 0.45931 0.20062 0.97517 0.0
C1486 C 0.45817 0.21499 0.98868 0.0
C1487 C 0.45956 0.26058 0.02414 0.0
C1488 C 0.45833 0.24427 0.01259 0.0
H1489 H 0.43309 0.15791 0.9537 0.0
H1490 H 0.43055 0.182 0.97404 0.0
H1491 H 0.47862 0.21879 0.01472 0.0
H1492 H 0.49098 0.30103 0.04747 0.0
H1493 H 0.48863 0.27446 0.02836 0.0
C1494 C 0.16936 0.44309 0.54174 0.0
C1495 C 0.17239 0.46012 0.54889 0.0
C1496 C 0.18325 0.44124 0.53124 0.0
C1497 C 0.23318 0.46579 0.52371 0.0
H1498 H 0.22334 0.43485 0.46799 0.0
C1499 C 0.28863 0.47567 0.45767 0.0
C1500 C 0.28997 0.46048 0.45143 0.0
C1501 C 0.27365 0.47376 0.47015 0.0
C1502 C 0.22623 0.44338 0.4837 0.0
H1503 H 0.19239 0.48855 0.55062 0.0
H1504 H 0.21627 0.48543 0.53208 0.0
H1505 H 0.19836 0.43485 0.48946 0.0
H1506 H 0.27628 0.43131 0.45274 0.0
H1507 H 0.24974 0.42798 0.47431 0.0
H1508 H 0.26104 0.47479 0.51744 0.0
C1509 C 0.20337 0.47338 0.53497 0.0
C1510 C 0.21194 0.44336 0.49606 0.0
C1511 C 0.18959 0.47519 0.5455 0.0
C1512 C 0.27565 0.44327 0.45732 0.0
C1513 C 0.26047 0.44135 0.46961 0.0
C1514 C 0.2474 0.46594 0.51125 0.0
C1515 C 0.20044 0.4564 0.52767 0.0
C1516 C 0.21528 0.45487 0.51593 0.0
C1517 C 0.25951 0.45663 0.47652 0.0
C1518 C 0.24412 0.45502 0.49084 0.0
H1519 H 0.15624 0.43121 0.54411 0.0
H1520 H 0.18054 0.42794 0.52602 0.0
H1521 H 0.23626 0.47446 0.5393 0.0
H1522 H 0.29938 0.48913 0.4534 0.0
H1523 H 0.27316 0.48577 0.47493 0.0
C1524 C 0.81436 0.288 0.96295 0.0
C1525 C 0.83083 0.28911 0.95705 0.0
C1526 C 0.80105 0.2731 0.97531 0.0
C1527 C 0.78359 0.22554 0.98877 0.0
H1528 H 0.76151 0.23539 0.04334 0.0
C1529 C 0.72653 0.1684 0.04563 0.0
C1530 C 0.71231 0.1712 0.05232 0.0
C1531 C 0.74233 0.18243 0.03547 0.0
C1532 C 0.76738 0.23236 0.02802 0.0
H1533 H 0.84603 0.27515 0.9589 0.0
H1534 H 0.82245 0.24877 0.98028 0.0
H1535 H 0.78629 0.26025 0.02203 0.0
H1536 H 0.70353 0.19094 0.05365 0.0
H1537 H 0.73067 0.21509 0.03567 0.0
H1538 H 0.76425 0.19765 0.99424 0.0
C1539 C 0.82001 0.2596 0.9754 0.0
C1540 C 0.78164 0.24663 0.01587 0.0
C1541 C 0.83349 0.27469 0.96323 0.0
C1542 C 0.71426 0.18832 0.04886 0.0
C1543 C 0.72994 0.20226 0.03866 0.0
C1544 C 0.76915 0.21121 0.00081 0.0
C1545 C 0.80377 0.25882 0.9819 0.0
C1546 C 0.78969 0.24341 0.99586 0.0
C1547 C 0.74419 0.19954 0.03178 0.0
C1548 C 0.76063 0.21448 0.02031 0.0
H1549 H 0.81184 0.29884 0.95845 0.0
H1550 H 0.78858 0.27275 0.97977 0.0
H1551 H 0.78952 0.22269 0.97334 0.0
H1552 H 0.72543 0.15535 0.04807 0.0
H1553 H 0.75309 0.17989 0.03061 0.0
C1554 C 0.55773 0.83174 0.45883 0.0
C1555 C 0.54057 0.82889 0.4527 0.0
C1556 C 0.55953 0.8184 0.47109 0.0
C1557 C 0.5345 0.78029 0.51208 0.0
H1558 H 0.56641 0.76316 0.49102 0.0
C1559 C 0.52628 0.71359 0.54665 0.0
C1560 C 0.54155 0.71183 0.55016 0.0
C1561 C 0.52781 0.72908 0.5361 0.0
C1562 C 0.55766 0.76799 0.49743 0.0
H1563 H 0.51191 0.80966 0.45423 0.0
H1564 H 0.51506 0.78665 0.47569 0.0
H1565 H 0.56631 0.78808 0.46958 0.0
H1566 H 0.57052 0.72514 0.54563 0.0
H1567 H 0.57328 0.75248 0.52757 0.0
H1568 H 0.52586 0.76047 0.53993 0.0
C1569 C 0.52711 0.79917 0.47113 0.0
C1570 C 0.55758 0.78223 0.48508 0.0
C1571 C 0.52533 0.81234 0.45868 0.0
C1572 C 0.55849 0.72609 0.54316 0.0
C1573 C 0.56005 0.7417 0.53266 0.0
C1574 C 0.53471 0.76624 0.52453 0.0
C1575 C 0.54418 0.80211 0.47774 0.0
C1576 C 0.54568 0.78823 0.49196 0.0
C1577 C 0.54469 0.74335 0.5289 0.0
C1578 C 0.54596 0.75959 0.51705 0.0
H1579 H 0.56973 0.84435 0.45445 0.0
H1580 H 0.57286 0.82101 0.47598 0.0
H1581 H 0.52544 0.78488 0.51809 0.0
H1582 H 0.513 0.70283 0.55166 0.0
H1583 H 0.51562 0.72964 0.53308 0.0
C1584 C 0.37311 0.4387 0.10854 0.0
C1585 C 0.3618 0.43894 0.09035 0.0
C1586 C 0.37847 0.42579 0.10838 0.0
C1587 C 0.38693 0.3976 0.06734 0.0
H1588 H 0.39275 0.37752 0.1271 0.0
C1589 C 0.425 0.35734 0.07244 0.0
C1590 C 0.43811 0.36346 0.09076 0.0
C1591 C 0.41209 0.36283 0.07192 0.0
C1592 C 0.39118 0.38298 0.11024 0.0
H1593 H 0.34693 0.42547 0.05797 0.0
H1594 H 0.35651 0.40288 0.05762 0.0
H1595 H 0.37626 0.39386 0.12714 0.0
H1596 H 0.44748 0.37964 0.12335 0.0
H1597 H 0.42516 0.38908 0.12244 0.0
H1598 H 0.4025 0.38729 0.05065 0.0
C1599 C 0.36116 0.41276 0.072 0.0
C1600 C 0.38173 0.39233 0.11026 0.0
C1601 C 0.3556 0.42562 0.0723 0.0
C1602 C 0.43766 0.3747 0.10889 0.0
C1603 C 0.42473 0.38001 0.10851 0.0
C1604 C 0.39642 0.38822 0.06732 0.0
C1605 C 0.37279 0.41283 0.08995 0.0
C1606 C 0.38002 0.40027 0.08899 0.0
C1607 C 0.4119 0.37432 0.08992 0.0
C1608 C 0.39918 0.38135 0.08895 0.0
H1609 H 0.37811 0.44871 0.12276 0.0
H1610 H 0.38763 0.42639 0.1223 0.0
H1611 H 0.38592 0.40364 0.05068 0.0
H1612 H 0.42501 0.3487 0.05817 0.0
H1613 H 0.40233 0.35819 0.0574 0.0
C1614 C 0.06907 0.42772 0.57467 0.0
C1615 C 0.07763 0.44077 0.59282 0.0
C1616 C 0.0503 0.41631 0.57496 0.0
C1617 C 0.01015 0.41625 0.59845 0.0
H1618 H 0.98411 0.3654 0.58244 0.0
C1619 C 0.93471 0.37482 0.61497 0.0
C1620 C 0.92385 0.36356 0.59625 0.0
C1621 C 0.95334 0.38214 0.61447 0.0
C1622 C 0.99123 0.37963 0.58675 0.0
H1623 H 0.07337 0.45109 0.62644 0.0
H1624 H 0.04099 0.43115 0.62713 0.0
H1625 H 0.0172 0.38201 0.58172 0.0
H1626 H 0.92405 0.35039 0.56292 0.0
H1627 H 0.95685 0.36342 0.56196 0.0
H1628 H 0.98447 0.4141 0.60342 0.0
C1629 C 0.0486 0.43003 0.61229 0.0
C1630 C 0.01015 0.38913 0.58633 0.0
C1631 C 0.06721 0.44142 0.61194 0.0
C1632 C 0.93203 0.35902 0.57762 0.0
C1633 C 0.9508 0.36646 0.57708 0.0
C1634 C 0.9914 0.40684 0.59887 0.0
C1635 C 0.03983 0.41775 0.59344 0.0
C1636 C 0.0198 0.40749 0.5926 0.0
C1637 C 0.96168 0.37853 0.59517 0.0
C1638 C 0.98168 0.38836 0.59345 0.0
H1639 H 0.07673 0.42689 0.55968 0.0
H1640 H 0.04393 0.40697 0.56018 0.0
H1641 H 0.01713 0.4305 0.60267 0.0
H1642 H 0.92888 0.37839 0.62981 0.0
H1643 H 0.96128 0.39101 0.62901 0.0
C1644 C 0.561 0.93478 0.11089 0.0
C1645 C 0.5616 0.92334 0.09319 0.0
C1646 C 0.57377 0.95309 0.11117 0.0
C1647 C 0.60374 0.98995 0.07131 0.0
H1648 H 0.62089 0.01584 0.13174 0.0
C1649 C 0.64452 0.06814 0.07601 0.0
C1650 C 0.6378 0.07547 0.09306 0.0
C1651 C 0.63877 0.04968 0.0762 0.0
C1652 C 0.61624 0.00881 0.1147 0.0
H1653 H 0.57646 0.92221 0.06218 0.0
H1654 H 0.59883 0.95441 0.06265 0.0
H1655 H 0.60445 0.98299 0.13178 0.0
H1656 H 0.62027 0.06919 0.12419 0.0
H1657 H 0.61037 0.03728 0.1245 0.0
H1658 H 0.61502 0.01583 0.05435 0.0
C1659 C 0.58837 0.94908 0.07627 0.0
C1660 C 0.60683 0.99 0.11472 0.0
C1661 C 0.57562 0.93063 0.0761 0.0
C1662 C 0.62571 0.06404 0.11073 0.0
C1663 C 0.62012 0.04572 0.11104 0.0
C1664 C 0.61319 0.00881 0.07129 0.0
C1665 C 0.58747 0.96053 0.09371 0.0
C1666 C 0.59997 0.98034 0.09313 0.0
C1667 C 0.62638 0.03825 0.09362 0.0
C1668 C 0.61904 0.01844 0.09309 0.0
H1669 H 0.55044 0.92966 0.12438 0.0
H1670 H 0.57251 0.96155 0.12465 0.0
H1671 H 0.59854 0.98291 0.05438 0.0
H1672 H 0.65381 0.07654 0.06211 0.0
H1673 H 0.64389 0.04432 0.06261 0.0
C1674 C 0.6289 0.56277 0.61243 0.0
C1675 C 0.64042 0.56274 0.59439 0.0
C1676 C 0.62338 0.57556 0.61226 0.0
C1677 C 0.61541 0.6041 0.57093 0.0
H1678 H 0.60754 0.62284 0.63055 0.0
C1679 C 0.57754 0.6445 0.57406 0.0
C1680 C 0.56372 0.63806 0.59143 0.0
C1681 C 0.59037 0.63891 0.57441 0.0
C1682 C 0.60968 0.61775 0.61373 0.0
H1683 H 0.65557 0.57656 0.56233 0.0
H1684 H 0.64582 0.59898 0.56203 0.0
H1685 H 0.62421 0.60667 0.63125 0.0
H1686 H 0.55302 0.62125 0.62329 0.0
H1687 H 0.57527 0.61166 0.62391 0.0
H1688 H 0.60033 0.61469 0.55356 0.0
C1689 C 0.64105 0.58898 0.57626 0.0
C1690 C 0.61922 0.60848 0.61413 0.0
C1691 C 0.64673 0.57621 0.57654 0.0
C1692 C 0.56341 0.62644 0.60957 0.0
C1693 C 0.57628 0.62104 0.61006 0.0
C1694 C 0.60586 0.61341 0.57052 0.0
C1695 C 0.62915 0.58866 0.59399 0.0
C1696 C 0.6217 0.60104 0.59287 0.0
C1697 C 0.58979 0.627 0.59234 0.0
C1698 C 0.6024 0.61983 0.59205 0.0
H1699 H 0.62379 0.55264 0.6265 0.0
H1700 H 0.61401 0.57473 0.626 0.0
H1701 H 0.61698 0.59843 0.55425 0.0
H1702 H 0.57814 0.65342 0.5598 0.0
H1703 H 0.60067 0.64379 0.56057 0.0
C1704 C 0.93329 0.57382 0.07623 0.0
C1705 C 0.92459 0.56085 0.09443 0.0
C1706 C 0.95207 0.58516 0.07667 0.0
C1707 C 0.99193 0.5849 0.1005 0.0
H1708 H 0.0184 0.63583 0.08505 0.0
C1709 C 0.06749 0.62566 0.1172 0.0
C1710 C 0.07842 0.63727 0.0988 0.0
C1711 C 0.04886 0.61838 0.11668 0.0
C1712 C 0.01117 0.62158 0.08919 0.0
H1713 H 0.92862 0.55061 0.12828 0.0
H1714 H 0.96102 0.57039 0.12918 0.0
H1715 H 0.98532 0.61946 0.08397 0.0
H1716 H 0.07833 0.65103 0.06599 0.0
H1717 H 0.04557 0.63807 0.06496 0.0
H1718 H 0.01748 0.58677 0.10557 0.0
C1719 C 0.95351 0.57152 0.11422 0.0
C1720 C 0.99226 0.61222 0.08858 0.0
C1721 C 0.93489 0.56022 0.11374 0.0
C1722 C 0.0703 0.64214 0.08046 0.0
C1723 C 0.05154 0.63474 0.07988 0.0
C1724 C 0.01069 0.59418 0.10108 0.0
C1725 C 0.96241 0.58372 0.09533 0.0
C1726 C 0.98245 0.59383 0.09465 0.0
C1727 C 0.04058 0.62237 0.09765 0.0
C1728 C 0.02057 0.61268 0.09586 0.0
H1729 H 0.92573 0.57463 0.0611 0.0
H1730 H 0.95856 0.59444 0.06186 0.0
H1731 H 0.98482 0.57063 0.1046 0.0
H1732 H 0.07327 0.62181 0.1318 0.0
H1733 H 0.04087 0.60928 0.131 0.0
C1734 C 0.43971 0.06556 0.61035 0.0
C1735 C 0.43915 0.077 0.59261 0.0
C1736 C 0.42696 0.04724 0.61059 0.0
C1737 C 0.39721 0.01036 0.57062 0.0
H1738 H 0.37995 0.98445 0.63102 0.0
C1739 C 0.35671 0.93214 0.57538 0.0
C1740 C 0.36345 0.92488 0.5925 0.0
C1741 C 0.36238 0.95058 0.57551 0.0
C1742 C 0.38463 0.99148 0.61399 0.0
H1743 H 0.4244 0.07811 0.56148 0.0
H1744 H 0.40206 0.04589 0.56186 0.0
H1745 H 0.39626 0.01729 0.63105 0.0
H1746 H 0.38093 0.93126 0.6237 0.0
H1747 H 0.39069 0.96314 0.62392 0.0
H1748 H 0.38609 0.98449 0.55367 0.0
C1749 C 0.41247 0.05123 0.57556 0.0
C1750 C 0.39397 0.01029 0.61401 0.0
C1751 C 0.42519 0.06969 0.57543 0.0
C1752 C 0.37548 0.93635 0.61018 0.0
C1753 C 0.38099 0.95466 0.61044 0.0
C1754 C 0.38783 0.99149 0.5706 0.0
C1755 C 0.41333 0.03978 0.59304 0.0
C1756 C 0.40087 0.01996 0.59243 0.0
C1757 C 0.37471 0.96206 0.59296 0.0
C1758 C 0.38195 0.98186 0.59239 0.0
H1759 H 0.45022 0.07068 0.62391 0.0
H1760 H 0.42819 0.03878 0.6241 0.0
H1761 H 0.40245 0.0174 0.55371 0.0
H1762 H 0.34746 0.92369 0.56147 0.0
H1763 H 0.35724 0.95589 0.56187 0.0
C1764 C 0.57682 0.64492 0.92407 0.0
C1765 C 0.56285 0.63829 0.90692 0.0
C1766 C 0.58964 0.63932 0.92374 0.0
C1767 C 0.60848 0.6175 0.88482 0.0
H1768 H 0.61641 0.59919 0.94478 0.0
C1769 C 0.62793 0.56268 0.88761 0.0
C1770 C 0.63967 0.56303 0.9056 0.0
C1771 C 0.62232 0.5754 0.88744 0.0
C1772 C 0.61467 0.60457 0.92796 0.0
H1773 H 0.55185 0.62108 0.87546 0.0
H1774 H 0.57406 0.61144 0.87489 0.0
H1775 H 0.59977 0.61544 0.94511 0.0
H1776 H 0.65511 0.57744 0.93718 0.0
H1777 H 0.64521 0.59974 0.93688 0.0
H1778 H 0.62284 0.60613 0.86754 0.0
C1779 C 0.57522 0.621 0.88855 0.0
C1780 C 0.60512 0.61389 0.92815 0.0
C1781 C 0.56237 0.62644 0.889 0.0
C1782 C 0.64609 0.57679 0.92304 0.0
C1783 C 0.64034 0.5895 0.92297 0.0
C1784 C 0.61802 0.60822 0.88463 0.0
C1785 C 0.58887 0.62717 0.90607 0.0
C1786 C 0.60144 0.61995 0.90647 0.0
C1787 C 0.62823 0.58881 0.9053 0.0
C1788 C 0.62073 0.60115 0.90609 0.0
H1789 H 0.57757 0.65403 0.93815 0.0
H1790 H 0.60006 0.64437 0.93742 0.0
H1791 H 0.60618 0.62232 0.86787 0.0
H1792 H 0.62273 0.55232 0.87385 0.0
H1793 H 0.6128 0.5743 0.87376 0.0
C1794 C 0.93588 0.56225 0.38734 0.0
C1795 C 0.92427 0.56211 0.40536 0.0
C1796 C 0.95415 0.57515 0.38752 0.0
C1797 C 0.99053 0.60386 0.42887 0.0
H1798 H 0.01713 0.62302 0.36932 0.0
C1799 C 0.06874 0.64499 0.42608 0.0
C1800 C 0.07634 0.63887 0.40859 0.0
C1801 C 0.05028 0.6392 0.42566 0.0
C1802 C 0.0099 0.6178 0.38612 0.0
H1803 H 0.92279 0.57585 0.43741 0.0
H1804 H 0.95491 0.59845 0.43775 0.0
H1805 H 0.98428 0.60649 0.36857 0.0
H1806 H 0.07054 0.62239 0.37644 0.0
H1807 H 0.03862 0.61243 0.37572 0.0
H1808 H 0.01621 0.61467 0.44628 0.0
C1809 C 0.94975 0.58846 0.42351 0.0
C1810 C 0.99109 0.60833 0.38569 0.0
C1811 C 0.93134 0.57558 0.42322 0.0
C1812 C 0.06518 0.62736 0.39026 0.0
C1813 C 0.04685 0.62174 0.38971 0.0
C1814 C 0.0094 0.61336 0.4293 0.0
C1815 C 0.96139 0.58824 0.40579 0.0
C1816 C 0.98118 0.60076 0.40693 0.0
C1817 C 0.03911 0.62738 0.40756 0.0
C1818 C 0.01928 0.61994 0.4078 0.0
H1819 H 0.93093 0.55212 0.37326 0.0
H1820 H 0.96276 0.57441 0.37378 0.0
H1821 H 0.98332 0.5981 0.44553 0.0
H1822 H 0.07694 0.65383 0.44049 0.0
H1823 H 0.04471 0.64385 0.43959 0.0
C1824 C 0.42824 0.0693 0.92586 0.0
C1825 C 0.44118 0.07759 0.90752 0.0
C1826 C 0.41675 0.05054 0.92599 0.0
C1827 C 0.4165 0.01006 0.90355 0.0
H1828 H 0.36574 0.98422 0.92009 0.0
C1829 C 0.37519 0.93441 0.88905 0.0
C1830 C 0.36404 0.9238 0.90801 0.0
C1831 C 0.38241 0.95302 0.88902 0.0
C1832 C 0.37994 0.99128 0.91564 0.0
H1833 H 0.45121 0.07285 0.87398 0.0
H1834 H 0.43116 0.04048 0.87401 0.0
H1835 H 0.38234 0.01733 0.91996 0.0
H1836 H 0.35092 0.92439 0.94118 0.0
H1837 H 0.3638 0.95719 0.94123 0.0
H1838 H 0.41435 0.98432 0.89932 0.0
C1839 C 0.43017 0.0483 0.88868 0.0
C1840 C 0.38943 0.01021 0.91557 0.0
C1841 C 0.44163 0.0669 0.88861 0.0
C1842 C 0.35947 0.93219 0.92631 0.0
C1843 C 0.36682 0.95096 0.92633 0.0
C1844 C 0.40709 0.9913 0.90363 0.0
C1845 C 0.41801 0.0398 0.90774 0.0
C1846 C 0.40776 0.01978 0.9091 0.0
C1847 C 0.37882 0.96162 0.90803 0.0
C1848 C 0.38864 0.98164 0.90925 0.0
H1849 H 0.42756 0.07716 0.9407 0.0
H1850 H 0.40752 0.04438 0.94092 0.0
H1851 H 0.43072 0.01698 0.89919 0.0
H1852 H 0.37876 0.92839 0.87445 0.0
H1853 H 0.39121 0.96077 0.87431 0.0
C1854 C 0.37667 0.44241 0.387 0.0
C1855 C 0.36516 0.44153 0.40567 0.0
C1856 C 0.38401 0.43111 0.38703 0.0
C1857 C 0.38127 0.39013 0.4132 0.0
H1858 H 0.43226 0.41547 0.39793 0.0
C1859 C 0.42939 0.36021 0.42332 0.0
C1860 C 0.44227 0.36484 0.40488 0.0
C1861 C 0.41807 0.36766 0.42372 0.0
C1862 C 0.41798 0.40811 0.40199 0.0
H1863 H 0.35156 0.42735 0.43837 0.0
H1864 H 0.36463 0.40761 0.43853 0.0
H1865 H 0.41584 0.43172 0.39797 0.0
H1866 H 0.45239 0.37989 0.37152 0.0
H1867 H 0.43266 0.39255 0.3721 0.0
H1868 H 0.38366 0.36646 0.4173 0.0
C1869 C 0.36785 0.41704 0.42381 0.0
C1870 C 0.40855 0.41744 0.402 0.0
C1871 C 0.36038 0.42835 0.42372 0.0
C1872 C 0.44287 0.37624 0.38623 0.0
C1873 C 0.43159 0.38358 0.3866 0.0
C1874 C 0.39079 0.38073 0.41321 0.0
C1875 C 0.38017 0.4187 0.40582 0.0
C1876 C 0.39003 0.40854 0.40715 0.0
C1877 C 0.41943 0.37984 0.40568 0.0
C1878 C 0.40919 0.38959 0.40716 0.0
H1879 H 0.38043 0.45218 0.3726 0.0
H1880 H 0.39307 0.43241 0.37256 0.0
H1881 H 0.36701 0.38292 0.41729 0.0
H1882 H 0.42858 0.35145 0.43795 0.0
H1883 H 0.40882 0.36451 0.43866 0.0
C1884 C 0.07033 0.42611 0.92212 0.0
C1885 C 0.07729 0.43991 0.9047 0.0
C1886 C 0.05193 0.41322 0.92242 0.0
C1887 C 0.01042 0.39383 0.8851 0.0
H1888 H 0.9856 0.38634 0.9462 0.0
C1889 C 0.93611 0.37378 0.89111 0.0
C1890 C 0.92518 0.36212 0.90949 0.0
C1891 C 0.95447 0.37958 0.89021 0.0
C1892 C 0.99233 0.38796 0.92907 0.0
H1893 H 0.07043 0.4505 0.87339 0.0
H1894 H 0.0386 0.42814 0.87392 0.0
H1895 H 0.01848 0.40319 0.9451 0.0
H1896 H 0.925 0.34704 0.94103 0.0
H1897 H 0.95728 0.3573 0.93945 0.0
H1898 H 0.98431 0.37914 0.86895 0.0
C1899 C 0.04729 0.42719 0.88729 0.0
C1900 C 0.01118 0.39763 0.92844 0.0
C1901 C 0.06557 0.44011 0.88711 0.0
C1902 C 0.93302 0.356 0.92661 0.0
C1903 C 0.95152 0.36195 0.9258 0.0
C1904 C 0.99162 0.38417 0.88573 0.0
C1905 C 0.04019 0.41375 0.90514 0.0
C1906 C 0.02042 0.40114 0.90634 0.0
C1907 C 0.96247 0.37395 0.9077 0.0
C1908 C 0.98233 0.38161 0.90761 0.0
H1909 H 0.07896 0.42557 0.93596 0.0
H1910 H 0.04687 0.40296 0.93631 0.0
H1911 H 0.01715 0.396 0.86785 0.0
H1912 H 0.93056 0.37875 0.87757 0.0
H1913 H 0.96252 0.38902 0.87622 0.0
C1914 C 0.55941 0.93395 0.38827 0.0
C1915 C 0.56015 0.92329 0.407 0.0
C1916 C 0.57077 0.95257 0.3883 0.0
C1917 C 0.6117 0.99074 0.41475 0.0
H1918 H 0.58655 0.01652 0.39924 0.0
C1919 C 0.64151 0.06869 0.42588 0.0
C1920 C 0.63685 0.07709 0.40769 0.0
C1921 C 0.63418 0.04993 0.42585 0.0
C1922 C 0.59387 0.00957 0.40335 0.0
H1923 H 0.57417 0.92381 0.43983 0.0
H1924 H 0.59403 0.9566 0.44001 0.0
H1925 H 0.57026 0.98386 0.39905 0.0
H1926 H 0.62197 0.07251 0.37426 0.0
H1927 H 0.60956 0.04013 0.37404 0.0
H1928 H 0.63537 0.01676 0.41916 0.0
C1929 C 0.58465 0.95041 0.42522 0.0
C1930 C 0.58451 0.99081 0.40323 0.0
C1931 C 0.57326 0.93164 0.42513 0.0
C1932 C 0.62562 0.06648 0.38878 0.0
C1933 C 0.61842 0.04788 0.3887 0.0
C1934 C 0.62114 0.00966 0.41488 0.0
C1935 C 0.58312 0.96111 0.40716 0.0
C1936 C 0.59333 0.98113 0.4085 0.0
C1937 C 0.62212 0.03928 0.4076 0.0
C1938 C 0.61235 0.01926 0.40876 0.0
H1939 H 0.54968 0.92796 0.3738 0.0
H1940 H 0.56957 0.96036 0.37377 0.0
H1941 H 0.61887 0.98366 0.41893 0.0
H1942 H 0.65012 0.07649 0.44071 0.0
H1943 H 0.63728 0.04369 0.44066 0.0
C1944 C 0.49903 0.6165 0.97572 0.0
C1945 C 0.49692 0.62718 0.95838 0.0
C1946 C 0.48389 0.60232 0.98679 0.0
C1947 C 0.43426 0.58318 0.99545 0.0
H1948 H 0.43536 0.53919 0.00705 0.0
C1949 C 0.37686 0.52282 0.04542 0.0
C1950 C 0.37365 0.50545 0.04043 0.0
C1951 C 0.39121 0.53778 0.0345 0.0
C1952 C 0.43467 0.55125 0.00358 0.0
H1953 H 0.4779 0.63305 0.94092 0.0
H1954 H 0.45146 0.60808 0.95934 0.0
H1955 H 0.4619 0.56537 0.99117 0.0
H1956 H 0.38133 0.48967 0.01823 0.0
H1957 H 0.40632 0.51579 0.99856 0.0
H1958 H 0.40675 0.56881 0.00656 0.0
C1959 C 0.46459 0.61033 0.96456 0.0
C1960 C 0.45009 0.56646 0.99491 0.0
C1961 C 0.47971 0.62449 0.95364 0.0
C1962 C 0.384 0.50306 0.02284 0.0
C1963 C 0.39836 0.51804 0.01177 0.0
C1964 C 0.41876 0.5679 0.00371 0.0
C1965 C 0.46641 0.59875 0.98086 0.0
C1966 C 0.45013 0.58268 0.9908 0.0
C1967 C 0.40246 0.53565 0.01795 0.0
C1968 C 0.41875 0.55172 0.00802 0.0
H1969 H 0.51232 0.61876 0.98014 0.0
H1970 H 0.48592 0.59408 0.9998 0.0
H1971 H 0.43375 0.59544 0.99285 0.0
H1972 H 0.36856 0.52487 0.05834 0.0
H1973 H 0.39387 0.55102 0.03992 0.0
C1974 C 0.85734 0.38 0.55265 0.0
C1975 C 0.87103 0.37599 0.54789 0.0
C1976 C 0.85752 0.39472 0.54149 0.0
C1977 C 0.86623 0.41956 0.4886 0.0
H1978 H 0.8797 0.46305 0.52523 0.0
C1979 C 0.85758 0.47756 0.45063 0.0
C1980 C 0.87167 0.49514 0.45485 0.0
C1981 C 0.85735 0.46294 0.46214 0.0
C1982 C 0.87601 0.45107 0.51468 0.0
H1983 H 0.89472 0.38305 0.52635 0.0
H1984 H 0.89479 0.40869 0.50629 0.0
H1985 H 0.87985 0.43753 0.5446 0.0
H1986 H 0.89593 0.51156 0.47537 0.0
H1987 H 0.89585 0.48601 0.49525 0.0
H1988 H 0.86201 0.43277 0.45873 0.0
C1989 C 0.88434 0.4008 0.51929 0.0
C1990 C 0.87597 0.43644 0.52588 0.0
C1991 C 0.8843 0.38623 0.53072 0.0
C1992 C 0.88511 0.49803 0.47158 0.0
C1993 C 0.88496 0.48341 0.48302 0.0
C1994 C 0.86601 0.43408 0.47745 0.0
C1995 C 0.87105 0.40522 0.5248 0.0
C1996 C 0.87114 0.42064 0.51291 0.0
C1997 C 0.87113 0.46567 0.47833 0.0
C1998 C 0.87105 0.45008 0.49029 0.0
H1999 H 0.84652 0.37174 0.56498 0.0
H2000 H 0.84702 0.39781 0.54571 0.0
H2001 H 0.8624 0.40742 0.47832 0.0
H2002 H 0.84673 0.47512 0.4384 0.0
H2003 H 0.84629 0.44952 0.45848 0.0
C2004 C 0.38403 0.88141 0.97737 0.0
C2005 C 0.37332 0.86848 0.96019 0.0
C2006 C 0.39823 0.88054 0.98853 0.0
C2007 C 0.41771 0.85029 0.99729 0.0
H2008 H 0.46145 0.89566 0.00878 0.0
C2009 C 0.47855 0.85391 0.04677 0.0
C2010 C 0.49582 0.86833 0.04198 0.0
C2011 C 0.46349 0.85309 0.03587 0.0
C2012 C 0.44947 0.88283 0.00532 0.0
H2013 H 0.36737 0.84341 0.94319 0.0
H2014 H 0.3924 0.84212 0.96171 0.0
H2015 H 0.4351 0.89569 0.99305 0.0
H2016 H 0.51136 0.89203 0.02008 0.0
H2017 H 0.48508 0.89053 1.00041 0.0
H2018 H 0.43236 0.83741 0.0082 0.0
C2019 C 0.39016 0.85304 0.96675 0.0
C2020 C 0.43415 0.88285 0.99675 0.0
C2021 C 0.37597 0.85389 0.95577 0.0
C2022 C 0.49804 0.8811 0.02455 0.0
C2023 C 0.48296 0.88027 0.01348 0.0
C2024 C 0.43312 0.85027 0.00542 0.0
C2025 C 0.40182 0.86661 0.98284 0.0
C2026 C 0.41801 0.86658 0.99269 0.0
C2027 C 0.46542 0.86652 0.01952 0.0
C2028 C 0.44922 0.86653 0.00969 0.0
H2029 H 0.3818 0.89248 0.98157 0.0
H2030 H 0.40648 0.89092 0.0014 0.0
H2031 H 0.40554 0.83745 0.99476 0.0
H2032 H 0.47665 0.84353 0.05954 0.0
H2033 H 0.45032 0.84232 0.04118 0.0
C2034 C 0.52531 0.38042 0.44704 0.0
C2035 C 0.50774 0.3768 0.45189 0.0
C2036 C 0.54007 0.39511 0.45791 0.0
C2037 C 0.55651 0.42035 0.51057 0.0
H2038 H 0.58718 0.46345 0.47358 0.0
C2039 C 0.62297 0.47836 0.54893 0.0
C2040 C 0.62639 0.49591 0.54463 0.0
C2041 C 0.60874 0.46371 0.53727 0.0
C2042 C 0.57871 0.45156 0.4842 0.0
H2043 H 0.49156 0.38451 0.47328 0.0
H2044 H 0.51749 0.41009 0.49282 0.0
H2045 H 0.56155 0.43787 0.45412 0.0
H2046 H 0.61861 0.51223 0.52377 0.0
H2047 H 0.59342 0.48659 0.50355 0.0
H2048 H 0.57376 0.43367 0.54055 0.0
C2049 C 0.51979 0.40193 0.47997 0.0
C2050 C 0.56415 0.43692 0.47298 0.0
C2051 C 0.50505 0.3874 0.46883 0.0
C2052 C 0.61594 0.49873 0.52764 0.0
C2053 C 0.60164 0.48407 0.51601 0.0
C2054 C 0.57125 0.43486 0.52172 0.0
C2055 C 0.53738 0.40596 0.47439 0.0
C2056 C 0.5529 0.42129 0.48613 0.0
C2057 C 0.59779 0.46636 0.5208 0.0
C2058 C 0.58241 0.45073 0.50875 0.0
H2059 H 0.5276 0.37188 0.43488 0.0
H2060 H 0.55356 0.39789 0.45367 0.0
H2061 H 0.54799 0.40834 0.52098 0.0
H2062 H 0.63133 0.47599 0.56134 0.0
H2063 H 0.6064 0.45031 0.54102 0.0
C2064 C 0.11623 0.50347 0.97115 0.0
C2065 C 0.12995 0.50632 0.95496 0.0
C2066 C 0.1164 0.51809 0.98262 0.0
C2067 C 0.13699 0.56788 0.97833 0.0
H2068 H 0.11959 0.56312 0.0439 0.0
C2069 C 0.11752 0.61509 0.03219 0.0
C2070 C 0.13108 0.62543 0.04895 0.0
C2071 C 0.11737 0.60054 0.02052 0.0
C2072 C 0.12448 0.56458 0.02563 0.0
H2073 H 0.1554 0.52621 0.93955 0.0
H2074 H 0.15602 0.55179 0.95991 0.0
H2075 H 0.11982 0.53765 0.02462 0.0
H2076 H 0.15595 0.62987 0.06513 0.0
H2077 H 0.15538 0.60396 0.04525 0.0
H2078 H 0.14174 0.59497 0.97974 0.0
C2079 C 0.14468 0.53844 0.96303 0.0
C2080 C 0.12447 0.54997 0.01443 0.0
C2081 C 0.14437 0.52383 0.95139 0.0
C2082 C 0.14495 0.62157 0.05304 0.0
C2083 C 0.14473 0.60694 0.04155 0.0
C2084 C 0.13687 0.58244 0.98953 0.0
C2085 C 0.13059 0.53579 0.9786 0.0
C2086 C 0.13069 0.55141 0.99059 0.0
C2087 C 0.1309 0.59631 0.02531 0.0
C2088 C 0.13067 0.58087 0.01328 0.0
H2089 H 0.10514 0.48998 0.97442 0.0
H2090 H 0.10524 0.51551 0.99429 0.0
H2091 H 0.14189 0.56955 0.96 0.0
H2092 H 0.10694 0.61814 0.02836 0.0
H2093 H 0.10668 0.59253 0.00788 0.0
C2094 C 0.52213 0.14669 0.54616 0.0
C2095 C 0.50486 0.13229 0.54133 0.0
C2096 C 0.53718 0.14758 0.53514 0.0
C2097 C 0.55118 0.11797 0.50427 0.0
H2098 H 0.59518 0.16336 0.4941 0.0
C2099 C 0.61672 0.11943 0.47683 0.0
C2100 C 0.62752 0.13241 0.45974 0.0
C2101 C 0.60248 0.12028 0.48787 0.0
C2102 C 0.58298 0.15053 0.49652 0.0
H2103 H 0.4893 0.1087 0.51924 0.0
H2104 H 0.51557 0.11033 0.49935 0.0
H2105 H 0.56831 0.16338 0.50745 0.0
H2106 H 0.63356 0.15752 0.44279 0.0
H2107 H 0.60845 0.15878 0.4611 0.0
H2108 H 0.56558 0.10513 0.492 0.0
C2109 C 0.5177 0.12052 0.51254 0.0
C2110 C 0.56755 0.15053 0.50459 0.0
C2111 C 0.50263 0.11961 0.52373 0.0
C2112 C 0.6249 0.14701 0.4553 0.0
C2113 C 0.61066 0.14785 0.46616 0.0
C2114 C 0.56653 0.11797 0.49577 0.0
C2115 C 0.53524 0.13424 0.51862 0.0
C2116 C 0.55144 0.13426 0.50874 0.0
C2117 C 0.59892 0.13424 0.48214 0.0
C2118 C 0.58269 0.13425 0.49187 0.0
H2119 H 0.52404 0.15699 0.55908 0.0
H2120 H 0.55035 0.15832 0.54049 0.0
H2121 H 0.53919 0.10513 0.50761 0.0
H2122 H 0.61893 0.10835 0.48104 0.0
H2123 H 0.59416 0.10987 0.50066 0.0
C2124 C 0.50367 0.38777 0.02922 0.0
C2125 C 0.5061 0.37771 0.0473 0.0
C2126 C 0.51859 0.4023 0.01836 0.0
C2127 C 0.56286 0.43788 0.02718 0.0
H2128 H 0.57369 0.4345 0.96019 0.0
C2129 C 0.61554 0.49964 0.97314 0.0
C2130 C 0.62616 0.4968 0.95647 0.0
C2131 C 0.60113 0.485 0.98467 0.0
C2132 C 0.57084 0.43574 0.97885 0.0
H2133 H 0.52577 0.37374 0.06665 0.0
H2134 H 0.55197 0.39977 0.04836 0.0
H2135 H 0.54754 0.40925 0.9792 0.0
H2136 H 0.6313 0.47686 0.94028 0.0
H2137 H 0.60622 0.45121 0.96043 0.0
H2138 H 0.58591 0.46442 0.02695 0.0
C2139 C 0.53854 0.39658 0.043 0.0
C2140 C 0.55587 0.42127 0.98968 0.0
C2141 C 0.52362 0.38187 0.05358 0.0
C2142 C 0.62282 0.47925 0.95244 0.0
C2143 C 0.60849 0.46461 0.964 0.0
C2144 C 0.57763 0.45251 0.01624 0.0
C2145 C 0.5361 0.4069 0.02537 0.0
C2146 C 0.55182 0.42224 0.01393 0.0
C2147 C 0.59735 0.46728 0.98009 0.0
C2148 C 0.58178 0.45165 0.99189 0.0
H2149 H 0.49025 0.38447 0.02367 0.0
H2150 H 0.51647 0.41004 0.0046 0.0
H2151 H 0.55993 0.43887 0.0459 0.0
H2152 H 0.61812 0.51314 0.9768 0.0
H2153 H 0.59276 0.48754 0.99682 0.0
C2154 C 0.14565 0.62467 0.45423 0.0
C2155 C 0.13112 0.62729 0.45921 0.0
C2156 C 0.14658 0.61034 0.46466 0.0
C2157 C 0.11718 0.56617 0.49463 0.0
H2158 H 0.16284 0.56821 0.50501 0.0
C2159 C 0.14704 0.52229 0.54394 0.0
C2160 C 0.13249 0.50498 0.53978 0.0
C2161 C 0.1477 0.53724 0.53292 0.0
C2162 C 0.14992 0.56737 0.50255 0.0
H2163 H 0.10727 0.61857 0.48101 0.0
H2164 H 0.10897 0.59366 0.49992 0.0
H2165 H 0.16251 0.59492 0.49177 0.0
H2166 H 0.10834 0.48923 0.51877 0.0
H2167 H 0.10955 0.51528 0.49884 0.0
H2168 H 0.1046 0.53894 0.50688 0.0
C2169 C 0.11923 0.60204 0.487 0.0
C2170 C 0.14973 0.58272 0.49451 0.0
C2171 C 0.11829 0.61636 0.47637 0.0
C2172 C 0.11938 0.50259 0.52279 0.0
C2173 C 0.12005 0.51755 0.51157 0.0
C2174 C 0.11737 0.55092 0.50316 0.0
C2175 C 0.13315 0.59853 0.48079 0.0
C2176 C 0.13336 0.58235 0.49032 0.0
C2177 C 0.13395 0.53515 0.51704 0.0
C2178 C 0.13375 0.55126 0.50718 0.0
H2179 H 0.15608 0.63344 0.44169 0.0
H2180 H 0.15747 0.60817 0.45922 0.0
H2181 H 0.10427 0.56515 0.49121 0.0
H2182 H 0.15767 0.52431 0.55635 0.0
H2183 H 0.1586 0.55045 0.5378 0.0
C2184 C 0.61725 0.11836 0.0242 0.0
C2185 C 0.62778 0.13101 0.04177 0.0
C2186 C 0.60315 0.11938 0.01302 0.0
C2187 C 0.58371 0.14973 0.00499 0.0
H2188 H 0.54009 0.10454 0.99222 0.0
C2189 C 0.52327 0.14683 0.95531 0.0
C2190 C 0.50597 0.13232 0.95967 0.0
C2191 C 0.53825 0.14751 0.96626 0.0
C2192 C 0.55203 0.11732 0.99604 0.0
H2193 H 0.6335 0.15577 0.05951 0.0
H2194 H 0.60862 0.15732 0.04095 0.0
H2195 H 0.5663 0.10427 0.00802 0.0
H2196 H 0.49027 0.10828 0.9809 0.0
H2197 H 0.51639 0.10953 0.00069 0.0
H2198 H 0.56915 0.16277 0.99439 0.0
C2199 C 0.61094 0.14651 0.0356 0.0
C2200 C 0.56728 0.11717 0.00464 0.0
C2201 C 0.62504 0.14549 0.04661 0.0
C2202 C 0.50362 0.11929 0.97675 0.0
C2203 C 0.51861 0.11998 0.98788 0.0
C2204 C 0.56837 0.14988 0.99683 0.0
C2205 C 0.59947 0.1332 0.01909 0.0
C2206 C 0.58338 0.13338 0.00917 0.0
C2207 C 0.53619 0.13383 0.98225 0.0
C2208 C 0.55232 0.13368 0.9921 0.0
H2209 H 0.61956 0.10738 0.0197 0.0
H2210 H 0.59503 0.10922 0.99983 0.0
H2211 H 0.59586 0.16253 0.0079 0.0
H2212 H 0.52526 0.15739 0.94281 0.0
H2213 H 0.55145 0.15837 0.96128 0.0
C2214 C 0.49974 0.61688 0.52267 0.0
C2215 C 0.49767 0.6274 0.54031 0.0
C2216 C 0.48457 0.60275 0.51159 0.0
C2217 C 0.43472 0.58322 0.50398 0.0
H2218 H 0.43634 0.53969 0.49076 0.0
C2219 C 0.37701 0.5228 0.45441 0.0
C2220 C 0.37435 0.50552 0.45848 0.0
C2221 C 0.39131 0.53777 0.4654 0.0
C2222 C 0.43549 0.5516 0.49471 0.0
H2223 H 0.47867 0.63307 0.55826 0.0
H2224 H 0.45219 0.60815 0.53988 0.0
H2225 H 0.46285 0.5659 0.50651 0.0
H2226 H 0.38292 0.48981 0.47929 0.0
H2227 H 0.40778 0.5159 0.49913 0.0
H2228 H 0.40707 0.56863 0.49358 0.0
C2229 C 0.46531 0.61049 0.5344 0.0
C2230 C 0.45091 0.56685 0.50328 0.0
C2231 C 0.48046 0.62462 0.54531 0.0
C2232 C 0.38516 0.50316 0.47535 0.0
C2233 C 0.39946 0.51813 0.48651 0.0
C2234 C 0.41922 0.56787 0.49586 0.0
C2235 C 0.46709 0.59903 0.51782 0.0
C2236 C 0.45078 0.58292 0.50796 0.0
C2237 C 0.40307 0.53571 0.48113 0.0
C2238 C 0.41938 0.55185 0.49096 0.0
H2239 H 0.51302 0.61922 0.51804 0.0
H2240 H 0.48658 0.59464 0.49834 0.0
H2241 H 0.43406 0.59535 0.507 0.0
H2242 H 0.36834 0.52479 0.44211 0.0
H2243 H 0.39355 0.55096 0.46061 0.0
C2244 C 0.85619 0.37616 0.95661 0.0
C2245 C 0.87079 0.37358 0.9613 0.0
C2246 C 0.85535 0.39051 0.96712 0.0
C2247 C 0.88503 0.43475 0.99681 0.0
H2248 H 0.83947 0.43288 0.00746 0.0
C2249 C 0.85543 0.47899 0.04585 0.0
C2250 C 0.87 0.49626 0.04154 0.0
C2251 C 0.85474 0.46397 0.03503 0.0
C2252 C 0.85236 0.43367 0.00494 0.0
H2253 H 0.89483 0.38238 0.9827 0.0
H2254 H 0.89327 0.40729 0.00177 0.0
H2255 H 0.83966 0.40609 0.99432 0.0
H2256 H 0.89415 0.51187 0.02048 0.0
H2257 H 0.89287 0.48569 0.00086 0.0
H2258 H 0.89772 0.46201 0.00898 0.0
C2259 C 0.8829 0.39889 0.98899 0.0
C2260 C 0.85247 0.41827 0.99694 0.0
C2261 C 0.88377 0.38456 0.97827 0.0
C2262 C 0.8831 0.49853 0.02461 0.0
C2263 C 0.88239 0.48351 0.01358 0.0
C2264 C 0.88492 0.45004 0.00534 0.0
C2265 C 0.86893 0.40237 0.98304 0.0
C2266 C 0.86881 0.41859 0.99262 0.0
C2267 C 0.86846 0.46595 0.01918 0.0
C2268 C 0.86858 0.44976 0.00943 0.0
H2269 H 0.84565 0.36735 0.94424 0.0
H2270 H 0.84441 0.39265 0.96188 0.0
H2271 H 0.89791 0.43574 0.99328 0.0
H2272 H 0.84481 0.47706 0.0582 0.0
H2273 H 0.84383 0.4508 0.04002 0.0
C2274 C 0.47856 0.85385 0.45532 0.0
C2275 C 0.49582 0.86847 0.45953 0.0
C2276 C 0.46355 0.85313 0.46624 0.0
C2277 C 0.44956 0.88331 0.49564 0.0
H2278 H 0.40588 0.83803 0.50781 0.0
C2279 C 0.38422 0.88204 0.5238 0.0
C2280 C 0.37375 0.86942 0.54144 0.0
C2281 C 0.39835 0.88105 0.51263 0.0
C2282 C 0.41799 0.85084 0.50482 0.0
H2283 H 0.51144 0.89268 0.48049 0.0
H2284 H 0.48527 0.89136 0.50022 0.0
H2285 H 0.43265 0.83788 0.49436 0.0
H2286 H 0.36814 0.84473 0.55929 0.0
H2287 H 0.39306 0.84325 0.54075 0.0
H2288 H 0.43519 0.89628 0.50749 0.0
C2289 C 0.48309 0.88085 0.48754 0.0
C2290 C 0.43336 0.85075 0.49669 0.0
C2291 C 0.49811 0.88158 0.47645 0.0
C2292 C 0.37656 0.85499 0.54634 0.0
C2293 C 0.39068 0.85402 0.53535 0.0
C2294 C 0.43428 0.8834 0.50422 0.0
C2295 C 0.46554 0.86688 0.48205 0.0
C2296 C 0.44936 0.86698 0.49184 0.0
C2297 C 0.4021 0.8673 0.51878 0.0
C2298 C 0.41823 0.86717 0.50887 0.0
H2299 H 0.47662 0.84323 0.44297 0.0
H2300 H 0.45037 0.84217 0.46136 0.0
H2301 H 0.46145 0.8961 0.49173 0.0
H2302 H 0.38186 0.89297 0.51924 0.0
H2303 H 0.40642 0.89119 0.49939 0.0
loop_
_geom_bond_atom_site_label_1
_geom_bond_atom_site_label_2
_geom_bond_distance
_geom_bond_site_symmetry_2
_ccdc_geom_bond_type
Mn0 O5 2.095 . S
Mn0 O15 2.162 . S
Mn0 O16 2.297 . S
Mn0 O24 2.385 . S
Mn0 O25 2.209 . S
Mn0 O26 2.094 . S
Mn1 O6 2.121 . S
Mn1 N8 2.257 . S
Mn1 N17 2.282 . S
Mn1 O25 2.215 . S
Mn1 O27 2.117 . S
C2 O24 1.234 . S
C2 O25 1.283 . S
C3 O15 1.281 . S
C3 O16 1.236 . S
C4 O26 1.240 . S
C4 O27 1.264 . S
O5 Mn0 2.095 . S
O5 C14 1.250 . S
O6 Mn1 2.121 . S
O6 C14 1.258 . S
C7 N8 1.326 . S
C7 C11 1.460 . S
C7 H13 0.929 . S
N8 Mn1 2.257 . S
N8 C7 1.326 . S
N8 C12 1.362 . S
C9 C10 1.258 . S
C9 C12 1.431 . S
C9 C29 1.449 . S
C10 C9 1.258 . S
C10 C11 1.477 . S
C10 H30 0.931 . S
C11 C7 1.460 . S
C11 C10 1.477 . S
C11 H31 0.930 . S
C12 N8 1.362 . S
C12 C9 1.431 . S
C12 C22 1.476 . S
H13 C7 0.929 . S
C14 O5 1.250 . S
C14 O6 1.258 . S
O15 Mn0 2.162 . S
O15 C3 1.281 . S
O16 Mn0 2.297 . S
O16 C3 1.236 . S
N17 Mn1 2.282 . S
N17 C18 1.328 . S
N17 C22 1.318 . S
C18 N17 1.328 . S
C18 C19 1.457 . S
C18 H23 0.929 . S
C19 C18 1.457 . S
C19 C20 1.291 . S
C19 H32 0.931 . S
C20 C19 1.291 . S
C20 C21 1.373 . S
C20 H33 0.929 . S
C21 C20 1.373 . S
C21 C22 1.396 . S
C21 C28 1.403 . S
C22 C12 1.476 . S
C22 N17 1.318 . S
C22 C21 1.396 . S
H23 C18 0.929 . S
O24 Mn0 2.385 . S
O24 C2 1.234 . S
O25 Mn0 2.209 . S
O25 Mn1 2.215 . S
O25 C2 1.283 . S
O26 Mn0 2.094 . S
O26 C4 1.240 . S
O27 Mn1 2.117 . S
O27 C4 1.264 . S
C28 C21 1.403 . S
C28 C29 1.399 . S
C28 H34 0.929 . S
C29 C9 1.449 . S
C29 C28 1.399 . S
C29 H35 0.930 . S
H30 C10 0.931 . S
H31 C11 0.930 . S
H32 C19 0.931 . S
H33 C20 0.929 . S
H34 C28 0.929 . S
H35 C29 0.930 . S
Mn36 O41 2.095 . S
Mn36 O51 2.162 . S
Mn36 O52 2.297 . S
Mn36 O60 2.385 . S
Mn36 O61 2.209 . S
Mn36 O62 2.094 . S
Mn37 O42 2.121 . S
Mn37 N44 2.257 . S
Mn37 N53 2.282 . S
Mn37 O61 2.215 . S
Mn37 O63 2.117 . S
C38 O60 1.234 . S
C38 O61 1.283 . S
C39 O51 1.281 . S
C39 O52 1.236 . S
C40 O62 1.240 . S
C40 O63 1.264 . S
O41 Mn36 2.095 . S
O41 C50 1.250 . S
O42 Mn37 2.121 . S
O42 C50 1.258 . S
C43 N44 1.326 . S
C43 C47 1.460 . S
C43 H49 0.929 . S
N44 Mn37 2.257 . S
N44 C43 1.326 . S
N44 C48 1.362 . S
C45 C46 1.258 . S
C45 C48 1.431 . S
C45 C65 1.449 . S
C46 C45 1.258 . S
C46 C47 1.477 . S
C46 H66 0.931 . S
C47 C43 1.460 . S
C47 C46 1.477 . S
C47 H67 0.930 . S
C48 N44 1.362 . S
C48 C45 1.431 . S
C48 C58 1.476 . S
H49 C43 0.929 . S
C50 O41 1.250 . S
C50 O42 1.258 . S
O51 Mn36 2.162 . S
O51 C39 1.281 . S
O52 Mn36 2.297 . S
O52 C39 1.236 . S
N53 Mn37 2.282 . S
N53 C54 1.328 . S
N53 C58 1.318 . S
C54 N53 1.328 . S
C54 C55 1.457 . S
C54 H59 0.929 . S
C55 C54 1.457 . S
C55 C56 1.291 . S
C55 H68 0.931 . S
C56 C55 1.291 . S
C56 C57 1.373 . S
C56 H69 0.929 . S
C57 C56 1.373 . S
C57 C58 1.396 . S
C57 C64 1.403 . S
C58 C48 1.476 . S
C58 N53 1.318 . S
C58 C57 1.396 . S
H59 C54 0.929 . S
O60 Mn36 2.385 . S
O60 C38 1.234 . S
O61 Mn36 2.209 . S
O61 Mn37 2.215 . S
O61 C38 1.283 . S
O62 Mn36 2.094 . S
O62 C40 1.240 . S
O63 Mn37 2.117 . S
O63 C40 1.264 . S
C64 C57 1.403 . S
C64 C65 1.399 . S
C64 H70 0.929 . S
C65 C45 1.449 . S
C65 C64 1.399 . S
C65 H71 0.930 . S
H66 C46 0.931 . S
H67 C47 0.930 . S
H68 C55 0.931 . S
H69 C56 0.929 . S
H70 C64 0.929 . S
H71 C65 0.930 . S
Mn72 O77 2.095 . S
Mn72 O87 2.162 . S
Mn72 O88 2.297 . S
Mn72 O96 2.385 . S
Mn72 O97 2.209 . S
Mn72 O98 2.094 . S
Mn73 O78 2.121 . S
Mn73 N80 2.257 . S
Mn73 N89 2.282 . S
Mn73 O97 2.215 . S
Mn73 O99 2.117 . S
C74 O96 1.234 . S
C74 O97 1.283 . S
C75 O87 1.281 . S
C75 O88 1.236 . S
C76 O98 1.240 . S
C76 O99 1.264 . S
O77 Mn72 2.095 . S
O77 C86 1.250 . S
O78 Mn73 2.121 . S
O78 C86 1.258 . S
C79 N80 1.326 . S
C79 C83 1.460 . S
C79 H85 0.929 . S
N80 Mn73 2.257 . S
N80 C79 1.326 . S
N80 C84 1.362 . S
C81 C82 1.258 . S
C81 C84 1.431 . S
C81 C101 1.449 . S
C82 C81 1.258 . S
C82 C83 1.477 . S
C82 H102 0.931 . S
C83 C79 1.460 . S
C83 C82 1.477 . S
C83 H103 0.930 . S
C84 N80 1.362 . S
C84 C81 1.431 . S
C84 C94 1.476 . S
H85 C79 0.929 . S
C86 O77 1.250 . S
C86 O78 1.258 . S
O87 Mn72 2.162 . S
O87 C75 1.281 . S
O88 Mn72 2.297 . S
O88 C75 1.236 . S
N89 Mn73 2.282 . S
N89 C90 1.328 . S
N89 C94 1.318 . S
C90 N89 1.328 . S
C90 C91 1.457 . S
C90 H95 0.929 . S
C91 C90 1.457 . S
C91 C92 1.291 . S
C91 H104 0.931 . S
C92 C91 1.291 . S
C92 C93 1.373 . S
C92 H105 0.929 . S
C93 C92 1.373 . S
C93 C94 1.396 . S
C93 C100 1.403 . S
C94 C84 1.476 . S
C94 N89 1.318 . S
C94 C93 1.396 . S
H95 C90 0.929 . S
O96 Mn72 2.385 . S
O96 C74 1.234 . S
O97 Mn72 2.209 . S
O97 Mn73 2.215 . S
O97 C74 1.283 . S
O98 Mn72 2.094 . S
O98 C76 1.240 . S
O99 Mn73 2.117 . S
O99 C76 1.264 . S
C100 C93 1.403 . S
C100 C101 1.399 . S
C100 H106 0.929 . S
C101 C81 1.449 . S
C101 C100 1.399 . S
C101 H107 0.930 . S
H102 C82 0.931 . S
H103 C83 0.930 . S
H104 C91 0.931 . S
H105 C92 0.929 . S
H106 C100 0.929 . S
H107 C101 0.930 . S
Mn108 O113 2.095 . S
Mn108 O123 2.162 . S
Mn108 O124 2.297 . S
Mn108 O132 2.385 . S
Mn108 O133 2.209 . S
Mn108 O134 2.094 . S
Mn109 O114 2.121 . S
Mn109 N116 2.257 . S
Mn109 N125 2.282 . S
Mn109 O133 2.215 . S
Mn109 O135 2.117 . S
C110 O132 1.234 . S
C110 O133 1.283 . S
C111 O123 1.281 . S
C111 O124 1.236 . S
C112 O134 1.240 . S
C112 O135 1.264 . S
O113 Mn108 2.095 . S
O113 C122 1.250 . S
O114 Mn109 2.121 . S
O114 C122 1.258 . S
C115 N116 1.326 . S
C115 C119 1.460 . S
C115 H121 0.929 . S
N116 Mn109 2.257 . S
N116 C115 1.326 . S
N116 C120 1.362 . S
C117 C118 1.258 . S
C117 C120 1.431 . S
C117 C137 1.449 . S
C118 C117 1.258 . S
C118 C119 1.477 . S
C118 H138 0.931 . S
C119 C115 1.460 . S
C119 C118 1.477 . S
C119 H139 0.930 . S
C120 N116 1.362 . S
C120 C117 1.431 . S
C120 C130 1.476 . S
H121 C115 0.929 . S
C122 O113 1.250 . S
C122 O114 1.258 . S
O123 Mn108 2.162 . S
O123 C111 1.281 . S
O124 Mn108 2.297 . S
O124 C111 1.236 . S
N125 Mn109 2.282 . S
N125 C126 1.328 . S
N125 C130 1.318 . S
C126 N125 1.328 . S
C126 C127 1.457 . S
C126 H131 0.929 . S
C127 C126 1.457 . S
C127 C128 1.291 . S
C127 H140 0.931 . S
C128 C127 1.291 . S
C128 C129 1.373 . S
C128 H141 0.929 . S
C129 C128 1.373 . S
C129 C130 1.396 . S
C129 C136 1.403 . S
C130 C120 1.476 . S
C130 N125 1.318 . S
C130 C129 1.396 . S
H131 C126 0.929 . S
O132 Mn108 2.385 . S
O132 C110 1.234 . S
O133 Mn108 2.209 . S
O133 Mn109 2.215 . S
O133 C110 1.283 . S
O134 Mn108 2.094 . S
O134 C112 1.240 . S
O135 Mn109 2.117 . S
O135 C112 1.264 . S
C136 C129 1.403 . S
C136 C137 1.399 . S
C136 H142 0.929 . S
C137 C117 1.449 . S
C137 C136 1.399 . S
C137 H143 0.930 . S
H138 C118 0.931 . S
H139 C119 0.930 . S
H140 C127 0.931 . S
H141 C128 0.929 . S
H142 C136 0.929 . S
H143 C137 0.930 . S
Mn144 O149 2.095 . S
Mn144 O159 2.162 . S
Mn144 O160 2.297 . S
Mn144 O168 2.385 . S
Mn144 O169 2.209 . S
Mn144 O170 2.094 . S
Mn145 O150 2.121 . S
Mn145 N152 2.257 . S
Mn145 N161 2.282 . S
Mn145 O169 2.215 . S
Mn145 O171 2.117 . S
C146 O168 1.234 . S
C146 O169 1.283 . S
C147 O159 1.281 . S
C147 O160 1.236 . S
C148 O170 1.240 . S
C148 O171 1.264 . S
O149 Mn144 2.095 . S
O149 C158 1.250 . S
O150 Mn145 2.121 . S
O150 C158 1.258 . S
C151 N152 1.326 . S
C151 C155 1.460 . S
C151 H157 0.929 . S
N152 Mn145 2.257 . S
N152 C151 1.326 . S
N152 C156 1.362 . S
C153 C154 1.258 . S
C153 C156 1.431 . S
C153 C173 1.449 . S
C154 C153 1.258 . S
C154 C155 1.477 . S
C154 H174 0.931 . S
C155 C151 1.460 . S
C155 C154 1.477 . S
C155 H175 0.930 . S
C156 N152 1.362 . S
C156 C153 1.431 . S
C156 C166 1.476 . S
H157 C151 0.929 . S
C158 O149 1.250 . S
C158 O150 1.258 . S
O159 Mn144 2.162 . S
O159 C147 1.281 . S
O160 Mn144 2.297 . S
O160 C147 1.236 . S
N161 Mn145 2.282 . S
N161 C162 1.328 . S
N161 C166 1.318 . S
C162 N161 1.328 . S
C162 C163 1.457 . S
C162 H167 0.929 . S
C163 C162 1.457 . S
C163 C164 1.291 . S
C163 H176 0.931 . S
C164 C163 1.291 . S
C164 C165 1.373 . S
C164 H177 0.929 . S
C165 C164 1.373 . S
C165 C166 1.396 . S
C165 C172 1.403 . S
C166 C156 1.476 . S
C166 N161 1.318 . S
C166 C165 1.396 . S
H167 C162 0.929 . S
O168 Mn144 2.385 . S
O168 C146 1.234 . S
O169 Mn144 2.209 . S
O169 Mn145 2.215 . S
O169 C146 1.283 . S
O170 Mn144 2.094 . S
O170 C148 1.240 . S
O171 Mn145 2.117 . S
O171 C148 1.264 . S
C172 C165 1.403 . S
C172 C173 1.399 . S
C172 H178 0.929 . S
C173 C153 1.449 . S
C173 C172 1.399 . S
C173 H179 0.930 . S
H174 C154 0.931 . S
H175 C155 0.930 . S
H176 C163 0.931 . S
H177 C164 0.929 . S
H178 C172 0.929 . S
H179 C173 0.930 . S
Mn180 O185 2.095 . S
Mn180 O195 2.162 . S
Mn180 O196 2.297 . S
Mn180 O204 2.385 . S
Mn180 O205 2.209 . S
Mn180 O206 2.094 . S
Mn181 O186 2.121 . S
Mn181 N188 2.257 . S
Mn181 N197 2.282 . S
Mn181 O205 2.215 . S
Mn181 O207 2.117 . S
C182 O204 1.234 . S
C182 O205 1.283 . S
C183 O195 1.281 . S
C183 O196 1.236 . S
C184 O206 1.240 . S
C184 O207 1.264 . S
O185 Mn180 2.095 . S
O185 C194 1.250 . S
O186 Mn181 2.121 . S
O186 C194 1.258 . S
C187 N188 1.326 . S
C187 C191 1.460 . S
C187 H193 0.929 . S
N188 Mn181 2.257 . S
N188 C187 1.326 . S
N188 C192 1.362 . S
C189 C190 1.258 . S
C189 C192 1.431 . S
C189 C209 1.449 . S
C190 C189 1.258 . S
C190 C191 1.477 . S
C190 H210 0.931 . S
C191 C187 1.460 . S
C191 C190 1.477 . S
C191 H211 0.930 . S
C192 N188 1.362 . S
C192 C189 1.431 . S
C192 C202 1.476 . S
H193 C187 0.929 . S
C194 O185 1.250 . S
C194 O186 1.258 . S
O195 Mn180 2.162 . S
O195 C183 1.281 . S
O196 Mn180 2.297 . S
O196 C183 1.236 . S
N197 Mn181 2.282 . S
N197 C198 1.328 . S
N197 C202 1.318 . S
C198 N197 1.328 . S
C198 C199 1.457 . S
C198 H203 0.929 . S
C199 C198 1.457 . S
C199 C200 1.291 . S
C199 H212 0.931 . S
C200 C199 1.291 . S
C200 C201 1.373 . S
C200 H213 0.929 . S
C201 C200 1.373 . S
C201 C202 1.396 . S
C201 C208 1.403 . S
C202 C192 1.476 . S
C202 N197 1.318 . S
C202 C201 1.396 . S
H203 C198 0.929 . S
O204 Mn180 2.385 . S
O204 C182 1.234 . S
O205 Mn180 2.209 . S
O205 Mn181 2.215 . S
O205 C182 1.283 . S
O206 Mn180 2.094 . S
O206 C184 1.240 . S
O207 Mn181 2.117 . S
O207 C184 1.264 . S
C208 C201 1.403 . S
C208 C209 1.399 . S
C208 H214 0.929 . S
C209 C189 1.449 . S
C209 C208 1.399 . S
C209 H215 0.930 . S
H210 C190 0.931 . S
H211 C191 0.930 . S
H212 C199 0.931 . S
H213 C200 0.929 . S
H214 C208 0.929 . S
H215 C209 0.930 . S
Mn216 O221 2.095 . S
Mn216 O231 2.162 . S
Mn216 O232 2.297 . S
Mn216 O240 2.385 . S
Mn216 O241 2.209 . S
Mn216 O242 2.094 . S
Mn217 O222 2.121 . S
Mn217 N224 2.257 . S
Mn217 N233 2.282 . S
Mn217 O241 2.215 . S
Mn217 O243 2.117 . S
C218 O240 1.234 . S
C218 O241 1.283 . S
C219 O231 1.281 . S
C219 O232 1.236 . S
C220 O242 1.240 . S
C220 O243 1.264 . S
O221 Mn216 2.095 . S
O221 C230 1.250 . S
O222 Mn217 2.121 . S
O222 C230 1.258 . S
C223 N224 1.326 . S
C223 C227 1.460 . S
C223 H229 0.929 . S
N224 Mn217 2.257 . S
N224 C223 1.326 . S
N224 C228 1.362 . S
C225 C226 1.258 . S
C225 C228 1.431 . S
C225 C245 1.449 . S
C226 C225 1.258 . S
C226 C227 1.477 . S
C226 H246 0.931 . S
C227 C223 1.460 . S
C227 C226 1.477 . S
C227 H247 0.930 . S
C228 N224 1.362 . S
C228 C225 1.431 . S
C228 C238 1.476 . S
H229 C223 0.929 . S
C230 O221 1.250 . S
C230 O222 1.258 . S
O231 Mn216 2.162 . S
O231 C219 1.281 . S
O232 Mn216 2.297 . S
O232 C219 1.236 . S
N233 Mn217 2.282 . S
N233 C234 1.328 . S
N233 C238 1.318 . S
C234 N233 1.328 . S
C234 C235 1.457 . S
C234 H239 0.929 . S
C235 C234 1.457 . S
C235 C236 1.291 . S
C235 H248 0.931 . S
C236 C235 1.291 . S
C236 C237 1.373 . S
C236 H249 0.929 . S
C237 C236 1.373 . S
C237 C238 1.396 . S
C237 C244 1.403 . S
C238 C228 1.476 . S
C238 N233 1.318 . S
C238 C237 1.396 . S
H239 C234 0.929 . S
O240 Mn216 2.385 . S
O240 C218 1.234 . S
O241 Mn216 2.209 . S
O241 Mn217 2.215 . S
O241 C218 1.283 . S
O242 Mn216 2.094 . S
O242 C220 1.240 . S
O243 Mn217 2.117 . S
O243 C220 1.264 . S
C244 C237 1.403 . S
C244 C245 1.399 . S
C244 H250 0.929 . S
C245 C225 1.449 . S
C245 C244 1.399 . S
C245 H251 0.930 . S
H246 C226 0.931 . S
H247 C227 0.930 . S
H248 C235 0.931 . S
H249 C236 0.929 . S
H250 C244 0.929 . S
H251 C245 0.930 . S
Mn252 O257 2.095 . S
Mn252 O267 2.162 . S
Mn252 O268 2.297 . S
Mn252 O276 2.385 . S
Mn252 O277 2.209 . S
Mn252 O278 2.094 . S
Mn253 O258 2.121 . S
Mn253 N260 2.257 . S
Mn253 N269 2.282 . S
Mn253 O277 2.215 . S
Mn253 O279 2.117 . S
C254 O276 1.234 . S
C254 O277 1.283 . S
C255 O267 1.281 . S
C255 O268 1.236 . S
C256 O278 1.240 . S
C256 O279 1.264 . S
O257 Mn252 2.095 . S
O257 C266 1.250 . S
O258 Mn253 2.121 . S
O258 C266 1.258 . S
C259 N260 1.326 . S
C259 C263 1.460 . S
C259 H265 0.929 . S
N260 Mn253 2.257 . S
N260 C259 1.326 . S
N260 C264 1.362 . S
C261 C262 1.258 . S
C261 C264 1.431 . S
C261 C281 1.449 . S
C262 C261 1.258 . S
C262 C263 1.477 . S
C262 H282 0.931 . S
C263 C259 1.460 . S
C263 C262 1.477 . S
C263 H283 0.930 . S
C264 N260 1.362 . S
C264 C261 1.431 . S
C264 C274 1.476 . S
H265 C259 0.929 . S
C266 O257 1.250 . S
C266 O258 1.258 . S
O267 Mn252 2.162 . S
O267 C255 1.281 . S
O268 Mn252 2.297 . S
O268 C255 1.236 . S
N269 Mn253 2.282 . S
N269 C270 1.328 . S
N269 C274 1.318 . S
C270 N269 1.328 . S
C270 C271 1.457 . S
C270 H275 0.929 . S
C271 C270 1.457 . S
C271 C272 1.291 . S
C271 H284 0.931 . S
C272 C271 1.291 . S
C272 C273 1.373 . S
C272 H285 0.929 . S
C273 C272 1.373 . S
C273 C274 1.396 . S
C273 C280 1.403 . S
C274 C264 1.476 . S
C274 N269 1.318 . S
C274 C273 1.396 . S
H275 C270 0.929 . S
O276 Mn252 2.385 . S
O276 C254 1.234 . S
O277 Mn252 2.209 . S
O277 Mn253 2.215 . S
O277 C254 1.283 . S
O278 Mn252 2.094 . S
O278 C256 1.240 . S
O279 Mn253 2.117 . S
O279 C256 1.264 . S
C280 C273 1.403 . S
C280 C281 1.399 . S
C280 H286 0.929 . S
C281 C261 1.449 . S
C281 C280 1.399 . S
C281 H287 0.930 . S
H282 C262 0.931 . S
H283 C263 0.930 . S
H284 C271 0.931 . S
H285 C272 0.929 . S
H286 C280 0.929 . S
H287 C281 0.930 . S
Mn288 O293 2.095 . S
Mn288 O303 2.162 . S
Mn288 O304 2.297 . S
Mn288 O312 2.385 . S
Mn288 O313 2.209 . S
Mn288 O314 2.094 . S
Mn289 O294 2.121 . S
Mn289 N296 2.257 . S
Mn289 N305 2.282 . S
Mn289 O313 2.215 . S
Mn289 O315 2.117 . S
C290 O312 1.234 . S
C290 O313 1.283 . S
C291 O303 1.281 . S
C291 O304 1.236 . S
C292 O314 1.240 . S
C292 O315 1.264 . S
O293 Mn288 2.095 . S
O293 C302 1.250 . S
O294 Mn289 2.121 . S
O294 C302 1.258 . S
C295 N296 1.326 . S
C295 C299 1.460 . S
C295 H301 0.929 . S
N296 Mn289 2.257 . S
N296 C295 1.326 . S
N296 C300 1.362 . S
C297 C298 1.258 . S
C297 C300 1.431 . S
C297 C317 1.449 . S
C298 C297 1.258 . S
C298 C299 1.477 . S
C298 H318 0.931 . S
C299 C295 1.460 . S
C299 C298 1.477 . S
C299 H319 0.930 . S
C300 N296 1.362 . S
C300 C297 1.431 . S
C300 C310 1.476 . S
H301 C295 0.929 . S
C302 O293 1.250 . S
C302 O294 1.258 . S
O303 Mn288 2.162 . S
O303 C291 1.281 . S
O304 Mn288 2.297 . S
O304 C291 1.236 . S
N305 Mn289 2.282 . S
N305 C306 1.328 . S
N305 C310 1.318 . S
C306 N305 1.328 . S
C306 C307 1.457 . S
C306 H311 0.929 . S
C307 C306 1.457 . S
C307 C308 1.291 . S
C307 H320 0.931 . S
C308 C307 1.291 . S
C308 C309 1.373 . S
C308 H321 0.929 . S
C309 C308 1.373 . S
C309 C310 1.396 . S
C309 C316 1.403 . S
C310 C300 1.476 . S
C310 N305 1.318 . S
C310 C309 1.396 . S
H311 C306 0.929 . S
O312 Mn288 2.385 . S
O312 C290 1.234 . S
O313 Mn288 2.209 . S
O313 Mn289 2.215 . S
O313 C290 1.283 . S
O314 Mn288 2.094 . S
O314 C292 1.240 . S
O315 Mn289 2.117 . S
O315 C292 1.264 . S
C316 C309 1.403 . S
C316 C317 1.399 . S
C316 H322 0.929 . S
C317 C297 1.449 . S
C317 C316 1.399 . S
C317 H323 0.930 . S
H318 C298 0.931 . S
H319 C299 0.930 . S
H320 C307 0.931 . S
H321 C308 0.929 . S
H322 C316 0.929 . S
H323 C317 0.930 . S
Mn324 O329 2.095 . S
Mn324 O339 2.162 . S
Mn324 O340 2.297 . S
Mn324 O348 2.385 . S
Mn324 O349 2.209 . S
Mn324 O350 2.094 . S
Mn325 O330 2.121 . S
Mn325 N332 2.257 . S
Mn325 N341 2.282 . S
Mn325 O349 2.215 . S
Mn325 O351 2.117 . S
C326 O348 1.234 . S
C326 O349 1.283 . S
C327 O339 1.281 . S
C327 O340 1.236 . S
C328 O350 1.240 . S
C328 O351 1.264 . S
O329 Mn324 2.095 . S
O329 C338 1.250 . S
O330 Mn325 2.121 . S
O330 C338 1.258 . S
C331 N332 1.326 . S
C331 C335 1.460 . S
C331 H337 0.929 . S
N332 Mn325 2.257 . S
N332 C331 1.326 . S
N332 C336 1.362 . S
C333 C334 1.258 . S
C333 C336 1.431 . S
C333 C353 1.449 . S
C334 C333 1.258 . S
C334 C335 1.477 . S
C334 H354 0.931 . S
C335 C331 1.460 . S
C335 C334 1.477 . S
C335 H355 0.930 . S
C336 N332 1.362 . S
C336 C333 1.431 . S
C336 C346 1.476 . S
H337 C331 0.929 . S
C338 O329 1.250 . S
C338 O330 1.258 . S
O339 Mn324 2.162 . S
O339 C327 1.281 . S
O340 Mn324 2.297 . S
O340 C327 1.236 . S
N341 Mn325 2.282 . S
N341 C342 1.328 . S
N341 C346 1.318 . S
C342 N341 1.328 . S
C342 C343 1.457 . S
C342 H347 0.929 . S
C343 C342 1.457 . S
C343 C344 1.291 . S
C343 H356 0.931 . S
C344 C343 1.291 . S
C344 C345 1.373 . S
C344 H357 0.929 . S
C345 C344 1.373 . S
C345 C346 1.396 . S
C345 C352 1.403 . S
C346 C336 1.476 . S
C346 N341 1.318 . S
C346 C345 1.396 . S
H347 C342 0.929 . S
O348 Mn324 2.385 . S
O348 C326 1.234 . S
O349 Mn324 2.209 . S
O349 Mn325 2.215 . S
O349 C326 1.283 . S
O350 Mn324 2.094 . S
O350 C328 1.240 . S
O351 Mn325 2.117 . S
O351 C328 1.264 . S
C352 C345 1.403 . S
C352 C353 1.399 . S
C352 H358 0.929 . S
C353 C333 1.449 . S
C353 C352 1.399 . S
C353 H359 0.930 . S
H354 C334 0.931 . S
H355 C335 0.930 . S
H356 C343 0.931 . S
H357 C344 0.929 . S
H358 C352 0.929 . S
H359 C353 0.930 . S
Mn360 O365 2.095 . S
Mn360 O375 2.162 . S
Mn360 O376 2.297 . S
Mn360 O384 2.385 . S
Mn360 O385 2.209 . S
Mn360 O386 2.094 . S
Mn361 O366 2.121 . S
Mn361 N368 2.257 . S
Mn361 N377 2.282 . S
Mn361 O385 2.215 . S
Mn361 O387 2.117 . S
C362 O384 1.234 . S
C362 O385 1.283 . S
C363 O375 1.281 . S
C363 O376 1.236 . S
C364 O386 1.240 . S
C364 O387 1.264 . S
O365 Mn360 2.095 . S
O365 C374 1.250 . S
O366 Mn361 2.121 . S
O366 C374 1.258 . S
C367 N368 1.326 . S
C367 C371 1.460 . S
C367 H373 0.929 . S
N368 Mn361 2.257 . S
N368 C367 1.326 . S
N368 C372 1.362 . S
C369 C370 1.258 . S
C369 C372 1.431 . S
C369 C389 1.449 . S
C370 C369 1.258 . S
C370 C371 1.477 . S
C370 H390 0.931 . S
C371 C367 1.460 . S
C371 C370 1.477 . S
C371 H391 0.930 . S
C372 N368 1.362 . S
C372 C369 1.431 . S
C372 C382 1.476 . S
H373 C367 0.929 . S
C374 O365 1.250 . S
C374 O366 1.258 . S
O375 Mn360 2.162 . S
O375 C363 1.281 . S
O376 Mn360 2.297 . S
O376 C363 1.236 . S
N377 Mn361 2.282 . S
N377 C378 1.328 . S
N377 C382 1.318 . S
C378 N377 1.328 . S
C378 C379 1.457 . S
C378 H383 0.929 . S
C379 C378 1.457 . S
C379 C380 1.291 . S
C379 H392 0.931 . S
C380 C379 1.291 . S
C380 C381 1.373 . S
C380 H393 0.929 . S
C381 C380 1.373 . S
C381 C382 1.396 . S
C381 C388 1.403 . S
C382 C372 1.476 . S
C382 N377 1.318 . S
C382 C381 1.396 . S
H383 C378 0.929 . S
O384 Mn360 2.385 . S
O384 C362 1.234 . S
O385 Mn360 2.209 . S
O385 Mn361 2.215 . S
O385 C362 1.283 . S
O386 Mn360 2.094 . S
O386 C364 1.240 . S
O387 Mn361 2.117 . S
O387 C364 1.264 . S
C388 C381 1.403 . S
C388 C389 1.399 . S
C388 H394 0.929 . S
C389 C369 1.449 . S
C389 C388 1.399 . S
C389 H395 0.930 . S
H390 C370 0.931 . S
H391 C371 0.930 . S
H392 C379 0.931 . S
H393 C380 0.929 . S
H394 C388 0.929 . S
H395 C389 0.930 . S
Mn396 O401 2.095 . S
Mn396 O411 2.162 . S
Mn396 O412 2.297 . S
Mn396 O420 2.385 . S
Mn396 O421 2.209 . S
Mn396 O422 2.094 . S
Mn397 O402 2.121 . S
Mn397 N404 2.257 . S
Mn397 N413 2.282 . S
Mn397 O421 2.215 . S
Mn397 O423 2.117 . S
C398 O420 1.234 . S
C398 O421 1.283 . S
C399 O411 1.281 . S
C399 O412 1.236 . S
C400 O422 1.240 . S
C400 O423 1.264 . S
O401 Mn396 2.095 . S
O401 C410 1.250 . S
O402 Mn397 2.121 . S
O402 C410 1.258 . S
C403 N404 1.326 . S
C403 C407 1.460 . S
C403 H409 0.929 . S
N404 Mn397 2.257 . S
N404 C403 1.326 . S
N404 C408 1.362 . S
C405 C406 1.258 . S
C405 C408 1.431 . S
C405 C425 1.449 . S
C406 C405 1.258 . S
C406 C407 1.477 . S
C406 H426 0.931 . S
C407 C403 1.460 . S
C407 C406 1.477 . S
C407 H427 0.930 . S
C408 N404 1.362 . S
C408 C405 1.431 . S
C408 C418 1.476 . S
H409 C403 0.929 . S
C410 O401 1.250 . S
C410 O402 1.258 . S
O411 Mn396 2.162 . S
O411 C399 1.281 . S
O412 Mn396 2.297 . S
O412 C399 1.236 . S
N413 Mn397 2.282 . S
N413 C414 1.328 . S
N413 C418 1.318 . S
C414 N413 1.328 . S
C414 C415 1.457 . S
C414 H419 0.929 . S
C415 C414 1.457 . S
C415 C416 1.291 . S
C415 H428 0.931 . S
C416 C415 1.291 . S
C416 C417 1.373 . S
C416 H429 0.929 . S
C417 C416 1.373 . S
C417 C418 1.396 . S
C417 C424 1.403 . S
C418 C408 1.476 . S
C418 N413 1.318 . S
C418 C417 1.396 . S
H419 C414 0.929 . S
O420 Mn396 2.385 . S
O420 C398 1.234 . S
O421 Mn396 2.209 . S
O421 Mn397 2.215 . S
O421 C398 1.283 . S
O422 Mn396 2.094 . S
O422 C400 1.240 . S
O423 Mn397 2.117 . S
O423 C400 1.264 . S
C424 C417 1.403 . S
C424 C425 1.399 . S
C424 H430 0.929 . S
C425 C405 1.449 . S
C425 C424 1.399 . S
C425 H431 0.930 . S
H426 C406 0.931 . S
H427 C407 0.930 . S
H428 C415 0.931 . S
H429 C416 0.929 . S
H430 C424 0.929 . S
H431 C425 0.930 . S
Mn432 O437 2.095 . S
Mn432 O447 2.162 . S
Mn432 O448 2.297 . S
Mn432 O456 2.385 . S
Mn432 O457 2.209 . S
Mn432 O458 2.094 . S
Mn433 O438 2.121 . S
Mn433 N440 2.257 . S
Mn433 N449 2.282 . S
Mn433 O457 2.215 . S
Mn433 O459 2.117 . S
C434 O456 1.234 . S
C434 O457 1.283 . S
C435 O447 1.281 . S
C435 O448 1.236 . S
C436 O458 1.240 . S
C436 O459 1.264 . S
O437 Mn432 2.095 . S
O437 C446 1.250 . S
O438 Mn433 2.121 . S
O438 C446 1.258 . S
C439 N440 1.326 . S
C439 C443 1.460 . S
C439 H445 0.929 . S
N440 Mn433 2.257 . S
N440 C439 1.326 . S
N440 C444 1.362 . S
C441 C442 1.258 . S
C441 C444 1.431 . S
C441 C461 1.449 . S
C442 C441 1.258 . S
C442 C443 1.477 . S
C442 H462 0.931 . S
C443 C439 1.460 . S
C443 C442 1.477 . S
C443 H463 0.930 . S
C444 N440 1.362 . S
C444 C441 1.431 . S
C444 C454 1.476 . S
H445 C439 0.929 . S
C446 O437 1.250 . S
C446 O438 1.258 . S
O447 Mn432 2.162 . S
O447 C435 1.281 . S
O448 Mn432 2.297 . S
O448 C435 1.236 . S
N449 Mn433 2.282 . S
N449 C450 1.328 . S
N449 C454 1.318 . S
C450 N449 1.328 . S
C450 C451 1.457 . S
C450 H455 0.929 . S
C451 C450 1.457 . S
C451 C452 1.291 . S
C451 H464 0.931 . S
C452 C451 1.291 . S
C452 C453 1.373 . S
C452 H465 0.929 . S
C453 C452 1.373 . S
C453 C454 1.396 . S
C453 C460 1.403 . S
C454 C444 1.476 . S
C454 N449 1.318 . S
C454 C453 1.396 . S
H455 C450 0.929 . S
O456 Mn432 2.385 . S
O456 C434 1.234 . S
O457 Mn432 2.209 . S
O457 Mn433 2.215 . S
O457 C434 1.283 . S
O458 Mn432 2.094 . S
O458 C436 1.240 . S
O459 Mn433 2.117 . S
O459 C436 1.264 . S
C460 C453 1.403 . S
C460 C461 1.399 . S
C460 H466 0.929 . S
C461 C441 1.449 . S
C461 C460 1.399 . S
C461 H467 0.930 . S
H462 C442 0.931 . S
H463 C443 0.930 . S
H464 C451 0.931 . S
H465 C452 0.929 . S
H466 C460 0.929 . S
H467 C461 0.930 . S
Mn468 O473 2.095 . S
Mn468 O483 2.162 . S
Mn468 O484 2.297 . S
Mn468 O492 2.385 . S
Mn468 O493 2.209 . S
Mn468 O494 2.094 . S
Mn469 O474 2.121 . S
Mn469 N476 2.257 . S
Mn469 N485 2.282 . S
Mn469 O493 2.215 . S
Mn469 O495 2.117 . S
C470 O492 1.234 . S
C470 O493 1.283 . S
C471 O483 1.281 . S
C471 O484 1.236 . S
C472 O494 1.240 . S
C472 O495 1.264 . S
O473 Mn468 2.095 . S
O473 C482 1.250 . S
O474 Mn469 2.121 . S
O474 C482 1.258 . S
C475 N476 1.326 . S
C475 C479 1.460 . S
C475 H481 0.929 . S
N476 Mn469 2.257 . S
N476 C475 1.326 . S
N476 C480 1.362 . S
C477 C478 1.258 . S
C477 C480 1.431 . S
C477 C497 1.449 . S
C478 C477 1.258 . S
C478 C479 1.477 . S
C478 H498 0.931 . S
C479 C475 1.460 . S
C479 C478 1.477 . S
C479 H499 0.930 . S
C480 N476 1.362 . S
C480 C477 1.431 . S
C480 C490 1.476 . S
H481 C475 0.929 . S
C482 O473 1.250 . S
C482 O474 1.258 . S
O483 Mn468 2.162 . S
O483 C471 1.281 . S
O484 Mn468 2.297 . S
O484 C471 1.236 . S
N485 Mn469 2.282 . S
N485 C486 1.328 . S
N485 C490 1.318 . S
C486 N485 1.328 . S
C486 C487 1.457 . S
C486 H491 0.929 . S
C487 C486 1.457 . S
C487 C488 1.291 . S
C487 H500 0.931 . S
C488 C487 1.291 . S
C488 C489 1.373 . S
C488 H501 0.929 . S
C489 C488 1.373 . S
C489 C490 1.396 . S
C489 C496 1.403 . S
C490 C480 1.476 . S
C490 N485 1.318 . S
C490 C489 1.396 . S
H491 C486 0.929 . S
O492 Mn468 2.385 . S
O492 C470 1.234 . S
O493 Mn468 2.209 . S
O493 Mn469 2.215 . S
O493 C470 1.283 . S
O494 Mn468 2.094 . S
O494 C472 1.240 . S
O495 Mn469 2.117 . S
O495 C472 1.264 . S
C496 C489 1.403 . S
C496 C497 1.399 . S
C496 H502 0.929 . S
C497 C477 1.449 . S
C497 C496 1.399 . S
C497 H503 0.930 . S
H498 C478 0.931 . S
H499 C479 0.930 . S
H500 C487 0.931 . S
H501 C488 0.929 . S
H502 C496 0.929 . S
H503 C497 0.930 . S
Mn504 O509 2.095 . S
Mn504 O519 2.162 . S
Mn504 O520 2.297 . S
Mn504 O528 2.385 . S
Mn504 O529 2.209 . S
Mn504 O530 2.094 . S
Mn505 O510 2.121 . S
Mn505 N512 2.257 . S
Mn505 N521 2.282 . S
Mn505 O529 2.215 . S
Mn505 O531 2.117 . S
C506 O528 1.234 . S
C506 O529 1.283 . S
C507 O519 1.281 . S
C507 O520 1.236 . S
C508 O530 1.240 . S
C508 O531 1.264 . S
O509 Mn504 2.095 . S
O509 C518 1.250 . S
O510 Mn505 2.121 . S
O510 C518 1.258 . S
C511 N512 1.326 . S
C511 C515 1.460 . S
C511 H517 0.929 . S
N512 Mn505 2.257 . S
N512 C511 1.326 . S
N512 C516 1.362 . S
C513 C514 1.258 . S
C513 C516 1.431 . S
C513 C533 1.449 . S
C514 C513 1.258 . S
C514 C515 1.477 . S
C514 H534 0.931 . S
C515 C511 1.460 . S
C515 C514 1.477 . S
C515 H535 0.930 . S
C516 N512 1.362 . S
C516 C513 1.431 . S
C516 C526 1.476 . S
H517 C511 0.929 . S
C518 O509 1.250 . S
C518 O510 1.258 . S
O519 Mn504 2.162 . S
O519 C507 1.281 . S
O520 Mn504 2.297 . S
O520 C507 1.236 . S
N521 Mn505 2.282 . S
N521 C522 1.328 . S
N521 C526 1.318 . S
C522 N521 1.328 . S
C522 C523 1.457 . S
C522 H527 0.929 . S
C523 C522 1.457 . S
C523 C524 1.291 . S
C523 H536 0.931 . S
C524 C523 1.291 . S
C524 C525 1.373 . S
C524 H537 0.929 . S
C525 C524 1.373 . S
C525 C526 1.396 . S
C525 C532 1.403 . S
C526 C516 1.476 . S
C526 N521 1.318 . S
C526 C525 1.396 . S
H527 C522 0.929 . S
O528 Mn504 2.385 . S
O528 C506 1.234 . S
O529 Mn504 2.209 . S
O529 Mn505 2.215 . S
O529 C506 1.283 . S
O530 Mn504 2.094 . S
O530 C508 1.240 . S
O531 Mn505 2.117 . S
O531 C508 1.264 . S
C532 C525 1.403 . S
C532 C533 1.399 . S
C532 H538 0.929 . S
C533 C513 1.449 . S
C533 C532 1.399 . S
C533 H539 0.930 . S
H534 C514 0.931 . S
H535 C515 0.930 . S
H536 C523 0.931 . S
H537 C524 0.929 . S
H538 C532 0.929 . S
H539 C533 0.930 . S
Mn540 O545 2.095 . S
Mn540 O555 2.162 . S
Mn540 O556 2.297 . S
Mn540 O564 2.385 . S
Mn540 O565 2.209 . S
Mn540 O566 2.094 . S
Mn541 O546 2.121 . S
Mn541 N548 2.257 . S
Mn541 N557 2.282 . S
Mn541 O565 2.215 . S
Mn541 O567 2.117 . S
C542 O564 1.234 . S
C542 O565 1.283 . S
C543 O555 1.281 . S
C543 O556 1.236 . S
C544 O566 1.240 . S
C544 O567 1.264 . S
O545 Mn540 2.095 . S
O545 C554 1.250 . S
O546 Mn541 2.121 . S
O546 C554 1.258 . S
C547 N548 1.326 . S
C547 C551 1.460 . S
C547 H553 0.929 . S
N548 Mn541 2.257 . S
N548 C547 1.326 . S
N548 C552 1.362 . S
C549 C550 1.258 . S
C549 C552 1.431 . S
C549 C569 1.449 . S
C550 C549 1.258 . S
C550 C551 1.477 . S
C550 H570 0.931 . S
C551 C547 1.460 . S
C551 C550 1.477 . S
C551 H571 0.930 . S
C552 N548 1.362 . S
C552 C549 1.431 . S
C552 C562 1.476 . S
H553 C547 0.929 . S
C554 O545 1.250 . S
C554 O546 1.258 . S
O555 Mn540 2.162 . S
O555 C543 1.281 . S
O556 Mn540 2.297 . S
O556 C543 1.236 . S
N557 Mn541 2.282 . S
N557 C558 1.328 . S
N557 C562 1.318 . S
C558 N557 1.328 . S
C558 C559 1.457 . S
C558 H563 0.929 . S
C559 C558 1.457 . S
C559 C560 1.291 . S
C559 H572 0.931 . S
C560 C559 1.291 . S
C560 C561 1.373 . S
C560 H573 0.929 . S
C561 C560 1.373 . S
C561 C562 1.396 . S
C561 C568 1.403 . S
C562 C552 1.476 . S
C562 N557 1.318 . S
C562 C561 1.396 . S
H563 C558 0.929 . S
O564 Mn540 2.385 . S
O564 C542 1.234 . S
O565 Mn540 2.209 . S
O565 Mn541 2.215 . S
O565 C542 1.283 . S
O566 Mn540 2.094 . S
O566 C544 1.240 . S
O567 Mn541 2.117 . S
O567 C544 1.264 . S
C568 C561 1.403 . S
C568 C569 1.399 . S
C568 H574 0.929 . S
C569 C549 1.449 . S
C569 C568 1.399 . S
C569 H575 0.930 . S
H570 C550 0.931 . S
H571 C551 0.930 . S
H572 C559 0.931 . S
H573 C560 0.929 . S
H574 C568 0.929 . S
H575 C569 0.930 . S
Mn576 O581 2.095 . S
Mn576 O591 2.162 . S
Mn576 O592 2.297 . S
Mn576 O600 2.385 . S
Mn576 O601 2.209 . S
Mn576 O602 2.094 . S
Mn577 O582 2.121 . S
Mn577 N584 2.257 . S
Mn577 N593 2.282 . S
Mn577 O601 2.215 . S
Mn577 O603 2.117 . S
C578 O600 1.234 . S
C578 O601 1.283 . S
C579 O591 1.281 . S
C579 O592 1.236 . S
C580 O602 1.240 . S
C580 O603 1.264 . S
O581 Mn576 2.095 . S
O581 C590 1.250 . S
O582 Mn577 2.121 . S
O582 C590 1.258 . S
C583 N584 1.326 . S
C583 C587 1.460 . S
C583 H589 0.929 . S
N584 Mn577 2.257 . S
N584 C583 1.326 . S
N584 C588 1.362 . S
C585 C586 1.258 . S
C585 C588 1.431 . S
C585 C605 1.449 . S
C586 C585 1.258 . S
C586 C587 1.477 . S
C586 H606 0.931 . S
C587 C583 1.460 . S
C587 C586 1.477 . S
C587 H607 0.930 . S
C588 N584 1.362 . S
C588 C585 1.431 . S
C588 C598 1.476 . S
H589 C583 0.929 . S
C590 O581 1.250 . S
C590 O582 1.258 . S
O591 Mn576 2.162 . S
O591 C579 1.281 . S
O592 Mn576 2.297 . S
O592 C579 1.236 . S
N593 Mn577 2.282 . S
N593 C594 1.328 . S
N593 C598 1.318 . S
C594 N593 1.328 . S
C594 C595 1.457 . S
C594 H599 0.929 . S
C595 C594 1.457 . S
C595 C596 1.291 . S
C595 H608 0.931 . S
C596 C595 1.291 . S
C596 C597 1.373 . S
C596 H609 0.929 . S
C597 C596 1.373 . S
C597 C598 1.396 . S
C597 C604 1.403 . S
C598 C588 1.476 . S
C598 N593 1.318 . S
C598 C597 1.396 . S
H599 C594 0.929 . S
O600 Mn576 2.385 . S
O600 C578 1.234 . S
O601 Mn576 2.209 . S
O601 Mn577 2.215 . S
O601 C578 1.283 . S
O602 Mn576 2.094 . S
O602 C580 1.240 . S
O603 Mn577 2.117 . S
O603 C580 1.264 . S
C604 C597 1.403 . S
C604 C605 1.399 . S
C604 H610 0.929 . S
C605 C585 1.449 . S
C605 C604 1.399 . S
C605 H611 0.930 . S
H606 C586 0.931 . S
H607 C587 0.930 . S
H608 C595 0.931 . S
H609 C596 0.929 . S
H610 C604 0.929 . S
H611 C605 0.930 . S
Mn612 O617 2.095 . S
Mn612 O627 2.162 . S
Mn612 O628 2.297 . S
Mn612 O636 2.385 . S
Mn612 O637 2.209 . S
Mn612 O638 2.094 . S
Mn613 O618 2.121 . S
Mn613 N620 2.257 . S
Mn613 N629 2.282 . S
Mn613 O637 2.215 . S
Mn613 O639 2.117 . S
C614 O636 1.234 . S
C614 O637 1.283 . S
C615 O627 1.281 . S
C615 O628 1.236 . S
C616 O638 1.240 . S
C616 O639 1.264 . S
O617 Mn612 2.095 . S
O617 C626 1.250 . S
O618 Mn613 2.121 . S
O618 C626 1.258 . S
C619 N620 1.326 . S
C619 C623 1.460 . S
C619 H625 0.929 . S
N620 Mn613 2.257 . S
N620 C619 1.326 . S
N620 C624 1.362 . S
C621 C622 1.258 . S
C621 C624 1.431 . S
C621 C641 1.449 . S
C622 C621 1.258 . S
C622 C623 1.477 . S
C622 H642 0.931 . S
C623 C619 1.460 . S
C623 C622 1.477 . S
C623 H643 0.930 . S
C624 N620 1.362 . S
C624 C621 1.431 . S
C624 C634 1.476 . S
H625 C619 0.929 . S
C626 O617 1.250 . S
C626 O618 1.258 . S
O627 Mn612 2.162 . S
O627 C615 1.281 . S
O628 Mn612 2.297 . S
O628 C615 1.236 . S
N629 Mn613 2.282 . S
N629 C630 1.328 . S
N629 C634 1.318 . S
C630 N629 1.328 . S
C630 C631 1.457 . S
C630 H635 0.929 . S
C631 C630 1.457 . S
C631 C632 1.291 . S
C631 H644 0.931 . S
C632 C631 1.291 . S
C632 C633 1.373 . S
C632 H645 0.929 . S
C633 C632 1.373 . S
C633 C634 1.396 . S
C633 C640 1.403 . S
C634 C624 1.476 . S
C634 N629 1.318 . S
C634 C633 1.396 . S
H635 C630 0.929 . S
O636 Mn612 2.385 . S
O636 C614 1.234 . S
O637 Mn612 2.209 . S
O637 Mn613 2.215 . S
O637 C614 1.283 . S
O638 Mn612 2.094 . S
O638 C616 1.240 . S
O639 Mn613 2.117 . S
O639 C616 1.264 . S
C640 C633 1.403 . S
C640 C641 1.399 . S
C640 H646 0.929 . S
C641 C621 1.449 . S
C641 C640 1.399 . S
C641 H647 0.930 . S
H642 C622 0.931 . S
H643 C623 0.930 . S
H644 C631 0.931 . S
H645 C632 0.929 . S
H646 C640 0.929 . S
H647 C641 0.930 . S
Mn648 O653 2.095 . S
Mn648 O663 2.162 . S
Mn648 O664 2.297 . S
Mn648 O672 2.385 . S
Mn648 O673 2.209 . S
Mn648 O674 2.094 . S
Mn649 O654 2.121 . S
Mn649 N656 2.257 . S
Mn649 N665 2.282 . S
Mn649 O673 2.215 . S
Mn649 O675 2.117 . S
C650 O672 1.234 . S
C650 O673 1.283 . S
C651 O663 1.281 . S
C651 O664 1.236 . S
C652 O674 1.240 . S
C652 O675 1.264 . S
O653 Mn648 2.095 . S
O653 C662 1.250 . S
O654 Mn649 2.121 . S
O654 C662 1.258 . S
C655 N656 1.326 . S
C655 C659 1.460 . S
C655 H661 0.929 . S
N656 Mn649 2.257 . S
N656 C655 1.326 . S
N656 C660 1.362 . S
C657 C658 1.258 . S
C657 C660 1.431 . S
C657 C677 1.449 . S
C658 C657 1.258 . S
C658 C659 1.477 . S
C658 H678 0.931 . S
C659 C655 1.460 . S
C659 C658 1.477 . S
C659 H679 0.930 . S
C660 N656 1.362 . S
C660 C657 1.431 . S
C660 C670 1.476 . S
H661 C655 0.929 . S
C662 O653 1.250 . S
C662 O654 1.258 . S
O663 Mn648 2.162 . S
O663 C651 1.281 . S
O664 Mn648 2.297 . S
O664 C651 1.236 . S
N665 Mn649 2.282 . S
N665 C666 1.328 . S
N665 C670 1.318 . S
C666 N665 1.328 . S
C666 C667 1.457 . S
C666 H671 0.929 . S
C667 C666 1.457 . S
C667 C668 1.291 . S
C667 H680 0.931 . S
C668 C667 1.291 . S
C668 C669 1.373 . S
C668 H681 0.929 . S
C669 C668 1.373 . S
C669 C670 1.396 . S
C669 C676 1.403 . S
C670 C660 1.476 . S
C670 N665 1.318 . S
C670 C669 1.396 . S
H671 C666 0.929 . S
O672 Mn648 2.385 . S
O672 C650 1.234 . S
O673 Mn648 2.209 . S
O673 Mn649 2.215 . S
O673 C650 1.283 . S
O674 Mn648 2.094 . S
O674 C652 1.240 . S
O675 Mn649 2.117 . S
O675 C652 1.264 . S
C676 C669 1.403 . S
C676 C677 1.399 . S
C676 H682 0.929 . S
C677 C657 1.449 . S
C677 C676 1.399 . S
C677 H683 0.930 . S
H678 C658 0.931 . S
H679 C659 0.930 . S
H680 C667 0.931 . S
H681 C668 0.929 . S
H682 C676 0.929 . S
H683 C677 0.930 . S
Mn684 O689 2.095 . S
Mn684 O699 2.162 . S
Mn684 O700 2.297 . S
Mn684 O708 2.385 . S
Mn684 O709 2.209 . S
Mn684 O710 2.094 . S
Mn685 O690 2.121 . S
Mn685 N692 2.257 . S
Mn685 N701 2.282 . S
Mn685 O709 2.215 . S
Mn685 O711 2.117 . S
C686 O708 1.234 . S
C686 O709 1.283 . S
C687 O699 1.281 . S
C687 O700 1.236 . S
C688 O710 1.240 . S
C688 O711 1.264 . S
O689 Mn684 2.095 . S
O689 C698 1.250 . S
O690 Mn685 2.121 . S
O690 C698 1.258 . S
C691 N692 1.326 . S
C691 C695 1.460 . S
C691 H697 0.929 . S
N692 Mn685 2.257 . S
N692 C691 1.326 . S
N692 C696 1.362 . S
C693 C694 1.258 . S
C693 C696 1.431 . S
C693 C713 1.449 . S
C694 C693 1.258 . S
C694 C695 1.477 . S
C694 H714 0.931 . S
C695 C691 1.460 . S
C695 C694 1.477 . S
C695 H715 0.930 . S
C696 N692 1.362 . S
C696 C693 1.431 . S
C696 C706 1.476 . S
H697 C691 0.929 . S
C698 O689 1.250 . S
C698 O690 1.258 . S
O699 Mn684 2.162 . S
O699 C687 1.281 . S
O700 Mn684 2.297 . S
O700 C687 1.236 . S
N701 Mn685 2.282 . S
N701 C702 1.328 . S
N701 C706 1.318 . S
C702 N701 1.328 . S
C702 C703 1.457 . S
C702 H707 0.929 . S
C703 C702 1.457 . S
C703 C704 1.291 . S
C703 H716 0.931 . S
C704 C703 1.291 . S
C704 C705 1.373 . S
C704 H717 0.929 . S
C705 C704 1.373 . S
C705 C706 1.396 . S
C705 C712 1.403 . S
C706 C696 1.476 . S
C706 N701 1.318 . S
C706 C705 1.396 . S
H707 C702 0.929 . S
O708 Mn684 2.385 . S
O708 C686 1.234 . S
O709 Mn684 2.209 . S
O709 Mn685 2.215 . S
O709 C686 1.283 . S
O710 Mn684 2.094 . S
O710 C688 1.240 . S
O711 Mn685 2.117 . S
O711 C688 1.264 . S
C712 C705 1.403 . S
C712 C713 1.399 . S
C712 H718 0.929 . S
C713 C693 1.449 . S
C713 C712 1.399 . S
C713 H719 0.930 . S
H714 C694 0.931 . S
H715 C695 0.930 . S
H716 C703 0.931 . S
H717 C704 0.929 . S
H718 C712 0.929 . S
H719 C713 0.930 . S
Mn720 O725 2.095 . S
Mn720 O735 2.162 . S
Mn720 O736 2.297 . S
Mn720 O744 2.385 . S
Mn720 O745 2.209 . S
Mn720 O746 2.094 . S
Mn721 O726 2.121 . S
Mn721 N728 2.257 . S
Mn721 N737 2.282 . S
Mn721 O745 2.215 . S
Mn721 O747 2.117 . S
C722 O744 1.234 . S
C722 O745 1.283 . S
C723 O735 1.281 . S
C723 O736 1.236 . S
C724 O746 1.240 . S
C724 O747 1.264 . S
O725 Mn720 2.095 . S
O725 C734 1.250 . S
O726 Mn721 2.121 . S
O726 C734 1.258 . S
C727 N728 1.326 . S
C727 C731 1.460 . S
C727 H733 0.929 . S
N728 Mn721 2.257 . S
N728 C727 1.326 . S
N728 C732 1.362 . S
C729 C730 1.258 . S
C729 C732 1.431 . S
C729 C749 1.449 . S
C730 C729 1.258 . S
C730 C731 1.477 . S
C730 H750 0.931 . S
C731 C727 1.460 . S
C731 C730 1.477 . S
C731 H751 0.930 . S
C732 N728 1.362 . S
C732 C729 1.431 . S
C732 C742 1.476 . S
H733 C727 0.929 . S
C734 O725 1.250 . S
C734 O726 1.258 . S
O735 Mn720 2.162 . S
O735 C723 1.281 . S
O736 Mn720 2.297 . S
O736 C723 1.236 . S
N737 Mn721 2.282 . S
N737 C738 1.328 . S
N737 C742 1.318 . S
C738 N737 1.328 . S
C738 C739 1.457 . S
C738 H743 0.929 . S
C739 C738 1.457 . S
C739 C740 1.291 . S
C739 H752 0.931 . S
C740 C739 1.291 . S
C740 C741 1.373 . S
C740 H753 0.929 . S
C741 C740 1.373 . S
C741 C742 1.396 . S
C741 C748 1.403 . S
C742 C732 1.476 . S
C742 N737 1.318 . S
C742 C741 1.396 . S
H743 C738 0.929 . S
O744 Mn720 2.385 . S
O744 C722 1.234 . S
O745 Mn720 2.209 . S
O745 Mn721 2.215 . S
O745 C722 1.283 . S
O746 Mn720 2.094 . S
O746 C724 1.240 . S
O747 Mn721 2.117 . S
O747 C724 1.264 . S
C748 C741 1.403 . S
C748 C749 1.399 . S
C748 H754 0.929 . S
C749 C729 1.449 . S
C749 C748 1.399 . S
C749 H755 0.930 . S
H750 C730 0.931 . S
H751 C731 0.930 . S
H752 C739 0.931 . S
H753 C740 0.929 . S
H754 C748 0.929 . S
H755 C749 0.930 . S
Mn756 O761 2.095 . S
Mn756 O771 2.162 . S
Mn756 O772 2.297 . S
Mn756 O780 2.385 . S
Mn756 O781 2.209 . S
Mn756 O782 2.094 . S
Mn757 O762 2.121 . S
Mn757 N764 2.257 . S
Mn757 N773 2.282 . S
Mn757 O781 2.215 . S
Mn757 O783 2.117 . S
C758 O780 1.234 . S
C758 O781 1.283 . S
C759 O771 1.281 . S
C759 O772 1.236 . S
C760 O782 1.240 . S
C760 O783 1.264 . S
O761 Mn756 2.095 . S
O761 C770 1.250 . S
O762 Mn757 2.121 . S
O762 C770 1.258 . S
C763 N764 1.326 . S
C763 C767 1.460 . S
C763 H769 0.929 . S
N764 Mn757 2.257 . S
N764 C763 1.326 . S
N764 C768 1.362 . S
C765 C766 1.258 . S
C765 C768 1.431 . S
C765 C785 1.449 . S
C766 C765 1.258 . S
C766 C767 1.477 . S
C766 H786 0.931 . S
C767 C763 1.460 . S
C767 C766 1.477 . S
C767 H787 0.930 . S
C768 N764 1.362 . S
C768 C765 1.431 . S
C768 C778 1.476 . S
H769 C763 0.929 . S
C770 O761 1.250 . S
C770 O762 1.258 . S
O771 Mn756 2.162 . S
O771 C759 1.281 . S
O772 Mn756 2.297 . S
O772 C759 1.236 . S
N773 Mn757 2.282 . S
N773 C774 1.328 . S
N773 C778 1.318 . S
C774 N773 1.328 . S
C774 C775 1.457 . S
C774 H779 0.929 . S
C775 C774 1.457 . S
C775 C776 1.291 . S
C775 H788 0.931 . S
C776 C775 1.291 . S
C776 C777 1.373 . S
C776 H789 0.929 . S
C777 C776 1.373 . S
C777 C778 1.396 . S
C777 C784 1.403 . S
C778 C768 1.476 . S
C778 N773 1.318 . S
C778 C777 1.396 . S
H779 C774 0.929 . S
O780 Mn756 2.385 . S
O780 C758 1.234 . S
O781 Mn756 2.209 . S
O781 Mn757 2.215 . S
O781 C758 1.283 . S
O782 Mn756 2.094 . S
O782 C760 1.240 . S
O783 Mn757 2.117 . S
O783 C760 1.264 . S
C784 C777 1.403 . S
C784 C785 1.399 . S
C784 H790 0.929 . S
C785 C765 1.449 . S
C785 C784 1.399 . S
C785 H791 0.930 . S
H786 C766 0.931 . S
H787 C767 0.930 . S
H788 C775 0.931 . S
H789 C776 0.929 . S
H790 C784 0.929 . S
H791 C785 0.930 . S
Mn792 O797 2.095 . S
Mn792 O807 2.162 . S
Mn792 O808 2.297 . S
Mn792 O816 2.385 . S
Mn792 O817 2.209 . S
Mn792 O818 2.094 . S
Mn793 O798 2.121 . S
Mn793 N800 2.257 . S
Mn793 N809 2.282 . S
Mn793 O817 2.215 . S
Mn793 O819 2.117 . S
C794 O816 1.234 . S
C794 O817 1.283 . S
C795 O807 1.281 . S
C795 O808 1.236 . S
C796 O818 1.240 . S
C796 O819 1.264 . S
O797 Mn792 2.095 . S
O797 C806 1.250 . S
O798 Mn793 2.121 . S
O798 C806 1.258 . S
C799 N800 1.326 . S
C799 C803 1.460 . S
C799 H805 0.929 . S
N800 Mn793 2.257 . S
N800 C799 1.326 . S
N800 C804 1.362 . S
C801 C802 1.258 . S
C801 C804 1.431 . S
C801 C821 1.449 . S
C802 C801 1.258 . S
C802 C803 1.477 . S
C802 H822 0.931 . S
C803 C799 1.460 . S
C803 C802 1.477 . S
C803 H823 0.930 . S
C804 N800 1.362 . S
C804 C801 1.431 . S
C804 C814 1.476 . S
H805 C799 0.929 . S
C806 O797 1.250 . S
C806 O798 1.258 . S
O807 Mn792 2.162 . S
O807 C795 1.281 . S
O808 Mn792 2.297 . S
O808 C795 1.236 . S
N809 Mn793 2.282 . S
N809 C810 1.328 . S
N809 C814 1.318 . S
C810 N809 1.328 . S
C810 C811 1.457 . S
C810 H815 0.929 . S
C811 C810 1.457 . S
C811 C812 1.291 . S
C811 H824 0.931 . S
C812 C811 1.291 . S
C812 C813 1.373 . S
C812 H825 0.929 . S
C813 C812 1.373 . S
C813 C814 1.396 . S
C813 C820 1.403 . S
C814 C804 1.476 . S
C814 N809 1.318 . S
C814 C813 1.396 . S
H815 C810 0.929 . S
O816 Mn792 2.385 . S
O816 C794 1.234 . S
O817 Mn792 2.209 . S
O817 Mn793 2.215 . S
O817 C794 1.283 . S
O818 Mn792 2.094 . S
O818 C796 1.240 . S
O819 Mn793 2.117 . S
O819 C796 1.264 . S
C820 C813 1.403 . S
C820 C821 1.399 . S
C820 H826 0.929 . S
C821 C801 1.449 . S
C821 C820 1.399 . S
C821 H827 0.930 . S
H822 C802 0.931 . S
H823 C803 0.930 . S
H824 C811 0.931 . S
H825 C812 0.929 . S
H826 C820 0.929 . S
H827 C821 0.930 . S
Mn828 O833 2.095 . S
Mn828 O843 2.162 . S
Mn828 O844 2.297 . S
Mn828 O852 2.385 . S
Mn828 O853 2.209 . S
Mn828 O854 2.094 . S
Mn829 O834 2.121 . S
Mn829 N836 2.257 . S
Mn829 N845 2.282 . S
Mn829 O853 2.215 . S
Mn829 O855 2.117 . S
C830 O852 1.234 . S
C830 O853 1.283 . S
C831 O843 1.281 . S
C831 O844 1.236 . S
C832 O854 1.240 . S
C832 O855 1.264 . S
O833 Mn828 2.095 . S
O833 C842 1.250 . S
O834 Mn829 2.121 . S
O834 C842 1.258 . S
C835 N836 1.326 . S
C835 C839 1.460 . S
C835 H841 0.929 . S
N836 Mn829 2.257 . S
N836 C835 1.326 . S
N836 C840 1.362 . S
C837 C838 1.258 . S
C837 C840 1.431 . S
C837 C857 1.449 . S
C838 C837 1.258 . S
C838 C839 1.477 . S
C838 H858 0.931 . S
C839 C835 1.460 . S
C839 C838 1.477 . S
C839 H859 0.930 . S
C840 N836 1.362 . S
C840 C837 1.431 . S
C840 C850 1.476 . S
H841 C835 0.929 . S
C842 O833 1.250 . S
C842 O834 1.258 . S
O843 Mn828 2.162 . S
O843 C831 1.281 . S
O844 Mn828 2.297 . S
O844 C831 1.236 . S
N845 Mn829 2.282 . S
N845 C846 1.328 . S
N845 C850 1.318 . S
C846 N845 1.328 . S
C846 C847 1.457 . S
C846 H851 0.929 . S
C847 C846 1.457 . S
C847 C848 1.291 . S
C847 H860 0.931 . S
C848 C847 1.291 . S
C848 C849 1.373 . S
C848 H861 0.929 . S
C849 C848 1.373 . S
C849 C850 1.396 . S
C849 C856 1.403 . S
C850 C840 1.476 . S
C850 N845 1.318 . S
C850 C849 1.396 . S
H851 C846 0.929 . S
O852 Mn828 2.385 . S
O852 C830 1.234 . S
O853 Mn828 2.209 . S
O853 Mn829 2.215 . S
O853 C830 1.283 . S
O854 Mn828 2.094 . S
O854 C832 1.240 . S
O855 Mn829 2.117 . S
O855 C832 1.264 . S
C856 C849 1.403 . S
C856 C857 1.399 . S
C856 H862 0.929 . S
C857 C837 1.449 . S
C857 C856 1.399 . S
C857 H863 0.930 . S
H858 C838 0.931 . S
H859 C839 0.930 . S
H860 C847 0.931 . S
H861 C848 0.929 . S
H862 C856 0.929 . S
H863 C857 0.930 . S
C864 C865 1.349 . S
C864 C866 1.327 . S
C864 H889 0.950 . S
C865 C864 1.349 . S
C865 C881 1.349 . S
C866 C864 1.327 . S
C866 C885 1.429 . S
C866 H890 0.950 . S
C867 C884 1.574 . S
C867 C886 1.368 . S
C867 H891 0.949 . S
H868 C872 0.949 . S
C869 C870 1.349 . S
C869 C871 1.327 . S
C869 H892 0.950 . S
C870 C869 1.349 . S
C870 C882 1.349 . S
C871 C869 1.327 . S
C871 C887 1.429 . S
C871 H893 0.950 . S
C872 H868 0.949 . S
C872 C880 1.574 . S
C872 C888 1.368 . S
H873 C881 0.950 . S
H874 C879 0.950 . S
H875 C880 0.949 . S
H876 C882 0.950 . S
H877 C883 0.950 . S
H878 C884 0.949 . S
C879 H874 0.950 . S
C879 C881 1.327 . S
C879 C885 1.429 . S
C880 C872 1.574 . S
C880 H875 0.949 . S
C880 C886 1.368 . S
C881 C865 1.349 . S
C881 H873 0.950 . S
C881 C879 1.327 . S
C882 C870 1.349 . S
C882 H876 0.950 . S
C882 C883 1.327 . S
C883 H877 0.950 . S
C883 C882 1.327 . S
C883 C887 1.429 . S
C884 C867 1.574 . S
C884 H878 0.949 . S
C884 C888 1.368 . S
C885 C866 1.429 . S
C885 C879 1.429 . S
C885 C886 1.523 . S
C886 C867 1.368 . S
C886 C880 1.368 . S
C886 C885 1.523 . S
C887 C871 1.429 . S
C887 C883 1.429 . S
C887 C888 1.523 . S
C888 C872 1.368 . S
C888 C884 1.368 . S
C888 C887 1.523 . S
H889 C864 0.950 . S
H890 C866 0.950 . S
H891 C867 0.949 . S
H892 C869 0.950 . S
H893 C871 0.950 . S
C894 C895 1.349 . S
C894 C896 1.327 . S
C894 H919 0.950 . S
C895 C894 1.349 . S
C895 C911 1.349 . S
C896 C894 1.327 . S
C896 C915 1.429 . S
C896 H920 0.950 . S
C897 C914 1.574 . S
C897 C916 1.368 . S
C897 H921 0.949 . S
H898 C902 0.949 . S
C899 C900 1.349 . S
C899 C901 1.327 . S
C899 H922 0.950 . S
C900 C899 1.349 . S
C900 C912 1.349 . S
C901 C899 1.327 . S
C901 C917 1.429 . S
C901 H923 0.950 . S
C902 H898 0.949 . S
C902 C910 1.574 . S
C902 C918 1.368 . S
H903 C911 0.950 . S
H904 C909 0.950 . S
H905 C910 0.949 . S
H906 C912 0.950 . S
H907 C913 0.950 . S
H908 C914 0.949 . S
C909 H904 0.950 . S
C909 C911 1.327 . S
C909 C915 1.429 . S
C910 C902 1.574 . S
C910 H905 0.949 . S
C910 C916 1.368 . S
C911 C895 1.349 . S
C911 H903 0.950 . S
C911 C909 1.327 . S
C912 C900 1.349 . S
C912 H906 0.950 . S
C912 C913 1.327 . S
C913 H907 0.950 . S
C913 C912 1.327 . S
C913 C917 1.429 . S
C914 C897 1.574 . S
C914 H908 0.949 . S
C914 C918 1.368 . S
C915 C896 1.429 . S
C915 C909 1.429 . S
C915 C916 1.523 . S
C916 C897 1.368 . S
C916 C910 1.368 . S
C916 C915 1.523 . S
C917 C901 1.429 . S
C917 C913 1.429 . S
C917 C918 1.523 . S
C918 C902 1.368 . S
C918 C914 1.368 . S
C918 C917 1.523 . S
H919 C894 0.950 . S
H920 C896 0.950 . S
H921 C897 0.949 . S
H922 C899 0.950 . S
H923 C901 0.950 . S
C924 C925 1.349 . S
C924 C926 1.327 . S
C924 H949 0.950 . S
C925 C924 1.349 . S
C925 C941 1.349 . S
C926 C924 1.327 . S
C926 C945 1.429 . S
C926 H950 0.950 . S
C927 C944 1.574 . S
C927 C946 1.368 . S
C927 H951 0.949 . S
H928 C932 0.949 . S
C929 C930 1.349 . S
C929 C931 1.327 . S
C929 H952 0.950 . S
C930 C929 1.349 . S
C930 C942 1.349 . S
C931 C929 1.327 . S
C931 C947 1.429 . S
C931 H953 0.950 . S
C932 H928 0.949 . S
C932 C940 1.574 . S
C932 C948 1.368 . S
H933 C941 0.950 . S
H934 C939 0.950 . S
H935 C940 0.949 . S
H936 C942 0.950 . S
H937 C943 0.950 . S
H938 C944 0.949 . S
C939 H934 0.950 . S
C939 C941 1.327 . S
C939 C945 1.429 . S
C940 C932 1.574 . S
C940 H935 0.949 . S
C940 C946 1.368 . S
C941 C925 1.349 . S
C941 H933 0.950 . S
C941 C939 1.327 . S
C942 C930 1.349 . S
C942 H936 0.950 . S
C942 C943 1.327 . S
C943 H937 0.950 . S
C943 C942 1.327 . S
C943 C947 1.429 . S
C944 C927 1.574 . S
C944 H938 0.949 . S
C944 C948 1.368 . S
C945 C926 1.429 . S
C945 C939 1.429 . S
C945 C946 1.523 . S
C946 C927 1.368 . S
C946 C940 1.368 . S
C946 C945 1.523 . S
C947 C931 1.429 . S
C947 C943 1.429 . S
C947 C948 1.523 . S
C948 C932 1.368 . S
C948 C944 1.368 . S
C948 C947 1.523 . S
H949 C924 0.950 . S
H950 C926 0.950 . S
H951 C927 0.949 . S
H952 C929 0.950 . S
H953 C931 0.950 . S
C954 C955 1.349 . S
C954 C956 1.327 . S
C954 H979 0.950 . S
C955 C954 1.349 . S
C955 C971 1.349 . S
C956 C954 1.327 . S
C956 C975 1.429 . S
C956 H980 0.950 . S
C957 C974 1.574 . S
C957 C976 1.368 . S
C957 H981 0.949 . S
H958 C962 0.949 . S
C959 C960 1.349 . S
C959 C961 1.327 . S
C959 H982 0.950 . S
C960 C959 1.349 . S
C960 C972 1.349 . S
C961 C959 1.327 . S
C961 C977 1.429 . S
C961 H983 0.950 . S
C962 H958 0.949 . S
C962 C970 1.574 . S
C962 C978 1.368 . S
H963 C971 0.950 . S
H964 C969 0.950 . S
H965 C970 0.949 . S
H966 C972 0.950 . S
H967 C973 0.950 . S
H968 C974 0.949 . S
C969 H964 0.950 . S
C969 C971 1.327 . S
C969 C975 1.429 . S
C970 C962 1.574 . S
C970 H965 0.949 . S
C970 C976 1.368 . S
C971 C955 1.349 . S
C971 H963 0.950 . S
C971 C969 1.327 . S
C972 C960 1.349 . S
C972 H966 0.950 . S
C972 C973 1.327 . S
C973 H967 0.950 . S
C973 C972 1.327 . S
C973 C977 1.429 . S
C974 C957 1.574 . S
C974 H968 0.949 . S
C974 C978 1.368 . S
C975 C956 1.429 . S
C975 C969 1.429 . S
C975 C976 1.523 . S
C976 C957 1.368 . S
C976 C970 1.368 . S
C976 C975 1.523 . S
C977 C961 1.429 . S
C977 C973 1.429 . S
C977 C978 1.523 . S
C978 C962 1.368 . S
C978 C974 1.368 . S
C978 C977 1.523 . S
H979 C954 0.950 . S
H980 C956 0.950 . S
H981 C957 0.949 . S
H982 C959 0.950 . S
H983 C961 0.950 . S
C984 C985 1.349 . S
C984 C986 1.327 . S
C984 H1009 0.950 . S
C985 C984 1.349 . S
C985 C1001 1.349 . S
C986 C984 1.327 . S
C986 C1005 1.429 . S
C986 H1010 0.950 . S
C987 C1004 1.574 . S
C987 C1006 1.368 . S
C987 H1011 0.949 . S
H988 C992 0.949 . S
C989 C990 1.349 . S
C989 C991 1.327 . S
C989 H1012 0.950 . S
C990 C989 1.349 . S
C990 C1002 1.349 . S
C991 C989 1.327 . S
C991 C1007 1.429 . S
C991 H1013 0.950 . S
C992 H988 0.949 . S
C992 C1000 1.574 . S
C992 C1008 1.368 . S
H993 C1001 0.950 . S
H994 C999 0.950 . S
H995 C1000 0.949 . S
H996 C1002 0.950 . S
H997 C1003 0.950 . S
H998 C1004 0.949 . S
C999 H994 0.950 . S
C999 C1001 1.327 . S
C999 C1005 1.429 . S
C1000 C992 1.574 . S
C1000 H995 0.949 . S
C1000 C1006 1.368 . S
C1001 C985 1.349 . S
C1001 H993 0.950 . S
C1001 C999 1.327 . S
C1002 C990 1.349 . S
C1002 H996 0.950 . S
C1002 C1003 1.327 . S
C1003 H997 0.950 . S
C1003 C1002 1.327 . S
C1003 C1007 1.429 . S
C1004 C987 1.574 . S
C1004 H998 0.949 . S
C1004 C1008 1.368 . S
C1005 C986 1.429 . S
C1005 C999 1.429 . S
C1005 C1006 1.523 . S
C1006 C987 1.368 . S
C1006 C1000 1.368 . S
C1006 C1005 1.523 . S
C1007 C991 1.429 . S
C1007 C1003 1.429 . S
C1007 C1008 1.523 . S
C1008 C992 1.368 . S
C1008 C1004 1.368 . S
C1008 C1007 1.523 . S
H1009 C984 0.950 . S
H1010 C986 0.950 . S
H1011 C987 0.949 . S
H1012 C989 0.950 . S
H1013 C991 0.950 . S
C1014 C1015 1.349 . S
C1014 C1016 1.327 . S
C1014 H1039 0.950 . S
C1015 C1014 1.349 . S
C1015 C1031 1.349 . S
C1016 C1014 1.327 . S
C1016 C1035 1.429 . S
C1016 H1040 0.950 . S
C1017 C1034 1.574 . S
C1017 C1036 1.368 . S
C1017 H1041 0.949 . S
H1018 C1022 0.949 . S
C1019 C1020 1.349 . S
C1019 C1021 1.327 . S
C1019 H1042 0.950 . S
C1020 C1019 1.349 . S
C1020 C1032 1.349 . S
C1021 C1019 1.327 . S
C1021 C1037 1.429 . S
C1021 H1043 0.950 . S
C1022 H1018 0.949 . S
C1022 C1030 1.574 . S
C1022 C1038 1.368 . S
H1023 C1031 0.950 . S
H1024 C1029 0.950 . S
H1025 C1030 0.949 . S
H1026 C1032 0.950 . S
H1027 C1033 0.950 . S
H1028 C1034 0.949 . S
C1029 H1024 0.950 . S
C1029 C1031 1.327 . S
C1029 C1035 1.429 . S
C1030 C1022 1.574 . S
C1030 H1025 0.949 . S
C1030 C1036 1.368 . S
C1031 C1015 1.349 . S
C1031 H1023 0.950 . S
C1031 C1029 1.327 . S
C1032 C1020 1.349 . S
C1032 H1026 0.950 . S
C1032 C1033 1.327 . S
C1033 H1027 0.950 . S
C1033 C1032 1.327 . S
C1033 C1037 1.429 . S
C1034 C1017 1.574 . S
C1034 H1028 0.949 . S
C1034 C1038 1.368 . S
C1035 C1016 1.429 . S
C1035 C1029 1.429 . S
C1035 C1036 1.523 . S
C1036 C1017 1.368 . S
C1036 C1030 1.368 . S
C1036 C1035 1.523 . S
C1037 C1021 1.429 . S
C1037 C1033 1.429 . S
C1037 C1038 1.523 . S
C1038 C1022 1.368 . S
C1038 C1034 1.368 . S
C1038 C1037 1.523 . S
H1039 C1014 0.950 . S
H1040 C1016 0.950 . S
H1041 C1017 0.949 . S
H1042 C1019 0.950 . S
H1043 C1021 0.950 . S
C1044 C1045 1.349 . S
C1044 C1046 1.327 . S
C1044 H1069 0.950 . S
C1045 C1044 1.349 . S
C1045 C1061 1.349 . S
C1046 C1044 1.327 . S
C1046 C1065 1.429 . S
C1046 H1070 0.950 . S
C1047 C1064 1.574 . S
C1047 C1066 1.368 . S
C1047 H1071 0.949 . S
H1048 C1052 0.949 . S
C1049 C1050 1.349 . S
C1049 C1051 1.327 . S
C1049 H1072 0.950 . S
C1050 C1049 1.349 . S
C1050 C1062 1.349 . S
C1051 C1049 1.327 . S
C1051 C1067 1.429 . S
C1051 H1073 0.950 . S
C1052 H1048 0.949 . S
C1052 C1060 1.574 . S
C1052 C1068 1.368 . S
H1053 C1061 0.950 . S
H1054 C1059 0.950 . S
H1055 C1060 0.949 . S
H1056 C1062 0.950 . S
H1057 C1063 0.950 . S
H1058 C1064 0.949 . S
C1059 H1054 0.950 . S
C1059 C1061 1.327 . S
C1059 C1065 1.429 . S
C1060 C1052 1.574 . S
C1060 H1055 0.949 . S
C1060 C1066 1.368 . S
C1061 C1045 1.349 . S
C1061 H1053 0.950 . S
C1061 C1059 1.327 . S
C1062 C1050 1.349 . S
C1062 H1056 0.950 . S
C1062 C1063 1.327 . S
C1063 H1057 0.950 . S
C1063 C1062 1.327 . S
C1063 C1067 1.429 . S
C1064 C1047 1.574 . S
C1064 H1058 0.949 . S
C1064 C1068 1.368 . S
C1065 C1046 1.429 . S
C1065 C1059 1.429 . S
C1065 C1066 1.523 . S
C1066 C1047 1.368 . S
C1066 C1060 1.368 . S
C1066 C1065 1.523 . S
C1067 C1051 1.429 . S
C1067 C1063 1.429 . S
C1067 C1068 1.523 . S
C1068 C1052 1.368 . S
C1068 C1064 1.368 . S
C1068 C1067 1.523 . S
H1069 C1044 0.950 . S
H1070 C1046 0.950 . S
H1071 C1047 0.949 . S
H1072 C1049 0.950 . S
H1073 C1051 0.950 . S
C1074 C1075 1.349 . S
C1074 C1076 1.327 . S
C1074 H1099 0.950 . S
C1075 C1074 1.349 . S
C1075 C1091 1.349 . S
C1076 C1074 1.327 . S
C1076 C1095 1.429 . S
C1076 H1100 0.950 . S
C1077 C1094 1.574 . S
C1077 C1096 1.368 . S
C1077 H1101 0.949 . S
H1078 C1082 0.949 . S
C1079 C1080 1.349 . S
C1079 C1081 1.327 . S
C1079 H1102 0.950 . S
C1080 C1079 1.349 . S
C1080 C1092 1.349 . S
C1081 C1079 1.327 . S
C1081 C1097 1.429 . S
C1081 H1103 0.950 . S
C1082 H1078 0.949 . S
C1082 C1090 1.574 . S
C1082 C1098 1.368 . S
H1083 C1091 0.950 . S
H1084 C1089 0.950 . S
H1085 C1090 0.949 . S
H1086 C1092 0.950 . S
H1087 C1093 0.950 . S
H1088 C1094 0.949 . S
C1089 H1084 0.950 . S
C1089 C1091 1.327 . S
C1089 C1095 1.429 . S
C1090 C1082 1.574 . S
C1090 H1085 0.949 . S
C1090 C1096 1.368 . S
C1091 C1075 1.349 . S
C1091 H1083 0.950 . S
C1091 C1089 1.327 . S
C1092 C1080 1.349 . S
C1092 H1086 0.950 . S
C1092 C1093 1.327 . S
C1093 H1087 0.950 . S
C1093 C1092 1.327 . S
C1093 C1097 1.429 . S
C1094 C1077 1.574 . S
C1094 H1088 0.949 . S
C1094 C1098 1.368 . S
C1095 C1076 1.429 . S
C1095 C1089 1.429 . S
C1095 C1096 1.523 . S
C1096 C1077 1.368 . S
C1096 C1090 1.368 . S
C1096 C1095 1.523 . S
C1097 C1081 1.429 . S
C1097 C1093 1.429 . S
C1097 C1098 1.523 . S
C1098 C1082 1.368 . S
C1098 C1094 1.368 . S
C1098 C1097 1.523 . S
H1099 C1074 0.950 . S
H1100 C1076 0.950 . S
H1101 C1077 0.949 . S
H1102 C1079 0.950 . S
H1103 C1081 0.950 . S
C1104 C1105 1.349 . S
C1104 C1106 1.327 . S
C1104 H1129 0.950 . S
C1105 C1104 1.349 . S
C1105 C1121 1.349 . S
C1106 C1104 1.327 . S
C1106 C1125 1.429 . S
C1106 H1130 0.950 . S
C1107 C1124 1.574 . S
C1107 C1126 1.368 . S
C1107 H1131 0.949 . S
H1108 C1112 0.949 . S
C1109 C1110 1.349 . S
C1109 C1111 1.327 . S
C1109 H1132 0.950 . S
C1110 C1109 1.349 . S
C1110 C1122 1.349 . S
C1111 C1109 1.327 . S
C1111 C1127 1.429 . S
C1111 H1133 0.950 . S
C1112 H1108 0.949 . S
C1112 C1120 1.574 . S
C1112 C1128 1.368 . S
H1113 C1121 0.950 . S
H1114 C1119 0.950 . S
H1115 C1120 0.949 . S
H1116 C1122 0.950 . S
H1117 C1123 0.950 . S
H1118 C1124 0.949 . S
C1119 H1114 0.950 . S
C1119 C1121 1.327 . S
C1119 C1125 1.429 . S
C1120 C1112 1.574 . S
C1120 H1115 0.949 . S
C1120 C1126 1.368 . S
C1121 C1105 1.349 . S
C1121 H1113 0.950 . S
C1121 C1119 1.327 . S
C1122 C1110 1.349 . S
C1122 H1116 0.950 . S
C1122 C1123 1.327 . S
C1123 H1117 0.950 . S
C1123 C1122 1.327 . S
C1123 C1127 1.429 . S
C1124 C1107 1.574 . S
C1124 H1118 0.949 . S
C1124 C1128 1.368 . S
C1125 C1106 1.429 . S
C1125 C1119 1.429 . S
C1125 C1126 1.523 . S
C1126 C1107 1.368 . S
C1126 C1120 1.368 . S
C1126 C1125 1.523 . S
C1127 C1111 1.429 . S
C1127 C1123 1.429 . S
C1127 C1128 1.523 . S
C1128 C1112 1.368 . S
C1128 C1124 1.368 . S
C1128 C1127 1.523 . S
H1129 C1104 0.950 . S
H1130 C1106 0.950 . S
H1131 C1107 0.949 . S
H1132 C1109 0.950 . S
H1133 C1111 0.950 . S
C1134 C1135 1.349 . S
C1134 C1136 1.327 . S
C1134 H1159 0.950 . S
C1135 C1134 1.349 . S
C1135 C1151 1.349 . S
C1136 C1134 1.327 . S
C1136 C1155 1.429 . S
C1136 H1160 0.950 . S
C1137 C1154 1.574 . S
C1137 C1156 1.368 . S
C1137 H1161 0.949 . S
H1138 C1142 0.949 . S
C1139 C1140 1.349 . S
C1139 C1141 1.327 . S
C1139 H1162 0.950 . S
C1140 C1139 1.349 . S
C1140 C1152 1.349 . S
C1141 C1139 1.327 . S
C1141 C1157 1.429 . S
C1141 H1163 0.950 . S
C1142 H1138 0.949 . S
C1142 C1150 1.574 . S
C1142 C1158 1.368 . S
H1143 C1151 0.950 . S
H1144 C1149 0.950 . S
H1145 C1150 0.949 . S
H1146 C1152 0.950 . S
H1147 C1153 0.950 . S
H1148 C1154 0.949 . S
C1149 H1144 0.950 . S
C1149 C1151 1.327 . S
C1149 C1155 1.429 . S
C1150 C1142 1.574 . S
C1150 H1145 0.949 . S
C1150 C1156 1.368 . S
C1151 C1135 1.349 . S
C1151 H1143 0.950 . S
C1151 C1149 1.327 . S
C1152 C1140 1.349 . S
C1152 H1146 0.950 . S
C1152 C1153 1.327 . S
C1153 H1147 0.950 . S
C1153 C1152 1.327 . S
C1153 C1157 1.429 . S
C1154 C1137 1.574 . S
C1154 H1148 0.949 . S
C1154 C1158 1.368 . S
C1155 C1136 1.429 . S
C1155 C1149 1.429 . S
C1155 C1156 1.523 . S
C1156 C1137 1.368 . S
C1156 C1150 1.368 . S
C1156 C1155 1.523 . S
C1157 C1141 1.429 . S
C1157 C1153 1.429 . S
C1157 C1158 1.523 . S
C1158 C1142 1.368 . S
C1158 C1154 1.368 . S
C1158 C1157 1.523 . S
H1159 C1134 0.950 . S
H1160 C1136 0.950 . S
H1161 C1137 0.949 . S
H1162 C1139 0.950 . S
H1163 C1141 0.950 . S
C1164 C1165 1.349 . S
C1164 C1166 1.327 . S
C1164 H1189 0.950 . S
C1165 C1164 1.349 . S
C1165 C1181 1.349 . S
C1166 C1164 1.327 . S
C1166 C1185 1.429 . S
C1166 H1190 0.950 . S
C1167 C1184 1.574 . S
C1167 C1186 1.368 . S
C1167 H1191 0.949 . S
H1168 C1172 0.949 . S
C1169 C1170 1.349 . S
C1169 C1171 1.327 . S
C1169 H1192 0.950 . S
C1170 C1169 1.349 . S
C1170 C1182 1.349 . S
C1171 C1169 1.327 . S
C1171 C1187 1.429 . S
C1171 H1193 0.950 . S
C1172 H1168 0.949 . S
C1172 C1180 1.574 . S
C1172 C1188 1.368 . S
H1173 C1181 0.950 . S
H1174 C1179 0.950 . S
H1175 C1180 0.949 . S
H1176 C1182 0.950 . S
H1177 C1183 0.950 . S
H1178 C1184 0.949 . S
C1179 H1174 0.950 . S
C1179 C1181 1.327 . S
C1179 C1185 1.429 . S
C1180 C1172 1.574 . S
C1180 H1175 0.949 . S
C1180 C1186 1.368 . S
C1181 C1165 1.349 . S
C1181 H1173 0.950 . S
C1181 C1179 1.327 . S
C1182 C1170 1.349 . S
C1182 H1176 0.950 . S
C1182 C1183 1.327 . S
C1183 H1177 0.950 . S
C1183 C1182 1.327 . S
C1183 C1187 1.429 . S
C1184 C1167 1.574 . S
C1184 H1178 0.949 . S
C1184 C1188 1.368 . S
C1185 C1166 1.429 . S
C1185 C1179 1.429 . S
C1185 C1186 1.523 . S
C1186 C1167 1.368 . S
C1186 C1180 1.368 . S
C1186 C1185 1.523 . S
C1187 C1171 1.429 . S
C1187 C1183 1.429 . S
C1187 C1188 1.523 . S
C1188 C1172 1.368 . S
C1188 C1184 1.368 . S
C1188 C1187 1.523 . S
H1189 C1164 0.950 . S
H1190 C1166 0.950 . S
H1191 C1167 0.949 . S
H1192 C1169 0.950 . S
H1193 C1171 0.950 . S
C1194 C1195 1.349 . S
C1194 C1196 1.327 . S
C1194 H1219 0.950 . S
C1195 C1194 1.349 . S
C1195 C1211 1.349 . S
C1196 C1194 1.327 . S
C1196 C1215 1.429 . S
C1196 H1220 0.950 . S
C1197 C1214 1.574 . S
C1197 C1216 1.368 . S
C1197 H1221 0.949 . S
H1198 C1202 0.949 . S
C1199 C1200 1.349 . S
C1199 C1201 1.327 . S
C1199 H1222 0.950 . S
C1200 C1199 1.349 . S
C1200 C1212 1.349 . S
C1201 C1199 1.327 . S
C1201 C1217 1.429 . S
C1201 H1223 0.950 . S
C1202 H1198 0.949 . S
C1202 C1210 1.574 . S
C1202 C1218 1.368 . S
H1203 C1211 0.950 . S
H1204 C1209 0.950 . S
H1205 C1210 0.949 . S
H1206 C1212 0.950 . S
H1207 C1213 0.950 . S
H1208 C1214 0.949 . S
C1209 H1204 0.950 . S
C1209 C1211 1.327 . S
C1209 C1215 1.429 . S
C1210 C1202 1.574 . S
C1210 H1205 0.949 . S
C1210 C1216 1.368 . S
C1211 C1195 1.349 . S
C1211 H1203 0.950 . S
C1211 C1209 1.327 . S
C1212 C1200 1.349 . S
C1212 H1206 0.950 . S
C1212 C1213 1.327 . S
C1213 H1207 0.950 . S
C1213 C1212 1.327 . S
C1213 C1217 1.429 . S
C1214 C1197 1.574 . S
C1214 H1208 0.949 . S
C1214 C1218 1.368 . S
C1215 C1196 1.429 . S
C1215 C1209 1.429 . S
C1215 C1216 1.523 . S
C1216 C1197 1.368 . S
C1216 C1210 1.368 . S
C1216 C1215 1.523 . S
C1217 C1201 1.429 . S
C1217 C1213 1.429 . S
C1217 C1218 1.523 . S
C1218 C1202 1.368 . S
C1218 C1214 1.368 . S
C1218 C1217 1.523 . S
H1219 C1194 0.950 . S
H1220 C1196 0.950 . S
H1221 C1197 0.949 . S
H1222 C1199 0.950 . S
H1223 C1201 0.950 . S
C1224 C1225 1.349 . S
C1224 C1226 1.327 . S
C1224 H1249 0.950 . S
C1225 C1224 1.349 . S
C1225 C1241 1.349 . S
C1226 C1224 1.327 . S
C1226 C1245 1.429 . S
C1226 H1250 0.950 . S
C1227 C1244 1.574 . S
C1227 C1246 1.368 1_554 S
C1227 H1251 0.949 . S
H1228 C1232 0.949 . S
C1229 C1230 1.349 . S
C1229 C1231 1.327 . S
C1229 H1252 0.950 . S
C1230 C1229 1.349 . S
C1230 C1242 1.349 . S
C1231 C1229 1.327 . S
C1231 C1247 1.429 . S
C1231 H1253 0.950 . S
C1232 H1228 0.949 . S
C1232 C1240 1.574 . S
C1232 C1248 1.368 1_556 S
H1233 C1241 0.950 . S
H1234 C1239 0.950 . S
H1235 C1240 0.949 . S
H1236 C1242 0.950 . S
H1237 C1243 0.950 . S
H1238 C1244 0.949 . S
C1239 H1234 0.950 . S
C1239 C1241 1.327 . S
C1239 C1245 1.429 . S
C1240 C1232 1.574 . S
C1240 H1235 0.949 . S
C1240 C1246 1.368 . S
C1241 C1225 1.349 . S
C1241 H1233 0.950 . S
C1241 C1239 1.327 . S
C1242 C1230 1.349 . S
C1242 H1236 0.950 . S
C1242 C1243 1.327 . S
C1243 H1237 0.950 . S
C1243 C1242 1.327 . S
C1243 C1247 1.429 . S
C1244 C1227 1.574 . S
C1244 H1238 0.949 . S
C1244 C1248 1.368 . S
C1245 C1226 1.429 . S
C1245 C1239 1.429 . S
C1245 C1246 1.523 . S
C1246 C1227 1.368 1_556 S
C1246 C1240 1.368 . S
C1246 C1245 1.523 . S
C1247 C1231 1.429 . S
C1247 C1243 1.429 . S
C1247 C1248 1.523 . S
C1248 C1232 1.368 1_554 S
C1248 C1244 1.368 . S
C1248 C1247 1.523 . S
H1249 C1224 0.950 . S
H1250 C1226 0.950 . S
H1251 C1227 0.949 . S
H1252 C1229 0.950 . S
H1253 C1231 0.950 . S
C1254 C1255 1.349 . S
C1254 C1256 1.327 . S
C1254 H1279 0.950 . S
C1255 C1254 1.349 . S
C1255 C1271 1.349 . S
C1256 C1254 1.327 . S
C1256 C1275 1.429 . S
C1256 H1280 0.950 . S
C1257 C1274 1.574 . S
C1257 C1276 1.368 . S
C1257 H1281 0.949 . S
H1258 C1262 0.949 . S
C1259 C1260 1.349 . S
C1259 C1261 1.327 . S
C1259 H1282 0.950 . S
C1260 C1259 1.349 . S
C1260 C1272 1.349 . S
C1261 C1259 1.327 . S
C1261 C1277 1.429 . S
C1261 H1283 0.950 . S
C1262 H1258 0.949 . S
C1262 C1270 1.574 . S
C1262 C1278 1.368 . S
H1263 C1271 0.950 . S
H1264 C1269 0.950 . S
H1265 C1270 0.949 . S
H1266 C1272 0.950 . S
H1267 C1273 0.950 . S
H1268 C1274 0.949 . S
C1269 H1264 0.950 . S
C1269 C1271 1.327 . S
C1269 C1275 1.429 . S
C1270 C1262 1.574 . S
C1270 H1265 0.949 . S
C1270 C1276 1.368 . S
C1271 C1255 1.349 . S
C1271 H1263 0.950 . S
C1271 C1269 1.327 . S
C1272 C1260 1.349 . S
C1272 H1266 0.950 . S
C1272 C1273 1.327 . S
C1273 H1267 0.950 . S
C1273 C1272 1.327 . S
C1273 C1277 1.429 . S
C1274 C1257 1.574 . S
C1274 H1268 0.949 . S
C1274 C1278 1.368 . S
C1275 C1256 1.429 . S
C1275 C1269 1.429 . S
C1275 C1276 1.523 . S
C1276 C1257 1.368 . S
C1276 C1270 1.368 . S
C1276 C1275 1.523 . S
C1277 C1261 1.429 . S
C1277 C1273 1.429 . S
C1277 C1278 1.523 . S
C1278 C1262 1.368 . S
C1278 C1274 1.368 . S
C1278 C1277 1.523 . S
H1279 C1254 0.950 . S
H1280 C1256 0.950 . S
H1281 C1257 0.949 . S
H1282 C1259 0.950 . S
H1283 C1261 0.950 . S
C1284 C1285 1.349 . S
C1284 C1286 1.327 . S
C1284 H1309 0.950 . S
C1285 C1284 1.349 . S
C1285 C1301 1.349 . S
C1286 C1284 1.327 . S
C1286 C1305 1.429 . S
C1286 H1310 0.950 . S
C1287 C1304 1.574 . S
C1287 C1306 1.368 1_556 S
C1287 H1311 0.949 . S
H1288 C1292 0.949 . S
C1289 C1290 1.349 . S
C1289 C1291 1.327 . S
C1289 H1312 0.950 . S
C1290 C1289 1.349 . S
C1290 C1302 1.349 . S
C1291 C1289 1.327 . S
C1291 C1307 1.429 . S
C1291 H1313 0.950 . S
C1292 H1288 0.949 . S
C1292 C1300 1.574 . S
C1292 C1308 1.368 1_554 S
H1293 C1301 0.950 . S
H1294 C1299 0.950 . S
H1295 C1300 0.949 . S
H1296 C1302 0.950 . S
H1297 C1303 0.950 . S
H1298 C1304 0.949 . S
C1299 H1294 0.950 . S
C1299 C1301 1.327 . S
C1299 C1305 1.429 . S
C1300 C1292 1.574 . S
C1300 H1295 0.949 . S
C1300 C1306 1.368 . S
C1301 C1285 1.349 . S
C1301 H1293 0.950 . S
C1301 C1299 1.327 . S
C1302 C1290 1.349 . S
C1302 H1296 0.950 . S
C1302 C1303 1.327 . S
C1303 H1297 0.950 . S
C1303 C1302 1.327 . S
C1303 C1307 1.429 . S
C1304 C1287 1.574 . S
C1304 H1298 0.949 . S
C1304 C1308 1.368 . S
C1305 C1286 1.429 . S
C1305 C1299 1.429 . S
C1305 C1306 1.523 . S
C1306 C1287 1.368 1_554 S
C1306 C1300 1.368 . S
C1306 C1305 1.523 . S
C1307 C1291 1.429 . S
C1307 C1303 1.429 . S
C1307 C1308 1.523 . S
C1308 C1292 1.368 1_556 S
C1308 C1304 1.368 . S
C1308 C1307 1.523 . S
H1309 C1284 0.950 . S
H1310 C1286 0.950 . S
H1311 C1287 0.949 . S
H1312 C1289 0.950 . S
H1313 C1291 0.950 . S
C1314 C1315 1.349 . S
C1314 C1316 1.327 . S
C1314 H1339 0.950 . S
C1315 C1314 1.349 . S
C1315 C1331 1.349 . S
C1316 C1314 1.327 . S
C1316 C1335 1.429 . S
C1316 H1340 0.950 . S
C1317 C1334 1.574 . S
C1317 C1336 1.368 . S
C1317 H1341 0.949 . S
H1318 C1322 0.949 . S
C1319 C1320 1.349 . S
C1319 C1321 1.327 . S
C1319 H1342 0.950 . S
C1320 C1319 1.349 . S
C1320 C1332 1.349 . S
C1321 C1319 1.327 . S
C1321 C1337 1.429 . S
C1321 H1343 0.950 . S
C1322 H1318 0.949 . S
C1322 C1330 1.574 . S
C1322 C1338 1.368 . S
H1323 C1331 0.950 . S
H1324 C1329 0.950 . S
H1325 C1330 0.949 . S
H1326 C1332 0.950 . S
H1327 C1333 0.950 . S
H1328 C1334 0.949 . S
C1329 H1324 0.950 . S
C1329 C1331 1.327 . S
C1329 C1335 1.429 . S
C1330 C1322 1.574 . S
C1330 H1325 0.949 . S
C1330 C1336 1.368 . S
C1331 C1315 1.349 . S
C1331 H1323 0.950 . S
C1331 C1329 1.327 . S
C1332 C1320 1.349 . S
C1332 H1326 0.950 . S
C1332 C1333 1.327 . S
C1333 H1327 0.950 . S
C1333 C1332 1.327 . S
C1333 C1337 1.429 . S
C1334 C1317 1.574 . S
C1334 H1328 0.949 . S
C1334 C1338 1.368 . S
C1335 C1316 1.429 . S
C1335 C1329 1.429 . S
C1335 C1336 1.523 . S
C1336 C1317 1.368 . S
C1336 C1330 1.368 . S
C1336 C1335 1.523 . S
C1337 C1321 1.429 . S
C1337 C1333 1.429 . S
C1337 C1338 1.523 . S
C1338 C1322 1.368 . S
C1338 C1334 1.368 . S
C1338 C1337 1.523 . S
H1339 C1314 0.950 . S
H1340 C1316 0.950 . S
H1341 C1317 0.949 . S
H1342 C1319 0.950 . S
H1343 C1321 0.950 . S
C1344 C1345 1.349 . S
C1344 C1346 1.327 . S
C1344 H1369 0.950 . S
C1345 C1344 1.349 . S
C1345 C1361 1.349 . S
C1346 C1344 1.327 . S
C1346 C1365 1.429 . S
C1346 H1370 0.950 . S
C1347 C1364 1.574 . S
C1347 C1366 1.368 1_554 S
C1347 H1371 0.949 . S
H1348 C1352 0.949 . S
C1349 C1350 1.349 . S
C1349 C1351 1.327 . S
C1349 H1372 0.950 . S
C1350 C1349 1.349 . S
C1350 C1362 1.349 . S
C1351 C1349 1.327 . S
C1351 C1367 1.429 . S
C1351 H1373 0.950 . S
C1352 H1348 0.949 . S
C1352 C1360 1.574 . S
C1352 C1368 1.368 1_556 S
H1353 C1361 0.950 . S
H1354 C1359 0.950 . S
H1355 C1360 0.949 . S
H1356 C1362 0.950 . S
H1357 C1363 0.950 . S
H1358 C1364 0.949 . S
C1359 H1354 0.950 . S
C1359 C1361 1.327 . S
C1359 C1365 1.429 . S
C1360 C1352 1.574 . S
C1360 H1355 0.949 . S
C1360 C1366 1.368 . S
C1361 C1345 1.349 . S
C1361 H1353 0.950 . S
C1361 C1359 1.327 . S
C1362 C1350 1.349 . S
C1362 H1356 0.950 . S
C1362 C1363 1.327 . S
C1363 H1357 0.950 . S
C1363 C1362 1.327 . S
C1363 C1367 1.429 . S
C1364 C1347 1.574 . S
C1364 H1358 0.949 . S
C1364 C1368 1.368 . S
C1365 C1346 1.429 . S
C1365 C1359 1.429 . S
C1365 C1366 1.523 . S
C1366 C1347 1.368 1_556 S
C1366 C1360 1.368 . S
C1366 C1365 1.523 . S
C1367 C1351 1.429 . S
C1367 C1363 1.429 . S
C1367 C1368 1.523 . S
C1368 C1352 1.368 1_554 S
C1368 C1364 1.368 . S
C1368 C1367 1.523 . S
H1369 C1344 0.950 . S
H1370 C1346 0.950 . S
H1371 C1347 0.949 . S
H1372 C1349 0.950 . S
H1373 C1351 0.950 . S
C1374 C1375 1.349 . S
C1374 C1376 1.327 . S
C1374 H1399 0.950 . S
C1375 C1374 1.349 . S
C1375 C1391 1.349 . S
C1376 C1374 1.327 . S
C1376 C1395 1.429 . S
C1376 H1400 0.950 . S
C1377 C1394 1.574 . S
C1377 C1396 1.368 . S
C1377 H1401 0.949 . S
H1378 C1382 0.949 . S
C1379 C1380 1.349 . S
C1379 C1381 1.327 . S
C1379 H1402 0.950 . S
C1380 C1379 1.349 . S
C1380 C1392 1.349 . S
C1381 C1379 1.327 . S
C1381 C1397 1.429 . S
C1381 H1403 0.950 . S
C1382 H1378 0.949 . S
C1382 C1390 1.574 . S
C1382 C1398 1.368 . S
H1383 C1391 0.950 . S
H1384 C1389 0.950 . S
H1385 C1390 0.949 . S
H1386 C1392 0.950 . S
H1387 C1393 0.950 . S
H1388 C1394 0.949 . S
C1389 H1384 0.950 . S
C1389 C1391 1.327 . S
C1389 C1395 1.429 . S
C1390 C1382 1.574 . S
C1390 H1385 0.949 . S
C1390 C1396 1.368 . S
C1391 C1375 1.349 . S
C1391 H1383 0.950 . S
C1391 C1389 1.327 . S
C1392 C1380 1.349 . S
C1392 H1386 0.950 . S
C1392 C1393 1.327 . S
C1393 H1387 0.950 . S
C1393 C1392 1.327 . S
C1393 C1397 1.429 . S
C1394 C1377 1.574 . S
C1394 H1388 0.949 . S
C1394 C1398 1.368 . S
C1395 C1376 1.429 . S
C1395 C1389 1.429 . S
C1395 C1396 1.523 . S
C1396 C1377 1.368 . S
C1396 C1390 1.368 . S
C1396 C1395 1.523 . S
C1397 C1381 1.429 . S
C1397 C1393 1.429 . S
C1397 C1398 1.523 . S
C1398 C1382 1.368 . S
C1398 C1394 1.368 . S
C1398 C1397 1.523 . S
H1399 C1374 0.950 . S
H1400 C1376 0.950 . S
H1401 C1377 0.949 . S
H1402 C1379 0.950 . S
H1403 C1381 0.950 . S
C1404 C1405 1.349 . S
C1404 C1406 1.327 . S
C1404 H1429 0.950 . S
C1405 C1404 1.349 . S
C1405 C1421 1.349 . S
C1406 C1404 1.327 . S
C1406 C1425 1.429 . S
C1406 H1430 0.950 . S
C1407 C1424 1.574 . S
C1407 C1426 1.368 . S
C1407 H1431 0.949 . S
H1408 C1412 0.949 . S
C1409 C1410 1.349 . S
C1409 C1411 1.327 . S
C1409 H1432 0.950 . S
C1410 C1409 1.349 . S
C1410 C1422 1.349 . S
C1411 C1409 1.327 . S
C1411 C1427 1.429 . S
C1411 H1433 0.950 . S
C1412 H1408 0.949 . S
C1412 C1420 1.574 . S
C1412 C1428 1.368 . S
H1413 C1421 0.950 . S
H1414 C1419 0.950 . S
H1415 C1420 0.949 . S
H1416 C1422 0.950 . S
H1417 C1423 0.950 . S
H1418 C1424 0.949 . S
C1419 H1414 0.950 . S
C1419 C1421 1.327 . S
C1419 C1425 1.429 . S
C1420 C1412 1.574 . S
C1420 H1415 0.949 . S
C1420 C1426 1.368 1_556 S
C1421 C1405 1.349 . S
C1421 H1413 0.950 . S
C1421 C1419 1.327 . S
C1422 C1410 1.349 . S
C1422 H1416 0.950 . S
C1422 C1423 1.327 . S
C1423 H1417 0.950 . S
C1423 C1422 1.327 . S
C1423 C1427 1.429 . S
C1424 C1407 1.574 . S
C1424 H1418 0.949 . S
C1424 C1428 1.368 1_554 S
C1425 C1406 1.429 . S
C1425 C1419 1.429 . S
C1425 C1426 1.523 . S
C1426 C1407 1.368 . S
C1426 C1420 1.368 1_554 S
C1426 C1425 1.523 . S
C1427 C1411 1.429 . S
C1427 C1423 1.429 . S
C1427 C1428 1.523 . S
C1428 C1412 1.368 . S
C1428 C1424 1.368 1_556 S
C1428 C1427 1.523 . S
H1429 C1404 0.950 . S
H1430 C1406 0.950 . S
H1431 C1407 0.949 . S
H1432 C1409 0.950 . S
H1433 C1411 0.950 . S
C1434 C1435 1.349 . S
C1434 C1436 1.327 . S
C1434 H1459 0.950 . S
C1435 C1434 1.349 . S
C1435 C1451 1.349 . S
C1436 C1434 1.327 . S
C1436 C1455 1.429 . S
C1436 H1460 0.950 . S
C1437 C1454 1.574 . S
C1437 C1456 1.368 . S
C1437 H1461 0.949 . S
H1438 C1442 0.949 . S
C1439 C1440 1.349 . S
C1439 C1441 1.327 . S
C1439 H1462 0.950 . S
C1440 C1439 1.349 . S
C1440 C1452 1.349 . S
C1441 C1439 1.327 . S
C1441 C1457 1.429 . S
C1441 H1463 0.950 . S
C1442 H1438 0.949 . S
C1442 C1450 1.574 . S
C1442 C1458 1.368 . S
H1443 C1451 0.950 . S
H1444 C1449 0.950 . S
H1445 C1450 0.949 . S
H1446 C1452 0.950 . S
H1447 C1453 0.950 . S
H1448 C1454 0.949 . S
C1449 H1444 0.950 . S
C1449 C1451 1.327 . S
C1449 C1455 1.429 . S
C1450 C1442 1.574 . S
C1450 H1445 0.949 . S
C1450 C1456 1.368 . S
C1451 C1435 1.349 . S
C1451 H1443 0.950 . S
C1451 C1449 1.327 . S
C1452 C1440 1.349 . S
C1452 H1446 0.950 . S
C1452 C1453 1.327 . S
C1453 H1447 0.950 . S
C1453 C1452 1.327 . S
C1453 C1457 1.429 . S
C1454 C1437 1.574 . S
C1454 H1448 0.949 . S
C1454 C1458 1.368 . S
C1455 C1436 1.429 . S
C1455 C1449 1.429 . S
C1455 C1456 1.523 . S
C1456 C1437 1.368 . S
C1456 C1450 1.368 . S
C1456 C1455 1.523 . S
C1457 C1441 1.429 . S
C1457 C1453 1.429 . S
C1457 C1458 1.523 . S
C1458 C1442 1.368 . S
C1458 C1454 1.368 . S
C1458 C1457 1.523 . S
H1459 C1434 0.950 . S
H1460 C1436 0.950 . S
H1461 C1437 0.949 . S
H1462 C1439 0.950 . S
H1463 C1441 0.950 . S
C1464 C1465 1.349 . S
C1464 C1466 1.327 . S
C1464 H1489 0.950 . S
C1465 C1464 1.349 . S
C1465 C1481 1.349 . S
C1466 C1464 1.327 . S
C1466 C1485 1.429 . S
C1466 H1490 0.950 . S
C1467 C1484 1.574 . S
C1467 C1486 1.368 1_554 S
C1467 H1491 0.949 . S
H1468 C1472 0.949 . S
C1469 C1470 1.349 . S
C1469 C1471 1.327 . S
C1469 H1492 0.950 . S
C1470 C1469 1.349 . S
C1470 C1482 1.349 . S
C1471 C1469 1.327 . S
C1471 C1487 1.429 . S
C1471 H1493 0.950 . S
C1472 H1468 0.949 . S
C1472 C1480 1.574 . S
C1472 C1488 1.368 1_556 S
H1473 C1481 0.950 . S
H1474 C1479 0.950 . S
H1475 C1480 0.949 . S
H1476 C1482 0.950 . S
H1477 C1483 0.950 . S
H1478 C1484 0.949 . S
C1479 H1474 0.950 . S
C1479 C1481 1.327 . S
C1479 C1485 1.429 . S
C1480 C1472 1.574 . S
C1480 H1475 0.949 . S
C1480 C1486 1.368 . S
C1481 C1465 1.349 . S
C1481 H1473 0.950 . S
C1481 C1479 1.327 . S
C1482 C1470 1.349 . S
C1482 H1476 0.950 . S
C1482 C1483 1.327 . S
C1483 H1477 0.950 . S
C1483 C1482 1.327 . S
C1483 C1487 1.429 . S
C1484 C1467 1.574 . S
C1484 H1478 0.949 . S
C1484 C1488 1.368 . S
C1485 C1466 1.429 . S
C1485 C1479 1.429 . S
C1485 C1486 1.523 . S
C1486 C1467 1.368 1_556 S
C1486 C1480 1.368 . S
C1486 C1485 1.523 . S
C1487 C1471 1.429 . S
C1487 C1483 1.429 . S
C1487 C1488 1.523 . S
C1488 C1472 1.368 1_554 S
C1488 C1484 1.368 . S
C1488 C1487 1.523 . S
H1489 C1464 0.950 . S
H1490 C1466 0.950 . S
H1491 C1467 0.949 . S
H1492 C1469 0.950 . S
H1493 C1471 0.950 . S
C1494 C1495 1.349 . S
C1494 C1496 1.327 . S
C1494 H1519 0.950 . S
C1495 C1494 1.349 . S
C1495 C1511 1.349 . S
C1496 C1494 1.327 . S
C1496 C1515 1.429 . S
C1496 H1520 0.950 . S
C1497 C1514 1.574 . S
C1497 C1516 1.368 . S
C1497 H1521 0.949 . S
H1498 C1502 0.949 . S
C1499 C1500 1.349 . S
C1499 C1501 1.327 . S
C1499 H1522 0.950 . S
C1500 C1499 1.349 . S
C1500 C1512 1.349 . S
C1501 C1499 1.327 . S
C1501 C1517 1.429 . S
C1501 H1523 0.950 . S
C1502 H1498 0.949 . S
C1502 C1510 1.574 . S
C1502 C1518 1.368 . S
H1503 C1511 0.950 . S
H1504 C1509 0.950 . S
H1505 C1510 0.949 . S
H1506 C1512 0.950 . S
H1507 C1513 0.950 . S
H1508 C1514 0.949 . S
C1509 H1504 0.950 . S
C1509 C1511 1.327 . S
C1509 C1515 1.429 . S
C1510 C1502 1.574 . S
C1510 H1505 0.949 . S
C1510 C1516 1.368 . S
C1511 C1495 1.349 . S
C1511 H1503 0.950 . S
C1511 C1509 1.327 . S
C1512 C1500 1.349 . S
C1512 H1506 0.950 . S
C1512 C1513 1.327 . S
C1513 H1507 0.950 . S
C1513 C1512 1.327 . S
C1513 C1517 1.429 . S
C1514 C1497 1.574 . S
C1514 H1508 0.949 . S
C1514 C1518 1.368 . S
C1515 C1496 1.429 . S
C1515 C1509 1.429 . S
C1515 C1516 1.523 . S
C1516 C1497 1.368 . S
C1516 C1510 1.368 . S
C1516 C1515 1.523 . S
C1517 C1501 1.429 . S
C1517 C1513 1.429 . S
C1517 C1518 1.523 . S
C1518 C1502 1.368 . S
C1518 C1514 1.368 . S
C1518 C1517 1.523 . S
H1519 C1494 0.950 . S
H1520 C1496 0.950 . S
H1521 C1497 0.949 . S
H1522 C1499 0.950 . S
H1523 C1501 0.950 . S
C1524 C1525 1.349 . S
C1524 C1526 1.327 . S
C1524 H1549 0.950 . S
C1525 C1524 1.349 . S
C1525 C1541 1.349 . S
C1526 C1524 1.327 . S
C1526 C1545 1.429 . S
C1526 H1550 0.950 . S
C1527 C1544 1.574 . S
C1527 C1546 1.368 . S
C1527 H1551 0.949 . S
H1528 C1532 0.949 . S
C1529 C1530 1.349 . S
C1529 C1531 1.327 . S
C1529 H1552 0.950 . S
C1530 C1529 1.349 . S
C1530 C1542 1.349 . S
C1531 C1529 1.327 . S
C1531 C1547 1.429 . S
C1531 H1553 0.950 . S
C1532 H1528 0.949 . S
C1532 C1540 1.574 . S
C1532 C1548 1.368 . S
H1533 C1541 0.950 . S
H1534 C1539 0.950 . S
H1535 C1540 0.949 . S
H1536 C1542 0.950 . S
H1537 C1543 0.950 . S
H1538 C1544 0.949 . S
C1539 H1534 0.950 . S
C1539 C1541 1.327 . S
C1539 C1545 1.429 . S
C1540 C1532 1.574 . S
C1540 H1535 0.949 . S
C1540 C1546 1.368 1_554 S
C1541 C1525 1.349 . S
C1541 H1533 0.950 . S
C1541 C1539 1.327 . S
C1542 C1530 1.349 . S
C1542 H1536 0.950 . S
C1542 C1543 1.327 . S
C1543 H1537 0.950 . S
C1543 C1542 1.327 . S
C1543 C1547 1.429 . S
C1544 C1527 1.574 . S
C1544 H1538 0.949 . S
C1544 C1548 1.368 1_556 S
C1545 C1526 1.429 . S
C1545 C1539 1.429 . S
C1545 C1546 1.523 . S
C1546 C1527 1.368 . S
C1546 C1540 1.368 1_556 S
C1546 C1545 1.523 . S
C1547 C1531 1.429 . S
C1547 C1543 1.429 . S
C1547 C1548 1.523 . S
C1548 C1532 1.368 . S
C1548 C1544 1.368 1_554 S
C1548 C1547 1.523 . S
H1549 C1524 0.950 . S
H1550 C1526 0.950 . S
H1551 C1527 0.949 . S
H1552 C1529 0.950 . S
H1553 C1531 0.950 . S
C1554 C1555 1.349 . S
C1554 C1556 1.327 . S
C1554 H1579 0.950 . S
C1555 C1554 1.349 . S
C1555 C1571 1.349 . S
C1556 C1554 1.327 . S
C1556 C1575 1.429 . S
C1556 H1580 0.950 . S
C1557 C1574 1.574 . S
C1557 C1576 1.368 . S
C1557 H1581 0.949 . S
H1558 C1562 0.949 . S
C1559 C1560 1.349 . S
C1559 C1561 1.327 . S
C1559 H1582 0.950 . S
C1560 C1559 1.349 . S
C1560 C1572 1.349 . S
C1561 C1559 1.327 . S
C1561 C1577 1.429 . S
C1561 H1583 0.950 . S
C1562 H1558 0.949 . S
C1562 C1570 1.574 . S
C1562 C1578 1.368 . S
H1563 C1571 0.950 . S
H1564 C1569 0.950 . S
H1565 C1570 0.949 . S
H1566 C1572 0.950 . S
H1567 C1573 0.950 . S
H1568 C1574 0.949 . S
C1569 H1564 0.950 . S
C1569 C1571 1.327 . S
C1569 C1575 1.429 . S
C1570 C1562 1.574 . S
C1570 H1565 0.949 . S
C1570 C1576 1.368 . S
C1571 C1555 1.349 . S
C1571 H1563 0.950 . S
C1571 C1569 1.327 . S
C1572 C1560 1.349 . S
C1572 H1566 0.950 . S
C1572 C1573 1.327 . S
C1573 H1567 0.950 . S
C1573 C1572 1.327 . S
C1573 C1577 1.429 . S
C1574 C1557 1.574 . S
C1574 H1568 0.949 . S
C1574 C1578 1.368 . S
C1575 C1556 1.429 . S
C1575 C1569 1.429 . S
C1575 C1576 1.523 . S
C1576 C1557 1.368 . S
C1576 C1570 1.368 . S
C1576 C1575 1.523 . S
C1577 C1561 1.429 . S
C1577 C1573 1.429 . S
C1577 C1578 1.523 . S
C1578 C1562 1.368 . S
C1578 C1574 1.368 . S
C1578 C1577 1.523 . S
H1579 C1554 0.950 . S
H1580 C1556 0.950 . S
H1581 C1557 0.949 . S
H1582 C1559 0.950 . S
H1583 C1561 0.950 . S
C1584 C1585 1.349 . S
C1584 C1586 1.327 . S
C1584 H1609 0.950 . S
C1585 C1584 1.349 . S
C1585 C1601 1.349 . S
C1586 C1584 1.327 . S
C1586 C1605 1.429 . S
C1586 H1610 0.950 . S
C1587 C1604 1.574 . S
C1587 C1606 1.368 . S
C1587 H1611 0.949 . S
H1588 C1592 0.949 . S
C1589 C1590 1.349 . S
C1589 C1591 1.327 . S
C1589 H1612 0.950 . S
C1590 C1589 1.349 . S
C1590 C1602 1.349 . S
C1591 C1589 1.327 . S
C1591 C1607 1.429 . S
C1591 H1613 0.950 . S
C1592 H1588 0.949 . S
C1592 C1600 1.574 . S
C1592 C1608 1.368 . S
H1593 C1601 0.950 . S
H1594 C1599 0.950 . S
H1595 C1600 0.949 . S
H1596 C1602 0.950 . S
H1597 C1603 0.950 . S
H1598 C1604 0.949 . S
C1599 H1594 0.950 . S
C1599 C1601 1.327 . S
C1599 C1605 1.429 . S
C1600 C1592 1.574 . S
C1600 H1595 0.949 . S
C1600 C1606 1.368 . S
C1601 C1585 1.349 . S
C1601 H1593 0.950 . S
C1601 C1599 1.327 . S
C1602 C1590 1.349 . S
C1602 H1596 0.950 . S
C1602 C1603 1.327 . S
C1603 H1597 0.950 . S
C1603 C1602 1.327 . S
C1603 C1607 1.429 . S
C1604 C1587 1.574 . S
C1604 H1598 0.949 . S
C1604 C1608 1.368 . S
C1605 C1586 1.429 . S
C1605 C1599 1.429 . S
C1605 C1606 1.523 . S
C1606 C1587 1.368 . S
C1606 C1600 1.368 . S
C1606 C1605 1.523 . S
C1607 C1591 1.429 . S
C1607 C1603 1.429 . S
C1607 C1608 1.523 . S
C1608 C1592 1.368 . S
C1608 C1604 1.368 . S
C1608 C1607 1.523 . S
H1609 C1584 0.950 . S
H1610 C1586 0.950 . S
H1611 C1587 0.949 . S
H1612 C1589 0.950 . S
H1613 C1591 0.950 . S
C1614 C1615 1.349 . S
C1614 C1616 1.327 . S
C1614 H1639 0.950 . S
C1615 C1614 1.349 . S
C1615 C1631 1.349 . S
C1616 C1614 1.327 . S
C1616 C1635 1.429 . S
C1616 H1640 0.950 . S
C1617 C1634 1.574 1_455 S
C1617 C1636 1.368 . S
C1617 H1641 0.949 . S
H1618 C1622 0.949 . S
C1619 C1620 1.349 . S
C1619 C1621 1.327 . S
C1619 H1642 0.950 . S
C1620 C1619 1.349 . S
C1620 C1632 1.349 . S
C1621 C1619 1.327 . S
C1621 C1637 1.429 . S
C1621 H1643 0.950 . S
C1622 H1618 0.949 . S
C1622 C1630 1.574 1_655 S
C1622 C1638 1.368 . S
H1623 C1631 0.950 . S
H1624 C1629 0.950 . S
H1625 C1630 0.949 . S
H1626 C1632 0.950 . S
H1627 C1633 0.950 . S
H1628 C1634 0.949 . S
C1629 H1624 0.950 . S
C1629 C1631 1.327 . S
C1629 C1635 1.429 . S
C1630 C1622 1.574 1_455 S
C1630 H1625 0.949 . S
C1630 C1636 1.368 . S
C1631 C1615 1.349 . S
C1631 H1623 0.950 . S
C1631 C1629 1.327 . S
C1632 C1620 1.349 . S
C1632 H1626 0.950 . S
C1632 C1633 1.327 . S
C1633 H1627 0.950 . S
C1633 C1632 1.327 . S
C1633 C1637 1.429 . S
C1634 C1617 1.574 1_655 S
C1634 H1628 0.949 . S
C1634 C1638 1.368 . S
C1635 C1616 1.429 . S
C1635 C1629 1.429 . S
C1635 C1636 1.523 . S
C1636 C1617 1.368 . S
C1636 C1630 1.368 . S
C1636 C1635 1.523 . S
C1637 C1621 1.429 . S
C1637 C1633 1.429 . S
C1637 C1638 1.523 . S
C1638 C1622 1.368 . S
C1638 C1634 1.368 . S
C1638 C1637 1.523 . S
H1639 C1614 0.950 . S
H1640 C1616 0.950 . S
H1641 C1617 0.949 . S
H1642 C1619 0.950 . S
H1643 C1621 0.950 . S
C1644 C1645 1.349 . S
C1644 C1646 1.327 . S
C1644 H1669 0.950 . S
C1645 C1644 1.349 . S
C1645 C1661 1.349 . S
C1646 C1644 1.327 . S
C1646 C1665 1.429 . S
C1646 H1670 0.950 . S
C1647 C1664 1.574 1_565 S
C1647 C1666 1.368 . S
C1647 H1671 0.949 . S
H1648 C1652 0.949 . S
C1649 C1650 1.349 . S
C1649 C1651 1.327 . S
C1649 H1672 0.950 . S
C1650 C1649 1.349 . S
C1650 C1662 1.349 . S
C1651 C1649 1.327 . S
C1651 C1667 1.429 . S
C1651 H1673 0.950 . S
C1652 H1648 0.949 . S
C1652 C1660 1.574 1_545 S
C1652 C1668 1.368 . S
H1653 C1661 0.950 . S
H1654 C1659 0.950 . S
H1655 C1660 0.949 . S
H1656 C1662 0.950 . S
H1657 C1663 0.950 . S
H1658 C1664 0.949 . S
C1659 H1654 0.950 . S
C1659 C1661 1.327 . S
C1659 C1665 1.429 . S
C1660 C1652 1.574 1_565 S
C1660 H1655 0.949 . S
C1660 C1666 1.368 . S
C1661 C1645 1.349 . S
C1661 H1653 0.950 . S
C1661 C1659 1.327 . S
C1662 C1650 1.349 . S
C1662 H1656 0.950 . S
C1662 C1663 1.327 . S
C1663 H1657 0.950 . S
C1663 C1662 1.327 . S
C1663 C1667 1.429 . S
C1664 C1647 1.574 1_545 S
C1664 H1658 0.949 . S
C1664 C1668 1.368 . S
C1665 C1646 1.429 . S
C1665 C1659 1.429 . S
C1665 C1666 1.523 . S
C1666 C1647 1.368 . S
C1666 C1660 1.368 . S
C1666 C1665 1.523 . S
C1667 C1651 1.429 . S
C1667 C1663 1.429 . S
C1667 C1668 1.523 . S
C1668 C1652 1.368 . S
C1668 C1664 1.368 . S
C1668 C1667 1.523 . S
H1669 C1644 0.950 . S
H1670 C1646 0.950 . S
H1671 C1647 0.949 . S
H1672 C1649 0.950 . S
H1673 C1651 0.950 . S
C1674 C1675 1.349 . S
C1674 C1676 1.327 . S
C1674 H1699 0.950 . S
C1675 C1674 1.349 . S
C1675 C1691 1.349 . S
C1676 C1674 1.327 . S
C1676 C1695 1.429 . S
C1676 H1700 0.950 . S
C1677 C1694 1.574 . S
C1677 C1696 1.368 . S
C1677 H1701 0.949 . S
H1678 C1682 0.949 . S
C1679 C1680 1.349 . S
C1679 C1681 1.327 . S
C1679 H1702 0.950 . S
C1680 C1679 1.349 . S
C1680 C1692 1.349 . S
C1681 C1679 1.327 . S
C1681 C1697 1.429 . S
C1681 H1703 0.950 . S
C1682 H1678 0.949 . S
C1682 C1690 1.574 . S
C1682 C1698 1.368 . S
H1683 C1691 0.950 . S
H1684 C1689 0.950 . S
H1685 C1690 0.949 . S
H1686 C1692 0.950 . S
H1687 C1693 0.950 . S
H1688 C1694 0.949 . S
C1689 H1684 0.950 . S
C1689 C1691 1.327 . S
C1689 C1695 1.429 . S
C1690 C1682 1.574 . S
C1690 H1685 0.949 . S
C1690 C1696 1.368 . S
C1691 C1675 1.349 . S
C1691 H1683 0.950 . S
C1691 C1689 1.327 . S
C1692 C1680 1.349 . S
C1692 H1686 0.950 . S
C1692 C1693 1.327 . S
C1693 H1687 0.950 . S
C1693 C1692 1.327 . S
C1693 C1697 1.429 . S
C1694 C1677 1.574 . S
C1694 H1688 0.949 . S
C1694 C1698 1.368 . S
C1695 C1676 1.429 . S
C1695 C1689 1.429 . S
C1695 C1696 1.523 . S
C1696 C1677 1.368 . S
C1696 C1690 1.368 . S
C1696 C1695 1.523 . S
C1697 C1681 1.429 . S
C1697 C1693 1.429 . S
C1697 C1698 1.523 . S
C1698 C1682 1.368 . S
C1698 C1694 1.368 . S
C1698 C1697 1.523 . S
H1699 C1674 0.950 . S
H1700 C1676 0.950 . S
H1701 C1677 0.949 . S
H1702 C1679 0.950 . S
H1703 C1681 0.950 . S
C1704 C1705 1.349 . S
C1704 C1706 1.327 . S
C1704 H1729 0.950 . S
C1705 C1704 1.349 . S
C1705 C1721 1.349 . S
C1706 C1704 1.327 . S
C1706 C1725 1.429 . S
C1706 H1730 0.950 . S
C1707 C1724 1.574 1_655 S
C1707 C1726 1.368 . S
C1707 H1731 0.949 . S
H1708 C1712 0.949 . S
C1709 C1710 1.349 . S
C1709 C1711 1.327 . S
C1709 H1732 0.950 . S
C1710 C1709 1.349 . S
C1710 C1722 1.349 . S
C1711 C1709 1.327 . S
C1711 C1727 1.429 . S
C1711 H1733 0.950 . S
C1712 H1708 0.949 . S
C1712 C1720 1.574 1_455 S
C1712 C1728 1.368 . S
H1713 C1721 0.950 . S
H1714 C1719 0.950 . S
H1715 C1720 0.949 . S
H1716 C1722 0.950 . S
H1717 C1723 0.950 . S
H1718 C1724 0.949 . S
C1719 H1714 0.950 . S
C1719 C1721 1.327 . S
C1719 C1725 1.429 . S
C1720 C1712 1.574 1_655 S
C1720 H1715 0.949 . S
C1720 C1726 1.368 . S
C1721 C1705 1.349 . S
C1721 H1713 0.950 . S
C1721 C1719 1.327 . S
C1722 C1710 1.349 . S
C1722 H1716 0.950 . S
C1722 C1723 1.327 . S
C1723 H1717 0.950 . S
C1723 C1722 1.327 . S
C1723 C1727 1.429 . S
C1724 C1707 1.574 1_455 S
C1724 H1718 0.949 . S
C1724 C1728 1.368 . S
C1725 C1706 1.429 . S
C1725 C1719 1.429 . S
C1725 C1726 1.523 . S
C1726 C1707 1.368 . S
C1726 C1720 1.368 . S
C1726 C1725 1.523 . S
C1727 C1711 1.429 . S
C1727 C1723 1.429 . S
C1727 C1728 1.523 . S
C1728 C1712 1.368 . S
C1728 C1724 1.368 . S
C1728 C1727 1.523 . S
H1729 C1704 0.950 . S
H1730 C1706 0.950 . S
H1731 C1707 0.949 . S
H1732 C1709 0.950 . S
H1733 C1711 0.950 . S
C1734 C1735 1.349 . S
C1734 C1736 1.327 . S
C1734 H1759 0.950 . S
C1735 C1734 1.349 . S
C1735 C1751 1.349 . S
C1736 C1734 1.327 . S
C1736 C1755 1.429 . S
C1736 H1760 0.950 . S
C1737 C1754 1.574 1_545 S
C1737 C1756 1.368 . S
C1737 H1761 0.949 . S
H1738 C1742 0.949 . S
C1739 C1740 1.349 . S
C1739 C1741 1.327 . S
C1739 H1762 0.950 . S
C1740 C1739 1.349 . S
C1740 C1752 1.349 . S
C1741 C1739 1.327 . S
C1741 C1757 1.429 . S
C1741 H1763 0.950 . S
C1742 H1738 0.949 . S
C1742 C1750 1.574 1_565 S
C1742 C1758 1.368 . S
H1743 C1751 0.950 . S
H1744 C1749 0.950 . S
H1745 C1750 0.949 . S
H1746 C1752 0.950 . S
H1747 C1753 0.950 . S
H1748 C1754 0.949 . S
C1749 H1744 0.950 . S
C1749 C1751 1.327 . S
C1749 C1755 1.429 . S
C1750 C1742 1.574 1_545 S
C1750 H1745 0.949 . S
C1750 C1756 1.368 . S
C1751 C1735 1.349 . S
C1751 H1743 0.950 . S
C1751 C1749 1.327 . S
C1752 C1740 1.349 . S
C1752 H1746 0.950 . S
C1752 C1753 1.327 . S
C1753 H1747 0.950 . S
C1753 C1752 1.327 . S
C1753 C1757 1.429 . S
C1754 C1737 1.574 1_565 S
C1754 H1748 0.949 . S
C1754 C1758 1.368 . S
C1755 C1736 1.429 . S
C1755 C1749 1.429 . S
C1755 C1756 1.523 . S
C1756 C1737 1.368 . S
C1756 C1750 1.368 . S
C1756 C1755 1.523 . S
C1757 C1741 1.429 . S
C1757 C1753 1.429 . S
C1757 C1758 1.523 . S
C1758 C1742 1.368 . S
C1758 C1754 1.368 . S
C1758 C1757 1.523 . S
H1759 C1734 0.950 . S
H1760 C1736 0.950 . S
H1761 C1737 0.949 . S
H1762 C1739 0.950 . S
H1763 C1741 0.950 . S
C1764 C1765 1.349 . S
C1764 C1766 1.327 . S
C1764 H1789 0.950 . S
C1765 C1764 1.349 . S
C1765 C1781 1.349 . S
C1766 C1764 1.327 . S
C1766 C1785 1.429 . S
C1766 H1790 0.950 . S
C1767 C1784 1.574 . S
C1767 C1786 1.368 . S
C1767 H1791 0.949 . S
H1768 C1772 0.949 . S
C1769 C1770 1.349 . S
C1769 C1771 1.327 . S
C1769 H1792 0.950 . S
C1770 C1769 1.349 . S
C1770 C1782 1.349 . S
C1771 C1769 1.327 . S
C1771 C1787 1.429 . S
C1771 H1793 0.950 . S
C1772 H1768 0.949 . S
C1772 C1780 1.574 . S
C1772 C1788 1.368 . S
H1773 C1781 0.950 . S
H1774 C1779 0.950 . S
H1775 C1780 0.949 . S
H1776 C1782 0.950 . S
H1777 C1783 0.950 . S
H1778 C1784 0.949 . S
C1779 H1774 0.950 . S
C1779 C1781 1.327 . S
C1779 C1785 1.429 . S
C1780 C1772 1.574 . S
C1780 H1775 0.949 . S
C1780 C1786 1.368 . S
C1781 C1765 1.349 . S
C1781 H1773 0.950 . S
C1781 C1779 1.327 . S
C1782 C1770 1.349 . S
C1782 H1776 0.950 . S
C1782 C1783 1.327 . S
C1783 H1777 0.950 . S
C1783 C1782 1.327 . S
C1783 C1787 1.429 . S
C1784 C1767 1.574 . S
C1784 H1778 0.949 . S
C1784 C1788 1.368 . S
C1785 C1766 1.429 . S
C1785 C1779 1.429 . S
C1785 C1786 1.523 . S
C1786 C1767 1.368 . S
C1786 C1780 1.368 . S
C1786 C1785 1.523 . S
C1787 C1771 1.429 . S
C1787 C1783 1.429 . S
C1787 C1788 1.523 . S
C1788 C1772 1.368 . S
C1788 C1784 1.368 . S
C1788 C1787 1.523 . S
H1789 C1764 0.950 . S
H1790 C1766 0.950 . S
H1791 C1767 0.949 . S
H1792 C1769 0.950 . S
H1793 C1771 0.950 . S
C1794 C1795 1.349 . S
C1794 C1796 1.327 . S
C1794 H1819 0.950 . S
C1795 C1794 1.349 . S
C1795 C1811 1.349 . S
C1796 C1794 1.327 . S
C1796 C1815 1.429 . S
C1796 H1820 0.950 . S
C1797 C1814 1.574 1_655 S
C1797 C1816 1.368 . S
C1797 H1821 0.949 . S
H1798 C1802 0.949 . S
C1799 C1800 1.349 . S
C1799 C1801 1.327 . S
C1799 H1822 0.950 . S
C1800 C1799 1.349 . S
C1800 C1812 1.349 . S
C1801 C1799 1.327 . S
C1801 C1817 1.429 . S
C1801 H1823 0.950 . S
C1802 H1798 0.949 . S
C1802 C1810 1.574 1_455 S
C1802 C1818 1.368 . S
H1803 C1811 0.950 . S
H1804 C1809 0.950 . S
H1805 C1810 0.949 . S
H1806 C1812 0.950 . S
H1807 C1813 0.950 . S
H1808 C1814 0.949 . S
C1809 H1804 0.950 . S
C1809 C1811 1.327 . S
C1809 C1815 1.429 . S
C1810 C1802 1.574 1_655 S
C1810 H1805 0.949 . S
C1810 C1816 1.368 . S
C1811 C1795 1.349 . S
C1811 H1803 0.950 . S
C1811 C1809 1.327 . S
C1812 C1800 1.349 . S
C1812 H1806 0.950 . S
C1812 C1813 1.327 . S
C1813 H1807 0.950 . S
C1813 C1812 1.327 . S
C1813 C1817 1.429 . S
C1814 C1797 1.574 1_455 S
C1814 H1808 0.949 . S
C1814 C1818 1.368 . S
C1815 C1796 1.429 . S
C1815 C1809 1.429 . S
C1815 C1816 1.523 . S
C1816 C1797 1.368 . S
C1816 C1810 1.368 . S
C1816 C1815 1.523 . S
C1817 C1801 1.429 . S
C1817 C1813 1.429 . S
C1817 C1818 1.523 . S
C1818 C1802 1.368 . S
C1818 C1814 1.368 . S
C1818 C1817 1.523 . S
H1819 C1794 0.950 . S
H1820 C1796 0.950 . S
H1821 C1797 0.949 . S
H1822 C1799 0.950 . S
H1823 C1801 0.950 . S
C1824 C1825 1.349 . S
C1824 C1826 1.327 . S
C1824 H1849 0.950 . S
C1825 C1824 1.349 . S
C1825 C1841 1.349 . S
C1826 C1824 1.327 . S
C1826 C1845 1.429 . S
C1826 H1850 0.950 . S
C1827 C1844 1.574 1_545 S
C1827 C1846 1.368 . S
C1827 H1851 0.949 . S
H1828 C1832 0.949 . S
C1829 C1830 1.349 . S
C1829 C1831 1.327 . S
C1829 H1852 0.950 . S
C1830 C1829 1.349 . S
C1830 C1842 1.349 . S
C1831 C1829 1.327 . S
C1831 C1847 1.429 . S
C1831 H1853 0.950 . S
C1832 H1828 0.949 . S
C1832 C1840 1.574 1_565 S
C1832 C1848 1.368 . S
H1833 C1841 0.950 . S
H1834 C1839 0.950 . S
H1835 C1840 0.949 . S
H1836 C1842 0.950 . S
H1837 C1843 0.950 . S
H1838 C1844 0.949 . S
C1839 H1834 0.950 . S
C1839 C1841 1.327 . S
C1839 C1845 1.429 . S
C1840 C1832 1.574 1_545 S
C1840 H1835 0.949 . S
C1840 C1846 1.368 . S
C1841 C1825 1.349 . S
C1841 H1833 0.950 . S
C1841 C1839 1.327 . S
C1842 C1830 1.349 . S
C1842 H1836 0.950 . S
C1842 C1843 1.327 . S
C1843 H1837 0.950 . S
C1843 C1842 1.327 . S
C1843 C1847 1.429 . S
C1844 C1827 1.574 1_565 S
C1844 H1838 0.949 . S
C1844 C1848 1.368 . S
C1845 C1826 1.429 . S
C1845 C1839 1.429 . S
C1845 C1846 1.523 . S
C1846 C1827 1.368 . S
C1846 C1840 1.368 . S
C1846 C1845 1.523 . S
C1847 C1831 1.429 . S
C1847 C1843 1.429 . S
C1847 C1848 1.523 . S
C1848 C1832 1.368 . S
C1848 C1844 1.368 . S
C1848 C1847 1.523 . S
H1849 C1824 0.950 . S
H1850 C1826 0.950 . S
H1851 C1827 0.949 . S
H1852 C1829 0.950 . S
H1853 C1831 0.950 . S
C1854 C1855 1.349 . S
C1854 C1856 1.327 . S
C1854 H1879 0.950 . S
C1855 C1854 1.349 . S
C1855 C1871 1.349 . S
C1856 C1854 1.327 . S
C1856 C1875 1.429 . S
C1856 H1880 0.950 . S
C1857 C1874 1.574 . S
C1857 C1876 1.368 . S
C1857 H1881 0.949 . S
H1858 C1862 0.949 . S
C1859 C1860 1.349 . S
C1859 C1861 1.327 . S
C1859 H1882 0.950 . S
C1860 C1859 1.349 . S
C1860 C1872 1.349 . S
C1861 C1859 1.327 . S
C1861 C1877 1.429 . S
C1861 H1883 0.950 . S
C1862 H1858 0.949 . S
C1862 C1870 1.574 . S
C1862 C1878 1.368 . S
H1863 C1871 0.950 . S
H1864 C1869 0.950 . S
H1865 C1870 0.949 . S
H1866 C1872 0.950 . S
H1867 C1873 0.950 . S
H1868 C1874 0.949 . S
C1869 H1864 0.950 . S
C1869 C1871 1.327 . S
C1869 C1875 1.429 . S
C1870 C1862 1.574 . S
C1870 H1865 0.949 . S
C1870 C1876 1.368 . S
C1871 C1855 1.349 . S
C1871 H1863 0.950 . S
C1871 C1869 1.327 . S
C1872 C1860 1.349 . S
C1872 H1866 0.950 . S
C1872 C1873 1.327 . S
C1873 H1867 0.950 . S
C1873 C1872 1.327 . S
C1873 C1877 1.429 . S
C1874 C1857 1.574 . S
C1874 H1868 0.949 . S
C1874 C1878 1.368 . S
C1875 C1856 1.429 . S
C1875 C1869 1.429 . S
C1875 C1876 1.523 . S
C1876 C1857 1.368 . S
C1876 C1870 1.368 . S
C1876 C1875 1.523 . S
C1877 C1861 1.429 . S
C1877 C1873 1.429 . S
C1877 C1878 1.523 . S
C1878 C1862 1.368 . S
C1878 C1874 1.368 . S
C1878 C1877 1.523 . S
H1879 C1854 0.950 . S
H1880 C1856 0.950 . S
H1881 C1857 0.949 . S
H1882 C1859 0.950 . S
H1883 C1861 0.950 . S
C1884 C1885 1.349 . S
C1884 C1886 1.327 . S
C1884 H1909 0.950 . S
C1885 C1884 1.349 . S
C1885 C1901 1.349 . S
C1886 C1884 1.327 . S
C1886 C1905 1.429 . S
C1886 H1910 0.950 . S
C1887 C1904 1.574 1_455 S
C1887 C1906 1.368 . S
C1887 H1911 0.949 . S
H1888 C1892 0.949 . S
C1889 C1890 1.349 . S
C1889 C1891 1.327 . S
C1889 H1912 0.950 . S
C1890 C1889 1.349 . S
C1890 C1902 1.349 . S
C1891 C1889 1.327 . S
C1891 C1907 1.429 . S
C1891 H1913 0.950 . S
C1892 H1888 0.949 . S
C1892 C1900 1.574 1_655 S
C1892 C1908 1.368 . S
H1893 C1901 0.950 . S
H1894 C1899 0.950 . S
H1895 C1900 0.949 . S
H1896 C1902 0.950 . S
H1897 C1903 0.950 . S
H1898 C1904 0.949 . S
C1899 H1894 0.950 . S
C1899 C1901 1.327 . S
C1899 C1905 1.429 . S
C1900 C1892 1.574 1_455 S
C1900 H1895 0.949 . S
C1900 C1906 1.368 . S
C1901 C1885 1.349 . S
C1901 H1893 0.950 . S
C1901 C1899 1.327 . S
C1902 C1890 1.349 . S
C1902 H1896 0.950 . S
C1902 C1903 1.327 . S
C1903 H1897 0.950 . S
C1903 C1902 1.327 . S
C1903 C1907 1.429 . S
C1904 C1887 1.574 1_655 S
C1904 H1898 0.949 . S
C1904 C1908 1.368 . S
C1905 C1886 1.429 . S
C1905 C1899 1.429 . S
C1905 C1906 1.523 . S
C1906 C1887 1.368 . S
C1906 C1900 1.368 . S
C1906 C1905 1.523 . S
C1907 C1891 1.429 . S
C1907 C1903 1.429 . S
C1907 C1908 1.523 . S
C1908 C1892 1.368 . S
C1908 C1904 1.368 . S
C1908 C1907 1.523 . S
H1909 C1884 0.950 . S
H1910 C1886 0.950 . S
H1911 C1887 0.949 . S
H1912 C1889 0.950 . S
H1913 C1891 0.950 . S
C1914 C1915 1.349 . S
C1914 C1916 1.327 . S
C1914 H1939 0.950 . S
C1915 C1914 1.349 . S
C1915 C1931 1.349 . S
C1916 C1914 1.327 . S
C1916 C1935 1.429 . S
C1916 H1940 0.950 . S
C1917 C1934 1.574 1_565 S
C1917 C1936 1.368 . S
C1917 H1941 0.949 . S
H1918 C1922 0.949 . S
C1919 C1920 1.349 . S
C1919 C1921 1.327 . S
C1919 H1942 0.950 . S
C1920 C1919 1.349 . S
C1920 C1932 1.349 . S
C1921 C1919 1.327 . S
C1921 C1937 1.429 . S
C1921 H1943 0.950 . S
C1922 H1918 0.949 . S
C1922 C1930 1.574 1_545 S
C1922 C1938 1.368 . S
H1923 C1931 0.950 . S
H1924 C1929 0.950 . S
H1925 C1930 0.949 . S
H1926 C1932 0.950 . S
H1927 C1933 0.950 . S
H1928 C1934 0.949 . S
C1929 H1924 0.950 . S
C1929 C1931 1.327 . S
C1929 C1935 1.429 . S
C1930 C1922 1.574 1_565 S
C1930 H1925 0.949 . S
C1930 C1936 1.368 . S
C1931 C1915 1.349 . S
C1931 H1923 0.950 . S
C1931 C1929 1.327 . S
C1932 C1920 1.349 . S
C1932 H1926 0.950 . S
C1932 C1933 1.327 . S
C1933 H1927 0.950 . S
C1933 C1932 1.327 . S
C1933 C1937 1.429 . S
C1934 C1917 1.574 1_545 S
C1934 H1928 0.949 . S
C1934 C1938 1.368 . S
C1935 C1916 1.429 . S
C1935 C1929 1.429 . S
C1935 C1936 1.523 . S
C1936 C1917 1.368 . S
C1936 C1930 1.368 . S
C1936 C1935 1.523 . S
C1937 C1921 1.429 . S
C1937 C1933 1.429 . S
C1937 C1938 1.523 . S
C1938 C1922 1.368 . S
C1938 C1934 1.368 . S
C1938 C1937 1.523 . S
H1939 C1914 0.950 . S
H1940 C1916 0.950 . S
H1941 C1917 0.949 . S
H1942 C1919 0.950 . S
H1943 C1921 0.950 . S
C1944 C1945 1.349 . S
C1944 C1946 1.327 . S
C1944 H1969 0.950 . S
C1945 C1944 1.349 . S
C1945 C1961 1.349 . S
C1946 C1944 1.327 . S
C1946 C1965 1.429 . S
C1946 H1970 0.950 . S
C1947 C1964 1.561 1_556 S
C1947 C1966 1.381 . S
C1947 H1971 0.951 . S
H1948 C1952 0.951 . S
C1949 C1950 1.349 . S
C1949 C1951 1.327 . S
C1949 H1972 0.950 . S
C1950 C1949 1.349 . S
C1950 C1962 1.349 . S
C1951 C1949 1.327 . S
C1951 C1967 1.429 . S
C1951 H1973 0.950 . S
C1952 H1948 0.951 . S
C1952 C1960 1.561 1_554 S
C1952 C1968 1.381 . S
H1953 C1961 0.950 . S
H1954 C1959 0.950 . S
H1955 C1960 0.949 . S
H1956 C1962 0.950 . S
H1957 C1963 0.950 . S
H1958 C1964 0.949 . S
C1959 H1954 0.950 . S
C1959 C1961 1.327 . S
C1959 C1965 1.429 . S
C1960 C1952 1.561 1_556 S
C1960 H1955 0.949 . S
C1960 C1966 1.368 . S
C1961 C1945 1.349 . S
C1961 H1953 0.950 . S
C1961 C1959 1.327 . S
C1962 C1950 1.349 . S
C1962 H1956 0.950 . S
C1962 C1963 1.327 . S
C1963 H1957 0.950 . S
C1963 C1962 1.327 . S
C1963 C1967 1.429 . S
C1964 C1947 1.561 1_554 S
C1964 H1958 0.949 . S
C1964 C1968 1.368 . S
C1965 C1946 1.429 . S
C1965 C1959 1.429 . S
C1965 C1966 1.523 . S
C1966 C1947 1.381 . S
C1966 C1960 1.368 . S
C1966 C1965 1.523 . S
C1967 C1951 1.429 . S
C1967 C1963 1.429 . S
C1967 C1968 1.523 . S
C1968 C1952 1.381 . S
C1968 C1964 1.368 . S
C1968 C1967 1.523 . S
H1969 C1944 0.950 . S
H1970 C1946 0.950 . S
H1971 C1947 0.951 . S
H1972 C1949 0.950 . S
H1973 C1951 0.950 . S
C1974 C1975 1.349 . S
C1974 C1976 1.327 . S
C1974 H1999 0.950 . S
C1975 C1974 1.349 . S
C1975 C1991 1.349 . S
C1976 C1974 1.327 . S
C1976 C1995 1.429 . S
C1976 H2000 0.950 . S
C1977 C1994 1.574 . S
C1977 C1996 1.368 . S
C1977 H2001 0.949 . S
H1978 C1982 0.949 . S
C1979 C1980 1.349 . S
C1979 C1981 1.327 . S
C1979 H2002 0.950 . S
C1980 C1979 1.349 . S
C1980 C1992 1.349 . S
C1981 C1979 1.327 . S
C1981 C1997 1.429 . S
C1981 H2003 0.950 . S
C1982 H1978 0.949 . S
C1982 C1990 1.574 . S
C1982 C1998 1.368 . S
H1983 C1991 0.950 . S
H1984 C1989 0.950 . S
H1985 C1990 0.949 . S
H1986 C1992 0.950 . S
H1987 C1993 0.950 . S
H1988 C1994 0.949 . S
C1989 H1984 0.950 . S
C1989 C1991 1.327 . S
C1989 C1995 1.429 . S
C1990 C1982 1.574 . S
C1990 H1985 0.949 . S
C1990 C1996 1.368 . S
C1991 C1975 1.349 . S
C1991 H1983 0.950 . S
C1991 C1989 1.327 . S
C1992 C1980 1.349 . S
C1992 H1986 0.950 . S
C1992 C1993 1.327 . S
C1993 H1987 0.950 . S
C1993 C1992 1.327 . S
C1993 C1997 1.429 . S
C1994 C1977 1.574 . S
C1994 H1988 0.949 . S
C1994 C1998 1.368 . S
C1995 C1976 1.429 . S
C1995 C1989 1.429 . S
C1995 C1996 1.523 . S
C1996 C1977 1.368 . S
C1996 C1990 1.368 . S
C1996 C1995 1.523 . S
C1997 C1981 1.429 . S
C1997 C1993 1.429 . S
C1997 C1998 1.523 . S
C1998 C1982 1.368 . S
C1998 C1994 1.368 . S
C1998 C1997 1.523 . S
H1999 C1974 0.950 . S
H2000 C1976 0.950 . S
H2001 C1977 0.949 . S
H2002 C1979 0.950 . S
H2003 C1981 0.950 . S
C2004 C2005 1.349 . S
C2004 C2006 1.327 . S
C2004 H2029 0.950 . S
C2005 C2004 1.349 . S
C2005 C2021 1.349 . S
C2006 C2004 1.327 . S
C2006 C2025 1.429 . S
C2006 H2030 0.950 . S
C2007 C2024 1.574 . S
C2007 C2026 1.368 . S
C2007 H2031 0.949 . S
H2008 C2012 0.949 . S
C2009 C2010 1.349 . S
C2009 C2011 1.327 . S
C2009 H2032 0.950 . S
C2010 C2009 1.349 . S
C2010 C2022 1.349 . S
C2011 C2009 1.327 . S
C2011 C2027 1.429 . S
C2011 H2033 0.950 . S
C2012 H2008 0.949 . S
C2012 C2020 1.574 . S
C2012 C2028 1.368 . S
H2013 C2021 0.950 . S
H2014 C2019 0.950 . S
H2015 C2020 0.949 . S
H2016 C2022 0.950 . S
H2017 C2023 0.950 . S
H2018 C2024 0.949 . S
C2019 H2014 0.950 . S
C2019 C2021 1.327 . S
C2019 C2025 1.429 . S
C2020 C2012 1.574 . S
C2020 H2015 0.949 . S
C2020 C2026 1.368 1_554 S
C2021 C2005 1.349 . S
C2021 H2013 0.950 . S
C2021 C2019 1.327 . S
C2022 C2010 1.349 . S
C2022 H2016 0.950 . S
C2022 C2023 1.327 . S
C2023 H2017 0.950 . S
C2023 C2022 1.327 . S
C2023 C2027 1.429 . S
C2024 C2007 1.574 . S
C2024 H2018 0.949 . S
C2024 C2028 1.368 1_556 S
C2025 C2006 1.429 . S
C2025 C2019 1.429 . S
C2025 C2026 1.523 . S
C2026 C2007 1.368 . S
C2026 C2020 1.368 1_556 S
C2026 C2025 1.523 . S
C2027 C2011 1.429 . S
C2027 C2023 1.429 . S
C2027 C2028 1.523 . S
C2028 C2012 1.368 . S
C2028 C2024 1.368 1_554 S
C2028 C2027 1.523 . S
H2029 C2004 0.950 . S
H2030 C2006 0.950 . S
H2031 C2007 0.949 . S
H2032 C2009 0.950 . S
H2033 C2011 0.950 . S
C2034 C2035 1.349 . S
C2034 C2036 1.327 . S
C2034 H2059 0.950 . S
C2035 C2034 1.349 . S
C2035 C2051 1.349 . S
C2036 C2034 1.327 . S
C2036 C2055 1.429 . S
C2036 H2060 0.950 . S
C2037 C2054 1.574 . S
C2037 C2056 1.368 . S
C2037 H2061 0.949 . S
H2038 C2042 0.949 . S
C2039 C2040 1.349 . S
C2039 C2041 1.327 . S
C2039 H2062 0.950 . S
C2040 C2039 1.349 . S
C2040 C2052 1.349 . S
C2041 C2039 1.327 . S
C2041 C2057 1.429 . S
C2041 H2063 0.950 . S
C2042 H2038 0.949 . S
C2042 C2050 1.574 . S
C2042 C2058 1.368 . S
H2043 C2051 0.950 . S
H2044 C2049 0.950 . S
H2045 C2050 0.949 . S
H2046 C2052 0.950 . S
H2047 C2053 0.950 . S
H2048 C2054 0.949 . S
C2049 H2044 0.950 . S
C2049 C2051 1.327 . S
C2049 C2055 1.429 . S
C2050 C2042 1.574 . S
C2050 H2045 0.949 . S
C2050 C2056 1.368 . S
C2051 C2035 1.349 . S
C2051 H2043 0.950 . S
C2051 C2049 1.327 . S
C2052 C2040 1.349 . S
C2052 H2046 0.950 . S
C2052 C2053 1.327 . S
C2053 H2047 0.950 . S
C2053 C2052 1.327 . S
C2053 C2057 1.429 . S
C2054 C2037 1.574 . S
C2054 H2048 0.949 . S
C2054 C2058 1.368 . S
C2055 C2036 1.429 . S
C2055 C2049 1.429 . S
C2055 C2056 1.523 . S
C2056 C2037 1.368 . S
C2056 C2050 1.368 . S
C2056 C2055 1.523 . S
C2057 C2041 1.429 . S
C2057 C2053 1.429 . S
C2057 C2058 1.523 . S
C2058 C2042 1.368 . S
C2058 C2054 1.368 . S
C2058 C2057 1.523 . S
H2059 C2034 0.950 . S
H2060 C2036 0.950 . S
H2061 C2037 0.949 . S
H2062 C2039 0.950 . S
H2063 C2041 0.950 . S
C2064 C2065 1.349 . S
C2064 C2066 1.327 . S
C2064 H2089 0.950 . S
C2065 C2064 1.349 . S
C2065 C2081 1.349 . S
C2066 C2064 1.327 . S
C2066 C2085 1.429 . S
C2066 H2090 0.950 1_556 S
C2067 C2084 1.574 . S
C2067 C2086 1.368 . S
C2067 H2091 0.949 . S
H2068 C2072 0.949 . S
C2069 C2070 1.349 . S
C2069 C2071 1.327 . S
C2069 H2092 0.950 . S
C2070 C2069 1.349 . S
C2070 C2082 1.349 . S
C2071 C2069 1.327 . S
C2071 C2087 1.429 . S
C2071 H2093 0.950 1_554 S
C2072 H2068 0.949 . S
C2072 C2080 1.574 . S
C2072 C2088 1.368 . S
H2073 C2081 0.950 . S
H2074 C2079 0.950 . S
H2075 C2080 0.949 . S
H2076 C2082 0.950 . S
H2077 C2083 0.950 . S
H2078 C2084 0.949 . S
C2079 H2074 0.950 . S
C2079 C2081 1.327 . S
C2079 C2085 1.429 . S
C2080 C2072 1.574 . S
C2080 H2075 0.949 . S
C2080 C2086 1.368 1_554 S
C2081 C2065 1.349 . S
C2081 H2073 0.950 . S
C2081 C2079 1.327 . S
C2082 C2070 1.349 . S
C2082 H2076 0.950 . S
C2082 C2083 1.327 . S
C2083 H2077 0.950 . S
C2083 C2082 1.327 . S
C2083 C2087 1.429 . S
C2084 C2067 1.574 . S
C2084 H2078 0.949 . S
C2084 C2088 1.368 1_556 S
C2085 C2066 1.429 . S
C2085 C2079 1.429 . S
C2085 C2086 1.523 . S
C2086 C2067 1.368 . S
C2086 C2080 1.368 1_556 S
C2086 C2085 1.523 . S
C2087 C2071 1.429 . S
C2087 C2083 1.429 . S
C2087 C2088 1.523 . S
C2088 C2072 1.368 . S
C2088 C2084 1.368 1_554 S
C2088 C2087 1.523 . S
H2089 C2064 0.950 . S
H2090 C2066 0.950 1_554 S
H2091 C2067 0.949 . S
H2092 C2069 0.950 . S
H2093 C2071 0.950 1_556 S
C2094 C2095 1.349 . S
C2094 C2096 1.327 . S
C2094 H2119 0.950 . S
C2095 C2094 1.349 . S
C2095 C2111 1.349 . S
C2096 C2094 1.327 . S
C2096 C2115 1.429 . S
C2096 H2120 0.950 . S
C2097 C2114 1.574 . S
C2097 C2116 1.368 . S
C2097 H2121 0.949 . S
H2098 C2102 0.949 . S
C2099 C2100 1.349 . S
C2099 C2101 1.327 . S
C2099 H2122 0.950 . S
C2100 C2099 1.349 . S
C2100 C2112 1.349 . S
C2101 C2099 1.327 . S
C2101 C2117 1.429 . S
C2101 H2123 0.950 . S
C2102 H2098 0.949 . S
C2102 C2110 1.574 . S
C2102 C2118 1.368 . S
H2103 C2111 0.950 . S
H2104 C2109 0.950 . S
H2105 C2110 0.949 . S
H2106 C2112 0.950 . S
H2107 C2113 0.950 . S
H2108 C2114 0.949 . S
C2109 H2104 0.950 . S
C2109 C2111 1.327 . S
C2109 C2115 1.429 . S
C2110 C2102 1.574 . S
C2110 H2105 0.949 . S
C2110 C2116 1.368 . S
C2111 C2095 1.349 . S
C2111 H2103 0.950 . S
C2111 C2109 1.327 . S
C2112 C2100 1.349 . S
C2112 H2106 0.950 . S
C2112 C2113 1.327 . S
C2113 H2107 0.950 . S
C2113 C2112 1.327 . S
C2113 C2117 1.429 . S
C2114 C2097 1.574 . S
C2114 H2108 0.949 . S
C2114 C2118 1.368 . S
C2115 C2096 1.429 . S
C2115 C2109 1.429 . S
C2115 C2116 1.523 . S
C2116 C2097 1.368 . S
C2116 C2110 1.368 . S
C2116 C2115 1.523 . S
C2117 C2101 1.429 . S
C2117 C2113 1.429 . S
C2117 C2118 1.523 . S
C2118 C2102 1.368 . S
C2118 C2114 1.368 . S
C2118 C2117 1.523 . S
H2119 C2094 0.950 . S
H2120 C2096 0.950 . S
H2121 C2097 0.949 . S
H2122 C2099 0.950 . S
H2123 C2101 0.950 . S
C2124 C2125 1.349 . S
C2124 C2126 1.327 . S
C2124 H2149 0.950 . S
C2125 C2124 1.349 . S
C2125 C2141 1.349 . S
C2126 C2124 1.327 . S
C2126 C2145 1.429 . S
C2126 H2150 0.950 1_554 S
C2127 C2144 1.574 . S
C2127 C2146 1.368 . S
C2127 H2151 0.949 . S
H2128 C2132 0.949 . S
C2129 C2130 1.349 . S
C2129 C2131 1.327 . S
C2129 H2152 0.950 . S
C2130 C2129 1.349 . S
C2130 C2142 1.349 . S
C2131 C2129 1.327 . S
C2131 C2147 1.429 . S
C2131 H2153 0.950 1_556 S
C2132 H2128 0.949 . S
C2132 C2140 1.574 . S
C2132 C2148 1.368 . S
H2133 C2141 0.950 . S
H2134 C2139 0.950 . S
H2135 C2140 0.949 . S
H2136 C2142 0.950 . S
H2137 C2143 0.950 . S
H2138 C2144 0.949 . S
C2139 H2134 0.950 . S
C2139 C2141 1.327 . S
C2139 C2145 1.429 . S
C2140 C2132 1.574 . S
C2140 H2135 0.949 . S
C2140 C2146 1.368 1_556 S
C2141 C2125 1.349 . S
C2141 H2133 0.950 . S
C2141 C2139 1.327 . S
C2142 C2130 1.349 . S
C2142 H2136 0.950 . S
C2142 C2143 1.327 . S
C2143 H2137 0.950 . S
C2143 C2142 1.327 . S
C2143 C2147 1.429 . S
C2144 C2127 1.574 . S
C2144 H2138 0.949 . S
C2144 C2148 1.368 1_554 S
C2145 C2126 1.429 . S
C2145 C2139 1.429 . S
C2145 C2146 1.523 . S
C2146 C2127 1.368 . S
C2146 C2140 1.368 1_554 S
C2146 C2145 1.523 . S
C2147 C2131 1.429 . S
C2147 C2143 1.429 . S
C2147 C2148 1.523 . S
C2148 C2132 1.368 . S
C2148 C2144 1.368 1_556 S
C2148 C2147 1.523 . S
H2149 C2124 0.950 . S
H2150 C2126 0.950 1_556 S
H2151 C2127 0.949 . S
H2152 C2129 0.950 . S
H2153 C2131 0.950 1_554 S
C2154 C2155 1.349 . S
C2154 C2156 1.327 . S
C2154 H2179 0.950 . S
C2155 C2154 1.349 . S
C2155 C2171 1.349 . S
C2156 C2154 1.327 . S
C2156 C2175 1.429 . S
C2156 H2180 0.950 . S
C2157 C2174 1.574 . S
C2157 C2176 1.368 . S
C2157 H2181 0.949 . S
H2158 C2162 0.949 . S
C2159 C2160 1.349 . S
C2159 C2161 1.327 . S
C2159 H2182 0.950 . S
C2160 C2159 1.349 . S
C2160 C2172 1.349 . S
C2161 C2159 1.327 . S
C2161 C2177 1.429 . S
C2161 H2183 0.950 . S
C2162 H2158 0.949 . S
C2162 C2170 1.574 . S
C2162 C2178 1.368 . S
H2163 C2171 0.950 . S
H2164 C2169 0.950 . S
H2165 C2170 0.949 . S
H2166 C2172 0.950 . S
H2167 C2173 0.950 . S
H2168 C2174 0.949 . S
C2169 H2164 0.950 . S
C2169 C2171 1.327 . S
C2169 C2175 1.429 . S
C2170 C2162 1.574 . S
C2170 H2165 0.949 . S
C2170 C2176 1.368 . S
C2171 C2155 1.349 . S
C2171 H2163 0.950 . S
C2171 C2169 1.327 . S
C2172 C2160 1.349 . S
C2172 H2166 0.950 . S
C2172 C2173 1.327 . S
C2173 H2167 0.950 . S
C2173 C2172 1.327 . S
C2173 C2177 1.429 . S
C2174 C2157 1.574 . S
C2174 H2168 0.949 . S
C2174 C2178 1.368 . S
C2175 C2156 1.429 . S
C2175 C2169 1.429 . S
C2175 C2176 1.523 . S
C2176 C2157 1.368 . S
C2176 C2170 1.368 . S
C2176 C2175 1.523 . S
C2177 C2161 1.429 . S
C2177 C2173 1.429 . S
C2177 C2178 1.523 . S
C2178 C2162 1.368 . S
C2178 C2174 1.368 . S
C2178 C2177 1.523 . S
H2179 C2154 0.950 . S
H2180 C2156 0.950 . S
H2181 C2157 0.949 . S
H2182 C2159 0.950 . S
H2183 C2161 0.950 . S
C2184 C2185 1.349 . S
C2184 C2186 1.327 . S
C2184 H2209 0.950 . S
C2185 C2184 1.349 . S
C2185 C2201 1.349 . S
C2186 C2184 1.327 . S
C2186 C2205 1.429 . S
C2186 H2210 0.950 . S
C2187 C2204 1.574 . S
C2187 C2206 1.368 1_556 S
C2187 H2211 0.949 . S
H2188 C2192 0.949 . S
C2189 C2190 1.349 . S
C2189 C2191 1.327 . S
C2189 H2212 0.950 . S
C2190 C2189 1.349 . S
C2190 C2202 1.349 . S
C2191 C2189 1.327 . S
C2191 C2207 1.429 . S
C2191 H2213 0.950 . S
C2192 H2188 0.949 . S
C2192 C2200 1.574 . S
C2192 C2208 1.368 1_554 S
H2193 C2201 0.950 . S
H2194 C2199 0.950 . S
H2195 C2200 0.949 . S
H2196 C2202 0.950 . S
H2197 C2203 0.950 . S
H2198 C2204 0.949 . S
C2199 H2194 0.950 . S
C2199 C2201 1.327 . S
C2199 C2205 1.429 . S
C2200 C2192 1.574 . S
C2200 H2195 0.949 . S
C2200 C2206 1.368 . S
C2201 C2185 1.349 . S
C2201 H2193 0.950 . S
C2201 C2199 1.327 . S
C2202 C2190 1.349 . S
C2202 H2196 0.950 . S
C2202 C2203 1.327 . S
C2203 H2197 0.950 . S
C2203 C2202 1.327 . S
C2203 C2207 1.429 . S
C2204 C2187 1.574 . S
C2204 H2198 0.949 . S
C2204 C2208 1.368 . S
C2205 C2186 1.429 . S
C2205 C2199 1.429 . S
C2205 C2206 1.523 . S
C2206 C2187 1.368 1_554 S
C2206 C2200 1.368 . S
C2206 C2205 1.523 . S
C2207 C2191 1.429 . S
C2207 C2203 1.429 . S
C2207 C2208 1.523 . S
C2208 C2192 1.368 1_556 S
C2208 C2204 1.368 . S
C2208 C2207 1.523 . S
H2209 C2184 0.950 . S
H2210 C2186 0.950 . S
H2211 C2187 0.949 . S
H2212 C2189 0.950 . S
H2213 C2191 0.950 . S
C2214 C2215 1.349 . S
C2214 C2216 1.327 . S
C2214 H2239 0.950 . S
C2215 C2214 1.349 . S
C2215 C2231 1.349 . S
C2216 C2214 1.327 . S
C2216 C2235 1.429 . S
C2216 H2240 0.950 . S
C2217 C2234 1.574 . S
C2217 C2236 1.368 . S
C2217 H2241 0.949 . S
H2218 C2222 0.949 . S
C2219 C2220 1.349 . S
C2219 C2221 1.327 . S
C2219 H2242 0.950 . S
C2220 C2219 1.349 . S
C2220 C2232 1.349 . S
C2221 C2219 1.327 . S
C2221 C2237 1.429 . S
C2221 H2243 0.950 . S
C2222 H2218 0.949 . S
C2222 C2230 1.574 . S
C2222 C2238 1.368 . S
H2223 C2231 0.950 . S
H2224 C2229 0.950 . S
H2225 C2230 0.949 . S
H2226 C2232 0.950 . S
H2227 C2233 0.950 . S
H2228 C2234 0.949 . S
C2229 H2224 0.950 . S
C2229 C2231 1.327 . S
C2229 C2235 1.429 . S
C2230 C2222 1.574 . S
C2230 H2225 0.949 . S
C2230 C2236 1.368 . S
C2231 C2215 1.349 . S
C2231 H2223 0.950 . S
C2231 C2229 1.327 . S
C2232 C2220 1.349 . S
C2232 H2226 0.950 . S
C2232 C2233 1.327 . S
C2233 H2227 0.950 . S
C2233 C2232 1.327 . S
C2233 C2237 1.429 . S
C2234 C2217 1.574 . S
C2234 H2228 0.949 . S
C2234 C2238 1.368 . S
C2235 C2216 1.429 . S
C2235 C2229 1.429 . S
C2235 C2236 1.523 . S
C2236 C2217 1.368 . S
C2236 C2230 1.368 . S
C2236 C2235 1.523 . S
C2237 C2221 1.429 . S
C2237 C2233 1.429 . S
C2237 C2238 1.523 . S
C2238 C2222 1.368 . S
C2238 C2234 1.368 . S
C2238 C2237 1.523 . S
H2239 C2214 0.950 . S
H2240 C2216 0.950 . S
H2241 C2217 0.949 . S
H2242 C2219 0.950 . S
H2243 C2221 0.950 . S
C2244 C2245 1.349 . S
C2244 C2246 1.327 . S
C2244 H2269 0.950 . S
C2245 C2244 1.349 . S
C2245 C2261 1.349 . S
C2246 C2244 1.327 . S
C2246 C2265 1.429 . S
C2246 H2270 0.950 . S
C2247 C2264 1.574 . S
C2247 C2266 1.368 1_554 S
C2247 H2271 0.949 . S
H2248 C2252 0.949 . S
C2249 C2250 1.349 . S
C2249 C2251 1.327 . S
C2249 H2272 0.950 . S
C2250 C2249 1.349 . S
C2250 C2262 1.349 . S
C2251 C2249 1.327 . S
C2251 C2267 1.429 . S
C2251 H2273 0.950 . S
C2252 H2248 0.949 . S
C2252 C2260 1.574 . S
C2252 C2268 1.368 1_556 S
H2253 C2261 0.950 . S
H2254 C2259 0.950 1_554 S
H2255 C2260 0.949 . S
H2256 C2262 0.950 . S
H2257 C2263 0.950 1_556 S
H2258 C2264 0.949 . S
C2259 H2254 0.950 1_556 S
C2259 C2261 1.327 . S
C2259 C2265 1.429 . S
C2260 C2252 1.574 . S
C2260 H2255 0.949 . S
C2260 C2266 1.368 . S
C2261 C2245 1.349 . S
C2261 H2253 0.950 . S
C2261 C2259 1.327 . S
C2262 C2250 1.349 . S
C2262 H2256 0.950 . S
C2262 C2263 1.327 . S
C2263 H2257 0.950 1_554 S
C2263 C2262 1.327 . S
C2263 C2267 1.429 . S
C2264 C2247 1.574 . S
C2264 H2258 0.949 . S
C2264 C2268 1.368 . S
C2265 C2246 1.429 . S
C2265 C2259 1.429 . S
C2265 C2266 1.523 . S
C2266 C2247 1.368 1_556 S
C2266 C2260 1.368 . S
C2266 C2265 1.523 . S
C2267 C2251 1.429 . S
C2267 C2263 1.429 . S
C2267 C2268 1.523 . S
C2268 C2252 1.368 1_554 S
C2268 C2264 1.368 . S
C2268 C2267 1.523 . S
H2269 C2244 0.950 . S
H2270 C2246 0.950 . S
H2271 C2247 0.949 . S
H2272 C2249 0.950 . S
H2273 C2251 0.950 . S
C2274 C2275 1.349 . S
C2274 C2276 1.327 . S
C2274 H2299 0.950 . S
C2275 C2274 1.349 . S
C2275 C2291 1.349 . S
C2276 C2274 1.327 . S
C2276 C2295 1.429 . S
C2276 H2300 0.950 . S
C2277 C2294 1.574 . S
C2277 C2296 1.368 . S
C2277 H2301 0.949 . S
H2278 C2282 0.949 . S
C2279 C2280 1.349 . S
C2279 C2281 1.327 . S
C2279 H2302 0.950 . S
C2280 C2279 1.349 . S
C2280 C2292 1.349 . S
C2281 C2279 1.327 . S
C2281 C2297 1.429 . S
C2281 H2303 0.950 . S
C2282 H2278 0.949 . S
C2282 C2290 1.574 . S
C2282 C2298 1.368 . S
H2283 C2291 0.950 . S
H2284 C2289 0.950 . S
H2285 C2290 0.949 . S
H2286 C2292 0.950 . S
H2287 C2293 0.950 . S
H2288 C2294 0.949 . S
C2289 H2284 0.950 . S
C2289 C2291 1.327 . S
C2289 C2295 1.429 . S
C2290 C2282 1.574 . S
C2290 H2285 0.949 . S
C2290 C2296 1.368 . S
C2291 C2275 1.349 . S
C2291 H2283 0.950 . S
C2291 C2289 1.327 . S
C2292 C2280 1.349 . S
C2292 H2286 0.950 . S
C2292 C2293 1.327 . S
C2293 H2287 0.950 . S
C2293 C2292 1.327 . S
C2293 C2297 1.429 . S
C2294 C2277 1.574 . S
C2294 H2288 0.949 . S
C2294 C2298 1.368 . S
C2295 C2276 1.429 . S
C2295 C2289 1.429 . S
C2295 C2296 1.523 . S
C2296 C2277 1.368 . S
C2296 C2290 1.368 . S
C2296 C2295 1.523 . S
C2297 C2281 1.429 . S
C2297 C2293 1.429 . S
C2297 C2298 1.523 . S
C2298 C2282 1.368 . S
C2298 C2294 1.368 . S
C2298 C2297 1.523 . S
H2299 C2274 0.950 . S
H2300 C2276 0.950 . S
H2301 C2277 0.949 . S
H2302 C2279 0.950 . S
H2303 C2281 0.950 . S
C865 C14 1.368 . S
C870 C554 1.368 . S
C895 C50 1.368 . S
C900 C590 1.368 . S
C925 C626 1.367 . S
C930 C86 1.367 . S
C955 C446 1.368 . S
C960 C122 1.368 . S
C985 C482 1.368 . S
C990 C158 1.368 . S
C1015 C518 1.367 . S
C1020 C194 1.367 . S
C1045 C770 1.368 . S
C1050 C230 1.368 . S
C1075 C266 1.367 . S
C1080 C806 1.367 . S
C1105 C842 1.368 . S
C1110 C302 1.368 . S
C1135 C338 1.368 . S
C1140 C662 1.368 . S
C1165 C698 1.367 . S
C1170 C374 1.367 . S
C1195 C410 1.368 . S
C1200 C734 1.368 . S
C1225 C363 1.229 . S
C1230 C3 1.229 . S
C1255 C399 1.229 . S
C1260 C39 1.229 . S
C1285 C75 1.229 . S
C1290 C219 1.229 . S
C1315 C111 1.229 . S
C1320 C255 1.229 . S
C1345 C291 1.229 . S
C1350 C147 1.229 . S
C1375 C183 1.229 . S
C1380 C327 1.229 . S
C1405 C795 1.229 . S
C1410 C435 1.229 . S
C1435 C471 1.229 . S
C1440 C831 1.229 . S
C1465 C507 1.229 . S
C1470 C651 1.229 . S
C1495 C687 1.229 . S
C1500 C543 1.229 . S
C1525 C579 1.229 . S
C1530 C723 1.229 . S
C1555 C615 1.229 . S
C1560 C759 1.229 . S
C1585 C4 1.334 . S
C1590 C652 1.334 . S
C1615 C688 1.333 . S
C1620 C40 1.333 . S
C1645 C76 1.333 . S
C1650 C724 1.333 . S
C1675 C112 1.334 . S
C1680 C760 1.334 . S
C1705 C796 1.333 . S
C1710 C148 1.333 . S
C1735 C184 1.333 . S
C1740 C832 1.333 . S
C1765 C220 1.333 . S
C1770 C436 1.333 . S
C1795 C256 1.334 . S
C1800 C472 1.334 . S
C1825 C508 1.334 . S
C1830 C292 1.334 . S
C1855 C544 1.334 . S
C1860 C328 1.334 . S
C1885 C364 1.334 . S
C1890 C580 1.334 . S
C1915 C616 1.334 . S
C1920 C400 1.334 . S
C1945 C218 1.475 . S
C1950 C2 1.475 . S
C1975 C38 1.475 . S
C1980 C254 1.475 . S
C2005 C290 1.475 . S
C2010 C74 1.475 . S
C2035 C326 1.475 . S
C2040 C110 1.475 . S
C2065 C362 1.475 . S
C2070 C146 1.475 . S
C2095 C182 1.475 . S
C2100 C398 1.475 . S
C2125 C650 1.475 . S
C2130 C434 1.475 . S
C2155 C470 1.475 . S
C2160 C686 1.475 . S
C2185 C722 1.475 . S
C2190 C506 1.475 . S
C2215 C758 1.475 . S
C2220 C542 1.475 . S
C2245 C578 1.475 . S
C2250 C794 1.475 . S
C2275 C614 1.475 . S
C2280 C830 1.475 . S
