# Generated by pormake.
# Topology wht, (6)-cn, num edge types: 1
# Building blocks:
#     Node 0, Type 0, BuildingBlock: OJICUG_clean_sbu_0, # of connection points: 6
#     Node 1, Type 0, BuildingBlock: OJICUG_clean_sbu_0, # of connection points: 6
#     Node 2, Type 0, BuildingBlock: OJICUG_clean_sbu_0, # of connection points: 6
#     Node 3, Type 0, BuildingBlock: OJICUG_clean_sbu_0, # of connection points: 6
#     Node 4, Type 0, BuildingBlock: OJICUG_clean_sbu_0, # of connection points: 6
#     Node 5, Type 0, BuildingBlock: OJICUG_clean_sbu_0, # of connection points: 6
#     Node 6, Type 0, BuildingBlock: OJICUG_clean_sbu_0, # of connection points: 6
#     Node 7, Type 0, BuildingBlock: OJICUG_clean_sbu_0, # of connection points: 6
#     Edge 8, Type (0, 0), BuildingBlock: UVAHIK_clean_linker_0, # of connection points: 2
#     Edge 9, Type (0, 0), BuildingBlock: UVAHIK_clean_linker_0, # of connection points: 2
#     Edge 10, Type (0, 0), BuildingBlock: UVAHIK_clean_linker_0, # of connection points: 2
#     Edge 11, Type (0, 0), BuildingBlock: UVAHIK_clean_linker_0, # of connection points: 2
#     Edge 12, Type (0, 0), BuildingBlock: UVAHIK_clean_linker_0, # of connection points: 2
#     Edge 13, Type (0, 0), BuildingBlock: UVAHIK_clean_linker_0, # of connection points: 2
#     Edge 14, Type (0, 0), BuildingBlock: UVAHIK_clean_linker_0, # of connection points: 2
#     Edge 15, Type (0, 0), BuildingBlock: UVAHIK_clean_linker_0, # of connection points: 2
#     Edge 16, Type (0, 0), BuildingBlock: UVAHIK_clean_linker_0, # of connection points: 2
#     Edge 17, Type (0, 0), BuildingBlock: UVAHIK_clean_linker_0, # of connection points: 2
#     Edge 18, Type (0, 0), BuildingBlock: UVAHIK_clean_linker_0, # of connection points: 2
#     Edge 19, Type (0, 0), BuildingBlock: UVAHIK_clean_linker_0, # of connection points: 2
#     Edge 20, Type (0, 0), BuildingBlock: UVAHIK_clean_linker_0, # of connection points: 2
#     Edge 21, Type (0, 0), BuildingBlock: UVAHIK_clean_linker_0, # of connection points: 2
#     Edge 22, Type (0, 0), BuildingBlock: UVAHIK_clean_linker_0, # of connection points: 2
#     Edge 23, Type (0, 0), BuildingBlock: UVAHIK_clean_linker_0, # of connection points: 2
#     Edge 24, Type (0, 0), BuildingBlock: UVAHIK_clean_linker_0, # of connection points: 2
#     Edge 25, Type (0, 0), BuildingBlock: UVAHIK_clean_linker_0, # of connection points: 2
#     Edge 26, Type (0, 0), BuildingBlock: UVAHIK_clean_linker_0, # of connection points: 2
#     Edge 27, Type (0, 0), BuildingBlock: UVAHIK_clean_linker_0, # of connection points: 2
#     Edge 28, Type (0, 0), BuildingBlock: UVAHIK_clean_linker_0, # of connection points: 2
#     Edge 29, Type (0, 0), BuildingBlock: UVAHIK_clean_linker_0, # of connection points: 2
#     Edge 30, Type (0, 0), BuildingBlock: UVAHIK_clean_linker_0, # of connection points: 2
#     Edge 31, Type (0, 0), BuildingBlock: UVAHIK_clean_linker_0, # of connection points: 2
# Relax obj value: 0.284
# Max RMSD: 0.260
# Mean RMSD: 0.260
data_MOF--net-wht--node1-OJICUG_clean_sbu_0--edge1-UVAHIK_clean_linker_0
_symmetry_space_group_name_H-M    P1
_symmetry_Int_Tables_number       1
_symmetry_cell_setting            triclinic
loop_
_symmetry_equiv_pos_as_xyz
'x, y, z'
_cell_length_a     33.835842
_cell_length_b     33.810087
_cell_length_c     63.230875
_cell_angle_alpha  89.988237
_cell_angle_beta   90.034348
_cell_angle_gamma 90.038805
loop_
_atom_site_label
_atom_site_type_symbol
_atom_site_fract_x
_atom_site_fract_y
_atom_site_fract_z
_atom_type_partial_charge
Sc0 Sc 0.07085 0.1829 0.13629 0.0
Sc1 Sc 0.1549 0.24358 0.13937 0.0
Sc2 Sc 0.06199 0.28018 0.15554 0.0
O3 O 0.09591 0.23557 0.14377 0.0
C4 C 0.00421 0.24435 0.12134 0.0
C5 C 0.12801 0.19841 0.09736 0.0
C6 C 0.12121 0.3272 0.12506 0.0
C7 C 0.15424 0.15467 0.1548 0.0
C8 C 0.02772 0.20347 0.17916 0.0
C9 C 0.13964 0.28447 0.18395 0.0
O10 O 0.01938 0.20997 0.12208 0.0
O11 O 0.15258 0.21937 0.10773 0.0
O12 O 0.08901 0.32525 0.13545 0.0
O13 O 0.11868 0.14819 0.14933 0.0
O14 O 0.03013 0.24083 0.17678 0.0
O15 O 0.1627 0.26887 0.17044 0.0
O16 O 0.04271 0.17882 0.16634 0.0
O17 O 0.1708 0.18795 0.15257 0.0
O18 O 0.10309 0.29039 0.18062 0.0
O19 O 0.09712 0.18349 0.10555 0.0
O20 O 0.01769 0.27337 0.13181 0.0
O21 O 0.14673 0.2999 0.12542 0.0
Sc22 Sc 0.21092 0.5534 0.40385 0.0
Sc23 Sc 0.23604 0.65239 0.39238 0.0
Sc24 Sc 0.30174 0.57618 0.37958 0.0
O25 O 0.2496 0.59393 0.39209 0.0
C26 C 0.2953 0.52262 0.42036 0.0
C27 C 0.203 0.62383 0.43698 0.0
C28 C 0.32706 0.65781 0.40174 0.0
C29 C 0.15407 0.6131 0.3792 0.0
C30 C 0.2447 0.50612 0.36474 0.0
C31 C 0.27303 0.63992 0.34649 0.0
O32 O 0.25759 0.52248 0.42055 0.0
O33 O 0.21471 0.65047 0.42428 0.0
O34 O 0.33455 0.6255 0.3923 0.0
O35 O 0.16042 0.5796 0.38778 0.0
O36 O 0.27726 0.52472 0.36455 0.0
O37 O 0.25515 0.66082 0.36018 0.0
O38 O 0.21678 0.51459 0.37731 0.0
O39 O 0.17877 0.64127 0.37989 0.0
O40 O 0.2902 0.60754 0.35088 0.0
O41 O 0.20061 0.58754 0.43193 0.0
O42 O 0.31561 0.54273 0.40727 0.0
O43 O 0.29216 0.67021 0.40461 0.0
Sc44 Sc 0.92666 0.80673 0.63805 0.0
Sc45 Sc 0.84279 0.75524 0.65558 0.0
Sc46 Sc 0.93625 0.71148 0.65913 0.0
O47 O 0.90198 0.75809 0.65113 0.0
C48 C 0.9773 0.74024 0.61641 0.0
C49 C 0.84771 0.79638 0.61077 0.0
C50 C 0.86309 0.66904 0.63852 0.0
C51 C 0.86142 0.84588 0.66672 0.0
C52 C 0.99025 0.78175 0.67331 0.0
C53 C 0.87242 0.71285 0.69666 0.0
O54 O 0.95889 0.77286 0.61511 0.0
O55 O 0.83121 0.77187 0.62323 0.0
O56 O 0.90032 0.6722 0.64046 0.0
O57 O 0.89643 0.8461 0.65938 0.0
O58 O 0.97573 0.74793 0.67754 0.0
O59 O 0.84922 0.73773 0.68812 0.0
O60 O 0.97652 0.80456 0.65908 0.0
O61 O 0.83889 0.81587 0.66555 0.0
O62 O 0.90271 0.69919 0.68728 0.0
O63 O 0.88034 0.81328 0.61502 0.0
O64 O 0.97399 0.71711 0.63211 0.0
O65 O 0.83893 0.69451 0.64565 0.0
Sc66 Sc 0.68365 0.4138 0.88787 0.0
Sc67 Sc 0.73978 0.32885 0.89869 0.0
Sc68 Sc 0.77935 0.42349 0.90946 0.0
O69 O 0.73422 0.38878 0.89877 0.0
C70 C 0.74931 0.47219 0.86943 0.0
C71 C 0.69657 0.34398 0.8548 0.0
C72 C 0.82503 0.35664 0.88359 0.0
C73 C 0.65013 0.3389 0.91284 0.0
C74 C 0.70397 0.46944 0.92705 0.0
C75 C 0.77944 0.35237 0.94261 0.0
O76 O 0.71518 0.45646 0.86911 0.0
O77 O 0.7181 0.32322 0.86691 0.0
O78 O 0.82382 0.39078 0.89202 0.0
O79 O 0.64637 0.37361 0.90533 0.0
O80 O 0.74053 0.46079 0.92781 0.0
O81 O 0.76288 0.32757 0.93038 0.0
O82 O 0.6803 0.45427 0.91375 0.0
O83 O 0.68206 0.31934 0.91161 0.0
O84 O 0.78724 0.38772 0.93719 0.0
O85 O 0.68173 0.37681 0.86039 0.0
O86 O 0.77555 0.4633 0.88302 0.0
O87 O 0.79725 0.33167 0.88507 0.0
Sc88 Sc 0.57577 0.21517 0.57892 0.0
Sc89 Sc 0.67225 0.25079 0.5891 0.0
Sc90 Sc 0.59018 0.3115 0.59894 0.0
O91 O 0.61268 0.25919 0.58885 0.0
C92 C 0.53322 0.29179 0.56035 0.0
C93 C 0.64675 0.20944 0.5458 0.0
C94 C 0.66648 0.34012 0.57353 0.0
C95 C 0.64045 0.16778 0.60551 0.0
C96 C 0.52891 0.24978 0.61862 0.0
C97 C 0.65916 0.29705 0.63229 0.0
O98 O 0.54003 0.25479 0.5599 0.0
O99 O 0.67228 0.22574 0.55774 0.0
O100 O 0.63192 0.34583 0.58082 0.0
O101 O 0.60643 0.17007 0.59703 0.0
O102 O 0.54598 0.28328 0.6182 0.0
O103 O 0.67891 0.27372 0.62065 0.0
O104 O 0.53669 0.2223 0.60553 0.0
O105 O 0.66667 0.19428 0.60359 0.0
O106 O 0.62725 0.31321 0.62628 0.0
O107 O 0.61103 0.20384 0.5513 0.0
O108 O 0.54984 0.31522 0.57323 0.0
O109 O 0.68462 0.30743 0.57537 0.0
Sc110 Sc 0.19031 0.06091 0.84059 0.0
Sc111 Sc 0.23328 0.15385 0.83352 0.0
Sc112 Sc 0.28883 0.06757 0.82405 0.0
O113 O 0.23757 0.09416 0.83259 0.0
C114 C 0.26092 0.00877 0.85948 0.0
C115 C 0.18994 0.12551 0.87608 0.0
C116 C 0.31833 0.13918 0.85314 0.0
C117 C 0.14779 0.13498 0.81825 0.0
C118 C 0.22174 0.01742 0.80018 0.0
C119 C 0.2851 0.13978 0.79191 0.0
O120 O 0.22456 0.01514 0.85586 0.0
O121 O 0.2025 0.15253 0.86368 0.0
O122 O 0.32464 0.10674 0.84346 0.0
O123 O 0.14754 0.10177 0.82767 0.0
O124 O 0.25793 0.0251 0.80417 0.0
O125 O 0.26424 0.16171 0.80386 0.0
O126 O 0.19303 0.03105 0.81092 0.0
O127 O 0.17901 0.15534 0.81617 0.0
O128 O 0.29502 0.10474 0.79682 0.0
O129 O 0.18644 0.08956 0.87052 0.0
O130 O 0.2882 0.02798 0.85038 0.0
O131 O 0.28656 0.15866 0.85116 0.0
Sc132 Sc 0.4268 0.77708 0.08093 0.0
Sc133 Sc 0.32807 0.74538 0.08625 0.0
Sc134 Sc 0.40543 0.68058 0.0988 0.0
O135 O 0.38686 0.73423 0.08845 0.0
C136 C 0.4653 0.69831 0.06151 0.0
C137 C 0.3614 0.78932 0.04526 0.0
C138 C 0.32861 0.65668 0.07143 0.0
C139 C 0.36137 0.82465 0.10659 0.0
C140 C 0.46908 0.73796 0.12055 0.0
C141 C 0.33476 0.69874 0.12994 0.0
O142 O 0.46254 0.73581 0.0631 0.0
O143 O 0.33361 0.7738 0.05593 0.0
O144 O 0.3601 0.64835 0.08155 0.0
O145 O 0.39597 0.82234 0.09882 0.0
O146 O 0.45235 0.70456 0.11824 0.0
O147 O 0.31542 0.71895 0.11652 0.0
O148 O 0.46159 0.76729 0.10871 0.0
O149 O 0.33454 0.79941 0.10297 0.0
O150 O 0.3685 0.68399 0.12612 0.0
O151 O 0.39659 0.79207 0.05212 0.0
O152 O 0.44481 0.67438 0.07253 0.0
O153 O 0.3152 0.69158 0.07009 0.0
Sc154 Sc 0.7096 0.92805 0.3285 0.0
Sc155 Sc 0.72851 0.83228 0.34797 0.0
Sc156 Sc 0.8012 0.90598 0.35245 0.0
O157 O 0.74659 0.88872 0.3428 0.0
C158 C 0.79362 0.95326 0.30934 0.0
C159 C 0.69468 0.85029 0.30149 0.0
C160 C 0.81798 0.81848 0.335 0.0
C161 C 0.65042 0.88014 0.35826 0.0
C162 C 0.74707 0.98009 0.36518 0.0
C163 C 0.77399 0.85173 0.39096 0.0
O164 O 0.75604 0.954 0.30962 0.0
O165 O 0.70379 0.827 0.31656 0.0
O166 O 0.8293 0.85304 0.34033 0.0
O167 O 0.6579 0.90876 0.34587 0.0
O168 O 0.77906 0.96032 0.3661 0.0
O169 O 0.75014 0.83111 0.38003 0.0
O170 O 0.71882 0.97122 0.3528 0.0
O171 O 0.67367 0.85123 0.36092 0.0
O172 O 0.7941 0.87989 0.38315 0.0
O173 O 0.69697 0.88776 0.30303 0.0
O174 O 0.81403 0.93491 0.32306 0.0
O175 O 0.78225 0.80728 0.33624 0.0
C176 C 0.01808 0.15172 0.20643 0.0
C177 C 0.00517 0.18699 0.19698 0.0
C178 C 0.99414 0.13187 0.22084 0.0
C179 C 0.89133 0.1131 0.23125 0.0
H180 H 0.93086 0.06313 0.28223 0.0
C181 C 0.79564 0.01085 0.28443 0.0
C182 C 0.81484 0.97862 0.29403 0.0
C183 C 0.81721 0.03878 0.27291 0.0
C184 C 0.91948 0.0765 0.26791 0.0
H185 H 0.95792 0.23011 0.19567 0.0
H186 H 0.91527 0.19465 0.2208 0.0
H187 H 0.97212 0.11068 0.26348 0.0
H188 H 0.87121 0.94891 0.29779 0.0
H189 H 0.90851 -0.00325 0.27714 0.0
H190 H 0.83931 0.07779 0.23515 0.0
C191 C 0.94415 0.18272 0.21709 0.0
C192 C 0.94298 0.10401 0.25732 0.0
C193 C 0.96858 0.20309 0.20291 0.0
C194 C 0.8556 0.97365 0.29081 0.0
C195 C 0.87705 0.00132 0.27915 0.0
C196 C 0.86789 0.08527 0.24175 0.0
C197 C 0.9565 0.14654 0.22584 0.0
C198 C 0.92942 0.12203 0.2387 0.0
C199 C 0.85835 0.03486 0.27061 0.0
C200 C 0.88204 0.06606 0.25997 0.0
H201 H 0.04623 0.13877 0.2021 0.0
H202 H 0.00425 0.1039 0.22722 0.0
H203 H 0.88041 0.12624 0.21675 0.0
H204 H 0.76429 0.01568 0.28671 0.0
H205 H 0.80188 0.0643 0.2666 0.0
C206 C 0.35833 0.49954 0.43668 0.0
C207 C 0.31694 0.49692 0.4353 0.0
C208 C 0.37937 0.47426 0.44988 0.0
C209 C 0.37527 0.37918 0.47764 0.0
H210 H 0.45743 0.42691 0.51198 0.0
C211 C 0.48364 0.3436 0.55269 0.0
C212 C 0.50327 0.30909 0.5462 0.0
C213 C 0.45761 0.36278 0.5392 0.0
C214 C 0.43445 0.41314 0.50258 0.0
H215 H 0.26522 0.46545 0.44674 0.0
H216 H 0.30233 0.42139 0.47015 0.0
H217 H 0.41803 0.46828 0.48877 0.0
H218 H 0.50931 0.26618 0.52095 0.0
H219 H 0.4638 0.30068 0.49684 0.0
H220 H 0.3918 0.3239 0.49187 0.0
C221 C 0.31827 0.44291 0.46075 0.0
C222 C 0.41215 0.43679 0.48915 0.0
C223 C 0.29706 0.46839 0.44753 0.0
C224 C 0.49473 0.29291 0.52625 0.0
C225 C 0.46866 0.3125 0.51255 0.0
C226 C 0.39783 0.35533 0.49112 0.0
C227 C 0.3596 0.44576 0.46207 0.0
C228 C 0.38238 0.42012 0.47654 0.0
C229 C 0.4508 0.34821 0.51878 0.0
C230 C 0.42741 0.37226 0.50382 0.0
H231 H 0.37469 0.52102 0.42746 0.0
H232 H 0.41127 0.47682 0.45042 0.0
H233 H 0.35266 0.36562 0.46791 0.0
H234 H 0.48881 0.35624 0.5682 0.0
H235 H 0.44345 0.38968 0.54461 0.0
C236 C 0.03182 0.79014 0.70581 0.0
C237 C 0.02667 0.79449 0.68394 0.0
C238 C 0.06475 0.80703 0.71574 0.0
C239 C 0.14211 0.83997 0.73318 0.0
H240 H 0.15827 0.94688 0.71261 0.0
C241 C 0.2354 0.95764 0.77799 0.0
C242 C 0.21194 0.99082 0.78258 0.0
C243 C 0.22267 0.9299 0.76301 0.0
C244 C 0.15458 0.91689 0.71833 0.0
H245 H 0.05329 0.81575 0.65492 0.0
H246 H 0.11126 0.84376 0.67202 0.0
H247 H 0.11717 0.9017 0.69255 0.0
H248 H 0.15827 0.02239 0.77452 0.0
H249 H 0.1366 0.97472 0.74819 0.0
H250 H 0.17758 0.85678 0.75984 0.0
C251 C 0.08938 0.82899 0.68172 0.0
C252 C 0.13124 0.8908 0.70679 0.0
C253 C 0.05622 0.81298 0.67193 0.0
C254 C 0.17678 -0.00305 0.7713 0.0
C255 C 0.16454 0.96981 0.75616 0.0
C256 C 0.16558 0.86625 0.74478 0.0
C257 C 0.09321 0.82778 0.70382 0.0
C258 C 0.1236 0.85246 0.71442 0.0
C259 C 0.18691 0.93569 0.75215 0.0
C260 C 0.17066 0.90537 0.73781 0.0
H261 H 0.00942 0.7757 0.71531 0.0
H262 H 0.06667 0.80577 0.73282 0.0
H263 H 0.13722 0.81045 0.73931 0.0
H264 H 0.26253 0.95226 0.78662 0.0
H265 H 0.24033 0.90373 0.76015 0.0
C266 C 0.52009 0.70598 0.03498 0.0
C267 C 0.49571 0.68143 0.04735 0.0
C268 C 0.55054 0.68973 0.02283 0.0
C269 C 0.61209 0.60008 0.01803 0.0
H270 H 0.61793 0.62691 0.95851 0.0
C271 C 0.65097 0.51673 0.93728 0.0
C272 C 0.68814 0.49991 0.94147 0.0
C273 C 0.63555 0.54575 0.95046 0.0
C274 C 0.61695 0.61947 0.97517 0.0
H275 H 0.484 0.62046 0.05637 0.0
H276 H 0.53656 0.59247 0.03511 0.0
H277 H 0.57475 0.66491 0.9818 0.0
H278 H 0.73851 0.50077 0.96273 0.0
H279 H 0.71087 0.55142 0.98619 0.0
H280 H 0.65249 0.55317 0.01115 0.0
C281 C 0.53263 0.62426 0.0351 0.0
C282 C 0.59248 0.64137 0.9885 0.0
C283 C 0.50217 0.64037 0.04709 0.0
C284 C 0.70975 0.5131 0.95912 0.0
C285 C 0.69402 0.54204 0.97251 0.0
C286 C 0.63664 0.57826 0.00471 0.0
C287 C 0.5573 0.64876 0.02299 0.0
C288 C 0.58864 0.63081 0.00986 0.0
C289 C 0.65675 0.55857 0.96826 0.0
C290 C 0.63801 0.58677 0.983 0.0
H291 H 0.51598 0.73772 0.03485 0.0
H292 H 0.56912 0.70923 0.01354 0.0
H293 H 0.61012 0.5918 0.03454 0.0
H294 H 0.63359 0.50754 0.92375 0.0
H295 H 0.60642 0.55738 0.94703 0.0
C296 C 0.13021 0.29606 0.22232 0.0
C297 C 0.15536 0.29625 0.20469 0.0
C298 C 0.14315 0.31081 0.24164 0.0
C299 C 0.2304 0.3452 0.27189 0.0
H300 H 0.15288 0.4151 0.29726 0.0
C301 C 0.26629 0.46743 0.33301 0.0
C302 C 0.23854 0.47415 0.34917 0.0
C303 C 0.25877 0.43949 0.31727 0.0
C304 C 0.17464 0.39516 0.29062 0.0
H305 H 0.21441 0.30981 0.19358 0.0
H306 H 0.23681 0.33713 0.22739 0.0
H307 H 0.13532 0.37725 0.26613 0.0
H308 H 0.18231 0.45503 0.36221 0.0
H309 H 0.16939 0.40623 0.33481 0.0
H310 H 0.2701 0.36453 0.29625 0.0
C311 C 0.20728 0.32493 0.22633 0.0
C312 C 0.16459 0.37341 0.27276 0.0
C313 C 0.19445 0.30953 0.20697 0.0
C314 C 0.20405 0.45102 0.34984 0.0
C315 C 0.19661 0.42308 0.33414 0.0
C316 C 0.24056 0.36721 0.28981 0.0
C317 C 0.1813 0.32672 0.24366 0.0
C318 C 0.1923 0.34823 0.26317 0.0
C319 C 0.22341 0.41777 0.31744 0.0
C320 C 0.21272 0.39245 0.29928 0.0
H321 H 0.10018 0.28512 0.2211 0.0
H322 H 0.12281 0.31079 0.25487 0.0
H323 H 0.25226 0.32585 0.26488 0.0
H324 H 0.29325 0.48464 0.33208 0.0
H325 H 0.27978 0.43621 0.30448 0.0
C326 C 0.01956 0.6899 0.59856 0.0
C327 C 0.00411 0.72848 0.59914 0.0
C328 C 0.04522 0.67856 0.58248 0.0
C329 C 0.11425 0.7168 0.54303 0.0
H330 H 0.09206 0.61834 0.51388 0.0
C331 C 0.18155 0.676 0.46245 0.0
C332 C 0.18914 0.63595 0.45811 0.0
C333 C 0.16402 0.68706 0.48149 0.0
C334 C 0.0992 0.64551 0.52212 0.0
H335 H 0.00378 0.78554 0.58338 0.0
H336 H 0.04878 0.76548 0.55515 0.0
H337 H 0.05062 0.63846 0.54337 0.0
H338 H 0.18694 0.57642 0.47092 0.0
H339 H 0.15707 0.5959 0.50435 0.0
H340 H 0.1628 0.72392 0.5217 0.0
C341 C 0.04104 0.74424 0.56729 0.0
C342 C 0.07533 0.65709 0.53892 0.0
C343 C 0.01507 0.75557 0.58333 0.0
C344 C 0.18092 0.60746 0.47367 0.0
C345 C 0.16368 0.61858 0.49278 0.0
C346 C 0.13837 0.70507 0.52628 0.0
C347 C 0.05615 0.70559 0.56671 0.0
C348 C 0.08241 0.69299 0.54939 0.0
C349 C 0.15404 0.65835 0.49663 0.0
C350 C 0.13082 0.66947 0.51552 0.0
H351 H 0.01173 0.66827 0.61049 0.0
H352 H 0.05674 0.64866 0.58245 0.0
H353 H 0.12055 0.7444 0.55107 0.0
H354 H 0.18756 0.69872 0.45081 0.0
H355 H 0.15663 0.7179 0.48388 0.0
C356 C 0.7371 0.5039 0.83431 0.0
C357 C 0.75904 0.50195 0.85316 0.0
C358 C 0.74731 0.53091 0.81855 0.0
C359 C 0.79919 0.62351 0.80775 0.0
H360 H 0.81775 0.5782 0.75227 0.0
C361 C 0.8829 0.66298 0.72521 0.0
C362 C 0.86199 0.69593 0.71751 0.0
C363 C 0.86997 0.64303 0.74318 0.0
C364 C 0.81258 0.5912 0.76769 0.0
H365 H 0.80792 0.52778 0.87062 0.0
H366 H 0.82544 0.57533 0.84306 0.0
H367 H 0.79342 0.53617 0.78084 0.0
H368 H 0.81264 0.73537 0.72357 0.0
H369 H 0.79046 0.70048 0.75541 0.0
H370 H 0.81841 0.67869 0.79437 0.0
C371 C 0.80048 0.55579 0.84054 0.0
C372 C 0.79844 0.56729 0.78394 0.0
C373 C 0.79065 0.52838 0.85619 0.0
C374 C 0.82926 0.70995 0.72901 0.0
C375 C 0.81661 0.69015 0.74722 0.0
C376 C 0.81277 0.64767 0.79133 0.0
C377 C 0.77925 0.55686 0.82149 0.0
C378 C 0.79201 0.58312 0.80415 0.0
C379 C 0.83622 0.65586 0.75401 0.0
C380 C 0.82008 0.63147 0.77128 0.0
H381 H 0.71259 0.48394 0.8315 0.0
H382 H 0.73045 0.53134 0.80398 0.0
H383 H 0.79429 0.6363 0.82324 0.0
H384 H 0.90837 0.65142 0.71689 0.0
H385 H 0.88578 0.61687 0.74832 0.0
C386 C 0.95924 0.22354 0.09177 0.0
C387 C 0.97051 0.25169 0.10699 0.0
C388 C 0.93033 0.23268 0.07675 0.0
C389 C 0.89317 0.31903 0.04922 0.0
H390 H 0.81233 0.24854 0.02751 0.0
C391 C 0.7967 0.36738 0.98008 0.0
C392 C 0.79125 0.33941 0.96394 0.0
C393 C 0.81112 0.35578 -0.00024 0.0
C394 C 0.83491 0.26845 0.03336 0.0
H395 H 0.95815 0.31037 0.11936 0.0
H396 H 0.90791 0.32608 0.09322 0.0
H397 H 0.85146 0.2288 0.05835 0.0
H398 H 0.79491 0.27714 0.95597 0.0
H399 H 0.8216 0.25702 0.99012 0.0
H400 H 0.87832 0.35795 0.02397 0.0
C401 C 0.92189 0.29727 0.09269 0.0
C402 C 0.85717 0.25717 0.051 0.0
C403 C 0.95069 0.28821 0.10764 0.0
C404 C 0.79888 0.29934 0.96814 0.0
C405 C 0.81392 0.28779 0.98776 0.0
C406 C 0.87127 0.33012 0.03158 0.0
C407 C 0.91227 0.27008 0.07673 0.0
C408 C 0.88663 0.28235 0.05899 0.0
C409 C 0.82109 0.31606 0.00362 0.0
C410 C 0.84205 0.30492 0.02333 0.0
H411 H 0.97383 0.19508 0.09089 0.0
H412 H 0.92359 0.21127 0.06452 0.0
H413 H 0.91627 0.33867 0.05477 0.0
H414 H 0.79032 0.39839 0.97741 0.0
H415 H 0.81533 0.37814 0.01182 0.0
C416 C 0.69912 0.18598 0.52078 0.0
C417 C 0.65929 0.19496 0.52481 0.0
C418 C 0.71022 0.16875 0.50158 0.0
C419 C 0.66677 0.10983 0.45827 0.0
H420 H 0.76785 0.12794 0.43101 0.0
C421 C 0.70506 0.03397 0.38031 0.0
C422 C 0.74101 0.01309 0.38025 0.0
C423 C 0.69695 0.06152 0.39611 0.0
C424 C 0.73957 0.12264 0.43852 0.0
H425 H 0.60027 0.1954 0.51141 0.0
H426 H 0.61973 0.16664 0.47776 0.0
H427 H 0.74951 0.16714 0.46204 0.0
H428 H 0.79764 0.00677 0.39609 0.0
H429 H 0.78327 0.05509 0.42374 0.0
H430 H 0.65679 0.06543 0.43484 0.0
C431 C 0.64226 0.17152 0.48965 0.0
C432 C 0.72909 0.14493 0.4563 0.0
C433 C 0.63111 0.18819 0.50891 0.0
C434 C 0.76958 0.02215 0.3957 0.0
C435 C 0.76147 0.04995 0.41149 0.0
C436 C 0.67705 0.08793 0.44046 0.0
C437 C 0.68177 0.16061 0.48595 0.0
C438 C 0.6926 0.13861 0.46645 0.0
C439 C 0.72462 0.06901 0.41216 0.0
C440 C 0.71358 0.09395 0.43045 0.0
H441 H 0.72151 0.1908 0.53276 0.0
H442 H 0.74083 0.16041 0.49938 0.0
H443 H 0.63891 0.10336 0.46595 0.0
H444 H 0.68248 0.02812 0.36857 0.0
H445 H 0.66853 0.07628 0.3961 0.0
C446 C 0.31379 0.13 0.75594 0.0
C447 C 0.30018 0.15588 0.77172 0.0
C448 C 0.33169 0.14467 0.73771 0.0
C449 C 0.39037 0.22804 0.71993 0.0
H450 H 0.37483 0.18148 0.66449 0.0
C451 C 0.48523 0.27356 0.64804 0.0
C452 C 0.49845 0.24258 0.63499 0.0
C453 C 0.45654 0.26673 0.66349 0.0
C454 C 0.37968 0.19461 0.6799 0.0
H455 H 0.29331 0.21758 0.78039 0.0
H456 H 0.32516 0.24328 0.74845 0.0
H457 H 0.33085 0.16333 0.69349 0.0
H458 H 0.49175 0.18005 0.62803 0.0
H459 H 0.44247 0.16802 0.65523 0.0
H460 H 0.44009 0.25813 0.70665 0.0
C461 C 0.3219 0.2116 0.75031 0.0
C462 C 0.35438 0.18436 0.69645 0.0
C463 C 0.30352 0.19689 0.76851 0.0
C464 C 0.48217 0.20466 0.63771 0.0
C465 C 0.45364 0.19781 0.65322 0.0
C466 C 0.41583 0.23812 0.70341 0.0
C467 C 0.33669 0.18556 0.73491 0.0
C468 C 0.35997 0.20037 0.71673 0.0
C469 C 0.44052 0.22873 0.66632 0.0
C470 C 0.41127 0.2209 0.68331 0.0
H471 H 0.31139 0.09824 0.75785 0.0
H472 H 0.34312 0.12387 0.72621 0.0
H473 H 0.39567 0.24046 0.73547 0.0
H474 H 0.49691 0.30322 0.6463 0.0
H475 H 0.44676 0.29129 0.67315 0.0
C476 C 0.38259 0.82066 0.01118 0.0
C477 C 0.35223 0.80584 0.02413 0.0
C478 C 0.3738 0.83808 0.99174 0.0
C479 C 0.29544 0.84827 0.95118 0.0
H480 H 0.34981 0.94646 0.93851 0.0
C481 C 0.24287 0.95991 0.88778 0.0
C482 C 0.272 0.97927 0.87574 0.0
C483 C 0.25357 0.93475 0.90434 0.0
C484 C 0.33479 0.91877 0.94164 0.0
H485 H 0.28881 0.79686 0.02647 0.0
H486 H 0.27352 0.82785 -0.0073 0.0
H487 H 0.36693 0.90988 0.97032 0.0
H488 H 0.3353 0.98585 0.87113 0.0
H489 H 0.35378 0.94183 0.89989 0.0
H490 H 0.26273 0.8578 0.9226 0.0
C491 C 0.30417 0.82552 -0.00252 0.0
C492 C 0.34462 0.89778 0.95987 0.0
C493 C 0.31295 0.80797 0.01692 0.0
C494 C 0.31204 0.97173 0.88016 0.0
C495 C 0.32269 0.94663 0.89671 0.0
C496 C 0.28553 0.86937 0.93292 0.0
C497 C 0.33446 0.84121 0.98481 0.0
C498 C 0.32495 0.8624 0.96491 0.0
C499 C 0.2936 0.92847 0.90923 0.0
C500 C 0.30501 0.90493 0.92802 0.0
H501 H 0.41321 0.81918 0.01612 0.0
H502 H 0.39787 0.8493 0.98216 0.0
H503 H 0.28009 0.82085 0.95451 0.0
H504 H 0.21176 0.965 0.88481 0.0
H505 H 0.23049 0.9214 0.91382 0.0
C506 C 0.51783 0.77984 0.14021 0.0
C507 C 0.49798 0.74351 0.13795 0.0
C508 C 0.54392 0.78605 0.15696 0.0
C509 C 0.5661 0.75175 0.21073 0.0
H510 H 0.66063 0.8151 0.20299 0.0
C511 C 0.66889 0.79282 0.2804 0.0
C512 C 0.67902 0.83314 0.28159 0.0
C513 C 0.65128 0.77741 0.26217 0.0
C514 C 0.6343 0.79743 0.2054 0.0
H515 H 0.49068 0.68493 0.15146 0.0
H516 H 0.5366 0.69584 0.18073 0.0
H517 H 0.62164 0.79552 0.17227 0.0
H518 H 0.6798 0.88849 0.26417 0.0
H519 H 0.64913 0.86159 0.23247 0.0
H520 H 0.57843 0.7543 0.24391 0.0
C521 C 0.53156 0.71958 0.16956 0.0
C522 C 0.61194 0.78625 0.18782 0.0
C523 C 0.5054 0.7133 0.15273 0.0
C524 C 0.6723 0.85734 0.26386 0.0
C525 C 0.65495 0.84187 0.24561 0.0
C526 C 0.58856 0.76284 0.22832 0.0
C527 C 0.55094 0.75614 0.17191 0.0
C528 C 0.57709 0.76404 0.19032 0.0
C529 C 0.64374 0.80188 0.24467 0.0
C530 C 0.62242 0.78651 0.22587 0.0
H531 H 0.5129 0.80384 0.12918 0.0
H532 H 0.5578 0.81479 0.15848 0.0
H533 H 0.5392 0.73501 0.21323 0.0
H534 H 0.67368 0.77328 0.29373 0.0
H535 H 0.64329 0.74638 0.26182 0.0
C536 C 0.17589 0.10534 0.91323 0.0
C537 C 0.18072 0.13567 0.89825 0.0
C538 C 0.16907 0.11428 0.93439 0.0
C539 C 0.13379 0.13901 0.97573 0.0
H540 H 0.19027 0.22512 0.00272 0.0
C541 C 0.102 0.18218 0.06154 0.0
C542 C 0.13413 0.19273 0.07446 0.0
C543 C 0.1069 0.17767 0.03983 0.0
C544 C 0.17456 0.20075 -0.00456 0.0
H545 H 0.18164 0.19928 0.89374 0.0
H546 H 0.16858 0.21495 0.9308 0.0
H547 H 0.20004 0.21246 0.96511 0.0
H548 H 0.19661 0.20699 0.07471 0.0
H549 H 0.20559 0.19761 0.03671 0.0
H550 H 0.10973 0.12597 0.00608 0.0
C551 C 0.1709 0.18421 0.92615 0.0
C552 C 0.17969 0.19388 0.97383 0.0
C553 C 0.17811 0.17525 0.90491 0.0
C554 C 0.17132 0.19881 0.06515 0.0
C555 C 0.17636 0.19375 0.04337 0.0
C556 C 0.12899 0.1456 -0.0027 0.0
C557 C 0.16643 0.15377 0.94112 0.0
C558 C 0.15956 0.16272 0.96378 0.0
C559 C 0.14418 0.183 0.03048 0.0
C560 C 0.14935 0.17648 0.00745 0.0
H561 H 0.1782 0.07451 0.90875 0.0
H562 H 0.16664 0.0901 0.94555 0.0
H563 H 0.11736 0.11513 0.96843 0.0
H564 H 0.07275 0.178 0.06815 0.0
H565 H 0.08127 0.1703 0.03034 0.0
C566 C 0.27913 0.70273 0.15604 0.0
C567 C 0.31924 0.69559 0.15163 0.0
C568 C 0.26562 0.70278 0.17693 0.0
C569 C 0.29865 0.72062 0.23055 0.0
H570 H 0.2239 0.64094 0.24921 0.0
C571 C 0.27613 0.62401 0.30814 0.0
C572 C 0.2714 0.6523 0.32419 0.0
C573 C 0.27296 0.63491 0.28699 0.0
C574 C 0.24427 0.66378 0.24413 0.0
H575 H 0.37658 0.68294 0.16556 0.0
H576 H 0.35298 0.68356 0.20186 0.0
H577 H 0.23538 0.65069 0.21129 0.0
H578 H 0.25953 0.71416 0.33077 0.0
H579 H 0.25538 0.7335 0.29346 0.0
H580 H 0.30899 0.7325 0.26332 0.0
C581 C 0.33212 0.68901 0.18918 0.0
C582 C 0.25064 0.66944 0.22254 0.0
C583 C 0.34545 0.68822 0.1684 0.0
C584 C 0.26342 0.69179 0.31869 0.0
C585 C 0.26091 0.70283 0.29744 0.0
C586 C 0.29188 0.71536 0.25209 0.0
C587 C 0.29226 0.6966 0.19359 0.0
C588 C 0.27905 0.69676 0.21571 0.0
C589 C 0.2655 0.67438 0.28148 0.0
C590 C 0.26585 0.68579 0.25903 0.0
H591 H 0.25831 0.70851 0.14339 0.0
H592 H 0.23467 0.70837 0.1801 0.0
H593 H 0.32061 0.74195 0.22549 0.0
H594 H 0.28187 0.59327 0.31188 0.0
H595 H 0.27728 0.6126 0.27491 0.0
C596 C 0.75533 0.81345 0.42356 0.0
C597 C 0.77709 0.84407 0.41397 0.0
C598 C 0.75673 0.80788 0.44546 0.0
C599 C 0.77981 0.86093 0.49485 0.0
H600 H 0.79601 0.75643 0.5186 0.0
C601 C 0.84342 0.83609 0.57757 0.0
C602 C 0.82976 0.80425 0.58985 0.0
C603 C 0.82983 0.84152 0.55698 0.0
C604 C 0.79068 0.78571 0.51225 0.0
H605 H 0.81789 0.89245 0.41998 0.0
H606 H 0.82049 0.88247 0.45799 0.0
H607 H 0.78686 0.76395 0.4805 0.0
H608 H 0.78991 0.75393 0.59037 0.0
H609 H 0.76604 0.76357 0.5542 0.0
H610 H 0.78449 0.88283 0.52648 0.0
C611 C 0.80191 0.86313 0.44861 0.0
C612 C 0.78556 0.79001 0.49043 0.0
C613 C 0.80066 0.86861 0.42677 0.0
C614 C 0.80101 0.77877 0.58132 0.0
C615 C 0.78754 0.7841 0.56058 0.0
C616 C 0.78485 0.85663 0.51662 0.0
C617 C 0.77972 0.83296 0.45822 0.0
C618 C 0.78107 0.82777 0.48148 0.0
C619 C 0.80229 0.81521 0.54811 0.0
C620 C 0.79132 0.8191 0.5255 0.0
H621 H 0.7368 0.79403 0.41419 0.0
H622 H 0.73923 0.78445 0.45246 0.0
H623 H 0.77554 0.89032 0.48843 0.0
H624 H 0.86541 0.85641 0.58367 0.0
H625 H 0.84215 0.8655 0.54772 0.0
C626 C 0.6977 0.27639 0.66432 0.0
C627 C 0.67105 0.30259 0.65455 0.0
C628 C 0.70319 0.27743 0.68623 0.0
C629 C 0.64792 0.30423 0.73343 0.0
H630 H 0.74846 0.30275 0.76285 0.0
C631 C 0.66386 0.35108 0.81964 0.0
C632 C 0.69073 0.33099 0.83273 0.0
C633 C 0.66124 0.34194 0.79823 0.0
C634 C 0.72016 0.3024 0.75484 0.0
H635 H 0.63186 0.35249 0.65982 0.0
H636 H 0.64167 0.35431 0.69786 0.0
H637 H 0.74713 0.29974 0.72417 0.0
H638 H 0.73499 0.28451 0.83374 0.0
H639 H 0.73009 0.26839 0.79618 0.0
H640 H 0.62082 0.30728 0.76388 0.0
C641 C 0.65756 0.33245 0.68867 0.0
C642 C 0.71946 0.30087 0.73276 0.0
C643 C 0.65214 0.33149 0.66688 0.0
C644 C 0.71394 0.30052 0.82408 0.0
C645 C 0.7114 0.29147 0.80257 0.0
C646 C 0.6486 0.30556 0.75542 0.0
C647 C 0.68205 0.30461 0.69861 0.0
C648 C 0.68334 0.30282 0.7219 0.0
C649 C 0.68542 0.31251 0.78941 0.0
C650 C 0.68473 0.30567 0.76633 0.0
H651 H 0.71271 0.25376 0.65524 0.0
H652 H 0.72235 0.25576 0.69358 0.0
H653 H 0.61962 0.3048 0.7254 0.0
H654 H 0.6455 0.37466 0.82579 0.0
H655 H 0.64128 0.35902 0.78843 0.0
C656 C 0.2203 0.12362 0.15952 0.0
C657 C 0.17906 0.12131 0.16184 0.0
C658 C 0.24375 0.09025 0.1624 0.0
C659 C 0.23236 0.98276 0.15781 0.0
H660 H 0.34596 0.98523 0.1663 0.0
C661 C 0.32354 0.84878 0.13742 0.0
C662 C 0.3512 0.85664 0.12138 0.0
C663 C 0.3082 0.87933 0.14957 0.0
C664 C 0.31423 0.98416 0.16407 0.0
H665 H 0.13049 0.08351 0.17134 0.0
H666 H 0.17172 0.02543 0.17741 0.0
H667 H 0.30583 0.04208 0.17691 0.0
H668 H 0.38745 0.90182 0.10679 0.0
H669 H 0.3597 0.95608 0.12797 0.0
H670 H 0.24073 0.92519 0.14484 0.0
C671 C 0.18578 0.05262 0.17239 0.0
C672 C 0.29121 0.01665 0.17004 0.0
C673 C 0.16212 0.08589 0.16902 0.0
C674 C 0.3659 0.89518 0.11894 0.0
C675 C 0.35023 0.92604 0.13112 0.0
C676 C 0.25518 0.95021 0.15227 0.0
C677 C 0.22663 0.05389 0.16807 0.0
C678 C 0.25012 0.01689 0.16625 0.0
C679 C 0.32005 0.91841 0.14588 0.0
C680 C 0.29638 0.95104 0.15476 0.0
H681 H 0.23436 0.15054 0.15406 0.0
H682 H 0.27489 0.09257 0.15868 0.0
H683 H 0.20112 0.98186 0.15416 0.0
H684 H 0.31247 0.81907 0.14002 0.0
H685 H 0.28542 0.87268 0.16108 0.0
C686 C 0.35284 0.72168 0.41648 0.0
C687 C 0.36003 0.6852 0.4064 0.0
C688 C 0.38138 0.75159 0.41613 0.0
C689 C 0.46145 0.80076 0.41732 0.0
H690 H 0.49025 0.81956 0.35876 0.0
C691 C 0.60989 0.85805 0.38872 0.0
C692 C 0.61228 0.87837 0.36939 0.0
C693 C 0.5733 0.84782 0.39715 0.0
C694 C 0.48188 0.81552 0.37516 0.0
H695 H 0.40431 0.65025 0.39001 0.0
H696 H 0.45367 0.7026 0.38927 0.0
H697 H 0.43973 0.77087 0.36712 0.0
H698 H 0.57864 0.90782 0.34486 0.0
H699 H 0.51418 0.88932 0.3595 0.0
H700 H 0.50534 0.84407 0.42538 0.0
C701 C 0.42581 0.708 0.39721 0.0
C702 C 0.45341 0.78722 0.37993 0.0
C703 C 0.39759 0.67802 0.39774 0.0
C704 C 0.5775 0.89189 0.35972 0.0
C705 C 0.54072 0.88125 0.36806 0.0
C706 C 0.49047 0.8289 0.41255 0.0
C707 C 0.41724 0.74544 0.40559 0.0
C708 C 0.44393 0.77874 0.40103 0.0
C709 C 0.53843 0.8574 0.38627 0.0
C710 C 0.50174 0.83564 0.39143 0.0
H711 H 0.32434 0.72802 0.42349 0.0
H712 H 0.3744 0.78027 0.42278 0.0
H713 H 0.45419 0.79477 0.4337 0.0
H714 H 0.63639 0.84785 0.39666 0.0
H715 H 0.57257 0.82931 0.41113 0.0
C716 C 0.67295 0.1392 0.63708 0.0
C717 C 0.65104 0.1333 0.61846 0.0
C718 C 0.69 0.10725 0.64757 0.0
C719 C 0.73623 0.01661 0.63353 0.0
H720 H 0.74356 -0.00409 0.69381 0.0
C721 C 0.85848 0.91944 0.66453 0.0
C722 C 0.84298 0.88395 0.67263 0.0
C723 C 0.83465 0.953 0.66313 0.0
C724 C 0.74179 0.00165 0.67698 0.0
H725 H 0.62751 0.0896 0.59685 0.0
H726 H 0.65848 0.03328 0.61499 0.0
H727 H 0.69598 0.04514 0.68055 0.0
H728 H 0.79269 0.8576 0.68864 0.0
H729 H 0.75139 0.91664 0.68645 0.0
H730 H 0.78248 0.97418 0.62986 0.0
C731 C 0.66198 0.0627 0.62152 0.0
C732 C 0.71457 0.02947 0.66941 0.0
C733 C 0.6442 0.09472 0.61122 0.0
C734 C 0.80527 0.88436 0.68203 0.0
C735 C 0.78161 0.91813 0.68084 0.0
C736 C 0.76381 0.98955 0.64109 0.0
C737 C 0.68603 0.06894 0.63939 0.0
C738 C 0.71159 0.03706 0.6476 0.0
C739 C 0.79532 0.95177 0.67015 0.0
C740 C 0.76702 0.98201 0.66285 0.0
H741 H 0.67839 0.16881 0.64298 0.0
H742 H 0.7086 0.11287 0.6612 0.0
H743 H 0.73497 0.0224 0.61668 0.0
H744 H 0.88748 0.9203 0.6573 0.0
H745 H 0.84592 0.97894 0.65507 0.0
C746 C 0.38661 0.13889 0.86909 0.0
C747 C 0.34876 0.15574 0.86745 0.0
C748 C 0.41552 0.15675 0.88175 0.0
C749 C 0.44306 0.25469 0.89907 0.0
H750 H 0.51941 0.20139 0.93479 0.0
C751 C 0.57925 0.33889 0.92426 0.0
C752 C 0.61439 0.31808 0.92036 0.0
C753 C 0.54347 0.31858 0.92621 0.0
C754 C 0.49832 0.21674 0.92487 0.0
H755 H 0.31094 0.20312 0.87899 0.0
H756 H 0.36129 0.23404 0.90067 0.0
H757 H 0.46306 0.16449 0.92063 0.0
H758 H 0.64023 0.25949 0.91781 0.0
H759 H 0.57821 0.22451 0.92015 0.0
H760 H 0.47899 0.306 0.90178 0.0
C761 C 0.36872 0.20738 0.89203 0.0
C762 C 0.46613 0.19558 0.91681 0.0
C763 C 0.33995 0.18963 0.8795 0.0
C764 C 0.61364 0.27652 0.92061 0.0
C765 C 0.57785 0.2563 0.92213 0.0
C766 C 0.47538 0.27562 0.90682 0.0
C767 C 0.40698 0.1917 0.89289 0.0
C768 C 0.43873 0.21425 0.90348 0.0
C769 C 0.54208 0.2772 0.9238 0.0
C770 C 0.50405 0.25672 0.91937 0.0
H771 H 0.39424 0.11265 0.86016 0.0
H772 H 0.44499 0.14427 0.88206 0.0
H773 H 0.42258 0.26972 0.88863 0.0
H774 H 0.57902 0.37092 0.92462 0.0
H775 H 0.51661 0.33556 0.92826 0.0
C776 C 0.80989 0.62006 0.6318 0.0
C777 C 0.84665 0.63601 0.62623 0.0
C778 C 0.79199 0.59166 0.61904 0.0
C779 C 0.81163 0.52035 0.57568 0.0
H780 H 0.69738 0.51463 0.5776 0.0
C781 C 0.73026 0.37521 0.56813 0.0
C782 C 0.68899 0.37466 0.56584 0.0
C783 C 0.75103 0.41068 0.5667 0.0
C784 C 0.7292 0.51601 0.57618 0.0
H785 H 0.89372 0.63513 0.60304 0.0
H786 H 0.86178 0.5864 0.58018 0.0
H787 H 0.73055 0.57086 0.59275 0.0
H788 H 0.63785 0.40954 0.5571 0.0
H789 H 0.67444 0.47121 0.55318 0.0
H790 H 0.81017 0.46625 0.55829 0.0
C791 C 0.84717 0.59492 0.5947 0.0
C792 C 0.7484 0.54809 0.58544 0.0
C793 C 0.86554 0.62276 0.60779 0.0
C794 C 0.66958 0.40932 0.55942 0.0
C795 C 0.69059 0.44473 0.55739 0.0
C796 C 0.79234 0.48875 0.56583 0.0
C797 C 0.80991 0.5793 0.60006 0.0
C798 C 0.78988 0.54947 0.58645 0.0
C799 C 0.73114 0.44639 0.56245 0.0
C800 C 0.75095 0.48489 0.56709 0.0
H801 H 0.79487 0.62968 0.64603 0.0
H802 H 0.76406 0.57936 0.62419 0.0
H803 H 0.84362 0.52053 0.57584 0.0
H804 H 0.7462 0.34894 0.57298 0.0
H805 H 0.78206 0.41022 0.57082 0.0
C806 C 0.0748 0.13981 0.82318 0.0
C807 C 0.10956 0.1547 0.81393 0.0
C808 C 0.04185 0.16414 0.8256 0.0
C809 C 0.99175 0.25601 0.81214 0.0
H810 H 0.97434 0.26394 0.87269 0.0
C811 C 0.85393 0.32147 0.85289 0.0
C812 C 0.85965 0.34467 0.87108 0.0
C813 C 0.88605 0.30467 0.84248 0.0
C814 C 0.97922 0.2624 0.85578 0.0
H815 H 0.13484 0.20478 0.79717 0.0
H816 H 0.07673 0.24694 0.80115 0.0
H817 H 0.02332 0.21758 0.8591 0.0
H818 H 0.90322 0.37043 0.89203 0.0
H819 H 0.95987 0.33981 0.87407 0.0
H820 H 0.94652 0.30016 0.80891 0.0
C821 C 0.0755 0.21675 0.80687 0.0
C822 C 0.00676 0.23552 0.848 0.0
C823 C 0.10873 0.19257 0.80464 0.0
C824 C 0.89819 0.35266 0.87803 0.0
C825 C 0.93042 0.33512 0.86782 0.0
C826 C 0.9635 0.2825 0.81994 0.0
C827 C 0.04282 0.20343 0.81848 0.0
C828 C 0.01299 0.23181 0.82614 0.0
C829 C 0.92444 0.31019 0.85028 0.0
C830 C 0.95699 0.28577 0.84184 0.0
H831 H 0.07414 0.11069 0.83031 0.0
H832 H 0.01659 0.15315 0.83435 0.0
H833 H -0.00358 0.25379 0.79524 0.0
H834 H 0.8244 0.31519 0.84714 0.0
H835 H 0.88063 0.28536 0.82911 0.0
C836 C 0.3149 0.58448 0.06553 0.0
C837 C 0.30248 0.62408 0.06428 0.0
C838 C 0.28734 0.55375 0.06402 0.0
C839 C 0.19063 0.53497 0.0822 0.0
H840 H 0.19767 0.43587 0.05173 0.0
C841 C 0.10727 0.3965 0.11171 0.0
C842 C 0.13086 0.36229 0.11193 0.0
C843 C 0.1192 0.4299 0.10013 0.0
C844 C 0.19529 0.46334 0.06044 0.0
H845 H 0.25177 0.66214 0.05843 0.0
H846 H 0.20395 0.60848 0.05649 0.0
H847 H 0.23874 0.49174 0.04091 0.0
H848 H 0.18458 0.336 0.09925 0.0
H849 H 0.20557 0.39348 0.0802 0.0
H850 H 0.15019 0.50599 0.10299 0.0
C851 C 0.23495 0.6014 0.05854 0.0
C852 C 0.21862 0.4953 0.05409 0.0
C853 C 0.26251 0.63205 0.05962 0.0
C854 C 0.16561 0.36177 0.09971 0.0
C855 C 0.1775 0.39485 0.08837 0.0
C856 C 0.168 0.50274 0.08888 0.0
C857 C 0.24695 0.56218 0.06152 0.0
C858 C 0.21733 0.53093 0.06534 0.0
C859 C 0.15489 0.42962 0.0886 0.0
C860 C 0.17128 0.46601 0.07861 0.0
H861 H 0.34541 0.57727 0.06899 0.0
H862 H 0.29719 0.52359 0.06643 0.0
H863 H 0.18936 0.56222 0.09118 0.0
H864 H 0.08018 0.39778 0.12079 0.0
H865 H 0.10084 0.45611 0.1005 0.0
C866 C 0.88764 0.79926 0.32605 0.0
C867 C 0.84807 0.78841 0.32949 0.0
C868 C 0.91693 0.77029 0.32443 0.0
C869 C 0.9392 0.676 0.34712 0.0
H870 H 0.02984 0.67834 0.30972 0.0
C871 C 0.08355 0.59608 0.36963 0.0
C872 C 0.11684 0.62066 0.36757 0.0
C873 C 0.04788 0.6062 0.35968 0.0
C874 C 0.00469 0.67719 0.32029 0.0
H875 H 0.80795 0.73843 0.33248 0.0
H876 H 0.85933 0.68821 0.33013 0.0
H877 H 0.97159 0.71791 0.30125 0.0
H878 H 0.13941 0.67369 0.35228 0.0
H879 H 0.07799 0.69157 0.33573 0.0
H880 H 0.97318 0.6381 0.36711 0.0
C881 C 0.86749 0.71907 0.32863 0.0
C882 C 0.97137 0.69972 0.31536 0.0
C883 C 0.83814 0.74794 0.32993 0.0
C884 C 0.11428 0.65426 0.35453 0.0
C885 C 0.07899 0.66427 0.34467 0.0
C886 C 0.97277 0.65399 0.35225 0.0
C887 C 0.90723 0.73004 0.32647 0.0
C888 C 0.93894 0.70041 0.32913 0.0
C889 C 0.04509 0.64089 0.3474 0.0
C890 C 0.00656 0.65573 0.33936 0.0
H891 H 0.89625 0.8301 0.32551 0.0
H892 H 0.94748 0.7795 0.32291 0.0
H893 H 0.91459 0.67621 0.35807 0.0
H894 H 0.08469 0.56981 0.37942 0.0
H895 H 0.02234 0.58738 0.36195 0.0
loop_
_geom_bond_atom_site_label_1
_geom_bond_atom_site_label_2
_geom_bond_distance
_geom_bond_site_symmetry_2
_ccdc_geom_bond_type
Sc0 O3 2.025 . S
Sc0 O10 2.105 . S
Sc0 O13 2.105 . S
Sc0 O16 2.105 . S
Sc0 O19 2.105 . S
Sc1 O3 2.025 . S
Sc1 O11 2.105 . S
Sc1 O15 2.105 . S
Sc1 O17 2.105 . S
Sc1 O21 2.105 . S
Sc2 O3 2.025 . S
Sc2 O12 2.105 . S
Sc2 O14 2.105 . S
Sc2 O18 2.105 . S
Sc2 O20 2.105 . S
O3 Sc0 2.025 . S
O3 Sc1 2.025 . S
O3 Sc2 2.025 . S
C4 O10 1.268 . S
C4 O20 1.268 . S
C5 O11 1.268 . S
C5 O19 1.268 . S
C6 O12 1.268 . S
C6 O21 1.268 . S
C7 O13 1.268 . S
C7 O17 1.268 . S
C8 O14 1.268 . S
C8 O16 1.268 . S
C9 O15 1.268 . S
C9 O18 1.268 . S
O10 Sc0 2.105 . S
O10 C4 1.268 . S
O11 Sc1 2.105 . S
O11 C5 1.268 . S
O12 Sc2 2.105 . S
O12 C6 1.268 . S
O13 Sc0 2.105 . S
O13 C7 1.268 . S
O14 Sc2 2.105 . S
O14 C8 1.268 . S
O15 Sc1 2.105 . S
O15 C9 1.268 . S
O16 Sc0 2.105 . S
O16 C8 1.268 . S
O17 Sc1 2.105 . S
O17 C7 1.268 . S
O18 Sc2 2.105 . S
O18 C9 1.268 . S
O19 Sc0 2.105 . S
O19 C5 1.268 . S
O20 Sc2 2.105 . S
O20 C4 1.268 . S
O21 Sc1 2.105 . S
O21 C6 1.268 . S
Sc22 O25 2.025 . S
Sc22 O32 2.105 . S
Sc22 O35 2.105 . S
Sc22 O38 2.105 . S
Sc22 O41 2.105 . S
Sc23 O25 2.025 . S
Sc23 O33 2.105 . S
Sc23 O37 2.105 . S
Sc23 O39 2.105 . S
Sc23 O43 2.105 . S
Sc24 O25 2.025 . S
Sc24 O34 2.105 . S
Sc24 O36 2.105 . S
Sc24 O40 2.105 . S
Sc24 O42 2.105 . S
O25 Sc22 2.025 . S
O25 Sc23 2.025 . S
O25 Sc24 2.025 . S
C26 O32 1.268 . S
C26 O42 1.268 . S
C27 O33 1.268 . S
C27 O41 1.268 . S
C28 O34 1.268 . S
C28 O43 1.268 . S
C29 O35 1.268 . S
C29 O39 1.268 . S
C30 O36 1.268 . S
C30 O38 1.268 . S
C31 O37 1.268 . S
C31 O40 1.268 . S
O32 Sc22 2.105 . S
O32 C26 1.268 . S
O33 Sc23 2.105 . S
O33 C27 1.268 . S
O34 Sc24 2.105 . S
O34 C28 1.268 . S
O35 Sc22 2.105 . S
O35 C29 1.268 . S
O36 Sc24 2.105 . S
O36 C30 1.268 . S
O37 Sc23 2.105 . S
O37 C31 1.268 . S
O38 Sc22 2.105 . S
O38 C30 1.268 . S
O39 Sc23 2.105 . S
O39 C29 1.268 . S
O40 Sc24 2.105 . S
O40 C31 1.268 . S
O41 Sc22 2.105 . S
O41 C27 1.268 . S
O42 Sc24 2.105 . S
O42 C26 1.268 . S
O43 Sc23 2.105 . S
O43 C28 1.268 . S
Sc44 O47 2.025 . S
Sc44 O54 2.105 . S
Sc44 O57 2.105 . S
Sc44 O60 2.105 . S
Sc44 O63 2.105 . S
Sc45 O47 2.025 . S
Sc45 O55 2.105 . S
Sc45 O59 2.105 . S
Sc45 O61 2.105 . S
Sc45 O65 2.105 . S
Sc46 O47 2.025 . S
Sc46 O56 2.105 . S
Sc46 O58 2.105 . S
Sc46 O62 2.105 . S
Sc46 O64 2.105 . S
O47 Sc44 2.025 . S
O47 Sc45 2.025 . S
O47 Sc46 2.025 . S
C48 O54 1.268 . S
C48 O64 1.268 . S
C49 O55 1.268 . S
C49 O63 1.268 . S
C50 O56 1.268 . S
C50 O65 1.268 . S
C51 O57 1.268 . S
C51 O61 1.268 . S
C52 O58 1.268 . S
C52 O60 1.268 . S
C53 O59 1.268 . S
C53 O62 1.268 . S
O54 Sc44 2.105 . S
O54 C48 1.268 . S
O55 Sc45 2.105 . S
O55 C49 1.268 . S
O56 Sc46 2.105 . S
O56 C50 1.268 . S
O57 Sc44 2.105 . S
O57 C51 1.268 . S
O58 Sc46 2.105 . S
O58 C52 1.268 . S
O59 Sc45 2.105 . S
O59 C53 1.268 . S
O60 Sc44 2.105 . S
O60 C52 1.268 . S
O61 Sc45 2.105 . S
O61 C51 1.268 . S
O62 Sc46 2.105 . S
O62 C53 1.268 . S
O63 Sc44 2.105 . S
O63 C49 1.268 . S
O64 Sc46 2.105 . S
O64 C48 1.268 . S
O65 Sc45 2.105 . S
O65 C50 1.268 . S
Sc66 O69 2.025 . S
Sc66 O76 2.105 . S
Sc66 O79 2.105 . S
Sc66 O82 2.105 . S
Sc66 O85 2.105 . S
Sc67 O69 2.025 . S
Sc67 O77 2.105 . S
Sc67 O81 2.105 . S
Sc67 O83 2.105 . S
Sc67 O87 2.105 . S
Sc68 O69 2.025 . S
Sc68 O78 2.105 . S
Sc68 O80 2.105 . S
Sc68 O84 2.105 . S
Sc68 O86 2.105 . S
O69 Sc66 2.025 . S
O69 Sc67 2.025 . S
O69 Sc68 2.025 . S
C70 O76 1.268 . S
C70 O86 1.268 . S
C71 O77 1.268 . S
C71 O85 1.268 . S
C72 O78 1.268 . S
C72 O87 1.268 . S
C73 O79 1.268 . S
C73 O83 1.268 . S
C74 O80 1.268 . S
C74 O82 1.268 . S
C75 O81 1.268 . S
C75 O84 1.268 . S
O76 Sc66 2.105 . S
O76 C70 1.268 . S
O77 Sc67 2.105 . S
O77 C71 1.268 . S
O78 Sc68 2.105 . S
O78 C72 1.268 . S
O79 Sc66 2.105 . S
O79 C73 1.268 . S
O80 Sc68 2.105 . S
O80 C74 1.268 . S
O81 Sc67 2.105 . S
O81 C75 1.268 . S
O82 Sc66 2.105 . S
O82 C74 1.268 . S
O83 Sc67 2.105 . S
O83 C73 1.268 . S
O84 Sc68 2.105 . S
O84 C75 1.268 . S
O85 Sc66 2.105 . S
O85 C71 1.268 . S
O86 Sc68 2.105 . S
O86 C70 1.268 . S
O87 Sc67 2.105 . S
O87 C72 1.268 . S
Sc88 O91 2.025 . S
Sc88 O98 2.105 . S
Sc88 O101 2.105 . S
Sc88 O104 2.105 . S
Sc88 O107 2.105 . S
Sc89 O91 2.025 . S
Sc89 O99 2.105 . S
Sc89 O103 2.105 . S
Sc89 O105 2.105 . S
Sc89 O109 2.105 . S
Sc90 O91 2.025 . S
Sc90 O100 2.105 . S
Sc90 O102 2.105 . S
Sc90 O106 2.105 . S
Sc90 O108 2.105 . S
O91 Sc88 2.025 . S
O91 Sc89 2.025 . S
O91 Sc90 2.025 . S
C92 O98 1.268 . S
C92 O108 1.268 . S
C93 O99 1.268 . S
C93 O107 1.268 . S
C94 O100 1.268 . S
C94 O109 1.268 . S
C95 O101 1.268 . S
C95 O105 1.268 . S
C96 O102 1.268 . S
C96 O104 1.268 . S
C97 O103 1.268 . S
C97 O106 1.268 . S
O98 Sc88 2.105 . S
O98 C92 1.268 . S
O99 Sc89 2.105 . S
O99 C93 1.268 . S
O100 Sc90 2.105 . S
O100 C94 1.268 . S
O101 Sc88 2.105 . S
O101 C95 1.268 . S
O102 Sc90 2.105 . S
O102 C96 1.268 . S
O103 Sc89 2.105 . S
O103 C97 1.268 . S
O104 Sc88 2.105 . S
O104 C96 1.268 . S
O105 Sc89 2.105 . S
O105 C95 1.268 . S
O106 Sc90 2.105 . S
O106 C97 1.268 . S
O107 Sc88 2.105 . S
O107 C93 1.268 . S
O108 Sc90 2.105 . S
O108 C92 1.268 . S
O109 Sc89 2.105 . S
O109 C94 1.268 . S
Sc110 O113 2.025 . S
Sc110 O120 2.105 . S
Sc110 O123 2.105 . S
Sc110 O126 2.105 . S
Sc110 O129 2.105 . S
Sc111 O113 2.025 . S
Sc111 O121 2.105 . S
Sc111 O125 2.105 . S
Sc111 O127 2.105 . S
Sc111 O131 2.105 . S
Sc112 O113 2.025 . S
Sc112 O122 2.105 . S
Sc112 O124 2.105 . S
Sc112 O128 2.105 . S
Sc112 O130 2.105 . S
O113 Sc110 2.025 . S
O113 Sc111 2.025 . S
O113 Sc112 2.025 . S
C114 O120 1.268 . S
C114 O130 1.268 . S
C115 O121 1.268 . S
C115 O129 1.268 . S
C116 O122 1.268 . S
C116 O131 1.268 . S
C117 O123 1.268 . S
C117 O127 1.268 . S
C118 O124 1.268 . S
C118 O126 1.268 . S
C119 O125 1.268 . S
C119 O128 1.268 . S
O120 Sc110 2.105 . S
O120 C114 1.268 . S
O121 Sc111 2.105 . S
O121 C115 1.268 . S
O122 Sc112 2.105 . S
O122 C116 1.268 . S
O123 Sc110 2.105 . S
O123 C117 1.268 . S
O124 Sc112 2.105 . S
O124 C118 1.268 . S
O125 Sc111 2.105 . S
O125 C119 1.268 . S
O126 Sc110 2.105 . S
O126 C118 1.268 . S
O127 Sc111 2.105 . S
O127 C117 1.268 . S
O128 Sc112 2.105 . S
O128 C119 1.268 . S
O129 Sc110 2.105 . S
O129 C115 1.268 . S
O130 Sc112 2.105 . S
O130 C114 1.268 . S
O131 Sc111 2.105 . S
O131 C116 1.268 . S
Sc132 O135 2.025 . S
Sc132 O142 2.105 . S
Sc132 O145 2.105 . S
Sc132 O148 2.105 . S
Sc132 O151 2.105 . S
Sc133 O135 2.025 . S
Sc133 O143 2.105 . S
Sc133 O147 2.105 . S
Sc133 O149 2.105 . S
Sc133 O153 2.105 . S
Sc134 O135 2.025 . S
Sc134 O144 2.105 . S
Sc134 O146 2.105 . S
Sc134 O150 2.105 . S
Sc134 O152 2.105 . S
O135 Sc132 2.025 . S
O135 Sc133 2.025 . S
O135 Sc134 2.025 . S
C136 O142 1.268 . S
C136 O152 1.268 . S
C137 O143 1.268 . S
C137 O151 1.268 . S
C138 O144 1.268 . S
C138 O153 1.268 . S
C139 O145 1.268 . S
C139 O149 1.268 . S
C140 O146 1.268 . S
C140 O148 1.268 . S
C141 O147 1.268 . S
C141 O150 1.268 . S
O142 Sc132 2.105 . S
O142 C136 1.268 . S
O143 Sc133 2.105 . S
O143 C137 1.268 . S
O144 Sc134 2.105 . S
O144 C138 1.268 . S
O145 Sc132 2.105 . S
O145 C139 1.268 . S
O146 Sc134 2.105 . S
O146 C140 1.268 . S
O147 Sc133 2.105 . S
O147 C141 1.268 . S
O148 Sc132 2.105 . S
O148 C140 1.268 . S
O149 Sc133 2.105 . S
O149 C139 1.268 . S
O150 Sc134 2.105 . S
O150 C141 1.268 . S
O151 Sc132 2.105 . S
O151 C137 1.268 . S
O152 Sc134 2.105 . S
O152 C136 1.268 . S
O153 Sc133 2.105 . S
O153 C138 1.268 . S
Sc154 O157 2.025 . S
Sc154 O164 2.105 . S
Sc154 O167 2.105 . S
Sc154 O170 2.105 . S
Sc154 O173 2.105 . S
Sc155 O157 2.025 . S
Sc155 O165 2.105 . S
Sc155 O169 2.105 . S
Sc155 O171 2.105 . S
Sc155 O175 2.105 . S
Sc156 O157 2.025 . S
Sc156 O166 2.105 . S
Sc156 O168 2.105 . S
Sc156 O172 2.105 . S
Sc156 O174 2.105 . S
O157 Sc154 2.025 . S
O157 Sc155 2.025 . S
O157 Sc156 2.025 . S
C158 O164 1.268 . S
C158 O174 1.268 . S
C159 O165 1.268 . S
C159 O173 1.268 . S
C160 O166 1.268 . S
C160 O175 1.268 . S
C161 O167 1.268 . S
C161 O171 1.268 . S
C162 O168 1.268 . S
C162 O170 1.268 . S
C163 O169 1.268 . S
C163 O172 1.268 . S
O164 Sc154 2.105 . S
O164 C158 1.268 . S
O165 Sc155 2.105 . S
O165 C159 1.268 . S
O166 Sc156 2.105 . S
O166 C160 1.268 . S
O167 Sc154 2.105 . S
O167 C161 1.268 . S
O168 Sc156 2.105 . S
O168 C162 1.268 . S
O169 Sc155 2.105 . S
O169 C163 1.268 . S
O170 Sc154 2.105 . S
O170 C162 1.268 . S
O171 Sc155 2.105 . S
O171 C161 1.268 . S
O172 Sc156 2.105 . S
O172 C163 1.268 . S
O173 Sc154 2.105 . S
O173 C159 1.268 . S
O174 Sc156 2.105 . S
O174 C158 1.268 . S
O175 Sc155 2.105 . S
O175 C160 1.268 . S
C176 C177 1.349 . S
C176 C178 1.327 . S
C176 H201 0.950 1_655 S
C177 C176 1.349 . S
C177 C193 1.349 . S
C178 C176 1.327 . S
C178 C197 1.429 . S
C178 H202 0.950 . S
C179 C196 1.574 . S
C179 C198 1.368 . S
C179 H203 0.949 . S
H180 C184 0.949 . S
C181 C182 1.349 . S
C181 C183 1.327 . S
C181 H204 0.950 . S
C182 C181 1.349 . S
C182 C194 1.349 1_545 S
C183 C181 1.327 . S
C183 C199 1.429 . S
C183 H205 0.950 . S
C184 H180 0.949 . S
C184 C192 1.574 . S
C184 C200 1.368 . S
H185 C193 0.950 . S
H186 C191 0.950 . S
H187 C192 0.949 . S
H188 C194 0.950 . S
H189 C195 0.950 . S
H190 C196 0.949 . S
C191 H186 0.950 . S
C191 C193 1.327 . S
C191 C197 1.429 . S
C192 C184 1.574 . S
C192 H187 0.949 . S
C192 C198 1.368 . S
C193 C177 1.349 . S
C193 H185 0.950 . S
C193 C191 1.327 . S
C194 C182 1.349 1_565 S
C194 H188 0.950 . S
C194 C195 1.327 1_565 S
C195 H189 0.950 . S
C195 C194 1.327 1_545 S
C195 C199 1.429 . S
C196 C179 1.574 . S
C196 H190 0.949 . S
C196 C200 1.368 . S
C197 C178 1.429 . S
C197 C191 1.429 . S
C197 C198 1.523 . S
C198 C179 1.368 . S
C198 C192 1.368 . S
C198 C197 1.523 . S
C199 C183 1.429 . S
C199 C195 1.429 . S
C199 C200 1.523 . S
C200 C184 1.368 . S
C200 C196 1.368 . S
C200 C199 1.523 . S
H201 C176 0.950 1_455 S
H202 C178 0.950 . S
H203 C179 0.949 . S
H204 C181 0.950 . S
H205 C183 0.950 . S
C206 C207 1.349 . S
C206 C208 1.327 . S
C206 H231 0.950 . S
C207 C206 1.349 . S
C207 C223 1.349 . S
C208 C206 1.327 . S
C208 C227 1.429 . S
C208 H232 0.950 . S
C209 C226 1.574 . S
C209 C228 1.368 . S
C209 H233 0.949 . S
H210 C214 0.949 . S
C211 C212 1.349 . S
C211 C213 1.327 . S
C211 H234 0.950 . S
C212 C211 1.349 . S
C212 C224 1.349 . S
C213 C211 1.327 . S
C213 C229 1.429 . S
C213 H235 0.950 . S
C214 H210 0.949 . S
C214 C222 1.574 . S
C214 C230 1.368 . S
H215 C223 0.950 . S
H216 C221 0.950 . S
H217 C222 0.949 . S
H218 C224 0.950 . S
H219 C225 0.950 . S
H220 C226 0.949 . S
C221 H216 0.950 . S
C221 C223 1.327 . S
C221 C227 1.429 . S
C222 C214 1.574 . S
C222 H217 0.949 . S
C222 C228 1.368 . S
C223 C207 1.349 . S
C223 H215 0.950 . S
C223 C221 1.327 . S
C224 C212 1.349 . S
C224 H218 0.950 . S
C224 C225 1.327 . S
C225 H219 0.950 . S
C225 C224 1.327 . S
C225 C229 1.429 . S
C226 C209 1.574 . S
C226 H220 0.949 . S
C226 C230 1.368 . S
C227 C208 1.429 . S
C227 C221 1.429 . S
C227 C228 1.523 . S
C228 C209 1.368 . S
C228 C222 1.368 . S
C228 C227 1.523 . S
C229 C213 1.429 . S
C229 C225 1.429 . S
C229 C230 1.523 . S
C230 C214 1.368 . S
C230 C226 1.368 . S
C230 C229 1.523 . S
H231 C206 0.950 . S
H232 C208 0.950 . S
H233 C209 0.949 . S
H234 C211 0.950 . S
H235 C213 0.950 . S
C236 C237 1.349 1_655 S
C236 C238 1.327 1_655 S
C236 H261 0.950 . S
C237 C236 1.349 1_455 S
C237 C253 1.349 . S
C238 C236 1.327 1_455 S
C238 C257 1.429 . S
C238 H262 0.950 1_455 S
C239 C256 1.574 . S
C239 C258 1.368 . S
C239 H263 0.949 . S
H240 C244 0.949 . S
C241 C242 1.349 . S
C241 C243 1.327 . S
C241 H264 0.950 . S
C242 C241 1.349 . S
C242 C254 1.349 . S
C243 C241 1.327 . S
C243 C259 1.429 . S
C243 H265 0.950 . S
C244 H240 0.949 . S
C244 C252 1.574 . S
C244 C260 1.368 . S
H245 C253 0.950 . S
H246 C251 0.950 . S
H247 C252 0.949 . S
H248 C254 0.950 . S
H249 C255 0.950 . S
H250 C256 0.949 . S
C251 H246 0.950 . S
C251 C253 1.327 . S
C251 C257 1.429 . S
C252 C244 1.574 . S
C252 H247 0.949 . S
C252 C258 1.368 . S
C253 C237 1.349 . S
C253 H245 0.950 . S
C253 C251 1.327 . S
C254 C242 1.349 . S
C254 H248 0.950 . S
C254 C255 1.327 . S
C255 H249 0.950 . S
C255 C254 1.327 . S
C255 C259 1.429 . S
C256 C239 1.574 . S
C256 H250 0.949 . S
C256 C260 1.368 . S
C257 C238 1.429 . S
C257 C251 1.429 . S
C257 C258 1.523 . S
C258 C239 1.368 . S
C258 C252 1.368 . S
C258 C257 1.523 . S
C259 C243 1.429 . S
C259 C255 1.429 . S
C259 C260 1.523 . S
C260 C244 1.368 . S
C260 C256 1.368 . S
C260 C259 1.523 . S
H261 C236 0.950 . S
H262 C238 0.950 1_655 S
H263 C239 0.949 . S
H264 C241 0.950 . S
H265 C243 0.950 . S
C266 C267 1.349 . S
C266 C268 1.327 . S
C266 H291 0.950 . S
C267 C266 1.349 . S
C267 C283 1.349 . S
C268 C266 1.327 . S
C268 C287 1.429 . S
C268 H292 0.950 . S
C269 C286 1.574 1_554 S
C269 C288 1.368 . S
C269 H293 0.949 . S
H270 C274 0.949 . S
C271 C272 1.349 . S
C271 C273 1.327 . S
C271 H294 0.950 . S
C272 C271 1.349 . S
C272 C284 1.349 . S
C273 C271 1.327 . S
C273 C289 1.429 . S
C273 H295 0.950 . S
C274 H270 0.949 . S
C274 C282 1.574 1_556 S
C274 C290 1.368 . S
H275 C283 0.950 . S
H276 C281 0.950 . S
H277 C282 0.949 . S
H278 C284 0.950 . S
H279 C285 0.950 . S
H280 C286 0.949 . S
C281 H276 0.950 . S
C281 C283 1.327 . S
C281 C287 1.429 . S
C282 C274 1.574 1_554 S
C282 H277 0.949 . S
C282 C288 1.368 . S
C283 C267 1.349 . S
C283 H275 0.950 . S
C283 C281 1.327 . S
C284 C272 1.349 . S
C284 H278 0.950 . S
C284 C285 1.327 . S
C285 H279 0.950 . S
C285 C284 1.327 . S
C285 C289 1.429 . S
C286 C269 1.574 1_556 S
C286 H280 0.949 . S
C286 C290 1.368 . S
C287 C268 1.429 . S
C287 C281 1.429 . S
C287 C288 1.523 . S
C288 C269 1.368 . S
C288 C282 1.368 . S
C288 C287 1.523 . S
C289 C273 1.429 . S
C289 C285 1.429 . S
C289 C290 1.523 . S
C290 C274 1.368 . S
C290 C286 1.368 . S
C290 C289 1.523 . S
H291 C266 0.950 . S
H292 C268 0.950 . S
H293 C269 0.949 . S
H294 C271 0.950 . S
H295 C273 0.950 . S
C296 C297 1.349 . S
C296 C298 1.327 . S
C296 H321 0.950 . S
C297 C296 1.349 . S
C297 C313 1.349 . S
C298 C296 1.327 . S
C298 C317 1.429 . S
C298 H322 0.950 . S
C299 C316 1.574 . S
C299 C318 1.368 . S
C299 H323 0.949 . S
H300 C304 0.949 . S
C301 C302 1.349 . S
C301 C303 1.327 . S
C301 H324 0.950 . S
C302 C301 1.349 . S
C302 C314 1.349 . S
C303 C301 1.327 . S
C303 C319 1.429 . S
C303 H325 0.950 . S
C304 H300 0.949 . S
C304 C312 1.574 . S
C304 C320 1.368 . S
H305 C313 0.950 . S
H306 C311 0.950 . S
H307 C312 0.949 . S
H308 C314 0.950 . S
H309 C315 0.950 . S
H310 C316 0.949 . S
C311 H306 0.950 . S
C311 C313 1.327 . S
C311 C317 1.429 . S
C312 C304 1.574 . S
C312 H307 0.949 . S
C312 C318 1.368 . S
C313 C297 1.349 . S
C313 H305 0.950 . S
C313 C311 1.327 . S
C314 C302 1.349 . S
C314 H308 0.950 . S
C314 C315 1.327 . S
C315 H309 0.950 . S
C315 C314 1.327 . S
C315 C319 1.429 . S
C316 C299 1.574 . S
C316 H310 0.949 . S
C316 C320 1.368 . S
C317 C298 1.429 . S
C317 C311 1.429 . S
C317 C318 1.523 . S
C318 C299 1.368 . S
C318 C312 1.368 . S
C318 C317 1.523 . S
C319 C303 1.429 . S
C319 C315 1.429 . S
C319 C320 1.523 . S
C320 C304 1.368 . S
C320 C316 1.368 . S
C320 C319 1.523 . S
H321 C296 0.950 . S
H322 C298 0.950 . S
H323 C299 0.949 . S
H324 C301 0.950 . S
H325 C303 0.950 . S
C326 C327 1.349 . S
C326 C328 1.327 . S
C326 H351 0.950 . S
C327 C326 1.349 . S
C327 C343 1.349 . S
C328 C326 1.327 . S
C328 C347 1.429 . S
C328 H352 0.950 . S
C329 C346 1.574 . S
C329 C348 1.368 . S
C329 H353 0.949 . S
H330 C334 0.949 . S
C331 C332 1.349 . S
C331 C333 1.327 . S
C331 H354 0.950 . S
C332 C331 1.349 . S
C332 C344 1.349 . S
C333 C331 1.327 . S
C333 C349 1.429 . S
C333 H355 0.950 . S
C334 H330 0.949 . S
C334 C342 1.574 . S
C334 C350 1.368 . S
H335 C343 0.950 . S
H336 C341 0.950 . S
H337 C342 0.949 . S
H338 C344 0.950 . S
H339 C345 0.950 . S
H340 C346 0.949 . S
C341 H336 0.950 . S
C341 C343 1.327 . S
C341 C347 1.429 . S
C342 C334 1.574 . S
C342 H337 0.949 . S
C342 C348 1.368 . S
C343 C327 1.349 . S
C343 H335 0.950 . S
C343 C341 1.327 . S
C344 C332 1.349 . S
C344 H338 0.950 . S
C344 C345 1.327 . S
C345 H339 0.950 . S
C345 C344 1.327 . S
C345 C349 1.429 . S
C346 C329 1.574 . S
C346 H340 0.949 . S
C346 C350 1.368 . S
C347 C328 1.429 . S
C347 C341 1.429 . S
C347 C348 1.523 . S
C348 C329 1.368 . S
C348 C342 1.368 . S
C348 C347 1.523 . S
C349 C333 1.429 . S
C349 C345 1.429 . S
C349 C350 1.523 . S
C350 C334 1.368 . S
C350 C346 1.368 . S
C350 C349 1.523 . S
H351 C326 0.950 . S
H352 C328 0.950 . S
H353 C329 0.949 . S
H354 C331 0.950 . S
H355 C333 0.950 . S
C356 C357 1.349 . S
C356 C358 1.327 . S
C356 H381 0.950 . S
C357 C356 1.349 . S
C357 C373 1.349 . S
C358 C356 1.327 . S
C358 C377 1.429 . S
C358 H382 0.950 . S
C359 C376 1.574 . S
C359 C378 1.368 . S
C359 H383 0.949 . S
H360 C364 0.949 . S
C361 C362 1.349 . S
C361 C363 1.327 . S
C361 H384 0.950 . S
C362 C361 1.349 . S
C362 C374 1.349 . S
C363 C361 1.327 . S
C363 C379 1.429 . S
C363 H385 0.950 . S
C364 H360 0.949 . S
C364 C372 1.574 . S
C364 C380 1.368 . S
H365 C373 0.950 . S
H366 C371 0.950 . S
H367 C372 0.949 . S
H368 C374 0.950 . S
H369 C375 0.950 . S
H370 C376 0.949 . S
C371 H366 0.950 . S
C371 C373 1.327 . S
C371 C377 1.429 . S
C372 C364 1.574 . S
C372 H367 0.949 . S
C372 C378 1.368 . S
C373 C357 1.349 . S
C373 H365 0.950 . S
C373 C371 1.327 . S
C374 C362 1.349 . S
C374 H368 0.950 . S
C374 C375 1.327 . S
C375 H369 0.950 . S
C375 C374 1.327 . S
C375 C379 1.429 . S
C376 C359 1.574 . S
C376 H370 0.949 . S
C376 C380 1.368 . S
C377 C358 1.429 . S
C377 C371 1.429 . S
C377 C378 1.523 . S
C378 C359 1.368 . S
C378 C372 1.368 . S
C378 C377 1.523 . S
C379 C363 1.429 . S
C379 C375 1.429 . S
C379 C380 1.523 . S
C380 C364 1.368 . S
C380 C376 1.368 . S
C380 C379 1.523 . S
H381 C356 0.950 . S
H382 C358 0.950 . S
H383 C359 0.949 . S
H384 C361 0.950 . S
H385 C363 0.950 . S
C386 C387 1.349 . S
C386 C388 1.327 . S
C386 H411 0.950 . S
C387 C386 1.349 . S
C387 C403 1.349 . S
C388 C386 1.327 . S
C388 C407 1.429 . S
C388 H412 0.950 . S
C389 C406 1.574 . S
C389 C408 1.368 . S
C389 H413 0.949 . S
H390 C394 0.949 . S
C391 C392 1.349 . S
C391 C393 1.327 . S
C391 H414 0.950 . S
C392 C391 1.349 . S
C392 C404 1.349 . S
C393 C391 1.327 . S
C393 C409 1.429 . S
C393 H415 0.950 . S
C394 H390 0.949 . S
C394 C402 1.574 . S
C394 C410 1.368 . S
H395 C403 0.950 1_455 S
H396 C401 0.950 . S
H397 C402 0.949 . S
H398 C404 0.950 . S
H399 C405 0.950 . S
H400 C406 0.948 1_556 S
C401 H396 0.950 . S
C401 C403 1.327 . S
C401 C407 1.429 . S
C402 C394 1.574 . S
C402 H397 0.949 . S
C402 C408 1.368 . S
C403 C387 1.349 . S
C403 H395 0.950 1_655 S
C403 C401 1.327 . S
C404 C392 1.349 . S
C404 H398 0.950 . S
C404 C405 1.327 . S
C405 H399 0.950 . S
C405 C404 1.327 . S
C405 C409 1.429 . S
C406 C389 1.574 . S
C406 H400 0.948 1_554 S
C406 C410 1.368 . S
C407 C388 1.429 . S
C407 C401 1.429 . S
C407 C408 1.523 . S
C408 C389 1.368 . S
C408 C402 1.368 . S
C408 C407 1.523 . S
C409 C393 1.429 . S
C409 C405 1.429 . S
C409 C410 1.523 1_556 S
C410 C394 1.368 . S
C410 C406 1.368 . S
C410 C409 1.523 1_554 S
H411 C386 0.950 . S
H412 C388 0.950 . S
H413 C389 0.949 . S
H414 C391 0.950 . S
H415 C393 0.950 . S
C416 C417 1.349 . S
C416 C418 1.327 . S
C416 H441 0.950 . S
C417 C416 1.349 . S
C417 C433 1.349 . S
C418 C416 1.327 . S
C418 C437 1.429 . S
C418 H442 0.950 . S
C419 C436 1.574 . S
C419 C438 1.368 . S
C419 H443 0.949 . S
H420 C424 0.949 . S
C421 C422 1.349 . S
C421 C423 1.327 . S
C421 H444 0.950 1_545 S
C422 C421 1.349 . S
C422 C434 1.349 . S
C423 C421 1.327 . S
C423 C439 1.429 . S
C423 H445 0.950 . S
C424 H420 0.949 . S
C424 C432 1.574 . S
C424 C440 1.368 . S
H425 C433 0.950 . S
H426 C431 0.950 . S
H427 C432 0.949 . S
H428 C434 0.950 . S
H429 C435 0.950 . S
H430 C436 0.949 . S
C431 H426 0.950 . S
C431 C433 1.327 . S
C431 C437 1.429 . S
C432 C424 1.574 . S
C432 H427 0.949 . S
C432 C438 1.368 . S
C433 C417 1.349 . S
C433 H425 0.950 . S
C433 C431 1.327 . S
C434 C422 1.349 . S
C434 H428 0.950 . S
C434 C435 1.327 . S
C435 H429 0.950 . S
C435 C434 1.327 . S
C435 C439 1.429 . S
C436 C419 1.574 . S
C436 H430 0.949 . S
C436 C440 1.368 . S
C437 C418 1.429 . S
C437 C431 1.429 . S
C437 C438 1.523 . S
C438 C419 1.368 . S
C438 C432 1.368 . S
C438 C437 1.523 . S
C439 C423 1.429 . S
C439 C435 1.429 . S
C439 C440 1.523 . S
C440 C424 1.368 . S
C440 C436 1.368 . S
C440 C439 1.523 . S
H441 C416 0.950 . S
H442 C418 0.950 . S
H443 C419 0.949 . S
H444 C421 0.950 1_565 S
H445 C423 0.950 . S
C446 C447 1.349 . S
C446 C448 1.327 . S
C446 H471 0.950 . S
C447 C446 1.349 . S
C447 C463 1.349 . S
C448 C446 1.327 . S
C448 C467 1.429 . S
C448 H472 0.950 . S
C449 C466 1.574 . S
C449 C468 1.368 . S
C449 H473 0.949 . S
H450 C454 0.949 . S
C451 C452 1.349 . S
C451 C453 1.327 . S
C451 H474 0.950 . S
C452 C451 1.349 . S
C452 C464 1.349 . S
C453 C451 1.327 . S
C453 C469 1.429 . S
C453 H475 0.950 . S
C454 H450 0.949 . S
C454 C462 1.574 . S
C454 C470 1.368 . S
H455 C463 0.950 . S
H456 C461 0.950 . S
H457 C462 0.949 . S
H458 C464 0.950 . S
H459 C465 0.950 . S
H460 C466 0.949 . S
C461 H456 0.950 . S
C461 C463 1.327 . S
C461 C467 1.429 . S
C462 C454 1.574 . S
C462 H457 0.949 . S
C462 C468 1.368 . S
C463 C447 1.349 . S
C463 H455 0.950 . S
C463 C461 1.327 . S
C464 C452 1.349 . S
C464 H458 0.950 . S
C464 C465 1.327 . S
C465 H459 0.950 . S
C465 C464 1.327 . S
C465 C469 1.429 . S
C466 C449 1.574 . S
C466 H460 0.949 . S
C466 C470 1.368 . S
C467 C448 1.429 . S
C467 C461 1.429 . S
C467 C468 1.523 . S
C468 C449 1.368 . S
C468 C462 1.368 . S
C468 C467 1.523 . S
C469 C453 1.429 . S
C469 C465 1.429 . S
C469 C470 1.523 . S
C470 C454 1.368 . S
C470 C466 1.368 . S
C470 C469 1.523 . S
H471 C446 0.950 . S
H472 C448 0.950 . S
H473 C449 0.949 . S
H474 C451 0.950 . S
H475 C453 0.950 . S
C476 C477 1.349 . S
C476 C478 1.327 . S
C476 H501 0.950 . S
C477 C476 1.349 . S
C477 C493 1.349 . S
C478 C476 1.327 . S
C478 C497 1.429 . S
C478 H502 0.950 . S
C479 C496 1.574 . S
C479 C498 1.368 . S
C479 H503 0.949 . S
H480 C484 0.949 . S
C481 C482 1.349 . S
C481 C483 1.327 . S
C481 H504 0.950 . S
C482 C481 1.349 . S
C482 C494 1.349 . S
C483 C481 1.327 . S
C483 C499 1.429 . S
C483 H505 0.950 . S
C484 H480 0.949 . S
C484 C492 1.574 . S
C484 C500 1.368 . S
H485 C493 0.950 . S
H486 C491 0.950 . S
H487 C492 0.949 . S
H488 C494 0.950 1_545 S
H489 C495 0.950 . S
H490 C496 0.949 . S
C491 H486 0.950 . S
C491 C493 1.327 . S
C491 C497 1.429 . S
C492 C484 1.574 . S
C492 H487 0.949 . S
C492 C498 1.368 . S
C493 C477 1.349 . S
C493 H485 0.950 . S
C493 C491 1.327 . S
C494 C482 1.349 . S
C494 H488 0.950 1_565 S
C494 C495 1.327 . S
C495 H489 0.950 . S
C495 C494 1.327 . S
C495 C499 1.429 . S
C496 C479 1.574 . S
C496 H490 0.949 . S
C496 C500 1.368 . S
C497 C478 1.429 . S
C497 C491 1.429 . S
C497 C498 1.523 1_554 S
C498 C479 1.368 . S
C498 C492 1.368 . S
C498 C497 1.523 1_556 S
C499 C483 1.429 . S
C499 C495 1.429 . S
C499 C500 1.523 . S
C500 C484 1.368 . S
C500 C496 1.368 . S
C500 C499 1.523 . S
H501 C476 0.950 . S
H502 C478 0.950 . S
H503 C479 0.949 . S
H504 C481 0.950 . S
H505 C483 0.950 . S
C506 C507 1.349 . S
C506 C508 1.327 . S
C506 H531 0.950 . S
C507 C506 1.349 . S
C507 C523 1.349 . S
C508 C506 1.327 . S
C508 C527 1.429 . S
C508 H532 0.950 . S
C509 C526 1.574 . S
C509 C528 1.368 . S
C509 H533 0.949 . S
H510 C514 0.949 . S
C511 C512 1.349 . S
C511 C513 1.327 . S
C511 H534 0.950 . S
C512 C511 1.349 . S
C512 C524 1.349 . S
C513 C511 1.327 . S
C513 C529 1.429 . S
C513 H535 0.950 . S
C514 H510 0.949 . S
C514 C522 1.574 . S
C514 C530 1.368 . S
H515 C523 0.950 . S
H516 C521 0.950 . S
H517 C522 0.949 . S
H518 C524 0.950 . S
H519 C525 0.950 . S
H520 C526 0.949 . S
C521 H516 0.950 . S
C521 C523 1.327 . S
C521 C527 1.429 . S
C522 C514 1.574 . S
C522 H517 0.949 . S
C522 C528 1.368 . S
C523 C507 1.349 . S
C523 H515 0.950 . S
C523 C521 1.327 . S
C524 C512 1.349 . S
C524 H518 0.950 . S
C524 C525 1.327 . S
C525 H519 0.950 . S
C525 C524 1.327 . S
C525 C529 1.429 . S
C526 C509 1.574 . S
C526 H520 0.949 . S
C526 C530 1.368 . S
C527 C508 1.429 . S
C527 C521 1.429 . S
C527 C528 1.523 . S
C528 C509 1.368 . S
C528 C522 1.368 . S
C528 C527 1.523 . S
C529 C513 1.429 . S
C529 C525 1.429 . S
C529 C530 1.523 . S
C530 C514 1.368 . S
C530 C526 1.368 . S
C530 C529 1.523 . S
H531 C506 0.950 . S
H532 C508 0.950 . S
H533 C509 0.949 . S
H534 C511 0.950 . S
H535 C513 0.950 . S
C536 C537 1.349 . S
C536 C538 1.327 . S
C536 H561 0.950 . S
C537 C536 1.349 . S
C537 C553 1.349 . S
C538 C536 1.327 . S
C538 C557 1.429 . S
C538 H562 0.950 . S
C539 C556 1.574 1_556 S
C539 C558 1.368 . S
C539 H563 0.949 . S
H540 C544 0.949 . S
C541 C542 1.349 . S
C541 C543 1.327 . S
C541 H564 0.950 . S
C542 C541 1.349 . S
C542 C554 1.349 . S
C543 C541 1.327 . S
C543 C559 1.429 . S
C543 H565 0.950 . S
C544 H540 0.949 . S
C544 C552 1.574 1_554 S
C544 C560 1.368 . S
H545 C553 0.950 . S
H546 C551 0.950 . S
H547 C552 0.949 . S
H548 C554 0.950 . S
H549 C555 0.950 . S
H550 C556 0.949 . S
C551 H546 0.950 . S
C551 C553 1.327 . S
C551 C557 1.429 . S
C552 C544 1.574 1_556 S
C552 H547 0.949 . S
C552 C558 1.368 . S
C553 C537 1.349 . S
C553 H545 0.950 . S
C553 C551 1.327 . S
C554 C542 1.349 . S
C554 H548 0.950 . S
C554 C555 1.327 . S
C555 H549 0.950 . S
C555 C554 1.327 . S
C555 C559 1.429 . S
C556 C539 1.574 1_554 S
C556 H550 0.949 . S
C556 C560 1.368 . S
C557 C538 1.429 . S
C557 C551 1.429 . S
C557 C558 1.523 . S
C558 C539 1.368 . S
C558 C552 1.368 . S
C558 C557 1.523 . S
C559 C543 1.429 . S
C559 C555 1.429 . S
C559 C560 1.523 . S
C560 C544 1.368 . S
C560 C556 1.368 . S
C560 C559 1.523 . S
H561 C536 0.950 . S
H562 C538 0.950 . S
H563 C539 0.949 . S
H564 C541 0.950 . S
H565 C543 0.950 . S
C566 C567 1.349 . S
C566 C568 1.327 . S
C566 H591 0.950 . S
C567 C566 1.349 . S
C567 C583 1.349 . S
C568 C566 1.327 . S
C568 C587 1.429 . S
C568 H592 0.950 . S
C569 C586 1.574 . S
C569 C588 1.368 . S
C569 H593 0.949 . S
H570 C574 0.949 . S
C571 C572 1.349 . S
C571 C573 1.327 . S
C571 H594 0.950 . S
C572 C571 1.349 . S
C572 C584 1.349 . S
C573 C571 1.327 . S
C573 C589 1.429 . S
C573 H595 0.950 . S
C574 H570 0.949 . S
C574 C582 1.574 . S
C574 C590 1.368 . S
H575 C583 0.950 . S
H576 C581 0.950 . S
H577 C582 0.949 . S
H578 C584 0.950 . S
H579 C585 0.950 . S
H580 C586 0.949 . S
C581 H576 0.950 . S
C581 C583 1.327 . S
C581 C587 1.429 . S
C582 C574 1.574 . S
C582 H577 0.949 . S
C582 C588 1.368 . S
C583 C567 1.349 . S
C583 H575 0.950 . S
C583 C581 1.327 . S
C584 C572 1.349 . S
C584 H578 0.950 . S
C584 C585 1.327 . S
C585 H579 0.950 . S
C585 C584 1.327 . S
C585 C589 1.429 . S
C586 C569 1.574 . S
C586 H580 0.949 . S
C586 C590 1.368 . S
C587 C568 1.429 . S
C587 C581 1.429 . S
C587 C588 1.523 . S
C588 C569 1.368 . S
C588 C582 1.368 . S
C588 C587 1.523 . S
C589 C573 1.429 . S
C589 C585 1.429 . S
C589 C590 1.523 . S
C590 C574 1.368 . S
C590 C586 1.368 . S
C590 C589 1.523 . S
H591 C566 0.950 . S
H592 C568 0.950 . S
H593 C569 0.949 . S
H594 C571 0.950 . S
H595 C573 0.950 . S
C596 C597 1.349 . S
C596 C598 1.327 . S
C596 H621 0.950 . S
C597 C596 1.349 . S
C597 C613 1.349 . S
C598 C596 1.327 . S
C598 C617 1.429 . S
C598 H622 0.950 . S
C599 C616 1.574 . S
C599 C618 1.368 . S
C599 H623 0.949 . S
H600 C604 0.949 . S
C601 C602 1.349 . S
C601 C603 1.327 . S
C601 H624 0.950 . S
C602 C601 1.349 . S
C602 C614 1.349 . S
C603 C601 1.327 . S
C603 C619 1.429 . S
C603 H625 0.950 . S
C604 H600 0.949 . S
C604 C612 1.574 . S
C604 C620 1.368 . S
H605 C613 0.950 . S
H606 C611 0.950 . S
H607 C612 0.949 . S
H608 C614 0.950 . S
H609 C615 0.950 . S
H610 C616 0.949 . S
C611 H606 0.950 . S
C611 C613 1.327 . S
C611 C617 1.429 . S
C612 C604 1.574 . S
C612 H607 0.949 . S
C612 C618 1.368 . S
C613 C597 1.349 . S
C613 H605 0.950 . S
C613 C611 1.327 . S
C614 C602 1.349 . S
C614 H608 0.950 . S
C614 C615 1.327 . S
C615 H609 0.950 . S
C615 C614 1.327 . S
C615 C619 1.429 . S
C616 C599 1.574 . S
C616 H610 0.949 . S
C616 C620 1.368 . S
C617 C598 1.429 . S
C617 C611 1.429 . S
C617 C618 1.523 . S
C618 C599 1.368 . S
C618 C612 1.368 . S
C618 C617 1.523 . S
C619 C603 1.429 . S
C619 C615 1.429 . S
C619 C620 1.523 . S
C620 C604 1.368 . S
C620 C616 1.368 . S
C620 C619 1.523 . S
H621 C596 0.950 . S
H622 C598 0.950 . S
H623 C599 0.949 . S
H624 C601 0.950 . S
H625 C603 0.950 . S
C626 C627 1.349 . S
C626 C628 1.327 . S
C626 H651 0.950 . S
C627 C626 1.349 . S
C627 C643 1.349 . S
C628 C626 1.327 . S
C628 C647 1.429 . S
C628 H652 0.950 . S
C629 C646 1.574 . S
C629 C648 1.368 . S
C629 H653 0.949 . S
H630 C634 0.949 . S
C631 C632 1.349 . S
C631 C633 1.327 . S
C631 H654 0.950 . S
C632 C631 1.349 . S
C632 C644 1.349 . S
C633 C631 1.327 . S
C633 C649 1.429 . S
C633 H655 0.950 . S
C634 H630 0.949 . S
C634 C642 1.574 . S
C634 C650 1.368 . S
H635 C643 0.950 . S
H636 C641 0.950 . S
H637 C642 0.949 . S
H638 C644 0.950 . S
H639 C645 0.950 . S
H640 C646 0.949 . S
C641 H636 0.950 . S
C641 C643 1.327 . S
C641 C647 1.429 . S
C642 C634 1.574 . S
C642 H637 0.949 . S
C642 C648 1.368 . S
C643 C627 1.349 . S
C643 H635 0.950 . S
C643 C641 1.327 . S
C644 C632 1.349 . S
C644 H638 0.950 . S
C644 C645 1.327 . S
C645 H639 0.950 . S
C645 C644 1.327 . S
C645 C649 1.429 . S
C646 C629 1.574 . S
C646 H640 0.949 . S
C646 C650 1.368 . S
C647 C628 1.429 . S
C647 C641 1.429 . S
C647 C648 1.523 . S
C648 C629 1.368 . S
C648 C642 1.368 . S
C648 C647 1.523 . S
C649 C633 1.429 . S
C649 C645 1.429 . S
C649 C650 1.523 . S
C650 C634 1.368 . S
C650 C646 1.368 . S
C650 C649 1.523 . S
H651 C626 0.950 . S
H652 C628 0.950 . S
H653 C629 0.949 . S
H654 C631 0.950 . S
H655 C633 0.950 . S
C656 C657 1.349 . S
C656 C658 1.327 . S
C656 H681 0.950 . S
C657 C656 1.349 . S
C657 C673 1.349 . S
C658 C656 1.327 . S
C658 C677 1.429 . S
C658 H682 0.950 . S
C659 C676 1.574 . S
C659 C678 1.368 1_565 S
C659 H683 0.949 . S
H660 C664 0.949 . S
C661 C662 1.349 . S
C661 C663 1.327 . S
C661 H684 0.950 . S
C662 C661 1.349 . S
C662 C674 1.349 . S
C663 C661 1.327 . S
C663 C679 1.429 . S
C663 H685 0.950 . S
C664 H660 0.949 . S
C664 C672 1.581 . S
C664 C680 1.361 1_545 S
H665 C673 0.950 . S
H666 C671 0.950 . S
H667 C672 0.949 . S
H668 C674 0.950 . S
H669 C675 0.950 . S
H670 C676 0.949 . S
C671 H666 0.950 . S
C671 C673 1.327 . S
C671 C677 1.429 . S
C672 C664 1.581 . S
C672 H667 0.949 . S
C672 C678 1.368 . S
C673 C657 1.349 . S
C673 H665 0.950 . S
C673 C671 1.327 . S
C674 C662 1.349 . S
C674 H668 0.950 . S
C674 C675 1.327 . S
C675 H669 0.950 . S
C675 C674 1.327 . S
C675 C679 1.429 . S
C676 C659 1.574 . S
C676 H670 0.949 . S
C676 C680 1.368 . S
C677 C658 1.429 . S
C677 C671 1.429 . S
C677 C678 1.523 . S
C678 C659 1.368 1_545 S
C678 C672 1.368 . S
C678 C677 1.523 . S
C679 C663 1.429 . S
C679 C675 1.429 . S
C679 C680 1.523 . S
C680 C664 1.361 1_565 S
C680 C676 1.368 . S
C680 C679 1.523 . S
H681 C656 0.950 . S
H682 C658 0.950 . S
H683 C659 0.949 . S
H684 C661 0.950 . S
H685 C663 0.950 . S
C686 C687 1.349 . S
C686 C688 1.327 . S
C686 H711 0.950 . S
C687 C686 1.349 . S
C687 C703 1.349 . S
C688 C686 1.327 . S
C688 C707 1.429 . S
C688 H712 0.950 . S
C689 C706 1.574 . S
C689 C708 1.368 . S
C689 H713 0.949 . S
H690 C694 0.949 . S
C691 C692 1.349 . S
C691 C693 1.327 . S
C691 H714 0.950 . S
C692 C691 1.349 . S
C692 C704 1.349 . S
C693 C691 1.327 . S
C693 C709 1.429 . S
C693 H715 0.950 . S
C694 H690 0.949 . S
C694 C702 1.574 . S
C694 C710 1.368 . S
H695 C703 0.950 . S
H696 C701 0.950 . S
H697 C702 0.949 . S
H698 C704 0.950 . S
H699 C705 0.950 . S
H700 C706 0.949 . S
C701 H696 0.950 . S
C701 C703 1.327 . S
C701 C707 1.429 . S
C702 C694 1.574 . S
C702 H697 0.949 . S
C702 C708 1.368 . S
C703 C687 1.349 . S
C703 H695 0.950 . S
C703 C701 1.327 . S
C704 C692 1.349 . S
C704 H698 0.950 . S
C704 C705 1.327 . S
C705 H699 0.950 . S
C705 C704 1.327 . S
C705 C709 1.429 . S
C706 C689 1.574 . S
C706 H700 0.949 . S
C706 C710 1.368 . S
C707 C688 1.429 . S
C707 C701 1.429 . S
C707 C708 1.523 . S
C708 C689 1.368 . S
C708 C702 1.368 . S
C708 C707 1.523 . S
C709 C693 1.429 . S
C709 C705 1.429 . S
C709 C710 1.523 . S
C710 C694 1.368 . S
C710 C706 1.368 . S
C710 C709 1.523 . S
H711 C686 0.950 . S
H712 C688 0.950 . S
H713 C689 0.949 . S
H714 C691 0.950 . S
H715 C693 0.950 . S
C716 C717 1.349 . S
C716 C718 1.327 . S
C716 H741 0.950 . S
C717 C716 1.349 . S
C717 C733 1.349 . S
C718 C716 1.327 . S
C718 C737 1.429 . S
C718 H742 0.950 . S
C719 C736 1.574 1_545 S
C719 C738 1.368 . S
C719 H743 0.949 . S
H720 C724 0.949 . S
C721 C722 1.349 . S
C721 C723 1.327 . S
C721 H744 0.950 . S
C722 C721 1.349 . S
C722 C734 1.349 . S
C723 C721 1.327 . S
C723 C739 1.429 . S
C723 H745 0.950 . S
C724 H720 0.949 . S
C724 C732 1.574 1_565 S
C724 C740 1.368 . S
H725 C733 0.950 . S
H726 C731 0.950 . S
H727 C732 0.949 . S
H728 C734 0.950 . S
H729 C735 0.950 . S
H730 C736 0.949 . S
C731 H726 0.950 . S
C731 C733 1.327 . S
C731 C737 1.429 . S
C732 C724 1.574 1_545 S
C732 H727 0.949 . S
C732 C738 1.368 . S
C733 C717 1.349 . S
C733 H725 0.950 . S
C733 C731 1.327 . S
C734 C722 1.349 . S
C734 H728 0.950 . S
C734 C735 1.327 . S
C735 H729 0.950 . S
C735 C734 1.327 . S
C735 C739 1.429 . S
C736 C719 1.574 1_565 S
C736 H730 0.949 . S
C736 C740 1.368 . S
C737 C718 1.429 . S
C737 C731 1.429 . S
C737 C738 1.523 . S
C738 C719 1.368 . S
C738 C732 1.368 . S
C738 C737 1.523 . S
C739 C723 1.429 . S
C739 C735 1.429 . S
C739 C740 1.523 . S
C740 C724 1.368 . S
C740 C736 1.368 . S
C740 C739 1.523 . S
H741 C716 0.950 . S
H742 C718 0.950 . S
H743 C719 0.949 . S
H744 C721 0.950 . S
H745 C723 0.950 . S
C746 C747 1.349 . S
C746 C748 1.327 . S
C746 H771 0.950 . S
C747 C746 1.349 . S
C747 C763 1.349 . S
C748 C746 1.327 . S
C748 C767 1.429 . S
C748 H772 0.950 . S
C749 C766 1.574 . S
C749 C768 1.368 . S
C749 H773 0.949 . S
H750 C754 0.949 . S
C751 C752 1.349 . S
C751 C753 1.327 . S
C751 H774 0.950 . S
C752 C751 1.349 . S
C752 C764 1.349 . S
C753 C751 1.327 . S
C753 C769 1.429 . S
C753 H775 0.950 . S
C754 H750 0.949 . S
C754 C762 1.574 . S
C754 C770 1.368 . S
H755 C763 0.950 . S
H756 C761 0.950 . S
H757 C762 0.949 . S
H758 C764 0.950 . S
H759 C765 0.950 . S
H760 C766 0.949 . S
C761 H756 0.950 . S
C761 C763 1.327 . S
C761 C767 1.429 . S
C762 C754 1.574 . S
C762 H757 0.949 . S
C762 C768 1.368 . S
C763 C747 1.349 . S
C763 H755 0.950 . S
C763 C761 1.327 . S
C764 C752 1.349 . S
C764 H758 0.950 . S
C764 C765 1.327 . S
C765 H759 0.950 . S
C765 C764 1.327 . S
C765 C769 1.429 . S
C766 C749 1.574 . S
C766 H760 0.949 . S
C766 C770 1.368 . S
C767 C748 1.429 . S
C767 C761 1.429 . S
C767 C768 1.523 . S
C768 C749 1.368 . S
C768 C762 1.368 . S
C768 C767 1.523 . S
C769 C753 1.429 . S
C769 C765 1.429 . S
C769 C770 1.523 . S
C770 C754 1.368 . S
C770 C766 1.368 . S
C770 C769 1.523 . S
H771 C746 0.950 . S
H772 C748 0.950 . S
H773 C749 0.949 . S
H774 C751 0.950 . S
H775 C753 0.950 . S
C776 C777 1.349 . S
C776 C778 1.327 . S
C776 H801 0.950 . S
C777 C776 1.349 . S
C777 C793 1.349 . S
C778 C776 1.327 . S
C778 C797 1.429 . S
C778 H802 0.950 . S
C779 C796 1.574 . S
C779 C798 1.368 . S
C779 H803 0.949 . S
H780 C784 0.949 . S
C781 C782 1.349 . S
C781 C783 1.327 . S
C781 H804 0.950 . S
C782 C781 1.349 . S
C782 C794 1.349 . S
C783 C781 1.327 . S
C783 C799 1.429 . S
C783 H805 0.950 . S
C784 H780 0.949 . S
C784 C792 1.574 . S
C784 C800 1.368 . S
H785 C793 0.950 . S
H786 C791 0.950 . S
H787 C792 0.949 . S
H788 C794 0.950 . S
H789 C795 0.950 . S
H790 C796 0.949 . S
C791 H786 0.950 . S
C791 C793 1.327 . S
C791 C797 1.429 . S
C792 C784 1.574 . S
C792 H787 0.949 . S
C792 C798 1.368 . S
C793 C777 1.349 . S
C793 H785 0.950 . S
C793 C791 1.327 . S
C794 C782 1.349 . S
C794 H788 0.950 . S
C794 C795 1.327 . S
C795 H789 0.950 . S
C795 C794 1.327 . S
C795 C799 1.429 . S
C796 C779 1.574 . S
C796 H790 0.949 . S
C796 C800 1.368 . S
C797 C778 1.429 . S
C797 C791 1.429 . S
C797 C798 1.523 . S
C798 C779 1.368 . S
C798 C792 1.368 . S
C798 C797 1.523 . S
C799 C783 1.429 . S
C799 C795 1.429 . S
C799 C800 1.523 . S
C800 C784 1.368 . S
C800 C796 1.368 . S
C800 C799 1.523 . S
H801 C776 0.950 . S
H802 C778 0.950 . S
H803 C779 0.949 . S
H804 C781 0.950 . S
H805 C783 0.950 . S
C806 C807 1.349 . S
C806 C808 1.327 . S
C806 H831 0.950 . S
C807 C806 1.349 . S
C807 C823 1.349 . S
C808 C806 1.327 . S
C808 C827 1.429 . S
C808 H832 0.950 . S
C809 C826 1.574 1_455 S
C809 C828 1.368 . S
C809 H833 0.949 . S
H810 C814 0.949 . S
C811 C812 1.349 . S
C811 C813 1.327 . S
C811 H834 0.950 . S
C812 C811 1.349 . S
C812 C824 1.349 . S
C813 C811 1.327 . S
C813 C829 1.429 . S
C813 H835 0.950 . S
C814 H810 0.949 . S
C814 C822 1.574 1_655 S
C814 C830 1.368 . S
H815 C823 0.950 . S
H816 C821 0.950 . S
H817 C822 0.949 . S
H818 C824 0.950 . S
H819 C825 0.950 . S
H820 C826 0.949 . S
C821 H816 0.950 . S
C821 C823 1.327 . S
C821 C827 1.429 . S
C822 C814 1.574 1_455 S
C822 H817 0.949 . S
C822 C828 1.368 . S
C823 C807 1.349 . S
C823 H815 0.950 . S
C823 C821 1.327 . S
C824 C812 1.349 . S
C824 H818 0.950 . S
C824 C825 1.327 . S
C825 H819 0.950 . S
C825 C824 1.327 . S
C825 C829 1.429 . S
C826 C809 1.574 1_655 S
C826 H820 0.949 . S
C826 C830 1.368 . S
C827 C808 1.429 . S
C827 C821 1.429 . S
C827 C828 1.523 . S
C828 C809 1.368 . S
C828 C822 1.368 . S
C828 C827 1.523 . S
C829 C813 1.429 . S
C829 C825 1.429 . S
C829 C830 1.523 . S
C830 C814 1.368 . S
C830 C826 1.368 . S
C830 C829 1.523 . S
H831 C806 0.950 . S
H832 C808 0.950 . S
H833 C809 0.949 . S
H834 C811 0.950 . S
H835 C813 0.950 . S
C836 C837 1.349 . S
C836 C838 1.327 . S
C836 H861 0.950 . S
C837 C836 1.349 . S
C837 C853 1.349 . S
C838 C836 1.327 . S
C838 C857 1.429 . S
C838 H862 0.950 . S
C839 C856 1.574 . S
C839 C858 1.368 . S
C839 H863 0.949 . S
H840 C844 0.949 . S
C841 C842 1.349 . S
C841 C843 1.327 . S
C841 H864 0.950 . S
C842 C841 1.349 . S
C842 C854 1.349 . S
C843 C841 1.327 . S
C843 C859 1.429 . S
C843 H865 0.950 . S
C844 H840 0.949 . S
C844 C852 1.574 . S
C844 C860 1.368 . S
H845 C853 0.950 . S
H846 C851 0.950 . S
H847 C852 0.949 . S
H848 C854 0.950 . S
H849 C855 0.950 . S
H850 C856 0.949 . S
C851 H846 0.950 . S
C851 C853 1.327 . S
C851 C857 1.429 . S
C852 C844 1.574 . S
C852 H847 0.949 . S
C852 C858 1.368 . S
C853 C837 1.349 . S
C853 H845 0.950 . S
C853 C851 1.327 . S
C854 C842 1.349 . S
C854 H848 0.950 . S
C854 C855 1.327 . S
C855 H849 0.950 . S
C855 C854 1.327 . S
C855 C859 1.429 . S
C856 C839 1.574 . S
C856 H850 0.949 . S
C856 C860 1.368 . S
C857 C838 1.429 . S
C857 C851 1.429 . S
C857 C858 1.523 . S
C858 C839 1.368 . S
C858 C852 1.368 . S
C858 C857 1.523 . S
C859 C843 1.429 . S
C859 C855 1.429 . S
C859 C860 1.523 . S
C860 C844 1.368 . S
C860 C856 1.368 . S
C860 C859 1.523 . S
H861 C836 0.950 . S
H862 C838 0.950 . S
H863 C839 0.949 . S
H864 C841 0.950 . S
H865 C843 0.950 . S
C866 C867 1.349 . S
C866 C868 1.327 . S
C866 H891 0.950 . S
C867 C866 1.349 . S
C867 C883 1.349 . S
C868 C866 1.327 . S
C868 C887 1.429 . S
C868 H892 0.950 . S
C869 C886 1.574 1_655 S
C869 C888 1.368 . S
C869 H893 0.949 . S
H870 C874 0.949 . S
C871 C872 1.349 . S
C871 C873 1.327 . S
C871 H894 0.950 . S
C872 C871 1.349 . S
C872 C884 1.349 . S
C873 C871 1.327 . S
C873 C889 1.429 . S
C873 H895 0.950 . S
C874 H870 0.949 . S
C874 C882 1.574 . S
C874 C890 1.368 . S
H875 C883 0.950 . S
H876 C881 0.950 . S
H877 C882 0.949 . S
H878 C884 0.950 . S
H879 C885 0.950 . S
H880 C886 0.949 . S
C881 H876 0.950 . S
C881 C883 1.327 . S
C881 C887 1.429 . S
C882 C874 1.574 . S
C882 H877 0.949 . S
C882 C888 1.368 1_455 S
C883 C867 1.349 . S
C883 H875 0.950 . S
C883 C881 1.327 . S
C884 C872 1.349 . S
C884 H878 0.950 . S
C884 C885 1.327 . S
C885 H879 0.950 . S
C885 C884 1.327 . S
C885 C889 1.429 . S
C886 C869 1.574 1_455 S
C886 H880 0.949 . S
C886 C890 1.368 . S
C887 C868 1.429 . S
C887 C881 1.429 . S
C887 C888 1.523 . S
C888 C869 1.368 . S
C888 C882 1.368 1_655 S
C888 C887 1.523 . S
C889 C873 1.429 . S
C889 C885 1.429 . S
C889 C890 1.523 . S
C890 C874 1.368 . S
C890 C886 1.368 . S
C890 C889 1.523 . S
H891 C866 0.950 . S
H892 C868 0.950 . S
H893 C869 0.949 . S
H894 C871 0.950 . S
H895 C873 0.950 . S
C177 C8 1.674 1_655 S
C182 C158 1.674 1_545 S
C207 C26 1.674 . S
C212 C92 1.674 . S
C237 C52 1.674 1_455 S
C242 C118 1.674 1_565 S
C267 C136 1.674 . S
C272 C74 1.674 . S
C297 C9 1.323 . S
C302 C30 1.396 . S
C327 C48 1.396 1_455 S
C332 C27 1.323 . S
C357 C70 1.396 . S
C362 C53 1.323 . S
C387 C4 1.396 1_655 S
C392 C75 1.323 . S
C417 C93 1.323 . S
C422 C162 1.396 1_545 S
C447 C119 1.323 . S
C452 C96 1.396 . S
C477 C137 1.323 . S
C482 C114 1.396 1_565 S
C507 C140 1.396 . S
C512 C159 1.323 . S
C537 C115 0.598 . S
C542 C5 0.598 . S
C567 C141 0.598 . S
C572 C31 0.598 . S
C597 C163 0.598 . S
C602 C49 0.598 . S
C627 C97 0.598 . S
C632 C71 0.598 . S
C657 C7 1.322 . S
C662 C139 1.352 . S
C687 C28 1.322 . S
C692 C161 1.352 . S
C717 C95 1.352 . S
C722 C51 1.322 . S
C747 C116 1.352 . S
C752 C73 1.322 . S
C777 C50 1.352 . S
C782 C94 1.322 . S
C807 C117 1.322 . S
C812 C72 1.352 . S
C837 C138 1.322 . S
C842 C6 1.352 . S
C867 C160 1.322 . S
C872 C29 1.352 . S
