# Generated by pormake.
# Topology uoz, (4)-cn, num edge types: 1
# Building blocks:
#     Node 0, Type 0, BuildingBlock: KUFVIS_clean_sbu_0, # of connection points: 4
#     Node 1, Type 0, BuildingBlock: KUFVIS_clean_sbu_0, # of connection points: 4
#     Node 2, Type 0, BuildingBlock: KUFVIS_clean_sbu_0, # of connection points: 4
#     Node 3, Type 0, BuildingBlock: KUFVIS_clean_sbu_0, # of connection points: 4
#     Node 4, Type 0, BuildingBlock: KUFVIS_clean_sbu_0, # of connection points: 4
#     Node 5, Type 0, BuildingBlock: KUFVIS_clean_sbu_0, # of connection points: 4
#     Node 6, Type 0, BuildingBlock: KUFVIS_clean_sbu_0, # of connection points: 4
#     Node 7, Type 0, BuildingBlock: KUFVIS_clean_sbu_0, # of connection points: 4
#     Node 8, Type 0, BuildingBlock: KUFVIS_clean_sbu_0, # of connection points: 4
#     Node 9, Type 0, BuildingBlock: KUFVIS_clean_sbu_0, # of connection points: 4
#     Node 10, Type 0, BuildingBlock: KUFVIS_clean_sbu_0, # of connection points: 4
#     Node 11, Type 0, BuildingBlock: KUFVIS_clean_sbu_0, # of connection points: 4
#     Node 12, Type 0, BuildingBlock: KUFVIS_clean_sbu_0, # of connection points: 4
#     Node 13, Type 0, BuildingBlock: KUFVIS_clean_sbu_0, # of connection points: 4
#     Node 14, Type 0, BuildingBlock: KUFVIS_clean_sbu_0, # of connection points: 4
#     Node 15, Type 0, BuildingBlock: KUFVIS_clean_sbu_0, # of connection points: 4
#     Edge 16, Type (0, 0), BuildingBlock: UVAHIK_clean_linker_0, # of connection points: 2
#     Edge 17, Type (0, 0), BuildingBlock: UVAHIK_clean_linker_0, # of connection points: 2
#     Edge 18, Type (0, 0), BuildingBlock: UVAHIK_clean_linker_0, # of connection points: 2
#     Edge 19, Type (0, 0), BuildingBlock: UVAHIK_clean_linker_0, # of connection points: 2
#     Edge 20, Type (0, 0), BuildingBlock: UVAHIK_clean_linker_0, # of connection points: 2
#     Edge 21, Type (0, 0), BuildingBlock: UVAHIK_clean_linker_0, # of connection points: 2
#     Edge 22, Type (0, 0), BuildingBlock: UVAHIK_clean_linker_0, # of connection points: 2
#     Edge 23, Type (0, 0), BuildingBlock: UVAHIK_clean_linker_0, # of connection points: 2
#     Edge 24, Type (0, 0), BuildingBlock: UVAHIK_clean_linker_0, # of connection points: 2
#     Edge 25, Type (0, 0), BuildingBlock: UVAHIK_clean_linker_0, # of connection points: 2
#     Edge 26, Type (0, 0), BuildingBlock: UVAHIK_clean_linker_0, # of connection points: 2
#     Edge 27, Type (0, 0), BuildingBlock: UVAHIK_clean_linker_0, # of connection points: 2
#     Edge 28, Type (0, 0), BuildingBlock: UVAHIK_clean_linker_0, # of connection points: 2
#     Edge 29, Type (0, 0), BuildingBlock: UVAHIK_clean_linker_0, # of connection points: 2
#     Edge 30, Type (0, 0), BuildingBlock: UVAHIK_clean_linker_0, # of connection points: 2
#     Edge 31, Type (0, 0), BuildingBlock: UVAHIK_clean_linker_0, # of connection points: 2
#     Edge 32, Type (0, 0), BuildingBlock: UVAHIK_clean_linker_0, # of connection points: 2
#     Edge 33, Type (0, 0), BuildingBlock: UVAHIK_clean_linker_0, # of connection points: 2
#     Edge 34, Type (0, 0), BuildingBlock: UVAHIK_clean_linker_0, # of connection points: 2
#     Edge 35, Type (0, 0), BuildingBlock: UVAHIK_clean_linker_0, # of connection points: 2
#     Edge 36, Type (0, 0), BuildingBlock: UVAHIK_clean_linker_0, # of connection points: 2
#     Edge 37, Type (0, 0), BuildingBlock: UVAHIK_clean_linker_0, # of connection points: 2
#     Edge 38, Type (0, 0), BuildingBlock: UVAHIK_clean_linker_0, # of connection points: 2
#     Edge 39, Type (0, 0), BuildingBlock: UVAHIK_clean_linker_0, # of connection points: 2
#     Edge 40, Type (0, 0), BuildingBlock: UVAHIK_clean_linker_0, # of connection points: 2
#     Edge 41, Type (0, 0), BuildingBlock: UVAHIK_clean_linker_0, # of connection points: 2
#     Edge 42, Type (0, 0), BuildingBlock: UVAHIK_clean_linker_0, # of connection points: 2
#     Edge 43, Type (0, 0), BuildingBlock: UVAHIK_clean_linker_0, # of connection points: 2
#     Edge 44, Type (0, 0), BuildingBlock: UVAHIK_clean_linker_0, # of connection points: 2
#     Edge 45, Type (0, 0), BuildingBlock: UVAHIK_clean_linker_0, # of connection points: 2
#     Edge 46, Type (0, 0), BuildingBlock: UVAHIK_clean_linker_0, # of connection points: 2
#     Edge 47, Type (0, 0), BuildingBlock: UVAHIK_clean_linker_0, # of connection points: 2
# Relax obj value: 0.159
# Max RMSD: 0.148
# Mean RMSD: 0.148
data_MOF--net-uoz--node1-KUFVIS_clean_sbu_0--edge1-UVAHIK_clean_linker_0
_symmetry_space_group_name_H-M    P1
_symmetry_Int_Tables_number       1
_symmetry_cell_setting            triclinic
loop_
_symmetry_equiv_pos_as_xyz
'x, y, z'
_cell_length_a     78.046945
_cell_length_b     78.048023
_cell_length_c     27.264745
_cell_angle_alpha  90.021707
_cell_angle_beta   89.969243
_cell_angle_gamma 89.9918
loop_
_atom_site_label
_atom_site_type_symbol
_atom_site_fract_x
_atom_site_fract_y
_atom_site_fract_z
_atom_type_partial_charge
Mn0 Mn 0.04333 0.57999 0.28322 0.0
Mn1 Mn 0.05289 0.59201 0.16687 0.0
C2 C 0.03267 0.56474 0.21678 0.0
C3 C 0.04934 0.56309 0.35306 0.0
C4 C 0.02531 0.60932 0.22738 0.0
O5 O 0.06375 0.59624 0.29394 0.0
O6 O 0.06819 0.60308 0.21462 0.0
C7 C 0.08688 0.57525 0.16142 0.0
N8 N 0.07096 0.5779 0.14245 0.0
C9 C 0.07768 0.56136 0.07055 0.0
C10 C 0.09418 0.5585 0.08917 0.0
C11 C 0.09876 0.56537 0.13497 0.0
C12 C 0.06631 0.57105 0.09897 0.0
H13 H 0.09049 0.5807 0.19628 0.0
C14 C 0.07174 0.6043 0.26011 0.0
O15 O 0.03958 0.57656 0.35581 0.0
O16 O 0.05632 0.56016 0.31082 0.0
N17 N 0.03939 0.5826 0.11503 0.0
C18 C 0.02277 0.586 0.10329 0.0
C19 C 0.01612 0.58007 0.05859 0.0
C20 C 0.02673 0.57102 0.02598 0.0
C21 C 0.0438 0.56765 0.03886 0.0
C22 C 0.04967 0.57382 0.08398 0.0
H23 H 0.01467 0.59325 0.12782 0.0
O24 O 0.02534 0.56378 0.25931 0.0
O25 O 0.04627 0.57431 0.21413 0.0
O26 O 0.0275 0.60072 0.26702 0.0
O27 O 0.0341 0.60684 0.18852 0.0
C28 C 0.05523 0.5584 0.00875 0.0
C29 C 0.07207 0.55505 0.02489 0.0
H30 H 0.10343 0.55102 0.06864 0.0
H31 H 0.11146 0.5632 0.14963 0.0
H32 H 0.00292 0.58264 0.049 0.0
H33 H 0.02159 0.56665 0.99129 0.0
H34 H 0.05113 0.5536 0.97338 0.0
H35 H 0.08063 0.54766 1.0018 0.0
Mn36 Mn 0.71953 0.75602 0.52639 0.0
Mn37 Mn 0.71471 0.76118 0.40414 0.0
C38 C 0.73331 0.73764 0.47224 0.0
C39 C 0.73516 0.76291 0.59785 0.0
C40 C 0.68811 0.74388 0.46882 0.0
O41 O 0.70822 0.77981 0.52079 0.0
O42 O 0.70887 0.78263 0.43858 0.0
C43 C 0.74297 0.78589 0.38901 0.0
N44 N 0.73522 0.77078 0.37765 0.0
C45 C 0.75609 0.76475 0.31506 0.0
C46 C 0.76419 0.78034 0.32565 0.0
C47 C 0.75769 0.7909 0.36306 0.0
C48 C 0.74163 0.76033 0.34264 0.0
H49 H 0.73793 0.79406 0.41754 0.0
C50 C 0.70577 0.78844 0.48148 0.0
O51 O 0.71964 0.75688 0.60046 0.0
O52 O 0.74098 0.76587 0.55425 0.0
N53 N 0.71977 0.74158 0.36466 0.0
C54 C 0.71004 0.72726 0.3579 0.0
C55 C 0.71423 0.71578 0.32018 0.0
C56 C 0.72821 0.71924 0.28936 0.0
C57 C 0.73817 0.73394 0.29728 0.0
C58 C 0.73322 0.74504 0.33503 0.0
H59 H 0.69895 0.72477 0.38046 0.0
O60 O 0.73152 0.73347 0.5179 0.0
O61 O 0.72769 0.75271 0.46015 0.0
O62 O 0.69649 0.74447 0.50926 0.0
O63 O 0.69341 0.75065 0.42884 0.0
C64 C 0.75257 0.73823 0.26853 0.0
C65 C 0.76169 0.75349 0.27791 0.0
H66 H 0.77532 0.7844 0.30511 0.0
H67 H 0.76392 0.80293 0.37155 0.0
H68 H 0.7065 0.70446 0.31425 0.0
H69 H 0.73104 0.7106 0.25936 0.0
H70 H 0.75675 0.72988 0.23914 0.0
H71 H 0.77283 0.75657 0.25591 0.0
Mn72 Mn 0.54235 0.4245 0.80053 0.0
Mn73 Mn 0.53557 0.42348 0.67805 0.0
C74 C 0.55552 0.44417 0.74937 0.0
C75 C 0.53444 0.43633 0.87703 0.0
C76 C 0.55972 0.39897 0.73064 0.0
O77 O 0.52132 0.40879 0.79457 0.0
O78 O 0.51723 0.41083 0.71268 0.0
C79 C 0.50407 0.44461 0.67608 0.0
N80 N 0.52036 0.44164 0.66036 0.0
C81 C 0.51947 0.46618 0.60697 0.0
C82 C 0.50263 0.46941 0.62229 0.0
C83 C 0.49492 0.45862 0.65715 0.0
C84 C 0.52797 0.45206 0.62728 0.0
H85 H 0.49813 0.43636 0.70294 0.0
C86 C 0.51298 0.40545 0.75527 0.0
O87 O 0.54371 0.42248 0.87449 0.0
O88 O 0.5289 0.44232 0.83586 0.0
N89 N 0.55225 0.43528 0.63923 0.0
C90 C 0.5688 0.43078 0.62976 0.0
C91 C 0.57835 0.44027 0.59562 0.0
C92 C 0.57077 0.4542 0.57131 0.0
C93 C 0.55374 0.45861 0.58165 0.0
C94 C 0.54479 0.44855 0.6156 0.0
H95 H 0.57466 0.42002 0.64806 0.0
O96 O 0.56158 0.44133 0.79276 0.0
O97 O 0.54186 0.43566 0.73759 0.0
O98 O 0.5578 0.40491 0.77425 0.0
O99 O 0.55171 0.40484 0.69331 0.0
C100 C 0.54533 0.47266 0.5599 0.0
C101 C 0.52825 0.47652 0.57283 0.0
H102 H 0.49553 0.48021 0.60779 0.0
H103 H 0.48196 0.46109 0.66937 0.0
H104 H 0.59151 0.43682 0.58793 0.0
H105 H 0.57816 0.46143 0.54483 0.0
H106 H 0.55194 0.48073 0.53369 0.0
H107 H 0.52201 0.48752 0.55647 0.0
Mn108 Mn 0.86917 0.24991 0.05252 0.0
Mn109 Mn 0.86982 0.24357 0.92991 0.0
C110 C 0.84951 0.26352 1.0022 0.0
C111 C 0.85743 0.24165 0.1288 0.0
C112 C 0.89484 0.26711 0.98304 0.0
O113 O 0.88477 0.22881 0.04528 0.0
O114 O 0.882 0.22475 0.96357 0.0
C115 C 0.84782 0.21269 0.92697 0.0
N116 N 0.85122 0.22896 0.91184 0.0
C117 C 0.82658 0.22901 0.85881 0.0
C118 C 0.8229 0.21219 0.87347 0.0
C119 C 0.83353 0.20403 0.90788 0.0
C120 C 0.84094 0.23702 0.87931 0.0
H121 H 0.85593 0.20641 0.95351 0.0
C122 C 0.88765 0.22039 0.00577 0.0
O123 O 0.87132 0.25085 0.12652 0.0
O124 O 0.85134 0.23638 0.08746 0.0
N125 N 0.85842 0.26077 0.89199 0.0
C126 C 0.86343 0.27719 0.88291 0.0
C127 C 0.85417 0.28716 0.84925 0.0
C128 C 0.83997 0.2801 0.82492 0.0
C129 C 0.83506 0.26316 0.83476 0.0
C130 C 0.84489 0.2538 0.86831 0.0
H131 H 0.87445 0.28262 0.90103 0.0
O132 O 0.85243 0.2693 0.04587 0.0
O133 O 0.85788 0.24986 0.9898 0.0
O134 O 0.88878 0.26535 0.02656 0.0
O135 O 0.88891 0.25914 0.94568 0.0
C136 C 0.82078 0.25523 0.81275 0.0
C137 C 0.81645 0.23822 0.8251 0.0
H138 H 0.8119 0.20546 0.85882 0.0
H139 H 0.83072 0.19108 0.91961 0.0
H140 H 0.85802 0.30022 0.84186 0.0
H141 H 0.83294 0.2878 0.79875 0.0
H142 H 0.81293 0.26215 0.7867 0.0
H143 H 0.80528 0.23236 0.80856 0.0
Mn144 Mn 0.04194 0.42029 0.80645 0.0
Mn145 Mn 0.04897 0.41787 0.92868 0.0
C146 C 0.02909 0.43951 0.8596 0.0
C147 C 0.04965 0.43277 0.73065 0.0
C148 C 0.02422 0.39439 0.87482 0.0
O149 O 0.0629 0.4044 0.8104 0.0
O150 O 0.0667 0.40489 0.89258 0.0
C151 C 0.08114 0.43795 0.93092 0.0
N152 N 0.0648 0.43544 0.94687 0.0
C153 C 0.06652 0.45981 1.00075 0.0
C154 C 0.08341 0.4626 0.98512 0.0
C155 C 0.09073 0.45165 0.94994 0.0
C156 C 0.05758 0.44599 0.98034 0.0
H157 H 0.08679 0.42957 0.90384 0.0
C158 C 0.07095 0.4001 0.84942 0.0
O159 O 0.0403 0.41897 0.73241 0.0
O160 O 0.05538 0.43835 0.77211 0.0
N161 N 0.03284 0.42984 0.96899 0.0
C162 C 0.01631 0.42556 0.9795 0.0
C163 C 0.00718 0.43513 0.01444 0.0
C164 C 0.01517 0.44888 0.03852 0.0
C165 C 0.03221 0.45301 0.02725 0.0
C166 C 0.04073 0.44287 0.99258 0.0
H167 H 0.01015 0.4149 0.96146 0.0
O168 O 0.02287 0.43714 0.81615 0.0
O169 O 0.04274 0.43081 0.87035 0.0
O170 O 0.02637 0.40055 0.83154 0.0
O171 O 0.03223 0.3999 0.91259 0.0
C172 C 0.04104 0.46683 0.04888 0.0
C173 C 0.05815 0.4703 0.03538 0.0
H174 H 0.09085 0.47315 0.99968 0.0
H175 H 0.10373 0.45376 0.93754 0.0
H176 H 0.99404 0.43187 0.02295 0.0
H177 H 0.00812 0.45615 0.06566 0.0
H178 H 0.03474 0.47498 0.07552 0.0
H179 H 0.06473 0.48109 0.05178 0.0
Mn180 Mn 0.86368 0.75033 0.0901 0.0
Mn181 Mn 0.86574 0.75546 0.213 0.0
C182 C 0.84739 0.73309 0.14142 0.0
C183 C 0.84988 0.75819 0.0163 0.0
C184 C 0.89254 0.7358 0.15442 0.0
O185 O 0.87646 0.77322 0.09731 0.0
O186 O 0.87481 0.77595 0.1794 0.0
C187 C 0.83988 0.78308 0.21997 0.0
N188 N 0.84563 0.76735 0.23387 0.0
C189 C 0.8223 0.76396 0.29072 0.0
C190 C 0.81625 0.78023 0.27749 0.0
C191 C 0.825 0.78977 0.24168 0.0
C192 C 0.83706 0.75788 0.26731 0.0
H193 H 0.84663 0.79047 0.19262 0.0
C194 C 0.87911 0.7815 0.1371 0.0
O195 O 0.86496 0.75106 0.01586 0.0
O196 O 0.84359 0.76159 0.05902 0.0
N197 N 0.85754 0.73686 0.25207 0.0
C198 C 0.8656 0.72179 0.2624 0.0
C199 C 0.85917 0.71121 0.29967 0.0
C200 C 0.84465 0.7163 0.32632 0.0
C201 C 0.83639 0.73172 0.31463 0.0
C202 C 0.8436 0.7419 0.27778 0.0
H203 H 0.87707 0.71803 0.24305 0.0
O204 O 0.85005 0.72865 0.09633 0.0
O205 O 0.85368 0.74778 0.15453 0.0
O206 O 0.8856 0.7374 0.11191 0.0
O207 O 0.88639 0.74259 0.19345 0.0
C208 C 0.82157 0.7376 0.33897 0.0
C209 C 0.81438 0.75361 0.32653 0.0
H210 H 0.80499 0.78558 0.2948 0.0
H211 H 0.82036 0.80231 0.23116 0.0
H212 H 0.86558 0.69931 0.3085 0.0
H213 H 0.8401 0.70838 0.35621 0.0
H214 H 0.81562 0.72992 0.36735 0.0
H215 H 0.80293 0.75796 0.34525 0.0
Mn216 Mn 0.54386 0.58396 0.32177 0.0
Mn217 Mn 0.53688 0.59759 0.43802 0.0
C218 C 0.55419 0.56858 0.3883 0.0
C219 C 0.53675 0.5669 0.25312 0.0
C220 C 0.56505 0.61186 0.37486 0.0
O221 O 0.52417 0.60106 0.3116 0.0
O222 O 0.52323 0.61045 0.38966 0.0
C223 C 0.50094 0.58544 0.44298 0.0
N224 N 0.51701 0.58606 0.46234 0.0
C225 C 0.50797 0.57062 0.53414 0.0
C226 C 0.4913 0.56988 0.51512 0.0
C227 C 0.4878 0.57723 0.46916 0.0
C228 C 0.52059 0.5787 0.50595 0.0
H229 H 0.49814 0.59122 0.40797 0.0
C230 C 0.51853 0.61112 0.3449 0.0
O231 O 0.54697 0.57999 0.24929 0.0
O232 O 0.52987 0.5645 0.29579 0.0
N233 N 0.54882 0.58669 0.49071 0.0
C234 C 0.56563 0.58814 0.50335 0.0
C235 C 0.57126 0.58165 0.54854 0.0
C236 C 0.55947 0.57406 0.58078 0.0
C237 C 0.54221 0.57269 0.56705 0.0
C238 C 0.53737 0.57936 0.52148 0.0
H239 H 0.57465 0.5942 0.47912 0.0
O240 O 0.56123 0.56708 0.34549 0.0
O241 O 0.5412 0.57894 0.39145 0.0
O242 O 0.56071 0.60411 0.33526 0.0
O243 O 0.55758 0.60964 0.41604 0.0
C244 C 0.5296 0.56497 0.59678 0.0
C245 C 0.51254 0.56373 0.58005 0.0
H246 H 0.48109 0.56371 0.53544 0.0
H247 H 0.47497 0.57669 0.45416 0.0
H248 H 0.58462 0.58267 0.55875 0.0
H249 H 0.56384 0.56925 0.61586 0.0
H250 H 0.53292 0.55977 0.63236 0.0
H251 H 0.50303 0.55754 0.60291 0.0
Mn252 Mn 0.71134 0.2463 0.57965 0.0
Mn253 Mn 0.69936 0.23577 0.69537 0.0
C254 C 0.7262 0.25708 0.6466 0.0
C255 C 0.72837 0.24068 0.50975 0.0
C256 C 0.68148 0.26325 0.63571 0.0
O257 O 0.69532 0.22574 0.56799 0.0
O258 O 0.68913 0.2201 0.64709 0.0
C259 C 0.71764 0.20258 0.70067 0.0
N260 N 0.7142 0.21832 0.71985 0.0
C261 C 0.73091 0.2123 0.79185 0.0
C262 C 0.73462 0.19599 0.773 0.0
C263 C 0.72804 0.19116 0.72705 0.0
C264 C 0.72073 0.22323 0.76349 0.0
H265 H 0.71242 0.19877 0.66565 0.0
C266 C 0.68781 0.21701 0.60135 0.0
O267 O 0.71481 0.25032 0.50719 0.0
O268 O 0.73135 0.23363 0.55184 0.0
N269 N 0.70792 0.24958 0.74773 0.0
C270 C 0.70348 0.26592 0.75999 0.0
C271 C 0.70882 0.2727 0.80513 0.0
C272 C 0.71834 0.2625 0.83763 0.0
C273 C 0.72278 0.24572 0.82421 0.0
C274 C 0.71711 0.23967 0.77874 0.0
H275 H 0.6958 0.27367 0.73568 0.0
O276 O 0.72724 0.26444 0.60415 0.0
O277 O 0.71694 0.24325 0.64874 0.0
O278 O 0.69046 0.26184 0.59644 0.0
O279 O 0.68382 0.25394 0.6736 0.0
C280 C 0.7326 0.23474 0.85416 0.0
C281 C 0.73686 0.21813 0.83769 0.0
H282 H 0.7425 0.18708 0.79346 0.0
H283 H 0.73086 0.1786 0.71222 0.0
H284 H 0.70539 0.28567 0.81519 0.0
H285 H 0.72219 0.26772 0.87273 0.0
H286 H 0.73709 0.23899 0.88971 0.0
H287 H 0.74463 0.20992 0.8607 0.0
Mn288 Mn 0.37254 0.25102 0.5777 0.0
Mn289 Mn 0.38324 0.26083 0.69482 0.0
C290 C 0.35764 0.23896 0.64288 0.0
C291 C 0.35577 0.25701 0.50764 0.0
C292 C 0.40295 0.23506 0.63314 0.0
O293 O 0.38794 0.27219 0.569 0.0
O294 O 0.39269 0.27786 0.64896 0.0
C295 C 0.36283 0.29266 0.70349 0.0
N296 N 0.36715 0.27688 0.72075 0.0
C297 C 0.34939 0.28053 0.79209 0.0
C298 C 0.34477 0.29686 0.77522 0.0
C299 C 0.35144 0.30291 0.73056 0.0
C300 C 0.36056 0.2708 0.76311 0.0
H301 H 0.36809 0.2974 0.66945 0.0
C302 C 0.39439 0.28124 0.60346 0.0
O303 O 0.36963 0.24781 0.50469 0.0
O304 O 0.3523 0.26337 0.55032 0.0
N305 N 0.37524 0.24565 0.74477 0.0
C306 C 0.38065 0.22945 0.75508 0.0
C307 C 0.37544 0.22159 0.79889 0.0
C308 C 0.36499 0.23057 0.832 0.0
C309 C 0.35946 0.2472 0.82046 0.0
C310 C 0.36513 0.25438 0.77634 0.0
H311 H 0.38901 0.22263 0.73031 0.0
O312 O 0.3571 0.23204 0.59974 0.0
O313 O 0.36642 0.25304 0.64658 0.0
O314 O 0.39387 0.23613 0.59402 0.0
O315 O 0.40008 0.24402 0.67151 0.0
C316 C 0.34864 0.25697 0.85103 0.0
C317 C 0.34341 0.27352 0.83653 0.0
H318 H 0.3361 0.30486 0.79621 0.0
H319 H 0.34791 0.31549 0.71725 0.0
H320 H 0.37968 0.20874 0.80747 0.0
H321 H 0.36127 0.22455 0.86616 0.0
H322 H 0.34411 0.25182 0.88558 0.0
H323 H 0.33487 0.28078 0.85997 0.0
Mn324 Mn 0.22014 0.74968 0.09652 0.0
Mn325 Mn 0.21017 0.73879 0.21336 0.0
C326 C 0.23489 0.76192 0.16175 0.0
C327 C 0.23672 0.74427 0.0256 0.0
C328 C 0.18936 0.76418 0.15317 0.0
O329 O 0.20499 0.72832 0.08751 0.0
O330 O 0.20172 0.72137 0.1672 0.0
C331 C 0.23236 0.70816 0.22119 0.0
N332 N 0.2271 0.7236 0.23893 0.0
C333 C 0.24477 0.72062 0.31063 0.0
C334 C 0.25035 0.70464 0.2933 0.0
C335 C 0.2442 0.69844 0.2482 0.0
C336 C 0.23321 0.72985 0.28166 0.0
H337 H 0.2275 0.70331 0.18681 0.0
C338 C 0.19956 0.71846 0.12161 0.0
O339 O 0.22269 0.75323 0.02352 0.0
O340 O 0.24049 0.73781 0.06793 0.0
N341 N 0.21725 0.75425 0.26374 0.0
C342 C 0.21085 0.77004 0.2746 0.0
C343 C 0.21539 0.77795 0.31894 0.0
C344 C 0.22618 0.7694 0.35205 0.0
C345 C 0.23273 0.7532 0.33996 0.0
C346 C 0.2277 0.74594 0.29532 0.0
H347 H 0.20216 0.77647 0.24993 0.0
O348 O 0.23527 0.7689 0.1187 0.0
O349 O 0.22652 0.74759 0.1652 0.0
O350 O 0.19864 0.76404 0.1143 0.0
O351 O 0.1924 0.75475 0.19048 0.0
C352 C 0.24396 0.7439 0.37051 0.0
C353 C 0.25017 0.72774 0.35553 0.0
H354 H 0.25936 0.69704 0.31426 0.0
H355 H 0.24847 0.68614 0.23453 0.0
H356 H 0.21034 0.79047 0.32798 0.0
H357 H 0.22935 0.77543 0.38665 0.0
H358 H 0.24804 0.74913 0.40541 0.0
H359 H 0.259 0.72085 0.37898 0.0
Mn360 Mn 0.21574 0.25157 0.04716 0.0
Mn361 Mn 0.21419 0.25886 0.92505 0.0
C362 C 0.23443 0.23759 0.99471 0.0
C363 C 0.2281 0.25908 0.12321 0.0
C364 C 0.18907 0.23552 0.97851 0.0
O365 O 0.2006 0.27307 0.04227 0.0
O366 O 0.20293 0.27784 0.96082 0.0
C367 C 0.23728 0.28894 0.92286 0.0
N368 N 0.23317 0.27295 0.90677 0.0
C369 C 0.25753 0.27236 0.85263 0.0
C370 C 0.26195 0.2889 0.86831 0.0
C371 C 0.25182 0.29719 0.90373 0.0
C372 C 0.24297 0.26476 0.87326 0.0
H373 H 0.22956 0.29531 0.95019 0.0
C374 C 0.19768 0.28194 1.00366 0.0
O375 O 0.21398 0.25023 0.12113 0.0
O376 O 0.23414 0.2644 0.08184 0.0
N377 N 0.22459 0.24163 0.88493 0.0
C378 C 0.21867 0.22564 0.87416 0.0
C379 C 0.22714 0.21574 0.83865 0.0
C380 C 0.2415 0.22244 0.81426 0.0
C381 C 0.24738 0.23891 0.82593 0.0
C382 C 0.23826 0.24828 0.8611 0.0
H383 H 0.20749 0.22051 0.89223 0.0
O384 O 0.23182 0.23177 0.03849 0.0
O385 O 0.22649 0.25165 0.98353 0.0
O386 O 0.19561 0.23677 0.02158 0.0
O387 O 0.19471 0.24377 0.94127 0.0
C388 C 0.26191 0.24642 0.80399 0.0
C389 C 0.26707 0.26308 0.81767 0.0
H390 H 0.27314 0.29531 0.85361 0.0
H391 H 0.2552 0.30991 0.91623 0.0
H392 H 0.22253 0.20304 0.82982 0.0
H393 H 0.24785 0.21484 0.78644 0.0
H394 H 0.26929 0.23945 0.77689 0.0
H395 H 0.27839 0.26863 0.80105 0.0
Mn396 Mn 0.37552 0.75452 0.5621 0.0
Mn397 Mn 0.37654 0.74938 0.43904 0.0
C398 C 0.35669 0.76943 0.51202 0.0
C399 C 0.36322 0.74606 0.63748 0.0
C400 C 0.40225 0.77132 0.49498 0.0
O401 O 0.39028 0.73286 0.55382 0.0
O402 O 0.38791 0.72984 0.47165 0.0
C403 C 0.35345 0.71935 0.43333 0.0
N404 N 0.3575 0.7356 0.4194 0.0
C405 C 0.33314 0.73697 0.36548 0.0
C406 C 0.32878 0.72018 0.37891 0.0
C407 C 0.33894 0.71137 0.41317 0.0
C408 C 0.34766 0.74429 0.38711 0.0
H409 H 0.36121 0.71256 0.4597 0.0
C410 C 0.39312 0.7248 0.51368 0.0
O411 O 0.37749 0.75469 0.63614 0.0
O412 O 0.35699 0.74146 0.59562 0.0
N413 N 0.36594 0.76727 0.40194 0.0
C414 C 0.37165 0.78353 0.3939 0.0
C415 C 0.36303 0.79403 0.36015 0.0
C416 C 0.34876 0.78766 0.33468 0.0
C417 C 0.34308 0.77091 0.34363 0.0
C418 C 0.35228 0.76098 0.37729 0.0
H419 H 0.38273 0.78843 0.41291 0.0
O420 O 0.35963 0.77467 0.55624 0.0
O421 O 0.36456 0.75554 0.49893 0.0
O422 O 0.39593 0.76929 0.53808 0.0
O423 O 0.39614 0.76411 0.4566 0.0
C424 C 0.32866 0.76365 0.32044 0.0
C425 C 0.32358 0.74676 0.33177 0.0
H426 H 0.31762 0.71397 0.36338 0.0
H427 H 0.3356 0.69845 0.42394 0.0
H428 H 0.36747 0.80696 0.35351 0.0
H429 H 0.34229 0.79574 0.30828 0.0
H430 H 0.32129 0.77099 0.29417 0.0
H431 H 0.31231 0.74143 0.31432 0.0
Mn432 Mn 0.54064 0.0721 0.78264 0.0
Mn433 Mn 0.54772 0.07337 0.66036 0.0
C434 C 0.5247 0.05492 0.73037 0.0
C435 C 0.54793 0.0594 0.8584 0.0
C436 C 0.52625 0.09994 0.71443 0.0
O437 O 0.56311 0.08567 0.77762 0.0
O438 O 0.56725 0.08348 0.69613 0.0
C439 C 0.57626 0.0484 0.65997 0.0
N440 N 0.56071 0.05355 0.64281 0.0
C441 C 0.55939 0.02981 0.5867 0.0
C442 C 0.57547 0.02432 0.60344 0.0
C443 C 0.58388 0.03359 0.64049 0.0
C444 C 0.5523 0.04447 0.60823 0.0
H445 H 0.58277 0.05555 0.68827 0.0
C446 C 0.57191 0.08829 0.73881 0.0
O447 O 0.53999 0.07405 0.8566 0.0
O448 O 0.55226 0.05277 0.81678 0.0
N449 N 0.53023 0.06419 0.61892 0.0
C450 C 0.51515 0.07164 0.60552 0.0
C451 C 0.5057 0.0647 0.56649 0.0
C452 C 0.51196 0.05032 0.54129 0.0
C453 C 0.52732 0.04267 0.55623 0.0
C454 C 0.53636 0.05037 0.59466 0.0
H455 H 0.51051 0.08298 0.62383 0.0
O456 O 0.51958 0.05771 0.77479 0.0
O457 O 0.53941 0.0615 0.71854 0.0
O458 O 0.5274 0.09339 0.75756 0.0
O459 O 0.53375 0.09369 0.67662 0.0
C460 C 0.53427 0.02801 0.53354 0.0
C461 C 0.55019 0.02144 0.54921 0.0
H462 H 0.58153 0.01307 0.58809 0.0
H463 H 0.59626 0.0294 0.65371 0.0
H464 H 0.4938 0.07063 0.55524 0.0
H465 H 0.50496 0.04538 0.51006 0.0
H466 H 0.52749 0.02173 0.50391 0.0
H467 H 0.55537 0.01013 0.5316 0.0
Mn468 Mn 0.04026 0.91825 0.30985 0.0
Mn469 Mn 0.03525 0.91581 0.18684 0.0
C470 C 0.05287 0.93815 0.25837 0.0
C471 C 0.03182 0.93043 0.38542 0.0
C472 C 0.06062 0.89381 0.24234 0.0
O473 O 0.01968 0.90187 0.3039 0.0
O474 O 0.01868 0.90092 0.22118 0.0
C475 C 1.00123 0.93257 0.18325 0.0
N476 N 0.01787 0.9318 0.16831 0.0
C477 C 0.0141 0.95614 0.11522 0.0
C478 C 0.9969 0.95714 0.12983 0.0
C479 C 0.99046 0.94534 0.16411 0.0
C480 C 0.02423 0.94319 0.13571 0.0
H481 H 0.99624 0.92354 0.20959 0.0
C482 C 0.01342 0.89625 0.26354 0.0
O483 O 0.04142 0.9168 0.38389 0.0
O484 O 0.0261 0.93588 0.34381 0.0
N485 N 0.05039 0.92954 0.14804 0.0
C486 C 0.06734 0.92701 0.13848 0.0
C487 C 0.0757 0.93757 0.10435 0.0
C488 C 0.06652 0.95054 0.08016 0.0
C489 C 0.04909 0.9529 0.09055 0.0
C490 C 0.04139 0.94181 0.12437 0.0
H491 H 0.07443 0.91702 0.15679 0.0
O492 O 0.05888 0.93569 0.30199 0.0
O493 O 0.03969 0.92898 0.24613 0.0
O494 O 0.05672 0.899 0.2857 0.0
O495 O 0.05352 0.89954 0.20342 0.0
C496 C 0.03908 0.96588 0.06891 0.0
C497 C 0.02162 0.96757 0.08148 0.0
H498 H 0.98854 0.96696 0.11516 0.0
H499 H 0.97721 0.94607 0.17571 0.0
H500 H 0.08917 0.9357 0.09661 0.0
H501 H 0.07299 0.95859 0.05366 0.0
H502 H 0.04473 0.97475 0.04298 0.0
H503 H 0.01411 0.97772 0.06505 0.0
Mn504 Mn 0.54606 0.92706 0.34067 0.0
Mn505 Mn 0.55237 0.92413 0.46295 0.0
C506 C 0.52834 0.94187 0.39445 0.0
C507 C 0.55258 0.94159 0.26705 0.0
C508 C 0.53394 0.89677 0.40332 0.0
O509 O 0.56975 0.91552 0.34549 0.0
O510 O 0.57325 0.91719 0.42731 0.0
C511 C 0.57779 0.95212 0.47084 0.0
N512 N 0.56277 0.94485 0.48533 0.0
C513 C 0.55804 0.96698 0.54525 0.0
C514 C 0.57356 0.97461 0.53134 0.0
C515 C 0.58342 0.96723 0.49372 0.0
C516 C 0.55296 0.95211 0.52048 0.0
H517 H 0.58541 0.94643 0.44205 0.0
C518 C 0.57867 0.91346 0.38442 0.0
O519 O 0.54603 0.92626 0.2666 0.0
O520 O 0.5561 0.9479 0.3097 0.0
N521 N 0.53347 0.9303 0.50392 0.0
C522 C 0.51919 0.92091 0.5142 0.0
C523 C 0.50852 0.92585 0.55315 0.0
C524 C 0.51275 0.94025 0.58149 0.0
C525 C 0.52731 0.94992 0.56976 0.0
C526 C 0.53765 0.94416 0.53118 0.0
H527 H 0.51614 0.90951 0.4936 0.0
O528 O 0.52374 0.93946 0.34938 0.0
O529 O 0.54347 0.93631 0.40609 0.0
O530 O 0.53445 0.90438 0.3616 0.0
O531 O 0.541 0.90274 0.44212 0.0
C532 C 0.53224 0.96476 0.59565 0.0
C533 C 0.54748 0.97343 0.58292 0.0
H534 H 0.57807 0.9861 0.54933 0.0
H535 H 0.59537 0.97309 0.48266 0.0
H536 H 0.49727 0.91835 0.56198 0.0
H537 H 0.50482 0.94362 0.61262 0.0
H538 H 0.52442 0.9696 0.62542 0.0
H539 H 0.55108 0.98489 0.60286 0.0
Mn540 Mn 0.04056 0.07887 0.82946 0.0
Mn541 Mn 0.03059 0.09156 0.94495 0.0
C542 C 0.04973 0.06318 0.89676 0.0
C543 C 0.03442 0.06214 0.75931 0.0
C544 C 0.0598 0.10705 0.88715 0.0
O545 O 0.02115 0.09613 0.81683 0.0
O546 O 0.01686 0.10376 0.89559 0.0
C547 C 0.9954 0.07737 0.94603 0.0
N548 N 0.01117 0.07882 0.96696 0.0
C549 C 0.00213 0.06291 0.03788 0.0
C550 C 0.98576 0.06128 0.01722 0.0
C551 C 0.98242 0.06844 0.97091 0.0
C552 C 0.01463 0.07167 0.01093 0.0
H553 H 0.99273 0.08305 0.91076 0.0
C554 C 0.01368 0.10504 0.84989 0.0
O555 O 0.04488 0.07509 0.75721 0.0
O556 O 0.02687 0.05968 0.80096 0.0
N557 N 0.04255 0.08118 0.99838 0.0
C558 C 0.05917 0.08338 0.0123 0.0
C559 C 0.06466 0.07698 0.05776 0.0
C560 C 0.05292 0.06875 0.08891 0.0
C561 C 0.03586 0.06668 0.07388 0.0
C562 C 0.03117 0.07322 0.02803 0.0
H563 H 0.06815 0.08995 0.98884 0.0
O564 O 0.05744 0.06181 0.85489 0.0
O565 O 0.0366 0.07343 0.89831 0.0
O566 O 0.05727 0.09882 0.84698 0.0
O567 O 0.05071 0.10492 0.9256 0.0
C568 C 0.02331 0.05837 0.10251 0.0
C569 C 0.00653 0.05627 0.08424 0.0
H570 H 0.97567 0.05456 0.03655 0.0
H571 H 0.96983 0.06722 0.95468 0.0
H572 H 0.07786 0.07855 0.06901 0.0
H573 H 0.05718 0.06398 0.12415 0.0
H574 H 0.02648 0.05334 0.1384 0.0
H575 H 0.99709 0.0496 0.10623 0.0
C576 C 0.17064 0.70752 0.10392 0.0
C577 C 0.18808 0.70399 0.11115 0.0
C578 C 0.15818 0.69558 0.11811 0.0
C579 C 0.14994 0.65116 0.15922 0.0
H580 H 0.11855 0.67278 0.25059 0.0
C581 C 0.1027 0.60998 0.26991 0.0
C582 C 0.08583 0.61616 0.27108 0.0
C583 C 0.11623 0.62083 0.25643 0.0
C584 C 0.12705 0.66649 0.22488 0.0
H585 H 0.20627 0.68477 0.13466 0.0
H586 H 0.1846 0.6636 0.1572 0.0
H587 H 0.13877 0.69027 0.20458 0.0
H588 H 0.06993 0.6386 0.2621 0.0
H589 H 0.09326 0.65752 0.23905 0.0
H590 H 0.13799 0.62743 0.17836 0.0
C591 C 0.18048 0.67559 0.14103 0.0
C592 C 0.13862 0.67656 0.19832 0.0
C593 C 0.19291 0.68762 0.12754 0.0
C594 C 0.08291 0.63366 0.26296 0.0
C595 C 0.09635 0.64447 0.24916 0.0
C596 C 0.13819 0.64108 0.18528 0.0
C597 C 0.163 0.67985 0.1392 0.0
C598 C 0.15015 0.66903 0.16503 0.0
C599 C 0.11307 0.63801 0.24321 0.0
C600 C 0.12653 0.64861 0.21847 0.0
H601 H 0.16657 0.7202 0.09265 0.0
H602 H 0.14479 0.69913 0.11571 0.0
H603 H 0.1587 0.645 0.13393 0.0
H604 H 0.10522 0.59643 0.27474 0.0
H605 H 0.12898 0.61546 0.25351 0.0
C606 C 0.5982 0.89007 0.3545 0.0
C607 C 0.59559 0.90487 0.38283 0.0
C608 C 0.61226 0.87931 0.36394 0.0
C609 C 0.64667 0.86119 0.38263 0.0
H610 H 0.65527 0.85427 0.52147 0.0
C611 C 0.7013 0.81749 0.44643 0.0
C612 C 0.69723 0.80538 0.48281 0.0
C613 C 0.69045 0.83132 0.43703 0.0
C614 C 0.65302 0.85601 0.4826 0.0
H615 H 0.60639 0.9208 0.44015 0.0
H616 H 0.63101 0.90247 0.45542 0.0
H617 H 0.63365 0.87489 0.49535 0.0
H618 H 0.67914 0.79894 0.54007 0.0
H619 H 0.66008 0.82325 0.52387 0.0
H620 H 0.6657 0.84195 0.36991 0.0
C621 C 0.62202 0.89879 0.42706 0.0
C622 C 0.64074 0.86799 0.46751 0.0
C623 C 0.60801 0.90942 0.41784 0.0
C624 C 0.68273 0.80818 0.51228 0.0
C625 C 0.67176 0.82206 0.50268 0.0
C626 C 0.65899 0.84926 0.39772 0.0
C627 C 0.62396 0.88323 0.40176 0.0
C628 C 0.63739 0.87074 0.41732 0.0
C629 C 0.67515 0.83338 0.46354 0.0
C630 C 0.66233 0.84649 0.44791 0.0
H631 H 0.58872 0.88612 0.32778 0.0
H632 H 0.61335 0.86742 0.34371 0.0
H633 H 0.64447 0.86299 0.34376 0.0
H634 H 0.71243 0.81571 0.42319 0.0
H635 H 0.69373 0.84004 0.40758 0.0
C636 C 0.48232 0.39903 0.7403 0.0
C637 C 0.49851 0.39338 0.75586 0.0
C638 C 0.47006 0.3873 0.72365 0.0
C639 C 0.4687 0.34689 0.6582 0.0
H640 H 0.42038 0.346 0.69057 0.0
C641 C 0.42356 0.29267 0.59508 0.0
C642 C 0.40586 0.29569 0.59301 0.0
C643 C 0.43485 0.30581 0.60823 0.0
C644 C 0.43375 0.3463 0.68008 0.0
H645 H 0.5145 0.37113 0.7676 0.0
H646 H 0.49308 0.35053 0.73839 0.0
H647 H 0.43939 0.36573 0.73347 0.0
H648 H 0.38613 0.31497 0.59967 0.0
H649 H 0.40586 0.33829 0.61921 0.0
H650 H 0.46317 0.3279 0.60393 0.0
C651 C 0.48979 0.36401 0.7396 0.0
C652 C 0.44467 0.3575 0.70525 0.0
C653 C 0.50192 0.37574 0.7571 0.0
C654 C 0.39978 0.31243 0.59981 0.0
C655 C 0.41109 0.32567 0.6123 0.0
C656 C 0.45776 0.3359 0.63243 0.0
C657 C 0.47397 0.36974 0.72108 0.0
C658 C 0.4623 0.35775 0.69504 0.0
C659 C 0.42867 0.32233 0.61942 0.0
C660 C 0.44013 0.33527 0.64334 0.0
H661 H 0.47957 0.41261 0.73784 0.0
H662 H 0.45802 0.39209 0.70943 0.0
H663 H 0.48218 0.34708 0.64877 0.0
H664 H 0.42848 0.27974 0.59162 0.0
H665 H 0.44819 0.30255 0.61362 0.0
C666 C 0.89441 0.19035 0.98356 0.0
C667 C 0.89962 0.20581 0.00535 0.0
C668 C 0.90652 0.17861 0.96624 0.0
C669 C 0.94907 0.17914 0.91204 0.0
H670 H 0.94722 0.12969 0.92347 0.0
C671 C 0.00391 0.1349 0.84887 0.0
C672 C 1.0004 0.11769 0.83787 0.0
C673 C 0.9907 0.14611 0.86178 0.0
C674 C 0.94773 0.14346 0.91886 0.0
H675 H 0.92151 0.22083 0.02803 0.0
H676 H 0.94281 0.20026 0.9978 0.0
H677 H 0.92673 0.14727 0.96855 0.0
H678 H 0.98027 0.09901 0.82784 0.0
H679 H 0.95697 0.1188 0.84764 0.0
H680 H 0.96975 0.17547 0.86161 0.0
C681 C 0.92933 0.19719 0.99439 0.0
C682 C 0.93608 0.15353 0.94529 0.0
C683 C 0.91717 0.20881 0.01249 0.0
C684 C 0.98328 0.11233 0.835 0.0
C685 C 0.96998 0.12359 0.84765 0.0
C686 C 0.96057 0.16908 0.88509 0.0
C687 C 0.92411 0.18228 0.96941 0.0
C688 C 0.93675 0.17149 0.94263 0.0
C689 C 0.97362 0.14036 0.86396 0.0
C690 C 0.9602 0.15108 0.88846 0.0
H691 H 0.88096 0.18793 0.97672 0.0
H692 H 0.90209 0.16729 0.94706 0.0
H693 H 0.94965 0.19294 0.9083 0.0
H694 H 0.01705 0.1392 0.85271 0.0
H695 H 0.99414 0.15881 0.87431 0.0
C696 C 0.08134 0.37043 0.8581 0.0
C697 C 0.08505 0.38763 0.84756 0.0
C698 C 0.09424 0.35935 0.87424 0.0
C699 C 0.14065 0.35235 0.88435 0.0
H700 H 0.12913 0.32969 0.00663 0.0
C701 C 0.19146 0.3124 0.98487 0.0
C702 C 0.18606 0.29681 0.0053 0.0
C703 C 0.1795 0.32479 0.97066 0.0
C704 C 0.13256 0.3357 0.97223 0.0
H705 H 0.10512 0.40669 0.84421 0.0
H706 H 0.12796 0.38708 0.87041 0.0
H707 H 0.10781 0.34738 0.9654 0.0
H708 H 0.16405 0.28211 0.02847 0.0
H709 H 0.14306 0.30344 1.00284 0.0
H710 H 0.16513 0.34029 0.88982 0.0
C711 C 0.11507 0.38216 0.86605 0.0
C712 C 0.1203 0.34587 0.94861 0.0
C713 C 0.10208 0.39332 0.85053 0.0
C714 C 0.16855 0.29424 0.01403 0.0
C715 C 0.15651 0.30649 0.99892 0.0
C716 C 0.15283 0.34195 0.90752 0.0
C717 C 0.11113 0.36525 0.88001 0.0
C718 C 0.12419 0.35427 0.90435 0.0
C719 C 0.16179 0.32167 0.97521 0.0
C720 C 0.14899 0.33345 0.95188 0.0
H721 H 0.06821 0.36591 0.85748 0.0
H722 H 0.09086 0.34635 0.88431 0.0
H723 H 0.14398 0.35861 0.85019 0.0
H724 H 0.2049 0.31459 0.97721 0.0
H725 H 0.18417 0.3365 0.95407 0.0
C726 C 1.00151 0.86927 0.23097 0.0
C727 C 0.99966 0.88327 0.26292 0.0
C728 C 0.98746 0.85917 0.21838 0.0
C729 C 0.94325 0.84711 0.2497 0.0
H730 H 0.93988 0.83845 0.10981 0.0
C731 C 0.88575 0.81022 0.17167 0.0
C732 C 0.88951 0.79734 0.13724 0.0
C733 C 0.89789 0.8227 0.18352 0.0
C734 C 0.94065 0.8406 0.14898 0.0
H735 H 0.98184 0.89721 0.30877 0.0
H736 H 0.95702 0.87923 0.28723 0.0
H737 H 0.96375 0.85515 0.1418 0.0
H738 H 0.90855 0.78802 0.08613 0.0
H739 H 0.92993 0.8097 0.107 0.0
H740 H 0.92042 0.83219 0.25719 0.0
C741 C 0.96945 0.87611 0.27202 0.0
C742 C 0.95436 0.8502 0.16738 0.0
C743 C 0.98365 0.88631 0.28474 0.0
C744 C 0.9052 0.79796 0.11216 0.0
C745 C 0.91749 0.81036 0.12447 0.0
C746 C 0.92958 0.83739 0.23135 0.0
C747 C 0.97113 0.86285 0.23718 0.0
C748 C 0.95596 0.85338 0.21801 0.0
C749 C 0.91423 0.82248 0.1618 0.0
C750 C 0.92817 0.83385 0.18073 0.0
H751 H 0.01373 0.86669 0.21357 0.0
H752 H 0.9893 0.8488 0.19246 0.0
H753 H 0.94416 0.84924 0.28887 0.0
H754 H 0.87374 0.81004 0.19161 0.0
H755 H 0.8947 0.83209 0.2113 0.0
C756 C 0.4223 0.71246 0.52007 0.0
C757 C 0.40471 0.70992 0.51232 0.0
C758 C 0.43426 0.7009 0.50065 0.0
C759 C 0.44052 0.65804 0.44583 0.0
H760 H 0.47416 0.68106 0.3645 0.0
C761 C 0.488 0.61844 0.33113 0.0
C762 C 0.50508 0.62385 0.33502 0.0
C763 C 0.47461 0.62943 0.34501 0.0
C764 C 0.46499 0.67437 0.3873 0.0
H765 H 0.38575 0.69284 0.48132 0.0
H766 H 0.40655 0.67226 0.44939 0.0
H767 H 0.45418 0.69791 0.41338 0.0
H768 H 0.52156 0.64524 0.35254 0.0
H769 H 0.49852 0.66438 0.37611 0.0
H770 H 0.45159 0.6345 0.42118 0.0
C771 C 0.41116 0.68319 0.47004 0.0
C772 C 0.45356 0.68406 0.41549 0.0
C773 C 0.39923 0.69489 0.48868 0.0
C774 C 0.50846 0.6409 0.3481 0.0
C775 C 0.49516 0.65184 0.36208 0.0
C776 C 0.45212 0.64832 0.41817 0.0
C777 C 0.4288 0.6865 0.47373 0.0
C778 C 0.44128 0.67602 0.44535 0.0
C779 C 0.47811 0.64598 0.36328 0.0
C780 C 0.46462 0.65633 0.38869 0.0
H781 H 0.42685 0.72416 0.53704 0.0
H782 H 0.44779 0.70367 0.50448 0.0
H783 H 0.43116 0.65149 0.46842 0.0
H784 H 0.48508 0.60522 0.32226 0.0
H785 H 0.46161 0.62458 0.34426 0.0
C786 C 0.68213 0.18607 0.58945 0.0
C787 C 0.67599 0.20298 0.58936 0.0
C788 C 0.67116 0.17244 0.60137 0.0
C789 C 0.63603 0.16535 0.68433 0.0
H790 H 0.62892 0.12164 0.62037 0.0
C791 C 0.58528 0.11677 0.7521 0.0
C792 C 0.58716 0.09942 0.73985 0.0
C793 C 0.59744 0.12881 0.73657 0.0
C794 C 0.63104 0.1336 0.63949 0.0
H795 H 0.65353 0.21887 0.59883 0.0
H796 H 0.63437 0.19516 0.61925 0.0
H797 H 0.64671 0.14334 0.58089 0.0
H798 H 0.60374 0.08081 0.70516 0.0
H799 H 0.62562 0.10148 0.68143 0.0
H800 H 0.62103 0.15566 0.74372 0.0
C801 C 0.64757 0.19237 0.60984 0.0
C802 C 0.6411 0.1461 0.61638 0.0
C803 C 0.65845 0.2059 0.59728 0.0
C804 C 0.6021 0.09411 0.71556 0.0
C805 C 0.61445 0.10606 0.70099 0.0
C806 C 0.62628 0.15277 0.70791 0.0
C807 C 0.65401 0.17564 0.61431 0.0
C808 C 0.64348 0.16218 0.63827 0.0
C809 C 0.6119 0.12371 0.70906 0.0
C810 C 0.62343 0.13674 0.68566 0.0
H811 H 0.6957 0.18357 0.58514 0.0
H812 H 0.67644 0.15966 0.60471 0.0
H813 H 0.63796 0.17754 0.7025 0.0
H814 H 0.57363 0.12124 0.76959 0.0
H815 H 0.59481 0.14222 0.7433 0.0
C816 C 0.00788 0.37536 0.93202 0.0
C817 C 0.01145 0.38053 0.88356 0.0
C818 C 0.9957 0.36276 0.94185 0.0
C819 C 0.95819 0.34052 0.88842 0.0
H820 H 0.96579 0.3091 0.99658 0.0
C821 C 0.91422 0.28266 0.92483 0.0
C822 C 0.90898 0.27951 0.97351 0.0
C823 C 0.92685 0.29474 0.91433 0.0
C824 C 0.9634 0.3179 0.96663 0.0
H825 H 0.0049 0.37619 0.80732 0.0
H826 H 0.98374 0.35377 0.82447 0.0
H827 H 0.98785 0.3299 0.97505 0.0
H828 H 0.91335 0.2866 0.04938 0.0
H829 H 0.93571 0.30773 0.03086 0.0
H830 H 0.93383 0.32826 0.87967 0.0
C831 C 0.99029 0.35979 0.85496 0.0
C832 C 0.97605 0.32985 0.95418 0.0
C833 C 0.00249 0.37257 0.84504 0.0
C834 C 0.91703 0.28866 0.01154 0.0
C835 C 0.92986 0.30072 1.00094 0.0
C836 C 0.94561 0.32847 0.90064 0.0
C837 C 0.98674 0.35473 0.9036 0.0
C838 C 0.97358 0.34141 0.91509 0.0
C839 C 0.93477 0.30401 0.95209 0.0
C840 C 0.94804 0.31705 0.93998 0.0
H841 H 0.01434 0.38119 0.96295 0.0
H842 H 0.99311 0.35956 0.97978 0.0
H843 H 0.95568 0.34936 0.8587 0.0
H844 H 0.90844 0.27591 0.89433 0.0
H845 H 0.93051 0.29675 0.87643 0.0
C846 C 0.51143 0.12045 0.65773 0.0
C847 C 0.51491 0.11502 0.70605 0.0
C848 C 0.49998 0.1338 0.64856 0.0
C849 C 0.48082 0.17215 0.70112 0.0
H850 H 0.44445 0.16475 0.60648 0.0
C851 C 0.42505 0.21958 0.68258 0.0
C852 C 0.41701 0.2222 0.63693 0.0
C853 C 0.43755 0.20702 0.68857 0.0
C854 C 0.45469 0.1672 0.6323 0.0
H855 H 0.5093 0.11996 0.78268 0.0
H856 H 0.48953 0.14374 0.76648 0.0
H857 H 0.46507 0.14196 0.62301 0.0
H858 H 0.41628 0.21364 0.56134 0.0
H859 H 0.4387 0.19193 0.57135 0.0
H860 H 0.47093 0.19749 0.70962 0.0
C861 C 0.49564 0.13736 0.73582 0.0
C862 C 0.46644 0.15407 0.64205 0.0
C863 C 0.50693 0.12373 0.74507 0.0
C864 C 0.42215 0.212 0.59701 0.0
C865 C 0.43492 0.19945 0.60292 0.0
C866 C 0.46928 0.18538 0.69082 0.0
C867 C 0.49189 0.14235 0.68739 0.0
C868 C 0.4795 0.15635 0.67695 0.0
C869 C 0.44273 0.19674 0.64898 0.0
C870 C 0.45586 0.18304 0.6568 0.0
H871 H 0.51734 0.11422 0.62653 0.0
H872 H 0.49752 0.13751 0.61093 0.0
H873 H 0.49095 0.17437 0.72753 0.0
H874 H 0.42148 0.22702 0.71453 0.0
H875 H 0.44283 0.20514 0.72488 0.0
C876 C 0.59135 0.6236 0.41338 0.0
C877 C 0.57948 0.62413 0.37476 0.0
C878 C 0.60327 0.63669 0.41981 0.0
C879 C 0.60958 0.68246 0.3944 0.0
H880 H 0.65509 0.67329 0.44504 0.0
C881 C 0.66158 0.73466 0.42451 0.0
C882 C 0.67264 0.73288 0.46499 0.0
C883 C 0.64931 0.72215 0.41399 0.0
C884 C 0.64234 0.67608 0.43157 0.0
H885 H 0.57119 0.6385 0.31121 0.0
H886 H 0.59233 0.6616 0.32208 0.0
H887 H 0.63691 0.64955 0.4197 0.0
H888 H 0.67868 0.71701 0.52788 0.0
H889 H 0.65707 0.69524 0.50985 0.0
H890 H 0.61512 0.70906 0.40624 0.0
C891 C 0.59225 0.651 0.34771 0.0
C892 C 0.63194 0.66246 0.41675 0.0
C893 C 0.58031 0.63771 0.34106 0.0
C894 C 0.67035 0.71884 0.49656 0.0
C895 C 0.65811 0.70624 0.48583 0.0
C896 C 0.62004 0.69612 0.40908 0.0
C897 C 0.60366 0.65078 0.38782 0.0
C898 C 0.61533 0.66544 0.39856 0.0
C899 C 0.64783 0.70749 0.44355 0.0
C900 C 0.63648 0.69307 0.42841 0.0
H901 H 0.59114 0.61327 0.43969 0.0
H902 H 0.61169 0.6361 0.45134 0.0
H903 H 0.59678 0.68521 0.38123 0.0
H904 H 0.66297 0.74533 0.39943 0.0
H905 H 0.64164 0.72352 0.38113 0.0
C906 C 0.17106 0.78864 0.12145 0.0
C907 C 0.17501 0.77666 0.1583 0.0
C908 C 0.15847 0.80122 0.1295 0.0
C909 C 0.1374 0.82481 0.22988 0.0
H910 H 0.10178 0.83457 0.13512 0.0
C911 C 0.08035 0.87043 0.27372 0.0
C912 C 0.0742 0.88064 0.23508 0.0
C913 C 0.09269 0.85767 0.2648 0.0
C914 C 0.11177 0.83223 0.1618 0.0
H915 H 0.16828 0.76836 0.2321 0.0
H916 H 0.14676 0.79014 0.2457 0.0
H917 H 0.12338 0.81296 0.1165 0.0
H918 H 0.07671 0.88563 0.1569 0.0
H919 H 0.09831 0.86419 0.14215 0.0
H920 H 0.12607 0.84424 0.2749 0.0
C921 C 0.15344 0.78995 0.21086 0.0
C922 C 0.12414 0.81979 0.15102 0.0
C923 C 0.16577 0.77735 0.20273 0.0
C924 C 0.08095 0.878 0.18774 0.0
C925 C 0.09332 0.86549 0.17902 0.0
C926 C 0.12515 0.83739 0.24047 0.0
C927 C 0.14978 0.80217 0.17473 0.0
C928 C 0.13704 0.81589 0.18502 0.0
C929 C 0.09924 0.85496 0.21714 0.0
C930 C 0.11214 0.84128 0.20659 0.0
H931 H 0.17789 0.78853 0.08688 0.0
H932 H 0.15589 0.8105 0.10092 0.0
H933 H 0.1473 0.82219 0.25666 0.0
H934 H 0.07542 0.87207 0.31056 0.0
H935 H 0.09683 0.84973 0.2951 0.0
C936 C 0.00291 0.62889 0.26538 0.0
C937 C 0.01156 0.62251 0.22391 0.0
C938 C 0.99005 0.6414 0.26013 0.0
C939 C 0.95921 0.65828 0.1701 0.0
H940 H 0.9607 0.70058 0.24429 0.0
C941 C 0.91468 0.71506 0.12157 0.0
C942 C 0.90772 0.72444 0.16084 0.0
C943 C 0.9278 0.70308 0.1297 0.0
C944 C 0.9599 0.68876 0.22365 0.0
H945 H 0.01327 0.62442 0.14436 0.0
H946 H 0.99095 0.64563 0.13571 0.0
H947 H 0.98163 0.67807 0.26108 0.0
H948 H 0.90965 0.72881 0.23947 0.0
H949 H 0.93186 0.70787 0.25348 0.0
H950 H 0.9374 0.66865 0.13314 0.0
C951 C 0.99404 0.64104 0.17216 0.0
C952 C 0.97192 0.67586 0.23342 0.0
C953 C 0.00695 0.62887 0.17735 0.0
C954 C 0.9146 0.72189 0.20807 0.0
C955 C 0.92753 0.70987 0.21621 0.0
C956 C 0.94708 0.67105 0.16072 0.0
C957 C 0.98542 0.64746 0.21331 0.0
C958 C 0.9718 0.66056 0.20639 0.0
C959 C 0.9342 0.70012 0.17735 0.0
C960 C 0.94732 0.68656 0.18704 0.0
H961 H 0.00614 0.62433 0.30172 0.0
H962 H 0.98357 0.64615 0.29253 0.0
H963 H 0.95872 0.64654 0.14894 0.0
H964 H 0.90977 0.71668 0.08471 0.0
H965 H 0.93283 0.69607 0.09861 0.0
C966 C 0.08245 0.12664 0.85057 0.0
C967 C 0.07416 0.11952 0.89162 0.0
C968 C 0.09546 0.13894 0.85681 0.0
C969 C 0.12682 0.1547 0.94779 0.0
H970 H 0.12375 0.19827 0.88037 0.0
C971 C 0.16833 0.21261 0.00662 0.0
C972 C 0.17495 0.22309 0.96921 0.0
C973 C 0.15603 0.20003 0.99593 0.0
C974 C 0.12499 0.1861 0.89909 0.0
H975 H 0.07339 0.11972 0.97144 0.0
H976 H 0.09594 0.14052 0.98178 0.0
H977 H 0.10351 0.17544 0.86046 0.0
H978 H 0.1734 0.22862 0.89112 0.0
H979 H 0.15254 0.20669 0.87274 0.0
H980 H 0.1483 0.16515 0.98623 0.0
C981 C 0.09248 0.1367 0.94488 0.0
C982 C 0.11338 0.17302 0.8875 0.0
C983 C 0.07942 0.12476 0.93874 0.0
C984 C 0.16865 0.22089 0.92117 0.0
C985 C 0.15652 0.2083 0.9105 0.0
C986 C 0.13851 0.16769 0.95906 0.0
C987 C 0.10061 0.14402 0.90417 0.0
C988 C 0.11404 0.15725 0.9122 0.0
C989 C 0.15012 0.19756 0.94755 0.0
C990 C 0.13766 0.18366 0.93529 0.0
H991 H 0.07869 0.12296 0.81381 0.0
H992 H 0.10155 0.1444 0.82472 0.0
H993 H 0.12774 0.14261 0.96715 0.0
H994 H 0.17281 0.21393 0.04401 0.0
H995 H 0.15118 0.19221 0.02566 0.0
C996 C 0.66421 0.28821 0.60186 0.0
C997 C 0.6683 0.27699 0.64053 0.0
C998 C 0.65249 0.30167 0.6092 0.0
C999 C 0.63501 0.329 0.70712 0.0
H1000 H 0.5961 0.33625 0.62155 0.0
C1001 C 0.58001 0.37567 0.75917 0.0
C1002 C 0.57226 0.38497 0.72103 0.0
C1003 C 0.59183 0.36259 0.74864 0.0
C1004 C 0.60703 0.33463 0.64552 0.0
H1005 H 0.66281 0.27113 0.71709 0.0
H1006 H 0.64293 0.29442 0.72942 0.0
H1007 H 0.61697 0.31401 0.60176 0.0
H1008 H 0.57118 0.38782 0.64171 0.0
H1009 H 0.59193 0.36578 0.62389 0.0
H1010 H 0.62538 0.34969 0.75058 0.0
C1011 C 0.64878 0.29292 0.69362 0.0
C1012 C 0.61898 0.32184 0.63405 0.0
C1013 C 0.66018 0.27945 0.68623 0.0
C1014 C 0.57672 0.38092 0.67229 0.0
C1015 C 0.58861 0.36809 0.66188 0.0
C1016 C 0.62321 0.34191 0.71829 0.0
C1017 C 0.64491 0.3043 0.65551 0.0
C1018 C 0.63298 0.31877 0.66502 0.0
C1019 C 0.5963 0.35864 0.69975 0.0
C1020 C 0.60895 0.34485 0.68788 0.0
H1021 H 0.67018 0.28673 0.56625 0.0
H1022 H 0.64968 0.31028 0.5791 0.0
H1023 H 0.64579 0.327 0.73148 0.0
H1024 H 0.57685 0.37837 0.79708 0.0
H1025 H 0.5973 0.35546 0.77887 0.0
C1026 C 0.42188 0.78771 0.43946 0.0
C1027 C 0.41712 0.783 0.48744 0.0
C1028 C 0.43552 0.79887 0.43108 0.0
C1029 C 0.46276 0.83155 0.49219 0.0
H1030 H 0.4904 0.82603 0.37486 0.0
C1031 C 0.52239 0.87302 0.45569 0.0
C1032 C 0.52325 0.88109 0.40949 0.0
C1033 C 0.51055 0.86 0.46471 0.0
C1034 C 0.48273 0.82778 0.4076 0.0
H1035 H 0.42333 0.78632 0.56432 0.0
H1036 H 0.4476 0.80551 0.54966 0.0
H1037 H 0.46808 0.80517 0.3936 0.0
H1038 H 0.5128 0.88094 0.33578 0.0
H1039 H 0.49227 0.85783 0.35148 0.0
H1040 H 0.47771 0.85403 0.50642 0.0
C1041 C 0.44044 0.8008 0.51845 0.0
C1042 C 0.46987 0.81586 0.41838 0.0
C1043 C 0.42657 0.78971 0.52693 0.0
C1044 C 0.51254 0.87505 0.37174 0.0
C1045 C 0.50076 0.86182 0.38073 0.0
C1046 C 0.47577 0.84334 0.48169 0.0
C1047 C 0.44508 0.80555 0.47031 0.0
C1048 C 0.45954 0.81768 0.46055 0.0
C1049 C 0.49935 0.85449 0.42773 0.0
C1050 C 0.48581 0.84167 0.43909 0.0
H1051 H 0.41491 0.78297 0.40792 0.0
H1052 H 0.43834 0.80248 0.3936 0.0
H1053 H 0.45495 0.83361 0.52449 0.0
H1054 H 0.53048 0.87714 0.48573 0.0
H1055 H 0.50999 0.85439 0.50102 0.0
C1056 C 0.03974 0.5436 0.1521 0.0
C1057 C 0.02736 0.55321 0.17711 0.0
C1058 C 0.03495 0.53294 0.11351 0.0
C1059 C 0.00348 0.50575 0.0627 0.0
H1060 H 0.02612 0.51611 0.93951 0.0
C1061 C 0.00686 0.45697 0.90268 0.0
C1062 C 0.0239 0.45451 0.88798 0.0
C1063 C 0.00251 0.47112 0.93174 0.0
C1064 C 0.01956 0.51307 0.97344 0.0
H1065 H 1.00019 0.55805 0.18548 0.0
H1066 H 0.99168 0.53895 0.11767 0.0
H1067 H 0.02784 0.53618 0.00707 0.0
H1068 H 0.04938 0.46537 0.88682 0.0
H1069 H 0.04206 0.48982 0.93755 0.0
H1070 H 0.99617 0.4819 0.02989 0.0
C1071 C 0.0051 0.54016 0.12718 0.0
C1072 C 0.02051 0.52464 0.012 0.0
C1073 C 0.00995 0.55103 0.16561 0.0
C1074 C 0.03625 0.46688 0.89906 0.0
C1075 C 0.03194 0.481 0.92744 0.0
C1076 C 0.00265 0.49397 0.02401 0.0
C1077 C 0.01765 0.53135 0.10029 0.0
C1078 C 0.01315 0.52079 0.05748 0.0
C1079 C 0.01512 0.48314 0.94492 0.0
C1080 C 0.01155 0.49716 0.98002 0.0
H1081 H 0.05315 0.54453 0.16197 0.0
H1082 H 0.04479 0.52601 0.09368 0.0
H1083 H 0.99765 0.50257 0.09759 0.0
H1084 H 0.99711 0.44764 0.89332 0.0
H1085 H 0.98944 0.47253 0.94446 0.0
C1086 C 0.83784 0.70633 0.18357 0.0
C1087 C 0.83504 0.72358 0.1713 0.0
C1088 C 0.82594 0.69754 0.21266 0.0
C1089 C 0.78136 0.69796 0.25463 0.0
H1090 H 0.79859 0.69636 0.38779 0.0
C1091 C 0.75948 0.7342 0.42227 0.0
C1092 C 0.74414 0.72726 0.43992 0.0
C1093 C 0.77016 0.72445 0.39232 0.0
C1094 C 0.79355 0.69601 0.35078 0.0
H1095 H 0.81729 0.7448 0.17542 0.0
H1096 H 0.7963 0.72942 0.22523 0.0
H1097 H 0.81846 0.69388 0.31865 0.0
H1098 H 0.72812 0.70464 0.44268 0.0
H1099 H 0.74655 0.68772 0.38714 0.0
H1100 H 0.75644 0.69935 0.28658 0.0
C1101 C 0.80773 0.72272 0.21319 0.0
C1102 C 0.80493 0.69491 0.31136 0.0
C1103 C 0.81978 0.7316 0.18542 0.0
C1104 C 0.73985 0.71023 0.42868 0.0
C1105 C 0.75037 0.70056 0.39746 0.0
C1106 C 0.7699 0.69791 0.29392 0.0
C1107 C 0.81079 0.70571 0.2276 0.0
C1108 C 0.79905 0.69785 0.26353 0.0
C1109 C 0.76562 0.70764 0.3793 0.0
C1110 C 0.77607 0.69881 0.34208 0.0
H1111 H 0.84949 0.69992 0.17218 0.0
H1112 H 0.82863 0.68452 0.22402 0.0
H1113 H 0.77649 0.69986 0.21783 0.0
H1114 H 0.76312 0.74722 0.43133 0.0
H1115 H 0.7817 0.73028 0.37781 0.0
C1116 C 0.5761 0.55338 0.43901 0.0
C1117 C 0.55886 0.55679 0.42795 0.0
C1118 C 0.58028 0.54258 0.47824 0.0
C1119 C 0.56275 0.52862 0.59443 0.0
H1120 H 0.58976 0.48722 0.58352 0.0
C1121 C 0.54837 0.47178 0.71167 0.0
C1122 C 0.56076 0.45944 0.72242 0.0
C1123 C 0.55258 0.48596 0.68352 0.0
C1124 C 0.58255 0.49897 0.58761 0.0
H1125 H 0.53255 0.55028 0.44467 0.0
H1126 H 0.53977 0.53173 0.51374 0.0
H1127 H 0.5884 0.50714 0.51419 0.0
H1128 H 0.58761 0.45278 0.71737 0.0
H1129 H 0.5952 0.47786 0.66711 0.0
H1130 H 0.55668 0.52073 0.66708 0.0
C1131 C 0.55004 0.53772 0.49322 0.0
C1132 C 0.58174 0.51031 0.54786 0.0
C1133 C 0.54591 0.54836 0.45403 0.0
C1134 C 0.57782 0.46208 0.70818 0.0
C1135 C 0.58211 0.47635 0.67955 0.0
C1136 C 0.56386 0.51762 0.63424 0.0
C1137 C 0.56723 0.53505 0.50634 0.0
C1138 C 0.57113 0.52479 0.55035 0.0
C1139 C 0.56941 0.48826 0.66608 0.0
C1140 C 0.57281 0.5021 0.63019 0.0
H1141 H 0.58627 0.55949 0.41839 0.0
H1142 H 0.59361 0.54055 0.48755 0.0
H1143 H 0.55458 0.53967 0.59739 0.0
H1144 H 0.53522 0.47014 0.72363 0.0
H1145 H 0.54234 0.49461 0.67327 0.0
C1146 C 0.82159 0.25681 0.96574 0.0
C1147 C 0.83422 0.26899 0.9757 0.0
C1148 C 0.80726 0.26127 0.93851 0.0
C1149 C 0.79422 0.29049 0.84212 0.0
H1150 H 0.75255 0.26441 0.85858 0.0
C1151 C 0.73808 0.2805 0.69878 0.0
C1152 C 0.73704 0.26299 0.68714 0.0
C1153 C 0.74838 0.286 0.73772 0.0
C1154 C 0.76389 0.27205 0.8538 0.0
H1155 H 0.84139 0.29568 0.9697 0.0
H1156 H 0.81611 0.30364 0.9206 0.0
H1157 H 0.77218 0.26703 0.92681 0.0
H1158 H 0.74715 0.23777 0.70272 0.0
H1159 H 0.7647 0.24726 0.77199 0.0
H1160 H 0.78588 0.29488 0.76803 0.0
C1161 C 0.81745 0.29057 0.93334 0.0
C1162 C 0.77523 0.2735 0.89276 0.0
C1163 C 0.83183 0.28607 0.96123 0.0
C1164 C 0.7472 0.25121 0.71266 0.0
C1165 C 0.7573 0.25664 0.75178 0.0
C1166 C 0.78264 0.28921 0.80308 0.0
C1167 C 0.80516 0.2781 0.92108 0.0
C1168 C 0.79107 0.28169 0.88627 0.0
C1169 C 0.75776 0.27402 0.76501 0.0
C1170 C 0.76784 0.27919 0.80813 0.0
H1171 H 0.82307 0.24365 0.97776 0.0
H1172 H 0.79828 0.25122 0.92903 0.0
H1173 H 0.80622 0.29712 0.83625 0.0
H1174 H 0.73062 0.28982 0.67851 0.0
H1175 H 0.74873 0.29947 0.74724 0.0
C1176 C 0.26236 0.24204 0.9549 0.0
C1177 C 0.24874 0.23104 0.96569 0.0
C1178 C 0.27604 0.23628 0.92677 0.0
C1179 C 0.28589 0.20747 0.82824 0.0
H1180 H 0.33128 0.2253 0.85253 0.0
C1181 C 0.34606 0.21503 0.6938 0.0
C1182 C 0.34649 0.23255 0.68209 0.0
C1183 C 0.3353 0.20908 0.73124 0.0
C1184 C 0.31881 0.22 0.8455 0.0
H1185 H 0.23901 0.20518 0.95946 0.0
H1186 H 0.26298 0.19505 0.9081 0.0
H1187 H 0.31056 0.2247 0.91895 0.0
H1188 H 0.33505 0.25732 0.69618 0.0
H1189 H 0.31655 0.24704 0.76253 0.0
H1190 H 0.29396 0.2042 0.75342 0.0
C1191 C 0.26299 0.20813 0.92137 0.0
C1192 C 0.30693 0.21963 0.88344 0.0
C1193 C 0.24935 0.21389 0.95043 0.0
C1194 C 0.33538 0.24388 0.70608 0.0
C1195 C 0.32474 0.238 0.74348 0.0
C1196 C 0.29783 0.20804 0.78995 0.0
C1197 C 0.27638 0.21936 0.90904 0.0
C1198 C 0.29004 0.2144 0.87435 0.0
C1199 C 0.32477 0.22062 0.7566 0.0
C1200 C 0.31408 0.21511 0.79805 0.0
H1201 H 0.26224 0.25522 0.96745 0.0
H1202 H 0.28602 0.24533 0.91718 0.0
H1203 H 0.27305 0.20304 0.8206 0.0
H1204 H 0.35431 0.20605 0.67476 0.0
H1205 H 0.3354 0.19562 0.74091 0.0
C1206 C 0.32855 0.76425 0.4747 0.0
C1207 C 0.34175 0.77575 0.48532 0.0
C1208 C 0.31444 0.76957 0.44771 0.0
C1209 C 0.30299 0.79848 0.35091 0.0
H1210 H 0.25922 0.7767 0.37288 0.0
C1211 C 0.24462 0.78651 0.21319 0.0
C1212 C 0.24536 0.76898 0.20159 0.0
C1213 C 0.25469 0.79315 0.25119 0.0
C1214 C 0.27119 0.78313 0.3665 0.0
H1215 H 0.35028 0.80206 0.48009 0.0
H1216 H 0.3255 0.81146 0.43079 0.0
H1217 H 0.27942 0.77891 0.44012 0.0
H1218 H 0.25821 0.74499 0.2165 0.0
H1219 H 0.27551 0.75646 0.28395 0.0
H1220 H 0.29501 0.80139 0.2759 0.0
C1221 C 0.32616 0.79831 0.44335 0.0
C1222 C 0.28279 0.78442 0.40493 0.0
C1223 C 0.34025 0.79298 0.47127 0.0
C1224 C 0.25697 0.75839 0.22631 0.0
C1225 C 0.26693 0.76496 0.26434 0.0
C1226 C 0.29131 0.79709 0.31216 0.0
C1227 C 0.31322 0.78656 0.43094 0.0
C1228 C 0.29926 0.79099 0.39658 0.0
C1229 C 0.26571 0.78231 0.27733 0.0
C1230 C 0.27571 0.78855 0.31936 0.0
H1231 H 0.32936 0.75098 0.48622 0.0
H1232 H 0.30488 0.7601 0.43799 0.0
H1233 H 0.31548 0.80391 0.34377 0.0
H1234 H 0.23598 0.79495 0.1936 0.0
H1235 H 0.25369 0.80659 0.26071 0.0
C1236 C 0.50123 0.94866 0.43911 0.0
C1237 C 0.51813 0.95297 0.42644 0.0
C1238 C 0.49172 0.9594 0.47004 0.0
C1239 C 0.48886 0.97898 0.57187 0.0
H1240 H 0.48613 0.02779 0.54991 0.0
C1241 C 0.5232 0.02759 0.68471 0.0
C1242 C 0.51531 0.04287 0.69919 0.0
C1243 C 0.51431 0.01583 0.65589 0.0
C1244 C 0.48695 0.01419 0.55637 0.0
H1245 H 0.53797 0.97221 0.43206 0.0
H1246 H 0.5213 0.99114 0.48524 0.0
H1247 H 0.48861 0.00835 0.47963 0.0
H1248 H 0.49185 0.05764 0.69803 0.0
H1249 H 0.47646 0.03734 0.6445 0.0
H1250 H 0.49073 0.98497 0.64841 0.0
C1251 C 0.51544 0.97945 0.47194 0.0
C1252 C 0.48799 0.00307 0.51633 0.0
C1253 C 0.52505 0.96856 0.44226 0.0
C1254 C 0.49818 0.04598 0.68632 0.0
C1255 C 0.48938 0.03439 0.65627 0.0
C1256 C 0.48917 0.99015 0.61182 0.0
C1257 C 0.49879 0.9749 0.48652 0.0
C1258 C 0.49024 0.98545 0.52413 0.0
C1259 C 0.49741 0.01923 0.64088 0.0
C1260 C 0.48957 0.0079 0.60392 0.0
H1261 H 0.49565 0.93674 0.4265 0.0
H1262 H 0.47901 0.95555 0.48159 0.0
H1263 H 0.48962 0.9654 0.5784 0.0
H1264 H 0.5363 0.02484 0.69524 0.0
H1265 H 0.5209 0.0044 0.64354 0.0
C1266 C 0.07133 0.04878 0.95012 0.0
C1267 C 0.05416 0.05156 0.93702 0.0
C1268 C 0.07534 0.03804 0.98959 0.0
C1269 C 0.05672 0.02293 0.10321 0.0
H1270 H 0.08609 0.98308 0.0949 0.0
C1271 C 0.0443 0.96508 0.21892 0.0
C1272 C 0.05739 0.9537 0.23155 0.0
C1273 C 0.0479 0.97946 0.19087 0.0
C1274 C 0.07815 0.99439 0.09822 0.0
H1275 H 0.0279 0.04399 0.95027 0.0
H1276 H 0.03479 0.02555 0.01993 0.0
H1277 H 0.08455 0.00303 0.02563 0.0
H1278 H 0.08469 0.94899 0.22989 0.0
H1279 H 0.09118 0.9744 0.17974 0.0
H1280 H 0.05005 0.01452 0.17497 0.0
C1281 C 0.04512 0.03199 1.00079 0.0
C1282 C 0.07726 0.00574 0.05854 0.0
C1283 C 0.04116 0.04258 0.96131 0.0
C1284 C 0.07441 0.95753 0.21926 0.0
C1285 C 0.07807 0.97198 0.19067 0.0
C1286 C 0.05782 0.01188 0.1429 0.0
C1287 C 0.0622 0.02993 0.01592 0.0
C1288 C 0.06589 0.01966 0.06006 0.0
C1289 C 0.06475 0.9829 0.17538 0.0
C1290 C 0.0677 0.99691 0.13972 0.0
H1291 H 0.08156 0.05531 0.93084 0.0
H1292 H 0.0886 0.03649 1.00045 0.0
H1293 H 0.04804 0.03362 0.10548 0.0
H1294 H 0.03114 0.96253 0.22937 0.0
H1295 H 0.03724 0.98734 0.17917 0.0
C1296 C 0.04029 0.44236 0.6462 0.0
C1297 C 0.05189 0.44335 0.68556 0.0
C1298 C 0.04069 0.45461 0.6083 0.0
C1299 C 0.06797 0.48857 0.5514 0.0
H1300 H 0.02468 0.50814 0.50998 0.0
C1301 C 0.04029 0.55103 0.43518 0.0
C1302 C 0.05113 0.5505 0.39396 0.0
C1303 C 0.04075 0.53791 0.47053 0.0
C1304 C 0.0369 0.50291 0.52135 0.0
H1305 H 0.07347 0.45758 0.71464 0.0
H1306 H 0.07435 0.47857 0.64875 0.0
H1307 H 0.02495 0.48462 0.56916 0.0
H1308 H 0.07127 0.53589 0.3585 0.0
H1309 H 0.07218 0.51327 0.41995 0.0
H1310 H 0.07994 0.50698 0.50418 0.0
C1311 C 0.0649 0.46843 0.64687 0.0
C1312 C 0.03705 0.48923 0.55483 0.0
C1313 C 0.06438 0.45635 0.68483 0.0
C1314 C 0.06277 0.5368 0.38982 0.0
C1315 C 0.06332 0.5238 0.42524 0.0
C1316 C 0.06782 0.50215 0.51768 0.0
C1317 C 0.05284 0.468 0.60858 0.0
C1318 C 0.0526 0.48191 0.5706 0.0
C1319 C 0.05216 0.524 0.46581 0.0
C1320 C 0.05229 0.50959 0.50228 0.0
H1321 H 0.0304 0.43263 0.64583 0.0
H1322 H 0.03132 0.45373 0.57913 0.0
H1323 H 0.0802 0.48323 0.56233 0.0
H1324 H 0.0311 0.56132 0.43946 0.0
H1325 H 0.03211 0.53865 0.50155 0.0
C1326 C 0.82173 0.76485 0.97673 0.0
C1327 C 0.83921 0.76073 0.97146 0.0
C1328 C 0.8109 0.76578 0.93597 0.0
C1329 C 0.80908 0.77292 0.80356 0.0
H1330 H 0.76649 0.74746 0.81036 0.0
C1331 C 0.76432 0.76681 0.63469 0.0
C1332 C 0.74657 0.76465 0.64145 0.0
C1333 C 0.77557 0.76694 0.67467 0.0
C1334 C 0.77812 0.75495 0.80788 0.0
H1335 H 0.85904 0.75484 0.91847 0.0
H1336 H 0.84008 0.757 0.84657 0.0
H1337 H 0.78637 0.74667 0.87909 0.0
H1338 H 0.72674 0.76142 0.69615 0.0
H1339 H 0.74621 0.76247 0.76629 0.0
H1340 H 0.8007 0.78177 0.73334 0.0
C1341 C 0.83482 0.75932 0.88274 0.0
C1342 C 0.78962 0.75436 0.84735 0.0
C1343 C 0.84568 0.75808 0.92387 0.0
C1344 C 0.74032 0.76308 0.68957 0.0
C1345 C 0.75159 0.7635 0.72983 0.0
C1346 C 0.79743 0.77378 0.76438 0.0
C1347 C 0.81722 0.76289 0.88849 0.0
C1348 C 0.80527 0.76329 0.84567 0.0
C1349 C 0.76947 0.7652 0.72304 0.0
C1350 C 0.78175 0.76475 0.7657 0.0
H1351 H 0.81621 0.76695 0.01269 0.0
H1352 H 0.79748 0.76875 0.94167 0.0
H1353 H 0.82092 0.78012 0.80138 0.0
H1354 H 0.76967 0.76788 0.59815 0.0
H1355 H 0.78916 0.76792 0.6672 0.0
C1356 C 0.54506 0.55433 0.17107 0.0
C1357 C 0.53452 0.55409 0.21295 0.0
C1358 C 0.5443 0.54103 0.13636 0.0
C1359 C 0.5169 0.5051 0.0921 0.0
H1360 H 0.55945 0.48745 0.0388 0.0
C1361 C 0.5196 0.45949 0.9243 0.0
C1362 C 0.53216 0.44656 0.92276 0.0
C1363 C 0.51915 0.47141 0.96269 0.0
C1364 C 0.54745 0.49209 0.05366 0.0
H1365 H 0.51459 0.53979 0.25027 0.0
H1366 H 0.51314 0.51681 0.18983 0.0
H1367 H 0.56008 0.51107 0.09761 0.0
H1368 H 0.55381 0.43575 0.96157 0.0
H1369 H 0.55302 0.45659 0.029 0.0
H1370 H 0.50426 0.48612 0.04823 0.0
C1371 C 0.522 0.52727 0.18358 0.0
C1372 C 0.54779 0.50583 0.08694 0.0
C1373 C 0.52285 0.54048 0.21839 0.0
C1374 C 0.54386 0.44543 0.96183 0.0
C1375 C 0.54354 0.45752 1.00015 0.0
C1376 C 0.51654 0.49146 0.05857 0.0
C1377 C 0.53288 0.52719 0.1424 0.0
C1378 C 0.53252 0.51258 0.10656 0.0
C1379 C 0.53137 0.47089 1.00059 0.0
C1380 C 0.53181 0.48477 0.03868 0.0
H1381 H 0.55425 0.56456 0.16575 0.0
H1382 H 0.55271 0.54156 0.10481 0.0
H1383 H 0.50486 0.50998 0.1061 0.0
H1384 H 0.51043 0.46081 0.89472 0.0
H1385 H 0.50968 0.48154 0.96137 0.0
C1386 C 0.83433 0.22659 0.17565 0.0
C1387 C 0.84726 0.23915 0.17453 0.0
C1388 C 0.82247 0.22593 0.21416 0.0
C1389 C 0.80273 0.22266 0.31029 0.0
H1390 H 0.78309 0.26585 0.35256 0.0
C1391 C 0.75474 0.2275 0.47266 0.0
C1392 C 0.74096 0.23906 0.46878 0.0
C1393 C 0.76771 0.22706 0.43711 0.0
C1394 C 0.78834 0.25366 0.34097 0.0
H1395 H 0.85811 0.2606 0.21419 0.0
H1396 H 0.83737 0.25943 0.28188 0.0
H1397 H 0.80648 0.26571 0.29287 0.0
H1398 H 0.72998 0.25908 0.42363 0.0
H1399 H 0.75261 0.25827 0.36131 0.0
H1400 H 0.78447 0.21058 0.35777 0.0
C1401 C 0.83639 0.25011 0.25258 0.0
C1402 C 0.80195 0.25359 0.30719 0.0
C1403 C 0.84843 0.25065 0.21412 0.0
C1404 C 0.74034 0.24995 0.42771 0.0
C1405 C 0.75343 0.24961 0.39223 0.0
C1406 C 0.78922 0.22274 0.34429 0.0
C1407 C 0.82304 0.23793 0.25264 0.0
C1408 C 0.80927 0.23808 0.29109 0.0
C1409 C 0.7674 0.23826 0.39667 0.0
C1410 C 0.78175 0.23822 0.35999 0.0
H1411 H 0.83296 0.21758 0.14567 0.0
H1412 H 0.81235 0.21645 0.21254 0.0
H1413 H 0.80807 0.21047 0.29909 0.0
H1414 H 0.75572 0.21897 0.50386 0.0
H1415 H 0.77829 0.21826 0.44219 0.0
C1416 C 0.32966 0.27049 0.47018 0.0
C1417 C 0.34345 0.25896 0.46618 0.0
C1418 C 0.31692 0.27125 0.43402 0.0
C1419 C 0.2967 0.24541 0.33586 0.0
H1420 H 0.27767 0.28897 0.29457 0.0
C1421 C 0.23694 0.24972 0.20828 0.0
C1422 C 0.23843 0.26121 0.16878 0.0
C1423 C 0.24893 0.24996 0.24682 0.0
C1424 C 0.28283 0.27668 0.30562 0.0
H1425 H 0.35471 0.2393 0.42024 0.0
H1426 H 0.33246 0.24061 0.35692 0.0
H1427 H 0.30099 0.28838 0.35418 0.0
H1428 H 0.25326 0.28244 0.1401 0.0
H1429 H 0.2738 0.28308 0.20724 0.0
H1430 H 0.27862 0.23374 0.28684 0.0
C1431 C 0.33147 0.24904 0.38835 0.0
C1432 C 0.29616 0.27633 0.34011 0.0
C1433 C 0.34434 0.2484 0.42441 0.0
C1434 C 0.25166 0.27345 0.17001 0.0
C1435 C 0.26347 0.27382 0.20865 0.0
C1436 C 0.28325 0.24575 0.30165 0.0
C1437 C 0.31749 0.26037 0.39288 0.0
C1438 C 0.30336 0.2607 0.35559 0.0
C1439 C 0.26254 0.26184 0.24708 0.0
C1440 C 0.27618 0.2614 0.2858 0.0
H1441 H 0.32849 0.27878 0.50189 0.0
H1442 H 0.30633 0.28003 0.43912 0.0
H1443 H 0.30177 0.23313 0.34727 0.0
H1444 H 0.22701 0.24002 0.20827 0.0
H1445 H 0.24769 0.24066 0.27609 0.0
C1446 C 0.33964 0.73127 0.6832 0.0
C1447 C 0.35297 0.74341 0.683 0.0
C1448 C 0.32791 0.73049 0.72204 0.0
C1449 C 0.30885 0.72654 0.81937 0.0
H1450 H 0.29011 0.76965 0.86545 0.0
C1451 C 0.26272 0.73118 0.98626 0.0
C1452 C 0.24887 0.74269 0.98355 0.0
C1453 C 0.2753 0.73076 0.94956 0.0
C1454 C 0.29512 0.75749 0.85281 0.0
H1455 H 0.36461 0.76401 0.72445 0.0
H1456 H 0.34406 0.76268 0.79256 0.0
H1457 H 0.31307 0.76965 0.80433 0.0
H1458 H 0.23734 0.76266 0.93936 0.0
H1459 H 0.25935 0.76196 0.87516 0.0
H1460 H 0.29085 0.71436 0.86751 0.0
C1461 C 0.3427 0.75376 0.76238 0.0
C1462 C 0.30846 0.75749 0.81819 0.0
C1463 C 0.35462 0.75439 0.72364 0.0
C1464 C 0.24776 0.75356 0.94253 0.0
C1465 C 0.26049 0.75328 0.90596 0.0
C1466 C 0.29564 0.72653 0.85432 0.0
C1467 C 0.329 0.74197 0.76169 0.0
C1468 C 0.31546 0.74201 0.80075 0.0
C1469 C 0.27453 0.74196 0.9092 0.0
C1470 C 0.28851 0.742 0.8714 0.0
H1471 H 0.33791 0.72267 0.65239 0.0
H1472 H 0.31752 0.72133 0.7199 0.0
H1473 H 0.31395 0.71437 0.80706 0.0
H1474 H 0.26406 0.72266 0.01737 0.0
H1475 H 0.28595 0.72198 0.95364 0.0
C1476 C 0.54461 0.94919 0.17995 0.0
C1477 C 0.55443 0.95235 0.22224 0.0
C1478 C 0.54464 0.96089 0.14072 0.0
C1479 C 0.56938 0.99634 0.08436 0.0
H1480 H 0.52569 0.01057 0.03029 0.0
C1481 C 0.53983 0.05176 0.94542 0.0
C1482 C 0.55059 0.04954 0.90452 0.0
C1483 C 0.54078 0.04047 0.98558 0.0
C1484 C 0.53799 0.00682 0.04521 0.0
H1485 H 0.57244 0.96999 0.25555 0.0
H1486 H 0.57285 0.99004 0.18694 0.0
H1487 H 0.52654 0.98887 0.09513 0.0
H1488 H 0.57125 0.03415 0.87473 0.0
H1489 H 0.57322 0.0149 0.94493 0.0
H1490 H 0.58084 0.01416 0.0342 0.0
C1491 C 0.56502 0.97863 0.18409 0.0
C1492 C 0.53849 0.99423 0.08197 0.0
C1493 C 0.56477 0.96711 0.2235 0.0
C1494 C 0.5628 0.03627 0.90568 0.0
C1495 C 0.56395 0.02522 0.94601 0.0
C1496 C 0.56889 0.00874 0.04713 0.0
C1497 C 0.55472 0.97587 0.14253 0.0
C1498 C 0.5542 0.98885 0.10213 0.0
C1499 C 0.55273 0.02693 0.98608 0.0
C1500 C 0.55319 0.01418 0.0271 0.0
H1501 H 0.53639 0.93803 0.17794 0.0
H1502 H 0.53668 0.95829 0.10906 0.0
H1503 H 0.5817 0.99248 0.09889 0.0
H1504 H 0.53018 0.06174 0.9455 0.0
H1505 H 0.53205 0.04224 0.01604 0.0
C1506 C 0.04359 0.04947 0.67797 0.0
C1507 C 0.03244 0.04952 0.71852 0.0
C1508 C 0.04286 0.03626 0.64289 0.0
C1509 C 0.01474 1.00127 0.59542 0.0
H1510 H 0.05723 0.98216 0.54606 0.0
C1511 C 0.04108 0.94012 0.46984 0.0
C1512 C 0.02957 0.94114 0.43029 0.0
C1513 C 0.04086 0.95254 0.50731 0.0
C1514 C 0.04523 0.98721 0.5598 0.0
H1515 H 0.01147 0.03585 0.75305 0.0
H1516 H 0.01012 0.01307 0.69218 0.0
H1517 H 0.05801 0.0059 0.60445 0.0
H1518 H 0.00829 0.95564 0.40048 0.0
H1519 H 0.00775 0.97696 0.46555 0.0
H1520 H 0.00195 0.98253 0.55112 0.0
C1521 C 0.01941 0.02322 0.68713 0.0
C1522 C 0.04568 1.00103 0.59283 0.0
C1523 C 0.02022 0.03632 0.72224 0.0
C1524 C 0.01731 0.95437 0.43046 0.0
C1525 C 0.01698 0.96664 0.46796 0.0
C1526 C 0.01429 0.98754 0.56222 0.0
C1527 C 0.03086 0.02283 0.64724 0.0
C1528 C 0.03043 0.00829 0.61114 0.0
C1529 C 0.029 0.96618 0.50638 0.0
C1530 C 0.02952 0.9803 0.54378 0.0
H1531 H 0.05322 0.05937 0.67402 0.0
H1532 H 0.05174 0.03655 0.61238 0.0
H1533 H 0.00272 0.00655 0.60831 0.0
H1534 H 0.0508 0.93021 0.47067 0.0
H1535 H 0.05018 0.95161 0.53661 0.0
loop_
_geom_bond_atom_site_label_1
_geom_bond_atom_site_label_2
_geom_bond_distance
_geom_bond_site_symmetry_2
_ccdc_geom_bond_type
Mn0 O5 2.095 . S
Mn0 O15 2.162 . S
Mn0 O16 2.297 . S
Mn0 O24 2.385 . S
Mn0 O25 2.209 . S
Mn0 O26 2.094 . S
Mn1 O6 2.121 . S
Mn1 N8 2.257 . S
Mn1 N17 2.282 . S
Mn1 O25 2.215 . S
Mn1 O27 2.117 . S
C2 O24 1.234 . S
C2 O25 1.283 . S
C3 O15 1.281 . S
C3 O16 1.236 . S
C4 O26 1.240 . S
C4 O27 1.264 . S
O5 Mn0 2.095 . S
O5 C14 1.250 . S
O6 Mn1 2.121 . S
O6 C14 1.258 . S
C7 N8 1.326 . S
C7 C11 1.460 . S
C7 H13 0.929 . S
N8 Mn1 2.257 . S
N8 C7 1.326 . S
N8 C12 1.362 . S
C9 C10 1.258 . S
C9 C12 1.431 . S
C9 C29 1.449 1_554 S
C10 C9 1.258 . S
C10 C11 1.477 . S
C10 H30 0.931 1_554 S
C11 C7 1.460 . S
C11 C10 1.477 . S
C11 H31 0.930 . S
C12 N8 1.362 . S
C12 C9 1.431 . S
C12 C22 1.476 . S
H13 C7 0.929 . S
C14 O5 1.250 . S
C14 O6 1.258 . S
O15 Mn0 2.162 . S
O15 C3 1.281 . S
O16 Mn0 2.297 . S
O16 C3 1.236 . S
N17 Mn1 2.282 . S
N17 C18 1.328 . S
N17 C22 1.318 . S
C18 N17 1.328 . S
C18 C19 1.457 . S
C18 H23 0.929 . S
C19 C18 1.457 . S
C19 C20 1.291 . S
C19 H32 0.931 1_455 S
C20 C19 1.291 . S
C20 C21 1.373 . S
C20 H33 0.929 . S
C21 C20 1.373 . S
C21 C22 1.396 . S
C21 C28 1.403 1_554 S
C22 C12 1.476 . S
C22 N17 1.318 . S
C22 C21 1.396 . S
H23 C18 0.929 . S
O24 Mn0 2.385 . S
O24 C2 1.234 . S
O25 Mn0 2.209 . S
O25 Mn1 2.215 . S
O25 C2 1.283 . S
O26 Mn0 2.094 . S
O26 C4 1.240 . S
O27 Mn1 2.117 . S
O27 C4 1.264 . S
C28 C21 1.403 1_556 S
C28 C29 1.399 . S
C28 H34 0.929 . S
C29 C9 1.449 1_556 S
C29 C28 1.399 . S
C29 H35 0.930 . S
H30 C10 0.931 1_556 S
H31 C11 0.930 . S
H32 C19 0.931 1_655 S
H33 C20 0.929 . S
H34 C28 0.929 . S
H35 C29 0.930 . S
Mn36 O41 2.095 . S
Mn36 O51 2.162 . S
Mn36 O52 2.297 . S
Mn36 O60 2.385 . S
Mn36 O61 2.209 . S
Mn36 O62 2.094 . S
Mn37 O42 2.121 . S
Mn37 N44 2.257 . S
Mn37 N53 2.282 . S
Mn37 O61 2.215 . S
Mn37 O63 2.117 . S
C38 O60 1.234 . S
C38 O61 1.283 . S
C39 O51 1.281 . S
C39 O52 1.236 . S
C40 O62 1.240 . S
C40 O63 1.264 . S
O41 Mn36 2.095 . S
O41 C50 1.250 . S
O42 Mn37 2.121 . S
O42 C50 1.258 . S
C43 N44 1.326 . S
C43 C47 1.460 . S
C43 H49 0.929 . S
N44 Mn37 2.257 . S
N44 C43 1.326 . S
N44 C48 1.362 . S
C45 C46 1.258 . S
C45 C48 1.431 . S
C45 C65 1.449 . S
C46 C45 1.258 . S
C46 C47 1.477 . S
C46 H66 0.931 . S
C47 C43 1.460 . S
C47 C46 1.477 . S
C47 H67 0.930 . S
C48 N44 1.362 . S
C48 C45 1.431 . S
C48 C58 1.476 . S
H49 C43 0.929 . S
C50 O41 1.250 . S
C50 O42 1.258 . S
O51 Mn36 2.162 . S
O51 C39 1.281 . S
O52 Mn36 2.297 . S
O52 C39 1.236 . S
N53 Mn37 2.282 . S
N53 C54 1.328 . S
N53 C58 1.318 . S
C54 N53 1.328 . S
C54 C55 1.457 . S
C54 H59 0.929 . S
C55 C54 1.457 . S
C55 C56 1.291 . S
C55 H68 0.931 . S
C56 C55 1.291 . S
C56 C57 1.373 . S
C56 H69 0.929 . S
C57 C56 1.373 . S
C57 C58 1.396 . S
C57 C64 1.403 . S
C58 C48 1.476 . S
C58 N53 1.318 . S
C58 C57 1.396 . S
H59 C54 0.929 . S
O60 Mn36 2.385 . S
O60 C38 1.234 . S
O61 Mn36 2.209 . S
O61 Mn37 2.215 . S
O61 C38 1.283 . S
O62 Mn36 2.094 . S
O62 C40 1.240 . S
O63 Mn37 2.117 . S
O63 C40 1.264 . S
C64 C57 1.403 . S
C64 C65 1.399 . S
C64 H70 0.929 . S
C65 C45 1.449 . S
C65 C64 1.399 . S
C65 H71 0.930 . S
H66 C46 0.931 . S
H67 C47 0.930 . S
H68 C55 0.931 . S
H69 C56 0.929 . S
H70 C64 0.929 . S
H71 C65 0.930 . S
Mn72 O77 2.095 . S
Mn72 O87 2.162 . S
Mn72 O88 2.297 . S
Mn72 O96 2.385 . S
Mn72 O97 2.209 . S
Mn72 O98 2.094 . S
Mn73 O78 2.121 . S
Mn73 N80 2.257 . S
Mn73 N89 2.282 . S
Mn73 O97 2.215 . S
Mn73 O99 2.117 . S
C74 O96 1.234 . S
C74 O97 1.283 . S
C75 O87 1.281 . S
C75 O88 1.236 . S
C76 O98 1.240 . S
C76 O99 1.264 . S
O77 Mn72 2.095 . S
O77 C86 1.250 . S
O78 Mn73 2.121 . S
O78 C86 1.258 . S
C79 N80 1.326 . S
C79 C83 1.460 . S
C79 H85 0.929 . S
N80 Mn73 2.257 . S
N80 C79 1.326 . S
N80 C84 1.362 . S
C81 C82 1.258 . S
C81 C84 1.431 . S
C81 C101 1.449 . S
C82 C81 1.258 . S
C82 C83 1.477 . S
C82 H102 0.931 . S
C83 C79 1.460 . S
C83 C82 1.477 . S
C83 H103 0.930 . S
C84 N80 1.362 . S
C84 C81 1.431 . S
C84 C94 1.476 . S
H85 C79 0.929 . S
C86 O77 1.250 . S
C86 O78 1.258 . S
O87 Mn72 2.162 . S
O87 C75 1.281 . S
O88 Mn72 2.297 . S
O88 C75 1.236 . S
N89 Mn73 2.282 . S
N89 C90 1.328 . S
N89 C94 1.318 . S
C90 N89 1.328 . S
C90 C91 1.457 . S
C90 H95 0.929 . S
C91 C90 1.457 . S
C91 C92 1.291 . S
C91 H104 0.931 . S
C92 C91 1.291 . S
C92 C93 1.373 . S
C92 H105 0.929 . S
C93 C92 1.373 . S
C93 C94 1.396 . S
C93 C100 1.403 . S
C94 C84 1.476 . S
C94 N89 1.318 . S
C94 C93 1.396 . S
H95 C90 0.929 . S
O96 Mn72 2.385 . S
O96 C74 1.234 . S
O97 Mn72 2.209 . S
O97 Mn73 2.215 . S
O97 C74 1.283 . S
O98 Mn72 2.094 . S
O98 C76 1.240 . S
O99 Mn73 2.117 . S
O99 C76 1.264 . S
C100 C93 1.403 . S
C100 C101 1.399 . S
C100 H106 0.929 . S
C101 C81 1.449 . S
C101 C100 1.399 . S
C101 H107 0.930 . S
H102 C82 0.931 . S
H103 C83 0.930 . S
H104 C91 0.931 . S
H105 C92 0.929 . S
H106 C100 0.929 . S
H107 C101 0.930 . S
Mn108 O113 2.095 . S
Mn108 O123 2.162 . S
Mn108 O124 2.297 . S
Mn108 O132 2.385 1_554 S
Mn108 O133 2.209 1_554 S
Mn108 O134 2.094 . S
Mn109 O114 2.121 . S
Mn109 N116 2.257 . S
Mn109 N125 2.282 . S
Mn109 O133 2.215 . S
Mn109 O135 2.117 . S
C110 O132 1.234 . S
C110 O133 1.283 . S
C111 O123 1.281 . S
C111 O124 1.236 . S
C112 O134 1.240 1_556 S
C112 O135 1.264 . S
O113 Mn108 2.095 . S
O113 C122 1.250 1_554 S
O114 Mn109 2.121 . S
O114 C122 1.258 . S
C115 N116 1.326 . S
C115 C119 1.460 . S
C115 H121 0.929 . S
N116 Mn109 2.257 . S
N116 C115 1.326 . S
N116 C120 1.362 . S
C117 C118 1.258 . S
C117 C120 1.431 . S
C117 C137 1.449 . S
C118 C117 1.258 . S
C118 C119 1.477 . S
C118 H138 0.931 . S
C119 C115 1.460 . S
C119 C118 1.477 . S
C119 H139 0.930 . S
C120 N116 1.362 . S
C120 C117 1.431 . S
C120 C130 1.476 . S
H121 C115 0.929 . S
C122 O113 1.250 1_556 S
C122 O114 1.258 . S
O123 Mn108 2.162 . S
O123 C111 1.281 . S
O124 Mn108 2.297 . S
O124 C111 1.236 . S
N125 Mn109 2.282 . S
N125 C126 1.328 . S
N125 C130 1.318 . S
C126 N125 1.328 . S
C126 C127 1.457 . S
C126 H131 0.929 . S
C127 C126 1.457 . S
C127 C128 1.291 . S
C127 H140 0.931 . S
C128 C127 1.291 . S
C128 C129 1.373 . S
C128 H141 0.929 . S
C129 C128 1.373 . S
C129 C130 1.396 . S
C129 C136 1.403 . S
C130 C120 1.476 . S
C130 N125 1.318 . S
C130 C129 1.396 . S
H131 C126 0.929 . S
O132 Mn108 2.385 1_556 S
O132 C110 1.234 . S
O133 Mn108 2.209 1_556 S
O133 Mn109 2.215 . S
O133 C110 1.283 . S
O134 Mn108 2.094 . S
O134 C112 1.240 1_554 S
O135 Mn109 2.117 . S
O135 C112 1.264 . S
C136 C129 1.403 . S
C136 C137 1.399 . S
C136 H142 0.929 . S
C137 C117 1.449 . S
C137 C136 1.399 . S
C137 H143 0.930 . S
H138 C118 0.931 . S
H139 C119 0.930 . S
H140 C127 0.931 . S
H141 C128 0.929 . S
H142 C136 0.929 . S
H143 C137 0.930 . S
Mn144 O149 2.095 . S
Mn144 O159 2.162 . S
Mn144 O160 2.297 . S
Mn144 O168 2.385 . S
Mn144 O169 2.209 . S
Mn144 O170 2.094 . S
Mn145 O150 2.121 . S
Mn145 N152 2.257 1_556 S
Mn145 N161 2.282 1_556 S
Mn145 O169 2.215 . S
Mn145 O171 2.117 . S
C146 O168 1.234 . S
C146 O169 1.283 . S
C147 O159 1.281 . S
C147 O160 1.236 . S
C148 O170 1.240 . S
C148 O171 1.264 . S
O149 Mn144 2.095 . S
O149 C158 1.250 . S
O150 Mn145 2.121 . S
O150 C158 1.258 . S
C151 N152 1.326 . S
C151 C155 1.460 . S
C151 H157 0.929 1_554 S
N152 Mn145 2.257 1_554 S
N152 C151 1.326 . S
N152 C156 1.362 . S
C153 C154 1.258 . S
C153 C156 1.431 . S
C153 C173 1.449 . S
C154 C153 1.258 . S
C154 C155 1.477 . S
C154 H174 0.931 . S
C155 C151 1.460 . S
C155 C154 1.477 . S
C155 H175 0.930 . S
C156 N152 1.362 . S
C156 C153 1.431 . S
C156 C166 1.476 . S
H157 C151 0.929 1_556 S
C158 O149 1.250 . S
C158 O150 1.258 . S
O159 Mn144 2.162 . S
O159 C147 1.281 . S
O160 Mn144 2.297 . S
O160 C147 1.236 . S
N161 Mn145 2.282 1_554 S
N161 C162 1.328 . S
N161 C166 1.318 . S
C162 N161 1.328 . S
C162 C163 1.457 . S
C162 H167 0.929 1_554 S
C163 C162 1.457 . S
C163 C164 1.291 . S
C163 H176 0.931 1_455 S
C164 C163 1.291 . S
C164 C165 1.373 . S
C164 H177 0.929 . S
C165 C164 1.373 . S
C165 C166 1.396 . S
C165 C172 1.403 . S
C166 C156 1.476 . S
C166 N161 1.318 . S
C166 C165 1.396 . S
H167 C162 0.929 1_556 S
O168 Mn144 2.385 . S
O168 C146 1.234 . S
O169 Mn144 2.209 . S
O169 Mn145 2.215 . S
O169 C146 1.283 . S
O170 Mn144 2.094 . S
O170 C148 1.240 . S
O171 Mn145 2.117 . S
O171 C148 1.264 . S
C172 C165 1.403 . S
C172 C173 1.399 . S
C172 H178 0.929 . S
C173 C153 1.449 . S
C173 C172 1.399 . S
C173 H179 0.930 . S
H174 C154 0.931 . S
H175 C155 0.930 . S
H176 C163 0.931 1_655 S
H177 C164 0.929 . S
H178 C172 0.929 . S
H179 C173 0.930 . S
Mn180 O185 2.095 . S
Mn180 O195 2.162 . S
Mn180 O196 2.297 . S
Mn180 O204 2.385 . S
Mn180 O205 2.209 . S
Mn180 O206 2.094 . S
Mn181 O186 2.121 . S
Mn181 N188 2.257 . S
Mn181 N197 2.282 . S
Mn181 O205 2.215 . S
Mn181 O207 2.117 . S
C182 O204 1.234 . S
C182 O205 1.283 . S
C183 O195 1.281 . S
C183 O196 1.236 . S
C184 O206 1.240 . S
C184 O207 1.264 . S
O185 Mn180 2.095 . S
O185 C194 1.250 . S
O186 Mn181 2.121 . S
O186 C194 1.258 . S
C187 N188 1.326 . S
C187 C191 1.460 . S
C187 H193 0.929 . S
N188 Mn181 2.257 . S
N188 C187 1.326 . S
N188 C192 1.362 . S
C189 C190 1.258 . S
C189 C192 1.431 . S
C189 C209 1.449 . S
C190 C189 1.258 . S
C190 C191 1.477 . S
C190 H210 0.931 . S
C191 C187 1.460 . S
C191 C190 1.477 . S
C191 H211 0.930 . S
C192 N188 1.362 . S
C192 C189 1.431 . S
C192 C202 1.476 . S
H193 C187 0.929 . S
C194 O185 1.250 . S
C194 O186 1.258 . S
O195 Mn180 2.162 . S
O195 C183 1.281 . S
O196 Mn180 2.297 . S
O196 C183 1.236 . S
N197 Mn181 2.282 . S
N197 C198 1.328 . S
N197 C202 1.318 . S
C198 N197 1.328 . S
C198 C199 1.457 . S
C198 H203 0.929 . S
C199 C198 1.457 . S
C199 C200 1.291 . S
C199 H212 0.931 . S
C200 C199 1.291 . S
C200 C201 1.373 . S
C200 H213 0.929 . S
C201 C200 1.373 . S
C201 C202 1.396 . S
C201 C208 1.403 . S
C202 C192 1.476 . S
C202 N197 1.318 . S
C202 C201 1.396 . S
H203 C198 0.929 . S
O204 Mn180 2.385 . S
O204 C182 1.234 . S
O205 Mn180 2.209 . S
O205 Mn181 2.215 . S
O205 C182 1.283 . S
O206 Mn180 2.094 . S
O206 C184 1.240 . S
O207 Mn181 2.117 . S
O207 C184 1.264 . S
C208 C201 1.403 . S
C208 C209 1.399 . S
C208 H214 0.929 . S
C209 C189 1.449 . S
C209 C208 1.399 . S
C209 H215 0.930 . S
H210 C190 0.931 . S
H211 C191 0.930 . S
H212 C199 0.931 . S
H213 C200 0.929 . S
H214 C208 0.929 . S
H215 C209 0.930 . S
Mn216 O221 2.095 . S
Mn216 O231 2.162 . S
Mn216 O232 2.297 . S
Mn216 O240 2.385 . S
Mn216 O241 2.209 . S
Mn216 O242 2.094 . S
Mn217 O222 2.121 . S
Mn217 N224 2.257 . S
Mn217 N233 2.282 . S
Mn217 O241 2.215 . S
Mn217 O243 2.117 . S
C218 O240 1.234 . S
C218 O241 1.283 . S
C219 O231 1.281 . S
C219 O232 1.236 . S
C220 O242 1.240 . S
C220 O243 1.264 . S
O221 Mn216 2.095 . S
O221 C230 1.250 . S
O222 Mn217 2.121 . S
O222 C230 1.258 . S
C223 N224 1.326 . S
C223 C227 1.460 . S
C223 H229 0.929 . S
N224 Mn217 2.257 . S
N224 C223 1.326 . S
N224 C228 1.362 . S
C225 C226 1.258 . S
C225 C228 1.431 . S
C225 C245 1.449 . S
C226 C225 1.258 . S
C226 C227 1.477 . S
C226 H246 0.931 . S
C227 C223 1.460 . S
C227 C226 1.477 . S
C227 H247 0.930 . S
C228 N224 1.362 . S
C228 C225 1.431 . S
C228 C238 1.476 . S
H229 C223 0.929 . S
C230 O221 1.250 . S
C230 O222 1.258 . S
O231 Mn216 2.162 . S
O231 C219 1.281 . S
O232 Mn216 2.297 . S
O232 C219 1.236 . S
N233 Mn217 2.282 . S
N233 C234 1.328 . S
N233 C238 1.318 . S
C234 N233 1.328 . S
C234 C235 1.457 . S
C234 H239 0.929 . S
C235 C234 1.457 . S
C235 C236 1.291 . S
C235 H248 0.931 . S
C236 C235 1.291 . S
C236 C237 1.373 . S
C236 H249 0.929 . S
C237 C236 1.373 . S
C237 C238 1.396 . S
C237 C244 1.403 . S
C238 C228 1.476 . S
C238 N233 1.318 . S
C238 C237 1.396 . S
H239 C234 0.929 . S
O240 Mn216 2.385 . S
O240 C218 1.234 . S
O241 Mn216 2.209 . S
O241 Mn217 2.215 . S
O241 C218 1.283 . S
O242 Mn216 2.094 . S
O242 C220 1.240 . S
O243 Mn217 2.117 . S
O243 C220 1.264 . S
C244 C237 1.403 . S
C244 C245 1.399 . S
C244 H250 0.929 . S
C245 C225 1.449 . S
C245 C244 1.399 . S
C245 H251 0.930 . S
H246 C226 0.931 . S
H247 C227 0.930 . S
H248 C235 0.931 . S
H249 C236 0.929 . S
H250 C244 0.929 . S
H251 C245 0.930 . S
Mn252 O257 2.095 . S
Mn252 O267 2.162 . S
Mn252 O268 2.297 . S
Mn252 O276 2.385 . S
Mn252 O277 2.209 . S
Mn252 O278 2.094 . S
Mn253 O258 2.121 . S
Mn253 N260 2.257 . S
Mn253 N269 2.282 . S
Mn253 O277 2.215 . S
Mn253 O279 2.117 . S
C254 O276 1.234 . S
C254 O277 1.283 . S
C255 O267 1.281 . S
C255 O268 1.236 . S
C256 O278 1.240 . S
C256 O279 1.264 . S
O257 Mn252 2.095 . S
O257 C266 1.250 . S
O258 Mn253 2.121 . S
O258 C266 1.258 . S
C259 N260 1.326 . S
C259 C263 1.460 . S
C259 H265 0.929 . S
N260 Mn253 2.257 . S
N260 C259 1.326 . S
N260 C264 1.362 . S
C261 C262 1.258 . S
C261 C264 1.431 . S
C261 C281 1.449 . S
C262 C261 1.258 . S
C262 C263 1.477 . S
C262 H282 0.931 . S
C263 C259 1.460 . S
C263 C262 1.477 . S
C263 H283 0.930 . S
C264 N260 1.362 . S
C264 C261 1.431 . S
C264 C274 1.476 . S
H265 C259 0.929 . S
C266 O257 1.250 . S
C266 O258 1.258 . S
O267 Mn252 2.162 . S
O267 C255 1.281 . S
O268 Mn252 2.297 . S
O268 C255 1.236 . S
N269 Mn253 2.282 . S
N269 C270 1.328 . S
N269 C274 1.318 . S
C270 N269 1.328 . S
C270 C271 1.457 . S
C270 H275 0.929 . S
C271 C270 1.457 . S
C271 C272 1.291 . S
C271 H284 0.931 . S
C272 C271 1.291 . S
C272 C273 1.373 . S
C272 H285 0.929 . S
C273 C272 1.373 . S
C273 C274 1.396 . S
C273 C280 1.403 . S
C274 C264 1.476 . S
C274 N269 1.318 . S
C274 C273 1.396 . S
H275 C270 0.929 . S
O276 Mn252 2.385 . S
O276 C254 1.234 . S
O277 Mn252 2.209 . S
O277 Mn253 2.215 . S
O277 C254 1.283 . S
O278 Mn252 2.094 . S
O278 C256 1.240 . S
O279 Mn253 2.117 . S
O279 C256 1.264 . S
C280 C273 1.403 . S
C280 C281 1.399 . S
C280 H286 0.929 . S
C281 C261 1.449 . S
C281 C280 1.399 . S
C281 H287 0.930 . S
H282 C262 0.931 . S
H283 C263 0.930 . S
H284 C271 0.931 . S
H285 C272 0.929 . S
H286 C280 0.929 . S
H287 C281 0.930 . S
Mn288 O293 2.095 . S
Mn288 O303 2.162 . S
Mn288 O304 2.297 . S
Mn288 O312 2.385 . S
Mn288 O313 2.209 . S
Mn288 O314 2.094 . S
Mn289 O294 2.121 . S
Mn289 N296 2.257 . S
Mn289 N305 2.282 . S
Mn289 O313 2.215 . S
Mn289 O315 2.117 . S
C290 O312 1.234 . S
C290 O313 1.283 . S
C291 O303 1.281 . S
C291 O304 1.236 . S
C292 O314 1.240 . S
C292 O315 1.264 . S
O293 Mn288 2.095 . S
O293 C302 1.250 . S
O294 Mn289 2.121 . S
O294 C302 1.258 . S
C295 N296 1.326 . S
C295 C299 1.460 . S
C295 H301 0.929 . S
N296 Mn289 2.257 . S
N296 C295 1.326 . S
N296 C300 1.362 . S
C297 C298 1.258 . S
C297 C300 1.431 . S
C297 C317 1.449 . S
C298 C297 1.258 . S
C298 C299 1.477 . S
C298 H318 0.931 . S
C299 C295 1.460 . S
C299 C298 1.477 . S
C299 H319 0.930 . S
C300 N296 1.362 . S
C300 C297 1.431 . S
C300 C310 1.476 . S
H301 C295 0.929 . S
C302 O293 1.250 . S
C302 O294 1.258 . S
O303 Mn288 2.162 . S
O303 C291 1.281 . S
O304 Mn288 2.297 . S
O304 C291 1.236 . S
N305 Mn289 2.282 . S
N305 C306 1.328 . S
N305 C310 1.318 . S
C306 N305 1.328 . S
C306 C307 1.457 . S
C306 H311 0.929 . S
C307 C306 1.457 . S
C307 C308 1.291 . S
C307 H320 0.931 . S
C308 C307 1.291 . S
C308 C309 1.373 . S
C308 H321 0.929 . S
C309 C308 1.373 . S
C309 C310 1.396 . S
C309 C316 1.403 . S
C310 C300 1.476 . S
C310 N305 1.318 . S
C310 C309 1.396 . S
H311 C306 0.929 . S
O312 Mn288 2.385 . S
O312 C290 1.234 . S
O313 Mn288 2.209 . S
O313 Mn289 2.215 . S
O313 C290 1.283 . S
O314 Mn288 2.094 . S
O314 C292 1.240 . S
O315 Mn289 2.117 . S
O315 C292 1.264 . S
C316 C309 1.403 . S
C316 C317 1.399 . S
C316 H322 0.929 . S
C317 C297 1.449 . S
C317 C316 1.399 . S
C317 H323 0.930 . S
H318 C298 0.931 . S
H319 C299 0.930 . S
H320 C307 0.931 . S
H321 C308 0.929 . S
H322 C316 0.929 . S
H323 C317 0.930 . S
Mn324 O329 2.095 . S
Mn324 O339 2.162 . S
Mn324 O340 2.297 . S
Mn324 O348 2.385 . S
Mn324 O349 2.209 . S
Mn324 O350 2.094 . S
Mn325 O330 2.121 . S
Mn325 N332 2.257 . S
Mn325 N341 2.282 . S
Mn325 O349 2.215 . S
Mn325 O351 2.117 . S
C326 O348 1.234 . S
C326 O349 1.283 . S
C327 O339 1.281 . S
C327 O340 1.236 . S
C328 O350 1.240 . S
C328 O351 1.264 . S
O329 Mn324 2.095 . S
O329 C338 1.250 . S
O330 Mn325 2.121 . S
O330 C338 1.258 . S
C331 N332 1.326 . S
C331 C335 1.460 . S
C331 H337 0.929 . S
N332 Mn325 2.257 . S
N332 C331 1.326 . S
N332 C336 1.362 . S
C333 C334 1.258 . S
C333 C336 1.431 . S
C333 C353 1.449 . S
C334 C333 1.258 . S
C334 C335 1.477 . S
C334 H354 0.931 . S
C335 C331 1.460 . S
C335 C334 1.477 . S
C335 H355 0.930 . S
C336 N332 1.362 . S
C336 C333 1.431 . S
C336 C346 1.476 . S
H337 C331 0.929 . S
C338 O329 1.250 . S
C338 O330 1.258 . S
O339 Mn324 2.162 . S
O339 C327 1.281 . S
O340 Mn324 2.297 . S
O340 C327 1.236 . S
N341 Mn325 2.282 . S
N341 C342 1.328 . S
N341 C346 1.318 . S
C342 N341 1.328 . S
C342 C343 1.457 . S
C342 H347 0.929 . S
C343 C342 1.457 . S
C343 C344 1.291 . S
C343 H356 0.931 . S
C344 C343 1.291 . S
C344 C345 1.373 . S
C344 H357 0.929 . S
C345 C344 1.373 . S
C345 C346 1.396 . S
C345 C352 1.403 . S
C346 C336 1.476 . S
C346 N341 1.318 . S
C346 C345 1.396 . S
H347 C342 0.929 . S
O348 Mn324 2.385 . S
O348 C326 1.234 . S
O349 Mn324 2.209 . S
O349 Mn325 2.215 . S
O349 C326 1.283 . S
O350 Mn324 2.094 . S
O350 C328 1.240 . S
O351 Mn325 2.117 . S
O351 C328 1.264 . S
C352 C345 1.403 . S
C352 C353 1.399 . S
C352 H358 0.929 . S
C353 C333 1.449 . S
C353 C352 1.399 . S
C353 H359 0.930 . S
H354 C334 0.931 . S
H355 C335 0.930 . S
H356 C343 0.931 . S
H357 C344 0.929 . S
H358 C352 0.929 . S
H359 C353 0.930 . S
Mn360 O365 2.095 . S
Mn360 O375 2.162 . S
Mn360 O376 2.297 . S
Mn360 O384 2.385 1_554 S
Mn360 O385 2.209 1_554 S
Mn360 O386 2.094 . S
Mn361 O366 2.121 . S
Mn361 N368 2.257 . S
Mn361 N377 2.282 . S
Mn361 O385 2.215 . S
Mn361 O387 2.117 . S
C362 O384 1.234 . S
C362 O385 1.283 . S
C363 O375 1.281 . S
C363 O376 1.236 . S
C364 O386 1.240 1_556 S
C364 O387 1.264 . S
O365 Mn360 2.095 . S
O365 C374 1.250 1_554 S
O366 Mn361 2.121 . S
O366 C374 1.258 . S
C367 N368 1.326 . S
C367 C371 1.460 . S
C367 H373 0.929 . S
N368 Mn361 2.257 . S
N368 C367 1.326 . S
N368 C372 1.362 . S
C369 C370 1.258 . S
C369 C372 1.431 . S
C369 C389 1.449 . S
C370 C369 1.258 . S
C370 C371 1.477 . S
C370 H390 0.931 . S
C371 C367 1.460 . S
C371 C370 1.477 . S
C371 H391 0.930 . S
C372 N368 1.362 . S
C372 C369 1.431 . S
C372 C382 1.476 . S
H373 C367 0.929 . S
C374 O365 1.250 1_556 S
C374 O366 1.258 . S
O375 Mn360 2.162 . S
O375 C363 1.281 . S
O376 Mn360 2.297 . S
O376 C363 1.236 . S
N377 Mn361 2.282 . S
N377 C378 1.328 . S
N377 C382 1.318 . S
C378 N377 1.328 . S
C378 C379 1.457 . S
C378 H383 0.929 . S
C379 C378 1.457 . S
C379 C380 1.291 . S
C379 H392 0.931 . S
C380 C379 1.291 . S
C380 C381 1.373 . S
C380 H393 0.929 . S
C381 C380 1.373 . S
C381 C382 1.396 . S
C381 C388 1.403 . S
C382 C372 1.476 . S
C382 N377 1.318 . S
C382 C381 1.396 . S
H383 C378 0.929 . S
O384 Mn360 2.385 1_556 S
O384 C362 1.234 . S
O385 Mn360 2.209 1_556 S
O385 Mn361 2.215 . S
O385 C362 1.283 . S
O386 Mn360 2.094 . S
O386 C364 1.240 1_554 S
O387 Mn361 2.117 . S
O387 C364 1.264 . S
C388 C381 1.403 . S
C388 C389 1.399 . S
C388 H394 0.929 . S
C389 C369 1.449 . S
C389 C388 1.399 . S
C389 H395 0.930 . S
H390 C370 0.931 . S
H391 C371 0.930 . S
H392 C379 0.931 . S
H393 C380 0.929 . S
H394 C388 0.929 . S
H395 C389 0.930 . S
Mn396 O401 2.095 . S
Mn396 O411 2.162 . S
Mn396 O412 2.297 . S
Mn396 O420 2.385 . S
Mn396 O421 2.209 . S
Mn396 O422 2.094 . S
Mn397 O402 2.121 . S
Mn397 N404 2.257 . S
Mn397 N413 2.282 . S
Mn397 O421 2.215 . S
Mn397 O423 2.117 . S
C398 O420 1.234 . S
C398 O421 1.283 . S
C399 O411 1.281 . S
C399 O412 1.236 . S
C400 O422 1.240 . S
C400 O423 1.264 . S
O401 Mn396 2.095 . S
O401 C410 1.250 . S
O402 Mn397 2.121 . S
O402 C410 1.258 . S
C403 N404 1.326 . S
C403 C407 1.460 . S
C403 H409 0.929 . S
N404 Mn397 2.257 . S
N404 C403 1.326 . S
N404 C408 1.362 . S
C405 C406 1.258 . S
C405 C408 1.431 . S
C405 C425 1.449 . S
C406 C405 1.258 . S
C406 C407 1.477 . S
C406 H426 0.931 . S
C407 C403 1.460 . S
C407 C406 1.477 . S
C407 H427 0.930 . S
C408 N404 1.362 . S
C408 C405 1.431 . S
C408 C418 1.476 . S
H409 C403 0.929 . S
C410 O401 1.250 . S
C410 O402 1.258 . S
O411 Mn396 2.162 . S
O411 C399 1.281 . S
O412 Mn396 2.297 . S
O412 C399 1.236 . S
N413 Mn397 2.282 . S
N413 C414 1.328 . S
N413 C418 1.318 . S
C414 N413 1.328 . S
C414 C415 1.457 . S
C414 H419 0.929 . S
C415 C414 1.457 . S
C415 C416 1.291 . S
C415 H428 0.931 . S
C416 C415 1.291 . S
C416 C417 1.373 . S
C416 H429 0.929 . S
C417 C416 1.373 . S
C417 C418 1.396 . S
C417 C424 1.403 . S
C418 C408 1.476 . S
C418 N413 1.318 . S
C418 C417 1.396 . S
H419 C414 0.929 . S
O420 Mn396 2.385 . S
O420 C398 1.234 . S
O421 Mn396 2.209 . S
O421 Mn397 2.215 . S
O421 C398 1.283 . S
O422 Mn396 2.094 . S
O422 C400 1.240 . S
O423 Mn397 2.117 . S
O423 C400 1.264 . S
C424 C417 1.403 . S
C424 C425 1.399 . S
C424 H430 0.929 . S
C425 C405 1.449 . S
C425 C424 1.399 . S
C425 H431 0.930 . S
H426 C406 0.931 . S
H427 C407 0.930 . S
H428 C415 0.931 . S
H429 C416 0.929 . S
H430 C424 0.929 . S
H431 C425 0.930 . S
Mn432 O437 2.095 . S
Mn432 O447 2.162 . S
Mn432 O448 2.297 . S
Mn432 O456 2.385 . S
Mn432 O457 2.209 . S
Mn432 O458 2.094 . S
Mn433 O438 2.121 . S
Mn433 N440 2.257 . S
Mn433 N449 2.282 . S
Mn433 O457 2.215 . S
Mn433 O459 2.117 . S
C434 O456 1.234 . S
C434 O457 1.283 . S
C435 O447 1.281 . S
C435 O448 1.236 . S
C436 O458 1.240 . S
C436 O459 1.264 . S
O437 Mn432 2.095 . S
O437 C446 1.250 . S
O438 Mn433 2.121 . S
O438 C446 1.258 . S
C439 N440 1.326 . S
C439 C443 1.460 . S
C439 H445 0.929 . S
N440 Mn433 2.257 . S
N440 C439 1.326 . S
N440 C444 1.362 . S
C441 C442 1.258 . S
C441 C444 1.431 . S
C441 C461 1.449 . S
C442 C441 1.258 . S
C442 C443 1.477 . S
C442 H462 0.931 . S
C443 C439 1.460 . S
C443 C442 1.477 . S
C443 H463 0.930 . S
C444 N440 1.362 . S
C444 C441 1.431 . S
C444 C454 1.476 . S
H445 C439 0.929 . S
C446 O437 1.250 . S
C446 O438 1.258 . S
O447 Mn432 2.162 . S
O447 C435 1.281 . S
O448 Mn432 2.297 . S
O448 C435 1.236 . S
N449 Mn433 2.282 . S
N449 C450 1.328 . S
N449 C454 1.318 . S
C450 N449 1.328 . S
C450 C451 1.457 . S
C450 H455 0.929 . S
C451 C450 1.457 . S
C451 C452 1.291 . S
C451 H464 0.931 . S
C452 C451 1.291 . S
C452 C453 1.373 . S
C452 H465 0.929 . S
C453 C452 1.373 . S
C453 C454 1.396 . S
C453 C460 1.403 . S
C454 C444 1.476 . S
C454 N449 1.318 . S
C454 C453 1.396 . S
H455 C450 0.929 . S
O456 Mn432 2.385 . S
O456 C434 1.234 . S
O457 Mn432 2.209 . S
O457 Mn433 2.215 . S
O457 C434 1.283 . S
O458 Mn432 2.094 . S
O458 C436 1.240 . S
O459 Mn433 2.117 . S
O459 C436 1.264 . S
C460 C453 1.403 . S
C460 C461 1.399 . S
C460 H466 0.929 . S
C461 C441 1.449 . S
C461 C460 1.399 . S
C461 H467 0.930 . S
H462 C442 0.931 . S
H463 C443 0.930 . S
H464 C451 0.931 . S
H465 C452 0.929 . S
H466 C460 0.929 . S
H467 C461 0.930 . S
Mn468 O473 2.095 . S
Mn468 O483 2.162 . S
Mn468 O484 2.297 . S
Mn468 O492 2.385 . S
Mn468 O493 2.209 . S
Mn468 O494 2.094 . S
Mn469 O474 2.121 . S
Mn469 N476 2.257 . S
Mn469 N485 2.282 . S
Mn469 O493 2.215 . S
Mn469 O495 2.117 . S
C470 O492 1.234 . S
C470 O493 1.283 . S
C471 O483 1.281 . S
C471 O484 1.236 . S
C472 O494 1.240 . S
C472 O495 1.264 . S
O473 Mn468 2.095 . S
O473 C482 1.250 . S
O474 Mn469 2.121 . S
O474 C482 1.258 . S
C475 N476 1.326 1_655 S
C475 C479 1.460 . S
C475 H481 0.929 . S
N476 Mn469 2.257 . S
N476 C475 1.326 1_455 S
N476 C480 1.362 . S
C477 C478 1.258 1_455 S
C477 C480 1.431 . S
C477 C497 1.449 1_554 S
C478 C477 1.258 1_655 S
C478 C479 1.477 . S
C478 H498 0.931 1_554 S
C479 C475 1.460 . S
C479 C478 1.477 . S
C479 H499 0.930 . S
C480 N476 1.362 . S
C480 C477 1.431 . S
C480 C490 1.476 . S
H481 C475 0.929 . S
C482 O473 1.250 . S
C482 O474 1.258 . S
O483 Mn468 2.162 . S
O483 C471 1.281 . S
O484 Mn468 2.297 . S
O484 C471 1.236 . S
N485 Mn469 2.282 . S
N485 C486 1.328 . S
N485 C490 1.318 . S
C486 N485 1.328 . S
C486 C487 1.457 . S
C486 H491 0.929 . S
C487 C486 1.457 . S
C487 C488 1.291 . S
C487 H500 0.931 . S
C488 C487 1.291 . S
C488 C489 1.373 . S
C488 H501 0.929 . S
C489 C488 1.373 . S
C489 C490 1.396 . S
C489 C496 1.403 1_554 S
C490 C480 1.476 . S
C490 N485 1.318 . S
C490 C489 1.396 . S
H491 C486 0.929 . S
O492 Mn468 2.385 . S
O492 C470 1.234 . S
O493 Mn468 2.209 . S
O493 Mn469 2.215 . S
O493 C470 1.283 . S
O494 Mn468 2.094 . S
O494 C472 1.240 . S
O495 Mn469 2.117 . S
O495 C472 1.264 . S
C496 C489 1.403 1_556 S
C496 C497 1.399 . S
C496 H502 0.929 . S
C497 C477 1.449 1_556 S
C497 C496 1.399 . S
C497 H503 0.930 . S
H498 C478 0.931 1_556 S
H499 C479 0.930 . S
H500 C487 0.931 . S
H501 C488 0.929 . S
H502 C496 0.929 . S
H503 C497 0.930 . S
Mn504 O509 2.095 . S
Mn504 O519 2.162 . S
Mn504 O520 2.297 . S
Mn504 O528 2.385 . S
Mn504 O529 2.209 . S
Mn504 O530 2.094 . S
Mn505 O510 2.121 . S
Mn505 N512 2.257 . S
Mn505 N521 2.282 . S
Mn505 O529 2.215 . S
Mn505 O531 2.117 . S
C506 O528 1.234 . S
C506 O529 1.283 . S
C507 O519 1.281 . S
C507 O520 1.236 . S
C508 O530 1.240 . S
C508 O531 1.264 . S
O509 Mn504 2.095 . S
O509 C518 1.250 . S
O510 Mn505 2.121 . S
O510 C518 1.258 . S
C511 N512 1.326 . S
C511 C515 1.460 . S
C511 H517 0.929 . S
N512 Mn505 2.257 . S
N512 C511 1.326 . S
N512 C516 1.362 . S
C513 C514 1.258 . S
C513 C516 1.431 . S
C513 C533 1.449 . S
C514 C513 1.258 . S
C514 C515 1.477 . S
C514 H534 0.931 . S
C515 C511 1.460 . S
C515 C514 1.477 . S
C515 H535 0.930 . S
C516 N512 1.362 . S
C516 C513 1.431 . S
C516 C526 1.476 . S
H517 C511 0.929 . S
C518 O509 1.250 . S
C518 O510 1.258 . S
O519 Mn504 2.162 . S
O519 C507 1.281 . S
O520 Mn504 2.297 . S
O520 C507 1.236 . S
N521 Mn505 2.282 . S
N521 C522 1.328 . S
N521 C526 1.318 . S
C522 N521 1.328 . S
C522 C523 1.457 . S
C522 H527 0.929 . S
C523 C522 1.457 . S
C523 C524 1.291 . S
C523 H536 0.931 . S
C524 C523 1.291 . S
C524 C525 1.373 . S
C524 H537 0.929 . S
C525 C524 1.373 . S
C525 C526 1.396 . S
C525 C532 1.403 . S
C526 C516 1.476 . S
C526 N521 1.318 . S
C526 C525 1.396 . S
H527 C522 0.929 . S
O528 Mn504 2.385 . S
O528 C506 1.234 . S
O529 Mn504 2.209 . S
O529 Mn505 2.215 . S
O529 C506 1.283 . S
O530 Mn504 2.094 . S
O530 C508 1.240 . S
O531 Mn505 2.117 . S
O531 C508 1.264 . S
C532 C525 1.403 . S
C532 C533 1.399 . S
C532 H538 0.929 . S
C533 C513 1.449 . S
C533 C532 1.399 . S
C533 H539 0.930 . S
H534 C514 0.931 . S
H535 C515 0.930 . S
H536 C523 0.931 . S
H537 C524 0.929 . S
H538 C532 0.929 . S
H539 C533 0.930 . S
Mn540 O545 2.095 . S
Mn540 O555 2.162 . S
Mn540 O556 2.297 . S
Mn540 O564 2.385 . S
Mn540 O565 2.209 . S
Mn540 O566 2.094 . S
Mn541 O546 2.121 . S
Mn541 N548 2.257 1_556 S
Mn541 N557 2.282 1_556 S
Mn541 O565 2.215 . S
Mn541 O567 2.117 . S
C542 O564 1.234 . S
C542 O565 1.283 . S
C543 O555 1.281 . S
C543 O556 1.236 . S
C544 O566 1.240 . S
C544 O567 1.264 . S
O545 Mn540 2.095 . S
O545 C554 1.250 . S
O546 Mn541 2.121 . S
O546 C554 1.258 . S
C547 N548 1.326 1_655 S
C547 C551 1.460 . S
C547 H553 0.929 1_554 S
N548 Mn541 2.257 1_554 S
N548 C547 1.326 1_455 S
N548 C552 1.362 . S
C549 C550 1.258 1_455 S
C549 C552 1.431 . S
C549 C569 1.449 . S
C550 C549 1.258 1_655 S
C550 C551 1.477 . S
C550 H570 0.931 . S
C551 C547 1.460 . S
C551 C550 1.477 . S
C551 H571 0.930 . S
C552 N548 1.362 . S
C552 C549 1.431 . S
C552 C562 1.476 . S
H553 C547 0.929 1_556 S
C554 O545 1.250 . S
C554 O546 1.258 . S
O555 Mn540 2.162 . S
O555 C543 1.281 . S
O556 Mn540 2.297 . S
O556 C543 1.236 . S
N557 Mn541 2.282 1_554 S
N557 C558 1.328 . S
N557 C562 1.318 . S
C558 N557 1.328 . S
C558 C559 1.457 . S
C558 H563 0.929 1_554 S
C559 C558 1.457 . S
C559 C560 1.291 . S
C559 H572 0.931 . S
C560 C559 1.291 . S
C560 C561 1.373 . S
C560 H573 0.929 . S
C561 C560 1.373 . S
C561 C562 1.396 . S
C561 C568 1.403 . S
C562 C552 1.476 . S
C562 N557 1.318 . S
C562 C561 1.396 . S
H563 C558 0.929 1_556 S
O564 Mn540 2.385 . S
O564 C542 1.234 . S
O565 Mn540 2.209 . S
O565 Mn541 2.215 . S
O565 C542 1.283 . S
O566 Mn540 2.094 . S
O566 C544 1.240 . S
O567 Mn541 2.117 . S
O567 C544 1.264 . S
C568 C561 1.403 . S
C568 C569 1.399 . S
C568 H574 0.929 . S
C569 C549 1.449 . S
C569 C568 1.399 . S
C569 H575 0.930 . S
H570 C550 0.931 . S
H571 C551 0.930 . S
H572 C559 0.931 . S
H573 C560 0.929 . S
H574 C568 0.929 . S
H575 C569 0.930 . S
C576 C577 1.349 . S
C576 C578 1.327 . S
C576 H601 0.950 . S
C577 C576 1.349 . S
C577 C593 1.349 . S
C578 C576 1.327 . S
C578 C597 1.429 . S
C578 H602 0.950 . S
C579 C596 1.574 . S
C579 C598 1.368 . S
C579 H603 0.949 . S
H580 C584 0.949 . S
C581 C582 1.349 . S
C581 C583 1.327 . S
C581 H604 0.950 . S
C582 C581 1.349 . S
C582 C594 1.349 . S
C583 C581 1.327 . S
C583 C599 1.429 . S
C583 H605 0.950 . S
C584 H580 0.949 . S
C584 C592 1.574 . S
C584 C600 1.368 . S
H585 C593 0.950 . S
H586 C591 0.950 . S
H587 C592 0.949 . S
H588 C594 0.950 . S
H589 C595 0.950 . S
H590 C596 0.949 . S
C591 H586 0.950 . S
C591 C593 1.327 . S
C591 C597 1.429 . S
C592 C584 1.574 . S
C592 H587 0.949 . S
C592 C598 1.368 . S
C593 C577 1.349 . S
C593 H585 0.950 . S
C593 C591 1.327 . S
C594 C582 1.349 . S
C594 H588 0.950 . S
C594 C595 1.327 . S
C595 H589 0.950 . S
C595 C594 1.327 . S
C595 C599 1.429 . S
C596 C579 1.574 . S
C596 H590 0.949 . S
C596 C600 1.368 . S
C597 C578 1.429 . S
C597 C591 1.429 . S
C597 C598 1.523 . S
C598 C579 1.368 . S
C598 C592 1.368 . S
C598 C597 1.523 . S
C599 C583 1.429 . S
C599 C595 1.429 . S
C599 C600 1.523 . S
C600 C584 1.368 . S
C600 C596 1.368 . S
C600 C599 1.523 . S
H601 C576 0.950 . S
H602 C578 0.950 . S
H603 C579 0.949 . S
H604 C581 0.950 . S
H605 C583 0.950 . S
C606 C607 1.349 . S
C606 C608 1.327 . S
C606 H631 0.950 . S
C607 C606 1.349 . S
C607 C623 1.349 . S
C608 C606 1.327 . S
C608 C627 1.429 . S
C608 H632 0.950 . S
C609 C626 1.574 . S
C609 C628 1.368 . S
C609 H633 0.949 . S
H610 C614 0.949 . S
C611 C612 1.349 . S
C611 C613 1.327 . S
C611 H634 0.950 . S
C612 C611 1.349 . S
C612 C624 1.349 . S
C613 C611 1.327 . S
C613 C629 1.429 . S
C613 H635 0.950 . S
C614 H610 0.949 . S
C614 C622 1.574 . S
C614 C630 1.368 . S
H615 C623 0.950 . S
H616 C621 0.950 . S
H617 C622 0.949 . S
H618 C624 0.950 . S
H619 C625 0.950 . S
H620 C626 0.949 . S
C621 H616 0.950 . S
C621 C623 1.327 . S
C621 C627 1.429 . S
C622 C614 1.574 . S
C622 H617 0.949 . S
C622 C628 1.368 . S
C623 C607 1.349 . S
C623 H615 0.950 . S
C623 C621 1.327 . S
C624 C612 1.349 . S
C624 H618 0.950 . S
C624 C625 1.327 . S
C625 H619 0.950 . S
C625 C624 1.327 . S
C625 C629 1.429 . S
C626 C609 1.574 . S
C626 H620 0.949 . S
C626 C630 1.368 . S
C627 C608 1.429 . S
C627 C621 1.429 . S
C627 C628 1.523 . S
C628 C609 1.368 . S
C628 C622 1.368 . S
C628 C627 1.523 . S
C629 C613 1.429 . S
C629 C625 1.429 . S
C629 C630 1.523 . S
C630 C614 1.368 . S
C630 C626 1.368 . S
C630 C629 1.523 . S
H631 C606 0.950 . S
H632 C608 0.950 . S
H633 C609 0.949 . S
H634 C611 0.950 . S
H635 C613 0.950 . S
C636 C637 1.349 . S
C636 C638 1.327 . S
C636 H661 0.950 . S
C637 C636 1.349 . S
C637 C653 1.349 . S
C638 C636 1.327 . S
C638 C657 1.429 . S
C638 H662 0.950 . S
C639 C656 1.574 . S
C639 C658 1.368 . S
C639 H663 0.949 . S
H640 C644 0.949 . S
C641 C642 1.349 . S
C641 C643 1.327 . S
C641 H664 0.950 . S
C642 C641 1.349 . S
C642 C654 1.349 . S
C643 C641 1.327 . S
C643 C659 1.429 . S
C643 H665 0.950 . S
C644 H640 0.949 . S
C644 C652 1.574 . S
C644 C660 1.368 . S
H645 C653 0.950 . S
H646 C651 0.950 . S
H647 C652 0.949 . S
H648 C654 0.950 . S
H649 C655 0.950 . S
H650 C656 0.949 . S
C651 H646 0.950 . S
C651 C653 1.327 . S
C651 C657 1.429 . S
C652 C644 1.574 . S
C652 H647 0.949 . S
C652 C658 1.368 . S
C653 C637 1.349 . S
C653 H645 0.950 . S
C653 C651 1.327 . S
C654 C642 1.349 . S
C654 H648 0.950 . S
C654 C655 1.327 . S
C655 H649 0.950 . S
C655 C654 1.327 . S
C655 C659 1.429 . S
C656 C639 1.574 . S
C656 H650 0.949 . S
C656 C660 1.368 . S
C657 C638 1.429 . S
C657 C651 1.429 . S
C657 C658 1.523 . S
C658 C639 1.368 . S
C658 C652 1.368 . S
C658 C657 1.523 . S
C659 C643 1.429 . S
C659 C655 1.429 . S
C659 C660 1.523 . S
C660 C644 1.368 . S
C660 C656 1.368 . S
C660 C659 1.523 . S
H661 C636 0.950 . S
H662 C638 0.950 . S
H663 C639 0.949 . S
H664 C641 0.950 . S
H665 C643 0.950 . S
C666 C667 1.358 . S
C666 C668 1.327 . S
C666 H691 0.950 . S
C667 C666 1.358 . S
C667 C683 1.333 1_554 S
C668 C666 1.327 . S
C668 C687 1.429 1_554 S
C668 H692 0.950 . S
C669 C686 1.574 . S
C669 C688 1.368 . S
C669 H693 0.949 . S
H670 C674 0.949 . S
C671 C672 1.349 . S
C671 C673 1.327 . S
C671 H694 0.950 1_655 S
C672 C671 1.349 . S
C672 C684 1.349 . S
C673 C671 1.327 . S
C673 C689 1.429 . S
C673 H695 0.950 . S
C674 H670 0.949 . S
C674 C682 1.574 . S
C674 C690 1.368 . S
H675 C683 0.950 . S
H676 C681 0.950 . S
H677 C682 0.949 . S
H678 C684 0.950 . S
H679 C685 0.950 . S
H680 C686 0.949 . S
C681 H676 0.950 . S
C681 C683 1.327 . S
C681 C687 1.429 . S
C682 C674 1.574 . S
C682 H677 0.949 . S
C682 C688 1.368 . S
C683 C667 1.333 1_556 S
C683 H675 0.950 . S
C683 C681 1.327 . S
C684 C672 1.349 . S
C684 H678 0.950 . S
C684 C685 1.327 . S
C685 H679 0.950 . S
C685 C684 1.327 . S
C685 C689 1.429 . S
C686 C669 1.574 . S
C686 H680 0.949 . S
C686 C690 1.368 . S
C687 C668 1.429 1_556 S
C687 C681 1.429 . S
C687 C688 1.523 . S
C688 C669 1.368 . S
C688 C682 1.368 . S
C688 C687 1.523 . S
C689 C673 1.429 . S
C689 C685 1.429 . S
C689 C690 1.523 . S
C690 C674 1.368 . S
C690 C686 1.368 . S
C690 C689 1.523 . S
H691 C666 0.950 . S
H692 C668 0.950 . S
H693 C669 0.949 . S
H694 C671 0.950 1_455 S
H695 C673 0.950 . S
C696 C697 1.349 . S
C696 C698 1.327 . S
C696 H721 0.950 . S
C697 C696 1.349 . S
C697 C713 1.349 . S
C698 C696 1.327 . S
C698 C717 1.429 . S
C698 H722 0.950 . S
C699 C716 1.574 . S
C699 C718 1.368 . S
C699 H723 0.949 . S
H700 C704 0.949 . S
C701 C702 1.341 1_556 S
C701 C703 1.327 . S
C701 H724 0.950 . S
C702 C701 1.341 1_554 S
C702 C714 1.349 . S
C703 C701 1.327 . S
C703 C719 1.429 . S
C703 H725 0.950 . S
C704 H700 0.949 . S
C704 C712 1.574 . S
C704 C720 1.368 . S
H705 C713 0.950 . S
H706 C711 0.950 . S
H707 C712 0.949 . S
H708 C714 0.950 . S
H709 C715 0.950 . S
H710 C716 0.949 . S
C711 H706 0.950 . S
C711 C713 1.327 . S
C711 C717 1.429 . S
C712 C704 1.574 . S
C712 H707 0.949 . S
C712 C718 1.368 . S
C713 C697 1.349 . S
C713 H705 0.950 . S
C713 C711 1.327 . S
C714 C702 1.349 . S
C714 H708 0.950 . S
C714 C715 1.327 1_554 S
C715 H709 0.950 . S
C715 C714 1.327 1_556 S
C715 C719 1.429 . S
C716 C699 1.574 . S
C716 H710 0.949 . S
C716 C720 1.368 . S
C717 C698 1.429 . S
C717 C711 1.429 . S
C717 C718 1.523 . S
C718 C699 1.368 . S
C718 C712 1.368 . S
C718 C717 1.523 . S
C719 C703 1.429 . S
C719 C715 1.429 . S
C719 C720 1.523 . S
C720 C704 1.368 . S
C720 C716 1.368 . S
C720 C719 1.523 . S
H721 C696 0.950 . S
H722 C698 0.950 . S
H723 C699 0.949 . S
H724 C701 0.950 . S
H725 C703 0.950 . S
C726 C727 1.349 1_455 S
C726 C728 1.327 1_455 S
C726 H751 0.950 . S
C727 C726 1.349 1_655 S
C727 C743 1.349 . S
C728 C726 1.327 1_655 S
C728 C747 1.429 . S
C728 H752 0.950 . S
C729 C746 1.574 . S
C729 C748 1.368 . S
C729 H753 0.949 . S
H730 C734 0.949 . S
C731 C732 1.349 . S
C731 C733 1.327 . S
C731 H754 0.950 . S
C732 C731 1.349 . S
C732 C744 1.349 . S
C733 C731 1.327 . S
C733 C749 1.429 . S
C733 H755 0.950 . S
C734 H730 0.949 . S
C734 C742 1.574 . S
C734 C750 1.368 . S
H735 C743 0.950 . S
H736 C741 0.950 . S
H737 C742 0.949 . S
H738 C744 0.950 . S
H739 C745 0.950 . S
H740 C746 0.949 . S
C741 H736 0.950 . S
C741 C743 1.327 . S
C741 C747 1.429 . S
C742 C734 1.574 . S
C742 H737 0.949 . S
C742 C748 1.368 . S
C743 C727 1.349 . S
C743 H735 0.950 . S
C743 C741 1.327 . S
C744 C732 1.349 . S
C744 H738 0.950 . S
C744 C745 1.327 . S
C745 H739 0.950 . S
C745 C744 1.327 . S
C745 C749 1.429 . S
C746 C729 1.574 . S
C746 H740 0.949 . S
C746 C750 1.368 . S
C747 C728 1.429 . S
C747 C741 1.429 . S
C747 C748 1.523 . S
C748 C729 1.368 . S
C748 C742 1.368 . S
C748 C747 1.523 . S
C749 C733 1.429 . S
C749 C745 1.429 . S
C749 C750 1.523 . S
C750 C734 1.368 . S
C750 C746 1.368 . S
C750 C749 1.523 . S
H751 C726 0.950 . S
H752 C728 0.950 . S
H753 C729 0.949 . S
H754 C731 0.950 . S
H755 C733 0.950 . S
C756 C757 1.349 . S
C756 C758 1.327 . S
C756 H781 0.950 . S
C757 C756 1.349 . S
C757 C773 1.349 . S
C758 C756 1.327 . S
C758 C777 1.429 . S
C758 H782 0.950 . S
C759 C776 1.574 . S
C759 C778 1.368 . S
C759 H783 0.949 . S
H760 C764 0.949 . S
C761 C762 1.349 . S
C761 C763 1.327 . S
C761 H784 0.950 . S
C762 C761 1.349 . S
C762 C774 1.349 . S
C763 C761 1.327 . S
C763 C779 1.429 . S
C763 H785 0.950 . S
C764 H760 0.949 . S
C764 C772 1.574 . S
C764 C780 1.368 . S
H765 C773 0.950 . S
H766 C771 0.950 . S
H767 C772 0.949 . S
H768 C774 0.950 . S
H769 C775 0.950 . S
H770 C776 0.949 . S
C771 H766 0.950 . S
C771 C773 1.327 . S
C771 C777 1.429 . S
C772 C764 1.574 . S
C772 H767 0.949 . S
C772 C778 1.368 . S
C773 C757 1.349 . S
C773 H765 0.950 . S
C773 C771 1.327 . S
C774 C762 1.349 . S
C774 H768 0.950 . S
C774 C775 1.327 . S
C775 H769 0.950 . S
C775 C774 1.327 . S
C775 C779 1.429 . S
C776 C759 1.574 . S
C776 H770 0.949 . S
C776 C780 1.368 . S
C777 C758 1.429 . S
C777 C771 1.429 . S
C777 C778 1.523 . S
C778 C759 1.368 . S
C778 C772 1.368 . S
C778 C777 1.523 . S
C779 C763 1.429 . S
C779 C775 1.429 . S
C779 C780 1.523 . S
C780 C764 1.368 . S
C780 C776 1.368 . S
C780 C779 1.523 . S
H781 C756 0.950 . S
H782 C758 0.950 . S
H783 C759 0.949 . S
H784 C761 0.950 . S
H785 C763 0.950 . S
C786 C787 1.349 . S
C786 C788 1.327 . S
C786 H811 0.950 . S
C787 C786 1.349 . S
C787 C803 1.349 . S
C788 C786 1.327 . S
C788 C807 1.429 . S
C788 H812 0.950 . S
C789 C806 1.574 . S
C789 C808 1.368 . S
C789 H813 0.949 . S
H790 C794 0.949 . S
C791 C792 1.349 . S
C791 C793 1.327 . S
C791 H814 0.950 . S
C792 C791 1.349 . S
C792 C804 1.349 . S
C793 C791 1.327 . S
C793 C809 1.429 . S
C793 H815 0.950 . S
C794 H790 0.949 . S
C794 C802 1.574 . S
C794 C810 1.368 . S
H795 C803 0.950 . S
H796 C801 0.950 . S
H797 C802 0.949 . S
H798 C804 0.950 . S
H799 C805 0.950 . S
H800 C806 0.949 . S
C801 H796 0.950 . S
C801 C803 1.327 . S
C801 C807 1.429 . S
C802 C794 1.574 . S
C802 H797 0.949 . S
C802 C808 1.368 . S
C803 C787 1.349 . S
C803 H795 0.950 . S
C803 C801 1.327 . S
C804 C792 1.349 . S
C804 H798 0.950 . S
C804 C805 1.327 . S
C805 H799 0.950 . S
C805 C804 1.327 . S
C805 C809 1.429 . S
C806 C789 1.574 . S
C806 H800 0.949 . S
C806 C810 1.368 . S
C807 C788 1.429 . S
C807 C801 1.429 . S
C807 C808 1.523 . S
C808 C789 1.368 . S
C808 C802 1.368 . S
C808 C807 1.523 . S
C809 C793 1.429 . S
C809 C805 1.429 . S
C809 C810 1.523 . S
C810 C794 1.368 . S
C810 C806 1.368 . S
C810 C809 1.523 . S
H811 C786 0.950 . S
H812 C788 0.950 . S
H813 C789 0.949 . S
H814 C791 0.950 . S
H815 C793 0.950 . S
C816 C817 1.349 1_655 S
C816 C818 1.327 . S
C816 H841 0.950 . S
C817 C816 1.349 1_455 S
C817 C833 1.349 . S
C818 C816 1.327 . S
C818 C837 1.429 . S
C818 H842 0.950 . S
C819 C836 1.574 . S
C819 C838 1.368 . S
C819 H843 0.949 . S
H820 C824 0.965 . S
C821 C822 1.349 . S
C821 C823 1.327 . S
C821 H844 0.950 . S
C822 C821 1.349 . S
C822 C834 1.352 . S
C823 C821 1.327 . S
C823 C839 1.429 . S
C823 H845 0.950 . S
C824 H820 0.965 . S
C824 C832 1.574 . S
C824 C840 1.368 . S
H825 C833 0.950 . S
H826 C831 0.950 . S
H827 C832 0.949 . S
H828 C834 0.946 1_554 S
H829 C835 0.950 1_554 S
H830 C836 0.949 . S
C831 H826 0.950 . S
C831 C833 1.327 1_655 S
C831 C837 1.429 . S
C832 C824 1.574 . S
C832 H827 0.949 . S
C832 C838 1.368 . S
C833 C817 1.349 . S
C833 H825 0.950 . S
C833 C831 1.327 1_455 S
C834 C822 1.352 . S
C834 H828 0.946 1_556 S
C834 C835 1.328 . S
C835 H829 0.950 1_556 S
C835 C834 1.328 . S
C835 C839 1.429 . S
C836 C819 1.574 . S
C836 H830 0.949 . S
C836 C840 1.368 . S
C837 C818 1.429 . S
C837 C831 1.429 . S
C837 C838 1.523 . S
C838 C819 1.368 . S
C838 C832 1.368 . S
C838 C837 1.523 . S
C839 C823 1.429 . S
C839 C835 1.429 . S
C839 C840 1.523 . S
C840 C824 1.368 . S
C840 C836 1.368 . S
C840 C839 1.523 . S
H841 C816 0.950 . S
H842 C818 0.950 . S
H843 C819 0.949 . S
H844 C821 0.950 . S
H845 C823 0.950 . S
C846 C847 1.349 . S
C846 C848 1.327 . S
C846 H871 0.950 . S
C847 C846 1.349 . S
C847 C863 1.349 . S
C848 C846 1.327 . S
C848 C867 1.429 . S
C848 H872 0.950 . S
C849 C866 1.574 . S
C849 C868 1.368 . S
C849 H873 0.949 . S
H850 C854 0.949 . S
C851 C852 1.349 . S
C851 C853 1.327 . S
C851 H874 0.950 . S
C852 C851 1.349 . S
C852 C864 1.349 . S
C853 C851 1.327 . S
C853 C869 1.429 . S
C853 H875 0.950 . S
C854 H850 0.949 . S
C854 C862 1.574 . S
C854 C870 1.368 . S
H855 C863 0.950 . S
H856 C861 0.950 . S
H857 C862 0.949 . S
H858 C864 0.950 . S
H859 C865 0.950 . S
H860 C866 0.949 . S
C861 H856 0.950 . S
C861 C863 1.327 . S
C861 C867 1.429 . S
C862 C854 1.574 . S
C862 H857 0.949 . S
C862 C868 1.368 . S
C863 C847 1.349 . S
C863 H855 0.950 . S
C863 C861 1.327 . S
C864 C852 1.349 . S
C864 H858 0.950 . S
C864 C865 1.327 . S
C865 H859 0.950 . S
C865 C864 1.327 . S
C865 C869 1.429 . S
C866 C849 1.574 . S
C866 H860 0.949 . S
C866 C870 1.368 . S
C867 C848 1.429 . S
C867 C861 1.429 . S
C867 C868 1.523 . S
C868 C849 1.368 . S
C868 C862 1.368 . S
C868 C867 1.523 . S
C869 C853 1.429 . S
C869 C865 1.429 . S
C869 C870 1.523 . S
C870 C854 1.368 . S
C870 C866 1.368 . S
C870 C869 1.523 . S
H871 C846 0.950 . S
H872 C848 0.950 . S
H873 C849 0.949 . S
H874 C851 0.950 . S
H875 C853 0.950 . S
C876 C877 1.349 . S
C876 C878 1.327 . S
C876 H901 0.950 . S
C877 C876 1.349 . S
C877 C893 1.349 . S
C878 C876 1.327 . S
C878 C897 1.429 . S
C878 H902 0.950 . S
C879 C896 1.574 . S
C879 C898 1.368 . S
C879 H903 0.949 . S
H880 C884 0.949 . S
C881 C882 1.349 . S
C881 C883 1.327 . S
C881 H904 0.950 . S
C882 C881 1.349 . S
C882 C894 1.349 . S
C883 C881 1.327 . S
C883 C899 1.429 . S
C883 H905 0.950 . S
C884 H880 0.949 . S
C884 C892 1.574 . S
C884 C900 1.368 . S
H885 C893 0.950 . S
H886 C891 0.950 . S
H887 C892 0.949 . S
H888 C894 0.950 . S
H889 C895 0.950 . S
H890 C896 0.949 . S
C891 H886 0.950 . S
C891 C893 1.327 . S
C891 C897 1.429 . S
C892 C884 1.574 . S
C892 H887 0.949 . S
C892 C898 1.368 . S
C893 C877 1.349 . S
C893 H885 0.950 . S
C893 C891 1.327 . S
C894 C882 1.349 . S
C894 H888 0.950 . S
C894 C895 1.327 . S
C895 H889 0.950 . S
C895 C894 1.327 . S
C895 C899 1.429 . S
C896 C879 1.574 . S
C896 H890 0.949 . S
C896 C900 1.368 . S
C897 C878 1.429 . S
C897 C891 1.429 . S
C897 C898 1.523 . S
C898 C879 1.368 . S
C898 C892 1.368 . S
C898 C897 1.523 . S
C899 C883 1.429 . S
C899 C895 1.429 . S
C899 C900 1.523 . S
C900 C884 1.368 . S
C900 C896 1.368 . S
C900 C899 1.523 . S
H901 C876 0.950 . S
H902 C878 0.950 . S
H903 C879 0.949 . S
H904 C881 0.950 . S
H905 C883 0.950 . S
C906 C907 1.349 . S
C906 C908 1.327 . S
C906 H931 0.950 . S
C907 C906 1.349 . S
C907 C923 1.349 . S
C908 C906 1.327 . S
C908 C927 1.429 . S
C908 H932 0.950 . S
C909 C926 1.574 . S
C909 C928 1.368 . S
C909 H933 0.949 . S
H910 C914 0.949 . S
C911 C912 1.349 . S
C911 C913 1.327 . S
C911 H934 0.950 . S
C912 C911 1.349 . S
C912 C924 1.349 . S
C913 C911 1.327 . S
C913 C929 1.429 . S
C913 H935 0.950 . S
C914 H910 0.949 . S
C914 C922 1.574 . S
C914 C930 1.368 . S
H915 C923 0.950 . S
H916 C921 0.950 . S
H917 C922 0.949 . S
H918 C924 0.950 . S
H919 C925 0.950 . S
H920 C926 0.949 . S
C921 H916 0.950 . S
C921 C923 1.327 . S
C921 C927 1.429 . S
C922 C914 1.574 . S
C922 H917 0.949 . S
C922 C928 1.368 . S
C923 C907 1.349 . S
C923 H915 0.950 . S
C923 C921 1.327 . S
C924 C912 1.349 . S
C924 H918 0.950 . S
C924 C925 1.327 . S
C925 H919 0.950 . S
C925 C924 1.327 . S
C925 C929 1.429 . S
C926 C909 1.574 . S
C926 H920 0.949 . S
C926 C930 1.368 . S
C927 C908 1.429 . S
C927 C921 1.429 . S
C927 C928 1.523 . S
C928 C909 1.368 . S
C928 C922 1.368 . S
C928 C927 1.523 . S
C929 C913 1.429 . S
C929 C925 1.429 . S
C929 C930 1.523 . S
C930 C914 1.368 . S
C930 C926 1.368 . S
C930 C929 1.523 . S
H931 C906 0.950 . S
H932 C908 0.950 . S
H933 C909 0.949 . S
H934 C911 0.950 . S
H935 C913 0.950 . S
C936 C937 1.349 1_655 S
C936 C938 1.327 . S
C936 H961 0.950 1_655 S
C937 C936 1.349 1_455 S
C937 C953 1.349 1_455 S
C938 C936 1.327 . S
C938 C957 1.429 . S
C938 H962 0.950 . S
C939 C956 1.574 . S
C939 C958 1.368 . S
C939 H963 0.949 . S
H940 C944 0.949 . S
C941 C942 1.349 . S
C941 C943 1.327 . S
C941 H964 0.950 . S
C942 C941 1.349 . S
C942 C954 1.349 . S
C943 C941 1.327 . S
C943 C959 1.429 . S
C943 H965 0.950 . S
C944 H940 0.949 . S
C944 C952 1.574 . S
C944 C960 1.368 . S
H945 C953 0.950 1_455 S
H946 C951 0.950 . S
H947 C952 0.949 . S
H948 C954 0.950 . S
H949 C955 0.950 . S
H950 C956 0.949 . S
C951 H946 0.950 . S
C951 C953 1.327 . S
C951 C957 1.429 . S
C952 C944 1.574 . S
C952 H947 0.949 . S
C952 C958 1.368 . S
C953 C937 1.349 1_655 S
C953 H945 0.950 1_655 S
C953 C951 1.327 . S
C954 C942 1.349 . S
C954 H948 0.950 . S
C954 C955 1.327 . S
C955 H949 0.950 . S
C955 C954 1.327 . S
C955 C959 1.429 . S
C956 C939 1.574 . S
C956 H950 0.949 . S
C956 C960 1.368 . S
C957 C938 1.429 . S
C957 C951 1.429 . S
C957 C958 1.523 . S
C958 C939 1.368 . S
C958 C952 1.368 . S
C958 C957 1.523 . S
C959 C943 1.429 . S
C959 C955 1.429 . S
C959 C960 1.523 . S
C960 C944 1.368 . S
C960 C956 1.368 . S
C960 C959 1.523 . S
H961 C936 0.950 1_455 S
H962 C938 0.950 . S
H963 C939 0.949 . S
H964 C941 0.950 . S
H965 C943 0.950 . S
C966 C967 1.349 . S
C966 C968 1.327 . S
C966 H991 0.950 . S
C967 C966 1.349 . S
C967 C983 1.349 . S
C968 C966 1.327 . S
C968 C987 1.429 . S
C968 H992 0.950 . S
C969 C986 1.574 . S
C969 C988 1.368 . S
C969 H993 0.949 . S
H970 C974 0.949 . S
C971 C972 1.349 . S
C971 C973 1.327 . S
C971 H994 0.950 1_556 S
C972 C971 1.349 . S
C972 C984 1.349 . S
C973 C971 1.327 . S
C973 C989 1.429 . S
C973 H995 0.950 1_556 S
C974 H970 0.949 . S
C974 C982 1.574 . S
C974 C990 1.368 . S
H975 C983 0.950 . S
H976 C981 0.950 . S
H977 C982 0.949 . S
H978 C984 0.950 . S
H979 C985 0.950 . S
H980 C986 0.949 . S
C981 H976 0.950 . S
C981 C983 1.327 . S
C981 C987 1.429 . S
C982 C974 1.574 . S
C982 H977 0.949 . S
C982 C988 1.368 . S
C983 C967 1.349 . S
C983 H975 0.950 . S
C983 C981 1.327 . S
C984 C972 1.349 . S
C984 H978 0.950 . S
C984 C985 1.327 . S
C985 H979 0.950 . S
C985 C984 1.327 . S
C985 C989 1.429 . S
C986 C969 1.574 . S
C986 H980 0.949 . S
C986 C990 1.368 . S
C987 C968 1.429 . S
C987 C981 1.429 . S
C987 C988 1.523 . S
C988 C969 1.368 . S
C988 C982 1.368 . S
C988 C987 1.523 . S
C989 C973 1.429 . S
C989 C985 1.429 . S
C989 C990 1.523 . S
C990 C974 1.368 . S
C990 C986 1.368 . S
C990 C989 1.523 . S
H991 C966 0.950 . S
H992 C968 0.950 . S
H993 C969 0.949 . S
H994 C971 0.950 1_554 S
H995 C973 0.950 1_554 S
C996 C997 1.349 . S
C996 C998 1.327 . S
C996 H1021 0.950 . S
C997 C996 1.349 . S
C997 C1013 1.349 . S
C998 C996 1.327 . S
C998 C1017 1.429 . S
C998 H1022 0.950 . S
C999 C1016 1.574 . S
C999 C1018 1.368 . S
C999 H1023 0.949 . S
H1000 C1004 0.949 . S
C1001 C1002 1.349 . S
C1001 C1003 1.327 . S
C1001 H1024 0.950 . S
C1002 C1001 1.349 . S
C1002 C1014 1.349 . S
C1003 C1001 1.327 . S
C1003 C1019 1.429 . S
C1003 H1025 0.950 . S
C1004 H1000 0.949 . S
C1004 C1012 1.574 . S
C1004 C1020 1.368 . S
H1005 C1013 0.950 . S
H1006 C1011 0.950 . S
H1007 C1012 0.949 . S
H1008 C1014 0.950 . S
H1009 C1015 0.950 . S
H1010 C1016 0.949 . S
C1011 H1006 0.950 . S
C1011 C1013 1.327 . S
C1011 C1017 1.429 . S
C1012 C1004 1.574 . S
C1012 H1007 0.949 . S
C1012 C1018 1.368 . S
C1013 C997 1.349 . S
C1013 H1005 0.950 . S
C1013 C1011 1.327 . S
C1014 C1002 1.349 . S
C1014 H1008 0.950 . S
C1014 C1015 1.327 . S
C1015 H1009 0.950 . S
C1015 C1014 1.327 . S
C1015 C1019 1.429 . S
C1016 C999 1.574 . S
C1016 H1010 0.949 . S
C1016 C1020 1.368 . S
C1017 C998 1.429 . S
C1017 C1011 1.429 . S
C1017 C1018 1.523 . S
C1018 C999 1.368 . S
C1018 C1012 1.368 . S
C1018 C1017 1.523 . S
C1019 C1003 1.429 . S
C1019 C1015 1.429 . S
C1019 C1020 1.523 . S
C1020 C1004 1.368 . S
C1020 C1016 1.368 . S
C1020 C1019 1.523 . S
H1021 C996 0.950 . S
H1022 C998 0.950 . S
H1023 C999 0.949 . S
H1024 C1001 0.950 . S
H1025 C1003 0.950 . S
C1026 C1027 1.349 . S
C1026 C1028 1.327 . S
C1026 H1051 0.950 . S
C1027 C1026 1.349 . S
C1027 C1043 1.349 . S
C1028 C1026 1.327 . S
C1028 C1047 1.429 . S
C1028 H1052 0.950 . S
C1029 C1046 1.574 . S
C1029 C1048 1.368 . S
C1029 H1053 0.949 . S
H1030 C1034 0.949 . S
C1031 C1032 1.349 . S
C1031 C1033 1.327 . S
C1031 H1054 0.950 . S
C1032 C1031 1.349 . S
C1032 C1044 1.349 . S
C1033 C1031 1.327 . S
C1033 C1049 1.429 . S
C1033 H1055 0.950 . S
C1034 H1030 0.949 . S
C1034 C1042 1.574 . S
C1034 C1050 1.368 . S
H1035 C1043 0.950 . S
H1036 C1041 0.950 . S
H1037 C1042 0.949 . S
H1038 C1044 0.950 . S
H1039 C1045 0.950 . S
H1040 C1046 0.949 . S
C1041 H1036 0.950 . S
C1041 C1043 1.327 . S
C1041 C1047 1.429 . S
C1042 C1034 1.574 . S
C1042 H1037 0.949 . S
C1042 C1048 1.368 . S
C1043 C1027 1.349 . S
C1043 H1035 0.950 . S
C1043 C1041 1.327 . S
C1044 C1032 1.349 . S
C1044 H1038 0.950 . S
C1044 C1045 1.327 . S
C1045 H1039 0.950 . S
C1045 C1044 1.327 . S
C1045 C1049 1.429 . S
C1046 C1029 1.574 . S
C1046 H1040 0.949 . S
C1046 C1050 1.368 . S
C1047 C1028 1.429 . S
C1047 C1041 1.429 . S
C1047 C1048 1.523 . S
C1048 C1029 1.368 . S
C1048 C1042 1.368 . S
C1048 C1047 1.523 . S
C1049 C1033 1.429 . S
C1049 C1045 1.429 . S
C1049 C1050 1.523 . S
C1050 C1034 1.368 . S
C1050 C1046 1.368 . S
C1050 C1049 1.523 . S
H1051 C1026 0.950 . S
H1052 C1028 0.950 . S
H1053 C1029 0.949 . S
H1054 C1031 0.950 . S
H1055 C1033 0.950 . S
C1056 C1057 1.349 . S
C1056 C1058 1.327 . S
C1056 H1081 0.950 . S
C1057 C1056 1.349 . S
C1057 C1073 1.349 . S
C1058 C1056 1.327 . S
C1058 C1077 1.429 . S
C1058 H1082 0.950 . S
C1059 C1076 1.574 . S
C1059 C1078 1.368 . S
C1059 H1083 0.949 . S
H1060 C1064 0.949 1_556 S
C1061 C1062 1.349 . S
C1061 C1063 1.327 . S
C1061 H1084 0.950 . S
C1062 C1061 1.349 . S
C1062 C1074 1.349 . S
C1063 C1061 1.327 . S
C1063 C1079 1.429 . S
C1063 H1085 0.950 1_556 S
C1064 H1060 0.949 1_554 S
C1064 C1072 1.574 . S
C1064 C1080 1.368 . S
H1065 C1073 0.950 . S
H1066 C1071 0.950 . S
H1067 C1072 0.949 . S
H1068 C1074 0.950 . S
H1069 C1075 0.950 . S
H1070 C1076 0.949 . S
C1071 H1066 0.950 . S
C1071 C1073 1.327 . S
C1071 C1077 1.429 . S
C1072 C1064 1.574 . S
C1072 H1067 0.949 . S
C1072 C1078 1.368 . S
C1073 C1057 1.349 . S
C1073 H1065 0.950 . S
C1073 C1071 1.327 . S
C1074 C1062 1.349 . S
C1074 H1068 0.950 . S
C1074 C1075 1.327 . S
C1075 H1069 0.950 . S
C1075 C1074 1.327 . S
C1075 C1079 1.429 . S
C1076 C1059 1.574 . S
C1076 H1070 0.949 . S
C1076 C1080 1.368 . S
C1077 C1058 1.429 . S
C1077 C1071 1.429 . S
C1077 C1078 1.523 . S
C1078 C1059 1.368 . S
C1078 C1072 1.368 . S
C1078 C1077 1.523 . S
C1079 C1063 1.429 . S
C1079 C1075 1.429 . S
C1079 C1080 1.523 1_556 S
C1080 C1064 1.368 . S
C1080 C1076 1.368 . S
C1080 C1079 1.523 1_554 S
H1081 C1056 0.950 . S
H1082 C1058 0.950 . S
H1083 C1059 0.949 . S
H1084 C1061 0.950 . S
H1085 C1063 0.950 1_554 S
C1086 C1087 1.349 . S
C1086 C1088 1.327 . S
C1086 H1111 0.950 . S
C1087 C1086 1.349 . S
C1087 C1103 1.349 . S
C1088 C1086 1.327 . S
C1088 C1107 1.429 . S
C1088 H1112 0.950 . S
C1089 C1106 1.574 . S
C1089 C1108 1.368 . S
C1089 H1113 0.949 . S
H1090 C1094 0.949 . S
C1091 C1092 1.349 . S
C1091 C1093 1.327 . S
C1091 H1114 0.950 . S
C1092 C1091 1.349 . S
C1092 C1104 1.349 . S
C1093 C1091 1.327 . S
C1093 C1109 1.429 . S
C1093 H1115 0.950 . S
C1094 H1090 0.949 . S
C1094 C1102 1.574 . S
C1094 C1110 1.368 . S
H1095 C1103 0.950 . S
H1096 C1101 0.950 . S
H1097 C1102 0.949 . S
H1098 C1104 0.950 . S
H1099 C1105 0.950 . S
H1100 C1106 0.949 . S
C1101 H1096 0.950 . S
C1101 C1103 1.327 . S
C1101 C1107 1.429 . S
C1102 C1094 1.574 . S
C1102 H1097 0.949 . S
C1102 C1108 1.368 . S
C1103 C1087 1.349 . S
C1103 H1095 0.950 . S
C1103 C1101 1.327 . S
C1104 C1092 1.349 . S
C1104 H1098 0.950 . S
C1104 C1105 1.327 . S
C1105 H1099 0.950 . S
C1105 C1104 1.327 . S
C1105 C1109 1.429 . S
C1106 C1089 1.574 . S
C1106 H1100 0.949 . S
C1106 C1110 1.368 . S
C1107 C1088 1.429 . S
C1107 C1101 1.429 . S
C1107 C1108 1.523 . S
C1108 C1089 1.368 . S
C1108 C1102 1.368 . S
C1108 C1107 1.523 . S
C1109 C1093 1.429 . S
C1109 C1105 1.429 . S
C1109 C1110 1.523 . S
C1110 C1094 1.368 . S
C1110 C1106 1.368 . S
C1110 C1109 1.523 . S
H1111 C1086 0.950 . S
H1112 C1088 0.950 . S
H1113 C1089 0.949 . S
H1114 C1091 0.950 . S
H1115 C1093 0.950 . S
C1116 C1117 1.349 . S
C1116 C1118 1.327 . S
C1116 H1141 0.950 . S
C1117 C1116 1.349 . S
C1117 C1133 1.349 . S
C1118 C1116 1.327 . S
C1118 C1137 1.429 . S
C1118 H1142 0.950 . S
C1119 C1136 1.574 . S
C1119 C1138 1.368 . S
C1119 H1143 0.949 . S
H1120 C1124 0.949 . S
C1121 C1122 1.349 . S
C1121 C1123 1.327 . S
C1121 H1144 0.950 . S
C1122 C1121 1.349 . S
C1122 C1134 1.349 . S
C1123 C1121 1.327 . S
C1123 C1139 1.429 . S
C1123 H1145 0.950 . S
C1124 H1120 0.949 . S
C1124 C1132 1.574 . S
C1124 C1140 1.368 . S
H1125 C1133 0.950 . S
H1126 C1131 0.950 . S
H1127 C1132 0.949 . S
H1128 C1134 0.950 . S
H1129 C1135 0.950 . S
H1130 C1136 0.949 . S
C1131 H1126 0.950 . S
C1131 C1133 1.327 . S
C1131 C1137 1.429 . S
C1132 C1124 1.574 . S
C1132 H1127 0.949 . S
C1132 C1138 1.368 . S
C1133 C1117 1.349 . S
C1133 H1125 0.950 . S
C1133 C1131 1.327 . S
C1134 C1122 1.349 . S
C1134 H1128 0.950 . S
C1134 C1135 1.327 . S
C1135 H1129 0.950 . S
C1135 C1134 1.327 . S
C1135 C1139 1.429 . S
C1136 C1119 1.574 . S
C1136 H1130 0.949 . S
C1136 C1140 1.368 . S
C1137 C1118 1.429 . S
C1137 C1131 1.429 . S
C1137 C1138 1.523 . S
C1138 C1119 1.368 . S
C1138 C1132 1.368 . S
C1138 C1137 1.523 . S
C1139 C1123 1.429 . S
C1139 C1135 1.429 . S
C1139 C1140 1.523 . S
C1140 C1124 1.368 . S
C1140 C1136 1.368 . S
C1140 C1139 1.523 . S
H1141 C1116 0.950 . S
H1142 C1118 0.950 . S
H1143 C1119 0.949 . S
H1144 C1121 0.950 . S
H1145 C1123 0.950 . S
C1146 C1147 1.349 . S
C1146 C1148 1.327 . S
C1146 H1171 0.950 . S
C1147 C1146 1.349 . S
C1147 C1163 1.349 . S
C1148 C1146 1.327 . S
C1148 C1167 1.429 . S
C1148 H1172 0.950 . S
C1149 C1166 1.574 . S
C1149 C1168 1.368 . S
C1149 H1173 0.949 . S
H1150 C1154 0.949 . S
C1151 C1152 1.349 . S
C1151 C1153 1.327 . S
C1151 H1174 0.950 . S
C1152 C1151 1.349 . S
C1152 C1164 1.349 . S
C1153 C1151 1.327 . S
C1153 C1169 1.429 . S
C1153 H1175 0.950 . S
C1154 H1150 0.949 . S
C1154 C1162 1.574 . S
C1154 C1170 1.368 . S
H1155 C1163 0.950 . S
H1156 C1161 0.950 . S
H1157 C1162 0.949 . S
H1158 C1164 0.950 . S
H1159 C1165 0.950 . S
H1160 C1166 0.949 . S
C1161 H1156 0.950 . S
C1161 C1163 1.327 . S
C1161 C1167 1.429 . S
C1162 C1154 1.574 . S
C1162 H1157 0.949 . S
C1162 C1168 1.368 . S
C1163 C1147 1.349 . S
C1163 H1155 0.950 . S
C1163 C1161 1.327 . S
C1164 C1152 1.349 . S
C1164 H1158 0.950 . S
C1164 C1165 1.327 . S
C1165 H1159 0.950 . S
C1165 C1164 1.327 . S
C1165 C1169 1.429 . S
C1166 C1149 1.574 . S
C1166 H1160 0.949 . S
C1166 C1170 1.368 . S
C1167 C1148 1.429 . S
C1167 C1161 1.429 . S
C1167 C1168 1.523 . S
C1168 C1149 1.368 . S
C1168 C1162 1.368 . S
C1168 C1167 1.523 . S
C1169 C1153 1.429 . S
C1169 C1165 1.429 . S
C1169 C1170 1.523 . S
C1170 C1154 1.368 . S
C1170 C1166 1.368 . S
C1170 C1169 1.523 . S
H1171 C1146 0.950 . S
H1172 C1148 0.950 . S
H1173 C1149 0.949 . S
H1174 C1151 0.950 . S
H1175 C1153 0.950 . S
C1176 C1177 1.349 . S
C1176 C1178 1.327 . S
C1176 H1201 0.950 . S
C1177 C1176 1.349 . S
C1177 C1193 1.349 . S
C1178 C1176 1.327 . S
C1178 C1197 1.429 . S
C1178 H1202 0.950 . S
C1179 C1196 1.574 . S
C1179 C1198 1.368 . S
C1179 H1203 0.949 . S
H1180 C1184 0.949 . S
C1181 C1182 1.349 . S
C1181 C1183 1.327 . S
C1181 H1204 0.950 . S
C1182 C1181 1.349 . S
C1182 C1194 1.349 . S
C1183 C1181 1.327 . S
C1183 C1199 1.429 . S
C1183 H1205 0.950 . S
C1184 H1180 0.949 . S
C1184 C1192 1.574 . S
C1184 C1200 1.368 . S
H1185 C1193 0.950 . S
H1186 C1191 0.950 . S
H1187 C1192 0.949 . S
H1188 C1194 0.950 . S
H1189 C1195 0.950 . S
H1190 C1196 0.949 . S
C1191 H1186 0.950 . S
C1191 C1193 1.327 . S
C1191 C1197 1.429 . S
C1192 C1184 1.574 . S
C1192 H1187 0.949 . S
C1192 C1198 1.368 . S
C1193 C1177 1.349 . S
C1193 H1185 0.950 . S
C1193 C1191 1.327 . S
C1194 C1182 1.349 . S
C1194 H1188 0.950 . S
C1194 C1195 1.327 . S
C1195 H1189 0.950 . S
C1195 C1194 1.327 . S
C1195 C1199 1.429 . S
C1196 C1179 1.574 . S
C1196 H1190 0.949 . S
C1196 C1200 1.368 . S
C1197 C1178 1.429 . S
C1197 C1191 1.429 . S
C1197 C1198 1.523 . S
C1198 C1179 1.368 . S
C1198 C1192 1.368 . S
C1198 C1197 1.523 . S
C1199 C1183 1.429 . S
C1199 C1195 1.429 . S
C1199 C1200 1.523 . S
C1200 C1184 1.368 . S
C1200 C1196 1.368 . S
C1200 C1199 1.523 . S
H1201 C1176 0.950 . S
H1202 C1178 0.950 . S
H1203 C1179 0.949 . S
H1204 C1181 0.950 . S
H1205 C1183 0.950 . S
C1206 C1207 1.349 . S
C1206 C1208 1.327 . S
C1206 H1231 0.950 . S
C1207 C1206 1.349 . S
C1207 C1223 1.349 . S
C1208 C1206 1.327 . S
C1208 C1227 1.429 . S
C1208 H1232 0.950 . S
C1209 C1226 1.574 . S
C1209 C1228 1.368 . S
C1209 H1233 0.949 . S
H1210 C1214 0.949 . S
C1211 C1212 1.349 . S
C1211 C1213 1.327 . S
C1211 H1234 0.950 . S
C1212 C1211 1.349 . S
C1212 C1224 1.349 . S
C1213 C1211 1.327 . S
C1213 C1229 1.429 . S
C1213 H1235 0.950 . S
C1214 H1210 0.949 . S
C1214 C1222 1.574 . S
C1214 C1230 1.368 . S
H1215 C1223 0.950 . S
H1216 C1221 0.950 . S
H1217 C1222 0.949 . S
H1218 C1224 0.950 . S
H1219 C1225 0.950 . S
H1220 C1226 0.949 . S
C1221 H1216 0.950 . S
C1221 C1223 1.327 . S
C1221 C1227 1.429 . S
C1222 C1214 1.574 . S
C1222 H1217 0.949 . S
C1222 C1228 1.368 . S
C1223 C1207 1.349 . S
C1223 H1215 0.950 . S
C1223 C1221 1.327 . S
C1224 C1212 1.349 . S
C1224 H1218 0.950 . S
C1224 C1225 1.327 . S
C1225 H1219 0.950 . S
C1225 C1224 1.327 . S
C1225 C1229 1.429 . S
C1226 C1209 1.574 . S
C1226 H1220 0.949 . S
C1226 C1230 1.368 . S
C1227 C1208 1.429 . S
C1227 C1221 1.429 . S
C1227 C1228 1.523 . S
C1228 C1209 1.368 . S
C1228 C1222 1.368 . S
C1228 C1227 1.523 . S
C1229 C1213 1.429 . S
C1229 C1225 1.429 . S
C1229 C1230 1.523 . S
C1230 C1214 1.368 . S
C1230 C1226 1.368 . S
C1230 C1229 1.523 . S
H1231 C1206 0.950 . S
H1232 C1208 0.950 . S
H1233 C1209 0.949 . S
H1234 C1211 0.950 . S
H1235 C1213 0.950 . S
C1236 C1237 1.349 . S
C1236 C1238 1.327 . S
C1236 H1261 0.950 . S
C1237 C1236 1.349 . S
C1237 C1253 1.349 . S
C1238 C1236 1.327 . S
C1238 C1257 1.429 . S
C1238 H1262 0.950 . S
C1239 C1256 1.574 1_565 S
C1239 C1258 1.368 . S
C1239 H1263 0.949 . S
H1240 C1244 0.949 . S
C1241 C1242 1.349 . S
C1241 C1243 1.327 . S
C1241 H1264 0.950 . S
C1242 C1241 1.349 . S
C1242 C1254 1.349 . S
C1243 C1241 1.327 . S
C1243 C1259 1.429 . S
C1243 H1265 0.950 . S
C1244 H1240 0.949 . S
C1244 C1252 1.574 1_545 S
C1244 C1260 1.368 . S
H1245 C1253 0.950 . S
H1246 C1251 0.950 . S
H1247 C1252 0.949 . S
H1248 C1254 0.950 . S
H1249 C1255 0.950 . S
H1250 C1256 0.949 . S
C1251 H1246 0.950 . S
C1251 C1253 1.327 . S
C1251 C1257 1.429 . S
C1252 C1244 1.574 1_565 S
C1252 H1247 0.949 . S
C1252 C1258 1.368 . S
C1253 C1237 1.349 . S
C1253 H1245 0.950 . S
C1253 C1251 1.327 . S
C1254 C1242 1.349 . S
C1254 H1248 0.950 . S
C1254 C1255 1.327 . S
C1255 H1249 0.950 . S
C1255 C1254 1.327 . S
C1255 C1259 1.429 . S
C1256 C1239 1.574 1_545 S
C1256 H1250 0.949 . S
C1256 C1260 1.368 . S
C1257 C1238 1.429 . S
C1257 C1251 1.429 . S
C1257 C1258 1.523 . S
C1258 C1239 1.368 . S
C1258 C1252 1.368 . S
C1258 C1257 1.523 . S
C1259 C1243 1.429 . S
C1259 C1255 1.429 . S
C1259 C1260 1.523 . S
C1260 C1244 1.368 . S
C1260 C1256 1.368 . S
C1260 C1259 1.523 . S
H1261 C1236 0.950 . S
H1262 C1238 0.950 . S
H1263 C1239 0.949 . S
H1264 C1241 0.950 . S
H1265 C1243 0.950 . S
C1266 C1267 1.349 . S
C1266 C1268 1.327 . S
C1266 H1291 0.950 . S
C1267 C1266 1.349 . S
C1267 C1283 1.349 . S
C1268 C1266 1.327 . S
C1268 C1287 1.429 . S
C1268 H1292 0.950 . S
C1269 C1286 1.574 . S
C1269 C1288 1.368 . S
C1269 H1293 0.949 . S
H1270 C1274 0.949 . S
C1271 C1272 1.349 . S
C1271 C1273 1.327 . S
C1271 H1294 0.950 . S
C1272 C1271 1.349 . S
C1272 C1284 1.349 . S
C1273 C1271 1.327 . S
C1273 C1289 1.429 . S
C1273 H1295 0.950 . S
C1274 H1270 0.949 . S
C1274 C1282 1.574 . S
C1274 C1290 1.368 . S
H1275 C1283 0.950 . S
H1276 C1281 0.950 1_554 S
H1277 C1282 0.949 1_556 S
H1278 C1284 0.950 . S
H1279 C1285 0.950 . S
H1280 C1286 0.949 . S
C1281 H1276 0.950 1_556 S
C1281 C1283 1.327 . S
C1281 C1287 1.429 . S
C1282 C1274 1.574 . S
C1282 H1277 0.949 1_554 S
C1282 C1288 1.368 1_565 S
C1283 C1267 1.349 . S
C1283 H1275 0.950 . S
C1283 C1281 1.327 . S
C1284 C1272 1.349 . S
C1284 H1278 0.950 . S
C1284 C1285 1.327 . S
C1285 H1279 0.950 . S
C1285 C1284 1.327 . S
C1285 C1289 1.429 . S
C1286 C1269 1.574 . S
C1286 H1280 0.949 . S
C1286 C1290 1.368 1_545 S
C1287 C1268 1.429 . S
C1287 C1281 1.429 . S
C1287 C1288 1.523 1_556 S
C1288 C1269 1.368 . S
C1288 C1282 1.368 1_545 S
C1288 C1287 1.523 1_554 S
C1289 C1273 1.429 . S
C1289 C1285 1.429 . S
C1289 C1290 1.523 . S
C1290 C1274 1.368 . S
C1290 C1286 1.368 1_565 S
C1290 C1289 1.523 . S
H1291 C1266 0.950 . S
H1292 C1268 0.950 . S
H1293 C1269 0.949 . S
H1294 C1271 0.950 . S
H1295 C1273 0.950 . S
C1296 C1297 1.349 . S
C1296 C1298 1.327 . S
C1296 H1321 0.950 . S
C1297 C1296 1.349 . S
C1297 C1313 1.349 . S
C1298 C1296 1.327 . S
C1298 C1317 1.429 . S
C1298 H1322 0.950 . S
C1299 C1316 1.574 . S
C1299 C1318 1.368 . S
C1299 H1323 0.949 . S
H1300 C1304 0.949 . S
C1301 C1302 1.349 . S
C1301 C1303 1.327 . S
C1301 H1324 0.950 . S
C1302 C1301 1.349 . S
C1302 C1314 1.349 . S
C1303 C1301 1.327 . S
C1303 C1319 1.429 . S
C1303 H1325 0.950 . S
C1304 H1300 0.949 . S
C1304 C1312 1.574 . S
C1304 C1320 1.368 . S
H1305 C1313 0.950 . S
H1306 C1311 0.950 . S
H1307 C1312 0.949 . S
H1308 C1314 0.950 . S
H1309 C1315 0.950 . S
H1310 C1316 0.949 . S
C1311 H1306 0.950 . S
C1311 C1313 1.327 . S
C1311 C1317 1.429 . S
C1312 C1304 1.574 . S
C1312 H1307 0.949 . S
C1312 C1318 1.368 . S
C1313 C1297 1.349 . S
C1313 H1305 0.950 . S
C1313 C1311 1.327 . S
C1314 C1302 1.349 . S
C1314 H1308 0.950 . S
C1314 C1315 1.327 . S
C1315 H1309 0.950 . S
C1315 C1314 1.327 . S
C1315 C1319 1.429 . S
C1316 C1299 1.574 . S
C1316 H1310 0.949 . S
C1316 C1320 1.368 . S
C1317 C1298 1.429 . S
C1317 C1311 1.429 . S
C1317 C1318 1.523 . S
C1318 C1299 1.368 . S
C1318 C1312 1.368 . S
C1318 C1317 1.523 . S
C1319 C1303 1.429 . S
C1319 C1315 1.429 . S
C1319 C1320 1.523 . S
C1320 C1304 1.368 . S
C1320 C1316 1.368 . S
C1320 C1319 1.523 . S
H1321 C1296 0.950 . S
H1322 C1298 0.950 . S
H1323 C1299 0.949 . S
H1324 C1301 0.950 . S
H1325 C1303 0.950 . S
C1326 C1327 1.349 . S
C1326 C1328 1.327 . S
C1326 H1351 0.950 . S
C1327 C1326 1.349 . S
C1327 C1343 1.349 . S
C1328 C1326 1.327 . S
C1328 C1347 1.429 . S
C1328 H1352 0.950 . S
C1329 C1346 1.574 . S
C1329 C1348 1.368 . S
C1329 H1353 0.949 . S
H1330 C1334 0.949 . S
C1331 C1332 1.349 . S
C1331 C1333 1.327 . S
C1331 H1354 0.950 . S
C1332 C1331 1.349 . S
C1332 C1344 1.349 . S
C1333 C1331 1.327 . S
C1333 C1349 1.429 . S
C1333 H1355 0.950 . S
C1334 H1330 0.949 . S
C1334 C1342 1.574 . S
C1334 C1350 1.368 . S
H1335 C1343 0.950 . S
H1336 C1341 0.950 . S
H1337 C1342 0.949 . S
H1338 C1344 0.950 . S
H1339 C1345 0.950 . S
H1340 C1346 0.949 . S
C1341 H1336 0.950 . S
C1341 C1343 1.327 . S
C1341 C1347 1.429 . S
C1342 C1334 1.574 . S
C1342 H1337 0.949 . S
C1342 C1348 1.368 . S
C1343 C1327 1.349 . S
C1343 H1335 0.950 . S
C1343 C1341 1.327 . S
C1344 C1332 1.349 . S
C1344 H1338 0.950 . S
C1344 C1345 1.327 . S
C1345 H1339 0.950 . S
C1345 C1344 1.327 . S
C1345 C1349 1.429 . S
C1346 C1329 1.574 . S
C1346 H1340 0.949 . S
C1346 C1350 1.368 . S
C1347 C1328 1.429 . S
C1347 C1341 1.429 . S
C1347 C1348 1.523 . S
C1348 C1329 1.368 . S
C1348 C1342 1.368 . S
C1348 C1347 1.523 . S
C1349 C1333 1.429 . S
C1349 C1345 1.429 . S
C1349 C1350 1.523 . S
C1350 C1334 1.368 . S
C1350 C1346 1.368 . S
C1350 C1349 1.523 . S
H1351 C1326 0.950 . S
H1352 C1328 0.950 . S
H1353 C1329 0.949 . S
H1354 C1331 0.950 . S
H1355 C1333 0.950 . S
C1356 C1357 1.349 . S
C1356 C1358 1.327 . S
C1356 H1381 0.950 . S
C1357 C1356 1.349 . S
C1357 C1373 1.349 . S
C1358 C1356 1.327 . S
C1358 C1377 1.429 . S
C1358 H1382 0.950 . S
C1359 C1376 1.574 . S
C1359 C1378 1.368 . S
C1359 H1383 0.949 . S
H1360 C1364 0.949 . S
C1361 C1362 1.349 . S
C1361 C1363 1.327 . S
C1361 H1384 0.950 . S
C1362 C1361 1.349 . S
C1362 C1374 1.349 . S
C1363 C1361 1.327 . S
C1363 C1379 1.429 . S
C1363 H1385 0.950 . S
C1364 H1360 0.949 . S
C1364 C1372 1.574 . S
C1364 C1380 1.368 . S
H1365 C1373 0.950 . S
H1366 C1371 0.950 . S
H1367 C1372 0.949 . S
H1368 C1374 0.950 . S
H1369 C1375 0.950 . S
H1370 C1376 0.949 . S
C1371 H1366 0.950 . S
C1371 C1373 1.327 . S
C1371 C1377 1.429 . S
C1372 C1364 1.574 . S
C1372 H1367 0.949 . S
C1372 C1378 1.368 . S
C1373 C1357 1.349 . S
C1373 H1365 0.950 . S
C1373 C1371 1.327 . S
C1374 C1362 1.349 . S
C1374 H1368 0.950 . S
C1374 C1375 1.327 . S
C1375 H1369 0.950 . S
C1375 C1374 1.327 . S
C1375 C1379 1.429 . S
C1376 C1359 1.574 . S
C1376 H1370 0.949 . S
C1376 C1380 1.368 . S
C1377 C1358 1.429 . S
C1377 C1371 1.429 . S
C1377 C1378 1.523 . S
C1378 C1359 1.368 . S
C1378 C1372 1.368 . S
C1378 C1377 1.523 . S
C1379 C1363 1.429 . S
C1379 C1375 1.429 . S
C1379 C1380 1.523 1_556 S
C1380 C1364 1.368 . S
C1380 C1376 1.368 . S
C1380 C1379 1.523 1_554 S
H1381 C1356 0.950 . S
H1382 C1358 0.950 . S
H1383 C1359 0.949 . S
H1384 C1361 0.950 . S
H1385 C1363 0.950 . S
C1386 C1387 1.349 . S
C1386 C1388 1.327 . S
C1386 H1411 0.950 . S
C1387 C1386 1.349 . S
C1387 C1403 1.349 . S
C1388 C1386 1.327 . S
C1388 C1407 1.429 . S
C1388 H1412 0.950 . S
C1389 C1406 1.574 . S
C1389 C1408 1.368 . S
C1389 H1413 0.949 . S
H1390 C1394 0.949 . S
C1391 C1392 1.349 . S
C1391 C1393 1.327 . S
C1391 H1414 0.950 . S
C1392 C1391 1.349 . S
C1392 C1404 1.349 . S
C1393 C1391 1.327 . S
C1393 C1409 1.429 . S
C1393 H1415 0.950 . S
C1394 H1390 0.949 . S
C1394 C1402 1.574 . S
C1394 C1410 1.368 . S
H1395 C1403 0.950 . S
H1396 C1401 0.950 . S
H1397 C1402 0.949 . S
H1398 C1404 0.950 . S
H1399 C1405 0.950 . S
H1400 C1406 0.949 . S
C1401 H1396 0.950 . S
C1401 C1403 1.327 . S
C1401 C1407 1.429 . S
C1402 C1394 1.574 . S
C1402 H1397 0.949 . S
C1402 C1408 1.368 . S
C1403 C1387 1.349 . S
C1403 H1395 0.950 . S
C1403 C1401 1.327 . S
C1404 C1392 1.349 . S
C1404 H1398 0.950 . S
C1404 C1405 1.327 . S
C1405 H1399 0.950 . S
C1405 C1404 1.327 . S
C1405 C1409 1.429 . S
C1406 C1389 1.574 . S
C1406 H1400 0.949 . S
C1406 C1410 1.368 . S
C1407 C1388 1.429 . S
C1407 C1401 1.429 . S
C1407 C1408 1.523 . S
C1408 C1389 1.368 . S
C1408 C1402 1.368 . S
C1408 C1407 1.523 . S
C1409 C1393 1.429 . S
C1409 C1405 1.429 . S
C1409 C1410 1.523 . S
C1410 C1394 1.368 . S
C1410 C1406 1.368 . S
C1410 C1409 1.523 . S
H1411 C1386 0.950 . S
H1412 C1388 0.950 . S
H1413 C1389 0.949 . S
H1414 C1391 0.950 . S
H1415 C1393 0.950 . S
C1416 C1417 1.349 . S
C1416 C1418 1.327 . S
C1416 H1441 0.950 . S
C1417 C1416 1.349 . S
C1417 C1433 1.349 . S
C1418 C1416 1.327 . S
C1418 C1437 1.429 . S
C1418 H1442 0.950 . S
C1419 C1436 1.574 . S
C1419 C1438 1.368 . S
C1419 H1443 0.949 . S
H1420 C1424 0.949 . S
C1421 C1422 1.349 . S
C1421 C1423 1.327 . S
C1421 H1444 0.950 . S
C1422 C1421 1.349 . S
C1422 C1434 1.349 . S
C1423 C1421 1.327 . S
C1423 C1439 1.429 . S
C1423 H1445 0.950 . S
C1424 H1420 0.949 . S
C1424 C1432 1.574 . S
C1424 C1440 1.368 . S
H1425 C1433 0.950 . S
H1426 C1431 0.950 . S
H1427 C1432 0.949 . S
H1428 C1434 0.950 . S
H1429 C1435 0.950 . S
H1430 C1436 0.949 . S
C1431 H1426 0.950 . S
C1431 C1433 1.327 . S
C1431 C1437 1.429 . S
C1432 C1424 1.574 . S
C1432 H1427 0.949 . S
C1432 C1438 1.368 . S
C1433 C1417 1.349 . S
C1433 H1425 0.950 . S
C1433 C1431 1.327 . S
C1434 C1422 1.349 . S
C1434 H1428 0.950 . S
C1434 C1435 1.327 . S
C1435 H1429 0.950 . S
C1435 C1434 1.327 . S
C1435 C1439 1.429 . S
C1436 C1419 1.574 . S
C1436 H1430 0.949 . S
C1436 C1440 1.368 . S
C1437 C1418 1.429 . S
C1437 C1431 1.429 . S
C1437 C1438 1.523 . S
C1438 C1419 1.368 . S
C1438 C1432 1.368 . S
C1438 C1437 1.523 . S
C1439 C1423 1.429 . S
C1439 C1435 1.429 . S
C1439 C1440 1.523 . S
C1440 C1424 1.368 . S
C1440 C1436 1.368 . S
C1440 C1439 1.523 . S
H1441 C1416 0.950 . S
H1442 C1418 0.950 . S
H1443 C1419 0.949 . S
H1444 C1421 0.950 . S
H1445 C1423 0.950 . S
C1446 C1447 1.349 . S
C1446 C1448 1.327 . S
C1446 H1471 0.950 . S
C1447 C1446 1.349 . S
C1447 C1463 1.349 . S
C1448 C1446 1.327 . S
C1448 C1467 1.429 . S
C1448 H1472 0.950 . S
C1449 C1466 1.574 . S
C1449 C1468 1.368 . S
C1449 H1473 0.949 . S
H1450 C1454 0.949 . S
C1451 C1452 1.349 . S
C1451 C1453 1.327 . S
C1451 H1474 0.950 . S
C1452 C1451 1.349 . S
C1452 C1464 1.349 . S
C1453 C1451 1.327 . S
C1453 C1469 1.429 . S
C1453 H1475 0.950 . S
C1454 H1450 0.949 . S
C1454 C1462 1.574 . S
C1454 C1470 1.368 . S
H1455 C1463 0.950 . S
H1456 C1461 0.950 . S
H1457 C1462 0.949 . S
H1458 C1464 0.950 . S
H1459 C1465 0.950 . S
H1460 C1466 0.949 . S
C1461 H1456 0.950 . S
C1461 C1463 1.327 . S
C1461 C1467 1.429 . S
C1462 C1454 1.574 . S
C1462 H1457 0.949 . S
C1462 C1468 1.368 . S
C1463 C1447 1.349 . S
C1463 H1455 0.950 . S
C1463 C1461 1.327 . S
C1464 C1452 1.349 . S
C1464 H1458 0.950 . S
C1464 C1465 1.327 . S
C1465 H1459 0.950 . S
C1465 C1464 1.327 . S
C1465 C1469 1.429 . S
C1466 C1449 1.574 . S
C1466 H1460 0.949 . S
C1466 C1470 1.368 . S
C1467 C1448 1.429 . S
C1467 C1461 1.429 . S
C1467 C1468 1.523 . S
C1468 C1449 1.368 . S
C1468 C1462 1.368 . S
C1468 C1467 1.523 . S
C1469 C1453 1.429 . S
C1469 C1465 1.429 . S
C1469 C1470 1.523 . S
C1470 C1454 1.368 . S
C1470 C1466 1.368 . S
C1470 C1469 1.523 . S
H1471 C1446 0.950 . S
H1472 C1448 0.950 . S
H1473 C1449 0.949 . S
H1474 C1451 0.950 . S
H1475 C1453 0.950 . S
C1476 C1477 1.349 . S
C1476 C1478 1.327 . S
C1476 H1501 0.950 . S
C1477 C1476 1.349 . S
C1477 C1493 1.349 . S
C1478 C1476 1.327 . S
C1478 C1497 1.429 . S
C1478 H1502 0.950 . S
C1479 C1496 1.574 . S
C1479 C1498 1.368 1_545 S
C1479 H1503 0.949 . S
H1480 C1484 0.949 1_556 S
C1481 C1482 1.349 . S
C1481 C1483 1.327 . S
C1481 H1504 0.950 . S
C1482 C1481 1.349 . S
C1482 C1494 1.349 . S
C1483 C1481 1.327 . S
C1483 C1499 1.429 . S
C1483 H1505 0.950 1_556 S
C1484 H1480 0.949 1_554 S
C1484 C1492 1.574 . S
C1484 C1500 1.368 1_565 S
H1485 C1493 0.950 . S
H1486 C1491 0.950 . S
H1487 C1492 0.949 . S
H1488 C1494 0.950 . S
H1489 C1495 0.950 . S
H1490 C1496 0.949 . S
C1491 H1486 0.950 . S
C1491 C1493 1.327 . S
C1491 C1497 1.429 . S
C1492 C1484 1.574 . S
C1492 H1487 0.949 . S
C1492 C1498 1.368 . S
C1493 C1477 1.349 . S
C1493 H1485 0.950 . S
C1493 C1491 1.327 . S
C1494 C1482 1.349 . S
C1494 H1488 0.950 . S
C1494 C1495 1.327 . S
C1495 H1489 0.950 . S
C1495 C1494 1.327 . S
C1495 C1499 1.429 . S
C1496 C1479 1.574 . S
C1496 H1490 0.949 . S
C1496 C1500 1.368 . S
C1497 C1478 1.429 . S
C1497 C1491 1.429 . S
C1497 C1498 1.523 . S
C1498 C1479 1.368 1_565 S
C1498 C1492 1.368 . S
C1498 C1497 1.523 . S
C1499 C1483 1.429 . S
C1499 C1495 1.429 . S
C1499 C1500 1.523 1_556 S
C1500 C1484 1.368 1_545 S
C1500 C1496 1.368 . S
C1500 C1499 1.523 1_554 S
H1501 C1476 0.950 . S
H1502 C1478 0.950 . S
H1503 C1479 0.949 . S
H1504 C1481 0.950 . S
H1505 C1483 0.950 1_554 S
C1506 C1507 1.349 . S
C1506 C1508 1.327 . S
C1506 H1531 0.950 . S
C1507 C1506 1.349 . S
C1507 C1523 1.349 . S
C1508 C1506 1.327 . S
C1508 C1527 1.429 . S
C1508 H1532 0.950 . S
C1509 C1526 1.574 . S
C1509 C1528 1.368 1_565 S
C1509 H1533 0.949 . S
H1510 C1514 0.949 . S
C1511 C1512 1.349 . S
C1511 C1513 1.327 . S
C1511 H1534 0.950 . S
C1512 C1511 1.349 . S
C1512 C1524 1.349 . S
C1513 C1511 1.327 . S
C1513 C1529 1.429 . S
C1513 H1535 0.950 . S
C1514 H1510 0.949 . S
C1514 C1522 1.574 . S
C1514 C1530 1.368 1_545 S
H1515 C1523 0.950 . S
H1516 C1521 0.950 . S
H1517 C1522 0.949 . S
H1518 C1524 0.950 . S
H1519 C1525 0.950 . S
H1520 C1526 0.949 . S
C1521 H1516 0.950 . S
C1521 C1523 1.327 . S
C1521 C1527 1.429 . S
C1522 C1514 1.574 . S
C1522 H1517 0.949 . S
C1522 C1528 1.368 . S
C1523 C1507 1.349 . S
C1523 H1515 0.950 . S
C1523 C1521 1.327 . S
C1524 C1512 1.349 . S
C1524 H1518 0.950 . S
C1524 C1525 1.327 . S
C1525 H1519 0.950 . S
C1525 C1524 1.327 . S
C1525 C1529 1.429 . S
C1526 C1509 1.574 . S
C1526 H1520 0.949 . S
C1526 C1530 1.368 . S
C1527 C1508 1.429 . S
C1527 C1521 1.429 . S
C1527 C1528 1.523 . S
C1528 C1509 1.368 1_545 S
C1528 C1522 1.368 . S
C1528 C1527 1.523 . S
C1529 C1513 1.429 . S
C1529 C1525 1.429 . S
C1529 C1530 1.523 . S
C1530 C1514 1.368 1_565 S
C1530 C1526 1.368 . S
C1530 C1529 1.523 . S
H1531 C1506 0.950 . S
H1532 C1508 0.950 . S
H1533 C1509 0.949 . S
H1534 C1511 0.950 . S
H1535 C1513 0.950 . S
C577 C338 1.345 . S
C582 C14 1.345 . S
C607 C518 1.345 . S
C612 C50 1.345 . S
C637 C86 1.345 . S
C642 C302 1.345 . S
C667 C122 1.343 1_554 S
C672 C554 1.345 1_655 S
C697 C158 1.345 . S
C702 C374 1.344 1_554 S
C727 C482 1.345 1_655 S
C732 C194 1.345 . S
C757 C410 1.345 . S
C762 C230 1.345 . S
C787 C266 1.345 . S
C792 C446 1.344 . S
C817 C148 1.453 . S
C822 C112 1.453 . S
C847 C436 1.453 . S
C852 C292 1.453 . S
C877 C220 1.453 . S
C882 C40 1.453 . S
C907 C328 1.453 . S
C912 C472 1.453 . S
C937 C4 1.453 . S
C942 C184 1.453 . S
C967 C544 1.453 . S
C972 C364 1.453 . S
C997 C256 1.453 . S
C1002 C76 1.453 . S
C1027 C400 1.453 . S
C1032 C508 1.453 . S
C1057 C2 0.262 . S
C1062 C146 0.262 . S
C1087 C182 0.262 . S
C1092 C38 0.262 . S
C1117 C218 0.263 . S
C1122 C74 0.263 . S
C1147 C110 0.262 . S
C1152 C254 0.262 . S
C1177 C362 0.262 . S
C1182 C290 0.262 . S
C1207 C398 0.262 . S
C1212 C326 0.262 . S
C1237 C506 0.263 . S
C1242 C434 0.263 . S
C1267 C542 0.263 . S
C1272 C470 0.263 . S
C1297 C147 1.781 . S
C1302 C3 1.781 . S
C1327 C183 1.781 1_556 S
C1332 C39 1.781 . S
C1357 C219 1.780 . S
C1362 C75 1.780 . S
C1387 C111 1.780 . S
C1392 C255 1.780 . S
C1417 C291 1.780 . S
C1422 C363 1.780 . S
C1447 C399 1.780 . S
C1452 C327 1.780 1_556 S
C1477 C507 1.780 . S
C1482 C435 1.780 . S
C1507 C543 1.780 . S
C1512 C471 1.780 . S
