# Generated by pormake.
# Topology upd, (4)-cn, num edge types: 1
# Building blocks:
#     Node 0, Type 0, BuildingBlock: NAWXER_clean_sbu_0, # of connection points: 4
#     Node 1, Type 0, BuildingBlock: NAWXER_clean_sbu_0, # of connection points: 4
#     Node 2, Type 0, BuildingBlock: NAWXER_clean_sbu_0, # of connection points: 4
#     Node 3, Type 0, BuildingBlock: NAWXER_clean_sbu_0, # of connection points: 4
#     Node 4, Type 0, BuildingBlock: NAWXER_clean_sbu_0, # of connection points: 4
#     Node 5, Type 0, BuildingBlock: NAWXER_clean_sbu_0, # of connection points: 4
#     Node 6, Type 0, BuildingBlock: NAWXER_clean_sbu_0, # of connection points: 4
#     Node 7, Type 0, BuildingBlock: NAWXER_clean_sbu_0, # of connection points: 4
#     Node 8, Type 0, BuildingBlock: NAWXER_clean_sbu_0, # of connection points: 4
#     Node 9, Type 0, BuildingBlock: NAWXER_clean_sbu_0, # of connection points: 4
#     Node 10, Type 0, BuildingBlock: NAWXER_clean_sbu_0, # of connection points: 4
#     Node 11, Type 0, BuildingBlock: NAWXER_clean_sbu_0, # of connection points: 4
#     Node 12, Type 0, BuildingBlock: NAWXER_clean_sbu_0, # of connection points: 4
#     Node 13, Type 0, BuildingBlock: NAWXER_clean_sbu_0, # of connection points: 4
#     Node 14, Type 0, BuildingBlock: NAWXER_clean_sbu_0, # of connection points: 4
#     Node 15, Type 0, BuildingBlock: NAWXER_clean_sbu_0, # of connection points: 4
#     Node 16, Type 0, BuildingBlock: NAWXER_clean_sbu_0, # of connection points: 4
#     Node 17, Type 0, BuildingBlock: NAWXER_clean_sbu_0, # of connection points: 4
#     Node 18, Type 0, BuildingBlock: NAWXER_clean_sbu_0, # of connection points: 4
#     Node 19, Type 0, BuildingBlock: NAWXER_clean_sbu_0, # of connection points: 4
#     Node 20, Type 0, BuildingBlock: NAWXER_clean_sbu_0, # of connection points: 4
#     Node 21, Type 0, BuildingBlock: NAWXER_clean_sbu_0, # of connection points: 4
#     Node 22, Type 0, BuildingBlock: NAWXER_clean_sbu_0, # of connection points: 4
#     Node 23, Type 0, BuildingBlock: NAWXER_clean_sbu_0, # of connection points: 4
#     Node 24, Type 0, BuildingBlock: NAWXER_clean_sbu_0, # of connection points: 4
#     Node 25, Type 0, BuildingBlock: NAWXER_clean_sbu_0, # of connection points: 4
#     Node 26, Type 0, BuildingBlock: NAWXER_clean_sbu_0, # of connection points: 4
#     Node 27, Type 0, BuildingBlock: NAWXER_clean_sbu_0, # of connection points: 4
#     Node 28, Type 0, BuildingBlock: NAWXER_clean_sbu_0, # of connection points: 4
#     Node 29, Type 0, BuildingBlock: NAWXER_clean_sbu_0, # of connection points: 4
#     Node 30, Type 0, BuildingBlock: NAWXER_clean_sbu_0, # of connection points: 4
#     Node 31, Type 0, BuildingBlock: NAWXER_clean_sbu_0, # of connection points: 4
#     Edge 32, Type (0, 0), BuildingBlock: MIFKUJ_clean_linker_0, # of connection points: 2
#     Edge 33, Type (0, 0), BuildingBlock: MIFKUJ_clean_linker_0, # of connection points: 2
#     Edge 34, Type (0, 0), BuildingBlock: MIFKUJ_clean_linker_0, # of connection points: 2
#     Edge 35, Type (0, 0), BuildingBlock: MIFKUJ_clean_linker_0, # of connection points: 2
#     Edge 36, Type (0, 0), BuildingBlock: MIFKUJ_clean_linker_0, # of connection points: 2
#     Edge 37, Type (0, 0), BuildingBlock: MIFKUJ_clean_linker_0, # of connection points: 2
#     Edge 38, Type (0, 0), BuildingBlock: MIFKUJ_clean_linker_0, # of connection points: 2
#     Edge 39, Type (0, 0), BuildingBlock: MIFKUJ_clean_linker_0, # of connection points: 2
#     Edge 40, Type (0, 0), BuildingBlock: MIFKUJ_clean_linker_0, # of connection points: 2
#     Edge 41, Type (0, 0), BuildingBlock: MIFKUJ_clean_linker_0, # of connection points: 2
#     Edge 42, Type (0, 0), BuildingBlock: MIFKUJ_clean_linker_0, # of connection points: 2
#     Edge 43, Type (0, 0), BuildingBlock: MIFKUJ_clean_linker_0, # of connection points: 2
#     Edge 44, Type (0, 0), BuildingBlock: MIFKUJ_clean_linker_0, # of connection points: 2
#     Edge 45, Type (0, 0), BuildingBlock: MIFKUJ_clean_linker_0, # of connection points: 2
#     Edge 46, Type (0, 0), BuildingBlock: MIFKUJ_clean_linker_0, # of connection points: 2
#     Edge 47, Type (0, 0), BuildingBlock: MIFKUJ_clean_linker_0, # of connection points: 2
#     Edge 48, Type (0, 0), BuildingBlock: MIFKUJ_clean_linker_0, # of connection points: 2
#     Edge 49, Type (0, 0), BuildingBlock: MIFKUJ_clean_linker_0, # of connection points: 2
#     Edge 50, Type (0, 0), BuildingBlock: MIFKUJ_clean_linker_0, # of connection points: 2
#     Edge 51, Type (0, 0), BuildingBlock: MIFKUJ_clean_linker_0, # of connection points: 2
#     Edge 52, Type (0, 0), BuildingBlock: MIFKUJ_clean_linker_0, # of connection points: 2
#     Edge 53, Type (0, 0), BuildingBlock: MIFKUJ_clean_linker_0, # of connection points: 2
#     Edge 54, Type (0, 0), BuildingBlock: MIFKUJ_clean_linker_0, # of connection points: 2
#     Edge 55, Type (0, 0), BuildingBlock: MIFKUJ_clean_linker_0, # of connection points: 2
#     Edge 56, Type (0, 0), BuildingBlock: MIFKUJ_clean_linker_0, # of connection points: 2
#     Edge 57, Type (0, 0), BuildingBlock: MIFKUJ_clean_linker_0, # of connection points: 2
#     Edge 58, Type (0, 0), BuildingBlock: MIFKUJ_clean_linker_0, # of connection points: 2
#     Edge 59, Type (0, 0), BuildingBlock: MIFKUJ_clean_linker_0, # of connection points: 2
#     Edge 60, Type (0, 0), BuildingBlock: MIFKUJ_clean_linker_0, # of connection points: 2
#     Edge 61, Type (0, 0), BuildingBlock: MIFKUJ_clean_linker_0, # of connection points: 2
#     Edge 62, Type (0, 0), BuildingBlock: MIFKUJ_clean_linker_0, # of connection points: 2
#     Edge 63, Type (0, 0), BuildingBlock: MIFKUJ_clean_linker_0, # of connection points: 2
#     Edge 64, Type (0, 0), BuildingBlock: MIFKUJ_clean_linker_0, # of connection points: 2
#     Edge 65, Type (0, 0), BuildingBlock: MIFKUJ_clean_linker_0, # of connection points: 2
#     Edge 66, Type (0, 0), BuildingBlock: MIFKUJ_clean_linker_0, # of connection points: 2
#     Edge 67, Type (0, 0), BuildingBlock: MIFKUJ_clean_linker_0, # of connection points: 2
#     Edge 68, Type (0, 0), BuildingBlock: MIFKUJ_clean_linker_0, # of connection points: 2
#     Edge 69, Type (0, 0), BuildingBlock: MIFKUJ_clean_linker_0, # of connection points: 2
#     Edge 70, Type (0, 0), BuildingBlock: MIFKUJ_clean_linker_0, # of connection points: 2
#     Edge 71, Type (0, 0), BuildingBlock: MIFKUJ_clean_linker_0, # of connection points: 2
#     Edge 72, Type (0, 0), BuildingBlock: MIFKUJ_clean_linker_0, # of connection points: 2
#     Edge 73, Type (0, 0), BuildingBlock: MIFKUJ_clean_linker_0, # of connection points: 2
#     Edge 74, Type (0, 0), BuildingBlock: MIFKUJ_clean_linker_0, # of connection points: 2
#     Edge 75, Type (0, 0), BuildingBlock: MIFKUJ_clean_linker_0, # of connection points: 2
#     Edge 76, Type (0, 0), BuildingBlock: MIFKUJ_clean_linker_0, # of connection points: 2
#     Edge 77, Type (0, 0), BuildingBlock: MIFKUJ_clean_linker_0, # of connection points: 2
#     Edge 78, Type (0, 0), BuildingBlock: MIFKUJ_clean_linker_0, # of connection points: 2
#     Edge 79, Type (0, 0), BuildingBlock: MIFKUJ_clean_linker_0, # of connection points: 2
#     Edge 80, Type (0, 0), BuildingBlock: MIFKUJ_clean_linker_0, # of connection points: 2
#     Edge 81, Type (0, 0), BuildingBlock: MIFKUJ_clean_linker_0, # of connection points: 2
#     Edge 82, Type (0, 0), BuildingBlock: MIFKUJ_clean_linker_0, # of connection points: 2
#     Edge 83, Type (0, 0), BuildingBlock: MIFKUJ_clean_linker_0, # of connection points: 2
#     Edge 84, Type (0, 0), BuildingBlock: MIFKUJ_clean_linker_0, # of connection points: 2
#     Edge 85, Type (0, 0), BuildingBlock: MIFKUJ_clean_linker_0, # of connection points: 2
#     Edge 86, Type (0, 0), BuildingBlock: MIFKUJ_clean_linker_0, # of connection points: 2
#     Edge 87, Type (0, 0), BuildingBlock: MIFKUJ_clean_linker_0, # of connection points: 2
#     Edge 88, Type (0, 0), BuildingBlock: MIFKUJ_clean_linker_0, # of connection points: 2
#     Edge 89, Type (0, 0), BuildingBlock: MIFKUJ_clean_linker_0, # of connection points: 2
#     Edge 90, Type (0, 0), BuildingBlock: MIFKUJ_clean_linker_0, # of connection points: 2
#     Edge 91, Type (0, 0), BuildingBlock: MIFKUJ_clean_linker_0, # of connection points: 2
#     Edge 92, Type (0, 0), BuildingBlock: MIFKUJ_clean_linker_0, # of connection points: 2
#     Edge 93, Type (0, 0), BuildingBlock: MIFKUJ_clean_linker_0, # of connection points: 2
#     Edge 94, Type (0, 0), BuildingBlock: MIFKUJ_clean_linker_0, # of connection points: 2
#     Edge 95, Type (0, 0), BuildingBlock: MIFKUJ_clean_linker_0, # of connection points: 2
# Relax obj value: 0.044
# Max RMSD: 0.097
# Mean RMSD: 0.097
data_MOF--net-upd--node1-NAWXER_clean_sbu_0--edge1-MIFKUJ_clean_linker_0
_symmetry_space_group_name_H-M    P1
_symmetry_Int_Tables_number       1
_symmetry_cell_setting            triclinic
loop_
_symmetry_equiv_pos_as_xyz
'x, y, z'
_cell_length_a     52.369814
_cell_length_b     52.40659
_cell_length_c     100.24951
_cell_angle_alpha  90.022036
_cell_angle_beta   89.973486
_cell_angle_gamma 90.005073
loop_
_atom_site_label
_atom_site_type_symbol
_atom_site_fract_x
_atom_site_fract_y
_atom_site_fract_z
_atom_type_partial_charge
C0 C 0.16631 0.09928 0.29916 0.0
C1 C 0.16439 0.16795 0.33197 0.0
O2 O 0.14991 0.11658 0.29628 0.0
Zn3 Zn 0.13756 0.15255 0.30416 0.0
O4 O 0.18029 0.10178 0.30943 0.0
Zn5 Zn 0.16639 0.13401 0.31539 0.0
O6 O 0.12744 0.12495 0.32087 0.0
O7 O 0.10186 0.14627 0.30736 0.0
O8 O 0.17918 0.14872 0.33174 0.0
O9 O 0.14852 0.17138 0.32238 0.0
O10 O 0.14696 0.17669 0.29043 0.0
O11 O 0.1803 0.15999 0.30058 0.0
C12 C 0.1048 0.13098 0.31709 0.0
C13 C 0.17102 0.175 0.29173 0.0
C14 C 0.06174 0.90822 0.53719 0.0
C15 C 0.10177 0.84682 0.5669 0.0
O16 O 0.07484 0.91903 0.54642 0.0
Zn17 Zn 0.09812 0.90766 0.5631 0.0
O18 O 0.06052 0.88403 0.53671 0.0
Zn19 Zn 0.08159 0.87755 0.55203 0.0
O20 O 0.0583 0.89209 0.56802 0.0
O21 O 0.08031 0.9223 0.57816 0.0
O22 O 0.08719 0.84262 0.55702 0.0
O23 O 0.10729 0.86989 0.57008 0.0
O24 O 0.13089 0.9217 0.55816 0.0
O25 O 0.11865 0.88984 0.54525 0.0
C26 C 0.06007 0.90904 0.57721 0.0
C27 C 0.13515 0.90692 0.54836 0.0
C28 C 0.34174 0.83734 0.8332 0.0
C29 C 0.33587 0.9012 0.79811 0.0
O30 O 0.35648 0.83244 0.82331 0.0
Zn31 Zn 0.36659 0.84957 0.80454 0.0
O32 O 0.32769 0.85709 0.83296 0.0
Zn33 Zn 0.33859 0.86935 0.81569 0.0
O34 O 0.32411 0.84102 0.80185 0.0
O35 O 0.35758 0.82364 0.79199 0.0
O36 O 0.32417 0.90077 0.8092 0.0
O37 O 0.35186 0.88348 0.79525 0.0
O38 O 0.40242 0.85678 0.80698 0.0
O39 O 0.37732 0.87992 0.81985 0.0
C40 C 0.33353 0.82506 0.79345 0.0
C41 C 0.39978 0.87366 0.81596 0.0
C42 C 0.41378 0.08844 0.08703 0.0
C43 C 0.35418 0.08349 0.04984 0.0
O44 O 0.42039 0.10269 0.07721 0.0
Zn45 Zn 0.40595 0.11262 0.05782 0.0
O46 O 0.39373 0.07489 0.08615 0.0
Zn47 Zn 0.38396 0.08554 0.06842 0.0
O48 O 0.41337 0.06979 0.05557 0.0
O49 O 0.43287 0.10249 0.04612 0.0
O50 O 0.35282 0.07198 0.06096 0.0
O51 O 0.37277 0.0988 0.04753 0.0
O52 O 0.3995 0.14865 0.05968 0.0
O53 O 0.37401 0.12468 0.07192 0.0
C54 C 0.43048 0.07854 0.04759 0.0
C55 C 0.3814 0.14681 0.06807 0.0
C56 C 0.17174 0.83179 0.16854 0.0
C57 C 0.1681 0.89857 0.20232 0.0
O58 O 0.15565 0.8269 0.17784 0.0
Zn59 Zn 0.14151 0.84485 0.19569 0.0
O60 O 0.1846 0.85235 0.16888 0.0
Zn61 Zn 0.17025 0.86522 0.18532 0.0
O62 O 0.18398 0.83836 0.19994 0.0
O63 O 0.15033 0.82046 0.2093 0.0
O64 O 0.18261 0.89739 0.19218 0.0
O65 O 0.1521 0.88055 0.20456 0.0
O66 O 0.10594 0.84956 0.19146 0.0
O67 O 0.13164 0.87311 0.17911 0.0
C68 C 0.17443 0.82264 0.20839 0.0
C69 C 0.109 0.86569 0.18213 0.0
C70 C 0.34351 0.91481 0.45555 0.0
C71 C 0.40971 0.919 0.42134 0.0
O72 O 0.36128 0.89837 0.45743 0.0
Zn73 Zn 0.39679 0.8879 0.44829 0.0
O74 O 0.345 0.9301 0.44576 0.0
Zn75 Zn 0.37701 0.9178 0.43857 0.0
O76 O 0.36856 0.87982 0.43157 0.0
O77 O 0.3911 0.8527 0.44361 0.0
O78 O 0.38976 0.93272 0.42224 0.0
O79 O 0.41451 0.90231 0.43036 0.0
O80 O 0.42167 0.89536 0.46187 0.0
O81 O 0.40434 0.92999 0.45328 0.0
C82 C 0.37537 0.85685 0.4342 0.0
C83 C 0.41998 0.91952 0.46147 0.0
C84 C 0.33824 0.18013 0.70791 0.0
C85 C 0.40388 0.13319 0.68378 0.0
O86 O 0.32861 0.16419 0.69956 0.0
Zn87 Zn 0.3427 0.1362 0.68537 0.0
O88 O 0.36234 0.18187 0.70903 0.0
Zn89 Zn 0.3709 0.15634 0.69611 0.0
O90 O 0.35866 0.17383 0.67768 0.0
O91 O 0.32979 0.14845 0.66859 0.0
O92 O 0.40669 0.1494 0.69308 0.0
O93 O 0.38131 0.12683 0.68013 0.0
O94 O 0.32933 0.10439 0.69207 0.0
O95 O 0.35711 0.12239 0.70568 0.0
C96 C 0.34306 0.16873 0.66817 0.0
C97 C 0.34135 0.10436 0.70306 0.0
C98 C 0.12054 0.14676 0.93235 0.0
C99 C 0.07965 0.07971 0.95809 0.0
O100 O 0.12802 0.12447 0.9288 0.0
Zn101 Zn 0.12205 0.08571 0.93489 0.0
O102 O 0.10551 0.14911 0.9422 0.0
Zn103 Zn 0.10111 0.11314 0.94575 0.0
O104 O 0.1364 0.10187 0.95482 0.0
O105 O 0.15511 0.07479 0.9411 0.0
O106 O 0.07676 0.10371 0.95906 0.0
O107 O 0.09566 0.07062 0.94961 0.0
O108 O 0.10968 0.07136 0.91847 0.0
O109 O 0.08327 0.0992 0.92768 0.0
C110 C 0.1552 0.08718 0.95198 0.0
C111 C 0.08874 0.08358 0.91824 0.0
C112 C 0.86116 0.89013 0.67246 0.0
C113 C 0.79939 0.84244 0.69936 0.0
O114 O 0.87138 0.87645 0.68161 0.0
Zn115 Zn 0.86016 0.85054 0.69694 0.0
O116 O 0.83698 0.8907 0.67127 0.0
Zn117 Zn 0.8294 0.86759 0.68596 0.0
O118 O 0.84135 0.88829 0.70325 0.0
O119 O 0.87226 0.86674 0.71312 0.0
O120 O 0.7943 0.85864 0.69029 0.0
O121 O 0.82273 0.83811 0.70248 0.0
O122 O 0.87593 0.81919 0.69057 0.0
O123 O 0.84382 0.83253 0.67809 0.0
C124 C 0.85752 0.88601 0.71278 0.0
C125 C 0.86141 0.81618 0.68052 0.0
C126 C 0.88019 0.14915 0.43008 0.0
C127 C 0.92294 0.07867 0.45222 0.0
O128 O 0.89731 0.1501 0.43903 0.0
Zn129 Zn 0.90118 0.11387 0.44144 0.0
O130 O 0.87182 0.12739 0.42617 0.0
Zn131 Zn 0.87875 0.08781 0.43035 0.0
O132 O 0.84639 0.07604 0.43726 0.0
O133 O 0.86614 0.10266 0.45081 0.0
O134 O 0.9061 0.07086 0.44385 0.0
O135 O 0.92627 0.10245 0.45393 0.0
O136 O 0.9173 0.10183 0.42274 0.0
O137 O 0.88986 0.07568 0.41307 0.0
C138 C 0.84704 0.08818 0.44822 0.0
C139 C 0.91105 0.08749 0.4129 0.0
C140 C 0.65219 0.17416 0.17141 0.0
C141 C 0.65737 0.10786 0.20526 0.0
O142 O 0.66715 0.15507 0.17163 0.0
Zn143 Zn 0.65529 0.14108 0.18834 0.0
O144 O 0.6368 0.17797 0.18116 0.0
Zn145 Zn 0.62719 0.16017 0.19983 0.0
O146 O 0.63682 0.18545 0.21282 0.0
O147 O 0.66986 0.16803 0.20265 0.0
O148 O 0.64156 0.12555 0.20841 0.0
O149 O 0.66929 0.10897 0.19424 0.0
O150 O 0.61631 0.13122 0.1838 0.0
O151 O 0.59138 0.1529 0.19746 0.0
C152 C 0.66084 0.18367 0.2113 0.0
C153 C 0.59387 0.13703 0.18796 0.0
C154 C 0.57037 0.91096 0.96057 0.0
C155 C 0.61714 0.8476 0.93483 0.0
O156 O 0.56924 0.88681 0.96146 0.0
Zn157 Zn 0.59433 0.87925 0.94805 0.0
O158 O 0.58562 0.92124 0.9521 0.0
Zn159 Zn 0.6129 0.90867 0.93735 0.0
O160 O 0.59868 0.92206 0.92099 0.0
O161 O 0.57584 0.89105 0.92991 0.0
O162 O 0.62308 0.87046 0.93148 0.0
O163 O 0.60139 0.84392 0.94427 0.0
O164 O 0.62886 0.89313 0.95704 0.0
O165 O 0.64473 0.92262 0.94369 0.0
C166 C 0.57943 0.9073 0.92052 0.0
C167 C 0.64618 0.90967 0.95437 0.0
C168 C 0.83286 0.16505 0.83566 0.0
C169 C 0.84079 0.09399 0.80458 0.0
O170 O 0.82114 0.14383 0.83599 0.0
Zn171 Zn 0.83591 0.12989 0.81995 0.0
O172 O 0.84859 0.16973 0.82615 0.0
Zn173 Zn 0.86333 0.15045 0.80876 0.0
O174 O 0.85284 0.1724 0.79443 0.0
O175 O 0.8203 0.154 0.80455 0.0
O176 O 0.85518 0.11286 0.80143 0.0
O177 O 0.82611 0.09585 0.81462 0.0
O178 O 0.87503 0.12502 0.82606 0.0
O179 O 0.89936 0.14812 0.81274 0.0
C180 C 0.82891 0.16919 0.79556 0.0
C181 C 0.89723 0.13295 0.82257 0.0
C182 C 0.58854 0.09053 0.58429 0.0
C183 C 0.64779 0.09015 0.54674 0.0
O184 O 0.60895 0.0776 0.58315 0.0
Zn185 Zn 0.61828 0.08984 0.56557 0.0
O186 O 0.58158 0.10544 0.57483 0.0
Zn187 Zn 0.59563 0.11759 0.55575 0.0
O188 O 0.56858 0.10778 0.54393 0.0
O189 O 0.58875 0.07482 0.55268 0.0
O190 O 0.62906 0.1056 0.54506 0.0
O191 O 0.64918 0.07717 0.55742 0.0
O192 O 0.62773 0.12876 0.56997 0.0
O193 O 0.60137 0.15354 0.55872 0.0
C194 C 0.57129 0.08378 0.545 0.0
C195 C 0.61981 0.15112 0.56685 0.0
C196 C 0.64868 0.90011 0.29776 0.0
C197 C 0.65353 0.83196 0.33054 0.0
O198 O 0.66182 0.89951 0.3084 0.0
Zn199 Zn 0.65051 0.86658 0.31463 0.0
O200 O 0.63324 0.8818 0.29513 0.0
Zn201 Zn 0.62152 0.84661 0.30416 0.0
O202 O 0.58589 0.85211 0.30898 0.0
O203 O 0.61267 0.87362 0.32164 0.0
O204 O 0.63692 0.82753 0.32143 0.0
O205 O 0.666 0.85278 0.33048 0.0
O206 O 0.66362 0.84066 0.29927 0.0
O207 O 0.62967 0.82254 0.29025 0.0
C208 C 0.58977 0.86701 0.31877 0.0
C209 C 0.6538 0.82514 0.29078 0.0
C210 C 0.93113 0.91052 0.04015 0.0
C211 C 0.88312 0.84419 0.06297 0.0
O212 O 0.93229 0.88651 0.0385 0.0
Zn213 Zn 0.90706 0.87743 0.05145 0.0
O214 O 0.91574 0.91981 0.04888 0.0
Zn215 Zn 0.8883 0.9053 0.06317 0.0
O216 O 0.90234 0.91601 0.08012 0.0
O217 O 0.92566 0.88691 0.0699 0.0
O218 O 0.87751 0.86656 0.06724 0.0
O219 O 0.8994 0.8417 0.05366 0.0
O220 O 0.87282 0.8929 0.04285 0.0
O221 O 0.85643 0.92008 0.05738 0.0
C222 C 0.92194 0.90172 0.07991 0.0
C223 C 0.85535 0.90882 0.04618 0.0
C224 C 0.64884 0.61548 0.78977 0.0
C225 C 0.64684 0.68161 0.82374 0.0
O226 O 0.62943 0.63019 0.7884 0.0
Zn227 Zn 0.61465 0.66398 0.79793 0.0
O228 O 0.66491 0.61986 0.79896 0.0
Zn229 Zn 0.64859 0.64956 0.80631 0.0
O230 O 0.61316 0.63504 0.81484 0.0
O231 O 0.58154 0.65298 0.80369 0.0
O232 O 0.66444 0.66546 0.82157 0.0
O233 O 0.62772 0.68302 0.81578 0.0
O234 O 0.61624 0.68998 0.78422 0.0
O235 O 0.65421 0.67744 0.79096 0.0
C236 C 0.58909 0.63824 0.81295 0.0
C237 C 0.64037 0.69141 0.78335 0.0
C238 C 0.57891 0.42701 0.04505 0.0
C239 C 0.62544 0.36101 0.06889 0.0
O240 O 0.59513 0.43646 0.05329 0.0
Zn241 Zn 0.62357 0.42236 0.06699 0.0
O242 O 0.57718 0.40296 0.04381 0.0
Zn243 Zn 0.60294 0.39393 0.05655 0.0
O244 O 0.58641 0.40605 0.07516 0.0
O245 O 0.61191 0.43502 0.08406 0.0
O246 O 0.60876 0.35828 0.05981 0.0
O247 O 0.63266 0.38353 0.07223 0.0
O248 O 0.65494 0.43585 0.05963 0.0
O249 O 0.63747 0.40607 0.04703 0.0
C250 C 0.59182 0.42145 0.0847 0.0
C251 C 0.65539 0.42224 0.04915 0.0
C252 C 0.84787 0.33785 0.33042 0.0
C253 C 0.84759 0.40287 0.2958 0.0
O254 O 0.86244 0.33225 0.32055 0.0
Zn255 Zn 0.87396 0.34889 0.3019 0.0
O256 O 0.83538 0.35864 0.33031 0.0
Zn257 Zn 0.84781 0.37057 0.3133 0.0
O258 O 0.83088 0.34377 0.29946 0.0
O259 O 0.86252 0.32407 0.28917 0.0
O260 O 0.83581 0.40309 0.30688 0.0
O261 O 0.8622 0.38402 0.29292 0.0
O262 O 0.9102 0.35298 0.30427 0.0
O263 O 0.88752 0.37735 0.31773 0.0
C264 C 0.8387 0.3273 0.29089 0.0
C265 C 0.90929 0.36929 0.31363 0.0
C266 C 0.92777 0.57438 0.58381 0.0
C267 C 0.85927 0.58026 0.55107 0.0
O268 O 0.93099 0.59253 0.5754 0.0
Zn269 Zn 0.9124 0.60766 0.558 0.0
O270 O 0.90921 0.55897 0.5824 0.0
Zn271 Zn 0.89418 0.57607 0.56715 0.0
O272 O 0.92005 0.56636 0.55141 0.0
O273 O 0.93669 0.6021 0.54379 0.0
O274 O 0.8618 0.56399 0.56036 0.0
O275 O 0.87649 0.59734 0.54933 0.0
O276 O 0.90667 0.64202 0.56391 0.0
O277 O 0.8858 0.61318 0.57572 0.0
C278 C 0.93501 0.57795 0.5433 0.0
C279 C 0.89225 0.63652 0.57371 0.0
C280 C 0.6634 0.32103 0.71305 0.0
C281 C 0.6032 0.36635 0.6844 0.0
O282 O 0.67454 0.33498 0.70431 0.0
Zn283 Zn 0.66408 0.36077 0.68871 0.0
O284 O 0.63917 0.32082 0.71362 0.0
Zn285 Zn 0.63276 0.3444 0.69913 0.0
O286 O 0.64543 0.32382 0.68172 0.0
O287 O 0.67821 0.3445 0.67307 0.0
O288 O 0.5979 0.35207 0.69428 0.0
O289 O 0.62662 0.37096 0.6815 0.0
O290 O 0.67827 0.39296 0.69456 0.0
O291 O 0.64535 0.38048 0.70666 0.0
C292 C 0.66262 0.32591 0.67266 0.0
C293 C 0.66276 0.39696 0.70408 0.0
C294 C 0.84925 0.4218 0.9495 0.0
C295 C 0.92017 0.4155 0.91814 0.0
O296 O 0.86491 0.4039 0.95246 0.0
Zn297 Zn 0.90027 0.3889 0.9452 0.0
O298 O 0.85365 0.43608 0.93952 0.0
Zn299 Zn 0.88513 0.41979 0.934 0.0
O300 O 0.87334 0.38208 0.92773 0.0
O301 O 0.891 0.35409 0.9414 0.0
O302 O 0.90235 0.43198 0.91818 0.0
O303 O 0.92139 0.39897 0.92755 0.0
O304 O 0.92399 0.39562 0.95958 0.0
O305 O 0.91081 0.43067 0.9496 0.0
C306 C 0.87698 0.35886 0.93135 0.0
C307 C 0.92426 0.41979 0.95863 0.0
C308 C 0.8239 0.68404 0.20525 0.0
C309 C 0.89095 0.63791 0.18151 0.0
O310 O 0.81486 0.66712 0.19728 0.0
Zn311 Zn 0.82954 0.63911 0.18348 0.0
O312 O 0.84792 0.68707 0.20607 0.0
Zn313 Zn 0.85762 0.66117 0.19342 0.0
O314 O 0.84456 0.67642 0.17482 0.0
O315 O 0.81603 0.64988 0.16646 0.0
O316 O 0.89352 0.65601 0.18985 0.0
O317 O 0.86851 0.62999 0.17848 0.0
O318 O 0.81738 0.60756 0.19095 0.0
O319 O 0.84658 0.62654 0.20335 0.0
C320 C 0.82896 0.67031 0.1655 0.0
C321 C 0.83112 0.60792 0.20139 0.0
C322 C 0.66072 0.58356 0.45261 0.0
C323 C 0.59309 0.58159 0.4192 0.0
O324 O 0.64353 0.60048 0.45476 0.0
Zn325 Zn 0.6081 0.61216 0.44603 0.0
O326 O 0.65845 0.56851 0.44275 0.0
Zn327 Zn 0.62657 0.58186 0.43595 0.0
O328 O 0.63573 0.61965 0.42895 0.0
O329 O 0.61457 0.64719 0.44143 0.0
O330 O 0.61276 0.56741 0.41977 0.0
O331 O 0.58916 0.59835 0.42831 0.0
O332 O 0.58354 0.60541 0.45982 0.0
O333 O 0.59929 0.57034 0.45085 0.0
C334 C 0.62968 0.64275 0.43178 0.0
C335 C 0.5843 0.58122 0.45924 0.0
C336 C 0.40737 0.36833 0.18446 0.0
C337 C 0.34241 0.32188 0.2097 0.0
O338 O 0.41098 0.35328 0.19421 0.0
Zn339 Zn 0.37527 0.3456 0.19767 0.0
O340 O 0.38451 0.37386 0.18092 0.0
Zn341 Zn 0.3462 0.36466 0.18668 0.0
O342 O 0.33286 0.3969 0.19307 0.0
O343 O 0.3611 0.37973 0.20673 0.0
O344 O 0.33287 0.33755 0.20122 0.0
O345 O 0.36654 0.32013 0.21083 0.0
O346 O 0.36373 0.32744 0.17939 0.0
O347 O 0.33298 0.3504 0.17027 0.0
C348 C 0.34515 0.39751 0.20399 0.0
C349 C 0.34767 0.33108 0.16991 0.0
C350 C 0.41944 0.59431 0.92235 0.0
C351 C 0.35076 0.59042 0.95526 0.0
O352 O 0.4004 0.57925 0.92249 0.0
Zn353 Zn 0.38493 0.59231 0.9386 0.0
O354 O 0.42209 0.61071 0.93176 0.0
Zn355 Zn 0.40201 0.62229 0.94959 0.0
O356 O 0.42655 0.61531 0.96341 0.0
O357 O 0.41171 0.58057 0.95368 0.0
O358 O 0.36737 0.60761 0.95802 0.0
O359 O 0.35328 0.57725 0.9447 0.0
O360 O 0.37457 0.63024 0.93236 0.0
O361 O 0.39387 0.65743 0.94579 0.0
C362 C 0.42616 0.59114 0.96242 0.0
C363 C 0.37941 0.6533 0.93585 0.0
C364 C 0.1699 0.60242 0.7026 0.0
C365 C 0.16264 0.66731 0.66813 0.0
O366 O 0.1817 0.60331 0.69154 0.0
Zn367 Zn 0.16627 0.6344 0.68523 0.0
O368 O 0.15327 0.61951 0.7055 0.0
Zn369 Zn 0.13734 0.65303 0.69634 0.0
O370 O 0.10189 0.64466 0.69352 0.0
O371 O 0.12805 0.62214 0.68089 0.0
O372 O 0.14736 0.67105 0.67793 0.0
O373 O 0.17736 0.64805 0.66824 0.0
O374 O 0.17941 0.66256 0.69951 0.0
O375 O 0.14521 0.67888 0.70919 0.0
C376 C 0.10533 0.62768 0.68466 0.0
C377 C 0.16934 0.67802 0.70796 0.0
C378 C 0.15309 0.41305 0.45229 0.0
C379 C 0.09344 0.403 0.41532 0.0
O380 O 0.15389 0.42366 0.44091 0.0
Zn381 Zn 0.12312 0.40865 0.4339 0.0
O382 O 0.135 0.39739 0.45503 0.0
Zn383 Zn 0.10202 0.38181 0.44513 0.0
O384 O 0.10942 0.34582 0.44413 0.0
O385 O 0.13407 0.36945 0.43124 0.0
O386 O 0.08753 0.38921 0.42544 0.0
O387 O 0.11266 0.41774 0.41601 0.0
O388 O 0.09364 0.42467 0.44648 0.0
O389 O 0.0746 0.39237 0.4565 0.0
C390 C 0.12732 0.34747 0.43562 0.0
C391 C 0.07662 0.41623 0.45458 0.0
C392 C 0.34476 0.66946 0.33222 0.0
C393 C 0.34707 0.60143 0.29917 0.0
O394 O 0.33183 0.64892 0.3322 0.0
Zn395 Zn 0.34634 0.635 0.3161 0.0
O396 O 0.36103 0.6737 0.32291 0.0
Zn397 Zn 0.37524 0.65452 0.30535 0.0
O398 O 0.36696 0.67876 0.29159 0.0
O399 O 0.33303 0.66129 0.30098 0.0
O400 O 0.36272 0.6195 0.29644 0.0
O401 O 0.33421 0.60226 0.3099 0.0
O402 O 0.38442 0.62732 0.32265 0.0
O403 O 0.41095 0.64845 0.30966 0.0
C404 C 0.34281 0.67665 0.2924 0.0
C405 C 0.40727 0.63359 0.31948 0.0
C406 C 0.08206 0.58412 0.08479 0.0
C407 C 0.15065 0.58057 0.05161 0.0
O408 O 0.101 0.5689 0.08477 0.0
Zn409 Zn 0.1166 0.58157 0.06846 0.0
O410 O 0.07957 0.60027 0.07527 0.0
Zn411 Zn 0.09905 0.61165 0.05743 0.0
O412 O 0.07426 0.60394 0.04375 0.0
O413 O 0.08973 0.56955 0.05353 0.0
O414 O 0.13364 0.59744 0.04905 0.0
O415 O 0.14851 0.56698 0.06206 0.0
O416 O 0.12706 0.61958 0.07444 0.0
O417 O 0.10735 0.64687 0.0612 0.0
C418 C 0.07496 0.57978 0.04484 0.0
C419 C 0.12223 0.64264 0.07097 0.0
C420 C 0.16044 0.33564 0.83253 0.0
C421 C 0.16768 0.39954 0.79755 0.0
O422 O 0.17462 0.35531 0.83246 0.0
Zn423 Zn 0.16421 0.36772 0.81516 0.0
O424 O 0.14591 0.33095 0.82252 0.0
Zn425 Zn 0.13623 0.3483 0.80377 0.0
O426 O 0.14543 0.32241 0.79117 0.0
O427 O 0.1787 0.33919 0.80148 0.0
O428 O 0.15147 0.38206 0.79463 0.0
O429 O 0.17917 0.39893 0.80869 0.0
O430 O 0.12552 0.37852 0.81922 0.0
O431 O 0.10038 0.35582 0.80617 0.0
C432 C 0.16944 0.32345 0.79292 0.0
C433 C 0.10305 0.37248 0.81527 0.0
C434 C 0.4198 0.41986 0.58338 0.0
C435 C 0.35315 0.41877 0.54949 0.0
O436 O 0.3994 0.43301 0.58324 0.0
Zn437 Zn 0.38605 0.41907 0.5668 0.0
O438 O 0.42427 0.40385 0.57398 0.0
Zn439 Zn 0.40584 0.39037 0.55609 0.0
O440 O 0.43068 0.39848 0.54276 0.0
O441 O 0.41319 0.43254 0.55202 0.0
O442 O 0.37136 0.40323 0.54687 0.0
O443 O 0.35345 0.43136 0.56031 0.0
O444 O 0.37795 0.38077 0.57297 0.0
O445 O 0.39949 0.35472 0.55987 0.0
C446 C 0.42883 0.42261 0.5436 0.0
C447 C 0.38429 0.35806 0.56958 0.0
H448 H 0.17175 0.34357 0.42167 0.0
H449 H 0.18374 0.30917 0.40649 0.0
H450 H 0.11863 0.26531 0.41949 0.0
H451 H 0.10678 0.29949 0.43493 0.0
H452 H 0.15853 0.23426 0.41203 0.0
H453 H 0.11187 0.30546 0.39546 0.0
H454 H 0.10307 0.35096 0.39141 0.0
H455 H 0.17089 0.35667 0.36751 0.0
H456 H 0.18051 0.31129 0.37174 0.0
H457 H 0.12947 0.20503 0.33733 0.0
H458 H 0.12724 0.23273 0.35678 0.0
H459 H 0.19666 0.19937 0.37206 0.0
H460 H 0.19856 0.17084 0.35271 0.0
H461 H 0.15513 0.26859 0.36592 0.0
H462 H 0.19536 0.19974 0.40611 0.0
H463 H 0.19749 0.15349 0.41062 0.0
H464 H 0.13025 0.1415 0.38693 0.0
H465 H 0.12754 0.18767 0.38243 0.0
C466 C 0.16042 0.32628 0.4216 0.0
C467 C 0.13803 0.32441 0.42928 0.0
C468 C 0.16733 0.30663 0.41294 0.0
C469 C 0.15171 0.28501 0.41165 0.0
C470 C 0.13086 0.28191 0.4203 0.0
C471 C 0.12408 0.30149 0.4291 0.0
C472 C 0.15463 0.26798 0.39996 0.0
C473 C 0.15805 0.24172 0.40194 0.0
C474 C 0.15303 0.27771 0.3868 0.0
C475 C 0.14712 0.30499 0.38407 0.0
C476 C 0.12514 0.31648 0.3895 0.0
C477 C 0.11998 0.34227 0.38717 0.0
C478 C 0.13646 0.35673 0.37925 0.0
C479 C 0.15815 0.34544 0.37366 0.0
C480 C 0.16348 0.31968 0.37604 0.0
C481 C 0.14436 0.20359 0.34478 0.0
C482 C 0.16418 0.18565 0.34348 0.0
C483 C 0.14307 0.21951 0.35591 0.0
C484 C 0.16163 0.21802 0.36597 0.0
C485 C 0.18184 0.20057 0.36455 0.0
C486 C 0.18299 0.18437 0.35346 0.0
C487 C 0.15953 0.23473 0.37791 0.0
C488 C 0.15607 0.26105 0.37598 0.0
C489 C 0.16011 0.22489 0.39108 0.0
C490 C 0.16146 0.19712 0.39381 0.0
C491 C 0.18101 0.18723 0.40189 0.0
C492 C 0.18231 0.16103 0.40445 0.0
C493 C 0.16407 0.14456 0.39903 0.0
C494 C 0.14443 0.15426 0.39108 0.0
C495 C 0.14302 0.18043 0.38851 0.0
H496 H 0.16512 0.12429 0.40101 0.0
H497 H 0.13236 0.37667 0.3774 0.0
H498 H 0.00995 0.89763 0.57315 0.0
H499 H 0.97463 0.90155 0.58904 0.0
H500 H 0.02637 0.93177 0.61851 0.0
H501 H 0.06178 0.92856 0.60252 0.0
H502 H 0.99335 0.88597 0.62566 0.0
H503 H 0.98984 0.97173 0.60773 0.0
H504 H 0.98714 0.00316 0.58949 0.0
H505 H 0.91534 0.97142 0.57716 0.0
H506 H 0.9178 0.93952 0.59521 0.0
H507 H 0.9087 0.9086 0.67686 0.0
H508 H 0.9408 0.919 0.66008 0.0
H509 H 0.88496 0.90819 0.62897 0.0
H510 H 0.8524 0.89841 0.64586 0.0
H511 H 0.9196 0.94513 0.62211 0.0
H512 H 0.92148 0.85946 0.63741 0.0
H513 H 0.92187 0.82472 0.65397 0.0
H514 H 0.99401 0.85114 0.66893 0.0
H515 H 0.99384 0.88633 0.65257 0.0
C516 C 0.01378 0.90532 0.58298 0.0
C517 C 0.03863 0.91272 0.58662 0.0
C518 C 0.99357 0.90764 0.59201 0.0
C519 C 0.99795 0.91701 0.6049 0.0
C520 C 0.02267 0.9246 0.60856 0.0
C521 C 0.04282 0.92279 0.59943 0.0
C522 C 0.97696 0.91733 0.61479 0.0
C523 C 0.97746 0.89922 0.62505 0.0
C524 C 0.95571 0.93382 0.61355 0.0
C525 C 0.95414 0.95307 0.60274 0.0
C526 C 0.9736 0.97128 0.60105 0.0
C527 C 0.97208 0.98922 0.59077 0.0
C528 C 0.95111 0.98924 0.58215 0.0
C529 C 0.93158 0.97136 0.58383 0.0
C530 C 0.93302 0.95336 0.5941 0.0
C531 C 0.90306 0.90916 0.66647 0.0
C532 C 0.87816 0.90244 0.66264 0.0
C533 C 0.92144 0.91501 0.65689 0.0
C534 C 0.91544 0.91369 0.64326 0.0
C535 C 0.89003 0.90917 0.63943 0.0
C536 C 0.87144 0.90364 0.64908 0.0
C537 C 0.93627 0.91415 0.63321 0.0
C538 C 0.93562 0.9321 0.62283 0.0
C539 C 0.95714 0.897 0.63408 0.0
C540 C 0.95752 0.8757 0.64385 0.0
C541 C 0.93734 0.85798 0.64429 0.0
C542 C 0.93753 0.83819 0.65364 0.0
C543 C 0.95792 0.83576 0.66252 0.0
C544 C 0.97821 0.85307 0.66205 0.0
C545 C 0.97808 0.87294 0.65274 0.0
H546 H 0.95803 0.82043 0.66975 0.0
H547 H 0.94997 0.00315 0.57419 0.0
H548 H 0.38037 0.70467 0.9414 0.0
H549 H 0.3705 0.73974 0.92596 0.0
H550 H 0.3497 0.68521 0.89567 0.0
H551 H 0.35885 0.65021 0.91098 0.0
H552 H 0.39374 0.72727 0.89152 0.0
H553 H 0.30441 0.70984 0.90351 0.0
H554 H 0.2694 0.70615 0.91985 0.0
H555 H 0.28199 0.78355 0.93231 0.0
H556 H 0.31736 0.78754 0.91616 0.0
H557 H 0.3531 0.7869 0.83364 0.0
H558 H 0.35717 0.75923 0.85305 0.0
H559 H 0.33723 0.82211 0.87886 0.0
H560 H 0.33193 0.8497 0.85926 0.0
H561 H 0.31586 0.78077 0.88795 0.0
H562 H 0.40095 0.80147 0.87543 0.0
H563 H 0.43795 0.80724 0.86048 0.0
H564 H 0.43685 0.72739 0.85093 0.0
H565 H 0.39976 0.72116 0.86573 0.0
C566 C 0.37321 0.70018 0.93154 0.0
C567 C 0.37046 0.67465 0.9274 0.0
C568 C 0.36757 0.72021 0.92277 0.0
C569 C 0.35937 0.71493 0.90974 0.0
C570 C 0.35589 0.68956 0.90573 0.0
C571 C 0.3611 0.66961 0.91452 0.0
C572 C 0.35678 0.73551 0.89979 0.0
C573 C 0.37669 0.73892 0.89065 0.0
C574 C 0.33498 0.75129 0.8991 0.0
C575 C 0.31375 0.74885 0.90878 0.0
C576 C 0.29992 0.72596 0.90985 0.0
C577 C 0.27995 0.72384 0.91905 0.0
C578 C 0.27354 0.74457 0.92715 0.0
C579 C 0.28702 0.76749 0.92605 0.0
C580 C 0.30702 0.76969 0.91687 0.0
C581 C 0.3494 0.79479 0.84345 0.0
C582 C 0.34227 0.82044 0.84497 0.0
C583 C 0.35193 0.77901 0.85456 0.0
C584 C 0.34819 0.78872 0.86747 0.0
C585 C 0.34035 0.81421 0.86901 0.0
C586 C 0.33728 0.82993 0.85782 0.0
C587 C 0.35255 0.77205 0.87925 0.0
C588 C 0.3331 0.76942 0.88883 0.0
C589 C 0.37509 0.75726 0.88052 0.0
C590 C 0.39745 0.7609 0.87161 0.0
C591 C 0.4085 0.78518 0.87006 0.0
C592 C 0.42952 0.78853 0.86164 0.0
C593 C 0.43973 0.76771 0.85474 0.0
C594 C 0.42897 0.74349 0.85628 0.0
C595 C 0.40797 0.74004 0.86471 0.0
H596 H 0.456 0.77034 0.84823 0.0
H597 H 0.25806 0.7429 0.93426 0.0
H598 H 0.39742 0.08001 0.11261 0.0
H599 H 0.42245 0.08499 0.13323 0.0
H600 H 0.48925 0.10287 0.10991 0.0
H601 H 0.46434 0.0988 0.08938 0.0
H602 H 0.48224 0.05846 0.13666 0.0
H603 H 0.48621 0.14851 0.11788 0.0
H604 H 0.46588 0.18824 0.11006 0.0
H605 H 0.41759 0.18899 0.14468 0.0
H606 H 0.43735 0.14891 0.15256 0.0
H607 H 0.59337 0.10462 0.1667 0.0
H608 H 0.55687 0.09161 0.15338 0.0
H609 H 0.50643 0.13249 0.1799 0.0
H610 H 0.5432 0.14622 0.19319 0.0
H611 H 0.49662 0.14498 0.15534 0.0
H612 H 0.50518 0.0663 0.17774 0.0
H613 H 0.5273 0.02891 0.18717 0.0
H614 H 0.55006 0.0055 0.14788 0.0
H615 H 0.52846 0.04298 0.13822 0.0
C616 C 0.4175 0.08478 0.11191 0.0
C617 C 0.42898 0.08903 0.09942 0.0
C618 C 0.43168 0.08773 0.12366 0.0
C619 C 0.45754 0.09457 0.12302 0.0
C620 C 0.4692 0.09792 0.11056 0.0
C621 C 0.45498 0.09552 0.09887 0.0
C622 C 0.47273 0.0983 0.13526 0.0
C623 C 0.48542 0.0773 0.14083 0.0
C624 C 0.47608 0.12272 0.14091 0.0
C625 C 0.46288 0.14554 0.13566 0.0
C626 C 0.47089 0.15686 0.12367 0.0
C627 C 0.45962 0.17954 0.11928 0.0
C628 C 0.44057 0.19121 0.12691 0.0
C629 C 0.43246 0.18 0.13883 0.0
C630 C 0.44358 0.15725 0.14322 0.0
C631 C 0.57451 0.11056 0.16986 0.0
C632 C 0.57124 0.12661 0.18098 0.0
C633 C 0.55356 0.1029 0.16227 0.0
C634 C 0.52881 0.1108 0.16571 0.0
C635 C 0.52535 0.12609 0.17708 0.0
C636 C 0.54638 0.13389 0.18467 0.0
C637 C 0.50718 0.10525 0.15657 0.0
C638 C 0.49314 0.12591 0.15153 0.0
C639 C 0.5025 0.08041 0.15153 0.0
C640 C 0.51526 0.05757 0.15725 0.0
C641 C 0.51502 0.05327 0.17111 0.0
C642 C 0.52747 0.03204 0.1765 0.0
C643 C 0.5401 0.01486 0.16814 0.0
C644 C 0.54025 0.01883 0.15435 0.0
C645 C 0.52787 0.04004 0.14891 0.0
H646 H 0.54974 0.99846 0.17233 0.0
H647 H 0.43202 0.20888 0.12356 0.0
H648 H 0.16332 0.78073 0.16885 0.0
H649 H 0.16217 0.75164 0.14978 0.0
H650 H 0.18251 0.81348 0.12349 0.0
H651 H 0.18435 0.84273 0.14266 0.0
H652 H 0.13488 0.7823 0.11742 0.0
H653 H 0.22507 0.77418 0.12595 0.0
H654 H 0.26239 0.76756 0.14053 0.0
H655 H 0.23424 0.69345 0.15135 0.0
H656 H 0.19656 0.69977 0.13697 0.0
H657 H 0.12686 0.69316 0.06404 0.0
H658 H 0.14209 0.72822 0.07815 0.0
H659 H 0.15465 0.67514 0.11041 0.0
H660 H 0.14078 0.64014 0.09623 0.0
H661 H 0.19082 0.70691 0.11096 0.0
H662 H 0.09956 0.71514 0.10746 0.0
H663 H 0.05811 0.7201 0.09608 0.0
H664 H 0.08324 0.79104 0.07914 0.0
H665 H 0.12497 0.78633 0.09031 0.0
C666 C 0.16794 0.78806 0.15903 0.0
C667 C 0.17394 0.81395 0.15721 0.0
C668 C 0.16731 0.77143 0.14818 0.0
C669 C 0.17227 0.78048 0.13528 0.0
C670 C 0.17872 0.80622 0.13341 0.0
C671 C 0.17989 0.82281 0.14434 0.0
C672 C 0.16905 0.7631 0.12379 0.0
C673 C 0.14743 0.76613 0.11572 0.0
C674 C 0.18496 0.74162 0.12201 0.0
C675 C 0.20791 0.73752 0.13043 0.0
C676 C 0.22676 0.75653 0.13149 0.0
C677 C 0.248 0.75282 0.13972 0.0
C678 C 0.25066 0.73012 0.14688 0.0
C679 C 0.23215 0.71103 0.14579 0.0
C680 C 0.21088 0.71465 0.13759 0.0
C681 C 0.13312 0.68901 0.07411 0.0
C682 C 0.13257 0.66392 0.07903 0.0
C683 C 0.1417 0.70907 0.08219 0.0
C684 C 0.14917 0.70446 0.09545 0.0
C685 C 0.14912 0.67928 0.10023 0.0
C686 C 0.14108 0.65924 0.0921 0.0
C687 C 0.15621 0.72569 0.10462 0.0
C688 C 0.17852 0.72335 0.11234 0.0
C689 C 0.14045 0.74744 0.10638 0.0
C690 C 0.11549 0.7502 0.09956 0.0
C691 C 0.09631 0.73167 0.10121 0.0
C692 C 0.07276 0.73446 0.09482 0.0
C693 C 0.06808 0.75582 0.08685 0.0
C694 C 0.08692 0.77447 0.08528 0.0
C695 C 0.11052 0.77175 0.09164 0.0
H696 H 0.04983 0.75796 0.08191 0.0
H697 H 0.26709 0.7273 0.15327 0.0
H698 H 0.46053 0.90894 0.42013 0.0
H699 H 0.48725 0.90594 0.40014 0.0
H700 H 0.42303 0.92724 0.37569 0.0
H701 H 0.39627 0.93112 0.39576 0.0
H702 H 0.45496 0.876 0.3705 0.0
H703 H 0.45884 0.96779 0.37389 0.0
H704 H 0.46518 0.00832 0.38594 0.0
H705 H 0.54177 0.98606 0.39583 0.0
H706 H 0.53575 0.94521 0.384 0.0
H707 H 0.53799 0.86532 0.31393 0.0
H708 H 0.50358 0.87895 0.32896 0.0
H709 H 0.55954 0.90043 0.35851 0.0
H710 H 0.59366 0.888 0.34345 0.0
H711 H 0.52569 0.93453 0.35846 0.0
H712 H 0.52278 0.84272 0.35954 0.0
H713 H 0.51844 0.79897 0.35074 0.0
H714 H 0.44372 0.81692 0.33582 0.0
H715 H 0.4478 0.8609 0.34437 0.0
C716 C 0.45223 0.91345 0.41052 0.0
C717 C 0.42639 0.92039 0.40948 0.0
C718 C 0.46748 0.91171 0.39913 0.0
C719 C 0.45704 0.91638 0.3865 0.0
C720 C 0.43137 0.92369 0.3854 0.0
C721 C 0.41621 0.92604 0.39685 0.0
C722 C 0.4729 0.91206 0.3745 0.0
C723 C 0.47013 0.88896 0.36762 0.0
C724 C 0.49301 0.92874 0.3711 0.0
C725 C 0.49675 0.95335 0.37815 0.0
C726 C 0.47695 0.97143 0.37874 0.0
C727 C 0.48051 0.99449 0.38551 0.0
C728 C 0.50385 0.99974 0.39168 0.0
C729 C 0.5237 0.98196 0.39106 0.0
C730 C 0.52023 0.95887 0.38431 0.0
C731 C 0.54287 0.8731 0.32361 0.0
C732 C 0.56856 0.87562 0.32747 0.0
C733 C 0.52319 0.88075 0.33223 0.0
C734 C 0.52887 0.89052 0.34497 0.0
C735 C 0.55455 0.89315 0.34873 0.0
C736 C 0.57411 0.88595 0.34009 0.0
C737 C 0.5084 0.89788 0.35457 0.0
C738 C 0.51031 0.9216 0.36108 0.0
C739 C 0.48792 0.88136 0.3579 0.0
C740 C 0.48575 0.85519 0.35241 0.0
C741 C 0.50556 0.83741 0.35424 0.0
C742 C 0.50312 0.81256 0.34933 0.0
C743 C 0.48087 0.8052 0.34267 0.0
C744 C 0.461 0.82268 0.34092 0.0
C745 C 0.46337 0.84757 0.34578 0.0
H746 H 0.47899 0.78593 0.33891 0.0
H747 H 0.50656 0.01759 0.39691 0.0
H748 H 0.35274 0.21964 0.66781 0.0
H749 H 0.35307 0.24807 0.64845 0.0
H750 H 0.33135 0.1854 0.623 0.0
H751 H 0.33021 0.15686 0.64246 0.0
H752 H 0.37945 0.21819 0.61636 0.0
H753 H 0.28902 0.22166 0.62459 0.0
H754 H 0.25075 0.22662 0.63869 0.0
H755 H 0.27442 0.30238 0.64934 0.0
H756 H 0.31305 0.29772 0.63546 0.0
H757 H 0.38246 0.30738 0.56264 0.0
H758 H 0.36934 0.27153 0.57679 0.0
H759 H 0.35442 0.32385 0.60915 0.0
H760 H 0.36616 0.35955 0.59493 0.0
H761 H 0.31967 0.29043 0.60954 0.0
H762 H 0.41183 0.28605 0.60594 0.0
H763 H 0.45314 0.28238 0.59429 0.0
H764 H 0.4298 0.21093 0.57727 0.0
H765 H 0.38825 0.21421 0.58879 0.0
C766 C 0.34775 0.21197 0.65812 0.0
C767 C 0.34145 0.18608 0.65661 0.0
C768 C 0.3479 0.22821 0.6471 0.0
C769 C 0.3422 0.21875 0.63436 0.0
C770 C 0.3357 0.19297 0.6328 0.0
C771 C 0.33497 0.17678 0.64389 0.0
C772 C 0.34442 0.23583 0.62271 0.0
C773 C 0.3661 0.23367 0.6146 0.0
C774 C 0.32734 0.25632 0.62077 0.0
C775 C 0.30404 0.25925 0.62906 0.0
C776 C 0.28619 0.23929 0.63003 0.0
C777 C 0.2644 0.24207 0.63796 0.0
C778 C 0.26018 0.26478 0.64493 0.0
C779 C 0.27772 0.28479 0.64394 0.0
C780 C 0.29955 0.2821 0.63603 0.0
C781 C 0.37615 0.31116 0.57274 0.0
C782 C 0.37535 0.33625 0.57768 0.0
C783 C 0.36879 0.29067 0.58085 0.0
C784 C 0.36123 0.29488 0.59414 0.0
C785 C 0.36004 0.32002 0.59894 0.0
C786 C 0.36684 0.34046 0.59079 0.0
C787 C 0.35522 0.27336 0.6033 0.0
C788 C 0.33282 0.27468 0.61101 0.0
C789 C 0.37201 0.25241 0.60509 0.0
C790 C 0.39684 0.25054 0.59807 0.0
C791 C 0.41544 0.26966 0.59963 0.0
C792 C 0.4389 0.26764 0.59307 0.0
C793 C 0.44405 0.24652 0.58499 0.0
C794 C 0.42576 0.22732 0.5835 0.0
C795 C 0.40226 0.22923 0.59005 0.0
H796 H 0.46224 0.245 0.57992 0.0
H797 H 0.2433 0.2669 0.65106 0.0
H798 H 0.10143 0.07674 0.89209 0.0
H799 H 0.0727 0.07996 0.87277 0.0
H800 H 0.00841 0.08882 0.89925 0.0
H801 H 0.03704 0.08658 0.91853 0.0
H802 H 0.00438 0.05264 0.87419 0.0
H803 H 0.02794 0.13882 0.89041 0.0
H804 H 0.06132 0.17021 0.8961 0.0
H805 H 0.091 0.16572 0.85624 0.0
H806 H 0.05815 0.13378 0.85042 0.0
H807 H 0.89765 0.10912 0.84662 0.0
H808 H 0.93436 0.09614 0.85975 0.0
H809 H 0.985 0.12457 0.8292 0.0
H810 H 0.94797 0.13852 0.81608 0.0
H811 H 0.00273 0.13771 0.85242 0.0
H812 H 0.97693 0.0595 0.83403 0.0
H813 H 0.94782 0.0252 0.82688 0.0
H814 H 0.92709 0.01103 0.86766 0.0
H815 H 0.95586 0.0455 0.87506 0.0
C816 C 0.0811 0.07888 0.89375 0.0
C817 C 0.07136 0.08148 0.90675 0.0
C818 C 0.06479 0.08075 0.88274 0.0
C819 C 0.03855 0.08463 0.88465 0.0
C820 C 0.02864 0.08573 0.89763 0.0
C821 C 0.04497 0.08455 0.9086 0.0
C822 C 0.02153 0.08986 0.87325 0.0
C823 C 0.00389 0.07119 0.8694 0.0
C824 C 0.02184 0.11369 0.86667 0.0
C825 C 0.04085 0.13364 0.87004 0.0
C826 C 0.04172 0.14435 0.8829 0.0
C827 C 0.06053 0.16224 0.88614 0.0
C828 C 0.07836 0.16981 0.87656 0.0
C829 C 0.07725 0.15972 0.86367 0.0
C830 C 0.05856 0.14172 0.86039 0.0
C831 C 0.91656 0.11252 0.84261 0.0
C832 C 0.91988 0.12473 0.83026 0.0
C833 C 0.93759 0.10491 0.85012 0.0
C834 C 0.9625 0.10883 0.84535 0.0
C835 C 0.96596 0.12118 0.83305 0.0
C836 C 0.94481 0.12911 0.82556 0.0
C837 C 0.98462 0.10077 0.85362 0.0
C838 C 0.00334 0.11891 0.85692 0.0
C839 C 0.98575 0.07614 0.85943 0.0
C840 C 0.96848 0.05521 0.8551 0.0
C841 C 0.96606 0.04918 0.84148 0.0
C842 C 0.94962 0.02969 0.83738 0.0
C843 C 0.93557 0.01597 0.8468 0.0
C844 C 0.93799 0.02168 0.86036 0.0
C845 C 0.95441 0.04117 0.86452 0.0
H846 H 0.92284 0.0009 0.8436 0.0
H847 H 0.09303 0.18347 0.87912 0.0
H848 H 0.86413 0.63021 0.5964 0.0
H849 H 0.85881 0.66048 0.61469 0.0
H850 H 0.90148 0.71692 0.59269 0.0
H851 H 0.90674 0.6868 0.57425 0.0
H852 H 0.89548 0.68176 0.62999 0.0
H853 H 0.87916 0.77613 0.6016 0.0
H854 H 0.86055 0.79128 0.58043 0.0
H855 H 0.81078 0.72619 0.57939 0.0
H856 H 0.82886 0.71084 0.60063 0.0
H857 H 0.90533 0.78975 0.6746 0.0
H858 H 0.91106 0.75837 0.65662 0.0
H859 H 0.83071 0.76322 0.64739 0.0
H860 H 0.82511 0.79484 0.66494 0.0
H861 H 0.85701 0.7678 0.62559 0.0
H862 H 0.85835 0.71074 0.66348 0.0
H863 H 0.87414 0.69418 0.68498 0.0
H864 H 0.9483 0.68208 0.66781 0.0
H865 H 0.93303 0.69887 0.64626 0.0
C866 C 0.87205 0.64919 0.59533 0.0
C867 C 0.88585 0.65608 0.58383 0.0
C868 C 0.86916 0.6664 0.60585 0.0
C869 C 0.87984 0.6909 0.60508 0.0
C870 C 0.89294 0.69815 0.59346 0.0
C871 C 0.89587 0.68093 0.58291 0.0
C872 C 0.87772 0.70855 0.61659 0.0
C873 C 0.88708 0.7006 0.62905 0.0
C874 C 0.86674 0.73307 0.61535 0.0
C875 C 0.85559 0.74221 0.60262 0.0
C876 C 0.8642 0.7651 0.59687 0.0
C877 C 0.85375 0.77371 0.58485 0.0
C878 C 0.83457 0.75965 0.57854 0.0
C879 C 0.82572 0.737 0.58425 0.0
C880 C 0.83609 0.72831 0.59627 0.0
C881 C 0.88888 0.78372 0.66887 0.0
C882 C 0.8648 0.79475 0.67113 0.0
C883 C 0.89215 0.76585 0.65859 0.0
C884 C 0.8713 0.75846 0.65063 0.0
C885 C 0.84712 0.76879 0.65329 0.0
C886 C 0.84393 0.78679 0.66337 0.0
C887 C 0.87445 0.74093 0.6391 0.0
C888 C 0.8655 0.749 0.62657 0.0
C889 C 0.88544 0.71638 0.64034 0.0
C890 C 0.89462 0.70634 0.65331 0.0
C891 C 0.87808 0.70475 0.66433 0.0
C892 C 0.88692 0.69528 0.67652 0.0
C893 C 0.91223 0.68716 0.67778 0.0
C894 C 0.92872 0.68842 0.66684 0.0
C895 C 0.91998 0.6979 0.65463 0.0
H896 H 0.91903 0.67984 0.68722 0.0
H897 H 0.82651 0.76635 0.56924 0.0
H898 H 0.05416 0.13298 0.31008 0.0
H899 H 0.01745 0.11981 0.32357 0.0
H900 H 0.06842 0.09556 0.35493 0.0
H901 H 0.105 0.10769 0.34136 0.0
H902 H 0.03174 0.0633 0.35349 0.0
H903 H 0.03664 0.15498 0.35495 0.0
H904 H 0.03764 0.19865 0.34579 0.0
H905 H 0.96375 0.18724 0.32821 0.0
H906 H 0.96247 0.14337 0.33714 0.0
H907 H 0.96263 0.09158 0.4131 0.0
H908 H 0.99148 0.09251 0.39391 0.0
H909 H 0.92761 0.08168 0.36738 0.0
H910 H 0.89854 0.07992 0.38667 0.0
H911 H 0.96509 0.12777 0.36358 0.0
H912 H 0.95998 0.03621 0.36665 0.0
H913 H 0.96109 0.99507 0.37856 0.0
H914 H 0.03846 0.00942 0.39057 0.0
H915 H 0.03768 0.05084 0.3789 0.0
C916 C 0.0575 0.12459 0.3198 0.0
C917 C 0.08248 0.1215 0.32467 0.0
C918 C 0.03651 0.11717 0.32753 0.0
C919 C 0.0401 0.10704 0.34038 0.0
C920 C 0.06508 0.10326 0.34505 0.0
C921 C 0.08603 0.1103 0.33728 0.0
C922 C 0.01809 0.10128 0.34926 0.0
C923 C 0.01719 0.07744 0.35567 0.0
C924 C 0.9988 0.11953 0.35201 0.0
C925 C 0.99962 0.1458 0.34655 0.0
C926 C 0.02072 0.16172 0.34903 0.0
C927 C 0.02131 0.18651 0.3439 0.0
C928 C 0.00082 0.19568 0.33638 0.0
C929 C 0.97965 0.18009 0.334 0.0
C930 C 0.97897 0.15526 0.33909 0.0
C931 C 0.95476 0.08904 0.40319 0.0
C932 C 0.92839 0.08567 0.40134 0.0
C933 C 0.97125 0.08953 0.39227 0.0
C934 C 0.96161 0.08713 0.37929 0.0
C935 C 0.93533 0.08345 0.37737 0.0
C936 C 0.91883 0.08235 0.38835 0.0
C937 C 0.97914 0.09009 0.36785 0.0
C938 C 0.97928 0.11346 0.36107 0.0
C939 C 0.99809 0.07171 0.36502 0.0
C940 C 0.99869 0.04673 0.37198 0.0
C941 C 0.97715 0.0307 0.37193 0.0
C942 C 0.97774 0.00731 0.37861 0.0
C943 C 0.99981 0.99966 0.38534 0.0
C944 C 0.02137 0.01537 0.38536 0.0
C945 C 0.02088 0.0388 0.37869 0.0
H946 H 1.00023 0.98154 0.39051 0.0
H947 H 0.0013 0.21489 0.33242 0.0
H948 H 0.60918 0.31139 0.06717 0.0
H949 H 0.61752 0.27718 0.08319 0.0
H950 H 0.66938 0.32628 0.10459 0.0
H951 H 0.66106 0.3606 0.08875 0.0
H952 H 0.65866 0.25062 0.09323 0.0
H953 H 0.65467 0.32126 0.13778 0.0
H954 H 0.63588 0.36311 0.14335 0.0
H955 H 0.57709 0.3515 0.11414 0.0
H956 H 0.59527 0.3094 0.10855 0.0
H957 H 0.68995 0.1831 0.15301 0.0
H958 H 0.68863 0.21316 0.13428 0.0
H959 H 0.61126 0.23345 0.14475 0.0
H960 H 0.61297 0.20454 0.16373 0.0
H961 H 0.63477 0.27403 0.13955 0.0
H962 H 0.62785 0.19325 0.11729 0.0
H963 H 0.64069 0.14949 0.11119 0.0
H964 H 0.71098 0.17794 0.09489 0.0
H965 H 0.69869 0.22185 0.10105 0.0
C966 C 0.62279 0.31474 0.07512 0.0
C967 C 0.63415 0.33885 0.07681 0.0
C968 C 0.62757 0.29514 0.08424 0.0
C969 C 0.64369 0.2994 0.09519 0.0
C970 C 0.65657 0.32278 0.09631 0.0
C971 C 0.6518 0.34235 0.08722 0.0
C972 C 0.64509 0.28051 0.10614 0.0
C973 C 0.65356 0.25568 0.10338 0.0
C974 C 0.63775 0.28703 0.11929 0.0
C975 C 0.62656 0.3123 0.12263 0.0
C976 C 0.63771 0.32761 0.13257 0.0
C977 C 0.62715 0.35136 0.13573 0.0
C978 C 0.60536 0.35998 0.12907 0.0
C979 C 0.59403 0.34483 0.11925 0.0
C980 C 0.60448 0.32103 0.11607 0.0
C981 C 0.67269 0.194 0.15126 0.0
C982 C 0.65161 0.1916 0.15985 0.0
C983 C 0.67189 0.21106 0.14052 0.0
C984 C 0.64974 0.22545 0.13799 0.0
C985 C 0.62863 0.22274 0.14651 0.0
C986 C 0.62961 0.20615 0.15736 0.0
C987 C 0.64853 0.24391 0.12675 0.0
C988 C 0.64008 0.26883 0.12944 0.0
C989 C 0.65505 0.23716 0.11348 0.0
C990 C 0.66246 0.21079 0.10975 0.0
C991 C 0.64613 0.19015 0.11249 0.0
C992 C 0.65329 0.16533 0.10901 0.0
C993 C 0.67667 0.16093 0.10269 0.0
C994 C 0.6929 0.18137 0.0998 0.0
C995 C 0.68583 0.20622 0.10328 0.0
H996 H 0.68218 0.1417 0.1 0.0
H997 H 0.59724 0.37837 0.13155 0.0
H998 H 0.5414 0.87353 0.91509 0.0
H999 H 0.51317 0.87265 0.89591 0.0
H1000 H 0.54828 0.94132 0.88077 0.0
H1001 H 0.57729 0.94192 0.89993 0.0
H1002 H 0.47825 0.89939 0.88705 0.0
H1003 H 0.54546 0.94394 0.84759 0.0
H1004 H 0.59158 0.94695 0.84269 0.0
H1005 H 0.60471 0.87681 0.86376 0.0
H1006 H 0.55861 0.87333 0.86858 0.0
H1007 H 0.40155 0.91601 0.83165 0.0
H1008 H 0.43517 0.92755 0.84739 0.0
H1009 H 0.48169 0.86559 0.83281 0.0
H1010 H 0.44826 0.8542 0.81682 0.0
H1011 H 0.51115 0.90577 0.84073 0.0
H1012 H 0.44327 0.8551 0.85771 0.0
H1013 H 0.39835 0.84364 0.86201 0.0
H1014 H 0.38914 0.91097 0.88594 0.0
H1015 H 0.43386 0.92321 0.88147 0.0
C1016 C 0.54316 0.88852 0.90772 0.0
C1017 C 0.5617 0.90776 0.90903 0.0
C1018 C 0.52693 0.88801 0.89672 0.0
C1019 C 0.5288 0.90663 0.88671 0.0
C1020 C 0.54686 0.92631 0.88815 0.0
C1021 C 0.56333 0.92675 0.89916 0.0
C1022 C 0.51172 0.90516 0.87486 0.0
C1023 C 0.48552 0.90094 0.87695 0.0
C1024 C 0.5211 0.90664 0.86161 0.0
C1025 C 0.54874 0.90858 0.85862 0.0
C1026 C 0.55822 0.92917 0.85115 0.0
C1027 C 0.58433 0.93096 0.84838 0.0
C1028 C 0.60109 0.91215 0.85297 0.0
C1029 C 0.59175 0.89145 0.86028 0.0
C1030 C 0.56566 0.88959 0.86305 0.0
C1031 C 0.4192 0.90523 0.83155 0.0
C1032 C 0.42211 0.88392 0.82317 0.0
C1033 C 0.4384 0.91188 0.84054 0.0
C1034 C 0.46065 0.89708 0.84145 0.0
C1035 C 0.4646 0.8772 0.83229 0.0
C1036 C 0.44546 0.87068 0.82318 0.0
C1037 C 0.47794 0.90011 0.85303 0.0
C1038 C 0.504 0.90459 0.85087 0.0
C1039 C 0.46868 0.89766 0.86624 0.0
C1040 C 0.44185 0.89022 0.86913 0.0
C1041 C 0.43161 0.86756 0.86381 0.0
C1042 C 0.4062 0.86091 0.86628 0.0
C1043 C 0.3909 0.87655 0.87425 0.0
C1044 C 0.40101 0.89888 0.87976 0.0
C1045 C 0.42638 0.90571 0.87724 0.0
H1046 H 0.37124 0.87136 0.87617 0.0
H1047 H 0.6213 0.91358 0.85082 0.0
H1048 H 0.86742 0.30949 0.93891 0.0
H1049 H 0.85208 0.27454 0.92478 0.0
H1050 H 0.84887 0.32587 0.89113 0.0
H1051 H 0.86274 0.36092 0.90533 0.0
H1052 H 0.81105 0.29617 0.88929 0.0
H1053 H 0.90068 0.28263 0.89769 0.0
H1054 H 0.93915 0.27615 0.91147 0.0
H1055 H 0.90601 0.20856 0.92839 0.0
H1056 H 0.8672 0.21482 0.91481 0.0
H1057 H 0.84124 0.21615 0.83428 0.0
H1058 H 0.84058 0.24694 0.8526 0.0
H1059 H 0.81784 0.1875 0.87986 0.0
H1060 H 0.81798 0.15653 0.86146 0.0
H1061 H 0.86297 0.21711 0.88721 0.0
H1062 H 0.77575 0.22938 0.87399 0.0
H1063 H 0.74105 0.23708 0.85788 0.0
H1064 H 0.77439 0.30917 0.84736 0.0
H1065 H 0.80952 0.30174 0.86327 0.0
C1066 C 0.86317 0.31329 0.92852 0.0
C1067 C 0.86636 0.33789 0.92321 0.0
C1068 C 0.85453 0.2933 0.92043 0.0
C1069 C 0.84975 0.29738 0.90679 0.0
C1070 C 0.85233 0.32214 0.9016 0.0
C1071 C 0.86035 0.3422 0.90974 0.0
C1072 C 0.8431 0.27592 0.89769 0.0
C1073 C 0.8225 0.27895 0.88884 0.0
C1074 C 0.85767 0.25313 0.89719 0.0
C1075 C 0.88093 0.24937 0.90537 0.0
C1076 C 0.90153 0.2665 0.90443 0.0
C1077 C 0.9234 0.26285 0.91218 0.0
C1078 C 0.92499 0.24201 0.92083 0.0
C1079 C 0.90473 0.22473 0.92171 0.0
C1080 C 0.8828 0.22831 0.91399 0.0
C1081 C 0.83573 0.2097 0.84414 0.0
C1082 C 0.82971 0.18395 0.84647 0.0
C1083 C 0.83528 0.22731 0.85457 0.0
C1084 C 0.82909 0.21946 0.86755 0.0
C1085 C 0.82255 0.19388 0.86988 0.0
C1086 C 0.82255 0.17628 0.85938 0.0
C1087 C 0.83143 0.23776 0.87871 0.0
C1088 C 0.85125 0.23414 0.88791 0.0
C1089 C 0.81664 0.26028 0.87927 0.0
C1090 C 0.79536 0.26493 0.86979 0.0
C1091 C 0.77579 0.2468 0.86818 0.0
C1092 C 0.75602 0.25113 0.85909 0.0
C1093 C 0.75553 0.27359 0.85159 0.0
C1094 C 0.77479 0.29178 0.85318 0.0
C1095 C 0.79461 0.28754 0.86225 0.0
H1096 H 0.74019 0.27693 0.84458 0.0
H1097 H 0.94194 0.23921 0.92683 0.0
H1098 H 0.40375 0.10707 0.66032 0.0
H1099 H 0.44025 0.09396 0.64704 0.0
H1100 H 0.49134 0.12234 0.67739 0.0
H1101 H 0.45458 0.13658 0.69058 0.0
H1102 H 0.50683 0.1383 0.65483 0.0
H1103 H 0.48468 0.05612 0.67016 0.0
H1104 H 0.45702 0.01959 0.67574 0.0
H1105 H 0.43678 0.01126 0.63447 0.0
H1106 H 0.46402 0.04797 0.62865 0.0
H1107 H 0.60499 0.08497 0.61006 0.0
H1108 H 0.57881 0.08779 0.63043 0.0
H1109 H 0.51115 0.09634 0.60636 0.0
H1110 H 0.53715 0.09451 0.5861 0.0
H1111 H 0.51181 0.05697 0.62965 0.0
H1112 H 0.527 0.14635 0.61667 0.0
H1113 H 0.55238 0.18519 0.61248 0.0
H1114 H 0.58705 0.17833 0.65112 0.0
H1115 H 0.56203 0.13927 0.65547 0.0
C1116 C 0.42272 0.11022 0.6643 0.0
C1117 C 0.42625 0.12292 0.67651 0.0
C1118 C 0.44366 0.10248 0.65672 0.0
C1119 C 0.46866 0.10669 0.66128 0.0
C1120 C 0.47226 0.11876 0.67367 0.0
C1121 C 0.45124 0.12687 0.6812 0.0
C1122 C 0.49074 0.10068 0.65247 0.0
C1123 C 0.50831 0.12019 0.64964 0.0
C1124 C 0.49272 0.07714 0.64557 0.0
C1125 C 0.47636 0.05491 0.64898 0.0
C1126 C 0.47422 0.04661 0.66228 0.0
C1127 C 0.45862 0.02585 0.66548 0.0
C1128 C 0.44513 0.01313 0.65547 0.0
C1129 C 0.44725 0.02112 0.64222 0.0
C1130 C 0.46282 0.04188 0.63896 0.0
C1131 C 0.5845 0.08713 0.60916 0.0
C1132 C 0.57301 0.08944 0.59655 0.0
C1133 C 0.56965 0.08889 0.62077 0.0
C1134 C 0.54313 0.09229 0.61983 0.0
C1135 C 0.53161 0.09371 0.60724 0.0
C1136 C 0.54644 0.09266 0.5957 0.0
C1137 C 0.52704 0.09483 0.63187 0.0
C1138 C 0.51068 0.07467 0.63523 0.0
C1139 C 0.52638 0.11758 0.6394 0.0
C1140 C 0.54294 0.13971 0.63631 0.0
C1141 C 0.54038 0.15285 0.62416 0.0
C1142 C 0.55452 0.17503 0.62181 0.0
C1143 C 0.57113 0.18433 0.63158 0.0
C1144 C 0.57404 0.17119 0.6436 0.0
C1145 C 0.55993 0.14902 0.646 0.0
H1146 H 0.58184 0.20167 0.62981 0.0
H1147 H 0.43306 0.99706 0.65797 0.0
H1148 H 0.66534 0.84103 0.35664 0.0
H1149 H 0.66537 0.81001 0.3749 0.0
H1150 H 0.65046 0.74944 0.34671 0.0
H1151 H 0.64895 0.78061 0.32865 0.0
H1152 H 0.62019 0.74393 0.36582 0.0
H1153 H 0.71025 0.75887 0.36374 0.0
H1154 H 0.74994 0.78417 0.36357 0.0
H1155 H 0.73299 0.81251 0.40278 0.0
H1156 H 0.693 0.78761 0.40312 0.0
H1157 H 0.64954 0.63824 0.40682 0.0
H1158 H 0.65754 0.67232 0.39078 0.0
H1159 H 0.63661 0.72849 0.42023 0.0
H1160 H 0.62791 0.69434 0.43639 0.0
H1161 H 0.68492 0.73712 0.40176 0.0
H1162 H 0.59345 0.71984 0.4025 0.0
H1163 H 0.55583 0.69159 0.4017 0.0
H1164 H 0.57911 0.66391 0.36326 0.0
H1165 H 0.61711 0.69173 0.36392 0.0
C1166 C 0.66245 0.82103 0.35437 0.0
C1167 C 0.65706 0.81315 0.34129 0.0
C1168 C 0.66257 0.80327 0.36479 0.0
C1169 C 0.65807 0.77727 0.36221 0.0
C1170 C 0.65378 0.76938 0.34901 0.0
C1171 C 0.65301 0.78716 0.33868 0.0
C1172 C 0.65604 0.75846 0.37327 0.0
C1173 C 0.6346 0.74233 0.37354 0.0
C1174 C 0.67448 0.75657 0.38358 0.0
C1175 C 0.69849 0.77159 0.3834 0.0
C1176 C 0.71488 0.77066 0.37229 0.0
C1177 C 0.73745 0.7849 0.37217 0.0
C1178 C 0.74395 0.8 0.38314 0.0
C1179 C 0.72791 0.80084 0.39428 0.0
C1180 C 0.7053 0.78665 0.39445 0.0
C1181 C 0.64704 0.65784 0.41001 0.0
C1182 C 0.63797 0.66362 0.42287 0.0
C1183 C 0.6516 0.67725 0.40081 0.0
C1184 C 0.64754 0.70277 0.40435 0.0
C1185 C 0.63985 0.70881 0.41738 0.0
C1186 C 0.63484 0.68933 0.42656 0.0
C1187 C 0.64939 0.72279 0.39406 0.0
C1188 C 0.67066 0.739 0.39398 0.0
C1189 C 0.63113 0.72444 0.38374 0.0
C1190 C 0.60829 0.70765 0.38334 0.0
C1191 C 0.59071 0.70752 0.39394 0.0
C1192 C 0.56927 0.69164 0.39349 0.0
C1193 C 0.56509 0.67593 0.38244 0.0
C1194 C 0.58235 0.67608 0.37181 0.0
C1195 C 0.60385 0.69191 0.37222 0.0
H1196 H 0.54844 0.66372 0.38211 0.0
H1197 H 0.76143 0.811 0.38303 0.0
H1198 H 0.05908 0.8501 0.18375 0.0
H1199 H 0.02454 0.85987 0.16813 0.0
H1200 H 0.07491 0.90954 0.14612 0.0
H1201 H 0.10936 0.90021 0.16174 0.0
H1202 H 0.02762 0.92919 0.14689 0.0
H1203 H 0.0667 0.84878 0.13623 0.0
H1204 H 0.08153 0.80486 0.14047 0.0
H1205 H 0.00478 0.78177 0.14954 0.0
H1206 H 0.98955 0.82567 0.14551 0.0
H1207 H 0.96827 0.87824 0.08076 0.0
H1208 H 0.9978 0.87568 0.09945 0.0
H1209 H 0.94651 0.9209 0.12346 0.0
H1210 H 0.91692 0.92405 0.10459 0.0
H1211 H 0.99256 0.85442 0.12267 0.0
H1212 H 0.98206 0.95433 0.14661 0.0
H1213 H 0.97197 0.99852 0.13992 0.0
H1214 H 0.9992 0.98322 0.10031 0.0
H1215 H 0.00974 0.93908 0.1068 0.0
C1216 C 0.06268 0.86345 0.17573 0.0
C1217 C 0.08707 0.87416 0.17391 0.0
C1218 C 0.04294 0.86895 0.16678 0.0
C1219 C 0.04727 0.88515 0.15585 0.0
C1220 C 0.07115 0.89698 0.15447 0.0
C1221 C 0.09087 0.89152 0.16339 0.0
C1222 C 0.02774 0.8882 0.14524 0.0
C1223 C 0.01976 0.91285 0.14166 0.0
C1224 C 0.01793 0.86692 0.13821 0.0
C1225 C 0.02705 0.84056 0.14074 0.0
C1226 C 0.05303 0.83439 0.13925 0.0
C1227 C 0.0615 0.80949 0.14159 0.0
C1228 C 0.04412 0.79056 0.14532 0.0
C1229 C 0.01823 0.79647 0.14669 0.0
C1230 C 0.00967 0.82135 0.14437 0.0
C1231 C 0.96326 0.8878 0.08998 0.0
C1232 C 0.9402 0.90134 0.09118 0.0
C1233 C 0.98017 0.88623 0.10069 0.0
C1234 C 0.97443 0.8981 0.11287 0.0
C1235 C 0.9515 0.91183 0.11411 0.0
C1236 C 0.93458 0.91357 0.10333 0.0
C1237 C 0.99236 0.89543 0.12427 0.0
C1238 C 1.00006 0.8708 0.12802 0.0
C1239 C 0.00246 0.91677 0.13115 0.0
C1240 C 0.99637 0.94333 0.12716 0.0
C1241 C 0.98593 0.96043 0.13648 0.0
C1242 C 0.98014 0.98546 0.13273 0.0
C1243 C 0.98484 0.99364 0.11969 0.0
C1244 C 0.99545 0.97683 0.11039 0.0
C1245 C 0.0013 0.9518 0.1141 0.0
H1246 H 0.98033 0.01302 0.1168 0.0
H1247 H 0.05071 0.77129 0.14712 0.0
H1248 H 0.68744 0.70479 0.83598 0.0
H1249 H 0.68636 0.73109 0.85623 0.0
H1250 H 0.60533 0.71717 0.85985 0.0
H1251 H 0.60615 0.69273 0.83917 0.0
H1252 H 0.61148 0.7624 0.86472 0.0
H1253 H 0.65525 0.68813 0.88044 0.0
H1254 H 0.6885 0.65482 0.88085 0.0
H1255 H 0.74621 0.71199 0.88654 0.0
H1256 H 0.71332 0.7457 0.886 0.0
H1257 H 0.59434 0.80125 0.93145 0.0
H1258 H 0.604 0.76978 0.91411 0.0
H1259 H 0.66947 0.81391 0.90198 0.0
H1260 H 0.65959 0.84584 0.91908 0.0
H1261 H 0.67309 0.75418 0.90205 0.0
H1262 H 0.62317 0.82794 0.88673 0.0
H1263 H 0.58621 0.85693 0.8883 0.0
H1264 H 0.53512 0.7935 0.88354 0.0
H1265 H 0.57175 0.764 0.88246 0.0
C1266 C 0.66947 0.70752 0.84114 0.0
C1267 C 0.64685 0.69704 0.83601 0.0
C1268 C 0.66886 0.72231 0.85278 0.0
C1269 C 0.64579 0.72595 0.85975 0.0
C1270 C 0.62334 0.71493 0.85466 0.0
C1271 C 0.6238 0.70094 0.84284 0.0
C1272 C 0.64449 0.74202 0.872 0.0
C1273 C 0.62484 0.7602 0.87291 0.0
C1274 C 0.66203 0.73965 0.88272 0.0
C1275 C 0.68186 0.71945 0.88303 0.0
C1276 C 0.67505 0.69362 0.88167 0.0
C1277 C 0.69383 0.67466 0.88195 0.0
C1278 C 0.71946 0.68129 0.88368 0.0
C1279 C 0.72636 0.70689 0.88518 0.0
C1280 C 0.70766 0.72593 0.8849 0.0
C1281 C 0.61121 0.8039 0.92535 0.0
C1282 C 0.6261 0.8261 0.92653 0.0
C1283 C 0.61668 0.78592 0.91546 0.0
C1284 C 0.63735 0.78968 0.90677 0.0
C1285 C 0.65349 0.81071 0.90864 0.0
C1286 C 0.64775 0.82895 0.91836 0.0
C1287 C 0.63992 0.77379 0.89467 0.0
C1288 C 0.65983 0.756 0.89379 0.0
C1289 C 0.62214 0.77583 0.88414 0.0
C1290 C 0.60021 0.79372 0.88469 0.0
C1291 C 0.60407 0.82012 0.88622 0.0
C1292 C 0.58317 0.83665 0.88701 0.0
C1293 C 0.55835 0.82703 0.88602 0.0
C1294 C 0.55436 0.80089 0.88432 0.0
C1295 C 0.57517 0.78426 0.88366 0.0
H1296 H 0.54219 0.8398 0.88648 0.0
H1297 H 0.73396 0.66659 0.8839 0.0
H1298 H 0.54111 0.41118 0.08567 0.0
H1299 H 0.51397 0.4081 0.10545 0.0
H1300 H 0.57782 0.42844 0.13041 0.0
H1301 H 0.60514 0.43215 0.11053 0.0
H1302 H 0.54667 0.37998 0.13683 0.0
H1303 H 0.53906 0.47068 0.12957 0.0
H1304 H 0.53195 0.50865 0.11553 0.0
H1305 H 0.45699 0.48157 0.10551 0.0
H1306 H 0.46378 0.44325 0.11935 0.0
H1307 H 0.45831 0.37082 0.19119 0.0
H1308 H 0.49368 0.38551 0.17706 0.0
H1309 H 0.4404 0.4008 0.14518 0.0
H1310 H 0.40527 0.38749 0.15936 0.0
H1311 H 0.47239 0.43649 0.14519 0.0
H1312 H 0.47979 0.34487 0.14776 0.0
H1313 H 0.48528 0.30307 0.15868 0.0
H1314 H 0.55771 0.3271 0.17434 0.0
H1315 H 0.55248 0.36919 0.16365 0.0
C1316 C 0.54931 0.41532 0.09535 0.0
C1317 C 0.57518 0.42203 0.09658 0.0
C1318 C 0.53381 0.41355 0.10662 0.0
C1319 C 0.54395 0.41807 0.11934 0.0
C1320 C 0.56971 0.42497 0.12064 0.0
C1321 C 0.58519 0.42724 0.1093 0.0
C1322 C 0.52748 0.41459 0.13117 0.0
C1323 C 0.53076 0.39263 0.13895 0.0
C1324 C 0.50637 0.43071 0.13353 0.0
C1325 C 0.502 0.45403 0.12545 0.0
C1326 C 0.52112 0.47275 0.12431 0.0
C1327 C 0.51713 0.49435 0.1164 0.0
C1328 C 0.49405 0.4975 0.10961 0.0
C1329 C 0.47486 0.47911 0.11077 0.0
C1330 C 0.47875 0.45747 0.11867 0.0
C1331 C 0.45422 0.37754 0.1812 0.0
C1332 C 0.42901 0.37802 0.1764 0.0
C1333 C 0.47444 0.3858 0.1731 0.0
C1334 C 0.46984 0.39402 0.15995 0.0
C1335 C 0.44457 0.39476 0.15528 0.0
C1336 C 0.42443 0.38704 0.16342 0.0
C1337 C 0.491 0.40134 0.15077 0.0
C1338 C 0.4886 0.42406 0.14341 0.0
C1339 C 0.51254 0.38547 0.14853 0.0
C1340 C 0.51554 0.36031 0.1551 0.0
C1341 C 0.49676 0.34133 0.15365 0.0
C1342 C 0.49985 0.31757 0.15977 0.0
C1343 C 0.52177 0.31247 0.16725 0.0
C1344 C 0.54069 0.33111 0.16859 0.0
C1345 C 0.53767 0.35492 0.16251 0.0
H1346 H 0.52415 0.29405 0.17197 0.0
H1347 H 0.49102 0.51421 0.10347 0.0
H1348 H 0.84312 0.15325 0.41113 0.0
H1349 H 0.83377 0.19014 0.39718 0.0
H1350 H 0.88794 0.23511 0.4195 0.0
H1351 H 0.89778 0.19804 0.43343 0.0
H1352 H 0.81715 0.23849 0.39968 0.0
H1353 H 0.9223 0.27016 0.39677 0.0
H1354 H 0.9656 0.25252 0.39991 0.0
H1355 H 0.93807 0.17761 0.39015 0.0
H1356 H 0.89473 0.19488 0.38678 0.0
H1357 H 0.82729 0.34683 0.35522 0.0
H1358 H 0.82925 0.31871 0.37476 0.0
H1359 H 0.86788 0.2616 0.35119 0.0
H1360 H 0.86642 0.28953 0.33184 0.0
H1361 H 0.89209 0.26865 0.37382 0.0
H1362 H 0.80479 0.25579 0.36001 0.0
H1363 H 0.76088 0.26909 0.35449 0.0
H1364 H 0.7514 0.29939 0.39399 0.0
H1365 H 0.79541 0.28654 0.39968 0.0
C1366 C 0.85278 0.17108 0.41324 0.0
C1367 C 0.87153 0.1726 0.42325 0.0
C1368 C 0.84727 0.19221 0.4053 0.0
C1369 C 0.86041 0.21524 0.40719 0.0
C1370 C 0.87781 0.21738 0.41779 0.0
C1371 C 0.88339 0.1962 0.42575 0.0
C1372 C 0.85791 0.23576 0.39713 0.0
C1373 C 0.83355 0.24536 0.39412 0.0
C1374 C 0.87926 0.24436 0.38973 0.0
C1375 C 0.90524 0.23376 0.39172 0.0
C1376 C 0.92552 0.24993 0.39529 0.0
C1377 C 0.95006 0.24 0.3971 0.0
C1378 C 0.95455 0.21394 0.39529 0.0
C1379 C 0.93454 0.19777 0.39161 0.0
C1380 C 0.90998 0.20761 0.38977 0.0
C1381 C 0.83598 0.32818 0.3542 0.0
C1382 C 0.84682 0.32045 0.34201 0.0
C1383 C 0.83708 0.31215 0.36536 0.0
C1384 C 0.84879 0.2881 0.36443 0.0
C1385 C 0.85898 0.28018 0.35217 0.0
C1386 C 0.85805 0.29616 0.3411 0.0
C1387 C 0.85126 0.27117 0.3762 0.0
C1388 C 0.8757 0.26228 0.37955 0.0
C1389 C 0.82989 0.26274 0.38363 0.0
C1390 C 0.80348 0.2705 0.38021 0.0
C1391 C 0.79342 0.2655 0.36748 0.0
C1392 C 0.7685 0.2729 0.36433 0.0
C1393 C 0.75339 0.28515 0.37387 0.0
C1394 C 0.76315 0.28995 0.3866 0.0
C1395 C 0.78807 0.2826 0.38979 0.0
H1396 H 0.7341 0.29087 0.37141 0.0
H1397 H 0.97356 0.20629 0.3967 0.0
H1398 H 0.05915 0.64902 0.67916 0.0
H1399 H 0.02582 0.63169 0.66478 0.0
H1400 H 0.06858 0.56161 0.66072 0.0
H1401 H 0.10273 0.5797 0.67441 0.0
H1402 H 0.05512 0.57405 0.63801 0.0
H1403 H 0.00808 0.56685 0.67796 0.0
H1404 H 0.98953 0.57918 0.69962 0.0
H1405 H 0.94525 0.63755 0.6805 0.0
H1406 H 0.96391 0.626 0.65873 0.0
H1407 H 0.94303 0.53285 0.59863 0.0
H1408 H 0.97051 0.5335 0.61864 0.0
H1409 H 0.97463 0.61554 0.61636 0.0
H1410 H 0.94827 0.61502 0.59631 0.0
H1411 H 0.96191 0.58649 0.64399 0.0
H1412 H 0.0214 0.59735 0.60545 0.0
H1413 H 0.03904 0.58183 0.5841 0.0
H1414 H 0.0578 0.51012 0.60236 0.0
H1415 H 0.03992 0.52517 0.62377 0.0
C1416 C 0.06115 0.62973 0.67541 0.0
C1417 C 0.08346 0.61568 0.67787 0.0
C1418 C 0.04199 0.61971 0.66724 0.0
C1419 C 0.04439 0.59511 0.66175 0.0
C1420 C 0.06622 0.58063 0.66477 0.0
C1421 C 0.08569 0.59093 0.67263 0.0
C1422 C 0.02551 0.5857 0.65178 0.0
C1423 C 0.03473 0.57619 0.63956 0.0
C1424 C 0.99878 0.58837 0.65362 0.0
C1425 C 0.98755 0.59561 0.6667 0.0
C1426 C 0.99455 0.58247 0.67837 0.0
C1427 C 0.98401 0.58933 0.69067 0.0
C1428 C 0.96628 0.60919 0.69143 0.0
C1429 C 0.95904 0.62222 0.67989 0.0
C1430 C 0.96957 0.6155 0.66756 0.0
C1431 C 0.94989 0.55094 0.60244 0.0
C1432 C 0.94388 0.57384 0.59586 0.0
C1433 C 0.96541 0.55129 0.61384 0.0
C1434 C 0.97438 0.5746 0.61892 0.0
C1435 C 0.96777 0.59742 0.61257 0.0
C1436 C 0.95293 0.59704 0.60106 0.0
C1437 C 0.99183 0.57564 0.63045 0.0
C1438 C 0.98232 0.58369 0.64282 0.0
C1439 C 0.01819 0.57114 0.62892 0.0
C1440 C 0.02906 0.56223 0.61611 0.0
C1441 C 0.02907 0.57819 0.60486 0.0
C1442 C 0.03915 0.56951 0.59277 0.0
C1443 C 0.04946 0.54497 0.59186 0.0
C1444 C 0.04976 0.5291 0.60307 0.0
C1445 C 0.03966 0.53769 0.61517 0.0
H1446 H 0.05727 0.53828 0.5825 0.0
H1447 H 0.95811 0.61445 0.70096 0.0
H1448 H 0.6653 0.15433 0.57986 0.0
H1449 H 0.67823 0.18714 0.59579 0.0
H1450 H 0.61048 0.23045 0.58653 0.0
H1451 H 0.59772 0.19796 0.57031 0.0
H1452 H 0.64944 0.26185 0.5929 0.0
H1453 H 0.61036 0.18677 0.60978 0.0
H1454 H 0.60418 0.14094 0.61399 0.0
H1455 H 0.67516 0.13816 0.63535 0.0
H1456 H 0.68202 0.184 0.63105 0.0
H1457 H 0.62981 0.2864 0.66843 0.0
H1458 H 0.62706 0.25877 0.64898 0.0
H1459 H 0.69286 0.29592 0.63183 0.0
H1460 H 0.69539 0.32427 0.65123 0.0
H1461 H 0.65609 0.22462 0.63828 0.0
H1462 H 0.68563 0.29811 0.5979 0.0
H1463 H 0.68442 0.34467 0.59423 0.0
H1464 H 0.62047 0.3511 0.62086 0.0
H1465 H 0.62111 0.30458 0.62453 0.0
C1466 C 0.65349 0.17118 0.58095 0.0
C1467 C 0.63027 0.17339 0.57402 0.0
C1468 C 0.66092 0.1899 0.59005 0.0
C1469 C 0.64501 0.2109 0.59256 0.0
C1470 C 0.62298 0.21433 0.58478 0.0
C1471 C 0.61568 0.19572 0.57553 0.0
C1472 C 0.64942 0.2272 0.60442 0.0
C1473 C 0.65118 0.25372 0.60281 0.0
C1474 C 0.65083 0.21657 0.61741 0.0
C1475 C 0.64684 0.18887 0.61996 0.0
C1476 C 0.62483 0.17638 0.61525 0.0
C1477 C 0.62117 0.15037 0.61767 0.0
C1478 C 0.63929 0.13661 0.62491 0.0
C1479 C 0.66113 0.14885 0.62973 0.0
C1480 C 0.66491 0.17486 0.6273 0.0
C1481 C 0.64385 0.28866 0.66058 0.0
C1482 C 0.66275 0.30768 0.66136 0.0
C1483 C 0.64227 0.27276 0.64946 0.0
C1484 C 0.65956 0.27543 0.63886 0.0
C1485 C 0.67905 0.29379 0.63979 0.0
C1486 C 0.68056 0.30988 0.65092 0.0
C1487 C 0.65659 0.25931 0.62677 0.0
C1488 C 0.6549 0.23275 0.62835 0.0
C1489 C 0.65431 0.26996 0.61384 0.0
C1490 C 0.65365 0.29792 0.61161 0.0
C1491 C 0.67129 0.30947 0.60294 0.0
C1492 C 0.6707 0.33585 0.60086 0.0
C1493 C 0.65245 0.35084 0.60735 0.0
C1494 C 0.63467 0.33949 0.61588 0.0
C1495 C 0.63517 0.31312 0.61798 0.0
H1496 H 0.65204 0.37126 0.60573 0.0
H1497 H 0.63639 0.11649 0.6268 0.0
H1498 H 0.10163 0.41412 0.83149 0.0
H1499 H 0.06781 0.42569 0.84711 0.0
H1500 H 0.02054 0.36517 0.8316 0.0
H1501 H 0.05421 0.3537 0.81573 0.0
H1502 H 0.99183 0.40645 0.83937 0.0
H1503 H 0.05777 0.3536 0.85676 0.0
H1504 H 0.10233 0.34136 0.86142 0.0
H1505 H 0.11133 0.40737 0.88635 0.0
H1506 H 0.06708 0.42052 0.88145 0.0
H1507 H 0.95438 0.3776 0.91313 0.0
H1508 H 0.98317 0.37349 0.8942 0.0
H1509 H 0.95731 0.44606 0.87901 0.0
H1510 H 0.92765 0.44993 0.89782 0.0
H1511 H 0.02208 0.39842 0.8861 0.0
H1512 H 0.96027 0.44587 0.84499 0.0
H1513 H 0.91476 0.4524 0.83961 0.0
H1514 H 0.89488 0.38579 0.86228 0.0
H1515 H 0.94027 0.37868 0.86765 0.0
C1516 C 0.08381 0.40364 0.83117 0.0
C1517 C 0.08072 0.38273 0.82253 0.0
C1518 C 0.0645 0.41029 0.8401 0.0
C1519 C 0.04192 0.39594 0.84069 0.0
C1520 C 0.03788 0.37643 0.83132 0.0
C1521 C 0.05716 0.36988 0.82228 0.0
C1522 C 0.02415 0.39922 0.85207 0.0
C1523 C 0.99841 0.40488 0.84959 0.0
C1524 C 0.03265 0.39632 0.8654 0.0
C1525 C 0.05915 0.38819 0.86862 0.0
C1526 C 0.0693 0.36561 0.86316 0.0
C1527 C 0.0945 0.3585 0.86585 0.0
C1528 C 0.10963 0.37353 0.8742 0.0
C1529 C 0.09959 0.39574 0.87987 0.0
C1530 C 0.07446 0.40308 0.87711 0.0
C1531 C 0.95482 0.39278 0.9058 0.0
C1532 C 0.93865 0.41409 0.90697 0.0
C1533 C 0.97137 0.3904 0.89497 0.0
C1534 C 0.97229 0.40932 0.88508 0.0
C1535 C 0.95662 0.43097 0.88638 0.0
C1536 C 0.93978 0.43324 0.89717 0.0
C1537 C 0.98967 0.40611 0.87347 0.0
C1538 C 0.01543 0.40033 0.8759 0.0
C1539 C 0.98096 0.40798 0.86012 0.0
C1540 C 0.95363 0.41194 0.85684 0.0
C1541 C 0.94618 0.43259 0.84879 0.0
C1542 C 0.92041 0.43639 0.84575 0.0
C1543 C 0.90193 0.41958 0.85064 0.0
C1544 C 0.90919 0.39886 0.85854 0.0
C1545 C 0.93494 0.39495 0.8616 0.0
H1546 H 0.88199 0.42257 0.84828 0.0
H1547 H 0.12913 0.36797 0.87629 0.0
H1548 H 0.89821 0.79428 0.06082 0.0
H1549 H 0.88378 0.75832 0.0745 0.0
H1550 H 0.82913 0.80729 0.09404 0.0
H1551 H 0.84328 0.84314 0.08044 0.0
H1552 H 0.88886 0.75754 0.10118 0.0
H1553 H 0.77893 0.77252 0.10512 0.0
H1554 H 0.74319 0.78539 0.09061 0.0
H1555 H 0.78499 0.76054 0.05611 0.0
H1556 H 0.82083 0.74716 0.07042 0.0
H1557 H 0.84437 0.71953 0.16296 0.0
H1558 H 0.84852 0.74416 0.14246 0.0
H1559 H 0.81603 0.68188 0.12002 0.0
H1560 H 0.81131 0.65712 0.14066 0.0
H1561 H 0.80021 0.7295 0.11079 0.0
H1562 H 0.87827 0.6873 0.12223 0.0
H1563 H 0.91307 0.67545 0.13754 0.0
H1564 H 0.93619 0.75379 0.14032 0.0
H1565 H 0.90078 0.76639 0.12554 0.0
C1566 C 0.88273 0.79724 0.06782 0.0
C1567 C 0.87205 0.8216 0.06965 0.0
C1568 C 0.87454 0.77669 0.07563 0.0
C1569 C 0.85532 0.78011 0.08523 0.0
C1570 C 0.84373 0.80411 0.08656 0.0
C1571 C 0.852 0.82465 0.07884 0.0
C1572 C 0.84953 0.75977 0.09504 0.0
C1573 C 0.86952 0.75115 0.10317 0.0
C1574 C 0.82431 0.75132 0.09754 0.0
C1575 C 0.80266 0.75897 0.08886 0.0
C1576 C 0.78045 0.76965 0.09445 0.0
C1577 C 0.76018 0.77707 0.08625 0.0
C1578 C 0.76184 0.77383 0.07244 0.0
C1579 C 0.78375 0.76311 0.06681 0.0
C1580 C 0.80407 0.75564 0.07496 0.0
C1581 C 0.83774 0.71117 0.1537 0.0
C1582 C 0.82781 0.68627 0.15338 0.0
C1583 C 0.84016 0.72527 0.142 0.0
C1584 C 0.83311 0.7146 0.1297 0.0
C1585 C 0.82171 0.69036 0.12941 0.0
C1586 C 0.81904 0.67626 0.1412 0.0
C1587 C 0.83941 0.72821 0.11719 0.0
C1588 C 0.81958 0.73553 0.10861 0.0
C1589 C 0.86484 0.7355 0.11423 0.0
C1590 C 0.88672 0.72782 0.1228 0.0
C1591 C 0.89066 0.70205 0.12615 0.0
C1592 C 0.9105 0.69518 0.13475 0.0
C1593 C 0.92692 0.71379 0.13984 0.0
C1594 C 0.92347 0.73937 0.13637 0.0
C1595 C 0.90346 0.74641 0.12791 0.0
H1596 H 0.94228 0.70839 0.14648 0.0
H1597 H 0.74613 0.77961 0.06612 0.0
H1598 H 0.5425 0.59289 0.41896 0.0
H1599 H 0.51435 0.59582 0.39954 0.0
H1600 H 0.57619 0.57238 0.37392 0.0
H1601 H 0.6044 0.56862 0.39344 0.0
H1602 H 0.54549 0.62336 0.36852 0.0
H1603 H 0.53827 0.5321 0.37421 0.0
H1604 H 0.53141 0.49325 0.38761 0.0
H1605 H 0.45668 0.51969 0.39856 0.0
H1606 H 0.46325 0.55889 0.38537 0.0
H1607 H 0.45868 0.63323 0.31365 0.0
H1608 H 0.49364 0.61941 0.32826 0.0
H1609 H 0.43905 0.60169 0.35919 0.0
H1610 H 0.40434 0.61422 0.34454 0.0
H1611 H 0.47165 0.56678 0.35936 0.0
H1612 H 0.47769 0.65817 0.35821 0.0
H1613 H 0.48286 0.70113 0.34855 0.0
H1614 H 0.55628 0.67996 0.33299 0.0
H1615 H 0.55135 0.63673 0.34239 0.0
C1616 C 0.54999 0.58794 0.40922 0.0
C1617 C 0.57557 0.58043 0.40769 0.0
C1618 C 0.53392 0.58964 0.39816 0.0
C1619 C 0.54327 0.58431 0.38536 0.0
C1620 C 0.56869 0.57646 0.38377 0.0
C1621 C 0.58467 0.57418 0.3949 0.0
C1622 C 0.52654 0.58837 0.37368 0.0
C1623 C 0.52961 0.61079 0.36626 0.0
C1624 C 0.50551 0.57228 0.37113 0.0
C1625 C 0.50134 0.54852 0.37888 0.0
C1626 C 0.52045 0.52972 0.37955 0.0
C1627 C 0.5166 0.50761 0.38709 0.0
C1628 C 0.49365 0.50403 0.39395 0.0
C1629 C 0.47446 0.5225 0.39324 0.0
C1630 C 0.47822 0.54465 0.38572 0.0
C1631 C 0.45422 0.62622 0.32354 0.0
C1632 C 0.42875 0.62477 0.32792 0.0
C1633 C 0.47421 0.61846 0.33192 0.0
C1634 C 0.4691 0.60973 0.34493 0.0
C1635 C 0.44361 0.60815 0.3492 0.0
C1636 C 0.42371 0.61541 0.34079 0.0
C1637 C 0.48998 0.60239 0.35428 0.0
C1638 C 0.48771 0.57929 0.36134 0.0
C1639 C 0.5113 0.61837 0.35682 0.0
C1640 C 0.51395 0.64408 0.3508 0.0
C1641 C 0.49478 0.66257 0.35257 0.0
C1642 C 0.4977 0.68699 0.34718 0.0
C1643 C 0.51983 0.69323 0.3401 0.0
C1644 C 0.53909 0.67507 0.33842 0.0
C1645 C 0.53623 0.65059 0.34376 0.0
H1646 H 0.52209 0.71217 0.33597 0.0
H1647 H 0.49072 0.48692 0.3998 0.0
H1648 H 0.40154 0.19498 0.06859 0.0
H1649 H 0.38959 0.22934 0.08388 0.0
H1650 H 0.32564 0.18477 0.09777 0.0
H1651 H 0.33772 0.15017 0.08273 0.0
H1652 H 0.34941 0.25981 0.09081 0.0
H1653 H 0.32893 0.18646 0.13328 0.0
H1654 H 0.33873 0.14165 0.1388 0.0
H1655 H 0.40502 0.14426 0.11363 0.0
H1656 H 0.39602 0.18918 0.10824 0.0
H1657 H 0.31237 0.3276 0.14968 0.0
H1658 H 0.31294 0.29797 0.13074 0.0
H1659 H 0.38334 0.26539 0.14524 0.0
H1660 H 0.38246 0.29414 0.16426 0.0
H1661 H 0.35427 0.22907 0.13756 0.0
H1662 H 0.38109 0.30888 0.11882 0.0
H1663 H 0.37765 0.35464 0.11337 0.0
H1664 H 0.30912 0.34019 0.09111 0.0
H1665 H 0.31198 0.29436 0.09658 0.0
C1666 C 0.38452 0.19278 0.07463 0.0
C1667 C 0.37089 0.16968 0.07469 0.0
C1668 C 0.37766 0.21248 0.08332 0.0
C1669 C 0.35706 0.20933 0.09214 0.0
C1670 C 0.34185 0.18737 0.09119 0.0
C1671 C 0.34882 0.16761 0.08261 0.0
C1672 C 0.3539 0.22704 0.10353 0.0
C1673 C 0.35019 0.25311 0.10104 0.0
C1674 C 0.3557 0.21827 0.11687 0.0
C1675 C 0.36155 0.1912 0.1202 0.0
C1676 C 0.34565 0.17752 0.12896 0.0
C1677 C 0.35109 0.15208 0.13208 0.0
C1678 C 0.37242 0.14007 0.12652 0.0
C1679 C 0.3884 0.1535 0.11786 0.0
C1680 C 0.38314 0.17898 0.11478 0.0
C1681 C 0.32789 0.31404 0.14883 0.0
C1682 C 0.34734 0.31321 0.15848 0.0
C1683 C 0.32826 0.2972 0.13797 0.0
C1684 C 0.34831 0.27957 0.13649 0.0
C1685 C 0.3676 0.2787 0.14618 0.0
C1686 C 0.36709 0.29524 0.15706 0.0
C1687 C 0.34951 0.26195 0.12489 0.0
C1688 C 0.35298 0.23579 0.12735 0.0
C1689 C 0.34834 0.27074 0.11155 0.0
C1690 C 0.34658 0.29826 0.10824 0.0
C1691 C 0.36517 0.3155 0.11285 0.0
C1692 C 0.36335 0.34144 0.10974 0.0
C1693 C 0.34314 0.35033 0.10193 0.0
C1694 C 0.32474 0.33328 0.09718 0.0
C1695 C 0.32645 0.30732 0.10028 0.0
H1696 H 0.34176 0.37041 0.09953 0.0
H1697 H 0.3766 0.12039 0.12895 0.0
H1698 H 0.41662 0.56749 0.89883 0.0
H1699 H 0.44546 0.57063 0.87964 0.0
H1700 H 0.49262 0.62387 0.90133 0.0
H1701 H 0.46383 0.62118 0.92038 0.0
H1702 H 0.48328 0.64159 0.87742 0.0
H1703 H 0.51178 0.5622 0.8957 0.0
H1704 H 0.50734 0.51817 0.90404 0.0
H1705 H 0.47962 0.49396 0.86577 0.0
H1706 H 0.48356 0.53796 0.85725 0.0
H1707 H 0.59891 0.60733 0.83434 0.0
H1708 H 0.56933 0.59521 0.8521 0.0
H1709 H 0.50773 0.63223 0.83114 0.0
H1710 H 0.53719 0.64464 0.81337 0.0
H1711 H 0.52471 0.56846 0.8546 0.0
H1712 H 0.47339 0.66632 0.85421 0.0
H1713 H 0.48202 0.71092 0.84769 0.0
H1714 H 0.56236 0.69892 0.85337 0.0
H1715 H 0.55422 0.65442 0.8601 0.0
C1716 C 0.43328 0.57965 0.89955 0.0
C1717 C 0.43785 0.59416 0.91112 0.0
C1718 C 0.44978 0.58139 0.88859 0.0
C1719 C 0.47124 0.59747 0.88905 0.0
C1720 C 0.47612 0.61145 0.90071 0.0
C1721 C 0.45964 0.60982 0.91162 0.0
C1722 C 0.48808 0.60075 0.87724 0.0
C1723 C 0.49222 0.62555 0.87242 0.0
C1724 C 0.50008 0.5799 0.8708 0.0
C1725 C 0.49771 0.55343 0.87588 0.0
C1726 C 0.50453 0.54753 0.8891 0.0
C1727 C 0.50214 0.52257 0.89385 0.0
C1728 C 0.49313 0.50329 0.88545 0.0
C1729 C 0.48655 0.50892 0.87227 0.0
C1730 C 0.48888 0.53386 0.86747 0.0
C1731 C 0.57898 0.61252 0.83337 0.0
C1732 C 0.57049 0.62722 0.8225 0.0
C1733 C 0.56208 0.60549 0.84352 0.0
C1734 C 0.53643 0.61314 0.84303 0.0
C1735 C 0.52754 0.62642 0.83179 0.0
C1736 C 0.54441 0.63343 0.82162 0.0
C1737 C 0.5196 0.60923 0.85476 0.0
C1738 C 0.51549 0.5844 0.85955 0.0
C1739 C 0.5081 0.63011 0.86142 0.0
C1740 C 0.51319 0.65694 0.85749 0.0
C1741 C 0.49289 0.67323 0.8541 0.0
C1742 C 0.4977 0.6985 0.85038 0.0
C1743 C 0.52272 0.70772 0.85008 0.0
C1744 C 0.543 0.69173 0.85355 0.0
C1745 C 0.5383 0.66648 0.85731 0.0
H1746 H 0.5264 0.72728 0.84719 0.0
H1747 H 0.4913 0.48398 0.88915 0.0
H1748 H 0.14003 0.71392 0.66701 0.0
H1749 H 0.13379 0.7408 0.64749 0.0
H1750 H 0.17611 0.68727 0.6234 0.0
H1751 H 0.18284 0.6602 0.64309 0.0
H1752 H 0.18668 0.73753 0.61676 0.0
H1753 H 0.1131 0.68477 0.62249 0.0
H1754 H 0.07804 0.66488 0.63521 0.0
H1755 H 0.04648 0.73881 0.64351 0.0
H1756 H 0.08158 0.75919 0.63103 0.0
H1757 H 0.08926 0.79617 0.56514 0.0
H1758 H 0.10376 0.76146 0.57961 0.0
H1759 H 0.15088 0.8144 0.60151 0.0
H1760 H 0.13666 0.84911 0.58709 0.0
H1761 H 0.0963 0.75729 0.60598 0.0
H1762 H 0.2035 0.78375 0.61315 0.0
H1763 H 0.23871 0.80214 0.59993 0.0
H1764 H 0.20278 0.77686 0.56377 0.0
H1765 H 0.16757 0.75799 0.57677 0.0
C1766 C 0.14827 0.70791 0.65761 0.0
C1767 C 0.16167 0.68476 0.65656 0.0
C1768 C 0.14464 0.7233 0.64645 0.0
C1769 C 0.15403 0.71575 0.63396 0.0
C1770 C 0.16859 0.69333 0.63296 0.0
C1771 C 0.17239 0.67791 0.64419 0.0
C1772 C 0.14736 0.73079 0.62195 0.0
C1773 C 0.16695 0.74177 0.61433 0.0
C1774 C 0.12157 0.73573 0.6186 0.0
C1775 C 0.10007 0.72351 0.62587 0.0
C1776 C 0.09875 0.6968 0.62708 0.0
C1777 C 0.07887 0.68543 0.63425 0.0
C1778 C 0.06006 0.70057 0.64018 0.0
C1779 C 0.06106 0.72711 0.63891 0.0
C1780 C 0.08093 0.73857 0.63178 0.0
C1781 C 0.10293 0.80037 0.57294 0.0
C1782 C 0.11173 0.82542 0.575 0.0
C1783 C 0.11116 0.78052 0.5812 0.0
C1784 C 0.12853 0.78532 0.59156 0.0
C1785 C 0.13776 0.81019 0.59345 0.0
C1786 C 0.12947 0.83005 0.58524 0.0
C1787 C 0.13563 0.76483 0.60105 0.0
C1788 C 0.11606 0.75281 0.60824 0.0
C1789 C 0.16141 0.75868 0.60384 0.0
C1790 C 0.18277 0.76961 0.59595 0.0
C1791 C 0.20318 0.78198 0.60238 0.0
C1792 C 0.22313 0.79252 0.59492 0.0
C1793 C 0.22295 0.79073 0.58102 0.0
C1794 C 0.20286 0.77831 0.57454 0.0
C1795 C 0.18288 0.76772 0.58195 0.0
H1796 H 0.23839 0.79894 0.57526 0.0
H1797 H 0.04471 0.69174 0.64574 0.0
H1798 H 0.04888 0.37705 0.41178 0.0
H1799 H 0.02399 0.37261 0.39143 0.0
H1800 H 0.07888 0.41855 0.37015 0.0
H1801 H 0.10381 0.42359 0.39069 0.0
H1802 H 0.03205 0.43321 0.36409 0.0
H1803 H 0.07422 0.35078 0.36104 0.0
H1804 H 0.08991 0.30883 0.36864 0.0
H1805 H 0.01519 0.29007 0.38328 0.0
H1806 H 0.99876 0.3314 0.37513 0.0
H1807 H 0.95816 0.35226 0.30953 0.0
H1808 H 0.9957 0.36102 0.3233 0.0
H1809 H 0.9511 0.41215 0.3477 0.0
H1810 H 0.91368 0.40381 0.33393 0.0
H1811 H 0.00036 0.34902 0.34865 0.0
H1812 H 0.98883 0.45672 0.36206 0.0
H1813 H 0.97538 0.49666 0.35112 0.0
H1814 H 0.99432 0.46517 0.31283 0.0
H1815 H 0.00823 0.42519 0.32354 0.0
C1816 C 0.05577 0.38621 0.40279 0.0
C1817 C 0.07832 0.40077 0.40289 0.0
C1818 C 0.04161 0.38341 0.3911 0.0
C1819 C 0.04979 0.39481 0.37917 0.0
C1820 C 0.07226 0.40946 0.37921 0.0
C1821 C 0.08644 0.41239 0.39097 0.0
C1822 C 0.03391 0.3925 0.36695 0.0
C1823 C 0.02529 0.41481 0.36062 0.0
C1824 C 0.02545 0.36853 0.36221 0.0
C1825 C 0.03538 0.34421 0.36762 0.0
C1826 C 0.06121 0.33776 0.36596 0.0
C1827 C 0.07019 0.31406 0.3703 0.0
C1828 C 0.05368 0.29697 0.37665 0.0
C1829 C 0.028 0.30337 0.37844 0.0
C1830 C 0.01878 0.3268 0.37383 0.0
C1831 C 0.95647 0.36577 0.31766 0.0
C1832 C 0.93286 0.3772 0.32068 0.0
C1833 C 0.97794 0.37071 0.32554 0.0
C1834 C 0.97626 0.3873 0.33651 0.0
C1835 C 0.953 0.39958 0.33918 0.0
C1836 C 0.93154 0.39466 0.33132 0.0
C1837 C 0.99789 0.38976 0.346 0.0
C1838 C 0.00744 0.36746 0.3519 0.0
C1839 C 0.00751 0.41375 0.35012 0.0
C1840 C 0.9994 0.43786 0.34361 0.0
C1841 C 0.99025 0.45835 0.35131 0.0
C1842 C 0.98252 0.481 0.34515 0.0
C1843 C 0.98394 0.48343 0.33129 0.0
C1844 C 0.99315 0.46324 0.32356 0.0
C1845 C 0.00092 0.44056 0.32967 0.0
H1846 H 0.97793 0.50097 0.32654 0.0
H1847 H 0.06075 0.27871 0.38007 0.0
H1848 H 0.33375 0.65999 0.35839 0.0
H1849 H 0.33534 0.69044 0.3769 0.0
H1850 H 0.35096 0.75139 0.34906 0.0
H1851 H 0.35087 0.72074 0.33072 0.0
H1852 H 0.38182 0.75586 0.36789 0.0
H1853 H 0.29145 0.74295 0.36664 0.0
H1854 H 0.25115 0.71862 0.36666 0.0
H1855 H 0.26876 0.68875 0.40546 0.0
H1856 H 0.30935 0.71267 0.4056 0.0
H1857 H 0.35341 0.86118 0.40973 0.0
H1858 H 0.34472 0.82714 0.39375 0.0
H1859 H 0.36961 0.77108 0.42237 0.0
H1860 H 0.37902 0.80521 0.43846 0.0
H1861 H 0.31853 0.76306 0.40454 0.0
H1862 H 0.41094 0.77807 0.4041 0.0
H1863 H 0.44878 0.80604 0.40303 0.0
H1864 H 0.42282 0.83654 0.36567 0.0
H1865 H 0.38472 0.80891 0.36659 0.0
C1866 C 0.33715 0.67997 0.35625 0.0
C1867 C 0.34225 0.68807 0.34317 0.0
C1868 C 0.33796 0.6974 0.36682 0.0
C1869 C 0.34311 0.72335 0.36442 0.0
C1870 C 0.34715 0.73149 0.35123 0.0
C1871 C 0.347 0.714 0.34074 0.0
C1872 C 0.34597 0.7418 0.37561 0.0
C1873 C 0.36774 0.75749 0.37578 0.0
C1874 C 0.32794 0.74382 0.38612 0.0
C1875 C 0.30357 0.72938 0.38606 0.0
C1876 C 0.28683 0.73103 0.37513 0.0
C1877 C 0.26392 0.71734 0.37512 0.0
C1878 C 0.25744 0.70209 0.38604 0.0
C1879 C 0.27383 0.70054 0.397 0.0
C1880 C 0.29678 0.71417 0.39706 0.0
C1881 C 0.35667 0.84161 0.41276 0.0
C1882 C 0.36701 0.83588 0.42535 0.0
C1883 C 0.3517 0.82221 0.40359 0.0
C1884 C 0.3566 0.79674 0.40692 0.0
C1885 C 0.36568 0.79071 0.41969 0.0
C1886 C 0.37109 0.81019 0.42883 0.0
C1887 C 0.35409 0.77683 0.39659 0.0
C1888 C 0.33249 0.76106 0.39661 0.0
C1889 C 0.3719 0.77507 0.38607 0.0
C1890 C 0.39487 0.79162 0.38549 0.0
C1891 C 0.41319 0.79091 0.39572 0.0
C1892 C 0.43473 0.80664 0.39511 0.0
C1893 C 0.43822 0.82307 0.38429 0.0
C1894 C 0.42016 0.82378 0.37404 0.0
C1895 C 0.3986 0.80807 0.37459 0.0
H1896 H 0.45494 0.83517 0.38383 0.0
H1897 H 0.23968 0.69151 0.38602 0.0
H1898 H 0.04 0.61416 0.08686 0.0
H1899 H 0.00977 0.61681 0.10514 0.0
H1900 H 0.05028 0.55737 0.12607 0.0
H1901 H 0.0813 0.55487 0.1077 0.0
H1902 H 0.97717 0.58409 0.11505 0.0
H1903 H 0.04315 0.57016 0.1602 0.0
H1904 H 0.08855 0.57509 0.1663 0.0
H1905 H 0.09701 0.63422 0.13699 0.0
H1906 H 0.05162 0.62985 0.13084 0.0
H1907 H 0.895 0.59083 0.1702 0.0
H1908 H 0.92977 0.57469 0.15629 0.0
H1909 H 0.97157 0.64463 0.1626 0.0
H1910 H 0.93727 0.6604 0.177 0.0
H1911 H 0.00408 0.60654 0.16103 0.0
H1912 H 0.93256 0.63534 0.13483 0.0
H1913 H 0.88734 0.63658 0.12779 0.0
H1914 H 0.89088 0.55716 0.11738 0.0
H1915 H 0.93597 0.5555 0.12454 0.0
C1916 C 0.04258 0.60151 0.09529 0.0
C1917 C 0.06317 0.58432 0.0958 0.0
C1918 C 0.02514 0.60301 0.10575 0.0
C1919 C 0.02776 0.58738 0.11701 0.0
C1920 C 0.04803 0.5698 0.11752 0.0
C1921 C 0.06566 0.56832 0.107 0.0
C1922 C 0.00922 0.59016 0.12813 0.0
C1923 C 0.98309 0.58865 0.12515 0.0
C1924 C 0.01687 0.59644 0.14127 0.0
C1925 C 0.04411 0.59942 0.14495 0.0
C1926 C 0.05472 0.58423 0.15508 0.0
C1927 C 0.08043 0.58693 0.15855 0.0
C1928 C 0.09568 0.60488 0.152 0.0
C1929 C 0.08521 0.62025 0.14201 0.0
C1930 C 0.0595 0.61764 0.13852 0.0
C1931 C 0.91181 0.60258 0.1688 0.0
C1932 C 0.91333 0.62698 0.17457 0.0
C1933 C 0.93165 0.59336 0.16082 0.0
C1934 C 0.95308 0.60864 0.15815 0.0
C1935 C 0.95524 0.63247 0.1645 0.0
C1936 C 0.93559 0.64151 0.1727 0.0
C1937 C 0.97205 0.60092 0.14786 0.0
C1938 C 0.99819 0.6014 0.15101 0.0
C1939 C 0.96447 0.59438 0.13473 0.0
C1940 C 0.93743 0.59527 0.13038 0.0
C1941 C 0.92355 0.61816 0.13113 0.0
C1942 C 0.898 0.61893 0.12711 0.0
C1943 C 0.88623 0.59694 0.12218 0.0
C1944 C 0.90001 0.57417 0.12123 0.0
C1945 C 0.92555 0.57331 0.12527 0.0
H1946 H 0.86645 0.59756 0.11907 0.0
H1947 H 0.11559 0.60693 0.15469 0.0
H1948 H 0.15012 0.28505 0.83255 0.0
H1949 H 0.14442 0.2572 0.85177 0.0
H1950 H 0.16102 0.32012 0.87819 0.0
H1951 H 0.16796 0.34792 0.8588 0.0
H1952 H 0.18174 0.27838 0.88774 0.0
H1953 H 0.09769 0.29936 0.87327 0.0
H1954 H 0.06245 0.30557 0.85725 0.0
H1955 H 0.06519 0.22612 0.84686 0.0
H1956 H 0.10074 0.21959 0.86261 0.0
H1957 H 0.1197 0.19748 0.93929 0.0
H1958 H 0.1282 0.23416 0.9246 0.0
H1959 H 0.14401 0.18278 0.89204 0.0
H1960 H 0.1363 0.14629 0.90658 0.0
H1961 H 0.10353 0.22496 0.88882 0.0
H1962 H 0.19154 0.20655 0.90262 0.0
H1963 H 0.22519 0.20189 0.91964 0.0
H1964 H 0.2122 0.27883 0.93273 0.0
H1965 H 0.17817 0.2838 0.9159 0.0
C1966 C 0.15278 0.29289 0.84245 0.0
C1967 C 0.15939 0.31861 0.84421 0.0
C1968 C 0.14931 0.27702 0.85345 0.0
C1969 C 0.15156 0.28672 0.86645 0.0
C1970 C 0.15901 0.31225 0.86825 0.0
C1971 C 0.16304 0.32808 0.85719 0.0
C1972 C 0.14595 0.26996 0.87803 0.0
C1973 C 0.16443 0.26703 0.88808 0.0
C1974 C 0.12329 0.2552 0.87859 0.0
C1975 C 0.10193 0.25904 0.86907 0.0
C1976 C 0.09089 0.28329 0.86748 0.0
C1977 C 0.07086 0.28686 0.85845 0.0
C1978 C 0.06162 0.26628 0.85102 0.0
C1979 C 0.07236 0.24206 0.85262 0.0
C1980 C 0.09242 0.2384 0.86161 0.0
C1981 C 0.12534 0.19408 0.92905 0.0
C1982 C 0.12745 0.16904 0.92409 0.0
C1983 C 0.1302 0.21497 0.92071 0.0
C1984 C 0.13676 0.21102 0.9073 0.0
C1985 C 0.13909 0.18611 0.9024 0.0
C1986 C 0.13477 0.16531 0.91074 0.0
C1987 C 0.13981 0.23262 0.89801 0.0
C1988 C 0.12068 0.23655 0.88849 0.0
C1989 C 0.16163 0.24844 0.89806 0.0
C1990 C 0.18209 0.24542 0.90814 0.0
C1991 C 0.19565 0.22237 0.90923 0.0
C1992 C 0.21485 0.21969 0.91881 0.0
C1993 C 0.22077 0.24001 0.9273 0.0
C1994 C 0.20755 0.26308 0.92618 0.0
C1995 C 0.18833 0.26584 0.91661 0.0
H1996 H 0.23564 0.23791 0.93471 0.0
H1997 H 0.04611 0.26909 0.84404 0.0
H1998 H 0.47113 0.41412 0.58237 0.0
H1999 H 0.5005 0.40992 0.60114 0.0
H2000 H 0.4384 0.42312 0.62861 0.0
H2001 H 0.40906 0.42862 0.6097 0.0
H2002 H 0.48138 0.44309 0.63835 0.0
H2003 H 0.45718 0.36219 0.62045 0.0
H2004 H 0.45019 0.3304 0.60268 0.0
H2005 H 0.53033 0.33074 0.59359 0.0
H2006 H 0.53774 0.36287 0.61115 0.0
H2007 H 0.55176 0.37038 0.68953 0.0
H2008 H 0.51825 0.38409 0.6739 0.0
H2009 H 0.57525 0.39703 0.64362 0.0
H2010 H 0.6087 0.38404 0.65911 0.0
H2011 H 0.5311 0.36247 0.63723 0.0
H2012 H 0.55364 0.44587 0.65485 0.0
H2013 H 0.55947 0.47707 0.67302 0.0
H2014 H 0.48043 0.4696 0.68374 0.0
H2015 H 0.47424 0.43802 0.66576 0.0
C2016 C 0.46385 0.41661 0.59241 0.0
C2017 C 0.43783 0.42141 0.59463 0.0
C2018 C 0.48059 0.41409 0.60313 0.0
C2019 C 0.47149 0.4154 0.61629 0.0
C2020 C 0.44579 0.42181 0.61854 0.0
C2021 C 0.42907 0.42495 0.60775 0.0
C2022 C 0.4885 0.40822 0.62754 0.0
C2023 C 0.49196 0.4253 0.6382 0.0
C2024 C 0.50228 0.38493 0.6274 0.0
C2025 C 0.49798 0.36509 0.61705 0.0
C2026 C 0.47329 0.35556 0.61462 0.0
C2027 C 0.46926 0.33749 0.60458 0.0
C2028 C 0.4898 0.32861 0.59699 0.0
C2029 C 0.51444 0.33767 0.59947 0.0
C2030 C 0.51857 0.35579 0.60947 0.0
C2031 C 0.55712 0.37644 0.67959 0.0
C2032 C 0.58285 0.37613 0.67555 0.0
C2033 C 0.53802 0.38431 0.67071 0.0
C2034 C 0.5444 0.39156 0.65766 0.0
C2035 C 0.57004 0.39156 0.65368 0.0
C2036 C 0.5891 0.38419 0.66257 0.0
C2037 C 0.52443 0.39761 0.64776 0.0
C2038 C 0.52031 0.38015 0.6374 0.0
C2039 C 0.50987 0.42028 0.64832 0.0
C2040 C 0.51356 0.43933 0.65908 0.0
C2041 C 0.53757 0.45066 0.66118 0.0
C2042 C 0.54093 0.46847 0.67142 0.0
C2043 C 0.52036 0.47524 0.67956 0.0
C2044 C 0.49637 0.46429 0.67745 0.0
C2045 C 0.49292 0.44644 0.66723 0.0
H2046 H 0.52299 0.48904 0.68748 0.0
H2047 H 0.48666 0.31472 0.58917 0.0
H2048 H 0.35524 0.28546 0.22823 0.0
H2049 H 0.32618 0.26016 0.24208 0.0
H2050 H 0.26159 0.29763 0.22396 0.0
H2051 H 0.29035 0.32308 0.21022 0.0
H2052 H 0.25625 0.29507 0.25059 0.0
H2053 H 0.2777 0.23743 0.21509 0.0
H2054 H 0.3065 0.2131 0.20035 0.0
H2055 H 0.33751 0.17383 0.23426 0.0
H2056 H 0.30912 0.1982 0.24923 0.0
H2057 H 0.15856 0.21064 0.27276 0.0
H2058 H 0.18784 0.23533 0.25875 0.0
H2059 H 0.25211 0.19806 0.27729 0.0
H2060 H 0.22309 0.17321 0.29121 0.0
H2061 H 0.25773 0.20041 0.2505 0.0
H2062 H 0.23621 0.25813 0.28599 0.0
H2063 H 0.20726 0.28239 0.30068 0.0
H2064 H 0.17625 0.32148 0.26671 0.0
H2065 H 0.2048 0.29718 0.2518 0.0
C2066 C 0.33486 0.28829 0.22718 0.0
C2067 C 0.32514 0.30626 0.21809 0.0
C2068 C 0.31827 0.27375 0.23507 0.0
C2069 C 0.2917 0.27687 0.23397 0.0
C2070 C 0.28201 0.29491 0.22498 0.0
C2071 C 0.29852 0.30939 0.21709 0.0
C2072 C 0.27391 0.26153 0.24225 0.0
C2073 C 0.25636 0.27437 0.25045 0.0
C2074 C 0.2744 0.23453 0.24227 0.0
C2075 C 0.29148 0.21984 0.23329 0.0
C2076 C 0.29081 0.22376 0.21942 0.0
C2077 C 0.30703 0.20994 0.21102 0.0
C2078 C 0.32388 0.19198 0.21637 0.0
C2079 C 0.32448 0.18777 0.23013 0.0
C2080 C 0.30832 0.20158 0.23858 0.0
C2081 C 0.17892 0.20769 0.27385 0.0
C2082 C 0.18847 0.19002 0.28315 0.0
C2083 C 0.19563 0.22187 0.26587 0.0
C2084 C 0.22217 0.21868 0.26707 0.0
C2085 C 0.23171 0.20083 0.27621 0.0
C2086 C 0.21506 0.18671 0.28419 0.0
C2087 C 0.24007 0.23396 0.25883 0.0
C2088 C 0.25763 0.22111 0.25064 0.0
C2089 C 0.23959 0.26096 0.25881 0.0
C2090 C 0.22246 0.27565 0.26777 0.0
C2091 C 0.22307 0.27175 0.28164 0.0
C2092 C 0.20676 0.28553 0.29001 0.0
C2093 C 0.18988 0.30341 0.28463 0.0
C2094 C 0.18932 0.3076 0.27087 0.0
C2095 C 0.20557 0.29384 0.26245 0.0
H2096 H 0.17727 0.31407 0.29113 0.0
H2097 H 0.33641 0.18129 0.20985 0.0
H2098 H 0.0297 0.89246 0.51718 0.0
H2099 H 0.00715 0.9193 0.501 0.0
H2100 H 0.04042 0.98651 0.51877 0.0
H2101 H 0.06308 0.96 0.53482 0.0
H2102 H 0.97188 0.95685 0.50539 0.0
H2103 H 0.0523 0.03029 0.49469 0.0
H2104 H 0.09932 0.03157 0.49338 0.0
H2105 H 0.10098 0.95169 0.4839 0.0
H2106 H 0.05398 0.95 0.48495 0.0
H2107 H 0.95968 0.0884 0.47092 0.0
H2108 H 0.98387 0.05741 0.48402 0.0
H2109 H 0.9452 0.9958 0.46386 0.0
H2110 H 0.92068 0.02662 0.45083 0.0
H2111 H 0.01675 0.0199 0.47685 0.0
H2112 H 0.9359 0.94728 0.4863 0.0
H2113 H 0.88889 0.94622 0.48801 0.0
H2114 H 0.88837 0.02462 0.50047 0.0
H2115 H 0.93535 0.02603 0.49902 0.0
C2116 C 0.03229 0.91294 0.51759 0.0
C2117 C 0.04822 0.92409 0.52727 0.0
C2118 C 0.01937 0.92823 0.50837 0.0
C2119 C 0.02237 0.95483 0.5086 0.0
C2120 C 0.03818 0.96598 0.51827 0.0
C2121 C 0.05102 0.95077 0.52749 0.0
C2122 C 0.00845 0.9712 0.49903 0.0
C2123 C 0.98168 0.9703 0.49895 0.0
C2124 C 0.0213 0.9891 0.49087 0.0
C2125 C 0.0496 0.98999 0.49002 0.0
C2126 C 0.06269 0.01303 0.49226 0.0
C2127 C 0.08934 0.01382 0.49157 0.0
C2128 C 0.10313 0.99171 0.4886 0.0
C2129 C 0.09028 0.96878 0.48625 0.0
C2130 C 0.06363 0.96789 0.48691 0.0
C2131 C 0.95633 0.06828 0.46926 0.0
C2132 C 0.93814 0.05999 0.45989 0.0
C2133 C 0.97023 0.05059 0.47672 0.0
C2134 C 0.96613 0.02434 0.47499 0.0
C2135 C 0.94838 0.01599 0.46547 0.0
C2136 C 0.93445 0.03365 0.45802 0.0
C2137 C 0.98019 0.00575 0.48333 0.0
C2138 C 0.00697 0.00626 0.48318 0.0
C2139 C 0.96736 0.98752 0.49131 0.0
C2140 C 0.93911 0.98682 0.49239 0.0
C2141 C 0.92574 0.96426 0.48944 0.0
C2142 C 0.89911 0.9636 0.49036 0.0
C2143 C 0.88565 0.98537 0.4943 0.0
C2144 C 0.8988 0.00781 0.49737 0.0
C2145 C 0.92543 0.00855 0.49648 0.0
H2146 H 0.86503 0.98483 0.49499 0.0
H2147 H 0.12377 0.99236 0.48808 0.0
H2148 H 0.22148 0.67971 0.70833 0.0
H2149 H 0.24878 0.70485 0.72306 0.0
H2150 H 0.18216 0.73753 0.74174 0.0
H2151 H 0.15463 0.71265 0.72693 0.0
H2152 H 0.21868 0.77335 0.73682 0.0
H2153 H 0.21433 0.69048 0.75701 0.0
H2154 H 0.21762 0.64355 0.75752 0.0
H2155 H 0.29727 0.6483 0.74764 0.0
H2156 H 0.29436 0.69527 0.74685 0.0
H2157 H 0.2813 0.82424 0.79355 0.0
H2158 H 0.25313 0.79907 0.77926 0.0
H2159 H 0.31864 0.7648 0.7603 0.0
H2160 H 0.347 0.78965 0.77465 0.0
H2161 H 0.28212 0.72971 0.76564 0.0
H2162 H 0.28645 0.81232 0.74508 0.0
H2163 H 0.28331 0.85925 0.7443 0.0
H2164 H 0.20389 0.85498 0.75473 0.0
H2165 H 0.20665 0.80802 0.75576 0.0
C2166 C 0.21259 0.69231 0.71553 0.0
C2167 C 0.18586 0.69408 0.7165 0.0
C2168 C 0.22824 0.70659 0.72398 0.0
C2169 C 0.21748 0.72278 0.73361 0.0
C2170 C 0.19083 0.72508 0.7344 0.0
C2171 C 0.17514 0.7108 0.72595 0.0
C2172 C 0.23407 0.73711 0.74295 0.0
C2173 C 0.2323 0.76381 0.74326 0.0
C2174 C 0.2522 0.72463 0.75114 0.0
C2175 C 0.25407 0.69639 0.75175 0.0
C2176 C 0.23251 0.68151 0.75485 0.0
C2177 C 0.23431 0.65491 0.7552 0.0
C2178 C 0.25762 0.64295 0.75258 0.0
C2179 C 0.27921 0.65759 0.74965 0.0
C2180 C 0.2775 0.68421 0.74925 0.0
C2181 C 0.28975 0.81127 0.78639 0.0
C2182 C 0.31642 0.80905 0.7852 0.0
C2183 C 0.2736 0.79698 0.77819 0.0
C2184 C 0.28381 0.78032 0.76861 0.0
C2185 C 0.31039 0.77759 0.76762 0.0
C2186 C 0.32656 0.79187 0.77581 0.0
C2187 C 0.26677 0.76597 0.75949 0.0
C2188 C 0.26846 0.73925 0.75922 0.0
C2189 C 0.24859 0.77843 0.75133 0.0
C2190 C 0.24683 0.80667 0.75063 0.0
C2191 C 0.26837 0.8214 0.74731 0.0
C2192 C 0.26664 0.848 0.74681 0.0
C2193 C 0.24343 0.86009 0.7495 0.0
C2194 C 0.22187 0.84559 0.75266 0.0
C2195 C 0.2235 0.81898 0.7532 0.0
H2196 H 0.24213 0.88069 0.7491 0.0
H2197 H 0.25898 0.62235 0.75286 0.0
H2198 H 0.46236 0.09029 0.02691 0.0
H2199 H 0.48604 0.06081 0.01269 0.0
H2200 H 0.45885 0.99736 0.03616 0.0
H2201 H 0.43447 0.0267 0.0502 0.0
H2202 H 0.52331 0.02857 0.0165 0.0
H2203 H 0.45038 0.94541 0.01635 0.0
H2204 H 0.40395 0.93876 0.01874 0.0
H2205 H 0.38997 0.01497 0.00483 0.0
H2206 H 0.43626 0.02194 0.00217 0.0
H2207 H 0.54205 0.89648 0.98227 0.0
H2208 H 0.51861 0.92417 0.99767 0.0
H2209 H 0.53961 0.98986 0.97417 0.0
H2210 H 0.56354 0.96249 0.95896 0.0
H2211 H 0.47877 0.95635 0.9945 0.0
H2212 H 0.54902 0.04057 0.99412 0.0
H2213 H 0.59464 0.04856 0.98965 0.0
H2214 H 0.61304 0.97265 0.00258 0.0
H2215 H 0.56755 0.96432 0.0073 0.0
C2216 C 0.46149 0.07007 0.0291 0.0
C2217 C 0.44637 0.06083 0.03964 0.0
C2218 C 0.47509 0.05324 0.02097 0.0
C2219 C 0.47394 0.02683 0.02322 0.0
C2220 C 0.4596 0.01761 0.03404 0.0
C2221 C 0.44577 0.03442 0.04211 0.0
C2222 C 0.4874 0.00902 0.01409 0.0
C2223 C 0.5135 0.01292 0.01161 0.0
C2224 C 0.47472 0.98837 0.00782 0.0
C2225 C 0.4468 0.98427 0.00922 0.0
C2226 C 0.43738 0.96071 0.01376 0.0
C2227 C 0.41109 0.95689 0.01517 0.0
C2228 C 0.39403 0.97646 0.01199 0.0
C2229 C 0.40321 0.99986 0.00734 0.0
C2230 C 0.42947 0.00376 0.0059 0.0
C2231 C 0.54162 0.91682 0.98037 0.0
C2232 C 0.55487 0.92732 0.96947 0.0
C2233 C 0.52819 0.9326 0.98916 0.0
C2234 C 0.52775 0.95911 0.98721 0.0
C2235 C 0.54017 0.96951 0.97605 0.0
C2236 C 0.55377 0.95381 0.96733 0.0
C2237 C 0.51459 0.97598 0.99691 0.0
C2238 C 0.48858 0.97189 0.99949 0.0
C2239 C 0.52727 0.99668 0.00312 0.0
C2240 C 0.55484 0.00177 0.00095 0.0
C2241 C 0.56282 0.02566 0.99611 0.0
C2242 C 0.58864 0.03023 0.99351 0.0
C2243 C 0.60669 0.01109 0.99577 0.0
C2244 C 0.59901 0.98742 0.00078 0.0
C2245 C 0.5732 0.98276 0.00342 0.0
H2246 H 0.62662 0.01463 0.99361 0.0
H2247 H 0.37369 0.97348 0.0131 0.0
H2248 H 0.35643 0.71046 0.27273 0.0
H2249 H 0.32798 0.73536 0.25836 0.0
H2250 H 0.26254 0.70135 0.27751 0.0
H2251 H 0.29068 0.67668 0.29196 0.0
H2252 H 0.2919 0.72071 0.2403 0.0
H2253 H 0.21507 0.74545 0.27976 0.0
H2254 H 0.21186 0.75251 0.30404 0.0
H2255 H 0.29055 0.77538 0.30528 0.0
H2256 H 0.29414 0.76882 0.281 0.0
H2257 H 0.16114 0.78842 0.22789 0.0
H2258 H 0.18979 0.76302 0.24189 0.0
H2259 H 0.25496 0.79694 0.22243 0.0
H2260 H 0.22658 0.82213 0.20834 0.0
H2261 H 0.22586 0.77761 0.25972 0.0
H2262 H 0.30259 0.75271 0.22017 0.0
H2263 H 0.30563 0.7457 0.19588 0.0
H2264 H 0.22685 0.72308 0.19476 0.0
H2265 H 0.22345 0.72959 0.21906 0.0
C2266 C 0.33598 0.70831 0.2739 0.0
C2267 C 0.32585 0.69167 0.28355 0.0
C2268 C 0.31976 0.72249 0.26565 0.0
C2269 C 0.29315 0.72042 0.26696 0.0
C2270 C 0.28301 0.70356 0.27646 0.0
C2271 C 0.29917 0.6894 0.28469 0.0
C2272 C 0.27589 0.73587 0.25844 0.0
C2273 C 0.2777 0.73343 0.24453 0.0
C2274 C 0.25696 0.75199 0.26399 0.0
C2275 C 0.25492 0.75637 0.27858 0.0
C2276 C 0.23166 0.75208 0.28521 0.0
C2277 C 0.22978 0.75599 0.29897 0.0
C2278 C 0.25101 0.76431 0.30621 0.0
C2279 C 0.27415 0.76884 0.29968 0.0
C2280 C 0.27612 0.765 0.28592 0.0
C2281 C 0.18157 0.79042 0.22656 0.0
C2282 C 0.19156 0.80724 0.21695 0.0
C2283 C 0.19791 0.77595 0.2346 0.0
C2284 C 0.2245 0.77789 0.2331 0.0
C2285 C 0.2345 0.79483 0.22361 0.0
C2286 C 0.21822 0.8093 0.2156 0.0
C2287 C 0.24184 0.76244 0.24157 0.0
C2288 C 0.24006 0.76489 0.25548 0.0
C2289 C 0.26077 0.74633 0.23602 0.0
C2290 C 0.26272 0.74192 0.22142 0.0
C2291 C 0.28595 0.74614 0.21475 0.0
C2292 C 0.28773 0.74227 0.20098 0.0
C2293 C 0.26642 0.73404 0.19377 0.0
C2294 C 0.24332 0.72956 0.20034 0.0
C2295 C 0.24145 0.73337 0.21411 0.0
H2296 H 0.26782 0.73109 0.18311 0.0
H2297 H 0.24952 0.76729 0.31686 0.0
H2298 H 0.41979 0.9715 0.46342 0.0
H2299 H 0.44551 0.99822 0.47816 0.0
H2300 H 0.48107 0.93105 0.49467 0.0
H2301 H 0.45557 0.9041 0.47984 0.0
H2302 H 0.44762 0.00059 0.50501 0.0
H2303 H 0.54319 0.94585 0.5027 0.0
H2304 H 0.56718 0.91819 0.4872 0.0
H2305 H 0.52951 0.95321 0.45386 0.0
H2306 H 0.50559 0.98129 0.46914 0.0
H2307 H 0.57244 0.0316 0.54482 0.0
H2308 H 0.54612 0.00264 0.53154 0.0
H2309 H 0.50729 0.06706 0.51407 0.0
H2310 H 0.53324 0.09614 0.52744 0.0
H2311 H 0.5423 0.99745 0.505 0.0
H2312 H 0.44567 0.0512 0.50745 0.0
H2313 H 0.42183 0.07891 0.52297 0.0
H2314 H 0.46169 0.04589 0.55617 0.0
H2315 H 0.48551 0.01774 0.54087 0.0
C2316 C 0.43312 0.96236 0.47015 0.0
C2317 C 0.43568 0.93564 0.47041 0.0
C2318 C 0.44774 0.97768 0.47861 0.0
C2319 C 0.46533 0.96666 0.48744 0.0
C2320 C 0.46784 0.93999 0.48781 0.0
C2321 C 0.4532 0.92461 0.47935 0.0
C2322 C 0.48092 0.98317 0.49628 0.0
C2323 C 0.46833 0.00012 0.50491 0.0
C2324 C 0.50792 0.98206 0.49639 0.0
C2325 C 0.52239 0.96545 0.48708 0.0
C2326 C 0.54009 0.94768 0.49206 0.0
C2327 C 0.55367 0.93193 0.48331 0.0
C2328 C 0.5498 0.93387 0.46955 0.0
C2329 C 0.53241 0.95164 0.46452 0.0
C2330 C 0.51881 0.96746 0.47322 0.0
C2331 C 0.55819 0.03963 0.53822 0.0
C2332 C 0.5549 0.06621 0.53722 0.0
C2333 C 0.54323 0.02304 0.5306 0.0
C2334 C 0.52459 0.03266 0.5219 0.0
C2335 C 0.52127 0.05918 0.52087 0.0
C2336 C 0.5362 0.07579 0.52849 0.0
C2337 C 0.50901 0.01502 0.51366 0.0
C2338 C 0.52159 0.99785 0.50515 0.0
C2339 C 0.482 0.01591 0.51368 0.0
C2340 C 0.46755 0.03255 0.52299 0.0
C2341 C 0.44928 0.04978 0.51807 0.0
C2342 C 0.43578 0.06558 0.52683 0.0
C2343 C 0.4403 0.06422 0.54054 0.0
C2344 C 0.45828 0.04699 0.54554 0.0
C2345 C 0.47181 0.03114 0.53682 0.0
H2346 H 0.42984 0.07647 0.5473 0.0
H2347 H 0.56032 0.92165 0.4628 0.0
H2348 H 0.22097 0.31743 0.79587 0.0
H2349 H 0.24985 0.29247 0.78187 0.0
H2350 H 0.18626 0.26856 0.75754 0.0
H2351 H 0.15713 0.293 0.77169 0.0
H2352 H 0.21821 0.22951 0.76227 0.0
H2353 H 0.22681 0.31726 0.74774 0.0
H2354 H 0.23494 0.36309 0.75147 0.0
H2355 H 0.3101 0.34586 0.76601 0.0
H2356 H 0.30229 0.29992 0.76253 0.0
H2357 H 0.28638 0.18492 0.70622 0.0
H2358 H 0.2582 0.20929 0.72086 0.0
H2359 H 0.32324 0.23447 0.74376 0.0
H2360 H 0.35166 0.21062 0.72894 0.0
H2361 H 0.29115 0.27274 0.74017 0.0
H2362 H 0.28406 0.18623 0.75488 0.0
H2363 H 0.27685 0.13997 0.75244 0.0
H2364 H 0.20037 0.15404 0.73888 0.0
H2365 H 0.20725 0.20044 0.74105 0.0
C2366 C 0.21309 0.30678 0.78758 0.0
C2367 C 0.18676 0.30735 0.78484 0.0
C2368 C 0.22965 0.29259 0.77955 0.0
C2369 C 0.22027 0.27901 0.76852 0.0
C2370 C 0.19392 0.27898 0.76598 0.0
C2371 C 0.1773 0.293 0.77406 0.0
C2372 C 0.23795 0.26517 0.75949 0.0
C2373 C 0.23396 0.23902 0.7573 0.0
C2374 C 0.25893 0.27744 0.7533 0.0
C2375 C 0.26388 0.30514 0.75498 0.0
C2376 C 0.24503 0.32325 0.75178 0.0
C2377 C 0.24958 0.34924 0.75385 0.0
C2378 C 0.27298 0.35736 0.75903 0.0
C2379 C 0.29196 0.33953 0.76203 0.0
C2380 C 0.2875 0.31352 0.75999 0.0
C2381 C 0.29472 0.1957 0.71434 0.0
C2382 C 0.32126 0.19571 0.71646 0.0
C2383 C 0.27856 0.20954 0.72274 0.0
C2384 C 0.28856 0.22336 0.73355 0.0
C2385 C 0.3151 0.22388 0.73551 0.0
C2386 C 0.33131 0.2102 0.72704 0.0
C2387 C 0.27131 0.23709 0.74287 0.0
C2388 C 0.27539 0.26321 0.74512 0.0
C2389 C 0.25054 0.22474 0.74922 0.0
C2390 C 0.24626 0.19683 0.74801 0.0
C2391 C 0.26576 0.17947 0.75129 0.0
C2392 C 0.26173 0.15322 0.74996 0.0
C2393 C 0.23819 0.14407 0.74547 0.0
C2394 C 0.21861 0.16116 0.74234 0.0
C2395 C 0.22256 0.18744 0.74363 0.0
H2396 H 0.23511 0.12374 0.74445 0.0
H2397 H 0.27644 0.37745 0.76073 0.0
H2398 H 0.08132 0.02758 0.95865 0.0
H2399 H 0.05656 0.99886 0.97283 0.0
H2400 H 0.01941 0.06348 0.99112 0.0
H2401 H 0.04431 0.09241 0.97709 0.0
H2402 H 0.034 0.02861 0.00953 0.0
H2403 H 0.98862 0.02835 0.96793 0.0
H2404 H 0.98388 0.02372 0.94358 0.0
H2405 H 0.00851 0.94572 0.94608 0.0
H2406 H 0.01375 0.94999 0.97044 0.0
H2407 H 0.93143 0.96267 0.04028 0.0
H2408 H 0.95734 0.9911 0.02653 0.0
H2409 H 0.99306 0.92601 0.0079 0.0
H2410 H 0.96689 0.89738 0.02146 0.0
H2411 H 0.9796 0.96097 0.98972 0.0
H2412 H 0.0245 0.96111 0.03143 0.0
H2413 H 0.02902 0.9658 0.05579 0.0
H2414 H 0.00517 0.04402 0.05314 0.0
H2415 H 1.00016 0.0397 0.02877 0.0
C2416 C 0.06788 0.03571 0.96568 0.0
C2417 C 0.06471 0.06229 0.9667 0.0
C2418 C 0.0537 0.01926 0.97375 0.0
C2419 C 0.03596 0.02905 0.98292 0.0
C2420 C 0.03298 0.05555 0.98409 0.0
C2421 C 0.04717 0.07204 0.97603 0.0
C2422 C 0.02048 0.01161 0.99129 0.0
C2423 C 0.02184 0.01402 0.00521 0.0
C2424 C 0.00509 0.99223 0.98563 0.0
C2425 C 0.00182 0.98957 0.97099 0.0
C2426 C 0.99322 0.01027 0.96327 0.0
C2427 C 0.99041 0.0077 0.94947 0.0
C2428 C 0.99596 0.98446 0.94328 0.0
C2429 C 0.00426 0.96372 0.95089 0.0
C2430 C 0.00713 0.9662 0.96469 0.0
C2431 C 0.94485 0.95437 0.03329 0.0
C2432 C 0.94714 0.92774 0.03199 0.0
C2433 C 0.95972 0.97066 0.02547 0.0
C2434 C 0.97734 0.96067 0.0163 0.0
C2435 C 0.9796 0.93412 0.01493 0.0
C2436 C 0.96467 0.91779 0.02272 0.0
C2437 C 0.99312 0.97793 0.00798 0.0
C2438 C 0.99179 0.97551 0.99406 0.0
C2439 C 0.00853 0.9973 0.01364 0.0
C2440 C 0.01173 1e-05 0.02829 0.0
C2441 C 0.02004 0.97926 0.03605 0.0
C2442 C 0.02272 0.98186 0.04986 0.0
C2443 C 0.01732 0.00517 0.05601 0.0
C2444 C 0.00931 0.02596 0.04836 0.0
C2445 C 0.00657 0.02346 0.03455 0.0
H2446 H 0.0194 0.00714 0.06671 0.0
H2447 H 0.99377 0.9825 0.93259 0.0
H2448 H 0.74741 0.85093 0.699 0.0
H2449 H 0.71443 0.8268 0.71109 0.0
H2450 H 0.77251 0.77757 0.72743 0.0
H2451 H 0.80525 0.8013 0.71553 0.0
H2452 H 0.73178 0.75053 0.71808 0.0
H2453 H 0.74753 0.82299 0.74714 0.0
H2454 H 0.75044 0.8688 0.75243 0.0
H2455 H 0.67223 0.87915 0.74073 0.0
H2456 H 0.66885 0.83321 0.73546 0.0
H2457 H 0.69096 0.69418 0.77724 0.0
H2458 H 0.71162 0.72123 0.76069 0.0
H2459 H 0.6389 0.75446 0.75046 0.0
H2460 H 0.61785 0.72724 0.76712 0.0
H2461 H 0.67904 0.79069 0.75347 0.0
H2462 H 0.66265 0.71373 0.72947 0.0
H2463 H 0.66196 0.66718 0.7259 0.0
H2464 H 0.74374 0.66477 0.72866 0.0
H2465 H 0.74491 0.71125 0.73245 0.0
C2466 C 0.75308 0.83492 0.70515 0.0
C2467 C 0.77896 0.82809 0.70632 0.0
C2468 C 0.73425 0.82121 0.71207 0.0
C2469 C 0.74105 0.80041 0.72017 0.0
C2470 C 0.76681 0.79347 0.7212 0.0
C2471 C 0.78554 0.80719 0.71442 0.0
C2472 C 0.7217 0.78576 0.7278 0.0
C2473 C 0.72021 0.7593 0.7258 0.0
C2474 C 0.70614 0.79729 0.73764 0.0
C2475 C 0.70804 0.82482 0.74076 0.0
C2476 C 0.73102 0.83509 0.74561 0.0
C2477 C 0.73274 0.86107 0.74863 0.0
C2478 C 0.7116 0.87697 0.74681 0.0
C2479 C 0.68862 0.86684 0.74209 0.0
C2480 C 0.68676 0.84082 0.73913 0.0
C2481 C 0.67927 0.70723 0.77152 0.0
C2482 C 0.65271 0.70846 0.77348 0.0
C2483 C 0.69113 0.72263 0.76202 0.0
C2484 C 0.67674 0.73962 0.75425 0.0
C2485 C 0.6503 0.74137 0.75633 0.0
C2486 C 0.63833 0.72578 0.76581 0.0
C2487 C 0.68973 0.75536 0.744 0.0
C2488 C 0.69004 0.78199 0.7455 0.0
C2489 C 0.70441 0.74394 0.73375 0.0
C2490 C 0.70384 0.71599 0.73131 0.0
C2491 C 0.68048 0.70326 0.7294 0.0
C2492 C 0.68001 0.67688 0.72733 0.0
C2493 C 0.70279 0.66302 0.72707 0.0
C2494 C 0.72611 0.67553 0.72886 0.0
C2495 C 0.72668 0.7019 0.73095 0.0
H2496 H 0.70238 0.6426 0.72547 0.0
H2497 H 0.71301 0.8971 0.74912 0.0
H2498 H 0.6488 0.21826 0.23086 0.0
H2499 H 0.67838 0.24295 0.24467 0.0
H2500 H 0.74224 0.20882 0.22415 0.0
H2501 H 0.71293 0.18389 0.21045 0.0
H2502 H 0.74953 0.20878 0.25066 0.0
H2503 H 0.72375 0.26971 0.21741 0.0
H2504 H 0.69299 0.29483 0.20422 0.0
H2505 H 0.66426 0.32939 0.24006 0.0
H2506 H 0.69464 0.3042 0.25348 0.0
H2507 H 0.84842 0.29206 0.27137 0.0
H2508 H 0.81739 0.26791 0.25825 0.0
H2509 H 0.75574 0.30442 0.2795 0.0
H2510 H 0.78661 0.32895 0.29251 0.0
H2511 H 0.74635 0.30326 0.25323 0.0
H2512 H 0.7727 0.24309 0.28647 0.0
H2513 H 0.80345 0.21801 0.29969 0.0
H2514 H 0.83094 0.18195 0.264 0.0
H2515 H 0.80058 0.20708 0.25053 0.0
C2516 C 0.66914 0.21606 0.22927 0.0
C2517 C 0.6785 0.19913 0.21953 0.0
C2518 C 0.68601 0.23025 0.23714 0.0
C2519 C 0.71251 0.22786 0.23537 0.0
C2520 C 0.72187 0.21093 0.22569 0.0
C2521 C 0.70506 0.19676 0.21784 0.0
C2522 C 0.7306 0.24273 0.24369 0.0
C2523 C 0.74904 0.22946 0.2511 0.0
C2524 C 0.72952 0.26966 0.24452 0.0
C2525 C 0.71128 0.28487 0.23646 0.0
C2526 C 0.71073 0.28251 0.22249 0.0
C2527 C 0.69339 0.29679 0.21497 0.0
C2528 C 0.67663 0.31364 0.2213 0.0
C2529 C 0.67722 0.3163 0.23517 0.0
C2530 C 0.69451 0.30204 0.24274 0.0
C2531 C 0.82826 0.29493 0.27328 0.0
C2532 C 0.82 0.31238 0.28302 0.0
C2533 C 0.81055 0.28104 0.2658 0.0
C2534 C 0.78424 0.28415 0.268 0.0
C2535 C 0.77594 0.3017 0.27765 0.0
C2536 C 0.79363 0.31564 0.28511 0.0
C2537 C 0.7654 0.26931 0.26014 0.0
C2538 C 0.7468 0.28258 0.25282 0.0
C2539 C 0.76631 0.24236 0.2594 0.0
C2540 C 0.78453 0.22715 0.26748 0.0
C2541 C 0.78544 0.22995 0.28142 0.0
C2542 C 0.80277 0.21571 0.28897 0.0
C2543 C 0.81918 0.19845 0.28268 0.0
C2544 C 0.81824 0.19535 0.26885 0.0
C2545 C 0.80096 0.20958 0.26126 0.0
H2546 H 0.83258 0.18743 0.28854 0.0
H2547 H 0.66322 0.32468 0.21546 0.0
H2548 H 0.84042 0.20319 0.77572 0.0
H2549 H 0.81063 0.22782 0.76206 0.0
H2550 H 0.74708 0.19187 0.78197 0.0
H2551 H 0.77669 0.1674 0.79579 0.0
H2552 H 0.77431 0.21327 0.74453 0.0
H2553 H 0.69826 0.2354 0.78454 0.0
H2554 H 0.69515 0.24034 0.80897 0.0
H2555 H 0.77373 0.26349 0.81063 0.0
H2556 H 0.77721 0.25903 0.7862 0.0
H2557 H 0.64686 0.28711 0.73212 0.0
H2558 H 0.67324 0.25965 0.74635 0.0
H2559 H 0.74132 0.2917 0.72885 0.0
H2560 H 0.71531 0.3188 0.71456 0.0
H2561 H 0.70952 0.27004 0.76517 0.0
H2562 H 0.78599 0.24593 0.72523 0.0
H2563 H 0.78903 0.24082 0.70082 0.0
H2564 H 0.70943 0.22146 0.69901 0.0
H2565 H 0.706 0.22609 0.72342 0.0
C2566 C 0.82011 0.20048 0.77719 0.0
C2567 C 0.81095 0.1834 0.78689 0.0
C2568 C 0.80311 0.21453 0.76935 0.0
C2569 C 0.77664 0.2119 0.7711 0.0
C2570 C 0.76743 0.19451 0.78059 0.0
C2571 C 0.78441 0.18045 0.78844 0.0
C2572 C 0.75875 0.22743 0.76299 0.0
C2573 C 0.76033 0.22589 0.74904 0.0
C2574 C 0.74001 0.24335 0.76889 0.0
C2575 C 0.73805 0.24658 0.78356 0.0
C2576 C 0.71484 0.24164 0.79012 0.0
C2577 C 0.71302 0.24434 0.80396 0.0
C2578 C 0.73426 0.25212 0.81135 0.0
C2579 C 0.75733 0.25736 0.8049 0.0
C2580 C 0.75924 0.25471 0.79106 0.0
C2581 C 0.66745 0.28832 0.73132 0.0
C2582 C 0.67896 0.30502 0.72212 0.0
C2583 C 0.68248 0.27267 0.73948 0.0
C2584 C 0.70923 0.27336 0.73852 0.0
C2585 C 0.72071 0.29049 0.72959 0.0
C2586 C 0.70577 0.30606 0.72145 0.0
C2587 C 0.72534 0.25612 0.74671 0.0
C2588 C 0.7234 0.25731 0.76066 0.0
C2589 C 0.74375 0.23984 0.74083 0.0
C2590 C 0.7457 0.2366 0.72615 0.0
C2591 C 0.76916 0.24047 0.71963 0.0
C2592 C 0.77095 0.23767 0.70579 0.0
C2593 C 0.74942 0.23089 0.69836 0.0
C2594 C 0.72607 0.2268 0.70477 0.0
C2595 C 0.72419 0.22954 0.7186 0.0
H2596 H 0.75084 0.22877 0.68765 0.0
H2597 H 0.73283 0.25412 0.82207 0.0
H2598 H 0.64023 0.79016 0.27164 0.0
H2599 H 0.6687 0.76592 0.25695 0.0
H2600 H 0.73393 0.80325 0.27452 0.0
H2601 H 0.7058 0.8272 0.28931 0.0
H2602 H 0.70256 0.78117 0.23809 0.0
H2603 H 0.78365 0.76187 0.27605 0.0
H2604 H 0.78906 0.75581 0.30029 0.0
H2605 H 0.71177 0.72911 0.30342 0.0
H2606 H 0.70601 0.73465 0.27918 0.0
H2607 H 0.83621 0.7203 0.22389 0.0
H2608 H 0.80695 0.74482 0.23798 0.0
H2609 H 0.74274 0.7067 0.21985 0.0
H2610 H 0.77174 0.68237 0.20564 0.0
H2611 H 0.77312 0.72874 0.25651 0.0
H2612 H 0.69214 0.74768 0.21853 0.0
H2613 H 0.68668 0.75382 0.1943 0.0
H2614 H 0.76375 0.78116 0.19121 0.0
H2615 H 0.76955 0.77553 0.21544 0.0
C2616 C 0.66064 0.79316 0.2724 0.0
C2617 C 0.67073 0.81052 0.28172 0.0
C2618 C 0.67687 0.77935 0.26396 0.0
C2619 C 0.70345 0.78254 0.26475 0.0
C2620 C 0.71351 0.80014 0.2739 0.0
C2621 C 0.69736 0.8139 0.28232 0.0
C2622 C 0.72077 0.7676 0.25599 0.0
C2623 C 0.71775 0.76939 0.24212 0.0
C2624 C 0.74097 0.75272 0.26125 0.0
C2625 C 0.74434 0.74894 0.27581 0.0
C2626 C 0.76784 0.75461 0.2819 0.0
C2627 C 0.77097 0.75127 0.29564 0.0
C2628 C 0.75075 0.74216 0.30339 0.0
C2629 C 0.72739 0.73626 0.29741 0.0
C2630 C 0.72418 0.73952 0.28367 0.0
C2631 C 0.81585 0.71724 0.22285 0.0
C2632 C 0.80633 0.69942 0.21361 0.0
C2633 C 0.79917 0.7312 0.23094 0.0
C2634 C 0.77265 0.72776 0.22989 0.0
C2635 C 0.7631 0.70996 0.22069 0.0
C2636 C 0.77975 0.696 0.21261 0.0
C2637 C 0.75498 0.74237 0.2386 0.0
C2638 C 0.75792 0.74049 0.25248 0.0
C2639 C 0.73471 0.75715 0.23335 0.0
C2640 C 0.73134 0.76091 0.21878 0.0
C2641 C 0.70789 0.75509 0.21269 0.0
C2642 C 0.70474 0.75847 0.19895 0.0
C2643 C 0.72489 0.76779 0.19121 0.0
C2644 C 0.7482 0.77384 0.19721 0.0
C2645 C 0.75143 0.77052 0.21094 0.0
H2646 H 0.72242 0.77037 0.18058 0.0
H2647 H 0.7532 0.73962 0.31403 0.0
H2648 H 0.57703 0.4791 0.04586 0.0
H2649 H 0.5509 0.50745 0.03219 0.0
H2650 H 0.5179 0.44231 0.01231 0.0
H2651 H 0.54418 0.41375 0.02586 0.0
H2652 H 0.53223 0.47896 0.99476 0.0
H2653 H 0.4842 0.47466 0.03549 0.0
H2654 H 0.47776 0.47765 0.05981 0.0
H2655 H 0.49849 0.5569 0.05888 0.0
H2656 H 0.50542 0.55429 0.03457 0.0
H2657 H 0.42856 0.53917 0.96298 0.0
H2658 H 0.45465 0.51237 0.97741 0.0
H2659 H 0.48585 0.57942 0.99631 0.0
H2660 H 0.45945 0.60655 0.98197 0.0
H2661 H 0.47322 0.54279 0.01447 0.0
H2662 H 0.5207 0.54719 0.97367 0.0
H2663 H 0.52709 0.54414 0.94935 0.0
H2664 H 0.50749 0.4646 0.95044 0.0
H2665 H 0.50061 0.46727 0.97475 0.0
C2666 C 0.56417 0.47076 0.03861 0.0
C2667 C 0.56266 0.44414 0.03697 0.0
C2668 C 0.54918 0.48701 0.03084 0.0
C2669 C 0.5323 0.47697 0.02132 0.0
C2670 C 0.5308 0.45043 0.01962 0.0
C2671 C 0.54577 0.43415 0.0274 0.0
C2672 C 0.51656 0.49418 0.01297 0.0
C2673 C 0.51907 0.49269 0.99906 0.0
C2674 C 0.49993 0.51254 0.01861 0.0
C2675 C 0.49558 0.51421 0.03322 0.0
C2676 C 0.48758 0.49268 0.04048 0.0
C2677 C 0.48381 0.49431 0.05427 0.0
C2678 C 0.48778 0.51743 0.06089 0.0
C2679 C 0.49545 0.53899 0.05374 0.0
C2680 C 0.49929 0.53745 0.03995 0.0
C2681 C 0.44097 0.5483 0.97018 0.0
C2682 C 0.44203 0.57504 0.97126 0.0
C2683 C 0.45593 0.53291 0.97841 0.0
C2684 C 0.47243 0.54391 0.98781 0.0
C2685 C 0.47328 0.57057 0.98909 0.0
C2686 C 0.45826 0.58603 0.98085 0.0
C2687 C 0.48878 0.52745 0.99626 0.0
C2688 C 0.48642 0.5291 0.01018 0.0
C2689 C 0.50557 0.50922 0.99063 0.0
C2690 C 0.50992 0.5075 0.97602 0.0
C2691 C 0.51757 0.52909 0.96871 0.0
C2692 C 0.5213 0.52742 0.95493 0.0
C2693 C 0.51763 0.50421 0.94834 0.0
C2694 C 0.5103 0.48259 0.95554 0.0
C2695 C 0.5065 0.48416 0.96933 0.0
H2696 H 0.52052 0.50296 0.93767 0.0
H2697 H 0.48487 0.51865 0.07156 0.0
H2698 H 0.07814 0.46842 0.4541 0.0
H2699 H 0.05326 0.49807 0.46773 0.0
H2700 H 0.01383 0.43473 0.48591 0.0
H2701 H 0.03842 0.40493 0.47225 0.0
H2702 H 0.98134 0.47357 0.47994 0.0
H2703 H 0.06258 0.4634 0.50183 0.0
H2704 H 0.10959 0.46396 0.50324 0.0
H2705 H 0.11013 0.54382 0.49368 0.0
H2706 H 0.06311 0.54364 0.49201 0.0
H2707 H 0.93415 0.52646 0.53947 0.0
H2708 H 0.95753 0.5017 0.52291 0.0
H2709 H 0.99227 0.57057 0.50789 0.0
H2710 H 0.96902 0.59565 0.5246 0.0
H2711 H 0.02693 0.53201 0.51077 0.0
H2712 H 0.94522 0.54266 0.49026 0.0
H2713 H 0.89822 0.5418 0.48897 0.0
H2714 H 0.89846 0.46107 0.49617 0.0
H2715 H 0.94549 0.46144 0.49762 0.0
C2716 C 0.06404 0.46078 0.46092 0.0
C2717 C 0.06037 0.43428 0.46214 0.0
C2718 C 0.0499 0.47776 0.46874 0.0
C2719 C 0.03193 0.46857 0.47795 0.0
C2720 C 0.02764 0.44221 0.47888 0.0
C2721 C 0.04177 0.42521 0.47108 0.0
C2722 C 0.01807 0.48633 0.48691 0.0
C2723 C 0.99129 0.4862 0.48676 0.0
C2724 C 0.0311 0.50326 0.49556 0.0
C2725 C 0.05935 0.50344 0.49664 0.0
C2726 C 0.07274 0.48103 0.49992 0.0
C2727 C 0.09938 0.48129 0.50079 0.0
C2728 C 0.11284 0.50389 0.49851 0.0
C2729 C 0.09968 0.52631 0.49541 0.0
C2730 C 0.07303 0.52615 0.49451 0.0
C2731 C 0.94675 0.53643 0.53266 0.0
C2732 C 0.94965 0.56308 0.53334 0.0
C2733 C 0.96001 0.52222 0.52315 0.0
C2734 C 0.97634 0.53433 0.51405 0.0
C2735 C 0.97965 0.56088 0.5148 0.0
C2736 C 0.96633 0.57517 0.52433 0.0
C2737 C 0.99019 0.51904 0.50392 0.0
C2738 C 0.01697 0.51959 0.50385 0.0
C2739 C 0.97716 0.50247 0.49508 0.0
C2740 C 0.94888 0.50212 0.49415 0.0
C2741 C 0.93524 0.52475 0.49166 0.0
C2742 C 0.90859 0.52435 0.49089 0.0
C2743 C 0.89535 0.50142 0.49254 0.0
C2744 C 0.90874 0.47882 0.49491 0.0
C2745 C 0.9354 0.4791 0.49568 0.0
H2746 H 0.87471 0.50117 0.49195 0.0
H2747 H 0.13347 0.50405 0.49919 0.0
H2748 H 0.03901 0.59428 0.02641 0.0
H2749 H 0.01302 0.5665 0.01221 0.0
H2750 H 0.04892 0.50026 0.02952 0.0
H2751 H 0.07502 0.52777 0.04364 0.0
H2752 H 0.04627 0.49639 0.00273 0.0
H2753 H 0.98933 0.51673 0.03858 0.0
H2754 H 0.96567 0.54483 0.05396 0.0
H2755 H 0.92669 0.57909 0.02082 0.0
H2756 H 0.95041 0.55143 0.00522 0.0
H2757 H 0.95852 0.4038 0.97761 0.0
H2758 H 0.98392 0.43051 0.99267 0.0
H2759 H 0.95016 0.49809 0.97559 0.0
H2760 H 0.92471 0.47168 0.96061 0.0
H2761 H 0.95162 0.50053 0.00269 0.0
H2762 H 0.00942 0.48058 0.96686 0.0
H2763 H 0.03307 0.45222 0.95159 0.0
H2764 H 0.07032 0.41686 0.98496 0.0
H2765 H 0.04661 0.44479 1.00044 0.0
C2766 C 0.04136 0.57381 0.0272 0.0
C2767 C 0.05905 0.56326 0.03619 0.0
C2768 C 0.02643 0.55795 0.01912 0.0
C2769 C 0.0289 0.53129 0.01989 0.0
C2770 C 0.04669 0.52076 0.02876 0.0
C2771 C 0.06154 0.53656 0.03686 0.0
C2772 C 0.01314 0.51432 0.01138 0.0
C2773 C 0.02556 0.49705 0.00285 0.0
C2774 C 0.98614 0.5155 0.01137 0.0
C2775 C 0.97186 0.53219 0.02072 0.0
C2776 C 0.97589 0.53041 0.03456 0.0
C2777 C 0.96243 0.54623 0.04332 0.0
C2778 C 0.94474 0.56379 0.03837 0.0
C2779 C 0.94043 0.56551 0.02464 0.0
C2780 C 0.95386 0.54975 0.01583 0.0
C2781 C 0.9565 0.42434 0.97707 0.0
C2782 C 0.93967 0.4356 0.96786 0.0
C2783 C 0.97107 0.43958 0.98565 0.0
C2784 C 0.96905 0.4663 0.98517 0.0
C2785 C 0.95201 0.47752 0.97613 0.0
C2786 C 0.93756 0.46236 0.96753 0.0
C2787 C 0.98475 0.48269 0.99401 0.0
C2788 C 0.97232 0.49984 0.0026 0.0
C2789 C 0.01174 0.48137 0.9941 0.0
C2790 C 0.02603 0.46458 0.98481 0.0
C2791 C 0.02249 0.46661 0.97094 0.0
C2792 C 0.03594 0.45064 0.96225 0.0
C2793 C 0.05313 0.4327 0.9673 0.0
C2794 C 0.05696 0.43073 0.98106 0.0
C2795 C 0.04354 0.44664 0.9898 0.0
H2796 H 0.06353 0.42036 0.96056 0.0
H2797 H 0.93433 0.57601 0.04516 0.0
H2798 H 0.58213 0.52924 0.46066 0.0
H2799 H 0.55498 0.50323 0.47501 0.0
H2800 H 0.52215 0.57135 0.49204 0.0
H2801 H 0.54956 0.59763 0.47781 0.0
H2802 H 0.53357 0.53662 0.51105 0.0
H2803 H 0.48919 0.53686 0.46929 0.0
H2804 H 0.48456 0.5315 0.44498 0.0
H2805 H 0.50438 0.45228 0.44847 0.0
H2806 H 0.50949 0.45725 0.4728 0.0
H2807 H 0.42923 0.47476 0.54273 0.0
H2808 H 0.45506 0.50218 0.52837 0.0
H2809 H 0.4898 0.43577 0.51055 0.0
H2810 H 0.46379 0.40814 0.52475 0.0
H2811 H 0.47643 0.47056 0.49189 0.0
H2812 H 0.52175 0.47071 0.53359 0.0
H2813 H 0.52651 0.47619 0.55789 0.0
H2814 H 0.50477 0.55492 0.55444 0.0
H2815 H 0.49952 0.5498 0.53012 0.0
C2816 C 0.56914 0.53874 0.46744 0.0
C2817 C 0.56794 0.56553 0.46805 0.0
C2818 C 0.55356 0.52382 0.47561 0.0
C2819 C 0.5363 0.53536 0.48446 0.0
C2820 C 0.53529 0.56208 0.48524 0.0
C2821 C 0.55092 0.57705 0.47708 0.0
C2822 C 0.51948 0.51946 0.49297 0.0
C2823 C 0.52078 0.52244 0.50686 0.0
C2824 C 0.50321 0.5006 0.48749 0.0
C2825 C 0.49995 0.49749 0.47286 0.0
C2826 C 0.49274 0.51833 0.46487 0.0
C2827 C 0.49001 0.51536 0.45108 0.0
C2828 C 0.49423 0.49158 0.44518 0.0
C2829 C 0.50114 0.4707 0.45306 0.0
C2830 C 0.50393 0.47358 0.46685 0.0
C2831 C 0.44237 0.46595 0.53577 0.0
C2832 C 0.44451 0.43924 0.53492 0.0
C2833 C 0.45718 0.48167 0.5276 0.0
C2834 C 0.47454 0.47101 0.5185 0.0
C2835 C 0.47652 0.44438 0.51752 0.0
C2836 C 0.4617 0.42862 0.52568 0.0
C2837 C 0.49061 0.48764 0.50997 0.0
C2838 C 0.48916 0.48479 0.49608 0.0
C2839 C 0.50672 0.50664 0.51544 0.0
C2840 C 0.51 0.5098 0.53005 0.0
C2841 C 0.51779 0.48914 0.53802 0.0
C2842 C 0.5206 0.49219 0.5518 0.0
C2843 C 0.51587 0.51587 0.55771 0.0
C2844 C 0.50839 0.53657 0.54985 0.0
C2845 C 0.50551 0.53361 0.53607 0.0
H2846 H 0.51807 0.5182 0.56838 0.0
H2847 H 0.49211 0.48932 0.4345 0.0
H2848 H 0.20902 0.07057 0.29432 0.0
H2849 H 0.21326 0.03524 0.27828 0.0
H2850 H 0.13342 0.04197 0.26845 0.0
H2851 H 0.12923 0.07767 0.28404 0.0
H2852 H 0.15894 0.98789 0.27512 0.0
H2853 H 0.16205 0.06602 0.24758 0.0
H2854 H 0.18084 0.10788 0.24206 0.0
H2855 H 0.25455 0.07305 0.23744 0.0
H2856 H 0.23621 0.03104 0.24315 0.0
H2857 H 0.13069 0.91685 0.21844 0.0
H2858 H 0.13409 0.95023 0.23529 0.0
H2859 H 0.21353 0.96097 0.2252 0.0
H2860 H 0.20974 0.92837 0.20775 0.0
H2861 H 0.19449 0.00471 0.23006 0.0
H2862 H 0.19337 0.92672 0.25385 0.0
H2863 H 0.17854 0.88389 0.26046 0.0
H2864 H 0.10745 0.91559 0.27391 0.0
H2865 H 0.12169 0.95857 0.26721 0.0
C2866 C 0.19238 0.06435 0.28879 0.0
C2867 C 0.16882 0.07685 0.29036 0.0
C2868 C 0.19484 0.04428 0.27965 0.0
C2869 C 0.17364 0.03617 0.27222 0.0
C2870 C 0.14995 0.04805 0.27412 0.0
C2871 C 0.14763 0.06844 0.28298 0.0
C2872 C 0.17604 0.01574 0.26217 0.0
C2873 C 0.16658 0.99146 0.26523 0.0
C2874 C 0.18695 0.02033 0.24952 0.0
C2875 C 0.19785 0.0455 0.24596 0.0
C2876 C 0.18231 0.06735 0.24553 0.0
C2877 C 0.19286 0.09109 0.24233 0.0
C2878 C 0.21889 0.09314 0.23945 0.0
C2879 C 0.2344 0.07145 0.23971 0.0
C2880 C 0.22394 0.04767 0.24292 0.0
C2881 C 0.14884 0.92645 0.21976 0.0
C2882 C 0.17 0.91993 0.21186 0.0
C2883 C 0.15085 0.94539 0.22948 0.0
C2884 C 0.17429 0.95765 0.23183 0.0
C2885 C 0.19529 0.95168 0.22366 0.0
C2886 C 0.19312 0.93308 0.21369 0.0
C2887 C 0.17663 0.97667 0.24278 0.0
C2888 C 0.18709 0.00077 0.23995 0.0
C2889 C 0.16719 0.97167 0.2558 0.0
C2890 C 0.15855 0.94586 0.25993 0.0
C2891 C 0.17451 0.92454 0.25814 0.0
C2892 C 0.16621 0.90024 0.26191 0.0
C2893 C 0.14205 0.89702 0.26758 0.0
C2894 C 0.12615 0.91811 0.26952 0.0
C2895 C 0.13435 0.94246 0.26575 0.0
H2896 H 0.13566 0.87818 0.27049 0.0
H2897 H 0.22703 0.11153 0.23698 0.0
H2898 H 0.1587 0.87029 0.53361 0.0
H2899 H 0.19575 0.87522 0.51894 0.0
H2900 H 0.20062 0.95486 0.52939 0.0
H2901 H 0.16386 0.94993 0.54445 0.0
H2902 H 0.19952 0.93841 0.49945 0.0
H2903 H 0.24342 0.92676 0.54147 0.0
H2904 H 0.25163 0.90457 0.56272 0.0
H2905 H 0.27023 0.83593 0.54143 0.0
H2906 H 0.26175 0.85762 0.52004 0.0
H2907 H 0.31423 0.95621 0.46212 0.0
H2908 H 0.28013 0.95819 0.47881 0.0
H2909 H 0.28915 0.87756 0.48638 0.0
H2910 H 0.32415 0.87596 0.47034 0.0
H2911 H 0.28373 0.89878 0.50855 0.0
H2912 H 0.23761 0.90589 0.46731 0.0
H2913 H 0.22632 0.92396 0.44538 0.0
H2914 H 0.20864 0.99581 0.46381 0.0
H2915 H 0.22015 0.97824 0.48584 0.0
C2916 C 0.16779 0.88881 0.53288 0.0
C2917 C 0.15845 0.90972 0.54018 0.0
C2918 C 0.18891 0.89157 0.52451 0.0
C2919 C 0.20079 0.91539 0.52311 0.0
C2920 C 0.19163 0.93634 0.53038 0.0
C2921 C 0.17078 0.93346 0.53901 0.0
C2922 C 0.22245 0.91823 0.51376 0.0
C2923 C 0.21815 0.93023 0.50147 0.0
C2924 C 0.24632 0.90674 0.51632 0.0
C2925 C 0.25172 0.89376 0.52916 0.0
C2926 C 0.24904 0.90687 0.54132 0.0
C2927 C 0.2538 0.8944 0.55339 0.0
C2928 C 0.26138 0.86884 0.55343 0.0
C2929 C 0.26432 0.85573 0.54139 0.0
C2930 C 0.25958 0.86811 0.52929 0.0
C2931 C 0.30878 0.93892 0.46732 0.0
C2932 C 0.32178 0.91592 0.46493 0.0
C2933 C 0.28921 0.94002 0.47682 0.0
C2934 C 0.28172 0.91795 0.4838 0.0
C2935 C 0.29456 0.89492 0.48123 0.0
C2936 C 0.31451 0.89397 0.47201 0.0
C2937 C 0.26092 0.91871 0.49395 0.0
C2938 C 0.2653 0.9073 0.50645 0.0
C2939 C 0.23688 0.93022 0.49143 0.0
C2940 C 0.23004 0.94085 0.4782 0.0
C2941 C 0.23152 0.92561 0.46667 0.0
C2942 C 0.22504 0.93575 0.45423 0.0
C2943 C 0.21685 0.96104 0.4532 0.0
C2944 C 0.21505 0.97623 0.46462 0.0
C2945 C 0.22153 0.9662 0.47709 0.0
H2946 H 0.21183 0.96885 0.44356 0.0
H2947 H 0.26503 0.85921 0.56279 0.0
H2948 H 0.32627 0.05514 0.69861 0.0
H2949 H 0.32136 0.0212 0.71517 0.0
H2950 H 0.3405 0.07444 0.74652 0.0
H2951 H 0.34682 0.10789 0.72992 0.0
H2952 H 0.36446 0.03421 0.7511 0.0
H2953 H 0.27735 0.05035 0.7406 0.0
H2954 H 0.23939 0.05628 0.72641 0.0
H2955 H 0.24638 0.97935 0.71211 0.0
H2956 H 0.28461 0.97306 0.72609 0.0
H2957 H 0.3218 0.95035 0.80345 0.0
H2958 H 0.31841 0.9857 0.78745 0.0
H2959 H 0.3362 0.93422 0.75521 0.0
H2960 H 0.34042 0.89902 0.77113 0.0
H2961 H 0.29127 0.97409 0.75221 0.0
H2962 H 0.38222 0.96207 0.76255 0.0
H2963 H 0.41781 0.95795 0.77852 0.0
H2964 H 0.39928 0.03107 0.79527 0.0
H2965 H 0.3633 0.03541 0.77953 0.0
C2966 C 0.3293 0.05955 0.70905 0.0
C2967 C 0.33704 0.08406 0.713 0.0
C2968 C 0.32631 0.0402 0.71853 0.0
C2969 C 0.33021 0.04526 0.73217 0.0
C2970 C 0.33747 0.06995 0.73609 0.0
C2971 C 0.34106 0.08908 0.72659 0.0
C2972 C 0.32806 0.02462 0.74229 0.0
C2973 C 0.34818 0.02141 0.75141 0.0
C2974 C 0.30699 0.00762 0.74274 0.0
C2975 C 0.284 0.01131 0.73431 0.0
C2976 C 0.27091 0.03476 0.73436 0.0
C2977 C 0.24932 0.03818 0.72636 0.0
C2978 C 0.24052 0.01823 0.71833 0.0
C2979 C 0.25325 0.9948 0.71832 0.0
C2980 C 0.27486 0.99128 0.72629 0.0
C2981 C 0.3247 0.94656 0.79293 0.0
C2982 C 0.33155 0.92205 0.78851 0.0
C2983 C 0.32274 0.96669 0.78384 0.0
C2984 C 0.32703 0.96242 0.77021 0.0
C2985 C 0.33273 0.93777 0.7657 0.0
C2986 C 0.33529 0.91778 0.7748 0.0
C2987 C 0.32759 0.98398 0.76076 0.0
C2988 C 0.30728 0.98721 0.75183 0.0
C2989 C 0.34813 0.0014 0.76065 0.0
C2990 C 0.36992 0.99891 0.76999 0.0
C2991 C 0.38559 0.97714 0.76973 0.0
C2992 C 0.40586 0.9748 0.77872 0.0
C2993 C 0.41075 0.9942 0.78793 0.0
C2994 C 0.39544 0.01603 0.78815 0.0
C2995 C 0.37512 0.01845 0.77919 0.0
H2996 H 0.42645 0.99235 0.79488 0.0
H2997 H 0.2238 0.02091 0.71215 0.0
H2998 H 0.36027 0.0868 0.02302 0.0
H2999 H 0.3274 0.08357 0.00586 0.0
H3000 H 0.27053 0.06995 0.03624 0.0
H3001 H 0.30378 0.07177 0.05341 0.0
H3002 H 0.25943 0.04241 0.01596 0.0
H3003 H 0.28048 0.13043 0.02132 0.0
H3004 H 0.30835 0.16828 0.02257 0.0
H3005 H 0.33214 0.15622 0.98206 0.0
H3006 H 0.30466 0.11806 0.98062 0.0
H3007 H 0.15367 0.09503 0.97877 0.0
H3008 H 0.18864 0.09041 0.99478 0.0
H3009 H 0.2396 0.06897 0.96291 0.0
H3010 H 0.20445 0.07281 0.94681 0.0
H3011 H 0.25375 0.11308 0.98314 0.0
H3012 H 0.2286 0.02424 0.97886 0.0
H3013 H 0.19704 0.98932 0.97887 0.0
H3014 H 0.1765 0.00736 0.01926 0.0
H3015 H 0.20768 0.04267 0.01941 0.0
C3016 C 0.34077 0.08293 0.02602 0.0
C3017 C 0.33446 0.0798 0.03953 0.0
C3018 C 0.32197 0.08122 0.01621 0.0
C3019 C 0.29633 0.07722 0.01976 0.0
C3020 C 0.29014 0.07319 0.03325 0.0
C3021 C 0.3091 0.07427 0.04305 0.0
C3022 C 0.27596 0.07801 0.00945 0.0
C3023 C 0.25814 0.058 0.00887 0.0
C3024 C 0.27422 0.09826 1.0001 0.0
C3025 C 0.29072 0.12124 0.00091 0.0
C3026 C 0.2918 0.13574 0.01271 0.0
C3027 C 0.3075 0.15727 0.01345 0.0
C3028 C 0.32206 0.16461 0.00241 0.0
C3029 C 0.32089 0.15048 0.9906 0.0
C3030 C 0.30524 0.12891 0.98982 0.0
C3031 C 0.17231 0.08928 0.97516 0.0
C3032 C 0.1764 0.08433 0.96155 0.0
C3033 C 0.19218 0.08656 0.98432 0.0
C3034 C 0.21654 0.07928 0.97998 0.0
C3035 C 0.22082 0.07452 0.9664 0.0
C3036 C 0.20078 0.07668 0.95725 0.0
C3037 C 0.23764 0.07749 0.98967 0.0
C3038 C 0.25538 0.09743 0.99018 0.0
C3039 C 0.23889 0.05758 0.99914 0.0
C3040 C 0.22027 0.03626 0.99909 0.0
C3041 C 0.21717 0.02093 0.98769 0.0
C3042 C 0.19939 0.00102 0.98768 0.0
C3043 C 0.18472 0.99617 0.99905 0.0
C3044 C 0.18785 0.01116 0.01046 0.0
C3045 C 0.20559 0.03111 0.01052 0.0
H3046 H 0.17097 0.98075 0.99902 0.0
H3047 H 0.33421 0.18128 0.003 0.0
H3048 H 0.81258 0.0502 0.8078 0.0
H3049 H 0.81578 0.01065 0.79482 0.0
H3050 H 0.8749 0.04442 0.7706 0.0
H3051 H 0.87203 0.0837 0.7835 0.0
H3052 H 0.80769 0.00136 0.76894 0.0
H3053 H 0.91854 0.00044 0.76225 0.0
H3054 H 0.95672 0.01223 0.77528 0.0
H3055 H 0.91445 0.0033 0.81169 0.0
H3056 H 0.87617 0.99114 0.79891 0.0
H3057 H 0.83921 0.93442 0.71144 0.0
H3058 H 0.8369 0.96595 0.72925 0.0
H3059 H 0.87368 0.91331 0.75619 0.0
H3060 H 0.87687 0.8818 0.73814 0.0
H3061 H 0.89106 0.95924 0.76054 0.0
H3062 H 0.80848 0.9232 0.75681 0.0
H3063 H 0.76937 0.90863 0.74548 0.0
H3064 H 0.7526 0.98552 0.73366 0.0
H3065 H 0.792 0.00053 0.74461 0.0
C3066 C 0.82628 0.04917 0.79972 0.0
C3067 C 0.84207 0.07011 0.7967 0.0
C3068 C 0.82807 0.02657 0.79232 0.0
C3069 C 0.84582 0.02447 0.78187 0.0
C3070 C 0.8614 0.04543 0.77878 0.0
C3071 C 0.8596 0.06796 0.78612 0.0
C3072 C 0.84769 0.00079 0.77382 0.0
C3073 C 0.82586 0.99203 0.76715 0.0
C3074 C 0.87127 0.98812 0.77184 0.0
C3075 C 0.89441 0.99506 0.77959 0.0
C3076 C 0.91743 0.00086 0.77303 0.0
C3077 C 0.93909 0.00765 0.78038 0.0
C3078 C 0.938 0.0086 0.7943 0.0
C3079 C 0.91527 0.00267 0.80091 0.0
C3080 C 0.89357 0.99586 0.79362 0.0
C3081 C 0.84694 0.92956 0.72113 0.0
C3082 C 0.85803 0.90554 0.72343 0.0
C3083 C 0.84547 0.94757 0.73134 0.0
C3084 C 0.8545 0.94179 0.74417 0.0
C3085 C 0.8664 0.91813 0.7464 0.0
C3086 C 0.86823 0.90015 0.73609 0.0
C3087 C 0.85124 0.96054 0.75517 0.0
C3088 C 0.87281 0.96834 0.76241 0.0
C3089 C 0.82723 0.97186 0.75797 0.0
C3090 C 0.80332 0.96297 0.75148 0.0
C3091 C 0.79655 0.937 0.75173 0.0
C3092 C 0.77431 0.92865 0.74538 0.0
C3093 C 0.75847 0.94612 0.73888 0.0
C3094 C 0.76487 0.972 0.73871 0.0
C3095 C 0.78717 0.98044 0.74498 0.0
H3096 H 0.74125 0.9396 0.73399 0.0
H3097 H 0.95478 0.01388 0.79997 0.0
H3098 H 0.64731 0.11178 0.52203 0.0
H3099 H 0.67964 0.10856 0.50464 0.0
H3100 H 0.72528 0.06028 0.53006 0.0
H3101 H 0.69263 0.06299 0.5475 0.0
H3102 H 0.72685 0.12428 0.5045 0.0
H3103 H 0.76047 0.0195 0.51056 0.0
H3104 H 0.74288 0.97782 0.51738 0.0
H3105 H 0.66766 0.00225 0.50611 0.0
H3106 H 0.68484 0.04393 0.49906 0.0
H3107 H 0.84539 0.10818 0.4733 0.0
H3108 H 0.81059 0.10586 0.48938 0.0
H3109 H 0.76628 0.06105 0.46168 0.0
H3110 H 0.80137 0.0629 0.4455 0.0
H3111 H 0.76177 0.0429 0.48693 0.0
H3112 H 0.75406 0.12366 0.46511 0.0
H3113 H 0.76896 0.16531 0.45672 0.0
H3114 H 0.78663 0.18895 0.49668 0.0
H3115 H 0.77217 0.14728 0.50529 0.0
C3116 C 0.66416 0.10037 0.52394 0.0
C3117 C 0.66741 0.08767 0.53618 0.0
C3118 C 0.68265 0.09858 0.51397 0.0
C3119 C 0.70482 0.08408 0.516 0.0
C3120 C 0.70814 0.07128 0.52819 0.0
C3121 C 0.68953 0.07295 0.53818 0.0
C3122 C 0.72478 0.08325 0.5055 0.0
C3123 C 0.73445 0.10646 0.50067 0.0
C3124 C 0.73443 0.06002 0.50032 0.0
C3125 C 0.72393 0.03493 0.50441 0.0
C3126 C 0.74019 0.01594 0.50949 0.0
C3127 C 0.73029 0.99232 0.51341 0.0
C3128 C 0.70416 0.98742 0.51222 0.0
C3129 C 0.68788 0.0061 0.50708 0.0
C3130 C 0.69769 0.02974 0.50314 0.0
C3131 C 0.82829 0.09776 0.47059 0.0
C3132 C 0.82606 0.08592 0.45805 0.0
C3133 C 0.80839 0.09648 0.47981 0.0
C3134 C 0.78571 0.0836 0.47665 0.0
C3135 C 0.78362 0.07114 0.4643 0.0
C3136 C 0.80364 0.07231 0.45505 0.0
C3137 C 0.76399 0.08391 0.48614 0.0
C3138 C 0.75408 0.06066 0.49078 0.0
C3139 C 0.75368 0.10711 0.49096 0.0
C3140 C 0.76223 0.13227 0.48583 0.0
C3141 C 0.76129 0.13768 0.4721 0.0
C3142 C 0.76964 0.1613 0.4673 0.0
C3143 C 0.77879 0.17974 0.47616 0.0
C3144 C 0.77956 0.17463 0.48983 0.0
C3145 C 0.77127 0.15102 0.49468 0.0
H3146 H 0.78525 0.19802 0.47243 0.0
H3147 H 0.69653 0.96913 0.51527 0.0
H3148 H 0.67056 0.05879 0.19905 0.0
H3149 H 0.67267 0.02226 0.2144 0.0
H3150 H 0.65521 0.07193 0.24746 0.0
H3151 H 0.65231 0.10827 0.2322 0.0
H3152 H 0.69864 0.03209 0.25042 0.0
H3153 H 0.60873 0.04466 0.23813 0.0
H3154 H 0.57457 0.04923 0.22136 0.0
H3155 H 0.5939 0.97612 0.20485 0.0
H3156 H 0.62846 0.97132 0.22141 0.0
H3157 H 0.66214 0.94959 0.30277 0.0
H3158 H 0.66655 0.9842 0.28655 0.0
H3159 H 0.64836 0.93179 0.25466 0.0
H3160 H 0.64235 0.89771 0.27094 0.0
H3161 H 0.62535 0.97209 0.24972 0.0
H3162 H 0.71172 0.95557 0.26166 0.0
H3163 H 0.74877 0.94921 0.27646 0.0
H3164 H 0.74087 0.02573 0.29122 0.0
H3165 H 0.70355 0.03244 0.27664 0.0
C3166 C 0.66748 0.06191 0.20961 0.0
C3167 C 0.66112 0.08625 0.21446 0.0
C3168 C 0.66867 0.0411 0.21833 0.0
C3169 C 0.66409 0.04455 0.232 0.0
C3170 C 0.65887 0.06901 0.23693 0.0
C3171 C 0.65709 0.08966 0.2282 0.0
C3172 C 0.66295 0.02247 0.24111 0.0
C3173 C 0.68261 0.01898 0.25039 0.0
C3174 C 0.64241 0.00507 0.24067 0.0
C3175 C 0.62135 0.00778 0.23089 0.0
C3176 C 0.60584 0.02967 0.23085 0.0
C3177 C 0.58638 0.03228 0.2214 0.0
C3178 C 0.58212 0.01301 0.21202 0.0
C3179 C 0.59725 0.99105 0.21211 0.0
C3180 C 0.61676 0.98837 0.22152 0.0
C3181 C 0.6591 0.94555 0.29229 0.0
C3182 C 0.65185 0.92105 0.28809 0.0
C3183 C 0.66183 0.96527 0.283 0.0
C3184 C 0.65827 0.9606 0.26929 0.0
C3185 C 0.65117 0.93599 0.26514 0.0
C3186 C 0.64776 0.9165 0.27445 0.0
C3187 C 0.66109 0.98144 0.25932 0.0
C3188 C 0.64165 0.98486 0.24981 0.0
C3189 C 0.68224 0.99836 0.25934 0.0
C3190 C 0.70469 0.99442 0.26814 0.0
C3191 C 0.71777 0.97098 0.26813 0.0
C3192 C 0.73884 0.96732 0.27647 0.0
C3193 C 0.74713 0.98704 0.2848 0.0
C3194 C 0.73441 0.01047 0.28478 0.0
C3195 C 0.71331 0.01422 0.27647 0.0
H3196 H 0.76345 0.98417 0.29125 0.0
H3197 H 0.56706 0.01508 0.2047 0.0
H3198 H 0.64689 0.8986 0.98088 0.0
H3199 H 0.68255 0.90349 0.99645 0.0
H3200 H 0.72934 0.93371 0.96479 0.0
H3201 H 0.6935 0.92944 0.94916 0.0
H3202 H 0.74961 0.88973 0.9806 0.0
H3203 H 0.71206 0.97379 0.98585 0.0
H3204 H 0.67725 0.00407 0.99078 0.0
H3205 H 0.66797 0.97103 0.02966 0.0
H3206 H 0.70246 0.94031 0.0249 0.0
H3207 H 0.85807 0.91351 0.01933 0.0
H3208 H 0.82276 0.91853 0.00364 0.0
H3209 H 0.76928 0.91777 0.03646 0.0
H3210 H 0.80493 0.91473 0.05222 0.0
H3211 H 0.75201 0.94822 0.0195 0.0
H3212 H 0.78334 0.86318 0.01567 0.0
H3213 H 0.81515 0.82902 0.01247 0.0
H3214 H 0.8316 0.85714 0.97317 0.0
H3215 H 0.8001 0.89168 0.97621 0.0
C3216 C 0.66472 0.90644 0.97725 0.0
C3217 C 0.66749 0.91354 0.9638 0.0
C3218 C 0.68499 0.90934 0.98616 0.0
C3219 C 0.70844 0.91904 0.98175 0.0
C3220 C 0.71128 0.92629 0.96835 0.0
C3221 C 0.69083 0.92386 0.95947 0.0
C3222 C 0.73042 0.92011 0.99096 0.0
C3223 C 0.75044 0.90281 0.98899 0.0
C3224 C 0.73073 0.93636 0.00221 0.0
C3225 C 0.70972 0.95461 0.00497 0.0
C3226 C 0.70241 0.97279 0.99539 0.0
C3227 C 0.68278 0.99008 0.99817 0.0
C3228 C 0.67042 0.98947 0.01053 0.0
C3229 C 0.67758 0.97149 0.0201 0.0
C3230 C 0.69718 0.95416 0.01737 0.0
C3231 C 0.83876 0.9147 0.02316 0.0
C3232 C 0.83408 0.91357 0.03693 0.0
C3233 C 0.81856 0.91735 0.0142 0.0
C3234 C 0.79319 0.91772 0.01879 0.0
C3235 C 0.78861 0.9174 0.03263 0.0
C3236 C 0.80894 0.91562 0.04163 0.0
C3237 C 0.77153 0.91781 0.00918 0.0
C3238 C 0.75143 0.93521 0.01109 0.0
C3239 C 0.77065 0.90096 0.99811 0.0
C3240 C 0.78956 0.88017 0.99622 0.0
C3241 C 0.79387 0.86218 0.00638 0.0
C3242 C 0.81183 0.84274 0.0046 0.0
C3243 C 0.82544 0.84095 0.99264 0.0
C3244 C 0.82107 0.85857 0.98243 0.0
C3245 C 0.80315 0.87807 0.98418 0.0
H3246 H 0.83933 0.82589 0.99127 0.0
H3247 H 0.65537 0.00297 0.01272 0.0
H3248 H 0.62458 0.4184 0.71859 0.0
H3249 H 0.62615 0.45736 0.73193 0.0
H3250 H 0.70522 0.46788 0.72131 0.0
H3251 H 0.7037 0.42897 0.70759 0.0
H3252 H 0.6894 0.47106 0.75087 0.0
H3253 H 0.67139 0.50541 0.7071 0.0
H3254 H 0.64777 0.5068 0.68584 0.0
H3255 H 0.57791 0.52091 0.70702 0.0
H3256 H 0.60107 0.51926 0.72844 0.0
H3257 H 0.69354 0.59192 0.78299 0.0
H3258 H 0.6994 0.55661 0.76732 0.0
H3259 H 0.61798 0.55401 0.76066 0.0
H3260 H 0.61228 0.5902 0.77571 0.0
H3261 H 0.63935 0.5478 0.7384 0.0
H3262 H 0.65256 0.50985 0.78138 0.0
H3263 H 0.67201 0.50464 0.80362 0.0
H3264 H 0.74553 0.49335 0.78557 0.0
H3265 H 0.72655 0.49882 0.76322 0.0
C3266 C 0.64233 0.42897 0.71907 0.0
C3267 C 0.66404 0.42064 0.71206 0.0
C3268 C 0.64315 0.45124 0.72667 0.0
C3269 C 0.66577 0.46541 0.72755 0.0
C3270 C 0.68761 0.45711 0.7207 0.0
C3271 C 0.68667 0.435 0.71286 0.0
C3272 C 0.66629 0.4888 0.73578 0.0
C3273 C 0.67895 0.48812 0.74808 0.0
C3274 C 0.65183 0.51052 0.73226 0.0
C3275 C 0.63795 0.51201 0.71938 0.0
C3276 C 0.65097 0.50863 0.70723 0.0
C3277 C 0.63766 0.5095 0.69515 0.0
C3278 C 0.61135 0.51388 0.69508 0.0
C3279 C 0.59829 0.51751 0.70709 0.0
C3280 C 0.61151 0.51665 0.7192 0.0
C3281 C 0.67692 0.58375 0.77818 0.0
C3282 C 0.65244 0.59371 0.7806 0.0
C3283 C 0.68026 0.56348 0.76927 0.0
C3284 C 0.6591 0.55227 0.76293 0.0
C3285 C 0.63465 0.5623 0.76537 0.0
C3286 C 0.63138 0.58293 0.77402 0.0
C3287 C 0.66226 0.53018 0.75373 0.0
C3288 C 0.65018 0.53101 0.74122 0.0
C3289 C 0.67672 0.50829 0.75723 0.0
C3290 C 0.68819 0.50505 0.77065 0.0
C3291 C 0.67291 0.50646 0.78216 0.0
C3292 C 0.68384 0.50342 0.79478 0.0
C3293 C 0.71 0.49875 0.79601 0.0
C3294 C 0.72528 0.49703 0.78461 0.0
C3295 C 0.71444 0.50008 0.77196 0.0
H3296 H 0.71843 0.4964 0.80579 0.0
H3297 H 0.60107 0.51451 0.68572 0.0
H3298 H 0.82585 0.46683 0.95606 0.0
H3299 H 0.79092 0.47278 0.97223 0.0
H3300 H 0.7867 0.39135 0.97792 0.0
H3301 H 0.82198 0.38536 0.96223 0.0
H3302 H 0.73675 0.42255 0.97375 0.0
H3303 H 0.8167 0.41558 0.99951 0.0
H3304 H 0.86035 0.43002 0.00485 0.0
H3305 H 0.83208 0.50526 0.01323 0.0
H3306 H 0.78829 0.49131 0.00773 0.0
H3307 H 0.67084 0.38746 0.03078 0.0
H3308 H 0.70234 0.39302 0.01314 0.0
H3309 H 0.7167 0.46995 0.0266 0.0
H3310 H 0.68581 0.46399 0.04475 0.0
H3311 H 0.75956 0.44971 0.01967 0.0
H3312 H 0.67958 0.457 0.99823 0.0
H3313 H 0.63533 0.44584 0.9922 0.0
H3314 H 0.66135 0.37592 0.97448 0.0
H3315 H 0.70574 0.38646 0.98057 0.0
C3316 C 0.8172 0.45025 0.96066 0.0
C3317 C 0.82657 0.42565 0.95796 0.0
C3318 C 0.79738 0.45367 0.96988 0.0
C3319 C 0.78638 0.43248 0.97622 0.0
C3320 C 0.79499 0.40789 0.97309 0.0
C3321 C 0.81514 0.40452 0.96417 0.0
C3322 C 0.76676 0.43563 0.98667 0.0
C3323 C 0.74161 0.42845 0.98381 0.0
C3324 C 0.77309 0.44426 0.9996 0.0
C3325 C 0.79932 0.4525 0.00304 0.0
C3326 C 0.81984 0.43526 0.00236 0.0
C3327 C 0.84459 0.44334 0.00544 0.0
C3328 C 0.849 0.46857 0.00933 0.0
C3329 C 0.82865 0.48574 0.01019 0.0
C3330 C 0.80387 0.47776 0.00709 0.0
C3331 C 0.68078 0.40553 0.03003 0.0
C3332 C 0.67575 0.42536 0.03908 0.0
C3333 C 0.69866 0.40878 0.01986 0.0
C3334 C 0.71138 0.43218 0.01827 0.0
C3335 C 0.70697 0.4518 0.02755 0.0
C3336 C 0.68936 0.44838 0.03792 0.0
C3337 C 0.72939 0.43577 0.00695 0.0
C3338 C 0.75432 0.44426 0.0096 0.0
C3339 C 0.72267 0.42888 0.99372 0.0
C3340 C 0.696 0.42247 0.98994 0.0
C3341 C 0.67586 0.43917 0.99312 0.0
C3342 C 0.65075 0.43296 0.98968 0.0
C3343 C 0.64553 0.41017 0.98298 0.0
C3344 C 0.66542 0.39357 0.97967 0.0
C3345 C 0.69057 0.39967 0.9831 0.0
H3346 H 0.62607 0.4054 0.98033 0.0
H3347 H 0.86817 0.47479 0.01171 0.0
H3348 H 0.82263 0.44845 0.29925 0.0
H3349 H 0.81746 0.48267 0.28284 0.0
H3350 H 0.85898 0.43813 0.25383 0.0
H3351 H 0.86476 0.40429 0.27018 0.0
H3352 H 0.8755 0.48471 0.25349 0.0
H3353 H 0.79334 0.44489 0.25243 0.0
H3354 H 0.75311 0.42814 0.26175 0.0
H3355 H 0.73338 0.50296 0.27586 0.0
H3356 H 0.77367 0.5201 0.26677 0.0
H3357 H 0.80386 0.56331 0.19973 0.0
H3358 H 0.80427 0.52769 0.21557 0.0
H3359 H 0.85554 0.56974 0.24109 0.0
H3360 H 0.85555 0.60511 0.22533 0.0
H3361 H 0.79152 0.52248 0.24183 0.0
H3362 H 0.89983 0.52939 0.25338 0.0
H3363 H 0.93951 0.54329 0.24227 0.0
H3364 H 0.90597 0.52843 0.20397 0.0
H3365 H 0.86625 0.51408 0.21485 0.0
C3366 C 0.83064 0.44597 0.28937 0.0
C3367 C 0.84417 0.4237 0.28603 0.0
C3368 C 0.82754 0.46547 0.27998 0.0
C3369 C 0.83763 0.46285 0.26706 0.0
C3370 C 0.85108 0.4406 0.26374 0.0
C3371 C 0.85435 0.42125 0.27311 0.0
C3372 C 0.83493 0.48351 0.25707 0.0
C3373 C 0.85712 0.49294 0.25096 0.0
C3374 C 0.8109 0.49395 0.25357 0.0
C3375 C 0.78664 0.48372 0.25903 0.0
C3376 C 0.78052 0.45773 0.25761 0.0
C3377 C 0.75768 0.44817 0.26284 0.0
C3378 C 0.74073 0.46446 0.26942 0.0
C3379 C 0.74654 0.49036 0.27077 0.0
C3380 C 0.76937 0.50001 0.26557 0.0
C3381 C 0.81511 0.565 0.20875 0.0
C3382 C 0.82989 0.58691 0.2112 0.0
C3383 C 0.81524 0.5447 0.21781 0.0
C3384 C 0.8302 0.54599 0.2294 0.0
C3385 C 0.84419 0.56821 0.23209 0.0
C3386 C 0.84415 0.58842 0.22306 0.0
C3387 C 0.83211 0.5238 0.23847 0.0
C3388 C 0.80984 0.51417 0.2444 0.0
C3389 C 0.856 0.51269 0.24158 0.0
C3390 C 0.87998 0.5209 0.23494 0.0
C3391 C 0.90097 0.52898 0.24259 0.0
C3392 C 0.92346 0.53695 0.23633 0.0
C3393 C 0.92523 0.53682 0.22242 0.0
C3394 C 0.90454 0.52861 0.21474 0.0
C3395 C 0.88203 0.52058 0.22095 0.0
H3396 H 0.94264 0.54303 0.2176 0.0
H3397 H 0.72306 0.45703 0.27346 0.0
H3398 H 0.68926 0.54122 0.45839 0.0
H3399 H 0.7237 0.53775 0.47496 0.0
H3400 H 0.71616 0.61787 0.4839 0.0
H3401 H 0.68134 0.62133 0.46772 0.0
H3402 H 0.76961 0.59586 0.47897 0.0
H3403 H 0.69069 0.58522 0.50448 0.0
H3404 H 0.6496 0.56403 0.50913 0.0
H3405 H 0.68817 0.49229 0.51386 0.0
H3406 H 0.72947 0.51303 0.50902 0.0
H3407 H 0.83833 0.61942 0.53711 0.0
H3408 H 0.80474 0.61722 0.5203 0.0
H3409 H 0.7983 0.53598 0.52659 0.0
H3410 H 0.83112 0.5384 0.54398 0.0
H3411 H 0.75333 0.55389 0.52253 0.0
H3412 H 0.83219 0.56279 0.4996 0.0
H3413 H 0.87418 0.58142 0.49424 0.0
H3414 H 0.83822 0.65182 0.48304 0.0
H3415 H 0.79602 0.63385 0.48862 0.0
C3416 C 0.69511 0.5581 0.46383 0.0
C3417 C 0.68263 0.58153 0.46181 0.0
C3418 C 0.71467 0.55607 0.47329 0.0
C3419 C 0.72233 0.57756 0.48062 0.0
C3420 C 0.71045 0.6011 0.47831 0.0
C3421 C 0.69056 0.60302 0.46911 0.0
C3422 C 0.74232 0.57558 0.49097 0.0
C3423 C 0.76611 0.58685 0.48854 0.0
C3424 C 0.73788 0.563 0.50321 0.0
C3425 C 0.7131 0.5506 0.50622 0.0
C3426 C 0.69037 0.56488 0.50637 0.0
C3427 C 0.66705 0.55296 0.50907 0.0
C3428 C 0.66626 0.52681 0.51174 0.0
C3429 C 0.6888 0.51254 0.51176 0.0
C3430 C 0.71217 0.52436 0.50904 0.0
C3431 C 0.82958 0.60113 0.53499 0.0
C3432 C 0.83744 0.57905 0.54177 0.0
C3433 C 0.81051 0.59984 0.5253 0.0
C3434 C 0.79947 0.5763 0.52186 0.0
C3435 C 0.80664 0.55434 0.52898 0.0
C3436 C 0.82537 0.55573 0.53892 0.0
C3437 C 0.78074 0.57475 0.51073 0.0
C3438 C 0.75714 0.56272 0.51295 0.0
C3439 C 0.78558 0.5862 0.49815 0.0
C3440 C 0.81093 0.59701 0.49463 0.0
C3441 C 0.83323 0.5823 0.49607 0.0
C3442 C 0.85708 0.59274 0.49299 0.0
C3443 C 0.85887 0.61777 0.4883 0.0
C3444 C 0.8368 0.63243 0.48668 0.0
C3445 C 0.81291 0.62213 0.4898 0.0
H3446 H 0.87735 0.62581 0.48591 0.0
H3447 H 0.64819 0.51761 0.51383 0.0
H3448 H 0.33101 0.55267 0.30427 0.0
H3449 H 0.32708 0.51745 0.2882 0.0
H3450 H 0.35065 0.56765 0.25644 0.0
H3451 H 0.35535 0.60265 0.27242 0.0
H3452 H 0.30368 0.5327 0.25212 0.0
H3453 H 0.39367 0.53487 0.26521 0.0
H3454 H 0.42807 0.53472 0.28201 0.0
H3455 H 0.40111 0.46299 0.29719 0.0
H3456 H 0.3663 0.46294 0.2806 0.0
H3457 H 0.33418 0.4477 0.19912 0.0
H3458 H 0.33106 0.48217 0.21556 0.0
H3459 H 0.34234 0.42765 0.24733 0.0
H3460 H 0.34715 0.39367 0.23089 0.0
H3461 H 0.36968 0.46482 0.25256 0.0
H3462 H 0.2822 0.45885 0.2397 0.0
H3463 H 0.24527 0.45757 0.22447 0.0
H3464 H 0.26284 0.53317 0.21076 0.0
H3465 H 0.30008 0.53479 0.22579 0.0
C3466 C 0.33524 0.55618 0.29385 0.0
C3467 C 0.34367 0.5803 0.28959 0.0
C3468 C 0.33296 0.53612 0.28471 0.0
C3469 C 0.33853 0.54009 0.27117 0.0
C3470 C 0.34619 0.56432 0.26685 0.0
C3471 C 0.34903 0.58419 0.276 0.0
C3472 C 0.33772 0.51869 0.26159 0.0
C3473 C 0.31813 0.51787 0.25208 0.0
C3474 C 0.35619 0.49911 0.2619 0.0
C3475 C 0.37723 0.49905 0.27178 0.0
C3476 C 0.39493 0.5192 0.27222 0.0
C3477 C 0.41454 0.51913 0.28168 0.0
C3478 C 0.41673 0.4989 0.29069 0.0
C3479 C 0.39936 0.47867 0.29023 0.0
C3480 C 0.37971 0.47867 0.28079 0.0
C3481 C 0.33579 0.44317 0.20963 0.0
C3482 C 0.34102 0.41813 0.21376 0.0
C3483 C 0.33383 0.46282 0.21904 0.0
C3484 C 0.33616 0.45758 0.23277 0.0
C3485 C 0.34063 0.43233 0.23684 0.0
C3486 C 0.34331 0.41288 0.22744 0.0
C3487 C 0.33545 0.47844 0.24287 0.0
C3488 C 0.35491 0.47933 0.25253 0.0
C3489 C 0.31645 0.49773 0.24286 0.0
C3490 C 0.29408 0.49683 0.23379 0.0
C3491 C 0.2783 0.47513 0.23337 0.0
C3492 C 0.25729 0.47435 0.22478 0.0
C3493 C 0.25175 0.49525 0.21663 0.0
C3494 C 0.26717 0.51699 0.21707 0.0
C3495 C 0.28822 0.51785 0.22563 0.0
H3496 H 0.23547 0.49461 0.20998 0.0
H3497 H 0.43192 0.49888 0.29801 0.0
H3498 H 0.338 0.61819 0.97726 0.0
H3499 H 0.30467 0.60925 0.99355 0.0
H3500 H 0.28259 0.54221 0.97139 0.0
H3501 H 0.31576 0.55136 0.95479 0.0
H3502 H 0.2417 0.56701 0.97932 0.0
H3503 H 0.31628 0.53661 0.00055 0.0
H3504 H 0.3608 0.5375 0.00851 0.0
H3505 H 0.34312 0.60058 0.03425 0.0
H3506 H 0.29857 0.60034 0.0263 0.0
H3507 H 0.18858 0.54409 0.05199 0.0
H3508 H 0.22278 0.53812 0.03549 0.0
H3509 H 0.19534 0.60336 0.01354 0.0
H3510 H 0.16124 0.6092 0.02968 0.0
H3511 H 0.26165 0.56772 0.02773 0.0
H3512 H 0.20128 0.5949 0.98087 0.0
H3513 H 0.157 0.59004 0.97289 0.0
H3514 H 0.14679 0.52502 0.99838 0.0
H3515 H 0.19111 0.52922 0.00636 0.0
C3516 C 0.32606 0.60154 0.9758 0.0
C3517 C 0.32963 0.58543 0.96474 0.0
C3518 C 0.3071 0.59635 0.9852 0.0
C3519 C 0.29146 0.57475 0.98386 0.0
C3520 C 0.29456 0.55889 0.97267 0.0
C3521 C 0.3135 0.56416 0.96319 0.0
C3522 C 0.27156 0.56931 0.99404 0.0
C3523 C 0.24608 0.56697 0.9899 0.0
C3524 C 0.27734 0.5684 0.00784 0.0
C3525 C 0.30409 0.56853 0.01276 0.0
C3526 C 0.32191 0.55078 0.00785 0.0
C3527 C 0.34716 0.55116 0.01237 0.0
C3528 C 0.35479 0.56911 0.02187 0.0
C3529 C 0.33718 0.58668 0.02689 0.0
C3530 C 0.31191 0.58641 0.02239 0.0
C3531 C 0.18988 0.55712 0.04364 0.0
C3532 C 0.17207 0.57701 0.04212 0.0
C3533 C 0.2094 0.55369 0.03422 0.0
C3534 C 0.21132 0.57 0.02314 0.0
C3535 C 0.19389 0.59015 0.02182 0.0
C3536 C 0.17445 0.59355 0.03114 0.0
C3537 C 0.23175 0.56668 0.01301 0.0
C3538 C 0.25732 0.56735 0.01715 0.0
C3539 C 0.2261 0.5654 0.9992 0.0
C3540 C 0.19951 0.56249 0.99427 0.0
C3541 C 0.18965 0.57946 0.98471 0.0
C3542 C 0.16452 0.57684 0.9802 0.0
C3543 C 0.14908 0.55727 0.98514 0.0
C3544 C 0.15875 0.54022 0.99458 0.0
C3545 C 0.18386 0.54273 0.99912 0.0
H3546 H 0.12962 0.5553 0.98165 0.0
H3547 H 0.37435 0.56938 0.02536 0.0
H3548 H 0.15983 0.39843 0.77073 0.0
H3549 H 0.16602 0.43319 0.75477 0.0
H3550 H 0.1924 0.4821 0.7865 0.0
H3551 H 0.18676 0.44718 0.80255 0.0
H3552 H 0.15002 0.50092 0.76952 0.0
H3553 H 0.23465 0.46399 0.76641 0.0
H3554 H 0.26536 0.42903 0.76269 0.0
H3555 H 0.23535 0.41736 0.72332 0.0
H3556 H 0.20419 0.45199 0.72687 0.0
H3557 H 0.1742 0.60705 0.72937 0.0
H3558 H 0.17957 0.57291 0.74572 0.0
H3559 H 0.18054 0.51734 0.71388 0.0
H3560 H 0.17707 0.55185 0.69746 0.0
H3561 H 0.21088 0.50176 0.73158 0.0
H3562 H 0.12509 0.53184 0.73351 0.0
H3563 H 0.09029 0.5633 0.73556 0.0
H3564 H 0.11594 0.58293 0.77493 0.0
H3565 H 0.15112 0.55181 0.77304 0.0
C3566 C 0.16714 0.41653 0.7743 0.0
C3567 C 0.1727 0.42018 0.78789 0.0
C3568 C 0.17079 0.43627 0.76516 0.0
C3569 C 0.17975 0.46007 0.76948 0.0
C3570 C 0.18557 0.46376 0.78301 0.0
C3571 C 0.18237 0.44384 0.79213 0.0
C3572 C 0.1813 0.48156 0.76 0.0
C3573 C 0.16363 0.50144 0.76136 0.0
C3574 C 0.19827 0.48141 0.74903 0.0
C3575 C 0.21694 0.46048 0.74695 0.0
C3576 C 0.23442 0.45381 0.75701 0.0
C3577 C 0.25195 0.43408 0.75492 0.0
C3578 C 0.2523 0.42099 0.74278 0.0
C3579 C 0.23507 0.42754 0.73271 0.0
C3580 C 0.21749 0.44722 0.73476 0.0
C3581 C 0.17585 0.58753 0.7259 0.0
C3582 C 0.175 0.58191 0.71223 0.0
C3583 C 0.17874 0.56801 0.73523 0.0
C3584 C 0.17965 0.5424 0.73109 0.0
C3585 C 0.17974 0.5369 0.71735 0.0
C3586 C 0.1777 0.55656 0.70798 0.0
C3587 C 0.17959 0.52143 0.74108 0.0
C3588 C 0.19739 0.50151 0.73979 0.0
C3589 C 0.16207 0.52101 0.75188 0.0
C3590 C 0.14089 0.53969 0.75308 0.0
C3591 C 0.12341 0.54299 0.74257 0.0
C3592 C 0.1036 0.56075 0.74371 0.0
C3593 C 0.10095 0.57516 0.75535 0.0
C3594 C 0.11805 0.57179 0.7659 0.0
C3595 C 0.13791 0.55408 0.76481 0.0
H3596 H 0.0856 0.58889 0.75622 0.0
H3597 H 0.26596 0.40583 0.74113 0.0
H3598 H 0.20237 0.42816 0.44804 0.0
H3599 H 0.23613 0.4331 0.46483 0.0
H3600 H 0.18228 0.41511 0.49597 0.0
H3601 H 0.14862 0.40946 0.47926 0.0
H3602 H 0.2193 0.45995 0.50032 0.0
H3603 H 0.2138 0.36966 0.48865 0.0
H3604 H 0.21304 0.33424 0.47245 0.0
H3605 H 0.28676 0.35665 0.45778 0.0
H3606 H 0.28775 0.39248 0.47377 0.0
H3607 H 0.30302 0.43059 0.55422 0.0
H3608 H 0.26851 0.43313 0.53778 0.0
H3609 H 0.3227 0.41849 0.50619 0.0
H3610 H 0.35671 0.41437 0.52265 0.0
H3611 H 0.2847 0.39151 0.50163 0.0
H3612 H 0.29332 0.47974 0.51289 0.0
H3613 H 0.29545 0.5175 0.52753 0.0
H3614 H 0.21907 0.503 0.54116 0.0
H3615 H 0.21661 0.46495 0.52673 0.0
C3616 C 0.19769 0.42554 0.45848 0.0
C3617 C 0.17297 0.41823 0.46236 0.0
C3618 C 0.21694 0.42838 0.46803 0.0
C3619 C 0.21158 0.42445 0.48159 0.0
C3620 C 0.18668 0.41828 0.48554 0.0
C3621 C 0.16757 0.4149 0.47599 0.0
C3622 C 0.23236 0.42486 0.49155 0.0
C3623 C 0.23356 0.44495 0.50075 0.0
C3624 C 0.25118 0.4056 0.49178 0.0
C3625 C 0.25071 0.3839 0.48229 0.0
C3626 C 0.22974 0.36717 0.48188 0.0
C3627 C 0.22928 0.347 0.47276 0.0
C3628 C 0.2498 0.34324 0.46406 0.0
C3629 C 0.27085 0.35961 0.4645 0.0
C3630 C 0.27138 0.37984 0.4736 0.0
C3631 C 0.30748 0.42807 0.54375 0.0
C3632 C 0.33244 0.42216 0.53969 0.0
C3633 C 0.2878 0.4297 0.53434 0.0
C3634 C 0.29295 0.4263 0.52067 0.0
C3635 C 0.3181 0.42104 0.51665 0.0
C3636 C 0.33756 0.41873 0.52606 0.0
C3637 C 0.27212 0.42687 0.51056 0.0
C3638 C 0.27072 0.40677 0.50129 0.0
C3639 C 0.25347 0.44649 0.51012 0.0
C3640 C 0.25489 0.46934 0.51882 0.0
C3641 C 0.27705 0.48449 0.51909 0.0
C3642 C 0.27831 0.50597 0.52734 0.0
C3643 C 0.25743 0.5126 0.5353 0.0
C3644 C 0.23524 0.49781 0.535 0.0
C3645 C 0.2339 0.4763 0.52678 0.0
H3646 H 0.25844 0.52924 0.54168 0.0
H3647 H 0.24942 0.32762 0.457 0.0
loop_
_geom_bond_atom_site_label_1
_geom_bond_atom_site_label_2
_geom_bond_distance
_geom_bond_site_symmetry_2
_ccdc_geom_bond_type
C0 O2 1.247 . S
C0 O4 1.258 . S
C1 O8 1.247 . S
C1 O9 1.258 . S
O2 C0 1.247 . S
O2 Zn3 2.028 . S
Zn3 O2 2.028 . S
Zn3 O7 2.035 . S
Zn3 O9 2.035 . S
Zn3 O10 2.028 . S
O4 C0 1.258 . S
O4 Zn5 2.035 . S
Zn5 O4 2.035 . S
Zn5 O6 2.028 . S
Zn5 O8 2.028 . S
Zn5 O11 2.035 . S
O6 Zn5 2.028 . S
O6 C12 1.247 . S
O7 Zn3 2.035 . S
O7 C12 1.258 . S
O8 C1 1.247 . S
O8 Zn5 2.028 . S
O9 C1 1.258 . S
O9 Zn3 2.035 . S
O10 Zn3 2.028 . S
O10 C13 1.247 . S
O11 Zn5 2.035 . S
O11 C13 1.258 . S
C12 O6 1.247 . S
C12 O7 1.258 . S
C13 O10 1.247 . S
C13 O11 1.258 . S
C14 O16 1.247 . S
C14 O18 1.258 . S
C15 O22 1.247 . S
C15 O23 1.258 . S
O16 C14 1.247 . S
O16 Zn17 2.028 . S
Zn17 O16 2.028 . S
Zn17 O21 2.035 . S
Zn17 O23 2.035 . S
Zn17 O24 2.028 . S
O18 C14 1.258 . S
O18 Zn19 2.035 . S
Zn19 O18 2.035 . S
Zn19 O20 2.028 . S
Zn19 O22 2.028 . S
Zn19 O25 2.035 . S
O20 Zn19 2.028 . S
O20 C26 1.247 . S
O21 Zn17 2.035 . S
O21 C26 1.258 . S
O22 C15 1.247 . S
O22 Zn19 2.028 . S
O23 C15 1.258 . S
O23 Zn17 2.035 . S
O24 Zn17 2.028 . S
O24 C27 1.247 . S
O25 Zn19 2.035 . S
O25 C27 1.258 . S
C26 O20 1.247 . S
C26 O21 1.258 . S
C27 O24 1.247 . S
C27 O25 1.258 . S
C28 O30 1.247 . S
C28 O32 1.258 . S
C29 O36 1.247 . S
C29 O37 1.258 . S
O30 C28 1.247 . S
O30 Zn31 2.028 . S
Zn31 O30 2.028 . S
Zn31 O35 2.035 . S
Zn31 O37 2.035 . S
Zn31 O38 2.028 . S
O32 C28 1.258 . S
O32 Zn33 2.035 . S
Zn33 O32 2.035 . S
Zn33 O34 2.028 . S
Zn33 O36 2.028 . S
Zn33 O39 2.035 . S
O34 Zn33 2.028 . S
O34 C40 1.247 . S
O35 Zn31 2.035 . S
O35 C40 1.258 . S
O36 C29 1.247 . S
O36 Zn33 2.028 . S
O37 C29 1.258 . S
O37 Zn31 2.035 . S
O38 Zn31 2.028 . S
O38 C41 1.247 . S
O39 Zn33 2.035 . S
O39 C41 1.258 . S
C40 O34 1.247 . S
C40 O35 1.258 . S
C41 O38 1.247 . S
C41 O39 1.258 . S
C42 O44 1.247 . S
C42 O46 1.258 . S
C43 O50 1.247 . S
C43 O51 1.258 . S
O44 C42 1.247 . S
O44 Zn45 2.028 . S
Zn45 O44 2.028 . S
Zn45 O49 2.035 . S
Zn45 O51 2.035 . S
Zn45 O52 2.028 . S
O46 C42 1.258 . S
O46 Zn47 2.035 . S
Zn47 O46 2.035 . S
Zn47 O48 2.028 . S
Zn47 O50 2.028 . S
Zn47 O53 2.035 . S
O48 Zn47 2.028 . S
O48 C54 1.247 . S
O49 Zn45 2.035 . S
O49 C54 1.258 . S
O50 C43 1.247 . S
O50 Zn47 2.028 . S
O51 C43 1.258 . S
O51 Zn45 2.035 . S
O52 Zn45 2.028 . S
O52 C55 1.247 . S
O53 Zn47 2.035 . S
O53 C55 1.258 . S
C54 O48 1.247 . S
C54 O49 1.258 . S
C55 O52 1.247 . S
C55 O53 1.258 . S
C56 O58 1.247 . S
C56 O60 1.258 . S
C57 O64 1.247 . S
C57 O65 1.258 . S
O58 C56 1.247 . S
O58 Zn59 2.028 . S
Zn59 O58 2.028 . S
Zn59 O63 2.035 . S
Zn59 O65 2.035 . S
Zn59 O66 2.028 . S
O60 C56 1.258 . S
O60 Zn61 2.035 . S
Zn61 O60 2.035 . S
Zn61 O62 2.028 . S
Zn61 O64 2.028 . S
Zn61 O67 2.035 . S
O62 Zn61 2.028 . S
O62 C68 1.247 . S
O63 Zn59 2.035 . S
O63 C68 1.258 . S
O64 C57 1.247 . S
O64 Zn61 2.028 . S
O65 C57 1.258 . S
O65 Zn59 2.035 . S
O66 Zn59 2.028 . S
O66 C69 1.247 . S
O67 Zn61 2.035 . S
O67 C69 1.258 . S
C68 O62 1.247 . S
C68 O63 1.258 . S
C69 O66 1.247 . S
C69 O67 1.258 . S
C70 O72 1.247 . S
C70 O74 1.258 . S
C71 O78 1.247 . S
C71 O79 1.258 . S
O72 C70 1.247 . S
O72 Zn73 2.028 . S
Zn73 O72 2.028 . S
Zn73 O77 2.035 . S
Zn73 O79 2.035 . S
Zn73 O80 2.028 . S
O74 C70 1.258 . S
O74 Zn75 2.035 . S
Zn75 O74 2.035 . S
Zn75 O76 2.028 . S
Zn75 O78 2.028 . S
Zn75 O81 2.035 . S
O76 Zn75 2.028 . S
O76 C82 1.247 . S
O77 Zn73 2.035 . S
O77 C82 1.258 . S
O78 C71 1.247 . S
O78 Zn75 2.028 . S
O79 C71 1.258 . S
O79 Zn73 2.035 . S
O80 Zn73 2.028 . S
O80 C83 1.247 . S
O81 Zn75 2.035 . S
O81 C83 1.258 . S
C82 O76 1.247 . S
C82 O77 1.258 . S
C83 O80 1.247 . S
C83 O81 1.258 . S
C84 O86 1.247 . S
C84 O88 1.258 . S
C85 O92 1.247 . S
C85 O93 1.258 . S
O86 C84 1.247 . S
O86 Zn87 2.028 . S
Zn87 O86 2.028 . S
Zn87 O91 2.035 . S
Zn87 O93 2.035 . S
Zn87 O94 2.028 . S
O88 C84 1.258 . S
O88 Zn89 2.035 . S
Zn89 O88 2.035 . S
Zn89 O90 2.028 . S
Zn89 O92 2.028 . S
Zn89 O95 2.035 . S
O90 Zn89 2.028 . S
O90 C96 1.247 . S
O91 Zn87 2.035 . S
O91 C96 1.258 . S
O92 C85 1.247 . S
O92 Zn89 2.028 . S
O93 C85 1.258 . S
O93 Zn87 2.035 . S
O94 Zn87 2.028 . S
O94 C97 1.247 . S
O95 Zn89 2.035 . S
O95 C97 1.258 . S
C96 O90 1.247 . S
C96 O91 1.258 . S
C97 O94 1.247 . S
C97 O95 1.258 . S
C98 O100 1.247 . S
C98 O102 1.258 . S
C99 O106 1.247 . S
C99 O107 1.258 . S
O100 C98 1.247 . S
O100 Zn101 2.028 . S
Zn101 O100 2.028 . S
Zn101 O105 2.035 . S
Zn101 O107 2.035 . S
Zn101 O108 2.028 . S
O102 C98 1.258 . S
O102 Zn103 2.035 . S
Zn103 O102 2.035 . S
Zn103 O104 2.028 . S
Zn103 O106 2.028 . S
Zn103 O109 2.035 . S
O104 Zn103 2.028 . S
O104 C110 1.247 . S
O105 Zn101 2.035 . S
O105 C110 1.258 . S
O106 C99 1.247 . S
O106 Zn103 2.028 . S
O107 C99 1.258 . S
O107 Zn101 2.035 . S
O108 Zn101 2.028 . S
O108 C111 1.247 . S
O109 Zn103 2.035 . S
O109 C111 1.258 . S
C110 O104 1.247 . S
C110 O105 1.258 . S
C111 O108 1.247 . S
C111 O109 1.258 . S
C112 O114 1.247 . S
C112 O116 1.258 . S
C113 O120 1.247 . S
C113 O121 1.258 . S
O114 C112 1.247 . S
O114 Zn115 2.028 . S
Zn115 O114 2.028 . S
Zn115 O119 2.035 . S
Zn115 O121 2.035 . S
Zn115 O122 2.028 . S
O116 C112 1.258 . S
O116 Zn117 2.035 . S
Zn117 O116 2.035 . S
Zn117 O118 2.028 . S
Zn117 O120 2.028 . S
Zn117 O123 2.035 . S
O118 Zn117 2.028 . S
O118 C124 1.247 . S
O119 Zn115 2.035 . S
O119 C124 1.258 . S
O120 C113 1.247 . S
O120 Zn117 2.028 . S
O121 C113 1.258 . S
O121 Zn115 2.035 . S
O122 Zn115 2.028 . S
O122 C125 1.247 . S
O123 Zn117 2.035 . S
O123 C125 1.258 . S
C124 O118 1.247 . S
C124 O119 1.258 . S
C125 O122 1.247 . S
C125 O123 1.258 . S
C126 O128 1.247 . S
C126 O130 1.258 . S
C127 O134 1.247 . S
C127 O135 1.258 . S
O128 C126 1.247 . S
O128 Zn129 2.028 . S
Zn129 O128 2.028 . S
Zn129 O133 2.035 . S
Zn129 O135 2.035 . S
Zn129 O136 2.028 . S
O130 C126 1.258 . S
O130 Zn131 2.035 . S
Zn131 O130 2.035 . S
Zn131 O132 2.028 . S
Zn131 O134 2.028 . S
Zn131 O137 2.035 . S
O132 Zn131 2.028 . S
O132 C138 1.247 . S
O133 Zn129 2.035 . S
O133 C138 1.258 . S
O134 C127 1.247 . S
O134 Zn131 2.028 . S
O135 C127 1.258 . S
O135 Zn129 2.035 . S
O136 Zn129 2.028 . S
O136 C139 1.247 . S
O137 Zn131 2.035 . S
O137 C139 1.258 . S
C138 O132 1.247 . S
C138 O133 1.258 . S
C139 O136 1.247 . S
C139 O137 1.258 . S
C140 O142 1.247 . S
C140 O144 1.258 . S
C141 O148 1.247 . S
C141 O149 1.258 . S
O142 C140 1.247 . S
O142 Zn143 2.028 . S
Zn143 O142 2.028 . S
Zn143 O147 2.035 . S
Zn143 O149 2.035 . S
Zn143 O150 2.028 . S
O144 C140 1.258 . S
O144 Zn145 2.035 . S
Zn145 O144 2.035 . S
Zn145 O146 2.028 . S
Zn145 O148 2.028 . S
Zn145 O151 2.035 . S
O146 Zn145 2.028 . S
O146 C152 1.247 . S
O147 Zn143 2.035 . S
O147 C152 1.258 . S
O148 C141 1.247 . S
O148 Zn145 2.028 . S
O149 C141 1.258 . S
O149 Zn143 2.035 . S
O150 Zn143 2.028 . S
O150 C153 1.247 . S
O151 Zn145 2.035 . S
O151 C153 1.258 . S
C152 O146 1.247 . S
C152 O147 1.258 . S
C153 O150 1.247 . S
C153 O151 1.258 . S
C154 O156 1.247 . S
C154 O158 1.258 . S
C155 O162 1.247 . S
C155 O163 1.258 . S
O156 C154 1.247 . S
O156 Zn157 2.028 . S
Zn157 O156 2.028 . S
Zn157 O161 2.035 . S
Zn157 O163 2.035 . S
Zn157 O164 2.028 . S
O158 C154 1.258 . S
O158 Zn159 2.035 . S
Zn159 O158 2.035 . S
Zn159 O160 2.028 . S
Zn159 O162 2.028 . S
Zn159 O165 2.035 . S
O160 Zn159 2.028 . S
O160 C166 1.247 . S
O161 Zn157 2.035 . S
O161 C166 1.258 . S
O162 C155 1.247 . S
O162 Zn159 2.028 . S
O163 C155 1.258 . S
O163 Zn157 2.035 . S
O164 Zn157 2.028 . S
O164 C167 1.247 . S
O165 Zn159 2.035 . S
O165 C167 1.258 . S
C166 O160 1.247 . S
C166 O161 1.258 . S
C167 O164 1.247 . S
C167 O165 1.258 . S
C168 O170 1.247 . S
C168 O172 1.258 . S
C169 O176 1.247 . S
C169 O177 1.258 . S
O170 C168 1.247 . S
O170 Zn171 2.028 . S
Zn171 O170 2.028 . S
Zn171 O175 2.035 . S
Zn171 O177 2.035 . S
Zn171 O178 2.028 . S
O172 C168 1.258 . S
O172 Zn173 2.035 . S
Zn173 O172 2.035 . S
Zn173 O174 2.028 . S
Zn173 O176 2.028 . S
Zn173 O179 2.035 . S
O174 Zn173 2.028 . S
O174 C180 1.247 . S
O175 Zn171 2.035 . S
O175 C180 1.258 . S
O176 C169 1.247 . S
O176 Zn173 2.028 . S
O177 C169 1.258 . S
O177 Zn171 2.035 . S
O178 Zn171 2.028 . S
O178 C181 1.247 . S
O179 Zn173 2.035 . S
O179 C181 1.258 . S
C180 O174 1.247 . S
C180 O175 1.258 . S
C181 O178 1.247 . S
C181 O179 1.258 . S
C182 O184 1.247 . S
C182 O186 1.258 . S
C183 O190 1.247 . S
C183 O191 1.258 . S
O184 C182 1.247 . S
O184 Zn185 2.028 . S
Zn185 O184 2.028 . S
Zn185 O189 2.035 . S
Zn185 O191 2.035 . S
Zn185 O192 2.028 . S
O186 C182 1.258 . S
O186 Zn187 2.035 . S
Zn187 O186 2.035 . S
Zn187 O188 2.028 . S
Zn187 O190 2.028 . S
Zn187 O193 2.035 . S
O188 Zn187 2.028 . S
O188 C194 1.247 . S
O189 Zn185 2.035 . S
O189 C194 1.258 . S
O190 C183 1.247 . S
O190 Zn187 2.028 . S
O191 C183 1.258 . S
O191 Zn185 2.035 . S
O192 Zn185 2.028 . S
O192 C195 1.247 . S
O193 Zn187 2.035 . S
O193 C195 1.258 . S
C194 O188 1.247 . S
C194 O189 1.258 . S
C195 O192 1.247 . S
C195 O193 1.258 . S
C196 O198 1.247 . S
C196 O200 1.258 . S
C197 O204 1.247 . S
C197 O205 1.258 . S
O198 C196 1.247 . S
O198 Zn199 2.028 . S
Zn199 O198 2.028 . S
Zn199 O203 2.035 . S
Zn199 O205 2.035 . S
Zn199 O206 2.028 . S
O200 C196 1.258 . S
O200 Zn201 2.035 . S
Zn201 O200 2.035 . S
Zn201 O202 2.028 . S
Zn201 O204 2.028 . S
Zn201 O207 2.035 . S
O202 Zn201 2.028 . S
O202 C208 1.247 . S
O203 Zn199 2.035 . S
O203 C208 1.258 . S
O204 C197 1.247 . S
O204 Zn201 2.028 . S
O205 C197 1.258 . S
O205 Zn199 2.035 . S
O206 Zn199 2.028 . S
O206 C209 1.247 . S
O207 Zn201 2.035 . S
O207 C209 1.258 . S
C208 O202 1.247 . S
C208 O203 1.258 . S
C209 O206 1.247 . S
C209 O207 1.258 . S
C210 O212 1.247 . S
C210 O214 1.258 . S
C211 O218 1.247 . S
C211 O219 1.258 . S
O212 C210 1.247 . S
O212 Zn213 2.028 . S
Zn213 O212 2.028 . S
Zn213 O217 2.035 . S
Zn213 O219 2.035 . S
Zn213 O220 2.028 . S
O214 C210 1.258 . S
O214 Zn215 2.035 . S
Zn215 O214 2.035 . S
Zn215 O216 2.028 . S
Zn215 O218 2.028 . S
Zn215 O221 2.035 . S
O216 Zn215 2.028 . S
O216 C222 1.247 . S
O217 Zn213 2.035 . S
O217 C222 1.258 . S
O218 C211 1.247 . S
O218 Zn215 2.028 . S
O219 C211 1.258 . S
O219 Zn213 2.035 . S
O220 Zn213 2.028 . S
O220 C223 1.247 . S
O221 Zn215 2.035 . S
O221 C223 1.258 . S
C222 O216 1.247 . S
C222 O217 1.258 . S
C223 O220 1.247 . S
C223 O221 1.258 . S
C224 O226 1.247 . S
C224 O228 1.258 . S
C225 O232 1.247 . S
C225 O233 1.258 . S
O226 C224 1.247 . S
O226 Zn227 2.028 . S
Zn227 O226 2.028 . S
Zn227 O231 2.035 . S
Zn227 O233 2.035 . S
Zn227 O234 2.028 . S
O228 C224 1.258 . S
O228 Zn229 2.035 . S
Zn229 O228 2.035 . S
Zn229 O230 2.028 . S
Zn229 O232 2.028 . S
Zn229 O235 2.035 . S
O230 Zn229 2.028 . S
O230 C236 1.247 . S
O231 Zn227 2.035 . S
O231 C236 1.258 . S
O232 C225 1.247 . S
O232 Zn229 2.028 . S
O233 C225 1.258 . S
O233 Zn227 2.035 . S
O234 Zn227 2.028 . S
O234 C237 1.247 . S
O235 Zn229 2.035 . S
O235 C237 1.258 . S
C236 O230 1.247 . S
C236 O231 1.258 . S
C237 O234 1.247 . S
C237 O235 1.258 . S
C238 O240 1.247 . S
C238 O242 1.258 . S
C239 O246 1.247 . S
C239 O247 1.258 . S
O240 C238 1.247 . S
O240 Zn241 2.028 . S
Zn241 O240 2.028 . S
Zn241 O245 2.035 . S
Zn241 O247 2.035 . S
Zn241 O248 2.028 . S
O242 C238 1.258 . S
O242 Zn243 2.035 . S
Zn243 O242 2.035 . S
Zn243 O244 2.028 . S
Zn243 O246 2.028 . S
Zn243 O249 2.035 . S
O244 Zn243 2.028 . S
O244 C250 1.247 . S
O245 Zn241 2.035 . S
O245 C250 1.258 . S
O246 C239 1.247 . S
O246 Zn243 2.028 . S
O247 C239 1.258 . S
O247 Zn241 2.035 . S
O248 Zn241 2.028 . S
O248 C251 1.247 . S
O249 Zn243 2.035 . S
O249 C251 1.258 . S
C250 O244 1.247 . S
C250 O245 1.258 . S
C251 O248 1.247 . S
C251 O249 1.258 . S
C252 O254 1.247 . S
C252 O256 1.258 . S
C253 O260 1.247 . S
C253 O261 1.258 . S
O254 C252 1.247 . S
O254 Zn255 2.028 . S
Zn255 O254 2.028 . S
Zn255 O259 2.035 . S
Zn255 O261 2.035 . S
Zn255 O262 2.028 . S
O256 C252 1.258 . S
O256 Zn257 2.035 . S
Zn257 O256 2.035 . S
Zn257 O258 2.028 . S
Zn257 O260 2.028 . S
Zn257 O263 2.035 . S
O258 Zn257 2.028 . S
O258 C264 1.247 . S
O259 Zn255 2.035 . S
O259 C264 1.258 . S
O260 C253 1.247 . S
O260 Zn257 2.028 . S
O261 C253 1.258 . S
O261 Zn255 2.035 . S
O262 Zn255 2.028 . S
O262 C265 1.247 . S
O263 Zn257 2.035 . S
O263 C265 1.258 . S
C264 O258 1.247 . S
C264 O259 1.258 . S
C265 O262 1.247 . S
C265 O263 1.258 . S
C266 O268 1.247 . S
C266 O270 1.258 . S
C267 O274 1.247 . S
C267 O275 1.258 . S
O268 C266 1.247 . S
O268 Zn269 2.028 . S
Zn269 O268 2.028 . S
Zn269 O273 2.035 . S
Zn269 O275 2.035 . S
Zn269 O276 2.028 . S
O270 C266 1.258 . S
O270 Zn271 2.035 . S
Zn271 O270 2.035 . S
Zn271 O272 2.028 . S
Zn271 O274 2.028 . S
Zn271 O277 2.035 . S
O272 Zn271 2.028 . S
O272 C278 1.247 . S
O273 Zn269 2.035 . S
O273 C278 1.258 . S
O274 C267 1.247 . S
O274 Zn271 2.028 . S
O275 C267 1.258 . S
O275 Zn269 2.035 . S
O276 Zn269 2.028 . S
O276 C279 1.247 . S
O277 Zn271 2.035 . S
O277 C279 1.258 . S
C278 O272 1.247 . S
C278 O273 1.258 . S
C279 O276 1.247 . S
C279 O277 1.258 . S
C280 O282 1.247 . S
C280 O284 1.258 . S
C281 O288 1.247 . S
C281 O289 1.258 . S
O282 C280 1.247 . S
O282 Zn283 2.028 . S
Zn283 O282 2.028 . S
Zn283 O287 2.035 . S
Zn283 O289 2.035 . S
Zn283 O290 2.028 . S
O284 C280 1.258 . S
O284 Zn285 2.035 . S
Zn285 O284 2.035 . S
Zn285 O286 2.028 . S
Zn285 O288 2.028 . S
Zn285 O291 2.035 . S
O286 Zn285 2.028 . S
O286 C292 1.247 . S
O287 Zn283 2.035 . S
O287 C292 1.258 . S
O288 C281 1.247 . S
O288 Zn285 2.028 . S
O289 C281 1.258 . S
O289 Zn283 2.035 . S
O290 Zn283 2.028 . S
O290 C293 1.247 . S
O291 Zn285 2.035 . S
O291 C293 1.258 . S
C292 O286 1.247 . S
C292 O287 1.258 . S
C293 O290 1.247 . S
C293 O291 1.258 . S
C294 O296 1.247 . S
C294 O298 1.258 . S
C295 O302 1.247 . S
C295 O303 1.258 . S
O296 C294 1.247 . S
O296 Zn297 2.028 . S
Zn297 O296 2.028 . S
Zn297 O301 2.035 . S
Zn297 O303 2.035 . S
Zn297 O304 2.028 . S
O298 C294 1.258 . S
O298 Zn299 2.035 . S
Zn299 O298 2.035 . S
Zn299 O300 2.028 . S
Zn299 O302 2.028 . S
Zn299 O305 2.035 . S
O300 Zn299 2.028 . S
O300 C306 1.247 . S
O301 Zn297 2.035 . S
O301 C306 1.258 . S
O302 C295 1.247 . S
O302 Zn299 2.028 . S
O303 C295 1.258 . S
O303 Zn297 2.035 . S
O304 Zn297 2.028 . S
O304 C307 1.247 . S
O305 Zn299 2.035 . S
O305 C307 1.258 . S
C306 O300 1.247 . S
C306 O301 1.258 . S
C307 O304 1.247 . S
C307 O305 1.258 . S
C308 O310 1.247 . S
C308 O312 1.258 . S
C309 O316 1.247 . S
C309 O317 1.258 . S
O310 C308 1.247 . S
O310 Zn311 2.028 . S
Zn311 O310 2.028 . S
Zn311 O315 2.035 . S
Zn311 O317 2.035 . S
Zn311 O318 2.028 . S
O312 C308 1.258 . S
O312 Zn313 2.035 . S
Zn313 O312 2.035 . S
Zn313 O314 2.028 . S
Zn313 O316 2.028 . S
Zn313 O319 2.035 . S
O314 Zn313 2.028 . S
O314 C320 1.247 . S
O315 Zn311 2.035 . S
O315 C320 1.258 . S
O316 C309 1.247 . S
O316 Zn313 2.028 . S
O317 C309 1.258 . S
O317 Zn311 2.035 . S
O318 Zn311 2.028 . S
O318 C321 1.247 . S
O319 Zn313 2.035 . S
O319 C321 1.258 . S
C320 O314 1.247 . S
C320 O315 1.258 . S
C321 O318 1.247 . S
C321 O319 1.258 . S
C322 O324 1.247 . S
C322 O326 1.258 . S
C323 O330 1.247 . S
C323 O331 1.258 . S
O324 C322 1.247 . S
O324 Zn325 2.028 . S
Zn325 O324 2.028 . S
Zn325 O329 2.035 . S
Zn325 O331 2.035 . S
Zn325 O332 2.028 . S
O326 C322 1.258 . S
O326 Zn327 2.035 . S
Zn327 O326 2.035 . S
Zn327 O328 2.028 . S
Zn327 O330 2.028 . S
Zn327 O333 2.035 . S
O328 Zn327 2.028 . S
O328 C334 1.247 . S
O329 Zn325 2.035 . S
O329 C334 1.258 . S
O330 C323 1.247 . S
O330 Zn327 2.028 . S
O331 C323 1.258 . S
O331 Zn325 2.035 . S
O332 Zn325 2.028 . S
O332 C335 1.247 . S
O333 Zn327 2.035 . S
O333 C335 1.258 . S
C334 O328 1.247 . S
C334 O329 1.258 . S
C335 O332 1.247 . S
C335 O333 1.258 . S
C336 O338 1.247 . S
C336 O340 1.258 . S
C337 O344 1.247 . S
C337 O345 1.258 . S
O338 C336 1.247 . S
O338 Zn339 2.028 . S
Zn339 O338 2.028 . S
Zn339 O343 2.035 . S
Zn339 O345 2.035 . S
Zn339 O346 2.028 . S
O340 C336 1.258 . S
O340 Zn341 2.035 . S
Zn341 O340 2.035 . S
Zn341 O342 2.028 . S
Zn341 O344 2.028 . S
Zn341 O347 2.035 . S
O342 Zn341 2.028 . S
O342 C348 1.247 . S
O343 Zn339 2.035 . S
O343 C348 1.258 . S
O344 C337 1.247 . S
O344 Zn341 2.028 . S
O345 C337 1.258 . S
O345 Zn339 2.035 . S
O346 Zn339 2.028 . S
O346 C349 1.247 . S
O347 Zn341 2.035 . S
O347 C349 1.258 . S
C348 O342 1.247 . S
C348 O343 1.258 . S
C349 O346 1.247 . S
C349 O347 1.258 . S
C350 O352 1.247 . S
C350 O354 1.258 . S
C351 O358 1.247 . S
C351 O359 1.258 . S
O352 C350 1.247 . S
O352 Zn353 2.028 . S
Zn353 O352 2.028 . S
Zn353 O357 2.035 . S
Zn353 O359 2.035 . S
Zn353 O360 2.028 . S
O354 C350 1.258 . S
O354 Zn355 2.035 . S
Zn355 O354 2.035 . S
Zn355 O356 2.028 . S
Zn355 O358 2.028 . S
Zn355 O361 2.035 . S
O356 Zn355 2.028 . S
O356 C362 1.247 . S
O357 Zn353 2.035 . S
O357 C362 1.258 . S
O358 C351 1.247 . S
O358 Zn355 2.028 . S
O359 C351 1.258 . S
O359 Zn353 2.035 . S
O360 Zn353 2.028 . S
O360 C363 1.247 . S
O361 Zn355 2.035 . S
O361 C363 1.258 . S
C362 O356 1.247 . S
C362 O357 1.258 . S
C363 O360 1.247 . S
C363 O361 1.258 . S
C364 O366 1.247 . S
C364 O368 1.258 . S
C365 O372 1.247 . S
C365 O373 1.258 . S
O366 C364 1.247 . S
O366 Zn367 2.028 . S
Zn367 O366 2.028 . S
Zn367 O371 2.035 . S
Zn367 O373 2.035 . S
Zn367 O374 2.028 . S
O368 C364 1.258 . S
O368 Zn369 2.035 . S
Zn369 O368 2.035 . S
Zn369 O370 2.028 . S
Zn369 O372 2.028 . S
Zn369 O375 2.035 . S
O370 Zn369 2.028 . S
O370 C376 1.247 . S
O371 Zn367 2.035 . S
O371 C376 1.258 . S
O372 C365 1.247 . S
O372 Zn369 2.028 . S
O373 C365 1.258 . S
O373 Zn367 2.035 . S
O374 Zn367 2.028 . S
O374 C377 1.247 . S
O375 Zn369 2.035 . S
O375 C377 1.258 . S
C376 O370 1.247 . S
C376 O371 1.258 . S
C377 O374 1.247 . S
C377 O375 1.258 . S
C378 O380 1.247 . S
C378 O382 1.258 . S
C379 O386 1.247 . S
C379 O387 1.258 . S
O380 C378 1.247 . S
O380 Zn381 2.028 . S
Zn381 O380 2.028 . S
Zn381 O385 2.035 . S
Zn381 O387 2.035 . S
Zn381 O388 2.028 . S
O382 C378 1.258 . S
O382 Zn383 2.035 . S
Zn383 O382 2.035 . S
Zn383 O384 2.028 . S
Zn383 O386 2.028 . S
Zn383 O389 2.035 . S
O384 Zn383 2.028 . S
O384 C390 1.247 . S
O385 Zn381 2.035 . S
O385 C390 1.258 . S
O386 C379 1.247 . S
O386 Zn383 2.028 . S
O387 C379 1.258 . S
O387 Zn381 2.035 . S
O388 Zn381 2.028 . S
O388 C391 1.247 . S
O389 Zn383 2.035 . S
O389 C391 1.258 . S
C390 O384 1.247 . S
C390 O385 1.258 . S
C391 O388 1.247 . S
C391 O389 1.258 . S
C392 O394 1.247 . S
C392 O396 1.258 . S
C393 O400 1.247 . S
C393 O401 1.258 . S
O394 C392 1.247 . S
O394 Zn395 2.028 . S
Zn395 O394 2.028 . S
Zn395 O399 2.035 . S
Zn395 O401 2.035 . S
Zn395 O402 2.028 . S
O396 C392 1.258 . S
O396 Zn397 2.035 . S
Zn397 O396 2.035 . S
Zn397 O398 2.028 . S
Zn397 O400 2.028 . S
Zn397 O403 2.035 . S
O398 Zn397 2.028 . S
O398 C404 1.247 . S
O399 Zn395 2.035 . S
O399 C404 1.258 . S
O400 C393 1.247 . S
O400 Zn397 2.028 . S
O401 C393 1.258 . S
O401 Zn395 2.035 . S
O402 Zn395 2.028 . S
O402 C405 1.247 . S
O403 Zn397 2.035 . S
O403 C405 1.258 . S
C404 O398 1.247 . S
C404 O399 1.258 . S
C405 O402 1.247 . S
C405 O403 1.258 . S
C406 O408 1.247 . S
C406 O410 1.258 . S
C407 O414 1.247 . S
C407 O415 1.258 . S
O408 C406 1.247 . S
O408 Zn409 2.028 . S
Zn409 O408 2.028 . S
Zn409 O413 2.035 . S
Zn409 O415 2.035 . S
Zn409 O416 2.028 . S
O410 C406 1.258 . S
O410 Zn411 2.035 . S
Zn411 O410 2.035 . S
Zn411 O412 2.028 . S
Zn411 O414 2.028 . S
Zn411 O417 2.035 . S
O412 Zn411 2.028 . S
O412 C418 1.247 . S
O413 Zn409 2.035 . S
O413 C418 1.258 . S
O414 C407 1.247 . S
O414 Zn411 2.028 . S
O415 C407 1.258 . S
O415 Zn409 2.035 . S
O416 Zn409 2.028 . S
O416 C419 1.247 . S
O417 Zn411 2.035 . S
O417 C419 1.258 . S
C418 O412 1.247 . S
C418 O413 1.258 . S
C419 O416 1.247 . S
C419 O417 1.258 . S
C420 O422 1.247 . S
C420 O424 1.258 . S
C421 O428 1.247 . S
C421 O429 1.258 . S
O422 C420 1.247 . S
O422 Zn423 2.028 . S
Zn423 O422 2.028 . S
Zn423 O427 2.035 . S
Zn423 O429 2.035 . S
Zn423 O430 2.028 . S
O424 C420 1.258 . S
O424 Zn425 2.035 . S
Zn425 O424 2.035 . S
Zn425 O426 2.028 . S
Zn425 O428 2.028 . S
Zn425 O431 2.035 . S
O426 Zn425 2.028 . S
O426 C432 1.247 . S
O427 Zn423 2.035 . S
O427 C432 1.258 . S
O428 C421 1.247 . S
O428 Zn425 2.028 . S
O429 C421 1.258 . S
O429 Zn423 2.035 . S
O430 Zn423 2.028 . S
O430 C433 1.247 . S
O431 Zn425 2.035 . S
O431 C433 1.258 . S
C432 O426 1.247 . S
C432 O427 1.258 . S
C433 O430 1.247 . S
C433 O431 1.258 . S
C434 O436 1.247 . S
C434 O438 1.258 . S
C435 O442 1.247 . S
C435 O443 1.258 . S
O436 C434 1.247 . S
O436 Zn437 2.028 . S
Zn437 O436 2.028 . S
Zn437 O441 2.035 . S
Zn437 O443 2.035 . S
Zn437 O444 2.028 . S
O438 C434 1.258 . S
O438 Zn439 2.035 . S
Zn439 O438 2.035 . S
Zn439 O440 2.028 . S
Zn439 O442 2.028 . S
Zn439 O445 2.035 . S
O440 Zn439 2.028 . S
O440 C446 1.247 . S
O441 Zn437 2.035 . S
O441 C446 1.258 . S
O442 C435 1.247 . S
O442 Zn439 2.028 . S
O443 C435 1.258 . S
O443 Zn437 2.035 . S
O444 Zn437 2.028 . S
O444 C447 1.247 . S
O445 Zn439 2.035 . S
O445 C447 1.258 . S
C446 O440 1.247 . S
C446 O441 1.258 . S
C447 O444 1.247 . S
C447 O445 1.258 . S
H448 C466 0.951 . S
H449 C468 0.951 . S
H450 C470 0.950 . S
H451 C471 0.950 . S
H452 C473 0.950 . S
H453 C476 0.950 . S
H454 C477 0.950 . S
H455 C479 0.950 . S
H456 C480 0.950 . S
H457 C481 0.951 . S
H458 C483 0.951 . S
H459 C485 0.950 . S
H460 C486 0.950 . S
H461 C488 0.950 . S
H462 C491 0.950 . S
H463 C492 0.950 . S
H464 C494 0.950 . S
H465 C495 0.950 . S
C466 H448 0.951 . S
C466 C467 1.366 . S
C466 C468 1.388 . S
C467 C466 1.366 . S
C467 C471 1.385 . S
C468 H449 0.951 . S
C468 C466 1.388 . S
C468 C469 1.366 . S
C469 C468 1.366 . S
C469 C470 1.414 . S
C469 C472 1.499 . S
C470 H450 0.950 . S
C470 C469 1.414 . S
C470 C471 1.374 . S
C471 H451 0.950 . S
C471 C467 1.385 . S
C471 C470 1.374 . S
C472 C469 1.499 . S
C472 C473 1.373 . S
C472 C474 1.389 . S
C473 H452 0.950 . S
C473 C472 1.373 . S
C473 C489 1.377 . S
C474 C472 1.389 . S
C474 C475 1.524 . S
C474 C488 1.377 . S
C475 C474 1.524 . S
C475 C476 1.397 . S
C475 C480 1.363 . S
C476 H453 0.950 . S
C476 C475 1.397 . S
C476 C477 1.334 . S
C477 H454 0.950 . S
C477 C476 1.334 . S
C477 C478 1.287 . S
C478 C477 1.287 . S
C478 C479 1.524 . S
C478 H497 0.913 . S
C479 H455 0.950 . S
C479 C478 1.524 . S
C479 C480 1.415 . S
C480 H456 0.950 . S
C480 C475 1.363 . S
C480 C479 1.415 . S
C481 H457 0.951 . S
C481 C482 1.366 . S
C481 C483 1.388 . S
C482 C481 1.366 . S
C482 C486 1.385 . S
C483 H458 0.951 . S
C483 C481 1.388 . S
C483 C484 1.366 . S
C484 C483 1.366 . S
C484 C485 1.414 . S
C484 C487 1.499 . S
C485 H459 0.950 . S
C485 C484 1.414 . S
C485 C486 1.374 . S
C486 H460 0.950 . S
C486 C482 1.385 . S
C486 C485 1.374 . S
C487 C484 1.499 . S
C487 C488 1.373 . S
C487 C489 1.389 . S
C488 H461 0.950 . S
C488 C474 1.377 . S
C488 C487 1.373 . S
C489 C473 1.377 . S
C489 C487 1.389 . S
C489 C490 1.524 . S
C490 C489 1.524 . S
C490 C491 1.397 . S
C490 C495 1.363 . S
C491 H462 0.950 . S
C491 C490 1.397 . S
C491 C492 1.334 . S
C492 H463 0.950 . S
C492 C491 1.334 . S
C492 C493 1.287 . S
C493 C492 1.287 . S
C493 C494 1.524 . S
C493 H496 0.999 . S
C494 H464 0.950 . S
C494 C493 1.524 . S
C494 C495 1.415 . S
C495 H465 0.950 . S
C495 C490 1.363 . S
C495 C494 1.415 . S
H496 C493 0.999 . S
H497 C478 0.913 . S
H498 C516 0.951 . S
H499 C518 0.951 1_655 S
H500 C520 0.950 . S
H501 C521 0.950 . S
H502 C523 0.950 . S
H503 C526 0.950 . S
H504 C527 0.950 1_545 S
H505 C529 0.950 . S
H506 C530 0.950 . S
H507 C531 0.951 . S
H508 C533 0.951 . S
H509 C535 0.950 . S
H510 C536 0.950 . S
H511 C538 0.950 . S
H512 C541 0.950 . S
H513 C542 0.950 . S
H514 C544 0.950 . S
H515 C545 0.950 . S
C516 H498 0.951 . S
C516 C517 1.366 . S
C516 C518 1.388 . S
C517 C516 1.366 . S
C517 C521 1.385 . S
C518 H499 0.951 1_455 S
C518 C516 1.388 . S
C518 C519 1.366 . S
C519 C518 1.366 . S
C519 C520 1.414 . S
C519 C522 1.499 1_455 S
C520 H500 0.950 . S
C520 C519 1.414 . S
C520 C521 1.374 . S
C521 H501 0.950 . S
C521 C517 1.385 . S
C521 C520 1.374 . S
C522 C519 1.499 1_655 S
C522 C523 1.373 . S
C522 C524 1.389 . S
C523 H502 0.950 . S
C523 C522 1.373 . S
C523 C539 1.377 . S
C524 C522 1.389 . S
C524 C525 1.524 . S
C524 C538 1.377 . S
C525 C524 1.524 . S
C525 C526 1.397 . S
C525 C530 1.363 . S
C526 H503 0.950 . S
C526 C525 1.397 . S
C526 C527 1.334 . S
C527 H504 0.950 1_565 S
C527 C526 1.334 . S
C527 C528 1.287 . S
C528 C527 1.287 . S
C528 C529 1.524 . S
C528 H547 0.913 1_565 S
C529 H505 0.950 . S
C529 C528 1.524 . S
C529 C530 1.415 . S
C530 H506 0.950 . S
C530 C525 1.363 . S
C530 C529 1.415 . S
C531 H507 0.951 . S
C531 C532 1.366 . S
C531 C533 1.388 . S
C532 C531 1.366 . S
C532 C536 1.385 . S
C533 H508 0.951 . S
C533 C531 1.388 . S
C533 C534 1.366 . S
C534 C533 1.366 . S
C534 C535 1.414 . S
C534 C537 1.499 . S
C535 H509 0.950 . S
C535 C534 1.414 . S
C535 C536 1.374 . S
C536 H510 0.950 . S
C536 C532 1.385 . S
C536 C535 1.374 . S
C537 C534 1.499 . S
C537 C538 1.373 . S
C537 C539 1.389 . S
C538 H511 0.950 . S
C538 C524 1.377 . S
C538 C537 1.373 . S
C539 C523 1.377 . S
C539 C537 1.389 . S
C539 C540 1.524 . S
C540 C539 1.524 . S
C540 C541 1.397 . S
C540 C545 1.363 . S
C541 H512 0.950 . S
C541 C540 1.397 . S
C541 C542 1.334 . S
C542 H513 0.950 . S
C542 C541 1.334 . S
C542 C543 1.287 . S
C543 C542 1.287 . S
C543 C544 1.524 . S
C543 H546 0.999 . S
C544 H514 0.950 . S
C544 C543 1.524 . S
C544 C545 1.415 . S
C545 H515 0.950 . S
C545 C540 1.363 . S
C545 C544 1.415 . S
H546 C543 0.999 . S
H547 C528 0.913 1_545 S
H548 C566 0.951 . S
H549 C568 0.951 . S
H550 C570 0.950 . S
H551 C571 0.950 . S
H552 C573 0.950 . S
H553 C576 0.950 . S
H554 C577 0.950 . S
H555 C579 0.950 . S
H556 C580 0.950 . S
H557 C581 0.951 . S
H558 C583 0.951 . S
H559 C585 0.950 . S
H560 C586 0.950 . S
H561 C588 0.950 . S
H562 C591 0.950 . S
H563 C592 0.950 . S
H564 C594 0.950 . S
H565 C595 0.950 . S
C566 H548 0.951 . S
C566 C567 1.366 . S
C566 C568 1.388 . S
C567 C566 1.366 . S
C567 C571 1.385 . S
C568 H549 0.951 . S
C568 C566 1.388 . S
C568 C569 1.366 . S
C569 C568 1.366 . S
C569 C570 1.414 . S
C569 C572 1.499 . S
C570 H550 0.950 . S
C570 C569 1.414 . S
C570 C571 1.374 . S
C571 H551 0.950 . S
C571 C567 1.385 . S
C571 C570 1.374 . S
C572 C569 1.499 . S
C572 C573 1.373 . S
C572 C574 1.389 . S
C573 H552 0.950 . S
C573 C572 1.373 . S
C573 C589 1.377 . S
C574 C572 1.389 . S
C574 C575 1.524 . S
C574 C588 1.377 . S
C575 C574 1.524 . S
C575 C576 1.397 . S
C575 C580 1.363 . S
C576 H553 0.950 . S
C576 C575 1.397 . S
C576 C577 1.334 . S
C577 H554 0.950 . S
C577 C576 1.334 . S
C577 C578 1.287 . S
C578 C577 1.287 . S
C578 C579 1.524 . S
C578 H597 0.913 . S
C579 H555 0.950 . S
C579 C578 1.524 . S
C579 C580 1.415 . S
C580 H556 0.950 . S
C580 C575 1.363 . S
C580 C579 1.415 . S
C581 H557 0.951 . S
C581 C582 1.366 . S
C581 C583 1.388 . S
C582 C581 1.366 . S
C582 C586 1.385 . S
C583 H558 0.951 . S
C583 C581 1.388 . S
C583 C584 1.366 . S
C584 C583 1.366 . S
C584 C585 1.414 . S
C584 C587 1.499 . S
C585 H559 0.950 . S
C585 C584 1.414 . S
C585 C586 1.374 . S
C586 H560 0.950 . S
C586 C582 1.385 . S
C586 C585 1.374 . S
C587 C584 1.499 . S
C587 C588 1.373 . S
C587 C589 1.389 . S
C588 H561 0.950 . S
C588 C574 1.377 . S
C588 C587 1.373 . S
C589 C573 1.377 . S
C589 C587 1.389 . S
C589 C590 1.524 . S
C590 C589 1.524 . S
C590 C591 1.397 . S
C590 C595 1.363 . S
C591 H562 0.950 . S
C591 C590 1.397 . S
C591 C592 1.334 . S
C592 H563 0.950 . S
C592 C591 1.334 . S
C592 C593 1.287 . S
C593 C592 1.287 . S
C593 C594 1.524 . S
C593 H596 0.999 . S
C594 H564 0.950 . S
C594 C593 1.524 . S
C594 C595 1.415 . S
C595 H565 0.950 . S
C595 C590 1.363 . S
C595 C594 1.415 . S
H596 C593 0.999 . S
H597 C578 0.913 . S
H598 C616 0.951 . S
H599 C618 0.951 . S
H600 C620 0.950 . S
H601 C621 0.950 . S
H602 C623 0.950 . S
H603 C626 0.950 . S
H604 C627 0.950 . S
H605 C629 0.950 . S
H606 C630 0.950 . S
H607 C631 0.951 . S
H608 C633 0.951 . S
H609 C635 0.950 . S
H610 C636 0.950 . S
H611 C638 0.950 . S
H612 C641 0.950 . S
H613 C642 0.950 . S
H614 C644 0.950 1_565 S
H615 C645 0.950 . S
C616 H598 0.951 . S
C616 C617 1.366 . S
C616 C618 1.388 . S
C617 C616 1.366 . S
C617 C621 1.385 . S
C618 H599 0.951 . S
C618 C616 1.388 . S
C618 C619 1.366 . S
C619 C618 1.366 . S
C619 C620 1.414 . S
C619 C622 1.499 . S
C620 H600 0.950 . S
C620 C619 1.414 . S
C620 C621 1.374 . S
C621 H601 0.950 . S
C621 C617 1.385 . S
C621 C620 1.374 . S
C622 C619 1.499 . S
C622 C623 1.373 . S
C622 C624 1.389 . S
C623 H602 0.950 . S
C623 C622 1.373 . S
C623 C639 1.377 . S
C624 C622 1.389 . S
C624 C625 1.524 . S
C624 C638 1.377 . S
C625 C624 1.524 . S
C625 C626 1.397 . S
C625 C630 1.363 . S
C626 H603 0.950 . S
C626 C625 1.397 . S
C626 C627 1.334 . S
C627 H604 0.950 . S
C627 C626 1.334 . S
C627 C628 1.287 . S
C628 C627 1.287 . S
C628 C629 1.524 . S
C628 H647 0.913 . S
C629 H605 0.950 . S
C629 C628 1.524 . S
C629 C630 1.415 . S
C630 H606 0.950 . S
C630 C625 1.363 . S
C630 C629 1.415 . S
C631 H607 0.951 . S
C631 C632 1.366 . S
C631 C633 1.388 . S
C632 C631 1.366 . S
C632 C636 1.385 . S
C633 H608 0.951 . S
C633 C631 1.388 . S
C633 C634 1.366 . S
C634 C633 1.366 . S
C634 C635 1.414 . S
C634 C637 1.499 . S
C635 H609 0.950 . S
C635 C634 1.414 . S
C635 C636 1.374 . S
C636 H610 0.950 . S
C636 C632 1.385 . S
C636 C635 1.374 . S
C637 C634 1.499 . S
C637 C638 1.373 . S
C637 C639 1.389 . S
C638 H611 0.950 . S
C638 C624 1.377 . S
C638 C637 1.373 . S
C639 C623 1.377 . S
C639 C637 1.389 . S
C639 C640 1.524 . S
C640 C639 1.524 . S
C640 C641 1.397 . S
C640 C645 1.363 . S
C641 H612 0.950 . S
C641 C640 1.397 . S
C641 C642 1.334 . S
C642 H613 0.950 . S
C642 C641 1.334 . S
C642 C643 1.287 . S
C643 C642 1.287 . S
C643 C644 1.524 . S
C643 H646 0.999 1_545 S
C644 H614 0.950 1_545 S
C644 C643 1.524 . S
C644 C645 1.415 . S
C645 H615 0.950 . S
C645 C640 1.363 . S
C645 C644 1.415 . S
H646 C643 0.999 1_565 S
H647 C628 0.913 . S
H648 C666 0.951 . S
H649 C668 0.951 . S
H650 C670 0.950 . S
H651 C671 0.950 . S
H652 C673 0.950 . S
H653 C676 0.950 . S
H654 C677 0.950 . S
H655 C679 0.950 . S
H656 C680 0.950 . S
H657 C681 0.951 . S
H658 C683 0.951 . S
H659 C685 0.950 . S
H660 C686 0.950 . S
H661 C688 0.950 . S
H662 C691 0.950 . S
H663 C692 0.950 . S
H664 C694 0.950 . S
H665 C695 0.950 . S
C666 H648 0.951 . S
C666 C667 1.366 . S
C666 C668 1.388 . S
C667 C666 1.366 . S
C667 C671 1.385 . S
C668 H649 0.951 . S
C668 C666 1.388 . S
C668 C669 1.366 . S
C669 C668 1.366 . S
C669 C670 1.414 . S
C669 C672 1.499 . S
C670 H650 0.950 . S
C670 C669 1.414 . S
C670 C671 1.374 . S
C671 H651 0.950 . S
C671 C667 1.385 . S
C671 C670 1.374 . S
C672 C669 1.499 . S
C672 C673 1.373 . S
C672 C674 1.389 . S
C673 H652 0.950 . S
C673 C672 1.373 . S
C673 C689 1.377 . S
C674 C672 1.389 . S
C674 C675 1.524 . S
C674 C688 1.377 . S
C675 C674 1.524 . S
C675 C676 1.397 . S
C675 C680 1.363 . S
C676 H653 0.950 . S
C676 C675 1.397 . S
C676 C677 1.334 . S
C677 H654 0.950 . S
C677 C676 1.334 . S
C677 C678 1.287 . S
C678 C677 1.287 . S
C678 C679 1.524 . S
C678 H697 0.913 . S
C679 H655 0.950 . S
C679 C678 1.524 . S
C679 C680 1.415 . S
C680 H656 0.950 . S
C680 C675 1.363 . S
C680 C679 1.415 . S
C681 H657 0.951 . S
C681 C682 1.366 . S
C681 C683 1.388 . S
C682 C681 1.366 . S
C682 C686 1.385 . S
C683 H658 0.951 . S
C683 C681 1.388 . S
C683 C684 1.366 . S
C684 C683 1.366 . S
C684 C685 1.414 . S
C684 C687 1.499 . S
C685 H659 0.950 . S
C685 C684 1.414 . S
C685 C686 1.374 . S
C686 H660 0.950 . S
C686 C682 1.385 . S
C686 C685 1.374 . S
C687 C684 1.499 . S
C687 C688 1.373 . S
C687 C689 1.389 . S
C688 H661 0.950 . S
C688 C674 1.377 . S
C688 C687 1.373 . S
C689 C673 1.377 . S
C689 C687 1.389 . S
C689 C690 1.524 . S
C690 C689 1.524 . S
C690 C691 1.397 . S
C690 C695 1.363 . S
C691 H662 0.950 . S
C691 C690 1.397 . S
C691 C692 1.334 . S
C692 H663 0.950 . S
C692 C691 1.334 . S
C692 C693 1.287 . S
C693 C692 1.287 . S
C693 C694 1.524 . S
C693 H696 0.999 . S
C694 H664 0.950 . S
C694 C693 1.524 . S
C694 C695 1.415 . S
C695 H665 0.950 . S
C695 C690 1.363 . S
C695 C694 1.415 . S
H696 C693 0.999 . S
H697 C678 0.913 . S
H698 C716 0.951 . S
H699 C718 0.951 . S
H700 C720 0.950 . S
H701 C721 0.950 . S
H702 C723 0.950 . S
H703 C726 0.950 . S
H704 C727 0.950 1_545 S
H705 C729 0.950 . S
H706 C730 0.950 . S
H707 C731 0.951 . S
H708 C733 0.951 . S
H709 C735 0.950 . S
H710 C736 0.950 . S
H711 C738 0.950 . S
H712 C741 0.950 . S
H713 C742 0.950 . S
H714 C744 0.950 . S
H715 C745 0.950 . S
C716 H698 0.951 . S
C716 C717 1.366 . S
C716 C718 1.388 . S
C717 C716 1.366 . S
C717 C721 1.385 . S
C718 H699 0.951 . S
C718 C716 1.388 . S
C718 C719 1.366 . S
C719 C718 1.366 . S
C719 C720 1.414 . S
C719 C722 1.499 . S
C720 H700 0.950 . S
C720 C719 1.414 . S
C720 C721 1.374 . S
C721 H701 0.950 . S
C721 C717 1.385 . S
C721 C720 1.374 . S
C722 C719 1.499 . S
C722 C723 1.373 . S
C722 C724 1.389 . S
C723 H702 0.950 . S
C723 C722 1.373 . S
C723 C739 1.377 . S
C724 C722 1.389 . S
C724 C725 1.524 . S
C724 C738 1.377 . S
C725 C724 1.524 . S
C725 C726 1.397 . S
C725 C730 1.363 . S
C726 H703 0.950 . S
C726 C725 1.397 . S
C726 C727 1.334 . S
C727 H704 0.950 1_565 S
C727 C726 1.334 . S
C727 C728 1.287 . S
C728 C727 1.287 . S
C728 C729 1.524 . S
C728 H747 0.913 1_565 S
C729 H705 0.950 . S
C729 C728 1.524 . S
C729 C730 1.415 . S
C730 H706 0.950 . S
C730 C725 1.363 . S
C730 C729 1.415 . S
C731 H707 0.951 . S
C731 C732 1.366 . S
C731 C733 1.388 . S
C732 C731 1.366 . S
C732 C736 1.385 . S
C733 H708 0.951 . S
C733 C731 1.388 . S
C733 C734 1.366 . S
C734 C733 1.366 . S
C734 C735 1.414 . S
C734 C737 1.499 . S
C735 H709 0.950 . S
C735 C734 1.414 . S
C735 C736 1.374 . S
C736 H710 0.950 . S
C736 C732 1.385 . S
C736 C735 1.374 . S
C737 C734 1.499 . S
C737 C738 1.373 . S
C737 C739 1.389 . S
C738 H711 0.950 . S
C738 C724 1.377 . S
C738 C737 1.373 . S
C739 C723 1.377 . S
C739 C737 1.389 . S
C739 C740 1.524 . S
C740 C739 1.524 . S
C740 C741 1.397 . S
C740 C745 1.363 . S
C741 H712 0.950 . S
C741 C740 1.397 . S
C741 C742 1.334 . S
C742 H713 0.950 . S
C742 C741 1.334 . S
C742 C743 1.287 . S
C743 C742 1.287 . S
C743 C744 1.524 . S
C743 H746 0.999 . S
C744 H714 0.950 . S
C744 C743 1.524 . S
C744 C745 1.415 . S
C745 H715 0.950 . S
C745 C740 1.363 . S
C745 C744 1.415 . S
H746 C743 0.999 . S
H747 C728 0.913 1_545 S
H748 C766 0.951 . S
H749 C768 0.951 . S
H750 C770 0.950 . S
H751 C771 0.950 . S
H752 C773 0.950 . S
H753 C776 0.950 . S
H754 C777 0.950 . S
H755 C779 0.950 . S
H756 C780 0.950 . S
H757 C781 0.951 . S
H758 C783 0.951 . S
H759 C785 0.950 . S
H760 C786 0.950 . S
H761 C788 0.950 . S
H762 C791 0.950 . S
H763 C792 0.950 . S
H764 C794 0.950 . S
H765 C795 0.950 . S
C766 H748 0.951 . S
C766 C767 1.366 . S
C766 C768 1.388 . S
C767 C766 1.366 . S
C767 C771 1.385 . S
C768 H749 0.951 . S
C768 C766 1.388 . S
C768 C769 1.366 . S
C769 C768 1.366 . S
C769 C770 1.414 . S
C769 C772 1.499 . S
C770 H750 0.950 . S
C770 C769 1.414 . S
C770 C771 1.374 . S
C771 H751 0.950 . S
C771 C767 1.385 . S
C771 C770 1.374 . S
C772 C769 1.499 . S
C772 C773 1.373 . S
C772 C774 1.389 . S
C773 H752 0.950 . S
C773 C772 1.373 . S
C773 C789 1.377 . S
C774 C772 1.389 . S
C774 C775 1.524 . S
C774 C788 1.377 . S
C775 C774 1.524 . S
C775 C776 1.397 . S
C775 C780 1.363 . S
C776 H753 0.950 . S
C776 C775 1.397 . S
C776 C777 1.334 . S
C777 H754 0.950 . S
C777 C776 1.334 . S
C777 C778 1.287 . S
C778 C777 1.287 . S
C778 C779 1.524 . S
C778 H797 0.913 . S
C779 H755 0.950 . S
C779 C778 1.524 . S
C779 C780 1.415 . S
C780 H756 0.950 . S
C780 C775 1.363 . S
C780 C779 1.415 . S
C781 H757 0.951 . S
C781 C782 1.366 . S
C781 C783 1.388 . S
C782 C781 1.366 . S
C782 C786 1.385 . S
C783 H758 0.951 . S
C783 C781 1.388 . S
C783 C784 1.366 . S
C784 C783 1.366 . S
C784 C785 1.414 . S
C784 C787 1.499 . S
C785 H759 0.950 . S
C785 C784 1.414 . S
C785 C786 1.374 . S
C786 H760 0.950 . S
C786 C782 1.385 . S
C786 C785 1.374 . S
C787 C784 1.499 . S
C787 C788 1.373 . S
C787 C789 1.389 . S
C788 H761 0.950 . S
C788 C774 1.377 . S
C788 C787 1.373 . S
C789 C773 1.377 . S
C789 C787 1.389 . S
C789 C790 1.524 . S
C790 C789 1.524 . S
C790 C791 1.397 . S
C790 C795 1.363 . S
C791 H762 0.950 . S
C791 C790 1.397 . S
C791 C792 1.334 . S
C792 H763 0.950 . S
C792 C791 1.334 . S
C792 C793 1.287 . S
C793 C792 1.287 . S
C793 C794 1.524 . S
C793 H796 0.999 . S
C794 H764 0.950 . S
C794 C793 1.524 . S
C794 C795 1.415 . S
C795 H765 0.950 . S
C795 C790 1.363 . S
C795 C794 1.415 . S
H796 C793 0.999 . S
H797 C778 0.913 . S
H798 C816 0.951 . S
H799 C818 0.951 . S
H800 C820 0.950 1_655 S
H801 C821 0.950 . S
H802 C823 0.950 . S
H803 C826 0.950 . S
H804 C827 0.950 . S
H805 C829 0.950 . S
H806 C830 0.950 1_655 S
H807 C831 0.951 . S
H808 C833 0.951 . S
H809 C835 0.950 . S
H810 C836 0.950 . S
H811 C838 0.950 . S
H812 C841 0.950 . S
H813 C842 0.950 . S
H814 C844 0.950 . S
H815 C845 0.950 . S
C816 H798 0.951 . S
C816 C817 1.366 . S
C816 C818 1.388 . S
C817 C816 1.366 . S
C817 C821 1.385 . S
C818 H799 0.951 . S
C818 C816 1.388 . S
C818 C819 1.366 . S
C819 C818 1.366 . S
C819 C820 1.414 . S
C819 C822 1.499 1_455 S
C820 H800 0.950 1_455 S
C820 C819 1.414 . S
C820 C821 1.374 . S
C821 H801 0.950 . S
C821 C817 1.385 . S
C821 C820 1.374 . S
C822 C819 1.499 1_655 S
C822 C823 1.373 . S
C822 C824 1.389 . S
C823 H802 0.950 . S
C823 C822 1.373 . S
C823 C839 1.377 . S
C824 C822 1.389 . S
C824 C825 1.524 1_655 S
C824 C838 1.377 . S
C825 C824 1.524 1_455 S
C825 C826 1.397 . S
C825 C830 1.363 . S
C826 H803 0.950 . S
C826 C825 1.397 . S
C826 C827 1.334 . S
C827 H804 0.950 . S
C827 C826 1.334 . S
C827 C828 1.287 . S
C828 C827 1.287 . S
C828 C829 1.524 . S
C828 H847 0.913 . S
C829 H805 0.950 . S
C829 C828 1.524 . S
C829 C830 1.415 . S
C830 H806 0.950 1_455 S
C830 C825 1.363 . S
C830 C829 1.415 . S
C831 H807 0.951 . S
C831 C832 1.366 . S
C831 C833 1.388 . S
C832 C831 1.366 . S
C832 C836 1.385 . S
C833 H808 0.951 . S
C833 C831 1.388 . S
C833 C834 1.366 . S
C834 C833 1.366 . S
C834 C835 1.414 . S
C834 C837 1.499 . S
C835 H809 0.950 . S
C835 C834 1.414 . S
C835 C836 1.374 . S
C836 H810 0.950 . S
C836 C832 1.385 . S
C836 C835 1.374 . S
C837 C834 1.499 . S
C837 C838 1.373 . S
C837 C839 1.389 . S
C838 H811 0.950 . S
C838 C824 1.377 . S
C838 C837 1.373 . S
C839 C823 1.377 . S
C839 C837 1.389 . S
C839 C840 1.524 . S
C840 C839 1.524 . S
C840 C841 1.397 . S
C840 C845 1.363 . S
C841 H812 0.950 . S
C841 C840 1.397 . S
C841 C842 1.334 . S
C842 H813 0.950 . S
C842 C841 1.334 . S
C842 C843 1.287 . S
C843 C842 1.287 . S
C843 C844 1.524 . S
C843 H846 0.999 . S
C844 H814 0.950 . S
C844 C843 1.524 . S
C844 C845 1.415 . S
C845 H815 0.950 . S
C845 C840 1.363 . S
C845 C844 1.415 . S
H846 C843 0.999 . S
H847 C828 0.913 . S
H848 C866 0.951 . S
H849 C868 0.951 . S
H850 C870 0.950 . S
H851 C871 0.950 . S
H852 C873 0.950 . S
H853 C876 0.950 . S
H854 C877 0.950 . S
H855 C879 0.950 . S
H856 C880 0.950 . S
H857 C881 0.951 . S
H858 C883 0.951 . S
H859 C885 0.950 . S
H860 C886 0.950 . S
H861 C888 0.950 . S
H862 C891 0.950 . S
H863 C892 0.950 . S
H864 C894 0.950 . S
H865 C895 0.950 . S
C866 H848 0.951 . S
C866 C867 1.366 . S
C866 C868 1.388 . S
C867 C866 1.366 . S
C867 C871 1.385 . S
C868 H849 0.951 . S
C868 C866 1.388 . S
C868 C869 1.366 . S
C869 C868 1.366 . S
C869 C870 1.414 . S
C869 C872 1.499 . S
C870 H850 0.950 . S
C870 C869 1.414 . S
C870 C871 1.374 . S
C871 H851 0.950 . S
C871 C867 1.385 . S
C871 C870 1.374 . S
C872 C869 1.499 . S
C872 C873 1.373 . S
C872 C874 1.389 . S
C873 H852 0.950 . S
C873 C872 1.373 . S
C873 C889 1.377 . S
C874 C872 1.389 . S
C874 C875 1.524 . S
C874 C888 1.377 . S
C875 C874 1.524 . S
C875 C876 1.397 . S
C875 C880 1.363 . S
C876 H853 0.950 . S
C876 C875 1.397 . S
C876 C877 1.334 . S
C877 H854 0.950 . S
C877 C876 1.334 . S
C877 C878 1.287 . S
C878 C877 1.287 . S
C878 C879 1.524 . S
C878 H897 0.913 . S
C879 H855 0.950 . S
C879 C878 1.524 . S
C879 C880 1.415 . S
C880 H856 0.950 . S
C880 C875 1.363 . S
C880 C879 1.415 . S
C881 H857 0.951 . S
C881 C882 1.366 . S
C881 C883 1.388 . S
C882 C881 1.366 . S
C882 C886 1.385 . S
C883 H858 0.951 . S
C883 C881 1.388 . S
C883 C884 1.366 . S
C884 C883 1.366 . S
C884 C885 1.414 . S
C884 C887 1.499 . S
C885 H859 0.950 . S
C885 C884 1.414 . S
C885 C886 1.374 . S
C886 H860 0.950 . S
C886 C882 1.385 . S
C886 C885 1.374 . S
C887 C884 1.499 . S
C887 C888 1.373 . S
C887 C889 1.389 . S
C888 H861 0.950 . S
C888 C874 1.377 . S
C888 C887 1.373 . S
C889 C873 1.377 . S
C889 C887 1.389 . S
C889 C890 1.524 . S
C890 C889 1.524 . S
C890 C891 1.397 . S
C890 C895 1.363 . S
C891 H862 0.950 . S
C891 C890 1.397 . S
C891 C892 1.334 . S
C892 H863 0.950 . S
C892 C891 1.334 . S
C892 C893 1.287 . S
C893 C892 1.287 . S
C893 C894 1.524 . S
C893 H896 0.999 . S
C894 H864 0.950 . S
C894 C893 1.524 . S
C894 C895 1.415 . S
C895 H865 0.950 . S
C895 C890 1.363 . S
C895 C894 1.415 . S
H896 C893 0.999 . S
H897 C878 0.913 . S
H898 C916 0.951 . S
H899 C918 0.951 . S
H900 C920 0.950 . S
H901 C921 0.950 . S
H902 C923 0.950 . S
H903 C926 0.950 . S
H904 C927 0.950 . S
H905 C929 0.950 . S
H906 C930 0.950 . S
H907 C931 0.951 . S
H908 C933 0.951 1_455 S
H909 C935 0.950 . S
H910 C936 0.950 . S
H911 C938 0.950 . S
H912 C941 0.950 . S
H913 C942 0.950 1_565 S
H914 C944 0.950 . S
H915 C945 0.950 . S
C916 H898 0.951 . S
C916 C917 1.366 . S
C916 C918 1.388 . S
C917 C916 1.366 . S
C917 C921 1.385 . S
C918 H899 0.951 . S
C918 C916 1.388 . S
C918 C919 1.366 . S
C919 C918 1.366 . S
C919 C920 1.414 . S
C919 C922 1.499 . S
C920 H900 0.950 . S
C920 C919 1.414 . S
C920 C921 1.374 . S
C921 H901 0.950 . S
C921 C917 1.385 . S
C921 C920 1.374 . S
C922 C919 1.499 . S
C922 C923 1.373 . S
C922 C924 1.389 . S
C923 H902 0.950 . S
C923 C922 1.373 . S
C923 C939 1.377 . S
C924 C922 1.389 . S
C924 C925 1.524 . S
C924 C938 1.377 . S
C925 C924 1.524 . S
C925 C926 1.397 . S
C925 C930 1.363 . S
C926 H903 0.950 . S
C926 C925 1.397 . S
C926 C927 1.334 . S
C927 H904 0.950 . S
C927 C926 1.334 . S
C927 C928 1.287 . S
C928 C927 1.287 . S
C928 C929 1.524 . S
C928 H947 0.913 . S
C929 H905 0.950 . S
C929 C928 1.524 . S
C929 C930 1.415 . S
C930 H906 0.950 . S
C930 C925 1.363 . S
C930 C929 1.415 . S
C931 H907 0.951 . S
C931 C932 1.366 . S
C931 C933 1.388 . S
C932 C931 1.366 . S
C932 C936 1.385 . S
C933 H908 0.951 1_655 S
C933 C931 1.388 . S
C933 C934 1.366 . S
C934 C933 1.366 . S
C934 C935 1.414 . S
C934 C937 1.499 1_655 S
C935 H909 0.950 . S
C935 C934 1.414 . S
C935 C936 1.374 . S
C936 H910 0.950 . S
C936 C932 1.385 . S
C936 C935 1.374 . S
C937 C934 1.499 1_455 S
C937 C938 1.373 . S
C937 C939 1.389 . S
C938 H911 0.950 . S
C938 C924 1.377 . S
C938 C937 1.373 . S
C939 C923 1.377 . S
C939 C937 1.389 . S
C939 C940 1.524 . S
C940 C939 1.524 . S
C940 C941 1.397 . S
C940 C945 1.363 . S
C941 H912 0.950 . S
C941 C940 1.397 . S
C941 C942 1.334 . S
C942 H913 0.950 1_545 S
C942 C941 1.334 . S
C942 C943 1.287 1_545 S
C943 C942 1.287 1_565 S
C943 C944 1.524 1_565 S
C943 H946 0.999 . S
C944 H914 0.950 . S
C944 C943 1.524 1_545 S
C944 C945 1.415 . S
C945 H915 0.950 . S
C945 C940 1.363 . S
C945 C944 1.415 . S
H946 C943 0.999 . S
H947 C928 0.913 . S
H948 C966 0.951 . S
H949 C968 0.951 . S
H950 C970 0.950 . S
H951 C971 0.950 . S
H952 C973 0.950 . S
H953 C976 0.950 . S
H954 C977 0.950 . S
H955 C979 0.950 . S
H956 C980 0.950 . S
H957 C981 0.951 . S
H958 C983 0.951 . S
H959 C985 0.950 . S
H960 C986 0.950 . S
H961 C988 0.950 . S
H962 C991 0.950 . S
H963 C992 0.950 . S
H964 C994 0.950 . S
H965 C995 0.950 . S
C966 H948 0.951 . S
C966 C967 1.366 . S
C966 C968 1.388 . S
C967 C966 1.366 . S
C967 C971 1.385 . S
C968 H949 0.951 . S
C968 C966 1.388 . S
C968 C969 1.366 . S
C969 C968 1.366 . S
C969 C970 1.414 . S
C969 C972 1.499 . S
C970 H950 0.950 . S
C970 C969 1.414 . S
C970 C971 1.374 . S
C971 H951 0.950 . S
C971 C967 1.385 . S
C971 C970 1.374 . S
C972 C969 1.499 . S
C972 C973 1.373 . S
C972 C974 1.389 . S
C973 H952 0.950 . S
C973 C972 1.373 . S
C973 C989 1.377 . S
C974 C972 1.389 . S
C974 C975 1.524 . S
C974 C988 1.377 . S
C975 C974 1.524 . S
C975 C976 1.397 . S
C975 C980 1.363 . S
C976 H953 0.950 . S
C976 C975 1.397 . S
C976 C977 1.334 . S
C977 H954 0.950 . S
C977 C976 1.334 . S
C977 C978 1.287 . S
C978 C977 1.287 . S
C978 C979 1.524 . S
C978 H997 0.913 . S
C979 H955 0.950 . S
C979 C978 1.524 . S
C979 C980 1.415 . S
C980 H956 0.950 . S
C980 C975 1.363 . S
C980 C979 1.415 . S
C981 H957 0.951 . S
C981 C982 1.366 . S
C981 C983 1.388 . S
C982 C981 1.366 . S
C982 C986 1.385 . S
C983 H958 0.951 . S
C983 C981 1.388 . S
C983 C984 1.366 . S
C984 C983 1.366 . S
C984 C985 1.414 . S
C984 C987 1.499 . S
C985 H959 0.950 . S
C985 C984 1.414 . S
C985 C986 1.374 . S
C986 H960 0.950 . S
C986 C982 1.385 . S
C986 C985 1.374 . S
C987 C984 1.499 . S
C987 C988 1.373 . S
C987 C989 1.389 . S
C988 H961 0.950 . S
C988 C974 1.377 . S
C988 C987 1.373 . S
C989 C973 1.377 . S
C989 C987 1.389 . S
C989 C990 1.524 . S
C990 C989 1.524 . S
C990 C991 1.397 . S
C990 C995 1.363 . S
C991 H962 0.950 . S
C991 C990 1.397 . S
C991 C992 1.334 . S
C992 H963 0.950 . S
C992 C991 1.334 . S
C992 C993 1.287 . S
C993 C992 1.287 . S
C993 C994 1.524 . S
C993 H996 0.999 . S
C994 H964 0.950 . S
C994 C993 1.524 . S
C994 C995 1.415 . S
C995 H965 0.950 . S
C995 C990 1.363 . S
C995 C994 1.415 . S
H996 C993 0.999 . S
H997 C978 0.913 . S
H998 C1016 0.951 . S
H999 C1018 0.951 . S
H1000 C1020 0.950 . S
H1001 C1021 0.950 . S
H1002 C1023 0.950 . S
H1003 C1026 0.950 . S
H1004 C1027 0.950 . S
H1005 C1029 0.950 . S
H1006 C1030 0.950 . S
H1007 C1031 0.951 . S
H1008 C1033 0.951 . S
H1009 C1035 0.950 . S
H1010 C1036 0.950 . S
H1011 C1038 0.950 . S
H1012 C1041 0.950 . S
H1013 C1042 0.950 . S
H1014 C1044 0.950 . S
H1015 C1045 0.950 . S
C1016 H998 0.951 . S
C1016 C1017 1.366 . S
C1016 C1018 1.388 . S
C1017 C1016 1.366 . S
C1017 C1021 1.385 . S
C1018 H999 0.951 . S
C1018 C1016 1.388 . S
C1018 C1019 1.366 . S
C1019 C1018 1.366 . S
C1019 C1020 1.414 . S
C1019 C1022 1.499 . S
C1020 H1000 0.950 . S
C1020 C1019 1.414 . S
C1020 C1021 1.374 . S
C1021 H1001 0.950 . S
C1021 C1017 1.385 . S
C1021 C1020 1.374 . S
C1022 C1019 1.499 . S
C1022 C1023 1.373 . S
C1022 C1024 1.389 . S
C1023 H1002 0.950 . S
C1023 C1022 1.373 . S
C1023 C1039 1.377 . S
C1024 C1022 1.389 . S
C1024 C1025 1.524 . S
C1024 C1038 1.377 . S
C1025 C1024 1.524 . S
C1025 C1026 1.397 . S
C1025 C1030 1.363 . S
C1026 H1003 0.950 . S
C1026 C1025 1.397 . S
C1026 C1027 1.334 . S
C1027 H1004 0.950 . S
C1027 C1026 1.334 . S
C1027 C1028 1.287 . S
C1028 C1027 1.287 . S
C1028 C1029 1.524 . S
C1028 H1047 0.913 . S
C1029 H1005 0.950 . S
C1029 C1028 1.524 . S
C1029 C1030 1.415 . S
C1030 H1006 0.950 . S
C1030 C1025 1.363 . S
C1030 C1029 1.415 . S
C1031 H1007 0.951 . S
C1031 C1032 1.366 . S
C1031 C1033 1.388 . S
C1032 C1031 1.366 . S
C1032 C1036 1.385 . S
C1033 H1008 0.951 . S
C1033 C1031 1.388 . S
C1033 C1034 1.366 . S
C1034 C1033 1.366 . S
C1034 C1035 1.414 . S
C1034 C1037 1.499 . S
C1035 H1009 0.950 . S
C1035 C1034 1.414 . S
C1035 C1036 1.374 . S
C1036 H1010 0.950 . S
C1036 C1032 1.385 . S
C1036 C1035 1.374 . S
C1037 C1034 1.499 . S
C1037 C1038 1.373 . S
C1037 C1039 1.389 . S
C1038 H1011 0.950 . S
C1038 C1024 1.377 . S
C1038 C1037 1.373 . S
C1039 C1023 1.377 . S
C1039 C1037 1.389 . S
C1039 C1040 1.524 . S
C1040 C1039 1.524 . S
C1040 C1041 1.397 . S
C1040 C1045 1.363 . S
C1041 H1012 0.950 . S
C1041 C1040 1.397 . S
C1041 C1042 1.334 . S
C1042 H1013 0.950 . S
C1042 C1041 1.334 . S
C1042 C1043 1.287 . S
C1043 C1042 1.287 . S
C1043 C1044 1.524 . S
C1043 H1046 0.999 . S
C1044 H1014 0.950 . S
C1044 C1043 1.524 . S
C1044 C1045 1.415 . S
C1045 H1015 0.950 . S
C1045 C1040 1.363 . S
C1045 C1044 1.415 . S
H1046 C1043 0.999 . S
H1047 C1028 0.913 . S
H1048 C1066 0.951 . S
H1049 C1068 0.951 . S
H1050 C1070 0.950 . S
H1051 C1071 0.950 . S
H1052 C1073 0.950 . S
H1053 C1076 0.950 . S
H1054 C1077 0.950 . S
H1055 C1079 0.950 . S
H1056 C1080 0.950 . S
H1057 C1081 0.951 . S
H1058 C1083 0.951 . S
H1059 C1085 0.950 . S
H1060 C1086 0.950 . S
H1061 C1088 0.950 . S
H1062 C1091 0.950 . S
H1063 C1092 0.950 . S
H1064 C1094 0.950 . S
H1065 C1095 0.950 . S
C1066 H1048 0.951 . S
C1066 C1067 1.366 . S
C1066 C1068 1.388 . S
C1067 C1066 1.366 . S
C1067 C1071 1.385 . S
C1068 H1049 0.951 . S
C1068 C1066 1.388 . S
C1068 C1069 1.366 . S
C1069 C1068 1.366 . S
C1069 C1070 1.414 . S
C1069 C1072 1.499 . S
C1070 H1050 0.950 . S
C1070 C1069 1.414 . S
C1070 C1071 1.374 . S
C1071 H1051 0.950 . S
C1071 C1067 1.385 . S
C1071 C1070 1.374 . S
C1072 C1069 1.499 . S
C1072 C1073 1.373 . S
C1072 C1074 1.389 . S
C1073 H1052 0.950 . S
C1073 C1072 1.373 . S
C1073 C1089 1.377 . S
C1074 C1072 1.389 . S
C1074 C1075 1.524 . S
C1074 C1088 1.377 . S
C1075 C1074 1.524 . S
C1075 C1076 1.397 . S
C1075 C1080 1.363 . S
C1076 H1053 0.950 . S
C1076 C1075 1.397 . S
C1076 C1077 1.334 . S
C1077 H1054 0.950 . S
C1077 C1076 1.334 . S
C1077 C1078 1.287 . S
C1078 C1077 1.287 . S
C1078 C1079 1.524 . S
C1078 H1097 0.913 . S
C1079 H1055 0.950 . S
C1079 C1078 1.524 . S
C1079 C1080 1.415 . S
C1080 H1056 0.950 . S
C1080 C1075 1.363 . S
C1080 C1079 1.415 . S
C1081 H1057 0.951 . S
C1081 C1082 1.366 . S
C1081 C1083 1.388 . S
C1082 C1081 1.366 . S
C1082 C1086 1.385 . S
C1083 H1058 0.951 . S
C1083 C1081 1.388 . S
C1083 C1084 1.366 . S
C1084 C1083 1.366 . S
C1084 C1085 1.414 . S
C1084 C1087 1.499 . S
C1085 H1059 0.950 . S
C1085 C1084 1.414 . S
C1085 C1086 1.374 . S
C1086 H1060 0.950 . S
C1086 C1082 1.385 . S
C1086 C1085 1.374 . S
C1087 C1084 1.499 . S
C1087 C1088 1.373 . S
C1087 C1089 1.389 . S
C1088 H1061 0.950 . S
C1088 C1074 1.377 . S
C1088 C1087 1.373 . S
C1089 C1073 1.377 . S
C1089 C1087 1.389 . S
C1089 C1090 1.524 . S
C1090 C1089 1.524 . S
C1090 C1091 1.397 . S
C1090 C1095 1.363 . S
C1091 H1062 0.950 . S
C1091 C1090 1.397 . S
C1091 C1092 1.334 . S
C1092 H1063 0.950 . S
C1092 C1091 1.334 . S
C1092 C1093 1.287 . S
C1093 C1092 1.287 . S
C1093 C1094 1.524 . S
C1093 H1096 0.999 . S
C1094 H1064 0.950 . S
C1094 C1093 1.524 . S
C1094 C1095 1.415 . S
C1095 H1065 0.950 . S
C1095 C1090 1.363 . S
C1095 C1094 1.415 . S
H1096 C1093 0.999 . S
H1097 C1078 0.913 . S
H1098 C1116 0.951 . S
H1099 C1118 0.951 . S
H1100 C1120 0.950 . S
H1101 C1121 0.950 . S
H1102 C1123 0.950 . S
H1103 C1126 0.950 . S
H1104 C1127 0.950 . S
H1105 C1129 0.950 . S
H1106 C1130 0.950 . S
H1107 C1131 0.951 . S
H1108 C1133 0.951 . S
H1109 C1135 0.950 . S
H1110 C1136 0.950 . S
H1111 C1138 0.950 . S
H1112 C1141 0.950 . S
H1113 C1142 0.950 . S
H1114 C1144 0.950 . S
H1115 C1145 0.950 . S
C1116 H1098 0.951 . S
C1116 C1117 1.366 . S
C1116 C1118 1.388 . S
C1117 C1116 1.366 . S
C1117 C1121 1.385 . S
C1118 H1099 0.951 . S
C1118 C1116 1.388 . S
C1118 C1119 1.366 . S
C1119 C1118 1.366 . S
C1119 C1120 1.414 . S
C1119 C1122 1.499 . S
C1120 H1100 0.950 . S
C1120 C1119 1.414 . S
C1120 C1121 1.374 . S
C1121 H1101 0.950 . S
C1121 C1117 1.385 . S
C1121 C1120 1.374 . S
C1122 C1119 1.499 . S
C1122 C1123 1.373 . S
C1122 C1124 1.389 . S
C1123 H1102 0.950 . S
C1123 C1122 1.373 . S
C1123 C1139 1.377 . S
C1124 C1122 1.389 . S
C1124 C1125 1.524 . S
C1124 C1138 1.377 . S
C1125 C1124 1.524 . S
C1125 C1126 1.397 . S
C1125 C1130 1.363 . S
C1126 H1103 0.950 . S
C1126 C1125 1.397 . S
C1126 C1127 1.334 . S
C1127 H1104 0.950 . S
C1127 C1126 1.334 . S
C1127 C1128 1.287 . S
C1128 C1127 1.287 . S
C1128 C1129 1.524 . S
C1128 H1147 0.913 . S
C1129 H1105 0.950 . S
C1129 C1128 1.524 . S
C1129 C1130 1.415 . S
C1130 H1106 0.950 . S
C1130 C1125 1.363 . S
C1130 C1129 1.415 . S
C1131 H1107 0.951 . S
C1131 C1132 1.366 . S
C1131 C1133 1.388 . S
C1132 C1131 1.366 . S
C1132 C1136 1.385 . S
C1133 H1108 0.951 . S
C1133 C1131 1.388 . S
C1133 C1134 1.366 . S
C1134 C1133 1.366 . S
C1134 C1135 1.414 . S
C1134 C1137 1.499 . S
C1135 H1109 0.950 . S
C1135 C1134 1.414 . S
C1135 C1136 1.374 . S
C1136 H1110 0.950 . S
C1136 C1132 1.385 . S
C1136 C1135 1.374 . S
C1137 C1134 1.499 . S
C1137 C1138 1.373 . S
C1137 C1139 1.389 . S
C1138 H1111 0.950 . S
C1138 C1124 1.377 . S
C1138 C1137 1.373 . S
C1139 C1123 1.377 . S
C1139 C1137 1.389 . S
C1139 C1140 1.524 . S
C1140 C1139 1.524 . S
C1140 C1141 1.397 . S
C1140 C1145 1.363 . S
C1141 H1112 0.950 . S
C1141 C1140 1.397 . S
C1141 C1142 1.334 . S
C1142 H1113 0.950 . S
C1142 C1141 1.334 . S
C1142 C1143 1.287 . S
C1143 C1142 1.287 . S
C1143 C1144 1.524 . S
C1143 H1146 0.999 . S
C1144 H1114 0.950 . S
C1144 C1143 1.524 . S
C1144 C1145 1.415 . S
C1145 H1115 0.950 . S
C1145 C1140 1.363 . S
C1145 C1144 1.415 . S
H1146 C1143 0.999 . S
H1147 C1128 0.913 . S
H1148 C1166 0.951 . S
H1149 C1168 0.951 . S
H1150 C1170 0.950 . S
H1151 C1171 0.950 . S
H1152 C1173 0.950 . S
H1153 C1176 0.950 . S
H1154 C1177 0.950 . S
H1155 C1179 0.950 . S
H1156 C1180 0.950 . S
H1157 C1181 0.951 . S
H1158 C1183 0.951 . S
H1159 C1185 0.950 . S
H1160 C1186 0.950 . S
H1161 C1188 0.950 . S
H1162 C1191 0.950 . S
H1163 C1192 0.950 . S
H1164 C1194 0.950 . S
H1165 C1195 0.950 . S
C1166 H1148 0.951 . S
C1166 C1167 1.366 . S
C1166 C1168 1.388 . S
C1167 C1166 1.366 . S
C1167 C1171 1.385 . S
C1168 H1149 0.951 . S
C1168 C1166 1.388 . S
C1168 C1169 1.366 . S
C1169 C1168 1.366 . S
C1169 C1170 1.414 . S
C1169 C1172 1.499 . S
C1170 H1150 0.950 . S
C1170 C1169 1.414 . S
C1170 C1171 1.374 . S
C1171 H1151 0.950 . S
C1171 C1167 1.385 . S
C1171 C1170 1.374 . S
C1172 C1169 1.499 . S
C1172 C1173 1.373 . S
C1172 C1174 1.389 . S
C1173 H1152 0.950 . S
C1173 C1172 1.373 . S
C1173 C1189 1.377 . S
C1174 C1172 1.389 . S
C1174 C1175 1.524 . S
C1174 C1188 1.377 . S
C1175 C1174 1.524 . S
C1175 C1176 1.397 . S
C1175 C1180 1.363 . S
C1176 H1153 0.950 . S
C1176 C1175 1.397 . S
C1176 C1177 1.334 . S
C1177 H1154 0.950 . S
C1177 C1176 1.334 . S
C1177 C1178 1.287 . S
C1178 C1177 1.287 . S
C1178 C1179 1.524 . S
C1178 H1197 0.913 . S
C1179 H1155 0.950 . S
C1179 C1178 1.524 . S
C1179 C1180 1.415 . S
C1180 H1156 0.950 . S
C1180 C1175 1.363 . S
C1180 C1179 1.415 . S
C1181 H1157 0.951 . S
C1181 C1182 1.366 . S
C1181 C1183 1.388 . S
C1182 C1181 1.366 . S
C1182 C1186 1.385 . S
C1183 H1158 0.951 . S
C1183 C1181 1.388 . S
C1183 C1184 1.366 . S
C1184 C1183 1.366 . S
C1184 C1185 1.414 . S
C1184 C1187 1.499 . S
C1185 H1159 0.950 . S
C1185 C1184 1.414 . S
C1185 C1186 1.374 . S
C1186 H1160 0.950 . S
C1186 C1182 1.385 . S
C1186 C1185 1.374 . S
C1187 C1184 1.499 . S
C1187 C1188 1.373 . S
C1187 C1189 1.389 . S
C1188 H1161 0.950 . S
C1188 C1174 1.377 . S
C1188 C1187 1.373 . S
C1189 C1173 1.377 . S
C1189 C1187 1.389 . S
C1189 C1190 1.524 . S
C1190 C1189 1.524 . S
C1190 C1191 1.397 . S
C1190 C1195 1.363 . S
C1191 H1162 0.950 . S
C1191 C1190 1.397 . S
C1191 C1192 1.334 . S
C1192 H1163 0.950 . S
C1192 C1191 1.334 . S
C1192 C1193 1.287 . S
C1193 C1192 1.287 . S
C1193 C1194 1.524 . S
C1193 H1196 0.999 . S
C1194 H1164 0.950 . S
C1194 C1193 1.524 . S
C1194 C1195 1.415 . S
C1195 H1165 0.950 . S
C1195 C1190 1.363 . S
C1195 C1194 1.415 . S
H1196 C1193 0.999 . S
H1197 C1178 0.913 . S
H1198 C1216 0.951 . S
H1199 C1218 0.951 . S
H1200 C1220 0.950 . S
H1201 C1221 0.950 . S
H1202 C1223 0.950 . S
H1203 C1226 0.950 . S
H1204 C1227 0.950 . S
H1205 C1229 0.950 . S
H1206 C1230 0.950 . S
H1207 C1231 0.951 . S
H1208 C1233 0.951 1_455 S
H1209 C1235 0.950 . S
H1210 C1236 0.950 . S
H1211 C1238 0.950 . S
H1212 C1241 0.950 1_655 S
H1213 C1242 0.940 1_645 S
H1214 C1244 0.950 . S
H1215 C1245 0.950 . S
C1216 H1198 0.951 . S
C1216 C1217 1.366 . S
C1216 C1218 1.388 . S
C1217 C1216 1.366 . S
C1217 C1221 1.385 . S
C1218 H1199 0.951 . S
C1218 C1216 1.388 . S
C1218 C1219 1.366 . S
C1219 C1218 1.366 . S
C1219 C1220 1.414 . S
C1219 C1222 1.499 . S
C1220 H1200 0.950 . S
C1220 C1219 1.414 . S
C1220 C1221 1.374 . S
C1221 H1201 0.950 . S
C1221 C1217 1.385 . S
C1221 C1220 1.374 . S
C1222 C1219 1.499 . S
C1222 C1223 1.373 . S
C1222 C1224 1.389 . S
C1223 H1202 0.950 . S
C1223 C1222 1.373 . S
C1223 C1239 1.377 . S
C1224 C1222 1.389 . S
C1224 C1225 1.524 . S
C1224 C1238 1.377 . S
C1225 C1224 1.524 . S
C1225 C1226 1.397 . S
C1225 C1230 1.363 . S
C1226 H1203 0.950 . S
C1226 C1225 1.397 . S
C1226 C1227 1.334 . S
C1227 H1204 0.950 . S
C1227 C1226 1.334 . S
C1227 C1228 1.287 . S
C1228 C1227 1.287 . S
C1228 C1229 1.524 . S
C1228 H1247 0.913 . S
C1229 H1205 0.950 . S
C1229 C1228 1.524 . S
C1229 C1230 1.415 . S
C1230 H1206 0.950 . S
C1230 C1225 1.363 . S
C1230 C1229 1.415 . S
C1231 H1207 0.951 . S
C1231 C1232 1.366 . S
C1231 C1233 1.388 . S
C1232 C1231 1.366 . S
C1232 C1236 1.385 . S
C1233 H1208 0.951 1_655 S
C1233 C1231 1.388 . S
C1233 C1234 1.366 . S
C1234 C1233 1.366 . S
C1234 C1235 1.414 . S
C1234 C1237 1.499 1_655 S
C1235 H1209 0.950 . S
C1235 C1234 1.414 . S
C1235 C1236 1.374 . S
C1236 H1210 0.950 . S
C1236 C1232 1.385 . S
C1236 C1235 1.374 . S
C1237 C1234 1.499 1_455 S
C1237 C1238 1.373 . S
C1237 C1239 1.389 . S
C1238 H1211 0.950 . S
C1238 C1224 1.377 . S
C1238 C1237 1.373 . S
C1239 C1223 1.377 . S
C1239 C1237 1.389 . S
C1239 C1240 1.524 . S
C1240 C1239 1.524 . S
C1240 C1241 1.397 . S
C1240 C1245 1.363 . S
C1241 H1212 0.950 1_455 S
C1241 C1240 1.397 . S
C1241 C1242 1.334 . S
C1242 H1213 0.940 1_465 S
C1242 C1241 1.334 . S
C1242 C1243 1.287 1_565 S
C1243 C1242 1.287 1_545 S
C1243 C1244 1.524 . S
C1243 H1246 0.999 . S
C1244 H1214 0.950 . S
C1244 C1243 1.524 . S
C1244 C1245 1.415 1_545 S
C1245 H1215 0.950 . S
C1245 C1240 1.363 . S
C1245 C1244 1.415 1_565 S
H1246 C1243 0.999 . S
H1247 C1228 0.913 . S
H1248 C1266 0.951 . S
H1249 C1268 0.951 . S
H1250 C1270 0.950 . S
H1251 C1271 0.950 . S
H1252 C1273 0.950 . S
H1253 C1276 0.950 . S
H1254 C1277 0.950 . S
H1255 C1279 0.950 . S
H1256 C1280 0.950 . S
H1257 C1281 0.951 . S
H1258 C1283 0.951 . S
H1259 C1285 0.950 . S
H1260 C1286 0.950 . S
H1261 C1288 0.950 . S
H1262 C1291 0.950 . S
H1263 C1292 0.950 . S
H1264 C1294 0.950 . S
H1265 C1295 0.950 . S
C1266 H1248 0.951 . S
C1266 C1267 1.366 . S
C1266 C1268 1.388 . S
C1267 C1266 1.366 . S
C1267 C1271 1.385 . S
C1268 H1249 0.951 . S
C1268 C1266 1.388 . S
C1268 C1269 1.366 . S
C1269 C1268 1.366 . S
C1269 C1270 1.414 . S
C1269 C1272 1.499 . S
C1270 H1250 0.950 . S
C1270 C1269 1.414 . S
C1270 C1271 1.374 . S
C1271 H1251 0.950 . S
C1271 C1267 1.385 . S
C1271 C1270 1.374 . S
C1272 C1269 1.499 . S
C1272 C1273 1.373 . S
C1272 C1274 1.389 . S
C1273 H1252 0.950 . S
C1273 C1272 1.373 . S
C1273 C1289 1.377 . S
C1274 C1272 1.389 . S
C1274 C1275 1.524 . S
C1274 C1288 1.377 . S
C1275 C1274 1.524 . S
C1275 C1276 1.397 . S
C1275 C1280 1.363 . S
C1276 H1253 0.950 . S
C1276 C1275 1.397 . S
C1276 C1277 1.334 . S
C1277 H1254 0.950 . S
C1277 C1276 1.334 . S
C1277 C1278 1.287 . S
C1278 C1277 1.287 . S
C1278 C1279 1.524 . S
C1278 H1297 0.913 . S
C1279 H1255 0.950 . S
C1279 C1278 1.524 . S
C1279 C1280 1.415 . S
C1280 H1256 0.950 . S
C1280 C1275 1.363 . S
C1280 C1279 1.415 . S
C1281 H1257 0.951 . S
C1281 C1282 1.366 . S
C1281 C1283 1.388 . S
C1282 C1281 1.366 . S
C1282 C1286 1.385 . S
C1283 H1258 0.951 . S
C1283 C1281 1.388 . S
C1283 C1284 1.366 . S
C1284 C1283 1.366 . S
C1284 C1285 1.414 . S
C1284 C1287 1.499 . S
C1285 H1259 0.950 . S
C1285 C1284 1.414 . S
C1285 C1286 1.374 . S
C1286 H1260 0.950 . S
C1286 C1282 1.385 . S
C1286 C1285 1.374 . S
C1287 C1284 1.499 . S
C1287 C1288 1.373 . S
C1287 C1289 1.389 . S
C1288 H1261 0.950 . S
C1288 C1274 1.377 . S
C1288 C1287 1.373 . S
C1289 C1273 1.377 . S
C1289 C1287 1.389 . S
C1289 C1290 1.524 . S
C1290 C1289 1.524 . S
C1290 C1291 1.397 . S
C1290 C1295 1.363 . S
C1291 H1262 0.950 . S
C1291 C1290 1.397 . S
C1291 C1292 1.334 . S
C1292 H1263 0.950 . S
C1292 C1291 1.334 . S
C1292 C1293 1.287 . S
C1293 C1292 1.287 . S
C1293 C1294 1.524 . S
C1293 H1296 0.999 . S
C1294 H1264 0.950 . S
C1294 C1293 1.524 . S
C1294 C1295 1.415 . S
C1295 H1265 0.950 . S
C1295 C1290 1.363 . S
C1295 C1294 1.415 . S
H1296 C1293 0.999 . S
H1297 C1278 0.913 . S
H1298 C1316 0.951 . S
H1299 C1318 0.951 . S
H1300 C1320 0.950 . S
H1301 C1321 0.950 . S
H1302 C1323 0.950 . S
H1303 C1326 0.950 . S
H1304 C1327 0.950 . S
H1305 C1329 0.950 . S
H1306 C1330 0.950 . S
H1307 C1331 0.951 . S
H1308 C1333 0.951 . S
H1309 C1335 0.950 . S
H1310 C1336 0.950 . S
H1311 C1338 0.950 . S
H1312 C1341 0.950 . S
H1313 C1342 0.950 . S
H1314 C1344 0.950 . S
H1315 C1345 0.950 . S
C1316 H1298 0.951 . S
C1316 C1317 1.366 . S
C1316 C1318 1.388 . S
C1317 C1316 1.366 . S
C1317 C1321 1.385 . S
C1318 H1299 0.951 . S
C1318 C1316 1.388 . S
C1318 C1319 1.366 . S
C1319 C1318 1.366 . S
C1319 C1320 1.414 . S
C1319 C1322 1.499 . S
C1320 H1300 0.950 . S
C1320 C1319 1.414 . S
C1320 C1321 1.374 . S
C1321 H1301 0.950 . S
C1321 C1317 1.385 . S
C1321 C1320 1.374 . S
C1322 C1319 1.499 . S
C1322 C1323 1.373 . S
C1322 C1324 1.389 . S
C1323 H1302 0.950 . S
C1323 C1322 1.373 . S
C1323 C1339 1.377 . S
C1324 C1322 1.389 . S
C1324 C1325 1.524 . S
C1324 C1338 1.377 . S
C1325 C1324 1.524 . S
C1325 C1326 1.397 . S
C1325 C1330 1.363 . S
C1326 H1303 0.950 . S
C1326 C1325 1.397 . S
C1326 C1327 1.334 . S
C1327 H1304 0.950 . S
C1327 C1326 1.334 . S
C1327 C1328 1.287 . S
C1328 C1327 1.287 . S
C1328 C1329 1.524 . S
C1328 H1347 0.913 . S
C1329 H1305 0.950 . S
C1329 C1328 1.524 . S
C1329 C1330 1.415 . S
C1330 H1306 0.950 . S
C1330 C1325 1.363 . S
C1330 C1329 1.415 . S
C1331 H1307 0.951 . S
C1331 C1332 1.366 . S
C1331 C1333 1.388 . S
C1332 C1331 1.366 . S
C1332 C1336 1.385 . S
C1333 H1308 0.951 . S
C1333 C1331 1.388 . S
C1333 C1334 1.366 . S
C1334 C1333 1.366 . S
C1334 C1335 1.414 . S
C1334 C1337 1.499 . S
C1335 H1309 0.950 . S
C1335 C1334 1.414 . S
C1335 C1336 1.374 . S
C1336 H1310 0.950 . S
C1336 C1332 1.385 . S
C1336 C1335 1.374 . S
C1337 C1334 1.499 . S
C1337 C1338 1.373 . S
C1337 C1339 1.389 . S
C1338 H1311 0.950 . S
C1338 C1324 1.377 . S
C1338 C1337 1.373 . S
C1339 C1323 1.377 . S
C1339 C1337 1.389 . S
C1339 C1340 1.524 . S
C1340 C1339 1.524 . S
C1340 C1341 1.397 . S
C1340 C1345 1.363 . S
C1341 H1312 0.950 . S
C1341 C1340 1.397 . S
C1341 C1342 1.334 . S
C1342 H1313 0.950 . S
C1342 C1341 1.334 . S
C1342 C1343 1.287 . S
C1343 C1342 1.287 . S
C1343 C1344 1.524 . S
C1343 H1346 0.999 . S
C1344 H1314 0.950 . S
C1344 C1343 1.524 . S
C1344 C1345 1.415 . S
C1345 H1315 0.950 . S
C1345 C1340 1.363 . S
C1345 C1344 1.415 . S
H1346 C1343 0.999 . S
H1347 C1328 0.913 . S
H1348 C1366 0.951 . S
H1349 C1368 0.951 . S
H1350 C1370 0.950 . S
H1351 C1371 0.950 . S
H1352 C1373 0.950 . S
H1353 C1376 0.950 . S
H1354 C1377 0.950 . S
H1355 C1379 0.950 . S
H1356 C1380 0.950 . S
H1357 C1381 0.951 . S
H1358 C1383 0.951 . S
H1359 C1385 0.950 . S
H1360 C1386 0.950 . S
H1361 C1388 0.950 . S
H1362 C1391 0.950 . S
H1363 C1392 0.950 . S
H1364 C1394 0.950 . S
H1365 C1395 0.950 . S
C1366 H1348 0.951 . S
C1366 C1367 1.366 . S
C1366 C1368 1.388 . S
C1367 C1366 1.366 . S
C1367 C1371 1.385 . S
C1368 H1349 0.951 . S
C1368 C1366 1.388 . S
C1368 C1369 1.366 . S
C1369 C1368 1.366 . S
C1369 C1370 1.414 . S
C1369 C1372 1.499 . S
C1370 H1350 0.950 . S
C1370 C1369 1.414 . S
C1370 C1371 1.374 . S
C1371 H1351 0.950 . S
C1371 C1367 1.385 . S
C1371 C1370 1.374 . S
C1372 C1369 1.499 . S
C1372 C1373 1.373 . S
C1372 C1374 1.389 . S
C1373 H1352 0.950 . S
C1373 C1372 1.373 . S
C1373 C1389 1.377 . S
C1374 C1372 1.389 . S
C1374 C1375 1.524 . S
C1374 C1388 1.377 . S
C1375 C1374 1.524 . S
C1375 C1376 1.397 . S
C1375 C1380 1.363 . S
C1376 H1353 0.950 . S
C1376 C1375 1.397 . S
C1376 C1377 1.334 . S
C1377 H1354 0.950 . S
C1377 C1376 1.334 . S
C1377 C1378 1.287 . S
C1378 C1377 1.287 . S
C1378 C1379 1.524 . S
C1378 H1397 0.913 . S
C1379 H1355 0.950 . S
C1379 C1378 1.524 . S
C1379 C1380 1.415 . S
C1380 H1356 0.950 . S
C1380 C1375 1.363 . S
C1380 C1379 1.415 . S
C1381 H1357 0.951 . S
C1381 C1382 1.366 . S
C1381 C1383 1.388 . S
C1382 C1381 1.366 . S
C1382 C1386 1.385 . S
C1383 H1358 0.951 . S
C1383 C1381 1.388 . S
C1383 C1384 1.366 . S
C1384 C1383 1.366 . S
C1384 C1385 1.414 . S
C1384 C1387 1.499 . S
C1385 H1359 0.950 . S
C1385 C1384 1.414 . S
C1385 C1386 1.374 . S
C1386 H1360 0.950 . S
C1386 C1382 1.385 . S
C1386 C1385 1.374 . S
C1387 C1384 1.499 . S
C1387 C1388 1.373 . S
C1387 C1389 1.389 . S
C1388 H1361 0.950 . S
C1388 C1374 1.377 . S
C1388 C1387 1.373 . S
C1389 C1373 1.377 . S
C1389 C1387 1.389 . S
C1389 C1390 1.524 . S
C1390 C1389 1.524 . S
C1390 C1391 1.397 . S
C1390 C1395 1.363 . S
C1391 H1362 0.950 . S
C1391 C1390 1.397 . S
C1391 C1392 1.334 . S
C1392 H1363 0.950 . S
C1392 C1391 1.334 . S
C1392 C1393 1.287 . S
C1393 C1392 1.287 . S
C1393 C1394 1.524 . S
C1393 H1396 0.999 . S
C1394 H1364 0.950 . S
C1394 C1393 1.524 . S
C1394 C1395 1.415 . S
C1395 H1365 0.950 . S
C1395 C1390 1.363 . S
C1395 C1394 1.415 . S
H1396 C1393 0.999 . S
H1397 C1378 0.913 . S
H1398 C1416 0.951 . S
H1399 C1418 0.951 . S
H1400 C1420 0.950 . S
H1401 C1421 0.950 . S
H1402 C1423 0.950 . S
H1403 C1426 0.950 . S
H1404 C1427 0.950 . S
H1405 C1429 0.950 . S
H1406 C1430 0.950 . S
H1407 C1431 0.951 . S
H1408 C1433 0.951 1_455 S
H1409 C1435 0.950 . S
H1410 C1436 0.950 . S
H1411 C1438 0.950 . S
H1412 C1441 0.950 . S
H1413 C1442 0.950 . S
H1414 C1444 0.950 . S
H1415 C1445 0.950 . S
C1416 H1398 0.951 . S
C1416 C1417 1.366 . S
C1416 C1418 1.388 . S
C1417 C1416 1.366 . S
C1417 C1421 1.385 . S
C1418 H1399 0.951 . S
C1418 C1416 1.388 . S
C1418 C1419 1.366 . S
C1419 C1418 1.366 . S
C1419 C1420 1.414 . S
C1419 C1422 1.499 . S
C1420 H1400 0.950 . S
C1420 C1419 1.414 . S
C1420 C1421 1.374 . S
C1421 H1401 0.950 . S
C1421 C1417 1.385 . S
C1421 C1420 1.374 . S
C1422 C1419 1.499 . S
C1422 C1423 1.373 . S
C1422 C1424 1.389 . S
C1423 H1402 0.950 . S
C1423 C1422 1.373 . S
C1423 C1439 1.377 . S
C1424 C1422 1.389 . S
C1424 C1425 1.524 . S
C1424 C1438 1.377 . S
C1425 C1424 1.524 . S
C1425 C1426 1.397 . S
C1425 C1430 1.363 . S
C1426 H1403 0.950 . S
C1426 C1425 1.397 . S
C1426 C1427 1.334 . S
C1427 H1404 0.950 . S
C1427 C1426 1.334 . S
C1427 C1428 1.287 . S
C1428 C1427 1.287 . S
C1428 C1429 1.524 . S
C1428 H1447 0.913 . S
C1429 H1405 0.950 . S
C1429 C1428 1.524 . S
C1429 C1430 1.415 . S
C1430 H1406 0.950 . S
C1430 C1425 1.363 . S
C1430 C1429 1.415 . S
C1431 H1407 0.951 . S
C1431 C1432 1.366 . S
C1431 C1433 1.388 . S
C1432 C1431 1.366 . S
C1432 C1436 1.385 . S
C1433 H1408 0.951 1_655 S
C1433 C1431 1.388 . S
C1433 C1434 1.366 . S
C1434 C1433 1.366 . S
C1434 C1435 1.414 . S
C1434 C1437 1.499 1_655 S
C1435 H1409 0.950 . S
C1435 C1434 1.414 . S
C1435 C1436 1.374 . S
C1436 H1410 0.950 . S
C1436 C1432 1.385 . S
C1436 C1435 1.374 . S
C1437 C1434 1.499 1_455 S
C1437 C1438 1.373 . S
C1437 C1439 1.389 . S
C1438 H1411 0.950 . S
C1438 C1424 1.377 . S
C1438 C1437 1.373 . S
C1439 C1423 1.377 . S
C1439 C1437 1.389 . S
C1439 C1440 1.524 . S
C1440 C1439 1.524 . S
C1440 C1441 1.397 . S
C1440 C1445 1.363 . S
C1441 H1412 0.950 . S
C1441 C1440 1.397 . S
C1441 C1442 1.334 . S
C1442 H1413 0.950 . S
C1442 C1441 1.334 . S
C1442 C1443 1.287 . S
C1443 C1442 1.287 . S
C1443 C1444 1.524 . S
C1443 H1446 0.999 . S
C1444 H1414 0.950 . S
C1444 C1443 1.524 . S
C1444 C1445 1.415 . S
C1445 H1415 0.950 . S
C1445 C1440 1.363 . S
C1445 C1444 1.415 . S
H1446 C1443 0.999 . S
H1447 C1428 0.913 . S
H1448 C1466 0.951 . S
H1449 C1468 0.951 . S
H1450 C1470 0.950 . S
H1451 C1471 0.950 . S
H1452 C1473 0.950 . S
H1453 C1476 0.950 . S
H1454 C1477 0.950 . S
H1455 C1479 0.950 . S
H1456 C1480 0.950 . S
H1457 C1481 0.951 . S
H1458 C1483 0.951 . S
H1459 C1485 0.950 . S
H1460 C1486 0.950 . S
H1461 C1488 0.950 . S
H1462 C1491 0.950 . S
H1463 C1492 0.950 . S
H1464 C1494 0.950 . S
H1465 C1495 0.950 . S
C1466 H1448 0.951 . S
C1466 C1467 1.366 . S
C1466 C1468 1.388 . S
C1467 C1466 1.366 . S
C1467 C1471 1.385 . S
C1468 H1449 0.951 . S
C1468 C1466 1.388 . S
C1468 C1469 1.366 . S
C1469 C1468 1.366 . S
C1469 C1470 1.414 . S
C1469 C1472 1.499 . S
C1470 H1450 0.950 . S
C1470 C1469 1.414 . S
C1470 C1471 1.374 . S
C1471 H1451 0.950 . S
C1471 C1467 1.385 . S
C1471 C1470 1.374 . S
C1472 C1469 1.499 . S
C1472 C1473 1.373 . S
C1472 C1474 1.389 . S
C1473 H1452 0.950 . S
C1473 C1472 1.373 . S
C1473 C1489 1.377 . S
C1474 C1472 1.389 . S
C1474 C1475 1.524 . S
C1474 C1488 1.377 . S
C1475 C1474 1.524 . S
C1475 C1476 1.397 . S
C1475 C1480 1.363 . S
C1476 H1453 0.950 . S
C1476 C1475 1.397 . S
C1476 C1477 1.334 . S
C1477 H1454 0.950 . S
C1477 C1476 1.334 . S
C1477 C1478 1.287 . S
C1478 C1477 1.287 . S
C1478 C1479 1.524 . S
C1478 H1497 0.913 . S
C1479 H1455 0.950 . S
C1479 C1478 1.524 . S
C1479 C1480 1.415 . S
C1480 H1456 0.950 . S
C1480 C1475 1.363 . S
C1480 C1479 1.415 . S
C1481 H1457 0.951 . S
C1481 C1482 1.366 . S
C1481 C1483 1.388 . S
C1482 C1481 1.366 . S
C1482 C1486 1.385 . S
C1483 H1458 0.951 . S
C1483 C1481 1.388 . S
C1483 C1484 1.366 . S
C1484 C1483 1.366 . S
C1484 C1485 1.414 . S
C1484 C1487 1.499 . S
C1485 H1459 0.950 . S
C1485 C1484 1.414 . S
C1485 C1486 1.374 . S
C1486 H1460 0.950 . S
C1486 C1482 1.385 . S
C1486 C1485 1.374 . S
C1487 C1484 1.499 . S
C1487 C1488 1.373 . S
C1487 C1489 1.389 . S
C1488 H1461 0.950 . S
C1488 C1474 1.377 . S
C1488 C1487 1.373 . S
C1489 C1473 1.377 . S
C1489 C1487 1.389 . S
C1489 C1490 1.524 . S
C1490 C1489 1.524 . S
C1490 C1491 1.397 . S
C1490 C1495 1.363 . S
C1491 H1462 0.950 . S
C1491 C1490 1.397 . S
C1491 C1492 1.334 . S
C1492 H1463 0.950 . S
C1492 C1491 1.334 . S
C1492 C1493 1.287 . S
C1493 C1492 1.287 . S
C1493 C1494 1.524 . S
C1493 H1496 0.999 . S
C1494 H1464 0.950 . S
C1494 C1493 1.524 . S
C1494 C1495 1.415 . S
C1495 H1465 0.950 . S
C1495 C1490 1.363 . S
C1495 C1494 1.415 . S
H1496 C1493 0.999 . S
H1497 C1478 0.913 . S
H1498 C1516 0.951 . S
H1499 C1518 0.951 . S
H1500 C1520 0.950 . S
H1501 C1521 0.950 . S
H1502 C1523 0.950 . S
H1503 C1526 0.950 . S
H1504 C1527 0.950 . S
H1505 C1529 0.950 . S
H1506 C1530 0.950 . S
H1507 C1531 0.951 . S
H1508 C1533 0.951 . S
H1509 C1535 0.937 1_455 S
H1510 C1536 0.950 . S
H1511 C1538 0.950 . S
H1512 C1541 0.950 . S
H1513 C1542 0.950 . S
H1514 C1544 0.950 . S
H1515 C1545 0.950 1_455 S
C1516 H1498 0.951 . S
C1516 C1517 1.366 . S
C1516 C1518 1.388 . S
C1517 C1516 1.366 . S
C1517 C1521 1.385 . S
C1518 H1499 0.951 . S
C1518 C1516 1.388 . S
C1518 C1519 1.366 . S
C1519 C1518 1.366 . S
C1519 C1520 1.414 . S
C1519 C1522 1.499 . S
C1520 H1500 0.950 . S
C1520 C1519 1.414 . S
C1520 C1521 1.374 . S
C1521 H1501 0.950 . S
C1521 C1517 1.385 . S
C1521 C1520 1.374 . S
C1522 C1519 1.499 . S
C1522 C1523 1.373 . S
C1522 C1524 1.389 . S
C1523 H1502 0.950 . S
C1523 C1522 1.373 . S
C1523 C1539 1.377 . S
C1524 C1522 1.389 . S
C1524 C1525 1.524 . S
C1524 C1538 1.377 . S
C1525 C1524 1.524 . S
C1525 C1526 1.397 . S
C1525 C1530 1.363 . S
C1526 H1503 0.950 . S
C1526 C1525 1.397 . S
C1526 C1527 1.334 . S
C1527 H1504 0.950 . S
C1527 C1526 1.334 . S
C1527 C1528 1.287 . S
C1528 C1527 1.287 . S
C1528 C1529 1.524 . S
C1528 H1547 0.913 . S
C1529 H1505 0.950 . S
C1529 C1528 1.524 . S
C1529 C1530 1.415 . S
C1530 H1506 0.950 . S
C1530 C1525 1.363 . S
C1530 C1529 1.415 . S
C1531 H1507 0.951 . S
C1531 C1532 1.366 . S
C1531 C1533 1.388 . S
C1532 C1531 1.366 . S
C1532 C1536 1.385 . S
C1533 H1508 0.951 . S
C1533 C1531 1.388 . S
C1533 C1534 1.366 . S
C1534 C1533 1.366 . S
C1534 C1535 1.414 . S
C1534 C1537 1.499 1_655 S
C1535 H1509 0.937 1_655 S
C1535 C1534 1.414 . S
C1535 C1536 1.374 . S
C1536 H1510 0.950 . S
C1536 C1532 1.385 . S
C1536 C1535 1.374 . S
C1537 C1534 1.499 1_455 S
C1537 C1538 1.373 . S
C1537 C1539 1.389 . S
C1538 H1511 0.950 . S
C1538 C1524 1.377 . S
C1538 C1537 1.373 . S
C1539 C1523 1.377 . S
C1539 C1537 1.389 . S
C1539 C1540 1.524 1_455 S
C1540 C1539 1.524 1_655 S
C1540 C1541 1.397 . S
C1540 C1545 1.363 . S
C1541 H1512 0.950 . S
C1541 C1540 1.397 . S
C1541 C1542 1.334 . S
C1542 H1513 0.950 . S
C1542 C1541 1.334 . S
C1542 C1543 1.287 . S
C1543 C1542 1.287 . S
C1543 C1544 1.524 . S
C1543 H1546 0.999 . S
C1544 H1514 0.950 . S
C1544 C1543 1.524 . S
C1544 C1545 1.415 . S
C1545 H1515 0.950 1_655 S
C1545 C1540 1.363 . S
C1545 C1544 1.415 . S
H1546 C1543 0.999 . S
H1547 C1528 0.913 . S
H1548 C1566 0.951 . S
H1549 C1568 0.951 . S
H1550 C1570 0.950 . S
H1551 C1571 0.950 . S
H1552 C1573 0.950 . S
H1553 C1576 0.950 . S
H1554 C1577 0.950 . S
H1555 C1579 0.950 . S
H1556 C1580 0.950 . S
H1557 C1581 0.951 . S
H1558 C1583 0.951 . S
H1559 C1585 0.950 . S
H1560 C1586 0.950 . S
H1561 C1588 0.950 . S
H1562 C1591 0.950 . S
H1563 C1592 0.950 . S
H1564 C1594 0.950 . S
H1565 C1595 0.950 . S
C1566 H1548 0.951 . S
C1566 C1567 1.366 . S
C1566 C1568 1.388 . S
C1567 C1566 1.366 . S
C1567 C1571 1.385 . S
C1568 H1549 0.951 . S
C1568 C1566 1.388 . S
C1568 C1569 1.366 . S
C1569 C1568 1.366 . S
C1569 C1570 1.414 . S
C1569 C1572 1.499 . S
C1570 H1550 0.950 . S
C1570 C1569 1.414 . S
C1570 C1571 1.374 . S
C1571 H1551 0.950 . S
C1571 C1567 1.385 . S
C1571 C1570 1.374 . S
C1572 C1569 1.499 . S
C1572 C1573 1.373 . S
C1572 C1574 1.389 . S
C1573 H1552 0.950 . S
C1573 C1572 1.373 . S
C1573 C1589 1.377 . S
C1574 C1572 1.389 . S
C1574 C1575 1.524 . S
C1574 C1588 1.377 . S
C1575 C1574 1.524 . S
C1575 C1576 1.397 . S
C1575 C1580 1.363 . S
C1576 H1553 0.950 . S
C1576 C1575 1.397 . S
C1576 C1577 1.334 . S
C1577 H1554 0.950 . S
C1577 C1576 1.334 . S
C1577 C1578 1.287 . S
C1578 C1577 1.287 . S
C1578 C1579 1.524 . S
C1578 H1597 0.913 . S
C1579 H1555 0.950 . S
C1579 C1578 1.524 . S
C1579 C1580 1.415 . S
C1580 H1556 0.950 . S
C1580 C1575 1.363 . S
C1580 C1579 1.415 . S
C1581 H1557 0.951 . S
C1581 C1582 1.366 . S
C1581 C1583 1.388 . S
C1582 C1581 1.366 . S
C1582 C1586 1.385 . S
C1583 H1558 0.951 . S
C1583 C1581 1.388 . S
C1583 C1584 1.366 . S
C1584 C1583 1.366 . S
C1584 C1585 1.414 . S
C1584 C1587 1.499 . S
C1585 H1559 0.950 . S
C1585 C1584 1.414 . S
C1585 C1586 1.374 . S
C1586 H1560 0.950 . S
C1586 C1582 1.385 . S
C1586 C1585 1.374 . S
C1587 C1584 1.499 . S
C1587 C1588 1.373 . S
C1587 C1589 1.389 . S
C1588 H1561 0.950 . S
C1588 C1574 1.377 . S
C1588 C1587 1.373 . S
C1589 C1573 1.377 . S
C1589 C1587 1.389 . S
C1589 C1590 1.524 . S
C1590 C1589 1.524 . S
C1590 C1591 1.397 . S
C1590 C1595 1.363 . S
C1591 H1562 0.950 . S
C1591 C1590 1.397 . S
C1591 C1592 1.334 . S
C1592 H1563 0.950 . S
C1592 C1591 1.334 . S
C1592 C1593 1.287 . S
C1593 C1592 1.287 . S
C1593 C1594 1.524 . S
C1593 H1596 0.999 . S
C1594 H1564 0.950 . S
C1594 C1593 1.524 . S
C1594 C1595 1.415 . S
C1595 H1565 0.950 . S
C1595 C1590 1.363 . S
C1595 C1594 1.415 . S
H1596 C1593 0.999 . S
H1597 C1578 0.913 . S
H1598 C1616 0.951 . S
H1599 C1618 0.951 . S
H1600 C1620 0.950 . S
H1601 C1621 0.950 . S
H1602 C1623 0.950 . S
H1603 C1626 0.950 . S
H1604 C1627 0.950 . S
H1605 C1629 0.950 . S
H1606 C1630 0.950 . S
H1607 C1631 0.951 . S
H1608 C1633 0.951 . S
H1609 C1635 0.950 . S
H1610 C1636 0.950 . S
H1611 C1638 0.950 . S
H1612 C1641 0.950 . S
H1613 C1642 0.950 . S
H1614 C1644 0.950 . S
H1615 C1645 0.950 . S
C1616 H1598 0.951 . S
C1616 C1617 1.366 . S
C1616 C1618 1.388 . S
C1617 C1616 1.366 . S
C1617 C1621 1.385 . S
C1618 H1599 0.951 . S
C1618 C1616 1.388 . S
C1618 C1619 1.366 . S
C1619 C1618 1.366 . S
C1619 C1620 1.414 . S
C1619 C1622 1.499 . S
C1620 H1600 0.950 . S
C1620 C1619 1.414 . S
C1620 C1621 1.374 . S
C1621 H1601 0.950 . S
C1621 C1617 1.385 . S
C1621 C1620 1.374 . S
C1622 C1619 1.499 . S
C1622 C1623 1.373 . S
C1622 C1624 1.389 . S
C1623 H1602 0.950 . S
C1623 C1622 1.373 . S
C1623 C1639 1.377 . S
C1624 C1622 1.389 . S
C1624 C1625 1.524 . S
C1624 C1638 1.377 . S
C1625 C1624 1.524 . S
C1625 C1626 1.397 . S
C1625 C1630 1.363 . S
C1626 H1603 0.950 . S
C1626 C1625 1.397 . S
C1626 C1627 1.334 . S
C1627 H1604 0.950 . S
C1627 C1626 1.334 . S
C1627 C1628 1.287 . S
C1628 C1627 1.287 . S
C1628 C1629 1.524 . S
C1628 H1647 0.913 . S
C1629 H1605 0.950 . S
C1629 C1628 1.524 . S
C1629 C1630 1.415 . S
C1630 H1606 0.950 . S
C1630 C1625 1.363 . S
C1630 C1629 1.415 . S
C1631 H1607 0.951 . S
C1631 C1632 1.366 . S
C1631 C1633 1.388 . S
C1632 C1631 1.366 . S
C1632 C1636 1.385 . S
C1633 H1608 0.951 . S
C1633 C1631 1.388 . S
C1633 C1634 1.366 . S
C1634 C1633 1.366 . S
C1634 C1635 1.414 . S
C1634 C1637 1.499 . S
C1635 H1609 0.950 . S
C1635 C1634 1.414 . S
C1635 C1636 1.374 . S
C1636 H1610 0.950 . S
C1636 C1632 1.385 . S
C1636 C1635 1.374 . S
C1637 C1634 1.499 . S
C1637 C1638 1.373 . S
C1637 C1639 1.389 . S
C1638 H1611 0.950 . S
C1638 C1624 1.377 . S
C1638 C1637 1.373 . S
C1639 C1623 1.377 . S
C1639 C1637 1.389 . S
C1639 C1640 1.524 . S
C1640 C1639 1.524 . S
C1640 C1641 1.397 . S
C1640 C1645 1.363 . S
C1641 H1612 0.950 . S
C1641 C1640 1.397 . S
C1641 C1642 1.334 . S
C1642 H1613 0.950 . S
C1642 C1641 1.334 . S
C1642 C1643 1.287 . S
C1643 C1642 1.287 . S
C1643 C1644 1.524 . S
C1643 H1646 0.999 . S
C1644 H1614 0.950 . S
C1644 C1643 1.524 . S
C1644 C1645 1.415 . S
C1645 H1615 0.950 . S
C1645 C1640 1.363 . S
C1645 C1644 1.415 . S
H1646 C1643 0.999 . S
H1647 C1628 0.913 . S
H1648 C1666 0.951 . S
H1649 C1668 0.951 . S
H1650 C1670 0.950 . S
H1651 C1671 0.950 . S
H1652 C1673 0.950 . S
H1653 C1676 0.950 . S
H1654 C1677 0.950 . S
H1655 C1679 0.950 . S
H1656 C1680 0.950 . S
H1657 C1681 0.951 . S
H1658 C1683 0.951 . S
H1659 C1685 0.950 . S
H1660 C1686 0.950 . S
H1661 C1688 0.950 . S
H1662 C1691 0.950 . S
H1663 C1692 0.950 . S
H1664 C1694 0.950 . S
H1665 C1695 0.950 . S
C1666 H1648 0.951 . S
C1666 C1667 1.366 . S
C1666 C1668 1.388 . S
C1667 C1666 1.366 . S
C1667 C1671 1.385 . S
C1668 H1649 0.951 . S
C1668 C1666 1.388 . S
C1668 C1669 1.366 . S
C1669 C1668 1.366 . S
C1669 C1670 1.414 . S
C1669 C1672 1.499 . S
C1670 H1650 0.950 . S
C1670 C1669 1.414 . S
C1670 C1671 1.374 . S
C1671 H1651 0.950 . S
C1671 C1667 1.385 . S
C1671 C1670 1.374 . S
C1672 C1669 1.499 . S
C1672 C1673 1.373 . S
C1672 C1674 1.389 . S
C1673 H1652 0.950 . S
C1673 C1672 1.373 . S
C1673 C1689 1.377 . S
C1674 C1672 1.389 . S
C1674 C1675 1.524 . S
C1674 C1688 1.377 . S
C1675 C1674 1.524 . S
C1675 C1676 1.397 . S
C1675 C1680 1.363 . S
C1676 H1653 0.950 . S
C1676 C1675 1.397 . S
C1676 C1677 1.334 . S
C1677 H1654 0.950 . S
C1677 C1676 1.334 . S
C1677 C1678 1.287 . S
C1678 C1677 1.287 . S
C1678 C1679 1.524 . S
C1678 H1697 0.913 . S
C1679 H1655 0.950 . S
C1679 C1678 1.524 . S
C1679 C1680 1.415 . S
C1680 H1656 0.950 . S
C1680 C1675 1.363 . S
C1680 C1679 1.415 . S
C1681 H1657 0.951 . S
C1681 C1682 1.366 . S
C1681 C1683 1.388 . S
C1682 C1681 1.366 . S
C1682 C1686 1.385 . S
C1683 H1658 0.951 . S
C1683 C1681 1.388 . S
C1683 C1684 1.366 . S
C1684 C1683 1.366 . S
C1684 C1685 1.414 . S
C1684 C1687 1.499 . S
C1685 H1659 0.950 . S
C1685 C1684 1.414 . S
C1685 C1686 1.374 . S
C1686 H1660 0.950 . S
C1686 C1682 1.385 . S
C1686 C1685 1.374 . S
C1687 C1684 1.499 . S
C1687 C1688 1.373 . S
C1687 C1689 1.389 . S
C1688 H1661 0.950 . S
C1688 C1674 1.377 . S
C1688 C1687 1.373 . S
C1689 C1673 1.377 . S
C1689 C1687 1.389 . S
C1689 C1690 1.524 . S
C1690 C1689 1.524 . S
C1690 C1691 1.397 . S
C1690 C1695 1.363 . S
C1691 H1662 0.950 . S
C1691 C1690 1.397 . S
C1691 C1692 1.334 . S
C1692 H1663 0.950 . S
C1692 C1691 1.334 . S
C1692 C1693 1.287 . S
C1693 C1692 1.287 . S
C1693 C1694 1.524 . S
C1693 H1696 0.999 . S
C1694 H1664 0.950 . S
C1694 C1693 1.524 . S
C1694 C1695 1.415 . S
C1695 H1665 0.950 . S
C1695 C1690 1.363 . S
C1695 C1694 1.415 . S
H1696 C1693 0.999 . S
H1697 C1678 0.913 . S
H1698 C1716 0.951 . S
H1699 C1718 0.951 . S
H1700 C1720 0.950 . S
H1701 C1721 0.950 . S
H1702 C1723 0.950 . S
H1703 C1726 0.950 . S
H1704 C1727 0.950 . S
H1705 C1729 0.950 . S
H1706 C1730 0.950 . S
H1707 C1731 0.951 . S
H1708 C1733 0.951 . S
H1709 C1735 0.950 . S
H1710 C1736 0.950 . S
H1711 C1738 0.950 . S
H1712 C1741 0.950 . S
H1713 C1742 0.950 . S
H1714 C1744 0.950 . S
H1715 C1745 0.950 . S
C1716 H1698 0.951 . S
C1716 C1717 1.366 . S
C1716 C1718 1.388 . S
C1717 C1716 1.366 . S
C1717 C1721 1.385 . S
C1718 H1699 0.951 . S
C1718 C1716 1.388 . S
C1718 C1719 1.366 . S
C1719 C1718 1.366 . S
C1719 C1720 1.414 . S
C1719 C1722 1.499 . S
C1720 H1700 0.950 . S
C1720 C1719 1.414 . S
C1720 C1721 1.374 . S
C1721 H1701 0.950 . S
C1721 C1717 1.385 . S
C1721 C1720 1.374 . S
C1722 C1719 1.499 . S
C1722 C1723 1.373 . S
C1722 C1724 1.389 . S
C1723 H1702 0.950 . S
C1723 C1722 1.373 . S
C1723 C1739 1.377 . S
C1724 C1722 1.389 . S
C1724 C1725 1.524 . S
C1724 C1738 1.377 . S
C1725 C1724 1.524 . S
C1725 C1726 1.397 . S
C1725 C1730 1.363 . S
C1726 H1703 0.950 . S
C1726 C1725 1.397 . S
C1726 C1727 1.334 . S
C1727 H1704 0.950 . S
C1727 C1726 1.334 . S
C1727 C1728 1.287 . S
C1728 C1727 1.287 . S
C1728 C1729 1.524 . S
C1728 H1747 0.913 . S
C1729 H1705 0.950 . S
C1729 C1728 1.524 . S
C1729 C1730 1.415 . S
C1730 H1706 0.950 . S
C1730 C1725 1.363 . S
C1730 C1729 1.415 . S
C1731 H1707 0.951 . S
C1731 C1732 1.366 . S
C1731 C1733 1.388 . S
C1732 C1731 1.366 . S
C1732 C1736 1.385 . S
C1733 H1708 0.951 . S
C1733 C1731 1.388 . S
C1733 C1734 1.366 . S
C1734 C1733 1.366 . S
C1734 C1735 1.414 . S
C1734 C1737 1.499 . S
C1735 H1709 0.950 . S
C1735 C1734 1.414 . S
C1735 C1736 1.374 . S
C1736 H1710 0.950 . S
C1736 C1732 1.385 . S
C1736 C1735 1.374 . S
C1737 C1734 1.499 . S
C1737 C1738 1.373 . S
C1737 C1739 1.389 . S
C1738 H1711 0.950 . S
C1738 C1724 1.377 . S
C1738 C1737 1.373 . S
C1739 C1723 1.377 . S
C1739 C1737 1.389 . S
C1739 C1740 1.524 . S
C1740 C1739 1.524 . S
C1740 C1741 1.397 . S
C1740 C1745 1.363 . S
C1741 H1712 0.950 . S
C1741 C1740 1.397 . S
C1741 C1742 1.334 . S
C1742 H1713 0.950 . S
C1742 C1741 1.334 . S
C1742 C1743 1.287 . S
C1743 C1742 1.287 . S
C1743 C1744 1.524 . S
C1743 H1746 0.999 . S
C1744 H1714 0.950 . S
C1744 C1743 1.524 . S
C1744 C1745 1.415 . S
C1745 H1715 0.950 . S
C1745 C1740 1.363 . S
C1745 C1744 1.415 . S
H1746 C1743 0.999 . S
H1747 C1728 0.913 . S
H1748 C1766 0.951 . S
H1749 C1768 0.951 . S
H1750 C1770 0.950 . S
H1751 C1771 0.950 . S
H1752 C1773 0.950 . S
H1753 C1776 0.950 . S
H1754 C1777 0.950 . S
H1755 C1779 0.950 . S
H1756 C1780 0.950 . S
H1757 C1781 0.951 . S
H1758 C1783 0.951 . S
H1759 C1785 0.950 . S
H1760 C1786 0.950 . S
H1761 C1788 0.950 . S
H1762 C1791 0.950 . S
H1763 C1792 0.950 . S
H1764 C1794 0.950 . S
H1765 C1795 0.950 . S
C1766 H1748 0.951 . S
C1766 C1767 1.366 . S
C1766 C1768 1.388 . S
C1767 C1766 1.366 . S
C1767 C1771 1.385 . S
C1768 H1749 0.951 . S
C1768 C1766 1.388 . S
C1768 C1769 1.366 . S
C1769 C1768 1.366 . S
C1769 C1770 1.414 . S
C1769 C1772 1.499 . S
C1770 H1750 0.950 . S
C1770 C1769 1.414 . S
C1770 C1771 1.374 . S
C1771 H1751 0.950 . S
C1771 C1767 1.385 . S
C1771 C1770 1.374 . S
C1772 C1769 1.499 . S
C1772 C1773 1.373 . S
C1772 C1774 1.389 . S
C1773 H1752 0.950 . S
C1773 C1772 1.373 . S
C1773 C1789 1.377 . S
C1774 C1772 1.389 . S
C1774 C1775 1.524 . S
C1774 C1788 1.377 . S
C1775 C1774 1.524 . S
C1775 C1776 1.397 . S
C1775 C1780 1.363 . S
C1776 H1753 0.950 . S
C1776 C1775 1.397 . S
C1776 C1777 1.334 . S
C1777 H1754 0.950 . S
C1777 C1776 1.334 . S
C1777 C1778 1.287 . S
C1778 C1777 1.287 . S
C1778 C1779 1.524 . S
C1778 H1797 0.913 . S
C1779 H1755 0.950 . S
C1779 C1778 1.524 . S
C1779 C1780 1.415 . S
C1780 H1756 0.950 . S
C1780 C1775 1.363 . S
C1780 C1779 1.415 . S
C1781 H1757 0.951 . S
C1781 C1782 1.366 . S
C1781 C1783 1.388 . S
C1782 C1781 1.366 . S
C1782 C1786 1.385 . S
C1783 H1758 0.951 . S
C1783 C1781 1.388 . S
C1783 C1784 1.366 . S
C1784 C1783 1.366 . S
C1784 C1785 1.414 . S
C1784 C1787 1.499 . S
C1785 H1759 0.950 . S
C1785 C1784 1.414 . S
C1785 C1786 1.374 . S
C1786 H1760 0.950 . S
C1786 C1782 1.385 . S
C1786 C1785 1.374 . S
C1787 C1784 1.499 . S
C1787 C1788 1.373 . S
C1787 C1789 1.389 . S
C1788 H1761 0.950 . S
C1788 C1774 1.377 . S
C1788 C1787 1.373 . S
C1789 C1773 1.377 . S
C1789 C1787 1.389 . S
C1789 C1790 1.524 . S
C1790 C1789 1.524 . S
C1790 C1791 1.397 . S
C1790 C1795 1.363 . S
C1791 H1762 0.950 . S
C1791 C1790 1.397 . S
C1791 C1792 1.334 . S
C1792 H1763 0.950 . S
C1792 C1791 1.334 . S
C1792 C1793 1.287 . S
C1793 C1792 1.287 . S
C1793 C1794 1.524 . S
C1793 H1796 0.999 . S
C1794 H1764 0.950 . S
C1794 C1793 1.524 . S
C1794 C1795 1.415 . S
C1795 H1765 0.950 . S
C1795 C1790 1.363 . S
C1795 C1794 1.415 . S
H1796 C1793 0.999 . S
H1797 C1778 0.913 . S
H1798 C1816 0.951 . S
H1799 C1818 0.951 1_655 S
H1800 C1820 0.950 . S
H1801 C1821 0.950 . S
H1802 C1823 0.950 . S
H1803 C1826 0.950 1_455 S
H1804 C1827 0.962 . S
H1805 C1829 0.950 . S
H1806 C1830 0.950 . S
H1807 C1831 0.951 . S
H1808 C1833 0.951 . S
H1809 C1835 0.950 . S
H1810 C1836 0.950 . S
H1811 C1838 0.950 . S
H1812 C1841 0.950 . S
H1813 C1842 0.950 . S
H1814 C1844 0.950 . S
H1815 C1845 0.950 . S
C1816 H1798 0.951 . S
C1816 C1817 1.366 . S
C1816 C1818 1.388 . S
C1817 C1816 1.366 . S
C1817 C1821 1.385 . S
C1818 H1799 0.951 1_455 S
C1818 C1816 1.388 . S
C1818 C1819 1.366 . S
C1819 C1818 1.366 . S
C1819 C1820 1.414 . S
C1819 C1822 1.499 1_455 S
C1820 H1800 0.950 . S
C1820 C1819 1.414 . S
C1820 C1821 1.374 . S
C1821 H1801 0.950 . S
C1821 C1817 1.385 . S
C1821 C1820 1.374 . S
C1822 C1819 1.499 1_655 S
C1822 C1823 1.373 . S
C1822 C1824 1.389 . S
C1823 H1802 0.950 . S
C1823 C1822 1.373 . S
C1823 C1839 1.377 . S
C1824 C1822 1.389 . S
C1824 C1825 1.524 . S
C1824 C1838 1.377 . S
C1825 C1824 1.524 . S
C1825 C1826 1.397 . S
C1825 C1830 1.363 . S
C1826 H1803 0.950 1_655 S
C1826 C1825 1.397 . S
C1826 C1827 1.331 1_655 S
C1827 H1804 0.962 . S
C1827 C1826 1.331 1_455 S
C1827 C1828 1.278 1_455 S
C1828 C1827 1.278 1_655 S
C1828 C1829 1.524 . S
C1828 H1847 0.913 . S
C1829 H1805 0.950 . S
C1829 C1828 1.524 . S
C1829 C1830 1.415 . S
C1830 H1806 0.950 . S
C1830 C1825 1.363 . S
C1830 C1829 1.415 . S
C1831 H1807 0.951 . S
C1831 C1832 1.366 . S
C1831 C1833 1.388 . S
C1832 C1831 1.366 . S
C1832 C1836 1.385 . S
C1833 H1808 0.951 . S
C1833 C1831 1.388 . S
C1833 C1834 1.366 . S
C1834 C1833 1.366 . S
C1834 C1835 1.414 . S
C1834 C1837 1.499 . S
C1835 H1809 0.950 . S
C1835 C1834 1.414 . S
C1835 C1836 1.374 . S
C1836 H1810 0.950 . S
C1836 C1832 1.385 . S
C1836 C1835 1.374 . S
C1837 C1834 1.499 . S
C1837 C1838 1.373 . S
C1837 C1839 1.389 . S
C1838 H1811 0.950 . S
C1838 C1824 1.377 . S
C1838 C1837 1.373 . S
C1839 C1823 1.377 . S
C1839 C1837 1.389 . S
C1839 C1840 1.524 . S
C1840 C1839 1.524 . S
C1840 C1841 1.397 . S
C1840 C1845 1.363 . S
C1841 H1812 0.950 . S
C1841 C1840 1.397 . S
C1841 C1842 1.334 . S
C1842 H1813 0.950 . S
C1842 C1841 1.334 . S
C1842 C1843 1.287 . S
C1843 C1842 1.287 . S
C1843 C1844 1.524 . S
C1843 H1846 0.999 . S
C1844 H1814 0.950 . S
C1844 C1843 1.524 . S
C1844 C1845 1.415 . S
C1845 H1815 0.950 . S
C1845 C1840 1.363 . S
C1845 C1844 1.415 . S
H1846 C1843 0.999 . S
H1847 C1828 0.913 . S
H1848 C1866 0.951 . S
H1849 C1868 0.951 . S
H1850 C1870 0.950 . S
H1851 C1871 0.950 . S
H1852 C1873 0.950 . S
H1853 C1876 0.950 . S
H1854 C1877 0.950 . S
H1855 C1879 0.950 . S
H1856 C1880 0.950 . S
H1857 C1881 0.951 . S
H1858 C1883 0.951 . S
H1859 C1885 0.950 . S
H1860 C1886 0.950 . S
H1861 C1888 0.950 . S
H1862 C1891 0.950 . S
H1863 C1892 0.950 . S
H1864 C1894 0.950 . S
H1865 C1895 0.950 . S
C1866 H1848 0.951 . S
C1866 C1867 1.366 . S
C1866 C1868 1.388 . S
C1867 C1866 1.366 . S
C1867 C1871 1.385 . S
C1868 H1849 0.951 . S
C1868 C1866 1.388 . S
C1868 C1869 1.366 . S
C1869 C1868 1.366 . S
C1869 C1870 1.414 . S
C1869 C1872 1.499 . S
C1870 H1850 0.950 . S
C1870 C1869 1.414 . S
C1870 C1871 1.374 . S
C1871 H1851 0.950 . S
C1871 C1867 1.385 . S
C1871 C1870 1.374 . S
C1872 C1869 1.499 . S
C1872 C1873 1.373 . S
C1872 C1874 1.389 . S
C1873 H1852 0.950 . S
C1873 C1872 1.373 . S
C1873 C1889 1.377 . S
C1874 C1872 1.389 . S
C1874 C1875 1.524 . S
C1874 C1888 1.377 . S
C1875 C1874 1.524 . S
C1875 C1876 1.397 . S
C1875 C1880 1.363 . S
C1876 H1853 0.950 . S
C1876 C1875 1.397 . S
C1876 C1877 1.334 . S
C1877 H1854 0.950 . S
C1877 C1876 1.334 . S
C1877 C1878 1.287 . S
C1878 C1877 1.287 . S
C1878 C1879 1.524 . S
C1878 H1897 0.913 . S
C1879 H1855 0.950 . S
C1879 C1878 1.524 . S
C1879 C1880 1.415 . S
C1880 H1856 0.950 . S
C1880 C1875 1.363 . S
C1880 C1879 1.415 . S
C1881 H1857 0.951 . S
C1881 C1882 1.366 . S
C1881 C1883 1.388 . S
C1882 C1881 1.366 . S
C1882 C1886 1.385 . S
C1883 H1858 0.951 . S
C1883 C1881 1.388 . S
C1883 C1884 1.366 . S
C1884 C1883 1.366 . S
C1884 C1885 1.414 . S
C1884 C1887 1.499 . S
C1885 H1859 0.950 . S
C1885 C1884 1.414 . S
C1885 C1886 1.374 . S
C1886 H1860 0.950 . S
C1886 C1882 1.385 . S
C1886 C1885 1.374 . S
C1887 C1884 1.499 . S
C1887 C1888 1.373 . S
C1887 C1889 1.389 . S
C1888 H1861 0.950 . S
C1888 C1874 1.377 . S
C1888 C1887 1.373 . S
C1889 C1873 1.377 . S
C1889 C1887 1.389 . S
C1889 C1890 1.524 . S
C1890 C1889 1.524 . S
C1890 C1891 1.397 . S
C1890 C1895 1.363 . S
C1891 H1862 0.950 . S
C1891 C1890 1.397 . S
C1891 C1892 1.334 . S
C1892 H1863 0.950 . S
C1892 C1891 1.334 . S
C1892 C1893 1.287 . S
C1893 C1892 1.287 . S
C1893 C1894 1.524 . S
C1893 H1896 0.999 . S
C1894 H1864 0.950 . S
C1894 C1893 1.524 . S
C1894 C1895 1.415 . S
C1895 H1865 0.950 . S
C1895 C1890 1.363 . S
C1895 C1894 1.415 . S
H1896 C1893 0.999 . S
H1897 C1878 0.913 . S
H1898 C1916 0.951 . S
H1899 C1918 0.951 . S
H1900 C1920 0.950 1_655 S
H1901 C1921 0.950 . S
H1902 C1923 0.950 . S
H1903 C1926 0.950 1_655 S
H1904 C1927 0.950 . S
H1905 C1929 0.950 . S
H1906 C1930 0.935 1_655 S
H1907 C1931 0.951 . S
H1908 C1933 0.951 . S
H1909 C1935 0.950 . S
H1910 C1936 0.950 . S
H1911 C1938 0.950 . S
H1912 C1941 0.950 . S
H1913 C1942 0.950 . S
H1914 C1944 0.950 . S
H1915 C1945 0.950 . S
C1916 H1898 0.951 . S
C1916 C1917 1.366 . S
C1916 C1918 1.388 . S
C1917 C1916 1.366 . S
C1917 C1921 1.385 . S
C1918 H1899 0.951 . S
C1918 C1916 1.388 . S
C1918 C1919 1.366 . S
C1919 C1918 1.366 . S
C1919 C1920 1.414 . S
C1919 C1922 1.499 1_455 S
C1920 H1900 0.950 1_455 S
C1920 C1919 1.414 . S
C1920 C1921 1.374 . S
C1921 H1901 0.950 . S
C1921 C1917 1.385 . S
C1921 C1920 1.374 . S
C1922 C1919 1.499 1_655 S
C1922 C1923 1.373 . S
C1922 C1924 1.389 . S
C1923 H1902 0.950 . S
C1923 C1922 1.373 . S
C1923 C1939 1.377 . S
C1924 C1922 1.389 . S
C1924 C1925 1.524 . S
C1924 C1938 1.377 . S
C1925 C1924 1.524 . S
C1925 C1926 1.397 1_655 S
C1925 C1930 1.363 1_655 S
C1926 H1903 0.950 1_455 S
C1926 C1925 1.397 1_455 S
C1926 C1927 1.334 . S
C1927 H1904 0.950 . S
C1927 C1926 1.334 . S
C1927 C1928 1.287 . S
C1928 C1927 1.287 . S
C1928 C1929 1.524 . S
C1928 H1947 0.913 . S
C1929 H1905 0.950 . S
C1929 C1928 1.524 . S
C1929 C1930 1.415 . S
C1930 H1906 0.935 1_455 S
C1930 C1925 1.363 1_455 S
C1930 C1929 1.415 . S
C1931 H1907 0.951 . S
C1931 C1932 1.366 . S
C1931 C1933 1.388 . S
C1932 C1931 1.366 . S
C1932 C1936 1.385 . S
C1933 H1908 0.951 . S
C1933 C1931 1.388 . S
C1933 C1934 1.366 . S
C1934 C1933 1.366 . S
C1934 C1935 1.414 . S
C1934 C1937 1.499 . S
C1935 H1909 0.950 . S
C1935 C1934 1.414 . S
C1935 C1936 1.374 . S
C1936 H1910 0.950 . S
C1936 C1932 1.385 . S
C1936 C1935 1.374 . S
C1937 C1934 1.499 . S
C1937 C1938 1.373 . S
C1937 C1939 1.389 . S
C1938 H1911 0.950 . S
C1938 C1924 1.377 . S
C1938 C1937 1.373 . S
C1939 C1923 1.377 . S
C1939 C1937 1.389 . S
C1939 C1940 1.524 . S
C1940 C1939 1.524 . S
C1940 C1941 1.397 . S
C1940 C1945 1.363 . S
C1941 H1912 0.950 . S
C1941 C1940 1.397 . S
C1941 C1942 1.334 . S
C1942 H1913 0.950 . S
C1942 C1941 1.334 . S
C1942 C1943 1.287 . S
C1943 C1942 1.287 . S
C1943 C1944 1.524 . S
C1943 H1946 0.999 . S
C1944 H1914 0.950 . S
C1944 C1943 1.524 . S
C1944 C1945 1.415 . S
C1945 H1915 0.950 . S
C1945 C1940 1.363 . S
C1945 C1944 1.415 . S
H1946 C1943 0.999 . S
H1947 C1928 0.913 . S
H1948 C1966 0.951 . S
H1949 C1968 0.951 . S
H1950 C1970 0.950 . S
H1951 C1971 0.950 . S
H1952 C1973 0.950 . S
H1953 C1976 0.950 . S
H1954 C1977 0.950 . S
H1955 C1979 0.950 . S
H1956 C1980 0.950 . S
H1957 C1981 0.951 . S
H1958 C1983 0.951 . S
H1959 C1985 0.950 . S
H1960 C1986 0.950 . S
H1961 C1988 0.950 . S
H1962 C1991 0.950 . S
H1963 C1992 0.950 . S
H1964 C1994 0.950 . S
H1965 C1995 0.950 . S
C1966 H1948 0.951 . S
C1966 C1967 1.366 . S
C1966 C1968 1.388 . S
C1967 C1966 1.366 . S
C1967 C1971 1.385 . S
C1968 H1949 0.951 . S
C1968 C1966 1.388 . S
C1968 C1969 1.366 . S
C1969 C1968 1.366 . S
C1969 C1970 1.414 . S
C1969 C1972 1.499 . S
C1970 H1950 0.950 . S
C1970 C1969 1.414 . S
C1970 C1971 1.374 . S
C1971 H1951 0.950 . S
C1971 C1967 1.385 . S
C1971 C1970 1.374 . S
C1972 C1969 1.499 . S
C1972 C1973 1.373 . S
C1972 C1974 1.389 . S
C1973 H1952 0.950 . S
C1973 C1972 1.373 . S
C1973 C1989 1.377 . S
C1974 C1972 1.389 . S
C1974 C1975 1.524 . S
C1974 C1988 1.377 . S
C1975 C1974 1.524 . S
C1975 C1976 1.397 . S
C1975 C1980 1.363 . S
C1976 H1953 0.950 . S
C1976 C1975 1.397 . S
C1976 C1977 1.334 . S
C1977 H1954 0.950 . S
C1977 C1976 1.334 . S
C1977 C1978 1.287 . S
C1978 C1977 1.287 . S
C1978 C1979 1.524 . S
C1978 H1997 0.913 . S
C1979 H1955 0.950 . S
C1979 C1978 1.524 . S
C1979 C1980 1.415 . S
C1980 H1956 0.950 . S
C1980 C1975 1.363 . S
C1980 C1979 1.415 . S
C1981 H1957 0.951 . S
C1981 C1982 1.366 . S
C1981 C1983 1.388 . S
C1982 C1981 1.366 . S
C1982 C1986 1.385 . S
C1983 H1958 0.951 . S
C1983 C1981 1.388 . S
C1983 C1984 1.366 . S
C1984 C1983 1.366 . S
C1984 C1985 1.414 . S
C1984 C1987 1.499 . S
C1985 H1959 0.950 . S
C1985 C1984 1.414 . S
C1985 C1986 1.374 . S
C1986 H1960 0.950 . S
C1986 C1982 1.385 . S
C1986 C1985 1.374 . S
C1987 C1984 1.499 . S
C1987 C1988 1.373 . S
C1987 C1989 1.389 . S
C1988 H1961 0.950 . S
C1988 C1974 1.377 . S
C1988 C1987 1.373 . S
C1989 C1973 1.377 . S
C1989 C1987 1.389 . S
C1989 C1990 1.524 . S
C1990 C1989 1.524 . S
C1990 C1991 1.397 . S
C1990 C1995 1.363 . S
C1991 H1962 0.950 . S
C1991 C1990 1.397 . S
C1991 C1992 1.334 . S
C1992 H1963 0.950 . S
C1992 C1991 1.334 . S
C1992 C1993 1.287 . S
C1993 C1992 1.287 . S
C1993 C1994 1.524 . S
C1993 H1996 0.999 . S
C1994 H1964 0.950 . S
C1994 C1993 1.524 . S
C1994 C1995 1.415 . S
C1995 H1965 0.950 . S
C1995 C1990 1.363 . S
C1995 C1994 1.415 . S
H1996 C1993 0.999 . S
H1997 C1978 0.913 . S
H1998 C2016 0.951 . S
H1999 C2018 0.951 . S
H2000 C2020 0.950 . S
H2001 C2021 0.950 . S
H2002 C2023 0.950 . S
H2003 C2026 0.950 . S
H2004 C2027 0.950 . S
H2005 C2029 0.950 . S
H2006 C2030 0.950 . S
H2007 C2031 0.951 . S
H2008 C2033 0.951 . S
H2009 C2035 0.950 . S
H2010 C2036 0.950 . S
H2011 C2038 0.950 . S
H2012 C2041 0.950 . S
H2013 C2042 0.950 . S
H2014 C2044 0.950 . S
H2015 C2045 0.950 . S
C2016 H1998 0.951 . S
C2016 C2017 1.366 . S
C2016 C2018 1.388 . S
C2017 C2016 1.366 . S
C2017 C2021 1.385 . S
C2018 H1999 0.951 . S
C2018 C2016 1.388 . S
C2018 C2019 1.366 . S
C2019 C2018 1.366 . S
C2019 C2020 1.414 . S
C2019 C2022 1.499 . S
C2020 H2000 0.950 . S
C2020 C2019 1.414 . S
C2020 C2021 1.374 . S
C2021 H2001 0.950 . S
C2021 C2017 1.385 . S
C2021 C2020 1.374 . S
C2022 C2019 1.499 . S
C2022 C2023 1.373 . S
C2022 C2024 1.389 . S
C2023 H2002 0.950 . S
C2023 C2022 1.373 . S
C2023 C2039 1.377 . S
C2024 C2022 1.389 . S
C2024 C2025 1.524 . S
C2024 C2038 1.377 . S
C2025 C2024 1.524 . S
C2025 C2026 1.397 . S
C2025 C2030 1.363 . S
C2026 H2003 0.950 . S
C2026 C2025 1.397 . S
C2026 C2027 1.334 . S
C2027 H2004 0.950 . S
C2027 C2026 1.334 . S
C2027 C2028 1.287 . S
C2028 C2027 1.287 . S
C2028 C2029 1.524 . S
C2028 H2047 0.913 . S
C2029 H2005 0.950 . S
C2029 C2028 1.524 . S
C2029 C2030 1.415 . S
C2030 H2006 0.950 . S
C2030 C2025 1.363 . S
C2030 C2029 1.415 . S
C2031 H2007 0.951 . S
C2031 C2032 1.366 . S
C2031 C2033 1.388 . S
C2032 C2031 1.366 . S
C2032 C2036 1.385 . S
C2033 H2008 0.951 . S
C2033 C2031 1.388 . S
C2033 C2034 1.366 . S
C2034 C2033 1.366 . S
C2034 C2035 1.414 . S
C2034 C2037 1.499 . S
C2035 H2009 0.950 . S
C2035 C2034 1.414 . S
C2035 C2036 1.374 . S
C2036 H2010 0.950 . S
C2036 C2032 1.385 . S
C2036 C2035 1.374 . S
C2037 C2034 1.499 . S
C2037 C2038 1.373 . S
C2037 C2039 1.389 . S
C2038 H2011 0.950 . S
C2038 C2024 1.377 . S
C2038 C2037 1.373 . S
C2039 C2023 1.377 . S
C2039 C2037 1.389 . S
C2039 C2040 1.524 . S
C2040 C2039 1.524 . S
C2040 C2041 1.397 . S
C2040 C2045 1.363 . S
C2041 H2012 0.950 . S
C2041 C2040 1.397 . S
C2041 C2042 1.334 . S
C2042 H2013 0.950 . S
C2042 C2041 1.334 . S
C2042 C2043 1.287 . S
C2043 C2042 1.287 . S
C2043 C2044 1.524 . S
C2043 H2046 0.999 . S
C2044 H2014 0.950 . S
C2044 C2043 1.524 . S
C2044 C2045 1.415 . S
C2045 H2015 0.950 . S
C2045 C2040 1.363 . S
C2045 C2044 1.415 . S
H2046 C2043 0.999 . S
H2047 C2028 0.913 . S
H2048 C2066 0.951 . S
H2049 C2068 0.951 . S
H2050 C2070 0.950 . S
H2051 C2071 0.950 . S
H2052 C2073 0.950 . S
H2053 C2076 0.950 . S
H2054 C2077 0.950 . S
H2055 C2079 0.950 . S
H2056 C2080 0.950 . S
H2057 C2081 0.951 . S
H2058 C2083 0.951 . S
H2059 C2085 0.950 . S
H2060 C2086 0.950 . S
H2061 C2088 0.950 . S
H2062 C2091 0.950 . S
H2063 C2092 0.950 . S
H2064 C2094 0.950 . S
H2065 C2095 0.950 . S
C2066 H2048 0.951 . S
C2066 C2067 1.366 . S
C2066 C2068 1.388 . S
C2067 C2066 1.366 . S
C2067 C2071 1.385 . S
C2068 H2049 0.951 . S
C2068 C2066 1.388 . S
C2068 C2069 1.366 . S
C2069 C2068 1.366 . S
C2069 C2070 1.414 . S
C2069 C2072 1.499 . S
C2070 H2050 0.950 . S
C2070 C2069 1.414 . S
C2070 C2071 1.374 . S
C2071 H2051 0.950 . S
C2071 C2067 1.385 . S
C2071 C2070 1.374 . S
C2072 C2069 1.499 . S
C2072 C2073 1.373 . S
C2072 C2074 1.389 . S
C2073 H2052 0.950 . S
C2073 C2072 1.373 . S
C2073 C2089 1.377 . S
C2074 C2072 1.389 . S
C2074 C2075 1.524 . S
C2074 C2088 1.377 . S
C2075 C2074 1.524 . S
C2075 C2076 1.397 . S
C2075 C2080 1.363 . S
C2076 H2053 0.950 . S
C2076 C2075 1.397 . S
C2076 C2077 1.334 . S
C2077 H2054 0.950 . S
C2077 C2076 1.334 . S
C2077 C2078 1.287 . S
C2078 C2077 1.287 . S
C2078 C2079 1.524 . S
C2078 H2097 0.913 . S
C2079 H2055 0.950 . S
C2079 C2078 1.524 . S
C2079 C2080 1.415 . S
C2080 H2056 0.950 . S
C2080 C2075 1.363 . S
C2080 C2079 1.415 . S
C2081 H2057 0.951 . S
C2081 C2082 1.366 . S
C2081 C2083 1.388 . S
C2082 C2081 1.366 . S
C2082 C2086 1.385 . S
C2083 H2058 0.951 . S
C2083 C2081 1.388 . S
C2083 C2084 1.366 . S
C2084 C2083 1.366 . S
C2084 C2085 1.414 . S
C2084 C2087 1.499 . S
C2085 H2059 0.950 . S
C2085 C2084 1.414 . S
C2085 C2086 1.374 . S
C2086 H2060 0.950 . S
C2086 C2082 1.385 . S
C2086 C2085 1.374 . S
C2087 C2084 1.499 . S
C2087 C2088 1.373 . S
C2087 C2089 1.389 . S
C2088 H2061 0.950 . S
C2088 C2074 1.377 . S
C2088 C2087 1.373 . S
C2089 C2073 1.377 . S
C2089 C2087 1.389 . S
C2089 C2090 1.524 . S
C2090 C2089 1.524 . S
C2090 C2091 1.397 . S
C2090 C2095 1.363 . S
C2091 H2062 0.950 . S
C2091 C2090 1.397 . S
C2091 C2092 1.334 . S
C2092 H2063 0.950 . S
C2092 C2091 1.334 . S
C2092 C2093 1.287 . S
C2093 C2092 1.287 . S
C2093 C2094 1.524 . S
C2093 H2096 0.999 . S
C2094 H2064 0.950 . S
C2094 C2093 1.524 . S
C2094 C2095 1.415 . S
C2095 H2065 0.950 . S
C2095 C2090 1.363 . S
C2095 C2094 1.415 . S
H2096 C2093 0.999 . S
H2097 C2078 0.913 . S
H2098 C2116 0.951 . S
H2099 C2118 0.951 . S
H2100 C2120 0.950 . S
H2101 C2121 0.950 . S
H2102 C2123 0.950 . S
H2103 C2126 0.950 . S
H2104 C2127 0.950 . S
H2105 C2129 0.950 . S
H2106 C2130 0.950 . S
H2107 C2131 0.951 . S
H2108 C2133 0.951 . S
H2109 C2135 0.950 . S
H2110 C2136 0.950 . S
H2111 C2138 0.950 . S
H2112 C2141 0.950 . S
H2113 C2142 0.950 . S
H2114 C2144 0.950 . S
H2115 C2145 0.950 . S
C2116 H2098 0.951 . S
C2116 C2117 1.366 . S
C2116 C2118 1.388 . S
C2117 C2116 1.366 . S
C2117 C2121 1.385 . S
C2118 H2099 0.951 . S
C2118 C2116 1.388 . S
C2118 C2119 1.366 . S
C2119 C2118 1.366 . S
C2119 C2120 1.414 . S
C2119 C2122 1.499 . S
C2120 H2100 0.950 . S
C2120 C2119 1.414 . S
C2120 C2121 1.374 . S
C2121 H2101 0.950 . S
C2121 C2117 1.385 . S
C2121 C2120 1.374 . S
C2122 C2119 1.499 . S
C2122 C2123 1.373 1_455 S
C2122 C2124 1.389 1_565 S
C2123 H2102 0.950 . S
C2123 C2122 1.373 1_655 S
C2123 C2139 1.377 . S
C2124 C2122 1.389 1_545 S
C2124 C2125 1.524 . S
C2124 C2138 1.377 . S
C2125 C2124 1.524 . S
C2125 C2126 1.397 . S
C2125 C2130 1.363 . S
C2126 H2103 0.950 . S
C2126 C2125 1.397 . S
C2126 C2127 1.334 . S
C2127 H2104 0.950 . S
C2127 C2126 1.334 . S
C2127 C2128 1.287 . S
C2128 C2127 1.287 . S
C2128 C2129 1.524 . S
C2128 H2147 0.913 . S
C2129 H2105 0.950 . S
C2129 C2128 1.524 . S
C2129 C2130 1.415 . S
C2130 H2106 0.950 . S
C2130 C2125 1.363 . S
C2130 C2129 1.415 . S
C2131 H2107 0.951 . S
C2131 C2132 1.366 . S
C2131 C2133 1.388 . S
C2132 C2131 1.366 . S
C2132 C2136 1.385 . S
C2133 H2108 0.951 . S
C2133 C2131 1.388 . S
C2133 C2134 1.366 . S
C2134 C2133 1.366 . S
C2134 C2135 1.414 . S
C2134 C2137 1.499 . S
C2135 H2109 0.950 . S
C2135 C2134 1.414 . S
C2135 C2136 1.374 . S
C2136 H2110 0.950 . S
C2136 C2132 1.385 . S
C2136 C2135 1.374 . S
C2137 C2134 1.499 . S
C2137 C2138 1.373 1_655 S
C2137 C2139 1.389 1_545 S
C2138 H2111 0.950 . S
C2138 C2124 1.377 . S
C2138 C2137 1.373 1_455 S
C2139 C2123 1.377 . S
C2139 C2137 1.389 1_565 S
C2139 C2140 1.524 . S
C2140 C2139 1.524 . S
C2140 C2141 1.397 . S
C2140 C2145 1.363 . S
C2141 H2112 0.950 . S
C2141 C2140 1.397 . S
C2141 C2142 1.334 . S
C2142 H2113 0.950 . S
C2142 C2141 1.334 . S
C2142 C2143 1.287 . S
C2143 C2142 1.287 . S
C2143 C2144 1.524 . S
C2143 H2146 0.999 . S
C2144 H2114 0.950 . S
C2144 C2143 1.524 . S
C2144 C2145 1.415 . S
C2145 H2115 0.950 . S
C2145 C2140 1.363 . S
C2145 C2144 1.415 . S
H2146 C2143 0.999 . S
H2147 C2128 0.913 . S
H2148 C2166 0.951 . S
H2149 C2168 0.951 . S
H2150 C2170 0.950 . S
H2151 C2171 0.950 . S
H2152 C2173 0.950 . S
H2153 C2176 0.950 . S
H2154 C2177 0.950 . S
H2155 C2179 0.950 . S
H2156 C2180 0.950 . S
H2157 C2181 0.951 . S
H2158 C2183 0.951 . S
H2159 C2185 0.950 . S
H2160 C2186 0.950 . S
H2161 C2188 0.950 . S
H2162 C2191 0.950 . S
H2163 C2192 0.950 . S
H2164 C2194 0.950 . S
H2165 C2195 0.950 . S
C2166 H2148 0.951 . S
C2166 C2167 1.366 . S
C2166 C2168 1.388 . S
C2167 C2166 1.366 . S
C2167 C2171 1.385 . S
C2168 H2149 0.951 . S
C2168 C2166 1.388 . S
C2168 C2169 1.366 . S
C2169 C2168 1.366 . S
C2169 C2170 1.414 . S
C2169 C2172 1.499 . S
C2170 H2150 0.950 . S
C2170 C2169 1.414 . S
C2170 C2171 1.374 . S
C2171 H2151 0.950 . S
C2171 C2167 1.385 . S
C2171 C2170 1.374 . S
C2172 C2169 1.499 . S
C2172 C2173 1.373 . S
C2172 C2174 1.389 . S
C2173 H2152 0.950 . S
C2173 C2172 1.373 . S
C2173 C2189 1.377 . S
C2174 C2172 1.389 . S
C2174 C2175 1.524 . S
C2174 C2188 1.377 . S
C2175 C2174 1.524 . S
C2175 C2176 1.397 . S
C2175 C2180 1.363 . S
C2176 H2153 0.950 . S
C2176 C2175 1.397 . S
C2176 C2177 1.334 . S
C2177 H2154 0.950 . S
C2177 C2176 1.334 . S
C2177 C2178 1.287 . S
C2178 C2177 1.287 . S
C2178 C2179 1.524 . S
C2178 H2197 0.913 . S
C2179 H2155 0.950 . S
C2179 C2178 1.524 . S
C2179 C2180 1.415 . S
C2180 H2156 0.950 . S
C2180 C2175 1.363 . S
C2180 C2179 1.415 . S
C2181 H2157 0.951 . S
C2181 C2182 1.366 . S
C2181 C2183 1.388 . S
C2182 C2181 1.366 . S
C2182 C2186 1.385 . S
C2183 H2158 0.951 . S
C2183 C2181 1.388 . S
C2183 C2184 1.366 . S
C2184 C2183 1.366 . S
C2184 C2185 1.414 . S
C2184 C2187 1.499 . S
C2185 H2159 0.950 . S
C2185 C2184 1.414 . S
C2185 C2186 1.374 . S
C2186 H2160 0.950 . S
C2186 C2182 1.385 . S
C2186 C2185 1.374 . S
C2187 C2184 1.499 . S
C2187 C2188 1.373 . S
C2187 C2189 1.389 . S
C2188 H2161 0.950 . S
C2188 C2174 1.377 . S
C2188 C2187 1.373 . S
C2189 C2173 1.377 . S
C2189 C2187 1.389 . S
C2189 C2190 1.524 . S
C2190 C2189 1.524 . S
C2190 C2191 1.397 . S
C2190 C2195 1.363 . S
C2191 H2162 0.950 . S
C2191 C2190 1.397 . S
C2191 C2192 1.334 . S
C2192 H2163 0.950 . S
C2192 C2191 1.334 . S
C2192 C2193 1.287 . S
C2193 C2192 1.287 . S
C2193 C2194 1.524 . S
C2193 H2196 0.999 . S
C2194 H2164 0.950 . S
C2194 C2193 1.524 . S
C2194 C2195 1.415 . S
C2195 H2165 0.950 . S
C2195 C2190 1.363 . S
C2195 C2194 1.415 . S
H2196 C2193 0.999 . S
H2197 C2178 0.913 . S
H2198 C2216 0.951 . S
H2199 C2218 0.951 . S
H2200 C2220 0.950 1_565 S
H2201 C2221 0.950 . S
H2202 C2223 0.950 . S
H2203 C2226 0.950 . S
H2204 C2227 0.950 . S
H2205 C2229 0.950 . S
H2206 C2230 0.950 1_545 S
H2207 C2231 0.951 . S
H2208 C2233 0.951 . S
H2209 C2235 0.950 1_545 S
H2210 C2236 0.950 . S
H2211 C2238 0.950 . S
H2212 C2241 0.950 . S
H2213 C2242 0.950 . S
H2214 C2244 0.950 . S
H2215 C2245 0.950 1_565 S
C2216 H2198 0.951 . S
C2216 C2217 1.366 . S
C2216 C2218 1.388 . S
C2217 C2216 1.366 . S
C2217 C2221 1.385 . S
C2218 H2199 0.951 . S
C2218 C2216 1.388 . S
C2218 C2219 1.366 . S
C2219 C2218 1.366 . S
C2219 C2220 1.414 . S
C2219 C2222 1.499 . S
C2220 H2200 0.950 1_545 S
C2220 C2219 1.414 . S
C2220 C2221 1.374 . S
C2221 H2201 0.950 . S
C2221 C2217 1.385 . S
C2221 C2220 1.374 . S
C2222 C2219 1.499 . S
C2222 C2223 1.373 . S
C2222 C2224 1.389 1_544 S
C2223 H2202 0.950 . S
C2223 C2222 1.373 . S
C2223 C2239 1.377 . S
C2224 C2222 1.389 1_566 S
C2224 C2225 1.524 . S
C2224 C2238 1.377 . S
C2225 C2224 1.524 . S
C2225 C2226 1.397 1_556 S
C2225 C2230 1.363 . S
C2226 H2203 0.950 . S
C2226 C2225 1.397 1_554 S
C2226 C2227 1.334 . S
C2227 H2204 0.950 . S
C2227 C2226 1.334 . S
C2227 C2228 1.287 1_554 S
C2228 C2227 1.287 1_556 S
C2228 C2229 1.524 . S
C2228 H2247 0.913 . S
C2229 H2205 0.950 . S
C2229 C2228 1.524 . S
C2229 C2230 1.415 . S
C2230 H2206 0.950 1_565 S
C2230 C2225 1.363 . S
C2230 C2229 1.415 . S
C2231 H2207 0.951 . S
C2231 C2232 1.366 . S
C2231 C2233 1.388 . S
C2232 C2231 1.366 . S
C2232 C2236 1.385 . S
C2233 H2208 0.951 . S
C2233 C2231 1.388 . S
C2233 C2234 1.366 . S
C2234 C2233 1.366 . S
C2234 C2235 1.414 . S
C2234 C2237 1.499 . S
C2235 H2209 0.950 1_565 S
C2235 C2234 1.414 . S
C2235 C2236 1.374 . S
C2236 H2210 0.950 . S
C2236 C2232 1.385 . S
C2236 C2235 1.374 . S
C2237 C2234 1.499 . S
C2237 C2238 1.373 . S
C2237 C2239 1.389 1_566 S
C2238 H2211 0.950 . S
C2238 C2224 1.377 . S
C2238 C2237 1.373 . S
C2239 C2223 1.377 . S
C2239 C2237 1.389 1_544 S
C2239 C2240 1.524 . S
C2240 C2239 1.524 . S
C2240 C2241 1.397 1_554 S
C2240 C2245 1.363 . S
C2241 H2212 0.950 . S
C2241 C2240 1.397 1_556 S
C2241 C2242 1.334 . S
C2242 H2213 0.950 . S
C2242 C2241 1.334 . S
C2242 C2243 1.287 1_556 S
C2243 C2242 1.287 1_554 S
C2243 C2244 1.524 . S
C2243 H2246 0.999 . S
C2244 H2214 0.950 . S
C2244 C2243 1.524 . S
C2244 C2245 1.415 . S
C2245 H2215 0.950 1_545 S
C2245 C2240 1.363 . S
C2245 C2244 1.415 . S
H2246 C2243 0.999 . S
H2247 C2228 0.913 . S
H2248 C2266 0.951 . S
H2249 C2268 0.951 . S
H2250 C2270 0.950 . S
H2251 C2271 0.950 . S
H2252 C2273 0.950 . S
H2253 C2276 0.950 . S
H2254 C2277 0.950 . S
H2255 C2279 0.950 . S
H2256 C2280 0.950 . S
H2257 C2281 0.951 . S
H2258 C2283 0.951 . S
H2259 C2285 0.950 . S
H2260 C2286 0.950 . S
H2261 C2288 0.950 . S
H2262 C2291 0.950 . S
H2263 C2292 0.950 . S
H2264 C2294 0.950 . S
H2265 C2295 0.950 . S
C2266 H2248 0.951 . S
C2266 C2267 1.366 . S
C2266 C2268 1.388 . S
C2267 C2266 1.366 . S
C2267 C2271 1.385 . S
C2268 H2249 0.951 . S
C2268 C2266 1.388 . S
C2268 C2269 1.366 . S
C2269 C2268 1.366 . S
C2269 C2270 1.414 . S
C2269 C2272 1.499 . S
C2270 H2250 0.950 . S
C2270 C2269 1.414 . S
C2270 C2271 1.374 . S
C2271 H2251 0.950 . S
C2271 C2267 1.385 . S
C2271 C2270 1.374 . S
C2272 C2269 1.499 . S
C2272 C2273 1.373 . S
C2272 C2274 1.389 . S
C2273 H2252 0.950 . S
C2273 C2272 1.373 . S
C2273 C2289 1.377 . S
C2274 C2272 1.389 . S
C2274 C2275 1.524 . S
C2274 C2288 1.377 . S
C2275 C2274 1.524 . S
C2275 C2276 1.397 . S
C2275 C2280 1.363 . S
C2276 H2253 0.950 . S
C2276 C2275 1.397 . S
C2276 C2277 1.334 . S
C2277 H2254 0.950 . S
C2277 C2276 1.334 . S
C2277 C2278 1.287 . S
C2278 C2277 1.287 . S
C2278 C2279 1.524 . S
C2278 H2297 0.913 . S
C2279 H2255 0.950 . S
C2279 C2278 1.524 . S
C2279 C2280 1.415 . S
C2280 H2256 0.950 . S
C2280 C2275 1.363 . S
C2280 C2279 1.415 . S
C2281 H2257 0.951 . S
C2281 C2282 1.366 . S
C2281 C2283 1.388 . S
C2282 C2281 1.366 . S
C2282 C2286 1.385 . S
C2283 H2258 0.951 . S
C2283 C2281 1.388 . S
C2283 C2284 1.366 . S
C2284 C2283 1.366 . S
C2284 C2285 1.414 . S
C2284 C2287 1.499 . S
C2285 H2259 0.950 . S
C2285 C2284 1.414 . S
C2285 C2286 1.374 . S
C2286 H2260 0.950 . S
C2286 C2282 1.385 . S
C2286 C2285 1.374 . S
C2287 C2284 1.499 . S
C2287 C2288 1.373 . S
C2287 C2289 1.389 . S
C2288 H2261 0.950 . S
C2288 C2274 1.377 . S
C2288 C2287 1.373 . S
C2289 C2273 1.377 . S
C2289 C2287 1.389 . S
C2289 C2290 1.524 . S
C2290 C2289 1.524 . S
C2290 C2291 1.397 . S
C2290 C2295 1.363 . S
C2291 H2262 0.950 . S
C2291 C2290 1.397 . S
C2291 C2292 1.334 . S
C2292 H2263 0.950 . S
C2292 C2291 1.334 . S
C2292 C2293 1.287 . S
C2293 C2292 1.287 . S
C2293 C2294 1.524 . S
C2293 H2296 0.999 . S
C2294 H2264 0.950 . S
C2294 C2293 1.524 . S
C2294 C2295 1.415 . S
C2295 H2265 0.950 . S
C2295 C2290 1.363 . S
C2295 C2294 1.415 . S
H2296 C2293 0.999 . S
H2297 C2278 0.913 . S
H2298 C2316 0.951 . S
H2299 C2318 0.951 . S
H2300 C2320 0.950 . S
H2301 C2321 0.950 . S
H2302 C2323 0.950 . S
H2303 C2326 0.950 . S
H2304 C2327 0.950 . S
H2305 C2329 0.950 . S
H2306 C2330 0.950 . S
H2307 C2331 0.951 . S
H2308 C2333 0.951 . S
H2309 C2335 0.950 . S
H2310 C2336 0.950 . S
H2311 C2338 0.950 . S
H2312 C2341 0.950 . S
H2313 C2342 0.950 . S
H2314 C2344 0.950 . S
H2315 C2345 0.950 . S
C2316 H2298 0.951 . S
C2316 C2317 1.366 . S
C2316 C2318 1.388 . S
C2317 C2316 1.366 . S
C2317 C2321 1.385 . S
C2318 H2299 0.951 . S
C2318 C2316 1.388 . S
C2318 C2319 1.366 . S
C2319 C2318 1.366 . S
C2319 C2320 1.414 . S
C2319 C2322 1.499 . S
C2320 H2300 0.950 . S
C2320 C2319 1.414 . S
C2320 C2321 1.374 . S
C2321 H2301 0.950 . S
C2321 C2317 1.385 . S
C2321 C2320 1.374 . S
C2322 C2319 1.499 . S
C2322 C2323 1.373 1_565 S
C2322 C2324 1.389 . S
C2323 H2302 0.950 . S
C2323 C2322 1.373 1_545 S
C2323 C2339 1.377 . S
C2324 C2322 1.389 . S
C2324 C2325 1.524 . S
C2324 C2338 1.377 . S
C2325 C2324 1.524 . S
C2325 C2326 1.397 . S
C2325 C2330 1.363 . S
C2326 H2303 0.950 . S
C2326 C2325 1.397 . S
C2326 C2327 1.334 . S
C2327 H2304 0.950 . S
C2327 C2326 1.334 . S
C2327 C2328 1.287 . S
C2328 C2327 1.287 . S
C2328 C2329 1.524 . S
C2328 H2347 0.913 . S
C2329 H2305 0.950 . S
C2329 C2328 1.524 . S
C2329 C2330 1.415 . S
C2330 H2306 0.950 . S
C2330 C2325 1.363 . S
C2330 C2329 1.415 . S
C2331 H2307 0.951 . S
C2331 C2332 1.366 . S
C2331 C2333 1.388 . S
C2332 C2331 1.366 . S
C2332 C2336 1.385 . S
C2333 H2308 0.951 . S
C2333 C2331 1.388 . S
C2333 C2334 1.366 . S
C2334 C2333 1.366 . S
C2334 C2335 1.414 . S
C2334 C2337 1.499 . S
C2335 H2309 0.950 . S
C2335 C2334 1.414 . S
C2335 C2336 1.374 . S
C2336 H2310 0.950 . S
C2336 C2332 1.385 . S
C2336 C2335 1.374 . S
C2337 C2334 1.499 . S
C2337 C2338 1.373 1_545 S
C2337 C2339 1.389 . S
C2338 H2311 0.950 . S
C2338 C2324 1.377 . S
C2338 C2337 1.373 1_565 S
C2339 C2323 1.377 . S
C2339 C2337 1.389 . S
C2339 C2340 1.524 . S
C2340 C2339 1.524 . S
C2340 C2341 1.397 . S
C2340 C2345 1.363 . S
C2341 H2312 0.950 . S
C2341 C2340 1.397 . S
C2341 C2342 1.334 . S
C2342 H2313 0.950 . S
C2342 C2341 1.334 . S
C2342 C2343 1.287 . S
C2343 C2342 1.287 . S
C2343 C2344 1.524 . S
C2343 H2346 0.999 . S
C2344 H2314 0.950 . S
C2344 C2343 1.524 . S
C2344 C2345 1.415 . S
C2345 H2315 0.950 . S
C2345 C2340 1.363 . S
C2345 C2344 1.415 . S
H2346 C2343 0.999 . S
H2347 C2328 0.913 . S
H2348 C2366 0.951 . S
H2349 C2368 0.951 . S
H2350 C2370 0.950 . S
H2351 C2371 0.950 . S
H2352 C2373 0.950 . S
H2353 C2376 0.950 . S
H2354 C2377 0.950 . S
H2355 C2379 0.950 . S
H2356 C2380 0.950 . S
H2357 C2381 0.951 . S
H2358 C2383 0.951 . S
H2359 C2385 0.950 . S
H2360 C2386 0.950 . S
H2361 C2388 0.950 . S
H2362 C2391 0.950 . S
H2363 C2392 0.950 . S
H2364 C2394 0.950 . S
H2365 C2395 0.950 . S
C2366 H2348 0.951 . S
C2366 C2367 1.366 . S
C2366 C2368 1.388 . S
C2367 C2366 1.366 . S
C2367 C2371 1.385 . S
C2368 H2349 0.951 . S
C2368 C2366 1.388 . S
C2368 C2369 1.366 . S
C2369 C2368 1.366 . S
C2369 C2370 1.414 . S
C2369 C2372 1.499 . S
C2370 H2350 0.950 . S
C2370 C2369 1.414 . S
C2370 C2371 1.374 . S
C2371 H2351 0.950 . S
C2371 C2367 1.385 . S
C2371 C2370 1.374 . S
C2372 C2369 1.499 . S
C2372 C2373 1.373 . S
C2372 C2374 1.389 . S
C2373 H2352 0.950 . S
C2373 C2372 1.373 . S
C2373 C2389 1.377 . S
C2374 C2372 1.389 . S
C2374 C2375 1.524 . S
C2374 C2388 1.377 . S
C2375 C2374 1.524 . S
C2375 C2376 1.397 . S
C2375 C2380 1.363 . S
C2376 H2353 0.950 . S
C2376 C2375 1.397 . S
C2376 C2377 1.334 . S
C2377 H2354 0.950 . S
C2377 C2376 1.334 . S
C2377 C2378 1.287 . S
C2378 C2377 1.287 . S
C2378 C2379 1.524 . S
C2378 H2397 0.913 . S
C2379 H2355 0.950 . S
C2379 C2378 1.524 . S
C2379 C2380 1.415 . S
C2380 H2356 0.950 . S
C2380 C2375 1.363 . S
C2380 C2379 1.415 . S
C2381 H2357 0.951 . S
C2381 C2382 1.366 . S
C2381 C2383 1.388 . S
C2382 C2381 1.366 . S
C2382 C2386 1.385 . S
C2383 H2358 0.951 . S
C2383 C2381 1.388 . S
C2383 C2384 1.366 . S
C2384 C2383 1.366 . S
C2384 C2385 1.414 . S
C2384 C2387 1.499 . S
C2385 H2359 0.950 . S
C2385 C2384 1.414 . S
C2385 C2386 1.374 . S
C2386 H2360 0.950 . S
C2386 C2382 1.385 . S
C2386 C2385 1.374 . S
C2387 C2384 1.499 . S
C2387 C2388 1.373 . S
C2387 C2389 1.389 . S
C2388 H2361 0.950 . S
C2388 C2374 1.377 . S
C2388 C2387 1.373 . S
C2389 C2373 1.377 . S
C2389 C2387 1.389 . S
C2389 C2390 1.524 . S
C2390 C2389 1.524 . S
C2390 C2391 1.397 . S
C2390 C2395 1.363 . S
C2391 H2362 0.950 . S
C2391 C2390 1.397 . S
C2391 C2392 1.334 . S
C2392 H2363 0.950 . S
C2392 C2391 1.334 . S
C2392 C2393 1.287 . S
C2393 C2392 1.287 . S
C2393 C2394 1.524 . S
C2393 H2396 0.999 . S
C2394 H2364 0.950 . S
C2394 C2393 1.524 . S
C2394 C2395 1.415 . S
C2395 H2365 0.950 . S
C2395 C2390 1.363 . S
C2395 C2394 1.415 . S
H2396 C2393 0.999 . S
H2397 C2378 0.913 . S
H2398 C2416 0.951 . S
H2399 C2418 0.951 1_565 S
H2400 C2420 0.950 . S
H2401 C2421 0.950 . S
H2402 C2423 0.950 . S
H2403 C2426 0.950 . S
H2404 C2427 0.950 . S
H2405 C2429 0.943 1_554 S
H2406 C2430 0.889 1_554 S
H2407 C2431 0.951 . S
H2408 C2433 0.951 1_545 S
H2409 C2435 0.950 . S
H2410 C2436 0.950 . S
H2411 C2438 0.950 . S
H2412 C2441 0.950 . S
H2413 C2442 0.950 . S
H2414 C2444 0.943 1_556 S
H2415 C2445 0.890 1_556 S
C2416 H2398 0.951 . S
C2416 C2417 1.366 . S
C2416 C2418 1.388 . S
C2417 C2416 1.366 . S
C2417 C2421 1.385 . S
C2418 H2399 0.951 1_545 S
C2418 C2416 1.388 . S
C2418 C2419 1.366 . S
C2419 C2418 1.366 . S
C2419 C2420 1.414 . S
C2419 C2422 1.499 . S
C2420 H2400 0.950 . S
C2420 C2419 1.414 . S
C2420 C2421 1.374 . S
C2421 H2401 0.950 . S
C2421 C2417 1.385 . S
C2421 C2420 1.374 . S
C2422 C2419 1.499 . S
C2422 C2423 1.375 1_455 S
C2422 C2424 1.389 1_545 S
C2423 H2402 0.950 . S
C2423 C2422 1.375 1_655 S
C2423 C2439 1.374 1_556 S
C2424 C2422 1.389 1_565 S
C2424 C2425 1.524 . S
C2424 C2438 1.374 1_556 S
C2425 C2424 1.524 . S
C2425 C2426 1.397 . S
C2425 C2430 1.404 . S
C2426 H2403 0.950 . S
C2426 C2425 1.397 . S
C2426 C2427 1.334 . S
C2427 H2404 0.950 . S
C2427 C2426 1.334 . S
C2427 C2428 1.287 . S
C2428 C2427 1.287 . S
C2428 C2429 1.524 . S
C2428 H2447 0.913 . S
C2429 H2405 0.943 1_556 S
C2429 C2428 1.524 . S
C2429 C2430 1.436 . S
C2430 H2406 0.889 1_556 S
C2430 C2425 1.404 . S
C2430 C2429 1.436 . S
C2431 H2407 0.951 . S
C2431 C2432 1.366 . S
C2431 C2433 1.388 . S
C2432 C2431 1.366 . S
C2432 C2436 1.385 . S
C2433 H2408 0.951 1_565 S
C2433 C2431 1.388 . S
C2433 C2434 1.366 . S
C2434 C2433 1.366 . S
C2434 C2435 1.414 . S
C2434 C2437 1.499 . S
C2435 H2409 0.950 . S
C2435 C2434 1.414 . S
C2435 C2436 1.374 . S
C2436 H2410 0.950 . S
C2436 C2432 1.385 . S
C2436 C2435 1.374 . S
C2437 C2434 1.499 . S
C2437 C2438 1.375 1_655 S
C2437 C2439 1.389 1_565 S
C2438 H2411 0.950 . S
C2438 C2424 1.374 1_554 S
C2438 C2437 1.375 1_455 S
C2439 C2423 1.374 1_554 S
C2439 C2437 1.389 1_545 S
C2439 C2440 1.524 . S
C2440 C2439 1.524 . S
C2440 C2441 1.397 . S
C2440 C2445 1.404 . S
C2441 H2412 0.950 . S
C2441 C2440 1.397 . S
C2441 C2442 1.334 . S
C2442 H2413 0.950 . S
C2442 C2441 1.334 . S
C2442 C2443 1.287 . S
C2443 C2442 1.287 . S
C2443 C2444 1.524 . S
C2443 H2446 0.999 . S
C2444 H2414 0.943 1_554 S
C2444 C2443 1.524 . S
C2444 C2445 1.436 . S
C2445 H2415 0.890 1_554 S
C2445 C2440 1.404 . S
C2445 C2444 1.436 . S
H2446 C2443 0.999 . S
H2447 C2428 0.913 . S
H2448 C2466 0.951 . S
H2449 C2468 0.951 . S
H2450 C2470 0.950 . S
H2451 C2471 0.950 . S
H2452 C2473 0.950 . S
H2453 C2476 0.950 . S
H2454 C2477 0.950 . S
H2455 C2479 0.950 . S
H2456 C2480 0.950 . S
H2457 C2481 0.951 . S
H2458 C2483 0.951 . S
H2459 C2485 0.950 . S
H2460 C2486 0.950 . S
H2461 C2488 0.950 . S
H2462 C2491 0.950 . S
H2463 C2492 0.950 . S
H2464 C2494 0.950 . S
H2465 C2495 0.950 . S
C2466 H2448 0.951 . S
C2466 C2467 1.366 . S
C2466 C2468 1.388 . S
C2467 C2466 1.366 . S
C2467 C2471 1.385 . S
C2468 H2449 0.951 . S
C2468 C2466 1.388 . S
C2468 C2469 1.366 . S
C2469 C2468 1.366 . S
C2469 C2470 1.414 . S
C2469 C2472 1.499 . S
C2470 H2450 0.950 . S
C2470 C2469 1.414 . S
C2470 C2471 1.374 . S
C2471 H2451 0.950 . S
C2471 C2467 1.385 . S
C2471 C2470 1.374 . S
C2472 C2469 1.499 . S
C2472 C2473 1.373 . S
C2472 C2474 1.389 . S
C2473 H2452 0.950 . S
C2473 C2472 1.373 . S
C2473 C2489 1.377 . S
C2474 C2472 1.389 . S
C2474 C2475 1.524 . S
C2474 C2488 1.377 . S
C2475 C2474 1.524 . S
C2475 C2476 1.397 . S
C2475 C2480 1.363 . S
C2476 H2453 0.950 . S
C2476 C2475 1.397 . S
C2476 C2477 1.334 . S
C2477 H2454 0.950 . S
C2477 C2476 1.334 . S
C2477 C2478 1.287 . S
C2478 C2477 1.287 . S
C2478 C2479 1.524 . S
C2478 H2497 0.913 . S
C2479 H2455 0.950 . S
C2479 C2478 1.524 . S
C2479 C2480 1.415 . S
C2480 H2456 0.950 . S
C2480 C2475 1.363 . S
C2480 C2479 1.415 . S
C2481 H2457 0.951 . S
C2481 C2482 1.366 . S
C2481 C2483 1.388 . S
C2482 C2481 1.366 . S
C2482 C2486 1.385 . S
C2483 H2458 0.951 . S
C2483 C2481 1.388 . S
C2483 C2484 1.366 . S
C2484 C2483 1.366 . S
C2484 C2485 1.414 . S
C2484 C2487 1.499 . S
C2485 H2459 0.950 . S
C2485 C2484 1.414 . S
C2485 C2486 1.374 . S
C2486 H2460 0.950 . S
C2486 C2482 1.385 . S
C2486 C2485 1.374 . S
C2487 C2484 1.499 . S
C2487 C2488 1.373 . S
C2487 C2489 1.389 . S
C2488 H2461 0.950 . S
C2488 C2474 1.377 . S
C2488 C2487 1.373 . S
C2489 C2473 1.377 . S
C2489 C2487 1.389 . S
C2489 C2490 1.524 . S
C2490 C2489 1.524 . S
C2490 C2491 1.397 . S
C2490 C2495 1.363 . S
C2491 H2462 0.950 . S
C2491 C2490 1.397 . S
C2491 C2492 1.334 . S
C2492 H2463 0.950 . S
C2492 C2491 1.334 . S
C2492 C2493 1.287 . S
C2493 C2492 1.287 . S
C2493 C2494 1.524 . S
C2493 H2496 0.999 . S
C2494 H2464 0.950 . S
C2494 C2493 1.524 . S
C2494 C2495 1.415 . S
C2495 H2465 0.950 . S
C2495 C2490 1.363 . S
C2495 C2494 1.415 . S
H2496 C2493 0.999 . S
H2497 C2478 0.913 . S
H2498 C2516 0.951 . S
H2499 C2518 0.951 . S
H2500 C2520 0.950 . S
H2501 C2521 0.950 . S
H2502 C2523 0.950 . S
H2503 C2526 0.950 . S
H2504 C2527 0.950 . S
H2505 C2529 0.950 . S
H2506 C2530 0.950 . S
H2507 C2531 0.951 . S
H2508 C2533 0.951 . S
H2509 C2535 0.950 . S
H2510 C2536 0.950 . S
H2511 C2538 0.950 . S
H2512 C2541 0.950 . S
H2513 C2542 0.950 . S
H2514 C2544 0.950 . S
H2515 C2545 0.950 . S
C2516 H2498 0.951 . S
C2516 C2517 1.366 . S
C2516 C2518 1.388 . S
C2517 C2516 1.366 . S
C2517 C2521 1.385 . S
C2518 H2499 0.951 . S
C2518 C2516 1.388 . S
C2518 C2519 1.366 . S
C2519 C2518 1.366 . S
C2519 C2520 1.414 . S
C2519 C2522 1.499 . S
C2520 H2500 0.950 . S
C2520 C2519 1.414 . S
C2520 C2521 1.374 . S
C2521 H2501 0.950 . S
C2521 C2517 1.385 . S
C2521 C2520 1.374 . S
C2522 C2519 1.499 . S
C2522 C2523 1.373 . S
C2522 C2524 1.389 . S
C2523 H2502 0.950 . S
C2523 C2522 1.373 . S
C2523 C2539 1.377 . S
C2524 C2522 1.389 . S
C2524 C2525 1.524 . S
C2524 C2538 1.377 . S
C2525 C2524 1.524 . S
C2525 C2526 1.397 . S
C2525 C2530 1.363 . S
C2526 H2503 0.950 . S
C2526 C2525 1.397 . S
C2526 C2527 1.334 . S
C2527 H2504 0.950 . S
C2527 C2526 1.334 . S
C2527 C2528 1.287 . S
C2528 C2527 1.287 . S
C2528 C2529 1.524 . S
C2528 H2547 0.913 . S
C2529 H2505 0.950 . S
C2529 C2528 1.524 . S
C2529 C2530 1.415 . S
C2530 H2506 0.950 . S
C2530 C2525 1.363 . S
C2530 C2529 1.415 . S
C2531 H2507 0.951 . S
C2531 C2532 1.366 . S
C2531 C2533 1.388 . S
C2532 C2531 1.366 . S
C2532 C2536 1.385 . S
C2533 H2508 0.951 . S
C2533 C2531 1.388 . S
C2533 C2534 1.366 . S
C2534 C2533 1.366 . S
C2534 C2535 1.414 . S
C2534 C2537 1.499 . S
C2535 H2509 0.950 . S
C2535 C2534 1.414 . S
C2535 C2536 1.374 . S
C2536 H2510 0.950 . S
C2536 C2532 1.385 . S
C2536 C2535 1.374 . S
C2537 C2534 1.499 . S
C2537 C2538 1.373 . S
C2537 C2539 1.389 . S
C2538 H2511 0.950 . S
C2538 C2524 1.377 . S
C2538 C2537 1.373 . S
C2539 C2523 1.377 . S
C2539 C2537 1.389 . S
C2539 C2540 1.524 . S
C2540 C2539 1.524 . S
C2540 C2541 1.397 . S
C2540 C2545 1.363 . S
C2541 H2512 0.950 . S
C2541 C2540 1.397 . S
C2541 C2542 1.334 . S
C2542 H2513 0.950 . S
C2542 C2541 1.334 . S
C2542 C2543 1.287 . S
C2543 C2542 1.287 . S
C2543 C2544 1.524 . S
C2543 H2546 0.999 . S
C2544 H2514 0.950 . S
C2544 C2543 1.524 . S
C2544 C2545 1.415 . S
C2545 H2515 0.950 . S
C2545 C2540 1.363 . S
C2545 C2544 1.415 . S
H2546 C2543 0.999 . S
H2547 C2528 0.913 . S
H2548 C2566 0.951 . S
H2549 C2568 0.951 . S
H2550 C2570 0.950 . S
H2551 C2571 0.950 . S
H2552 C2573 0.950 . S
H2553 C2576 0.950 . S
H2554 C2577 0.950 . S
H2555 C2579 0.950 . S
H2556 C2580 0.950 . S
H2557 C2581 0.951 . S
H2558 C2583 0.951 . S
H2559 C2585 0.950 . S
H2560 C2586 0.950 . S
H2561 C2588 0.950 . S
H2562 C2591 0.950 . S
H2563 C2592 0.950 . S
H2564 C2594 0.950 . S
H2565 C2595 0.950 . S
C2566 H2548 0.951 . S
C2566 C2567 1.366 . S
C2566 C2568 1.388 . S
C2567 C2566 1.366 . S
C2567 C2571 1.385 . S
C2568 H2549 0.951 . S
C2568 C2566 1.388 . S
C2568 C2569 1.366 . S
C2569 C2568 1.366 . S
C2569 C2570 1.414 . S
C2569 C2572 1.499 . S
C2570 H2550 0.950 . S
C2570 C2569 1.414 . S
C2570 C2571 1.374 . S
C2571 H2551 0.950 . S
C2571 C2567 1.385 . S
C2571 C2570 1.374 . S
C2572 C2569 1.499 . S
C2572 C2573 1.373 . S
C2572 C2574 1.389 . S
C2573 H2552 0.950 . S
C2573 C2572 1.373 . S
C2573 C2589 1.377 . S
C2574 C2572 1.389 . S
C2574 C2575 1.524 . S
C2574 C2588 1.377 . S
C2575 C2574 1.524 . S
C2575 C2576 1.397 . S
C2575 C2580 1.363 . S
C2576 H2553 0.950 . S
C2576 C2575 1.397 . S
C2576 C2577 1.334 . S
C2577 H2554 0.950 . S
C2577 C2576 1.334 . S
C2577 C2578 1.287 . S
C2578 C2577 1.287 . S
C2578 C2579 1.524 . S
C2578 H2597 0.913 . S
C2579 H2555 0.950 . S
C2579 C2578 1.524 . S
C2579 C2580 1.415 . S
C2580 H2556 0.950 . S
C2580 C2575 1.363 . S
C2580 C2579 1.415 . S
C2581 H2557 0.951 . S
C2581 C2582 1.366 . S
C2581 C2583 1.388 . S
C2582 C2581 1.366 . S
C2582 C2586 1.385 . S
C2583 H2558 0.951 . S
C2583 C2581 1.388 . S
C2583 C2584 1.366 . S
C2584 C2583 1.366 . S
C2584 C2585 1.414 . S
C2584 C2587 1.499 . S
C2585 H2559 0.950 . S
C2585 C2584 1.414 . S
C2585 C2586 1.374 . S
C2586 H2560 0.950 . S
C2586 C2582 1.385 . S
C2586 C2585 1.374 . S
C2587 C2584 1.499 . S
C2587 C2588 1.373 . S
C2587 C2589 1.389 . S
C2588 H2561 0.950 . S
C2588 C2574 1.377 . S
C2588 C2587 1.373 . S
C2589 C2573 1.377 . S
C2589 C2587 1.389 . S
C2589 C2590 1.524 . S
C2590 C2589 1.524 . S
C2590 C2591 1.397 . S
C2590 C2595 1.363 . S
C2591 H2562 0.950 . S
C2591 C2590 1.397 . S
C2591 C2592 1.334 . S
C2592 H2563 0.950 . S
C2592 C2591 1.334 . S
C2592 C2593 1.287 . S
C2593 C2592 1.287 . S
C2593 C2594 1.524 . S
C2593 H2596 0.999 . S
C2594 H2564 0.950 . S
C2594 C2593 1.524 . S
C2594 C2595 1.415 . S
C2595 H2565 0.950 . S
C2595 C2590 1.363 . S
C2595 C2594 1.415 . S
H2596 C2593 0.999 . S
H2597 C2578 0.913 . S
H2598 C2616 0.951 . S
H2599 C2618 0.951 . S
H2600 C2620 0.950 . S
H2601 C2621 0.950 . S
H2602 C2623 0.950 . S
H2603 C2626 0.950 . S
H2604 C2627 0.950 . S
H2605 C2629 0.950 . S
H2606 C2630 0.950 . S
H2607 C2631 0.951 . S
H2608 C2633 0.951 . S
H2609 C2635 0.950 . S
H2610 C2636 0.950 . S
H2611 C2638 0.950 . S
H2612 C2641 0.950 . S
H2613 C2642 0.950 . S
H2614 C2644 0.950 . S
H2615 C2645 0.950 . S
C2616 H2598 0.951 . S
C2616 C2617 1.366 . S
C2616 C2618 1.388 . S
C2617 C2616 1.366 . S
C2617 C2621 1.385 . S
C2618 H2599 0.951 . S
C2618 C2616 1.388 . S
C2618 C2619 1.366 . S
C2619 C2618 1.366 . S
C2619 C2620 1.414 . S
C2619 C2622 1.499 . S
C2620 H2600 0.950 . S
C2620 C2619 1.414 . S
C2620 C2621 1.374 . S
C2621 H2601 0.950 . S
C2621 C2617 1.385 . S
C2621 C2620 1.374 . S
C2622 C2619 1.499 . S
C2622 C2623 1.373 . S
C2622 C2624 1.389 . S
C2623 H2602 0.950 . S
C2623 C2622 1.373 . S
C2623 C2639 1.377 . S
C2624 C2622 1.389 . S
C2624 C2625 1.524 . S
C2624 C2638 1.377 . S
C2625 C2624 1.524 . S
C2625 C2626 1.397 . S
C2625 C2630 1.363 . S
C2626 H2603 0.950 . S
C2626 C2625 1.397 . S
C2626 C2627 1.334 . S
C2627 H2604 0.950 . S
C2627 C2626 1.334 . S
C2627 C2628 1.287 . S
C2628 C2627 1.287 . S
C2628 C2629 1.524 . S
C2628 H2647 0.913 . S
C2629 H2605 0.950 . S
C2629 C2628 1.524 . S
C2629 C2630 1.415 . S
C2630 H2606 0.950 . S
C2630 C2625 1.363 . S
C2630 C2629 1.415 . S
C2631 H2607 0.951 . S
C2631 C2632 1.366 . S
C2631 C2633 1.388 . S
C2632 C2631 1.366 . S
C2632 C2636 1.385 . S
C2633 H2608 0.951 . S
C2633 C2631 1.388 . S
C2633 C2634 1.366 . S
C2634 C2633 1.366 . S
C2634 C2635 1.414 . S
C2634 C2637 1.499 . S
C2635 H2609 0.950 . S
C2635 C2634 1.414 . S
C2635 C2636 1.374 . S
C2636 H2610 0.950 . S
C2636 C2632 1.385 . S
C2636 C2635 1.374 . S
C2637 C2634 1.499 . S
C2637 C2638 1.373 . S
C2637 C2639 1.389 . S
C2638 H2611 0.950 . S
C2638 C2624 1.377 . S
C2638 C2637 1.373 . S
C2639 C2623 1.377 . S
C2639 C2637 1.389 . S
C2639 C2640 1.524 . S
C2640 C2639 1.524 . S
C2640 C2641 1.397 . S
C2640 C2645 1.363 . S
C2641 H2612 0.950 . S
C2641 C2640 1.397 . S
C2641 C2642 1.334 . S
C2642 H2613 0.950 . S
C2642 C2641 1.334 . S
C2642 C2643 1.287 . S
C2643 C2642 1.287 . S
C2643 C2644 1.524 . S
C2643 H2646 0.999 . S
C2644 H2614 0.950 . S
C2644 C2643 1.524 . S
C2644 C2645 1.415 . S
C2645 H2615 0.950 . S
C2645 C2640 1.363 . S
C2645 C2644 1.415 . S
H2646 C2643 0.999 . S
H2647 C2628 0.913 . S
H2648 C2666 0.951 . S
H2649 C2668 0.951 . S
H2650 C2670 0.950 . S
H2651 C2671 0.950 . S
H2652 C2673 0.950 . S
H2653 C2676 0.950 . S
H2654 C2677 0.950 . S
H2655 C2679 0.950 . S
H2656 C2680 0.950 . S
H2657 C2681 0.951 . S
H2658 C2683 0.951 . S
H2659 C2685 0.950 . S
H2660 C2686 0.950 . S
H2661 C2688 0.950 . S
H2662 C2691 0.950 . S
H2663 C2692 0.950 . S
H2664 C2694 0.950 . S
H2665 C2695 0.950 . S
C2666 H2648 0.951 . S
C2666 C2667 1.366 . S
C2666 C2668 1.388 . S
C2667 C2666 1.366 . S
C2667 C2671 1.385 . S
C2668 H2649 0.951 . S
C2668 C2666 1.388 . S
C2668 C2669 1.366 . S
C2669 C2668 1.366 . S
C2669 C2670 1.414 . S
C2669 C2672 1.499 . S
C2670 H2650 0.950 . S
C2670 C2669 1.414 . S
C2670 C2671 1.374 . S
C2671 H2651 0.950 . S
C2671 C2667 1.385 . S
C2671 C2670 1.374 . S
C2672 C2669 1.499 . S
C2672 C2673 1.373 1_554 S
C2672 C2674 1.389 . S
C2673 H2652 0.950 . S
C2673 C2672 1.373 1_556 S
C2673 C2689 1.377 . S
C2674 C2672 1.389 . S
C2674 C2675 1.524 . S
C2674 C2688 1.377 . S
C2675 C2674 1.524 . S
C2675 C2676 1.397 . S
C2675 C2680 1.363 . S
C2676 H2653 0.950 . S
C2676 C2675 1.397 . S
C2676 C2677 1.334 . S
C2677 H2654 0.950 . S
C2677 C2676 1.334 . S
C2677 C2678 1.287 . S
C2678 C2677 1.287 . S
C2678 C2679 1.524 . S
C2678 H2697 0.913 . S
C2679 H2655 0.950 . S
C2679 C2678 1.524 . S
C2679 C2680 1.415 . S
C2680 H2656 0.950 . S
C2680 C2675 1.363 . S
C2680 C2679 1.415 . S
C2681 H2657 0.951 . S
C2681 C2682 1.366 . S
C2681 C2683 1.388 . S
C2682 C2681 1.366 . S
C2682 C2686 1.385 . S
C2683 H2658 0.951 . S
C2683 C2681 1.388 . S
C2683 C2684 1.366 . S
C2684 C2683 1.366 . S
C2684 C2685 1.414 . S
C2684 C2687 1.499 . S
C2685 H2659 0.950 . S
C2685 C2684 1.414 . S
C2685 C2686 1.374 . S
C2686 H2660 0.950 . S
C2686 C2682 1.385 . S
C2686 C2685 1.374 . S
C2687 C2684 1.499 . S
C2687 C2688 1.373 1_556 S
C2687 C2689 1.389 . S
C2688 H2661 0.950 . S
C2688 C2674 1.377 . S
C2688 C2687 1.373 1_554 S
C2689 C2673 1.377 . S
C2689 C2687 1.389 . S
C2689 C2690 1.524 . S
C2690 C2689 1.524 . S
C2690 C2691 1.397 . S
C2690 C2695 1.363 . S
C2691 H2662 0.950 . S
C2691 C2690 1.397 . S
C2691 C2692 1.334 . S
C2692 H2663 0.950 . S
C2692 C2691 1.334 . S
C2692 C2693 1.287 . S
C2693 C2692 1.287 . S
C2693 C2694 1.524 . S
C2693 H2696 0.999 . S
C2694 H2664 0.950 . S
C2694 C2693 1.524 . S
C2694 C2695 1.415 . S
C2695 H2665 0.950 . S
C2695 C2690 1.363 . S
C2695 C2694 1.415 . S
H2696 C2693 0.999 . S
H2697 C2678 0.913 . S
H2698 C2716 0.951 . S
H2699 C2718 0.951 . S
H2700 C2720 0.950 . S
H2701 C2721 0.950 . S
H2702 C2723 0.950 . S
H2703 C2726 0.950 . S
H2704 C2727 0.950 . S
H2705 C2729 0.950 . S
H2706 C2730 0.950 . S
H2707 C2731 0.951 . S
H2708 C2733 0.951 . S
H2709 C2735 0.950 . S
H2710 C2736 0.950 . S
H2711 C2738 0.950 . S
H2712 C2741 0.950 . S
H2713 C2742 0.950 . S
H2714 C2744 0.950 . S
H2715 C2745 0.950 . S
C2716 H2698 0.951 . S
C2716 C2717 1.366 . S
C2716 C2718 1.388 . S
C2717 C2716 1.366 . S
C2717 C2721 1.385 . S
C2718 H2699 0.951 . S
C2718 C2716 1.388 . S
C2718 C2719 1.366 . S
C2719 C2718 1.366 . S
C2719 C2720 1.414 . S
C2719 C2722 1.499 . S
C2720 H2700 0.950 . S
C2720 C2719 1.414 . S
C2720 C2721 1.374 . S
C2721 H2701 0.950 . S
C2721 C2717 1.385 . S
C2721 C2720 1.374 . S
C2722 C2719 1.499 . S
C2722 C2723 1.373 1_455 S
C2722 C2724 1.389 . S
C2723 H2702 0.950 . S
C2723 C2722 1.373 1_655 S
C2723 C2739 1.377 . S
C2724 C2722 1.389 . S
C2724 C2725 1.524 . S
C2724 C2738 1.377 . S
C2725 C2724 1.524 . S
C2725 C2726 1.397 . S
C2725 C2730 1.363 . S
C2726 H2703 0.950 . S
C2726 C2725 1.397 . S
C2726 C2727 1.334 . S
C2727 H2704 0.950 . S
C2727 C2726 1.334 . S
C2727 C2728 1.287 . S
C2728 C2727 1.287 . S
C2728 C2729 1.524 . S
C2728 H2747 0.913 . S
C2729 H2705 0.950 . S
C2729 C2728 1.524 . S
C2729 C2730 1.415 . S
C2730 H2706 0.950 . S
C2730 C2725 1.363 . S
C2730 C2729 1.415 . S
C2731 H2707 0.951 . S
C2731 C2732 1.366 . S
C2731 C2733 1.388 . S
C2732 C2731 1.366 . S
C2732 C2736 1.385 . S
C2733 H2708 0.951 . S
C2733 C2731 1.388 . S
C2733 C2734 1.366 . S
C2734 C2733 1.366 . S
C2734 C2735 1.414 . S
C2734 C2737 1.499 . S
C2735 H2709 0.950 . S
C2735 C2734 1.414 . S
C2735 C2736 1.374 . S
C2736 H2710 0.950 . S
C2736 C2732 1.385 . S
C2736 C2735 1.374 . S
C2737 C2734 1.499 . S
C2737 C2738 1.373 1_655 S
C2737 C2739 1.389 . S
C2738 H2711 0.950 . S
C2738 C2724 1.377 . S
C2738 C2737 1.373 1_455 S
C2739 C2723 1.377 . S
C2739 C2737 1.389 . S
C2739 C2740 1.524 . S
C2740 C2739 1.524 . S
C2740 C2741 1.397 . S
C2740 C2745 1.363 . S
C2741 H2712 0.950 . S
C2741 C2740 1.397 . S
C2741 C2742 1.334 . S
C2742 H2713 0.950 . S
C2742 C2741 1.334 . S
C2742 C2743 1.287 . S
C2743 C2742 1.287 . S
C2743 C2744 1.524 . S
C2743 H2746 0.999 . S
C2744 H2714 0.950 . S
C2744 C2743 1.524 . S
C2744 C2745 1.415 . S
C2745 H2715 0.950 . S
C2745 C2740 1.363 . S
C2745 C2744 1.415 . S
H2746 C2743 0.999 . S
H2747 C2728 0.913 . S
H2748 C2766 0.951 . S
H2749 C2768 0.951 . S
H2750 C2770 0.950 . S
H2751 C2771 0.950 . S
H2752 C2773 0.950 . S
H2753 C2776 0.950 . S
H2754 C2777 0.950 . S
H2755 C2779 0.950 . S
H2756 C2780 0.950 . S
H2757 C2781 0.951 . S
H2758 C2783 0.951 . S
H2759 C2785 0.950 . S
H2760 C2786 0.950 . S
H2761 C2788 0.950 . S
H2762 C2791 0.950 . S
H2763 C2792 0.950 . S
H2764 C2794 0.950 . S
H2765 C2795 0.950 . S
C2766 H2748 0.951 . S
C2766 C2767 1.366 . S
C2766 C2768 1.388 . S
C2767 C2766 1.366 . S
C2767 C2771 1.385 . S
C2768 H2749 0.951 . S
C2768 C2766 1.388 . S
C2768 C2769 1.366 . S
C2769 C2768 1.366 . S
C2769 C2770 1.414 . S
C2769 C2772 1.499 . S
C2770 H2750 0.950 . S
C2770 C2769 1.414 . S
C2770 C2771 1.374 . S
C2771 H2751 0.950 . S
C2771 C2767 1.385 . S
C2771 C2770 1.374 . S
C2772 C2769 1.499 . S
C2772 C2773 1.373 1_554 S
C2772 C2774 1.389 1_455 S
C2773 H2752 0.950 . S
C2773 C2772 1.373 1_556 S
C2773 C2789 1.377 . S
C2774 C2772 1.389 1_655 S
C2774 C2775 1.524 . S
C2774 C2788 1.377 . S
C2775 C2774 1.524 . S
C2775 C2776 1.397 1_655 S
C2775 C2780 1.363 . S
C2776 H2753 0.950 . S
C2776 C2775 1.397 1_455 S
C2776 C2777 1.334 . S
C2777 H2754 0.950 . S
C2777 C2776 1.334 . S
C2777 C2778 1.287 1_455 S
C2778 C2777 1.287 1_655 S
C2778 C2779 1.524 . S
C2778 H2797 0.913 . S
C2779 H2755 0.950 . S
C2779 C2778 1.524 . S
C2779 C2780 1.415 . S
C2780 H2756 0.950 . S
C2780 C2775 1.363 . S
C2780 C2779 1.415 . S
C2781 H2757 0.951 . S
C2781 C2782 1.366 . S
C2781 C2783 1.388 . S
C2782 C2781 1.366 . S
C2782 C2786 1.385 . S
C2783 H2758 0.951 . S
C2783 C2781 1.388 . S
C2783 C2784 1.366 . S
C2784 C2783 1.366 . S
C2784 C2785 1.414 . S
C2784 C2787 1.499 . S
C2785 H2759 0.950 . S
C2785 C2784 1.414 . S
C2785 C2786 1.374 . S
C2786 H2760 0.950 . S
C2786 C2782 1.385 . S
C2786 C2785 1.374 . S
C2787 C2784 1.499 . S
C2787 C2788 1.373 1_556 S
C2787 C2789 1.389 1_655 S
C2788 H2761 0.950 . S
C2788 C2774 1.377 . S
C2788 C2787 1.373 1_554 S
C2789 C2773 1.377 . S
C2789 C2787 1.389 1_455 S
C2789 C2790 1.524 . S
C2790 C2789 1.524 . S
C2790 C2791 1.397 1_455 S
C2790 C2795 1.363 . S
C2791 H2762 0.950 . S
C2791 C2790 1.397 1_655 S
C2791 C2792 1.334 . S
C2792 H2763 0.950 . S
C2792 C2791 1.334 . S
C2792 C2793 1.287 1_655 S
C2793 C2792 1.287 1_455 S
C2793 C2794 1.524 . S
C2793 H2796 0.999 . S
C2794 H2764 0.950 . S
C2794 C2793 1.524 . S
C2794 C2795 1.415 . S
C2795 H2765 0.950 . S
C2795 C2790 1.363 . S
C2795 C2794 1.415 . S
H2796 C2793 0.999 . S
H2797 C2778 0.913 . S
H2798 C2816 0.951 . S
H2799 C2818 0.951 . S
H2800 C2820 0.950 . S
H2801 C2821 0.950 . S
H2802 C2823 0.950 . S
H2803 C2826 0.950 . S
H2804 C2827 0.950 . S
H2805 C2829 0.950 . S
H2806 C2830 0.950 . S
H2807 C2831 0.951 . S
H2808 C2833 0.951 . S
H2809 C2835 0.950 . S
H2810 C2836 0.950 . S
H2811 C2838 0.950 . S
H2812 C2841 0.950 . S
H2813 C2842 0.950 . S
H2814 C2844 0.950 . S
H2815 C2845 0.950 . S
C2816 H2798 0.951 . S
C2816 C2817 1.366 . S
C2816 C2818 1.388 . S
C2817 C2816 1.366 . S
C2817 C2821 1.385 . S
C2818 H2799 0.951 . S
C2818 C2816 1.388 . S
C2818 C2819 1.366 . S
C2819 C2818 1.366 . S
C2819 C2820 1.414 . S
C2819 C2822 1.499 . S
C2820 H2800 0.950 . S
C2820 C2819 1.414 . S
C2820 C2821 1.374 . S
C2821 H2801 0.950 . S
C2821 C2817 1.385 . S
C2821 C2820 1.374 . S
C2822 C2819 1.499 . S
C2822 C2823 1.373 . S
C2822 C2824 1.389 . S
C2823 H2802 0.950 . S
C2823 C2822 1.373 . S
C2823 C2839 1.377 . S
C2824 C2822 1.389 . S
C2824 C2825 1.524 . S
C2824 C2838 1.377 . S
C2825 C2824 1.524 . S
C2825 C2826 1.397 . S
C2825 C2830 1.363 . S
C2826 H2803 0.950 . S
C2826 C2825 1.397 . S
C2826 C2827 1.334 . S
C2827 H2804 0.950 . S
C2827 C2826 1.334 . S
C2827 C2828 1.287 . S
C2828 C2827 1.287 . S
C2828 C2829 1.524 . S
C2828 H2847 0.913 . S
C2829 H2805 0.950 . S
C2829 C2828 1.524 . S
C2829 C2830 1.415 . S
C2830 H2806 0.950 . S
C2830 C2825 1.363 . S
C2830 C2829 1.415 . S
C2831 H2807 0.951 . S
C2831 C2832 1.366 . S
C2831 C2833 1.388 . S
C2832 C2831 1.366 . S
C2832 C2836 1.385 . S
C2833 H2808 0.951 . S
C2833 C2831 1.388 . S
C2833 C2834 1.366 . S
C2834 C2833 1.366 . S
C2834 C2835 1.414 . S
C2834 C2837 1.499 . S
C2835 H2809 0.950 . S
C2835 C2834 1.414 . S
C2835 C2836 1.374 . S
C2836 H2810 0.950 . S
C2836 C2832 1.385 . S
C2836 C2835 1.374 . S
C2837 C2834 1.499 . S
C2837 C2838 1.373 . S
C2837 C2839 1.389 . S
C2838 H2811 0.950 . S
C2838 C2824 1.377 . S
C2838 C2837 1.373 . S
C2839 C2823 1.377 . S
C2839 C2837 1.389 . S
C2839 C2840 1.524 . S
C2840 C2839 1.524 . S
C2840 C2841 1.397 . S
C2840 C2845 1.363 . S
C2841 H2812 0.950 . S
C2841 C2840 1.397 . S
C2841 C2842 1.334 . S
C2842 H2813 0.950 . S
C2842 C2841 1.334 . S
C2842 C2843 1.287 . S
C2843 C2842 1.287 . S
C2843 C2844 1.524 . S
C2843 H2846 0.999 . S
C2844 H2814 0.950 . S
C2844 C2843 1.524 . S
C2844 C2845 1.415 . S
C2845 H2815 0.950 . S
C2845 C2840 1.363 . S
C2845 C2844 1.415 . S
H2846 C2843 0.999 . S
H2847 C2828 0.913 . S
H2848 C2866 0.951 . S
H2849 C2868 0.951 . S
H2850 C2870 0.950 . S
H2851 C2871 0.950 . S
H2852 C2873 0.950 . S
H2853 C2876 0.950 . S
H2854 C2877 0.950 . S
H2855 C2879 0.950 . S
H2856 C2880 0.952 1_565 S
H2857 C2881 0.951 . S
H2858 C2883 0.951 . S
H2859 C2885 0.950 . S
H2860 C2886 0.950 . S
H2861 C2888 0.950 . S
H2862 C2891 0.950 . S
H2863 C2892 0.950 . S
H2864 C2894 0.950 . S
H2865 C2895 0.952 1_545 S
C2866 H2848 0.951 . S
C2866 C2867 1.366 . S
C2866 C2868 1.388 . S
C2867 C2866 1.366 . S
C2867 C2871 1.385 . S
C2868 H2849 0.951 . S
C2868 C2866 1.388 . S
C2868 C2869 1.366 . S
C2869 C2868 1.366 . S
C2869 C2870 1.414 . S
C2869 C2872 1.499 . S
C2870 H2850 0.950 . S
C2870 C2869 1.414 . S
C2870 C2871 1.374 . S
C2871 H2851 0.950 . S
C2871 C2867 1.385 . S
C2871 C2870 1.374 . S
C2872 C2869 1.499 . S
C2872 C2873 1.373 . S
C2872 C2874 1.389 . S
C2873 H2852 0.950 . S
C2873 C2872 1.373 . S
C2873 C2889 1.377 1_545 S
C2874 C2872 1.389 . S
C2874 C2875 1.524 . S
C2874 C2888 1.377 1_545 S
C2875 C2874 1.524 . S
C2875 C2876 1.397 . S
C2875 C2880 1.363 . S
C2876 H2853 0.950 . S
C2876 C2875 1.397 . S
C2876 C2877 1.334 . S
C2877 H2854 0.950 . S
C2877 C2876 1.334 . S
C2877 C2878 1.287 . S
C2878 C2877 1.287 . S
C2878 C2879 1.524 . S
C2878 H2897 0.913 . S
C2879 H2855 0.950 . S
C2879 C2878 1.524 . S
C2879 C2880 1.415 . S
C2880 H2856 0.952 1_545 S
C2880 C2875 1.363 . S
C2880 C2879 1.415 . S
C2881 H2857 0.951 . S
C2881 C2882 1.366 . S
C2881 C2883 1.388 . S
C2882 C2881 1.366 . S
C2882 C2886 1.385 . S
C2883 H2858 0.951 . S
C2883 C2881 1.388 . S
C2883 C2884 1.366 . S
C2884 C2883 1.366 . S
C2884 C2885 1.414 . S
C2884 C2887 1.499 . S
C2885 H2859 0.950 . S
C2885 C2884 1.414 . S
C2885 C2886 1.374 . S
C2886 H2860 0.950 . S
C2886 C2882 1.385 . S
C2886 C2885 1.374 . S
C2887 C2884 1.499 . S
C2887 C2888 1.373 . S
C2887 C2889 1.389 . S
C2888 H2861 0.950 . S
C2888 C2874 1.377 1_565 S
C2888 C2887 1.373 . S
C2889 C2873 1.377 1_565 S
C2889 C2887 1.389 . S
C2889 C2890 1.524 . S
C2890 C2889 1.524 . S
C2890 C2891 1.397 . S
C2890 C2895 1.363 . S
C2891 H2862 0.950 . S
C2891 C2890 1.397 . S
C2891 C2892 1.334 . S
C2892 H2863 0.950 . S
C2892 C2891 1.334 . S
C2892 C2893 1.287 . S
C2893 C2892 1.287 . S
C2893 C2894 1.524 . S
C2893 H2896 0.999 . S
C2894 H2864 0.950 . S
C2894 C2893 1.524 . S
C2894 C2895 1.415 . S
C2895 H2865 0.952 1_565 S
C2895 C2890 1.363 . S
C2895 C2894 1.415 . S
H2896 C2893 0.999 . S
H2897 C2878 0.913 . S
H2898 C2916 0.951 . S
H2899 C2918 0.951 . S
H2900 C2920 0.950 . S
H2901 C2921 0.950 . S
H2902 C2923 0.950 . S
H2903 C2926 0.950 . S
H2904 C2927 0.950 . S
H2905 C2929 0.950 . S
H2906 C2930 0.950 . S
H2907 C2931 0.951 . S
H2908 C2933 0.951 . S
H2909 C2935 0.950 . S
H2910 C2936 0.950 . S
H2911 C2938 0.950 . S
H2912 C2941 0.950 . S
H2913 C2942 0.950 . S
H2914 C2944 0.950 . S
H2915 C2945 0.950 1_545 S
C2916 H2898 0.951 . S
C2916 C2917 1.366 . S
C2916 C2918 1.388 . S
C2917 C2916 1.366 . S
C2917 C2921 1.385 . S
C2918 H2899 0.951 . S
C2918 C2916 1.388 . S
C2918 C2919 1.366 . S
C2919 C2918 1.366 . S
C2919 C2920 1.414 . S
C2919 C2922 1.499 . S
C2920 H2900 0.950 . S
C2920 C2919 1.414 . S
C2920 C2921 1.374 . S
C2921 H2901 0.950 . S
C2921 C2917 1.385 . S
C2921 C2920 1.374 . S
C2922 C2919 1.499 . S
C2922 C2923 1.373 . S
C2922 C2924 1.389 . S
C2923 H2902 0.950 . S
C2923 C2922 1.373 . S
C2923 C2939 1.377 . S
C2924 C2922 1.389 . S
C2924 C2925 1.524 . S
C2924 C2938 1.377 . S
C2925 C2924 1.524 . S
C2925 C2926 1.397 . S
C2925 C2930 1.363 . S
C2926 H2903 0.950 . S
C2926 C2925 1.397 . S
C2926 C2927 1.334 . S
C2927 H2904 0.950 . S
C2927 C2926 1.334 . S
C2927 C2928 1.287 . S
C2928 C2927 1.287 . S
C2928 C2929 1.524 . S
C2928 H2947 0.913 . S
C2929 H2905 0.950 . S
C2929 C2928 1.524 . S
C2929 C2930 1.415 . S
C2930 H2906 0.950 . S
C2930 C2925 1.363 . S
C2930 C2929 1.415 . S
C2931 H2907 0.951 . S
C2931 C2932 1.366 . S
C2931 C2933 1.388 . S
C2932 C2931 1.366 . S
C2932 C2936 1.385 . S
C2933 H2908 0.951 . S
C2933 C2931 1.388 . S
C2933 C2934 1.366 . S
C2934 C2933 1.366 . S
C2934 C2935 1.414 . S
C2934 C2937 1.499 . S
C2935 H2909 0.950 . S
C2935 C2934 1.414 . S
C2935 C2936 1.374 . S
C2936 H2910 0.950 . S
C2936 C2932 1.385 . S
C2936 C2935 1.374 . S
C2937 C2934 1.499 . S
C2937 C2938 1.373 . S
C2937 C2939 1.389 . S
C2938 H2911 0.950 . S
C2938 C2924 1.377 . S
C2938 C2937 1.373 . S
C2939 C2923 1.377 . S
C2939 C2937 1.389 . S
C2939 C2940 1.524 . S
C2940 C2939 1.524 . S
C2940 C2941 1.397 . S
C2940 C2945 1.363 . S
C2941 H2912 0.950 . S
C2941 C2940 1.397 . S
C2941 C2942 1.334 . S
C2942 H2913 0.950 . S
C2942 C2941 1.334 . S
C2942 C2943 1.287 . S
C2943 C2942 1.287 . S
C2943 C2944 1.524 1_565 S
C2943 H2946 1.010 . S
C2944 H2914 0.950 . S
C2944 C2943 1.524 1_545 S
C2944 C2945 1.415 1_545 S
C2945 H2915 0.950 1_565 S
C2945 C2940 1.363 . S
C2945 C2944 1.415 1_565 S
H2946 C2943 1.010 . S
H2947 C2928 0.913 . S
H2948 C2966 0.951 . S
H2949 C2968 0.951 . S
H2950 C2970 0.950 . S
H2951 C2971 0.950 . S
H2952 C2973 0.950 . S
H2953 C2976 0.950 . S
H2954 C2977 0.950 . S
H2955 C2979 0.950 . S
H2956 C2980 0.950 . S
H2957 C2981 0.951 . S
H2958 C2983 0.951 . S
H2959 C2985 0.950 . S
H2960 C2986 0.950 . S
H2961 C2988 0.950 . S
H2962 C2991 0.950 . S
H2963 C2992 0.950 . S
H2964 C2994 0.950 . S
H2965 C2995 0.950 . S
C2966 H2948 0.951 . S
C2966 C2967 1.366 . S
C2966 C2968 1.388 . S
C2967 C2966 1.366 . S
C2967 C2971 1.385 . S
C2968 H2949 0.951 . S
C2968 C2966 1.388 . S
C2968 C2969 1.366 . S
C2969 C2968 1.366 . S
C2969 C2970 1.414 . S
C2969 C2972 1.499 . S
C2970 H2950 0.950 . S
C2970 C2969 1.414 . S
C2970 C2971 1.374 . S
C2971 H2951 0.950 . S
C2971 C2967 1.385 . S
C2971 C2970 1.374 . S
C2972 C2969 1.499 . S
C2972 C2973 1.373 . S
C2972 C2974 1.389 1_545 S
C2973 H2952 0.950 . S
C2973 C2972 1.373 . S
C2973 C2989 1.377 . S
C2974 C2972 1.389 1_565 S
C2974 C2975 1.524 . S
C2974 C2988 1.377 . S
C2975 C2974 1.524 . S
C2975 C2976 1.397 1_565 S
C2975 C2980 1.363 . S
C2976 H2953 0.950 . S
C2976 C2975 1.397 1_545 S
C2976 C2977 1.334 . S
C2977 H2954 0.950 . S
C2977 C2976 1.334 . S
C2977 C2978 1.287 1_545 S
C2978 C2977 1.287 1_565 S
C2978 C2979 1.524 . S
C2978 H2997 0.913 . S
C2979 H2955 0.950 . S
C2979 C2978 1.524 . S
C2979 C2980 1.415 . S
C2980 H2956 0.950 . S
C2980 C2975 1.363 . S
C2980 C2979 1.415 . S
C2981 H2957 0.951 . S
C2981 C2982 1.366 . S
C2981 C2983 1.388 . S
C2982 C2981 1.366 . S
C2982 C2986 1.385 . S
C2983 H2958 0.951 . S
C2983 C2981 1.388 . S
C2983 C2984 1.366 . S
C2984 C2983 1.366 . S
C2984 C2985 1.414 . S
C2984 C2987 1.499 . S
C2985 H2959 0.950 . S
C2985 C2984 1.414 . S
C2985 C2986 1.374 . S
C2986 H2960 0.950 . S
C2986 C2982 1.385 . S
C2986 C2985 1.374 . S
C2987 C2984 1.499 . S
C2987 C2988 1.373 . S
C2987 C2989 1.389 1_565 S
C2988 H2961 0.950 . S
C2988 C2974 1.377 . S
C2988 C2987 1.373 . S
C2989 C2973 1.377 . S
C2989 C2987 1.389 1_545 S
C2989 C2990 1.524 . S
C2990 C2989 1.524 . S
C2990 C2991 1.397 1_545 S
C2990 C2995 1.363 . S
C2991 H2962 0.950 . S
C2991 C2990 1.397 1_565 S
C2991 C2992 1.334 . S
C2992 H2963 0.950 . S
C2992 C2991 1.334 . S
C2992 C2993 1.287 1_565 S
C2993 C2992 1.287 1_545 S
C2993 C2994 1.524 . S
C2993 H2996 0.999 . S
C2994 H2964 0.950 . S
C2994 C2993 1.524 . S
C2994 C2995 1.415 . S
C2995 H2965 0.950 . S
C2995 C2990 1.363 . S
C2995 C2994 1.415 . S
H2996 C2993 0.999 . S
H2997 C2978 0.913 . S
H2998 C3016 0.951 . S
H2999 C3018 0.951 . S
H3000 C3020 0.950 . S
H3001 C3021 0.950 . S
H3002 C3023 0.950 . S
H3003 C3026 0.950 . S
H3004 C3027 0.950 . S
H3005 C3029 0.950 . S
H3006 C3030 0.950 . S
H3007 C3031 0.951 . S
H3008 C3033 0.951 . S
H3009 C3035 0.950 . S
H3010 C3036 0.950 . S
H3011 C3038 0.950 . S
H3012 C3041 0.950 . S
H3013 C3042 0.950 . S
H3014 C3044 0.950 . S
H3015 C3045 0.950 . S
C3016 H2998 0.951 . S
C3016 C3017 1.366 . S
C3016 C3018 1.388 . S
C3017 C3016 1.366 . S
C3017 C3021 1.385 . S
C3018 H2999 0.951 . S
C3018 C3016 1.388 . S
C3018 C3019 1.366 . S
C3019 C3018 1.366 . S
C3019 C3020 1.414 . S
C3019 C3022 1.499 . S
C3020 H3000 0.950 . S
C3020 C3019 1.414 . S
C3020 C3021 1.374 . S
C3021 H3001 0.950 . S
C3021 C3017 1.385 . S
C3021 C3020 1.374 . S
C3022 C3019 1.499 . S
C3022 C3023 1.373 . S
C3022 C3024 1.389 1_554 S
C3023 H3002 0.950 . S
C3023 C3022 1.373 . S
C3023 C3039 1.377 . S
C3024 C3022 1.389 1_556 S
C3024 C3025 1.524 . S
C3024 C3038 1.377 . S
C3025 C3024 1.524 . S
C3025 C3026 1.361 1_556 S
C3025 C3030 1.400 . S
C3026 H3003 0.950 . S
C3026 C3025 1.361 1_554 S
C3026 C3027 1.334 . S
C3027 H3004 0.950 . S
C3027 C3026 1.334 . S
C3027 C3028 1.316 . S
C3028 C3027 1.316 . S
C3028 C3029 1.494 1_554 S
C3028 H3047 0.912 . S
C3029 H3005 0.950 . S
C3029 C3028 1.494 1_556 S
C3029 C3030 1.415 . S
C3030 H3006 0.950 . S
C3030 C3025 1.400 . S
C3030 C3029 1.415 . S
C3031 H3007 0.951 . S
C3031 C3032 1.366 . S
C3031 C3033 1.388 . S
C3032 C3031 1.366 . S
C3032 C3036 1.385 . S
C3033 H3008 0.951 . S
C3033 C3031 1.388 . S
C3033 C3034 1.366 . S
C3034 C3033 1.366 . S
C3034 C3035 1.414 . S
C3034 C3037 1.499 . S
C3035 H3009 0.950 . S
C3035 C3034 1.414 . S
C3035 C3036 1.374 . S
C3036 H3010 0.950 . S
C3036 C3032 1.385 . S
C3036 C3035 1.374 . S
C3037 C3034 1.499 . S
C3037 C3038 1.373 . S
C3037 C3039 1.389 1_556 S
C3038 H3011 0.950 . S
C3038 C3024 1.377 . S
C3038 C3037 1.373 . S
C3039 C3023 1.377 . S
C3039 C3037 1.389 1_554 S
C3039 C3040 1.524 . S
C3040 C3039 1.524 . S
C3040 C3041 1.362 1_554 S
C3040 C3045 1.400 . S
C3041 H3012 0.950 . S
C3041 C3040 1.362 1_556 S
C3041 C3042 1.334 1_545 S
C3042 H3013 0.950 . S
C3042 C3041 1.334 1_565 S
C3042 C3043 1.316 . S
C3043 C3042 1.316 . S
C3043 C3044 1.494 1_556 S
C3043 H3046 0.999 . S
C3044 H3014 0.950 . S
C3044 C3043 1.494 1_554 S
C3044 C3045 1.415 1_565 S
C3045 H3015 0.950 . S
C3045 C3040 1.400 . S
C3045 C3044 1.415 1_545 S
H3046 C3043 0.999 . S
H3047 C3028 0.912 . S
H3048 C3066 0.951 . S
H3049 C3068 0.951 . S
H3050 C3070 0.950 . S
H3051 C3071 0.950 . S
H3052 C3073 0.950 . S
H3053 C3076 0.950 . S
H3054 C3077 0.950 1_545 S
H3055 C3079 0.950 . S
H3056 C3080 0.950 . S
H3057 C3081 0.951 . S
H3058 C3083 0.951 . S
H3059 C3085 0.950 . S
H3060 C3086 0.950 . S
H3061 C3088 0.950 . S
H3062 C3091 0.950 . S
H3063 C3092 0.950 1_565 S
H3064 C3094 0.950 . S
H3065 C3095 0.950 . S
C3066 H3048 0.951 . S
C3066 C3067 1.366 . S
C3066 C3068 1.388 . S
C3067 C3066 1.366 . S
C3067 C3071 1.385 . S
C3068 H3049 0.951 . S
C3068 C3066 1.388 . S
C3068 C3069 1.366 . S
C3069 C3068 1.366 . S
C3069 C3070 1.414 . S
C3069 C3072 1.499 . S
C3070 H3050 0.950 . S
C3070 C3069 1.414 . S
C3070 C3071 1.374 . S
C3071 H3051 0.950 . S
C3071 C3067 1.385 . S
C3071 C3070 1.374 . S
C3072 C3069 1.499 . S
C3072 C3073 1.373 . S
C3072 C3074 1.389 1_545 S
C3073 H3052 0.950 . S
C3073 C3072 1.373 . S
C3073 C3089 1.377 . S
C3074 C3072 1.389 1_565 S
C3074 C3075 1.524 . S
C3074 C3088 1.377 . S
C3075 C3074 1.524 . S
C3075 C3076 1.397 1_565 S
C3075 C3080 1.363 . S
C3076 H3053 0.950 . S
C3076 C3075 1.397 1_545 S
C3076 C3077 1.334 1_545 S
C3077 H3054 0.950 1_565 S
C3077 C3076 1.334 1_565 S
C3077 C3078 1.287 . S
C3078 C3077 1.287 . S
C3078 C3079 1.524 . S
C3078 H3097 0.913 . S
C3079 H3055 0.950 . S
C3079 C3078 1.524 . S
C3079 C3080 1.415 . S
C3080 H3056 0.950 . S
C3080 C3075 1.363 . S
C3080 C3079 1.415 . S
C3081 H3057 0.951 . S
C3081 C3082 1.366 . S
C3081 C3083 1.388 . S
C3082 C3081 1.366 . S
C3082 C3086 1.385 . S
C3083 H3058 0.951 . S
C3083 C3081 1.388 . S
C3083 C3084 1.366 . S
C3084 C3083 1.366 . S
C3084 C3085 1.414 . S
C3084 C3087 1.499 . S
C3085 H3059 0.950 . S
C3085 C3084 1.414 . S
C3085 C3086 1.374 . S
C3086 H3060 0.950 . S
C3086 C3082 1.385 . S
C3086 C3085 1.374 . S
C3087 C3084 1.499 . S
C3087 C3088 1.373 . S
C3087 C3089 1.389 1_565 S
C3088 H3061 0.950 . S
C3088 C3074 1.377 . S
C3088 C3087 1.373 . S
C3089 C3073 1.377 . S
C3089 C3087 1.389 1_545 S
C3089 C3090 1.524 . S
C3090 C3089 1.524 . S
C3090 C3091 1.397 1_545 S
C3090 C3095 1.363 . S
C3091 H3062 0.950 . S
C3091 C3090 1.397 1_565 S
C3091 C3092 1.334 1_565 S
C3092 H3063 0.950 1_545 S
C3092 C3091 1.334 1_545 S
C3092 C3093 1.287 . S
C3093 C3092 1.287 . S
C3093 C3094 1.524 . S
C3093 H3096 0.999 . S
C3094 H3064 0.950 . S
C3094 C3093 1.524 . S
C3094 C3095 1.415 . S
C3095 H3065 0.950 . S
C3095 C3090 1.363 . S
C3095 C3094 1.415 . S
H3096 C3093 0.999 . S
H3097 C3078 0.913 . S
H3098 C3116 0.951 . S
H3099 C3118 0.951 . S
H3100 C3120 0.950 . S
H3101 C3121 0.950 . S
H3102 C3123 0.950 . S
H3103 C3126 0.950 . S
H3104 C3127 0.950 . S
H3105 C3129 0.950 . S
H3106 C3130 0.948 1_545 S
H3107 C3131 0.951 . S
H3108 C3133 0.951 . S
H3109 C3135 0.950 . S
H3110 C3136 0.950 . S
H3111 C3138 0.950 . S
H3112 C3141 0.950 . S
H3113 C3142 0.950 . S
H3114 C3144 0.950 . S
H3115 C3145 0.950 . S
C3116 H3098 0.951 . S
C3116 C3117 1.366 . S
C3116 C3118 1.388 . S
C3117 C3116 1.366 . S
C3117 C3121 1.385 . S
C3118 H3099 0.951 . S
C3118 C3116 1.388 . S
C3118 C3119 1.366 . S
C3119 C3118 1.366 . S
C3119 C3120 1.414 . S
C3119 C3122 1.499 . S
C3120 H3100 0.950 . S
C3120 C3119 1.414 . S
C3120 C3121 1.374 . S
C3121 H3101 0.950 . S
C3121 C3117 1.385 . S
C3121 C3120 1.374 . S
C3122 C3119 1.499 . S
C3122 C3123 1.373 . S
C3122 C3124 1.389 . S
C3123 H3102 0.950 . S
C3123 C3122 1.373 . S
C3123 C3139 1.377 . S
C3124 C3122 1.389 . S
C3124 C3125 1.524 . S
C3124 C3138 1.377 . S
C3125 C3124 1.524 . S
C3125 C3126 1.397 . S
C3125 C3130 1.360 1_545 S
C3126 H3103 0.950 . S
C3126 C3125 1.397 . S
C3126 C3127 1.334 1_545 S
C3127 H3104 0.950 . S
C3127 C3126 1.334 1_565 S
C3127 C3128 1.287 . S
C3128 C3127 1.287 . S
C3128 C3129 1.524 . S
C3128 H3147 0.913 . S
C3129 H3105 0.950 . S
C3129 C3128 1.524 . S
C3129 C3130 1.420 . S
C3130 H3106 0.948 1_565 S
C3130 C3125 1.360 1_565 S
C3130 C3129 1.420 . S
C3131 H3107 0.951 . S
C3131 C3132 1.366 . S
C3131 C3133 1.388 . S
C3132 C3131 1.366 . S
C3132 C3136 1.385 . S
C3133 H3108 0.951 . S
C3133 C3131 1.388 . S
C3133 C3134 1.366 . S
C3134 C3133 1.366 . S
C3134 C3135 1.414 . S
C3134 C3137 1.499 . S
C3135 H3109 0.950 . S
C3135 C3134 1.414 . S
C3135 C3136 1.374 . S
C3136 H3110 0.950 . S
C3136 C3132 1.385 . S
C3136 C3135 1.374 . S
C3137 C3134 1.499 . S
C3137 C3138 1.373 . S
C3137 C3139 1.389 . S
C3138 H3111 0.950 . S
C3138 C3124 1.377 . S
C3138 C3137 1.373 . S
C3139 C3123 1.377 . S
C3139 C3137 1.389 . S
C3139 C3140 1.524 . S
C3140 C3139 1.524 . S
C3140 C3141 1.397 . S
C3140 C3145 1.363 . S
C3141 H3112 0.950 . S
C3141 C3140 1.397 . S
C3141 C3142 1.334 . S
C3142 H3113 0.950 . S
C3142 C3141 1.334 . S
C3142 C3143 1.287 . S
C3143 C3142 1.287 . S
C3143 C3144 1.524 . S
C3143 H3146 0.999 . S
C3144 H3114 0.950 . S
C3144 C3143 1.524 . S
C3144 C3145 1.415 . S
C3145 H3115 0.950 . S
C3145 C3140 1.363 . S
C3145 C3144 1.415 . S
H3146 C3143 0.999 . S
H3147 C3128 0.913 . S
H3148 C3166 0.951 . S
H3149 C3168 0.951 . S
H3150 C3170 0.950 . S
H3151 C3171 0.950 . S
H3152 C3173 0.950 . S
H3153 C3176 0.950 . S
H3154 C3177 0.950 . S
H3155 C3179 0.950 . S
H3156 C3180 0.950 . S
H3157 C3181 0.951 . S
H3158 C3183 0.951 . S
H3159 C3185 0.950 . S
H3160 C3186 0.950 . S
H3161 C3188 0.950 . S
H3162 C3191 0.950 . S
H3163 C3192 0.950 . S
H3164 C3194 0.950 . S
H3165 C3195 0.950 . S
C3166 H3148 0.951 . S
C3166 C3167 1.366 . S
C3166 C3168 1.388 . S
C3167 C3166 1.366 . S
C3167 C3171 1.385 . S
C3168 H3149 0.951 . S
C3168 C3166 1.388 . S
C3168 C3169 1.366 . S
C3169 C3168 1.366 . S
C3169 C3170 1.414 . S
C3169 C3172 1.499 . S
C3170 H3150 0.950 . S
C3170 C3169 1.414 . S
C3170 C3171 1.374 . S
C3171 H3151 0.950 . S
C3171 C3167 1.385 . S
C3171 C3170 1.374 . S
C3172 C3169 1.499 . S
C3172 C3173 1.373 . S
C3172 C3174 1.389 . S
C3173 H3152 0.950 . S
C3173 C3172 1.373 . S
C3173 C3189 1.377 1_545 S
C3174 C3172 1.389 . S
C3174 C3175 1.524 . S
C3174 C3188 1.377 1_545 S
C3175 C3174 1.524 . S
C3175 C3176 1.397 . S
C3175 C3180 1.363 1_545 S
C3176 H3153 0.950 . S
C3176 C3175 1.397 . S
C3176 C3177 1.334 . S
C3177 H3154 0.950 . S
C3177 C3176 1.334 . S
C3177 C3178 1.287 . S
C3178 C3177 1.287 . S
C3178 C3179 1.524 1_545 S
C3178 H3197 0.913 . S
C3179 H3155 0.950 . S
C3179 C3178 1.524 1_565 S
C3179 C3180 1.415 . S
C3180 H3156 0.950 . S
C3180 C3175 1.363 1_565 S
C3180 C3179 1.415 . S
C3181 H3157 0.951 . S
C3181 C3182 1.366 . S
C3181 C3183 1.388 . S
C3182 C3181 1.366 . S
C3182 C3186 1.385 . S
C3183 H3158 0.951 . S
C3183 C3181 1.388 . S
C3183 C3184 1.366 . S
C3184 C3183 1.366 . S
C3184 C3185 1.414 . S
C3184 C3187 1.499 . S
C3185 H3159 0.950 . S
C3185 C3184 1.414 . S
C3185 C3186 1.374 . S
C3186 H3160 0.950 . S
C3186 C3182 1.385 . S
C3186 C3185 1.374 . S
C3187 C3184 1.499 . S
C3187 C3188 1.373 . S
C3187 C3189 1.389 . S
C3188 H3161 0.950 . S
C3188 C3174 1.377 1_565 S
C3188 C3187 1.373 . S
C3189 C3173 1.377 1_565 S
C3189 C3187 1.389 . S
C3189 C3190 1.524 . S
C3190 C3189 1.524 . S
C3190 C3191 1.397 . S
C3190 C3195 1.363 1_565 S
C3191 H3162 0.950 . S
C3191 C3190 1.397 . S
C3191 C3192 1.334 . S
C3192 H3163 0.950 . S
C3192 C3191 1.334 . S
C3192 C3193 1.287 . S
C3193 C3192 1.287 . S
C3193 C3194 1.524 1_565 S
C3193 H3196 0.999 . S
C3194 H3164 0.950 . S
C3194 C3193 1.524 1_545 S
C3194 C3195 1.415 . S
C3195 H3165 0.950 . S
C3195 C3190 1.363 1_545 S
C3195 C3194 1.415 . S
H3196 C3193 0.999 . S
H3197 C3178 0.913 . S
H3198 C3216 0.951 . S
H3199 C3218 0.951 . S
H3200 C3220 0.950 . S
H3201 C3221 0.950 . S
H3202 C3223 0.950 . S
H3203 C3226 0.950 . S
H3204 C3227 0.944 . S
H3205 C3229 0.950 . S
H3206 C3230 0.950 . S
H3207 C3231 0.951 . S
H3208 C3233 0.951 . S
H3209 C3235 0.950 . S
H3210 C3236 0.950 . S
H3211 C3238 0.950 . S
H3212 C3241 0.950 . S
H3213 C3242 0.944 . S
H3214 C3244 0.950 . S
H3215 C3245 0.950 . S
C3216 H3198 0.951 . S
C3216 C3217 1.366 . S
C3216 C3218 1.388 . S
C3217 C3216 1.366 . S
C3217 C3221 1.385 . S
C3218 H3199 0.951 . S
C3218 C3216 1.388 . S
C3218 C3219 1.366 . S
C3219 C3218 1.366 . S
C3219 C3220 1.414 . S
C3219 C3222 1.499 . S
C3220 H3200 0.950 . S
C3220 C3219 1.414 . S
C3220 C3221 1.374 . S
C3221 H3201 0.950 . S
C3221 C3217 1.385 . S
C3221 C3220 1.374 . S
C3222 C3219 1.499 . S
C3222 C3223 1.373 . S
C3222 C3224 1.389 1_556 S
C3223 H3202 0.950 . S
C3223 C3222 1.373 . S
C3223 C3239 1.377 . S
C3224 C3222 1.389 1_554 S
C3224 C3225 1.524 . S
C3224 C3238 1.377 . S
C3225 C3224 1.524 . S
C3225 C3226 1.397 1_554 S
C3225 C3230 1.363 . S
C3226 H3203 0.950 . S
C3226 C3225 1.397 1_556 S
C3226 C3227 1.332 1_565 S
C3227 H3204 0.944 . S
C3227 C3226 1.332 1_545 S
C3227 C3228 1.295 1_546 S
C3228 C3227 1.295 1_564 S
C3228 C3229 1.524 . S
C3228 H3247 0.913 1_565 S
C3229 H3205 0.950 . S
C3229 C3228 1.524 . S
C3229 C3230 1.415 . S
C3230 H3206 0.950 . S
C3230 C3225 1.363 . S
C3230 C3229 1.415 . S
C3231 H3207 0.951 . S
C3231 C3232 1.366 . S
C3231 C3233 1.388 . S
C3232 C3231 1.366 . S
C3232 C3236 1.385 . S
C3233 H3208 0.951 . S
C3233 C3231 1.388 . S
C3233 C3234 1.366 . S
C3234 C3233 1.366 . S
C3234 C3235 1.414 . S
C3234 C3237 1.499 . S
C3235 H3209 0.950 . S
C3235 C3234 1.414 . S
C3235 C3236 1.374 . S
C3236 H3210 0.950 . S
C3236 C3232 1.385 . S
C3236 C3235 1.374 . S
C3237 C3234 1.499 . S
C3237 C3238 1.373 . S
C3237 C3239 1.389 1_554 S
C3238 H3211 0.950 . S
C3238 C3224 1.377 . S
C3238 C3237 1.373 . S
C3239 C3223 1.377 . S
C3239 C3237 1.389 1_556 S
C3239 C3240 1.524 . S
C3240 C3239 1.524 . S
C3240 C3241 1.397 1_556 S
C3240 C3245 1.363 . S
C3241 H3212 0.950 . S
C3241 C3240 1.397 1_554 S
C3241 C3242 1.332 . S
C3242 H3213 0.944 . S
C3242 C3241 1.332 . S
C3242 C3243 1.295 1_554 S
C3243 C3242 1.295 1_556 S
C3243 C3244 1.524 . S
C3243 H3246 0.999 . S
C3244 H3214 0.950 . S
C3244 C3243 1.524 . S
C3244 C3245 1.415 . S
C3245 H3215 0.950 . S
C3245 C3240 1.363 . S
C3245 C3244 1.415 . S
H3246 C3243 0.999 . S
H3247 C3228 0.913 1_545 S
H3248 C3266 0.951 . S
H3249 C3268 0.951 . S
H3250 C3270 0.950 . S
H3251 C3271 0.950 . S
H3252 C3273 0.950 . S
H3253 C3276 0.950 . S
H3254 C3277 0.950 . S
H3255 C3279 0.950 . S
H3256 C3280 0.950 . S
H3257 C3281 0.951 . S
H3258 C3283 0.951 . S
H3259 C3285 0.950 . S
H3260 C3286 0.950 . S
H3261 C3288 0.950 . S
H3262 C3291 0.950 . S
H3263 C3292 0.950 . S
H3264 C3294 0.950 . S
H3265 C3295 0.950 . S
C3266 H3248 0.951 . S
C3266 C3267 1.366 . S
C3266 C3268 1.388 . S
C3267 C3266 1.366 . S
C3267 C3271 1.385 . S
C3268 H3249 0.951 . S
C3268 C3266 1.388 . S
C3268 C3269 1.366 . S
C3269 C3268 1.366 . S
C3269 C3270 1.414 . S
C3269 C3272 1.499 . S
C3270 H3250 0.950 . S
C3270 C3269 1.414 . S
C3270 C3271 1.374 . S
C3271 H3251 0.950 . S
C3271 C3267 1.385 . S
C3271 C3270 1.374 . S
C3272 C3269 1.499 . S
C3272 C3273 1.373 . S
C3272 C3274 1.389 . S
C3273 H3252 0.950 . S
C3273 C3272 1.373 . S
C3273 C3289 1.377 . S
C3274 C3272 1.389 . S
C3274 C3275 1.524 . S
C3274 C3288 1.377 . S
C3275 C3274 1.524 . S
C3275 C3276 1.397 . S
C3275 C3280 1.363 . S
C3276 H3253 0.950 . S
C3276 C3275 1.397 . S
C3276 C3277 1.334 . S
C3277 H3254 0.950 . S
C3277 C3276 1.334 . S
C3277 C3278 1.287 . S
C3278 C3277 1.287 . S
C3278 C3279 1.524 . S
C3278 H3297 0.913 . S
C3279 H3255 0.950 . S
C3279 C3278 1.524 . S
C3279 C3280 1.415 . S
C3280 H3256 0.950 . S
C3280 C3275 1.363 . S
C3280 C3279 1.415 . S
C3281 H3257 0.951 . S
C3281 C3282 1.366 . S
C3281 C3283 1.388 . S
C3282 C3281 1.366 . S
C3282 C3286 1.385 . S
C3283 H3258 0.951 . S
C3283 C3281 1.388 . S
C3283 C3284 1.366 . S
C3284 C3283 1.366 . S
C3284 C3285 1.414 . S
C3284 C3287 1.499 . S
C3285 H3259 0.950 . S
C3285 C3284 1.414 . S
C3285 C3286 1.374 . S
C3286 H3260 0.950 . S
C3286 C3282 1.385 . S
C3286 C3285 1.374 . S
C3287 C3284 1.499 . S
C3287 C3288 1.373 . S
C3287 C3289 1.389 . S
C3288 H3261 0.950 . S
C3288 C3274 1.377 . S
C3288 C3287 1.373 . S
C3289 C3273 1.377 . S
C3289 C3287 1.389 . S
C3289 C3290 1.524 . S
C3290 C3289 1.524 . S
C3290 C3291 1.397 . S
C3290 C3295 1.363 . S
C3291 H3262 0.950 . S
C3291 C3290 1.397 . S
C3291 C3292 1.334 . S
C3292 H3263 0.950 . S
C3292 C3291 1.334 . S
C3292 C3293 1.287 . S
C3293 C3292 1.287 . S
C3293 C3294 1.524 . S
C3293 H3296 0.999 . S
C3294 H3264 0.950 . S
C3294 C3293 1.524 . S
C3294 C3295 1.415 . S
C3295 H3265 0.950 . S
C3295 C3290 1.363 . S
C3295 C3294 1.415 . S
H3296 C3293 0.999 . S
H3297 C3278 0.913 . S
H3298 C3316 0.951 . S
H3299 C3318 0.951 . S
H3300 C3320 0.950 . S
H3301 C3321 0.950 . S
H3302 C3323 0.950 . S
H3303 C3326 0.950 . S
H3304 C3327 0.950 . S
H3305 C3329 0.950 . S
H3306 C3330 0.950 . S
H3307 C3331 0.951 . S
H3308 C3333 0.951 . S
H3309 C3335 0.950 . S
H3310 C3336 0.950 . S
H3311 C3338 0.950 . S
H3312 C3341 0.950 . S
H3313 C3342 0.950 . S
H3314 C3344 0.950 . S
H3315 C3345 0.950 . S
C3316 H3298 0.951 . S
C3316 C3317 1.366 . S
C3316 C3318 1.388 . S
C3317 C3316 1.366 . S
C3317 C3321 1.385 . S
C3318 H3299 0.951 . S
C3318 C3316 1.388 . S
C3318 C3319 1.366 . S
C3319 C3318 1.366 . S
C3319 C3320 1.414 . S
C3319 C3322 1.499 . S
C3320 H3300 0.950 . S
C3320 C3319 1.414 . S
C3320 C3321 1.374 . S
C3321 H3301 0.950 . S
C3321 C3317 1.385 . S
C3321 C3320 1.374 . S
C3322 C3319 1.499 . S
C3322 C3323 1.373 . S
C3322 C3324 1.389 1_556 S
C3323 H3302 0.950 . S
C3323 C3322 1.373 . S
C3323 C3339 1.377 . S
C3324 C3322 1.389 1_554 S
C3324 C3325 1.524 . S
C3324 C3338 1.377 . S
C3325 C3324 1.524 . S
C3325 C3326 1.397 . S
C3325 C3330 1.363 . S
C3326 H3303 0.950 . S
C3326 C3325 1.397 . S
C3326 C3327 1.334 . S
C3327 H3304 0.950 . S
C3327 C3326 1.334 . S
C3327 C3328 1.287 . S
C3328 C3327 1.287 . S
C3328 C3329 1.524 . S
C3328 H3347 0.913 . S
C3329 H3305 0.950 . S
C3329 C3328 1.524 . S
C3329 C3330 1.415 . S
C3330 H3306 0.950 . S
C3330 C3325 1.363 . S
C3330 C3329 1.415 . S
C3331 H3307 0.951 . S
C3331 C3332 1.366 . S
C3331 C3333 1.388 . S
C3332 C3331 1.366 . S
C3332 C3336 1.385 . S
C3333 H3308 0.951 . S
C3333 C3331 1.388 . S
C3333 C3334 1.366 . S
C3334 C3333 1.366 . S
C3334 C3335 1.414 . S
C3334 C3337 1.499 . S
C3335 H3309 0.950 . S
C3335 C3334 1.414 . S
C3335 C3336 1.374 . S
C3336 H3310 0.950 . S
C3336 C3332 1.385 . S
C3336 C3335 1.374 . S
C3337 C3334 1.499 . S
C3337 C3338 1.373 . S
C3337 C3339 1.389 1_554 S
C3338 H3311 0.950 . S
C3338 C3324 1.377 . S
C3338 C3337 1.373 . S
C3339 C3323 1.377 . S
C3339 C3337 1.389 1_556 S
C3339 C3340 1.524 . S
C3340 C3339 1.524 . S
C3340 C3341 1.397 . S
C3340 C3345 1.363 . S
C3341 H3312 0.950 . S
C3341 C3340 1.397 . S
C3341 C3342 1.334 . S
C3342 H3313 0.950 . S
C3342 C3341 1.334 . S
C3342 C3343 1.287 . S
C3343 C3342 1.287 . S
C3343 C3344 1.524 . S
C3343 H3346 0.999 . S
C3344 H3314 0.950 . S
C3344 C3343 1.524 . S
C3344 C3345 1.415 . S
C3345 H3315 0.950 . S
C3345 C3340 1.363 . S
C3345 C3344 1.415 . S
H3346 C3343 0.999 . S
H3347 C3328 0.913 . S
H3348 C3366 0.951 . S
H3349 C3368 0.951 . S
H3350 C3370 0.950 . S
H3351 C3371 0.950 . S
H3352 C3373 0.950 . S
H3353 C3376 0.950 . S
H3354 C3377 0.950 . S
H3355 C3379 0.950 . S
H3356 C3380 0.950 . S
H3357 C3381 0.951 . S
H3358 C3383 0.951 . S
H3359 C3385 0.950 . S
H3360 C3386 0.950 . S
H3361 C3388 0.950 . S
H3362 C3391 0.950 . S
H3363 C3392 0.950 . S
H3364 C3394 0.950 . S
H3365 C3395 0.950 . S
C3366 H3348 0.951 . S
C3366 C3367 1.366 . S
C3366 C3368 1.388 . S
C3367 C3366 1.366 . S
C3367 C3371 1.385 . S
C3368 H3349 0.951 . S
C3368 C3366 1.388 . S
C3368 C3369 1.366 . S
C3369 C3368 1.366 . S
C3369 C3370 1.414 . S
C3369 C3372 1.499 . S
C3370 H3350 0.950 . S
C3370 C3369 1.414 . S
C3370 C3371 1.374 . S
C3371 H3351 0.950 . S
C3371 C3367 1.385 . S
C3371 C3370 1.374 . S
C3372 C3369 1.499 . S
C3372 C3373 1.373 . S
C3372 C3374 1.389 . S
C3373 H3352 0.950 . S
C3373 C3372 1.373 . S
C3373 C3389 1.377 . S
C3374 C3372 1.389 . S
C3374 C3375 1.524 . S
C3374 C3388 1.377 . S
C3375 C3374 1.524 . S
C3375 C3376 1.397 . S
C3375 C3380 1.363 . S
C3376 H3353 0.950 . S
C3376 C3375 1.397 . S
C3376 C3377 1.334 . S
C3377 H3354 0.950 . S
C3377 C3376 1.334 . S
C3377 C3378 1.287 . S
C3378 C3377 1.287 . S
C3378 C3379 1.524 . S
C3378 H3397 0.913 . S
C3379 H3355 0.950 . S
C3379 C3378 1.524 . S
C3379 C3380 1.415 . S
C3380 H3356 0.950 . S
C3380 C3375 1.363 . S
C3380 C3379 1.415 . S
C3381 H3357 0.951 . S
C3381 C3382 1.366 . S
C3381 C3383 1.388 . S
C3382 C3381 1.366 . S
C3382 C3386 1.385 . S
C3383 H3358 0.951 . S
C3383 C3381 1.388 . S
C3383 C3384 1.366 . S
C3384 C3383 1.366 . S
C3384 C3385 1.414 . S
C3384 C3387 1.499 . S
C3385 H3359 0.950 . S
C3385 C3384 1.414 . S
C3385 C3386 1.374 . S
C3386 H3360 0.950 . S
C3386 C3382 1.385 . S
C3386 C3385 1.374 . S
C3387 C3384 1.499 . S
C3387 C3388 1.373 . S
C3387 C3389 1.389 . S
C3388 H3361 0.950 . S
C3388 C3374 1.377 . S
C3388 C3387 1.373 . S
C3389 C3373 1.377 . S
C3389 C3387 1.389 . S
C3389 C3390 1.524 . S
C3390 C3389 1.524 . S
C3390 C3391 1.397 . S
C3390 C3395 1.363 . S
C3391 H3362 0.950 . S
C3391 C3390 1.397 . S
C3391 C3392 1.334 . S
C3392 H3363 0.950 . S
C3392 C3391 1.334 . S
C3392 C3393 1.287 . S
C3393 C3392 1.287 . S
C3393 C3394 1.524 . S
C3393 H3396 0.999 . S
C3394 H3364 0.950 . S
C3394 C3393 1.524 . S
C3394 C3395 1.415 . S
C3395 H3365 0.950 . S
C3395 C3390 1.363 . S
C3395 C3394 1.415 . S
H3396 C3393 0.999 . S
H3397 C3378 0.913 . S
H3398 C3416 0.951 . S
H3399 C3418 0.951 . S
H3400 C3420 0.950 . S
H3401 C3421 0.950 . S
H3402 C3423 0.950 . S
H3403 C3426 0.950 . S
H3404 C3427 0.950 . S
H3405 C3429 0.950 . S
H3406 C3430 0.950 . S
H3407 C3431 0.951 . S
H3408 C3433 0.951 . S
H3409 C3435 0.950 . S
H3410 C3436 0.950 . S
H3411 C3438 0.950 . S
H3412 C3441 0.950 . S
H3413 C3442 0.950 . S
H3414 C3444 0.950 . S
H3415 C3445 0.950 . S
C3416 H3398 0.951 . S
C3416 C3417 1.366 . S
C3416 C3418 1.388 . S
C3417 C3416 1.366 . S
C3417 C3421 1.385 . S
C3418 H3399 0.951 . S
C3418 C3416 1.388 . S
C3418 C3419 1.366 . S
C3419 C3418 1.366 . S
C3419 C3420 1.414 . S
C3419 C3422 1.499 . S
C3420 H3400 0.950 . S
C3420 C3419 1.414 . S
C3420 C3421 1.374 . S
C3421 H3401 0.950 . S
C3421 C3417 1.385 . S
C3421 C3420 1.374 . S
C3422 C3419 1.499 . S
C3422 C3423 1.373 . S
C3422 C3424 1.389 . S
C3423 H3402 0.950 . S
C3423 C3422 1.373 . S
C3423 C3439 1.377 . S
C3424 C3422 1.389 . S
C3424 C3425 1.524 . S
C3424 C3438 1.377 . S
C3425 C3424 1.524 . S
C3425 C3426 1.397 . S
C3425 C3430 1.363 . S
C3426 H3403 0.950 . S
C3426 C3425 1.397 . S
C3426 C3427 1.334 . S
C3427 H3404 0.950 . S
C3427 C3426 1.334 . S
C3427 C3428 1.287 . S
C3428 C3427 1.287 . S
C3428 C3429 1.524 . S
C3428 H3447 0.913 . S
C3429 H3405 0.950 . S
C3429 C3428 1.524 . S
C3429 C3430 1.415 . S
C3430 H3406 0.950 . S
C3430 C3425 1.363 . S
C3430 C3429 1.415 . S
C3431 H3407 0.951 . S
C3431 C3432 1.366 . S
C3431 C3433 1.388 . S
C3432 C3431 1.366 . S
C3432 C3436 1.385 . S
C3433 H3408 0.951 . S
C3433 C3431 1.388 . S
C3433 C3434 1.366 . S
C3434 C3433 1.366 . S
C3434 C3435 1.414 . S
C3434 C3437 1.499 . S
C3435 H3409 0.950 . S
C3435 C3434 1.414 . S
C3435 C3436 1.374 . S
C3436 H3410 0.950 . S
C3436 C3432 1.385 . S
C3436 C3435 1.374 . S
C3437 C3434 1.499 . S
C3437 C3438 1.373 . S
C3437 C3439 1.389 . S
C3438 H3411 0.950 . S
C3438 C3424 1.377 . S
C3438 C3437 1.373 . S
C3439 C3423 1.377 . S
C3439 C3437 1.389 . S
C3439 C3440 1.524 . S
C3440 C3439 1.524 . S
C3440 C3441 1.397 . S
C3440 C3445 1.363 . S
C3441 H3412 0.950 . S
C3441 C3440 1.397 . S
C3441 C3442 1.334 . S
C3442 H3413 0.950 . S
C3442 C3441 1.334 . S
C3442 C3443 1.287 . S
C3443 C3442 1.287 . S
C3443 C3444 1.524 . S
C3443 H3446 0.999 . S
C3444 H3414 0.950 . S
C3444 C3443 1.524 . S
C3444 C3445 1.415 . S
C3445 H3415 0.950 . S
C3445 C3440 1.363 . S
C3445 C3444 1.415 . S
H3446 C3443 0.999 . S
H3447 C3428 0.913 . S
H3448 C3466 0.951 . S
H3449 C3468 0.951 . S
H3450 C3470 0.950 . S
H3451 C3471 0.950 . S
H3452 C3473 0.950 . S
H3453 C3476 0.950 . S
H3454 C3477 0.950 . S
H3455 C3479 0.950 . S
H3456 C3480 0.950 . S
H3457 C3481 0.951 . S
H3458 C3483 0.951 . S
H3459 C3485 0.950 . S
H3460 C3486 0.950 . S
H3461 C3488 0.950 . S
H3462 C3491 0.950 . S
H3463 C3492 0.950 . S
H3464 C3494 0.950 . S
H3465 C3495 0.950 . S
C3466 H3448 0.951 . S
C3466 C3467 1.366 . S
C3466 C3468 1.388 . S
C3467 C3466 1.366 . S
C3467 C3471 1.385 . S
C3468 H3449 0.951 . S
C3468 C3466 1.388 . S
C3468 C3469 1.366 . S
C3469 C3468 1.366 . S
C3469 C3470 1.414 . S
C3469 C3472 1.499 . S
C3470 H3450 0.950 . S
C3470 C3469 1.414 . S
C3470 C3471 1.374 . S
C3471 H3451 0.950 . S
C3471 C3467 1.385 . S
C3471 C3470 1.374 . S
C3472 C3469 1.499 . S
C3472 C3473 1.373 . S
C3472 C3474 1.389 . S
C3473 H3452 0.950 . S
C3473 C3472 1.373 . S
C3473 C3489 1.377 . S
C3474 C3472 1.389 . S
C3474 C3475 1.524 . S
C3474 C3488 1.377 . S
C3475 C3474 1.524 . S
C3475 C3476 1.397 . S
C3475 C3480 1.363 . S
C3476 H3453 0.950 . S
C3476 C3475 1.397 . S
C3476 C3477 1.334 . S
C3477 H3454 0.950 . S
C3477 C3476 1.334 . S
C3477 C3478 1.287 . S
C3478 C3477 1.287 . S
C3478 C3479 1.524 . S
C3478 H3497 0.913 . S
C3479 H3455 0.950 . S
C3479 C3478 1.524 . S
C3479 C3480 1.415 . S
C3480 H3456 0.950 . S
C3480 C3475 1.363 . S
C3480 C3479 1.415 . S
C3481 H3457 0.951 . S
C3481 C3482 1.366 . S
C3481 C3483 1.388 . S
C3482 C3481 1.366 . S
C3482 C3486 1.385 . S
C3483 H3458 0.951 . S
C3483 C3481 1.388 . S
C3483 C3484 1.366 . S
C3484 C3483 1.366 . S
C3484 C3485 1.414 . S
C3484 C3487 1.499 . S
C3485 H3459 0.950 . S
C3485 C3484 1.414 . S
C3485 C3486 1.374 . S
C3486 H3460 0.950 . S
C3486 C3482 1.385 . S
C3486 C3485 1.374 . S
C3487 C3484 1.499 . S
C3487 C3488 1.373 . S
C3487 C3489 1.389 . S
C3488 H3461 0.950 . S
C3488 C3474 1.377 . S
C3488 C3487 1.373 . S
C3489 C3473 1.377 . S
C3489 C3487 1.389 . S
C3489 C3490 1.524 . S
C3490 C3489 1.524 . S
C3490 C3491 1.397 . S
C3490 C3495 1.363 . S
C3491 H3462 0.950 . S
C3491 C3490 1.397 . S
C3491 C3492 1.334 . S
C3492 H3463 0.950 . S
C3492 C3491 1.334 . S
C3492 C3493 1.287 . S
C3493 C3492 1.287 . S
C3493 C3494 1.524 . S
C3493 H3496 0.999 . S
C3494 H3464 0.950 . S
C3494 C3493 1.524 . S
C3494 C3495 1.415 . S
C3495 H3465 0.950 . S
C3495 C3490 1.363 . S
C3495 C3494 1.415 . S
H3496 C3493 0.999 . S
H3497 C3478 0.913 . S
H3498 C3516 0.951 . S
H3499 C3518 0.951 . S
H3500 C3520 0.950 . S
H3501 C3521 0.950 . S
H3502 C3523 0.950 . S
H3503 C3526 0.982 . S
H3504 C3527 0.950 . S
H3505 C3529 0.950 . S
H3506 C3530 0.950 . S
H3507 C3531 0.951 . S
H3508 C3533 0.951 . S
H3509 C3535 0.950 . S
H3510 C3536 0.950 . S
H3511 C3538 0.950 . S
H3512 C3541 0.983 . S
H3513 C3542 0.950 . S
H3514 C3544 0.950 . S
H3515 C3545 0.950 . S
C3516 H3498 0.951 . S
C3516 C3517 1.366 . S
C3516 C3518 1.388 . S
C3517 C3516 1.366 . S
C3517 C3521 1.385 . S
C3518 H3499 0.951 . S
C3518 C3516 1.388 . S
C3518 C3519 1.366 . S
C3519 C3518 1.366 . S
C3519 C3520 1.414 . S
C3519 C3522 1.499 . S
C3520 H3500 0.950 . S
C3520 C3519 1.414 . S
C3520 C3521 1.374 . S
C3521 H3501 0.950 . S
C3521 C3517 1.385 . S
C3521 C3520 1.374 . S
C3522 C3519 1.499 . S
C3522 C3523 1.373 . S
C3522 C3524 1.389 1_556 S
C3523 H3502 0.950 . S
C3523 C3522 1.373 . S
C3523 C3539 1.377 . S
C3524 C3522 1.389 1_554 S
C3524 C3525 1.524 . S
C3524 C3538 1.377 . S
C3525 C3524 1.524 . S
C3525 C3526 1.397 . S
C3525 C3530 1.363 . S
C3526 H3503 0.982 . S
C3526 C3525 1.397 . S
C3526 C3527 1.334 . S
C3527 H3504 0.950 . S
C3527 C3526 1.334 . S
C3527 C3528 1.287 . S
C3528 C3527 1.287 . S
C3528 C3529 1.524 . S
C3528 H3547 0.913 . S
C3529 H3505 0.950 . S
C3529 C3528 1.524 . S
C3529 C3530 1.415 . S
C3530 H3506 0.950 . S
C3530 C3525 1.363 . S
C3530 C3529 1.415 . S
C3531 H3507 0.951 . S
C3531 C3532 1.366 . S
C3531 C3533 1.388 . S
C3532 C3531 1.366 . S
C3532 C3536 1.385 . S
C3533 H3508 0.951 . S
C3533 C3531 1.388 . S
C3533 C3534 1.366 . S
C3534 C3533 1.366 . S
C3534 C3535 1.414 . S
C3534 C3537 1.499 . S
C3535 H3509 0.950 . S
C3535 C3534 1.414 . S
C3535 C3536 1.374 . S
C3536 H3510 0.950 . S
C3536 C3532 1.385 . S
C3536 C3535 1.374 . S
C3537 C3534 1.499 . S
C3537 C3538 1.373 . S
C3537 C3539 1.389 1_554 S
C3538 H3511 0.950 . S
C3538 C3524 1.377 . S
C3538 C3537 1.373 . S
C3539 C3523 1.377 . S
C3539 C3537 1.389 1_556 S
C3539 C3540 1.524 . S
C3540 C3539 1.524 . S
C3540 C3541 1.397 . S
C3540 C3545 1.363 . S
C3541 H3512 0.983 . S
C3541 C3540 1.397 . S
C3541 C3542 1.334 . S
C3542 H3513 0.950 . S
C3542 C3541 1.334 . S
C3542 C3543 1.287 . S
C3543 C3542 1.287 . S
C3543 C3544 1.524 . S
C3543 H3546 0.999 . S
C3544 H3514 0.950 . S
C3544 C3543 1.524 . S
C3544 C3545 1.415 . S
C3545 H3515 0.950 . S
C3545 C3540 1.363 . S
C3545 C3544 1.415 . S
H3546 C3543 0.999 . S
H3547 C3528 0.913 . S
H3548 C3566 0.951 . S
H3549 C3568 0.951 . S
H3550 C3570 0.950 . S
H3551 C3571 0.950 . S
H3552 C3573 0.950 . S
H3553 C3576 0.950 . S
H3554 C3577 0.950 . S
H3555 C3579 0.950 . S
H3556 C3580 0.950 . S
H3557 C3581 0.951 . S
H3558 C3583 0.951 . S
H3559 C3585 0.950 . S
H3560 C3586 0.950 . S
H3561 C3588 0.950 . S
H3562 C3591 0.950 . S
H3563 C3592 0.950 . S
H3564 C3594 0.950 . S
H3565 C3595 0.950 . S
C3566 H3548 0.951 . S
C3566 C3567 1.366 . S
C3566 C3568 1.388 . S
C3567 C3566 1.366 . S
C3567 C3571 1.385 . S
C3568 H3549 0.951 . S
C3568 C3566 1.388 . S
C3568 C3569 1.366 . S
C3569 C3568 1.366 . S
C3569 C3570 1.414 . S
C3569 C3572 1.499 . S
C3570 H3550 0.950 . S
C3570 C3569 1.414 . S
C3570 C3571 1.374 . S
C3571 H3551 0.950 . S
C3571 C3567 1.385 . S
C3571 C3570 1.374 . S
C3572 C3569 1.499 . S
C3572 C3573 1.373 . S
C3572 C3574 1.389 . S
C3573 H3552 0.950 . S
C3573 C3572 1.373 . S
C3573 C3589 1.377 . S
C3574 C3572 1.389 . S
C3574 C3575 1.524 . S
C3574 C3588 1.377 . S
C3575 C3574 1.524 . S
C3575 C3576 1.397 . S
C3575 C3580 1.363 . S
C3576 H3553 0.950 . S
C3576 C3575 1.397 . S
C3576 C3577 1.334 . S
C3577 H3554 0.950 . S
C3577 C3576 1.334 . S
C3577 C3578 1.287 . S
C3578 C3577 1.287 . S
C3578 C3579 1.524 . S
C3578 H3597 0.913 . S
C3579 H3555 0.950 . S
C3579 C3578 1.524 . S
C3579 C3580 1.415 . S
C3580 H3556 0.950 . S
C3580 C3575 1.363 . S
C3580 C3579 1.415 . S
C3581 H3557 0.951 . S
C3581 C3582 1.366 . S
C3581 C3583 1.388 . S
C3582 C3581 1.366 . S
C3582 C3586 1.385 . S
C3583 H3558 0.951 . S
C3583 C3581 1.388 . S
C3583 C3584 1.366 . S
C3584 C3583 1.366 . S
C3584 C3585 1.414 . S
C3584 C3587 1.499 . S
C3585 H3559 0.950 . S
C3585 C3584 1.414 . S
C3585 C3586 1.374 . S
C3586 H3560 0.950 . S
C3586 C3582 1.385 . S
C3586 C3585 1.374 . S
C3587 C3584 1.499 . S
C3587 C3588 1.373 . S
C3587 C3589 1.389 . S
C3588 H3561 0.950 . S
C3588 C3574 1.377 . S
C3588 C3587 1.373 . S
C3589 C3573 1.377 . S
C3589 C3587 1.389 . S
C3589 C3590 1.524 . S
C3590 C3589 1.524 . S
C3590 C3591 1.397 . S
C3590 C3595 1.363 . S
C3591 H3562 0.950 . S
C3591 C3590 1.397 . S
C3591 C3592 1.334 . S
C3592 H3563 0.950 . S
C3592 C3591 1.334 . S
C3592 C3593 1.287 . S
C3593 C3592 1.287 . S
C3593 C3594 1.524 . S
C3593 H3596 0.999 . S
C3594 H3564 0.950 . S
C3594 C3593 1.524 . S
C3594 C3595 1.415 . S
C3595 H3565 0.950 . S
C3595 C3590 1.363 . S
C3595 C3594 1.415 . S
H3596 C3593 0.999 . S
H3597 C3578 0.913 . S
H3598 C3616 0.951 . S
H3599 C3618 0.951 . S
H3600 C3620 0.950 . S
H3601 C3621 0.950 . S
H3602 C3623 0.950 . S
H3603 C3626 0.950 . S
H3604 C3627 0.950 . S
H3605 C3629 0.950 . S
H3606 C3630 0.950 . S
H3607 C3631 0.951 . S
H3608 C3633 0.951 . S
H3609 C3635 0.950 . S
H3610 C3636 0.950 . S
H3611 C3638 0.950 . S
H3612 C3641 0.950 . S
H3613 C3642 0.950 . S
H3614 C3644 0.950 . S
H3615 C3645 0.950 . S
C3616 H3598 0.951 . S
C3616 C3617 1.366 . S
C3616 C3618 1.388 . S
C3617 C3616 1.366 . S
C3617 C3621 1.385 . S
C3618 H3599 0.951 . S
C3618 C3616 1.388 . S
C3618 C3619 1.366 . S
C3619 C3618 1.366 . S
C3619 C3620 1.414 . S
C3619 C3622 1.499 . S
C3620 H3600 0.950 . S
C3620 C3619 1.414 . S
C3620 C3621 1.374 . S
C3621 H3601 0.950 . S
C3621 C3617 1.385 . S
C3621 C3620 1.374 . S
C3622 C3619 1.499 . S
C3622 C3623 1.373 . S
C3622 C3624 1.389 . S
C3623 H3602 0.950 . S
C3623 C3622 1.373 . S
C3623 C3639 1.377 . S
C3624 C3622 1.389 . S
C3624 C3625 1.524 . S
C3624 C3638 1.377 . S
C3625 C3624 1.524 . S
C3625 C3626 1.397 . S
C3625 C3630 1.363 . S
C3626 H3603 0.950 . S
C3626 C3625 1.397 . S
C3626 C3627 1.334 . S
C3627 H3604 0.950 . S
C3627 C3626 1.334 . S
C3627 C3628 1.287 . S
C3628 C3627 1.287 . S
C3628 C3629 1.524 . S
C3628 H3647 0.913 . S
C3629 H3605 0.950 . S
C3629 C3628 1.524 . S
C3629 C3630 1.415 . S
C3630 H3606 0.950 . S
C3630 C3625 1.363 . S
C3630 C3629 1.415 . S
C3631 H3607 0.951 . S
C3631 C3632 1.366 . S
C3631 C3633 1.388 . S
C3632 C3631 1.366 . S
C3632 C3636 1.385 . S
C3633 H3608 0.951 . S
C3633 C3631 1.388 . S
C3633 C3634 1.366 . S
C3634 C3633 1.366 . S
C3634 C3635 1.414 . S
C3634 C3637 1.499 . S
C3635 H3609 0.950 . S
C3635 C3634 1.414 . S
C3635 C3636 1.374 . S
C3636 H3610 0.950 . S
C3636 C3632 1.385 . S
C3636 C3635 1.374 . S
C3637 C3634 1.499 . S
C3637 C3638 1.373 . S
C3637 C3639 1.389 . S
C3638 H3611 0.950 . S
C3638 C3624 1.377 . S
C3638 C3637 1.373 . S
C3639 C3623 1.377 . S
C3639 C3637 1.389 . S
C3639 C3640 1.524 . S
C3640 C3639 1.524 . S
C3640 C3641 1.397 . S
C3640 C3645 1.363 . S
C3641 H3612 0.950 . S
C3641 C3640 1.397 . S
C3641 C3642 1.334 . S
C3642 H3613 0.950 . S
C3642 C3641 1.334 . S
C3642 C3643 1.287 . S
C3643 C3642 1.287 . S
C3643 C3644 1.524 . S
C3643 H3646 0.999 . S
C3644 H3614 0.950 . S
C3644 C3643 1.524 . S
C3644 C3645 1.415 . S
C3645 H3615 0.950 . S
C3645 C3640 1.363 . S
C3645 C3644 1.415 . S
H3646 C3643 0.999 . S
H3647 C3628 0.913 . S
C467 C390 1.456 . S
C482 C1 1.474 . S
C517 C26 1.473 . S
C532 C112 1.456 . S
C567 C363 1.458 . S
C582 C28 1.473 . S
C617 C42 1.474 . S
C632 C153 1.458 . S
C667 C56 1.473 . S
C682 C419 1.458 . S
C717 C71 1.474 . S
C732 C208 1.457 . S
C767 C96 1.473 . S
C782 C447 1.458 . S
C817 C111 1.474 . S
C832 C181 1.458 . S
C867 C279 1.457 . S
C882 C125 1.474 . S
C917 C12 1.458 . S
C932 C139 1.473 . S
C967 C239 1.456 . S
C982 C140 1.474 . S
C1017 C166 1.474 . S
C1032 C41 1.456 . S
C1067 C306 1.458 . S
C1082 C168 1.474 . S
C1117 C85 1.456 . S
C1132 C182 1.474 . S
C1167 C197 1.473 . S
C1182 C334 1.458 . S
C1217 C69 1.456 . S
C1232 C222 1.474 . S
C1267 C225 1.474 . S
C1282 C155 1.458 . S
C1317 C250 1.474 . S
C1332 C336 1.457 . S
C1367 C126 1.457 . S
C1382 C252 1.473 . S
C1417 C376 1.457 . S
C1432 C266 1.474 . S
C1467 C195 1.458 . S
C1482 C292 1.473 . S
C1517 C433 1.457 . S
C1532 C295 1.474 . S
C1567 C211 1.458 . S
C1582 C320 1.473 . S
C1617 C323 1.474 . S
C1632 C405 1.458 . S
C1667 C55 1.456 . S
C1682 C349 1.473 . S
C1717 C350 1.474 . S
C1732 C236 1.458 . S
C1767 C365 1.473 . S
C1782 C15 1.456 . S
C1817 C379 1.473 . S
C1832 C265 1.456 . S
C1867 C392 1.474 . S
C1882 C82 1.458 . S
C1917 C406 1.474 . S
C1932 C309 1.456 . S
C1967 C420 1.474 . S
C1982 C98 1.458 . S
C2017 C434 1.474 . S
C2032 C281 1.456 . S
C2067 C337 1.677 . S
C2082 C13 1.674 . S
C2117 C14 1.676 . S
C2132 C127 1.676 . S
C2167 C377 1.676 . S
C2182 C40 1.676 . S
C2217 C54 1.676 . S
C2232 C154 1.674 . S
C2267 C404 1.674 . S
C2282 C68 1.677 . S
C2317 C83 1.675 . S
C2332 C194 1.675 . S
C2367 C432 1.674 . S
C2382 C84 1.676 . S
C2417 C99 1.674 . S
C2432 C210 1.674 . S
C2467 C113 1.676 . S
C2482 C237 1.674 . S
C2517 C152 1.675 . S
C2532 C264 1.677 . S
C2567 C180 1.674 . S
C2582 C280 1.677 . S
C2617 C209 1.676 . S
C2632 C308 1.676 . S
C2667 C238 1.677 . S
C2682 C362 1.674 . S
C2717 C391 1.677 . S
C2732 C278 1.677 . S
C2767 C418 1.674 . S
C2782 C307 1.674 . S
C2817 C335 1.674 . S
C2832 C446 1.674 . S
C2867 C0 2.056 . S
C2882 C57 2.057 . S
C2917 C27 2.057 . S
C2932 C70 2.056 . S
C2967 C97 2.057 . S
C2982 C29 2.057 . S
C3017 C43 2.057 . S
C3032 C110 2.056 . S
C3067 C169 2.056 . S
C3082 C124 2.057 . S
C3117 C183 2.056 . S
C3132 C138 2.057 . S
C3167 C141 2.056 . S
C3182 C196 2.057 . S
C3217 C167 2.056 . S
C3232 C223 2.056 . S
C3267 C293 2.057 . S
C3282 C224 2.056 . S
C3317 C294 2.056 . S
C3332 C251 2.057 . S
C3367 C253 2.057 . S
C3382 C321 2.057 . S
C3417 C322 2.056 . S
C3432 C267 2.057 . S
C3467 C393 2.056 . S
C3482 C348 2.057 . S
C3517 C351 2.056 . S
C3532 C407 2.056 . S
C3567 C421 2.056 . S
C3582 C364 2.057 . S
C3617 C378 2.057 . S
C3632 C435 2.056 . S
