# Generated by pormake.
# Topology nfb, (4)-cn, num edge types: 1
# Building blocks:
#     Node 0, Type 0, BuildingBlock: CEKHIL_clean_sbu_0, # of connection points: 4
#     Node 1, Type 0, BuildingBlock: CEKHIL_clean_sbu_0, # of connection points: 4
#     Node 2, Type 0, BuildingBlock: CEKHIL_clean_sbu_0, # of connection points: 4
#     Node 3, Type 0, BuildingBlock: CEKHIL_clean_sbu_0, # of connection points: 4
#     Node 4, Type 0, BuildingBlock: CEKHIL_clean_sbu_0, # of connection points: 4
#     Node 5, Type 0, BuildingBlock: CEKHIL_clean_sbu_0, # of connection points: 4
#     Node 6, Type 0, BuildingBlock: CEKHIL_clean_sbu_0, # of connection points: 4
#     Node 7, Type 0, BuildingBlock: CEKHIL_clean_sbu_0, # of connection points: 4
#     Node 8, Type 0, BuildingBlock: CEKHIL_clean_sbu_0, # of connection points: 4
#     Node 9, Type 0, BuildingBlock: CEKHIL_clean_sbu_0, # of connection points: 4
#     Node 10, Type 0, BuildingBlock: CEKHIL_clean_sbu_0, # of connection points: 4
#     Node 11, Type 0, BuildingBlock: CEKHIL_clean_sbu_0, # of connection points: 4
#     Node 12, Type 0, BuildingBlock: CEKHIL_clean_sbu_0, # of connection points: 4
#     Node 13, Type 0, BuildingBlock: CEKHIL_clean_sbu_0, # of connection points: 4
#     Node 14, Type 0, BuildingBlock: CEKHIL_clean_sbu_0, # of connection points: 4
#     Node 15, Type 0, BuildingBlock: CEKHIL_clean_sbu_0, # of connection points: 4
#     Node 16, Type 0, BuildingBlock: CEKHIL_clean_sbu_0, # of connection points: 4
#     Node 17, Type 0, BuildingBlock: CEKHIL_clean_sbu_0, # of connection points: 4
#     Node 18, Type 0, BuildingBlock: CEKHIL_clean_sbu_0, # of connection points: 4
#     Node 19, Type 0, BuildingBlock: CEKHIL_clean_sbu_0, # of connection points: 4
#     Node 20, Type 0, BuildingBlock: CEKHIL_clean_sbu_0, # of connection points: 4
#     Node 21, Type 0, BuildingBlock: CEKHIL_clean_sbu_0, # of connection points: 4
#     Node 22, Type 0, BuildingBlock: CEKHIL_clean_sbu_0, # of connection points: 4
#     Node 23, Type 0, BuildingBlock: CEKHIL_clean_sbu_0, # of connection points: 4
#     Node 24, Type 0, BuildingBlock: CEKHIL_clean_sbu_0, # of connection points: 4
#     Node 25, Type 0, BuildingBlock: CEKHIL_clean_sbu_0, # of connection points: 4
#     Node 26, Type 0, BuildingBlock: CEKHIL_clean_sbu_0, # of connection points: 4
#     Node 27, Type 0, BuildingBlock: CEKHIL_clean_sbu_0, # of connection points: 4
#     Node 28, Type 0, BuildingBlock: CEKHIL_clean_sbu_0, # of connection points: 4
#     Node 29, Type 0, BuildingBlock: CEKHIL_clean_sbu_0, # of connection points: 4
#     Node 30, Type 0, BuildingBlock: CEKHIL_clean_sbu_0, # of connection points: 4
#     Node 31, Type 0, BuildingBlock: CEKHIL_clean_sbu_0, # of connection points: 4
#     Node 32, Type 0, BuildingBlock: CEKHIL_clean_sbu_0, # of connection points: 4
#     Node 33, Type 0, BuildingBlock: CEKHIL_clean_sbu_0, # of connection points: 4
#     Node 34, Type 0, BuildingBlock: CEKHIL_clean_sbu_0, # of connection points: 4
#     Node 35, Type 0, BuildingBlock: CEKHIL_clean_sbu_0, # of connection points: 4
#     Node 36, Type 0, BuildingBlock: CEKHIL_clean_sbu_0, # of connection points: 4
#     Node 37, Type 0, BuildingBlock: CEKHIL_clean_sbu_0, # of connection points: 4
#     Node 38, Type 0, BuildingBlock: CEKHIL_clean_sbu_0, # of connection points: 4
#     Node 39, Type 0, BuildingBlock: CEKHIL_clean_sbu_0, # of connection points: 4
#     Node 40, Type 0, BuildingBlock: CEKHIL_clean_sbu_0, # of connection points: 4
#     Node 41, Type 0, BuildingBlock: CEKHIL_clean_sbu_0, # of connection points: 4
#     Node 42, Type 0, BuildingBlock: CEKHIL_clean_sbu_0, # of connection points: 4
#     Node 43, Type 0, BuildingBlock: CEKHIL_clean_sbu_0, # of connection points: 4
#     Node 44, Type 0, BuildingBlock: CEKHIL_clean_sbu_0, # of connection points: 4
#     Node 45, Type 0, BuildingBlock: CEKHIL_clean_sbu_0, # of connection points: 4
#     Node 46, Type 0, BuildingBlock: CEKHIL_clean_sbu_0, # of connection points: 4
#     Node 47, Type 0, BuildingBlock: CEKHIL_clean_sbu_0, # of connection points: 4
#     Edge 48, Type (0, 0), BuildingBlock: EZIPEK_clean_linker_0, # of connection points: 2
#     Edge 49, Type (0, 0), BuildingBlock: EZIPEK_clean_linker_0, # of connection points: 2
#     Edge 50, Type (0, 0), BuildingBlock: EZIPEK_clean_linker_0, # of connection points: 2
#     Edge 51, Type (0, 0), BuildingBlock: EZIPEK_clean_linker_0, # of connection points: 2
#     Edge 52, Type (0, 0), BuildingBlock: EZIPEK_clean_linker_0, # of connection points: 2
#     Edge 53, Type (0, 0), BuildingBlock: EZIPEK_clean_linker_0, # of connection points: 2
#     Edge 54, Type (0, 0), BuildingBlock: EZIPEK_clean_linker_0, # of connection points: 2
#     Edge 55, Type (0, 0), BuildingBlock: EZIPEK_clean_linker_0, # of connection points: 2
#     Edge 56, Type (0, 0), BuildingBlock: EZIPEK_clean_linker_0, # of connection points: 2
#     Edge 57, Type (0, 0), BuildingBlock: EZIPEK_clean_linker_0, # of connection points: 2
#     Edge 58, Type (0, 0), BuildingBlock: EZIPEK_clean_linker_0, # of connection points: 2
#     Edge 59, Type (0, 0), BuildingBlock: EZIPEK_clean_linker_0, # of connection points: 2
#     Edge 60, Type (0, 0), BuildingBlock: EZIPEK_clean_linker_0, # of connection points: 2
#     Edge 61, Type (0, 0), BuildingBlock: EZIPEK_clean_linker_0, # of connection points: 2
#     Edge 62, Type (0, 0), BuildingBlock: EZIPEK_clean_linker_0, # of connection points: 2
#     Edge 63, Type (0, 0), BuildingBlock: EZIPEK_clean_linker_0, # of connection points: 2
#     Edge 64, Type (0, 0), BuildingBlock: EZIPEK_clean_linker_0, # of connection points: 2
#     Edge 65, Type (0, 0), BuildingBlock: EZIPEK_clean_linker_0, # of connection points: 2
#     Edge 66, Type (0, 0), BuildingBlock: EZIPEK_clean_linker_0, # of connection points: 2
#     Edge 67, Type (0, 0), BuildingBlock: EZIPEK_clean_linker_0, # of connection points: 2
#     Edge 68, Type (0, 0), BuildingBlock: EZIPEK_clean_linker_0, # of connection points: 2
#     Edge 69, Type (0, 0), BuildingBlock: EZIPEK_clean_linker_0, # of connection points: 2
#     Edge 70, Type (0, 0), BuildingBlock: EZIPEK_clean_linker_0, # of connection points: 2
#     Edge 71, Type (0, 0), BuildingBlock: EZIPEK_clean_linker_0, # of connection points: 2
#     Edge 72, Type (0, 0), BuildingBlock: EZIPEK_clean_linker_0, # of connection points: 2
#     Edge 73, Type (0, 0), BuildingBlock: EZIPEK_clean_linker_0, # of connection points: 2
#     Edge 74, Type (0, 0), BuildingBlock: EZIPEK_clean_linker_0, # of connection points: 2
#     Edge 75, Type (0, 0), BuildingBlock: EZIPEK_clean_linker_0, # of connection points: 2
#     Edge 76, Type (0, 0), BuildingBlock: EZIPEK_clean_linker_0, # of connection points: 2
#     Edge 77, Type (0, 0), BuildingBlock: EZIPEK_clean_linker_0, # of connection points: 2
#     Edge 78, Type (0, 0), BuildingBlock: EZIPEK_clean_linker_0, # of connection points: 2
#     Edge 79, Type (0, 0), BuildingBlock: EZIPEK_clean_linker_0, # of connection points: 2
#     Edge 80, Type (0, 0), BuildingBlock: EZIPEK_clean_linker_0, # of connection points: 2
#     Edge 81, Type (0, 0), BuildingBlock: EZIPEK_clean_linker_0, # of connection points: 2
#     Edge 82, Type (0, 0), BuildingBlock: EZIPEK_clean_linker_0, # of connection points: 2
#     Edge 83, Type (0, 0), BuildingBlock: EZIPEK_clean_linker_0, # of connection points: 2
#     Edge 84, Type (0, 0), BuildingBlock: EZIPEK_clean_linker_0, # of connection points: 2
#     Edge 85, Type (0, 0), BuildingBlock: EZIPEK_clean_linker_0, # of connection points: 2
#     Edge 86, Type (0, 0), BuildingBlock: EZIPEK_clean_linker_0, # of connection points: 2
#     Edge 87, Type (0, 0), BuildingBlock: EZIPEK_clean_linker_0, # of connection points: 2
#     Edge 88, Type (0, 0), BuildingBlock: EZIPEK_clean_linker_0, # of connection points: 2
#     Edge 89, Type (0, 0), BuildingBlock: EZIPEK_clean_linker_0, # of connection points: 2
#     Edge 90, Type (0, 0), BuildingBlock: EZIPEK_clean_linker_0, # of connection points: 2
#     Edge 91, Type (0, 0), BuildingBlock: EZIPEK_clean_linker_0, # of connection points: 2
#     Edge 92, Type (0, 0), BuildingBlock: EZIPEK_clean_linker_0, # of connection points: 2
#     Edge 93, Type (0, 0), BuildingBlock: EZIPEK_clean_linker_0, # of connection points: 2
#     Edge 94, Type (0, 0), BuildingBlock: EZIPEK_clean_linker_0, # of connection points: 2
#     Edge 95, Type (0, 0), BuildingBlock: EZIPEK_clean_linker_0, # of connection points: 2
#     Edge 96, Type (0, 0), BuildingBlock: EZIPEK_clean_linker_0, # of connection points: 2
#     Edge 97, Type (0, 0), BuildingBlock: EZIPEK_clean_linker_0, # of connection points: 2
#     Edge 98, Type (0, 0), BuildingBlock: EZIPEK_clean_linker_0, # of connection points: 2
#     Edge 99, Type (0, 0), BuildingBlock: EZIPEK_clean_linker_0, # of connection points: 2
#     Edge 100, Type (0, 0), BuildingBlock: EZIPEK_clean_linker_0, # of connection points: 2
#     Edge 101, Type (0, 0), BuildingBlock: EZIPEK_clean_linker_0, # of connection points: 2
#     Edge 102, Type (0, 0), BuildingBlock: EZIPEK_clean_linker_0, # of connection points: 2
#     Edge 103, Type (0, 0), BuildingBlock: EZIPEK_clean_linker_0, # of connection points: 2
#     Edge 104, Type (0, 0), BuildingBlock: EZIPEK_clean_linker_0, # of connection points: 2
#     Edge 105, Type (0, 0), BuildingBlock: EZIPEK_clean_linker_0, # of connection points: 2
#     Edge 106, Type (0, 0), BuildingBlock: EZIPEK_clean_linker_0, # of connection points: 2
#     Edge 107, Type (0, 0), BuildingBlock: EZIPEK_clean_linker_0, # of connection points: 2
#     Edge 108, Type (0, 0), BuildingBlock: EZIPEK_clean_linker_0, # of connection points: 2
#     Edge 109, Type (0, 0), BuildingBlock: EZIPEK_clean_linker_0, # of connection points: 2
#     Edge 110, Type (0, 0), BuildingBlock: EZIPEK_clean_linker_0, # of connection points: 2
#     Edge 111, Type (0, 0), BuildingBlock: EZIPEK_clean_linker_0, # of connection points: 2
#     Edge 112, Type (0, 0), BuildingBlock: EZIPEK_clean_linker_0, # of connection points: 2
#     Edge 113, Type (0, 0), BuildingBlock: EZIPEK_clean_linker_0, # of connection points: 2
#     Edge 114, Type (0, 0), BuildingBlock: EZIPEK_clean_linker_0, # of connection points: 2
#     Edge 115, Type (0, 0), BuildingBlock: EZIPEK_clean_linker_0, # of connection points: 2
#     Edge 116, Type (0, 0), BuildingBlock: EZIPEK_clean_linker_0, # of connection points: 2
#     Edge 117, Type (0, 0), BuildingBlock: EZIPEK_clean_linker_0, # of connection points: 2
#     Edge 118, Type (0, 0), BuildingBlock: EZIPEK_clean_linker_0, # of connection points: 2
#     Edge 119, Type (0, 0), BuildingBlock: EZIPEK_clean_linker_0, # of connection points: 2
#     Edge 120, Type (0, 0), BuildingBlock: EZIPEK_clean_linker_0, # of connection points: 2
#     Edge 121, Type (0, 0), BuildingBlock: EZIPEK_clean_linker_0, # of connection points: 2
#     Edge 122, Type (0, 0), BuildingBlock: EZIPEK_clean_linker_0, # of connection points: 2
#     Edge 123, Type (0, 0), BuildingBlock: EZIPEK_clean_linker_0, # of connection points: 2
#     Edge 124, Type (0, 0), BuildingBlock: EZIPEK_clean_linker_0, # of connection points: 2
#     Edge 125, Type (0, 0), BuildingBlock: EZIPEK_clean_linker_0, # of connection points: 2
#     Edge 126, Type (0, 0), BuildingBlock: EZIPEK_clean_linker_0, # of connection points: 2
#     Edge 127, Type (0, 0), BuildingBlock: EZIPEK_clean_linker_0, # of connection points: 2
#     Edge 128, Type (0, 0), BuildingBlock: EZIPEK_clean_linker_0, # of connection points: 2
#     Edge 129, Type (0, 0), BuildingBlock: EZIPEK_clean_linker_0, # of connection points: 2
#     Edge 130, Type (0, 0), BuildingBlock: EZIPEK_clean_linker_0, # of connection points: 2
#     Edge 131, Type (0, 0), BuildingBlock: EZIPEK_clean_linker_0, # of connection points: 2
#     Edge 132, Type (0, 0), BuildingBlock: EZIPEK_clean_linker_0, # of connection points: 2
#     Edge 133, Type (0, 0), BuildingBlock: EZIPEK_clean_linker_0, # of connection points: 2
#     Edge 134, Type (0, 0), BuildingBlock: EZIPEK_clean_linker_0, # of connection points: 2
#     Edge 135, Type (0, 0), BuildingBlock: EZIPEK_clean_linker_0, # of connection points: 2
#     Edge 136, Type (0, 0), BuildingBlock: EZIPEK_clean_linker_0, # of connection points: 2
#     Edge 137, Type (0, 0), BuildingBlock: EZIPEK_clean_linker_0, # of connection points: 2
#     Edge 138, Type (0, 0), BuildingBlock: EZIPEK_clean_linker_0, # of connection points: 2
#     Edge 139, Type (0, 0), BuildingBlock: EZIPEK_clean_linker_0, # of connection points: 2
#     Edge 140, Type (0, 0), BuildingBlock: EZIPEK_clean_linker_0, # of connection points: 2
#     Edge 141, Type (0, 0), BuildingBlock: EZIPEK_clean_linker_0, # of connection points: 2
#     Edge 142, Type (0, 0), BuildingBlock: EZIPEK_clean_linker_0, # of connection points: 2
#     Edge 143, Type (0, 0), BuildingBlock: EZIPEK_clean_linker_0, # of connection points: 2
# Relax obj value: 0.247
# Max RMSD: 0.068
# Mean RMSD: 0.062
data_MOF--net-nfb--node1-CEKHIL_clean_sbu_0--edge1-EZIPEK_clean_linker_0
_symmetry_space_group_name_H-M    P1
_symmetry_Int_Tables_number       1
_symmetry_cell_setting            triclinic
loop_
_symmetry_equiv_pos_as_xyz
'x, y, z'
_cell_length_a     43.531051
_cell_length_b     43.551947
_cell_length_c     43.556669
_cell_angle_alpha  90.048223
_cell_angle_beta   90.31556
_cell_angle_gamma 90.457938
loop_
_atom_site_label
_atom_site_type_symbol
_atom_site_fract_x
_atom_site_fract_y
_atom_site_fract_z
_atom_type_partial_charge
Co0 Co 0.14281 0.14417 0.40273 0.0
O1 O 0.18496 0.15157 0.41636 0.0
O2 O 0.17288 0.11683 0.38211 0.0
C3 C 0.13405 0.19508 0.39636 0.0
O4 O 0.09975 0.1316 0.38378 0.0
Co5 Co 0.09054 0.173 0.44173 0.0
O6 O 0.06306 0.15843 0.40862 0.0
C7 C 0.12173 0.11629 0.46259 0.0
C8 C 0.19453 0.1309 0.3977 0.0
C9 C 0.07112 0.13949 0.38796 0.0
O10 O 0.13626 0.11386 0.43708 0.0
O11 O 0.1049 0.13929 0.46938 0.0
O12 O 0.14618 0.1791 0.37449 0.0
O13 O 0.12894 0.18042 0.42146 0.0
Co14 Co 0.38697 0.61783 0.91368 0.0
O15 O 0.38463 0.57349 0.91674 0.0
O16 O 0.39694 0.59709 0.87419 0.0
C17 C 0.41489 0.62158 0.95735 0.0
O18 O 0.39181 0.66545 0.90552 0.0
Co19 Co 0.35603 0.65291 0.96744 0.0
O20 O 0.37206 0.68986 0.94685 0.0
C21 C 0.31804 0.62146 0.92138 0.0
C22 C 0.39289 0.57108 0.88863 0.0
C23 C 0.3856 0.69047 0.92099 0.0
O24 O 0.34147 0.61859 0.90365 0.0
O25 O 0.31974 0.63137 0.94895 0.0
O26 O 0.42858 0.6169 0.93144 0.0
O27 O 0.38535 0.62205 0.95597 0.0
Co28 Co 0.87385 0.87047 0.40499 0.0
O29 O 0.83179 0.85975 0.41643 0.0
O30 O 0.84283 0.89588 0.38335 0.0
C31 C 0.88861 0.82079 0.39809 0.0
O32 O 0.91634 0.88627 0.38793 0.0
Co33 Co 0.92606 0.84741 0.44823 0.0
O34 O 0.95344 0.87165 0.42147 0.0
C35 C 0.88838 0.89977 0.46677 0.0
C36 C 0.82159 0.88047 0.39795 0.0
C37 C 0.94499 0.88534 0.39709 0.0
O38 O 0.87623 0.90121 0.43983 0.0
O39 O 0.90622 0.87821 0.47535 0.0
O40 O 0.87469 0.8356 0.3763 0.0
O41 O 0.89088 0.83541 0.42375 0.0
Co42 Co 0.62218 0.40195 0.89603 0.0
O43 O 0.62174 0.44636 0.89849 0.0
O44 O 0.61387 0.42157 0.85546 0.0
C45 C 0.5916 0.39654 0.93739 0.0
O46 O 0.6207 0.35396 0.8887 0.0
Co47 Co 0.65264 0.37074 0.95243 0.0
O48 O 0.64072 0.33223 0.93154 0.0
C49 C 0.69136 0.40158 0.90728 0.0
C50 C 0.61565 0.44796 0.86972 0.0
C51 C 0.62807 0.32987 0.90516 0.0
O52 O 0.66817 0.40356 0.88889 0.0
O53 O 0.68934 0.3922 0.93499 0.0
O54 O 0.57946 0.40041 0.91047 0.0
O55 O 0.62115 0.39852 0.93851 0.0
Co56 Co 0.11516 0.89196 0.60939 0.0
O57 O 0.07074 0.89102 0.6056 0.0
O58 O 0.09432 0.90005 0.6492 0.0
C59 C 0.12048 0.92188 0.56749 0.0
O60 O 0.16284 0.89482 0.61846 0.0
Co61 Co 0.14963 0.86262 0.55403 0.0
O62 O 0.18684 0.87579 0.57656 0.0
C63 C 0.11883 0.82308 0.59883 0.0
C64 C 0.0683 0.89737 0.63424 0.0
C65 C 0.18775 0.88807 0.60314 0.0
O66 O 0.11495 0.84611 0.61697 0.0
O67 O 0.12921 0.82543 0.57154 0.0
O68 O 0.11554 0.93449 0.59395 0.0
O69 O 0.11994 0.89235 0.56722 0.0
Co70 Co 0.64133 0.63784 0.10634 0.0
O71 O 0.65269 0.67985 0.09596 0.0
O72 O 0.61309 0.66892 0.12375 0.0
C73 C 0.69049 0.6247 0.11812 0.0
O74 O 0.62464 0.59511 0.12193 0.0
Co75 Co 0.66987 0.58631 0.06597 0.0
O76 O 0.64566 0.55822 0.09205 0.0
C77 C 0.61815 0.62231 0.04219 0.0
C78 C 0.62959 0.69043 0.1108 0.0
C79 C 0.62837 0.5664 0.11401 0.0
O80 O 0.61424 0.63458 0.0687 0.0
O81 O 0.64079 0.60493 0.0358 0.0
O82 O 0.67333 0.63792 0.13846 0.0
O83 O 0.67816 0.62176 0.09135 0.0
Co84 Co 0.8987 0.12468 0.60295 0.0
O85 O 0.94305 0.12858 0.60056 0.0
O86 O 0.91913 0.12036 0.64381 0.0
C87 C 0.8974 0.09135 0.56312 0.0
O88 O 0.85115 0.11881 0.6108 0.0
Co89 Co 0.86317 0.1458 0.54429 0.0
O90 O 0.82675 0.13127 0.5665 0.0
C91 C 0.88581 0.19211 0.58862 0.0
C92 C 0.94527 0.12357 0.6295 0.0
C93 C 0.82615 0.12192 0.5942 0.0
O94 O 0.89507 0.17101 0.60725 0.0
O95 O 0.87448 0.18652 0.56203 0.0
O96 O 0.90202 0.08128 0.59071 0.0
O97 O 0.89548 0.1207 0.56059 0.0
Co98 Co 0.37699 0.37107 0.11507 0.0
O99 O 0.36805 0.32956 0.10043 0.0
O100 O 0.40172 0.33919 0.1365 0.0
C101 C 0.3265 0.38247 0.1198 0.0
O102 O 0.3906 0.41329 0.13517 0.0
Co103 Co 0.35236 0.42499 0.07497 0.0
O104 O 0.36609 0.45117 0.10939 0.0
C105 C 0.4084 0.39141 0.05651 0.0
C106 C 0.3872 0.31853 0.12003 0.0
C107 C 0.3837 0.44221 0.13095 0.0
O108 O 0.40896 0.37653 0.08202 0.0
O109 O 0.38658 0.40947 0.0488 0.0
O110 O 0.34108 0.36892 0.14191 0.0
O111 O 0.34217 0.38715 0.09524 0.0
Co112 Co 0.39901 0.13092 0.14091 0.0
O113 O 0.41402 0.17272 0.14807 0.0
O114 O 0.37787 0.162 0.11484 0.0
C115 C 0.39463 0.12186 0.19202 0.0
O116 O 0.3786 0.08824 0.12873 0.0
Co117 Co 0.43714 0.07713 0.16777 0.0
O118 O 0.40213 0.05095 0.15615 0.0
C119 C 0.45416 0.10521 0.10772 0.0
C120 C 0.39467 0.1831 0.12835 0.0
C121 C 0.3817 0.05952 0.13713 0.0
O122 O 0.43177 0.12427 0.10908 0.0
O123 O 0.46038 0.08619 0.12927 0.0
O124 O 0.37239 0.13443 0.1768 0.0
O125 O 0.41905 0.11625 0.1765 0.0
Co126 Co 0.38892 0.90802 0.63469 0.0
O127 O 0.43315 0.91315 0.63552 0.0
O128 O 0.41061 0.86894 0.62619 0.0
C129 C 0.38224 0.94984 0.60497 0.0
O130 O 0.34182 0.89689 0.63161 0.0
Co131 Co 0.35152 0.96036 0.6643 0.0
O132 O 0.31521 0.93819 0.64809 0.0
C133 C 0.38595 0.91802 0.70339 0.0
C134 C 0.43621 0.8846 0.62892 0.0
C135 C 0.31608 0.9113 0.63669 0.0
O136 O 0.3898 0.90003 0.68032 0.0
O137 O 0.37384 0.94458 0.70135 0.0
O138 O 0.38769 0.92339 0.59254 0.0
O139 O 0.3828 0.95043 0.63458 0.0
Co140 Co 0.61452 0.8778 0.14032 0.0
O141 O 0.60216 0.83552 0.14805 0.0
O142 O 0.63335 0.848 0.11142 0.0
C143 C 0.62252 0.88695 0.19108 0.0
O144 O 0.63238 0.92096 0.12696 0.0
Co145 Co 0.57668 0.93027 0.16978 0.0
O146 O 0.61013 0.95745 0.1562 0.0
C147 C 0.55474 0.89997 0.11246 0.0
C148 C 0.61866 0.82598 0.12564 0.0
C149 C 0.6293 0.94947 0.13584 0.0
O150 O 0.57885 0.88322 0.11137 0.0
O151 O 0.54923 0.91848 0.1346 0.0
O152 O 0.64406 0.87509 0.17441 0.0
O153 O 0.59693 0.89182 0.17708 0.0
Co154 Co 0.62492 0.10109 0.61926 0.0
O155 O 0.58061 0.09636 0.61949 0.0
O156 O 0.60363 0.14014 0.60958 0.0
C157 C 0.632 0.05815 0.59109 0.0
O158 O 0.67197 0.112 0.61677 0.0
Co159 Co 0.66155 0.04983 0.65191 0.0
O160 O 0.69816 0.07151 0.63596 0.0
C161 C 0.62916 0.09512 0.68885 0.0
C162 C 0.57784 0.1249 0.61259 0.0
C163 C 0.69755 0.09789 0.62341 0.0
O164 O 0.62421 0.11098 0.66445 0.0
O165 O 0.64129 0.06848 0.68865 0.0
O166 O 0.62637 0.0841 0.57767 0.0
O167 O 0.63101 0.05865 0.62069 0.0
Co168 Co 0.41591 0.89084 0.89448 0.0
O169 O 0.42159 0.93512 0.89435 0.0
O170 O 0.3769 0.91299 0.90191 0.0
C171 C 0.45733 0.88307 0.92495 0.0
O172 O 0.40354 0.84406 0.89677 0.0
Co173 Co 0.46793 0.85166 0.86621 0.0
O174 O 0.44449 0.8161 0.88179 0.0
C175 C 0.42565 0.88483 0.82553 0.0
C176 C 0.39279 0.93847 0.89979 0.0
C177 C 0.41725 0.81787 0.89204 0.0
O178 O 0.40871 0.89174 0.84864 0.0
O179 O 0.45132 0.87094 0.82794 0.0
O180 O 0.43089 0.88927 0.937 0.0
O181 O 0.45815 0.88357 0.89539 0.0
Co182 Co 0.635 0.8979 0.37524 0.0
O183 O 0.67725 0.91181 0.36882 0.0
O184 O 0.66507 0.87664 0.40238 0.0
C185 C 0.62708 0.89242 0.32392 0.0
O186 O 0.59181 0.87858 0.38704 0.0
Co187 Co 0.58205 0.93547 0.34615 0.0
O188 O 0.5551 0.90131 0.35818 0.0
C189 C 0.6094 0.9543 0.4064 0.0
C190 C 0.68677 0.89252 0.38899 0.0
C191 C 0.56321 0.88164 0.3781 0.0
O192 O 0.62837 0.93175 0.40615 0.0
O193 O 0.59077 0.95984 0.38423 0.0
O194 O 0.63868 0.87028 0.33998 0.0
O195 O 0.62138 0.91727 0.33883 0.0
Co196 Co 0.60421 0.12795 0.87642 0.0
O197 O 0.59833 0.08378 0.87398 0.0
O198 O 0.64331 0.10509 0.88212 0.0
C199 C 0.56437 0.13356 0.90886 0.0
O200 O 0.61626 0.1748 0.88068 0.0
Co201 Co 0.55048 0.1673 0.85213 0.0
O202 O 0.57422 0.20257 0.8681 0.0
C203 C 0.59372 0.1404 0.80791 0.0
C204 C 0.62706 0.07987 0.87933 0.0
C205 C 0.60195 0.20092 0.87729 0.0
O206 O 0.60984 0.12986 0.83041 0.0
O207 O 0.56771 0.15298 0.81216 0.0
O208 O 0.59146 0.12724 0.91943 0.0
O209 O 0.56189 0.13438 0.87937 0.0
Co210 Co 0.3811 0.11306 0.37573 0.0
O211 O 0.33886 0.09942 0.36861 0.0
O212 O 0.35107 0.13451 0.40237 0.0
C213 C 0.39006 0.1177 0.32467 0.0
O214 O 0.42417 0.13237 0.38799 0.0
Co215 Co 0.43393 0.07396 0.34868 0.0
O216 O 0.4609 0.1083 0.3606 0.0
C217 C 0.40564 0.05687 0.40848 0.0
C218 C 0.32931 0.11865 0.38877 0.0
C219 C 0.45275 0.12878 0.37963 0.0
O220 O 0.38723 0.07981 0.40729 0.0
O221 O 0.4243 0.0503 0.38684 0.0
O222 O 0.37802 0.14011 0.33996 0.0
O223 O 0.39517 0.09305 0.3401 0.0
Co224 Co 0.14429 0.40183 0.14031 0.0
O225 O 0.15251 0.41691 0.1818 0.0
O226 O 0.11781 0.38187 0.17177 0.0
C227 C 0.19493 0.39591 0.13043 0.0
O228 O 0.1311 0.38139 0.09815 0.0
Co229 Co 0.17113 0.43971 0.08586 0.0
O230 O 0.15923 0.40398 0.06072 0.0
C231 C 0.11192 0.45778 0.1143 0.0
C232 C 0.1322 0.39828 0.19257 0.0
C233 C 0.13974 0.38397 0.0695 0.0
O234 O 0.11316 0.43512 0.13317 0.0
O235 O 0.13359 0.46419 0.0955 0.0
O236 O 0.17944 0.37437 0.14403 0.0
O237 O 0.17993 0.42065 0.12463 0.0
Co238 Co 0.12438 0.60007 0.89947 0.0
O239 O 0.12621 0.59604 0.9438 0.0
O240 O 0.11835 0.64 0.9209 0.0
C241 C 0.09243 0.55918 0.89447 0.0
O242 O 0.12055 0.60975 0.85214 0.0
Co243 Co 0.15023 0.54435 0.86315 0.0
O244 O 0.13675 0.56748 0.82676 0.0
C245 C 0.19292 0.58769 0.89269 0.0
C246 C 0.12095 0.62486 0.94668 0.0
C247 C 0.1257 0.59449 0.82676 0.0
O248 O 0.17063 0.60614 0.8985 0.0
O249 O 0.18915 0.56086 0.8813 0.0
O250 O 0.08124 0.58609 0.90005 0.0
O251 O 0.12196 0.55782 0.89419 0.0
Co252 Co 0.9112 0.62429 0.39215 0.0
O253 O 0.91312 0.62491 0.43658 0.0
O254 O 0.8701 0.61791 0.41135 0.0
C255 C 0.95148 0.59183 0.38897 0.0
O256 O 0.90389 0.62206 0.34411 0.0
Co257 Co 0.9688 0.65072 0.36006 0.0
O258 O 0.94748 0.63945 0.32176 0.0
C259 C 0.92359 0.69317 0.38562 0.0
C260 C 0.88412 0.6198 0.43791 0.0
C261 C 0.92039 0.62838 0.31977 0.0
O262 O 0.90581 0.67037 0.3922 0.0
O263 O 0.95047 0.69 0.37444 0.0
O264 O 0.92385 0.58114 0.39224 0.0
O265 O 0.95397 0.62135 0.38976 0.0
Co266 Co 0.88378 0.41873 0.87741 0.0
O267 O 0.8834 0.42243 0.92186 0.0
O268 O 0.88954 0.37852 0.89851 0.0
C269 C 0.91665 0.45921 0.87289 0.0
O270 O 0.88579 0.40877 0.82985 0.0
Co271 Co 0.85874 0.4741 0.84107 0.0
O272 O 0.87191 0.45166 0.80417 0.0
C273 C 0.81567 0.43287 0.87258 0.0
C274 C 0.88813 0.39351 0.92447 0.0
C275 C 0.88112 0.42398 0.80428 0.0
O276 O 0.83751 0.41366 0.8775 0.0
O277 O 0.81988 0.45949 0.86091 0.0
O278 O 0.92709 0.43176 0.87726 0.0
O279 O 0.88713 0.46135 0.87275 0.0
Co280 Co 0.12068 0.37819 0.38018 0.0
O281 O 0.10702 0.36988 0.33824 0.0
O282 O 0.14146 0.40486 0.34914 0.0
C283 C 0.12685 0.32747 0.38997 0.0
O284 O 0.13949 0.39149 0.42319 0.0
Co285 Co 0.08197 0.35044 0.43322 0.0
O286 O 0.1164 0.36273 0.45984 0.0
C287 C 0.06325 0.40915 0.40372 0.0
C288 C 0.12573 0.39031 0.32794 0.0
C289 C 0.13625 0.38264 0.45176 0.0
O290 O 0.0865 0.40862 0.38563 0.0
O291 O 0.05718 0.38752 0.42275 0.0
O292 O 0.14882 0.34347 0.37776 0.0
O293 O 0.10168 0.34202 0.39478 0.0
Co294 Co 0.88809 0.61061 0.11798 0.0
O295 O 0.88544 0.6054 0.07376 0.0
O296 O 0.89351 0.65007 0.09551 0.0
C297 C 0.92025 0.57055 0.12314 0.0
O298 O 0.89277 0.6218 0.16494 0.0
Co299 Co 0.86462 0.55545 0.15753 0.0
O300 O 0.88181 0.57881 0.19231 0.0
C301 C 0.82007 0.59805 0.12958 0.0
C302 C 0.89063 0.63424 0.07014 0.0
C303 C 0.89033 0.60677 0.19087 0.0
O304 O 0.84191 0.61573 0.11996 0.0
O305 O 0.82461 0.57241 0.1431 0.0
O306 O 0.93121 0.59752 0.1167 0.0
O307 O 0.89077 0.56856 0.12444 0.0
Co308 Co 0.89471 0.3734 0.62296 0.0
O309 O 0.90383 0.36542 0.66623 0.0
O310 O 0.87378 0.40245 0.65089 0.0
C311 C 0.88612 0.32291 0.61196 0.0
O312 O 0.88026 0.38726 0.57867 0.0
Co313 Co 0.93702 0.3438 0.57346 0.0
O314 O 0.91168 0.36596 0.54332 0.0
C315 C 0.95909 0.39606 0.61085 0.0
C316 C 0.88665 0.38814 0.67389 0.0
C317 C 0.88907 0.38286 0.5503 0.0
O318 O 0.93184 0.40139 0.62067 0.0
O319 O 0.96595 0.37262 0.59463 0.0
O320 O 0.86421 0.33964 0.62306 0.0
O321 O 0.91222 0.33664 0.60933 0.0
Co322 Co 0.10173 0.63017 0.62722 0.0
O323 O 0.09668 0.63194 0.58296 0.0
O324 O 0.14087 0.62268 0.60526 0.0
C325 C 0.05987 0.59978 0.63289 0.0
O326 O 0.11325 0.62594 0.67401 0.0
Co327 Co 0.04912 0.65703 0.66667 0.0
O328 O 0.07206 0.64037 0.70196 0.0
C329 C 0.09084 0.69841 0.63353 0.0
C330 C 0.12527 0.6256 0.57973 0.0
C331 C 0.09918 0.62988 0.70015 0.0
O332 O 0.1092 0.67604 0.62802 0.0
O333 O 0.06444 0.69505 0.64585 0.0
O334 O 0.08636 0.58776 0.62697 0.0
O335 O 0.05936 0.62934 0.63366 0.0
Co336 Co 0.87015 0.88934 0.61925 0.0
O337 O 0.82768 0.88299 0.60709 0.0
O338 O 0.84135 0.89174 0.65467 0.0
C339 C 0.87902 0.92241 0.58009 0.0
O340 O 0.9146 0.89693 0.63758 0.0
Co341 Co 0.91897 0.86994 0.57035 0.0
O342 O 0.94819 0.89048 0.59845 0.0
C343 C 0.88765 0.82314 0.60847 0.0
C344 C 0.81909 0.88649 0.63504 0.0
C345 C 0.94242 0.89749 0.6262 0.0
O346 O 0.87478 0.84379 0.62498 0.0
O347 O 0.90355 0.82897 0.58451 0.0
O348 O 0.86763 0.9325 0.60559 0.0
O349 O 0.88274 0.89322 0.57877 0.0
Co350 Co 0.63368 0.3945 0.11259 0.0
O351 O 0.63705 0.4386 0.10785 0.0
O352 O 0.60495 0.41714 0.13991 0.0
C353 C 0.68488 0.38864 0.11557 0.0
O354 O 0.62685 0.34741 0.12153 0.0
Co355 Co 0.66455 0.35597 0.0606 0.0
O356 O 0.65883 0.32186 0.08962 0.0
C357 C 0.6041 0.38512 0.05033 0.0
C358 C 0.61637 0.44243 0.1283 0.0
C359 C 0.6398 0.32221 0.11171 0.0
O360 O 0.60218 0.39322 0.0786 0.0
O361 O 0.62766 0.37225 0.03866 0.0
O362 O 0.6694 0.39492 0.14009 0.0
O363 O 0.66948 0.38826 0.09029 0.0
Co364 Co 0.1428 0.12512 0.61317 0.0
O365 O 0.18457 0.12789 0.59861 0.0
O366 O 0.17351 0.12127 0.64709 0.0
C367 C 0.12792 0.09252 0.57551 0.0
O368 O 0.09896 0.12156 0.63329 0.0
Co369 Co 0.09479 0.15082 0.5662 0.0
O370 O 0.06493 0.13322 0.59536 0.0
C371 C 0.13349 0.19312 0.60228 0.0
C372 C 0.1947 0.12487 0.62618 0.0
C373 C 0.0709 0.12434 0.62259 0.0
O374 O 0.14302 0.17072 0.61874 0.0
O375 O 0.11635 0.18981 0.57852 0.0
O376 O 0.14051 0.08178 0.6003 0.0
O377 O 0.12731 0.12199 0.57369 0.0
Co378 Co 0.36754 0.61231 0.13667 0.0
O379 O 0.36402 0.568 0.13489 0.0
O380 O 0.40129 0.59121 0.15958 0.0
C381 C 0.31746 0.61783 0.14815 0.0
O382 O 0.37456 0.66015 0.1408 0.0
Co383 Co 0.32767 0.64462 0.0867 0.0
O384 O 0.33932 0.6822 0.10922 0.0
C385 C 0.38745 0.61795 0.07041 0.0
C386 C 0.38839 0.56528 0.15116 0.0
C387 C 0.36073 0.68421 0.12919 0.0
O388 O 0.39314 0.61181 0.09858 0.0
O389 O 0.36199 0.62886 0.0607 0.0
O390 O 0.33745 0.61351 0.16983 0.0
O391 O 0.32801 0.61634 0.12062 0.0
Co392 Co 0.89856 0.14284 0.39023 0.0
O393 O 0.94261 0.14945 0.39217 0.0
O394 O 0.9216 0.11352 0.3638 0.0
C395 C 0.8889 0.19349 0.38359 0.0
O396 O 0.85144 0.13278 0.38448 0.0
Co397 Co 0.86387 0.17303 0.44383 0.0
O398 O 0.82673 0.15694 0.42321 0.0
C399 C 0.89644 0.11543 0.45423 0.0
C400 C 0.94673 0.12724 0.37338 0.0
C401 C 0.82639 0.14088 0.39884 0.0
O402 O 0.90169 0.11314 0.42545 0.0
O403 O 0.88398 0.1388 0.46661 0.0
O404 O 0.89428 0.17571 0.36041 0.0
O405 O 0.89175 0.18064 0.41019 0.0
Co406 Co 0.39452 0.37441 0.90877 0.0
O407 O 0.38787 0.3327 0.92272 0.0
O408 O 0.39386 0.34408 0.8743 0.0
C409 C 0.43049 0.38443 0.94537 0.0
O410 O 0.40119 0.418 0.88924 0.0
Co411 Co 0.37756 0.42342 0.959 0.0
O412 O 0.39393 0.45227 0.92794 0.0
C413 C 0.3291 0.39208 0.92314 0.0
C414 C 0.38945 0.32278 0.89501 0.0
C415 C 0.40034 0.44603 0.9001 0.0
O416 O 0.34909 0.38055 0.90498 0.0
O417 O 0.33601 0.4063 0.94803 0.0
O418 O 0.43858 0.37141 0.91992 0.0
O419 O 0.40147 0.38832 0.94831 0.0
Co420 Co 0.11606 0.87067 0.39081 0.0
O421 O 0.07196 0.8684 0.39597 0.0
O422 O 0.09399 0.90263 0.36656 0.0
C423 C 0.11895 0.81944 0.38295 0.0
O424 O 0.16325 0.87694 0.38187 0.0
Co425 Co 0.15354 0.83448 0.43944 0.0
O426 O 0.18934 0.84572 0.41433 0.0
C427 C 0.1266 0.89434 0.4553 0.0
C428 C 0.06852 0.89099 0.3775 0.0
C429 C 0.18875 0.86494 0.39237 0.0
O430 O 0.11902 0.89897 0.4272 0.0
O431 O 0.13836 0.86936 0.46514 0.0
O432 O 0.11386 0.83788 0.36019 0.0
O433 O 0.12074 0.83227 0.40958 0.0
Co434 Co 0.62568 0.64347 0.88791 0.0
O435 O 0.63411 0.68501 0.90196 0.0
O436 O 0.62295 0.67446 0.85418 0.0
C437 C 0.5936 0.63327 0.92752 0.0
O438 O 0.61582 0.60042 0.86784 0.0
Co439 Co 0.64563 0.59203 0.93465 0.0
O440 O 0.62489 0.56468 0.90473 0.0
C441 C 0.69165 0.62366 0.89629 0.0
C442 C 0.62955 0.69542 0.87473 0.0
C443 C 0.61613 0.57204 0.87776 0.0
O444 O 0.67071 0.63696 0.88028 0.0
O445 O 0.68641 0.60761 0.92032 0.0
O446 O 0.58308 0.64674 0.90315 0.0
O447 O 0.62268 0.62873 0.92768 0.0
Co448 Co 0.60902 0.88125 0.88272 0.0
O449 O 0.59573 0.83916 0.87638 0.0
O450 O 0.64415 0.85206 0.87867 0.0
C451 C 0.57563 0.88906 0.9219 0.0
O452 O 0.62733 0.92557 0.88835 0.0
Co453 Co 0.5546 0.92686 0.86973 0.0
O454 O 0.58698 0.95766 0.88027 0.0
C455 C 0.58589 0.89663 0.81968 0.0
C456 C 0.62368 0.83008 0.87572 0.0
C457 C 0.61536 0.95299 0.88612 0.0
O458 O 0.6082 0.88922 0.83748 0.0
O459 O 0.55945 0.90394 0.82992 0.0
O460 O 0.60212 0.87682 0.92754 0.0
O461 O 0.57004 0.89334 0.89333 0.0
Co462 Co 0.62455 0.1255 0.37374 0.0
O463 O 0.5803 0.12155 0.37024 0.0
O464 O 0.60241 0.15194 0.40376 0.0
C465 C 0.63047 0.13079 0.32264 0.0
O466 O 0.672 0.13312 0.38065 0.0
Co467 Co 0.66114 0.07365 0.34023 0.0
O468 O 0.69684 0.10031 0.34885 0.0
C469 C 0.63212 0.06188 0.4005 0.0
C470 C 0.57686 0.1413 0.39175 0.0
C471 C 0.69706 0.12221 0.36822 0.0
O472 O 0.62523 0.09031 0.40365 0.0
O473 O 0.64421 0.05068 0.37625 0.0
O474 O 0.62443 0.15451 0.33947 0.0
O475 O 0.63039 0.10488 0.33685 0.0
Co476 Co 0.40436 0.13701 0.88908 0.0
O477 O 0.41722 0.17933 0.88372 0.0
O478 O 0.36979 0.16651 0.89407 0.0
C479 C 0.44453 0.12608 0.92039 0.0
O480 O 0.38612 0.09257 0.896 0.0
Co481 Co 0.45182 0.08976 0.86374 0.0
O482 O 0.42417 0.05955 0.88321 0.0
C483 C 0.4109 0.12259 0.82126 0.0
C484 C 0.38973 0.18845 0.88868 0.0
C485 C 0.39743 0.06487 0.89358 0.0
O486 O 0.39586 0.13396 0.84377 0.0
O487 O 0.43541 0.10687 0.82436 0.0
O488 O 0.41974 0.13781 0.93164 0.0
O489 O 0.44479 0.12378 0.89094 0.0
Co490 Co 0.39033 0.88821 0.3782 0.0
O491 O 0.43453 0.89194 0.37363 0.0
O492 O 0.41361 0.86069 0.4067 0.0
C493 C 0.38254 0.88443 0.32735 0.0
O494 O 0.34298 0.88084 0.38594 0.0
Co495 Co 0.35262 0.94068 0.3469 0.0
O496 O 0.31867 0.91092 0.35111 0.0
C497 C 0.3818 0.95059 0.40794 0.0
C498 C 0.43876 0.87152 0.39432 0.0
C499 C 0.31812 0.89026 0.37175 0.0
O500 O 0.39093 0.92263 0.40918 0.0
O501 O 0.368 0.96216 0.38466 0.0
O502 O 0.38866 0.86007 0.34322 0.0
O503 O 0.38361 0.91002 0.34212 0.0
Co504 Co 0.62477 0.12129 0.13946 0.0
O505 O 0.62095 0.07711 0.14316 0.0
O506 O 0.65104 0.09893 0.10949 0.0
C507 C 0.63051 0.12795 0.19048 0.0
O508 O 0.63219 0.16862 0.13236 0.0
Co509 Co 0.57276 0.15773 0.17302 0.0
O510 O 0.59845 0.19365 0.16299 0.0
C511 C 0.56092 0.12845 0.11269 0.0
C512 C 0.64053 0.0735 0.12162 0.0
C513 C 0.62064 0.19377 0.14405 0.0
O514 O 0.58937 0.12163 0.10957 0.0
O515 O 0.54975 0.14049 0.13697 0.0
O516 O 0.65412 0.12169 0.17367 0.0
O517 O 0.60446 0.12749 0.17635 0.0
Co518 Co 0.38068 0.11137 0.62756 0.0
O519 O 0.33887 0.09757 0.63411 0.0
O520 O 0.35031 0.14516 0.62276 0.0
C521 C 0.39164 0.07117 0.59653 0.0
O522 O 0.42444 0.13054 0.61925 0.0
Co523 Co 0.42949 0.06558 0.6529 0.0
O524 O 0.45867 0.09365 0.63249 0.0
C525 C 0.39657 0.10598 0.69528 0.0
C526 C 0.32902 0.12478 0.62899 0.0
C527 C 0.45246 0.11997 0.62146 0.0
O528 O 0.38468 0.12055 0.67262 0.0
O529 O 0.41271 0.08175 0.69241 0.0
O530 O 0.37911 0.09564 0.58531 0.0
O531 O 0.39475 0.07118 0.62596 0.0
Co532 Co 0.38131 0.88732 0.1445 0.0
O533 O 0.38686 0.93153 0.14684 0.0
O534 O 0.35568 0.91 0.11377 0.0
C535 C 0.37564 0.88347 0.19571 0.0
O536 O 0.37218 0.83982 0.13892 0.0
Co537 Co 0.43122 0.84967 0.18019 0.0
O538 O 0.40289 0.81495 0.17299 0.0
C539 C 0.44487 0.87682 0.11924 0.0
C540 C 0.36714 0.93538 0.1253 0.0
C541 C 0.3817 0.81479 0.15275 0.0
O542 O 0.41675 0.88461 0.11518 0.0
O543 O 0.45518 0.86499 0.14413 0.0
O544 O 0.35213 0.88943 0.17843 0.0
O545 O 0.40154 0.88195 0.18173 0.0
Co546 Co 0.63309 0.90448 0.62913 0.0
O547 O 0.67447 0.91895 0.63736 0.0
O548 O 0.66345 0.8703 0.6325 0.0
C549 C 0.62519 0.93899 0.59079 0.0
O550 O 0.58966 0.88503 0.6214 0.0
Co551 Co 0.58528 0.95715 0.64192 0.0
O552 O 0.55615 0.92427 0.62886 0.0
C553 C 0.61338 0.92347 0.69244 0.0
C554 C 0.68463 0.89138 0.6367 0.0
C555 C 0.56188 0.89621 0.62272 0.0
O556 O 0.62372 0.90295 0.67411 0.0
O557 O 0.60439 0.94987 0.68331 0.0
O558 O 0.63852 0.91319 0.58477 0.0
O559 O 0.62001 0.94343 0.61936 0.0
Co560 Co 0.88635 0.61572 0.87196 0.0
O561 O 0.8821 0.60162 0.83002 0.0
O562 O 0.88948 0.64995 0.84162 0.0
C563 C 0.91984 0.57797 0.8844 0.0
O564 O 0.8916 0.63552 0.91593 0.0
Co565 Co 0.86311 0.56795 0.92022 0.0
O566 O 0.87954 0.59795 0.95008 0.0
C567 C 0.81878 0.60539 0.88572 0.0
C568 C 0.88534 0.62923 0.8202 0.0
C569 C 0.88876 0.62508 0.944 0.0
O570 O 0.84069 0.62115 0.87385 0.0
O571 O 0.82295 0.58165 0.90248 0.0
O572 O 0.92971 0.60334 0.87228 0.0
O573 O 0.8904 0.57573 0.8864 0.0
Co574 Co 0.86771 0.39658 0.10361 0.0
O575 O 0.86364 0.40315 0.05974 0.0
O576 O 0.8975 0.37191 0.07933 0.0
C577 C 0.81675 0.39024 0.10957 0.0
O578 O 0.87508 0.38619 0.15039 0.0
Co579 Co 0.83393 0.44572 0.14382 0.0
O580 O 0.84422 0.41777 0.1778 0.0
C581 C 0.89493 0.45945 0.11696 0.0
C582 C 0.88503 0.38377 0.0547 0.0
C583 C 0.86343 0.39591 0.17636 0.0
O584 O 0.8977 0.43191 0.10682 0.0
O585 O 0.87077 0.46962 0.12999 0.0
O586 O 0.83358 0.36714 0.1018 0.0
O587 O 0.83083 0.41629 0.11117 0.0
Co588 Co 0.13888 0.37103 0.62411 0.0
O589 O 0.13373 0.36833 0.57986 0.0
O590 O 0.16136 0.40432 0.60165 0.0
C591 C 0.1495 0.32041 0.62757 0.0
O592 O 0.14775 0.37792 0.67135 0.0
Co593 Co 0.09309 0.33089 0.66209 0.0
O594 O 0.11805 0.34393 0.6976 0.0
C595 C 0.07302 0.38961 0.63452 0.0
C596 C 0.15115 0.39189 0.5762 0.0
C597 C 0.13851 0.36493 0.69687 0.0
O598 O 0.10065 0.39668 0.62687 0.0
O599 O 0.06536 0.36375 0.64629 0.0
O600 O 0.1713 0.34011 0.62228 0.0
O601 O 0.12234 0.33166 0.62923 0.0
Co602 Co 0.12143 0.60754 0.14466 0.0
O603 O 0.12344 0.59348 0.18672 0.0
O604 O 0.11666 0.64174 0.17464 0.0
C605 C 0.08965 0.56914 0.12989 0.0
O606 O 0.11842 0.62739 0.10059 0.0
Co607 Co 0.1477 0.56068 0.09694 0.0
O608 O 0.13031 0.58958 0.06679 0.0
C609 C 0.18952 0.59743 0.13584 0.0
C610 C 0.11993 0.62115 0.19624 0.0
C611 C 0.1214 0.61675 0.07261 0.0
O612 O 0.16708 0.61373 0.14538 0.0
O613 O 0.18627 0.57368 0.11876 0.0
O614 O 0.07821 0.59381 0.14184 0.0
O615 O 0.11912 0.56791 0.12963 0.0
Co616 Co 0.90014 0.62915 0.63397 0.0
O617 O 0.91455 0.6358 0.67561 0.0
O618 O 0.86638 0.62618 0.66471 0.0
C619 C 0.93878 0.59627 0.62282 0.0
O620 O 0.88005 0.62116 0.59061 0.0
Co621 Co 0.94696 0.65189 0.58459 0.0
O622 O 0.91676 0.63364 0.55577 0.0
C623 C 0.90894 0.69629 0.61752 0.0
C624 C 0.88718 0.63184 0.68578 0.0
C625 C 0.89006 0.62354 0.5624 0.0
O626 O 0.89307 0.67439 0.62933 0.0
O627 O 0.93297 0.69228 0.60129 0.0
O628 O 0.9139 0.58629 0.63577 0.0
O629 O 0.9401 0.62562 0.61944 0.0
Co630 Co 0.14708 0.38888 0.89857 0.0
O631 O 0.14803 0.39417 0.94277 0.0
O632 O 0.11883 0.35983 0.92019 0.0
C633 C 0.199 0.38912 0.89643 0.0
O634 O 0.14326 0.37952 0.85103 0.0
Co635 Co 0.17724 0.44272 0.86154 0.0
O636 O 0.17475 0.41358 0.82704 0.0
C637 C 0.11506 0.44924 0.88835 0.0
C638 C 0.12849 0.37225 0.94586 0.0
C639 C 0.15691 0.3903 0.82644 0.0
O640 O 0.11395 0.42071 0.8956 0.0
O641 O 0.13874 0.4625 0.87691 0.0
O642 O 0.18395 0.36385 0.90157 0.0
O643 O 0.18214 0.41315 0.89387 0.0
Co644 Co 0.1048 0.62355 0.38271 0.0
O645 O 0.08932 0.6262 0.34111 0.0
O646 O 0.1382 0.62144 0.35162 0.0
C647 C 0.06884 0.58867 0.3971 0.0
O648 O 0.12604 0.62018 0.42614 0.0
Co649 Co 0.05769 0.64626 0.43152 0.0
O650 O 0.08891 0.6313 0.4608 0.0
C651 C 0.09188 0.691 0.39453 0.0
C652 C 0.11675 0.6241 0.33065 0.0
C653 C 0.11613 0.62301 0.45434 0.0
O654 O 0.1086 0.66944 0.38376 0.0
O655 O 0.06857 0.6864 0.41174 0.0
O656 O 0.09393 0.57966 0.3841 0.0
O657 O 0.06563 0.61801 0.39846 0.0
Co658 Co 0.89247 0.37701 0.37701 0.0
O659 O 0.8957 0.37254 0.42129 0.0
O660 O 0.86568 0.40628 0.39987 0.0
C661 C 0.88731 0.32566 0.37014 0.0
O662 O 0.88494 0.38501 0.32977 0.0
Co663 Co 0.94478 0.34588 0.34039 0.0
O664 O 0.92153 0.35887 0.30394 0.0
C665 C 0.95645 0.4042 0.37275 0.0
C666 C 0.87606 0.39393 0.4252 0.0
C667 C 0.89767 0.3755 0.3043 0.0
O668 O 0.92766 0.40734 0.378 0.0
O669 O 0.96795 0.38026 0.36046 0.0
O670 O 0.86351 0.34259 0.37521 0.0
O671 O 0.91335 0.33995 0.3709 0.0
C672 C 0.14904 0.27974 0.41295 0.0
C673 C 0.12832 0.2936 0.39208 0.0
C674 C 0.10942 0.24279 0.37602 0.0
C675 C 0.13194 0.22895 0.39489 0.0
N676 N 0.17662 0.23395 0.42771 0.0
N677 N 0.09257 0.28858 0.34967 0.0
C678 C 0.15269 0.24733 0.41245 0.0
C679 C 0.10945 0.27521 0.37252 0.0
N680 N 0.16453 0.29747 0.43391 0.0
N681 N 0.08739 0.22499 0.36216 0.0
H682 H 0.09205 0.31219 0.34603 0.0
H683 H 0.08119 0.27614 0.33257 0.0
H684 H 0.08689 0.20118 0.36422 0.0
H685 H 0.06824 0.23388 0.35093 0.0
H686 H 0.17731 0.28851 0.45203 0.0
H687 H 0.16247 0.32128 0.43473 0.0
H688 H 0.19444 0.24636 0.438 0.0
H689 H 0.18018 0.21033 0.42794 0.0
C690 C 0.26939 0.6312 0.89186 0.0
C691 C 0.28736 0.61154 0.91052 0.0
C692 C 0.24254 0.57884 0.92016 0.0
C693 C 0.2249 0.5972 0.89985 0.0
N694 N 0.22275 0.63747 0.86185 0.0
N695 N 0.29327 0.56335 0.93687 0.0
C696 C 0.23862 0.62253 0.88442 0.0
C697 C 0.27459 0.58429 0.92291 0.0
N698 N 0.28144 0.65851 0.882 0.0
N699 N 0.22841 0.55706 0.93789 0.0
H700 H 0.31697 0.5666 0.93904 0.0
H701 H 0.28584 0.54158 0.94354 0.0
H702 H 0.20476 0.55303 0.93733 0.0
H703 H 0.2396 0.54511 0.95531 0.0
H704 H 0.26842 0.67548 0.87141 0.0
H705 H 0.30421 0.66503 0.88614 0.0
H706 H 0.23263 0.65393 0.84758 0.0
H707 H 0.20027 0.63168 0.85562 0.0
C708 C 0.92723 0.77822 0.40231 0.0
C709 C 0.897 0.78783 0.39526 0.0
C710 C 0.88377 0.73502 0.38041 0.0
C711 C 0.91295 0.72503 0.39109 0.0
N712 N 0.95872 0.73674 0.42073 0.0
N713 N 0.84418 0.77324 0.3856 0.0
C714 C 0.9335 0.74651 0.40479 0.0
C715 C 0.87451 0.76561 0.38665 0.0
N716 N 0.95048 0.79918 0.4046 0.0
N717 N 0.86548 0.71615 0.363 0.0
H718 H 0.83637 0.79486 0.3919 0.0
H719 H 0.82668 0.75712 0.38203 0.0
H720 H 0.87181 0.6941 0.35647 0.0
H721 H 0.84541 0.72367 0.35233 0.0
H722 H 0.97347 0.79312 0.40727 0.0
H723 H 0.94705 0.82208 0.39925 0.0
H724 H 0.97297 0.75168 0.43309 0.0
H725 H 0.96326 0.71357 0.42456 0.0
C726 C 0.76812 0.40032 0.86556 0.0
C727 C 0.78388 0.42433 0.8813 0.0
C728 C 0.73702 0.43651 0.90963 0.0
C729 C 0.72225 0.41058 0.89631 0.0
N730 N 0.72454 0.36522 0.86461 0.0
N731 N 0.78516 0.46207 0.92189 0.0
C732 C 0.73796 0.39179 0.87498 0.0
C733 C 0.7688 0.44162 0.90428 0.0
N734 N 0.78151 0.38643 0.84092 0.0
N735 N 0.7204 0.45675 0.92673 0.0
H736 H 0.80863 0.46609 0.91905 0.0
H737 H 0.77619 0.47293 0.94113 0.0
H738 H 0.69696 0.45387 0.93086 0.0
H739 H 0.72907 0.47779 0.93436 0.0
H740 H 0.76995 0.37114 0.82645 0.0
H741 H 0.80353 0.39208 0.83335 0.0
H742 H 0.73615 0.34879 0.85186 0.0
H743 H 0.70234 0.35843 0.87065 0.0
C744 C 0.12159 0.74681 0.6414 0.0
C745 C 0.09963 0.72978 0.62409 0.0
C746 C 0.08715 0.77546 0.59399 0.0
C747 C 0.11086 0.79186 0.60947 0.0
N748 N 0.15379 0.79244 0.64477 0.0
N749 N 0.06551 0.72583 0.58046 0.0
C750 C 0.12892 0.7774 0.63244 0.0
C751 C 0.08354 0.74354 0.59937 0.0
N752 N 0.13478 0.73402 0.66685 0.0
N753 N 0.06745 0.79069 0.57487 0.0
H754 H 0.06256 0.70223 0.58355 0.0
H755 H 0.0558 0.73388 0.56013 0.0
H756 H 0.06909 0.81425 0.57078 0.0
H757 H 0.0478 0.78065 0.56535 0.0
H758 H 0.14817 0.74638 0.68251 0.0
H759 H 0.13064 0.71137 0.67348 0.0
H760 H 0.16984 0.78195 0.65904 0.0
H761 H 0.15973 0.81493 0.63898 0.0
C762 C 0.74454 0.64243 0.13086 0.0
C763 C 0.72362 0.61836 0.12312 0.0
C764 C 0.76679 0.58447 0.11288 0.0
C765 C 0.78753 0.60686 0.12472 0.0
N766 N 0.79501 0.65546 0.1508 0.0
N767 N 0.71524 0.56423 0.1156 0.0
C768 C 0.77618 0.63548 0.13529 0.0
C769 C 0.73487 0.58873 0.11655 0.0
N770 N 0.73463 0.67204 0.1329 0.0
N771 N 0.7775 0.55938 0.09755 0.0
H772 H 0.69234 0.56637 0.1218 0.0
H773 H 0.72254 0.54162 0.11317 0.0
H774 H 0.80078 0.55615 0.09305 0.0
H775 H 0.76303 0.54375 0.08635 0.0
H776 H 0.74959 0.6907 0.13526 0.0
H777 H 0.71183 0.67832 0.12942 0.0
H778 H 0.78695 0.67505 0.16178 0.0
H779 H 0.81812 0.65113 0.15521 0.0
C780 C 0.89943 0.24602 0.57497 0.0
C781 C 0.88817 0.22509 0.59724 0.0
C782 C 0.87622 0.2687 0.63079 0.0
C783 C 0.88334 0.2893 0.60649 0.0
N784 N 0.89268 0.29607 0.55259 0.0
N785 N 0.86004 0.2172 0.64442 0.0
C786 C 0.89244 0.27751 0.57775 0.0
C787 C 0.87499 0.23653 0.62475 0.0
N788 N 0.91726 0.23593 0.55135 0.0
N789 N 0.87177 0.27953 0.65984 0.0
H790 H 0.85794 0.19365 0.64071 0.0
H791 H 0.84731 0.22501 0.66301 0.0
H792 H 0.87295 0.30277 0.66534 0.0
H793 H 0.8697 0.2652 0.67888 0.0
H794 H 0.92791 0.25084 0.53593 0.0
H795 H 0.92421 0.21314 0.54938 0.0
H796 H 0.89706 0.2881 0.53048 0.0
H797 H 0.884 0.31823 0.5535 0.0
C798 C 0.27304 0.36858 0.10285 0.0
C799 C 0.2929 0.38742 0.12093 0.0
C800 C 0.24852 0.41381 0.14302 0.0
C801 C 0.22862 0.39387 0.12614 0.0
N802 N 0.22097 0.35156 0.09128 0.0
N803 N 0.3006 0.42684 0.15894 0.0
C804 C 0.24066 0.37112 0.10632 0.0
C805 C 0.28089 0.40985 0.1411 0.0
N806 N 0.2852 0.34819 0.08238 0.0
N807 N 0.23644 0.43638 0.1611 0.0
H808 H 0.32435 0.42567 0.15671 0.0
H809 H 0.2939 0.44117 0.17675 0.0
H810 H 0.21308 0.43833 0.16565 0.0
H811 H 0.24927 0.4541 0.17095 0.0
H812 H 0.27243 0.33633 0.06591 0.0
H813 H 0.30863 0.34386 0.0807 0.0
H814 H 0.2277 0.33214 0.07924 0.0
H815 H 0.19723 0.35403 0.09188 0.0
C816 C 0.37436 0.09878 0.2406 0.0
C817 C 0.39432 0.11992 0.22596 0.0
C818 C 0.41389 0.13723 0.27612 0.0
C819 C 0.39196 0.11812 0.29073 0.0
N820 N 0.3481 0.08393 0.28719 0.0
N821 N 0.42999 0.16261 0.22941 0.0
C822 C 0.37137 0.09965 0.27307 0.0
C823 C 0.41337 0.14 0.2436 0.0
N824 N 0.35892 0.07726 0.2235 0.0
N825 N 0.4358 0.15205 0.2933 0.0
H826 H 0.4304 0.16548 0.20568 0.0
H827 H 0.44141 0.18014 0.2412 0.0
H828 H 0.43656 0.15069 0.31716 0.0
H829 H 0.45461 0.16352 0.28392 0.0
H830 H 0.34672 0.05895 0.23296 0.0
H831 H 0.36049 0.07621 0.19967 0.0
H832 H 0.33029 0.073 0.27533 0.0
H833 H 0.34503 0.08384 0.31088 0.0
C834 C 0.37581 0.89232 0.75376 0.0
C835 C 0.39642 0.90791 0.73398 0.0
C836 C 0.43469 0.91118 0.7752 0.0
C837 C 0.41513 0.89329 0.79428 0.0
N838 N 0.36962 0.86168 0.79971 0.0
N839 N 0.44731 0.9273 0.72351 0.0
C840 C 0.3863 0.88248 0.78307 0.0
C841 C 0.42649 0.91576 0.74396 0.0
N842 N 0.34607 0.88735 0.74471 0.0
N843 N 0.4603 0.92512 0.7873 0.0
H844 H 0.44192 0.93145 0.70052 0.0
H845 H 0.47055 0.9302 0.72863 0.0
H846 H 0.4665 0.92341 0.8104 0.0
H847 H 0.47373 0.94086 0.77525 0.0
H848 H 0.32901 0.87933 0.75941 0.0
H849 H 0.33791 0.89336 0.72299 0.0
H850 H 0.3501 0.85051 0.79122 0.0
H851 H 0.37673 0.85336 0.821 0.0
C852 C 0.60629 0.86735 0.24272 0.0
C853 C 0.62441 0.88808 0.22508 0.0
C854 C 0.64599 0.91009 0.27238 0.0
C855 C 0.62583 0.89125 0.28992 0.0
N856 N 0.58354 0.8554 0.29201 0.0
N857 N 0.65816 0.93202 0.22267 0.0
C858 C 0.6051 0.87079 0.27514 0.0
C859 C 0.64339 0.91022 0.23979 0.0
N860 N 0.59108 0.84359 0.22862 0.0
N861 N 0.66847 0.92695 0.28675 0.0
H862 H 0.65703 0.93243 0.19877 0.0
H863 H 0.66948 0.95098 0.2321 0.0
H864 H 0.67127 0.92751 0.31051 0.0
H865 H 0.68598 0.93835 0.27511 0.0
H866 H 0.5804 0.82577 0.2405 0.0
H867 H 0.59139 0.84008 0.205 0.0
H868 H 0.56545 0.84288 0.28233 0.0
H869 H 0.58218 0.85734 0.3158 0.0
C870 C 0.63619 0.12827 0.76975 0.0
C871 C 0.60493 0.13589 0.77549 0.0
C872 C 0.59049 0.11803 0.72408 0.0
C873 C 0.62113 0.10894 0.71877 0.0
N874 N 0.67466 0.11155 0.73314 0.0
N875 N 0.55882 0.15452 0.75014 0.0
C876 C 0.6445 0.11568 0.74072 0.0
C877 C 0.5838 0.13574 0.75039 0.0
N878 N 0.65813 0.13455 0.79146 0.0
N879 N 0.56749 0.10932 0.70435 0.0
H880 H 0.55624 0.17258 0.76555 0.0
H881 H 0.54384 0.15605 0.73146 0.0
H882 H 0.57124 0.09584 0.68494 0.0
H883 H 0.54433 0.11298 0.70898 0.0
H884 H 0.68003 0.12517 0.79145 0.0
H885 H 0.65453 0.15013 0.80926 0.0
H886 H 0.69315 0.11842 0.74679 0.0
H887 H 0.68157 0.1029 0.71198 0.0
C888 C 0.89789 0.77824 0.64325 0.0
C889 C 0.88384 0.79042 0.61644 0.0
C890 C 0.88085 0.73952 0.59327 0.0
C891 C 0.89666 0.72758 0.61911 0.0
N892 N 0.91268 0.73272 0.67186 0.0
N893 N 0.85248 0.78211 0.57162 0.0
C894 C 0.90248 0.74601 0.64532 0.0
C895 C 0.87204 0.77071 0.59338 0.0
N896 N 0.90843 0.79753 0.66575 0.0
N897 N 0.87554 0.72141 0.56811 0.0
H898 H 0.84543 0.80498 0.57176 0.0
H899 H 0.84094 0.76849 0.55556 0.0
H900 H 0.88122 0.69822 0.56745 0.0
H901 H 0.86726 0.72972 0.54726 0.0
H902 H 0.92254 0.7906 0.68378 0.0
H903 H 0.90381 0.82093 0.66588 0.0
H904 H 0.91476 0.7444 0.69263 0.0
H905 H 0.91675 0.70921 0.67369 0.0
C906 C 0.7657 0.40972 0.09344 0.0
C907 C 0.78298 0.38823 0.11063 0.0
C908 C 0.73535 0.36478 0.12942 0.0
C909 C 0.71864 0.38878 0.11531 0.0
N910 N 0.7185 0.43796 0.08963 0.0
N911 N 0.7848 0.34625 0.14683 0.0
C912 C 0.73398 0.41241 0.09901 0.0
C913 C 0.76799 0.36586 0.12907 0.0
N914 N 0.77915 0.42633 0.07042 0.0
N915 N 0.72002 0.34055 0.14225 0.0
H916 H 0.80872 0.34585 0.14679 0.0
H917 H 0.77518 0.33187 0.16333 0.0
H918 H 0.69617 0.33949 0.14326 0.0
H919 H 0.7307 0.3206 0.14979 0.0
H920 H 0.76672 0.4401 0.05534 0.0
H921 H 0.80194 0.42349 0.06385 0.0
H922 H 0.72948 0.45724 0.08054 0.0
H923 H 0.69524 0.44132 0.09389 0.0
C924 C 0.13664 0.23637 0.64046 0.0
C925 C 0.14324 0.22447 0.61088 0.0
C926 C 0.15988 0.27521 0.59356 0.0
C927 C 0.1534 0.28709 0.62319 0.0
N928 N 0.14513 0.27766 0.67682 0.0
N929 N 0.17043 0.23005 0.56309 0.0
C930 C 0.1449 0.26715 0.64732 0.0
C931 C 0.15793 0.24311 0.58865 0.0
N932 N 0.12094 0.21907 0.66141 0.0
N933 N 0.16597 0.29448 0.56958 0.0
H934 H 0.17003 0.2064 0.55917 0.0
H935 H 0.18397 0.24221 0.54756 0.0
H936 H 0.16783 0.31817 0.5719 0.0
H937 H 0.16696 0.28712 0.54684 0.0
H938 H 0.11236 0.22797 0.68182 0.0
H939 H 0.1143 0.1964 0.65751 0.0
H940 H 0.14176 0.26359 0.69586 0.0
H941 H 0.15231 0.29986 0.68221 0.0
C942 C 0.23392 0.63475 0.13889 0.0
C943 C 0.22091 0.60559 0.1459 0.0
C944 C 0.27115 0.58629 0.16128 0.0
C945 C 0.28423 0.61521 0.15361 0.0
N946 N 0.27733 0.66929 0.14605 0.0
N947 N 0.22482 0.55786 0.17357 0.0
C948 C 0.2653 0.64027 0.14598 0.0
C949 C 0.23882 0.58273 0.16039 0.0
N950 N 0.21706 0.65647 0.12391 0.0
N951 N 0.28947 0.56174 0.16769 0.0
H952 H 0.20099 0.55504 0.17392 0.0
H953 H 0.23652 0.54185 0.1869 0.0
H954 H 0.31328 0.56328 0.1694 0.0
H955 H 0.28114 0.53932 0.16945 0.0
H956 H 0.2266 0.67661 0.11513 0.0
H957 H 0.19396 0.65354 0.11825 0.0
H958 H 0.26417 0.68893 0.14294 0.0
H959 H 0.29991 0.6737 0.15298 0.0
C960 C 0.90736 0.24222 0.35853 0.0
C961 C 0.8876 0.22734 0.37982 0.0
C962 C 0.87018 0.27756 0.39726 0.0
C963 C 0.88581 0.29178 0.37247 0.0
N964 N 0.9126 0.28554 0.32462 0.0
N965 N 0.84426 0.23167 0.41391 0.0
C966 C 0.90237 0.27348 0.35156 0.0
C967 C 0.86721 0.24522 0.39759 0.0
N968 N 0.93204 0.22745 0.34635 0.0
N969 N 0.8597 0.2944 0.42146 0.0
H970 H 0.84 0.20829 0.41264 0.0
H971 H 0.82731 0.24408 0.42519 0.0
H972 H 0.86367 0.31787 0.42373 0.0
H973 H 0.85053 0.28433 0.44113 0.0
H974 H 0.94813 0.23855 0.3325 0.0
H975 H 0.93889 0.20567 0.35333 0.0
H976 H 0.92291 0.27233 0.30762 0.0
H977 H 0.90688 0.30762 0.31782 0.0
C978 C 0.24681 0.41674 0.91515 0.0
C979 C 0.23285 0.39091 0.90047 0.0
C980 C 0.28221 0.36432 0.90248 0.0
C981 C 0.29648 0.39157 0.91358 0.0
N982 N 0.29331 0.4468 0.91901 0.0
N983 N 0.24013 0.34341 0.8726 0.0
C984 C 0.27913 0.41882 0.91614 0.0
C985 C 0.25143 0.36568 0.89172 0.0
N986 N 0.22988 0.4381 0.93047 0.0
N987 N 0.29725 0.33691 0.90347 0.0
H988 H 0.21822 0.34432 0.863 0.0
H989 H 0.25376 0.32607 0.86355 0.0
H990 H 0.31924 0.33448 0.91267 0.0
H991 H 0.28657 0.31606 0.89814 0.0
H992 H 0.24004 0.4559 0.94306 0.0
H993 H 0.20649 0.4358 0.93469 0.0
H994 H 0.28116 0.46735 0.91855 0.0
H995 H 0.3171 0.44965 0.91798 0.0
C996 C 0.08385 0.77446 0.37264 0.0
C997 C 0.11358 0.78601 0.38034 0.0
C998 C 0.12973 0.73474 0.39598 0.0
C999 C 0.10041 0.72302 0.38731 0.0
N1000 N 0.05286 0.72984 0.35961 0.0
N1001 N 0.16679 0.77608 0.39119 0.0
C1002 C 0.0785 0.74231 0.37314 0.0
C1003 C 0.13716 0.76575 0.38942 0.0
N1004 N 0.06019 0.79404 0.36659 0.0
N1005 N 0.14988 0.71687 0.41199 0.0
H1006 H 0.1728 0.79852 0.38556 0.0
H1007 H 0.18552 0.76177 0.39484 0.0
H1008 H 0.14535 0.69406 0.4175 0.0
H1009 H 0.16998 0.72538 0.42205 0.0
H1010 H 0.03737 0.78685 0.36474 0.0
H1011 H 0.06274 0.81776 0.36576 0.0
H1012 H 0.03762 0.74251 0.34626 0.0
H1013 H 0.0485 0.70625 0.3591 0.0
C1014 C 0.77545 0.64321 0.89005 0.0
C1015 C 0.78674 0.61448 0.8796 0.0
C1016 C 0.73453 0.59503 0.87256 0.0
C1017 C 0.72326 0.62297 0.88468 0.0
N1018 N 0.73126 0.67637 0.89653 0.0
N1019 N 0.7778 0.56792 0.85105 0.0
C1020 C 0.74321 0.64813 0.89031 0.0
C1021 C 0.76642 0.59202 0.86747 0.0
N1022 N 0.7952 0.66487 0.90165 0.0
N1023 N 0.7149 0.5709 0.86741 0.0
H1024 H 0.80121 0.56565 0.84656 0.0
H1025 H 0.76401 0.55209 0.83936 0.0
H1026 H 0.69122 0.57261 0.87021 0.0
H1027 H 0.72216 0.5488 0.86214 0.0
H1028 H 0.78808 0.68441 0.91331 0.0
H1029 H 0.81897 0.66273 0.90099 0.0
H1030 H 0.74449 0.69633 0.89814 0.0
H1031 H 0.70766 0.68027 0.89736 0.0
C1032 C 0.57674 0.92521 0.77032 0.0
C1033 C 0.59227 0.90161 0.78655 0.0
C1034 C 0.62548 0.89476 0.74186 0.0
C1035 C 0.60639 0.91475 0.72459 0.0
N1036 N 0.55528 0.93672 0.72102 0.0
N1037 N 0.62605 0.85772 0.78315 0.0
C1038 C 0.57926 0.92613 0.73826 0.0
C1039 C 0.61509 0.88438 0.77099 0.0
N1040 N 0.5614 0.94815 0.78499 0.0
N1041 N 0.65374 0.88654 0.73138 0.0
H1042 H 0.61705 0.84784 0.80299 0.0
H1043 H 0.64118 0.84356 0.77137 0.0
H1044 H 0.66319 0.89528 0.71124 0.0
H1045 H 0.66911 0.87382 0.74458 0.0
H1046 H 0.55121 0.96617 0.77298 0.0
H1047 H 0.56291 0.95201 0.80855 0.0
H1048 H 0.53468 0.94362 0.73096 0.0
H1049 H 0.55426 0.93442 0.6972 0.0
C1050 C 0.61305 0.10824 0.24091 0.0
C1051 C 0.63215 0.12872 0.2243 0.0
C1052 C 0.65048 0.15188 0.27255 0.0
C1053 C 0.6302 0.13205 0.28878 0.0
N1054 N 0.58528 0.09906 0.28765 0.0
N1055 N 0.67239 0.16708 0.22351 0.0
C1056 C 0.60958 0.11236 0.27277 0.0
C1057 C 0.65184 0.14983 0.23988 0.0
N1058 N 0.59971 0.08348 0.2266 0.0
N1059 N 0.66753 0.17327 0.28828 0.0
H1060 H 0.67348 0.16674 0.19964 0.0
H1061 H 0.68948 0.18083 0.23322 0.0
H1062 H 0.6674 0.17515 0.3121 0.0
H1063 H 0.68074 0.19036 0.27807 0.0
H1064 H 0.58831 0.06604 0.23844 0.0
H1065 H 0.60316 0.07822 0.20354 0.0
H1066 H 0.56774 0.08717 0.27627 0.0
H1067 H 0.58044 0.10305 0.31071 0.0
C1068 C 0.37281 0.1018 0.74704 0.0
C1069 C 0.39224 0.11791 0.72657 0.0
C1070 C 0.41678 0.14523 0.76918 0.0
C1071 C 0.39939 0.12703 0.78974 0.0
N1072 N 0.35401 0.09662 0.79913 0.0
N1073 N 0.42453 0.16184 0.71662 0.0
C1074 C 0.37492 0.10827 0.77891 0.0
C1075 C 0.41143 0.14213 0.73718 0.0
N1076 N 0.35329 0.07962 0.73599 0.0
N1077 N 0.43911 0.16451 0.78037 0.0
H1078 H 0.42001 0.1604 0.69316 0.0
H1079 H 0.4372 0.18125 0.72285 0.0
H1080 H 0.44212 0.16849 0.80384 0.0
H1081 H 0.45518 0.1757 0.76666 0.0
H1082 H 0.34115 0.06443 0.7499 0.0
H1083 H 0.35013 0.07574 0.71252 0.0
H1084 H 0.33444 0.08435 0.79257 0.0
H1085 H 0.35466 0.102 0.82243 0.0
C1086 C 0.35358 0.86712 0.24662 0.0
C1087 C 0.37447 0.8854 0.22947 0.0
C1088 C 0.40141 0.90072 0.27629 0.0
C1089 C 0.37981 0.88379 0.29373 0.0
N1090 N 0.33284 0.85429 0.29662 0.0
N1091 N 0.41081 0.92765 0.22898 0.0
C1092 C 0.35515 0.86787 0.27923 0.0
C1093 C 0.39621 0.90458 0.24459 0.0
N1094 N 0.33283 0.84855 0.23185 0.0
N1095 N 0.42765 0.91205 0.28968 0.0
H1096 H 0.40605 0.93275 0.20608 0.0
H1097 H 0.4247 0.94408 0.23972 0.0
H1098 H 0.43307 0.90884 0.31279 0.0
H1099 H 0.44557 0.92176 0.27713 0.0
H1100 H 0.31975 0.83178 0.24285 0.0
H1101 H 0.32962 0.8488 0.20816 0.0
H1102 H 0.31238 0.84545 0.28769 0.0
H1103 H 0.33391 0.85364 0.32047 0.0
C1104 C 0.09554 0.07658 0.53227 0.0
C1105 C 0.12412 0.07444 0.54723 0.0
C1106 C 0.15137 0.08249 0.49934 0.0
C1107 C 0.12303 0.09151 0.48588 0.0
N1108 N 0.0682 0.08409 0.48414 0.0
N1109 N 0.17617 0.05815 0.54318 0.0
C1110 C 0.09501 0.08343 0.50048 0.0
C1111 C 0.15096 0.07085 0.52977 0.0
N1112 N 0.06942 0.07495 0.54933 0.0
N1113 N 0.1785 0.08739 0.4845 0.0
H1114 H 0.17521 0.04951 0.56551 0.0
H1115 H 0.19634 0.05339 0.53139 0.0
H1116 H 0.17974 0.09496 0.46192 0.0
H1117 H 0.19987 0.08465 0.49495 0.0
H1118 H 0.04754 0.07953 0.5408 0.0
H1119 H 0.07035 0.0694 0.57265 0.0
H1120 H 0.04706 0.07719 0.49294 0.0
H1121 H 0.06791 0.08938 0.46078 0.0
C1122 C 0.43753 0.63973 1.00585 0.0
C1123 C 0.42949 0.61476 0.98696 0.0
C1124 C 0.41167 0.58534 0.03088 0.0
C1125 C 0.41163 0.61313 0.04759 0.0
N1126 N 0.43346 0.66313 0.05646 0.0
N1127 N 0.42252 0.56048 0.98199 0.0
C1128 C 0.42828 0.63905 0.03702 0.0
C1129 C 0.42186 0.58608 1.00003 0.0
N1130 N 0.45271 0.66405 0.99323 0.0
N1131 N 0.40002 0.55929 0.04397 0.0
H1132 H 0.43026 0.5616 0.95935 0.0
H1133 H 0.41748 0.53841 0.98965 0.0
H1134 H 0.39321 0.55876 0.06692 0.0
H1135 H 0.39737 0.53845 0.03255 0.0
H1136 H 0.45949 0.6836 1.0053 0.0
H1137 H 0.45957 0.66357 0.97027 0.0
H1138 H 0.44409 0.68362 0.05014 0.0
H1139 H 0.42763 0.66182 0.07966 0.0
C1140 C 0.85375 0.92806 0.50287 0.0
C1141 C 0.88315 0.92429 0.48963 0.0
C1142 C 0.9079 0.94305 0.53649 0.0
C1143 C 0.87939 0.94007 0.55129 0.0
N1144 N 0.82499 0.94564 0.54728 0.0
N1145 N 0.93607 0.94025 0.48851 0.0
C1146 C 0.85214 0.93865 0.53367 0.0
C1147 C 0.9095 0.93661 0.50462 0.0
N1148 N 0.82795 0.91915 0.4872 0.0
N1149 N 0.93343 0.94928 0.55372 0.0
H1150 H 0.93707 0.93524 0.46508 0.0
H1151 H 0.95597 0.9502 0.49753 0.0
H1152 H 0.93161 0.95455 0.57703 0.0
H1153 H 0.95576 0.94884 0.54533 0.0
H1154 H 0.80621 0.91809 0.497 0.0
H1155 H 0.82846 0.91213 0.46436 0.0
H1156 H 0.80406 0.94642 0.53564 0.0
H1157 H 0.8245 0.95371 0.56983 0.0
C1158 C 0.57841 0.42594 0.98369 0.0
C1159 C 0.5738 0.39919 0.96583 0.0
C1160 C 0.56613 0.36861 0.01161 0.0
C1161 C 0.57942 0.39303 0.02861 0.0
N1162 N 0.58592 0.44735 0.03492 0.0
N1163 N 0.54906 0.35022 0.96138 0.0
C1164 C 0.58049 0.42287 0.01605 0.0
C1165 C 0.5623 0.37223 0.97945 0.0
N1166 N 0.58291 0.45338 0.96921 0.0
N1167 N 0.56015 0.34147 0.02605 0.0
H1168 H 0.54671 0.35336 0.93771 0.0
H1169 H 0.53886 0.33029 0.96987 0.0
H1170 H 0.56261 0.33944 0.04984 0.0
H1171 H 0.55306 0.32152 0.0148 0.0
H1172 H 0.58835 0.47385 0.98035 0.0
H1173 H 0.58045 0.45537 0.94543 0.0
H1174 H 0.58705 0.47005 0.02758 0.0
H1175 H 0.58755 0.44467 0.05866 0.0
C1176 C 0.14459 0.94442 0.52254 0.0
C1177 C 0.11731 0.93836 0.53832 0.0
C1178 C 0.0921 0.92245 0.4908 0.0
C1179 C 0.12176 0.91879 0.4781 0.0
N1180 N 0.17569 0.9316 0.47849 0.0
N1181 N 0.06272 0.93341 0.53711 0.0
C1182 C 0.1478 0.93242 0.49254 0.0
C1183 C 0.08996 0.93235 0.52181 0.0
N1184 N 0.16739 0.96041 0.53706 0.0
N1185 N 0.0667 0.91445 0.474 0.0
H1186 H 0.06184 0.94079 0.55993 0.0
H1187 H 0.04148 0.92774 0.52755 0.0
H1188 H 0.06819 0.90682 0.45137 0.0
H1189 H 0.04425 0.91656 0.4817 0.0
H1190 H 0.18755 0.96753 0.52634 0.0
H1191 H 0.16448 0.96842 0.55949 0.0
H1192 H 0.19617 0.93833 0.48908 0.0
H1193 H 0.1781 0.92321 0.45623 0.0
C1194 C 0.57669 0.60146 0.97061 0.0
C1195 C 0.57668 0.63053 0.95657 0.0
C1196 C 0.58831 0.65559 1.00525 0.0
C1197 C 0.59481 0.6262 0.0177 0.0
N1198 N 0.58311 0.57209 0.01759 0.0
N1199 N 0.56575 0.68379 0.96257 0.0
C1200 C 0.58437 0.59936 1.0022 0.0
C1201 C 0.57628 0.65714 0.97492 0.0
N1202 N 0.57191 0.5761 0.95282 0.0
N1203 N 0.59571 0.68167 0.02111 0.0
H1204 H 0.55621 0.68409 0.94054 0.0
H1205 H 0.5634 0.70408 0.97497 0.0
H1206 H 0.60355 0.68144 0.04371 0.0
H1207 H 0.59485 0.70355 0.01153 0.0
H1208 H 0.57468 0.55364 0.96042 0.0
H1209 H 0.56547 0.57827 0.92981 0.0
H1210 H 0.57441 0.55183 0.00815 0.0
H1211 H 0.58867 0.57058 0.04088 0.0
C1212 C 0.9323 0.09081 0.49063 0.0
C1213 C 0.90402 0.08972 0.47466 0.0
C1214 C 0.87958 0.06369 0.51754 0.0
C1215 C 0.90462 0.07333 0.53568 0.0
N1216 N 0.95882 0.08159 0.53919 0.0
N1217 N 0.85529 0.06495 0.467 0.0
C1218 C 0.93278 0.08102 0.52168 0.0
C1219 C 0.87932 0.0719 0.48603 0.0
N1220 N 0.95739 0.10359 0.47685 0.0
N1221 N 0.85574 0.04879 0.5313 0.0
H1222 H 0.85604 0.07054 0.4437 0.0
H1223 H 0.83578 0.05279 0.47368 0.0
H1224 H 0.85675 0.04318 0.55461 0.0
H1225 H 0.83595 0.04142 0.51991 0.0
H1226 H 0.97843 0.10716 0.48777 0.0
H1227 H 0.95677 0.11049 0.4539 0.0
H1228 H 0.98059 0.0867 0.53077 0.0
H1229 H 0.95831 0.0749 0.56223 0.0
C1230 C 0.45053 0.41536 0.98773 0.0
C1231 C 0.45032 0.38678 0.97275 0.0
C1232 C 0.44156 0.36003 0.02092 0.0
C1233 C 0.43388 0.38878 0.03413 0.0
N1234 N 0.44441 0.44303 0.03575 0.0
N1235 N 0.4637 0.33396 0.97675 0.0
C1236 C 0.44364 0.41627 0.01949 0.0
C1237 C 0.45261 0.35976 0.99027 0.0
N1238 N 0.45417 0.44132 0.97064 0.0
N1239 N 0.43621 0.3333 0.03637 0.0
H1240 H 0.47202 0.33462 0.95432 0.0
H1241 H 0.46743 0.31346 0.98844 0.0
H1242 H 0.42977 0.33272 0.05933 0.0
H1243 H 0.43792 0.3117 0.02629 0.0
H1244 H 0.45155 0.46348 0.97913 0.0
H1245 H 0.45948 0.43995 0.94732 0.0
H1246 H 0.45237 0.46382 0.02697 0.0
H1247 H 0.43907 0.44349 0.05906 0.0
C1248 C 0.51861 0.14465 0.07868 0.0
C1249 C 0.53873 0.12099 0.08805 0.0
C1250 C 0.49804 0.08331 0.08007 0.0
C1251 C 0.47713 0.10773 0.08273 0.0
N1252 N 0.46648 0.15776 0.06303 0.0
N1253 N 0.55093 0.06717 0.08725 0.0
C1254 C 0.48712 0.13728 0.07427 0.0
C1255 C 0.52979 0.08988 0.08405 0.0
N1256 N 0.52931 0.17411 0.07707 0.0
N1257 N 0.48679 0.05419 0.07683 0.0
H1258 H 0.57426 0.07206 0.08972 0.0
H1259 H 0.54559 0.04384 0.08713 0.0
H1260 H 0.46315 0.05022 0.07493 0.0
H1261 H 0.5004 0.03484 0.07427 0.0
H1262 H 0.51527 0.19302 0.07341 0.0
H1263 H 0.55265 0.17919 0.08 0.0
H1264 H 0.47257 0.17945 0.05493 0.0
H1265 H 0.44352 0.15147 0.05949 0.0
C1266 C 0.36019 0.99616 0.57957 0.0
C1267 C 0.38618 0.97866 0.58777 0.0
C1268 C 0.41933 0.02384 0.58301 0.0
C1269 C 0.39272 0.04178 0.5797 0.0
N1270 N 0.34178 0.04425 0.55858 0.0
N1271 N 0.44117 0.97277 0.58606 0.0
C1272 C 0.3644 0.02758 0.57221 0.0
C1273 C 0.41615 0.99146 0.58533 0.0
N1274 N 0.33158 0.98323 0.58045 0.0
N1275 N 0.44718 0.03823 0.58543 0.0
H1276 H 0.43912 0.94893 0.58699 0.0
H1277 H 0.46363 0.98048 0.583 0.0
H1278 H 0.44939 0.0618 0.58162 0.0
H1279 H 0.46754 0.02724 0.59125 0.0
H1280 H 0.31142 0.99574 0.57798 0.0
H1281 H 0.32822 0.95999 0.58508 0.0
H1282 H 0.32097 0.03477 0.5512 0.0
H1283 H 0.34574 0.06667 0.55116 0.0
C1284 C 0.4879 0.85825 0.08787 0.0
C1285 C 0.46779 0.88262 0.09501 0.0
C1286 C 0.50879 0.91964 0.08589 0.0
C1287 C 0.52965 0.89527 0.08972 0.0
N1288 N 0.54018 0.84323 0.07538 0.0
N1289 N 0.45568 0.93617 0.0896 0.0
C1290 C 0.51953 0.86501 0.08378 0.0
C1291 C 0.47693 0.91334 0.08918 0.0
N1292 N 0.47684 0.82887 0.08781 0.0
N1293 N 0.52016 0.94858 0.08163 0.0
H1294 H 0.43226 0.93142 0.09105 0.0
H1295 H 0.46091 0.95942 0.08767 0.0
H1296 H 0.5438 0.95244 0.0797 0.0
H1297 H 0.50671 0.96797 0.07852 0.0
H1298 H 0.4905 0.80949 0.08569 0.0
H1299 H 0.4534 0.8243 0.09027 0.0
H1300 H 0.53426 0.82063 0.07014 0.0
H1301 H 0.56303 0.84894 0.07081 0.0
C1302 C 0.59931 0.01528 0.57134 0.0
C1303 C 0.62901 0.02861 0.5747 0.0
C1304 C 0.65184 0.97932 0.56212 0.0
C1305 C 0.62367 0.96513 0.56939 0.0
N1306 N 0.56905 0.96794 0.57189 0.0
N1307 N 0.68388 0.02435 0.56982 0.0
C1308 C 0.59669 0.98277 0.57009 0.0
C1309 C 0.65546 0.0111 0.56822 0.0
N1310 N 0.574 0.03358 0.57058 0.0
N1311 N 0.67503 0.9621 0.55053 0.0
H1312 H 0.6868 0.04772 0.574 0.0
H1313 H 0.70422 0.01199 0.56847 0.0
H1314 H 0.67164 0.93894 0.5452 0.0
H1315 H 0.69587 0.9714 0.54324 0.0
H1316 H 0.55175 0.02543 0.56692 0.0
H1317 H 0.57564 0.05746 0.57117 0.0
H1318 H 0.5482 0.97879 0.57569 0.0
H1319 H 0.56759 0.94408 0.56979 0.0
C1320 C 0.50014 0.91524 0.94503 0.0
C1321 C 0.48635 0.88574 0.9424 0.0
C1322 C 0.53613 0.86226 0.9519 0.0
C1323 C 0.55013 0.89044 0.94404 0.0
N1324 N 0.54755 0.9451 0.94151 0.0
N1325 N 0.48986 0.83102 0.94807 0.0
C1326 C 0.53269 0.91757 0.94432 0.0
C1327 C 0.50386 0.85913 0.94815 0.0
N1328 N 0.48206 0.94064 0.94669 0.0
N1329 N 0.55391 0.83862 0.96179 0.0
H1330 H 0.46607 0.82869 0.94626 0.0
H1331 H 0.50176 0.81038 0.94882 0.0
H1332 H 0.5774 0.84171 0.96572 0.0
H1333 H 0.54504 0.81763 0.96918 0.0
H1334 H 0.49053 0.96284 0.9498 0.0
H1335 H 0.45817 0.93902 0.94746 0.0
H1336 H 0.53659 0.96602 0.93835 0.0
H1337 H 0.5715 0.94642 0.94207 0.0
C1338 C 0.64081 0.98847 0.43975 0.0
C1339 C 0.61146 0.97814 0.43078 0.0
C1340 C 0.59341 0.03074 0.42854 0.0
C1341 C 0.62454 0.03973 0.42496 0.0
N1342 N 0.67765 0.03053 0.43669 0.0
N1343 N 0.55773 0.98767 0.43497 0.0
C1344 C 0.64819 0.01983 0.43487 0.0
C1345 C 0.58687 0.99899 0.43248 0.0
N1346 N 0.66105 0.96831 0.45221 0.0
N1347 N 0.57067 0.05184 0.42514 0.0
H1348 H 0.5538 0.96406 0.43703 0.0
H1349 H 0.53821 1.00119 0.43665 0.0
H1350 H 0.57552 0.07517 0.42283 0.0
H1351 H 0.54733 0.04651 0.42517 0.0
H1352 H 0.68244 0.97483 0.46099 0.0
H1353 H 0.65473 0.94546 0.45617 0.0
H1354 H 0.69652 0.0165 0.44069 0.0
H1355 H 0.68278 0.05378 0.43352 0.0
C1356 C 0.49117 0.09749 0.93422 0.0
C1357 C 0.47376 0.12442 0.93753 0.0
C1358 C 0.51993 0.15613 0.93658 0.0
C1359 C 0.53663 0.1299 0.9277 0.0
N1360 N 0.54172 0.07484 0.9288 0.0
N1361 N 0.47237 0.17557 0.95774 0.0
C1362 C 0.52347 0.10014 0.93061 0.0
C1363 C 0.48857 0.15251 0.94445 0.0
N1364 N 0.47619 0.0699 0.93279 0.0
N1365 N 0.53357 0.18442 0.93577 0.0
H1366 H 0.44987 0.17203 0.96511 0.0
H1367 H 0.48214 0.19637 0.96465 0.0
H1368 H 0.55685 0.18719 0.93096 0.0
H1369 H 0.5217 0.20487 0.93872 0.0
H1370 H 0.48659 0.04919 0.92734 0.0
H1371 H 0.45268 0.06827 0.9372 0.0
H1372 H 0.53382 0.05245 0.93186 0.0
H1373 H 0.5655 0.07652 0.9266 0.0
C1374 C 0.36617 0.99287 0.44173 0.0
C1375 C 0.3895 0.97222 0.43304 0.0
C1376 C 0.42748 0.01308 0.43709 0.0
C1377 C 0.40297 0.03392 0.4336 0.0
N1378 N 0.35291 0.04607 0.45253 0.0
N1379 N 0.44294 0.95944 0.43633 0.0
C1380 C 0.37344 0.02465 0.44311 0.0
C1381 C 0.4206 0.98117 0.43647 0.0
N1382 N 0.33702 0.982 0.44557 0.0
N1383 N 0.45679 0.02426 0.43835 0.0
H1384 H 0.43745 0.93612 0.43686 0.0
H1385 H 0.46638 0.96426 0.43689 0.0
H1386 H 0.46102 0.04791 0.43844 0.0
H1387 H 0.47625 0.01072 0.44055 0.0
H1388 H 0.31801 0.9959 0.44901 0.0
H1389 H 0.33244 0.95842 0.44515 0.0
H1390 H 0.33107 0.04072 0.46063 0.0
H1391 H 0.35923 0.06916 0.4547 0.0
C1392 C 0.07337 0.48885 0.14387 0.0
C1393 C 0.08583 0.47975 0.11538 0.0
C1394 C 0.0731 0.52957 0.09348 0.0
C1395 C 0.07185 0.541 0.12368 0.0
N1396 N 0.06096 0.5321 0.1768 0.0
N1397 N 0.08295 0.48549 0.06063 0.0
C1398 C 0.06768 0.52058 0.14854 0.0
C1399 C 0.08017 0.49813 0.08914 0.0
N1400 N 0.06682 0.46746 0.16576 0.0
N1401 N 0.07009 0.54959 0.06964 0.0
H1402 H 0.08751 0.46217 0.05787 0.0
H1403 H 0.07934 0.49729 0.04019 0.0
H1404 H 0.06448 0.5725 0.07362 0.0
H1405 H 0.07247 0.54375 0.04662 0.0
H1406 H 0.05665 0.47265 0.18668 0.0
H1407 H 0.06821 0.44399 0.16133 0.0
H1408 H 0.06119 0.51921 0.19691 0.0
H1409 H 0.05541 0.55517 0.17971 0.0
C1410 C 0.08079 0.51481 0.92653 0.0
C1411 C 0.07474 0.5307 0.89898 0.0
C1412 C 0.07315 0.48282 0.87063 0.0
C1413 C 0.08889 0.46919 0.89554 0.0
N1414 N 0.09863 0.46726 0.94976 0.0
N1415 N 0.05102 0.52971 0.8496 0.0
C1416 C 0.08868 0.4833 0.92477 0.0
C1417 C 0.06559 0.51439 0.87261 0.0
N1418 N 0.08135 0.53083 0.95345 0.0
N1419 N 0.06763 0.46587 0.84487 0.0
H1420 H 0.04582 0.55299 0.85187 0.0
H1421 H 0.04292 0.51941 0.82954 0.0
H1422 H 0.07204 0.44234 0.84458 0.0
H1423 H 0.05815 0.47456 0.82473 0.0
H1424 H 0.08574 0.52118 0.97485 0.0
H1425 H 0.07564 0.55409 0.95404 0.0
H1426 H 0.10079 0.47641 0.97174 0.0
H1427 H 0.10422 0.44407 0.94823 0.0
C1428 C 0.02427 0.57369 0.42814 0.0
C1429 C 0.04177 0.56856 0.40153 0.0
C1430 C 0.99527 0.55981 0.37135 0.0
C1431 C 0.97863 0.57296 0.39567 0.0
N1432 N 0.97338 0.57973 0.45008 0.0
N1433 N 0.04495 0.54177 0.35351 0.0
C1434 C 0.99187 0.57521 0.42532 0.0
C1435 C 0.0275 0.55608 0.37503 0.0
N1436 N 0.03919 0.57892 0.45526 0.0
N1437 N 0.98034 0.55231 0.34477 0.0
H1438 H 0.06827 0.53778 0.3572 0.0
H1439 H 0.03608 0.53149 0.33376 0.0
H1440 H 0.95645 0.55376 0.34293 0.0
H1441 H 0.99125 0.54481 0.32498 0.0
H1442 H 0.0285 0.58523 0.47558 0.0
H1443 H 0.06294 0.5763 0.45695 0.0
H1444 H 0.98123 0.58139 0.47262 0.0
H1445 H 0.9495 0.57947 0.44794 0.0
C1446 C 0.95084 0.53681 0.86032 0.0
C1447 C 0.93878 0.55006 0.88734 0.0
C1448 C 0.93316 0.49928 0.91003 0.0
C1449 C 0.9353 0.48679 0.88012 0.0
N1450 N 0.95507 0.49051 0.82918 0.0
N1451 N 0.92899 0.54562 0.94105 0.0
C1452 C 0.94761 0.50456 0.85605 0.0
C1453 C 0.93405 0.53166 0.91353 0.0
N1454 N 0.96478 0.55509 0.83909 0.0
N1455 N 0.92957 0.48006 0.93447 0.0
H1456 H 0.93165 0.56935 0.94347 0.0
H1457 H 0.9228 0.53418 0.96106 0.0
H1458 H 0.93057 0.45631 0.93185 0.0
H1459 H 0.92814 0.48727 0.95718 0.0
H1460 H 0.97472 0.54696 0.81903 0.0
H1461 H 0.96906 0.5783 0.84332 0.0
H1462 H 0.96152 0.50211 0.80933 0.0
H1463 H 0.95491 0.46661 0.82736 0.0
C1464 C 0.01683 0.43476 0.42297 0.0
C1465 C 0.03929 0.433 0.39983 0.0
C1466 C 1.00006 0.4385 0.36069 0.0
C1467 C 0.97852 0.42814 0.3827 0.0
N1468 N 0.96336 0.42555 0.43574 0.0
N1469 N 0.05328 0.45324 0.35078 0.0
C1470 C 0.98562 0.43056 0.4144 0.0
C1471 C 0.0312 0.44208 0.36988 0.0
N1472 N 0.0261 0.43775 0.45276 0.0
N1473 N 0.99082 0.44224 0.33099 0.0
H1474 H 0.0756 0.45726 0.35879 0.0
H1475 H 0.04896 0.46101 0.32859 0.0
H1476 H 0.96766 0.44026 0.32484 0.0
H1477 H 1.00565 0.44717 0.31296 0.0
H1478 H 0.01113 0.44018 0.47114 0.0
H1479 H 0.0494 0.43998 0.45829 0.0
H1480 H 0.96753 0.42402 0.45924 0.0
H1481 H 0.94039 0.4228 0.42955 0.0
C1482 C 0.92627 0.49741 0.08794 0.0
C1483 C 0.92112 0.481 0.11543 0.0
C1484 C 0.9409 0.52383 0.14581 0.0
C1485 C 0.93789 0.54222 0.11949 0.0
N1486 N 0.94166 0.54618 0.06491 0.0
N1487 N 0.93376 0.47324 0.16846 0.0
C1488 C 0.9362 0.5285 0.09015 0.0
C1489 C 0.93276 0.49233 0.14369 0.0
N1490 N 0.91916 0.48405 0.06042 0.0
N1491 N 0.94887 0.53749 0.17289 0.0
H1492 H 0.92753 0.45015 0.16645 0.0
H1493 H 0.94197 0.47955 0.19004 0.0
H1494 H 0.95519 0.56065 0.17354 0.0
H1495 H 0.94979 0.5263 0.19396 0.0
H1496 H 0.91995 0.49541 0.03944 0.0
H1497 H 0.91244 0.46104 0.05885 0.0
H1498 H 0.94141 0.53794 0.04249 0.0
H1499 H 0.94854 0.56912 0.06709 0.0
C1500 C 1.00565 0.42363 0.59528 0.0
C1501 C 0.98515 0.41636 0.61928 0.0
C1502 C 0.02804 0.41611 0.65529 0.0
C1503 C 0.04782 0.41174 0.63006 0.0
N1504 N 0.05752 0.41822 0.57602 0.0
N1505 N 0.97561 0.41326 0.67356 0.0
C1506 C 0.03755 0.41889 0.60003 0.0
C1507 C 0.99588 0.41631 0.65 0.0
N1508 N 0.99396 0.43249 0.56759 0.0
N1509 N 0.04029 0.41799 0.68412 0.0
H1510 H 0.952 0.4142 0.67006 0.0
H1511 H 0.98206 0.40937 0.69627 0.0
H1512 H 0.06401 0.41727 0.68768 0.0
H1513 H 0.02754 0.42284 0.70365 0.0
H1514 H 0.00743 0.43959 0.5492 0.0
H1515 H 0.9703 0.43502 0.56435 0.0
H1516 H 0.05079 0.41985 0.55312 0.0
H1517 H 0.08106 0.4155 0.57918 0.0
C1518 C 0.01814 0.58179 0.59819 0.0
C1519 C 0.03087 0.58275 0.62822 0.0
C1520 C 0.98091 0.56908 0.64931 0.0
C1521 C 0.96733 0.57819 0.62128 0.0
N1522 N 0.97169 0.58537 0.56708 0.0
N1523 N 0.02556 0.57404 0.68244 0.0
C1524 C 0.98567 0.58131 0.59485 0.0
C1525 C 0.01273 0.57465 0.65382 0.0
N1526 N 0.03706 0.58236 0.5733 0.0
N1527 N 0.96335 0.55561 0.67139 0.0
H1528 H 0.04906 0.57724 0.68592 0.0
H1529 H 0.0128 0.57169 0.70248 0.0
H1530 H 0.94052 0.54943 0.66717 0.0
H1531 H 0.97229 0.54714 0.6919 0.0
H1532 H 0.02938 0.58041 0.55072 0.0
H1533 H 0.06091 0.58207 0.57553 0.0
H1534 H 0.98319 0.59116 0.54699 0.0
H1535 H 0.94793 0.58297 0.56465 0.0
C1536 C 0.9959 0.13996 0.34577 0.0
C1537 C 0.97927 0.11928 0.36486 0.0
C1538 C 0.02857 0.1003 0.38563 0.0
C1539 C 0.04438 0.12488 0.3711 0.0
N1540 N 0.04565 0.16147 0.33043 0.0
N1541 N 0.97951 0.07693 0.40001 0.0
C1542 C 0.02872 0.14238 0.34862 0.0
C1543 C 0.9957 0.09796 0.38325 0.0
N1544 N 0.97983 0.15831 0.3261 0.0
N1545 N 0.04533 0.07972 0.40219 0.0
H1546 H 0.95574 0.07435 0.3977 0.0
H1547 H 0.98916 0.06249 0.41637 0.0
H1548 H 0.06926 0.08127 0.40348 0.0
H1549 H 0.0362 0.06024 0.41262 0.0
H1550 H 0.98951 0.17573 0.31292 0.0
H1551 H 0.95613 0.15581 0.32299 0.0
H1552 H 0.03666 0.17511 0.31305 0.0
H1553 H 0.06962 0.16179 0.33167 0.0
C1554 C 0.37532 0.48757 0.86973 0.0
C1555 C 0.40307 0.47422 0.88029 0.0
C1556 C 0.42741 0.52574 0.87986 0.0
C1557 C 0.39813 0.5394 0.87583 0.0
N1558 N 0.34447 0.53378 0.86408 0.0
N1559 N 0.45675 0.47942 0.8912 0.0
C1560 C 0.3723 0.52034 0.86911 0.0
C1561 C 0.42971 0.49302 0.88328 0.0
N1562 N 0.35155 0.46859 0.86152 0.0
N1563 N 0.45276 0.54435 0.88143 0.0
H1564 H 0.45875 0.45555 0.8922 0.0
H1565 H 0.47677 0.49131 0.897 0.0
H1566 H 0.45125 0.56814 0.87897 0.0
H1567 H 0.47519 0.53643 0.88292 0.0
H1568 H 0.33098 0.47613 0.85199 0.0
H1569 H 0.35362 0.44473 0.86211 0.0
H1570 H 0.32378 0.52175 0.86251 0.0
H1571 H 0.34215 0.55756 0.86229 0.0
C1572 C 0.01797 0.88083 0.35142 0.0
C1573 C 0.03629 0.90081 0.36982 0.0
C1574 C 0.98883 0.92237 0.39153 0.0
C1575 C 0.97145 0.89777 0.37863 0.0
N1576 N 0.96834 0.85559 0.34333 0.0
N1577 N 0.0394 0.94338 0.40463 0.0
C1578 C 0.98559 0.87819 0.3569 0.0
C1579 C 0.02164 0.92301 0.38845 0.0
N1580 N 0.032 0.86382 0.32929 0.0
N1581 N 0.97365 0.94443 0.40756 0.0
H1582 H 0.06316 0.94476 0.40169 0.0
H1583 H 0.03097 0.9582 0.42127 0.0
H1584 H 0.94974 0.94398 0.4095 0.0
H1585 H 0.98406 0.96407 0.41657 0.0
H1586 H 0.02031 0.84996 0.31358 0.0
H1587 H 0.05556 0.86572 0.32522 0.0
H1588 H 0.97738 0.838 0.33007 0.0
H1589 H 0.94457 0.85419 0.34619 0.0
C1590 C 0.63438 0.49666 0.84379 0.0
C1591 C 0.60967 0.47916 0.85605 0.0
C1592 C 0.5816 0.52725 0.86598 0.0
C1593 C 0.60812 0.54458 0.85813 0.0
N1594 N 0.65409 0.54704 0.82855 0.0
N1595 N 0.55676 0.47696 0.87097 0.0
C1596 C 0.6325 0.52954 0.84301 0.0
C1597 C 0.58207 0.49434 0.86413 0.0
N1598 N 0.66042 0.48192 0.83491 0.0
N1599 N 0.55666 0.54262 0.8767 0.0
H1600 H 0.55693 0.45304 0.86938 0.0
H1601 H 0.53535 0.4859 0.87624 0.0
H1602 H 0.55592 0.5666 0.87638 0.0
H1603 H 0.53712 0.53216 0.88565 0.0
H1604 H 0.68074 0.4932 0.82909 0.0
H1605 H 0.66177 0.458 0.83439 0.0
H1606 H 0.67172 0.53804 0.81533 0.0
H1607 H 0.65242 0.57095 0.82787 0.0
C1608 C 0.98831 0.93053 0.63899 0.0
C1609 C 0.97104 0.90345 0.64504 0.0
C1610 C 0.01924 0.87627 0.6573 0.0
C1611 C 0.03662 0.90207 0.64723 0.0
N1612 N 0.03852 0.95589 0.63581 0.0
N1613 N 0.9689 0.85428 0.66926 0.0
C1614 C 0.02127 0.93007 0.64089 0.0
C1615 C 0.9863 0.87768 0.65771 0.0
N1616 N 0.97285 0.95614 0.62992 0.0
N1617 N 0.0343 0.84985 0.66461 0.0
H1618 H 0.94501 0.85572 0.66998 0.0
H1619 H 0.97782 0.83516 0.68037 0.0
H1620 H 0.05824 0.84881 0.66553 0.0
H1621 H 0.02339 0.82898 0.66896 0.0
H1622 H 0.98324 0.9763 0.62232 0.0
H1623 H 0.94887 0.95687 0.63021 0.0
H1624 H 0.02949 0.97758 0.63198 0.0
H1625 H 0.06247 0.95575 0.63739 0.0
C1626 C 0.58608 0.49102 0.12102 0.0
C1627 C 0.60884 0.47481 0.1377 0.0
C1628 C 0.6324 0.52444 0.15293 0.0
C1629 C 0.61406 0.53977 0.13086 0.0
N1630 N 0.5703 0.5393 0.09736 0.0
N1631 N 0.65129 0.47577 0.17302 0.0
C1632 C 0.58936 0.52357 0.11659 0.0
C1633 C 0.6308 0.49161 0.15538 0.0
N1634 N 0.56191 0.47493 0.10881 0.0
N1635 N 0.6521 0.54149 0.17064 0.0
H1636 H 0.64953 0.45204 0.17604 0.0
H1637 H 0.67011 0.48571 0.18411 0.0
H1638 H 0.65321 0.56538 0.16882 0.0
H1639 H 0.66537 0.5326 0.18841 0.0
H1640 H 0.54346 0.48491 0.09743 0.0
H1641 H 0.55949 0.45129 0.11215 0.0
H1642 H 0.5536 0.5291 0.08347 0.0
H1643 H 0.57175 0.56316 0.09527 0.0
C1644 C 0.99361 0.14532 0.65375 0.0
C1645 C 0.97687 0.11928 0.64318 0.0
C1646 C 0.02584 0.09143 0.6371 0.0
C1647 C 0.04242 0.11922 0.6415 0.0
N1648 N 0.04339 0.17114 0.65942 0.0
N1649 N 0.97624 0.06599 0.62909 0.0
C1650 C 0.02659 0.1455 0.65233 0.0
C1651 C 0.99285 0.0916 0.6369 0.0
N1652 N 0.97766 0.17012 0.66408 0.0
N1653 N 0.04204 0.06519 0.63215 0.0
H1654 H 0.95229 0.06543 0.63021 0.0
H1655 H 0.98577 0.04561 0.62133 0.0
H1656 H 0.06604 0.06522 0.63252 0.0
H1657 H 0.03222 0.04347 0.62983 0.0
H1658 H 0.98775 0.18993 0.67303 0.0
H1659 H 0.95371 0.16995 0.66527 0.0
H1660 H 0.03414 0.1923 0.66515 0.0
H1661 H 0.06734 0.17079 0.65961 0.0
C1662 C 0.4207 0.51925 0.13784 0.0
C1663 C 0.39947 0.53326 0.15807 0.0
C1664 C 0.38077 0.48157 0.17319 0.0
C1665 C 0.39783 0.46834 0.14907 0.0
N1666 N 0.44159 0.47192 0.11645 0.0
N1667 N 0.36313 0.52807 0.19894 0.0
C1668 C 0.42058 0.48647 0.13432 0.0
C1669 C 0.38121 0.5143 0.17751 0.0
N1670 N 0.43925 0.53756 0.12037 0.0
N1671 N 0.36402 0.46249 0.19153 0.0
H1672 H 0.36423 0.5517 0.20298 0.0
H1673 H 0.34734 0.51656 0.21265 0.0
H1674 H 0.36529 0.43867 0.18913 0.0
H1675 H 0.35086 0.46963 0.21001 0.0
H1676 H 0.45298 0.52957 0.10265 0.0
H1677 H 0.44027 0.56133 0.1234 0.0
H1678 H 0.46006 0.48284 0.10589 0.0
H1679 H 0.44168 0.44801 0.11451 0.0
C1680 C 0.37828 0.01697 0.09803 0.0
C1681 C 0.36433 0.03302 0.12271 0.0
C1682 C 0.34037 0.98444 0.13982 0.0
C1683 C 0.35762 0.96783 0.11776 0.0
N1684 N 0.38491 0.96863 0.07024 0.0
N1685 N 0.3245 0.03418 0.16011 0.0
C1686 C 0.37363 0.98439 0.09474 0.0
C1687 C 0.34252 0.01732 0.14104 0.0
N1688 N 0.39765 0.03274 0.07909 0.0
N1689 N 0.32329 0.96843 0.16067 0.0
H1690 H 0.32576 0.05814 0.16035 0.0
H1691 H 0.30682 0.02501 0.17331 0.0
H1692 H 0.32026 0.94467 0.15915 0.0
H1693 H 0.31278 0.97832 0.17961 0.0
H1694 H 0.41131 0.02249 0.06252 0.0
H1695 H 0.40032 0.05654 0.08059 0.0
H1696 H 0.39551 0.97894 0.0515 0.0
H1697 H 0.38125 0.94503 0.06776 0.0
C1698 C 0.48222 0.87533 0.59541 0.0
C1699 C 0.46812 0.8723 0.62461 0.0
C1700 C 0.51954 0.86728 0.64828 0.0
C1701 C 0.53337 0.87665 0.62034 0.0
N1702 N 0.52901 0.88594 0.56638 0.0
N1703 N 0.47282 0.8628 0.67868 0.0
C1704 C 0.51499 0.87875 0.59342 0.0
C1705 C 0.48672 0.8667 0.65089 0.0
N1706 N 0.46398 0.87592 0.56982 0.0
N1707 N 0.53812 0.86022 0.67258 0.0
H1708 H 0.44899 0.86104 0.6808 0.0
H1709 H 0.48452 0.86215 0.69956 0.0
H1710 H 0.56203 0.8608 0.67082 0.0
H1711 H 0.53022 0.8516 0.69338 0.0
H1712 H 0.47227 0.87657 0.54748 0.0
H1713 H 0.44014 0.87349 0.5711 0.0
H1714 H 0.51741 0.89112 0.54613 0.0
H1715 H 0.55292 0.88709 0.56462 0.0
C1716 C 0.63406 0.02403 0.09201 0.0
C1717 C 0.65064 0.04128 0.11429 0.0
C1718 C 0.66757 0.9926 0.13787 0.0
C1719 C 0.64516 0.97624 0.12059 0.0
N1720 N 0.60943 0.97532 0.07846 0.0
N1721 N 0.68648 0.04215 0.15634 0.0
C1722 C 0.62979 0.99157 0.09618 0.0
C1723 C 0.66901 0.02546 0.13613 0.0
N1724 N 0.62195 0.03901 0.06732 0.0
N1725 N 0.68686 0.97641 0.15643 0.0
H1726 H 0.68889 0.06595 0.15445 0.0
H1727 H 0.69782 0.03275 0.17516 0.0
H1728 H 0.68615 0.95244 0.15698 0.0
H1729 H 0.70502 0.98617 0.16876 0.0
H1730 H 0.61107 0.028 0.04899 0.0
H1731 H 0.62526 0.06258 0.06422 0.0
H1732 H 0.59463 0.98527 0.06255 0.0
H1733 H 0.60695 0.95155 0.08049 0.0
C1734 C 0.53137 0.1525 0.63332 0.0
C1735 C 0.54604 0.13775 0.60834 0.0
C1736 C 0.49521 0.12832 0.5843 0.0
C1737 C 0.48067 0.13761 0.61176 0.0
N1738 N 0.48328 0.16524 0.65906 0.0
N1739 N 0.54289 0.11643 0.55759 0.0
C1740 C 0.49841 0.15246 0.63494 0.0
C1741 C 0.52813 0.12776 0.58273 0.0
N1742 N 0.54917 0.16528 0.65596 0.0
N1743 N 0.4771 0.11903 0.56028 0.0
H1744 H 0.56679 0.11711 0.5557 0.0
H1745 H 0.53195 0.10657 0.5387 0.0
H1746 H 0.45316 0.11984 0.56152 0.0
H1747 H 0.48526 0.11229 0.53895 0.0
H1748 H 0.54069 0.1762 0.67532 0.0
H1749 H 0.57311 0.16568 0.65478 0.0
H1750 H 0.49378 0.17541 0.67803 0.0
H1751 H 0.45937 0.16646 0.6591 0.0
C1752 C 0.38819 0.02078 0.9292 0.0
C1753 C 0.38002 0.03597 0.90162 0.0
C1754 C 0.36655 0.98566 0.87835 0.0
C1755 C 0.38029 0.97047 0.90373 0.0
N1756 N 0.39972 0.97261 0.95538 0.0
N1757 N 0.35549 0.03421 0.85246 0.0
C1758 C 0.38915 0.98785 0.93008 0.0
C1759 C 0.36663 0.01866 0.87725 0.0
N1760 N 0.39589 0.03831 0.95412 0.0
N1761 N 0.35459 0.96836 0.85492 0.0
H1762 H 0.35435 0.05812 0.85251 0.0
H1763 H 0.34691 0.02406 0.83256 0.0
H1764 H 0.35423 0.94441 0.85564 0.0
H1765 H 0.34398 0.97725 0.83548 0.0
H1766 H 0.40142 0.02962 0.97565 0.0
H1767 H 0.3948 0.06226 0.95339 0.0
H1768 H 0.40905 0.98321 0.97472 0.0
H1769 H 0.39913 0.94869 0.95687 0.0
C1770 C 0.51909 0.8445 0.37471 0.0
C1771 C 0.53637 0.86538 0.39297 0.0
C1772 C 0.48934 0.87565 0.42302 0.0
C1773 C 0.47122 0.86079 0.4002 0.0
N1774 N 0.46874 0.82777 0.3561 0.0
N1775 N 0.53897 0.89816 0.43721 0.0
C1776 C 0.48622 0.8436 0.37698 0.0
C1777 C 0.52187 0.87946 0.41853 0.0
N1778 N 0.53443 0.82607 0.35475 0.0
N1779 N 0.47515 0.88657 0.44859 0.0
H1780 H 0.56275 0.90026 0.4349 0.0
H1781 H 0.52976 0.91196 0.4543 0.0
H1782 H 0.45161 0.88342 0.452 0.0
H1783 H 0.48673 0.89618 0.46727 0.0
H1784 H 0.52401 0.80894 0.34158 0.0
H1785 H 0.5584 0.82629 0.35381 0.0
H1786 H 0.47749 0.81755 0.33644 0.0
H1787 H 0.44495 0.8256 0.35832 0.0
C1788 C 0.63625 0.03327 0.91252 0.0
C1789 C 0.63873 0.04755 0.88327 0.0
C1790 C 0.64261 0.99616 0.85942 0.0
C1791 C 0.63418 0.98218 0.88764 0.0
N1792 N 0.627 0.98628 0.94188 0.0
N1793 N 0.64736 0.04313 0.82913 0.0
C1794 C 0.63297 1.00047 0.9146 0.0
C1795 C 0.64357 0.02904 0.85688 0.0
N1796 N 0.63622 0.05139 0.93812 0.0
N1797 N 0.64864 0.97767 0.83488 0.0
H1798 H 0.64941 0.06695 0.82711 0.0
H1799 H 0.64788 0.03165 0.80819 0.0
H1800 H 0.64796 0.95376 0.83662 0.0
H1801 H 0.65643 0.98557 0.81376 0.0
H1802 H 0.63586 0.04307 0.96048 0.0
H1803 H 0.63869 0.07522 0.93685 0.0
H1804 H 0.6226 0.99771 0.96234 0.0
H1805 H 0.62627 0.96238 0.94373 0.0
C1806 C 0.49544 0.16733 0.37572 0.0
C1807 C 0.47948 0.14573 0.39407 0.0
C1808 C 0.52794 0.13572 0.42227 0.0
C1809 C 0.54467 0.15142 0.39918 0.0
N1810 N 0.54458 0.18572 0.35608 0.0
N1811 N 0.47922 0.11254 0.43794 0.0
C1812 C 0.52833 0.16893 0.377 0.0
C1813 C 0.4953 0.13159 0.41892 0.0
N1814 N 0.4788 0.18568 0.35661 0.0
N1815 N 0.54357 0.12418 0.44686 0.0
H1816 H 0.45536 0.11026 0.43635 0.0
H1817 H 0.48925 0.09878 0.45467 0.0
H1818 H 0.56727 0.12731 0.44932 0.0
H1819 H 0.53313 0.11381 0.46565 0.0
H1820 H 0.48822 0.20323 0.34339 0.0
H1821 H 0.45481 0.18484 0.3564 0.0
H1822 H 0.5348 0.19639 0.33708 0.0
H1823 H 0.56841 0.1883 0.35762 0.0
C1824 C 0.14122 0.34355 0.99453 0.0
C1825 C 0.12026 0.36224 0.97795 0.0
C1826 C 0.1004 0.382 0.02716 0.0
C1827 C 0.12457 0.36706 0.04317 0.0
N1828 N 0.15967 0.32534 0.04433 0.0
N1829 N 0.0749 0.39294 0.97815 0.0
C1830 C 0.14206 0.34484 0.02742 0.0
C1831 C 0.09783 0.37902 0.99435 0.0
N1832 N 0.16152 0.32602 0.97857 0.0
N1833 N 0.08111 0.40031 0.04347 0.0
H1834 H 0.0729 0.3905 0.95436 0.0
H1835 H 0.05716 0.40535 0.98794 0.0
H1836 H 0.08244 0.40174 0.06738 0.0
H1837 H 0.06392 0.4137 0.03385 0.0
H1838 H 0.17974 0.31436 0.98865 0.0
H1839 H 0.16034 0.32382 0.95472 0.0
H1840 H 0.17223 0.30736 0.03509 0.0
H1841 H 0.15895 0.32563 0.06829 0.0
C1842 C 0.08924 0.6317 0.99464 0.0
C1843 C 0.11698 0.63782 0.97853 0.0
C1844 C 0.14366 0.64579 0.02811 0.0
C1845 C 0.11697 0.63581 0.04408 0.0
N1846 N 0.06249 0.62896 0.04381 0.0
N1847 N 0.16816 0.65841 0.97928 0.0
C1848 C 0.08902 0.63236 0.02759 0.0
C1849 C 0.1433 0.64787 0.9952 0.0
N1850 N 0.06359 0.62352 0.9783 0.0
N1851 N 0.16989 0.65123 0.04463 0.0
H1852 H 0.16803 0.65991 0.95535 0.0
H1853 H 0.18784 0.66763 0.98946 0.0
H1854 H 0.16993 0.65094 0.06859 0.0
H1855 H 0.19131 0.65553 0.03503 0.0
H1856 H 0.04338 0.61542 0.98817 0.0
H1857 H 0.06295 0.62422 0.95435 0.0
H1858 H 0.04071 0.62794 0.03389 0.0
H1859 H 0.06248 0.62973 0.06778 0.0
C1860 C 0.87797 0.58758 0.48526 0.0
C1861 C 0.86999 0.61469 0.46902 0.0
C1862 C 0.85637 0.63878 0.51839 0.0
C1863 C 0.87136 0.61487 0.53449 0.0
N1864 N 0.89183 0.56408 0.53428 0.0
N1865 N 0.84862 0.66529 0.46968 0.0
C1866 C 0.87992 0.58811 0.51814 0.0
C1867 C 0.85748 0.63978 0.48547 0.0
N1868 N 0.88454 0.56171 0.4689 0.0
N1869 N 0.84181 0.66082 0.53495 0.0
H1870 H 0.84836 0.66596 0.44571 0.0
H1871 H 0.84248 0.68584 0.48012 0.0
H1872 H 0.84075 0.65966 0.55888 0.0
H1873 H 0.82878 0.67825 0.5252 0.0
H1874 H 0.88914 0.54048 0.47876 0.0
H1875 H 0.88304 0.56117 0.44497 0.0
H1876 H 0.90178 0.54489 0.52431 0.0
H1877 H 0.89203 0.56394 0.55827 0.0
C1878 C 0.86786 0.36499 0.97122 0.0
C1879 C 0.89254 0.38013 0.95618 0.0
C1880 C 0.91763 0.38921 0.00667 0.0
C1881 C 0.89217 0.37556 0.02181 0.0
N1882 N 0.84725 0.34336 0.01853 0.0
N1883 N 0.94453 0.39881 0.95863 0.0
C1884 C 0.86878 0.36095 1.00393 0.0
C1885 C 0.91867 0.38952 0.97372 0.0
N1886 N 0.84271 0.35614 0.95444 0.0
N1887 N 0.93989 0.40352 0.02378 0.0
H1888 H 0.94581 0.39879 0.93469 0.0
H1889 H 0.96532 0.40377 0.96953 0.0
H1890 H 0.94023 0.40263 0.04772 0.0
H1891 H 0.95712 0.41729 0.01446 0.0
H1892 H 0.82225 0.34844 0.96411 0.0
H1893 H 0.84195 0.3578 0.93055 0.0
H1894 H 0.83085 0.33001 0.00714 0.0
H1895 H 0.84771 0.33998 0.04225 0.0
C1896 C 0.14037 0.42281 0.52824 0.0
C1897 C 0.15922 0.40141 0.54383 0.0
C1898 C 0.17616 0.38134 0.49351 0.0
C1899 C 0.15234 0.39771 0.47866 0.0
N1900 N 0.11476 0.43757 0.4805 0.0
N1901 N 0.19944 0.36423 0.54165 0.0
C1902 C 0.136 0.42022 0.49559 0.0
C1903 C 0.17896 0.38232 0.52639 0.0
N1904 N 0.12625 0.44507 0.54496 0.0
N1905 N 0.19542 0.3643 0.47586 0.0
H1906 H 0.20272 0.36596 0.56536 0.0
H1907 H 0.21287 0.34756 0.53129 0.0
H1908 H 0.19367 0.36439 0.45193 0.0
H1909 H 0.2141 0.35213 0.48429 0.0
H1910 H 0.11324 0.46264 0.53548 0.0
H1911 H 0.12967 0.44709 0.56863 0.0
H1912 H 0.09951 0.45231 0.49125 0.0
H1913 H 0.11225 0.43665 0.45665 0.0
C1914 C 0.86964 0.65651 0.98794 0.0
C1915 C 0.89519 0.64387 0.97242 0.0
C1916 C 0.92241 0.64017 0.02226 0.0
C1917 C 0.89461 0.64647 0.03798 0.0
N1918 N 0.84236 0.66348 0.03625 0.0
N1919 N 0.9475 0.62749 0.97387 0.0
C1920 C 0.86859 0.65625 0.02089 0.0
C1921 C 0.92238 0.63767 0.98938 0.0
N1922 N 0.84604 0.66786 0.97077 0.0
N1923 N 0.94859 0.63585 0.03909 0.0
H1924 H 0.94799 0.62692 0.9499 0.0
H1925 H 0.96731 0.61923 0.98433 0.0
H1926 H 0.94886 0.63774 0.06299 0.0
H1927 H 0.97022 0.63272 0.02962 0.0
H1928 H 0.82707 0.67897 0.97986 0.0
H1929 H 0.84714 0.66833 0.94686 0.0
H1930 H 0.82137 0.66767 0.02559 0.0
H1931 H 0.84158 0.66448 0.06018 0.0
C1932 C 0.84859 0.37953 0.47408 0.0
C1933 C 0.86638 0.40148 0.45762 0.0
C1934 C 0.88737 0.42096 0.50675 0.0
C1935 C 0.87295 0.39633 0.52274 0.0
N1936 N 0.83374 0.35755 0.52358 0.0
N1937 N 0.89377 0.4493 0.45876 0.0
C1938 C 0.85111 0.37771 0.50695 0.0
C1939 C 0.88262 0.42445 0.47427 0.0
N1940 N 0.8303 0.35967 0.45784 0.0
N1941 N 0.90721 0.43972 0.52246 0.0
H1942 H 0.89011 0.45193 0.43519 0.0
H1943 H 0.90423 0.46814 0.46931 0.0
H1944 H 0.90989 0.43822 0.54626 0.0
H1945 H 0.92143 0.45594 0.51209 0.0
H1946 H 0.81858 0.34111 0.46733 0.0
H1947 H 0.82709 0.36195 0.43417 0.0
H1948 H 0.81648 0.34364 0.51438 0.0
H1949 H 0.83547 0.35636 0.54747 0.0
C1950 C 0.14772 0.64591 0.5301 0.0
C1951 C 0.13754 0.62049 0.54786 0.0
C1952 C 0.12928 0.59077 0.50009 0.0
C1953 C 0.13558 0.61744 0.48245 0.0
N1954 N 0.16123 0.66595 0.47956 0.0
N1955 N 0.12648 0.56651 0.55058 0.0
C1956 C 0.14861 0.64345 0.49728 0.0
C1957 C 0.13129 0.59202 0.53299 0.0
N1958 N 0.15482 0.67287 0.5446 0.0
N1959 N 0.11965 0.56488 0.48509 0.0
H1960 H 0.12803 0.56719 0.5745 0.0
H1961 H 0.12309 0.54452 0.54179 0.0
H1962 H 0.11954 0.56362 0.46113 0.0
H1963 H 0.11159 0.54513 0.49588 0.0
H1964 H 0.15916 0.69341 0.53316 0.0
H1965 H 0.15541 0.67475 0.56849 0.0
H1966 H 0.17266 0.68518 0.48826 0.0
H1967 H 0.16279 0.66328 0.45582 0.0
C1968 C 0.27623 0.09598 0.40039 0.0
C1969 C 0.29496 0.12233 0.39389 0.0
C1970 C 0.24743 0.15217 0.38513 0.0
C1971 C 0.22881 0.12645 0.39355 0.0
N1972 N 0.22573 0.07482 0.41273 0.0
N1973 N 0.29781 0.17662 0.3833 0.0
C1974 C 0.24333 0.09855 0.40195 0.0
C1975 C 0.28033 0.15077 0.38747 0.0
N1976 N 0.28995 0.06824 0.40505 0.0
N1977 N 0.23357 0.17762 0.37318 0.0
H1978 H 0.3217 0.17652 0.38269 0.0
H1979 H 0.28878 0.19867 0.38257 0.0
H1980 H 0.20985 0.17922 0.37017 0.0
H1981 H 0.24545 0.19594 0.36339 0.0
H1982 H 0.27804 0.04744 0.40577 0.0
H1983 H 0.31367 0.06574 0.40696 0.0
H1984 H 0.23469 0.05525 0.423 0.0
H1985 H 0.2018 0.07546 0.41311 0.0
C1986 C 0.38588 0.73539 0.88224 0.0
C1987 C 0.39511 0.72254 0.91087 0.0
C1988 C 0.40802 0.77504 0.92916 0.0
C1989 C 0.40271 0.78731 0.89962 0.0
N1990 N 0.38971 0.77831 0.84657 0.0
N1991 N 0.42226 0.73046 0.95877 0.0
C1992 C 0.39254 0.76716 0.87572 0.0
C1993 C 0.40824 0.74259 0.93348 0.0
N1994 N 0.36967 0.71782 0.86176 0.0
N1995 N 0.41283 0.79451 0.95333 0.0
H1996 H 0.4244 0.70689 0.96195 0.0
H1997 H 0.43473 0.74357 0.97459 0.0
H1998 H 0.41195 0.81833 0.95088 0.0
H1999 H 0.41423 0.7871 0.97603 0.0
H2000 H 0.35946 0.72671 0.84203 0.0
H2001 H 0.36445 0.69476 0.86563 0.0
H2002 H 0.38594 0.76436 0.82746 0.0
H2003 H 0.39276 0.80154 0.84144 0.0
C2004 C 0.7358 0.86154 0.38253 0.0
C2005 C 0.72106 0.88828 0.39385 0.0
C2006 C 0.7725 0.912 0.40351 0.0
C2007 C 0.78718 0.88463 0.3937 0.0
N2008 N 0.78296 0.83324 0.37376 0.0
N2009 N 0.72511 0.93829 0.41692 0.0
C2010 C 0.76874 0.85938 0.38335 0.0
C2011 C 0.73947 0.91337 0.40467 0.0
N2012 N 0.71833 0.83886 0.36923 0.0
N2013 N 0.79021 0.93681 0.4116 0.0
H2014 H 0.70128 0.93997 0.41782 0.0
H2015 H 0.7363 0.95641 0.42793 0.0
H2016 H 0.81414 0.9363 0.41198 0.0
H2017 H 0.78164 0.95851 0.41628 0.0
H2018 H 0.72725 0.82037 0.35719 0.0
H2019 H 0.69439 0.83925 0.3687 0.0
H2020 H 0.77179 0.81232 0.37026 0.0
H2021 H 0.80651 0.8324 0.36973 0.0
C2022 C 0.62534 0.25205 0.86083 0.0
C2023 C 0.61635 0.23165 0.88484 0.0
C2024 C 0.60933 0.27631 0.91852 0.0
C2025 C 0.62096 0.29688 0.89565 0.0
N2026 N 0.64574 0.30226 0.84653 0.0
N2027 N 0.60793 0.22434 0.93863 0.0
C2028 C 0.63055 0.28417 0.86713 0.0
C2029 C 0.61117 0.24388 0.91435 0.0
N2030 N 0.62838 0.24076 0.83177 0.0
N2031 N 0.59503 0.28777 0.94386 0.0
H2032 H 0.61008 0.20061 0.93618 0.0
H2033 H 0.60666 0.2318 0.96132 0.0
H2034 H 0.59159 0.31116 0.94715 0.0
H2035 H 0.58353 0.27402 0.95972 0.0
H2036 H 0.63124 0.25469 0.81255 0.0
H2037 H 0.6265 0.21734 0.82686 0.0
H2038 H 0.65611 0.29366 0.82685 0.0
H2039 H 0.65009 0.32553 0.85029 0.0
C2040 C 0.26375 0.88886 0.6507 0.0
C2041 C 0.28506 0.89836 0.62773 0.0
C2042 C 0.24158 0.90747 0.59284 0.0
C2043 C 0.22017 0.89518 0.61446 0.0
N2044 N 0.21278 0.86884 0.66258 0.0
N2045 N 0.29409 0.90876 0.57449 0.0
C2046 C 0.23177 0.88443 0.64312 0.0
C2047 C 0.27383 0.90494 0.59801 0.0
N2048 N 0.27408 0.88442 0.67998 0.0
N2049 N 0.23104 0.92295 0.56771 0.0
H2050 H 0.31773 0.90619 0.57755 0.0
H2051 H 0.28726 0.91106 0.55164 0.0
H2052 H 0.20776 0.92686 0.56401 0.0
H2053 H 0.24536 0.93488 0.5527 0.0
H2054 H 0.25953 0.88113 0.69862 0.0
H2055 H 0.29738 0.8855 0.68567 0.0
H2056 H 0.22058 0.85757 0.68218 0.0
H2057 H 0.18953 0.86521 0.65797 0.0
C2058 C 0.6415 0.7458 0.09339 0.0
C2059 C 0.62382 0.72523 0.11221 0.0
C2060 C 0.59641 0.77147 0.12969 0.0
C2061 C 0.61976 0.79162 0.11812 0.0
N2062 N 0.6694 0.79389 0.09293 0.0
N2063 N 0.58687 0.72272 0.15406 0.0
C2064 C 0.64382 0.77768 0.10121 0.0
C2065 C 0.602 0.7392 0.13214 0.0
N2066 N 0.65453 0.73593 0.06675 0.0
N2067 N 0.56804 0.78247 0.1368 0.0
H2068 H 0.59099 0.69981 0.15892 0.0
H2069 H 0.57265 0.7332 0.17011 0.0
H2070 H 0.56121 0.80472 0.1314 0.0
H2071 H 0.54997 0.76811 0.14344 0.0
H2072 H 0.66608 0.75082 0.05194 0.0
H2073 H 0.64938 0.71473 0.05685 0.0
H2074 H 0.68813 0.7834 0.08253 0.0
H2075 H 0.67366 0.81647 0.09947 0.0
C2076 C 0.77387 0.09895 0.58403 0.0
C2077 C 0.79401 0.11403 0.6053 0.0
C2078 C 0.74875 0.12256 0.63846 0.0
C2079 C 0.72872 0.11064 0.61523 0.0
N2080 N 0.72249 0.09591 0.56252 0.0
N2081 N 0.79873 0.1448 0.65123 0.0
C2082 C 0.74145 0.10164 0.58693 0.0
C2083 C 0.78095 0.12708 0.63223 0.0
N2084 N 0.7858 0.08099 0.5614 0.0
N2085 N 0.73702 0.12929 0.66663 0.0
H2086 H 0.82214 0.14831 0.64773 0.0
H2087 H 0.78982 0.15764 0.66924 0.0
H2088 H 0.71351 0.12814 0.67113 0.0
H2089 H 0.75067 0.13459 0.68567 0.0
H2090 H 0.77227 0.06744 0.54685 0.0
H2091 H 0.80929 0.0769 0.55973 0.0
H2092 H 0.73059 0.09152 0.54048 0.0
H2093 H 0.6988 0.09916 0.56376 0.0
C2094 C 0.36428 0.23306 0.13155 0.0
C2095 C 0.39183 0.2176 0.12373 0.0
C2096 C 0.41786 0.26849 0.11809 0.0
C2097 C 0.38978 0.2839 0.1239 0.0
N2098 N 0.33541 0.28051 0.13425 0.0
N2099 N 0.44413 0.22072 0.10632 0.0
C2100 C 0.36278 0.26599 0.12987 0.0
C2101 C 0.41844 0.23547 0.1163 0.0
N2102 N 0.33997 0.21643 0.14263 0.0
N2103 N 0.44412 0.28543 0.11424 0.0
H2104 H 0.44538 0.1969 0.10473 0.0
H2105 H 0.46332 0.23178 0.0973 0.0
H2106 H 0.44438 0.30936 0.11386 0.0
H2107 H 0.46601 0.27607 0.11339 0.0
H2108 H 0.32068 0.22621 0.15254 0.0
H2109 H 0.3399 0.19255 0.14412 0.0
H2110 H 0.31422 0.26926 0.13385 0.0
H2111 H 0.3336 0.30418 0.13715 0.0
C2112 C 0.12206 0.42274 0.24496 0.0
C2113 C 0.12783 0.39577 0.22716 0.0
C2114 C 0.1374 0.3675 0.27567 0.0
C2115 C 0.12969 0.39383 0.29345 0.0
N2116 N 0.1117 0.4458 0.29489 0.0
N2117 N 0.13783 0.3414 0.22627 0.0
C2118 C 0.12143 0.42132 0.27799 0.0
C2119 C 0.13433 0.36783 0.2428 0.0
N2120 N 0.11716 0.44997 0.23018 0.0
N2121 N 0.14938 0.34246 0.29027 0.0
H2122 H 0.13784 0.34073 0.20239 0.0
H2123 H 0.13858 0.31966 0.23614 0.0
H2124 H 0.15296 0.34167 0.31395 0.0
H2125 H 0.15865 0.32368 0.27893 0.0
H2126 H 0.11687 0.47118 0.24118 0.0
H2127 H 0.11447 0.45158 0.20645 0.0
H2128 H 0.10152 0.4652 0.2855 0.0
H2129 H 0.11233 0.44601 0.3188 0.0
C2130 C 0.1239 0.64294 0.75175 0.0
C2131 C 0.11286 0.62042 0.7305 0.0
C2132 C 0.10388 0.58541 0.77371 0.0
C2133 C 0.11785 0.60641 0.79491 0.0
N2134 N 0.14632 0.65367 0.80202 0.0
N2135 N 0.10021 0.56757 0.72105 0.0
C2136 C 0.12928 0.63487 0.78337 0.0
C2137 C 0.10556 0.59079 0.7415 0.0
N2138 N 0.12879 0.67225 0.74178 0.0
N2139 N 0.08765 0.56074 0.78445 0.0
H2140 H 0.10229 0.57077 0.6974 0.0
H2141 H 0.09722 0.54475 0.72764 0.0
H2142 H 0.08429 0.55699 0.8078 0.0
H2143 H 0.07465 0.54626 0.77033 0.0
H2144 H 0.13335 0.6906 0.75652 0.0
H2145 H 0.12671 0.67832 0.7187 0.0
H2146 H 0.158 0.67302 0.79407 0.0
H2147 H 0.15066 0.64869 0.82501 0.0
C2148 C 0.87518 0.62978 0.24226 0.0
C2149 C 0.89865 0.62039 0.22163 0.0
C2150 C 0.93199 0.61001 0.26601 0.0
C2151 C 0.90994 0.6222 0.2869 0.0
N2152 N 0.86208 0.64909 0.29299 0.0
N2153 N 0.95188 0.60954 0.21407 0.0
C2154 C 0.88187 0.6336 0.27449 0.0
C2155 C 0.92787 0.61331 0.2337 0.0
N2156 N 0.84623 0.63441 0.23111 0.0
N2157 N 0.95644 0.59384 0.27703 0.0
H2158 H 0.94944 0.61271 0.19043 0.0
H2159 H 0.9745 0.60679 0.22148 0.0
H2160 H 0.9594 0.58921 0.3003 0.0
H2161 H 0.97162 0.58206 0.26294 0.0
H2162 H 0.82723 0.63771 0.24514 0.0
H2163 H 0.84114 0.63339 0.20768 0.0
H2164 H 0.84296 0.66073 0.28466 0.0
H2165 H 0.86599 0.65223 0.31639 0.0
C2166 C 0.86942 0.38465 0.76132 0.0
C2167 C 0.88621 0.41065 0.77236 0.0
C2168 C 0.89822 0.42445 0.71835 0.0
C2169 C 0.88367 0.39728 0.7074 0.0
N2170 N 0.85792 0.34957 0.71913 0.0
N2171 N 0.92301 0.45055 0.76104 0.0
C2172 C 0.87029 0.3767 0.72919 0.0
C2173 C 0.90248 0.42904 0.75064 0.0
N2174 N 0.85119 0.36849 0.78107 0.0
N2175 N 0.90765 0.44639 0.698 0.0
H2176 H 0.92745 0.45372 0.78433 0.0
H2177 H 0.93796 0.46262 0.74677 0.0
H2178 H 0.9052 0.44399 0.6743 0.0
H2179 H 0.91536 0.4681 0.70468 0.0
H2180 H 0.83542 0.3518 0.77398 0.0
H2181 H 0.8504 0.37306 0.80452 0.0
H2182 H 0.85143 0.3318 0.73375 0.0
H2183 H 0.85538 0.34436 0.69588 0.0
C2184 C 0.73702 0.90772 0.61878 0.0
C2185 C 0.71918 0.88681 0.63651 0.0
C2186 C 0.76806 0.86551 0.6567 0.0
C2187 C 0.78511 0.88893 0.64137 0.0
N2188 N 0.78389 0.9376 0.61553 0.0
N2189 N 0.71831 0.84832 0.67622 0.0
C2190 C 0.76886 0.91169 0.62496 0.0
C2191 C 0.73487 0.86629 0.6566 0.0
N2192 N 0.72388 0.92283 0.59466 0.0
N2193 N 0.78347 0.84216 0.67063 0.0
H2194 H 0.69436 0.84828 0.67651 0.0
H2195 H 0.72834 0.83519 0.69349 0.0
H2196 H 0.80741 0.84167 0.6718 0.0
H2197 H 0.77259 0.82269 0.6794 0.0
H2198 H 0.73642 0.93638 0.57941 0.0
H2199 H 0.70137 0.91849 0.58758 0.0
H2200 H 0.77264 0.95623 0.60565 0.0
H2201 H 0.80691 0.94182 0.621 0.0
C2202 C 0.62128 0.23702 0.10548 0.0
C2203 C 0.63049 0.22571 0.13467 0.0
C2204 C 0.64147 0.2794 0.1514 0.0
C2205 C 0.63093 0.29059 0.12271 0.0
N2206 N 0.60492 0.2807 0.07485 0.0
N2207 N 0.64633 0.23656 0.18674 0.0
C2208 C 0.61918 0.26944 0.10049 0.0
C2209 C 0.63984 0.24713 0.15793 0.0
N2210 N 0.61436 0.21676 0.08244 0.0
N2211 N 0.65363 0.29962 0.17223 0.0
H2212 H 0.64717 0.21324 0.19187 0.0
H2213 H 0.6495 0.25065 0.20582 0.0
H2214 H 0.65234 0.32334 0.1693 0.0
H2215 H 0.6657 0.29307 0.19181 0.0
H2216 H 0.61053 0.22324 0.05976 0.0
H2217 H 0.61496 0.19303 0.08531 0.0
H2218 H 0.59305 0.26714 0.059 0.0
H2219 H 0.60237 0.30418 0.07098 0.0
C2220 C 0.24521 0.1459 0.64948 0.0
C2221 C 0.22907 0.12388 0.63113 0.0
C2222 C 0.27797 0.11023 0.6066 0.0
C2223 C 0.29473 0.12945 0.62709 0.0
N2224 N 0.29435 0.16295 0.67103 0.0
N2225 N 0.23205 0.07974 0.59797 0.0
C2226 C 0.27834 0.14664 0.6494 0.0
C2227 C 0.24615 0.10449 0.61144 0.0
N2228 N 0.22903 0.16679 0.66607 0.0
N2229 N 0.29242 0.09804 0.58172 0.0
H2230 H 0.20923 0.07386 0.60241 0.0
H2231 H 0.24385 0.0632 0.58549 0.0
H2232 H 0.31526 0.10326 0.57665 0.0
H2233 H 0.28092 0.086 0.5644 0.0
H2234 H 0.23924 0.18544 0.67724 0.0
H2235 H 0.2051 0.16654 0.667 0.0
H2236 H 0.28406 0.17324 0.6899 0.0
H2237 H 0.31828 0.16457 0.67094 0.0
C2238 C 0.35882 0.76338 0.16735 0.0
C2239 C 0.37128 0.78272 0.144 0.0
C2240 C 0.38015 0.73644 0.11237 0.0
C2241 C 0.36969 0.71697 0.13667 0.0
N2242 N 0.35156 0.7119 0.18836 0.0
N2243 N 0.3972 0.78699 0.09555 0.0
C2244 C 0.35988 0.73053 0.16453 0.0
C2245 C 0.38263 0.76901 0.11675 0.0
N2246 N 0.34521 0.77678 0.19207 0.0
N2247 N 0.38717 0.72373 0.08459 0.0
H2248 H 0.39792 0.81088 0.09697 0.0
H2249 H 0.40992 0.7783 0.07738 0.0
H2250 H 0.38777 0.70009 0.08096 0.0
H2251 H 0.39082 0.73647 0.06471 0.0
H2252 H 0.33323 0.76486 0.20894 0.0
H2253 H 0.34364 0.80051 0.19413 0.0
H2254 H 0.34677 0.71976 0.21036 0.0
H2255 H 0.35173 0.688 0.18677 0.0
C2256 C 0.74158 0.12013 0.40534 0.0
C2257 C 0.72904 0.13205 0.37769 0.0
C2258 C 0.78171 0.14719 0.36157 0.0
C2259 C 0.7944 0.1328 0.38794 0.0
N2260 N 0.78654 0.10119 0.43249 0.0
N2261 N 0.73806 0.15292 0.32725 0.0
C2262 C 0.77422 0.11802 0.40907 0.0
C2263 C 0.74945 0.14443 0.35521 0.0
N2264 N 0.72225 0.11068 0.42813 0.0
N2265 N 0.80017 0.16474 0.34322 0.0
H2266 H 0.71464 0.15267 0.32231 0.0
H2267 H 0.75184 0.15839 0.30853 0.0
H2268 H 0.82385 0.16661 0.3465 0.0
H2269 H 0.79177 0.17899 0.32597 0.0
H2270 H 0.72965 0.10452 0.45002 0.0
H2271 H 0.69841 0.1116 0.42609 0.0
H2272 H 0.77368 0.08723 0.44704 0.0
H2273 H 0.81017 0.09891 0.4355 0.0
C2274 C 0.40899 0.27063 0.90915 0.0
C2275 C 0.38968 0.28839 0.88978 0.0
C2276 C 0.36715 0.23968 0.86987 0.0
C2277 C 0.38438 0.22256 0.89177 0.0
N2278 N 0.41508 0.22351 0.93778 0.0
N2279 N 0.34684 0.28952 0.85459 0.0
C2280 C 0.40318 0.23871 0.91309 0.0
C2281 C 0.36773 0.27282 0.87084 0.0
N2282 N 0.43392 0.28409 0.92297 0.0
N2283 N 0.35099 0.22438 0.84764 0.0
H2284 H 0.347 0.31347 0.85451 0.0
H2285 H 0.32828 0.27966 0.84292 0.0
H2286 H 0.3495 0.20046 0.84701 0.0
H2287 H 0.34063 0.2353 0.82906 0.0
H2288 H 0.45034 0.27176 0.93523 0.0
H2289 H 0.44015 0.30688 0.91892 0.0
H2290 H 0.42685 0.23453 0.95561 0.0
H2291 H 0.40984 0.20052 0.94214 0.0
C2292 C 0.23948 0.85126 0.36884 0.0
C2293 C 0.22028 0.87432 0.38147 0.0
C2294 C 0.26659 0.90581 0.39229 0.0
C2295 C 0.28591 0.88178 0.3814 0.0
N2296 N 0.29085 0.82992 0.36379 0.0
N2297 N 0.2154 0.92357 0.40558 0.0
C2298 C 0.2723 0.85395 0.37104 0.0
C2299 C 0.23388 0.90172 0.39307 0.0
N2300 N 0.22598 0.82717 0.35374 0.0
N2301 N 0.27979 0.93296 0.4014 0.0
H2302 H 0.19152 0.92248 0.4038 0.0
H2303 H 0.22335 0.94234 0.41817 0.0
H2304 H 0.30352 0.93583 0.40356 0.0
H2305 H 0.26764 0.95289 0.40599 0.0
H2306 H 0.23809 0.81044 0.3419 0.0
H2307 H 0.20225 0.82592 0.35035 0.0
H2308 H 0.28274 0.80806 0.35826 0.0
H2309 H 0.31468 0.83121 0.36626 0.0
C2310 C 0.60687 0.74574 0.88997 0.0
C2311 C 0.62726 0.72986 0.87043 0.0
C2312 C 0.6477 0.78051 0.8534 0.0
C2313 C 0.62957 0.79575 0.87585 0.0
N2314 N 0.5991 0.79047 0.9216 0.0
N2315 N 0.67014 0.73231 0.8359 0.0
C2316 C 0.61135 0.77754 0.8959 0.0
C2317 C 0.64858 0.74732 0.8527 0.0
N2318 N 0.58235 0.73054 0.9023 0.0
N2319 N 0.66329 0.79753 0.83225 0.0
H2320 H 0.67073 0.7084 0.83447 0.0
H2321 H 0.68831 0.74345 0.82501 0.0
H2322 H 0.66359 0.82148 0.83266 0.0
H2323 H 0.67429 0.78797 0.81338 0.0
H2324 H 0.56519 0.74153 0.91468 0.0
H2325 H 0.57726 0.70776 0.89676 0.0
H2326 H 0.58776 0.77775 0.93841 0.0
H2327 H 0.6038 0.81312 0.92791 0.0
C2328 C 0.90687 0.61509 0.76898 0.0
C2329 C 0.88692 0.63432 0.78591 0.0
C2330 C 0.86496 0.6524 0.73645 0.0
C2331 C 0.88262 0.6304 0.72014 0.0
N2332 N 0.91451 0.58559 0.72265 0.0
N2333 N 0.84388 0.6687 0.7856 0.0
C2334 C 0.90181 0.61026 0.73704 0.0
C2335 C 0.86511 0.6524 0.76958 0.0
N2336 N 0.93145 0.60199 0.78338 0.0
N2337 N 0.84882 0.67385 0.7204 0.0
H2338 H 0.84381 0.66962 0.80953 0.0
H2339 H 0.82534 0.67965 0.77524 0.0
H2340 H 0.84777 0.67395 0.69647 0.0
H2341 H 0.83815 0.6925 0.73072 0.0
H2342 H 0.94841 0.58997 0.77175 0.0
H2343 H 0.93675 0.60628 0.80637 0.0
H2344 H 0.92648 0.56848 0.73424 0.0
H2345 H 0.90982 0.5804 0.69972 0.0
C2346 C 0.85797 0.37141 0.26109 0.0
C2347 C 0.88612 0.38357 0.2726 0.0
C2348 C 0.9028 0.39291 0.21903 0.0
C2349 C 0.87336 0.38442 0.20763 0.0
N2350 N 0.82145 0.36833 0.21888 0.0
N2351 N 0.93283 0.4116 0.26237 0.0
C2352 C 0.85056 0.37444 0.22908 0.0
C2353 C 0.90772 0.396 0.25139 0.0
N2354 N 0.83879 0.35581 0.2804 0.0
N2355 N 0.92633 0.39778 0.19901 0.0
H2356 H 0.9366 0.41503 0.2858 0.0
H2357 H 0.94794 0.42382 0.24841 0.0
H2358 H 0.9238 0.39502 0.17538 0.0
H2359 H 0.94901 0.40133 0.20598 0.0
H2360 H 0.81981 0.34315 0.27281 0.0
H2361 H 0.843 0.35384 0.3039 0.0
H2362 H 0.80286 0.3648 0.23346 0.0
H2363 H 0.81563 0.36846 0.19568 0.0
C2364 C 0.16829 0.35811 0.77926 0.0
C2365 C 0.14929 0.37984 0.79421 0.0
C2366 C 0.13168 0.39828 0.74324 0.0
C2367 C 0.14888 0.37516 0.72836 0.0
N2368 N 0.18388 0.33304 0.73175 0.0
N2369 N 0.11013 0.41821 0.79063 0.0
C2370 C 0.16737 0.35514 0.74638 0.0
C2371 C 0.13017 0.39917 0.7761 0.0
N2372 N 0.18768 0.34075 0.79665 0.0
N2373 N 0.11714 0.41977 0.7257 0.0
H2374 H 0.10847 0.41898 0.81448 0.0
H2375 H 0.09348 0.43112 0.77943 0.0
H2376 H 0.11868 0.41993 0.7018 0.0
H2377 H 0.10609 0.4389 0.73455 0.0
H2378 H 0.20478 0.32683 0.78775 0.0
H2379 H 0.18678 0.34084 0.82056 0.0
H2380 H 0.19505 0.31515 0.74286 0.0
H2381 H 0.18609 0.33269 0.7079 0.0
C2382 C 0.10087 0.60346 0.27907 0.0
C2383 C 0.1211 0.62281 0.29622 0.0
C2384 C 0.14055 0.64373 0.24696 0.0
C2385 C 0.11785 0.62663 0.23041 0.0
N2386 N 0.07142 0.5964 0.23226 0.0
N2387 N 0.15722 0.66504 0.29614 0.0
C2388 C 0.09653 0.60843 0.24705 0.0
C2389 C 0.14023 0.64397 0.28006 0.0
N2390 N 0.08654 0.57932 0.29321 0.0
N2391 N 0.16302 0.65889 0.2312 0.0
H2392 H 0.15777 0.66567 0.32006 0.0
H2393 H 0.16901 0.68314 0.28577 0.0
H2394 H 0.16344 0.65974 0.20727 0.0
H2395 H 0.18214 0.6689 0.24178 0.0
H2396 H 0.07372 0.56279 0.28137 0.0
H2397 H 0.0905 0.57379 0.31618 0.0
H2398 H 0.05356 0.5852 0.24363 0.0
H2399 H 0.0668 0.60085 0.20916 0.0
loop_
_geom_bond_atom_site_label_1
_geom_bond_atom_site_label_2
_geom_bond_distance
_geom_bond_site_symmetry_2
_ccdc_geom_bond_type
Co0 O1 2.216 . S
Co0 O2 2.091 . S
Co0 O4 2.004 . S
Co0 O10 2.021 . S
Co0 O12 2.137 . S
Co0 O13 2.244 . S
O1 Co0 2.216 . S
O1 C8 1.247 . S
O2 Co0 2.091 . S
O2 C8 1.261 . S
C3 O12 1.247 . S
C3 O13 1.272 . S
O4 Co0 2.004 . S
O4 C9 1.259 . S
Co5 O6 2.061 . S
Co5 O11 2.052 . S
Co5 O13 2.135 . S
O6 Co5 2.061 . S
O6 C9 1.235 . S
C7 O10 1.238 . S
C7 O11 1.241 . S
C8 O1 1.247 . S
C8 O2 1.261 . S
C9 O4 1.259 . S
C9 O6 1.235 . S
O10 Co0 2.021 . S
O10 C7 1.238 . S
O11 Co5 2.052 . S
O11 C7 1.241 . S
O12 Co0 2.137 . S
O12 C3 1.247 . S
O13 Co0 2.244 . S
O13 C3 1.272 . S
O13 Co5 2.135 . S
Co14 O15 2.216 . S
Co14 O16 2.091 . S
Co14 O18 2.004 . S
Co14 O24 2.021 . S
Co14 O26 2.137 . S
Co14 O27 2.244 . S
O15 Co14 2.216 . S
O15 C22 1.247 . S
O16 Co14 2.091 . S
O16 C22 1.261 . S
C17 O26 1.247 . S
C17 O27 1.272 . S
O18 Co14 2.004 . S
O18 C23 1.259 . S
Co19 O20 2.061 . S
Co19 O25 2.052 . S
Co19 O27 2.135 . S
O20 Co19 2.061 . S
O20 C23 1.235 . S
C21 O24 1.238 . S
C21 O25 1.241 . S
C22 O15 1.247 . S
C22 O16 1.261 . S
C23 O18 1.259 . S
C23 O20 1.235 . S
O24 Co14 2.021 . S
O24 C21 1.238 . S
O25 Co19 2.052 . S
O25 C21 1.241 . S
O26 Co14 2.137 . S
O26 C17 1.247 . S
O27 Co14 2.244 . S
O27 C17 1.272 . S
O27 Co19 2.135 . S
Co28 O29 2.216 . S
Co28 O30 2.091 . S
Co28 O32 2.004 . S
Co28 O38 2.021 . S
Co28 O40 2.137 . S
Co28 O41 2.244 . S
O29 Co28 2.216 . S
O29 C36 1.247 . S
O30 Co28 2.091 . S
O30 C36 1.261 . S
C31 O40 1.247 . S
C31 O41 1.272 . S
O32 Co28 2.004 . S
O32 C37 1.259 . S
Co33 O34 2.061 . S
Co33 O39 2.052 . S
Co33 O41 2.135 . S
O34 Co33 2.061 . S
O34 C37 1.235 . S
C35 O38 1.238 . S
C35 O39 1.241 . S
C36 O29 1.247 . S
C36 O30 1.261 . S
C37 O32 1.259 . S
C37 O34 1.235 . S
O38 Co28 2.021 . S
O38 C35 1.238 . S
O39 Co33 2.052 . S
O39 C35 1.241 . S
O40 Co28 2.137 . S
O40 C31 1.247 . S
O41 Co28 2.244 . S
O41 C31 1.272 . S
O41 Co33 2.135 . S
Co42 O43 2.216 . S
Co42 O44 2.091 . S
Co42 O46 2.004 . S
Co42 O52 2.021 . S
Co42 O54 2.137 . S
Co42 O55 2.244 . S
O43 Co42 2.216 . S
O43 C50 1.247 . S
O44 Co42 2.091 . S
O44 C50 1.261 . S
C45 O54 1.247 . S
C45 O55 1.272 . S
O46 Co42 2.004 . S
O46 C51 1.259 . S
Co47 O48 2.061 . S
Co47 O53 2.052 . S
Co47 O55 2.135 . S
O48 Co47 2.061 . S
O48 C51 1.235 . S
C49 O52 1.238 . S
C49 O53 1.241 . S
C50 O43 1.247 . S
C50 O44 1.261 . S
C51 O46 1.259 . S
C51 O48 1.235 . S
O52 Co42 2.021 . S
O52 C49 1.238 . S
O53 Co47 2.052 . S
O53 C49 1.241 . S
O54 Co42 2.137 . S
O54 C45 1.247 . S
O55 Co42 2.244 . S
O55 C45 1.272 . S
O55 Co47 2.135 . S
Co56 O57 2.216 . S
Co56 O58 2.091 . S
Co56 O60 2.004 . S
Co56 O66 2.021 . S
Co56 O68 2.137 . S
Co56 O69 2.244 . S
O57 Co56 2.216 . S
O57 C64 1.247 . S
O58 Co56 2.091 . S
O58 C64 1.261 . S
C59 O68 1.247 . S
C59 O69 1.272 . S
O60 Co56 2.004 . S
O60 C65 1.259 . S
Co61 O62 2.061 . S
Co61 O67 2.052 . S
Co61 O69 2.135 . S
O62 Co61 2.061 . S
O62 C65 1.235 . S
C63 O66 1.238 . S
C63 O67 1.241 . S
C64 O57 1.247 . S
C64 O58 1.261 . S
C65 O60 1.259 . S
C65 O62 1.235 . S
O66 Co56 2.021 . S
O66 C63 1.238 . S
O67 Co61 2.052 . S
O67 C63 1.241 . S
O68 Co56 2.137 . S
O68 C59 1.247 . S
O69 Co56 2.244 . S
O69 C59 1.272 . S
O69 Co61 2.135 . S
Co70 O71 2.216 . S
Co70 O72 2.091 . S
Co70 O74 2.004 . S
Co70 O80 2.021 . S
Co70 O82 2.137 . S
Co70 O83 2.244 . S
O71 Co70 2.216 . S
O71 C78 1.247 . S
O72 Co70 2.091 . S
O72 C78 1.261 . S
C73 O82 1.247 . S
C73 O83 1.272 . S
O74 Co70 2.004 . S
O74 C79 1.259 . S
Co75 O76 2.061 . S
Co75 O81 2.052 . S
Co75 O83 2.135 . S
O76 Co75 2.061 . S
O76 C79 1.235 . S
C77 O80 1.238 . S
C77 O81 1.241 . S
C78 O71 1.247 . S
C78 O72 1.261 . S
C79 O74 1.259 . S
C79 O76 1.235 . S
O80 Co70 2.021 . S
O80 C77 1.238 . S
O81 Co75 2.052 . S
O81 C77 1.241 . S
O82 Co70 2.137 . S
O82 C73 1.247 . S
O83 Co70 2.244 . S
O83 C73 1.272 . S
O83 Co75 2.135 . S
Co84 O85 2.216 . S
Co84 O86 2.091 . S
Co84 O88 2.004 . S
Co84 O94 2.021 . S
Co84 O96 2.137 . S
Co84 O97 2.244 . S
O85 Co84 2.216 . S
O85 C92 1.247 . S
O86 Co84 2.091 . S
O86 C92 1.261 . S
C87 O96 1.247 . S
C87 O97 1.272 . S
O88 Co84 2.004 . S
O88 C93 1.259 . S
Co89 O90 2.061 . S
Co89 O95 2.052 . S
Co89 O97 2.135 . S
O90 Co89 2.061 . S
O90 C93 1.235 . S
C91 O94 1.238 . S
C91 O95 1.241 . S
C92 O85 1.247 . S
C92 O86 1.261 . S
C93 O88 1.259 . S
C93 O90 1.235 . S
O94 Co84 2.021 . S
O94 C91 1.238 . S
O95 Co89 2.052 . S
O95 C91 1.241 . S
O96 Co84 2.137 . S
O96 C87 1.247 . S
O97 Co84 2.244 . S
O97 C87 1.272 . S
O97 Co89 2.135 . S
Co98 O99 2.216 . S
Co98 O100 2.091 . S
Co98 O102 2.004 . S
Co98 O108 2.021 . S
Co98 O110 2.137 . S
Co98 O111 2.244 . S
O99 Co98 2.216 . S
O99 C106 1.247 . S
O100 Co98 2.091 . S
O100 C106 1.261 . S
C101 O110 1.247 . S
C101 O111 1.272 . S
O102 Co98 2.004 . S
O102 C107 1.259 . S
Co103 O104 2.061 . S
Co103 O109 2.052 . S
Co103 O111 2.135 . S
O104 Co103 2.061 . S
O104 C107 1.235 . S
C105 O108 1.238 . S
C105 O109 1.241 . S
C106 O99 1.247 . S
C106 O100 1.261 . S
C107 O102 1.259 . S
C107 O104 1.235 . S
O108 Co98 2.021 . S
O108 C105 1.238 . S
O109 Co103 2.052 . S
O109 C105 1.241 . S
O110 Co98 2.137 . S
O110 C101 1.247 . S
O111 Co98 2.244 . S
O111 C101 1.272 . S
O111 Co103 2.135 . S
Co112 O113 2.216 . S
Co112 O114 2.091 . S
Co112 O116 2.004 . S
Co112 O122 2.021 . S
Co112 O124 2.137 . S
Co112 O125 2.244 . S
O113 Co112 2.216 . S
O113 C120 1.247 . S
O114 Co112 2.091 . S
O114 C120 1.261 . S
C115 O124 1.247 . S
C115 O125 1.272 . S
O116 Co112 2.004 . S
O116 C121 1.259 . S
Co117 O118 2.061 . S
Co117 O123 2.052 . S
Co117 O125 2.135 . S
O118 Co117 2.061 . S
O118 C121 1.235 . S
C119 O122 1.238 . S
C119 O123 1.241 . S
C120 O113 1.247 . S
C120 O114 1.261 . S
C121 O116 1.259 . S
C121 O118 1.235 . S
O122 Co112 2.021 . S
O122 C119 1.238 . S
O123 Co117 2.052 . S
O123 C119 1.241 . S
O124 Co112 2.137 . S
O124 C115 1.247 . S
O125 Co112 2.244 . S
O125 C115 1.272 . S
O125 Co117 2.135 . S
Co126 O127 2.216 . S
Co126 O128 2.091 . S
Co126 O130 2.004 . S
Co126 O136 2.021 . S
Co126 O138 2.137 . S
Co126 O139 2.244 . S
O127 Co126 2.216 . S
O127 C134 1.247 . S
O128 Co126 2.091 . S
O128 C134 1.261 . S
C129 O138 1.247 . S
C129 O139 1.272 . S
O130 Co126 2.004 . S
O130 C135 1.259 . S
Co131 O132 2.061 . S
Co131 O137 2.052 . S
Co131 O139 2.135 . S
O132 Co131 2.061 . S
O132 C135 1.235 . S
C133 O136 1.238 . S
C133 O137 1.241 . S
C134 O127 1.247 . S
C134 O128 1.261 . S
C135 O130 1.259 . S
C135 O132 1.235 . S
O136 Co126 2.021 . S
O136 C133 1.238 . S
O137 Co131 2.052 . S
O137 C133 1.241 . S
O138 Co126 2.137 . S
O138 C129 1.247 . S
O139 Co126 2.244 . S
O139 C129 1.272 . S
O139 Co131 2.135 . S
Co140 O141 2.216 . S
Co140 O142 2.091 . S
Co140 O144 2.004 . S
Co140 O150 2.021 . S
Co140 O152 2.137 . S
Co140 O153 2.244 . S
O141 Co140 2.216 . S
O141 C148 1.247 . S
O142 Co140 2.091 . S
O142 C148 1.261 . S
C143 O152 1.247 . S
C143 O153 1.272 . S
O144 Co140 2.004 . S
O144 C149 1.259 . S
Co145 O146 2.061 . S
Co145 O151 2.052 . S
Co145 O153 2.135 . S
O146 Co145 2.061 . S
O146 C149 1.235 . S
C147 O150 1.238 . S
C147 O151 1.241 . S
C148 O141 1.247 . S
C148 O142 1.261 . S
C149 O144 1.259 . S
C149 O146 1.235 . S
O150 Co140 2.021 . S
O150 C147 1.238 . S
O151 Co145 2.052 . S
O151 C147 1.241 . S
O152 Co140 2.137 . S
O152 C143 1.247 . S
O153 Co140 2.244 . S
O153 C143 1.272 . S
O153 Co145 2.135 . S
Co154 O155 2.216 . S
Co154 O156 2.091 . S
Co154 O158 2.004 . S
Co154 O164 2.021 . S
Co154 O166 2.137 . S
Co154 O167 2.244 . S
O155 Co154 2.216 . S
O155 C162 1.247 . S
O156 Co154 2.091 . S
O156 C162 1.261 . S
C157 O166 1.247 . S
C157 O167 1.272 . S
O158 Co154 2.004 . S
O158 C163 1.259 . S
Co159 O160 2.061 . S
Co159 O165 2.052 . S
Co159 O167 2.135 . S
O160 Co159 2.061 . S
O160 C163 1.235 . S
C161 O164 1.238 . S
C161 O165 1.241 . S
C162 O155 1.247 . S
C162 O156 1.261 . S
C163 O158 1.259 . S
C163 O160 1.235 . S
O164 Co154 2.021 . S
O164 C161 1.238 . S
O165 Co159 2.052 . S
O165 C161 1.241 . S
O166 Co154 2.137 . S
O166 C157 1.247 . S
O167 Co154 2.244 . S
O167 C157 1.272 . S
O167 Co159 2.135 . S
Co168 O169 2.216 . S
Co168 O170 2.091 . S
Co168 O172 2.004 . S
Co168 O178 2.021 . S
Co168 O180 2.137 . S
Co168 O181 2.244 . S
O169 Co168 2.216 . S
O169 C176 1.247 . S
O170 Co168 2.091 . S
O170 C176 1.261 . S
C171 O180 1.247 . S
C171 O181 1.272 . S
O172 Co168 2.004 . S
O172 C177 1.259 . S
Co173 O174 2.061 . S
Co173 O179 2.052 . S
Co173 O181 2.135 . S
O174 Co173 2.061 . S
O174 C177 1.235 . S
C175 O178 1.238 . S
C175 O179 1.241 . S
C176 O169 1.247 . S
C176 O170 1.261 . S
C177 O172 1.259 . S
C177 O174 1.235 . S
O178 Co168 2.021 . S
O178 C175 1.238 . S
O179 Co173 2.052 . S
O179 C175 1.241 . S
O180 Co168 2.137 . S
O180 C171 1.247 . S
O181 Co168 2.244 . S
O181 C171 1.272 . S
O181 Co173 2.135 . S
Co182 O183 2.216 . S
Co182 O184 2.091 . S
Co182 O186 2.004 . S
Co182 O192 2.021 . S
Co182 O194 2.137 . S
Co182 O195 2.244 . S
O183 Co182 2.216 . S
O183 C190 1.247 . S
O184 Co182 2.091 . S
O184 C190 1.261 . S
C185 O194 1.247 . S
C185 O195 1.272 . S
O186 Co182 2.004 . S
O186 C191 1.259 . S
Co187 O188 2.061 . S
Co187 O193 2.052 . S
Co187 O195 2.135 . S
O188 Co187 2.061 . S
O188 C191 1.235 . S
C189 O192 1.238 . S
C189 O193 1.241 . S
C190 O183 1.247 . S
C190 O184 1.261 . S
C191 O186 1.259 . S
C191 O188 1.235 . S
O192 Co182 2.021 . S
O192 C189 1.238 . S
O193 Co187 2.052 . S
O193 C189 1.241 . S
O194 Co182 2.137 . S
O194 C185 1.247 . S
O195 Co182 2.244 . S
O195 C185 1.272 . S
O195 Co187 2.135 . S
Co196 O197 2.216 . S
Co196 O198 2.091 . S
Co196 O200 2.004 . S
Co196 O206 2.021 . S
Co196 O208 2.137 . S
Co196 O209 2.244 . S
O197 Co196 2.216 . S
O197 C204 1.247 . S
O198 Co196 2.091 . S
O198 C204 1.261 . S
C199 O208 1.247 . S
C199 O209 1.272 . S
O200 Co196 2.004 . S
O200 C205 1.259 . S
Co201 O202 2.061 . S
Co201 O207 2.052 . S
Co201 O209 2.135 . S
O202 Co201 2.061 . S
O202 C205 1.235 . S
C203 O206 1.238 . S
C203 O207 1.241 . S
C204 O197 1.247 . S
C204 O198 1.261 . S
C205 O200 1.259 . S
C205 O202 1.235 . S
O206 Co196 2.021 . S
O206 C203 1.238 . S
O207 Co201 2.052 . S
O207 C203 1.241 . S
O208 Co196 2.137 . S
O208 C199 1.247 . S
O209 Co196 2.244 . S
O209 C199 1.272 . S
O209 Co201 2.135 . S
Co210 O211 2.216 . S
Co210 O212 2.091 . S
Co210 O214 2.004 . S
Co210 O220 2.021 . S
Co210 O222 2.137 . S
Co210 O223 2.244 . S
O211 Co210 2.216 . S
O211 C218 1.247 . S
O212 Co210 2.091 . S
O212 C218 1.261 . S
C213 O222 1.247 . S
C213 O223 1.272 . S
O214 Co210 2.004 . S
O214 C219 1.259 . S
Co215 O216 2.061 . S
Co215 O221 2.052 . S
Co215 O223 2.135 . S
O216 Co215 2.061 . S
O216 C219 1.235 . S
C217 O220 1.238 . S
C217 O221 1.241 . S
C218 O211 1.247 . S
C218 O212 1.261 . S
C219 O214 1.259 . S
C219 O216 1.235 . S
O220 Co210 2.021 . S
O220 C217 1.238 . S
O221 Co215 2.052 . S
O221 C217 1.241 . S
O222 Co210 2.137 . S
O222 C213 1.247 . S
O223 Co210 2.244 . S
O223 C213 1.272 . S
O223 Co215 2.135 . S
Co224 O225 2.216 . S
Co224 O226 2.091 . S
Co224 O228 2.004 . S
Co224 O234 2.021 . S
Co224 O236 2.137 . S
Co224 O237 2.244 . S
O225 Co224 2.216 . S
O225 C232 1.247 . S
O226 Co224 2.091 . S
O226 C232 1.261 . S
C227 O236 1.247 . S
C227 O237 1.272 . S
O228 Co224 2.004 . S
O228 C233 1.259 . S
Co229 O230 2.061 . S
Co229 O235 2.052 . S
Co229 O237 2.135 . S
O230 Co229 2.061 . S
O230 C233 1.235 . S
C231 O234 1.238 . S
C231 O235 1.241 . S
C232 O225 1.247 . S
C232 O226 1.261 . S
C233 O228 1.259 . S
C233 O230 1.235 . S
O234 Co224 2.021 . S
O234 C231 1.238 . S
O235 Co229 2.052 . S
O235 C231 1.241 . S
O236 Co224 2.137 . S
O236 C227 1.247 . S
O237 Co224 2.244 . S
O237 C227 1.272 . S
O237 Co229 2.135 . S
Co238 O239 2.216 . S
Co238 O240 2.091 . S
Co238 O242 2.004 . S
Co238 O248 2.021 . S
Co238 O250 2.137 . S
Co238 O251 2.244 . S
O239 Co238 2.216 . S
O239 C246 1.247 . S
O240 Co238 2.091 . S
O240 C246 1.261 . S
C241 O250 1.247 . S
C241 O251 1.272 . S
O242 Co238 2.004 . S
O242 C247 1.259 . S
Co243 O244 2.061 . S
Co243 O249 2.052 . S
Co243 O251 2.135 . S
O244 Co243 2.061 . S
O244 C247 1.235 . S
C245 O248 1.238 . S
C245 O249 1.241 . S
C246 O239 1.247 . S
C246 O240 1.261 . S
C247 O242 1.259 . S
C247 O244 1.235 . S
O248 Co238 2.021 . S
O248 C245 1.238 . S
O249 Co243 2.052 . S
O249 C245 1.241 . S
O250 Co238 2.137 . S
O250 C241 1.247 . S
O251 Co238 2.244 . S
O251 C241 1.272 . S
O251 Co243 2.135 . S
Co252 O253 2.216 . S
Co252 O254 2.091 . S
Co252 O256 2.004 . S
Co252 O262 2.021 . S
Co252 O264 2.137 . S
Co252 O265 2.244 . S
O253 Co252 2.216 . S
O253 C260 1.247 . S
O254 Co252 2.091 . S
O254 C260 1.261 . S
C255 O264 1.247 . S
C255 O265 1.272 . S
O256 Co252 2.004 . S
O256 C261 1.259 . S
Co257 O258 2.061 . S
Co257 O263 2.052 . S
Co257 O265 2.135 . S
O258 Co257 2.061 . S
O258 C261 1.235 . S
C259 O262 1.238 . S
C259 O263 1.241 . S
C260 O253 1.247 . S
C260 O254 1.261 . S
C261 O256 1.259 . S
C261 O258 1.235 . S
O262 Co252 2.021 . S
O262 C259 1.238 . S
O263 Co257 2.052 . S
O263 C259 1.241 . S
O264 Co252 2.137 . S
O264 C255 1.247 . S
O265 Co252 2.244 . S
O265 C255 1.272 . S
O265 Co257 2.135 . S
Co266 O267 2.216 . S
Co266 O268 2.091 . S
Co266 O270 2.004 . S
Co266 O276 2.021 . S
Co266 O278 2.137 . S
Co266 O279 2.244 . S
O267 Co266 2.216 . S
O267 C274 1.247 . S
O268 Co266 2.091 . S
O268 C274 1.261 . S
C269 O278 1.247 . S
C269 O279 1.272 . S
O270 Co266 2.004 . S
O270 C275 1.259 . S
Co271 O272 2.061 . S
Co271 O277 2.052 . S
Co271 O279 2.135 . S
O272 Co271 2.061 . S
O272 C275 1.235 . S
C273 O276 1.238 . S
C273 O277 1.241 . S
C274 O267 1.247 . S
C274 O268 1.261 . S
C275 O270 1.259 . S
C275 O272 1.235 . S
O276 Co266 2.021 . S
O276 C273 1.238 . S
O277 Co271 2.052 . S
O277 C273 1.241 . S
O278 Co266 2.137 . S
O278 C269 1.247 . S
O279 Co266 2.244 . S
O279 C269 1.272 . S
O279 Co271 2.135 . S
Co280 O281 2.216 . S
Co280 O282 2.091 . S
Co280 O284 2.004 . S
Co280 O290 2.021 . S
Co280 O292 2.137 . S
Co280 O293 2.244 . S
O281 Co280 2.216 . S
O281 C288 1.247 . S
O282 Co280 2.091 . S
O282 C288 1.261 . S
C283 O292 1.247 . S
C283 O293 1.272 . S
O284 Co280 2.004 . S
O284 C289 1.259 . S
Co285 O286 2.061 . S
Co285 O291 2.052 . S
Co285 O293 2.135 . S
O286 Co285 2.061 . S
O286 C289 1.235 . S
C287 O290 1.238 . S
C287 O291 1.241 . S
C288 O281 1.247 . S
C288 O282 1.261 . S
C289 O284 1.259 . S
C289 O286 1.235 . S
O290 Co280 2.021 . S
O290 C287 1.238 . S
O291 Co285 2.052 . S
O291 C287 1.241 . S
O292 Co280 2.137 . S
O292 C283 1.247 . S
O293 Co280 2.244 . S
O293 C283 1.272 . S
O293 Co285 2.135 . S
Co294 O295 2.216 . S
Co294 O296 2.091 . S
Co294 O298 2.004 . S
Co294 O304 2.021 . S
Co294 O306 2.137 . S
Co294 O307 2.244 . S
O295 Co294 2.216 . S
O295 C302 1.247 . S
O296 Co294 2.091 . S
O296 C302 1.261 . S
C297 O306 1.247 . S
C297 O307 1.272 . S
O298 Co294 2.004 . S
O298 C303 1.259 . S
Co299 O300 2.061 . S
Co299 O305 2.052 . S
Co299 O307 2.135 . S
O300 Co299 2.061 . S
O300 C303 1.235 . S
C301 O304 1.238 . S
C301 O305 1.241 . S
C302 O295 1.247 . S
C302 O296 1.261 . S
C303 O298 1.259 . S
C303 O300 1.235 . S
O304 Co294 2.021 . S
O304 C301 1.238 . S
O305 Co299 2.052 . S
O305 C301 1.241 . S
O306 Co294 2.137 . S
O306 C297 1.247 . S
O307 Co294 2.244 . S
O307 C297 1.272 . S
O307 Co299 2.135 . S
Co308 O309 2.216 . S
Co308 O310 2.091 . S
Co308 O312 2.004 . S
Co308 O318 2.021 . S
Co308 O320 2.137 . S
Co308 O321 2.244 . S
O309 Co308 2.216 . S
O309 C316 1.247 . S
O310 Co308 2.091 . S
O310 C316 1.261 . S
C311 O320 1.247 . S
C311 O321 1.272 . S
O312 Co308 2.004 . S
O312 C317 1.259 . S
Co313 O314 2.061 . S
Co313 O319 2.052 . S
Co313 O321 2.135 . S
O314 Co313 2.061 . S
O314 C317 1.235 . S
C315 O318 1.238 . S
C315 O319 1.241 . S
C316 O309 1.247 . S
C316 O310 1.261 . S
C317 O312 1.259 . S
C317 O314 1.235 . S
O318 Co308 2.021 . S
O318 C315 1.238 . S
O319 Co313 2.052 . S
O319 C315 1.241 . S
O320 Co308 2.137 . S
O320 C311 1.247 . S
O321 Co308 2.244 . S
O321 C311 1.272 . S
O321 Co313 2.135 . S
Co322 O323 2.216 . S
Co322 O324 2.091 . S
Co322 O326 2.004 . S
Co322 O332 2.021 . S
Co322 O334 2.137 . S
Co322 O335 2.244 . S
O323 Co322 2.216 . S
O323 C330 1.247 . S
O324 Co322 2.091 . S
O324 C330 1.261 . S
C325 O334 1.247 . S
C325 O335 1.272 . S
O326 Co322 2.004 . S
O326 C331 1.259 . S
Co327 O328 2.061 . S
Co327 O333 2.052 . S
Co327 O335 2.135 . S
O328 Co327 2.061 . S
O328 C331 1.235 . S
C329 O332 1.238 . S
C329 O333 1.241 . S
C330 O323 1.247 . S
C330 O324 1.261 . S
C331 O326 1.259 . S
C331 O328 1.235 . S
O332 Co322 2.021 . S
O332 C329 1.238 . S
O333 Co327 2.052 . S
O333 C329 1.241 . S
O334 Co322 2.137 . S
O334 C325 1.247 . S
O335 Co322 2.244 . S
O335 C325 1.272 . S
O335 Co327 2.135 . S
Co336 O337 2.216 . S
Co336 O338 2.091 . S
Co336 O340 2.004 . S
Co336 O346 2.021 . S
Co336 O348 2.137 . S
Co336 O349 2.244 . S
O337 Co336 2.216 . S
O337 C344 1.247 . S
O338 Co336 2.091 . S
O338 C344 1.261 . S
C339 O348 1.247 . S
C339 O349 1.272 . S
O340 Co336 2.004 . S
O340 C345 1.259 . S
Co341 O342 2.061 . S
Co341 O347 2.052 . S
Co341 O349 2.135 . S
O342 Co341 2.061 . S
O342 C345 1.235 . S
C343 O346 1.238 . S
C343 O347 1.241 . S
C344 O337 1.247 . S
C344 O338 1.261 . S
C345 O340 1.259 . S
C345 O342 1.235 . S
O346 Co336 2.021 . S
O346 C343 1.238 . S
O347 Co341 2.052 . S
O347 C343 1.241 . S
O348 Co336 2.137 . S
O348 C339 1.247 . S
O349 Co336 2.244 . S
O349 C339 1.272 . S
O349 Co341 2.135 . S
Co350 O351 2.216 . S
Co350 O352 2.091 . S
Co350 O354 2.004 . S
Co350 O360 2.021 . S
Co350 O362 2.137 . S
Co350 O363 2.244 . S
O351 Co350 2.216 . S
O351 C358 1.247 . S
O352 Co350 2.091 . S
O352 C358 1.261 . S
C353 O362 1.247 . S
C353 O363 1.272 . S
O354 Co350 2.004 . S
O354 C359 1.259 . S
Co355 O356 2.061 . S
Co355 O361 2.052 . S
Co355 O363 2.135 . S
O356 Co355 2.061 . S
O356 C359 1.235 . S
C357 O360 1.238 . S
C357 O361 1.241 . S
C358 O351 1.247 . S
C358 O352 1.261 . S
C359 O354 1.259 . S
C359 O356 1.235 . S
O360 Co350 2.021 . S
O360 C357 1.238 . S
O361 Co355 2.052 . S
O361 C357 1.241 . S
O362 Co350 2.137 . S
O362 C353 1.247 . S
O363 Co350 2.244 . S
O363 C353 1.272 . S
O363 Co355 2.135 . S
Co364 O365 2.216 . S
Co364 O366 2.091 . S
Co364 O368 2.004 . S
Co364 O374 2.021 . S
Co364 O376 2.137 . S
Co364 O377 2.244 . S
O365 Co364 2.216 . S
O365 C372 1.247 . S
O366 Co364 2.091 . S
O366 C372 1.261 . S
C367 O376 1.247 . S
C367 O377 1.272 . S
O368 Co364 2.004 . S
O368 C373 1.259 . S
Co369 O370 2.061 . S
Co369 O375 2.052 . S
Co369 O377 2.135 . S
O370 Co369 2.061 . S
O370 C373 1.235 . S
C371 O374 1.238 . S
C371 O375 1.241 . S
C372 O365 1.247 . S
C372 O366 1.261 . S
C373 O368 1.259 . S
C373 O370 1.235 . S
O374 Co364 2.021 . S
O374 C371 1.238 . S
O375 Co369 2.052 . S
O375 C371 1.241 . S
O376 Co364 2.137 . S
O376 C367 1.247 . S
O377 Co364 2.244 . S
O377 C367 1.272 . S
O377 Co369 2.135 . S
Co378 O379 2.216 . S
Co378 O380 2.091 . S
Co378 O382 2.004 . S
Co378 O388 2.021 . S
Co378 O390 2.137 . S
Co378 O391 2.244 . S
O379 Co378 2.216 . S
O379 C386 1.247 . S
O380 Co378 2.091 . S
O380 C386 1.261 . S
C381 O390 1.247 . S
C381 O391 1.272 . S
O382 Co378 2.004 . S
O382 C387 1.259 . S
Co383 O384 2.061 . S
Co383 O389 2.052 . S
Co383 O391 2.135 . S
O384 Co383 2.061 . S
O384 C387 1.235 . S
C385 O388 1.238 . S
C385 O389 1.241 . S
C386 O379 1.247 . S
C386 O380 1.261 . S
C387 O382 1.259 . S
C387 O384 1.235 . S
O388 Co378 2.021 . S
O388 C385 1.238 . S
O389 Co383 2.052 . S
O389 C385 1.241 . S
O390 Co378 2.137 . S
O390 C381 1.247 . S
O391 Co378 2.244 . S
O391 C381 1.272 . S
O391 Co383 2.135 . S
Co392 O393 2.216 . S
Co392 O394 2.091 . S
Co392 O396 2.004 . S
Co392 O402 2.021 . S
Co392 O404 2.137 . S
Co392 O405 2.244 . S
O393 Co392 2.216 . S
O393 C400 1.247 . S
O394 Co392 2.091 . S
O394 C400 1.261 . S
C395 O404 1.247 . S
C395 O405 1.272 . S
O396 Co392 2.004 . S
O396 C401 1.259 . S
Co397 O398 2.061 . S
Co397 O403 2.052 . S
Co397 O405 2.135 . S
O398 Co397 2.061 . S
O398 C401 1.235 . S
C399 O402 1.238 . S
C399 O403 1.241 . S
C400 O393 1.247 . S
C400 O394 1.261 . S
C401 O396 1.259 . S
C401 O398 1.235 . S
O402 Co392 2.021 . S
O402 C399 1.238 . S
O403 Co397 2.052 . S
O403 C399 1.241 . S
O404 Co392 2.137 . S
O404 C395 1.247 . S
O405 Co392 2.244 . S
O405 C395 1.272 . S
O405 Co397 2.135 . S
Co406 O407 2.216 . S
Co406 O408 2.091 . S
Co406 O410 2.004 . S
Co406 O416 2.021 . S
Co406 O418 2.137 . S
Co406 O419 2.244 . S
O407 Co406 2.216 . S
O407 C414 1.247 . S
O408 Co406 2.091 . S
O408 C414 1.261 . S
C409 O418 1.247 . S
C409 O419 1.272 . S
O410 Co406 2.004 . S
O410 C415 1.259 . S
Co411 O412 2.061 . S
Co411 O417 2.052 . S
Co411 O419 2.135 . S
O412 Co411 2.061 . S
O412 C415 1.235 . S
C413 O416 1.238 . S
C413 O417 1.241 . S
C414 O407 1.247 . S
C414 O408 1.261 . S
C415 O410 1.259 . S
C415 O412 1.235 . S
O416 Co406 2.021 . S
O416 C413 1.238 . S
O417 Co411 2.052 . S
O417 C413 1.241 . S
O418 Co406 2.137 . S
O418 C409 1.247 . S
O419 Co406 2.244 . S
O419 C409 1.272 . S
O419 Co411 2.135 . S
Co420 O421 2.216 . S
Co420 O422 2.091 . S
Co420 O424 2.004 . S
Co420 O430 2.021 . S
Co420 O432 2.137 . S
Co420 O433 2.244 . S
O421 Co420 2.216 . S
O421 C428 1.247 . S
O422 Co420 2.091 . S
O422 C428 1.261 . S
C423 O432 1.247 . S
C423 O433 1.272 . S
O424 Co420 2.004 . S
O424 C429 1.259 . S
Co425 O426 2.061 . S
Co425 O431 2.052 . S
Co425 O433 2.135 . S
O426 Co425 2.061 . S
O426 C429 1.235 . S
C427 O430 1.238 . S
C427 O431 1.241 . S
C428 O421 1.247 . S
C428 O422 1.261 . S
C429 O424 1.259 . S
C429 O426 1.235 . S
O430 Co420 2.021 . S
O430 C427 1.238 . S
O431 Co425 2.052 . S
O431 C427 1.241 . S
O432 Co420 2.137 . S
O432 C423 1.247 . S
O433 Co420 2.244 . S
O433 C423 1.272 . S
O433 Co425 2.135 . S
Co434 O435 2.216 . S
Co434 O436 2.091 . S
Co434 O438 2.004 . S
Co434 O444 2.021 . S
Co434 O446 2.137 . S
Co434 O447 2.244 . S
O435 Co434 2.216 . S
O435 C442 1.247 . S
O436 Co434 2.091 . S
O436 C442 1.261 . S
C437 O446 1.247 . S
C437 O447 1.272 . S
O438 Co434 2.004 . S
O438 C443 1.259 . S
Co439 O440 2.061 . S
Co439 O445 2.052 . S
Co439 O447 2.135 . S
O440 Co439 2.061 . S
O440 C443 1.235 . S
C441 O444 1.238 . S
C441 O445 1.241 . S
C442 O435 1.247 . S
C442 O436 1.261 . S
C443 O438 1.259 . S
C443 O440 1.235 . S
O444 Co434 2.021 . S
O444 C441 1.238 . S
O445 Co439 2.052 . S
O445 C441 1.241 . S
O446 Co434 2.137 . S
O446 C437 1.247 . S
O447 Co434 2.244 . S
O447 C437 1.272 . S
O447 Co439 2.135 . S
Co448 O449 2.216 . S
Co448 O450 2.091 . S
Co448 O452 2.004 . S
Co448 O458 2.021 . S
Co448 O460 2.137 . S
Co448 O461 2.244 . S
O449 Co448 2.216 . S
O449 C456 1.247 . S
O450 Co448 2.091 . S
O450 C456 1.261 . S
C451 O460 1.247 . S
C451 O461 1.272 . S
O452 Co448 2.004 . S
O452 C457 1.259 . S
Co453 O454 2.061 . S
Co453 O459 2.052 . S
Co453 O461 2.135 . S
O454 Co453 2.061 . S
O454 C457 1.235 . S
C455 O458 1.238 . S
C455 O459 1.241 . S
C456 O449 1.247 . S
C456 O450 1.261 . S
C457 O452 1.259 . S
C457 O454 1.235 . S
O458 Co448 2.021 . S
O458 C455 1.238 . S
O459 Co453 2.052 . S
O459 C455 1.241 . S
O460 Co448 2.137 . S
O460 C451 1.247 . S
O461 Co448 2.244 . S
O461 C451 1.272 . S
O461 Co453 2.135 . S
Co462 O463 2.216 . S
Co462 O464 2.091 . S
Co462 O466 2.004 . S
Co462 O472 2.021 . S
Co462 O474 2.137 . S
Co462 O475 2.244 . S
O463 Co462 2.216 . S
O463 C470 1.247 . S
O464 Co462 2.091 . S
O464 C470 1.261 . S
C465 O474 1.247 . S
C465 O475 1.272 . S
O466 Co462 2.004 . S
O466 C471 1.259 . S
Co467 O468 2.061 . S
Co467 O473 2.052 . S
Co467 O475 2.135 . S
O468 Co467 2.061 . S
O468 C471 1.235 . S
C469 O472 1.238 . S
C469 O473 1.241 . S
C470 O463 1.247 . S
C470 O464 1.261 . S
C471 O466 1.259 . S
C471 O468 1.235 . S
O472 Co462 2.021 . S
O472 C469 1.238 . S
O473 Co467 2.052 . S
O473 C469 1.241 . S
O474 Co462 2.137 . S
O474 C465 1.247 . S
O475 Co462 2.244 . S
O475 C465 1.272 . S
O475 Co467 2.135 . S
Co476 O477 2.216 . S
Co476 O478 2.091 . S
Co476 O480 2.004 . S
Co476 O486 2.021 . S
Co476 O488 2.137 . S
Co476 O489 2.244 . S
O477 Co476 2.216 . S
O477 C484 1.247 . S
O478 Co476 2.091 . S
O478 C484 1.261 . S
C479 O488 1.247 . S
C479 O489 1.272 . S
O480 Co476 2.004 . S
O480 C485 1.259 . S
Co481 O482 2.061 . S
Co481 O487 2.052 . S
Co481 O489 2.135 . S
O482 Co481 2.061 . S
O482 C485 1.235 . S
C483 O486 1.238 . S
C483 O487 1.241 . S
C484 O477 1.247 . S
C484 O478 1.261 . S
C485 O480 1.259 . S
C485 O482 1.235 . S
O486 Co476 2.021 . S
O486 C483 1.238 . S
O487 Co481 2.052 . S
O487 C483 1.241 . S
O488 Co476 2.137 . S
O488 C479 1.247 . S
O489 Co476 2.244 . S
O489 C479 1.272 . S
O489 Co481 2.135 . S
Co490 O491 2.216 . S
Co490 O492 2.091 . S
Co490 O494 2.004 . S
Co490 O500 2.021 . S
Co490 O502 2.137 . S
Co490 O503 2.244 . S
O491 Co490 2.216 . S
O491 C498 1.247 . S
O492 Co490 2.091 . S
O492 C498 1.261 . S
C493 O502 1.247 . S
C493 O503 1.272 . S
O494 Co490 2.004 . S
O494 C499 1.259 . S
Co495 O496 2.061 . S
Co495 O501 2.052 . S
Co495 O503 2.135 . S
O496 Co495 2.061 . S
O496 C499 1.235 . S
C497 O500 1.238 . S
C497 O501 1.241 . S
C498 O491 1.247 . S
C498 O492 1.261 . S
C499 O494 1.259 . S
C499 O496 1.235 . S
O500 Co490 2.021 . S
O500 C497 1.238 . S
O501 Co495 2.052 . S
O501 C497 1.241 . S
O502 Co490 2.137 . S
O502 C493 1.247 . S
O503 Co490 2.244 . S
O503 C493 1.272 . S
O503 Co495 2.135 . S
Co504 O505 2.216 . S
Co504 O506 2.091 . S
Co504 O508 2.004 . S
Co504 O514 2.021 . S
Co504 O516 2.137 . S
Co504 O517 2.244 . S
O505 Co504 2.216 . S
O505 C512 1.247 . S
O506 Co504 2.091 . S
O506 C512 1.261 . S
C507 O516 1.247 . S
C507 O517 1.272 . S
O508 Co504 2.004 . S
O508 C513 1.259 . S
Co509 O510 2.061 . S
Co509 O515 2.052 . S
Co509 O517 2.135 . S
O510 Co509 2.061 . S
O510 C513 1.235 . S
C511 O514 1.238 . S
C511 O515 1.241 . S
C512 O505 1.247 . S
C512 O506 1.261 . S
C513 O508 1.259 . S
C513 O510 1.235 . S
O514 Co504 2.021 . S
O514 C511 1.238 . S
O515 Co509 2.052 . S
O515 C511 1.241 . S
O516 Co504 2.137 . S
O516 C507 1.247 . S
O517 Co504 2.244 . S
O517 C507 1.272 . S
O517 Co509 2.135 . S
Co518 O519 2.216 . S
Co518 O520 2.091 . S
Co518 O522 2.004 . S
Co518 O528 2.021 . S
Co518 O530 2.137 . S
Co518 O531 2.244 . S
O519 Co518 2.216 . S
O519 C526 1.247 . S
O520 Co518 2.091 . S
O520 C526 1.261 . S
C521 O530 1.247 . S
C521 O531 1.272 . S
O522 Co518 2.004 . S
O522 C527 1.259 . S
Co523 O524 2.061 . S
Co523 O529 2.052 . S
Co523 O531 2.135 . S
O524 Co523 2.061 . S
O524 C527 1.235 . S
C525 O528 1.238 . S
C525 O529 1.241 . S
C526 O519 1.247 . S
C526 O520 1.261 . S
C527 O522 1.259 . S
C527 O524 1.235 . S
O528 Co518 2.021 . S
O528 C525 1.238 . S
O529 Co523 2.052 . S
O529 C525 1.241 . S
O530 Co518 2.137 . S
O530 C521 1.247 . S
O531 Co518 2.244 . S
O531 C521 1.272 . S
O531 Co523 2.135 . S
Co532 O533 2.216 . S
Co532 O534 2.091 . S
Co532 O536 2.004 . S
Co532 O542 2.021 . S
Co532 O544 2.137 . S
Co532 O545 2.244 . S
O533 Co532 2.216 . S
O533 C540 1.247 . S
O534 Co532 2.091 . S
O534 C540 1.261 . S
C535 O544 1.247 . S
C535 O545 1.272 . S
O536 Co532 2.004 . S
O536 C541 1.259 . S
Co537 O538 2.061 . S
Co537 O543 2.052 . S
Co537 O545 2.135 . S
O538 Co537 2.061 . S
O538 C541 1.235 . S
C539 O542 1.238 . S
C539 O543 1.241 . S
C540 O533 1.247 . S
C540 O534 1.261 . S
C541 O536 1.259 . S
C541 O538 1.235 . S
O542 Co532 2.021 . S
O542 C539 1.238 . S
O543 Co537 2.052 . S
O543 C539 1.241 . S
O544 Co532 2.137 . S
O544 C535 1.247 . S
O545 Co532 2.244 . S
O545 C535 1.272 . S
O545 Co537 2.135 . S
Co546 O547 2.216 . S
Co546 O548 2.091 . S
Co546 O550 2.004 . S
Co546 O556 2.021 . S
Co546 O558 2.137 . S
Co546 O559 2.244 . S
O547 Co546 2.216 . S
O547 C554 1.247 . S
O548 Co546 2.091 . S
O548 C554 1.261 . S
C549 O558 1.247 . S
C549 O559 1.272 . S
O550 Co546 2.004 . S
O550 C555 1.259 . S
Co551 O552 2.061 . S
Co551 O557 2.052 . S
Co551 O559 2.135 . S
O552 Co551 2.061 . S
O552 C555 1.235 . S
C553 O556 1.238 . S
C553 O557 1.241 . S
C554 O547 1.247 . S
C554 O548 1.261 . S
C555 O550 1.259 . S
C555 O552 1.235 . S
O556 Co546 2.021 . S
O556 C553 1.238 . S
O557 Co551 2.052 . S
O557 C553 1.241 . S
O558 Co546 2.137 . S
O558 C549 1.247 . S
O559 Co546 2.244 . S
O559 C549 1.272 . S
O559 Co551 2.135 . S
Co560 O561 2.216 . S
Co560 O562 2.091 . S
Co560 O564 2.004 . S
Co560 O570 2.021 . S
Co560 O572 2.137 . S
Co560 O573 2.244 . S
O561 Co560 2.216 . S
O561 C568 1.247 . S
O562 Co560 2.091 . S
O562 C568 1.261 . S
C563 O572 1.247 . S
C563 O573 1.272 . S
O564 Co560 2.004 . S
O564 C569 1.259 . S
Co565 O566 2.061 . S
Co565 O571 2.052 . S
Co565 O573 2.135 . S
O566 Co565 2.061 . S
O566 C569 1.235 . S
C567 O570 1.238 . S
C567 O571 1.241 . S
C568 O561 1.247 . S
C568 O562 1.261 . S
C569 O564 1.259 . S
C569 O566 1.235 . S
O570 Co560 2.021 . S
O570 C567 1.238 . S
O571 Co565 2.052 . S
O571 C567 1.241 . S
O572 Co560 2.137 . S
O572 C563 1.247 . S
O573 Co560 2.244 . S
O573 C563 1.272 . S
O573 Co565 2.135 . S
Co574 O575 2.216 . S
Co574 O576 2.091 . S
Co574 O578 2.004 . S
Co574 O584 2.021 . S
Co574 O586 2.137 . S
Co574 O587 2.244 . S
O575 Co574 2.216 . S
O575 C582 1.247 . S
O576 Co574 2.091 . S
O576 C582 1.261 . S
C577 O586 1.247 . S
C577 O587 1.272 . S
O578 Co574 2.004 . S
O578 C583 1.259 . S
Co579 O580 2.061 . S
Co579 O585 2.052 . S
Co579 O587 2.135 . S
O580 Co579 2.061 . S
O580 C583 1.235 . S
C581 O584 1.238 . S
C581 O585 1.241 . S
C582 O575 1.247 . S
C582 O576 1.261 . S
C583 O578 1.259 . S
C583 O580 1.235 . S
O584 Co574 2.021 . S
O584 C581 1.238 . S
O585 Co579 2.052 . S
O585 C581 1.241 . S
O586 Co574 2.137 . S
O586 C577 1.247 . S
O587 Co574 2.244 . S
O587 C577 1.272 . S
O587 Co579 2.135 . S
Co588 O589 2.216 . S
Co588 O590 2.091 . S
Co588 O592 2.004 . S
Co588 O598 2.021 . S
Co588 O600 2.137 . S
Co588 O601 2.244 . S
O589 Co588 2.216 . S
O589 C596 1.247 . S
O590 Co588 2.091 . S
O590 C596 1.261 . S
C591 O600 1.247 . S
C591 O601 1.272 . S
O592 Co588 2.004 . S
O592 C597 1.259 . S
Co593 O594 2.061 . S
Co593 O599 2.052 . S
Co593 O601 2.135 . S
O594 Co593 2.061 . S
O594 C597 1.235 . S
C595 O598 1.238 . S
C595 O599 1.241 . S
C596 O589 1.247 . S
C596 O590 1.261 . S
C597 O592 1.259 . S
C597 O594 1.235 . S
O598 Co588 2.021 . S
O598 C595 1.238 . S
O599 Co593 2.052 . S
O599 C595 1.241 . S
O600 Co588 2.137 . S
O600 C591 1.247 . S
O601 Co588 2.244 . S
O601 C591 1.272 . S
O601 Co593 2.135 . S
Co602 O603 2.216 . S
Co602 O604 2.091 . S
Co602 O606 2.004 . S
Co602 O612 2.021 . S
Co602 O614 2.137 . S
Co602 O615 2.244 . S
O603 Co602 2.216 . S
O603 C610 1.247 . S
O604 Co602 2.091 . S
O604 C610 1.261 . S
C605 O614 1.247 . S
C605 O615 1.272 . S
O606 Co602 2.004 . S
O606 C611 1.259 . S
Co607 O608 2.061 . S
Co607 O613 2.052 . S
Co607 O615 2.135 . S
O608 Co607 2.061 . S
O608 C611 1.235 . S
C609 O612 1.238 . S
C609 O613 1.241 . S
C610 O603 1.247 . S
C610 O604 1.261 . S
C611 O606 1.259 . S
C611 O608 1.235 . S
O612 Co602 2.021 . S
O612 C609 1.238 . S
O613 Co607 2.052 . S
O613 C609 1.241 . S
O614 Co602 2.137 . S
O614 C605 1.247 . S
O615 Co602 2.244 . S
O615 C605 1.272 . S
O615 Co607 2.135 . S
Co616 O617 2.216 . S
Co616 O618 2.091 . S
Co616 O620 2.004 . S
Co616 O626 2.021 . S
Co616 O628 2.137 . S
Co616 O629 2.244 . S
O617 Co616 2.216 . S
O617 C624 1.247 . S
O618 Co616 2.091 . S
O618 C624 1.261 . S
C619 O628 1.247 . S
C619 O629 1.272 . S
O620 Co616 2.004 . S
O620 C625 1.259 . S
Co621 O622 2.061 . S
Co621 O627 2.052 . S
Co621 O629 2.135 . S
O622 Co621 2.061 . S
O622 C625 1.235 . S
C623 O626 1.238 . S
C623 O627 1.241 . S
C624 O617 1.247 . S
C624 O618 1.261 . S
C625 O620 1.259 . S
C625 O622 1.235 . S
O626 Co616 2.021 . S
O626 C623 1.238 . S
O627 Co621 2.052 . S
O627 C623 1.241 . S
O628 Co616 2.137 . S
O628 C619 1.247 . S
O629 Co616 2.244 . S
O629 C619 1.272 . S
O629 Co621 2.135 . S
Co630 O631 2.216 . S
Co630 O632 2.091 . S
Co630 O634 2.004 . S
Co630 O640 2.021 . S
Co630 O642 2.137 . S
Co630 O643 2.244 . S
O631 Co630 2.216 . S
O631 C638 1.247 . S
O632 Co630 2.091 . S
O632 C638 1.261 . S
C633 O642 1.247 . S
C633 O643 1.272 . S
O634 Co630 2.004 . S
O634 C639 1.259 . S
Co635 O636 2.061 . S
Co635 O641 2.052 . S
Co635 O643 2.135 . S
O636 Co635 2.061 . S
O636 C639 1.235 . S
C637 O640 1.238 . S
C637 O641 1.241 . S
C638 O631 1.247 . S
C638 O632 1.261 . S
C639 O634 1.259 . S
C639 O636 1.235 . S
O640 Co630 2.021 . S
O640 C637 1.238 . S
O641 Co635 2.052 . S
O641 C637 1.241 . S
O642 Co630 2.137 . S
O642 C633 1.247 . S
O643 Co630 2.244 . S
O643 C633 1.272 . S
O643 Co635 2.135 . S
Co644 O645 2.216 . S
Co644 O646 2.091 . S
Co644 O648 2.004 . S
Co644 O654 2.021 . S
Co644 O656 2.137 . S
Co644 O657 2.244 . S
O645 Co644 2.216 . S
O645 C652 1.247 . S
O646 Co644 2.091 . S
O646 C652 1.261 . S
C647 O656 1.247 . S
C647 O657 1.272 . S
O648 Co644 2.004 . S
O648 C653 1.259 . S
Co649 O650 2.061 . S
Co649 O655 2.052 . S
Co649 O657 2.135 . S
O650 Co649 2.061 . S
O650 C653 1.235 . S
C651 O654 1.238 . S
C651 O655 1.241 . S
C652 O645 1.247 . S
C652 O646 1.261 . S
C653 O648 1.259 . S
C653 O650 1.235 . S
O654 Co644 2.021 . S
O654 C651 1.238 . S
O655 Co649 2.052 . S
O655 C651 1.241 . S
O656 Co644 2.137 . S
O656 C647 1.247 . S
O657 Co644 2.244 . S
O657 C647 1.272 . S
O657 Co649 2.135 . S
Co658 O659 2.216 . S
Co658 O660 2.091 . S
Co658 O662 2.004 . S
Co658 O668 2.021 . S
Co658 O670 2.137 . S
Co658 O671 2.244 . S
O659 Co658 2.216 . S
O659 C666 1.247 . S
O660 Co658 2.091 . S
O660 C666 1.261 . S
C661 O670 1.247 . S
C661 O671 1.272 . S
O662 Co658 2.004 . S
O662 C667 1.259 . S
Co663 O664 2.061 . S
Co663 O669 2.052 . S
Co663 O671 2.135 . S
O664 Co663 2.061 . S
O664 C667 1.235 . S
C665 O668 1.238 . S
C665 O669 1.241 . S
C666 O659 1.247 . S
C666 O660 1.261 . S
C667 O662 1.259 . S
C667 O664 1.235 . S
O668 Co658 2.021 . S
O668 C665 1.238 . S
O669 Co663 2.052 . S
O669 C665 1.241 . S
O670 Co658 2.137 . S
O670 C661 1.247 . S
O671 Co658 2.244 . S
O671 C661 1.272 . S
O671 Co663 2.135 . S
C672 C673 1.363 . S
C672 C678 1.379 . S
C672 N680 1.356 . S
C673 C672 1.363 . S
C673 C679 1.363 . S
C674 C675 1.363 . S
C674 C679 1.379 . S
C674 N681 1.356 . S
C675 C674 1.363 . S
C675 C678 1.363 . S
N676 C678 1.356 . S
N676 H688 0.984 . S
N676 H689 0.985 . S
N677 C679 1.356 . S
N677 H682 0.984 . S
N677 H683 0.985 . S
C678 C672 1.379 . S
C678 C675 1.363 . S
C678 N676 1.356 . S
C679 C673 1.363 . S
C679 C674 1.379 . S
C679 N677 1.356 . S
N680 C672 1.356 . S
N680 H686 0.984 . S
N680 H687 0.984 . S
N681 C674 1.356 . S
N681 H684 0.984 . S
N681 H685 0.985 . S
H682 N677 0.984 . S
H683 N677 0.985 . S
H684 N681 0.984 . S
H685 N681 0.985 . S
H686 N680 0.984 . S
H687 N680 0.984 . S
H688 N676 0.984 . S
H689 N676 0.985 . S
C690 C691 1.363 . S
C690 C696 1.379 . S
C690 N698 1.356 . S
C691 C690 1.363 . S
C691 C697 1.363 . S
C692 C693 1.363 . S
C692 C697 1.379 . S
C692 N699 1.356 . S
C693 C692 1.363 . S
C693 C696 1.363 . S
N694 C696 1.356 . S
N694 H706 0.984 . S
N694 H707 0.985 . S
N695 C697 1.356 . S
N695 H700 0.984 . S
N695 H701 0.985 . S
C696 C690 1.379 . S
C696 C693 1.363 . S
C696 N694 1.356 . S
C697 C691 1.363 . S
C697 C692 1.379 . S
C697 N695 1.356 . S
N698 C690 1.356 . S
N698 H704 0.984 . S
N698 H705 0.984 . S
N699 C692 1.356 . S
N699 H702 0.984 . S
N699 H703 0.985 . S
H700 N695 0.984 . S
H701 N695 0.985 . S
H702 N699 0.984 . S
H703 N699 0.985 . S
H704 N698 0.984 . S
H705 N698 0.984 . S
H706 N694 0.984 . S
H707 N694 0.985 . S
C708 C709 1.363 . S
C708 C714 1.379 . S
C708 N716 1.356 . S
C709 C708 1.363 . S
C709 C715 1.363 . S
C710 C711 1.363 . S
C710 C715 1.379 . S
C710 N717 1.356 . S
C711 C710 1.363 . S
C711 C714 1.363 . S
N712 C714 1.356 . S
N712 H724 0.984 . S
N712 H725 0.985 . S
N713 C715 1.356 . S
N713 H718 0.984 . S
N713 H719 0.985 . S
C714 C708 1.379 . S
C714 C711 1.363 . S
C714 N712 1.356 . S
C715 C709 1.363 . S
C715 C710 1.379 . S
C715 N713 1.356 . S
N716 C708 1.356 . S
N716 H722 0.984 . S
N716 H723 0.984 . S
N717 C710 1.356 . S
N717 H720 0.984 . S
N717 H721 0.985 . S
H718 N713 0.984 . S
H719 N713 0.985 . S
H720 N717 0.984 . S
H721 N717 0.985 . S
H722 N716 0.984 . S
H723 N716 0.984 . S
H724 N712 0.984 . S
H725 N712 0.985 . S
C726 C727 1.363 . S
C726 C732 1.379 . S
C726 N734 1.356 . S
C727 C726 1.363 . S
C727 C733 1.363 . S
C728 C729 1.363 . S
C728 C733 1.379 . S
C728 N735 1.356 . S
C729 C728 1.363 . S
C729 C732 1.363 . S
N730 C732 1.356 . S
N730 H742 0.984 . S
N730 H743 0.985 . S
N731 C733 1.356 . S
N731 H736 0.984 . S
N731 H737 0.985 . S
C732 C726 1.379 . S
C732 C729 1.363 . S
C732 N730 1.356 . S
C733 C727 1.363 . S
C733 C728 1.379 . S
C733 N731 1.356 . S
N734 C726 1.356 . S
N734 H740 0.984 . S
N734 H741 0.984 . S
N735 C728 1.356 . S
N735 H738 0.984 . S
N735 H739 0.985 . S
H736 N731 0.984 . S
H737 N731 0.985 . S
H738 N735 0.984 . S
H739 N735 0.985 . S
H740 N734 0.984 . S
H741 N734 0.984 . S
H742 N730 0.984 . S
H743 N730 0.985 . S
C744 C745 1.363 . S
C744 C750 1.379 . S
C744 N752 1.356 . S
C745 C744 1.363 . S
C745 C751 1.363 . S
C746 C747 1.363 . S
C746 C751 1.379 . S
C746 N753 1.356 . S
C747 C746 1.363 . S
C747 C750 1.363 . S
N748 C750 1.356 . S
N748 H760 0.984 . S
N748 H761 0.985 . S
N749 C751 1.356 . S
N749 H754 0.984 . S
N749 H755 0.985 . S
C750 C744 1.379 . S
C750 C747 1.363 . S
C750 N748 1.356 . S
C751 C745 1.363 . S
C751 C746 1.379 . S
C751 N749 1.356 . S
N752 C744 1.356 . S
N752 H758 0.984 . S
N752 H759 0.984 . S
N753 C746 1.356 . S
N753 H756 0.984 . S
N753 H757 0.985 . S
H754 N749 0.984 . S
H755 N749 0.985 . S
H756 N753 0.984 . S
H757 N753 0.985 . S
H758 N752 0.984 . S
H759 N752 0.984 . S
H760 N748 0.984 . S
H761 N748 0.985 . S
C762 C763 1.363 . S
C762 C768 1.379 . S
C762 N770 1.356 . S
C763 C762 1.363 . S
C763 C769 1.363 . S
C764 C765 1.363 . S
C764 C769 1.379 . S
C764 N771 1.356 . S
C765 C764 1.363 . S
C765 C768 1.363 . S
N766 C768 1.356 . S
N766 H778 0.984 . S
N766 H779 0.985 . S
N767 C769 1.356 . S
N767 H772 0.984 . S
N767 H773 0.985 . S
C768 C762 1.379 . S
C768 C765 1.363 . S
C768 N766 1.356 . S
C769 C763 1.363 . S
C769 C764 1.379 . S
C769 N767 1.356 . S
N770 C762 1.356 . S
N770 H776 0.984 . S
N770 H777 0.984 . S
N771 C764 1.356 . S
N771 H774 0.984 . S
N771 H775 0.985 . S
H772 N767 0.984 . S
H773 N767 0.985 . S
H774 N771 0.984 . S
H775 N771 0.985 . S
H776 N770 0.984 . S
H777 N770 0.984 . S
H778 N766 0.984 . S
H779 N766 0.985 . S
C780 C781 1.363 . S
C780 C786 1.379 . S
C780 N788 1.356 . S
C781 C780 1.363 . S
C781 C787 1.363 . S
C782 C783 1.363 . S
C782 C787 1.379 . S
C782 N789 1.356 . S
C783 C782 1.363 . S
C783 C786 1.363 . S
N784 C786 1.356 . S
N784 H796 0.984 . S
N784 H797 0.985 . S
N785 C787 1.356 . S
N785 H790 0.984 . S
N785 H791 0.985 . S
C786 C780 1.379 . S
C786 C783 1.363 . S
C786 N784 1.356 . S
C787 C781 1.363 . S
C787 C782 1.379 . S
C787 N785 1.356 . S
N788 C780 1.356 . S
N788 H794 0.984 . S
N788 H795 0.984 . S
N789 C782 1.356 . S
N789 H792 0.984 . S
N789 H793 0.985 . S
H790 N785 0.984 . S
H791 N785 0.985 . S
H792 N789 0.984 . S
H793 N789 0.985 . S
H794 N788 0.984 . S
H795 N788 0.984 . S
H796 N784 0.984 . S
H797 N784 0.985 . S
C798 C799 1.363 . S
C798 C804 1.379 . S
C798 N806 1.356 . S
C799 C798 1.363 . S
C799 C805 1.363 . S
C800 C801 1.363 . S
C800 C805 1.379 . S
C800 N807 1.356 . S
C801 C800 1.363 . S
C801 C804 1.363 . S
N802 C804 1.356 . S
N802 H814 0.984 . S
N802 H815 0.985 . S
N803 C805 1.356 . S
N803 H808 0.984 . S
N803 H809 0.985 . S
C804 C798 1.379 . S
C804 C801 1.363 . S
C804 N802 1.356 . S
C805 C799 1.363 . S
C805 C800 1.379 . S
C805 N803 1.356 . S
N806 C798 1.356 . S
N806 H812 0.984 . S
N806 H813 0.984 . S
N807 C800 1.356 . S
N807 H810 0.984 . S
N807 H811 0.985 . S
H808 N803 0.984 . S
H809 N803 0.985 . S
H810 N807 0.984 . S
H811 N807 0.985 . S
H812 N806 0.984 . S
H813 N806 0.984 . S
H814 N802 0.984 . S
H815 N802 0.985 . S
C816 C817 1.363 . S
C816 C822 1.379 . S
C816 N824 1.356 . S
C817 C816 1.363 . S
C817 C823 1.363 . S
C818 C819 1.363 . S
C818 C823 1.379 . S
C818 N825 1.356 . S
C819 C818 1.363 . S
C819 C822 1.363 . S
N820 C822 1.356 . S
N820 H832 0.984 . S
N820 H833 0.985 . S
N821 C823 1.356 . S
N821 H826 0.984 . S
N821 H827 0.985 . S
C822 C816 1.379 . S
C822 C819 1.363 . S
C822 N820 1.356 . S
C823 C817 1.363 . S
C823 C818 1.379 . S
C823 N821 1.356 . S
N824 C816 1.356 . S
N824 H830 0.984 . S
N824 H831 0.984 . S
N825 C818 1.356 . S
N825 H828 0.984 . S
N825 H829 0.985 . S
H826 N821 0.984 . S
H827 N821 0.985 . S
H828 N825 0.984 . S
H829 N825 0.985 . S
H830 N824 0.984 . S
H831 N824 0.984 . S
H832 N820 0.984 . S
H833 N820 0.985 . S
C834 C835 1.363 . S
C834 C840 1.379 . S
C834 N842 1.356 . S
C835 C834 1.363 . S
C835 C841 1.363 . S
C836 C837 1.363 . S
C836 C841 1.379 . S
C836 N843 1.356 . S
C837 C836 1.363 . S
C837 C840 1.363 . S
N838 C840 1.356 . S
N838 H850 0.984 . S
N838 H851 0.985 . S
N839 C841 1.356 . S
N839 H844 0.984 . S
N839 H845 0.985 . S
C840 C834 1.379 . S
C840 C837 1.363 . S
C840 N838 1.356 . S
C841 C835 1.363 . S
C841 C836 1.379 . S
C841 N839 1.356 . S
N842 C834 1.356 . S
N842 H848 0.984 . S
N842 H849 0.984 . S
N843 C836 1.356 . S
N843 H846 0.984 . S
N843 H847 0.985 . S
H844 N839 0.984 . S
H845 N839 0.985 . S
H846 N843 0.984 . S
H847 N843 0.985 . S
H848 N842 0.984 . S
H849 N842 0.984 . S
H850 N838 0.984 . S
H851 N838 0.985 . S
C852 C853 1.363 . S
C852 C858 1.379 . S
C852 N860 1.356 . S
C853 C852 1.363 . S
C853 C859 1.363 . S
C854 C855 1.363 . S
C854 C859 1.379 . S
C854 N861 1.356 . S
C855 C854 1.363 . S
C855 C858 1.363 . S
N856 C858 1.356 . S
N856 H868 0.984 . S
N856 H869 0.985 . S
N857 C859 1.356 . S
N857 H862 0.984 . S
N857 H863 0.985 . S
C858 C852 1.379 . S
C858 C855 1.363 . S
C858 N856 1.356 . S
C859 C853 1.363 . S
C859 C854 1.379 . S
C859 N857 1.356 . S
N860 C852 1.356 . S
N860 H866 0.984 . S
N860 H867 0.984 . S
N861 C854 1.356 . S
N861 H864 0.984 . S
N861 H865 0.985 . S
H862 N857 0.984 . S
H863 N857 0.985 . S
H864 N861 0.984 . S
H865 N861 0.985 . S
H866 N860 0.984 . S
H867 N860 0.984 . S
H868 N856 0.984 . S
H869 N856 0.985 . S
C870 C871 1.363 . S
C870 C876 1.379 . S
C870 N878 1.356 . S
C871 C870 1.363 . S
C871 C877 1.363 . S
C872 C873 1.363 . S
C872 C877 1.379 . S
C872 N879 1.356 . S
C873 C872 1.363 . S
C873 C876 1.363 . S
N874 C876 1.356 . S
N874 H886 0.984 . S
N874 H887 0.985 . S
N875 C877 1.356 . S
N875 H880 0.984 . S
N875 H881 0.985 . S
C876 C870 1.379 . S
C876 C873 1.363 . S
C876 N874 1.356 . S
C877 C871 1.363 . S
C877 C872 1.379 . S
C877 N875 1.356 . S
N878 C870 1.356 . S
N878 H884 0.984 . S
N878 H885 0.984 . S
N879 C872 1.356 . S
N879 H882 0.984 . S
N879 H883 0.985 . S
H880 N875 0.984 . S
H881 N875 0.985 . S
H882 N879 0.984 . S
H883 N879 0.985 . S
H884 N878 0.984 . S
H885 N878 0.984 . S
H886 N874 0.984 . S
H887 N874 0.985 . S
C888 C889 1.363 . S
C888 C894 1.379 . S
C888 N896 1.356 . S
C889 C888 1.363 . S
C889 C895 1.363 . S
C890 C891 1.363 . S
C890 C895 1.379 . S
C890 N897 1.356 . S
C891 C890 1.363 . S
C891 C894 1.363 . S
N892 C894 1.356 . S
N892 H904 0.984 . S
N892 H905 0.985 . S
N893 C895 1.356 . S
N893 H898 0.984 . S
N893 H899 0.985 . S
C894 C888 1.379 . S
C894 C891 1.363 . S
C894 N892 1.356 . S
C895 C889 1.363 . S
C895 C890 1.379 . S
C895 N893 1.356 . S
N896 C888 1.356 . S
N896 H902 0.984 . S
N896 H903 0.984 . S
N897 C890 1.356 . S
N897 H900 0.984 . S
N897 H901 0.985 . S
H898 N893 0.984 . S
H899 N893 0.985 . S
H900 N897 0.984 . S
H901 N897 0.985 . S
H902 N896 0.984 . S
H903 N896 0.984 . S
H904 N892 0.984 . S
H905 N892 0.985 . S
C906 C907 1.363 . S
C906 C912 1.379 . S
C906 N914 1.356 . S
C907 C906 1.363 . S
C907 C913 1.363 . S
C908 C909 1.363 . S
C908 C913 1.379 . S
C908 N915 1.356 . S
C909 C908 1.363 . S
C909 C912 1.363 . S
N910 C912 1.356 . S
N910 H922 0.984 . S
N910 H923 0.985 . S
N911 C913 1.356 . S
N911 H916 0.984 . S
N911 H917 0.985 . S
C912 C906 1.379 . S
C912 C909 1.363 . S
C912 N910 1.356 . S
C913 C907 1.363 . S
C913 C908 1.379 . S
C913 N911 1.356 . S
N914 C906 1.356 . S
N914 H920 0.984 . S
N914 H921 0.984 . S
N915 C908 1.356 . S
N915 H918 0.984 . S
N915 H919 0.985 . S
H916 N911 0.984 . S
H917 N911 0.985 . S
H918 N915 0.984 . S
H919 N915 0.985 . S
H920 N914 0.984 . S
H921 N914 0.984 . S
H922 N910 0.984 . S
H923 N910 0.985 . S
C924 C925 1.363 . S
C924 C930 1.379 . S
C924 N932 1.356 . S
C925 C924 1.363 . S
C925 C931 1.363 . S
C926 C927 1.363 . S
C926 C931 1.379 . S
C926 N933 1.356 . S
C927 C926 1.363 . S
C927 C930 1.363 . S
N928 C930 1.356 . S
N928 H940 0.984 . S
N928 H941 0.985 . S
N929 C931 1.356 . S
N929 H934 0.984 . S
N929 H935 0.985 . S
C930 C924 1.379 . S
C930 C927 1.363 . S
C930 N928 1.356 . S
C931 C925 1.363 . S
C931 C926 1.379 . S
C931 N929 1.356 . S
N932 C924 1.356 . S
N932 H938 0.984 . S
N932 H939 0.984 . S
N933 C926 1.356 . S
N933 H936 0.984 . S
N933 H937 0.985 . S
H934 N929 0.984 . S
H935 N929 0.985 . S
H936 N933 0.984 . S
H937 N933 0.985 . S
H938 N932 0.984 . S
H939 N932 0.984 . S
H940 N928 0.984 . S
H941 N928 0.985 . S
C942 C943 1.363 . S
C942 C948 1.379 . S
C942 N950 1.356 . S
C943 C942 1.363 . S
C943 C949 1.363 . S
C944 C945 1.363 . S
C944 C949 1.379 . S
C944 N951 1.356 . S
C945 C944 1.363 . S
C945 C948 1.363 . S
N946 C948 1.356 . S
N946 H958 0.984 . S
N946 H959 0.985 . S
N947 C949 1.356 . S
N947 H952 0.984 . S
N947 H953 0.985 . S
C948 C942 1.379 . S
C948 C945 1.363 . S
C948 N946 1.356 . S
C949 C943 1.363 . S
C949 C944 1.379 . S
C949 N947 1.356 . S
N950 C942 1.356 . S
N950 H956 0.984 . S
N950 H957 0.984 . S
N951 C944 1.356 . S
N951 H954 0.984 . S
N951 H955 0.985 . S
H952 N947 0.984 . S
H953 N947 0.985 . S
H954 N951 0.984 . S
H955 N951 0.985 . S
H956 N950 0.984 . S
H957 N950 0.984 . S
H958 N946 0.984 . S
H959 N946 0.985 . S
C960 C961 1.363 . S
C960 C966 1.379 . S
C960 N968 1.356 . S
C961 C960 1.363 . S
C961 C967 1.363 . S
C962 C963 1.363 . S
C962 C967 1.379 . S
C962 N969 1.356 . S
C963 C962 1.363 . S
C963 C966 1.363 . S
N964 C966 1.356 . S
N964 H976 0.984 . S
N964 H977 0.985 . S
N965 C967 1.356 . S
N965 H970 0.984 . S
N965 H971 0.985 . S
C966 C960 1.379 . S
C966 C963 1.363 . S
C966 N964 1.356 . S
C967 C961 1.363 . S
C967 C962 1.379 . S
C967 N965 1.356 . S
N968 C960 1.356 . S
N968 H974 0.984 . S
N968 H975 0.984 . S
N969 C962 1.356 . S
N969 H972 0.984 . S
N969 H973 0.985 . S
H970 N965 0.984 . S
H971 N965 0.985 . S
H972 N969 0.984 . S
H973 N969 0.985 . S
H974 N968 0.984 . S
H975 N968 0.984 . S
H976 N964 0.984 . S
H977 N964 0.985 . S
C978 C979 1.363 . S
C978 C984 1.379 . S
C978 N986 1.356 . S
C979 C978 1.363 . S
C979 C985 1.363 . S
C980 C981 1.363 . S
C980 C985 1.379 . S
C980 N987 1.356 . S
C981 C980 1.363 . S
C981 C984 1.363 . S
N982 C984 1.356 . S
N982 H994 0.984 . S
N982 H995 0.985 . S
N983 C985 1.356 . S
N983 H988 0.984 . S
N983 H989 0.985 . S
C984 C978 1.379 . S
C984 C981 1.363 . S
C984 N982 1.356 . S
C985 C979 1.363 . S
C985 C980 1.379 . S
C985 N983 1.356 . S
N986 C978 1.356 . S
N986 H992 0.984 . S
N986 H993 0.984 . S
N987 C980 1.356 . S
N987 H990 0.984 . S
N987 H991 0.985 . S
H988 N983 0.984 . S
H989 N983 0.985 . S
H990 N987 0.984 . S
H991 N987 0.985 . S
H992 N986 0.984 . S
H993 N986 0.984 . S
H994 N982 0.984 . S
H995 N982 0.985 . S
C996 C997 1.363 . S
C996 C1002 1.379 . S
C996 N1004 1.356 . S
C997 C996 1.363 . S
C997 C1003 1.363 . S
C998 C999 1.363 . S
C998 C1003 1.379 . S
C998 N1005 1.356 . S
C999 C998 1.363 . S
C999 C1002 1.363 . S
N1000 C1002 1.356 . S
N1000 H1012 0.984 . S
N1000 H1013 0.985 . S
N1001 C1003 1.356 . S
N1001 H1006 0.984 . S
N1001 H1007 0.985 . S
C1002 C996 1.379 . S
C1002 C999 1.363 . S
C1002 N1000 1.356 . S
C1003 C997 1.363 . S
C1003 C998 1.379 . S
C1003 N1001 1.356 . S
N1004 C996 1.356 . S
N1004 H1010 0.984 . S
N1004 H1011 0.984 . S
N1005 C998 1.356 . S
N1005 H1008 0.984 . S
N1005 H1009 0.985 . S
H1006 N1001 0.984 . S
H1007 N1001 0.985 . S
H1008 N1005 0.984 . S
H1009 N1005 0.985 . S
H1010 N1004 0.984 . S
H1011 N1004 0.984 . S
H1012 N1000 0.984 . S
H1013 N1000 0.985 . S
C1014 C1015 1.363 . S
C1014 C1020 1.379 . S
C1014 N1022 1.356 . S
C1015 C1014 1.363 . S
C1015 C1021 1.363 . S
C1016 C1017 1.363 . S
C1016 C1021 1.379 . S
C1016 N1023 1.356 . S
C1017 C1016 1.363 . S
C1017 C1020 1.363 . S
N1018 C1020 1.356 . S
N1018 H1030 0.984 . S
N1018 H1031 0.985 . S
N1019 C1021 1.356 . S
N1019 H1024 0.984 . S
N1019 H1025 0.985 . S
C1020 C1014 1.379 . S
C1020 C1017 1.363 . S
C1020 N1018 1.356 . S
C1021 C1015 1.363 . S
C1021 C1016 1.379 . S
C1021 N1019 1.356 . S
N1022 C1014 1.356 . S
N1022 H1028 0.984 . S
N1022 H1029 0.984 . S
N1023 C1016 1.356 . S
N1023 H1026 0.984 . S
N1023 H1027 0.985 . S
H1024 N1019 0.984 . S
H1025 N1019 0.985 . S
H1026 N1023 0.984 . S
H1027 N1023 0.985 . S
H1028 N1022 0.984 . S
H1029 N1022 0.984 . S
H1030 N1018 0.984 . S
H1031 N1018 0.985 . S
C1032 C1033 1.363 . S
C1032 C1038 1.379 . S
C1032 N1040 1.356 . S
C1033 C1032 1.363 . S
C1033 C1039 1.363 . S
C1034 C1035 1.363 . S
C1034 C1039 1.379 . S
C1034 N1041 1.356 . S
C1035 C1034 1.363 . S
C1035 C1038 1.363 . S
N1036 C1038 1.356 . S
N1036 H1048 0.984 . S
N1036 H1049 0.985 . S
N1037 C1039 1.356 . S
N1037 H1042 0.984 . S
N1037 H1043 0.985 . S
C1038 C1032 1.379 . S
C1038 C1035 1.363 . S
C1038 N1036 1.356 . S
C1039 C1033 1.363 . S
C1039 C1034 1.379 . S
C1039 N1037 1.356 . S
N1040 C1032 1.356 . S
N1040 H1046 0.984 . S
N1040 H1047 0.984 . S
N1041 C1034 1.356 . S
N1041 H1044 0.984 . S
N1041 H1045 0.985 . S
H1042 N1037 0.984 . S
H1043 N1037 0.985 . S
H1044 N1041 0.984 . S
H1045 N1041 0.985 . S
H1046 N1040 0.984 . S
H1047 N1040 0.984 . S
H1048 N1036 0.984 . S
H1049 N1036 0.985 . S
C1050 C1051 1.363 . S
C1050 C1056 1.379 . S
C1050 N1058 1.356 . S
C1051 C1050 1.363 . S
C1051 C1057 1.363 . S
C1052 C1053 1.363 . S
C1052 C1057 1.379 . S
C1052 N1059 1.356 . S
C1053 C1052 1.363 . S
C1053 C1056 1.363 . S
N1054 C1056 1.356 . S
N1054 H1066 0.984 . S
N1054 H1067 0.985 . S
N1055 C1057 1.356 . S
N1055 H1060 0.984 . S
N1055 H1061 0.985 . S
C1056 C1050 1.379 . S
C1056 C1053 1.363 . S
C1056 N1054 1.356 . S
C1057 C1051 1.363 . S
C1057 C1052 1.379 . S
C1057 N1055 1.356 . S
N1058 C1050 1.356 . S
N1058 H1064 0.984 . S
N1058 H1065 0.984 . S
N1059 C1052 1.356 . S
N1059 H1062 0.984 . S
N1059 H1063 0.985 . S
H1060 N1055 0.984 . S
H1061 N1055 0.985 . S
H1062 N1059 0.984 . S
H1063 N1059 0.985 . S
H1064 N1058 0.984 . S
H1065 N1058 0.984 . S
H1066 N1054 0.984 . S
H1067 N1054 0.985 . S
C1068 C1069 1.363 . S
C1068 C1074 1.379 . S
C1068 N1076 1.356 . S
C1069 C1068 1.363 . S
C1069 C1075 1.363 . S
C1070 C1071 1.363 . S
C1070 C1075 1.379 . S
C1070 N1077 1.356 . S
C1071 C1070 1.363 . S
C1071 C1074 1.363 . S
N1072 C1074 1.356 . S
N1072 H1084 0.984 . S
N1072 H1085 0.985 . S
N1073 C1075 1.356 . S
N1073 H1078 0.984 . S
N1073 H1079 0.985 . S
C1074 C1068 1.379 . S
C1074 C1071 1.363 . S
C1074 N1072 1.356 . S
C1075 C1069 1.363 . S
C1075 C1070 1.379 . S
C1075 N1073 1.356 . S
N1076 C1068 1.356 . S
N1076 H1082 0.984 . S
N1076 H1083 0.984 . S
N1077 C1070 1.356 . S
N1077 H1080 0.984 . S
N1077 H1081 0.985 . S
H1078 N1073 0.984 . S
H1079 N1073 0.985 . S
H1080 N1077 0.984 . S
H1081 N1077 0.985 . S
H1082 N1076 0.984 . S
H1083 N1076 0.984 . S
H1084 N1072 0.984 . S
H1085 N1072 0.985 . S
C1086 C1087 1.363 . S
C1086 C1092 1.379 . S
C1086 N1094 1.356 . S
C1087 C1086 1.363 . S
C1087 C1093 1.363 . S
C1088 C1089 1.363 . S
C1088 C1093 1.379 . S
C1088 N1095 1.356 . S
C1089 C1088 1.363 . S
C1089 C1092 1.363 . S
N1090 C1092 1.356 . S
N1090 H1102 0.984 . S
N1090 H1103 0.985 . S
N1091 C1093 1.356 . S
N1091 H1096 0.984 . S
N1091 H1097 0.985 . S
C1092 C1086 1.379 . S
C1092 C1089 1.363 . S
C1092 N1090 1.356 . S
C1093 C1087 1.363 . S
C1093 C1088 1.379 . S
C1093 N1091 1.356 . S
N1094 C1086 1.356 . S
N1094 H1100 0.984 . S
N1094 H1101 0.984 . S
N1095 C1088 1.356 . S
N1095 H1098 0.984 . S
N1095 H1099 0.985 . S
H1096 N1091 0.984 . S
H1097 N1091 0.985 . S
H1098 N1095 0.984 . S
H1099 N1095 0.985 . S
H1100 N1094 0.984 . S
H1101 N1094 0.984 . S
H1102 N1090 0.984 . S
H1103 N1090 0.985 . S
C1104 C1105 1.363 . S
C1104 C1110 1.379 . S
C1104 N1112 1.356 . S
C1105 C1104 1.363 . S
C1105 C1111 1.363 . S
C1106 C1107 1.363 . S
C1106 C1111 1.379 . S
C1106 N1113 1.356 . S
C1107 C1106 1.363 . S
C1107 C1110 1.363 . S
N1108 C1110 1.356 . S
N1108 H1120 0.984 . S
N1108 H1121 0.985 . S
N1109 C1111 1.356 . S
N1109 H1114 0.984 . S
N1109 H1115 0.985 . S
C1110 C1104 1.379 . S
C1110 C1107 1.363 . S
C1110 N1108 1.356 . S
C1111 C1105 1.363 . S
C1111 C1106 1.379 . S
C1111 N1109 1.356 . S
N1112 C1104 1.356 . S
N1112 H1118 0.984 . S
N1112 H1119 0.984 . S
N1113 C1106 1.356 . S
N1113 H1116 0.984 . S
N1113 H1117 0.985 . S
H1114 N1109 0.984 . S
H1115 N1109 0.985 . S
H1116 N1113 0.984 . S
H1117 N1113 0.985 . S
H1118 N1112 0.984 . S
H1119 N1112 0.984 . S
H1120 N1108 0.984 . S
H1121 N1108 0.985 . S
C1122 C1123 1.363 . S
C1122 C1128 1.379 1_556 S
C1122 N1130 1.356 . S
C1123 C1122 1.363 . S
C1123 C1129 1.363 . S
C1124 C1125 1.363 . S
C1124 C1129 1.379 1_554 S
C1124 N1131 1.356 . S
C1125 C1124 1.363 . S
C1125 C1128 1.363 . S
N1126 C1128 1.356 . S
N1126 H1138 0.984 . S
N1126 H1139 0.985 . S
N1127 C1129 1.356 . S
N1127 H1132 0.984 . S
N1127 H1133 0.985 . S
C1128 C1122 1.379 1_554 S
C1128 C1125 1.363 . S
C1128 N1126 1.356 . S
C1129 C1123 1.363 . S
C1129 C1124 1.379 1_556 S
C1129 N1127 1.356 . S
N1130 C1122 1.356 . S
N1130 H1136 0.984 . S
N1130 H1137 0.984 . S
N1131 C1124 1.356 . S
N1131 H1134 0.984 . S
N1131 H1135 0.985 . S
H1132 N1127 0.984 . S
H1133 N1127 0.985 . S
H1134 N1131 0.984 . S
H1135 N1131 0.985 . S
H1136 N1130 0.984 . S
H1137 N1130 0.984 . S
H1138 N1126 0.984 . S
H1139 N1126 0.985 . S
C1140 C1141 1.363 . S
C1140 C1146 1.379 . S
C1140 N1148 1.356 . S
C1141 C1140 1.363 . S
C1141 C1147 1.363 . S
C1142 C1143 1.363 . S
C1142 C1147 1.379 . S
C1142 N1149 1.356 . S
C1143 C1142 1.363 . S
C1143 C1146 1.363 . S
N1144 C1146 1.356 . S
N1144 H1156 0.984 . S
N1144 H1157 0.985 . S
N1145 C1147 1.356 . S
N1145 H1150 0.984 . S
N1145 H1151 0.985 . S
C1146 C1140 1.379 . S
C1146 C1143 1.363 . S
C1146 N1144 1.356 . S
C1147 C1141 1.363 . S
C1147 C1142 1.379 . S
C1147 N1145 1.356 . S
N1148 C1140 1.356 . S
N1148 H1154 0.984 . S
N1148 H1155 0.984 . S
N1149 C1142 1.356 . S
N1149 H1152 0.984 . S
N1149 H1153 0.985 . S
H1150 N1145 0.984 . S
H1151 N1145 0.985 . S
H1152 N1149 0.984 . S
H1153 N1149 0.985 . S
H1154 N1148 0.984 . S
H1155 N1148 0.984 . S
H1156 N1144 0.984 . S
H1157 N1144 0.985 . S
C1158 C1159 1.363 . S
C1158 C1164 1.379 1_556 S
C1158 N1166 1.356 . S
C1159 C1158 1.363 . S
C1159 C1165 1.363 . S
C1160 C1161 1.363 . S
C1160 C1165 1.379 1_554 S
C1160 N1167 1.356 . S
C1161 C1160 1.363 . S
C1161 C1164 1.363 . S
N1162 C1164 1.356 . S
N1162 H1174 0.984 . S
N1162 H1175 0.985 . S
N1163 C1165 1.356 . S
N1163 H1168 0.984 . S
N1163 H1169 0.985 . S
C1164 C1158 1.379 1_554 S
C1164 C1161 1.363 . S
C1164 N1162 1.356 . S
C1165 C1159 1.363 . S
C1165 C1160 1.379 1_556 S
C1165 N1163 1.356 . S
N1166 C1158 1.356 . S
N1166 H1172 0.984 . S
N1166 H1173 0.984 . S
N1167 C1160 1.356 . S
N1167 H1170 0.984 . S
N1167 H1171 0.985 . S
H1168 N1163 0.984 . S
H1169 N1163 0.985 . S
H1170 N1167 0.984 . S
H1171 N1167 0.985 . S
H1172 N1166 0.984 . S
H1173 N1166 0.984 . S
H1174 N1162 0.984 . S
H1175 N1162 0.985 . S
C1176 C1177 1.363 . S
C1176 C1182 1.379 . S
C1176 N1184 1.356 . S
C1177 C1176 1.363 . S
C1177 C1183 1.363 . S
C1178 C1179 1.363 . S
C1178 C1183 1.379 . S
C1178 N1185 1.356 . S
C1179 C1178 1.363 . S
C1179 C1182 1.363 . S
N1180 C1182 1.356 . S
N1180 H1192 0.984 . S
N1180 H1193 0.985 . S
N1181 C1183 1.356 . S
N1181 H1186 0.984 . S
N1181 H1187 0.985 . S
C1182 C1176 1.379 . S
C1182 C1179 1.363 . S
C1182 N1180 1.356 . S
C1183 C1177 1.363 . S
C1183 C1178 1.379 . S
C1183 N1181 1.356 . S
N1184 C1176 1.356 . S
N1184 H1190 0.984 . S
N1184 H1191 0.984 . S
N1185 C1178 1.356 . S
N1185 H1188 0.984 . S
N1185 H1189 0.985 . S
H1186 N1181 0.984 . S
H1187 N1181 0.985 . S
H1188 N1185 0.984 . S
H1189 N1185 0.985 . S
H1190 N1184 0.984 . S
H1191 N1184 0.984 . S
H1192 N1180 0.984 . S
H1193 N1180 0.985 . S
C1194 C1195 1.363 . S
C1194 C1200 1.379 1_556 S
C1194 N1202 1.356 . S
C1195 C1194 1.363 . S
C1195 C1201 1.363 . S
C1196 C1197 1.363 . S
C1196 C1201 1.379 1_554 S
C1196 N1203 1.356 . S
C1197 C1196 1.363 . S
C1197 C1200 1.363 . S
N1198 C1200 1.356 . S
N1198 H1210 0.984 . S
N1198 H1211 0.985 . S
N1199 C1201 1.356 . S
N1199 H1204 0.984 . S
N1199 H1205 0.985 . S
C1200 C1194 1.379 1_554 S
C1200 C1197 1.363 . S
C1200 N1198 1.356 . S
C1201 C1195 1.363 . S
C1201 C1196 1.379 1_556 S
C1201 N1199 1.356 . S
N1202 C1194 1.356 . S
N1202 H1208 0.984 . S
N1202 H1209 0.984 . S
N1203 C1196 1.356 . S
N1203 H1206 0.984 . S
N1203 H1207 0.985 . S
H1204 N1199 0.984 . S
H1205 N1199 0.985 . S
H1206 N1203 0.984 . S
H1207 N1203 0.985 . S
H1208 N1202 0.984 . S
H1209 N1202 0.984 . S
H1210 N1198 0.984 . S
H1211 N1198 0.985 . S
C1212 C1213 1.363 . S
C1212 C1218 1.379 . S
C1212 N1220 1.356 . S
C1213 C1212 1.363 . S
C1213 C1219 1.363 . S
C1214 C1215 1.363 . S
C1214 C1219 1.379 . S
C1214 N1221 1.356 . S
C1215 C1214 1.363 . S
C1215 C1218 1.363 . S
N1216 C1218 1.356 . S
N1216 H1228 0.984 . S
N1216 H1229 0.985 . S
N1217 C1219 1.356 . S
N1217 H1222 0.984 . S
N1217 H1223 0.985 . S
C1218 C1212 1.379 . S
C1218 C1215 1.363 . S
C1218 N1216 1.356 . S
C1219 C1213 1.363 . S
C1219 C1214 1.379 . S
C1219 N1217 1.356 . S
N1220 C1212 1.356 . S
N1220 H1226 0.984 . S
N1220 H1227 0.984 . S
N1221 C1214 1.356 . S
N1221 H1224 0.984 . S
N1221 H1225 0.985 . S
H1222 N1217 0.984 . S
H1223 N1217 0.985 . S
H1224 N1221 0.984 . S
H1225 N1221 0.985 . S
H1226 N1220 0.984 . S
H1227 N1220 0.984 . S
H1228 N1216 0.984 . S
H1229 N1216 0.985 . S
C1230 C1231 1.363 . S
C1230 C1236 1.379 1_556 S
C1230 N1238 1.356 . S
C1231 C1230 1.363 . S
C1231 C1237 1.363 . S
C1232 C1233 1.363 . S
C1232 C1237 1.379 1_554 S
C1232 N1239 1.356 . S
C1233 C1232 1.363 . S
C1233 C1236 1.363 . S
N1234 C1236 1.356 . S
N1234 H1246 0.984 . S
N1234 H1247 0.985 . S
N1235 C1237 1.356 . S
N1235 H1240 0.984 . S
N1235 H1241 0.985 . S
C1236 C1230 1.379 1_554 S
C1236 C1233 1.363 . S
C1236 N1234 1.356 . S
C1237 C1231 1.363 . S
C1237 C1232 1.379 1_556 S
C1237 N1235 1.356 . S
N1238 C1230 1.356 . S
N1238 H1244 0.984 . S
N1238 H1245 0.984 . S
N1239 C1232 1.356 . S
N1239 H1242 0.984 . S
N1239 H1243 0.985 . S
H1240 N1235 0.984 . S
H1241 N1235 0.985 . S
H1242 N1239 0.984 . S
H1243 N1239 0.985 . S
H1244 N1238 0.984 . S
H1245 N1238 0.984 . S
H1246 N1234 0.984 . S
H1247 N1234 0.985 . S
C1248 C1249 1.363 . S
C1248 C1254 1.379 . S
C1248 N1256 1.356 . S
C1249 C1248 1.363 . S
C1249 C1255 1.363 . S
C1250 C1251 1.363 . S
C1250 C1255 1.379 . S
C1250 N1257 1.356 . S
C1251 C1250 1.363 . S
C1251 C1254 1.363 . S
N1252 C1254 1.356 . S
N1252 H1264 0.984 . S
N1252 H1265 0.985 . S
N1253 C1255 1.356 . S
N1253 H1258 0.984 . S
N1253 H1259 0.985 . S
C1254 C1248 1.379 . S
C1254 C1251 1.363 . S
C1254 N1252 1.356 . S
C1255 C1249 1.363 . S
C1255 C1250 1.379 . S
C1255 N1253 1.356 . S
N1256 C1248 1.356 . S
N1256 H1262 0.984 . S
N1256 H1263 0.984 . S
N1257 C1250 1.356 . S
N1257 H1260 0.984 . S
N1257 H1261 0.985 . S
H1258 N1253 0.984 . S
H1259 N1253 0.985 . S
H1260 N1257 0.984 . S
H1261 N1257 0.985 . S
H1262 N1256 0.984 . S
H1263 N1256 0.984 . S
H1264 N1252 0.984 . S
H1265 N1252 0.985 . S
C1266 C1267 1.363 . S
C1266 C1272 1.379 1_565 S
C1266 N1274 1.356 . S
C1267 C1266 1.363 . S
C1267 C1273 1.363 . S
C1268 C1269 1.363 . S
C1268 C1273 1.379 1_545 S
C1268 N1275 1.356 . S
C1269 C1268 1.363 . S
C1269 C1272 1.363 . S
N1270 C1272 1.356 . S
N1270 H1282 0.984 . S
N1270 H1283 0.985 . S
N1271 C1273 1.356 . S
N1271 H1276 0.984 . S
N1271 H1277 0.985 . S
C1272 C1266 1.379 1_545 S
C1272 C1269 1.363 . S
C1272 N1270 1.356 . S
C1273 C1267 1.363 . S
C1273 C1268 1.379 1_565 S
C1273 N1271 1.356 . S
N1274 C1266 1.356 . S
N1274 H1280 0.984 . S
N1274 H1281 0.984 . S
N1275 C1268 1.356 . S
N1275 H1278 0.984 . S
N1275 H1279 0.985 . S
H1276 N1271 0.984 . S
H1277 N1271 0.985 . S
H1278 N1275 0.984 . S
H1279 N1275 0.985 . S
H1280 N1274 0.984 . S
H1281 N1274 0.984 . S
H1282 N1270 0.984 . S
H1283 N1270 0.985 . S
C1284 C1285 1.363 . S
C1284 C1290 1.379 . S
C1284 N1292 1.356 . S
C1285 C1284 1.363 . S
C1285 C1291 1.363 . S
C1286 C1287 1.363 . S
C1286 C1291 1.379 . S
C1286 N1293 1.356 . S
C1287 C1286 1.363 . S
C1287 C1290 1.363 . S
N1288 C1290 1.356 . S
N1288 H1300 0.984 . S
N1288 H1301 0.985 . S
N1289 C1291 1.356 . S
N1289 H1294 0.984 . S
N1289 H1295 0.985 . S
C1290 C1284 1.379 . S
C1290 C1287 1.363 . S
C1290 N1288 1.356 . S
C1291 C1285 1.363 . S
C1291 C1286 1.379 . S
C1291 N1289 1.356 . S
N1292 C1284 1.356 . S
N1292 H1298 0.984 . S
N1292 H1299 0.984 . S
N1293 C1286 1.356 . S
N1293 H1296 0.984 . S
N1293 H1297 0.985 . S
H1294 N1289 0.984 . S
H1295 N1289 0.985 . S
H1296 N1293 0.984 . S
H1297 N1293 0.985 . S
H1298 N1292 0.984 . S
H1299 N1292 0.984 . S
H1300 N1288 0.984 . S
H1301 N1288 0.985 . S
C1302 C1303 1.363 . S
C1302 C1308 1.379 1_545 S
C1302 N1310 1.356 . S
C1303 C1302 1.363 . S
C1303 C1309 1.363 . S
C1304 C1305 1.363 . S
C1304 C1309 1.379 1_565 S
C1304 N1311 1.356 . S
C1305 C1304 1.363 . S
C1305 C1308 1.363 . S
N1306 C1308 1.356 . S
N1306 H1318 0.984 . S
N1306 H1319 0.985 . S
N1307 C1309 1.356 . S
N1307 H1312 0.984 . S
N1307 H1313 0.985 . S
C1308 C1302 1.379 1_565 S
C1308 C1305 1.363 . S
C1308 N1306 1.356 . S
C1309 C1303 1.363 . S
C1309 C1304 1.379 1_545 S
C1309 N1307 1.356 . S
N1310 C1302 1.356 . S
N1310 H1316 0.984 . S
N1310 H1317 0.984 . S
N1311 C1304 1.356 . S
N1311 H1314 0.984 . S
N1311 H1315 0.985 . S
H1312 N1307 0.984 . S
H1313 N1307 0.985 . S
H1314 N1311 0.984 . S
H1315 N1311 0.985 . S
H1316 N1310 0.984 . S
H1317 N1310 0.984 . S
H1318 N1306 0.984 . S
H1319 N1306 0.985 . S
C1320 C1321 1.363 . S
C1320 C1326 1.379 . S
C1320 N1328 1.356 . S
C1321 C1320 1.363 . S
C1321 C1327 1.363 . S
C1322 C1323 1.363 . S
C1322 C1327 1.379 . S
C1322 N1329 1.356 . S
C1323 C1322 1.363 . S
C1323 C1326 1.363 . S
N1324 C1326 1.356 . S
N1324 H1336 0.984 . S
N1324 H1337 0.985 . S
N1325 C1327 1.356 . S
N1325 H1330 0.984 . S
N1325 H1331 0.985 . S
C1326 C1320 1.379 . S
C1326 C1323 1.363 . S
C1326 N1324 1.356 . S
C1327 C1321 1.363 . S
C1327 C1322 1.379 . S
C1327 N1325 1.356 . S
N1328 C1320 1.356 . S
N1328 H1334 0.984 . S
N1328 H1335 0.984 . S
N1329 C1322 1.356 . S
N1329 H1332 0.984 . S
N1329 H1333 0.985 . S
H1330 N1325 0.984 . S
H1331 N1325 0.985 . S
H1332 N1329 0.984 . S
H1333 N1329 0.985 . S
H1334 N1328 0.984 . S
H1335 N1328 0.984 . S
H1336 N1324 0.984 . S
H1337 N1324 0.985 . S
C1338 C1339 1.363 . S
C1338 C1344 1.379 1_565 S
C1338 N1346 1.356 . S
C1339 C1338 1.363 . S
C1339 C1345 1.363 . S
C1340 C1341 1.363 . S
C1340 C1345 1.379 1_545 S
C1340 N1347 1.356 . S
C1341 C1340 1.363 . S
C1341 C1344 1.363 . S
N1342 C1344 1.356 . S
N1342 H1354 0.984 . S
N1342 H1355 0.985 . S
N1343 C1345 1.356 . S
N1343 H1348 0.984 . S
N1343 H1349 0.985 . S
C1344 C1338 1.379 1_545 S
C1344 C1341 1.363 . S
C1344 N1342 1.356 . S
C1345 C1339 1.363 . S
C1345 C1340 1.379 1_565 S
C1345 N1343 1.356 . S
N1346 C1338 1.356 . S
N1346 H1352 0.984 . S
N1346 H1353 0.984 . S
N1347 C1340 1.356 . S
N1347 H1350 0.984 . S
N1347 H1351 0.985 . S
H1348 N1343 0.984 . S
H1349 N1343 0.985 . S
H1350 N1347 0.984 . S
H1351 N1347 0.985 . S
H1352 N1346 0.984 . S
H1353 N1346 0.984 . S
H1354 N1342 0.984 . S
H1355 N1342 0.985 . S
C1356 C1357 1.363 . S
C1356 C1362 1.379 . S
C1356 N1364 1.356 . S
C1357 C1356 1.363 . S
C1357 C1363 1.363 . S
C1358 C1359 1.363 . S
C1358 C1363 1.379 . S
C1358 N1365 1.356 . S
C1359 C1358 1.363 . S
C1359 C1362 1.363 . S
N1360 C1362 1.356 . S
N1360 H1372 0.984 . S
N1360 H1373 0.985 . S
N1361 C1363 1.356 . S
N1361 H1366 0.984 . S
N1361 H1367 0.985 . S
C1362 C1356 1.379 . S
C1362 C1359 1.363 . S
C1362 N1360 1.356 . S
C1363 C1357 1.363 . S
C1363 C1358 1.379 . S
C1363 N1361 1.356 . S
N1364 C1356 1.356 . S
N1364 H1370 0.984 . S
N1364 H1371 0.984 . S
N1365 C1358 1.356 . S
N1365 H1368 0.984 . S
N1365 H1369 0.985 . S
H1366 N1361 0.984 . S
H1367 N1361 0.985 . S
H1368 N1365 0.984 . S
H1369 N1365 0.985 . S
H1370 N1364 0.984 . S
H1371 N1364 0.984 . S
H1372 N1360 0.984 . S
H1373 N1360 0.985 . S
C1374 C1375 1.363 . S
C1374 C1380 1.379 1_565 S
C1374 N1382 1.356 . S
C1375 C1374 1.363 . S
C1375 C1381 1.363 . S
C1376 C1377 1.363 . S
C1376 C1381 1.379 1_545 S
C1376 N1383 1.356 . S
C1377 C1376 1.363 . S
C1377 C1380 1.363 . S
N1378 C1380 1.356 . S
N1378 H1390 0.984 . S
N1378 H1391 0.985 . S
N1379 C1381 1.356 . S
N1379 H1384 0.984 . S
N1379 H1385 0.985 . S
C1380 C1374 1.379 1_545 S
C1380 C1377 1.363 . S
C1380 N1378 1.356 . S
C1381 C1375 1.363 . S
C1381 C1376 1.379 1_565 S
C1381 N1379 1.356 . S
N1382 C1374 1.356 . S
N1382 H1388 0.984 . S
N1382 H1389 0.984 . S
N1383 C1376 1.356 . S
N1383 H1386 0.984 . S
N1383 H1387 0.985 . S
H1384 N1379 0.984 . S
H1385 N1379 0.985 . S
H1386 N1383 0.984 . S
H1387 N1383 0.985 . S
H1388 N1382 0.984 . S
H1389 N1382 0.984 . S
H1390 N1378 0.984 . S
H1391 N1378 0.985 . S
C1392 C1393 1.363 . S
C1392 C1398 1.379 . S
C1392 N1400 1.356 . S
C1393 C1392 1.363 . S
C1393 C1399 1.363 . S
C1394 C1395 1.363 . S
C1394 C1399 1.379 . S
C1394 N1401 1.356 . S
C1395 C1394 1.363 . S
C1395 C1398 1.363 . S
N1396 C1398 1.356 . S
N1396 H1408 0.984 . S
N1396 H1409 0.985 . S
N1397 C1399 1.356 . S
N1397 H1402 0.984 . S
N1397 H1403 0.985 . S
C1398 C1392 1.379 . S
C1398 C1395 1.363 . S
C1398 N1396 1.356 . S
C1399 C1393 1.363 . S
C1399 C1394 1.379 . S
C1399 N1397 1.356 . S
N1400 C1392 1.356 . S
N1400 H1406 0.984 . S
N1400 H1407 0.984 . S
N1401 C1394 1.356 . S
N1401 H1404 0.984 . S
N1401 H1405 0.985 . S
H1402 N1397 0.984 . S
H1403 N1397 0.985 . S
H1404 N1401 0.984 . S
H1405 N1401 0.985 . S
H1406 N1400 0.984 . S
H1407 N1400 0.984 . S
H1408 N1396 0.984 . S
H1409 N1396 0.985 . S
C1410 C1411 1.363 . S
C1410 C1416 1.379 . S
C1410 N1418 1.356 . S
C1411 C1410 1.363 . S
C1411 C1417 1.363 . S
C1412 C1413 1.363 . S
C1412 C1417 1.379 . S
C1412 N1419 1.356 . S
C1413 C1412 1.363 . S
C1413 C1416 1.363 . S
N1414 C1416 1.356 . S
N1414 H1426 0.984 . S
N1414 H1427 0.985 . S
N1415 C1417 1.356 . S
N1415 H1420 0.984 . S
N1415 H1421 0.985 . S
C1416 C1410 1.379 . S
C1416 C1413 1.363 . S
C1416 N1414 1.356 . S
C1417 C1411 1.363 . S
C1417 C1412 1.379 . S
C1417 N1415 1.356 . S
N1418 C1410 1.356 . S
N1418 H1424 0.984 . S
N1418 H1425 0.984 . S
N1419 C1412 1.356 . S
N1419 H1422 0.984 . S
N1419 H1423 0.985 . S
H1420 N1415 0.984 . S
H1421 N1415 0.985 . S
H1422 N1419 0.984 . S
H1423 N1419 0.985 . S
H1424 N1418 0.984 . S
H1425 N1418 0.984 . S
H1426 N1414 0.984 . S
H1427 N1414 0.985 . S
C1428 C1429 1.363 . S
C1428 C1434 1.379 1_455 S
C1428 N1436 1.356 . S
C1429 C1428 1.363 . S
C1429 C1435 1.363 . S
C1430 C1431 1.363 . S
C1430 C1435 1.379 1_655 S
C1430 N1437 1.356 . S
C1431 C1430 1.363 . S
C1431 C1434 1.363 . S
N1432 C1434 1.356 . S
N1432 H1444 0.984 . S
N1432 H1445 0.985 . S
N1433 C1435 1.356 . S
N1433 H1438 0.984 . S
N1433 H1439 0.985 . S
C1434 C1428 1.379 1_655 S
C1434 C1431 1.363 . S
C1434 N1432 1.356 . S
C1435 C1429 1.363 . S
C1435 C1430 1.379 1_455 S
C1435 N1433 1.356 . S
N1436 C1428 1.356 . S
N1436 H1442 0.984 . S
N1436 H1443 0.984 . S
N1437 C1430 1.356 . S
N1437 H1440 0.984 . S
N1437 H1441 0.985 . S
H1438 N1433 0.984 . S
H1439 N1433 0.985 . S
H1440 N1437 0.984 . S
H1441 N1437 0.985 . S
H1442 N1436 0.984 . S
H1443 N1436 0.984 . S
H1444 N1432 0.984 . S
H1445 N1432 0.985 . S
C1446 C1447 1.363 . S
C1446 C1452 1.379 . S
C1446 N1454 1.356 . S
C1447 C1446 1.363 . S
C1447 C1453 1.363 . S
C1448 C1449 1.363 . S
C1448 C1453 1.379 . S
C1448 N1455 1.356 . S
C1449 C1448 1.363 . S
C1449 C1452 1.363 . S
N1450 C1452 1.356 . S
N1450 H1462 0.984 . S
N1450 H1463 0.985 . S
N1451 C1453 1.356 . S
N1451 H1456 0.984 . S
N1451 H1457 0.985 . S
C1452 C1446 1.379 . S
C1452 C1449 1.363 . S
C1452 N1450 1.356 . S
C1453 C1447 1.363 . S
C1453 C1448 1.379 . S
C1453 N1451 1.356 . S
N1454 C1446 1.356 . S
N1454 H1460 0.984 . S
N1454 H1461 0.984 . S
N1455 C1448 1.356 . S
N1455 H1458 0.984 . S
N1455 H1459 0.985 . S
H1456 N1451 0.984 . S
H1457 N1451 0.985 . S
H1458 N1455 0.984 . S
H1459 N1455 0.985 . S
H1460 N1454 0.984 . S
H1461 N1454 0.984 . S
H1462 N1450 0.984 . S
H1463 N1450 0.985 . S
C1464 C1465 1.363 . S
C1464 C1470 1.379 1_455 S
C1464 N1472 1.356 . S
C1465 C1464 1.363 . S
C1465 C1471 1.363 . S
C1466 C1467 1.363 . S
C1466 C1471 1.379 1_655 S
C1466 N1473 1.356 . S
C1467 C1466 1.363 . S
C1467 C1470 1.363 . S
N1468 C1470 1.356 . S
N1468 H1480 0.984 . S
N1468 H1481 0.985 . S
N1469 C1471 1.356 . S
N1469 H1474 0.984 . S
N1469 H1475 0.985 . S
C1470 C1464 1.379 1_655 S
C1470 C1467 1.363 . S
C1470 N1468 1.356 . S
C1471 C1465 1.363 . S
C1471 C1466 1.379 1_455 S
C1471 N1469 1.356 . S
N1472 C1464 1.356 . S
N1472 H1478 0.984 . S
N1472 H1479 0.984 . S
N1473 C1466 1.356 . S
N1473 H1476 0.984 . S
N1473 H1477 0.985 . S
H1474 N1469 0.984 . S
H1475 N1469 0.985 . S
H1476 N1473 0.984 . S
H1477 N1473 0.985 . S
H1478 N1472 0.984 . S
H1479 N1472 0.984 . S
H1480 N1468 0.984 . S
H1481 N1468 0.985 . S
C1482 C1483 1.363 . S
C1482 C1488 1.379 . S
C1482 N1490 1.356 . S
C1483 C1482 1.363 . S
C1483 C1489 1.363 . S
C1484 C1485 1.363 . S
C1484 C1489 1.379 . S
C1484 N1491 1.356 . S
C1485 C1484 1.363 . S
C1485 C1488 1.363 . S
N1486 C1488 1.356 . S
N1486 H1498 0.984 . S
N1486 H1499 0.985 . S
N1487 C1489 1.356 . S
N1487 H1492 0.984 . S
N1487 H1493 0.985 . S
C1488 C1482 1.379 . S
C1488 C1485 1.363 . S
C1488 N1486 1.356 . S
C1489 C1483 1.363 . S
C1489 C1484 1.379 . S
C1489 N1487 1.356 . S
N1490 C1482 1.356 . S
N1490 H1496 0.984 . S
N1490 H1497 0.984 . S
N1491 C1484 1.356 . S
N1491 H1494 0.984 . S
N1491 H1495 0.985 . S
H1492 N1487 0.984 . S
H1493 N1487 0.985 . S
H1494 N1491 0.984 . S
H1495 N1491 0.985 . S
H1496 N1490 0.984 . S
H1497 N1490 0.984 . S
H1498 N1486 0.984 . S
H1499 N1486 0.985 . S
C1500 C1501 1.363 . S
C1500 C1506 1.379 1_655 S
C1500 N1508 1.356 . S
C1501 C1500 1.363 . S
C1501 C1507 1.363 . S
C1502 C1503 1.363 . S
C1502 C1507 1.379 1_455 S
C1502 N1509 1.356 . S
C1503 C1502 1.363 . S
C1503 C1506 1.363 . S
N1504 C1506 1.356 . S
N1504 H1516 0.984 . S
N1504 H1517 0.985 . S
N1505 C1507 1.356 . S
N1505 H1510 0.984 . S
N1505 H1511 0.985 . S
C1506 C1500 1.379 1_455 S
C1506 C1503 1.363 . S
C1506 N1504 1.356 . S
C1507 C1501 1.363 . S
C1507 C1502 1.379 1_655 S
C1507 N1505 1.356 . S
N1508 C1500 1.356 . S
N1508 H1514 0.984 . S
N1508 H1515 0.984 . S
N1509 C1502 1.356 . S
N1509 H1512 0.984 . S
N1509 H1513 0.985 . S
H1510 N1505 0.984 . S
H1511 N1505 0.985 . S
H1512 N1509 0.984 . S
H1513 N1509 0.985 . S
H1514 N1508 0.984 . S
H1515 N1508 0.984 . S
H1516 N1504 0.984 . S
H1517 N1504 0.985 . S
C1518 C1519 1.363 . S
C1518 C1524 1.379 1_455 S
C1518 N1526 1.356 . S
C1519 C1518 1.363 . S
C1519 C1525 1.363 . S
C1520 C1521 1.363 . S
C1520 C1525 1.379 1_655 S
C1520 N1527 1.356 . S
C1521 C1520 1.363 . S
C1521 C1524 1.363 . S
N1522 C1524 1.356 . S
N1522 H1534 0.984 . S
N1522 H1535 0.985 . S
N1523 C1525 1.356 . S
N1523 H1528 0.984 . S
N1523 H1529 0.985 . S
C1524 C1518 1.379 1_655 S
C1524 C1521 1.363 . S
C1524 N1522 1.356 . S
C1525 C1519 1.363 . S
C1525 C1520 1.379 1_455 S
C1525 N1523 1.356 . S
N1526 C1518 1.356 . S
N1526 H1532 0.984 . S
N1526 H1533 0.984 . S
N1527 C1520 1.356 . S
N1527 H1530 0.984 . S
N1527 H1531 0.985 . S
H1528 N1523 0.984 . S
H1529 N1523 0.985 . S
H1530 N1527 0.984 . S
H1531 N1527 0.985 . S
H1532 N1526 0.984 . S
H1533 N1526 0.984 . S
H1534 N1522 0.984 . S
H1535 N1522 0.985 . S
C1536 C1537 1.363 . S
C1536 C1542 1.379 1_655 S
C1536 N1544 1.356 . S
C1537 C1536 1.363 . S
C1537 C1543 1.363 . S
C1538 C1539 1.363 . S
C1538 C1543 1.379 1_455 S
C1538 N1545 1.356 . S
C1539 C1538 1.363 . S
C1539 C1542 1.363 . S
N1540 C1542 1.356 . S
N1540 H1552 0.984 . S
N1540 H1553 0.985 . S
N1541 C1543 1.356 . S
N1541 H1546 0.984 . S
N1541 H1547 0.985 . S
C1542 C1536 1.379 1_455 S
C1542 C1539 1.363 . S
C1542 N1540 1.356 . S
C1543 C1537 1.363 . S
C1543 C1538 1.379 1_655 S
C1543 N1541 1.356 . S
N1544 C1536 1.356 . S
N1544 H1550 0.984 . S
N1544 H1551 0.984 . S
N1545 C1538 1.356 . S
N1545 H1548 0.984 . S
N1545 H1549 0.985 . S
H1546 N1541 0.984 . S
H1547 N1541 0.985 . S
H1548 N1545 0.984 . S
H1549 N1545 0.985 . S
H1550 N1544 0.984 . S
H1551 N1544 0.984 . S
H1552 N1540 0.984 . S
H1553 N1540 0.985 . S
C1554 C1555 1.363 . S
C1554 C1560 1.379 . S
C1554 N1562 1.356 . S
C1555 C1554 1.363 . S
C1555 C1561 1.363 . S
C1556 C1557 1.363 . S
C1556 C1561 1.379 . S
C1556 N1563 1.356 . S
C1557 C1556 1.363 . S
C1557 C1560 1.363 . S
N1558 C1560 1.356 . S
N1558 H1570 0.984 . S
N1558 H1571 0.985 . S
N1559 C1561 1.356 . S
N1559 H1564 0.984 . S
N1559 H1565 0.985 . S
C1560 C1554 1.379 . S
C1560 C1557 1.363 . S
C1560 N1558 1.356 . S
C1561 C1555 1.363 . S
C1561 C1556 1.379 . S
C1561 N1559 1.356 . S
N1562 C1554 1.356 . S
N1562 H1568 0.984 . S
N1562 H1569 0.984 . S
N1563 C1556 1.356 . S
N1563 H1566 0.984 . S
N1563 H1567 0.985 . S
H1564 N1559 0.984 . S
H1565 N1559 0.985 . S
H1566 N1563 0.984 . S
H1567 N1563 0.985 . S
H1568 N1562 0.984 . S
H1569 N1562 0.984 . S
H1570 N1558 0.984 . S
H1571 N1558 0.985 . S
C1572 C1573 1.363 . S
C1572 C1578 1.379 1_455 S
C1572 N1580 1.356 . S
C1573 C1572 1.363 . S
C1573 C1579 1.363 . S
C1574 C1575 1.363 . S
C1574 C1579 1.379 1_655 S
C1574 N1581 1.356 . S
C1575 C1574 1.363 . S
C1575 C1578 1.363 . S
N1576 C1578 1.356 . S
N1576 H1588 0.984 . S
N1576 H1589 0.985 . S
N1577 C1579 1.356 . S
N1577 H1582 0.984 . S
N1577 H1583 0.985 . S
C1578 C1572 1.379 1_655 S
C1578 C1575 1.363 . S
C1578 N1576 1.356 . S
C1579 C1573 1.363 . S
C1579 C1574 1.379 1_455 S
C1579 N1577 1.356 . S
N1580 C1572 1.356 . S
N1580 H1586 0.984 . S
N1580 H1587 0.984 . S
N1581 C1574 1.356 . S
N1581 H1584 0.984 . S
N1581 H1585 0.985 . S
H1582 N1577 0.984 . S
H1583 N1577 0.985 . S
H1584 N1581 0.984 . S
H1585 N1581 0.985 . S
H1586 N1580 0.984 . S
H1587 N1580 0.984 . S
H1588 N1576 0.984 . S
H1589 N1576 0.985 . S
C1590 C1591 1.363 . S
C1590 C1596 1.379 . S
C1590 N1598 1.356 . S
C1591 C1590 1.363 . S
C1591 C1597 1.363 . S
C1592 C1593 1.363 . S
C1592 C1597 1.379 . S
C1592 N1599 1.356 . S
C1593 C1592 1.363 . S
C1593 C1596 1.363 . S
N1594 C1596 1.356 . S
N1594 H1606 0.984 . S
N1594 H1607 0.985 . S
N1595 C1597 1.356 . S
N1595 H1600 0.984 . S
N1595 H1601 0.985 . S
C1596 C1590 1.379 . S
C1596 C1593 1.363 . S
C1596 N1594 1.356 . S
C1597 C1591 1.363 . S
C1597 C1592 1.379 . S
C1597 N1595 1.356 . S
N1598 C1590 1.356 . S
N1598 H1604 0.984 . S
N1598 H1605 0.984 . S
N1599 C1592 1.356 . S
N1599 H1602 0.984 . S
N1599 H1603 0.985 . S
H1600 N1595 0.984 . S
H1601 N1595 0.985 . S
H1602 N1599 0.984 . S
H1603 N1599 0.985 . S
H1604 N1598 0.984 . S
H1605 N1598 0.984 . S
H1606 N1594 0.984 . S
H1607 N1594 0.985 . S
C1608 C1609 1.363 . S
C1608 C1614 1.379 1_655 S
C1608 N1616 1.356 . S
C1609 C1608 1.363 . S
C1609 C1615 1.363 . S
C1610 C1611 1.363 . S
C1610 C1615 1.379 1_455 S
C1610 N1617 1.356 . S
C1611 C1610 1.363 . S
C1611 C1614 1.363 . S
N1612 C1614 1.356 . S
N1612 H1624 0.984 . S
N1612 H1625 0.985 . S
N1613 C1615 1.356 . S
N1613 H1618 0.984 . S
N1613 H1619 0.985 . S
C1614 C1608 1.379 1_455 S
C1614 C1611 1.363 . S
C1614 N1612 1.356 . S
C1615 C1609 1.363 . S
C1615 C1610 1.379 1_655 S
C1615 N1613 1.356 . S
N1616 C1608 1.356 . S
N1616 H1622 0.984 . S
N1616 H1623 0.984 . S
N1617 C1610 1.356 . S
N1617 H1620 0.984 . S
N1617 H1621 0.985 . S
H1618 N1613 0.984 . S
H1619 N1613 0.985 . S
H1620 N1617 0.984 . S
H1621 N1617 0.985 . S
H1622 N1616 0.984 . S
H1623 N1616 0.984 . S
H1624 N1612 0.984 . S
H1625 N1612 0.985 . S
C1626 C1627 1.363 . S
C1626 C1632 1.379 . S
C1626 N1634 1.356 . S
C1627 C1626 1.363 . S
C1627 C1633 1.363 . S
C1628 C1629 1.363 . S
C1628 C1633 1.379 . S
C1628 N1635 1.356 . S
C1629 C1628 1.363 . S
C1629 C1632 1.363 . S
N1630 C1632 1.356 . S
N1630 H1642 0.984 . S
N1630 H1643 0.985 . S
N1631 C1633 1.356 . S
N1631 H1636 0.984 . S
N1631 H1637 0.985 . S
C1632 C1626 1.379 . S
C1632 C1629 1.363 . S
C1632 N1630 1.356 . S
C1633 C1627 1.363 . S
C1633 C1628 1.379 . S
C1633 N1631 1.356 . S
N1634 C1626 1.356 . S
N1634 H1640 0.984 . S
N1634 H1641 0.984 . S
N1635 C1628 1.356 . S
N1635 H1638 0.984 . S
N1635 H1639 0.985 . S
H1636 N1631 0.984 . S
H1637 N1631 0.985 . S
H1638 N1635 0.984 . S
H1639 N1635 0.985 . S
H1640 N1634 0.984 . S
H1641 N1634 0.984 . S
H1642 N1630 0.984 . S
H1643 N1630 0.985 . S
C1644 C1645 1.363 . S
C1644 C1650 1.379 1_655 S
C1644 N1652 1.356 . S
C1645 C1644 1.363 . S
C1645 C1651 1.363 . S
C1646 C1647 1.363 . S
C1646 C1651 1.379 1_455 S
C1646 N1653 1.356 . S
C1647 C1646 1.363 . S
C1647 C1650 1.363 . S
N1648 C1650 1.356 . S
N1648 H1660 0.984 . S
N1648 H1661 0.985 . S
N1649 C1651 1.356 . S
N1649 H1654 0.984 . S
N1649 H1655 0.985 . S
C1650 C1644 1.379 1_455 S
C1650 C1647 1.363 . S
C1650 N1648 1.356 . S
C1651 C1645 1.363 . S
C1651 C1646 1.379 1_655 S
C1651 N1649 1.356 . S
N1652 C1644 1.356 . S
N1652 H1658 0.984 . S
N1652 H1659 0.984 . S
N1653 C1646 1.356 . S
N1653 H1656 0.984 . S
N1653 H1657 0.985 . S
H1654 N1649 0.984 . S
H1655 N1649 0.985 . S
H1656 N1653 0.984 . S
H1657 N1653 0.985 . S
H1658 N1652 0.984 . S
H1659 N1652 0.984 . S
H1660 N1648 0.984 . S
H1661 N1648 0.985 . S
C1662 C1663 1.363 . S
C1662 C1668 1.379 . S
C1662 N1670 1.356 . S
C1663 C1662 1.363 . S
C1663 C1669 1.363 . S
C1664 C1665 1.363 . S
C1664 C1669 1.379 . S
C1664 N1671 1.356 . S
C1665 C1664 1.363 . S
C1665 C1668 1.363 . S
N1666 C1668 1.356 . S
N1666 H1678 0.984 . S
N1666 H1679 0.985 . S
N1667 C1669 1.356 . S
N1667 H1672 0.984 . S
N1667 H1673 0.985 . S
C1668 C1662 1.379 . S
C1668 C1665 1.363 . S
C1668 N1666 1.356 . S
C1669 C1663 1.363 . S
C1669 C1664 1.379 . S
C1669 N1667 1.356 . S
N1670 C1662 1.356 . S
N1670 H1676 0.984 . S
N1670 H1677 0.984 . S
N1671 C1664 1.356 . S
N1671 H1674 0.984 . S
N1671 H1675 0.985 . S
H1672 N1667 0.984 . S
H1673 N1667 0.985 . S
H1674 N1671 0.984 . S
H1675 N1671 0.985 . S
H1676 N1670 0.984 . S
H1677 N1670 0.984 . S
H1678 N1666 0.984 . S
H1679 N1666 0.985 . S
C1680 C1681 1.363 . S
C1680 C1686 1.379 1_545 S
C1680 N1688 1.356 . S
C1681 C1680 1.363 . S
C1681 C1687 1.363 . S
C1682 C1683 1.363 . S
C1682 C1687 1.379 1_565 S
C1682 N1689 1.356 . S
C1683 C1682 1.363 . S
C1683 C1686 1.363 . S
N1684 C1686 1.356 . S
N1684 H1696 0.984 . S
N1684 H1697 0.985 . S
N1685 C1687 1.356 . S
N1685 H1690 0.984 . S
N1685 H1691 0.985 . S
C1686 C1680 1.379 1_565 S
C1686 C1683 1.363 . S
C1686 N1684 1.356 . S
C1687 C1681 1.363 . S
C1687 C1682 1.379 1_545 S
C1687 N1685 1.356 . S
N1688 C1680 1.356 . S
N1688 H1694 0.984 . S
N1688 H1695 0.984 . S
N1689 C1682 1.356 . S
N1689 H1692 0.984 . S
N1689 H1693 0.985 . S
H1690 N1685 0.984 . S
H1691 N1685 0.985 . S
H1692 N1689 0.984 . S
H1693 N1689 0.985 . S
H1694 N1688 0.984 . S
H1695 N1688 0.984 . S
H1696 N1684 0.984 . S
H1697 N1684 0.985 . S
C1698 C1699 1.363 . S
C1698 C1704 1.379 . S
C1698 N1706 1.356 . S
C1699 C1698 1.363 . S
C1699 C1705 1.363 . S
C1700 C1701 1.363 . S
C1700 C1705 1.379 . S
C1700 N1707 1.356 . S
C1701 C1700 1.363 . S
C1701 C1704 1.363 . S
N1702 C1704 1.356 . S
N1702 H1714 0.984 . S
N1702 H1715 0.985 . S
N1703 C1705 1.356 . S
N1703 H1708 0.984 . S
N1703 H1709 0.985 . S
C1704 C1698 1.379 . S
C1704 C1701 1.363 . S
C1704 N1702 1.356 . S
C1705 C1699 1.363 . S
C1705 C1700 1.379 . S
C1705 N1703 1.356 . S
N1706 C1698 1.356 . S
N1706 H1712 0.984 . S
N1706 H1713 0.984 . S
N1707 C1700 1.356 . S
N1707 H1710 0.984 . S
N1707 H1711 0.985 . S
H1708 N1703 0.984 . S
H1709 N1703 0.985 . S
H1710 N1707 0.984 . S
H1711 N1707 0.985 . S
H1712 N1706 0.984 . S
H1713 N1706 0.984 . S
H1714 N1702 0.984 . S
H1715 N1702 0.985 . S
C1716 C1717 1.363 . S
C1716 C1722 1.379 1_545 S
C1716 N1724 1.356 . S
C1717 C1716 1.363 . S
C1717 C1723 1.363 . S
C1718 C1719 1.363 . S
C1718 C1723 1.379 1_565 S
C1718 N1725 1.356 . S
C1719 C1718 1.363 . S
C1719 C1722 1.363 . S
N1720 C1722 1.356 . S
N1720 H1732 0.984 . S
N1720 H1733 0.985 . S
N1721 C1723 1.356 . S
N1721 H1726 0.984 . S
N1721 H1727 0.985 . S
C1722 C1716 1.379 1_565 S
C1722 C1719 1.363 . S
C1722 N1720 1.356 . S
C1723 C1717 1.363 . S
C1723 C1718 1.379 1_545 S
C1723 N1721 1.356 . S
N1724 C1716 1.356 . S
N1724 H1730 0.984 . S
N1724 H1731 0.984 . S
N1725 C1718 1.356 . S
N1725 H1728 0.984 . S
N1725 H1729 0.985 . S
H1726 N1721 0.984 . S
H1727 N1721 0.985 . S
H1728 N1725 0.984 . S
H1729 N1725 0.985 . S
H1730 N1724 0.984 . S
H1731 N1724 0.984 . S
H1732 N1720 0.984 . S
H1733 N1720 0.985 . S
C1734 C1735 1.363 . S
C1734 C1740 1.379 . S
C1734 N1742 1.356 . S
C1735 C1734 1.363 . S
C1735 C1741 1.363 . S
C1736 C1737 1.363 . S
C1736 C1741 1.379 . S
C1736 N1743 1.356 . S
C1737 C1736 1.363 . S
C1737 C1740 1.363 . S
N1738 C1740 1.356 . S
N1738 H1750 0.984 . S
N1738 H1751 0.985 . S
N1739 C1741 1.356 . S
N1739 H1744 0.984 . S
N1739 H1745 0.985 . S
C1740 C1734 1.379 . S
C1740 C1737 1.363 . S
C1740 N1738 1.356 . S
C1741 C1735 1.363 . S
C1741 C1736 1.379 . S
C1741 N1739 1.356 . S
N1742 C1734 1.356 . S
N1742 H1748 0.984 . S
N1742 H1749 0.984 . S
N1743 C1736 1.356 . S
N1743 H1746 0.984 . S
N1743 H1747 0.985 . S
H1744 N1739 0.984 . S
H1745 N1739 0.985 . S
H1746 N1743 0.984 . S
H1747 N1743 0.985 . S
H1748 N1742 0.984 . S
H1749 N1742 0.984 . S
H1750 N1738 0.984 . S
H1751 N1738 0.985 . S
C1752 C1753 1.363 . S
C1752 C1758 1.379 1_545 S
C1752 N1760 1.356 . S
C1753 C1752 1.363 . S
C1753 C1759 1.363 . S
C1754 C1755 1.363 . S
C1754 C1759 1.379 1_565 S
C1754 N1761 1.356 . S
C1755 C1754 1.363 . S
C1755 C1758 1.363 . S
N1756 C1758 1.356 . S
N1756 H1768 0.984 . S
N1756 H1769 0.985 . S
N1757 C1759 1.356 . S
N1757 H1762 0.984 . S
N1757 H1763 0.985 . S
C1758 C1752 1.379 1_565 S
C1758 C1755 1.363 . S
C1758 N1756 1.356 . S
C1759 C1753 1.363 . S
C1759 C1754 1.379 1_545 S
C1759 N1757 1.356 . S
N1760 C1752 1.356 . S
N1760 H1766 0.984 . S
N1760 H1767 0.984 . S
N1761 C1754 1.356 . S
N1761 H1764 0.984 . S
N1761 H1765 0.985 . S
H1762 N1757 0.984 . S
H1763 N1757 0.985 . S
H1764 N1761 0.984 . S
H1765 N1761 0.985 . S
H1766 N1760 0.984 . S
H1767 N1760 0.984 . S
H1768 N1756 0.984 . S
H1769 N1756 0.985 . S
C1770 C1771 1.363 . S
C1770 C1776 1.379 . S
C1770 N1778 1.356 . S
C1771 C1770 1.363 . S
C1771 C1777 1.363 . S
C1772 C1773 1.363 . S
C1772 C1777 1.379 . S
C1772 N1779 1.356 . S
C1773 C1772 1.363 . S
C1773 C1776 1.363 . S
N1774 C1776 1.356 . S
N1774 H1786 0.984 . S
N1774 H1787 0.985 . S
N1775 C1777 1.356 . S
N1775 H1780 0.984 . S
N1775 H1781 0.985 . S
C1776 C1770 1.379 . S
C1776 C1773 1.363 . S
C1776 N1774 1.356 . S
C1777 C1771 1.363 . S
C1777 C1772 1.379 . S
C1777 N1775 1.356 . S
N1778 C1770 1.356 . S
N1778 H1784 0.984 . S
N1778 H1785 0.984 . S
N1779 C1772 1.356 . S
N1779 H1782 0.984 . S
N1779 H1783 0.985 . S
H1780 N1775 0.984 . S
H1781 N1775 0.985 . S
H1782 N1779 0.984 . S
H1783 N1779 0.985 . S
H1784 N1778 0.984 . S
H1785 N1778 0.984 . S
H1786 N1774 0.984 . S
H1787 N1774 0.985 . S
C1788 C1789 1.363 . S
C1788 C1794 1.379 1_545 S
C1788 N1796 1.356 . S
C1789 C1788 1.363 . S
C1789 C1795 1.363 . S
C1790 C1791 1.363 . S
C1790 C1795 1.379 1_565 S
C1790 N1797 1.356 . S
C1791 C1790 1.363 . S
C1791 C1794 1.363 . S
N1792 C1794 1.356 . S
N1792 H1804 0.984 . S
N1792 H1805 0.985 . S
N1793 C1795 1.356 . S
N1793 H1798 0.984 . S
N1793 H1799 0.985 . S
C1794 C1788 1.379 1_565 S
C1794 C1791 1.363 . S
C1794 N1792 1.356 . S
C1795 C1789 1.363 . S
C1795 C1790 1.379 1_545 S
C1795 N1793 1.356 . S
N1796 C1788 1.356 . S
N1796 H1802 0.984 . S
N1796 H1803 0.984 . S
N1797 C1790 1.356 . S
N1797 H1800 0.984 . S
N1797 H1801 0.985 . S
H1798 N1793 0.984 . S
H1799 N1793 0.985 . S
H1800 N1797 0.984 . S
H1801 N1797 0.985 . S
H1802 N1796 0.984 . S
H1803 N1796 0.984 . S
H1804 N1792 0.984 . S
H1805 N1792 0.985 . S
C1806 C1807 1.363 . S
C1806 C1812 1.379 . S
C1806 N1814 1.356 . S
C1807 C1806 1.363 . S
C1807 C1813 1.363 . S
C1808 C1809 1.363 . S
C1808 C1813 1.379 . S
C1808 N1815 1.356 . S
C1809 C1808 1.363 . S
C1809 C1812 1.363 . S
N1810 C1812 1.356 . S
N1810 H1822 0.984 . S
N1810 H1823 0.985 . S
N1811 C1813 1.356 . S
N1811 H1816 0.984 . S
N1811 H1817 0.985 . S
C1812 C1806 1.379 . S
C1812 C1809 1.363 . S
C1812 N1810 1.356 . S
C1813 C1807 1.363 . S
C1813 C1808 1.379 . S
C1813 N1811 1.356 . S
N1814 C1806 1.356 . S
N1814 H1820 0.984 . S
N1814 H1821 0.984 . S
N1815 C1808 1.356 . S
N1815 H1818 0.984 . S
N1815 H1819 0.985 . S
H1816 N1811 0.984 . S
H1817 N1811 0.985 . S
H1818 N1815 0.984 . S
H1819 N1815 0.985 . S
H1820 N1814 0.984 . S
H1821 N1814 0.984 . S
H1822 N1810 0.984 . S
H1823 N1810 0.985 . S
C1824 C1825 1.363 . S
C1824 C1830 1.379 1_556 S
C1824 N1832 1.356 . S
C1825 C1824 1.363 . S
C1825 C1831 1.363 . S
C1826 C1827 1.363 . S
C1826 C1831 1.379 1_554 S
C1826 N1833 1.356 . S
C1827 C1826 1.363 . S
C1827 C1830 1.363 . S
N1828 C1830 1.356 . S
N1828 H1840 0.984 . S
N1828 H1841 0.985 . S
N1829 C1831 1.356 . S
N1829 H1834 0.984 . S
N1829 H1835 0.985 . S
C1830 C1824 1.379 1_554 S
C1830 C1827 1.363 . S
C1830 N1828 1.356 . S
C1831 C1825 1.363 . S
C1831 C1826 1.379 1_556 S
C1831 N1829 1.356 . S
N1832 C1824 1.356 . S
N1832 H1838 0.984 . S
N1832 H1839 0.984 . S
N1833 C1826 1.356 . S
N1833 H1836 0.984 . S
N1833 H1837 0.985 . S
H1834 N1829 0.984 . S
H1835 N1829 0.985 . S
H1836 N1833 0.984 . S
H1837 N1833 0.985 . S
H1838 N1832 0.984 . S
H1839 N1832 0.984 . S
H1840 N1828 0.984 . S
H1841 N1828 0.985 . S
C1842 C1843 1.363 . S
C1842 C1848 1.379 1_556 S
C1842 N1850 1.356 . S
C1843 C1842 1.363 . S
C1843 C1849 1.363 . S
C1844 C1845 1.363 . S
C1844 C1849 1.379 1_554 S
C1844 N1851 1.356 . S
C1845 C1844 1.363 . S
C1845 C1848 1.363 . S
N1846 C1848 1.356 . S
N1846 H1858 0.984 . S
N1846 H1859 0.985 . S
N1847 C1849 1.356 . S
N1847 H1852 0.984 . S
N1847 H1853 0.985 . S
C1848 C1842 1.379 1_554 S
C1848 C1845 1.363 . S
C1848 N1846 1.356 . S
C1849 C1843 1.363 . S
C1849 C1844 1.379 1_556 S
C1849 N1847 1.356 . S
N1850 C1842 1.356 . S
N1850 H1856 0.984 . S
N1850 H1857 0.984 . S
N1851 C1844 1.356 . S
N1851 H1854 0.984 . S
N1851 H1855 0.985 . S
H1852 N1847 0.984 . S
H1853 N1847 0.985 . S
H1854 N1851 0.984 . S
H1855 N1851 0.985 . S
H1856 N1850 0.984 . S
H1857 N1850 0.984 . S
H1858 N1846 0.984 . S
H1859 N1846 0.985 . S
C1860 C1861 1.363 . S
C1860 C1866 1.379 . S
C1860 N1868 1.356 . S
C1861 C1860 1.363 . S
C1861 C1867 1.363 . S
C1862 C1863 1.363 . S
C1862 C1867 1.379 . S
C1862 N1869 1.356 . S
C1863 C1862 1.363 . S
C1863 C1866 1.363 . S
N1864 C1866 1.356 . S
N1864 H1876 0.984 . S
N1864 H1877 0.985 . S
N1865 C1867 1.356 . S
N1865 H1870 0.984 . S
N1865 H1871 0.985 . S
C1866 C1860 1.379 . S
C1866 C1863 1.363 . S
C1866 N1864 1.356 . S
C1867 C1861 1.363 . S
C1867 C1862 1.379 . S
C1867 N1865 1.356 . S
N1868 C1860 1.356 . S
N1868 H1874 0.984 . S
N1868 H1875 0.984 . S
N1869 C1862 1.356 . S
N1869 H1872 0.984 . S
N1869 H1873 0.985 . S
H1870 N1865 0.984 . S
H1871 N1865 0.985 . S
H1872 N1869 0.984 . S
H1873 N1869 0.985 . S
H1874 N1868 0.984 . S
H1875 N1868 0.984 . S
H1876 N1864 0.984 . S
H1877 N1864 0.985 . S
C1878 C1879 1.363 . S
C1878 C1884 1.379 1_556 S
C1878 N1886 1.356 . S
C1879 C1878 1.363 . S
C1879 C1885 1.363 . S
C1880 C1881 1.363 . S
C1880 C1885 1.379 1_554 S
C1880 N1887 1.356 . S
C1881 C1880 1.363 . S
C1881 C1884 1.363 . S
N1882 C1884 1.356 . S
N1882 H1894 0.984 . S
N1882 H1895 0.985 . S
N1883 C1885 1.356 . S
N1883 H1888 0.984 . S
N1883 H1889 0.985 . S
C1884 C1878 1.379 1_554 S
C1884 C1881 1.363 . S
C1884 N1882 1.356 . S
C1885 C1879 1.363 . S
C1885 C1880 1.379 1_556 S
C1885 N1883 1.356 . S
N1886 C1878 1.356 . S
N1886 H1892 0.984 . S
N1886 H1893 0.984 . S
N1887 C1880 1.356 . S
N1887 H1890 0.984 . S
N1887 H1891 0.985 . S
H1888 N1883 0.984 . S
H1889 N1883 0.985 . S
H1890 N1887 0.984 . S
H1891 N1887 0.985 . S
H1892 N1886 0.984 . S
H1893 N1886 0.984 . S
H1894 N1882 0.984 . S
H1895 N1882 0.985 . S
C1896 C1897 1.363 . S
C1896 C1902 1.379 . S
C1896 N1904 1.356 . S
C1897 C1896 1.363 . S
C1897 C1903 1.363 . S
C1898 C1899 1.363 . S
C1898 C1903 1.379 . S
C1898 N1905 1.356 . S
C1899 C1898 1.363 . S
C1899 C1902 1.363 . S
N1900 C1902 1.356 . S
N1900 H1912 0.984 . S
N1900 H1913 0.985 . S
N1901 C1903 1.356 . S
N1901 H1906 0.984 . S
N1901 H1907 0.985 . S
C1902 C1896 1.379 . S
C1902 C1899 1.363 . S
C1902 N1900 1.356 . S
C1903 C1897 1.363 . S
C1903 C1898 1.379 . S
C1903 N1901 1.356 . S
N1904 C1896 1.356 . S
N1904 H1910 0.984 . S
N1904 H1911 0.984 . S
N1905 C1898 1.356 . S
N1905 H1908 0.984 . S
N1905 H1909 0.985 . S
H1906 N1901 0.984 . S
H1907 N1901 0.985 . S
H1908 N1905 0.984 . S
H1909 N1905 0.985 . S
H1910 N1904 0.984 . S
H1911 N1904 0.984 . S
H1912 N1900 0.984 . S
H1913 N1900 0.985 . S
C1914 C1915 1.363 . S
C1914 C1920 1.379 1_556 S
C1914 N1922 1.356 . S
C1915 C1914 1.363 . S
C1915 C1921 1.363 . S
C1916 C1917 1.363 . S
C1916 C1921 1.379 1_554 S
C1916 N1923 1.356 . S
C1917 C1916 1.363 . S
C1917 C1920 1.363 . S
N1918 C1920 1.356 . S
N1918 H1930 0.984 . S
N1918 H1931 0.985 . S
N1919 C1921 1.356 . S
N1919 H1924 0.984 . S
N1919 H1925 0.985 . S
C1920 C1914 1.379 1_554 S
C1920 C1917 1.363 . S
C1920 N1918 1.356 . S
C1921 C1915 1.363 . S
C1921 C1916 1.379 1_556 S
C1921 N1919 1.356 . S
N1922 C1914 1.356 . S
N1922 H1928 0.984 . S
N1922 H1929 0.984 . S
N1923 C1916 1.356 . S
N1923 H1926 0.984 . S
N1923 H1927 0.985 . S
H1924 N1919 0.984 . S
H1925 N1919 0.985 . S
H1926 N1923 0.984 . S
H1927 N1923 0.985 . S
H1928 N1922 0.984 . S
H1929 N1922 0.984 . S
H1930 N1918 0.984 . S
H1931 N1918 0.985 . S
C1932 C1933 1.363 . S
C1932 C1938 1.379 . S
C1932 N1940 1.356 . S
C1933 C1932 1.363 . S
C1933 C1939 1.363 . S
C1934 C1935 1.363 . S
C1934 C1939 1.379 . S
C1934 N1941 1.356 . S
C1935 C1934 1.363 . S
C1935 C1938 1.363 . S
N1936 C1938 1.356 . S
N1936 H1948 0.984 . S
N1936 H1949 0.985 . S
N1937 C1939 1.356 . S
N1937 H1942 0.984 . S
N1937 H1943 0.985 . S
C1938 C1932 1.379 . S
C1938 C1935 1.363 . S
C1938 N1936 1.356 . S
C1939 C1933 1.363 . S
C1939 C1934 1.379 . S
C1939 N1937 1.356 . S
N1940 C1932 1.356 . S
N1940 H1946 0.984 . S
N1940 H1947 0.984 . S
N1941 C1934 1.356 . S
N1941 H1944 0.984 . S
N1941 H1945 0.985 . S
H1942 N1937 0.984 . S
H1943 N1937 0.985 . S
H1944 N1941 0.984 . S
H1945 N1941 0.985 . S
H1946 N1940 0.984 . S
H1947 N1940 0.984 . S
H1948 N1936 0.984 . S
H1949 N1936 0.985 . S
C1950 C1951 1.363 . S
C1950 C1956 1.379 . S
C1950 N1958 1.356 . S
C1951 C1950 1.363 . S
C1951 C1957 1.363 . S
C1952 C1953 1.363 . S
C1952 C1957 1.379 . S
C1952 N1959 1.356 . S
C1953 C1952 1.363 . S
C1953 C1956 1.363 . S
N1954 C1956 1.356 . S
N1954 H1966 0.984 . S
N1954 H1967 0.985 . S
N1955 C1957 1.356 . S
N1955 H1960 0.984 . S
N1955 H1961 0.985 . S
C1956 C1950 1.379 . S
C1956 C1953 1.363 . S
C1956 N1954 1.356 . S
C1957 C1951 1.363 . S
C1957 C1952 1.379 . S
C1957 N1955 1.356 . S
N1958 C1950 1.356 . S
N1958 H1964 0.984 . S
N1958 H1965 0.984 . S
N1959 C1952 1.356 . S
N1959 H1962 0.984 . S
N1959 H1963 0.985 . S
H1960 N1955 0.984 . S
H1961 N1955 0.985 . S
H1962 N1959 0.984 . S
H1963 N1959 0.985 . S
H1964 N1958 0.984 . S
H1965 N1958 0.984 . S
H1966 N1954 0.984 . S
H1967 N1954 0.985 . S
C1968 C1969 1.363 . S
C1968 C1974 1.379 . S
C1968 N1976 1.356 . S
C1969 C1968 1.363 . S
C1969 C1975 1.363 . S
C1970 C1971 1.363 . S
C1970 C1975 1.379 . S
C1970 N1977 1.356 . S
C1971 C1970 1.363 . S
C1971 C1974 1.363 . S
N1972 C1974 1.356 . S
N1972 H1984 0.984 . S
N1972 H1985 0.985 . S
N1973 C1975 1.356 . S
N1973 H1978 0.984 . S
N1973 H1979 0.985 . S
C1974 C1968 1.379 . S
C1974 C1971 1.363 . S
C1974 N1972 1.356 . S
C1975 C1969 1.363 . S
C1975 C1970 1.379 . S
C1975 N1973 1.356 . S
N1976 C1968 1.356 . S
N1976 H1982 0.984 . S
N1976 H1983 0.984 . S
N1977 C1970 1.356 . S
N1977 H1980 0.984 . S
N1977 H1981 0.985 . S
H1978 N1973 0.984 . S
H1979 N1973 0.985 . S
H1980 N1977 0.984 . S
H1981 N1977 0.985 . S
H1982 N1976 0.984 . S
H1983 N1976 0.984 . S
H1984 N1972 0.984 . S
H1985 N1972 0.985 . S
C1986 C1987 1.363 . S
C1986 C1992 1.379 . S
C1986 N1994 1.356 . S
C1987 C1986 1.363 . S
C1987 C1993 1.363 . S
C1988 C1989 1.363 . S
C1988 C1993 1.379 . S
C1988 N1995 1.356 . S
C1989 C1988 1.363 . S
C1989 C1992 1.363 . S
N1990 C1992 1.356 . S
N1990 H2002 0.984 . S
N1990 H2003 0.985 . S
N1991 C1993 1.356 . S
N1991 H1996 0.984 . S
N1991 H1997 0.985 . S
C1992 C1986 1.379 . S
C1992 C1989 1.363 . S
C1992 N1990 1.356 . S
C1993 C1987 1.363 . S
C1993 C1988 1.379 . S
C1993 N1991 1.356 . S
N1994 C1986 1.356 . S
N1994 H2000 0.984 . S
N1994 H2001 0.984 . S
N1995 C1988 1.356 . S
N1995 H1998 0.984 . S
N1995 H1999 0.985 . S
H1996 N1991 0.984 . S
H1997 N1991 0.985 . S
H1998 N1995 0.984 . S
H1999 N1995 0.985 . S
H2000 N1994 0.984 . S
H2001 N1994 0.984 . S
H2002 N1990 0.984 . S
H2003 N1990 0.985 . S
C2004 C2005 1.363 . S
C2004 C2010 1.379 . S
C2004 N2012 1.356 . S
C2005 C2004 1.363 . S
C2005 C2011 1.363 . S
C2006 C2007 1.363 . S
C2006 C2011 1.379 . S
C2006 N2013 1.356 . S
C2007 C2006 1.363 . S
C2007 C2010 1.363 . S
N2008 C2010 1.356 . S
N2008 H2020 0.984 . S
N2008 H2021 0.985 . S
N2009 C2011 1.356 . S
N2009 H2014 0.984 . S
N2009 H2015 0.985 . S
C2010 C2004 1.379 . S
C2010 C2007 1.363 . S
C2010 N2008 1.356 . S
C2011 C2005 1.363 . S
C2011 C2006 1.379 . S
C2011 N2009 1.356 . S
N2012 C2004 1.356 . S
N2012 H2018 0.984 . S
N2012 H2019 0.984 . S
N2013 C2006 1.356 . S
N2013 H2016 0.984 . S
N2013 H2017 0.985 . S
H2014 N2009 0.984 . S
H2015 N2009 0.985 . S
H2016 N2013 0.984 . S
H2017 N2013 0.985 . S
H2018 N2012 0.984 . S
H2019 N2012 0.984 . S
H2020 N2008 0.984 . S
H2021 N2008 0.985 . S
C2022 C2023 1.363 . S
C2022 C2028 1.379 . S
C2022 N2030 1.356 . S
C2023 C2022 1.363 . S
C2023 C2029 1.363 . S
C2024 C2025 1.363 . S
C2024 C2029 1.379 . S
C2024 N2031 1.356 . S
C2025 C2024 1.363 . S
C2025 C2028 1.363 . S
N2026 C2028 1.356 . S
N2026 H2038 0.984 . S
N2026 H2039 0.985 . S
N2027 C2029 1.356 . S
N2027 H2032 0.984 . S
N2027 H2033 0.985 . S
C2028 C2022 1.379 . S
C2028 C2025 1.363 . S
C2028 N2026 1.356 . S
C2029 C2023 1.363 . S
C2029 C2024 1.379 . S
C2029 N2027 1.356 . S
N2030 C2022 1.356 . S
N2030 H2036 0.984 . S
N2030 H2037 0.984 . S
N2031 C2024 1.356 . S
N2031 H2034 0.984 . S
N2031 H2035 0.985 . S
H2032 N2027 0.984 . S
H2033 N2027 0.985 . S
H2034 N2031 0.984 . S
H2035 N2031 0.985 . S
H2036 N2030 0.984 . S
H2037 N2030 0.984 . S
H2038 N2026 0.984 . S
H2039 N2026 0.985 . S
C2040 C2041 1.363 . S
C2040 C2046 1.379 . S
C2040 N2048 1.356 . S
C2041 C2040 1.363 . S
C2041 C2047 1.363 . S
C2042 C2043 1.363 . S
C2042 C2047 1.379 . S
C2042 N2049 1.356 . S
C2043 C2042 1.363 . S
C2043 C2046 1.363 . S
N2044 C2046 1.356 . S
N2044 H2056 0.984 . S
N2044 H2057 0.985 . S
N2045 C2047 1.356 . S
N2045 H2050 0.984 . S
N2045 H2051 0.985 . S
C2046 C2040 1.379 . S
C2046 C2043 1.363 . S
C2046 N2044 1.356 . S
C2047 C2041 1.363 . S
C2047 C2042 1.379 . S
C2047 N2045 1.356 . S
N2048 C2040 1.356 . S
N2048 H2054 0.984 . S
N2048 H2055 0.984 . S
N2049 C2042 1.356 . S
N2049 H2052 0.984 . S
N2049 H2053 0.985 . S
H2050 N2045 0.984 . S
H2051 N2045 0.985 . S
H2052 N2049 0.984 . S
H2053 N2049 0.985 . S
H2054 N2048 0.984 . S
H2055 N2048 0.984 . S
H2056 N2044 0.984 . S
H2057 N2044 0.985 . S
C2058 C2059 1.363 . S
C2058 C2064 1.379 . S
C2058 N2066 1.356 . S
C2059 C2058 1.363 . S
C2059 C2065 1.363 . S
C2060 C2061 1.363 . S
C2060 C2065 1.379 . S
C2060 N2067 1.356 . S
C2061 C2060 1.363 . S
C2061 C2064 1.363 . S
N2062 C2064 1.356 . S
N2062 H2074 0.984 . S
N2062 H2075 0.985 . S
N2063 C2065 1.356 . S
N2063 H2068 0.984 . S
N2063 H2069 0.985 . S
C2064 C2058 1.379 . S
C2064 C2061 1.363 . S
C2064 N2062 1.356 . S
C2065 C2059 1.363 . S
C2065 C2060 1.379 . S
C2065 N2063 1.356 . S
N2066 C2058 1.356 . S
N2066 H2072 0.984 . S
N2066 H2073 0.984 . S
N2067 C2060 1.356 . S
N2067 H2070 0.984 . S
N2067 H2071 0.985 . S
H2068 N2063 0.984 . S
H2069 N2063 0.985 . S
H2070 N2067 0.984 . S
H2071 N2067 0.985 . S
H2072 N2066 0.984 . S
H2073 N2066 0.984 . S
H2074 N2062 0.984 . S
H2075 N2062 0.985 . S
C2076 C2077 1.363 . S
C2076 C2082 1.379 . S
C2076 N2084 1.356 . S
C2077 C2076 1.363 . S
C2077 C2083 1.363 . S
C2078 C2079 1.363 . S
C2078 C2083 1.379 . S
C2078 N2085 1.356 . S
C2079 C2078 1.363 . S
C2079 C2082 1.363 . S
N2080 C2082 1.356 . S
N2080 H2092 0.984 . S
N2080 H2093 0.985 . S
N2081 C2083 1.356 . S
N2081 H2086 0.984 . S
N2081 H2087 0.985 . S
C2082 C2076 1.379 . S
C2082 C2079 1.363 . S
C2082 N2080 1.356 . S
C2083 C2077 1.363 . S
C2083 C2078 1.379 . S
C2083 N2081 1.356 . S
N2084 C2076 1.356 . S
N2084 H2090 0.984 . S
N2084 H2091 0.984 . S
N2085 C2078 1.356 . S
N2085 H2088 0.984 . S
N2085 H2089 0.985 . S
H2086 N2081 0.984 . S
H2087 N2081 0.985 . S
H2088 N2085 0.984 . S
H2089 N2085 0.985 . S
H2090 N2084 0.984 . S
H2091 N2084 0.984 . S
H2092 N2080 0.984 . S
H2093 N2080 0.985 . S
C2094 C2095 1.363 . S
C2094 C2100 1.379 . S
C2094 N2102 1.356 . S
C2095 C2094 1.363 . S
C2095 C2101 1.363 . S
C2096 C2097 1.363 . S
C2096 C2101 1.379 . S
C2096 N2103 1.356 . S
C2097 C2096 1.363 . S
C2097 C2100 1.363 . S
N2098 C2100 1.356 . S
N2098 H2110 0.984 . S
N2098 H2111 0.985 . S
N2099 C2101 1.356 . S
N2099 H2104 0.984 . S
N2099 H2105 0.985 . S
C2100 C2094 1.379 . S
C2100 C2097 1.363 . S
C2100 N2098 1.356 . S
C2101 C2095 1.363 . S
C2101 C2096 1.379 . S
C2101 N2099 1.356 . S
N2102 C2094 1.356 . S
N2102 H2108 0.984 . S
N2102 H2109 0.984 . S
N2103 C2096 1.356 . S
N2103 H2106 0.984 . S
N2103 H2107 0.985 . S
H2104 N2099 0.984 . S
H2105 N2099 0.985 . S
H2106 N2103 0.984 . S
H2107 N2103 0.985 . S
H2108 N2102 0.984 . S
H2109 N2102 0.984 . S
H2110 N2098 0.984 . S
H2111 N2098 0.985 . S
C2112 C2113 1.363 . S
C2112 C2118 1.379 . S
C2112 N2120 1.356 . S
C2113 C2112 1.363 . S
C2113 C2119 1.363 . S
C2114 C2115 1.363 . S
C2114 C2119 1.379 . S
C2114 N2121 1.356 . S
C2115 C2114 1.363 . S
C2115 C2118 1.363 . S
N2116 C2118 1.356 . S
N2116 H2128 0.984 . S
N2116 H2129 0.985 . S
N2117 C2119 1.356 . S
N2117 H2122 0.984 . S
N2117 H2123 0.985 . S
C2118 C2112 1.379 . S
C2118 C2115 1.363 . S
C2118 N2116 1.356 . S
C2119 C2113 1.363 . S
C2119 C2114 1.379 . S
C2119 N2117 1.356 . S
N2120 C2112 1.356 . S
N2120 H2126 0.984 . S
N2120 H2127 0.984 . S
N2121 C2114 1.356 . S
N2121 H2124 0.984 . S
N2121 H2125 0.985 . S
H2122 N2117 0.984 . S
H2123 N2117 0.985 . S
H2124 N2121 0.984 . S
H2125 N2121 0.985 . S
H2126 N2120 0.984 . S
H2127 N2120 0.984 . S
H2128 N2116 0.984 . S
H2129 N2116 0.985 . S
C2130 C2131 1.363 . S
C2130 C2136 1.379 . S
C2130 N2138 1.356 . S
C2131 C2130 1.363 . S
C2131 C2137 1.363 . S
C2132 C2133 1.363 . S
C2132 C2137 1.379 . S
C2132 N2139 1.356 . S
C2133 C2132 1.363 . S
C2133 C2136 1.363 . S
N2134 C2136 1.356 . S
N2134 H2146 0.984 . S
N2134 H2147 0.985 . S
N2135 C2137 1.356 . S
N2135 H2140 0.984 . S
N2135 H2141 0.985 . S
C2136 C2130 1.379 . S
C2136 C2133 1.363 . S
C2136 N2134 1.356 . S
C2137 C2131 1.363 . S
C2137 C2132 1.379 . S
C2137 N2135 1.356 . S
N2138 C2130 1.356 . S
N2138 H2144 0.984 . S
N2138 H2145 0.984 . S
N2139 C2132 1.356 . S
N2139 H2142 0.984 . S
N2139 H2143 0.985 . S
H2140 N2135 0.984 . S
H2141 N2135 0.985 . S
H2142 N2139 0.984 . S
H2143 N2139 0.985 . S
H2144 N2138 0.984 . S
H2145 N2138 0.984 . S
H2146 N2134 0.984 . S
H2147 N2134 0.985 . S
C2148 C2149 1.363 . S
C2148 C2154 1.379 . S
C2148 N2156 1.356 . S
C2149 C2148 1.363 . S
C2149 C2155 1.363 . S
C2150 C2151 1.363 . S
C2150 C2155 1.379 . S
C2150 N2157 1.356 . S
C2151 C2150 1.363 . S
C2151 C2154 1.363 . S
N2152 C2154 1.356 . S
N2152 H2164 0.984 . S
N2152 H2165 0.985 . S
N2153 C2155 1.356 . S
N2153 H2158 0.984 . S
N2153 H2159 0.985 . S
C2154 C2148 1.379 . S
C2154 C2151 1.363 . S
C2154 N2152 1.356 . S
C2155 C2149 1.363 . S
C2155 C2150 1.379 . S
C2155 N2153 1.356 . S
N2156 C2148 1.356 . S
N2156 H2162 0.984 . S
N2156 H2163 0.984 . S
N2157 C2150 1.356 . S
N2157 H2160 0.984 . S
N2157 H2161 0.985 . S
H2158 N2153 0.984 . S
H2159 N2153 0.985 . S
H2160 N2157 0.984 . S
H2161 N2157 0.985 . S
H2162 N2156 0.984 . S
H2163 N2156 0.984 . S
H2164 N2152 0.984 . S
H2165 N2152 0.985 . S
C2166 C2167 1.363 . S
C2166 C2172 1.379 . S
C2166 N2174 1.356 . S
C2167 C2166 1.363 . S
C2167 C2173 1.363 . S
C2168 C2169 1.363 . S
C2168 C2173 1.379 . S
C2168 N2175 1.356 . S
C2169 C2168 1.363 . S
C2169 C2172 1.363 . S
N2170 C2172 1.356 . S
N2170 H2182 0.984 . S
N2170 H2183 0.985 . S
N2171 C2173 1.356 . S
N2171 H2176 0.984 . S
N2171 H2177 0.985 . S
C2172 C2166 1.379 . S
C2172 C2169 1.363 . S
C2172 N2170 1.356 . S
C2173 C2167 1.363 . S
C2173 C2168 1.379 . S
C2173 N2171 1.356 . S
N2174 C2166 1.356 . S
N2174 H2180 0.984 . S
N2174 H2181 0.984 . S
N2175 C2168 1.356 . S
N2175 H2178 0.984 . S
N2175 H2179 0.985 . S
H2176 N2171 0.984 . S
H2177 N2171 0.985 . S
H2178 N2175 0.984 . S
H2179 N2175 0.985 . S
H2180 N2174 0.984 . S
H2181 N2174 0.984 . S
H2182 N2170 0.984 . S
H2183 N2170 0.985 . S
C2184 C2185 1.363 . S
C2184 C2190 1.379 . S
C2184 N2192 1.356 . S
C2185 C2184 1.363 . S
C2185 C2191 1.363 . S
C2186 C2187 1.363 . S
C2186 C2191 1.379 . S
C2186 N2193 1.356 . S
C2187 C2186 1.363 . S
C2187 C2190 1.363 . S
N2188 C2190 1.356 . S
N2188 H2200 0.984 . S
N2188 H2201 0.985 . S
N2189 C2191 1.356 . S
N2189 H2194 0.984 . S
N2189 H2195 0.985 . S
C2190 C2184 1.379 . S
C2190 C2187 1.363 . S
C2190 N2188 1.356 . S
C2191 C2185 1.363 . S
C2191 C2186 1.379 . S
C2191 N2189 1.356 . S
N2192 C2184 1.356 . S
N2192 H2198 0.984 . S
N2192 H2199 0.984 . S
N2193 C2186 1.356 . S
N2193 H2196 0.984 . S
N2193 H2197 0.985 . S
H2194 N2189 0.984 . S
H2195 N2189 0.985 . S
H2196 N2193 0.984 . S
H2197 N2193 0.985 . S
H2198 N2192 0.984 . S
H2199 N2192 0.984 . S
H2200 N2188 0.984 . S
H2201 N2188 0.985 . S
C2202 C2203 1.363 . S
C2202 C2208 1.379 . S
C2202 N2210 1.356 . S
C2203 C2202 1.363 . S
C2203 C2209 1.363 . S
C2204 C2205 1.363 . S
C2204 C2209 1.379 . S
C2204 N2211 1.356 . S
C2205 C2204 1.363 . S
C2205 C2208 1.363 . S
N2206 C2208 1.356 . S
N2206 H2218 0.984 . S
N2206 H2219 0.985 . S
N2207 C2209 1.356 . S
N2207 H2212 0.984 . S
N2207 H2213 0.985 . S
C2208 C2202 1.379 . S
C2208 C2205 1.363 . S
C2208 N2206 1.356 . S
C2209 C2203 1.363 . S
C2209 C2204 1.379 . S
C2209 N2207 1.356 . S
N2210 C2202 1.356 . S
N2210 H2216 0.984 . S
N2210 H2217 0.984 . S
N2211 C2204 1.356 . S
N2211 H2214 0.984 . S
N2211 H2215 0.985 . S
H2212 N2207 0.984 . S
H2213 N2207 0.985 . S
H2214 N2211 0.984 . S
H2215 N2211 0.985 . S
H2216 N2210 0.984 . S
H2217 N2210 0.984 . S
H2218 N2206 0.984 . S
H2219 N2206 0.985 . S
C2220 C2221 1.363 . S
C2220 C2226 1.379 . S
C2220 N2228 1.356 . S
C2221 C2220 1.363 . S
C2221 C2227 1.363 . S
C2222 C2223 1.363 . S
C2222 C2227 1.379 . S
C2222 N2229 1.356 . S
C2223 C2222 1.363 . S
C2223 C2226 1.363 . S
N2224 C2226 1.356 . S
N2224 H2236 0.984 . S
N2224 H2237 0.985 . S
N2225 C2227 1.356 . S
N2225 H2230 0.984 . S
N2225 H2231 0.985 . S
C2226 C2220 1.379 . S
C2226 C2223 1.363 . S
C2226 N2224 1.356 . S
C2227 C2221 1.363 . S
C2227 C2222 1.379 . S
C2227 N2225 1.356 . S
N2228 C2220 1.356 . S
N2228 H2234 0.984 . S
N2228 H2235 0.984 . S
N2229 C2222 1.356 . S
N2229 H2232 0.984 . S
N2229 H2233 0.985 . S
H2230 N2225 0.984 . S
H2231 N2225 0.985 . S
H2232 N2229 0.984 . S
H2233 N2229 0.985 . S
H2234 N2228 0.984 . S
H2235 N2228 0.984 . S
H2236 N2224 0.984 . S
H2237 N2224 0.985 . S
C2238 C2239 1.363 . S
C2238 C2244 1.379 . S
C2238 N2246 1.356 . S
C2239 C2238 1.363 . S
C2239 C2245 1.363 . S
C2240 C2241 1.363 . S
C2240 C2245 1.379 . S
C2240 N2247 1.356 . S
C2241 C2240 1.363 . S
C2241 C2244 1.363 . S
N2242 C2244 1.356 . S
N2242 H2254 0.984 . S
N2242 H2255 0.985 . S
N2243 C2245 1.356 . S
N2243 H2248 0.984 . S
N2243 H2249 0.985 . S
C2244 C2238 1.379 . S
C2244 C2241 1.363 . S
C2244 N2242 1.356 . S
C2245 C2239 1.363 . S
C2245 C2240 1.379 . S
C2245 N2243 1.356 . S
N2246 C2238 1.356 . S
N2246 H2252 0.984 . S
N2246 H2253 0.984 . S
N2247 C2240 1.356 . S
N2247 H2250 0.984 . S
N2247 H2251 0.985 . S
H2248 N2243 0.984 . S
H2249 N2243 0.985 . S
H2250 N2247 0.984 . S
H2251 N2247 0.985 . S
H2252 N2246 0.984 . S
H2253 N2246 0.984 . S
H2254 N2242 0.984 . S
H2255 N2242 0.985 . S
C2256 C2257 1.363 . S
C2256 C2262 1.379 . S
C2256 N2264 1.356 . S
C2257 C2256 1.363 . S
C2257 C2263 1.363 . S
C2258 C2259 1.363 . S
C2258 C2263 1.379 . S
C2258 N2265 1.356 . S
C2259 C2258 1.363 . S
C2259 C2262 1.363 . S
N2260 C2262 1.356 . S
N2260 H2272 0.984 . S
N2260 H2273 0.985 . S
N2261 C2263 1.356 . S
N2261 H2266 0.984 . S
N2261 H2267 0.985 . S
C2262 C2256 1.379 . S
C2262 C2259 1.363 . S
C2262 N2260 1.356 . S
C2263 C2257 1.363 . S
C2263 C2258 1.379 . S
C2263 N2261 1.356 . S
N2264 C2256 1.356 . S
N2264 H2270 0.984 . S
N2264 H2271 0.984 . S
N2265 C2258 1.356 . S
N2265 H2268 0.984 . S
N2265 H2269 0.985 . S
H2266 N2261 0.984 . S
H2267 N2261 0.985 . S
H2268 N2265 0.984 . S
H2269 N2265 0.985 . S
H2270 N2264 0.984 . S
H2271 N2264 0.984 . S
H2272 N2260 0.984 . S
H2273 N2260 0.985 . S
C2274 C2275 1.363 . S
C2274 C2280 1.379 . S
C2274 N2282 1.356 . S
C2275 C2274 1.363 . S
C2275 C2281 1.363 . S
C2276 C2277 1.363 . S
C2276 C2281 1.379 . S
C2276 N2283 1.356 . S
C2277 C2276 1.363 . S
C2277 C2280 1.363 . S
N2278 C2280 1.356 . S
N2278 H2290 0.984 . S
N2278 H2291 0.985 . S
N2279 C2281 1.356 . S
N2279 H2284 0.984 . S
N2279 H2285 0.985 . S
C2280 C2274 1.379 . S
C2280 C2277 1.363 . S
C2280 N2278 1.356 . S
C2281 C2275 1.363 . S
C2281 C2276 1.379 . S
C2281 N2279 1.356 . S
N2282 C2274 1.356 . S
N2282 H2288 0.984 . S
N2282 H2289 0.984 . S
N2283 C2276 1.356 . S
N2283 H2286 0.984 . S
N2283 H2287 0.985 . S
H2284 N2279 0.984 . S
H2285 N2279 0.985 . S
H2286 N2283 0.984 . S
H2287 N2283 0.985 . S
H2288 N2282 0.984 . S
H2289 N2282 0.984 . S
H2290 N2278 0.984 . S
H2291 N2278 0.985 . S
C2292 C2293 1.363 . S
C2292 C2298 1.379 . S
C2292 N2300 1.356 . S
C2293 C2292 1.363 . S
C2293 C2299 1.363 . S
C2294 C2295 1.363 . S
C2294 C2299 1.379 . S
C2294 N2301 1.356 . S
C2295 C2294 1.363 . S
C2295 C2298 1.363 . S
N2296 C2298 1.356 . S
N2296 H2308 0.984 . S
N2296 H2309 0.985 . S
N2297 C2299 1.356 . S
N2297 H2302 0.984 . S
N2297 H2303 0.985 . S
C2298 C2292 1.379 . S
C2298 C2295 1.363 . S
C2298 N2296 1.356 . S
C2299 C2293 1.363 . S
C2299 C2294 1.379 . S
C2299 N2297 1.356 . S
N2300 C2292 1.356 . S
N2300 H2306 0.984 . S
N2300 H2307 0.984 . S
N2301 C2294 1.356 . S
N2301 H2304 0.984 . S
N2301 H2305 0.985 . S
H2302 N2297 0.984 . S
H2303 N2297 0.985 . S
H2304 N2301 0.984 . S
H2305 N2301 0.985 . S
H2306 N2300 0.984 . S
H2307 N2300 0.984 . S
H2308 N2296 0.984 . S
H2309 N2296 0.985 . S
C2310 C2311 1.363 . S
C2310 C2316 1.379 . S
C2310 N2318 1.356 . S
C2311 C2310 1.363 . S
C2311 C2317 1.363 . S
C2312 C2313 1.363 . S
C2312 C2317 1.379 . S
C2312 N2319 1.356 . S
C2313 C2312 1.363 . S
C2313 C2316 1.363 . S
N2314 C2316 1.356 . S
N2314 H2326 0.984 . S
N2314 H2327 0.985 . S
N2315 C2317 1.356 . S
N2315 H2320 0.984 . S
N2315 H2321 0.985 . S
C2316 C2310 1.379 . S
C2316 C2313 1.363 . S
C2316 N2314 1.356 . S
C2317 C2311 1.363 . S
C2317 C2312 1.379 . S
C2317 N2315 1.356 . S
N2318 C2310 1.356 . S
N2318 H2324 0.984 . S
N2318 H2325 0.984 . S
N2319 C2312 1.356 . S
N2319 H2322 0.984 . S
N2319 H2323 0.985 . S
H2320 N2315 0.984 . S
H2321 N2315 0.985 . S
H2322 N2319 0.984 . S
H2323 N2319 0.985 . S
H2324 N2318 0.984 . S
H2325 N2318 0.984 . S
H2326 N2314 0.984 . S
H2327 N2314 0.985 . S
C2328 C2329 1.363 . S
C2328 C2334 1.379 . S
C2328 N2336 1.356 . S
C2329 C2328 1.363 . S
C2329 C2335 1.363 . S
C2330 C2331 1.363 . S
C2330 C2335 1.379 . S
C2330 N2337 1.356 . S
C2331 C2330 1.363 . S
C2331 C2334 1.363 . S
N2332 C2334 1.356 . S
N2332 H2344 0.984 . S
N2332 H2345 0.985 . S
N2333 C2335 1.356 . S
N2333 H2338 0.984 . S
N2333 H2339 0.985 . S
C2334 C2328 1.379 . S
C2334 C2331 1.363 . S
C2334 N2332 1.356 . S
C2335 C2329 1.363 . S
C2335 C2330 1.379 . S
C2335 N2333 1.356 . S
N2336 C2328 1.356 . S
N2336 H2342 0.984 . S
N2336 H2343 0.984 . S
N2337 C2330 1.356 . S
N2337 H2340 0.984 . S
N2337 H2341 0.985 . S
H2338 N2333 0.984 . S
H2339 N2333 0.985 . S
H2340 N2337 0.984 . S
H2341 N2337 0.985 . S
H2342 N2336 0.984 . S
H2343 N2336 0.984 . S
H2344 N2332 0.984 . S
H2345 N2332 0.985 . S
C2346 C2347 1.363 . S
C2346 C2352 1.379 . S
C2346 N2354 1.356 . S
C2347 C2346 1.363 . S
C2347 C2353 1.363 . S
C2348 C2349 1.363 . S
C2348 C2353 1.379 . S
C2348 N2355 1.356 . S
C2349 C2348 1.363 . S
C2349 C2352 1.363 . S
N2350 C2352 1.356 . S
N2350 H2362 0.984 . S
N2350 H2363 0.985 . S
N2351 C2353 1.356 . S
N2351 H2356 0.984 . S
N2351 H2357 0.985 . S
C2352 C2346 1.379 . S
C2352 C2349 1.363 . S
C2352 N2350 1.356 . S
C2353 C2347 1.363 . S
C2353 C2348 1.379 . S
C2353 N2351 1.356 . S
N2354 C2346 1.356 . S
N2354 H2360 0.984 . S
N2354 H2361 0.984 . S
N2355 C2348 1.356 . S
N2355 H2358 0.984 . S
N2355 H2359 0.985 . S
H2356 N2351 0.984 . S
H2357 N2351 0.985 . S
H2358 N2355 0.984 . S
H2359 N2355 0.985 . S
H2360 N2354 0.984 . S
H2361 N2354 0.984 . S
H2362 N2350 0.984 . S
H2363 N2350 0.985 . S
C2364 C2365 1.363 . S
C2364 C2370 1.379 . S
C2364 N2372 1.356 . S
C2365 C2364 1.363 . S
C2365 C2371 1.363 . S
C2366 C2367 1.363 . S
C2366 C2371 1.379 . S
C2366 N2373 1.356 . S
C2367 C2366 1.363 . S
C2367 C2370 1.363 . S
N2368 C2370 1.356 . S
N2368 H2380 0.984 . S
N2368 H2381 0.985 . S
N2369 C2371 1.356 . S
N2369 H2374 0.984 . S
N2369 H2375 0.985 . S
C2370 C2364 1.379 . S
C2370 C2367 1.363 . S
C2370 N2368 1.356 . S
C2371 C2365 1.363 . S
C2371 C2366 1.379 . S
C2371 N2369 1.356 . S
N2372 C2364 1.356 . S
N2372 H2378 0.984 . S
N2372 H2379 0.984 . S
N2373 C2366 1.356 . S
N2373 H2376 0.984 . S
N2373 H2377 0.985 . S
H2374 N2369 0.984 . S
H2375 N2369 0.985 . S
H2376 N2373 0.984 . S
H2377 N2373 0.985 . S
H2378 N2372 0.984 . S
H2379 N2372 0.984 . S
H2380 N2368 0.984 . S
H2381 N2368 0.985 . S
C2382 C2383 1.363 . S
C2382 C2388 1.379 . S
C2382 N2390 1.356 . S
C2383 C2382 1.363 . S
C2383 C2389 1.363 . S
C2384 C2385 1.363 . S
C2384 C2389 1.379 . S
C2384 N2391 1.356 . S
C2385 C2384 1.363 . S
C2385 C2388 1.363 . S
N2386 C2388 1.356 . S
N2386 H2398 0.984 . S
N2386 H2399 0.985 . S
N2387 C2389 1.356 . S
N2387 H2392 0.984 . S
N2387 H2393 0.985 . S
C2388 C2382 1.379 . S
C2388 C2385 1.363 . S
C2388 N2386 1.356 . S
C2389 C2383 1.363 . S
C2389 C2384 1.379 . S
C2389 N2387 1.356 . S
N2390 C2382 1.356 . S
N2390 H2396 0.984 . S
N2390 H2397 0.984 . S
N2391 C2384 1.356 . S
N2391 H2394 0.984 . S
N2391 H2395 0.985 . S
H2392 N2387 0.984 . S
H2393 N2387 0.985 . S
H2394 N2391 0.984 . S
H2395 N2391 0.985 . S
H2396 N2390 0.984 . S
H2397 N2390 0.984 . S
H2398 N2386 0.984 . S
H2399 N2386 0.985 . S
C673 C283 1.584 . S
C675 C3 1.582 . S
C691 C21 1.470 . S
C693 C245 1.471 . S
C709 C31 1.587 . S
C711 C259 1.485 . S
C727 C273 1.476 . S
C729 C49 1.477 . S
C745 C329 1.471 . S
C747 C63 1.472 . S
C763 C73 1.585 . S
C765 C301 1.486 . S
C781 C91 1.475 . S
C783 C311 1.573 . S
C799 C101 1.586 . S
C801 C227 1.586 . S
C817 C115 1.579 . S
C819 C213 1.579 . S
C835 C133 1.474 . S
C837 C175 1.474 . S
C853 C143 1.568 . S
C855 C185 1.568 . S
C871 C203 1.481 . S
C873 C161 1.481 . S
C889 C343 1.484 . S
C891 C623 1.485 . S
C907 C577 1.543 . S
C909 C353 1.544 . S
C925 C371 1.487 . S
C927 C591 1.565 . S
C943 C609 1.469 . S
C945 C381 1.546 . S
C961 C395 1.546 . S
C963 C661 1.545 . S
C979 C633 1.562 . S
C981 C413 1.483 . S
C997 C423 1.541 . S
C999 C651 1.465 . S
C1015 C567 1.487 . S
C1017 C441 1.486 . S
C1033 C455 1.475 . S
C1035 C553 1.476 . S
C1051 C507 1.553 . S
C1053 C465 1.553 . S
C1069 C525 1.467 . S
C1071 C483 1.467 . S
C1087 C535 1.563 . S
C1089 C493 1.563 . S
C1105 C367 1.308 . S
C1107 C7 1.248 . S
C1123 C17 1.307 . S
C1125 C385 1.258 . S
C1141 C35 1.246 . S
C1143 C339 1.308 . S
C1159 C45 1.325 . S
C1161 C357 1.273 . S
C1177 C59 1.307 . S
C1179 C427 1.257 . S
C1195 C437 1.313 . S
C1197 C77 1.251 . S
C1213 C399 1.255 . S
C1215 C87 1.307 . S
C1231 C409 1.309 . S
C1233 C105 1.248 . S
C1249 C511 1.260 . S
C1251 C119 1.251 . S
C1267 C129 1.305 . S
C1269 C521 1.307 . S
C1285 C539 1.258 . S
C1287 C147 1.249 . S
C1303 C157 1.306 . S
C1305 C549 1.309 . S
C1321 C171 1.306 . S
C1323 C451 1.309 . S
C1339 C189 1.250 . S
C1341 C469 1.258 . S
C1357 C479 1.310 . S
C1359 C199 1.307 . S
C1375 C497 1.259 . S
C1377 C217 1.251 . S
C1393 C231 1.246 . S
C1395 C605 1.308 . S
C1411 C241 1.307 . S
C1413 C637 1.258 . S
C1429 C647 1.306 . S
C1431 C255 1.304 . S
C1447 C563 1.308 . S
C1449 C269 1.304 . S
C1465 C287 1.251 . S
C1467 C665 1.259 . S
C1483 C581 1.266 . S
C1485 C297 1.317 . S
C1501 C315 1.255 . S
C1503 C595 1.266 . S
C1519 C325 1.303 . S
C1521 C619 1.306 . S
C1537 C400 1.682 . S
C1539 C9 1.631 . S
C1555 C415 1.623 . S
C1557 C22 1.691 . S
C1573 C428 1.684 . S
C1575 C37 1.636 . S
C1591 C50 1.688 . S
C1593 C443 1.619 . S
C1609 C345 1.622 . S
C1611 C64 1.691 . S
C1627 C358 1.686 . S
C1629 C79 1.637 . S
C1645 C92 1.689 . S
C1647 C373 1.621 . S
C1663 C386 1.682 . S
C1665 C107 1.633 . S
C1681 C121 1.635 . S
C1683 C540 1.685 . S
C1699 C134 1.691 . S
C1701 C555 1.623 . S
C1717 C512 1.683 . S
C1719 C149 1.633 . S
C1735 C162 1.691 . S
C1737 C527 1.619 . S
C1753 C485 1.622 . S
C1755 C176 1.692 . S
C1771 C191 1.632 . S
C1773 C498 1.685 . S
C1789 C204 1.690 . S
C1791 C457 1.621 . S
C1807 C219 1.635 . S
C1809 C470 1.683 . S
C1825 C638 1.681 . S
C1827 C233 1.629 . S
C1843 C246 1.696 . S
C1845 C611 1.623 . S
C1861 C260 1.684 . S
C1863 C625 1.614 . S
C1879 C274 1.685 . S
C1881 C582 1.678 . S
C1897 C596 1.681 . S
C1899 C289 1.632 . S
C1915 C569 1.627 . S
C1917 C302 1.701 . S
C1933 C666 1.701 . S
C1935 C317 1.651 . S
C1951 C330 1.694 . S
C1953 C653 1.625 . S
C1969 C218 1.628 . S
C1971 C8 1.626 . S
C1987 C23 1.492 . S
C1989 C177 1.490 . S
C2005 C190 1.628 . S
C2007 C36 1.630 . S
C2023 C205 1.487 . S
C2025 C51 1.489 . S
C2041 C135 1.488 . S
C2043 C65 1.491 . S
C2059 C78 1.629 . S
C2061 C148 1.629 . S
C2077 C93 1.489 . S
C2079 C163 1.489 . S
C2095 C120 1.628 . S
C2097 C106 1.627 . S
C2113 C232 1.630 . S
C2115 C288 1.632 . S
C2131 C331 1.493 . S
C2133 C247 1.498 . S
C2149 C303 1.487 . S
C2151 C261 1.484 . S
C2167 C275 1.508 . S
C2169 C316 1.641 . S
C2185 C554 1.621 . S
C2187 C344 1.618 . S
C2203 C513 1.475 . S
C2205 C359 1.477 . S
C2221 C372 1.622 . S
C2223 C526 1.624 . S
C2239 C541 1.477 . S
C2241 C387 1.477 . S
C2257 C471 1.474 . S
C2259 C401 1.478 . S
C2275 C414 1.619 . S
C2277 C484 1.623 . S
C2293 C429 1.476 . S
C2295 C499 1.477 . S
C2311 C442 1.618 . S
C2313 C456 1.620 . S
C2329 C568 1.614 . S
C2331 C624 1.618 . S
C2347 C667 1.480 . S
C2349 C583 1.486 . S
C2365 C639 1.473 . S
C2367 C597 1.469 . S
C2383 C652 1.629 . S
C2385 C610 1.624 . S
