# Generated by pormake.
# Topology hcp, (12)-cn, num edge types: 1
# Building blocks:
#     Node 0, Type 0, BuildingBlock: BOTCEU_clean_sbu_0, # of connection points: 12
#     Node 1, Type 0, BuildingBlock: BOTCEU_clean_sbu_0, # of connection points: 12
#     Edge 2, Type (0, 0), BuildingBlock: FUNLAD_clean_linker_0, # of connection points: 2
#     Edge 3, Type (0, 0), BuildingBlock: FUNLAD_clean_linker_0, # of connection points: 2
#     Edge 4, Type (0, 0), BuildingBlock: FUNLAD_clean_linker_0, # of connection points: 2
#     Edge 5, Type (0, 0), BuildingBlock: FUNLAD_clean_linker_0, # of connection points: 2
#     Edge 6, Type (0, 0), BuildingBlock: FUNLAD_clean_linker_0, # of connection points: 2
#     Edge 7, Type (0, 0), BuildingBlock: FUNLAD_clean_linker_0, # of connection points: 2
#     Edge 8, Type (0, 0), BuildingBlock: FUNLAD_clean_linker_0, # of connection points: 2
#     Edge 9, Type (0, 0), BuildingBlock: FUNLAD_clean_linker_0, # of connection points: 2
#     Edge 10, Type (0, 0), BuildingBlock: FUNLAD_clean_linker_0, # of connection points: 2
#     Edge 11, Type (0, 0), BuildingBlock: FUNLAD_clean_linker_0, # of connection points: 2
#     Edge 12, Type (0, 0), BuildingBlock: FUNLAD_clean_linker_0, # of connection points: 2
#     Edge 13, Type (0, 0), BuildingBlock: FUNLAD_clean_linker_0, # of connection points: 2
# Relax obj value: 0.158
# Max RMSD: 0.245
# Mean RMSD: 0.245
data_MOF--net-hcp--node1-BOTCEU_clean_sbu_0--edge1-FUNLAD_clean_linker_0
_symmetry_space_group_name_H-M    P1
_symmetry_Int_Tables_number       1
_symmetry_cell_setting            triclinic
loop_
_symmetry_equiv_pos_as_xyz
'x, y, z'
_cell_length_a     29.069797
_cell_length_b     24.216279
_cell_length_c     47.245615
_cell_angle_alpha  97.519545
_cell_angle_beta   88.497945
_cell_angle_gamma 123.44239
loop_
_atom_site_label
_atom_site_type_symbol
_atom_site_fract_x
_atom_site_fract_y
_atom_site_fract_z
_atom_type_partial_charge
C0 C 0.3766 0.06788 0.27453 0.0
C1 C 0.37374 0.01548 0.2855 0.0
C2 C 0.40379 0.04443 0.31177 0.0
N3 N 0.40543 0.12309 0.29363 0.0
N4 N 0.42161 0.10939 0.31597 0.0
C5 C 0.34548 0.06342 0.24865 0.0
H6 H 0.36104 0.11395 0.24332 0.0
H7 H 0.30098 0.03787 0.25286 0.0
H8 H 0.34971 0.03364 0.23012 0.0
C9 C 0.4147 0.01034 0.33229 0.0
H10 H 0.44476 0.04719 0.34981 0.0
H11 H 0.43113 0.98238 0.3207 0.0
H12 H 0.37569 0.97333 0.34133 0.0
C13 C 0.8417 0.40333 0.12491 0.0
C14 C 0.77813 0.41071 0.10446 0.0
C15 C 0.82962 0.42019 0.10023 0.0
N16 N 0.79942 0.38485 0.14212 0.0
N17 N 0.76188 0.39004 0.13008 0.0
H18 H 0.89352 0.36623 0.12339 0.0
H19 H 0.93022 0.45555 0.12534 0.0
H20 H 0.89923 0.41548 0.15681 0.0
C21 C 0.89443 0.41102 0.13323 0.0
H22 H 0.74829 0.40137 0.0618 0.0
H23 H 0.75869 0.47172 0.08588 0.0
H24 H 0.69994 0.3893 0.0894 0.0
C25 C 0.74399 0.41825 0.08413 0.0
C26 C 0.38943 0.23754 0.35352 0.0
C27 C 0.50646 0.23393 0.25863 0.0
C28 C 0.70881 0.14324 0.33212 0.0
N29 N 0.73069 0.20517 0.3252 0.0
N30 N 0.74477 0.20574 0.29848 0.0
C31 C 0.70807 0.10236 0.30807 0.0
C32 C 0.73189 0.14466 0.28723 0.0
H33 H 0.70384 0.16867 0.37714 0.0
H34 H 0.72753 0.11365 0.3685 0.0
H35 H 0.656 0.08172 0.36276 0.0
C36 C 0.6984 0.12633 0.36195 0.0
H37 H 0.74835 0.16365 0.24373 0.0
H38 H 0.71514 0.07649 0.24878 0.0
H39 H 0.78716 0.13637 0.25915 0.0
C40 C 0.74606 0.12913 0.25789 0.0
C41 C 0.33227 0.24578 0.25021 0.0
C42 C 0.30865 0.17767 0.28259 0.0
N43 N 0.37745 0.25177 0.26062 0.0
N44 N 0.36336 0.2111 0.27993 0.0
C45 C 0.28708 0.19826 0.26367 0.0
H46 H 0.31721 0.25471 0.20754 0.0
H47 H 0.30582 0.30419 0.23487 0.0
H48 H 0.37581 0.32952 0.22671 0.0
C49 C 0.33308 0.28636 0.22866 0.0
C50 C 0.27776 0.12506 0.30165 0.0
H51 H 0.23756 0.0836 0.291 0.0
H52 H 0.26941 0.14714 0.32157 0.0
H53 H 0.30252 0.10568 0.30748 0.0
C54 C 0.8625 0.4026 0.33262 0.0
C55 C 0.66052 0.27988 0.32007 0.0
C56 C 0.62483 0.24717 0.11103 0.0
N57 N 0.63561 0.29474 0.13282 0.0
C58 C 0.56974 0.21472 0.10185 0.0
N59 N 0.59072 0.29376 0.13848 0.0
C60 C 0.54928 0.24577 0.11992 0.0
H61 H 0.69969 0.25007 0.11457 0.0
H62 H 0.68706 0.26865 0.08109 0.0
H63 H 0.6478 0.18355 0.0883 0.0
C64 C 0.66727 0.2364 0.09808 0.0
H65 H 0.48553 0.25865 0.13617 0.0
C66 C 0.49497 0.23795 0.11624 0.0
H67 H 0.49684 0.26528 0.09867 0.0
H68 H 0.46152 0.18454 0.11036 0.0
C69 C 0.75521 0.32532 0.42803 0.0
C70 C 0.8112 0.31292 0.39955 0.0
N71 N 0.73417 0.30757 0.40096 0.0
N72 N 0.7678 0.3004 0.38397 0.0
C73 C 0.80528 0.33031 0.42801 0.0
H74 H 0.72428 0.30797 0.46967 0.0
C75 C 0.72912 0.33933 0.45322 0.0
H76 H 0.68817 0.3285 0.44682 0.0
H77 H 0.75626 0.39219 0.46305 0.0
H78 H 0.87071 0.28685 0.39797 0.0
H79 H 0.89674 0.36965 0.39058 0.0
C80 C 0.86061 0.31705 0.38705 0.0
H81 H 0.85261 0.29839 0.36384 0.0
C82 C 0.70622 0.49223 0.15014 0.0
C83 C 0.67448 0.27917 0.19125 0.0
C84 C 0.89651 0.47848 0.24183 0.0
N85 N 0.85272 0.42314 0.22762 0.0
C86 C 0.91078 0.53162 0.2273 0.0
C87 C 0.87296 0.50391 0.20393 0.0
N88 N 0.83822 0.43816 0.2052 0.0
C89 C 0.92967 0.47859 0.26552 0.0
H90 H 0.90484 0.43262 0.2756 0.0
H91 H 0.96642 0.48099 0.25672 0.0
H92 H 0.9443 0.52298 0.28188 0.0
C93 C 0.87356 0.53799 0.17961 0.0
H94 H 0.83134 0.51268 0.16962 0.0
H95 H 0.89017 0.59141 0.18711 0.0
H96 H 0.90075 0.5356 0.16328 0.0
C97 C 0.41732 0.10894 0.39998 0.0
C98 C 0.44642 0.1188 0.42557 0.0
C99 C 0.49776 0.17614 0.42373 0.0
N100 N 0.45099 0.15868 0.38433 0.0
N101 N 0.49886 0.19721 0.39887 0.0
H102 H 0.33068 0.04961 0.4052 0.0
H103 H 0.35887 0.00348 0.39023 0.0
H104 H 0.34952 0.05359 0.3683 0.0
C105 C 0.36081 0.05049 0.39003 0.0
C106 C 0.54849 0.20261 0.44242 0.0
H107 H 0.5808 0.25455 0.43909 0.0
H108 H 0.53842 0.20115 0.46525 0.0
H109 H 0.56483 0.17076 0.43696 0.0
C110 C 0.80644 0.25708 0.17303 0.0
C111 C 0.73865 0.34569 0.26315 0.0
C112 C 0.54735 0.48309 0.23799 0.0
C113 C 0.53105 0.49937 0.26404 0.0
C114 C 0.49378 0.43765 0.27332 0.0
N115 N 0.52102 0.41631 0.23258 0.0
N116 N 0.48949 0.38892 0.25377 0.0
C117 C 0.58529 0.53004 0.21805 0.0
H118 H 0.58221 0.50277 0.19672 0.0
H119 H 0.57571 0.5679 0.21605 0.0
H120 H 0.62848 0.55666 0.22686 0.0
C121 C 0.46292 0.42522 0.30004 0.0
H122 H 0.4521 0.37708 0.30647 0.0
H123 H 0.4877 0.46692 0.31753 0.0
H124 H 0.42405 0.42201 0.29591 0.0
C125 C 0.8895 0.28356 0.27979 0.0
C126 C 0.92646 0.2957 0.25848 0.0
C127 C 0.90908 0.31512 0.23687 0.0
N128 N 0.85287 0.29558 0.27096 0.0
N129 N 0.8641 0.31381 0.2453 0.0
C130 C 0.8869 0.2571 0.3071 0.0
H131 H 0.91862 0.2983 0.32291 0.0
H132 H 0.89579 0.21772 0.30345 0.0
H133 H 0.84583 0.23673 0.31607 0.0
C134 C 0.9363 0.33791 0.20966 0.0
H135 H 0.98183 0.36537 0.21302 0.0
H136 H 0.92228 0.29365 0.19331 0.0
H137 H 0.92494 0.37026 0.2017 0.0
C138 C 0.41036 0.23124 0.18994 0.0
C139 C 0.62168 0.38765 0.2233 0.0
C140 C 0.58643 0.37331 0.40675 0.0
N141 N 0.60155 0.33351 0.39425 0.0
N142 N 0.65504 0.36176 0.39788 0.0
C143 C 0.63276 0.43098 0.42024 0.0
C144 C 0.676 0.42178 0.41437 0.0
H145 H 0.51494 0.34119 0.4311 0.0
H146 H 0.52279 0.39264 0.40479 0.0
H147 H 0.50024 0.30673 0.39361 0.0
C148 C 0.52754 0.35203 0.40906 0.0
H149 H 0.76008 0.44901 0.41663 0.0
H150 H 0.75137 0.51826 0.41987 0.0
H151 H 0.73649 0.47236 0.44926 0.0
C152 C 0.73465 0.46769 0.42558 0.0
C153 C 0.55502 0.41563 0.1256 0.0
N154 N 0.55788 0.3938 0.14968 0.0
N155 N 0.51771 0.38563 0.16602 0.0
C156 C 0.51102 0.42336 0.12681 0.0
C157 C 0.48804 0.40341 0.15292 0.0
C158 C 0.59089 0.4235 0.10109 0.0
H159 H 0.62439 0.47706 0.10175 0.0
H160 H 0.56653 0.40657 0.08045 0.0
H161 H 0.60979 0.39466 0.10254 0.0
C162 C 0.44069 0.40406 0.16559 0.0
H163 H 0.44183 0.44843 0.16075 0.0
H164 H 0.40148 0.35867 0.15593 0.0
H165 H 0.44169 0.40393 0.18905 0.0
C166 C 0.5962 0.15592 0.36786 0.0
C167 C 0.55471 0.29278 0.32841 0.0
Cu168 Cu 0.41872 0.2077 0.29625 0.0
Cu169 Cu 0.45467 0.17906 0.34621 0.0
Cu170 Cu 0.75311 0.28933 0.34492 0.0
Cu171 Cu 0.79213 0.2892 0.28709 0.0
Cu172 Cu 0.69994 0.36701 0.15086 0.0
Cu173 Cu 0.60282 0.36911 0.16194 0.0
Cu174 Cu 0.81803 0.3333 0.22963 0.0
Cu175 Cu 0.78757 0.36548 0.17947 0.0
Cu176 Cu 0.51779 0.35853 0.20144 0.0
Cu177 Cu 0.44954 0.29534 0.24959 0.0
Cu178 Cu 0.55977 0.24569 0.37914 0.0
Cu179 Cu 0.67568 0.3022 0.38289 0.0
H180 H 0.40883 0.27036 0.37411 0.0
H181 H 0.35622 0.18669 0.3577 0.0
H182 H 0.37173 0.25854 0.34142 0.0
H183 H 0.50615 0.1982 0.27124 0.0
H184 H 0.54966 0.2737 0.25522 0.0
H185 H 0.48408 0.20645 0.23769 0.0
H186 H 0.87407 0.44706 0.32249 0.0
H187 H 0.89267 0.38869 0.32789 0.0
H188 H 0.86235 0.41497 0.35604 0.0
H189 H 0.67397 0.25544 0.30362 0.0
H190 H 0.66043 0.32016 0.3114 0.0
H191 H 0.61888 0.2412 0.32581 0.0
H192 H 0.68283 0.51553 0.15607 0.0
H193 H 0.70584 0.48262 0.12657 0.0
H194 H 0.74943 0.52654 0.15902 0.0
H195 H 0.67005 0.24151 0.17345 0.0
H196 H 0.63417 0.27355 0.19382 0.0
H197 H 0.6875 0.27055 0.21107 0.0
H198 H 0.7747 0.22508 0.15538 0.0
H199 H 0.84623 0.29208 0.164 0.0
H200 H 0.81137 0.22505 0.18572 0.0
H201 H 0.75146 0.3813 0.24749 0.0
H202 H 0.69297 0.31234 0.26181 0.0
H203 H 0.75363 0.37422 0.2849 0.0
H204 H 0.3746 0.19546 0.20147 0.0
H205 H 0.39974 0.26131 0.17931 0.0
H206 H 0.4207 0.20285 0.1737 0.0
H207 H 0.60242 0.39398 0.24296 0.0
H208 H 0.63932 0.3586 0.22712 0.0
H209 H 0.65489 0.43761 0.21822 0.0
H210 H 0.62512 0.16495 0.35068 0.0
H211 H 0.59972 0.12735 0.38323 0.0
H212 H 0.55344 0.12678 0.3582 0.0
H213 H 0.59194 0.33504 0.34094 0.0
H214 H 0.56726 0.28457 0.30692 0.0
H215 H 0.52459 0.30676 0.32711 0.0
O216 O 0.42839 0.23418 0.3379 0.0
O217 O 0.48074 0.2619 0.2729 0.0
O218 O 0.81077 0.35044 0.32236 0.0
O219 O 0.69637 0.30677 0.34357 0.0
O220 O 0.68222 0.43327 0.16117 0.0
O221 O 0.71339 0.34198 0.18503 0.0
O222 O 0.78994 0.29239 0.19027 0.0
O223 O 0.76083 0.30836 0.25696 0.0
O224 O 0.45478 0.27271 0.20892 0.0
O225 O 0.58254 0.3545 0.20102 0.0
O226 O 0.6078 0.21564 0.38201 0.0
O227 O 0.53295 0.23616 0.34126 0.0
C228 C 0.05405 0.53411 0.75285 0.0
C229 C 0.02821 0.48088 0.76854 0.0
C230 C 0.06752 0.49687 0.78997 0.0
N231 N 0.10479 0.57866 0.76488 0.0
N232 N 0.11308 0.55703 0.78706 0.0
C233 C 0.03014 0.54466 0.72805 0.0
H234 H 0.01199 0.57339 0.73602 0.0
H235 H -0.00272 0.4961 0.71606 0.0
H236 H 0.06313 0.5741 0.71363 0.0
C237 C 0.05914 0.45998 0.81469 0.0
H238 H 0.09808 0.48342 0.82787 0.0
H239 H 0.04483 0.40751 0.80682 0.0
H240 H 0.02672 0.45907 0.82795 0.0
C241 C 0.58806 0.88854 0.62558 0.0
C242 C 0.51653 0.82243 0.59521 0.0
C243 C 0.56704 0.88287 0.59805 0.0
N244 N 0.55057 0.83413 0.63794 0.0
N245 N 0.5079 0.79634 0.61951 0.0
H246 H 0.67576 0.95395 0.62744 0.0
H247 H 0.64088 0.99311 0.64061 0.0
H248 H 0.64613 0.93913 0.66205 0.0
C249 C 0.64066 0.94702 0.64009 0.0
H250 H 0.44067 0.74385 0.57211 0.0
H251 H 0.48894 0.80799 0.55134 0.0
H252 H 0.45075 0.82499 0.57754 0.0
C253 C 0.47161 0.79812 0.57267 0.0
C254 C 0.18713 0.75257 0.81581 0.0
C255 C 0.20709 0.61247 0.72345 0.0
C256 C 0.44202 0.50442 0.79075 0.0
N257 N 0.46616 0.57083 0.79542 0.0
N258 N 0.49979 0.59835 0.77497 0.0
C259 C 0.46174 0.48892 0.76583 0.0
C260 C 0.4987 0.55037 0.75648 0.0
H261 H 0.40566 0.48179 0.83134 0.0
H262 H 0.40026 0.41181 0.80849 0.0
H263 H 0.35779 0.4415 0.80073 0.0
C264 C 0.3992 0.45705 0.80901 0.0
H265 H 0.54258 0.61293 0.72411 0.0
H266 H 0.50058 0.52356 0.71149 0.0
H267 H 0.56445 0.55945 0.73184 0.0
C268 C 0.52812 0.56252 0.72928 0.0
C269 C 0.11727 0.75373 0.71191 0.0
C270 C 0.09069 0.72246 0.7545 0.0
N271 N 0.14075 0.72289 0.71956 0.0
N272 N 0.12563 0.70527 0.74508 0.0
C273 C 0.08462 0.7546 0.73388 0.0
H274 H 0.09612 0.75443 0.66905 0.0
H275 H 0.13402 0.83547 0.69036 0.0
H276 H 0.16876 0.79473 0.67677 0.0
C277 C 0.13018 0.78693 0.68557 0.0
C278 C 0.06163 0.70481 0.78172 0.0
H279 H 0.01849 0.69059 0.77868 0.0
H280 H 0.08319 0.74879 0.79857 0.0
H281 H 0.0619 0.6632 0.78898 0.0
C282 C 0.55672 0.7592 0.83447 0.0
C283 C 0.35335 0.5696 0.7873 0.0
C284 C 0.41425 0.62599 0.59932 0.0
N285 N 0.39752 0.66265 0.61361 0.0
C286 C 0.37542 0.58354 0.57726 0.0
N287 N 0.34935 0.64567 0.60295 0.0
C288 C 0.33438 0.59745 0.58027 0.0
H289 H 0.49559 0.66611 0.58446 0.0
H290 H 0.47055 0.59586 0.60343 0.0
H291 H 0.49262 0.67652 0.62301 0.0
C292 C 0.47168 0.64223 0.60289 0.0
H293 H 0.25755 0.58514 0.56921 0.0
C294 C 0.28463 0.56865 0.56061 0.0
H295 H 0.29762 0.58418 0.53921 0.0
H296 H 0.26143 0.51329 0.55786 0.0
C297 C 0.39699 0.58851 0.89643 0.0
C298 C 0.47099 0.59813 0.87753 0.0
N299 N 0.39953 0.60162 0.8695 0.0
N300 N 0.44402 0.60828 0.85825 0.0
C301 C 0.44187 0.58495 0.90248 0.0
H302 H 0.32228 0.53364 0.91784 0.0
C303 C 0.35584 0.58642 0.91669 0.0
H304 H 0.33775 0.61235 0.90914 0.0
H305 H 0.37564 0.61019 0.93847 0.0
H306 H 0.5204 0.55829 0.88158 0.0
H307 H 0.55848 0.64702 0.88114 0.0
C308 C 0.52182 0.59826 0.87165 0.0
H309 H 0.52625 0.59144 0.84826 0.0
C310 C 0.41388 0.8442 0.64686 0.0
C311 C 0.42876 0.68613 0.68374 0.0
C312 C 0.58602 0.90049 0.75252 0.0
N313 N 0.5644 0.8504 0.73089 0.0
C314 C 0.59574 0.95733 0.74242 0.0
C315 C 0.57487 0.93513 0.71393 0.0
N316 N 0.55727 0.87023 0.7077 0.0
C317 C 0.60035 0.89429 0.78166 0.0
H318 H 0.63864 0.89458 0.78119 0.0
H319 H 0.60644 0.93589 0.79772 0.0
H320 H 0.56695 0.8457 0.78793 0.0
C321 C 0.57538 0.97634 0.69285 0.0
H322 H 0.55537 0.94522 0.67203 0.0
H323 H 0.55252 0.99907 0.70112 0.0
H324 H 0.61849 0.01772 0.6902 0.0
C325 C 0.1189 0.60037 0.86657 0.0
C326 C 0.12737 0.58414 0.8924 0.0
C327 C 0.17653 0.5871 0.8896 0.0
N328 N 0.16055 0.61116 0.84981 0.0
N329 N 0.19463 0.60269 0.86354 0.0
H330 H 0.07296 0.64533 0.86818 0.0
H331 H 0.03135 0.55567 0.86313 0.0
H332 H 0.06895 0.60061 0.83372 0.0
C333 C 0.07006 0.60009 0.85714 0.0
C334 C 0.20711 0.57854 0.91172 0.0
H335 H 0.20066 0.59591 0.93347 0.0
H336 H 0.1914 0.52483 0.9104 0.0
H337 H 0.2518 0.60676 0.90783 0.0
C338 C 0.59737 0.74389 0.67148 0.0
C339 C 0.45439 0.71695 0.75479 0.0
C340 C 0.30558 0.86419 0.6691 0.0
C341 C 0.30776 0.90211 0.69452 0.0
C342 C 0.27529 0.85552 0.71266 0.0
N343 N 0.27482 0.7992 0.67277 0.0
N344 N 0.25612 0.79426 0.69861 0.0
C345 C 0.32283 0.88857 0.64075 0.0
H346 H 0.32398 0.85115 0.62514 0.0
H347 H 0.29263 0.89774 0.6324 0.0
H348 H 0.36389 0.93645 0.64302 0.0
C349 C 0.25867 0.86837 0.74174 0.0
H350 H 0.24614 0.82625 0.75385 0.0
H351 H 0.29312 0.91589 0.75361 0.0
H352 H 0.22297 0.87281 0.73956 0.0
C353 C 0.65036 0.74819 0.77749 0.0
C354 C 0.69433 0.79386 0.76269 0.0
C355 C 0.67073 0.81123 0.74335 0.0
N356 N 0.60399 0.73967 0.76707 0.0
N357 N 0.6162 0.77676 0.7465 0.0
C358 C 0.6517 0.7101 0.79958 0.0
H359 H 0.6711 0.74439 0.81987 0.0
H360 H 0.67711 0.68998 0.79264 0.0
H361 H 0.60927 0.66875 0.80346 0.0
C362 C 0.69961 0.86156 0.72311 0.0
H363 H 0.7398 0.90471 0.73306 0.0
H364 H 0.70794 0.83854 0.70351 0.0
H365 H 0.67349 0.87889 0.71692 0.0
C366 C 0.12443 0.62359 0.6523 0.0
C367 C 0.31669 0.69393 0.67863 0.0
C368 C 0.32604 0.74941 0.87605 0.0
N369 N 0.31915 0.69621 0.85898 0.0
N370 N 0.36467 0.69698 0.86022 0.0
C371 C 0.37889 0.78577 0.88902 0.0
C372 C 0.40231 0.75088 0.87831 0.0
H373 H 0.25126 0.74041 0.86423 0.0
H374 H 0.2582 0.73272 0.90098 0.0
H375 H 0.2979 0.81392 0.88948 0.0
C376 C 0.28074 0.76001 0.88298 0.0
H377 H 0.46881 0.73641 0.87392 0.0
H378 H 0.48705 0.81533 0.89424 0.0
H379 H 0.44667 0.73944 0.90981 0.0
C380 C 0.45446 0.7612 0.88958 0.0
C381 C 0.27957 0.72081 0.56852 0.0
N382 N 0.28619 0.72046 0.59649 0.0
N383 N 0.24813 0.72497 0.61033 0.0
C384 C 0.23356 0.72352 0.56429 0.0
C385 C 0.21587 0.72801 0.59172 0.0
C386 C 0.31673 0.71951 0.5463 0.0
H387 H 0.33777 0.76699 0.53702 0.0
H388 H 0.29272 0.67849 0.52854 0.0
H389 H 0.3483 0.7142 0.55583 0.0
C390 C 0.16541 0.72722 0.5997 0.0
H391 H 0.16371 0.76438 0.58913 0.0
H392 H 0.12803 0.67712 0.59225 0.0
H393 H 0.16578 0.7393 0.62319 0.0
C394 C 0.24904 0.49512 0.85714 0.0
C395 C 0.27872 0.65732 0.78847 0.0
Cu396 Cu 0.15662 0.66598 0.76056 0.0
Cu397 Cu 0.17353 0.62186 0.81134 0.0
Cu398 Cu 0.4545 0.62686 0.82054 0.0
Cu399 Cu 0.53034 0.68923 0.77562 0.0
Cu400 Cu 0.44055 0.7462 0.63402 0.0
Cu401 Cu 0.33053 0.70671 0.61819 0.0
Cu402 Cu 0.55858 0.7701 0.72711 0.0
Cu403 Cu 0.5348 0.80657 0.67509 0.0
Cu404 Cu 0.24553 0.71801 0.64913 0.0
Cu405 Cu 0.19457 0.71173 0.70404 0.0
Cu406 Cu 0.2558 0.61583 0.8443 0.0
Cu407 Cu 0.35695 0.61636 0.84704 0.0
H408 H 0.2249 0.78517 0.83009 0.0
H409 H 0.15038 0.72807 0.82875 0.0
H410 H 0.18335 0.7837 0.80201 0.0
H411 H 0.18488 0.57591 0.73863 0.0
H412 H 0.24998 0.62551 0.72297 0.0
H413 H 0.18619 0.58947 0.70189 0.0
H414 H 0.59719 0.78433 0.82462 0.0
H415 H 0.5575 0.73199 0.85138 0.0
H416 H 0.54888 0.79749 0.8439 0.0
H417 H 0.37924 0.56324 0.77131 0.0
H418 H 0.32992 0.58572 0.77692 0.0
H419 H 0.32434 0.52131 0.79522 0.0
H420 H 0.38086 0.832 0.66186 0.0
H421 H 0.41904 0.88161 0.63362 0.0
H422 H 0.45312 0.86519 0.65941 0.0
H423 H 0.40153 0.64475 0.66673 0.0
H424 H 0.40319 0.68683 0.70132 0.0
H425 H 0.45899 0.67683 0.69165 0.0
H426 H 0.57786 0.70693 0.65191 0.0
H427 H 0.63052 0.79291 0.66551 0.0
H428 H 0.61501 0.72611 0.68561 0.0
H429 H 0.45893 0.75766 0.7441 0.0
H430 H 0.41324 0.67052 0.74883 0.0
H431 H 0.45836 0.73202 0.77823 0.0
H432 H 0.09757 0.57804 0.66251 0.0
H433 H 0.10627 0.65379 0.65385 0.0
H434 H 0.12771 0.60852 0.62953 0.0
H435 H 0.29973 0.71271 0.69561 0.0
H436 H 0.30976 0.64605 0.68294 0.0
H437 H 0.3612 0.73223 0.6783 0.0
H438 H 0.26557 0.46408 0.85012 0.0
H439 H 0.25408 0.50761 0.88068 0.0
H440 H 0.20458 0.4668 0.85037 0.0
H441 H 0.31962 0.68169 0.79987 0.0
H442 H 0.27689 0.62585 0.76879 0.0
H443 H 0.27324 0.69644 0.78289 0.0
O444 O 0.19112 0.70492 0.79905 0.0
O445 O 0.20707 0.66882 0.73208 0.0
O446 O 0.51584 0.71507 0.81402 0.0
O447 O 0.38629 0.61688 0.80974 0.0
O448 O 0.40169 0.78746 0.62946 0.0
O449 O 0.45521 0.74593 0.67307 0.0
O450 O 0.55839 0.75037 0.68547 0.0
O451 O 0.49475 0.70609 0.74672 0.0
O452 O 0.17584 0.66026 0.66593 0.0
O453 O 0.29134 0.68439 0.65286 0.0
O454 O 0.27707 0.55255 0.84482 0.0
O455 O 0.23796 0.61808 0.80567 0.0
C456 C 0.44559 0.89795 0.91652 0.0
C457 C 0.39742 0.83386 0.91542 0.0
C458 C 0.46283 0.94307 0.94178 0.0
C459 C 0.43202 0.9244 0.96633 0.0
C460 C 0.38447 0.85959 0.96519 0.0
C461 C 0.36716 0.81481 0.93993 0.0
C462 C 0.44938 0.96981 0.99382 0.0
C463 C 0.47948 0.03684 0.99553 0.0
C464 C 0.49948 0.08236 0.02306 0.0
C465 C 0.54715 0.14683 0.02346 0.0
C466 C 0.56927 0.1902 0.04906 0.0
C467 C 0.54381 0.17012 0.07473 0.0
H468 H 0.43478 0.01492 0.04918 0.0
C469 C 0.49488 0.10692 0.07437 0.0
C470 C 0.47273 0.06326 0.04872 0.0
H471 H 0.47451 0.09079 0.09399 0.0
H472 H 0.46976 0.91304 0.89785 0.0
H473 H 0.50079 0.99175 0.9421 0.0
H474 H 0.3605 0.84361 0.98387 0.0
H475 H 0.33045 0.76492 0.93965 0.0
H476 H 0.43649 0.94658 0.01318 0.0
H477 H 0.49212 0.05977 0.97608 0.0
H478 H 0.56813 0.1632 0.00399 0.0
H479 H 0.60655 0.2394 0.04882 0.0
C480 C 0.40449 0.50911 0.5554 0.0
C481 C 0.38913 0.55363 0.5518 0.0
C482 C 0.43666 0.49907 0.53555 0.0
C483 C 0.45382 0.53308 0.51151 0.0
C484 C 0.43395 0.57256 0.50654 0.0
C485 C 0.40242 0.58342 0.52667 0.0
C486 C 0.49274 0.5288 0.49157 0.0
C487 C 0.53398 0.52361 0.50042 0.0
C488 C 0.57163 0.51513 0.48088 0.0
C489 C 0.59759 0.48528 0.49008 0.0
C490 C 0.62561 0.46606 0.47096 0.0
C491 C 0.6287 0.47707 0.44235 0.0
H492 H 0.56292 0.55808 0.44536 0.0
C493 C 0.60831 0.51362 0.434 0.0
C494 C 0.58007 0.53258 0.45304 0.0
H495 H 0.60957 0.52191 0.41192 0.0
H496 H 0.3951 0.48595 0.57472 0.0
H497 H 0.44936 0.46619 0.53952 0.0
H498 H 0.44579 0.59849 0.48795 0.0
H499 H 0.39239 0.6193 0.52369 0.0
H500 H 0.48758 0.53149 0.46925 0.0
H501 H 0.53874 0.52198 0.52297 0.0
H502 H 0.59272 0.47222 0.51152 0.0
H503 H 0.63987 0.43668 0.47777 0.0
C504 C 0.89044 0.41378 0.06318 0.0
C505 C 0.86467 0.44513 0.0756 0.0
C506 C 0.92378 0.43744 0.04004 0.0
C507 C 0.93186 0.49302 0.02868 0.0
C508 C 0.90653 0.52474 0.04144 0.0
C509 C 0.87316 0.50095 0.06455 0.0
C510 C 0.96789 0.52095 0.00439 0.0
C511 C 0.98025 0.48527 0.98515 0.0
C512 C 0.01767 0.51278 0.96132 0.0
C513 C 0.04036 0.47788 0.94856 0.0
C514 C 0.07579 0.5012 0.92624 0.0
C515 C 0.08924 0.55989 0.91593 0.0
H516 H 0.01282 0.59878 0.95921 0.0
C517 C 0.06587 0.59438 0.92813 0.0
C518 C 0.03044 0.57119 0.95064 0.0
H519 H 0.07552 0.63973 0.92053 0.0
H520 H 0.88454 0.37056 0.07124 0.0
H521 H 0.94379 0.41263 0.0316 0.0
H522 H 0.91253 0.56813 0.03349 0.0
H523 H 0.85487 0.52711 0.0741 0.0
H524 H 0.98432 0.57274 1.00247 0.0
H525 H 0.96316 0.4333 0.98704 0.0
H526 H 0.03089 0.4324 0.95601 0.0
H527 H 0.09211 0.47265 0.91679 0.0
C528 C 0.55248 0.97024 0.58769 0.0
C529 C 0.57804 0.93538 0.58066 0.0
C530 C 0.53868 0.99524 0.56652 0.0
C531 C 0.55044 0.98618 0.53778 0.0
C532 C 0.58098 0.9573 0.53148 0.0
C533 C 0.5941 0.93158 0.55257 0.0
C534 C 0.53053 0.00407 0.5137 0.0
C535 C 0.48616 0.00887 0.51446 0.0
C536 C 0.46628 0.02579 0.49004 0.0
C537 C 0.43957 0.05963 0.49586 0.0
C538 C 0.42605 0.08307 0.47391 0.0
C539 C 0.43748 0.07155 0.4455 0.0
H540 H 0.49265 0.98213 0.45569 0.0
C541 C 0.45961 0.03256 0.43928 0.0
C542 C 0.47397 0.01002 0.46126 0.0
H543 H 0.47028 0.0245 0.41767 0.0
H544 H 0.53829 0.97238 0.609 0.0
H545 H 0.51701 0.01927 0.57264 0.0
H546 H 0.59146 0.9504 0.5097 0.0
H547 H 0.61229 0.90331 0.54632 0.0
H548 H 0.55242 0.0111 0.49414 0.0
H549 H 0.46422 0.00235 0.53397 0.0
H550 H 0.43233 0.07178 0.51771 0.0
H551 H 0.4107 0.11472 0.47947 0.0
C552 C 0.5339 0.50519 0.09325 0.0
C553 C 0.49397 0.44741 0.10465 0.0
C554 C 0.52071 0.52323 0.06936 0.0
C555 C 0.46718 0.48336 0.05615 0.0
C556 C 0.42638 0.42785 0.06871 0.0
C557 C 0.43967 0.40987 0.09274 0.0
C558 C 0.45273 0.49769 0.0292 0.0
C559 C 0.49016 0.53077 0.00999 0.0
C560 C 0.47645 0.54334 0.98235 0.0
C561 C 0.51886 0.59498 0.96858 0.0
C562 C 0.508 0.60821 0.94247 0.0
C563 C 0.45451 0.56967 0.92948 0.0
H564 H 0.38959 0.462 0.97812 0.0
C565 C 0.41233 0.51707 0.94283 0.0
C566 C 0.42307 0.50388 0.96894 0.0
H567 H 0.37098 0.48543 0.9329 0.0
H568 H 0.5758 0.53585 0.10254 0.0
H569 H 0.55276 0.56817 0.06131 0.0
H570 H 0.3846 0.3968 0.05926 0.0
H571 H 0.4082 0.36497 0.10111 0.0
H572 H 0.40952 0.47808 0.0248 0.0
H573 H 0.53325 0.54982 0.01443 0.0
H574 H 0.56049 0.62581 0.97824 0.0
H575 H 0.5412 0.64948 0.93281 0.0
C576 C 0.87201 0.44012 0.45596 0.0
C577 C 0.85177 0.37209 0.44917 0.0
C578 C 0.92283 0.4839 0.47092 0.0
C579 C 0.95438 0.46021 0.47905 0.0
C580 C 0.93249 0.39145 0.47371 0.0
C581 C 0.8817 0.34768 0.45856 0.0
C582 C 0.01042 0.50579 0.49276 0.0
C583 C 0.04457 0.56958 0.48784 0.0
C584 C 0.10011 0.61365 0.50231 0.0
C585 C 0.12067 0.68115 0.51156 0.0
C586 C 0.16819 0.72022 0.52981 0.0
C587 C 0.19569 0.69214 0.53866 0.0
H588 H 0.11737 0.53681 0.50107 0.0
C589 C 0.178 0.62661 0.52712 0.0
C590 C 0.131 0.58793 0.50884 0.0
H591 H 0.19767 0.60314 0.53402 0.0
H592 H 0.85003 0.46018 0.44833 0.0
H593 H 0.93761 0.53624 0.47557 0.0
H594 H 0.95585 0.37203 0.48013 0.0
H595 H 0.86683 0.29538 0.45321 0.0
H596 H 0.02441 0.48509 0.50677 0.0
H597 H 0.03091 0.59111 0.47414 0.0
H598 H 0.09795 0.70227 0.50631 0.0
H599 H 0.18131 0.77076 0.53845 0.0
C600 C 0.63904 0.98221 0.31402 0.0
C601 C 0.69138 0.03179 0.30604 0.0
C602 C 0.62228 0.91505 0.31077 0.0
C603 C 0.6578 0.89605 0.29949 0.0
C604 C 0.71049 0.94631 0.29202 0.0
C605 C 0.72708 0.01319 0.29527 0.0
C606 C 0.64192 0.82509 0.2941 0.0
C607 C 0.59479 0.77153 0.30186 0.0
C608 C 0.57976 0.70121 0.29452 0.0
C609 C 0.52382 0.64803 0.2932 0.0
C610 C 0.50788 0.58185 0.28455 0.0
C611 C 0.54764 0.56747 0.27716 0.0
H612 H 0.6633 0.72456 0.29067 0.0
C613 C 0.60367 0.61996 0.27996 0.0
C614 C 0.61964 0.68595 0.28866 0.0
H615 H 0.63528 0.61004 0.27511 0.0
H616 H 0.61038 0.99508 0.32202 0.0
H617 H 0.58118 0.87867 0.31662 0.0
H618 H 0.73903 0.93378 0.2834 0.0
H619 H 0.76803 0.05041 0.28939 0.0
H620 H 0.67063 0.8169 0.28228 0.0
H621 H 0.56462 0.77819 0.31283 0.0
H622 H 0.49213 0.65789 0.29795 0.0
H623 H 0.46437 0.54237 0.28249 0.0
C624 C 0.05175 0.82142 0.76069 0.0
C625 C 0.05173 0.78416 0.73527 0.0
C626 C 0.01737 0.84507 0.7626 0.0
C627 C 0.983 0.83234 0.73894 0.0
C628 C 0.98543 0.79851 0.71309 0.0
C629 C 0.01905 0.77393 0.71135 0.0
C630 C 0.94095 0.84862 0.74091 0.0
C631 C 0.91067 0.83962 0.76398 0.0
C632 C 0.85743 0.83427 0.76318 0.0
C633 C 0.83545 0.8429 0.78895 0.0
C634 C 0.78258 0.83101 0.78897 0.0
C635 C 0.75105 0.81007 0.76319 0.0
H636 H 0.83923 0.80258 0.71724 0.0
C637 C 0.77291 0.8015 0.7375 0.0
C638 C 0.82539 0.81326 0.73744 0.0
H639 H 0.74852 0.78295 0.71748 0.0
H640 H 0.07804 0.83197 0.77914 0.0
H641 H 0.01734 0.87261 0.78258 0.0
H642 H 0.95916 0.78811 0.6946 0.0
H643 H 0.01774 0.74474 0.69161 0.0
H644 H 0.92974 0.85892 0.72147 0.0
H645 H 0.92237 0.82969 0.78342 0.0
H646 H 0.85887 0.85787 0.80912 0.0
H647 H 0.7663 0.83779 0.80905 0.0
C648 C 0.28672 0.91414 0.29628 0.0
C649 C 0.32904 0.94493 0.27747 0.0
C650 C 0.23695 0.8549 0.28664 0.0
C651 C 0.22839 0.82603 0.25788 0.0
C652 C 0.27239 0.85356 0.23973 0.0
C653 C 0.32244 0.91312 0.24943 0.0
C654 C 0.17298 0.76979 0.24621 0.0
C655 C 0.12719 0.76664 0.25491 0.0
C656 C 0.07048 0.70998 0.24551 0.0
C657 C 0.02816 0.69575 0.26424 0.0
C658 C 0.97503 0.63928 0.25753 0.0
C659 C 0.96325 0.59703 0.23176 0.0
H660 H 0.08903 0.68014 0.20361 0.0
C661 C 0.00439 0.61317 0.21213 0.0
C662 C 0.05782 0.66937 0.21895 0.0
H663 H -0.00413 0.5806 0.19218 0.0
H664 H 0.29037 0.93832 0.31785 0.0
H665 H 0.20438 0.83337 0.30143 0.0
H666 H 0.26691 0.83141 0.2176 0.0
H667 H 0.35475 0.93628 0.23463 0.0
H668 H 0.17032 0.73202 0.22989 0.0
H669 H 0.13113 0.80581 0.27092 0.0
H670 H 0.03678 0.72676 0.28468 0.0
H671 H 0.9436 0.6272 0.27291 0.0
C672 C 0.47945 0.40358 0.74279 0.0
C673 C 0.4421 0.42143 0.75099 0.0
C674 C 0.46009 0.33775 0.731 0.0
C675 C 0.40289 0.28886 0.72714 0.0
C676 C 0.36596 0.3081 0.73409 0.0
C677 C 0.3853 0.37353 0.74599 0.0
C678 C 0.37946 0.21719 0.71655 0.0
C679 C 0.40676 0.18718 0.71816 0.0
C680 C 0.37989 0.11375 0.71084 0.0
C681 C 0.41248 0.08883 0.70224 0.0
C682 C 0.38883 0.01992 0.69647 0.0
C683 C 0.33231 0.97478 0.69963 0.0
H684 H 0.29682 0.08502 0.72145 0.0
C685 C 0.29962 0.99935 0.70831 0.0
C686 C 0.32311 0.06812 0.71394 0.0
H687 H 0.25585 0.96536 0.71076 0.0
H688 H 0.52351 0.44 0.74628 0.0
H689 H 0.49006 0.32569 0.72509 0.0
H690 H 0.32178 0.27191 0.73101 0.0
H691 H 0.35571 0.38655 0.75151 0.0
H692 H 0.33657 0.18721 0.70855 0.0
H693 H 0.44989 0.21648 0.72561 0.0
H694 H 0.45638 0.12275 0.70004 0.0
H695 H 0.41489 1.00187 0.6901 0.0
C696 C 0.20287 0.18405 0.28456 0.0
C697 C 0.22996 0.17919 0.26038 0.0
C698 C 0.15315 0.1788 0.28135 0.0
C699 C 0.1303 0.1691 0.25388 0.0
C700 C 0.15458 0.15767 0.22981 0.0
C701 C 0.20454 0.16313 0.23304 0.0
C702 C 0.08577 0.17959 0.25001 0.0
C703 C 0.08872 0.23276 0.26494 0.0
C704 C 0.04837 0.2506 0.2616 0.0
C705 C 0.0468 0.29411 0.28372 0.0
C706 C 0.00837 0.3109 0.28217 0.0
C707 C 0.97117 0.28474 0.25837 0.0
H708 H 0.0137 0.19495 0.21918 0.0
C709 C 0.97405 0.24367 0.2356 0.0
C710 C 0.01251 0.22669 0.23713 0.0
H711 H 0.94538 0.22286 0.21709 0.0
H712 H 0.22186 0.19652 0.30584 0.0
H713 H 0.1342 0.18614 0.30026 0.0
H714 H 0.13708 0.14933 0.20849 0.0
H715 H 0.22444 0.15771 0.21417 0.0
H716 H 0.05357 0.14681 0.23344 0.0
H717 H 0.12273 0.26529 0.28078 0.0
H718 H 0.07463 0.31409 0.30257 0.0
H719 H 0.00721 0.34358 0.29975 0.0
C720 C 0.95212 0.36131 0.76715 0.0
C721 C 0.96899 0.42762 0.76693 0.0
C722 C 0.89619 0.31121 0.76674 0.0
C723 C 0.85611 0.32659 0.76596 0.0
C724 C 0.87283 0.39258 0.76483 0.0
C725 C 0.92902 0.44302 0.76571 0.0
C726 C 0.79689 0.27288 0.76502 0.0
C727 C 0.77923 0.22422 0.78135 0.0
C728 C 0.72884 0.15721 0.77363 0.0
C729 C 0.73287 0.10286 0.77534 0.0
C730 C 0.68944 0.03856 0.76519 0.0
C731 C 0.63968 0.02645 0.75434 0.0
H732 H 0.67542 0.18754 0.76132 0.0
C733 C 0.63472 0.0807 0.75335 0.0
C734 C 0.67939 0.14606 0.76272 0.0
H735 H 0.59683 0.07275 0.74511 0.0
H736 H 0.98208 0.34802 0.76726 0.0
H737 H 0.88425 0.26015 0.76656 0.0
H738 H 0.84256 0.40525 0.76388 0.0
H739 H 0.94116 0.49412 0.76591 0.0
H740 H 0.76949 0.26977 0.74877 0.0
H741 H 0.80794 0.22925 0.79742 0.0
H742 H 0.77096 0.11043 0.78315 0.0
H743 H 0.696 0.99867 0.76491 0.0
loop_
_geom_bond_atom_site_label_1
_geom_bond_atom_site_label_2
_geom_bond_distance
_geom_bond_site_symmetry_2
_ccdc_geom_bond_type
C0 C1 1.388 . S
C0 N3 1.338 . S
C0 C5 1.503 . S
C1 C0 1.388 . S
C1 C2 1.396 . S
C2 C1 1.396 . S
C2 N4 1.348 . S
C2 C9 1.504 . S
N3 C0 1.338 . S
N3 N4 1.361 . S
N3 Cu168 1.924 . S
N4 C2 1.348 . S
N4 N3 1.361 . S
N4 Cu169 1.964 . S
C5 C0 1.503 . S
C5 H6 0.979 . S
C5 H7 0.979 . S
C5 H8 0.979 . S
H6 C5 0.979 . S
H7 C5 0.979 . S
H8 C5 0.979 . S
C9 C2 1.504 . S
C9 H10 0.981 . S
C9 H11 0.980 . S
C9 H12 0.979 . S
H10 C9 0.981 . S
H11 C9 0.980 . S
H12 C9 0.979 . S
C13 C15 1.402 . S
C13 N16 1.356 . S
C13 C21 1.481 . S
C14 C15 1.400 . S
C14 N17 1.325 . S
C14 C25 1.503 . S
C15 C13 1.402 . S
C15 C14 1.400 . S
N16 C13 1.356 . S
N16 N17 1.365 . S
N16 Cu175 1.941 . S
N17 C14 1.325 . S
N17 N16 1.365 . S
N17 Cu172 1.924 . S
H18 C21 0.980 . S
H19 C21 0.980 . S
H20 C21 0.980 . S
C21 C13 1.481 . S
C21 H18 0.980 . S
C21 H19 0.980 . S
C21 H20 0.980 . S
H22 C25 0.978 . S
H23 C25 0.978 . S
H24 C25 0.983 . S
C25 C14 1.503 . S
C25 H22 0.978 . S
C25 H23 0.978 . S
C25 H24 0.983 . S
C26 H180 0.979 . S
C26 H181 0.981 . S
C26 H182 0.981 . S
C26 O216 1.438 . S
C27 H183 0.980 . S
C27 H184 0.979 . S
C27 H185 0.980 . S
C27 O217 1.533 . S
C28 N29 1.338 . S
C28 C31 1.388 . S
C28 C36 1.503 . S
N29 C28 1.338 . S
N29 N30 1.361 . S
N29 Cu170 1.924 . S
N30 N29 1.361 . S
N30 C32 1.348 . S
N30 Cu171 1.964 . S
C31 C28 1.388 . S
C31 C32 1.396 . S
C32 N30 1.348 . S
C32 C31 1.396 . S
C32 C40 1.504 . S
H33 C36 0.979 . S
H34 C36 0.979 . S
H35 C36 0.979 . S
C36 C28 1.503 . S
C36 H33 0.979 . S
C36 H34 0.979 . S
C36 H35 0.979 . S
H37 C40 0.981 . S
H38 C40 0.980 . S
H39 C40 0.979 . S
C40 C32 1.504 . S
C40 H37 0.981 . S
C40 H38 0.980 . S
C40 H39 0.979 . S
C41 N43 1.356 . S
C41 C45 1.402 . S
C41 C49 1.481 . S
C42 N44 1.325 . S
C42 C45 1.400 . S
C42 C50 1.503 . S
N43 C41 1.356 . S
N43 N44 1.365 . S
N43 Cu177 1.941 . S
N44 C42 1.325 . S
N44 N43 1.365 . S
N44 Cu168 1.924 . S
C45 C41 1.402 . S
C45 C42 1.400 . S
H46 C49 0.980 . S
H47 C49 0.980 . S
H48 C49 0.980 . S
C49 C41 1.481 . S
C49 H46 0.980 . S
C49 H47 0.980 . S
C49 H48 0.980 . S
C50 C42 1.503 . S
C50 H51 0.978 . S
C50 H52 0.978 . S
C50 H53 0.983 . S
H51 C50 0.978 . S
H52 C50 0.978 . S
H53 C50 0.983 . S
C54 H186 0.979 . S
C54 H187 0.981 . S
C54 H188 0.981 . S
C54 O218 1.438 . S
C55 H189 0.980 . S
C55 H190 0.979 . S
C55 H191 0.980 . S
C55 O219 1.533 . S
C56 N57 1.338 . S
C56 C58 1.388 . S
C56 C64 1.503 . S
N57 C56 1.338 . S
N57 N59 1.361 . S
N57 Cu172 1.924 . S
C58 C56 1.388 . S
C58 C60 1.396 . S
N59 N57 1.361 . S
N59 C60 1.348 . S
N59 Cu173 1.964 . S
C60 C58 1.396 . S
C60 N59 1.348 . S
C60 C66 1.504 . S
H61 C64 0.979 . S
H62 C64 0.979 . S
H63 C64 0.979 . S
C64 C56 1.503 . S
C64 H61 0.979 . S
C64 H62 0.979 . S
C64 H63 0.979 . S
H65 C66 0.981 . S
C66 C60 1.504 . S
C66 H65 0.981 . S
C66 H67 0.979 . S
C66 H68 0.980 . S
H67 C66 0.979 . S
H68 C66 0.980 . S
C69 N71 1.356 . S
C69 C73 1.402 . S
C69 C75 1.481 . S
C70 N72 1.325 . S
C70 C73 1.400 . S
C70 C80 1.503 . S
N71 C69 1.356 . S
N71 N72 1.365 . S
N71 Cu179 1.941 . S
N72 C70 1.325 . S
N72 N71 1.365 . S
N72 Cu170 1.924 . S
C73 C69 1.402 . S
C73 C70 1.400 . S
H74 C75 0.980 . S
C75 C69 1.481 . S
C75 H74 0.980 . S
C75 H76 0.980 . S
C75 H77 0.980 . S
H76 C75 0.980 . S
H77 C75 0.980 . S
H78 C80 0.978 . S
H79 C80 0.978 . S
C80 C70 1.503 . S
C80 H78 0.978 . S
C80 H79 0.978 . S
C80 H81 0.983 . S
H81 C80 0.983 . S
C82 H192 0.979 . S
C82 H193 0.981 . S
C82 H194 0.981 . S
C82 O220 1.438 . S
C83 H195 0.980 . S
C83 H196 0.979 . S
C83 H197 0.980 . S
C83 O221 1.533 . S
C84 N85 1.338 . S
C84 C86 1.388 . S
C84 C89 1.503 . S
N85 C84 1.338 . S
N85 N88 1.361 . S
N85 Cu174 1.924 . S
C86 C84 1.388 . S
C86 C87 1.396 . S
C87 C86 1.396 . S
C87 N88 1.348 . S
C87 C93 1.504 . S
N88 N85 1.361 . S
N88 C87 1.348 . S
N88 Cu175 1.964 . S
C89 C84 1.503 . S
C89 H90 0.979 . S
C89 H91 0.979 1_655 S
C89 H92 0.979 . S
H90 C89 0.979 . S
H91 C89 0.979 1_455 S
H92 C89 0.979 . S
C93 C87 1.504 . S
C93 H94 0.981 . S
C93 H95 0.980 . S
C93 H96 0.979 . S
H94 C93 0.981 . S
H95 C93 0.980 . S
H96 C93 0.979 . S
C97 C98 1.402 . S
C97 N100 1.356 . S
C97 C105 1.481 . S
C98 C97 1.402 . S
C98 C99 1.400 . S
C99 C98 1.400 . S
C99 N101 1.325 . S
C99 C106 1.503 . S
N100 C97 1.356 . S
N100 N101 1.365 . S
N100 Cu169 1.941 . S
N101 C99 1.325 . S
N101 N100 1.365 . S
N101 Cu178 1.924 . S
H102 C105 0.980 . S
H103 C105 0.980 . S
H104 C105 0.980 . S
C105 C97 1.481 . S
C105 H102 0.980 . S
C105 H103 0.980 . S
C105 H104 0.980 . S
C106 C99 1.503 . S
C106 H107 0.978 . S
C106 H108 0.978 . S
C106 H109 0.983 . S
H107 C106 0.978 . S
H108 C106 0.978 . S
H109 C106 0.983 . S
C110 H198 0.979 . S
C110 H199 0.981 . S
C110 H200 0.981 . S
C110 O222 1.438 . S
C111 H201 0.980 . S
C111 H202 0.979 . S
C111 H203 0.980 . S
C111 O223 1.533 . S
C112 C113 1.388 . S
C112 N115 1.338 . S
C112 C117 1.503 . S
C113 C112 1.388 . S
C113 C114 1.396 . S
C114 C113 1.396 . S
C114 N116 1.348 . S
C114 C121 1.504 . S
N115 C112 1.338 . S
N115 N116 1.361 . S
N115 Cu176 1.924 . S
N116 C114 1.348 . S
N116 N115 1.361 . S
N116 Cu177 1.964 . S
C117 C112 1.503 . S
C117 H118 0.979 . S
C117 H119 0.979 . S
C117 H120 0.979 . S
H118 C117 0.979 . S
H119 C117 0.979 . S
H120 C117 0.979 . S
C121 C114 1.504 . S
C121 H122 0.981 . S
C121 H123 0.980 . S
C121 H124 0.979 . S
H122 C121 0.981 . S
H123 C121 0.980 . S
H124 C121 0.979 . S
C125 C126 1.402 . S
C125 N128 1.356 . S
C125 C130 1.481 . S
C126 C125 1.402 . S
C126 C127 1.400 . S
C127 C126 1.400 . S
C127 N129 1.325 . S
C127 C134 1.503 1_655 S
N128 C125 1.356 . S
N128 N129 1.365 . S
N128 Cu171 1.941 . S
N129 C127 1.325 . S
N129 N128 1.365 . S
N129 Cu174 1.924 . S
C130 C125 1.481 . S
C130 H131 0.980 . S
C130 H132 0.980 . S
C130 H133 0.980 . S
H131 C130 0.980 . S
H132 C130 0.980 . S
H133 C130 0.980 . S
C134 C127 1.503 1_455 S
C134 H135 0.978 . S
C134 H136 0.978 . S
C134 H137 0.983 1_455 S
H135 C134 0.978 . S
H136 C134 0.978 . S
H137 C134 0.983 1_655 S
C138 H204 0.979 . S
C138 H205 0.981 . S
C138 H206 0.981 . S
C138 O224 1.438 . S
C139 H207 0.980 . S
C139 H208 0.979 . S
C139 H209 0.980 . S
C139 O225 1.533 . S
C140 N141 1.338 . S
C140 C143 1.388 . S
C140 C148 1.503 . S
N141 C140 1.338 . S
N141 N142 1.361 . S
N141 Cu178 1.924 . S
N142 N141 1.361 . S
N142 C144 1.348 . S
N142 Cu179 1.964 . S
C143 C140 1.388 . S
C143 C144 1.396 . S
C144 N142 1.348 . S
C144 C143 1.396 . S
C144 C152 1.504 . S
H145 C148 0.979 . S
H146 C148 0.979 . S
H147 C148 0.979 . S
C148 C140 1.503 . S
C148 H145 0.979 . S
C148 H146 0.979 . S
C148 H147 0.979 . S
H149 C152 0.981 . S
H150 C152 0.980 . S
H151 C152 0.979 . S
C152 C144 1.504 . S
C152 H149 0.981 . S
C152 H150 0.980 . S
C152 H151 0.979 . S
C153 N154 1.356 . S
C153 C156 1.402 . S
C153 C158 1.481 . S
N154 C153 1.356 . S
N154 N155 1.365 . S
N154 Cu173 1.941 . S
N155 N154 1.365 . S
N155 C157 1.325 . S
N155 Cu176 1.924 . S
C156 C153 1.402 . S
C156 C157 1.400 . S
C157 N155 1.325 . S
C157 C156 1.400 . S
C157 C162 1.503 . S
C158 C153 1.481 . S
C158 H159 0.980 . S
C158 H160 0.980 . S
C158 H161 0.980 . S
H159 C158 0.980 . S
H160 C158 0.980 . S
H161 C158 0.980 . S
C162 C157 1.503 . S
C162 H163 0.978 . S
C162 H164 0.978 . S
C162 H165 0.983 . S
H163 C162 0.978 . S
H164 C162 0.978 . S
H165 C162 0.983 . S
C166 H210 0.979 . S
C166 H211 0.981 . S
C166 H212 0.981 . S
C166 O226 1.438 . S
C167 H213 0.980 . S
C167 H214 0.979 . S
C167 H215 0.980 . S
C167 O227 1.533 . S
Cu168 N3 1.924 . S
Cu168 N44 1.924 . S
Cu168 O216 1.923 . S
Cu168 O217 1.930 . S
Cu169 N4 1.964 . S
Cu169 N100 1.941 . S
Cu169 O216 1.905 . S
Cu169 O227 1.920 . S
Cu170 N29 1.924 . S
Cu170 N72 1.924 . S
Cu170 O218 1.923 . S
Cu170 O219 1.930 . S
Cu171 N30 1.964 . S
Cu171 N128 1.941 . S
Cu171 O218 1.905 . S
Cu171 O223 1.920 . S
Cu172 N17 1.924 . S
Cu172 N57 1.924 . S
Cu172 O220 1.923 . S
Cu172 O221 1.930 . S
Cu173 N59 1.964 . S
Cu173 N154 1.941 . S
Cu173 O220 1.905 . S
Cu173 O225 1.920 . S
Cu174 N85 1.924 . S
Cu174 N129 1.924 . S
Cu174 O222 1.923 . S
Cu174 O223 1.930 . S
Cu175 N16 1.941 . S
Cu175 N88 1.964 . S
Cu175 O221 1.920 . S
Cu175 O222 1.905 . S
Cu176 N115 1.924 . S
Cu176 N155 1.924 . S
Cu176 O224 1.923 . S
Cu176 O225 1.930 . S
Cu177 N43 1.941 . S
Cu177 N116 1.964 . S
Cu177 O217 1.920 . S
Cu177 O224 1.905 . S
Cu178 N101 1.924 . S
Cu178 N141 1.924 . S
Cu178 O226 1.923 . S
Cu178 O227 1.930 . S
Cu179 N71 1.941 . S
Cu179 N142 1.964 . S
Cu179 O219 1.920 . S
Cu179 O226 1.905 . S
H180 C26 0.979 . S
H181 C26 0.981 . S
H182 C26 0.981 . S
H183 C27 0.980 . S
H184 C27 0.979 . S
H185 C27 0.980 . S
H186 C54 0.979 . S
H187 C54 0.981 . S
H188 C54 0.981 . S
H189 C55 0.980 . S
H190 C55 0.979 . S
H191 C55 0.980 . S
H192 C82 0.979 . S
H193 C82 0.981 . S
H194 C82 0.981 . S
H195 C83 0.980 . S
H196 C83 0.979 . S
H197 C83 0.980 . S
H198 C110 0.979 . S
H199 C110 0.981 . S
H200 C110 0.981 . S
H201 C111 0.980 . S
H202 C111 0.979 . S
H203 C111 0.980 . S
H204 C138 0.979 . S
H205 C138 0.981 . S
H206 C138 0.981 . S
H207 C139 0.980 . S
H208 C139 0.979 . S
H209 C139 0.980 . S
H210 C166 0.979 . S
H211 C166 0.981 . S
H212 C166 0.981 . S
H213 C167 0.980 . S
H214 C167 0.979 . S
H215 C167 0.980 . S
O216 C26 1.438 . S
O216 Cu168 1.923 . S
O216 Cu169 1.905 . S
O217 C27 1.533 . S
O217 Cu168 1.930 . S
O217 Cu177 1.920 . S
O218 C54 1.438 . S
O218 Cu170 1.923 . S
O218 Cu171 1.905 . S
O219 C55 1.533 . S
O219 Cu170 1.930 . S
O219 Cu179 1.920 . S
O220 C82 1.438 . S
O220 Cu172 1.923 . S
O220 Cu173 1.905 . S
O221 C83 1.533 . S
O221 Cu172 1.930 . S
O221 Cu175 1.920 . S
O222 C110 1.438 . S
O222 Cu174 1.923 . S
O222 Cu175 1.905 . S
O223 C111 1.533 . S
O223 Cu171 1.920 . S
O223 Cu174 1.930 . S
O224 C138 1.438 . S
O224 Cu176 1.923 . S
O224 Cu177 1.905 . S
O225 C139 1.533 . S
O225 Cu173 1.920 . S
O225 Cu176 1.930 . S
O226 C166 1.438 . S
O226 Cu178 1.923 . S
O226 Cu179 1.905 . S
O227 C167 1.533 . S
O227 Cu169 1.920 . S
O227 Cu178 1.930 . S
C228 C229 1.388 . S
C228 N231 1.338 . S
C228 C233 1.503 . S
C229 C228 1.388 . S
C229 C230 1.396 . S
C230 C229 1.396 . S
C230 N232 1.348 . S
C230 C237 1.504 . S
N231 C228 1.338 . S
N231 N232 1.361 . S
N231 Cu396 1.924 . S
N232 C230 1.348 . S
N232 N231 1.361 . S
N232 Cu397 1.964 . S
C233 C228 1.503 . S
C233 H234 0.979 . S
C233 H235 0.979 1_455 S
C233 H236 0.979 . S
H234 C233 0.979 . S
H235 C233 0.979 1_655 S
H236 C233 0.979 . S
C237 C230 1.504 . S
C237 H238 0.981 . S
C237 H239 0.980 . S
C237 H240 0.979 . S
H238 C237 0.981 . S
H239 C237 0.980 . S
H240 C237 0.979 . S
C241 C243 1.402 . S
C241 N244 1.356 . S
C241 C249 1.481 . S
C242 C243 1.400 . S
C242 N245 1.325 . S
C242 C253 1.503 . S
C243 C241 1.402 . S
C243 C242 1.400 . S
N244 C241 1.356 . S
N244 N245 1.365 . S
N244 Cu403 1.941 . S
N245 C242 1.325 . S
N245 N244 1.365 . S
N245 Cu400 1.924 . S
H246 C249 0.980 . S
H247 C249 0.980 . S
H248 C249 0.980 . S
C249 C241 1.481 . S
C249 H246 0.980 . S
C249 H247 0.980 . S
C249 H248 0.980 . S
H250 C253 0.978 . S
H251 C253 0.978 . S
H252 C253 0.983 . S
C253 C242 1.503 . S
C253 H250 0.978 . S
C253 H251 0.978 . S
C253 H252 0.983 . S
C254 H408 0.979 . S
C254 H409 0.981 . S
C254 H410 0.981 . S
C254 O444 1.438 . S
C255 H411 0.980 . S
C255 H412 0.979 . S
C255 H413 0.980 . S
C255 O445 1.533 . S
C256 N257 1.338 . S
C256 C259 1.388 . S
C256 C264 1.503 . S
N257 C256 1.338 . S
N257 N258 1.361 . S
N257 Cu398 1.924 . S
N258 N257 1.361 . S
N258 C260 1.348 . S
N258 Cu399 1.964 . S
C259 C256 1.388 . S
C259 C260 1.396 . S
C260 N258 1.348 . S
C260 C259 1.396 . S
C260 C268 1.504 . S
H261 C264 0.979 . S
H262 C264 0.979 . S
H263 C264 0.979 . S
C264 C256 1.503 . S
C264 H261 0.979 . S
C264 H262 0.979 . S
C264 H263 0.979 . S
H265 C268 0.981 . S
H266 C268 0.980 . S
H267 C268 0.979 . S
C268 C260 1.504 . S
C268 H265 0.981 . S
C268 H266 0.980 . S
C268 H267 0.979 . S
C269 N271 1.356 . S
C269 C273 1.402 . S
C269 C277 1.481 . S
C270 N272 1.325 . S
C270 C273 1.400 . S
C270 C278 1.503 1_455 S
N271 C269 1.356 . S
N271 N272 1.365 . S
N271 Cu405 1.941 . S
N272 C270 1.325 . S
N272 N271 1.365 . S
N272 Cu396 1.924 . S
C273 C269 1.402 . S
C273 C270 1.400 . S
H274 C277 0.980 . S
H275 C277 0.980 . S
H276 C277 0.980 . S
C277 C269 1.481 . S
C277 H274 0.980 . S
C277 H275 0.980 . S
C277 H276 0.980 . S
C278 C270 1.503 1_655 S
C278 H279 0.978 . S
C278 H280 0.978 . S
C278 H281 0.983 1_655 S
H279 C278 0.978 . S
H280 C278 0.978 . S
H281 C278 0.983 1_455 S
C282 H414 0.979 . S
C282 H415 0.981 . S
C282 H416 0.981 . S
C282 O446 1.438 . S
C283 H417 0.980 . S
C283 H418 0.979 . S
C283 H419 0.980 . S
C283 O447 1.533 . S
C284 N285 1.338 . S
C284 C286 1.388 . S
C284 C292 1.503 . S
N285 C284 1.338 . S
N285 N287 1.361 . S
N285 Cu400 1.924 . S
C286 C284 1.388 . S
C286 C288 1.396 . S
N287 N285 1.361 . S
N287 C288 1.348 . S
N287 Cu401 1.964 . S
C288 C286 1.396 . S
C288 N287 1.348 . S
C288 C294 1.504 . S
H289 C292 0.979 . S
H290 C292 0.979 . S
H291 C292 0.979 . S
C292 C284 1.503 . S
C292 H289 0.979 . S
C292 H290 0.979 . S
C292 H291 0.979 . S
H293 C294 0.981 . S
C294 C288 1.504 . S
C294 H293 0.981 . S
C294 H295 0.979 . S
C294 H296 0.980 . S
H295 C294 0.979 . S
H296 C294 0.980 . S
C297 N299 1.356 . S
C297 C301 1.402 . S
C297 C303 1.481 . S
C298 N300 1.325 . S
C298 C301 1.400 . S
C298 C308 1.503 . S
N299 C297 1.356 . S
N299 N300 1.365 . S
N299 Cu407 1.941 . S
N300 C298 1.325 . S
N300 N299 1.365 . S
N300 Cu398 1.924 . S
C301 C297 1.402 . S
C301 C298 1.400 . S
H302 C303 0.980 . S
C303 C297 1.481 . S
C303 H302 0.980 . S
C303 H304 0.980 . S
C303 H305 0.980 . S
H304 C303 0.980 . S
H305 C303 0.980 . S
H306 C308 0.978 . S
H307 C308 0.978 . S
C308 C298 1.503 . S
C308 H306 0.978 . S
C308 H307 0.978 . S
C308 H309 0.983 . S
H309 C308 0.983 . S
C310 H420 0.979 . S
C310 H421 0.981 . S
C310 H422 0.981 . S
C310 O448 1.438 . S
C311 H423 0.980 . S
C311 H424 0.979 . S
C311 H425 0.980 . S
C311 O449 1.533 . S
C312 N313 1.338 . S
C312 C314 1.388 . S
C312 C317 1.503 . S
N313 C312 1.338 . S
N313 N316 1.361 . S
N313 Cu402 1.924 . S
C314 C312 1.388 . S
C314 C315 1.396 . S
C315 C314 1.396 . S
C315 N316 1.348 . S
C315 C321 1.504 . S
N316 N313 1.361 . S
N316 C315 1.348 . S
N316 Cu403 1.964 . S
C317 C312 1.503 . S
C317 H318 0.979 . S
C317 H319 0.979 . S
C317 H320 0.979 . S
H318 C317 0.979 . S
H319 C317 0.979 . S
H320 C317 0.979 . S
C321 C315 1.504 . S
C321 H322 0.981 . S
C321 H323 0.980 . S
C321 H324 0.979 . S
H322 C321 0.981 . S
H323 C321 0.980 . S
H324 C321 0.979 . S
C325 C326 1.402 . S
C325 N328 1.356 . S
C325 C333 1.481 . S
C326 C325 1.402 . S
C326 C327 1.400 . S
C327 C326 1.400 . S
C327 N329 1.325 . S
C327 C334 1.503 . S
N328 C325 1.356 . S
N328 N329 1.365 . S
N328 Cu397 1.941 . S
N329 C327 1.325 . S
N329 N328 1.365 . S
N329 Cu406 1.924 . S
H330 C333 0.980 . S
H331 C333 0.980 . S
H332 C333 0.980 . S
C333 C325 1.481 . S
C333 H330 0.980 . S
C333 H331 0.980 . S
C333 H332 0.980 . S
C334 C327 1.503 . S
C334 H335 0.978 . S
C334 H336 0.978 . S
C334 H337 0.983 . S
H335 C334 0.978 . S
H336 C334 0.978 . S
H337 C334 0.983 . S
C338 H426 0.979 . S
C338 H427 0.981 . S
C338 H428 0.981 . S
C338 O450 1.438 . S
C339 H429 0.980 . S
C339 H430 0.979 . S
C339 H431 0.980 . S
C339 O451 1.533 . S
C340 C341 1.388 . S
C340 N343 1.338 . S
C340 C345 1.503 . S
C341 C340 1.388 . S
C341 C342 1.396 . S
C342 C341 1.396 . S
C342 N344 1.348 . S
C342 C349 1.504 . S
N343 C340 1.338 . S
N343 N344 1.361 . S
N343 Cu404 1.924 . S
N344 C342 1.348 . S
N344 N343 1.361 . S
N344 Cu405 1.964 . S
C345 C340 1.503 . S
C345 H346 0.979 . S
C345 H347 0.979 . S
C345 H348 0.979 . S
H346 C345 0.979 . S
H347 C345 0.979 . S
H348 C345 0.979 . S
C349 C342 1.504 . S
C349 H350 0.981 . S
C349 H351 0.980 . S
C349 H352 0.979 . S
H350 C349 0.981 . S
H351 C349 0.980 . S
H352 C349 0.979 . S
C353 C354 1.402 . S
C353 N356 1.356 . S
C353 C358 1.481 . S
C354 C353 1.402 . S
C354 C355 1.400 . S
C355 C354 1.400 . S
C355 N357 1.325 . S
C355 C362 1.503 . S
N356 C353 1.356 . S
N356 N357 1.365 . S
N356 Cu399 1.941 . S
N357 C355 1.325 . S
N357 N356 1.365 . S
N357 Cu402 1.924 . S
C358 C353 1.481 . S
C358 H359 0.980 . S
C358 H360 0.980 . S
C358 H361 0.980 . S
H359 C358 0.980 . S
H360 C358 0.980 . S
H361 C358 0.980 . S
C362 C355 1.503 . S
C362 H363 0.978 . S
C362 H364 0.978 . S
C362 H365 0.983 . S
H363 C362 0.978 . S
H364 C362 0.978 . S
H365 C362 0.983 . S
C366 H432 0.979 . S
C366 H433 0.981 . S
C366 H434 0.981 . S
C366 O452 1.438 . S
C367 H435 0.980 . S
C367 H436 0.979 . S
C367 H437 0.980 . S
C367 O453 1.533 . S
C368 N369 1.338 . S
C368 C371 1.388 . S
C368 C376 1.503 . S
N369 C368 1.338 . S
N369 N370 1.361 . S
N369 Cu406 1.924 . S
N370 N369 1.361 . S
N370 C372 1.348 . S
N370 Cu407 1.964 . S
C371 C368 1.388 . S
C371 C372 1.396 . S
C372 N370 1.348 . S
C372 C371 1.396 . S
C372 C380 1.504 . S
H373 C376 0.979 . S
H374 C376 0.979 . S
H375 C376 0.979 . S
C376 C368 1.503 . S
C376 H373 0.979 . S
C376 H374 0.979 . S
C376 H375 0.979 . S
H377 C380 0.981 . S
H378 C380 0.980 . S
H379 C380 0.979 . S
C380 C372 1.504 . S
C380 H377 0.981 . S
C380 H378 0.980 . S
C380 H379 0.979 . S
C381 N382 1.356 . S
C381 C384 1.402 . S
C381 C386 1.481 . S
N382 C381 1.356 . S
N382 N383 1.365 . S
N382 Cu401 1.941 . S
N383 N382 1.365 . S
N383 C385 1.325 . S
N383 Cu404 1.924 . S
C384 C381 1.402 . S
C384 C385 1.400 . S
C385 N383 1.325 . S
C385 C384 1.400 . S
C385 C390 1.503 . S
C386 C381 1.481 . S
C386 H387 0.980 . S
C386 H388 0.980 . S
C386 H389 0.980 . S
H387 C386 0.980 . S
H388 C386 0.980 . S
H389 C386 0.980 . S
C390 C385 1.503 . S
C390 H391 0.978 . S
C390 H392 0.978 . S
C390 H393 0.983 . S
H391 C390 0.978 . S
H392 C390 0.978 . S
H393 C390 0.983 . S
C394 H438 0.979 . S
C394 H439 0.981 . S
C394 H440 0.981 . S
C394 O454 1.438 . S
C395 H441 0.980 . S
C395 H442 0.979 . S
C395 H443 0.980 . S
C395 O455 1.533 . S
Cu396 N231 1.924 . S
Cu396 N272 1.924 . S
Cu396 O444 1.923 . S
Cu396 O445 1.930 . S
Cu397 N232 1.964 . S
Cu397 N328 1.941 . S
Cu397 O444 1.905 . S
Cu397 O455 1.920 . S
Cu398 N257 1.924 . S
Cu398 N300 1.924 . S
Cu398 O446 1.923 . S
Cu398 O447 1.930 . S
Cu399 N258 1.964 . S
Cu399 N356 1.941 . S
Cu399 O446 1.905 . S
Cu399 O451 1.920 . S
Cu400 N245 1.924 . S
Cu400 N285 1.924 . S
Cu400 O448 1.923 . S
Cu400 O449 1.930 . S
Cu401 N287 1.964 . S
Cu401 N382 1.941 . S
Cu401 O448 1.905 . S
Cu401 O453 1.920 . S
Cu402 N313 1.924 . S
Cu402 N357 1.924 . S
Cu402 O450 1.923 . S
Cu402 O451 1.930 . S
Cu403 N244 1.941 . S
Cu403 N316 1.964 . S
Cu403 O449 1.920 . S
Cu403 O450 1.905 . S
Cu404 N343 1.924 . S
Cu404 N383 1.924 . S
Cu404 O452 1.923 . S
Cu404 O453 1.930 . S
Cu405 N271 1.941 . S
Cu405 N344 1.964 . S
Cu405 O445 1.920 . S
Cu405 O452 1.905 . S
Cu406 N329 1.924 . S
Cu406 N369 1.924 . S
Cu406 O454 1.923 . S
Cu406 O455 1.930 . S
Cu407 N299 1.941 . S
Cu407 N370 1.964 . S
Cu407 O447 1.920 . S
Cu407 O454 1.905 . S
H408 C254 0.979 . S
H409 C254 0.981 . S
H410 C254 0.981 . S
H411 C255 0.980 . S
H412 C255 0.979 . S
H413 C255 0.980 . S
H414 C282 0.979 . S
H415 C282 0.981 . S
H416 C282 0.981 . S
H417 C283 0.980 . S
H418 C283 0.979 . S
H419 C283 0.980 . S
H420 C310 0.979 . S
H421 C310 0.981 . S
H422 C310 0.981 . S
H423 C311 0.980 . S
H424 C311 0.979 . S
H425 C311 0.980 . S
H426 C338 0.979 . S
H427 C338 0.981 . S
H428 C338 0.981 . S
H429 C339 0.980 . S
H430 C339 0.979 . S
H431 C339 0.980 . S
H432 C366 0.979 . S
H433 C366 0.981 . S
H434 C366 0.981 . S
H435 C367 0.980 . S
H436 C367 0.979 . S
H437 C367 0.980 . S
H438 C394 0.979 . S
H439 C394 0.981 . S
H440 C394 0.981 . S
H441 C395 0.980 . S
H442 C395 0.979 . S
H443 C395 0.980 . S
O444 C254 1.438 . S
O444 Cu396 1.923 . S
O444 Cu397 1.905 . S
O445 C255 1.533 . S
O445 Cu396 1.930 . S
O445 Cu405 1.920 . S
O446 C282 1.438 . S
O446 Cu398 1.923 . S
O446 Cu399 1.905 . S
O447 C283 1.533 . S
O447 Cu398 1.930 . S
O447 Cu407 1.920 . S
O448 C310 1.438 . S
O448 Cu400 1.923 . S
O448 Cu401 1.905 . S
O449 C311 1.533 . S
O449 Cu400 1.930 . S
O449 Cu403 1.920 . S
O450 C338 1.438 . S
O450 Cu402 1.923 . S
O450 Cu403 1.905 . S
O451 C339 1.533 . S
O451 Cu399 1.920 . S
O451 Cu402 1.930 . S
O452 C366 1.438 . S
O452 Cu404 1.923 . S
O452 Cu405 1.905 . S
O453 C367 1.533 . S
O453 Cu401 1.920 . S
O453 Cu404 1.930 . S
O454 C394 1.438 . S
O454 Cu406 1.923 . S
O454 Cu407 1.905 . S
O455 C395 1.533 . S
O455 Cu397 1.920 . S
O455 Cu406 1.930 . S
C456 C457 1.386 . S
C456 C458 1.383 . S
C456 H472 0.951 . S
C457 C456 1.386 . S
C457 C461 1.383 . S
C458 C456 1.383 . S
C458 C459 1.402 . S
C458 H473 0.951 1_565 S
C459 C458 1.402 . S
C459 C460 1.375 . S
C459 C462 1.481 . S
C460 C459 1.375 . S
C460 C461 1.367 . S
C460 H474 0.951 . S
C461 C457 1.383 . S
C461 C460 1.367 . S
C461 H475 0.950 . S
C462 C459 1.481 . S
C462 C463 1.297 1_566 S
C462 H476 0.950 1_556 S
C463 C462 1.297 1_544 S
C463 C464 1.479 . S
C463 H477 0.950 1_554 S
C464 C463 1.479 . S
C464 C465 1.375 . S
C464 C470 1.404 . S
C465 C464 1.375 . S
C465 C466 1.369 . S
C465 H478 0.950 . S
C466 C465 1.369 . S
C466 C467 1.392 . S
C466 H479 0.951 . S
C467 C466 1.392 . S
C467 C469 1.384 . S
H468 C470 0.949 1_565 S
C469 C467 1.384 . S
C469 C470 1.385 . S
C469 H471 0.950 . S
C470 C464 1.404 . S
C470 H468 0.949 1_545 S
C470 C469 1.385 . S
H471 C469 0.950 . S
H472 C456 0.951 . S
H473 C458 0.951 1_545 S
H474 C460 0.951 . S
H475 C461 0.950 . S
H476 C462 0.950 1_554 S
H477 C463 0.950 1_556 S
H478 C465 0.950 . S
H479 C466 0.951 . S
C480 C481 1.386 . S
C480 C482 1.383 . S
C480 H496 0.951 . S
C481 C480 1.386 . S
C481 C485 1.383 . S
C482 C480 1.383 . S
C482 C483 1.402 . S
C482 H497 0.951 . S
C483 C482 1.402 . S
C483 C484 1.375 . S
C483 C486 1.481 . S
C484 C483 1.375 . S
C484 C485 1.367 . S
C484 H498 0.951 . S
C485 C481 1.383 . S
C485 C484 1.367 . S
C485 H499 0.950 . S
C486 C483 1.481 . S
C486 C487 1.297 . S
C486 H500 0.950 . S
C487 C486 1.297 . S
C487 C488 1.479 . S
C487 H501 0.950 . S
C488 C487 1.479 . S
C488 C489 1.375 . S
C488 C494 1.404 . S
C489 C488 1.375 . S
C489 C490 1.369 . S
C489 H502 0.950 . S
C490 C489 1.369 . S
C490 C491 1.392 . S
C490 H503 0.951 . S
C491 C490 1.392 . S
C491 C493 1.384 . S
H492 C494 0.949 . S
C493 C491 1.384 . S
C493 C494 1.385 . S
C493 H495 0.950 . S
C494 C488 1.404 . S
C494 H492 0.949 . S
C494 C493 1.385 . S
H495 C493 0.950 . S
H496 C480 0.951 . S
H497 C482 0.951 . S
H498 C484 0.951 . S
H499 C485 0.950 . S
H500 C486 0.950 . S
H501 C487 0.950 . S
H502 C489 0.950 . S
H503 C490 0.951 . S
C504 C505 1.386 . S
C504 C506 1.383 . S
C504 H520 0.951 . S
C505 C504 1.386 . S
C505 C509 1.383 . S
C506 C504 1.383 . S
C506 C507 1.402 . S
C506 H521 0.951 . S
C507 C506 1.402 . S
C507 C508 1.375 . S
C507 C510 1.483 . S
C508 C507 1.375 . S
C508 C509 1.367 . S
C508 H522 0.951 . S
C509 C505 1.383 . S
C509 C508 1.367 . S
C509 H523 0.950 . S
C510 C507 1.483 . S
C510 C511 1.297 1_554 S
C510 H524 0.948 1_554 S
C511 C510 1.297 1_556 S
C511 C512 1.479 1_655 S
C511 H525 0.950 1_556 S
C512 C511 1.479 1_455 S
C512 C513 1.375 . S
C512 C518 1.404 1_455 S
C513 C512 1.375 . S
C513 C514 1.369 . S
C513 H526 0.950 . S
C514 C513 1.369 . S
C514 C515 1.392 . S
C514 H527 0.951 . S
C515 C514 1.392 . S
C515 C517 1.384 . S
H516 C518 0.949 . S
C517 C515 1.384 . S
C517 C518 1.385 1_455 S
C517 H519 0.950 . S
C518 C512 1.404 1_655 S
C518 H516 0.949 . S
C518 C517 1.385 1_655 S
H519 C517 0.950 . S
H520 C504 0.951 . S
H521 C506 0.951 . S
H522 C508 0.951 . S
H523 C509 0.950 . S
H524 C510 0.948 1_556 S
H525 C511 0.950 1_554 S
H526 C513 0.950 . S
H527 C514 0.951 . S
C528 C529 1.386 . S
C528 C530 1.383 . S
C528 H544 0.951 . S
C529 C528 1.386 . S
C529 C533 1.373 1_565 S
C530 C528 1.383 . S
C530 C531 1.401 1_565 S
C530 H545 0.951 . S
C531 C530 1.401 1_545 S
C531 C532 1.375 . S
C531 C534 1.482 . S
C532 C531 1.375 . S
C532 C533 1.379 . S
C532 H546 0.951 . S
C533 C529 1.373 1_545 S
C533 C532 1.379 . S
C533 H547 0.947 . S
C534 C531 1.482 . S
C534 C535 1.297 . S
C534 H548 0.950 . S
C535 C534 1.297 . S
C535 C536 1.479 . S
C535 H549 0.950 1_545 S
C536 C535 1.479 . S
C536 C537 1.375 1_545 S
C536 C542 1.404 . S
C537 C536 1.375 1_565 S
C537 C538 1.369 1_565 S
C537 H550 0.950 . S
C538 C537 1.369 1_545 S
C538 C539 1.392 . S
C538 H551 0.951 1_545 S
C539 C538 1.392 . S
C539 C541 1.384 . S
H540 C542 0.949 . S
C541 C539 1.384 . S
C541 C542 1.385 . S
C541 H543 0.950 . S
C542 C536 1.404 . S
C542 H540 0.949 . S
C542 C541 1.385 . S
H543 C541 0.950 . S
H544 C528 0.951 . S
H545 C530 0.951 . S
H546 C532 0.951 . S
H547 C533 0.947 . S
H548 C534 0.950 . S
H549 C535 0.950 1_565 S
H550 C537 0.950 . S
H551 C538 0.951 1_565 S
C552 C553 1.386 . S
C552 C554 1.383 . S
C552 H568 0.951 . S
C553 C552 1.386 . S
C553 C557 1.383 . S
C554 C552 1.383 . S
C554 C555 1.402 . S
C554 H569 0.951 . S
C555 C554 1.402 . S
C555 C556 1.375 . S
C555 C558 1.481 . S
C556 C555 1.375 . S
C556 C557 1.367 . S
C556 H570 0.951 . S
C557 C553 1.383 . S
C557 C556 1.367 . S
C557 H571 0.950 . S
C558 C555 1.481 . S
C558 C559 1.297 1_554 S
C558 H572 0.950 . S
C559 C558 1.297 1_556 S
C559 C560 1.479 . S
C559 H573 0.950 . S
C560 C559 1.479 . S
C560 C561 1.375 . S
C560 C566 1.404 . S
C561 C560 1.375 . S
C561 C562 1.369 . S
C561 H574 0.950 . S
C562 C561 1.369 . S
C562 C563 1.392 . S
C562 H575 0.951 . S
C563 C562 1.392 . S
C563 C565 1.384 . S
H564 C566 0.949 . S
C565 C563 1.384 . S
C565 C566 1.385 . S
C565 H567 0.950 . S
C566 C560 1.404 . S
C566 H564 0.949 . S
C566 C565 1.385 . S
H567 C565 0.950 . S
H568 C552 0.951 . S
H569 C554 0.951 . S
H570 C556 0.951 . S
H571 C557 0.950 . S
H572 C558 0.950 . S
H573 C559 0.950 . S
H574 C561 0.950 . S
H575 C562 0.951 . S
C576 C577 1.386 . S
C576 C578 1.383 . S
C576 H592 0.951 . S
C577 C576 1.386 . S
C577 C581 1.383 . S
C578 C576 1.383 . S
C578 C579 1.402 . S
C578 H593 0.951 . S
C579 C578 1.402 . S
C579 C580 1.375 . S
C579 C582 1.481 . S
C580 C579 1.375 . S
C580 C581 1.367 . S
C580 H594 0.951 . S
C581 C577 1.383 . S
C581 C580 1.367 . S
C581 H595 0.950 . S
C582 C579 1.481 . S
C582 C583 1.297 1_655 S
C582 H596 0.950 . S
C583 C582 1.297 1_455 S
C583 C584 1.479 . S
C583 H597 0.950 . S
C584 C583 1.479 . S
C584 C585 1.375 . S
C584 C590 1.404 . S
C585 C584 1.375 . S
C585 C586 1.369 . S
C585 H598 0.950 . S
C586 C585 1.369 . S
C586 C587 1.392 . S
C586 H599 0.951 . S
C587 C586 1.392 . S
C587 C589 1.384 . S
H588 C590 0.949 . S
C589 C587 1.384 . S
C589 C590 1.385 . S
C589 H591 0.950 . S
C590 C584 1.404 . S
C590 H588 0.949 . S
C590 C589 1.385 . S
H591 C589 0.950 . S
H592 C576 0.951 . S
H593 C578 0.951 . S
H594 C580 0.951 . S
H595 C581 0.950 . S
H596 C582 0.950 . S
H597 C583 0.950 . S
H598 C585 0.950 . S
H599 C586 0.951 . S
C600 C601 1.381 1_565 S
C600 C602 1.390 . S
C600 H616 0.948 1_565 S
C601 C600 1.381 1_545 S
C601 C605 1.383 . S
C602 C600 1.390 . S
C602 C603 1.402 . S
C602 H617 0.951 . S
C603 C602 1.402 . S
C603 C604 1.375 . S
C603 C606 1.481 . S
C604 C603 1.375 . S
C604 C605 1.367 1_565 S
C604 H618 0.951 . S
C605 C601 1.383 . S
C605 C604 1.367 1_545 S
C605 H619 0.950 . S
C606 C603 1.481 . S
C606 C607 1.297 . S
C606 H620 0.950 . S
C607 C606 1.297 . S
C607 C608 1.479 . S
C607 H621 0.950 . S
C608 C607 1.479 . S
C608 C609 1.375 . S
C608 C614 1.404 . S
C609 C608 1.375 . S
C609 C610 1.369 . S
C609 H622 0.950 . S
C610 C609 1.369 . S
C610 C611 1.392 . S
C610 H623 0.951 . S
C611 C610 1.392 . S
C611 C613 1.384 . S
H612 C614 0.949 . S
C613 C611 1.384 . S
C613 C614 1.385 . S
C613 H615 0.950 . S
C614 C608 1.404 . S
C614 H612 0.949 . S
C614 C613 1.385 . S
H615 C613 0.950 . S
H616 C600 0.948 1_545 S
H617 C602 0.951 . S
H618 C604 0.951 . S
H619 C605 0.950 . S
H620 C606 0.950 . S
H621 C607 0.950 . S
H622 C609 0.950 . S
H623 C610 0.951 . S
C624 C625 1.386 1_655 S
C624 C626 1.383 . S
C624 H640 0.951 . S
C625 C624 1.386 1_455 S
C625 C629 1.383 . S
C626 C624 1.383 . S
C626 C627 1.402 . S
C626 H641 0.951 . S
C627 C626 1.402 . S
C627 C628 1.375 . S
C627 C630 1.481 . S
C628 C627 1.375 . S
C628 C629 1.367 1_655 S
C628 H642 0.951 . S
C629 C625 1.383 . S
C629 C628 1.367 1_455 S
C629 H643 0.950 . S
C630 C627 1.481 . S
C630 C631 1.297 . S
C630 H644 0.950 . S
C631 C630 1.297 . S
C631 C632 1.479 . S
C631 H645 0.950 . S
C632 C631 1.479 . S
C632 C633 1.375 . S
C632 C638 1.404 . S
C633 C632 1.375 . S
C633 C634 1.369 . S
C633 H646 0.950 . S
C634 C633 1.369 . S
C634 C635 1.392 . S
C634 H647 0.951 . S
C635 C634 1.392 . S
C635 C637 1.384 . S
H636 C638 0.949 . S
C637 C635 1.384 . S
C637 C638 1.385 . S
C637 H639 0.950 . S
C638 C632 1.404 . S
C638 H636 0.949 . S
C638 C637 1.385 . S
H639 C637 0.950 . S
H640 C624 0.951 . S
H641 C626 0.951 . S
H642 C628 0.951 . S
H643 C629 0.950 . S
H644 C630 0.950 . S
H645 C631 0.950 . S
H646 C633 0.950 . S
H647 C634 0.951 . S
C648 C649 1.391 . S
C648 C650 1.383 1_545 S
C648 H664 0.951 . S
C649 C648 1.391 . S
C649 C653 1.375 1_545 S
C650 C648 1.383 1_565 S
C650 C651 1.402 . S
C650 H665 0.951 . S
C651 C650 1.402 . S
C651 C652 1.375 . S
C651 C654 1.481 . S
C652 C651 1.375 . S
C652 C653 1.367 . S
C652 H666 0.951 . S
C653 C649 1.375 1_565 S
C653 C652 1.367 . S
C653 H667 0.950 . S
C654 C651 1.481 . S
C654 C655 1.297 . S
C654 H668 0.950 . S
C655 C654 1.297 . S
C655 C656 1.479 . S
C655 H669 0.950 . S
C656 C655 1.479 . S
C656 C657 1.375 . S
C656 C662 1.404 . S
C657 C656 1.375 . S
C657 C658 1.369 1_455 S
C657 H670 0.950 . S
C658 C657 1.369 1_655 S
C658 C659 1.392 . S
C658 H671 0.951 . S
C659 C658 1.392 . S
C659 C661 1.384 1_655 S
H660 C662 0.949 . S
C661 C659 1.384 1_455 S
C661 C662 1.385 . S
C661 H663 0.950 1_455 S
C662 C656 1.404 . S
C662 H660 0.949 . S
C662 C661 1.385 . S
H663 C661 0.950 1_655 S
H664 C648 0.951 . S
H665 C650 0.951 . S
H666 C652 0.951 . S
H667 C653 0.950 . S
H668 C654 0.950 . S
H669 C655 0.950 . S
H670 C657 0.950 . S
H671 C658 0.951 . S
C672 C673 1.386 . S
C672 C674 1.383 . S
C672 H688 0.951 . S
C673 C672 1.386 . S
C673 C677 1.383 . S
C674 C672 1.383 . S
C674 C675 1.402 . S
C674 H689 0.951 . S
C675 C674 1.402 . S
C675 C676 1.375 . S
C675 C678 1.481 . S
C676 C675 1.375 . S
C676 C677 1.367 . S
C676 H690 0.951 . S
C677 C673 1.383 . S
C677 C676 1.367 . S
C677 H691 0.950 . S
C678 C675 1.481 . S
C678 C679 1.297 . S
C678 H692 0.950 . S
C679 C678 1.297 . S
C679 C680 1.479 . S
C679 H693 0.950 . S
C680 C679 1.479 . S
C680 C681 1.375 . S
C680 C686 1.404 . S
C681 C680 1.375 . S
C681 C682 1.369 . S
C681 H694 0.950 . S
C682 C681 1.369 . S
C682 C683 1.392 1_545 S
C682 H695 0.951 1_545 S
C683 C682 1.392 1_565 S
C683 C685 1.384 . S
H684 C686 0.949 . S
C685 C683 1.384 . S
C685 C686 1.385 1_565 S
C685 H687 0.950 . S
C686 C680 1.404 . S
C686 H684 0.949 . S
C686 C685 1.385 1_545 S
H687 C685 0.950 . S
H688 C672 0.951 . S
H689 C674 0.951 . S
H690 C676 0.951 . S
H691 C677 0.950 . S
H692 C678 0.950 . S
H693 C679 0.950 . S
H694 C681 0.950 . S
H695 C682 0.951 1_565 S
C696 C697 1.386 . S
C696 C698 1.383 . S
C696 H712 0.951 . S
C697 C696 1.386 . S
C697 C701 1.383 . S
C698 C696 1.383 . S
C698 C699 1.402 . S
C698 H713 0.951 . S
C699 C698 1.402 . S
C699 C700 1.375 . S
C699 C702 1.481 . S
C700 C699 1.375 . S
C700 C701 1.367 . S
C700 H714 0.951 . S
C701 C697 1.383 . S
C701 C700 1.367 . S
C701 H715 0.950 . S
C702 C699 1.481 . S
C702 C703 1.297 . S
C702 H716 0.950 . S
C703 C702 1.297 . S
C703 C704 1.479 . S
C703 H717 0.950 . S
C704 C703 1.479 . S
C704 C705 1.375 . S
C704 C710 1.404 . S
C705 C704 1.375 . S
C705 C706 1.369 1_455 S
C705 H718 0.950 . S
C706 C705 1.369 1_655 S
C706 C707 1.392 . S
C706 H719 0.951 . S
C707 C706 1.392 . S
C707 C709 1.384 1_655 S
H708 C710 0.949 . S
C709 C707 1.384 1_455 S
C709 C710 1.385 . S
C709 H711 0.950 . S
C710 C704 1.404 . S
C710 H708 0.949 . S
C710 C709 1.385 . S
H711 C709 0.950 . S
H712 C696 0.951 . S
H713 C698 0.951 . S
H714 C700 0.951 . S
H715 C701 0.950 . S
H716 C702 0.950 . S
H717 C703 0.950 . S
H718 C705 0.950 . S
H719 C706 0.951 . S
C720 C721 1.386 . S
C720 C722 1.383 1_455 S
C720 H736 0.951 . S
C721 C720 1.386 . S
C721 C725 1.383 1_455 S
C722 C720 1.383 1_655 S
C722 C723 1.402 . S
C722 H737 0.951 . S
C723 C722 1.402 . S
C723 C724 1.375 . S
C723 C726 1.481 . S
C724 C723 1.375 . S
C724 C725 1.367 . S
C724 H738 0.951 . S
C725 C721 1.383 1_655 S
C725 C724 1.367 . S
C725 H739 0.950 1_655 S
C726 C723 1.481 . S
C726 C727 1.297 . S
C726 H740 0.950 . S
C727 C726 1.297 . S
C727 C728 1.479 . S
C727 H741 0.950 . S
C728 C727 1.479 . S
C728 C729 1.375 . S
C728 C734 1.404 . S
C729 C728 1.375 . S
C729 C730 1.369 1_545 S
C729 H742 0.950 . S
C730 C729 1.369 1_565 S
C730 C731 1.393 1_565 S
C730 H743 0.951 . S
C731 C730 1.393 1_545 S
C731 C733 1.383 . S
H732 C734 0.949 . S
C733 C731 1.383 . S
C733 C734 1.385 . S
C733 H735 0.950 . S
C734 C728 1.404 . S
C734 H732 0.949 . S
C734 C733 1.385 . S
H735 C733 0.950 . S
H736 C720 0.951 . S
H737 C722 0.951 . S
H738 C724 0.951 . S
H739 C725 0.950 1_455 S
H740 C726 0.950 . S
H741 C727 0.950 . S
H742 C729 0.950 . S
H743 C730 0.951 . S
C457 C371 1.629 . S
C467 C58 1.652 . S
C481 C286 3.641 . S
C491 C143 3.652 . S
C505 C15 1.659 . S
C515 C326 1.726 . S
C529 C243 2.992 . S
C539 C98 2.971 . S
C553 C156 1.715 . S
C563 C301 1.602 . S
C577 C73 0.902 . S
C587 C384 0.884 . S
C601 C31 1.371 . S
C611 C113 1.279 . S
C625 C273 0.790 . S
C635 C354 0.618 . S
C649 C1 1.461 . S
C659 C86 1.448 . S
C673 C259 1.315 . S
C683 C341 1.392 . S
C697 C45 0.787 . S
C707 C126 0.619 . S
C721 C229 1.373 . S
C731 C314 1.473 1_545 S
