# Generated by pormake.
# Topology usf, (4)-cn, num edge types: 1
# Building blocks:
#     Node 0, Type 0, BuildingBlock: KOZSID_clean_sbu_0, # of connection points: 4
#     Node 1, Type 0, BuildingBlock: KOZSID_clean_sbu_0, # of connection points: 4
#     Node 2, Type 0, BuildingBlock: KOZSID_clean_sbu_0, # of connection points: 4
#     Node 3, Type 0, BuildingBlock: KOZSID_clean_sbu_0, # of connection points: 4
#     Node 4, Type 0, BuildingBlock: KOZSID_clean_sbu_0, # of connection points: 4
#     Node 5, Type 0, BuildingBlock: KOZSID_clean_sbu_0, # of connection points: 4
#     Node 6, Type 0, BuildingBlock: KOZSID_clean_sbu_0, # of connection points: 4
#     Node 7, Type 0, BuildingBlock: KOZSID_clean_sbu_0, # of connection points: 4
#     Node 8, Type 0, BuildingBlock: KOZSID_clean_sbu_0, # of connection points: 4
#     Node 9, Type 0, BuildingBlock: KOZSID_clean_sbu_0, # of connection points: 4
#     Node 10, Type 0, BuildingBlock: KOZSID_clean_sbu_0, # of connection points: 4
#     Node 11, Type 0, BuildingBlock: KOZSID_clean_sbu_0, # of connection points: 4
#     Node 12, Type 0, BuildingBlock: KOZSID_clean_sbu_0, # of connection points: 4
#     Node 13, Type 0, BuildingBlock: KOZSID_clean_sbu_0, # of connection points: 4
#     Node 14, Type 0, BuildingBlock: KOZSID_clean_sbu_0, # of connection points: 4
#     Node 15, Type 0, BuildingBlock: KOZSID_clean_sbu_0, # of connection points: 4
#     Node 16, Type 0, BuildingBlock: KOZSID_clean_sbu_0, # of connection points: 4
#     Node 17, Type 0, BuildingBlock: KOZSID_clean_sbu_0, # of connection points: 4
#     Edge 18, Type (0, 0), BuildingBlock: OJICUG_clean_linker_0, # of connection points: 2
#     Edge 19, Type (0, 0), BuildingBlock: OJICUG_clean_linker_0, # of connection points: 2
#     Edge 20, Type (0, 0), BuildingBlock: OJICUG_clean_linker_0, # of connection points: 2
#     Edge 21, Type (0, 0), BuildingBlock: OJICUG_clean_linker_0, # of connection points: 2
#     Edge 22, Type (0, 0), BuildingBlock: OJICUG_clean_linker_0, # of connection points: 2
#     Edge 23, Type (0, 0), BuildingBlock: OJICUG_clean_linker_0, # of connection points: 2
#     Edge 24, Type (0, 0), BuildingBlock: OJICUG_clean_linker_0, # of connection points: 2
#     Edge 25, Type (0, 0), BuildingBlock: OJICUG_clean_linker_0, # of connection points: 2
#     Edge 26, Type (0, 0), BuildingBlock: OJICUG_clean_linker_0, # of connection points: 2
#     Edge 27, Type (0, 0), BuildingBlock: OJICUG_clean_linker_0, # of connection points: 2
#     Edge 28, Type (0, 0), BuildingBlock: OJICUG_clean_linker_0, # of connection points: 2
#     Edge 29, Type (0, 0), BuildingBlock: OJICUG_clean_linker_0, # of connection points: 2
#     Edge 30, Type (0, 0), BuildingBlock: OJICUG_clean_linker_0, # of connection points: 2
#     Edge 31, Type (0, 0), BuildingBlock: OJICUG_clean_linker_0, # of connection points: 2
#     Edge 32, Type (0, 0), BuildingBlock: OJICUG_clean_linker_0, # of connection points: 2
#     Edge 33, Type (0, 0), BuildingBlock: OJICUG_clean_linker_0, # of connection points: 2
#     Edge 34, Type (0, 0), BuildingBlock: OJICUG_clean_linker_0, # of connection points: 2
#     Edge 35, Type (0, 0), BuildingBlock: OJICUG_clean_linker_0, # of connection points: 2
#     Edge 36, Type (0, 0), BuildingBlock: OJICUG_clean_linker_0, # of connection points: 2
#     Edge 37, Type (0, 0), BuildingBlock: OJICUG_clean_linker_0, # of connection points: 2
#     Edge 38, Type (0, 0), BuildingBlock: OJICUG_clean_linker_0, # of connection points: 2
#     Edge 39, Type (0, 0), BuildingBlock: OJICUG_clean_linker_0, # of connection points: 2
#     Edge 40, Type (0, 0), BuildingBlock: OJICUG_clean_linker_0, # of connection points: 2
#     Edge 41, Type (0, 0), BuildingBlock: OJICUG_clean_linker_0, # of connection points: 2
#     Edge 42, Type (0, 0), BuildingBlock: OJICUG_clean_linker_0, # of connection points: 2
#     Edge 43, Type (0, 0), BuildingBlock: OJICUG_clean_linker_0, # of connection points: 2
#     Edge 44, Type (0, 0), BuildingBlock: OJICUG_clean_linker_0, # of connection points: 2
#     Edge 45, Type (0, 0), BuildingBlock: OJICUG_clean_linker_0, # of connection points: 2
#     Edge 46, Type (0, 0), BuildingBlock: OJICUG_clean_linker_0, # of connection points: 2
#     Edge 47, Type (0, 0), BuildingBlock: OJICUG_clean_linker_0, # of connection points: 2
#     Edge 48, Type (0, 0), BuildingBlock: OJICUG_clean_linker_0, # of connection points: 2
#     Edge 49, Type (0, 0), BuildingBlock: OJICUG_clean_linker_0, # of connection points: 2
#     Edge 50, Type (0, 0), BuildingBlock: OJICUG_clean_linker_0, # of connection points: 2
#     Edge 51, Type (0, 0), BuildingBlock: OJICUG_clean_linker_0, # of connection points: 2
#     Edge 52, Type (0, 0), BuildingBlock: OJICUG_clean_linker_0, # of connection points: 2
#     Edge 53, Type (0, 0), BuildingBlock: OJICUG_clean_linker_0, # of connection points: 2
# Relax obj value: 0.023
# Max RMSD: 0.064
# Mean RMSD: 0.031
data_MOF--net-usf--node1-KOZSID_clean_sbu_0--edge1-OJICUG_clean_linker_0
_symmetry_space_group_name_H-M    P1
_symmetry_Int_Tables_number       1
_symmetry_cell_setting            triclinic
loop_
_symmetry_equiv_pos_as_xyz
'x, y, z'
_cell_length_a     47.662242
_cell_length_b     47.823001
_cell_length_c     26.23756
_cell_angle_alpha  90.151889
_cell_angle_beta   89.45181
_cell_angle_gamma 115.24865
loop_
_atom_site_label
_atom_site_type_symbol
_atom_site_fract_x
_atom_site_fract_y
_atom_site_fract_z
_atom_type_partial_charge
C0 C 0.0113 0.48476 0.15081 0.0
C1 C 0.98635 0.46027 0.17313 0.0
C2 C 0.96469 0.44735 0.13603 0.0
C3 C 0.9773 0.46451 0.09307 0.0
N4 N 1.00595 0.48723 0.10005 0.0
Co5 Co 0.03009 0.51855 0.04654 0.0
N6 N 1.00158 0.4952 0.99007 0.0
C7 C 0.97312 0.47212 0.9969 0.0
C8 C 0.95817 0.46015 0.95208 0.0
C9 C 0.97842 0.47671 0.91431 0.0
C10 C 1.00483 0.49788 0.93816 0.0
N11 N 0.05404 0.54955 0.99271 0.0
C12 C 0.05328 0.54777 0.9405 0.0
C13 C 0.07541 0.57477 0.91911 0.0
C14 C 0.08995 0.59416 0.95866 0.0
C15 C 0.07627 0.57802 1.00213 0.0
N16 N 0.05855 0.54217 0.10311 0.0
C17 C 0.08057 0.5714 0.09879 0.0
C18 C 0.09657 0.58269 0.14299 0.0
C19 C 0.08343 0.55947 0.17805 0.0
C20 C 0.05973 0.53523 0.15354 0.0
N21 N 0.05579 0.49625 0.03269 0.0
C22 C 0.09265 0.466 1.00195 0.0
C23 C 0.10607 0.49755 1.01413 0.0
C24 C 0.08737 0.51212 0.02922 0.0
C25 C 0.06028 0.44977 1.00726 0.0
C26 C 0.0424 0.46521 0.02291 0.0
N27 N 1.00465 0.54139 0.06024 0.0
C28 C 0.97904 0.57266 0.03179 0.0
C29 C 0.97335 0.57857 0.08243 0.0
C30 C 0.98258 0.56442 0.12125 0.0
C31 C 0.99795 0.5461 0.10948 0.0
C32 C 0.99475 0.55407 0.02154 0.0
H33 H 1.0048 0.53631 0.14092 0.0
H34 H 0.99937 0.55049 0.98233 0.0
H35 H 0.09861 0.53647 0.03703 0.0
H36 H 0.01763 0.45211 0.02579 0.0
C37 C 0.9633 0.45946 0.04528 0.0
C38 C 0.03709 0.5076 0.18113 0.0
C39 C 0.0313 0.52152 0.90991 0.0
C40 C 0.08692 0.58669 0.05175 0.0
H41 H 0.98328 0.45326 0.21269 0.0
H42 H 0.94212 0.42804 0.14016 0.0
H43 H 0.93562 0.441 0.94734 0.0
H44 H 0.97409 0.47368 0.8738 0.0
H45 H 0.08084 0.57994 0.87916 0.0
H46 H 0.1092 0.61682 0.95601 0.0
H47 H 0.11562 0.60513 0.14902 0.0
H48 H 0.09007 0.56062 0.21759 0.0
H49 H 0.13094 0.51111 1.01194 0.0
H50 H 0.04855 0.42543 0.99804 0.0
H51 H 0.97222 0.58297 1.00037 0.0
H52 H 0.97803 0.5675 0.16091 0.0
C53 C 0.5853 0.52275 0.90898 0.0
C54 C 0.60878 0.51799 0.88428 0.0
C55 C 0.6289 0.51797 0.92094 0.0
C56 C 0.61659 0.52239 0.966 0.0
N57 N 0.58957 0.52485 0.96063 0.0
Co58 Co 0.56473 0.53191 0.01776 0.0
N59 N 0.59633 0.53549 0.07106 0.0
C60 C 0.62351 0.53375 0.06202 0.0
C61 C 0.64007 0.53535 0.10518 0.0
C62 C 0.62237 0.53802 0.14442 0.0
C63 C 0.59586 0.53809 0.12305 0.0
N64 N 0.53961 0.53836 0.0751 0.0
C65 C 0.54391 0.54028 0.12679 0.0
C66 C 0.51973 0.54359 0.15184 0.0
C67 C 0.49919 0.54293 0.11538 0.0
C68 C 0.5119 0.53946 0.07007 0.0
N69 N 0.53346 0.52897 0.96418 0.0
C70 C 0.50674 0.53172 0.9729 0.0
C71 C 0.49081 0.53119 0.92944 0.0
C72 C 0.50855 0.52838 0.89034 0.0
C73 C 0.53441 0.5271 0.91207 0.0
N74 N 0.54288 0.48619 0.03084 0.0
C75 C 0.51179 0.42322 0.06244 0.0
C76 C 0.49541 0.44069 0.05092 0.0
C77 C 0.51115 0.47161 0.03515 0.0
C78 C 0.54408 0.43768 0.05546 0.0
C79 C 0.55896 0.46876 0.03966 0.0
N80 N 0.58636 0.57762 1.00476 0.0
C81 C 0.58388 0.62659 0.989 0.0
C82 C 0.61524 0.64098 0.97466 0.0
C83 C 0.63208 0.62309 0.97757 0.0
C84 C 0.61742 0.5919 0.99282 0.0
C85 C 0.57016 0.59542 1.00394 0.0
H86 H 0.6316 0.57966 0.99401 0.0
H87 H 0.54617 0.58611 1.01373 0.0
H88 H 0.49707 0.48337 0.02743 0.0
H89 H 0.58358 0.47835 0.03584 0.0
C90 C 0.63119 0.52723 1.01326 0.0
C91 C 0.55982 0.5255 0.88128 0.0
C92 C 0.57029 0.53904 0.15416 0.0
C93 C 0.4981 0.53637 0.02224 0.0
H94 H 0.61141 0.51533 0.8438 0.0
H95 H 0.65046 0.5159 0.91524 0.0
H96 H 0.66183 0.53345 0.10801 0.0
H97 H 0.62799 0.53875 0.18437 0.0
H98 H 0.51704 0.54598 0.19239 0.0
H99 H 0.47735 0.54438 0.1213 0.0
H100 H 0.46928 0.53354 0.92641 0.0
H101 H 0.50335 0.52816 0.85028 0.0
H102 H 0.47035 0.43061 0.05403 0.0
H103 H 0.5581 0.42542 0.06357 0.0
H104 H 0.5695 0.639 0.98744 0.0
H105 H 0.65659 0.63306 0.96823 0.0
C106 C 0.51872 0.05258 0.09161 0.0
C107 C 0.51459 0.0794 0.09799 0.0
C108 C 0.52175 0.09449 0.05235 0.0
C109 C 0.52983 0.07607 0.02105 0.0
N110 N 0.52789 0.04991 0.04366 0.0
Co111 Co 0.53785 0.01673 1.01272 0.0
N112 N 0.55109 0.04027 0.94728 0.0
C113 C 0.55154 0.06809 0.93631 0.0
C114 C 0.56223 0.07856 0.88825 0.0
C115 C 0.56883 0.056 0.86704 0.0
C116 C 0.56173 0.03296 0.90366 0.0
N117 N 0.54768 0.98346 0.98171 0.0
C118 C 0.55786 0.98129 0.93423 0.0
C119 C 0.56156 0.95427 0.92764 0.0
C120 C 0.55315 0.93855 0.97268 0.0
C121 C 0.54486 0.95686 1.00391 0.0
N122 N 0.52488 0.99335 0.0784 0.0
C123 C 0.52397 0.96535 0.08931 0.0
C124 C 0.51448 0.95563 0.13821 0.0
C125 C 0.50942 0.97902 0.16005 0.0
C126 C 0.51621 1.0017 0.123 0.0
N127 N 0.49409 0.99518 0.98733 0.0
C128 C 0.43122 0.96436 0.95436 0.0
C129 C 0.44691 0.94809 0.97515 0.0
C130 C 0.47772 0.96371 0.99143 0.0
C131 C 0.44818 0.99651 0.94963 0.0
C132 C 0.47922 0.01119 0.96566 0.0
N133 N 0.58154 0.03815 0.03795 0.0
C134 C 0.62756 0.03591 0.073 0.0
C135 C 0.64472 0.06807 0.06931 0.0
C136 C 0.62903 0.08487 0.05033 0.0
C137 C 0.59795 0.06965 0.03483 0.0
C138 C 0.5964 0.02171 0.05798 0.0
H139 H 0.58767 0.08389 0.0203 0.0
H140 H 0.58487 0.99726 0.0626 0.0
H141 H 0.48777 0.94968 1.00724 0.0
H142 H 0.49065 0.03559 0.96032 0.0
C143 C 0.54121 0.08359 0.97144 0.0
C144 C 0.51578 0.03145 0.13293 0.0
C145 C 0.56336 1.00367 0.8938 0.0
C146 C 0.53366 0.94945 0.05377 0.0
H147 H 0.50783 0.08755 0.13242 0.0
H148 H 0.52194 0.11666 0.04347 0.0
H149 H 0.56453 0.09985 0.8705 0.0
H150 H 0.5773 0.05627 0.82857 0.0
H151 H 0.56927 0.94667 0.89357 0.0
H152 H 0.55277 0.91629 0.98143 0.0
H153 H 0.51226 0.93443 0.15619 0.0
H154 H 0.50223 0.97968 0.19913 0.0
H155 H 0.4357 0.92317 0.97867 0.0
H156 H 0.43758 0.01066 0.93434 0.0
H157 H 0.63809 0.02131 0.08663 0.0
H158 H 0.64045 0.10982 0.0476 0.0
C159 C 0.59795 0.0308 0.47783 0.0
C160 C 0.62962 0.04951 0.47479 0.0
C161 C 0.63409 0.07788 0.49264 0.0
C162 C 0.60513 0.07491 0.50613 0.0
N163 N 0.58227 0.0464 0.49762 0.0
Co164 Co 0.53722 0.03153 0.51682 0.0
N165 N 0.54412 0.07315 0.54462 0.0
C166 C 0.57119 0.09897 0.5447 0.0
C167 C 0.56879 0.12434 0.56481 0.0
C168 C 0.53826 0.11429 0.57785 0.0
C169 C 0.52371 0.08322 0.56479 0.0
N170 N 0.49245 0.01629 0.53799 0.0
C171 C 0.47709 0.03137 0.5606 0.0
C172 C 0.44603 0.01181 0.56888 0.0
C173 C 0.44157 0.98343 0.55093 0.0
C174 C 0.47 0.98719 0.53274 0.0
N175 N 0.53005 0.99031 0.48709 0.0
C176 C 0.50244 0.96536 0.48283 0.0
C177 C 0.50434 0.9408 0.45863 0.0
C178 C 0.53502 0.95053 0.44696 0.0
C179 C 0.55025 0.9805 0.46535 0.0
N180 N 0.54625 0.01858 0.58374 0.0
C181 C 0.5577 1.00062 0.68013 0.0
C182 C 0.53528 0.97947 0.64853 0.0
C183 C 0.52996 0.98887 0.60083 0.0
C184 C 0.57515 0.03056 0.66192 0.0
C185 C 0.56911 0.03896 0.61396 0.0
N186 N 0.52825 0.04417 0.44955 0.0
C187 C 0.49742 0.03084 0.37345 0.0
C188 C 0.5209 0.05466 0.34668 0.0
C189 C 0.54658 0.0752 0.3736 0.0
C190 C 0.54963 0.06969 0.42493 0.0
C191 C 0.50145 0.02621 0.42462 0.0
H192 H 0.57005 0.08564 0.44324 0.0
H193 H 0.48315 0.00705 0.44233 0.0
H194 H 0.5122 0.9718 0.57891 0.0
H195 H 0.5828 0.06224 0.60268 0.0
C196 C 0.59867 0.0984 0.52714 0.0
C197 C 0.58399 0.99825 0.46253 0.0
C198 C 0.4905 0.06437 0.57261 0.0
C199 C 0.47564 0.96484 0.50576 0.0
H200 H 0.64781 0.04333 0.46173 0.0
H201 H 0.65592 0.09815 0.49609 0.0
H202 H 0.58709 0.14737 0.56959 0.0
H203 H 0.5279 0.12826 0.59513 0.0
H204 H 0.4282 0.01759 0.58505 0.0
H205 H 0.41993 0.96278 0.54971 0.0
H206 H 0.48573 0.91825 0.45138 0.0
H207 H 0.54508 0.93689 0.42774 0.0
H208 H 0.52133 0.95596 0.66105 0.0
H209 H 0.59241 0.04797 0.68544 0.0
H210 H 0.47695 0.0144 0.35436 0.0
H211 H 0.56491 0.09457 0.35461 0.0
C212 C 0.05514 0.49821 0.43991 0.0
C213 C 0.08017 0.49462 0.41854 0.0
C214 C 0.09851 0.4941 0.45784 0.0
C215 C 0.08402 0.49761 0.50112 0.0
N216 N 0.05729 0.50003 0.49205 0.0
Co217 Co 0.03089 0.50799 0.54561 0.0
N218 N 0.06083 0.51255 0.60238 0.0
C219 C 0.08851 0.5114 0.59655 0.0
C220 C 0.10449 0.51522 0.64112 0.0
C221 C 0.08581 0.51874 0.67794 0.0
C222 C 0.05912 0.5165 0.65391 0.0
N223 N 1.00411 0.51511 0.59946 0.0
C224 C 0.00685 0.51789 0.6515 0.0
C225 C 0.98097 0.51951 0.67343 0.0
C226 C 0.96141 0.51776 0.63463 0.0
C227 C 0.97608 0.51489 0.59111 0.0
N228 N 1.00154 0.50457 0.48851 0.0
C229 C 0.97433 0.50676 0.49392 0.0
C230 C 0.95943 0.50507 0.4488 0.0
C231 C 0.97858 0.50234 0.41202 0.0
C232 C 1.00438 0.50273 0.43668 0.0
N233 N 0.00873 0.46228 0.56005 0.0
C234 C 0.97676 0.39894 0.58996 0.0
C235 C 0.96084 0.4155 0.57137 0.0
C236 C 0.97701 0.44671 0.557 0.0
C237 C 0.00916 0.4146 0.59181 0.0
C238 C 0.0245 0.44571 0.57627 0.0
N239 N 0.05282 0.55346 0.53093 0.0
C240 C 0.05069 0.60187 0.50867 0.0
C241 C 0.08219 0.61562 0.4947 0.0
C242 C 0.09888 0.59786 0.50174 0.0
C243 C 0.08401 0.56735 0.51998 0.0
C244 C 0.0367 0.57123 0.52671 0.0
H245 H 0.09811 0.55516 0.52369 0.0
H246 H 0.01259 0.56217 0.53612 0.0
H247 H 0.96317 0.4578 0.5442 0.0
H248 H 0.04919 0.45592 0.57821 0.0
C249 C 0.09733 0.50366 0.54953 0.0
C250 C 0.03094 0.50147 0.40881 0.0
C251 C 0.03272 0.51777 0.68216 0.0
C252 C 0.96387 0.51118 0.54196 0.0
H253 H 0.0855 0.49376 0.37861 0.0
H254 H 0.12074 0.49313 0.45494 0.0
H255 H 0.12673 0.51464 0.64645 0.0
H256 H 0.09109 0.52207 0.71812 0.0
H257 H 0.97625 0.52103 0.71348 0.0
H258 H 0.93879 0.51785 0.63789 0.0
H259 H 0.93748 0.50621 0.44322 0.0
H260 H 0.97414 0.50058 0.37151 0.0
H261 H 0.93576 0.40467 0.56907 0.0
H262 H 0.0228 0.40283 0.6048 0.0
H263 H 0.03668 0.61461 0.50566 0.0
H264 H 0.12326 0.60701 0.49173 0.0
C265 C 0.55931 0.55441 0.6264 0.0
C266 C 0.55474 0.5779 0.65093 0.0
C267 C 0.55487 0.59805 0.61408 0.0
C268 C 0.55926 0.58579 0.56909 0.0
N269 N 0.56158 0.55878 0.57466 0.0
Co270 Co 0.56882 0.53417 0.51768 0.0
N271 N 0.57063 0.56484 0.46357 0.0
C272 C 0.56752 0.59128 0.47201 0.0
C273 C 0.56744 0.60691 0.42839 0.0
C274 C 0.57031 0.5893 0.38946 0.0
C275 C 0.57223 0.56381 0.41146 0.0
N276 N 0.57617 0.50961 0.46073 0.0
C277 C 0.57756 0.51356 0.40891 0.0
C278 C 0.58254 0.49031 0.38437 0.0
C279 C 0.58349 0.47069 0.42133 0.0
C280 C 0.57932 0.48302 0.46642 0.0
N281 N 0.56673 0.50334 0.57175 0.0
C282 C 0.56989 0.47692 0.56333 0.0
C283 C 0.56899 0.46083 0.60691 0.0
C284 C 0.56526 0.47803 0.64575 0.0
C285 C 0.5639 0.50378 0.62377 0.0
N286 N 0.52292 0.51122 0.50641 0.0
C287 C 0.45938 0.47907 0.47803 0.0
C288 C 0.47825 0.46356 0.4851 0.0
C289 C 0.50942 0.4798 0.49925 0.0
C290 C 0.47283 0.51095 0.48779 0.0
C291 C 0.50421 0.52636 0.50194 0.0
N292 N 0.61487 0.55714 0.52878 0.0
C293 C 0.66461 0.55681 0.54805 0.0
C294 C 0.67906 0.58899 0.55377 0.0
C295 C 0.66081 0.60497 0.54495 0.0
C296 C 0.62915 0.5888 0.53283 0.0
C297 C 0.63308 0.54162 0.53527 0.0
H298 H 0.61656 0.60242 0.5277 0.0
H299 H 0.62393 0.51719 0.53142 0.0
H300 H 0.52229 0.46642 0.50341 0.0
H301 H 0.51298 0.55066 0.50813 0.0
C302 C 0.56229 0.59952 0.52116 0.0
C303 C 0.56132 0.52858 0.65432 0.0
C304 C 0.57413 0.53866 0.38096 0.0
C305 C 0.57589 0.46903 0.5143 0.0
H306 H 0.55181 0.58037 0.69138 0.0
H307 H 0.55243 0.61936 0.61954 0.0
H308 H 0.56449 0.62806 0.42516 0.0
H309 H 0.57003 0.59431 0.34936 0.0
H310 H 0.58484 0.48756 0.34382 0.0
H311 H 0.58611 0.44948 0.41585 0.0
H312 H 0.57171 0.43956 0.61019 0.0
H313 H 0.56449 0.47255 0.68585 0.0
H314 H 0.46908 0.43879 0.47974 0.0
H315 H 0.45953 0.52431 0.48317 0.0
H316 H 0.67764 0.54321 0.55324 0.0
H317 H 0.67064 0.62988 0.54884 0.0
C318 C 0.69086 0.84526 0.46511 0.0
C319 C 0.66605 0.82098 0.48798 0.0
C320 C 0.64695 0.8043 0.44973 0.0
C321 C 0.66088 0.81926 0.40559 0.0
N322 N 0.68796 0.8444 0.41312 0.0
Co323 Co 0.71415 0.87366 0.35812 0.0
N324 N 0.68502 0.85008 0.30189 0.0
C325 C 0.65825 0.82433 0.30822 0.0
C326 C 0.64318 0.81252 0.2635 0.0
C327 C 0.66155 0.83158 0.22612 0.0
C328 C 0.68711 0.85402 0.25003 0.0
N329 N 0.74028 0.90305 0.30329 0.0
C330 C 0.73749 0.90235 0.25134 0.0
C331 C 0.76237 0.92673 0.2287 0.0
C332 C 0.78127 0.94339 0.26706 0.0
C333 C 0.76721 0.92831 0.31099 0.0
N334 N 0.74339 0.89716 0.41423 0.0
C335 C 0.77039 0.92259 0.4078 0.0
C336 C 0.78575 0.93426 0.45233 0.0
C337 C 0.76736 0.91538 0.48978 0.0
C338 C 0.7415 0.89324 0.46603 0.0
N339 N 0.73727 0.84776 0.34712 0.0
C340 C 0.76796 0.8109 0.31733 0.0
C341 C 0.78439 0.84289 0.32389 0.0
C342 C 0.76875 0.8607 0.33897 0.0
C343 C 0.73626 0.79764 0.32888 0.0
C344 C 0.72161 0.81623 0.34369 0.0
N345 N 0.69078 0.89933 0.36897 0.0
C346 C 0.68966 0.94864 0.38727 0.0
C347 C 0.65762 0.93417 0.39593 0.0
C348 C 0.64236 0.90232 0.38861 0.0
C349 C 0.65912 0.88562 0.3745 0.0
C350 C 0.70572 0.93087 0.37422 0.0
H351 H 0.64587 0.86153 0.36911 0.0
H352 H 0.73025 0.94303 0.3695 0.0
H353 H 0.78249 0.88495 0.34266 0.0
H354 H 0.69742 0.80447 0.35112 0.0
C355 C 0.64843 0.81124 0.35662 0.0
C356 C 0.71586 0.86916 0.49476 0.0
C357 C 0.71263 0.87851 0.22147 0.0
C358 C 0.77988 0.93588 0.35967 0.0
H359 H 0.66175 0.81613 0.52827 0.0
H360 H 0.62506 0.7841 0.45374 0.0
H361 H 0.62155 0.79218 0.25855 0.0
H362 H 0.65672 0.82908 0.18574 0.0
H363 H 0.767 0.93162 0.18849 0.0
H364 H 0.80322 0.96354 0.26324 0.0
H365 H 0.80753 0.95444 0.45711 0.0
H366 H 0.77234 0.91783 0.53012 0.0
H367 H 0.80904 0.85439 0.31582 0.0
H368 H 0.72257 0.77289 0.32613 0.0
H369 H 0.7024 0.97339 0.39218 0.0
H370 H 0.61744 0.89025 0.39383 0.0
C371 C 0.22632 0.85049 0.46051 0.0
C372 C 0.25135 0.84759 0.48236 0.0
C373 C 0.26861 0.84388 0.44332 0.0
C374 C 0.25321 0.84447 0.3998 0.0
N375 N 0.22737 0.84887 0.40841 0.0
Co376 Co 0.19679 0.84765 0.35475 0.0
N377 N 0.22089 0.83958 0.29747 0.0
C378 C 0.24803 0.8373 0.30255 0.0
C379 C 0.2603 0.83308 0.25729 0.0
C380 C 0.24008 0.83316 0.22079 0.0
C381 C 0.21652 0.8376 0.24577 0.0
N382 N 0.16569 0.84547 0.30135 0.0
C383 C 0.16575 0.8422 0.24942 0.0
C384 C 0.13973 0.84334 0.22805 0.0
C385 C 0.1228 0.84748 0.2672 0.0
C386 C 0.13929 0.84875 0.31034 0.0
N387 N 0.17307 0.85649 0.4117 0.0
C388 C 0.14712 0.86094 0.40612 0.0
C389 C 0.13529 0.86604 0.4512 0.0
C390 C 0.1546 0.86439 0.48802 0.0
C391 C 0.17713 0.85807 0.46339 0.0
N392 N 0.22071 0.89327 0.34158 0.0
C393 C 0.25513 0.95691 0.3146 0.0
C394 C 0.22257 0.94306 0.31651 0.0
C395 C 0.20608 0.91175 0.33027 0.0
C396 C 0.26991 0.93818 0.32811 0.0
C397 C 0.25255 0.90693 0.34111 0.0
N398 N 0.1731 0.8022 0.36844 0.0
C399 C 0.12648 0.75917 0.39975 0.0
C400 C 0.14212 0.74028 0.40498 0.0
C401 C 0.17315 0.75263 0.3886 0.0
C402 C 0.18791 0.78312 0.37027 0.0
C403 C 0.14218 0.78963 0.38142 0.0
H404 H 0.21156 0.79096 0.3588 0.0
H405 H 0.12902 0.8029 0.37937 0.0
H406 H 0.18142 0.90294 0.33075 0.0
H407 H 0.26556 0.89426 0.35023 0.0
C408 C 0.26154 0.83957 0.35041 0.0
C409 C 0.20152 0.85333 0.49115 0.0
C410 C 0.19057 0.83971 0.21828 0.0
C411 C 0.13248 0.85648 0.35891 0.0
H412 H 0.25627 0.84732 0.52246 0.0
H413 H 0.28944 0.84023 0.4464 0.0
H414 H 0.28161 0.83056 0.25144 0.0
H415 H 0.24255 0.83045 0.18028 0.0
H416 H 0.13398 0.84236 0.18812 0.0
H417 H 0.10163 0.85052 0.2643 0.0
H418 H 0.11441 0.8694 0.45685 0.0
H419 H 0.15199 0.86691 0.52856 0.0
H420 H 0.20957 0.95602 0.30633 0.0
H421 H 0.29496 0.94747 0.32895 0.0
H422 H 0.10242 0.75093 0.4114 0.0
H423 H 0.18621 0.73887 0.39006 0.0
C424 C 0.20669 0.36385 0.48059 0.0
C425 C 0.19577 0.38383 0.50271 0.0
C426 C 0.19601 0.40385 0.46566 0.0
C427 C 0.20598 0.39453 0.42257 0.0
N428 N 0.21128 0.3692 0.42935 0.0
Co429 Co 0.22168 0.34593 0.37372 0.0
N430 N 0.22033 0.37449 0.31833 0.0
C431 C 0.21366 0.39901 0.32555 0.0
C432 C 0.2087 0.41125 0.28138 0.0
C433 C 0.21215 0.39346 0.24342 0.0
C434 C 0.22002 0.37162 0.26628 0.0
N435 N 0.23263 0.32301 0.31828 0.0
C436 C 0.23582 0.32749 0.26677 0.0
C437 C 0.24709 0.3079 0.24431 0.0
C438 C 0.24876 0.28901 0.28182 0.0
C439 C 0.2394 0.29862 0.32527 0.0
N440 N 0.22242 0.31695 0.42884 0.0
C441 C 0.22857 0.29211 0.42138 0.0
C442 C 0.23277 0.27929 0.46549 0.0
C443 C 0.22901 0.29681 0.50359 0.0
C444 C 0.22155 0.31899 0.48091 0.0
N445 N 0.17639 0.31936 0.36196 0.0
C446 C 0.11338 0.28456 0.33283 0.0
C447 C 0.13451 0.27117 0.33378 0.0
C448 C 0.16553 0.28874 0.34869 0.0
C449 C 0.12431 0.31521 0.34938 0.0
C450 C 0.15533 0.3319 0.36334 0.0
N451 N 0.26703 0.3727 0.38543 0.0
C452 C 0.31874 0.37758 0.40489 0.0
C453 C 0.33028 0.40961 0.41149 0.0
C454 C 0.30947 0.42286 0.40352 0.0
C455 C 0.27837 0.40423 0.3903 0.0
C456 C 0.28763 0.3599 0.39198 0.0
H457 H 0.26382 0.41582 0.38465 0.0
H458 H 0.28078 0.33575 0.38841 0.0
H459 H 0.18052 0.27728 0.34826 0.0
H460 H 0.16165 0.35518 0.37426 0.0
C461 C 0.20761 0.40713 0.37415 0.0
C462 C 0.21391 0.34147 0.51032 0.0
C463 C 0.22656 0.34838 0.23713 0.0
C464 C 0.23615 0.28495 0.37311 0.0
H465 H 0.18828 0.3841 0.54163 0.0
H466 H 0.18896 0.42248 0.46941 0.0
H467 H 0.20138 0.42968 0.2774 0.0
H468 H 0.20778 0.39577 0.20374 0.0
H469 H 0.253 0.30682 0.2047 0.0
H470 H 0.25571 0.27032 0.27778 0.0
H471 H 0.24001 0.26081 0.46939 0.0
H472 H 0.23295 0.29406 0.5433 0.0
H473 H 0.12752 0.24749 0.32176 0.0
H474 H 0.10904 0.32666 0.35151 0.0
H475 H 0.33345 0.36581 0.41093 0.0
H476 H 0.3171 0.44758 0.40712 0.0
C477 C 0.19322 0.3154 0.98255 0.0
C478 C 0.16592 0.2951 1.00628 0.0
C479 C 0.14647 0.27793 0.96895 0.0
C480 C 0.16228 0.28911 0.92429 0.0
N481 N 0.19088 0.31227 0.93059 0.0
Co482 Co 0.21742 0.33992 0.87437 0.0
N483 N 0.18679 0.31728 0.81954 0.0
C484 C 0.15955 0.29226 0.82697 0.0
C485 C 0.14197 0.28267 0.784 0.0
C486 C 0.15941 0.30208 0.74637 0.0
C487 C 0.18731 0.32207 0.76809 0.0
N488 N 0.24343 0.36858 0.81872 0.0
C489 C 0.24079 0.36668 0.76673 0.0
C490 C 0.26736 0.38876 0.74356 0.0
C491 C 0.28624 0.40602 0.78132 0.0
C492 C 0.27105 0.39317 0.82572 0.0
N493 N 0.24869 0.36164 0.9287 0.0
C494 C 0.27715 0.38465 0.92058 0.0
C495 C 0.29524 0.39312 0.96313 0.0
C496 C 0.27697 0.37485 1.00121 0.0
C497 C 0.24821 0.35685 0.98004 0.0
N498 N 0.23799 0.31178 0.86136 0.0
C499 C 0.26514 0.2721 0.82999 0.0
C500 C 0.28206 0.30415 0.82907 0.0
C501 C 0.26838 0.32332 0.84552 0.0
C502 C 0.23482 0.26011 0.8493 0.0
C503 C 0.22171 0.28021 0.86438 0.0
N504 N 0.19658 0.36773 0.88752 0.0
C505 C 0.19772 0.41566 0.92081 0.0
C506 C 0.16523 0.40297 0.92242 0.0
C507 C 0.14899 0.37322 0.90308 0.0
C508 C 0.16489 0.35636 0.88565 0.0
C509 C 0.21286 0.39776 0.90324 0.0
H510 H 0.15075 0.33384 0.87199 0.0
H511 H 0.23768 0.40833 0.90384 0.0
H512 H 0.28285 0.34745 0.84408 0.0
H513 H 0.19817 0.2697 0.87736 0.0
C514 C 0.14961 0.28062 0.87585 0.0
C515 C 0.22066 0.33734 1.01077 0.0
C516 C 0.21398 0.34414 0.73787 0.0
C517 C 0.28544 0.39889 0.8731 0.0
H518 H 0.15974 0.29339 0.0462 0.0
H519 H 0.12288 0.26054 0.97368 0.0
H520 H 0.11882 0.26428 0.78069 0.0
H521 H 0.15207 0.30146 0.70738 0.0
H522 H 0.27379 0.39144 0.70373 0.0
H523 H 0.30956 0.42403 0.77691 0.0
H524 H 0.31875 0.41083 0.96629 0.0
H525 H 0.284 0.37537 0.04038 0.0
H526 H 0.30589 0.31448 0.81555 0.0
H527 H 0.22092 0.23535 0.85115 0.0
H528 H 0.21141 0.43885 0.93467 0.0
H529 H 0.12388 0.36271 0.90175 0.0
C530 C 0.74418 0.88295 0.96646 0.0
C531 C 0.77026 0.88376 0.99073 0.0
C532 C 0.78987 0.88242 0.95348 0.0
C533 C 0.7749 0.88101 0.90854 0.0
N534 N 0.74715 0.882 0.91457 0.0
Co535 Co 0.71743 0.87842 0.85804 0.0
N536 N 0.74514 0.87371 0.80334 0.0
C537 C 0.77374 0.87519 0.81096 0.0
C538 C 0.78866 0.87352 0.76694 0.0
C539 C 0.7686 0.87123 0.72862 0.0
C540 C 0.74226 0.87139 0.75137 0.0
N541 N 0.6871 0.87358 0.80185 0.0
C542 C 0.68892 0.87036 0.75022 0.0
C543 C 0.66185 0.86732 0.72656 0.0
C544 C 0.64269 0.86945 0.76386 0.0
C545 C 0.65883 0.87333 0.80826 0.0
N546 N 0.69009 0.88405 0.91242 0.0
C547 C 0.66275 0.88539 0.90416 0.0
C548 C 0.64807 0.8879 0.9479 0.0
C549 C 0.66697 0.8879 0.98666 0.0
C550 C 0.69244 0.88556 0.96446 0.0
N551 N 0.73794 0.92443 0.84612 0.0
C552 C 0.76767 0.98842 0.81958 0.0
C553 C 0.73538 0.97166 0.81733 0.0
C554 C 0.72115 0.94022 0.83116 0.0
C555 C 0.78461 0.97265 0.83711 0.0
C556 C 0.76952 0.94108 0.84984 0.0
N557 N 0.69722 0.83262 0.8701 0.0
C558 C 0.65239 0.78617 0.89648 0.0
C559 C 0.67022 0.76933 0.90037 0.0
C560 C 0.70162 0.78463 0.88653 0.0
C561 C 0.71446 0.81584 0.87156 0.0
C562 C 0.66613 0.81733 0.88115 0.0
H563 H 0.73862 0.82612 0.86241 0.0
H564 H 0.65119 0.82873 0.87933 0.0
H565 H 0.69648 0.92911 0.82887 0.0
H566 H 0.78408 0.93061 0.86184 0.0
C567 C 0.78594 0.87827 0.86004 0.0
C568 C 0.71733 0.88318 0.99468 0.0
C569 C 0.71574 0.87049 0.72158 0.0
C570 C 0.64942 0.87967 0.85581 0.0
H571 H 0.77462 0.88498 0.03125 0.0
H572 H 0.81223 0.88209 0.95861 0.0
H573 H 0.81163 0.87436 0.76308 0.0
H574 H 0.77318 0.87018 0.68838 0.0
H575 H 0.65661 0.86433 0.68633 0.0
H576 H 0.61999 0.86904 0.75899 0.0
H577 H 0.62548 0.88803 0.9514 0.0
H578 H 0.66182 0.88835 0.02678 0.0
H579 H 0.72099 0.98278 0.80509 0.0
H580 H 0.80964 0.98435 0.83962 0.0
H581 H 0.6278 0.77542 0.90527 0.0
H582 H 0.71665 0.77292 0.88869 0.0
C583 C 0.18222 0.86331 0.96293 0.0
C584 C 0.17691 0.88638 0.98736 0.0
C585 C 0.17556 0.90575 0.95028 0.0
C586 C 0.17989 0.89346 0.90524 0.0
N587 N 0.18346 0.86711 0.91106 0.0
Co588 Co 0.19152 0.84292 0.85424 0.0
N589 N 0.19328 0.87359 0.80013 0.0
C590 C 0.18945 0.89967 0.80842 0.0
C591 C 0.19026 0.91572 0.76482 0.0
C592 C 0.19459 0.8988 0.72609 0.0
C593 C 0.19636 0.87327 0.74819 0.0
N594 N 0.1996 0.81872 0.7975 0.0
C595 C 0.20191 0.82312 0.74576 0.0
C596 C 0.20691 0.79986 0.7213 0.0
C597 C 0.2071 0.77987 0.75822 0.0
C598 C 0.20243 0.79197 0.80321 0.0
N599 N 0.18992 0.81237 0.90853 0.0
C600 C 0.19334 0.78608 0.90023 0.0
C601 C 0.19333 0.77047 0.94395 0.0
C602 C 0.19011 0.78796 0.98279 0.0
C603 C 0.18812 0.81338 0.96067 0.0
N604 N 0.14567 0.81926 0.84211 0.0
C605 C 0.08269 0.78615 0.81118 0.0
C606 C 0.10132 0.77089 0.8222 0.0
C607 C 0.13228 0.78764 0.83735 0.0
C608 C 0.09599 0.81828 0.81813 0.0
C609 C 0.12698 0.83411 0.834 0.0
N610 N 0.23727 0.86647 0.8659 0.0
C611 C 0.28731 0.8671 0.88532 0.0
C612 C 0.30103 0.89924 0.89139 0.0
C613 C 0.28235 0.91475 0.88282 0.0
C614 C 0.25084 0.8981 0.87056 0.0
C615 C 0.25592 0.85142 0.87212 0.0
H616 H 0.23779 0.91129 0.86582 0.0
H617 H 0.24718 0.82702 0.86772 0.0
H618 H 0.14511 0.77445 0.84398 0.0
H619 H 0.13541 0.85847 0.83872 0.0
C620 C 0.18314 0.90734 0.85736 0.0
C621 C 0.18609 0.83851 0.9911 0.0
C622 C 0.19949 0.84873 0.7178 0.0
C623 C 0.19917 0.77811 0.85115 0.0
H624 H 0.17467 0.88921 0.02791 0.0
H625 H 0.17264 0.92681 0.95564 0.0
H626 H 0.18713 0.93676 0.76145 0.0
H627 H 0.1955 0.9043 0.68598 0.0
H628 H 0.20983 0.79742 0.68083 0.0
H629 H 0.20982 0.75871 0.75281 0.0
H630 H 0.19651 0.74945 0.94731 0.0
H631 H 0.19022 0.78296 0.02294 0.0
H632 H 0.09239 0.74608 0.81766 0.0
H633 H 0.08253 0.83129 0.81153 0.0
H634 H 0.30082 0.85397 0.89049 0.0
H635 H 0.29174 0.93962 0.88703 0.0
C636 C 0.36155 0.21678 0.74428 0.0
C637 C 0.37762 0.24816 0.75451 0.0
C638 C 0.40759 0.2566 0.73953 0.0
C639 C 0.40828 0.23003 0.72143 0.0
N640 N 0.38061 0.20492 0.72441 0.0
Co641 Co 0.37171 0.16156 0.7026 0.0
N642 N 0.41607 0.17412 0.68117 0.0
C643 C 0.43983 0.2025 0.68596 0.0
C644 C 0.4679 0.20402 0.67006 0.0
C645 C 0.46186 0.17482 0.65438 0.0
C646 C 0.43024 0.1571 0.66134 0.0
N647 N 0.36265 0.11853 0.67899 0.0
C648 C 0.38161 0.10688 0.65807 0.0
C649 C 0.36544 0.07581 0.64598 0.0
C650 C 0.33532 0.06742 0.66029 0.0
C651 C 0.33473 0.09375 0.67988 0.0
N652 N 0.32764 0.14892 0.72566 0.0
C653 C 0.30448 0.12001 0.72459 0.0
C654 C 0.27667 0.11817 0.74255 0.0
C655 C 0.28233 0.14765 0.7561 0.0
C656 C 0.31349 0.16591 0.74585 0.0
N657 N 0.36165 0.17115 0.63381 0.0
C658 C 0.35049 0.182 0.53263 0.0
C659 C 0.32901 0.15668 0.5595 0.0
C660 C 0.33488 0.15188 0.60996 0.0
C661 C 0.37681 0.20266 0.55796 0.0
C662 C 0.38189 0.19682 0.60813 0.0
N663 N 0.38176 0.15176 0.77147 0.0
C664 C 0.37222 0.11634 0.84214 0.0
C665 C 0.39366 0.13975 0.87227 0.0
C666 C 0.41001 0.16882 0.84972 0.0
C667 C 0.40421 0.17402 0.79973 0.0
C668 C 0.36637 0.1229 0.79255 0.0
H669 H 0.41777 0.19658 0.78543 0.0
H670 H 0.34893 0.10434 0.77248 0.0
H671 H 0.31778 0.13208 0.62845 0.0
H672 H 0.40279 0.21296 0.6248 0.0
C673 C 0.43492 0.22751 0.7042 0.0
C674 C 0.32828 0.19938 0.75452 0.0
C675 C 0.41498 0.12413 0.64934 0.0
C676 C 0.30891 0.09557 0.70247 0.0
H677 H 0.36875 0.26345 0.77148 0.0
H678 H 0.42672 0.27931 0.74224 0.0
H679 H 0.49013 0.224 0.6699 0.0
H680 H 0.47889 0.16741 0.63974 0.0
H681 H 0.37454 0.0607 0.62899 0.0
H682 H 0.31622 0.0447 0.65749 0.0
H683 H 0.25466 0.09794 0.74429 0.0
H684 H 0.26523 0.15488 0.77097 0.0
H685 H 0.30813 0.14028 0.54135 0.0
H686 H 0.39428 0.22245 0.53843 0.0
H687 H 0.35933 0.09317 0.85682 0.0
H688 H 0.42643 0.18832 0.87075 0.0
C689 C 0.87515 0.2566 0.66683 0.0
C690 C 0.85748 0.27317 0.66154 0.0
C691 C 0.82708 0.25246 0.66668 0.0
C692 C 0.82775 0.2245 0.67541 0.0
N693 N 0.85669 0.22623 0.67675 0.0
Co694 Co 0.86742 0.19083 0.69028 0.0
N695 N 0.82465 0.16364 0.71548 0.0
C696 C 0.79948 0.1693 0.70992 0.0
C697 C 0.77317 0.14717 0.73181 0.0
C698 C 0.78209 0.12588 0.75187 0.0
C699 C 0.81343 0.13602 0.74057 0.0
N700 N 0.87818 0.15539 0.70339 0.0
C701 C 0.86237 0.12817 0.72862 0.0
C702 C 0.87815 0.10959 0.72542 0.0
C703 C 0.90442 0.12548 0.69706 0.0
C704 C 0.90329 0.15276 0.68433 0.0
N705 N 0.91019 0.218 0.66505 0.0
C706 C 0.93156 0.2081 0.65035 0.0
C707 C 0.95856 0.23137 0.63263 0.0
C708 C 0.9539 0.25766 0.63576 0.0
C709 C 0.9242 0.24898 0.65548 0.0
N710 N 0.87969 0.20574 0.75896 0.0
C711 C 0.89324 0.21837 0.86156 0.0
C712 C 0.91359 0.21239 0.82938 0.0
C713 C 0.90643 0.20625 0.77815 0.0
C714 C 0.8672 0.22023 0.84057 0.0
C715 C 0.86084 0.21383 0.78911 0.0
N716 N 0.8553 0.1756 0.62144 0.0
C717 C 0.86254 0.18473 0.53166 0.0
C718 C 0.84777 0.15293 0.52271 0.0
C719 C 0.83468 0.13275 0.5634 0.0
C720 C 0.83877 0.14461 0.61272 0.0
C721 C 0.86579 0.19563 0.5813 0.0
H722 H 0.82968 0.12846 0.64369 0.0
H723 H 0.87799 0.22016 0.58716 0.0
H724 H 0.92182 0.20048 0.7547 0.0
H725 H 0.84003 0.21419 0.77433 0.0
C726 C 0.80229 0.19742 0.68997 0.0
C727 C 0.90907 0.27016 0.65859 0.0
C728 C 0.83082 0.11741 0.75032 0.0
C729 C 0.9267 0.17755 0.65904 0.0
H730 H 0.86559 0.29768 0.65455 0.0
H731 H 0.80695 0.25743 0.66594 0.0
H732 H 0.75038 0.14694 0.73414 0.0
H733 H 0.76706 0.10506 0.77201 0.0
H734 H 0.87103 0.08654 0.74061 0.0
H735 H 0.92231 0.11808 0.68724 0.0
H736 H 0.97933 0.22954 0.61958 0.0
H737 H 0.97025 0.28045 0.62355 0.0
H738 H 0.93388 0.21053 0.84409 0.0
H739 H 0.85119 0.22535 0.86413 0.0
H740 H 0.8722 0.20099 0.50052 0.0
H741 H 0.82268 0.10803 0.55736 0.0
C742 C 0.82907 0.63599 0.61892 0.0
C743 C 0.82109 0.60785 0.59455 0.0
C744 C 0.84232 0.5972 0.60889 0.0
C745 C 0.86227 0.61946 0.64068 0.0
N746 N 0.85546 0.6439 0.64655 0.0
Co747 Co 0.87889 0.68073 0.69027 0.0
N748 N 0.91443 0.66944 0.69902 0.0
C749 C 0.91407 0.6418 0.68789 0.0
C750 C 0.94208 0.64087 0.69574 0.0
C751 C 0.96132 0.66966 0.71326 0.0
C752 C 0.94385 0.68661 0.71564 0.0
N753 N 0.90224 0.71736 0.73424 0.0
C754 C 0.9325 0.73036 0.74863 0.0
C755 C 0.93852 0.7553 0.78087 0.0
C756 C 0.91124 0.75808 0.78662 0.0
C757 C 0.89009 0.73471 0.75792 0.0
N758 N 0.84342 0.69224 0.6818 0.0
C759 C 0.83843 0.71309 0.71061 0.0
C760 C 0.81155 0.71546 0.69904 0.0
C761 C 0.79828 0.69437 0.66116 0.0
C762 C 0.81788 0.68019 0.65153 0.0
N763 N 0.85853 0.65644 0.75053 0.0
C764 C 0.82853 0.62888 0.84095 0.0
C765 C 0.81162 0.62522 0.79638 0.0
C766 C 0.82712 0.63883 0.7514 0.0
C767 C 0.86092 0.64457 0.83866 0.0
C768 C 0.87545 0.65831 0.79317 0.0
N769 N 0.89935 0.70501 0.63032 0.0
C770 C 0.91633 0.75178 0.58089 0.0
C771 C 0.92854 0.73906 0.54343 0.0
C772 C 0.92655 0.70929 0.55131 0.0
C773 C 0.91192 0.69276 0.59472 0.0
C774 C 0.90185 0.73437 0.6241 0.0
H775 H 0.91029 0.66978 0.59881 0.0
H776 H 0.8923 0.7445 0.65203 0.0
H777 H 0.81332 0.63619 0.71813 0.0
H778 H 0.90022 0.67174 0.79331 0.0
C779 C 0.88907 0.61948 0.6619 0.0
C780 C 0.80888 0.65236 0.61944 0.0
C781 C 0.95546 0.71829 0.73625 0.0
C782 C 0.8603 0.73124 0.74614 0.0
H783 H 0.80143 0.5958 0.57009 0.0
H784 H 0.84322 0.57588 0.59717 0.0
H785 H 0.94824 0.622 0.68744 0.0
H786 H 0.98548 0.67725 0.72277 0.0
H787 H 0.96026 0.7698 0.79881 0.0
H788 H 0.90754 0.77565 0.80794 0.0
H789 H 0.80252 0.73054 0.71639 0.0
H790 H 0.77599 0.68916 0.64428 0.0
H791 H 0.78652 0.61324 0.79686 0.0
H792 H 0.87479 0.64828 0.87266 0.0
H793 H 0.91724 0.77465 0.57628 0.0
H794 H 0.93477 0.698 0.52291 0.0
C795 C 0.91925 0.68544 0.12989 0.0
C796 C 0.94334 0.70046 0.09558 0.0
C797 C 0.9444 0.72908 0.08769 0.0
C798 C 0.92099 0.72993 0.11748 0.0
N799 N 0.90518 0.70369 0.1444 0.0
Co800 Co 0.86839 0.69466 0.19044 0.0
N801 N 0.86927 0.73645 0.17719 0.0
C802 C 0.8895 0.75897 0.14671 0.0
C803 C 0.88512 0.78547 0.14631 0.0
C804 C 0.86094 0.77981 0.17914 0.0
C805 C 0.852 0.75007 0.19788 0.0
N806 N 0.83136 0.68543 0.23593 0.0
C807 C 0.81739 0.70373 0.25063 0.0
C808 C 0.79278 0.68836 0.28392 0.0
C809 C 0.79118 0.65944 0.29063 0.0
C810 C 0.81483 0.65874 0.26133 0.0
N811 N 0.86786 0.65302 0.2043 0.0
C812 C 0.84779 0.63058 0.2351 0.0
C813 C 0.85259 0.60431 0.2362 0.0
C814 C 0.87699 0.61011 0.20378 0.0
C815 C 0.88568 0.6397 0.1846 0.0
N816 N 0.89612 0.71249 0.24909 0.0
C817 C 0.92753 0.74131 0.33751 0.0
C818 C 0.90485 0.71099 0.33893 0.0
C819 C 0.88954 0.69713 0.29466 0.0
C820 C 0.93608 0.75649 0.29086 0.0
C821 C 0.92043 0.74137 0.24689 0.0
N822 N 0.84053 0.67683 0.13182 0.0
C823 C 0.8035 0.63169 0.08847 0.0
C824 C 0.81038 0.64779 0.04257 0.0
C825 C 0.83015 0.67926 0.04273 0.0
C826 C 0.84502 0.69319 0.08743 0.0
C827 C 0.81813 0.6469 0.13281 0.0
H828 H 0.86122 0.71674 0.0843 0.0
H829 H 0.81192 0.63352 0.1668 0.0
H830 H 0.87164 0.67444 0.29879 0.0
H831 H 0.9277 0.75382 0.21196 0.0
C832 C 0.91281 0.75467 0.11988 0.0
C833 C 0.91033 0.65364 0.14658 0.0
C834 C 0.82735 0.73607 0.23586 0.0
C835 C 0.82352 0.63428 0.26004 0.0
H836 H 0.95833 0.69148 0.0776 0.0
H837 H 0.96006 0.74698 0.0626 0.0
H838 H 0.89825 0.80656 0.12526 0.0
H839 H 0.85123 0.79592 0.18868 0.0
H840 H 0.77794 0.69734 0.30239 0.0
H841 H 0.77525 0.64137 0.31518 0.0
H842 H 0.83942 0.58317 0.2571 0.0
H843 H 0.8869 0.59412 0.19448 0.0
H844 H 0.89792 0.69849 0.37471 0.0
H845 H 0.95398 0.77995 0.28855 0.0
H846 H 0.78802 0.60727 0.08971 0.0
H847 H 0.83615 0.6925 1.00762 0.0
C848 C 0.39938 0.20241 0.3087 0.0
C849 C 0.42226 0.20915 0.34513 0.0
C850 C 0.44846 0.21146 0.3196 0.0
C851 C 0.44007 0.20605 0.26927 0.0
N852 N 0.41032 0.2006 0.26189 0.0
Co853 Co 0.388 0.19123 0.19663 0.0
N854 N 0.41859 0.17836 0.1654 0.0
C855 C 0.44697 0.18442 0.18356 0.0
C856 C 0.46173 0.17008 0.15617 0.0
C857 C 0.4416 0.15447 0.11814 0.0
C858 C 0.41578 0.1607 0.12375 0.0
N859 N 0.36569 0.18235 0.1313 0.0
C860 C 0.36872 0.16671 0.09018 0.0
C861 C 0.35067 0.16898 0.05026 0.0
C862 C 0.33595 0.18633 0.06744 0.0
C863 C 0.34585 0.19405 0.11645 0.0
N864 N 0.35753 0.20411 0.22825 0.0
C865 C 0.33825 0.21329 0.20389 0.0
C866 C 0.31949 0.22021 0.23684 0.0
C867 C 0.32766 0.21502 0.28481 0.0
C868 C 0.351 0.20529 0.27809 0.0
N869 N 0.4131 0.23423 0.1736 0.0
C870 C 0.44668 0.29579 0.1388 0.0
C871 C 0.43422 0.28937 0.18849 0.0
C872 C 0.4177 0.25866 0.20509 0.0
C873 C 0.44223 0.27042 0.1074 0.0
C874 C 0.42554 0.24008 0.12538 0.0
N875 N 0.36289 0.14822 0.21949 0.0
C876 C 0.31323 0.10398 0.22935 0.0
C877 C 0.32728 0.08638 0.25123 0.0
C878 C 0.35962 0.10079 0.25719 0.0
C879 C 0.37684 0.13154 0.24148 0.0
C880 C 0.33136 0.13461 0.21354 0.0
H881 H 0.40156 0.14179 0.24716 0.0
H882 H 0.31985 0.14729 0.19626 0.0
H883 H 0.40844 0.25469 0.24344 0.0
H884 H 0.42239 0.22132 0.09979 0.0
C885 C 0.45646 0.1987 0.23104 0.0
C886 C 0.36775 0.19859 0.31889 0.0
C887 C 0.39103 0.1528 0.08574 0.0
C888 C 0.3344 0.20909 0.1512 0.0
H889 H 0.42009 0.21169 0.38579 0.0
H890 H 0.47034 0.21473 0.33623 0.0
H891 H 0.4839 0.16989 0.1641 0.0
H892 H 0.44576 0.14057 0.08904 0.0
H893 H 0.34883 0.16004 1.01199 0.0
H894 H 0.31974 0.19232 0.04674 0.0
H895 H 0.30105 0.22671 0.22718 0.0
H896 H 0.3176 0.21794 0.32043 0.0
H897 H 0.43734 0.30794 0.21476 0.0
H898 H 0.45098 0.27385 0.06859 0.0
H899 H 0.28841 0.09398 0.22348 0.0
H900 H 0.37164 0.08851 0.27449 0.0
C901 C 0.90317 0.2241 0.11302 0.0
C902 C 0.90747 0.25421 0.10374 0.0
C903 C 0.89706 0.26357 0.14612 0.0
C904 C 0.88713 0.23871 0.17855 0.0
N905 N 0.89079 0.21413 0.15966 0.0
Co906 Co 0.88048 0.1735 0.19407 0.0
N907 N 0.86228 0.18601 0.254 0.0
C908 C 0.85918 0.21267 0.26004 0.0
C909 C 0.84398 0.21378 0.30396 0.0
C910 C 0.8369 0.18619 0.32743 0.0
C911 C 0.84835 0.16978 0.29629 0.0
N912 N 0.87113 0.13328 0.22928 0.0
C913 C 0.85817 0.12303 0.27557 0.0
C914 C 0.85621 0.09389 0.28643 0.0
C915 C 0.86852 0.08536 0.24536 0.0
C916 C 0.87729 0.10976 0.21211 0.0
N917 N 0.89764 0.16061 0.13316 0.0
C918 C 0.89972 0.13354 0.12601 0.0
C919 C 0.91165 0.13118 0.07928 0.0
C920 C 0.91709 0.15819 0.05484 0.0
C921 C 0.90819 0.17546 0.08836 0.0
N922 N 0.92272 0.1918 0.22586 0.0
C923 C 0.9844 0.22019 0.26389 0.0
C924 C 0.97273 0.19103 0.24086 0.0
C925 C 0.94223 0.17744 0.22228 0.0
C926 C 0.96406 0.23426 0.26914 0.0
C927 C 0.93365 0.21973 0.25055 0.0
N928 N 0.83827 0.15526 0.16255 0.0
C929 C 0.7933 0.11049 0.13253 0.0
C930 C 0.77593 0.1277 0.12809 0.0
C931 C 0.79087 0.15929 0.13921 0.0
C932 C 0.82165 0.17244 0.15646 0.0
C933 C 0.82422 0.12466 0.14884 0.0
H934 H 0.83135 0.19648 0.16549 0.0
H935 H 0.83621 0.11027 0.1506 0.0
H936 H 0.93513 0.15543 0.20459 0.0
H937 H 0.91948 0.23172 0.25627 0.0
C938 C 0.87164 0.23664 0.22467 0.0
C939 C 0.90839 0.20495 0.07475 0.0
C940 C 0.84798 0.14025 0.3109 0.0
C941 C 0.89016 0.1108 0.16376 0.0
H942 H 0.91631 0.26758 0.06923 0.0
H943 H 0.89582 0.28544 0.15187 0.0
H944 H 0.83899 0.23258 0.31761 0.0
H945 H 0.82523 0.17928 0.36391 0.0
H946 H 0.84679 0.08028 0.32054 0.0
H947 H 0.87065 0.06388 0.24021 0.0
H948 H 0.91551 0.11194 0.0645 0.0
H949 H 0.92608 0.16435 0.01643 0.0
H950 H 0.98733 0.179 0.23576 0.0
H951 H 0.97151 0.25648 0.28777 0.0
H952 H 0.78309 0.0861 0.12324 0.0
H953 H 0.77854 0.17371 0.1362 0.0
C954 C 0.03476 0.47916 0.32057 0.0
C955 C 0.0329 0.50305 0.35023 0.0
H956 H 0.03827 0.46204 0.24562 0.0
C957 C 0.03241 0.52841 0.32338 0.0
H958 H 0.03465 0.45895 0.33923 0.0
C959 C 0.03377 0.52984 0.26939 0.0
C960 C 0.03615 0.5062 0.23974 0.0
H961 H 0.03086 0.54726 0.3443 0.0
H962 H 0.03277 0.54955 0.25068 0.0
C963 C 0.03665 0.48084 0.26657 0.0
C964 C 0.54953 0.51493 0.29547 0.0
C965 C 0.57316 0.53882 0.32261 0.0
H966 H 0.53011 0.49615 0.22231 0.0
C967 C 0.59585 0.56278 0.29359 0.0
H968 H 0.53162 0.49607 0.31614 0.0
C969 C 0.59478 0.563 0.23968 0.0
C970 C 0.57123 0.53906 0.21252 0.0
H971 H 0.61455 0.58148 0.31272 0.0
H972 H 0.61254 0.58201 0.21907 0.0
C973 C 0.5486 0.51504 0.24151 0.0
C974 C 0.49134 0.04051 0.21181 0.0
C975 C 0.51782 0.04221 0.18588 0.0
H976 H 0.47178 0.04433 0.28382 0.0
C977 C 0.54604 0.05192 0.21136 0.0
H978 H 0.46943 0.03309 0.19223 0.0
C979 C 0.54748 0.05824 0.26329 0.0
C980 C 0.52062 0.05482 0.29041 0.0
H981 H 0.56662 0.05325 0.19148 0.0
H982 H 0.56916 0.06379 0.28271 0.0
C983 C 0.49274 0.04689 0.26389 0.0
C984 C 0.03059 0.5438 0.76749 0.0
C985 C 0.03236 0.51889 0.74078 0.0
H986 H 0.02828 0.56405 0.84015 0.0
C987 C 0.03409 0.4951 0.77057 0.0
H988 H 0.02933 0.56266 0.74644 0.0
C989 C 0.03407 0.49618 0.82463 0.0
C990 C 0.0324 0.52112 0.85134 0.0
H991 H 0.03535 0.47544 0.75192 0.0
H992 H 0.03532 0.47732 0.84573 0.0
C993 C 0.03035 0.54476 0.82156 0.0
C994 C 0.53688 0.50393 0.74019 0.0
C995 C 0.56079 0.5277 0.71271 0.0
H996 H 0.51786 0.48434 0.81362 0.0
C997 C 0.58416 0.55084 0.74143 0.0
H998 H 0.51836 0.48577 0.71977 0.0
C999 C 0.58369 0.5502 0.79541 0.0
C1000 C 0.55983 0.52639 0.8229 0.0
H1001 H 0.60298 0.56952 0.72199 0.0
H1002 H 0.60213 0.56844 0.81583 0.0
C1003 C 0.53648 0.50321 0.79419 0.0
C1004 C 0.53425 0.97925 0.81637 0.0
C1005 C 0.56292 0.99416 0.84039 0.0
H1006 H 0.51014 0.96955 0.74586 0.0
C1007 C 0.59038 1.00562 0.8115 0.0
H1008 H 0.51289 0.97051 0.8385 0.0
C1009 C 0.58894 1.00512 0.75842 0.0
C1010 C 0.56002 0.99323 0.73408 0.0
H1011 H 0.61265 0.01728 0.82988 0.0
H1012 H 0.61029 0.016 0.73656 0.0
C1013 C 0.53277 0.97872 0.76343 0.0
C1014 C 0.71736 0.84533 0.63554 0.0
C1015 C 0.71599 0.87009 0.66323 0.0
H1016 H 0.71853 0.82558 0.56187 0.0
C1017 C 0.71429 0.89432 0.63478 0.0
H1018 H 0.71849 0.82615 0.65579 0.0
C1019 C 0.71405 0.89388 0.58083 0.0
C1020 C 0.71546 0.86916 0.55312 0.0
H1021 H 0.71319 0.91378 0.65442 0.0
H1022 H 0.71275 0.91299 0.56059 0.0
C1023 C 0.71719 0.84492 0.58154 0.0
C1024 C 0.17658 0.82719 0.63045 0.0
C1025 C 0.20023 0.8498 0.65949 0.0
H1026 H 0.15838 0.81053 0.55574 0.0
C1027 C 0.22446 0.87349 0.63244 0.0
H1028 H 0.1575 0.80863 0.64963 0.0
C1029 C 0.22493 0.87462 0.57849 0.0
C1030 C 0.20127 0.85202 0.54944 0.0
H1031 H 0.24314 0.89128 0.65317 0.0
H1032 H 0.24386 0.89335 0.55935 0.0
C1033 C 0.17705 0.82832 0.57649 0.0
C1034 C 0.2263 0.3701 0.59625 0.0
C1035 C 0.21373 0.342 0.56891 0.0
H1036 H 0.23144 0.39305 0.66814 0.0
C1037 C 0.20062 0.31466 0.59832 0.0
H1038 H 0.23725 0.39192 0.5762 0.0
C1039 C 0.20253 0.31535 0.652 0.0
C1040 C 0.2137 0.34347 0.6793 0.0
H1041 H 0.18903 0.2924 0.58001 0.0
H1042 H 0.19454 0.29355 0.67212 0.0
C1043 C 0.22425 0.37079 0.64986 0.0
C1044 C 0.71458 0.85515 0.13395 0.0
C1045 C 0.71322 0.87941 0.1631 0.0
H1046 H 0.71673 0.83715 0.05917 0.0
C1047 C 0.71302 0.90482 0.1361 0.0
H1048 H 0.7149 0.83524 0.15302 0.0
C1049 C 0.71457 0.90614 0.0822 0.0
C1050 C 0.71582 0.88186 0.05302 0.0
H1051 H 0.71188 0.92392 0.15684 0.0
H1052 H 0.71482 0.92633 0.06322 0.0
C1053 C 0.71579 0.85632 0.07998 0.0
C1054 C 0.16444 0.81511 0.0791 0.0
C1055 C 0.18728 0.83863 0.04955 0.0
H1056 H 0.14762 0.79672 0.15408 0.0
C1057 C 0.21118 0.86252 0.07628 0.0
H1058 H 0.14553 0.79642 0.06033 0.0
C1059 C 0.21227 0.8628 0.13028 0.0
C1060 C 0.18945 0.83925 0.15982 0.0
H1061 H 0.22919 0.88108 0.05525 0.0
H1062 H 0.23101 0.88164 0.1491 0.0
C1063 C 0.16557 0.81535 0.13309 0.0
C1064 C 0.20992 0.31382 0.10116 0.0
C1065 C 0.2211 0.34004 0.06907 0.0
H1066 H 0.19945 0.29576 0.17732 0.0
C1067 C 0.23399 0.36918 0.0933 0.0
H1068 H 0.20121 0.29084 0.08506 0.0
C1069 C 0.23701 0.3719 0.14675 0.0
C1070 C 0.22416 0.34576 0.17889 0.0
H1071 H 0.24273 0.39017 0.07076 0.0
H1072 H 0.24963 0.39471 0.16273 0.0
C1073 C 0.20991 0.31666 0.15471 0.0
C1074 C 0.37069 0.11818 1.01014 0.0
C1075 C 0.3955 0.14202 0.03447 0.0
H1076 H 0.34975 0.09941 0.93922 0.0
C1077 C 0.4224 0.15969 1.00626 0.0
H1078 H 0.34978 0.10418 0.03137 0.0
C1079 C 0.42337 0.15557 0.95393 0.0
C1080 C 0.39656 0.13556 0.92801 0.0
H1081 H 0.44191 0.1784 0.02377 0.0
H1082 H 0.44437 0.17015 0.93354 0.0
C1083 C 0.37087 0.11541 0.95711 0.0
C1084 C 0.92669 0.23274 0.93913 0.0
C1085 C 0.89707 0.21855 0.91726 0.0
H1086 H 0.95348 0.23935 1.00721 0.0
C1087 C 0.87124 0.20147 0.94836 0.0
H1088 H 0.94693 0.24616 0.916 0.0
C1089 C 0.87507 0.19774 0.99994 0.0
C1090 C 0.90472 0.21096 0.02103 0.0
H1091 H 0.84823 0.18979 0.93246 0.0
H1092 H 0.85503 0.18383 0.02318 0.0
C1093 C 0.93049 0.22892 0.9909 0.0
C1094 C 0.81757 0.61268 0.98045 0.0
C1095 C 0.80282 0.63163 0.99347 0.0
H1096 H 0.8374 0.59663 0.91993 0.0
C1097 C 0.78925 0.64209 0.95527 0.0
H1098 H 0.82842 0.60462 1.00948 0.0
C1099 C 0.79406 0.6372 0.90418 0.0
C1100 C 0.81296 0.62233 0.8911 0.0
H1101 H 0.77795 0.65688 0.96474 0.0
H1102 H 0.78628 0.64836 0.87528 0.0
C1103 C 0.82287 0.60826 0.92935 0.0
C1104 C 0.35969 0.21844 0.40273 0.0
C1105 C 0.3559 0.19329 0.37154 0.0
H1106 H 0.36019 0.23438 0.47919 0.0
C1107 C 0.346 0.16375 0.3927 0.0
H1108 H 0.36776 0.24146 0.38675 0.0
C1109 C 0.34172 0.15963 0.44523 0.0
C1110 C 0.34774 0.18516 0.47717 0.0
H1111 H 0.34343 0.14425 0.3689 0.0
H1112 H 0.33603 0.13694 0.46107 0.0
C1113 C 0.3556 0.2144 0.45534 0.0
C1114 C 0.87552 0.14662 0.39178 0.0
C1115 C 0.84739 0.13389 0.36569 0.0
H1116 H 0.89743 0.16248 0.46351 0.0
C1117 C 0.81919 0.12183 0.39275 0.0
H1118 H 0.8974 0.15613 0.37109 0.0
C1119 C 0.81917 0.12556 0.44553 0.0
C1120 C 0.84734 0.14146 0.47085 0.0
H1121 H 0.79735 0.1122 0.37266 0.0
H1122 H 0.79727 0.1185 0.46575 0.0
C1123 C 0.8755 0.15046 0.44423 0.0
C1124 C 0.96152 0.74921 0.4647 0.0
C1125 C 0.93846 0.75376 0.4927 0.0
H1126 H 0.97649 0.74225 0.39043 0.0
C1127 C 0.91971 0.76527 0.46739 0.0
H1128 H 0.9769 0.7412 0.48342 0.0
C1129 C 0.92022 0.76676 0.41429 0.0
C1130 C 0.93931 0.75661 0.38627 0.0
H1131 H 0.9018 0.76916 0.48769 0.0
H1132 H 0.90263 0.7715 0.39525 0.0
C1133 C 0.96167 0.75025 0.41154 0.0
C1134 C 0.10443 0.41929 0.99559 0.0
C1135 C 0.11218 0.45033 0.98312 0.0
H1136 H 0.11517 0.38037 0.98697 0.0
C1137 C 0.13852 0.46609 0.95185 0.0
H1138 H 0.08486 0.40647 0.02039 0.0
C1139 C 0.15623 0.45112 0.93313 0.0
C1140 C 0.1479 0.41989 0.94467 0.0
H1141 H 0.1451 0.48985 0.94066 0.0
H1142 H 0.1759 0.46373 0.90836 0.0
C1143 C 0.12195 0.4043 0.97654 0.0
C1144 C 0.66559 0.71432 0.89914 0.0
C1145 C 0.65633 0.73643 0.91945 0.0
H1146 H 0.65991 0.66733 0.89964 0.0
C1147 C 0.63382 0.72686 0.95875 0.0
H1148 H 0.68252 0.72049 0.86847 0.0
C1149 C 0.62089 0.69628 0.97687 0.0
C1150 C 0.62992 0.67406 0.9563 0.0
H1151 H 0.62645 0.74318 0.97628 0.0
H1152 H 0.604 0.69019 1.00762 0.0
C1153 C 0.65259 0.68367 0.91721 0.0
C1154 C 0.35448 0.94394 0.88363 0.0
C1155 C 0.33428 0.91618 0.90742 0.0
H1156 H 0.40051 0.98016 0.87794 0.0
C1157 C 0.34609 0.90463 0.94698 0.0
H1158 H 0.34631 0.95342 0.85274 0.0
C1159 C 0.37709 0.92031 0.96238 0.0
C1160 C 0.39767 0.94791 0.93818 0.0
H1161 H 0.33114 0.88361 0.96681 0.0
H1162 H 0.38467 0.91083 0.99396 0.0
C1163 C 0.3857 0.95941 0.89844 0.0
C1164 C 0.45798 0.07302 0.64164 0.0
C1165 C 0.47034 0.079 0.59193 0.0
H1166 H 0.43059 0.08267 0.69864 0.0
C1167 C 0.46404 0.09949 0.56089 0.0
H1168 H 0.46268 0.0574 0.66626 0.0
C1169 C 0.4458 0.11389 0.57933 0.0
C1170 C 0.4336 0.10806 0.62914 0.0
H1171 H 0.47339 0.10444 0.52247 0.0
H1172 H 0.44137 0.12975 0.55489 0.0
C1173 C 0.43971 0.0874 0.66007 0.0
C1174 C 0.91824 0.3137 0.596 0.0
C1175 C 0.92645 0.30331 0.64118 0.0
H1176 H 0.92725 0.35156 0.54472 0.0
C1177 C 0.95189 0.32441 0.66871 0.0
H1178 H 0.89926 0.29787 0.5732 0.0
C1179 C 0.96836 0.35518 0.65194 0.0
C1180 C 0.95971 0.36582 0.60731 0.0
H1181 H 0.95899 0.31707 0.70336 0.0
H1182 H 0.98759 0.37081 0.6745 0.0
C1183 C 0.93437 0.34452 0.57963 0.0
C1184 C 0.75536 0.60776 0.62345 0.0
C1185 C 0.77579 0.63597 0.60122 0.0
H1186 H 0.7094 0.57106 0.62622 0.0
C1187 C 0.76415 0.64881 0.56325 0.0
H1188 H 0.76338 0.5975 0.65343 0.0
C1189 C 0.73292 0.63383 0.54798 0.0
C1190 C 0.71251 0.60536 0.56985 0.0
H1191 H 0.77923 0.67058 0.54557 0.0
H1192 H 0.72485 0.64437 0.51853 0.0
C1193 C 0.72434 0.5926 0.60778 0.0
C1194 C 0.91691 0.6162 0.0852 0.0
C1195 C 0.92757 0.63597 0.1274 0.0
H1196 H 0.92304 0.58255 0.03754 0.0
C1197 C 0.95407 0.638 0.15287 0.0
H1198 H 0.89641 0.61429 0.06513 0.0
C1199 C 0.96928 0.62002 0.13725 0.0
C1200 C 0.95833 0.59948 0.09579 0.0
H1201 H 0.96269 0.65318 0.18541 0.0
H1202 H 0.98959 0.62204 0.15801 0.0
C1203 C 0.93223 0.59819 0.06935 0.0
C1204 C 0.45416 0.35158 0.134 0.0
C1205 C 0.46371 0.32853 0.11964 0.0
H1206 H 0.46162 0.39893 0.12807 0.0
C1207 C 0.48945 0.33708 0.08632 0.0
H1208 H 0.43432 0.34606 0.15903 0.0
C1209 C 0.50504 0.36756 0.06799 0.0
C1210 C 0.49534 0.39054 0.08212 0.0
H1211 H 0.49785 0.32026 0.07465 0.0
H1212 H 0.52448 0.37296 0.04209 0.0
C1213 C 0.46966 0.38199 0.11556 0.0
C1214 C 0.7307 0.12602 0.07607 0.0
C1215 C 0.74244 0.11266 0.113 0.0
H1216 H 0.69172 0.12238 0.03206 0.0
C1217 C 0.7218 0.0848 0.13587 0.0
H1218 H 0.74597 0.14734 0.05735 0.0
C1219 C 0.69033 0.07075 0.12243 0.0
C1220 C 0.67844 0.08373 0.0848 0.0
H1221 H 0.72989 0.07408 0.16504 0.0
H1222 H 0.67534 0.04983 0.14232 0.0
C1223 C 0.69933 0.11167 0.06184 0.0
C1224 C 0.62269 0.99235 0.40192 0.0
C1225 C 0.60395 0.98269 0.44599 0.0
H1226 H 0.65499 0.98496 0.35207 0.0
C1227 C 0.60362 0.95754 0.47391 0.0
H1228 H 0.62309 0.01148 0.37944 0.0
C1229 C 0.62121 0.94201 0.4577 0.0
C1230 C 0.64002 0.95166 0.41374 0.0
H1231 H 0.58942 0.9497 0.50804 0.0
H1232 H 0.6202 0.92244 0.47965 0.0
C1233 C 0.64089 0.97723 0.3863 0.0
C1234 C 0.08084 0.65909 0.44036 0.0
C1235 C 0.09735 0.64783 0.47239 0.0
H1236 H 0.08169 0.69629 0.39374 0.0
C1237 C 0.12869 0.66752 0.48204 0.0
H1238 H 0.05688 0.64468 0.43104 0.0
C1239 C 0.14303 0.69718 0.46022 0.0
C1240 C 0.12657 0.70837 0.42804 0.0
H1241 H 0.14223 0.66023 0.50713 0.0
H1242 H 0.16703 0.71159 0.46936 0.0
C1243 C 0.09517 0.68884 0.41869 0.0
C1244 C 0.3717 0.45353 0.46115 0.0
C1245 C 0.36354 0.42853 0.42695 0.0
H1246 H 0.4076 0.48854 0.50465 0.0
C1247 C 0.38744 0.42106 0.40884 0.0
H1248 H 0.35409 0.45991 0.47653 0.0
C1249 C 0.4182 0.4375 0.42502 0.0
C1250 C 0.42634 0.46209 0.46001 0.0
H1251 H 0.38248 0.40251 0.38167 0.0
H1252 H 0.43571 0.43102 0.4095 0.0
C1253 C 0.40257 0.47002 0.47741 0.0
C1254 C 0.82764 0.77868 0.29257 0.0
C1255 C 0.81186 0.75465 0.25815 0.0
H1256 H 0.82616 0.8151 0.33879 0.0
C1257 C 0.78178 0.74914 0.24335 0.0
H1258 H 0.85096 0.78336 0.30428 0.0
C1259 C 0.76762 0.76731 0.26269 0.0
C1260 C 0.78326 0.79148 0.29729 0.0
H1261 H 0.76937 0.73096 0.21634 0.0
H1262 H 0.74457 0.76275 0.24971 0.0
C1263 C 0.8135 0.79693 0.31196 0.0
C1264 C 0.31962 0.03068 0.25796 0.0
C1265 C 0.30858 0.05326 0.26726 0.0
H1266 H 0.31159 0.98324 0.26364 0.0
C1267 C 0.27963 0.04383 0.29209 0.0
H1268 H 0.34151 0.0368 0.23821 0.0
C1269 C 0.26247 0.01292 0.30758 0.0
C1270 C 0.27349 0.99023 0.29829 0.0
H1271 H 0.27045 0.06052 0.30053 0.0
H1272 H 0.24074 0.00702 0.32764 0.0
C1273 C 0.30235 0.99976 0.2729 0.0
C1274 C 0.06567 0.28339 0.28897 0.0
C1275 C 0.08048 0.26744 0.31426 0.0
H1276 H 0.02453 0.28136 0.2535 0.0
C1277 C 0.06334 0.23535 0.32186 0.0
H1278 H 0.07802 0.30784 0.28079 0.0
C1279 C 0.0324 0.21997 0.30541 0.0
C1280 C 0.01754 0.2362 0.28116 0.0
H1281 H 0.07356 0.22213 0.34147 0.0
H1282 H 0.0199 0.19541 0.31266 0.0
C1283 C 0.03478 0.26812 0.27303 0.0
C1284 C 0.3075 0.23923 0.74232 0.0
C1285 C 0.30972 0.21615 0.77277 0.0
H1286 H 0.29196 0.27511 0.73683 0.0
C1287 C 0.29582 0.2105 0.82149 0.0
H1288 H 0.31795 0.244 0.70461 0.0
C1289 C 0.28037 0.2279 0.83961 0.0
C1290 C 0.27917 0.25175 0.80977 0.0
H1291 H 0.29743 0.19302 0.84589 0.0
H1292 H 0.27028 0.22344 0.87757 0.0
C1293 C 0.2927 0.25703 0.7608 0.0
C1294 C 0.7893 0.06252 0.7416 0.0
C1295 C 0.8141 0.08453 0.76923 0.0
H1296 H 0.75524 0.01548 0.73573 0.0
C1297 C 0.82361 0.0747 0.81365 0.0
H1298 H 0.78182 0.06915 0.70663 0.0
C1299 C 0.80865 0.04372 0.83006 0.0
C1300 C 0.78353 0.02172 0.80275 0.0
H1301 H 0.84279 0.09102 0.83554 0.0
H1302 H 0.81659 0.03705 0.8645 0.0
C1303 C 0.77406 0.0317 0.75834 0.0
C1304 C 0.03023 0.73952 0.81213 0.0
C1305 C 0.04997 0.76878 0.79217 0.0
H1306 H 0.98511 0.70111 0.81114 0.0
C1307 C 0.0382 0.7811 0.75341 0.0
H1308 H 0.03808 0.72939 0.8425 0.0
C1309 C 0.00789 0.76459 0.73495 0.0
C1310 C 0.98837 0.7353 0.7547 0.0
H1311 H 0.05261 0.80339 0.73671 0.0
H1312 H 0.99963 0.77472 0.70512 0.0
C1313 C 0.99982 0.7232 0.79404 0.0
loop_
_geom_bond_atom_site_label_1
_geom_bond_atom_site_label_2
_geom_bond_distance
_geom_bond_site_symmetry_2
_ccdc_geom_bond_type
C0 C1 1.443 . S
C0 N4 1.376 . S
C0 C38 1.377 1_655 S
C1 C0 1.443 . S
C1 C2 1.340 . S
C1 H41 0.951 . S
C2 C1 1.340 . S
C2 C3 1.439 . S
C2 H42 0.950 . S
C3 C2 1.439 . S
C3 N4 1.374 . S
C3 C37 1.395 . S
N4 C0 1.376 . S
N4 C3 1.374 . S
N4 Co5 2.001 1_655 S
Co5 N4 2.001 1_455 S
Co5 N6 1.986 1_454 S
Co5 N11 2.015 1_554 S
Co5 N16 2.003 . S
Co5 N21 2.296 1_554 S
Co5 N27 2.269 1_455 S
N6 Co5 1.986 1_656 S
N6 C7 1.376 . S
N6 C10 1.383 . S
C7 N6 1.376 . S
C7 C8 1.446 . S
C7 C37 1.391 1_556 S
C8 C7 1.446 . S
C8 C9 1.339 . S
C8 H43 0.949 . S
C9 C8 1.339 . S
C9 C10 1.439 . S
C9 H44 0.950 . S
C10 N6 1.383 . S
C10 C9 1.439 . S
C10 C39 1.385 1_655 S
N11 Co5 2.015 1_556 S
N11 C12 1.376 . S
N11 C15 1.374 . S
C12 N11 1.376 . S
C12 C13 1.443 . S
C12 C39 1.396 . S
C13 C12 1.443 . S
C13 C14 1.340 . S
C13 H45 0.951 . S
C14 C13 1.340 . S
C14 C15 1.439 . S
C14 H46 0.950 . S
C15 N11 1.374 . S
C15 C14 1.439 . S
C15 C40 1.395 1_556 S
N16 Co5 2.003 . S
N16 C17 1.376 . S
N16 C20 1.383 . S
C17 N16 1.376 . S
C17 C18 1.446 . S
C17 C40 1.391 . S
C18 C17 1.446 . S
C18 C19 1.339 . S
C18 H47 0.949 . S
C19 C18 1.339 . S
C19 C20 1.439 . S
C19 H48 0.950 . S
C20 N16 1.383 . S
C20 C19 1.439 . S
C20 C38 1.404 . S
N21 Co5 2.296 1_556 S
N21 C24 1.332 . S
N21 C26 1.332 . S
C22 C23 1.386 . S
C22 C25 1.388 . S
C23 C22 1.386 . S
C23 C24 1.382 . S
C23 H49 0.950 . S
C24 N21 1.332 . S
C24 C23 1.382 . S
C24 H35 0.952 1_556 S
C25 C22 1.388 . S
C25 C26 1.382 . S
C25 H50 0.950 . S
C26 N21 1.332 . S
C26 C25 1.382 . S
C26 H36 0.948 1_455 S
N27 Co5 2.269 1_655 S
N27 C31 1.332 . S
N27 C32 1.332 . S
C28 C29 1.388 . S
C28 C32 1.382 . S
C28 H51 0.950 . S
C29 C28 1.388 . S
C29 C30 1.386 . S
C30 C29 1.386 . S
C30 C31 1.382 . S
C30 H52 0.950 . S
C31 N27 1.332 . S
C31 C30 1.382 . S
C31 H33 0.952 . S
C32 N27 1.332 . S
C32 C28 1.382 . S
C32 H34 0.948 1_655 S
H33 C31 0.952 . S
H34 C32 0.948 1_455 S
H35 C24 0.952 1_554 S
H36 C26 0.948 1_655 S
C37 C3 1.395 . S
C37 C7 1.391 1_554 S
C38 C0 1.377 1_455 S
C38 C20 1.404 . S
C39 C10 1.385 1_455 S
C39 C12 1.396 . S
C40 C15 1.395 1_554 S
C40 C17 1.391 . S
H41 C1 0.951 . S
H42 C2 0.950 . S
H43 C8 0.949 . S
H44 C9 0.950 . S
H45 C13 0.951 . S
H46 C14 0.950 . S
H47 C18 0.949 . S
H48 C19 0.950 . S
H49 C23 0.950 . S
H50 C25 0.950 . S
H51 C28 0.950 . S
H52 C30 0.950 . S
C53 C54 1.443 . S
C53 N57 1.376 . S
C53 C91 1.389 . S
C54 C53 1.443 . S
C54 C55 1.340 . S
C54 H94 0.951 . S
C55 C54 1.340 . S
C55 C56 1.439 . S
C55 H95 0.950 . S
C56 C55 1.439 . S
C56 N57 1.374 . S
C56 C90 1.395 1_556 S
N57 C53 1.376 . S
N57 C56 1.374 . S
N57 Co58 2.008 1_556 S
Co58 N57 2.008 1_554 S
Co58 N59 1.995 . S
Co58 N64 2.008 . S
Co58 N69 1.995 1_554 S
Co58 N74 2.282 . S
Co58 N80 2.282 1_554 S
N59 Co58 1.995 . S
N59 C60 1.376 . S
N59 C63 1.383 . S
C60 N59 1.376 . S
C60 C61 1.446 . S
C60 C90 1.391 . S
C61 C60 1.446 . S
C61 C62 1.339 . S
C61 H96 0.949 . S
C62 C61 1.339 . S
C62 C63 1.439 . S
C62 H97 0.950 . S
C63 N59 1.383 . S
C63 C62 1.439 . S
C63 C92 1.392 . S
N64 Co58 2.008 . S
N64 C65 1.376 . S
N64 C68 1.374 . S
C65 N64 1.376 . S
C65 C66 1.443 . S
C65 C92 1.389 . S
C66 C65 1.443 . S
C66 C67 1.340 . S
C66 H98 0.951 . S
C67 C66 1.340 . S
C67 C68 1.439 . S
C67 H99 0.950 . S
C68 N64 1.374 . S
C68 C67 1.439 . S
C68 C93 1.395 . S
N69 Co58 1.995 1_556 S
N69 C70 1.376 . S
N69 C73 1.383 . S
C70 N69 1.376 . S
C70 C71 1.446 . S
C70 C93 1.391 1_556 S
C71 C70 1.446 . S
C71 C72 1.339 . S
C71 H100 0.949 . S
C72 C71 1.339 . S
C72 C73 1.439 . S
C72 H101 0.950 . S
C73 N69 1.383 . S
C73 C72 1.439 . S
C73 C91 1.392 . S
N74 Co58 2.282 . S
N74 C77 1.332 . S
N74 C79 1.332 . S
C75 C76 1.386 . S
C75 C78 1.388 . S
C76 C75 1.386 . S
C76 C77 1.382 . S
C76 H102 0.950 . S
C77 N74 1.332 . S
C77 C76 1.382 . S
C77 H88 0.952 . S
C78 C75 1.388 . S
C78 C79 1.382 . S
C78 H103 0.950 . S
C79 N74 1.332 . S
C79 C78 1.382 . S
C79 H89 0.948 . S
N80 Co58 2.282 1_556 S
N80 C84 1.332 . S
N80 C85 1.332 . S
C81 C82 1.388 . S
C81 C85 1.382 . S
C81 H104 0.950 . S
C82 C81 1.388 . S
C82 C83 1.386 . S
C83 C82 1.386 . S
C83 C84 1.382 . S
C83 H105 0.950 . S
C84 N80 1.332 . S
C84 C83 1.382 . S
C84 H86 0.952 1_556 S
C85 N80 1.332 . S
C85 C81 1.382 . S
C85 H87 0.948 . S
H86 C84 0.952 1_554 S
H87 C85 0.948 . S
H88 C77 0.952 . S
H89 C79 0.948 . S
C90 C56 1.395 1_554 S
C90 C60 1.391 . S
C91 C53 1.389 . S
C91 C73 1.392 . S
C92 C63 1.392 . S
C92 C65 1.389 . S
C93 C68 1.395 . S
C93 C70 1.391 1_554 S
H94 C54 0.951 . S
H95 C55 0.950 . S
H96 C61 0.949 . S
H97 C62 0.950 . S
H98 C66 0.951 . S
H99 C67 0.950 . S
H100 C71 0.949 . S
H101 C72 0.950 . S
H102 C76 0.950 . S
H103 C78 0.950 . S
H104 C81 0.950 . S
H105 C83 0.950 . S
C106 C107 1.443 . S
C106 N110 1.376 . S
C106 C144 1.389 . S
C107 C106 1.443 . S
C107 C108 1.340 . S
C107 H147 0.951 . S
C108 C107 1.340 . S
C108 C109 1.439 . S
C108 H148 0.950 . S
C109 C108 1.439 . S
C109 N110 1.374 . S
C109 C143 1.395 . S
N110 C106 1.376 . S
N110 C109 1.374 . S
N110 Co111 2.008 . S
Co111 N110 2.008 . S
Co111 N112 1.995 1_554 S
Co111 N117 2.008 1_544 S
Co111 N122 1.995 1_545 S
Co111 N127 2.282 1_544 S
Co111 N133 2.282 . S
N112 Co111 1.995 1_556 S
N112 C113 1.376 . S
N112 C116 1.383 . S
C113 N112 1.376 . S
C113 C114 1.446 . S
C113 C143 1.391 1_556 S
C114 C113 1.446 . S
C114 C115 1.339 . S
C114 H149 0.949 . S
C115 C114 1.339 . S
C115 C116 1.439 . S
C115 H150 0.950 . S
C116 N112 1.383 . S
C116 C115 1.439 . S
C116 C145 1.392 . S
N117 Co111 2.008 1_566 S
N117 C118 1.376 . S
N117 C121 1.374 . S
C118 N117 1.376 . S
C118 C119 1.443 . S
C118 C145 1.389 1_565 S
C119 C118 1.443 . S
C119 C120 1.340 . S
C119 H151 0.951 . S
C120 C119 1.340 . S
C120 C121 1.439 . S
C120 H152 0.950 . S
C121 N117 1.374 . S
C121 C120 1.439 . S
C121 C146 1.395 1_556 S
N122 Co111 1.995 1_565 S
N122 C123 1.376 . S
N122 C126 1.383 . S
C123 N122 1.376 . S
C123 C124 1.446 . S
C123 C146 1.391 . S
C124 C123 1.446 . S
C124 C125 1.339 . S
C124 H153 0.949 . S
C125 C124 1.339 . S
C125 C126 1.439 . S
C125 H154 0.950 . S
C126 N122 1.383 . S
C126 C125 1.439 . S
C126 C144 1.392 1_565 S
N127 Co111 2.282 1_566 S
N127 C130 1.332 . S
N127 C132 1.332 1_565 S
C128 C129 1.386 . S
C128 C131 1.388 . S
C129 C128 1.386 . S
C129 C130 1.382 . S
C129 H155 0.950 . S
C130 N127 1.332 . S
C130 C129 1.382 . S
C130 H141 0.952 1_556 S
C131 C128 1.388 . S
C131 C132 1.382 1_565 S
C131 H156 0.950 1_565 S
C132 N127 1.332 1_545 S
C132 C131 1.382 1_545 S
C132 H142 0.948 . S
N133 Co111 2.282 . S
N133 C137 1.332 . S
N133 C138 1.332 . S
C134 C135 1.388 . S
C134 C138 1.382 . S
C134 H157 0.950 . S
C135 C134 1.388 . S
C135 C136 1.386 . S
C136 C135 1.386 . S
C136 C137 1.382 . S
C136 H158 0.950 . S
C137 N133 1.332 . S
C137 C136 1.382 . S
C137 H139 0.952 . S
C138 N133 1.332 . S
C138 C134 1.382 . S
C138 H140 0.948 . S
H139 C137 0.952 . S
H140 C138 0.948 . S
H141 C130 0.952 1_554 S
H142 C132 0.948 . S
C143 C109 1.395 . S
C143 C113 1.391 1_554 S
C144 C106 1.389 . S
C144 C126 1.392 1_545 S
C145 C116 1.392 . S
C145 C118 1.389 1_545 S
C146 C121 1.395 1_554 S
C146 C123 1.391 . S
H147 C107 0.951 . S
H148 C108 0.950 . S
H149 C114 0.949 . S
H150 C115 0.950 . S
H151 C119 0.951 . S
H152 C120 0.950 . S
H153 C124 0.949 . S
H154 C125 0.950 . S
H155 C129 0.950 . S
H156 C131 0.950 1_545 S
H157 C134 0.950 . S
H158 C136 0.950 . S
C159 C160 1.443 . S
C159 N163 1.376 . S
C159 C197 1.389 1_545 S
C160 C159 1.443 . S
C160 C161 1.340 . S
C160 H200 0.951 . S
C161 C160 1.340 . S
C161 C162 1.439 . S
C161 H201 0.950 . S
C162 C161 1.439 . S
C162 N163 1.374 . S
C162 C196 1.395 . S
N163 C159 1.376 . S
N163 C162 1.374 . S
N163 Co164 2.008 . S
Co164 N163 2.008 . S
Co164 N165 1.995 . S
Co164 N170 2.008 . S
Co164 N175 1.995 1_545 S
Co164 N180 2.282 . S
Co164 N186 2.282 . S
N165 Co164 1.995 . S
N165 C166 1.376 . S
N165 C169 1.383 . S
C166 N165 1.376 . S
C166 C167 1.446 . S
C166 C196 1.391 . S
C167 C166 1.446 . S
C167 C168 1.339 . S
C167 H202 0.949 . S
C168 C167 1.339 . S
C168 C169 1.439 . S
C168 H203 0.950 . S
C169 N165 1.383 . S
C169 C168 1.439 . S
C169 C198 1.392 . S
N170 Co164 2.008 . S
N170 C171 1.376 . S
N170 C174 1.374 1_545 S
C171 N170 1.376 . S
C171 C172 1.443 . S
C171 C198 1.389 . S
C172 C171 1.443 . S
C172 C173 1.340 1_545 S
C172 H204 0.951 . S
C173 C172 1.340 1_565 S
C173 C174 1.439 . S
C173 H205 0.950 . S
C174 N170 1.374 1_565 S
C174 C173 1.439 . S
C174 C199 1.395 . S
N175 Co164 1.995 1_565 S
N175 C176 1.376 . S
N175 C179 1.383 . S
C176 N175 1.376 . S
C176 C177 1.446 . S
C176 C199 1.391 . S
C177 C176 1.446 . S
C177 C178 1.339 . S
C177 H206 0.949 . S
C178 C177 1.339 . S
C178 C179 1.439 . S
C178 H207 0.950 . S
C179 N175 1.383 . S
C179 C178 1.439 . S
C179 C197 1.392 . S
N180 Co164 2.282 . S
N180 C183 1.332 1_545 S
N180 C185 1.332 . S
C181 C182 1.386 1_545 S
C181 C184 1.388 . S
C182 C181 1.386 1_565 S
C182 C183 1.382 . S
C182 H208 0.950 . S
C183 N180 1.332 1_565 S
C183 C182 1.382 . S
C183 H194 0.952 . S
C184 C181 1.388 . S
C184 C185 1.382 . S
C184 H209 0.950 . S
C185 N180 1.332 . S
C185 C184 1.382 . S
C185 H195 0.948 . S
N186 Co164 2.282 . S
N186 C190 1.332 . S
N186 C191 1.332 1_545 S
C187 C188 1.388 1_565 S
C187 C191 1.382 . S
C187 H210 0.950 . S
C188 C187 1.388 1_545 S
C188 C189 1.386 . S
C189 C188 1.386 . S
C189 C190 1.382 . S
C189 H211 0.950 . S
C190 N186 1.332 . S
C190 C189 1.382 . S
C190 H192 0.952 . S
C191 N186 1.332 1_565 S
C191 C187 1.382 . S
C191 H193 0.948 . S
H192 C190 0.952 . S
H193 C191 0.948 . S
H194 C183 0.952 . S
H195 C185 0.948 . S
C196 C162 1.395 . S
C196 C166 1.391 . S
C197 C159 1.389 1_565 S
C197 C179 1.392 . S
C198 C169 1.392 . S
C198 C171 1.389 . S
C199 C174 1.395 . S
C199 C176 1.391 . S
H200 C160 0.951 . S
H201 C161 0.950 . S
H202 C167 0.949 . S
H203 C168 0.950 . S
H204 C172 0.951 . S
H205 C173 0.950 . S
H206 C177 0.949 . S
H207 C178 0.950 . S
H208 C182 0.950 . S
H209 C184 0.950 . S
H210 C187 0.950 . S
H211 C189 0.950 . S
C212 C213 1.443 . S
C212 N216 1.376 . S
C212 C250 1.389 1_455 S
C213 C212 1.443 . S
C213 C214 1.340 . S
C213 H253 0.951 . S
C214 C213 1.340 . S
C214 C215 1.439 . S
C214 H254 0.950 . S
C215 C214 1.439 . S
C215 N216 1.374 . S
C215 C249 1.395 . S
N216 C212 1.376 . S
N216 C215 1.374 . S
N216 Co217 2.008 . S
Co217 N216 2.008 . S
Co217 N218 1.995 . S
Co217 N223 2.008 1_455 S
Co217 N228 1.994 1_455 S
Co217 N233 2.282 1_455 S
Co217 N239 2.282 . S
N218 Co217 1.995 . S
N218 C219 1.376 . S
N218 C222 1.383 . S
C219 N218 1.376 . S
C219 C220 1.446 . S
C219 C249 1.391 . S
C220 C219 1.446 . S
C220 C221 1.339 . S
C220 H255 0.949 . S
C221 C220 1.339 . S
C221 C222 1.439 . S
C221 H256 0.950 . S
C222 N218 1.383 . S
C222 C221 1.439 . S
C222 C251 1.401 . S
N223 Co217 2.008 1_655 S
N223 C224 1.376 . S
N223 C227 1.374 . S
C224 N223 1.376 . S
C224 C225 1.443 . S
C224 C251 1.379 1_655 S
C225 C224 1.443 . S
C225 C226 1.340 . S
C225 H257 0.951 . S
C226 C225 1.340 . S
C226 C227 1.439 . S
C226 H258 0.950 . S
C227 N223 1.374 . S
C227 C226 1.439 . S
C227 C252 1.395 . S
N228 Co217 1.994 1_655 S
N228 C229 1.376 . S
N228 C232 1.383 . S
C229 N228 1.376 . S
C229 C230 1.446 . S
C229 C252 1.391 . S
C230 C229 1.446 . S
C230 C231 1.339 . S
C230 H259 0.949 . S
C231 C230 1.339 . S
C231 C232 1.439 . S
C231 H260 0.950 . S
C232 N228 1.383 . S
C232 C231 1.439 . S
C232 C250 1.392 . S
N233 Co217 2.282 1_655 S
N233 C236 1.332 . S
N233 C238 1.332 . S
C234 C235 1.386 . S
C234 C237 1.388 . S
C235 C234 1.386 . S
C235 C236 1.382 . S
C235 H261 0.950 . S
C236 N233 1.332 . S
C236 C235 1.382 . S
C236 H247 0.952 . S
C237 C234 1.388 . S
C237 C238 1.382 . S
C237 H262 0.950 . S
C238 N233 1.332 . S
C238 C237 1.382 . S
C238 H248 0.948 1_655 S
N239 Co217 2.282 . S
N239 C243 1.332 . S
N239 C244 1.332 . S
C240 C241 1.388 . S
C240 C244 1.382 . S
C240 H263 0.950 . S
C241 C240 1.388 . S
C241 C242 1.386 . S
C242 C241 1.386 . S
C242 C243 1.382 . S
C242 H264 0.950 . S
C243 N239 1.332 . S
C243 C242 1.382 . S
C243 H245 0.952 . S
C244 N239 1.332 . S
C244 C240 1.382 . S
C244 H246 0.948 1_455 S
H245 C243 0.952 . S
H246 C244 0.948 1_655 S
H247 C236 0.952 . S
H248 C238 0.948 1_455 S
C249 C215 1.395 . S
C249 C219 1.391 . S
C250 C212 1.389 1_655 S
C250 C232 1.392 . S
C251 C222 1.401 . S
C251 C224 1.379 1_455 S
C252 C227 1.395 . S
C252 C229 1.391 . S
H253 C213 0.951 . S
H254 C214 0.950 . S
H255 C220 0.949 . S
H256 C221 0.950 . S
H257 C225 0.951 . S
H258 C226 0.950 . S
H259 C230 0.949 . S
H260 C231 0.950 . S
H261 C235 0.950 . S
H262 C237 0.950 . S
H263 C240 0.950 . S
H264 C242 0.950 . S
C265 C266 1.443 . S
C265 N269 1.376 . S
C265 C303 1.389 . S
C266 C265 1.443 . S
C266 C267 1.340 . S
C266 H306 0.951 . S
C267 C266 1.340 . S
C267 C268 1.439 . S
C267 H307 0.950 . S
C268 C267 1.439 . S
C268 N269 1.374 . S
C268 C302 1.395 . S
N269 C265 1.376 . S
N269 C268 1.374 . S
N269 Co270 2.008 . S
Co270 N269 2.008 . S
Co270 N271 1.995 . S
Co270 N276 2.008 . S
Co270 N281 1.995 . S
Co270 N286 2.282 . S
Co270 N292 2.282 . S
N271 Co270 1.995 . S
N271 C272 1.376 . S
N271 C275 1.383 . S
C272 N271 1.376 . S
C272 C273 1.446 . S
C272 C302 1.391 . S
C273 C272 1.446 . S
C273 C274 1.339 . S
C273 H308 0.949 . S
C274 C273 1.339 . S
C274 C275 1.439 . S
C274 H309 0.950 . S
C275 N271 1.383 . S
C275 C274 1.439 . S
C275 C304 1.392 . S
N276 Co270 2.008 . S
N276 C277 1.376 . S
N276 C280 1.374 . S
C277 N276 1.376 . S
C277 C278 1.443 . S
C277 C304 1.389 . S
C278 C277 1.443 . S
C278 C279 1.340 . S
C278 H310 0.951 . S
C279 C278 1.340 . S
C279 C280 1.439 . S
C279 H311 0.950 . S
C280 N276 1.374 . S
C280 C279 1.439 . S
C280 C305 1.395 . S
N281 Co270 1.995 . S
N281 C282 1.376 . S
N281 C285 1.383 . S
C282 N281 1.376 . S
C282 C283 1.446 . S
C282 C305 1.391 . S
C283 C282 1.446 . S
C283 C284 1.339 . S
C283 H312 0.949 . S
C284 C283 1.339 . S
C284 C285 1.439 . S
C284 H313 0.950 . S
C285 N281 1.383 . S
C285 C284 1.439 . S
C285 C303 1.392 . S
N286 Co270 2.282 . S
N286 C289 1.332 . S
N286 C291 1.332 . S
C287 C288 1.386 . S
C287 C290 1.388 . S
C288 C287 1.386 . S
C288 C289 1.382 . S
C288 H314 0.950 . S
C289 N286 1.332 . S
C289 C288 1.382 . S
C289 H300 0.952 . S
C290 C287 1.388 . S
C290 C291 1.382 . S
C290 H315 0.950 . S
C291 N286 1.332 . S
C291 C290 1.382 . S
C291 H301 0.948 . S
N292 Co270 2.282 . S
N292 C296 1.332 . S
N292 C297 1.332 . S
C293 C294 1.388 . S
C293 C297 1.382 . S
C293 H316 0.950 . S
C294 C293 1.388 . S
C294 C295 1.386 . S
C295 C294 1.386 . S
C295 C296 1.382 . S
C295 H317 0.950 . S
C296 N292 1.332 . S
C296 C295 1.382 . S
C296 H298 0.952 . S
C297 N292 1.332 . S
C297 C293 1.382 . S
C297 H299 0.948 . S
H298 C296 0.952 . S
H299 C297 0.948 . S
H300 C289 0.952 . S
H301 C291 0.948 . S
C302 C268 1.395 . S
C302 C272 1.391 . S
C303 C265 1.389 . S
C303 C285 1.392 . S
C304 C275 1.392 . S
C304 C277 1.389 . S
C305 C280 1.395 . S
C305 C282 1.391 . S
H306 C266 0.951 . S
H307 C267 0.950 . S
H308 C273 0.949 . S
H309 C274 0.950 . S
H310 C278 0.951 . S
H311 C279 0.950 . S
H312 C283 0.949 . S
H313 C284 0.950 . S
H314 C288 0.950 . S
H315 C290 0.950 . S
H316 C293 0.950 . S
H317 C295 0.950 . S
C318 C319 1.443 . S
C318 N322 1.376 . S
C318 C356 1.389 . S
C319 C318 1.443 . S
C319 C320 1.340 . S
C319 H359 0.951 . S
C320 C319 1.340 . S
C320 C321 1.439 . S
C320 H360 0.950 . S
C321 C320 1.439 . S
C321 N322 1.374 . S
C321 C355 1.395 . S
N322 C318 1.376 . S
N322 C321 1.374 . S
N322 Co323 2.008 . S
Co323 N322 2.008 . S
Co323 N324 1.995 . S
Co323 N329 2.008 . S
Co323 N334 1.995 . S
Co323 N339 2.282 . S
Co323 N345 2.282 . S
N324 Co323 1.995 . S
N324 C325 1.376 . S
N324 C328 1.383 . S
C325 N324 1.376 . S
C325 C326 1.446 . S
C325 C355 1.391 . S
C326 C325 1.446 . S
C326 C327 1.339 . S
C326 H361 0.949 . S
C327 C326 1.339 . S
C327 C328 1.439 . S
C327 H362 0.950 . S
C328 N324 1.383 . S
C328 C327 1.439 . S
C328 C357 1.392 . S
N329 Co323 2.008 . S
N329 C330 1.376 . S
N329 C333 1.374 . S
C330 N329 1.376 . S
C330 C331 1.443 . S
C330 C357 1.389 . S
C331 C330 1.443 . S
C331 C332 1.340 . S
C331 H363 0.951 . S
C332 C331 1.340 . S
C332 C333 1.439 . S
C332 H364 0.950 . S
C333 N329 1.374 . S
C333 C332 1.439 . S
C333 C358 1.395 . S
N334 Co323 1.995 . S
N334 C335 1.376 . S
N334 C338 1.383 . S
C335 N334 1.376 . S
C335 C336 1.446 . S
C335 C358 1.391 . S
C336 C335 1.446 . S
C336 C337 1.339 . S
C336 H365 0.949 . S
C337 C336 1.339 . S
C337 C338 1.439 . S
C337 H366 0.950 . S
C338 N334 1.383 . S
C338 C337 1.439 . S
C338 C356 1.392 . S
N339 Co323 2.282 . S
N339 C342 1.332 . S
N339 C344 1.332 . S
C340 C341 1.386 . S
C340 C343 1.388 . S
C341 C340 1.386 . S
C341 C342 1.382 . S
C341 H367 0.950 . S
C342 N339 1.332 . S
C342 C341 1.382 . S
C342 H353 0.952 . S
C343 C340 1.388 . S
C343 C344 1.382 . S
C343 H368 0.950 . S
C344 N339 1.332 . S
C344 C343 1.382 . S
C344 H354 0.948 . S
N345 Co323 2.282 . S
N345 C349 1.332 . S
N345 C350 1.332 . S
C346 C347 1.388 . S
C346 C350 1.382 . S
C346 H369 0.950 . S
C347 C346 1.388 . S
C347 C348 1.386 . S
C348 C347 1.386 . S
C348 C349 1.382 . S
C348 H370 0.950 . S
C349 N345 1.332 . S
C349 C348 1.382 . S
C349 H351 0.952 . S
C350 N345 1.332 . S
C350 C346 1.382 . S
C350 H352 0.948 . S
H351 C349 0.952 . S
H352 C350 0.948 . S
H353 C342 0.952 . S
H354 C344 0.948 . S
C355 C321 1.395 . S
C355 C325 1.391 . S
C356 C318 1.389 . S
C356 C338 1.392 . S
C357 C328 1.392 . S
C357 C330 1.389 . S
C358 C333 1.395 . S
C358 C335 1.391 . S
H359 C319 0.951 . S
H360 C320 0.950 . S
H361 C326 0.949 . S
H362 C327 0.950 . S
H363 C331 0.951 . S
H364 C332 0.950 . S
H365 C336 0.949 . S
H366 C337 0.950 . S
H367 C341 0.950 . S
H368 C343 0.950 . S
H369 C346 0.950 . S
H370 C348 0.950 . S
C371 C372 1.443 . S
C371 N375 1.376 . S
C371 C409 1.389 . S
C372 C371 1.443 . S
C372 C373 1.340 . S
C372 H412 0.951 . S
C373 C372 1.340 . S
C373 C374 1.439 . S
C373 H413 0.950 . S
C374 C373 1.439 . S
C374 N375 1.374 . S
C374 C408 1.395 . S
N375 C371 1.376 . S
N375 C374 1.374 . S
N375 Co376 2.008 . S
Co376 N375 2.008 . S
Co376 N377 1.995 . S
Co376 N382 2.008 . S
Co376 N387 1.995 . S
Co376 N392 2.282 . S
Co376 N398 2.282 . S
N377 Co376 1.995 . S
N377 C378 1.376 . S
N377 C381 1.383 . S
C378 N377 1.376 . S
C378 C379 1.446 . S
C378 C408 1.391 . S
C379 C378 1.446 . S
C379 C380 1.339 . S
C379 H414 0.949 . S
C380 C379 1.339 . S
C380 C381 1.439 . S
C380 H415 0.950 . S
C381 N377 1.383 . S
C381 C380 1.439 . S
C381 C410 1.392 . S
N382 Co376 2.008 . S
N382 C383 1.376 . S
N382 C386 1.374 . S
C383 N382 1.376 . S
C383 C384 1.443 . S
C383 C410 1.389 . S
C384 C383 1.443 . S
C384 C385 1.340 . S
C384 H416 0.951 . S
C385 C384 1.340 . S
C385 C386 1.439 . S
C385 H417 0.950 . S
C386 N382 1.374 . S
C386 C385 1.439 . S
C386 C411 1.395 . S
N387 Co376 1.995 . S
N387 C388 1.376 . S
N387 C391 1.383 . S
C388 N387 1.376 . S
C388 C389 1.446 . S
C388 C411 1.391 . S
C389 C388 1.446 . S
C389 C390 1.339 . S
C389 H418 0.949 . S
C390 C389 1.339 . S
C390 C391 1.439 . S
C390 H419 0.950 . S
C391 N387 1.383 . S
C391 C390 1.439 . S
C391 C409 1.392 . S
N392 Co376 2.282 . S
N392 C395 1.332 . S
N392 C397 1.332 . S
C393 C394 1.386 . S
C393 C396 1.388 . S
C394 C393 1.386 . S
C394 C395 1.382 . S
C394 H420 0.950 . S
C395 N392 1.332 . S
C395 C394 1.382 . S
C395 H406 0.952 . S
C396 C393 1.388 . S
C396 C397 1.382 . S
C396 H421 0.950 . S
C397 N392 1.332 . S
C397 C396 1.382 . S
C397 H407 0.948 . S
N398 Co376 2.282 . S
N398 C402 1.332 . S
N398 C403 1.332 . S
C399 C400 1.388 . S
C399 C403 1.382 . S
C399 H422 0.950 . S
C400 C399 1.388 . S
C400 C401 1.386 . S
C401 C400 1.386 . S
C401 C402 1.382 . S
C401 H423 0.950 . S
C402 N398 1.332 . S
C402 C401 1.382 . S
C402 H404 0.952 . S
C403 N398 1.332 . S
C403 C399 1.382 . S
C403 H405 0.948 . S
H404 C402 0.952 . S
H405 C403 0.948 . S
H406 C395 0.952 . S
H407 C397 0.948 . S
C408 C374 1.395 . S
C408 C378 1.391 . S
C409 C371 1.389 . S
C409 C391 1.392 . S
C410 C381 1.392 . S
C410 C383 1.389 . S
C411 C386 1.395 . S
C411 C388 1.391 . S
H412 C372 0.951 . S
H413 C373 0.950 . S
H414 C379 0.949 . S
H415 C380 0.950 . S
H416 C384 0.951 . S
H417 C385 0.950 . S
H418 C389 0.949 . S
H419 C390 0.950 . S
H420 C394 0.950 . S
H421 C396 0.950 . S
H422 C399 0.950 . S
H423 C401 0.950 . S
C424 C425 1.443 . S
C424 N428 1.376 . S
C424 C462 1.389 . S
C425 C424 1.443 . S
C425 C426 1.340 . S
C425 H465 0.951 . S
C426 C425 1.340 . S
C426 C427 1.439 . S
C426 H466 0.950 . S
C427 C426 1.439 . S
C427 N428 1.374 . S
C427 C461 1.395 . S
N428 C424 1.376 . S
N428 C427 1.374 . S
N428 Co429 2.008 . S
Co429 N428 2.008 . S
Co429 N430 1.995 . S
Co429 N435 2.008 . S
Co429 N440 1.995 . S
Co429 N445 2.282 . S
Co429 N451 2.282 . S
N430 Co429 1.995 . S
N430 C431 1.376 . S
N430 C434 1.383 . S
C431 N430 1.376 . S
C431 C432 1.446 . S
C431 C461 1.391 . S
C432 C431 1.446 . S
C432 C433 1.339 . S
C432 H467 0.949 . S
C433 C432 1.339 . S
C433 C434 1.439 . S
C433 H468 0.950 . S
C434 N430 1.383 . S
C434 C433 1.439 . S
C434 C463 1.392 . S
N435 Co429 2.008 . S
N435 C436 1.376 . S
N435 C439 1.374 . S
C436 N435 1.376 . S
C436 C437 1.443 . S
C436 C463 1.389 . S
C437 C436 1.443 . S
C437 C438 1.340 . S
C437 H469 0.951 . S
C438 C437 1.340 . S
C438 C439 1.439 . S
C438 H470 0.950 . S
C439 N435 1.374 . S
C439 C438 1.439 . S
C439 C464 1.395 . S
N440 Co429 1.995 . S
N440 C441 1.376 . S
N440 C444 1.383 . S
C441 N440 1.376 . S
C441 C442 1.446 . S
C441 C464 1.391 . S
C442 C441 1.446 . S
C442 C443 1.339 . S
C442 H471 0.949 . S
C443 C442 1.339 . S
C443 C444 1.439 . S
C443 H472 0.950 . S
C444 N440 1.383 . S
C444 C443 1.439 . S
C444 C462 1.392 . S
N445 Co429 2.282 . S
N445 C448 1.332 . S
N445 C450 1.332 . S
C446 C447 1.386 . S
C446 C449 1.388 . S
C447 C446 1.386 . S
C447 C448 1.382 . S
C447 H473 0.950 . S
C448 N445 1.332 . S
C448 C447 1.382 . S
C448 H459 0.952 . S
C449 C446 1.388 . S
C449 C450 1.382 . S
C449 H474 0.950 . S
C450 N445 1.332 . S
C450 C449 1.382 . S
C450 H460 0.948 . S
N451 Co429 2.282 . S
N451 C455 1.332 . S
N451 C456 1.332 . S
C452 C453 1.388 . S
C452 C456 1.382 . S
C452 H475 0.950 . S
C453 C452 1.388 . S
C453 C454 1.386 . S
C454 C453 1.386 . S
C454 C455 1.382 . S
C454 H476 0.950 . S
C455 N451 1.332 . S
C455 C454 1.382 . S
C455 H457 0.952 . S
C456 N451 1.332 . S
C456 C452 1.382 . S
C456 H458 0.948 . S
H457 C455 0.952 . S
H458 C456 0.948 . S
H459 C448 0.952 . S
H460 C450 0.948 . S
C461 C427 1.395 . S
C461 C431 1.391 . S
C462 C424 1.389 . S
C462 C444 1.392 . S
C463 C434 1.392 . S
C463 C436 1.389 . S
C464 C439 1.395 . S
C464 C441 1.391 . S
H465 C425 0.951 . S
H466 C426 0.950 . S
H467 C432 0.949 . S
H468 C433 0.950 . S
H469 C437 0.951 . S
H470 C438 0.950 . S
H471 C442 0.949 . S
H472 C443 0.950 . S
H473 C447 0.950 . S
H474 C449 0.950 . S
H475 C452 0.950 . S
H476 C454 0.950 . S
C477 C478 1.443 . S
C477 N481 1.376 . S
C477 C515 1.389 . S
C478 C477 1.443 . S
C478 C479 1.340 . S
C478 H518 0.951 1_556 S
C479 C478 1.340 . S
C479 C480 1.439 . S
C479 H519 0.950 . S
C480 C479 1.439 . S
C480 N481 1.374 . S
C480 C514 1.395 . S
N481 C477 1.376 . S
N481 C480 1.374 . S
N481 Co482 2.008 . S
Co482 N481 2.008 . S
Co482 N483 1.995 . S
Co482 N488 2.008 . S
Co482 N493 1.995 . S
Co482 N498 2.282 . S
Co482 N504 2.282 . S
N483 Co482 1.995 . S
N483 C484 1.376 . S
N483 C487 1.383 . S
C484 N483 1.376 . S
C484 C485 1.446 . S
C484 C514 1.391 . S
C485 C484 1.446 . S
C485 C486 1.339 . S
C485 H520 0.949 . S
C486 C485 1.339 . S
C486 C487 1.439 . S
C486 H521 0.950 . S
C487 N483 1.383 . S
C487 C486 1.439 . S
C487 C516 1.392 . S
N488 Co482 2.008 . S
N488 C489 1.376 . S
N488 C492 1.374 . S
C489 N488 1.376 . S
C489 C490 1.443 . S
C489 C516 1.389 . S
C490 C489 1.443 . S
C490 C491 1.340 . S
C490 H522 0.951 . S
C491 C490 1.340 . S
C491 C492 1.439 . S
C491 H523 0.950 . S
C492 N488 1.374 . S
C492 C491 1.439 . S
C492 C517 1.395 . S
N493 Co482 1.995 . S
N493 C494 1.376 . S
N493 C497 1.383 . S
C494 N493 1.376 . S
C494 C495 1.446 . S
C494 C517 1.391 . S
C495 C494 1.446 . S
C495 C496 1.339 . S
C495 H524 0.949 . S
C496 C495 1.339 . S
C496 C497 1.439 . S
C496 H525 0.950 1_556 S
C497 N493 1.383 . S
C497 C496 1.439 . S
C497 C515 1.392 . S
N498 Co482 2.282 . S
N498 C501 1.332 . S
N498 C503 1.332 . S
C499 C500 1.386 . S
C499 C502 1.388 . S
C500 C499 1.386 . S
C500 C501 1.382 . S
C500 H526 0.950 . S
C501 N498 1.332 . S
C501 C500 1.382 . S
C501 H512 0.952 . S
C502 C499 1.388 . S
C502 C503 1.382 . S
C502 H527 0.950 . S
C503 N498 1.332 . S
C503 C502 1.382 . S
C503 H513 0.948 . S
N504 Co482 2.282 . S
N504 C508 1.332 . S
N504 C509 1.332 . S
C505 C506 1.388 . S
C505 C509 1.382 . S
C505 H528 0.950 . S
C506 C505 1.388 . S
C506 C507 1.386 . S
C507 C506 1.386 . S
C507 C508 1.382 . S
C507 H529 0.950 . S
C508 N504 1.332 . S
C508 C507 1.382 . S
C508 H510 0.952 . S
C509 N504 1.332 . S
C509 C505 1.382 . S
C509 H511 0.948 . S
H510 C508 0.952 . S
H511 C509 0.948 . S
H512 C501 0.952 . S
H513 C503 0.948 . S
C514 C480 1.395 . S
C514 C484 1.391 . S
C515 C477 1.389 . S
C515 C497 1.392 . S
C516 C487 1.392 . S
C516 C489 1.389 . S
C517 C492 1.395 . S
C517 C494 1.391 . S
H518 C478 0.951 1_554 S
H519 C479 0.950 . S
H520 C485 0.949 . S
H521 C486 0.950 . S
H522 C490 0.951 . S
H523 C491 0.950 . S
H524 C495 0.949 . S
H525 C496 0.950 1_554 S
H526 C500 0.950 . S
H527 C502 0.950 . S
H528 C505 0.950 . S
H529 C507 0.950 . S
C530 C531 1.443 . S
C530 N534 1.376 . S
C530 C568 1.389 . S
C531 C530 1.443 . S
C531 C532 1.340 . S
C531 H571 0.951 1_556 S
C532 C531 1.340 . S
C532 C533 1.439 . S
C532 H572 0.950 . S
C533 C532 1.439 . S
C533 N534 1.374 . S
C533 C567 1.395 . S
N534 C530 1.376 . S
N534 C533 1.374 . S
N534 Co535 2.008 . S
Co535 N534 2.008 . S
Co535 N536 1.995 . S
Co535 N541 2.008 . S
Co535 N546 1.995 . S
Co535 N551 2.282 . S
Co535 N557 2.282 . S
N536 Co535 1.995 . S
N536 C537 1.376 . S
N536 C540 1.383 . S
C537 N536 1.376 . S
C537 C538 1.446 . S
C537 C567 1.391 . S
C538 C537 1.446 . S
C538 C539 1.339 . S
C538 H573 0.949 . S
C539 C538 1.339 . S
C539 C540 1.439 . S
C539 H574 0.950 . S
C540 N536 1.383 . S
C540 C539 1.439 . S
C540 C569 1.392 . S
N541 Co535 2.008 . S
N541 C542 1.376 . S
N541 C545 1.374 . S
C542 N541 1.376 . S
C542 C543 1.443 . S
C542 C569 1.389 . S
C543 C542 1.443 . S
C543 C544 1.340 . S
C543 H575 0.951 . S
C544 C543 1.340 . S
C544 C545 1.439 . S
C544 H576 0.950 . S
C545 N541 1.374 . S
C545 C544 1.439 . S
C545 C570 1.395 . S
N546 Co535 1.995 . S
N546 C547 1.376 . S
N546 C550 1.383 . S
C547 N546 1.376 . S
C547 C548 1.446 . S
C547 C570 1.391 . S
C548 C547 1.446 . S
C548 C549 1.339 . S
C548 H577 0.949 . S
C549 C548 1.339 . S
C549 C550 1.439 . S
C549 H578 0.950 1_556 S
C550 N546 1.383 . S
C550 C549 1.439 . S
C550 C568 1.392 . S
N551 Co535 2.282 . S
N551 C554 1.332 . S
N551 C556 1.332 . S
C552 C553 1.386 . S
C552 C555 1.388 . S
C553 C552 1.386 . S
C553 C554 1.382 . S
C553 H579 0.950 . S
C554 N551 1.332 . S
C554 C553 1.382 . S
C554 H565 0.952 . S
C555 C552 1.388 . S
C555 C556 1.382 . S
C555 H580 0.950 . S
C556 N551 1.332 . S
C556 C555 1.382 . S
C556 H566 0.948 . S
N557 Co535 2.282 . S
N557 C561 1.332 . S
N557 C562 1.332 . S
C558 C559 1.388 . S
C558 C562 1.382 . S
C558 H581 0.950 . S
C559 C558 1.388 . S
C559 C560 1.386 . S
C560 C559 1.386 . S
C560 C561 1.382 . S
C560 H582 0.950 . S
C561 N557 1.332 . S
C561 C560 1.382 . S
C561 H563 0.952 . S
C562 N557 1.332 . S
C562 C558 1.382 . S
C562 H564 0.948 . S
H563 C561 0.952 . S
H564 C562 0.948 . S
H565 C554 0.952 . S
H566 C556 0.948 . S
C567 C533 1.395 . S
C567 C537 1.391 . S
C568 C530 1.389 . S
C568 C550 1.392 . S
C569 C540 1.392 . S
C569 C542 1.389 . S
C570 C545 1.395 . S
C570 C547 1.391 . S
H571 C531 0.951 1_554 S
H572 C532 0.950 . S
H573 C538 0.949 . S
H574 C539 0.950 . S
H575 C543 0.951 . S
H576 C544 0.950 . S
H577 C548 0.949 . S
H578 C549 0.950 1_554 S
H579 C553 0.950 . S
H580 C555 0.950 . S
H581 C558 0.950 . S
H582 C560 0.950 . S
C583 C584 1.443 . S
C583 N587 1.376 . S
C583 C621 1.389 . S
C584 C583 1.443 . S
C584 C585 1.340 . S
C584 H624 0.951 1_556 S
C585 C584 1.340 . S
C585 C586 1.439 . S
C585 H625 0.950 . S
C586 C585 1.439 . S
C586 N587 1.374 . S
C586 C620 1.395 . S
N587 C583 1.376 . S
N587 C586 1.374 . S
N587 Co588 2.008 . S
Co588 N587 2.008 . S
Co588 N589 1.995 . S
Co588 N594 2.008 . S
Co588 N599 1.995 . S
Co588 N604 2.282 . S
Co588 N610 2.282 . S
N589 Co588 1.995 . S
N589 C590 1.376 . S
N589 C593 1.383 . S
C590 N589 1.376 . S
C590 C591 1.446 . S
C590 C620 1.391 . S
C591 C590 1.446 . S
C591 C592 1.339 . S
C591 H626 0.949 . S
C592 C591 1.339 . S
C592 C593 1.439 . S
C592 H627 0.950 . S
C593 N589 1.383 . S
C593 C592 1.439 . S
C593 C622 1.392 . S
N594 Co588 2.008 . S
N594 C595 1.376 . S
N594 C598 1.374 . S
C595 N594 1.376 . S
C595 C596 1.443 . S
C595 C622 1.389 . S
C596 C595 1.443 . S
C596 C597 1.340 . S
C596 H628 0.951 . S
C597 C596 1.340 . S
C597 C598 1.439 . S
C597 H629 0.950 . S
C598 N594 1.374 . S
C598 C597 1.439 . S
C598 C623 1.395 . S
N599 Co588 1.995 . S
N599 C600 1.376 . S
N599 C603 1.383 . S
C600 N599 1.376 . S
C600 C601 1.446 . S
C600 C623 1.391 . S
C601 C600 1.446 . S
C601 C602 1.339 . S
C601 H630 0.949 . S
C602 C601 1.339 . S
C602 C603 1.439 . S
C602 H631 0.950 1_556 S
C603 N599 1.383 . S
C603 C602 1.439 . S
C603 C621 1.392 . S
N604 Co588 2.282 . S
N604 C607 1.332 . S
N604 C609 1.332 . S
C605 C606 1.386 . S
C605 C608 1.388 . S
C606 C605 1.386 . S
C606 C607 1.382 . S
C606 H632 0.950 . S
C607 N604 1.332 . S
C607 C606 1.382 . S
C607 H618 0.952 . S
C608 C605 1.388 . S
C608 C609 1.382 . S
C608 H633 0.950 . S
C609 N604 1.332 . S
C609 C608 1.382 . S
C609 H619 0.948 . S
N610 Co588 2.282 . S
N610 C614 1.332 . S
N610 C615 1.332 . S
C611 C612 1.388 . S
C611 C615 1.382 . S
C611 H634 0.950 . S
C612 C611 1.388 . S
C612 C613 1.386 . S
C613 C612 1.386 . S
C613 C614 1.382 . S
C613 H635 0.950 . S
C614 N610 1.332 . S
C614 C613 1.382 . S
C614 H616 0.952 . S
C615 N610 1.332 . S
C615 C611 1.382 . S
C615 H617 0.948 . S
H616 C614 0.952 . S
H617 C615 0.948 . S
H618 C607 0.952 . S
H619 C609 0.948 . S
C620 C586 1.395 . S
C620 C590 1.391 . S
C621 C583 1.389 . S
C621 C603 1.392 . S
C622 C593 1.392 . S
C622 C595 1.389 . S
C623 C598 1.395 . S
C623 C600 1.391 . S
H624 C584 0.951 1_554 S
H625 C585 0.950 . S
H626 C591 0.949 . S
H627 C592 0.950 . S
H628 C596 0.951 . S
H629 C597 0.950 . S
H630 C601 0.949 . S
H631 C602 0.950 1_554 S
H632 C606 0.950 . S
H633 C608 0.950 . S
H634 C611 0.950 . S
H635 C613 0.950 . S
C636 C637 1.443 . S
C636 N640 1.376 . S
C636 C674 1.389 . S
C637 C636 1.443 . S
C637 C638 1.340 . S
C637 H677 0.951 . S
C638 C637 1.340 . S
C638 C639 1.439 . S
C638 H678 0.950 . S
C639 C638 1.439 . S
C639 N640 1.374 . S
C639 C673 1.395 . S
N640 C636 1.376 . S
N640 C639 1.374 . S
N640 Co641 2.008 . S
Co641 N640 2.008 . S
Co641 N642 1.995 . S
Co641 N647 2.008 . S
Co641 N652 1.995 . S
Co641 N657 2.282 . S
Co641 N663 2.282 . S
N642 Co641 1.995 . S
N642 C643 1.376 . S
N642 C646 1.383 . S
C643 N642 1.376 . S
C643 C644 1.446 . S
C643 C673 1.391 . S
C644 C643 1.446 . S
C644 C645 1.339 . S
C644 H679 0.949 . S
C645 C644 1.339 . S
C645 C646 1.439 . S
C645 H680 0.950 . S
C646 N642 1.383 . S
C646 C645 1.439 . S
C646 C675 1.392 . S
N647 Co641 2.008 . S
N647 C648 1.376 . S
N647 C651 1.374 . S
C648 N647 1.376 . S
C648 C649 1.443 . S
C648 C675 1.389 . S
C649 C648 1.443 . S
C649 C650 1.340 . S
C649 H681 0.951 . S
C650 C649 1.340 . S
C650 C651 1.439 . S
C650 H682 0.950 . S
C651 N647 1.374 . S
C651 C650 1.439 . S
C651 C676 1.395 . S
N652 Co641 1.995 . S
N652 C653 1.376 . S
N652 C656 1.383 . S
C653 N652 1.376 . S
C653 C654 1.446 . S
C653 C676 1.391 . S
C654 C653 1.446 . S
C654 C655 1.339 . S
C654 H683 0.949 . S
C655 C654 1.339 . S
C655 C656 1.439 . S
C655 H684 0.950 . S
C656 N652 1.383 . S
C656 C655 1.439 . S
C656 C674 1.392 . S
N657 Co641 2.282 . S
N657 C660 1.332 . S
N657 C662 1.332 . S
C658 C659 1.386 . S
C658 C661 1.388 . S
C659 C658 1.386 . S
C659 C660 1.382 . S
C659 H685 0.950 . S
C660 N657 1.332 . S
C660 C659 1.382 . S
C660 H671 0.952 . S
C661 C658 1.388 . S
C661 C662 1.382 . S
C661 H686 0.950 . S
C662 N657 1.332 . S
C662 C661 1.382 . S
C662 H672 0.948 . S
N663 Co641 2.282 . S
N663 C667 1.332 . S
N663 C668 1.332 . S
C664 C665 1.388 . S
C664 C668 1.382 . S
C664 H687 0.950 . S
C665 C664 1.388 . S
C665 C666 1.386 . S
C666 C665 1.386 . S
C666 C667 1.382 . S
C666 H688 0.950 . S
C667 N663 1.332 . S
C667 C666 1.382 . S
C667 H669 0.952 . S
C668 N663 1.332 . S
C668 C664 1.382 . S
C668 H670 0.948 . S
H669 C667 0.952 . S
H670 C668 0.948 . S
H671 C660 0.952 . S
H672 C662 0.948 . S
C673 C639 1.395 . S
C673 C643 1.391 . S
C674 C636 1.389 . S
C674 C656 1.392 . S
C675 C646 1.392 . S
C675 C648 1.389 . S
C676 C651 1.395 . S
C676 C653 1.391 . S
H677 C637 0.951 . S
H678 C638 0.950 . S
H679 C644 0.949 . S
H680 C645 0.950 . S
H681 C649 0.951 . S
H682 C650 0.950 . S
H683 C654 0.949 . S
H684 C655 0.950 . S
H685 C659 0.950 . S
H686 C661 0.950 . S
H687 C664 0.950 . S
H688 C666 0.950 . S
C689 C690 1.443 . S
C689 N693 1.376 . S
C689 C727 1.389 . S
C690 C689 1.443 . S
C690 C691 1.340 . S
C690 H730 0.951 . S
C691 C690 1.340 . S
C691 C692 1.439 . S
C691 H731 0.950 . S
C692 C691 1.439 . S
C692 N693 1.374 . S
C692 C726 1.395 . S
N693 C689 1.376 . S
N693 C692 1.374 . S
N693 Co694 2.008 . S
Co694 N693 2.008 . S
Co694 N695 1.995 . S
Co694 N700 2.008 . S
Co694 N705 1.995 . S
Co694 N710 2.282 . S
Co694 N716 2.282 . S
N695 Co694 1.995 . S
N695 C696 1.376 . S
N695 C699 1.383 . S
C696 N695 1.376 . S
C696 C697 1.446 . S
C696 C726 1.391 . S
C697 C696 1.446 . S
C697 C698 1.339 . S
C697 H732 0.949 . S
C698 C697 1.339 . S
C698 C699 1.439 . S
C698 H733 0.950 . S
C699 N695 1.383 . S
C699 C698 1.439 . S
C699 C728 1.392 . S
N700 Co694 2.008 . S
N700 C701 1.376 . S
N700 C704 1.374 . S
C701 N700 1.376 . S
C701 C702 1.443 . S
C701 C728 1.389 . S
C702 C701 1.443 . S
C702 C703 1.340 . S
C702 H734 0.951 . S
C703 C702 1.340 . S
C703 C704 1.439 . S
C703 H735 0.950 . S
C704 N700 1.374 . S
C704 C703 1.439 . S
C704 C729 1.395 . S
N705 Co694 1.995 . S
N705 C706 1.376 . S
N705 C709 1.383 . S
C706 N705 1.376 . S
C706 C707 1.446 . S
C706 C729 1.391 . S
C707 C706 1.446 . S
C707 C708 1.339 . S
C707 H736 0.949 . S
C708 C707 1.339 . S
C708 C709 1.439 . S
C708 H737 0.950 . S
C709 N705 1.383 . S
C709 C708 1.439 . S
C709 C727 1.392 . S
N710 Co694 2.282 . S
N710 C713 1.332 . S
N710 C715 1.332 . S
C711 C712 1.386 . S
C711 C714 1.388 . S
C712 C711 1.386 . S
C712 C713 1.382 . S
C712 H738 0.950 . S
C713 N710 1.332 . S
C713 C712 1.382 . S
C713 H724 0.952 . S
C714 C711 1.388 . S
C714 C715 1.382 . S
C714 H739 0.950 . S
C715 N710 1.332 . S
C715 C714 1.382 . S
C715 H725 0.948 . S
N716 Co694 2.282 . S
N716 C720 1.332 . S
N716 C721 1.332 . S
C717 C718 1.388 . S
C717 C721 1.382 . S
C717 H740 0.950 . S
C718 C717 1.388 . S
C718 C719 1.386 . S
C719 C718 1.386 . S
C719 C720 1.382 . S
C719 H741 0.950 . S
C720 N716 1.332 . S
C720 C719 1.382 . S
C720 H722 0.952 . S
C721 N716 1.332 . S
C721 C717 1.382 . S
C721 H723 0.948 . S
H722 C720 0.952 . S
H723 C721 0.948 . S
H724 C713 0.952 . S
H725 C715 0.948 . S
C726 C692 1.395 . S
C726 C696 1.391 . S
C727 C689 1.389 . S
C727 C709 1.392 . S
C728 C699 1.392 . S
C728 C701 1.389 . S
C729 C704 1.395 . S
C729 C706 1.391 . S
H730 C690 0.951 . S
H731 C691 0.950 . S
H732 C697 0.949 . S
H733 C698 0.950 . S
H734 C702 0.951 . S
H735 C703 0.950 . S
H736 C707 0.949 . S
H737 C708 0.950 . S
H738 C712 0.950 . S
H739 C714 0.950 . S
H740 C717 0.950 . S
H741 C719 0.950 . S
C742 C743 1.443 . S
C742 N746 1.376 . S
C742 C780 1.389 . S
C743 C742 1.443 . S
C743 C744 1.340 . S
C743 H783 0.951 . S
C744 C743 1.340 . S
C744 C745 1.439 . S
C744 H784 0.950 . S
C745 C744 1.439 . S
C745 N746 1.374 . S
C745 C779 1.395 . S
N746 C742 1.376 . S
N746 C745 1.374 . S
N746 Co747 2.008 . S
Co747 N746 2.008 . S
Co747 N748 1.995 . S
Co747 N753 2.008 . S
Co747 N758 1.995 . S
Co747 N763 2.282 . S
Co747 N769 2.282 . S
N748 Co747 1.995 . S
N748 C749 1.376 . S
N748 C752 1.383 . S
C749 N748 1.376 . S
C749 C750 1.446 . S
C749 C779 1.391 . S
C750 C749 1.446 . S
C750 C751 1.339 . S
C750 H785 0.949 . S
C751 C750 1.339 . S
C751 C752 1.439 . S
C751 H786 0.950 . S
C752 N748 1.383 . S
C752 C751 1.439 . S
C752 C781 1.392 . S
N753 Co747 2.008 . S
N753 C754 1.376 . S
N753 C757 1.374 . S
C754 N753 1.376 . S
C754 C755 1.443 . S
C754 C781 1.389 . S
C755 C754 1.443 . S
C755 C756 1.340 . S
C755 H787 0.951 . S
C756 C755 1.340 . S
C756 C757 1.439 . S
C756 H788 0.950 . S
C757 N753 1.374 . S
C757 C756 1.439 . S
C757 C782 1.395 . S
N758 Co747 1.995 . S
N758 C759 1.376 . S
N758 C762 1.383 . S
C759 N758 1.376 . S
C759 C760 1.446 . S
C759 C782 1.391 . S
C760 C759 1.446 . S
C760 C761 1.339 . S
C760 H789 0.949 . S
C761 C760 1.339 . S
C761 C762 1.439 . S
C761 H790 0.950 . S
C762 N758 1.383 . S
C762 C761 1.439 . S
C762 C780 1.392 . S
N763 Co747 2.282 . S
N763 C766 1.332 . S
N763 C768 1.332 . S
C764 C765 1.386 . S
C764 C767 1.388 . S
C765 C764 1.386 . S
C765 C766 1.382 . S
C765 H791 0.950 . S
C766 N763 1.332 . S
C766 C765 1.382 . S
C766 H777 0.952 . S
C767 C764 1.388 . S
C767 C768 1.382 . S
C767 H792 0.950 . S
C768 N763 1.332 . S
C768 C767 1.382 . S
C768 H778 0.948 . S
N769 Co747 2.282 . S
N769 C773 1.332 . S
N769 C774 1.332 . S
C770 C771 1.388 . S
C770 C774 1.382 . S
C770 H793 0.950 . S
C771 C770 1.388 . S
C771 C772 1.386 . S
C772 C771 1.386 . S
C772 C773 1.382 . S
C772 H794 0.950 . S
C773 N769 1.332 . S
C773 C772 1.382 . S
C773 H775 0.952 . S
C774 N769 1.332 . S
C774 C770 1.382 . S
C774 H776 0.948 . S
H775 C773 0.952 . S
H776 C774 0.948 . S
H777 C766 0.952 . S
H778 C768 0.948 . S
C779 C745 1.395 . S
C779 C749 1.391 . S
C780 C742 1.389 . S
C780 C762 1.392 . S
C781 C752 1.392 . S
C781 C754 1.389 . S
C782 C757 1.395 . S
C782 C759 1.391 . S
H783 C743 0.951 . S
H784 C744 0.950 . S
H785 C750 0.949 . S
H786 C751 0.950 . S
H787 C755 0.951 . S
H788 C756 0.950 . S
H789 C760 0.949 . S
H790 C761 0.950 . S
H791 C765 0.950 . S
H792 C767 0.950 . S
H793 C770 0.950 . S
H794 C772 0.950 . S
C795 C796 1.443 . S
C795 N799 1.376 . S
C795 C833 1.389 . S
C796 C795 1.443 . S
C796 C797 1.340 . S
C796 H836 0.951 . S
C797 C796 1.340 . S
C797 C798 1.439 . S
C797 H837 0.950 . S
C798 C797 1.439 . S
C798 N799 1.374 . S
C798 C832 1.395 . S
N799 C795 1.376 . S
N799 C798 1.374 . S
N799 Co800 2.008 . S
Co800 N799 2.008 . S
Co800 N801 1.995 . S
Co800 N806 2.008 . S
Co800 N811 1.995 . S
Co800 N816 2.282 . S
Co800 N822 2.282 . S
N801 Co800 1.995 . S
N801 C802 1.376 . S
N801 C805 1.383 . S
C802 N801 1.376 . S
C802 C803 1.446 . S
C802 C832 1.391 . S
C803 C802 1.446 . S
C803 C804 1.339 . S
C803 H838 0.949 . S
C804 C803 1.339 . S
C804 C805 1.439 . S
C804 H839 0.950 . S
C805 N801 1.383 . S
C805 C804 1.439 . S
C805 C834 1.392 . S
N806 Co800 2.008 . S
N806 C807 1.376 . S
N806 C810 1.374 . S
C807 N806 1.376 . S
C807 C808 1.443 . S
C807 C834 1.389 . S
C808 C807 1.443 . S
C808 C809 1.340 . S
C808 H840 0.951 . S
C809 C808 1.340 . S
C809 C810 1.439 . S
C809 H841 0.950 . S
C810 N806 1.374 . S
C810 C809 1.439 . S
C810 C835 1.395 . S
N811 Co800 1.995 . S
N811 C812 1.376 . S
N811 C815 1.383 . S
C812 N811 1.376 . S
C812 C813 1.446 . S
C812 C835 1.391 . S
C813 C812 1.446 . S
C813 C814 1.339 . S
C813 H842 0.949 . S
C814 C813 1.339 . S
C814 C815 1.439 . S
C814 H843 0.950 . S
C815 N811 1.383 . S
C815 C814 1.439 . S
C815 C833 1.392 . S
N816 Co800 2.282 . S
N816 C819 1.332 . S
N816 C821 1.332 . S
C817 C818 1.386 . S
C817 C820 1.388 . S
C818 C817 1.386 . S
C818 C819 1.382 . S
C818 H844 0.950 . S
C819 N816 1.332 . S
C819 C818 1.382 . S
C819 H830 0.952 . S
C820 C817 1.388 . S
C820 C821 1.382 . S
C820 H845 0.950 . S
C821 N816 1.332 . S
C821 C820 1.382 . S
C821 H831 0.948 . S
N822 Co800 2.282 . S
N822 C826 1.332 . S
N822 C827 1.332 . S
C823 C824 1.388 1_554 S
C823 C827 1.382 . S
C823 H846 0.950 . S
C824 C823 1.388 1_556 S
C824 C825 1.386 1_556 S
C825 C824 1.386 1_554 S
C825 C826 1.382 . S
C825 H847 0.950 . S
C826 N822 1.332 . S
C826 C825 1.382 . S
C826 H828 0.952 . S
C827 N822 1.332 . S
C827 C823 1.382 . S
C827 H829 0.948 . S
H828 C826 0.952 . S
H829 C827 0.948 . S
H830 C819 0.952 . S
H831 C821 0.948 . S
C832 C798 1.395 . S
C832 C802 1.391 . S
C833 C795 1.389 . S
C833 C815 1.392 . S
C834 C805 1.392 . S
C834 C807 1.389 . S
C835 C810 1.395 . S
C835 C812 1.391 . S
H836 C796 0.951 . S
H837 C797 0.950 . S
H838 C803 0.949 . S
H839 C804 0.950 . S
H840 C808 0.951 . S
H841 C809 0.950 . S
H842 C813 0.949 . S
H843 C814 0.950 . S
H844 C818 0.950 . S
H845 C820 0.950 . S
H846 C823 0.950 . S
H847 C825 0.950 . S
C848 C849 1.443 . S
C848 N852 1.376 . S
C848 C886 1.389 . S
C849 C848 1.443 . S
C849 C850 1.340 . S
C849 H889 0.951 . S
C850 C849 1.340 . S
C850 C851 1.439 . S
C850 H890 0.950 . S
C851 C850 1.439 . S
C851 N852 1.374 . S
C851 C885 1.395 . S
N852 C848 1.376 . S
N852 C851 1.374 . S
N852 Co853 2.008 . S
Co853 N852 2.008 . S
Co853 N854 1.995 . S
Co853 N859 2.008 . S
Co853 N864 1.995 . S
Co853 N869 2.282 . S
Co853 N875 2.282 . S
N854 Co853 1.995 . S
N854 C855 1.376 . S
N854 C858 1.383 . S
C855 N854 1.376 . S
C855 C856 1.446 . S
C855 C885 1.391 . S
C856 C855 1.446 . S
C856 C857 1.339 . S
C856 H891 0.949 . S
C857 C856 1.339 . S
C857 C858 1.439 . S
C857 H892 0.950 . S
C858 N854 1.383 . S
C858 C857 1.439 . S
C858 C887 1.392 . S
N859 Co853 2.008 . S
N859 C860 1.376 . S
N859 C863 1.374 . S
C860 N859 1.376 . S
C860 C861 1.443 . S
C860 C887 1.389 . S
C861 C860 1.443 . S
C861 C862 1.340 . S
C861 H893 0.951 . S
C862 C861 1.340 . S
C862 C863 1.439 . S
C862 H894 0.950 . S
C863 N859 1.374 . S
C863 C862 1.439 . S
C863 C888 1.395 . S
N864 Co853 1.995 . S
N864 C865 1.376 . S
N864 C868 1.383 . S
C865 N864 1.376 . S
C865 C866 1.446 . S
C865 C888 1.391 . S
C866 C865 1.446 . S
C866 C867 1.339 . S
C866 H895 0.949 . S
C867 C866 1.339 . S
C867 C868 1.439 . S
C867 H896 0.950 . S
C868 N864 1.383 . S
C868 C867 1.439 . S
C868 C886 1.392 . S
N869 Co853 2.282 . S
N869 C872 1.332 . S
N869 C874 1.332 . S
C870 C871 1.386 . S
C870 C873 1.388 . S
C871 C870 1.386 . S
C871 C872 1.382 . S
C871 H897 0.950 . S
C872 N869 1.332 . S
C872 C871 1.382 . S
C872 H883 0.952 . S
C873 C870 1.388 . S
C873 C874 1.382 . S
C873 H898 0.950 . S
C874 N869 1.332 . S
C874 C873 1.382 . S
C874 H884 0.948 . S
N875 Co853 2.282 . S
N875 C879 1.332 . S
N875 C880 1.332 . S
C876 C877 1.388 . S
C876 C880 1.382 . S
C876 H899 0.950 . S
C877 C876 1.388 . S
C877 C878 1.386 . S
C878 C877 1.386 . S
C878 C879 1.382 . S
C878 H900 0.950 . S
C879 N875 1.332 . S
C879 C878 1.382 . S
C879 H881 0.952 . S
C880 N875 1.332 . S
C880 C876 1.382 . S
C880 H882 0.948 . S
H881 C879 0.952 . S
H882 C880 0.948 . S
H883 C872 0.952 . S
H884 C874 0.948 . S
C885 C851 1.395 . S
C885 C855 1.391 . S
C886 C848 1.389 . S
C886 C868 1.392 . S
C887 C858 1.392 . S
C887 C860 1.389 . S
C888 C863 1.395 . S
C888 C865 1.391 . S
H889 C849 0.951 . S
H890 C850 0.950 . S
H891 C856 0.949 . S
H892 C857 0.950 . S
H893 C861 0.951 . S
H894 C862 0.950 . S
H895 C866 0.949 . S
H896 C867 0.950 . S
H897 C871 0.950 . S
H898 C873 0.950 . S
H899 C876 0.950 . S
H900 C878 0.950 . S
C901 C902 1.443 . S
C901 N905 1.376 . S
C901 C939 1.389 . S
C902 C901 1.443 . S
C902 C903 1.340 . S
C902 H942 0.951 . S
C903 C902 1.340 . S
C903 C904 1.439 . S
C903 H943 0.950 . S
C904 C903 1.439 . S
C904 N905 1.374 . S
C904 C938 1.395 . S
N905 C901 1.376 . S
N905 C904 1.374 . S
N905 Co906 2.008 . S
Co906 N905 2.008 . S
Co906 N907 1.995 . S
Co906 N912 2.008 . S
Co906 N917 1.995 . S
Co906 N922 2.282 . S
Co906 N928 2.282 . S
N907 Co906 1.995 . S
N907 C908 1.376 . S
N907 C911 1.383 . S
C908 N907 1.376 . S
C908 C909 1.446 . S
C908 C938 1.391 . S
C909 C908 1.446 . S
C909 C910 1.339 . S
C909 H944 0.949 . S
C910 C909 1.339 . S
C910 C911 1.439 . S
C910 H945 0.950 . S
C911 N907 1.383 . S
C911 C910 1.439 . S
C911 C940 1.392 . S
N912 Co906 2.008 . S
N912 C913 1.376 . S
N912 C916 1.374 . S
C913 N912 1.376 . S
C913 C914 1.443 . S
C913 C940 1.389 . S
C914 C913 1.443 . S
C914 C915 1.340 . S
C914 H946 0.951 . S
C915 C914 1.340 . S
C915 C916 1.439 . S
C915 H947 0.950 . S
C916 N912 1.374 . S
C916 C915 1.439 . S
C916 C941 1.395 . S
N917 Co906 1.995 . S
N917 C918 1.376 . S
N917 C921 1.383 . S
C918 N917 1.376 . S
C918 C919 1.446 . S
C918 C941 1.391 . S
C919 C918 1.446 . S
C919 C920 1.339 . S
C919 H948 0.949 . S
C920 C919 1.339 . S
C920 C921 1.439 . S
C920 H949 0.950 . S
C921 N917 1.383 . S
C921 C920 1.439 . S
C921 C939 1.392 . S
N922 Co906 2.282 . S
N922 C925 1.332 . S
N922 C927 1.332 . S
C923 C924 1.386 . S
C923 C926 1.388 . S
C924 C923 1.386 . S
C924 C925 1.382 . S
C924 H950 0.950 . S
C925 N922 1.332 . S
C925 C924 1.382 . S
C925 H936 0.952 . S
C926 C923 1.388 . S
C926 C927 1.382 . S
C926 H951 0.950 . S
C927 N922 1.332 . S
C927 C926 1.382 . S
C927 H937 0.948 . S
N928 Co906 2.282 . S
N928 C932 1.332 . S
N928 C933 1.332 . S
C929 C930 1.388 . S
C929 C933 1.382 . S
C929 H952 0.950 . S
C930 C929 1.388 . S
C930 C931 1.386 . S
C931 C930 1.386 . S
C931 C932 1.382 . S
C931 H953 0.950 . S
C932 N928 1.332 . S
C932 C931 1.382 . S
C932 H934 0.952 . S
C933 N928 1.332 . S
C933 C929 1.382 . S
C933 H935 0.948 . S
H934 C932 0.952 . S
H935 C933 0.948 . S
H936 C925 0.952 . S
H937 C927 0.948 . S
C938 C904 1.395 . S
C938 C908 1.391 . S
C939 C901 1.389 . S
C939 C921 1.392 . S
C940 C911 1.392 . S
C940 C913 1.389 . S
C941 C916 1.395 . S
C941 C918 1.391 . S
H942 C902 0.951 . S
H943 C903 0.950 . S
H944 C909 0.949 . S
H945 C910 0.950 . S
H946 C914 0.951 . S
H947 C915 0.950 . S
H948 C919 0.949 . S
H949 C920 0.950 . S
H950 C924 0.950 . S
H951 C926 0.950 . S
H952 C929 0.950 . S
H953 C931 0.950 . S
C954 C955 1.388 1_655 S
C954 H958 0.950 . S
C954 C963 1.390 . S
C955 C954 1.388 1_455 S
C955 C957 1.386 . S
H956 C963 0.950 . S
C957 C955 1.386 . S
C957 C959 1.390 . S
C957 H961 0.950 . S
H958 C954 0.950 . S
C959 C957 1.390 . S
C959 C960 1.387 . S
C959 H962 0.950 . S
C960 C959 1.387 . S
C960 C963 1.388 1_455 S
H961 C957 0.950 . S
H962 C959 0.950 . S
C963 C954 1.390 . S
C963 H956 0.950 . S
C963 C960 1.388 1_655 S
C964 C965 1.387 . S
C964 H968 0.950 . S
C964 C973 1.390 . S
C965 C964 1.387 . S
C965 C967 1.387 . S
H966 C973 0.950 . S
C967 C965 1.387 . S
C967 C969 1.390 . S
C967 H971 0.950 . S
H968 C964 0.950 . S
C969 C967 1.390 . S
C969 C970 1.387 . S
C969 H972 0.950 . S
C970 C969 1.387 . S
C970 C973 1.387 . S
H971 C967 0.950 . S
H972 C969 0.950 . S
C973 C964 1.390 . S
C973 H966 0.950 . S
C973 C970 1.387 . S
C974 C975 1.387 1_565 S
C974 H978 0.950 . S
C974 C983 1.390 . S
C975 C974 1.387 1_545 S
C975 C977 1.387 . S
H976 C983 0.950 . S
C977 C975 1.387 . S
C977 C979 1.390 . S
C977 H981 0.950 . S
H978 C974 0.950 . S
C979 C977 1.390 . S
C979 C980 1.387 . S
C979 H982 0.950 . S
C980 C979 1.387 . S
C980 C983 1.387 1_545 S
H981 C977 0.950 . S
H982 C979 0.950 . S
C983 C974 1.390 . S
C983 H976 0.950 . S
C983 C980 1.387 1_565 S
C984 C985 1.389 . S
C984 H988 0.950 . S
C984 C993 1.390 . S
C985 C984 1.389 . S
C985 C987 1.387 1_455 S
H986 C993 0.950 . S
C987 C985 1.387 1_655 S
C987 C989 1.390 . S
C987 H991 0.950 . S
H988 C984 0.950 . S
C989 C987 1.390 . S
C989 C990 1.387 1_655 S
C989 H992 0.950 . S
C990 C989 1.387 1_455 S
C990 C993 1.388 . S
H991 C987 0.950 . S
H992 C989 0.950 . S
C993 C984 1.390 . S
C993 H986 0.950 . S
C993 C990 1.388 . S
C994 C995 1.387 . S
C994 H998 0.950 . S
C994 C1003 1.390 . S
C995 C994 1.387 . S
C995 C997 1.387 . S
H996 C1003 0.950 . S
C997 C995 1.387 . S
C997 C999 1.390 . S
C997 H1001 0.950 . S
H998 C994 0.950 . S
C999 C997 1.390 . S
C999 C1000 1.387 . S
C999 H1002 0.950 . S
C1000 C999 1.387 . S
C1000 C1003 1.387 . S
H1001 C997 0.950 . S
H1002 C999 0.950 . S
C1003 C994 1.390 . S
C1003 H996 0.950 . S
C1003 C1000 1.387 . S
C1004 C1005 1.387 1_565 S
C1004 H1008 0.950 . S
C1004 C1013 1.390 . S
C1005 C1004 1.387 1_545 S
C1005 C1007 1.387 . S
H1006 C1013 0.950 . S
C1007 C1005 1.387 . S
C1007 C1009 1.390 . S
C1007 H1011 0.950 . S
H1008 C1004 0.950 . S
C1009 C1007 1.390 . S
C1009 C1010 1.387 . S
C1009 H1012 0.950 . S
C1010 C1009 1.387 . S
C1010 C1013 1.387 1_545 S
H1011 C1007 0.950 . S
H1012 C1009 0.950 . S
C1013 C1004 1.390 . S
C1013 H1006 0.950 . S
C1013 C1010 1.387 1_565 S
C1014 C1015 1.387 . S
C1014 H1018 0.950 . S
C1014 C1023 1.390 . S
C1015 C1014 1.387 . S
C1015 C1017 1.387 . S
H1016 C1023 0.950 . S
C1017 C1015 1.387 . S
C1017 C1019 1.390 . S
C1017 H1021 0.950 . S
H1018 C1014 0.950 . S
C1019 C1017 1.390 . S
C1019 C1020 1.387 . S
C1019 H1022 0.950 . S
C1020 C1019 1.387 . S
C1020 C1023 1.387 . S
H1021 C1017 0.950 . S
H1022 C1019 0.950 . S
C1023 C1014 1.390 . S
C1023 H1016 0.950 . S
C1023 C1020 1.387 . S
C1024 C1025 1.387 . S
C1024 H1028 0.950 . S
C1024 C1033 1.390 . S
C1025 C1024 1.387 . S
C1025 C1027 1.387 . S
H1026 C1033 0.950 . S
C1027 C1025 1.387 . S
C1027 C1029 1.390 . S
C1027 H1031 0.950 . S
H1028 C1024 0.950 . S
C1029 C1027 1.390 . S
C1029 C1030 1.387 . S
C1029 H1032 0.950 . S
C1030 C1029 1.387 . S
C1030 C1033 1.387 . S
H1031 C1027 0.950 . S
H1032 C1029 0.950 . S
C1033 C1024 1.390 . S
C1033 H1026 0.950 . S
C1033 C1030 1.387 . S
C1034 C1035 1.387 . S
C1034 H1038 0.950 . S
C1034 C1043 1.390 . S
C1035 C1034 1.387 . S
C1035 C1037 1.387 . S
H1036 C1043 0.950 . S
C1037 C1035 1.387 . S
C1037 C1039 1.390 . S
C1037 H1041 0.950 . S
H1038 C1034 0.950 . S
C1039 C1037 1.390 . S
C1039 C1040 1.387 . S
C1039 H1042 0.950 . S
C1040 C1039 1.387 . S
C1040 C1043 1.387 . S
H1041 C1037 0.950 . S
H1042 C1039 0.950 . S
C1043 C1034 1.390 . S
C1043 H1036 0.950 . S
C1043 C1040 1.387 . S
C1044 C1045 1.387 . S
C1044 H1048 0.950 . S
C1044 C1053 1.390 . S
C1045 C1044 1.387 . S
C1045 C1047 1.387 . S
H1046 C1053 0.950 . S
C1047 C1045 1.387 . S
C1047 C1049 1.390 . S
C1047 H1051 0.950 . S
H1048 C1044 0.950 . S
C1049 C1047 1.390 . S
C1049 C1050 1.387 . S
C1049 H1052 0.950 . S
C1050 C1049 1.387 . S
C1050 C1053 1.387 . S
H1051 C1047 0.950 . S
H1052 C1049 0.950 . S
C1053 C1044 1.390 . S
C1053 H1046 0.950 . S
C1053 C1050 1.387 . S
C1054 C1055 1.387 . S
C1054 H1058 0.950 . S
C1054 C1063 1.390 . S
C1055 C1054 1.387 . S
C1055 C1057 1.387 . S
H1056 C1063 0.950 . S
C1057 C1055 1.387 . S
C1057 C1059 1.390 . S
C1057 H1061 0.950 . S
H1058 C1054 0.950 . S
C1059 C1057 1.390 . S
C1059 C1060 1.387 . S
C1059 H1062 0.950 . S
C1060 C1059 1.387 . S
C1060 C1063 1.387 . S
H1061 C1057 0.950 . S
H1062 C1059 0.950 . S
C1063 C1054 1.390 . S
C1063 H1056 0.950 . S
C1063 C1060 1.387 . S
C1064 C1065 1.387 . S
C1064 H1068 0.950 . S
C1064 C1073 1.390 . S
C1065 C1064 1.387 . S
C1065 C1067 1.387 . S
H1066 C1073 0.950 . S
C1067 C1065 1.387 . S
C1067 C1069 1.390 . S
C1067 H1071 0.950 . S
H1068 C1064 0.950 . S
C1069 C1067 1.390 . S
C1069 C1070 1.387 . S
C1069 H1072 0.950 . S
C1070 C1069 1.387 . S
C1070 C1073 1.387 . S
H1071 C1067 0.950 . S
H1072 C1069 0.950 . S
C1073 C1064 1.390 . S
C1073 H1066 0.950 . S
C1073 C1070 1.387 . S
C1074 C1075 1.387 1_556 S
C1074 H1078 0.950 . S
C1074 C1083 1.390 . S
C1075 C1074 1.387 1_554 S
C1075 C1077 1.387 1_554 S
H1076 C1083 0.950 . S
C1077 C1075 1.387 1_556 S
C1077 C1079 1.390 . S
C1077 H1081 0.954 . S
H1078 C1074 0.950 . S
C1079 C1077 1.390 . S
C1079 C1080 1.387 . S
C1079 H1082 0.950 . S
C1080 C1079 1.387 . S
C1080 C1083 1.387 . S
H1081 C1077 0.954 . S
H1082 C1079 0.950 . S
C1083 C1074 1.390 . S
C1083 H1076 0.950 . S
C1083 C1080 1.387 . S
C1084 C1085 1.387 . S
C1084 H1088 0.950 . S
C1084 C1093 1.390 . S
C1085 C1084 1.387 . S
C1085 C1087 1.387 . S
H1086 C1093 0.950 1_554 S
C1087 C1085 1.387 . S
C1087 C1089 1.390 . S
C1087 H1091 0.950 . S
H1088 C1084 0.950 . S
C1089 C1087 1.390 . S
C1089 C1090 1.387 1_556 S
C1089 H1092 0.950 1_556 S
C1090 C1089 1.387 1_554 S
C1090 C1093 1.387 1_554 S
H1091 C1087 0.950 . S
H1092 C1089 0.950 1_554 S
C1093 C1084 1.390 . S
C1093 H1086 0.950 1_556 S
C1093 C1090 1.387 1_556 S
C1094 C1095 1.387 . S
C1094 H1098 0.950 . S
C1094 C1103 1.390 . S
C1095 C1094 1.387 . S
C1095 C1097 1.387 . S
H1096 C1103 0.950 . S
C1097 C1095 1.387 . S
C1097 C1099 1.390 . S
C1097 H1101 0.950 . S
H1098 C1094 0.950 . S
C1099 C1097 1.390 . S
C1099 C1100 1.387 . S
C1099 H1102 0.950 . S
C1100 C1099 1.387 . S
C1100 C1103 1.387 . S
H1101 C1097 0.950 . S
H1102 C1099 0.950 . S
C1103 C1094 1.390 . S
C1103 H1096 0.950 . S
C1103 C1100 1.387 . S
C1104 C1105 1.387 . S
C1104 H1108 0.950 . S
C1104 C1113 1.390 . S
C1105 C1104 1.387 . S
C1105 C1107 1.387 . S
H1106 C1113 0.950 . S
C1107 C1105 1.387 . S
C1107 C1109 1.390 . S
C1107 H1111 0.950 . S
H1108 C1104 0.950 . S
C1109 C1107 1.390 . S
C1109 C1110 1.387 . S
C1109 H1112 0.950 . S
C1110 C1109 1.387 . S
C1110 C1113 1.387 . S
H1111 C1107 0.950 . S
H1112 C1109 0.950 . S
C1113 C1104 1.390 . S
C1113 H1106 0.950 . S
C1113 C1110 1.387 . S
C1114 C1115 1.387 . S
C1114 H1118 0.950 . S
C1114 C1123 1.390 . S
C1115 C1114 1.387 . S
C1115 C1117 1.387 . S
H1116 C1123 0.950 . S
C1117 C1115 1.387 . S
C1117 C1119 1.390 . S
C1117 H1121 0.950 . S
H1118 C1114 0.950 . S
C1119 C1117 1.390 . S
C1119 C1120 1.387 . S
C1119 H1122 0.950 . S
C1120 C1119 1.387 . S
C1120 C1123 1.387 . S
H1121 C1117 0.950 . S
H1122 C1119 0.950 . S
C1123 C1114 1.390 . S
C1123 H1116 0.950 . S
C1123 C1120 1.387 . S
C1124 C1125 1.387 . S
C1124 H1128 0.950 . S
C1124 C1133 1.390 . S
C1125 C1124 1.387 . S
C1125 C1127 1.387 . S
H1126 C1133 0.950 . S
C1127 C1125 1.387 . S
C1127 C1129 1.390 . S
C1127 H1131 0.950 . S
H1128 C1124 0.950 . S
C1129 C1127 1.390 . S
C1129 C1130 1.387 . S
C1129 H1132 0.950 . S
C1130 C1129 1.387 . S
C1130 C1133 1.387 . S
H1131 C1127 0.950 . S
H1132 C1129 0.950 . S
C1133 C1124 1.390 . S
C1133 H1126 0.950 . S
C1133 C1130 1.387 . S
C1134 C1135 1.387 . S
C1134 H1138 0.950 . S
C1134 C1143 1.390 . S
C1135 C1134 1.387 . S
C1135 C1137 1.387 . S
H1136 C1143 0.950 . S
C1137 C1135 1.387 . S
C1137 C1139 1.390 . S
C1137 H1141 0.950 . S
H1138 C1134 0.950 . S
C1139 C1137 1.390 . S
C1139 C1140 1.387 . S
C1139 H1142 0.950 . S
C1140 C1139 1.387 . S
C1140 C1143 1.387 . S
H1141 C1137 0.950 . S
H1142 C1139 0.950 . S
C1143 C1134 1.390 . S
C1143 H1136 0.950 . S
C1143 C1140 1.387 . S
C1144 C1145 1.387 . S
C1144 H1148 0.950 . S
C1144 C1153 1.390 . S
C1145 C1144 1.387 . S
C1145 C1147 1.387 . S
H1146 C1153 0.950 . S
C1147 C1145 1.387 . S
C1147 C1149 1.390 . S
C1147 H1151 0.950 . S
H1148 C1144 0.950 . S
C1149 C1147 1.390 . S
C1149 C1150 1.387 . S
C1149 H1152 0.950 1_556 S
C1150 C1149 1.387 . S
C1150 C1153 1.387 . S
H1151 C1147 0.950 . S
H1152 C1149 0.950 1_554 S
C1153 C1144 1.390 . S
C1153 H1146 0.950 . S
C1153 C1150 1.387 . S
C1154 C1155 1.387 . S
C1154 H1158 0.950 . S
C1154 C1163 1.390 . S
C1155 C1154 1.387 . S
C1155 C1157 1.387 . S
H1156 C1163 0.950 . S
C1157 C1155 1.387 . S
C1157 C1159 1.390 . S
C1157 H1161 0.950 . S
H1158 C1154 0.950 . S
C1159 C1157 1.390 . S
C1159 C1160 1.387 . S
C1159 H1162 0.950 1_556 S
C1160 C1159 1.387 . S
C1160 C1163 1.387 . S
H1161 C1157 0.950 . S
H1162 C1159 0.950 1_554 S
C1163 C1154 1.390 . S
C1163 H1156 0.950 . S
C1163 C1160 1.387 . S
C1164 C1165 1.387 . S
C1164 H1168 0.950 . S
C1164 C1173 1.390 . S
C1165 C1164 1.387 . S
C1165 C1167 1.387 . S
H1166 C1173 0.950 . S
C1167 C1165 1.387 . S
C1167 C1169 1.390 . S
C1167 H1171 0.950 . S
H1168 C1164 0.950 . S
C1169 C1167 1.390 . S
C1169 C1170 1.387 . S
C1169 H1172 0.950 . S
C1170 C1169 1.387 . S
C1170 C1173 1.387 . S
H1171 C1167 0.950 . S
H1172 C1169 0.950 . S
C1173 C1164 1.390 . S
C1173 H1166 0.950 . S
C1173 C1170 1.387 . S
C1174 C1175 1.387 . S
C1174 H1178 0.950 . S
C1174 C1183 1.390 . S
C1175 C1174 1.387 . S
C1175 C1177 1.387 . S
H1176 C1183 0.950 . S
C1177 C1175 1.387 . S
C1177 C1179 1.390 . S
C1177 H1181 0.950 . S
H1178 C1174 0.950 . S
C1179 C1177 1.390 . S
C1179 C1180 1.387 . S
C1179 H1182 0.950 . S
C1180 C1179 1.387 . S
C1180 C1183 1.387 . S
H1181 C1177 0.950 . S
H1182 C1179 0.950 . S
C1183 C1174 1.390 . S
C1183 H1176 0.950 . S
C1183 C1180 1.387 . S
C1184 C1185 1.387 . S
C1184 H1188 0.950 . S
C1184 C1193 1.390 . S
C1185 C1184 1.387 . S
C1185 C1187 1.387 . S
H1186 C1193 0.950 . S
C1187 C1185 1.387 . S
C1187 C1189 1.390 . S
C1187 H1191 0.950 . S
H1188 C1184 0.950 . S
C1189 C1187 1.390 . S
C1189 C1190 1.387 . S
C1189 H1192 0.950 . S
C1190 C1189 1.387 . S
C1190 C1193 1.387 . S
H1191 C1187 0.950 . S
H1192 C1189 0.950 . S
C1193 C1184 1.390 . S
C1193 H1186 0.950 . S
C1193 C1190 1.387 . S
C1194 C1195 1.387 . S
C1194 H1198 0.950 . S
C1194 C1203 1.390 . S
C1195 C1194 1.387 . S
C1195 C1197 1.387 . S
H1196 C1203 0.950 . S
C1197 C1195 1.387 . S
C1197 C1199 1.390 . S
C1197 H1201 0.950 . S
H1198 C1194 0.950 . S
C1199 C1197 1.390 . S
C1199 C1200 1.387 . S
C1199 H1202 0.950 . S
C1200 C1199 1.387 . S
C1200 C1203 1.387 . S
H1201 C1197 0.950 . S
H1202 C1199 0.950 . S
C1203 C1194 1.390 . S
C1203 H1196 0.950 . S
C1203 C1200 1.387 . S
C1204 C1205 1.387 . S
C1204 H1208 0.950 . S
C1204 C1213 1.390 . S
C1205 C1204 1.387 . S
C1205 C1207 1.387 . S
H1206 C1213 0.950 . S
C1207 C1205 1.387 . S
C1207 C1209 1.390 . S
C1207 H1211 0.950 . S
H1208 C1204 0.950 . S
C1209 C1207 1.390 . S
C1209 C1210 1.387 . S
C1209 H1212 0.950 . S
C1210 C1209 1.387 . S
C1210 C1213 1.387 . S
H1211 C1207 0.950 . S
H1212 C1209 0.950 . S
C1213 C1204 1.390 . S
C1213 H1206 0.950 . S
C1213 C1210 1.387 . S
C1214 C1215 1.387 . S
C1214 H1218 0.950 . S
C1214 C1223 1.390 . S
C1215 C1214 1.387 . S
C1215 C1217 1.387 . S
H1216 C1223 0.950 . S
C1217 C1215 1.387 . S
C1217 C1219 1.390 . S
C1217 H1221 0.950 . S
H1218 C1214 0.950 . S
C1219 C1217 1.390 . S
C1219 C1220 1.387 . S
C1219 H1222 0.950 . S
C1220 C1219 1.387 . S
C1220 C1223 1.387 . S
H1221 C1217 0.950 . S
H1222 C1219 0.950 . S
C1223 C1214 1.390 . S
C1223 H1216 0.950 . S
C1223 C1220 1.387 . S
C1224 C1225 1.387 . S
C1224 H1228 0.950 1_565 S
C1224 C1233 1.390 . S
C1225 C1224 1.387 . S
C1225 C1227 1.387 . S
H1226 C1233 0.950 . S
C1227 C1225 1.387 . S
C1227 C1229 1.390 . S
C1227 H1231 0.950 . S
H1228 C1224 0.950 1_545 S
C1229 C1227 1.390 . S
C1229 C1230 1.387 . S
C1229 H1232 0.950 . S
C1230 C1229 1.387 . S
C1230 C1233 1.387 . S
H1231 C1227 0.950 . S
H1232 C1229 0.950 . S
C1233 C1224 1.390 . S
C1233 H1226 0.950 . S
C1233 C1230 1.387 . S
C1234 C1235 1.387 . S
C1234 H1238 0.950 . S
C1234 C1243 1.390 . S
C1235 C1234 1.387 . S
C1235 C1237 1.387 . S
H1236 C1243 0.950 . S
C1237 C1235 1.387 . S
C1237 C1239 1.390 . S
C1237 H1241 0.950 . S
H1238 C1234 0.950 . S
C1239 C1237 1.390 . S
C1239 C1240 1.387 . S
C1239 H1242 0.950 . S
C1240 C1239 1.387 . S
C1240 C1243 1.387 . S
H1241 C1237 0.950 . S
H1242 C1239 0.950 . S
C1243 C1234 1.390 . S
C1243 H1236 0.950 . S
C1243 C1240 1.387 . S
C1244 C1245 1.387 . S
C1244 H1248 0.950 . S
C1244 C1253 1.390 . S
C1245 C1244 1.387 . S
C1245 C1247 1.387 . S
H1246 C1253 0.950 . S
C1247 C1245 1.387 . S
C1247 C1249 1.390 . S
C1247 H1251 0.950 . S
H1248 C1244 0.950 . S
C1249 C1247 1.390 . S
C1249 C1250 1.387 . S
C1249 H1252 0.950 . S
C1250 C1249 1.387 . S
C1250 C1253 1.387 . S
H1251 C1247 0.950 . S
H1252 C1249 0.950 . S
C1253 C1244 1.390 . S
C1253 H1246 0.950 . S
C1253 C1250 1.387 . S
C1254 C1255 1.387 . S
C1254 H1258 0.950 . S
C1254 C1263 1.390 . S
C1255 C1254 1.387 . S
C1255 C1257 1.387 . S
H1256 C1263 0.950 . S
C1257 C1255 1.387 . S
C1257 C1259 1.390 . S
C1257 H1261 0.950 . S
H1258 C1254 0.950 . S
C1259 C1257 1.390 . S
C1259 C1260 1.387 . S
C1259 H1262 0.950 . S
C1260 C1259 1.387 . S
C1260 C1263 1.387 . S
H1261 C1257 0.950 . S
H1262 C1259 0.950 . S
C1263 C1254 1.390 . S
C1263 H1256 0.950 . S
C1263 C1260 1.387 . S
C1264 C1265 1.387 . S
C1264 H1268 0.950 . S
C1264 C1273 1.390 1_545 S
C1265 C1264 1.387 . S
C1265 C1267 1.387 . S
H1266 C1273 0.950 . S
C1267 C1265 1.387 . S
C1267 C1269 1.390 . S
C1267 H1271 0.950 . S
H1268 C1264 0.950 . S
C1269 C1267 1.390 . S
C1269 C1270 1.387 1_545 S
C1269 H1272 0.950 1_545 S
C1270 C1269 1.387 1_565 S
C1270 C1273 1.387 . S
H1271 C1267 0.950 . S
H1272 C1269 0.950 1_565 S
C1273 C1264 1.390 1_565 S
C1273 H1266 0.950 . S
C1273 C1270 1.387 . S
C1274 C1275 1.387 . S
C1274 H1278 0.950 . S
C1274 C1283 1.390 . S
C1275 C1274 1.387 . S
C1275 C1277 1.387 . S
H1276 C1283 0.950 . S
C1277 C1275 1.387 . S
C1277 C1279 1.390 . S
C1277 H1281 0.950 . S
H1278 C1274 0.950 . S
C1279 C1277 1.390 . S
C1279 C1280 1.387 . S
C1279 H1282 0.950 . S
C1280 C1279 1.387 . S
C1280 C1283 1.387 . S
H1281 C1277 0.950 . S
H1282 C1279 0.950 . S
C1283 C1274 1.390 . S
C1283 H1276 0.950 . S
C1283 C1280 1.387 . S
C1284 C1285 1.387 . S
C1284 H1288 0.950 . S
C1284 C1293 1.390 . S
C1285 C1284 1.387 . S
C1285 C1287 1.387 . S
H1286 C1293 0.950 . S
C1287 C1285 1.387 . S
C1287 C1289 1.390 . S
C1287 H1291 0.950 . S
H1288 C1284 0.950 . S
C1289 C1287 1.390 . S
C1289 C1290 1.387 . S
C1289 H1292 0.950 . S
C1290 C1289 1.387 . S
C1290 C1293 1.387 . S
H1291 C1287 0.950 . S
H1292 C1289 0.950 . S
C1293 C1284 1.390 . S
C1293 H1286 0.950 . S
C1293 C1290 1.387 . S
C1294 C1295 1.387 . S
C1294 H1298 0.950 . S
C1294 C1303 1.390 . S
C1295 C1294 1.387 . S
C1295 C1297 1.387 . S
H1296 C1303 0.950 . S
C1297 C1295 1.387 . S
C1297 C1299 1.390 . S
C1297 H1301 0.950 . S
H1298 C1294 0.950 . S
C1299 C1297 1.390 . S
C1299 C1300 1.387 . S
C1299 H1302 0.950 . S
C1300 C1299 1.387 . S
C1300 C1303 1.387 . S
H1301 C1297 0.950 . S
H1302 C1299 0.950 . S
C1303 C1294 1.390 . S
C1303 H1296 0.950 . S
C1303 C1300 1.387 . S
C1304 C1305 1.387 . S
C1304 H1308 0.950 . S
C1304 C1313 1.390 1_455 S
C1305 C1304 1.387 . S
C1305 C1307 1.387 . S
H1306 C1313 0.950 . S
C1307 C1305 1.387 . S
C1307 C1309 1.390 1_455 S
C1307 H1311 0.950 . S
H1308 C1304 0.950 . S
C1309 C1307 1.390 1_655 S
C1309 C1310 1.387 . S
C1309 H1312 0.950 . S
C1310 C1309 1.387 . S
C1310 C1313 1.387 . S
H1311 C1307 0.950 . S
H1312 C1309 0.950 . S
C1313 C1304 1.390 1_655 S
C1313 H1306 0.950 . S
C1313 C1310 1.387 . S
C955 C250 1.992 1_455 S
C960 C38 1.992 . S
C965 C304 1.992 . S
C970 C92 1.991 . S
C975 C144 1.164 . S
C980 C188 1.165 . S
C985 C251 1.957 . S
C990 C39 1.957 . S
C995 C303 1.958 . S
C1000 C91 1.957 . S
C1005 C145 1.123 . S
C1010 C181 1.124 . S
C1015 C569 1.950 . S
C1020 C356 1.950 . S
C1025 C622 1.948 . S
C1030 C409 1.948 . S
C1035 C462 1.948 . S
C1040 C516 1.948 . S
C1045 C357 2.000 . S
C1050 C568 1.999 1_554 S
C1055 C621 2.002 1_554 S
C1060 C410 2.001 . S
C1065 C515 2.001 1_554 S
C1070 C463 2.000 . S
C1075 C887 1.152 . S
C1080 C665 1.153 . S
C1085 C711 1.156 . S
C1090 C939 1.155 . S
C1095 C824 0.329 . S
C1100 C764 0.326 . S
C1105 C886 1.136 . S
C1110 C658 1.137 . S
C1115 C940 1.131 . S
C1120 C718 1.132 . S
C1125 C771 0.306 . S
C1130 C817 0.310 . S
C1135 C22 1.555 . S
C1140 C506 1.562 . S
C1145 C559 1.514 . S
C1150 C82 1.513 . S
C1155 C612 1.505 . S
C1160 C128 1.505 . S
C1165 C198 1.538 . S
C1170 C675 1.537 . S
C1175 C727 1.523 . S
C1180 C234 1.523 . S
C1185 C780 1.511 . S
C1190 C294 1.513 . S
C1195 C833 1.571 . S
C1200 C29 1.558 . S
C1205 C870 1.518 . S
C1210 C75 1.520 . S
C1215 C930 1.500 . S
C1220 C135 1.501 . S
C1225 C197 1.545 . S
C1230 C347 1.550 . S
C1235 C241 1.514 . S
C1240 C400 1.513 . S
C1245 C453 1.515 . S
C1250 C287 1.517 . S
C1255 C834 1.522 . S
C1260 C340 1.518 . S
C1265 C877 1.548 . S
C1270 C393 1.549 . S
C1275 C446 1.516 . S
C1280 C923 1.520 1_455 S
C1285 C674 1.504 . S
C1290 C499 1.503 . S
C1295 C728 1.519 . S
C1300 C552 1.517 1_545 S
C1305 C605 1.518 . S
C1310 C781 1.519 . S
