# Generated by pormake.
# Topology uko, (4)-cn, num edge types: 1
# Building blocks:
#     Node 0, Type 0, BuildingBlock: CEKHIL_clean_sbu_0, # of connection points: 4
#     Node 1, Type 0, BuildingBlock: CEKHIL_clean_sbu_0, # of connection points: 4
#     Node 2, Type 0, BuildingBlock: CEKHIL_clean_sbu_0, # of connection points: 4
#     Node 3, Type 0, BuildingBlock: CEKHIL_clean_sbu_0, # of connection points: 4
#     Node 4, Type 0, BuildingBlock: CEKHIL_clean_sbu_0, # of connection points: 4
#     Node 5, Type 0, BuildingBlock: CEKHIL_clean_sbu_0, # of connection points: 4
#     Node 6, Type 0, BuildingBlock: CEKHIL_clean_sbu_0, # of connection points: 4
#     Node 7, Type 0, BuildingBlock: CEKHIL_clean_sbu_0, # of connection points: 4
#     Node 8, Type 0, BuildingBlock: CEKHIL_clean_sbu_0, # of connection points: 4
#     Node 9, Type 0, BuildingBlock: CEKHIL_clean_sbu_0, # of connection points: 4
#     Node 10, Type 0, BuildingBlock: CEKHIL_clean_sbu_0, # of connection points: 4
#     Node 11, Type 0, BuildingBlock: CEKHIL_clean_sbu_0, # of connection points: 4
#     Node 12, Type 0, BuildingBlock: CEKHIL_clean_sbu_0, # of connection points: 4
#     Node 13, Type 0, BuildingBlock: CEKHIL_clean_sbu_0, # of connection points: 4
#     Node 14, Type 0, BuildingBlock: CEKHIL_clean_sbu_0, # of connection points: 4
#     Node 15, Type 0, BuildingBlock: CEKHIL_clean_sbu_0, # of connection points: 4
#     Node 16, Type 0, BuildingBlock: CEKHIL_clean_sbu_0, # of connection points: 4
#     Node 17, Type 0, BuildingBlock: CEKHIL_clean_sbu_0, # of connection points: 4
#     Node 18, Type 0, BuildingBlock: CEKHIL_clean_sbu_0, # of connection points: 4
#     Node 19, Type 0, BuildingBlock: CEKHIL_clean_sbu_0, # of connection points: 4
#     Node 20, Type 0, BuildingBlock: CEKHIL_clean_sbu_0, # of connection points: 4
#     Node 21, Type 0, BuildingBlock: CEKHIL_clean_sbu_0, # of connection points: 4
#     Node 22, Type 0, BuildingBlock: CEKHIL_clean_sbu_0, # of connection points: 4
#     Node 23, Type 0, BuildingBlock: CEKHIL_clean_sbu_0, # of connection points: 4
#     Node 24, Type 0, BuildingBlock: CEKHIL_clean_sbu_0, # of connection points: 4
#     Node 25, Type 0, BuildingBlock: CEKHIL_clean_sbu_0, # of connection points: 4
#     Node 26, Type 0, BuildingBlock: CEKHIL_clean_sbu_0, # of connection points: 4
#     Node 27, Type 0, BuildingBlock: CEKHIL_clean_sbu_0, # of connection points: 4
#     Node 28, Type 0, BuildingBlock: CEKHIL_clean_sbu_0, # of connection points: 4
#     Node 29, Type 0, BuildingBlock: CEKHIL_clean_sbu_0, # of connection points: 4
#     Node 30, Type 0, BuildingBlock: CEKHIL_clean_sbu_0, # of connection points: 4
#     Node 31, Type 0, BuildingBlock: CEKHIL_clean_sbu_0, # of connection points: 4
#     Node 32, Type 0, BuildingBlock: CEKHIL_clean_sbu_0, # of connection points: 4
#     Node 33, Type 0, BuildingBlock: CEKHIL_clean_sbu_0, # of connection points: 4
#     Node 34, Type 0, BuildingBlock: CEKHIL_clean_sbu_0, # of connection points: 4
#     Node 35, Type 0, BuildingBlock: CEKHIL_clean_sbu_0, # of connection points: 4
#     Node 36, Type 0, BuildingBlock: CEKHIL_clean_sbu_0, # of connection points: 4
#     Node 37, Type 0, BuildingBlock: CEKHIL_clean_sbu_0, # of connection points: 4
#     Node 38, Type 0, BuildingBlock: CEKHIL_clean_sbu_0, # of connection points: 4
#     Node 39, Type 0, BuildingBlock: CEKHIL_clean_sbu_0, # of connection points: 4
#     Node 40, Type 0, BuildingBlock: CEKHIL_clean_sbu_0, # of connection points: 4
#     Node 41, Type 0, BuildingBlock: CEKHIL_clean_sbu_0, # of connection points: 4
#     Node 42, Type 0, BuildingBlock: CEKHIL_clean_sbu_0, # of connection points: 4
#     Node 43, Type 0, BuildingBlock: CEKHIL_clean_sbu_0, # of connection points: 4
#     Node 44, Type 0, BuildingBlock: CEKHIL_clean_sbu_0, # of connection points: 4
#     Node 45, Type 0, BuildingBlock: CEKHIL_clean_sbu_0, # of connection points: 4
#     Node 46, Type 0, BuildingBlock: CEKHIL_clean_sbu_0, # of connection points: 4
#     Node 47, Type 0, BuildingBlock: CEKHIL_clean_sbu_0, # of connection points: 4
#     Edge 48, Type (0, 0), BuildingBlock: TEMPAE_clean_linker_10, # of connection points: 2
#     Edge 49, Type (0, 0), BuildingBlock: TEMPAE_clean_linker_10, # of connection points: 2
#     Edge 50, Type (0, 0), BuildingBlock: TEMPAE_clean_linker_10, # of connection points: 2
#     Edge 51, Type (0, 0), BuildingBlock: TEMPAE_clean_linker_10, # of connection points: 2
#     Edge 52, Type (0, 0), BuildingBlock: TEMPAE_clean_linker_10, # of connection points: 2
#     Edge 53, Type (0, 0), BuildingBlock: TEMPAE_clean_linker_10, # of connection points: 2
#     Edge 54, Type (0, 0), BuildingBlock: TEMPAE_clean_linker_10, # of connection points: 2
#     Edge 55, Type (0, 0), BuildingBlock: TEMPAE_clean_linker_10, # of connection points: 2
#     Edge 56, Type (0, 0), BuildingBlock: TEMPAE_clean_linker_10, # of connection points: 2
#     Edge 57, Type (0, 0), BuildingBlock: TEMPAE_clean_linker_10, # of connection points: 2
#     Edge 58, Type (0, 0), BuildingBlock: TEMPAE_clean_linker_10, # of connection points: 2
#     Edge 59, Type (0, 0), BuildingBlock: TEMPAE_clean_linker_10, # of connection points: 2
#     Edge 60, Type (0, 0), BuildingBlock: TEMPAE_clean_linker_10, # of connection points: 2
#     Edge 61, Type (0, 0), BuildingBlock: TEMPAE_clean_linker_10, # of connection points: 2
#     Edge 62, Type (0, 0), BuildingBlock: TEMPAE_clean_linker_10, # of connection points: 2
#     Edge 63, Type (0, 0), BuildingBlock: TEMPAE_clean_linker_10, # of connection points: 2
#     Edge 64, Type (0, 0), BuildingBlock: TEMPAE_clean_linker_10, # of connection points: 2
#     Edge 65, Type (0, 0), BuildingBlock: TEMPAE_clean_linker_10, # of connection points: 2
#     Edge 66, Type (0, 0), BuildingBlock: TEMPAE_clean_linker_10, # of connection points: 2
#     Edge 67, Type (0, 0), BuildingBlock: TEMPAE_clean_linker_10, # of connection points: 2
#     Edge 68, Type (0, 0), BuildingBlock: TEMPAE_clean_linker_10, # of connection points: 2
#     Edge 69, Type (0, 0), BuildingBlock: TEMPAE_clean_linker_10, # of connection points: 2
#     Edge 70, Type (0, 0), BuildingBlock: TEMPAE_clean_linker_10, # of connection points: 2
#     Edge 71, Type (0, 0), BuildingBlock: TEMPAE_clean_linker_10, # of connection points: 2
#     Edge 72, Type (0, 0), BuildingBlock: TEMPAE_clean_linker_10, # of connection points: 2
#     Edge 73, Type (0, 0), BuildingBlock: TEMPAE_clean_linker_10, # of connection points: 2
#     Edge 74, Type (0, 0), BuildingBlock: TEMPAE_clean_linker_10, # of connection points: 2
#     Edge 75, Type (0, 0), BuildingBlock: TEMPAE_clean_linker_10, # of connection points: 2
#     Edge 76, Type (0, 0), BuildingBlock: TEMPAE_clean_linker_10, # of connection points: 2
#     Edge 77, Type (0, 0), BuildingBlock: TEMPAE_clean_linker_10, # of connection points: 2
#     Edge 78, Type (0, 0), BuildingBlock: TEMPAE_clean_linker_10, # of connection points: 2
#     Edge 79, Type (0, 0), BuildingBlock: TEMPAE_clean_linker_10, # of connection points: 2
#     Edge 80, Type (0, 0), BuildingBlock: TEMPAE_clean_linker_10, # of connection points: 2
#     Edge 81, Type (0, 0), BuildingBlock: TEMPAE_clean_linker_10, # of connection points: 2
#     Edge 82, Type (0, 0), BuildingBlock: TEMPAE_clean_linker_10, # of connection points: 2
#     Edge 83, Type (0, 0), BuildingBlock: TEMPAE_clean_linker_10, # of connection points: 2
#     Edge 84, Type (0, 0), BuildingBlock: TEMPAE_clean_linker_10, # of connection points: 2
#     Edge 85, Type (0, 0), BuildingBlock: TEMPAE_clean_linker_10, # of connection points: 2
#     Edge 86, Type (0, 0), BuildingBlock: TEMPAE_clean_linker_10, # of connection points: 2
#     Edge 87, Type (0, 0), BuildingBlock: TEMPAE_clean_linker_10, # of connection points: 2
#     Edge 88, Type (0, 0), BuildingBlock: TEMPAE_clean_linker_10, # of connection points: 2
#     Edge 89, Type (0, 0), BuildingBlock: TEMPAE_clean_linker_10, # of connection points: 2
#     Edge 90, Type (0, 0), BuildingBlock: TEMPAE_clean_linker_10, # of connection points: 2
#     Edge 91, Type (0, 0), BuildingBlock: TEMPAE_clean_linker_10, # of connection points: 2
#     Edge 92, Type (0, 0), BuildingBlock: TEMPAE_clean_linker_10, # of connection points: 2
#     Edge 93, Type (0, 0), BuildingBlock: TEMPAE_clean_linker_10, # of connection points: 2
#     Edge 94, Type (0, 0), BuildingBlock: TEMPAE_clean_linker_10, # of connection points: 2
#     Edge 95, Type (0, 0), BuildingBlock: TEMPAE_clean_linker_10, # of connection points: 2
#     Edge 96, Type (0, 0), BuildingBlock: TEMPAE_clean_linker_10, # of connection points: 2
#     Edge 97, Type (0, 0), BuildingBlock: TEMPAE_clean_linker_10, # of connection points: 2
#     Edge 98, Type (0, 0), BuildingBlock: TEMPAE_clean_linker_10, # of connection points: 2
#     Edge 99, Type (0, 0), BuildingBlock: TEMPAE_clean_linker_10, # of connection points: 2
#     Edge 100, Type (0, 0), BuildingBlock: TEMPAE_clean_linker_10, # of connection points: 2
#     Edge 101, Type (0, 0), BuildingBlock: TEMPAE_clean_linker_10, # of connection points: 2
#     Edge 102, Type (0, 0), BuildingBlock: TEMPAE_clean_linker_10, # of connection points: 2
#     Edge 103, Type (0, 0), BuildingBlock: TEMPAE_clean_linker_10, # of connection points: 2
#     Edge 104, Type (0, 0), BuildingBlock: TEMPAE_clean_linker_10, # of connection points: 2
#     Edge 105, Type (0, 0), BuildingBlock: TEMPAE_clean_linker_10, # of connection points: 2
#     Edge 106, Type (0, 0), BuildingBlock: TEMPAE_clean_linker_10, # of connection points: 2
#     Edge 107, Type (0, 0), BuildingBlock: TEMPAE_clean_linker_10, # of connection points: 2
#     Edge 108, Type (0, 0), BuildingBlock: TEMPAE_clean_linker_10, # of connection points: 2
#     Edge 109, Type (0, 0), BuildingBlock: TEMPAE_clean_linker_10, # of connection points: 2
#     Edge 110, Type (0, 0), BuildingBlock: TEMPAE_clean_linker_10, # of connection points: 2
#     Edge 111, Type (0, 0), BuildingBlock: TEMPAE_clean_linker_10, # of connection points: 2
#     Edge 112, Type (0, 0), BuildingBlock: TEMPAE_clean_linker_10, # of connection points: 2
#     Edge 113, Type (0, 0), BuildingBlock: TEMPAE_clean_linker_10, # of connection points: 2
#     Edge 114, Type (0, 0), BuildingBlock: TEMPAE_clean_linker_10, # of connection points: 2
#     Edge 115, Type (0, 0), BuildingBlock: TEMPAE_clean_linker_10, # of connection points: 2
#     Edge 116, Type (0, 0), BuildingBlock: TEMPAE_clean_linker_10, # of connection points: 2
#     Edge 117, Type (0, 0), BuildingBlock: TEMPAE_clean_linker_10, # of connection points: 2
#     Edge 118, Type (0, 0), BuildingBlock: TEMPAE_clean_linker_10, # of connection points: 2
#     Edge 119, Type (0, 0), BuildingBlock: TEMPAE_clean_linker_10, # of connection points: 2
#     Edge 120, Type (0, 0), BuildingBlock: TEMPAE_clean_linker_10, # of connection points: 2
#     Edge 121, Type (0, 0), BuildingBlock: TEMPAE_clean_linker_10, # of connection points: 2
#     Edge 122, Type (0, 0), BuildingBlock: TEMPAE_clean_linker_10, # of connection points: 2
#     Edge 123, Type (0, 0), BuildingBlock: TEMPAE_clean_linker_10, # of connection points: 2
#     Edge 124, Type (0, 0), BuildingBlock: TEMPAE_clean_linker_10, # of connection points: 2
#     Edge 125, Type (0, 0), BuildingBlock: TEMPAE_clean_linker_10, # of connection points: 2
#     Edge 126, Type (0, 0), BuildingBlock: TEMPAE_clean_linker_10, # of connection points: 2
#     Edge 127, Type (0, 0), BuildingBlock: TEMPAE_clean_linker_10, # of connection points: 2
#     Edge 128, Type (0, 0), BuildingBlock: TEMPAE_clean_linker_10, # of connection points: 2
#     Edge 129, Type (0, 0), BuildingBlock: TEMPAE_clean_linker_10, # of connection points: 2
#     Edge 130, Type (0, 0), BuildingBlock: TEMPAE_clean_linker_10, # of connection points: 2
#     Edge 131, Type (0, 0), BuildingBlock: TEMPAE_clean_linker_10, # of connection points: 2
#     Edge 132, Type (0, 0), BuildingBlock: TEMPAE_clean_linker_10, # of connection points: 2
#     Edge 133, Type (0, 0), BuildingBlock: TEMPAE_clean_linker_10, # of connection points: 2
#     Edge 134, Type (0, 0), BuildingBlock: TEMPAE_clean_linker_10, # of connection points: 2
#     Edge 135, Type (0, 0), BuildingBlock: TEMPAE_clean_linker_10, # of connection points: 2
#     Edge 136, Type (0, 0), BuildingBlock: TEMPAE_clean_linker_10, # of connection points: 2
#     Edge 137, Type (0, 0), BuildingBlock: TEMPAE_clean_linker_10, # of connection points: 2
#     Edge 138, Type (0, 0), BuildingBlock: TEMPAE_clean_linker_10, # of connection points: 2
#     Edge 139, Type (0, 0), BuildingBlock: TEMPAE_clean_linker_10, # of connection points: 2
#     Edge 140, Type (0, 0), BuildingBlock: TEMPAE_clean_linker_10, # of connection points: 2
#     Edge 141, Type (0, 0), BuildingBlock: TEMPAE_clean_linker_10, # of connection points: 2
#     Edge 142, Type (0, 0), BuildingBlock: TEMPAE_clean_linker_10, # of connection points: 2
#     Edge 143, Type (0, 0), BuildingBlock: TEMPAE_clean_linker_10, # of connection points: 2
# Relax obj value: 0.299
# Max RMSD: 0.162
# Mean RMSD: 0.162
data_MOF--net-uko--node1-CEKHIL_clean_sbu_0--edge1-TEMPAE_clean_linker_10
_symmetry_space_group_name_H-M    P1
_symmetry_Int_Tables_number       1
_symmetry_cell_setting            triclinic
loop_
_symmetry_equiv_pos_as_xyz
'x, y, z'
_cell_length_a     55.723338
_cell_length_b     55.712534
_cell_length_c     55.673204
_cell_angle_alpha  89.993444
_cell_angle_beta   89.970182
_cell_angle_gamma 89.982937
loop_
_atom_site_label
_atom_site_type_symbol
_atom_site_fract_x
_atom_site_fract_y
_atom_site_fract_z
_atom_type_partial_charge
Co0 Co 0.04495 0.37384 0.25345 0.0
O1 O 0.05114 0.34124 0.26282 0.0
O2 O 0.01618 0.35517 0.2496 0.0
C3 C 0.07853 0.37769 0.23134 0.0
O4 O 0.03174 0.40573 0.24153 0.0
Co5 Co 0.07925 0.41551 0.26679 0.0
O6 O 0.06247 0.43162 0.23996 0.0
C7 C 0.04838 0.39314 0.30397 0.0
C8 C 0.02891 0.33714 0.25723 0.0
C9 C 0.04118 0.42549 0.23437 0.0
O10 O 0.03654 0.38174 0.28772 0.0
O11 O 0.06666 0.40627 0.29924 0.0
O12 O 0.05948 0.368 0.22198 0.0
O13 O 0.07698 0.38348 0.2537 0.0
Co14 Co 0.94281 0.13724 0.23796 0.0
O15 O 0.93938 0.17127 0.24101 0.0
O16 O 0.97329 0.15102 0.24687 0.0
C17 C 0.92302 0.13377 0.20313 0.0
O18 O 0.95308 0.10237 0.2359 0.0
Co19 Co 0.89785 0.10419 0.2374 0.0
O20 O 0.92117 0.0806 0.22451 0.0
C21 C 0.91406 0.12603 0.28295 0.0
C22 C 0.96196 0.17144 0.24668 0.0
C23 C 0.94365 0.08279 0.22819 0.0
O24 O 0.93342 0.13346 0.27271 0.0
O25 O 0.89707 0.11554 0.27156 0.0
O26 O 0.94561 0.13961 0.20294 0.0
O27 O 0.91304 0.13228 0.22395 0.0
Co28 Co 0.05843 0.63165 0.23194 0.0
O29 O 0.06959 0.66402 0.23463 0.0
O30 O 0.03193 0.65353 0.22722 0.0
C31 C 0.07786 0.61839 0.26469 0.0
O32 O 0.04041 0.60005 0.22914 0.0
Co33 Co 0.09507 0.59018 0.22432 0.0
O34 O 0.06765 0.57128 0.23679 0.0
C35 C 0.08274 0.62218 0.18398 0.0
C36 C 0.04757 0.6705 0.2309 0.0
C37 C 0.046 0.57839 0.23473 0.0
O38 O 0.06587 0.63178 0.19656 0.0
O39 O 0.09737 0.60654 0.19235 0.0
O40 O 0.05715 0.62887 0.267 0.0
O41 O 0.08663 0.61794 0.24326 0.0
Co42 Co 0.96527 0.86877 0.27262 0.0
O43 O 0.96608 0.83474 0.27649 0.0
O44 O 0.99523 0.85651 0.26012 0.0
C45 C 0.95108 0.87692 0.30935 0.0
O46 O 0.97064 0.90431 0.26676 0.0
Co47 Co 0.91634 0.89554 0.27545 0.0
O48 O 0.93786 0.92341 0.28049 0.0
C49 C 0.92953 0.87005 0.231 0.0
C50 C 0.98696 0.83552 0.26626 0.0
C51 C 0.95956 0.9235 0.27321 0.0
O52 O 0.95024 0.86506 0.23994 0.0
O53 O 0.913 0.88082 0.24279 0.0
O54 O 0.97401 0.87363 0.30643 0.0
O55 O 0.9378 0.87308 0.29084 0.0
Co56 Co 0.26256 0.04604 0.36773 0.0
O57 O 0.26454 0.05545 0.33465 0.0
O58 O 0.26216 0.01786 0.34734 0.0
C59 C 0.23441 0.07351 0.37701 0.0
O60 O 0.25905 0.02975 0.40046 0.0
Co61 Co 0.27481 0.08178 0.4086 0.0
O62 O 0.25428 0.05958 0.42714 0.0
C63 C 0.31397 0.05766 0.38199 0.0
C64 C 0.26307 0.03284 0.3294 0.0
C65 C 0.25269 0.03755 0.42128 0.0
O66 O 0.29869 0.04516 0.36995 0.0
O67 O 0.30797 0.07366 0.39737 0.0
O68 O 0.22817 0.05305 0.36772 0.0
O69 O 0.25718 0.0771 0.37914 0.0
Co70 Co 0.77386 0.4424 0.35541 0.0
O71 O 0.78145 0.44598 0.32207 0.0
O72 O 0.7634 0.47359 0.34446 0.0
C73 C 0.80886 0.42611 0.36669 0.0
O74 O 0.76401 0.44496 0.39045 0.0
Co75 Co 0.77167 0.39116 0.37753 0.0
O76 O 0.77189 0.40952 0.40811 0.0
C77 C 0.73207 0.40801 0.34708 0.0
C78 C 0.77111 0.46679 0.32344 0.0
C79 C 0.76612 0.43165 0.40922 0.0
O80 O 0.74152 0.42904 0.34667 0.0
O81 O 0.74222 0.38983 0.35682 0.0
O82 O 0.8071 0.44934 0.36483 0.0
O83 O 0.79059 0.41398 0.35944 0.0
Co84 Co 0.21434 0.94222 0.1375 0.0
O85 O 0.20763 0.94925 0.17045 0.0
O86 O 0.22861 0.97273 0.14599 0.0
C87 C 0.17752 0.92955 0.12736 0.0
O88 O 0.2238 0.94067 0.10222 0.0
Co89 Co 0.21006 0.88929 0.12011 0.0
O90 O 0.21151 0.90488 0.08806 0.0
C91 C 0.25256 0.904 0.1474 0.0
C92 C 0.22018 0.9686 0.16743 0.0
C93 C 0.21978 0.92599 0.08481 0.0
O94 O 0.24508 0.92582 0.1469 0.0
O95 O 0.24035 0.88631 0.13932 0.0
O96 O 0.18209 0.95246 0.12772 0.0
O97 O 0.19417 0.91588 0.13579 0.0
Co98 Co 0.72422 0.54689 0.12375 0.0
O99 O 0.72946 0.55543 0.15661 0.0
O100 O 0.72192 0.51854 0.14389 0.0
C101 C 0.75556 0.56799 0.10968 0.0
O102 O 0.71946 0.53169 0.09066 0.0
Co103 Co 0.71254 0.58725 0.08686 0.0
O104 O 0.72378 0.56214 0.06443 0.0
C105 C 0.67598 0.5721 0.12195 0.0
C106 C 0.72694 0.5329 0.16167 0.0
C107 C 0.7233 0.53979 0.06933 0.0
O108 O 0.68885 0.55374 0.12767 0.0
O109 O 0.68309 0.58837 0.10736 0.0
O110 O 0.75888 0.54651 0.11814 0.0
O111 O 0.73409 0.57639 0.11174 0.0
Co112 Co 0.37168 0.2533 0.04211 0.0
O113 O 0.33964 0.26378 0.04898 0.0
O114 O 0.35314 0.25344 0.01289 0.0
C115 C 0.37388 0.22795 0.07339 0.0
O116 O 0.40316 0.24107 0.0282 0.0
Co117 Co 0.41357 0.26055 0.07805 0.0
O118 O 0.42782 0.23405 0.05916 0.0
C119 C 0.39448 0.30182 0.0503 0.0
C120 C 0.33547 0.26086 0.02624 0.0
C121 C 0.42209 0.23142 0.03718 0.0
O122 O 0.38155 0.28773 0.03731 0.0
O123 O 0.40735 0.2945 0.0679 0.0
O124 O 0.36404 0.22087 0.05343 0.0
O125 O 0.38083 0.24998 0.07403 0.0
Co126 Co 0.36687 0.77289 0.43735 0.0
O127 O 0.33289 0.77708 0.43805 0.0
O128 O 0.35452 0.76237 0.46813 0.0
C129 C 0.37552 0.8086 0.42124 0.0
O130 O 0.40262 0.76725 0.44256 0.0
Co131 Co 0.39269 0.77201 0.38787 0.0
O132 O 0.4206 0.77967 0.40855 0.0
C133 C 0.36805 0.72858 0.40482 0.0
C134 C 0.33357 0.76827 0.45956 0.0
C135 C 0.42135 0.77375 0.43065 0.0
O136 O 0.36282 0.73944 0.4245 0.0
O137 O 0.37905 0.73869 0.38734 0.0
O138 O 0.37195 0.8069 0.44426 0.0
O139 O 0.37118 0.78954 0.40881 0.0
Co140 Co 0.6415 0.72065 0.44953 0.0
O141 O 0.67337 0.7121 0.45897 0.0
O142 O 0.64896 0.73587 0.47976 0.0
C143 C 0.62914 0.68413 0.43812 0.0
O144 O 0.60718 0.73225 0.44561 0.0
Co145 Co 0.62674 0.71509 0.39599 0.0
O146 O 0.59409 0.71928 0.40968 0.0
C147 C 0.65675 0.75589 0.4101 0.0
C148 C 0.66992 0.72579 0.47751 0.0
C149 C 0.59028 0.72847 0.43032 0.0
O150 O 0.65415 0.7498 0.43223 0.0
O151 O 0.64874 0.74334 0.39261 0.0
O152 O 0.62883 0.68986 0.46078 0.0
O153 O 0.63969 0.69923 0.42409 0.0
Co154 Co 0.13474 0.75154 0.5519 0.0
O155 O 0.16833 0.75497 0.55772 0.0
O156 O 0.1525 0.74384 0.52294 0.0
C157 C 0.12421 0.78611 0.56944 0.0
O158 O 0.10053 0.74751 0.53963 0.0
Co159 Co 0.1003 0.7479 0.59583 0.0
O160 O 0.07706 0.75798 0.57085 0.0
C161 C 0.12952 0.70613 0.582 0.0
C162 C 0.17158 0.74883 0.53553 0.0
C163 C 0.08024 0.75412 0.5485 0.0
O164 O 0.13622 0.71704 0.56274 0.0
O165 O 0.1166 0.71599 0.59827 0.0
O166 O 0.13139 0.78624 0.54724 0.0
O167 O 0.12569 0.76588 0.58057 0.0
Co168 Co 0.95051 0.6369 0.78147 0.0
O169 O 0.95781 0.66947 0.78947 0.0
O170 O 0.9818 0.64521 0.76882 0.0
C171 C 0.93592 0.62617 0.81753 0.0
O172 O 0.94886 0.60184 0.77112 0.0
Co173 Co 0.89715 0.62031 0.78317 0.0
O174 O 0.91289 0.58835 0.78377 0.0
C175 C 0.91392 0.64931 0.74248 0.0
C176 C 0.97767 0.66643 0.77776 0.0
C177 C 0.93413 0.58473 0.776 0.0
O178 O 0.93556 0.64768 0.75033 0.0
O179 O 0.89575 0.64112 0.75391 0.0
O180 O 0.95901 0.62597 0.81396 0.0
O181 O 0.92327 0.63524 0.80044 0.0
Co182 Co 0.0606 0.86688 0.74535 0.0
O183 O 0.06815 0.83363 0.74045 0.0
O184 O 0.03192 0.84756 0.74909 0.0
C185 C 0.0925 0.87372 0.76914 0.0
O186 O 0.04647 0.89995 0.75268 0.0
Co187 Co 0.09572 0.90727 0.72979 0.0
O188 O 0.07779 0.92518 0.75466 0.0
C189 C 0.06571 0.8826 0.6934 0.0
C190 C 0.04578 0.82918 0.74498 0.0
C191 C 0.05598 0.92001 0.75905 0.0
O192 O 0.05442 0.87098 0.70992 0.0
O193 O 0.08321 0.89687 0.69774 0.0
O194 O 0.07294 0.86479 0.77822 0.0
O195 O 0.09242 0.87698 0.74623 0.0
Co196 Co 0.91289 0.36058 0.7509 0.0
O197 O 0.91186 0.3265 0.74714 0.0
O198 O 0.94519 0.34779 0.75176 0.0
C199 C 0.88679 0.36859 0.72135 0.0
O200 O 0.92033 0.39625 0.75401 0.0
Co201 Co 0.86623 0.38768 0.76553 0.0
O202 O 0.88485 0.41555 0.7535 0.0
C203 C 0.89197 0.35829 0.80107 0.0
C204 C 0.93504 0.32694 0.74875 0.0
C205 C 0.90769 0.4155 0.75197 0.0
O206 O 0.91004 0.35675 0.78676 0.0
O207 O 0.87201 0.36803 0.79517 0.0
O208 O 0.90925 0.36489 0.71618 0.0
O209 O 0.88085 0.36527 0.74347 0.0
Co210 Co 0.04911 0.13851 0.73786 0.0
O211 O 0.04642 0.17159 0.72927 0.0
O212 O 0.01853 0.15088 0.7488 0.0
C213 C 0.06315 0.12562 0.70249 0.0
O214 O 0.04582 0.10366 0.74836 0.0
Co215 Co 0.09998 0.11539 0.73823 0.0
O216 O 0.08041 0.08565 0.73773 0.0
C217 C 0.08566 0.14685 0.77795 0.0
C218 C 0.02553 0.17117 0.73948 0.0
C219 C 0.05851 0.08474 0.74441 0.0
O220 O 0.06418 0.14761 0.7695 0.0
O221 O 0.10311 0.13655 0.76712 0.0
O222 O 0.04017 0.12851 0.70536 0.0
O223 O 0.07653 0.13312 0.71981 0.0
Co224 Co 0.7341 0.96564 0.6187 0.0
O225 O 0.73364 0.95313 0.65064 0.0
O226 O 0.7267 0.99114 0.64115 0.0
C227 C 0.7682 0.94723 0.60803 0.0
O228 O 0.734 0.98476 0.58756 0.0
Co229 Co 0.73088 0.93017 0.57576 0.0
O230 O 0.74496 0.95828 0.55915 0.0
C231 C 0.68786 0.94057 0.6046 0.0
C232 C 0.72856 0.97469 0.6577 0.0
C233 C 0.74183 0.97973 0.56647 0.0
O234 O 0.69909 0.95773 0.61521 0.0
O235 O 0.69787 0.92636 0.58954 0.0
O236 O 0.76921 0.96759 0.61935 0.0
O237 O 0.74717 0.93803 0.60531 0.0
Co238 Co 0.25453 0.53463 0.63259 0.0
O239 O 0.25823 0.54532 0.66509 0.0
O240 O 0.25463 0.50729 0.65413 0.0
C241 C 0.22658 0.56229 0.62355 0.0
O242 O 0.24941 0.51725 0.60067 0.0
Co243 Co 0.2654 0.56862 0.58981 0.0
O244 O 0.24292 0.54641 0.57367 0.0
C245 C 0.30537 0.54502 0.61575 0.0
C246 C 0.25677 0.52298 0.67135 0.0
C247 C 0.24165 0.52454 0.58016 0.0
O248 O 0.29048 0.53304 0.62878 0.0
O249 O 0.29886 0.56056 0.60009 0.0
O250 O 0.22025 0.54233 0.63384 0.0
O251 O 0.24928 0.56527 0.62028 0.0
Co252 Co 0.75846 0.04068 0.86298 0.0
O253 O 0.7608 0.04254 0.82887 0.0
O254 O 0.74404 0.01236 0.84893 0.0
C255 C 0.79623 0.05238 0.87009 0.0
O256 O 0.75404 0.03268 0.8983 0.0
Co257 Co 0.76513 0.08702 0.89339 0.0
O258 O 0.7707 0.06299 0.91905 0.0
C259 C 0.71875 0.07796 0.86964 0.0
C260 C 0.74995 0.022 0.82845 0.0
C261 C 0.76212 0.04181 0.91791 0.0
O262 O 0.72649 0.05749 0.86223 0.0
O263 O 0.7318 0.09293 0.88121 0.0
O264 O 0.79191 0.02996 0.86522 0.0
O265 O 0.77824 0.06682 0.86846 0.0
Co266 Co 0.21599 0.44058 0.86769 0.0
O267 O 0.20774 0.44804 0.83525 0.0
O268 O 0.23113 0.47046 0.85849 0.0
C269 C 0.17936 0.42955 0.88004 0.0
O270 O 0.22717 0.43842 0.90242 0.0
Co271 Co 0.21063 0.38769 0.88469 0.0
O272 O 0.2135 0.40317 0.91668 0.0
C273 C 0.25191 0.40086 0.85494 0.0
C274 C 0.22133 0.46676 0.83756 0.0
C275 C 0.2227 0.4239 0.91986 0.0
O276 O 0.24539 0.42294 0.85634 0.0
O277 O 0.2395 0.38356 0.86358 0.0
O278 O 0.18491 0.45223 0.87939 0.0
O279 O 0.19478 0.41516 0.87049 0.0
Co280 Co 0.63408 0.75 0.95114 0.0
O281 O 0.66808 0.7531 0.94761 0.0
O282 O 0.64954 0.7415 0.98098 0.0
C283 C 0.62586 0.78498 0.93303 0.0
O284 O 0.59947 0.74588 0.9618 0.0
Co285 Co 0.60057 0.7484 0.90657 0.0
O286 O 0.57571 0.75595 0.93085 0.0
C287 C 0.62905 0.70563 0.91992 0.0
C288 C 0.66949 0.74651 0.96989 0.0
C289 C 0.57882 0.75116 0.95302 0.0
O290 O 0.63564 0.71571 0.9397 0.0
O291 O 0.61656 0.71632 0.90387 0.0
O292 O 0.63116 0.78483 0.95577 0.0
O293 O 0.62688 0.76465 0.92213 0.0
Co294 Co 0.6227 0.23729 0.54349 0.0
O295 O 0.65555 0.24458 0.5504 0.0
O296 O 0.6399 0.24196 0.51378 0.0
C297 C 0.61987 0.2064 0.56909 0.0
O298 O 0.58983 0.2296 0.52962 0.0
Co299 Co 0.58349 0.24053 0.58285 0.0
O300 O 0.56701 0.2181 0.56068 0.0
C301 C 0.60139 0.28491 0.55983 0.0
C302 C 0.65852 0.24581 0.52734 0.0
C303 C 0.57113 0.21917 0.5382 0.0
O304 O 0.61461 0.27251 0.54547 0.0
O305 O 0.58844 0.2756 0.57642 0.0
O306 O 0.62858 0.20294 0.54771 0.0
O307 O 0.61489 0.22829 0.57474 0.0
Co308 Co 0.36078 0.26356 0.55193 0.0
O309 O 0.32781 0.27283 0.55318 0.0
O310 O 0.34556 0.2557 0.52182 0.0
C311 C 0.37525 0.29739 0.56807 0.0
O312 O 0.39457 0.25265 0.54411 0.0
Co313 Co 0.38955 0.25832 0.59954 0.0
O314 O 0.41712 0.25897 0.57697 0.0
C315 C 0.35527 0.22071 0.58551 0.0
C316 C 0.3262 0.26456 0.53148 0.0
C317 C 0.415 0.2541 0.55468 0.0
O318 O 0.35241 0.23088 0.56496 0.0
O319 O 0.36779 0.22983 0.60249 0.0
O320 O 0.37053 0.29671 0.54522 0.0
O321 O 0.36916 0.27874 0.58032 0.0
Co322 Co 0.86509 0.24643 0.4555 0.0
O323 O 0.83226 0.25345 0.44805 0.0
O324 O 0.84682 0.24825 0.48484 0.0
C325 C 0.86927 0.21784 0.42741 0.0
O326 O 0.8976 0.23835 0.47004 0.0
Co327 Co 0.90579 0.25316 0.41819 0.0
O328 O 0.92164 0.22919 0.43915 0.0
C329 C 0.88485 0.29556 0.44261 0.0
C330 C 0.8285 0.25259 0.47103 0.0
C331 C 0.91662 0.22854 0.46146 0.0
O332 O 0.87222 0.28192 0.45639 0.0
O333 O 0.89841 0.28754 0.42584 0.0
O334 O 0.86013 0.21241 0.44819 0.0
O335 O 0.87419 0.24018 0.42393 0.0
Co336 Co 0.54978 0.87014 0.7519 0.0
O337 O 0.55928 0.8372 0.75102 0.0
O338 O 0.52217 0.84996 0.75774 0.0
C339 C 0.56976 0.88054 0.71853 0.0
O340 O 0.53358 0.90287 0.75306 0.0
Co341 Co 0.58844 0.90987 0.75744 0.0
O342 O 0.56229 0.92943 0.74337 0.0
C343 C 0.5729 0.88242 0.80001 0.0
C344 C 0.53697 0.83205 0.75504 0.0
C345 C 0.54029 0.92386 0.74622 0.0
O346 O 0.55695 0.8716 0.78728 0.0
O347 O 0.588 0.89736 0.79122 0.0
O348 O 0.54852 0.87108 0.71683 0.0
O349 O 0.57872 0.88163 0.73986 0.0
Co350 Co 0.4457 0.63523 0.72975 0.0
O351 O 0.44848 0.66848 0.72199 0.0
O352 O 0.47625 0.64705 0.74102 0.0
C353 C 0.43124 0.62339 0.69419 0.0
O354 O 0.44904 0.60041 0.73972 0.0
Co355 Co 0.39507 0.6116 0.72992 0.0
O356 O 0.41469 0.58183 0.72949 0.0
C357 C 0.40965 0.64187 0.77054 0.0
C358 C 0.46924 0.66765 0.73246 0.0
C359 C 0.43654 0.58134 0.7363 0.0
O360 O 0.43089 0.64349 0.76164 0.0
O361 O 0.39219 0.63155 0.75976 0.0
O362 O 0.45429 0.62597 0.69689 0.0
O363 O 0.41809 0.63031 0.71192 0.0
Co364 Co 0.54778 0.13219 0.75426 0.0
O365 O 0.55246 0.16553 0.7472 0.0
O366 O 0.51703 0.14745 0.74984 0.0
C367 C 0.57398 0.1313 0.78478 0.0
O368 O 0.53585 0.0985 0.76172 0.0
Co369 Co 0.58959 0.09544 0.75118 0.0
O370 O 0.56767 0.07566 0.77094 0.0
C371 C 0.56743 0.11469 0.70674 0.0
C372 C 0.52926 0.167 0.74612 0.0
C373 C 0.54508 0.07918 0.77031 0.0
O374 O 0.55046 0.12461 0.71896 0.0
O375 O 0.58515 0.1037 0.71644 0.0
O376 O 0.55205 0.13822 0.78873 0.0
O377 O 0.5794 0.1264 0.76286 0.0
Co378 Co 0.43875 0.36689 0.74294 0.0
O379 O 0.43511 0.33392 0.73374 0.0
O380 O 0.46908 0.35058 0.74626 0.0
C381 C 0.40545 0.36811 0.76572 0.0
O382 O 0.44923 0.39995 0.75433 0.0
Co383 Co 0.40069 0.40547 0.73027 0.0
O384 O 0.41612 0.42256 0.75733 0.0
C385 C 0.43422 0.38765 0.69283 0.0
C386 C 0.45771 0.33159 0.73883 0.0
C387 C 0.43817 0.41872 0.7619 0.0
O388 O 0.44601 0.37553 0.70859 0.0
O389 O 0.41522 0.39965 0.69781 0.0
O390 O 0.4254 0.35999 0.7747 0.0
O391 O 0.40602 0.3738 0.74328 0.0
Co392 Co 0.75208 0.53583 0.86085 0.0
O393 O 0.75704 0.54619 0.82835 0.0
O394 O 0.75232 0.50834 0.83947 0.0
C395 C 0.72428 0.56396 0.86874 0.0
O396 O 0.745 0.51868 0.89261 0.0
Co397 Co 0.76143 0.5698 0.90411 0.0
O398 O 0.73761 0.5482 0.91903 0.0
C399 C 0.80224 0.5455 0.88012 0.0
C400 C 0.75491 0.52388 0.82218 0.0
C401 C 0.73588 0.52639 0.91241 0.0
O402 O 0.78795 0.53379 0.86615 0.0
O403 O 0.7951 0.56098 0.89555 0.0
O404 O 0.71801 0.54409 0.85827 0.0
O405 O 0.74687 0.5666 0.87285 0.0
Co406 Co 0.28598 0.94371 0.86524 0.0
O407 O 0.29312 0.95073 0.8324 0.0
O408 O 0.27185 0.97426 0.85658 0.0
C409 C 0.32263 0.93094 0.87573 0.0
O410 O 0.27614 0.94209 0.90042 0.0
Co411 Co 0.28989 0.89075 0.88259 0.0
O412 O 0.2889 0.90646 0.9146 0.0
C413 C 0.24776 0.90566 0.85476 0.0
C414 C 0.28054 0.97009 0.83524 0.0
C415 C 0.2805 0.92752 0.91784 0.0
O416 O 0.25533 0.92743 0.85539 0.0
O417 O 0.25978 0.88791 0.86306 0.0
O418 O 0.3181 0.95386 0.87544 0.0
O419 O 0.30606 0.9173 0.86712 0.0
Co420 Co 0.70231 0.44595 0.62486 0.0
O421 O 0.69956 0.44743 0.6591 0.0
O422 O 0.71355 0.47686 0.63615 0.0
C423 C 0.66636 0.42902 0.61872 0.0
O424 O 0.70695 0.45059 0.58889 0.0
Co425 Co 0.70156 0.39628 0.59917 0.0
O426 O 0.69538 0.41654 0.57056 0.0
C427 C 0.74564 0.4126 0.62351 0.0
C428 C 0.70889 0.46866 0.65757 0.0
C429 C 0.70154 0.43857 0.5699 0.0
O430 O 0.73581 0.43304 0.62787 0.0
O431 O 0.73449 0.39511 0.61363 0.0
O432 O 0.66775 0.45223 0.62104 0.0
O433 O 0.68594 0.41725 0.62192 0.0
Co434 Co 0.23696 0.04107 0.63253 0.0
O435 O 0.23421 0.05102 0.66542 0.0
O436 O 0.24052 0.0136 0.65359 0.0
C437 C 0.26178 0.07126 0.62226 0.0
O438 O 0.24198 0.02444 0.60015 0.0
Co439 Co 0.22064 0.07428 0.59082 0.0
O440 O 0.24344 0.054 0.57278 0.0
C441 C 0.18451 0.04719 0.61895 0.0
C442 C 0.23804 0.02882 0.67117 0.0
C443 C 0.24746 0.03244 0.57917 0.0
O444 O 0.20112 0.03627 0.63077 0.0
O445 O 0.18874 0.06344 0.60322 0.0
O446 O 0.27037 0.05189 0.63203 0.0
O447 O 0.23876 0.07218 0.62027 0.0
Co448 Co 0.86722 0.76694 0.56236 0.0
O449 O 0.83391 0.76929 0.57081 0.0
O450 O 0.84772 0.76318 0.53395 0.0
C451 C 0.87691 0.74231 0.59283 0.0
O452 O 0.90016 0.76216 0.54712 0.0
Co453 Co 0.90704 0.78452 0.59718 0.0
O454 O 0.92649 0.76212 0.57763 0.0
C455 C 0.87826 0.81979 0.56993 0.0
C456 C 0.8294 0.76554 0.54827 0.0
C457 C 0.92087 0.75724 0.556 0.0
O458 O 0.86869 0.80276 0.55757 0.0
O459 O 0.89283 0.81604 0.58732 0.0
O460 O 0.86774 0.73355 0.57323 0.0
O461 O 0.87832 0.76538 0.59386 0.0
Co462 Co 0.87801 0.21398 0.96171 0.0
O463 O 0.84686 0.21102 0.94742 0.0
O464 O 0.85414 0.21025 0.98657 0.0
C465 C 0.88909 0.24517 0.93846 0.0
O466 O 0.90741 0.21762 0.98303 0.0
Co467 Co 0.92415 0.20709 0.93165 0.0
O468 O 0.93789 0.22626 0.95819 0.0
C469 C 0.89595 0.16476 0.94651 0.0
C470 C 0.83859 0.20963 0.96914 0.0
C471 C 0.92859 0.22573 0.97908 0.0
O472 O 0.88257 0.17823 0.9597 0.0
O473 O 0.91263 0.17301 0.933 0.0
O474 O 0.87656 0.24882 0.95782 0.0
O475 O 0.89335 0.223 0.93325 0.0
Co476 Co 0.12532 0.25906 0.9637 0.0
O477 O 0.15682 0.2693 0.95413 0.0
O478 O 0.14674 0.25704 0.99071 0.0
C479 C 0.11924 0.23554 0.93144 0.0
O480 O 0.09536 0.24645 0.98031 0.0
Co481 Co 0.08005 0.26935 0.93311 0.0
O482 O 0.0671 0.24224 0.95203 0.0
C483 C 0.10272 0.30841 0.9612 0.0
C484 C 0.16323 0.2647 0.97606 0.0
C485 C 0.07532 0.23785 0.97291 0.0
O486 O 0.11678 0.29329 0.97162 0.0
O487 O 0.08783 0.30249 0.94471 0.0
O488 O 0.13104 0.2273 0.94983 0.0
O489 O 0.11272 0.25771 0.9327 0.0
Co490 Co 0.6338 0.24908 0.03379 0.0
O491 O 0.66788 0.25137 0.03643 0.0
O492 O 0.6485 0.23455 0.00588 0.0
C493 C 0.62652 0.28689 0.04525 0.0
O494 O 0.5988 0.24462 0.02473 0.0
Co495 Co 0.6018 0.25611 0.07904 0.0
O496 O 0.57694 0.26142 0.05417 0.0
C497 C 0.62667 0.20999 0.07157 0.0
C498 C 0.66877 0.2404 0.01593 0.0
C499 C 0.57889 0.25279 0.03305 0.0
O500 O 0.63423 0.21723 0.05094 0.0
O501 O 0.61466 0.22327 0.08599 0.0
O502 O 0.63182 0.28255 0.02292 0.0
O503 O 0.6276 0.26893 0.05975 0.0
Co504 Co 0.45497 0.13686 0.26241 0.0
O505 O 0.45736 0.17067 0.26807 0.0
O506 O 0.4845 0.14871 0.24874 0.0
C507 C 0.44266 0.12708 0.29944 0.0
O508 O 0.45901 0.10167 0.25414 0.0
Co509 Co 0.40571 0.11091 0.26684 0.0
O510 O 0.4263 0.08184 0.26692 0.0
C511 C 0.41636 0.1396 0.22368 0.0
C512 C 0.47754 0.16963 0.25648 0.0
C513 C 0.44769 0.08212 0.25875 0.0
O514 O 0.438 0.14288 0.23106 0.0
O515 O 0.40029 0.12886 0.23613 0.0
O516 O 0.46548 0.1298 0.29533 0.0
O517 O 0.42847 0.13225 0.28196 0.0
Co518 Co 0.55711 0.37047 0.2198 0.0
O519 O 0.56655 0.33742 0.21736 0.0
O520 O 0.52905 0.35027 0.22125 0.0
C521 C 0.58568 0.38009 0.24668 0.0
O522 O 0.54052 0.40271 0.22425 0.0
Co523 Co 0.59145 0.41195 0.20589 0.0
O524 O 0.5694 0.43066 0.22645 0.0
C525 C 0.56678 0.38434 0.16787 0.0
C526 C 0.54394 0.33235 0.21961 0.0
C527 C 0.54778 0.42393 0.22957 0.0
O528 O 0.55458 0.37281 0.18378 0.0
O529 O 0.58303 0.39971 0.17314 0.0
O530 O 0.5657 0.3704 0.25383 0.0
O531 O 0.5882 0.38234 0.22375 0.0
Co532 Co 0.44472 0.87363 0.25049 0.0
O533 O 0.43749 0.84215 0.2623 0.0
O534 O 0.47302 0.8537 0.24842 0.0
C535 C 0.41132 0.87664 0.22807 0.0
O536 O 0.45861 0.9045 0.23669 0.0
Co537 Co 0.41116 0.91691 0.26055 0.0
O538 O 0.42793 0.93005 0.2321 0.0
C539 C 0.44218 0.89737 0.29922 0.0
C540 C 0.45965 0.83687 0.25759 0.0
C541 C 0.44949 0.92378 0.22788 0.0
O542 O 0.45321 0.88387 0.28404 0.0
O543 O 0.42434 0.91074 0.29352 0.0
O544 O 0.43016 0.86587 0.21943 0.0
O545 O 0.41301 0.88401 0.24993 0.0
Co546 Co 0.52254 0.62692 0.26776 0.0
O547 O 0.53196 0.65975 0.27208 0.0
O548 O 0.49431 0.64684 0.27028 0.0
C549 C 0.54817 0.61935 0.23753 0.0
O550 O 0.50603 0.5947 0.2625 0.0
Co551 Co 0.55894 0.58532 0.2752 0.0
O552 O 0.53568 0.56867 0.25423 0.0
C553 C 0.53766 0.60968 0.31733 0.0
C554 C 0.50922 0.6647 0.27237 0.0
C555 C 0.51366 0.57475 0.25382 0.0
O556 O 0.52368 0.62204 0.30367 0.0
O557 O 0.55346 0.59502 0.30935 0.0
O558 O 0.5276 0.6294 0.23309 0.0
O559 O 0.55318 0.61589 0.25987 0.0
Co560 Co 0.27859 0.4374 0.1419 0.0
O561 O 0.28537 0.44325 0.17501 0.0
O562 O 0.26584 0.46842 0.15103 0.0
C563 C 0.31484 0.42342 0.13156 0.0
O564 O 0.26963 0.43717 0.10647 0.0
Co565 Co 0.28037 0.38473 0.1235 0.0
O566 O 0.28165 0.4014 0.09199 0.0
C567 C 0.23847 0.40087 0.15092 0.0
C568 C 0.27408 0.4634 0.17235 0.0
C569 C 0.27439 0.4229 0.0889 0.0
O570 O 0.24698 0.42231 0.15073 0.0
O571 O 0.24987 0.38275 0.14256 0.0
O572 O 0.31126 0.44647 0.13264 0.0
O573 O 0.29763 0.4102 0.13963 0.0
Co574 Co 0.74783 0.04746 0.13193 0.0
O575 O 0.75604 0.04946 0.16526 0.0
O576 O 0.75398 0.01566 0.14417 0.0
C577 C 0.71627 0.07235 0.13408 0.0
O578 O 0.73948 0.03836 0.0976 0.0
Co579 Co 0.74818 0.09241 0.0989 0.0
O580 O 0.72823 0.07168 0.07804 0.0
C581 C 0.794 0.06962 0.1135 0.0
C582 C 0.75815 0.02628 0.16455 0.0
C583 C 0.7298 0.04892 0.0795 0.0
O584 O 0.78266 0.052 0.12329 0.0
O585 O 0.78345 0.08779 0.10414 0.0
O586 O 0.71352 0.0498 0.13944 0.0
O587 O 0.7378 0.07913 0.12919 0.0
Co588 Co 0.24903 0.55307 0.37067 0.0
O589 O 0.24797 0.5608 0.33717 0.0
O590 O 0.24546 0.52397 0.35195 0.0
C591 C 0.28036 0.57732 0.37798 0.0
O592 O 0.25042 0.53833 0.40418 0.0
Co593 Co 0.24158 0.5927 0.40904 0.0
O594 O 0.25587 0.56835 0.43053 0.0
C595 C 0.20038 0.57463 0.38102 0.0
C596 C 0.24613 0.53797 0.33321 0.0
C597 C 0.25542 0.54608 0.42537 0.0
O598 O 0.21322 0.55723 0.37284 0.0
O599 O 0.20888 0.59149 0.39413 0.0
O600 O 0.28413 0.55564 0.37023 0.0
O601 O 0.25826 0.58375 0.38001 0.0
Co602 Co 0.76895 0.94108 0.36603 0.0
O603 O 0.77739 0.93346 0.33336 0.0
O604 O 0.7652 0.96913 0.34637 0.0
C605 C 0.74618 0.90826 0.37204 0.0
O606 O 0.75788 0.95603 0.39741 0.0
Co607 Co 0.78208 0.90863 0.40926 0.0
O608 O 0.75678 0.9274 0.42561 0.0
C609 C 0.81932 0.93911 0.38652 0.0
C610 C 0.77197 0.95564 0.32858 0.0
C611 C 0.75149 0.94835 0.41817 0.0
O612 O 0.80349 0.94924 0.37304 0.0
O613 O 0.81445 0.92198 0.40108 0.0
O614 O 0.73712 0.92702 0.36151 0.0
O615 O 0.76869 0.90947 0.37725 0.0
Co616 Co 0.12589 0.25997 0.44008 0.0
O617 O 0.15885 0.26835 0.43569 0.0
O618 O 0.14325 0.25385 0.46941 0.0
C619 C 0.1106 0.29291 0.4229 0.0
O620 O 0.09259 0.25044 0.45121 0.0
Co621 Co 0.0937 0.25185 0.39524 0.0
O622 O 0.06803 0.25585 0.41964 0.0
C623 C 0.12839 0.21472 0.40935 0.0
C624 C 0.16199 0.26151 0.45772 0.0
C625 C 0.07154 0.25243 0.44203 0.0
O626 O 0.13277 0.22633 0.42882 0.0
O627 O 0.11473 0.22274 0.39269 0.0
O628 O 0.11723 0.29362 0.44528 0.0
O629 O 0.11554 0.27344 0.41139 0.0
Co630 Co 0.12752 0.7593 0.02318 0.0
O631 O 0.16001 0.76718 0.03086 0.0
O632 O 0.14534 0.76449 0.99386 0.0
C633 C 0.12536 0.72825 0.04872 0.0
O634 O 0.09503 0.75105 0.00867 0.0
Co635 Co 0.08757 0.761 0.06188 0.0
O636 O 0.07271 0.73783 0.03938 0.0
C637 C 0.10548 0.80615 0.04022 0.0
C638 C 0.16358 0.76848 0.0079 0.0
C639 C 0.07685 0.73954 0.01696 0.0
O640 O 0.1187 0.79429 0.0254 0.0
O641 O 0.09264 0.79621 0.05652 0.0
O642 O 0.13423 0.72507 0.02736 0.0
O643 O 0.11948 0.74993 0.05425 0.0
Co644 Co 0.86853 0.74584 0.06397 0.0
O645 O 0.83468 0.74781 0.06994 0.0
O646 O 0.85156 0.7445 0.0339 0.0
C647 C 0.8786 0.77531 0.08953 0.0
O648 O 0.90231 0.74436 0.05062 0.0
Co649 Co 0.90439 0.73276 0.10469 0.0
O650 O 0.92862 0.74393 0.08115 0.0
C651 C 0.87328 0.69551 0.08364 0.0
C652 C 0.83217 0.74613 0.04683 0.0
C653 C 0.92378 0.74559 0.05884 0.0
O654 O 0.86713 0.70992 0.06668 0.0
O655 O 0.88625 0.70182 0.10153 0.0
O656 O 0.87164 0.7807 0.06787 0.0
O657 O 0.87778 0.75291 0.09517 0.0
Co658 Co 0.3755 0.75581 0.95555 0.0
O659 O 0.34466 0.76663 0.94491 0.0
O660 O 0.35336 0.75548 0.9822 0.0
C661 C 0.38126 0.73103 0.92424 0.0
O662 O 0.40513 0.74323 0.97288 0.0
Co663 Co 0.4212 0.76406 0.92503 0.0
O664 O 0.43252 0.73639 0.94428 0.0
C665 C 0.39917 0.80455 0.95158 0.0
C666 C 0.33758 0.76326 0.96683 0.0
C667 C 0.42466 0.73341 0.96554 0.0
O668 O 0.38477 0.79004 0.96236 0.0
O669 O 0.41411 0.79782 0.93542 0.0
O670 O 0.3691 0.72373 0.9428 0.0
O671 O 0.38837 0.75304 0.92481 0.0
C672 C 0.99646 0.19939 0.24276 0.0
C673 C 0.9739 0.19413 0.25241 0.0
C674 C 0.00634 0.22241 0.24528 0.0
C675 C 0.99362 0.24008 0.25846 0.0
C676 C 0.97157 0.2342 0.26961 0.0
C677 C 0.96173 0.21137 0.26603 0.0
C678 C 0.0296 0.22823 0.23265 0.0
C679 C 0.95791 0.25229 0.2845 0.0
C680 C 0.0274 0.29657 0.27576 0.0
C681 C 0.01899 0.31279 0.25849 0.0
C682 C 0.01887 0.2729 0.27639 0.0
C683 C 0.00224 0.26523 0.2588 0.0
C684 C 0.99374 0.28163 0.24131 0.0
C685 C 0.00194 0.30538 0.24163 0.0
C686 C 0.02764 0.25614 0.29581 0.0
C687 C 0.97638 0.27395 0.22193 0.0
H688 H 0.00569 0.18597 0.2321 0.0
H689 H 0.94434 0.20705 0.27366 0.0
H690 H 0.02622 0.24169 0.21835 0.0
H691 H 0.0426 0.23627 0.24539 0.0
H692 H 0.03793 0.21212 0.22434 0.0
H693 H 0.94283 0.24391 0.29452 0.0
H694 H 0.97006 0.26118 0.29753 0.0
H695 H 0.95048 0.26646 0.27264 0.0
H696 H 0.0405 0.30247 0.28889 0.0
H697 H 0.99565 0.31795 0.22816 0.0
H698 H 0.03773 0.24103 0.28767 0.0
H699 H 0.01214 0.24831 0.30558 0.0
H700 H 0.03948 0.26534 0.30896 0.0
H701 H 0.98402 0.25869 0.21164 0.0
H702 H 0.97218 0.28873 0.20921 0.0
H703 H 0.95938 0.26765 0.23015 0.0
C704 C 0.01824 0.7039 0.22454 0.0
C705 C 0.0407 0.696 0.23255 0.0
C706 C 0.01109 0.72782 0.22792 0.0
C707 C 0.0266 0.74392 0.24005 0.0
C708 C 0.04958 0.73618 0.24748 0.0
C709 C 0.05644 0.71236 0.24342 0.0
C710 C 0.98659 0.73563 0.21937 0.0
C711 C 0.06641 0.75266 0.26091 0.0
C712 C 0.01299 0.81075 0.23952 0.0
C713 C -0.00045 0.81306 0.26065 0.0
C714 C 0.02201 0.78828 0.23247 0.0
C715 C 0.01786 0.768 0.24724 0.0
C716 C 0.00511 0.77056 0.26908 0.0
C717 C 0.99587 0.79303 0.27536 0.0
C718 C 0.03517 0.78606 0.20888 0.0
C719 C 0.00081 0.74947 0.28562 0.0
H720 H 0.00613 0.69132 0.21596 0.0
H721 H 0.07384 0.70632 0.2497 0.0
H722 H 0.97481 0.73905 0.23508 0.0
H723 H 0.98793 0.75265 0.20911 0.0
H724 H 0.97792 0.72186 0.20785 0.0
H725 H 0.08435 0.74444 0.26377 0.0
H726 H 0.06875 0.76978 0.25102 0.0
H727 H 0.05859 0.7571 0.2787 0.0
H728 H 0.01548 0.82624 0.228 0.0
H729 H 0.98548 0.7949 0.29173 0.0
H730 H 0.02503 0.77404 0.19666 0.0
H731 H 0.05307 0.77781 0.21172 0.0
H732 H 0.0376 0.8037 0.19988 0.0
H733 H 0.98963 0.73584 0.27639 0.0
H734 H 0.99163 0.75481 0.30251 0.0
H735 H 0.01812 0.74078 0.29028 0.0
C736 C 0.21071 0.98498 0.20768 0.0
C737 C 0.22679 0.98315 0.18845 0.0
C738 C 0.21791 0.99478 0.22968 0.0
C739 C 0.24199 0.00231 0.23269 0.0
C740 C 0.25812 0.00124 0.21304 0.0
C741 C 0.25021 0.99189 0.19097 0.0
C742 C 0.19997 0.99622 0.24998 0.0
C743 C 0.28401 0.00872 0.21569 0.0
C744 C 0.25398 0.04203 0.2866 0.0
C745 C 0.26032 0.02509 0.30416 0.0
C746 C 0.24869 0.03497 0.26303 0.0
C747 C 0.25026 0.01044 0.25673 0.0
C748 C 0.25782 0.9934 0.27407 0.0
C749 C 0.26251 0.0009 0.29771 0.0
C750 C 0.24025 0.05361 0.24522 0.0
C751 C 0.26017 0.96713 0.26786 0.0
H752 H 0.19261 0.97812 0.20568 0.0
H753 H 0.26276 0.99003 0.17619 0.0
H754 H 0.20534 0.9838 0.2646 0.0
H755 H 0.19964 0.01461 0.25762 0.0
H756 H 0.18153 0.99143 0.24411 0.0
H757 H 0.29379 0.00836 0.1983 0.0
H758 H 0.28521 0.02706 0.22335 0.0
H759 H 0.29319 0.99641 0.22839 0.0
H760 H 0.25215 0.06077 0.2915 0.0
H761 H 0.26755 0.9878 0.31119 0.0
H762 H 0.22123 0.05012 0.24046 0.0
H763 H 0.25085 0.05248 0.2284 0.0
H764 H 0.24166 0.07214 0.25244 0.0
H765 H 0.24216 0.9595 0.26413 0.0
H766 H 0.26855 0.95662 0.2826 0.0
H767 H 0.27111 0.96488 0.25135 0.0
C768 C 0.74371 0.53926 0.2025 0.0
C769 C 0.73146 0.52429 0.18635 0.0
C770 C 0.74982 0.53131 0.22555 0.0
C771 C 0.7431 0.50796 0.23285 0.0
C772 C 0.73003 0.493 0.21694 0.0
C773 C 0.72458 0.50126 0.1937 0.0
C774 C 0.76418 0.54761 0.24179 0.0
C775 C 0.72219 0.46813 0.22433 0.0
C776 C 0.77981 0.47674 0.28086 0.0
C777 C 0.76556 0.48014 0.30131 0.0
C778 C 0.77292 0.48615 0.25857 0.0
C779 C 0.75097 0.4988 0.25663 0.0
C780 C 0.73674 0.50273 0.27735 0.0
C781 C 0.74437 0.49355 0.29957 0.0
C782 C 0.78889 0.48211 0.23701 0.0
C783 C 0.71307 0.51583 0.27587 0.0
H784 H 0.74923 0.55705 0.19689 0.0
H785 H 0.71502 0.48971 0.1813 0.0
H786 H 0.75479 0.55005 0.25918 0.0
H787 H 0.78184 0.53928 0.24573 0.0
H788 H 0.76731 0.56555 0.23366 0.0
H789 H 0.71064 0.45947 0.21057 0.0
H790 H 0.73817 0.45665 0.22731 0.0
H791 H 0.71217 0.46892 0.24154 0.0
H792 H 0.79618 0.4663 0.28222 0.0
H793 H 0.73313 0.4958 0.31532 0.0
H794 H 0.79328 0.49952 0.22839 0.0
H795 H 0.77933 0.47106 0.22349 0.0
H796 H 0.80591 0.47291 0.24183 0.0
H797 H 0.71569 0.53392 0.26797 0.0
H798 H 0.7044 0.51785 0.29374 0.0
H799 H 0.70067 0.5059 0.26386 0.0
C800 C 0.29579 0.28104 0.02791 0.0
C801 C 0.31131 0.26488 0.01649 0.0
C802 C 0.27191 0.2834 0.02045 0.0
C803 C 0.26329 0.26872 0.00159 0.0
C804 C 0.27913 0.2529 0.98952 0.0
C805 C 0.30312 0.2514 0.99695 0.0
C806 C 0.25572 0.30096 0.03328 0.0
C807 C 0.27045 0.23668 0.9696 0.0
C808 C 0.19722 0.25287 0.0024 0.0
C809 C 0.18842 0.26695 0.98355 0.0
C810 C 0.22162 0.25329 0.00843 0.0
C811 C 0.23736 0.26865 0.99568 0.0
C812 C 0.22838 0.28353 0.97716 0.0
C813 C 0.204 0.28227 0.97108 0.0
C814 C 0.23065 0.23685 0.02804 0.0
C815 C 0.24455 0.3006 0.96365 0.0
H816 H 0.30227 0.29166 0.04288 0.0
H817 H 0.31516 0.23882 0.98823 0.0
H818 H 0.24595 0.31227 0.0201 0.0
H819 H 0.24208 0.29101 0.04385 0.0
H820 H 0.26584 0.31287 0.04567 0.0
H821 H 0.2853 0.2263 0.96127 0.0
H822 H 0.25703 0.22386 0.97685 0.0
H823 H 0.26141 0.24735 0.95543 0.0
H824 H 0.18518 0.24089 0.01191 0.0
H825 H 0.19711 0.29329 0.95659 0.0
H826 H 0.23917 0.24753 0.04252 0.0
H827 H 0.24456 0.22462 0.0207 0.0
H828 H 0.21607 0.22585 0.03604 0.0
H829 H 0.2541 0.3125 0.97645 0.0
H830 H 0.23446 0.31192 0.95069 0.0
H831 H 0.25839 0.29034 0.95366 0.0
C832 C 0.29138 0.77936 0.46775 0.0
C833 C 0.31104 0.76453 0.4728 0.0
C834 C 0.26903 0.77526 0.4784 0.0
C835 C 0.26614 0.75549 0.49408 0.0
C836 C 0.28594 0.7404 0.49928 0.0
C837 C 0.30835 0.74529 0.48875 0.0
C838 C 0.24853 0.79216 0.47289 0.0
C839 C 0.28334 0.71894 0.51561 0.0
C840 C 0.21435 0.76096 0.53753 0.0
C841 C 0.19599 0.74884 0.52529 0.0
C842 C 0.23747 0.7626 0.5279 0.0
C843 C 0.24251 0.75144 0.50567 0.0
C844 C 0.22432 0.73835 0.49363 0.0
C845 C 0.20111 0.73743 0.50348 0.0
C846 C 0.25618 0.77722 0.54101 0.0
C847 C 0.22924 0.72587 0.47008 0.0
H848 H 0.29351 0.79428 0.45542 0.0
H849 H 0.32351 0.73363 0.49233 0.0
H850 H 0.23351 0.78213 0.46453 0.0
H851 H 0.24163 0.8002 0.48977 0.0
H852 H 0.25392 0.80689 0.46058 0.0
H853 H 0.30034 0.70867 0.51738 0.0
H854 H 0.27753 0.72482 0.53374 0.0
H855 H 0.26923 0.70678 0.50857 0.0
H856 H 0.21048 0.76991 0.55439 0.0
H857 H 0.18699 0.72787 0.49411 0.0
H858 H 0.26124 0.79302 0.52997 0.0
H859 H 0.27267 0.76644 0.54382 0.0
H860 H 0.24972 0.78369 0.55874 0.0
H861 H 0.23262 0.73942 0.45588 0.0
H862 H 0.214 0.71437 0.46433 0.0
H863 H 0.24559 0.71459 0.47153 0.0
C864 C 0.79903 0.76391 0.51533 0.0
C865 C 0.80451 0.76256 0.53982 0.0
C866 C 0.77564 0.7595 0.50712 0.0
C867 C 0.75754 0.75306 0.52381 0.0
C868 C 0.76287 0.75221 0.54862 0.0
C869 C 0.78626 0.75722 0.55635 0.0
C870 C 0.77047 0.76104 0.48054 0.0
C871 C 0.74415 0.74498 0.56687 0.0
C872 C 0.69312 0.75522 0.50175 0.0
C873 C 0.69019 0.73175 0.49326 0.0
C874 C 0.7148 0.76238 0.5124 0.0
C875 C 0.73358 0.74544 0.51503 0.0
C876 C 0.73 0.72132 0.5079 0.0
C877 C 0.70843 0.71485 0.49678 0.0
C878 C 0.71813 0.78833 0.51941 0.0
C879 C 0.74936 0.70259 0.51098 0.0
H880 H 0.81307 0.76822 0.50255 0.0
H881 H 0.79046 0.75605 0.57533 0.0
H882 H 0.76621 0.74292 0.47348 0.0
H883 H 0.75457 0.77258 0.47729 0.0
H884 H 0.7859 0.76836 0.47025 0.0
H885 H 0.75077 0.74672 0.58561 0.0
H886 H 0.72779 0.75613 0.56482 0.0
H887 H 0.73883 0.72604 0.56378 0.0
H888 H 0.6791 0.76836 0.49864 0.0
H889 H 0.70608 0.69668 0.49019 0.0
H890 H 0.73152 0.79678 0.50731 0.0
H891 H 0.72521 0.78971 0.53797 0.0
H892 H 0.70113 0.79869 0.51825 0.0
H893 H 0.7647 0.70678 0.49898 0.0
H894 H 0.74285 0.68423 0.50669 0.0
H895 H 0.7562 0.70271 0.52969 0.0
C896 C 0.05385 0.78567 0.75107 0.0
C897 C 0.03723 0.80417 0.74702 0.0
C898 C 0.04626 0.76201 0.75502 0.0
C899 C 0.02148 0.75662 0.75435 0.0
C900 C 0.00467 0.77504 0.74924 0.0
C901 C 0.01274 0.79871 0.74595 0.0
C902 C 0.06468 0.74302 0.76094 0.0
C903 C 0.97811 0.76985 0.74784 0.0
C904 C 0.00078 0.69176 0.74915 0.0
C905 C 0.99293 0.68731 0.77262 0.0
C906 C 0.01054 0.71417 0.74291 0.0
C907 C 0.01298 0.73215 0.76076 0.0
C908 C 0.00638 0.72708 0.78479 0.0
C909 C 0.99605 0.70484 0.79034 0.0
C910 C 0.01687 0.71909 0.71701 0.0
C911 C 0.00932 0.74549 0.80449 0.0
H912 H 0.07283 0.78983 0.75205 0.0
H913 H -0.00011 0.81294 0.74265 0.0
H914 H 0.06175 0.73646 0.77954 0.0
H915 H 0.06268 0.72739 0.74878 0.0
H916 H 0.08335 0.74987 0.75949 0.0
H917 H 0.96767 0.78561 0.74151 0.0
H918 H 0.97475 0.75457 0.73551 0.0
H919 H 0.97134 0.76458 0.76583 0.0
H920 H -0.00217 0.67832 0.73537 0.0
H921 H 0.98978 0.70136 0.80845 0.0
H922 H 0.03538 0.72628 0.7156 0.0
H923 H 0.00458 0.73295 0.70969 0.0
H924 H 0.01547 0.70274 0.70566 0.0
H925 H 0.0279 0.75264 0.80452 0.0
H926 H 0.00535 0.73795 0.82254 0.0
H927 H 0.99704 0.76082 0.80124 0.0
C928 C 0.9945 0.19687 0.75925 0.0
C929 C 0.01109 0.19325 0.74073 0.0
C930 C 0.9823 0.21884 0.76142 0.0
C931 C 0.98649 0.23721 0.74431 0.0
C932 C 0.00284 0.23335 0.72528 0.0
C933 C 0.01512 0.2115 0.72387 0.0
C934 C 0.9652 0.22253 0.78214 0.0
C935 C 0.00732 0.25227 0.70634 0.0
C936 C 0.93865 0.2846 0.73556 0.0
C937 C 0.94878 0.30442 0.74728 0.0
C938 C 0.95077 0.26263 0.73446 0.0
C939 C 0.97333 0.26031 0.74583 0.0
C940 C 0.98361 0.28023 0.75785 0.0
C941 C 0.9713 0.30223 0.75818 0.0
C942 C 0.93954 0.242 0.7209 0.0
C943 C 0.0075 0.27823 0.77047 0.0
H944 H 0.99159 0.18284 0.77242 0.0
H945 H 0.02789 0.20865 0.70944 0.0
H946 H 0.97079 0.23841 0.79278 0.0
H947 H 0.94689 0.2262 0.77527 0.0
H948 H 0.96442 0.20668 0.79423 0.0
H949 H 0.02031 0.24621 0.69247 0.0
H950 H 0.99021 0.25707 0.69735 0.0
H951 H 0.01438 0.26884 0.71483 0.0
H952 H 0.92127 0.28634 0.72698 0.0
H953 H 0.979 0.31752 0.76743 0.0
H954 H 0.93691 0.22647 0.73308 0.0
H955 H 0.95171 0.23607 0.70628 0.0
H956 H 0.92193 0.24687 0.71292 0.0
H957 H 0.00691 0.26347 0.78384 0.0
H958 H 0.01257 0.29511 0.77979 0.0
H959 H 0.02176 0.27371 0.75731 0.0
C960 C 0.72153 0.00256 0.79993 0.0
C961 C 0.74463 0.01078 0.80529 0.0
C962 C 0.7156 0.99566 0.77639 0.0
C963 C 0.73344 0.99656 0.75825 0.0
C964 C 0.75708 0.0038 0.76403 0.0
C965 C 0.76227 0.01118 0.78744 0.0
C966 C 0.69013 0.98845 0.7707 0.0
C967 C 0.77678 0.00437 0.74538 0.0
C968 C 0.73025 0.96161 0.70035 0.0
C969 C 0.72629 0.97999 0.68356 0.0
C970 C 0.73112 0.96649 0.72498 0.0
C971 C 0.72771 0.9903 0.73302 0.0
C972 C 0.7221 0.00866 0.71632 0.0
C973 C 0.72158 0.0033 0.69169 0.0
C974 C 0.73738 0.94647 0.74218 0.0
C975 C 0.71799 0.03421 0.72436 0.0
H976 H 0.70786 0.00274 0.8138 0.0
H977 H 0.78012 0.01763 0.79176 0.0
H978 H 0.68205 0.0018 0.75833 0.0
H979 H 0.68981 0.97085 0.76139 0.0
H980 H 0.6788 0.98727 0.78709 0.0
H981 H 0.79448 0.00917 0.7532 0.0
H982 H 0.77839 0.98659 0.73653 0.0
H983 H 0.77233 0.01767 0.73124 0.0
H984 H 0.73368 0.94346 0.69422 0.0
H985 H 0.71826 0.0175 0.6788 0.0
H986 H 0.72507 0.94652 0.75783 0.0
H987 H 0.75583 0.94926 0.74913 0.0
H988 H 0.73658 0.92855 0.73346 0.0
H989 H 0.70551 0.03472 0.73988 0.0
H990 H 0.71056 0.04556 0.70973 0.0
H991 H 0.73525 0.04215 0.73032 0.0
C992 C 0.25148 0.48731 0.8118 0.0
C993 C 0.2276 0.48081 0.81613 0.0
C994 C 0.25863 0.4955 0.78901 0.0
C995 C 0.24131 0.49764 0.7705 0.0
C996 C 0.21691 0.49251 0.77538 0.0
C997 C 0.21042 0.48385 0.79807 0.0
C998 C 0.28485 0.50045 0.78436 0.0
C999 C 0.1978 0.49511 0.75632 0.0
C1000 C 0.25233 0.53435 0.71436 0.0
C1001 C 0.25568 0.51635 0.69703 0.0
C1002 C 0.24858 0.52858 0.73856 0.0
C1003 C 0.24857 0.50423 0.74568 0.0
C1004 C 0.25322 0.48603 0.7285 0.0
C1005 C 0.25651 0.4923 0.70428 0.0
C1006 C 0.24334 0.54846 0.75625 0.0
C1007 C 0.25379 0.45986 0.73555 0.0
H1008 H 0.26483 0.48444 0.82567 0.0
H1009 H 0.19197 0.47867 0.80149 0.0
H1010 H 0.29205 0.48676 0.7718 0.0
H1011 H 0.28718 0.51822 0.77569 0.0
H1012 H 0.29566 0.49998 0.80112 0.0
H1013 H 0.17945 0.49225 0.76361 0.0
H1014 H 0.19863 0.51325 0.74813 0.0
H1015 H 0.20096 0.48186 0.74179 0.0
H1016 H 0.25165 0.55301 0.7089 0.0
H1017 H 0.25927 0.47836 0.69098 0.0
H1018 H 0.25498 0.54675 0.77232 0.0
H1019 H 0.22447 0.54705 0.76246 0.0
H1020 H 0.24605 0.56655 0.74829 0.0
H1021 H 0.26568 0.45719 0.7513 0.0
H1022 H 0.26013 0.4482 0.72065 0.0
H1023 H 0.23552 0.45398 0.74084 0.0
C1024 C 0.71101 0.76145 0.97461 0.0
C1025 C 0.69287 0.74572 0.98201 0.0
C1026 C 0.73352 0.76127 0.98569 0.0
C1027 C 0.73816 0.74441 0.0041 0.0
C1028 C 0.71997 0.72824 0.01147 0.0
C1029 C 0.6973 0.72936 0.00055 0.0
C1030 C 0.75224 0.77926 0.97783 0.0
C1031 C 0.72458 0.70961 0.03062 0.0
C1032 C 0.80408 0.73205 0.01515 0.0
C1033 C 0.80821 0.74554 0.03593 0.0
C1034 C 0.78107 0.73077 0.00508 0.0
C1035 C 0.76209 0.74396 0.01566 0.0
C1036 C 0.76627 0.75774 0.03659 0.0
C1037 C 0.78927 0.75803 0.04673 0.0
C1038 C 0.77707 0.71538 0.98311 0.0
C1039 C 0.74665 0.77264 0.04791 0.0
H1040 H 0.70744 0.77426 0.96037 0.0
H1041 H 0.68324 0.71709 0.00609 0.0
H1042 H 0.75833 0.78997 0.99348 0.0
H1043 H 0.76817 0.76978 0.97057 0.0
H1044 H 0.74539 0.79173 0.96385 0.0
H1045 H 0.70876 0.69788 0.03373 0.0
H1046 H 0.74006 0.69821 0.02537 0.0
H1047 H 0.72936 0.7185 0.04778 0.0
H1048 H 0.81875 0.72213 0.00705 0.0
H1049 H 0.79258 0.76851 0.0628 0.0
H1050 H 0.77205 0.72685 0.96763 0.0
H1051 H 0.76199 0.70276 0.98628 0.0
H1052 H 0.79329 0.70486 0.97819 0.0
H1053 H 0.73998 0.78606 0.03478 0.0
H1054 H 0.75287 0.78227 0.06424 0.0
H1055 H 0.73123 0.76107 0.05287 0.0
C1056 C 0.69791 0.26631 0.52919 0.0
C1057 C 0.6824 0.2505 0.51734 0.0
C1058 C 0.72165 0.26922 0.52146 0.0
C1059 C 0.73017 0.25528 0.502 0.0
C1060 C 0.71437 0.23963 0.48967 0.0
C1061 C 0.69045 0.23775 0.49727 0.0
C1062 C 0.73774 0.28672 0.53447 0.0
C1063 C 0.72301 0.22403 0.46923 0.0
C1064 C 0.78775 0.27041 0.46918 0.0
C1065 C 0.80412 0.25515 0.48061 0.0
C1066 C 0.76375 0.27141 0.47663 0.0
C1067 C 0.75591 0.2561 0.49533 0.0
C1068 C 0.77252 0.24091 0.50716 0.0
C1069 C 0.79661 0.24093 0.49989 0.0
C1070 C 0.74673 0.28847 0.46422 0.0
C1071 C 0.76468 0.22392 0.52679 0.0
H1072 H 0.69149 0.27627 0.54465 0.0
H1073 H 0.67839 0.22536 0.48833 0.0
H1074 H 0.75185 0.27679 0.54439 0.0
H1075 H 0.74692 0.29865 0.52141 0.0
H1076 H 0.72765 0.298 0.54747 0.0
H1077 H 0.70832 0.21316 0.46128 0.0
H1078 H 0.73107 0.23526 0.4549 0.0
H1079 H 0.73721 0.21169 0.47578 0.0
H1080 H 0.79372 0.28151 0.45432 0.0
H1081 H 0.80932 0.22897 0.50851 0.0
H1082 H 0.73695 0.29943 0.47769 0.0
H1083 H 0.73313 0.27816 0.45398 0.0
H1084 H 0.75618 0.30071 0.45161 0.0
H1085 H 0.75619 0.23405 0.54168 0.0
H1086 H 0.77987 0.21332 0.53417 0.0
H1087 H 0.75101 0.2113 0.51967 0.0
C1088 C 0.20426 0.27555 0.45757 0.0
C1089 C 0.1861 0.26196 0.46846 0.0
C1090 C 0.22752 0.27589 0.46699 0.0
C1091 C 0.23277 0.26199 0.48757 0.0
C1092 C 0.21457 0.24803 0.49853 0.0
C1093 C 0.19131 0.24834 0.48894 0.0
C1094 C 0.24638 0.29135 0.45511 0.0
C1095 C 0.2197 0.23279 0.52038 0.0
C1096 C 0.29811 0.24815 0.5007 0.0
C1097 C 0.30295 0.26463 0.51904 0.0
C1098 C 0.27521 0.24694 0.49031 0.0
C1099 C 0.25708 0.26293 0.49822 0.0
C1100 C 0.26214 0.28002 0.51628 0.0
C1101 C 0.28499 0.28051 0.52663 0.0
C1102 C 0.27026 0.22832 0.47125 0.0
C1103 C 0.2434 0.29769 0.52479 0.0
H1104 H 0.20023 0.28617 0.44175 0.0
H1105 H 0.17732 0.23765 0.49722 0.0
H1106 H 0.25314 0.30487 0.46808 0.0
H1107 H 0.2619 0.28018 0.44959 0.0
H1108 H 0.23938 0.30089 0.43905 0.0
H1109 H 0.20383 0.22216 0.52609 0.0
H1110 H 0.23473 0.22029 0.51657 0.0
H1111 H 0.22534 0.24439 0.53555 0.0
H1112 H 0.31198 0.23574 0.495 0.0
H1113 H 0.28879 0.29337 0.54074 0.0
H1114 H 0.26417 0.23715 0.45447 0.0
H1115 H 0.25556 0.21629 0.47726 0.0
H1116 H 0.28631 0.21722 0.46715 0.0
H1117 H 0.23654 0.30829 0.50937 0.0
H1118 H 0.25051 0.3103 0.53851 0.0
H1119 H 0.22792 0.28792 0.53262 0.0
C1120 C 0.54394 0.78921 0.74499 0.0
C1121 C 0.52894 0.80687 0.75487 0.0
C1122 C 0.53613 0.76548 0.74256 0.0
C1123 C 0.51292 0.7592 0.75062 0.0
C1124 C 0.4981 0.77668 0.76167 0.0
C1125 C 0.50621 0.80046 0.76344 0.0
C1126 C 0.55223 0.74746 0.73023 0.0
C1127 C 0.47338 0.77044 0.77086 0.0
C1128 C 0.48004 0.70871 0.71958 0.0
C1129 C 0.48297 0.68984 0.73592 0.0
C1130 C 0.49028 0.73119 0.72391 0.0
C1131 C 0.50331 0.73498 0.74538 0.0
C1132 C 0.50683 0.71581 0.76171 0.0
C1133 C 0.49678 0.69327 0.75663 0.0
C1134 C 0.48667 0.75103 0.70575 0.0
C1135 C 0.52036 0.71937 0.78492 0.0
H1136 H 0.56154 0.7941 0.73827 0.0
H1137 H 0.49468 0.81406 0.77125 0.0
H1138 H 0.55408 0.73104 0.74134 0.0
H1139 H 0.54408 0.742 0.71289 0.0
H1140 H 0.57042 0.75479 0.72661 0.0
H1141 H 0.4652 0.78538 0.78123 0.0
H1142 H 0.46145 0.76614 0.7555 0.0
H1143 H 0.4742 0.75427 0.78248 0.0
H1144 H 0.46938 0.70596 0.70352 0.0
H1145 H 0.49874 0.6787 0.7694 0.0
H1146 H 0.50424 0.75868 0.70035 0.0
H1147 H 0.47602 0.76577 0.7139 0.0
H1148 H 0.4772 0.7447 0.68938 0.0
H1149 H 0.53849 0.72673 0.78126 0.0
H1150 H 0.52229 0.70241 0.79523 0.0
H1151 H 0.51079 0.73266 0.79627 0.0
C1152 C 0.48775 0.30187 0.75317 0.0
C1153 C 0.46945 0.30804 0.73714 0.0
C1154 C 0.49729 0.27858 0.75338 0.0
C1155 C 0.48877 0.26144 0.73664 0.0
C1156 C 0.47101 0.26797 0.71971 0.0
C1157 C 0.46126 0.29114 0.72042 0.0
C1158 C 0.51587 0.2721 0.77203 0.0
C1159 C 0.46208 0.2504 0.7011 0.0
C1160 C 0.52913 0.20751 0.72765 0.0
C1161 C 0.51759 0.19021 0.74177 0.0
C1162 C 0.51938 0.23053 0.72495 0.0
C1163 C 0.49803 0.2365 0.73735 0.0
C1164 C 0.48606 0.2189 0.75129 0.0
C1165 C 0.49584 0.19576 0.75302 0.0
C1166 C 0.5322 0.24858 0.7093 0.0
C1167 C 0.46353 0.22479 0.76517 0.0
H1168 H 0.49389 0.31495 0.76622 0.0
H1169 H 0.4472 0.29607 0.70789 0.0
H1170 H 0.50904 0.25729 0.78348 0.0
H1171 H 0.53247 0.26557 0.76318 0.0
H1172 H 0.52056 0.28754 0.78375 0.0
H1173 H 0.44962 0.25891 0.68805 0.0
H1174 H 0.47743 0.24258 0.69109 0.0
H1175 H 0.45258 0.23536 0.71005 0.0
H1176 H 0.54589 0.20306 0.71879 0.0
H1177 H 0.48707 0.18236 0.76409 0.0
H1178 H 0.53945 0.26329 0.72058 0.0
H1179 H 0.51946 0.25677 0.69636 0.0
H1180 H 0.54726 0.24039 0.69912 0.0
H1181 H 0.46741 0.23907 0.77851 0.0
H1182 H 0.4562 0.20893 0.7748 0.0
H1183 H 0.44953 0.23182 0.75289 0.0
C1184 C 0.74477 0.53468 0.78008 0.0
C1185 C 0.75241 0.51726 0.7966 0.0
C1186 C 0.73909 0.52852 0.75635 0.0
C1187 C 0.74177 0.50446 0.74873 0.0
C1188 C 0.75084 0.48704 0.76494 0.0
C1189 C 0.75569 0.49357 0.78886 0.0
C1190 C 0.72887 0.54749 0.73987 0.0
C1191 C 0.75461 0.46133 0.75726 0.0
C1192 C 0.70118 0.4802 0.6998 0.0
C1193 C 0.71612 0.48122 0.67962 0.0
C1194 C 0.70911 0.48843 0.72221 0.0
C1195 C 0.73288 0.49711 0.72463 0.0
C1196 C 0.74796 0.4985 0.70416 0.0
C1197 C 0.73924 0.49082 0.68174 0.0
C1198 C 0.69222 0.48727 0.74341 0.0
C1199 C 0.77359 0.50701 0.70616 0.0
H1200 H 0.74203 0.55302 0.78601 0.0
H1201 H 0.76172 0.48011 0.80155 0.0
H1202 H 0.73891 0.54794 0.72267 0.0
H1203 H 0.70995 0.54304 0.73555 0.0
H1204 H 0.72938 0.56568 0.74804 0.0
H1205 H 0.76454 0.45078 0.77097 0.0
H1206 H 0.73697 0.45263 0.75418 0.0
H1207 H 0.76468 0.46063 0.74007 0.0
H1208 H 0.68337 0.47254 0.6981 0.0
H1209 H 0.75095 0.491 0.66618 0.0
H1210 H 0.69108 0.50508 0.75227 0.0
H1211 H 0.69917 0.47437 0.75689 0.0
H1212 H 0.67385 0.4816 0.73813 0.0
H1213 H 0.77425 0.52506 0.71451 0.0
H1214 H 0.7827 0.50779 0.68842 0.0
H1215 H 0.7838 0.49466 0.718 0.0
C1216 C 0.2463 0.03963 0.71376 0.0
C1217 C 0.24124 0.0219 0.69659 0.0
C1218 C 0.25156 0.03352 0.73761 0.0
C1219 C 0.25126 0.00912 0.74458 0.0
C1220 C 0.24511 0.99121 0.72757 0.0
C1221 C 0.24045 0.99779 0.70366 0.0
C1222 C 0.2585 0.05308 0.75506 0.0
C1223 C 0.24412 0.96502 0.73448 0.0
C1224 C 0.2906 0.98683 0.79532 0.0
C1225 C 0.27403 0.98443 0.81407 0.0
C1226 C 0.2836 0.99593 0.77295 0.0
C1227 C 0.25926 0.00213 0.76907 0.0
C1228 C 0.24262 0.00058 0.78826 0.0
C1229 C 0.2503 0.99198 0.81072 0.0
C1230 C 0.30205 -0.0021 0.75316 0.0
C1231 C 0.21645 0.0066 0.78469 0.0
H1232 H 0.24705 0.05831 0.70837 0.0
H1233 H 0.23639 0.98407 0.69047 0.0
H1234 H 0.24743 0.05192 0.77158 0.0
H1235 H 0.27751 0.05069 0.76051 0.0
H1236 H 0.2564 0.0713 0.74722 0.0
H1237 H 0.23687 0.95363 0.71981 0.0
H1238 H 0.26241 0.95859 0.73901 0.0
H1239 H 0.23279 0.96259 0.75069 0.0
H1240 H 0.30893 0.98084 0.79796 0.0
H1241 H 0.2374 0.98962 0.82511 0.0
H1242 H 0.30151 0.01605 0.74498 0.0
H1243 H 0.2979 0.98477 0.73877 0.0
H1244 H 0.32055 0.99441 0.75973 0.0
H1245 H 0.2145 0.0246 0.77641 0.0
H1246 H 0.20623 0.00625 0.80182 0.0
H1247 H 0.20829 0.99343 0.77217 0.0
C1248 C 0.71142 0.25018 0.00904 0.0
C1249 C 0.69214 0.23455 0.00527 0.0
C1250 C 0.73453 0.2442 0.00132 0.0
C1251 C 0.73851 0.22172 0.99019 0.0
C1252 C 0.719 0.20598 0.98598 0.0
C1253 C 0.69584 0.21276 0.99333 0.0
C1254 C 0.75475 0.26178 0.00555 0.0
C1255 C 0.72273 0.18168 0.97458 0.0
C1256 C 0.79688 0.21798 0.95584 0.0
C1257 C 0.81254 0.20949 0.97362 0.0
C1258 C 0.77239 0.22099 0.96059 0.0
C1259 C 0.76332 0.21481 0.9835 0.0
C1260 C 0.77879 0.20474 0.001 0.0
C1261 C 0.80336 0.20249 0.99595 0.0
C1262 C 0.75659 0.23231 0.94168 0.0
C1263 C 0.76961 0.19744 0.02545 0.0
H1264 H 0.70842 0.26709 0.01821 0.0
H1265 H 0.68088 0.2006 0.99075 0.0
H1266 H 0.76793 0.25396 0.01825 0.0
H1267 H 0.76435 0.26543 0.98847 0.0
H1268 H 0.74829 0.2791 0.01304 0.0
H1269 H 0.70555 0.17204 0.97157 0.0
H1270 H 0.73216 0.18357 0.95714 0.0
H1271 H 0.73431 0.17052 0.98635 0.0
H1272 H 0.80395 0.22347 0.93854 0.0
H1273 H 0.81543 0.1957 0.00962 0.0
H1274 H 0.75128 0.25059 0.94758 0.0
H1275 H 0.73988 0.22178 0.93928 0.0
H1276 H 0.76581 0.2338 0.92404 0.0
H1277 H 0.76502 0.21371 0.03598 0.0
H1278 H 0.78311 0.18692 0.03569 0.0
H1279 H 0.75301 0.18659 0.02369 0.0
C1280 C 0.55181 0.29001 0.23118 0.0
C1281 C 0.53591 0.30731 0.22218 0.0
C1282 C 0.54402 0.26661 0.23608 0.0
C1283 C 0.51994 0.26026 0.23121 0.0
C1284 C 0.5041 0.27738 0.22107 0.0
C1285 C 0.5122 0.30088 0.21701 0.0
C1286 C 0.56123 0.24905 0.24752 0.0
C1287 C 0.47844 0.27106 0.2151 0.0
C1288 C 0.50271 0.19436 0.22904 0.0
C1289 C 0.49079 0.19175 0.25102 0.0
C1290 C 0.5125 0.21659 0.22232 0.0
C1291 C 0.51082 0.23628 0.23832 0.0
C1292 C 0.49975 0.23332 0.26101 0.0
C1293 C 0.48953 0.21115 0.26693 0.0
C1294 C 0.52369 0.21927 0.19777 0.0
C1295 C 0.49822 0.2537 0.27884 0.0
H1296 H 0.57013 0.29504 0.23539 0.0
H1297 H 0.49996 0.31424 0.20991 0.0
H1298 H 0.55478 0.24432 0.26578 0.0
H1299 H 0.56198 0.23219 0.23697 0.0
H1300 H 0.57968 0.25645 0.24904 0.0
H1301 H 0.4692 0.28566 0.20514 0.0
H1302 H 0.47782 0.25444 0.20413 0.0
H1303 H 0.46833 0.26749 0.2319 0.0
H1304 H 0.50335 0.17937 0.21663 0.0
H1305 H 0.48033 0.20902 0.28397 0.0
H1306 H 0.54219 0.22641 0.19935 0.0
H1307 H 0.51321 0.23239 0.18705 0.0
H1308 H 0.52434 0.202 0.18781 0.0
H1309 H 0.51629 0.26146 0.28196 0.0
H1310 H 0.49066 0.24789 0.29637 0.0
H1311 H 0.48671 0.26821 0.27152 0.0
C1312 C 0.48578 0.80218 0.24699 0.0
C1313 C 0.46877 0.81258 0.26226 0.0
C1314 C 0.49253 0.77808 0.24987 0.0
C1315 C 0.48251 0.76446 0.26891 0.0
C1316 C 0.4662 0.77533 0.28507 0.0
C1317 C 0.45923 0.7992 0.28131 0.0
C1318 C 0.50965 0.76694 0.23203 0.0
C1319 C 0.45576 0.76164 0.30603 0.0
C1320 C 0.48008 0.69681 0.26166 0.0
C1321 C 0.50105 0.68977 0.27355 0.0
C1322 C 0.47375 0.72113 0.26012 0.0
C1323 C 0.48842 0.73861 0.27135 0.0
C1324 C 0.50902 0.73141 0.28433 0.0
C1325 C 0.5153 0.70705 0.28495 0.0
C1326 C 0.45189 0.7282 0.24574 0.0
C1327 C 0.52465 0.74945 0.29717 0.0
H1328 H 0.49299 0.81256 0.23219 0.0
H1329 H 0.44623 0.80741 0.29327 0.0
H1330 H 0.52542 0.75934 0.24149 0.0
H1331 H 0.50063 0.75192 0.22255 0.0
H1332 H 0.51606 0.78008 0.21846 0.0
H1333 H 0.44506 0.77336 0.31813 0.0
H1334 H 0.444 0.74705 0.29933 0.0
H1335 H 0.47031 0.75312 0.31664 0.0
H1336 H 0.46921 0.68342 0.25266 0.0
H1337 H 0.53147 0.70152 0.29428 0.0
H1338 H 0.45729 0.7401 0.23069 0.0
H1339 H 0.43921 0.73846 0.25715 0.0
H1340 H 0.44234 0.7124 0.23822 0.0
H1341 H 0.53329 0.76152 0.28389 0.0
H1342 H 0.53891 0.7407 0.30802 0.0
H1343 H 0.51356 0.76083 0.3092 0.0
C1344 C 0.24072 0.50476 0.30335 0.0
C1345 C 0.24653 0.52868 0.30838 0.0
C1346 C 0.24294 0.49563 0.27993 0.0
C1347 C 0.25168 0.51069 0.26136 0.0
C1348 C 0.25682 0.53504 0.26623 0.0
C1349 C 0.25397 0.54379 0.28963 0.0
C1350 C 0.23681 0.46966 0.27526 0.0
C1351 C 0.26661 0.55154 0.24705 0.0
C1352 C 0.28608 0.47882 0.21221 0.0
C1353 C 0.26935 0.47849 0.19348 0.0
C1354 C 0.28075 0.4899 0.23412 0.0
C1355 C 0.25786 0.50038 0.23755 0.0
C1356 C 0.24106 0.50063 0.21845 0.0
C1357 C 0.24714 0.48987 0.19643 0.0
C1358 C 0.29941 0.48981 0.2538 0.0
C1359 C 0.21636 0.51129 0.22163 0.0
H1360 H 0.23476 0.49309 0.31776 0.0
H1361 H 0.25852 0.56233 0.2934 0.0
H1362 H 0.22504 0.4681 0.25926 0.0
H1363 H 0.25347 0.45945 0.27139 0.0
H1364 H 0.22767 0.46117 0.29083 0.0
H1365 H 0.26784 0.57045 0.25327 0.0
H1366 H 0.28481 0.54545 0.2417 0.0
H1367 H 0.25516 0.55092 0.23078 0.0
H1368 H 0.30326 0.46997 0.20985 0.0
H1369 H 0.23407 0.48921 0.18203 0.0
H1370 H 0.29289 0.47903 0.26924 0.0
H1371 H 0.30252 0.50835 0.2604 0.0
H1372 H 0.31681 0.48222 0.24769 0.0
H1373 H 0.20636 0.50092 0.2354 0.0
H1374 H 0.20586 0.51117 0.20467 0.0
H1375 H 0.21768 0.53003 0.22821 0.0
C1376 C 0.77981 0.02308 0.20324 0.0
C1377 C 0.76426 0.01286 0.18638 0.0
C1378 C 0.78367 0.01208 0.22551 0.0
C1379 C 0.77098 0.99084 0.23125 0.0
C1380 C 0.75594 0.97996 0.21387 0.0
C1381 C 0.75305 0.99097 0.19138 0.0
C1382 C 0.80042 0.02382 0.2433 0.0
C1383 C 0.74167 0.95763 0.21955 0.0
C1384 C 0.7879 0.95499 0.28672 0.0
C1385 C 0.77229 0.9648 0.30383 0.0
C1386 C 0.78795 0.96347 0.26298 0.0
C1387 C 0.77146 0.98157 0.25621 0.0
C1388 C 0.75546 0.99127 0.27343 0.0
C1389 C 0.75634 0.98302 0.29715 0.0
C1390 C 0.80575 0.95329 0.24525 0.0
C1391 C 0.73724 0.01023 0.26676 0.0
H1392 H 0.78866 0.03993 0.19915 0.0
H1393 H 0.7409 0.98322 0.17829 0.0
H1394 H 0.78984 0.03188 0.25813 0.0
H1395 H 0.81263 0.0103 0.25135 0.0
H1396 H 0.8114 0.03818 0.23487 0.0
H1397 H 0.73244 0.95031 0.20347 0.0
H1398 H 0.75348 0.94352 0.22714 0.0
H1399 H 0.72794 0.9619 0.23336 0.0
H1400 H 0.80031 0.94097 0.29201 0.0
H1401 H 0.7441 0.9904 0.31038 0.0
H1402 H 0.81702 0.96794 0.23782 0.0
H1403 H 0.79614 0.94493 0.22994 0.0
H1404 H 0.81767 0.93961 0.25353 0.0
H1405 H 0.74654 0.02673 0.26062 0.0
H1406 H 0.72532 0.01501 0.28204 0.0
H1407 H 0.72595 0.00381 0.25165 0.0
C1408 C 0.19632 0.7596 0.97895 0.0
C1409 C 0.18789 0.77261 -0.0013 0.0
C1410 C 0.22079 0.75984 0.973 0.0
C1411 C 0.23683 0.77398 0.98678 0.0
C1412 C 0.22799 0.78846 0.00567 0.0
C1413 C 0.20362 0.78729 0.01167 0.0
C1414 C 0.22966 0.74385 0.95298 0.0
C1415 C 0.24442 0.80434 0.02025 0.0
C1416 C 0.30149 0.75335 0.99117 0.0
C1417 C 0.31238 0.76734 0.9734 0.0
C1418 C 0.27682 0.75535 0.9957 0.0
C1419 C 0.26303 0.77224 0.98259 0.0
C1420 C 0.27422 0.78712 0.96532 0.0
C1421 C 0.29876 0.78424 0.96068 0.0
C1422 C 0.26539 0.73891 0.01399 0.0
C1423 C 0.26024 0.80583 0.95156 0.0
H1424 H 0.1841 0.74806 0.96915 0.0
H1425 H 0.19694 0.79744 0.02689 0.0
H1426 H 0.24056 0.75432 0.94002 0.0
H1427 H 0.24145 0.72968 0.96055 0.0
H1428 H 0.21472 0.73507 0.94313 0.0
H1429 H 0.23428 0.81664 0.03226 0.0
H1430 H 0.25639 0.79306 0.03148 0.0
H1431 H 0.25601 0.81523 0.00825 0.0
H1432 H 0.31205 0.74016 0.00083 0.0
H1433 H 0.30732 0.79519 0.94704 0.0
H1434 H 0.25121 0.72796 0.00528 0.0
H1435 H 0.25664 0.74963 0.02831 0.0
H1436 H 0.27861 0.72661 0.02246 0.0
H1437 H 0.24657 0.79699 0.94011 0.0
H1438 H 0.27197 0.81701 0.93993 0.0
H1439 H 0.25052 0.81778 0.96421 0.0
C1440 C 0.10108 0.31665 0.38695 0.0
C1441 C 0.09703 0.31222 0.41127 0.0
C1442 C 0.08749 0.33362 0.37452 0.0
C1443 C 0.06883 0.34604 0.38663 0.0
C1444 C 0.06471 0.34174 0.41137 0.0
C1445 C 0.07912 0.32493 0.42354 0.0
C1446 C 0.09299 0.33789 0.34824 0.0
C1447 C 0.04455 0.35387 0.42479 0.0
C1448 C 0.05767 0.39846 0.34738 0.0
C1449 C 0.04411 0.387 0.3295 0.0
C1450 C 0.06287 0.38669 0.36899 0.0
C1451 C 0.05403 0.36319 0.37261 0.0
C1452 C 0.03622 0.35399 0.35703 0.0
C1453 C 0.03149 0.366 0.3354 0.0
C1454 C 0.08106 0.39766 0.38577 0.0
C1455 C 0.02516 0.32965 0.36119 0.0
H1456 H 0.115 0.30675 0.37758 0.0
H1457 H 0.07576 0.32106 0.44233 0.0
H1458 H 0.07748 0.33232 0.33708 0.0
H1459 H 0.09622 0.35726 0.34492 0.0
H1460 H 0.10902 0.32775 0.34207 0.0
H1461 H 0.04828 0.35463 0.44437 0.0
H1462 H 0.04121 0.37233 0.41812 0.0
H1463 H 0.02785 0.34335 0.42216 0.0
H1464 H 0.06665 0.41527 0.34341 0.0
H1465 H 0.02022 0.35738 0.32208 0.0
H1466 H 0.0991 0.39034 0.3815 0.0
H1467 H 0.07696 0.39316 0.40474 0.0
H1468 H 0.08175 0.41749 0.38381 0.0
H1469 H 0.03755 0.31557 0.35444 0.0
H1470 H 0.00782 0.32781 0.35151 0.0
H1471 H 0.02216 0.32643 0.38063 0.0
C1472 C 0.87506 0.20675 0.38497 0.0
C1473 C 0.87548 0.1999 0.40912 0.0
C1474 C 0.88224 0.1909 0.36691 0.0
C1475 C 0.89065 0.16777 0.37325 0.0
C1476 C 0.89107 0.16065 0.39768 0.0
C1477 C 0.88317 0.17681 0.41543 0.0
C1478 C 0.88102 0.19908 0.34104 0.0
C1479 C 0.9005 0.13637 0.40508 0.0
C1480 C 0.88782 0.12719 0.31937 0.0
C1481 C 0.91015 0.13185 0.30864 0.0
C1482 C 0.88193 0.13693 0.3418 0.0
C1483 C 0.89887 0.15146 0.35387 0.0
C1484 C 0.92231 0.15404 0.34439 0.0
C1485 C 0.92765 0.14431 0.32177 0.0
C1486 C 0.85674 0.13373 0.35129 0.0
C1487 C 0.94107 0.16893 0.35704 0.0
H1488 H 0.86902 0.22463 0.38016 0.0
H1489 H 0.88381 0.17172 0.43421 0.0
H1490 H 0.8993 0.1994 0.33315 0.0
H1491 H 0.87012 0.1863 0.33033 0.0
H1492 H 0.87305 0.21727 0.33919 0.0
H1493 H 0.89777 0.13284 0.42453 0.0
H1494 H 0.89164 0.12194 0.39461 0.0
H1495 H 0.91999 0.13536 0.40112 0.0
H1496 H 0.87426 0.11723 0.30961 0.0
H1497 H 0.94513 0.14764 0.31388 0.0
H1498 H 0.84641 0.15049 0.34823 0.0
H1499 H 0.85688 0.13026 0.3709 0.0
H1500 H 0.84722 0.11875 0.3422 0.0
H1501 H 0.93714 0.18826 0.35423 0.0
H1502 H 0.95939 0.16521 0.35008 0.0
H1503 H 0.94079 0.16551 0.37667 0.0
C1504 C 0.12227 0.71281 0.09002 0.0
C1505 C 0.12033 0.70851 0.06537 0.0
C1506 C 0.11576 0.69528 0.10672 0.0
C1507 C 0.10645 0.67312 0.0985 0.0
C1508 C 0.10471 0.66851 0.07353 0.0
C1509 C 0.11199 0.68628 0.05714 0.0
C1510 C 0.11841 0.70073 0.13319 0.0
C1511 C 0.09433 0.64531 0.06421 0.0
C1512 C 0.1087 0.62687 0.14772 0.0
C1513 C 0.08672 0.63113 0.1593 0.0
C1514 C 0.11465 0.63893 0.12647 0.0
C1515 C 0.0981 0.65536 0.11646 0.0
C1516 C 0.07499 0.65788 0.12671 0.0
C1517 C 0.06962 0.64586 0.14816 0.0
C1518 C 0.13952 0.63582 0.11613 0.0
C1519 C 0.05665 0.67484 0.1162 0.0
H1520 H 0.12881 0.73005 0.09627 0.0
H1521 H 0.11021 0.6832 0.038 0.0
H1522 H 0.10048 0.70105 0.14186 0.0
H1523 H 0.1291 0.68649 0.1421 0.0
H1524 H 0.12727 0.71829 0.13646 0.0
H1525 H 0.09633 0.64359 0.04443 0.0
H1526 H 0.1031 0.62971 0.07294 0.0
H1527 H 0.07496 0.64446 0.06873 0.0
H1528 H 0.12196 0.61533 0.15606 0.0
H1529 H 0.05241 0.64889 0.15673 0.0
H1530 H 0.15054 0.65177 0.12068 0.0
H1531 H 0.13887 0.63446 0.09627 0.0
H1532 H 0.14863 0.61962 0.12338 0.0
H1533 H 0.06173 0.6936 0.12056 0.0
H1534 H 0.03839 0.67147 0.12347 0.0
H1535 H 0.05608 0.67322 0.09635 0.0
C1536 C 0.94094 0.84837 0.19328 0.0
C1537 C 0.92422 0.86212 0.20617 0.0
C1538 C 0.9349 0.83813 0.1711 0.0
C1539 C 0.91158 0.84166 0.16169 0.0
C1540 C 0.89537 0.85718 0.17357 0.0
C1541 C 0.90188 0.86723 0.19569 0.0
C1542 C 0.95278 0.82187 0.15881 0.0
C1543 C 0.87036 0.86149 0.16405 0.0
C1544 C 0.89546 0.81562 0.10053 0.0
C1545 C 0.88642 0.79317 0.10732 0.0
C1546 C 0.90382 0.83186 0.118 0.0
C1547 C 0.9026 0.82544 0.1426 0.0
C1548 C 0.8929 0.80299 0.14941 0.0
C1549 C 0.88514 0.78711 0.13169 0.0
C1550 C 0.91437 0.85554 0.11017 0.0
C1551 C 0.89084 0.79559 0.17548 0.0
H1552 H 0.95842 0.84462 0.20098 0.0
H1553 H 0.88898 0.87823 0.20524 0.0
H1554 H 0.94746 0.80289 0.16163 0.0
H1555 H 0.95303 0.8252 0.13917 0.0
H1556 H 0.97123 0.82432 0.16599 0.0
H1557 H 0.86165 0.87714 0.17284 0.0
H1558 H 0.87067 0.86453 0.14437 0.0
H1559 H 0.85918 0.84537 0.16747 0.0
H1560 H 0.89653 0.82023 0.08164 0.0
H1561 H 0.8779 0.76983 0.13699 0.0
H1562 H 0.93375 0.856 0.11473 0.0
H1563 H 0.90567 0.87057 0.11992 0.0
H1564 H 0.91238 0.85856 0.09055 0.0
H1565 H 0.90893 0.79482 0.18375 0.0
H1566 H 0.88217 0.77777 0.17767 0.0
H1567 H 0.88021 0.80905 0.1856 0.0
C1568 C 0.34635 0.05166 0.35181 0.0
C1569 C 0.33964 0.05616 0.37563 0.0
C1570 C 0.36918 0.05826 0.34353 0.0
C1571 C 0.38555 0.06924 0.35962 0.0
C1572 C 0.38024 0.06989 0.38442 0.0
C1573 C 0.35711 0.06367 0.39215 0.0
C1574 C 0.37442 0.05659 0.31698 0.0
C1575 C 0.39785 0.07997 0.40233 0.0
C1576 C 0.4411 0.09245 0.3277 0.0
C1577 C 0.43282 0.11511 0.32066 0.0
C1578 C 0.42679 0.07763 0.34234 0.0
C1579 C 0.40386 0.08585 0.3497 0.0
C1580 C 0.39672 0.10972 0.34448 0.0
C1581 C 0.41133 0.124 0.32999 0.0
C1582 C 0.43546 0.05264 0.34803 0.0
C1583 C 0.37257 0.11951 0.35214 0.0
H1584 H 0.33302 0.04547 0.33905 0.0
H1585 H 0.3522 0.06646 0.4108 0.0
H1586 H 0.37314 0.07474 0.30884 0.0
H1587 H 0.39289 0.04987 0.31388 0.0
H1588 H 0.36158 0.04458 0.30758 0.0
H1589 H 0.39398 0.07345 0.42079 0.0
H1590 H 0.41653 0.07506 0.39745 0.0
H1591 H 0.39655 0.09984 0.40239 0.0
H1592 H 0.45766 0.08552 0.32018 0.0
H1593 H 0.40508 0.14158 0.32441 0.0
H1594 H 0.43071 0.04047 0.33299 0.0
H1595 H 0.42726 0.04552 0.36474 0.0
H1596 H 0.45531 0.05233 0.34993 0.0
H1597 H 0.35803 0.10926 0.34319 0.0
H1598 H 0.37039 0.13879 0.34752 0.0
H1599 H 0.37019 0.11749 0.3718 0.0
C1600 C 0.62781 0.39253 0.254 0.0
C1601 C 0.60516 0.38676 0.26329 0.0
C1602 C 0.64727 0.39693 0.26923 0.0
C1603 C 0.64389 0.39592 0.29439 0.0
C1604 C 0.62084 0.39106 0.30394 0.0
C1605 C 0.60171 0.38631 0.28822 0.0
C1606 C 0.67164 0.40186 0.25834 0.0
C1607 C 0.61654 0.3904 0.3307 0.0
C1608 C 0.70027 0.38171 0.32949 0.0
C1609 C 0.70845 0.40474 0.33545 0.0
C1610 C 0.67873 0.37852 0.31691 0.0
C1611 C 0.6649 0.39884 0.31045 0.0
C1612 C 0.67248 0.42205 0.31739 0.0
C1613 C 0.69427 0.42475 0.32964 0.0
C1614 C 0.67137 0.35349 0.30954 0.0
C1615 C 0.658 0.44411 0.31113 0.0
H1616 H 0.63057 0.39291 0.23473 0.0
H1617 H 0.58416 0.38201 0.29544 0.0
H1618 H 0.67872 0.41925 0.26495 0.0
H1619 H 0.68449 0.3877 0.26394 0.0
H1620 H 0.67111 0.40241 0.2384 0.0
H1621 H 0.59722 0.3883 0.33519 0.0
H1622 H 0.62659 0.37521 0.33876 0.0
H1623 H 0.6233 0.40711 0.33917 0.0
H1624 H 0.7111 0.36616 0.33393 0.0
H1625 H 0.70032 0.44261 0.33443 0.0
H1626 H 0.6719 0.35197 0.28966 0.0
H1627 H 0.65267 0.34981 0.31528 0.0
H1628 H 0.68329 0.3395 0.31728 0.0
H1629 H 0.65867 0.44719 0.29146 0.0
H1630 H 0.66484 0.46045 0.32029 0.0
H1631 H 0.63889 0.44151 0.31611 0.0
C1632 C 0.2838 0.87607 0.16362 0.0
C1633 C 0.2768 0.89937 0.15716 0.0
C1634 C 0.30658 0.87167 0.17337 0.0
C1635 C 0.32279 0.89099 0.17639 0.0
C1636 C 0.31613 0.9144 0.16917 0.0
C1637 C 0.29314 0.91834 0.15981 0.0
C1638 C 0.31295 0.84654 0.18127 0.0
C1639 C 0.33305 0.93541 0.17192 0.0
C1640 C 0.36814 0.88702 0.22663 0.0
C1641 C 0.38904 0.8803 0.21434 0.0
C1642 C 0.34647 0.89032 0.21445 0.0
C1643 C 0.34575 0.88718 0.18927 0.0
C1644 C 0.36684 0.88061 0.17664 0.0
C1645 C 0.3883 0.87703 0.18941 0.0
C1646 C 0.3243 0.89706 0.2286 0.0
C1647 C 0.36673 0.87755 0.1497 0.0
H1648 H 0.27128 0.86133 0.1616 0.0
H1649 H 0.288 0.93637 0.15457 0.0
H1650 H 0.33025 0.84092 0.17316 0.0
H1651 H 0.31528 0.84615 0.20107 0.0
H1652 H 0.29895 0.83326 0.17628 0.0
H1653 H 0.32599 0.95197 0.16334 0.0
H1654 H 0.33604 0.93912 0.19126 0.0
H1655 H 0.35076 0.9311 0.16388 0.0
H1656 H 0.3686 0.88944 0.24594 0.0
H1657 H 0.40449 0.87192 0.17989 0.0
H1658 H 0.30994 0.88362 0.22554 0.0
H1659 H 0.31737 0.91467 0.2224 0.0
H1660 H 0.32783 0.89822 0.2482 0.0
H1661 H 0.35372 0.8634 0.14453 0.0
H1662 H 0.38469 0.87263 0.14256 0.0
H1663 H 0.3608 0.89446 0.141 0.0
C1664 C 0.58899 0.60983 0.22295 0.0
C1665 C 0.5643 0.61069 0.21853 0.0
C1666 C 0.60497 0.60175 0.20534 0.0
C1667 C 0.59591 0.59364 0.18301 0.0
C1668 C 0.57087 0.59378 0.1787 0.0
C1669 C 0.5553 0.60271 0.19645 0.0
C1670 C 0.6316 0.60242 0.21047 0.0
C1671 C 0.56058 0.58455 0.15539 0.0
C1672 C 0.6417 0.59854 0.13334 0.0
C1673 C 0.65278 0.57593 0.13438 0.0
C1674 C 0.62212 0.60409 0.14808 0.0
C1675 C 0.61306 0.58645 0.16392 0.0
C1676 C 0.62283 0.56298 0.16365 0.0
C1677 C 0.64278 0.55804 0.14904 0.0
C1678 C 0.61246 0.62944 0.14806 0.0
C1679 C 0.61318 0.54352 0.17986 0.0
H1680 H 0.59588 0.61601 0.24008 0.0
H1681 H 0.53611 0.60302 0.19326 0.0
H1682 H 0.63935 0.58416 0.20882 0.0
H1683 H 0.64076 0.61401 0.19709 0.0
H1684 H 0.63564 0.60938 0.22872 0.0
H1685 H 0.54065 0.5842 0.15558 0.0
H1686 H 0.56658 0.59607 0.14029 0.0
H1687 H 0.5673 0.56615 0.15178 0.0
H1688 H 0.64916 0.6125 0.12202 0.0
H1689 H 0.65102 0.54043 0.14975 0.0
H1690 H 0.61729 0.63836 0.16522 0.0
H1691 H 0.59261 0.6294 0.14679 0.0
H1692 H 0.61979 0.6403 0.13301 0.0
H1693 H 0.61903 0.54695 0.19859 0.0
H1694 H 0.6197 0.52546 0.17446 0.0
H1695 H 0.59327 0.54349 0.17972 0.0
C1696 C 0.34009 0.38868 0.12117 0.0
C1697 C 0.33394 0.4126 0.11692 0.0
C1698 C 0.35422 0.37592 0.10488 0.0
C1699 C 0.36244 0.38743 0.08367 0.0
C1700 C 0.35756 0.41211 0.08 0.0
C1701 C 0.34327 0.42448 0.09677 0.0
C1702 C 0.35913 0.34966 0.10981 0.0
C1703 C 0.36602 0.42523 0.05787 0.0
C1704 C 0.40658 0.34372 0.05996 0.0
C1705 C 0.39063 0.32799 0.04844 0.0
C1706 C 0.39868 0.36614 0.0682 0.0
C1707 C 0.37434 0.37249 0.06507 0.0
C1708 C 0.35979 0.35885 0.04933 0.0
C1709 C 0.36818 0.33662 0.04104 0.0
C1710 C 0.41525 0.38114 0.08345 0.0
C1711 C 0.33415 0.3659 0.04432 0.0
H1712 H 0.3329 0.37958 0.13683 0.0
H1713 H 0.33828 0.44297 0.09333 0.0
H1714 H 0.35092 0.33844 0.09554 0.0
H1715 H 0.37872 0.34619 0.10973 0.0
H1716 H 0.35182 0.34373 0.12741 0.0
H1717 H 0.36963 0.4444 0.062 0.0
H1718 H 0.38245 0.41709 0.0501 0.0
H1719 H 0.35164 0.42469 0.0441 0.0
H1720 H 0.42434 0.33749 0.06492 0.0
H1721 H 0.35596 0.32487 0.03149 0.0
H1722 H 0.41228 0.37674 0.10267 0.0
H1723 H 0.41156 0.40057 0.08095 0.0
H1724 H 0.43437 0.3775 0.0791 0.0
H1725 H 0.32305 0.36259 0.06055 0.0
H1726 H 0.32641 0.35555 0.02913 0.0
H1727 H 0.33313 0.3853 0.04008 0.0
C1728 C 0.37114 0.68834 0.38496 0.0
C1729 C 0.36047 0.7033 0.4022 0.0
C1730 C 0.36282 0.66485 0.38134 0.0
C1731 C 0.34309 0.65642 0.39494 0.0
C1732 C 0.33311 0.671 0.41322 0.0
C1733 C 0.34204 0.69421 0.41673 0.0
C1734 C 0.37422 0.64959 0.36206 0.0
C1735 C 0.31188 0.66277 0.42797 0.0
C1736 C 0.29575 0.6171 0.36735 0.0
C1737 C 0.29925 0.59546 0.37954 0.0
C1738 C 0.3111 0.63654 0.37095 0.0
C1739 C 0.33016 0.63437 0.38757 0.0
C1740 C 0.33466 0.61203 0.39893 0.0
C1741 C 0.31909 0.59261 0.39464 0.0
C1742 C 0.30584 0.6599 0.35816 0.0
C1743 C 0.35488 0.60909 0.41669 0.0
H1744 H 0.38572 0.69511 0.374 0.0
H1745 H 0.33379 0.70561 0.4302 0.0
H1746 H 0.37678 0.63091 0.36847 0.0
H1747 H 0.36221 0.64889 0.34619 0.0
H1748 H 0.39185 0.65689 0.35624 0.0
H1749 H 0.30788 0.67519 0.44307 0.0
H1750 H 0.29576 0.66167 0.41631 0.0
H1751 H 0.31517 0.64459 0.43538 0.0
H1752 H 0.28042 0.61905 0.35548 0.0
H1753 H 0.3216 0.57577 0.40408 0.0
H1754 H 0.32229 0.6669 0.34942 0.0
H1755 H 0.2998 0.67353 0.37139 0.0
H1756 H 0.29168 0.65789 0.34427 0.0
H1757 H 0.37153 0.61764 0.40988 0.0
H1758 H 0.35859 0.58989 0.42061 0.0
H1759 H 0.35004 0.61815 0.43376 0.0
C1760 C 0.70685 0.88689 0.37629 0.0
C1761 C 0.73191 0.88683 0.37823 0.0
C1762 C 0.69347 0.86626 0.38191 0.0
C1763 C 0.70555 0.84512 0.38927 0.0
C1764 C 0.73084 0.84507 0.39133 0.0
C1765 C 0.74369 0.86596 0.38593 0.0
C1766 C 0.66647 0.86702 0.37989 0.0
C1767 C 0.7444 0.82281 0.39889 0.0
C1768 C 0.6734 0.79555 0.42307 0.0
C1769 C 0.66897 0.77887 0.4047 0.0
C1770 C 0.68467 0.81752 0.41819 0.0
C1771 C 0.69194 0.82281 0.39442 0.0
C1772 C 0.68745 0.80615 0.37577 0.0
C1773 C 0.6759 0.78443 0.38111 0.0
C1774 C 0.689 0.83495 0.4385 0.0
C1775 C 0.69529 0.81104 0.35026 0.0
H1776 H 0.6977 0.90304 0.37046 0.0
H1777 H 0.76309 0.86581 0.3874 0.0
H1778 H 0.66034 0.85384 0.36627 0.0
H1779 H 0.65819 0.86185 0.39727 0.0
H1780 H 0.65977 0.88508 0.37473 0.0
H1781 H 0.76409 0.8258 0.39963 0.0
H1782 H 0.73822 0.81681 0.41685 0.0
H1783 H 0.74072 0.80799 0.3861 0.0
H1784 H 0.66796 0.79152 0.44133 0.0
H1785 H 0.67259 0.77167 0.3668 0.0
H1786 H 0.68125 0.85274 0.43401 0.0
H1787 H 0.70857 0.83753 0.44112 0.0
H1788 H 0.68109 0.82868 0.45572 0.0
H1789 H 0.68751 0.82822 0.34388 0.0
H1790 H 0.68982 0.79653 0.33772 0.0
H1791 H 0.7151 0.81289 0.34955 0.0
C1792 C 0.14904 0.66823 0.56773 0.0
C1793 C 0.1383 0.68144 0.5863 0.0
C1794 C 0.16011 0.64611 0.57239 0.0
C1795 C 0.16081 0.63729 0.59622 0.0
C1796 C 0.14868 0.64978 0.61472 0.0
C1797 C 0.13741 0.67163 0.60949 0.0
C1798 C 0.17242 0.633 0.5521 0.0
C1799 C 0.14927 0.64114 0.64044 0.0
C1800 C 0.1854 0.57536 0.61111 0.0
C1801 C 0.20937 0.5809 0.61622 0.0
C1802 C 0.16933 0.59344 0.60391 0.0
C1803 C 0.17743 0.6175 0.60253 0.0
C1804 C 0.20161 0.62307 0.60787 0.0
C1805 C 0.21734 0.60465 0.61434 0.0
C1806 C 0.1438 0.58687 0.59773 0.0
C1807 C 0.21086 0.64858 0.60713 0.0
H1808 H 0.14946 0.67549 0.54967 0.0
H1809 H 0.12905 0.68163 0.62395 0.0
H1810 H 0.19213 0.63537 0.55367 0.0
H1811 H 0.16865 0.61347 0.55304 0.0
H1812 H 0.1667 0.63983 0.53425 0.0
H1813 H 0.13643 0.65109 0.65202 0.0
H1814 H 0.14506 0.62172 0.64147 0.0
H1815 H 0.16761 0.64365 0.6478 0.0
H1816 H 0.17936 0.55691 0.61237 0.0
H1817 H 0.23586 0.60896 0.61845 0.0
H1818 H 0.13954 0.59292 0.57923 0.0
H1819 H 0.1312 0.59619 0.61002 0.0
H1820 H 0.14056 0.56723 0.59897 0.0
H1821 H 0.20872 0.65609 0.58881 0.0
H1822 H 0.23009 0.64984 0.61226 0.0
H1823 H 0.20026 0.66001 0.61955 0.0
C1824 C 0.88644 0.66716 0.71186 0.0
C1825 C 0.9098 0.66109 0.71902 0.0
C1826 C 0.88225 0.67893 0.69004 0.0
C1827 C 0.90185 0.68454 0.67489 0.0
C1828 C 0.9254 0.67789 0.68163 0.0
C1829 C 0.92913 0.66637 0.70372 0.0
C1830 C 0.85689 0.68605 0.68358 0.0
C1831 C 0.94669 0.68339 0.66577 0.0
C1832 C 0.88516 0.70213 0.61119 0.0
C1833 C 0.88512 0.72721 0.61295 0.0
C1834 C 0.89157 0.68787 0.63099 0.0
C1835 C 0.89774 0.69907 0.65297 0.0
C1836 C 0.89838 0.72439 0.65456 0.0
C1837 C 0.8922 0.73814 0.63449 0.0
C1838 C 0.89109 0.66089 0.6286 0.0
C1839 C 0.90469 0.737 0.67776 0.0
H1840 H 0.8714 0.66318 0.72354 0.0
H1841 H 0.94723 0.66156 0.70901 0.0
H1842 H 0.85554 0.7059 0.68258 0.0
H1843 H 0.8521 0.67888 0.66563 0.0
H1844 H 0.84354 0.67945 0.69686 0.0
H1845 H 0.96355 0.67531 0.6727 0.0
H1846 H 0.94346 0.67665 0.6473 0.0
H1847 H 0.94921 0.7031 0.66449 0.0
H1848 H 0.87987 0.69364 0.5945 0.0
H1849 H 0.89227 0.75755 0.63592 0.0
H1850 H 0.87651 0.65343 0.63993 0.0
H1851 H 0.90821 0.65308 0.63511 0.0
H1852 H 0.88812 0.65505 0.60976 0.0
H1853 H 0.89113 0.7326 0.69169 0.0
H1854 H 0.9054 0.75681 0.67566 0.0
H1855 H 0.92233 0.73069 0.68447 0.0
C1856 C 0.05042 0.85439 0.66214 0.0
C1857 C 0.06132 0.87631 0.66796 0.0
C1858 C 0.05478 0.84357 0.63982 0.0
C1859 C 0.07047 0.85497 0.62339 0.0
C1860 C 0.07735 0.87905 0.62734 0.0
C1861 C 0.07268 0.88952 0.64973 0.0
C1862 C 0.04585 0.81839 0.63553 0.0
C1863 C 0.09299 0.89231 0.60966 0.0
C1864 C 0.11929 0.81218 0.6045 0.0
C1865 C 0.11269 0.80664 0.58101 0.0
C1866 C 0.10628 0.82886 0.61789 0.0
C1867 C 0.08563 0.83974 0.60768 0.0
C1868 C 0.07935 0.83482 0.58351 0.0
C1869 C 0.09322 0.81837 0.57029 0.0
C1870 C 0.11411 0.83392 0.64341 0.0
C1871 C 0.05733 0.84556 0.57202 0.0
H1872 H 0.04085 0.84437 0.67583 0.0
H1873 H 0.08025 0.90699 0.65373 0.0
H1874 H 0.04117 0.81571 0.61634 0.0
H1875 H 0.06025 0.80543 0.64019 0.0
H1876 H 0.02989 0.81428 0.64677 0.0
H1877 H 0.09166 0.91205 0.61217 0.0
H1878 H 0.11198 0.88695 0.61245 0.0
H1879 H 0.08805 0.88779 0.59089 0.0
H1880 H 0.13438 0.80293 0.61262 0.0
H1881 H 0.08798 0.81362 0.55214 0.0
H1882 H 0.10025 0.82745 0.65617 0.0
H1883 H 0.11627 0.85351 0.64621 0.0
H1884 H 0.13137 0.82503 0.64795 0.0
H1885 H 0.0417 0.8338 0.57578 0.0
H1886 H 0.05941 0.84676 0.55221 0.0
H1887 H 0.05324 0.86368 0.57921 0.0
C1888 C 0.91599 0.34339 0.83601 0.0
C1889 C 0.89369 0.3466 0.82479 0.0
C1890 C 0.91793 0.32993 0.85725 0.0
C1891 C 0.89722 0.31881 0.86689 0.0
C1892 C 0.87455 0.3228 0.85612 0.0
C1893 C 0.87303 0.33694 0.83539 0.0
C1894 C 0.94226 0.32676 0.86872 0.0
C1895 C 0.85209 0.31084 0.8655 0.0
C1896 C 0.90153 0.25868 0.89784 0.0
C1897 C 0.89497 0.26457 0.92141 0.0
C1898 C 0.90347 0.2764 0.88013 0.0
C1899 C 0.89935 0.30069 0.88632 0.0
C1900 C 0.89458 0.30697 0.9105 0.0
C1901 C 0.8921 0.28874 0.92777 0.0
C1902 C 0.90824 0.26887 0.85448 0.0
C1903 C 0.89095 0.33278 0.91788 0.0
H1904 H 0.93197 0.35107 0.82798 0.0
H1905 H 0.85578 0.33928 0.8267 0.0
H1906 H 0.94099 0.32869 0.88852 0.0
H1907 H 0.94909 0.30845 0.86491 0.0
H1908 H 0.95551 0.33995 0.86178 0.0
H1909 H 0.83572 0.31676 0.85577 0.0
H1910 H 0.85377 0.29107 0.86359 0.0
H1911 H 0.8497 0.31475 0.88488 0.0
H1912 H 0.90386 0.24002 0.89284 0.0
H1913 H 0.88731 0.29337 0.94607 0.0
H1914 H 0.92353 0.27913 0.84694 0.0
H1915 H 0.89228 0.2729 0.84327 0.0
H1916 H 0.9123 0.24941 0.85292 0.0
H1917 H 0.90485 0.34443 0.90963 0.0
H1918 H 0.89157 0.33501 0.9377 0.0
H1919 H 0.87323 0.33914 0.91142 0.0
C1920 C 0.07149 0.16254 0.81756 0.0
C1921 C 0.09038 0.15813 0.8015 0.0
C1922 C 0.07574 0.17333 0.83991 0.0
C1923 C 0.09937 0.18026 0.8461 0.0
C1924 C 0.11855 0.17562 0.83009 0.0
C1925 C 0.11385 0.16442 0.80806 0.0
C1926 C 0.0549 0.17771 0.85671 0.0
C1927 C 0.14393 0.18318 0.83589 0.0
C1928 C 0.10649 0.23247 0.88889 0.0
C1929 C 0.11363 0.22095 0.9101 0.0
C1930 C 0.10177 0.21938 0.86799 0.0
C1931 C 0.10379 0.19408 0.86843 0.0
C1932 C 0.11052 0.18225 0.88993 0.0
C1933 C 0.11561 0.1959 0.91054 0.0
C1934 C 0.09503 0.23269 0.84531 0.0
C1935 C 0.11239 0.15525 0.8911 0.0
H1936 H 0.05334 0.15747 0.81272 0.0
H1937 H 0.12852 0.16111 0.7957 0.0
H1938 H 0.05896 0.17037 0.87478 0.0
H1939 H 0.05195 0.19729 0.8588 0.0
H1940 H 0.03801 0.16945 0.85008 0.0
H1941 H 0.15695 0.17733 0.82196 0.0
H1942 H 0.1448 0.20302 0.83746 0.0
H1943 H 0.14953 0.17561 0.85344 0.0
H1944 H 0.10505 0.25187 0.88845 0.0
H1945 H 0.12099 0.18697 0.92698 0.0
H1946 H 0.07723 0.22658 0.83884 0.0
H1947 H 0.10824 0.22871 0.83093 0.0
H1948 H 0.09434 0.25243 0.84801 0.0
H1949 H 0.0952 0.14699 0.88539 0.0
H1950 H 0.11684 0.14877 0.90944 0.0
H1951 H 0.12645 0.14889 0.8785 0.0
C1952 C 0.57084 0.89742 0.67689 0.0
C1953 C 0.58286 0.89021 0.69778 0.0
C1954 C 0.58359 0.90735 0.6575 0.0
C1955 C 0.60884 0.90959 0.65911 0.0
C1956 C 0.62099 0.90193 0.6801 0.0
C1957 C 0.60779 0.89259 0.69925 0.0
C1958 C 0.57008 0.91591 0.63563 0.0
C1959 C 0.64798 0.90361 0.68242 0.0
C1960 C 0.65364 0.9121 0.60899 0.0
C1961 C 0.66321 0.93509 0.61269 0.0
C1962 C 0.63377 0.9042 0.6222 0.0
C1963 C 0.62314 0.91983 0.63917 0.0
C1964 C 0.63064 0.94405 0.64048 0.0
C1965 C 0.65077 0.95138 0.62732 0.0
C1966 C 0.62625 0.87824 0.62018 0.0
C1967 C 0.61924 0.96148 0.65783 0.0
H1968 H 0.55148 0.89577 0.67591 0.0
H1969 H 0.61709 0.88687 0.71538 0.0
H1970 H 0.57134 0.93574 0.63441 0.0
H1971 H 0.57817 0.90847 0.61902 0.0
H1972 H 0.55081 0.91082 0.63625 0.0
H1973 H 0.65463 0.89598 0.69961 0.0
H1974 H 0.65676 0.8939 0.66739 0.0
H1975 H 0.65371 0.92265 0.6814 0.0
H1976 H 0.66291 0.89947 0.59743 0.0
H1977 H 0.6577 0.9694 0.62981 0.0
H1978 H 0.60646 0.87641 0.62117 0.0
H1979 H 0.63402 0.86799 0.6354 0.0
H1980 H 0.63265 0.87 0.60317 0.0
H1981 H 0.5995 0.959 0.6585 0.0
H1982 H 0.62322 0.98039 0.65292 0.0
H1983 H 0.62639 0.95817 0.67614 0.0
C1984 C 0.43058 0.58755 0.66732 0.0
C1985 C 0.42042 0.60929 0.67482 0.0
C1986 C 0.41708 0.5712 0.65361 0.0
C1987 C 0.39309 0.57699 0.64749 0.0
C1988 C 0.38364 0.59986 0.65351 0.0
C1989 C 0.39744 0.61564 0.66718 0.0
C1990 C 0.42804 0.54725 0.64736 0.0
C1991 C 0.35827 0.6071 0.64708 0.0
C1992 C 0.34806 0.55268 0.60486 0.0
C1993 C 0.33123 0.54382 0.62141 0.0
C1994 C 0.37084 0.56005 0.6125 0.0
C1995 C 0.37647 0.55893 0.63721 0.0
C1996 C 0.36122 0.54614 0.65304 0.0
C1997 C 0.33863 0.53862 0.64489 0.0
C1998 C 0.38737 0.57217 0.59482 0.0
C1999 C 0.36712 0.54364 0.67937 0.0
H2000 H 0.44833 0.58257 0.67356 0.0
H2001 H 0.38974 0.63255 0.67304 0.0
H2002 H 0.42526 0.53466 0.66256 0.0
H2003 H 0.41986 0.53929 0.63104 0.0
H2004 H 0.4477 0.54899 0.64452 0.0
H2005 H 0.35416 0.62589 0.65238 0.0
H2006 H 0.35537 0.60538 0.62746 0.0
H2007 H 0.3453 0.59507 0.65624 0.0
H2008 H 0.34271 0.5559 0.58642 0.0
H2009 H 0.32592 0.53123 0.65765 0.0
H2010 H 0.40644 0.56847 0.59923 0.0
H2011 H 0.38459 0.59188 0.59566 0.0
H2012 H 0.38371 0.56617 0.57614 0.0
H2013 H 0.38626 0.53879 0.68185 0.0
H2014 H 0.35577 0.52983 0.68824 0.0
H2015 H 0.36403 0.56108 0.68851 0.0
C2016 C 0.68391 0.1062 0.87304 0.0
C2017 C 0.69377 0.0849 0.86383 0.0
C2018 C 0.66138 0.11439 0.86539 0.0
C2019 C 0.64858 0.10106 0.84801 0.0
C2020 C 0.65754 0.07861 0.84013 0.0
C2021 C 0.68003 0.07078 0.84816 0.0
C2022 C 0.65219 0.13819 0.87452 0.0
C2023 C 0.64433 0.06378 0.82167 0.0
C2024 C 0.58611 0.11644 0.82539 0.0
C2025 C 0.59191 0.12765 0.80366 0.0
C2026 C 0.6044 0.10865 0.84098 0.0
C2027 C 0.62871 0.11247 0.83451 0.0
C2028 C 0.63436 0.1254 0.81337 0.0
C2029 C 0.61586 0.13267 0.79816 0.0
C2030 C 0.59774 0.095 0.8634 0.0
C2031 C 0.66002 0.13018 0.80593 0.0
H2032 H 0.69414 0.117 0.88558 0.0
H2033 H 0.68729 0.05411 0.84121 0.0
H2034 H 0.65501 0.15212 0.86056 0.0
H2035 H 0.63265 0.13728 0.87824 0.0
H2036 H 0.66164 0.14393 0.89112 0.0
H2037 H 0.65195 0.04543 0.81993 0.0
H2038 H 0.62506 0.06228 0.8264 0.0
H2039 H 0.64549 0.07275 0.8039 0.0
H2040 H 0.5675 0.11243 0.82945 0.0
H2041 H 0.62021 0.14153 0.78135 0.0
H2042 H 0.60928 0.10036 0.87872 0.0
H2043 H 0.60054 0.07553 0.8603 0.0
H2044 H 0.57864 0.09786 0.86839 0.0
H2045 H 0.6701 0.13863 0.82088 0.0
H2046 H 0.66118 0.1421 0.78997 0.0
H2047 H 0.66904 0.11296 0.80156 0.0
C2048 C 0.29089 0.41411 0.83708 0.0
C2049 C 0.27515 0.39541 0.84323 0.0
C2050 C 0.31294 0.40937 0.82595 0.0
C2051 C 0.31931 0.38538 0.82061 0.0
C2052 C 0.30369 0.36639 0.82698 0.0
C2053 C 0.28182 0.37162 0.83832 0.0
C2054 C 0.3292 0.43009 0.8195 0.0
C2055 C 0.3098 0.34061 0.82125 0.0
C2056 C 0.36184 0.37664 0.76841 0.0
C2057 C 0.3836 0.37194 0.78013 0.0
C2058 C 0.34076 0.38069 0.78142 0.0
C2059 C 0.34151 0.38035 0.8068 0.0
C2060 C 0.36342 0.37561 0.8188 0.0
C2061 C 0.38426 0.37128 0.80527 0.0
C2062 C 0.31769 0.38547 0.76797 0.0
C2063 C 0.36487 0.37544 0.84588 0.0
H2064 H 0.28602 0.43255 0.84093 0.0
H2065 H 0.2698 0.35706 0.84301 0.0
H2066 H 0.3474 0.4271 0.82701 0.0
H2067 H 0.33109 0.43128 0.79969 0.0
H2068 H 0.32228 0.44754 0.82624 0.0
H2069 H 0.29624 0.32785 0.8284 0.0
H2070 H 0.31098 0.33823 0.8015 0.0
H2071 H 0.32759 0.3359 0.82884 0.0
H2072 H 0.36124 0.37705 0.74895 0.0
H2073 H 0.4011 0.36775 0.81434 0.0
H2074 H 0.3108 0.40359 0.77252 0.0
H2075 H 0.30377 0.37231 0.77345 0.0
H2076 H 0.32006 0.38438 0.74819 0.0
H2077 H 0.35946 0.39323 0.85303 0.0
H2078 H 0.38323 0.37123 0.85244 0.0
H2079 H 0.35221 0.36201 0.85332 0.0
C2080 C 0.65001 0.66762 0.93192 0.0
C2081 C 0.6375 0.68099 0.91465 0.0
C2082 C 0.66083 0.64569 0.92591 0.0
C2083 C 0.65938 0.63721 0.90197 0.0
C2084 C 0.64538 0.64975 0.88493 0.0
C2085 C 0.63447 0.67141 0.8915 0.0
C2086 C 0.67521 0.63249 0.9447 0.0
C2087 C 0.64359 0.64146 0.85915 0.0
C2088 C 0.7146 0.60612 0.87804 0.0
C2089 C 0.70705 0.58222 0.87673 0.0
C2090 C 0.69914 0.6241 0.88614 0.0
C2091 C 0.6757 0.6179 0.89373 0.0
C2092 C 0.66801 0.59368 0.89273 0.0
C2093 C 0.68376 0.57606 0.88388 0.0
C2094 C 0.70788 0.6498 0.8864 0.0
C2095 C 0.64334 0.58643 0.90124 0.0
H2096 H 0.65212 0.67467 0.94998 0.0
H2097 H 0.62467 0.68141 0.87805 0.0
H2098 H 0.67176 0.6129 0.94376 0.0
H2099 H 0.69463 0.63532 0.94135 0.0
H2100 H 0.67103 0.63889 0.96314 0.0
H2101 H 0.62946 0.65126 0.84907 0.0
H2102 H 0.66104 0.64449 0.85002 0.0
H2103 H 0.63971 0.62196 0.85825 0.0
H2104 H 0.73263 0.61083 0.87241 0.0
H2105 H 0.67813 0.55745 0.88314 0.0
H2106 H 0.70744 0.65695 0.90499 0.0
H2107 H 0.69585 0.66119 0.87534 0.0
H2108 H 0.72646 0.65157 0.87938 0.0
H2109 H 0.64102 0.59158 0.92036 0.0
H2110 H 0.64021 0.56682 0.89947 0.0
H2111 H 0.6294 0.5961 0.89083 0.0
C2112 C 0.62545 0.32198 0.5538 0.0
C2113 C 0.60339 0.31132 0.55936 0.0
C2114 C 0.62995 0.34597 0.55985 0.0
C2115 C 0.6117 0.35965 0.57118 0.0
C2116 C 0.58837 0.34996 0.5735 0.0
C2117 C 0.58457 0.32567 0.568 0.0
C2118 C 0.65509 0.35567 0.5568 0.0
C2119 C 0.56807 0.36447 0.58401 0.0
C2120 C 0.63961 0.39452 0.62152 0.0
C2121 C 0.64519 0.41611 0.61008 0.0
C2122 C 0.62657 0.37671 0.60968 0.0
C2123 C 0.6188 0.38079 0.58579 0.0
C2124 C 0.62189 0.40375 0.57525 0.0
C2125 C 0.63532 0.42126 0.58755 0.0
C2126 C 0.62369 0.35259 0.62182 0.0
C2127 C 0.6131 0.40922 0.55024 0.0
H2128 H 0.63997 0.31099 0.54689 0.0
H2129 H 0.56726 0.31761 0.57174 0.0
H2130 H 0.65464 0.37373 0.54847 0.0
H2131 H 0.6637 0.35749 0.57468 0.0
H2132 H 0.66644 0.34375 0.54552 0.0
H2133 H 0.55035 0.35708 0.57867 0.0
H2134 H 0.56919 0.36404 0.6039 0.0
H2135 H 0.5692 0.3835 0.57823 0.0
H2136 H 0.6474 0.3907 0.63897 0.0
H2137 H 0.63993 0.43794 0.57863 0.0
H2138 H 0.63459 0.33894 0.61221 0.0
H2139 H 0.60471 0.34669 0.62118 0.0
H2140 H 0.6295 0.35296 0.6409 0.0
H2141 H 0.62761 0.40534 0.53716 0.0
H2142 H 0.60841 0.42852 0.54847 0.0
H2143 H 0.59721 0.39822 0.54542 0.0
C2144 C 0.26615 0.11369 0.60946 0.0
C2145 C 0.27694 0.09155 0.61459 0.0
C2146 C 0.28001 0.13381 0.6037 0.0
C2147 C 0.30527 0.13163 0.60262 0.0
C2148 C 0.31627 0.10911 0.60694 0.0
C2149 C 0.30193 0.0893 0.61313 0.0
C2150 C 0.26763 0.1576 0.59955 0.0
C2151 C 0.34315 0.10608 0.60545 0.0
C2152 C 0.33633 0.1829 0.57043 0.0
C2153 C 0.34357 0.19729 0.58979 0.0
C2154 C 0.32481 0.16085 0.57434 0.0
C2155 C 0.32003 0.15332 0.59814 0.0
C2156 C 0.32765 0.16758 0.61774 0.0
C2157 C 0.33951 0.1893 0.61333 0.0
C2158 C 0.31729 0.1459 0.55302 0.0
C2159 C 0.32248 0.16034 0.64338 0.0
H2160 H 0.24682 0.11552 0.6106 0.0
H2161 H 0.31028 0.07214 0.61693 0.0
H2162 H 0.27372 0.17082 0.61315 0.0
H2163 H 0.27248 0.16484 0.58164 0.0
H2164 H 0.24778 0.15612 0.60063 0.0
H2165 H 0.34872 0.08704 0.60751 0.0
H2166 H 0.34986 0.11288 0.58796 0.0
H2167 H 0.35192 0.11683 0.61973 0.0
H2168 H 0.33968 0.18884 0.55219 0.0
H2169 H 0.34501 0.20036 0.62837 0.0
H2170 H 0.29742 0.14531 0.55192 0.0
H2171 H 0.32366 0.12715 0.55517 0.0
H2172 H 0.32436 0.15315 0.53582 0.0
H2173 H 0.30279 0.15986 0.64636 0.0
H2174 H 0.33057 0.17289 0.65659 0.0
H2175 H 0.32945 0.14203 0.64692 0.0
C2176 C 0.83365 0.39031 0.37324 0.0
C2177 C 0.8281 0.41384 0.37986 0.0
C2178 C 0.84738 0.37561 0.38815 0.0
C2179 C 0.85575 0.3847 0.41041 0.0
C2180 C 0.85175 0.40911 0.41638 0.0
C2181 C 0.83784 0.4235 0.40094 0.0
C2182 C 0.85146 0.34981 0.38072 0.0
C2183 C 0.86064 0.41969 0.43966 0.0
C2184 C 0.85812 0.33065 0.44979 0.0
C2185 C 0.88073 0.32176 0.44322 0.0
C2186 C 0.85067 0.35343 0.4421 0.0
C2187 C 0.86633 0.36748 0.4278 0.0
C2188 C 0.89049 0.36031 0.42494 0.0
C2189 C 0.89739 0.33731 0.43248 0.0
C2190 C 0.82493 0.36082 0.44623 0.0
C2191 C 0.90811 0.37543 0.41102 0.0
H2192 H 0.82617 0.38298 0.35682 0.0
H2193 H 0.83332 0.4417 0.40615 0.0
H2194 H 0.87089 0.34553 0.38099 0.0
H2195 H 0.84239 0.33758 0.39358 0.0
H2196 H 0.84447 0.34596 0.36243 0.0
H2197 H 0.86385 0.43928 0.43782 0.0
H2198 H 0.84677 0.41712 0.45373 0.0
H2199 H 0.87743 0.41094 0.44584 0.0
H2200 H 0.84528 0.3189 0.4585 0.0
H2201 H 0.91518 0.33078 0.42804 0.0
H2202 H 0.81447 0.35779 0.42954 0.0
H2203 H 0.82377 0.38019 0.45067 0.0
H2204 H 0.81647 0.35033 0.46094 0.0
H2205 H 0.90552 0.37229 0.3915 0.0
H2206 H 0.92693 0.37073 0.41562 0.0
H2207 H 0.90518 0.39482 0.41454 0.0
C2208 C 0.5915 0.88787 0.8406 0.0
C2209 C 0.57531 0.87568 0.82561 0.0
C2210 C 0.59772 0.87856 0.86315 0.0
C2211 C 0.58777 0.85645 0.87061 0.0
C2212 C 0.56934 0.84564 0.85686 0.0
C2213 C 0.56327 0.85544 0.83451 0.0
C2214 C 0.61678 0.89106 0.87776 0.0
C2215 C 0.55801 0.82218 0.86435 0.0
C2216 C 0.62793 0.80869 0.89608 0.0
C2217 C 0.61931 0.80657 0.91955 0.0
C2218 C 0.6189 0.82611 0.88056 0.0
C2219 C 0.60051 0.84166 0.8887 0.0
C2220 C 0.5929 0.84074 0.91299 0.0
C2221 C 0.60252 0.82308 0.9283 0.0
C2222 C 0.62789 0.82664 0.85492 0.0
C2223 C 0.57355 0.85718 0.92238 0.0
H2224 H 0.6004 0.90395 0.83419 0.0
H2225 H 0.55035 0.84614 0.82332 0.0
H2226 H 0.61287 0.88971 0.89726 0.0
H2227 H 0.63437 0.88232 0.87447 0.0
H2228 H 0.61837 0.91031 0.87278 0.0
H2229 H 0.5415 0.81821 0.8539 0.0
H2230 H 0.571 0.80736 0.8614 0.0
H2231 H 0.55342 0.82244 0.88373 0.0
H2232 H 0.64113 0.79596 0.88952 0.0
H2233 H 0.59583 0.82125 0.9465 0.0
H2234 H 0.63346 0.84508 0.8499 0.0
H2235 H 0.61326 0.82119 0.84256 0.0
H2236 H 0.64338 0.81441 0.85206 0.0
H2237 H 0.5748 0.87528 0.91418 0.0
H2238 H 0.57451 0.85895 0.94224 0.0
H2239 H 0.55573 0.84961 0.91775 0.0
C2240 C 0.38211 0.65867 0.80169 0.0
C2241 C 0.40535 0.65218 0.79457 0.0
C2242 C 0.37801 0.66951 0.82404 0.0
C2243 C 0.39757 0.67351 0.83974 0.0
C2244 C 0.42091 0.66602 0.83309 0.0
C2245 C 0.42456 0.65567 0.81046 0.0
C2246 C 0.35294 0.67768 0.83036 0.0
C2247 C 0.44213 0.66963 0.84956 0.0
C2248 C 0.39327 0.72664 0.88164 0.0
C2249 C 0.38612 0.7158 0.9032 0.0
C2250 C 0.39704 0.71301 0.86091 0.0
C2251 C 0.39405 0.68782 0.86189 0.0
C2252 C 0.38738 0.67663 0.88375 0.0
C2253 C 0.38322 0.69084 0.90418 0.0
C2254 C 0.4038 0.72565 0.83785 0.0
C2255 C 0.3846 0.64974 0.88548 0.0
H2256 H 0.3672 0.656 0.78948 0.0
H2257 H 0.44252 0.65034 0.80518 0.0
H2258 H 0.34764 0.67064 0.84822 0.0
H2259 H 0.35249 0.69756 0.83146 0.0
H2260 H 0.33946 0.67178 0.8169 0.0
H2261 H 0.45848 0.66035 0.84291 0.0
H2262 H 0.44614 0.68907 0.85114 0.0
H2263 H 0.43794 0.66293 0.86786 0.0
H2264 H 0.39542 0.74596 0.88079 0.0
H2265 H 0.37783 0.68245 0.9209 0.0
H2266 H 0.39026 0.72178 0.82377 0.0
H2267 H 0.42132 0.71888 0.83123 0.0
H2268 H 0.40511 0.74541 0.84013 0.0
H2269 H 0.37004 0.64365 0.87334 0.0
H2270 H 0.38035 0.64376 0.90404 0.0
H2271 H 0.40136 0.64077 0.87953 0.0
C2272 C 0.55398 0.13638 0.66974 0.0
C2273 C 0.56868 0.11901 0.68052 0.0
C2274 C 0.55981 0.14587 0.64714 0.0
C2275 C 0.5809 0.13793 0.63536 0.0
C2276 C 0.59375 0.11811 0.64459 0.0
C2277 C 0.58739 0.10877 0.66705 0.0
C2278 C 0.54507 0.16636 0.63732 0.0
C2279 C 0.61606 0.10879 0.63234 0.0
C2280 C 0.59928 0.16735 0.57644 0.0
C2281 C 0.61266 0.1868 0.58504 0.0
C2282 C 0.58892 0.15085 0.5925 0.0
C2283 C 0.59259 0.15385 0.6175 0.0
C2284 C 0.60715 0.1729 0.626 0.0
C2285 C 0.61668 0.18934 0.60964 0.0
C2286 C 0.57304 0.13121 0.58278 0.0
C2287 C 0.61206 0.17646 0.65247 0.0
H2288 H 0.53912 0.14404 0.67971 0.0
H2289 H 0.59845 0.0948 0.67489 0.0
H2290 H 0.55427 0.18358 0.64129 0.0
H2291 H 0.54319 0.16489 0.61754 0.0
H2292 H 0.52691 0.16696 0.64555 0.0
H2293 H 0.62103 0.09062 0.6389 0.0
H2294 H 0.61362 0.10806 0.61259 0.0
H2295 H 0.63122 0.12115 0.63611 0.0
H2296 H 0.5958 0.16582 0.55733 0.0
H2297 H 0.627 0.20452 0.61613 0.0
H2298 H 0.55399 0.13661 0.58496 0.0
H2299 H 0.57563 0.11417 0.59275 0.0
H2300 H 0.5764 0.12794 0.56338 0.0
H2301 H 0.59509 0.18078 0.66197 0.0
H2302 H 0.62504 0.19121 0.65585 0.0
H2303 H 0.61933 0.15972 0.66045 0.0
C2304 C 0.42815 0.39797 0.64971 0.0
C2305 C 0.43985 0.38399 0.66712 0.0
C2306 C 0.42399 0.38876 0.62667 0.0
C2307 C 0.43152 0.36512 0.62139 0.0
C2308 C 0.44789 0.35348 0.63695 0.0
C2309 C 0.45188 0.36308 0.65988 0.0
C2310 C 0.4079 0.40248 0.60979 0.0
C2311 C 0.45763 0.32889 0.6312 0.0
C2312 C 0.3823 0.3224 0.60359 0.0
C2313 C 0.38801 0.31721 0.57976 0.0
C2314 C 0.39582 0.33875 0.61682 0.0
C2315 C 0.41594 0.35001 0.60597 0.0
C2316 C 0.42126 0.34558 0.58148 0.0
C2317 C 0.40706 0.32918 0.56852 0.0
C2318 C 0.38894 0.34318 0.64275 0.0
C2319 C 0.44253 0.35696 0.56919 0.0
H2320 H 0.41976 0.41477 0.65485 0.0
H2321 H 0.4618 0.35257 0.67292 0.0
H2322 H 0.41259 0.39875 0.59078 0.0
H2323 H 0.38902 0.39681 0.61273 0.0
H2324 H 0.40906 0.42211 0.61308 0.0
H2325 H 0.474 0.32487 0.64186 0.0
H2326 H 0.44384 0.31519 0.63559 0.0
H2327 H 0.46193 0.32732 0.61181 0.0
H2328 H 0.3674 0.31318 0.61212 0.0
H2329 H 0.41157 0.32488 0.55007 0.0
H2330 H 0.38615 0.36263 0.64592 0.0
H2331 H 0.40356 0.33705 0.6548 0.0
H2332 H 0.37224 0.33361 0.64795 0.0
H2333 H 0.44719 0.37463 0.5771 0.0
H2334 H 0.43908 0.35932 0.54968 0.0
H2335 H 0.4583 0.34495 0.57111 0.0
C2336 C 0.90079 0.61849 0.84293 0.0
C2337 C 0.92385 0.61159 0.83592 0.0
C2338 C 0.8853 0.60226 0.8541 0.0
C2339 C 0.89313 0.57843 0.85837 0.0
C2340 C 0.91723 0.57198 0.85339 0.0
C2341 C 0.93247 0.58881 0.84223 0.0
C2342 C 0.85989 0.61019 0.85943 0.0
C2343 C 0.92669 0.54724 0.85903 0.0
C2344 C 0.84407 0.55097 0.89469 0.0
C2345 C 0.82839 0.54421 0.87614 0.0
C2346 C 0.86741 0.55881 0.88955 0.0
C2347 C 0.87486 0.56029 0.86535 0.0
C2348 C 0.86051 0.5498 0.84712 0.0
C2349 C 0.83734 0.54171 0.85279 0.0
C2350 C 0.88276 0.56849 0.90963 0.0
C2351 C 0.86844 0.54978 0.82122 0.0
H2352 H 0.89426 0.6362 0.83815 0.0
H2353 H 0.95038 0.5835 0.83678 0.0
H2354 H 0.84715 0.60004 0.84796 0.0
H2355 H 0.85528 0.6064 0.87843 0.0
H2356 H 0.85715 0.62967 0.8561 0.0
H2357 H 0.94333 0.54316 0.84881 0.0
H2358 H 0.93094 0.54624 0.87847 0.0
H2359 H 0.91314 0.53319 0.85515 0.0
H2360 H 0.83741 0.55221 0.91295 0.0
H2361 H 0.82544 0.53602 0.83847 0.0
H2362 H 0.88097 0.58831 0.91033 0.0
H2363 H 0.90196 0.5642 0.90652 0.0
H2364 H 0.87721 0.56109 0.92732 0.0
H2365 H 0.87004 0.56851 0.81458 0.0
H2366 H 0.85576 0.53992 0.80941 0.0
H2367 H 0.88634 0.54128 0.81976 0.0
C2368 C 0.20797 0.9203 0.84014 0.0
C2369 C 0.22376 0.90112 0.84437 0.0
C2370 C 0.1853 0.91643 0.82999 0.0
C2371 C 0.1784 0.89285 0.82362 0.0
C2372 C 0.19401 0.87335 0.82826 0.0
C2373 C 0.21647 0.8777 0.83872 0.0
C2374 C 0.16903 0.93764 0.82548 0.0
C2375 C 0.18735 0.84799 0.82136 0.0
C2376 C 0.11345 0.87836 0.80869 0.0
C2377 C 0.11388 0.87959 0.78357 0.0
C2378 C 0.13425 0.8831 0.82214 0.0
C2379 C 0.15587 0.88884 0.81004 0.0
C2380 C 0.15626 0.89035 0.7847 0.0
C2381 C 0.13522 0.88585 0.7718 0.0
C2382 C 0.13318 0.88176 0.84919 0.0
C2383 C 0.17901 0.89626 0.77113 0.0
H2384 H 0.21332 0.93844 0.84469 0.0
H2385 H 0.22853 0.86278 0.84195 0.0
H2386 H 0.1669 0.94043 0.80587 0.0
H2387 H 0.15091 0.93415 0.83298 0.0
H2388 H 0.17614 0.95446 0.8335 0.0
H2389 H 0.20087 0.83467 0.82749 0.0
H2390 H 0.16967 0.84315 0.82913 0.0
H2391 H 0.18569 0.84667 0.80154 0.0
H2392 H 0.09692 0.87362 0.81782 0.0
H2393 H 0.13567 0.8868 0.75236 0.0
H2394 H 0.1396 0.89887 0.85712 0.0
H2395 H 0.14526 0.86734 0.85572 0.0
H2396 H 0.11475 0.87814 0.85587 0.0
H2397 H 0.18605 0.91394 0.77697 0.0
H2398 H 0.1762 0.89678 0.75138 0.0
H2399 H 0.19301 0.88268 0.77517 0.0
C2400 C 0.87589 0.38474 0.68078 0.0
C2401 C 0.869 0.37673 0.70363 0.0
C2402 C 0.85858 0.39252 0.66415 0.0
C2403 C 0.83401 0.39188 0.67061 0.0
C2404 C 0.82709 0.38382 0.69369 0.0
C2405 C 0.84468 0.37647 0.70992 0.0
C2406 C 0.86649 0.40138 0.63979 0.0
C2407 C 0.80103 0.38268 0.70123 0.0
C2408 C 0.78305 0.42699 0.64372 0.0
C2409 C 0.77065 0.40877 0.63153 0.0
C2410 C 0.80521 0.4224 0.65466 0.0
C2411 C 0.81505 0.39902 0.65343 0.0
C2412 C 0.80373 0.38121 0.63933 0.0
C2413 C 0.78164 0.3863 0.6285 0.0
C2414 C 0.81693 0.44197 0.66929 0.0
C2415 C 0.8137 0.35606 0.63756 0.0
H2416 H 0.89474 0.38508 0.67598 0.0
H2417 H 0.83928 0.37023 0.72756 0.0
H2418 H 0.85849 0.39007 0.62549 0.0
H2419 H 0.85997 0.41997 0.63689 0.0
H2420 H 0.88632 0.40115 0.63775 0.0
H2421 H 0.79876 0.37581 0.71983 0.0
H2422 H 0.79283 0.40079 0.70019 0.0
H2423 H 0.7909 0.37081 0.68885 0.0
H2424 H 0.77494 0.44458 0.64581 0.0
H2425 H 0.77245 0.37224 0.61874 0.0
H2426 H 0.83665 0.44201 0.66655 0.0
H2427 H 0.81354 0.43868 0.68865 0.0
H2428 H 0.80974 0.46001 0.66469 0.0
H2429 H 0.83338 0.35642 0.63458 0.0
H2430 H 0.80519 0.34569 0.62281 0.0
H2431 H 0.81039 0.34647 0.65471 0.0
C2432 C 0.09616 0.11603 0.67497 0.0
C2433 C 0.07344 0.1103 0.68377 0.0
C2434 C 0.10917 0.09956 0.66131 0.0
C2435 C 0.09929 0.07654 0.65668 0.0
C2436 C 0.07567 0.07114 0.66438 0.0
C2437 C 0.06289 0.08825 0.67786 0.0
C2438 C 0.13414 0.10642 0.65311 0.0
C2439 C 0.06438 0.04695 0.65994 0.0
C2440 C 0.14084 0.05188 0.61107 0.0
C2441 C 0.15927 0.04416 0.62641 0.0
C2442 C 0.11853 0.05878 0.62039 0.0
C2443 C 0.11501 0.05819 0.64551 0.0
C2444 C 0.13176 0.04602 0.66025 0.0
C2445 C 0.1539 0.03908 0.65047 0.0
C2446 C 0.10038 0.0702 0.60389 0.0
C2447 C 0.12797 0.04384 0.687 0.0
H2448 H 0.10418 0.13313 0.67969 0.0
H2449 H 0.0454 0.08372 0.68511 0.0
H2450 H 0.1476 0.09466 0.6619 0.0
H2451 H 0.13586 0.10396 0.63342 0.0
H2452 H 0.13861 0.12536 0.65744 0.0
H2453 H 0.04455 0.04853 0.65848 0.0
H2454 H 0.07141 0.03832 0.64341 0.0
H2455 H 0.06832 0.03499 0.67539 0.0
H2456 H 0.14463 0.05495 0.5922 0.0
H2457 H 0.16785 0.03247 0.66232 0.0
H2458 H 0.10289 0.08997 0.60405 0.0
H2459 H 0.0818 0.06633 0.60997 0.0
H2460 H 0.10259 0.06381 0.58512 0.0
H2461 H 0.13176 0.0614 0.69564 0.0
H2462 H 0.14003 0.03015 0.69506 0.0
H2463 H 0.10909 0.03901 0.69106 0.0
C2464 C 0.80483 0.9428 0.58268 0.0
C2465 C 0.78948 0.93392 0.60047 0.0
C2466 C 0.82316 0.92823 0.57318 0.0
C2467 C 0.8261 0.90458 0.5821 0.0
C2468 C 0.81111 0.89613 0.60087 0.0
C2469 C 0.79277 0.91083 0.60955 0.0
C2470 C 0.83839 0.93772 0.55289 0.0
C2471 C 0.81388 0.87122 0.61133 0.0
C2472 C 0.84902 0.84898 0.55234 0.0
C2473 C 0.86948 0.84464 0.56638 0.0
C2474 C 0.83616 0.87048 0.55477 0.0
C2475 C 0.84393 0.88779 0.57167 0.0
C2476 C 0.86643 0.88501 0.58305 0.0
C2477 C 0.87901 0.86342 0.58023 0.0
C2478 C 0.81266 0.87322 0.54158 0.0
C2479 C 0.87569 0.90335 0.6007 0.0
H2480 H 0.80181 0.96063 0.57546 0.0
H2481 H 0.78068 0.90413 0.62328 0.0
H2482 H 0.85734 0.93191 0.55473 0.0
H2483 H 0.83154 0.93049 0.53565 0.0
H2484 H 0.83778 0.95764 0.55194 0.0
H2485 H 0.80163 0.86806 0.62676 0.0
H2486 H 0.81002 0.85757 0.59735 0.0
H2487 H 0.8326 0.86839 0.6175 0.0
H2488 H 0.84181 0.83485 0.54108 0.0
H2489 H 0.89524 0.86057 0.59057 0.0
H2490 H 0.81006 0.89203 0.53558 0.0
H2491 H 0.79767 0.86863 0.55388 0.0
H2492 H 0.81167 0.86117 0.52572 0.0
H2493 H 0.87199 0.92187 0.59438 0.0
H2494 H 0.89529 0.90135 0.60376 0.0
H2495 H 0.86637 0.90092 0.61816 0.0
C2496 C 0.82578 0.08445 0.87558 0.0
C2497 C 0.81879 0.06091 0.88051 0.0
C2498 C 0.84352 0.09569 0.88916 0.0
C2499 C 0.85445 0.083 0.90834 0.0
C2500 C 0.84886 0.05848 0.91213 0.0
C2501 C 0.83095 0.04762 0.89805 0.0
C2502 C 0.8491 0.12178 0.88412 0.0
C2503 C 0.86032 0.04415 0.93204 0.0
C2504 C 0.90292 0.12397 0.92906 0.0
C2505 C 0.88936 0.13915 0.94397 0.0
C2506 C 0.893 0.1027 0.92 0.0
C2507 C 0.869 0.09689 0.92575 0.0
C2508 C 0.85689 0.10993 0.94391 0.0
C2509 C 0.86729 0.13096 0.95289 0.0
C2510 C 0.90699 0.08832 0.90181 0.0
C2511 C 0.83154 0.10374 0.95124 0.0
H2512 H 0.81637 0.09456 0.86183 0.0
H2513 H 0.82533 0.0294 0.90193 0.0
H2514 H 0.84334 0.133 0.89956 0.0
H2515 H 0.86869 0.12434 0.88174 0.0
H2516 H 0.8399 0.12849 0.86774 0.0
H2517 H 0.86153 0.02487 0.92709 0.0
H2518 H 0.87853 0.05084 0.9365 0.0
H2519 H 0.84901 0.04548 0.9484 0.0
H2520 H 0.92044 0.12966 0.92277 0.0
H2521 H 0.85696 0.14214 0.96504 0.0
H2522 H 0.90196 0.09423 0.88345 0.0
H2523 H 0.90282 0.0689 0.90335 0.0
H2524 H 0.92663 0.09096 0.90401 0.0
H2525 H 0.81896 0.10948 0.93688 0.0
H2526 H 0.82627 0.11285 0.9682 0.0
H2527 H 0.82949 0.08409 0.95361 0.0
C2528 C 0.13046 0.34209 0.97022 0.0
C2529 C 0.10723 0.33434 0.96449 0.0
C2530 C 0.13849 0.36467 0.96257 0.0
C2531 C 0.1228 0.37955 0.94923 0.0
C2532 C 0.0981 0.37394 0.94836 0.0
C2533 C 0.09055 0.3511 0.95578 0.0
C2534 C 0.16465 0.37091 0.96543 0.0
C2535 C 0.08043 0.39038 0.93615 0.0
C2536 C 0.15385 0.4312 0.91704 0.0
C2537 C 0.16036 0.41982 0.89554 0.0
C2538 C 0.14021 0.41898 0.93445 0.0
C2539 C 0.13319 0.39493 0.93009 0.0
C2540 C 0.13833 0.38416 0.90756 0.0
C2541 C 0.15178 0.3968 0.89061 0.0
C2542 C 0.13482 0.43147 0.95786 0.0
C2543 C 0.13114 0.3586 0.90181 0.0
H2544 H 0.14329 0.32953 0.97774 0.0
H2545 H 0.07224 0.34555 0.95225 0.0
H2546 H 0.17392 0.36913 0.94786 0.0
H2547 H 0.16643 0.38979 0.97141 0.0
H2548 H 0.17378 0.35908 0.97865 0.0
H2549 H 0.06186 0.38708 0.94262 0.0
H2550 H 0.08517 0.40948 0.93928 0.0
H2551 H 0.08084 0.38707 0.91649 0.0
H2552 H 0.16067 0.449 0.92094 0.0
H2553 H 0.15674 0.38812 0.87389 0.0
H2554 H 0.15085 0.43042 0.96964 0.0
H2555 H 0.11937 0.42334 0.96745 0.0
H2556 H 0.13102 0.45079 0.95472 0.0
H2557 H 0.1397 0.34607 0.91472 0.0
H2558 H 0.13645 0.35315 0.88337 0.0
H2559 H 0.11142 0.35649 0.90346 0.0
C2560 C 0.65061 0.17228 0.06721 0.0
C2561 C 0.63317 0.18552 0.07963 0.0
C2562 C 0.65948 0.15069 0.07659 0.0
C2563 C 0.6506 0.14213 0.09884 0.0
C2564 C 0.63152 0.15427 0.11036 0.0
C2565 C 0.6231 0.17591 0.10068 0.0
C2566 C 0.67977 0.13815 0.06366 0.0
C2567 C 0.62128 0.14542 0.13385 0.0
C2568 C 0.67569 0.08157 0.11748 0.0
C2569 C 0.69629 0.08891 0.12983 0.0
C2570 C 0.65954 0.09869 0.10834 0.0
C2571 C 0.66429 0.12343 0.1119 0.0
C2572 C 0.68408 0.13062 0.12609 0.0
C2573 C 0.69991 0.11324 0.13474 0.0
C2574 C 0.63853 0.09037 0.09344 0.0
C2575 C 0.68965 0.15679 0.13063 0.0
H2576 H 0.65831 0.17937 0.05079 0.0
H2577 H 0.60923 0.18574 0.11016 0.0
H2578 H 0.69667 0.14064 0.0739 0.0
H2579 H 0.6763 0.11858 0.0625 0.0
H2580 H 0.68248 0.14527 0.04521 0.0
H2581 H 0.60377 0.15401 0.13802 0.0
H2582 H 0.61884 0.12566 0.1335 0.0
H2583 H 0.63397 0.14963 0.1486 0.0
H2584 H 0.6731 0.0627 0.11351 0.0
H2585 H 0.71588 0.11878 0.14441 0.0
H2586 H 0.64286 0.09267 0.07412 0.0
H2587 H 0.62229 0.10122 0.09731 0.0
H2588 H 0.63439 0.07113 0.09666 0.0
H2589 H 0.69483 0.16558 0.1135 0.0
H2590 H 0.70453 0.15919 0.14369 0.0
H2591 H 0.67356 0.16622 0.1376 0.0
C2592 C 0.38137 0.22248 0.11673 0.0
C2593 C 0.37818 0.2121 0.09405 0.0
C2594 C 0.3868 0.20843 0.13676 0.0
C2595 C 0.38953 0.18335 0.13397 0.0
C2596 C 0.38605 0.17263 0.11115 0.0
C2597 C 0.38017 0.18719 0.09137 0.0
C2598 C 0.38997 0.22053 0.16086 0.0
C2599 C 0.38916 0.14596 0.10757 0.0
C2600 C 0.42731 0.15693 0.1837 0.0
C2601 C 0.40963 0.14875 0.19967 0.0
C2602 C 0.42105 0.1668 0.16141 0.0
C2603 C 0.39654 0.16878 0.1551 0.0
C2604 C 0.37866 0.15966 0.17065 0.0
C2605 C 0.38543 0.14965 0.19273 0.0
C2606 C 0.44063 0.17616 0.14515 0.0
C2607 C 0.35231 0.16171 0.16463 0.0
H2608 H 0.37963 0.24176 0.11884 0.0
H2609 H 0.37785 0.17921 0.07377 0.0
H2610 H 0.37783 0.21227 0.17434 0.0
H2611 H 0.40863 0.21796 0.16731 0.0
H2612 H 0.38619 0.24009 0.16009 0.0
H2613 H 0.38488 0.1403 0.08892 0.0
H2614 H 0.40796 0.14081 0.11163 0.0
H2615 H 0.37746 0.13592 0.12018 0.0
H2616 H 0.44608 0.156 0.18874 0.0
H2617 H 0.37163 0.14327 0.20487 0.0
H2618 H 0.44002 0.19607 0.14478 0.0
H2619 H 0.43786 0.16977 0.12649 0.0
H2620 H 0.45877 0.17054 0.15123 0.0
H2621 H 0.34681 0.18084 0.16543 0.0
H2622 H 0.34088 0.15133 0.17726 0.0
H2623 H 0.34886 0.15531 0.1461 0.0
C2624 C 0.55683 0.35392 0.13667 0.0
C2625 C 0.56466 0.37712 0.14243 0.0
C2626 C 0.56247 0.34373 0.11437 0.0
C2627 C 0.57599 0.35723 0.09757 0.0
C2628 C 0.58005 0.38191 0.10171 0.0
C2629 C 0.57458 0.39157 0.12431 0.0
C2630 C 0.55703 0.3175 0.11029 0.0
C2631 C 0.593 0.39727 0.08355 0.0
C2632 C 0.62656 0.31865 0.07544 0.0
C2633 C 0.61722 0.30982 0.05395 0.0
C2634 C 0.61412 0.3358 0.08877 0.0
C2635 C 0.59156 0.34412 0.0804 0.0
C2636 C 0.58312 0.3369 0.0575 0.0
C2637 C 0.59615 0.31964 0.04444 0.0
C2638 C 0.62412 0.3432 0.11291 0.0
C2639 C 0.55952 0.34566 0.0476 0.0
H2640 H 0.54862 0.3428 0.15039 0.0
H2641 H 0.57989 0.40985 0.12836 0.0
H2642 H 0.55059 0.31448 0.09169 0.0
H2643 H 0.57369 0.30685 0.11274 0.0
H2644 H 0.54329 0.31069 0.12305 0.0
H2645 H 0.58906 0.41662 0.08632 0.0
H2646 H 0.61264 0.3946 0.08548 0.0
H2647 H 0.58792 0.39217 0.06496 0.0
H2648 H 0.64289 0.31085 0.08265 0.0
H2649 H 0.58883 0.31246 0.02789 0.0
H2650 H 0.61228 0.33647 0.12747 0.0
H2651 H 0.6248 0.36304 0.11435 0.0
H2652 H 0.64249 0.33608 0.116 0.0
H2653 H 0.54518 0.33274 0.05252 0.0
H2654 H 0.56016 0.34662 0.02767 0.0
H2655 H 0.55457 0.36356 0.0548 0.0
C2656 C 0.45712 0.87194 0.33278 0.0
C2657 C 0.44668 0.89355 0.32512 0.0
C2658 C 0.45136 0.8624 0.35536 0.0
C2659 C 0.43495 0.87491 0.37019 0.0
C2660 C 0.42903 0.89896 0.36474 0.0
C2661 C 0.43494 0.90808 0.34205 0.0
C2662 C 0.45932 0.83721 0.36131 0.0
C2663 C 0.41291 0.91347 0.38093 0.0
C2664 C 0.3833 0.83443 0.38639 0.0
C2665 C 0.38827 0.8288 0.41027 0.0
C2666 C 0.39779 0.85039 0.37366 0.0
C2667 C 0.4181 0.8607 0.38509 0.0
C2668 C 0.42258 0.85592 0.40967 0.0
C2669 C 0.40743 0.84 0.42208 0.0
C2670 C 0.39194 0.85518 0.34755 0.0
C2671 C 0.44403 0.86621 0.42256 0.0
H2672 H 0.46706 0.86093 0.32017 0.0
H2673 H 0.42778 0.92536 0.33664 0.0
H2674 H 0.46272 0.83527 0.38084 0.0
H2675 H 0.44489 0.82442 0.35629 0.0
H2676 H 0.47582 0.8322 0.35128 0.0
H2677 H 0.41519 0.93302 0.37776 0.0
H2678 H 0.39392 0.90875 0.37717 0.0
H2679 H 0.41656 0.90948 0.40012 0.0
H2680 H 0.36842 0.82567 0.37739 0.0
H2681 H 0.41147 0.83524 0.44053 0.0
H2682 H 0.40656 0.84824 0.33593 0.0
H2683 H 0.39035 0.87476 0.34431 0.0
H2684 H 0.37489 0.84654 0.34189 0.0
H2685 H 0.45926 0.85346 0.42098 0.0
H2686 H 0.44017 0.86863 0.44199 0.0
H2687 H 0.44974 0.88368 0.41488 0.0
C2688 C 0.61765 0.65794 0.40443 0.0
C2689 C 0.61312 0.66587 0.4278 0.0
C2690 C 0.60027 0.6454 0.39146 0.0
C2691 C 0.57775 0.64048 0.40227 0.0
C2692 C 0.57374 0.64677 0.42659 0.0
C2693 C 0.59155 0.65954 0.43913 0.0
C2694 C 0.60555 0.63891 0.36561 0.0
C2695 C 0.55028 0.64152 0.43903 0.0
C2696 C 0.53496 0.63898 0.35086 0.0
C2697 C 0.53866 0.61532 0.3432 0.0
C2698 C 0.54481 0.64698 0.3726 0.0
C2699 C 0.5583 0.6308 0.38685 0.0
C2700 C 0.55813 0.60607 0.38127 0.0
C2701 C 0.54854 0.59859 0.35924 0.0
C2702 C 0.54367 0.67337 0.37857 0.0
C2703 C 0.57093 0.58804 0.39688 0.0
H2704 H 0.63442 0.66273 0.39576 0.0
H2705 H 0.58793 0.66583 0.4572 0.0
H2706 H 0.60307 0.61937 0.36278 0.0
H2707 H 0.59288 0.64843 0.35352 0.0
H2708 H 0.62413 0.64369 0.36018 0.0
H2709 H 0.55311 0.63853 0.45855 0.0
H2710 H 0.5382 0.65724 0.43707 0.0
H2711 H 0.54114 0.62559 0.43134 0.0
H2712 H 0.5269 0.6519 0.33873 0.0
H2713 H 0.55075 0.58007 0.35367 0.0
H2714 H 0.56148 0.68168 0.37532 0.0
H2715 H 0.5392 0.67589 0.39781 0.0
H2716 H 0.53013 0.68296 0.36751 0.0
H2717 H 0.5904 0.58835 0.39269 0.0
H2718 H 0.56418 0.56955 0.39368 0.0
H2719 H 0.56873 0.59253 0.41618 0.0
C2720 C 0.20615 0.3742 0.16721 0.0
C2721 C 0.21408 0.39721 0.16079 0.0
C2722 C 0.18327 0.37072 0.17716 0.0
C2723 C 0.16788 0.39068 0.18042 0.0
C2724 C 0.17549 0.41383 0.17329 0.0
C2725 C 0.19857 0.41685 0.16374 0.0
C2726 C 0.17588 0.34582 0.18491 0.0
C2727 C 0.15946 0.4355 0.17625 0.0
C2728 C 0.10183 0.37878 0.19283 0.0
C2729 C 0.10097 0.38152 0.21783 0.0
C2730 C 0.12347 0.38199 0.18025 0.0
C2731 C 0.14465 0.38767 0.19311 0.0
C2732 C 0.1438 0.39046 0.21834 0.0
C2733 C 0.12195 0.38754 0.23035 0.0
C2734 C 0.1237 0.3793 0.15328 0.0
C2735 C 0.16605 0.39629 0.23273 0.0
H2736 H 0.21802 0.35894 0.16499 0.0
H2737 H 0.20443 0.43466 0.15856 0.0
H2738 H 0.17332 0.34544 0.20468 0.0
H2739 H 0.15848 0.3409 0.17661 0.0
H2740 H 0.18943 0.33203 0.18 0.0
H2741 H 0.16728 0.45187 0.16797 0.0
H2742 H 0.14166 0.43207 0.16803 0.0
H2743 H 0.15646 0.43905 0.19563 0.0
H2744 H 0.08561 0.37422 0.18312 0.0
H2745 H 0.12141 0.38958 0.24971 0.0
H2746 H 0.13599 0.36453 0.14803 0.0
H2747 H 0.1306 0.39597 0.14484 0.0
H2748 H 0.10559 0.37544 0.14591 0.0
H2749 H 0.17989 0.38227 0.22978 0.0
H2750 H 0.16235 0.39754 0.2523 0.0
H2751 H 0.17376 0.4136 0.22664 0.0
C2752 C 0.83336 0.08839 0.10346 0.0
C2753 C 0.82033 0.0711 0.11637 0.0
C2754 C 0.85587 0.09615 0.11153 0.0
C2755 C 0.86524 0.08649 0.13304 0.0
C2756 C 0.85406 0.06629 0.14369 0.0
C2757 C 0.83161 0.05876 0.13518 0.0
C2758 C 0.86784 0.11696 0.09902 0.0
C2759 C 0.86398 0.05491 0.16619 0.0
C2760 C 0.92073 0.11018 0.16502 0.0
C2761 C 0.90997 0.12542 0.18189 0.0
C2762 C 0.90664 0.09801 0.14795 0.0
C2763 C 0.88144 0.10143 0.14796 0.0
C2764 C 0.87092 0.11819 0.16398 0.0
C2765 C 0.88533 0.12983 0.1808 0.0
C2766 C 0.9186 0.08043 0.13119 0.0
C2767 C 0.84417 0.12282 0.16442 0.0
H2768 H 0.82509 0.09744 0.08833 0.0
H2769 H 0.82193 0.04498 0.14493 0.0
H2770 H 0.86292 0.13389 0.10831 0.0
H2771 H 0.88766 0.11521 0.0996 0.0
H2772 H 0.862 0.11839 0.07999 0.0
H2773 H 0.85614 0.03685 0.1694 0.0
H2774 H 0.88378 0.05325 0.16513 0.0
H2775 H 0.85966 0.06645 0.18186 0.0
H2776 H 0.93982 0.10658 0.16615 0.0
H2777 H 0.87714 0.14172 0.19389 0.0
H2778 H 0.90916 0.07932 0.11368 0.0
H2779 H 0.91832 0.06233 0.13949 0.0
H2780 H 0.93764 0.08538 0.12795 0.0
H2781 H 0.83776 0.12795 0.14627 0.0
H2782 H 0.83917 0.13733 0.17717 0.0
H2783 H 0.83455 0.10622 0.16978 0.0
C2784 C 0.08007 0.60306 0.30698 0.0
C2785 C 0.09127 0.60819 0.28503 0.0
C2786 C 0.09345 0.59422 0.32648 0.0
C2787 C 0.11858 0.59134 0.324 0.0
C2788 C 0.12977 0.59607 0.30164 0.0
C2789 C 0.1159 0.6041 0.28239 0.0
C2790 C 0.08076 0.58866 0.34977 0.0
C2791 C 0.15659 0.59359 0.29823 0.0
C2792 C 0.16463 0.59985 0.37219 0.0
C2793 C 0.17549 0.57713 0.37223 0.0
C2794 C 0.14413 0.60427 0.35838 0.0
C2795 C 0.134 0.58535 0.34483 0.0
C2796 C 0.14288 0.56171 0.34752 0.0
C2797 C 0.16385 0.5579 0.36092 0.0
C2798 C 0.13526 0.62978 0.356 0.0
C2799 C 0.13167 0.54088 0.33435 0.0
H2800 H 0.06093 0.60598 0.30893 0.0
H2801 H 0.12459 0.60804 0.26541 0.0
H2802 H 0.08891 0.57293 0.35889 0.0
H2803 H 0.08227 0.60428 0.36202 0.0
H2804 H 0.06138 0.58506 0.34681 0.0
H2805 H 0.16239 0.59821 0.2797 0.0
H2806 H 0.16617 0.60553 0.31098 0.0
H2807 H 0.1623 0.57491 0.30208 0.0
H2808 H 0.1733 0.61477 0.38116 0.0
H2809 H 0.17181 0.54014 0.3614 0.0
H2810 H 0.11543 0.63048 0.35716 0.0
H2811 H 0.14052 0.63693 0.33814 0.0
H2812 H 0.14289 0.64171 0.37005 0.0
H2813 H 0.11181 0.54246 0.33423 0.0
H2814 H 0.13675 0.52343 0.34258 0.0
H2815 H 0.13789 0.54088 0.31542 0.0
C2816 C 0.85268 0.95022 0.35905 0.0
C2817 C 0.84497 0.9442 0.38224 0.0
C2818 C 0.87626 0.94525 0.35181 0.0
C2819 C 0.89224 0.93428 0.3683 0.0
C2820 C 0.88586 0.93286 0.39282 0.0
C2821 C 0.86207 0.93755 0.39952 0.0
C2822 C 0.88275 0.94809 0.32564 0.0
C2823 C 0.90301 0.92293 0.41125 0.0
C2824 C 0.91858 0.87979 0.33863 0.0
C2825 C 0.94053 0.88855 0.33041 0.0
C2826 C 0.90358 0.89398 0.35282 0.0
C2827 C 0.91076 0.91768 0.35874 0.0
C2828 C 0.93403 0.92577 0.35242 0.0
C2829 C 0.94877 0.91099 0.33818 0.0
C2830 C 0.87911 0.88426 0.35944 0.0
C2831 C 0.94273 0.95058 0.3588 0.0
H2832 H 0.83969 0.95594 0.34573 0.0
H2833 H 0.85637 0.93372 0.41775 0.0
H2834 H 0.90129 0.95505 0.32369 0.0
H2835 H 0.88196 0.9303 0.31668 0.0
H2836 H 0.87023 0.96042 0.3162 0.0
H2837 H 0.89827 0.92914 0.42961 0.0
H2838 H 0.90213 0.90303 0.41103 0.0
H2839 H 0.92175 0.9283 0.40716 0.0
H2840 H 0.91237 0.86239 0.33246 0.0
H2841 H 0.96572 0.91783 0.33148 0.0
H2842 H 0.86494 0.89482 0.35024 0.0
H2843 H 0.87609 0.88583 0.37906 0.0
H2844 H 0.87692 0.86511 0.35433 0.0
H2845 H 0.93897 0.96294 0.34364 0.0
H2846 H 0.96245 0.95056 0.36175 0.0
H2847 H 0.93376 0.9577 0.37511 0.0
C2848 C 0.15 0.17883 0.42543 0.0
C2849 C 0.14026 0.19126 0.4058 0.0
C2850 C 0.16297 0.15752 0.42208 0.0
C2851 C 0.16664 0.14874 0.39852 0.0
C2852 C 0.15603 0.16065 0.37874 0.0
C2853 C 0.14279 0.18168 0.38265 0.0
C2854 C 0.17363 0.14502 0.44365 0.0
C2855 C 0.15983 0.15201 0.35331 0.0
C2856 C 0.22476 0.11592 0.38631 0.0
C2857 C 0.21694 0.09218 0.38373 0.0
C2858 C 0.20852 0.13442 0.39126 0.0
C2859 C 0.18391 0.12893 0.39425 0.0
C2860 C 0.17596 0.10486 0.39241 0.0
C2861 C 0.1926 0.08672 0.38686 0.0
C2862 C 0.21766 0.15992 0.39269 0.0
C2863 C 0.14993 0.09835 0.3961 0.0
H2864 H 0.14782 0.18594 0.44343 0.0
H2865 H 0.13529 0.19117 0.3674 0.0
H2866 H 0.17004 0.12545 0.44285 0.0
H2867 H 0.19339 0.14745 0.44366 0.0
H2868 H 0.1664 0.15218 0.46082 0.0
H2869 H 0.14869 0.16206 0.34016 0.0
H2870 H 0.179 0.15424 0.34833 0.0
H2871 H 0.15554 0.13264 0.35181 0.0
H2872 H 0.24357 0.12021 0.38379 0.0
H2873 H 0.18658 0.06831 0.38503 0.0
H2874 H 0.21339 0.16772 0.41052 0.0
H2875 H 0.20858 0.17114 0.37896 0.0
H2876 H 0.23735 0.16111 0.38982 0.0
H2877 H 0.14358 0.10525 0.41368 0.0
H2878 H 0.14693 0.07864 0.39549 0.0
H2879 H 0.13877 0.10692 0.38201 0.0
C2880 C 0.15172 0.89509 0.11783 0.0
C2881 C 0.158 0.91891 0.11316 0.0
C2882 C 0.13821 0.88187 0.10141 0.0
C2883 C 0.13046 0.89292 0.07981 0.0
C2884 C 0.13482 0.91769 0.07604 0.0
C2885 C 0.14875 0.93046 0.09279 0.0
C2886 C 0.13395 0.85552 0.10646 0.0
C2887 C 0.12628 0.93048 0.05375 0.0
C2888 C 0.13043 0.84281 0.03572 0.0
C2889 C 0.10824 0.83247 0.04147 0.0
C2890 C 0.13689 0.86514 0.04532 0.0
C2891 C 0.1206 0.87728 0.06062 0.0
C2892 C 0.09669 0.86905 0.06248 0.0
C2893 C 0.09083 0.84641 0.05319 0.0
C2894 C 0.16225 0.87396 0.04192 0.0
C2895 C 0.07829 0.88255 0.07703 0.0
H2896 H 0.15869 0.88629 0.13375 0.0
H2897 H 0.15365 0.94893 0.08913 0.0
H2898 H 0.11447 0.85149 0.106 0.0
H2899 H 0.14276 0.84443 0.09244 0.0
H2900 H 0.14103 0.84991 0.12425 0.0
H2901 H 0.12143 0.94935 0.05797 0.0
H2902 H 0.14108 0.93098 0.04041 0.0
H2903 H 0.11058 0.92149 0.04545 0.0
H2904 H 0.14378 0.83236 0.02616 0.0
H2905 H 0.07331 0.83882 0.05694 0.0
H2906 H 0.1724 0.87179 0.05895 0.0
H2907 H 0.16219 0.89331 0.0373 0.0
H2908 H 0.17184 0.86398 0.02754 0.0
H2909 H 0.08037 0.87791 0.0963 0.0
H2910 H 0.05975 0.87775 0.07148 0.0
H2911 H 0.08079 0.90223 0.07514 0.0
C2912 C 0.85892 0.65951 0.10567 0.0
C2913 C 0.86274 0.67126 0.08375 0.0
C2914 C 0.84439 0.6391 0.10693 0.0
C2915 C 0.83398 0.62992 0.08564 0.0
C2916 C 0.83997 0.64011 0.06315 0.0
C2917 C 0.85401 0.66098 0.06248 0.0
C2918 C 0.83822 0.62893 0.13133 0.0
C2919 C 0.83004 0.63016 0.03999 0.0
C2920 C 0.79811 0.57316 0.09624 0.0
C2921 C 0.77518 0.5828 0.10002 0.0
C2922 C 0.81737 0.58806 0.08971 0.0
C2923 C 0.81353 0.61308 0.08762 0.0
C2924 C 0.79012 0.62262 0.09018 0.0
C2925 C 0.7712 0.60729 0.09609 0.0
C2926 C 0.84192 0.57718 0.08621 0.0
C2927 C 0.78525 0.64926 0.08825 0.0
H2928 H 0.86572 0.66732 0.12215 0.0
H2929 H 0.85733 0.66977 0.04542 0.0
H2930 H 0.81921 0.63307 0.1356 0.0
H2931 H 0.8402 0.60914 0.13138 0.0
H2932 H 0.84969 0.6365 0.14578 0.0
H2933 H 0.8407 0.63618 0.02423 0.0
H2934 H 0.82974 0.61024 0.04037 0.0
H2935 H 0.81132 0.63647 0.03757 0.0
H2936 H 0.80114 0.55413 0.09895 0.0
H2937 H 0.75344 0.61477 0.09881 0.0
H2938 H 0.85292 0.58026 0.10251 0.0
H2939 H 0.85135 0.58571 0.07085 0.0
H2940 H 0.84089 0.55752 0.08303 0.0
H2941 H 0.79515 0.65894 0.10258 0.0
H2942 H 0.76587 0.6536 0.08998 0.0
H2943 H 0.79172 0.65622 0.07076 0.0
C2944 C 0.34985 0.89717 0.88347 0.0
C2945 C 0.34221 0.92021 0.88973 0.0
C2946 C 0.36363 0.88344 0.89923 0.0
C2947 C 0.37008 0.89311 0.9219 0.0
C2948 C 0.36411 0.91719 0.92752 0.0
C2949 C 0.35009 0.93054 0.91128 0.0
C2950 C 0.36968 0.85791 0.89219 0.0
C2951 C 0.37097 0.9285 0.95113 0.0
C2952 C 0.37225 0.83899 0.96059 0.0
C2953 C 0.39514 0.83065 0.95426 0.0
C2954 C 0.36465 0.86189 0.95346 0.0
C2955 C 0.38048 0.87656 0.94003 0.0
C2956 C 0.40493 0.87012 0.93819 0.0
C2957 C 0.412 0.84696 0.94507 0.0
C2958 C 0.3387 0.86877 0.95702 0.0
C2959 C 0.42276 0.8862 0.92571 0.0
H2960 H 0.34381 0.88933 0.86669 0.0
H2961 H 0.34399 0.94835 0.91621 0.0
H2962 H 0.38934 0.85498 0.89312 0.0
H2963 H 0.36104 0.84517 0.90485 0.0
H2964 H 0.36361 0.85345 0.87372 0.0
H2965 H 0.37485 0.94791 0.9487 0.0
H2966 H 0.35565 0.92704 0.96379 0.0
H2967 H 0.38684 0.91974 0.95938 0.0
H2968 H 0.35928 0.82675 0.96839 0.0
H2969 H 0.43005 0.84093 0.941 0.0
H2970 H 0.32901 0.86743 0.93965 0.0
H2971 H 0.3374 0.88761 0.96327 0.0
H2972 H 0.32957 0.85698 0.97028 0.0
H2973 H 0.42154 0.88341 0.90601 0.0
H2974 H 0.44142 0.88208 0.93141 0.0
H2975 H 0.41885 0.90538 0.92946 0.0
C2976 C 0.03048 0.54184 0.25373 0.0
C2977 C 0.02738 0.55987 0.2366 0.0
C2978 C 0.02003 0.51931 0.25055 0.0
C2979 C 0.0062 0.51494 0.22957 0.0
C2980 C -0.00085 0.53455 0.21501 0.0
C2981 C 0.01016 0.55699 0.2185 0.0
C2982 C 0.02708 0.49943 0.26764 0.0
C2983 C 0.98224 0.53139 0.19414 0.0
C2984 C 0.03702 0.46086 0.20818 0.0
C2985 C 0.02608 0.4441 0.2233 0.0
C2986 C 0.02766 0.48401 0.20602 0.0
C2987 C 0.00697 0.49026 0.21951 0.0
C2988 C 0.99307 0.47186 0.23013 0.0
C2989 C 0.00301 0.44876 0.23226 0.0
C2990 C 0.0423 0.5026 0.19276 0.0
C2991 C 0.9694 0.47716 0.24209 0.0
H2992 H 0.0432 0.54455 0.26824 0.0
H2993 H 0.00718 0.57128 0.20562 0.0
H2994 H 0.01102 0.48932 0.27353 0.0
H2995 H 0.03938 0.48671 0.25847 0.0
H2996 H 0.03632 0.50638 0.28389 0.0
H2997 H 0.96902 0.54631 0.19389 0.0
H2998 H 0.99243 0.53233 0.17704 0.0
H2999 H 0.97244 0.51407 0.19495 0.0
H3000 H 0.05441 0.45678 0.2004 0.0
H3001 H 0.994 0.43547 0.24327 0.0
H3002 H 0.05109 0.5148 0.20583 0.0
H3003 H 0.03057 0.51355 0.18102 0.0
H3004 H 0.05648 0.4943 0.18144 0.0
H3005 H 0.97185 0.4779 0.26184 0.0
H3006 H 0.95644 0.46249 0.23831 0.0
H3007 H 0.96167 0.49446 0.23589 0.0
C3008 C 0.96164 0.96709 0.28129 0.0
C3009 C 0.97082 0.94707 0.26922 0.0
C3010 C 0.96642 0.99027 0.27307 0.0
C3011 C 0.98095 0.99339 0.2524 0.0
C3012 C 0.99322 0.97348 0.24249 0.0
C3013 C 0.98786 0.95034 0.25095 0.0
C3014 C 0.95346 0.01105 0.28478 0.0
C3015 C 0.01011 0.97617 0.2215 0.0
C3016 C 0.94882 0.03999 0.21697 0.0
C3017 C 0.95841 0.0608 0.22729 0.0
C3018 C 0.95833 0.01744 0.22248 0.0
C3019 C 0.97804 0.01585 0.23846 0.0
C3020 C 0.99025 0.03694 0.24549 0.0
C3021 C 0.98014 0.05935 0.23999 0.0
C3022 C 0.94521 0.99536 0.21376 0.0
C3023 C 0.0124 0.03595 0.26101 0.0
H3024 H 0.94912 0.96457 0.296 0.0
H3025 H 0.9955 0.93488 0.24192 0.0
H3026 H 0.96615 0.02585 0.28869 0.0
H3027 H 0.93957 0.01811 0.27235 0.0
H3028 H 0.94453 0.00576 0.30182 0.0
H3029 H 0.02474 0.96266 0.2225 0.0
H3030 H 0.00016 0.97297 0.20454 0.0
H3031 H 0.01813 0.99439 0.22073 0.0
H3032 H 0.93258 0.0411 0.2063 0.0
H3033 H 0.98816 0.07546 0.24739 0.0
H3034 H 0.93563 0.98685 0.22904 0.0
H3035 H 0.95806 0.98204 0.20648 0.0
H3036 H 0.93186 -0.00034 0.19959 0.0
H3037 H 0.00706 0.03644 0.2802 0.0
H3038 H 0.02416 0.05168 0.25757 0.0
H3039 H 0.02279 0.01924 0.25785 0.0
C3040 C 0.24133 0.99627 0.55364 0.0
C3041 C 0.25538 0.01613 0.55999 0.0
C3042 C 0.24169 0.98756 0.5299 0.0
C3043 C 0.25585 -0.00045 0.51251 0.0
C3044 C 0.27319 0.01654 0.52018 0.0
C3045 C 0.27273 0.02458 0.54395 0.0
C3046 C 0.22474 0.96768 0.52297 0.0
C3047 C 0.28958 0.02915 0.50261 0.0
C3048 C 0.26079 0.00053 0.44534 0.0
C3049 C 0.24659 0.02079 0.44079 0.0
C3050 C 0.26129 0.99026 0.46845 0.0
C3051 C 0.24771 0.00098 0.4871 0.0
C3052 C 0.23048 0.01883 0.48131 0.0
C3053 C 0.23011 0.02842 0.45813 0.0
C3054 C 0.27823 0.96973 0.47325 0.0
C3055 C 0.21484 0.03039 0.50027 0.0
H3056 H 0.22818 0.98935 0.56622 0.0
H3057 H 0.28397 0.03959 0.54919 0.0
H3058 H 0.20642 0.97508 0.52055 0.0
H3059 H 0.23032 0.95879 0.50602 0.0
H3060 H 0.22378 0.95404 0.5375 0.0
H3061 H 0.30331 0.04029 0.51183 0.0
H3062 H 0.29895 0.0159 0.49112 0.0
H3063 H 0.27884 0.04102 0.49074 0.0
H3064 H 0.27323 0.99423 0.43175 0.0
H3065 H 0.21865 0.04369 0.45428 0.0
H3066 H 0.27382 0.96019 0.4902 0.0
H3067 H 0.29687 0.97662 0.47443 0.0
H3068 H 0.2777 0.95673 0.45814 0.0
H3069 H 0.20514 0.0165 0.51067 0.0
H3070 H 0.20139 0.04283 0.49239 0.0
H3071 H 0.22617 0.04073 0.51298 0.0
C3072 C 0.72494 0.46563 0.54283 0.0
C3073 C 0.70635 0.44895 0.54598 0.0
C3074 C 0.73455 0.46995 0.51989 0.0
C3075 C 0.72526 0.45725 0.49993 0.0
C3076 C 0.70449 0.44289 0.50272 0.0
C3077 C 0.69529 0.43889 0.52576 0.0
C3078 C 0.75616 0.48607 0.5175 0.0
C3079 C 0.69361 0.4295 0.48181 0.0
C3080 C 0.74486 0.46196 0.43491 0.0
C3081 C 0.75944 0.44149 0.43298 0.0
C3082 C 0.73496 0.46871 0.45714 0.0
C3083 C 0.73974 0.45457 0.4777 0.0
C3084 C 0.75614 0.43519 0.47615 0.0
C3085 C 0.7658 0.42893 0.45383 0.0
C3086 C 0.71809 0.48987 0.45813 0.0
C3087 C 0.7621 0.41984 0.49773 0.0
H3088 H 0.7334 0.47369 0.55839 0.0
H3089 H 0.68052 0.42643 0.52811 0.0
H3090 H 0.77268 0.47495 0.51749 0.0
H3091 H 0.75567 0.49624 0.50037 0.0
H3092 H 0.75735 0.49896 0.53268 0.0
H3093 H 0.67575 0.42186 0.48632 0.0
H3094 H 0.69163 0.44149 0.46604 0.0
H3095 H 0.70569 0.41454 0.47654 0.0
H3096 H 0.74006 0.47194 0.41891 0.0
H3097 H 0.77753 0.41345 0.45257 0.0
H3098 H 0.71964 0.4996 0.47545 0.0
H3099 H 0.69935 0.48339 0.45645 0.0
H3100 H 0.72157 0.50264 0.44319 0.0
H3101 H 0.76764 0.43125 0.51307 0.0
H3102 H 0.77671 0.40681 0.49392 0.0
H3103 H 0.74593 0.40966 0.50336 0.0
C3104 C 0.25616 0.95158 0.9471 0.0
C3105 C 0.274 0.93438 0.94265 0.0
C3106 C 0.24724 0.95515 0.97044 0.0
C3107 C 0.25652 0.94127 0.98962 0.0
C3108 C 0.27582 0.92528 0.98544 0.0
C3109 C 0.28427 0.92201 0.96201 0.0
C3110 C 0.22678 0.97249 0.97425 0.0
C3111 C 0.28646 0.91032 0.00541 0.0
C3112 C 0.24305 0.95134 0.05568 0.0
C3113 C 0.22648 0.93287 0.06003 0.0
C3114 C 0.25206 0.95539 0.03244 0.0
C3115 C 0.24417 0.94071 0.01325 0.0
C3116 C 0.22621 0.92322 0.01731 0.0
C3117 C 0.21767 0.91949 0.04063 0.0
C3118 C 0.27109 0.9743 0.02875 0.0
C3119 C 0.21707 0.90733 0.99731 0.0
H3120 H 0.24823 0.96129 0.93221 0.0
H3121 H 0.29837 0.90903 0.95872 0.0
H3122 H 0.20987 0.96227 0.97678 0.0
H3123 H 0.22968 0.98336 0.99069 0.0
H3124 H 0.22444 0.98476 0.9587 0.0
H3125 H 0.30306 0.90084 -0.00031 0.0
H3126 H 0.29072 0.92172 0.02117 0.0
H3127 H 0.27317 0.8967 0.01131 0.0
H3128 H 0.24989 0.96183 0.07058 0.0
H3129 H 0.20467 0.90541 0.0438 0.0
H3130 H 0.26742 0.98491 0.01229 0.0
H3131 H 0.28878 0.96547 0.02633 0.0
H3132 H 0.27233 0.98673 0.04431 0.0
H3133 H 0.21188 0.9183 0.98151 0.0
H3134 H 0.20135 0.89642 0.00294 0.0
H3135 H 0.23156 0.89495 0.99149 0.0
C3136 C 0.74304 0.53068 0.03093 0.0
C3137 C 0.72721 0.52334 0.04897 0.0
C3138 C 0.74289 0.51987 0.00835 0.0
C3139 C 0.72665 0.50077 0.00377 0.0
C3140 C 0.71306 0.49106 0.02301 0.0
C3141 C 0.71331 0.50267 0.04552 0.0
C3142 C 0.75827 0.53086 0.98881 0.0
C3143 C 0.69694 0.46961 0.01968 0.0
C3144 C 0.70596 0.51752 0.94345 0.0
C3145 C 0.72599 0.5098 0.9304 0.0
C3146 C 0.70296 0.51068 0.96743 0.0
C3147 C 0.72045 0.49573 0.97825 0.0
C3148 C 0.73716 0.48355 0.96345 0.0
C3149 C 0.74015 0.49112 0.93951 0.0
C3150 C 0.68374 0.52296 0.98208 0.0
C3151 C 0.75421 0.46529 0.97377 0.0
H3152 H 0.75441 0.5462 0.03397 0.0
H3153 H 0.70142 0.49659 0.0597 0.0
H3154 H 0.76974 0.51699 0.98038 0.0
H3155 H 0.74668 0.53869 0.97461 0.0
H3156 H 0.77017 0.5453 0.99571 0.0
H3157 H 0.69912 0.45707 0.03504 0.0
H3158 H 0.67793 0.47554 0.01967 0.0
H3159 H 0.70071 0.45978 0.00275 0.0
H3160 H 0.69457 0.53146 0.93599 0.0
H3161 H 0.75532 0.48461 0.92918 0.0
H3162 H 0.69206 0.53675 0.99384 0.0
H3163 H 0.67446 0.50979 0.99374 0.0
H3164 H 0.67015 0.53193 0.97056 0.0
H3165 H 0.77097 0.47433 0.97957 0.0
H3166 H 0.75909 0.45169 0.96003 0.0
H3167 H 0.74624 0.45613 0.98959 0.0
C3168 C 0.45862 0.20715 0.03092 0.0
C3169 C 0.44094 0.22209 0.02115 0.0
C3170 C 0.48198 0.20758 0.02178 0.0
C3171 C 0.48735 0.22326 0.00249 0.0
C3172 C 0.46835 0.23347 0.98913 0.0
C3173 C 0.44509 0.23308 -0.00115 0.0
C3174 C 0.5015 0.19478 0.03555 0.0
C3175 C 0.47315 0.24796 0.9668 0.0
C3176 C 0.53626 0.26275 0.0258 0.0
C3177 C 0.55658 0.24959 0.01918 0.0
C3178 C 0.51345 0.25587 0.01811 0.0
C3179 C 0.511 0.23549 0.00299 0.0
C3180 C 0.53175 0.2244 0.99339 0.0
C3181 C 0.55445 0.23146 0.0018 0.0
C3182 C 0.49199 0.26892 0.02847 0.0
C3183 C 0.53022 0.20391 0.97577 0.0
H3184 H 0.45504 0.1977 0.04758 0.0
H3185 H 0.43117 0.24391 0.99062 0.0
H3186 H 0.51401 0.18572 0.02301 0.0
H3187 H 0.51195 0.20802 0.04616 0.0
H3188 H 0.49408 0.18116 0.0481 0.0
H3189 H 0.45753 0.24725 0.95442 0.0
H3190 H 0.47613 0.26701 0.97174 0.0
H3191 H 0.48938 0.24136 0.95728 0.0
H3192 H 0.538 0.27742 0.0385 0.0
H3193 H 0.57023 0.22163 0.99604 0.0
H3194 H 0.48168 0.25667 0.04033 0.0
H3195 H 0.47989 0.27499 0.01391 0.0
H3196 H 0.49724 0.2849 0.03919 0.0
H3197 H 0.53457 0.18685 0.98507 0.0
H3198 H 0.54378 0.20633 0.96134 0.0
H3199 H 0.5122 0.20234 0.96744 0.0
C3200 C 0.54662 0.72956 0.42082 0.0
C3201 C 0.56538 0.73535 0.43654 0.0
C3202 C 0.52307 0.73671 0.42556 0.0
C3203 C 0.51805 0.75019 0.44652 0.0
C3204 C 0.53667 0.75546 0.46296 0.0
C3205 C 0.56019 0.74796 0.45777 0.0
C3206 C 0.50367 0.73051 0.40761 0.0
C3207 C 0.53195 0.76973 0.48551 0.0
C3208 C 0.46346 0.78727 0.43374 0.0
C3209 C 0.44531 0.77171 0.44148 0.0
C3210 C 0.48761 0.78184 0.43781 0.0
C3211 C 0.4936 0.76021 0.44972 0.0
C3212 C 0.47526 0.74595 0.46007 0.0
C3213 C 0.45115 0.75196 0.45587 0.0
C3214 C 0.50658 0.79779 0.42684 0.0
C3215 C 0.48097 0.72296 0.47319 0.0
H3216 H 0.55037 0.71974 0.40445 0.0
H3217 H 0.57455 0.75243 0.47011 0.0
H3218 H 0.48868 0.72108 0.4167 0.0
H3219 H 0.4963 0.7472 0.39961 0.0
H3220 H 0.51039 0.71892 0.39283 0.0
H3221 H 0.54728 0.76888 0.49823 0.0
H3222 H 0.52882 0.7888 0.48071 0.0
H3223 H 0.51557 0.76316 0.49474 0.0
H3224 H 0.45883 0.80283 0.42295 0.0
H3225 H 0.43706 0.73998 0.46195 0.0
H3226 H 0.51361 0.78922 0.41027 0.0
H3227 H 0.52187 0.80022 0.43935 0.0
H3228 H 0.49931 0.81573 0.42199 0.0
H3229 H 0.485 0.70866 0.4599 0.0
H3230 H 0.46565 0.7169 0.48444 0.0
H3231 H 0.49702 0.72513 0.48477 0.0
C3232 C 0.05282 0.73851 0.51649 0.0
C3233 C 0.05892 0.75633 0.53314 0.0
C3234 C 0.029 0.73643 0.50833 0.0
C3235 C 0.0113 0.75217 0.51761 0.0
C3236 C 0.01849 0.77247 0.53119 0.0
C3237 C 0.04229 0.77427 0.53873 0.0
C3238 C 0.02256 0.71594 0.4919 0.0
C3239 C 0.00058 0.79045 0.54084 0.0
C3240 C 0.94463 0.75799 0.51787 0.0
C3241 C 0.94025 0.74807 0.54059 0.0
C3242 C 0.96748 0.75587 0.5073 0.0
C3243 C 0.986 0.74417 0.52018 0.0
C3244 C 0.98017 0.7306 0.54093 0.0
C3245 C 0.95727 0.73278 0.55088 0.0
C3246 C 0.97234 0.76849 0.48386 0.0
C3247 C -0.00106 0.71675 0.55477 0.0
H3248 H 0.06591 0.72495 0.51161 0.0
H3249 H 0.04737 0.78854 0.55099 0.0
H3250 H 0.02214 0.69895 0.50229 0.0
H3251 H 0.00484 0.71861 0.48319 0.0
H3252 H 0.03648 0.71386 0.47776 0.0
H3253 H 0.00946 0.80598 0.54967 0.0
H3254 H 0.98914 0.79738 0.52614 0.0
H3255 H 0.98872 0.78165 0.55422 0.0
H3256 H 0.93118 0.7693 0.5095 0.0
H3257 H 0.95344 0.7244 0.56806 0.0
H3258 H 0.98867 0.76141 0.47488 0.0
H3259 H 0.97479 0.78797 0.48716 0.0
H3260 H 0.95677 0.76646 0.47157 0.0
H3261 H 0.009 0.70468 0.54258 0.0
H3262 H 0.99096 0.70572 0.56935 0.0
H3263 H 0.01196 0.72942 0.56296 0.0
C3264 C 0.90657 0.45854 0.74046 0.0
C3265 C 0.9197 0.43902 0.74936 0.0
C3266 C 0.91553 0.48192 0.74195 0.0
C3267 C 0.93824 0.4859 0.75261 0.0
C3268 C 0.95268 0.46607 0.75928 0.0
C3269 C 0.94319 0.44273 0.75762 0.0
C3270 C 0.89959 0.50249 0.73427 0.0
C3271 C 0.97725 0.46956 0.77007 0.0
C3272 C 0.9529 0.55221 0.75121 0.0
C3273 C 0.94128 0.55959 0.77226 0.0
C3274 C 0.95444 0.52765 0.74542 0.0
C3275 C 0.94404 0.5105 0.76109 0.0
C3276 C 0.93469 0.51793 0.78353 0.0
C3277 C 0.93346 0.5424 0.78878 0.0
C3278 C 0.96522 0.52037 0.72167 0.0
C3279 C 0.92361 0.50033 0.80096 0.0
H3280 H 0.88866 0.4557 0.7334 0.0
H3281 H 0.95359 0.42765 0.7642 0.0
H3282 H 0.89302 0.51218 0.75041 0.0
H3283 H 0.90979 0.51548 0.72316 0.0
H3284 H 0.88378 0.49628 0.72382 0.0
H3285 H 0.98837 0.45309 0.76837 0.0
H3286 H 0.98679 0.48474 0.76139 0.0
H3287 H 0.97539 0.47381 0.78945 0.0
H3288 H 0.95919 0.56556 0.73851 0.0
H3289 H 0.92511 0.54824 0.80533 0.0
H3290 H 0.95071 0.51849 0.70816 0.0
H3291 H 0.97456 0.50283 0.72307 0.0
H3292 H 0.97808 0.53408 0.71502 0.0
H3293 H 0.90625 0.49386 0.79365 0.0
H3294 H 0.92019 0.50854 0.81879 0.0
H3295 H 0.93541 0.48451 0.80347 0.0
C3296 C 0.05851 0.04104 0.73634 0.0
C3297 C 0.04787 0.0607 0.74783 0.0
C3298 C 0.05112 0.01762 0.74124 0.0
C3299 C 0.03239 0.01363 0.75804 0.0
C3300 C 0.0202 0.03348 0.76826 0.0
C3301 C 0.02817 0.0569 0.76308 0.0
C3302 C 0.06449 0.99713 0.72941 0.0
C3303 C -0.00035 0.03022 0.78558 0.0
C3304 C 0.02204 0.94796 0.7525 0.0
C3305 C 0.04093 0.9401 0.76712 0.0
C3306 C 0.01553 0.97233 0.75226 0.0
C3307 C 0.02847 0.98872 0.76674 0.0
C3308 C 0.04401 0.97986 0.78478 0.0
C3309 C 0.05021 0.95552 0.78464 0.0
C3310 C 0.99761 0.98098 0.73393 0.0
C3311 C 0.05732 0.99656 0.80143 0.0
H3312 H 0.07325 0.04391 0.72395 0.0
H3313 H 0.01961 0.07209 0.77174 0.0
H3314 H 0.0739 0.98632 0.74324 0.0
H3315 H 0.05174 0.98513 0.71996 0.0
H3316 H 0.07801 0.00348 0.71618 0.0
H3317 H 0.98649 0.04511 0.78378 0.0
H3318 H 0.99021 0.01291 0.78284 0.0
H3319 H 0.00665 0.03066 0.80422 0.0
H3320 H 0.01461 0.93593 0.73913 0.0
H3321 H 0.06452 0.94922 0.79625 0.0
H3322 H 0.00721 0.98632 0.7173 0.0
H3323 H 0.98764 0.99688 0.74066 0.0
H3324 H 0.98462 0.96661 0.72923 0.0
H3325 H 0.07211 0.00541 0.79141 0.0
H3326 H 0.0652 0.98679 0.81693 0.0
H3327 H 0.04521 0.01078 0.80829 0.0
C3328 C 0.73022 0.9561 0.45639 0.0
C3329 C 0.74104 0.96527 0.4357 0.0
C3330 C 0.72683 0.97053 0.4766 0.0
C3331 C 0.73421 0.99495 0.47591 0.0
C3332 C 0.74141 0.00517 0.45378 0.0
C3333 C 0.74499 0.99009 0.43384 0.0
C3334 C 0.7183 0.95854 0.49942 0.0
C3335 C 0.74732 0.03146 0.4514 0.0
C3336 C 0.72342 0.00932 0.53923 0.0
C3337 C 0.74426 -0.00157 0.54815 0.0
C3338 C 0.72137 0.01405 0.51451 0.0
C3339 C 0.74017 0.00674 0.4991 0.0
C3340 C 0.76302 0.00164 0.50904 0.0
C3341 C 0.76479 0.99757 0.53375 0.0
C3342 C 0.69778 0.02273 0.5046 0.0
C3343 C 0.78434 0.99573 0.49338 0.0
H3344 H 0.72624 0.93708 0.4575 0.0
H3345 H 0.75264 0.99751 0.41754 0.0
H3346 H 0.73336 0.95747 0.51236 0.0
H3347 H 0.7036 0.96896 0.50782 0.0
H3348 H 0.71163 0.94002 0.49623 0.0
H3349 H 0.73889 0.03877 0.43487 0.0
H3350 H 0.74113 0.04215 0.46704 0.0
H3351 H 0.767 0.0337 0.44934 0.0
H3352 H 0.70767 0.01074 0.55059 0.0
H3353 H 0.78114 0.98987 0.54101 0.0
H3354 H 0.68547 0.00727 0.50214 0.0
H3355 H 0.70025 0.03164 0.48693 0.0
H3356 H 0.68911 0.03545 0.51728 0.0
H3357 H 0.7815 0.97808 0.48457 0.0
H3358 H 0.80126 0.99482 0.5039 0.0
H3359 H 0.78646 0.00944 0.47912 0.0
C3360 C 0.24596 0.50677 0.44546 0.0
C3361 C 0.2577 0.52906 0.44562 0.0
C3362 C 0.24265 0.49383 0.46694 0.0
C3363 C 0.25092 0.50374 0.48886 0.0
C3364 C 0.26537 0.52474 0.48841 0.0
C3365 C 0.26873 0.53692 0.46676 0.0
C3366 C 0.22879 0.47062 0.46609 0.0
C3367 C 0.27517 0.53602 0.5111 0.0
C3368 C 0.21768 0.51387 0.54486 0.0
C3369 C 0.23585 0.50742 0.56095 0.0
C3370 C 0.21986 0.50844 0.52042 0.0
C3371 C 0.24064 0.4962 0.51235 0.0
C3372 C 0.25554 0.48462 0.52936 0.0
C3373 C 0.25322 0.4907 0.55377 0.0
C3374 C 0.20241 0.51972 0.50303 0.0
C3375 C 0.2762 0.46907 0.52148 0.0
H3376 H 0.23785 0.50025 0.42901 0.0
H3377 H 0.27854 0.55374 0.46675 0.0
H3378 H 0.23051 0.46006 0.4829 0.0
H3379 H 0.20953 0.47453 0.46285 0.0
H3380 H 0.23514 0.45949 0.4508 0.0
H3381 H 0.28665 0.55189 0.50735 0.0
H3382 H 0.26015 0.5419 0.5228 0.0
H3383 H 0.28605 0.52285 0.52128 0.0
H3384 H 0.20379 0.52623 0.55069 0.0
H3385 H 0.26697 0.48509 0.56636 0.0
H3386 H 0.19731 0.50669 0.48891 0.0
H3387 H 0.21102 0.53535 0.49413 0.0
H3388 H 0.18585 0.52604 0.51218 0.0
H3389 H 0.27215 0.45995 0.50421 0.0
H3390 H 0.28041 0.45537 0.53536 0.0
H3391 H 0.29242 0.48033 0.51891 0.0
C3392 C 0.77172 0.03631 0.96093 0.0
C3393 C 0.75848 0.02908 0.94085 0.0
C3394 C 0.76423 0.0303 0.98409 0.0
C3395 C 0.74316 0.01636 0.98714 0.0
C3396 C 0.73187 0.00604 0.96686 0.0
C3397 C 0.73958 0.01271 0.94377 0.0
C3398 C 0.77734 0.04131 0.00517 0.0
C3399 C 0.71038 0.98978 0.96926 0.0
C3400 C 0.73609 0.01276 0.0536 0.0
C3401 C 0.72484 0.03499 0.05748 0.0
C3402 C 0.73889 0.00381 0.03019 0.0
C3403 C 0.73066 0.01771 0.01062 0.0
C3404 C 0.71564 0.03777 0.01491 0.0
C3405 C 0.71278 0.0461 0.03842 0.0
C3406 C 0.75321 0.98117 0.02635 0.0
C3407 C 0.70553 0.05258 0.99456 0.0
H3408 H 0.78689 0.0483 0.95864 0.0
H3409 H 0.72959 0.00658 0.92822 0.0
H3410 H 0.76563 0.05471 0.01412 0.0
H3411 H 0.7819 0.02734 0.01859 0.0
H3412 H 0.7942 0.05043 -0.00034 0.0
H3413 H 0.71078 0.97564 0.9552 0.0
H3414 H 0.70951 0.98108 0.98717 0.0
H3415 H 0.69375 0.00039 0.96655 0.0
H3416 H 0.74476 0.00354 0.06839 0.0
H3417 H 0.70316 0.06275 0.04149 0.0
H3418 H 0.77253 0.98572 0.02485 0.0
H3419 H 0.74771 0.97188 0.0096 0.0
H3420 H 0.75105 0.9687 0.04178 0.0
H3421 H 0.72031 0.06242 0.9855 0.0
H3422 H 0.69211 0.0659 0.00094 0.0
H3423 H 0.69687 0.04085 0.98104 0.0
C3424 C 0.21923 0.41793 0.96395 0.0
C3425 C 0.22915 0.43073 0.94469 0.0
C3426 C 0.22688 0.42186 0.98751 0.0
C3427 C 0.24506 0.439 0.992 0.0
C3428 C 0.25413 0.45312 0.97289 0.0
C3429 C 0.24601 0.44884 0.94936 0.0
C3430 C 0.21655 0.40653 0.00739 0.0
C3431 C 0.27339 0.47168 0.97705 0.0
C3432 C 0.25335 0.44887 0.05871 0.0
C3433 C 0.2701 0.43082 0.06395 0.0
C3434 C 0.24634 0.45335 0.03488 0.0
C3435 C 0.25642 0.4395 0.01608 0.0
C3436 C 0.2749 0.42284 0.02118 0.0
C3437 C 0.28146 0.41869 0.04505 0.0
C3438 C 0.22682 0.4715 0.03008 0.0
C3439 C 0.28632 0.40784 0.00166 0.0
H3440 H 0.20593 0.40419 0.96053 0.0
H3441 H 0.25366 0.45893 0.93457 0.0
H3442 H 0.23061 0.39427 0.01437 0.0
H3443 H 0.21049 0.41794 0.02254 0.0
H3444 H 0.20114 0.3955 0.00123 0.0
H3445 H 0.27524 0.48407 0.96152 0.0
H3446 H 0.26952 0.48236 0.99342 0.0
H3447 H 0.29085 0.46254 0.97987 0.0
H3448 H 0.24467 0.45847 0.07325 0.0
H3449 H 0.29481 0.40511 0.049 0.0
H3450 H 0.20961 0.46197 0.02699 0.0
H3451 H 0.23085 0.48209 0.01369 0.0
H3452 H 0.22439 0.48398 0.04544 0.0
H3453 H 0.27319 0.39433 0.99518 0.0
H3454 H 0.30253 0.3982 0.00811 0.0
H3455 H 0.29142 0.4192 0.98613 0.0
C3456 C 0.44875 0.73876 0.00234 0.0
C3457 C 0.44219 0.72413 0.98294 0.0
C3458 C 0.47287 0.73981 0.00962 0.0
C3459 C 0.49009 0.72632 0.99674 0.0
C3460 C 0.48227 0.70723 0.98189 0.0
C3461 C 0.45812 0.70636 0.97508 0.0
C3462 C 0.48042 0.75845 0.02768 0.0
C3463 C 0.49989 0.69093 0.96936 0.0
C3464 C 0.53593 0.75994 0.9606 0.0
C3465 C 0.55726 0.74923 0.96832 0.0
C3466 C 0.51405 0.7543 0.97139 0.0
C3467 C 0.51348 0.7376 0.99069 0.0
C3468 C 0.5353 0.729 0.00045 0.0
C3469 C 0.55705 0.73482 0.98902 0.0
C3470 C 0.49143 0.76464 0.96046 0.0
C3471 C 0.53591 0.71247 0.02188 0.0
H3472 H 0.4362 0.752 0.00914 0.0
H3473 H 0.45269 0.69437 0.96073 0.0
H3474 H 0.49717 0.75299 0.037 0.0
H3475 H 0.48383 0.77571 0.01833 0.0
H3476 H 0.46605 0.76149 0.04118 0.0
H3477 H 0.4909 0.67493 0.96157 0.0
H3478 H 0.50882 0.70091 0.95458 0.0
H3479 H 0.51395 0.68483 0.98205 0.0
H3480 H 0.53615 0.77173 0.94511 0.0
H3481 H 0.57361 0.72689 0.99546 0.0
H3482 H 0.48028 0.77335 0.97444 0.0
H3483 H 0.48072 0.75006 0.95217 0.0
H3484 H 0.4953 0.7782 0.94634 0.0
H3485 H 0.51878 0.71245 0.03205 0.0
H3486 H 0.55065 0.71781 0.03419 0.0
H3487 H 0.53981 0.69392 0.01577 0.0
C3488 C 0.43629 0.23532 0.51962 0.0
C3489 C 0.43704 0.24859 0.54105 0.0
C3490 C 0.45755 0.22738 0.50858 0.0
C3491 C 0.47987 0.23276 0.51941 0.0
C3492 C 0.48065 0.24774 0.54003 0.0
C3493 C 0.45924 0.25547 0.55048 0.0
C3494 C 0.45574 0.21228 0.48617 0.0
C3495 C 0.50401 0.25455 0.55211 0.0
C3496 C 0.53382 0.19689 0.53009 0.0
C3497 C 0.55068 0.21388 0.52242 0.0
C3498 C 0.50948 0.20005 0.52484 0.0
C3499 C 0.50237 0.22069 0.51185 0.0
C3500 C 0.51983 0.23413 0.49925 0.0
C3501 C 0.54414 0.23065 0.50483 0.0
C3502 C 0.49136 0.18415 0.53715 0.0
C3503 C 0.51278 0.25496 0.48351 0.0
H3504 H 0.41913 0.23021 0.51201 0.0
H3505 H 0.45992 0.2663 0.56666 0.0
H3506 H 0.47266 0.21219 0.47565 0.0
H3507 H 0.45137 0.19353 0.49129 0.0
H3508 H 0.44097 0.21886 0.47452 0.0
H3509 H 0.50131 0.26689 0.56755 0.0
H3510 H 0.5132 0.2382 0.55883 0.0
H3511 H 0.51614 0.26349 0.53911 0.0
H3512 H 0.53913 0.18327 0.54297 0.0
H3513 H 0.5573 0.24335 0.49818 0.0
H3514 H 0.47578 0.18076 0.52525 0.0
H3515 H 0.48469 0.19325 0.5536 0.0
H3516 H 0.49935 0.16668 0.54249 0.0
H3517 H 0.49548 0.25142 0.47429 0.0
H3518 H 0.52685 0.25871 0.46987 0.0
H3519 H 0.51058 0.27126 0.49477 0.0
C3520 C 0.95244 0.20407 0.46965 0.0
C3521 C 0.93634 0.22166 0.47755 0.0
C3522 C 0.97681 0.20584 0.47535 0.0
C3523 C 0.98474 0.22576 0.48898 0.0
C3524 C 0.96775 0.23951 0.50189 0.0
C3525 C 0.94338 0.2375 0.4958 0.0
C3526 C 0.9943 0.1894 0.46283 0.0
C3527 C 0.97558 0.25925 0.51862 0.0
C3528 C 0.05115 0.23598 0.47875 0.0
C3529 C 0.05026 0.24944 0.45746 0.0
C3530 C 0.02993 0.22984 0.49099 0.0
C3531 C 0.00756 0.23722 0.48146 0.0
C3532 C 0.00697 0.25287 0.46131 0.0
C3533 C 0.02833 0.25878 0.44968 0.0
C3534 C 0.03171 0.21436 0.51313 0.0
C3535 C 0.98369 0.26194 0.45063 0.0
H3536 H 0.94668 0.19116 0.45624 0.0
H3537 H 0.93074 0.25063 0.50263 0.0
H3538 H 0.00215 0.19881 0.44709 0.0
H3539 H 0.00917 0.18441 0.47507 0.0
H3540 H 0.98544 0.17274 0.45636 0.0
H3541 H 0.96169 0.26273 0.53251 0.0
H3542 H 0.9928 0.25463 0.52754 0.0
H3543 H 0.97825 0.27604 0.50823 0.0
H3544 H 0.0682 0.22914 0.48517 0.0
H3545 H 0.02772 0.26991 0.43371 0.0
H3546 H 0.03573 0.19562 0.50772 0.0
H3547 H 0.01497 0.21448 0.52393 0.0
H3548 H 0.04679 0.22053 0.52461 0.0
H3549 H 0.97301 0.24664 0.44372 0.0
H3550 H 0.98667 0.27467 0.43556 0.0
H3551 H 0.97288 0.27127 0.46449 0.0
C3552 C 0.5392 0.03856 0.7874 0.0
C3553 C 0.52949 0.05834 0.77534 0.0
C3554 C 0.52921 0.01573 0.78463 0.0
C3555 C 0.50876 0.01286 0.76973 0.0
C3556 C 0.49623 0.03342 0.76169 0.0
C3557 C 0.50694 0.05611 0.76429 0.0
C3558 C 0.5427 0.99447 0.79476 0.0
C3559 C 0.47297 0.03143 0.74803 0.0
C3560 C 0.52807 0.96318 0.7303 0.0
C3561 C 0.52305 0.94382 0.74547 0.0
C3562 C 0.51984 0.98618 0.73588 0.0
C3563 C 0.50603 0.98959 0.75702 0.0
C3564 C 0.49675 0.96934 0.76925 0.0
C3565 C 0.5057 0.94644 0.76353 0.0
C3566 C 0.52924 0.00707 0.72133 0.0
C3567 C 0.47978 0.97195 0.79015 0.0
H3568 H 0.55605 0.04046 0.79695 0.0
H3569 H 0.49875 0.07153 0.75571 0.0
H3570 H 0.53031 0.98254 0.80474 0.0
H3571 H 0.55077 0.9839 0.77991 0.0
H3572 H 0.55732 -0.0 0.80714 0.0
H3573 H 0.46042 0.04581 0.75381 0.0
H3574 H 0.47638 0.03407 0.72858 0.0
H3575 H 0.46421 0.01373 0.75071 0.0
H3576 H 0.5408 0.96084 0.71573 0.0
H3577 H 0.50114 0.93128 0.77487 0.0
H3578 H 0.54235 0.01746 0.73216 0.0
H3579 H 0.51437 0.01928 0.71637 0.0
H3580 H 0.53831 0.00113 0.70457 0.0
H3581 H 0.48979 0.9698 0.80723 0.0
H3582 H 0.46597 0.95758 0.78957 0.0
H3583 H 0.47069 0.9897 0.7902 0.0
C3584 C 0.43773 0.53729 0.73073 0.0
C3585 C 0.44722 0.55777 0.74168 0.0
C3586 C 0.44477 0.51438 0.73802 0.0
C3587 C 0.46174 0.51188 0.75687 0.0
C3588 C 0.4729 0.5325 0.76662 0.0
C3589 C 0.46546 0.55533 0.75889 0.0
C3590 C 0.43276 0.49291 0.72653 0.0
C3591 C 0.4915 0.53077 0.78621 0.0
C3592 C 0.44079 0.45606 0.78558 0.0
C3593 C 0.45202 0.4395 0.77038 0.0
C3594 C 0.4471 0.48034 0.78471 0.0
C3595 C 0.46468 0.48788 0.76798 0.0
C3596 C 0.4793 0.47058 0.7565 0.0
C3597 C 0.47275 0.44629 0.75783 0.0
C3598 C 0.43204 0.49818 0.79843 0.0
C3599 C 0.49923 0.47792 0.73973 0.0
H3600 H 0.4241 0.53917 0.71695 0.0
H3601 H 0.47304 0.57119 0.76723 0.0
H3602 H 0.44643 0.48006 0.71987 0.0
H3603 H 0.42157 0.48343 0.74003 0.0
H3604 H 0.42105 0.49805 0.71122 0.0
H3605 H 0.50473 0.54561 0.78468 0.0
H3606 H 0.48253 0.53252 0.80392 0.0
H3607 H 0.50123 0.51339 0.78582 0.0
H3608 H 0.42517 0.45058 0.79583 0.0
H3609 H 0.48183 0.43337 0.74643 0.0
H3610 H 0.41831 0.50595 0.78624 0.0
H3611 H 0.44328 0.5131 0.80529 0.0
H3612 H 0.42263 0.48961 0.8138 0.0
H3613 H 0.49161 0.48167 0.7217 0.0
H3614 H 0.51275 0.46338 0.73782 0.0
H3615 H 0.50826 0.49447 0.74616 0.0
C3616 C 0.05661 0.23473 0.01359 0.0
C3617 C 0.0588 0.22627 0.98996 0.0
C3618 C 0.03502 0.23143 0.02627 0.0
C3619 C 0.01549 0.2202 0.01455 0.0
C3620 C 0.01973 0.20739 0.99289 0.0
C3621 C 0.04148 0.21062 0.98088 0.0
C3622 C 0.03241 0.24247 0.05083 0.0
C3623 C 0.00017 0.19354 0.98018 0.0
C3624 C 0.94992 0.21339 0.01621 0.0
C3625 C 0.94477 0.23112 -0.00089 0.0
C3626 C 0.97285 0.21233 0.02668 0.0
C3627 C 0.99059 0.22876 0.0189 0.0
C3628 C 0.98338 0.2497 0.00629 0.0
C3629 C 0.96036 0.25055 0.99643 0.0
C3630 C 0.97891 0.19173 0.04311 0.0
C3631 C 0.00102 0.26905 -0.00076 0.0
H3632 H 0.07049 0.24606 0.02117 0.0
H3633 H 0.04379 0.20315 0.96303 0.0
H3634 H 0.0332 0.26232 0.04942 0.0
H3635 H 0.0154 0.23719 0.05977 0.0
H3636 H 0.04772 0.23686 0.0623 0.0
H3637 H 0.00719 0.18307 0.96471 0.0
H3638 H 0.99138 0.18087 0.99271 0.0
H3639 H 0.98636 0.20614 0.97332 0.0
H3640 H 0.93742 0.19874 0.01903 0.0
H3641 H 0.95581 0.26473 0.98387 0.0
H3642 H 0.99654 0.19425 0.05205 0.0
H3643 H 0.9792 0.17471 0.03277 0.0
H3644 H 0.96476 0.18988 0.05704 0.0
H3645 H 0.01147 0.27494 0.01508 0.0
H3646 H 0.99192 0.28501 0.99147 0.0
H3647 H 0.01376 0.26195 0.98565 0.0
C3648 C 0.47808 0.05769 0.23615 0.0
C3649 C 0.45897 0.05894 0.25258 0.0
C3650 C 0.48628 0.03545 0.2275 0.0
C3651 C 0.47494 0.01415 0.2354 0.0
C3652 C 0.45696 0.01535 0.25346 0.0
C3653 C 0.44929 0.0377 0.26181 0.0
C3654 C 0.50603 0.03516 0.20897 0.0
C3655 C 0.44461 0.99311 0.26299 0.0
C3656 C 0.45575 0.95992 0.2032 0.0
C3657 C 0.46537 0.9429 0.219 0.0
C3658 C 0.46246 0.98406 0.20504 0.0
C3659 C 0.47893 0.99083 0.22315 0.0
C3660 C 0.49269 0.97297 0.2348 0.0
C3661 C 0.48567 0.94887 0.2326 0.0
C3662 C 0.44858 0.00254 0.19094 0.0
C3663 C 0.51177 0.97952 0.2528 0.0
H3664 H 0.48591 0.07407 0.22914 0.0
H3665 H 0.43497 0.03855 0.27498 0.0
H3666 H 0.51549 0.01765 0.20825 0.0
H3667 H 0.49821 0.03884 0.19101 0.0
H3668 H 0.51934 0.04952 0.21272 0.0
H3669 H 0.43176 0.99724 0.27769 0.0
H3670 H 0.43457 0.98415 0.2483 0.0
H3671 H 0.45804 0.98019 0.26996 0.0
H3672 H 0.44055 0.95507 0.19205 0.0
H3673 H 0.49366 0.93557 0.24437 0.0
H3674 H 0.46044 0.01749 0.18534 0.0
H3675 H 0.43415 0.0101 0.20245 0.0
H3676 H 0.44014 0.99457 0.17472 0.0
H3677 H 0.5212 0.99624 0.24745 0.0
H3678 H 0.52509 0.96481 0.25479 0.0
H3679 H 0.50328 0.98261 0.27057 0.0
C3680 C 0.50648 0.44195 0.22968 0.0
C3681 C 0.53042 0.44226 0.23746 0.0
C3682 C 0.49174 0.46223 0.23272 0.0
C3683 C 0.50141 0.4831 0.24355 0.0
C3684 C 0.52472 0.48226 0.25384 0.0
C3685 C 0.53882 0.46182 0.25069 0.0
C3686 C 0.46659 0.46162 0.22279 0.0
C3687 C 0.53594 0.50372 0.26613 0.0
C3688 C 0.50142 0.54556 0.22356 0.0
C3689 C 0.49689 0.5562 0.24585 0.0
C3690 C 0.49803 0.52089 0.22045 0.0
C3691 C 0.49013 0.50703 0.24026 0.0
C3692 C 0.47999 0.51876 0.26038 0.0
C3693 C 0.48382 0.54353 0.26319 0.0
C3694 C 0.50747 0.50927 0.19787 0.0
C3695 C 0.46917 0.50469 0.28078 0.0
H3696 H 0.49973 0.42658 0.21983 0.0
H3697 H 0.55711 0.46173 0.25738 0.0
H3698 H 0.45514 0.47618 0.23012 0.0
H3699 H 0.4673 0.46338 0.20295 0.0
H3700 H 0.45805 0.44406 0.22684 0.0
H3701 H 0.55361 0.49942 0.2743 0.0
H3702 H 0.53867 0.51833 0.25288 0.0
H3703 H 0.52404 0.51056 0.28053 0.0
H3704 H 0.51105 0.55568 0.20996 0.0
H3705 H 0.47983 0.55196 0.28029 0.0
H3706 H 0.49539 0.49461 0.19198 0.0
H3707 H 0.52541 0.50138 0.20148 0.0
H3708 H 0.50931 0.52244 0.18298 0.0
H3709 H 0.46051 0.48801 0.27414 0.0
H3710 H 0.45572 0.51565 0.29062 0.0
H3711 H 0.48349 0.49955 0.29364 0.0
C3712 C 0.04555 0.75296 0.98902 0.0
C3713 C 0.05648 0.73393 0.00131 0.0
C3714 C 0.02043 0.75417 0.98762 0.0
C3715 C 0.0067 0.73598 -0.0012 0.0
C3716 C 0.01794 0.71418 0.0054 0.0
C3717 C 0.04301 0.71343 0.00669 0.0
C3718 C 0.00887 0.77687 0.97857 0.0
C3719 C 0.00378 0.69357 0.01577 0.0
C3720 C 0.9665 0.75432 0.04995 0.0
C3721 C 0.94397 0.74702 0.04174 0.0
C3722 C 0.98678 0.75237 0.03535 0.0
C3723 C 0.98448 0.74278 0.01182 0.0
C3724 C 0.96147 0.73719 0.0027 0.0
C3725 C 0.94139 0.73936 0.01784 0.0
C3726 C 0.01086 0.75914 0.04591 0.0
C3727 C 0.95792 0.72758 0.97763 0.0
H3728 H 0.05608 0.76861 0.98421 0.0
H3729 H 0.05167 0.69839 0.01555 0.0
H3730 H 0.99079 0.7732 0.97107 0.0
H3731 H 0.00682 0.78967 0.99371 0.0
H3732 H 0.02014 0.78556 0.96459 0.0
H3733 H 0.01423 0.67659 0.01535 0.0
H3734 H -0.00081 0.69762 0.03475 0.0
H3735 H 0.98679 0.69096 0.00574 0.0
H3736 H 0.96846 0.76077 0.06822 0.0
H3737 H 0.92391 0.7339 0.01127 0.0
H3738 H 0.02043 0.77178 0.03387 0.0
H3739 H 0.02212 0.74283 0.04791 0.0
H3740 H 0.00917 0.76772 0.06384 0.0
H3741 H 0.97283 0.73255 0.96539 0.0
H3742 H 0.94079 0.73427 0.96994 0.0
H3743 H 0.95676 0.70771 0.97839 0.0
loop_
_geom_bond_atom_site_label_1
_geom_bond_atom_site_label_2
_geom_bond_distance
_geom_bond_site_symmetry_2
_ccdc_geom_bond_type
Co0 O1 2.216 . S
Co0 O2 2.091 . S
Co0 O4 2.004 . S
Co0 O10 2.021 . S
Co0 O12 2.137 . S
Co0 O13 2.244 . S
O1 Co0 2.216 . S
O1 C8 1.247 . S
O2 Co0 2.091 . S
O2 C8 1.261 . S
C3 O12 1.247 . S
C3 O13 1.272 . S
O4 Co0 2.004 . S
O4 C9 1.259 . S
Co5 O6 2.061 . S
Co5 O11 2.052 . S
Co5 O13 2.135 . S
O6 Co5 2.061 . S
O6 C9 1.235 . S
C7 O10 1.238 . S
C7 O11 1.241 . S
C8 O1 1.247 . S
C8 O2 1.261 . S
C9 O4 1.259 . S
C9 O6 1.235 . S
O10 Co0 2.021 . S
O10 C7 1.238 . S
O11 Co5 2.052 . S
O11 C7 1.241 . S
O12 Co0 2.137 . S
O12 C3 1.247 . S
O13 Co0 2.244 . S
O13 C3 1.272 . S
O13 Co5 2.135 . S
Co14 O15 2.216 . S
Co14 O16 2.091 . S
Co14 O18 2.004 . S
Co14 O24 2.021 . S
Co14 O26 2.137 . S
Co14 O27 2.244 . S
O15 Co14 2.216 . S
O15 C22 1.247 . S
O16 Co14 2.091 . S
O16 C22 1.261 . S
C17 O26 1.247 . S
C17 O27 1.272 . S
O18 Co14 2.004 . S
O18 C23 1.259 . S
Co19 O20 2.061 . S
Co19 O25 2.052 . S
Co19 O27 2.135 . S
O20 Co19 2.061 . S
O20 C23 1.235 . S
C21 O24 1.238 . S
C21 O25 1.241 . S
C22 O15 1.247 . S
C22 O16 1.261 . S
C23 O18 1.259 . S
C23 O20 1.235 . S
O24 Co14 2.021 . S
O24 C21 1.238 . S
O25 Co19 2.052 . S
O25 C21 1.241 . S
O26 Co14 2.137 . S
O26 C17 1.247 . S
O27 Co14 2.244 . S
O27 C17 1.272 . S
O27 Co19 2.135 . S
Co28 O29 2.216 . S
Co28 O30 2.091 . S
Co28 O32 2.004 . S
Co28 O38 2.021 . S
Co28 O40 2.137 . S
Co28 O41 2.244 . S
O29 Co28 2.216 . S
O29 C36 1.247 . S
O30 Co28 2.091 . S
O30 C36 1.261 . S
C31 O40 1.247 . S
C31 O41 1.272 . S
O32 Co28 2.004 . S
O32 C37 1.259 . S
Co33 O34 2.061 . S
Co33 O39 2.052 . S
Co33 O41 2.135 . S
O34 Co33 2.061 . S
O34 C37 1.235 . S
C35 O38 1.238 . S
C35 O39 1.241 . S
C36 O29 1.247 . S
C36 O30 1.261 . S
C37 O32 1.259 . S
C37 O34 1.235 . S
O38 Co28 2.021 . S
O38 C35 1.238 . S
O39 Co33 2.052 . S
O39 C35 1.241 . S
O40 Co28 2.137 . S
O40 C31 1.247 . S
O41 Co28 2.244 . S
O41 C31 1.272 . S
O41 Co33 2.135 . S
Co42 O43 2.216 . S
Co42 O44 2.091 . S
Co42 O46 2.004 . S
Co42 O52 2.021 . S
Co42 O54 2.137 . S
Co42 O55 2.244 . S
O43 Co42 2.216 . S
O43 C50 1.247 . S
O44 Co42 2.091 . S
O44 C50 1.261 . S
C45 O54 1.247 . S
C45 O55 1.272 . S
O46 Co42 2.004 . S
O46 C51 1.259 . S
Co47 O48 2.061 . S
Co47 O53 2.052 . S
Co47 O55 2.135 . S
O48 Co47 2.061 . S
O48 C51 1.235 . S
C49 O52 1.238 . S
C49 O53 1.241 . S
C50 O43 1.247 . S
C50 O44 1.261 . S
C51 O46 1.259 . S
C51 O48 1.235 . S
O52 Co42 2.021 . S
O52 C49 1.238 . S
O53 Co47 2.052 . S
O53 C49 1.241 . S
O54 Co42 2.137 . S
O54 C45 1.247 . S
O55 Co42 2.244 . S
O55 C45 1.272 . S
O55 Co47 2.135 . S
Co56 O57 2.216 . S
Co56 O58 2.091 . S
Co56 O60 2.004 . S
Co56 O66 2.021 . S
Co56 O68 2.137 . S
Co56 O69 2.244 . S
O57 Co56 2.216 . S
O57 C64 1.247 . S
O58 Co56 2.091 . S
O58 C64 1.261 . S
C59 O68 1.247 . S
C59 O69 1.272 . S
O60 Co56 2.004 . S
O60 C65 1.259 . S
Co61 O62 2.061 . S
Co61 O67 2.052 . S
Co61 O69 2.135 . S
O62 Co61 2.061 . S
O62 C65 1.235 . S
C63 O66 1.238 . S
C63 O67 1.241 . S
C64 O57 1.247 . S
C64 O58 1.261 . S
C65 O60 1.259 . S
C65 O62 1.235 . S
O66 Co56 2.021 . S
O66 C63 1.238 . S
O67 Co61 2.052 . S
O67 C63 1.241 . S
O68 Co56 2.137 . S
O68 C59 1.247 . S
O69 Co56 2.244 . S
O69 C59 1.272 . S
O69 Co61 2.135 . S
Co70 O71 2.216 . S
Co70 O72 2.091 . S
Co70 O74 2.004 . S
Co70 O80 2.021 . S
Co70 O82 2.137 . S
Co70 O83 2.244 . S
O71 Co70 2.216 . S
O71 C78 1.247 . S
O72 Co70 2.091 . S
O72 C78 1.261 . S
C73 O82 1.247 . S
C73 O83 1.272 . S
O74 Co70 2.004 . S
O74 C79 1.259 . S
Co75 O76 2.061 . S
Co75 O81 2.052 . S
Co75 O83 2.135 . S
O76 Co75 2.061 . S
O76 C79 1.235 . S
C77 O80 1.238 . S
C77 O81 1.241 . S
C78 O71 1.247 . S
C78 O72 1.261 . S
C79 O74 1.259 . S
C79 O76 1.235 . S
O80 Co70 2.021 . S
O80 C77 1.238 . S
O81 Co75 2.052 . S
O81 C77 1.241 . S
O82 Co70 2.137 . S
O82 C73 1.247 . S
O83 Co70 2.244 . S
O83 C73 1.272 . S
O83 Co75 2.135 . S
Co84 O85 2.216 . S
Co84 O86 2.091 . S
Co84 O88 2.004 . S
Co84 O94 2.021 . S
Co84 O96 2.137 . S
Co84 O97 2.244 . S
O85 Co84 2.216 . S
O85 C92 1.247 . S
O86 Co84 2.091 . S
O86 C92 1.261 . S
C87 O96 1.247 . S
C87 O97 1.272 . S
O88 Co84 2.004 . S
O88 C93 1.259 . S
Co89 O90 2.061 . S
Co89 O95 2.052 . S
Co89 O97 2.135 . S
O90 Co89 2.061 . S
O90 C93 1.235 . S
C91 O94 1.238 . S
C91 O95 1.241 . S
C92 O85 1.247 . S
C92 O86 1.261 . S
C93 O88 1.259 . S
C93 O90 1.235 . S
O94 Co84 2.021 . S
O94 C91 1.238 . S
O95 Co89 2.052 . S
O95 C91 1.241 . S
O96 Co84 2.137 . S
O96 C87 1.247 . S
O97 Co84 2.244 . S
O97 C87 1.272 . S
O97 Co89 2.135 . S
Co98 O99 2.216 . S
Co98 O100 2.091 . S
Co98 O102 2.004 . S
Co98 O108 2.021 . S
Co98 O110 2.137 . S
Co98 O111 2.244 . S
O99 Co98 2.216 . S
O99 C106 1.247 . S
O100 Co98 2.091 . S
O100 C106 1.261 . S
C101 O110 1.247 . S
C101 O111 1.272 . S
O102 Co98 2.004 . S
O102 C107 1.259 . S
Co103 O104 2.061 . S
Co103 O109 2.052 . S
Co103 O111 2.135 . S
O104 Co103 2.061 . S
O104 C107 1.235 . S
C105 O108 1.238 . S
C105 O109 1.241 . S
C106 O99 1.247 . S
C106 O100 1.261 . S
C107 O102 1.259 . S
C107 O104 1.235 . S
O108 Co98 2.021 . S
O108 C105 1.238 . S
O109 Co103 2.052 . S
O109 C105 1.241 . S
O110 Co98 2.137 . S
O110 C101 1.247 . S
O111 Co98 2.244 . S
O111 C101 1.272 . S
O111 Co103 2.135 . S
Co112 O113 2.216 . S
Co112 O114 2.091 . S
Co112 O116 2.004 . S
Co112 O122 2.021 . S
Co112 O124 2.137 . S
Co112 O125 2.244 . S
O113 Co112 2.216 . S
O113 C120 1.247 . S
O114 Co112 2.091 . S
O114 C120 1.261 . S
C115 O124 1.247 . S
C115 O125 1.272 . S
O116 Co112 2.004 . S
O116 C121 1.259 . S
Co117 O118 2.061 . S
Co117 O123 2.052 . S
Co117 O125 2.135 . S
O118 Co117 2.061 . S
O118 C121 1.235 . S
C119 O122 1.238 . S
C119 O123 1.241 . S
C120 O113 1.247 . S
C120 O114 1.261 . S
C121 O116 1.259 . S
C121 O118 1.235 . S
O122 Co112 2.021 . S
O122 C119 1.238 . S
O123 Co117 2.052 . S
O123 C119 1.241 . S
O124 Co112 2.137 . S
O124 C115 1.247 . S
O125 Co112 2.244 . S
O125 C115 1.272 . S
O125 Co117 2.135 . S
Co126 O127 2.216 . S
Co126 O128 2.091 . S
Co126 O130 2.004 . S
Co126 O136 2.021 . S
Co126 O138 2.137 . S
Co126 O139 2.244 . S
O127 Co126 2.216 . S
O127 C134 1.247 . S
O128 Co126 2.091 . S
O128 C134 1.261 . S
C129 O138 1.247 . S
C129 O139 1.272 . S
O130 Co126 2.004 . S
O130 C135 1.259 . S
Co131 O132 2.061 . S
Co131 O137 2.052 . S
Co131 O139 2.135 . S
O132 Co131 2.061 . S
O132 C135 1.235 . S
C133 O136 1.238 . S
C133 O137 1.241 . S
C134 O127 1.247 . S
C134 O128 1.261 . S
C135 O130 1.259 . S
C135 O132 1.235 . S
O136 Co126 2.021 . S
O136 C133 1.238 . S
O137 Co131 2.052 . S
O137 C133 1.241 . S
O138 Co126 2.137 . S
O138 C129 1.247 . S
O139 Co126 2.244 . S
O139 C129 1.272 . S
O139 Co131 2.135 . S
Co140 O141 2.216 . S
Co140 O142 2.091 . S
Co140 O144 2.004 . S
Co140 O150 2.021 . S
Co140 O152 2.137 . S
Co140 O153 2.244 . S
O141 Co140 2.216 . S
O141 C148 1.247 . S
O142 Co140 2.091 . S
O142 C148 1.261 . S
C143 O152 1.247 . S
C143 O153 1.272 . S
O144 Co140 2.004 . S
O144 C149 1.259 . S
Co145 O146 2.061 . S
Co145 O151 2.052 . S
Co145 O153 2.135 . S
O146 Co145 2.061 . S
O146 C149 1.235 . S
C147 O150 1.238 . S
C147 O151 1.241 . S
C148 O141 1.247 . S
C148 O142 1.261 . S
C149 O144 1.259 . S
C149 O146 1.235 . S
O150 Co140 2.021 . S
O150 C147 1.238 . S
O151 Co145 2.052 . S
O151 C147 1.241 . S
O152 Co140 2.137 . S
O152 C143 1.247 . S
O153 Co140 2.244 . S
O153 C143 1.272 . S
O153 Co145 2.135 . S
Co154 O155 2.216 . S
Co154 O156 2.091 . S
Co154 O158 2.004 . S
Co154 O164 2.021 . S
Co154 O166 2.137 . S
Co154 O167 2.244 . S
O155 Co154 2.216 . S
O155 C162 1.247 . S
O156 Co154 2.091 . S
O156 C162 1.261 . S
C157 O166 1.247 . S
C157 O167 1.272 . S
O158 Co154 2.004 . S
O158 C163 1.259 . S
Co159 O160 2.061 . S
Co159 O165 2.052 . S
Co159 O167 2.135 . S
O160 Co159 2.061 . S
O160 C163 1.235 . S
C161 O164 1.238 . S
C161 O165 1.241 . S
C162 O155 1.247 . S
C162 O156 1.261 . S
C163 O158 1.259 . S
C163 O160 1.235 . S
O164 Co154 2.021 . S
O164 C161 1.238 . S
O165 Co159 2.052 . S
O165 C161 1.241 . S
O166 Co154 2.137 . S
O166 C157 1.247 . S
O167 Co154 2.244 . S
O167 C157 1.272 . S
O167 Co159 2.135 . S
Co168 O169 2.216 . S
Co168 O170 2.091 . S
Co168 O172 2.004 . S
Co168 O178 2.021 . S
Co168 O180 2.137 . S
Co168 O181 2.244 . S
O169 Co168 2.216 . S
O169 C176 1.247 . S
O170 Co168 2.091 . S
O170 C176 1.261 . S
C171 O180 1.247 . S
C171 O181 1.272 . S
O172 Co168 2.004 . S
O172 C177 1.259 . S
Co173 O174 2.061 . S
Co173 O179 2.052 . S
Co173 O181 2.135 . S
O174 Co173 2.061 . S
O174 C177 1.235 . S
C175 O178 1.238 . S
C175 O179 1.241 . S
C176 O169 1.247 . S
C176 O170 1.261 . S
C177 O172 1.259 . S
C177 O174 1.235 . S
O178 Co168 2.021 . S
O178 C175 1.238 . S
O179 Co173 2.052 . S
O179 C175 1.241 . S
O180 Co168 2.137 . S
O180 C171 1.247 . S
O181 Co168 2.244 . S
O181 C171 1.272 . S
O181 Co173 2.135 . S
Co182 O183 2.216 . S
Co182 O184 2.091 . S
Co182 O186 2.004 . S
Co182 O192 2.021 . S
Co182 O194 2.137 . S
Co182 O195 2.244 . S
O183 Co182 2.216 . S
O183 C190 1.247 . S
O184 Co182 2.091 . S
O184 C190 1.261 . S
C185 O194 1.247 . S
C185 O195 1.272 . S
O186 Co182 2.004 . S
O186 C191 1.259 . S
Co187 O188 2.061 . S
Co187 O193 2.052 . S
Co187 O195 2.135 . S
O188 Co187 2.061 . S
O188 C191 1.235 . S
C189 O192 1.238 . S
C189 O193 1.241 . S
C190 O183 1.247 . S
C190 O184 1.261 . S
C191 O186 1.259 . S
C191 O188 1.235 . S
O192 Co182 2.021 . S
O192 C189 1.238 . S
O193 Co187 2.052 . S
O193 C189 1.241 . S
O194 Co182 2.137 . S
O194 C185 1.247 . S
O195 Co182 2.244 . S
O195 C185 1.272 . S
O195 Co187 2.135 . S
Co196 O197 2.216 . S
Co196 O198 2.091 . S
Co196 O200 2.004 . S
Co196 O206 2.021 . S
Co196 O208 2.137 . S
Co196 O209 2.244 . S
O197 Co196 2.216 . S
O197 C204 1.247 . S
O198 Co196 2.091 . S
O198 C204 1.261 . S
C199 O208 1.247 . S
C199 O209 1.272 . S
O200 Co196 2.004 . S
O200 C205 1.259 . S
Co201 O202 2.061 . S
Co201 O207 2.052 . S
Co201 O209 2.135 . S
O202 Co201 2.061 . S
O202 C205 1.235 . S
C203 O206 1.238 . S
C203 O207 1.241 . S
C204 O197 1.247 . S
C204 O198 1.261 . S
C205 O200 1.259 . S
C205 O202 1.235 . S
O206 Co196 2.021 . S
O206 C203 1.238 . S
O207 Co201 2.052 . S
O207 C203 1.241 . S
O208 Co196 2.137 . S
O208 C199 1.247 . S
O209 Co196 2.244 . S
O209 C199 1.272 . S
O209 Co201 2.135 . S
Co210 O211 2.216 . S
Co210 O212 2.091 . S
Co210 O214 2.004 . S
Co210 O220 2.021 . S
Co210 O222 2.137 . S
Co210 O223 2.244 . S
O211 Co210 2.216 . S
O211 C218 1.247 . S
O212 Co210 2.091 . S
O212 C218 1.261 . S
C213 O222 1.247 . S
C213 O223 1.272 . S
O214 Co210 2.004 . S
O214 C219 1.259 . S
Co215 O216 2.061 . S
Co215 O221 2.052 . S
Co215 O223 2.135 . S
O216 Co215 2.061 . S
O216 C219 1.235 . S
C217 O220 1.238 . S
C217 O221 1.241 . S
C218 O211 1.247 . S
C218 O212 1.261 . S
C219 O214 1.259 . S
C219 O216 1.235 . S
O220 Co210 2.021 . S
O220 C217 1.238 . S
O221 Co215 2.052 . S
O221 C217 1.241 . S
O222 Co210 2.137 . S
O222 C213 1.247 . S
O223 Co210 2.244 . S
O223 C213 1.272 . S
O223 Co215 2.135 . S
Co224 O225 2.216 . S
Co224 O226 2.091 . S
Co224 O228 2.004 . S
Co224 O234 2.021 . S
Co224 O236 2.137 . S
Co224 O237 2.244 . S
O225 Co224 2.216 . S
O225 C232 1.247 . S
O226 Co224 2.091 . S
O226 C232 1.261 . S
C227 O236 1.247 . S
C227 O237 1.272 . S
O228 Co224 2.004 . S
O228 C233 1.259 . S
Co229 O230 2.061 . S
Co229 O235 2.052 . S
Co229 O237 2.135 . S
O230 Co229 2.061 . S
O230 C233 1.235 . S
C231 O234 1.238 . S
C231 O235 1.241 . S
C232 O225 1.247 . S
C232 O226 1.261 . S
C233 O228 1.259 . S
C233 O230 1.235 . S
O234 Co224 2.021 . S
O234 C231 1.238 . S
O235 Co229 2.052 . S
O235 C231 1.241 . S
O236 Co224 2.137 . S
O236 C227 1.247 . S
O237 Co224 2.244 . S
O237 C227 1.272 . S
O237 Co229 2.135 . S
Co238 O239 2.216 . S
Co238 O240 2.091 . S
Co238 O242 2.004 . S
Co238 O248 2.021 . S
Co238 O250 2.137 . S
Co238 O251 2.244 . S
O239 Co238 2.216 . S
O239 C246 1.247 . S
O240 Co238 2.091 . S
O240 C246 1.261 . S
C241 O250 1.247 . S
C241 O251 1.272 . S
O242 Co238 2.004 . S
O242 C247 1.259 . S
Co243 O244 2.061 . S
Co243 O249 2.052 . S
Co243 O251 2.135 . S
O244 Co243 2.061 . S
O244 C247 1.235 . S
C245 O248 1.238 . S
C245 O249 1.241 . S
C246 O239 1.247 . S
C246 O240 1.261 . S
C247 O242 1.259 . S
C247 O244 1.235 . S
O248 Co238 2.021 . S
O248 C245 1.238 . S
O249 Co243 2.052 . S
O249 C245 1.241 . S
O250 Co238 2.137 . S
O250 C241 1.247 . S
O251 Co238 2.244 . S
O251 C241 1.272 . S
O251 Co243 2.135 . S
Co252 O253 2.216 . S
Co252 O254 2.091 . S
Co252 O256 2.004 . S
Co252 O262 2.021 . S
Co252 O264 2.137 . S
Co252 O265 2.244 . S
O253 Co252 2.216 . S
O253 C260 1.247 . S
O254 Co252 2.091 . S
O254 C260 1.261 . S
C255 O264 1.247 . S
C255 O265 1.272 . S
O256 Co252 2.004 . S
O256 C261 1.259 . S
Co257 O258 2.061 . S
Co257 O263 2.052 . S
Co257 O265 2.135 . S
O258 Co257 2.061 . S
O258 C261 1.235 . S
C259 O262 1.238 . S
C259 O263 1.241 . S
C260 O253 1.247 . S
C260 O254 1.261 . S
C261 O256 1.259 . S
C261 O258 1.235 . S
O262 Co252 2.021 . S
O262 C259 1.238 . S
O263 Co257 2.052 . S
O263 C259 1.241 . S
O264 Co252 2.137 . S
O264 C255 1.247 . S
O265 Co252 2.244 . S
O265 C255 1.272 . S
O265 Co257 2.135 . S
Co266 O267 2.216 . S
Co266 O268 2.091 . S
Co266 O270 2.004 . S
Co266 O276 2.021 . S
Co266 O278 2.137 . S
Co266 O279 2.244 . S
O267 Co266 2.216 . S
O267 C274 1.247 . S
O268 Co266 2.091 . S
O268 C274 1.261 . S
C269 O278 1.247 . S
C269 O279 1.272 . S
O270 Co266 2.004 . S
O270 C275 1.259 . S
Co271 O272 2.061 . S
Co271 O277 2.052 . S
Co271 O279 2.135 . S
O272 Co271 2.061 . S
O272 C275 1.235 . S
C273 O276 1.238 . S
C273 O277 1.241 . S
C274 O267 1.247 . S
C274 O268 1.261 . S
C275 O270 1.259 . S
C275 O272 1.235 . S
O276 Co266 2.021 . S
O276 C273 1.238 . S
O277 Co271 2.052 . S
O277 C273 1.241 . S
O278 Co266 2.137 . S
O278 C269 1.247 . S
O279 Co266 2.244 . S
O279 C269 1.272 . S
O279 Co271 2.135 . S
Co280 O281 2.216 . S
Co280 O282 2.091 . S
Co280 O284 2.004 . S
Co280 O290 2.021 . S
Co280 O292 2.137 . S
Co280 O293 2.244 . S
O281 Co280 2.216 . S
O281 C288 1.247 . S
O282 Co280 2.091 . S
O282 C288 1.261 . S
C283 O292 1.247 . S
C283 O293 1.272 . S
O284 Co280 2.004 . S
O284 C289 1.259 . S
Co285 O286 2.061 . S
Co285 O291 2.052 . S
Co285 O293 2.135 . S
O286 Co285 2.061 . S
O286 C289 1.235 . S
C287 O290 1.238 . S
C287 O291 1.241 . S
C288 O281 1.247 . S
C288 O282 1.261 . S
C289 O284 1.259 . S
C289 O286 1.235 . S
O290 Co280 2.021 . S
O290 C287 1.238 . S
O291 Co285 2.052 . S
O291 C287 1.241 . S
O292 Co280 2.137 . S
O292 C283 1.247 . S
O293 Co280 2.244 . S
O293 C283 1.272 . S
O293 Co285 2.135 . S
Co294 O295 2.216 . S
Co294 O296 2.091 . S
Co294 O298 2.004 . S
Co294 O304 2.021 . S
Co294 O306 2.137 . S
Co294 O307 2.244 . S
O295 Co294 2.216 . S
O295 C302 1.247 . S
O296 Co294 2.091 . S
O296 C302 1.261 . S
C297 O306 1.247 . S
C297 O307 1.272 . S
O298 Co294 2.004 . S
O298 C303 1.259 . S
Co299 O300 2.061 . S
Co299 O305 2.052 . S
Co299 O307 2.135 . S
O300 Co299 2.061 . S
O300 C303 1.235 . S
C301 O304 1.238 . S
C301 O305 1.241 . S
C302 O295 1.247 . S
C302 O296 1.261 . S
C303 O298 1.259 . S
C303 O300 1.235 . S
O304 Co294 2.021 . S
O304 C301 1.238 . S
O305 Co299 2.052 . S
O305 C301 1.241 . S
O306 Co294 2.137 . S
O306 C297 1.247 . S
O307 Co294 2.244 . S
O307 C297 1.272 . S
O307 Co299 2.135 . S
Co308 O309 2.216 . S
Co308 O310 2.091 . S
Co308 O312 2.004 . S
Co308 O318 2.021 . S
Co308 O320 2.137 . S
Co308 O321 2.244 . S
O309 Co308 2.216 . S
O309 C316 1.247 . S
O310 Co308 2.091 . S
O310 C316 1.261 . S
C311 O320 1.247 . S
C311 O321 1.272 . S
O312 Co308 2.004 . S
O312 C317 1.259 . S
Co313 O314 2.061 . S
Co313 O319 2.052 . S
Co313 O321 2.135 . S
O314 Co313 2.061 . S
O314 C317 1.235 . S
C315 O318 1.238 . S
C315 O319 1.241 . S
C316 O309 1.247 . S
C316 O310 1.261 . S
C317 O312 1.259 . S
C317 O314 1.235 . S
O318 Co308 2.021 . S
O318 C315 1.238 . S
O319 Co313 2.052 . S
O319 C315 1.241 . S
O320 Co308 2.137 . S
O320 C311 1.247 . S
O321 Co308 2.244 . S
O321 C311 1.272 . S
O321 Co313 2.135 . S
Co322 O323 2.216 . S
Co322 O324 2.091 . S
Co322 O326 2.004 . S
Co322 O332 2.021 . S
Co322 O334 2.137 . S
Co322 O335 2.244 . S
O323 Co322 2.216 . S
O323 C330 1.247 . S
O324 Co322 2.091 . S
O324 C330 1.261 . S
C325 O334 1.247 . S
C325 O335 1.272 . S
O326 Co322 2.004 . S
O326 C331 1.259 . S
Co327 O328 2.061 . S
Co327 O333 2.052 . S
Co327 O335 2.135 . S
O328 Co327 2.061 . S
O328 C331 1.235 . S
C329 O332 1.238 . S
C329 O333 1.241 . S
C330 O323 1.247 . S
C330 O324 1.261 . S
C331 O326 1.259 . S
C331 O328 1.235 . S
O332 Co322 2.021 . S
O332 C329 1.238 . S
O333 Co327 2.052 . S
O333 C329 1.241 . S
O334 Co322 2.137 . S
O334 C325 1.247 . S
O335 Co322 2.244 . S
O335 C325 1.272 . S
O335 Co327 2.135 . S
Co336 O337 2.216 . S
Co336 O338 2.091 . S
Co336 O340 2.004 . S
Co336 O346 2.021 . S
Co336 O348 2.137 . S
Co336 O349 2.244 . S
O337 Co336 2.216 . S
O337 C344 1.247 . S
O338 Co336 2.091 . S
O338 C344 1.261 . S
C339 O348 1.247 . S
C339 O349 1.272 . S
O340 Co336 2.004 . S
O340 C345 1.259 . S
Co341 O342 2.061 . S
Co341 O347 2.052 . S
Co341 O349 2.135 . S
O342 Co341 2.061 . S
O342 C345 1.235 . S
C343 O346 1.238 . S
C343 O347 1.241 . S
C344 O337 1.247 . S
C344 O338 1.261 . S
C345 O340 1.259 . S
C345 O342 1.235 . S
O346 Co336 2.021 . S
O346 C343 1.238 . S
O347 Co341 2.052 . S
O347 C343 1.241 . S
O348 Co336 2.137 . S
O348 C339 1.247 . S
O349 Co336 2.244 . S
O349 C339 1.272 . S
O349 Co341 2.135 . S
Co350 O351 2.216 . S
Co350 O352 2.091 . S
Co350 O354 2.004 . S
Co350 O360 2.021 . S
Co350 O362 2.137 . S
Co350 O363 2.244 . S
O351 Co350 2.216 . S
O351 C358 1.247 . S
O352 Co350 2.091 . S
O352 C358 1.261 . S
C353 O362 1.247 . S
C353 O363 1.272 . S
O354 Co350 2.004 . S
O354 C359 1.259 . S
Co355 O356 2.061 . S
Co355 O361 2.052 . S
Co355 O363 2.135 . S
O356 Co355 2.061 . S
O356 C359 1.235 . S
C357 O360 1.238 . S
C357 O361 1.241 . S
C358 O351 1.247 . S
C358 O352 1.261 . S
C359 O354 1.259 . S
C359 O356 1.235 . S
O360 Co350 2.021 . S
O360 C357 1.238 . S
O361 Co355 2.052 . S
O361 C357 1.241 . S
O362 Co350 2.137 . S
O362 C353 1.247 . S
O363 Co350 2.244 . S
O363 C353 1.272 . S
O363 Co355 2.135 . S
Co364 O365 2.216 . S
Co364 O366 2.091 . S
Co364 O368 2.004 . S
Co364 O374 2.021 . S
Co364 O376 2.137 . S
Co364 O377 2.244 . S
O365 Co364 2.216 . S
O365 C372 1.247 . S
O366 Co364 2.091 . S
O366 C372 1.261 . S
C367 O376 1.247 . S
C367 O377 1.272 . S
O368 Co364 2.004 . S
O368 C373 1.259 . S
Co369 O370 2.061 . S
Co369 O375 2.052 . S
Co369 O377 2.135 . S
O370 Co369 2.061 . S
O370 C373 1.235 . S
C371 O374 1.238 . S
C371 O375 1.241 . S
C372 O365 1.247 . S
C372 O366 1.261 . S
C373 O368 1.259 . S
C373 O370 1.235 . S
O374 Co364 2.021 . S
O374 C371 1.238 . S
O375 Co369 2.052 . S
O375 C371 1.241 . S
O376 Co364 2.137 . S
O376 C367 1.247 . S
O377 Co364 2.244 . S
O377 C367 1.272 . S
O377 Co369 2.135 . S
Co378 O379 2.216 . S
Co378 O380 2.091 . S
Co378 O382 2.004 . S
Co378 O388 2.021 . S
Co378 O390 2.137 . S
Co378 O391 2.244 . S
O379 Co378 2.216 . S
O379 C386 1.247 . S
O380 Co378 2.091 . S
O380 C386 1.261 . S
C381 O390 1.247 . S
C381 O391 1.272 . S
O382 Co378 2.004 . S
O382 C387 1.259 . S
Co383 O384 2.061 . S
Co383 O389 2.052 . S
Co383 O391 2.135 . S
O384 Co383 2.061 . S
O384 C387 1.235 . S
C385 O388 1.238 . S
C385 O389 1.241 . S
C386 O379 1.247 . S
C386 O380 1.261 . S
C387 O382 1.259 . S
C387 O384 1.235 . S
O388 Co378 2.021 . S
O388 C385 1.238 . S
O389 Co383 2.052 . S
O389 C385 1.241 . S
O390 Co378 2.137 . S
O390 C381 1.247 . S
O391 Co378 2.244 . S
O391 C381 1.272 . S
O391 Co383 2.135 . S
Co392 O393 2.216 . S
Co392 O394 2.091 . S
Co392 O396 2.004 . S
Co392 O402 2.021 . S
Co392 O404 2.137 . S
Co392 O405 2.244 . S
O393 Co392 2.216 . S
O393 C400 1.247 . S
O394 Co392 2.091 . S
O394 C400 1.261 . S
C395 O404 1.247 . S
C395 O405 1.272 . S
O396 Co392 2.004 . S
O396 C401 1.259 . S
Co397 O398 2.061 . S
Co397 O403 2.052 . S
Co397 O405 2.135 . S
O398 Co397 2.061 . S
O398 C401 1.235 . S
C399 O402 1.238 . S
C399 O403 1.241 . S
C400 O393 1.247 . S
C400 O394 1.261 . S
C401 O396 1.259 . S
C401 O398 1.235 . S
O402 Co392 2.021 . S
O402 C399 1.238 . S
O403 Co397 2.052 . S
O403 C399 1.241 . S
O404 Co392 2.137 . S
O404 C395 1.247 . S
O405 Co392 2.244 . S
O405 C395 1.272 . S
O405 Co397 2.135 . S
Co406 O407 2.216 . S
Co406 O408 2.091 . S
Co406 O410 2.004 . S
Co406 O416 2.021 . S
Co406 O418 2.137 . S
Co406 O419 2.244 . S
O407 Co406 2.216 . S
O407 C414 1.247 . S
O408 Co406 2.091 . S
O408 C414 1.261 . S
C409 O418 1.247 . S
C409 O419 1.272 . S
O410 Co406 2.004 . S
O410 C415 1.259 . S
Co411 O412 2.061 . S
Co411 O417 2.052 . S
Co411 O419 2.135 . S
O412 Co411 2.061 . S
O412 C415 1.235 . S
C413 O416 1.238 . S
C413 O417 1.241 . S
C414 O407 1.247 . S
C414 O408 1.261 . S
C415 O410 1.259 . S
C415 O412 1.235 . S
O416 Co406 2.021 . S
O416 C413 1.238 . S
O417 Co411 2.052 . S
O417 C413 1.241 . S
O418 Co406 2.137 . S
O418 C409 1.247 . S
O419 Co406 2.244 . S
O419 C409 1.272 . S
O419 Co411 2.135 . S
Co420 O421 2.216 . S
Co420 O422 2.091 . S
Co420 O424 2.004 . S
Co420 O430 2.021 . S
Co420 O432 2.137 . S
Co420 O433 2.244 . S
O421 Co420 2.216 . S
O421 C428 1.247 . S
O422 Co420 2.091 . S
O422 C428 1.261 . S
C423 O432 1.247 . S
C423 O433 1.272 . S
O424 Co420 2.004 . S
O424 C429 1.259 . S
Co425 O426 2.061 . S
Co425 O431 2.052 . S
Co425 O433 2.135 . S
O426 Co425 2.061 . S
O426 C429 1.235 . S
C427 O430 1.238 . S
C427 O431 1.241 . S
C428 O421 1.247 . S
C428 O422 1.261 . S
C429 O424 1.259 . S
C429 O426 1.235 . S
O430 Co420 2.021 . S
O430 C427 1.238 . S
O431 Co425 2.052 . S
O431 C427 1.241 . S
O432 Co420 2.137 . S
O432 C423 1.247 . S
O433 Co420 2.244 . S
O433 C423 1.272 . S
O433 Co425 2.135 . S
Co434 O435 2.216 . S
Co434 O436 2.091 . S
Co434 O438 2.004 . S
Co434 O444 2.021 . S
Co434 O446 2.137 . S
Co434 O447 2.244 . S
O435 Co434 2.216 . S
O435 C442 1.247 . S
O436 Co434 2.091 . S
O436 C442 1.261 . S
C437 O446 1.247 . S
C437 O447 1.272 . S
O438 Co434 2.004 . S
O438 C443 1.259 . S
Co439 O440 2.061 . S
Co439 O445 2.052 . S
Co439 O447 2.135 . S
O440 Co439 2.061 . S
O440 C443 1.235 . S
C441 O444 1.238 . S
C441 O445 1.241 . S
C442 O435 1.247 . S
C442 O436 1.261 . S
C443 O438 1.259 . S
C443 O440 1.235 . S
O444 Co434 2.021 . S
O444 C441 1.238 . S
O445 Co439 2.052 . S
O445 C441 1.241 . S
O446 Co434 2.137 . S
O446 C437 1.247 . S
O447 Co434 2.244 . S
O447 C437 1.272 . S
O447 Co439 2.135 . S
Co448 O449 2.216 . S
Co448 O450 2.091 . S
Co448 O452 2.004 . S
Co448 O458 2.021 . S
Co448 O460 2.137 . S
Co448 O461 2.244 . S
O449 Co448 2.216 . S
O449 C456 1.247 . S
O450 Co448 2.091 . S
O450 C456 1.261 . S
C451 O460 1.247 . S
C451 O461 1.272 . S
O452 Co448 2.004 . S
O452 C457 1.259 . S
Co453 O454 2.061 . S
Co453 O459 2.052 . S
Co453 O461 2.135 . S
O454 Co453 2.061 . S
O454 C457 1.235 . S
C455 O458 1.238 . S
C455 O459 1.241 . S
C456 O449 1.247 . S
C456 O450 1.261 . S
C457 O452 1.259 . S
C457 O454 1.235 . S
O458 Co448 2.021 . S
O458 C455 1.238 . S
O459 Co453 2.052 . S
O459 C455 1.241 . S
O460 Co448 2.137 . S
O460 C451 1.247 . S
O461 Co448 2.244 . S
O461 C451 1.272 . S
O461 Co453 2.135 . S
Co462 O463 2.216 . S
Co462 O464 2.091 . S
Co462 O466 2.004 . S
Co462 O472 2.021 . S
Co462 O474 2.137 . S
Co462 O475 2.244 . S
O463 Co462 2.216 . S
O463 C470 1.247 . S
O464 Co462 2.091 . S
O464 C470 1.261 . S
C465 O474 1.247 . S
C465 O475 1.272 . S
O466 Co462 2.004 . S
O466 C471 1.259 . S
Co467 O468 2.061 . S
Co467 O473 2.052 . S
Co467 O475 2.135 . S
O468 Co467 2.061 . S
O468 C471 1.235 . S
C469 O472 1.238 . S
C469 O473 1.241 . S
C470 O463 1.247 . S
C470 O464 1.261 . S
C471 O466 1.259 . S
C471 O468 1.235 . S
O472 Co462 2.021 . S
O472 C469 1.238 . S
O473 Co467 2.052 . S
O473 C469 1.241 . S
O474 Co462 2.137 . S
O474 C465 1.247 . S
O475 Co462 2.244 . S
O475 C465 1.272 . S
O475 Co467 2.135 . S
Co476 O477 2.216 . S
Co476 O478 2.091 . S
Co476 O480 2.004 . S
Co476 O486 2.021 . S
Co476 O488 2.137 . S
Co476 O489 2.244 . S
O477 Co476 2.216 . S
O477 C484 1.247 . S
O478 Co476 2.091 . S
O478 C484 1.261 . S
C479 O488 1.247 . S
C479 O489 1.272 . S
O480 Co476 2.004 . S
O480 C485 1.259 . S
Co481 O482 2.061 . S
Co481 O487 2.052 . S
Co481 O489 2.135 . S
O482 Co481 2.061 . S
O482 C485 1.235 . S
C483 O486 1.238 . S
C483 O487 1.241 . S
C484 O477 1.247 . S
C484 O478 1.261 . S
C485 O480 1.259 . S
C485 O482 1.235 . S
O486 Co476 2.021 . S
O486 C483 1.238 . S
O487 Co481 2.052 . S
O487 C483 1.241 . S
O488 Co476 2.137 . S
O488 C479 1.247 . S
O489 Co476 2.244 . S
O489 C479 1.272 . S
O489 Co481 2.135 . S
Co490 O491 2.216 . S
Co490 O492 2.091 . S
Co490 O494 2.004 . S
Co490 O500 2.021 . S
Co490 O502 2.137 . S
Co490 O503 2.244 . S
O491 Co490 2.216 . S
O491 C498 1.247 . S
O492 Co490 2.091 . S
O492 C498 1.261 . S
C493 O502 1.247 . S
C493 O503 1.272 . S
O494 Co490 2.004 . S
O494 C499 1.259 . S
Co495 O496 2.061 . S
Co495 O501 2.052 . S
Co495 O503 2.135 . S
O496 Co495 2.061 . S
O496 C499 1.235 . S
C497 O500 1.238 . S
C497 O501 1.241 . S
C498 O491 1.247 . S
C498 O492 1.261 . S
C499 O494 1.259 . S
C499 O496 1.235 . S
O500 Co490 2.021 . S
O500 C497 1.238 . S
O501 Co495 2.052 . S
O501 C497 1.241 . S
O502 Co490 2.137 . S
O502 C493 1.247 . S
O503 Co490 2.244 . S
O503 C493 1.272 . S
O503 Co495 2.135 . S
Co504 O505 2.216 . S
Co504 O506 2.091 . S
Co504 O508 2.004 . S
Co504 O514 2.021 . S
Co504 O516 2.137 . S
Co504 O517 2.244 . S
O505 Co504 2.216 . S
O505 C512 1.247 . S
O506 Co504 2.091 . S
O506 C512 1.261 . S
C507 O516 1.247 . S
C507 O517 1.272 . S
O508 Co504 2.004 . S
O508 C513 1.259 . S
Co509 O510 2.061 . S
Co509 O515 2.052 . S
Co509 O517 2.135 . S
O510 Co509 2.061 . S
O510 C513 1.235 . S
C511 O514 1.238 . S
C511 O515 1.241 . S
C512 O505 1.247 . S
C512 O506 1.261 . S
C513 O508 1.259 . S
C513 O510 1.235 . S
O514 Co504 2.021 . S
O514 C511 1.238 . S
O515 Co509 2.052 . S
O515 C511 1.241 . S
O516 Co504 2.137 . S
O516 C507 1.247 . S
O517 Co504 2.244 . S
O517 C507 1.272 . S
O517 Co509 2.135 . S
Co518 O519 2.216 . S
Co518 O520 2.091 . S
Co518 O522 2.004 . S
Co518 O528 2.021 . S
Co518 O530 2.137 . S
Co518 O531 2.244 . S
O519 Co518 2.216 . S
O519 C526 1.247 . S
O520 Co518 2.091 . S
O520 C526 1.261 . S
C521 O530 1.247 . S
C521 O531 1.272 . S
O522 Co518 2.004 . S
O522 C527 1.259 . S
Co523 O524 2.061 . S
Co523 O529 2.052 . S
Co523 O531 2.135 . S
O524 Co523 2.061 . S
O524 C527 1.235 . S
C525 O528 1.238 . S
C525 O529 1.241 . S
C526 O519 1.247 . S
C526 O520 1.261 . S
C527 O522 1.259 . S
C527 O524 1.235 . S
O528 Co518 2.021 . S
O528 C525 1.238 . S
O529 Co523 2.052 . S
O529 C525 1.241 . S
O530 Co518 2.137 . S
O530 C521 1.247 . S
O531 Co518 2.244 . S
O531 C521 1.272 . S
O531 Co523 2.135 . S
Co532 O533 2.216 . S
Co532 O534 2.091 . S
Co532 O536 2.004 . S
Co532 O542 2.021 . S
Co532 O544 2.137 . S
Co532 O545 2.244 . S
O533 Co532 2.216 . S
O533 C540 1.247 . S
O534 Co532 2.091 . S
O534 C540 1.261 . S
C535 O544 1.247 . S
C535 O545 1.272 . S
O536 Co532 2.004 . S
O536 C541 1.259 . S
Co537 O538 2.061 . S
Co537 O543 2.052 . S
Co537 O545 2.135 . S
O538 Co537 2.061 . S
O538 C541 1.235 . S
C539 O542 1.238 . S
C539 O543 1.241 . S
C540 O533 1.247 . S
C540 O534 1.261 . S
C541 O536 1.259 . S
C541 O538 1.235 . S
O542 Co532 2.021 . S
O542 C539 1.238 . S
O543 Co537 2.052 . S
O543 C539 1.241 . S
O544 Co532 2.137 . S
O544 C535 1.247 . S
O545 Co532 2.244 . S
O545 C535 1.272 . S
O545 Co537 2.135 . S
Co546 O547 2.216 . S
Co546 O548 2.091 . S
Co546 O550 2.004 . S
Co546 O556 2.021 . S
Co546 O558 2.137 . S
Co546 O559 2.244 . S
O547 Co546 2.216 . S
O547 C554 1.247 . S
O548 Co546 2.091 . S
O548 C554 1.261 . S
C549 O558 1.247 . S
C549 O559 1.272 . S
O550 Co546 2.004 . S
O550 C555 1.259 . S
Co551 O552 2.061 . S
Co551 O557 2.052 . S
Co551 O559 2.135 . S
O552 Co551 2.061 . S
O552 C555 1.235 . S
C553 O556 1.238 . S
C553 O557 1.241 . S
C554 O547 1.247 . S
C554 O548 1.261 . S
C555 O550 1.259 . S
C555 O552 1.235 . S
O556 Co546 2.021 . S
O556 C553 1.238 . S
O557 Co551 2.052 . S
O557 C553 1.241 . S
O558 Co546 2.137 . S
O558 C549 1.247 . S
O559 Co546 2.244 . S
O559 C549 1.272 . S
O559 Co551 2.135 . S
Co560 O561 2.216 . S
Co560 O562 2.091 . S
Co560 O564 2.004 . S
Co560 O570 2.021 . S
Co560 O572 2.137 . S
Co560 O573 2.244 . S
O561 Co560 2.216 . S
O561 C568 1.247 . S
O562 Co560 2.091 . S
O562 C568 1.261 . S
C563 O572 1.247 . S
C563 O573 1.272 . S
O564 Co560 2.004 . S
O564 C569 1.259 . S
Co565 O566 2.061 . S
Co565 O571 2.052 . S
Co565 O573 2.135 . S
O566 Co565 2.061 . S
O566 C569 1.235 . S
C567 O570 1.238 . S
C567 O571 1.241 . S
C568 O561 1.247 . S
C568 O562 1.261 . S
C569 O564 1.259 . S
C569 O566 1.235 . S
O570 Co560 2.021 . S
O570 C567 1.238 . S
O571 Co565 2.052 . S
O571 C567 1.241 . S
O572 Co560 2.137 . S
O572 C563 1.247 . S
O573 Co560 2.244 . S
O573 C563 1.272 . S
O573 Co565 2.135 . S
Co574 O575 2.216 . S
Co574 O576 2.091 . S
Co574 O578 2.004 . S
Co574 O584 2.021 . S
Co574 O586 2.137 . S
Co574 O587 2.244 . S
O575 Co574 2.216 . S
O575 C582 1.247 . S
O576 Co574 2.091 . S
O576 C582 1.261 . S
C577 O586 1.247 . S
C577 O587 1.272 . S
O578 Co574 2.004 . S
O578 C583 1.259 . S
Co579 O580 2.061 . S
Co579 O585 2.052 . S
Co579 O587 2.135 . S
O580 Co579 2.061 . S
O580 C583 1.235 . S
C581 O584 1.238 . S
C581 O585 1.241 . S
C582 O575 1.247 . S
C582 O576 1.261 . S
C583 O578 1.259 . S
C583 O580 1.235 . S
O584 Co574 2.021 . S
O584 C581 1.238 . S
O585 Co579 2.052 . S
O585 C581 1.241 . S
O586 Co574 2.137 . S
O586 C577 1.247 . S
O587 Co574 2.244 . S
O587 C577 1.272 . S
O587 Co579 2.135 . S
Co588 O589 2.216 . S
Co588 O590 2.091 . S
Co588 O592 2.004 . S
Co588 O598 2.021 . S
Co588 O600 2.137 . S
Co588 O601 2.244 . S
O589 Co588 2.216 . S
O589 C596 1.247 . S
O590 Co588 2.091 . S
O590 C596 1.261 . S
C591 O600 1.247 . S
C591 O601 1.272 . S
O592 Co588 2.004 . S
O592 C597 1.259 . S
Co593 O594 2.061 . S
Co593 O599 2.052 . S
Co593 O601 2.135 . S
O594 Co593 2.061 . S
O594 C597 1.235 . S
C595 O598 1.238 . S
C595 O599 1.241 . S
C596 O589 1.247 . S
C596 O590 1.261 . S
C597 O592 1.259 . S
C597 O594 1.235 . S
O598 Co588 2.021 . S
O598 C595 1.238 . S
O599 Co593 2.052 . S
O599 C595 1.241 . S
O600 Co588 2.137 . S
O600 C591 1.247 . S
O601 Co588 2.244 . S
O601 C591 1.272 . S
O601 Co593 2.135 . S
Co602 O603 2.216 . S
Co602 O604 2.091 . S
Co602 O606 2.004 . S
Co602 O612 2.021 . S
Co602 O614 2.137 . S
Co602 O615 2.244 . S
O603 Co602 2.216 . S
O603 C610 1.247 . S
O604 Co602 2.091 . S
O604 C610 1.261 . S
C605 O614 1.247 . S
C605 O615 1.272 . S
O606 Co602 2.004 . S
O606 C611 1.259 . S
Co607 O608 2.061 . S
Co607 O613 2.052 . S
Co607 O615 2.135 . S
O608 Co607 2.061 . S
O608 C611 1.235 . S
C609 O612 1.238 . S
C609 O613 1.241 . S
C610 O603 1.247 . S
C610 O604 1.261 . S
C611 O606 1.259 . S
C611 O608 1.235 . S
O612 Co602 2.021 . S
O612 C609 1.238 . S
O613 Co607 2.052 . S
O613 C609 1.241 . S
O614 Co602 2.137 . S
O614 C605 1.247 . S
O615 Co602 2.244 . S
O615 C605 1.272 . S
O615 Co607 2.135 . S
Co616 O617 2.216 . S
Co616 O618 2.091 . S
Co616 O620 2.004 . S
Co616 O626 2.021 . S
Co616 O628 2.137 . S
Co616 O629 2.244 . S
O617 Co616 2.216 . S
O617 C624 1.247 . S
O618 Co616 2.091 . S
O618 C624 1.261 . S
C619 O628 1.247 . S
C619 O629 1.272 . S
O620 Co616 2.004 . S
O620 C625 1.259 . S
Co621 O622 2.061 . S
Co621 O627 2.052 . S
Co621 O629 2.135 . S
O622 Co621 2.061 . S
O622 C625 1.235 . S
C623 O626 1.238 . S
C623 O627 1.241 . S
C624 O617 1.247 . S
C624 O618 1.261 . S
C625 O620 1.259 . S
C625 O622 1.235 . S
O626 Co616 2.021 . S
O626 C623 1.238 . S
O627 Co621 2.052 . S
O627 C623 1.241 . S
O628 Co616 2.137 . S
O628 C619 1.247 . S
O629 Co616 2.244 . S
O629 C619 1.272 . S
O629 Co621 2.135 . S
Co630 O631 2.216 . S
Co630 O632 2.091 . S
Co630 O634 2.004 . S
Co630 O640 2.021 . S
Co630 O642 2.137 . S
Co630 O643 2.244 . S
O631 Co630 2.216 . S
O631 C638 1.247 . S
O632 Co630 2.091 . S
O632 C638 1.261 . S
C633 O642 1.247 . S
C633 O643 1.272 . S
O634 Co630 2.004 . S
O634 C639 1.259 . S
Co635 O636 2.061 . S
Co635 O641 2.052 . S
Co635 O643 2.135 . S
O636 Co635 2.061 . S
O636 C639 1.235 . S
C637 O640 1.238 . S
C637 O641 1.241 . S
C638 O631 1.247 . S
C638 O632 1.261 . S
C639 O634 1.259 . S
C639 O636 1.235 . S
O640 Co630 2.021 . S
O640 C637 1.238 . S
O641 Co635 2.052 . S
O641 C637 1.241 . S
O642 Co630 2.137 . S
O642 C633 1.247 . S
O643 Co630 2.244 . S
O643 C633 1.272 . S
O643 Co635 2.135 . S
Co644 O645 2.216 . S
Co644 O646 2.091 . S
Co644 O648 2.004 . S
Co644 O654 2.021 . S
Co644 O656 2.137 . S
Co644 O657 2.244 . S
O645 Co644 2.216 . S
O645 C652 1.247 . S
O646 Co644 2.091 . S
O646 C652 1.261 . S
C647 O656 1.247 . S
C647 O657 1.272 . S
O648 Co644 2.004 . S
O648 C653 1.259 . S
Co649 O650 2.061 . S
Co649 O655 2.052 . S
Co649 O657 2.135 . S
O650 Co649 2.061 . S
O650 C653 1.235 . S
C651 O654 1.238 . S
C651 O655 1.241 . S
C652 O645 1.247 . S
C652 O646 1.261 . S
C653 O648 1.259 . S
C653 O650 1.235 . S
O654 Co644 2.021 . S
O654 C651 1.238 . S
O655 Co649 2.052 . S
O655 C651 1.241 . S
O656 Co644 2.137 . S
O656 C647 1.247 . S
O657 Co644 2.244 . S
O657 C647 1.272 . S
O657 Co649 2.135 . S
Co658 O659 2.216 . S
Co658 O660 2.091 . S
Co658 O662 2.004 . S
Co658 O668 2.021 . S
Co658 O670 2.137 . S
Co658 O671 2.244 . S
O659 Co658 2.216 . S
O659 C666 1.247 . S
O660 Co658 2.091 . S
O660 C666 1.261 . S
C661 O670 1.247 . S
C661 O671 1.272 . S
O662 Co658 2.004 . S
O662 C667 1.259 . S
Co663 O664 2.061 . S
Co663 O669 2.052 . S
Co663 O671 2.135 . S
O664 Co663 2.061 . S
O664 C667 1.235 . S
C665 O668 1.238 . S
C665 O669 1.241 . S
C666 O659 1.247 . S
C666 O660 1.261 . S
C667 O662 1.259 . S
C667 O664 1.235 . S
O668 Co658 2.021 . S
O668 C665 1.238 . S
O669 Co663 2.052 . S
O669 C665 1.241 . S
O670 Co658 2.137 . S
O670 C661 1.247 . S
O671 Co658 2.244 . S
O671 C661 1.272 . S
O671 Co663 2.135 . S
C672 C673 1.391 1_455 S
C672 C674 1.394 . S
C672 H688 0.931 . S
C673 C672 1.391 1_655 S
C673 C677 1.376 . S
C674 C672 1.394 . S
C674 C675 1.369 1_455 S
C674 C678 1.531 . S
C675 C674 1.369 1_655 S
C675 C676 1.410 . S
C675 C683 1.503 1_655 S
C676 C675 1.410 . S
C676 C677 1.392 . S
C676 C679 1.511 . S
C677 C673 1.376 . S
C677 C676 1.392 . S
C677 H689 0.929 . S
C678 C674 1.531 . S
C678 H690 0.960 . S
C678 H691 0.962 . S
C678 H692 0.960 . S
C679 C676 1.511 . S
C679 H693 0.961 . S
C679 H694 0.961 . S
C679 H695 0.961 . S
C680 C681 1.370 . S
C680 C682 1.363 . S
C680 H696 0.931 . S
C681 C680 1.370 . S
C681 C685 1.408 . S
C682 C680 1.363 . S
C682 C683 1.370 . S
C682 C686 1.524 . S
C683 C675 1.503 1_455 S
C683 C682 1.370 . S
C683 C684 1.403 1_455 S
C684 C683 1.403 1_655 S
C684 C685 1.404 1_655 S
C684 C687 1.539 . S
C685 C681 1.408 . S
C685 C684 1.404 1_455 S
C685 H697 0.930 1_455 S
C686 C682 1.524 . S
C686 H698 0.956 . S
C686 H699 0.961 . S
C686 H700 0.961 . S
C687 C684 1.539 . S
C687 H701 0.958 . S
C687 H702 0.961 . S
C687 H703 0.960 . S
H688 C672 0.931 . S
H689 C677 0.929 . S
H690 C678 0.960 . S
H691 C678 0.962 . S
H692 C678 0.960 . S
H693 C679 0.961 . S
H694 C679 0.961 . S
H695 C679 0.961 . S
H696 C680 0.931 . S
H697 C685 0.930 1_655 S
H698 C686 0.956 . S
H699 C686 0.961 . S
H700 C686 0.961 . S
H701 C687 0.958 . S
H702 C687 0.961 . S
H703 C687 0.960 . S
C704 C705 1.391 1_655 S
C704 C706 1.394 . S
C704 H720 0.931 . S
C705 C704 1.391 1_455 S
C705 C709 1.376 . S
C706 C704 1.394 . S
C706 C707 1.369 1_655 S
C706 C710 1.531 . S
C707 C706 1.369 1_455 S
C707 C708 1.410 . S
C707 C715 1.503 1_455 S
C708 C707 1.410 . S
C708 C709 1.392 . S
C708 C711 1.511 . S
C709 C705 1.376 . S
C709 C708 1.392 . S
C709 H721 0.929 . S
C710 C706 1.531 . S
C710 H722 0.960 . S
C710 H723 0.962 . S
C710 H724 0.960 . S
C711 C708 1.511 . S
C711 H725 0.961 . S
C711 H726 0.961 . S
C711 H727 0.961 . S
C712 C713 1.370 . S
C712 C714 1.363 . S
C712 H728 0.931 . S
C713 C712 1.370 . S
C713 C717 1.408 . S
C714 C712 1.363 . S
C714 C715 1.370 . S
C714 C718 1.524 . S
C715 C707 1.503 1_655 S
C715 C714 1.370 . S
C715 C716 1.403 . S
C716 C715 1.403 . S
C716 C717 1.404 . S
C716 C719 1.539 1_655 S
C717 C713 1.408 . S
C717 C716 1.404 . S
C717 H729 0.930 . S
C718 C714 1.524 . S
C718 H730 0.956 . S
C718 H731 0.961 1_655 S
C718 H732 0.961 . S
C719 C716 1.539 1_455 S
C719 H733 0.958 1_455 S
C719 H734 0.961 . S
C719 H735 0.960 . S
H720 C704 0.931 . S
H721 C709 0.929 . S
H722 C710 0.960 . S
H723 C710 0.962 . S
H724 C710 0.960 . S
H725 C711 0.961 . S
H726 C711 0.961 . S
H727 C711 0.961 . S
H728 C712 0.931 . S
H729 C717 0.930 . S
H730 C718 0.956 . S
H731 C718 0.961 1_455 S
H732 C718 0.961 . S
H733 C719 0.958 1_655 S
H734 C719 0.961 . S
H735 C719 0.960 . S
C736 C737 1.391 . S
C736 C738 1.394 . S
C736 H752 0.931 . S
C737 C736 1.391 . S
C737 C741 1.376 . S
C738 C736 1.394 . S
C738 C739 1.369 . S
C738 C742 1.531 . S
C739 C738 1.369 . S
C739 C740 1.410 . S
C739 C747 1.503 1_565 S
C740 C739 1.410 . S
C740 C741 1.392 . S
C740 C743 1.511 1_565 S
C741 C737 1.376 . S
C741 C740 1.392 . S
C741 H753 0.929 . S
C742 C738 1.531 . S
C742 H754 0.960 . S
C742 H755 0.962 . S
C742 H756 0.960 . S
C743 C740 1.511 1_545 S
C743 H757 0.961 . S
C743 H758 0.961 . S
C743 H759 0.961 1_545 S
C744 C745 1.370 . S
C744 C746 1.363 . S
C744 H760 0.931 . S
C745 C744 1.370 . S
C745 C749 1.408 1_545 S
C746 C744 1.363 . S
C746 C747 1.371 . S
C746 C750 1.524 . S
C747 C739 1.503 1_545 S
C747 C746 1.371 . S
C747 C748 1.402 1_545 S
C748 C747 1.402 1_565 S
C748 C749 1.404 . S
C748 C751 1.539 . S
C749 C745 1.408 1_565 S
C749 C748 1.404 . S
C749 H761 0.930 . S
C750 C746 1.524 . S
C750 H762 0.956 . S
C750 H763 0.961 . S
C750 H764 0.961 . S
C751 C748 1.539 . S
C751 H765 0.958 . S
C751 H766 0.961 . S
C751 H767 0.960 . S
H752 C736 0.931 . S
H753 C741 0.929 . S
H754 C742 0.960 . S
H755 C742 0.962 . S
H756 C742 0.960 . S
H757 C743 0.961 . S
H758 C743 0.961 . S
H759 C743 0.961 1_565 S
H760 C744 0.931 . S
H761 C749 0.930 . S
H762 C750 0.956 . S
H763 C750 0.961 . S
H764 C750 0.961 . S
H765 C751 0.958 . S
H766 C751 0.961 . S
H767 C751 0.960 . S
C768 C769 1.391 . S
C768 C770 1.394 . S
C768 H784 0.931 . S
C769 C768 1.391 . S
C769 C773 1.376 . S
C770 C768 1.394 . S
C770 C771 1.369 . S
C770 C774 1.531 . S
C771 C770 1.369 . S
C771 C772 1.410 . S
C771 C779 1.503 . S
C772 C771 1.410 . S
C772 C773 1.392 . S
C772 C775 1.511 . S
C773 C769 1.376 . S
C773 C772 1.392 . S
C773 H785 0.929 . S
C774 C770 1.531 . S
C774 H786 0.960 . S
C774 H787 0.962 . S
C774 H788 0.960 . S
C775 C772 1.511 . S
C775 H789 0.961 . S
C775 H790 0.961 . S
C775 H791 0.961 . S
C776 C777 1.370 . S
C776 C778 1.363 . S
C776 H792 0.931 . S
C777 C776 1.370 . S
C777 C781 1.408 . S
C778 C776 1.363 . S
C778 C779 1.370 . S
C778 C782 1.524 . S
C779 C771 1.503 . S
C779 C778 1.370 . S
C779 C780 1.403 . S
C780 C779 1.403 . S
C780 C781 1.404 . S
C780 C783 1.539 . S
C781 C777 1.408 . S
C781 C780 1.404 . S
C781 H793 0.930 . S
C782 C778 1.524 . S
C782 H794 0.956 . S
C782 H795 0.961 . S
C782 H796 0.961 . S
C783 C780 1.539 . S
C783 H797 0.958 . S
C783 H798 0.961 . S
C783 H799 0.960 . S
H784 C768 0.931 . S
H785 C773 0.929 . S
H786 C774 0.960 . S
H787 C774 0.962 . S
H788 C774 0.960 . S
H789 C775 0.961 . S
H790 C775 0.961 . S
H791 C775 0.961 . S
H792 C776 0.931 . S
H793 C781 0.930 . S
H794 C782 0.956 . S
H795 C782 0.961 . S
H796 C782 0.961 . S
H797 C783 0.958 . S
H798 C783 0.961 . S
H799 C783 0.960 . S
C800 C801 1.391 . S
C800 C802 1.394 . S
C800 H816 0.931 . S
C801 C800 1.391 . S
C801 C805 1.385 . S
C802 C800 1.394 . S
C802 C803 1.357 1_554 S
C802 C806 1.531 . S
C803 C802 1.357 1_556 S
C803 C804 1.416 . S
C803 C811 1.508 . S
C804 C803 1.416 . S
C804 C805 1.387 1_556 S
C804 C807 1.511 . S
C805 C801 1.385 . S
C805 C804 1.387 1_554 S
C805 H817 0.925 1_554 S
C806 C802 1.531 . S
C806 H818 0.960 . S
C806 H819 0.962 . S
C806 H820 0.960 . S
C807 C804 1.511 . S
C807 H821 0.961 . S
C807 H822 0.961 . S
C807 H823 0.961 . S
C808 C809 1.370 1_554 S
C808 C810 1.363 . S
C808 H824 0.931 . S
C809 C808 1.370 1_556 S
C809 C813 1.408 . S
C810 C808 1.363 . S
C810 C811 1.370 1_554 S
C810 C814 1.524 . S
C811 C803 1.508 . S
C811 C810 1.370 1_556 S
C811 C812 1.403 . S
C812 C811 1.403 . S
C812 C813 1.404 . S
C812 C815 1.539 . S
C813 C809 1.408 . S
C813 C812 1.404 . S
C813 H825 0.930 . S
C814 C810 1.524 . S
C814 H826 0.956 . S
C814 H827 0.961 . S
C814 H828 0.961 . S
C815 C812 1.539 . S
C815 H829 0.958 . S
C815 H830 0.961 . S
C815 H831 0.960 . S
H816 C800 0.931 . S
H817 C805 0.925 1_556 S
H818 C806 0.960 . S
H819 C806 0.962 . S
H820 C806 0.960 . S
H821 C807 0.961 . S
H822 C807 0.961 . S
H823 C807 0.961 . S
H824 C808 0.931 . S
H825 C813 0.930 . S
H826 C814 0.956 . S
H827 C814 0.961 . S
H828 C814 0.961 . S
H829 C815 0.958 . S
H830 C815 0.961 . S
H831 C815 0.960 . S
C832 C833 1.391 . S
C832 C834 1.394 . S
C832 H848 0.931 . S
C833 C832 1.391 . S
C833 C837 1.376 . S
C834 C832 1.394 . S
C834 C835 1.369 . S
C834 C838 1.531 . S
C835 C834 1.369 . S
C835 C836 1.410 . S
C835 C843 1.503 . S
C836 C835 1.410 . S
C836 C837 1.392 . S
C836 C839 1.511 . S
C837 C833 1.376 . S
C837 C836 1.392 . S
C837 H849 0.929 . S
C838 C834 1.531 . S
C838 H850 0.960 . S
C838 H851 0.962 . S
C838 H852 0.960 . S
C839 C836 1.511 . S
C839 H853 0.961 . S
C839 H854 0.961 . S
C839 H855 0.961 . S
C840 C841 1.370 . S
C840 C842 1.363 . S
C840 H856 0.931 . S
C841 C840 1.370 . S
C841 C845 1.408 . S
C842 C840 1.363 . S
C842 C843 1.370 . S
C842 C846 1.524 . S
C843 C835 1.503 . S
C843 C842 1.370 . S
C843 C844 1.403 . S
C844 C843 1.403 . S
C844 C845 1.404 . S
C844 C847 1.539 . S
C845 C841 1.408 . S
C845 C844 1.404 . S
C845 H857 0.930 . S
C846 C842 1.524 . S
C846 H858 0.956 . S
C846 H859 0.961 . S
C846 H860 0.961 . S
C847 C844 1.539 . S
C847 H861 0.958 . S
C847 H862 0.961 . S
C847 H863 0.960 . S
H848 C832 0.931 . S
H849 C837 0.929 . S
H850 C838 0.960 . S
H851 C838 0.962 . S
H852 C838 0.960 . S
H853 C839 0.961 . S
H854 C839 0.961 . S
H855 C839 0.961 . S
H856 C840 0.931 . S
H857 C845 0.930 . S
H858 C846 0.956 . S
H859 C846 0.961 . S
H860 C846 0.961 . S
H861 C847 0.958 . S
H862 C847 0.961 . S
H863 C847 0.960 . S
C864 C865 1.391 . S
C864 C866 1.394 . S
C864 H880 0.931 . S
C865 C864 1.391 . S
C865 C869 1.376 . S
C866 C864 1.394 . S
C866 C867 1.369 . S
C866 C870 1.531 . S
C867 C866 1.369 . S
C867 C868 1.410 . S
C867 C875 1.503 . S
C868 C867 1.410 . S
C868 C869 1.392 . S
C868 C871 1.511 . S
C869 C865 1.376 . S
C869 C868 1.392 . S
C869 H881 0.929 . S
C870 C866 1.531 . S
C870 H882 0.960 . S
C870 H883 0.962 . S
C870 H884 0.960 . S
C871 C868 1.511 . S
C871 H885 0.961 . S
C871 H886 0.961 . S
C871 H887 0.961 . S
C872 C873 1.370 . S
C872 C874 1.363 . S
C872 H888 0.931 . S
C873 C872 1.370 . S
C873 C877 1.408 . S
C874 C872 1.363 . S
C874 C875 1.370 . S
C874 C878 1.524 . S
C875 C867 1.503 . S
C875 C874 1.370 . S
C875 C876 1.403 . S
C876 C875 1.403 . S
C876 C877 1.404 . S
C876 C879 1.539 . S
C877 C873 1.408 . S
C877 C876 1.404 . S
C877 H889 0.930 . S
C878 C874 1.524 . S
C878 H890 0.956 . S
C878 H891 0.961 . S
C878 H892 0.961 . S
C879 C876 1.539 . S
C879 H893 0.958 . S
C879 H894 0.961 . S
C879 H895 0.960 . S
H880 C864 0.931 . S
H881 C869 0.929 . S
H882 C870 0.960 . S
H883 C870 0.962 . S
H884 C870 0.960 . S
H885 C871 0.961 . S
H886 C871 0.961 . S
H887 C871 0.961 . S
H888 C872 0.931 . S
H889 C877 0.930 . S
H890 C878 0.956 . S
H891 C878 0.961 . S
H892 C878 0.961 . S
H893 C879 0.958 . S
H894 C879 0.961 . S
H895 C879 0.960 . S
C896 C897 1.391 . S
C896 C898 1.394 . S
C896 H912 0.931 . S
C897 C896 1.391 . S
C897 C901 1.359 1_455 S
C898 C896 1.394 . S
C898 C899 1.364 1_455 S
C898 C902 1.531 . S
C899 C898 1.364 1_655 S
C899 C900 1.412 . S
C899 C907 1.505 . S
C900 C899 1.412 . S
C900 C901 1.401 . S
C900 C903 1.511 . S
C901 C897 1.359 1_655 S
C901 C900 1.401 . S
C901 H913 0.937 . S
C902 C898 1.531 . S
C902 H914 0.960 . S
C902 H915 0.962 . S
C902 H916 0.960 . S
C903 C900 1.511 . S
C903 H917 0.961 . S
C903 H918 0.961 . S
C903 H919 0.961 . S
C904 C905 1.335 1_455 S
C904 C906 1.374 . S
C904 H920 0.957 . S
C905 C904 1.335 1_655 S
C905 C909 1.408 . S
C906 C904 1.374 . S
C906 C907 1.370 1_455 S
C906 C910 1.524 . S
C907 C899 1.505 . S
C907 C906 1.370 1_655 S
C907 C908 1.403 . S
C908 C907 1.403 . S
C908 C909 1.404 . S
C908 C911 1.539 . S
C909 C905 1.408 . S
C909 C908 1.404 . S
C909 H921 0.930 . S
C910 C906 1.524 . S
C910 H922 0.956 . S
C910 H923 0.961 . S
C910 H924 0.961 . S
C911 C908 1.539 . S
C911 H925 0.958 . S
C911 H926 0.961 . S
C911 H927 0.960 . S
H912 C896 0.931 . S
H913 C901 0.937 . S
H914 C902 0.960 . S
H915 C902 0.962 . S
H916 C902 0.960 . S
H917 C903 0.961 . S
H918 C903 0.961 . S
H919 C903 0.961 . S
H920 C904 0.957 . S
H921 C909 0.930 . S
H922 C910 0.956 . S
H923 C910 0.961 . S
H924 C910 0.961 . S
H925 C911 0.958 . S
H926 C911 0.961 . S
H927 C911 0.960 . S
C928 C929 1.391 1_655 S
C928 C930 1.394 . S
C928 H944 0.931 . S
C929 C928 1.391 1_455 S
C929 C933 1.376 . S
C930 C928 1.394 . S
C930 C931 1.369 1_655 S
C930 C934 1.531 . S
C931 C930 1.369 1_455 S
C931 C932 1.410 . S
C931 C939 1.503 1_455 S
C932 C931 1.410 . S
C932 C933 1.392 . S
C932 C935 1.511 . S
C933 C929 1.376 . S
C933 C932 1.392 . S
C933 H945 0.929 . S
C934 C930 1.531 . S
C934 H946 0.960 . S
C934 H947 0.962 . S
C934 H948 0.960 . S
C935 C932 1.511 . S
C935 H949 0.961 . S
C935 H950 0.961 . S
C935 H951 0.961 . S
C936 C937 1.370 . S
C936 C938 1.363 . S
C936 H952 0.931 . S
C937 C936 1.370 . S
C937 C941 1.408 . S
C938 C936 1.363 . S
C938 C939 1.370 . S
C938 C942 1.524 . S
C939 C931 1.503 1_655 S
C939 C938 1.370 . S
C939 C940 1.402 1_655 S
C940 C939 1.402 1_455 S
C940 C941 1.402 1_455 S
C940 C943 1.542 . S
C941 C937 1.408 . S
C941 C940 1.402 1_655 S
C941 H953 0.930 . S
C942 C938 1.524 . S
C942 H954 0.956 . S
C942 H955 0.961 . S
C942 H956 0.961 . S
C943 C940 1.542 . S
C943 H957 0.958 . S
C943 H958 0.961 . S
C943 H959 0.960 . S
H944 C928 0.931 . S
H945 C933 0.929 . S
H946 C934 0.960 . S
H947 C934 0.962 . S
H948 C934 0.960 . S
H949 C935 0.961 . S
H950 C935 0.961 . S
H951 C935 0.961 . S
H952 C936 0.931 . S
H953 C941 0.930 . S
H954 C942 0.956 . S
H955 C942 0.961 . S
H956 C942 0.961 . S
H957 C943 0.958 . S
H958 C943 0.961 . S
H959 C943 0.960 . S
C960 C961 1.391 . S
C960 C962 1.394 . S
C960 H976 0.931 . S
C961 C960 1.391 . S
C961 C965 1.376 . S
C962 C960 1.394 . S
C962 C963 1.369 . S
C962 C966 1.531 . S
C963 C962 1.369 . S
C963 C964 1.410 . S
C963 C971 1.498 1_545 S
C964 C963 1.410 . S
C964 C965 1.392 . S
C964 C967 1.511 1_545 S
C965 C961 1.376 . S
C965 C964 1.392 . S
C965 H977 0.929 . S
C966 C962 1.531 . S
C966 H978 0.960 . S
C966 H979 0.962 . S
C966 H980 0.960 . S
C967 C964 1.511 1_565 S
C967 H981 0.961 . S
C967 H982 0.961 . S
C967 H983 0.961 . S
C968 C969 1.370 . S
C968 C970 1.363 . S
C968 H984 0.931 . S
C969 C968 1.370 . S
C969 C973 1.408 1_565 S
C970 C968 1.363 . S
C970 C971 1.384 . S
C970 C974 1.524 . S
C971 C963 1.498 1_565 S
C971 C970 1.384 . S
C971 C972 1.394 1_565 S
C972 C971 1.394 1_545 S
C972 C973 1.404 . S
C972 C975 1.539 . S
C973 C969 1.408 1_545 S
C973 C972 1.404 . S
C973 H985 0.930 . S
C974 C970 1.524 . S
C974 H986 0.956 . S
C974 H987 0.961 . S
C974 H988 0.961 . S
C975 C972 1.539 . S
C975 H989 0.958 . S
C975 H990 0.961 . S
C975 H991 0.960 . S
H976 C960 0.931 . S
H977 C965 0.929 . S
H978 C966 0.960 . S
H979 C966 0.962 . S
H980 C966 0.960 . S
H981 C967 0.961 . S
H982 C967 0.961 . S
H983 C967 0.961 . S
H984 C968 0.931 . S
H985 C973 0.930 . S
H986 C974 0.956 . S
H987 C974 0.961 . S
H988 C974 0.961 . S
H989 C975 0.958 . S
H990 C975 0.961 . S
H991 C975 0.960 . S
C992 C993 1.391 . S
C992 C994 1.394 . S
C992 H1008 0.931 . S
C993 C992 1.391 . S
C993 C997 1.376 . S
C994 C992 1.394 . S
C994 C995 1.369 . S
C994 C998 1.531 . S
C995 C994 1.369 . S
C995 C996 1.410 . S
C995 C1003 1.503 . S
C996 C995 1.410 . S
C996 C997 1.392 . S
C996 C999 1.511 . S
C997 C993 1.376 . S
C997 C996 1.392 . S
C997 H1009 0.929 . S
C998 C994 1.531 . S
C998 H1010 0.960 . S
C998 H1011 0.962 . S
C998 H1012 0.960 . S
C999 C996 1.511 . S
C999 H1013 0.961 . S
C999 H1014 0.961 . S
C999 H1015 0.961 . S
C1000 C1001 1.370 . S
C1000 C1002 1.363 . S
C1000 H1016 0.931 . S
C1001 C1000 1.370 . S
C1001 C1005 1.408 . S
C1002 C1000 1.363 . S
C1002 C1003 1.370 . S
C1002 C1006 1.524 . S
C1003 C995 1.503 . S
C1003 C1002 1.370 . S
C1003 C1004 1.403 . S
C1004 C1003 1.403 . S
C1004 C1005 1.404 . S
C1004 C1007 1.539 . S
C1005 C1001 1.408 . S
C1005 C1004 1.404 . S
C1005 H1017 0.930 . S
C1006 C1002 1.524 . S
C1006 H1018 0.956 . S
C1006 H1019 0.961 . S
C1006 H1020 0.961 . S
C1007 C1004 1.539 . S
C1007 H1021 0.958 . S
C1007 H1022 0.961 . S
C1007 H1023 0.960 . S
H1008 C992 0.931 . S
H1009 C997 0.929 . S
H1010 C998 0.960 . S
H1011 C998 0.962 . S
H1012 C998 0.960 . S
H1013 C999 0.961 . S
H1014 C999 0.961 . S
H1015 C999 0.961 . S
H1016 C1000 0.931 . S
H1017 C1005 0.930 . S
H1018 C1006 0.956 . S
H1019 C1006 0.961 . S
H1020 C1006 0.961 . S
H1021 C1007 0.958 . S
H1022 C1007 0.961 . S
H1023 C1007 0.960 . S
C1024 C1025 1.391 . S
C1024 C1026 1.394 . S
C1024 H1040 0.931 . S
C1025 C1024 1.391 . S
C1025 C1029 1.377 . S
C1026 C1024 1.394 . S
C1026 C1027 1.359 1_556 S
C1026 C1030 1.531 . S
C1027 C1026 1.359 1_554 S
C1027 C1028 1.415 . S
C1027 C1035 1.507 . S
C1028 C1027 1.415 . S
C1028 C1029 1.392 1_554 S
C1028 C1031 1.511 . S
C1029 C1025 1.377 . S
C1029 C1028 1.392 1_556 S
C1029 H1041 0.928 1_556 S
C1030 C1026 1.531 . S
C1030 H1042 0.960 . S
C1030 H1043 0.962 . S
C1030 H1044 0.960 . S
C1031 C1028 1.511 . S
C1031 H1045 0.961 . S
C1031 H1046 0.961 . S
C1031 H1047 0.961 . S
C1032 C1033 1.370 1_556 S
C1032 C1034 1.363 . S
C1032 H1048 0.931 . S
C1033 C1032 1.370 1_554 S
C1033 C1037 1.408 . S
C1034 C1032 1.363 . S
C1034 C1035 1.370 1_556 S
C1034 C1038 1.524 . S
C1035 C1027 1.507 . S
C1035 C1034 1.370 1_554 S
C1035 C1036 1.403 . S
C1036 C1035 1.403 . S
C1036 C1037 1.404 . S
C1036 C1039 1.539 . S
C1037 C1033 1.408 . S
C1037 C1036 1.404 . S
C1037 H1049 0.930 . S
C1038 C1034 1.524 . S
C1038 H1050 0.956 . S
C1038 H1051 0.961 . S
C1038 H1052 0.961 . S
C1039 C1036 1.539 . S
C1039 H1053 0.958 . S
C1039 H1054 0.961 . S
C1039 H1055 0.960 . S
H1040 C1024 0.931 . S
H1041 C1029 0.928 1_554 S
H1042 C1030 0.960 . S
H1043 C1030 0.962 . S
H1044 C1030 0.960 . S
H1045 C1031 0.961 . S
H1046 C1031 0.961 . S
H1047 C1031 0.961 . S
H1048 C1032 0.931 . S
H1049 C1037 0.930 . S
H1050 C1038 0.956 . S
H1051 C1038 0.961 . S
H1052 C1038 0.961 . S
H1053 C1039 0.958 . S
H1054 C1039 0.961 . S
H1055 C1039 0.960 . S
C1056 C1057 1.391 . S
C1056 C1058 1.394 . S
C1056 H1072 0.931 . S
C1057 C1056 1.391 . S
C1057 C1061 1.376 . S
C1058 C1056 1.394 . S
C1058 C1059 1.369 . S
C1058 C1062 1.531 . S
C1059 C1058 1.369 . S
C1059 C1060 1.410 . S
C1059 C1067 1.503 . S
C1060 C1059 1.410 . S
C1060 C1061 1.392 . S
C1060 C1063 1.511 . S
C1061 C1057 1.376 . S
C1061 C1060 1.392 . S
C1061 H1073 0.929 . S
C1062 C1058 1.531 . S
C1062 H1074 0.960 . S
C1062 H1075 0.962 . S
C1062 H1076 0.960 . S
C1063 C1060 1.511 . S
C1063 H1077 0.961 . S
C1063 H1078 0.961 . S
C1063 H1079 0.961 . S
C1064 C1065 1.370 . S
C1064 C1066 1.363 . S
C1064 H1080 0.931 . S
C1065 C1064 1.370 . S
C1065 C1069 1.408 . S
C1066 C1064 1.363 . S
C1066 C1067 1.370 . S
C1066 C1070 1.524 . S
C1067 C1059 1.503 . S
C1067 C1066 1.370 . S
C1067 C1068 1.403 . S
C1068 C1067 1.403 . S
C1068 C1069 1.404 . S
C1068 C1071 1.539 . S
C1069 C1065 1.408 . S
C1069 C1068 1.404 . S
C1069 H1081 0.930 . S
C1070 C1066 1.524 . S
C1070 H1082 0.956 . S
C1070 H1083 0.961 . S
C1070 H1084 0.961 . S
C1071 C1068 1.539 . S
C1071 H1085 0.958 . S
C1071 H1086 0.961 . S
C1071 H1087 0.960 . S
H1072 C1056 0.931 . S
H1073 C1061 0.929 . S
H1074 C1062 0.960 . S
H1075 C1062 0.962 . S
H1076 C1062 0.960 . S
H1077 C1063 0.961 . S
H1078 C1063 0.961 . S
H1079 C1063 0.961 . S
H1080 C1064 0.931 . S
H1081 C1069 0.930 . S
H1082 C1070 0.956 . S
H1083 C1070 0.961 . S
H1084 C1070 0.961 . S
H1085 C1071 0.958 . S
H1086 C1071 0.961 . S
H1087 C1071 0.960 . S
C1088 C1089 1.391 . S
C1088 C1090 1.394 . S
C1088 H1104 0.931 . S
C1089 C1088 1.391 . S
C1089 C1093 1.376 . S
C1090 C1088 1.394 . S
C1090 C1091 1.369 . S
C1090 C1094 1.531 . S
C1091 C1090 1.369 . S
C1091 C1092 1.410 . S
C1091 C1099 1.503 . S
C1092 C1091 1.410 . S
C1092 C1093 1.392 . S
C1092 C1095 1.511 . S
C1093 C1089 1.376 . S
C1093 C1092 1.392 . S
C1093 H1105 0.929 . S
C1094 C1090 1.531 . S
C1094 H1106 0.960 . S
C1094 H1107 0.962 . S
C1094 H1108 0.960 . S
C1095 C1092 1.511 . S
C1095 H1109 0.961 . S
C1095 H1110 0.961 . S
C1095 H1111 0.961 . S
C1096 C1097 1.370 . S
C1096 C1098 1.363 . S
C1096 H1112 0.931 . S
C1097 C1096 1.370 . S
C1097 C1101 1.408 . S
C1098 C1096 1.363 . S
C1098 C1099 1.370 . S
C1098 C1102 1.524 . S
C1099 C1091 1.503 . S
C1099 C1098 1.370 . S
C1099 C1100 1.403 . S
C1100 C1099 1.403 . S
C1100 C1101 1.404 . S
C1100 C1103 1.539 . S
C1101 C1097 1.408 . S
C1101 C1100 1.404 . S
C1101 H1113 0.930 . S
C1102 C1098 1.524 . S
C1102 H1114 0.956 . S
C1102 H1115 0.961 . S
C1102 H1116 0.961 . S
C1103 C1100 1.539 . S
C1103 H1117 0.958 . S
C1103 H1118 0.961 . S
C1103 H1119 0.960 . S
H1104 C1088 0.931 . S
H1105 C1093 0.929 . S
H1106 C1094 0.960 . S
H1107 C1094 0.962 . S
H1108 C1094 0.960 . S
H1109 C1095 0.961 . S
H1110 C1095 0.961 . S
H1111 C1095 0.961 . S
H1112 C1096 0.931 . S
H1113 C1101 0.930 . S
H1114 C1102 0.956 . S
H1115 C1102 0.961 . S
H1116 C1102 0.961 . S
H1117 C1103 0.958 . S
H1118 C1103 0.961 . S
H1119 C1103 0.960 . S
C1120 C1121 1.391 . S
C1120 C1122 1.394 . S
C1120 H1136 0.931 . S
C1121 C1120 1.391 . S
C1121 C1125 1.376 . S
C1122 C1120 1.394 . S
C1122 C1123 1.369 . S
C1122 C1126 1.531 . S
C1123 C1122 1.369 . S
C1123 C1124 1.410 . S
C1123 C1131 1.503 . S
C1124 C1123 1.410 . S
C1124 C1125 1.392 . S
C1124 C1127 1.511 . S
C1125 C1121 1.376 . S
C1125 C1124 1.392 . S
C1125 H1137 0.929 . S
C1126 C1122 1.531 . S
C1126 H1138 0.960 . S
C1126 H1139 0.962 . S
C1126 H1140 0.960 . S
C1127 C1124 1.511 . S
C1127 H1141 0.961 . S
C1127 H1142 0.961 . S
C1127 H1143 0.961 . S
C1128 C1129 1.370 . S
C1128 C1130 1.363 . S
C1128 H1144 0.931 . S
C1129 C1128 1.370 . S
C1129 C1133 1.408 . S
C1130 C1128 1.363 . S
C1130 C1131 1.370 . S
C1130 C1134 1.524 . S
C1131 C1123 1.503 . S
C1131 C1130 1.370 . S
C1131 C1132 1.403 . S
C1132 C1131 1.403 . S
C1132 C1133 1.404 . S
C1132 C1135 1.539 . S
C1133 C1129 1.408 . S
C1133 C1132 1.404 . S
C1133 H1145 0.930 . S
C1134 C1130 1.524 . S
C1134 H1146 0.956 . S
C1134 H1147 0.961 . S
C1134 H1148 0.961 . S
C1135 C1132 1.539 . S
C1135 H1149 0.958 . S
C1135 H1150 0.961 . S
C1135 H1151 0.960 . S
H1136 C1120 0.931 . S
H1137 C1125 0.929 . S
H1138 C1126 0.960 . S
H1139 C1126 0.962 . S
H1140 C1126 0.960 . S
H1141 C1127 0.961 . S
H1142 C1127 0.961 . S
H1143 C1127 0.961 . S
H1144 C1128 0.931 . S
H1145 C1133 0.930 . S
H1146 C1134 0.956 . S
H1147 C1134 0.961 . S
H1148 C1134 0.961 . S
H1149 C1135 0.958 . S
H1150 C1135 0.961 . S
H1151 C1135 0.960 . S
C1152 C1153 1.391 . S
C1152 C1154 1.394 . S
C1152 H1168 0.931 . S
C1153 C1152 1.391 . S
C1153 C1157 1.376 . S
C1154 C1152 1.394 . S
C1154 C1155 1.369 . S
C1154 C1158 1.531 . S
C1155 C1154 1.369 . S
C1155 C1156 1.410 . S
C1155 C1163 1.503 . S
C1156 C1155 1.410 . S
C1156 C1157 1.392 . S
C1156 C1159 1.511 . S
C1157 C1153 1.376 . S
C1157 C1156 1.392 . S
C1157 H1169 0.929 . S
C1158 C1154 1.531 . S
C1158 H1170 0.960 . S
C1158 H1171 0.962 . S
C1158 H1172 0.960 . S
C1159 C1156 1.511 . S
C1159 H1173 0.961 . S
C1159 H1174 0.961 . S
C1159 H1175 0.961 . S
C1160 C1161 1.370 . S
C1160 C1162 1.363 . S
C1160 H1176 0.931 . S
C1161 C1160 1.370 . S
C1161 C1165 1.408 . S
C1162 C1160 1.363 . S
C1162 C1163 1.370 . S
C1162 C1166 1.524 . S
C1163 C1155 1.503 . S
C1163 C1162 1.370 . S
C1163 C1164 1.403 . S
C1164 C1163 1.403 . S
C1164 C1165 1.404 . S
C1164 C1167 1.539 . S
C1165 C1161 1.408 . S
C1165 C1164 1.404 . S
C1165 H1177 0.930 . S
C1166 C1162 1.524 . S
C1166 H1178 0.956 . S
C1166 H1179 0.961 . S
C1166 H1180 0.961 . S
C1167 C1164 1.539 . S
C1167 H1181 0.958 . S
C1167 H1182 0.961 . S
C1167 H1183 0.960 . S
H1168 C1152 0.931 . S
H1169 C1157 0.929 . S
H1170 C1158 0.960 . S
H1171 C1158 0.962 . S
H1172 C1158 0.960 . S
H1173 C1159 0.961 . S
H1174 C1159 0.961 . S
H1175 C1159 0.961 . S
H1176 C1160 0.931 . S
H1177 C1165 0.930 . S
H1178 C1166 0.956 . S
H1179 C1166 0.961 . S
H1180 C1166 0.961 . S
H1181 C1167 0.958 . S
H1182 C1167 0.961 . S
H1183 C1167 0.960 . S
C1184 C1185 1.391 . S
C1184 C1186 1.394 . S
C1184 H1200 0.931 . S
C1185 C1184 1.391 . S
C1185 C1189 1.376 . S
C1186 C1184 1.394 . S
C1186 C1187 1.369 . S
C1186 C1190 1.531 . S
C1187 C1186 1.369 . S
C1187 C1188 1.410 . S
C1187 C1195 1.503 . S
C1188 C1187 1.410 . S
C1188 C1189 1.392 . S
C1188 C1191 1.511 . S
C1189 C1185 1.376 . S
C1189 C1188 1.392 . S
C1189 H1201 0.929 . S
C1190 C1186 1.531 . S
C1190 H1202 0.960 . S
C1190 H1203 0.962 . S
C1190 H1204 0.960 . S
C1191 C1188 1.511 . S
C1191 H1205 0.961 . S
C1191 H1206 0.961 . S
C1191 H1207 0.961 . S
C1192 C1193 1.370 . S
C1192 C1194 1.363 . S
C1192 H1208 0.931 . S
C1193 C1192 1.370 . S
C1193 C1197 1.408 . S
C1194 C1192 1.363 . S
C1194 C1195 1.370 . S
C1194 C1198 1.524 . S
C1195 C1187 1.503 . S
C1195 C1194 1.370 . S
C1195 C1196 1.403 . S
C1196 C1195 1.403 . S
C1196 C1197 1.404 . S
C1196 C1199 1.539 . S
C1197 C1193 1.408 . S
C1197 C1196 1.404 . S
C1197 H1209 0.930 . S
C1198 C1194 1.524 . S
C1198 H1210 0.956 . S
C1198 H1211 0.961 . S
C1198 H1212 0.961 . S
C1199 C1196 1.539 . S
C1199 H1213 0.958 . S
C1199 H1214 0.961 . S
C1199 H1215 0.960 . S
H1200 C1184 0.931 . S
H1201 C1189 0.929 . S
H1202 C1190 0.960 . S
H1203 C1190 0.962 . S
H1204 C1190 0.960 . S
H1205 C1191 0.961 . S
H1206 C1191 0.961 . S
H1207 C1191 0.961 . S
H1208 C1192 0.931 . S
H1209 C1197 0.930 . S
H1210 C1198 0.956 . S
H1211 C1198 0.961 . S
H1212 C1198 0.961 . S
H1213 C1199 0.958 . S
H1214 C1199 0.961 . S
H1215 C1199 0.960 . S
C1216 C1217 1.391 . S
C1216 C1218 1.394 . S
C1216 H1232 0.931 . S
C1217 C1216 1.391 . S
C1217 C1221 1.376 . S
C1218 C1216 1.394 . S
C1218 C1219 1.369 . S
C1218 C1222 1.531 . S
C1219 C1218 1.369 . S
C1219 C1220 1.410 . S
C1219 C1227 1.503 . S
C1220 C1219 1.410 . S
C1220 C1221 1.392 . S
C1220 C1223 1.511 . S
C1221 C1217 1.376 . S
C1221 C1220 1.392 . S
C1221 H1233 0.929 . S
C1222 C1218 1.531 . S
C1222 H1234 0.960 . S
C1222 H1235 0.962 1_545 S
C1222 H1236 0.960 . S
C1223 C1220 1.511 . S
C1223 H1237 0.961 . S
C1223 H1238 0.961 1_545 S
C1223 H1239 0.961 . S
C1224 C1225 1.370 . S
C1224 C1226 1.363 . S
C1224 H1240 0.931 . S
C1225 C1224 1.370 . S
C1225 C1229 1.408 1_565 S
C1226 C1224 1.363 . S
C1226 C1227 1.372 1_565 S
C1226 C1230 1.524 . S
C1227 C1219 1.503 . S
C1227 C1226 1.372 1_545 S
C1227 C1228 1.401 . S
C1228 C1227 1.401 . S
C1228 C1229 1.404 . S
C1228 C1231 1.539 . S
C1229 C1225 1.408 1_545 S
C1229 C1228 1.404 . S
C1229 H1241 0.930 . S
C1230 C1226 1.524 . S
C1230 H1242 0.956 . S
C1230 H1243 0.961 . S
C1230 H1244 0.961 . S
C1231 C1228 1.539 . S
C1231 H1245 0.958 . S
C1231 H1246 0.961 . S
C1231 H1247 0.960 . S
H1232 C1216 0.931 . S
H1233 C1221 0.929 . S
H1234 C1222 0.960 . S
H1235 C1222 0.962 1_565 S
H1236 C1222 0.960 . S
H1237 C1223 0.961 . S
H1238 C1223 0.961 1_565 S
H1239 C1223 0.961 . S
H1240 C1224 0.931 . S
H1241 C1229 0.930 . S
H1242 C1230 0.956 . S
H1243 C1230 0.961 . S
H1244 C1230 0.961 . S
H1245 C1231 0.958 . S
H1246 C1231 0.961 . S
H1247 C1231 0.960 . S
C1248 C1249 1.391 . S
C1248 C1250 1.394 . S
C1248 H1264 0.931 . S
C1249 C1248 1.391 . S
C1249 C1253 1.376 1_554 S
C1250 C1248 1.394 . S
C1250 C1251 1.369 . S
C1250 C1254 1.531 . S
C1251 C1250 1.369 . S
C1251 C1252 1.410 1_554 S
C1251 C1259 1.503 1_554 S
C1252 C1251 1.410 1_556 S
C1252 C1253 1.392 . S
C1252 C1255 1.511 . S
C1253 C1249 1.376 1_556 S
C1253 C1252 1.392 . S
C1253 H1265 0.929 . S
C1254 C1250 1.531 . S
C1254 H1266 0.960 . S
C1254 H1267 0.962 . S
C1254 H1268 0.960 . S
C1255 C1252 1.511 . S
C1255 H1269 0.961 . S
C1255 H1270 0.961 . S
C1255 H1271 0.961 . S
C1256 C1257 1.370 . S
C1256 C1258 1.363 . S
C1256 H1272 0.931 . S
C1257 C1256 1.370 . S
C1257 C1261 1.408 . S
C1258 C1256 1.363 . S
C1258 C1259 1.370 . S
C1258 C1262 1.526 . S
C1259 C1251 1.503 1_556 S
C1259 C1258 1.370 . S
C1259 C1260 1.403 . S
C1260 C1259 1.403 . S
C1260 C1261 1.404 . S
C1260 C1263 1.539 . S
C1261 C1257 1.408 . S
C1261 C1260 1.404 . S
C1261 H1273 0.930 . S
C1262 C1258 1.526 . S
C1262 H1274 0.948 1_556 S
C1262 H1275 0.965 . S
C1262 H1276 0.963 . S
C1263 C1260 1.539 . S
C1263 H1277 0.958 1_556 S
C1263 H1278 0.961 . S
C1263 H1279 0.960 . S
H1264 C1248 0.931 . S
H1265 C1253 0.929 . S
H1266 C1254 0.960 . S
H1267 C1254 0.962 . S
H1268 C1254 0.960 . S
H1269 C1255 0.961 . S
H1270 C1255 0.961 . S
H1271 C1255 0.961 . S
H1272 C1256 0.931 . S
H1273 C1261 0.930 . S
H1274 C1262 0.948 1_554 S
H1275 C1262 0.965 . S
H1276 C1262 0.963 . S
H1277 C1263 0.958 1_554 S
H1278 C1263 0.961 . S
H1279 C1263 0.960 . S
C1280 C1281 1.391 . S
C1280 C1282 1.394 . S
C1280 H1296 0.931 . S
C1281 C1280 1.391 . S
C1281 C1285 1.376 . S
C1282 C1280 1.394 . S
C1282 C1283 1.369 . S
C1282 C1286 1.531 . S
C1283 C1282 1.369 . S
C1283 C1284 1.410 . S
C1283 C1291 1.503 . S
C1284 C1283 1.410 . S
C1284 C1285 1.392 . S
C1284 C1287 1.511 . S
C1285 C1281 1.376 . S
C1285 C1284 1.392 . S
C1285 H1297 0.929 . S
C1286 C1282 1.531 . S
C1286 H1298 0.960 . S
C1286 H1299 0.962 . S
C1286 H1300 0.960 . S
C1287 C1284 1.511 . S
C1287 H1301 0.961 . S
C1287 H1302 0.961 . S
C1287 H1303 0.961 . S
C1288 C1289 1.370 . S
C1288 C1290 1.363 . S
C1288 H1304 0.931 . S
C1289 C1288 1.370 . S
C1289 C1293 1.408 . S
C1290 C1288 1.363 . S
C1290 C1291 1.370 . S
C1290 C1294 1.524 . S
C1291 C1283 1.503 . S
C1291 C1290 1.370 . S
C1291 C1292 1.403 . S
C1292 C1291 1.403 . S
C1292 C1293 1.404 . S
C1292 C1295 1.539 . S
C1293 C1289 1.408 . S
C1293 C1292 1.404 . S
C1293 H1305 0.930 . S
C1294 C1290 1.524 . S
C1294 H1306 0.956 . S
C1294 H1307 0.961 . S
C1294 H1308 0.961 . S
C1295 C1292 1.539 . S
C1295 H1309 0.958 . S
C1295 H1310 0.961 . S
C1295 H1311 0.960 . S
H1296 C1280 0.931 . S
H1297 C1285 0.929 . S
H1298 C1286 0.960 . S
H1299 C1286 0.962 . S
H1300 C1286 0.960 . S
H1301 C1287 0.961 . S
H1302 C1287 0.961 . S
H1303 C1287 0.961 . S
H1304 C1288 0.931 . S
H1305 C1293 0.930 . S
H1306 C1294 0.956 . S
H1307 C1294 0.961 . S
H1308 C1294 0.961 . S
H1309 C1295 0.958 . S
H1310 C1295 0.961 . S
H1311 C1295 0.960 . S
C1312 C1313 1.391 . S
C1312 C1314 1.394 . S
C1312 H1328 0.931 . S
C1313 C1312 1.391 . S
C1313 C1317 1.376 . S
C1314 C1312 1.394 . S
C1314 C1315 1.369 . S
C1314 C1318 1.531 . S
C1315 C1314 1.369 . S
C1315 C1316 1.410 . S
C1315 C1323 1.503 . S
C1316 C1315 1.410 . S
C1316 C1317 1.392 . S
C1316 C1319 1.511 . S
C1317 C1313 1.376 . S
C1317 C1316 1.392 . S
C1317 H1329 0.929 . S
C1318 C1314 1.531 . S
C1318 H1330 0.960 . S
C1318 H1331 0.962 . S
C1318 H1332 0.960 . S
C1319 C1316 1.511 . S
C1319 H1333 0.961 . S
C1319 H1334 0.961 . S
C1319 H1335 0.961 . S
C1320 C1321 1.370 . S
C1320 C1322 1.363 . S
C1320 H1336 0.931 . S
C1321 C1320 1.370 . S
C1321 C1325 1.408 . S
C1322 C1320 1.363 . S
C1322 C1323 1.370 . S
C1322 C1326 1.524 . S
C1323 C1315 1.503 . S
C1323 C1322 1.370 . S
C1323 C1324 1.403 . S
C1324 C1323 1.403 . S
C1324 C1325 1.404 . S
C1324 C1327 1.539 . S
C1325 C1321 1.408 . S
C1325 C1324 1.404 . S
C1325 H1337 0.930 . S
C1326 C1322 1.524 . S
C1326 H1338 0.956 . S
C1326 H1339 0.961 . S
C1326 H1340 0.961 . S
C1327 C1324 1.539 . S
C1327 H1341 0.958 . S
C1327 H1342 0.961 . S
C1327 H1343 0.960 . S
H1328 C1312 0.931 . S
H1329 C1317 0.929 . S
H1330 C1318 0.960 . S
H1331 C1318 0.962 . S
H1332 C1318 0.960 . S
H1333 C1319 0.961 . S
H1334 C1319 0.961 . S
H1335 C1319 0.961 . S
H1336 C1320 0.931 . S
H1337 C1325 0.930 . S
H1338 C1326 0.956 . S
H1339 C1326 0.961 . S
H1340 C1326 0.961 . S
H1341 C1327 0.958 . S
H1342 C1327 0.961 . S
H1343 C1327 0.960 . S
C1344 C1345 1.391 . S
C1344 C1346 1.394 . S
C1344 H1360 0.931 . S
C1345 C1344 1.391 . S
C1345 C1349 1.376 . S
C1346 C1344 1.394 . S
C1346 C1347 1.369 . S
C1346 C1350 1.531 . S
C1347 C1346 1.369 . S
C1347 C1348 1.410 . S
C1347 C1355 1.503 . S
C1348 C1347 1.410 . S
C1348 C1349 1.392 . S
C1348 C1351 1.511 . S
C1349 C1345 1.376 . S
C1349 C1348 1.392 . S
C1349 H1361 0.929 . S
C1350 C1346 1.531 . S
C1350 H1362 0.960 . S
C1350 H1363 0.962 . S
C1350 H1364 0.960 . S
C1351 C1348 1.511 . S
C1351 H1365 0.961 . S
C1351 H1366 0.961 . S
C1351 H1367 0.961 . S
C1352 C1353 1.370 . S
C1352 C1354 1.363 . S
C1352 H1368 0.931 . S
C1353 C1352 1.370 . S
C1353 C1357 1.408 . S
C1354 C1352 1.363 . S
C1354 C1355 1.370 . S
C1354 C1358 1.524 . S
C1355 C1347 1.503 . S
C1355 C1354 1.370 . S
C1355 C1356 1.403 . S
C1356 C1355 1.403 . S
C1356 C1357 1.404 . S
C1356 C1359 1.539 . S
C1357 C1353 1.408 . S
C1357 C1356 1.404 . S
C1357 H1369 0.930 . S
C1358 C1354 1.524 . S
C1358 H1370 0.956 . S
C1358 H1371 0.961 . S
C1358 H1372 0.961 . S
C1359 C1356 1.539 . S
C1359 H1373 0.958 . S
C1359 H1374 0.961 . S
C1359 H1375 0.960 . S
H1360 C1344 0.931 . S
H1361 C1349 0.929 . S
H1362 C1350 0.960 . S
H1363 C1350 0.962 . S
H1364 C1350 0.960 . S
H1365 C1351 0.961 . S
H1366 C1351 0.961 . S
H1367 C1351 0.961 . S
H1368 C1352 0.931 . S
H1369 C1357 0.930 . S
H1370 C1358 0.956 . S
H1371 C1358 0.961 . S
H1372 C1358 0.961 . S
H1373 C1359 0.958 . S
H1374 C1359 0.961 . S
H1375 C1359 0.960 . S
C1376 C1377 1.391 . S
C1376 C1378 1.394 . S
C1376 H1392 0.931 . S
C1377 C1376 1.391 . S
C1377 C1381 1.376 1_545 S
C1378 C1376 1.394 . S
C1378 C1379 1.369 . S
C1378 C1382 1.531 . S
C1379 C1378 1.369 . S
C1379 C1380 1.410 1_545 S
C1379 C1387 1.503 1_545 S
C1380 C1379 1.410 1_565 S
C1380 C1381 1.392 . S
C1380 C1383 1.511 . S
C1381 C1377 1.376 1_565 S
C1381 C1380 1.392 . S
C1381 H1393 0.929 . S
C1382 C1378 1.531 . S
C1382 H1394 0.960 . S
C1382 H1395 0.962 . S
C1382 H1396 0.960 . S
C1383 C1380 1.511 . S
C1383 H1397 0.961 . S
C1383 H1398 0.961 . S
C1383 H1399 0.961 . S
C1384 C1385 1.370 . S
C1384 C1386 1.363 . S
C1384 H1400 0.931 . S
C1385 C1384 1.370 . S
C1385 C1389 1.408 . S
C1386 C1384 1.363 . S
C1386 C1387 1.370 . S
C1386 C1390 1.524 . S
C1387 C1379 1.503 1_565 S
C1387 C1386 1.370 . S
C1387 C1388 1.403 1_565 S
C1388 C1387 1.403 1_545 S
C1388 C1389 1.404 1_545 S
C1388 C1391 1.539 . S
C1389 C1385 1.408 . S
C1389 C1388 1.404 1_565 S
C1389 H1401 0.931 . S
C1390 C1386 1.524 . S
C1390 H1402 0.956 . S
C1390 H1403 0.961 . S
C1390 H1404 0.961 . S
C1391 C1388 1.539 . S
C1391 H1405 0.958 . S
C1391 H1406 0.961 . S
C1391 H1407 0.960 . S
H1392 C1376 0.931 . S
H1393 C1381 0.929 . S
H1394 C1382 0.960 . S
H1395 C1382 0.962 . S
H1396 C1382 0.960 . S
H1397 C1383 0.961 . S
H1398 C1383 0.961 . S
H1399 C1383 0.961 . S
H1400 C1384 0.931 . S
H1401 C1389 0.931 . S
H1402 C1390 0.956 . S
H1403 C1390 0.961 . S
H1404 C1390 0.961 . S
H1405 C1391 0.958 . S
H1406 C1391 0.961 . S
H1407 C1391 0.960 . S
C1408 C1409 1.391 . S
C1408 C1410 1.394 1_554 S
C1408 H1424 0.931 . S
C1409 C1408 1.391 . S
C1409 C1413 1.376 . S
C1410 C1408 1.394 1_556 S
C1410 C1411 1.369 . S
C1410 C1414 1.531 . S
C1411 C1410 1.369 . S
C1411 C1412 1.410 1_556 S
C1411 C1419 1.503 . S
C1412 C1411 1.410 1_554 S
C1412 C1413 1.392 . S
C1412 C1415 1.511 . S
C1413 C1409 1.376 . S
C1413 C1412 1.392 . S
C1413 H1425 0.929 . S
C1414 C1410 1.531 . S
C1414 H1426 0.960 . S
C1414 H1427 0.935 1_556 S
C1414 H1428 0.960 . S
C1415 C1412 1.511 . S
C1415 H1429 0.961 . S
C1415 H1430 0.961 . S
C1415 H1431 0.961 1_554 S
C1416 C1417 1.370 1_554 S
C1416 C1418 1.363 . S
C1416 H1432 0.931 . S
C1417 C1416 1.370 1_556 S
C1417 C1421 1.408 . S
C1418 C1416 1.363 . S
C1418 C1419 1.370 1_554 S
C1418 C1422 1.524 . S
C1419 C1411 1.503 . S
C1419 C1418 1.370 1_556 S
C1419 C1420 1.403 . S
C1420 C1419 1.403 . S
C1420 C1421 1.404 . S
C1420 C1423 1.539 . S
C1421 C1417 1.408 . S
C1421 C1420 1.404 . S
C1421 H1433 0.930 . S
C1422 C1418 1.524 . S
C1422 H1434 0.956 . S
C1422 H1435 0.961 . S
C1422 H1436 0.961 . S
C1423 C1420 1.539 . S
C1423 H1437 0.958 . S
C1423 H1438 0.961 . S
C1423 H1439 0.960 . S
H1424 C1408 0.931 . S
H1425 C1413 0.929 . S
H1426 C1414 0.960 . S
H1427 C1414 0.935 1_554 S
H1428 C1414 0.960 . S
H1429 C1415 0.961 . S
H1430 C1415 0.961 . S
H1431 C1415 0.961 1_556 S
H1432 C1416 0.931 . S
H1433 C1421 0.930 . S
H1434 C1422 0.956 . S
H1435 C1422 0.961 . S
H1436 C1422 0.961 . S
H1437 C1423 0.958 . S
H1438 C1423 0.961 . S
H1439 C1423 0.960 . S
C1440 C1441 1.391 . S
C1440 C1442 1.394 . S
C1440 H1456 0.931 . S
C1441 C1440 1.391 . S
C1441 C1445 1.376 . S
C1442 C1440 1.394 . S
C1442 C1443 1.369 . S
C1442 C1446 1.531 . S
C1443 C1442 1.369 . S
C1443 C1444 1.410 . S
C1443 C1451 1.503 . S
C1444 C1443 1.410 . S
C1444 C1445 1.392 . S
C1444 C1447 1.511 . S
C1445 C1441 1.376 . S
C1445 C1444 1.392 . S
C1445 H1457 0.929 . S
C1446 C1442 1.531 . S
C1446 H1458 0.960 . S
C1446 H1459 0.962 . S
C1446 H1460 0.960 . S
C1447 C1444 1.511 . S
C1447 H1461 0.961 . S
C1447 H1462 0.961 . S
C1447 H1463 0.961 . S
C1448 C1449 1.370 . S
C1448 C1450 1.363 . S
C1448 H1464 0.931 . S
C1449 C1448 1.370 . S
C1449 C1453 1.408 . S
C1450 C1448 1.363 . S
C1450 C1451 1.370 . S
C1450 C1454 1.524 . S
C1451 C1443 1.503 . S
C1451 C1450 1.370 . S
C1451 C1452 1.403 . S
C1452 C1451 1.403 . S
C1452 C1453 1.404 . S
C1452 C1455 1.539 . S
C1453 C1449 1.408 . S
C1453 C1452 1.404 . S
C1453 H1465 0.930 . S
C1454 C1450 1.524 . S
C1454 H1466 0.956 . S
C1454 H1467 0.961 . S
C1454 H1468 0.961 . S
C1455 C1452 1.539 . S
C1455 H1469 0.958 . S
C1455 H1470 0.961 . S
C1455 H1471 0.960 . S
H1456 C1440 0.931 . S
H1457 C1445 0.929 . S
H1458 C1446 0.960 . S
H1459 C1446 0.962 . S
H1460 C1446 0.960 . S
H1461 C1447 0.961 . S
H1462 C1447 0.961 . S
H1463 C1447 0.961 . S
H1464 C1448 0.931 . S
H1465 C1453 0.930 . S
H1466 C1454 0.956 . S
H1467 C1454 0.961 . S
H1468 C1454 0.961 . S
H1469 C1455 0.958 . S
H1470 C1455 0.961 . S
H1471 C1455 0.960 . S
C1472 C1473 1.391 . S
C1472 C1474 1.394 . S
C1472 H1488 0.931 . S
C1473 C1472 1.391 . S
C1473 C1477 1.376 . S
C1474 C1472 1.394 . S
C1474 C1475 1.369 . S
C1474 C1478 1.531 . S
C1475 C1474 1.369 . S
C1475 C1476 1.410 . S
C1475 C1483 1.503 . S
C1476 C1475 1.410 . S
C1476 C1477 1.392 . S
C1476 C1479 1.511 . S
C1477 C1473 1.376 . S
C1477 C1476 1.392 . S
C1477 H1489 0.929 . S
C1478 C1474 1.531 . S
C1478 H1490 0.960 . S
C1478 H1491 0.962 . S
C1478 H1492 0.960 . S
C1479 C1476 1.511 . S
C1479 H1493 0.961 . S
C1479 H1494 0.961 . S
C1479 H1495 0.961 . S
C1480 C1481 1.370 . S
C1480 C1482 1.363 . S
C1480 H1496 0.931 . S
C1481 C1480 1.370 . S
C1481 C1485 1.408 . S
C1482 C1480 1.363 . S
C1482 C1483 1.370 . S
C1482 C1486 1.524 . S
C1483 C1475 1.503 . S
C1483 C1482 1.370 . S
C1483 C1484 1.403 . S
C1484 C1483 1.403 . S
C1484 C1485 1.404 . S
C1484 C1487 1.539 . S
C1485 C1481 1.408 . S
C1485 C1484 1.404 . S
C1485 H1497 0.930 . S
C1486 C1482 1.524 . S
C1486 H1498 0.956 . S
C1486 H1499 0.961 . S
C1486 H1500 0.961 . S
C1487 C1484 1.539 . S
C1487 H1501 0.958 . S
C1487 H1502 0.961 . S
C1487 H1503 0.960 . S
H1488 C1472 0.931 . S
H1489 C1477 0.929 . S
H1490 C1478 0.960 . S
H1491 C1478 0.962 . S
H1492 C1478 0.960 . S
H1493 C1479 0.961 . S
H1494 C1479 0.961 . S
H1495 C1479 0.961 . S
H1496 C1480 0.931 . S
H1497 C1485 0.930 . S
H1498 C1486 0.956 . S
H1499 C1486 0.961 . S
H1500 C1486 0.961 . S
H1501 C1487 0.958 . S
H1502 C1487 0.961 . S
H1503 C1487 0.960 . S
C1504 C1505 1.391 . S
C1504 C1506 1.394 . S
C1504 H1520 0.931 . S
C1505 C1504 1.391 . S
C1505 C1509 1.376 . S
C1506 C1504 1.394 . S
C1506 C1507 1.369 . S
C1506 C1510 1.531 . S
C1507 C1506 1.369 . S
C1507 C1508 1.410 . S
C1507 C1515 1.503 . S
C1508 C1507 1.410 . S
C1508 C1509 1.392 . S
C1508 C1511 1.511 . S
C1509 C1505 1.376 . S
C1509 C1508 1.392 . S
C1509 H1521 0.929 . S
C1510 C1506 1.531 . S
C1510 H1522 0.960 . S
C1510 H1523 0.962 . S
C1510 H1524 0.960 . S
C1511 C1508 1.511 . S
C1511 H1525 0.961 . S
C1511 H1526 0.961 . S
C1511 H1527 0.961 . S
C1512 C1513 1.370 . S
C1512 C1514 1.363 . S
C1512 H1528 0.931 . S
C1513 C1512 1.370 . S
C1513 C1517 1.408 . S
C1514 C1512 1.363 . S
C1514 C1515 1.370 . S
C1514 C1518 1.524 . S
C1515 C1507 1.503 . S
C1515 C1514 1.370 . S
C1515 C1516 1.403 . S
C1516 C1515 1.403 . S
C1516 C1517 1.404 . S
C1516 C1519 1.539 . S
C1517 C1513 1.408 . S
C1517 C1516 1.404 . S
C1517 H1529 0.930 . S
C1518 C1514 1.524 . S
C1518 H1530 0.956 . S
C1518 H1531 0.961 . S
C1518 H1532 0.961 . S
C1519 C1516 1.539 . S
C1519 H1533 0.958 . S
C1519 H1534 0.961 . S
C1519 H1535 0.960 . S
H1520 C1504 0.931 . S
H1521 C1509 0.929 . S
H1522 C1510 0.960 . S
H1523 C1510 0.962 . S
H1524 C1510 0.960 . S
H1525 C1511 0.961 . S
H1526 C1511 0.961 . S
H1527 C1511 0.961 . S
H1528 C1512 0.931 . S
H1529 C1517 0.930 . S
H1530 C1518 0.956 . S
H1531 C1518 0.961 . S
H1532 C1518 0.961 . S
H1533 C1519 0.958 . S
H1534 C1519 0.961 . S
H1535 C1519 0.960 . S
C1536 C1537 1.391 . S
C1536 C1538 1.394 . S
C1536 H1552 0.931 . S
C1537 C1536 1.391 . S
C1537 C1541 1.376 . S
C1538 C1536 1.394 . S
C1538 C1539 1.369 . S
C1538 C1542 1.531 . S
C1539 C1538 1.369 . S
C1539 C1540 1.410 . S
C1539 C1547 1.503 . S
C1540 C1539 1.410 . S
C1540 C1541 1.392 . S
C1540 C1543 1.511 . S
C1541 C1537 1.376 . S
C1541 C1540 1.392 . S
C1541 H1553 0.929 . S
C1542 C1538 1.531 . S
C1542 H1554 0.960 . S
C1542 H1555 0.962 . S
C1542 H1556 0.960 . S
C1543 C1540 1.511 . S
C1543 H1557 0.961 . S
C1543 H1558 0.961 . S
C1543 H1559 0.961 . S
C1544 C1545 1.370 . S
C1544 C1546 1.363 . S
C1544 H1560 0.931 . S
C1545 C1544 1.370 . S
C1545 C1549 1.408 . S
C1546 C1544 1.363 . S
C1546 C1547 1.370 . S
C1546 C1550 1.524 . S
C1547 C1539 1.503 . S
C1547 C1546 1.370 . S
C1547 C1548 1.403 . S
C1548 C1547 1.403 . S
C1548 C1549 1.404 . S
C1548 C1551 1.539 . S
C1549 C1545 1.408 . S
C1549 C1548 1.404 . S
C1549 H1561 0.930 . S
C1550 C1546 1.524 . S
C1550 H1562 0.956 . S
C1550 H1563 0.961 . S
C1550 H1564 0.961 . S
C1551 C1548 1.539 . S
C1551 H1565 0.958 . S
C1551 H1566 0.961 . S
C1551 H1567 0.960 . S
H1552 C1536 0.931 . S
H1553 C1541 0.929 . S
H1554 C1542 0.960 . S
H1555 C1542 0.962 . S
H1556 C1542 0.960 . S
H1557 C1543 0.961 . S
H1558 C1543 0.961 . S
H1559 C1543 0.961 . S
H1560 C1544 0.931 . S
H1561 C1549 0.930 . S
H1562 C1550 0.956 . S
H1563 C1550 0.961 . S
H1564 C1550 0.961 . S
H1565 C1551 0.958 . S
H1566 C1551 0.961 . S
H1567 C1551 0.960 . S
C1568 C1569 1.391 . S
C1568 C1570 1.394 . S
C1568 H1584 0.931 . S
C1569 C1568 1.391 . S
C1569 C1573 1.376 . S
C1570 C1568 1.394 . S
C1570 C1571 1.369 . S
C1570 C1574 1.531 . S
C1571 C1570 1.369 . S
C1571 C1572 1.410 . S
C1571 C1579 1.503 . S
C1572 C1571 1.410 . S
C1572 C1573 1.392 . S
C1572 C1575 1.511 . S
C1573 C1569 1.376 . S
C1573 C1572 1.392 . S
C1573 H1585 0.929 . S
C1574 C1570 1.531 . S
C1574 H1586 0.960 . S
C1574 H1587 0.962 . S
C1574 H1588 0.960 . S
C1575 C1572 1.511 . S
C1575 H1589 0.961 . S
C1575 H1590 0.961 . S
C1575 H1591 0.961 . S
C1576 C1577 1.370 . S
C1576 C1578 1.363 . S
C1576 H1592 0.931 . S
C1577 C1576 1.370 . S
C1577 C1581 1.408 . S
C1578 C1576 1.363 . S
C1578 C1579 1.370 . S
C1578 C1582 1.524 . S
C1579 C1571 1.503 . S
C1579 C1578 1.370 . S
C1579 C1580 1.403 . S
C1580 C1579 1.403 . S
C1580 C1581 1.404 . S
C1580 C1583 1.539 . S
C1581 C1577 1.408 . S
C1581 C1580 1.404 . S
C1581 H1593 0.930 . S
C1582 C1578 1.524 . S
C1582 H1594 0.956 . S
C1582 H1595 0.961 . S
C1582 H1596 0.961 . S
C1583 C1580 1.539 . S
C1583 H1597 0.958 . S
C1583 H1598 0.961 . S
C1583 H1599 0.960 . S
H1584 C1568 0.931 . S
H1585 C1573 0.929 . S
H1586 C1574 0.960 . S
H1587 C1574 0.962 . S
H1588 C1574 0.960 . S
H1589 C1575 0.961 . S
H1590 C1575 0.961 . S
H1591 C1575 0.961 . S
H1592 C1576 0.931 . S
H1593 C1581 0.930 . S
H1594 C1582 0.956 . S
H1595 C1582 0.961 . S
H1596 C1582 0.961 . S
H1597 C1583 0.958 . S
H1598 C1583 0.961 . S
H1599 C1583 0.960 . S
C1600 C1601 1.391 . S
C1600 C1602 1.394 . S
C1600 H1616 0.931 . S
C1601 C1600 1.391 . S
C1601 C1605 1.376 . S
C1602 C1600 1.394 . S
C1602 C1603 1.369 . S
C1602 C1606 1.531 . S
C1603 C1602 1.369 . S
C1603 C1604 1.410 . S
C1603 C1611 1.503 . S
C1604 C1603 1.410 . S
C1604 C1605 1.392 . S
C1604 C1607 1.511 . S
C1605 C1601 1.376 . S
C1605 C1604 1.392 . S
C1605 H1617 0.929 . S
C1606 C1602 1.531 . S
C1606 H1618 0.960 . S
C1606 H1619 0.962 . S
C1606 H1620 0.960 . S
C1607 C1604 1.511 . S
C1607 H1621 0.961 . S
C1607 H1622 0.961 . S
C1607 H1623 0.961 . S
C1608 C1609 1.370 . S
C1608 C1610 1.363 . S
C1608 H1624 0.931 . S
C1609 C1608 1.370 . S
C1609 C1613 1.408 . S
C1610 C1608 1.363 . S
C1610 C1611 1.370 . S
C1610 C1614 1.524 . S
C1611 C1603 1.503 . S
C1611 C1610 1.370 . S
C1611 C1612 1.403 . S
C1612 C1611 1.403 . S
C1612 C1613 1.404 . S
C1612 C1615 1.539 . S
C1613 C1609 1.408 . S
C1613 C1612 1.404 . S
C1613 H1625 0.930 . S
C1614 C1610 1.524 . S
C1614 H1626 0.956 . S
C1614 H1627 0.961 . S
C1614 H1628 0.961 . S
C1615 C1612 1.539 . S
C1615 H1629 0.958 . S
C1615 H1630 0.961 . S
C1615 H1631 0.960 . S
H1616 C1600 0.931 . S
H1617 C1605 0.929 . S
H1618 C1606 0.960 . S
H1619 C1606 0.962 . S
H1620 C1606 0.960 . S
H1621 C1607 0.961 . S
H1622 C1607 0.961 . S
H1623 C1607 0.961 . S
H1624 C1608 0.931 . S
H1625 C1613 0.930 . S
H1626 C1614 0.956 . S
H1627 C1614 0.961 . S
H1628 C1614 0.961 . S
H1629 C1615 0.958 . S
H1630 C1615 0.961 . S
H1631 C1615 0.960 . S
C1632 C1633 1.391 . S
C1632 C1634 1.394 . S
C1632 H1648 0.931 . S
C1633 C1632 1.391 . S
C1633 C1637 1.376 . S
C1634 C1632 1.394 . S
C1634 C1635 1.369 . S
C1634 C1638 1.531 . S
C1635 C1634 1.369 . S
C1635 C1636 1.410 . S
C1635 C1643 1.503 . S
C1636 C1635 1.410 . S
C1636 C1637 1.392 . S
C1636 C1639 1.511 . S
C1637 C1633 1.376 . S
C1637 C1636 1.392 . S
C1637 H1649 0.929 . S
C1638 C1634 1.531 . S
C1638 H1650 0.960 . S
C1638 H1651 0.962 . S
C1638 H1652 0.960 . S
C1639 C1636 1.511 . S
C1639 H1653 0.961 . S
C1639 H1654 0.961 . S
C1639 H1655 0.961 . S
C1640 C1641 1.370 . S
C1640 C1642 1.363 . S
C1640 H1656 0.931 . S
C1641 C1640 1.370 . S
C1641 C1645 1.408 . S
C1642 C1640 1.363 . S
C1642 C1643 1.370 . S
C1642 C1646 1.524 . S
C1643 C1635 1.503 . S
C1643 C1642 1.370 . S
C1643 C1644 1.403 . S
C1644 C1643 1.403 . S
C1644 C1645 1.404 . S
C1644 C1647 1.539 . S
C1645 C1641 1.408 . S
C1645 C1644 1.404 . S
C1645 H1657 0.930 . S
C1646 C1642 1.524 . S
C1646 H1658 0.956 . S
C1646 H1659 0.961 . S
C1646 H1660 0.961 . S
C1647 C1644 1.539 . S
C1647 H1661 0.958 . S
C1647 H1662 0.961 . S
C1647 H1663 0.960 . S
H1648 C1632 0.931 . S
H1649 C1637 0.929 . S
H1650 C1638 0.960 . S
H1651 C1638 0.962 . S
H1652 C1638 0.960 . S
H1653 C1639 0.961 . S
H1654 C1639 0.961 . S
H1655 C1639 0.961 . S
H1656 C1640 0.931 . S
H1657 C1645 0.930 . S
H1658 C1646 0.956 . S
H1659 C1646 0.961 . S
H1660 C1646 0.961 . S
H1661 C1647 0.958 . S
H1662 C1647 0.961 . S
H1663 C1647 0.960 . S
C1664 C1665 1.391 . S
C1664 C1666 1.394 . S
C1664 H1680 0.931 . S
C1665 C1664 1.391 . S
C1665 C1669 1.376 . S
C1666 C1664 1.394 . S
C1666 C1667 1.369 . S
C1666 C1670 1.531 . S
C1667 C1666 1.369 . S
C1667 C1668 1.410 . S
C1667 C1675 1.503 . S
C1668 C1667 1.410 . S
C1668 C1669 1.392 . S
C1668 C1671 1.511 . S
C1669 C1665 1.376 . S
C1669 C1668 1.392 . S
C1669 H1681 0.929 . S
C1670 C1666 1.531 . S
C1670 H1682 0.960 . S
C1670 H1683 0.962 . S
C1670 H1684 0.960 . S
C1671 C1668 1.511 . S
C1671 H1685 0.961 . S
C1671 H1686 0.961 . S
C1671 H1687 0.961 . S
C1672 C1673 1.370 . S
C1672 C1674 1.363 . S
C1672 H1688 0.931 . S
C1673 C1672 1.370 . S
C1673 C1677 1.408 . S
C1674 C1672 1.363 . S
C1674 C1675 1.370 . S
C1674 C1678 1.524 . S
C1675 C1667 1.503 . S
C1675 C1674 1.370 . S
C1675 C1676 1.403 . S
C1676 C1675 1.403 . S
C1676 C1677 1.404 . S
C1676 C1679 1.539 . S
C1677 C1673 1.408 . S
C1677 C1676 1.404 . S
C1677 H1689 0.930 . S
C1678 C1674 1.524 . S
C1678 H1690 0.956 . S
C1678 H1691 0.961 . S
C1678 H1692 0.961 . S
C1679 C1676 1.539 . S
C1679 H1693 0.958 . S
C1679 H1694 0.961 . S
C1679 H1695 0.960 . S
H1680 C1664 0.931 . S
H1681 C1669 0.929 . S
H1682 C1670 0.960 . S
H1683 C1670 0.962 . S
H1684 C1670 0.960 . S
H1685 C1671 0.961 . S
H1686 C1671 0.961 . S
H1687 C1671 0.961 . S
H1688 C1672 0.931 . S
H1689 C1677 0.930 . S
H1690 C1678 0.956 . S
H1691 C1678 0.961 . S
H1692 C1678 0.961 . S
H1693 C1679 0.958 . S
H1694 C1679 0.961 . S
H1695 C1679 0.960 . S
C1696 C1697 1.391 . S
C1696 C1698 1.394 . S
C1696 H1712 0.931 . S
C1697 C1696 1.391 . S
C1697 C1701 1.376 . S
C1698 C1696 1.394 . S
C1698 C1699 1.369 . S
C1698 C1702 1.531 . S
C1699 C1698 1.369 . S
C1699 C1700 1.410 . S
C1699 C1707 1.503 . S
C1700 C1699 1.410 . S
C1700 C1701 1.392 . S
C1700 C1703 1.511 . S
C1701 C1697 1.376 . S
C1701 C1700 1.392 . S
C1701 H1713 0.929 . S
C1702 C1698 1.531 . S
C1702 H1714 0.960 . S
C1702 H1715 0.962 . S
C1702 H1716 0.960 . S
C1703 C1700 1.511 . S
C1703 H1717 0.961 . S
C1703 H1718 0.961 . S
C1703 H1719 0.961 . S
C1704 C1705 1.370 . S
C1704 C1706 1.363 . S
C1704 H1720 0.931 . S
C1705 C1704 1.370 . S
C1705 C1709 1.408 . S
C1706 C1704 1.363 . S
C1706 C1707 1.370 . S
C1706 C1710 1.524 . S
C1707 C1699 1.503 . S
C1707 C1706 1.370 . S
C1707 C1708 1.403 . S
C1708 C1707 1.403 . S
C1708 C1709 1.404 . S
C1708 C1711 1.539 . S
C1709 C1705 1.408 . S
C1709 C1708 1.404 . S
C1709 H1721 0.930 . S
C1710 C1706 1.524 . S
C1710 H1722 0.956 . S
C1710 H1723 0.961 . S
C1710 H1724 0.961 . S
C1711 C1708 1.539 . S
C1711 H1725 0.958 . S
C1711 H1726 0.961 . S
C1711 H1727 0.960 . S
H1712 C1696 0.931 . S
H1713 C1701 0.929 . S
H1714 C1702 0.960 . S
H1715 C1702 0.962 . S
H1716 C1702 0.960 . S
H1717 C1703 0.961 . S
H1718 C1703 0.961 . S
H1719 C1703 0.961 . S
H1720 C1704 0.931 . S
H1721 C1709 0.930 . S
H1722 C1710 0.956 . S
H1723 C1710 0.961 . S
H1724 C1710 0.961 . S
H1725 C1711 0.958 . S
H1726 C1711 0.961 . S
H1727 C1711 0.960 . S
C1728 C1729 1.391 . S
C1728 C1730 1.394 . S
C1728 H1744 0.931 . S
C1729 C1728 1.391 . S
C1729 C1733 1.376 . S
C1730 C1728 1.394 . S
C1730 C1731 1.369 . S
C1730 C1734 1.531 . S
C1731 C1730 1.369 . S
C1731 C1732 1.410 . S
C1731 C1739 1.503 . S
C1732 C1731 1.410 . S
C1732 C1733 1.392 . S
C1732 C1735 1.511 . S
C1733 C1729 1.376 . S
C1733 C1732 1.392 . S
C1733 H1745 0.929 . S
C1734 C1730 1.531 . S
C1734 H1746 0.960 . S
C1734 H1747 0.962 . S
C1734 H1748 0.960 . S
C1735 C1732 1.511 . S
C1735 H1749 0.961 . S
C1735 H1750 0.961 . S
C1735 H1751 0.961 . S
C1736 C1737 1.370 . S
C1736 C1738 1.363 . S
C1736 H1752 0.931 . S
C1737 C1736 1.370 . S
C1737 C1741 1.408 . S
C1738 C1736 1.363 . S
C1738 C1739 1.370 . S
C1738 C1742 1.524 . S
C1739 C1731 1.503 . S
C1739 C1738 1.370 . S
C1739 C1740 1.403 . S
C1740 C1739 1.403 . S
C1740 C1741 1.404 . S
C1740 C1743 1.539 . S
C1741 C1737 1.408 . S
C1741 C1740 1.404 . S
C1741 H1753 0.930 . S
C1742 C1738 1.524 . S
C1742 H1754 0.956 . S
C1742 H1755 0.961 . S
C1742 H1756 0.961 . S
C1743 C1740 1.539 . S
C1743 H1757 0.958 . S
C1743 H1758 0.961 . S
C1743 H1759 0.960 . S
H1744 C1728 0.931 . S
H1745 C1733 0.929 . S
H1746 C1734 0.960 . S
H1747 C1734 0.962 . S
H1748 C1734 0.960 . S
H1749 C1735 0.961 . S
H1750 C1735 0.961 . S
H1751 C1735 0.961 . S
H1752 C1736 0.931 . S
H1753 C1741 0.930 . S
H1754 C1742 0.956 . S
H1755 C1742 0.961 . S
H1756 C1742 0.961 . S
H1757 C1743 0.958 . S
H1758 C1743 0.961 . S
H1759 C1743 0.960 . S
C1760 C1761 1.391 . S
C1760 C1762 1.394 . S
C1760 H1776 0.931 . S
C1761 C1760 1.391 . S
C1761 C1765 1.376 . S
C1762 C1760 1.394 . S
C1762 C1763 1.369 . S
C1762 C1766 1.531 . S
C1763 C1762 1.369 . S
C1763 C1764 1.410 . S
C1763 C1771 1.503 . S
C1764 C1763 1.410 . S
C1764 C1765 1.392 . S
C1764 C1767 1.511 . S
C1765 C1761 1.376 . S
C1765 C1764 1.392 . S
C1765 H1777 0.929 . S
C1766 C1762 1.531 . S
C1766 H1778 0.960 . S
C1766 H1779 0.962 . S
C1766 H1780 0.960 . S
C1767 C1764 1.511 . S
C1767 H1781 0.961 . S
C1767 H1782 0.961 . S
C1767 H1783 0.961 . S
C1768 C1769 1.370 . S
C1768 C1770 1.363 . S
C1768 H1784 0.931 . S
C1769 C1768 1.370 . S
C1769 C1773 1.408 . S
C1770 C1768 1.363 . S
C1770 C1771 1.370 . S
C1770 C1774 1.524 . S
C1771 C1763 1.503 . S
C1771 C1770 1.370 . S
C1771 C1772 1.403 . S
C1772 C1771 1.403 . S
C1772 C1773 1.404 . S
C1772 C1775 1.539 . S
C1773 C1769 1.408 . S
C1773 C1772 1.404 . S
C1773 H1785 0.930 . S
C1774 C1770 1.524 . S
C1774 H1786 0.956 . S
C1774 H1787 0.961 . S
C1774 H1788 0.961 . S
C1775 C1772 1.539 . S
C1775 H1789 0.958 . S
C1775 H1790 0.961 . S
C1775 H1791 0.960 . S
H1776 C1760 0.931 . S
H1777 C1765 0.929 . S
H1778 C1766 0.960 . S
H1779 C1766 0.962 . S
H1780 C1766 0.960 . S
H1781 C1767 0.961 . S
H1782 C1767 0.961 . S
H1783 C1767 0.961 . S
H1784 C1768 0.931 . S
H1785 C1773 0.930 . S
H1786 C1774 0.956 . S
H1787 C1774 0.961 . S
H1788 C1774 0.961 . S
H1789 C1775 0.958 . S
H1790 C1775 0.961 . S
H1791 C1775 0.960 . S
C1792 C1793 1.391 . S
C1792 C1794 1.394 . S
C1792 H1808 0.931 . S
C1793 C1792 1.391 . S
C1793 C1797 1.376 . S
C1794 C1792 1.394 . S
C1794 C1795 1.369 . S
C1794 C1798 1.531 . S
C1795 C1794 1.369 . S
C1795 C1796 1.410 . S
C1795 C1803 1.503 . S
C1796 C1795 1.410 . S
C1796 C1797 1.392 . S
C1796 C1799 1.511 . S
C1797 C1793 1.376 . S
C1797 C1796 1.392 . S
C1797 H1809 0.929 . S
C1798 C1794 1.531 . S
C1798 H1810 0.960 . S
C1798 H1811 0.962 . S
C1798 H1812 0.960 . S
C1799 C1796 1.511 . S
C1799 H1813 0.961 . S
C1799 H1814 0.961 . S
C1799 H1815 0.961 . S
C1800 C1801 1.370 . S
C1800 C1802 1.363 . S
C1800 H1816 0.931 . S
C1801 C1800 1.370 . S
C1801 C1805 1.408 . S
C1802 C1800 1.363 . S
C1802 C1803 1.370 . S
C1802 C1806 1.524 . S
C1803 C1795 1.503 . S
C1803 C1802 1.370 . S
C1803 C1804 1.403 . S
C1804 C1803 1.403 . S
C1804 C1805 1.404 . S
C1804 C1807 1.539 . S
C1805 C1801 1.408 . S
C1805 C1804 1.404 . S
C1805 H1817 0.930 . S
C1806 C1802 1.524 . S
C1806 H1818 0.956 . S
C1806 H1819 0.961 . S
C1806 H1820 0.961 . S
C1807 C1804 1.539 . S
C1807 H1821 0.958 . S
C1807 H1822 0.961 . S
C1807 H1823 0.960 . S
H1808 C1792 0.931 . S
H1809 C1797 0.929 . S
H1810 C1798 0.960 . S
H1811 C1798 0.962 . S
H1812 C1798 0.960 . S
H1813 C1799 0.961 . S
H1814 C1799 0.961 . S
H1815 C1799 0.961 . S
H1816 C1800 0.931 . S
H1817 C1805 0.930 . S
H1818 C1806 0.956 . S
H1819 C1806 0.961 . S
H1820 C1806 0.961 . S
H1821 C1807 0.958 . S
H1822 C1807 0.961 . S
H1823 C1807 0.960 . S
C1824 C1825 1.391 . S
C1824 C1826 1.394 . S
C1824 H1840 0.931 . S
C1825 C1824 1.391 . S
C1825 C1829 1.376 . S
C1826 C1824 1.394 . S
C1826 C1827 1.369 . S
C1826 C1830 1.531 . S
C1827 C1826 1.369 . S
C1827 C1828 1.410 . S
C1827 C1835 1.503 . S
C1828 C1827 1.410 . S
C1828 C1829 1.392 . S
C1828 C1831 1.511 . S
C1829 C1825 1.376 . S
C1829 C1828 1.392 . S
C1829 H1841 0.929 . S
C1830 C1826 1.531 . S
C1830 H1842 0.960 . S
C1830 H1843 0.962 . S
C1830 H1844 0.960 . S
C1831 C1828 1.511 . S
C1831 H1845 0.961 . S
C1831 H1846 0.961 . S
C1831 H1847 0.961 . S
C1832 C1833 1.370 . S
C1832 C1834 1.363 . S
C1832 H1848 0.931 . S
C1833 C1832 1.370 . S
C1833 C1837 1.408 . S
C1834 C1832 1.363 . S
C1834 C1835 1.370 . S
C1834 C1838 1.524 . S
C1835 C1827 1.503 . S
C1835 C1834 1.370 . S
C1835 C1836 1.403 . S
C1836 C1835 1.403 . S
C1836 C1837 1.404 . S
C1836 C1839 1.539 . S
C1837 C1833 1.408 . S
C1837 C1836 1.404 . S
C1837 H1849 0.930 . S
C1838 C1834 1.524 . S
C1838 H1850 0.956 . S
C1838 H1851 0.961 . S
C1838 H1852 0.961 . S
C1839 C1836 1.539 . S
C1839 H1853 0.958 . S
C1839 H1854 0.961 . S
C1839 H1855 0.960 . S
H1840 C1824 0.931 . S
H1841 C1829 0.929 . S
H1842 C1830 0.960 . S
H1843 C1830 0.962 . S
H1844 C1830 0.960 . S
H1845 C1831 0.961 . S
H1846 C1831 0.961 . S
H1847 C1831 0.961 . S
H1848 C1832 0.931 . S
H1849 C1837 0.930 . S
H1850 C1838 0.956 . S
H1851 C1838 0.961 . S
H1852 C1838 0.961 . S
H1853 C1839 0.958 . S
H1854 C1839 0.961 . S
H1855 C1839 0.960 . S
C1856 C1857 1.391 . S
C1856 C1858 1.394 . S
C1856 H1872 0.931 . S
C1857 C1856 1.391 . S
C1857 C1861 1.376 . S
C1858 C1856 1.394 . S
C1858 C1859 1.369 . S
C1858 C1862 1.531 . S
C1859 C1858 1.369 . S
C1859 C1860 1.410 . S
C1859 C1867 1.503 . S
C1860 C1859 1.410 . S
C1860 C1861 1.392 . S
C1860 C1863 1.511 . S
C1861 C1857 1.376 . S
C1861 C1860 1.392 . S
C1861 H1873 0.929 . S
C1862 C1858 1.531 . S
C1862 H1874 0.960 . S
C1862 H1875 0.962 . S
C1862 H1876 0.960 . S
C1863 C1860 1.511 . S
C1863 H1877 0.961 . S
C1863 H1878 0.961 . S
C1863 H1879 0.961 . S
C1864 C1865 1.370 . S
C1864 C1866 1.363 . S
C1864 H1880 0.931 . S
C1865 C1864 1.370 . S
C1865 C1869 1.408 . S
C1866 C1864 1.363 . S
C1866 C1867 1.370 . S
C1866 C1870 1.524 . S
C1867 C1859 1.503 . S
C1867 C1866 1.370 . S
C1867 C1868 1.403 . S
C1868 C1867 1.403 . S
C1868 C1869 1.404 . S
C1868 C1871 1.539 . S
C1869 C1865 1.408 . S
C1869 C1868 1.404 . S
C1869 H1881 0.930 . S
C1870 C1866 1.524 . S
C1870 H1882 0.956 . S
C1870 H1883 0.961 . S
C1870 H1884 0.961 . S
C1871 C1868 1.539 . S
C1871 H1885 0.958 . S
C1871 H1886 0.961 . S
C1871 H1887 0.960 . S
H1872 C1856 0.931 . S
H1873 C1861 0.929 . S
H1874 C1862 0.960 . S
H1875 C1862 0.962 . S
H1876 C1862 0.960 . S
H1877 C1863 0.961 . S
H1878 C1863 0.961 . S
H1879 C1863 0.961 . S
H1880 C1864 0.931 . S
H1881 C1869 0.930 . S
H1882 C1870 0.956 . S
H1883 C1870 0.961 . S
H1884 C1870 0.961 . S
H1885 C1871 0.958 . S
H1886 C1871 0.961 . S
H1887 C1871 0.960 . S
C1888 C1889 1.391 . S
C1888 C1890 1.394 . S
C1888 H1904 0.931 . S
C1889 C1888 1.391 . S
C1889 C1893 1.376 . S
C1890 C1888 1.394 . S
C1890 C1891 1.369 . S
C1890 C1894 1.531 . S
C1891 C1890 1.369 . S
C1891 C1892 1.410 . S
C1891 C1899 1.503 . S
C1892 C1891 1.410 . S
C1892 C1893 1.392 . S
C1892 C1895 1.511 . S
C1893 C1889 1.376 . S
C1893 C1892 1.392 . S
C1893 H1905 0.929 . S
C1894 C1890 1.531 . S
C1894 H1906 0.960 . S
C1894 H1907 0.962 . S
C1894 H1908 0.960 . S
C1895 C1892 1.511 . S
C1895 H1909 0.961 . S
C1895 H1910 0.961 . S
C1895 H1911 0.961 . S
C1896 C1897 1.370 . S
C1896 C1898 1.363 . S
C1896 H1912 0.931 . S
C1897 C1896 1.370 . S
C1897 C1901 1.408 . S
C1898 C1896 1.363 . S
C1898 C1899 1.370 . S
C1898 C1902 1.524 . S
C1899 C1891 1.503 . S
C1899 C1898 1.370 . S
C1899 C1900 1.403 . S
C1900 C1899 1.403 . S
C1900 C1901 1.404 . S
C1900 C1903 1.539 . S
C1901 C1897 1.408 . S
C1901 C1900 1.404 . S
C1901 H1913 0.930 . S
C1902 C1898 1.524 . S
C1902 H1914 0.956 . S
C1902 H1915 0.961 . S
C1902 H1916 0.961 . S
C1903 C1900 1.539 . S
C1903 H1917 0.958 . S
C1903 H1918 0.961 . S
C1903 H1919 0.960 . S
H1904 C1888 0.931 . S
H1905 C1893 0.929 . S
H1906 C1894 0.960 . S
H1907 C1894 0.962 . S
H1908 C1894 0.960 . S
H1909 C1895 0.961 . S
H1910 C1895 0.961 . S
H1911 C1895 0.961 . S
H1912 C1896 0.931 . S
H1913 C1901 0.930 . S
H1914 C1902 0.956 . S
H1915 C1902 0.961 . S
H1916 C1902 0.961 . S
H1917 C1903 0.958 . S
H1918 C1903 0.961 . S
H1919 C1903 0.960 . S
C1920 C1921 1.391 . S
C1920 C1922 1.394 . S
C1920 H1936 0.931 . S
C1921 C1920 1.391 . S
C1921 C1925 1.376 . S
C1922 C1920 1.394 . S
C1922 C1923 1.369 . S
C1922 C1926 1.531 . S
C1923 C1922 1.369 . S
C1923 C1924 1.410 . S
C1923 C1931 1.503 . S
C1924 C1923 1.410 . S
C1924 C1925 1.392 . S
C1924 C1927 1.511 . S
C1925 C1921 1.376 . S
C1925 C1924 1.392 . S
C1925 H1937 0.929 . S
C1926 C1922 1.531 . S
C1926 H1938 0.960 . S
C1926 H1939 0.962 . S
C1926 H1940 0.960 . S
C1927 C1924 1.511 . S
C1927 H1941 0.961 . S
C1927 H1942 0.961 . S
C1927 H1943 0.961 . S
C1928 C1929 1.370 . S
C1928 C1930 1.363 . S
C1928 H1944 0.931 . S
C1929 C1928 1.370 . S
C1929 C1933 1.408 . S
C1930 C1928 1.363 . S
C1930 C1931 1.370 . S
C1930 C1934 1.524 . S
C1931 C1923 1.503 . S
C1931 C1930 1.370 . S
C1931 C1932 1.403 . S
C1932 C1931 1.403 . S
C1932 C1933 1.404 . S
C1932 C1935 1.539 . S
C1933 C1929 1.408 . S
C1933 C1932 1.404 . S
C1933 H1945 0.930 . S
C1934 C1930 1.524 . S
C1934 H1946 0.956 . S
C1934 H1947 0.961 . S
C1934 H1948 0.961 . S
C1935 C1932 1.539 . S
C1935 H1949 0.958 . S
C1935 H1950 0.961 . S
C1935 H1951 0.960 . S
H1936 C1920 0.931 . S
H1937 C1925 0.929 . S
H1938 C1926 0.960 . S
H1939 C1926 0.962 . S
H1940 C1926 0.960 . S
H1941 C1927 0.961 . S
H1942 C1927 0.961 . S
H1943 C1927 0.961 . S
H1944 C1928 0.931 . S
H1945 C1933 0.930 . S
H1946 C1934 0.956 . S
H1947 C1934 0.961 . S
H1948 C1934 0.961 . S
H1949 C1935 0.958 . S
H1950 C1935 0.961 . S
H1951 C1935 0.960 . S
C1952 C1953 1.391 . S
C1952 C1954 1.394 . S
C1952 H1968 0.931 . S
C1953 C1952 1.391 . S
C1953 C1957 1.376 . S
C1954 C1952 1.394 . S
C1954 C1955 1.369 . S
C1954 C1958 1.531 . S
C1955 C1954 1.369 . S
C1955 C1956 1.410 . S
C1955 C1963 1.503 . S
C1956 C1955 1.410 . S
C1956 C1957 1.392 . S
C1956 C1959 1.511 . S
C1957 C1953 1.376 . S
C1957 C1956 1.392 . S
C1957 H1969 0.929 . S
C1958 C1954 1.531 . S
C1958 H1970 0.960 . S
C1958 H1971 0.962 . S
C1958 H1972 0.960 . S
C1959 C1956 1.511 . S
C1959 H1973 0.961 . S
C1959 H1974 0.961 . S
C1959 H1975 0.961 . S
C1960 C1961 1.370 . S
C1960 C1962 1.363 . S
C1960 H1976 0.931 . S
C1961 C1960 1.370 . S
C1961 C1965 1.408 . S
C1962 C1960 1.363 . S
C1962 C1963 1.370 . S
C1962 C1966 1.524 . S
C1963 C1955 1.503 . S
C1963 C1962 1.370 . S
C1963 C1964 1.403 . S
C1964 C1963 1.403 . S
C1964 C1965 1.404 . S
C1964 C1967 1.539 . S
C1965 C1961 1.408 . S
C1965 C1964 1.404 . S
C1965 H1977 0.930 . S
C1966 C1962 1.524 . S
C1966 H1978 0.956 . S
C1966 H1979 0.961 . S
C1966 H1980 0.961 . S
C1967 C1964 1.539 . S
C1967 H1981 0.958 . S
C1967 H1982 0.961 . S
C1967 H1983 0.960 . S
H1968 C1952 0.931 . S
H1969 C1957 0.929 . S
H1970 C1958 0.960 . S
H1971 C1958 0.962 . S
H1972 C1958 0.960 . S
H1973 C1959 0.961 . S
H1974 C1959 0.961 . S
H1975 C1959 0.961 . S
H1976 C1960 0.931 . S
H1977 C1965 0.930 . S
H1978 C1966 0.956 . S
H1979 C1966 0.961 . S
H1980 C1966 0.961 . S
H1981 C1967 0.958 . S
H1982 C1967 0.961 . S
H1983 C1967 0.960 . S
C1984 C1985 1.391 . S
C1984 C1986 1.394 . S
C1984 H2000 0.931 . S
C1985 C1984 1.391 . S
C1985 C1989 1.376 . S
C1986 C1984 1.394 . S
C1986 C1987 1.369 . S
C1986 C1990 1.531 . S
C1987 C1986 1.369 . S
C1987 C1988 1.410 . S
C1987 C1995 1.503 . S
C1988 C1987 1.410 . S
C1988 C1989 1.392 . S
C1988 C1991 1.511 . S
C1989 C1985 1.376 . S
C1989 C1988 1.392 . S
C1989 H2001 0.929 . S
C1990 C1986 1.531 . S
C1990 H2002 0.960 . S
C1990 H2003 0.962 . S
C1990 H2004 0.960 . S
C1991 C1988 1.511 . S
C1991 H2005 0.961 . S
C1991 H2006 0.961 . S
C1991 H2007 0.961 . S
C1992 C1993 1.370 . S
C1992 C1994 1.363 . S
C1992 H2008 0.931 . S
C1993 C1992 1.370 . S
C1993 C1997 1.408 . S
C1994 C1992 1.363 . S
C1994 C1995 1.370 . S
C1994 C1998 1.524 . S
C1995 C1987 1.503 . S
C1995 C1994 1.370 . S
C1995 C1996 1.403 . S
C1996 C1995 1.403 . S
C1996 C1997 1.404 . S
C1996 C1999 1.539 . S
C1997 C1993 1.408 . S
C1997 C1996 1.404 . S
C1997 H2009 0.930 . S
C1998 C1994 1.524 . S
C1998 H2010 0.956 . S
C1998 H2011 0.961 . S
C1998 H2012 0.961 . S
C1999 C1996 1.539 . S
C1999 H2013 0.958 . S
C1999 H2014 0.961 . S
C1999 H2015 0.960 . S
H2000 C1984 0.931 . S
H2001 C1989 0.929 . S
H2002 C1990 0.960 . S
H2003 C1990 0.962 . S
H2004 C1990 0.960 . S
H2005 C1991 0.961 . S
H2006 C1991 0.961 . S
H2007 C1991 0.961 . S
H2008 C1992 0.931 . S
H2009 C1997 0.930 . S
H2010 C1998 0.956 . S
H2011 C1998 0.961 . S
H2012 C1998 0.961 . S
H2013 C1999 0.958 . S
H2014 C1999 0.961 . S
H2015 C1999 0.960 . S
C2016 C2017 1.391 . S
C2016 C2018 1.394 . S
C2016 H2032 0.931 . S
C2017 C2016 1.391 . S
C2017 C2021 1.376 . S
C2018 C2016 1.394 . S
C2018 C2019 1.369 . S
C2018 C2022 1.531 . S
C2019 C2018 1.369 . S
C2019 C2020 1.410 . S
C2019 C2027 1.503 . S
C2020 C2019 1.410 . S
C2020 C2021 1.392 . S
C2020 C2023 1.511 . S
C2021 C2017 1.376 . S
C2021 C2020 1.392 . S
C2021 H2033 0.929 . S
C2022 C2018 1.531 . S
C2022 H2034 0.960 . S
C2022 H2035 0.962 . S
C2022 H2036 0.960 . S
C2023 C2020 1.511 . S
C2023 H2037 0.961 . S
C2023 H2038 0.961 . S
C2023 H2039 0.961 . S
C2024 C2025 1.370 . S
C2024 C2026 1.363 . S
C2024 H2040 0.931 . S
C2025 C2024 1.370 . S
C2025 C2029 1.408 . S
C2026 C2024 1.363 . S
C2026 C2027 1.370 . S
C2026 C2030 1.524 . S
C2027 C2019 1.503 . S
C2027 C2026 1.370 . S
C2027 C2028 1.403 . S
C2028 C2027 1.403 . S
C2028 C2029 1.404 . S
C2028 C2031 1.539 . S
C2029 C2025 1.408 . S
C2029 C2028 1.404 . S
C2029 H2041 0.930 . S
C2030 C2026 1.524 . S
C2030 H2042 0.956 . S
C2030 H2043 0.961 . S
C2030 H2044 0.961 . S
C2031 C2028 1.539 . S
C2031 H2045 0.958 . S
C2031 H2046 0.961 . S
C2031 H2047 0.960 . S
H2032 C2016 0.931 . S
H2033 C2021 0.929 . S
H2034 C2022 0.960 . S
H2035 C2022 0.962 . S
H2036 C2022 0.960 . S
H2037 C2023 0.961 . S
H2038 C2023 0.961 . S
H2039 C2023 0.961 . S
H2040 C2024 0.931 . S
H2041 C2029 0.930 . S
H2042 C2030 0.956 . S
H2043 C2030 0.961 . S
H2044 C2030 0.961 . S
H2045 C2031 0.958 . S
H2046 C2031 0.961 . S
H2047 C2031 0.960 . S
C2048 C2049 1.391 . S
C2048 C2050 1.394 . S
C2048 H2064 0.931 . S
C2049 C2048 1.391 . S
C2049 C2053 1.376 . S
C2050 C2048 1.394 . S
C2050 C2051 1.369 . S
C2050 C2054 1.531 . S
C2051 C2050 1.369 . S
C2051 C2052 1.410 . S
C2051 C2059 1.503 . S
C2052 C2051 1.410 . S
C2052 C2053 1.392 . S
C2052 C2055 1.511 . S
C2053 C2049 1.376 . S
C2053 C2052 1.392 . S
C2053 H2065 0.929 . S
C2054 C2050 1.531 . S
C2054 H2066 0.960 . S
C2054 H2067 0.962 . S
C2054 H2068 0.960 . S
C2055 C2052 1.511 . S
C2055 H2069 0.961 . S
C2055 H2070 0.961 . S
C2055 H2071 0.961 . S
C2056 C2057 1.370 . S
C2056 C2058 1.363 . S
C2056 H2072 0.931 . S
C2057 C2056 1.370 . S
C2057 C2061 1.408 . S
C2058 C2056 1.363 . S
C2058 C2059 1.370 . S
C2058 C2062 1.524 . S
C2059 C2051 1.503 . S
C2059 C2058 1.370 . S
C2059 C2060 1.403 . S
C2060 C2059 1.403 . S
C2060 C2061 1.404 . S
C2060 C2063 1.539 . S
C2061 C2057 1.408 . S
C2061 C2060 1.404 . S
C2061 H2073 0.930 . S
C2062 C2058 1.524 . S
C2062 H2074 0.956 . S
C2062 H2075 0.961 . S
C2062 H2076 0.961 . S
C2063 C2060 1.539 . S
C2063 H2077 0.958 . S
C2063 H2078 0.961 . S
C2063 H2079 0.960 . S
H2064 C2048 0.931 . S
H2065 C2053 0.929 . S
H2066 C2054 0.960 . S
H2067 C2054 0.962 . S
H2068 C2054 0.960 . S
H2069 C2055 0.961 . S
H2070 C2055 0.961 . S
H2071 C2055 0.961 . S
H2072 C2056 0.931 . S
H2073 C2061 0.930 . S
H2074 C2062 0.956 . S
H2075 C2062 0.961 . S
H2076 C2062 0.961 . S
H2077 C2063 0.958 . S
H2078 C2063 0.961 . S
H2079 C2063 0.960 . S
C2080 C2081 1.391 . S
C2080 C2082 1.394 . S
C2080 H2096 0.931 . S
C2081 C2080 1.391 . S
C2081 C2085 1.376 . S
C2082 C2080 1.394 . S
C2082 C2083 1.369 . S
C2082 C2086 1.531 . S
C2083 C2082 1.369 . S
C2083 C2084 1.410 . S
C2083 C2091 1.503 . S
C2084 C2083 1.410 . S
C2084 C2085 1.392 . S
C2084 C2087 1.511 . S
C2085 C2081 1.376 . S
C2085 C2084 1.392 . S
C2085 H2097 0.929 . S
C2086 C2082 1.531 . S
C2086 H2098 0.960 . S
C2086 H2099 0.962 . S
C2086 H2100 0.960 . S
C2087 C2084 1.511 . S
C2087 H2101 0.961 . S
C2087 H2102 0.961 . S
C2087 H2103 0.961 . S
C2088 C2089 1.370 . S
C2088 C2090 1.363 . S
C2088 H2104 0.931 . S
C2089 C2088 1.370 . S
C2089 C2093 1.408 . S
C2090 C2088 1.363 . S
C2090 C2091 1.370 . S
C2090 C2094 1.524 . S
C2091 C2083 1.503 . S
C2091 C2090 1.370 . S
C2091 C2092 1.403 . S
C2092 C2091 1.403 . S
C2092 C2093 1.404 . S
C2092 C2095 1.539 . S
C2093 C2089 1.408 . S
C2093 C2092 1.404 . S
C2093 H2105 0.930 . S
C2094 C2090 1.524 . S
C2094 H2106 0.956 . S
C2094 H2107 0.961 . S
C2094 H2108 0.961 . S
C2095 C2092 1.539 . S
C2095 H2109 0.958 . S
C2095 H2110 0.961 . S
C2095 H2111 0.960 . S
H2096 C2080 0.931 . S
H2097 C2085 0.929 . S
H2098 C2086 0.960 . S
H2099 C2086 0.962 . S
H2100 C2086 0.960 . S
H2101 C2087 0.961 . S
H2102 C2087 0.961 . S
H2103 C2087 0.961 . S
H2104 C2088 0.931 . S
H2105 C2093 0.930 . S
H2106 C2094 0.956 . S
H2107 C2094 0.961 . S
H2108 C2094 0.961 . S
H2109 C2095 0.958 . S
H2110 C2095 0.961 . S
H2111 C2095 0.960 . S
C2112 C2113 1.391 . S
C2112 C2114 1.394 . S
C2112 H2128 0.931 . S
C2113 C2112 1.391 . S
C2113 C2117 1.376 . S
C2114 C2112 1.394 . S
C2114 C2115 1.369 . S
C2114 C2118 1.531 . S
C2115 C2114 1.369 . S
C2115 C2116 1.410 . S
C2115 C2123 1.503 . S
C2116 C2115 1.410 . S
C2116 C2117 1.392 . S
C2116 C2119 1.511 . S
C2117 C2113 1.376 . S
C2117 C2116 1.392 . S
C2117 H2129 0.929 . S
C2118 C2114 1.531 . S
C2118 H2130 0.960 . S
C2118 H2131 0.962 . S
C2118 H2132 0.960 . S
C2119 C2116 1.511 . S
C2119 H2133 0.961 . S
C2119 H2134 0.961 . S
C2119 H2135 0.961 . S
C2120 C2121 1.370 . S
C2120 C2122 1.363 . S
C2120 H2136 0.931 . S
C2121 C2120 1.370 . S
C2121 C2125 1.408 . S
C2122 C2120 1.363 . S
C2122 C2123 1.370 . S
C2122 C2126 1.524 . S
C2123 C2115 1.503 . S
C2123 C2122 1.370 . S
C2123 C2124 1.403 . S
C2124 C2123 1.403 . S
C2124 C2125 1.404 . S
C2124 C2127 1.539 . S
C2125 C2121 1.408 . S
C2125 C2124 1.404 . S
C2125 H2137 0.930 . S
C2126 C2122 1.524 . S
C2126 H2138 0.956 . S
C2126 H2139 0.961 . S
C2126 H2140 0.961 . S
C2127 C2124 1.539 . S
C2127 H2141 0.958 . S
C2127 H2142 0.961 . S
C2127 H2143 0.960 . S
H2128 C2112 0.931 . S
H2129 C2117 0.929 . S
H2130 C2118 0.960 . S
H2131 C2118 0.962 . S
H2132 C2118 0.960 . S
H2133 C2119 0.961 . S
H2134 C2119 0.961 . S
H2135 C2119 0.961 . S
H2136 C2120 0.931 . S
H2137 C2125 0.930 . S
H2138 C2126 0.956 . S
H2139 C2126 0.961 . S
H2140 C2126 0.961 . S
H2141 C2127 0.958 . S
H2142 C2127 0.961 . S
H2143 C2127 0.960 . S
C2144 C2145 1.391 . S
C2144 C2146 1.394 . S
C2144 H2160 0.931 . S
C2145 C2144 1.391 . S
C2145 C2149 1.376 . S
C2146 C2144 1.394 . S
C2146 C2147 1.369 . S
C2146 C2150 1.531 . S
C2147 C2146 1.369 . S
C2147 C2148 1.410 . S
C2147 C2155 1.503 . S
C2148 C2147 1.410 . S
C2148 C2149 1.392 . S
C2148 C2151 1.511 . S
C2149 C2145 1.376 . S
C2149 C2148 1.392 . S
C2149 H2161 0.929 . S
C2150 C2146 1.531 . S
C2150 H2162 0.960 . S
C2150 H2163 0.962 . S
C2150 H2164 0.960 . S
C2151 C2148 1.511 . S
C2151 H2165 0.961 . S
C2151 H2166 0.961 . S
C2151 H2167 0.961 . S
C2152 C2153 1.370 . S
C2152 C2154 1.363 . S
C2152 H2168 0.931 . S
C2153 C2152 1.370 . S
C2153 C2157 1.408 . S
C2154 C2152 1.363 . S
C2154 C2155 1.370 . S
C2154 C2158 1.524 . S
C2155 C2147 1.503 . S
C2155 C2154 1.370 . S
C2155 C2156 1.403 . S
C2156 C2155 1.403 . S
C2156 C2157 1.404 . S
C2156 C2159 1.539 . S
C2157 C2153 1.408 . S
C2157 C2156 1.404 . S
C2157 H2169 0.930 . S
C2158 C2154 1.524 . S
C2158 H2170 0.956 . S
C2158 H2171 0.961 . S
C2158 H2172 0.961 . S
C2159 C2156 1.539 . S
C2159 H2173 0.958 . S
C2159 H2174 0.961 . S
C2159 H2175 0.960 . S
H2160 C2144 0.931 . S
H2161 C2149 0.929 . S
H2162 C2150 0.960 . S
H2163 C2150 0.962 . S
H2164 C2150 0.960 . S
H2165 C2151 0.961 . S
H2166 C2151 0.961 . S
H2167 C2151 0.961 . S
H2168 C2152 0.931 . S
H2169 C2157 0.930 . S
H2170 C2158 0.956 . S
H2171 C2158 0.961 . S
H2172 C2158 0.961 . S
H2173 C2159 0.958 . S
H2174 C2159 0.961 . S
H2175 C2159 0.960 . S
C2176 C2177 1.391 . S
C2176 C2178 1.394 . S
C2176 H2192 0.931 . S
C2177 C2176 1.391 . S
C2177 C2181 1.376 . S
C2178 C2176 1.394 . S
C2178 C2179 1.369 . S
C2178 C2182 1.531 . S
C2179 C2178 1.369 . S
C2179 C2180 1.410 . S
C2179 C2187 1.503 . S
C2180 C2179 1.410 . S
C2180 C2181 1.392 . S
C2180 C2183 1.511 . S
C2181 C2177 1.376 . S
C2181 C2180 1.392 . S
C2181 H2193 0.929 . S
C2182 C2178 1.531 . S
C2182 H2194 0.960 . S
C2182 H2195 0.962 . S
C2182 H2196 0.960 . S
C2183 C2180 1.511 . S
C2183 H2197 0.961 . S
C2183 H2198 0.961 . S
C2183 H2199 0.961 . S
C2184 C2185 1.370 . S
C2184 C2186 1.363 . S
C2184 H2200 0.931 . S
C2185 C2184 1.370 . S
C2185 C2189 1.408 . S
C2186 C2184 1.363 . S
C2186 C2187 1.370 . S
C2186 C2190 1.524 . S
C2187 C2179 1.503 . S
C2187 C2186 1.370 . S
C2187 C2188 1.403 . S
C2188 C2187 1.403 . S
C2188 C2189 1.404 . S
C2188 C2191 1.539 . S
C2189 C2185 1.408 . S
C2189 C2188 1.404 . S
C2189 H2201 0.930 . S
C2190 C2186 1.524 . S
C2190 H2202 0.956 . S
C2190 H2203 0.961 . S
C2190 H2204 0.961 . S
C2191 C2188 1.539 . S
C2191 H2205 0.958 . S
C2191 H2206 0.961 . S
C2191 H2207 0.960 . S
H2192 C2176 0.931 . S
H2193 C2181 0.929 . S
H2194 C2182 0.960 . S
H2195 C2182 0.962 . S
H2196 C2182 0.960 . S
H2197 C2183 0.961 . S
H2198 C2183 0.961 . S
H2199 C2183 0.961 . S
H2200 C2184 0.931 . S
H2201 C2189 0.930 . S
H2202 C2190 0.956 . S
H2203 C2190 0.961 . S
H2204 C2190 0.961 . S
H2205 C2191 0.958 . S
H2206 C2191 0.961 . S
H2207 C2191 0.960 . S
C2208 C2209 1.391 . S
C2208 C2210 1.394 . S
C2208 H2224 0.931 . S
C2209 C2208 1.391 . S
C2209 C2213 1.376 . S
C2210 C2208 1.394 . S
C2210 C2211 1.369 . S
C2210 C2214 1.531 . S
C2211 C2210 1.369 . S
C2211 C2212 1.410 . S
C2211 C2219 1.503 . S
C2212 C2211 1.410 . S
C2212 C2213 1.392 . S
C2212 C2215 1.511 . S
C2213 C2209 1.376 . S
C2213 C2212 1.392 . S
C2213 H2225 0.929 . S
C2214 C2210 1.531 . S
C2214 H2226 0.960 . S
C2214 H2227 0.962 . S
C2214 H2228 0.960 . S
C2215 C2212 1.511 . S
C2215 H2229 0.961 . S
C2215 H2230 0.961 . S
C2215 H2231 0.961 . S
C2216 C2217 1.370 . S
C2216 C2218 1.363 . S
C2216 H2232 0.931 . S
C2217 C2216 1.370 . S
C2217 C2221 1.408 . S
C2218 C2216 1.363 . S
C2218 C2219 1.370 . S
C2218 C2222 1.524 . S
C2219 C2211 1.503 . S
C2219 C2218 1.370 . S
C2219 C2220 1.403 . S
C2220 C2219 1.403 . S
C2220 C2221 1.404 . S
C2220 C2223 1.539 . S
C2221 C2217 1.408 . S
C2221 C2220 1.404 . S
C2221 H2233 0.930 . S
C2222 C2218 1.524 . S
C2222 H2234 0.956 . S
C2222 H2235 0.961 . S
C2222 H2236 0.961 . S
C2223 C2220 1.539 . S
C2223 H2237 0.958 . S
C2223 H2238 0.961 . S
C2223 H2239 0.960 . S
H2224 C2208 0.931 . S
H2225 C2213 0.929 . S
H2226 C2214 0.960 . S
H2227 C2214 0.962 . S
H2228 C2214 0.960 . S
H2229 C2215 0.961 . S
H2230 C2215 0.961 . S
H2231 C2215 0.961 . S
H2232 C2216 0.931 . S
H2233 C2221 0.930 . S
H2234 C2222 0.956 . S
H2235 C2222 0.961 . S
H2236 C2222 0.961 . S
H2237 C2223 0.958 . S
H2238 C2223 0.961 . S
H2239 C2223 0.960 . S
C2240 C2241 1.391 . S
C2240 C2242 1.394 . S
C2240 H2256 0.931 . S
C2241 C2240 1.391 . S
C2241 C2245 1.376 . S
C2242 C2240 1.394 . S
C2242 C2243 1.369 . S
C2242 C2246 1.531 . S
C2243 C2242 1.369 . S
C2243 C2244 1.410 . S
C2243 C2251 1.503 . S
C2244 C2243 1.410 . S
C2244 C2245 1.392 . S
C2244 C2247 1.511 . S
C2245 C2241 1.376 . S
C2245 C2244 1.392 . S
C2245 H2257 0.929 . S
C2246 C2242 1.531 . S
C2246 H2258 0.960 . S
C2246 H2259 0.962 . S
C2246 H2260 0.960 . S
C2247 C2244 1.511 . S
C2247 H2261 0.961 . S
C2247 H2262 0.961 . S
C2247 H2263 0.961 . S
C2248 C2249 1.370 . S
C2248 C2250 1.363 . S
C2248 H2264 0.931 . S
C2249 C2248 1.370 . S
C2249 C2253 1.408 . S
C2250 C2248 1.363 . S
C2250 C2251 1.370 . S
C2250 C2254 1.524 . S
C2251 C2243 1.503 . S
C2251 C2250 1.370 . S
C2251 C2252 1.403 . S
C2252 C2251 1.403 . S
C2252 C2253 1.404 . S
C2252 C2255 1.539 . S
C2253 C2249 1.408 . S
C2253 C2252 1.404 . S
C2253 H2265 0.930 . S
C2254 C2250 1.524 . S
C2254 H2266 0.956 . S
C2254 H2267 0.961 . S
C2254 H2268 0.961 . S
C2255 C2252 1.539 . S
C2255 H2269 0.958 . S
C2255 H2270 0.961 . S
C2255 H2271 0.960 . S
H2256 C2240 0.931 . S
H2257 C2245 0.929 . S
H2258 C2246 0.960 . S
H2259 C2246 0.962 . S
H2260 C2246 0.960 . S
H2261 C2247 0.961 . S
H2262 C2247 0.961 . S
H2263 C2247 0.961 . S
H2264 C2248 0.931 . S
H2265 C2253 0.930 . S
H2266 C2254 0.956 . S
H2267 C2254 0.961 . S
H2268 C2254 0.961 . S
H2269 C2255 0.958 . S
H2270 C2255 0.961 . S
H2271 C2255 0.960 . S
C2272 C2273 1.391 . S
C2272 C2274 1.394 . S
C2272 H2288 0.931 . S
C2273 C2272 1.391 . S
C2273 C2277 1.376 . S
C2274 C2272 1.394 . S
C2274 C2275 1.369 . S
C2274 C2278 1.531 . S
C2275 C2274 1.369 . S
C2275 C2276 1.410 . S
C2275 C2283 1.503 . S
C2276 C2275 1.410 . S
C2276 C2277 1.392 . S
C2276 C2279 1.511 . S
C2277 C2273 1.376 . S
C2277 C2276 1.392 . S
C2277 H2289 0.929 . S
C2278 C2274 1.531 . S
C2278 H2290 0.960 . S
C2278 H2291 0.962 . S
C2278 H2292 0.960 . S
C2279 C2276 1.511 . S
C2279 H2293 0.961 . S
C2279 H2294 0.961 . S
C2279 H2295 0.961 . S
C2280 C2281 1.370 . S
C2280 C2282 1.363 . S
C2280 H2296 0.931 . S
C2281 C2280 1.370 . S
C2281 C2285 1.408 . S
C2282 C2280 1.363 . S
C2282 C2283 1.370 . S
C2282 C2286 1.524 . S
C2283 C2275 1.503 . S
C2283 C2282 1.370 . S
C2283 C2284 1.403 . S
C2284 C2283 1.403 . S
C2284 C2285 1.404 . S
C2284 C2287 1.539 . S
C2285 C2281 1.408 . S
C2285 C2284 1.404 . S
C2285 H2297 0.930 . S
C2286 C2282 1.524 . S
C2286 H2298 0.956 . S
C2286 H2299 0.961 . S
C2286 H2300 0.961 . S
C2287 C2284 1.539 . S
C2287 H2301 0.958 . S
C2287 H2302 0.961 . S
C2287 H2303 0.960 . S
H2288 C2272 0.931 . S
H2289 C2277 0.929 . S
H2290 C2278 0.960 . S
H2291 C2278 0.962 . S
H2292 C2278 0.960 . S
H2293 C2279 0.961 . S
H2294 C2279 0.961 . S
H2295 C2279 0.961 . S
H2296 C2280 0.931 . S
H2297 C2285 0.930 . S
H2298 C2286 0.956 . S
H2299 C2286 0.961 . S
H2300 C2286 0.961 . S
H2301 C2287 0.958 . S
H2302 C2287 0.961 . S
H2303 C2287 0.960 . S
C2304 C2305 1.391 . S
C2304 C2306 1.394 . S
C2304 H2320 0.931 . S
C2305 C2304 1.391 . S
C2305 C2309 1.376 . S
C2306 C2304 1.394 . S
C2306 C2307 1.369 . S
C2306 C2310 1.531 . S
C2307 C2306 1.369 . S
C2307 C2308 1.410 . S
C2307 C2315 1.503 . S
C2308 C2307 1.410 . S
C2308 C2309 1.392 . S
C2308 C2311 1.511 . S
C2309 C2305 1.376 . S
C2309 C2308 1.392 . S
C2309 H2321 0.929 . S
C2310 C2306 1.531 . S
C2310 H2322 0.960 . S
C2310 H2323 0.962 . S
C2310 H2324 0.960 . S
C2311 C2308 1.511 . S
C2311 H2325 0.961 . S
C2311 H2326 0.961 . S
C2311 H2327 0.961 . S
C2312 C2313 1.370 . S
C2312 C2314 1.363 . S
C2312 H2328 0.931 . S
C2313 C2312 1.370 . S
C2313 C2317 1.408 . S
C2314 C2312 1.363 . S
C2314 C2315 1.370 . S
C2314 C2318 1.524 . S
C2315 C2307 1.503 . S
C2315 C2314 1.370 . S
C2315 C2316 1.403 . S
C2316 C2315 1.403 . S
C2316 C2317 1.404 . S
C2316 C2319 1.539 . S
C2317 C2313 1.408 . S
C2317 C2316 1.404 . S
C2317 H2329 0.930 . S
C2318 C2314 1.524 . S
C2318 H2330 0.956 . S
C2318 H2331 0.961 . S
C2318 H2332 0.961 . S
C2319 C2316 1.539 . S
C2319 H2333 0.958 . S
C2319 H2334 0.961 . S
C2319 H2335 0.960 . S
H2320 C2304 0.931 . S
H2321 C2309 0.929 . S
H2322 C2310 0.960 . S
H2323 C2310 0.962 . S
H2324 C2310 0.960 . S
H2325 C2311 0.961 . S
H2326 C2311 0.961 . S
H2327 C2311 0.961 . S
H2328 C2312 0.931 . S
H2329 C2317 0.930 . S
H2330 C2318 0.956 . S
H2331 C2318 0.961 . S
H2332 C2318 0.961 . S
H2333 C2319 0.958 . S
H2334 C2319 0.961 . S
H2335 C2319 0.960 . S
C2336 C2337 1.391 . S
C2336 C2338 1.394 . S
C2336 H2352 0.931 . S
C2337 C2336 1.391 . S
C2337 C2341 1.376 . S
C2338 C2336 1.394 . S
C2338 C2339 1.369 . S
C2338 C2342 1.531 . S
C2339 C2338 1.369 . S
C2339 C2340 1.410 . S
C2339 C2347 1.503 . S
C2340 C2339 1.410 . S
C2340 C2341 1.392 . S
C2340 C2343 1.511 . S
C2341 C2337 1.376 . S
C2341 C2340 1.392 . S
C2341 H2353 0.929 . S
C2342 C2338 1.531 . S
C2342 H2354 0.960 . S
C2342 H2355 0.962 . S
C2342 H2356 0.960 . S
C2343 C2340 1.511 . S
C2343 H2357 0.961 . S
C2343 H2358 0.961 . S
C2343 H2359 0.961 . S
C2344 C2345 1.370 . S
C2344 C2346 1.363 . S
C2344 H2360 0.931 . S
C2345 C2344 1.370 . S
C2345 C2349 1.408 . S
C2346 C2344 1.363 . S
C2346 C2347 1.370 . S
C2346 C2350 1.524 . S
C2347 C2339 1.503 . S
C2347 C2346 1.370 . S
C2347 C2348 1.403 . S
C2348 C2347 1.403 . S
C2348 C2349 1.404 . S
C2348 C2351 1.539 . S
C2349 C2345 1.408 . S
C2349 C2348 1.404 . S
C2349 H2361 0.930 . S
C2350 C2346 1.524 . S
C2350 H2362 0.956 . S
C2350 H2363 0.961 . S
C2350 H2364 0.961 . S
C2351 C2348 1.539 . S
C2351 H2365 0.958 . S
C2351 H2366 0.961 . S
C2351 H2367 0.960 . S
H2352 C2336 0.931 . S
H2353 C2341 0.929 . S
H2354 C2342 0.960 . S
H2355 C2342 0.962 . S
H2356 C2342 0.960 . S
H2357 C2343 0.961 . S
H2358 C2343 0.961 . S
H2359 C2343 0.961 . S
H2360 C2344 0.931 . S
H2361 C2349 0.930 . S
H2362 C2350 0.956 . S
H2363 C2350 0.961 . S
H2364 C2350 0.961 . S
H2365 C2351 0.958 . S
H2366 C2351 0.961 . S
H2367 C2351 0.960 . S
C2368 C2369 1.391 . S
C2368 C2370 1.394 . S
C2368 H2384 0.931 . S
C2369 C2368 1.391 . S
C2369 C2373 1.376 . S
C2370 C2368 1.394 . S
C2370 C2371 1.369 . S
C2370 C2374 1.531 . S
C2371 C2370 1.369 . S
C2371 C2372 1.410 . S
C2371 C2379 1.503 . S
C2372 C2371 1.410 . S
C2372 C2373 1.392 . S
C2372 C2375 1.511 . S
C2373 C2369 1.376 . S
C2373 C2372 1.392 . S
C2373 H2385 0.929 . S
C2374 C2370 1.531 . S
C2374 H2386 0.960 . S
C2374 H2387 0.962 . S
C2374 H2388 0.960 . S
C2375 C2372 1.511 . S
C2375 H2389 0.961 . S
C2375 H2390 0.961 . S
C2375 H2391 0.961 . S
C2376 C2377 1.370 . S
C2376 C2378 1.363 . S
C2376 H2392 0.931 . S
C2377 C2376 1.370 . S
C2377 C2381 1.408 . S
C2378 C2376 1.363 . S
C2378 C2379 1.370 . S
C2378 C2382 1.524 . S
C2379 C2371 1.503 . S
C2379 C2378 1.370 . S
C2379 C2380 1.403 . S
C2380 C2379 1.403 . S
C2380 C2381 1.404 . S
C2380 C2383 1.539 . S
C2381 C2377 1.408 . S
C2381 C2380 1.404 . S
C2381 H2393 0.930 . S
C2382 C2378 1.524 . S
C2382 H2394 0.956 . S
C2382 H2395 0.961 . S
C2382 H2396 0.961 . S
C2383 C2380 1.539 . S
C2383 H2397 0.958 . S
C2383 H2398 0.961 . S
C2383 H2399 0.960 . S
H2384 C2368 0.931 . S
H2385 C2373 0.929 . S
H2386 C2374 0.960 . S
H2387 C2374 0.962 . S
H2388 C2374 0.960 . S
H2389 C2375 0.961 . S
H2390 C2375 0.961 . S
H2391 C2375 0.961 . S
H2392 C2376 0.931 . S
H2393 C2381 0.930 . S
H2394 C2382 0.956 . S
H2395 C2382 0.961 . S
H2396 C2382 0.961 . S
H2397 C2383 0.958 . S
H2398 C2383 0.961 . S
H2399 C2383 0.960 . S
C2400 C2401 1.391 . S
C2400 C2402 1.394 . S
C2400 H2416 0.931 . S
C2401 C2400 1.391 . S
C2401 C2405 1.376 . S
C2402 C2400 1.394 . S
C2402 C2403 1.369 . S
C2402 C2406 1.531 . S
C2403 C2402 1.369 . S
C2403 C2404 1.410 . S
C2403 C2411 1.503 . S
C2404 C2403 1.410 . S
C2404 C2405 1.392 . S
C2404 C2407 1.511 . S
C2405 C2401 1.376 . S
C2405 C2404 1.392 . S
C2405 H2417 0.929 . S
C2406 C2402 1.531 . S
C2406 H2418 0.960 . S
C2406 H2419 0.962 . S
C2406 H2420 0.960 . S
C2407 C2404 1.511 . S
C2407 H2421 0.961 . S
C2407 H2422 0.961 . S
C2407 H2423 0.961 . S
C2408 C2409 1.370 . S
C2408 C2410 1.363 . S
C2408 H2424 0.931 . S
C2409 C2408 1.370 . S
C2409 C2413 1.408 . S
C2410 C2408 1.363 . S
C2410 C2411 1.370 . S
C2410 C2414 1.524 . S
C2411 C2403 1.503 . S
C2411 C2410 1.370 . S
C2411 C2412 1.403 . S
C2412 C2411 1.403 . S
C2412 C2413 1.404 . S
C2412 C2415 1.539 . S
C2413 C2409 1.408 . S
C2413 C2412 1.404 . S
C2413 H2425 0.930 . S
C2414 C2410 1.524 . S
C2414 H2426 0.956 . S
C2414 H2427 0.961 . S
C2414 H2428 0.961 . S
C2415 C2412 1.539 . S
C2415 H2429 0.958 . S
C2415 H2430 0.961 . S
C2415 H2431 0.960 . S
H2416 C2400 0.931 . S
H2417 C2405 0.929 . S
H2418 C2406 0.960 . S
H2419 C2406 0.962 . S
H2420 C2406 0.960 . S
H2421 C2407 0.961 . S
H2422 C2407 0.961 . S
H2423 C2407 0.961 . S
H2424 C2408 0.931 . S
H2425 C2413 0.930 . S
H2426 C2414 0.956 . S
H2427 C2414 0.961 . S
H2428 C2414 0.961 . S
H2429 C2415 0.958 . S
H2430 C2415 0.961 . S
H2431 C2415 0.960 . S
C2432 C2433 1.391 . S
C2432 C2434 1.394 . S
C2432 H2448 0.931 . S
C2433 C2432 1.391 . S
C2433 C2437 1.376 . S
C2434 C2432 1.394 . S
C2434 C2435 1.369 . S
C2434 C2438 1.531 . S
C2435 C2434 1.369 . S
C2435 C2436 1.410 . S
C2435 C2443 1.503 . S
C2436 C2435 1.410 . S
C2436 C2437 1.392 . S
C2436 C2439 1.511 . S
C2437 C2433 1.376 . S
C2437 C2436 1.392 . S
C2437 H2449 0.929 . S
C2438 C2434 1.531 . S
C2438 H2450 0.960 . S
C2438 H2451 0.962 . S
C2438 H2452 0.960 . S
C2439 C2436 1.511 . S
C2439 H2453 0.961 . S
C2439 H2454 0.961 . S
C2439 H2455 0.961 . S
C2440 C2441 1.370 . S
C2440 C2442 1.363 . S
C2440 H2456 0.931 . S
C2441 C2440 1.370 . S
C2441 C2445 1.408 . S
C2442 C2440 1.363 . S
C2442 C2443 1.370 . S
C2442 C2446 1.524 . S
C2443 C2435 1.503 . S
C2443 C2442 1.370 . S
C2443 C2444 1.403 . S
C2444 C2443 1.403 . S
C2444 C2445 1.404 . S
C2444 C2447 1.539 . S
C2445 C2441 1.408 . S
C2445 C2444 1.404 . S
C2445 H2457 0.930 . S
C2446 C2442 1.524 . S
C2446 H2458 0.956 . S
C2446 H2459 0.961 . S
C2446 H2460 0.961 . S
C2447 C2444 1.539 . S
C2447 H2461 0.958 . S
C2447 H2462 0.961 . S
C2447 H2463 0.960 . S
H2448 C2432 0.931 . S
H2449 C2437 0.929 . S
H2450 C2438 0.960 . S
H2451 C2438 0.962 . S
H2452 C2438 0.960 . S
H2453 C2439 0.961 . S
H2454 C2439 0.961 . S
H2455 C2439 0.961 . S
H2456 C2440 0.931 . S
H2457 C2445 0.930 . S
H2458 C2446 0.956 . S
H2459 C2446 0.961 . S
H2460 C2446 0.961 . S
H2461 C2447 0.958 . S
H2462 C2447 0.961 . S
H2463 C2447 0.960 . S
C2464 C2465 1.391 . S
C2464 C2466 1.394 . S
C2464 H2480 0.931 . S
C2465 C2464 1.391 . S
C2465 C2469 1.376 . S
C2466 C2464 1.394 . S
C2466 C2467 1.369 . S
C2466 C2470 1.531 . S
C2467 C2466 1.369 . S
C2467 C2468 1.410 . S
C2467 C2475 1.503 . S
C2468 C2467 1.410 . S
C2468 C2469 1.392 . S
C2468 C2471 1.511 . S
C2469 C2465 1.376 . S
C2469 C2468 1.392 . S
C2469 H2481 0.929 . S
C2470 C2466 1.531 . S
C2470 H2482 0.960 . S
C2470 H2483 0.962 . S
C2470 H2484 0.960 . S
C2471 C2468 1.511 . S
C2471 H2485 0.961 . S
C2471 H2486 0.961 . S
C2471 H2487 0.961 . S
C2472 C2473 1.370 . S
C2472 C2474 1.363 . S
C2472 H2488 0.931 . S
C2473 C2472 1.370 . S
C2473 C2477 1.408 . S
C2474 C2472 1.363 . S
C2474 C2475 1.370 . S
C2474 C2478 1.524 . S
C2475 C2467 1.503 . S
C2475 C2474 1.370 . S
C2475 C2476 1.403 . S
C2476 C2475 1.403 . S
C2476 C2477 1.404 . S
C2476 C2479 1.539 . S
C2477 C2473 1.408 . S
C2477 C2476 1.404 . S
C2477 H2489 0.930 . S
C2478 C2474 1.524 . S
C2478 H2490 0.956 . S
C2478 H2491 0.961 . S
C2478 H2492 0.961 . S
C2479 C2476 1.539 . S
C2479 H2493 0.958 . S
C2479 H2494 0.961 . S
C2479 H2495 0.960 . S
H2480 C2464 0.931 . S
H2481 C2469 0.929 . S
H2482 C2470 0.960 . S
H2483 C2470 0.962 . S
H2484 C2470 0.960 . S
H2485 C2471 0.961 . S
H2486 C2471 0.961 . S
H2487 C2471 0.961 . S
H2488 C2472 0.931 . S
H2489 C2477 0.930 . S
H2490 C2478 0.956 . S
H2491 C2478 0.961 . S
H2492 C2478 0.961 . S
H2493 C2479 0.958 . S
H2494 C2479 0.961 . S
H2495 C2479 0.960 . S
C2496 C2497 1.391 . S
C2496 C2498 1.394 . S
C2496 H2512 0.931 . S
C2497 C2496 1.391 . S
C2497 C2501 1.376 . S
C2498 C2496 1.394 . S
C2498 C2499 1.369 . S
C2498 C2502 1.531 . S
C2499 C2498 1.369 . S
C2499 C2500 1.410 . S
C2499 C2507 1.503 . S
C2500 C2499 1.410 . S
C2500 C2501 1.392 . S
C2500 C2503 1.511 . S
C2501 C2497 1.376 . S
C2501 C2500 1.392 . S
C2501 H2513 0.929 . S
C2502 C2498 1.531 . S
C2502 H2514 0.960 . S
C2502 H2515 0.962 . S
C2502 H2516 0.960 . S
C2503 C2500 1.511 . S
C2503 H2517 0.961 . S
C2503 H2518 0.961 . S
C2503 H2519 0.961 . S
C2504 C2505 1.370 . S
C2504 C2506 1.363 . S
C2504 H2520 0.931 . S
C2505 C2504 1.370 . S
C2505 C2509 1.408 . S
C2506 C2504 1.363 . S
C2506 C2507 1.370 . S
C2506 C2510 1.524 . S
C2507 C2499 1.503 . S
C2507 C2506 1.370 . S
C2507 C2508 1.403 . S
C2508 C2507 1.403 . S
C2508 C2509 1.404 . S
C2508 C2511 1.539 . S
C2509 C2505 1.408 . S
C2509 C2508 1.404 . S
C2509 H2521 0.930 . S
C2510 C2506 1.524 . S
C2510 H2522 0.956 . S
C2510 H2523 0.961 . S
C2510 H2524 0.961 . S
C2511 C2508 1.539 . S
C2511 H2525 0.958 . S
C2511 H2526 0.961 . S
C2511 H2527 0.960 . S
H2512 C2496 0.931 . S
H2513 C2501 0.929 . S
H2514 C2502 0.960 . S
H2515 C2502 0.962 . S
H2516 C2502 0.960 . S
H2517 C2503 0.961 . S
H2518 C2503 0.961 . S
H2519 C2503 0.961 . S
H2520 C2504 0.931 . S
H2521 C2509 0.930 . S
H2522 C2510 0.956 . S
H2523 C2510 0.961 . S
H2524 C2510 0.961 . S
H2525 C2511 0.958 . S
H2526 C2511 0.961 . S
H2527 C2511 0.960 . S
C2528 C2529 1.391 . S
C2528 C2530 1.394 . S
C2528 H2544 0.931 . S
C2529 C2528 1.391 . S
C2529 C2533 1.376 . S
C2530 C2528 1.394 . S
C2530 C2531 1.369 . S
C2530 C2534 1.531 . S
C2531 C2530 1.369 . S
C2531 C2532 1.410 . S
C2531 C2539 1.503 . S
C2532 C2531 1.410 . S
C2532 C2533 1.392 . S
C2532 C2535 1.511 . S
C2533 C2529 1.376 . S
C2533 C2532 1.392 . S
C2533 H2545 0.929 . S
C2534 C2530 1.531 . S
C2534 H2546 0.960 . S
C2534 H2547 0.962 . S
C2534 H2548 0.960 . S
C2535 C2532 1.511 . S
C2535 H2549 0.961 . S
C2535 H2550 0.961 . S
C2535 H2551 0.961 . S
C2536 C2537 1.370 . S
C2536 C2538 1.363 . S
C2536 H2552 0.931 . S
C2537 C2536 1.370 . S
C2537 C2541 1.408 . S
C2538 C2536 1.363 . S
C2538 C2539 1.370 . S
C2538 C2542 1.524 . S
C2539 C2531 1.503 . S
C2539 C2538 1.370 . S
C2539 C2540 1.403 . S
C2540 C2539 1.403 . S
C2540 C2541 1.404 . S
C2540 C2543 1.539 . S
C2541 C2537 1.408 . S
C2541 C2540 1.404 . S
C2541 H2553 0.930 . S
C2542 C2538 1.524 . S
C2542 H2554 0.956 . S
C2542 H2555 0.961 . S
C2542 H2556 0.961 . S
C2543 C2540 1.539 . S
C2543 H2557 0.958 . S
C2543 H2558 0.961 . S
C2543 H2559 0.960 . S
H2544 C2528 0.931 . S
H2545 C2533 0.929 . S
H2546 C2534 0.960 . S
H2547 C2534 0.962 . S
H2548 C2534 0.960 . S
H2549 C2535 0.961 . S
H2550 C2535 0.961 . S
H2551 C2535 0.961 . S
H2552 C2536 0.931 . S
H2553 C2541 0.930 . S
H2554 C2542 0.956 . S
H2555 C2542 0.961 . S
H2556 C2542 0.961 . S
H2557 C2543 0.958 . S
H2558 C2543 0.961 . S
H2559 C2543 0.960 . S
C2560 C2561 1.391 . S
C2560 C2562 1.394 . S
C2560 H2576 0.931 . S
C2561 C2560 1.391 . S
C2561 C2565 1.376 . S
C2562 C2560 1.394 . S
C2562 C2563 1.369 . S
C2562 C2566 1.531 . S
C2563 C2562 1.369 . S
C2563 C2564 1.410 . S
C2563 C2571 1.503 . S
C2564 C2563 1.410 . S
C2564 C2565 1.392 . S
C2564 C2567 1.511 . S
C2565 C2561 1.376 . S
C2565 C2564 1.392 . S
C2565 H2577 0.929 . S
C2566 C2562 1.531 . S
C2566 H2578 0.960 . S
C2566 H2579 0.962 . S
C2566 H2580 0.960 . S
C2567 C2564 1.511 . S
C2567 H2581 0.961 . S
C2567 H2582 0.961 . S
C2567 H2583 0.961 . S
C2568 C2569 1.370 . S
C2568 C2570 1.363 . S
C2568 H2584 0.931 . S
C2569 C2568 1.370 . S
C2569 C2573 1.408 . S
C2570 C2568 1.363 . S
C2570 C2571 1.370 . S
C2570 C2574 1.524 . S
C2571 C2563 1.503 . S
C2571 C2570 1.370 . S
C2571 C2572 1.403 . S
C2572 C2571 1.403 . S
C2572 C2573 1.404 . S
C2572 C2575 1.539 . S
C2573 C2569 1.408 . S
C2573 C2572 1.404 . S
C2573 H2585 0.930 . S
C2574 C2570 1.524 . S
C2574 H2586 0.956 . S
C2574 H2587 0.961 . S
C2574 H2588 0.961 . S
C2575 C2572 1.539 . S
C2575 H2589 0.958 . S
C2575 H2590 0.961 . S
C2575 H2591 0.960 . S
H2576 C2560 0.931 . S
H2577 C2565 0.929 . S
H2578 C2566 0.960 . S
H2579 C2566 0.962 . S
H2580 C2566 0.960 . S
H2581 C2567 0.961 . S
H2582 C2567 0.961 . S
H2583 C2567 0.961 . S
H2584 C2568 0.931 . S
H2585 C2573 0.930 . S
H2586 C2574 0.956 . S
H2587 C2574 0.961 . S
H2588 C2574 0.961 . S
H2589 C2575 0.958 . S
H2590 C2575 0.961 . S
H2591 C2575 0.960 . S
C2592 C2593 1.391 . S
C2592 C2594 1.394 . S
C2592 H2608 0.931 . S
C2593 C2592 1.391 . S
C2593 C2597 1.376 . S
C2594 C2592 1.394 . S
C2594 C2595 1.369 . S
C2594 C2598 1.531 . S
C2595 C2594 1.369 . S
C2595 C2596 1.410 . S
C2595 C2603 1.503 . S
C2596 C2595 1.410 . S
C2596 C2597 1.392 . S
C2596 C2599 1.511 . S
C2597 C2593 1.376 . S
C2597 C2596 1.392 . S
C2597 H2609 0.929 . S
C2598 C2594 1.531 . S
C2598 H2610 0.960 . S
C2598 H2611 0.962 . S
C2598 H2612 0.960 . S
C2599 C2596 1.511 . S
C2599 H2613 0.961 . S
C2599 H2614 0.961 . S
C2599 H2615 0.961 . S
C2600 C2601 1.370 . S
C2600 C2602 1.363 . S
C2600 H2616 0.931 . S
C2601 C2600 1.370 . S
C2601 C2605 1.408 . S
C2602 C2600 1.363 . S
C2602 C2603 1.370 . S
C2602 C2606 1.524 . S
C2603 C2595 1.503 . S
C2603 C2602 1.370 . S
C2603 C2604 1.403 . S
C2604 C2603 1.403 . S
C2604 C2605 1.404 . S
C2604 C2607 1.539 . S
C2605 C2601 1.408 . S
C2605 C2604 1.404 . S
C2605 H2617 0.930 . S
C2606 C2602 1.524 . S
C2606 H2618 0.956 . S
C2606 H2619 0.961 . S
C2606 H2620 0.961 . S
C2607 C2604 1.539 . S
C2607 H2621 0.958 . S
C2607 H2622 0.961 . S
C2607 H2623 0.960 . S
H2608 C2592 0.931 . S
H2609 C2597 0.929 . S
H2610 C2598 0.960 . S
H2611 C2598 0.962 . S
H2612 C2598 0.960 . S
H2613 C2599 0.961 . S
H2614 C2599 0.961 . S
H2615 C2599 0.961 . S
H2616 C2600 0.931 . S
H2617 C2605 0.930 . S
H2618 C2606 0.956 . S
H2619 C2606 0.961 . S
H2620 C2606 0.961 . S
H2621 C2607 0.958 . S
H2622 C2607 0.961 . S
H2623 C2607 0.960 . S
C2624 C2625 1.391 . S
C2624 C2626 1.394 . S
C2624 H2640 0.931 . S
C2625 C2624 1.391 . S
C2625 C2629 1.376 . S
C2626 C2624 1.394 . S
C2626 C2627 1.369 . S
C2626 C2630 1.531 . S
C2627 C2626 1.369 . S
C2627 C2628 1.410 . S
C2627 C2635 1.503 . S
C2628 C2627 1.410 . S
C2628 C2629 1.392 . S
C2628 C2631 1.511 . S
C2629 C2625 1.376 . S
C2629 C2628 1.392 . S
C2629 H2641 0.929 . S
C2630 C2626 1.531 . S
C2630 H2642 0.960 . S
C2630 H2643 0.962 . S
C2630 H2644 0.960 . S
C2631 C2628 1.511 . S
C2631 H2645 0.961 . S
C2631 H2646 0.961 . S
C2631 H2647 0.961 . S
C2632 C2633 1.370 . S
C2632 C2634 1.363 . S
C2632 H2648 0.931 . S
C2633 C2632 1.370 . S
C2633 C2637 1.408 . S
C2634 C2632 1.363 . S
C2634 C2635 1.370 . S
C2634 C2638 1.524 . S
C2635 C2627 1.503 . S
C2635 C2634 1.370 . S
C2635 C2636 1.403 . S
C2636 C2635 1.403 . S
C2636 C2637 1.404 . S
C2636 C2639 1.539 . S
C2637 C2633 1.408 . S
C2637 C2636 1.404 . S
C2637 H2649 0.930 . S
C2638 C2634 1.524 . S
C2638 H2650 0.956 . S
C2638 H2651 0.961 . S
C2638 H2652 0.961 . S
C2639 C2636 1.539 . S
C2639 H2653 0.958 . S
C2639 H2654 0.961 . S
C2639 H2655 0.960 . S
H2640 C2624 0.931 . S
H2641 C2629 0.929 . S
H2642 C2630 0.960 . S
H2643 C2630 0.962 . S
H2644 C2630 0.960 . S
H2645 C2631 0.961 . S
H2646 C2631 0.961 . S
H2647 C2631 0.961 . S
H2648 C2632 0.931 . S
H2649 C2637 0.930 . S
H2650 C2638 0.956 . S
H2651 C2638 0.961 . S
H2652 C2638 0.961 . S
H2653 C2639 0.958 . S
H2654 C2639 0.961 . S
H2655 C2639 0.960 . S
C2656 C2657 1.391 . S
C2656 C2658 1.394 . S
C2656 H2672 0.931 . S
C2657 C2656 1.391 . S
C2657 C2661 1.376 . S
C2658 C2656 1.394 . S
C2658 C2659 1.369 . S
C2658 C2662 1.531 . S
C2659 C2658 1.369 . S
C2659 C2660 1.410 . S
C2659 C2667 1.503 . S
C2660 C2659 1.410 . S
C2660 C2661 1.392 . S
C2660 C2663 1.511 . S
C2661 C2657 1.376 . S
C2661 C2660 1.392 . S
C2661 H2673 0.929 . S
C2662 C2658 1.531 . S
C2662 H2674 0.960 . S
C2662 H2675 0.962 . S
C2662 H2676 0.960 . S
C2663 C2660 1.511 . S
C2663 H2677 0.961 . S
C2663 H2678 0.961 . S
C2663 H2679 0.961 . S
C2664 C2665 1.370 . S
C2664 C2666 1.363 . S
C2664 H2680 0.931 . S
C2665 C2664 1.370 . S
C2665 C2669 1.408 . S
C2666 C2664 1.363 . S
C2666 C2667 1.370 . S
C2666 C2670 1.524 . S
C2667 C2659 1.503 . S
C2667 C2666 1.370 . S
C2667 C2668 1.403 . S
C2668 C2667 1.403 . S
C2668 C2669 1.404 . S
C2668 C2671 1.539 . S
C2669 C2665 1.408 . S
C2669 C2668 1.404 . S
C2669 H2681 0.930 . S
C2670 C2666 1.524 . S
C2670 H2682 0.956 . S
C2670 H2683 0.961 . S
C2670 H2684 0.961 . S
C2671 C2668 1.539 . S
C2671 H2685 0.958 . S
C2671 H2686 0.961 . S
C2671 H2687 0.960 . S
H2672 C2656 0.931 . S
H2673 C2661 0.929 . S
H2674 C2662 0.960 . S
H2675 C2662 0.962 . S
H2676 C2662 0.960 . S
H2677 C2663 0.961 . S
H2678 C2663 0.961 . S
H2679 C2663 0.961 . S
H2680 C2664 0.931 . S
H2681 C2669 0.930 . S
H2682 C2670 0.956 . S
H2683 C2670 0.961 . S
H2684 C2670 0.961 . S
H2685 C2671 0.958 . S
H2686 C2671 0.961 . S
H2687 C2671 0.960 . S
C2688 C2689 1.391 . S
C2688 C2690 1.394 . S
C2688 H2704 0.931 . S
C2689 C2688 1.391 . S
C2689 C2693 1.376 . S
C2690 C2688 1.394 . S
C2690 C2691 1.369 . S
C2690 C2694 1.531 . S
C2691 C2690 1.369 . S
C2691 C2692 1.410 . S
C2691 C2699 1.503 . S
C2692 C2691 1.410 . S
C2692 C2693 1.392 . S
C2692 C2695 1.511 . S
C2693 C2689 1.376 . S
C2693 C2692 1.392 . S
C2693 H2705 0.929 . S
C2694 C2690 1.531 . S
C2694 H2706 0.960 . S
C2694 H2707 0.962 . S
C2694 H2708 0.960 . S
C2695 C2692 1.511 . S
C2695 H2709 0.961 . S
C2695 H2710 0.961 . S
C2695 H2711 0.961 . S
C2696 C2697 1.370 . S
C2696 C2698 1.363 . S
C2696 H2712 0.931 . S
C2697 C2696 1.370 . S
C2697 C2701 1.408 . S
C2698 C2696 1.363 . S
C2698 C2699 1.370 . S
C2698 C2702 1.524 . S
C2699 C2691 1.503 . S
C2699 C2698 1.370 . S
C2699 C2700 1.403 . S
C2700 C2699 1.403 . S
C2700 C2701 1.404 . S
C2700 C2703 1.539 . S
C2701 C2697 1.408 . S
C2701 C2700 1.404 . S
C2701 H2713 0.930 . S
C2702 C2698 1.524 . S
C2702 H2714 0.956 . S
C2702 H2715 0.961 . S
C2702 H2716 0.961 . S
C2703 C2700 1.539 . S
C2703 H2717 0.958 . S
C2703 H2718 0.961 . S
C2703 H2719 0.960 . S
H2704 C2688 0.931 . S
H2705 C2693 0.929 . S
H2706 C2694 0.960 . S
H2707 C2694 0.962 . S
H2708 C2694 0.960 . S
H2709 C2695 0.961 . S
H2710 C2695 0.961 . S
H2711 C2695 0.961 . S
H2712 C2696 0.931 . S
H2713 C2701 0.930 . S
H2714 C2702 0.956 . S
H2715 C2702 0.961 . S
H2716 C2702 0.961 . S
H2717 C2703 0.958 . S
H2718 C2703 0.961 . S
H2719 C2703 0.960 . S
C2720 C2721 1.391 . S
C2720 C2722 1.394 . S
C2720 H2736 0.931 . S
C2721 C2720 1.391 . S
C2721 C2725 1.376 . S
C2722 C2720 1.394 . S
C2722 C2723 1.369 . S
C2722 C2726 1.531 . S
C2723 C2722 1.369 . S
C2723 C2724 1.410 . S
C2723 C2731 1.503 . S
C2724 C2723 1.410 . S
C2724 C2725 1.392 . S
C2724 C2727 1.511 . S
C2725 C2721 1.376 . S
C2725 C2724 1.392 . S
C2725 H2737 0.929 . S
C2726 C2722 1.531 . S
C2726 H2738 0.960 . S
C2726 H2739 0.962 . S
C2726 H2740 0.960 . S
C2727 C2724 1.511 . S
C2727 H2741 0.961 . S
C2727 H2742 0.961 . S
C2727 H2743 0.961 . S
C2728 C2729 1.370 . S
C2728 C2730 1.363 . S
C2728 H2744 0.931 . S
C2729 C2728 1.370 . S
C2729 C2733 1.408 . S
C2730 C2728 1.363 . S
C2730 C2731 1.370 . S
C2730 C2734 1.524 . S
C2731 C2723 1.503 . S
C2731 C2730 1.370 . S
C2731 C2732 1.403 . S
C2732 C2731 1.403 . S
C2732 C2733 1.404 . S
C2732 C2735 1.539 . S
C2733 C2729 1.408 . S
C2733 C2732 1.404 . S
C2733 H2745 0.930 . S
C2734 C2730 1.524 . S
C2734 H2746 0.956 . S
C2734 H2747 0.961 . S
C2734 H2748 0.961 . S
C2735 C2732 1.539 . S
C2735 H2749 0.958 . S
C2735 H2750 0.961 . S
C2735 H2751 0.960 . S
H2736 C2720 0.931 . S
H2737 C2725 0.929 . S
H2738 C2726 0.960 . S
H2739 C2726 0.962 . S
H2740 C2726 0.960 . S
H2741 C2727 0.961 . S
H2742 C2727 0.961 . S
H2743 C2727 0.961 . S
H2744 C2728 0.931 . S
H2745 C2733 0.930 . S
H2746 C2734 0.956 . S
H2747 C2734 0.961 . S
H2748 C2734 0.961 . S
H2749 C2735 0.958 . S
H2750 C2735 0.961 . S
H2751 C2735 0.960 . S
C2752 C2753 1.391 . S
C2752 C2754 1.394 . S
C2752 H2768 0.931 . S
C2753 C2752 1.391 . S
C2753 C2757 1.376 . S
C2754 C2752 1.394 . S
C2754 C2755 1.369 . S
C2754 C2758 1.531 . S
C2755 C2754 1.369 . S
C2755 C2756 1.410 . S
C2755 C2763 1.503 . S
C2756 C2755 1.410 . S
C2756 C2757 1.392 . S
C2756 C2759 1.511 . S
C2757 C2753 1.376 . S
C2757 C2756 1.392 . S
C2757 H2769 0.929 . S
C2758 C2754 1.531 . S
C2758 H2770 0.960 . S
C2758 H2771 0.962 . S
C2758 H2772 0.960 . S
C2759 C2756 1.511 . S
C2759 H2773 0.961 . S
C2759 H2774 0.961 . S
C2759 H2775 0.961 . S
C2760 C2761 1.370 . S
C2760 C2762 1.363 . S
C2760 H2776 0.931 . S
C2761 C2760 1.370 . S
C2761 C2765 1.408 . S
C2762 C2760 1.363 . S
C2762 C2763 1.370 . S
C2762 C2766 1.524 . S
C2763 C2755 1.503 . S
C2763 C2762 1.370 . S
C2763 C2764 1.403 . S
C2764 C2763 1.403 . S
C2764 C2765 1.404 . S
C2764 C2767 1.539 . S
C2765 C2761 1.408 . S
C2765 C2764 1.404 . S
C2765 H2777 0.930 . S
C2766 C2762 1.524 . S
C2766 H2778 0.956 . S
C2766 H2779 0.961 . S
C2766 H2780 0.961 . S
C2767 C2764 1.539 . S
C2767 H2781 0.958 . S
C2767 H2782 0.961 . S
C2767 H2783 0.960 . S
H2768 C2752 0.931 . S
H2769 C2757 0.929 . S
H2770 C2758 0.960 . S
H2771 C2758 0.962 . S
H2772 C2758 0.960 . S
H2773 C2759 0.961 . S
H2774 C2759 0.961 . S
H2775 C2759 0.961 . S
H2776 C2760 0.931 . S
H2777 C2765 0.930 . S
H2778 C2766 0.956 . S
H2779 C2766 0.961 . S
H2780 C2766 0.961 . S
H2781 C2767 0.958 . S
H2782 C2767 0.961 . S
H2783 C2767 0.960 . S
C2784 C2785 1.391 . S
C2784 C2786 1.394 . S
C2784 H2800 0.931 . S
C2785 C2784 1.391 . S
C2785 C2789 1.376 . S
C2786 C2784 1.394 . S
C2786 C2787 1.369 . S
C2786 C2790 1.531 . S
C2787 C2786 1.369 . S
C2787 C2788 1.410 . S
C2787 C2795 1.503 . S
C2788 C2787 1.410 . S
C2788 C2789 1.392 . S
C2788 C2791 1.511 . S
C2789 C2785 1.376 . S
C2789 C2788 1.392 . S
C2789 H2801 0.929 . S
C2790 C2786 1.531 . S
C2790 H2802 0.960 . S
C2790 H2803 0.962 . S
C2790 H2804 0.960 . S
C2791 C2788 1.511 . S
C2791 H2805 0.961 . S
C2791 H2806 0.961 . S
C2791 H2807 0.961 . S
C2792 C2793 1.370 . S
C2792 C2794 1.363 . S
C2792 H2808 0.931 . S
C2793 C2792 1.370 . S
C2793 C2797 1.408 . S
C2794 C2792 1.363 . S
C2794 C2795 1.370 . S
C2794 C2798 1.524 . S
C2795 C2787 1.503 . S
C2795 C2794 1.370 . S
C2795 C2796 1.403 . S
C2796 C2795 1.403 . S
C2796 C2797 1.404 . S
C2796 C2799 1.539 . S
C2797 C2793 1.408 . S
C2797 C2796 1.404 . S
C2797 H2809 0.930 . S
C2798 C2794 1.524 . S
C2798 H2810 0.956 . S
C2798 H2811 0.961 . S
C2798 H2812 0.961 . S
C2799 C2796 1.539 . S
C2799 H2813 0.958 . S
C2799 H2814 0.961 . S
C2799 H2815 0.960 . S
H2800 C2784 0.931 . S
H2801 C2789 0.929 . S
H2802 C2790 0.960 . S
H2803 C2790 0.962 . S
H2804 C2790 0.960 . S
H2805 C2791 0.961 . S
H2806 C2791 0.961 . S
H2807 C2791 0.961 . S
H2808 C2792 0.931 . S
H2809 C2797 0.930 . S
H2810 C2798 0.956 . S
H2811 C2798 0.961 . S
H2812 C2798 0.961 . S
H2813 C2799 0.958 . S
H2814 C2799 0.961 . S
H2815 C2799 0.960 . S
C2816 C2817 1.391 . S
C2816 C2818 1.394 . S
C2816 H2832 0.931 . S
C2817 C2816 1.391 . S
C2817 C2821 1.376 . S
C2818 C2816 1.394 . S
C2818 C2819 1.369 . S
C2818 C2822 1.531 . S
C2819 C2818 1.369 . S
C2819 C2820 1.410 . S
C2819 C2827 1.503 . S
C2820 C2819 1.410 . S
C2820 C2821 1.392 . S
C2820 C2823 1.511 . S
C2821 C2817 1.376 . S
C2821 C2820 1.392 . S
C2821 H2833 0.929 . S
C2822 C2818 1.531 . S
C2822 H2834 0.960 . S
C2822 H2835 0.962 . S
C2822 H2836 0.960 . S
C2823 C2820 1.511 . S
C2823 H2837 0.961 . S
C2823 H2838 0.961 . S
C2823 H2839 0.961 . S
C2824 C2825 1.370 . S
C2824 C2826 1.363 . S
C2824 H2840 0.931 . S
C2825 C2824 1.370 . S
C2825 C2829 1.408 . S
C2826 C2824 1.363 . S
C2826 C2827 1.370 . S
C2826 C2830 1.524 . S
C2827 C2819 1.503 . S
C2827 C2826 1.370 . S
C2827 C2828 1.403 . S
C2828 C2827 1.403 . S
C2828 C2829 1.404 . S
C2828 C2831 1.539 . S
C2829 C2825 1.408 . S
C2829 C2828 1.404 . S
C2829 H2841 0.930 . S
C2830 C2826 1.524 . S
C2830 H2842 0.956 . S
C2830 H2843 0.961 . S
C2830 H2844 0.961 . S
C2831 C2828 1.539 . S
C2831 H2845 0.958 . S
C2831 H2846 0.961 . S
C2831 H2847 0.960 . S
H2832 C2816 0.931 . S
H2833 C2821 0.929 . S
H2834 C2822 0.960 . S
H2835 C2822 0.962 . S
H2836 C2822 0.960 . S
H2837 C2823 0.961 . S
H2838 C2823 0.961 . S
H2839 C2823 0.961 . S
H2840 C2824 0.931 . S
H2841 C2829 0.930 . S
H2842 C2830 0.956 . S
H2843 C2830 0.961 . S
H2844 C2830 0.961 . S
H2845 C2831 0.958 . S
H2846 C2831 0.961 . S
H2847 C2831 0.960 . S
C2848 C2849 1.391 . S
C2848 C2850 1.394 . S
C2848 H2864 0.931 . S
C2849 C2848 1.391 . S
C2849 C2853 1.376 . S
C2850 C2848 1.394 . S
C2850 C2851 1.369 . S
C2850 C2854 1.531 . S
C2851 C2850 1.369 . S
C2851 C2852 1.410 . S
C2851 C2859 1.503 . S
C2852 C2851 1.410 . S
C2852 C2853 1.392 . S
C2852 C2855 1.511 . S
C2853 C2849 1.376 . S
C2853 C2852 1.392 . S
C2853 H2865 0.929 . S
C2854 C2850 1.531 . S
C2854 H2866 0.960 . S
C2854 H2867 0.962 . S
C2854 H2868 0.960 . S
C2855 C2852 1.511 . S
C2855 H2869 0.961 . S
C2855 H2870 0.961 . S
C2855 H2871 0.961 . S
C2856 C2857 1.370 . S
C2856 C2858 1.363 . S
C2856 H2872 0.931 . S
C2857 C2856 1.370 . S
C2857 C2861 1.408 . S
C2858 C2856 1.363 . S
C2858 C2859 1.370 . S
C2858 C2862 1.524 . S
C2859 C2851 1.503 . S
C2859 C2858 1.370 . S
C2859 C2860 1.403 . S
C2860 C2859 1.403 . S
C2860 C2861 1.404 . S
C2860 C2863 1.539 . S
C2861 C2857 1.408 . S
C2861 C2860 1.404 . S
C2861 H2873 0.930 . S
C2862 C2858 1.524 . S
C2862 H2874 0.956 . S
C2862 H2875 0.961 . S
C2862 H2876 0.961 . S
C2863 C2860 1.539 . S
C2863 H2877 0.958 . S
C2863 H2878 0.961 . S
C2863 H2879 0.960 . S
H2864 C2848 0.931 . S
H2865 C2853 0.929 . S
H2866 C2854 0.960 . S
H2867 C2854 0.962 . S
H2868 C2854 0.960 . S
H2869 C2855 0.961 . S
H2870 C2855 0.961 . S
H2871 C2855 0.961 . S
H2872 C2856 0.931 . S
H2873 C2861 0.930 . S
H2874 C2862 0.956 . S
H2875 C2862 0.961 . S
H2876 C2862 0.961 . S
H2877 C2863 0.958 . S
H2878 C2863 0.961 . S
H2879 C2863 0.960 . S
C2880 C2881 1.391 . S
C2880 C2882 1.394 . S
C2880 H2896 0.931 . S
C2881 C2880 1.391 . S
C2881 C2885 1.376 . S
C2882 C2880 1.394 . S
C2882 C2883 1.369 . S
C2882 C2886 1.531 . S
C2883 C2882 1.369 . S
C2883 C2884 1.410 . S
C2883 C2891 1.503 . S
C2884 C2883 1.410 . S
C2884 C2885 1.392 . S
C2884 C2887 1.511 . S
C2885 C2881 1.376 . S
C2885 C2884 1.392 . S
C2885 H2897 0.929 . S
C2886 C2882 1.531 . S
C2886 H2898 0.960 . S
C2886 H2899 0.962 . S
C2886 H2900 0.960 . S
C2887 C2884 1.511 . S
C2887 H2901 0.961 . S
C2887 H2902 0.961 . S
C2887 H2903 0.961 . S
C2888 C2889 1.370 . S
C2888 C2890 1.363 . S
C2888 H2904 0.931 . S
C2889 C2888 1.370 . S
C2889 C2893 1.408 . S
C2890 C2888 1.363 . S
C2890 C2891 1.370 . S
C2890 C2894 1.524 . S
C2891 C2883 1.503 . S
C2891 C2890 1.370 . S
C2891 C2892 1.403 . S
C2892 C2891 1.403 . S
C2892 C2893 1.404 . S
C2892 C2895 1.539 . S
C2893 C2889 1.408 . S
C2893 C2892 1.404 . S
C2893 H2905 0.930 . S
C2894 C2890 1.524 . S
C2894 H2906 0.956 . S
C2894 H2907 0.961 . S
C2894 H2908 0.961 . S
C2895 C2892 1.539 . S
C2895 H2909 0.958 . S
C2895 H2910 0.961 . S
C2895 H2911 0.960 . S
H2896 C2880 0.931 . S
H2897 C2885 0.929 . S
H2898 C2886 0.960 . S
H2899 C2886 0.962 . S
H2900 C2886 0.960 . S
H2901 C2887 0.961 . S
H2902 C2887 0.961 . S
H2903 C2887 0.961 . S
H2904 C2888 0.931 . S
H2905 C2893 0.930 . S
H2906 C2894 0.956 . S
H2907 C2894 0.961 . S
H2908 C2894 0.961 . S
H2909 C2895 0.958 . S
H2910 C2895 0.961 . S
H2911 C2895 0.960 . S
C2912 C2913 1.391 . S
C2912 C2914 1.394 . S
C2912 H2928 0.931 . S
C2913 C2912 1.391 . S
C2913 C2917 1.376 . S
C2914 C2912 1.394 . S
C2914 C2915 1.369 . S
C2914 C2918 1.531 . S
C2915 C2914 1.369 . S
C2915 C2916 1.410 . S
C2915 C2923 1.503 . S
C2916 C2915 1.410 . S
C2916 C2917 1.392 . S
C2916 C2919 1.511 . S
C2917 C2913 1.376 . S
C2917 C2916 1.392 . S
C2917 H2929 0.929 . S
C2918 C2914 1.531 . S
C2918 H2930 0.960 . S
C2918 H2931 0.962 . S
C2918 H2932 0.960 . S
C2919 C2916 1.511 . S
C2919 H2933 0.961 . S
C2919 H2934 0.961 . S
C2919 H2935 0.961 . S
C2920 C2921 1.370 . S
C2920 C2922 1.363 . S
C2920 H2936 0.931 . S
C2921 C2920 1.370 . S
C2921 C2925 1.408 . S
C2922 C2920 1.363 . S
C2922 C2923 1.370 . S
C2922 C2926 1.524 . S
C2923 C2915 1.503 . S
C2923 C2922 1.370 . S
C2923 C2924 1.403 . S
C2924 C2923 1.403 . S
C2924 C2925 1.404 . S
C2924 C2927 1.539 . S
C2925 C2921 1.408 . S
C2925 C2924 1.404 . S
C2925 H2937 0.930 . S
C2926 C2922 1.524 . S
C2926 H2938 0.956 . S
C2926 H2939 0.961 . S
C2926 H2940 0.961 . S
C2927 C2924 1.539 . S
C2927 H2941 0.958 . S
C2927 H2942 0.961 . S
C2927 H2943 0.960 . S
H2928 C2912 0.931 . S
H2929 C2917 0.929 . S
H2930 C2918 0.960 . S
H2931 C2918 0.962 . S
H2932 C2918 0.960 . S
H2933 C2919 0.961 . S
H2934 C2919 0.961 . S
H2935 C2919 0.961 . S
H2936 C2920 0.931 . S
H2937 C2925 0.930 . S
H2938 C2926 0.956 . S
H2939 C2926 0.961 . S
H2940 C2926 0.961 . S
H2941 C2927 0.958 . S
H2942 C2927 0.961 . S
H2943 C2927 0.960 . S
C2944 C2945 1.391 . S
C2944 C2946 1.394 . S
C2944 H2960 0.931 . S
C2945 C2944 1.391 . S
C2945 C2949 1.376 . S
C2946 C2944 1.394 . S
C2946 C2947 1.369 . S
C2946 C2950 1.531 . S
C2947 C2946 1.369 . S
C2947 C2948 1.410 . S
C2947 C2955 1.503 . S
C2948 C2947 1.410 . S
C2948 C2949 1.392 . S
C2948 C2951 1.511 . S
C2949 C2945 1.376 . S
C2949 C2948 1.392 . S
C2949 H2961 0.929 . S
C2950 C2946 1.531 . S
C2950 H2962 0.960 . S
C2950 H2963 0.962 . S
C2950 H2964 0.960 . S
C2951 C2948 1.511 . S
C2951 H2965 0.961 . S
C2951 H2966 0.961 . S
C2951 H2967 0.961 . S
C2952 C2953 1.370 . S
C2952 C2954 1.363 . S
C2952 H2968 0.931 . S
C2953 C2952 1.370 . S
C2953 C2957 1.408 . S
C2954 C2952 1.363 . S
C2954 C2955 1.370 . S
C2954 C2958 1.524 . S
C2955 C2947 1.503 . S
C2955 C2954 1.370 . S
C2955 C2956 1.403 . S
C2956 C2955 1.403 . S
C2956 C2957 1.404 . S
C2956 C2959 1.539 . S
C2957 C2953 1.408 . S
C2957 C2956 1.404 . S
C2957 H2969 0.930 . S
C2958 C2954 1.524 . S
C2958 H2970 0.956 . S
C2958 H2971 0.961 . S
C2958 H2972 0.961 . S
C2959 C2956 1.539 . S
C2959 H2973 0.958 . S
C2959 H2974 0.961 . S
C2959 H2975 0.960 . S
H2960 C2944 0.931 . S
H2961 C2949 0.929 . S
H2962 C2950 0.960 . S
H2963 C2950 0.962 . S
H2964 C2950 0.960 . S
H2965 C2951 0.961 . S
H2966 C2951 0.961 . S
H2967 C2951 0.961 . S
H2968 C2952 0.931 . S
H2969 C2957 0.930 . S
H2970 C2958 0.956 . S
H2971 C2958 0.961 . S
H2972 C2958 0.961 . S
H2973 C2959 0.958 . S
H2974 C2959 0.961 . S
H2975 C2959 0.960 . S
C2976 C2977 1.391 . S
C2976 C2978 1.394 . S
C2976 H2992 0.931 . S
C2977 C2976 1.391 . S
C2977 C2981 1.376 . S
C2978 C2976 1.394 . S
C2978 C2979 1.369 . S
C2978 C2982 1.531 . S
C2979 C2978 1.369 . S
C2979 C2980 1.410 . S
C2979 C2987 1.503 . S
C2980 C2979 1.410 . S
C2980 C2981 1.392 . S
C2980 C2983 1.511 1_455 S
C2981 C2977 1.376 . S
C2981 C2980 1.392 . S
C2981 H2993 0.929 . S
C2982 C2978 1.531 . S
C2982 H2994 0.960 . S
C2982 H2995 0.962 . S
C2982 H2996 0.960 . S
C2983 C2980 1.511 1_655 S
C2983 H2997 0.961 . S
C2983 H2998 0.961 1_655 S
C2983 H2999 0.961 . S
C2984 C2985 1.370 . S
C2984 C2986 1.363 . S
C2984 H3000 0.931 . S
C2985 C2984 1.370 . S
C2985 C2989 1.408 . S
C2986 C2984 1.363 . S
C2986 C2987 1.370 . S
C2986 C2990 1.524 . S
C2987 C2979 1.503 . S
C2987 C2986 1.370 . S
C2987 C2988 1.403 . S
C2988 C2987 1.403 . S
C2988 C2989 1.404 . S
C2988 C2991 1.539 . S
C2989 C2985 1.408 . S
C2989 C2988 1.404 . S
C2989 H3001 0.930 . S
C2990 C2986 1.524 . S
C2990 H3002 0.956 . S
C2990 H3003 0.961 . S
C2990 H3004 0.961 . S
C2991 C2988 1.539 . S
C2991 H3005 0.958 . S
C2991 H3006 0.961 1_455 S
C2991 H3007 0.960 . S
H2992 C2976 0.931 . S
H2993 C2981 0.929 . S
H2994 C2982 0.960 . S
H2995 C2982 0.962 . S
H2996 C2982 0.960 . S
H2997 C2983 0.961 . S
H2998 C2983 0.961 1_455 S
H2999 C2983 0.961 . S
H3000 C2984 0.931 . S
H3001 C2989 0.930 . S
H3002 C2990 0.956 . S
H3003 C2990 0.961 . S
H3004 C2990 0.961 . S
H3005 C2991 0.958 . S
H3006 C2991 0.961 1_655 S
H3007 C2991 0.960 . S
C3008 C3009 1.391 . S
C3008 C3010 1.394 . S
C3008 H3024 0.931 . S
C3009 C3008 1.391 . S
C3009 C3013 1.376 . S
C3010 C3008 1.394 . S
C3010 C3011 1.369 . S
C3010 C3014 1.531 1_565 S
C3011 C3010 1.369 . S
C3011 C3012 1.410 . S
C3011 C3019 1.503 1_565 S
C3012 C3011 1.410 . S
C3012 C3013 1.392 . S
C3012 C3015 1.511 . S
C3013 C3009 1.376 . S
C3013 C3012 1.392 . S
C3013 H3025 0.929 . S
C3014 C3010 1.531 1_545 S
C3014 H3026 0.960 . S
C3014 H3027 0.962 . S
C3014 H3028 0.961 1_545 S
C3015 C3012 1.511 . S
C3015 H3029 0.961 . S
C3015 H3030 0.961 . S
C3015 H3031 0.961 1_655 S
C3016 C3017 1.370 . S
C3016 C3018 1.363 . S
C3016 H3032 0.931 . S
C3017 C3016 1.370 . S
C3017 C3021 1.408 . S
C3018 C3016 1.363 . S
C3018 C3019 1.370 . S
C3018 C3022 1.524 1_545 S
C3019 C3011 1.503 1_545 S
C3019 C3018 1.370 . S
C3019 C3020 1.403 . S
C3020 C3019 1.403 . S
C3020 C3021 1.404 . S
C3020 C3023 1.539 1_655 S
C3021 C3017 1.408 . S
C3021 C3020 1.404 . S
C3021 H3033 0.930 . S
C3022 C3018 1.524 1_565 S
C3022 H3034 0.956 . S
C3022 H3035 0.961 . S
C3022 H3036 0.961 1_565 S
C3023 C3020 1.539 1_455 S
C3023 H3037 0.958 1_455 S
C3023 H3038 0.961 . S
C3023 H3039 0.960 . S
H3024 C3008 0.931 . S
H3025 C3013 0.929 . S
H3026 C3014 0.960 . S
H3027 C3014 0.962 . S
H3028 C3014 0.961 1_565 S
H3029 C3015 0.961 . S
H3030 C3015 0.961 . S
H3031 C3015 0.961 1_455 S
H3032 C3016 0.931 . S
H3033 C3021 0.930 . S
H3034 C3022 0.956 . S
H3035 C3022 0.961 . S
H3036 C3022 0.961 1_545 S
H3037 C3023 0.958 1_655 S
H3038 C3023 0.961 . S
H3039 C3023 0.960 . S
C3040 C3041 1.391 . S
C3040 C3042 1.394 . S
C3040 H3056 0.931 . S
C3041 C3040 1.391 . S
C3041 C3045 1.376 . S
C3042 C3040 1.394 . S
C3042 C3043 1.369 . S
C3042 C3046 1.531 1_545 S
C3043 C3042 1.369 . S
C3043 C3044 1.410 . S
C3043 C3051 1.503 . S
C3044 C3043 1.410 . S
C3044 C3045 1.392 . S
C3044 C3047 1.511 . S
C3045 C3041 1.376 . S
C3045 C3044 1.392 . S
C3045 H3057 0.929 . S
C3046 C3042 1.531 1_565 S
C3046 H3058 0.960 . S
C3046 H3059 0.962 . S
C3046 H3060 0.960 . S
C3047 C3044 1.511 . S
C3047 H3061 0.961 . S
C3047 H3062 0.961 . S
C3047 H3063 0.961 . S
C3048 C3049 1.370 . S
C3048 C3050 1.363 . S
C3048 H3064 0.931 . S
C3049 C3048 1.370 . S
C3049 C3053 1.408 . S
C3050 C3048 1.363 . S
C3050 C3051 1.370 . S
C3050 C3054 1.524 . S
C3051 C3043 1.503 . S
C3051 C3050 1.370 . S
C3051 C3052 1.403 . S
C3052 C3051 1.403 . S
C3052 C3053 1.404 . S
C3052 C3055 1.539 . S
C3053 C3049 1.408 . S
C3053 C3052 1.404 . S
C3053 H3065 0.930 . S
C3054 C3050 1.524 . S
C3054 H3066 0.956 . S
C3054 H3067 0.961 . S
C3054 H3068 0.961 . S
C3055 C3052 1.539 . S
C3055 H3069 0.958 . S
C3055 H3070 0.961 . S
C3055 H3071 0.960 . S
H3056 C3040 0.931 . S
H3057 C3045 0.929 . S
H3058 C3046 0.960 . S
H3059 C3046 0.962 . S
H3060 C3046 0.960 . S
H3061 C3047 0.961 . S
H3062 C3047 0.961 . S
H3063 C3047 0.961 . S
H3064 C3048 0.931 . S
H3065 C3053 0.930 . S
H3066 C3054 0.956 . S
H3067 C3054 0.961 . S
H3068 C3054 0.961 . S
H3069 C3055 0.958 . S
H3070 C3055 0.961 . S
H3071 C3055 0.960 . S
C3072 C3073 1.391 . S
C3072 C3074 1.394 . S
C3072 H3088 0.931 . S
C3073 C3072 1.391 . S
C3073 C3077 1.376 . S
C3074 C3072 1.394 . S
C3074 C3075 1.369 . S
C3074 C3078 1.531 . S
C3075 C3074 1.369 . S
C3075 C3076 1.410 . S
C3075 C3083 1.503 . S
C3076 C3075 1.410 . S
C3076 C3077 1.392 . S
C3076 C3079 1.511 . S
C3077 C3073 1.376 . S
C3077 C3076 1.392 . S
C3077 H3089 0.929 . S
C3078 C3074 1.531 . S
C3078 H3090 0.960 . S
C3078 H3091 0.962 . S
C3078 H3092 0.960 . S
C3079 C3076 1.511 . S
C3079 H3093 0.961 . S
C3079 H3094 0.961 . S
C3079 H3095 0.961 . S
C3080 C3081 1.370 . S
C3080 C3082 1.363 . S
C3080 H3096 0.931 . S
C3081 C3080 1.370 . S
C3081 C3085 1.408 . S
C3082 C3080 1.363 . S
C3082 C3083 1.370 . S
C3082 C3086 1.524 . S
C3083 C3075 1.503 . S
C3083 C3082 1.370 . S
C3083 C3084 1.403 . S
C3084 C3083 1.403 . S
C3084 C3085 1.404 . S
C3084 C3087 1.539 . S
C3085 C3081 1.408 . S
C3085 C3084 1.404 . S
C3085 H3097 0.930 . S
C3086 C3082 1.524 . S
C3086 H3098 0.956 . S
C3086 H3099 0.961 . S
C3086 H3100 0.961 . S
C3087 C3084 1.539 . S
C3087 H3101 0.958 . S
C3087 H3102 0.961 . S
C3087 H3103 0.960 . S
H3088 C3072 0.931 . S
H3089 C3077 0.929 . S
H3090 C3078 0.960 . S
H3091 C3078 0.962 . S
H3092 C3078 0.960 . S
H3093 C3079 0.961 . S
H3094 C3079 0.961 . S
H3095 C3079 0.961 . S
H3096 C3080 0.931 . S
H3097 C3085 0.930 . S
H3098 C3086 0.956 . S
H3099 C3086 0.961 . S
H3100 C3086 0.961 . S
H3101 C3087 0.958 . S
H3102 C3087 0.961 . S
H3103 C3087 0.960 . S
C3104 C3105 1.391 . S
C3104 C3106 1.394 . S
C3104 H3120 0.931 . S
C3105 C3104 1.391 . S
C3105 C3109 1.376 . S
C3106 C3104 1.394 . S
C3106 C3107 1.369 . S
C3106 C3110 1.531 . S
C3107 C3106 1.369 . S
C3107 C3108 1.410 . S
C3107 C3115 1.503 1_556 S
C3108 C3107 1.410 . S
C3108 C3109 1.392 . S
C3108 C3111 1.511 1_556 S
C3109 C3105 1.376 . S
C3109 C3108 1.392 . S
C3109 H3121 0.929 . S
C3110 C3106 1.531 . S
C3110 H3122 0.960 . S
C3110 H3123 0.962 . S
C3110 H3124 0.960 . S
C3111 C3108 1.511 1_554 S
C3111 H3125 0.961 . S
C3111 H3126 0.961 . S
C3111 H3127 0.961 . S
C3112 C3113 1.370 . S
C3112 C3114 1.363 . S
C3112 H3128 0.931 . S
C3113 C3112 1.370 . S
C3113 C3117 1.408 . S
C3114 C3112 1.363 . S
C3114 C3115 1.370 . S
C3114 C3118 1.524 1_565 S
C3115 C3107 1.503 1_554 S
C3115 C3114 1.370 . S
C3115 C3116 1.403 . S
C3116 C3115 1.403 . S
C3116 C3117 1.404 . S
C3116 C3119 1.539 . S
C3117 C3113 1.408 . S
C3117 C3116 1.404 . S
C3117 H3129 0.930 . S
C3118 C3114 1.524 1_545 S
C3118 H3130 0.956 1_554 S
C3118 H3131 0.961 . S
C3118 H3132 0.961 . S
C3119 C3116 1.539 . S
C3119 H3133 0.958 . S
C3119 H3134 0.961 . S
C3119 H3135 0.960 . S
H3120 C3104 0.931 . S
H3121 C3109 0.929 . S
H3122 C3110 0.960 . S
H3123 C3110 0.962 . S
H3124 C3110 0.960 . S
H3125 C3111 0.961 . S
H3126 C3111 0.961 . S
H3127 C3111 0.961 . S
H3128 C3112 0.931 . S
H3129 C3117 0.930 . S
H3130 C3118 0.956 1_556 S
H3131 C3118 0.961 . S
H3132 C3118 0.961 . S
H3133 C3119 0.958 . S
H3134 C3119 0.961 . S
H3135 C3119 0.960 . S
C3136 C3137 1.391 . S
C3136 C3138 1.394 . S
C3136 H3152 0.931 . S
C3137 C3136 1.391 . S
C3137 C3141 1.376 . S
C3138 C3136 1.394 . S
C3138 C3139 1.369 . S
C3138 C3142 1.531 1_554 S
C3139 C3138 1.369 . S
C3139 C3140 1.410 . S
C3139 C3147 1.503 1_554 S
C3140 C3139 1.410 . S
C3140 C3141 1.392 . S
C3140 C3143 1.511 . S
C3141 C3137 1.376 . S
C3141 C3140 1.392 . S
C3141 H3153 0.929 . S
C3142 C3138 1.531 1_556 S
C3142 H3154 0.960 . S
C3142 H3155 0.962 . S
C3142 H3156 0.960 1_556 S
C3143 C3140 1.511 . S
C3143 H3157 0.961 . S
C3143 H3158 0.961 . S
C3143 H3159 0.961 . S
C3144 C3145 1.370 . S
C3144 C3146 1.363 . S
C3144 H3160 0.931 . S
C3145 C3144 1.370 . S
C3145 C3149 1.408 . S
C3146 C3144 1.363 . S
C3146 C3147 1.370 . S
C3146 C3150 1.524 . S
C3147 C3139 1.503 1_556 S
C3147 C3146 1.370 . S
C3147 C3148 1.403 . S
C3148 C3147 1.403 . S
C3148 C3149 1.404 . S
C3148 C3151 1.539 . S
C3149 C3145 1.408 . S
C3149 C3148 1.404 . S
C3149 H3161 0.930 . S
C3150 C3146 1.524 . S
C3150 H3162 0.956 . S
C3150 H3163 0.961 . S
C3150 H3164 0.961 . S
C3151 C3148 1.539 . S
C3151 H3165 0.958 . S
C3151 H3166 0.961 . S
C3151 H3167 0.960 1_556 S
H3152 C3136 0.931 . S
H3153 C3141 0.929 . S
H3154 C3142 0.960 . S
H3155 C3142 0.962 . S
H3156 C3142 0.960 1_554 S
H3157 C3143 0.961 . S
H3158 C3143 0.961 . S
H3159 C3143 0.961 . S
H3160 C3144 0.931 . S
H3161 C3149 0.930 . S
H3162 C3150 0.956 . S
H3163 C3150 0.961 . S
H3164 C3150 0.961 . S
H3165 C3151 0.958 . S
H3166 C3151 0.961 . S
H3167 C3151 0.960 1_554 S
C3168 C3169 1.391 . S
C3168 C3170 1.394 . S
C3168 H3184 0.931 . S
C3169 C3168 1.391 . S
C3169 C3173 1.376 . S
C3170 C3168 1.394 . S
C3170 C3171 1.369 . S
C3170 C3174 1.531 . S
C3171 C3170 1.369 . S
C3171 C3172 1.410 . S
C3171 C3179 1.503 . S
C3172 C3171 1.410 . S
C3172 C3173 1.392 . S
C3172 C3175 1.511 . S
C3173 C3169 1.376 . S
C3173 C3172 1.392 . S
C3173 H3185 0.929 . S
C3174 C3170 1.531 . S
C3174 H3186 0.960 . S
C3174 H3187 0.962 . S
C3174 H3188 0.960 . S
C3175 C3172 1.511 . S
C3175 H3189 0.961 1_554 S
C3175 H3190 0.961 . S
C3175 H3191 0.961 1_554 S
C3176 C3177 1.370 . S
C3176 C3178 1.363 . S
C3176 H3192 0.931 . S
C3177 C3176 1.370 . S
C3177 C3181 1.408 . S
C3178 C3176 1.363 . S
C3178 C3179 1.370 . S
C3178 C3182 1.524 . S
C3179 C3171 1.503 . S
C3179 C3178 1.370 . S
C3179 C3180 1.403 . S
C3180 C3179 1.403 . S
C3180 C3181 1.404 . S
C3180 C3183 1.539 . S
C3181 C3177 1.408 . S
C3181 C3180 1.404 . S
C3181 H3193 0.930 . S
C3182 C3178 1.524 . S
C3182 H3194 0.956 . S
C3182 H3195 0.961 . S
C3182 H3196 0.961 . S
C3183 C3180 1.539 . S
C3183 H3197 0.958 . S
C3183 H3198 0.961 1_554 S
C3183 H3199 0.960 1_554 S
H3184 C3168 0.931 . S
H3185 C3173 0.929 . S
H3186 C3174 0.960 . S
H3187 C3174 0.962 . S
H3188 C3174 0.960 . S
H3189 C3175 0.961 1_556 S
H3190 C3175 0.961 . S
H3191 C3175 0.961 1_556 S
H3192 C3176 0.931 . S
H3193 C3181 0.930 . S
H3194 C3182 0.956 . S
H3195 C3182 0.961 . S
H3196 C3182 0.961 . S
H3197 C3183 0.958 . S
H3198 C3183 0.961 1_556 S
H3199 C3183 0.960 1_556 S
C3200 C3201 1.391 . S
C3200 C3202 1.394 . S
C3200 H3216 0.931 . S
C3201 C3200 1.391 . S
C3201 C3205 1.376 . S
C3202 C3200 1.394 . S
C3202 C3203 1.369 . S
C3202 C3206 1.531 . S
C3203 C3202 1.369 . S
C3203 C3204 1.410 . S
C3203 C3211 1.503 . S
C3204 C3203 1.410 . S
C3204 C3205 1.392 . S
C3204 C3207 1.511 . S
C3205 C3201 1.376 . S
C3205 C3204 1.392 . S
C3205 H3217 0.929 . S
C3206 C3202 1.531 . S
C3206 H3218 0.960 . S
C3206 H3219 0.962 . S
C3206 H3220 0.960 . S
C3207 C3204 1.511 . S
C3207 H3221 0.961 . S
C3207 H3222 0.961 . S
C3207 H3223 0.961 . S
C3208 C3209 1.370 . S
C3208 C3210 1.363 . S
C3208 H3224 0.931 . S
C3209 C3208 1.370 . S
C3209 C3213 1.408 . S
C3210 C3208 1.363 . S
C3210 C3211 1.370 . S
C3210 C3214 1.524 . S
C3211 C3203 1.503 . S
C3211 C3210 1.370 . S
C3211 C3212 1.403 . S
C3212 C3211 1.403 . S
C3212 C3213 1.404 . S
C3212 C3215 1.539 . S
C3213 C3209 1.408 . S
C3213 C3212 1.404 . S
C3213 H3225 0.930 . S
C3214 C3210 1.524 . S
C3214 H3226 0.956 . S
C3214 H3227 0.961 . S
C3214 H3228 0.961 . S
C3215 C3212 1.539 . S
C3215 H3229 0.958 . S
C3215 H3230 0.961 . S
C3215 H3231 0.960 . S
H3216 C3200 0.931 . S
H3217 C3205 0.929 . S
H3218 C3206 0.960 . S
H3219 C3206 0.962 . S
H3220 C3206 0.960 . S
H3221 C3207 0.961 . S
H3222 C3207 0.961 . S
H3223 C3207 0.961 . S
H3224 C3208 0.931 . S
H3225 C3213 0.930 . S
H3226 C3214 0.956 . S
H3227 C3214 0.961 . S
H3228 C3214 0.961 . S
H3229 C3215 0.958 . S
H3230 C3215 0.961 . S
H3231 C3215 0.960 . S
C3232 C3233 1.391 . S
C3232 C3234 1.394 . S
C3232 H3248 0.931 . S
C3233 C3232 1.391 . S
C3233 C3237 1.376 . S
C3234 C3232 1.394 . S
C3234 C3235 1.369 . S
C3234 C3238 1.531 . S
C3235 C3234 1.369 . S
C3235 C3236 1.410 . S
C3235 C3243 1.503 1_455 S
C3236 C3235 1.410 . S
C3236 C3237 1.392 . S
C3236 C3239 1.511 . S
C3237 C3233 1.376 . S
C3237 C3236 1.392 . S
C3237 H3249 0.929 . S
C3238 C3234 1.531 . S
C3238 H3250 0.960 1_455 S
C3238 H3251 0.962 1_455 S
C3238 H3252 0.960 . S
C3239 C3236 1.511 . S
C3239 H3253 0.961 . S
C3239 H3254 0.961 . S
C3239 H3255 0.961 . S
C3240 C3241 1.370 . S
C3240 C3242 1.363 . S
C3240 H3256 0.931 . S
C3241 C3240 1.370 . S
C3241 C3245 1.408 . S
C3242 C3240 1.363 . S
C3242 C3243 1.370 . S
C3242 C3246 1.524 . S
C3243 C3235 1.503 1_655 S
C3243 C3242 1.370 . S
C3243 C3244 1.403 . S
C3244 C3243 1.403 . S
C3244 C3245 1.404 . S
C3244 C3247 1.539 1_655 S
C3245 C3241 1.408 . S
C3245 C3244 1.404 . S
C3245 H3257 0.930 . S
C3246 C3242 1.524 . S
C3246 H3258 0.956 . S
C3246 H3259 0.961 . S
C3246 H3260 0.961 . S
C3247 C3244 1.539 1_455 S
C3247 H3261 0.958 . S
C3247 H3262 0.954 1_455 S
C3247 H3263 0.960 . S
H3248 C3232 0.931 . S
H3249 C3237 0.929 . S
H3250 C3238 0.960 1_655 S
H3251 C3238 0.962 1_655 S
H3252 C3238 0.960 . S
H3253 C3239 0.961 . S
H3254 C3239 0.961 . S
H3255 C3239 0.961 . S
H3256 C3240 0.931 . S
H3257 C3245 0.930 . S
H3258 C3246 0.956 . S
H3259 C3246 0.961 . S
H3260 C3246 0.961 . S
H3261 C3247 0.958 . S
H3262 C3247 0.954 1_655 S
H3263 C3247 0.960 . S
C3264 C3265 1.391 . S
C3264 C3266 1.394 . S
C3264 H3280 0.931 . S
C3265 C3264 1.391 . S
C3265 C3269 1.376 . S
C3266 C3264 1.394 . S
C3266 C3267 1.369 . S
C3266 C3270 1.531 . S
C3267 C3266 1.369 . S
C3267 C3268 1.410 . S
C3267 C3275 1.503 . S
C3268 C3267 1.410 . S
C3268 C3269 1.392 . S
C3268 C3271 1.511 1_655 S
C3269 C3265 1.376 . S
C3269 C3268 1.392 . S
C3269 H3281 0.929 . S
C3270 C3266 1.531 . S
C3270 H3282 0.960 . S
C3270 H3283 0.962 . S
C3270 H3284 0.960 . S
C3271 C3268 1.511 1_455 S
C3271 H3285 0.961 . S
C3271 H3286 0.961 1_455 S
C3271 H3287 0.961 . S
C3272 C3273 1.370 . S
C3272 C3274 1.363 . S
C3272 H3288 0.931 . S
C3273 C3272 1.370 . S
C3273 C3277 1.408 . S
C3274 C3272 1.363 . S
C3274 C3275 1.370 . S
C3274 C3278 1.524 . S
C3275 C3267 1.503 . S
C3275 C3274 1.370 . S
C3275 C3276 1.403 . S
C3276 C3275 1.403 . S
C3276 C3277 1.404 . S
C3276 C3279 1.539 . S
C3277 C3273 1.408 . S
C3277 C3276 1.404 . S
C3277 H3289 0.930 . S
C3278 C3274 1.524 . S
C3278 H3290 0.956 . S
C3278 H3291 0.961 . S
C3278 H3292 0.961 . S
C3279 C3276 1.539 . S
C3279 H3293 0.958 . S
C3279 H3294 0.961 1_655 S
C3279 H3295 0.960 . S
H3280 C3264 0.931 . S
H3281 C3269 0.929 . S
H3282 C3270 0.960 . S
H3283 C3270 0.962 . S
H3284 C3270 0.960 . S
H3285 C3271 0.961 . S
H3286 C3271 0.961 1_655 S
H3287 C3271 0.961 . S
H3288 C3272 0.931 . S
H3289 C3277 0.930 . S
H3290 C3278 0.956 . S
H3291 C3278 0.961 . S
H3292 C3278 0.961 . S
H3293 C3279 0.958 . S
H3294 C3279 0.961 1_455 S
H3295 C3279 0.960 . S
C3296 C3297 1.391 . S
C3296 C3298 1.394 . S
C3296 H3312 0.931 . S
C3297 C3296 1.391 . S
C3297 C3301 1.376 . S
C3298 C3296 1.394 . S
C3298 C3299 1.369 . S
C3298 C3302 1.523 1_545 S
C3299 C3298 1.369 . S
C3299 C3300 1.410 . S
C3299 C3307 1.503 1_545 S
C3300 C3299 1.410 . S
C3300 C3301 1.392 . S
C3300 C3303 1.511 . S
C3301 C3297 1.376 . S
C3301 C3300 1.392 . S
C3301 H3313 0.929 . S
C3302 C3298 1.523 1_565 S
C3302 H3314 0.967 . S
C3302 H3315 0.968 . S
C3302 H3316 0.956 1_565 S
C3303 C3300 1.511 . S
C3303 H3317 0.950 1_455 S
C3303 H3318 0.961 . S
C3303 H3319 0.961 . S
C3304 C3305 1.370 . S
C3304 C3306 1.363 . S
C3304 H3320 0.931 . S
C3305 C3304 1.370 . S
C3305 C3309 1.408 . S
C3306 C3304 1.363 . S
C3306 C3307 1.370 . S
C3306 C3310 1.524 . S
C3307 C3299 1.503 1_565 S
C3307 C3306 1.370 . S
C3307 C3308 1.403 . S
C3308 C3307 1.403 . S
C3308 C3309 1.404 . S
C3308 C3311 1.539 . S
C3309 C3305 1.408 . S
C3309 C3308 1.404 . S
C3309 H3321 0.930 . S
C3310 C3306 1.524 . S
C3310 H3322 0.956 . S
C3310 H3323 0.961 1_455 S
C3310 H3324 0.961 1_455 S
C3311 C3308 1.539 . S
C3311 H3325 0.958 . S
C3311 H3326 0.961 . S
C3311 H3327 0.960 1_565 S
H3312 C3296 0.931 . S
H3313 C3301 0.929 . S
H3314 C3302 0.967 . S
H3315 C3302 0.968 . S
H3316 C3302 0.956 1_545 S
H3317 C3303 0.950 1_655 S
H3318 C3303 0.961 . S
H3319 C3303 0.961 . S
H3320 C3304 0.931 . S
H3321 C3309 0.930 . S
H3322 C3310 0.956 . S
H3323 C3310 0.961 1_655 S
H3324 C3310 0.961 1_655 S
H3325 C3311 0.958 . S
H3326 C3311 0.961 . S
H3327 C3311 0.960 1_545 S
C3328 C3329 1.391 . S
C3328 C3330 1.394 . S
C3328 H3344 0.931 . S
C3329 C3328 1.391 . S
C3329 C3333 1.376 . S
C3330 C3328 1.394 . S
C3330 C3331 1.369 . S
C3330 C3334 1.531 . S
C3331 C3330 1.369 . S
C3331 C3332 1.410 . S
C3331 C3339 1.503 . S
C3332 C3331 1.410 . S
C3332 C3333 1.392 . S
C3332 C3335 1.511 . S
C3333 C3329 1.376 . S
C3333 C3332 1.392 . S
C3333 H3345 0.929 . S
C3334 C3330 1.531 . S
C3334 H3346 0.960 . S
C3334 H3347 0.962 . S
C3334 H3348 0.960 . S
C3335 C3332 1.511 . S
C3335 H3349 0.961 . S
C3335 H3350 0.961 . S
C3335 H3351 0.961 . S
C3336 C3337 1.370 . S
C3336 C3338 1.363 . S
C3336 H3352 0.931 . S
C3337 C3336 1.370 . S
C3337 C3341 1.408 . S
C3338 C3336 1.363 . S
C3338 C3339 1.370 . S
C3338 C3342 1.524 . S
C3339 C3331 1.503 . S
C3339 C3338 1.370 . S
C3339 C3340 1.403 . S
C3340 C3339 1.403 . S
C3340 C3341 1.404 . S
C3340 C3343 1.539 . S
C3341 C3337 1.408 . S
C3341 C3340 1.404 . S
C3341 H3353 0.930 . S
C3342 C3338 1.524 . S
C3342 H3354 0.956 . S
C3342 H3355 0.961 1_565 S
C3342 H3356 0.961 1_565 S
C3343 C3340 1.539 . S
C3343 H3357 0.958 . S
C3343 H3358 0.961 . S
C3343 H3359 0.960 . S
H3344 C3328 0.931 . S
H3345 C3333 0.929 . S
H3346 C3334 0.960 . S
H3347 C3334 0.962 . S
H3348 C3334 0.960 . S
H3349 C3335 0.961 . S
H3350 C3335 0.961 . S
H3351 C3335 0.961 . S
H3352 C3336 0.931 . S
H3353 C3341 0.930 . S
H3354 C3342 0.956 . S
H3355 C3342 0.961 1_545 S
H3356 C3342 0.961 1_545 S
H3357 C3343 0.958 . S
H3358 C3343 0.961 . S
H3359 C3343 0.960 . S
C3360 C3361 1.391 . S
C3360 C3362 1.394 . S
C3360 H3376 0.931 . S
C3361 C3360 1.391 . S
C3361 C3365 1.376 . S
C3362 C3360 1.394 . S
C3362 C3363 1.369 . S
C3362 C3366 1.531 . S
C3363 C3362 1.369 . S
C3363 C3364 1.410 . S
C3363 C3371 1.503 . S
C3364 C3363 1.410 . S
C3364 C3365 1.392 . S
C3364 C3367 1.511 . S
C3365 C3361 1.376 . S
C3365 C3364 1.392 . S
C3365 H3377 0.929 . S
C3366 C3362 1.531 . S
C3366 H3378 0.960 . S
C3366 H3379 0.962 . S
C3366 H3380 0.960 . S
C3367 C3364 1.511 . S
C3367 H3381 0.961 . S
C3367 H3382 0.961 . S
C3367 H3383 0.961 . S
C3368 C3369 1.370 . S
C3368 C3370 1.363 . S
C3368 H3384 0.931 . S
C3369 C3368 1.370 . S
C3369 C3373 1.408 . S
C3370 C3368 1.363 . S
C3370 C3371 1.370 . S
C3370 C3374 1.524 . S
C3371 C3363 1.503 . S
C3371 C3370 1.370 . S
C3371 C3372 1.403 . S
C3372 C3371 1.403 . S
C3372 C3373 1.404 . S
C3372 C3375 1.539 . S
C3373 C3369 1.408 . S
C3373 C3372 1.404 . S
C3373 H3385 0.930 . S
C3374 C3370 1.524 . S
C3374 H3386 0.956 . S
C3374 H3387 0.961 . S
C3374 H3388 0.961 . S
C3375 C3372 1.539 . S
C3375 H3389 0.958 . S
C3375 H3390 0.961 . S
C3375 H3391 0.960 . S
H3376 C3360 0.931 . S
H3377 C3365 0.929 . S
H3378 C3366 0.960 . S
H3379 C3366 0.962 . S
H3380 C3366 0.960 . S
H3381 C3367 0.961 . S
H3382 C3367 0.961 . S
H3383 C3367 0.961 . S
H3384 C3368 0.931 . S
H3385 C3373 0.930 . S
H3386 C3374 0.956 . S
H3387 C3374 0.961 . S
H3388 C3374 0.961 . S
H3389 C3375 0.958 . S
H3390 C3375 0.961 . S
H3391 C3375 0.960 . S
C3392 C3393 1.391 . S
C3392 C3394 1.394 . S
C3392 H3408 0.931 . S
C3393 C3392 1.391 . S
C3393 C3397 1.376 . S
C3394 C3392 1.394 . S
C3394 C3395 1.369 . S
C3394 C3398 1.531 1_556 S
C3395 C3394 1.369 . S
C3395 C3396 1.410 . S
C3395 C3403 1.503 1_556 S
C3396 C3395 1.410 . S
C3396 C3397 1.392 . S
C3396 C3399 1.511 . S
C3397 C3393 1.376 . S
C3397 C3396 1.392 . S
C3397 H3409 0.929 . S
C3398 C3394 1.531 1_554 S
C3398 H3410 0.960 . S
C3398 H3411 0.962 . S
C3398 H3412 0.960 1_554 S
C3399 C3396 1.511 . S
C3399 H3413 0.961 . S
C3399 H3414 0.961 . S
C3399 H3415 0.961 . S
C3400 C3401 1.370 . S
C3400 C3402 1.363 . S
C3400 H3416 0.931 . S
C3401 C3400 1.370 . S
C3401 C3405 1.408 . S
C3402 C3400 1.363 . S
C3402 C3403 1.370 . S
C3402 C3406 1.524 . S
C3403 C3395 1.503 1_554 S
C3403 C3402 1.370 . S
C3403 C3404 1.403 . S
C3404 C3403 1.403 . S
C3404 C3405 1.404 . S
C3404 C3407 1.539 . S
C3405 C3401 1.408 . S
C3405 C3404 1.404 . S
C3405 H3417 0.930 . S
C3406 C3402 1.524 . S
C3406 H3418 0.956 . S
C3406 H3419 0.961 1_545 S
C3406 H3420 0.961 1_545 S
C3407 C3404 1.539 . S
C3407 H3421 0.958 . S
C3407 H3422 0.961 . S
C3407 H3423 0.960 1_554 S
H3408 C3392 0.931 . S
H3409 C3397 0.929 . S
H3410 C3398 0.960 . S
H3411 C3398 0.962 . S
H3412 C3398 0.960 1_556 S
H3413 C3399 0.961 . S
H3414 C3399 0.961 . S
H3415 C3399 0.961 . S
H3416 C3400 0.931 . S
H3417 C3405 0.930 . S
H3418 C3406 0.956 . S
H3419 C3406 0.961 1_565 S
H3420 C3406 0.961 1_565 S
H3421 C3407 0.958 . S
H3422 C3407 0.961 . S
H3423 C3407 0.960 1_556 S
C3424 C3425 1.391 . S
C3424 C3426 1.394 . S
C3424 H3440 0.931 . S
C3425 C3424 1.391 . S
C3425 C3429 1.376 . S
C3426 C3424 1.394 . S
C3426 C3427 1.369 . S
C3426 C3430 1.531 1_556 S
C3427 C3426 1.369 . S
C3427 C3428 1.410 . S
C3427 C3435 1.503 1_556 S
C3428 C3427 1.410 . S
C3428 C3429 1.392 . S
C3428 C3431 1.511 . S
C3429 C3425 1.376 . S
C3429 C3428 1.392 . S
C3429 H3441 0.929 . S
C3430 C3426 1.531 1_554 S
C3430 H3442 0.960 . S
C3430 H3443 0.962 . S
C3430 H3444 0.960 1_554 S
C3431 C3428 1.511 . S
C3431 H3445 0.961 . S
C3431 H3446 0.961 . S
C3431 H3447 0.961 . S
C3432 C3433 1.370 . S
C3432 C3434 1.363 . S
C3432 H3448 0.931 . S
C3433 C3432 1.370 . S
C3433 C3437 1.408 . S
C3434 C3432 1.363 . S
C3434 C3435 1.370 . S
C3434 C3438 1.524 . S
C3435 C3427 1.503 1_554 S
C3435 C3434 1.370 . S
C3435 C3436 1.403 . S
C3436 C3435 1.403 . S
C3436 C3437 1.404 . S
C3436 C3439 1.539 . S
C3437 C3433 1.408 . S
C3437 C3436 1.404 . S
C3437 H3449 0.930 . S
C3438 C3434 1.524 . S
C3438 H3450 0.956 . S
C3438 H3451 0.961 . S
C3438 H3452 0.961 . S
C3439 C3436 1.539 . S
C3439 H3453 0.958 . S
C3439 H3454 0.961 . S
C3439 H3455 0.960 1_554 S
H3440 C3424 0.931 . S
H3441 C3429 0.929 . S
H3442 C3430 0.960 . S
H3443 C3430 0.962 . S
H3444 C3430 0.960 1_556 S
H3445 C3431 0.961 . S
H3446 C3431 0.961 . S
H3447 C3431 0.961 . S
H3448 C3432 0.931 . S
H3449 C3437 0.930 . S
H3450 C3438 0.956 . S
H3451 C3438 0.961 . S
H3452 C3438 0.961 . S
H3453 C3439 0.958 . S
H3454 C3439 0.961 . S
H3455 C3439 0.960 1_556 S
C3456 C3457 1.391 . S
C3456 C3458 1.394 . S
C3456 H3472 0.931 . S
C3457 C3456 1.391 . S
C3457 C3461 1.376 . S
C3458 C3456 1.394 . S
C3458 C3459 1.369 . S
C3458 C3462 1.499 1_556 S
C3459 C3458 1.369 . S
C3459 C3460 1.410 . S
C3459 C3467 1.503 . S
C3460 C3459 1.410 . S
C3460 C3461 1.392 . S
C3460 C3463 1.511 . S
C3461 C3457 1.376 . S
C3461 C3460 1.392 . S
C3461 H3473 0.929 . S
C3462 C3458 1.499 1_554 S
C3462 H3474 0.972 . S
C3462 H3475 0.947 1_554 S
C3462 H3476 0.997 . S
C3463 C3460 1.511 . S
C3463 H3477 0.961 . S
C3463 H3478 0.961 . S
C3463 H3479 0.961 . S
C3464 C3465 1.370 . S
C3464 C3466 1.363 . S
C3464 H3480 0.931 . S
C3465 C3464 1.370 . S
C3465 C3469 1.408 . S
C3466 C3464 1.363 . S
C3466 C3467 1.370 . S
C3466 C3470 1.524 . S
C3467 C3459 1.503 . S
C3467 C3466 1.370 . S
C3467 C3468 1.403 . S
C3468 C3467 1.403 . S
C3468 C3469 1.404 . S
C3468 C3471 1.539 . S
C3469 C3465 1.408 . S
C3469 C3468 1.404 . S
C3469 H3481 0.930 . S
C3470 C3466 1.524 . S
C3470 H3482 0.956 . S
C3470 H3483 0.961 . S
C3470 H3484 0.961 . S
C3471 C3468 1.539 . S
C3471 H3485 0.958 1_556 S
C3471 H3486 0.961 . S
C3471 H3487 0.960 . S
H3472 C3456 0.931 . S
H3473 C3461 0.929 . S
H3474 C3462 0.972 . S
H3475 C3462 0.947 1_556 S
H3476 C3462 0.997 . S
H3477 C3463 0.961 . S
H3478 C3463 0.961 . S
H3479 C3463 0.961 . S
H3480 C3464 0.931 . S
H3481 C3469 0.930 . S
H3482 C3470 0.956 . S
H3483 C3470 0.961 . S
H3484 C3470 0.961 . S
H3485 C3471 0.958 1_554 S
H3486 C3471 0.961 . S
H3487 C3471 0.960 . S
C3488 C3489 1.391 . S
C3488 C3490 1.394 . S
C3488 H3504 0.931 . S
C3489 C3488 1.391 . S
C3489 C3493 1.376 . S
C3490 C3488 1.394 . S
C3490 C3491 1.369 . S
C3490 C3494 1.531 . S
C3491 C3490 1.369 . S
C3491 C3492 1.410 . S
C3491 C3499 1.503 . S
C3492 C3491 1.410 . S
C3492 C3493 1.392 . S
C3492 C3495 1.511 . S
C3493 C3489 1.376 . S
C3493 C3492 1.392 . S
C3493 H3505 0.929 . S
C3494 C3490 1.531 . S
C3494 H3506 0.960 . S
C3494 H3507 0.962 . S
C3494 H3508 0.960 . S
C3495 C3492 1.511 . S
C3495 H3509 0.961 . S
C3495 H3510 0.961 . S
C3495 H3511 0.961 . S
C3496 C3497 1.370 . S
C3496 C3498 1.363 . S
C3496 H3512 0.931 . S
C3497 C3496 1.370 . S
C3497 C3501 1.408 . S
C3498 C3496 1.363 . S
C3498 C3499 1.370 . S
C3498 C3502 1.524 . S
C3499 C3491 1.503 . S
C3499 C3498 1.370 . S
C3499 C3500 1.403 . S
C3500 C3499 1.403 . S
C3500 C3501 1.404 . S
C3500 C3503 1.539 . S
C3501 C3497 1.408 . S
C3501 C3500 1.404 . S
C3501 H3513 0.930 . S
C3502 C3498 1.524 . S
C3502 H3514 0.956 . S
C3502 H3515 0.961 . S
C3502 H3516 0.961 . S
C3503 C3500 1.539 . S
C3503 H3517 0.958 . S
C3503 H3518 0.961 . S
C3503 H3519 0.960 . S
H3504 C3488 0.931 . S
H3505 C3493 0.929 . S
H3506 C3494 0.960 . S
H3507 C3494 0.962 . S
H3508 C3494 0.960 . S
H3509 C3495 0.961 . S
H3510 C3495 0.961 . S
H3511 C3495 0.961 . S
H3512 C3496 0.931 . S
H3513 C3501 0.930 . S
H3514 C3502 0.956 . S
H3515 C3502 0.961 . S
H3516 C3502 0.961 . S
H3517 C3503 0.958 . S
H3518 C3503 0.961 . S
H3519 C3503 0.960 . S
C3520 C3521 1.391 . S
C3520 C3522 1.394 . S
C3520 H3536 0.931 . S
C3521 C3520 1.391 . S
C3521 C3525 1.376 . S
C3522 C3520 1.394 . S
C3522 C3523 1.369 . S
C3522 C3526 1.531 . S
C3523 C3522 1.369 . S
C3523 C3524 1.410 . S
C3523 C3531 1.503 1_655 S
C3524 C3523 1.410 . S
C3524 C3525 1.392 . S
C3524 C3527 1.511 . S
C3525 C3521 1.376 . S
C3525 C3524 1.392 . S
C3525 H3537 0.929 . S
C3526 C3522 1.531 . S
C3526 H3538 0.960 1_655 S
C3526 H3539 0.962 1_655 S
C3526 H3540 0.960 . S
C3527 C3524 1.511 . S
C3527 H3541 0.961 . S
C3527 H3542 0.961 . S
C3527 H3543 0.961 . S
C3528 C3529 1.370 . S
C3528 C3530 1.363 . S
C3528 H3544 0.931 . S
C3529 C3528 1.370 . S
C3529 C3533 1.408 . S
C3530 C3528 1.363 . S
C3530 C3531 1.370 . S
C3530 C3534 1.524 . S
C3531 C3523 1.503 1_455 S
C3531 C3530 1.370 . S
C3531 C3532 1.403 . S
C3532 C3531 1.403 . S
C3532 C3533 1.404 . S
C3532 C3535 1.520 1_455 S
C3533 C3529 1.408 . S
C3533 C3532 1.404 . S
C3533 H3545 0.930 . S
C3534 C3530 1.524 . S
C3534 H3546 0.956 . S
C3534 H3547 0.961 . S
C3534 H3548 0.961 . S
C3535 C3532 1.520 1_655 S
C3535 H3549 0.958 . S
C3535 H3550 0.955 1_655 S
C3535 H3551 0.986 . S
H3536 C3520 0.931 . S
H3537 C3525 0.929 . S
H3538 C3526 0.960 1_455 S
H3539 C3526 0.962 1_455 S
H3540 C3526 0.960 . S
H3541 C3527 0.961 . S
H3542 C3527 0.961 . S
H3543 C3527 0.961 . S
H3544 C3528 0.931 . S
H3545 C3533 0.930 . S
H3546 C3534 0.956 . S
H3547 C3534 0.961 . S
H3548 C3534 0.961 . S
H3549 C3535 0.958 . S
H3550 C3535 0.955 1_455 S
H3551 C3535 0.986 . S
C3552 C3553 1.391 . S
C3552 C3554 1.394 . S
C3552 H3568 0.931 . S
C3553 C3552 1.391 . S
C3553 C3557 1.376 . S
C3554 C3552 1.394 . S
C3554 C3555 1.369 . S
C3554 C3558 1.531 . S
C3555 C3554 1.369 . S
C3555 C3556 1.410 . S
C3555 C3563 1.503 1_545 S
C3556 C3555 1.410 . S
C3556 C3557 1.392 . S
C3556 C3559 1.511 . S
C3557 C3553 1.376 . S
C3557 C3556 1.392 . S
C3557 H3569 0.929 . S
C3558 C3554 1.531 . S
C3558 H3570 0.960 1_545 S
C3558 H3571 0.962 . S
C3558 H3572 0.960 . S
C3559 C3556 1.511 . S
C3559 H3573 0.961 . S
C3559 H3574 0.961 . S
C3559 H3575 0.961 . S
C3560 C3561 1.370 . S
C3560 C3562 1.363 . S
C3560 H3576 0.931 . S
C3561 C3560 1.370 . S
C3561 C3565 1.408 . S
C3562 C3560 1.363 . S
C3562 C3563 1.370 . S
C3562 C3566 1.524 1_565 S
C3563 C3555 1.503 1_565 S
C3563 C3562 1.370 . S
C3563 C3564 1.403 . S
C3564 C3563 1.403 . S
C3564 C3565 1.404 . S
C3564 C3567 1.539 . S
C3565 C3561 1.408 . S
C3565 C3564 1.404 . S
C3565 H3577 0.930 . S
C3566 C3562 1.524 1_545 S
C3566 H3578 0.956 . S
C3566 H3579 0.961 . S
C3566 H3580 0.967 . S
C3567 C3564 1.539 . S
C3567 H3581 0.958 . S
C3567 H3582 0.961 . S
C3567 H3583 0.960 . S
H3568 C3552 0.931 . S
H3569 C3557 0.929 . S
H3570 C3558 0.960 1_565 S
H3571 C3558 0.962 . S
H3572 C3558 0.960 . S
H3573 C3559 0.961 . S
H3574 C3559 0.961 . S
H3575 C3559 0.961 . S
H3576 C3560 0.931 . S
H3577 C3565 0.930 . S
H3578 C3566 0.956 . S
H3579 C3566 0.961 . S
H3580 C3566 0.967 . S
H3581 C3567 0.958 . S
H3582 C3567 0.961 . S
H3583 C3567 0.960 . S
C3584 C3585 1.391 . S
C3584 C3586 1.394 . S
C3584 H3600 0.931 . S
C3585 C3584 1.391 . S
C3585 C3589 1.376 . S
C3586 C3584 1.394 . S
C3586 C3587 1.369 . S
C3586 C3590 1.531 . S
C3587 C3586 1.369 . S
C3587 C3588 1.410 . S
C3587 C3595 1.503 . S
C3588 C3587 1.410 . S
C3588 C3589 1.392 . S
C3588 C3591 1.511 . S
C3589 C3585 1.376 . S
C3589 C3588 1.392 . S
C3589 H3601 0.929 . S
C3590 C3586 1.531 . S
C3590 H3602 0.960 . S
C3590 H3603 0.962 . S
C3590 H3604 0.960 . S
C3591 C3588 1.511 . S
C3591 H3605 0.961 . S
C3591 H3606 0.961 . S
C3591 H3607 0.961 . S
C3592 C3593 1.370 . S
C3592 C3594 1.363 . S
C3592 H3608 0.931 . S
C3593 C3592 1.370 . S
C3593 C3597 1.408 . S
C3594 C3592 1.363 . S
C3594 C3595 1.370 . S
C3594 C3598 1.524 . S
C3595 C3587 1.503 . S
C3595 C3594 1.370 . S
C3595 C3596 1.403 . S
C3596 C3595 1.403 . S
C3596 C3597 1.404 . S
C3596 C3599 1.539 . S
C3597 C3593 1.408 . S
C3597 C3596 1.404 . S
C3597 H3609 0.930 . S
C3598 C3594 1.524 . S
C3598 H3610 0.956 . S
C3598 H3611 0.961 . S
C3598 H3612 0.961 . S
C3599 C3596 1.539 . S
C3599 H3613 0.958 . S
C3599 H3614 0.961 . S
C3599 H3615 0.960 . S
H3600 C3584 0.931 . S
H3601 C3589 0.929 . S
H3602 C3590 0.960 . S
H3603 C3590 0.962 . S
H3604 C3590 0.960 . S
H3605 C3591 0.961 . S
H3606 C3591 0.961 . S
H3607 C3591 0.961 . S
H3608 C3592 0.931 . S
H3609 C3597 0.930 . S
H3610 C3598 0.956 . S
H3611 C3598 0.961 . S
H3612 C3598 0.961 . S
H3613 C3599 0.958 . S
H3614 C3599 0.961 . S
H3615 C3599 0.960 . S
C3616 C3617 1.391 . S
C3616 C3618 1.394 . S
C3616 H3632 0.931 . S
C3617 C3616 1.391 . S
C3617 C3621 1.376 . S
C3618 C3616 1.394 . S
C3618 C3619 1.369 . S
C3618 C3622 1.531 1_556 S
C3619 C3618 1.369 . S
C3619 C3620 1.410 . S
C3619 C3627 1.503 1_455 S
C3620 C3619 1.410 . S
C3620 C3621 1.392 . S
C3620 C3623 1.511 . S
C3621 C3617 1.376 . S
C3621 C3620 1.392 . S
C3621 H3633 0.929 . S
C3622 C3618 1.531 1_554 S
C3622 H3634 0.960 1_554 S
C3622 H3635 0.962 . S
C3622 H3636 0.960 . S
C3623 C3620 1.511 . S
C3623 H3637 0.961 . S
C3623 H3638 0.961 1_455 S
C3623 H3639 0.961 . S
C3624 C3625 1.370 . S
C3624 C3626 1.363 . S
C3624 H3640 0.931 . S
C3625 C3624 1.370 . S
C3625 C3629 1.408 . S
C3626 C3624 1.363 . S
C3626 C3627 1.370 . S
C3626 C3630 1.524 . S
C3627 C3619 1.503 1_655 S
C3627 C3626 1.370 . S
C3627 C3628 1.403 . S
C3628 C3627 1.403 . S
C3628 C3629 1.404 . S
C3628 C3631 1.539 1_655 S
C3629 C3625 1.408 . S
C3629 C3628 1.404 . S
C3629 H3641 0.930 . S
C3630 C3626 1.524 . S
C3630 H3642 0.956 . S
C3630 H3643 0.961 . S
C3630 H3644 0.961 . S
C3631 C3628 1.539 1_455 S
C3631 H3645 0.958 . S
C3631 H3646 0.961 1_455 S
C3631 H3647 0.960 . S
H3632 C3616 0.931 . S
H3633 C3621 0.929 . S
H3634 C3622 0.960 1_556 S
H3635 C3622 0.962 . S
H3636 C3622 0.960 . S
H3637 C3623 0.961 . S
H3638 C3623 0.961 1_655 S
H3639 C3623 0.961 . S
H3640 C3624 0.931 . S
H3641 C3629 0.930 . S
H3642 C3630 0.956 . S
H3643 C3630 0.961 . S
H3644 C3630 0.961 . S
H3645 C3631 0.958 . S
H3646 C3631 0.961 1_655 S
H3647 C3631 0.960 . S
C3648 C3649 1.391 . S
C3648 C3650 1.394 . S
C3648 H3664 0.931 . S
C3649 C3648 1.391 . S
C3649 C3653 1.376 . S
C3650 C3648 1.394 . S
C3650 C3651 1.369 . S
C3650 C3654 1.531 . S
C3651 C3650 1.369 . S
C3651 C3652 1.410 . S
C3651 C3659 1.503 1_545 S
C3652 C3651 1.410 . S
C3652 C3653 1.392 . S
C3652 C3655 1.511 . S
C3653 C3649 1.376 . S
C3653 C3652 1.392 . S
C3653 H3665 0.929 . S
C3654 C3650 1.531 . S
C3654 H3666 0.960 1_545 S
C3654 H3667 0.962 . S
C3654 H3668 0.960 . S
C3655 C3652 1.511 . S
C3655 H3669 0.961 . S
C3655 H3670 0.961 . S
C3655 H3671 0.961 . S
C3656 C3657 1.370 . S
C3656 C3658 1.363 . S
C3656 H3672 0.931 . S
C3657 C3656 1.370 . S
C3657 C3661 1.408 . S
C3658 C3656 1.363 . S
C3658 C3659 1.370 . S
C3658 C3662 1.524 1_565 S
C3659 C3651 1.503 1_565 S
C3659 C3658 1.370 . S
C3659 C3660 1.403 . S
C3660 C3659 1.403 . S
C3660 C3661 1.404 . S
C3660 C3663 1.539 . S
C3661 C3657 1.408 . S
C3661 C3660 1.404 . S
C3661 H3673 0.930 . S
C3662 C3658 1.524 1_545 S
C3662 H3674 0.956 . S
C3662 H3675 0.961 . S
C3662 H3676 0.961 . S
C3663 C3660 1.539 . S
C3663 H3677 0.958 . S
C3663 H3678 0.961 . S
C3663 H3679 0.960 . S
H3664 C3648 0.931 . S
H3665 C3653 0.929 . S
H3666 C3654 0.960 1_565 S
H3667 C3654 0.962 . S
H3668 C3654 0.960 . S
H3669 C3655 0.961 . S
H3670 C3655 0.961 . S
H3671 C3655 0.961 . S
H3672 C3656 0.931 . S
H3673 C3661 0.930 . S
H3674 C3662 0.956 . S
H3675 C3662 0.961 . S
H3676 C3662 0.961 . S
H3677 C3663 0.958 . S
H3678 C3663 0.961 . S
H3679 C3663 0.960 . S
C3680 C3681 1.391 . S
C3680 C3682 1.394 . S
C3680 H3696 0.931 . S
C3681 C3680 1.391 . S
C3681 C3685 1.376 . S
C3682 C3680 1.394 . S
C3682 C3683 1.369 . S
C3682 C3686 1.531 . S
C3683 C3682 1.369 . S
C3683 C3684 1.410 . S
C3683 C3691 1.503 . S
C3684 C3683 1.410 . S
C3684 C3685 1.392 . S
C3684 C3687 1.511 . S
C3685 C3681 1.376 . S
C3685 C3684 1.392 . S
C3685 H3697 0.929 . S
C3686 C3682 1.531 . S
C3686 H3698 0.960 . S
C3686 H3699 0.962 . S
C3686 H3700 0.960 . S
C3687 C3684 1.511 . S
C3687 H3701 0.961 . S
C3687 H3702 0.961 . S
C3687 H3703 0.961 . S
C3688 C3689 1.370 . S
C3688 C3690 1.363 . S
C3688 H3704 0.931 . S
C3689 C3688 1.370 . S
C3689 C3693 1.408 . S
C3690 C3688 1.363 . S
C3690 C3691 1.370 . S
C3690 C3694 1.524 . S
C3691 C3683 1.503 . S
C3691 C3690 1.370 . S
C3691 C3692 1.403 . S
C3692 C3691 1.403 . S
C3692 C3693 1.404 . S
C3692 C3695 1.539 . S
C3693 C3689 1.408 . S
C3693 C3692 1.404 . S
C3693 H3705 0.930 . S
C3694 C3690 1.524 . S
C3694 H3706 0.956 . S
C3694 H3707 0.961 . S
C3694 H3708 0.961 . S
C3695 C3692 1.539 . S
C3695 H3709 0.958 . S
C3695 H3710 0.961 . S
C3695 H3711 0.960 . S
H3696 C3680 0.931 . S
H3697 C3685 0.929 . S
H3698 C3686 0.960 . S
H3699 C3686 0.962 . S
H3700 C3686 0.960 . S
H3701 C3687 0.961 . S
H3702 C3687 0.961 . S
H3703 C3687 0.961 . S
H3704 C3688 0.931 . S
H3705 C3693 0.930 . S
H3706 C3694 0.956 . S
H3707 C3694 0.961 . S
H3708 C3694 0.961 . S
H3709 C3695 0.958 . S
H3710 C3695 0.961 . S
H3711 C3695 0.960 . S
C3712 C3713 1.391 . S
C3712 C3714 1.394 . S
C3712 H3728 0.931 . S
C3713 C3712 1.391 . S
C3713 C3717 1.376 . S
C3714 C3712 1.394 . S
C3714 C3715 1.369 . S
C3714 C3718 1.531 . S
C3715 C3714 1.369 . S
C3715 C3716 1.410 . S
C3715 C3723 1.503 1_455 S
C3716 C3715 1.410 . S
C3716 C3717 1.392 . S
C3716 C3719 1.511 1_455 S
C3717 C3713 1.376 . S
C3717 C3716 1.392 . S
C3717 H3729 0.929 . S
C3718 C3714 1.531 . S
C3718 H3730 0.960 . S
C3718 H3731 0.962 . S
C3718 H3732 0.960 . S
C3719 C3716 1.511 1_655 S
C3719 H3733 0.973 . S
C3719 H3734 0.961 . S
C3719 H3735 0.961 . S
C3720 C3721 1.370 . S
C3720 C3722 1.363 . S
C3720 H3736 0.931 . S
C3721 C3720 1.370 . S
C3721 C3725 1.408 . S
C3722 C3720 1.363 . S
C3722 C3723 1.370 . S
C3722 C3726 1.524 . S
C3723 C3715 1.503 1_655 S
C3723 C3722 1.370 . S
C3723 C3724 1.403 . S
C3724 C3723 1.403 . S
C3724 C3725 1.404 . S
C3724 C3727 1.539 1_554 S
C3725 C3721 1.408 . S
C3725 C3724 1.404 . S
C3725 H3737 0.930 . S
C3726 C3722 1.524 . S
C3726 H3738 0.956 1_655 S
C3726 H3739 0.961 1_655 S
C3726 H3740 0.961 . S
C3727 C3724 1.539 1_556 S
C3727 H3741 0.958 . S
C3727 H3742 0.961 . S
C3727 H3743 0.960 . S
H3728 C3712 0.931 . S
H3729 C3717 0.929 . S
H3730 C3718 0.960 . S
H3731 C3718 0.962 . S
H3732 C3718 0.960 . S
H3733 C3719 0.973 . S
H3734 C3719 0.961 . S
H3735 C3719 0.961 . S
H3736 C3720 0.931 . S
H3737 C3725 0.930 . S
H3738 C3726 0.956 1_455 S
H3739 C3726 0.961 1_455 S
H3740 C3726 0.961 . S
H3741 C3727 0.958 . S
H3742 C3727 0.961 . S
H3743 C3727 0.960 . S
C673 C22 1.718 . S
C681 C8 1.723 . S
C705 C36 1.724 . S
C713 C50 1.722 . S
C737 C92 1.695 . S
C745 C64 1.715 . S
C769 C106 1.692 . S
C777 C78 1.713 . S
C801 C120 1.711 . S
C809 C484 1.708 . S
C833 C134 1.692 . S
C841 C162 1.713 . S
C865 C456 1.710 . S
C873 C148 1.721 . S
C897 C190 1.728 . S
C905 C176 1.714 . S
C929 C218 1.692 . S
C937 C204 1.711 . S
C961 C260 1.709 . S
C969 C232 1.722 . S
C993 C274 1.701 . S
C1001 C246 1.720 . S
C1025 C288 1.728 . S
C1033 C652 1.714 . S
C1057 C302 1.722 . S
C1065 C330 1.722 . S
C1089 C624 1.728 . S
C1097 C316 1.719 . S
C1121 C344 1.699 . S
C1129 C358 1.707 . S
C1153 C386 1.724 . S
C1161 C372 1.722 . S
C1185 C400 1.692 . S
C1193 C428 1.713 . S
C1217 C442 1.699 . S
C1225 C414 1.718 . S
C1249 C498 1.695 . S
C1257 C470 1.707 . S
C1281 C526 1.725 . S
C1289 C512 1.711 . S
C1313 C540 1.710 . S
C1321 C554 1.707 . S
C1345 C596 1.700 . S
C1353 C568 1.720 . S
C1377 C582 1.719 . S
C1385 C610 1.722 . S
C1409 C638 1.717 . S
C1417 C666 1.708 . S
C1441 C619 1.293 . S
C1449 C7 1.298 . S
C1473 C325 1.288 . S
C1481 C21 1.304 . S
C1505 C633 1.293 . S
C1513 C35 1.306 . S
C1537 C49 1.268 . S
C1545 C647 1.321 . S
C1569 C63 1.247 . S
C1577 C507 1.330 . S
C1601 C521 1.302 . S
C1609 C77 1.303 . S
C1633 C91 1.254 . S
C1641 C535 1.331 . S
C1665 C549 1.290 . S
C1673 C105 1.306 . S
C1697 C563 1.308 . S
C1705 C119 1.288 . S
C1729 C133 1.325 . S
C1737 C591 1.308 . S
C1761 C605 1.328 . S
C1769 C147 1.278 . S
C1793 C161 1.249 . S
C1801 C241 1.329 . S
C1825 C175 1.310 . S
C1833 C451 1.308 . S
C1857 C189 1.326 . S
C1865 C157 1.310 . S
C1889 C203 1.254 . S
C1897 C465 1.331 . S
C1921 C217 1.257 . S
C1929 C479 1.331 . S
C1953 C339 1.292 . S
C1961 C231 1.295 . S
C1985 C353 1.297 . S
C1993 C245 1.291 . S
C2017 C259 1.278 . S
C2025 C367 1.314 . S
C2049 C273 1.280 . S
C2057 C381 1.329 . S
C2081 C287 1.314 . S
C2089 C395 1.319 . S
C2113 C301 1.296 . S
C2121 C423 1.325 . S
C2145 C437 1.332 . S
C2153 C315 1.274 . S
C2177 C73 1.344 . S
C2185 C329 1.277 . S
C2209 C343 1.302 . S
C2217 C283 1.320 . S
C2241 C357 1.250 . S
C2249 C661 1.331 . S
C2273 C371 1.268 . S
C2281 C297 1.321 . S
C2305 C385 1.324 . S
C2313 C311 1.311 . S
C2337 C171 1.296 . S
C2345 C399 1.296 . S
C2369 C413 1.320 . S
C2377 C185 1.308 . S
C2401 C199 1.331 . S
C2409 C427 1.277 . S
C2433 C213 1.295 . S
C2441 C441 1.297 . S
C2465 C227 1.318 . S
C2473 C455 1.295 . S
C2497 C255 1.288 . S
C2505 C469 1.304 . S
C2529 C483 1.248 . S
C2537 C269 1.329 . S
C2561 C497 1.247 . S
C2569 C577 1.331 . S
C2593 C115 1.341 . S
C2601 C511 1.274 . S
C2625 C525 1.317 . S
C2633 C493 1.318 . S
C2657 C539 1.326 . S
C2665 C129 1.310 . S
C2689 C143 1.331 . S
C2697 C553 1.293 . S
C2721 C567 1.320 . S
C2729 C3 1.308 . S
C2753 C581 1.271 . S
C2761 C17 1.316 . S
C2785 C31 1.314 . S
C2793 C595 1.302 . S
C2817 C609 1.323 . S
C2825 C45 1.308 . S
C2849 C623 1.305 . S
C2857 C59 1.322 . S
C2881 C87 1.324 . S
C2889 C637 1.297 . S
C2913 C651 1.319 . S
C2921 C101 1.308 . S
C2945 C409 1.321 . S
C2953 C665 1.299 . S
C2977 C37 0.967 . S
C2985 C9 0.928 . S
C3009 C51 0.973 . S
C3017 C23 0.934 . S
C3041 C443 0.899 . S
C3049 C65 0.929 . S
C3073 C429 0.883 . S
C3081 C79 0.897 . S
C3105 C415 0.870 . S
C3113 C93 0.898 . S
C3137 C107 0.949 . S
C3145 C401 0.943 . S
C3169 C121 0.972 . S
C3177 C499 0.932 . S
C3201 C149 0.910 . S
C3209 C135 0.902 . S
C3233 C163 0.918 . S
C3241 C457 0.936 . S
C3265 C205 0.928 . S
C3273 C177 0.942 . S
C3297 C219 0.865 . S
C3305 C191 0.915 . S
C3329 C611 0.863 . S
C3337 C233 0.912 . S
C3361 C597 0.974 . S
C3369 C247 0.930 . S
C3393 C261 0.864 . S
C3401 C583 0.914 . S
C3425 C275 0.863 . S
C3433 C569 0.910 . S
C3457 C667 0.969 . S
C3465 C289 0.922 . S
C3489 C317 0.957 . S
C3497 C303 0.913 . S
C3521 C331 0.868 . S
C3529 C625 0.919 . S
C3553 C373 0.964 . S
C3561 C345 0.925 . S
C3585 C359 0.968 . S
C3593 C387 0.928 . S
C3617 C485 0.879 . S
C3625 C471 0.920 . S
C3649 C513 0.934 . S
C3657 C541 0.903 . S
C3681 C527 0.928 . S
C3689 C555 0.902 . S
C3713 C639 0.974 . S
C3721 C653 0.934 . S
