# Generated by pormake.
# Topology uoc, (4)-cn, num edge types: 1
# Building blocks:
#     Node 0, Type 0, BuildingBlock: GALJAG_clean_sbu_0, # of connection points: 4
#     Node 1, Type 0, BuildingBlock: GALJAG_clean_sbu_0, # of connection points: 4
#     Node 2, Type 0, BuildingBlock: GALJAG_clean_sbu_0, # of connection points: 4
#     Node 3, Type 0, BuildingBlock: GALJAG_clean_sbu_0, # of connection points: 4
#     Node 4, Type 0, BuildingBlock: GALJAG_clean_sbu_0, # of connection points: 4
#     Node 5, Type 0, BuildingBlock: GALJAG_clean_sbu_0, # of connection points: 4
#     Node 6, Type 0, BuildingBlock: GALJAG_clean_sbu_0, # of connection points: 4
#     Node 7, Type 0, BuildingBlock: GALJAG_clean_sbu_0, # of connection points: 4
#     Edge 8, Type (0, 0), BuildingBlock: TEMPAE_clean_linker_10, # of connection points: 2
#     Edge 9, Type (0, 0), BuildingBlock: TEMPAE_clean_linker_10, # of connection points: 2
#     Edge 10, Type (0, 0), BuildingBlock: TEMPAE_clean_linker_10, # of connection points: 2
#     Edge 11, Type (0, 0), BuildingBlock: TEMPAE_clean_linker_10, # of connection points: 2
#     Edge 12, Type (0, 0), BuildingBlock: TEMPAE_clean_linker_10, # of connection points: 2
#     Edge 13, Type (0, 0), BuildingBlock: TEMPAE_clean_linker_10, # of connection points: 2
#     Edge 14, Type (0, 0), BuildingBlock: TEMPAE_clean_linker_10, # of connection points: 2
#     Edge 15, Type (0, 0), BuildingBlock: TEMPAE_clean_linker_10, # of connection points: 2
#     Edge 16, Type (0, 0), BuildingBlock: TEMPAE_clean_linker_10, # of connection points: 2
#     Edge 17, Type (0, 0), BuildingBlock: TEMPAE_clean_linker_10, # of connection points: 2
#     Edge 18, Type (0, 0), BuildingBlock: TEMPAE_clean_linker_10, # of connection points: 2
#     Edge 19, Type (0, 0), BuildingBlock: TEMPAE_clean_linker_10, # of connection points: 2
#     Edge 20, Type (0, 0), BuildingBlock: TEMPAE_clean_linker_10, # of connection points: 2
#     Edge 21, Type (0, 0), BuildingBlock: TEMPAE_clean_linker_10, # of connection points: 2
#     Edge 22, Type (0, 0), BuildingBlock: TEMPAE_clean_linker_10, # of connection points: 2
#     Edge 23, Type (0, 0), BuildingBlock: TEMPAE_clean_linker_10, # of connection points: 2
# Relax obj value: 0.017
# Max RMSD: 0.050
# Mean RMSD: 0.050
data_MOF--net-uoc--node1-GALJAG_clean_sbu_0--edge1-TEMPAE_clean_linker_10
_symmetry_space_group_name_H-M    P1
_symmetry_Int_Tables_number       1
_symmetry_cell_setting            triclinic
loop_
_symmetry_equiv_pos_as_xyz
'x, y, z'
_cell_length_a     28.145061
_cell_length_b     28.119172
_cell_length_c     56.076237
_cell_angle_alpha  89.991601
_cell_angle_beta   89.990122
_cell_angle_gamma 90.35578
loop_
_atom_site_label
_atom_site_type_symbol
_atom_site_fract_x
_atom_site_fract_y
_atom_site_fract_z
_atom_type_partial_charge
In0 In 0.11096 0.24965 0.12051 0.0
O1 O 0.04729 0.2981 0.12696 0.0
O2 O 0.11151 0.32941 0.11423 0.0
C3 C 0.07072 0.16266 0.11992 0.0
C4 C 0.15002 0.254 0.16417 0.0
C5 C 0.15158 0.24459 0.07725 0.0
O6 O 0.04809 0.19951 0.114 0.0
O7 O 0.1132 0.16989 0.12617 0.0
O8 O 0.17603 0.24252 0.09617 0.0
O9 O 0.10753 0.24955 0.08043 0.0
C10 C 0.06905 0.33547 0.12066 0.0
O11 O 0.17483 0.25921 0.14551 0.0
O12 O 0.10638 0.24668 0.16054 0.0
In13 In 0.75049 0.60941 0.3757 0.0
O14 O 0.75052 0.67286 0.34998 0.0
O15 O 0.77213 0.60519 0.33706 0.0
C16 C 0.73819 0.65585 0.41712 0.0
C17 C 0.83362 0.5642 0.38244 0.0
C18 C 0.66457 0.56782 0.37067 0.0
O19 O 0.75545 0.67636 0.39897 0.0
O20 O 0.7272 0.61273 0.41411 0.0
O21 O 0.69892 0.54714 0.3807 0.0
O22 O 0.6738 0.60903 0.36304 0.0
C23 C 0.76483 0.64842 0.33249 0.0
O24 O 0.79829 0.54427 0.3727 0.0
O25 O 0.82674 0.60644 0.38905 0.0
In26 In 0.39285 0.24828 0.62126 0.0
O27 O 0.45633 0.19825 0.61803 0.0
O28 O 0.39188 0.17042 0.63225 0.0
C29 C 0.43574 0.33383 0.61658 0.0
C30 C 0.34947 0.25954 0.66365 0.0
C31 C 0.35173 0.23775 0.57825 0.0
O32 O 0.45663 0.29845 0.62556 0.0
O33 O 0.3937 0.32585 0.60988 0.0
O34 O 0.32821 0.24933 0.59655 0.0
O35 O 0.39535 0.23075 0.58192 0.0
C36 C 0.43437 0.16264 0.62639 0.0
O37 O 0.32678 0.24781 0.64507 0.0
O38 O 0.39341 0.2661 0.66058 0.0
In39 In 0.74366 0.88745 0.87096 0.0
O40 O 0.74819 0.82005 0.84768 0.0
O41 O 0.72949 0.88551 0.83144 0.0
C42 C 0.74687 0.85381 0.91567 0.0
C43 C 0.65807 0.92896 0.87414 0.0
C44 C 0.83044 0.92806 0.86773 0.0
O45 O 0.74038 0.82672 0.89791 0.0
O46 O 0.75154 0.89742 0.9107 0.0
O47 O 0.79282 0.95116 0.86404 0.0
O48 O 0.82423 0.88487 0.87294 0.0
C49 C 0.73699 0.84177 0.82881 0.0
O50 O 0.6951 0.95201 0.86852 0.0
O51 O 0.66437 0.88536 0.87829 0.0
In52 In 0.61817 0.74962 0.62265 0.0
O53 O 0.55431 0.79862 0.61792 0.0
O54 O 0.61542 0.82635 0.63548 0.0
C55 C 0.57486 0.66448 0.61697 0.0
C56 C 0.66103 0.73778 0.66513 0.0
C57 C 0.66221 0.76206 0.58048 0.0
O58 O 0.55444 0.69934 0.62668 0.0
O59 O 0.61661 0.67282 0.60993 0.0
O60 O 0.68374 0.7462 0.59857 0.0
O61 O 0.61922 0.7723 0.58396 0.0
C62 C 0.57394 0.83385 0.62792 0.0
O63 O 0.68316 0.75357 0.64714 0.0
O64 O 0.61798 0.72757 0.66142 0.0
In65 In 0.24551 0.11252 0.86791 0.0
O66 O 0.2455 0.1797 0.84436 0.0
O67 O 0.2579 0.11263 0.82821 0.0
C68 C 0.24162 0.14663 0.91249 0.0
C69 C 0.33058 0.0701 0.87178 0.0
C70 C 0.1579 0.07378 0.865 0.0
O71 O 0.2479 0.17362 0.89467 0.0
O72 O 0.23743 0.10292 0.90764 0.0
O73 O 0.19502 0.04959 0.86181 0.0
O74 O 0.16502 0.11719 0.86944 0.0
C75 C 0.25412 0.15685 0.82546 0.0
O76 O 0.29359 0.04745 0.8657 0.0
O77 O 0.32452 0.11371 0.87593 0.0
In78 In 0.88369 0.74854 0.12231 0.0
O79 O 0.82061 0.73973 0.14785 0.0
O80 O 0.88948 0.75274 0.16229 0.0
C81 C 0.84133 0.75457 0.07951 0.0
C82 C 0.92408 0.66195 0.12224 0.0
C83 C 0.92562 0.83468 0.12127 0.0
O84 O 0.81776 0.75706 0.09869 0.0
O85 O 0.88538 0.7487 0.0822 0.0
O86 O 0.94718 0.79746 0.11494 0.0
O87 O 0.88339 0.82826 0.12811 0.0
C88 C 0.84593 0.74559 0.16628 0.0
O89 O 0.9468 0.69902 0.12811 0.0
O90 O 0.88141 0.66869 0.11638 0.0
In91 In 0.24845 0.38734 0.3738 0.0
O92 O 0.24784 0.32474 0.34761 0.0
O93 O 0.23033 0.39374 0.33479 0.0
C94 C 0.26262 0.34294 0.41563 0.0
C95 C 0.16282 0.42757 0.38045 0.0
C96 C 0.33364 0.43042 0.36906 0.0
O97 O 0.24976 0.32038 0.39718 0.0
O98 O 0.26814 0.3871 0.41273 0.0
O99 O 0.29816 0.45139 0.37788 0.0
O100 O 0.32588 0.3882 0.36248 0.0
C101 C 0.23605 0.35032 0.33004 0.0
O102 O 0.19805 0.45064 0.37249 0.0
O103 O 0.17099 0.38458 0.38526 0.0
C104 C 0.14156 0.24103 0.03328 0.0
C105 C 0.17173 0.2387 0.05313 0.0
C106 C 0.15811 0.23038 0.01038 0.0
C107 C 0.20616 0.21732 0.0072 0.0
C108 C 0.23753 0.21745 0.02696 0.0
C109 C 0.21985 0.22802 0.04979 0.0
C110 C 0.12345 0.2306 0.9898 0.0
C111 C 0.28912 0.2043 0.02415 0.0
C112 C 0.22389 0.13325 0.95543 0.0
C113 C 0.23737 0.16452 0.93715 0.0
C114 C 0.21572 0.14979 0.9786 0.0
C115 C 0.22165 0.19877 0.98368 0.0
C116 C 0.23755 0.23019 0.96559 0.0
C117 C 0.24493 0.21271 0.94242 0.0
C118 C 0.19842 0.11516 -0.00265 0.0
C119 C 0.24491 0.2825 0.97047 0.0
H120 H 0.10438 0.24966 0.03571 0.0
H121 H 0.24336 0.22647 0.06508 0.0
H122 H 0.13769 0.25221 0.97485 0.0
H123 H 0.11835 0.19379 0.98309 0.0
H124 H 0.08822 0.24494 0.99497 0.0
H125 H 0.31011 0.21237 0.04045 0.0
H126 H 0.29191 0.16568 0.02038 0.0
H127 H 0.30517 0.22353 0.00883 0.0
H128 H 0.21818 0.09591 0.95147 0.0
H129 H 0.25578 0.23692 0.92836 0.0
H130 H 0.16157 0.12423 0.00262 0.0
H131 H 0.22084 0.11772 0.01356 0.0
H132 H 0.19873 0.07778 0.99093 0.0
H133 H 0.21001 0.29969 0.97335 0.0
H134 H 0.26319 0.30085 0.95547 0.0
H135 H 0.2661 0.28768 0.98696 0.0
C136 C 0.7582 0.71439 0.3026 0.0
C137 C 0.77217 0.66801 0.30835 0.0
C138 C 0.76514 0.73255 0.27949 0.0
C139 C 0.78691 0.7037 0.26196 0.0
C140 C 0.80071 0.65677 0.26771 0.0
C141 C 0.79302 0.63949 0.29079 0.0
C142 C 0.74973 0.78264 0.27388 0.0
C143 C 0.82447 0.62498 0.2496 0.0
C144 C 0.7815 0.72423 0.19524 0.0
C145 C 0.8274 0.74167 0.19082 0.0
C146 C 0.76637 0.71462 0.21863 0.0
C147 C 0.79798 0.72273 0.23789 0.0
C148 C 0.84315 0.74332 0.23358 0.0
C149 C 0.85731 0.75248 0.21009 0.0
C150 C 0.71779 0.69301 0.22259 0.0
C151 C 0.87786 0.75267 0.25361 0.0
H152 H 0.7418 0.73641 0.31612 0.0
H153 H 0.80388 0.6036 0.29514 0.0
H154 H 0.7812 0.80475 0.26928 0.0
H155 H 0.72588 0.78265 0.25813 0.0
H156 H 0.73097 0.7995 0.28909 0.0
H157 H 0.83187 0.58896 0.25679 0.0
H158 H 0.80167 0.62118 0.23357 0.0
H159 H 0.85855 0.64125 0.24376 0.0
H160 H 0.75816 0.71614 0.18038 0.0
H161 H 0.89265 0.76657 0.20678 0.0
H162 H 0.69948 0.71084 0.23762 0.0
H163 H 0.72157 0.65494 0.22739 0.0
H164 H 0.69511 0.69544 0.20643 0.0
H165 H 0.86025 0.77175 0.26845 0.0
H166 H 0.90906 0.77395 0.24762 0.0
H167 H 0.89079 0.71831 0.26077 0.0
C168 C 0.2849 0.25321 0.54997 0.0
C169 C 0.33165 0.23828 0.55393 0.0
C170 C 0.26863 0.26247 0.52677 0.0
C171 C 0.30005 0.25694 0.50724 0.0
C172 C 0.3459 0.23802 0.51104 0.0
C173 C 0.36111 0.22881 0.53436 0.0
C174 C 0.21921 0.28187 0.5234 0.0
C175 C 0.38051 0.23154 0.49073 0.0
C176 C 0.2588 0.27247 0.44307 0.0
C177 C 0.27104 0.32019 0.43896 0.0
C178 C 0.26702 0.25132 0.46541 0.0
C179 C 0.28842 0.27851 0.4838 0.0
C180 C 0.30062 0.32672 0.47968 0.0
C181 C 0.29157 0.34696 0.45738 0.0
C182 C 0.25314 0.19998 0.46931 0.0
C183 C 0.32393 0.3569 0.49874 0.0
H184 H 0.26183 0.26012 0.56504 0.0
H185 H 0.39714 0.21673 0.5373 0.0
H186 H 0.22142 0.32069 0.51998 0.0
H187 H 0.20169 0.2652 0.50775 0.0
H188 H 0.19663 0.27598 0.53939 0.0
H189 H 0.41172 0.21003 0.49607 0.0
H190 H 0.36294 0.2141 0.47531 0.0
H191 H 0.39342 0.26691 0.48466 0.0
H192 H 0.24269 0.25177 0.42887 0.0
H193 H 0.30117 0.38385 0.45429 0.0
H194 H 0.2293 0.19689 0.485 0.0
H195 H 0.28523 0.17863 0.47322 0.0
H196 H 0.23489 0.18439 0.45356 0.0
H197 H 0.30103 0.35817 0.51483 0.0
H198 H 0.33081 0.39391 0.49267 0.0
H199 H 0.35823 0.34088 0.50412 0.0
C200 C 0.74876 0.77259 0.80114 0.0
C201 C 0.7318 0.81861 0.80534 0.0
C202 C 0.74362 0.75126 0.77857 0.0
C203 C 0.72031 0.77641 0.76012 0.0
C204 C 0.70323 0.82288 0.76439 0.0
C205 C 0.70949 0.84344 0.78686 0.0
C206 C 0.76288 0.70197 0.77448 0.0
C207 C 0.67758 0.85077 0.74532 0.0
C208 C 0.72681 0.75621 0.69371 0.0
C209 C 0.68151 0.73716 0.68936 0.0
C210 C 0.74232 0.76478 0.71713 0.0
C211 C 0.71155 0.75438 0.73645 0.0
C212 C 0.66775 0.73094 0.73218 0.0
C213 C 0.65331 0.72249 0.70865 0.0
C214 C 0.78971 0.78895 0.721 0.0
C215 C 0.63386 0.71918 0.75224 0.0
H216 H 0.76629 0.75346 0.81539 0.0
H217 H 0.69618 0.87898 0.79004 0.0
H218 H 0.73339 0.67715 0.77006 0.0
H219 H 0.78754 0.70219 0.75904 0.0
H220 H 0.78199 0.68809 0.79033 0.0
H221 H 0.66658 0.88652 0.75159 0.0
H222 H 0.70081 0.85534 0.72949 0.0
H223 H 0.64539 0.831 0.73946 0.0
H224 H 0.74901 0.76705 0.67885 0.0
H225 H 0.61851 0.70708 0.70539 0.0
H226 H 0.80824 0.7737 0.73666 0.0
H227 H 0.78398 0.82729 0.72461 0.0
H228 H 0.81308 0.78582 0.70511 0.0
H229 H 0.65299 0.70336 0.76756 0.0
H230 H 0.6054 0.69414 0.74648 0.0
H231 H 0.61689 0.75238 0.75859 0.0
C232 C 0.24077 0.2846 0.29992 0.0
C233 C 0.22916 0.33163 0.30568 0.0
C234 C 0.23338 0.26697 0.27675 0.0
C235 C 0.21347 0.29702 0.25917 0.0
C236 C 0.20246 0.34472 0.26486 0.0
C237 C 0.21063 0.36145 0.288 0.0
C238 C 0.24595 0.21606 0.27119 0.0
C239 C 0.18073 0.37781 0.24669 0.0
C240 C 0.21598 0.27413 0.19252 0.0
C241 C 0.16921 0.25871 0.18856 0.0
C242 C 0.23214 0.28396 0.21573 0.0
C243 C 0.20064 0.2783 0.23525 0.0
C244 C 0.15432 0.26006 0.23141 0.0
C245 C 0.13921 0.25047 0.20812 0.0
C246 C 0.28194 0.3029 0.2192 0.0
C247 C 0.11961 0.25351 0.25172 0.0
H248 H 0.25544 0.26156 0.31352 0.0
H249 H 0.20167 0.39788 0.29235 0.0
H250 H 0.21314 0.19547 0.26725 0.0
H251 H 0.26876 0.21447 0.25508 0.0
H252 H 0.26477 0.1986 0.28621 0.0
H253 H 0.17597 0.41438 0.25376 0.0
H254 H 0.20345 0.37976 0.23055 0.0
H255 H 0.14552 0.36384 0.24107 0.0
H256 H 0.23937 0.28023 0.17746 0.0
H257 H 0.10314 0.23803 0.20518 0.0
H258 H 0.29963 0.28442 0.23423 0.0
H259 H 0.28047 0.34125 0.22378 0.0
H260 H 0.30399 0.29879 0.20291 0.0
H261 H 0.13623 0.23332 0.26648 0.0
H262 H 0.08677 0.23451 0.24606 0.0
H263 H 0.10948 0.28881 0.25889 0.0
C264 C 0.65613 0.77888 0.53704 0.0
C265 C 0.68305 0.76229 0.55632 0.0
C266 C 0.67019 0.76998 0.5135 0.0
C267 C 0.71218 0.74393 0.50923 0.0
C268 C 0.74191 0.73135 0.52858 0.0
C269 C 0.72691 0.74064 0.55199 0.0
C270 C 0.63761 0.78434 0.49339 0.0
C271 C 0.78733 0.70415 0.52473 0.0
C272 C 0.70584 0.65618 0.45826 0.0
C273 C 0.73165 0.67954 0.44036 0.0
C274 C 0.6995 0.67692 0.48068 0.0
C275 C 0.71985 0.7221 0.48544 0.0
C276 C 0.74611 0.74598 0.46748 0.0
C277 C 0.75153 0.72444 0.44501 0.0
C278 C 0.67077 0.65041 0.49926 0.0
C279 C 0.76856 0.79399 0.47205 0.0
H280 H 0.62248 0.79629 0.5403 0.0
H281 H 0.7481 0.7282 0.56685 0.0
H282 H 0.65817 0.79903 0.47819 0.0
H283 H 0.61807 0.75251 0.48686 0.0
H284 H 0.6112 0.81118 0.49919 0.0
H285 H 0.8105 0.70502 0.54076 0.0
H286 H 0.7786 0.66647 0.52066 0.0
H287 H 0.80744 0.71872 0.50933 0.0
H288 H 0.69028 0.62152 0.45473 0.0
H289 H 0.77172 0.74246 0.4312 0.0
H290 H 0.63995 0.67215 0.50486 0.0
H291 H 0.69281 0.64397 0.51532 0.0
H292 H 0.6573 0.61563 0.49262 0.0
H293 H 0.74091 0.82001 0.47716 0.0
H294 H 0.78794 0.80781 0.45622 0.0
H295 H 0.79377 0.79156 0.4872 0.0
C296 C 0.28028 0.24685 0.691 0.0
C297 C 0.32796 0.25988 0.68767 0.0
C298 C 0.26226 0.23846 0.71399 0.0
C299 C 0.2929 0.24273 0.73392 0.0
C300 C 0.33985 0.25988 0.73074 0.0
C301 C 0.35675 0.26844 0.70763 0.0
C302 C 0.21167 0.22123 0.71672 0.0
C303 C 0.37375 0.26487 0.75147 0.0
C304 C 0.25096 0.22743 0.79805 0.0
C305 C 0.26132 0.17935 0.80194 0.0
C306 C 0.25936 0.24854 0.77567 0.0
C307 C 0.27933 0.22097 0.7571 0.0
C308 C 0.28919 0.17228 0.76095 0.0
C309 C 0.27973 0.15206 0.78324 0.0
C310 C 0.24766 0.30032 0.77201 0.0
C311 C 0.31102 0.14166 0.74173 0.0
H312 H 0.2577 0.24078 0.67563 0.0
H313 H 0.3935 0.27912 0.70518 0.0
H314 H 0.21149 0.18223 0.71972 0.0
H315 H 0.19452 0.23805 0.73238 0.0
H316 H 0.19012 0.2288 0.70058 0.0
H317 H 0.40635 0.28508 0.74655 0.0
H318 H 0.35641 0.28299 0.76669 0.0
H319 H 0.38444 0.22898 0.75764 0.0
H320 H 0.23643 0.24852 0.81246 0.0
H321 H 0.28785 0.11487 0.78615 0.0
H322 H 0.22593 0.30482 0.75566 0.0
H323 H 0.28089 0.32109 0.76943 0.0
H324 H 0.22806 0.31549 0.7874 0.0
H325 H 0.28827 0.14176 0.72558 0.0
H326 H 0.31584 0.10424 0.74757 0.0
H327 H 0.34622 0.15637 0.73656 0.0
C328 C 0.84963 0.75874 0.03546 0.0
C329 C 0.82027 0.76096 0.05562 0.0
C330 C 0.83222 0.76973 0.01277 0.0
C331 C 0.78411 0.78302 0.01012 0.0
C332 C 0.75354 0.78283 0.03019 0.0
C333 C 0.77208 0.77194 0.05281 0.0
C334 C 0.86606 0.76959 0.99184 0.0
C335 C 0.70189 0.79617 0.02794 0.0
C336 C 0.76508 0.86727 0.95854 0.0
C337 C 0.75114 0.83603 0.94034 0.0
C338 C 0.7737 0.85069 0.98167 0.0
C339 C 0.76775 0.80172 0.98678 0.0
C340 C 0.75122 0.77039 0.9688 0.0
C341 C 0.74339 0.7879 0.94568 0.0
C342 C 0.79166 0.88522 0.00029 0.0
C343 C 0.74377 0.7181 0.97372 0.0
H344 H 0.88685 0.74989 0.03749 0.0
H345 H 0.74919 0.7734 0.06834 0.0
H346 H 0.85123 0.74801 0.97703 0.0
H347 H 0.87088 0.80641 0.9851 0.0
H348 H 0.90149 0.75524 -0.00336 0.0
H349 H 0.68154 0.78806 0.04444 0.0
H350 H 0.69908 0.83482 0.02426 0.0
H351 H 0.68517 0.77709 0.01276 0.0
H352 H 0.77091 0.90457 0.95454 0.0
H353 H 0.73218 0.76372 0.93168 0.0
H354 H 0.82872 0.87616 0.0052 0.0
H355 H 0.76986 0.88256 0.01672 0.0
H356 H 0.79108 0.92263 0.99393 0.0
H357 H 0.7787 0.70069 0.97616 0.0
H358 H 0.7247 0.69992 0.95892 0.0
H359 H 0.72333 0.71295 0.99045 0.0
C360 C 0.06938 0.07847 0.13355 0.0
C361 C 0.04951 0.11463 0.11963 0.0
C362 C 0.04967 0.03257 0.13369 0.0
C363 C 0.0099 0.02239 0.11907 0.0
C364 C 0.9902 0.05861 0.10464 0.0
C365 C 0.0099 0.10458 0.10534 0.0
C366 C 0.07093 0.9952 0.14976 0.0
C367 C 0.94847 0.04875 0.08843 0.0
C368 C 0.98559 0.89221 0.1053 0.0
C369 C 0.94768 0.88231 0.12073 0.0
C370 C 0.00566 0.938 0.10421 0.0
C371 C 0.98818 0.97412 0.11941 0.0
C372 C 0.95034 0.96398 0.13527 0.0
C373 C 0.9301 0.91832 0.1355 0.0
C374 C 0.04523 0.94784 0.08667 0.0
C375 C 0.93155 0.0012 0.15219 0.0
H376 H 0.09991 0.0863 0.1447 0.0
H377 H 0.9948 0.13248 0.09442 0.0
H378 H 0.04355 0.98177 0.16235 0.0
H379 H 0.08305 0.96447 0.13901 0.0
H380 H 0.10155 0.00907 0.1602 0.0
H381 H 0.9388 0.08022 0.07752 0.0
H382 H 0.95681 0.01879 0.07628 0.0
H383 H 0.9171 0.03794 0.09915 0.0
H384 H -0.00112 0.86441 0.09373 0.0
H385 H 0.90092 0.91056 0.14754 0.0
H386 H 0.07787 0.95885 0.09633 0.0
H387 H 0.03524 0.97768 0.07477 0.0
H388 H 0.05358 0.91632 0.07552 0.0
H389 H 0.96074 0.01464 0.16371 0.0
H390 H 0.90265 0.9872 0.16377 0.0
H391 H 0.91774 0.03195 0.14199 0.0
C392 C 0.08063 0.42585 0.3971 0.0
C393 C 0.11508 0.44837 0.38292 0.0
C394 C 0.03439 0.44393 0.39873 0.0
C395 C 0.02213 0.48482 0.38542 0.0
C396 C 0.05693 0.50789 0.37121 0.0
C397 C 0.1032 0.48966 0.37034 0.0
C398 C -0.00144 0.41904 0.41451 0.0
C399 C 0.04499 0.55112 0.35645 0.0
C400 C 0.89273 0.50408 0.36917 0.0
C401 C 0.88042 0.54129 0.38452 0.0
C402 C 0.93869 0.48503 0.36942 0.0
C403 C 0.97263 0.50291 0.38583 0.0
C404 C 0.95972 0.53922 0.40203 0.0
C405 C 0.91388 0.55844 0.40095 0.0
C406 C 0.9514 0.44694 0.35158 0.0
C407 C 0.99454 0.55831 0.42019 0.0
H408 H 0.08986 0.39404 0.40695 0.0
H409 H 0.12972 0.50694 0.35926 0.0
H410 H 0.98289 0.44472 0.42726 0.0
H411 H 0.96905 0.40464 0.40351 0.0
H412 H 0.01452 0.38932 0.42474 0.0
H413 H 0.07615 0.56492 0.34638 0.0
H414 H 0.01637 0.54213 0.34357 0.0
H415 H 0.03144 0.57989 0.36809 0.0
H416 H 0.86695 0.49104 0.35634 0.0
H417 H 0.90426 0.58707 0.41294 0.0
H418 H 0.96476 0.41494 0.36094 0.0
H419 H 0.98039 0.45996 0.33981 0.0
H420 H 0.92067 0.43635 0.3403 0.0
H421 H 0.00972 0.52866 0.43073 0.0
H422 H 0.97783 0.58401 0.43263 0.0
H423 H 0.02449 0.57638 0.41098 0.0
C424 C 0.497 0.39344 0.62905 0.0
C425 C 0.45774 0.38149 0.61487 0.0
C426 C 0.51609 0.43968 0.62874 0.0
C427 C 0.49599 0.47436 0.61351 0.0
C428 C 0.45723 0.46201 0.59863 0.0
C429 C 0.43822 0.41582 0.59969 0.0
C430 C 0.55701 0.45172 0.64512 0.0
C431 C 0.43553 0.4977 0.58178 0.0
C432 C 0.5139 0.60456 0.62939 0.0
C433 C 0.55287 0.61684 0.61507 0.0
C434 C 0.49493 0.55828 0.629 0.0
C435 C 0.51487 0.52387 0.61357 0.0
C436 C 0.55334 0.53654 0.59856 0.0
C437 C 0.57222 0.58279 0.59967 0.0
C438 C 0.4543 0.54591 0.64551 0.0
C439 C 0.57487 0.50114 0.58151 0.0
H440 H 0.51197 0.36699 0.64089 0.0
H441 H 0.40801 0.40654 0.58859 0.0
H442 H 0.58766 0.46518 0.63461 0.0
H443 H 0.54643 0.48048 0.65754 0.0
H444 H 0.56876 0.4206 0.65575 0.0
H445 H 0.4072 0.4817 0.57049 0.0
H446 H 0.42004 0.52752 0.59206 0.0
H447 H 0.46335 0.513 0.56998 0.0
H448 H 0.49907 0.63077 0.64141 0.0
H449 H 0.60223 0.5923 0.58848 0.0
H450 H 0.46511 0.51693 0.65777 0.0
H451 H 0.42349 0.53262 0.63508 0.0
H452 H 0.44271 0.57683 0.65634 0.0
H453 H 0.59054 0.47119 0.59163 0.0
H454 H 0.60302 0.51735 0.57017 0.0
H455 H 0.54691 0.48597 0.56976 0.0
C456 C 0.5751 0.9306 0.88948 0.0
C457 C 0.6106 0.95064 0.87507 0.0
C458 C 0.52925 0.94984 0.89003 0.0
C459 C 0.51841 0.98908 0.87523 0.0
C460 C 0.55419 0.00933 0.86056 0.0
C461 C 0.60016 0.99027 0.86094 0.0
C462 C 0.49246 0.92822 0.90644 0.0
C463 C 0.54367 0.05045 0.8441 0.0
C464 C 0.3889 0.00866 0.85915 0.0
C465 C 0.37772 0.04792 0.87339 0.0
C466 C 0.43474 0.98927 0.85946 0.0
C467 C 0.46955 0.00877 0.87493 0.0
C468 C 0.45787 0.04754 0.88988 0.0
C469 C 0.41225 0.06715 0.88864 0.0
C470 C 0.44623 0.94869 0.84283 0.0
C471 C 0.49356 0.06835 0.90713 0.0
H472 H 0.58333 0.90008 0.90052 0.0
H473 H 0.62757 0.00547 0.84964 0.0
H474 H 0.47761 0.95601 0.9183 0.0
H475 H 0.46256 0.91345 0.89584 0.0
H476 H 0.5073 0.89934 0.91767 0.0
H477 H 0.57523 0.06148 0.83351 0.0
H478 H 0.51464 0.04047 0.83164 0.0
H479 H 0.53124 0.08145 0.85456 0.0
H480 H 0.36223 0.99407 0.84722 0.0
H481 H 0.40342 0.09736 0.89977 0.0
H482 H 0.45811 0.91736 0.8532 0.0
H483 H 0.47594 0.95912 0.83087 0.0
H484 H 0.4153 0.93801 0.83171 0.0
H485 H 0.50766 0.04 0.91889 0.0
H486 H 0.47798 0.09668 0.91845 0.0
H487 H 0.52412 0.08362 0.8972 0.0
C488 C 0.98523 0.60448 0.13635 0.0
C489 C 0.94543 0.6142 0.12222 0.0
C490 C 0.00498 0.55875 0.13685 0.0
C491 C 0.98515 0.52244 0.12237 0.0
C492 C 0.94526 0.53233 0.10786 0.0
C493 C 0.92548 0.57797 0.10822 0.0
C494 C 0.04681 0.54921 0.15297 0.0
C495 C 0.92385 0.4949 0.09173 0.0
C496 C 0.0647 0.41894 0.10612 0.0
C497 C 0.047 0.38287 0.12095 0.0
C498 C 0.04451 0.46439 0.10621 0.0
C499 C 0.00662 0.47429 0.12202 0.0
C500 C 0.989 0.43808 0.13727 0.0
C501 C 0.009 0.3925 0.13629 0.0
C502 C 0.06342 0.50168 0.08923 0.0
C503 C 0.94943 0.44766 0.15477 0.0
H504 H 0.00041 0.63241 0.14734 0.0
H505 H 0.8948 0.58556 0.09719 0.0
H506 H 0.0384 0.51922 0.16516 0.0
H507 H 0.07802 0.53857 0.14218 0.0
H508 H 0.05676 0.58076 0.16384 0.0
H509 H 0.89338 0.50862 0.08125 0.0
H510 H 0.95121 0.48165 0.07917 0.0
H511 H 0.91147 0.46406 0.10244 0.0
H512 H 0.09396 0.41138 0.09415 0.0
H513 H 0.99561 0.36466 0.14792 0.0
H514 H 0.07749 0.53254 0.09939 0.0
H515 H 0.03425 0.51493 0.07775 0.0
H516 H 0.09217 0.48782 0.07762 0.0
H517 H 0.95957 0.47755 0.16668 0.0
H518 H 0.94087 0.41608 0.16592 0.0
H519 H 0.91688 0.45846 0.14509 0.0
C520 C 0.41619 0.43216 0.35299 0.0
C521 C 0.38124 0.45246 0.36752 0.0
C522 C 0.46238 0.4511 0.35223 0.0
C523 C 0.47404 0.49067 0.36673 0.0
C524 C 0.43871 0.51163 0.38126 0.0
C525 C 0.39253 0.49251 0.3813 0.0
C526 C 0.49883 0.42842 0.33614 0.0
C527 C 0.45001 0.55347 0.3972 0.0
C528 C 0.60347 0.50866 0.38372 0.0
C529 C 0.61665 0.54659 0.36889 0.0
C530 C 0.55707 0.49014 0.38322 0.0
C531 C 0.52349 0.50944 0.36715 0.0
C532 C 0.53703 0.54697 0.35171 0.0
C533 C 0.58337 0.56544 0.35295 0.0
C534 C 0.54371 0.45057 0.40021 0.0
C535 C 0.5025 0.56776 0.33399 0.0
H536 H 0.40744 0.40132 0.3422 0.0
H537 H 0.3656 0.50809 0.39265 0.0
H538 H 0.51478 0.4556 0.32418 0.0
H539 H 0.52803 0.4134 0.34702 0.0
H540 H 0.48334 0.39951 0.32504 0.0
H541 H 0.41839 0.56594 0.40721 0.0
H542 H 0.47799 0.54348 0.41018 0.0
H543 H 0.46419 0.58347 0.38645 0.0
H544 H 0.62909 0.49425 0.39617 0.0
H545 H 0.5936 0.59465 0.34137 0.0
H546 H 0.53097 0.4191 0.39009 0.0
H547 H 0.51412 0.46218 0.41187 0.0
H548 H 0.57397 0.43963 0.41164 0.0
H549 H 0.48797 0.53925 0.32236 0.0
H550 H 0.51924 0.59546 0.32257 0.0
H551 H 0.47206 0.58382 0.34355 0.0
C552 C 0.49676 0.10385 0.61535 0.0
C553 C 0.45585 0.11503 0.62836 0.0
C554 C 0.51575 0.05781 0.61596 0.0
C555 C 0.49379 0.02251 0.63032 0.0
C556 C 0.45322 0.03405 0.64401 0.0
C557 C 0.43443 0.08008 0.64267 0.0
C558 C 0.55865 0.04666 0.60083 0.0
C559 C 0.42944 0.99768 0.65992 0.0
C560 C 0.51411 0.893 0.61421 0.0
C561 C 0.55144 0.88101 0.62956 0.0
C562 C 0.49487 0.93893 0.61434 0.0
C563 C 0.51273 0.97325 0.63057 0.0
C564 C 0.54941 0.96079 0.64664 0.0
C565 C 0.56872 0.91493 0.64574 0.0
C566 C 0.45631 0.95111 0.59668 0.0
C567 C 0.5686 0.99604 0.66458 0.0
H568 H 0.51324 0.13076 0.60418 0.0
H569 H 0.40292 0.08874 0.65287 0.0
H570 H 0.58798 0.0335 0.61222 0.0
H571 H 0.54973 0.01794 0.58799 0.0
H572 H 0.5716 0.07813 0.59071 0.0
H573 H 0.39968 0.01304 0.67034 0.0
H574 H 0.41539 0.96788 0.64899 0.0
H575 H 0.45571 0.98251 0.67252 0.0
H576 H 0.50092 0.86689 0.60159 0.0
H577 H 0.59743 0.90561 0.65772 0.0
H578 H 0.46856 0.98047 0.58493 0.0
H579 H 0.42426 0.96378 0.60621 0.0
H580 H 0.44611 0.92026 0.58537 0.0
H581 H 0.58553 0.02643 0.65517 0.0
H582 H 0.59521 0.9799 0.67671 0.0
H583 H 0.53913 0.01056 0.67547 0.0
C584 C 0.88723 0.98826 0.85134 0.0
C585 C 0.87815 0.94975 0.86654 0.0
C586 C 0.93293 0.0084 0.84983 0.0
C587 C 0.96974 0.99058 0.86449 0.0
C588 C 0.96041 0.95208 0.88011 0.0
C589 C 0.91487 0.93159 0.88064 0.0
C590 C 0.94191 0.04847 0.83244 0.0
C591 C 0.99827 0.93304 0.89658 0.0
C592 C 0.09983 0.01336 0.85001 0.0
C593 C 0.10978 0.05292 0.86436 0.0
C594 C 0.05392 0.99354 0.8493 0.0
C595 C 0.01781 0.01278 0.86395 0.0
C596 C 0.02797 0.0525 0.87865 0.0
C597 C 0.07368 0.0726 0.87835 0.0
C598 C 0.04404 0.95212 0.83286 0.0
C599 C 0.99088 0.07309 0.89509 0.0
H600 H 0.85883 0.00198 0.8403 0.0
H601 H 0.90768 0.90198 0.89252 0.0
H602 H 0.95252 0.08112 0.84222 0.0
H603 H 0.97171 0.03917 0.82038 0.0
H604 H 0.91012 0.05654 0.82146 0.0
H605 H 0.98485 0.90371 0.90807 0.0
H606 H 0.02875 0.9197 0.88604 0.0
H607 H 0.01189 0.96204 0.90818 0.0
H608 H 0.12775 0.99844 0.83905 0.0
H609 H 0.08156 0.10302 0.88959 0.0
H610 H 0.01346 0.96034 0.8211 0.0
H611 H 0.03422 0.92023 0.84345 0.0
H612 H 0.07518 0.9433 0.82155 0.0
H613 H 0.9598 0.08524 0.88463 0.0
H614 H 0.00478 0.10358 0.90564 0.0
H615 H 0.978 0.04526 0.90759 0.0
loop_
_geom_bond_atom_site_label_1
_geom_bond_atom_site_label_2
_geom_bond_distance
_geom_bond_site_symmetry_2
_ccdc_geom_bond_type
In0 O1 2.294 . S
In0 O2 2.326 . S
In0 O6 2.266 . S
In0 O7 2.326 . S
In0 O8 2.266 . S
In0 O9 2.326 . S
In0 O11 2.294 . S
In0 O12 2.326 . S
O1 In0 2.294 . S
O1 C10 1.240 . S
O2 In0 2.326 . S
O2 C10 1.252 . S
C3 O6 1.252 . S
C3 O7 1.260 . S
C4 O11 1.240 . S
C4 O12 1.252 . S
C5 O8 1.252 . S
C5 O9 1.260 . S
O6 In0 2.266 . S
O6 C3 1.252 . S
O7 In0 2.326 . S
O7 C3 1.260 . S
O8 In0 2.266 . S
O8 C5 1.252 . S
O9 In0 2.326 . S
O9 C5 1.260 . S
C10 O1 1.240 . S
C10 O2 1.252 . S
O11 In0 2.294 . S
O11 C4 1.240 . S
O12 In0 2.326 . S
O12 C4 1.252 . S
In13 O14 2.294 . S
In13 O15 2.326 . S
In13 O19 2.266 . S
In13 O20 2.326 . S
In13 O21 2.266 . S
In13 O22 2.326 . S
In13 O24 2.294 . S
In13 O25 2.326 . S
O14 In13 2.294 . S
O14 C23 1.240 . S
O15 In13 2.326 . S
O15 C23 1.252 . S
C16 O19 1.252 . S
C16 O20 1.260 . S
C17 O24 1.240 . S
C17 O25 1.252 . S
C18 O21 1.252 . S
C18 O22 1.260 . S
O19 In13 2.266 . S
O19 C16 1.252 . S
O20 In13 2.326 . S
O20 C16 1.260 . S
O21 In13 2.266 . S
O21 C18 1.252 . S
O22 In13 2.326 . S
O22 C18 1.260 . S
C23 O14 1.240 . S
C23 O15 1.252 . S
O24 In13 2.294 . S
O24 C17 1.240 . S
O25 In13 2.326 . S
O25 C17 1.252 . S
In26 O27 2.294 . S
In26 O28 2.326 . S
In26 O32 2.266 . S
In26 O33 2.326 . S
In26 O34 2.266 . S
In26 O35 2.326 . S
In26 O37 2.294 . S
In26 O38 2.326 . S
O27 In26 2.294 . S
O27 C36 1.240 . S
O28 In26 2.326 . S
O28 C36 1.252 . S
C29 O32 1.252 . S
C29 O33 1.260 . S
C30 O37 1.240 . S
C30 O38 1.252 . S
C31 O34 1.252 . S
C31 O35 1.260 . S
O32 In26 2.266 . S
O32 C29 1.252 . S
O33 In26 2.326 . S
O33 C29 1.260 . S
O34 In26 2.266 . S
O34 C31 1.252 . S
O35 In26 2.326 . S
O35 C31 1.260 . S
C36 O27 1.240 . S
C36 O28 1.252 . S
O37 In26 2.294 . S
O37 C30 1.240 . S
O38 In26 2.326 . S
O38 C30 1.252 . S
In39 O40 2.294 . S
In39 O41 2.326 . S
In39 O45 2.266 . S
In39 O46 2.326 . S
In39 O47 2.266 . S
In39 O48 2.326 . S
In39 O50 2.294 . S
In39 O51 2.326 . S
O40 In39 2.294 . S
O40 C49 1.240 . S
O41 In39 2.326 . S
O41 C49 1.252 . S
C42 O45 1.252 . S
C42 O46 1.260 . S
C43 O50 1.240 . S
C43 O51 1.252 . S
C44 O47 1.252 . S
C44 O48 1.260 . S
O45 In39 2.266 . S
O45 C42 1.252 . S
O46 In39 2.326 . S
O46 C42 1.260 . S
O47 In39 2.266 . S
O47 C44 1.252 . S
O48 In39 2.326 . S
O48 C44 1.260 . S
C49 O40 1.240 . S
C49 O41 1.252 . S
O50 In39 2.294 . S
O50 C43 1.240 . S
O51 In39 2.326 . S
O51 C43 1.252 . S
In52 O53 2.294 . S
In52 O54 2.326 . S
In52 O58 2.266 . S
In52 O59 2.326 . S
In52 O60 2.266 . S
In52 O61 2.326 . S
In52 O63 2.294 . S
In52 O64 2.326 . S
O53 In52 2.294 . S
O53 C62 1.240 . S
O54 In52 2.326 . S
O54 C62 1.252 . S
C55 O58 1.252 . S
C55 O59 1.260 . S
C56 O63 1.240 . S
C56 O64 1.252 . S
C57 O60 1.252 . S
C57 O61 1.260 . S
O58 In52 2.266 . S
O58 C55 1.252 . S
O59 In52 2.326 . S
O59 C55 1.260 . S
O60 In52 2.266 . S
O60 C57 1.252 . S
O61 In52 2.326 . S
O61 C57 1.260 . S
C62 O53 1.240 . S
C62 O54 1.252 . S
O63 In52 2.294 . S
O63 C56 1.240 . S
O64 In52 2.326 . S
O64 C56 1.252 . S
In65 O66 2.294 . S
In65 O67 2.326 . S
In65 O71 2.266 . S
In65 O72 2.326 . S
In65 O73 2.266 . S
In65 O74 2.326 . S
In65 O76 2.294 . S
In65 O77 2.326 . S
O66 In65 2.294 . S
O66 C75 1.240 . S
O67 In65 2.326 . S
O67 C75 1.252 . S
C68 O71 1.252 . S
C68 O72 1.260 . S
C69 O76 1.240 . S
C69 O77 1.252 . S
C70 O73 1.252 . S
C70 O74 1.260 . S
O71 In65 2.266 . S
O71 C68 1.252 . S
O72 In65 2.326 . S
O72 C68 1.260 . S
O73 In65 2.266 . S
O73 C70 1.252 . S
O74 In65 2.326 . S
O74 C70 1.260 . S
C75 O66 1.240 . S
C75 O67 1.252 . S
O76 In65 2.294 . S
O76 C69 1.240 . S
O77 In65 2.326 . S
O77 C69 1.252 . S
In78 O79 2.294 . S
In78 O80 2.326 . S
In78 O84 2.266 . S
In78 O85 2.326 . S
In78 O86 2.266 . S
In78 O87 2.326 . S
In78 O89 2.294 . S
In78 O90 2.326 . S
O79 In78 2.294 . S
O79 C88 1.240 . S
O80 In78 2.326 . S
O80 C88 1.252 . S
C81 O84 1.252 . S
C81 O85 1.260 . S
C82 O89 1.240 . S
C82 O90 1.252 . S
C83 O86 1.252 . S
C83 O87 1.260 . S
O84 In78 2.266 . S
O84 C81 1.252 . S
O85 In78 2.326 . S
O85 C81 1.260 . S
O86 In78 2.266 . S
O86 C83 1.252 . S
O87 In78 2.326 . S
O87 C83 1.260 . S
C88 O79 1.240 . S
C88 O80 1.252 . S
O89 In78 2.294 . S
O89 C82 1.240 . S
O90 In78 2.326 . S
O90 C82 1.252 . S
In91 O92 2.294 . S
In91 O93 2.326 . S
In91 O97 2.266 . S
In91 O98 2.326 . S
In91 O99 2.266 . S
In91 O100 2.326 . S
In91 O102 2.294 . S
In91 O103 2.326 . S
O92 In91 2.294 . S
O92 C101 1.240 . S
O93 In91 2.326 . S
O93 C101 1.252 . S
C94 O97 1.252 . S
C94 O98 1.260 . S
C95 O102 1.240 . S
C95 O103 1.252 . S
C96 O99 1.252 . S
C96 O100 1.260 . S
O97 In91 2.266 . S
O97 C94 1.252 . S
O98 In91 2.326 . S
O98 C94 1.260 . S
O99 In91 2.266 . S
O99 C96 1.252 . S
O100 In91 2.326 . S
O100 C96 1.260 . S
C101 O92 1.240 . S
C101 O93 1.252 . S
O102 In91 2.294 . S
O102 C95 1.240 . S
O103 In91 2.326 . S
O103 C95 1.252 . S
C104 C105 1.391 . S
C104 C106 1.394 . S
C104 H120 0.931 . S
C105 C104 1.391 . S
C105 C109 1.376 . S
C106 C104 1.394 . S
C106 C107 1.369 . S
C106 C110 1.531 1_554 S
C107 C106 1.369 . S
C107 C108 1.410 . S
C107 C115 1.503 1_554 S
C108 C107 1.410 . S
C108 C109 1.392 . S
C108 C111 1.511 . S
C109 C105 1.376 . S
C109 C108 1.392 . S
C109 H121 0.929 . S
C110 C106 1.531 1_556 S
C110 H122 0.960 . S
C110 H123 0.962 . S
C110 H124 0.960 1_556 S
C111 C108 1.511 . S
C111 H125 0.961 . S
C111 H126 0.961 . S
C111 H127 0.961 . S
C112 C113 1.370 . S
C112 C114 1.363 . S
C112 H128 0.931 . S
C113 C112 1.370 . S
C113 C117 1.408 . S
C114 C112 1.363 . S
C114 C115 1.370 . S
C114 C118 1.524 . S
C115 C107 1.503 1_556 S
C115 C114 1.370 . S
C115 C116 1.403 . S
C116 C115 1.403 . S
C116 C117 1.404 . S
C116 C119 1.539 . S
C117 C113 1.408 . S
C117 C116 1.404 . S
C117 H129 0.930 . S
C118 C114 1.524 . S
C118 H130 0.956 . S
C118 H131 0.961 1_556 S
C118 H132 0.961 . S
C119 C116 1.539 . S
C119 H133 0.958 . S
C119 H134 0.961 . S
C119 H135 0.960 1_556 S
H120 C104 0.931 . S
H121 C109 0.929 . S
H122 C110 0.960 . S
H123 C110 0.962 . S
H124 C110 0.960 1_554 S
H125 C111 0.961 . S
H126 C111 0.961 . S
H127 C111 0.961 . S
H128 C112 0.931 . S
H129 C117 0.930 . S
H130 C118 0.956 . S
H131 C118 0.961 1_554 S
H132 C118 0.961 . S
H133 C119 0.958 . S
H134 C119 0.961 . S
H135 C119 0.960 1_554 S
C136 C137 1.391 . S
C136 C138 1.394 . S
C136 H152 0.931 . S
C137 C136 1.391 . S
C137 C141 1.376 . S
C138 C136 1.394 . S
C138 C139 1.369 . S
C138 C142 1.531 . S
C139 C138 1.369 . S
C139 C140 1.410 . S
C139 C147 1.503 . S
C140 C139 1.410 . S
C140 C141 1.392 . S
C140 C143 1.511 . S
C141 C137 1.376 . S
C141 C140 1.392 . S
C141 H153 0.929 . S
C142 C138 1.531 . S
C142 H154 0.960 . S
C142 H155 0.962 . S
C142 H156 0.960 . S
C143 C140 1.511 . S
C143 H157 0.961 . S
C143 H158 0.961 . S
C143 H159 0.961 . S
C144 C145 1.370 . S
C144 C146 1.363 . S
C144 H160 0.931 . S
C145 C144 1.370 . S
C145 C149 1.408 . S
C146 C144 1.363 . S
C146 C147 1.370 . S
C146 C150 1.524 . S
C147 C139 1.503 . S
C147 C146 1.370 . S
C147 C148 1.403 . S
C148 C147 1.403 . S
C148 C149 1.404 . S
C148 C151 1.539 . S
C149 C145 1.408 . S
C149 C148 1.404 . S
C149 H161 0.930 . S
C150 C146 1.524 . S
C150 H162 0.956 . S
C150 H163 0.961 . S
C150 H164 0.961 . S
C151 C148 1.539 . S
C151 H165 0.958 . S
C151 H166 0.961 . S
C151 H167 0.960 . S
H152 C136 0.931 . S
H153 C141 0.929 . S
H154 C142 0.960 . S
H155 C142 0.962 . S
H156 C142 0.960 . S
H157 C143 0.961 . S
H158 C143 0.961 . S
H159 C143 0.961 . S
H160 C144 0.931 . S
H161 C149 0.930 . S
H162 C150 0.956 . S
H163 C150 0.961 . S
H164 C150 0.961 . S
H165 C151 0.958 . S
H166 C151 0.961 . S
H167 C151 0.960 . S
C168 C169 1.391 . S
C168 C170 1.394 . S
C168 H184 0.931 . S
C169 C168 1.391 . S
C169 C173 1.376 . S
C170 C168 1.394 . S
C170 C171 1.369 . S
C170 C174 1.531 . S
C171 C170 1.369 . S
C171 C172 1.410 . S
C171 C179 1.503 . S
C172 C171 1.410 . S
C172 C173 1.392 . S
C172 C175 1.511 . S
C173 C169 1.376 . S
C173 C172 1.392 . S
C173 H185 0.929 . S
C174 C170 1.531 . S
C174 H186 0.960 . S
C174 H187 0.962 . S
C174 H188 0.960 . S
C175 C172 1.511 . S
C175 H189 0.961 . S
C175 H190 0.961 . S
C175 H191 0.961 . S
C176 C177 1.370 . S
C176 C178 1.363 . S
C176 H192 0.931 . S
C177 C176 1.370 . S
C177 C181 1.408 . S
C178 C176 1.363 . S
C178 C179 1.370 . S
C178 C182 1.524 . S
C179 C171 1.503 . S
C179 C178 1.370 . S
C179 C180 1.403 . S
C180 C179 1.403 . S
C180 C181 1.404 . S
C180 C183 1.539 . S
C181 C177 1.408 . S
C181 C180 1.404 . S
C181 H193 0.930 . S
C182 C178 1.524 . S
C182 H194 0.956 . S
C182 H195 0.961 . S
C182 H196 0.961 . S
C183 C180 1.539 . S
C183 H197 0.958 . S
C183 H198 0.961 . S
C183 H199 0.960 . S
H184 C168 0.931 . S
H185 C173 0.929 . S
H186 C174 0.960 . S
H187 C174 0.962 . S
H188 C174 0.960 . S
H189 C175 0.961 . S
H190 C175 0.961 . S
H191 C175 0.961 . S
H192 C176 0.931 . S
H193 C181 0.930 . S
H194 C182 0.956 . S
H195 C182 0.961 . S
H196 C182 0.961 . S
H197 C183 0.958 . S
H198 C183 0.961 . S
H199 C183 0.960 . S
C200 C201 1.391 . S
C200 C202 1.394 . S
C200 H216 0.931 . S
C201 C200 1.391 . S
C201 C205 1.376 . S
C202 C200 1.394 . S
C202 C203 1.369 . S
C202 C206 1.531 . S
C203 C202 1.369 . S
C203 C204 1.410 . S
C203 C211 1.503 . S
C204 C203 1.410 . S
C204 C205 1.392 . S
C204 C207 1.511 . S
C205 C201 1.376 . S
C205 C204 1.392 . S
C205 H217 0.929 . S
C206 C202 1.531 . S
C206 H218 0.960 . S
C206 H219 0.962 . S
C206 H220 0.960 . S
C207 C204 1.511 . S
C207 H221 0.961 . S
C207 H222 0.961 . S
C207 H223 0.961 . S
C208 C209 1.370 . S
C208 C210 1.363 . S
C208 H224 0.931 . S
C209 C208 1.370 . S
C209 C213 1.408 . S
C210 C208 1.363 . S
C210 C211 1.370 . S
C210 C214 1.524 . S
C211 C203 1.503 . S
C211 C210 1.370 . S
C211 C212 1.403 . S
C212 C211 1.403 . S
C212 C213 1.404 . S
C212 C215 1.539 . S
C213 C209 1.408 . S
C213 C212 1.404 . S
C213 H225 0.930 . S
C214 C210 1.524 . S
C214 H226 0.956 . S
C214 H227 0.961 . S
C214 H228 0.961 . S
C215 C212 1.539 . S
C215 H229 0.958 . S
C215 H230 0.961 . S
C215 H231 0.960 . S
H216 C200 0.931 . S
H217 C205 0.929 . S
H218 C206 0.960 . S
H219 C206 0.962 . S
H220 C206 0.960 . S
H221 C207 0.961 . S
H222 C207 0.961 . S
H223 C207 0.961 . S
H224 C208 0.931 . S
H225 C213 0.930 . S
H226 C214 0.956 . S
H227 C214 0.961 . S
H228 C214 0.961 . S
H229 C215 0.958 . S
H230 C215 0.961 . S
H231 C215 0.960 . S
C232 C233 1.391 . S
C232 C234 1.394 . S
C232 H248 0.931 . S
C233 C232 1.391 . S
C233 C237 1.376 . S
C234 C232 1.394 . S
C234 C235 1.369 . S
C234 C238 1.531 . S
C235 C234 1.369 . S
C235 C236 1.410 . S
C235 C243 1.503 . S
C236 C235 1.410 . S
C236 C237 1.392 . S
C236 C239 1.511 . S
C237 C233 1.376 . S
C237 C236 1.392 . S
C237 H249 0.929 . S
C238 C234 1.531 . S
C238 H250 0.960 . S
C238 H251 0.962 . S
C238 H252 0.960 . S
C239 C236 1.511 . S
C239 H253 0.961 . S
C239 H254 0.961 . S
C239 H255 0.961 . S
C240 C241 1.370 . S
C240 C242 1.363 . S
C240 H256 0.931 . S
C241 C240 1.370 . S
C241 C245 1.408 . S
C242 C240 1.363 . S
C242 C243 1.370 . S
C242 C246 1.524 . S
C243 C235 1.503 . S
C243 C242 1.370 . S
C243 C244 1.403 . S
C244 C243 1.403 . S
C244 C245 1.404 . S
C244 C247 1.539 . S
C245 C241 1.408 . S
C245 C244 1.404 . S
C245 H257 0.930 . S
C246 C242 1.524 . S
C246 H258 0.956 . S
C246 H259 0.961 . S
C246 H260 0.961 . S
C247 C244 1.539 . S
C247 H261 0.958 . S
C247 H262 0.961 . S
C247 H263 0.960 . S
H248 C232 0.931 . S
H249 C237 0.929 . S
H250 C238 0.960 . S
H251 C238 0.962 . S
H252 C238 0.960 . S
H253 C239 0.961 . S
H254 C239 0.961 . S
H255 C239 0.961 . S
H256 C240 0.931 . S
H257 C245 0.930 . S
H258 C246 0.956 . S
H259 C246 0.961 . S
H260 C246 0.961 . S
H261 C247 0.958 . S
H262 C247 0.961 . S
H263 C247 0.960 . S
C264 C265 1.391 . S
C264 C266 1.394 . S
C264 H280 0.931 . S
C265 C264 1.391 . S
C265 C269 1.376 . S
C266 C264 1.394 . S
C266 C267 1.369 . S
C266 C270 1.531 . S
C267 C266 1.369 . S
C267 C268 1.410 . S
C267 C275 1.503 . S
C268 C267 1.410 . S
C268 C269 1.392 . S
C268 C271 1.511 . S
C269 C265 1.376 . S
C269 C268 1.392 . S
C269 H281 0.929 . S
C270 C266 1.531 . S
C270 H282 0.960 . S
C270 H283 0.962 . S
C270 H284 0.960 . S
C271 C268 1.511 . S
C271 H285 0.961 . S
C271 H286 0.961 . S
C271 H287 0.961 . S
C272 C273 1.370 . S
C272 C274 1.363 . S
C272 H288 0.931 . S
C273 C272 1.370 . S
C273 C277 1.408 . S
C274 C272 1.363 . S
C274 C275 1.370 . S
C274 C278 1.524 . S
C275 C267 1.503 . S
C275 C274 1.370 . S
C275 C276 1.403 . S
C276 C275 1.403 . S
C276 C277 1.404 . S
C276 C279 1.539 . S
C277 C273 1.408 . S
C277 C276 1.404 . S
C277 H289 0.930 . S
C278 C274 1.524 . S
C278 H290 0.956 . S
C278 H291 0.961 . S
C278 H292 0.961 . S
C279 C276 1.539 . S
C279 H293 0.958 . S
C279 H294 0.961 . S
C279 H295 0.960 . S
H280 C264 0.931 . S
H281 C269 0.929 . S
H282 C270 0.960 . S
H283 C270 0.962 . S
H284 C270 0.960 . S
H285 C271 0.961 . S
H286 C271 0.961 . S
H287 C271 0.961 . S
H288 C272 0.931 . S
H289 C277 0.930 . S
H290 C278 0.956 . S
H291 C278 0.961 . S
H292 C278 0.961 . S
H293 C279 0.958 . S
H294 C279 0.961 . S
H295 C279 0.960 . S
C296 C297 1.391 . S
C296 C298 1.394 . S
C296 H312 0.931 . S
C297 C296 1.391 . S
C297 C301 1.376 . S
C298 C296 1.394 . S
C298 C299 1.369 . S
C298 C302 1.531 . S
C299 C298 1.369 . S
C299 C300 1.410 . S
C299 C307 1.503 . S
C300 C299 1.410 . S
C300 C301 1.392 . S
C300 C303 1.511 . S
C301 C297 1.376 . S
C301 C300 1.392 . S
C301 H313 0.929 . S
C302 C298 1.531 . S
C302 H314 0.960 . S
C302 H315 0.962 . S
C302 H316 0.960 . S
C303 C300 1.511 . S
C303 H317 0.961 . S
C303 H318 0.961 . S
C303 H319 0.961 . S
C304 C305 1.370 . S
C304 C306 1.363 . S
C304 H320 0.931 . S
C305 C304 1.370 . S
C305 C309 1.408 . S
C306 C304 1.363 . S
C306 C307 1.370 . S
C306 C310 1.524 . S
C307 C299 1.503 . S
C307 C306 1.370 . S
C307 C308 1.403 . S
C308 C307 1.403 . S
C308 C309 1.404 . S
C308 C311 1.539 . S
C309 C305 1.408 . S
C309 C308 1.404 . S
C309 H321 0.930 . S
C310 C306 1.524 . S
C310 H322 0.956 . S
C310 H323 0.961 . S
C310 H324 0.961 . S
C311 C308 1.539 . S
C311 H325 0.958 . S
C311 H326 0.961 . S
C311 H327 0.960 . S
H312 C296 0.931 . S
H313 C301 0.929 . S
H314 C302 0.960 . S
H315 C302 0.962 . S
H316 C302 0.960 . S
H317 C303 0.961 . S
H318 C303 0.961 . S
H319 C303 0.961 . S
H320 C304 0.931 . S
H321 C309 0.930 . S
H322 C310 0.956 . S
H323 C310 0.961 . S
H324 C310 0.961 . S
H325 C311 0.958 . S
H326 C311 0.961 . S
H327 C311 0.960 . S
C328 C329 1.391 . S
C328 C330 1.394 . S
C328 H344 0.931 . S
C329 C328 1.391 . S
C329 C333 1.376 . S
C330 C328 1.394 . S
C330 C331 1.369 . S
C330 C334 1.531 1_554 S
C331 C330 1.369 . S
C331 C332 1.410 . S
C331 C339 1.503 1_554 S
C332 C331 1.410 . S
C332 C333 1.392 . S
C332 C335 1.511 . S
C333 C329 1.376 . S
C333 C332 1.392 . S
C333 H345 0.929 . S
C334 C330 1.531 1_556 S
C334 H346 0.960 . S
C334 H347 0.962 . S
C334 H348 0.960 1_556 S
C335 C332 1.511 . S
C335 H349 0.961 . S
C335 H350 0.961 . S
C335 H351 0.961 . S
C336 C337 1.370 . S
C336 C338 1.363 . S
C336 H352 0.931 . S
C337 C336 1.370 . S
C337 C341 1.408 . S
C338 C336 1.363 . S
C338 C339 1.370 . S
C338 C342 1.524 . S
C339 C331 1.503 1_556 S
C339 C338 1.370 . S
C339 C340 1.403 . S
C340 C339 1.403 . S
C340 C341 1.404 . S
C340 C343 1.539 . S
C341 C337 1.408 . S
C341 C340 1.404 . S
C341 H353 0.930 . S
C342 C338 1.524 . S
C342 H354 0.956 . S
C342 H355 0.961 1_556 S
C342 H356 0.961 . S
C343 C340 1.539 . S
C343 H357 0.958 . S
C343 H358 0.961 . S
C343 H359 0.966 . S
H344 C328 0.931 . S
H345 C333 0.929 . S
H346 C334 0.960 . S
H347 C334 0.962 . S
H348 C334 0.960 1_554 S
H349 C335 0.961 . S
H350 C335 0.961 . S
H351 C335 0.961 . S
H352 C336 0.931 . S
H353 C341 0.930 . S
H354 C342 0.956 . S
H355 C342 0.961 1_554 S
H356 C342 0.961 . S
H357 C343 0.958 . S
H358 C343 0.961 . S
H359 C343 0.966 . S
C360 C361 1.391 . S
C360 C362 1.394 . S
C360 H376 0.931 . S
C361 C360 1.391 . S
C361 C365 1.376 . S
C362 C360 1.394 . S
C362 C363 1.369 . S
C362 C366 1.531 1_545 S
C363 C362 1.369 . S
C363 C364 1.410 1_455 S
C363 C371 1.503 1_445 S
C364 C363 1.410 1_655 S
C364 C365 1.392 1_655 S
C364 C367 1.511 . S
C365 C361 1.376 . S
C365 C364 1.392 1_455 S
C365 H377 0.929 1_455 S
C366 C362 1.531 1_565 S
C366 H378 0.960 . S
C366 H379 0.962 . S
C366 H380 0.960 . S
C367 C364 1.511 . S
C367 H381 0.961 . S
C367 H382 0.961 . S
C367 H383 0.961 . S
C368 C369 1.370 . S
C368 C370 1.363 . S
C368 H384 0.931 . S
C369 C368 1.370 . S
C369 C373 1.408 . S
C370 C368 1.363 . S
C370 C371 1.370 . S
C370 C374 1.524 1_655 S
C371 C363 1.503 1_665 S
C371 C370 1.370 . S
C371 C372 1.403 . S
C372 C371 1.403 . S
C372 C373 1.404 . S
C372 C375 1.539 . S
C373 C369 1.408 . S
C373 C372 1.404 . S
C373 H385 0.930 . S
C374 C370 1.524 1_455 S
C374 H386 0.956 . S
C374 H387 0.961 1_465 S
C374 H388 0.961 1_455 S
C375 C372 1.539 . S
C375 H389 0.962 . S
C375 H390 0.961 . S
C375 H391 0.960 1_565 S
H376 C360 0.931 . S
H377 C365 0.929 1_655 S
H378 C366 0.960 . S
H379 C366 0.962 . S
H380 C366 0.960 . S
H381 C367 0.961 . S
H382 C367 0.961 . S
H383 C367 0.961 . S
H384 C368 0.931 . S
H385 C373 0.930 . S
H386 C374 0.956 . S
H387 C374 0.961 1_645 S
H388 C374 0.961 1_655 S
H389 C375 0.962 . S
H390 C375 0.961 . S
H391 C375 0.960 1_545 S
C392 C393 1.391 . S
C392 C394 1.394 . S
C392 H408 0.931 . S
C393 C392 1.391 . S
C393 C397 1.376 . S
C394 C392 1.394 . S
C394 C395 1.369 . S
C394 C398 1.531 1_455 S
C395 C394 1.369 . S
C395 C396 1.410 . S
C395 C403 1.503 1_455 S
C396 C395 1.410 . S
C396 C397 1.392 . S
C396 C399 1.511 . S
C397 C393 1.376 . S
C397 C396 1.392 . S
C397 H409 0.929 . S
C398 C394 1.531 1_655 S
C398 H410 0.960 . S
C398 H411 0.962 . S
C398 H412 0.960 . S
C399 C396 1.511 . S
C399 H413 0.961 . S
C399 H414 0.961 . S
C399 H415 0.961 . S
C400 C401 1.370 . S
C400 C402 1.363 . S
C400 H416 0.931 . S
C401 C400 1.370 . S
C401 C405 1.408 . S
C402 C400 1.363 . S
C402 C403 1.370 . S
C402 C406 1.524 . S
C403 C395 1.503 1_655 S
C403 C402 1.370 . S
C403 C404 1.403 . S
C404 C403 1.403 . S
C404 C405 1.404 . S
C404 C407 1.539 . S
C405 C401 1.408 . S
C405 C404 1.404 . S
C405 H417 0.930 . S
C406 C402 1.524 . S
C406 H418 0.956 . S
C406 H419 0.961 1_655 S
C406 H420 0.961 . S
C407 C404 1.539 . S
C407 H421 0.958 . S
C407 H422 0.961 . S
C407 H423 0.960 1_655 S
H408 C392 0.931 . S
H409 C397 0.929 . S
H410 C398 0.960 . S
H411 C398 0.962 . S
H412 C398 0.960 . S
H413 C399 0.961 . S
H414 C399 0.961 . S
H415 C399 0.961 . S
H416 C400 0.931 . S
H417 C405 0.930 . S
H418 C406 0.956 . S
H419 C406 0.961 1_455 S
H420 C406 0.961 . S
H421 C407 0.958 . S
H422 C407 0.961 . S
H423 C407 0.960 1_455 S
C424 C425 1.391 . S
C424 C426 1.394 . S
C424 H440 0.931 . S
C425 C424 1.391 . S
C425 C429 1.376 . S
C426 C424 1.394 . S
C426 C427 1.369 . S
C426 C430 1.531 . S
C427 C426 1.369 . S
C427 C428 1.410 . S
C427 C435 1.503 . S
C428 C427 1.410 . S
C428 C429 1.392 . S
C428 C431 1.511 . S
C429 C425 1.376 . S
C429 C428 1.392 . S
C429 H441 0.929 . S
C430 C426 1.531 . S
C430 H442 0.960 . S
C430 H443 0.962 . S
C430 H444 0.960 . S
C431 C428 1.511 . S
C431 H445 0.961 . S
C431 H446 0.961 . S
C431 H447 0.961 . S
C432 C433 1.370 . S
C432 C434 1.363 . S
C432 H448 0.931 . S
C433 C432 1.370 . S
C433 C437 1.408 . S
C434 C432 1.363 . S
C434 C435 1.370 . S
C434 C438 1.524 . S
C435 C427 1.503 . S
C435 C434 1.370 . S
C435 C436 1.403 . S
C436 C435 1.403 . S
C436 C437 1.404 . S
C436 C439 1.539 . S
C437 C433 1.408 . S
C437 C436 1.404 . S
C437 H449 0.930 . S
C438 C434 1.524 . S
C438 H450 0.956 . S
C438 H451 0.961 . S
C438 H452 0.961 . S
C439 C436 1.539 . S
C439 H453 0.958 . S
C439 H454 0.961 . S
C439 H455 0.960 . S
H440 C424 0.931 . S
H441 C429 0.929 . S
H442 C430 0.960 . S
H443 C430 0.962 . S
H444 C430 0.960 . S
H445 C431 0.961 . S
H446 C431 0.961 . S
H447 C431 0.961 . S
H448 C432 0.931 . S
H449 C437 0.930 . S
H450 C438 0.956 . S
H451 C438 0.961 . S
H452 C438 0.961 . S
H453 C439 0.958 . S
H454 C439 0.961 . S
H455 C439 0.960 . S
C456 C457 1.391 . S
C456 C458 1.394 . S
C456 H472 0.931 . S
C457 C456 1.391 . S
C457 C461 1.376 . S
C458 C456 1.394 . S
C458 C459 1.369 . S
C458 C462 1.531 . S
C459 C458 1.369 . S
C459 C460 1.410 1_565 S
C459 C467 1.503 1_565 S
C460 C459 1.410 1_545 S
C460 C461 1.392 1_545 S
C460 C463 1.511 . S
C461 C457 1.376 . S
C461 C460 1.392 1_565 S
C461 H473 0.929 1_565 S
C462 C458 1.531 . S
C462 H474 0.960 . S
C462 H475 0.962 . S
C462 H476 0.960 . S
C463 C460 1.511 . S
C463 H477 0.961 . S
C463 H478 0.961 . S
C463 H479 0.961 . S
C464 C465 1.370 . S
C464 C466 1.363 . S
C464 H480 0.931 . S
C465 C464 1.370 . S
C465 C469 1.408 . S
C466 C464 1.363 . S
C466 C467 1.370 . S
C466 C470 1.524 1_545 S
C467 C459 1.503 1_545 S
C467 C466 1.370 . S
C467 C468 1.403 . S
C468 C467 1.403 . S
C468 C469 1.404 . S
C468 C471 1.539 . S
C469 C465 1.408 . S
C469 C468 1.404 . S
C469 H481 0.930 . S
C470 C466 1.524 1_565 S
C470 H482 0.956 . S
C470 H483 0.961 . S
C470 H484 0.961 . S
C471 C468 1.539 . S
C471 H485 0.958 . S
C471 H486 0.961 . S
C471 H487 0.960 . S
H472 C456 0.931 . S
H473 C461 0.929 1_545 S
H474 C462 0.960 . S
H475 C462 0.962 . S
H476 C462 0.960 . S
H477 C463 0.961 . S
H478 C463 0.961 . S
H479 C463 0.961 . S
H480 C464 0.931 . S
H481 C469 0.930 . S
H482 C470 0.956 . S
H483 C470 0.961 . S
H484 C470 0.961 . S
H485 C471 0.958 . S
H486 C471 0.961 . S
H487 C471 0.960 . S
C488 C489 1.391 . S
C488 C490 1.394 1_655 S
C488 H504 0.931 1_655 S
C489 C488 1.391 . S
C489 C493 1.376 . S
C490 C488 1.394 1_455 S
C490 C491 1.369 1_455 S
C490 C494 1.531 . S
C491 C490 1.369 1_655 S
C491 C492 1.410 . S
C491 C499 1.503 1_655 S
C492 C491 1.410 . S
C492 C493 1.392 . S
C492 C495 1.511 . S
C493 C489 1.376 . S
C493 C492 1.392 . S
C493 H505 0.929 . S
C494 C490 1.531 . S
C494 H506 0.960 . S
C494 H507 0.962 . S
C494 H508 0.960 . S
C495 C492 1.511 . S
C495 H509 0.961 . S
C495 H510 0.961 . S
C495 H511 0.961 . S
C496 C497 1.370 . S
C496 C498 1.363 . S
C496 H512 0.931 . S
C497 C496 1.370 . S
C497 C501 1.408 . S
C498 C496 1.363 . S
C498 C499 1.370 . S
C498 C502 1.524 . S
C499 C491 1.503 1_455 S
C499 C498 1.370 . S
C499 C500 1.403 . S
C500 C499 1.403 . S
C500 C501 1.404 . S
C500 C503 1.539 1_455 S
C501 C497 1.408 . S
C501 C500 1.404 . S
C501 H513 0.930 . S
C502 C498 1.524 . S
C502 H514 0.956 . S
C502 H515 0.967 . S
C502 H516 0.961 . S
C503 C500 1.539 1_655 S
C503 H517 0.958 1_655 S
C503 H518 0.961 . S
C503 H519 0.960 . S
H504 C488 0.931 1_455 S
H505 C493 0.929 . S
H506 C494 0.960 . S
H507 C494 0.962 . S
H508 C494 0.960 . S
H509 C495 0.961 . S
H510 C495 0.961 . S
H511 C495 0.961 . S
H512 C496 0.931 . S
H513 C501 0.930 . S
H514 C502 0.956 . S
H515 C502 0.967 . S
H516 C502 0.961 . S
H517 C503 0.958 1_455 S
H518 C503 0.961 . S
H519 C503 0.960 . S
C520 C521 1.391 . S
C520 C522 1.394 . S
C520 H536 0.931 . S
C521 C520 1.391 . S
C521 C525 1.376 . S
C522 C520 1.394 . S
C522 C523 1.369 . S
C522 C526 1.531 . S
C523 C522 1.369 . S
C523 C524 1.410 . S
C523 C531 1.503 . S
C524 C523 1.410 . S
C524 C525 1.392 . S
C524 C527 1.511 . S
C525 C521 1.376 . S
C525 C524 1.392 . S
C525 H537 0.929 . S
C526 C522 1.531 . S
C526 H538 0.960 . S
C526 H539 0.962 . S
C526 H540 0.960 . S
C527 C524 1.511 . S
C527 H541 0.961 . S
C527 H542 0.961 . S
C527 H543 0.961 . S
C528 C529 1.370 . S
C528 C530 1.363 . S
C528 H544 0.931 . S
C529 C528 1.370 . S
C529 C533 1.408 . S
C530 C528 1.363 . S
C530 C531 1.370 . S
C530 C534 1.524 . S
C531 C523 1.503 . S
C531 C530 1.370 . S
C531 C532 1.403 . S
C532 C531 1.403 . S
C532 C533 1.404 . S
C532 C535 1.539 . S
C533 C529 1.408 . S
C533 C532 1.404 . S
C533 H545 0.930 . S
C534 C530 1.524 . S
C534 H546 0.956 . S
C534 H547 0.961 . S
C534 H548 0.961 . S
C535 C532 1.539 . S
C535 H549 0.958 . S
C535 H550 0.961 . S
C535 H551 0.960 . S
H536 C520 0.931 . S
H537 C525 0.929 . S
H538 C526 0.960 . S
H539 C526 0.962 . S
H540 C526 0.960 . S
H541 C527 0.961 . S
H542 C527 0.961 . S
H543 C527 0.961 . S
H544 C528 0.931 . S
H545 C533 0.930 . S
H546 C534 0.956 . S
H547 C534 0.961 . S
H548 C534 0.961 . S
H549 C535 0.958 . S
H550 C535 0.961 . S
H551 C535 0.960 . S
C552 C553 1.391 . S
C552 C554 1.394 . S
C552 H568 0.931 . S
C553 C552 1.391 . S
C553 C557 1.376 . S
C554 C552 1.394 . S
C554 C555 1.369 . S
C554 C558 1.531 . S
C555 C554 1.369 . S
C555 C556 1.410 . S
C555 C563 1.503 1_545 S
C556 C555 1.410 . S
C556 C557 1.392 . S
C556 C559 1.511 1_545 S
C557 C553 1.376 . S
C557 C556 1.392 . S
C557 H569 0.929 . S
C558 C554 1.531 . S
C558 H570 0.960 . S
C558 H571 0.962 . S
C558 H572 0.960 . S
C559 C556 1.511 1_565 S
C559 H573 0.961 . S
C559 H574 0.961 . S
C559 H575 0.961 . S
C560 C561 1.370 . S
C560 C562 1.363 . S
C560 H576 0.931 . S
C561 C560 1.370 . S
C561 C565 1.408 . S
C562 C560 1.363 . S
C562 C563 1.370 . S
C562 C566 1.524 . S
C563 C555 1.503 1_565 S
C563 C562 1.370 . S
C563 C564 1.403 . S
C564 C563 1.403 . S
C564 C565 1.404 . S
C564 C567 1.539 . S
C565 C561 1.408 . S
C565 C564 1.404 . S
C565 H577 0.930 . S
C566 C562 1.524 . S
C566 H578 0.938 1_565 S
C566 H579 0.961 . S
C566 H580 0.961 . S
C567 C564 1.539 . S
C567 H581 0.958 1_565 S
C567 H582 0.961 . S
C567 H583 0.960 1_565 S
H568 C552 0.931 . S
H569 C557 0.929 . S
H570 C558 0.960 . S
H571 C558 0.962 . S
H572 C558 0.960 . S
H573 C559 0.961 . S
H574 C559 0.961 . S
H575 C559 0.961 . S
H576 C560 0.931 . S
H577 C565 0.930 . S
H578 C566 0.938 1_545 S
H579 C566 0.961 . S
H580 C566 0.961 . S
H581 C567 0.958 1_545 S
H582 C567 0.961 . S
H583 C567 0.960 1_545 S
C584 C585 1.391 . S
C584 C586 1.394 1_565 S
C584 H600 0.931 1_565 S
C585 C584 1.391 . S
C585 C589 1.376 . S
C586 C584 1.394 1_545 S
C586 C587 1.369 1_545 S
C586 C590 1.531 . S
C587 C586 1.369 1_565 S
C587 C588 1.410 . S
C587 C595 1.503 1_665 S
C588 C587 1.410 . S
C588 C589 1.392 . S
C588 C591 1.511 1_655 S
C589 C585 1.376 . S
C589 C588 1.392 . S
C589 H601 0.929 . S
C590 C586 1.531 . S
C590 H602 0.960 . S
C590 H603 0.962 . S
C590 H604 0.960 . S
C591 C588 1.511 1_455 S
C591 H605 0.961 . S
C591 H606 0.961 . S
C591 H607 0.961 . S
C592 C593 1.370 . S
C592 C594 1.363 . S
C592 H608 0.931 . S
C593 C592 1.370 . S
C593 C597 1.408 . S
C594 C592 1.363 . S
C594 C595 1.370 . S
C594 C598 1.524 1_545 S
C595 C587 1.503 1_445 S
C595 C594 1.370 . S
C595 C596 1.403 . S
C596 C595 1.403 . S
C596 C597 1.404 . S
C596 C599 1.539 . S
C597 C593 1.408 . S
C597 C596 1.404 . S
C597 H609 0.930 . S
C598 C594 1.524 1_565 S
C598 H610 0.956 . S
C598 H611 0.961 . S
C598 H612 0.961 . S
C599 C596 1.539 . S
C599 H613 0.958 1_455 S
C599 H614 0.961 . S
C599 H615 0.960 1_455 S
H600 C584 0.931 1_545 S
H601 C589 0.929 . S
H602 C590 0.960 . S
H603 C590 0.962 . S
H604 C590 0.960 . S
H605 C591 0.961 . S
H606 C591 0.961 . S
H607 C591 0.961 . S
H608 C592 0.931 . S
H609 C597 0.930 . S
H610 C598 0.956 . S
H611 C598 0.961 . S
H612 C598 0.961 . S
H613 C599 0.958 1_655 S
H614 C599 0.961 . S
H615 C599 0.960 1_655 S
C105 C5 1.333 . S
C113 C68 1.328 . S
C137 C23 1.336 . S
C145 C88 1.329 . S
C169 C31 1.314 . S
C177 C94 1.321 . S
C201 C49 1.336 . S
C209 C56 1.329 . S
C233 C101 1.334 . S
C241 C4 1.328 . S
C265 C57 1.332 . S
C273 C16 1.329 . S
C297 C30 1.316 . S
C305 C75 1.326 . S
C329 C81 1.331 . S
C337 C42 1.330 . S
C361 C3 1.530 . S
C369 C83 1.533 . S
C393 C95 1.528 . S
C401 C17 1.530 . S
C425 C29 1.526 . S
C433 C55 1.532 . S
C457 C43 1.527 . S
C465 C69 1.530 . S
C489 C82 1.519 . S
C497 C10 1.525 . S
C521 C96 1.529 . S
C529 C18 1.533 . S
C553 C36 1.517 . S
C561 C62 1.525 . S
C585 C44 1.525 . S
C593 C70 1.531 . S
