# Generated by pormake.
# Topology dia-a, (4)-cn, num edge types: 1
# Building blocks:
#     Node 0, Type 0, BuildingBlock: NAHDIM_clean_sbu_0, # of connection points: 4
#     Node 1, Type 0, BuildingBlock: NAHDIM_clean_sbu_0, # of connection points: 4
#     Node 2, Type 0, BuildingBlock: NAHDIM_clean_sbu_0, # of connection points: 4
#     Node 3, Type 0, BuildingBlock: NAHDIM_clean_sbu_0, # of connection points: 4
#     Node 4, Type 0, BuildingBlock: NAHDIM_clean_sbu_0, # of connection points: 4
#     Node 5, Type 0, BuildingBlock: NAHDIM_clean_sbu_0, # of connection points: 4
#     Node 6, Type 0, BuildingBlock: NAHDIM_clean_sbu_0, # of connection points: 4
#     Node 7, Type 0, BuildingBlock: NAHDIM_clean_sbu_0, # of connection points: 4
#     Node 8, Type 0, BuildingBlock: NAHDIM_clean_sbu_0, # of connection points: 4
#     Node 9, Type 0, BuildingBlock: NAHDIM_clean_sbu_0, # of connection points: 4
#     Node 10, Type 0, BuildingBlock: NAHDIM_clean_sbu_0, # of connection points: 4
#     Node 11, Type 0, BuildingBlock: NAHDIM_clean_sbu_0, # of connection points: 4
#     Node 12, Type 0, BuildingBlock: NAHDIM_clean_sbu_0, # of connection points: 4
#     Node 13, Type 0, BuildingBlock: NAHDIM_clean_sbu_0, # of connection points: 4
#     Node 14, Type 0, BuildingBlock: NAHDIM_clean_sbu_0, # of connection points: 4
#     Node 15, Type 0, BuildingBlock: NAHDIM_clean_sbu_0, # of connection points: 4
#     Node 16, Type 0, BuildingBlock: NAHDIM_clean_sbu_0, # of connection points: 4
#     Node 17, Type 0, BuildingBlock: NAHDIM_clean_sbu_0, # of connection points: 4
#     Node 18, Type 0, BuildingBlock: NAHDIM_clean_sbu_0, # of connection points: 4
#     Node 19, Type 0, BuildingBlock: NAHDIM_clean_sbu_0, # of connection points: 4
#     Node 20, Type 0, BuildingBlock: NAHDIM_clean_sbu_0, # of connection points: 4
#     Node 21, Type 0, BuildingBlock: NAHDIM_clean_sbu_0, # of connection points: 4
#     Node 22, Type 0, BuildingBlock: NAHDIM_clean_sbu_0, # of connection points: 4
#     Node 23, Type 0, BuildingBlock: NAHDIM_clean_sbu_0, # of connection points: 4
#     Node 24, Type 0, BuildingBlock: NAHDIM_clean_sbu_0, # of connection points: 4
#     Node 25, Type 0, BuildingBlock: NAHDIM_clean_sbu_0, # of connection points: 4
#     Node 26, Type 0, BuildingBlock: NAHDIM_clean_sbu_0, # of connection points: 4
#     Node 27, Type 0, BuildingBlock: NAHDIM_clean_sbu_0, # of connection points: 4
#     Node 28, Type 0, BuildingBlock: NAHDIM_clean_sbu_0, # of connection points: 4
#     Node 29, Type 0, BuildingBlock: NAHDIM_clean_sbu_0, # of connection points: 4
#     Node 30, Type 0, BuildingBlock: NAHDIM_clean_sbu_0, # of connection points: 4
#     Node 31, Type 0, BuildingBlock: NAHDIM_clean_sbu_0, # of connection points: 4
#     Edge 32, Type (0, 0), None
#     Edge 33, Type (0, 0), None
#     Edge 34, Type (0, 0), None
#     Edge 35, Type (0, 0), None
#     Edge 36, Type (0, 0), None
#     Edge 37, Type (0, 0), None
#     Edge 38, Type (0, 0), None
#     Edge 39, Type (0, 0), None
#     Edge 40, Type (0, 0), None
#     Edge 41, Type (0, 0), None
#     Edge 42, Type (0, 0), None
#     Edge 43, Type (0, 0), None
#     Edge 44, Type (0, 0), None
#     Edge 45, Type (0, 0), None
#     Edge 46, Type (0, 0), None
#     Edge 47, Type (0, 0), None
#     Edge 48, Type (0, 0), None
#     Edge 49, Type (0, 0), None
#     Edge 50, Type (0, 0), None
#     Edge 51, Type (0, 0), None
#     Edge 52, Type (0, 0), None
#     Edge 53, Type (0, 0), None
#     Edge 54, Type (0, 0), None
#     Edge 55, Type (0, 0), None
#     Edge 56, Type (0, 0), None
#     Edge 57, Type (0, 0), None
#     Edge 58, Type (0, 0), None
#     Edge 59, Type (0, 0), None
#     Edge 60, Type (0, 0), None
#     Edge 61, Type (0, 0), None
#     Edge 62, Type (0, 0), None
#     Edge 63, Type (0, 0), None
#     Edge 64, Type (0, 0), None
#     Edge 65, Type (0, 0), None
#     Edge 66, Type (0, 0), None
#     Edge 67, Type (0, 0), None
#     Edge 68, Type (0, 0), None
#     Edge 69, Type (0, 0), None
#     Edge 70, Type (0, 0), None
#     Edge 71, Type (0, 0), None
#     Edge 72, Type (0, 0), None
#     Edge 73, Type (0, 0), None
#     Edge 74, Type (0, 0), None
#     Edge 75, Type (0, 0), None
#     Edge 76, Type (0, 0), None
#     Edge 77, Type (0, 0), None
#     Edge 78, Type (0, 0), None
#     Edge 79, Type (0, 0), None
#     Edge 80, Type (0, 0), None
#     Edge 81, Type (0, 0), None
#     Edge 82, Type (0, 0), None
#     Edge 83, Type (0, 0), None
#     Edge 84, Type (0, 0), None
#     Edge 85, Type (0, 0), None
#     Edge 86, Type (0, 0), None
#     Edge 87, Type (0, 0), None
#     Edge 88, Type (0, 0), None
#     Edge 89, Type (0, 0), None
#     Edge 90, Type (0, 0), None
#     Edge 91, Type (0, 0), None
#     Edge 92, Type (0, 0), None
#     Edge 93, Type (0, 0), None
#     Edge 94, Type (0, 0), None
#     Edge 95, Type (0, 0), None
# Relax obj value: 0.748
# Max RMSD: 0.330
# Mean RMSD: 0.307
data_MOF--net-dia-a--node1-NAHDIM_clean_sbu_0--edge1-none
_symmetry_space_group_name_H-M    P1
_symmetry_Int_Tables_number       1
_symmetry_cell_setting            triclinic
loop_
_symmetry_equiv_pos_as_xyz
'x, y, z'
_cell_length_a     33.281416
_cell_length_b     30.058824
_cell_length_c     24.467481
_cell_angle_alpha  92.328087
_cell_angle_beta   90.347616
_cell_angle_gamma 91.095897
loop_
_atom_site_label
_atom_site_type_symbol
_atom_site_fract_x
_atom_site_fract_y
_atom_site_fract_z
_atom_type_partial_charge
C0 C 0.99473 -0.00269 0.52862 0.0
O1 O 0.98646 0.03266 0.55949 0.0
O2 O 0.08812 0.07691 0.50958 0.0
Zn3 Zn 0.0766 0.02256 0.55389 0.0
O4 O 0.06611 0.03505 0.63512 0.0
C5 C 0.1577 -0.00327 0.52527 0.0
O6 O 0.15329 0.02388 0.48505 0.0
O7 O 0.03104 -0.01329 0.5205 0.0
C8 C 0.06147 -0.00115 0.65974 0.0
O9 O 0.06103 -0.0389 0.63075 0.0
C10 C 0.06818 0.11045 0.49592 0.0
O11 O 0.03142 0.11577 0.51387 0.0
O12 O 0.12754 -0.01272 0.55452 0.0
C13 C 0.99957 0.16173 0.80514 0.0
O14 O 0.00793 0.18648 0.84931 0.0
O15 O 0.87028 0.17237 0.80939 0.0
Zn16 Zn 0.92211 0.2074 0.7999 0.0
O17 O 0.93501 0.24141 0.86973 0.0
C18 C 0.89614 0.26258 0.7043 0.0
O19 O 0.864 0.23734 0.69501 0.0
O20 O 0.96617 0.16529 0.78037 0.0
C21 C 0.95999 0.27366 0.86691 0.0
O22 O 0.97938 0.27938 0.82105 0.0
C23 C 0.83572 0.18374 0.82645 0.0
O24 O 0.808 0.15257 0.8319 0.0
O25 O 0.92034 0.25387 0.74255 0.0
C26 C 0.65955 0.27322 0.95593 0.0
O27 O 0.64447 0.2395 0.92617 0.0
O28 O 0.58663 0.18608 -0.00353 0.0
Zn29 Zn 0.63662 0.21443 0.03285 0.0
O30 O 0.68407 0.17461 0.01935 0.0
C31 C 0.61875 0.17023 0.12281 0.0
O32 O 0.62436 0.13997 0.08378 0.0
O33 O 0.65413 0.27411 0.00724 0.0
C34 C 0.71288 0.1731 0.05354 0.0
O35 O 0.71354 0.20044 0.0968 0.0
C36 C 0.59092 0.14788 -0.02672 0.0
O37 O 0.62569 0.13887 0.95072 0.0
O38 O 0.62479 0.21112 0.11322 0.0
C39 C 0.85084 -0.03148 0.11807 0.0
O40 O 0.86868 -0.01437 0.16229 0.0
O41 O 0.90928 0.91604 0.22289 0.0
Zn42 Zn 0.8629 0.89176 0.17553 0.0
O43 O 0.81467 0.89558 0.22387 0.0
C44 C 0.89996 0.80715 0.18214 0.0
O45 O 0.93104 0.8325 0.19678 0.0
O46 O 0.84999 0.92654 0.10992 0.0
C47 C 0.78706 0.86589 0.22118 0.0
O48 O 0.78707 0.83558 0.18099 0.0
C49 C 0.90233 0.93821 0.26714 0.0
O50 O 0.86631 0.95405 0.27564 0.0
O51 O 0.86908 0.82504 0.16248 0.0
C52 C 0.02917 0.13132 0.78181 0.0
O53 O 0.01959 0.107 0.73766 0.0
O54 O 0.15589 0.0852 0.76768 0.0
Zn55 Zn 0.09625 0.08803 0.75303 0.0
O56 O 0.06765 0.02776 0.75324 0.0
C57 C 0.10802 0.155 0.67652 0.0
O58 O 0.11525 0.18029 0.72062 0.0
O59 O 0.06459 0.12957 0.8013 0.0
C60 C 0.05519 -0.00266 0.71915 0.0
O61 O 0.03867 -0.03878 0.73839 0.0
C62 C 0.1724 0.05396 0.73989 0.0
O63 O 0.14979 0.02045 0.721 0.0
O64 O 0.09674 0.11461 0.68052 0.0
C65 C 0.69295 0.29905 0.93364 0.0
O66 O 0.71479 0.3259 -0.03402 0.0
O67 O 0.79281 0.34712 0.90248 0.0
Zn68 Zn 0.76219 0.29802 0.86009 0.0
O69 O 0.79066 0.23891 0.85752 0.0
C70 C 0.76556 0.35612 0.77081 0.0
O71 O 0.7649 0.38699 0.81032 0.0
O72 O 0.70655 0.28626 0.8874 0.0
C73 C 0.82518 0.23052 0.83787 0.0
O74 O 0.84834 0.26308 0.82131 0.0
C75 C 0.82125 0.34328 0.93668 0.0
O76 O 0.83069 0.30358 0.95258 0.0
O77 O 0.76044 0.31562 0.7822 0.0
C78 C 0.8203 -0.00542 0.09143 0.0
O79 O 0.79741 -0.02449 0.05299 0.0
O80 O 0.72336 0.02305 0.04118 0.0
Zn81 Zn 0.75321 0.05238 0.10558 0.0
O82 O 0.71907 0.03761 0.17087 0.0
C83 C 0.73735 0.13318 0.05266 0.0
O84 O 0.73603 0.10625 0.00908 0.0
O85 O 0.80879 0.02999 0.11616 0.0
C86 C 0.71037 0.06312 0.21165 0.0
O87 O 0.7281 0.10243 0.21771 0.0
C88 C 0.69768 -0.00763 0.0498 0.0
O89 O 0.70082 -0.02998 0.0946 0.0
O90 O 0.74945 0.11873 0.09791 0.0
C91 C 0.96265 -0.02881 0.50089 0.0
O92 O 0.92541 -0.01517 0.5017 0.0
O93 O 0.88583 0.87242 0.46134 0.0
Zn94 Zn 0.93381 0.90095 0.42465 0.0
O95 O 0.91358 0.93613 0.36185 0.0
C96 C 0.95741 0.81051 0.4073 0.0
O97 O 0.93808 0.80482 0.45317 0.0
O98 O 0.97174 0.93652 0.47283 0.0
C99 C 0.92873 0.93228 0.31433 0.0
O100 O 0.96242 0.9108 0.30745 0.0
C101 C 0.85062 0.88049 0.44458 0.0
O102 O 0.84482 0.91652 0.4172 0.0
O103 O 0.96287 0.8495 0.39039 0.0
C104 C 0.4948 -0.00261 0.0287 0.0
O105 O 0.48653 0.03268 0.05967 0.0
O106 O 0.58821 0.07697 0.0096 0.0
Zn107 Zn 0.57668 0.02263 0.05391 0.0
O108 O 0.5662 0.03512 0.13513 0.0
C109 C 0.65776 -0.00322 0.02526 0.0
O110 O 0.65338 0.02393 -0.01496 0.0
O111 O 0.53111 -0.0132 0.0205 0.0
C112 C 0.56155 -0.00108 0.15976 0.0
O113 O 0.5611 -0.03883 0.13077 0.0
C114 C 0.56825 0.11049 -0.00408 0.0
O115 O 0.53148 0.1158 0.01384 0.0
O116 O 0.62761 -0.01267 0.05452 0.0
C117 C 0.99951 0.66146 0.30522 0.0
O118 O 0.00799 0.68609 0.34944 0.0
O119 O 0.87024 0.67245 0.3098 0.0
Zn120 Zn 0.92214 0.70735 0.30034 0.0
O121 O 0.93518 0.74118 0.37025 0.0
C122 C 0.89631 0.7628 0.2049 0.0
O123 O 0.86414 0.73763 0.19543 0.0
O124 O 0.96608 0.66515 0.28057 0.0
C125 C 0.96023 0.77338 0.36748 0.0
O126 O 0.97961 0.77915 0.32163 0.0
C127 C 0.8357 0.68388 0.32688 0.0
O128 O 0.80792 0.65277 0.33229 0.0
O129 O 0.92044 0.75397 0.24317 0.0
C130 C 0.15955 0.27315 0.45593 0.0
O131 O 0.14448 0.23943 0.42615 0.0
O132 O 0.08659 0.18602 0.49646 0.0
Zn133 Zn 0.13659 0.21434 0.53282 0.0
O134 O 0.18402 0.17451 0.51929 0.0
C135 C 0.11872 0.17013 0.62278 0.0
O136 O 0.12432 0.13987 0.58374 0.0
O137 O 0.15411 0.27403 0.50724 0.0
C138 C 0.21283 0.17299 0.55348 0.0
O139 O 0.21351 0.20033 0.59673 0.0
C140 C 0.09086 0.14782 0.47323 0.0
O141 O 0.12561 0.13875 0.45068 0.0
O142 O 0.12477 0.21101 0.6132 0.0
C143 C 0.85034 0.46803 0.61701 0.0
O144 O 0.86828 0.4852 0.66112 0.0
O145 O 0.90877 0.41581 0.72198 0.0
Zn146 Zn 0.86243 0.39137 0.67465 0.0
O147 O 0.8142 0.39515 0.72297 0.0
C148 C 0.89969 0.30688 0.68137 0.0
O149 O 0.93076 0.33231 0.69588 0.0
O150 O 0.84946 0.42604 0.60898 0.0
C151 C 0.78664 0.3654 0.72034 0.0
O152 O 0.78669 0.33501 0.68024 0.0
C153 C 0.90178 0.43806 0.76615 0.0
O154 O 0.86574 0.45384 0.7746 0.0
O155 O 0.86875 0.32466 0.66175 0.0
C156 C 0.5292 0.13138 0.28185 0.0
O157 O 0.51962 0.10706 0.2377 0.0
O158 O 0.65594 0.08532 0.26771 0.0
Zn159 Zn 0.5963 0.08812 0.25306 0.0
O160 O 0.56771 0.02784 0.25326 0.0
C161 C 0.60804 0.1551 0.17655 0.0
O162 O 0.61527 0.1804 0.22065 0.0
O163 O 0.56462 0.12964 0.30134 0.0
C164 C 0.55527 -0.00259 0.21917 0.0
O165 O 0.53876 -0.03871 0.23841 0.0
C166 C 0.67245 0.05406 0.23997 0.0
O167 O 0.64987 0.02051 0.22111 0.0
O168 O 0.59677 0.11471 0.18055 0.0
C169 C 0.69306 0.79934 0.43415 0.0
O170 O 0.71494 0.82605 0.46662 0.0
O171 O 0.79308 0.84726 0.40328 0.0
Zn172 Zn 0.76239 0.79832 0.36071 0.0
O173 O 0.79074 0.73913 0.35802 0.0
C174 C 0.76594 0.85659 0.27161 0.0
O175 O 0.76535 0.88741 0.31117 0.0
O176 O 0.7067 0.78664 0.38789 0.0
C177 C 0.82525 0.73068 0.33837 0.0
O178 O 0.84848 0.76321 0.32189 0.0
C179 C 0.82154 0.84325 0.43742 0.0
O180 O 0.8309 0.80348 0.45315 0.0
O181 O 0.76074 0.81608 0.28288 0.0
C182 C 0.32026 -0.00553 0.59136 0.0
O183 O 0.29735 -0.02461 0.55296 0.0
O184 O 0.22331 0.02293 0.54112 0.0
Zn185 Zn 0.25316 0.05227 0.60552 0.0
O186 O 0.21902 0.03749 0.67081 0.0
C187 C 0.2373 0.13307 0.55259 0.0
O188 O 0.23597 0.10614 0.50902 0.0
O189 O 0.30875 0.02989 0.61608 0.0
C190 C 0.21034 0.06301 0.7116 0.0
O191 O 0.22807 0.10231 0.71769 0.0
C192 C 0.19763 -0.00774 0.54975 0.0
O193 O 0.20073 -0.03011 0.59455 0.0
O194 O 0.24939 0.11861 0.59784 0.0
C195 C 0.96216 0.47158 -1e-05 0.0
O196 O 0.92489 0.48513 0.00095 0.0
O197 O 0.88546 0.37268 0.96058 0.0
Zn198 Zn 0.93337 0.40125 0.92378 0.0
O199 O 0.91307 0.43625 0.86088 0.0
C200 C 0.95711 0.31083 0.90665 0.0
O201 O 0.93777 0.30515 0.95252 0.0
O202 O 0.97128 0.43696 -0.02814 0.0
C203 C 0.92821 0.43232 0.81337 0.0
O204 O 0.96194 0.41091 0.80656 0.0
C205 C 0.85023 0.38063 0.94376 0.0
O206 O 0.84435 0.41656 0.91626 0.0
O207 O 0.96251 0.3498 0.88966 0.0
C208 C 0.99424 0.49772 0.02772 0.0
O209 O 0.98594 0.53299 0.05872 0.0
O210 O 0.08769 0.57737 0.00896 0.0
Zn211 Zn 0.07613 0.52291 0.05305 0.0
O212 O 0.06567 0.53516 0.13433 0.0
C213 C 0.15719 0.49701 0.02424 0.0
O214 O 0.15283 0.52431 -0.01583 0.0
O215 O 0.03055 0.48715 0.01955 0.0
C216 C 0.061 0.49888 0.15879 0.0
O217 O 0.06052 0.46122 0.12962 0.0
C218 C 0.06779 0.61102 -0.00444 0.0
O219 O 0.03108 0.61637 0.01368 0.0
O220 O 0.12704 0.48756 0.05349 0.0
C221 C 0.46216 0.47162 0.50005 0.0
O222 O 0.42489 0.48517 0.50101 0.0
O223 O 0.38545 0.37272 0.46062 0.0
Zn224 Zn 0.43336 0.40129 0.42382 0.0
O225 O 0.41305 0.43631 0.36092 0.0
C226 C 0.45709 0.31087 0.40667 0.0
O227 O 0.43776 0.30521 0.45255 0.0
O228 O 0.47127 0.437 0.4719 0.0
C229 C 0.42818 0.43238 0.3134 0.0
O230 O 0.46192 0.41097 0.30662 0.0
C231 C 0.35022 0.38064 0.44379 0.0
O232 O 0.34434 0.41657 0.41627 0.0
O233 O 0.46249 0.34985 0.38969 0.0
C234 C 0.15961 0.77359 0.95631 0.0
O235 O 0.14451 0.73998 0.92636 0.0
O236 O 0.08632 0.68656 -0.00357 0.0
Zn237 Zn 0.1364 0.71463 0.03288 0.0
O238 O 0.18372 0.67468 0.01909 0.0
C239 C 0.11848 0.67017 0.12264 0.0
O240 O 0.12398 0.64001 0.08345 0.0
O241 O 0.15409 0.77435 0.00759 0.0
C242 C 0.21255 0.67299 0.05321 0.0
O243 O 0.21333 0.7002 0.09658 0.0
C244 C 0.0905 0.64842 -0.02699 0.0
O245 O 0.1252 0.63935 0.95032 0.0
O246 O 0.12462 0.71108 0.11324 0.0
C247 C 0.02902 0.63103 0.28168 0.0
O248 O 0.01932 0.60686 0.23745 0.0
O249 O 0.15562 0.58463 0.26699 0.0
Zn250 Zn 0.09598 0.58767 0.25249 0.0
O251 O 0.06724 0.52747 0.25241 0.0
C252 C 0.1078 0.6549 0.17631 0.0
O253 O 0.11513 0.68003 0.22051 0.0
O254 O 0.06446 0.62914 0.30105 0.0
C255 C 0.05471 0.49719 0.21818 0.0
O256 O 0.03812 0.46104 0.23724 0.0
C257 C 0.17204 0.55344 0.23902 0.0
O258 O 0.14934 0.52005 0.21997 0.0
O259 O 0.09644 0.61451 0.18013 0.0
C260 C 0.19311 0.7994 0.93425 0.0
O261 O 0.21497 0.82609 -0.03323 0.0
O262 O 0.29311 0.84741 0.90335 0.0
Zn263 Zn 0.26246 0.7984 0.86084 0.0
O264 O 0.29083 0.73923 0.85825 0.0
C265 C 0.26602 0.85657 0.77163 0.0
O266 O 0.2654 0.88742 0.81116 0.0
O267 O 0.20676 0.78672 0.88799 0.0
C268 C 0.32533 0.73077 0.83856 0.0
O269 O 0.34852 0.76329 0.82198 0.0
C270 C 0.32159 0.84344 0.93746 0.0
O271 O 0.33098 0.80368 0.95322 0.0
O272 O 0.26083 0.81608 0.78297 0.0
C273 C 0.35085 -0.03155 0.61796 0.0
O274 O 0.36872 -0.01439 0.66213 0.0
O275 O 0.40931 0.91606 0.72281 0.0
Zn276 Zn 0.36293 0.89173 0.67547 0.0
O277 O 0.31471 0.89555 0.72382 0.0
C278 C 0.40001 0.80714 0.68218 0.0
O279 O 0.43108 0.83251 0.69682 0.0
O280 O 0.34999 0.92647 0.60984 0.0
C281 C 0.28712 0.86585 0.72116 0.0
O282 O 0.28712 0.83548 0.68104 0.0
C283 C 0.40235 0.93826 0.76703 0.0
O284 O 0.36633 0.9541 0.77551 0.0
O285 O 0.36913 0.82501 0.66247 0.0
C286 C 0.4627 -0.02871 0.00095 0.0
O287 O 0.42544 -0.01514 0.00196 0.0
O288 O 0.38588 0.87263 0.96133 0.0
Zn289 Zn 0.43385 0.90113 0.92458 0.0
O290 O 0.41361 0.93627 0.86174 0.0
C291 C 0.45745 0.81067 0.90732 0.0
O292 O 0.43812 0.80502 0.9532 0.0
O293 O 0.4718 0.93671 -0.02728 0.0
C294 C 0.42875 0.93239 0.81423 0.0
O295 O 0.46245 0.91092 0.80738 0.0
C296 C 0.35066 0.8807 0.94458 0.0
O297 O 0.34484 0.91669 0.91715 0.0
O298 O 0.4629 0.84966 0.89037 0.0
C299 C 0.31976 0.49407 0.09045 0.0
O300 O 0.29678 0.47496 0.05216 0.0
O301 O 0.2229 0.52288 0.04007 0.0
Zn302 Zn 0.25276 0.552 0.1046 0.0
O303 O 0.2186 0.53708 0.16982 0.0
C304 C 0.23694 0.633 0.0521 0.0
O305 O 0.23553 0.6062 0.0084 0.0
O306 O 0.30833 0.52955 0.1151 0.0
C307 C 0.20999 0.56247 0.21075 0.0
O308 O 0.22783 0.60171 0.21705 0.0
C309 C 0.19713 0.49228 0.0486 0.0
O310 O 0.2002 0.46976 0.09327 0.0
O311 O 0.24906 0.61838 0.09724 0.0
C312 C 0.49959 0.66154 0.80533 0.0
O313 O 0.50811 0.68621 0.84951 0.0
O314 O 0.37031 0.67253 0.81003 0.0
Zn315 Zn 0.42221 0.70743 0.8005 0.0
O316 O 0.43526 0.74131 0.87037 0.0
C317 C 0.39636 0.7628 0.70498 0.0
O318 O 0.36421 0.73761 0.6955 0.0
O319 O 0.46614 0.66522 0.78073 0.0
C320 C 0.46029 0.77352 0.86755 0.0
O321 O 0.47965 0.77926 0.82168 0.0
C322 C 0.33578 0.68396 0.82712 0.0
O323 O 0.30801 0.65286 0.8326 0.0
O324 O 0.42048 0.754 0.74328 0.0
C325 C 0.49424 0.49774 0.52778 0.0
O326 O 0.48596 0.53302 0.55877 0.0
O327 O 0.5877 0.57737 0.50899 0.0
Zn328 Zn 0.57614 0.52292 0.55309 0.0
O329 O 0.5657 0.53519 0.63437 0.0
C330 C 0.65719 0.49699 0.52425 0.0
O331 O 0.65282 0.52429 0.48418 0.0
O332 O 0.53055 0.48717 0.5196 0.0
C333 C 0.56103 0.49891 0.65885 0.0
O334 O 0.56054 0.46125 0.6297 0.0
C335 C 0.56779 0.61101 0.49558 0.0
O336 O 0.53108 0.61636 0.5137 0.0
O337 O 0.62705 0.48756 0.55352 0.0
C338 C 0.65956 0.77357 0.45624 0.0
O339 O 0.64443 0.73997 0.4263 0.0
O340 O 0.58632 0.68656 0.49644 0.0
Zn341 Zn 0.6364 0.71463 0.53287 0.0
O342 O 0.68372 0.67468 0.51908 0.0
C343 C 0.61849 0.6702 0.62265 0.0
O344 O 0.62398 0.64004 0.58346 0.0
O345 O 0.65408 0.77434 0.50754 0.0
C346 C 0.71256 0.67298 0.55319 0.0
O347 O 0.71334 0.70019 0.59656 0.0
C348 C 0.59049 0.64842 0.47302 0.0
O349 O 0.6252 0.63935 0.45032 0.0
O350 O 0.62464 0.71111 0.61323 0.0
C351 C 0.81977 0.49406 0.5904 0.0
O352 O 0.7968 0.47494 0.55209 0.0
O353 O 0.72291 0.52287 0.54005 0.0
Zn354 Zn 0.75277 0.55198 0.60457 0.0
O355 O 0.7186 0.53707 0.66979 0.0
C356 C 0.73694 0.63299 0.55207 0.0
O357 O 0.73551 0.60619 0.50837 0.0
O358 O 0.80833 0.52953 0.61507 0.0
C359 C 0.71 0.56248 0.71072 0.0
O360 O 0.72786 0.6017 0.71699 0.0
C361 C 0.69714 0.49226 0.54858 0.0
O362 O 0.70022 0.46974 0.59326 0.0
O363 O 0.74907 0.61837 0.59721 0.0
C364 C 0.52908 0.6311 0.78178 0.0
O365 O 0.51936 0.60692 0.73757 0.0
O366 O 0.65567 0.58467 0.76698 0.0
Zn367 Zn 0.59602 0.58773 0.75252 0.0
O368 O 0.56727 0.52753 0.75246 0.0
C369 C 0.60782 0.65494 0.67633 0.0
O370 O 0.61518 0.68008 0.72052 0.0
O371 O 0.56453 0.62921 0.80111 0.0
C372 C 0.55474 0.49725 0.71824 0.0
O373 O 0.53814 0.46111 0.73731 0.0
C374 C 0.67206 0.55345 0.73903 0.0
O375 O 0.64937 0.52005 0.72001 0.0
O376 O 0.59645 0.61456 0.68016 0.0
C377 C 0.19294 0.299 0.43367 0.0
O378 O 0.21477 0.32584 0.46603 0.0
O379 O 0.29279 0.34713 0.40254 0.0
Zn380 Zn 0.26219 0.29803 0.36013 0.0
O381 O 0.29067 0.23892 0.35755 0.0
C382 C 0.26557 0.35614 0.27086 0.0
O383 O 0.26491 0.387 0.31037 0.0
O384 O 0.20654 0.28624 0.38742 0.0
C385 C 0.32519 0.23054 0.3379 0.0
O386 O 0.34834 0.2631 0.32135 0.0
C387 C 0.32124 0.34329 0.43673 0.0
O388 O 0.33069 0.3036 0.45264 0.0
O389 O 0.26044 0.31564 0.28224 0.0
C390 C 0.35036 0.46806 0.11704 0.0
O391 O 0.36831 0.48527 0.16113 0.0
O392 O 0.40877 0.41586 0.22202 0.0
Zn393 Zn 0.36244 0.3914 0.17469 0.0
O394 O 0.3142 0.39518 0.22303 0.0
C395 C 0.3997 0.30691 0.18144 0.0
O396 O 0.43075 0.33236 0.19596 0.0
O397 O 0.34946 0.42607 0.10903 0.0
C398 C 0.28665 0.36542 0.22039 0.0
O399 O 0.2867 0.33504 0.18029 0.0
C400 C 0.40177 0.43813 0.26618 0.0
O401 O 0.36573 0.45392 0.27464 0.0
O402 O 0.36876 0.32469 0.16179 0.0
C403 C 0.49959 0.16178 0.30518 0.0
O404 O 0.50795 0.18653 0.34935 0.0
O405 O 0.3703 0.17239 0.30944 0.0
Zn406 Zn 0.42212 0.20743 0.29995 0.0
O407 O 0.43502 0.24144 0.36977 0.0
C408 C 0.39616 0.26261 0.20434 0.0
O409 O 0.36401 0.23737 0.19503 0.0
O410 O 0.46619 0.16532 0.28042 0.0
C411 C 0.46 0.2737 0.36694 0.0
O412 O 0.47939 0.27944 0.32109 0.0
C413 C 0.33574 0.18376 0.32649 0.0
O414 O 0.30802 0.15259 0.33195 0.0
O415 O 0.42035 0.2539 0.2426 0.0
loop_
_geom_bond_atom_site_label_1
_geom_bond_atom_site_label_2
_geom_bond_distance
_geom_bond_site_symmetry_2
_ccdc_geom_bond_type
C0 O1 1.179 . S
C0 O7 1.185 . S
O1 C0 1.179 . S
O2 Zn3 1.899 . S
O2 C10 1.284 . S
Zn3 O2 1.899 . S
Zn3 O4 2.032 . S
Zn3 O7 2.086 1_545 S
Zn3 O12 1.977 . S
O4 Zn3 2.032 . S
O4 C8 1.278 . S
C5 O6 1.203 . S
C5 O12 1.267 . S
O6 C5 1.203 . S
O7 C0 1.185 . S
O7 Zn3 2.086 1_565 S
C8 O4 1.278 . S
C8 O9 1.211 . S
O9 C8 1.211 . S
C10 O2 1.284 . S
C10 O11 1.273 . S
O11 C10 1.273 . S
O12 Zn3 1.977 . S
O12 C5 1.267 . S
C13 O14 1.160 . S
C13 O20 1.185 . S
O14 C13 1.160 . S
O15 Zn16 1.899 . S
O15 C23 1.284 . S
Zn16 O15 1.899 . S
Zn16 O17 2.032 . S
Zn16 O20 2.086 . S
Zn16 O25 1.977 . S
O17 Zn16 2.032 . S
O17 C21 1.278 . S
C18 O19 1.203 . S
C18 O25 1.267 . S
O19 C18 1.203 . S
O20 C13 1.185 . S
O20 Zn16 2.086 . S
C21 O17 1.278 . S
C21 O22 1.211 . S
O22 C21 1.211 . S
C23 O15 1.284 . S
C23 O24 1.273 . S
O24 C23 1.273 . S
O25 Zn16 1.977 . S
O25 C18 1.267 . S
C26 O27 1.160 . S
C26 O33 1.169 1_556 S
O27 C26 1.160 . S
O28 Zn29 1.899 1_556 S
O28 C36 1.284 . S
Zn29 O28 1.899 1_554 S
Zn29 O30 2.032 . S
Zn29 O33 2.094 . S
Zn29 O38 1.977 . S
O30 Zn29 2.032 . S
O30 C34 1.278 . S
C31 O32 1.203 . S
C31 O38 1.267 . S
O32 C31 1.203 . S
O33 C26 1.169 1_554 S
O33 Zn29 2.094 . S
C34 O30 1.278 . S
C34 O35 1.211 . S
O35 C34 1.211 . S
C36 O28 1.284 . S
C36 O37 1.273 1_556 S
O37 C36 1.273 1_554 S
O38 Zn29 1.977 . S
O38 C31 1.267 . S
C39 O40 1.160 . S
C39 O46 1.185 . S
O40 C39 1.160 . S
O41 Zn42 1.899 . S
O41 C49 1.284 . S
Zn42 O41 1.899 . S
Zn42 O43 2.032 . S
Zn42 O46 2.086 1_565 S
Zn42 O51 1.977 . S
O43 Zn42 2.032 . S
O43 C47 1.278 . S
C44 O45 1.203 . S
C44 O51 1.267 . S
O45 C44 1.203 . S
O46 C39 1.185 . S
O46 Zn42 2.086 1_545 S
C47 O43 1.278 . S
C47 O48 1.211 . S
O48 C47 1.211 . S
C49 O41 1.284 . S
C49 O50 1.273 . S
O50 C49 1.273 . S
O51 Zn42 1.977 . S
O51 C44 1.267 . S
C52 O53 1.171 . S
C52 O59 1.194 . S
O53 C52 1.171 . S
O54 Zn55 1.899 . S
O54 C62 1.284 . S
Zn55 O54 1.899 . S
Zn55 O56 2.032 . S
Zn55 O59 2.086 . S
Zn55 O64 1.977 . S
O56 Zn55 2.032 . S
O56 C60 1.278 . S
C57 O58 1.203 . S
C57 O64 1.267 . S
O58 C57 1.203 . S
O59 C52 1.194 . S
O59 Zn55 2.086 . S
C60 O56 1.278 . S
C60 O61 1.211 . S
O61 C60 1.211 . S
C62 O54 1.284 . S
C62 O63 1.273 . S
O63 C62 1.273 . S
O64 Zn55 1.977 . S
O64 C57 1.267 . S
C65 O66 1.160 . S
C65 O72 1.185 1_554 S
O66 C65 1.160 . S
O67 Zn68 1.899 1_554 S
O67 C75 1.284 . S
Zn68 O67 1.899 1_556 S
Zn68 O69 2.032 . S
Zn68 O72 2.086 . S
Zn68 O77 1.977 . S
O69 Zn68 2.032 . S
O69 C73 1.278 . S
C70 O71 1.203 . S
C70 O77 1.267 . S
O71 C70 1.203 . S
O72 C65 1.185 1_556 S
O72 Zn68 2.086 . S
C73 O69 1.278 . S
C73 O74 1.211 . S
O74 C73 1.211 . S
C75 O67 1.284 . S
C75 O76 1.273 1_554 S
O76 C75 1.273 1_556 S
O77 Zn68 1.977 . S
O77 C70 1.267 . S
C78 O79 1.160 . S
C78 O85 1.185 . S
O79 C78 1.160 . S
O80 Zn81 1.899 . S
O80 C88 1.284 . S
Zn81 O80 1.899 . S
Zn81 O82 2.032 . S
Zn81 O85 2.086 . S
Zn81 O90 1.977 . S
O82 Zn81 2.032 . S
O82 C86 1.278 . S
C83 O84 1.203 . S
C83 O90 1.267 . S
O84 C83 1.203 . S
O85 C78 1.185 . S
O85 Zn81 2.086 . S
C86 O82 1.278 . S
C86 O87 1.211 . S
O87 C86 1.211 . S
C88 O80 1.284 . S
C88 O89 1.273 . S
O89 C88 1.273 . S
O90 Zn81 1.977 . S
O90 C83 1.267 . S
C91 O92 1.180 . S
C91 O98 1.186 . S
O92 C91 1.180 . S
O93 Zn94 1.899 . S
O93 C101 1.284 . S
Zn94 O93 1.899 . S
Zn94 O95 2.032 . S
Zn94 O98 2.086 . S
Zn94 O103 1.977 . S
O95 Zn94 2.032 . S
O95 C99 1.278 . S
C96 O97 1.203 . S
C96 O103 1.267 . S
O97 C96 1.203 . S
O98 C91 1.186 . S
O98 Zn94 2.086 . S
C99 O95 1.278 . S
C99 O100 1.211 . S
O100 C99 1.211 . S
C101 O93 1.284 . S
C101 O102 1.273 . S
O102 C101 1.273 . S
O103 Zn94 1.977 . S
O103 C96 1.267 . S
C104 O105 1.179 . S
C104 O111 1.185 . S
O105 C104 1.179 . S
O106 Zn107 1.899 1_556 S
O106 C114 1.284 . S
Zn107 O106 1.899 1_554 S
Zn107 O108 2.032 . S
Zn107 O111 2.086 1_544 S
Zn107 O116 1.977 . S
O108 Zn107 2.032 . S
O108 C112 1.278 . S
C109 O110 1.203 . S
C109 O116 1.267 . S
O110 C109 1.203 . S
O111 C104 1.185 . S
O111 Zn107 2.086 1_566 S
C112 O108 1.278 . S
C112 O113 1.211 . S
O113 C112 1.211 . S
C114 O106 1.284 . S
C114 O115 1.273 1_556 S
O115 C114 1.273 1_554 S
O116 Zn107 1.977 . S
O116 C109 1.267 . S
C117 O118 1.160 . S
C117 O124 1.185 . S
O118 C117 1.160 . S
O119 Zn120 1.899 . S
O119 C127 1.284 . S
Zn120 O119 1.899 . S
Zn120 O121 2.032 . S
Zn120 O124 2.086 . S
Zn120 O129 1.977 . S
O121 Zn120 2.032 . S
O121 C125 1.278 . S
C122 O123 1.203 . S
C122 O129 1.267 . S
O123 C122 1.203 . S
O124 C117 1.185 . S
O124 Zn120 2.086 . S
C125 O121 1.278 . S
C125 O126 1.211 . S
O126 C125 1.211 . S
C127 O119 1.284 . S
C127 O128 1.273 . S
O128 C127 1.273 . S
O129 Zn120 1.977 . S
O129 C122 1.267 . S
C130 O131 1.160 . S
C130 O137 1.185 . S
O131 C130 1.160 . S
O132 Zn133 1.899 . S
O132 C140 1.284 . S
Zn133 O132 1.899 . S
Zn133 O134 2.032 . S
Zn133 O137 2.086 . S
Zn133 O142 1.977 . S
O134 Zn133 2.032 . S
O134 C138 1.278 . S
C135 O136 1.203 . S
C135 O142 1.267 . S
O136 C135 1.203 . S
O137 C130 1.185 . S
O137 Zn133 2.086 . S
C138 O134 1.278 . S
C138 O139 1.211 . S
O139 C138 1.211 . S
C140 O132 1.284 . S
C140 O141 1.273 . S
O141 C140 1.273 . S
O142 Zn133 1.977 . S
O142 C135 1.267 . S
C143 O144 1.160 . S
C143 O150 1.185 . S
O144 C143 1.160 . S
O145 Zn146 1.899 . S
O145 C153 1.284 . S
Zn146 O145 1.899 . S
Zn146 O147 2.032 . S
Zn146 O150 2.086 . S
Zn146 O155 1.977 . S
O147 Zn146 2.032 . S
O147 C151 1.278 . S
C148 O149 1.203 . S
C148 O155 1.267 . S
O149 C148 1.203 . S
O150 C143 1.185 . S
O150 Zn146 2.086 . S
C151 O147 1.278 . S
C151 O152 1.211 . S
O152 C151 1.211 . S
C153 O145 1.284 . S
C153 O154 1.273 . S
O154 C153 1.273 . S
O155 Zn146 1.977 . S
O155 C148 1.267 . S
C156 O157 1.160 . S
C156 O163 1.185 . S
O157 C156 1.160 . S
O158 Zn159 1.899 . S
O158 C166 1.284 . S
Zn159 O158 1.899 . S
Zn159 O160 2.032 . S
Zn159 O163 2.086 . S
Zn159 O168 1.977 . S
O160 Zn159 2.032 . S
O160 C164 1.278 . S
C161 O162 1.203 . S
C161 O168 1.267 . S
O162 C161 1.203 . S
O163 C156 1.185 . S
O163 Zn159 2.086 . S
C164 O160 1.278 . S
C164 O165 1.211 . S
O165 C164 1.211 . S
C166 O158 1.284 . S
C166 O167 1.273 . S
O167 C166 1.273 . S
O168 Zn159 1.977 . S
O168 C161 1.267 . S
C169 O170 1.160 . S
C169 O176 1.185 . S
O170 C169 1.160 . S
O171 Zn172 1.899 . S
O171 C179 1.284 . S
Zn172 O171 1.899 . S
Zn172 O173 2.032 . S
Zn172 O176 2.086 . S
Zn172 O181 1.977 . S
O173 Zn172 2.032 . S
O173 C177 1.278 . S
C174 O175 1.203 . S
C174 O181 1.267 . S
O175 C174 1.203 . S
O176 C169 1.185 . S
O176 Zn172 2.086 . S
C177 O173 1.278 . S
C177 O178 1.211 . S
O178 C177 1.211 . S
C179 O171 1.284 . S
C179 O180 1.273 . S
O180 C179 1.273 . S
O181 Zn172 1.977 . S
O181 C174 1.267 . S
C182 O183 1.160 . S
C182 O189 1.185 . S
O183 C182 1.160 . S
O184 Zn185 1.899 . S
O184 C192 1.284 . S
Zn185 O184 1.899 . S
Zn185 O186 2.032 . S
Zn185 O189 2.086 . S
Zn185 O194 1.977 . S
O186 Zn185 2.032 . S
O186 C190 1.278 . S
C187 O188 1.203 . S
C187 O194 1.267 . S
O188 C187 1.203 . S
O189 C182 1.185 . S
O189 Zn185 2.086 . S
C190 O186 1.278 . S
C190 O191 1.211 . S
O191 C190 1.211 . S
C192 O184 1.284 . S
C192 O193 1.273 . S
O193 C192 1.273 . S
O194 Zn185 1.977 . S
O194 C187 1.267 . S
C195 O196 1.181 . S
C195 O202 1.186 . S
O196 C195 1.181 . S
O197 Zn198 1.899 1_554 S
O197 C205 1.284 . S
Zn198 O197 1.899 1_556 S
Zn198 O199 2.032 . S
Zn198 O202 2.086 1_556 S
Zn198 O207 1.977 . S
O199 Zn198 2.032 . S
O199 C203 1.278 . S
C200 O201 1.203 . S
C200 O207 1.267 . S
O201 C200 1.203 . S
O202 C195 1.186 . S
O202 Zn198 2.086 1_554 S
C203 O199 1.278 . S
C203 O204 1.211 . S
O204 C203 1.211 . S
C205 O197 1.284 . S
C205 O206 1.273 1_554 S
O206 C205 1.273 1_556 S
O207 Zn198 1.977 . S
O207 C200 1.267 . S
C208 O209 1.160 . S
C208 O215 1.185 . S
O209 C208 1.160 . S
O210 Zn211 1.899 1_556 S
O210 C218 1.284 . S
Zn211 O210 1.899 1_554 S
Zn211 O212 2.032 . S
Zn211 O215 2.086 1_554 S
Zn211 O220 1.977 . S
O212 Zn211 2.032 . S
O212 C216 1.278 . S
C213 O214 1.203 . S
C213 O220 1.267 . S
O214 C213 1.203 . S
O215 C208 1.185 . S
O215 Zn211 2.086 1_556 S
C216 O212 1.278 . S
C216 O217 1.211 . S
O217 C216 1.211 . S
C218 O210 1.284 . S
C218 O219 1.273 1_556 S
O219 C218 1.273 1_554 S
O220 Zn211 1.977 . S
O220 C213 1.267 . S
C221 O222 1.160 . S
C221 O228 1.185 . S
O222 C221 1.160 . S
O223 Zn224 1.899 . S
O223 C231 1.284 . S
Zn224 O223 1.899 . S
Zn224 O225 2.032 . S
Zn224 O228 2.086 . S
Zn224 O233 1.977 . S
O225 Zn224 2.032 . S
O225 C229 1.278 . S
C226 O227 1.203 . S
C226 O233 1.267 . S
O227 C226 1.203 . S
O228 C221 1.185 . S
O228 Zn224 2.086 . S
C229 O225 1.278 . S
C229 O230 1.211 . S
O230 C229 1.211 . S
C231 O223 1.284 . S
C231 O232 1.273 . S
O232 C231 1.273 . S
O233 Zn224 1.977 . S
O233 C226 1.267 . S
C234 O235 1.160 . S
C234 O241 1.169 1_556 S
O235 C234 1.160 . S
O236 Zn237 1.899 1_556 S
O236 C244 1.284 . S
Zn237 O236 1.899 1_554 S
Zn237 O238 2.032 . S
Zn237 O241 2.094 . S
Zn237 O246 1.977 . S
O238 Zn237 2.032 . S
O238 C242 1.278 . S
C239 O240 1.203 . S
C239 O246 1.267 . S
O240 C239 1.203 . S
O241 C234 1.169 1_554 S
O241 Zn237 2.094 . S
C242 O238 1.278 . S
C242 O243 1.211 . S
O243 C242 1.211 . S
C244 O236 1.284 . S
C244 O245 1.273 1_556 S
O245 C244 1.273 1_554 S
O246 Zn237 1.977 . S
O246 C239 1.267 . S
C247 O248 1.170 . S
C247 O254 1.193 . S
O248 C247 1.170 . S
O249 Zn250 1.899 . S
O249 C257 1.284 . S
Zn250 O249 1.899 . S
Zn250 O251 2.032 . S
Zn250 O254 2.086 . S
Zn250 O259 1.977 . S
O251 Zn250 2.032 . S
O251 C255 1.278 . S
C252 O253 1.203 . S
C252 O259 1.267 . S
O253 C252 1.203 . S
O254 C247 1.193 . S
O254 Zn250 2.086 . S
C255 O251 1.278 . S
C255 O256 1.211 . S
O256 C255 1.211 . S
C257 O249 1.284 . S
C257 O258 1.273 . S
O258 C257 1.273 . S
O259 Zn250 1.977 . S
O259 C252 1.267 . S
C260 O261 1.160 . S
C260 O267 1.185 1_554 S
O261 C260 1.160 . S
O262 Zn263 1.899 1_554 S
O262 C270 1.284 . S
Zn263 O262 1.899 1_556 S
Zn263 O264 2.032 . S
Zn263 O267 2.086 . S
Zn263 O272 1.977 . S
O264 Zn263 2.032 . S
O264 C268 1.278 . S
C265 O266 1.203 . S
C265 O272 1.267 . S
O266 C265 1.203 . S
O267 C260 1.185 1_556 S
O267 Zn263 2.086 . S
C268 O264 1.278 . S
C268 O269 1.211 . S
O269 C268 1.211 . S
C270 O262 1.284 . S
C270 O271 1.273 1_554 S
O271 C270 1.273 1_556 S
O272 Zn263 1.977 . S
O272 C265 1.267 . S
C273 O274 1.160 . S
C273 O280 1.185 . S
O274 C273 1.160 . S
O275 Zn276 1.899 . S
O275 C283 1.284 . S
Zn276 O275 1.899 . S
Zn276 O277 2.032 . S
Zn276 O280 2.086 1_565 S
Zn276 O285 1.977 . S
O277 Zn276 2.032 . S
O277 C281 1.278 . S
C278 O279 1.203 . S
C278 O285 1.267 . S
O279 C278 1.203 . S
O280 C273 1.185 . S
O280 Zn276 2.086 1_545 S
C281 O277 1.278 . S
C281 O282 1.211 . S
O282 C281 1.211 . S
C283 O275 1.284 . S
C283 O284 1.273 . S
O284 C283 1.273 . S
O285 Zn276 1.977 . S
O285 C278 1.267 . S
C286 O287 1.160 . S
C286 O293 1.185 . S
O287 C286 1.160 . S
O288 Zn289 1.899 1_554 S
O288 C296 1.284 . S
Zn289 O288 1.899 1_556 S
Zn289 O290 2.032 . S
Zn289 O293 2.086 1_556 S
Zn289 O298 1.977 . S
O290 Zn289 2.032 . S
O290 C294 1.278 . S
C291 O292 1.203 . S
C291 O298 1.267 . S
O292 C291 1.203 . S
O293 C286 1.185 . S
O293 Zn289 2.086 1_554 S
C294 O290 1.278 . S
C294 O295 1.211 . S
O295 C294 1.211 . S
C296 O288 1.284 . S
C296 O297 1.273 1_554 S
O297 C296 1.273 1_556 S
O298 Zn289 1.977 . S
O298 C291 1.267 . S
C299 O300 1.160 . S
C299 O306 1.185 . S
O300 C299 1.160 . S
O301 Zn302 1.899 . S
O301 C309 1.284 . S
Zn302 O301 1.899 . S
Zn302 O303 2.032 . S
Zn302 O306 2.086 . S
Zn302 O311 1.977 . S
O303 Zn302 2.032 . S
O303 C307 1.278 . S
C304 O305 1.203 . S
C304 O311 1.267 . S
O305 C304 1.203 . S
O306 C299 1.185 . S
O306 Zn302 2.086 . S
C307 O303 1.278 . S
C307 O308 1.211 . S
O308 C307 1.211 . S
C309 O301 1.284 . S
C309 O310 1.273 . S
O310 C309 1.273 . S
O311 Zn302 1.977 . S
O311 C304 1.267 . S
C312 O313 1.160 . S
C312 O319 1.185 . S
O313 C312 1.160 . S
O314 Zn315 1.899 . S
O314 C322 1.284 . S
Zn315 O314 1.899 . S
Zn315 O316 2.032 . S
Zn315 O319 2.086 . S
Zn315 O324 1.977 . S
O316 Zn315 2.032 . S
O316 C320 1.278 . S
C317 O318 1.203 . S
C317 O324 1.267 . S
O318 C317 1.203 . S
O319 C312 1.185 . S
O319 Zn315 2.086 . S
C320 O316 1.278 . S
C320 O321 1.211 . S
O321 C320 1.211 . S
C322 O314 1.284 . S
C322 O323 1.273 . S
O323 C322 1.273 . S
O324 Zn315 1.977 . S
O324 C317 1.267 . S
C325 O326 1.160 . S
C325 O332 1.185 . S
O326 C325 1.160 . S
O327 Zn328 1.899 . S
O327 C335 1.284 . S
Zn328 O327 1.899 . S
Zn328 O329 2.032 . S
Zn328 O332 2.086 . S
Zn328 O337 1.977 . S
O329 Zn328 2.032 . S
O329 C333 1.278 . S
C330 O331 1.203 . S
C330 O337 1.267 . S
O331 C330 1.203 . S
O332 C325 1.185 . S
O332 Zn328 2.086 . S
C333 O329 1.278 . S
C333 O334 1.211 . S
O334 C333 1.211 . S
C335 O327 1.284 . S
C335 O336 1.273 . S
O336 C335 1.273 . S
O337 Zn328 1.977 . S
O337 C330 1.267 . S
C338 O339 1.160 . S
C338 O345 1.185 . S
O339 C338 1.160 . S
O340 Zn341 1.899 . S
O340 C348 1.284 . S
Zn341 O340 1.899 . S
Zn341 O342 2.032 . S
Zn341 O345 2.086 . S
Zn341 O350 1.977 . S
O342 Zn341 2.032 . S
O342 C346 1.278 . S
C343 O344 1.203 . S
C343 O350 1.267 . S
O344 C343 1.203 . S
O345 C338 1.185 . S
O345 Zn341 2.086 . S
C346 O342 1.278 . S
C346 O347 1.211 . S
O347 C346 1.211 . S
C348 O340 1.284 . S
C348 O349 1.273 . S
O349 C348 1.273 . S
O350 Zn341 1.977 . S
O350 C343 1.267 . S
C351 O352 1.160 . S
C351 O358 1.185 . S
O352 C351 1.160 . S
O353 Zn354 1.899 . S
O353 C361 1.284 . S
Zn354 O353 1.899 . S
Zn354 O355 2.032 . S
Zn354 O358 2.086 . S
Zn354 O363 1.977 . S
O355 Zn354 2.032 . S
O355 C359 1.278 . S
C356 O357 1.203 . S
C356 O363 1.267 . S
O357 C356 1.203 . S
O358 C351 1.185 . S
O358 Zn354 2.086 . S
C359 O355 1.278 . S
C359 O360 1.211 . S
O360 C359 1.211 . S
C361 O353 1.284 . S
C361 O362 1.273 . S
O362 C361 1.273 . S
O363 Zn354 1.977 . S
O363 C356 1.267 . S
C364 O365 1.160 . S
C364 O371 1.185 . S
O365 C364 1.160 . S
O366 Zn367 1.899 . S
O366 C374 1.284 . S
Zn367 O366 1.899 . S
Zn367 O368 2.032 . S
Zn367 O371 2.086 . S
Zn367 O376 1.977 . S
O368 Zn367 2.032 . S
O368 C372 1.278 . S
C369 O370 1.203 . S
C369 O376 1.267 . S
O370 C369 1.203 . S
O371 C364 1.185 . S
O371 Zn367 2.086 . S
C372 O368 1.278 . S
C372 O373 1.211 . S
O373 C372 1.211 . S
C374 O366 1.284 . S
C374 O375 1.273 . S
O375 C374 1.273 . S
O376 Zn367 1.977 . S
O376 C369 1.267 . S
C377 O378 1.160 . S
C377 O384 1.185 . S
O378 C377 1.160 . S
O379 Zn380 1.899 . S
O379 C387 1.284 . S
Zn380 O379 1.899 . S
Zn380 O381 2.032 . S
Zn380 O384 2.086 . S
Zn380 O389 1.977 . S
O381 Zn380 2.032 . S
O381 C385 1.278 . S
C382 O383 1.203 . S
C382 O389 1.267 . S
O383 C382 1.203 . S
O384 C377 1.185 . S
O384 Zn380 2.086 . S
C385 O381 1.278 . S
C385 O386 1.211 . S
O386 C385 1.211 . S
C387 O379 1.284 . S
C387 O388 1.273 . S
O388 C387 1.273 . S
O389 Zn380 1.977 . S
O389 C382 1.267 . S
C390 O391 1.160 . S
C390 O397 1.185 . S
O391 C390 1.160 . S
O392 Zn393 1.899 . S
O392 C400 1.284 . S
Zn393 O392 1.899 . S
Zn393 O394 2.032 . S
Zn393 O397 2.086 . S
Zn393 O402 1.977 . S
O394 Zn393 2.032 . S
O394 C398 1.278 . S
C395 O396 1.203 . S
C395 O402 1.267 . S
O396 C395 1.203 . S
O397 C390 1.185 . S
O397 Zn393 2.086 . S
C398 O394 1.278 . S
C398 O399 1.211 . S
O399 C398 1.211 . S
C400 O392 1.284 . S
C400 O401 1.273 . S
O401 C400 1.273 . S
O402 Zn393 1.977 . S
O402 C395 1.267 . S
C403 O404 1.160 . S
C403 O410 1.185 . S
O404 C403 1.160 . S
O405 Zn406 1.899 . S
O405 C413 1.284 . S
Zn406 O405 1.899 . S
Zn406 O407 2.032 . S
Zn406 O410 2.086 . S
Zn406 O415 1.977 . S
O407 Zn406 2.032 . S
O407 C411 1.278 . S
C408 O409 1.203 . S
C408 O415 1.267 . S
O409 C408 1.203 . S
O410 C403 1.185 . S
O410 Zn406 2.086 . S
C411 O407 1.278 . S
C411 O412 1.211 . S
O412 C411 1.211 . S
C413 O405 1.284 . S
C413 O414 1.273 . S
O414 C413 1.273 . S
O415 Zn406 1.977 . S
O415 C408 1.267 . S
C91 C0 2.838 1_655 S
C13 C52 2.609 1_655 S
C65 C26 2.108 1_554 S
C78 C39 1.883 . S
C104 C286 2.855 1_556 S
C117 C247 2.610 1_655 S
C377 C130 2.107 . S
C351 C143 1.884 . S
C156 C403 2.630 . S
C169 C338 2.108 . S
C182 C273 1.883 . S
C195 C208 2.837 1_654 S
C221 C325 2.856 . S
C234 C260 2.108 1_556 S
C390 C299 1.884 . S
C364 C312 2.630 . S
C140 C10 0.813 . S
C148 C18 1.773 . S
C114 C36 0.814 . S
C122 C44 1.773 . S
C190 C62 1.631 . S
C75 C205 0.921 . S
C86 C166 1.631 . S
C101 C179 0.921 . S
C164 C112 1.081 . S
C127 C177 1.887 . S
C187 C138 1.266 . S
C153 C203 1.487 . S
C309 C213 1.901 . S
C31 C161 2.155 . S
C47 C174 1.123 . S
C5 C192 1.901 . S
C226 C411 0.965 . S
C252 C239 2.155 . S
C21 C200 0.965 . S
C307 C257 1.631 . S
C270 C296 0.921 . S
C218 C244 0.814 . S
C278 C317 1.773 . S
C320 C291 0.966 . S
C135 C57 2.155 . S
C268 C322 1.887 . S
C99 C49 1.488 . S
C372 C333 1.081 . S
C73 C23 1.887 . S
C216 C255 1.081 . S
C335 C348 0.814 . S
C359 C374 1.631 . S
C304 C242 1.267 . S
C343 C369 2.155 . S
C151 C70 1.123 . S
C96 C125 0.966 . S
C231 C387 0.921 . S
C395 C408 1.773 . S
C413 C385 1.887 . S
C60 C8 1.081 . S
C34 C83 1.267 . S
C400 C229 1.487 . S
C330 C361 1.901 . S
C265 C281 1.123 . S
C88 C109 1.901 . S
C294 C283 1.488 . S
C346 C356 1.267 . S
C398 C382 1.123 . S
