# Generated by pormake.
# Topology mer, (4)-cn, num edge types: 1
# Building blocks:
#     Node 0, Type 0, BuildingBlock: QUQFOY_clean_sbu_1, # of connection points: 4
#     Node 1, Type 0, BuildingBlock: QUQFOY_clean_sbu_1, # of connection points: 4
#     Node 2, Type 0, BuildingBlock: QUQFOY_clean_sbu_1, # of connection points: 4
#     Node 3, Type 0, BuildingBlock: QUQFOY_clean_sbu_1, # of connection points: 4
#     Node 4, Type 0, BuildingBlock: QUQFOY_clean_sbu_1, # of connection points: 4
#     Node 5, Type 0, BuildingBlock: QUQFOY_clean_sbu_1, # of connection points: 4
#     Node 6, Type 0, BuildingBlock: QUQFOY_clean_sbu_1, # of connection points: 4
#     Node 7, Type 0, BuildingBlock: QUQFOY_clean_sbu_1, # of connection points: 4
#     Node 8, Type 0, BuildingBlock: QUQFOY_clean_sbu_1, # of connection points: 4
#     Node 9, Type 0, BuildingBlock: QUQFOY_clean_sbu_1, # of connection points: 4
#     Node 10, Type 0, BuildingBlock: QUQFOY_clean_sbu_1, # of connection points: 4
#     Node 11, Type 0, BuildingBlock: QUQFOY_clean_sbu_1, # of connection points: 4
#     Node 12, Type 0, BuildingBlock: QUQFOY_clean_sbu_1, # of connection points: 4
#     Node 13, Type 0, BuildingBlock: QUQFOY_clean_sbu_1, # of connection points: 4
#     Node 14, Type 0, BuildingBlock: QUQFOY_clean_sbu_1, # of connection points: 4
#     Node 15, Type 0, BuildingBlock: QUQFOY_clean_sbu_1, # of connection points: 4
#     Node 16, Type 0, BuildingBlock: QUQFOY_clean_sbu_1, # of connection points: 4
#     Node 17, Type 0, BuildingBlock: QUQFOY_clean_sbu_1, # of connection points: 4
#     Node 18, Type 0, BuildingBlock: QUQFOY_clean_sbu_1, # of connection points: 4
#     Node 19, Type 0, BuildingBlock: QUQFOY_clean_sbu_1, # of connection points: 4
#     Node 20, Type 0, BuildingBlock: QUQFOY_clean_sbu_1, # of connection points: 4
#     Node 21, Type 0, BuildingBlock: QUQFOY_clean_sbu_1, # of connection points: 4
#     Node 22, Type 0, BuildingBlock: QUQFOY_clean_sbu_1, # of connection points: 4
#     Node 23, Type 0, BuildingBlock: QUQFOY_clean_sbu_1, # of connection points: 4
#     Node 24, Type 0, BuildingBlock: QUQFOY_clean_sbu_1, # of connection points: 4
#     Node 25, Type 0, BuildingBlock: QUQFOY_clean_sbu_1, # of connection points: 4
#     Node 26, Type 0, BuildingBlock: QUQFOY_clean_sbu_1, # of connection points: 4
#     Node 27, Type 0, BuildingBlock: QUQFOY_clean_sbu_1, # of connection points: 4
#     Node 28, Type 0, BuildingBlock: QUQFOY_clean_sbu_1, # of connection points: 4
#     Node 29, Type 0, BuildingBlock: QUQFOY_clean_sbu_1, # of connection points: 4
#     Node 30, Type 0, BuildingBlock: QUQFOY_clean_sbu_1, # of connection points: 4
#     Node 31, Type 0, BuildingBlock: QUQFOY_clean_sbu_1, # of connection points: 4
#     Edge 32, Type (0, 0), BuildingBlock: AJUNOK_clean_linker_0, # of connection points: 2
#     Edge 33, Type (0, 0), BuildingBlock: AJUNOK_clean_linker_0, # of connection points: 2
#     Edge 34, Type (0, 0), BuildingBlock: AJUNOK_clean_linker_0, # of connection points: 2
#     Edge 35, Type (0, 0), BuildingBlock: AJUNOK_clean_linker_0, # of connection points: 2
#     Edge 36, Type (0, 0), BuildingBlock: AJUNOK_clean_linker_0, # of connection points: 2
#     Edge 37, Type (0, 0), BuildingBlock: AJUNOK_clean_linker_0, # of connection points: 2
#     Edge 38, Type (0, 0), BuildingBlock: AJUNOK_clean_linker_0, # of connection points: 2
#     Edge 39, Type (0, 0), BuildingBlock: AJUNOK_clean_linker_0, # of connection points: 2
#     Edge 40, Type (0, 0), BuildingBlock: AJUNOK_clean_linker_0, # of connection points: 2
#     Edge 41, Type (0, 0), BuildingBlock: AJUNOK_clean_linker_0, # of connection points: 2
#     Edge 42, Type (0, 0), BuildingBlock: AJUNOK_clean_linker_0, # of connection points: 2
#     Edge 43, Type (0, 0), BuildingBlock: AJUNOK_clean_linker_0, # of connection points: 2
#     Edge 44, Type (0, 0), BuildingBlock: AJUNOK_clean_linker_0, # of connection points: 2
#     Edge 45, Type (0, 0), BuildingBlock: AJUNOK_clean_linker_0, # of connection points: 2
#     Edge 46, Type (0, 0), BuildingBlock: AJUNOK_clean_linker_0, # of connection points: 2
#     Edge 47, Type (0, 0), BuildingBlock: AJUNOK_clean_linker_0, # of connection points: 2
#     Edge 48, Type (0, 0), BuildingBlock: AJUNOK_clean_linker_0, # of connection points: 2
#     Edge 49, Type (0, 0), BuildingBlock: AJUNOK_clean_linker_0, # of connection points: 2
#     Edge 50, Type (0, 0), BuildingBlock: AJUNOK_clean_linker_0, # of connection points: 2
#     Edge 51, Type (0, 0), BuildingBlock: AJUNOK_clean_linker_0, # of connection points: 2
#     Edge 52, Type (0, 0), BuildingBlock: AJUNOK_clean_linker_0, # of connection points: 2
#     Edge 53, Type (0, 0), BuildingBlock: AJUNOK_clean_linker_0, # of connection points: 2
#     Edge 54, Type (0, 0), BuildingBlock: AJUNOK_clean_linker_0, # of connection points: 2
#     Edge 55, Type (0, 0), BuildingBlock: AJUNOK_clean_linker_0, # of connection points: 2
#     Edge 56, Type (0, 0), BuildingBlock: AJUNOK_clean_linker_0, # of connection points: 2
#     Edge 57, Type (0, 0), BuildingBlock: AJUNOK_clean_linker_0, # of connection points: 2
#     Edge 58, Type (0, 0), BuildingBlock: AJUNOK_clean_linker_0, # of connection points: 2
#     Edge 59, Type (0, 0), BuildingBlock: AJUNOK_clean_linker_0, # of connection points: 2
#     Edge 60, Type (0, 0), BuildingBlock: AJUNOK_clean_linker_0, # of connection points: 2
#     Edge 61, Type (0, 0), BuildingBlock: AJUNOK_clean_linker_0, # of connection points: 2
#     Edge 62, Type (0, 0), BuildingBlock: AJUNOK_clean_linker_0, # of connection points: 2
#     Edge 63, Type (0, 0), BuildingBlock: AJUNOK_clean_linker_0, # of connection points: 2
#     Edge 64, Type (0, 0), BuildingBlock: AJUNOK_clean_linker_0, # of connection points: 2
#     Edge 65, Type (0, 0), BuildingBlock: AJUNOK_clean_linker_0, # of connection points: 2
#     Edge 66, Type (0, 0), BuildingBlock: AJUNOK_clean_linker_0, # of connection points: 2
#     Edge 67, Type (0, 0), BuildingBlock: AJUNOK_clean_linker_0, # of connection points: 2
#     Edge 68, Type (0, 0), BuildingBlock: AJUNOK_clean_linker_0, # of connection points: 2
#     Edge 69, Type (0, 0), BuildingBlock: AJUNOK_clean_linker_0, # of connection points: 2
#     Edge 70, Type (0, 0), BuildingBlock: AJUNOK_clean_linker_0, # of connection points: 2
#     Edge 71, Type (0, 0), BuildingBlock: AJUNOK_clean_linker_0, # of connection points: 2
#     Edge 72, Type (0, 0), BuildingBlock: AJUNOK_clean_linker_0, # of connection points: 2
#     Edge 73, Type (0, 0), BuildingBlock: AJUNOK_clean_linker_0, # of connection points: 2
#     Edge 74, Type (0, 0), BuildingBlock: AJUNOK_clean_linker_0, # of connection points: 2
#     Edge 75, Type (0, 0), BuildingBlock: AJUNOK_clean_linker_0, # of connection points: 2
#     Edge 76, Type (0, 0), BuildingBlock: AJUNOK_clean_linker_0, # of connection points: 2
#     Edge 77, Type (0, 0), BuildingBlock: AJUNOK_clean_linker_0, # of connection points: 2
#     Edge 78, Type (0, 0), BuildingBlock: AJUNOK_clean_linker_0, # of connection points: 2
#     Edge 79, Type (0, 0), BuildingBlock: AJUNOK_clean_linker_0, # of connection points: 2
#     Edge 80, Type (0, 0), BuildingBlock: AJUNOK_clean_linker_0, # of connection points: 2
#     Edge 81, Type (0, 0), BuildingBlock: AJUNOK_clean_linker_0, # of connection points: 2
#     Edge 82, Type (0, 0), BuildingBlock: AJUNOK_clean_linker_0, # of connection points: 2
#     Edge 83, Type (0, 0), BuildingBlock: AJUNOK_clean_linker_0, # of connection points: 2
#     Edge 84, Type (0, 0), BuildingBlock: AJUNOK_clean_linker_0, # of connection points: 2
#     Edge 85, Type (0, 0), BuildingBlock: AJUNOK_clean_linker_0, # of connection points: 2
#     Edge 86, Type (0, 0), BuildingBlock: AJUNOK_clean_linker_0, # of connection points: 2
#     Edge 87, Type (0, 0), BuildingBlock: AJUNOK_clean_linker_0, # of connection points: 2
#     Edge 88, Type (0, 0), BuildingBlock: AJUNOK_clean_linker_0, # of connection points: 2
#     Edge 89, Type (0, 0), BuildingBlock: AJUNOK_clean_linker_0, # of connection points: 2
#     Edge 90, Type (0, 0), BuildingBlock: AJUNOK_clean_linker_0, # of connection points: 2
#     Edge 91, Type (0, 0), BuildingBlock: AJUNOK_clean_linker_0, # of connection points: 2
#     Edge 92, Type (0, 0), BuildingBlock: AJUNOK_clean_linker_0, # of connection points: 2
#     Edge 93, Type (0, 0), BuildingBlock: AJUNOK_clean_linker_0, # of connection points: 2
#     Edge 94, Type (0, 0), BuildingBlock: AJUNOK_clean_linker_0, # of connection points: 2
#     Edge 95, Type (0, 0), BuildingBlock: AJUNOK_clean_linker_0, # of connection points: 2
# Relax obj value: 0.010
# Max RMSD: 0.050
# Mean RMSD: 0.050
data_MOF--net-mer--node1-QUQFOY_clean_sbu_1--edge1-AJUNOK_clean_linker_0
_symmetry_space_group_name_H-M    P1
_symmetry_Int_Tables_number       1
_symmetry_cell_setting            triclinic
loop_
_symmetry_equiv_pos_as_xyz
'x, y, z'
_cell_length_a     50.757964
_cell_length_b     50.734961
_cell_length_c     39.917133
_cell_angle_alpha  89.974884
_cell_angle_beta   89.968912
_cell_angle_gamma 90.021411
loop_
_atom_site_label
_atom_site_type_symbol
_atom_site_fract_x
_atom_site_fract_y
_atom_site_fract_z
_atom_type_partial_charge
O0 O 0.17147 0.26952 0.37755 0.0
Cd1 Cd 0.14882 0.30317 0.38073 0.0
Cd2 Cd 0.10938 0.26711 0.3879 0.0
O3 O 0.1389 0.24094 0.37385 0.0
O4 O 0.16849 0.33135 0.35619 0.0
O5 O 0.13092 0.31447 0.3381 0.0
C6 C 0.15085 0.32986 0.33297 0.0
C7 C 0.06554 0.26056 0.37049 0.0
C8 C 0.16346 0.24598 0.37337 0.0
C9 C 0.1235 0.3023 0.44746 0.0
O10 O 0.11144 0.28236 0.43577 0.0
O11 O 0.13902 0.31551 0.42885 0.0
O12 O 0.0771 0.24473 0.39094 0.0
O13 O 0.07937 0.27969 0.35832 0.0
O14 O 0.74975 0.17139 0.37568 0.0
Cd15 Cd 0.71698 0.14763 0.38017 0.0
Cd16 Cd 0.75449 0.1101 0.38786 0.0
O17 O 0.77975 0.14008 0.37265 0.0
O18 O 0.68798 0.16667 0.35658 0.0
O19 O 0.70519 0.12938 0.33804 0.0
C20 C 0.68938 0.14903 0.33336 0.0
C21 C 0.76046 0.06632 0.37001 0.0
C22 C 0.77354 0.16437 0.37129 0.0
C23 C 0.71978 0.124 0.44777 0.0
O24 O 0.7401 0.11255 0.43615 0.0
O25 O 0.70554 0.13816 0.42869 0.0
O26 O 0.77685 0.07779 0.38983 0.0
O27 O 0.74107 0.08022 0.35873 0.0
O28 O 0.84513 0.74842 0.37591 0.0
Cd29 Cd 0.86807 0.71508 0.38017 0.0
Cd30 Cd 0.90672 0.75158 0.38704 0.0
O31 O 0.87721 0.77761 0.37259 0.0
O32 O 0.84853 0.68651 0.3564 0.0
O33 O 0.8861 0.70321 0.33796 0.0
C34 C 0.8662 0.68774 0.33318 0.0
C35 C 0.95035 0.75644 0.36826 0.0
C36 C 0.85277 0.77203 0.37144 0.0
C37 C 0.89307 0.71676 0.44699 0.0
O38 O 0.90488 0.73683 0.4352 0.0
O39 O 0.87778 0.70327 0.42845 0.0
O40 O 0.9396 0.77312 0.38837 0.0
O41 O 0.93572 0.73758 0.35702 0.0
O42 O 0.26664 0.84688 0.37652 0.0
Cd43 Cd 0.30026 0.86951 0.38024 0.0
Cd44 Cd 0.26434 0.90869 0.38705 0.0
O45 O 0.23818 0.87946 0.37212 0.0
O46 O 0.32855 0.84953 0.35651 0.0
O47 O 0.31228 0.88723 0.33785 0.0
C48 C 0.32753 0.86714 0.33317 0.0
C49 C 0.25865 0.95261 0.36944 0.0
C50 C 0.2432 0.85488 0.3718 0.0
C51 C 0.29847 0.89399 0.44726 0.0
O52 O 0.27862 0.90609 0.43537 0.0
O53 O 0.31218 0.8791 0.42846 0.0
O54 O 0.24231 0.94122 0.38942 0.0
O55 O 0.27786 0.9386 0.35792 0.0
O56 O 0.17008 0.75014 0.66423 0.0
Cd57 Cd 0.14692 0.71694 0.6598 0.0
Cd58 Cd 0.10892 0.75367 0.65252 0.0
O59 O 0.13826 0.77955 0.66784 0.0
O60 O 0.16666 0.68827 0.68309 0.0
O61 O 0.12914 0.70469 0.70204 0.0
C62 C 0.14913 0.68928 0.70649 0.0
C63 C 0.06515 0.75777 0.67098 0.0
C64 C 0.16264 0.77378 0.66896 0.0
C65 C 0.12309 0.71945 0.59239 0.0
O66 O 0.11147 0.73966 0.60407 0.0
O67 O 0.13743 0.70534 0.61142 0.0
O68 O 0.07585 0.77487 0.65136 0.0
O69 O 0.07991 0.7389 0.68191 0.0
O70 O 0.26858 0.17231 0.66421 0.0
Cd71 Cd 0.30158 0.14883 0.66003 0.0
Cd72 Cd 0.26428 0.11092 0.65161 0.0
O73 O 0.23875 0.14077 0.66639 0.0
O74 O 0.33034 0.16809 0.68389 0.0
O75 O 0.31333 0.13066 0.70231 0.0
C76 C 0.329 0.15041 0.70711 0.0
C77 C 0.25789 0.06709 0.66916 0.0
C78 C 0.24478 0.16509 0.66806 0.0
C79 C 0.29954 0.12518 0.59228 0.0
O80 O 0.27926 0.11345 0.60362 0.0
O81 O 0.31341 0.13955 0.61154 0.0
O82 O 0.24184 0.07867 0.649 0.0
O83 O 0.27719 0.08089 0.6809 0.0
O84 O 0.84604 0.26939 0.66444 0.0
Cd85 Cd 0.86892 0.3028 0.66012 0.0
Cd86 Cd 0.90772 0.26579 0.65216 0.0
O87 O 0.87801 0.24005 0.66706 0.0
O88 O 0.84913 0.33122 0.68398 0.0
O89 O 0.88672 0.31476 0.70254 0.0
C90 C 0.86669 0.33005 0.70733 0.0
C91 C 0.95162 0.25934 0.6693 0.0
C92 C 0.85362 0.24574 0.66866 0.0
C93 C 0.89346 0.30117 0.59278 0.0
O94 O 0.90532 0.28104 0.60428 0.0
O95 O 0.87838 0.31465 0.61163 0.0
O96 O 0.93996 0.24338 0.6491 0.0
O97 O 0.93786 0.27853 0.68137 0.0
O98 O 0.74933 0.84657 0.66167 0.0
Cd99 Cd 0.71577 0.86932 0.6585 0.0
Cd100 Cd 0.7517 0.90829 0.65187 0.0
O101 O 0.77798 0.87899 0.66614 0.0
O102 O 0.68756 0.84915 0.68216 0.0
O103 O 0.70394 0.88669 0.70117 0.0
C104 C 0.68869 0.86657 0.70569 0.0
C105 C 0.75661 0.952 0.67053 0.0
C106 C 0.77284 0.85443 0.66619 0.0
C107 C 0.71738 0.89413 0.59169 0.0
O108 O 0.73732 0.9061 0.60355 0.0
O109 O 0.70367 0.8792 0.61047 0.0
O110 O 0.77321 0.94121 0.65036 0.0
O111 O 0.73772 0.93741 0.68179 0.0
O112 O 0.84534 0.74911 0.66115 0.0
Cd113 Cd 0.86772 0.71532 0.65786 0.0
Cd114 Cd 0.90733 0.75084 0.65157 0.0
O115 O 0.87813 0.77737 0.66544 0.0
O116 O 0.84778 0.68721 0.68207 0.0
O117 O 0.88549 0.7037 0.70035 0.0
C118 C 0.86542 0.68845 0.70531 0.0
C119 C 0.95098 0.75612 0.67019 0.0
C120 C 0.85353 0.77255 0.66561 0.0
C121 C 0.89333 0.71625 0.59147 0.0
O122 O 0.90552 0.73601 0.60344 0.0
O123 O 0.8776 0.7031 0.60984 0.0
O124 O 0.94014 0.77247 0.64974 0.0
O125 O 0.93647 0.73728 0.68176 0.0
O126 O 0.26732 0.84757 0.66444 0.0
Cd127 Cd 0.30063 0.87052 0.65992 0.0
Cd128 Cd 0.26341 0.90895 0.65207 0.0
O129 O 0.2378 0.87934 0.66745 0.0
O130 O 0.32924 0.84978 0.68192 0.0
O131 O 0.31382 0.88719 0.70251 0.0
C132 C 0.32902 0.8669 0.70581 0.0
C133 C 0.25745 0.95288 0.6694 0.0
C134 C 0.24366 0.85497 0.66889 0.0
C135 C 0.29812 0.89439 0.59233 0.0
O136 O 0.27796 0.90616 0.60388 0.0
O137 O 0.3121 0.88 0.61144 0.0
O138 O 0.24117 0.94132 0.64952 0.0
O139 O 0.27675 0.93901 0.68098 0.0
O140 O 0.17129 0.27026 0.66314 0.0
Cd141 Cd 0.14809 0.30345 0.6591 0.0
Cd142 Cd 0.1096 0.26627 0.6512 0.0
O143 O 0.13953 0.24067 0.66568 0.0
O144 O 0.16752 0.33202 0.68311 0.0
O145 O 0.13009 0.31503 0.70155 0.0
C146 C 0.14992 0.33057 0.70641 0.0
C147 C 0.06582 0.25959 0.66877 0.0
C148 C 0.16389 0.24653 0.6672 0.0
C149 C 0.12341 0.30192 0.59192 0.0
O150 O 0.11168 0.28168 0.60339 0.0
O151 O 0.1385 0.3154 0.61075 0.0
O152 O 0.07743 0.24372 0.6484 0.0
O153 O 0.07958 0.27881 0.68078 0.0
O154 O 0.74936 0.17129 0.66531 0.0
Cd155 Cd 0.71628 0.14796 0.66044 0.0
Cd156 Cd 0.7534 0.1101 0.65328 0.0
O157 O 0.77904 0.13968 0.66856 0.0
O158 O 0.68716 0.16783 0.68268 0.0
O159 O 0.70328 0.1305 0.70266 0.0
C160 C 0.68759 0.15039 0.70621 0.0
C161 C 0.75768 0.06628 0.67167 0.0
C162 C 0.77306 0.16402 0.66984 0.0
C163 C 0.71946 0.12415 0.59289 0.0
O164 O 0.7396 0.11256 0.60476 0.0
O165 O 0.70521 0.13845 0.61179 0.0
O166 O 0.7748 0.07712 0.65221 0.0
O167 O 0.7387 0.08093 0.68253 0.0
O168 O 0.84574 0.27031 0.37646 0.0
Cd169 Cd 0.86834 0.3039 0.38103 0.0
Cd170 Cd 0.90754 0.26695 0.38828 0.0
O171 O 0.87789 0.24117 0.37351 0.0
O172 O 0.84779 0.33251 0.3586 0.0
O173 O 0.88524 0.31691 0.3384 0.0
C174 C 0.86502 0.33216 0.33482 0.0
C175 C 0.95138 0.26055 0.37079 0.0
C176 C 0.85345 0.24672 0.37209 0.0
C177 C 0.89332 0.30179 0.44817 0.0
O178 O 0.90531 0.28186 0.43631 0.0
O179 O 0.87802 0.31528 0.42961 0.0
O180 O 0.93978 0.24452 0.39099 0.0
O181 O 0.93759 0.27981 0.35894 0.0
O182 O 0.74883 0.84691 0.3752 0.0
Cd183 Cd 0.71585 0.87036 0.37929 0.0
Cd184 Cd 0.75333 0.9083 0.38725 0.0
O185 O 0.77871 0.87837 0.37231 0.0
O186 O 0.68717 0.85051 0.35616 0.0
O187 O 0.70372 0.88787 0.33681 0.0
C188 C 0.68825 0.86788 0.33256 0.0
C189 C 0.75981 0.95212 0.36972 0.0
C190 C 0.7726 0.85405 0.37094 0.0
C191 C 0.71809 0.89429 0.44674 0.0
O192 O 0.73846 0.90583 0.43531 0.0
O193 O 0.70409 0.87997 0.42758 0.0
O194 O 0.77589 0.94047 0.38978 0.0
O195 O 0.74044 0.93839 0.35805 0.0
O196 O 0.16997 0.75005 0.37608 0.0
Cd197 Cd 0.14747 0.71633 0.38024 0.0
Cd198 Cd 0.10833 0.75218 0.3866 0.0
O199 O 0.13739 0.77851 0.37168 0.0
O200 O 0.16812 0.68776 0.35807 0.0
O201 O 0.13058 0.70316 0.33782 0.0
C202 C 0.1508 0.68788 0.33441 0.0
C203 C 0.06454 0.7566 0.36817 0.0
C204 C 0.16195 0.77351 0.37136 0.0
C205 C 0.12289 0.71865 0.44728 0.0
O206 O 0.11076 0.7384 0.43518 0.0
O207 O 0.1378 0.70485 0.42862 0.0
O208 O 0.07532 0.7735 0.38793 0.0
O209 O 0.07919 0.73768 0.35716 0.0
O210 O 0.26831 0.1725 0.37644 0.0
Cd211 Cd 0.30195 0.14981 0.37998 0.0
Cd212 Cd 0.26578 0.1106 0.38735 0.0
O213 O 0.23963 0.14001 0.37304 0.0
O214 O 0.33046 0.17008 0.35691 0.0
O215 O 0.31437 0.13262 0.33729 0.0
C216 C 0.32983 0.15266 0.33336 0.0
C217 C 0.25948 0.06676 0.36973 0.0
C218 C 0.24476 0.16457 0.37243 0.0
C219 C 0.30027 0.12523 0.44723 0.0
O220 O 0.28043 0.11302 0.43549 0.0
O221 O 0.31383 0.14021 0.42833 0.0
O222 O 0.24347 0.07825 0.39 0.0
O223 O 0.27874 0.08061 0.35796 0.0
O224 O 0.67075 0.76681 0.87627 0.0
Cd225 Cd 0.64826 0.80055 0.87998 0.0
Cd226 Cd 0.60894 0.76441 0.88696 0.0
O227 O 0.63823 0.7382 0.87245 0.0
O228 O 0.66903 0.82899 0.85762 0.0
O229 O 0.63153 0.81353 0.83734 0.0
C230 C 0.65178 0.82878 0.83389 0.0
C231 C 0.56508 0.75848 0.86935 0.0
C232 C 0.66278 0.74328 0.87197 0.0
C233 C 0.62353 0.79874 0.947 0.0
O234 O 0.61139 0.7789 0.93517 0.0
O235 O 0.63853 0.81236 0.92819 0.0
O236 O 0.57648 0.74229 0.88949 0.0
O237 O 0.57905 0.77768 0.85767 0.0
O238 O 0.24858 0.6707 0.87654 0.0
Cd239 Cd 0.21487 0.64817 0.88032 0.0
Cd240 Cd 0.2507 0.60897 0.88681 0.0
O241 O 0.27711 0.63815 0.87238 0.0
O242 O 0.1864 0.66897 0.85817 0.0
O243 O 0.2018 0.63149 0.83771 0.0
C244 C 0.18656 0.65175 0.83438 0.0
C245 C 0.25496 0.56528 0.86782 0.0
C246 C 0.27207 0.66273 0.8721 0.0
C247 C 0.2169 0.62338 0.94729 0.0
O248 O 0.23668 0.61122 0.93529 0.0
O249 O 0.20322 0.63836 0.92858 0.0
O250 O 0.27187 0.57582 0.88778 0.0
O251 O 0.23611 0.58009 0.85698 0.0
O252 O 0.34607 0.24978 0.87157 0.0
Cd253 Cd 0.3692 0.21693 0.87949 0.0
Cd254 Cd 0.40684 0.25383 0.88027 0.0
O255 O 0.37789 0.27797 0.86019 0.0
O256 O 0.34952 0.18689 0.85901 0.0
O257 O 0.3868 0.20259 0.83822 0.0
C258 C 0.36682 0.18691 0.83527 0.0
C259 C 0.45123 0.25638 0.86341 0.0
C260 C 0.35346 0.27249 0.86187 0.0
C261 C 0.39185 0.22642 0.94586 0.0
O262 O 0.40277 0.2455 0.93056 0.0
O263 O 0.37897 0.20929 0.92929 0.0
O264 O 0.43989 0.27523 0.87951 0.0
O265 O 0.43684 0.23646 0.85499 0.0
O266 O 0.7666 0.34522 0.87382 0.0
Cd267 Cd 0.7995 0.36856 0.88067 0.0
Cd268 Cd 0.76249 0.40596 0.88202 0.0
O269 O 0.73792 0.3768 0.86342 0.0
O270 O 0.82943 0.34907 0.85956 0.0
O271 O 0.81328 0.38624 0.83908 0.0
C272 C 0.82911 0.36641 0.83587 0.0
C273 C 0.75968 0.45023 0.86467 0.0
C274 C 0.74358 0.3524 0.86518 0.0
C275 C 0.7906 0.39114 0.94711 0.0
O276 O 0.77146 0.40213 0.93209 0.0
O277 O 0.80768 0.37834 0.93034 0.0
O278 O 0.74111 0.43902 0.88145 0.0
O279 O 0.77943 0.43576 0.85587 0.0
O280 O 0.67073 0.24759 0.16591 0.0
Cd281 Cd 0.64808 0.21422 0.15989 0.0
Cd282 Cd 0.6092 0.25083 0.15462 0.0
O283 O 0.63847 0.27634 0.17129 0.0
O284 O 0.66853 0.18517 0.1814 0.0
O285 O 0.63104 0.20045 0.20193 0.0
C286 C 0.65128 0.18517 0.20516 0.0
C287 C 0.56543 0.25469 0.17332 0.0
C288 C 0.66294 0.27089 0.1721 0.0
C289 C 0.62332 0.21818 0.09293 0.0
O290 O 0.61157 0.23794 0.1056 0.0
O291 O 0.6383 0.20397 0.11101 0.0
O292 O 0.57618 0.27219 0.15433 0.0
O293 O 0.58009 0.23546 0.18341 0.0
O294 O 0.76838 0.67049 0.16301 0.0
Cd295 Cd 0.80167 0.64751 0.15854 0.0
Cd296 Cd 0.76482 0.60881 0.15202 0.0
O297 O 0.73902 0.63856 0.16656 0.0
O298 O 0.83047 0.66782 0.18077 0.0
O299 O 0.81449 0.63051 0.20107 0.0
C300 C 0.82996 0.65058 0.20455 0.0
C301 C 0.76012 0.56525 0.17135 0.0
C302 C 0.74475 0.66299 0.16763 0.0
C303 C 0.79938 0.62224 0.09177 0.0
O304 O 0.77932 0.61052 0.10372 0.0
O305 O 0.81302 0.63749 0.11019 0.0
O306 O 0.7433 0.57586 0.1513 0.0
O307 O 0.77906 0.57998 0.18216 0.0
O308 O 0.34576 0.76863 0.16322 0.0
Cd309 Cd 0.36864 0.80201 0.15891 0.0
Cd310 Cd 0.40746 0.76472 0.15144 0.0
O311 O 0.37755 0.73911 0.16601 0.0
O312 O 0.34802 0.83066 0.18104 0.0
O313 O 0.38536 0.81502 0.20155 0.0
C314 C 0.36516 0.83033 0.20491 0.0
C315 C 0.4512 0.75802 0.16899 0.0
C316 C 0.35318 0.74494 0.16745 0.0
C317 C 0.39368 0.80011 0.09193 0.0
O318 O 0.40542 0.77996 0.10355 0.0
O319 O 0.37849 0.81362 0.11059 0.0
O320 O 0.43957 0.74213 0.14869 0.0
O321 O 0.43749 0.77731 0.18092 0.0
O322 O 0.24997 0.3463 0.1661 0.0
Cd323 Cd 0.21666 0.36893 0.15902 0.0
Cd324 Cd 0.25267 0.4073 0.15829 0.0
O325 O 0.27728 0.3787 0.17808 0.0
O326 O 0.18705 0.34905 0.18028 0.0
O327 O 0.20269 0.38655 0.20048 0.0
C328 C 0.18719 0.36647 0.20388 0.0
C329 C 0.2557 0.45176 0.17491 0.0
C330 C 0.27256 0.35414 0.17563 0.0
C331 C 0.22555 0.39168 0.09273 0.0
O332 O 0.24436 0.40304 0.10801 0.0
O333 O 0.20857 0.37859 0.10932 0.0
O334 O 0.27425 0.44025 0.15848 0.0
O335 O 0.23574 0.43754 0.18366 0.0
O336 O 0.34574 0.25066 0.1655 0.0
Cd337 Cd 0.36849 0.21741 0.15872 0.0
Cd338 Cd 0.40678 0.25319 0.15855 0.0
O339 O 0.37809 0.27784 0.17811 0.0
O340 O 0.34934 0.18786 0.18118 0.0
O341 O 0.38682 0.20446 0.20009 0.0
C342 C 0.36696 0.18885 0.20451 0.0
C343 C 0.45107 0.25576 0.1758 0.0
C344 C 0.35355 0.27319 0.17532 0.0
C345 C 0.3918 0.22603 0.09277 0.0
O346 O 0.40298 0.24486 0.1082 0.0
O347 O 0.37849 0.20912 0.1092 0.0
O348 O 0.43988 0.2745 0.15935 0.0
O349 O 0.4366 0.23591 0.18427 0.0
O350 O 0.76581 0.34585 0.16719 0.0
Cd351 Cd 0.79859 0.36937 0.16051 0.0
Cd352 Cd 0.76146 0.4065 0.15848 0.0
O353 O 0.73692 0.37731 0.17721 0.0
O354 O 0.82836 0.35064 0.18304 0.0
O355 O 0.81134 0.38795 0.20188 0.0
C356 C 0.82722 0.36831 0.20629 0.0
C357 C 0.75849 0.45086 0.17538 0.0
C358 C 0.74271 0.35294 0.17565 0.0
C359 C 0.79011 0.39147 0.0938 0.0
O360 O 0.77079 0.40242 0.10854 0.0
O361 O 0.80716 0.37888 0.11085 0.0
O362 O 0.74002 0.43954 0.15857 0.0
O363 O 0.77821 0.43646 0.18448 0.0
O364 O 0.67061 0.76757 0.16407 0.0
Cd365 Cd 0.6475 0.80081 0.15949 0.0
Cd366 Cd 0.60924 0.76338 0.15165 0.0
O367 O 0.63899 0.73783 0.16668 0.0
O368 O 0.66802 0.82968 0.18125 0.0
O369 O 0.63068 0.81416 0.20192 0.0
C370 C 0.65082 0.82958 0.20506 0.0
C371 C 0.56537 0.75729 0.16915 0.0
C372 C 0.66332 0.74382 0.16823 0.0
C373 C 0.6235 0.79826 0.09197 0.0
O374 O 0.61178 0.77805 0.10353 0.0
O375 O 0.63795 0.81221 0.11103 0.0
O376 O 0.57691 0.74105 0.14919 0.0
O377 O 0.57924 0.77658 0.18077 0.0
O378 O 0.2485 0.67104 0.16367 0.0
Cd379 Cd 0.21533 0.6478 0.1596 0.0
Cd380 Cd 0.25201 0.60979 0.15234 0.0
O381 O 0.27796 0.63926 0.1672 0.0
O382 O 0.18673 0.6676 0.18295 0.0
O383 O 0.20326 0.63015 0.202 0.0
C384 C 0.18784 0.65013 0.20643 0.0
C385 C 0.25584 0.56615 0.17149 0.0
C386 C 0.27216 0.66366 0.16821 0.0
C387 C 0.21763 0.6237 0.09232 0.0
O388 O 0.23786 0.61209 0.10394 0.0
O389 O 0.20361 0.63812 0.11134 0.0
O390 O 0.27302 0.57655 0.15171 0.0
O391 O 0.23704 0.58112 0.18214 0.0
O392 O 0.34513 0.76775 0.87763 0.0
Cd393 Cd 0.36765 0.80147 0.88114 0.0
Cd394 Cd 0.40728 0.76555 0.88753 0.0
O395 O 0.37779 0.73933 0.87352 0.0
O396 O 0.34774 0.82976 0.85732 0.0
O397 O 0.38537 0.81335 0.83869 0.0
C398 C 0.36535 0.82868 0.83401 0.0
C399 C 0.451 0.75907 0.86964 0.0
C400 C 0.35321 0.74428 0.87319 0.0
C401 C 0.39333 0.80039 0.9475 0.0
O402 O 0.40544 0.78059 0.93554 0.0
O403 O 0.3776 0.81355 0.92919 0.0
O404 O 0.43954 0.74317 0.89011 0.0
O405 O 0.43715 0.77827 0.85776 0.0
O406 O 0.2499 0.34576 0.87128 0.0
Cd407 Cd 0.21708 0.36894 0.87927 0.0
Cd408 Cd 0.25399 0.40647 0.88057 0.0
O409 O 0.27817 0.37762 0.8604 0.0
O410 O 0.18702 0.34949 0.85848 0.0
O411 O 0.20286 0.38687 0.83815 0.0
C412 C 0.18711 0.36698 0.83495 0.0
C413 C 0.25651 0.45089 0.86384 0.0
C414 C 0.27266 0.35317 0.86182 0.0
C415 C 0.22645 0.39116 0.9459 0.0
O416 O 0.24558 0.40217 0.93082 0.0
O417 O 0.20931 0.37846 0.92913 0.0
O418 O 0.27532 0.43956 0.88 0.0
O419 O 0.23663 0.43648 0.85532 0.0
O420 O 0.67082 0.24754 0.87512 0.0
Cd421 Cd 0.64776 0.21444 0.88085 0.0
Cd422 Cd 0.60931 0.25117 0.88625 0.0
O423 O 0.63879 0.27652 0.8696 0.0
O424 O 0.66723 0.18542 0.85789 0.0
O425 O 0.62974 0.20192 0.83899 0.0
C426 C 0.64968 0.18644 0.83452 0.0
C427 C 0.56561 0.25509 0.86729 0.0
C428 C 0.66323 0.2709 0.86889 0.0
C429 C 0.62319 0.21823 0.94782 0.0
O430 O 0.6116 0.23812 0.93525 0.0
O431 O 0.63803 0.20393 0.92965 0.0
O432 O 0.57629 0.27256 0.88636 0.0
O433 O 0.58031 0.23586 0.85729 0.0
O434 O 0.76769 0.67028 0.87725 0.0
Cd435 Cd 0.8015 0.64796 0.88081 0.0
Cd436 Cd 0.7658 0.60826 0.88667 0.0
O437 O 0.73939 0.63754 0.87252 0.0
O438 O 0.82983 0.66869 0.85815 0.0
O439 O 0.81411 0.63123 0.838 0.0
C440 C 0.82933 0.65148 0.83435 0.0
C441 C 0.76123 0.5646 0.86765 0.0
C442 C 0.74428 0.66216 0.87251 0.0
C443 C 0.7999 0.62211 0.94717 0.0
O444 O 0.78015 0.61004 0.93501 0.0
O445 O 0.81326 0.63776 0.92893 0.0
O446 O 0.74445 0.5752 0.88775 0.0
O447 O 0.78006 0.57936 0.85661 0.0
C448 C 0.22961 0.2113 0.36624 0.0
C449 C 0.2232 0.18437 0.36918 0.0
C450 C 0.21011 0.23081 0.36653 0.0
C451 C 0.18323 0.22443 0.36976 0.0
H452 H 0.24995 0.21751 0.36441 0.0
H453 H 0.21636 0.25122 0.36487 0.0
S454 S 0.1556 0.15677 0.37624 0.0
N455 N 0.18775 0.15224 0.37383 0.0
N456 N 0.1511 0.18897 0.37435 0.0
C457 C 0.17636 0.19752 0.37145 0.0
C458 C 0.19633 0.17755 0.37116 0.0
C459 C 0.82074 0.17918 0.37469 0.0
C460 C 0.79425 0.18488 0.36709 0.0
C461 C 0.84002 0.19907 0.37493 0.0
C462 C 0.83358 0.22545 0.36758 0.0
H463 H 0.82649 0.1594 0.38182 0.0
H464 H 0.8599 0.19385 0.38222 0.0
S465 S 0.76792 0.25001 0.34088 0.0
N466 N 0.76325 0.21835 0.34834 0.0
N467 N 0.79934 0.25558 0.34879 0.0
C468 C 0.80747 0.23111 0.35805 0.0
C469 C 0.78788 0.21089 0.3578 0.0
C470 C 0.83919 0.81961 0.37456 0.0
C471 C 0.83283 0.79324 0.36707 0.0
C472 C 0.81984 0.83943 0.37441 0.0
C473 C 0.79338 0.83364 0.36676 0.0
H474 H 0.85906 0.82487 0.38188 0.0
H475 H 0.82552 0.85921 0.38163 0.0
S476 S 0.76728 0.76849 0.34021 0.0
N477 N 0.79871 0.76303 0.34813 0.0
N478 N 0.7625 0.8001 0.34782 0.0
C479 C 0.78709 0.80763 0.35735 0.0
C480 C 0.80676 0.7875 0.35751 0.0
C481 C 0.20859 0.7887 0.36482 0.0
C482 C 0.1817 0.79508 0.36771 0.0
C483 C 0.2281 0.80823 0.36495 0.0
C484 C 0.22167 0.83513 0.36799 0.0
H485 H 0.21485 0.76832 0.3632 0.0
H486 H 0.24846 0.80202 0.36343 0.0
S487 S 0.15403 0.8627 0.37398 0.0
N488 N 0.14953 0.83052 0.37188 0.0
N489 N 0.1862 0.86725 0.37213 0.0
C490 C 0.19479 0.84195 0.36949 0.0
C491 C 0.17482 0.82198 0.36935 0.0
C492 C 0.17664 0.82126 0.66612 0.0
C493 C 0.18278 0.7948 0.67338 0.0
C494 C 0.19621 0.84088 0.6661 0.0
C495 C 0.22268 0.83478 0.67335 0.0
H496 H 0.15678 0.82675 0.65906 0.0
H497 H 0.19069 0.86073 0.65903 0.0
S498 S 0.24828 0.76928 0.69921 0.0
N499 N 0.21672 0.76417 0.69172 0.0
N500 N 0.25334 0.80086 0.69171 0.0
C501 C 0.22875 0.80869 0.68258 0.0
C502 C 0.20887 0.78876 0.68259 0.0
C503 C 0.19744 0.17941 0.66435 0.0
C504 C 0.22386 0.18541 0.67206 0.0
C505 C 0.17793 0.19906 0.6641 0.0
C506 C 0.18405 0.2255 0.67155 0.0
H507 H 0.19192 0.15957 0.65718 0.0
H508 H 0.15812 0.19362 0.65677 0.0
S509 S 0.2494 0.25081 0.69843 0.0
N510 N 0.25444 0.21923 0.69092 0.0
N511 N 0.21793 0.25601 0.69045 0.0
C512 C 0.21009 0.23146 0.68113 0.0
C513 C 0.22992 0.21148 0.68138 0.0
C514 C 0.82038 0.17844 0.6662 0.0
C515 C 0.79396 0.18433 0.67402 0.0
C516 C 0.83982 0.19818 0.66584 0.0
C517 C 0.8336 0.2246 0.67328 0.0
H518 H 0.82594 0.15863 0.65896 0.0
H519 H 0.85962 0.19283 0.65837 0.0
S520 S 0.76825 0.2496 0.70059 0.0
N521 N 0.7633 0.218 0.69309 0.0
N522 N 0.79968 0.25495 0.69244 0.0
C523 C 0.80758 0.23043 0.68305 0.0
C524 C 0.78783 0.21037 0.68341 0.0
C525 C 0.80704 0.78804 0.67251 0.0
C526 C 0.83395 0.79424 0.66917 0.0
C527 C 0.78768 0.80769 0.67269 0.0
C528 C 0.79427 0.83455 0.66953 0.0
H529 H 0.80067 0.7677 0.67434 0.0
H530 H 0.76729 0.80161 0.67463 0.0
S531 S 0.86202 0.86167 0.66205 0.0
N532 N 0.86632 0.82946 0.6642 0.0
N533 N 0.82991 0.86643 0.66452 0.0
C534 C 0.82118 0.8412 0.66744 0.0
C535 C 0.841 0.82109 0.66726 0.0
C536 C 0.70945 0.7282 0.8654 0.0
C537 C 0.68258 0.72175 0.86851 0.0
C538 C 0.729 0.70874 0.86556 0.0
C539 C 0.72266 0.68183 0.86885 0.0
H540 H 0.71564 0.74859 0.86353 0.0
H541 H 0.74934 0.71501 0.8638 0.0
S542 S 0.65513 0.65406 0.87571 0.0
N543 N 0.65053 0.68622 0.87332 0.0
N544 N 0.68731 0.64962 0.87363 0.0
C545 C 0.69581 0.67492 0.87066 0.0
C546 C 0.67579 0.69483 0.8705 0.0
C547 C 0.28719 0.70943 0.86564 0.0
C548 C 0.29362 0.68253 0.86877 0.0
C549 C 0.30665 0.72899 0.86598 0.0
C550 C 0.33352 0.72267 0.86945 0.0
H551 H 0.26684 0.7156 0.86364 0.0
H552 H 0.30039 0.74937 0.86419 0.0
S553 S 0.36122 0.6551 0.87644 0.0
N554 N 0.32909 0.65049 0.87381 0.0
N555 N 0.36568 0.6873 0.87442 0.0
C556 C 0.34042 0.69578 0.87128 0.0
C557 C 0.3205 0.67577 0.87094 0.0
C558 C 0.3398 0.32003 0.85978 0.0
C559 C 0.33333 0.29321 0.85584 0.0
C560 C 0.32021 0.33959 0.85977 0.0
C561 C 0.29341 0.33306 0.85583 0.0
H562 H 0.35997 0.32587 0.86465 0.0
H563 H 0.32601 0.35977 0.86464 0.0
S564 S 0.26671 0.26634 0.8382 0.0
N565 N 0.29863 0.26164 0.84327 0.0
N566 N 0.26193 0.29827 0.84325 0.0
C567 C 0.28695 0.30656 0.84936 0.0
C568 C 0.30686 0.28669 0.84937 0.0
C569 C 0.67675 0.31858 0.86781 0.0
C570 C 0.68323 0.29185 0.863 0.0
C571 C 0.69615 0.33833 0.86664 0.0
C572 C 0.72278 0.3321 0.86066 0.0
H573 H 0.65675 0.32422 0.87398 0.0
H574 H 0.69041 0.35844 0.87209 0.0
S575 S 0.74934 0.26577 0.84065 0.0
N576 N 0.71771 0.26072 0.84779 0.0
N577 N 0.75401 0.29771 0.84576 0.0
C578 C 0.7292 0.3057 0.85363 0.0
C579 C 0.70949 0.28563 0.85476 0.0
C580 C 0.67612 0.31867 0.17291 0.0
C581 C 0.68276 0.292 0.178 0.0
C582 C 0.69539 0.33856 0.17403 0.0
C583 C 0.72202 0.33253 0.18025 0.0
H584 H 0.65612 0.32415 0.16655 0.0
H585 H 0.68954 0.3586 0.16836 0.0
S586 S 0.74892 0.26648 0.20104 0.0
N587 N 0.71736 0.26118 0.19372 0.0
N588 N 0.75341 0.29843 0.19568 0.0
C589 C 0.72859 0.30621 0.18756 0.0
C590 C 0.70902 0.286 0.18647 0.0
C591 C 0.69725 0.67691 0.16481 0.0
C592 C 0.7237 0.6831 0.17206 0.0
C593 C 0.67759 0.69642 0.16498 0.0
C594 C 0.6836 0.72289 0.17243 0.0
H595 H 0.69182 0.65705 0.15764 0.0
H596 H 0.65775 0.69085 0.15793 0.0
S597 S 0.74903 0.74862 0.1983 0.0
N598 N 0.75422 0.7171 0.19056 0.0
N599 N 0.71744 0.7536 0.19091 0.0
C600 C 0.70968 0.72901 0.18161 0.0
C601 C 0.72966 0.70919 0.18142 0.0
C602 C 0.31958 0.67781 0.16482 0.0
C603 C 0.29315 0.68388 0.17233 0.0
C604 C 0.33913 0.69744 0.16459 0.0
C605 C 0.33302 0.72391 0.17188 0.0
H606 H 0.32507 0.65794 0.15776 0.0
H607 H 0.35896 0.69196 0.15739 0.0
S608 S 0.26761 0.74939 0.19825 0.0
N609 N 0.26255 0.71779 0.19086 0.0
N610 N 0.29913 0.75452 0.19046 0.0
C611 C 0.30696 0.72993 0.18129 0.0
C612 C 0.2871 0.70998 0.18152 0.0
C613 C 0.2873 0.30738 0.18162 0.0
C614 C 0.2938 0.33435 0.18089 0.0
C615 C 0.30681 0.28788 0.18152 0.0
C616 C 0.33376 0.29441 0.18069 0.0
H617 H 0.2669 0.30112 0.18117 0.0
H618 H 0.30058 0.26746 0.181 0.0
S619 S 0.36152 0.36217 0.18172 0.0
N620 N 0.3293 0.36663 0.18181 0.0
N621 N 0.366 0.32994 0.18163 0.0
C622 C 0.34065 0.32131 0.1819 0.0
C623 C 0.32069 0.34126 0.182 0.0
C624 C 0.99459 0.28014 0.35254 0.0
C625 C 0.98022 0.25835 0.3646 0.0
C626 C 0.02231 0.28014 0.35245 0.0
C627 C 0.0367 0.25835 0.36441 0.0
H628 H 0.98443 0.2979 0.34481 0.0
H629 H 0.03246 0.2979 0.34465 0.0
S630 S 1.00849 0.19466 0.39315 0.0
N631 N 0.98257 0.21314 0.38474 0.0
N632 N 0.03439 0.21314 0.38457 0.0
C633 C 0.02254 0.23572 0.37412 0.0
C634 C 0.99439 0.23572 0.37421 0.0
C635 C 0.74031 0.02322 0.35236 0.0
C636 C 0.7624 0.03747 0.36368 0.0
C637 C 0.74015 0.99549 0.35228 0.0
C638 C 0.76208 0.98096 0.36353 0.0
H639 H 0.72246 0.03349 0.34522 0.0
H640 H 0.72219 0.98544 0.3451 0.0
S641 S 0.82647 0.00881 0.39 0.0
N642 N 0.80798 0.03485 0.38223 0.0
N643 N 0.80767 0.98301 0.3821 0.0
C644 C 0.78496 0.99499 0.37244 0.0
C645 C 0.78513 0.02315 0.37251 0.0
C646 C 0.02121 0.77947 0.37369 0.0
C647 C 0.03569 0.7578 0.3616 0.0
C648 C 0.99363 0.77944 0.37369 0.0
C649 C 0.97918 0.75775 0.3616 0.0
H650 H 0.0312 0.79624 0.38465 0.0
H651 H 0.9836 0.79619 0.38467 0.0
S652 S 1.00748 0.69749 0.323 0.0
N653 N 0.03344 0.71511 0.33398 0.0
N654 N 0.9815 0.71507 0.33397 0.0
C655 C 0.99333 0.73672 0.34718 0.0
C656 C 0.02158 0.73675 0.34719 0.0
C657 C 0.279 0.99571 0.35213 0.0
C658 C 0.25681 0.98147 0.36319 0.0
C659 C 0.27921 0.02345 0.3522 0.0
C660 C 0.25723 0.03796 0.36334 0.0
H661 H 0.29688 0.98544 0.34513 0.0
H662 H 0.29723 0.0335 0.34525 0.0
S663 S 0.1926 0.01012 0.38901 0.0
N664 N 0.21111 0.98408 0.38129 0.0
N665 N 0.2115 0.03592 0.38144 0.0
C666 C 0.23426 0.02393 0.37195 0.0
C667 C 0.23405 0.99578 0.37187 0.0
C668 C 0.02155 0.78005 0.66499 0.0
C669 C 0.03626 0.75865 0.67738 0.0
C670 C 0.99398 0.77964 0.66478 0.0
C671 C 0.97977 0.75782 0.67697 0.0
H672 H 0.03137 0.7969 0.65394 0.0
H673 H 0.98379 0.7962 0.65358 0.0
S674 S 0.00866 0.69815 0.71636 0.0
N675 N 0.03444 0.71607 0.7054 0.0
N676 N 0.98251 0.71532 0.70502 0.0
C677 C 0.99411 0.73706 0.69169 0.0
C678 C 0.02236 0.73747 0.69189 0.0
C679 C 0.2775 0.99607 0.68687 0.0
C680 C 0.25546 0.98175 0.67551 0.0
C681 C 0.2776 0.0238 0.68682 0.0
C682 C 0.25567 0.03825 0.67541 0.0
H683 H 0.29534 0.98586 0.69413 0.0
H684 H 0.29552 0.03391 0.69405 0.0
S685 S 0.19141 0.01021 0.64877 0.0
N686 N 0.20993 0.98422 0.65673 0.0
N687 N 0.21013 0.03607 0.65663 0.0
C688 C 0.23284 0.02415 0.66645 0.0
C689 C 0.23274 0.996 0.66651 0.0
C690 C 0.02259 0.27899 0.6872 0.0
C691 C 0.03699 0.25729 0.67497 0.0
C692 C 0.99487 0.27893 0.68732 0.0
C693 C 0.98049 0.25717 0.67522 0.0
H694 H 0.03273 0.29673 0.69506 0.0
H695 H 0.98471 0.29662 0.69527 0.0
S696 S 0.00879 0.1937 0.64596 0.0
N697 N 0.03468 0.21219 0.65447 0.0
N698 N 0.98287 0.21208 0.65471 0.0
C699 C 0.99468 0.23463 0.66532 0.0
C700 C 0.02283 0.23469 0.66519 0.0
C701 C 0.78019 0.02277 0.66572 0.0
C702 C 0.75865 0.03736 0.67796 0.0
C703 C 0.77992 0.99517 0.66541 0.0
C704 C 0.75811 0.98082 0.67735 0.0
H705 H 0.79705 0.0327 0.65486 0.0
H706 H 0.79659 0.98508 0.65434 0.0
S707 S 0.69808 0.00936 0.71624 0.0
N708 N 0.71593 0.03526 0.70554 0.0
N709 N 0.71544 0.9833 0.70498 0.0
C710 C 0.7372 0.99505 0.69191 0.0
C711 C 0.73747 0.02331 0.6922 0.0
C712 C 0.52198 0.77859 0.85172 0.0
C713 C 0.53624 0.75651 0.8631 0.0
C714 C 0.49426 0.77873 0.85177 0.0
C715 C 0.47978 0.7568 0.86321 0.0
H716 H 0.53223 0.79643 0.84448 0.0
H717 H 0.48419 0.79668 0.84458 0.0
S718 S 0.50768 0.69245 0.88983 0.0
N719 N 0.53368 0.71095 0.88186 0.0
N720 N 0.48186 0.71122 0.88197 0.0
C721 C 0.49382 0.73393 0.87215 0.0
C722 C 0.52196 0.73379 0.87208 0.0
C723 C 0.27887 0.49453 0.86983 0.0
C724 C 0.25694 0.47998 0.85865 0.0
C725 C 0.27849 0.52211 0.87083 0.0
C726 C 0.2562 0.53651 0.86058 0.0
H727 H 0.2962 0.48456 0.87929 0.0
H728 H 0.29554 0.53216 0.88097 0.0
S729 S 0.19475 0.50817 0.82524 0.0
N730 N 0.21312 0.48223 0.83411 0.0
N731 N 0.21245 0.53417 0.8359 0.0
C732 C 0.23476 0.52236 0.84721 0.0
C733 C 0.23512 0.49411 0.84627 0.0
C734 C 0.49482 0.27886 0.86915 0.0
C735 C 0.48031 0.25682 0.85822 0.0
C736 C 0.5224 0.27854 0.87014 0.0
C737 C 0.53683 0.2562 0.86015 0.0
H738 H 0.48482 0.29626 0.87842 0.0
H739 H 0.5324 0.2957 0.88008 0.0
S740 S 0.5086 0.19443 0.8255 0.0
N741 N 0.48264 0.21281 0.83419 0.0
N742 N 0.53456 0.21225 0.83595 0.0
C743 C 0.52272 0.23462 0.84704 0.0
C744 C 0.49448 0.23492 0.84611 0.0
C745 C 0.73731 0.49386 0.87043 0.0
C746 C 0.75916 0.47927 0.85913 0.0
C747 C 0.73768 0.52145 0.87118 0.0
C748 C 0.7599 0.53582 0.86055 0.0
H749 H 0.72004 0.48392 0.8802 0.0
H750 H 0.7207 0.53153 0.88146 0.0
S751 S 0.82112 0.50735 0.82472 0.0
N752 N 0.80282 0.48144 0.83404 0.0
N753 N 0.80349 0.53338 0.83535 0.0
C754 C 0.78125 0.52162 0.84703 0.0
C755 C 0.7809 0.49336 0.84635 0.0
C756 C 0.49464 0.27835 0.17071 0.0
C757 C 0.48009 0.25626 0.1814 0.0
C758 C 0.52222 0.27809 0.17008 0.0
C759 C 0.53661 0.25575 0.1802 0.0
H760 H 0.48469 0.29574 0.16135 0.0
H761 H 0.53227 0.29529 0.16029 0.0
S762 S 0.5082 0.19387 0.21439 0.0
N763 N 0.48228 0.21222 0.20541 0.0
N764 N 0.53421 0.21175 0.2043 0.0
C765 C 0.52243 0.23413 0.1931 0.0
C766 C 0.49418 0.23437 0.19368 0.0
C767 C 0.7366 0.52208 0.16786 0.0
C768 C 0.75873 0.53649 0.17863 0.0
C769 C 0.7362 0.49449 0.16887 0.0
C770 C 0.75794 0.47995 0.18061 0.0
H771 H 0.71971 0.53211 0.15726 0.0
H772 H 0.71902 0.48451 0.15897 0.0
S773 S 0.8196 0.50817 0.21557 0.0
N774 N 0.80208 0.53415 0.20443 0.0
N775 N 0.80137 0.48222 0.20626 0.0
C776 C 0.77957 0.49409 0.19352 0.0
C777 C 0.77995 0.52234 0.19256 0.0
C778 C 0.49453 0.77745 0.18694 0.0
C779 C 0.48002 0.75567 0.17519 0.0
C780 C 0.52226 0.77728 0.18697 0.0
C781 C 0.5365 0.75531 0.17526 0.0
H782 H 0.48449 0.79533 0.19447 0.0
H783 H 0.53252 0.79503 0.19453 0.0
S784 S 0.50785 0.6916 0.1474 0.0
N785 N 0.48206 0.71031 0.15561 0.0
N786 N 0.53388 0.70997 0.15569 0.0
C787 C 0.52219 0.7327 0.16587 0.0
C788 C 0.49404 0.73289 0.16583 0.0
C789 C 0.27869 0.49507 0.16907 0.0
C790 C 0.25655 0.48081 0.18022 0.0
C791 C 0.27874 0.52266 0.16826 0.0
C792 C 0.25669 0.53735 0.17864 0.0
H793 H 0.29587 0.48488 0.15951 0.0
H794 H 0.29594 0.53249 0.15811 0.0
S795 S 0.19484 0.5098 0.21401 0.0
N796 N 0.2128 0.48362 0.20491 0.0
N797 N 0.21293 0.53557 0.20346 0.0
C798 C 0.23504 0.52348 0.192 0.0
C799 C 0.23496 0.49522 0.19275 0.0
C800 C 0.14267 0.31794 0.50211 0.0
C801 C 0.12109 0.30799 0.48386 0.0
C802 C 0.14265 0.31783 0.53741 0.0
C803 C 0.12107 0.30776 0.55557 0.0
H804 H 0.16035 0.32421 0.48915 0.0
H805 H 0.16032 0.32403 0.55044 0.0
S806 S 0.05768 0.28473 0.51963 0.0
N807 N 0.07609 0.29169 0.48669 0.0
N808 N 0.07608 0.29146 0.55263 0.0
C809 C 0.09856 0.29999 0.53755 0.0
C810 C 0.09856 0.30012 0.50182 0.0
C811 C 0.72671 0.10197 0.53792 0.0
C812 C 0.71446 0.12226 0.55623 0.0
C813 C 0.72678 0.10193 0.50288 0.0
C814 C 0.71459 0.12216 0.4844 0.0
H815 H 0.73733 0.08643 0.55073 0.0
H816 H 0.73745 0.08636 0.49019 0.0
S817 S 0.67719 0.17842 0.52008 0.0
N818 N 0.68774 0.162 0.55319 0.0
N819 N 0.68787 0.16191 0.48711 0.0
C820 C 0.70064 0.14163 0.50227 0.0
C821 C 0.70057 0.14167 0.5382 0.0
C822 C 0.87412 0.70076 0.50158 0.0
C823 C 0.89554 0.71109 0.48336 0.0
C824 C 0.87419 0.70061 0.53686 0.0
C825 C 0.89571 0.71077 0.55503 0.0
H826 H 0.8565 0.69435 0.48862 0.0
H827 H 0.85662 0.6941 0.54987 0.0
S828 S 0.95877 0.73476 0.51906 0.0
N829 N 0.94036 0.72787 0.48613 0.0
N830 N 0.94052 0.72757 0.55207 0.0
C831 C 0.9181 0.71892 0.53701 0.0
C832 C 0.91802 0.71909 0.50128 0.0
C833 C 0.29166 0.91658 0.53719 0.0
C834 C 0.30341 0.89612 0.55571 0.0
C835 C 0.29176 0.91649 0.50215 0.0
C836 C 0.3036 0.89592 0.4839 0.0
H837 H 0.28128 0.93237 0.54983 0.0
H838 H 0.28145 0.93222 0.48929 0.0
S839 S 0.33974 0.83909 0.52023 0.0
N840 N 0.32936 0.85586 0.55314 0.0
N841 N 0.32953 0.85567 0.48707 0.0
C842 C 0.3171 0.87627 0.50199 0.0
C843 C 0.317 0.87637 0.53792 0.0
C844 C 0.10079 0.726 0.50232 0.0
C845 C 0.12108 0.71376 0.48399 0.0
C846 C 0.10086 0.72622 0.53736 0.0
C847 C 0.1212 0.71419 0.5558 0.0
H848 H 0.08517 0.7365 0.48952 0.0
H849 H 0.08528 0.73688 0.55006 0.0
S850 S 0.17746 0.67682 0.52011 0.0
N851 N 0.16091 0.68719 0.48702 0.0
N852 N 0.16101 0.68759 0.55308 0.0
C853 C 0.14065 0.70024 0.53794 0.0
C854 C 0.1406 0.70002 0.50202 0.0
C855 C 0.29385 0.10269 0.50219 0.0
C856 C 0.30548 0.12337 0.48387 0.0
C857 C 0.29365 0.1027 0.53724 0.0
C858 C 0.30508 0.12336 0.55572 0.0
H859 H 0.28375 0.08681 0.48937 0.0
H860 H 0.28341 0.08682 0.54992 0.0
S861 S 0.34084 0.18074 0.52009 0.0
N862 N 0.33093 0.16395 0.48696 0.0
N863 N 0.33057 0.16393 0.55305 0.0
C864 C 0.31851 0.14322 0.53788 0.0
C865 C 0.31871 0.14323 0.50194 0.0
C866 C 0.87412 0.31717 0.50296 0.0
C867 C 0.89567 0.30724 0.48464 0.0
C868 C 0.87415 0.31702 0.53827 0.0
C869 C 0.89573 0.30692 0.55637 0.0
H870 H 0.85645 0.32351 0.49004 0.0
H871 H 0.85651 0.32324 0.55135 0.0
S872 S 0.95905 0.28385 0.52023 0.0
N873 N 0.94063 0.29086 0.48734 0.0
N874 N 0.94068 0.29056 0.55328 0.0
C875 C 0.91821 0.29913 0.53828 0.0
C876 C 0.91818 0.29929 0.50254 0.0
C877 C 0.72416 0.91664 0.5368 0.0
C878 C 0.71222 0.89612 0.55508 0.0
C879 C 0.72436 0.91666 0.50176 0.0
C880 C 0.71261 0.89618 0.48328 0.0
H881 H 0.73449 0.93235 0.54965 0.0
H882 H 0.73483 0.93239 0.48909 0.0
S883 S 0.67599 0.83931 0.51882 0.0
N884 N 0.68616 0.85593 0.55196 0.0
N885 N 0.68652 0.85599 0.48589 0.0
C886 C 0.69889 0.87651 0.50108 0.0
C887 C 0.69869 0.87647 0.53701 0.0
C888 C 0.60111 0.79192 0.03699 0.0
C889 C 0.62163 0.80365 0.05541 0.0
C890 C 0.6011 0.79207 1.00195 0.0
C891 C 0.62163 0.80393 0.98362 0.0
H892 H 0.58536 0.78152 0.0497 0.0
H893 H 0.58534 0.78176 0.98916 0.0
S894 S 0.67852 0.84012 1.01969 0.0
N895 N 0.66185 0.82967 0.05268 0.0
N896 N 0.66186 0.82993 0.98661 0.0
C897 C 0.64132 0.81744 1.00162 0.0
C898 C 0.64131 0.8173 0.03754 0.0
C899 C 0.22392 0.60116 1.00232 0.0
C900 C 0.21188 0.62155 0.98396 0.0
C901 C 0.22413 0.60126 0.03736 0.0
C902 C 0.21229 0.62174 0.05576 0.0
H903 H 0.23431 0.58545 0.98955 0.0
H904 H 0.23466 0.58562 0.0501 0.0
S905 S 0.17544 0.67832 1.01997 0.0
N906 N 0.18567 0.66164 0.98691 0.0
N907 N 0.18604 0.6618 0.05298 0.0
C908 C 0.1985 0.6413 0.03787 0.0
C909 C 0.1983 0.64121 1.00195 0.0
C910 C 0.38534 0.2031 0.03691 0.0
C911 C 0.3928 0.22559 0.05536 0.0
C912 C 0.38534 0.2032 1.00155 0.0
C913 C 0.39279 0.22581 0.98327 0.0
H914 H 0.37937 0.1853 0.04985 0.0
H915 H 0.37939 0.18548 0.98847 0.0
S916 S 0.41218 0.29053 1.01958 0.0
N917 N 0.40671 0.27149 0.05231 0.0
N918 N 0.40671 0.27169 0.9867 0.0
C919 C 0.4001 0.24845 1.00153 0.0
C920 C 0.40011 0.24834 0.03728 0.0
C921 C 0.81415 0.38729 0.03828 0.0
C922 C 0.79071 0.39164 0.05644 0.0
C923 C 0.81427 0.38721 1.00288 0.0
C924 C 0.79096 0.39148 0.98446 0.0
H925 H 0.83252 0.38408 0.05145 0.0
H926 H 0.83272 0.38394 0.98991 0.0
S927 S 0.72383 0.40053 1.02008 0.0
N928 N 0.74327 0.39818 0.053 0.0
N929 N 0.74349 0.39803 0.98738 0.0
C930 C 0.76736 0.3952 1.00247 0.0
C931 C 0.76724 0.39528 0.03817 0.0
C932 C 0.6419 0.20233 0.03798 0.0
C933 C 0.62095 0.21352 0.05626 0.0
C934 C 0.64187 0.20233 1.00269 0.0
C935 C 0.62088 0.21352 0.98449 0.0
H936 H 0.65911 0.1949 0.05093 0.0
H937 H 0.65905 0.1949 0.98967 0.0
S938 S 0.55907 0.24052 1.02049 0.0
N939 N 0.57706 0.23259 0.05342 0.0
N940 N 0.577 0.2326 0.9875 0.0
C941 C 0.59896 0.22283 1.00254 0.0
C942 C 0.59899 0.22283 0.03829 0.0
C943 C 0.81548 0.64108 0.03716 0.0
C944 C 0.80487 0.61976 0.05535 0.0
C945 C 0.81563 0.64104 1.00188 0.0
C946 C 0.80518 0.61968 0.98366 0.0
H947 H 0.82216 0.65859 0.05014 0.0
H948 H 0.82241 0.65853 0.9889 0.0
S949 S 0.7803 0.55689 1.01952 0.0
N950 N 0.78744 0.57518 0.05249 0.0
N951 N 0.78775 0.57508 0.98655 0.0
C952 C 0.7967 0.59737 1.00164 0.0
C953 C 0.79653 0.59743 0.03738 0.0
C954 C 0.37443 0.81616 1.00221 0.0
C955 C 0.39586 0.80596 0.98389 0.0
C956 C 0.37452 0.81609 0.03749 0.0
C957 C 0.39603 0.80581 0.05556 0.0
H958 H 0.3568 0.82261 0.98933 0.0
H959 H 0.35695 0.82249 0.05058 0.0
S960 S 0.45909 0.78211 1.0194 0.0
N961 N 0.4407 0.78922 0.98653 0.0
N962 N 0.44083 0.78905 0.05246 0.0
C963 C 0.41842 0.79779 0.03747 0.0
C964 C 0.41835 0.79788 1.00175 0.0
C965 C 0.20268 0.38598 1.00145 0.0
C966 C 0.22581 0.39179 0.98329 0.0
C967 C 0.20245 0.38613 0.03683 0.0
C968 C 0.22534 0.39211 0.05534 0.0
H969 H 0.18462 0.38135 0.98827 0.0
H970 H 0.18423 0.38159 0.04972 0.0
S971 S 0.29171 0.40604 1.01986 0.0
N972 N 0.27262 0.40197 0.98688 0.0
N973 N 0.27219 0.40226 0.05251 0.0
C974 C 0.24865 0.3975 0.03736 0.0
C975 C 0.24889 0.39733 1.00164 0.0
C976 C 0.18305 0.37214 0.26594 0.0
C977 C 0.1732 0.36132 0.236 0.0
C978 C 0.17445 0.36301 0.29732 0.0
C979 C 0.15532 0.343 0.30008 0.0
H980 H 0.19882 0.38653 0.26526 0.0
H981 H 0.18379 0.37088 0.31958 0.0
S982 S 0.12025 0.31112 0.22923 0.0
N983 N 0.14115 0.3316 0.21109 0.0
N984 N 0.12463 0.31481 0.26995 0.0
C985 C 0.1437 0.33362 0.27035 0.0
C986 C 0.15274 0.34266 0.23836 0.0
C987 C 0.64619 0.181 0.26728 0.0
C988 C 0.65672 0.17118 0.23715 0.0
C989 C 0.65566 0.1724 0.29847 0.0
C990 C 0.67573 0.15331 0.30082 0.0
H991 H 0.6318 0.19677 0.26687 0.0
H992 H 0.64804 0.18173 0.32087 0.0
S993 S 0.7068 0.11825 0.22936 0.0
N994 N 0.68613 0.13914 0.21164 0.0
N995 N 0.70357 0.12262 0.27014 0.0
C996 C 0.68477 0.14168 0.27092 0.0
C997 C 0.67538 0.15072 0.23913 0.0
C998 C 0.83353 0.64545 0.26672 0.0
C999 C 0.84377 0.6558 0.2367 0.0
C1000 C 0.84218 0.65467 0.29799 0.0
C1001 C 0.86172 0.67429 0.30054 0.0
H1002 H 0.81745 0.63141 0.26613 0.0
H1003 H 0.83255 0.64722 0.3203 0.0
S1004 S 0.89792 0.70466 0.22945 0.0
N1005 N 0.87663 0.68451 0.21151 0.0
N1006 N 0.89323 0.70147 0.27019 0.0
C1007 C 0.87372 0.68313 0.27076 0.0
C1008 C 0.86463 0.674 0.23888 0.0
C1009 C 0.36999 0.83413 0.26709 0.0
C1010 C 0.35973 0.84421 0.23696 0.0
C1011 C 0.36065 0.84291 0.29827 0.0
C1012 C 0.341 0.86244 0.3006 0.0
H1013 H 0.38407 0.8181 0.26669 0.0
H1014 H 0.36805 0.83343 0.32069 0.0
S1015 S 0.31072 0.89814 0.2291 0.0
N1016 N 0.33099 0.87684 0.21141 0.0
N1017 N 0.31381 0.89368 0.26989 0.0
C1018 C 0.33221 0.87424 0.27069 0.0
C1019 C 0.34146 0.86502 0.23891 0.0
C1020 C 0.18244 0.64682 0.77226 0.0
C1021 C 0.1725 0.65709 0.80246 0.0
C1022 C 0.17347 0.65611 0.74115 0.0
C1023 C 0.15389 0.67571 0.73898 0.0
H1024 H 0.19853 0.63279 0.77255 0.0
H1025 H 0.18288 0.64874 0.71866 0.0
S1026 S 0.11839 0.70584 0.81073 0.0
N1027 N 0.13987 0.68568 0.82827 0.0
N1028 N 0.12266 0.70276 0.76991 0.0
C1029 C 0.14218 0.68445 0.76897 0.0
C1030 C 0.1516 0.67527 0.80067 0.0
C1031 C 0.36272 0.17376 0.74203 0.0
C1032 C 0.34258 0.15473 0.7397 0.0
C1033 C 0.37216 0.1824 0.77322 0.0
C1034 C 0.36154 0.17269 0.80338 0.0
H1035 H 0.3704 0.18303 0.71961 0.0
H1036 H 0.38658 0.19814 0.77358 0.0
S1037 S 0.31124 0.11992 0.81122 0.0
N1038 N 0.31458 0.12419 0.77043 0.0
N1039 N 0.33196 0.14079 0.82892 0.0
C1040 C 0.34282 0.15227 0.80142 0.0
C1041 C 0.33346 0.14318 0.76963 0.0
C1042 C 0.84242 0.36297 0.74255 0.0
C1043 C 0.86191 0.3433 0.74007 0.0
C1044 C 0.83349 0.37202 0.77381 0.0
C1045 C 0.84336 0.36145 0.8039 0.0
H1046 H 0.83306 0.37059 0.72018 0.0
H1047 H 0.81745 0.3861 0.77427 0.0
S1048 S 0.89717 0.31228 0.81141 0.0
N1049 N 0.89295 0.31578 0.77064 0.0
N1050 N 0.8758 0.33241 0.82925 0.0
C1051 C 0.86416 0.34318 0.80181 0.0
C1052 C 0.87355 0.33423 0.76996 0.0
C1053 C 0.65588 0.84188 0.74059 0.0
C1054 C 0.67537 0.86158 0.73831 0.0
C1055 C 0.64674 0.83284 0.77176 0.0
C1056 C 0.65705 0.84283 0.8019 0.0
H1057 H 0.64846 0.83247 0.71815 0.0
H1058 H 0.63277 0.81669 0.77213 0.0
S1059 S 0.70561 0.89717 0.8099 0.0
N1060 N 0.70241 0.89291 0.7691 0.0
N1061 N 0.6856 0.87557 0.82755 0.0
C1062 C 0.67515 0.86381 0.80001 0.0
C1063 C 0.68418 0.87329 0.76826 0.0
C1064 C 0.84125 0.65562 0.74078 0.0
C1065 C 0.86082 0.67521 0.73808 0.0
C1066 C 0.83265 0.64645 0.77213 0.0
C1067 C 0.84296 0.65682 0.80207 0.0
H1068 H 0.83161 0.64812 0.71854 0.0
H1069 H 0.81659 0.63239 0.77283 0.0
S1070 S 0.89709 0.70573 0.80892 0.0
N1071 N 0.89235 0.70246 0.76821 0.0
N1072 N 0.87583 0.68561 0.82702 0.0
C1073 C 0.86379 0.67505 0.79974 0.0
C1074 C 0.87284 0.68412 0.76778 0.0
C1075 C 0.34139 0.86205 0.79918 0.0
C1076 C 0.36076 0.84225 0.80147 0.0
C1077 C 0.33275 0.87155 0.76803 0.0
C1078 C 0.34283 0.86132 0.73787 0.0
H1079 H 0.33191 0.86945 0.82161 0.0
H1080 H 0.31681 0.88574 0.76764 0.0
S1081 S 0.39641 0.81195 0.72994 0.0
N1082 N 0.39188 0.81493 0.77073 0.0
N1083 N 0.37529 0.83243 0.71228 0.0
C1084 C 0.36349 0.84289 0.7398 0.0
C1085 C 0.37257 0.83347 0.77155 0.0
C1086 C 0.17364 0.36381 0.74172 0.0
C1087 C 0.15446 0.34384 0.73919 0.0
C1088 C 0.18247 0.37289 0.773 0.0
C1089 C 0.17279 0.36204 0.80305 0.0
H1090 H 0.18288 0.37165 0.71936 0.0
H1091 H 0.1983 0.38721 0.77349 0.0
S1092 S 0.11971 0.31203 0.81043 0.0
N1093 N 0.12385 0.31574 0.76967 0.0
N1094 N 0.14079 0.33243 0.82833 0.0
C1095 C 0.15224 0.34348 0.80092 0.0
C1096 C 0.14297 0.33449 0.76904 0.0
C1097 C 0.68343 0.14479 0.76828 0.0
C1098 C 0.67337 0.15517 0.7382 0.0
C1099 C 0.67432 0.1537 0.79951 0.0
C1100 C 0.65448 0.17302 0.80193 0.0
H1101 H 0.69973 0.131 0.76781 0.0
H1102 H 0.68385 0.1463 0.82189 0.0
S1103 S 0.61856 0.20319 0.73054 0.0
N1104 N 0.64034 0.18348 0.71276 0.0
N1105 N 0.62287 0.19985 0.77131 0.0
C1106 C 0.64265 0.18181 0.77204 0.0
C1107 C 0.6522 0.17301 0.74022 0.0
C1108 C 0.86053 0.34431 0.24127 0.0
C1109 C 0.84097 0.36393 0.2388 0.0
C1110 C 0.86985 0.33564 0.27253 0.0
C1111 C 0.85969 0.34593 0.30261 0.0
H1112 H 0.86781 0.33462 0.21894 0.0
H1113 H 0.88382 0.31951 0.27306 0.0
S1114 S 0.8111 0.40027 0.31008 0.0
N1115 N 0.81409 0.39556 0.26933 0.0
N1116 N 0.83123 0.3789 0.32792 0.0
C1117 C 0.84156 0.36686 0.30049 0.0
C1118 C 0.83234 0.37597 0.26865 0.0
C1119 C 0.64583 0.83412 0.26714 0.0
C1120 C 0.6561 0.84388 0.23684 0.0
C1121 C 0.6551 0.8433 0.29815 0.0
C1122 C 0.67471 0.8629 0.30012 0.0
H1123 H 0.63181 0.81802 0.26702 0.0
H1124 H 0.64772 0.83402 0.32074 0.0
S1125 S 0.70488 0.89797 0.22799 0.0
N1126 N 0.68471 0.87637 0.21069 0.0
N1127 N 0.70178 0.89395 0.26885 0.0
C1128 C 0.68346 0.87443 0.27 0.0
C1129 C 0.67428 0.86481 0.23841 0.0
C1130 C 0.14566 0.68366 0.27232 0.0
C1131 C 0.15599 0.67374 0.3025 0.0
C1132 C 0.15483 0.67462 0.24119 0.0
C1133 C 0.17437 0.65498 0.23897 0.0
H1134 H 0.13168 0.69979 0.27265 0.0
H1135 H 0.14742 0.68402 0.21872 0.0
S1136 S 0.2046 0.61949 0.31067 0.0
N1137 N 0.18455 0.64106 0.32825 0.0
N1138 N 0.20142 0.62371 0.26985 0.0
C1139 C 0.18317 0.64329 0.26895 0.0
C1140 C 0.1741 0.65278 0.30067 0.0
C1141 C 0.33323 0.14736 0.27114 0.0
C1142 C 0.3437 0.15752 0.30111 0.0
C1143 C 0.34218 0.15626 0.23979 0.0
C1144 C 0.36225 0.17536 0.23713 0.0
H1145 H 0.31679 0.13376 0.2718 0.0
H1146 H 0.33236 0.14905 0.21752 0.0
S1147 S 0.39916 0.20488 0.30816 0.0
N1148 N 0.37729 0.18538 0.32617 0.0
N1149 N 0.39446 0.20171 0.26743 0.0
C1150 C 0.37444 0.18392 0.26691 0.0
C1151 C 0.36505 0.17514 0.29884 0.0
loop_
_geom_bond_atom_site_label_1
_geom_bond_atom_site_label_2
_geom_bond_distance
_geom_bond_site_symmetry_2
_ccdc_geom_bond_type
O0 Cd1 2.223 . S
O0 C8 1.315 . S
Cd1 O0 2.223 . S
Cd1 O4 2.297 . S
Cd1 O5 2.439 . S
Cd1 O11 2.240 . S
Cd2 O3 2.240 . S
Cd2 O10 2.223 . S
Cd2 O12 2.297 . S
Cd2 O13 2.439 . S
O3 Cd2 2.240 . S
O3 C8 1.279 . S
O4 Cd1 2.297 . S
O4 C6 1.247 . S
O5 Cd1 2.439 . S
O5 C6 1.208 . S
C6 O4 1.247 . S
C6 O5 1.208 . S
C7 O12 1.247 . S
C7 O13 1.208 . S
C8 O0 1.315 . S
C8 O3 1.279 . S
C9 O10 1.315 . S
C9 O11 1.279 . S
O10 Cd2 2.223 . S
O10 C9 1.315 . S
O11 Cd1 2.240 . S
O11 C9 1.279 . S
O12 Cd2 2.297 . S
O12 C7 1.247 . S
O13 Cd2 2.439 . S
O13 C7 1.208 . S
O14 Cd15 2.223 . S
O14 C22 1.315 . S
Cd15 O14 2.223 . S
Cd15 O18 2.297 . S
Cd15 O19 2.439 . S
Cd15 O25 2.240 . S
Cd16 O17 2.240 . S
Cd16 O24 2.223 . S
Cd16 O26 2.297 . S
Cd16 O27 2.439 . S
O17 Cd16 2.240 . S
O17 C22 1.279 . S
O18 Cd15 2.297 . S
O18 C20 1.247 . S
O19 Cd15 2.439 . S
O19 C20 1.208 . S
C20 O18 1.247 . S
C20 O19 1.208 . S
C21 O26 1.247 . S
C21 O27 1.208 . S
C22 O14 1.315 . S
C22 O17 1.279 . S
C23 O24 1.315 . S
C23 O25 1.279 . S
O24 Cd16 2.223 . S
O24 C23 1.315 . S
O25 Cd15 2.240 . S
O25 C23 1.279 . S
O26 Cd16 2.297 . S
O26 C21 1.247 . S
O27 Cd16 2.439 . S
O27 C21 1.208 . S
O28 Cd29 2.223 . S
O28 C36 1.315 . S
Cd29 O28 2.223 . S
Cd29 O32 2.297 . S
Cd29 O33 2.439 . S
Cd29 O39 2.240 . S
Cd30 O31 2.240 . S
Cd30 O38 2.223 . S
Cd30 O40 2.297 . S
Cd30 O41 2.439 . S
O31 Cd30 2.240 . S
O31 C36 1.279 . S
O32 Cd29 2.297 . S
O32 C34 1.247 . S
O33 Cd29 2.439 . S
O33 C34 1.208 . S
C34 O32 1.247 . S
C34 O33 1.208 . S
C35 O40 1.247 . S
C35 O41 1.208 . S
C36 O28 1.315 . S
C36 O31 1.279 . S
C37 O38 1.315 . S
C37 O39 1.279 . S
O38 Cd30 2.223 . S
O38 C37 1.315 . S
O39 Cd29 2.240 . S
O39 C37 1.279 . S
O40 Cd30 2.297 . S
O40 C35 1.247 . S
O41 Cd30 2.439 . S
O41 C35 1.208 . S
O42 Cd43 2.223 . S
O42 C50 1.315 . S
Cd43 O42 2.223 . S
Cd43 O46 2.297 . S
Cd43 O47 2.439 . S
Cd43 O53 2.240 . S
Cd44 O45 2.240 . S
Cd44 O52 2.223 . S
Cd44 O54 2.297 . S
Cd44 O55 2.439 . S
O45 Cd44 2.240 . S
O45 C50 1.279 . S
O46 Cd43 2.297 . S
O46 C48 1.247 . S
O47 Cd43 2.439 . S
O47 C48 1.208 . S
C48 O46 1.247 . S
C48 O47 1.208 . S
C49 O54 1.247 . S
C49 O55 1.208 . S
C50 O42 1.315 . S
C50 O45 1.279 . S
C51 O52 1.315 . S
C51 O53 1.279 . S
O52 Cd44 2.223 . S
O52 C51 1.315 . S
O53 Cd43 2.240 . S
O53 C51 1.279 . S
O54 Cd44 2.297 . S
O54 C49 1.247 . S
O55 Cd44 2.439 . S
O55 C49 1.208 . S
O56 Cd57 2.223 . S
O56 C64 1.315 . S
Cd57 O56 2.223 . S
Cd57 O60 2.297 . S
Cd57 O61 2.439 . S
Cd57 O67 2.240 . S
Cd58 O59 2.240 . S
Cd58 O66 2.223 . S
Cd58 O68 2.297 . S
Cd58 O69 2.439 . S
O59 Cd58 2.240 . S
O59 C64 1.279 . S
O60 Cd57 2.297 . S
O60 C62 1.247 . S
O61 Cd57 2.439 . S
O61 C62 1.208 . S
C62 O60 1.247 . S
C62 O61 1.208 . S
C63 O68 1.247 . S
C63 O69 1.208 . S
C64 O56 1.315 . S
C64 O59 1.279 . S
C65 O66 1.315 . S
C65 O67 1.279 . S
O66 Cd58 2.223 . S
O66 C65 1.315 . S
O67 Cd57 2.240 . S
O67 C65 1.279 . S
O68 Cd58 2.297 . S
O68 C63 1.247 . S
O69 Cd58 2.439 . S
O69 C63 1.208 . S
O70 Cd71 2.223 . S
O70 C78 1.315 . S
Cd71 O70 2.223 . S
Cd71 O74 2.297 . S
Cd71 O75 2.439 . S
Cd71 O81 2.240 . S
Cd72 O73 2.240 . S
Cd72 O80 2.223 . S
Cd72 O82 2.297 . S
Cd72 O83 2.439 . S
O73 Cd72 2.240 . S
O73 C78 1.279 . S
O74 Cd71 2.297 . S
O74 C76 1.247 . S
O75 Cd71 2.439 . S
O75 C76 1.208 . S
C76 O74 1.247 . S
C76 O75 1.208 . S
C77 O82 1.247 . S
C77 O83 1.208 . S
C78 O70 1.315 . S
C78 O73 1.279 . S
C79 O80 1.315 . S
C79 O81 1.279 . S
O80 Cd72 2.223 . S
O80 C79 1.315 . S
O81 Cd71 2.240 . S
O81 C79 1.279 . S
O82 Cd72 2.297 . S
O82 C77 1.247 . S
O83 Cd72 2.439 . S
O83 C77 1.208 . S
O84 Cd85 2.223 . S
O84 C92 1.315 . S
Cd85 O84 2.223 . S
Cd85 O88 2.297 . S
Cd85 O89 2.439 . S
Cd85 O95 2.240 . S
Cd86 O87 2.240 . S
Cd86 O94 2.223 . S
Cd86 O96 2.297 . S
Cd86 O97 2.439 . S
O87 Cd86 2.240 . S
O87 C92 1.279 . S
O88 Cd85 2.297 . S
O88 C90 1.247 . S
O89 Cd85 2.439 . S
O89 C90 1.208 . S
C90 O88 1.247 . S
C90 O89 1.208 . S
C91 O96 1.247 . S
C91 O97 1.208 . S
C92 O84 1.315 . S
C92 O87 1.279 . S
C93 O94 1.315 . S
C93 O95 1.279 . S
O94 Cd86 2.223 . S
O94 C93 1.315 . S
O95 Cd85 2.240 . S
O95 C93 1.279 . S
O96 Cd86 2.297 . S
O96 C91 1.247 . S
O97 Cd86 2.439 . S
O97 C91 1.208 . S
O98 Cd99 2.223 . S
O98 C106 1.315 . S
Cd99 O98 2.223 . S
Cd99 O102 2.297 . S
Cd99 O103 2.439 . S
Cd99 O109 2.240 . S
Cd100 O101 2.240 . S
Cd100 O108 2.223 . S
Cd100 O110 2.297 . S
Cd100 O111 2.439 . S
O101 Cd100 2.240 . S
O101 C106 1.279 . S
O102 Cd99 2.297 . S
O102 C104 1.247 . S
O103 Cd99 2.439 . S
O103 C104 1.208 . S
C104 O102 1.247 . S
C104 O103 1.208 . S
C105 O110 1.247 . S
C105 O111 1.208 . S
C106 O98 1.315 . S
C106 O101 1.279 . S
C107 O108 1.315 . S
C107 O109 1.279 . S
O108 Cd100 2.223 . S
O108 C107 1.315 . S
O109 Cd99 2.240 . S
O109 C107 1.279 . S
O110 Cd100 2.297 . S
O110 C105 1.247 . S
O111 Cd100 2.439 . S
O111 C105 1.208 . S
O112 Cd113 2.223 . S
O112 C120 1.315 . S
Cd113 O112 2.223 . S
Cd113 O116 2.297 . S
Cd113 O117 2.439 . S
Cd113 O123 2.240 . S
Cd114 O115 2.240 . S
Cd114 O122 2.223 . S
Cd114 O124 2.297 . S
Cd114 O125 2.439 . S
O115 Cd114 2.240 . S
O115 C120 1.279 . S
O116 Cd113 2.297 . S
O116 C118 1.247 . S
O117 Cd113 2.439 . S
O117 C118 1.208 . S
C118 O116 1.247 . S
C118 O117 1.208 . S
C119 O124 1.247 . S
C119 O125 1.208 . S
C120 O112 1.315 . S
C120 O115 1.279 . S
C121 O122 1.315 . S
C121 O123 1.279 . S
O122 Cd114 2.223 . S
O122 C121 1.315 . S
O123 Cd113 2.240 . S
O123 C121 1.279 . S
O124 Cd114 2.297 . S
O124 C119 1.247 . S
O125 Cd114 2.439 . S
O125 C119 1.208 . S
O126 Cd127 2.223 . S
O126 C134 1.315 . S
Cd127 O126 2.223 . S
Cd127 O130 2.297 . S
Cd127 O131 2.439 . S
Cd127 O137 2.240 . S
Cd128 O129 2.240 . S
Cd128 O136 2.223 . S
Cd128 O138 2.297 . S
Cd128 O139 2.439 . S
O129 Cd128 2.240 . S
O129 C134 1.279 . S
O130 Cd127 2.297 . S
O130 C132 1.247 . S
O131 Cd127 2.439 . S
O131 C132 1.208 . S
C132 O130 1.247 . S
C132 O131 1.208 . S
C133 O138 1.247 . S
C133 O139 1.208 . S
C134 O126 1.315 . S
C134 O129 1.279 . S
C135 O136 1.315 . S
C135 O137 1.279 . S
O136 Cd128 2.223 . S
O136 C135 1.315 . S
O137 Cd127 2.240 . S
O137 C135 1.279 . S
O138 Cd128 2.297 . S
O138 C133 1.247 . S
O139 Cd128 2.439 . S
O139 C133 1.208 . S
O140 Cd141 2.223 . S
O140 C148 1.315 . S
Cd141 O140 2.223 . S
Cd141 O144 2.297 . S
Cd141 O145 2.439 . S
Cd141 O151 2.240 . S
Cd142 O143 2.240 . S
Cd142 O150 2.223 . S
Cd142 O152 2.297 . S
Cd142 O153 2.439 . S
O143 Cd142 2.240 . S
O143 C148 1.279 . S
O144 Cd141 2.297 . S
O144 C146 1.247 . S
O145 Cd141 2.439 . S
O145 C146 1.208 . S
C146 O144 1.247 . S
C146 O145 1.208 . S
C147 O152 1.247 . S
C147 O153 1.208 . S
C148 O140 1.315 . S
C148 O143 1.279 . S
C149 O150 1.315 . S
C149 O151 1.279 . S
O150 Cd142 2.223 . S
O150 C149 1.315 . S
O151 Cd141 2.240 . S
O151 C149 1.279 . S
O152 Cd142 2.297 . S
O152 C147 1.247 . S
O153 Cd142 2.439 . S
O153 C147 1.208 . S
O154 Cd155 2.223 . S
O154 C162 1.315 . S
Cd155 O154 2.223 . S
Cd155 O158 2.297 . S
Cd155 O159 2.439 . S
Cd155 O165 2.240 . S
Cd156 O157 2.240 . S
Cd156 O164 2.223 . S
Cd156 O166 2.297 . S
Cd156 O167 2.439 . S
O157 Cd156 2.240 . S
O157 C162 1.279 . S
O158 Cd155 2.297 . S
O158 C160 1.247 . S
O159 Cd155 2.439 . S
O159 C160 1.208 . S
C160 O158 1.247 . S
C160 O159 1.208 . S
C161 O166 1.247 . S
C161 O167 1.208 . S
C162 O154 1.315 . S
C162 O157 1.279 . S
C163 O164 1.315 . S
C163 O165 1.279 . S
O164 Cd156 2.223 . S
O164 C163 1.315 . S
O165 Cd155 2.240 . S
O165 C163 1.279 . S
O166 Cd156 2.297 . S
O166 C161 1.247 . S
O167 Cd156 2.439 . S
O167 C161 1.208 . S
O168 Cd169 2.223 . S
O168 C176 1.315 . S
Cd169 O168 2.223 . S
Cd169 O172 2.297 . S
Cd169 O173 2.439 . S
Cd169 O179 2.240 . S
Cd170 O171 2.240 . S
Cd170 O178 2.223 . S
Cd170 O180 2.297 . S
Cd170 O181 2.439 . S
O171 Cd170 2.240 . S
O171 C176 1.279 . S
O172 Cd169 2.297 . S
O172 C174 1.247 . S
O173 Cd169 2.439 . S
O173 C174 1.208 . S
C174 O172 1.247 . S
C174 O173 1.208 . S
C175 O180 1.247 . S
C175 O181 1.208 . S
C176 O168 1.315 . S
C176 O171 1.279 . S
C177 O178 1.315 . S
C177 O179 1.279 . S
O178 Cd170 2.223 . S
O178 C177 1.315 . S
O179 Cd169 2.240 . S
O179 C177 1.279 . S
O180 Cd170 2.297 . S
O180 C175 1.247 . S
O181 Cd170 2.439 . S
O181 C175 1.208 . S
O182 Cd183 2.223 . S
O182 C190 1.315 . S
Cd183 O182 2.223 . S
Cd183 O186 2.297 . S
Cd183 O187 2.439 . S
Cd183 O193 2.240 . S
Cd184 O185 2.240 . S
Cd184 O192 2.223 . S
Cd184 O194 2.297 . S
Cd184 O195 2.439 . S
O185 Cd184 2.240 . S
O185 C190 1.279 . S
O186 Cd183 2.297 . S
O186 C188 1.247 . S
O187 Cd183 2.439 . S
O187 C188 1.208 . S
C188 O186 1.247 . S
C188 O187 1.208 . S
C189 O194 1.247 . S
C189 O195 1.208 . S
C190 O182 1.315 . S
C190 O185 1.279 . S
C191 O192 1.315 . S
C191 O193 1.279 . S
O192 Cd184 2.223 . S
O192 C191 1.315 . S
O193 Cd183 2.240 . S
O193 C191 1.279 . S
O194 Cd184 2.297 . S
O194 C189 1.247 . S
O195 Cd184 2.439 . S
O195 C189 1.208 . S
O196 Cd197 2.223 . S
O196 C204 1.315 . S
Cd197 O196 2.223 . S
Cd197 O200 2.297 . S
Cd197 O201 2.439 . S
Cd197 O207 2.240 . S
Cd198 O199 2.240 . S
Cd198 O206 2.223 . S
Cd198 O208 2.297 . S
Cd198 O209 2.439 . S
O199 Cd198 2.240 . S
O199 C204 1.279 . S
O200 Cd197 2.297 . S
O200 C202 1.247 . S
O201 Cd197 2.439 . S
O201 C202 1.208 . S
C202 O200 1.247 . S
C202 O201 1.208 . S
C203 O208 1.247 . S
C203 O209 1.208 . S
C204 O196 1.315 . S
C204 O199 1.279 . S
C205 O206 1.315 . S
C205 O207 1.279 . S
O206 Cd198 2.223 . S
O206 C205 1.315 . S
O207 Cd197 2.240 . S
O207 C205 1.279 . S
O208 Cd198 2.297 . S
O208 C203 1.247 . S
O209 Cd198 2.439 . S
O209 C203 1.208 . S
O210 Cd211 2.223 . S
O210 C218 1.315 . S
Cd211 O210 2.223 . S
Cd211 O214 2.297 . S
Cd211 O215 2.439 . S
Cd211 O221 2.240 . S
Cd212 O213 2.240 . S
Cd212 O220 2.223 . S
Cd212 O222 2.297 . S
Cd212 O223 2.439 . S
O213 Cd212 2.240 . S
O213 C218 1.279 . S
O214 Cd211 2.297 . S
O214 C216 1.247 . S
O215 Cd211 2.439 . S
O215 C216 1.208 . S
C216 O214 1.247 . S
C216 O215 1.208 . S
C217 O222 1.247 . S
C217 O223 1.208 . S
C218 O210 1.315 . S
C218 O213 1.279 . S
C219 O220 1.315 . S
C219 O221 1.279 . S
O220 Cd212 2.223 . S
O220 C219 1.315 . S
O221 Cd211 2.240 . S
O221 C219 1.279 . S
O222 Cd212 2.297 . S
O222 C217 1.247 . S
O223 Cd212 2.439 . S
O223 C217 1.208 . S
O224 Cd225 2.223 . S
O224 C232 1.315 . S
Cd225 O224 2.223 . S
Cd225 O228 2.297 . S
Cd225 O229 2.439 . S
Cd225 O235 2.240 . S
Cd226 O227 2.240 . S
Cd226 O234 2.223 . S
Cd226 O236 2.297 . S
Cd226 O237 2.439 . S
O227 Cd226 2.240 . S
O227 C232 1.279 . S
O228 Cd225 2.297 . S
O228 C230 1.247 . S
O229 Cd225 2.439 . S
O229 C230 1.208 . S
C230 O228 1.247 . S
C230 O229 1.208 . S
C231 O236 1.247 . S
C231 O237 1.208 . S
C232 O224 1.315 . S
C232 O227 1.279 . S
C233 O234 1.315 . S
C233 O235 1.279 . S
O234 Cd226 2.223 . S
O234 C233 1.315 . S
O235 Cd225 2.240 . S
O235 C233 1.279 . S
O236 Cd226 2.297 . S
O236 C231 1.247 . S
O237 Cd226 2.439 . S
O237 C231 1.208 . S
O238 Cd239 2.223 . S
O238 C246 1.315 . S
Cd239 O238 2.223 . S
Cd239 O242 2.297 . S
Cd239 O243 2.439 . S
Cd239 O249 2.240 . S
Cd240 O241 2.240 . S
Cd240 O248 2.223 . S
Cd240 O250 2.297 . S
Cd240 O251 2.439 . S
O241 Cd240 2.240 . S
O241 C246 1.279 . S
O242 Cd239 2.297 . S
O242 C244 1.247 . S
O243 Cd239 2.439 . S
O243 C244 1.208 . S
C244 O242 1.247 . S
C244 O243 1.208 . S
C245 O250 1.247 . S
C245 O251 1.208 . S
C246 O238 1.315 . S
C246 O241 1.279 . S
C247 O248 1.315 . S
C247 O249 1.279 . S
O248 Cd240 2.223 . S
O248 C247 1.315 . S
O249 Cd239 2.240 . S
O249 C247 1.279 . S
O250 Cd240 2.297 . S
O250 C245 1.247 . S
O251 Cd240 2.439 . S
O251 C245 1.208 . S
O252 Cd253 2.223 . S
O252 C260 1.315 . S
Cd253 O252 2.223 . S
Cd253 O256 2.297 . S
Cd253 O257 2.439 . S
Cd253 O263 2.240 . S
Cd254 O255 2.240 . S
Cd254 O262 2.223 . S
Cd254 O264 2.297 . S
Cd254 O265 2.439 . S
O255 Cd254 2.240 . S
O255 C260 1.279 . S
O256 Cd253 2.297 . S
O256 C258 1.247 . S
O257 Cd253 2.439 . S
O257 C258 1.208 . S
C258 O256 1.247 . S
C258 O257 1.208 . S
C259 O264 1.247 . S
C259 O265 1.208 . S
C260 O252 1.315 . S
C260 O255 1.279 . S
C261 O262 1.315 . S
C261 O263 1.279 . S
O262 Cd254 2.223 . S
O262 C261 1.315 . S
O263 Cd253 2.240 . S
O263 C261 1.279 . S
O264 Cd254 2.297 . S
O264 C259 1.247 . S
O265 Cd254 2.439 . S
O265 C259 1.208 . S
O266 Cd267 2.223 . S
O266 C274 1.315 . S
Cd267 O266 2.223 . S
Cd267 O270 2.297 . S
Cd267 O271 2.439 . S
Cd267 O277 2.240 . S
Cd268 O269 2.240 . S
Cd268 O276 2.223 . S
Cd268 O278 2.297 . S
Cd268 O279 2.439 . S
O269 Cd268 2.240 . S
O269 C274 1.279 . S
O270 Cd267 2.297 . S
O270 C272 1.247 . S
O271 Cd267 2.439 . S
O271 C272 1.208 . S
C272 O270 1.247 . S
C272 O271 1.208 . S
C273 O278 1.247 . S
C273 O279 1.208 . S
C274 O266 1.315 . S
C274 O269 1.279 . S
C275 O276 1.315 . S
C275 O277 1.279 . S
O276 Cd268 2.223 . S
O276 C275 1.315 . S
O277 Cd267 2.240 . S
O277 C275 1.279 . S
O278 Cd268 2.297 . S
O278 C273 1.247 . S
O279 Cd268 2.439 . S
O279 C273 1.208 . S
O280 Cd281 2.223 . S
O280 C288 1.315 . S
Cd281 O280 2.223 . S
Cd281 O284 2.297 . S
Cd281 O285 2.439 . S
Cd281 O291 2.240 . S
Cd282 O283 2.240 . S
Cd282 O290 2.223 . S
Cd282 O292 2.297 . S
Cd282 O293 2.439 . S
O283 Cd282 2.240 . S
O283 C288 1.279 . S
O284 Cd281 2.297 . S
O284 C286 1.247 . S
O285 Cd281 2.439 . S
O285 C286 1.208 . S
C286 O284 1.247 . S
C286 O285 1.208 . S
C287 O292 1.247 . S
C287 O293 1.208 . S
C288 O280 1.315 . S
C288 O283 1.279 . S
C289 O290 1.315 . S
C289 O291 1.279 . S
O290 Cd282 2.223 . S
O290 C289 1.315 . S
O291 Cd281 2.240 . S
O291 C289 1.279 . S
O292 Cd282 2.297 . S
O292 C287 1.247 . S
O293 Cd282 2.439 . S
O293 C287 1.208 . S
O294 Cd295 2.223 . S
O294 C302 1.315 . S
Cd295 O294 2.223 . S
Cd295 O298 2.297 . S
Cd295 O299 2.439 . S
Cd295 O305 2.240 . S
Cd296 O297 2.240 . S
Cd296 O304 2.223 . S
Cd296 O306 2.297 . S
Cd296 O307 2.439 . S
O297 Cd296 2.240 . S
O297 C302 1.279 . S
O298 Cd295 2.297 . S
O298 C300 1.247 . S
O299 Cd295 2.439 . S
O299 C300 1.208 . S
C300 O298 1.247 . S
C300 O299 1.208 . S
C301 O306 1.247 . S
C301 O307 1.208 . S
C302 O294 1.315 . S
C302 O297 1.279 . S
C303 O304 1.315 . S
C303 O305 1.279 . S
O304 Cd296 2.223 . S
O304 C303 1.315 . S
O305 Cd295 2.240 . S
O305 C303 1.279 . S
O306 Cd296 2.297 . S
O306 C301 1.247 . S
O307 Cd296 2.439 . S
O307 C301 1.208 . S
O308 Cd309 2.223 . S
O308 C316 1.315 . S
Cd309 O308 2.223 . S
Cd309 O312 2.297 . S
Cd309 O313 2.439 . S
Cd309 O319 2.240 . S
Cd310 O311 2.240 . S
Cd310 O318 2.223 . S
Cd310 O320 2.297 . S
Cd310 O321 2.439 . S
O311 Cd310 2.240 . S
O311 C316 1.279 . S
O312 Cd309 2.297 . S
O312 C314 1.247 . S
O313 Cd309 2.439 . S
O313 C314 1.208 . S
C314 O312 1.247 . S
C314 O313 1.208 . S
C315 O320 1.247 . S
C315 O321 1.208 . S
C316 O308 1.315 . S
C316 O311 1.279 . S
C317 O318 1.315 . S
C317 O319 1.279 . S
O318 Cd310 2.223 . S
O318 C317 1.315 . S
O319 Cd309 2.240 . S
O319 C317 1.279 . S
O320 Cd310 2.297 . S
O320 C315 1.247 . S
O321 Cd310 2.439 . S
O321 C315 1.208 . S
O322 Cd323 2.223 . S
O322 C330 1.315 . S
Cd323 O322 2.223 . S
Cd323 O326 2.297 . S
Cd323 O327 2.439 . S
Cd323 O333 2.240 . S
Cd324 O325 2.240 . S
Cd324 O332 2.223 . S
Cd324 O334 2.297 . S
Cd324 O335 2.439 . S
O325 Cd324 2.240 . S
O325 C330 1.279 . S
O326 Cd323 2.297 . S
O326 C328 1.247 . S
O327 Cd323 2.439 . S
O327 C328 1.208 . S
C328 O326 1.247 . S
C328 O327 1.208 . S
C329 O334 1.247 . S
C329 O335 1.208 . S
C330 O322 1.315 . S
C330 O325 1.279 . S
C331 O332 1.315 . S
C331 O333 1.279 . S
O332 Cd324 2.223 . S
O332 C331 1.315 . S
O333 Cd323 2.240 . S
O333 C331 1.279 . S
O334 Cd324 2.297 . S
O334 C329 1.247 . S
O335 Cd324 2.439 . S
O335 C329 1.208 . S
O336 Cd337 2.223 . S
O336 C344 1.315 . S
Cd337 O336 2.223 . S
Cd337 O340 2.297 . S
Cd337 O341 2.439 . S
Cd337 O347 2.240 . S
Cd338 O339 2.240 . S
Cd338 O346 2.223 . S
Cd338 O348 2.297 . S
Cd338 O349 2.439 . S
O339 Cd338 2.240 . S
O339 C344 1.279 . S
O340 Cd337 2.297 . S
O340 C342 1.247 . S
O341 Cd337 2.439 . S
O341 C342 1.208 . S
C342 O340 1.247 . S
C342 O341 1.208 . S
C343 O348 1.247 . S
C343 O349 1.208 . S
C344 O336 1.315 . S
C344 O339 1.279 . S
C345 O346 1.315 . S
C345 O347 1.279 . S
O346 Cd338 2.223 . S
O346 C345 1.315 . S
O347 Cd337 2.240 . S
O347 C345 1.279 . S
O348 Cd338 2.297 . S
O348 C343 1.247 . S
O349 Cd338 2.439 . S
O349 C343 1.208 . S
O350 Cd351 2.223 . S
O350 C358 1.315 . S
Cd351 O350 2.223 . S
Cd351 O354 2.297 . S
Cd351 O355 2.439 . S
Cd351 O361 2.240 . S
Cd352 O353 2.240 . S
Cd352 O360 2.223 . S
Cd352 O362 2.297 . S
Cd352 O363 2.439 . S
O353 Cd352 2.240 . S
O353 C358 1.279 . S
O354 Cd351 2.297 . S
O354 C356 1.247 . S
O355 Cd351 2.439 . S
O355 C356 1.208 . S
C356 O354 1.247 . S
C356 O355 1.208 . S
C357 O362 1.247 . S
C357 O363 1.208 . S
C358 O350 1.315 . S
C358 O353 1.279 . S
C359 O360 1.315 . S
C359 O361 1.279 . S
O360 Cd352 2.223 . S
O360 C359 1.315 . S
O361 Cd351 2.240 . S
O361 C359 1.279 . S
O362 Cd352 2.297 . S
O362 C357 1.247 . S
O363 Cd352 2.439 . S
O363 C357 1.208 . S
O364 Cd365 2.223 . S
O364 C372 1.315 . S
Cd365 O364 2.223 . S
Cd365 O368 2.297 . S
Cd365 O369 2.439 . S
Cd365 O375 2.240 . S
Cd366 O367 2.240 . S
Cd366 O374 2.223 . S
Cd366 O376 2.297 . S
Cd366 O377 2.439 . S
O367 Cd366 2.240 . S
O367 C372 1.279 . S
O368 Cd365 2.297 . S
O368 C370 1.247 . S
O369 Cd365 2.439 . S
O369 C370 1.208 . S
C370 O368 1.247 . S
C370 O369 1.208 . S
C371 O376 1.247 . S
C371 O377 1.208 . S
C372 O364 1.315 . S
C372 O367 1.279 . S
C373 O374 1.315 . S
C373 O375 1.279 . S
O374 Cd366 2.223 . S
O374 C373 1.315 . S
O375 Cd365 2.240 . S
O375 C373 1.279 . S
O376 Cd366 2.297 . S
O376 C371 1.247 . S
O377 Cd366 2.439 . S
O377 C371 1.208 . S
O378 Cd379 2.223 . S
O378 C386 1.315 . S
Cd379 O378 2.223 . S
Cd379 O382 2.297 . S
Cd379 O383 2.439 . S
Cd379 O389 2.240 . S
Cd380 O381 2.240 . S
Cd380 O388 2.223 . S
Cd380 O390 2.297 . S
Cd380 O391 2.439 . S
O381 Cd380 2.240 . S
O381 C386 1.279 . S
O382 Cd379 2.297 . S
O382 C384 1.247 . S
O383 Cd379 2.439 . S
O383 C384 1.208 . S
C384 O382 1.247 . S
C384 O383 1.208 . S
C385 O390 1.247 . S
C385 O391 1.208 . S
C386 O378 1.315 . S
C386 O381 1.279 . S
C387 O388 1.315 . S
C387 O389 1.279 . S
O388 Cd380 2.223 . S
O388 C387 1.315 . S
O389 Cd379 2.240 . S
O389 C387 1.279 . S
O390 Cd380 2.297 . S
O390 C385 1.247 . S
O391 Cd380 2.439 . S
O391 C385 1.208 . S
O392 Cd393 2.223 . S
O392 C400 1.315 . S
Cd393 O392 2.223 . S
Cd393 O396 2.297 . S
Cd393 O397 2.439 . S
Cd393 O403 2.240 . S
Cd394 O395 2.240 . S
Cd394 O402 2.223 . S
Cd394 O404 2.297 . S
Cd394 O405 2.439 . S
O395 Cd394 2.240 . S
O395 C400 1.279 . S
O396 Cd393 2.297 . S
O396 C398 1.247 . S
O397 Cd393 2.439 . S
O397 C398 1.208 . S
C398 O396 1.247 . S
C398 O397 1.208 . S
C399 O404 1.247 . S
C399 O405 1.208 . S
C400 O392 1.315 . S
C400 O395 1.279 . S
C401 O402 1.315 . S
C401 O403 1.279 . S
O402 Cd394 2.223 . S
O402 C401 1.315 . S
O403 Cd393 2.240 . S
O403 C401 1.279 . S
O404 Cd394 2.297 . S
O404 C399 1.247 . S
O405 Cd394 2.439 . S
O405 C399 1.208 . S
O406 Cd407 2.223 . S
O406 C414 1.315 . S
Cd407 O406 2.223 . S
Cd407 O410 2.297 . S
Cd407 O411 2.439 . S
Cd407 O417 2.240 . S
Cd408 O409 2.240 . S
Cd408 O416 2.223 . S
Cd408 O418 2.297 . S
Cd408 O419 2.439 . S
O409 Cd408 2.240 . S
O409 C414 1.279 . S
O410 Cd407 2.297 . S
O410 C412 1.247 . S
O411 Cd407 2.439 . S
O411 C412 1.208 . S
C412 O410 1.247 . S
C412 O411 1.208 . S
C413 O418 1.247 . S
C413 O419 1.208 . S
C414 O406 1.315 . S
C414 O409 1.279 . S
C415 O416 1.315 . S
C415 O417 1.279 . S
O416 Cd408 2.223 . S
O416 C415 1.315 . S
O417 Cd407 2.240 . S
O417 C415 1.279 . S
O418 Cd408 2.297 . S
O418 C413 1.247 . S
O419 Cd408 2.439 . S
O419 C413 1.208 . S
O420 Cd421 2.223 . S
O420 C428 1.315 . S
Cd421 O420 2.223 . S
Cd421 O424 2.297 . S
Cd421 O425 2.439 . S
Cd421 O431 2.240 . S
Cd422 O423 2.240 . S
Cd422 O430 2.223 . S
Cd422 O432 2.297 . S
Cd422 O433 2.439 . S
O423 Cd422 2.240 . S
O423 C428 1.279 . S
O424 Cd421 2.297 . S
O424 C426 1.247 . S
O425 Cd421 2.439 . S
O425 C426 1.208 . S
C426 O424 1.247 . S
C426 O425 1.208 . S
C427 O432 1.247 . S
C427 O433 1.208 . S
C428 O420 1.315 . S
C428 O423 1.279 . S
C429 O430 1.315 . S
C429 O431 1.279 . S
O430 Cd422 2.223 . S
O430 C429 1.315 . S
O431 Cd421 2.240 . S
O431 C429 1.279 . S
O432 Cd422 2.297 . S
O432 C427 1.247 . S
O433 Cd422 2.439 . S
O433 C427 1.208 . S
O434 Cd435 2.223 . S
O434 C442 1.315 . S
Cd435 O434 2.223 . S
Cd435 O438 2.297 . S
Cd435 O439 2.439 . S
Cd435 O445 2.240 . S
Cd436 O437 2.240 . S
Cd436 O444 2.223 . S
Cd436 O446 2.297 . S
Cd436 O447 2.439 . S
O437 Cd436 2.240 . S
O437 C442 1.279 . S
O438 Cd435 2.297 . S
O438 C440 1.247 . S
O439 Cd435 2.439 . S
O439 C440 1.208 . S
C440 O438 1.247 . S
C440 O439 1.208 . S
C441 O446 1.247 . S
C441 O447 1.208 . S
C442 O434 1.315 . S
C442 O437 1.279 . S
C443 O444 1.315 . S
C443 O445 1.279 . S
O444 Cd436 2.223 . S
O444 C443 1.315 . S
O445 Cd435 2.240 . S
O445 C443 1.279 . S
O446 Cd436 2.297 . S
O446 C441 1.247 . S
O447 Cd436 2.439 . S
O447 C441 1.208 . S
C448 C449 1.369 . S
C448 C450 1.419 . S
C448 H452 0.930 . S
C449 C448 1.369 . S
C449 C458 1.429 . S
C450 C448 1.419 . S
C450 C451 1.363 . S
C450 H453 0.929 . S
C451 C450 1.363 . S
C451 C457 1.428 . S
H452 C448 0.930 . S
H453 C450 0.929 . S
S454 N455 1.613 . S
S454 N456 1.610 . S
N455 S454 1.613 . S
N455 C458 1.350 . S
N456 S454 1.610 . S
N456 C457 1.351 . S
C457 C451 1.428 . S
C457 N456 1.351 . S
C457 C458 1.434 . S
C458 C449 1.429 . S
C458 N455 1.350 . S
C458 C457 1.434 . S
C459 C460 1.369 . S
C459 C461 1.419 . S
C459 H463 0.930 . S
C460 C459 1.369 . S
C460 C469 1.429 . S
C461 C459 1.419 . S
C461 C462 1.363 . S
C461 H464 0.929 . S
C462 C461 1.363 . S
C462 C468 1.428 . S
H463 C459 0.930 . S
H464 C461 0.929 . S
S465 N466 1.613 . S
S465 N467 1.610 . S
N466 S465 1.613 . S
N466 C469 1.350 . S
N467 S465 1.610 . S
N467 C468 1.351 . S
C468 C462 1.428 . S
C468 N467 1.351 . S
C468 C469 1.434 . S
C469 C460 1.429 . S
C469 N466 1.350 . S
C469 C468 1.434 . S
C470 C471 1.369 . S
C470 C472 1.419 . S
C470 H474 0.930 . S
C471 C470 1.369 . S
C471 C480 1.429 . S
C472 C470 1.419 . S
C472 C473 1.363 . S
C472 H475 0.929 . S
C473 C472 1.363 . S
C473 C479 1.428 . S
H474 C470 0.930 . S
H475 C472 0.929 . S
S476 N477 1.613 . S
S476 N478 1.610 . S
N477 S476 1.613 . S
N477 C480 1.350 . S
N478 S476 1.610 . S
N478 C479 1.351 . S
C479 C473 1.428 . S
C479 N478 1.351 . S
C479 C480 1.434 . S
C480 C471 1.429 . S
C480 N477 1.350 . S
C480 C479 1.434 . S
C481 C482 1.369 . S
C481 C483 1.419 . S
C481 H485 0.930 . S
C482 C481 1.369 . S
C482 C491 1.429 . S
C483 C481 1.419 . S
C483 C484 1.363 . S
C483 H486 0.929 . S
C484 C483 1.363 . S
C484 C490 1.428 . S
H485 C481 0.930 . S
H486 C483 0.929 . S
S487 N488 1.613 . S
S487 N489 1.610 . S
N488 S487 1.613 . S
N488 C491 1.350 . S
N489 S487 1.610 . S
N489 C490 1.351 . S
C490 C484 1.428 . S
C490 N489 1.351 . S
C490 C491 1.434 . S
C491 C482 1.429 . S
C491 N488 1.350 . S
C491 C490 1.434 . S
C492 C493 1.369 . S
C492 C494 1.419 . S
C492 H496 0.930 . S
C493 C492 1.369 . S
C493 C502 1.429 . S
C494 C492 1.419 . S
C494 C495 1.363 . S
C494 H497 0.929 . S
C495 C494 1.363 . S
C495 C501 1.428 . S
H496 C492 0.930 . S
H497 C494 0.929 . S
S498 N499 1.613 . S
S498 N500 1.610 . S
N499 S498 1.613 . S
N499 C502 1.350 . S
N500 S498 1.610 . S
N500 C501 1.351 . S
C501 C495 1.428 . S
C501 N500 1.351 . S
C501 C502 1.434 . S
C502 C493 1.429 . S
C502 N499 1.350 . S
C502 C501 1.434 . S
C503 C504 1.369 . S
C503 C505 1.419 . S
C503 H507 0.930 . S
C504 C503 1.369 . S
C504 C513 1.429 . S
C505 C503 1.419 . S
C505 C506 1.363 . S
C505 H508 0.929 . S
C506 C505 1.363 . S
C506 C512 1.428 . S
H507 C503 0.930 . S
H508 C505 0.929 . S
S509 N510 1.613 . S
S509 N511 1.610 . S
N510 S509 1.613 . S
N510 C513 1.350 . S
N511 S509 1.610 . S
N511 C512 1.351 . S
C512 C506 1.428 . S
C512 N511 1.351 . S
C512 C513 1.434 . S
C513 C504 1.429 . S
C513 N510 1.350 . S
C513 C512 1.434 . S
C514 C515 1.369 . S
C514 C516 1.419 . S
C514 H518 0.930 . S
C515 C514 1.369 . S
C515 C524 1.429 . S
C516 C514 1.419 . S
C516 C517 1.363 . S
C516 H519 0.929 . S
C517 C516 1.363 . S
C517 C523 1.428 . S
H518 C514 0.930 . S
H519 C516 0.929 . S
S520 N521 1.613 . S
S520 N522 1.610 . S
N521 S520 1.613 . S
N521 C524 1.350 . S
N522 S520 1.610 . S
N522 C523 1.351 . S
C523 C517 1.428 . S
C523 N522 1.351 . S
C523 C524 1.434 . S
C524 C515 1.429 . S
C524 N521 1.350 . S
C524 C523 1.434 . S
C525 C526 1.369 . S
C525 C527 1.419 . S
C525 H529 0.930 . S
C526 C525 1.369 . S
C526 C535 1.429 . S
C527 C525 1.419 . S
C527 C528 1.363 . S
C527 H530 0.929 . S
C528 C527 1.363 . S
C528 C534 1.428 . S
H529 C525 0.930 . S
H530 C527 0.929 . S
S531 N532 1.613 . S
S531 N533 1.610 . S
N532 S531 1.613 . S
N532 C535 1.350 . S
N533 S531 1.610 . S
N533 C534 1.351 . S
C534 C528 1.428 . S
C534 N533 1.351 . S
C534 C535 1.434 . S
C535 C526 1.429 . S
C535 N532 1.350 . S
C535 C534 1.434 . S
C536 C537 1.369 . S
C536 C538 1.419 . S
C536 H540 0.930 . S
C537 C536 1.369 . S
C537 C546 1.429 . S
C538 C536 1.419 . S
C538 C539 1.363 . S
C538 H541 0.929 . S
C539 C538 1.363 . S
C539 C545 1.428 . S
H540 C536 0.930 . S
H541 C538 0.929 . S
S542 N543 1.613 . S
S542 N544 1.610 . S
N543 S542 1.613 . S
N543 C546 1.350 . S
N544 S542 1.610 . S
N544 C545 1.351 . S
C545 C539 1.428 . S
C545 N544 1.351 . S
C545 C546 1.434 . S
C546 C537 1.429 . S
C546 N543 1.350 . S
C546 C545 1.434 . S
C547 C548 1.369 . S
C547 C549 1.419 . S
C547 H551 0.930 . S
C548 C547 1.369 . S
C548 C557 1.429 . S
C549 C547 1.419 . S
C549 C550 1.363 . S
C549 H552 0.929 . S
C550 C549 1.363 . S
C550 C556 1.428 . S
H551 C547 0.930 . S
H552 C549 0.929 . S
S553 N554 1.613 . S
S553 N555 1.610 . S
N554 S553 1.613 . S
N554 C557 1.350 . S
N555 S553 1.610 . S
N555 C556 1.351 . S
C556 C550 1.428 . S
C556 N555 1.351 . S
C556 C557 1.434 . S
C557 C548 1.429 . S
C557 N554 1.350 . S
C557 C556 1.434 . S
C558 C559 1.369 . S
C558 C560 1.419 . S
C558 H562 0.930 . S
C559 C558 1.369 . S
C559 C568 1.429 . S
C560 C558 1.419 . S
C560 C561 1.363 . S
C560 H563 0.929 . S
C561 C560 1.363 . S
C561 C567 1.428 . S
H562 C558 0.930 . S
H563 C560 0.929 . S
S564 N565 1.613 . S
S564 N566 1.610 . S
N565 S564 1.613 . S
N565 C568 1.350 . S
N566 S564 1.610 . S
N566 C567 1.351 . S
C567 C561 1.428 . S
C567 N566 1.351 . S
C567 C568 1.434 . S
C568 C559 1.429 . S
C568 N565 1.350 . S
C568 C567 1.434 . S
C569 C570 1.369 . S
C569 C571 1.419 . S
C569 H573 0.930 . S
C570 C569 1.369 . S
C570 C579 1.429 . S
C571 C569 1.419 . S
C571 C572 1.363 . S
C571 H574 0.929 . S
C572 C571 1.363 . S
C572 C578 1.428 . S
H573 C569 0.930 . S
H574 C571 0.929 . S
S575 N576 1.613 . S
S575 N577 1.610 . S
N576 S575 1.613 . S
N576 C579 1.350 . S
N577 S575 1.610 . S
N577 C578 1.351 . S
C578 C572 1.428 . S
C578 N577 1.351 . S
C578 C579 1.434 . S
C579 C570 1.429 . S
C579 N576 1.350 . S
C579 C578 1.434 . S
C580 C581 1.369 . S
C580 C582 1.419 . S
C580 H584 0.930 . S
C581 C580 1.369 . S
C581 C590 1.429 . S
C582 C580 1.419 . S
C582 C583 1.363 . S
C582 H585 0.929 . S
C583 C582 1.363 . S
C583 C589 1.428 . S
H584 C580 0.930 . S
H585 C582 0.929 . S
S586 N587 1.613 . S
S586 N588 1.610 . S
N587 S586 1.613 . S
N587 C590 1.350 . S
N588 S586 1.610 . S
N588 C589 1.351 . S
C589 C583 1.428 . S
C589 N588 1.351 . S
C589 C590 1.434 . S
C590 C581 1.429 . S
C590 N587 1.350 . S
C590 C589 1.434 . S
C591 C592 1.369 . S
C591 C593 1.419 . S
C591 H595 0.930 . S
C592 C591 1.369 . S
C592 C601 1.429 . S
C593 C591 1.419 . S
C593 C594 1.363 . S
C593 H596 0.929 . S
C594 C593 1.363 . S
C594 C600 1.428 . S
H595 C591 0.930 . S
H596 C593 0.929 . S
S597 N598 1.613 . S
S597 N599 1.610 . S
N598 S597 1.613 . S
N598 C601 1.350 . S
N599 S597 1.610 . S
N599 C600 1.351 . S
C600 C594 1.428 . S
C600 N599 1.351 . S
C600 C601 1.434 . S
C601 C592 1.429 . S
C601 N598 1.350 . S
C601 C600 1.434 . S
C602 C603 1.369 . S
C602 C604 1.419 . S
C602 H606 0.930 . S
C603 C602 1.369 . S
C603 C612 1.429 . S
C604 C602 1.419 . S
C604 C605 1.363 . S
C604 H607 0.929 . S
C605 C604 1.363 . S
C605 C611 1.428 . S
H606 C602 0.930 . S
H607 C604 0.929 . S
S608 N609 1.613 . S
S608 N610 1.610 . S
N609 S608 1.613 . S
N609 C612 1.350 . S
N610 S608 1.610 . S
N610 C611 1.351 . S
C611 C605 1.428 . S
C611 N610 1.351 . S
C611 C612 1.434 . S
C612 C603 1.429 . S
C612 N609 1.350 . S
C612 C611 1.434 . S
C613 C614 1.369 . S
C613 C615 1.419 . S
C613 H617 0.930 . S
C614 C613 1.369 . S
C614 C623 1.429 . S
C615 C613 1.419 . S
C615 C616 1.363 . S
C615 H618 0.929 . S
C616 C615 1.363 . S
C616 C622 1.428 . S
H617 C613 0.930 . S
H618 C615 0.929 . S
S619 N620 1.613 . S
S619 N621 1.610 . S
N620 S619 1.613 . S
N620 C623 1.350 . S
N621 S619 1.610 . S
N621 C622 1.351 . S
C622 C616 1.428 . S
C622 N621 1.351 . S
C622 C623 1.434 . S
C623 C614 1.429 . S
C623 N620 1.350 . S
C623 C622 1.434 . S
C624 C625 1.369 . S
C624 C626 1.419 1_655 S
C624 H628 0.930 . S
C625 C624 1.369 . S
C625 C634 1.429 . S
C626 C624 1.419 1_455 S
C626 C627 1.363 . S
C626 H629 0.929 . S
C627 C626 1.363 . S
C627 C633 1.428 . S
H628 C624 0.930 . S
H629 C626 0.929 . S
S630 N631 1.616 1_455 S
S630 N632 1.607 . S
N631 S630 1.616 1_655 S
N631 C634 1.350 . S
N632 S630 1.607 . S
N632 C633 1.351 . S
C633 C627 1.428 . S
C633 N632 1.351 . S
C633 C634 1.434 1_455 S
C634 C625 1.429 . S
C634 N631 1.350 . S
C634 C633 1.434 1_655 S
C635 C636 1.369 . S
C635 C637 1.419 1_545 S
C635 H639 0.930 . S
C636 C635 1.369 . S
C636 C645 1.429 . S
C637 C635 1.419 1_565 S
C637 C638 1.363 . S
C637 H640 0.929 . S
C638 C637 1.363 . S
C638 C644 1.428 . S
H639 C635 0.930 . S
H640 C637 0.929 . S
S641 N642 1.616 1_565 S
S641 N643 1.607 . S
N642 S641 1.616 1_545 S
N642 C645 1.350 . S
N643 S641 1.607 . S
N643 C644 1.351 . S
C644 C638 1.428 . S
C644 N643 1.351 . S
C644 C645 1.434 1_565 S
C645 C636 1.429 . S
C645 N642 1.350 . S
C645 C644 1.434 1_545 S
C646 C647 1.369 . S
C646 C648 1.419 1_455 S
C646 H650 0.930 . S
C647 C646 1.369 . S
C647 C656 1.429 . S
C648 C646 1.419 1_655 S
C648 C649 1.363 . S
C648 H651 0.929 . S
C649 C648 1.363 . S
C649 C655 1.428 . S
H650 C646 0.930 . S
H651 C648 0.929 . S
S652 N653 1.616 1_655 S
S652 N654 1.607 . S
N653 S652 1.616 1_455 S
N653 C656 1.350 . S
N654 S652 1.607 . S
N654 C655 1.351 . S
C655 C649 1.428 . S
C655 N654 1.351 . S
C655 C656 1.434 1_655 S
C656 C647 1.429 . S
C656 N653 1.350 . S
C656 C655 1.434 1_455 S
C657 C658 1.369 . S
C657 C659 1.419 1_565 S
C657 H661 0.930 . S
C658 C657 1.369 . S
C658 C667 1.429 . S
C659 C657 1.419 1_545 S
C659 C660 1.363 . S
C659 H662 0.929 . S
C660 C659 1.363 . S
C660 C666 1.428 . S
H661 C657 0.930 . S
H662 C659 0.929 . S
S663 N664 1.616 1_545 S
S663 N665 1.607 . S
N664 S663 1.616 1_565 S
N664 C667 1.350 . S
N665 S663 1.607 . S
N665 C666 1.351 . S
C666 C660 1.428 . S
C666 N665 1.351 . S
C666 C667 1.434 1_545 S
C667 C658 1.429 . S
C667 N664 1.350 . S
C667 C666 1.434 1_565 S
C668 C669 1.369 . S
C668 C670 1.419 1_455 S
C668 H672 0.930 . S
C669 C668 1.369 . S
C669 C678 1.429 . S
C670 C668 1.419 1_655 S
C670 C671 1.363 . S
C670 H673 0.929 . S
C671 C670 1.363 . S
C671 C677 1.428 . S
H672 C668 0.930 . S
H673 C670 0.929 . S
S674 N675 1.616 1_655 S
S674 N676 1.607 . S
N675 S674 1.616 1_455 S
N675 C678 1.350 . S
N676 S674 1.607 . S
N676 C677 1.351 . S
C677 C671 1.428 . S
C677 N676 1.351 . S
C677 C678 1.434 1_655 S
C678 C669 1.429 . S
C678 N675 1.350 . S
C678 C677 1.434 1_455 S
C679 C680 1.369 . S
C679 C681 1.419 1_565 S
C679 H683 0.930 . S
C680 C679 1.369 . S
C680 C689 1.429 . S
C681 C679 1.419 1_545 S
C681 C682 1.363 . S
C681 H684 0.929 . S
C682 C681 1.363 . S
C682 C688 1.428 . S
H683 C679 0.930 . S
H684 C681 0.929 . S
S685 N686 1.616 1_545 S
S685 N687 1.607 . S
N686 S685 1.616 1_565 S
N686 C689 1.350 . S
N687 S685 1.607 . S
N687 C688 1.351 . S
C688 C682 1.428 . S
C688 N687 1.351 . S
C688 C689 1.434 1_545 S
C689 C680 1.429 . S
C689 N686 1.350 . S
C689 C688 1.434 1_565 S
C690 C691 1.369 . S
C690 C692 1.419 1_455 S
C690 H694 0.930 . S
C691 C690 1.369 . S
C691 C700 1.429 . S
C692 C690 1.419 1_655 S
C692 C693 1.363 . S
C692 H695 0.929 . S
C693 C692 1.363 . S
C693 C699 1.428 . S
H694 C690 0.930 . S
H695 C692 0.929 . S
S696 N697 1.616 1_655 S
S696 N698 1.607 . S
N697 S696 1.616 1_455 S
N697 C700 1.350 . S
N698 S696 1.607 . S
N698 C699 1.351 . S
C699 C693 1.428 . S
C699 N698 1.351 . S
C699 C700 1.434 1_655 S
C700 C691 1.429 . S
C700 N697 1.350 . S
C700 C699 1.434 1_455 S
C701 C702 1.369 . S
C701 C703 1.419 1_545 S
C701 H705 0.930 . S
C702 C701 1.369 . S
C702 C711 1.429 . S
C703 C701 1.419 1_565 S
C703 C704 1.363 . S
C703 H706 0.929 . S
C704 C703 1.363 . S
C704 C710 1.428 . S
H705 C701 0.930 . S
H706 C703 0.929 . S
S707 N708 1.616 1_565 S
S707 N709 1.607 . S
N708 S707 1.616 1_545 S
N708 C711 1.350 . S
N709 S707 1.607 . S
N709 C710 1.351 . S
C710 C704 1.428 . S
C710 N709 1.351 . S
C710 C711 1.434 1_565 S
C711 C702 1.429 . S
C711 N708 1.350 . S
C711 C710 1.434 1_545 S
C712 C713 1.369 . S
C712 C714 1.419 . S
C712 H716 0.930 . S
C713 C712 1.369 . S
C713 C722 1.429 . S
C714 C712 1.419 . S
C714 C715 1.363 . S
C714 H717 0.929 . S
C715 C714 1.363 . S
C715 C721 1.428 . S
H716 C712 0.930 . S
H717 C714 0.929 . S
S718 N719 1.613 . S
S718 N720 1.610 . S
N719 S718 1.613 . S
N719 C722 1.350 . S
N720 S718 1.610 . S
N720 C721 1.351 . S
C721 C715 1.428 . S
C721 N720 1.351 . S
C721 C722 1.434 . S
C722 C713 1.429 . S
C722 N719 1.350 . S
C722 C721 1.434 . S
C723 C724 1.369 . S
C723 C725 1.419 . S
C723 H727 0.930 . S
C724 C723 1.369 . S
C724 C733 1.429 . S
C725 C723 1.419 . S
C725 C726 1.363 . S
C725 H728 0.929 . S
C726 C725 1.363 . S
C726 C732 1.428 . S
H727 C723 0.930 . S
H728 C725 0.929 . S
S729 N730 1.613 . S
S729 N731 1.610 . S
N730 S729 1.613 . S
N730 C733 1.350 . S
N731 S729 1.610 . S
N731 C732 1.351 . S
C732 C726 1.428 . S
C732 N731 1.351 . S
C732 C733 1.434 . S
C733 C724 1.429 . S
C733 N730 1.350 . S
C733 C732 1.434 . S
C734 C735 1.369 . S
C734 C736 1.419 . S
C734 H738 0.930 . S
C735 C734 1.369 . S
C735 C744 1.429 . S
C736 C734 1.419 . S
C736 C737 1.363 . S
C736 H739 0.929 . S
C737 C736 1.363 . S
C737 C743 1.428 . S
H738 C734 0.930 . S
H739 C736 0.929 . S
S740 N741 1.613 . S
S740 N742 1.610 . S
N741 S740 1.613 . S
N741 C744 1.350 . S
N742 S740 1.610 . S
N742 C743 1.351 . S
C743 C737 1.428 . S
C743 N742 1.351 . S
C743 C744 1.434 . S
C744 C735 1.429 . S
C744 N741 1.350 . S
C744 C743 1.434 . S
C745 C746 1.369 . S
C745 C747 1.419 . S
C745 H749 0.930 . S
C746 C745 1.369 . S
C746 C755 1.429 . S
C747 C745 1.419 . S
C747 C748 1.363 . S
C747 H750 0.929 . S
C748 C747 1.363 . S
C748 C754 1.428 . S
H749 C745 0.930 . S
H750 C747 0.929 . S
S751 N752 1.613 . S
S751 N753 1.610 . S
N752 S751 1.613 . S
N752 C755 1.350 . S
N753 S751 1.610 . S
N753 C754 1.351 . S
C754 C748 1.428 . S
C754 N753 1.351 . S
C754 C755 1.434 . S
C755 C746 1.429 . S
C755 N752 1.350 . S
C755 C754 1.434 . S
C756 C757 1.369 . S
C756 C758 1.419 . S
C756 H760 0.930 . S
C757 C756 1.369 . S
C757 C766 1.429 . S
C758 C756 1.419 . S
C758 C759 1.363 . S
C758 H761 0.929 . S
C759 C758 1.363 . S
C759 C765 1.428 . S
H760 C756 0.930 . S
H761 C758 0.929 . S
S762 N763 1.613 . S
S762 N764 1.610 . S
N763 S762 1.613 . S
N763 C766 1.350 . S
N764 S762 1.610 . S
N764 C765 1.351 . S
C765 C759 1.428 . S
C765 N764 1.351 . S
C765 C766 1.434 . S
C766 C757 1.429 . S
C766 N763 1.350 . S
C766 C765 1.434 . S
C767 C768 1.369 . S
C767 C769 1.419 . S
C767 H771 0.930 . S
C768 C767 1.369 . S
C768 C777 1.429 . S
C769 C767 1.419 . S
C769 C770 1.363 . S
C769 H772 0.929 . S
C770 C769 1.363 . S
C770 C776 1.428 . S
H771 C767 0.930 . S
H772 C769 0.929 . S
S773 N774 1.613 . S
S773 N775 1.610 . S
N774 S773 1.613 . S
N774 C777 1.350 . S
N775 S773 1.610 . S
N775 C776 1.351 . S
C776 C770 1.428 . S
C776 N775 1.351 . S
C776 C777 1.434 . S
C777 C768 1.429 . S
C777 N774 1.350 . S
C777 C776 1.434 . S
C778 C779 1.369 . S
C778 C780 1.419 . S
C778 H782 0.930 . S
C779 C778 1.369 . S
C779 C788 1.429 . S
C780 C778 1.419 . S
C780 C781 1.363 . S
C780 H783 0.929 . S
C781 C780 1.363 . S
C781 C787 1.428 . S
H782 C778 0.930 . S
H783 C780 0.929 . S
S784 N785 1.613 . S
S784 N786 1.610 . S
N785 S784 1.613 . S
N785 C788 1.350 . S
N786 S784 1.610 . S
N786 C787 1.351 . S
C787 C781 1.428 . S
C787 N786 1.351 . S
C787 C788 1.434 . S
C788 C779 1.429 . S
C788 N785 1.350 . S
C788 C787 1.434 . S
C789 C790 1.369 . S
C789 C791 1.419 . S
C789 H793 0.930 . S
C790 C789 1.369 . S
C790 C799 1.429 . S
C791 C789 1.419 . S
C791 C792 1.363 . S
C791 H794 0.929 . S
C792 C791 1.363 . S
C792 C798 1.428 . S
H793 C789 0.930 . S
H794 C791 0.929 . S
S795 N796 1.613 . S
S795 N797 1.610 . S
N796 S795 1.613 . S
N796 C799 1.350 . S
N797 S795 1.610 . S
N797 C798 1.351 . S
C798 C792 1.428 . S
C798 N797 1.351 . S
C798 C799 1.434 . S
C799 C790 1.429 . S
C799 N796 1.350 . S
C799 C798 1.434 . S
C800 C801 1.369 . S
C800 C802 1.419 . S
C800 H804 0.930 . S
C801 C800 1.369 . S
C801 C810 1.429 . S
C802 C800 1.419 . S
C802 C803 1.363 . S
C802 H805 0.929 . S
C803 C802 1.363 . S
C803 C809 1.428 . S
H804 C800 0.930 . S
H805 C802 0.929 . S
S806 N807 1.613 . S
S806 N808 1.610 . S
N807 S806 1.613 . S
N807 C810 1.350 . S
N808 S806 1.610 . S
N808 C809 1.351 . S
C809 C803 1.428 . S
C809 N808 1.351 . S
C809 C810 1.434 . S
C810 C801 1.429 . S
C810 N807 1.350 . S
C810 C809 1.434 . S
C811 C812 1.369 . S
C811 C813 1.419 . S
C811 H815 0.930 . S
C812 C811 1.369 . S
C812 C821 1.429 . S
C813 C811 1.419 . S
C813 C814 1.363 . S
C813 H816 0.929 . S
C814 C813 1.363 . S
C814 C820 1.428 . S
H815 C811 0.930 . S
H816 C813 0.929 . S
S817 N818 1.613 . S
S817 N819 1.610 . S
N818 S817 1.613 . S
N818 C821 1.350 . S
N819 S817 1.610 . S
N819 C820 1.351 . S
C820 C814 1.428 . S
C820 N819 1.351 . S
C820 C821 1.434 . S
C821 C812 1.429 . S
C821 N818 1.350 . S
C821 C820 1.434 . S
C822 C823 1.369 . S
C822 C824 1.419 . S
C822 H826 0.930 . S
C823 C822 1.369 . S
C823 C832 1.429 . S
C824 C822 1.419 . S
C824 C825 1.363 . S
C824 H827 0.929 . S
C825 C824 1.363 . S
C825 C831 1.428 . S
H826 C822 0.930 . S
H827 C824 0.929 . S
S828 N829 1.613 . S
S828 N830 1.610 . S
N829 S828 1.613 . S
N829 C832 1.350 . S
N830 S828 1.610 . S
N830 C831 1.351 . S
C831 C825 1.428 . S
C831 N830 1.351 . S
C831 C832 1.434 . S
C832 C823 1.429 . S
C832 N829 1.350 . S
C832 C831 1.434 . S
C833 C834 1.369 . S
C833 C835 1.419 . S
C833 H837 0.930 . S
C834 C833 1.369 . S
C834 C843 1.429 . S
C835 C833 1.419 . S
C835 C836 1.363 . S
C835 H838 0.929 . S
C836 C835 1.363 . S
C836 C842 1.428 . S
H837 C833 0.930 . S
H838 C835 0.929 . S
S839 N840 1.613 . S
S839 N841 1.610 . S
N840 S839 1.613 . S
N840 C843 1.350 . S
N841 S839 1.610 . S
N841 C842 1.351 . S
C842 C836 1.428 . S
C842 N841 1.351 . S
C842 C843 1.434 . S
C843 C834 1.429 . S
C843 N840 1.350 . S
C843 C842 1.434 . S
C844 C845 1.369 . S
C844 C846 1.419 . S
C844 H848 0.930 . S
C845 C844 1.369 . S
C845 C854 1.429 . S
C846 C844 1.419 . S
C846 C847 1.363 . S
C846 H849 0.929 . S
C847 C846 1.363 . S
C847 C853 1.428 . S
H848 C844 0.930 . S
H849 C846 0.929 . S
S850 N851 1.613 . S
S850 N852 1.610 . S
N851 S850 1.613 . S
N851 C854 1.350 . S
N852 S850 1.610 . S
N852 C853 1.351 . S
C853 C847 1.428 . S
C853 N852 1.351 . S
C853 C854 1.434 . S
C854 C845 1.429 . S
C854 N851 1.350 . S
C854 C853 1.434 . S
C855 C856 1.369 . S
C855 C857 1.419 . S
C855 H859 0.930 . S
C856 C855 1.369 . S
C856 C865 1.429 . S
C857 C855 1.419 . S
C857 C858 1.363 . S
C857 H860 0.929 . S
C858 C857 1.363 . S
C858 C864 1.428 . S
H859 C855 0.930 . S
H860 C857 0.929 . S
S861 N862 1.613 . S
S861 N863 1.610 . S
N862 S861 1.613 . S
N862 C865 1.350 . S
N863 S861 1.610 . S
N863 C864 1.351 . S
C864 C858 1.428 . S
C864 N863 1.351 . S
C864 C865 1.434 . S
C865 C856 1.429 . S
C865 N862 1.350 . S
C865 C864 1.434 . S
C866 C867 1.369 . S
C866 C868 1.419 . S
C866 H870 0.930 . S
C867 C866 1.369 . S
C867 C876 1.429 . S
C868 C866 1.419 . S
C868 C869 1.363 . S
C868 H871 0.929 . S
C869 C868 1.363 . S
C869 C875 1.428 . S
H870 C866 0.930 . S
H871 C868 0.929 . S
S872 N873 1.613 . S
S872 N874 1.610 . S
N873 S872 1.613 . S
N873 C876 1.350 . S
N874 S872 1.610 . S
N874 C875 1.351 . S
C875 C869 1.428 . S
C875 N874 1.351 . S
C875 C876 1.434 . S
C876 C867 1.429 . S
C876 N873 1.350 . S
C876 C875 1.434 . S
C877 C878 1.369 . S
C877 C879 1.419 . S
C877 H881 0.930 . S
C878 C877 1.369 . S
C878 C887 1.429 . S
C879 C877 1.419 . S
C879 C880 1.363 . S
C879 H882 0.929 . S
C880 C879 1.363 . S
C880 C886 1.428 . S
H881 C877 0.930 . S
H882 C879 0.929 . S
S883 N884 1.613 . S
S883 N885 1.610 . S
N884 S883 1.613 . S
N884 C887 1.350 . S
N885 S883 1.610 . S
N885 C886 1.351 . S
C886 C880 1.428 . S
C886 N885 1.351 . S
C886 C887 1.434 . S
C887 C878 1.429 . S
C887 N884 1.350 . S
C887 C886 1.434 . S
C888 C889 1.369 . S
C888 C890 1.419 1_554 S
C888 H892 0.930 . S
C889 C888 1.369 . S
C889 C898 1.429 . S
C890 C888 1.419 1_556 S
C890 C891 1.363 . S
C890 H893 0.929 . S
C891 C890 1.363 . S
C891 C897 1.428 . S
H892 C888 0.930 . S
H893 C890 0.929 . S
S894 N895 1.616 1_556 S
S894 N896 1.608 . S
N895 S894 1.616 1_554 S
N895 C898 1.350 . S
N896 S894 1.608 . S
N896 C897 1.351 . S
C897 C891 1.428 . S
C897 N896 1.351 . S
C897 C898 1.434 1_556 S
C898 C889 1.429 . S
C898 N895 1.350 . S
C898 C897 1.434 1_554 S
C899 C900 1.369 . S
C899 C901 1.419 1_556 S
C899 H903 0.930 . S
C900 C899 1.369 . S
C900 C909 1.429 . S
C901 C899 1.419 1_554 S
C901 C902 1.363 . S
C901 H904 0.929 . S
C902 C901 1.363 . S
C902 C908 1.428 . S
H903 C899 0.930 . S
H904 C901 0.929 . S
S905 N906 1.616 1_554 S
S905 N907 1.608 . S
N906 S905 1.616 1_556 S
N906 C909 1.350 . S
N907 S905 1.608 . S
N907 C908 1.351 . S
C908 C902 1.428 . S
C908 N907 1.351 . S
C908 C909 1.434 1_554 S
C909 C900 1.429 . S
C909 N906 1.350 . S
C909 C908 1.434 1_556 S
C910 C911 1.369 . S
C910 C912 1.419 1_554 S
C910 H914 0.930 . S
C911 C910 1.369 . S
C911 C920 1.429 . S
C912 C910 1.419 1_556 S
C912 C913 1.363 . S
C912 H915 0.929 . S
C913 C912 1.363 . S
C913 C919 1.428 . S
H914 C910 0.930 . S
H915 C912 0.929 . S
S916 N917 1.616 1_556 S
S916 N918 1.608 . S
N917 S916 1.616 1_554 S
N917 C920 1.350 . S
N918 S916 1.608 . S
N918 C919 1.351 . S
C919 C913 1.428 . S
C919 N918 1.351 . S
C919 C920 1.434 1_556 S
C920 C911 1.429 . S
C920 N917 1.350 . S
C920 C919 1.434 1_554 S
C921 C922 1.369 . S
C921 C923 1.419 1_554 S
C921 H925 0.930 . S
C922 C921 1.369 . S
C922 C931 1.429 . S
C923 C921 1.419 1_556 S
C923 C924 1.363 . S
C923 H926 0.929 . S
C924 C923 1.363 . S
C924 C930 1.428 . S
H925 C921 0.930 . S
H926 C923 0.929 . S
S927 N928 1.616 1_556 S
S927 N929 1.608 . S
N928 S927 1.616 1_554 S
N928 C931 1.350 . S
N929 S927 1.608 . S
N929 C930 1.351 . S
C930 C924 1.428 . S
C930 N929 1.351 . S
C930 C931 1.434 1_556 S
C931 C922 1.429 . S
C931 N928 1.350 . S
C931 C930 1.434 1_554 S
C932 C933 1.369 . S
C932 C934 1.419 1_554 S
C932 H936 0.930 . S
C933 C932 1.369 . S
C933 C942 1.429 . S
C934 C932 1.419 1_556 S
C934 C935 1.363 . S
C934 H937 0.929 . S
C935 C934 1.363 . S
C935 C941 1.428 . S
H936 C932 0.930 . S
H937 C934 0.929 . S
S938 N939 1.616 1_556 S
S938 N940 1.608 . S
N939 S938 1.616 1_554 S
N939 C942 1.350 . S
N940 S938 1.608 . S
N940 C941 1.351 . S
C941 C935 1.428 . S
C941 N940 1.351 . S
C941 C942 1.434 1_556 S
C942 C933 1.429 . S
C942 N939 1.350 . S
C942 C941 1.434 1_554 S
C943 C944 1.369 . S
C943 C945 1.419 1_554 S
C943 H947 0.930 . S
C944 C943 1.369 . S
C944 C953 1.429 . S
C945 C943 1.419 1_556 S
C945 C946 1.363 . S
C945 H948 0.929 . S
C946 C945 1.363 . S
C946 C952 1.428 . S
H947 C943 0.930 . S
H948 C945 0.929 . S
S949 N950 1.616 1_556 S
S949 N951 1.608 . S
N950 S949 1.616 1_554 S
N950 C953 1.350 . S
N951 S949 1.608 . S
N951 C952 1.351 . S
C952 C946 1.428 . S
C952 N951 1.351 . S
C952 C953 1.434 1_556 S
C953 C944 1.429 . S
C953 N950 1.350 . S
C953 C952 1.434 1_554 S
C954 C955 1.369 . S
C954 C956 1.419 1_556 S
C954 H958 0.930 . S
C955 C954 1.369 . S
C955 C964 1.429 . S
C956 C954 1.419 1_554 S
C956 C957 1.363 . S
C956 H959 0.929 . S
C957 C956 1.363 . S
C957 C963 1.428 . S
H958 C954 0.930 . S
H959 C956 0.929 . S
S960 N961 1.616 1_554 S
S960 N962 1.608 . S
N961 S960 1.616 1_556 S
N961 C964 1.350 . S
N962 S960 1.608 . S
N962 C963 1.351 . S
C963 C957 1.428 . S
C963 N962 1.351 . S
C963 C964 1.434 1_554 S
C964 C955 1.429 . S
C964 N961 1.350 . S
C964 C963 1.434 1_556 S
C965 C966 1.369 . S
C965 C967 1.419 1_556 S
C965 H969 0.930 . S
C966 C965 1.369 . S
C966 C975 1.429 . S
C967 C965 1.419 1_554 S
C967 C968 1.363 . S
C967 H970 0.929 . S
C968 C967 1.363 . S
C968 C974 1.428 . S
H969 C965 0.930 . S
H970 C967 0.929 . S
S971 N972 1.616 1_554 S
S971 N973 1.608 . S
N972 S971 1.616 1_556 S
N972 C975 1.350 . S
N973 S971 1.608 . S
N973 C974 1.351 . S
C974 C968 1.428 . S
C974 N973 1.351 . S
C974 C975 1.434 1_554 S
C975 C966 1.429 . S
C975 N972 1.350 . S
C975 C974 1.434 1_556 S
C976 C977 1.369 . S
C976 C978 1.419 . S
C976 H980 0.930 . S
C977 C976 1.369 . S
C977 C986 1.429 . S
C978 C976 1.419 . S
C978 C979 1.363 . S
C978 H981 0.929 . S
C979 C978 1.363 . S
C979 C985 1.428 . S
H980 C976 0.930 . S
H981 C978 0.929 . S
S982 N983 1.613 . S
S982 N984 1.610 . S
N983 S982 1.613 . S
N983 C986 1.350 . S
N984 S982 1.610 . S
N984 C985 1.351 . S
C985 C979 1.428 . S
C985 N984 1.351 . S
C985 C986 1.434 . S
C986 C977 1.429 . S
C986 N983 1.350 . S
C986 C985 1.434 . S
C987 C988 1.369 . S
C987 C989 1.419 . S
C987 H991 0.930 . S
C988 C987 1.369 . S
C988 C997 1.429 . S
C989 C987 1.419 . S
C989 C990 1.363 . S
C989 H992 0.929 . S
C990 C989 1.363 . S
C990 C996 1.428 . S
H991 C987 0.930 . S
H992 C989 0.929 . S
S993 N994 1.613 . S
S993 N995 1.610 . S
N994 S993 1.613 . S
N994 C997 1.350 . S
N995 S993 1.610 . S
N995 C996 1.351 . S
C996 C990 1.428 . S
C996 N995 1.351 . S
C996 C997 1.434 . S
C997 C988 1.429 . S
C997 N994 1.350 . S
C997 C996 1.434 . S
C998 C999 1.369 . S
C998 C1000 1.419 . S
C998 H1002 0.930 . S
C999 C998 1.369 . S
C999 C1008 1.429 . S
C1000 C998 1.419 . S
C1000 C1001 1.363 . S
C1000 H1003 0.929 . S
C1001 C1000 1.363 . S
C1001 C1007 1.428 . S
H1002 C998 0.930 . S
H1003 C1000 0.929 . S
S1004 N1005 1.613 . S
S1004 N1006 1.610 . S
N1005 S1004 1.613 . S
N1005 C1008 1.350 . S
N1006 S1004 1.610 . S
N1006 C1007 1.351 . S
C1007 C1001 1.428 . S
C1007 N1006 1.351 . S
C1007 C1008 1.434 . S
C1008 C999 1.429 . S
C1008 N1005 1.350 . S
C1008 C1007 1.434 . S
C1009 C1010 1.369 . S
C1009 C1011 1.419 . S
C1009 H1013 0.930 . S
C1010 C1009 1.369 . S
C1010 C1019 1.429 . S
C1011 C1009 1.419 . S
C1011 C1012 1.363 . S
C1011 H1014 0.929 . S
C1012 C1011 1.363 . S
C1012 C1018 1.428 . S
H1013 C1009 0.930 . S
H1014 C1011 0.929 . S
S1015 N1016 1.613 . S
S1015 N1017 1.610 . S
N1016 S1015 1.613 . S
N1016 C1019 1.350 . S
N1017 S1015 1.610 . S
N1017 C1018 1.351 . S
C1018 C1012 1.428 . S
C1018 N1017 1.351 . S
C1018 C1019 1.434 . S
C1019 C1010 1.429 . S
C1019 N1016 1.350 . S
C1019 C1018 1.434 . S
C1020 C1021 1.369 . S
C1020 C1022 1.419 . S
C1020 H1024 0.930 . S
C1021 C1020 1.369 . S
C1021 C1030 1.429 . S
C1022 C1020 1.419 . S
C1022 C1023 1.363 . S
C1022 H1025 0.929 . S
C1023 C1022 1.363 . S
C1023 C1029 1.428 . S
H1024 C1020 0.930 . S
H1025 C1022 0.929 . S
S1026 N1027 1.613 . S
S1026 N1028 1.610 . S
N1027 S1026 1.613 . S
N1027 C1030 1.350 . S
N1028 S1026 1.610 . S
N1028 C1029 1.351 . S
C1029 C1023 1.428 . S
C1029 N1028 1.351 . S
C1029 C1030 1.434 . S
C1030 C1021 1.429 . S
C1030 N1027 1.350 . S
C1030 C1029 1.434 . S
C1031 C1032 1.369 . S
C1031 C1033 1.419 . S
C1031 H1035 0.930 . S
C1032 C1031 1.369 . S
C1032 C1041 1.429 . S
C1033 C1031 1.419 . S
C1033 C1034 1.363 . S
C1033 H1036 0.929 . S
C1034 C1033 1.363 . S
C1034 C1040 1.428 . S
H1035 C1031 0.930 . S
H1036 C1033 0.929 . S
S1037 N1038 1.613 . S
S1037 N1039 1.610 . S
N1038 S1037 1.613 . S
N1038 C1041 1.350 . S
N1039 S1037 1.610 . S
N1039 C1040 1.351 . S
C1040 C1034 1.428 . S
C1040 N1039 1.351 . S
C1040 C1041 1.434 . S
C1041 C1032 1.429 . S
C1041 N1038 1.350 . S
C1041 C1040 1.434 . S
C1042 C1043 1.369 . S
C1042 C1044 1.419 . S
C1042 H1046 0.930 . S
C1043 C1042 1.369 . S
C1043 C1052 1.429 . S
C1044 C1042 1.419 . S
C1044 C1045 1.363 . S
C1044 H1047 0.929 . S
C1045 C1044 1.363 . S
C1045 C1051 1.428 . S
H1046 C1042 0.930 . S
H1047 C1044 0.929 . S
S1048 N1049 1.613 . S
S1048 N1050 1.610 . S
N1049 S1048 1.613 . S
N1049 C1052 1.350 . S
N1050 S1048 1.610 . S
N1050 C1051 1.351 . S
C1051 C1045 1.428 . S
C1051 N1050 1.351 . S
C1051 C1052 1.434 . S
C1052 C1043 1.429 . S
C1052 N1049 1.350 . S
C1052 C1051 1.434 . S
C1053 C1054 1.369 . S
C1053 C1055 1.419 . S
C1053 H1057 0.930 . S
C1054 C1053 1.369 . S
C1054 C1063 1.429 . S
C1055 C1053 1.419 . S
C1055 C1056 1.363 . S
C1055 H1058 0.929 . S
C1056 C1055 1.363 . S
C1056 C1062 1.428 . S
H1057 C1053 0.930 . S
H1058 C1055 0.929 . S
S1059 N1060 1.613 . S
S1059 N1061 1.610 . S
N1060 S1059 1.613 . S
N1060 C1063 1.350 . S
N1061 S1059 1.610 . S
N1061 C1062 1.351 . S
C1062 C1056 1.428 . S
C1062 N1061 1.351 . S
C1062 C1063 1.434 . S
C1063 C1054 1.429 . S
C1063 N1060 1.350 . S
C1063 C1062 1.434 . S
C1064 C1065 1.369 . S
C1064 C1066 1.419 . S
C1064 H1068 0.930 . S
C1065 C1064 1.369 . S
C1065 C1074 1.429 . S
C1066 C1064 1.419 . S
C1066 C1067 1.363 . S
C1066 H1069 0.929 . S
C1067 C1066 1.363 . S
C1067 C1073 1.428 . S
H1068 C1064 0.930 . S
H1069 C1066 0.929 . S
S1070 N1071 1.613 . S
S1070 N1072 1.610 . S
N1071 S1070 1.613 . S
N1071 C1074 1.350 . S
N1072 S1070 1.610 . S
N1072 C1073 1.351 . S
C1073 C1067 1.428 . S
C1073 N1072 1.351 . S
C1073 C1074 1.434 . S
C1074 C1065 1.429 . S
C1074 N1071 1.350 . S
C1074 C1073 1.434 . S
C1075 C1076 1.369 . S
C1075 C1077 1.419 . S
C1075 H1079 0.930 . S
C1076 C1075 1.369 . S
C1076 C1085 1.429 . S
C1077 C1075 1.419 . S
C1077 C1078 1.363 . S
C1077 H1080 0.929 . S
C1078 C1077 1.363 . S
C1078 C1084 1.428 . S
H1079 C1075 0.930 . S
H1080 C1077 0.929 . S
S1081 N1082 1.613 . S
S1081 N1083 1.610 . S
N1082 S1081 1.613 . S
N1082 C1085 1.350 . S
N1083 S1081 1.610 . S
N1083 C1084 1.351 . S
C1084 C1078 1.428 . S
C1084 N1083 1.351 . S
C1084 C1085 1.434 . S
C1085 C1076 1.429 . S
C1085 N1082 1.350 . S
C1085 C1084 1.434 . S
C1086 C1087 1.369 . S
C1086 C1088 1.419 . S
C1086 H1090 0.930 . S
C1087 C1086 1.369 . S
C1087 C1096 1.429 . S
C1088 C1086 1.419 . S
C1088 C1089 1.363 . S
C1088 H1091 0.929 . S
C1089 C1088 1.363 . S
C1089 C1095 1.428 . S
H1090 C1086 0.930 . S
H1091 C1088 0.929 . S
S1092 N1093 1.613 . S
S1092 N1094 1.610 . S
N1093 S1092 1.613 . S
N1093 C1096 1.350 . S
N1094 S1092 1.610 . S
N1094 C1095 1.351 . S
C1095 C1089 1.428 . S
C1095 N1094 1.351 . S
C1095 C1096 1.434 . S
C1096 C1087 1.429 . S
C1096 N1093 1.350 . S
C1096 C1095 1.434 . S
C1097 C1098 1.369 . S
C1097 C1099 1.419 . S
C1097 H1101 0.930 . S
C1098 C1097 1.369 . S
C1098 C1107 1.429 . S
C1099 C1097 1.419 . S
C1099 C1100 1.363 . S
C1099 H1102 0.929 . S
C1100 C1099 1.363 . S
C1100 C1106 1.428 . S
H1101 C1097 0.930 . S
H1102 C1099 0.929 . S
S1103 N1104 1.613 . S
S1103 N1105 1.610 . S
N1104 S1103 1.613 . S
N1104 C1107 1.350 . S
N1105 S1103 1.610 . S
N1105 C1106 1.351 . S
C1106 C1100 1.428 . S
C1106 N1105 1.351 . S
C1106 C1107 1.434 . S
C1107 C1098 1.429 . S
C1107 N1104 1.350 . S
C1107 C1106 1.434 . S
C1108 C1109 1.369 . S
C1108 C1110 1.419 . S
C1108 H1112 0.930 . S
C1109 C1108 1.369 . S
C1109 C1118 1.429 . S
C1110 C1108 1.419 . S
C1110 C1111 1.363 . S
C1110 H1113 0.929 . S
C1111 C1110 1.363 . S
C1111 C1117 1.428 . S
H1112 C1108 0.930 . S
H1113 C1110 0.929 . S
S1114 N1115 1.613 . S
S1114 N1116 1.610 . S
N1115 S1114 1.613 . S
N1115 C1118 1.350 . S
N1116 S1114 1.610 . S
N1116 C1117 1.351 . S
C1117 C1111 1.428 . S
C1117 N1116 1.351 . S
C1117 C1118 1.434 . S
C1118 C1109 1.429 . S
C1118 N1115 1.350 . S
C1118 C1117 1.434 . S
C1119 C1120 1.369 . S
C1119 C1121 1.419 . S
C1119 H1123 0.930 . S
C1120 C1119 1.369 . S
C1120 C1129 1.429 . S
C1121 C1119 1.419 . S
C1121 C1122 1.363 . S
C1121 H1124 0.929 . S
C1122 C1121 1.363 . S
C1122 C1128 1.428 . S
H1123 C1119 0.930 . S
H1124 C1121 0.929 . S
S1125 N1126 1.613 . S
S1125 N1127 1.610 . S
N1126 S1125 1.613 . S
N1126 C1129 1.350 . S
N1127 S1125 1.610 . S
N1127 C1128 1.351 . S
C1128 C1122 1.428 . S
C1128 N1127 1.351 . S
C1128 C1129 1.434 . S
C1129 C1120 1.429 . S
C1129 N1126 1.350 . S
C1129 C1128 1.434 . S
C1130 C1131 1.369 . S
C1130 C1132 1.419 . S
C1130 H1134 0.930 . S
C1131 C1130 1.369 . S
C1131 C1140 1.429 . S
C1132 C1130 1.419 . S
C1132 C1133 1.363 . S
C1132 H1135 0.929 . S
C1133 C1132 1.363 . S
C1133 C1139 1.428 . S
H1134 C1130 0.930 . S
H1135 C1132 0.929 . S
S1136 N1137 1.613 . S
S1136 N1138 1.610 . S
N1137 S1136 1.613 . S
N1137 C1140 1.350 . S
N1138 S1136 1.610 . S
N1138 C1139 1.351 . S
C1139 C1133 1.428 . S
C1139 N1138 1.351 . S
C1139 C1140 1.434 . S
C1140 C1131 1.429 . S
C1140 N1137 1.350 . S
C1140 C1139 1.434 . S
C1141 C1142 1.369 . S
C1141 C1143 1.419 . S
C1141 H1145 0.930 . S
C1142 C1141 1.369 . S
C1142 C1151 1.429 . S
C1143 C1141 1.419 . S
C1143 C1144 1.363 . S
C1143 H1146 0.929 . S
C1144 C1143 1.363 . S
C1144 C1150 1.428 . S
H1145 C1141 0.930 . S
H1146 C1143 0.929 . S
S1147 N1148 1.613 . S
S1147 N1149 1.610 . S
N1148 S1147 1.613 . S
N1148 C1151 1.350 . S
N1149 S1147 1.610 . S
N1149 C1150 1.351 . S
C1150 C1144 1.428 . S
C1150 N1149 1.351 . S
C1150 C1151 1.434 . S
C1151 C1142 1.429 . S
C1151 N1148 1.350 . S
C1151 C1150 1.434 . S
C449 C218 1.507 . S
C451 C8 1.507 . S
C460 C22 1.503 . S
C462 C176 1.504 . S
C471 C36 1.503 . S
C473 C190 1.504 . S
C482 C204 1.507 . S
C484 C50 1.507 . S
C493 C64 1.506 . S
C495 C134 1.506 . S
C504 C78 1.504 . S
C506 C148 1.504 . S
C515 C162 1.504 . S
C517 C92 1.505 . S
C526 C120 1.508 . S
C528 C106 1.508 . S
C537 C232 1.508 . S
C539 C442 1.508 . S
C548 C246 1.509 . S
C550 C400 1.508 . S
C559 C260 1.504 . S
C561 C414 1.504 . S
C570 C428 1.507 . S
C572 C274 1.507 . S
C581 C288 1.504 . S
C583 C358 1.504 . S
C592 C302 1.506 . S
C594 C372 1.506 . S
C603 C386 1.505 . S
C605 C316 1.505 . S
C614 C330 1.509 . S
C616 C344 1.509 . S
C625 C175 1.461 . S
C627 C7 1.461 . S
C636 C21 1.463 . S
C638 C189 1.462 . S
C647 C203 1.465 . S
C649 C35 1.465 . S
C658 C49 1.461 . S
C660 C217 1.461 . S
C669 C63 1.465 . S
C671 C119 1.465 . S
C680 C133 1.460 . S
C682 C77 1.461 . S
C691 C147 1.460 . S
C693 C91 1.461 . S
C702 C161 1.466 . S
C704 C105 1.465 . S
C713 C231 1.460 . S
C715 C399 1.461 . S
C724 C413 1.466 . S
C726 C245 1.465 . S
C735 C259 1.466 . S
C737 C427 1.465 . S
C746 C273 1.463 . S
C748 C441 1.463 . S
C757 C343 1.466 . S
C759 C287 1.465 . S
C768 C301 1.463 . S
C770 C357 1.463 . S
C779 C315 1.459 . S
C781 C371 1.460 . S
C790 C329 1.463 . S
C792 C385 1.463 . S
C801 C9 1.398 . S
C803 C149 1.398 . S
C812 C163 1.397 . S
C814 C23 1.398 . S
C823 C37 1.394 . S
C825 C121 1.395 . S
C834 C135 1.397 . S
C836 C51 1.398 . S
C845 C205 1.401 . S
C847 C65 1.401 . S
C856 C219 1.402 . S
C858 C79 1.401 . S
C867 C177 1.395 . S
C869 C93 1.395 . S
C878 C107 1.401 . S
C880 C191 1.400 . S
C889 C373 1.400 . S
C891 C233 1.400 . S
C900 C247 1.402 . S
C902 C387 1.401 . S
C911 C345 1.395 . S
C913 C261 1.396 . S
C922 C359 1.396 . S
C924 C275 1.396 . S
C933 C289 1.399 . S
C935 C429 1.399 . S
C944 C303 1.394 . S
C946 C443 1.395 . S
C955 C401 1.394 . S
C957 C317 1.395 . S
C966 C415 1.399 . S
C968 C331 1.399 . S
C977 C328 1.426 . S
C979 C6 1.428 . S
C988 C286 1.427 . S
C990 C20 1.431 . S
C999 C300 1.430 . S
C1001 C34 1.429 . S
C1010 C314 1.426 . S
C1012 C48 1.429 . S
C1021 C244 1.426 . S
C1023 C62 1.428 . S
C1032 C76 1.427 . S
C1034 C258 1.427 . S
C1043 C90 1.431 . S
C1045 C272 1.427 . S
C1054 C104 1.431 . S
C1056 C230 1.428 . S
C1065 C118 1.431 . S
C1067 C440 1.428 . S
C1076 C398 1.431 . S
C1078 C132 1.427 . S
C1087 C146 1.431 . S
C1089 C412 1.428 . S
C1098 C160 1.426 . S
C1100 C426 1.430 . S
C1109 C356 1.431 . S
C1111 C174 1.428 . S
C1120 C370 1.428 . S
C1122 C188 1.430 . S
C1131 C202 1.426 . S
C1133 C384 1.429 . S
C1142 C216 1.427 . S
C1144 C342 1.428 . S
