# Generated by pormake.
# Topology whz, (6)-cn, num edge types: 1
# Building blocks:
#     Node 0, Type 0, BuildingBlock: KUMJIN_clean_sbu_1, # of connection points: 6
#     Node 1, Type 0, BuildingBlock: KUMJIN_clean_sbu_1, # of connection points: 6
#     Node 2, Type 0, BuildingBlock: KUMJIN_clean_sbu_1, # of connection points: 6
#     Node 3, Type 0, BuildingBlock: KUMJIN_clean_sbu_1, # of connection points: 6
#     Node 4, Type 0, BuildingBlock: KUMJIN_clean_sbu_1, # of connection points: 6
#     Node 5, Type 0, BuildingBlock: KUMJIN_clean_sbu_1, # of connection points: 6
#     Node 6, Type 0, BuildingBlock: KUMJIN_clean_sbu_1, # of connection points: 6
#     Node 7, Type 0, BuildingBlock: KUMJIN_clean_sbu_1, # of connection points: 6
#     Node 8, Type 0, BuildingBlock: KUMJIN_clean_sbu_1, # of connection points: 6
#     Node 9, Type 0, BuildingBlock: KUMJIN_clean_sbu_1, # of connection points: 6
#     Node 10, Type 0, BuildingBlock: KUMJIN_clean_sbu_1, # of connection points: 6
#     Node 11, Type 0, BuildingBlock: KUMJIN_clean_sbu_1, # of connection points: 6
#     Node 12, Type 0, BuildingBlock: KUMJIN_clean_sbu_1, # of connection points: 6
#     Node 13, Type 0, BuildingBlock: KUMJIN_clean_sbu_1, # of connection points: 6
#     Node 14, Type 0, BuildingBlock: KUMJIN_clean_sbu_1, # of connection points: 6
#     Node 15, Type 0, BuildingBlock: KUMJIN_clean_sbu_1, # of connection points: 6
#     Edge 16, Type (0, 0), BuildingBlock: AJUNOK_clean_linker_0, # of connection points: 2
#     Edge 17, Type (0, 0), BuildingBlock: AJUNOK_clean_linker_0, # of connection points: 2
#     Edge 18, Type (0, 0), BuildingBlock: AJUNOK_clean_linker_0, # of connection points: 2
#     Edge 19, Type (0, 0), BuildingBlock: AJUNOK_clean_linker_0, # of connection points: 2
#     Edge 20, Type (0, 0), BuildingBlock: AJUNOK_clean_linker_0, # of connection points: 2
#     Edge 21, Type (0, 0), BuildingBlock: AJUNOK_clean_linker_0, # of connection points: 2
#     Edge 22, Type (0, 0), BuildingBlock: AJUNOK_clean_linker_0, # of connection points: 2
#     Edge 23, Type (0, 0), BuildingBlock: AJUNOK_clean_linker_0, # of connection points: 2
#     Edge 24, Type (0, 0), BuildingBlock: AJUNOK_clean_linker_0, # of connection points: 2
#     Edge 25, Type (0, 0), BuildingBlock: AJUNOK_clean_linker_0, # of connection points: 2
#     Edge 26, Type (0, 0), BuildingBlock: AJUNOK_clean_linker_0, # of connection points: 2
#     Edge 27, Type (0, 0), BuildingBlock: AJUNOK_clean_linker_0, # of connection points: 2
#     Edge 28, Type (0, 0), BuildingBlock: AJUNOK_clean_linker_0, # of connection points: 2
#     Edge 29, Type (0, 0), BuildingBlock: AJUNOK_clean_linker_0, # of connection points: 2
#     Edge 30, Type (0, 0), BuildingBlock: AJUNOK_clean_linker_0, # of connection points: 2
#     Edge 31, Type (0, 0), BuildingBlock: AJUNOK_clean_linker_0, # of connection points: 2
#     Edge 32, Type (0, 0), BuildingBlock: AJUNOK_clean_linker_0, # of connection points: 2
#     Edge 33, Type (0, 0), BuildingBlock: AJUNOK_clean_linker_0, # of connection points: 2
#     Edge 34, Type (0, 0), BuildingBlock: AJUNOK_clean_linker_0, # of connection points: 2
#     Edge 35, Type (0, 0), BuildingBlock: AJUNOK_clean_linker_0, # of connection points: 2
#     Edge 36, Type (0, 0), BuildingBlock: AJUNOK_clean_linker_0, # of connection points: 2
#     Edge 37, Type (0, 0), BuildingBlock: AJUNOK_clean_linker_0, # of connection points: 2
#     Edge 38, Type (0, 0), BuildingBlock: AJUNOK_clean_linker_0, # of connection points: 2
#     Edge 39, Type (0, 0), BuildingBlock: AJUNOK_clean_linker_0, # of connection points: 2
#     Edge 40, Type (0, 0), BuildingBlock: AJUNOK_clean_linker_0, # of connection points: 2
#     Edge 41, Type (0, 0), BuildingBlock: AJUNOK_clean_linker_0, # of connection points: 2
#     Edge 42, Type (0, 0), BuildingBlock: AJUNOK_clean_linker_0, # of connection points: 2
#     Edge 43, Type (0, 0), BuildingBlock: AJUNOK_clean_linker_0, # of connection points: 2
#     Edge 44, Type (0, 0), BuildingBlock: AJUNOK_clean_linker_0, # of connection points: 2
#     Edge 45, Type (0, 0), BuildingBlock: AJUNOK_clean_linker_0, # of connection points: 2
#     Edge 46, Type (0, 0), BuildingBlock: AJUNOK_clean_linker_0, # of connection points: 2
#     Edge 47, Type (0, 0), BuildingBlock: AJUNOK_clean_linker_0, # of connection points: 2
#     Edge 48, Type (0, 0), BuildingBlock: AJUNOK_clean_linker_0, # of connection points: 2
#     Edge 49, Type (0, 0), BuildingBlock: AJUNOK_clean_linker_0, # of connection points: 2
#     Edge 50, Type (0, 0), BuildingBlock: AJUNOK_clean_linker_0, # of connection points: 2
#     Edge 51, Type (0, 0), BuildingBlock: AJUNOK_clean_linker_0, # of connection points: 2
#     Edge 52, Type (0, 0), BuildingBlock: AJUNOK_clean_linker_0, # of connection points: 2
#     Edge 53, Type (0, 0), BuildingBlock: AJUNOK_clean_linker_0, # of connection points: 2
#     Edge 54, Type (0, 0), BuildingBlock: AJUNOK_clean_linker_0, # of connection points: 2
#     Edge 55, Type (0, 0), BuildingBlock: AJUNOK_clean_linker_0, # of connection points: 2
#     Edge 56, Type (0, 0), BuildingBlock: AJUNOK_clean_linker_0, # of connection points: 2
#     Edge 57, Type (0, 0), BuildingBlock: AJUNOK_clean_linker_0, # of connection points: 2
#     Edge 58, Type (0, 0), BuildingBlock: AJUNOK_clean_linker_0, # of connection points: 2
#     Edge 59, Type (0, 0), BuildingBlock: AJUNOK_clean_linker_0, # of connection points: 2
#     Edge 60, Type (0, 0), BuildingBlock: AJUNOK_clean_linker_0, # of connection points: 2
#     Edge 61, Type (0, 0), BuildingBlock: AJUNOK_clean_linker_0, # of connection points: 2
#     Edge 62, Type (0, 0), BuildingBlock: AJUNOK_clean_linker_0, # of connection points: 2
#     Edge 63, Type (0, 0), BuildingBlock: AJUNOK_clean_linker_0, # of connection points: 2
# Relax obj value: 0.501
# Max RMSD: 0.290
# Mean RMSD: 0.287
data_MOF--net-whz--node1-KUMJIN_clean_sbu_1--edge1-AJUNOK_clean_linker_0
_symmetry_space_group_name_H-M    P1
_symmetry_Int_Tables_number       1
_symmetry_cell_setting            triclinic
loop_
_symmetry_equiv_pos_as_xyz
'x, y, z'
_cell_length_a     24.805897
_cell_length_b     24.719726
_cell_length_c     58.650387
_cell_angle_alpha  89.896364
_cell_angle_beta   89.821517
_cell_angle_gamma 90.610255
loop_
_atom_site_label
_atom_site_type_symbol
_atom_site_fract_x
_atom_site_fract_y
_atom_site_fract_z
_atom_type_partial_charge
Eu0 Eu 0.27787 0.18872 0.22697 0.0
C1 C 0.4101 0.04566 0.17115 0.0
N2 N 0.40209 0.09887 0.16618 0.0
C3 C 0.49681 0.11093 0.15904 0.0
C4 C 0.46257 0.02402 0.1715 0.0
C5 C 0.44407 0.13025 0.15862 0.0
C6 C 0.50627 0.05792 0.16602 0.0
C7 C 0.37258 0.95587 0.1783 0.0
C8 C 0.36559 0.01171 0.17443 0.0
C9 C 0.42483 0.93495 0.17978 0.0
C10 C 0.46969 0.96893 0.17643 0.0
Eu11 Eu 0.3112 0.12806 0.16776 0.0
N12 N 0.31529 0.03331 0.17372 0.0
C13 C 0.32681 0.92252 0.18024 0.0
C14 C 0.27063 1.00056 0.17444 0.0
C15 C 0.27566 0.94487 0.17796 0.0
H16 H 0.43697 0.16956 0.15154 0.0
H17 H 0.24008 0.91927 0.17914 0.0
H18 H 0.14527 0.17275 0.23143 0.0
H19 H 0.39849 0.36609 0.25155 0.0
H20 H 0.23106 0.01725 0.17257 0.0
H21 H 0.33051 0.87944 0.18321 0.0
H22 H 0.3799 0.26858 0.2464 0.0
H23 H 0.52999 0.13662 0.15352 0.0
H24 H 0.43096 0.8923 0.18305 0.0
H25 H 0.50973 0.95187 0.17703 0.0
H26 H 0.06363 0.22863 0.23547 0.0
H27 H 0.54714 0.04284 0.1661 0.0
H28 H 0.32475 0.4321 0.24727 0.0
N29 N 0.19907 0.24008 0.23148 0.0
C30 C 0.20494 0.29403 0.2342 0.0
C31 C 0.10313 0.24764 0.235 0.0
C32 C 0.15979 0.32765 0.2364 0.0
C33 C 0.14931 0.21616 0.23252 0.0
C34 C 0.10834 0.30383 0.23664 0.0
N35 N 0.29784 0.27961 0.23728 0.0
C36 C 0.34792 0.29709 0.24369 0.0
C37 C 0.26454 0.37058 0.23991 0.0
C38 C 0.25636 0.31479 0.23641 0.0
C39 C 0.31677 0.38945 0.24445 0.0
C40 C 0.35843 0.3523 0.24694 0.0
H41 H 0.07257 0.3283 0.23834 0.0
H42 H 0.13332 0.41019 0.23969 0.0
H43 H 0.22568 0.44817 0.24129 0.0
O44 O 0.2826 0.18868 0.26378 0.0
O45 O 0.2297 0.21311 0.19659 0.0
O46 O 0.29173 0.22103 0.16868 0.0
O47 O 0.24862 0.11785 0.24557 0.0
O48 O 0.36493 0.20936 0.21422 0.0
O49 O 0.36495 0.20276 0.17483 0.0
O50 O 0.25856 0.1315 0.13723 0.0
O51 O 0.31716 0.08011 0.20304 0.0
O52 O 0.35547 0.14531 0.223 0.0
O53 O 0.33854 0.10234 0.13395 0.0
O54 O 0.22181 0.11786 0.17696 0.0
O55 O 0.22473 0.11703 0.21616 0.0
C56 C 0.25135 0.2421 0.18047 0.0
C57 C 0.25358 0.11194 0.28621 0.0
C58 C 0.25598 0.11825 0.33238 0.0
C59 C 0.19214 0.14435 0.34831 0.0
C60 C 0.20367 0.08202 0.29041 0.0
C61 C 0.17096 0.084 0.31157 0.0
C62 C 0.28567 0.13162 0.30412 0.0
C63 C 0.38687 0.2208 0.194 0.0
C64 C 0.26225 0.13956 0.26485 0.0
C65 C 0.16758 0.38359 0.23865 0.0
C66 C 0.22 0.40511 0.23985 0.0
C67 C 0.34761 0.09382 0.22085 0.0
C68 C 0.30196 0.14135 0.10046 0.0
C69 C 0.28793 0.14723 1.05858 0.0
C70 C 0.32695 0.18866 1.05779 0.0
C71 C 0.34004 0.18353 0.0987 0.0
C72 C 0.27542 0.12333 0.08018 0.0
C73 C 0.3525 0.20665 0.07759 0.0
C74 C 0.20036 0.10549 0.19693 0.0
C75 C 0.29464 0.11363 0.12306 0.0
H76 H 0.18348 0.14313 0.36643 0.0
H77 H 0.18482 0.06203 0.27605 0.0
H78 H 0.17315 0.09524 0.31919 0.0
H79 H 0.32609 0.14782 0.30157 0.0
H80 H 0.33736 0.20768 1.04168 0.0
H81 H 0.36115 0.19794 0.1137 0.0
H82 H 0.24604 0.09078 0.08119 0.0
H83 H 0.38244 0.23873 0.07655 0.0
Eu84 Eu 0.60059 0.51418 0.47384 0.0
C85 C 0.70188 0.68567 0.41259 0.0
N86 N 0.65497 0.6599 0.40706 0.0
C87 C 0.61889 0.7437 0.39342 0.0
C88 C 0.70765 0.74227 0.41004 0.0
C89 C 0.61521 0.68761 0.39605 0.0
C90 C 0.66472 0.77139 0.40097 0.0
C91 C 0.79645 0.67999 0.42286 0.0
C92 C 0.74596 0.65496 0.41878 0.0
C93 C 0.80118 0.73658 0.4219 0.0
C94 C 0.75686 0.76767 0.4155 0.0
Eu95 Eu 0.65193 0.56488 0.41431 0.0
N96 N 0.74046 0.60032 0.41936 0.0
C97 C 0.84113 0.64728 0.42703 0.0
C98 C 0.78455 0.56831 0.42197 0.0
C99 C 0.83526 0.5911 0.42628 0.0
H100 H 0.57998 0.66639 0.38967 0.0
H101 H 0.86953 0.56536 0.42933 0.0
H102 H 0.62068 0.38246 0.46879 0.0
H103 H 0.41662 0.62247 0.4987 0.0
H104 H 0.77877 0.52539 0.42283 0.0
H105 H 0.88049 0.66497 0.43033 0.0
H106 H 0.51389 0.61224 0.49377 0.0
H107 H 0.58659 0.76547 0.38543 0.0
H108 H 0.83941 0.75656 0.4253 0.0
H109 H 0.76168 0.81116 0.41397 0.0
H110 H 0.56901 0.29699 0.47186 0.0
H111 H 0.66756 0.81485 0.39871 0.0
H112 H 0.35654 0.54228 0.49707 0.0
N113 N 0.55256 0.43197 0.47452 0.0
C114 C 0.49953 0.43407 0.47996 0.0
C115 C 0.54894 0.33517 0.4742 0.0
C116 C 0.46861 0.38622 0.48228 0.0
C117 C 0.57799 0.38359 0.47223 0.0
C118 C 0.49404 0.33659 0.47937 0.0
N119 N 0.50885 0.52881 0.48412 0.0
C120 C 0.48824 0.5775 0.49077 0.0
C121 C 0.42129 0.48727 0.48935 0.0
C122 C 0.47661 0.484 0.48402 0.0
C123 C 0.39911 0.53805 0.49343 0.0
C124 C 0.43287 0.58338 0.49429 0.0
H125 H 0.47159 0.29936 0.48148 0.0
H126 H 0.3893 0.35295 0.48969 0.0
H127 H 0.34861 0.44168 0.4963 0.0
O128 O 0.5898 0.49387 0.50944 0.0
O129 O 0.57903 0.46993 0.44147 0.0
O130 O 0.56255 0.53904 0.41775 0.0
O131 O 0.67008 0.49835 0.4956 0.0
O132 O 0.57727 0.60467 0.46529 0.0
O133 O 0.58084 0.61727 0.42616 0.0
O134 O 0.62078 0.52858 0.38207 0.0
O135 O 0.70197 0.56686 0.44874 0.0
O136 O 0.64003 0.59571 0.47301 0.0
O137 O 0.69637 0.56865 0.38173 0.0
O138 O 0.67284 0.47528 0.42338 0.0
O139 O 0.67677 0.46912 0.46193 0.0
C140 C 0.54722 0.49245 0.42671 0.0
C141 C 0.65559 0.53491 0.53187 0.0
C142 C 0.60033 0.5917 0.55421 0.0
C143 C 0.62875 0.57723 0.57394 0.0
C144 C 0.68341 0.51746 0.5512 0.0
C145 C 0.67278 0.54221 0.57214 0.0
C146 C 0.62458 0.58173 0.53324 0.0
C147 C 0.56516 0.63322 0.44658 0.0
C148 C 0.64119 0.49643 0.51399 0.0
C149 C 0.41375 0.3893 0.48782 0.0
C150 C 0.39028 0.43977 0.4913 0.0
C151 C 0.69051 0.59468 0.46747 0.0
C152 C 0.65024 0.56692 0.34578 0.0
C153 C 0.64436 0.55831 0.3033 0.0
C154 C 0.64479 0.61504 0.30197 0.0
C155 C 0.65124 0.62328 0.34305 0.0
C156 C 0.64527 0.53424 0.32562 0.0
C157 C 0.64756 0.64691 0.32153 0.0
C158 C 0.69313 0.45182 0.4418 0.0
C159 C 0.66086 0.5438 0.36927 0.0
H160 H 0.61238 0.58665 0.59051 0.0
H161 H 0.70947 0.4826 0.55047 0.0
H162 H 0.69386 0.52897 0.58716 0.0
H163 H 0.60334 0.59467 0.51804 0.0
H164 H 0.64406 0.63505 0.28552 0.0
H165 H 0.6566 0.64946 0.35758 0.0
H166 H 0.64379 0.49081 0.32729 0.0
H167 H 0.64868 0.69054 0.31994 0.0
Eu168 Eu 0.22631 0.82816 0.72541 0.0
C169 C 0.09897 0.98582 0.66432 0.0
N170 N 0.107 0.93328 0.65838 0.0
C171 C 0.01727 0.92719 0.64346 0.0
C172 C 0.04828 0.01005 0.66115 0.0
C173 C 0.06819 0.90489 0.64689 0.0
C174 C 1.00685 0.9795 0.65114 0.0
C175 C 0.13647 0.0727 0.67609 0.0
C176 C 0.14271 0.01701 0.67169 0.0
C177 C 0.08518 0.09582 0.67448 0.0
C178 C 0.0412 0.06458 0.66704 0.0
Eu179 Eu 0.19364 0.89959 0.66633 0.0
N180 N 0.19201 0.99366 0.67329 0.0
C181 C 0.18235 0.10398 0.68108 0.0
C182 C 0.23729 0.02462 0.67651 0.0
C183 C 0.23311 0.08005 0.68076 0.0
H184 H 0.07612 0.86456 0.64074 0.0
H185 H 0.26897 0.10418 0.68396 0.0
H186 H 0.35981 0.82808 0.71598 0.0
H187 H 0.10192 0.67169 0.7655 0.0
H188 H 0.27646 1.00645 0.67623 0.0
H189 H 0.1792 0.14689 0.68448 0.0
H190 H 0.12622 0.76497 0.75336 0.0
H191 H 0.98608 0.90398 0.63495 0.0
H192 H 0.07948 0.13833 0.67815 0.0
H193 H 1.00231 0.08355 0.66506 0.0
H194 H 0.43406 0.76245 0.71351 0.0
H195 H 0.96738 0.99669 0.64839 0.0
H196 H 0.16593 0.59698 0.75908 0.0
N197 N 0.30023 0.76873 0.72393 0.0
C198 C 0.29027 0.71666 0.72983 0.0
C199 C 0.39369 0.74887 0.71788 0.0
C200 C 0.33127 0.67781 0.7289 0.0
C201 C 0.35156 0.7859 0.71913 0.0
C202 C 0.38332 0.69429 0.72246 0.0
N203 N 0.20286 0.74269 0.74049 0.0
C204 C 0.15445 0.7325 0.75075 0.0
C205 C 0.22727 0.64908 0.74417 0.0
C206 C 0.2395 0.70292 0.73787 0.0
C207 C 0.17673 0.6377 0.75381 0.0
C208 C 0.14062 0.67984 0.75757 0.0
H209 H 0.41593 0.66554 0.72151 0.0
H210 H 0.3503 0.59419 0.7341 0.0
H211 H 0.25859 0.56758 0.74647 0.0
O212 O 0.22886 0.82957 0.76268 0.0
O213 O 0.26313 0.8039 0.69224 0.0
O214 O 0.19807 0.8061 0.66563 0.0
O215 O 0.26602 0.89465 0.74284 0.0
O216 O 0.1387 0.80678 0.71315 0.0
O217 O 0.12477 0.83853 0.67583 0.0
O218 O 0.24757 0.88132 0.63706 0.0
O219 O 0.18896 0.94443 0.70214 0.0
O220 O 0.15222 0.87663 0.7221 0.0
O221 O 0.18289 0.93594 0.63248 0.0
O222 O 0.28349 0.90358 0.67622 0.0
O223 O 0.27852 0.90034 0.71526 0.0
C224 C 0.23392 0.77848 0.67728 0.0
C225 C 0.24392 0.91627 0.78092 0.0
C226 C 0.25042 0.9019 0.82055 0.0
C227 C 0.28091 0.9499 0.82322 0.0
C228 C 0.27688 0.96283 0.78246 0.0
C229 C 0.2918 0.98217 0.80402 0.0
C230 C 0.21941 0.89756 0.80074 0.0
C231 C 0.10897 0.81015 0.69413 0.0
C232 C 0.25463 0.87618 0.76298 0.0
C233 C 0.31922 0.6241 0.73479 0.0
C234 C 0.26703 0.60929 0.74187 0.0
C235 C 0.16056 0.92813 0.72025 0.0
C236 C 0.2114 0.89026 0.59894 0.0
C237 C 0.22754 0.88837 0.55698 0.0
C238 C 0.17978 0.85805 0.55466 0.0
C239 C 0.16476 0.85882 0.59557 0.0
C240 C 0.24356 0.90448 0.57943 0.0
C241 C 0.1491 0.84315 0.5737 0.0
C242 C 0.30521 0.911 0.69648 0.0
C243 C 0.22256 0.91174 0.62245 0.0
H244 H 0.30292 0.95766 0.83874 0.0
H245 H 0.29508 0.98069 0.7674 0.0
H246 H 0.31821 0.0171 0.80546 0.0
H247 H 0.19117 0.8642 0.79887 0.0
H248 H 0.16651 0.84499 0.53795 0.0
H249 H 0.13965 0.84716 0.60992 0.0
H250 H 0.27992 0.92854 0.58163 0.0
H251 H 0.1126 0.8194 0.57147 0.0
Eu252 Eu 0.88486 0.45853 0.91327 0.0
C253 C 1.00256 0.60557 0.9902 0.0
N254 N 0.02446 0.56919 0.97556 0.0
C255 C 0.10912 0.61705 0.97709 0.0
C256 C 0.03259 0.65117 0.99762 0.0
C257 C 0.0774 0.57378 0.96941 0.0
C258 C 0.08636 0.65659 0.99081 0.0
C259 C 0.9256 0.63681 1.01196 0.0
C260 C 0.9501 0.59734 0.99796 0.0
C261 C 0.95518 0.68246 1.01897 0.0
C262 C 0.00866 0.68938 1.01198 0.0
Eu263 Eu 0.97317 0.48977 0.96845 0.0
N264 N 0.92221 0.55251 0.99099 0.0
C265 C 0.8715 0.6302 1.01804 0.0
C266 C 0.86856 0.54815 0.99604 0.0
C267 C 0.84264 0.58609 1.0097 0.0
H268 H 0.09596 0.54327 0.95898 0.0
H269 H 0.79999 0.58179 1.01335 0.0
H270 H 0.75317 0.45367 0.9287 0.0
H271 H 0.96601 0.32331 0.84875 0.0
H272 H 0.84405 0.51835 0.98843 0.0
H273 H 0.85119 0.65982 1.02851 0.0
H274 H 0.95882 0.40798 0.87095 0.0
H275 H 0.15118 0.61985 0.97244 0.0
H276 H 0.93693 0.71285 1.02972 0.0
H277 H 0.03112 0.72466 1.01768 0.0
H278 H 0.68384 0.38391 0.93777 0.0
H279 H 0.11094 0.6905 0.99643 0.0
H280 H 0.91216 0.24264 0.86004 0.0
N281 N 0.81129 0.39666 0.91786 0.0
C282 C 0.81989 0.34491 0.91132 0.0
C283 C 0.72222 0.3722 0.93058 0.0
C284 C 0.78084 0.30396 0.91518 0.0
C285 C 0.7616 0.41149 0.92563 0.0
C286 C 0.73248 0.31786 0.92591 0.0
N287 N 0.89854 0.37661 0.89331 0.0
C288 C 0.93357 0.37361 0.87536 0.0
C289 C 0.86964 0.28456 0.88691 0.0
C290 C 0.8644 0.33483 0.89796 0.0
C291 C 0.90765 0.28013 0.86936 0.0
C292 C 0.93793 0.32566 0.86286 0.0
H293 H 0.70157 0.28759 0.92933 0.0
H294 H 0.76074 0.21927 0.90991 0.0
H295 H 0.83811 0.20259 0.88457 0.0
O296 O 0.90107 0.49005 0.87786 0.0
O297 O 0.95059 0.3956 0.92184 0.0
O298 O 0.95736 0.39872 0.96109 0.0
O299 O 0.82094 0.48759 0.89129 0.0
O300 O 0.95942 0.51683 0.91029 0.0
O301 O 0.01321 0.4743 0.93514 0.0
O302 O 1.00643 0.48189 1.00245 0.0
O303 O 0.93323 0.56236 0.94973 0.0
O304 O 0.85406 0.52752 0.93535 0.0
O305 O 0.05513 0.46086 0.97297 0.0
O306 O 0.9051 0.43345 0.97788 0.0
O307 O 0.84253 0.45288 0.94979 0.0
C308 C 0.96282 0.37219 0.94155 0.0
C309 C 0.82592 0.49023 0.84993 0.0
C310 C 0.82187 0.50212 0.80729 0.0
C311 C 0.76644 0.48937 0.80887 0.0
C312 C 0.77109 0.47525 0.84946 0.0
C313 C 0.74187 0.47578 0.82939 0.0
C314 C 0.85157 0.50431 0.82846 0.0
C315 C 1.00814 0.50745 0.9183 0.0
C316 C 0.85058 0.49839 0.87345 0.0
C317 C 0.78968 0.25159 0.90674 0.0
C318 C 0.83382 0.24203 0.89237 0.0
C319 C 0.88179 0.56838 0.9439 0.0
C320 C 0.07226 0.41758 1.00765 0.0
C321 C 0.04879 0.29979 1.01474 0.0
C322 C 0.07594 0.27339 1.03919 0.0
C323 C 0.08281 0.42844 1.03554 0.0
C324 C 0.06413 0.35448 0.99712 0.0
C325 C 0.08751 0.32027 1.05922 0.0
C326 C 0.85543 0.43154 0.97015 0.0
C327 C 0.05253 0.46353 0.99512 0.0
H328 H 0.74076 0.49092 0.79402 0.0
H329 H 0.74931 0.4652 0.86496 0.0
H330 H 0.69914 0.46638 0.82977 0.0
H331 H 0.89347 0.51697 0.82827 0.0
H332 H 0.07198 0.23098 1.0435 0.0
H333 H 0.0844 0.46937 1.04261 0.0
H334 H 0.05505 0.35096 0.97922 0.0
H335 H 0.09395 0.3096 0.07684 0.0
Eu336 Eu 0.70948 0.89064 0.95988 0.0
C337 C 0.8044 0.72007 0.89285 0.0
N338 N 0.81775 0.77221 0.89705 0.0
C339 C 0.91156 0.75002 0.89763 0.0
C340 C 0.84417 0.68002 0.89211 0.0
C341 C 0.87049 0.78829 0.89821 0.0
C342 C 0.89824 0.69539 0.89497 0.0
C343 C 0.73622 0.65408 0.88232 0.0
C344 C 0.75135 0.70758 0.88775 0.0
C345 C 0.77502 0.61324 0.88306 0.0
C346 C 0.82898 0.62636 0.8879 0.0
Eu347 Eu 0.74665 0.83422 0.89894 0.0
N348 N 0.71554 0.74849 0.88636 0.0
C349 C 0.68311 0.64367 0.87549 0.0
C350 C 0.66503 0.73937 0.87787 0.0
C351 C 0.64757 0.6867 0.87291 0.0
H352 H 0.88052 0.83065 0.89988 0.0
H353 H 0.6071 0.67944 0.8667 0.0
H354 H 0.58907 0.83744 0.97767 0.0
H355 H 0.7616 0.10471 0.95044 0.0
H356 H 0.63784 0.77263 0.87512 0.0
H357 H 0.6699 0.60304 0.87117 0.0
H358 H 0.77895 1.00794 0.95776 0.0
H359 H 0.9533 0.76264 0.8992 0.0
H360 H 0.76372 0.57192 0.87924 0.0
H361 H 0.85926 0.59546 0.88808 0.0
H362 H 0.49352 0.86366 0.97816 0.0
H363 H 0.92996 0.66565 0.89444 0.0
H364 H 0.66801 0.13594 0.94514 0.0
N365 N 0.61652 0.91177 0.96299 0.0
C366 C 0.60346 0.96379 0.95792 0.0
C367 C 0.52395 0.89198 0.97213 0.0
C368 C 0.54934 0.98084 0.9584 0.0
C369 C 0.57814 0.87694 0.9714 0.0
C370 C 0.50932 0.94375 0.9651 0.0
N371 N 0.69657 0.98455 0.95512 0.0
C372 C 0.73819 0.02117 0.9551 0.0
C373 C 0.63271 0.05622 0.95017 0.0
C374 C 0.64462 1.00135 0.95411 0.0
C375 C 0.67549 0.09342 0.94816 0.0
C376 C 0.7284 0.07597 0.95112 0.0
H377 H 0.46731 0.95529 0.96572 0.0
H378 H 0.49573 0.04841 0.95321 0.0
H379 H 0.56873 0.11431 0.94582 0.0
O380 O 0.76367 0.88733 0.98958 0.0
O381 O 0.70665 0.94116 0.92535 0.0
O382 O 0.66966 0.87852 0.9032 0.0
O383 O 0.68265 0.91088 0.99471 0.0
O384 O 0.79786 0.91022 0.95019 0.0
O385 O 0.80408 0.90063 0.91087 0.0
O386 O 0.7625 0.82843 0.86301 0.0
O387 O 0.79322 0.81096 0.93035 0.0
O388 O 0.73062 0.79897 0.95779 0.0
O389 O 0.76725 0.90683 0.87881 0.0
O390 O 0.65774 0.8178 0.91095 0.0
O391 O 0.65809 0.81531 0.95042 0.0
C392 C 0.67603 0.92947 0.9074 0.0
C393 C 0.72529 0.86899 1.02648 0.0
C394 C 0.73964 0.85719 0.06828 0.0
C395 C 0.71538 0.80576 0.06646 0.0
C396 C 0.70196 0.81718 1.02578 0.0
C397 C 0.69683 0.78616 1.04556 0.0
C398 C 0.74382 0.8894 1.04799 0.0
C399 C 0.82205 0.91968 0.93036 0.0
C400 C 0.7281 0.90118 1.00474 0.0
C401 C 0.53713 0.03486 0.95324 0.0
C402 C 0.57871 0.07244 0.94909 0.0
C403 C 0.77174 0.78001 0.94597 0.0
C404 C 0.73986 0.90284 0.84014 0.0
C405 C 0.69529 0.8558 0.81033 0.0
C406 C 0.72309 0.88683 0.79392 0.0
C407 C 0.76883 0.93443 0.8243 0.0
C408 C 0.69422 0.87453 0.83274 0.0
C409 C 0.75768 0.92875 0.801 0.0
C410 C 0.63506 0.80321 0.9307 0.0
C411 C 0.76852 0.88037 0.85979 0.0
H412 H 0.71027 0.78049 0.08145 0.0
H413 H 0.68712 0.8008 1.00983 0.0
H414 H 0.67817 0.74644 1.04471 0.0
H415 H 0.76161 0.92952 1.04885 0.0
H416 H 0.72397 0.87387 0.77637 0.0
H417 H 0.80334 0.95844 0.82961 0.0
H418 H 0.67208 0.85059 0.84528 0.0
H419 H 0.78126 0.95113 0.78854 0.0
Eu420 Eu 0.36807 0.45805 0.71074 0.0
C421 C 0.55412 0.54642 0.6414 0.0
N422 N 0.50401 0.56298 0.64671 0.0
C423 C 0.53379 0.65574 0.64522 0.0
C424 C 0.59684 0.58378 0.63879 0.0
C425 C 0.49323 0.6168 0.64845 0.0
C426 C 0.58616 0.63912 0.64052 0.0
C427 C 0.61287 0.47345 0.63063 0.0
C428 C 0.5615 0.49252 0.63676 0.0
C429 C 0.65682 0.50959 0.63016 0.0
C430 C 0.64826 0.56485 0.63363 0.0
Eu431 Eu 0.435 0.49659 0.64956 0.0
N432 N 0.51752 0.45968 0.6364 0.0
C433 C 0.61784 0.41946 0.62399 0.0
C434 C 0.5214 0.40818 0.62817 0.0
C435 C 0.57166 0.38691 0.62236 0.0
H436 H 0.45384 0.62963 0.65322 0.0
H437 H 0.57467 0.34564 0.6164 0.0
H438 H 0.4345 0.34877 0.7334 0.0
H439 H 0.1511 0.46851 0.69663 0.0
H440 H 0.48572 0.3831 0.62625 0.0
H441 H 0.65664 0.40326 0.61914 0.0
H442 H 0.24148 0.50363 0.70696 0.0
H443 H 0.52479 0.6983 0.6468 0.0
H444 H 0.69682 0.4958 0.62575 0.0
H445 H 0.68057 0.59322 0.63112 0.0
H446 H 0.42458 0.24962 0.73368 0.0
H447 H 0.61791 0.66915 0.6383 0.0
H448 H 0.13745 0.37045 0.69002 0.0
N449 N 0.36109 0.36199 0.71542 0.0
C450 C 0.31394 0.33907 0.70835 0.0
C451 C 0.39337 0.27424 0.72626 0.0
C452 C 0.3062 0.28239 0.70858 0.0
C453 C 0.39895 0.33061 0.72586 0.0
C454 C 0.34741 0.24991 0.71703 0.0
N455 N 0.27867 0.42673 0.70506 0.0
C456 C 0.23575 0.46089 0.70404 0.0
C457 C 0.22043 0.35051 0.69743 0.0
C458 C 0.27136 0.37253 0.70306 0.0
C459 C 0.17716 0.38575 0.69442 0.0
C460 C 0.18463 0.4411 0.69821 0.0
H461 H 0.34311 0.20624 0.71745 0.0
H462 H 0.25041 0.21668 0.70117 0.0
H463 H 0.1753 0.27645 0.69123 0.0
O464 O 0.38893 0.50716 0.74129 0.0
O465 O 0.32204 0.45865 0.67577 0.0
O466 O 0.38674 0.42137 0.6553 0.0
O467 O 0.32691 0.44777 0.74362 0.0
O468 O 0.33414 0.53896 0.69633 0.0
O469 O 0.37853 0.5613 0.66245 0.0
O470 O 0.43459 0.50611 0.61273 0.0
O471 O 0.4485 0.5444 0.68155 0.0
O472 O 0.45843 0.48332 0.7095 0.0
O473 O 0.3617 0.52262 0.63213 0.0
O474 O 0.44643 0.40854 0.66269 0.0
O475 O 0.44555 0.41052 0.70203 0.0
C476 C 0.33566 0.42872 0.65802 0.0
C477 C 0.37417 0.46473 0.77818 0.0
C478 C 0.38047 0.47642 0.82028 0.0
C479 C 0.39553 0.42206 0.82202 0.0
C480 C 0.3903 0.41093 0.78103 0.0
C481 C 0.40117 0.39006 0.80262 0.0
C482 C 0.37091 0.49809 0.79801 0.0
C483 C 0.34168 0.57075 0.67814 0.0
C484 C 0.35528 0.48277 0.75498 0.0
C485 C 0.25669 0.26012 0.70147 0.0
C486 C 0.21388 0.29415 0.69586 0.0
C487 C 0.47769 0.52484 0.69782 0.0
C488 C 0.3518 0.5159 0.59159 0.0
C489 C 0.3778 0.53085 0.55317 0.0
C490 C 0.33161 0.56194 0.5492 0.0
C491 C 0.30668 0.54919 0.58869 0.0
C492 C 0.3779 0.49699 0.57232 0.0
C493 C 0.29419 0.56862 0.56689 0.0
C494 C 0.4606 0.38777 0.68266 0.0
C495 C 0.38441 0.52168 0.61229 0.0
H496 H 0.4036 0.40433 0.83855 0.0
H497 H 0.39313 0.3843 0.76655 0.0
H498 H 0.41314 0.34828 0.80437 0.0
H499 H 0.36019 0.53995 0.79612 0.0
H500 H 0.32824 0.58633 0.53393 0.0
H501 H 0.28453 0.56406 0.6033 0.0
H502 H 0.4112 0.46968 0.57499 0.0
H503 H 0.26017 0.5951 0.56457 0.0
Eu504 Eu 0.82342 0.11252 0.46397 0.0
C505 C 0.67551 0.27132 0.38513 0.0
N506 N 0.69862 0.2184 0.38238 0.0
C507 C 0.6207 0.19251 0.3609 0.0
C508 C 0.62615 0.2852 0.37523 0.0
C509 C 0.67152 0.18066 0.36994 0.0
C510 C 0.59801 0.24396 0.36373 0.0
C511 C 0.68944 0.38177 0.39056 0.0
C512 C 0.70794 0.31586 0.39515 0.0
C513 C 0.63766 0.38643 0.3817 0.0
C514 C 0.6069 0.33977 0.37528 0.0
Eu515 Eu 0.8049 0.20299 0.40002 0.0
N516 N 0.80134 0.31063 0.4103 0.0
C517 C 0.73685 0.43505 0.39595 0.0
C518 C 0.83475 0.3665 0.41414 0.0
C519 C 0.80315 0.42794 0.40734 0.0
H520 H 0.68901 0.14132 0.36712 0.0
H521 H 0.82874 0.46343 0.40805 0.0
H522 H 0.94349 0.14471 0.48811 0.0
H523 H 0.75525 0.9045 0.45096 0.0
H524 H 0.87705 0.36574 0.41851 0.0
H525 H 0.72677 0.47491 0.3902 0.0
H526 H 0.74621 1.0006 0.46274 0.0
H527 H 0.59894 0.16183 0.35141 0.0
H528 H 0.62103 0.42603 0.37896 0.0
H529 H 0.56761 0.3473 0.36797 0.0
H530 H 0.03851 0.11447 0.48552 0.0
H531 H 0.55928 0.25203 0.35601 0.0
H532 H 0.84518 0.86907 0.44075 0.0
N533 N 0.91387 0.08343 0.46644 0.0
C534 C 0.92303 0.03301 0.45811 0.0
C535 C 1.00669 0.09188 0.47712 0.0
C536 C 0.97567 0.0121 0.45716 0.0
C537 C 0.9535 0.11004 0.47802 0.0
C538 C 0.01813 0.0435 0.46589 0.0
N539 N 0.8288 0.01899 0.45714 0.0
C540 C 0.78506 0.98516 0.45774 0.0
C541 C 0.8866 0.9451 0.4473 0.0
C542 C 0.87908 0.99952 0.45353 0.0
C543 C 0.84114 0.91116 0.44552 0.0
C544 C 0.79028 0.93097 0.45132 0.0
H545 H 0.05918 0.02894 0.46555 0.0
H546 H 0.02388 0.94284 0.44788 0.0
H547 H 0.94582 0.88432 0.43904 0.0
O548 O 0.76878 0.1199 0.49376 0.0
O549 O 0.81305 0.06847 0.42849 0.0
O550 O 0.85676 0.13399 0.41047 0.0
O551 O 0.83761 0.06956 0.49607 0.0
O552 O 0.74154 0.10241 0.44548 0.0
O553 O 0.7345 0.14313 0.40874 0.0
O554 O 0.87725 0.21213 0.37845 0.0
O555 O 0.79508 0.19074 0.4378 0.0
O556 O 0.79124 0.19762 0.47359 0.0
O557 O 0.81169 0.16216 0.36694 0.0
O558 O 0.87417 0.23617 0.42187 0.0
O559 O 0.89127 0.17747 0.45347 0.0
C560 C 0.83714 0.08534 0.40959 0.0
C561 C 0.80903 0.1094 0.53072 0.0
C562 C 0.79313 0.10988 0.57246 0.0
C563 C 0.84079 0.14028 0.57502 0.0
C564 C 0.85565 0.14091 0.53417 0.0
C565 C 0.87143 0.15588 0.55609 0.0
C566 C 0.77705 0.09444 0.55005 0.0
C567 C 0.71522 0.11383 0.42622 0.0
C568 C 0.79711 0.08948 0.50717 0.0
C569 C 0.98364 0.95922 0.44914 0.0
C570 C 0.93916 0.92579 0.44418 0.0
C571 C 0.77859 0.2216 0.45487 0.0
C572 C 0.86219 0.20719 0.33882 0.0
C573 C 0.83391 0.28742 0.31904 0.0
C574 C 0.81849 0.25537 0.30037 0.0
C575 C 0.84756 0.17517 0.32011 0.0
C576 C 0.86372 0.26371 0.33646 0.0
C577 C 0.8272 0.19963 0.3006 0.0
C578 C 0.90474 0.21839 0.43906 0.0
C579 C 0.85839 0.18335 0.36173 0.0
H580 H 0.85386 0.15295 0.59181 0.0
H581 H 0.88053 0.15328 0.51985 0.0
H582 H 0.90781 0.17976 0.55843 0.0
H583 H 0.74056 0.07062 0.54772 0.0
H584 H 0.79427 0.27225 0.287 0.0
H585 H 0.84663 0.13145 0.32145 0.0
H586 H 0.87553 0.28858 0.35085 0.0
H587 H 0.8119 0.17461 0.28697 0.0
Eu588 Eu 0.06029 0.5225 0.15385 0.0
C589 C 0.2408 0.66103 0.20657 0.0
N590 N 0.23153 0.60686 0.20558 0.0
C591 C 0.32516 0.59224 0.19743 0.0
C592 C 0.29244 0.68322 0.20222 0.0
C593 C 0.27338 0.57215 0.20223 0.0
C594 C 0.33452 0.64807 0.19699 0.0
C595 C 0.20935 0.74909 0.21833 0.0
C596 C 0.19977 0.69359 0.21419 0.0
C597 C 0.25941 0.77224 0.21242 0.0
C598 C 0.30093 0.73933 0.20431 0.0
Eu599 Eu 0.14055 0.57718 0.21026 0.0
N600 N 0.15257 0.66959 0.22025 0.0
C601 C 0.16973 0.77868 0.2297 0.0
C602 C 0.11648 0.69679 0.23346 0.0
C603 C 0.12381 0.75195 0.23795 0.0
H604 H 0.26662 0.52895 0.2026 0.0
H605 H 0.09469 0.77359 0.24811 0.0
H606 H 0.94258 0.46008 0.16488 0.0
H607 H 0.24691 0.43987 0.11701 0.0
H608 H 0.08255 0.67518 0.24076 0.0
H609 H 0.17576 0.82121 0.23345 0.0
H610 H 0.19137 0.50866 0.13462 0.0
H611 H 0.35783 0.56465 0.19411 0.0
H612 H 0.26721 0.81497 0.21504 0.0
H613 H 0.34009 0.75728 0.20074 0.0
H614 H 0.89906 0.37141 0.15855 0.0
H615 H 0.37476 0.66348 0.19349 0.0
H616 H 0.2087 0.34891 0.1099 0.0
N617 N 0.01633 0.43877 0.14958 0.0
C618 C 0.04498 0.40019 0.13865 0.0
C619 C 0.94007 0.37881 0.15288 0.0
C620 C 0.0216 0.34883 0.13452 0.0
C621 C 0.96487 0.42886 0.15674 0.0
C622 C 0.96849 0.33859 0.1416 0.0
N623 N 0.11953 0.46219 0.13493 0.0
C624 C 0.17251 0.47178 0.13009 0.0
C625 C 0.12948 0.36954 0.12248 0.0
C626 C 0.09792 0.41161 0.13162 0.0
C627 C 0.18329 0.38023 0.11688 0.0
C628 C 0.20484 0.43158 0.12069 0.0
H629 H 0.94944 0.29952 0.13878 0.0
H630 H 0.03414 0.26994 0.12026 0.0
H631 H 0.13069 0.28513 0.11267 0.0
O632 O 0.04318 0.5314 0.11792 0.0
O633 O 0.09782 0.46147 0.17836 0.0
O634 O 0.17391 0.49866 0.19406 0.0
O635 O 0.97821 0.53922 0.14311 0.0
O636 O 0.11358 0.59609 0.1524 0.0
O637 O 0.18551 0.58032 0.17458 0.0
O638 O 0.13847 0.51319 0.23714 0.0
O639 O 0.07587 0.63712 0.19794 0.0
O640 O 0.03201 0.60793 0.16493 0.0
O641 O 0.15762 0.59445 0.24612 0.0
O642 O 0.04693 0.56308 0.21248 0.0
O643 O 0.03726 0.49237 0.18819 0.0
C644 C 0.14868 0.45729 0.1844 0.0
C645 C 0.95576 0.50192 0.10743 0.0
C646 C 0.94415 0.42404 0.08227 0.0
C647 C 0.89003 0.43925 0.07927 0.0
C648 C 0.90199 0.51625 0.10417 0.0
C649 C 0.86916 0.48476 0.09015 0.0
C650 C 0.97606 0.4557 0.0968 0.0
C651 C 0.16536 0.59608 0.15465 0.0
C652 C 0.99104 0.53594 0.12149 0.0
C653 C 0.05226 0.30861 0.1242 0.0
C654 C 0.10679 0.31787 0.11946 0.0
C655 C 0.04104 0.6446 0.18109 0.0
C656 C 0.18694 0.52928 0.27296 0.0
C657 C 0.20587 0.5113 0.31419 0.0
C658 C 0.26114 0.5118 0.30863 0.0
C659 C 0.2426 0.53075 0.26886 0.0
C660 C 0.16846 0.51907 0.29587 0.0
C661 C 0.27906 0.52105 0.28637 0.0
C662 C 0.01744 0.52325 0.20372 0.0
C663 C 0.14977 0.546 0.25397 0.0
H664 H 0.86425 0.41774 0.06777 0.0
H665 H 0.8857 0.552 0.11221 0.0
H666 H 0.82789 0.49653 0.08722 0.0
H667 H 0.01729 0.44548 0.09965 0.0
H668 H 0.29109 0.50433 0.32162 0.0
H669 H 0.25801 0.53973 0.25195 0.0
H670 H 0.12564 0.51909 0.2995 0.0
H671 H 0.32186 0.52142 0.28271 0.0
Eu672 Eu 0.76948 0.6999 0.72647 0.0
C673 C 0.90889 0.5628 0.6616 0.0
N674 N 0.9004 0.61693 0.65981 0.0
C675 C 0.99431 0.6322 0.65215 0.0
C676 C 0.96116 0.54149 0.65948 0.0
C677 C 0.94176 0.65145 0.65438 0.0
C678 C 1.00418 0.57708 0.65498 0.0
C679 C 0.87231 0.47214 0.66703 0.0
C680 C 0.86496 0.52852 0.66541 0.0
C681 C 0.92448 0.45093 0.66547 0.0
C682 C 0.96879 0.48551 0.66173 0.0
Eu683 Eu 0.81067 0.64582 0.66496 0.0
N684 N 0.81505 0.55037 0.6675 0.0
C685 C 0.82687 0.4387 0.66979 0.0
C686 C 0.77053 0.51777 0.6688 0.0
C687 C 0.77568 0.46157 0.67021 0.0
H688 H 0.93436 0.69392 0.65164 0.0
H689 H 0.74016 0.43593 0.67145 0.0
H690 H 0.63742 0.67765 0.73394 0.0
H691 H 0.8845 0.89174 0.7306 0.0
H692 H 0.73091 0.5347 0.66819 0.0
H693 H 0.83075 0.39517 0.67102 0.0
H694 H 0.87369 0.79355 0.73199 0.0
H695 H 0.02715 0.65988 0.64822 0.0
H696 H 0.93094 0.40777 0.66686 0.0
H697 H 0.00872 0.46847 0.66032 0.0
H698 H 0.55376 0.73073 0.7369 0.0
H699 H 0.04497 0.56232 0.65327 0.0
H700 H 0.80443 0.9502 0.72954 0.0
N701 N 0.68836 0.74693 0.73096 0.0
C702 C 0.69235 0.8017 0.73119 0.0
C703 C 0.59238 0.75118 0.73523 0.0
C704 C 0.64565 0.83354 0.73305 0.0
C705 C 0.63962 0.72127 0.73332 0.0
C706 C 0.59535 0.8076 0.73497 0.0
N707 N 0.788 0.79438 0.72816 0.0
C708 C 0.83814 0.81753 0.72989 0.0
C709 C 0.74796 0.88286 0.72986 0.0
C710 C 0.74327 0.82597 0.72952 0.0
C711 C 0.79932 0.90661 0.72939 0.0
C712 C 0.84457 0.87377 0.72984 0.0
H713 H 0.55863 0.83075 0.73634 0.0
H714 H 0.61511 0.91528 0.73385 0.0
H715 H 0.70486 0.95787 0.73065 0.0
O716 O 0.81237 0.67301 0.75689 0.0
O717 O 0.71997 0.72703 0.69631 0.0
O718 O 0.78196 0.73516 0.66786 0.0
O719 O 0.73185 0.70323 0.76001 0.0
O720 O 0.85971 0.70895 0.7157 0.0
O721 O 0.85793 0.72032 0.67671 0.0
O722 O 0.83614 0.67202 0.63047 0.0
O723 O 0.85131 0.60696 0.69803 0.0
O724 O 0.77878 0.6117 0.72065 0.0
O725 O 0.76989 0.6179 0.63371 0.0
O726 O 0.72017 0.63087 0.67486 0.0
O727 O 0.71619 0.63011 0.71449 0.0
C728 C 0.73945 0.75375 0.67893 0.0
C729 C 0.75026 0.62372 0.78023 0.0
C730 C 0.71547 0.62676 0.81727 0.0
C731 C 0.67093 0.59376 0.81129 0.0
C732 C 0.70346 0.59685 0.77235 0.0
C733 C 0.66534 0.57796 0.78836 0.0
C734 C 0.76095 0.61979 0.80331 0.0
C735 C 0.88338 0.72406 0.69633 0.0
C736 C 0.76905 0.67426 0.76924 0.0
C737 C 0.6505 0.89006 0.73279 0.0
C738 C 0.70147 0.91446 0.73106 0.0
C739 C 0.82653 0.59307 0.71735 0.0
C740 C 0.81709 0.61673 0.59766 0.0
C741 C 0.80911 0.59881 0.55562 0.0
C742 C 0.85857 0.57135 0.55717 0.0
C743 C 0.86475 0.58704 0.5979 0.0
C744 C 0.78858 0.62182 0.57645 0.0
C745 C 0.88519 0.56487 0.57791 0.0
C746 C 0.6954 0.61849 0.69442 0.0
C747 C 0.79983 0.64451 0.61934 0.0
H748 H 0.63656 0.58999 0.82264 0.0
H749 H 0.69375 0.59565 0.75442 0.0
H750 H 0.62874 0.558 0.7827 0.0
H751 H 0.8002 0.63395 0.8086 0.0
H752 H 0.8779 0.55501 0.54218 0.0
H753 H 0.88711 0.58199 0.61355 0.0
H754 H 0.75076 0.64316 0.57641 0.0
H755 H 0.92278 0.54306 0.57842 0.0
Eu756 Eu 0.08661 0.03592 0.97626 0.0
C757 C 0.24577 0.16478 0.92069 0.0
N758 N 0.19392 0.1592 0.91357 0.0
C759 C 0.19261 0.25272 0.90286 0.0
C760 C 0.27154 0.21593 0.92089 0.0
C761 C 0.1695 0.20086 0.90273 0.0
C762 C 0.24322 0.26067 0.91275 0.0
C763 C 0.33019 0.12229 0.93073 0.0
C764 C 0.27491 0.11851 0.92536 0.0
C765 C 0.35486 0.17347 0.93272 0.0
C766 C 0.32557 0.22024 0.92783 0.0
Eu767 Eu 0.15494 0.0718 0.91704 0.0
N768 N 0.24956 0.06953 0.92362 0.0
C769 C 0.35944 0.07451 0.93305 0.0
C770 C 0.27894 0.02312 0.92393 0.0
C771 C 0.33403 0.02482 0.92899 0.0
H772 H 0.13403 0.19282 0.89293 0.0
H773 H 0.35692 0.98781 0.9296 0.0
H774 H 0.09509 0.902 0.97615 0.0
H775 H 0.91849 0.15968 1.0055 0.0
H776 H 0.26044 0.98464 0.92014 0.0
H777 H 0.40206 0.07566 0.93701 0.0
H778 H 0.01456 0.13679 0.99979 0.0
H779 H 0.1722 0.28606 0.89474 0.0
H780 H 0.3971 0.1772 0.93716 0.0
H781 H 0.34575 0.2593 0.92845 0.0
H782 H 0.03541 0.82187 0.98073 0.0
H783 H 0.26156 0.30065 0.91254 0.0
H784 H 0.84808 0.08929 0.99982 0.0
N785 N 0.03118 0.95818 0.97795 0.0
C786 C 0.97805 0.96591 0.98209 0.0
C787 C 0.01864 0.86213 0.9808 0.0
C788 C 0.9426 0.92163 0.98502 0.0
C789 C 0.05223 0.9074 0.97795 0.0
C790 C 0.96351 0.86934 0.98433 0.0
N791 N 0.99749 0.05839 0.98702 0.0
C792 C 0.98363 0.10741 0.99574 0.0
C793 C 0.90535 0.02759 0.99047 0.0
C794 C 0.96021 0.01804 0.98562 0.0
C795 C 0.88982 0.08018 0.99611 0.0
C796 C 0.92944 0.11998 0.9994 0.0
H797 H 0.93764 0.83457 0.98732 0.0
H798 H 0.86083 0.8969 0.99188 0.0
H799 H 0.82689 0.99007 0.99572 0.0
O800 O 0.07428 0.01727 1.01161 0.0
O801 O 0.06921 0.9887 0.94464 0.0
O802 O 0.06235 0.0543 0.9183 0.0
O803 O 0.15559 0.02653 0.99955 0.0
O804 O 0.05935 0.12115 0.96249 0.0
O805 O 0.08857 0.1349 0.92485 0.0
O806 O 0.14217 0.01812 0.88736 0.0
O807 O 0.19791 0.07861 0.9528 0.0
O808 O 0.13004 0.11462 0.97204 0.0
O809 O 0.18387 0.09283 0.88266 0.0
O810 O 0.16395 0.98311 0.92724 0.0
O811 O 0.15836 0.98339 0.96661 0.0
C812 C 0.04134 0.01137 0.92865 0.0
C813 C 0.13623 0.05373 1.03739 0.0
C814 C 0.0707 0.09116 1.06219 0.0
C815 C 0.09482 0.06525 0.0808 0.0
C816 C 0.1624 0.02889 1.05571 0.0
C817 C 0.14309 0.03726 0.07783 0.0
C818 C 0.10008 0.09542 1.04195 0.0
C819 C 0.05961 0.14983 0.943 0.0
C820 C 0.12487 0.0207 1.01725 0.0
C821 C 0.88798 0.9308 0.98946 0.0
C822 C 0.86898 0.98373 0.99164 0.0
C823 C 0.18173 0.11028 0.96968 0.0
C824 C 0.13798 0.05869 0.85 0.0
C825 C 0.12948 0.04239 0.80832 0.0
C826 C 0.09301 0.08531 0.80729 0.0
C827 C 0.10062 0.10059 0.84803 0.0
C828 C 0.1517 0.02872 0.83 0.0
C829 C 0.07846 0.11366 0.8269 0.0
C830 C 0.17433 0.96167 0.94735 0.0
C831 C 0.16519 0.04998 0.87252 0.0
H832 H 0.07198 0.05855 0.09616 0.0
H833 H 0.19217 0.99791 1.05274 0.0
H834 H 0.16028 0.01508 0.09192 0.0
H835 H 0.0808 0.11466 1.02752 0.0
H836 H 0.07516 0.09666 0.79115 0.0
H837 H 0.08925 0.12403 0.86285 0.0
H838 H 0.18003 0.99597 0.83126 0.0
H839 H 0.05005 0.14646 0.82569 0.0
Eu840 Eu 0.72385 0.32672 0.22233 0.0
C841 C 0.60574 0.48314 0.14839 0.0
N842 N 0.61988 0.43096 0.14467 0.0
C843 C 0.54492 0.41989 0.11919 0.0
C844 C 0.55903 0.50497 0.13835 0.0
C845 C 0.59111 0.39987 0.12971 0.0
C846 C 0.52819 0.47233 0.12387 0.0
C847 C 0.62578 0.57019 0.16554 0.0
C848 C 0.63899 0.51548 0.16159 0.0
C849 C 0.5785 0.59146 0.1562 0.0
C850 C 0.5452 0.55893 0.14263 0.0
Eu851 Eu 0.69835 0.39919 0.1634 0.0
N852 N 0.68403 0.49345 0.1707 0.0
C853 C 0.66033 0.60198 0.17884 0.0
C854 C 0.7174 0.52464 0.1839 0.0
C855 C 0.70637 0.57902 0.18806 0.0
H856 H 0.60349 0.35914 0.12588 0.0
H857 H 0.73275 0.60277 0.19889 0.0
H858 H 0.84567 0.34497 0.24561 0.0
H859 H 0.61866 0.13424 0.20105 0.0
H860 H 0.75009 0.50678 0.19293 0.0
H861 H 0.65152 0.64402 0.1823 0.0
H862 H 0.63331 0.23002 0.19872 0.0
H863 H 0.5222 0.39481 0.10747 0.0
H864 H 0.56757 0.63318 0.15921 0.0
H865 H 0.5092 0.57609 0.13525 0.0
H866 H 0.92378 0.2908 0.2571 0.0
H867 H 0.49219 0.48763 0.11578 0.0
H868 H 0.68549 0.07651 0.21979 0.0
N869 N 0.79835 0.2774 0.2354 0.0
C870 C 0.79413 0.22283 0.23442 0.0
C871 C 0.88785 0.27111 0.25057 0.0
C872 C 0.83685 0.19002 0.24197 0.0
C873 C 0.84396 0.30183 0.24359 0.0
C874 C 0.88438 0.21484 0.2497 0.0
N875 N 0.70776 0.23165 0.21714 0.0
C876 C 0.66322 0.2079 0.20742 0.0
C877 C 0.74042 0.14282 0.22668 0.0
C878 C 0.74696 0.19953 0.22599 0.0
C879 C 0.69283 0.1196 0.21855 0.0
C880 C 0.65478 0.15211 0.20829 0.0
H881 H 0.918 0.19096 0.25556 0.0
H882 H 0.86185 0.10789 0.24873 0.0
H883 H 0.77462 0.06768 0.2368 0.0
O884 O 0.66687 0.35677 0.24783 0.0
O885 O 0.78261 0.3137 0.19431 0.0
O886 O 0.72239 0.30722 0.16628 0.0
O887 O 0.73848 0.3153 0.25843 0.0
O888 O 0.63614 0.32002 0.2091 0.0
O889 O 0.62762 0.34129 0.17064 0.0
O890 O 0.75447 0.43276 0.13775 0.0
O891 O 0.65491 0.43471 0.19636 0.0
O892 O 0.72275 0.41609 0.21999 0.0
O893 O 0.69996 0.37003 0.12774 0.0
O894 O 0.78307 0.42268 0.17728 0.0
O895 O 0.79245 0.38784 0.21398 0.0
C896 C 0.7665 0.2888 0.17626 0.0
C897 C 0.72102 0.39785 0.2757 0.0
C898 C 0.72987 0.43323 0.31311 0.0
C899 C 0.78563 0.44962 0.30877 0.0
C900 C 0.77048 0.42146 0.26947 0.0
C901 C 0.80148 0.4493 0.28531 0.0
C902 C 0.69695 0.41261 0.29585 0.0
C903 C 0.60711 0.32301 0.1901 0.0
C904 C 0.7014 0.34937 0.26405 0.0
C905 C 0.83015 0.1337 0.24242 0.0
C906 C 0.78126 0.11059 0.23549 0.0
C907 C 0.67777 0.44049 0.21671 0.0
C908 C 0.72673 0.43318 0.09855 0.0
C909 C 0.73713 0.44392 1.05625 0.0
C910 C 0.71585 0.49637 1.05885 0.0
C911 C 0.70299 0.48421 0.09946 0.0
C912 C 0.74325 0.41257 0.07676 0.0
C913 C 0.69782 0.51535 0.07987 0.0
C914 C 0.81019 0.41814 0.19667 0.0
C915 C 0.7365 0.40409 0.12067 0.0
H916 H 0.84128 0.45033 0.34437 0.0
H917 H 0.78827 0.41361 0.25317 0.0
H918 H 0.8416 0.46148 0.27993 0.0
H919 H 0.65754 0.39579 0.30006 0.0
H920 H 0.71459 0.52453 1.04477 0.0
H921 H 0.6901 0.50107 0.11556 0.0
H922 H 0.76142 0.37302 0.07597 0.0
H923 H 0.68111 0.55553 0.08109 0.0
Eu924 Eu 0.39036 0.94589 0.41873 0.0
C925 C 0.48217 0.10413 0.49047 0.0
N926 N 0.51172 0.06768 0.47846 0.0
C927 C 0.58345 0.13266 0.47431 0.0
C928 C 0.50161 0.15725 0.494 0.0
C929 C 0.56231 0.08062 0.47105 0.0
C930 C 0.55287 0.17121 0.48573 0.0
C931 C 0.39978 0.12607 0.51085 0.0
C932 C 0.43241 0.08817 0.49946 0.0
C933 C 0.41824 0.17949 0.51358 0.0
C934 C 0.46958 0.19457 0.50575 0.0
Eu935 Eu 0.47472 0.97952 0.47608 0.0
N936 N 0.41657 0.03541 0.49765 0.0
C937 C 0.35074 0.10838 0.52024 0.0
C938 C 0.3739 0.01706 0.51011 0.0
C939 C 0.3388 0.05316 0.52067 0.0
H940 H 0.58713 0.0502 0.46338 0.0
H941 H 0.30423 0.0382 0.53016 0.0
H942 H 0.25825 0.93368 0.43154 0.0
H943 H 0.51702 0.81168 0.36868 0.0
H944 H 0.36992 0.97493 0.5137 0.0
H945 H 0.32438 0.13625 0.52898 0.0
H946 H 0.4933 0.89639 0.38878 0.0
H947 H 0.62367 0.14275 0.46836 0.0
H948 H 0.394 0.20888 0.52253 0.0
H949 H 0.48437 0.2351 0.50907 0.0
H950 H 0.18748 0.86253 0.43151 0.0
H951 H 0.56961 0.21123 0.48847 0.0
H952 H 0.45434 0.73305 0.36975 0.0
N953 N 0.31854 0.88232 0.41789 0.0
C954 C 0.32987 0.83326 0.40873 0.0
C955 C 0.22749 0.85363 0.42523 0.0
C956 C 0.29051 0.7917 0.40807 0.0
C957 C 0.26775 0.89365 0.4254 0.0
C958 C 0.23908 0.80221 0.4168 0.0
N959 N 0.41772 0.86581 0.40036 0.0
C960 C 0.46554 0.86233 0.38887 0.0
C961 C 0.39292 0.77557 0.38872 0.0
C962 C 0.38049 0.82508 0.39927 0.0
C963 C 0.44334 0.77033 0.37817 0.0
C964 C 0.47916 0.8144 0.37774 0.0
H965 H 0.20776 0.77132 0.41664 0.0
H966 H 0.27389 0.70885 0.39801 0.0
H967 H 0.36346 0.6948 0.38097 0.0
O968 O 0.4097 0.97677 0.38344 0.0
O969 O 0.43788 0.87184 0.43315 0.0
O970 O 0.49251 0.89251 0.46422 0.0
O971 O 0.32832 0.97128 0.39511 0.0
O972 O 0.46744 0.99955 0.41636 0.0
O973 O 0.51811 0.96019 0.44371 0.0
O974 O 0.48684 0.96151 0.51185 0.0
O975 O 0.43853 0.04914 0.45428 0.0
O976 O 0.35862 0.01671 0.44024 0.0
O977 O 0.55618 0.97286 0.48978 0.0
O978 O 0.40664 0.91884 0.47941 0.0
O979 O 0.34294 0.94662 0.45351 0.0
C980 C 0.47374 0.85781 0.44888 0.0
C981 C 0.33789 0.9697 0.35414 0.0
C982 C 0.32772 0.98588 0.31178 0.0
C983 C 0.27695 0.95994 0.31364 0.0
C984 C 0.29035 0.93835 0.35335 0.0
C985 C 0.25985 0.9349 0.33364 0.0
C986 C 0.35731 0.993 0.33288 0.0
C987 C 0.51477 0.99091 0.42579 0.0
C988 C 0.3594 0.98338 0.37784 0.0
C989 C 0.3034 0.74146 0.3984 0.0
C990 C 0.35442 0.73347 0.38868 0.0
C991 C 0.387 0.05657 0.4494 0.0
C992 C 0.56329 0.90951 0.5201 0.0
C993 C 0.54877 0.80161 0.53521 0.0
C994 C 0.60522 0.78091 0.55005 0.0
C995 C 0.64476 0.89218 0.55757 0.0
C996 C 0.53647 0.84846 0.51444 0.0
C997 C 0.64731 0.8251 0.563 0.0
C998 C 0.35616 0.92365 0.47331 0.0
C999 C 0.53909 0.95886 0.50996 0.0
H1000 H 0.24888 0.95932 0.2996 0.0
H1001 H 0.27425 0.91891 0.36852 0.0
H1002 H 0.22141 0.91375 0.33404 0.0
H1003 H 0.39414 0.01686 0.33291 0.0
H1004 H 0.60819 0.73864 0.55459 0.0
H1005 H 0.66988 0.92132 0.56682 0.0
H1006 H 0.50158 0.84453 0.50356 0.0
H1007 H 0.67687 0.81017 0.5749 0.0
Eu1008 Eu 0.22499 0.38892 0.46069 0.0
C1009 C 0.3153 0.21595 0.39928 0.0
N1010 N 0.31787 0.27094 0.39834 0.0
C1011 C 0.41147 0.26674 0.38782 0.0
C1012 C 0.36204 0.18459 0.39626 0.0
C1013 C 0.3644 0.29618 0.39132 0.0
C1014 C 0.41041 0.21076 0.39055 0.0
C1015 C 0.26186 0.13384 0.40411 0.0
C1016 C 0.2654 0.19047 0.40215 0.0
C1017 C 0.30853 0.10314 0.40205 0.0
C1018 C 0.3584 0.12804 0.39771 0.0
Eu1019 Eu 0.23432 0.31556 0.40308 0.0
N1020 N 0.22046 0.22113 0.4038 0.0
C1021 C 0.21167 0.10966 0.40872 0.0
C1022 C 0.17085 0.19768 0.40698 0.0
C1023 C 0.16591 0.14182 0.41024 0.0
H1024 H 0.36555 0.33876 0.38741 0.0
H1025 H 0.12672 0.1235 0.41328 0.0
H1026 H 0.0955 0.36451 0.47863 0.0
H1027 H 0.32043 0.58826 0.45383 0.0
H1028 H 0.13512 0.22193 0.40731 0.0
H1029 H 0.20773 0.06622 0.41077 0.0
H1030 H 0.31713 0.48894 0.45876 0.0
H1031 H 0.44826 0.28713 0.3825 0.0
H1032 H 0.30606 0.06021 0.40425 0.0
H1033 H 0.39389 0.10329 0.3957 0.0
H1034 H 1.00711 0.40768 0.47637 0.0
H1035 H 0.44642 0.18787 0.38716 0.0
H1036 H 0.23599 0.63912 0.44878 0.0
N1037 N 0.13797 0.42894 0.46251 0.0
C1038 C 0.13649 0.48302 0.4581 0.0
C1039 C 0.04286 0.42896 0.47043 0.0
C1040 C 0.08711 0.51098 0.45781 0.0
C1041 C 0.09286 0.40349 0.47076 0.0
C1042 C 0.0397 0.48257 0.46321 0.0
N1043 N 0.23184 0.48404 0.45706 0.0
C1044 C 0.28012 0.51094 0.4568 0.0
C1045 C 0.18475 0.56805 0.45232 0.0
C1046 C 0.18474 0.51156 0.45574 0.0
C1047 C 0.23427 0.59567 0.45123 0.0
C1048 C 0.28206 0.5671 0.45397 0.0
H1049 H 1.00103 0.50256 0.46327 0.0
H1050 H 0.04924 0.58867 0.45273 0.0
H1051 H 0.13476 0.63856 0.4477 0.0
O1052 O 0.25291 0.43181 0.49146 0.0
O1053 O 0.22141 0.43846 0.42564 0.0
O1054 O 0.17123 0.37797 0.40783 0.0
O1055 O 0.21471 0.35479 0.49511 0.0
O1056 O 0.31232 0.38695 0.44868 0.0
O1057 O 0.3005 0.38071 0.40982 0.0
O1058 O 0.20505 0.2851 0.37102 0.0
O1059 O 0.23677 0.26376 0.435 0.0
O1060 O 0.28524 0.31609 0.45889 0.0
O1061 O 0.25436 0.35899 0.37151 0.0
O1062 O 0.14752 0.31943 0.41604 0.0
O1063 O 0.15876 0.32163 0.455 0.0
C1064 C 0.18878 0.42719 0.40832 0.0
C1065 C 0.21334 0.4121 0.52784 0.0
C1066 C 0.21851 0.42339 0.56994 0.0
C1067 C 0.16289 0.43469 0.56975 0.0
C1068 C 0.15867 0.42507 0.52867 0.0
C1069 C 0.13382 0.4364 0.54942 0.0
C1070 C 0.24364 0.41283 0.54843 0.0
C1071 C 0.32997 0.39432 0.42771 0.0
C1072 C 0.23786 0.39476 0.50581 0.0
C1073 C 0.08684 0.5668 0.45333 0.0
C1074 C 0.13555 0.59526 0.45057 0.0
C1075 C 0.27432 0.26762 0.45033 0.0
C1076 C 0.20396 0.33988 0.33724 0.0
C1077 C 0.20319 0.27258 0.30926 0.0
C1078 C 0.23477 0.30494 0.29458 0.0
C1079 C 0.23581 0.37408 0.32335 0.0
C1080 C 0.17497 0.29852 0.32651 0.0
C1081 C 0.24816 0.35787 0.30112 0.0
C1082 C 0.12915 0.30901 0.43682 0.0
C1083 C 0.22683 0.3246 0.35933 0.0
H1084 H 0.14095 0.44146 0.58543 0.0
H1085 H 0.13485 0.42555 0.51328 0.0
H1086 H 0.09125 0.44554 0.54981 0.0
H1087 H 0.28644 0.40534 0.54742 0.0
H1088 H 0.25674 0.28661 0.28079 0.0
H1089 H 0.25823 0.4075 0.33069 0.0
H1090 H 0.14848 0.27355 0.33701 0.0
H1091 H 0.27567 0.38197 0.29087 0.0
Eu1092 Eu 0.86774 0.95365 0.20911 0.0
C1093 C 0.03234 0.05811 0.13983 0.0
N1094 N 0.97773 0.06125 0.13911 0.0
C1095 C 0.98364 0.15612 0.13075 0.0
C1096 C 0.06475 0.10464 0.13623 0.0
C1097 C 0.95303 0.10908 0.13434 0.0
C1098 C 0.03975 0.1538 0.13183 0.0
C1099 C 0.1129 1.00423 0.14379 0.0
C1100 C 0.05605 1.00827 0.14396 0.0
C1101 C 0.145 0.05044 0.13996 0.0
C1102 C 0.12106 0.10058 0.13642 0.0
Eu1103 Eu 0.92904 0.98105 0.14711 0.0
N1104 N 0.02398 0.96367 0.14726 0.0
C1105 C 0.13611 0.95358 0.1468 0.0
C1106 C 0.04711 0.91372 0.14844 0.0
C1107 C 0.10306 0.90811 0.14895 0.0
H1108 H 0.90969 0.11096 0.13308 0.0
H1109 H 0.12067 0.86836 0.15033 0.0
H1110 H 0.89028 0.84087 0.23875 0.0
H1111 H 0.6719 0.03157 0.18054 0.0
H1112 H 0.02367 0.8773 0.14805 0.0
H1113 H 0.17944 0.94885 0.14659 0.0
H1114 H 0.76576 0.03869 0.19293 0.0
H1115 H 0.96395 0.19397 0.12705 0.0
H1116 H 0.18844 0.04759 0.13924 0.0
H1117 H 0.14641 0.13584 0.13337 0.0
H1118 H 0.84691 0.75181 0.24593 0.0
H1119 H 0.06397 0.18969 0.12897 0.0
H1120 H 0.62219 0.94504 0.18476 0.0
N1121 N 0.82514 0.8714 0.21989 0.0
C1122 C 0.77227 0.86506 0.2145 0.0
C1123 C 0.82581 0.78279 0.23656 0.0
C1124 C 0.74486 0.81575 0.21879 0.0
C1125 C 0.85116 0.83234 0.23179 0.0
C1126 C 0.7727 0.774 0.22959 0.0
N1127 N 0.77286 0.95575 0.20164 0.0
C1128 C 0.74624 1.00009 0.19385 0.0
C1129 C 0.69036 0.90306 0.19913 0.0
C1130 C 0.74524 0.90847 0.20513 0.0
C1131 C 0.66418 0.9476 0.18973 0.0
C1132 C 0.69218 0.99641 0.18725 0.0
H1133 H 0.75304 0.73561 0.23329 0.0
H1134 H 0.66897 0.77224 0.21549 0.0
H1135 H 0.62137 0.84856 0.19802 0.0
O1136 O 0.83543 0.99719 0.23883 0.0
O1137 O 0.83385 0.90662 0.17699 0.0
O1138 O 0.84083 0.9782 0.15443 0.0
O1139 O 0.89872 0.94202 0.24413 0.0
O1140 O 0.86403 0.04399 0.19692 0.0
O1141 O 0.86426 0.04255 0.15726 0.0
O1142 O 0.89909 0.93006 0.11932 0.0
O1143 O 0.95842 0.03272 0.17592 0.0
O1144 O 0.95931 0.9741 0.20574 0.0
O1145 O 0.93589 1.00717 0.11174 0.0
O1146 O 0.93816 0.89242 0.16064 0.0
O1147 O 0.92948 0.88832 0.20021 0.0
C1148 C 0.81965 0.93104 0.15788 0.0
C1149 C 0.84383 0.9615 0.27697 0.0
C1150 C 0.83071 0.97639 0.31877 0.0
C1151 C 0.80693 0.92445 0.31986 0.0
C1152 C 0.81575 0.91236 0.27914 0.0
C1153 C 0.79868 0.89356 0.30034 0.0
C1154 C 0.85081 0.9943 0.29702 0.0
C1155 C 0.85572 0.06785 0.17681 0.0
C1156 C 0.86702 0.97644 0.25398 0.0
C1157 C 0.69052 0.80999 0.21254 0.0
C1158 C 0.66339 0.85348 0.20265 0.0
C1159 C 0.98204 0.0139 0.19395 0.0
C1160 C 0.85797 0.98554 0.09148 0.0
C1161 C 0.85129 0.02584 1.05515 0.0
C1162 C 0.80766 0.0577 1.06214 0.0
C1163 C 0.82287 0.02483 0.10034 0.0
C1164 C 0.85923 0.97851 0.06803 0.0
C1165 C 0.79335 0.05718 0.0853 0.0
C1166 C 0.94375 0.86634 0.18046 0.0
C1167 C 0.90557 0.96807 0.10428 0.0
H1168 H 0.79358 0.90768 0.33602 0.0
H1169 H 0.80731 0.88784 0.26444 0.0
H1170 H 0.77864 0.85455 0.30167 0.0
H1171 H 0.87086 0.03331 0.29563 0.0
H1172 H 0.79309 0.08988 1.05132 0.0
H1173 H 0.82027 0.03247 0.11839 0.0
H1174 H 0.88519 0.94698 1.06164 0.0
H1175 H 0.76511 0.08642 0.09185 0.0
Eu1176 Eu 0.32007 0.63247 0.95883 0.0
C1177 C 0.2297 0.80339 0.88905 0.0
N1178 N 0.22073 0.74973 0.89197 0.0
C1179 C 0.12608 0.76178 0.88618 0.0
C1180 C 0.18639 0.83916 0.88626 0.0
C1181 C 0.17055 0.72805 0.88892 0.0
C1182 C 0.13388 0.81781 0.88553 0.0
C1183 C 0.29308 0.87629 0.88144 0.0
C1184 C 0.28229 0.82134 0.88624 0.0
C1185 C 0.25032 0.91315 0.88086 0.0
C1186 C 0.19702 0.89437 0.88292 0.0
Eu1187 Eu 0.29696 0.69532 0.8969 0.0
N1188 N 0.32202 0.78399 0.88547 0.0
C1189 C 0.34575 0.89157 0.87548 0.0
C1190 C 0.37184 0.79765 0.87723 0.0
C1191 C 0.38466 0.85175 0.87241 0.0
H1192 H 0.16523 0.68468 0.88855 0.0
H1193 H 0.42452 0.86269 0.8663 0.0
H1194 H 0.44103 0.66324 0.98282 0.0
H1195 H 0.2302 0.43141 0.94782 0.0
H1196 H 0.402 0.76692 0.87474 0.0
H1197 H 0.35594 0.93339 0.87178 0.0
H1198 H 0.23018 0.53014 0.95328 0.0
H1199 H 0.08607 0.74461 0.8842 0.0
H1200 H 0.25774 0.95562 0.87734 0.0
H1201 H 0.16415 0.92213 0.88077 0.0
H1202 H 0.52789 0.61899 0.98986 0.0
H1203 H 0.0995 0.84392 0.88325 0.0
H1204 H 0.31589 0.3813 0.94981 0.0
N1205 N 0.40407 0.59303 0.96839 0.0
C1206 C 0.40808 0.53881 0.9651 0.0
C1207 C 0.49474 0.59607 0.98261 0.0
C1208 C 0.45684 0.51164 0.96923 0.0
C1209 C 0.44551 0.62114 0.97832 0.0
C1210 C 0.50086 0.54134 0.97755 0.0
N1211 N 0.31534 0.53682 0.95654 0.0
C1212 C 0.26797 0.50916 0.95348 0.0
C1213 C 0.3641 0.45305 0.95663 0.0
C1214 C 0.36226 0.50973 0.95915 0.0
C1215 C 0.31618 0.42486 0.9519 0.0
C1216 C 0.26776 0.45299 0.95071 0.0
H1217 H 0.539 0.52199 0.98095 0.0
H1218 H 0.49685 0.4341 0.96856 0.0
H1219 H 0.41562 0.38281 0.95734 0.0
O1220 O 0.26684 0.60962 0.98788 0.0
O1221 O 0.33463 0.58182 0.92526 0.0
O1222 O 0.37088 0.64809 0.90397 0.0
O1223 O 0.33516 0.66032 0.99379 0.0
O1224 O 0.23213 0.62881 0.94561 0.0
O1225 O 0.24627 0.62221 0.90703 0.0
O1226 O 0.29175 0.70487 0.86087 0.0
O1227 O 0.24282 0.72004 0.92545 0.0
O1228 O 0.30288 0.72368 0.95432 0.0
O1229 O 0.28077 0.62471 0.87501 0.0
O1230 O 0.37994 0.72331 0.91208 0.0
O1231 O 0.39183 0.68889 0.94891 0.0
C1232 C 0.36409 0.59661 0.90728 0.0
C1233 C 0.30526 0.60813 1.02569 0.0
C1234 C 0.28889 0.59644 0.06752 0.0
C1235 C 0.33168 0.55937 0.06772 0.0
C1236 C 0.34734 0.57103 1.02713 0.0
C1237 C 0.36054 0.5473 1.04792 0.0
C1238 C 0.27634 0.62127 1.04605 0.0
C1239 C 0.2153 0.61563 0.9249 0.0
C1240 C 0.2946 0.63541 1.00328 0.0
C1241 C 0.45955 0.4555 0.96576 0.0
C1242 C 0.41327 0.42627 0.95943 0.0
C1243 C 0.26171 0.74443 0.94333 0.0
C1244 C 0.31478 0.6319 0.83718 0.0
C1245 C 0.33442 0.69258 0.80762 0.0
C1246 C 0.30645 0.66018 0.79199 0.0
C1247 C 0.28491 0.59823 0.82257 0.0
C1248 C 0.35247 0.6674 0.82735 0.0
C1249 C 0.28281 0.61131 0.79937 0.0
C1250 C 0.40827 0.71914 0.93139 0.0
C1251 C 0.28508 0.65349 0.85664 0.0
H1252 H 0.34256 0.53837 0.08321 0.0
H1253 H 0.37052 0.56068 1.01213 0.0
H1254 H 0.39334 0.51882 1.04867 0.0
H1255 H 0.24517 0.65145 1.04509 0.0
H1256 H 0.29417 0.67812 0.77626 0.0
H1257 H 0.25716 0.56809 0.82938 0.0
H1258 H 0.37691 0.69162 0.83888 0.0
H1259 H 0.25679 0.58817 0.78824 0.0
Eu1260 Eu 0.55331 0.05722 0.65216 0.0
C1261 C 0.69072 0.18842 0.72421 0.0
N1262 N 0.70408 0.14067 0.71425 0.0
C1263 C 0.79576 0.1709 0.71013 0.0
C1264 C 0.72971 0.22967 0.72724 0.0
C1265 C 0.75603 0.13077 0.70785 0.0
C1266 C 0.78247 0.22074 0.71968 0.0
C1267 C 0.62453 0.24257 0.74436 0.0
C1268 C 0.63858 0.19502 0.73265 0.0
C1269 C 0.66295 0.28427 0.74681 0.0
C1270 C 0.71532 0.27782 0.73826 0.0
Eu1271 Eu 0.63373 0.07598 0.71161 0.0
N1272 N 0.60174 0.15436 0.72968 0.0
C1273 C 0.57232 0.24655 0.75337 0.0
C1274 C 0.5519 0.15655 0.73953 0.0
C1275 C 0.53608 0.20314 0.75115 0.0
H1276 H 0.76726 0.09158 0.70134 0.0
H1277 H 0.49613 0.20544 0.75851 0.0
H1278 H 0.41913 0.06322 0.65608 0.0
H1279 H 0.67912 0.90597 0.61026 0.0
H1280 H 0.52428 0.12262 0.73792 0.0
H1281 H 0.55989 0.28256 0.76238 0.0
H1282 H 0.65851 0.99524 0.62703 0.0
H1283 H 0.83678 0.16309 0.70484 0.0
H1284 H 0.65281 0.32137 0.75556 0.0
H1285 H 0.74481 0.30984 0.74071 0.0
H1286 H 0.33963 1.00633 0.64651 0.0
H1287 H 0.81354 0.2515 0.72168 0.0
H1288 H 0.60636 0.8371 0.60637 0.0
N1289 N 0.47547 1.00475 0.64495 0.0
C1290 C 0.48323 0.9554 0.63542 0.0
C1291 C 0.37979 0.99124 0.64365 0.0
C1292 C 0.43919 0.92092 0.63045 0.0
C1293 C 0.42477 0.02335 0.64896 0.0
C1294 C 0.38701 0.93955 0.63462 0.0
N1295 N 0.57647 0.97557 0.63356 0.0
C1296 C 0.62688 0.96544 0.62518 0.0
C1297 C 0.54464 0.88934 0.61974 0.0
C1298 C 0.53521 0.94011 0.6298 0.0
C1299 C 0.59736 0.87638 0.61344 0.0
C1300 C 0.63849 0.91504 0.6157 0.0
H1301 H 0.35213 0.91458 0.63073 0.0
H1302 H 0.41522 0.84229 0.6174 0.0
H1303 H 0.50777 0.81422 0.60842 0.0
O1304 O 0.58456 0.08947 0.61997 0.0
O1305 O 0.59284 0.9801 0.66793 0.0
O1306 O 0.66519 1.0045 0.69104 0.0
O1307 O 0.50157 0.10225 0.62938 0.0
O1308 O 0.62544 0.1097 0.65856 0.0
O1309 O 0.68827 0.06867 0.67893 0.0
O1310 O 0.60942 0.03836 0.74453 0.0
O1311 O 0.59156 0.1527 0.69591 0.0
O1312 O 0.5195 0.12482 0.67402 0.0
O1313 O 0.69247 0.05648 0.73838 0.0
O1314 O 0.55702 0.02037 0.71 0.0
O1315 O 0.50376 0.06259 0.68383 0.0
C1316 C 0.63905 0.9688 0.67834 0.0
C1317 C 0.51765 0.08599 0.59141 0.0
C1318 C 0.49834 1.00538 0.56926 0.0
C1319 C 0.45326 0.03099 0.55996 0.0
C1320 C 0.47396 0.11209 0.58131 0.0
C1321 C 0.44199 0.0846 0.56557 0.0
C1322 C 0.53159 0.03398 0.58426 0.0
C1323 C 0.67351 0.09011 0.65926 0.0
C1324 C 0.53742 0.10595 0.61326 0.0
C1325 C 0.44853 0.86957 0.6211 0.0
C1326 C 0.50122 0.8536 0.61597 0.0
C1327 C 0.5466 0.16355 0.68448 0.0
C1328 C 0.6636 0.06126 0.77751 0.0
C1329 C 0.66862 0.05158 0.82 0.0
C1330 C 0.67893 0.10755 0.82118 0.0
C1331 C 0.67633 0.1162 0.78017 0.0
C1332 C 0.65984 0.02849 0.79775 0.0
C1333 C 0.68298 0.13914 0.8016 0.0
C1334 C 0.50951 0.02767 0.70022 0.0
C1335 C 0.65747 0.03957 0.7535 0.0
H1336 H 0.42644 1.00911 0.54881 0.0
H1337 H 0.46206 0.15198 0.58694 0.0
H1338 H 0.40659 0.10395 0.55896 0.0
H1339 H 0.56547 0.01378 0.59187 0.0
H1340 H 0.68418 0.12742 0.83747 0.0
H1341 H 0.68224 0.14171 0.76556 0.0
H1342 H 0.65166 0.9856 0.7961 0.0
H1343 H 0.69206 0.18193 0.80303 0.0
C1344 C 0.30274 0.18056 0.34498 0.0
C1345 C 0.29229 0.12199 0.34673 0.0
C1346 C 0.27498 0.2234 0.33148 0.0
C1347 C 0.22654 0.22121 0.31668 0.0
H1348 H 0.33824 0.19466 0.35368 0.0
H1349 H 0.2942 0.26275 0.33299 0.0
S1350 S 0.11163 0.09336 0.34451 0.0
N1351 N 0.19176 0.05546 0.34773 0.0
N1352 N 0.13089 0.16354 0.32239 0.0
C1353 C 0.19692 0.17191 0.31376 0.0
C1354 C 0.24583 0.09094 0.33354 0.0
C1355 C 0.47316 0.51225 0.54473 0.0
C1356 C 0.4322 0.55074 0.54653 0.0
C1357 C 0.52618 0.52593 0.54981 0.0
C1358 C 0.54205 0.57993 0.55376 0.0
H1359 H 0.46327 0.46998 0.54186 0.0
H1360 H 0.55545 0.49378 0.55033 0.0
S1361 S 0.45312 0.69845 0.55572 0.0
N1362 N 0.41188 0.6466 0.55141 0.0
N1363 N 0.51445 0.67318 0.55649 0.0
C1364 C 0.50295 0.62 0.55317 0.0
C1365 C 0.44758 0.60544 0.55007 0.0
C1366 C 0.32958 0.84168 0.82146 0.0
C1367 C 0.27457 0.84933 0.82687 0.0
C1368 C 0.34871 0.79122 0.8145 0.0
C1369 C 0.31322 0.74733 0.81182 0.0
H1370 H 0.35738 0.8757 0.82075 0.0
H1371 H 0.39114 0.78683 0.81058 0.0
S1372 S 0.16803 0.74337 0.82813 0.0
N1373 N 0.18808 0.80565 0.83393 0.0
N1374 N 0.22156 0.7129 0.81777 0.0
C1375 C 0.25895 0.7535 0.81868 0.0
C1376 C 0.24082 0.80345 0.82761 0.0
C1377 C 0.95498 0.30846 1.03732 0.0
C1378 C 1.0004 0.3244 1.02439 0.0
C1379 C 0.93693 0.34036 1.05643 0.0
C1380 C 0.96895 0.38168 0.06748 0.0
H1381 H 0.9308 0.2745 1.03157 0.0
H1382 H 0.89733 0.33097 0.06322 0.0
S1383 S 0.15091 0.3921 1.05865 0.0
N1384 N 0.11786 0.35433 1.02962 0.0
N1385 N 0.0766 0.40558 0.07312 0.0
C1386 C 0.02244 0.38629 1.06005 0.0
C1387 C 0.03452 0.35623 1.03485 0.0
C1388 C 0.65305 0.76403 0.80956 0.0
C1389 C 0.69956 0.79657 0.80949 0.0
C1390 C 0.65596 0.70893 0.81516 0.0
C1391 C 0.70505 0.68529 0.82231 0.0
H1392 H 0.61445 0.78123 0.80516 0.0
H1393 H 0.61988 0.68464 0.81281 0.0
S1394 S 0.83481 0.75856 0.83077 0.0
N1395 N 0.79538 0.80255 0.81804 0.0
N1396 N 0.79662 0.70456 0.83517 0.0
C1397 C 0.74931 0.72051 0.82574 0.0
C1398 C 0.74824 0.77395 0.817 0.0
C1399 C 0.7064 0.35906 0.33754 0.0
C1400 C 0.71932 0.41456 0.33661 0.0
C1401 C 0.74355 0.3199 0.3303 0.0
C1402 C 0.79854 0.33187 0.32609 0.0
H1403 H 0.66438 0.34736 0.33736 0.0
H1404 H 0.72843 0.27906 0.32771 0.0
S1405 S 0.85842 0.50578 0.32123 0.0
N1406 N 0.78472 0.49676 0.3412 0.0
N1407 N 0.86687 0.41775 0.31847 0.0
C1408 C 0.81733 0.38309 0.33235 0.0
C1409 C 0.76708 0.43045 0.34576 0.0
C1410 C 0.94606 0.0196 1.0425 0.0
C1411 C 0.90357 0.05338 1.04916 0.0
C1412 C 0.99848 0.03089 1.04908 0.0
C1413 C 0.01291 0.08085 1.05865 0.0
H1414 H 0.93806 0.98039 1.03495 0.0
H1415 H 0.02813 0.99953 1.04695 0.0
S1416 S 0.92155 0.19271 0.07266 0.0
N1417 N 0.88142 0.14403 0.06318 0.0
N1418 N 0.98341 0.16907 0.07083 0.0
C1419 C 0.97298 0.11918 1.06215 0.0
C1420 C 0.9178 0.10539 1.0578 0.0
C1421 C 0.4724 0.85302 0.5577 0.0
C1422 C 0.5236 0.83052 0.554 0.0
C1423 C 0.46614 0.90832 0.56453 0.0
C1424 C 0.50906 0.94776 0.56495 0.0
H1425 H 0.43689 0.8278 0.55551 0.0
H1426 H 0.42559 0.9213 0.56843 0.0
S1427 S 0.65565 0.93405 0.52173 0.0
N1428 N 0.62431 0.85584 0.52705 0.0
N1429 N 0.60415 0.9687 0.54478 0.0
C1430 C 0.56046 0.93169 0.55822 0.0
C1431 C 0.56389 0.86516 0.55161 0.0
C1432 C 0.19302 0.15753 1.00752 0.0
C1433 C 0.21409 0.1212 0.99117 0.0
C1434 C 0.21538 0.16337 1.0295 0.0
C1435 C 0.25993 0.13297 1.03656 0.0
H1436 H 0.15782 0.18124 1.00346 0.0
H1437 H 0.19774 0.1924 1.04107 0.0
S1438 S 0.33344 0.03462 1.00055 0.0
N1439 N 0.28441 0.05575 0.98384 0.0
N1440 N 0.3265 0.0672 1.02496 0.0
C1441 C 0.28254 0.09752 1.02036 0.0
C1442 C 0.25982 0.09162 0.9978 0.0
C1443 C 0.6932 0.53923 0.26624 0.0
C1444 C 0.64912 0.52772 0.28083 0.0
C1445 C 0.69881 0.5148 0.24459 0.0
C1446 C 0.66015 0.47809 0.23573 0.0
H1447 H 0.72482 0.56655 0.27192 0.0
H1448 H 0.73564 0.52275 0.23514 0.0
S1449 S 0.53576 0.43468 0.26646 0.0
N1450 N 0.5649 0.47749 0.28435 0.0
N1451 N 0.57511 0.4322 0.24368 0.0
C1452 C 0.61474 0.46751 0.24977 0.0
C1453 C 0.60937 0.49196 0.27217 0.0
C1454 C 0.30511 0.86802 0.5304 0.0
C1455 C 0.25991 0.89961 0.53555 0.0
C1456 C 0.33198 0.87225 0.50917 0.0
C1457 C 0.31579 0.90895 0.49188 0.0
H1458 H 0.31971 0.83932 0.54285 0.0
H1459 H 0.36769 0.84806 0.5067 0.0
S1460 S 0.1984 1.00017 0.49657 0.0
N1461 N 0.19829 0.96717 0.52112 0.0
N1462 N 0.24989 0.97672 0.48175 0.0
C1463 C 0.26938 0.93952 0.49655 0.0
C1464 C 0.24158 0.93472 0.5182 0.0
C1465 C 0.87774 0.58261 0.75503 0.0
C1466 C 0.84895 0.5588 0.73663 0.0
C1467 C 0.87391 0.56207 0.77784 0.0
C1468 C 0.8433 0.51498 0.78314 0.0
H1469 H 0.89846 0.62087 0.75232 0.0
H1470 H 0.89118 0.58581 0.79154 0.0
S1471 S 0.77618 0.42736 0.73988 0.0
N1472 N 0.79763 0.48011 0.72503 0.0
N1473 N 0.79697 0.43762 0.76623 0.0
C1474 C 0.82289 0.4861 0.76405 0.0
C1475 C 0.82411 0.50869 0.74135 0.0
C1476 C 0.7548 0.93597 0.12486 0.0
C1477 C 0.79154 0.90498 0.13777 0.0
C1478 C 0.73915 0.92144 0.10241 0.0
C1479 C 0.75934 0.8749 0.09166 0.0
H1480 H 0.7399 0.97356 0.13182 0.0
H1481 H 0.71138 0.94721 0.09334 0.0
S1482 S 0.85424 0.77782 0.11814 0.0
N1483 N 0.84516 0.8237 0.13819 0.0
N1484 N 0.81664 0.79654 0.09637 0.0
C1485 C 0.79419 0.84225 0.10478 0.0
C1486 C 0.80966 0.85687 0.12771 0.0
C1487 C 0.33719 0.51787 0.88111 0.0
C1488 C 0.37232 0.56128 0.88647 0.0
C1489 C 0.33901 0.49195 0.85953 0.0
C1490 C 0.37569 0.50828 0.84219 0.0
H1491 H 0.30669 0.50519 0.89331 0.0
H1492 H 0.31102 0.45896 0.85627 0.0
S1493 S 0.47987 0.61587 0.84807 0.0
N1494 N 0.44763 0.61649 0.87275 0.0
N1495 N 0.45047 0.568 0.83276 0.0
C1496 C 0.41206 0.55018 0.84761 0.0
C1497 C 0.41052 0.57641 0.86951 0.0
C1498 C 0.7184 0.13427 0.59934 0.0
C1499 C 0.76018 0.09895 0.59357 0.0
C1500 C 0.6933 0.13229 0.62092 0.0
C1501 C 0.70757 0.09408 0.63784 0.0
H1502 H 0.70615 0.16508 0.58731 0.0
H1503 H 0.66195 0.16138 0.62431 0.0
S1504 S 0.81672 0.9937 0.6316 0.0
N1505 N 0.8169 0.02606 0.6069 0.0
N1506 N 0.76855 0.02124 0.64713 0.0
C1507 C 0.75014 0.05909 0.63241 0.0
C1508 C 0.7763 0.06154 0.61039 0.0
C1509 C 0.15226 0.43811 0.36794 0.0
C1510 C 0.18522 0.45868 0.38584 0.0
C1511 C 0.15461 0.45856 0.34529 0.0
C1512 C 0.19051 0.50058 0.3391 0.0
H1513 H 0.12616 0.40347 0.37106 0.0
H1514 H 0.13129 0.43824 0.33221 0.0
S1515 S 0.26944 0.58286 0.38041 0.0
N1516 N 0.24358 0.53376 0.39635 0.0
N1517 N 0.24881 0.57133 0.35413 0.0
C1518 C 0.21833 0.52602 0.35732 0.0
C1519 C 0.21559 0.50544 0.38046 0.0
C1520 C 0.78909 0.56002 0.51566 0.0
C1521 C 0.78135 0.60161 0.53215 0.0
C1522 C 0.76516 0.56093 0.49372 0.0
C1523 C 0.72917 0.60177 0.48729 0.0
H1524 H 0.81243 0.52471 0.51986 0.0
H1525 H 0.7714 0.52681 0.48249 0.0
S1526 S 0.70108 0.72496 0.52109 0.0
N1527 N 0.74077 0.68965 0.53791 0.0
N1528 N 0.69212 0.68834 0.49791 0.0
C1529 C 0.72274 0.64471 0.50289 0.0
C1530 C 0.74894 0.64509 0.52493 0.0
C1531 C 0.11909 0.96172 0.78208 0.0
C1532 C 0.14195 0.0129 0.78639 0.0
C1533 C 0.12449 0.93626 0.76062 0.0
C1534 C 0.15303 0.96046 0.74211 0.0
H1535 H 0.09636 0.9412 0.79538 0.0
H1536 H 0.10627 0.89653 0.75871 0.0
S1537 S 0.21556 0.09744 0.74393 0.0
N1538 N 0.19075 0.08897 0.76986 0.0
N1539 N 0.20142 0.04122 0.72985 0.0
C1540 C 0.17474 0.01249 0.7461 0.0
C1541 C 0.169 0.03855 0.76802 0.0
C1542 C 0.8023 0.39339 1.02961 0.0
C1543 C 0.75693 0.42664 1.03248 0.0
C1544 C 0.83072 0.39093 1.00866 0.0
C1545 C 0.81429 0.41976 0.98897 0.0
H1546 H 0.81781 0.37076 1.04381 0.0
H1547 H 0.86798 0.36845 1.00831 0.0
S1548 S 0.68501 0.49308 0.98431 0.0
N1549 N 0.68703 0.47379 1.01125 0.0
N1550 N 0.74121 0.4711 0.9726 0.0
C1551 C 0.76406 0.44548 0.99055 0.0
C1552 C 0.7352 0.4482 1.01197 0.0
C1553 C 0.37742 0.08113 0.26259 0.0
C1554 C 0.35178 0.05986 0.24277 0.0
C1555 C 0.37404 0.05538 0.28439 0.0
C1556 C 0.34435 1.00695 0.28782 0.0
H1557 H 0.39806 0.11988 0.26161 0.0
H1558 H 0.39179 0.07578 0.2989 0.0
S1559 S 0.28577 0.92477 0.24033 0.0
N1560 N 0.30527 0.98141 0.22774 0.0
N1561 N 0.30286 0.93135 0.26733 0.0
C1562 C 0.32525 0.98178 0.26744 0.0
C1563 C 0.32762 1.00858 0.24546 0.0
C1564 C 0.25711 0.45555 0.63259 0.0
C1565 C 0.30181 0.42263 0.63682 0.0
C1566 C 0.2313 0.45571 0.61111 0.0
C1567 C 0.24807 0.42232 0.59272 0.0
H1568 H 0.24354 0.48344 0.64557 0.0
H1569 H 0.19897 0.48418 0.60878 0.0
S1570 S 0.36073 0.32439 0.59586 0.0
N1571 N 0.36031 0.35351 0.62113 0.0
N1572 N 0.31091 0.35211 0.58158 0.0
C1573 C 0.29166 0.38767 0.59718 0.0
C1574 C 0.31836 0.38807 0.61893 0.0
C1575 C 0.87905 0.03355 0.34958 0.0
C1576 C 0.83168 1.00937 0.34077 0.0
C1577 C 0.88047 0.0567 0.37184 0.0
C1578 C 0.83502 0.05617 0.38665 0.0
H1579 H 0.91563 0.03354 0.33946 0.0
H1580 H 0.91783 0.07512 0.37759 0.0
S1581 S 0.69962 1.00332 0.37083 0.0
N1582 N 0.73668 0.99201 0.34801 0.0
N1583 N 0.7408 0.03139 0.38952 0.0
C1584 C 0.78762 0.03289 0.37773 0.0
C1585 C 0.78558 0.01097 0.35498 0.0
C1586 C 0.25484 0.60318 0.13231 0.0
C1587 C 0.19826 0.60732 0.13298 0.0
C1588 C 0.28373 0.60316 0.11133 0.0
C1589 C 0.25778 0.60599 0.08974 0.0
H1590 H 0.27691 0.59785 0.14803 0.0
H1591 H 0.3271 0.59935 0.11216 0.0
S1592 S 0.11028 0.62183 0.08169 0.0
N1593 N 0.11803 0.62044 0.10959 0.0
N1594 N 0.1714 0.61553 0.07099 0.0
C1595 C 0.20151 0.61265 0.09027 0.0
C1596 C 0.17225 0.61445 0.11155 0.0
C1597 C 0.70684 0.03295 0.85972 0.0
C1598 C 0.6686 0.02019 0.84245 0.0
C1599 C 0.70668 1.0073 0.88138 0.0
C1600 C 0.66907 0.96622 0.88685 0.0
H1601 H 0.73833 0.06258 0.85634 0.0
H1602 H 0.73829 0.01751 0.89337 0.0
S1603 S 0.55774 0.9193 0.84895 0.0
N1604 N 0.58952 0.96579 0.83357 0.0
N1605 N 0.59043 0.91614 0.8734 0.0
C1606 C 0.62969 0.95409 0.87005 0.0
C1607 C 0.62934 0.98092 0.84815 0.0
C1608 C 0.4747 0.25499 0.21239 0.0
C1609 C 0.44125 0.25025 0.19297 0.0
C1610 C 0.52695 0.27911 0.21134 0.0
C1611 C 0.54973 0.29892 0.19071 0.0
H1612 H 0.46103 0.23891 0.22859 0.0
H1613 H 0.55006 0.28126 0.22695 0.0
S1614 S 0.47919 0.29633 0.13475 0.0
N1615 N 0.43426 0.27105 0.15267 0.0
N1616 N 0.5332 0.30949 0.15019 0.0
C1617 C 0.51658 0.29393 0.17121 0.0
C1618 C 0.46258 0.27152 0.17246 0.0
C1619 C 0.57344 0.73651 0.45089 0.0
C1620 C 0.54046 0.68969 0.44866 0.0
C1621 C 0.55185 0.78988 0.45123 0.0
C1622 C 0.49595 0.79992 0.44894 0.0
H1623 H 0.61671 0.73195 0.45211 0.0
H1624 H 0.57956 0.82379 0.45285 0.0
S1625 S 0.39102 0.69187 0.44511 0.0
N1626 N 0.44801 0.65788 0.4458 0.0
N1627 N 0.408 0.75663 0.44619 0.0
C1628 C 0.46252 0.75335 0.44718 0.0
C1629 C 0.48447 0.69903 0.44711 0.0
C1630 C 0.95369 0.7976 0.68796 0.0
C1631 C 0.94092 0.74562 0.69651 0.0
C1632 C 1.0075 0.81782 0.68739 0.0
C1633 C 0.05186 0.78669 0.69459 0.0
H1634 H 0.92161 0.82341 0.68203 0.0
H1635 H 0.01411 0.85896 0.68182 0.0
S1636 S 0.04116 0.64566 0.7163 0.0
N1637 N 0.97789 0.66256 0.71158 0.0
N1638 N 0.0783 0.69918 0.7094 0.0
C1639 C 0.03957 0.73421 0.70281 0.0
C1640 C 0.9846 0.71408 0.70394 0.0
C1641 C 0.98385 0.28137 0.96129 0.0
C1642 C 0.98542 0.31465 0.94163 0.0
C1643 C 1.00722 0.22891 0.96175 0.0
C1644 C 0.03015 0.20451 0.94215 0.0
H1645 H 0.96575 0.29661 0.97679 0.0
H1646 H 1.00785 0.20816 0.97784 0.0
S1647 S 0.04191 0.27219 0.88581 0.0
N1648 N 0.01655 0.31925 0.90247 0.0
N1649 N 0.04536 0.21745 0.90171 0.0
C1650 C 0.02781 0.23606 0.92206 0.0
C1651 C 0.00922 0.2913 0.92216 0.0
C1652 C 0.56392 0.72927 0.93827 0.0
C1653 C 0.57732 0.78193 0.93067 0.0
C1654 C 0.50975 0.70964 0.93847 0.0
C1655 C 0.46572 0.74199 0.93173 0.0
H1656 H 0.59572 0.70254 0.94374 0.0
H1657 H 0.50255 0.66811 0.94344 0.0
S1658 S 0.4783 0.8849 0.91258 0.0
N1659 N 0.54129 0.86654 0.91681 0.0
N1660 N 0.44047 0.8314 0.91879 0.0
C1661 C 0.47873 0.79511 0.92458 0.0
C1662 C 0.53395 0.81452 0.92371 0.0
C1663 C 0.5324 0.31866 0.6932 0.0
C1664 C 0.48243 0.33087 0.68314 0.0
C1665 C 0.55318 0.26532 0.69319 0.0
C1666 C 0.52405 0.2208 0.68411 0.0
H1667 H 0.55635 0.35074 0.70071 0.0
H1668 H 0.59296 0.25934 0.70003 0.0
S1669 S 0.38971 0.23119 0.65622 0.0
N1670 N 0.40448 0.294 0.6636 0.0
N1671 N 0.44112 0.19443 0.66469 0.0
C1672 C 0.47356 0.23286 0.67416 0.0
C1673 C 0.45342 0.28738 0.67349 0.0
C1674 C 0.03916 0.28279 0.41919 0.0
C1675 C 0.07197 0.28586 0.43885 0.0
C1676 C 0.98588 0.26208 0.41978 0.0
C1677 C 0.96104 0.24378 0.44015 0.0
H1678 H 0.05481 0.29619 0.40285 0.0
H1679 H 0.96421 0.25977 0.40381 0.0
S1680 S 0.02638 0.24669 0.49708 0.0
N1681 N 0.07469 0.26707 0.47955 0.0
N1682 N 0.97255 0.23652 0.4811 0.0
C1683 C 0.99241 0.24855 0.46014 0.0
C1684 C 0.04797 0.26735 0.45939 0.0
C1685 C 1.00077 0.72684 0.16008 0.0
C1686 C 0.01094 0.69824 0.18053 0.0
C1687 C 0.97842 0.77992 0.16007 0.0
C1688 C 0.96692 0.80852 0.18052 0.0
H1689 H 0.01103 0.70853 0.1439 0.0
H1690 H 0.97084 0.79886 0.14376 0.0
S1691 S 0.97859 0.74815 0.2385 0.0
N1692 N 0.99718 0.69905 0.22132 0.0
N1693 N 0.96719 0.80046 0.22179 0.0
C1694 C 0.97652 0.77935 0.2009 0.0
C1695 C 0.99538 0.72428 0.20078 0.0
C1696 C 0.25777 0.34582 0.17794 0.0
C1697 C 0.22717 0.29735 0.17661 0.0
C1698 C 0.2327 0.3972 0.18045 0.0
C1699 C 0.17591 0.40253 0.18197 0.0
H1700 H 0.30136 0.34387 0.17822 0.0
H1701 H 0.25813 0.43296 0.18155 0.0
S1702 S 0.07796 0.28742 0.18017 0.0
N1703 N 0.13707 0.25875 0.17662 0.0
N1704 N 0.09081 0.35277 0.18274 0.0
C1705 C 0.14536 0.35408 0.18049 0.0
C1706 C 0.17066 0.3025 0.17745 0.0
C1707 C 0.43165 0.38835 0.42743 0.0
C1708 C 0.38511 0.41937 0.4242 0.0
C1709 C 0.48382 0.4117 0.42657 0.0
C1710 C 0.49212 0.46774 0.42314 0.0
H1711 H 0.42782 0.34572 0.43102 0.0
H1712 H 0.51799 0.38572 0.42943 0.0
S1713 S 0.38491 0.56599 0.41044 0.0
N1714 N 0.35182 0.50825 0.41423 0.0
N1715 N 0.44925 0.55253 0.41408 0.0
C1716 C 0.44629 0.49869 0.41851 0.0
C1717 C 0.3931 0.47455 0.4188 0.0
C1718 C 0.22987 0.67797 0.68458 0.0
C1719 C 0.2497 0.72199 0.67163 0.0
C1720 C 0.25821 0.62852 0.68595 0.0
C1721 C 0.30766 0.62099 0.67445 0.0
H1722 H 0.19407 0.68299 0.69494 0.0
H1723 H 0.24196 0.59669 0.69665 0.0
S1724 S 0.36573 0.71848 0.63202 0.0
N1725 N 0.3151 0.75143 0.64359 0.0
N1726 N 0.3651 0.6583 0.64423 0.0
C1727 C 0.32293 0.6625 0.65883 0.0
C1728 C 0.295 0.71303 0.658 0.0
C1729 C 0.10648 0.5113 0.9103 0.0
C1730 C 0.05771 0.53972 0.91276 0.0
C1731 C 0.15699 0.53644 0.91382 0.0
C1732 C 0.16103 0.59059 0.92094 0.0
H1733 H 0.10542 0.4682 0.90696 0.0
H1734 H 0.19308 0.51254 0.91195 0.0
S1735 S 0.04704 0.68504 0.92706 0.0
N1736 N 0.01775 0.62721 0.91987 0.0
N1737 N 0.11236 0.6734 0.92804 0.0
C1738 C 0.11312 0.62052 0.92194 0.0
C1739 C 0.06159 0.59539 0.91746 0.0
C1740 C 0.76906 0.67651 0.9462 0.0
C1741 C 0.79717 0.72552 0.9501 0.0
C1742 C 0.79635 0.62624 0.94474 0.0
C1743 C 0.85316 0.62227 0.94715 0.0
H1744 H 0.72611 0.6773 0.94295 0.0
H1745 H 0.77263 0.59032 0.94103 0.0
S1746 S 0.94443 0.73865 0.95918 0.0
N1747 N 0.88439 0.76628 0.95741 0.0
N1748 N 0.93501 0.67328 0.95501 0.0
C1749 C 0.88089 0.67095 0.95206 0.0
C1750 C 0.85322 0.72188 0.95337 0.0
C1751 C 0.5948 0.62517 0.69443 0.0
C1752 C 0.64073 0.5925 0.695 0.0
C1753 C 0.54263 0.60312 0.69725 0.0
C1754 C 0.53373 0.54714 0.70036 0.0
H1755 H 0.59916 0.66831 0.69172 0.0
H1756 H 0.5086 0.63014 0.69622 0.0
S1757 S 0.64076 0.44532 0.70788 0.0
N1758 N 0.67417 0.50252 0.70329 0.0
N1759 N 0.5761 0.46046 0.70666 0.0
C1760 C 0.5794 0.51442 0.70251 0.0
C1761 C 0.63279 0.53722 0.70026 0.0
C1762 C 0.75261 0.31968 0.46867 0.0
C1763 C 0.75043 0.277 0.45279 0.0
C1764 C 0.73679 0.37446 0.4637 0.0
C1765 C 0.72697 0.39801 0.44152 0.0
H1766 H 0.7655 0.31045 0.48585 0.0
H1767 H 0.73325 0.40019 0.47853 0.0
S1768 S 0.7817 0.27579 0.37667 0.0
N1769 N 0.74638 0.24771 0.41214 0.0
N1770 N 0.77592 0.35845 0.38572 0.0
C1771 C 0.74218 0.36115 0.42281 0.0
C1772 C 0.73228 0.29109 0.43168 0.0
C1773 C 0.90124 0.43114 0.21523 0.0
C1774 C 0.86096 0.45129 0.20067 0.0
C1775 C 0.94958 0.45977 0.21943 0.0
C1776 C 0.96025 0.51075 0.20959 0.0
H1777 H 0.89752 0.39091 0.22214 0.0
H1778 H 0.98111 0.43943 0.22878 0.0
S1779 S 0.86953 0.58363 0.17029 0.0
N1780 N 0.83709 0.52646 0.17585 0.0
N1781 N 0.92524 0.58182 0.18557 0.0
C1782 C 0.91906 0.53343 0.19631 0.0
C1783 C 0.87048 0.50328 0.19122 0.0
C1784 C 0.7453 0.85581 0.67376 0.0
C1785 C 0.7143 0.80772 0.67377 0.0
C1786 C 0.72076 0.90736 0.67486 0.0
C1787 C 0.66407 0.91353 0.67529 0.0
H1788 H 0.78884 0.8536 0.67462 0.0
H1789 H 0.74666 0.94261 0.67627 0.0
S1790 S 0.56463 0.80034 0.67384 0.0
N1791 N 0.62361 0.76997 0.67329 0.0
N1792 N 0.57814 0.86586 0.67442 0.0
C1793 C 0.63284 0.86572 0.67399 0.0
C1794 C 0.65772 0.81332 0.67345 0.0
C1795 C 0.9227 0.9125 0.93052 0.0
C1796 C 0.87699 0.94545 0.92956 0.0
C1797 C 0.97516 0.93425 0.92834 0.0
C1798 C 0.98483 0.99029 0.92544 0.0
H1799 H 0.91803 0.86943 0.9334 0.0
H1800 H 0.00881 0.9069 0.92987 0.0
S1801 S 0.87872 0.09385 0.91948 0.0
N1802 N 0.84461 0.0366 0.92304 0.0
N1803 N 0.94325 0.07792 0.92036 0.0
C1804 C 0.93941 0.0236 0.9235 0.0
C1805 C 0.88561 1.00112 0.92529 0.0
C1806 C 0.78178 0.13481 0.16639 0.0
C1807 C 0.8333 0.1243 0.17569 0.0
C1808 C 0.7606 0.18805 0.16526 0.0
C1809 C 0.79076 0.23333 0.17276 0.0
H1810 H 0.75698 0.10142 0.16045 0.0
H1811 H 0.71976 0.19341 0.15928 0.0
S1812 S 0.93245 0.22872 0.19363 0.0
N1813 N 0.916 0.16454 0.18969 0.0
N1814 N 0.8786 0.26361 0.18655 0.0
C1815 C 0.84398 0.22325 0.18036 0.0
C1816 C 0.86459 0.16926 0.18209 0.0
C1817 C 0.61431 0.99706 0.42413 0.0
C1818 C 0.56464 0.02196 0.41974 0.0
C1819 C 0.6621 0.02724 0.42609 0.0
C1820 C 0.66342 0.08356 0.42283 0.0
H1821 H 0.61582 0.95399 0.42755 0.0
H1822 H 0.69859 1.00585 0.42996 0.0
S1823 S 0.54563 0.16867 0.41019 0.0
N1824 N 0.52001 0.10673 0.41143 0.0
N1825 N 0.61091 0.1632 0.41475 0.0
C1826 C 0.6148 0.10885 0.41716 0.0
C1827 C 0.56533 0.07808 0.41546 0.0
C1828 C 0.27783 0.16624 0.458 0.0
C1829 C 0.30568 0.21626 0.45555 0.0
C1830 C 0.30441 0.11559 0.457 0.0
C1831 C 0.36051 0.11163 0.45305 0.0
H1832 H 0.23431 0.16608 0.45959 0.0
H1833 H 0.2802 0.07902 0.45836 0.0
S1834 S 0.45249 0.22963 0.44516 0.0
N1835 N 0.3933 0.25759 0.44969 0.0
N1836 N 0.44256 0.16365 0.44676 0.0
C1837 C 0.38906 0.16134 0.45143 0.0
C1838 C 0.36201 0.21299 0.45292 0.0
C1839 C 0.04785 0.09138 0.19227 0.0
C1840 C 0.0367 0.0375 0.19906 0.0
C1841 C 0.10062 0.11264 0.19163 0.0
C1842 C 0.14488 0.08156 0.19823 0.0
H1843 H 0.01564 0.11683 0.18623 0.0
H1844 H 0.10686 0.15359 0.18556 0.0
S1845 S 0.13836 0.9407 0.22009 0.0
N1846 N 0.07499 0.95476 0.21403 0.0
N1847 N 0.17389 0.99589 0.21408 0.0
C1848 C 0.13434 0.02902 0.20665 0.0
C1849 C 0.08041 1.00676 0.20683 0.0
C1850 C 0.16547 0.86231 0.94146 0.0
C1851 C 0.19717 0.90648 0.94842 0.0
C1852 C 0.18578 0.8096 0.94179 0.0
C1853 C 0.23938 0.79892 0.94826 0.0
H1854 H 0.12467 0.86858 0.93551 0.0
H1855 H 0.15975 0.77707 0.93596 0.0
S1856 S 0.33759 0.90044 0.96977 0.0
N1857 N 0.28292 0.93581 0.96429 0.0
N1858 N 0.32267 0.83709 0.96315 0.0
C1859 C 0.27086 0.8425 0.95619 0.0
C1860 C 0.24942 0.89622 0.95658 0.0
C1861 C 0.40635 0.91602 0.69021 0.0
C1862 C 0.35875 0.93885 0.69895 0.0
C1863 C 0.45703 0.94195 0.69303 0.0
C1864 C 0.46195 0.99188 0.70446 0.0
H1865 H 0.40432 0.87834 0.68083 0.0
H1866 H 0.49195 0.92467 0.68487 0.0
S1867 S 0.35068 0.06705 0.73151 0.0
N1868 N 0.321 0.01246 0.72097 0.0
N1869 N 0.4152 0.06201 0.72503 0.0
C1870 C 0.41504 0.01391 0.71387 0.0
C1871 C 0.36385 0.98716 0.71148 0.0
loop_
_geom_bond_atom_site_label_1
_geom_bond_atom_site_label_2
_geom_bond_distance
_geom_bond_site_symmetry_2
_ccdc_geom_bond_type
Eu0 N29 2.600 . S
Eu0 N35 2.562 . S
Eu0 O44 2.462 . S
Eu0 O45 2.373 . S
Eu0 O47 2.432 . S
Eu0 O48 2.291 . S
Eu0 O52 2.335 . S
Eu0 O55 2.372 . S
Eu0 C64 2.787 . S
C1 N2 1.365 1_565 S
C1 C4 1.405 . S
C1 C8 1.448 . S
N2 C1 1.365 1_545 S
N2 C5 1.319 . S
N2 Eu11 2.600 . S
C3 C5 1.397 . S
C3 C6 1.367 1_545 S
C3 H23 0.931 . S
C4 C1 1.405 . S
C4 C6 1.403 . S
C4 C10 1.439 . S
C5 N2 1.319 . S
C5 C3 1.397 . S
C5 H16 0.930 . S
C6 C3 1.367 1_565 S
C6 C4 1.403 . S
C6 H27 0.929 . S
C7 C8 1.430 . S
C7 C9 1.387 . S
C7 C13 1.404 . S
C8 C1 1.448 . S
C8 C7 1.430 . S
C8 N12 1.351 . S
C9 C7 1.387 . S
C9 C10 1.374 . S
C9 H24 0.931 . S
C10 C4 1.439 . S
C10 C9 1.374 . S
C10 H25 0.931 . S
Eu11 N2 2.600 . S
Eu11 N12 2.562 1_545 S
Eu11 O46 2.335 . S
Eu11 O49 2.372 . S
Eu11 O50 2.462 . S
Eu11 O51 2.373 . S
Eu11 O53 2.432 . S
Eu11 O54 2.291 . S
Eu11 C75 2.787 . S
N12 C8 1.351 . S
N12 Eu11 2.562 1_565 S
N12 C14 1.325 . S
C13 C7 1.404 . S
C13 C15 1.366 . S
C13 H21 0.930 . S
C14 N12 1.325 . S
C14 C15 1.416 . S
C14 H20 0.929 . S
C15 C13 1.366 . S
C15 C14 1.416 . S
C15 H17 0.930 . S
H16 C5 0.930 . S
H17 C15 0.930 . S
H18 C33 0.930 . S
H19 C40 0.930 . S
H20 C14 0.929 . S
H21 C13 0.930 . S
H22 C36 0.929 . S
H23 C3 0.931 . S
H24 C9 0.931 . S
H25 C10 0.931 . S
H26 C31 0.931 . S
H27 C6 0.929 . S
H28 C39 0.930 . S
N29 Eu0 2.600 . S
N29 C30 1.365 . S
N29 C33 1.319 . S
C30 N29 1.365 . S
C30 C32 1.405 . S
C30 C38 1.448 . S
C31 H26 0.931 . S
C31 C33 1.397 . S
C31 C34 1.367 . S
C32 C30 1.405 . S
C32 C34 1.403 . S
C32 C65 1.439 . S
C33 H18 0.930 . S
C33 N29 1.319 . S
C33 C31 1.397 . S
C34 C31 1.367 . S
C34 C32 1.403 . S
C34 H41 0.929 . S
N35 Eu0 2.562 . S
N35 C36 1.325 . S
N35 C38 1.351 . S
C36 H22 0.929 . S
C36 N35 1.325 . S
C36 C40 1.416 . S
C37 C38 1.430 . S
C37 C39 1.404 . S
C37 C66 1.387 . S
C38 C30 1.448 . S
C38 N35 1.351 . S
C38 C37 1.430 . S
C39 H28 0.930 . S
C39 C37 1.404 . S
C39 C40 1.366 . S
C40 H19 0.930 . S
C40 C36 1.416 . S
C40 C39 1.366 . S
H41 C34 0.929 . S
H42 C65 0.931 . S
H43 C66 0.931 . S
O44 Eu0 2.462 . S
O44 C64 1.252 . S
O45 Eu0 2.373 . S
O45 C56 1.249 . S
O46 Eu11 2.335 . S
O46 C56 1.264 . S
O47 Eu0 2.432 . S
O47 C64 1.268 . S
O48 Eu0 2.291 . S
O48 C63 1.255 . S
O49 Eu11 2.372 . S
O49 C63 1.257 . S
O50 Eu11 2.462 . S
O50 C75 1.252 . S
O51 Eu11 2.373 . S
O51 C67 1.249 . S
O52 Eu0 2.335 . S
O52 C67 1.264 . S
O53 Eu11 2.432 . S
O53 C75 1.268 . S
O54 Eu11 2.291 . S
O54 C74 1.255 . S
O55 Eu0 2.372 . S
O55 C74 1.257 . S
C56 O45 1.249 . S
C56 O46 1.264 . S
C57 C60 1.382 . S
C57 C62 1.390 . S
C57 C64 1.506 . S
C58 C59 1.398 . S
C58 C62 1.392 . S
C59 C58 1.398 . S
C59 C61 1.372 . S
C59 H76 0.931 . S
C60 C57 1.382 . S
C60 C61 1.390 . S
C60 H77 0.931 . S
C61 C59 1.372 . S
C61 C60 1.390 . S
C61 H78 0.929 . S
C62 C57 1.390 . S
C62 C58 1.392 . S
C62 H79 0.930 . S
C63 O48 1.255 . S
C63 O49 1.257 . S
C64 Eu0 2.787 . S
C64 O44 1.252 . S
C64 O47 1.268 . S
C64 C57 1.506 . S
C65 C32 1.439 . S
C65 H42 0.931 . S
C65 C66 1.374 . S
C66 C37 1.387 . S
C66 H43 0.931 . S
C66 C65 1.374 . S
C67 O51 1.249 . S
C67 O52 1.264 . S
C68 C71 1.382 . S
C68 C72 1.390 . S
C68 C75 1.506 . S
C69 C70 1.398 . S
C69 C72 1.392 . S
C70 C69 1.398 . S
C70 C73 1.372 . S
C70 H80 0.931 1_554 S
C71 C68 1.382 . S
C71 C73 1.390 . S
C71 H81 0.931 . S
C72 C68 1.390 . S
C72 C69 1.392 . S
C72 H82 0.930 . S
C73 C70 1.372 . S
C73 C71 1.390 . S
C73 H83 0.929 . S
C74 O54 1.255 . S
C74 O55 1.257 . S
C75 Eu11 2.787 . S
C75 O50 1.252 . S
C75 O53 1.268 . S
C75 C68 1.506 . S
H76 C59 0.931 . S
H77 C60 0.931 . S
H78 C61 0.929 . S
H79 C62 0.930 . S
H80 C70 0.931 1_556 S
H81 C71 0.931 . S
H82 C72 0.930 . S
H83 C73 0.929 . S
Eu84 N113 2.600 . S
Eu84 N119 2.562 . S
Eu84 O128 2.462 . S
Eu84 O129 2.373 . S
Eu84 O131 2.432 . S
Eu84 O132 2.291 . S
Eu84 O136 2.335 . S
Eu84 O139 2.372 . S
Eu84 C148 2.787 . S
C85 N86 1.365 . S
C85 C88 1.405 . S
C85 C92 1.448 . S
N86 C85 1.365 . S
N86 C89 1.319 . S
N86 Eu95 2.600 . S
C87 C89 1.397 . S
C87 C90 1.367 . S
C87 H107 0.931 . S
C88 C85 1.405 . S
C88 C90 1.403 . S
C88 C94 1.439 . S
C89 N86 1.319 . S
C89 C87 1.397 . S
C89 H100 0.930 . S
C90 C87 1.367 . S
C90 C88 1.403 . S
C90 H111 0.929 . S
C91 C92 1.430 . S
C91 C93 1.387 . S
C91 C97 1.404 . S
C92 C85 1.448 . S
C92 C91 1.430 . S
C92 N96 1.351 . S
C93 C91 1.387 . S
C93 C94 1.374 . S
C93 H108 0.931 . S
C94 C88 1.439 . S
C94 C93 1.374 . S
C94 H109 0.931 . S
Eu95 N86 2.600 . S
Eu95 N96 2.562 . S
Eu95 O130 2.335 . S
Eu95 O133 2.372 . S
Eu95 O134 2.462 . S
Eu95 O135 2.373 . S
Eu95 O137 2.432 . S
Eu95 O138 2.291 . S
Eu95 C159 2.787 . S
N96 C92 1.351 . S
N96 Eu95 2.562 . S
N96 C98 1.325 . S
C97 C91 1.404 . S
C97 C99 1.366 . S
C97 H105 0.930 . S
C98 N96 1.325 . S
C98 C99 1.416 . S
C98 H104 0.929 . S
C99 C97 1.366 . S
C99 C98 1.416 . S
C99 H101 0.930 . S
H100 C89 0.930 . S
H101 C99 0.930 . S
H102 C117 0.930 . S
H103 C124 0.930 . S
H104 C98 0.929 . S
H105 C97 0.930 . S
H106 C120 0.929 . S
H107 C87 0.931 . S
H108 C93 0.931 . S
H109 C94 0.931 . S
H110 C115 0.931 . S
H111 C90 0.929 . S
H112 C123 0.930 . S
N113 Eu84 2.600 . S
N113 C114 1.365 . S
N113 C117 1.319 . S
C114 N113 1.365 . S
C114 C116 1.405 . S
C114 C122 1.448 . S
C115 H110 0.931 . S
C115 C117 1.397 . S
C115 C118 1.367 . S
C116 C114 1.405 . S
C116 C118 1.403 . S
C116 C149 1.439 . S
C117 H102 0.930 . S
C117 N113 1.319 . S
C117 C115 1.397 . S
C118 C115 1.367 . S
C118 C116 1.403 . S
C118 H125 0.929 . S
N119 Eu84 2.562 . S
N119 C120 1.325 . S
N119 C122 1.351 . S
C120 H106 0.929 . S
C120 N119 1.325 . S
C120 C124 1.416 . S
C121 C122 1.430 . S
C121 C123 1.404 . S
C121 C150 1.387 . S
C122 C114 1.448 . S
C122 N119 1.351 . S
C122 C121 1.430 . S
C123 H112 0.930 . S
C123 C121 1.404 . S
C123 C124 1.366 . S
C124 H103 0.930 . S
C124 C120 1.416 . S
C124 C123 1.366 . S
H125 C118 0.929 . S
H126 C149 0.931 . S
H127 C150 0.931 . S
O128 Eu84 2.462 . S
O128 C148 1.252 . S
O129 Eu84 2.373 . S
O129 C140 1.249 . S
O130 Eu95 2.335 . S
O130 C140 1.264 . S
O131 Eu84 2.432 . S
O131 C148 1.268 . S
O132 Eu84 2.291 . S
O132 C147 1.255 . S
O133 Eu95 2.372 . S
O133 C147 1.257 . S
O134 Eu95 2.462 . S
O134 C159 1.252 . S
O135 Eu95 2.373 . S
O135 C151 1.249 . S
O136 Eu84 2.335 . S
O136 C151 1.264 . S
O137 Eu95 2.432 . S
O137 C159 1.268 . S
O138 Eu95 2.291 . S
O138 C158 1.255 . S
O139 Eu84 2.372 . S
O139 C158 1.257 . S
C140 O129 1.249 . S
C140 O130 1.264 . S
C141 C144 1.382 . S
C141 C146 1.390 . S
C141 C148 1.506 . S
C142 C143 1.398 . S
C142 C146 1.392 . S
C143 C142 1.398 . S
C143 C145 1.372 . S
C143 H160 0.931 . S
C144 C141 1.382 . S
C144 C145 1.390 . S
C144 H161 0.931 . S
C145 C143 1.372 . S
C145 C144 1.390 . S
C145 H162 0.929 . S
C146 C141 1.390 . S
C146 C142 1.392 . S
C146 H163 0.930 . S
C147 O132 1.255 . S
C147 O133 1.257 . S
C148 Eu84 2.787 . S
C148 O128 1.252 . S
C148 O131 1.268 . S
C148 C141 1.506 . S
C149 C116 1.439 . S
C149 H126 0.931 . S
C149 C150 1.374 . S
C150 C121 1.387 . S
C150 H127 0.931 . S
C150 C149 1.374 . S
C151 O135 1.249 . S
C151 O136 1.264 . S
C152 C155 1.382 . S
C152 C156 1.390 . S
C152 C159 1.506 . S
C153 C154 1.398 . S
C153 C156 1.392 . S
C154 C153 1.398 . S
C154 C157 1.372 . S
C154 H164 0.931 . S
C155 C152 1.382 . S
C155 C157 1.390 . S
C155 H165 0.931 . S
C156 C152 1.390 . S
C156 C153 1.392 . S
C156 H166 0.930 . S
C157 C154 1.372 . S
C157 C155 1.390 . S
C157 H167 0.929 . S
C158 O138 1.255 . S
C158 O139 1.257 . S
C159 Eu95 2.787 . S
C159 O134 1.252 . S
C159 O137 1.268 . S
C159 C152 1.506 . S
H160 C143 0.931 . S
H161 C144 0.931 . S
H162 C145 0.929 . S
H163 C146 0.930 . S
H164 C154 0.931 . S
H165 C155 0.931 . S
H166 C156 0.930 . S
H167 C157 0.929 . S
Eu168 N197 2.600 . S
Eu168 N203 2.562 . S
Eu168 O212 2.462 . S
Eu168 O213 2.373 . S
Eu168 O215 2.432 . S
Eu168 O216 2.291 . S
Eu168 O220 2.335 . S
Eu168 O223 2.372 . S
Eu168 C232 2.787 . S
C169 N170 1.365 1_545 S
C169 C172 1.405 . S
C169 C176 1.448 . S
N170 C169 1.365 1_565 S
N170 C173 1.319 . S
N170 Eu179 2.600 . S
C171 C173 1.397 1_655 S
C171 C174 1.367 1_565 S
C171 H191 0.931 . S
C172 C169 1.405 . S
C172 C174 1.403 1_455 S
C172 C178 1.439 . S
C173 N170 1.319 . S
C173 C171 1.397 1_455 S
C173 H184 0.930 . S
C174 C171 1.367 1_545 S
C174 C172 1.403 1_655 S
C174 H195 0.929 . S
C175 C176 1.430 . S
C175 C177 1.387 . S
C175 C181 1.404 . S
C176 C169 1.448 . S
C176 C175 1.430 . S
C176 N180 1.351 . S
C177 C175 1.387 . S
C177 C178 1.374 . S
C177 H192 0.931 . S
C178 C172 1.439 . S
C178 C177 1.374 . S
C178 H193 0.931 . S
Eu179 N170 2.600 . S
Eu179 N180 2.562 1_565 S
Eu179 O214 2.335 . S
Eu179 O217 2.372 . S
Eu179 O218 2.462 . S
Eu179 O219 2.373 . S
Eu179 O221 2.432 . S
Eu179 O222 2.291 . S
Eu179 C243 2.787 . S
N180 C176 1.351 . S
N180 Eu179 2.562 1_545 S
N180 C182 1.325 . S
C181 C175 1.404 . S
C181 C183 1.366 . S
C181 H189 0.930 . S
C182 N180 1.325 . S
C182 C183 1.416 . S
C182 H188 0.929 . S
C183 C181 1.366 . S
C183 C182 1.416 . S
C183 H185 0.930 . S
H184 C173 0.930 . S
H185 C183 0.930 . S
H186 C201 0.930 . S
H187 C208 0.930 . S
H188 C182 0.929 . S
H189 C181 0.930 . S
H190 C204 0.929 . S
H191 C171 0.931 . S
H192 C177 0.931 . S
H193 C178 0.931 . S
H194 C199 0.931 . S
H195 C174 0.929 . S
H196 C207 0.930 . S
N197 Eu168 2.600 . S
N197 C198 1.365 . S
N197 C201 1.319 . S
C198 N197 1.365 . S
C198 C200 1.405 . S
C198 C206 1.448 . S
C199 H194 0.931 . S
C199 C201 1.397 . S
C199 C202 1.367 . S
C200 C198 1.405 . S
C200 C202 1.403 . S
C200 C233 1.439 . S
C201 H186 0.930 . S
C201 N197 1.319 . S
C201 C199 1.397 . S
C202 C199 1.367 . S
C202 C200 1.403 . S
C202 H209 0.929 . S
N203 Eu168 2.562 . S
N203 C204 1.325 . S
N203 C206 1.351 . S
C204 H190 0.929 . S
C204 N203 1.325 . S
C204 C208 1.416 . S
C205 C206 1.430 . S
C205 C207 1.404 . S
C205 C234 1.387 . S
C206 C198 1.448 . S
C206 N203 1.351 . S
C206 C205 1.430 . S
C207 H196 0.930 . S
C207 C205 1.404 . S
C207 C208 1.366 . S
C208 H187 0.930 . S
C208 C204 1.416 . S
C208 C207 1.366 . S
H209 C202 0.929 . S
H210 C233 0.931 . S
H211 C234 0.931 . S
O212 Eu168 2.462 . S
O212 C232 1.252 . S
O213 Eu168 2.373 . S
O213 C224 1.249 . S
O214 Eu179 2.335 . S
O214 C224 1.264 . S
O215 Eu168 2.432 . S
O215 C232 1.268 . S
O216 Eu168 2.291 . S
O216 C231 1.255 . S
O217 Eu179 2.372 . S
O217 C231 1.257 . S
O218 Eu179 2.462 . S
O218 C243 1.252 . S
O219 Eu179 2.373 . S
O219 C235 1.249 . S
O220 Eu168 2.335 . S
O220 C235 1.264 . S
O221 Eu179 2.432 . S
O221 C243 1.268 . S
O222 Eu179 2.291 . S
O222 C242 1.255 . S
O223 Eu168 2.372 . S
O223 C242 1.257 . S
C224 O213 1.249 . S
C224 O214 1.264 . S
C225 C228 1.382 . S
C225 C230 1.390 . S
C225 C232 1.506 . S
C226 C227 1.398 . S
C226 C230 1.392 . S
C227 C226 1.398 . S
C227 C229 1.372 . S
C227 H244 0.931 . S
C228 C225 1.382 . S
C228 C229 1.390 . S
C228 H245 0.931 . S
C229 C227 1.372 . S
C229 C228 1.390 . S
C229 H246 0.929 . S
C230 C225 1.390 . S
C230 C226 1.392 . S
C230 H247 0.930 . S
C231 O216 1.255 . S
C231 O217 1.257 . S
C232 Eu168 2.787 . S
C232 O212 1.252 . S
C232 O215 1.268 . S
C232 C225 1.506 . S
C233 C200 1.439 . S
C233 H210 0.931 . S
C233 C234 1.374 . S
C234 C205 1.387 . S
C234 H211 0.931 . S
C234 C233 1.374 . S
C235 O219 1.249 . S
C235 O220 1.264 . S
C236 C239 1.382 . S
C236 C240 1.390 . S
C236 C243 1.506 . S
C237 C238 1.398 . S
C237 C240 1.392 . S
C238 C237 1.398 . S
C238 C241 1.372 . S
C238 H248 0.931 . S
C239 C236 1.382 . S
C239 C241 1.390 . S
C239 H249 0.931 . S
C240 C236 1.390 . S
C240 C237 1.392 . S
C240 H250 0.930 . S
C241 C238 1.372 . S
C241 C239 1.390 . S
C241 H251 0.929 . S
C242 O222 1.255 . S
C242 O223 1.257 . S
C243 Eu179 2.787 . S
C243 O218 1.252 . S
C243 O221 1.268 . S
C243 C236 1.506 . S
H244 C227 0.931 . S
H245 C228 0.931 . S
H246 C229 0.929 . S
H247 C230 0.930 . S
H248 C238 0.931 . S
H249 C239 0.931 . S
H250 C240 0.930 . S
H251 C241 0.929 . S
Eu252 N281 2.600 . S
Eu252 N287 2.562 . S
Eu252 O296 2.462 . S
Eu252 O297 2.373 . S
Eu252 O299 2.432 . S
Eu252 O300 2.291 . S
Eu252 O304 2.335 . S
Eu252 O307 2.372 . S
Eu252 C316 2.787 . S
C253 N254 1.365 . S
C253 C256 1.405 . S
C253 C260 1.448 . S
N254 C253 1.365 . S
N254 C257 1.319 1_655 S
N254 Eu263 2.600 . S
C255 C257 1.397 . S
C255 C258 1.367 . S
C255 H275 0.931 . S
C256 C253 1.405 . S
C256 C258 1.403 1_655 S
C256 C262 1.439 . S
C257 N254 1.319 1_455 S
C257 C255 1.397 . S
C257 H268 0.930 . S
C258 C255 1.367 . S
C258 C256 1.403 1_455 S
C258 H279 0.929 . S
C259 C260 1.430 . S
C259 C261 1.387 . S
C259 C265 1.404 . S
C260 C253 1.448 . S
C260 C259 1.430 . S
C260 N264 1.351 . S
C261 C259 1.387 . S
C261 C262 1.374 . S
C261 H276 0.931 . S
C262 C256 1.439 . S
C262 C261 1.374 . S
C262 H277 0.931 . S
Eu263 N254 2.600 . S
Eu263 N264 2.562 . S
Eu263 O298 2.335 . S
Eu263 O301 2.372 . S
Eu263 O302 2.462 . S
Eu263 O303 2.373 . S
Eu263 O305 2.432 1_655 S
Eu263 O306 2.291 . S
Eu263 C327 2.787 . S
N264 C260 1.351 . S
N264 Eu263 2.562 . S
N264 C266 1.325 . S
C265 C259 1.404 . S
C265 C267 1.366 . S
C265 H273 0.930 . S
C266 N264 1.325 . S
C266 C267 1.416 . S
C266 H272 0.929 . S
C267 C265 1.366 . S
C267 C266 1.416 . S
C267 H269 0.930 . S
H268 C257 0.930 . S
H269 C267 0.930 . S
H270 C285 0.930 . S
H271 C292 0.930 . S
H272 C266 0.929 . S
H273 C265 0.930 . S
H274 C288 0.929 . S
H275 C255 0.931 . S
H276 C261 0.931 . S
H277 C262 0.931 . S
H278 C283 0.931 . S
H279 C258 0.929 . S
H280 C291 0.930 . S
N281 Eu252 2.600 . S
N281 C282 1.365 . S
N281 C285 1.319 . S
C282 N281 1.365 . S
C282 C284 1.405 . S
C282 C290 1.448 . S
C283 H278 0.931 . S
C283 C285 1.397 . S
C283 C286 1.367 . S
C284 C282 1.405 . S
C284 C286 1.403 . S
C284 C317 1.439 . S
C285 H270 0.930 . S
C285 N281 1.319 . S
C285 C283 1.397 . S
C286 C283 1.367 . S
C286 C284 1.403 . S
C286 H293 0.929 . S
N287 Eu252 2.562 . S
N287 C288 1.325 . S
N287 C290 1.351 . S
C288 H274 0.929 . S
C288 N287 1.325 . S
C288 C292 1.416 . S
C289 C290 1.430 . S
C289 C291 1.404 . S
C289 C318 1.387 . S
C290 C282 1.448 . S
C290 N287 1.351 . S
C290 C289 1.430 . S
C291 H280 0.930 . S
C291 C289 1.404 . S
C291 C292 1.366 . S
C292 H271 0.930 . S
C292 C288 1.416 . S
C292 C291 1.366 . S
H293 C286 0.929 . S
H294 C317 0.931 . S
H295 C318 0.931 . S
O296 Eu252 2.462 . S
O296 C316 1.252 . S
O297 Eu252 2.373 . S
O297 C308 1.249 . S
O298 Eu263 2.335 . S
O298 C308 1.264 . S
O299 Eu252 2.432 . S
O299 C316 1.268 . S
O300 Eu252 2.291 . S
O300 C315 1.255 . S
O301 Eu263 2.372 . S
O301 C315 1.257 . S
O302 Eu263 2.462 . S
O302 C327 1.252 . S
O303 Eu263 2.373 . S
O303 C319 1.249 . S
O304 Eu252 2.335 . S
O304 C319 1.264 . S
O305 Eu263 2.432 1_455 S
O305 C327 1.268 1_455 S
O306 Eu263 2.291 . S
O306 C326 1.255 . S
O307 Eu252 2.372 . S
O307 C326 1.257 . S
C308 O297 1.249 . S
C308 O298 1.264 . S
C309 C312 1.382 . S
C309 C314 1.390 . S
C309 C316 1.506 . S
C310 C311 1.398 . S
C310 C314 1.392 . S
C311 C310 1.398 . S
C311 C313 1.372 . S
C311 H328 0.931 . S
C312 C309 1.382 . S
C312 C313 1.390 . S
C312 H329 0.931 . S
C313 C311 1.372 . S
C313 C312 1.390 . S
C313 H330 0.929 . S
C314 C309 1.390 . S
C314 C310 1.392 . S
C314 H331 0.930 . S
C315 O300 1.255 . S
C315 O301 1.257 . S
C316 Eu252 2.787 . S
C316 O296 1.252 . S
C316 O299 1.268 . S
C316 C309 1.506 . S
C317 C284 1.439 . S
C317 H294 0.931 . S
C317 C318 1.374 . S
C318 C289 1.387 . S
C318 H295 0.931 . S
C318 C317 1.374 . S
C319 O303 1.249 . S
C319 O304 1.264 . S
C320 C323 1.382 . S
C320 C324 1.390 1_455 S
C320 C327 1.506 1_455 S
C321 C322 1.398 . S
C321 C324 1.392 1_455 S
C322 C321 1.398 . S
C322 C325 1.372 . S
C322 H332 0.931 1_556 S
C323 C320 1.382 . S
C323 C325 1.390 . S
C323 H333 0.931 . S
C324 C320 1.390 1_655 S
C324 C321 1.392 1_655 S
C324 H334 0.930 . S
C325 C322 1.372 . S
C325 C323 1.390 . S
C325 H335 0.929 . S
C326 O306 1.255 . S
C326 O307 1.257 . S
C327 Eu263 2.787 . S
C327 O302 1.252 . S
C327 O305 1.268 1_655 S
C327 C320 1.506 1_655 S
H328 C311 0.931 . S
H329 C312 0.931 . S
H330 C313 0.929 . S
H331 C314 0.930 . S
H332 C322 0.931 1_554 S
H333 C323 0.931 . S
H334 C324 0.930 . S
H335 C325 0.929 . S
Eu336 N365 2.600 . S
Eu336 N371 2.562 1_565 S
Eu336 O380 2.462 . S
Eu336 O381 2.373 . S
Eu336 O383 2.432 . S
Eu336 O384 2.291 . S
Eu336 O388 2.335 . S
Eu336 O391 2.372 . S
Eu336 C400 2.787 . S
C337 N338 1.365 . S
C337 C340 1.405 . S
C337 C344 1.448 . S
N338 C337 1.365 . S
N338 C341 1.319 . S
N338 Eu347 2.600 . S
C339 C341 1.397 . S
C339 C342 1.367 . S
C339 H359 0.931 . S
C340 C337 1.405 . S
C340 C342 1.403 . S
C340 C346 1.439 . S
C341 N338 1.319 . S
C341 C339 1.397 . S
C341 H352 0.930 . S
C342 C339 1.367 . S
C342 C340 1.403 . S
C342 H363 0.929 . S
C343 C344 1.430 . S
C343 C345 1.387 . S
C343 C349 1.404 . S
C344 C337 1.448 . S
C344 C343 1.430 . S
C344 N348 1.351 . S
C345 C343 1.387 . S
C345 C346 1.374 . S
C345 H360 0.931 . S
C346 C340 1.439 . S
C346 C345 1.374 . S
C346 H361 0.931 . S
Eu347 N338 2.600 . S
Eu347 N348 2.562 . S
Eu347 O382 2.335 . S
Eu347 O385 2.372 . S
Eu347 O386 2.462 . S
Eu347 O387 2.373 . S
Eu347 O389 2.432 . S
Eu347 O390 2.291 . S
Eu347 C411 2.787 . S
N348 C344 1.351 . S
N348 Eu347 2.562 . S
N348 C350 1.325 . S
C349 C343 1.404 . S
C349 C351 1.366 . S
C349 H357 0.930 . S
C350 N348 1.325 . S
C350 C351 1.416 . S
C350 H356 0.929 . S
C351 C349 1.366 . S
C351 C350 1.416 . S
C351 H353 0.930 . S
H352 C341 0.930 . S
H353 C351 0.930 . S
H354 C369 0.930 . S
H355 C376 0.930 . S
H356 C350 0.929 . S
H357 C349 0.930 . S
H358 C372 0.929 . S
H359 C339 0.931 . S
H360 C345 0.931 . S
H361 C346 0.931 . S
H362 C367 0.931 . S
H363 C342 0.929 . S
H364 C375 0.930 . S
N365 Eu336 2.600 . S
N365 C366 1.365 1_565 S
N365 C369 1.319 . S
C366 N365 1.365 1_545 S
C366 C368 1.405 . S
C366 C374 1.448 . S
C367 H362 0.931 . S
C367 C369 1.397 . S
C367 C370 1.367 1_565 S
C368 C366 1.405 . S
C368 C370 1.403 . S
C368 C401 1.439 . S
C369 H354 0.930 . S
C369 N365 1.319 . S
C369 C367 1.397 . S
C370 C367 1.367 1_545 S
C370 C368 1.403 . S
C370 H377 0.929 . S
N371 Eu336 2.562 1_545 S
N371 C372 1.325 . S
N371 C374 1.351 . S
C372 H358 0.929 . S
C372 N371 1.325 . S
C372 C376 1.416 . S
C373 C374 1.430 . S
C373 C375 1.404 . S
C373 C402 1.387 . S
C374 C366 1.448 . S
C374 N371 1.351 . S
C374 C373 1.430 . S
C375 H364 0.930 . S
C375 C373 1.404 . S
C375 C376 1.366 . S
C376 H355 0.930 . S
C376 C372 1.416 . S
C376 C375 1.366 . S
H377 C370 0.929 . S
H378 C401 0.931 . S
H379 C402 0.931 . S
O380 Eu336 2.462 . S
O380 C400 1.252 . S
O381 Eu336 2.373 . S
O381 C392 1.249 . S
O382 Eu347 2.335 . S
O382 C392 1.264 . S
O383 Eu336 2.432 . S
O383 C400 1.268 . S
O384 Eu336 2.291 . S
O384 C399 1.255 . S
O385 Eu347 2.372 . S
O385 C399 1.257 . S
O386 Eu347 2.462 . S
O386 C411 1.252 . S
O387 Eu347 2.373 . S
O387 C403 1.249 . S
O388 Eu336 2.335 . S
O388 C403 1.264 . S
O389 Eu347 2.432 . S
O389 C411 1.268 . S
O390 Eu347 2.291 . S
O390 C410 1.255 . S
O391 Eu336 2.372 . S
O391 C410 1.257 . S
C392 O381 1.249 . S
C392 O382 1.264 . S
C393 C396 1.382 . S
C393 C398 1.390 . S
C393 C400 1.506 . S
C394 C395 1.398 . S
C394 C398 1.392 . S
C395 C394 1.398 . S
C395 C397 1.372 . S
C395 H412 0.931 1_556 S
C396 C393 1.382 . S
C396 C397 1.390 . S
C396 H413 0.931 . S
C397 C395 1.372 . S
C397 C396 1.390 . S
C397 H414 0.929 . S
C398 C393 1.390 . S
C398 C394 1.392 . S
C398 H415 0.930 . S
C399 O384 1.255 . S
C399 O385 1.257 . S
C400 Eu336 2.787 . S
C400 O380 1.252 . S
C400 O383 1.268 . S
C400 C393 1.506 . S
C401 C368 1.439 . S
C401 H378 0.931 . S
C401 C402 1.374 . S
C402 C373 1.387 . S
C402 H379 0.931 . S
C402 C401 1.374 . S
C403 O387 1.249 . S
C403 O388 1.264 . S
C404 C407 1.382 . S
C404 C408 1.390 . S
C404 C411 1.506 . S
C405 C406 1.398 . S
C405 C408 1.392 . S
C406 C405 1.398 . S
C406 C409 1.372 . S
C406 H416 0.931 . S
C407 C404 1.382 . S
C407 C409 1.390 . S
C407 H417 0.931 . S
C408 C404 1.390 . S
C408 C405 1.392 . S
C408 H418 0.930 . S
C409 C406 1.372 . S
C409 C407 1.390 . S
C409 H419 0.929 . S
C410 O390 1.255 . S
C410 O391 1.257 . S
C411 Eu347 2.787 . S
C411 O386 1.252 . S
C411 O389 1.268 . S
C411 C404 1.506 . S
H412 C395 0.931 1_554 S
H413 C396 0.931 . S
H414 C397 0.929 . S
H415 C398 0.930 . S
H416 C406 0.931 . S
H417 C407 0.931 . S
H418 C408 0.930 . S
H419 C409 0.929 . S
Eu420 N449 2.600 . S
Eu420 N455 2.562 . S
Eu420 O464 2.462 . S
Eu420 O465 2.373 . S
Eu420 O467 2.432 . S
Eu420 O468 2.291 . S
Eu420 O472 2.335 . S
Eu420 O475 2.372 . S
Eu420 C484 2.787 . S
C421 N422 1.365 . S
C421 C424 1.405 . S
C421 C428 1.448 . S
N422 C421 1.365 . S
N422 C425 1.319 . S
N422 Eu431 2.600 . S
C423 C425 1.397 . S
C423 C426 1.367 . S
C423 H443 0.931 . S
C424 C421 1.405 . S
C424 C426 1.403 . S
C424 C430 1.439 . S
C425 N422 1.319 . S
C425 C423 1.397 . S
C425 H436 0.930 . S
C426 C423 1.367 . S
C426 C424 1.403 . S
C426 H447 0.929 . S
C427 C428 1.430 . S
C427 C429 1.387 . S
C427 C433 1.404 . S
C428 C421 1.448 . S
C428 C427 1.430 . S
C428 N432 1.351 . S
C429 C427 1.387 . S
C429 C430 1.374 . S
C429 H444 0.931 . S
C430 C424 1.439 . S
C430 C429 1.374 . S
C430 H445 0.931 . S
Eu431 N422 2.600 . S
Eu431 N432 2.562 . S
Eu431 O466 2.335 . S
Eu431 O469 2.372 . S
Eu431 O470 2.462 . S
Eu431 O471 2.373 . S
Eu431 O473 2.432 . S
Eu431 O474 2.291 . S
Eu431 C495 2.787 . S
N432 C428 1.351 . S
N432 Eu431 2.562 . S
N432 C434 1.325 . S
C433 C427 1.404 . S
C433 C435 1.366 . S
C433 H441 0.930 . S
C434 N432 1.325 . S
C434 C435 1.416 . S
C434 H440 0.929 . S
C435 C433 1.366 . S
C435 C434 1.416 . S
C435 H437 0.930 . S
H436 C425 0.930 . S
H437 C435 0.930 . S
H438 C453 0.930 . S
H439 C460 0.930 . S
H440 C434 0.929 . S
H441 C433 0.930 . S
H442 C456 0.929 . S
H443 C423 0.931 . S
H444 C429 0.931 . S
H445 C430 0.931 . S
H446 C451 0.931 . S
H447 C426 0.929 . S
H448 C459 0.930 . S
N449 Eu420 2.600 . S
N449 C450 1.365 . S
N449 C453 1.319 . S
C450 N449 1.365 . S
C450 C452 1.405 . S
C450 C458 1.448 . S
C451 H446 0.931 . S
C451 C453 1.397 . S
C451 C454 1.367 . S
C452 C450 1.405 . S
C452 C454 1.403 . S
C452 C485 1.439 . S
C453 H438 0.930 . S
C453 N449 1.319 . S
C453 C451 1.397 . S
C454 C451 1.367 . S
C454 C452 1.403 . S
C454 H461 0.929 . S
N455 Eu420 2.562 . S
N455 C456 1.325 . S
N455 C458 1.351 . S
C456 H442 0.929 . S
C456 N455 1.325 . S
C456 C460 1.416 . S
C457 C458 1.430 . S
C457 C459 1.404 . S
C457 C486 1.387 . S
C458 C450 1.448 . S
C458 N455 1.351 . S
C458 C457 1.430 . S
C459 H448 0.930 . S
C459 C457 1.404 . S
C459 C460 1.366 . S
C460 H439 0.930 . S
C460 C456 1.416 . S
C460 C459 1.366 . S
H461 C454 0.929 . S
H462 C485 0.931 . S
H463 C486 0.931 . S
O464 Eu420 2.462 . S
O464 C484 1.252 . S
O465 Eu420 2.373 . S
O465 C476 1.249 . S
O466 Eu431 2.335 . S
O466 C476 1.264 . S
O467 Eu420 2.432 . S
O467 C484 1.268 . S
O468 Eu420 2.291 . S
O468 C483 1.255 . S
O469 Eu431 2.372 . S
O469 C483 1.257 . S
O470 Eu431 2.462 . S
O470 C495 1.252 . S
O471 Eu431 2.373 . S
O471 C487 1.249 . S
O472 Eu420 2.335 . S
O472 C487 1.264 . S
O473 Eu431 2.432 . S
O473 C495 1.268 . S
O474 Eu431 2.291 . S
O474 C494 1.255 . S
O475 Eu420 2.372 . S
O475 C494 1.257 . S
C476 O465 1.249 . S
C476 O466 1.264 . S
C477 C480 1.382 . S
C477 C482 1.390 . S
C477 C484 1.506 . S
C478 C479 1.398 . S
C478 C482 1.392 . S
C479 C478 1.398 . S
C479 C481 1.372 . S
C479 H496 0.931 . S
C480 C477 1.382 . S
C480 C481 1.390 . S
C480 H497 0.931 . S
C481 C479 1.372 . S
C481 C480 1.390 . S
C481 H498 0.929 . S
C482 C477 1.390 . S
C482 C478 1.392 . S
C482 H499 0.930 . S
C483 O468 1.255 . S
C483 O469 1.257 . S
C484 Eu420 2.787 . S
C484 O464 1.252 . S
C484 O467 1.268 . S
C484 C477 1.506 . S
C485 C452 1.439 . S
C485 H462 0.931 . S
C485 C486 1.374 . S
C486 C457 1.387 . S
C486 H463 0.931 . S
C486 C485 1.374 . S
C487 O471 1.249 . S
C487 O472 1.264 . S
C488 C491 1.382 . S
C488 C492 1.390 . S
C488 C495 1.506 . S
C489 C490 1.398 . S
C489 C492 1.392 . S
C490 C489 1.398 . S
C490 C493 1.372 . S
C490 H500 0.931 . S
C491 C488 1.382 . S
C491 C493 1.390 . S
C491 H501 0.931 . S
C492 C488 1.390 . S
C492 C489 1.392 . S
C492 H502 0.930 . S
C493 C490 1.372 . S
C493 C491 1.390 . S
C493 H503 0.929 . S
C494 O474 1.255 . S
C494 O475 1.257 . S
C495 Eu431 2.787 . S
C495 O470 1.252 . S
C495 O473 1.268 . S
C495 C488 1.506 . S
H496 C479 0.931 . S
H497 C480 0.931 . S
H498 C481 0.929 . S
H499 C482 0.930 . S
H500 C490 0.931 . S
H501 C491 0.931 . S
H502 C492 0.930 . S
H503 C493 0.929 . S
Eu504 N533 2.600 . S
Eu504 N539 2.562 1_545 S
Eu504 O548 2.462 . S
Eu504 O549 2.373 . S
Eu504 O551 2.432 . S
Eu504 O552 2.291 . S
Eu504 O556 2.335 . S
Eu504 O559 2.372 . S
Eu504 C568 2.787 . S
C505 N506 1.365 . S
C505 C508 1.405 . S
C505 C512 1.448 . S
N506 C505 1.365 . S
N506 C509 1.319 . S
N506 Eu515 2.600 . S
C507 C509 1.397 . S
C507 C510 1.367 . S
C507 H527 0.931 . S
C508 C505 1.405 . S
C508 C510 1.403 . S
C508 C514 1.439 . S
C509 N506 1.319 . S
C509 C507 1.397 . S
C509 H520 0.930 . S
C510 C507 1.367 . S
C510 C508 1.403 . S
C510 H531 0.929 . S
C511 C512 1.430 . S
C511 C513 1.387 . S
C511 C517 1.404 . S
C512 C505 1.448 . S
C512 C511 1.430 . S
C512 N516 1.351 . S
C513 C511 1.387 . S
C513 C514 1.374 . S
C513 H528 0.931 . S
C514 C508 1.439 . S
C514 C513 1.374 . S
C514 H529 0.931 . S
Eu515 N506 2.600 . S
Eu515 N516 2.562 . S
Eu515 O550 2.335 . S
Eu515 O553 2.372 . S
Eu515 O554 2.462 . S
Eu515 O555 2.373 . S
Eu515 O557 2.432 . S
Eu515 O558 2.291 . S
Eu515 C579 2.787 . S
N516 C512 1.351 . S
N516 Eu515 2.562 . S
N516 C518 1.325 . S
C517 C511 1.404 . S
C517 C519 1.366 . S
C517 H525 0.930 . S
C518 N516 1.325 . S
C518 C519 1.416 . S
C518 H524 0.929 . S
C519 C517 1.366 . S
C519 C518 1.416 . S
C519 H521 0.930 . S
H520 C509 0.930 . S
H521 C519 0.930 . S
H522 C537 0.930 . S
H523 C544 0.930 . S
H524 C518 0.929 . S
H525 C517 0.930 . S
H526 C540 0.929 . S
H527 C507 0.931 . S
H528 C513 0.931 . S
H529 C514 0.931 . S
H530 C535 0.931 . S
H531 C510 0.929 . S
H532 C543 0.930 . S
N533 Eu504 2.600 . S
N533 C534 1.365 1_545 S
N533 C537 1.319 . S
C534 N533 1.365 1_565 S
C534 C536 1.405 . S
C534 C542 1.448 . S
C535 H530 0.931 . S
C535 C537 1.397 1_455 S
C535 C538 1.367 1_545 S
C536 C534 1.405 . S
C536 C538 1.403 1_655 S
C536 C569 1.439 . S
C537 H522 0.930 . S
C537 N533 1.319 . S
C537 C535 1.397 1_655 S
C538 C535 1.367 1_565 S
C538 C536 1.403 1_455 S
C538 H545 0.929 . S
N539 Eu504 2.562 1_565 S
N539 C540 1.325 . S
N539 C542 1.351 . S
C540 H526 0.929 . S
C540 N539 1.325 . S
C540 C544 1.416 . S
C541 C542 1.430 . S
C541 C543 1.404 . S
C541 C570 1.387 . S
C542 C534 1.448 . S
C542 N539 1.351 . S
C542 C541 1.430 . S
C543 H532 0.930 . S
C543 C541 1.404 . S
C543 C544 1.366 . S
C544 H523 0.930 . S
C544 C540 1.416 . S
C544 C543 1.366 . S
H545 C538 0.929 . S
H546 C569 0.931 . S
H547 C570 0.931 . S
O548 Eu504 2.462 . S
O548 C568 1.252 . S
O549 Eu504 2.373 . S
O549 C560 1.249 . S
O550 Eu515 2.335 . S
O550 C560 1.264 . S
O551 Eu504 2.432 . S
O551 C568 1.268 . S
O552 Eu504 2.291 . S
O552 C567 1.255 . S
O553 Eu515 2.372 . S
O553 C567 1.257 . S
O554 Eu515 2.462 . S
O554 C579 1.252 . S
O555 Eu515 2.373 . S
O555 C571 1.249 . S
O556 Eu504 2.335 . S
O556 C571 1.264 . S
O557 Eu515 2.432 . S
O557 C579 1.268 . S
O558 Eu515 2.291 . S
O558 C578 1.255 . S
O559 Eu504 2.372 . S
O559 C578 1.257 . S
C560 O549 1.249 . S
C560 O550 1.264 . S
C561 C564 1.382 . S
C561 C566 1.390 . S
C561 C568 1.506 . S
C562 C563 1.398 . S
C562 C566 1.392 . S
C563 C562 1.398 . S
C563 C565 1.372 . S
C563 H580 0.931 . S
C564 C561 1.382 . S
C564 C565 1.390 . S
C564 H581 0.931 . S
C565 C563 1.372 . S
C565 C564 1.390 . S
C565 H582 0.929 . S
C566 C561 1.390 . S
C566 C562 1.392 . S
C566 H583 0.930 . S
C567 O552 1.255 . S
C567 O553 1.257 . S
C568 Eu504 2.787 . S
C568 O548 1.252 . S
C568 O551 1.268 . S
C568 C561 1.506 . S
C569 C536 1.439 . S
C569 H546 0.931 . S
C569 C570 1.374 . S
C570 C541 1.387 . S
C570 H547 0.931 . S
C570 C569 1.374 . S
C571 O555 1.249 . S
C571 O556 1.264 . S
C572 C575 1.382 . S
C572 C576 1.390 . S
C572 C579 1.506 . S
C573 C574 1.398 . S
C573 C576 1.392 . S
C574 C573 1.398 . S
C574 C577 1.372 . S
C574 H584 0.931 . S
C575 C572 1.382 . S
C575 C577 1.390 . S
C575 H585 0.931 . S
C576 C572 1.390 . S
C576 C573 1.392 . S
C576 H586 0.930 . S
C577 C574 1.372 . S
C577 C575 1.390 . S
C577 H587 0.929 . S
C578 O558 1.255 . S
C578 O559 1.257 . S
C579 Eu515 2.787 . S
C579 O554 1.252 . S
C579 O557 1.268 . S
C579 C572 1.506 . S
H580 C563 0.931 . S
H581 C564 0.931 . S
H582 C565 0.929 . S
H583 C566 0.930 . S
H584 C574 0.931 . S
H585 C575 0.931 . S
H586 C576 0.930 . S
H587 C577 0.929 . S
Eu588 N617 2.600 . S
Eu588 N623 2.562 . S
Eu588 O632 2.462 . S
Eu588 O633 2.373 . S
Eu588 O635 2.432 1_455 S
Eu588 O636 2.291 . S
Eu588 O640 2.335 . S
Eu588 O643 2.372 . S
Eu588 C652 2.787 . S
C589 N590 1.365 . S
C589 C592 1.405 . S
C589 C596 1.448 . S
N590 C589 1.365 . S
N590 C593 1.319 . S
N590 Eu599 2.600 . S
C591 C593 1.397 . S
C591 C594 1.367 . S
C591 H611 0.931 . S
C592 C589 1.405 . S
C592 C594 1.403 . S
C592 C598 1.439 . S
C593 N590 1.319 . S
C593 C591 1.397 . S
C593 H604 0.930 . S
C594 C591 1.367 . S
C594 C592 1.403 . S
C594 H615 0.929 . S
C595 C596 1.430 . S
C595 C597 1.387 . S
C595 C601 1.404 . S
C596 C589 1.448 . S
C596 C595 1.430 . S
C596 N600 1.351 . S
C597 C595 1.387 . S
C597 C598 1.374 . S
C597 H612 0.931 . S
C598 C592 1.439 . S
C598 C597 1.374 . S
C598 H613 0.931 . S
Eu599 N590 2.600 . S
Eu599 N600 2.562 . S
Eu599 O634 2.335 . S
Eu599 O637 2.372 . S
Eu599 O638 2.462 . S
Eu599 O639 2.373 . S
Eu599 O641 2.432 . S
Eu599 O642 2.291 . S
Eu599 C663 2.787 . S
N600 C596 1.351 . S
N600 Eu599 2.562 . S
N600 C602 1.325 . S
C601 C595 1.404 . S
C601 C603 1.366 . S
C601 H609 0.930 . S
C602 N600 1.325 . S
C602 C603 1.416 . S
C602 H608 0.929 . S
C603 C601 1.366 . S
C603 C602 1.416 . S
C603 H605 0.930 . S
H604 C593 0.930 . S
H605 C603 0.930 . S
H606 C621 0.930 . S
H607 C628 0.930 . S
H608 C602 0.929 . S
H609 C601 0.930 . S
H610 C624 0.929 . S
H611 C591 0.931 . S
H612 C597 0.931 . S
H613 C598 0.931 . S
H614 C619 0.931 . S
H615 C594 0.929 . S
H616 C627 0.930 . S
N617 Eu588 2.600 . S
N617 C618 1.365 . S
N617 C621 1.319 1_455 S
C618 N617 1.365 . S
C618 C620 1.405 . S
C618 C626 1.448 . S
C619 H614 0.931 . S
C619 C621 1.397 . S
C619 C622 1.367 . S
C620 C618 1.405 . S
C620 C622 1.403 1_455 S
C620 C653 1.439 . S
C621 H606 0.930 . S
C621 N617 1.319 1_655 S
C621 C619 1.397 . S
C622 C619 1.367 . S
C622 C620 1.403 1_655 S
C622 H629 0.929 . S
N623 Eu588 2.562 . S
N623 C624 1.325 . S
N623 C626 1.351 . S
C624 H610 0.929 . S
C624 N623 1.325 . S
C624 C628 1.416 . S
C625 C626 1.430 . S
C625 C627 1.404 . S
C625 C654 1.387 . S
C626 C618 1.448 . S
C626 N623 1.351 . S
C626 C625 1.430 . S
C627 H616 0.930 . S
C627 C625 1.404 . S
C627 C628 1.366 . S
C628 H607 0.930 . S
C628 C624 1.416 . S
C628 C627 1.366 . S
H629 C622 0.929 . S
H630 C653 0.931 . S
H631 C654 0.931 . S
O632 Eu588 2.462 . S
O632 C652 1.252 . S
O633 Eu588 2.373 . S
O633 C644 1.249 . S
O634 Eu599 2.335 . S
O634 C644 1.264 . S
O635 Eu588 2.432 1_655 S
O635 C652 1.268 1_655 S
O636 Eu588 2.291 . S
O636 C651 1.255 . S
O637 Eu599 2.372 . S
O637 C651 1.257 . S
O638 Eu599 2.462 . S
O638 C663 1.252 . S
O639 Eu599 2.373 . S
O639 C655 1.249 . S
O640 Eu588 2.335 . S
O640 C655 1.264 . S
O641 Eu599 2.432 . S
O641 C663 1.268 . S
O642 Eu599 2.291 . S
O642 C662 1.255 . S
O643 Eu588 2.372 . S
O643 C662 1.257 . S
C644 O633 1.249 . S
C644 O634 1.264 . S
C645 C648 1.382 . S
C645 C650 1.390 1_655 S
C645 C652 1.506 1_655 S
C646 C647 1.398 . S
C646 C650 1.392 1_655 S
C647 C646 1.398 . S
C647 C649 1.372 . S
C647 H664 0.931 1_554 S
C648 C645 1.382 . S
C648 C649 1.390 . S
C648 H665 0.931 . S
C649 C647 1.372 . S
C649 C648 1.390 . S
C649 H666 0.929 . S
C650 C645 1.390 1_455 S
C650 C646 1.392 1_455 S
C650 H667 0.930 . S
C651 O636 1.255 . S
C651 O637 1.257 . S
C652 Eu588 2.787 . S
C652 O632 1.252 . S
C652 O635 1.268 1_455 S
C652 C645 1.506 1_455 S
C653 C620 1.439 . S
C653 H630 0.931 . S
C653 C654 1.374 . S
C654 C625 1.387 . S
C654 H631 0.931 . S
C654 C653 1.374 . S
C655 O639 1.249 . S
C655 O640 1.264 . S
C656 C659 1.382 . S
C656 C660 1.390 . S
C656 C663 1.506 . S
C657 C658 1.398 . S
C657 C660 1.392 . S
C658 C657 1.398 . S
C658 C661 1.372 . S
C658 H668 0.931 . S
C659 C656 1.382 . S
C659 C661 1.390 . S
C659 H669 0.931 . S
C660 C656 1.390 . S
C660 C657 1.392 . S
C660 H670 0.930 . S
C661 C658 1.372 . S
C661 C659 1.390 . S
C661 H671 0.929 . S
C662 O642 1.255 . S
C662 O643 1.257 . S
C663 Eu599 2.787 . S
C663 O638 1.252 . S
C663 O641 1.268 . S
C663 C656 1.506 . S
H664 C647 0.931 1_556 S
H665 C648 0.931 . S
H666 C649 0.929 . S
H667 C650 0.930 . S
H668 C658 0.931 . S
H669 C659 0.931 . S
H670 C660 0.930 . S
H671 C661 0.929 . S
Eu672 N701 2.600 . S
Eu672 N707 2.562 . S
Eu672 O716 2.462 . S
Eu672 O717 2.373 . S
Eu672 O719 2.432 . S
Eu672 O720 2.291 . S
Eu672 O724 2.335 . S
Eu672 O727 2.372 . S
Eu672 C736 2.787 . S
C673 N674 1.365 . S
C673 C676 1.405 . S
C673 C680 1.448 . S
N674 C673 1.365 . S
N674 C677 1.319 . S
N674 Eu683 2.600 . S
C675 C677 1.397 1_455 S
C675 C678 1.367 . S
C675 H695 0.931 . S
C676 C673 1.405 . S
C676 C678 1.403 1_655 S
C676 C682 1.439 . S
C677 N674 1.319 . S
C677 C675 1.397 1_655 S
C677 H688 0.930 . S
C678 C675 1.367 . S
C678 C676 1.403 1_455 S
C678 H699 0.929 . S
C679 C680 1.430 . S
C679 C681 1.387 . S
C679 C685 1.404 . S
C680 C673 1.448 . S
C680 C679 1.430 . S
C680 N684 1.351 . S
C681 C679 1.387 . S
C681 C682 1.374 . S
C681 H696 0.931 . S
C682 C676 1.439 . S
C682 C681 1.374 . S
C682 H697 0.931 . S
Eu683 N674 2.600 . S
Eu683 N684 2.562 . S
Eu683 O718 2.335 . S
Eu683 O721 2.372 . S
Eu683 O722 2.462 . S
Eu683 O723 2.373 . S
Eu683 O725 2.432 . S
Eu683 O726 2.291 . S
Eu683 C747 2.787 . S
N684 C680 1.351 . S
N684 Eu683 2.562 . S
N684 C686 1.325 . S
C685 C679 1.404 . S
C685 C687 1.366 . S
C685 H693 0.930 . S
C686 N684 1.325 . S
C686 C687 1.416 . S
C686 H692 0.929 . S
C687 C685 1.366 . S
C687 C686 1.416 . S
C687 H689 0.930 . S
H688 C677 0.930 . S
H689 C687 0.930 . S
H690 C705 0.930 . S
H691 C712 0.930 . S
H692 C686 0.929 . S
H693 C685 0.930 . S
H694 C708 0.929 . S
H695 C675 0.931 . S
H696 C681 0.931 . S
H697 C682 0.931 . S
H698 C703 0.931 . S
H699 C678 0.929 . S
H700 C711 0.930 . S
N701 Eu672 2.600 . S
N701 C702 1.365 . S
N701 C705 1.319 . S
C702 N701 1.365 . S
C702 C704 1.405 . S
C702 C710 1.448 . S
C703 H698 0.931 . S
C703 C705 1.397 . S
C703 C706 1.367 . S
C704 C702 1.405 . S
C704 C706 1.403 . S
C704 C737 1.439 . S
C705 H690 0.930 . S
C705 N701 1.319 . S
C705 C703 1.397 . S
C706 C703 1.367 . S
C706 C704 1.403 . S
C706 H713 0.929 . S
N707 Eu672 2.562 . S
N707 C708 1.325 . S
N707 C710 1.351 . S
C708 H694 0.929 . S
C708 N707 1.325 . S
C708 C712 1.416 . S
C709 C710 1.430 . S
C709 C711 1.404 . S
C709 C738 1.387 . S
C710 C702 1.448 . S
C710 N707 1.351 . S
C710 C709 1.430 . S
C711 H700 0.930 . S
C711 C709 1.404 . S
C711 C712 1.366 . S
C712 H691 0.930 . S
C712 C708 1.416 . S
C712 C711 1.366 . S
H713 C706 0.929 . S
H714 C737 0.931 . S
H715 C738 0.931 . S
O716 Eu672 2.462 . S
O716 C736 1.252 . S
O717 Eu672 2.373 . S
O717 C728 1.249 . S
O718 Eu683 2.335 . S
O718 C728 1.264 . S
O719 Eu672 2.432 . S
O719 C736 1.268 . S
O720 Eu672 2.291 . S
O720 C735 1.255 . S
O721 Eu683 2.372 . S
O721 C735 1.257 . S
O722 Eu683 2.462 . S
O722 C747 1.252 . S
O723 Eu683 2.373 . S
O723 C739 1.249 . S
O724 Eu672 2.335 . S
O724 C739 1.264 . S
O725 Eu683 2.432 . S
O725 C747 1.268 . S
O726 Eu683 2.291 . S
O726 C746 1.255 . S
O727 Eu672 2.372 . S
O727 C746 1.257 . S
C728 O717 1.249 . S
C728 O718 1.264 . S
C729 C732 1.382 . S
C729 C734 1.390 . S
C729 C736 1.506 . S
C730 C731 1.398 . S
C730 C734 1.392 . S
C731 C730 1.398 . S
C731 C733 1.372 . S
C731 H748 0.931 . S
C732 C729 1.382 . S
C732 C733 1.390 . S
C732 H749 0.931 . S
C733 C731 1.372 . S
C733 C732 1.390 . S
C733 H750 0.929 . S
C734 C729 1.390 . S
C734 C730 1.392 . S
C734 H751 0.930 . S
C735 O720 1.255 . S
C735 O721 1.257 . S
C736 Eu672 2.787 . S
C736 O716 1.252 . S
C736 O719 1.268 . S
C736 C729 1.506 . S
C737 C704 1.439 . S
C737 H714 0.931 . S
C737 C738 1.374 . S
C738 C709 1.387 . S
C738 H715 0.931 . S
C738 C737 1.374 . S
C739 O723 1.249 . S
C739 O724 1.264 . S
C740 C743 1.382 . S
C740 C744 1.390 . S
C740 C747 1.506 . S
C741 C742 1.398 . S
C741 C744 1.392 . S
C742 C741 1.398 . S
C742 C745 1.372 . S
C742 H752 0.931 . S
C743 C740 1.382 . S
C743 C745 1.390 . S
C743 H753 0.931 . S
C744 C740 1.390 . S
C744 C741 1.392 . S
C744 H754 0.930 . S
C745 C742 1.372 . S
C745 C743 1.390 . S
C745 H755 0.929 . S
C746 O726 1.255 . S
C746 O727 1.257 . S
C747 Eu683 2.787 . S
C747 O722 1.252 . S
C747 O725 1.268 . S
C747 C740 1.506 . S
H748 C731 0.931 . S
H749 C732 0.931 . S
H750 C733 0.929 . S
H751 C734 0.930 . S
H752 C742 0.931 . S
H753 C743 0.931 . S
H754 C744 0.930 . S
H755 C745 0.929 . S
Eu756 N785 2.600 . S
Eu756 N791 2.562 1_455 S
Eu756 O800 2.462 1_565 S
Eu756 O801 2.373 . S
Eu756 O803 2.432 . S
Eu756 O804 2.291 1_565 S
Eu756 O808 2.335 1_565 S
Eu756 O811 2.372 . S
Eu756 C820 2.787 1_565 S
C757 N758 1.365 . S
C757 C760 1.405 . S
C757 C764 1.448 . S
N758 C757 1.365 . S
N758 C761 1.319 . S
N758 Eu767 2.600 . S
C759 C761 1.397 . S
C759 C762 1.367 . S
C759 H779 0.931 . S
C760 C757 1.405 . S
C760 C762 1.403 . S
C760 C766 1.439 . S
C761 N758 1.319 . S
C761 C759 1.397 . S
C761 H772 0.930 . S
C762 C759 1.367 . S
C762 C760 1.403 . S
C762 H783 0.929 . S
C763 C764 1.430 . S
C763 C765 1.387 . S
C763 C769 1.404 . S
C764 C757 1.448 . S
C764 C763 1.430 . S
C764 N768 1.351 . S
C765 C763 1.387 . S
C765 C766 1.374 . S
C765 H780 0.931 . S
C766 C760 1.439 . S
C766 C765 1.374 . S
C766 H781 0.931 . S
Eu767 N758 2.600 . S
Eu767 N768 2.562 . S
Eu767 O802 2.335 . S
Eu767 O805 2.372 . S
Eu767 O806 2.462 . S
Eu767 O807 2.373 . S
Eu767 O809 2.432 . S
Eu767 O810 2.291 1_545 S
Eu767 C831 2.787 . S
N768 C764 1.351 . S
N768 Eu767 2.562 . S
N768 C770 1.325 . S
C769 C763 1.404 . S
C769 C771 1.366 . S
C769 H777 0.930 . S
C770 N768 1.325 . S
C770 C771 1.416 . S
C770 H776 0.929 1_545 S
C771 C769 1.366 . S
C771 C770 1.416 . S
C771 H773 0.930 1_545 S
H772 C761 0.930 . S
H773 C771 0.930 1_565 S
H774 C789 0.930 . S
H775 C796 0.930 . S
H776 C770 0.929 1_565 S
H777 C769 0.930 . S
H778 C792 0.929 . S
H779 C759 0.931 . S
H780 C765 0.931 . S
H781 C766 0.931 . S
H782 C787 0.931 . S
H783 C762 0.929 . S
H784 C795 0.930 . S
N785 Eu756 2.600 . S
N785 C786 1.365 1_455 S
N785 C789 1.319 . S
C786 N785 1.365 1_655 S
C786 C788 1.405 . S
C786 C794 1.448 . S
C787 H782 0.931 . S
C787 C789 1.397 . S
C787 C790 1.367 1_455 S
C788 C786 1.405 . S
C788 C790 1.403 . S
C788 C821 1.439 . S
C789 H774 0.930 . S
C789 N785 1.319 . S
C789 C787 1.397 . S
C790 C787 1.367 1_655 S
C790 C788 1.403 . S
C790 H797 0.929 . S
N791 Eu756 2.562 1_655 S
N791 C792 1.325 1_565 S
N791 C794 1.351 . S
C792 H778 0.929 . S
C792 N791 1.325 1_545 S
C792 C796 1.416 . S
C793 C794 1.430 . S
C793 C795 1.404 . S
C793 C822 1.387 . S
C794 C786 1.448 . S
C794 N791 1.351 . S
C794 C793 1.430 . S
C795 H784 0.930 . S
C795 C793 1.404 . S
C795 C796 1.366 1_565 S
C796 H775 0.930 . S
C796 C792 1.416 . S
C796 C795 1.366 1_545 S
H797 C790 0.929 . S
H798 C821 0.931 . S
H799 C822 0.931 . S
O800 Eu756 2.462 1_545 S
O800 C820 1.252 . S
O801 Eu756 2.373 . S
O801 C812 1.249 . S
O802 Eu767 2.335 . S
O802 C812 1.264 1_545 S
O803 Eu756 2.432 . S
O803 C820 1.268 1_565 S
O804 Eu756 2.291 1_545 S
O804 C819 1.255 . S
O805 Eu767 2.372 . S
O805 C819 1.257 . S
O806 Eu767 2.462 . S
O806 C831 1.252 . S
O807 Eu767 2.373 . S
O807 C823 1.249 . S
O808 Eu756 2.335 1_545 S
O808 C823 1.264 . S
O809 Eu767 2.432 . S
O809 C831 1.268 . S
O810 Eu767 2.291 1_565 S
O810 C830 1.255 . S
O811 Eu756 2.372 . S
O811 C830 1.257 . S
C812 O801 1.249 . S
C812 O802 1.264 1_565 S
C813 C816 1.382 1_545 S
C813 C818 1.390 . S
C813 C820 1.506 . S
C814 C815 1.406 . S
C814 C818 1.378 1_554 S
C815 C814 1.406 . S
C815 C817 1.372 1_545 S
C815 H832 0.931 . S
C816 C813 1.382 1_565 S
C816 C817 1.390 1_556 S
C816 H833 0.931 . S
C817 C815 1.372 1_565 S
C817 C816 1.390 1_554 S
C817 H834 0.929 . S
C818 C813 1.390 . S
C818 C814 1.378 1_556 S
C818 H835 0.930 . S
C819 O804 1.255 . S
C819 O805 1.257 . S
C820 Eu756 2.787 1_545 S
C820 O800 1.252 . S
C820 O803 1.268 1_545 S
C820 C813 1.506 . S
C821 C788 1.439 . S
C821 H798 0.931 . S
C821 C822 1.374 . S
C822 C793 1.387 . S
C822 H799 0.931 . S
C822 C821 1.374 . S
C823 O807 1.249 . S
C823 O808 1.264 . S
C824 C827 1.382 . S
C824 C828 1.390 . S
C824 C831 1.506 . S
C825 C826 1.398 . S
C825 C828 1.392 . S
C826 C825 1.398 . S
C826 C829 1.372 . S
C826 H836 0.931 . S
C827 C824 1.382 . S
C827 C829 1.390 . S
C827 H837 0.931 . S
C828 C824 1.390 . S
C828 C825 1.392 . S
C828 H838 0.930 1_545 S
C829 C826 1.372 . S
C829 C827 1.390 . S
C829 H839 0.929 . S
C830 O810 1.255 . S
C830 O811 1.257 . S
C831 Eu767 2.787 . S
C831 O806 1.252 . S
C831 O809 1.268 . S
C831 C824 1.506 . S
H832 C815 0.931 . S
H833 C816 0.931 . S
H834 C817 0.929 . S
H835 C818 0.930 . S
H836 C826 0.931 . S
H837 C827 0.931 . S
H838 C828 0.930 1_565 S
H839 C829 0.929 . S
Eu840 N869 2.600 . S
Eu840 N875 2.562 . S
Eu840 O884 2.462 . S
Eu840 O885 2.373 . S
Eu840 O887 2.432 . S
Eu840 O888 2.291 . S
Eu840 O892 2.335 . S
Eu840 O895 2.372 . S
Eu840 C904 2.787 . S
C841 N842 1.365 . S
C841 C844 1.405 . S
C841 C848 1.448 . S
N842 C841 1.365 . S
N842 C845 1.319 . S
N842 Eu851 2.600 . S
C843 C845 1.397 . S
C843 C846 1.367 . S
C843 H863 0.931 . S
C844 C841 1.405 . S
C844 C846 1.403 . S
C844 C850 1.439 . S
C845 N842 1.319 . S
C845 C843 1.397 . S
C845 H856 0.930 . S
C846 C843 1.367 . S
C846 C844 1.403 . S
C846 H867 0.929 . S
C847 C848 1.430 . S
C847 C849 1.387 . S
C847 C853 1.404 . S
C848 C841 1.448 . S
C848 C847 1.430 . S
C848 N852 1.351 . S
C849 C847 1.387 . S
C849 C850 1.374 . S
C849 H864 0.931 . S
C850 C844 1.439 . S
C850 C849 1.374 . S
C850 H865 0.931 . S
Eu851 N842 2.600 . S
Eu851 N852 2.562 . S
Eu851 O886 2.335 . S
Eu851 O889 2.372 . S
Eu851 O890 2.462 . S
Eu851 O891 2.373 . S
Eu851 O893 2.432 . S
Eu851 O894 2.291 . S
Eu851 C915 2.787 . S
N852 C848 1.351 . S
N852 Eu851 2.562 . S
N852 C854 1.325 . S
C853 C847 1.404 . S
C853 C855 1.366 . S
C853 H861 0.930 . S
C854 N852 1.325 . S
C854 C855 1.416 . S
C854 H860 0.929 . S
C855 C853 1.366 . S
C855 C854 1.416 . S
C855 H857 0.930 . S
H856 C845 0.930 . S
H857 C855 0.930 . S
H858 C873 0.930 . S
H859 C880 0.930 . S
H860 C854 0.929 . S
H861 C853 0.930 . S
H862 C876 0.929 . S
H863 C843 0.931 . S
H864 C849 0.931 . S
H865 C850 0.931 . S
H866 C871 0.931 . S
H867 C846 0.929 . S
H868 C879 0.930 . S
N869 Eu840 2.600 . S
N869 C870 1.365 . S
N869 C873 1.319 . S
C870 N869 1.365 . S
C870 C872 1.405 . S
C870 C878 1.448 . S
C871 H866 0.931 . S
C871 C873 1.397 . S
C871 C874 1.367 . S
C872 C870 1.405 . S
C872 C874 1.403 . S
C872 C905 1.439 . S
C873 H858 0.930 . S
C873 N869 1.319 . S
C873 C871 1.397 . S
C874 C871 1.367 . S
C874 C872 1.403 . S
C874 H881 0.929 . S
N875 Eu840 2.562 . S
N875 C876 1.325 . S
N875 C878 1.351 . S
C876 H862 0.929 . S
C876 N875 1.325 . S
C876 C880 1.416 . S
C877 C878 1.430 . S
C877 C879 1.404 . S
C877 C906 1.387 . S
C878 C870 1.448 . S
C878 N875 1.351 . S
C878 C877 1.430 . S
C879 H868 0.930 . S
C879 C877 1.404 . S
C879 C880 1.366 . S
C880 H859 0.930 . S
C880 C876 1.416 . S
C880 C879 1.366 . S
H881 C874 0.929 . S
H882 C905 0.931 . S
H883 C906 0.931 . S
O884 Eu840 2.462 . S
O884 C904 1.252 . S
O885 Eu840 2.373 . S
O885 C896 1.249 . S
O886 Eu851 2.335 . S
O886 C896 1.264 . S
O887 Eu840 2.432 . S
O887 C904 1.268 . S
O888 Eu840 2.291 . S
O888 C903 1.255 . S
O889 Eu851 2.372 . S
O889 C903 1.257 . S
O890 Eu851 2.462 . S
O890 C915 1.252 . S
O891 Eu851 2.373 . S
O891 C907 1.249 . S
O892 Eu840 2.335 . S
O892 C907 1.264 . S
O893 Eu851 2.432 . S
O893 C915 1.268 . S
O894 Eu851 2.291 . S
O894 C914 1.255 . S
O895 Eu840 2.372 . S
O895 C914 1.257 . S
C896 O885 1.249 . S
C896 O886 1.264 . S
C897 C900 1.382 . S
C897 C902 1.390 . S
C897 C904 1.506 . S
C898 C899 1.398 . S
C898 C902 1.392 . S
C899 C898 1.398 . S
C899 C901 1.372 . S
C899 H916 0.931 . S
C900 C897 1.382 . S
C900 C901 1.390 . S
C900 H917 0.931 . S
C901 C899 1.372 . S
C901 C900 1.390 . S
C901 H918 0.929 . S
C902 C897 1.390 . S
C902 C898 1.392 . S
C902 H919 0.930 . S
C903 O888 1.255 . S
C903 O889 1.257 . S
C904 Eu840 2.787 . S
C904 O884 1.252 . S
C904 O887 1.268 . S
C904 C897 1.506 . S
C905 C872 1.439 . S
C905 H882 0.931 . S
C905 C906 1.374 . S
C906 C877 1.387 . S
C906 H883 0.931 . S
C906 C905 1.374 . S
C907 O891 1.249 . S
C907 O892 1.264 . S
C908 C911 1.382 . S
C908 C912 1.390 . S
C908 C915 1.506 . S
C909 C910 1.398 . S
C909 C912 1.392 . S
C910 C909 1.398 . S
C910 C913 1.372 . S
C910 H920 0.931 1_554 S
C911 C908 1.382 . S
C911 C913 1.390 . S
C911 H921 0.931 . S
C912 C908 1.390 . S
C912 C909 1.392 . S
C912 H922 0.930 . S
C913 C910 1.372 . S
C913 C911 1.390 . S
C913 H923 0.929 . S
C914 O894 1.255 . S
C914 O895 1.257 . S
C915 Eu851 2.787 . S
C915 O890 1.252 . S
C915 O893 1.268 . S
C915 C908 1.506 . S
H916 C899 0.931 . S
H917 C900 0.931 . S
H918 C901 0.929 . S
H919 C902 0.930 . S
H920 C910 0.931 1_556 S
H921 C911 0.931 . S
H922 C912 0.930 . S
H923 C913 0.929 . S
Eu924 N953 2.600 . S
Eu924 N959 2.562 . S
Eu924 O968 2.462 . S
Eu924 O969 2.373 . S
Eu924 O971 2.432 . S
Eu924 O972 2.291 . S
Eu924 O976 2.335 1_565 S
Eu924 O979 2.372 . S
Eu924 C988 2.787 . S
C925 N926 1.365 . S
C925 C928 1.405 . S
C925 C932 1.448 . S
N926 C925 1.365 . S
N926 C929 1.319 . S
N926 Eu935 2.600 . S
C927 C929 1.397 . S
C927 C930 1.367 . S
C927 H947 0.931 . S
C928 C925 1.405 . S
C928 C930 1.403 . S
C928 C934 1.439 . S
C929 N926 1.319 . S
C929 C927 1.397 . S
C929 H940 0.930 . S
C930 C927 1.367 . S
C930 C928 1.403 . S
C930 H951 0.929 . S
C931 C932 1.430 . S
C931 C933 1.387 . S
C931 C937 1.404 . S
C932 C925 1.448 . S
C932 C931 1.430 . S
C932 N936 1.351 . S
C933 C931 1.387 . S
C933 C934 1.374 . S
C933 H948 0.931 . S
C934 C928 1.439 . S
C934 C933 1.374 . S
C934 H949 0.931 . S
Eu935 N926 2.600 . S
Eu935 N936 2.562 . S
Eu935 O970 2.335 1_545 S
Eu935 O973 2.372 . S
Eu935 O974 2.462 1_545 S
Eu935 O975 2.373 . S
Eu935 O977 2.432 1_545 S
Eu935 O978 2.291 1_545 S
Eu935 C999 2.787 1_545 S
N936 C932 1.351 . S
N936 Eu935 2.562 . S
N936 C938 1.325 . S
C937 C931 1.404 . S
C937 C939 1.366 . S
C937 H945 0.930 . S
C938 N936 1.325 . S
C938 C939 1.416 . S
C938 H944 0.929 . S
C939 C937 1.366 . S
C939 C938 1.416 . S
C939 H941 0.930 . S
H940 C929 0.930 . S
H941 C939 0.930 . S
H942 C957 0.930 . S
H943 C964 0.930 . S
H944 C938 0.929 . S
H945 C937 0.930 . S
H946 C960 0.929 . S
H947 C927 0.931 . S
H948 C933 0.931 . S
H949 C934 0.931 . S
H950 C955 0.931 . S
H951 C930 0.929 . S
H952 C963 0.930 . S
N953 Eu924 2.600 . S
N953 C954 1.365 . S
N953 C957 1.319 . S
C954 N953 1.365 . S
C954 C956 1.405 . S
C954 C962 1.448 . S
C955 H950 0.931 . S
C955 C957 1.397 . S
C955 C958 1.367 . S
C956 C954 1.405 . S
C956 C958 1.403 . S
C956 C989 1.439 . S
C957 H942 0.930 . S
C957 N953 1.319 . S
C957 C955 1.397 . S
C958 C955 1.367 . S
C958 C956 1.403 . S
C958 H965 0.929 . S
N959 Eu924 2.562 . S
N959 C960 1.325 . S
N959 C962 1.351 . S
C960 H946 0.929 . S
C960 N959 1.325 . S
C960 C964 1.416 . S
C961 C962 1.430 . S
C961 C963 1.404 . S
C961 C990 1.387 . S
C962 C954 1.448 . S
C962 N959 1.351 . S
C962 C961 1.430 . S
C963 H952 0.930 . S
C963 C961 1.404 . S
C963 C964 1.366 . S
C964 H943 0.930 . S
C964 C960 1.416 . S
C964 C963 1.366 . S
H965 C958 0.929 . S
H966 C989 0.931 . S
H967 C990 0.931 . S
O968 Eu924 2.462 . S
O968 C988 1.252 . S
O969 Eu924 2.373 . S
O969 C980 1.249 . S
O970 Eu935 2.335 1_565 S
O970 C980 1.264 . S
O971 Eu924 2.432 . S
O971 C988 1.268 . S
O972 Eu924 2.291 . S
O972 C987 1.255 . S
O973 Eu935 2.372 . S
O973 C987 1.257 1_545 S
O974 Eu935 2.462 1_565 S
O974 C999 1.252 . S
O975 Eu935 2.373 . S
O975 C991 1.249 . S
O976 Eu924 2.335 1_545 S
O976 C991 1.264 . S
O977 Eu935 2.432 1_565 S
O977 C999 1.268 . S
O978 Eu935 2.291 1_565 S
O978 C998 1.255 . S
O979 Eu924 2.372 . S
O979 C998 1.257 . S
C980 O969 1.249 . S
C980 O970 1.264 . S
C981 C984 1.382 . S
C981 C986 1.390 . S
C981 C988 1.506 . S
C982 C983 1.398 1_545 S
C982 C986 1.392 1_545 S
C983 C982 1.398 1_565 S
C983 C985 1.372 . S
C983 H1000 0.931 1_565 S
C984 C981 1.382 . S
C984 C985 1.390 . S
C984 H1001 0.931 . S
C985 C983 1.372 . S
C985 C984 1.390 . S
C985 H1002 0.929 . S
C986 C981 1.390 . S
C986 C982 1.392 1_565 S
C986 H1003 0.930 1_565 S
C987 O972 1.255 . S
C987 O973 1.257 1_565 S
C988 Eu924 2.787 . S
C988 O968 1.252 . S
C988 O971 1.268 . S
C988 C981 1.506 . S
C989 C956 1.439 . S
C989 H966 0.931 . S
C989 C990 1.374 . S
C990 C961 1.387 . S
C990 H967 0.931 . S
C990 C989 1.374 . S
C991 O975 1.249 . S
C991 O976 1.264 . S
C992 C995 1.382 . S
C992 C996 1.390 . S
C992 C999 1.506 . S
C993 C994 1.398 . S
C993 C996 1.392 . S
C994 C993 1.398 . S
C994 C997 1.372 . S
C994 H1004 0.931 . S
C995 C992 1.382 . S
C995 C997 1.390 . S
C995 H1005 0.931 . S
C996 C992 1.390 . S
C996 C993 1.392 . S
C996 H1006 0.930 . S
C997 C994 1.372 . S
C997 C995 1.390 . S
C997 H1007 0.929 . S
C998 O978 1.255 . S
C998 O979 1.257 . S
C999 Eu935 2.787 1_565 S
C999 O974 1.252 . S
C999 O977 1.268 . S
C999 C992 1.506 . S
H1000 C983 0.931 1_545 S
H1001 C984 0.931 . S
H1002 C985 0.929 . S
H1003 C986 0.930 1_545 S
H1004 C994 0.931 . S
H1005 C995 0.931 . S
H1006 C996 0.930 . S
H1007 C997 0.929 . S
Eu1008 N1037 2.600 . S
Eu1008 N1043 2.562 . S
Eu1008 O1052 2.462 . S
Eu1008 O1053 2.373 . S
Eu1008 O1055 2.432 . S
Eu1008 O1056 2.291 . S
Eu1008 O1060 2.335 . S
Eu1008 O1063 2.372 . S
Eu1008 C1072 2.787 . S
C1009 N1010 1.365 . S
C1009 C1012 1.405 . S
C1009 C1016 1.448 . S
N1010 C1009 1.365 . S
N1010 C1013 1.319 . S
N1010 Eu1019 2.600 . S
C1011 C1013 1.397 . S
C1011 C1014 1.367 . S
C1011 H1031 0.931 . S
C1012 C1009 1.405 . S
C1012 C1014 1.403 . S
C1012 C1018 1.439 . S
C1013 N1010 1.319 . S
C1013 C1011 1.397 . S
C1013 H1024 0.930 . S
C1014 C1011 1.367 . S
C1014 C1012 1.403 . S
C1014 H1035 0.929 . S
C1015 C1016 1.430 . S
C1015 C1017 1.387 . S
C1015 C1021 1.404 . S
C1016 C1009 1.448 . S
C1016 C1015 1.430 . S
C1016 N1020 1.351 . S
C1017 C1015 1.387 . S
C1017 C1018 1.374 . S
C1017 H1032 0.931 . S
C1018 C1012 1.439 . S
C1018 C1017 1.374 . S
C1018 H1033 0.931 . S
Eu1019 N1010 2.600 . S
Eu1019 N1020 2.562 . S
Eu1019 O1054 2.335 . S
Eu1019 O1057 2.372 . S
Eu1019 O1058 2.462 . S
Eu1019 O1059 2.373 . S
Eu1019 O1061 2.432 . S
Eu1019 O1062 2.291 . S
Eu1019 C1083 2.787 . S
N1020 C1016 1.351 . S
N1020 Eu1019 2.562 . S
N1020 C1022 1.325 . S
C1021 C1015 1.404 . S
C1021 C1023 1.366 . S
C1021 H1029 0.930 . S
C1022 N1020 1.325 . S
C1022 C1023 1.416 . S
C1022 H1028 0.929 . S
C1023 C1021 1.366 . S
C1023 C1022 1.416 . S
C1023 H1025 0.930 . S
H1024 C1013 0.930 . S
H1025 C1023 0.930 . S
H1026 C1041 0.930 . S
H1027 C1048 0.930 . S
H1028 C1022 0.929 . S
H1029 C1021 0.930 . S
H1030 C1044 0.929 . S
H1031 C1011 0.931 . S
H1032 C1017 0.931 . S
H1033 C1018 0.931 . S
H1034 C1039 0.931 . S
H1035 C1014 0.929 . S
H1036 C1047 0.930 . S
N1037 Eu1008 2.600 . S
N1037 C1038 1.365 . S
N1037 C1041 1.319 . S
C1038 N1037 1.365 . S
C1038 C1040 1.405 . S
C1038 C1046 1.448 . S
C1039 H1034 0.931 . S
C1039 C1041 1.397 1_655 S
C1039 C1042 1.367 . S
C1040 C1038 1.405 . S
C1040 C1042 1.403 1_455 S
C1040 C1073 1.439 . S
C1041 H1026 0.930 . S
C1041 N1037 1.319 . S
C1041 C1039 1.397 1_455 S
C1042 C1039 1.367 . S
C1042 C1040 1.403 1_655 S
C1042 H1049 0.929 . S
N1043 Eu1008 2.562 . S
N1043 C1044 1.325 . S
N1043 C1046 1.351 . S
C1044 H1030 0.929 . S
C1044 N1043 1.325 . S
C1044 C1048 1.416 . S
C1045 C1046 1.430 . S
C1045 C1047 1.404 . S
C1045 C1074 1.387 . S
C1046 C1038 1.448 . S
C1046 N1043 1.351 . S
C1046 C1045 1.430 . S
C1047 H1036 0.930 . S
C1047 C1045 1.404 . S
C1047 C1048 1.366 . S
C1048 H1027 0.930 . S
C1048 C1044 1.416 . S
C1048 C1047 1.366 . S
H1049 C1042 0.929 . S
H1050 C1073 0.931 . S
H1051 C1074 0.931 . S
O1052 Eu1008 2.462 . S
O1052 C1072 1.252 . S
O1053 Eu1008 2.373 . S
O1053 C1064 1.249 . S
O1054 Eu1019 2.335 . S
O1054 C1064 1.264 . S
O1055 Eu1008 2.432 . S
O1055 C1072 1.268 . S
O1056 Eu1008 2.291 . S
O1056 C1071 1.255 . S
O1057 Eu1019 2.372 . S
O1057 C1071 1.257 . S
O1058 Eu1019 2.462 . S
O1058 C1083 1.252 . S
O1059 Eu1019 2.373 . S
O1059 C1075 1.249 . S
O1060 Eu1008 2.335 . S
O1060 C1075 1.264 . S
O1061 Eu1019 2.432 . S
O1061 C1083 1.268 . S
O1062 Eu1019 2.291 . S
O1062 C1082 1.255 . S
O1063 Eu1008 2.372 . S
O1063 C1082 1.257 . S
C1064 O1053 1.249 . S
C1064 O1054 1.264 . S
C1065 C1068 1.382 . S
C1065 C1070 1.390 . S
C1065 C1072 1.506 . S
C1066 C1067 1.398 . S
C1066 C1070 1.392 . S
C1067 C1066 1.398 . S
C1067 C1069 1.372 . S
C1067 H1084 0.931 . S
C1068 C1065 1.382 . S
C1068 C1069 1.390 . S
C1068 H1085 0.931 . S
C1069 C1067 1.372 . S
C1069 C1068 1.390 . S
C1069 H1086 0.929 . S
C1070 C1065 1.390 . S
C1070 C1066 1.392 . S
C1070 H1087 0.930 . S
C1071 O1056 1.255 . S
C1071 O1057 1.257 . S
C1072 Eu1008 2.787 . S
C1072 O1052 1.252 . S
C1072 O1055 1.268 . S
C1072 C1065 1.506 . S
C1073 C1040 1.439 . S
C1073 H1050 0.931 . S
C1073 C1074 1.374 . S
C1074 C1045 1.387 . S
C1074 H1051 0.931 . S
C1074 C1073 1.374 . S
C1075 O1059 1.249 . S
C1075 O1060 1.264 . S
C1076 C1079 1.382 . S
C1076 C1080 1.390 . S
C1076 C1083 1.506 . S
C1077 C1078 1.398 . S
C1077 C1080 1.392 . S
C1078 C1077 1.398 . S
C1078 C1081 1.372 . S
C1078 H1088 0.931 . S
C1079 C1076 1.382 . S
C1079 C1081 1.390 . S
C1079 H1089 0.931 . S
C1080 C1076 1.390 . S
C1080 C1077 1.392 . S
C1080 H1090 0.930 . S
C1081 C1078 1.372 . S
C1081 C1079 1.390 . S
C1081 H1091 0.929 . S
C1082 O1062 1.255 . S
C1082 O1063 1.257 . S
C1083 Eu1019 2.787 . S
C1083 O1058 1.252 . S
C1083 O1061 1.268 . S
C1083 C1076 1.506 . S
H1084 C1067 0.931 . S
H1085 C1068 0.931 . S
H1086 C1069 0.929 . S
H1087 C1070 0.930 . S
H1088 C1078 0.931 . S
H1089 C1079 0.931 . S
H1090 C1080 0.930 . S
H1091 C1081 0.929 . S
Eu1092 N1121 2.600 . S
Eu1092 N1127 2.562 . S
Eu1092 O1136 2.462 . S
Eu1092 O1137 2.373 . S
Eu1092 O1139 2.432 . S
Eu1092 O1140 2.291 1_565 S
Eu1092 O1144 2.335 . S
Eu1092 O1147 2.372 . S
Eu1092 C1156 2.787 . S
C1093 N1094 1.365 1_455 S
C1093 C1096 1.405 . S
C1093 C1100 1.448 . S
N1094 C1093 1.365 1_655 S
N1094 C1097 1.319 . S
N1094 Eu1103 2.600 . S
C1095 C1097 1.397 . S
C1095 C1098 1.367 1_655 S
C1095 H1115 0.931 . S
C1096 C1093 1.405 . S
C1096 C1098 1.403 . S
C1096 C1102 1.439 . S
C1097 N1094 1.319 . S
C1097 C1095 1.397 . S
C1097 H1108 0.930 . S
C1098 C1095 1.367 1_455 S
C1098 C1096 1.403 . S
C1098 H1119 0.929 . S
C1099 C1100 1.430 . S
C1099 C1101 1.387 . S
C1099 C1105 1.404 . S
C1100 C1093 1.448 . S
C1100 C1099 1.430 . S
C1100 N1104 1.351 . S
C1101 C1099 1.387 . S
C1101 C1102 1.374 . S
C1101 H1116 0.931 . S
C1102 C1096 1.439 . S
C1102 C1101 1.374 . S
C1102 H1117 0.931 . S
Eu1103 N1094 2.600 . S
Eu1103 N1104 2.562 1_655 S
Eu1103 O1138 2.335 1_545 S
Eu1103 O1141 2.372 . S
Eu1103 O1142 2.462 1_545 S
Eu1103 O1143 2.373 . S
Eu1103 O1145 2.432 . S
Eu1103 O1146 2.291 1_545 S
Eu1103 C1167 2.787 1_545 S
N1104 C1100 1.351 . S
N1104 Eu1103 2.562 1_455 S
N1104 C1106 1.325 1_545 S
C1105 C1099 1.404 . S
C1105 C1107 1.366 1_545 S
C1105 H1113 0.930 . S
C1106 N1104 1.325 1_565 S
C1106 C1107 1.416 . S
C1106 H1112 0.929 . S
C1107 C1105 1.366 1_565 S
C1107 C1106 1.416 . S
C1107 H1109 0.930 . S
H1108 C1097 0.930 . S
H1109 C1107 0.930 . S
H1110 C1125 0.930 . S
H1111 C1132 0.930 1_545 S
H1112 C1106 0.929 . S
H1113 C1105 0.930 . S
H1114 C1128 0.929 1_545 S
H1115 C1095 0.931 . S
H1116 C1101 0.931 . S
H1117 C1102 0.931 . S
H1118 C1123 0.931 . S
H1119 C1098 0.929 . S
H1120 C1131 0.930 . S
N1121 Eu1092 2.600 . S
N1121 C1122 1.365 . S
N1121 C1125 1.319 . S
C1122 N1121 1.365 . S
C1122 C1124 1.405 . S
C1122 C1130 1.448 . S
C1123 H1118 0.931 . S
C1123 C1125 1.397 . S
C1123 C1126 1.367 . S
C1124 C1122 1.405 . S
C1124 C1126 1.403 . S
C1124 C1157 1.439 . S
C1125 H1110 0.930 . S
C1125 N1121 1.319 . S
C1125 C1123 1.397 . S
C1126 C1123 1.367 . S
C1126 C1124 1.403 . S
C1126 H1133 0.929 . S
N1127 Eu1092 2.562 . S
N1127 C1128 1.325 . S
N1127 C1130 1.351 . S
C1128 H1114 0.929 1_565 S
C1128 N1127 1.325 . S
C1128 C1132 1.416 . S
C1129 C1130 1.430 . S
C1129 C1131 1.404 . S
C1129 C1158 1.387 . S
C1130 C1122 1.448 . S
C1130 N1127 1.351 . S
C1130 C1129 1.430 . S
C1131 H1120 0.930 . S
C1131 C1129 1.404 . S
C1131 C1132 1.366 . S
C1132 H1111 0.930 1_565 S
C1132 C1128 1.416 . S
C1132 C1131 1.366 . S
H1133 C1126 0.929 . S
H1134 C1157 0.931 . S
H1135 C1158 0.931 . S
O1136 Eu1092 2.462 . S
O1136 C1156 1.252 . S
O1137 Eu1092 2.373 . S
O1137 C1148 1.249 . S
O1138 Eu1103 2.335 1_565 S
O1138 C1148 1.264 . S
O1139 Eu1092 2.432 . S
O1139 C1156 1.268 . S
O1140 Eu1092 2.291 1_545 S
O1140 C1155 1.255 . S
O1141 Eu1103 2.372 . S
O1141 C1155 1.257 . S
O1142 Eu1103 2.462 1_565 S
O1142 C1167 1.252 . S
O1143 Eu1103 2.373 . S
O1143 C1159 1.249 . S
O1144 Eu1092 2.335 . S
O1144 C1159 1.264 1_565 S
O1145 Eu1103 2.432 . S
O1145 C1167 1.268 1_545 S
O1146 Eu1103 2.291 1_565 S
O1146 C1166 1.255 . S
O1147 Eu1092 2.372 . S
O1147 C1166 1.257 . S
C1148 O1137 1.249 . S
C1148 O1138 1.264 . S
C1149 C1152 1.382 . S
C1149 C1154 1.390 . S
C1149 C1156 1.506 . S
C1150 C1151 1.398 . S
C1150 C1154 1.392 . S
C1151 C1150 1.398 . S
C1151 C1153 1.372 . S
C1151 H1168 0.931 . S
C1152 C1149 1.382 . S
C1152 C1153 1.390 . S
C1152 H1169 0.931 . S
C1153 C1151 1.372 . S
C1153 C1152 1.390 . S
C1153 H1170 0.929 . S
C1154 C1149 1.390 . S
C1154 C1150 1.392 . S
C1154 H1171 0.930 1_565 S
C1155 O1140 1.255 . S
C1155 O1141 1.257 . S
C1156 Eu1092 2.787 . S
C1156 O1136 1.252 . S
C1156 O1139 1.268 . S
C1156 C1149 1.506 . S
C1157 C1124 1.439 . S
C1157 H1134 0.931 . S
C1157 C1158 1.374 . S
C1158 C1129 1.387 . S
C1158 H1135 0.931 . S
C1158 C1157 1.374 . S
C1159 O1143 1.249 . S
C1159 O1144 1.264 1_545 S
C1160 C1163 1.382 1_565 S
C1160 C1164 1.390 . S
C1160 C1167 1.506 . S
C1161 C1162 1.406 . S
C1161 C1164 1.378 1_556 S
C1162 C1161 1.406 . S
C1162 C1165 1.372 1_565 S
C1162 H1172 0.931 . S
C1163 C1160 1.382 1_545 S
C1163 C1165 1.390 1_554 S
C1163 H1173 0.931 . S
C1164 C1160 1.390 . S
C1164 C1161 1.378 1_554 S
C1164 H1174 0.930 . S
C1165 C1162 1.372 1_545 S
C1165 C1163 1.390 1_556 S
C1165 H1175 0.929 . S
C1166 O1146 1.255 . S
C1166 O1147 1.257 . S
C1167 Eu1103 2.787 1_565 S
C1167 O1142 1.252 . S
C1167 O1145 1.268 1_565 S
C1167 C1160 1.506 . S
H1168 C1151 0.931 . S
H1169 C1152 0.931 . S
H1170 C1153 0.929 . S
H1171 C1154 0.930 1_545 S
H1172 C1162 0.931 . S
H1173 C1163 0.931 . S
H1174 C1164 0.930 . S
H1175 C1165 0.929 . S
Eu1176 N1205 2.600 . S
Eu1176 N1211 2.562 . S
Eu1176 O1220 2.462 . S
Eu1176 O1221 2.373 . S
Eu1176 O1223 2.432 . S
Eu1176 O1224 2.291 . S
Eu1176 O1228 2.335 . S
Eu1176 O1231 2.372 . S
Eu1176 C1240 2.787 . S
C1177 N1178 1.365 . S
C1177 C1180 1.405 . S
C1177 C1184 1.448 . S
N1178 C1177 1.365 . S
N1178 C1181 1.319 . S
N1178 Eu1187 2.600 . S
C1179 C1181 1.397 . S
C1179 C1182 1.367 . S
C1179 H1199 0.931 . S
C1180 C1177 1.405 . S
C1180 C1182 1.403 . S
C1180 C1186 1.439 . S
C1181 N1178 1.319 . S
C1181 C1179 1.397 . S
C1181 H1192 0.930 . S
C1182 C1179 1.367 . S
C1182 C1180 1.403 . S
C1182 H1203 0.929 . S
C1183 C1184 1.430 . S
C1183 C1185 1.387 . S
C1183 C1189 1.404 . S
C1184 C1177 1.448 . S
C1184 C1183 1.430 . S
C1184 N1188 1.351 . S
C1185 C1183 1.387 . S
C1185 C1186 1.374 . S
C1185 H1200 0.931 . S
C1186 C1180 1.439 . S
C1186 C1185 1.374 . S
C1186 H1201 0.931 . S
Eu1187 N1178 2.600 . S
Eu1187 N1188 2.562 . S
Eu1187 O1222 2.335 . S
Eu1187 O1225 2.372 . S
Eu1187 O1226 2.462 . S
Eu1187 O1227 2.373 . S
Eu1187 O1229 2.432 . S
Eu1187 O1230 2.291 . S
Eu1187 C1251 2.787 . S
N1188 C1184 1.351 . S
N1188 Eu1187 2.562 . S
N1188 C1190 1.325 . S
C1189 C1183 1.404 . S
C1189 C1191 1.366 . S
C1189 H1197 0.930 . S
C1190 N1188 1.325 . S
C1190 C1191 1.416 . S
C1190 H1196 0.929 . S
C1191 C1189 1.366 . S
C1191 C1190 1.416 . S
C1191 H1193 0.930 . S
H1192 C1181 0.930 . S
H1193 C1191 0.930 . S
H1194 C1209 0.930 . S
H1195 C1216 0.930 . S
H1196 C1190 0.929 . S
H1197 C1189 0.930 . S
H1198 C1212 0.929 . S
H1199 C1179 0.931 . S
H1200 C1185 0.931 . S
H1201 C1186 0.931 . S
H1202 C1207 0.931 . S
H1203 C1182 0.929 . S
H1204 C1215 0.930 . S
N1205 Eu1176 2.600 . S
N1205 C1206 1.365 . S
N1205 C1209 1.319 . S
C1206 N1205 1.365 . S
C1206 C1208 1.405 . S
C1206 C1214 1.448 . S
C1207 H1202 0.931 . S
C1207 C1209 1.397 . S
C1207 C1210 1.367 . S
C1208 C1206 1.405 . S
C1208 C1210 1.403 . S
C1208 C1241 1.439 . S
C1209 H1194 0.930 . S
C1209 N1205 1.319 . S
C1209 C1207 1.397 . S
C1210 C1207 1.367 . S
C1210 C1208 1.403 . S
C1210 H1217 0.929 . S
N1211 Eu1176 2.562 . S
N1211 C1212 1.325 . S
N1211 C1214 1.351 . S
C1212 H1198 0.929 . S
C1212 N1211 1.325 . S
C1212 C1216 1.416 . S
C1213 C1214 1.430 . S
C1213 C1215 1.404 . S
C1213 C1242 1.387 . S
C1214 C1206 1.448 . S
C1214 N1211 1.351 . S
C1214 C1213 1.430 . S
C1215 H1204 0.930 . S
C1215 C1213 1.404 . S
C1215 C1216 1.366 . S
C1216 H1195 0.930 . S
C1216 C1212 1.416 . S
C1216 C1215 1.366 . S
H1217 C1210 0.929 . S
H1218 C1241 0.931 . S
H1219 C1242 0.931 . S
O1220 Eu1176 2.462 . S
O1220 C1240 1.252 . S
O1221 Eu1176 2.373 . S
O1221 C1232 1.249 . S
O1222 Eu1187 2.335 . S
O1222 C1232 1.264 . S
O1223 Eu1176 2.432 . S
O1223 C1240 1.268 . S
O1224 Eu1176 2.291 . S
O1224 C1239 1.255 . S
O1225 Eu1187 2.372 . S
O1225 C1239 1.257 . S
O1226 Eu1187 2.462 . S
O1226 C1251 1.252 . S
O1227 Eu1187 2.373 . S
O1227 C1243 1.249 . S
O1228 Eu1176 2.335 . S
O1228 C1243 1.264 . S
O1229 Eu1187 2.432 . S
O1229 C1251 1.268 . S
O1230 Eu1187 2.291 . S
O1230 C1250 1.255 . S
O1231 Eu1176 2.372 . S
O1231 C1250 1.257 . S
C1232 O1221 1.249 . S
C1232 O1222 1.264 . S
C1233 C1236 1.382 . S
C1233 C1238 1.390 . S
C1233 C1240 1.506 . S
C1234 C1235 1.398 . S
C1234 C1238 1.392 . S
C1235 C1234 1.398 . S
C1235 C1237 1.372 . S
C1235 H1252 0.931 1_556 S
C1236 C1233 1.382 . S
C1236 C1237 1.390 . S
C1236 H1253 0.931 . S
C1237 C1235 1.372 . S
C1237 C1236 1.390 . S
C1237 H1254 0.929 . S
C1238 C1233 1.390 . S
C1238 C1234 1.392 . S
C1238 H1255 0.930 . S
C1239 O1224 1.255 . S
C1239 O1225 1.257 . S
C1240 Eu1176 2.787 . S
C1240 O1220 1.252 . S
C1240 O1223 1.268 . S
C1240 C1233 1.506 . S
C1241 C1208 1.439 . S
C1241 H1218 0.931 . S
C1241 C1242 1.374 . S
C1242 C1213 1.387 . S
C1242 H1219 0.931 . S
C1242 C1241 1.374 . S
C1243 O1227 1.249 . S
C1243 O1228 1.264 . S
C1244 C1247 1.382 . S
C1244 C1248 1.390 . S
C1244 C1251 1.506 . S
C1245 C1246 1.398 . S
C1245 C1248 1.392 . S
C1246 C1245 1.398 . S
C1246 C1249 1.372 . S
C1246 H1256 0.931 . S
C1247 C1244 1.382 . S
C1247 C1249 1.390 . S
C1247 H1257 0.931 . S
C1248 C1244 1.390 . S
C1248 C1245 1.392 . S
C1248 H1258 0.930 . S
C1249 C1246 1.372 . S
C1249 C1247 1.390 . S
C1249 H1259 0.929 . S
C1250 O1230 1.255 . S
C1250 O1231 1.257 . S
C1251 Eu1187 2.787 . S
C1251 O1226 1.252 . S
C1251 O1229 1.268 . S
C1251 C1244 1.506 . S
H1252 C1235 0.931 1_554 S
H1253 C1236 0.931 . S
H1254 C1237 0.929 . S
H1255 C1238 0.930 . S
H1256 C1246 0.931 . S
H1257 C1247 0.931 . S
H1258 C1248 0.930 . S
H1259 C1249 0.929 . S
Eu1260 N1289 2.600 . S
Eu1260 N1295 2.562 . S
Eu1260 O1304 2.462 1_565 S
Eu1260 O1305 2.373 . S
Eu1260 O1307 2.432 1_565 S
Eu1260 O1308 2.291 1_565 S
Eu1260 O1312 2.335 1_565 S
Eu1260 O1315 2.372 . S
Eu1260 C1324 2.787 1_565 S
C1261 N1262 1.365 . S
C1261 C1264 1.405 . S
C1261 C1268 1.448 . S
N1262 C1261 1.365 . S
N1262 C1265 1.319 . S
N1262 Eu1271 2.600 . S
C1263 C1265 1.397 . S
C1263 C1266 1.367 . S
C1263 H1283 0.931 . S
C1264 C1261 1.405 . S
C1264 C1266 1.403 . S
C1264 C1270 1.439 . S
C1265 N1262 1.319 . S
C1265 C1263 1.397 . S
C1265 H1276 0.930 . S
C1266 C1263 1.367 . S
C1266 C1264 1.403 . S
C1266 H1287 0.929 . S
C1267 C1268 1.430 . S
C1267 C1269 1.387 . S
C1267 C1273 1.404 . S
C1268 C1261 1.448 . S
C1268 C1267 1.430 . S
C1268 N1272 1.351 . S
C1269 C1267 1.387 . S
C1269 C1270 1.374 . S
C1269 H1284 0.931 . S
C1270 C1264 1.439 . S
C1270 C1269 1.374 . S
C1270 H1285 0.931 . S
Eu1271 N1262 2.600 . S
Eu1271 N1272 2.562 . S
Eu1271 O1306 2.335 1_545 S
Eu1271 O1309 2.372 . S
Eu1271 O1310 2.462 . S
Eu1271 O1311 2.373 . S
Eu1271 O1313 2.432 . S
Eu1271 O1314 2.291 . S
Eu1271 C1335 2.787 . S
N1272 C1268 1.351 . S
N1272 Eu1271 2.562 . S
N1272 C1274 1.325 . S
C1273 C1267 1.404 . S
C1273 C1275 1.366 . S
C1273 H1281 0.930 . S
C1274 N1272 1.325 . S
C1274 C1275 1.416 . S
C1274 H1280 0.929 . S
C1275 C1273 1.366 . S
C1275 C1274 1.416 . S
C1275 H1277 0.930 . S
H1276 C1265 0.930 . S
H1277 C1275 0.930 . S
H1278 C1293 0.930 . S
H1279 C1300 0.930 . S
H1280 C1274 0.929 . S
H1281 C1273 0.930 . S
H1282 C1296 0.929 . S
H1283 C1263 0.931 . S
H1284 C1269 0.931 . S
H1285 C1270 0.931 . S
H1286 C1291 0.931 . S
H1287 C1266 0.929 . S
H1288 C1299 0.930 . S
N1289 Eu1260 2.600 . S
N1289 C1290 1.365 . S
N1289 C1293 1.319 . S
C1290 N1289 1.365 . S
C1290 C1292 1.405 . S
C1290 C1298 1.448 . S
C1291 H1286 0.931 . S
C1291 C1293 1.397 . S
C1291 C1294 1.367 . S
C1292 C1290 1.405 . S
C1292 C1294 1.403 . S
C1292 C1325 1.439 . S
C1293 H1278 0.930 . S
C1293 N1289 1.319 . S
C1293 C1291 1.397 . S
C1294 C1291 1.367 . S
C1294 C1292 1.403 . S
C1294 H1301 0.929 . S
N1295 Eu1260 2.562 . S
N1295 C1296 1.325 . S
N1295 C1298 1.351 . S
C1296 H1282 0.929 . S
C1296 N1295 1.325 . S
C1296 C1300 1.416 . S
C1297 C1298 1.430 . S
C1297 C1299 1.404 . S
C1297 C1326 1.387 . S
C1298 C1290 1.448 . S
C1298 N1295 1.351 . S
C1298 C1297 1.430 . S
C1299 H1288 0.930 . S
C1299 C1297 1.404 . S
C1299 C1300 1.366 . S
C1300 H1279 0.930 . S
C1300 C1296 1.416 . S
C1300 C1299 1.366 . S
H1301 C1294 0.929 . S
H1302 C1325 0.931 . S
H1303 C1326 0.931 . S
O1304 Eu1260 2.462 1_545 S
O1304 C1324 1.252 . S
O1305 Eu1260 2.373 . S
O1305 C1316 1.249 . S
O1306 Eu1271 2.335 1_565 S
O1306 C1316 1.264 . S
O1307 Eu1260 2.432 1_545 S
O1307 C1324 1.268 . S
O1308 Eu1260 2.291 1_545 S
O1308 C1323 1.255 . S
O1309 Eu1271 2.372 . S
O1309 C1323 1.257 . S
O1310 Eu1271 2.462 . S
O1310 C1335 1.252 . S
O1311 Eu1271 2.373 . S
O1311 C1327 1.249 . S
O1312 Eu1260 2.335 1_545 S
O1312 C1327 1.264 . S
O1313 Eu1271 2.432 . S
O1313 C1335 1.268 . S
O1314 Eu1271 2.291 . S
O1314 C1334 1.255 . S
O1315 Eu1260 2.372 . S
O1315 C1334 1.257 1_565 S
C1316 O1305 1.249 . S
C1316 O1306 1.264 . S
C1317 C1320 1.382 . S
C1317 C1322 1.390 . S
C1317 C1324 1.506 . S
C1318 C1319 1.398 . S
C1318 C1322 1.392 . S
C1319 C1318 1.398 . S
C1319 C1321 1.372 . S
C1319 H1336 0.931 . S
C1320 C1317 1.382 . S
C1320 C1321 1.390 . S
C1320 H1337 0.931 . S
C1321 C1319 1.372 . S
C1321 C1320 1.390 . S
C1321 H1338 0.929 . S
C1322 C1317 1.390 . S
C1322 C1318 1.392 . S
C1322 H1339 0.930 . S
C1323 O1308 1.255 . S
C1323 O1309 1.257 . S
C1324 Eu1260 2.787 1_545 S
C1324 O1304 1.252 . S
C1324 O1307 1.268 . S
C1324 C1317 1.506 . S
C1325 C1292 1.439 . S
C1325 H1302 0.931 . S
C1325 C1326 1.374 . S
C1326 C1297 1.387 . S
C1326 H1303 0.931 . S
C1326 C1325 1.374 . S
C1327 O1311 1.249 . S
C1327 O1312 1.264 . S
C1328 C1331 1.382 . S
C1328 C1332 1.390 . S
C1328 C1335 1.506 . S
C1329 C1330 1.398 1_565 S
C1329 C1332 1.392 1_565 S
C1330 C1329 1.398 1_545 S
C1330 C1333 1.372 . S
C1330 H1340 0.931 1_545 S
C1331 C1328 1.382 . S
C1331 C1333 1.390 . S
C1331 H1341 0.931 . S
C1332 C1328 1.390 . S
C1332 C1329 1.392 1_545 S
C1332 H1342 0.930 1_545 S
C1333 C1330 1.372 . S
C1333 C1331 1.390 . S
C1333 H1343 0.929 . S
C1334 O1314 1.255 . S
C1334 O1315 1.257 1_545 S
C1335 Eu1271 2.787 . S
C1335 O1310 1.252 . S
C1335 O1313 1.268 . S
C1335 C1328 1.506 . S
H1336 C1319 0.931 . S
H1337 C1320 0.931 . S
H1338 C1321 0.929 . S
H1339 C1322 0.930 . S
H1340 C1330 0.931 1_565 S
H1341 C1331 0.931 . S
H1342 C1332 0.930 1_565 S
H1343 C1333 0.929 . S
C1344 C1345 1.369 . S
C1344 C1346 1.419 . S
C1344 H1348 0.930 . S
C1345 C1344 1.369 . S
C1345 C1354 1.429 . S
C1346 C1344 1.419 . S
C1346 C1347 1.363 . S
C1346 H1349 0.929 . S
C1347 C1346 1.363 . S
C1347 C1353 1.428 . S
H1348 C1344 0.930 . S
H1349 C1346 0.929 . S
S1350 N1351 1.613 . S
S1350 N1352 1.610 . S
N1351 S1350 1.613 . S
N1351 C1354 1.350 . S
N1352 S1350 1.610 . S
N1352 C1353 1.351 . S
C1353 C1347 1.428 . S
C1353 N1352 1.351 . S
C1353 C1354 1.434 . S
C1354 C1345 1.429 . S
C1354 N1351 1.350 . S
C1354 C1353 1.434 . S
C1355 C1356 1.369 . S
C1355 C1357 1.419 . S
C1355 H1359 0.930 . S
C1356 C1355 1.369 . S
C1356 C1365 1.429 . S
C1357 C1355 1.419 . S
C1357 C1358 1.363 . S
C1357 H1360 0.929 . S
C1358 C1357 1.363 . S
C1358 C1364 1.428 . S
H1359 C1355 0.930 . S
H1360 C1357 0.929 . S
S1361 N1362 1.613 . S
S1361 N1363 1.610 . S
N1362 S1361 1.613 . S
N1362 C1365 1.350 . S
N1363 S1361 1.610 . S
N1363 C1364 1.351 . S
C1364 C1358 1.428 . S
C1364 N1363 1.351 . S
C1364 C1365 1.434 . S
C1365 C1356 1.429 . S
C1365 N1362 1.350 . S
C1365 C1364 1.434 . S
C1366 C1367 1.369 . S
C1366 C1368 1.419 . S
C1366 H1370 0.930 . S
C1367 C1366 1.369 . S
C1367 C1376 1.429 . S
C1368 C1366 1.419 . S
C1368 C1369 1.363 . S
C1368 H1371 0.929 . S
C1369 C1368 1.363 . S
C1369 C1375 1.428 . S
H1370 C1366 0.930 . S
H1371 C1368 0.929 . S
S1372 N1373 1.613 . S
S1372 N1374 1.610 . S
N1373 S1372 1.613 . S
N1373 C1376 1.350 . S
N1374 S1372 1.610 . S
N1374 C1375 1.351 . S
C1375 C1369 1.428 . S
C1375 N1374 1.351 . S
C1375 C1376 1.434 . S
C1376 C1367 1.429 . S
C1376 N1373 1.350 . S
C1376 C1375 1.434 . S
C1377 C1378 1.369 . S
C1377 C1379 1.419 . S
C1377 H1381 0.930 . S
C1378 C1377 1.369 . S
C1378 C1387 1.429 1_654 S
C1379 C1377 1.419 . S
C1379 C1380 1.363 1_654 S
C1379 H1382 0.929 . S
C1380 C1379 1.363 1_456 S
C1380 C1386 1.428 . S
H1381 C1377 0.930 . S
H1382 C1379 0.929 . S
S1383 N1384 1.613 . S
S1383 N1385 1.610 . S
N1384 S1383 1.613 . S
N1384 C1387 1.350 . S
N1385 S1383 1.610 . S
N1385 C1386 1.351 . S
C1386 C1380 1.428 . S
C1386 N1385 1.351 . S
C1386 C1387 1.434 . S
C1387 C1378 1.429 1_456 S
C1387 N1384 1.350 . S
C1387 C1386 1.434 . S
C1388 C1389 1.369 . S
C1388 C1390 1.419 . S
C1388 H1392 0.930 . S
C1389 C1388 1.369 . S
C1389 C1398 1.429 . S
C1390 C1388 1.419 . S
C1390 C1391 1.363 . S
C1390 H1393 0.929 . S
C1391 C1390 1.363 . S
C1391 C1397 1.428 . S
H1392 C1388 0.930 . S
H1393 C1390 0.929 . S
S1394 N1395 1.613 . S
S1394 N1396 1.610 . S
N1395 S1394 1.613 . S
N1395 C1398 1.350 . S
N1396 S1394 1.610 . S
N1396 C1397 1.351 . S
C1397 C1391 1.428 . S
C1397 N1396 1.351 . S
C1397 C1398 1.434 . S
C1398 C1389 1.429 . S
C1398 N1395 1.350 . S
C1398 C1397 1.434 . S
C1399 C1400 1.369 . S
C1399 C1401 1.419 . S
C1399 H1403 0.930 . S
C1400 C1399 1.369 . S
C1400 C1409 1.429 . S
C1401 C1399 1.419 . S
C1401 C1402 1.363 . S
C1401 H1404 0.929 . S
C1402 C1401 1.363 . S
C1402 C1408 1.428 . S
H1403 C1399 0.930 . S
H1404 C1401 0.929 . S
S1405 N1406 1.613 . S
S1405 N1407 1.610 . S
N1406 S1405 1.613 . S
N1406 C1409 1.350 . S
N1407 S1405 1.610 . S
N1407 C1408 1.351 . S
C1408 C1402 1.428 . S
C1408 N1407 1.351 . S
C1408 C1409 1.434 . S
C1409 C1400 1.429 . S
C1409 N1406 1.350 . S
C1409 C1408 1.434 . S
C1410 C1411 1.369 1_454 S
C1410 C1412 1.419 1_565 S
C1410 H1414 0.930 . S
C1411 C1410 1.369 1_656 S
C1411 C1420 1.429 . S
C1412 C1410 1.419 1_545 S
C1412 C1413 1.363 . S
C1412 H1415 0.929 . S
C1413 C1412 1.363 . S
C1413 C1419 1.428 1_454 S
H1414 C1410 0.930 . S
H1415 C1412 0.929 . S
S1416 N1417 1.613 1_545 S
S1416 N1418 1.610 . S
N1417 S1416 1.613 1_565 S
N1417 C1420 1.350 . S
N1418 S1416 1.610 . S
N1418 C1419 1.351 . S
C1419 C1413 1.428 1_656 S
C1419 N1418 1.351 . S
C1419 C1420 1.434 1_545 S
C1420 C1411 1.429 . S
C1420 N1417 1.350 . S
C1420 C1419 1.434 1_565 S
C1421 C1422 1.369 . S
C1421 C1423 1.419 1_565 S
C1421 H1425 0.930 . S
C1422 C1421 1.369 . S
C1422 C1431 1.429 . S
C1423 C1421 1.419 1_545 S
C1423 C1424 1.363 . S
C1423 H1426 0.929 . S
C1424 C1423 1.363 . S
C1424 C1430 1.428 . S
H1425 C1421 0.930 . S
H1426 C1423 0.929 . S
S1427 N1428 1.613 . S
S1427 N1429 1.610 1_565 S
N1428 S1427 1.613 . S
N1428 C1431 1.350 . S
N1429 S1427 1.610 1_545 S
N1429 C1430 1.351 . S
C1430 C1424 1.428 . S
C1430 N1429 1.351 . S
C1430 C1431 1.434 1_545 S
C1431 C1422 1.429 . S
C1431 N1428 1.350 . S
C1431 C1430 1.434 1_565 S
C1432 C1433 1.369 . S
C1432 C1434 1.419 . S
C1432 H1436 0.930 . S
C1433 C1432 1.369 . S
C1433 C1442 1.429 . S
C1434 C1432 1.419 . S
C1434 C1435 1.363 . S
C1434 H1437 0.929 . S
C1435 C1434 1.363 . S
C1435 C1441 1.428 . S
H1436 C1432 0.930 . S
H1437 C1434 0.929 . S
S1438 N1439 1.613 . S
S1438 N1440 1.610 . S
N1439 S1438 1.613 . S
N1439 C1442 1.350 1_565 S
N1440 S1438 1.610 . S
N1440 C1441 1.351 1_565 S
C1441 C1435 1.428 . S
C1441 N1440 1.351 1_545 S
C1441 C1442 1.434 . S
C1442 C1433 1.429 . S
C1442 N1439 1.350 1_545 S
C1442 C1441 1.434 . S
C1443 C1444 1.369 . S
C1443 C1445 1.419 . S
C1443 H1447 0.930 . S
C1444 C1443 1.369 . S
C1444 C1453 1.429 . S
C1445 C1443 1.419 . S
C1445 C1446 1.363 . S
C1445 H1448 0.929 . S
C1446 C1445 1.363 . S
C1446 C1452 1.428 . S
H1447 C1443 0.930 . S
H1448 C1445 0.929 . S
S1449 N1450 1.613 . S
S1449 N1451 1.610 . S
N1450 S1449 1.613 . S
N1450 C1453 1.350 . S
N1451 S1449 1.610 . S
N1451 C1452 1.351 . S
C1452 C1446 1.428 . S
C1452 N1451 1.351 . S
C1452 C1453 1.434 . S
C1453 C1444 1.429 . S
C1453 N1450 1.350 . S
C1453 C1452 1.434 . S
C1454 C1455 1.369 . S
C1454 C1456 1.419 . S
C1454 H1458 0.930 . S
C1455 C1454 1.369 . S
C1455 C1464 1.429 1_565 S
C1456 C1454 1.419 . S
C1456 C1457 1.363 . S
C1456 H1459 0.929 . S
C1457 C1456 1.363 . S
C1457 C1463 1.428 . S
H1458 C1454 0.930 . S
H1459 C1456 0.929 . S
S1460 N1461 1.613 . S
S1460 N1462 1.610 . S
N1461 S1460 1.613 . S
N1461 C1464 1.350 . S
N1462 S1460 1.610 . S
N1462 C1463 1.351 1_545 S
C1463 C1457 1.428 . S
C1463 N1462 1.351 1_565 S
C1463 C1464 1.434 1_565 S
C1464 C1455 1.429 1_545 S
C1464 N1461 1.350 . S
C1464 C1463 1.434 1_545 S
C1465 C1466 1.369 . S
C1465 C1467 1.419 . S
C1465 H1469 0.930 . S
C1466 C1465 1.369 . S
C1466 C1475 1.429 . S
C1467 C1465 1.419 . S
C1467 C1468 1.363 . S
C1467 H1470 0.929 . S
C1468 C1467 1.363 . S
C1468 C1474 1.428 . S
H1469 C1465 0.930 . S
H1470 C1467 0.929 . S
S1471 N1472 1.613 . S
S1471 N1473 1.610 . S
N1472 S1471 1.613 . S
N1472 C1475 1.350 . S
N1473 S1471 1.610 . S
N1473 C1474 1.351 . S
C1474 C1468 1.428 . S
C1474 N1473 1.351 . S
C1474 C1475 1.434 . S
C1475 C1466 1.429 . S
C1475 N1472 1.350 . S
C1475 C1474 1.434 . S
C1476 C1477 1.369 . S
C1476 C1478 1.419 . S
C1476 H1480 0.930 . S
C1477 C1476 1.369 . S
C1477 C1486 1.429 . S
C1478 C1476 1.419 . S
C1478 C1479 1.363 . S
C1478 H1481 0.929 . S
C1479 C1478 1.363 . S
C1479 C1485 1.428 . S
H1480 C1476 0.930 . S
H1481 C1478 0.929 . S
S1482 N1483 1.613 . S
S1482 N1484 1.610 . S
N1483 S1482 1.613 . S
N1483 C1486 1.350 . S
N1484 S1482 1.610 . S
N1484 C1485 1.351 . S
C1485 C1479 1.428 . S
C1485 N1484 1.351 . S
C1485 C1486 1.434 . S
C1486 C1477 1.429 . S
C1486 N1483 1.350 . S
C1486 C1485 1.434 . S
C1487 C1488 1.369 . S
C1487 C1489 1.419 . S
C1487 H1491 0.930 . S
C1488 C1487 1.369 . S
C1488 C1497 1.429 . S
C1489 C1487 1.419 . S
C1489 C1490 1.363 . S
C1489 H1492 0.929 . S
C1490 C1489 1.363 . S
C1490 C1496 1.428 . S
H1491 C1487 0.930 . S
H1492 C1489 0.929 . S
S1493 N1494 1.613 . S
S1493 N1495 1.610 . S
N1494 S1493 1.613 . S
N1494 C1497 1.350 . S
N1495 S1493 1.610 . S
N1495 C1496 1.351 . S
C1496 C1490 1.428 . S
C1496 N1495 1.351 . S
C1496 C1497 1.434 . S
C1497 C1488 1.429 . S
C1497 N1494 1.350 . S
C1497 C1496 1.434 . S
C1498 C1499 1.369 . S
C1498 C1500 1.419 . S
C1498 H1502 0.930 . S
C1499 C1498 1.369 . S
C1499 C1508 1.429 . S
C1500 C1498 1.419 . S
C1500 C1501 1.363 . S
C1500 H1503 0.929 . S
C1501 C1500 1.363 . S
C1501 C1507 1.428 . S
H1502 C1498 0.930 . S
H1503 C1500 0.929 . S
S1504 N1505 1.613 . S
S1504 N1506 1.610 . S
N1505 S1504 1.613 . S
N1505 C1508 1.350 1_565 S
N1506 S1504 1.610 . S
N1506 C1507 1.351 1_565 S
C1507 C1501 1.428 . S
C1507 N1506 1.351 1_545 S
C1507 C1508 1.434 . S
C1508 C1499 1.429 . S
C1508 N1505 1.350 1_545 S
C1508 C1507 1.434 . S
C1509 C1510 1.369 . S
C1509 C1511 1.419 . S
C1509 H1513 0.930 . S
C1510 C1509 1.369 . S
C1510 C1519 1.429 . S
C1511 C1509 1.419 . S
C1511 C1512 1.363 . S
C1511 H1514 0.929 . S
C1512 C1511 1.363 . S
C1512 C1518 1.428 . S
H1513 C1509 0.930 . S
H1514 C1511 0.929 . S
S1515 N1516 1.613 . S
S1515 N1517 1.610 . S
N1516 S1515 1.613 . S
N1516 C1519 1.350 . S
N1517 S1515 1.610 . S
N1517 C1518 1.351 . S
C1518 C1512 1.428 . S
C1518 N1517 1.351 . S
C1518 C1519 1.434 . S
C1519 C1510 1.429 . S
C1519 N1516 1.350 . S
C1519 C1518 1.434 . S
C1520 C1521 1.369 . S
C1520 C1522 1.419 . S
C1520 H1524 0.930 . S
C1521 C1520 1.369 . S
C1521 C1530 1.429 . S
C1522 C1520 1.419 . S
C1522 C1523 1.363 . S
C1522 H1525 0.929 . S
C1523 C1522 1.363 . S
C1523 C1529 1.428 . S
H1524 C1520 0.930 . S
H1525 C1522 0.929 . S
S1526 N1527 1.613 . S
S1526 N1528 1.610 . S
N1527 S1526 1.613 . S
N1527 C1530 1.350 . S
N1528 S1526 1.610 . S
N1528 C1529 1.351 . S
C1529 C1523 1.428 . S
C1529 N1528 1.351 . S
C1529 C1530 1.434 . S
C1530 C1521 1.429 . S
C1530 N1527 1.350 . S
C1530 C1529 1.434 . S
C1531 C1532 1.369 . S
C1531 C1533 1.419 . S
C1531 H1535 0.930 . S
C1532 C1531 1.369 . S
C1532 C1541 1.429 1_565 S
C1533 C1531 1.419 . S
C1533 C1534 1.363 . S
C1533 H1536 0.929 . S
C1534 C1533 1.363 . S
C1534 C1540 1.428 1_565 S
H1535 C1531 0.930 . S
H1536 C1533 0.929 . S
S1537 N1538 1.613 . S
S1537 N1539 1.610 . S
N1538 S1537 1.613 . S
N1538 C1541 1.350 . S
N1539 S1537 1.610 . S
N1539 C1540 1.351 . S
C1540 C1534 1.428 1_545 S
C1540 N1539 1.351 . S
C1540 C1541 1.434 . S
C1541 C1532 1.429 1_545 S
C1541 N1538 1.350 . S
C1541 C1540 1.434 . S
C1542 C1543 1.369 . S
C1542 C1544 1.419 . S
C1542 H1546 0.930 . S
C1543 C1542 1.369 . S
C1543 C1552 1.429 . S
C1544 C1542 1.419 . S
C1544 C1545 1.363 . S
C1544 H1547 0.929 . S
C1545 C1544 1.363 . S
C1545 C1551 1.428 . S
H1546 C1542 0.930 . S
H1547 C1544 0.929 . S
S1548 N1549 1.613 . S
S1548 N1550 1.610 . S
N1549 S1548 1.613 . S
N1549 C1552 1.350 . S
N1550 S1548 1.610 . S
N1550 C1551 1.351 . S
C1551 C1545 1.428 . S
C1551 N1550 1.351 . S
C1551 C1552 1.434 . S
C1552 C1543 1.429 . S
C1552 N1549 1.350 . S
C1552 C1551 1.434 . S
C1553 C1554 1.369 . S
C1553 C1555 1.419 . S
C1553 H1557 0.930 . S
C1554 C1553 1.369 . S
C1554 C1563 1.429 1_545 S
C1555 C1553 1.419 . S
C1555 C1556 1.363 . S
C1555 H1558 0.929 . S
C1556 C1555 1.363 . S
C1556 C1562 1.428 1_545 S
H1557 C1553 0.930 . S
H1558 C1555 0.929 . S
S1559 N1560 1.613 . S
S1559 N1561 1.610 . S
N1560 S1559 1.613 . S
N1560 C1563 1.350 . S
N1561 S1559 1.610 . S
N1561 C1562 1.351 . S
C1562 C1556 1.428 1_565 S
C1562 N1561 1.351 . S
C1562 C1563 1.434 . S
C1563 C1554 1.429 1_565 S
C1563 N1560 1.350 . S
C1563 C1562 1.434 . S
C1564 C1565 1.369 . S
C1564 C1566 1.419 . S
C1564 H1568 0.930 . S
C1565 C1564 1.369 . S
C1565 C1574 1.429 . S
C1566 C1564 1.419 . S
C1566 C1567 1.363 . S
C1566 H1569 0.929 . S
C1567 C1566 1.363 . S
C1567 C1573 1.428 . S
H1568 C1564 0.930 . S
H1569 C1566 0.929 . S
S1570 N1571 1.613 . S
S1570 N1572 1.610 . S
N1571 S1570 1.613 . S
N1571 C1574 1.350 . S
N1572 S1570 1.610 . S
N1572 C1573 1.351 . S
C1573 C1567 1.428 . S
C1573 N1572 1.351 . S
C1573 C1574 1.434 . S
C1574 C1565 1.429 . S
C1574 N1571 1.350 . S
C1574 C1573 1.434 . S
C1575 C1576 1.369 . S
C1575 C1577 1.419 . S
C1575 H1579 0.930 1_545 S
C1576 C1575 1.369 . S
C1576 C1585 1.429 . S
C1577 C1575 1.419 . S
C1577 C1578 1.363 . S
C1577 H1580 0.929 1_545 S
C1578 C1577 1.363 . S
C1578 C1584 1.428 . S
H1579 C1575 0.930 1_565 S
H1580 C1577 0.929 1_565 S
S1581 N1582 1.613 . S
S1581 N1583 1.610 . S
N1582 S1581 1.613 . S
N1582 C1585 1.350 . S
N1583 S1581 1.610 . S
N1583 C1584 1.351 . S
C1584 C1578 1.428 . S
C1584 N1583 1.351 . S
C1584 C1585 1.434 . S
C1585 C1576 1.429 . S
C1585 N1582 1.350 . S
C1585 C1584 1.434 . S
C1586 C1587 1.369 . S
C1586 C1588 1.419 . S
C1586 H1590 0.930 . S
C1587 C1586 1.369 . S
C1587 C1596 1.429 . S
C1588 C1586 1.419 . S
C1588 C1589 1.363 . S
C1588 H1591 0.929 . S
C1589 C1588 1.363 . S
C1589 C1595 1.428 . S
H1590 C1586 0.930 . S
H1591 C1588 0.929 . S
S1592 N1593 1.613 . S
S1592 N1594 1.610 . S
N1593 S1592 1.613 . S
N1593 C1596 1.350 . S
N1594 S1592 1.610 . S
N1594 C1595 1.351 . S
C1595 C1589 1.428 . S
C1595 N1594 1.351 . S
C1595 C1596 1.434 . S
C1596 C1587 1.429 . S
C1596 N1593 1.350 . S
C1596 C1595 1.434 . S
C1597 C1598 1.369 . S
C1597 C1599 1.419 . S
C1597 H1601 0.930 . S
C1598 C1597 1.369 . S
C1598 C1607 1.429 1_565 S
C1599 C1597 1.419 . S
C1599 C1600 1.363 . S
C1599 H1602 0.929 . S
C1600 C1599 1.363 . S
C1600 C1606 1.428 1_565 S
H1601 C1597 0.930 . S
H1602 C1599 0.929 . S
S1603 N1604 1.613 . S
S1603 N1605 1.610 . S
N1604 S1603 1.613 . S
N1604 C1607 1.350 . S
N1605 S1603 1.610 . S
N1605 C1606 1.351 . S
C1606 C1600 1.428 1_545 S
C1606 N1605 1.351 . S
C1606 C1607 1.434 . S
C1607 C1598 1.429 1_545 S
C1607 N1604 1.350 . S
C1607 C1606 1.434 . S
C1608 C1609 1.369 . S
C1608 C1610 1.419 . S
C1608 H1612 0.930 . S
C1609 C1608 1.369 . S
C1609 C1618 1.429 . S
C1610 C1608 1.419 . S
C1610 C1611 1.363 . S
C1610 H1613 0.929 . S
C1611 C1610 1.363 . S
C1611 C1617 1.428 . S
H1612 C1608 0.930 . S
H1613 C1610 0.929 . S
S1614 N1615 1.613 . S
S1614 N1616 1.610 . S
N1615 S1614 1.613 . S
N1615 C1618 1.350 . S
N1616 S1614 1.610 . S
N1616 C1617 1.351 . S
C1617 C1611 1.428 . S
C1617 N1616 1.351 . S
C1617 C1618 1.434 . S
C1618 C1609 1.429 . S
C1618 N1615 1.350 . S
C1618 C1617 1.434 . S
C1619 C1620 1.369 . S
C1619 C1621 1.419 . S
C1619 H1623 0.930 . S
C1620 C1619 1.369 . S
C1620 C1629 1.429 . S
C1621 C1619 1.419 . S
C1621 C1622 1.363 . S
C1621 H1624 0.929 . S
C1622 C1621 1.363 . S
C1622 C1628 1.428 . S
H1623 C1619 0.930 . S
H1624 C1621 0.929 . S
S1625 N1626 1.613 . S
S1625 N1627 1.610 . S
N1626 S1625 1.613 . S
N1626 C1629 1.350 . S
N1627 S1625 1.610 . S
N1627 C1628 1.351 . S
C1628 C1622 1.428 . S
C1628 N1627 1.351 . S
C1628 C1629 1.434 . S
C1629 C1620 1.429 . S
C1629 N1626 1.350 . S
C1629 C1628 1.434 . S
C1630 C1631 1.369 . S
C1630 C1632 1.419 1_655 S
C1630 H1634 0.930 . S
C1631 C1630 1.369 . S
C1631 C1640 1.429 . S
C1632 C1630 1.419 1_455 S
C1632 C1633 1.363 . S
C1632 H1635 0.929 . S
C1633 C1632 1.363 . S
C1633 C1639 1.428 . S
H1634 C1630 0.930 . S
H1635 C1632 0.929 . S
S1636 N1637 1.613 . S
S1636 N1638 1.610 . S
N1637 S1636 1.613 . S
N1637 C1640 1.350 1_455 S
N1638 S1636 1.610 . S
N1638 C1639 1.351 . S
C1639 C1633 1.428 . S
C1639 N1638 1.351 . S
C1639 C1640 1.434 1_455 S
C1640 C1631 1.429 . S
C1640 N1637 1.350 1_655 S
C1640 C1639 1.434 1_655 S
C1641 C1642 1.369 . S
C1641 C1643 1.419 1_655 S
C1641 H1645 0.930 . S
C1642 C1641 1.369 . S
C1642 C1651 1.429 . S
C1643 C1641 1.419 1_455 S
C1643 C1644 1.363 . S
C1643 H1646 0.929 . S
C1644 C1643 1.363 . S
C1644 C1650 1.428 . S
H1645 C1641 0.930 . S
H1646 C1643 0.929 . S
S1647 N1648 1.613 1_455 S
S1647 N1649 1.610 . S
N1648 S1647 1.613 1_655 S
N1648 C1651 1.350 . S
N1649 S1647 1.610 . S
N1649 C1650 1.351 . S
C1650 C1644 1.428 . S
C1650 N1649 1.351 . S
C1650 C1651 1.434 1_455 S
C1651 C1642 1.429 . S
C1651 N1648 1.350 . S
C1651 C1650 1.434 1_655 S
C1652 C1653 1.369 . S
C1652 C1654 1.419 . S
C1652 H1656 0.930 . S
C1653 C1652 1.369 . S
C1653 C1662 1.429 . S
C1654 C1652 1.419 . S
C1654 C1655 1.363 . S
C1654 H1657 0.929 . S
C1655 C1654 1.363 . S
C1655 C1661 1.428 . S
H1656 C1652 0.930 . S
H1657 C1654 0.929 . S
S1658 N1659 1.613 . S
S1658 N1660 1.610 . S
N1659 S1658 1.613 . S
N1659 C1662 1.350 . S
N1660 S1658 1.610 . S
N1660 C1661 1.351 . S
C1661 C1655 1.428 . S
C1661 N1660 1.351 . S
C1661 C1662 1.434 . S
C1662 C1653 1.429 . S
C1662 N1659 1.350 . S
C1662 C1661 1.434 . S
C1663 C1664 1.369 . S
C1663 C1665 1.419 . S
C1663 H1667 0.930 . S
C1664 C1663 1.369 . S
C1664 C1673 1.429 . S
C1665 C1663 1.419 . S
C1665 C1666 1.363 . S
C1665 H1668 0.929 . S
C1666 C1665 1.363 . S
C1666 C1672 1.428 . S
H1667 C1663 0.930 . S
H1668 C1665 0.929 . S
S1669 N1670 1.613 . S
S1669 N1671 1.610 . S
N1670 S1669 1.613 . S
N1670 C1673 1.350 . S
N1671 S1669 1.610 . S
N1671 C1672 1.351 . S
C1672 C1666 1.428 . S
C1672 N1671 1.351 . S
C1672 C1673 1.434 . S
C1673 C1664 1.429 . S
C1673 N1670 1.350 . S
C1673 C1672 1.434 . S
C1674 C1675 1.369 . S
C1674 C1676 1.419 1_455 S
C1674 H1678 0.930 . S
C1675 C1674 1.369 . S
C1675 C1684 1.429 . S
C1676 C1674 1.419 1_655 S
C1676 C1677 1.363 . S
C1676 H1679 0.929 . S
C1677 C1676 1.363 . S
C1677 C1683 1.428 . S
H1678 C1674 0.930 . S
H1679 C1676 0.929 . S
S1680 N1681 1.613 . S
S1680 N1682 1.610 1_455 S
N1681 S1680 1.613 . S
N1681 C1684 1.350 . S
N1682 S1680 1.610 1_655 S
N1682 C1683 1.351 . S
C1683 C1677 1.428 . S
C1683 N1682 1.351 . S
C1683 C1684 1.434 1_655 S
C1684 C1675 1.429 . S
C1684 N1681 1.350 . S
C1684 C1683 1.434 1_455 S
C1685 C1686 1.369 1_655 S
C1685 C1687 1.419 . S
C1685 H1689 0.930 . S
C1686 C1685 1.369 1_455 S
C1686 C1695 1.429 . S
C1687 C1685 1.419 . S
C1687 C1688 1.363 . S
C1687 H1690 0.929 . S
C1688 C1687 1.363 . S
C1688 C1694 1.426 1_655 S
H1689 C1685 0.930 . S
H1690 C1687 0.929 . S
S1691 N1692 1.613 . S
S1691 N1693 1.610 . S
N1692 S1691 1.613 . S
N1692 C1695 1.350 . S
N1693 S1691 1.610 . S
N1693 C1694 1.351 . S
C1694 C1688 1.426 1_455 S
C1694 N1693 1.351 . S
C1694 C1695 1.436 . S
C1695 C1686 1.429 . S
C1695 N1692 1.350 . S
C1695 C1694 1.436 . S
C1696 C1697 1.369 . S
C1696 C1698 1.419 . S
C1696 H1700 0.930 . S
C1697 C1696 1.369 . S
C1697 C1706 1.429 . S
C1698 C1696 1.419 . S
C1698 C1699 1.363 . S
C1698 H1701 0.929 . S
C1699 C1698 1.363 . S
C1699 C1705 1.428 . S
H1700 C1696 0.930 . S
H1701 C1698 0.929 . S
S1702 N1703 1.613 . S
S1702 N1704 1.610 . S
N1703 S1702 1.613 . S
N1703 C1706 1.350 . S
N1704 S1702 1.610 . S
N1704 C1705 1.351 . S
C1705 C1699 1.428 . S
C1705 N1704 1.351 . S
C1705 C1706 1.434 . S
C1706 C1697 1.429 . S
C1706 N1703 1.350 . S
C1706 C1705 1.434 . S
C1707 C1708 1.369 . S
C1707 C1709 1.419 . S
C1707 H1711 0.930 . S
C1708 C1707 1.369 . S
C1708 C1717 1.429 . S
C1709 C1707 1.419 . S
C1709 C1710 1.363 . S
C1709 H1712 0.929 . S
C1710 C1709 1.363 . S
C1710 C1716 1.428 . S
H1711 C1707 0.930 . S
H1712 C1709 0.929 . S
S1713 N1714 1.613 . S
S1713 N1715 1.610 . S
N1714 S1713 1.613 . S
N1714 C1717 1.350 . S
N1715 S1713 1.610 . S
N1715 C1716 1.351 . S
C1716 C1710 1.428 . S
C1716 N1715 1.351 . S
C1716 C1717 1.434 . S
C1717 C1708 1.429 . S
C1717 N1714 1.350 . S
C1717 C1716 1.434 . S
C1718 C1719 1.369 . S
C1718 C1720 1.419 . S
C1718 H1722 0.930 . S
C1719 C1718 1.369 . S
C1719 C1728 1.429 . S
C1720 C1718 1.419 . S
C1720 C1721 1.363 . S
C1720 H1723 0.929 . S
C1721 C1720 1.363 . S
C1721 C1727 1.428 . S
H1722 C1718 0.930 . S
H1723 C1720 0.929 . S
S1724 N1725 1.613 . S
S1724 N1726 1.610 . S
N1725 S1724 1.613 . S
N1725 C1728 1.350 . S
N1726 S1724 1.610 . S
N1726 C1727 1.351 . S
C1727 C1721 1.428 . S
C1727 N1726 1.351 . S
C1727 C1728 1.434 . S
C1728 C1719 1.429 . S
C1728 N1725 1.350 . S
C1728 C1727 1.434 . S
C1729 C1730 1.369 . S
C1729 C1731 1.419 . S
C1729 H1733 0.930 . S
C1730 C1729 1.369 . S
C1730 C1739 1.429 . S
C1731 C1729 1.419 . S
C1731 C1732 1.363 . S
C1731 H1734 0.929 . S
C1732 C1731 1.363 . S
C1732 C1738 1.428 . S
H1733 C1729 0.930 . S
H1734 C1731 0.929 . S
S1735 N1736 1.602 1_455 S
S1735 N1737 1.610 . S
N1736 S1735 1.602 1_655 S
N1736 C1739 1.338 1_655 S
N1737 S1735 1.610 . S
N1737 C1738 1.351 . S
C1738 C1732 1.428 . S
C1738 N1737 1.351 . S
C1738 C1739 1.434 . S
C1739 C1730 1.429 . S
C1739 N1736 1.338 1_455 S
C1739 C1738 1.434 . S
C1740 C1741 1.369 . S
C1740 C1742 1.419 . S
C1740 H1744 0.930 . S
C1741 C1740 1.369 . S
C1741 C1750 1.429 . S
C1742 C1740 1.419 . S
C1742 C1743 1.363 . S
C1742 H1745 0.929 . S
C1743 C1742 1.363 . S
C1743 C1749 1.428 . S
H1744 C1740 0.930 . S
H1745 C1742 0.929 . S
S1746 N1747 1.613 . S
S1746 N1748 1.610 . S
N1747 S1746 1.613 . S
N1747 C1750 1.350 . S
N1748 S1746 1.610 . S
N1748 C1749 1.351 . S
C1749 C1743 1.428 . S
C1749 N1748 1.351 . S
C1749 C1750 1.434 . S
C1750 C1741 1.429 . S
C1750 N1747 1.350 . S
C1750 C1749 1.434 . S
C1751 C1752 1.369 . S
C1751 C1753 1.419 . S
C1751 H1755 0.930 . S
C1752 C1751 1.369 . S
C1752 C1761 1.429 . S
C1753 C1751 1.419 . S
C1753 C1754 1.363 . S
C1753 H1756 0.929 . S
C1754 C1753 1.363 . S
C1754 C1760 1.428 . S
H1755 C1751 0.930 . S
H1756 C1753 0.929 . S
S1757 N1758 1.613 . S
S1757 N1759 1.610 . S
N1758 S1757 1.613 . S
N1758 C1761 1.350 . S
N1759 S1757 1.610 . S
N1759 C1760 1.351 . S
C1760 C1754 1.428 . S
C1760 N1759 1.351 . S
C1760 C1761 1.434 . S
C1761 C1752 1.429 . S
C1761 N1758 1.350 . S
C1761 C1760 1.434 . S
C1762 C1763 1.369 . S
C1762 C1764 1.419 . S
C1762 H1766 0.930 . S
C1763 C1762 1.369 . S
C1763 C1772 1.429 . S
C1764 C1762 1.419 . S
C1764 C1765 1.363 . S
C1764 H1767 0.929 . S
C1765 C1764 1.363 . S
C1765 C1771 1.428 . S
H1766 C1762 0.930 . S
H1767 C1764 0.929 . S
S1768 N1769 1.613 . S
S1768 N1770 1.610 . S
N1769 S1768 1.613 . S
N1769 C1772 1.350 . S
N1770 S1768 1.610 . S
N1770 C1771 1.351 . S
C1771 C1765 1.428 . S
C1771 N1770 1.351 . S
C1771 C1772 1.434 . S
C1772 C1763 1.429 . S
C1772 N1769 1.350 . S
C1772 C1771 1.434 . S
C1773 C1774 1.369 . S
C1773 C1775 1.419 . S
C1773 H1777 0.930 . S
C1774 C1773 1.369 . S
C1774 C1783 1.429 . S
C1775 C1773 1.419 . S
C1775 C1776 1.363 . S
C1775 H1778 0.929 . S
C1776 C1775 1.363 . S
C1776 C1782 1.428 . S
H1777 C1773 0.930 . S
H1778 C1775 0.929 . S
S1779 N1780 1.613 . S
S1779 N1781 1.610 . S
N1780 S1779 1.613 . S
N1780 C1783 1.350 . S
N1781 S1779 1.610 . S
N1781 C1782 1.351 . S
C1782 C1776 1.428 . S
C1782 N1781 1.351 . S
C1782 C1783 1.434 . S
C1783 C1774 1.429 . S
C1783 N1780 1.350 . S
C1783 C1782 1.434 . S
C1784 C1785 1.369 . S
C1784 C1786 1.419 . S
C1784 H1788 0.930 . S
C1785 C1784 1.369 . S
C1785 C1794 1.429 . S
C1786 C1784 1.419 . S
C1786 C1787 1.363 . S
C1786 H1789 0.929 . S
C1787 C1786 1.363 . S
C1787 C1793 1.428 . S
H1788 C1784 0.930 . S
H1789 C1786 0.929 . S
S1790 N1791 1.613 . S
S1790 N1792 1.610 . S
N1791 S1790 1.613 . S
N1791 C1794 1.350 . S
N1792 S1790 1.610 . S
N1792 C1793 1.351 . S
C1793 C1787 1.428 . S
C1793 N1792 1.351 . S
C1793 C1794 1.434 . S
C1794 C1785 1.429 . S
C1794 N1791 1.350 . S
C1794 C1793 1.434 . S
C1795 C1796 1.369 . S
C1795 C1797 1.419 . S
C1795 H1799 0.930 . S
C1796 C1795 1.369 . S
C1796 C1805 1.429 . S
C1797 C1795 1.419 . S
C1797 C1798 1.363 . S
C1797 H1800 0.929 . S
C1798 C1797 1.363 . S
C1798 C1804 1.428 1_565 S
H1799 C1795 0.930 . S
H1800 C1797 0.929 . S
S1801 N1802 1.613 . S
S1801 N1803 1.610 . S
N1802 S1801 1.613 . S
N1802 C1805 1.350 1_545 S
N1803 S1801 1.610 . S
N1803 C1804 1.351 . S
C1804 C1798 1.428 1_545 S
C1804 N1803 1.351 . S
C1804 C1805 1.434 1_545 S
C1805 C1796 1.429 . S
C1805 N1802 1.350 1_565 S
C1805 C1804 1.434 1_565 S
C1806 C1807 1.369 . S
C1806 C1808 1.419 . S
C1806 H1810 0.930 . S
C1807 C1806 1.369 . S
C1807 C1816 1.429 . S
C1808 C1806 1.419 . S
C1808 C1809 1.363 . S
C1808 H1811 0.929 . S
C1809 C1808 1.363 . S
C1809 C1815 1.428 . S
H1810 C1806 0.930 . S
H1811 C1808 0.929 . S
S1812 N1813 1.613 . S
S1812 N1814 1.610 . S
N1813 S1812 1.613 . S
N1813 C1816 1.350 . S
N1814 S1812 1.610 . S
N1814 C1815 1.351 . S
C1815 C1809 1.428 . S
C1815 N1814 1.351 . S
C1815 C1816 1.434 . S
C1816 C1807 1.429 . S
C1816 N1813 1.350 . S
C1816 C1815 1.434 . S
C1817 C1818 1.369 1_565 S
C1817 C1819 1.419 1_565 S
C1817 H1821 0.930 . S
C1818 C1817 1.369 1_545 S
C1818 C1827 1.429 . S
C1819 C1817 1.419 1_545 S
C1819 C1820 1.363 . S
C1819 H1822 0.929 1_545 S
C1820 C1819 1.363 . S
C1820 C1826 1.428 . S
H1821 C1817 0.930 . S
H1822 C1819 0.929 1_565 S
S1823 N1824 1.613 . S
S1823 N1825 1.610 . S
N1824 S1823 1.613 . S
N1824 C1827 1.350 . S
N1825 S1823 1.610 . S
N1825 C1826 1.351 . S
C1826 C1820 1.428 . S
C1826 N1825 1.351 . S
C1826 C1827 1.434 . S
C1827 C1818 1.429 . S
C1827 N1824 1.350 . S
C1827 C1826 1.434 . S
C1828 C1829 1.369 . S
C1828 C1830 1.419 . S
C1828 H1832 0.930 . S
C1829 C1828 1.369 . S
C1829 C1838 1.429 . S
C1830 C1828 1.419 . S
C1830 C1831 1.363 . S
C1830 H1833 0.929 . S
C1831 C1830 1.363 . S
C1831 C1837 1.428 . S
H1832 C1828 0.930 . S
H1833 C1830 0.929 . S
S1834 N1835 1.613 . S
S1834 N1836 1.610 . S
N1835 S1834 1.613 . S
N1835 C1838 1.350 . S
N1836 S1834 1.610 . S
N1836 C1837 1.351 . S
C1837 C1831 1.428 . S
C1837 N1836 1.351 . S
C1837 C1838 1.434 . S
C1838 C1829 1.429 . S
C1838 N1835 1.350 . S
C1838 C1837 1.434 . S
C1839 C1840 1.369 . S
C1839 C1841 1.419 . S
C1839 H1843 0.930 1_455 S
C1840 C1839 1.369 . S
C1840 C1849 1.429 . S
C1841 C1839 1.419 . S
C1841 C1842 1.363 . S
C1841 H1844 0.929 . S
C1842 C1841 1.363 . S
C1842 C1848 1.428 . S
H1843 C1839 0.930 1_655 S
H1844 C1841 0.929 . S
S1845 N1846 1.613 . S
S1845 N1847 1.610 1_565 S
N1846 S1845 1.613 . S
N1846 C1849 1.350 1_565 S
N1847 S1845 1.610 1_545 S
N1847 C1848 1.351 . S
C1848 C1842 1.428 . S
C1848 N1847 1.351 . S
C1848 C1849 1.434 . S
C1849 C1840 1.429 . S
C1849 N1846 1.350 1_545 S
C1849 C1848 1.434 . S
C1850 C1851 1.369 . S
C1850 C1852 1.419 . S
C1850 H1854 0.930 . S
C1851 C1850 1.369 . S
C1851 C1860 1.429 . S
C1852 C1850 1.419 . S
C1852 C1853 1.363 . S
C1852 H1855 0.929 . S
C1853 C1852 1.363 . S
C1853 C1859 1.428 . S
H1854 C1850 0.930 . S
H1855 C1852 0.929 . S
S1856 N1857 1.613 . S
S1856 N1858 1.610 . S
N1857 S1856 1.613 . S
N1857 C1860 1.350 . S
N1858 S1856 1.610 . S
N1858 C1859 1.351 . S
C1859 C1853 1.428 . S
C1859 N1858 1.351 . S
C1859 C1860 1.434 . S
C1860 C1851 1.429 . S
C1860 N1857 1.350 . S
C1860 C1859 1.434 . S
C1861 C1862 1.369 . S
C1861 C1863 1.419 . S
C1861 H1865 0.930 . S
C1862 C1861 1.369 . S
C1862 C1871 1.429 . S
C1863 C1861 1.419 . S
C1863 C1864 1.363 . S
C1863 H1866 0.929 . S
C1864 C1863 1.363 . S
C1864 C1870 1.428 . S
H1865 C1861 0.930 . S
H1866 C1863 0.929 . S
S1867 N1868 1.613 1_545 S
S1867 N1869 1.610 . S
N1868 S1867 1.613 1_565 S
N1868 C1871 1.350 . S
N1869 S1867 1.610 . S
N1869 C1870 1.351 1_545 S
C1870 C1864 1.428 . S
C1870 N1869 1.351 1_565 S
C1870 C1871 1.434 . S
C1871 C1862 1.429 . S
C1871 N1868 1.350 . S
C1871 C1870 1.434 . S
C1345 C58 0.416 . S
C1347 C1077 0.440 . S
C1356 C489 0.429 . S
C1358 C142 0.433 . S
C1367 C226 0.438 . S
C1369 C1245 0.435 . S
C1378 C321 0.656 1_654 S
C1380 C646 0.674 1_456 S
C1389 C405 0.441 . S
C1391 C730 0.422 . S
C1400 C898 0.430 . S
C1402 C573 0.440 . S
C1411 C1161 0.438 . S
C1413 C814 0.438 . S
C1422 C993 0.649 . S
C1424 C1318 0.678 . S
C1433 C823 2.274 . S
C1435 C69 2.128 1_556 S
C1444 C153 2.143 . S
C1446 C907 2.281 . S
C1455 C237 2.114 . S
C1457 C998 2.320 . S
C1466 C739 2.302 . S
C1468 C310 2.435 . S
C1477 C1148 2.277 . S
C1479 C394 2.124 1_554 S
C1488 C1232 2.279 . S
C1490 C478 2.144 . S
C1499 C562 2.114 . S
C1501 C1323 2.320 . S
C1510 C1064 2.307 . S
C1512 C657 2.435 . S
C1521 C741 2.123 . S
C1523 C151 2.275 . S
C1532 C825 2.136 1_565 S
C1534 C235 2.286 . S
C1543 C909 2.108 1_556 S
C1545 C326 2.324 . S
C1554 C67 2.307 . S
C1556 C982 2.435 . S
C1565 C476 2.276 . S
C1567 C1066 2.124 . S
C1576 C1150 2.146 1_545 S
C1578 C560 2.280 . S
C1587 C651 2.317 . S
C1589 C1234 2.117 1_554 S
C1598 C1329 2.435 . S
C1600 C392 2.306 . S
C1609 C63 2.291 . S
C1611 C903 2.291 . S
C1620 C147 2.303 . S
C1622 C980 2.356 . S
C1631 C735 2.294 . S
C1633 C231 2.293 . S
C1642 C308 2.356 . S
C1644 C819 2.303 . S
C1653 C410 2.294 . S
C1655 C1250 2.293 . S
C1664 C494 2.305 . S
C1666 C1327 2.357 . S
C1675 C1082 2.292 . S
C1677 C578 2.292 . S
C1686 C655 2.356 . S
C1688 C1166 2.303 . S
C1697 C56 1.713 . S
C1699 C644 1.883 . S
C1708 C1071 1.806 . S
C1710 C140 1.727 . S
C1719 C224 1.753 . S
C1721 C483 1.829 . S
C1730 C315 1.596 1_455 S
C1732 C1239 1.823 . S
C1741 C403 1.710 . S
C1743 C319 1.883 . S
C1752 C746 1.814 . S
C1754 C487 1.720 . S
C1763 C571 1.741 . S
C1765 C158 1.836 . S
C1774 C914 1.831 . S
C1776 C662 1.584 1_655 S
C1785 C728 1.715 . S
C1787 C1316 1.883 . S
C1796 C399 1.811 . S
C1798 C812 1.723 1_655 S
C1807 C1155 1.835 . S
C1809 C896 1.743 . S
C1818 C987 1.597 1_545 S
C1820 C567 1.823 . S
C1829 C1075 1.704 . S
C1831 C991 1.886 . S
C1840 C1159 1.730 1_455 S
C1842 C74 1.805 . S
C1851 C830 1.836 . S
C1853 C1243 1.745 . S
C1862 C242 1.824 . S
C1864 C1334 1.593 1_565 S
