# Generated by pormake.
# Topology atn, (4)-cn, num edge types: 1
# Building blocks:
#     Node 0, Type 0, BuildingBlock: QUQFOY_clean_sbu_1, # of connection points: 4
#     Node 1, Type 0, BuildingBlock: QUQFOY_clean_sbu_1, # of connection points: 4
#     Node 2, Type 0, BuildingBlock: QUQFOY_clean_sbu_1, # of connection points: 4
#     Node 3, Type 0, BuildingBlock: QUQFOY_clean_sbu_1, # of connection points: 4
#     Node 4, Type 0, BuildingBlock: QUQFOY_clean_sbu_1, # of connection points: 4
#     Node 5, Type 0, BuildingBlock: QUQFOY_clean_sbu_1, # of connection points: 4
#     Node 6, Type 0, BuildingBlock: QUQFOY_clean_sbu_1, # of connection points: 4
#     Node 7, Type 0, BuildingBlock: QUQFOY_clean_sbu_1, # of connection points: 4
#     Node 8, Type 0, BuildingBlock: QUQFOY_clean_sbu_1, # of connection points: 4
#     Node 9, Type 0, BuildingBlock: QUQFOY_clean_sbu_1, # of connection points: 4
#     Node 10, Type 0, BuildingBlock: QUQFOY_clean_sbu_1, # of connection points: 4
#     Node 11, Type 0, BuildingBlock: QUQFOY_clean_sbu_1, # of connection points: 4
#     Node 12, Type 0, BuildingBlock: QUQFOY_clean_sbu_1, # of connection points: 4
#     Node 13, Type 0, BuildingBlock: QUQFOY_clean_sbu_1, # of connection points: 4
#     Node 14, Type 0, BuildingBlock: QUQFOY_clean_sbu_1, # of connection points: 4
#     Node 15, Type 0, BuildingBlock: QUQFOY_clean_sbu_1, # of connection points: 4
#     Edge 16, Type (0, 0), BuildingBlock: ZUJKAS_clean_linker_0, # of connection points: 2
#     Edge 17, Type (0, 0), BuildingBlock: ZUJKAS_clean_linker_0, # of connection points: 2
#     Edge 18, Type (0, 0), BuildingBlock: ZUJKAS_clean_linker_0, # of connection points: 2
#     Edge 19, Type (0, 0), BuildingBlock: ZUJKAS_clean_linker_0, # of connection points: 2
#     Edge 20, Type (0, 0), BuildingBlock: ZUJKAS_clean_linker_0, # of connection points: 2
#     Edge 21, Type (0, 0), BuildingBlock: ZUJKAS_clean_linker_0, # of connection points: 2
#     Edge 22, Type (0, 0), BuildingBlock: ZUJKAS_clean_linker_0, # of connection points: 2
#     Edge 23, Type (0, 0), BuildingBlock: ZUJKAS_clean_linker_0, # of connection points: 2
#     Edge 24, Type (0, 0), BuildingBlock: ZUJKAS_clean_linker_0, # of connection points: 2
#     Edge 25, Type (0, 0), BuildingBlock: ZUJKAS_clean_linker_0, # of connection points: 2
#     Edge 26, Type (0, 0), BuildingBlock: ZUJKAS_clean_linker_0, # of connection points: 2
#     Edge 27, Type (0, 0), BuildingBlock: ZUJKAS_clean_linker_0, # of connection points: 2
#     Edge 28, Type (0, 0), BuildingBlock: ZUJKAS_clean_linker_0, # of connection points: 2
#     Edge 29, Type (0, 0), BuildingBlock: ZUJKAS_clean_linker_0, # of connection points: 2
#     Edge 30, Type (0, 0), BuildingBlock: ZUJKAS_clean_linker_0, # of connection points: 2
#     Edge 31, Type (0, 0), BuildingBlock: ZUJKAS_clean_linker_0, # of connection points: 2
#     Edge 32, Type (0, 0), BuildingBlock: ZUJKAS_clean_linker_0, # of connection points: 2
#     Edge 33, Type (0, 0), BuildingBlock: ZUJKAS_clean_linker_0, # of connection points: 2
#     Edge 34, Type (0, 0), BuildingBlock: ZUJKAS_clean_linker_0, # of connection points: 2
#     Edge 35, Type (0, 0), BuildingBlock: ZUJKAS_clean_linker_0, # of connection points: 2
#     Edge 36, Type (0, 0), BuildingBlock: ZUJKAS_clean_linker_0, # of connection points: 2
#     Edge 37, Type (0, 0), BuildingBlock: ZUJKAS_clean_linker_0, # of connection points: 2
#     Edge 38, Type (0, 0), BuildingBlock: ZUJKAS_clean_linker_0, # of connection points: 2
#     Edge 39, Type (0, 0), BuildingBlock: ZUJKAS_clean_linker_0, # of connection points: 2
#     Edge 40, Type (0, 0), BuildingBlock: ZUJKAS_clean_linker_0, # of connection points: 2
#     Edge 41, Type (0, 0), BuildingBlock: ZUJKAS_clean_linker_0, # of connection points: 2
#     Edge 42, Type (0, 0), BuildingBlock: ZUJKAS_clean_linker_0, # of connection points: 2
#     Edge 43, Type (0, 0), BuildingBlock: ZUJKAS_clean_linker_0, # of connection points: 2
#     Edge 44, Type (0, 0), BuildingBlock: ZUJKAS_clean_linker_0, # of connection points: 2
#     Edge 45, Type (0, 0), BuildingBlock: ZUJKAS_clean_linker_0, # of connection points: 2
#     Edge 46, Type (0, 0), BuildingBlock: ZUJKAS_clean_linker_0, # of connection points: 2
#     Edge 47, Type (0, 0), BuildingBlock: ZUJKAS_clean_linker_0, # of connection points: 2
# Relax obj value: 0.042
# Max RMSD: 0.086
# Mean RMSD: 0.086
data_MOF--net-atn--node1-QUQFOY_clean_sbu_1--edge1-ZUJKAS_clean_linker_0
_symmetry_space_group_name_H-M    P1
_symmetry_Int_Tables_number       1
_symmetry_cell_setting            triclinic
loop_
_symmetry_equiv_pos_as_xyz
'x, y, z'
_cell_length_a     79.681956
_cell_length_b     79.703546
_cell_length_c     36.980709
_cell_angle_alpha  90.016781
_cell_angle_beta   89.971011
_cell_angle_gamma 89.989716
loop_
_atom_site_label
_atom_site_type_symbol
_atom_site_fract_x
_atom_site_fract_y
_atom_site_fract_z
_atom_type_partial_charge
O0 O 0.19532 0.37822 0.08651 0.0
Cd1 Cd 0.20871 0.38349 0.04026 0.0
Cd2 Cd 0.18841 0.35901 0.01445 0.0
O3 O 0.17629 0.36109 0.06402 0.0
O4 O 0.22015 0.40488 0.05299 0.0
O5 O 0.20156 0.40289 1.00885 0.0
C6 C 0.21148 0.41211 0.02808 0.0
C7 C 0.17445 0.35984 0.95875 0.0
C8 C 0.18227 0.36928 0.09063 0.0
C9 C 0.22554 0.35174 0.01803 0.0
O10 O 0.2108 0.34593 0.01391 0.0
O11 O 0.22768 0.36708 0.02627 0.0
O12 O 0.17348 0.34694 0.97973 0.0
O13 O 0.1827 0.37274 0.97032 0.0
O14 O 0.62833 0.19404 0.08627 0.0
Cd15 Cd 0.62173 0.2059 0.03891 0.0
Cd16 Cd 0.64436 0.18483 0.01273 0.0
O17 O 0.64117 0.17235 0.06168 0.0
O18 O 0.60013 0.21735 0.0501 0.0
O19 O 0.60232 0.19677 0.01023 0.0
C20 C 0.59297 0.20733 0.0275 0.0
C21 C 0.64217 0.17187 0.95614 0.0
C22 C 0.63534 0.1798 0.08942 0.0
C23 C 0.65335 0.22147 0.0149 0.0
O24 O 0.65881 0.20647 0.01348 0.0
O25 O 0.63789 0.22422 0.02087 0.0
O26 O 0.65504 0.16946 0.97668 0.0
O27 O 0.63007 0.18101 0.96862 0.0
O28 O 0.8081 0.62536 0.08556 0.0
Cd29 Cd 0.79518 0.61999 0.03872 0.0
Cd30 Cd 0.81582 0.64361 0.01245 0.0
O31 O 0.82793 0.6412 0.06188 0.0
O32 O 0.78357 0.59845 0.04941 0.0
O33 O 0.80346 0.60085 1.008 0.0
C34 C 0.79309 0.59144 0.02561 0.0
C35 C 0.82962 0.64188 0.95672 0.0
C36 C 0.82159 0.6337 0.08904 0.0
C37 C 0.77905 0.65189 0.01535 0.0
O38 O 0.79391 0.65747 0.01193 0.0
O39 O 0.77659 0.63656 0.02324 0.0
O40 O 0.8313 0.6548 0.97745 0.0
O41 O 0.8207 0.62948 0.96851 0.0
O42 O 0.37834 0.8094 0.08132 0.0
Cd43 Cd 0.38321 0.79618 0.03458 0.0
Cd44 Cd 0.35905 0.81657 1.00959 0.0
O45 O 0.36168 0.82882 0.05873 0.0
O46 O 0.40473 0.78448 0.04507 0.0
O47 O 0.40226 0.80401 1.00295 0.0
C48 C 0.41168 0.7937 0.02067 0.0
C49 C 0.36004 0.83024 0.95369 0.0
C50 C 0.36974 0.8227 0.08533 0.0
C51 C 0.3511 0.77973 0.01373 0.0
O52 O 0.34542 0.79455 1.01015 0.0
O53 O 0.36653 0.77739 0.02077 0.0
O54 O 0.34721 0.83161 0.97481 0.0
O55 O 0.37277 0.82172 0.96519 0.0
O56 O 0.19267 0.62622 0.95023 0.0
Cd57 Cd 0.20678 0.62104 0.9955 0.0
Cd58 Cd 0.18666 0.64553 0.02237 0.0
O59 O 0.17401 0.64355 0.97354 0.0
O60 O 0.21831 0.59991 0.98125 0.0
O61 O 0.20041 0.6013 0.0268 0.0
C62 C 0.21011 0.59236 1.00647 0.0
C63 C 0.17312 0.64466 0.0785 0.0
C64 C 0.17961 0.63522 0.94676 0.0
C65 C 0.22369 0.65293 0.01666 0.0
O66 O 0.20899 0.65867 0.02174 0.0
O67 O 0.22582 0.63761 1.00827 0.0
O68 O 0.17205 0.65761 0.05768 0.0
O69 O 0.18128 0.63176 0.0666 0.0
O70 O 0.37856 0.19538 0.94821 0.0
Cd71 Cd 0.38415 0.20797 0.99538 0.0
Cd72 Cd 0.35945 0.188 0.01993 0.0
O73 O 0.36132 0.17623 0.96991 0.0
O74 O 0.40609 0.21888 0.98491 0.0
O75 O 0.40296 0.19917 0.02644 0.0
C76 C 0.41274 0.20923 1.00891 0.0
C77 C 0.35992 0.17387 0.0754 0.0
C78 C 0.36948 0.18246 0.94351 0.0
C79 C 0.35278 0.22526 0.01753 0.0
O80 O 0.34675 0.21057 0.02076 0.0
O81 O 0.36823 0.22726 1.01012 0.0
O82 O 0.34687 0.17353 0.05475 0.0
O83 O 0.37316 0.18147 0.06358 0.0
O84 O 0.80811 0.3772 0.94912 0.0
Cd85 Cd 0.79464 0.38268 0.99519 0.0
Cd86 Cd 0.81534 0.3593 0.02259 0.0
O87 O 0.82773 0.36127 0.9734 0.0
O88 O 0.7833 0.4043 0.98392 0.0
O89 O 0.80264 0.40174 0.02646 0.0
C90 C 0.79255 0.41123 1.00829 0.0
C91 C 0.82915 0.36026 0.07836 0.0
C92 C 0.82158 0.36877 0.94605 0.0
C93 C 0.77841 0.35093 0.01801 0.0
O94 O 0.79331 0.34567 0.02272 0.0
O95 O 0.77581 0.36614 1.00941 0.0
O96 O 0.82991 0.34718 0.05786 0.0
O97 O 0.82122 0.37325 0.06632 0.0
O98 O 0.62667 0.80975 0.94768 0.0
Cd99 Cd 0.62067 0.79609 0.9932 0.0
Cd100 Cd 0.64482 0.8159 0.02136 0.0
O101 O 0.64343 0.82853 0.97243 0.0
O102 O 0.5991 0.785 0.98044 0.0
O103 O 0.60131 0.80387 0.02404 0.0
C104 C 0.59197 0.79396 1.00506 0.0
C105 C 0.64436 0.82949 0.07742 0.0
C106 C 0.63568 0.82284 0.94493 0.0
C107 C 0.65193 0.77875 0.0159 0.0
O108 O 0.6577 0.79342 0.02111 0.0
O109 O 0.63666 0.77674 1.00702 0.0
O110 O 0.65746 0.82985 0.05691 0.0
O111 O 0.63107 0.82212 0.06522 0.0
O112 O 0.69483 0.87813 0.58162 0.0
Cd113 Cd 0.70876 0.88385 0.53644 0.0
Cd114 Cd 0.6894 0.85913 0.50825 0.0
O115 O 0.67699 0.86012 0.55766 0.0
O116 O 0.71944 0.90568 0.54875 0.0
O117 O 0.70094 0.90282 0.50462 0.0
C118 C 0.71054 0.91247 0.52362 0.0
C119 C 0.67544 0.85953 0.45264 0.0
C120 C 0.68217 0.86854 0.58472 0.0
C121 C 0.72675 0.85285 0.51371 0.0
O122 O 0.71226 0.84691 0.50722 0.0
O123 O 0.72839 0.86797 0.52403 0.0
O124 O 0.67551 0.84634 0.47283 0.0
O125 O 0.68257 0.87294 0.46495 0.0
O126 O 0.12537 0.69332 0.58398 0.0
Cd127 Cd 0.1198 0.70768 0.53931 0.0
Cd128 Cd 0.14408 0.68791 0.51051 0.0
O129 O 0.14242 0.67489 0.55896 0.0
O130 O 0.0985 0.71882 0.55388 0.0
O131 O 0.10016 0.70114 0.50796 0.0
C132 C 0.09108 0.71062 0.52849 0.0
C133 C 0.1431 0.67469 0.45403 0.0
C134 C 0.13439 0.68023 0.58641 0.0
C135 C 0.15138 0.72494 0.51743 0.0
O136 O 0.15711 0.71032 0.51135 0.0
O137 O 0.13615 0.72691 0.52676 0.0
O138 O 0.15614 0.67362 0.47458 0.0
O139 O 0.13018 0.68267 0.46639 0.0
O140 O 0.31191 0.12628 0.58143 0.0
Cd141 Cd 0.29638 0.12001 0.5393 0.0
Cd142 Cd 0.3148 0.1448 0.50589 0.0
O143 O 0.32781 0.1453 0.55484 0.0
O144 O 0.28635 0.0984 0.55535 0.0
O145 O 0.30233 0.10061 0.50671 0.0
C146 C 0.29373 0.09126 0.52844 0.0
C147 C 0.32856 0.14457 0.44982 0.0
C148 C 0.32394 0.13672 0.5827 0.0
C149 C 0.27733 0.15026 0.51568 0.0
O150 O 0.29135 0.15595 0.5048 0.0
O151 O 0.27635 0.13578 0.52988 0.0
O152 O 0.32781 0.15794 0.4694 0.0
O153 O 0.3222 0.13095 0.46292 0.0
O154 O 0.87669 0.3127 0.5815 0.0
Cd155 Cd 0.88171 0.29793 0.53708 0.0
Cd156 Cd 0.85714 0.31772 0.50937 0.0
O157 O 0.85877 0.3307 0.55784 0.0
O158 O 0.90304 0.28666 0.55106 0.0
O159 O 0.90112 0.30392 0.5045 0.0
C160 C 0.91029 0.29448 0.52489 0.0
C161 C 0.8579 0.33096 0.45298 0.0
C162 C 0.86738 0.32557 0.58463 0.0
C163 C 0.84984 0.28068 0.51732 0.0
O164 O 0.84422 0.29529 0.51076 0.0
O165 O 0.86511 0.27866 0.52627 0.0
O166 O 0.84471 0.33152 0.4732 0.0
O167 O 0.87107 0.3235 0.46555 0.0
O168 O 0.69688 0.12829 0.45138 0.0
Cd169 Cd 0.70846 0.1215 0.4989 0.0
Cd170 Cd 0.6868 0.14341 0.52554 0.0
O171 O 0.67465 0.1401 0.47618 0.0
O172 O 0.72008 0.1 0.4878 0.0
O173 O 0.69908 0.10198 0.52676 0.0
C174 C 0.70982 0.09273 0.50976 0.0
C175 C 0.67322 0.14135 0.58151 0.0
C176 C 0.6824 0.1348 0.44832 0.0
C177 C 0.72331 0.15306 0.52485 0.0
O178 O 0.70821 0.15825 0.52589 0.0
O179 O 0.72638 0.13772 0.51832 0.0
O180 O 0.67088 0.15406 0.56049 0.0
O181 O 0.68267 0.12931 0.56988 0.0
O182 O 0.87655 0.6908 0.45331 0.0
Cd183 Cd 0.88205 0.70534 0.49774 0.0
Cd184 Cd 0.85698 0.68629 0.52614 0.0
O185 O 0.85806 0.67349 0.47725 0.0
O186 O 0.90333 0.71643 0.48285 0.0
O187 O 0.90171 0.69916 0.52943 0.0
C188 C 0.91075 0.70857 0.5087 0.0
C189 C 0.85897 0.67303 0.58237 0.0
C190 C 0.86678 0.67829 0.45032 0.0
C191 C 0.85067 0.72342 0.51956 0.0
O192 O 0.84452 0.70903 0.52632 0.0
O193 O 0.86586 0.72483 0.50948 0.0
O194 O 0.84556 0.67195 0.56297 0.0
O195 O 0.87165 0.68104 0.56898 0.0
O196 O 0.31047 0.87634 0.44801 0.0
Cd197 Cd 0.29628 0.88231 0.49277 0.0
Cd198 Cd 0.31611 0.85833 0.52228 0.0
O199 O 0.329 0.8596 0.4736 0.0
O200 O 0.28525 0.90368 0.47834 0.0
O201 O 0.30315 0.90193 0.52383 0.0
C202 C 0.29361 0.91106 0.50356 0.0
C203 C 0.32956 0.85956 0.57846 0.0
C204 C 0.32358 0.86733 0.44585 0.0
C205 C 0.27904 0.85101 0.51638 0.0
O206 O 0.29369 0.84532 0.52237 0.0
O207 O 0.27705 0.86614 0.5064 0.0
O208 O 0.33051 0.84642 0.55819 0.0
O209 O 0.32159 0.87245 0.56595 0.0
O210 O 0.12601 0.31068 0.45191 0.0
Cd211 Cd 0.11948 0.29567 0.4947 0.0
Cd212 Cd 0.14389 0.31468 0.52796 0.0
O213 O 0.14403 0.32755 0.47884 0.0
O214 O 0.09812 0.28528 0.47813 0.0
O215 O 0.09965 0.30195 0.5258 0.0
C216 C 0.09061 0.29305 0.50405 0.0
C217 C 0.14336 0.32854 0.58392 0.0
C218 C 0.13596 0.3231 0.4507 0.0
C219 C 0.14989 0.27726 0.51984 0.0
O220 O 0.15553 0.29148 0.52956 0.0
O221 O 0.13534 0.27594 0.50608 0.0
O222 O 0.1566 0.32847 0.56384 0.0
O223 O 0.13 0.32144 0.57132 0.0
H224 H 0.22588 0.57048 0.9613 0.0
H225 H 0.22603 0.53994 0.96425 0.0
H226 H 0.1973 0.54174 0.06309 0.0
H227 H 0.19661 0.57245 0.05966 0.0
H228 H 0.23841 0.51873 0.01246 0.0
H229 H 0.16954 0.5098 1.00353 0.0
H230 H 0.17943 0.5298 0.99547 0.0
H231 H 0.17576 0.52269 0.04098 0.0
C232 C 0.2196 0.56442 0.98376 0.0
C233 C 0.21115 0.5739 0.01017 0.0
C234 C 0.2197 0.54693 0.98537 0.0
C235 C 0.21141 0.53851 0.01349 0.0
C236 C 0.20339 0.54794 0.04059 0.0
H237 H 0.22796 0.43458 0.07063 0.0
H238 H 0.22809 0.46505 0.06573 0.0
C239 C 0.20314 0.56549 0.0388 0.0
C240 C 0.21142 0.51988 0.01435 0.0
H241 H 0.18581 0.48553 0.01656 0.0
C242 C 0.2269 0.51148 0.01325 0.0
C243 C 0.19639 0.5104 0.01463 0.0
C244 C 0.17934 0.51861 0.01334 0.0
C245 C 0.2278 0.4939 0.01296 0.0
C246 C 0.21281 0.48442 0.01489 0.0
C247 C 0.1973 0.4928 0.01539 0.0
C248 C 0.21294 0.46583 0.01719 0.0
C249 C 0.24481 0.48569 1.0099 0.0
C250 C 0.20401 0.45608 0.99205 0.0
C251 C 0.20371 0.43856 0.99507 0.0
C252 C 0.21236 0.43052 0.0233 0.0
C253 C 0.22133 0.44034 0.0483 0.0
C254 C 0.22149 0.4578 0.04544 0.0
H255 H 0.25413 0.49422 0.99716 0.0
H256 H 0.24946 0.48255 0.03736 0.0
H257 H 0.24418 0.47395 0.99379 0.0
H258 H 0.19723 0.46203 0.97014 0.0
H259 H 0.19663 0.43136 0.9755 0.0
H260 H 0.43551 0.23162 0.98261 0.0
H261 H 0.46604 0.23019 0.98646 0.0
H262 H 0.46234 0.18492 0.04984 0.0
H263 H 0.43163 0.18648 0.04682 0.0
H264 H 0.4861 0.20615 0.07613 0.0
H265 H 0.49487 0.19812 0.92863 0.0
H266 H 0.48316 0.21667 0.93947 0.0
H267 H 0.47461 0.19636 0.9501 0.0
C268 C 0.44116 0.2214 0.99756 0.0
C269 C 0.43115 0.20909 0.01419 0.0
C270 C 0.45863 0.22052 0.99947 0.0
C271 C 0.46648 0.2072 0.01758 0.0
C272 C 0.45653 0.19522 0.03539 0.0
H273 H 0.5733 0.18442 0.99204 0.0
H274 H 0.54257 0.18348 0.9901 0.0
C275 C 0.439 0.19615 0.03372 0.0
C276 C 0.48506 0.20587 0.01796 0.0
H277 H 0.51944 0.20482 0.96278 0.0
C278 C 0.49339 0.20573 0.05136 0.0
C279 C 0.49456 0.20498 0.98563 0.0
C280 C 0.48634 0.20386 0.94895 0.0
C281 C 0.51099 0.2053 0.05331 0.0
C282 C 0.5205 0.20543 0.02095 0.0
C283 C 0.51215 0.20498 0.98757 0.0
C284 C 0.53911 0.20624 0.02117 0.0
C285 C 0.51918 0.20454 0.09006 0.0
C286 C 0.54737 0.2196 0.03834 0.0
C287 C 0.56487 0.22012 0.03964 0.0
C288 C 0.5745 0.20741 0.02332 0.0
C289 C 0.56624 0.19439 1.00488 0.0
C290 C 0.54868 0.19381 1.00383 0.0
H291 H 0.51052 0.19933 0.11076 0.0
H292 H 0.53073 0.19675 0.08944 0.0
H293 H 0.52267 0.21742 0.09864 0.0
H294 H 0.54026 0.2296 0.05095 0.0
H295 H 0.57085 0.23041 0.05377 0.0
H296 H 0.76975 0.43342 0.98132 0.0
H297 H 0.7706 0.46399 0.98455 0.0
H298 H 0.8158 0.46143 0.04845 0.0
H299 H 0.81479 0.43071 0.04613 0.0
H300 H 0.79435 0.4849 0.07401 0.0
H301 H 0.80205 0.49313 0.9263 0.0
H302 H 0.78364 0.48126 0.93745 0.0
H303 H 0.80408 0.47298 0.94811 0.0
C304 C 0.77983 0.43934 0.99627 0.0
C305 C 0.79228 0.42965 0.01326 0.0
C306 C 0.78037 0.45683 0.99781 0.0
C307 C 0.79352 0.46501 0.01587 0.0
C308 C 0.80563 0.45537 0.03404 0.0
H309 H 0.81564 0.57179 0.98902 0.0
H310 H 0.81646 0.54106 0.98678 0.0
C311 C 0.80502 0.43783 0.03278 0.0
C312 C 0.79453 0.4836 0.01586 0.0
H313 H 0.79515 0.51776 0.96006 0.0
C314 C 0.79464 0.49208 0.04911 0.0
C315 C 0.79526 0.49297 0.98335 0.0
C316 C 0.79644 0.48462 0.9468 0.0
C317 C 0.79492 0.50968 0.05074 0.0
C318 C 0.79464 0.51905 0.01821 0.0
C319 C 0.79509 0.51057 0.98497 0.0
C320 C 0.79377 0.53765 0.01814 0.0
C321 C 0.79571 0.51803 0.08734 0.0
C322 C 0.78047 0.54593 0.03548 0.0
C323 C 0.78003 0.56343 0.03698 0.0
C324 C 0.79275 0.57303 0.02066 0.0
C325 C 0.80566 0.56475 1.00185 0.0
C326 C 0.80617 0.5472 1.00064 0.0
H327 H 0.80101 0.50948 0.10814 0.0
H328 H 0.80345 0.5296 0.08645 0.0
H329 H 0.78283 0.52149 0.09599 0.0
H330 H 0.77049 0.53884 0.04821 0.0
H331 H 0.76981 0.56942 0.05138 0.0
H332 H 0.57199 0.8158 0.04284 0.0
H333 H 0.54126 0.81607 0.04538 0.0
H334 H 0.53968 0.7711 0.9805 0.0
H335 H 0.57026 0.77103 0.977 0.0
H336 H 0.51835 0.79441 0.95536 0.0
H337 H 0.50957 0.78718 0.10336 0.0
H338 H 0.52242 0.80478 0.09121 0.0
H339 H 0.52956 0.78384 0.08158 0.0
C340 C 0.56508 0.80586 0.02953 0.0
C341 C 0.57354 0.79338 1.00978 0.0
C342 C 0.54752 0.80599 0.03109 0.0
C343 C 0.53816 0.7935 0.01345 0.0
C344 C 0.54663 0.78087 0.99431 0.0
H345 H 0.43348 0.77014 0.0459 0.0
H346 H 0.46405 0.77028 0.0418 0.0
C347 C 0.56412 0.78082 0.99243 0.0
C348 C 0.51952 0.79384 0.01355 0.0
H349 H 0.48523 0.79324 0.06885 0.0
C350 C 0.5111 0.79412 0.98018 0.0
C351 C 0.51008 0.79331 0.04592 0.0
C352 C 0.51834 0.79209 0.08254 0.0
C353 C 0.4935 0.79385 0.97827 0.0
C354 C 0.48405 0.7937 0.01066 0.0
C355 C 0.49248 0.79346 0.04403 0.0
C356 C 0.46542 0.79325 0.01075 0.0
C357 C 0.48524 0.79323 0.94158 0.0
C358 C 0.45598 0.80603 0.99429 0.0
C359 C 0.43843 0.80586 0.99619 0.0
C360 C 0.43006 0.79306 0.01511 0.0
C361 C 0.43954 0.78019 0.03113 0.0
C362 C 0.45703 0.78027 0.02892 0.0
H363 H 0.49404 0.78874 0.92037 0.0
H364 H 0.47408 0.78489 0.94185 0.0
H365 H 0.48108 0.80604 0.93398 0.0
H366 H 0.46218 0.81636 0.98078 0.0
H367 H 0.43147 0.81605 0.98391 0.0
H368 H 0.73321 0.07074 0.48422 0.0
H369 H 0.7323 0.04014 0.48606 0.0
H370 H 0.68542 0.04217 0.54427 0.0
H371 H 0.68646 0.0729 0.54335 0.0
H372 H 0.70627 0.01883 0.5721 0.0
H373 H 0.7028 0.01088 0.4236 0.0
H374 H 0.72077 0.02286 0.43719 0.0
H375 H 0.70001 0.03096 0.44533 0.0
C376 C 0.72273 0.0647 0.49757 0.0
C377 C 0.70985 0.07424 0.51345 0.0
C378 C 0.72216 0.04719 0.49831 0.0
C379 C 0.70857 0.03886 0.51443 0.0
C380 C 0.69594 0.04834 0.53135 0.0
H381 H 0.68864 0.93171 0.48428 0.0
H382 H 0.68737 0.96244 0.48188 0.0
C383 C 0.69657 0.06589 0.53088 0.0
C384 C 0.7077 0.02026 0.51404 0.0
H385 H 0.70904 0.98622 0.45791 0.0
C386 C 0.70675 0.0117 0.54712 0.0
C387 C 0.70798 0.01096 0.4814 0.0
C388 C 0.70776 0.01939 0.44486 0.0
C389 C 0.70663 0.9941 0.54854 0.0
C390 C 0.70794 0.98481 0.51601 0.0
C391 C 0.70831 0.99335 0.48285 0.0
C392 C 0.70914 0.96623 0.51593 0.0
C393 C 0.70492 0.98567 0.58489 0.0
C394 C 0.7221 0.95818 0.53483 0.0
C395 C 0.72279 0.9407 0.53643 0.0
C396 C 0.71068 0.93088 0.51864 0.0
C397 C 0.69815 0.93893 0.49827 0.0
C398 C 0.69738 0.95648 0.49696 0.0
H399 H 0.69891 0.9941 0.60503 0.0
H400 H 0.69739 0.97398 0.58289 0.0
H401 H 0.71758 0.98238 0.59517 0.0
H402 H 0.73161 0.96543 0.54875 0.0
H403 H 0.73271 0.93488 0.55203 0.0
H404 H 0.93043 0.69507 0.56224 0.0
H405 H 0.96111 0.69632 0.56706 0.0
H406 H 0.96331 0.7253 0.4687 0.0
H407 H 0.93282 0.72451 0.46422 0.0
H408 H 0.98472 0.68445 0.52087 0.0
H409 H 0.99209 0.7532 0.53497 0.0
H410 H 0.97205 0.74289 0.53959 0.0
H411 H 0.98035 0.74756 0.49544 0.0
C412 C 0.93746 0.70188 0.54191 0.0
C413 C 0.92918 0.7098 0.51302 0.0
C414 C 0.95497 0.70254 0.54463 0.0
C415 C 0.96449 0.71114 0.51856 0.0
C416 C 0.95623 0.71898 0.48965 0.0
H417 H 0.07133 0.6964 0.47592 0.0
H418 H 0.04059 0.69656 0.47266 0.0
C419 C 0.93877 0.71843 0.48705 0.0
C420 C 0.98309 0.71141 0.52063 0.0
H421 H 0.0169 0.73771 0.52092 0.0
C422 C 0.99177 0.69609 0.52114 0.0
C423 C 0.99227 0.72661 0.52136 0.0
C424 C 0.98371 0.74349 0.52319 0.0
C425 C 0.00939 0.69554 0.52176 0.0
C426 C 0.01857 0.71074 0.52092 0.0
C427 C 0.00987 0.72606 0.521 0.0
C428 C 0.0372 0.7111 0.52161 0.0
C429 C 0.01796 0.67868 0.52409 0.0
C430 C 0.04551 0.71979 0.54929 0.0
C431 C 0.063 0.71997 0.55085 0.0
C432 C 0.0726 0.7114 0.52477 0.0
C433 C 0.06429 0.70302 0.49652 0.0
C434 C 0.04673 0.70298 0.49482 0.0
H435 H 0.00934 0.66884 0.53448 0.0
H436 H 0.02214 0.67484 0.49669 0.0
H437 H 0.02914 0.67925 0.54196 0.0
H438 H 0.03843 0.72622 0.57015 0.0
H439 H 0.06899 0.72654 0.573 0.0
H440 H 0.30662 0.07211 0.4733 0.0
H441 H 0.30582 0.04145 0.4677 0.0
H442 H 0.2787 0.03819 0.56841 0.0
H443 H 0.27908 0.06866 0.57376 0.0
H444 H 0.31887 0.01769 0.51258 0.0
H445 H 0.25 0.00954 0.50302 0.0
H446 H 0.26002 0.02971 0.4981 0.0
H447 H 0.25615 0.02116 0.54238 0.0
C448 C 0.30033 0.06486 0.49402 0.0
C449 C 0.29281 0.07283 0.52382 0.0
C450 C 0.29992 0.04735 0.49084 0.0
C451 C 0.29196 0.03754 0.51735 0.0
C452 C 0.28453 0.0455 0.54717 0.0
H453 H 0.30829 0.93068 0.55575 0.0
H454 H 0.30792 0.96138 0.55978 0.0
C455 C 0.28485 0.06295 0.55026 0.0
C456 C 0.29189 0.01897 0.51465 0.0
H457 H 0.26601 0.98484 0.51473 0.0
C458 C 0.30732 0.01049 0.51281 0.0
C459 C 0.2768 0.00961 0.51457 0.0
C460 C 0.25981 0.01797 0.51425 0.0
C461 C 0.30808 0.99289 0.5115 0.0
C462 C 0.293 0.98352 0.51293 0.0
C463 C 0.27757 0.99202 0.51417 0.0
C464 C 0.29287 0.9649 0.51163 0.0
C465 C 0.325 0.98455 0.50784 0.0
C466 C 0.284 0.95666 0.48411 0.0
C467 C 0.28396 0.93918 0.4821 0.0
C468 C 0.29283 0.92953 0.50756 0.0
C469 C 0.30142 0.93776 0.53562 0.0
C470 C 0.30134 0.95531 0.53776 0.0
H471 H 0.33462 0.99337 0.49727 0.0
H472 H 0.32921 0.98018 0.53483 0.0
H473 H 0.32433 0.97352 0.48955 0.0
H474 H 0.27729 0.96379 0.46377 0.0
H475 H 0.27721 0.93325 0.46013 0.0
H476 H 0.06865 0.27816 0.45764 0.0
H477 H 0.03808 0.27841 0.46016 0.0
H478 H 0.03992 0.30619 0.5602 0.0
H479 H 0.07066 0.30641 0.55735 0.0
H480 H 0.01656 0.26584 0.50858 0.0
H481 H 0.00855 0.33486 0.50049 0.0
H482 H 0.02841 0.32469 0.4921 0.0
H483 H 0.02141 0.32828 0.53771 0.0
C484 C 0.06259 0.28432 0.48026 0.0
C485 C 0.0721 0.29235 0.50723 0.0
C486 C 0.04509 0.28445 0.48163 0.0
C487 C 0.03668 0.29258 0.50999 0.0
C488 C 0.04612 0.30021 0.53755 0.0
H489 H 0.93258 0.27787 0.56771 0.0
H490 H 0.96305 0.27719 0.56249 0.0
C491 C 0.06369 0.3002 0.53607 0.0
C492 C 0.01805 0.29281 0.51066 0.0
H493 H 0.98403 0.31887 0.51297 0.0
C494 C 0.00945 0.27744 0.50943 0.0
C495 C 0.00877 0.30796 0.51106 0.0
C496 C 0.01723 0.32489 0.51004 0.0
C497 C 0.99185 0.27679 0.5092 0.0
C498 C 0.98258 0.29191 0.51117 0.0
C499 C 0.99116 0.30729 0.51175 0.0
C500 C 0.96398 0.29202 0.51353 0.0
C501 C 0.98339 0.2599 0.50623 0.0
C502 C 0.95433 0.30092 0.48817 0.0
C503 C 0.93682 0.3015 0.4913 0.0
C504 C 0.92869 0.29321 0.51992 0.0
C505 C 0.93841 0.28425 0.54512 0.0
C506 C 0.95586 0.28377 0.54209 0.0
H507 H 0.99182 0.25043 0.49371 0.0
H508 H 0.98008 0.25539 0.5337 0.0
H509 H 0.97171 0.26069 0.48996 0.0
H510 H 0.96036 0.30747 0.46603 0.0
H511 H 0.9297 0.30857 0.47157 0.0
H512 H 0.25896 0.35963 0.02415 0.0
H513 H 0.28291 0.34039 0.0213 0.0
H514 H 0.24919 0.29895 1.00287 0.0
H515 H 0.2253 0.31801 1.00497 0.0
H516 H 0.28973 0.31353 0.06513 0.0
H517 H 0.28346 0.29215 0.92345 0.0
H518 H 0.27256 0.31035 0.94056 0.0
H519 H 0.26429 0.28963 0.9483 0.0
C520 C 0.25665 0.34644 0.01908 0.0
C521 C 0.24019 0.34038 0.01462 0.0
C522 C 0.27036 0.33548 0.01752 0.0
C523 C 0.26786 0.31829 0.01129 0.0
C524 C 0.25146 0.31222 1.0068 0.0
H525 H 0.3188 0.22513 0.02709 0.0
H526 H 0.29973 0.2491 0.02618 0.0
C527 C 0.23778 0.32315 1.00823 0.0
C528 C 0.28223 0.30645 0.01127 0.0
H529 H 0.30014 0.27474 0.96259 0.0
C530 C 0.2922 0.30524 0.04249 0.0
C531 C 0.2855 0.29571 0.98161 0.0
C532 C 0.276 0.29713 0.94646 0.0
C533 C 0.3048 0.29298 0.04547 0.0
C534 C 0.30744 0.28174 0.01652 0.0
C535 C 0.29793 0.28334 0.98484 0.0
C536 C 0.31932 0.26757 0.01933 0.0
C537 C 0.31478 0.29162 0.07997 0.0
C538 C 0.33667 0.27012 0.01607 0.0
C539 C 0.34767 0.25642 0.01643 0.0
C540 C 0.34145 0.23997 0.02011 0.0
C541 C 0.32405 0.23759 0.02425 0.0
C542 C 0.31311 0.25126 0.02367 0.0
H543 H 0.31046 0.30064 0.1009 0.0
H544 H 0.31381 0.27869 0.09099 0.0
H545 H 0.32823 0.29406 0.07417 0.0
H546 H 0.34165 0.28266 0.0125 0.0
H547 H 0.36098 0.25869 0.01314 0.0
H548 H 0.77998 0.31721 0.03054 0.0
H549 H 0.75699 0.29704 0.02998 0.0
H550 H 0.72167 0.33709 0.01113 0.0
H551 H 0.74471 0.35743 0.01082 0.0
H552 H 0.72908 0.29435 0.07248 0.0
H553 H 0.71092 0.30485 0.92912 0.0
H554 H 0.7302 0.31289 0.94793 0.0
H555 H 0.71063 0.32329 0.95702 0.0
C556 C 0.76733 0.3218 0.02637 0.0
C557 C 0.76422 0.33895 0.02045 0.0
C558 C 0.7542 0.31022 0.02606 0.0
C559 C 0.73766 0.31551 0.01985 0.0
C560 C 0.73439 0.33269 0.01511 0.0
H561 H 0.64599 0.25506 0.01267 0.0
H562 H 0.6658 0.27856 0.01356 0.0
C563 C 0.74757 0.34431 0.01522 0.0
C564 C 0.72398 0.30291 0.01836 0.0
H565 H 0.69454 0.28557 0.96247 0.0
C566 C 0.7215 0.29247 0.04846 0.0
C567 C 0.7141 0.30048 0.98696 0.0
C568 C 0.71664 0.31086 0.95327 0.0
C569 C 0.70953 0.27958 0.04792 0.0
C570 C 0.69988 0.27698 0.01637 0.0
C571 C 0.70201 0.28764 0.98657 0.0
C572 C 0.68793 0.26285 0.01358 0.0
C573 C 0.70728 0.26876 0.08106 0.0
C574 C 0.69387 0.24631 0.01237 0.0
C575 C 0.68263 0.23286 0.01162 0.0
C576 C 0.66521 0.23574 0.01221 0.0
C577 C 0.65931 0.25239 0.01233 0.0
C578 C 0.67059 0.26584 0.01283 0.0
H579 H 0.71309 0.27451 0.10541 0.0
H580 H 0.69375 0.26656 0.08651 0.0
H581 H 0.7133 0.2564 0.07635 0.0
H582 H 0.70724 0.24379 0.0125 0.0
H583 H 0.68762 0.22022 0.01147 0.0
H584 H 0.74547 0.64438 0.01868 0.0
H585 H 0.72182 0.66396 0.0157 0.0
H586 H 0.75631 0.7052 1.00247 0.0
H587 H 0.77992 0.68579 1.00463 0.0
H588 H 0.71463 0.69002 0.06092 0.0
H589 H 0.72334 0.71392 0.92172 0.0
H590 H 0.73386 0.69535 0.93804 0.0
H591 H 0.7421 0.71586 0.94817 0.0
C592 C 0.74802 0.6576 0.0147 0.0
C593 C 0.76461 0.6635 0.01172 0.0
C594 C 0.73448 0.66876 0.01306 0.0
C595 C 0.73728 0.68601 1.00827 0.0
C596 C 0.75381 0.69191 1.00524 0.0
H597 H 0.68578 0.77906 0.02735 0.0
H598 H 0.70509 0.75529 0.02592 0.0
C599 C 0.76733 0.68078 1.00671 0.0
C600 C 0.72305 0.69801 1.00828 0.0
H601 H 0.70605 0.73065 0.96099 0.0
C602 C 0.71258 0.69873 0.03883 0.0
C603 C 0.72033 0.70931 0.97935 0.0
C604 C 0.7304 0.70847 0.94482 0.0
C605 C 0.69997 0.71097 0.04188 0.0
C606 C 0.69782 0.72271 0.01369 0.0
C607 C 0.70788 0.72166 0.98267 0.0
C608 C 0.68578 0.73675 0.01662 0.0
C609 C 0.68941 0.71174 0.07569 0.0
C610 C 0.66851 0.7341 0.01211 0.0
C611 C 0.65738 0.74769 0.01275 0.0
C612 C 0.66338 0.76413 0.01798 0.0
C613 C 0.6807 0.7666 0.02331 0.0
C614 C 0.69178 0.75304 0.02244 0.0
H615 H 0.69351 0.70249 0.09635 0.0
H616 H 0.69 0.72452 0.08759 0.0
H617 H 0.6761 0.70918 0.06873 0.0
H618 H 0.66371 0.72158 1.00738 0.0
H619 H 0.64414 0.74535 1.00852 0.0
H620 H 0.22331 0.68678 0.02816 0.0
H621 H 0.24708 0.70604 0.02808 0.0
H622 H 0.28095 0.66459 0.01086 0.0
H623 H 0.25714 0.64517 1.01009 0.0
H624 H 0.27473 0.70761 0.07183 0.0
H625 H 0.29371 0.69628 0.92914 0.0
H626 H 0.27394 0.68907 0.94718 0.0
H627 H 0.29298 0.6779 0.95716 0.0
C628 C 0.2358 0.6817 0.02441 0.0
C629 C 0.23829 0.66442 0.01887 0.0
C630 C 0.24939 0.69275 0.02438 0.0
C631 C 0.26576 0.6868 0.01884 0.0
C632 C 0.26838 0.66951 0.01434 0.0
H633 H 0.35873 0.74615 0.01652 0.0
H634 H 0.339 0.72252 0.01785 0.0
C635 C 0.25476 0.65841 0.01417 0.0
C636 C 0.27994 0.69884 0.01787 0.0
H637 H 0.31029 0.71522 0.96285 0.0
C638 C 0.28256 0.7092 0.04806 0.0
C639 C 0.29015 0.70089 0.98681 0.0
C640 C 0.28752 0.69056 0.95308 0.0
C641 C 0.29491 0.72173 0.04783 0.0
C642 C 0.30484 0.724 0.01656 0.0
C643 C 0.30262 0.71336 0.98675 0.0
C644 C 0.31685 0.73806 0.01374 0.0
C645 C 0.29718 0.73262 0.08083 0.0
C646 C 0.31086 0.75451 0.0102 0.0
C647 C 0.32203 0.76799 1.00918 0.0
C648 C 0.33943 0.76527 0.01185 0.0
C649 C 0.34541 0.74869 0.0145 0.0
C650 C 0.33419 0.73518 0.01526 0.0
H651 H 0.29084 0.72727 0.10497 0.0
H652 H 0.31072 0.73429 0.08696 0.0
H653 H 0.29177 0.74521 0.07548 0.0
H654 H 0.29749 0.75692 1.00868 0.0
H655 H 0.31697 0.78056 1.00708 0.0
H656 H 0.85842 0.75566 0.49995 0.0
H657 H 0.83985 0.78013 0.50027 0.0
H658 H 0.79986 0.74983 0.54388 0.0
H659 H 0.81828 0.72532 0.54383 0.0
H660 H 0.80885 0.78268 0.46252 0.0
H661 H 0.80064 0.79156 0.61029 0.0
H662 H 0.81759 0.77934 0.59129 0.0
H663 H 0.79692 0.77048 0.59505 0.0
C664 C 0.84573 0.75422 0.51001 0.0
C665 C 0.83985 0.73851 0.52189 0.0
C666 C 0.83515 0.76822 0.5101 0.0
C667 C 0.81856 0.76681 0.52246 0.0
C668 C 0.81271 0.75124 0.53481 0.0
H669 H 0.72848 0.82163 0.48348 0.0
H670 H 0.75227 0.80229 0.48392 0.0
C671 C 0.82325 0.73722 0.53458 0.0
C672 C 0.80702 0.78135 0.52056 0.0
H673 H 0.78134 0.80602 0.57192 0.0
C674 C 0.80297 0.78792 0.48645 0.0
C675 C 0.79952 0.78827 0.55185 0.0
C676 C 0.80398 0.78218 0.58925 0.0
C677 C 0.79105 0.80078 0.4827 0.0
C678 C 0.78295 0.80711 0.51384 0.0
C679 C 0.78751 0.80104 0.54807 0.0
C680 C 0.76906 0.81939 0.51137 0.0
C681 C 0.78708 0.80739 0.44546 0.0
C682 C 0.77064 0.8354 0.52672 0.0
C683 C 0.75707 0.84655 0.52639 0.0
C684 C 0.74161 0.84174 0.51119 0.0
C685 C 0.7402 0.82574 0.49539 0.0
C686 C 0.7538 0.81469 0.49546 0.0
H687 H 0.79715 0.8043 0.42575 0.0
H688 H 0.77524 0.80161 0.43578 0.0
H689 H 0.78531 0.8212 0.44603 0.0
H690 H 0.78232 0.83919 0.5393 0.0
H691 H 0.75856 0.85874 0.53895 0.0
H692 H 0.24581 0.85853 0.50534 0.0
H693 H 0.22186 0.83931 0.50809 0.0
H694 H 0.2551 0.79869 0.53636 0.0
H695 H 0.279 0.81775 0.53428 0.0
H696 H 0.21661 0.81086 0.46697 0.0
H697 H 0.21853 0.79444 0.61242 0.0
H698 H 0.22976 0.81217 0.59404 0.0
H699 H 0.23836 0.79135 0.59039 0.0
C700 C 0.24801 0.84555 0.51254 0.0
C701 C 0.26434 0.83971 0.51972 0.0
C702 C 0.2343 0.83459 0.51405 0.0
C703 C 0.23667 0.81764 0.52297 0.0
C704 C 0.25293 0.8118 0.53026 0.0
H705 H 0.18477 0.72506 0.50039 0.0
H706 H 0.20403 0.74892 0.50102 0.0
C707 C 0.26661 0.82272 0.52883 0.0
C708 C 0.22233 0.80577 0.52285 0.0
H709 H 0.20258 0.77607 0.57406 0.0
C710 C 0.21337 0.80343 0.49053 0.0
C711 C 0.21806 0.79616 0.55369 0.0
C712 C 0.22657 0.79876 0.5897 0.0
C713 C 0.20076 0.79119 0.48785 0.0
C714 C 0.19708 0.78111 0.51817 0.0
C715 C 0.20558 0.78381 0.55082 0.0
C716 C 0.18509 0.76705 0.51594 0.0
C717 C 0.19171 0.78869 0.45246 0.0
C718 C 0.16806 0.76948 0.52388 0.0
C719 C 0.15697 0.75587 0.52355 0.0
C720 C 0.16278 0.73961 0.51538 0.0
C721 C 0.17985 0.73737 0.50679 0.0
C722 C 0.19089 0.75097 0.50715 0.0
H723 H 0.1956 0.79797 0.43168 0.0
H724 H 0.19428 0.77587 0.44207 0.0
H725 H 0.17796 0.78974 0.45677 0.0
H726 H 0.16343 0.78185 0.53077 0.0
H727 H 0.14392 0.75804 0.53029 0.0
H728 H 0.27117 0.17575 0.46836 0.0
H729 H 0.24766 0.19545 0.46919 0.0
H730 H 0.22663 0.1697 0.5613 0.0
H731 H 0.24967 0.1494 0.55932 0.0
H732 H 0.20241 0.17932 0.51844 0.0
H733 H 0.24495 0.23332 0.53875 0.0
H734 H 0.24953 0.22254 0.4974 0.0
H735 H 0.2523 0.21196 0.54007 0.0
C736 C 0.26144 0.1742 0.48856 0.0
C737 C 0.26233 0.16115 0.514 0.0
C738 C 0.24808 0.18556 0.48922 0.0
C739 C 0.23565 0.18442 0.51607 0.0
C740 C 0.23614 0.17094 0.54053 0.0
H741 H 0.175 0.2718 0.56842 0.0
H742 H 0.19444 0.24809 0.57052 0.0
C743 C 0.24931 0.15934 0.53936 0.0
C744 C 0.22242 0.19749 0.5192 0.0
H745 H 0.21656 0.23983 0.52453 0.0
C746 C 0.2055 0.19255 0.52004 0.0
C747 C 0.22642 0.21475 0.52221 0.0
C748 C 0.24429 0.22094 0.52498 0.0
C749 C 0.19249 0.20439 0.52303 0.0
C750 C 0.19648 0.22171 0.52382 0.0
C751 C 0.21342 0.22659 0.52358 0.0
C752 C 0.18346 0.2351 0.5248 0.0
C753 C 0.17468 0.19812 0.52619 0.0
C754 C 0.17061 0.23565 0.49879 0.0
C755 C 0.15922 0.249 0.49819 0.0
C756 C 0.16078 0.26232 0.52286 0.0
C757 C 0.17354 0.26172 0.54901 0.0
C758 C 0.18466 0.24818 0.55017 0.0
H759 H 0.17427 0.18527 0.53782 0.0
H760 H 0.16693 0.20651 0.54338 0.0
H761 H 0.16898 0.19752 0.49885 0.0
H762 H 0.1697 0.22605 0.47817 0.0
H763 H 0.14964 0.24925 0.47741 0.0
H764 H 0.85725 0.24735 0.52766 0.0
H765 H 0.83743 0.22385 0.53089 0.0
H766 H 0.7964 0.25766 0.50963 0.0
H767 H 0.81597 0.28117 0.50617 0.0
H768 H 0.79402 0.23483 0.57476 0.0
H769 H 0.80876 0.20276 0.4446 0.0
H770 H 0.82593 0.20925 0.47304 0.0
H771 H 0.81305 0.22478 0.45165 0.0
C772 C 0.84403 0.24977 0.5233 0.0
C773 C 0.83821 0.26616 0.51667 0.0
C774 C 0.83275 0.23633 0.52512 0.0
C775 C 0.8155 0.23908 0.52041 0.0
C776 C 0.80968 0.25533 0.5133 0.0
H777 H 0.72144 0.18718 0.5316 0.0
H778 H 0.7446 0.20718 0.53342 0.0
C779 C 0.82092 0.26873 0.51125 0.0
C780 C 0.80333 0.2252 0.52422 0.0
H781 H 0.78758 0.19088 0.48077 0.0
C782 C 0.79264 0.22515 0.55436 0.0
C783 C 0.80174 0.21255 0.49771 0.0
C784 C 0.81289 0.21224 0.46474 0.0
C785 C 0.78019 0.21284 0.5585 0.0
C786 C 0.77812 0.20055 0.53124 0.0
C787 C 0.78915 0.20035 0.50158 0.0
C788 C 0.76411 0.18829 0.53207 0.0
C789 C 0.76947 0.21309 0.59214 0.0
C790 C 0.76735 0.17101 0.53006 0.0
C791 C 0.75411 0.15951 0.52863 0.0
C792 C 0.73735 0.16511 0.52904 0.0
C793 C 0.73417 0.18242 0.53153 0.0
C794 C 0.74741 0.19389 0.53278 0.0
H795 H 0.77599 0.21947 0.61487 0.0
H796 H 0.75775 0.22013 0.58653 0.0
H797 H 0.76606 0.20019 0.60078 0.0
H798 H 0.78015 0.16642 0.52928 0.0
H799 H 0.75702 0.14627 0.52666 0.0
H800 H 0.1205 0.31637 0.38653 0.0
H801 H 0.12719 0.32756 0.32703 0.0
H802 H 0.16433 0.36017 0.37445 0.0
H803 H 0.15798 0.34869 0.43447 0.0
H804 H 0.12644 0.35896 0.29717 0.0
H805 H 0.19163 0.33419 0.30033 0.0
H806 H 0.17606 0.32828 0.33336 0.0
H807 H 0.18653 0.3482 0.33674 0.0
C808 C 0.13004 0.326 0.38453 0.0
C809 C 0.13885 0.33148 0.41536 0.0
C810 C 0.13381 0.33242 0.35037 0.0
C811 C 0.14648 0.34446 0.34614 0.0
C812 C 0.15477 0.35059 0.37699 0.0
H813 H 0.19189 0.38567 0.15201 0.0
H814 H 0.18205 0.38105 0.21363 0.0
C815 C 0.15104 0.34411 0.41132 0.0
C816 C 0.15131 0.34996 0.30919 0.0
H817 H 0.18375 0.34966 0.24877 0.0
C818 C 0.13899 0.35699 0.28661 0.0
C819 C 0.16765 0.34725 0.29533 0.0
C820 C 0.18121 0.33894 0.31751 0.0
C821 C 0.14259 0.36144 0.25065 0.0
C822 C 0.15889 0.35863 0.23684 0.0
C823 C 0.17126 0.35182 0.2595 0.0
C824 C 0.16348 0.36251 0.19886 0.0
C825 C 0.12899 0.36922 0.22778 0.0
C826 C 0.15616 0.35372 0.16995 0.0
C827 C 0.16178 0.35631 0.13446 0.0
C828 C 0.17489 0.36767 0.12735 0.0
C829 C 0.1818 0.37679 0.15638 0.0
C830 C 0.17621 0.37417 0.19171 0.0
H831 H 0.11851 0.37412 0.24456 0.0
H832 H 0.1341 0.37962 0.2111 0.0
H833 H 0.12384 0.35957 0.2092 0.0
H834 H 0.14649 0.34446 0.17495 0.0
H835 H 0.15623 0.34903 0.11282 0.0
H836 H 0.64926 0.13378 0.42806 0.0
H837 H 0.63791 0.13679 0.36664 0.0
H838 H 0.688 0.14521 0.32594 0.0
H839 H 0.69934 0.14101 0.38634 0.0
H840 H 0.63625 0.16051 0.32259 0.0
H841 H 0.67395 0.1127 0.25303 0.0
H842 H 0.6738 0.11444 0.30162 0.0
H843 H 0.68802 0.12697 0.27477 0.0
C844 C 0.6578 0.13606 0.40579 0.0
C845 C 0.67518 0.13693 0.4118 0.0
C846 C 0.65133 0.13778 0.37071 0.0
C847 C 0.66212 0.14072 0.34119 0.0
C848 C 0.67943 0.14216 0.34767 0.0
H849 H 0.63945 0.19693 0.15197 0.0
H850 H 0.64413 0.18575 0.2123 0.0
C851 C 0.6859 0.13995 0.38238 0.0
C852 C 0.65536 0.14339 0.30401 0.0
H853 H 0.66383 0.13555 0.21506 0.0
C854 C 0.64209 0.15478 0.29916 0.0
C855 C 0.66246 0.13555 0.27315 0.0
C856 C 0.67519 0.12159 0.27603 0.0
C857 C 0.63652 0.15932 0.26449 0.0
C858 C 0.64503 0.15302 0.23365 0.0
C859 C 0.65753 0.1408 0.23849 0.0
C860 C 0.64192 0.15965 0.19653 0.0
C861 C 0.62149 0.17077 0.26157 0.0
C862 C 0.64004 0.14878 0.16677 0.0
C863 C 0.63803 0.15521 0.13173 0.0
C864 C 0.63754 0.17262 0.12597 0.0
C865 C 0.63944 0.18344 0.15568 0.0
C866 C 0.64192 0.17704 0.19036 0.0
H867 H 0.61266 0.16866 0.2844 0.0
H868 H 0.62571 0.18401 0.26312 0.0
H869 H 0.61458 0.16885 0.23583 0.0
H870 H 0.64016 0.13531 0.17061 0.0
H871 H 0.63664 0.1466 0.10927 0.0
H872 H 0.88555 0.68382 0.38979 0.0
H873 H 0.88027 0.67368 0.32863 0.0
H874 H 0.83818 0.64482 0.36725 0.0
H875 H 0.84341 0.65486 0.42899 0.0
H876 H 0.85994 0.62812 0.31365 0.0
H877 H 0.83905 0.69174 0.27159 0.0
H878 H 0.85929 0.69088 0.29291 0.0
H879 H 0.84084 0.68565 0.31844 0.0
C880 C 0.87526 0.67517 0.3855 0.0
C881 C 0.86477 0.67031 0.41431 0.0
C882 C 0.87225 0.66943 0.35045 0.0
C883 C 0.85867 0.65876 0.34336 0.0
C884 C 0.84868 0.65314 0.37221 0.0
H885 H 0.8113 0.61894 0.1519 0.0
H886 H 0.82178 0.62395 0.21284 0.0
C887 C 0.85169 0.65888 0.40745 0.0
C888 C 0.85442 0.65428 0.30555 0.0
H889 H 0.84121 0.67127 0.22575 0.0
C890 C 0.85582 0.63751 0.29438 0.0
C891 C 0.84911 0.6666 0.28051 0.0
C892 C 0.84683 0.68472 0.2914 0.0
C893 C 0.85222 0.63277 0.25858 0.0
C894 C 0.84679 0.64509 0.2336 0.0
C895 C 0.84549 0.66186 0.24483 0.0
C896 C 0.84156 0.64085 0.19616 0.0
C897 C 0.85452 0.61467 0.2477 0.0
C898 C 0.84909 0.64881 0.16639 0.0
C899 C 0.84302 0.64608 0.13134 0.0
C900 C 0.82921 0.63543 0.12547 0.0
C901 C 0.82198 0.62719 0.15533 0.0
C902 C 0.82804 0.62993 0.19027 0.0
H903 H 0.8634 0.60808 0.26599 0.0
H904 H 0.84225 0.60813 0.24935 0.0
H905 H 0.85922 0.61364 0.21952 0.0
H906 H 0.85947 0.65739 0.17036 0.0
H907 H 0.84886 0.65266 0.10902 0.0
H908 H 0.31481 0.88191 0.38178 0.0
H909 H 0.32603 0.876 0.32179 0.0
H910 H 0.36214 0.84198 0.36827 0.0
H911 H 0.35075 0.84757 0.42866 0.0
H912 H 0.35771 0.87906 0.29088 0.0
H913 H 0.33707 0.81248 0.29584 0.0
H914 H 0.3302 0.82785 0.32846 0.0
H915 H 0.35076 0.81872 0.33198 0.0
C916 C 0.32522 0.87325 0.37943 0.0
C917 C 0.33174 0.86506 0.41009 0.0
C918 C 0.33164 0.86992 0.34503 0.0
C919 C 0.34471 0.85833 0.34048 0.0
C920 C 0.35181 0.85072 0.37112 0.0
H921 H 0.38675 0.81369 0.14637 0.0
H922 H 0.38224 0.8237 0.20794 0.0
C923 C 0.34535 0.854 0.40564 0.0
C924 C 0.35026 0.85375 0.30346 0.0
H925 H 0.35178 0.82109 0.24381 0.0
C926 C 0.35648 0.86638 0.28058 0.0
C927 C 0.34853 0.83722 0.29002 0.0
C928 C 0.34114 0.82329 0.31266 0.0
C929 C 0.36112 0.86287 0.24468 0.0
C930 C 0.35928 0.84637 0.23125 0.0
C931 C 0.35324 0.83373 0.25424 0.0
C932 C 0.36324 0.84183 0.19328 0.0
C933 C 0.3681 0.87681 0.22155 0.0
C934 C 0.35418 0.84886 0.16443 0.0
C935 C 0.35674 0.84317 0.12902 0.0
C936 C 0.3683 0.83024 0.12191 0.0
C937 C 0.3777 0.82362 0.1508 0.0
C938 C 0.37516 0.82933 0.18608 0.0
H939 H 0.37278 0.88742 0.23821 0.0
H940 H 0.3785 0.87218 0.2042 0.0
H941 H 0.35803 0.88165 0.20365 0.0
H942 H 0.3447 0.85831 0.16946 0.0
H943 H 0.34923 0.84848 0.10746 0.0
H944 H 0.15496 0.65389 0.60492 0.0
H945 H 0.16002 0.64267 0.66565 0.0
H946 H 0.12375 0.67728 0.70961 0.0
H947 H 0.1184 0.68831 0.64934 0.0
H948 H 0.17234 0.66099 0.72225 0.0
H949 H 0.11068 0.6342 0.76025 0.0
H950 H 0.11603 0.63938 0.71413 0.0
H951 H 0.10923 0.6555 0.7449 0.0
C952 C 0.14783 0.65888 0.62741 0.0
C953 C 0.1363 0.67202 0.62219 0.0
C954 C 0.15075 0.65247 0.66211 0.0
C955 C 0.1421 0.65898 0.69213 0.0
C956 C 0.13028 0.67177 0.68682 0.0
H957 H 0.15485 0.65702 0.9248 0.0
H958 H 0.14492 0.66168 0.86279 0.0
C959 C 0.12735 0.67816 0.65225 0.0
C960 C 0.14655 0.65362 0.72936 0.0
H961 H 0.13011 0.63893 0.80869 0.0
C962 C 0.16315 0.65596 0.74099 0.0
C963 C 0.13451 0.64721 0.75391 0.0
C964 C 0.11665 0.64377 0.74259 0.0
C965 C 0.16795 0.65247 0.77669 0.0
C966 C 0.15588 0.64624 0.80133 0.0
C967 C 0.1393 0.64375 0.78973 0.0
C968 C 0.1604 0.64224 0.83921 0.0
C969 C 0.18581 0.65592 0.78806 0.0
C970 C 0.17194 0.62941 0.84654 0.0
C971 C 0.17762 0.62674 0.88175 0.0
C972 C 0.17184 0.6368 0.91047 0.0
C973 C 0.15959 0.64908 0.90333 0.0
C974 C 0.15391 0.65177 0.86794 0.0
H975 H 0.19243 0.66418 0.7685 0.0
H976 H 0.18619 0.66191 0.81517 0.0
H977 H 0.19278 0.64389 0.78966 0.0
H978 H 0.17688 0.62175 0.82481 0.0
H979 H 0.18692 0.61705 0.88625 0.0
H980 H 0.34765 0.16056 0.60006 0.0
H981 H 0.35916 0.16665 0.66018 0.0
H982 H 0.33044 0.12581 0.70508 0.0
H983 H 0.31924 0.11943 0.64551 0.0
H984 H 0.34095 0.17611 0.71904 0.0
H985 H 0.37546 0.1178 0.75157 0.0
H986 H 0.36869 0.12279 0.70624 0.0
H987 H 0.35422 0.11374 0.73816 0.0
C988 C 0.34406 0.15267 0.62261 0.0
C989 C 0.33251 0.1395 0.61786 0.0
C990 C 0.35062 0.15619 0.65697 0.0
C991 C 0.34585 0.14654 0.68711 0.0
C992 C 0.33465 0.13317 0.6822 0.0
H993 H 0.34913 0.15668 0.9203 0.0
H994 H 0.34446 0.14753 0.85771 0.0
C995 C 0.32814 0.12963 0.64801 0.0
C996 C 0.3513 0.15127 0.72418 0.0
H997 H 0.36872 0.13573 0.80177 0.0
C998 C 0.34723 0.16735 0.73694 0.0
C999 C 0.35939 0.13979 0.74767 0.0
C1000 C 0.36484 0.12263 0.73511 0.0
C1001 C 0.35058 0.17211 0.77277 0.0
C1002 C 0.35837 0.16053 0.7964 0.0
C1003 C 0.36265 0.14453 0.78362 0.0
C1004 C 0.36221 0.16499 0.83443 0.0
C1005 C 0.34533 0.18934 0.78542 0.0
C1006 C 0.37407 0.17748 0.84205 0.0
C1007 C 0.37679 0.1827 0.87761 0.0
C1008 C 0.36771 0.17552 0.90641 0.0
C1009 C 0.3563 0.1625 0.89882 0.0
C1010 C 0.35362 0.15726 0.86309 0.0
H1011 H 0.33641 0.19537 0.76636 0.0
H1012 H 0.33939 0.18867 0.81255 0.0
H1013 H 0.3566 0.19746 0.78758 0.0
H1014 H 0.381 0.18342 0.82035 0.0
H1015 H 0.38576 0.19266 0.88237 0.0
H1016 H 0.81101 0.38263 0.88249 0.0
H1017 H 0.82181 0.37739 0.82185 0.0
H1018 H 0.86061 0.3458 0.86618 0.0
H1019 H 0.84967 0.3507 0.92722 0.0
H1020 H 0.85266 0.3825 0.78898 0.0
H1021 H 0.83678 0.31467 0.79527 0.0
H1022 H 0.82934 0.32955 0.82835 0.0
H1023 H 0.85049 0.32178 0.8306 0.0
C1024 C 0.82192 0.37464 0.87952 0.0
C1025 C 0.82935 0.36691 0.90979 0.0
C1026 C 0.8281 0.3717 0.84475 0.0
C1027 C 0.84181 0.36097 0.83943 0.0
C1028 C 0.84978 0.35385 0.86964 0.0
H1029 H 0.88581 0.31907 0.64515 0.0
H1030 H 0.88092 0.32929 0.70637 0.0
C1031 C 0.84356 0.35673 0.90452 0.0
C1032 C 0.84721 0.35674 0.8021 0.0
H1033 H 0.85056 0.32412 0.74268 0.0
C1034 C 0.85226 0.36973 0.77884 0.0
C1035 C 0.84652 0.34009 0.78886 0.0
C1036 C 0.84035 0.32572 0.81189 0.0
C1037 C 0.8568 0.36648 0.74276 0.0
C1038 C 0.85609 0.34985 0.7296 0.0
C1039 C 0.85116 0.33686 0.75293 0.0
C1040 C 0.86024 0.34547 0.69165 0.0
C1041 C 0.8625 0.38081 0.71914 0.0
C1042 C 0.85039 0.3514 0.66286 0.0
C1043 C 0.85315 0.34557 0.62761 0.0
C1044 C 0.86574 0.3336 0.62066 0.0
C1045 C 0.87596 0.32822 0.64945 0.0
C1046 C 0.8732 0.33405 0.68454 0.0
H1047 H 0.86622 0.39193 0.7354 0.0
H1048 H 0.87327 0.37698 0.70194 0.0
H1049 H 0.85205 0.38459 0.70107 0.0
H1050 H 0.84013 0.36001 0.66786 0.0
H1051 H 0.84501 0.34991 0.60612 0.0
H1052 H 0.62147 0.81315 0.88106 0.0
H1053 H 0.62754 0.82372 0.82061 0.0
H1054 H 0.66084 0.86081 0.86586 0.0
H1055 H 0.65513 0.85007 0.92671 0.0
H1056 H 0.62418 0.85471 0.78768 0.0
H1057 H 0.69113 0.83553 0.79561 0.0
H1058 H 0.67572 0.82885 0.82833 0.0
H1059 H 0.68453 0.84959 0.8308 0.0
C1060 C 0.63001 0.82364 0.87833 0.0
C1061 C 0.63798 0.83062 0.9088 0.0
C1062 C 0.63343 0.82969 0.84366 0.0
C1063 C 0.64488 0.84283 0.83865 0.0
C1064 C 0.65224 0.85041 0.86907 0.0
H1065 H 0.68941 0.88591 0.64633 0.0
H1066 H 0.67892 0.88079 0.70725 0.0
C1067 C 0.64888 0.84432 0.90385 0.0
C1068 C 0.64958 0.84801 0.80145 0.0
H1069 H 0.68268 0.8499 0.74293 0.0
C1070 C 0.63697 0.8537 0.77788 0.0
C1071 C 0.66625 0.84653 0.78863 0.0
C1072 C 0.68018 0.83965 0.81199 0.0
C1073 C 0.64065 0.85813 0.74193 0.0
C1074 C 0.65732 0.85666 0.72922 0.0
C1075 C 0.66991 0.85107 0.75283 0.0
C1076 C 0.66212 0.86079 0.69151 0.0
C1077 C 0.62675 0.86456 0.71798 0.0
C1078 C 0.65599 0.85134 0.66228 0.0
C1079 C 0.66199 0.85422 0.62719 0.0
C1080 C 0.67431 0.86653 0.62085 0.0
C1081 C 0.67999 0.87628 0.65014 0.0
C1082 C 0.674 0.87339 0.68506 0.0
H1083 H 0.61565 0.86862 0.73393 0.0
H1084 H 0.63116 0.87527 0.70129 0.0
H1085 H 0.62273 0.85439 0.6994 0.0
H1086 H 0.64701 0.84136 0.66678 0.0
H1087 H 0.6574 0.84645 0.60531 0.0
H1088 H 0.83515 0.65379 0.61566 0.0
H1089 H 0.83372 0.64597 0.67958 0.0
H1090 H 0.88146 0.66976 0.69843 0.0
H1091 H 0.8831 0.67761 0.63436 0.0
H1092 H 0.86528 0.6293 0.73024 0.0
H1093 H 0.83786 0.69204 0.76155 0.0
H1094 H 0.83422 0.68207 0.7184 0.0
H1095 H 0.85461 0.69014 0.72894 0.0
C1096 C 0.8455 0.65714 0.6332 0.0
C1097 C 0.85922 0.6664 0.61989 0.0
C1098 C 0.84466 0.65261 0.6697 0.0
C1099 C 0.85747 0.65731 0.6936 0.0
C1100 C 0.87149 0.66598 0.68028 0.0
H1101 H 0.85196 0.66413 0.92781 0.0
H1102 H 0.86069 0.66657 0.8647 0.0
C1103 C 0.8724 0.67044 0.64367 0.0
C1104 C 0.85543 0.65439 0.73292 0.0
H1105 H 0.84043 0.67298 0.80949 0.0
C1106 C 0.85994 0.63883 0.74773 0.0
C1107 C 0.84852 0.6669 0.7555 0.0
C1108 C 0.84346 0.68377 0.74057 0.0
C1109 C 0.85766 0.63545 0.78479 0.0
C1110 C 0.85034 0.64784 0.80733 0.0
C1111 C 0.84605 0.66347 0.79235 0.0
C1112 C 0.84666 0.64494 0.84634 0.0
C1113 C 0.86336 0.61874 0.79948 0.0
C1114 C 0.83607 0.63179 0.85734 0.0
C1115 C 0.83119 0.63026 0.8936 0.0
C1116 C 0.83659 0.64201 0.91949 0.0
C1117 C 0.84756 0.65487 0.90859 0.0
C1118 C 0.85255 0.6563 0.87246 0.0
H1119 H 0.87321 0.61303 0.7821 0.0
H1120 H 0.86835 0.62 0.82737 0.0
H1121 H 0.85253 0.61 0.80014 0.0
H1122 H 0.83101 0.62309 0.83767 0.0
H1123 H 0.8226 0.6203 0.90102 0.0
H1124 H 0.34596 0.83384 0.612 0.0
H1125 H 0.35353 0.83165 0.67583 0.0
H1126 H 0.3356 0.88195 0.6942 0.0
H1127 H 0.32792 0.8843 0.63011 0.0
H1128 H 0.36836 0.87161 0.73077 0.0
H1129 H 0.31425 0.82874 0.75308 0.0
H1130 H 0.32791 0.82351 0.71602 0.0
H1131 H 0.31568 0.8424 0.71424 0.0
C1132 C 0.34382 0.84456 0.6294 0.0
C1133 C 0.3362 0.85921 0.61596 0.0
C1134 C 0.34815 0.84326 0.66592 0.0
C1135 C 0.34496 0.85657 0.68975 0.0
C1136 C 0.33814 0.87153 0.67619 0.0
H1137 H 0.3346 0.84791 0.92216 0.0
H1138 H 0.33195 0.85604 0.85876 0.0
C1139 C 0.33375 0.87284 0.63958 0.0
C1140 C 0.34763 0.85433 0.72915 0.0
H1141 H 0.3328 0.83265 0.80209 0.0
C1142 C 0.36059 0.86314 0.74647 0.0
C1143 C 0.33735 0.84339 0.74954 0.0
C1144 C 0.32292 0.83403 0.73248 0.0
C1145 C 0.36372 0.86103 0.78367 0.0
C1146 C 0.35367 0.84978 0.80386 0.0
C1147 C 0.34054 0.84122 0.78655 0.0
C1148 C 0.35635 0.84666 0.84305 0.0
C1149 C 0.37761 0.87097 0.80121 0.0
C1150 C 0.37108 0.83887 0.85546 0.0
C1151 C 0.37265 0.83416 0.89183 0.0
C1152 C 0.35947 0.8371 0.91638 0.0
C1153 C 0.345 0.84545 0.90405 0.0
C1154 C 0.34344 0.8501 0.86777 0.0
H1155 H 0.38159 0.88174 0.78419 0.0
H1156 H 0.37362 0.87574 0.82808 0.0
H1157 H 0.38865 0.86269 0.80531 0.0
H1158 H 0.3811 0.83584 0.83675 0.0
H1159 H 0.38392 0.82769 0.90038 0.0
H1160 H 0.16992 0.3437 0.61717 0.0
H1161 H 0.17254 0.3514 0.68086 0.0
H1162 H 0.12138 0.33618 0.69968 0.0
H1163 H 0.11859 0.32842 0.63571 0.0
H1164 H 0.1327 0.36794 0.73603 0.0
H1165 H 0.17437 0.31298 0.75875 0.0
H1166 H 0.18022 0.32648 0.72189 0.0
H1167 H 0.16098 0.3148 0.71955 0.0
C1168 C 0.15912 0.34219 0.63465 0.0
C1169 C 0.14407 0.3353 0.62134 0.0
C1170 C 0.16067 0.34657 0.6711 0.0
C1171 C 0.14723 0.34416 0.69506 0.0
C1172 C 0.13191 0.3381 0.68161 0.0
H1173 H 0.1568 0.33428 0.92757 0.0
H1174 H 0.14849 0.33149 0.86431 0.0
C1175 C 0.13035 0.33367 0.64506 0.0
C1176 C 0.14963 0.34691 0.73445 0.0
H1177 H 0.17124 0.33196 0.80737 0.0
C1178 C 0.14108 0.36007 0.75173 0.0
C1179 C 0.16043 0.3365 0.7549 0.0
C1180 C 0.16945 0.3218 0.73803 0.0
C1181 C 0.14333 0.36329 0.78888 0.0
C1182 C 0.15447 0.35312 0.8091 0.0
C1183 C 0.16276 0.3398 0.79184 0.0
C1184 C 0.15775 0.35589 0.84825 0.0
C1185 C 0.13363 0.37738 0.80631 0.0
C1186 C 0.16552 0.37066 0.86049 0.0
C1187 C 0.17031 0.37231 0.89681 0.0
C1188 C 0.16749 0.35918 0.92151 0.0
C1189 C 0.15918 0.34466 0.90936 0.0
C1190 C 0.15442 0.34302 0.87314 0.0
H1191 H 0.12275 0.38131 0.78953 0.0
H1192 H 0.12901 0.37363 0.83347 0.0
H1193 H 0.14201 0.38838 0.80973 0.0
H1194 H 0.16848 0.38064 0.84168 0.0
H1195 H 0.17677 0.38362 0.90519 0.0
H1196 H 0.66433 0.15014 0.92451 0.0
H1197 H 0.66625 0.14255 0.86047 0.0
H1198 H 0.62204 0.17189 0.83796 0.0
H1199 H 0.61993 0.17948 0.90206 0.0
H1200 H 0.63901 0.12797 0.80872 0.0
H1201 H 0.66341 0.19171 0.77631 0.0
H1202 H 0.66461 0.18296 0.82128 0.0
H1203 H 0.64489 0.19028 0.80407 0.0
C1204 C 0.65485 0.15478 0.90608 0.0
C1205 C 0.64202 0.1655 0.91841 0.0
C1206 C 0.65596 0.1504 0.8695 0.0
C1207 C 0.64436 0.15676 0.84451 0.0
C1208 C 0.63115 0.16691 0.85686 0.0
H1209 H 0.64961 0.16241 0.60999 0.0
H1210 H 0.64085 0.16474 0.67312 0.0
C1211 C 0.62994 0.17119 0.89351 0.0
C1212 C 0.64682 0.15375 0.80526 0.0
H1213 H 0.66036 0.17287 0.72803 0.0
C1214 C 0.64361 0.13776 0.79094 0.0
C1215 C 0.6528 0.16657 0.78225 0.0
C1216 C 0.65675 0.18386 0.79655 0.0
C1217 C 0.64611 0.1343 0.75398 0.0
C1218 C 0.65241 0.14706 0.731 0.0
C1219 C 0.65549 0.16308 0.74549 0.0
C1220 C 0.65627 0.14418 0.69203 0.0
C1221 C 0.64166 0.11711 0.73987 0.0
C1222 C 0.66767 0.13166 0.68132 0.0
C1223 C 0.67255 0.13016 0.64504 0.0
C1224 C 0.66636 0.14135 0.61884 0.0
C1225 C 0.65463 0.15359 0.62946 0.0
C1226 C 0.64963 0.15496 0.66561 0.0
H1227 H 0.63222 0.11085 0.7574 0.0
H1228 H 0.63664 0.11777 0.71191 0.0
H1229 H 0.6531 0.10917 0.73963 0.0
H1230 H 0.67332 0.12345 0.70119 0.0
H1231 H 0.68173 0.12071 0.63784 0.0
H1232 H 0.88434 0.33981 0.40926 0.0
H1233 H 0.88307 0.34941 0.34628 0.0
H1234 H 0.82908 0.3451 0.34866 0.0
H1235 H 0.83027 0.3366 0.41177 0.0
H1236 H 0.87409 0.33485 0.28891 0.0
H1237 H 0.83175 0.389 0.30146 0.0
H1238 H 0.84062 0.37885 0.3406 0.0
H1239 H 0.82156 0.37101 0.32026 0.0
C1240 C 0.87221 0.34125 0.39645 0.0
C1241 C 0.8574 0.33765 0.41561 0.0
C1242 C 0.87147 0.3467 0.36042 0.0
C1243 C 0.85594 0.34841 0.34268 0.0
C1244 C 0.84119 0.34461 0.36186 0.0
H1245 H 0.83591 0.33258 0.11863 0.0
H1246 H 0.84438 0.33129 0.18174 0.0
C1247 C 0.84189 0.33958 0.39801 0.0
C1248 C 0.85508 0.3529 0.3035 0.0
H1249 H 0.83231 0.37557 0.2424 0.0
C1250 C 0.86515 0.344 0.27887 0.0
C1251 C 0.84383 0.36517 0.29 0.0
C1252 C 0.83401 0.37667 0.3146 0.0
C1253 C 0.8636 0.34632 0.24134 0.0
C1254 C 0.85105 0.35726 0.22779 0.0
C1255 C 0.84169 0.36688 0.25245 0.0
C1256 C 0.84675 0.3582 0.18853 0.0
C1257 C 0.87555 0.33702 0.21679 0.0
C1258 C 0.84455 0.37377 0.1712 0.0
C1259 C 0.83912 0.37454 0.13516 0.0
C1260 C 0.83602 0.35975 0.11558 0.0
C1261 C 0.8385 0.34421 0.13273 0.0
C1262 C 0.84351 0.34346 0.16888 0.0
H1263 H 0.88788 0.33511 0.23019 0.0
H1264 H 0.87034 0.32443 0.21069 0.0
H1265 H 0.87765 0.34384 0.19101 0.0
H1266 H 0.84683 0.38536 0.18569 0.0
H1267 H 0.83725 0.3867 0.12271 0.0
H1268 H 0.67234 0.83487 0.11767 0.0
H1269 H 0.67406 0.84275 0.18117 0.0
H1270 H 0.62015 0.84775 0.18531 0.0
H1271 H 0.61833 0.83875 0.12198 0.0
H1272 H 0.66711 0.86865 0.21856 0.0
H1273 H 0.62607 0.81747 0.26859 0.0
H1274 H 0.6328 0.81865 0.22218 0.0
H1275 H 0.6156 0.83139 0.23795 0.0
C1276 C 0.66083 0.8377 0.13203 0.0
C1277 C 0.64518 0.83605 0.11488 0.0
C1278 C 0.66183 0.84223 0.16845 0.0
C1279 C 0.64722 0.84551 0.18856 0.0
C1280 C 0.63159 0.84472 0.17093 0.0
H1281 H 0.66551 0.88556 0.40882 0.0
H1282 H 0.65627 0.88383 0.34565 0.0
C1283 C 0.63056 0.83975 0.13459 0.0
C1284 C 0.64864 0.84942 0.22795 0.0
H1285 H 0.63598 0.8367 0.31191 0.0
C1286 C 0.66028 0.86166 0.23896 0.0
C1287 C 0.63984 0.84024 0.25477 0.0
C1288 C 0.62801 0.8261 0.24536 0.0
C1289 C 0.66384 0.86453 0.27568 0.0
C1290 C 0.65489 0.85549 0.3025 0.0
C1291 C 0.64279 0.84371 0.2915 0.0
C1292 C 0.65894 0.85682 0.34184 0.0
C1293 C 0.67785 0.87653 0.28505 0.0
C1294 C 0.66254 0.8422 0.3616 0.0
C1295 C 0.66722 0.84313 0.39793 0.0
C1296 C 0.66869 0.85874 0.41534 0.0
C1297 C 0.66465 0.87337 0.396 0.0
C1298 C 0.65954 0.87239 0.35975 0.0
H1299 H 0.68636 0.87869 0.2617 0.0
H1300 H 0.6724 0.88882 0.29282 0.0
H1301 H 0.68546 0.87176 0.30798 0.0
H1302 H 0.66217 0.83001 0.34864 0.0
H1303 H 0.6703 0.83162 0.41199 0.0
H1304 H 0.16891 0.65824 0.42081 0.0
H1305 H 0.17134 0.65075 0.35695 0.0
H1306 H 0.12122 0.66901 0.33777 0.0
H1307 H 0.11862 0.67659 0.40187 0.0
H1308 H 0.13125 0.63646 0.30106 0.0
H1309 H 0.17515 0.68983 0.28004 0.0
H1310 H 0.1801 0.67598 0.31691 0.0
H1311 H 0.16139 0.68851 0.31876 0.0
C1312 C 0.15828 0.66047 0.4032 0.0
C1313 C 0.14361 0.66815 0.41644 0.0
C1314 C 0.15972 0.6562 0.36667 0.0
C1315 C 0.14654 0.6595 0.3426 0.0
C1316 C 0.13155 0.66639 0.35595 0.0
H1317 H 0.15601 0.67034 0.11056 0.0
H1318 H 0.14789 0.67293 0.17399 0.0
C1319 C 0.1301 0.67072 0.39257 0.0
C1320 C 0.14892 0.65685 0.30322 0.0
H1321 H 0.17115 0.67142 0.23079 0.0
C1322 C 0.13993 0.64409 0.2856 0.0
C1323 C 0.16013 0.66696 0.28311 0.0
C1324 C 0.16969 0.68119 0.30047 0.0
C1325 C 0.14212 0.64101 0.24838 0.0
C1326 C 0.15363 0.65089 0.22848 0.0
C1327 C 0.16238 0.6638 0.2461 0.0
C1328 C 0.15678 0.64829 0.18927 0.0
C1329 C 0.13197 0.62736 0.23052 0.0
C1330 C 0.16428 0.63346 0.17659 0.0
C1331 C 0.16898 0.63193 0.14019 0.0
C1332 C 0.16631 0.64525 0.11587 0.0
C1333 C 0.15826 0.65984 0.12848 0.0
C1334 C 0.15362 0.66136 0.16478 0.0
H1335 H 0.12108 0.62352 0.24737 0.0
H1336 H 0.12733 0.63153 0.20368 0.0
H1337 H 0.14006 0.6162 0.22629 0.0
H1338 H 0.1671 0.62333 0.19511 0.0
H1339 H 0.17523 0.62057 0.13143 0.0
H1340 H 0.33865 0.11846 0.40632 0.0
H1341 H 0.34841 0.12005 0.34346 0.0
H1342 H 0.34214 0.17382 0.34557 0.0
H1343 H 0.33339 0.17237 0.40851 0.0
H1344 H 0.33355 0.1287 0.28563 0.0
H1345 H 0.3865 0.17248 0.29943 0.0
H1346 H 0.37645 0.16323 0.33829 0.0
H1347 H 0.36808 0.18204 0.31792 0.0
C1348 C 0.33969 0.13063 0.3935 0.0
C1349 C 0.33544 0.1453 0.41255 0.0
C1350 C 0.34522 0.13154 0.35752 0.0
C1351 C 0.34643 0.14711 0.33973 0.0
C1352 C 0.34202 0.16171 0.35881 0.0
H1353 H 0.33193 0.16676 0.11463 0.0
H1354 H 0.33018 0.15838 0.17777 0.0
C1355 C 0.33685 0.16085 0.39487 0.0
C1356 C 0.35106 0.14811 0.30062 0.0
H1357 H 0.37361 0.17132 0.24002 0.0
C1358 C 0.34254 0.13784 0.27578 0.0
C1359 C 0.36313 0.15965 0.28739 0.0
C1360 C 0.37418 0.1698 0.31228 0.0
C1361 C 0.34505 0.13943 0.23829 0.0
C1362 C 0.35582 0.15217 0.22498 0.0
C1363 C 0.36506 0.16178 0.24988 0.0
C1364 C 0.35705 0.15637 0.18567 0.0
C1365 C 0.33613 0.12731 0.21352 0.0
C1366 C 0.37275 0.15867 0.1689 0.0
C1367 C 0.37378 0.164 0.13281 0.0
C1368 C 0.35913 0.16694 0.11261 0.0
C1369 C 0.34347 0.16432 0.12919 0.0
C1370 C 0.34245 0.15937 0.16538 0.0
H1371 H 0.33425 0.11498 0.22698 0.0
H1372 H 0.32353 0.13235 0.20683 0.0
H1373 H 0.34321 0.12524 0.18805 0.0
H1374 H 0.38423 0.15657 0.18389 0.0
H1375 H 0.38603 0.16598 0.12085 0.0
loop_
_geom_bond_atom_site_label_1
_geom_bond_atom_site_label_2
_geom_bond_distance
_geom_bond_site_symmetry_2
_ccdc_geom_bond_type
O0 Cd1 2.223 . S
O0 C8 1.315 . S
Cd1 O0 2.223 . S
Cd1 O4 2.297 . S
Cd1 O5 2.424 1_554 S
Cd1 O11 2.240 1_554 S
Cd2 O3 2.240 1_556 S
Cd2 O10 2.223 1_556 S
Cd2 O12 2.297 . S
Cd2 O13 2.439 . S
O3 Cd2 2.240 1_554 S
O3 C8 1.279 . S
O4 Cd1 2.297 . S
O4 C6 1.247 . S
O5 Cd1 2.424 1_556 S
O5 C6 1.185 1_556 S
C6 O4 1.247 . S
C6 O5 1.185 1_554 S
C7 O12 1.247 . S
C7 O13 1.208 . S
C8 O0 1.315 . S
C8 O3 1.279 . S
C9 O10 1.315 . S
C9 O11 1.279 1_554 S
O10 Cd2 2.223 1_554 S
O10 C9 1.315 . S
O11 Cd1 2.240 1_556 S
O11 C9 1.279 1_556 S
O12 Cd2 2.297 . S
O12 C7 1.247 . S
O13 Cd2 2.439 . S
O13 C7 1.208 . S
O14 Cd15 2.223 . S
O14 C22 1.315 . S
Cd15 O14 2.223 . S
Cd15 O18 2.297 . S
Cd15 O19 2.424 1_554 S
Cd15 O25 2.240 1_554 S
Cd16 O17 2.240 1_556 S
Cd16 O24 2.223 1_556 S
Cd16 O26 2.297 . S
Cd16 O27 2.439 . S
O17 Cd16 2.240 1_554 S
O17 C22 1.279 . S
O18 Cd15 2.297 . S
O18 C20 1.247 . S
O19 Cd15 2.424 1_556 S
O19 C20 1.185 1_556 S
C20 O18 1.247 . S
C20 O19 1.185 1_554 S
C21 O26 1.247 . S
C21 O27 1.208 . S
C22 O14 1.315 . S
C22 O17 1.279 . S
C23 O24 1.315 . S
C23 O25 1.279 1_554 S
O24 Cd16 2.223 1_554 S
O24 C23 1.315 . S
O25 Cd15 2.240 1_556 S
O25 C23 1.279 1_556 S
O26 Cd16 2.297 . S
O26 C21 1.247 . S
O27 Cd16 2.439 . S
O27 C21 1.208 . S
O28 Cd29 2.223 . S
O28 C36 1.315 . S
Cd29 O28 2.223 . S
Cd29 O32 2.297 . S
Cd29 O33 2.424 1_554 S
Cd29 O39 2.240 1_554 S
Cd30 O31 2.240 1_556 S
Cd30 O38 2.223 1_556 S
Cd30 O40 2.297 . S
Cd30 O41 2.439 . S
O31 Cd30 2.240 1_554 S
O31 C36 1.279 . S
O32 Cd29 2.297 . S
O32 C34 1.247 . S
O33 Cd29 2.424 1_556 S
O33 C34 1.185 1_556 S
C34 O32 1.247 . S
C34 O33 1.185 1_554 S
C35 O40 1.247 . S
C35 O41 1.208 . S
C36 O28 1.315 . S
C36 O31 1.279 . S
C37 O38 1.315 . S
C37 O39 1.279 1_554 S
O38 Cd30 2.223 1_554 S
O38 C37 1.315 . S
O39 Cd29 2.240 1_556 S
O39 C37 1.279 1_556 S
O40 Cd30 2.297 . S
O40 C35 1.247 . S
O41 Cd30 2.439 . S
O41 C35 1.208 . S
O42 Cd43 2.223 . S
O42 C50 1.315 . S
Cd43 O42 2.223 . S
Cd43 O46 2.297 . S
Cd43 O47 2.424 1_554 S
Cd43 O53 2.240 1_554 S
Cd44 O45 2.240 1_556 S
Cd44 O52 2.223 1_556 S
Cd44 O54 2.297 . S
Cd44 O55 2.439 . S
O45 Cd44 2.240 1_554 S
O45 C50 1.279 . S
O46 Cd43 2.297 . S
O46 C48 1.247 . S
O47 Cd43 2.424 1_556 S
O47 C48 1.185 1_556 S
C48 O46 1.247 . S
C48 O47 1.185 1_554 S
C49 O54 1.247 . S
C49 O55 1.208 . S
C50 O42 1.315 . S
C50 O45 1.279 . S
C51 O52 1.315 . S
C51 O53 1.279 1_554 S
O52 Cd44 2.223 1_554 S
O52 C51 1.315 . S
O53 Cd43 2.240 1_556 S
O53 C51 1.279 1_556 S
O54 Cd44 2.297 . S
O54 C49 1.247 . S
O55 Cd44 2.439 . S
O55 C49 1.208 . S
O56 Cd57 2.223 . S
O56 C64 1.315 . S
Cd57 O56 2.223 . S
Cd57 O60 2.297 . S
Cd57 O61 2.439 1_556 S
Cd57 O67 2.240 1_556 S
Cd58 O59 2.240 1_554 S
Cd58 O66 2.223 . S
Cd58 O68 2.297 . S
Cd58 O69 2.439 . S
O59 Cd58 2.240 1_556 S
O59 C64 1.279 . S
O60 Cd57 2.297 . S
O60 C62 1.247 . S
O61 Cd57 2.439 1_554 S
O61 C62 1.208 1_554 S
C62 O60 1.247 . S
C62 O61 1.208 1_556 S
C63 O68 1.247 . S
C63 O69 1.208 . S
C64 O56 1.315 . S
C64 O59 1.279 . S
C65 O66 1.315 . S
C65 O67 1.279 . S
O66 Cd58 2.223 . S
O66 C65 1.315 . S
O67 Cd57 2.240 1_554 S
O67 C65 1.279 . S
O68 Cd58 2.297 . S
O68 C63 1.247 . S
O69 Cd58 2.439 . S
O69 C63 1.208 . S
O70 Cd71 2.223 . S
O70 C78 1.315 . S
Cd71 O70 2.223 . S
Cd71 O74 2.297 . S
Cd71 O75 2.439 1_556 S
Cd71 O81 2.240 1_556 S
Cd72 O73 2.240 1_554 S
Cd72 O80 2.223 . S
Cd72 O82 2.297 . S
Cd72 O83 2.439 . S
O73 Cd72 2.240 1_556 S
O73 C78 1.279 . S
O74 Cd71 2.297 . S
O74 C76 1.247 . S
O75 Cd71 2.439 1_554 S
O75 C76 1.208 1_554 S
C76 O74 1.247 . S
C76 O75 1.208 1_556 S
C77 O82 1.247 . S
C77 O83 1.208 . S
C78 O70 1.315 . S
C78 O73 1.279 . S
C79 O80 1.315 . S
C79 O81 1.279 . S
O80 Cd72 2.223 . S
O80 C79 1.315 . S
O81 Cd71 2.240 1_554 S
O81 C79 1.279 . S
O82 Cd72 2.297 . S
O82 C77 1.247 . S
O83 Cd72 2.439 . S
O83 C77 1.208 . S
O84 Cd85 2.223 . S
O84 C92 1.315 . S
Cd85 O84 2.223 . S
Cd85 O88 2.297 . S
Cd85 O89 2.439 1_556 S
Cd85 O95 2.240 1_556 S
Cd86 O87 2.240 1_554 S
Cd86 O94 2.223 . S
Cd86 O96 2.297 . S
Cd86 O97 2.439 . S
O87 Cd86 2.240 1_556 S
O87 C92 1.279 . S
O88 Cd85 2.297 . S
O88 C90 1.247 . S
O89 Cd85 2.439 1_554 S
O89 C90 1.208 1_554 S
C90 O88 1.247 . S
C90 O89 1.208 1_556 S
C91 O96 1.247 . S
C91 O97 1.208 . S
C92 O84 1.315 . S
C92 O87 1.279 . S
C93 O94 1.315 . S
C93 O95 1.279 . S
O94 Cd86 2.223 . S
O94 C93 1.315 . S
O95 Cd85 2.240 1_554 S
O95 C93 1.279 . S
O96 Cd86 2.297 . S
O96 C91 1.247 . S
O97 Cd86 2.439 . S
O97 C91 1.208 . S
O98 Cd99 2.223 . S
O98 C106 1.315 . S
Cd99 O98 2.223 . S
Cd99 O102 2.297 . S
Cd99 O103 2.439 1_556 S
Cd99 O109 2.240 1_556 S
Cd100 O101 2.240 1_554 S
Cd100 O108 2.223 . S
Cd100 O110 2.297 . S
Cd100 O111 2.439 . S
O101 Cd100 2.240 1_556 S
O101 C106 1.279 . S
O102 Cd99 2.297 . S
O102 C104 1.247 . S
O103 Cd99 2.439 1_554 S
O103 C104 1.208 1_554 S
C104 O102 1.247 . S
C104 O103 1.208 1_556 S
C105 O110 1.247 . S
C105 O111 1.208 . S
C106 O98 1.315 . S
C106 O101 1.279 . S
C107 O108 1.315 . S
C107 O109 1.279 . S
O108 Cd100 2.223 . S
O108 C107 1.315 . S
O109 Cd99 2.240 1_554 S
O109 C107 1.279 . S
O110 Cd100 2.297 . S
O110 C105 1.247 . S
O111 Cd100 2.439 . S
O111 C105 1.208 . S
O112 Cd113 2.223 . S
O112 C120 1.315 . S
Cd113 O112 2.223 . S
Cd113 O116 2.297 . S
Cd113 O117 2.439 . S
Cd113 O123 2.240 . S
Cd114 O115 2.240 . S
Cd114 O122 2.223 . S
Cd114 O124 2.297 . S
Cd114 O125 2.439 . S
O115 Cd114 2.240 . S
O115 C120 1.279 . S
O116 Cd113 2.297 . S
O116 C118 1.247 . S
O117 Cd113 2.439 . S
O117 C118 1.208 . S
C118 O116 1.247 . S
C118 O117 1.208 . S
C119 O124 1.247 . S
C119 O125 1.208 . S
C120 O112 1.315 . S
C120 O115 1.279 . S
C121 O122 1.315 . S
C121 O123 1.279 . S
O122 Cd114 2.223 . S
O122 C121 1.315 . S
O123 Cd113 2.240 . S
O123 C121 1.279 . S
O124 Cd114 2.297 . S
O124 C119 1.247 . S
O125 Cd114 2.439 . S
O125 C119 1.208 . S
O126 Cd127 2.223 . S
O126 C134 1.315 . S
Cd127 O126 2.223 . S
Cd127 O130 2.297 . S
Cd127 O131 2.439 . S
Cd127 O137 2.240 . S
Cd128 O129 2.240 . S
Cd128 O136 2.223 . S
Cd128 O138 2.297 . S
Cd128 O139 2.439 . S
O129 Cd128 2.240 . S
O129 C134 1.279 . S
O130 Cd127 2.297 . S
O130 C132 1.247 . S
O131 Cd127 2.439 . S
O131 C132 1.208 . S
C132 O130 1.247 . S
C132 O131 1.208 . S
C133 O138 1.247 . S
C133 O139 1.208 . S
C134 O126 1.315 . S
C134 O129 1.279 . S
C135 O136 1.315 . S
C135 O137 1.279 . S
O136 Cd128 2.223 . S
O136 C135 1.315 . S
O137 Cd127 2.240 . S
O137 C135 1.279 . S
O138 Cd128 2.297 . S
O138 C133 1.247 . S
O139 Cd128 2.439 . S
O139 C133 1.208 . S
O140 Cd141 2.223 . S
O140 C148 1.315 . S
Cd141 O140 2.223 . S
Cd141 O144 2.297 . S
Cd141 O145 2.439 . S
Cd141 O151 2.240 . S
Cd142 O143 2.240 . S
Cd142 O150 2.223 . S
Cd142 O152 2.297 . S
Cd142 O153 2.439 . S
O143 Cd142 2.240 . S
O143 C148 1.279 . S
O144 Cd141 2.297 . S
O144 C146 1.247 . S
O145 Cd141 2.439 . S
O145 C146 1.208 . S
C146 O144 1.247 . S
C146 O145 1.208 . S
C147 O152 1.247 . S
C147 O153 1.208 . S
C148 O140 1.315 . S
C148 O143 1.279 . S
C149 O150 1.315 . S
C149 O151 1.279 . S
O150 Cd142 2.223 . S
O150 C149 1.315 . S
O151 Cd141 2.240 . S
O151 C149 1.279 . S
O152 Cd142 2.297 . S
O152 C147 1.247 . S
O153 Cd142 2.439 . S
O153 C147 1.208 . S
O154 Cd155 2.223 . S
O154 C162 1.315 . S
Cd155 O154 2.223 . S
Cd155 O158 2.297 . S
Cd155 O159 2.439 . S
Cd155 O165 2.240 . S
Cd156 O157 2.240 . S
Cd156 O164 2.223 . S
Cd156 O166 2.297 . S
Cd156 O167 2.439 . S
O157 Cd156 2.240 . S
O157 C162 1.279 . S
O158 Cd155 2.297 . S
O158 C160 1.247 . S
O159 Cd155 2.439 . S
O159 C160 1.208 . S
C160 O158 1.247 . S
C160 O159 1.208 . S
C161 O166 1.247 . S
C161 O167 1.208 . S
C162 O154 1.315 . S
C162 O157 1.279 . S
C163 O164 1.315 . S
C163 O165 1.279 . S
O164 Cd156 2.223 . S
O164 C163 1.315 . S
O165 Cd155 2.240 . S
O165 C163 1.279 . S
O166 Cd156 2.297 . S
O166 C161 1.247 . S
O167 Cd156 2.439 . S
O167 C161 1.208 . S
O168 Cd169 2.223 . S
O168 C176 1.315 . S
Cd169 O168 2.223 . S
Cd169 O172 2.297 . S
Cd169 O173 2.439 . S
Cd169 O179 2.240 . S
Cd170 O171 2.240 . S
Cd170 O178 2.223 . S
Cd170 O180 2.297 . S
Cd170 O181 2.439 . S
O171 Cd170 2.240 . S
O171 C176 1.279 . S
O172 Cd169 2.297 . S
O172 C174 1.247 . S
O173 Cd169 2.439 . S
O173 C174 1.208 . S
C174 O172 1.247 . S
C174 O173 1.208 . S
C175 O180 1.247 . S
C175 O181 1.208 . S
C176 O168 1.315 . S
C176 O171 1.279 . S
C177 O178 1.315 . S
C177 O179 1.279 . S
O178 Cd170 2.223 . S
O178 C177 1.315 . S
O179 Cd169 2.240 . S
O179 C177 1.279 . S
O180 Cd170 2.297 . S
O180 C175 1.247 . S
O181 Cd170 2.439 . S
O181 C175 1.208 . S
O182 Cd183 2.223 . S
O182 C190 1.315 . S
Cd183 O182 2.223 . S
Cd183 O186 2.297 . S
Cd183 O187 2.439 . S
Cd183 O193 2.240 . S
Cd184 O185 2.240 . S
Cd184 O192 2.223 . S
Cd184 O194 2.297 . S
Cd184 O195 2.439 . S
O185 Cd184 2.240 . S
O185 C190 1.279 . S
O186 Cd183 2.297 . S
O186 C188 1.247 . S
O187 Cd183 2.439 . S
O187 C188 1.208 . S
C188 O186 1.247 . S
C188 O187 1.208 . S
C189 O194 1.247 . S
C189 O195 1.208 . S
C190 O182 1.315 . S
C190 O185 1.279 . S
C191 O192 1.315 . S
C191 O193 1.279 . S
O192 Cd184 2.223 . S
O192 C191 1.315 . S
O193 Cd183 2.240 . S
O193 C191 1.279 . S
O194 Cd184 2.297 . S
O194 C189 1.247 . S
O195 Cd184 2.439 . S
O195 C189 1.208 . S
O196 Cd197 2.223 . S
O196 C204 1.315 . S
Cd197 O196 2.223 . S
Cd197 O200 2.297 . S
Cd197 O201 2.439 . S
Cd197 O207 2.240 . S
Cd198 O199 2.240 . S
Cd198 O206 2.223 . S
Cd198 O208 2.297 . S
Cd198 O209 2.439 . S
O199 Cd198 2.240 . S
O199 C204 1.279 . S
O200 Cd197 2.297 . S
O200 C202 1.247 . S
O201 Cd197 2.439 . S
O201 C202 1.208 . S
C202 O200 1.247 . S
C202 O201 1.208 . S
C203 O208 1.247 . S
C203 O209 1.208 . S
C204 O196 1.315 . S
C204 O199 1.279 . S
C205 O206 1.315 . S
C205 O207 1.279 . S
O206 Cd198 2.223 . S
O206 C205 1.315 . S
O207 Cd197 2.240 . S
O207 C205 1.279 . S
O208 Cd198 2.297 . S
O208 C203 1.247 . S
O209 Cd198 2.439 . S
O209 C203 1.208 . S
O210 Cd211 2.223 . S
O210 C218 1.315 . S
Cd211 O210 2.223 . S
Cd211 O214 2.297 . S
Cd211 O215 2.439 . S
Cd211 O221 2.240 . S
Cd212 O213 2.240 . S
Cd212 O220 2.223 . S
Cd212 O222 2.297 . S
Cd212 O223 2.439 . S
O213 Cd212 2.240 . S
O213 C218 1.279 . S
O214 Cd211 2.297 . S
O214 C216 1.247 . S
O215 Cd211 2.439 . S
O215 C216 1.208 . S
C216 O214 1.247 . S
C216 O215 1.208 . S
C217 O222 1.247 . S
C217 O223 1.208 . S
C218 O210 1.315 . S
C218 O213 1.279 . S
C219 O220 1.315 . S
C219 O221 1.279 . S
O220 Cd212 2.223 . S
O220 C219 1.315 . S
O221 Cd211 2.240 . S
O221 C219 1.279 . S
O222 Cd212 2.297 . S
O222 C217 1.247 . S
O223 Cd212 2.439 . S
O223 C217 1.208 . S
H224 C232 0.929 . S
H225 C234 0.930 . S
H226 C236 0.930 . S
H227 C239 0.929 . S
H228 C242 0.930 . S
H229 C244 0.960 1_554 S
H230 C244 0.970 . S
H231 C244 0.952 1_554 S
C232 H224 0.929 . S
C232 C233 1.377 . S
C232 C234 1.384 . S
C233 C232 1.377 . S
C233 C239 1.390 1_556 S
C234 H225 0.930 . S
C234 C232 1.384 . S
C234 C235 1.377 . S
C235 C234 1.377 . S
C235 C236 1.395 1_556 S
C235 C240 1.489 1_556 S
C236 H226 0.930 . S
C236 C235 1.395 1_554 S
C236 C239 1.386 . S
H237 C253 0.930 . S
H238 C254 0.931 . S
C239 H227 0.929 . S
C239 C233 1.390 1_554 S
C239 C236 1.386 . S
C240 C235 1.489 1_554 S
C240 C242 1.395 . S
C240 C243 1.403 . S
H241 C247 0.930 . S
C242 H228 0.930 . S
C242 C240 1.395 . S
C242 C245 1.403 . S
C243 C240 1.403 . S
C243 C244 1.523 1_554 S
C243 C247 1.400 . S
C244 H229 0.960 1_556 S
C244 H230 0.970 . S
C244 H231 0.952 1_556 S
C244 C243 1.523 1_556 S
C245 C242 1.403 . S
C245 C246 1.392 . S
C245 C249 1.495 . S
C246 C245 1.392 . S
C246 C247 1.385 . S
C246 C248 1.478 . S
C247 H241 0.930 . S
C247 C243 1.400 . S
C247 C246 1.385 . S
C248 C246 1.478 . S
C248 C250 1.381 1_554 S
C248 C254 1.383 . S
C249 C245 1.495 . S
C249 H255 0.959 . S
C249 H256 0.961 . S
C249 H257 0.960 1_554 S
C250 C248 1.381 1_556 S
C250 C251 1.394 . S
C250 H258 0.930 . S
C251 C250 1.394 . S
C251 C252 1.383 1_556 S
C251 H259 0.929 . S
C252 C251 1.383 1_554 S
C252 C253 1.377 . S
C253 H237 0.930 . S
C253 C252 1.377 . S
C253 C254 1.379 . S
C254 H238 0.931 . S
C254 C248 1.383 . S
C254 C253 1.379 . S
H255 C249 0.959 . S
H256 C249 0.961 . S
H257 C249 0.960 1_556 S
H258 C250 0.930 . S
H259 C251 0.929 . S
H260 C268 0.929 . S
H261 C270 0.930 . S
H262 C272 0.930 . S
H263 C275 0.929 . S
H264 C278 0.930 . S
H265 C280 0.960 . S
H266 C280 0.960 . S
H267 C280 0.960 . S
C268 H260 0.929 . S
C268 C269 1.377 1_554 S
C268 C270 1.384 . S
C269 C268 1.377 1_556 S
C269 C275 1.390 . S
C270 H261 0.930 . S
C270 C268 1.384 . S
C270 C271 1.372 . S
C271 C270 1.372 . S
C271 C272 1.400 1_554 S
C271 C276 1.490 . S
C272 H262 0.930 . S
C272 C271 1.400 1_556 S
C272 C275 1.386 . S
H273 C289 0.930 . S
H274 C290 0.931 . S
C275 H263 0.929 . S
C275 C269 1.390 . S
C275 C272 1.386 . S
C276 C271 1.490 . S
C276 C278 1.395 . S
C276 C279 1.403 1_554 S
H277 C283 0.930 . S
C278 H264 0.930 . S
C278 C276 1.395 . S
C278 C281 1.403 . S
C279 C276 1.403 1_556 S
C279 C280 1.524 . S
C279 C283 1.400 . S
C280 H265 0.960 . S
C280 H266 0.960 . S
C280 H267 0.960 . S
C280 C279 1.524 . S
C281 C278 1.403 . S
C281 C282 1.392 . S
C281 C285 1.495 . S
C282 C281 1.392 . S
C282 C283 1.385 1_554 S
C282 C284 1.478 . S
C283 H277 0.930 . S
C283 C279 1.400 . S
C283 C282 1.385 1_556 S
C284 C282 1.478 . S
C284 C286 1.381 . S
C284 C290 1.383 . S
C285 C281 1.495 . S
C285 H291 0.959 . S
C285 H292 0.961 . S
C285 H293 0.960 . S
C286 C284 1.381 . S
C286 C287 1.394 . S
C286 H294 0.930 . S
C287 C286 1.394 . S
C287 C288 1.383 . S
C287 H295 0.929 . S
C288 C287 1.383 . S
C288 C289 1.377 . S
C289 H273 0.930 . S
C289 C288 1.377 . S
C289 C290 1.379 . S
C290 H274 0.931 . S
C290 C284 1.383 . S
C290 C289 1.379 . S
H291 C285 0.959 . S
H292 C285 0.961 . S
H293 C285 0.960 . S
H294 C286 0.930 . S
H295 C287 0.929 . S
H296 C304 0.929 . S
H297 C306 0.930 . S
H298 C308 0.930 . S
H299 C311 0.929 . S
H300 C314 0.930 . S
H301 C316 0.960 . S
H302 C316 0.960 . S
H303 C316 0.960 . S
C304 H296 0.929 . S
C304 C305 1.377 1_554 S
C304 C306 1.384 . S
C305 C304 1.377 1_556 S
C305 C311 1.390 . S
C306 H297 0.930 . S
C306 C304 1.384 . S
C306 C307 1.372 . S
C307 C306 1.372 . S
C307 C308 1.400 1_554 S
C307 C312 1.490 . S
C308 H298 0.930 . S
C308 C307 1.400 1_556 S
C308 C311 1.386 . S
H309 C325 0.930 . S
H310 C326 0.931 . S
C311 H299 0.929 . S
C311 C305 1.390 . S
C311 C308 1.386 . S
C312 C307 1.490 . S
C312 C314 1.395 . S
C312 C315 1.403 1_554 S
H313 C319 0.930 . S
C314 H300 0.930 . S
C314 C312 1.395 . S
C314 C317 1.403 . S
C315 C312 1.403 1_556 S
C315 C316 1.524 . S
C315 C319 1.400 . S
C316 H301 0.960 . S
C316 H302 0.960 . S
C316 H303 0.960 . S
C316 C315 1.524 . S
C317 C314 1.403 . S
C317 C318 1.392 . S
C317 C321 1.495 . S
C318 C317 1.392 . S
C318 C319 1.385 1_554 S
C318 C320 1.478 . S
C319 H313 0.930 . S
C319 C315 1.400 . S
C319 C318 1.385 1_556 S
C320 C318 1.478 . S
C320 C322 1.381 . S
C320 C326 1.383 . S
C321 C317 1.495 . S
C321 H327 0.959 . S
C321 H328 0.961 . S
C321 H329 0.960 . S
C322 C320 1.381 . S
C322 C323 1.394 . S
C322 H330 0.930 . S
C323 C322 1.394 . S
C323 C324 1.383 . S
C323 H331 0.929 . S
C324 C323 1.383 . S
C324 C325 1.377 . S
C325 H309 0.930 . S
C325 C324 1.377 . S
C325 C326 1.379 . S
C326 H310 0.931 . S
C326 C320 1.383 . S
C326 C325 1.379 . S
H327 C321 0.959 . S
H328 C321 0.961 . S
H329 C321 0.960 . S
H330 C322 0.930 . S
H331 C323 0.929 . S
H332 C340 0.929 . S
H333 C342 0.930 . S
H334 C344 0.930 . S
H335 C347 0.929 . S
H336 C350 0.930 . S
H337 C352 0.960 . S
H338 C352 0.960 . S
H339 C352 0.960 . S
C340 H332 0.929 . S
C340 C341 1.377 . S
C340 C342 1.384 . S
C341 C340 1.377 . S
C341 C347 1.390 1_556 S
C342 H333 0.930 . S
C342 C340 1.384 . S
C342 C343 1.372 1_556 S
C343 C342 1.372 1_554 S
C343 C344 1.400 . S
C343 C348 1.490 . S
C344 H334 0.930 . S
C344 C343 1.400 . S
C344 C347 1.386 . S
H345 C361 0.930 . S
H346 C362 0.931 . S
C347 H335 0.929 . S
C347 C341 1.390 1_554 S
C347 C344 1.386 . S
C348 C343 1.490 . S
C348 C350 1.395 1_554 S
C348 C351 1.403 . S
H349 C355 0.930 . S
C350 H336 0.930 . S
C350 C348 1.395 1_556 S
C350 C353 1.403 . S
C351 C348 1.403 . S
C351 C352 1.524 . S
C351 C355 1.400 . S
C352 H337 0.960 . S
C352 H338 0.960 . S
C352 H339 0.960 . S
C352 C351 1.524 . S
C353 C350 1.403 . S
C353 C354 1.392 1_556 S
C353 C357 1.495 . S
C354 C353 1.392 1_554 S
C354 C355 1.385 . S
C354 C356 1.478 . S
C355 H349 0.930 . S
C355 C351 1.400 . S
C355 C354 1.385 . S
C356 C354 1.478 . S
C356 C358 1.381 1_554 S
C356 C362 1.383 . S
C357 C353 1.495 . S
C357 H363 0.959 . S
C357 H364 0.961 . S
C357 H365 0.960 . S
C358 C356 1.381 1_556 S
C358 C359 1.394 1_556 S
C358 H366 0.930 . S
C359 C358 1.394 1_554 S
C359 C360 1.383 . S
C359 H367 0.927 1_554 S
C360 C359 1.383 . S
C360 C361 1.377 . S
C361 H345 0.930 . S
C361 C360 1.377 . S
C361 C362 1.379 . S
C362 H346 0.931 . S
C362 C356 1.383 . S
C362 C361 1.379 . S
H363 C357 0.959 . S
H364 C357 0.961 . S
H365 C357 0.960 . S
H366 C358 0.930 . S
H367 C359 0.927 1_556 S
H368 C376 0.929 . S
H369 C378 0.930 . S
H370 C380 0.930 . S
H371 C383 0.929 . S
H372 C386 0.930 . S
H373 C388 0.960 . S
H374 C388 0.960 . S
H375 C388 0.960 . S
C376 H368 0.929 . S
C376 C377 1.377 . S
C376 C378 1.384 . S
C377 C376 1.377 . S
C377 C383 1.390 . S
C378 H369 0.930 . S
C378 C376 1.384 . S
C378 C379 1.372 . S
C379 C378 1.372 . S
C379 C380 1.400 . S
C379 C384 1.490 . S
C380 H370 0.930 . S
C380 C379 1.400 . S
C380 C383 1.386 . S
H381 C397 0.930 . S
H382 C398 0.931 . S
C383 H371 0.929 . S
C383 C377 1.390 . S
C383 C380 1.386 . S
C384 C379 1.490 . S
C384 C386 1.395 . S
C384 C387 1.403 . S
H385 C391 0.930 . S
C386 H372 0.930 . S
C386 C384 1.395 . S
C386 C389 1.403 1_545 S
C387 C384 1.403 . S
C387 C388 1.524 . S
C387 C391 1.400 1_545 S
C388 H373 0.960 . S
C388 H374 0.960 . S
C388 H375 0.960 . S
C388 C387 1.524 . S
C389 C386 1.403 1_565 S
C389 C390 1.392 . S
C389 C393 1.495 . S
C390 C389 1.392 . S
C390 C391 1.385 . S
C390 C392 1.478 . S
C391 H385 0.930 . S
C391 C387 1.400 1_565 S
C391 C390 1.385 . S
C392 C390 1.478 . S
C392 C394 1.381 . S
C392 C398 1.383 . S
C393 C389 1.495 . S
C393 H399 0.959 . S
C393 H400 0.961 . S
C393 H401 0.960 . S
C394 C392 1.381 . S
C394 C395 1.394 . S
C394 H402 0.930 . S
C395 C394 1.394 . S
C395 C396 1.383 . S
C395 H403 0.929 . S
C396 C395 1.383 . S
C396 C397 1.377 . S
C397 H381 0.930 . S
C397 C396 1.377 . S
C397 C398 1.379 . S
C398 H382 0.931 . S
C398 C392 1.383 . S
C398 C397 1.379 . S
H399 C393 0.959 . S
H400 C393 0.961 . S
H401 C393 0.960 . S
H402 C394 0.930 . S
H403 C395 0.929 . S
H404 C412 0.929 . S
H405 C414 0.930 . S
H406 C416 0.930 . S
H407 C419 0.929 . S
H408 C422 0.930 . S
H409 C424 0.960 . S
H410 C424 0.960 . S
H411 C424 0.960 . S
C412 H404 0.929 . S
C412 C413 1.377 . S
C412 C414 1.384 . S
C413 C412 1.377 . S
C413 C419 1.390 . S
C414 H405 0.930 . S
C414 C412 1.384 . S
C414 C415 1.372 . S
C415 C414 1.372 . S
C415 C416 1.400 . S
C415 C420 1.490 . S
C416 H406 0.930 . S
C416 C415 1.400 . S
C416 C419 1.386 . S
H417 C433 0.930 . S
H418 C434 0.931 . S
C419 H407 0.929 . S
C419 C413 1.390 . S
C419 C416 1.386 . S
C420 C415 1.490 . S
C420 C422 1.395 . S
C420 C423 1.403 . S
H421 C427 0.930 . S
C422 H408 0.930 . S
C422 C420 1.395 . S
C422 C425 1.403 1_655 S
C423 C420 1.403 . S
C423 C424 1.524 . S
C423 C427 1.400 1_655 S
C424 H409 0.960 . S
C424 H410 0.960 . S
C424 H411 0.960 . S
C424 C423 1.524 . S
C425 C422 1.403 1_455 S
C425 C426 1.392 . S
C425 C429 1.495 . S
C426 C425 1.392 . S
C426 C427 1.385 . S
C426 C428 1.478 . S
C427 H421 0.930 . S
C427 C423 1.400 1_455 S
C427 C426 1.385 . S
C428 C426 1.478 . S
C428 C430 1.381 . S
C428 C434 1.383 . S
C429 C425 1.495 . S
C429 H435 0.959 . S
C429 H436 0.961 . S
C429 H437 0.960 . S
C430 C428 1.381 . S
C430 C431 1.394 . S
C430 H438 0.930 . S
C431 C430 1.394 . S
C431 C432 1.383 . S
C431 H439 0.929 . S
C432 C431 1.383 . S
C432 C433 1.377 . S
C433 H417 0.930 . S
C433 C432 1.377 . S
C433 C434 1.379 . S
C434 H418 0.931 . S
C434 C428 1.383 . S
C434 C433 1.379 . S
H435 C429 0.959 . S
H436 C429 0.961 . S
H437 C429 0.960 . S
H438 C430 0.930 . S
H439 C431 0.929 . S
H440 C448 0.929 . S
H441 C450 0.930 . S
H442 C452 0.930 . S
H443 C455 0.929 . S
H444 C458 0.930 . S
H445 C460 0.960 . S
H446 C460 0.960 . S
H447 C460 0.960 . S
C448 H440 0.929 . S
C448 C449 1.377 . S
C448 C450 1.384 . S
C449 C448 1.377 . S
C449 C455 1.390 . S
C450 H441 0.930 . S
C450 C448 1.384 . S
C450 C451 1.372 . S
C451 C450 1.372 . S
C451 C452 1.400 . S
C451 C456 1.490 . S
C452 H442 0.930 . S
C452 C451 1.400 . S
C452 C455 1.386 . S
H453 C469 0.930 . S
H454 C470 0.931 . S
C455 H443 0.929 . S
C455 C449 1.390 . S
C455 C452 1.386 . S
C456 C451 1.490 . S
C456 C458 1.395 . S
C456 C459 1.403 . S
H457 C463 0.930 . S
C458 H444 0.930 . S
C458 C456 1.395 . S
C458 C461 1.403 1_545 S
C459 C456 1.403 . S
C459 C460 1.524 . S
C459 C463 1.400 1_545 S
C460 H445 0.960 . S
C460 H446 0.960 . S
C460 H447 0.960 . S
C460 C459 1.524 . S
C461 C458 1.403 1_565 S
C461 C462 1.392 . S
C461 C465 1.495 . S
C462 C461 1.392 . S
C462 C463 1.385 . S
C462 C464 1.478 . S
C463 H457 0.930 . S
C463 C459 1.400 1_565 S
C463 C462 1.385 . S
C464 C462 1.478 . S
C464 C466 1.381 . S
C464 C470 1.383 . S
C465 C461 1.495 . S
C465 H471 0.959 . S
C465 H472 0.961 . S
C465 H473 0.960 . S
C466 C464 1.381 . S
C466 C467 1.394 . S
C466 H474 0.930 . S
C467 C466 1.394 . S
C467 C468 1.383 . S
C467 H475 0.929 . S
C468 C467 1.383 . S
C468 C469 1.377 . S
C469 H453 0.930 . S
C469 C468 1.377 . S
C469 C470 1.379 . S
C470 H454 0.931 . S
C470 C464 1.383 . S
C470 C469 1.379 . S
H471 C465 0.959 . S
H472 C465 0.961 . S
H473 C465 0.960 . S
H474 C466 0.930 . S
H475 C467 0.929 . S
H476 C484 0.929 . S
H477 C486 0.930 . S
H478 C488 0.930 . S
H479 C491 0.929 . S
H480 C494 0.930 . S
H481 C496 0.960 . S
H482 C496 0.960 . S
H483 C496 0.960 . S
C484 H476 0.929 . S
C484 C485 1.377 . S
C484 C486 1.384 . S
C485 C484 1.377 . S
C485 C491 1.390 . S
C486 H477 0.930 . S
C486 C484 1.384 . S
C486 C487 1.372 . S
C487 C486 1.372 . S
C487 C488 1.400 . S
C487 C492 1.490 . S
C488 H478 0.930 . S
C488 C487 1.400 . S
C488 C491 1.386 . S
H489 C505 0.930 . S
H490 C506 0.931 . S
C491 H479 0.929 . S
C491 C485 1.390 . S
C491 C488 1.386 . S
C492 C487 1.490 . S
C492 C494 1.395 . S
C492 C495 1.403 . S
H493 C499 0.930 . S
C494 H480 0.930 . S
C494 C492 1.395 . S
C494 C497 1.403 1_455 S
C495 C492 1.403 . S
C495 C496 1.524 . S
C495 C499 1.400 1_455 S
C496 H481 0.960 . S
C496 H482 0.960 . S
C496 H483 0.960 . S
C496 C495 1.524 . S
C497 C494 1.403 1_655 S
C497 C498 1.392 . S
C497 C501 1.495 . S
C498 C497 1.392 . S
C498 C499 1.385 . S
C498 C500 1.478 . S
C499 H493 0.930 . S
C499 C495 1.400 1_655 S
C499 C498 1.385 . S
C500 C498 1.478 . S
C500 C502 1.381 . S
C500 C506 1.383 . S
C501 C497 1.495 . S
C501 H507 0.959 . S
C501 H508 0.961 . S
C501 H509 0.960 . S
C502 C500 1.381 . S
C502 C503 1.394 . S
C502 H510 0.930 . S
C503 C502 1.394 . S
C503 C504 1.383 . S
C503 H511 0.929 . S
C504 C503 1.383 . S
C504 C505 1.377 . S
C505 H489 0.930 . S
C505 C504 1.377 . S
C505 C506 1.379 . S
C506 H490 0.931 . S
C506 C500 1.383 . S
C506 C505 1.379 . S
H507 C501 0.959 . S
H508 C501 0.961 . S
H509 C501 0.960 . S
H510 C502 0.930 . S
H511 C503 0.929 . S
H512 C520 0.929 . S
H513 C522 0.930 . S
H514 C524 0.930 . S
H515 C527 0.929 . S
H516 C530 0.930 . S
H517 C532 0.960 . S
H518 C532 0.960 1_556 S
H519 C532 0.960 . S
C520 H512 0.929 . S
C520 C521 1.377 1_556 S
C520 C522 1.384 . S
C521 C520 1.377 1_554 S
C521 C527 1.390 . S
C522 H513 0.930 . S
C522 C520 1.384 . S
C522 C523 1.372 1_556 S
C523 C522 1.372 1_554 S
C523 C524 1.400 . S
C523 C528 1.490 . S
C524 H514 0.930 . S
C524 C523 1.400 . S
C524 C527 1.386 . S
H525 C541 0.930 . S
H526 C542 0.931 . S
C527 H515 0.929 . S
C527 C521 1.390 . S
C527 C524 1.386 . S
C528 C523 1.490 . S
C528 C530 1.395 . S
C528 C531 1.403 . S
H529 C535 0.930 . S
C530 H516 0.930 . S
C530 C528 1.395 . S
C530 C533 1.403 . S
C531 C528 1.403 . S
C531 C532 1.524 . S
C531 C535 1.400 . S
C532 H517 0.960 . S
C532 H518 0.960 1_554 S
C532 H519 0.960 . S
C532 C531 1.524 . S
C533 C530 1.403 . S
C533 C534 1.392 . S
C533 C537 1.495 . S
C534 C533 1.392 . S
C534 C535 1.385 . S
C534 C536 1.478 . S
C535 H529 0.930 . S
C535 C531 1.400 . S
C535 C534 1.385 . S
C536 C534 1.478 . S
C536 C538 1.381 1_554 S
C536 C542 1.383 . S
C537 C533 1.495 . S
C537 H543 0.959 . S
C537 H544 0.961 . S
C537 H545 0.960 1_554 S
C538 C536 1.381 1_556 S
C538 C539 1.394 . S
C538 H546 0.930 . S
C539 C538 1.394 . S
C539 C540 1.383 1_556 S
C539 H547 0.929 . S
C540 C539 1.383 1_554 S
C540 C541 1.377 . S
C541 H525 0.930 . S
C541 C540 1.377 . S
C541 C542 1.379 . S
C542 H526 0.931 . S
C542 C536 1.383 . S
C542 C541 1.379 . S
H543 C537 0.959 . S
H544 C537 0.961 . S
H545 C537 0.960 1_556 S
H546 C538 0.930 . S
H547 C539 0.929 . S
H548 C556 0.929 . S
H549 C558 0.930 . S
H550 C560 0.931 . S
H551 C563 0.929 . S
H552 C566 0.930 . S
H553 C568 0.960 . S
H554 C568 0.960 . S
H555 C568 0.960 . S
C556 H548 0.929 . S
C556 C557 1.377 . S
C556 C558 1.384 . S
C557 C556 1.377 . S
C557 C563 1.390 1_554 S
C558 H549 0.930 . S
C558 C556 1.384 . S
C558 C559 1.372 . S
C559 C558 1.372 . S
C559 C560 1.399 1_554 S
C559 C564 1.490 . S
C560 H550 0.931 . S
C560 C559 1.399 1_556 S
C560 C563 1.386 . S
H561 C577 0.930 . S
H562 C578 0.931 . S
C563 H551 0.929 . S
C563 C557 1.390 1_556 S
C563 C560 1.386 . S
C564 C559 1.490 . S
C564 C566 1.395 . S
C564 C567 1.403 1_554 S
H565 C571 0.930 . S
C566 H552 0.930 . S
C566 C564 1.395 . S
C566 C569 1.403 . S
C567 C564 1.403 1_556 S
C567 C568 1.524 . S
C567 C571 1.400 . S
C568 H553 0.960 . S
C568 H554 0.960 . S
C568 H555 0.960 . S
C568 C567 1.524 . S
C569 C566 1.403 . S
C569 C570 1.392 . S
C569 C573 1.495 . S
C570 C569 1.392 . S
C570 C571 1.385 1_554 S
C570 C572 1.478 . S
C571 H565 0.930 . S
C571 C567 1.400 . S
C571 C570 1.385 1_556 S
C572 C570 1.478 . S
C572 C574 1.381 . S
C572 C578 1.383 . S
C573 C569 1.495 . S
C573 H579 0.959 . S
C573 H580 0.961 . S
C573 H581 0.960 . S
C574 C572 1.381 . S
C574 C575 1.394 . S
C574 H582 0.930 . S
C575 C574 1.394 . S
C575 C576 1.383 . S
C575 H583 0.929 . S
C576 C575 1.383 . S
C576 C577 1.377 . S
C577 H561 0.930 . S
C577 C576 1.377 . S
C577 C578 1.379 . S
C578 H562 0.931 . S
C578 C572 1.383 . S
C578 C577 1.379 . S
H579 C573 0.959 . S
H580 C573 0.961 . S
H581 C573 0.960 . S
H582 C574 0.930 . S
H583 C575 0.929 . S
H584 C592 0.929 . S
H585 C594 0.930 . S
H586 C596 0.930 . S
H587 C599 0.929 . S
H588 C602 0.930 . S
H589 C604 0.960 . S
H590 C604 0.960 1_556 S
H591 C604 0.960 . S
C592 H584 0.929 . S
C592 C593 1.377 1_556 S
C592 C594 1.384 . S
C593 C592 1.377 1_554 S
C593 C599 1.390 . S
C594 H585 0.930 . S
C594 C592 1.384 . S
C594 C595 1.372 1_556 S
C595 C594 1.372 1_554 S
C595 C596 1.400 . S
C595 C600 1.490 . S
C596 H586 0.930 . S
C596 C595 1.400 . S
C596 C599 1.386 . S
H597 C613 0.930 . S
H598 C614 0.931 . S
C599 H587 0.929 . S
C599 C593 1.390 . S
C599 C596 1.386 . S
C600 C595 1.490 . S
C600 C602 1.395 1_554 S
C600 C603 1.403 . S
H601 C607 0.930 . S
C602 H588 0.930 . S
C602 C600 1.395 1_556 S
C602 C605 1.403 . S
C603 C600 1.403 . S
C603 C604 1.524 . S
C603 C607 1.400 . S
C604 H589 0.960 . S
C604 H590 0.960 1_554 S
C604 H591 0.960 . S
C604 C603 1.524 . S
C605 C602 1.403 . S
C605 C606 1.392 1_556 S
C605 C609 1.495 . S
C606 C605 1.392 1_554 S
C606 C607 1.385 . S
C606 C608 1.478 . S
C607 H601 0.930 . S
C607 C603 1.400 . S
C607 C606 1.385 . S
C608 C606 1.478 . S
C608 C610 1.381 1_554 S
C608 C614 1.383 . S
C609 C605 1.495 . S
C609 H615 0.959 . S
C609 H616 0.961 1_556 S
C609 H617 0.960 . S
C610 C608 1.381 1_556 S
C610 C611 1.394 . S
C610 H618 0.930 . S
C611 C610 1.394 . S
C611 C612 1.383 1_556 S
C611 H619 0.929 . S
C612 C611 1.383 1_554 S
C612 C613 1.377 . S
C613 H597 0.930 . S
C613 C612 1.377 . S
C613 C614 1.379 . S
C614 H598 0.931 . S
C614 C608 1.383 . S
C614 C613 1.379 . S
H615 C609 0.959 . S
H616 C609 0.961 1_554 S
H617 C609 0.960 . S
H618 C610 0.930 . S
H619 C611 0.929 . S
H620 C628 0.929 . S
H621 C630 0.930 . S
H622 C632 0.930 . S
H623 C635 0.929 . S
H624 C638 0.930 . S
H625 C640 0.960 . S
H626 C640 0.960 . S
H627 C640 0.960 . S
C628 H620 0.929 . S
C628 C629 1.377 1_556 S
C628 C630 1.384 . S
C629 C628 1.377 1_554 S
C629 C635 1.390 . S
C630 H621 0.930 . S
C630 C628 1.384 . S
C630 C631 1.372 1_556 S
C631 C630 1.372 1_554 S
C631 C632 1.400 . S
C631 C636 1.490 . S
C632 H622 0.930 . S
C632 C631 1.400 . S
C632 C635 1.386 . S
H633 C649 0.930 . S
H634 C650 0.931 . S
C635 H623 0.929 . S
C635 C629 1.390 . S
C635 C632 1.386 . S
C636 C631 1.490 . S
C636 C638 1.395 . S
C636 C639 1.403 1_554 S
H637 C643 0.930 . S
C638 H624 0.930 . S
C638 C636 1.395 . S
C638 C641 1.403 . S
C639 C636 1.403 1_556 S
C639 C640 1.524 . S
C639 C643 1.400 . S
C640 H625 0.960 . S
C640 H626 0.960 . S
C640 H627 0.960 . S
C640 C639 1.524 . S
C641 C638 1.403 . S
C641 C642 1.392 . S
C641 C645 1.495 . S
C642 C641 1.392 . S
C642 C643 1.385 1_554 S
C642 C644 1.478 . S
C643 H637 0.930 . S
C643 C639 1.400 . S
C643 C642 1.385 1_556 S
C644 C642 1.478 . S
C644 C646 1.381 1_554 S
C644 C650 1.383 . S
C645 C641 1.495 . S
C645 H651 0.959 . S
C645 H652 0.961 . S
C645 H653 0.960 . S
C646 C644 1.381 1_556 S
C646 C647 1.394 . S
C646 H654 0.930 . S
C647 C646 1.394 . S
C647 C648 1.383 1_556 S
C647 H655 0.929 . S
C648 C647 1.383 1_554 S
C648 C649 1.377 . S
C649 H633 0.930 . S
C649 C648 1.377 . S
C649 C650 1.379 . S
C650 H634 0.931 . S
C650 C644 1.383 . S
C650 C649 1.379 . S
H651 C645 0.959 . S
H652 C645 0.961 . S
H653 C645 0.960 . S
H654 C646 0.930 . S
H655 C647 0.929 . S
H656 C664 0.929 . S
H657 C666 0.930 . S
H658 C668 0.930 . S
H659 C671 0.929 . S
H660 C674 0.930 . S
H661 C676 0.960 . S
H662 C676 0.960 . S
H663 C676 0.960 . S
C664 H656 0.929 . S
C664 C665 1.377 . S
C664 C666 1.384 . S
C665 C664 1.377 . S
C665 C671 1.390 . S
C666 H657 0.930 . S
C666 C664 1.384 . S
C666 C667 1.372 . S
C667 C666 1.372 . S
C667 C668 1.400 . S
C667 C672 1.490 . S
C668 H658 0.930 . S
C668 C667 1.400 . S
C668 C671 1.386 . S
H669 C685 0.930 . S
H670 C686 0.931 . S
C671 H659 0.929 . S
C671 C665 1.390 . S
C671 C668 1.386 . S
C672 C667 1.490 . S
C672 C674 1.395 . S
C672 C675 1.403 . S
H673 C679 0.930 . S
C674 H660 0.930 . S
C674 C672 1.395 . S
C674 C677 1.403 . S
C675 C672 1.403 . S
C675 C676 1.524 . S
C675 C679 1.400 . S
C676 H661 0.960 . S
C676 H662 0.960 . S
C676 H663 0.960 . S
C676 C675 1.524 . S
C677 C674 1.403 . S
C677 C678 1.392 . S
C677 C681 1.495 . S
C678 C677 1.392 . S
C678 C679 1.385 . S
C678 C680 1.478 . S
C679 H673 0.930 . S
C679 C675 1.400 . S
C679 C678 1.385 . S
C680 C678 1.478 . S
C680 C682 1.381 . S
C680 C686 1.383 . S
C681 C677 1.495 . S
C681 H687 0.959 . S
C681 H688 0.961 . S
C681 H689 0.960 . S
C682 C680 1.381 . S
C682 C683 1.394 . S
C682 H690 0.930 . S
C683 C682 1.394 . S
C683 C684 1.383 . S
C683 H691 0.929 . S
C684 C683 1.383 . S
C684 C685 1.377 . S
C685 H669 0.930 . S
C685 C684 1.377 . S
C685 C686 1.379 . S
C686 H670 0.931 . S
C686 C680 1.383 . S
C686 C685 1.379 . S
H687 C681 0.959 . S
H688 C681 0.961 . S
H689 C681 0.960 . S
H690 C682 0.930 . S
H691 C683 0.929 . S
H692 C700 0.929 . S
H693 C702 0.930 . S
H694 C704 0.930 . S
H695 C707 0.929 . S
H696 C710 0.930 . S
H697 C712 0.960 . S
H698 C712 0.960 . S
H699 C712 0.960 . S
C700 H692 0.929 . S
C700 C701 1.377 . S
C700 C702 1.384 . S
C701 C700 1.377 . S
C701 C707 1.390 . S
C702 H693 0.930 . S
C702 C700 1.384 . S
C702 C703 1.372 . S
C703 C702 1.372 . S
C703 C704 1.400 . S
C703 C708 1.490 . S
C704 H694 0.930 . S
C704 C703 1.400 . S
C704 C707 1.386 . S
H705 C721 0.930 . S
H706 C722 0.931 . S
C707 H695 0.929 . S
C707 C701 1.390 . S
C707 C704 1.386 . S
C708 C703 1.490 . S
C708 C710 1.395 . S
C708 C711 1.403 . S
H709 C715 0.930 . S
C710 H696 0.930 . S
C710 C708 1.395 . S
C710 C713 1.403 . S
C711 C708 1.403 . S
C711 C712 1.524 . S
C711 C715 1.400 . S
C712 H697 0.960 . S
C712 H698 0.960 . S
C712 H699 0.960 . S
C712 C711 1.524 . S
C713 C710 1.403 . S
C713 C714 1.392 . S
C713 C717 1.495 . S
C714 C713 1.392 . S
C714 C715 1.385 . S
C714 C716 1.478 . S
C715 H709 0.930 . S
C715 C711 1.400 . S
C715 C714 1.385 . S
C716 C714 1.478 . S
C716 C718 1.381 . S
C716 C722 1.383 . S
C717 C713 1.495 . S
C717 H723 0.959 . S
C717 H724 0.961 . S
C717 H725 0.960 . S
C718 C716 1.381 . S
C718 C719 1.394 . S
C718 H726 0.930 . S
C719 C718 1.394 . S
C719 C720 1.383 . S
C719 H727 0.929 . S
C720 C719 1.383 . S
C720 C721 1.377 . S
C721 H705 0.930 . S
C721 C720 1.377 . S
C721 C722 1.379 . S
C722 H706 0.931 . S
C722 C716 1.383 . S
C722 C721 1.379 . S
H723 C717 0.959 . S
H724 C717 0.961 . S
H725 C717 0.960 . S
H726 C718 0.930 . S
H727 C719 0.929 . S
H728 C736 0.929 . S
H729 C738 0.930 . S
H730 C740 0.930 . S
H731 C743 0.929 . S
H732 C746 0.930 . S
H733 C748 0.960 . S
H734 C748 0.960 . S
H735 C748 0.960 . S
C736 H728 0.929 . S
C736 C737 1.377 . S
C736 C738 1.384 . S
C737 C736 1.377 . S
C737 C743 1.390 . S
C738 H729 0.930 . S
C738 C736 1.384 . S
C738 C739 1.372 . S
C739 C738 1.372 . S
C739 C740 1.400 . S
C739 C744 1.490 . S
C740 H730 0.930 . S
C740 C739 1.400 . S
C740 C743 1.386 . S
H741 C757 0.930 . S
H742 C758 0.931 . S
C743 H731 0.929 . S
C743 C737 1.390 . S
C743 C740 1.386 . S
C744 C739 1.490 . S
C744 C746 1.395 . S
C744 C747 1.403 . S
H745 C751 0.930 . S
C746 H732 0.930 . S
C746 C744 1.395 . S
C746 C749 1.403 . S
C747 C744 1.403 . S
C747 C748 1.524 . S
C747 C751 1.400 . S
C748 H733 0.960 . S
C748 H734 0.960 . S
C748 H735 0.960 . S
C748 C747 1.524 . S
C749 C746 1.403 . S
C749 C750 1.392 . S
C749 C753 1.495 . S
C750 C749 1.392 . S
C750 C751 1.385 . S
C750 C752 1.478 . S
C751 H745 0.930 . S
C751 C747 1.400 . S
C751 C750 1.385 . S
C752 C750 1.478 . S
C752 C754 1.381 . S
C752 C758 1.383 . S
C753 C749 1.495 . S
C753 H759 0.959 . S
C753 H760 0.961 . S
C753 H761 0.960 . S
C754 C752 1.381 . S
C754 C755 1.394 . S
C754 H762 0.930 . S
C755 C754 1.394 . S
C755 C756 1.383 . S
C755 H763 0.929 . S
C756 C755 1.383 . S
C756 C757 1.377 . S
C757 H741 0.930 . S
C757 C756 1.377 . S
C757 C758 1.379 . S
C758 H742 0.931 . S
C758 C752 1.383 . S
C758 C757 1.379 . S
H759 C753 0.959 . S
H760 C753 0.961 . S
H761 C753 0.960 . S
H762 C754 0.930 . S
H763 C755 0.929 . S
H764 C772 0.929 . S
H765 C774 0.930 . S
H766 C776 0.930 . S
H767 C779 0.929 . S
H768 C782 0.930 . S
H769 C784 0.960 . S
H770 C784 0.960 . S
H771 C784 0.960 . S
C772 H764 0.929 . S
C772 C773 1.377 . S
C772 C774 1.384 . S
C773 C772 1.377 . S
C773 C779 1.390 . S
C774 H765 0.930 . S
C774 C772 1.384 . S
C774 C775 1.372 . S
C775 C774 1.372 . S
C775 C776 1.400 . S
C775 C780 1.490 . S
C776 H766 0.930 . S
C776 C775 1.400 . S
C776 C779 1.386 . S
H777 C793 0.930 . S
H778 C794 0.931 . S
C779 H767 0.929 . S
C779 C773 1.390 . S
C779 C776 1.386 . S
C780 C775 1.490 . S
C780 C782 1.395 . S
C780 C783 1.403 . S
H781 C787 0.930 . S
C782 H768 0.930 . S
C782 C780 1.395 . S
C782 C785 1.403 . S
C783 C780 1.403 . S
C783 C784 1.524 . S
C783 C787 1.400 . S
C784 H769 0.960 . S
C784 H770 0.960 . S
C784 H771 0.960 . S
C784 C783 1.524 . S
C785 C782 1.403 . S
C785 C786 1.392 . S
C785 C789 1.495 . S
C786 C785 1.392 . S
C786 C787 1.385 . S
C786 C788 1.478 . S
C787 H781 0.930 . S
C787 C783 1.400 . S
C787 C786 1.385 . S
C788 C786 1.478 . S
C788 C790 1.381 . S
C788 C794 1.383 . S
C789 C785 1.495 . S
C789 H795 0.959 . S
C789 H796 0.961 . S
C789 H797 0.960 . S
C790 C788 1.381 . S
C790 C791 1.394 . S
C790 H798 0.930 . S
C791 C790 1.394 . S
C791 C792 1.383 . S
C791 H799 0.929 . S
C792 C791 1.383 . S
C792 C793 1.377 . S
C793 H777 0.930 . S
C793 C792 1.377 . S
C793 C794 1.379 . S
C794 H778 0.931 . S
C794 C788 1.383 . S
C794 C793 1.379 . S
H795 C789 0.959 . S
H796 C789 0.961 . S
H797 C789 0.960 . S
H798 C790 0.930 . S
H799 C791 0.929 . S
H800 C808 0.929 . S
H801 C810 0.930 . S
H802 C812 0.930 . S
H803 C815 0.929 . S
H804 C818 0.930 . S
H805 C820 0.960 . S
H806 C820 0.960 . S
H807 C820 0.960 . S
C808 H800 0.929 . S
C808 C809 1.377 . S
C808 C810 1.384 . S
C809 C808 1.377 . S
C809 C815 1.390 . S
C810 H801 0.930 . S
C810 C808 1.384 . S
C810 C811 1.372 . S
C811 C810 1.372 . S
C811 C812 1.400 . S
C811 C816 1.490 . S
C812 H802 0.930 . S
C812 C811 1.400 . S
C812 C815 1.386 . S
H813 C829 0.930 . S
H814 C830 0.931 . S
C815 H803 0.929 . S
C815 C809 1.390 . S
C815 C812 1.386 . S
C816 C811 1.490 . S
C816 C818 1.395 . S
C816 C819 1.403 . S
H817 C823 0.930 . S
C818 H804 0.930 . S
C818 C816 1.395 . S
C818 C821 1.403 . S
C819 C816 1.403 . S
C819 C820 1.524 . S
C819 C823 1.400 . S
C820 H805 0.960 . S
C820 H806 0.960 . S
C820 H807 0.960 . S
C820 C819 1.524 . S
C821 C818 1.403 . S
C821 C822 1.392 . S
C821 C825 1.495 . S
C822 C821 1.392 . S
C822 C823 1.385 . S
C822 C824 1.478 . S
C823 H817 0.930 . S
C823 C819 1.400 . S
C823 C822 1.385 . S
C824 C822 1.478 . S
C824 C826 1.381 . S
C824 C830 1.383 . S
C825 C821 1.495 . S
C825 H831 0.959 . S
C825 H832 0.961 . S
C825 H833 0.960 . S
C826 C824 1.381 . S
C826 C827 1.394 . S
C826 H834 0.930 . S
C827 C826 1.394 . S
C827 C828 1.383 . S
C827 H835 0.929 . S
C828 C827 1.383 . S
C828 C829 1.377 . S
C829 H813 0.930 . S
C829 C828 1.377 . S
C829 C830 1.379 . S
C830 H814 0.931 . S
C830 C824 1.383 . S
C830 C829 1.379 . S
H831 C825 0.959 . S
H832 C825 0.961 . S
H833 C825 0.960 . S
H834 C826 0.930 . S
H835 C827 0.929 . S
H836 C844 0.929 . S
H837 C846 0.930 . S
H838 C848 0.930 . S
H839 C851 0.929 . S
H840 C854 0.930 . S
H841 C856 0.960 . S
H842 C856 0.960 . S
H843 C856 0.960 . S
C844 H836 0.929 . S
C844 C845 1.377 . S
C844 C846 1.384 . S
C845 C844 1.377 . S
C845 C851 1.390 . S
C846 H837 0.930 . S
C846 C844 1.384 . S
C846 C847 1.372 . S
C847 C846 1.372 . S
C847 C848 1.400 . S
C847 C852 1.490 . S
C848 H838 0.930 . S
C848 C847 1.400 . S
C848 C851 1.386 . S
H849 C865 0.930 . S
H850 C866 0.931 . S
C851 H839 0.929 . S
C851 C845 1.390 . S
C851 C848 1.386 . S
C852 C847 1.490 . S
C852 C854 1.395 . S
C852 C855 1.403 . S
H853 C859 0.930 . S
C854 H840 0.930 . S
C854 C852 1.395 . S
C854 C857 1.403 . S
C855 C852 1.403 . S
C855 C856 1.524 . S
C855 C859 1.400 . S
C856 H841 0.960 . S
C856 H842 0.960 . S
C856 H843 0.960 . S
C856 C855 1.524 . S
C857 C854 1.403 . S
C857 C858 1.392 . S
C857 C861 1.495 . S
C858 C857 1.392 . S
C858 C859 1.385 . S
C858 C860 1.478 . S
C859 H853 0.930 . S
C859 C855 1.400 . S
C859 C858 1.385 . S
C860 C858 1.478 . S
C860 C862 1.381 . S
C860 C866 1.383 . S
C861 C857 1.495 . S
C861 H867 0.959 . S
C861 H868 0.961 . S
C861 H869 0.960 . S
C862 C860 1.381 . S
C862 C863 1.394 . S
C862 H870 0.930 . S
C863 C862 1.394 . S
C863 C864 1.383 . S
C863 H871 0.929 . S
C864 C863 1.383 . S
C864 C865 1.377 . S
C865 H849 0.930 . S
C865 C864 1.377 . S
C865 C866 1.379 . S
C866 H850 0.931 . S
C866 C860 1.383 . S
C866 C865 1.379 . S
H867 C861 0.959 . S
H868 C861 0.961 . S
H869 C861 0.960 . S
H870 C862 0.930 . S
H871 C863 0.929 . S
H872 C880 0.929 . S
H873 C882 0.930 . S
H874 C884 0.930 . S
H875 C887 0.929 . S
H876 C890 0.930 . S
H877 C892 0.960 . S
H878 C892 0.960 . S
H879 C892 0.960 . S
C880 H872 0.929 . S
C880 C881 1.377 . S
C880 C882 1.384 . S
C881 C880 1.377 . S
C881 C887 1.390 . S
C882 H873 0.930 . S
C882 C880 1.384 . S
C882 C883 1.372 . S
C883 C882 1.372 . S
C883 C884 1.400 . S
C883 C888 1.490 . S
C884 H874 0.930 . S
C884 C883 1.400 . S
C884 C887 1.386 . S
H885 C901 0.930 . S
H886 C902 0.931 . S
C887 H875 0.929 . S
C887 C881 1.390 . S
C887 C884 1.386 . S
C888 C883 1.490 . S
C888 C890 1.395 . S
C888 C891 1.403 . S
H889 C895 0.930 . S
C890 H876 0.930 . S
C890 C888 1.395 . S
C890 C893 1.403 . S
C891 C888 1.403 . S
C891 C892 1.524 . S
C891 C895 1.400 . S
C892 H877 0.960 . S
C892 H878 0.960 . S
C892 H879 0.960 . S
C892 C891 1.524 . S
C893 C890 1.403 . S
C893 C894 1.392 . S
C893 C897 1.495 . S
C894 C893 1.392 . S
C894 C895 1.385 . S
C894 C896 1.478 . S
C895 H889 0.930 . S
C895 C891 1.400 . S
C895 C894 1.385 . S
C896 C894 1.478 . S
C896 C898 1.381 . S
C896 C902 1.383 . S
C897 C893 1.495 . S
C897 H903 0.959 . S
C897 H904 0.961 . S
C897 H905 0.960 . S
C898 C896 1.381 . S
C898 C899 1.394 . S
C898 H906 0.930 . S
C899 C898 1.394 . S
C899 C900 1.383 . S
C899 H907 0.929 . S
C900 C899 1.383 . S
C900 C901 1.377 . S
C901 H885 0.930 . S
C901 C900 1.377 . S
C901 C902 1.379 . S
C902 H886 0.931 . S
C902 C896 1.383 . S
C902 C901 1.379 . S
H903 C897 0.959 . S
H904 C897 0.961 . S
H905 C897 0.960 . S
H906 C898 0.930 . S
H907 C899 0.929 . S
H908 C916 0.929 . S
H909 C918 0.930 . S
H910 C920 0.930 . S
H911 C923 0.929 . S
H912 C926 0.930 . S
H913 C928 0.960 . S
H914 C928 0.960 . S
H915 C928 0.960 . S
C916 H908 0.929 . S
C916 C917 1.377 . S
C916 C918 1.384 . S
C917 C916 1.377 . S
C917 C923 1.390 . S
C918 H909 0.930 . S
C918 C916 1.384 . S
C918 C919 1.372 . S
C919 C918 1.372 . S
C919 C920 1.400 . S
C919 C924 1.490 . S
C920 H910 0.930 . S
C920 C919 1.400 . S
C920 C923 1.386 . S
H921 C937 0.930 . S
H922 C938 0.931 . S
C923 H911 0.929 . S
C923 C917 1.390 . S
C923 C920 1.386 . S
C924 C919 1.490 . S
C924 C926 1.395 . S
C924 C927 1.403 . S
H925 C931 0.930 . S
C926 H912 0.930 . S
C926 C924 1.395 . S
C926 C929 1.403 . S
C927 C924 1.403 . S
C927 C928 1.524 . S
C927 C931 1.400 . S
C928 H913 0.960 . S
C928 H914 0.960 . S
C928 H915 0.960 . S
C928 C927 1.524 . S
C929 C926 1.403 . S
C929 C930 1.392 . S
C929 C933 1.495 . S
C930 C929 1.392 . S
C930 C931 1.385 . S
C930 C932 1.478 . S
C931 H925 0.930 . S
C931 C927 1.400 . S
C931 C930 1.385 . S
C932 C930 1.478 . S
C932 C934 1.381 . S
C932 C938 1.383 . S
C933 C929 1.495 . S
C933 H939 0.959 . S
C933 H940 0.961 . S
C933 H941 0.960 . S
C934 C932 1.381 . S
C934 C935 1.394 . S
C934 H942 0.930 . S
C935 C934 1.394 . S
C935 C936 1.383 . S
C935 H943 0.929 . S
C936 C935 1.383 . S
C936 C937 1.377 . S
C937 H921 0.930 . S
C937 C936 1.377 . S
C937 C938 1.379 . S
C938 H922 0.931 . S
C938 C932 1.383 . S
C938 C937 1.379 . S
H939 C933 0.959 . S
H940 C933 0.961 . S
H941 C933 0.960 . S
H942 C934 0.930 . S
H943 C935 0.929 . S
H944 C952 0.929 . S
H945 C954 0.930 . S
H946 C956 0.930 . S
H947 C959 0.929 . S
H948 C962 0.930 . S
H949 C964 0.960 . S
H950 C964 0.960 . S
H951 C964 0.960 . S
C952 H944 0.929 . S
C952 C953 1.377 . S
C952 C954 1.384 . S
C953 C952 1.377 . S
C953 C959 1.390 . S
C954 H945 0.930 . S
C954 C952 1.384 . S
C954 C955 1.372 . S
C955 C954 1.372 . S
C955 C956 1.400 . S
C955 C960 1.490 . S
C956 H946 0.930 . S
C956 C955 1.400 . S
C956 C959 1.386 . S
H957 C973 0.930 . S
H958 C974 0.931 . S
C959 H947 0.929 . S
C959 C953 1.390 . S
C959 C956 1.386 . S
C960 C955 1.490 . S
C960 C962 1.395 . S
C960 C963 1.403 . S
H961 C967 0.930 . S
C962 H948 0.930 . S
C962 C960 1.395 . S
C962 C965 1.403 . S
C963 C960 1.403 . S
C963 C964 1.524 . S
C963 C967 1.400 . S
C964 H949 0.960 . S
C964 H950 0.960 . S
C964 H951 0.960 . S
C964 C963 1.524 . S
C965 C962 1.403 . S
C965 C966 1.392 . S
C965 C969 1.495 . S
C966 C965 1.392 . S
C966 C967 1.385 . S
C966 C968 1.478 . S
C967 H961 0.930 . S
C967 C963 1.400 . S
C967 C966 1.385 . S
C968 C966 1.478 . S
C968 C970 1.381 . S
C968 C974 1.383 . S
C969 C965 1.495 . S
C969 H975 0.959 . S
C969 H976 0.961 . S
C969 H977 0.960 . S
C970 C968 1.381 . S
C970 C971 1.394 . S
C970 H978 0.930 . S
C971 C970 1.394 . S
C971 C972 1.383 . S
C971 H979 0.929 . S
C972 C971 1.383 . S
C972 C973 1.377 . S
C973 H957 0.930 . S
C973 C972 1.377 . S
C973 C974 1.379 . S
C974 H958 0.931 . S
C974 C968 1.383 . S
C974 C973 1.379 . S
H975 C969 0.959 . S
H976 C969 0.961 . S
H977 C969 0.960 . S
H978 C970 0.930 . S
H979 C971 0.929 . S
H980 C988 0.929 . S
H981 C990 0.930 . S
H982 C992 0.930 . S
H983 C995 0.929 . S
H984 C998 0.930 . S
H985 C1000 0.960 . S
H986 C1000 0.960 . S
H987 C1000 0.960 . S
C988 H980 0.929 . S
C988 C989 1.377 . S
C988 C990 1.384 . S
C989 C988 1.377 . S
C989 C995 1.390 . S
C990 H981 0.930 . S
C990 C988 1.384 . S
C990 C991 1.372 . S
C991 C990 1.372 . S
C991 C992 1.400 . S
C991 C996 1.490 . S
C992 H982 0.930 . S
C992 C991 1.400 . S
C992 C995 1.386 . S
H993 C1009 0.930 . S
H994 C1010 0.931 . S
C995 H983 0.929 . S
C995 C989 1.390 . S
C995 C992 1.386 . S
C996 C991 1.490 . S
C996 C998 1.395 . S
C996 C999 1.403 . S
H997 C1003 0.930 . S
C998 H984 0.930 . S
C998 C996 1.395 . S
C998 C1001 1.403 . S
C999 C996 1.403 . S
C999 C1000 1.524 . S
C999 C1003 1.400 . S
C1000 H985 0.960 . S
C1000 H986 0.960 . S
C1000 H987 0.960 . S
C1000 C999 1.524 . S
C1001 C998 1.403 . S
C1001 C1002 1.392 . S
C1001 C1005 1.495 . S
C1002 C1001 1.392 . S
C1002 C1003 1.385 . S
C1002 C1004 1.478 . S
C1003 H997 0.930 . S
C1003 C999 1.400 . S
C1003 C1002 1.385 . S
C1004 C1002 1.478 . S
C1004 C1006 1.381 . S
C1004 C1010 1.383 . S
C1005 C1001 1.495 . S
C1005 H1011 0.959 . S
C1005 H1012 0.961 . S
C1005 H1013 0.960 . S
C1006 C1004 1.381 . S
C1006 C1007 1.394 . S
C1006 H1014 0.930 . S
C1007 C1006 1.394 . S
C1007 C1008 1.383 . S
C1007 H1015 0.929 . S
C1008 C1007 1.383 . S
C1008 C1009 1.377 . S
C1009 H993 0.930 . S
C1009 C1008 1.377 . S
C1009 C1010 1.379 . S
C1010 H994 0.931 . S
C1010 C1004 1.383 . S
C1010 C1009 1.379 . S
H1011 C1005 0.959 . S
H1012 C1005 0.961 . S
H1013 C1005 0.960 . S
H1014 C1006 0.930 . S
H1015 C1007 0.929 . S
H1016 C1024 0.929 . S
H1017 C1026 0.930 . S
H1018 C1028 0.930 . S
H1019 C1031 0.929 . S
H1020 C1034 0.930 . S
H1021 C1036 0.960 . S
H1022 C1036 0.960 . S
H1023 C1036 0.960 . S
C1024 H1016 0.929 . S
C1024 C1025 1.377 . S
C1024 C1026 1.384 . S
C1025 C1024 1.377 . S
C1025 C1031 1.390 . S
C1026 H1017 0.930 . S
C1026 C1024 1.384 . S
C1026 C1027 1.372 . S
C1027 C1026 1.372 . S
C1027 C1028 1.400 . S
C1027 C1032 1.490 . S
C1028 H1018 0.930 . S
C1028 C1027 1.400 . S
C1028 C1031 1.386 . S
H1029 C1045 0.930 . S
H1030 C1046 0.931 . S
C1031 H1019 0.929 . S
C1031 C1025 1.390 . S
C1031 C1028 1.386 . S
C1032 C1027 1.490 . S
C1032 C1034 1.395 . S
C1032 C1035 1.403 . S
H1033 C1039 0.930 . S
C1034 H1020 0.930 . S
C1034 C1032 1.395 . S
C1034 C1037 1.403 . S
C1035 C1032 1.403 . S
C1035 C1036 1.524 . S
C1035 C1039 1.400 . S
C1036 H1021 0.960 . S
C1036 H1022 0.960 . S
C1036 H1023 0.960 . S
C1036 C1035 1.524 . S
C1037 C1034 1.403 . S
C1037 C1038 1.392 . S
C1037 C1041 1.495 . S
C1038 C1037 1.392 . S
C1038 C1039 1.385 . S
C1038 C1040 1.478 . S
C1039 H1033 0.930 . S
C1039 C1035 1.400 . S
C1039 C1038 1.385 . S
C1040 C1038 1.478 . S
C1040 C1042 1.381 . S
C1040 C1046 1.383 . S
C1041 C1037 1.495 . S
C1041 H1047 0.959 . S
C1041 H1048 0.961 . S
C1041 H1049 0.960 . S
C1042 C1040 1.381 . S
C1042 C1043 1.394 . S
C1042 H1050 0.930 . S
C1043 C1042 1.394 . S
C1043 C1044 1.383 . S
C1043 H1051 0.929 . S
C1044 C1043 1.383 . S
C1044 C1045 1.377 . S
C1045 H1029 0.930 . S
C1045 C1044 1.377 . S
C1045 C1046 1.379 . S
C1046 H1030 0.931 . S
C1046 C1040 1.383 . S
C1046 C1045 1.379 . S
H1047 C1041 0.959 . S
H1048 C1041 0.961 . S
H1049 C1041 0.960 . S
H1050 C1042 0.930 . S
H1051 C1043 0.929 . S
H1052 C1060 0.929 . S
H1053 C1062 0.930 . S
H1054 C1064 0.930 . S
H1055 C1067 0.929 . S
H1056 C1070 0.930 . S
H1057 C1072 0.960 . S
H1058 C1072 0.960 . S
H1059 C1072 0.960 . S
C1060 H1052 0.929 . S
C1060 C1061 1.377 . S
C1060 C1062 1.384 . S
C1061 C1060 1.377 . S
C1061 C1067 1.390 . S
C1062 H1053 0.930 . S
C1062 C1060 1.384 . S
C1062 C1063 1.372 . S
C1063 C1062 1.372 . S
C1063 C1064 1.400 . S
C1063 C1068 1.490 . S
C1064 H1054 0.930 . S
C1064 C1063 1.400 . S
C1064 C1067 1.386 . S
H1065 C1081 0.930 . S
H1066 C1082 0.931 . S
C1067 H1055 0.929 . S
C1067 C1061 1.390 . S
C1067 C1064 1.386 . S
C1068 C1063 1.490 . S
C1068 C1070 1.395 . S
C1068 C1071 1.403 . S
H1069 C1075 0.930 . S
C1070 H1056 0.930 . S
C1070 C1068 1.395 . S
C1070 C1073 1.403 . S
C1071 C1068 1.403 . S
C1071 C1072 1.524 . S
C1071 C1075 1.400 . S
C1072 H1057 0.960 . S
C1072 H1058 0.960 . S
C1072 H1059 0.960 . S
C1072 C1071 1.524 . S
C1073 C1070 1.403 . S
C1073 C1074 1.392 . S
C1073 C1077 1.495 . S
C1074 C1073 1.392 . S
C1074 C1075 1.385 . S
C1074 C1076 1.478 . S
C1075 H1069 0.930 . S
C1075 C1071 1.400 . S
C1075 C1074 1.385 . S
C1076 C1074 1.478 . S
C1076 C1078 1.381 . S
C1076 C1082 1.383 . S
C1077 C1073 1.495 . S
C1077 H1083 0.959 . S
C1077 H1084 0.961 . S
C1077 H1085 0.960 . S
C1078 C1076 1.381 . S
C1078 C1079 1.394 . S
C1078 H1086 0.930 . S
C1079 C1078 1.394 . S
C1079 C1080 1.383 . S
C1079 H1087 0.929 . S
C1080 C1079 1.383 . S
C1080 C1081 1.377 . S
C1081 H1065 0.930 . S
C1081 C1080 1.377 . S
C1081 C1082 1.379 . S
C1082 H1066 0.931 . S
C1082 C1076 1.383 . S
C1082 C1081 1.379 . S
H1083 C1077 0.959 . S
H1084 C1077 0.961 . S
H1085 C1077 0.960 . S
H1086 C1078 0.930 . S
H1087 C1079 0.929 . S
H1088 C1096 0.929 . S
H1089 C1098 0.930 . S
H1090 C1100 0.930 . S
H1091 C1103 0.929 . S
H1092 C1106 0.930 . S
H1093 C1108 0.960 . S
H1094 C1108 0.960 . S
H1095 C1108 0.960 . S
C1096 H1088 0.929 . S
C1096 C1097 1.377 . S
C1096 C1098 1.384 . S
C1097 C1096 1.377 . S
C1097 C1103 1.390 . S
C1098 H1089 0.930 . S
C1098 C1096 1.384 . S
C1098 C1099 1.372 . S
C1099 C1098 1.372 . S
C1099 C1100 1.400 . S
C1099 C1104 1.490 . S
C1100 H1090 0.930 . S
C1100 C1099 1.400 . S
C1100 C1103 1.386 . S
H1101 C1117 0.930 . S
H1102 C1118 0.931 . S
C1103 H1091 0.929 . S
C1103 C1097 1.390 . S
C1103 C1100 1.386 . S
C1104 C1099 1.490 . S
C1104 C1106 1.395 . S
C1104 C1107 1.403 . S
H1105 C1111 0.930 . S
C1106 H1092 0.930 . S
C1106 C1104 1.395 . S
C1106 C1109 1.403 . S
C1107 C1104 1.403 . S
C1107 C1108 1.524 . S
C1107 C1111 1.400 . S
C1108 H1093 0.960 . S
C1108 H1094 0.960 . S
C1108 H1095 0.960 . S
C1108 C1107 1.524 . S
C1109 C1106 1.403 . S
C1109 C1110 1.392 . S
C1109 C1113 1.495 . S
C1110 C1109 1.392 . S
C1110 C1111 1.385 . S
C1110 C1112 1.478 . S
C1111 H1105 0.930 . S
C1111 C1107 1.400 . S
C1111 C1110 1.385 . S
C1112 C1110 1.478 . S
C1112 C1114 1.381 . S
C1112 C1118 1.383 . S
C1113 C1109 1.495 . S
C1113 H1119 0.959 . S
C1113 H1120 0.961 . S
C1113 H1121 0.960 . S
C1114 C1112 1.381 . S
C1114 C1115 1.394 . S
C1114 H1122 0.930 . S
C1115 C1114 1.394 . S
C1115 C1116 1.383 . S
C1115 H1123 0.929 . S
C1116 C1115 1.383 . S
C1116 C1117 1.377 . S
C1117 H1101 0.930 . S
C1117 C1116 1.377 . S
C1117 C1118 1.379 . S
C1118 H1102 0.931 . S
C1118 C1112 1.383 . S
C1118 C1117 1.379 . S
H1119 C1113 0.959 . S
H1120 C1113 0.961 . S
H1121 C1113 0.960 . S
H1122 C1114 0.930 . S
H1123 C1115 0.929 . S
H1124 C1132 0.929 . S
H1125 C1134 0.930 . S
H1126 C1136 0.930 . S
H1127 C1139 0.929 . S
H1128 C1142 0.930 . S
H1129 C1144 0.960 . S
H1130 C1144 0.960 . S
H1131 C1144 0.960 . S
C1132 H1124 0.929 . S
C1132 C1133 1.377 . S
C1132 C1134 1.384 . S
C1133 C1132 1.377 . S
C1133 C1139 1.390 . S
C1134 H1125 0.930 . S
C1134 C1132 1.384 . S
C1134 C1135 1.372 . S
C1135 C1134 1.372 . S
C1135 C1136 1.400 . S
C1135 C1140 1.490 . S
C1136 H1126 0.930 . S
C1136 C1135 1.400 . S
C1136 C1139 1.386 . S
H1137 C1153 0.930 . S
H1138 C1154 0.931 . S
C1139 H1127 0.929 . S
C1139 C1133 1.390 . S
C1139 C1136 1.386 . S
C1140 C1135 1.490 . S
C1140 C1142 1.395 . S
C1140 C1143 1.403 . S
H1141 C1147 0.930 . S
C1142 H1128 0.930 . S
C1142 C1140 1.395 . S
C1142 C1145 1.403 . S
C1143 C1140 1.403 . S
C1143 C1144 1.524 . S
C1143 C1147 1.400 . S
C1144 H1129 0.960 . S
C1144 H1130 0.960 . S
C1144 H1131 0.960 . S
C1144 C1143 1.524 . S
C1145 C1142 1.403 . S
C1145 C1146 1.392 . S
C1145 C1149 1.495 . S
C1146 C1145 1.392 . S
C1146 C1147 1.385 . S
C1146 C1148 1.478 . S
C1147 H1141 0.930 . S
C1147 C1143 1.400 . S
C1147 C1146 1.385 . S
C1148 C1146 1.478 . S
C1148 C1150 1.381 . S
C1148 C1154 1.383 . S
C1149 C1145 1.495 . S
C1149 H1155 0.959 . S
C1149 H1156 0.961 . S
C1149 H1157 0.960 . S
C1150 C1148 1.381 . S
C1150 C1151 1.394 . S
C1150 H1158 0.930 . S
C1151 C1150 1.394 . S
C1151 C1152 1.383 . S
C1151 H1159 0.929 . S
C1152 C1151 1.383 . S
C1152 C1153 1.377 . S
C1153 H1137 0.930 . S
C1153 C1152 1.377 . S
C1153 C1154 1.379 . S
C1154 H1138 0.931 . S
C1154 C1148 1.383 . S
C1154 C1153 1.379 . S
H1155 C1149 0.959 . S
H1156 C1149 0.961 . S
H1157 C1149 0.960 . S
H1158 C1150 0.930 . S
H1159 C1151 0.929 . S
H1160 C1168 0.929 . S
H1161 C1170 0.930 . S
H1162 C1172 0.930 . S
H1163 C1175 0.929 . S
H1164 C1178 0.930 . S
H1165 C1180 0.960 . S
H1166 C1180 0.960 . S
H1167 C1180 0.960 . S
C1168 H1160 0.929 . S
C1168 C1169 1.377 . S
C1168 C1170 1.384 . S
C1169 C1168 1.377 . S
C1169 C1175 1.390 . S
C1170 H1161 0.930 . S
C1170 C1168 1.384 . S
C1170 C1171 1.372 . S
C1171 C1170 1.372 . S
C1171 C1172 1.400 . S
C1171 C1176 1.490 . S
C1172 H1162 0.930 . S
C1172 C1171 1.400 . S
C1172 C1175 1.386 . S
H1173 C1189 0.930 . S
H1174 C1190 0.931 . S
C1175 H1163 0.929 . S
C1175 C1169 1.390 . S
C1175 C1172 1.386 . S
C1176 C1171 1.490 . S
C1176 C1178 1.395 . S
C1176 C1179 1.403 . S
H1177 C1183 0.930 . S
C1178 H1164 0.930 . S
C1178 C1176 1.395 . S
C1178 C1181 1.403 . S
C1179 C1176 1.403 . S
C1179 C1180 1.524 . S
C1179 C1183 1.400 . S
C1180 H1165 0.960 . S
C1180 H1166 0.960 . S
C1180 H1167 0.960 . S
C1180 C1179 1.524 . S
C1181 C1178 1.403 . S
C1181 C1182 1.392 . S
C1181 C1185 1.495 . S
C1182 C1181 1.392 . S
C1182 C1183 1.385 . S
C1182 C1184 1.478 . S
C1183 H1177 0.930 . S
C1183 C1179 1.400 . S
C1183 C1182 1.385 . S
C1184 C1182 1.478 . S
C1184 C1186 1.381 . S
C1184 C1190 1.383 . S
C1185 C1181 1.495 . S
C1185 H1191 0.959 . S
C1185 H1192 0.961 . S
C1185 H1193 0.960 . S
C1186 C1184 1.381 . S
C1186 C1187 1.394 . S
C1186 H1194 0.930 . S
C1187 C1186 1.394 . S
C1187 C1188 1.383 . S
C1187 H1195 0.929 . S
C1188 C1187 1.383 . S
C1188 C1189 1.377 . S
C1189 H1173 0.930 . S
C1189 C1188 1.377 . S
C1189 C1190 1.379 . S
C1190 H1174 0.931 . S
C1190 C1184 1.383 . S
C1190 C1189 1.379 . S
H1191 C1185 0.959 . S
H1192 C1185 0.961 . S
H1193 C1185 0.960 . S
H1194 C1186 0.930 . S
H1195 C1187 0.929 . S
H1196 C1204 0.929 . S
H1197 C1206 0.930 . S
H1198 C1208 0.930 . S
H1199 C1211 0.929 . S
H1200 C1214 0.930 . S
H1201 C1216 0.960 . S
H1202 C1216 0.960 . S
H1203 C1216 0.960 . S
C1204 H1196 0.929 . S
C1204 C1205 1.377 . S
C1204 C1206 1.384 . S
C1205 C1204 1.377 . S
C1205 C1211 1.390 . S
C1206 H1197 0.930 . S
C1206 C1204 1.384 . S
C1206 C1207 1.372 . S
C1207 C1206 1.372 . S
C1207 C1208 1.400 . S
C1207 C1212 1.490 . S
C1208 H1198 0.930 . S
C1208 C1207 1.400 . S
C1208 C1211 1.386 . S
H1209 C1225 0.930 . S
H1210 C1226 0.931 . S
C1211 H1199 0.929 . S
C1211 C1205 1.390 . S
C1211 C1208 1.386 . S
C1212 C1207 1.490 . S
C1212 C1214 1.395 . S
C1212 C1215 1.403 . S
H1213 C1219 0.930 . S
C1214 H1200 0.930 . S
C1214 C1212 1.395 . S
C1214 C1217 1.403 . S
C1215 C1212 1.403 . S
C1215 C1216 1.524 . S
C1215 C1219 1.400 . S
C1216 H1201 0.960 . S
C1216 H1202 0.960 . S
C1216 H1203 0.960 . S
C1216 C1215 1.524 . S
C1217 C1214 1.403 . S
C1217 C1218 1.392 . S
C1217 C1221 1.495 . S
C1218 C1217 1.392 . S
C1218 C1219 1.385 . S
C1218 C1220 1.478 . S
C1219 H1213 0.930 . S
C1219 C1215 1.400 . S
C1219 C1218 1.385 . S
C1220 C1218 1.478 . S
C1220 C1222 1.381 . S
C1220 C1226 1.383 . S
C1221 C1217 1.495 . S
C1221 H1227 0.959 . S
C1221 H1228 0.961 . S
C1221 H1229 0.960 . S
C1222 C1220 1.381 . S
C1222 C1223 1.394 . S
C1222 H1230 0.930 . S
C1223 C1222 1.394 . S
C1223 C1224 1.383 . S
C1223 H1231 0.929 . S
C1224 C1223 1.383 . S
C1224 C1225 1.377 . S
C1225 H1209 0.930 . S
C1225 C1224 1.377 . S
C1225 C1226 1.379 . S
C1226 H1210 0.931 . S
C1226 C1220 1.383 . S
C1226 C1225 1.379 . S
H1227 C1221 0.959 . S
H1228 C1221 0.961 . S
H1229 C1221 0.960 . S
H1230 C1222 0.930 . S
H1231 C1223 0.929 . S
H1232 C1240 0.929 . S
H1233 C1242 0.930 . S
H1234 C1244 0.930 . S
H1235 C1247 0.929 . S
H1236 C1250 0.930 . S
H1237 C1252 0.960 . S
H1238 C1252 0.960 . S
H1239 C1252 0.960 . S
C1240 H1232 0.929 . S
C1240 C1241 1.377 . S
C1240 C1242 1.384 . S
C1241 C1240 1.377 . S
C1241 C1247 1.390 . S
C1242 H1233 0.930 . S
C1242 C1240 1.384 . S
C1242 C1243 1.372 . S
C1243 C1242 1.372 . S
C1243 C1244 1.400 . S
C1243 C1248 1.490 . S
C1244 H1234 0.930 . S
C1244 C1243 1.400 . S
C1244 C1247 1.386 . S
H1245 C1261 0.930 . S
H1246 C1262 0.931 . S
C1247 H1235 0.929 . S
C1247 C1241 1.390 . S
C1247 C1244 1.386 . S
C1248 C1243 1.490 . S
C1248 C1250 1.395 . S
C1248 C1251 1.403 . S
H1249 C1255 0.930 . S
C1250 H1236 0.930 . S
C1250 C1248 1.395 . S
C1250 C1253 1.403 . S
C1251 C1248 1.403 . S
C1251 C1252 1.524 . S
C1251 C1255 1.400 . S
C1252 H1237 0.960 . S
C1252 H1238 0.960 . S
C1252 H1239 0.960 . S
C1252 C1251 1.524 . S
C1253 C1250 1.403 . S
C1253 C1254 1.392 . S
C1253 C1257 1.495 . S
C1254 C1253 1.392 . S
C1254 C1255 1.385 . S
C1254 C1256 1.478 . S
C1255 H1249 0.930 . S
C1255 C1251 1.400 . S
C1255 C1254 1.385 . S
C1256 C1254 1.478 . S
C1256 C1258 1.381 . S
C1256 C1262 1.383 . S
C1257 C1253 1.495 . S
C1257 H1263 0.959 . S
C1257 H1264 0.961 . S
C1257 H1265 0.960 . S
C1258 C1256 1.381 . S
C1258 C1259 1.394 . S
C1258 H1266 0.930 . S
C1259 C1258 1.394 . S
C1259 C1260 1.383 . S
C1259 H1267 0.929 . S
C1260 C1259 1.383 . S
C1260 C1261 1.377 . S
C1261 H1245 0.930 . S
C1261 C1260 1.377 . S
C1261 C1262 1.379 . S
C1262 H1246 0.931 . S
C1262 C1256 1.383 . S
C1262 C1261 1.379 . S
H1263 C1257 0.959 . S
H1264 C1257 0.961 . S
H1265 C1257 0.960 . S
H1266 C1258 0.930 . S
H1267 C1259 0.929 . S
H1268 C1276 0.929 . S
H1269 C1278 0.930 . S
H1270 C1280 0.930 . S
H1271 C1283 0.929 . S
H1272 C1286 0.930 . S
H1273 C1288 0.960 . S
H1274 C1288 0.960 . S
H1275 C1288 0.960 . S
C1276 H1268 0.929 . S
C1276 C1277 1.377 . S
C1276 C1278 1.384 . S
C1277 C1276 1.377 . S
C1277 C1283 1.390 . S
C1278 H1269 0.930 . S
C1278 C1276 1.384 . S
C1278 C1279 1.372 . S
C1279 C1278 1.372 . S
C1279 C1280 1.400 . S
C1279 C1284 1.490 . S
C1280 H1270 0.930 . S
C1280 C1279 1.400 . S
C1280 C1283 1.386 . S
H1281 C1297 0.930 . S
H1282 C1298 0.931 . S
C1283 H1271 0.929 . S
C1283 C1277 1.390 . S
C1283 C1280 1.386 . S
C1284 C1279 1.490 . S
C1284 C1286 1.395 . S
C1284 C1287 1.403 . S
H1285 C1291 0.930 . S
C1286 H1272 0.930 . S
C1286 C1284 1.395 . S
C1286 C1289 1.403 . S
C1287 C1284 1.403 . S
C1287 C1288 1.524 . S
C1287 C1291 1.400 . S
C1288 H1273 0.960 . S
C1288 H1274 0.960 . S
C1288 H1275 0.960 . S
C1288 C1287 1.524 . S
C1289 C1286 1.403 . S
C1289 C1290 1.392 . S
C1289 C1293 1.495 . S
C1290 C1289 1.392 . S
C1290 C1291 1.385 . S
C1290 C1292 1.478 . S
C1291 H1285 0.930 . S
C1291 C1287 1.400 . S
C1291 C1290 1.385 . S
C1292 C1290 1.478 . S
C1292 C1294 1.381 . S
C1292 C1298 1.383 . S
C1293 C1289 1.495 . S
C1293 H1299 0.959 . S
C1293 H1300 0.961 . S
C1293 H1301 0.960 . S
C1294 C1292 1.381 . S
C1294 C1295 1.394 . S
C1294 H1302 0.930 . S
C1295 C1294 1.394 . S
C1295 C1296 1.383 . S
C1295 H1303 0.929 . S
C1296 C1295 1.383 . S
C1296 C1297 1.377 . S
C1297 H1281 0.930 . S
C1297 C1296 1.377 . S
C1297 C1298 1.379 . S
C1298 H1282 0.931 . S
C1298 C1292 1.383 . S
C1298 C1297 1.379 . S
H1299 C1293 0.959 . S
H1300 C1293 0.961 . S
H1301 C1293 0.960 . S
H1302 C1294 0.930 . S
H1303 C1295 0.929 . S
H1304 C1312 0.929 . S
H1305 C1314 0.930 . S
H1306 C1316 0.930 . S
H1307 C1319 0.929 . S
H1308 C1322 0.930 . S
H1309 C1324 0.960 . S
H1310 C1324 0.960 . S
H1311 C1324 0.960 . S
C1312 H1304 0.929 . S
C1312 C1313 1.377 . S
C1312 C1314 1.384 . S
C1313 C1312 1.377 . S
C1313 C1319 1.390 . S
C1314 H1305 0.930 . S
C1314 C1312 1.384 . S
C1314 C1315 1.372 . S
C1315 C1314 1.372 . S
C1315 C1316 1.400 . S
C1315 C1320 1.490 . S
C1316 H1306 0.930 . S
C1316 C1315 1.400 . S
C1316 C1319 1.386 . S
H1317 C1333 0.930 . S
H1318 C1334 0.931 . S
C1319 H1307 0.929 . S
C1319 C1313 1.390 . S
C1319 C1316 1.386 . S
C1320 C1315 1.490 . S
C1320 C1322 1.395 . S
C1320 C1323 1.403 . S
H1321 C1327 0.930 . S
C1322 H1308 0.930 . S
C1322 C1320 1.395 . S
C1322 C1325 1.403 . S
C1323 C1320 1.403 . S
C1323 C1324 1.524 . S
C1323 C1327 1.400 . S
C1324 H1309 0.960 . S
C1324 H1310 0.960 . S
C1324 H1311 0.960 . S
C1324 C1323 1.524 . S
C1325 C1322 1.403 . S
C1325 C1326 1.392 . S
C1325 C1329 1.495 . S
C1326 C1325 1.392 . S
C1326 C1327 1.385 . S
C1326 C1328 1.478 . S
C1327 H1321 0.930 . S
C1327 C1323 1.400 . S
C1327 C1326 1.385 . S
C1328 C1326 1.478 . S
C1328 C1330 1.381 . S
C1328 C1334 1.383 . S
C1329 C1325 1.495 . S
C1329 H1335 0.959 . S
C1329 H1336 0.961 . S
C1329 H1337 0.960 . S
C1330 C1328 1.381 . S
C1330 C1331 1.394 . S
C1330 H1338 0.930 . S
C1331 C1330 1.394 . S
C1331 C1332 1.383 . S
C1331 H1339 0.929 . S
C1332 C1331 1.383 . S
C1332 C1333 1.377 . S
C1333 H1317 0.930 . S
C1333 C1332 1.377 . S
C1333 C1334 1.379 . S
C1334 H1318 0.931 . S
C1334 C1328 1.383 . S
C1334 C1333 1.379 . S
H1335 C1329 0.959 . S
H1336 C1329 0.961 . S
H1337 C1329 0.960 . S
H1338 C1330 0.930 . S
H1339 C1331 0.929 . S
H1340 C1348 0.929 . S
H1341 C1350 0.930 . S
H1342 C1352 0.930 . S
H1343 C1355 0.929 . S
H1344 C1358 0.930 . S
H1345 C1360 0.960 . S
H1346 C1360 0.960 . S
H1347 C1360 0.960 . S
C1348 H1340 0.929 . S
C1348 C1349 1.377 . S
C1348 C1350 1.384 . S
C1349 C1348 1.377 . S
C1349 C1355 1.390 . S
C1350 H1341 0.930 . S
C1350 C1348 1.384 . S
C1350 C1351 1.372 . S
C1351 C1350 1.372 . S
C1351 C1352 1.400 . S
C1351 C1356 1.490 . S
C1352 H1342 0.930 . S
C1352 C1351 1.400 . S
C1352 C1355 1.386 . S
H1353 C1369 0.930 . S
H1354 C1370 0.931 . S
C1355 H1343 0.929 . S
C1355 C1349 1.390 . S
C1355 C1352 1.386 . S
C1356 C1351 1.490 . S
C1356 C1358 1.395 . S
C1356 C1359 1.403 . S
H1357 C1363 0.930 . S
C1358 H1344 0.930 . S
C1358 C1356 1.395 . S
C1358 C1361 1.403 . S
C1359 C1356 1.403 . S
C1359 C1360 1.524 . S
C1359 C1363 1.400 . S
C1360 H1345 0.960 . S
C1360 H1346 0.960 . S
C1360 H1347 0.960 . S
C1360 C1359 1.524 . S
C1361 C1358 1.403 . S
C1361 C1362 1.392 . S
C1361 C1365 1.495 . S
C1362 C1361 1.392 . S
C1362 C1363 1.385 . S
C1362 C1364 1.478 . S
C1363 H1357 0.930 . S
C1363 C1359 1.400 . S
C1363 C1362 1.385 . S
C1364 C1362 1.478 . S
C1364 C1366 1.381 . S
C1364 C1370 1.383 . S
C1365 C1361 1.495 . S
C1365 H1371 0.959 . S
C1365 H1372 0.961 . S
C1365 H1373 0.960 . S
C1366 C1364 1.381 . S
C1366 C1367 1.394 . S
C1366 H1374 0.930 . S
C1367 C1366 1.394 . S
C1367 C1368 1.383 . S
C1367 H1375 0.929 . S
C1368 C1367 1.383 . S
C1368 C1369 1.377 . S
C1369 H1353 0.930 . S
C1369 C1368 1.377 . S
C1369 C1370 1.379 . S
C1370 H1354 0.931 . S
C1370 C1364 1.383 . S
C1370 C1369 1.379 . S
H1371 C1365 0.959 . S
H1372 C1365 0.961 . S
H1373 C1365 0.960 . S
H1374 C1366 0.930 . S
H1375 C1367 0.929 . S
C233 C62 1.545 . S
C252 C6 1.524 . S
C269 C76 1.541 . S
C288 C20 1.538 . S
C305 C90 1.541 . S
C324 C34 1.537 . S
C341 C104 1.547 . S
C360 C48 1.542 . S
C377 C174 1.544 . S
C396 C118 1.526 . S
C413 C188 1.541 . S
C432 C132 1.552 . S
C449 C146 1.543 . S
C468 C202 1.558 . S
C485 C216 1.548 . S
C504 C160 1.533 . S
C521 C9 1.522 . S
C540 C79 1.536 . S
C557 C93 1.525 . S
C576 C23 1.529 . S
C593 C37 1.521 . S
C612 C107 1.539 . S
C629 C65 1.528 . S
C648 C51 1.514 . S
C665 C191 1.523 . S
C684 C121 1.531 . S
C701 C205 1.526 . S
C720 C135 1.515 . S
C737 C149 1.521 . S
C756 C219 1.541 . S
C773 C163 1.529 . S
C792 C177 1.503 . S
C809 C218 2.017 . S
C828 C8 2.022 . S
C845 C176 2.017 . S
C864 C22 2.004 . S
C881 C190 2.016 . S
C900 C36 2.005 . S
C917 C204 2.020 . S
C936 C50 2.027 . S
C953 C134 2.017 . S
C972 C64 2.003 . S
C989 C148 2.019 . S
C1008 C78 2.005 . S
C1025 C92 2.018 . S
C1044 C162 2.023 . S
C1061 C106 2.020 . S
C1080 C120 2.027 . S
C1097 C189 0.914 . S
C1116 C35 0.935 . S
C1133 C203 0.908 . S
C1152 C49 0.922 . S
C1169 C217 0.908 . S
C1188 C7 0.917 . S
C1205 C21 0.911 . S
C1224 C175 0.936 . S
C1241 C161 0.910 . S
C1260 C91 0.900 . S
C1277 C105 0.917 . S
C1296 C119 0.923 . S
C1313 C133 0.908 . S
C1332 C63 0.915 . S
C1349 C147 0.910 . S
C1368 C77 0.896 . S
