# Generated by pormake.
# Topology vmc, (5)-cn, num edge types: 1
# Building blocks:
#     Node 0, Type 0, BuildingBlock: XOMCOT_clean_sbu_0, # of connection points: 5
#     Node 1, Type 0, BuildingBlock: XOMCOT_clean_sbu_0, # of connection points: 5
#     Node 2, Type 0, BuildingBlock: XOMCOT_clean_sbu_0, # of connection points: 5
#     Node 3, Type 0, BuildingBlock: XOMCOT_clean_sbu_0, # of connection points: 5
#     Node 4, Type 0, BuildingBlock: XOMCOT_clean_sbu_0, # of connection points: 5
#     Node 5, Type 0, BuildingBlock: XOMCOT_clean_sbu_0, # of connection points: 5
#     Node 6, Type 0, BuildingBlock: XOMCOT_clean_sbu_0, # of connection points: 5
#     Node 7, Type 0, BuildingBlock: XOMCOT_clean_sbu_0, # of connection points: 5
#     Edge 8, Type (0, 0), BuildingBlock: MIFKUJ_clean_linker_0, # of connection points: 2
#     Edge 9, Type (0, 0), BuildingBlock: MIFKUJ_clean_linker_0, # of connection points: 2
#     Edge 10, Type (0, 0), BuildingBlock: MIFKUJ_clean_linker_0, # of connection points: 2
#     Edge 11, Type (0, 0), BuildingBlock: MIFKUJ_clean_linker_0, # of connection points: 2
#     Edge 12, Type (0, 0), BuildingBlock: MIFKUJ_clean_linker_0, # of connection points: 2
#     Edge 13, Type (0, 0), BuildingBlock: MIFKUJ_clean_linker_0, # of connection points: 2
#     Edge 14, Type (0, 0), BuildingBlock: MIFKUJ_clean_linker_0, # of connection points: 2
#     Edge 15, Type (0, 0), BuildingBlock: MIFKUJ_clean_linker_0, # of connection points: 2
#     Edge 16, Type (0, 0), BuildingBlock: MIFKUJ_clean_linker_0, # of connection points: 2
#     Edge 17, Type (0, 0), BuildingBlock: MIFKUJ_clean_linker_0, # of connection points: 2
#     Edge 18, Type (0, 0), BuildingBlock: MIFKUJ_clean_linker_0, # of connection points: 2
#     Edge 19, Type (0, 0), BuildingBlock: MIFKUJ_clean_linker_0, # of connection points: 2
#     Edge 20, Type (0, 0), BuildingBlock: MIFKUJ_clean_linker_0, # of connection points: 2
#     Edge 21, Type (0, 0), BuildingBlock: MIFKUJ_clean_linker_0, # of connection points: 2
#     Edge 22, Type (0, 0), BuildingBlock: MIFKUJ_clean_linker_0, # of connection points: 2
#     Edge 23, Type (0, 0), BuildingBlock: MIFKUJ_clean_linker_0, # of connection points: 2
#     Edge 24, Type (0, 0), BuildingBlock: MIFKUJ_clean_linker_0, # of connection points: 2
#     Edge 25, Type (0, 0), BuildingBlock: MIFKUJ_clean_linker_0, # of connection points: 2
#     Edge 26, Type (0, 0), BuildingBlock: MIFKUJ_clean_linker_0, # of connection points: 2
#     Edge 27, Type (0, 0), BuildingBlock: MIFKUJ_clean_linker_0, # of connection points: 2
# Relax obj value: 0.326
# Max RMSD: 0.193
# Mean RMSD: 0.193
data_MOF--net-vmc--node1-XOMCOT_clean_sbu_0--edge1-MIFKUJ_clean_linker_0
_symmetry_space_group_name_H-M    P1
_symmetry_Int_Tables_number       1
_symmetry_cell_setting            triclinic
loop_
_symmetry_equiv_pos_as_xyz
'x, y, z'
_cell_length_a     36.27511
_cell_length_b     60.918447
_cell_length_c     37.347893
_cell_angle_alpha  89.957405
_cell_angle_beta   91.688086
_cell_angle_gamma 89.967304
loop_
_atom_site_label
_atom_site_type_symbol
_atom_site_fract_x
_atom_site_fract_y
_atom_site_fract_z
_atom_type_partial_charge
Co0 Co 0.26809 0.44458 0.06566 0.0
C1 C 0.24021 0.46205 0.99535 0.0
C2 C 0.20399 0.47079 0.03722 0.0
C3 C 0.19153 0.48059 1.00583 0.0
N4 N 0.23452 0.45894 0.03077 0.0
N5 N 0.21443 0.47519 0.97943 0.0
H6 H 0.26316 0.4551 0.98146 0.0
H7 H 0.19221 0.47324 0.06304 0.0
C8 C 0.20838 0.45101 0.12224 0.0
O9 O 0.1843 0.43768 0.10685 0.0
N10 N 0.3021 0.43102 0.09972 0.0
C11 C 0.32101 0.41221 0.09544 0.0
C12 C 0.34474 0.40946 0.12452 0.0
C13 C 0.31489 0.43964 0.13088 0.0
N14 N 0.34091 0.42674 0.14673 0.0
C15 C 0.23834 0.40809 0.02693 0.0
C16 C 0.22882 0.38121 0.08557 0.0
C17 C 0.22767 0.37177 0.05125 0.0
C18 C 0.23108 0.38577 0.02167 0.0
C19 C 0.23621 0.40364 0.08967 0.0
N20 N 0.24198 0.4167 0.06057 0.0
H21 H 0.24428 0.418 1.00389 0.0
H22 H 0.24044 0.41004 0.11645 0.0
H23 H 0.31843 0.40159 0.0723 0.0
H24 H 0.30598 0.4553 0.14119 0.0
O25 O 0.30426 0.44004 0.02939 0.0
O26 O 0.3003 0.46957 0.06393 0.0
O27 O 0.23901 0.45514 0.10766 0.0
C28 C 0.31789 0.45889 0.03957 0.0
H29 H 0.16834 0.49172 1.00321 0.0
H30 H 0.36456 0.3963 0.12815 0.0
H31 H 0.22593 0.37117 0.10926 0.0
H32 H 0.23103 0.37933 0.99465 0.0
Co33 Co 0.71712 0.4479 0.46976 0.0
C34 C 0.75187 0.46514 0.53681 0.0
C35 C 0.78254 0.47525 0.49164 0.0
C36 C 0.79689 0.48558 0.52192 0.0
N37 N 0.75433 0.46219 0.50095 0.0
N38 N 0.77728 0.47935 0.5503 0.0
H39 H 0.7309 0.4577 0.55278 0.0
H40 H 0.79079 0.47844 0.46464 0.0
C41 C 0.77313 0.45239 0.40912 0.0
O42 O 0.79862 0.44011 0.42482 0.0
N43 N 0.67908 0.43429 0.43994 0.0
C44 C 0.66289 0.41472 0.44573 0.0
C45 C 0.63391 0.41219 0.42155 0.0
C46 C 0.65896 0.44374 0.41315 0.0
N47 N 0.63139 0.43048 0.40138 0.0
C48 C 0.74568 0.41119 0.50881 0.0
C49 C 0.75211 0.38337 0.45087 0.0
C50 C 0.75312 0.37439 0.48552 0.0
C51 C 0.75149 0.3888 0.51467 0.0
C52 C 0.74619 0.40596 0.44614 0.0
N53 N 0.74168 0.41948 0.47496 0.0
H54 H 0.74115 0.4215 0.53168 0.0
H55 H 0.7414 0.4121 0.41926 0.0
H56 H 0.67061 0.40345 0.46706 0.0
H57 H 0.66355 0.46022 0.40338 0.0
O58 O 0.68382 0.44561 0.50912 0.0
O59 O 0.6877 0.47397 0.47191 0.0
O60 O 0.74293 0.45642 0.42456 0.0
C61 C 0.67152 0.46474 0.4986 0.0
H62 H 0.81848 0.49784 0.52249 0.0
H63 H 0.61486 0.39852 0.42017 0.0
H64 H 0.75286 0.37285 0.42754 0.0
H65 H 0.75263 0.38266 0.54191 0.0
Co66 Co 0.71454 0.56869 0.97061 0.0
C67 C 0.75677 0.55263 0.03399 0.0
C68 C 0.77298 0.53593 0.98675 0.0
C69 C 0.78747 0.52492 0.01631 0.0
N70 N 0.7539 0.55357 0.99773 0.0
N71 N 0.77682 0.53529 0.04623 0.0
H72 H 0.74131 0.56309 0.05119 0.0
H73 H 0.77306 0.52995 0.95953 0.0
C74 C 0.77112 0.56425 0.91082 0.0
O75 O 0.79958 0.56996 0.9313 0.0
N76 N 0.67453 0.58325 0.94504 0.0
C77 C 0.65465 0.60012 0.95762 0.0
C78 C 0.62652 0.60478 0.93336 0.0
C79 C 0.65823 0.57777 0.9134 0.0
N80 N 0.62887 0.59075 0.90562 0.0
C81 C 0.73678 0.606 1.01263 0.0
C82 C 0.74977 0.63358 0.95562 0.0
C83 C 0.74775 0.64269 0.99005 0.0
C84 C 0.74258 0.62836 0.01884 0.0
C85 C 0.74414 0.61099 0.95057 0.0
N86 N 0.73699 0.59749 0.97883 0.0
H87 H 0.72885 0.59608 0.03486 0.0
H88 H 0.74218 0.60487 0.92348 0.0
H89 H 0.65976 0.60814 0.98311 0.0
H90 H 0.6666 0.56402 0.89724 0.0
O91 O 0.68318 0.56694 1.01178 0.0
O92 O 0.68748 0.5417 0.96921 0.0
O93 O 0.73877 0.56391 0.9233 0.0
C94 C 0.67247 0.54813 0.9985 0.0
H95 H 0.80169 0.50932 0.01563 0.0
H96 H 0.60571 0.61737 0.93603 0.0
H97 H 0.75302 0.64398 0.9324 0.0
H98 H 0.74109 0.63449 0.04597 0.0
Co99 Co 0.27281 0.56754 0.55609 0.0
C100 C 0.22829 0.55186 0.49382 0.0
C101 C 0.21209 0.53581 0.54167 0.0
C102 C 0.19557 0.52531 0.51263 0.0
N103 N 0.23242 0.55275 0.52998 0.0
N104 N 0.2061 0.53529 0.4823 0.0
H105 H 0.24399 0.5619 0.47611 0.0
H106 H 0.21208 0.5299 0.56893 0.0
C107 C 0.2214 0.5617 0.6192 0.0
O108 O 0.19312 0.57056 0.60179 0.0
N109 N 0.31388 0.58163 0.58071 0.0
C110 C 0.33281 0.59894 0.5683 0.0
C111 C 0.36374 0.60201 0.58985 0.0
C112 C 0.33342 0.57435 0.6096 0.0
N113 N 0.36404 0.58654 0.61567 0.0
C114 C 0.24149 0.60498 0.52037 0.0
C115 C 0.24001 0.6316 0.5802 0.0
C116 C 0.23594 0.64125 0.54617 0.0
C117 C 0.23506 0.62743 0.5162 0.0
C118 C 0.24619 0.60893 0.58323 0.0
N119 N 0.24804 0.59598 0.55341 0.0
H120 H 0.24448 0.59535 0.49659 0.0
H121 H 0.25307 0.60226 0.60939 0.0
H122 H 0.32531 0.60817 0.54443 0.0
H123 H 0.32645 0.55984 0.62469 0.0
O124 O 0.30072 0.56921 0.51275 0.0
O125 O 0.30197 0.54147 0.5514 0.0
O126 O 0.25241 0.55984 0.60422 0.0
C127 C 0.3145 0.55031 0.52252 0.0
H128 H 0.17974 0.51031 0.51392 0.0
H129 H 0.38466 0.61446 0.58659 0.0
H130 H 0.2413 0.64164 0.60412 0.0
H131 H 0.23158 0.63408 0.4894 0.0
Co132 Co 0.76638 0.95115 0.06359 0.0
C133 C 0.72422 0.96883 1.00091 0.0
C134 C 0.707 0.98382 0.0494 0.0
C135 C 0.69086 0.99491 0.0207 0.0
N136 N 0.72766 0.96718 0.03709 0.0
N137 N 0.70184 0.98546 0.99016 0.0
H138 H 0.74079 0.9597 0.98256 0.0
H139 H 0.7061 0.9889 0.07706 0.0
C140 C 0.71094 0.95467 0.12441 0.0
O141 O 0.68289 0.9475 0.10468 0.0
N142 N 0.80579 0.93578 0.08876 0.0
C143 C 0.82307 0.91767 0.07709 0.0
C144 C 0.85411 0.91418 0.09828 0.0
C145 C 0.82661 0.94318 0.11671 0.0
N146 N 0.85643 0.9303 0.12299 0.0
C147 C 0.73981 0.91505 0.02097 0.0
C148 C 0.7295 0.8866 0.07745 0.0
C149 C 0.72949 0.87806 0.04254 0.0
C150 C 0.73328 0.89283 1.01407 0.0
C151 C 0.73599 0.90903 0.0832 0.0
N152 N 0.74199 0.92293 0.05517 0.0
H153 H 0.74638 0.9254 0.99876 0.0
H154 H 0.73982 0.91464 0.11045 0.0
H155 H 0.81478 0.90833 0.05361 0.0
H156 H 0.82147 0.95849 0.13041 0.0
O157 O 0.79748 0.95233 0.02212 0.0
O158 O 0.79552 0.97733 0.06517 0.0
O159 O 0.74288 0.95626 0.11122 0.0
C160 C 0.81055 0.97043 0.03615 0.0
H161 H 0.67401 0.00953 0.02224 0.0
H162 H 0.8741 0.9012 0.09494 0.0
H163 H 0.72736 0.87583 0.10038 0.0
H164 H 0.73316 0.8871 0.98663 0.0
Co165 Co 0.22047 0.94821 0.46151 0.0
C166 C 0.24858 0.97101 0.5275 0.0
C167 C 0.29219 0.9647 0.49152 0.0
C168 C 0.30692 0.97458 0.52192 0.0
N169 N 0.25548 0.96246 0.49486 0.0
N170 N 0.27946 0.97849 0.54463 0.0
H171 H 0.22158 0.97157 0.53888 0.0
H172 H 0.30772 0.95909 0.46917 0.0
C173 C 0.27929 0.94979 0.40273 0.0
O174 O 0.29966 0.93353 0.41521 0.0
N175 N 0.18533 0.9345 0.42872 0.0
C176 C 0.16532 0.9163 0.43478 0.0
C177 C 0.14227 0.91263 0.4055 0.0
C178 C 0.17354 0.94203 0.39642 0.0
N179 N 0.14747 0.92883 0.38156 0.0
C180 C 0.24847 0.91322 0.50511 0.0
C181 C 0.25388 0.88254 0.45099 0.0
C182 C 0.25652 0.87537 0.48671 0.0
C183 C 0.25506 0.89122 0.51388 0.0
C184 C 0.24735 0.90473 0.44337 0.0
N185 N 0.24383 0.91974 0.47028 0.0
H186 H 0.24443 0.92476 0.52656 0.0
H187 H 0.24217 0.90948 0.41578 0.0
H188 H 0.16702 0.9066 0.45904 0.0
H189 H 0.18328 0.95704 0.38439 0.0
O190 O 0.18366 0.94685 0.49807 0.0
O191 O 0.19081 0.97427 0.45961 0.0
O192 O 0.251 0.95639 0.41916 0.0
C193 C 0.17191 0.96554 0.48499 0.0
H194 H 0.33585 0.97792 0.5273 0.0
H195 H 0.12204 0.89964 0.40268 0.0
H196 H 0.25423 0.87094 0.42906 0.0
H197 H 0.25735 0.88655 0.54184 0.0
Co198 Co 0.22251 0.06553 0.96256 0.0
C199 C 0.2573 0.04865 0.0299 0.0
C200 C 0.28577 0.03691 0.98434 0.0
C201 C 0.30035 0.02678 0.01461 0.0
N202 N 0.25893 0.0509 0.99387 0.0
N203 N 0.28227 0.0341 0.0433 0.0
H204 H 0.23646 0.05626 0.04584 0.0
H205 H 0.29289 0.03302 0.95725 0.0
C206 C 0.28186 0.06201 0.90462 0.0
O207 O 0.3077 0.07303 0.9222 0.0
N208 N 0.18561 0.0795 0.93212 0.0
C209 C 0.1684 0.09873 0.93813 0.0
C210 C 0.14216 0.10204 0.91136 0.0
C211 C 0.16896 0.07103 0.90251 0.0
N212 N 0.14262 0.0846 0.88926 0.0
C213 C 0.24677 0.10234 1.00451 0.0
C214 C 0.25923 0.13002 0.94747 0.0
C215 C 0.25807 0.13903 0.98202 0.0
C216 C 0.25307 0.12466 1.01086 0.0
C217 C 0.25285 0.10757 0.94228 0.0
N218 N 0.24576 0.09407 0.97054 0.0
H219 H 0.23963 0.09212 0.02678 0.0
H220 H 0.25019 0.10154 0.91516 0.0
H221 H 0.17393 0.10934 0.96087 0.0
H222 H 0.17541 0.05512 0.89138 0.0
O223 O 0.1871 0.06585 1.00055 0.0
O224 O 0.19413 0.03911 0.96102 0.0
O225 O 0.25055 0.05868 0.91825 0.0
C226 C 0.17587 0.04707 0.98741 0.0
H227 H 0.32169 0.01437 0.01515 0.0
H228 H 0.12312 0.1157 0.90905 0.0
H229 H 0.26319 0.1404 0.92435 0.0
H230 H 0.25129 0.13081 0.03795 0.0
Co231 Co 0.76326 0.06767 0.56724 0.0
C232 C 0.7281 0.04858 0.502 0.0
C233 C 0.70658 0.03374 0.54885 0.0
C234 C 0.69298 0.02259 0.51903 0.0
N235 N 0.72807 0.05045 0.53819 0.0
N236 N 0.70688 0.03186 0.48955 0.0
H237 H 0.74538 0.05821 0.48505 0.0
H238 H 0.70333 0.02869 0.57629 0.0
C239 C 0.70351 0.06234 0.62451 0.0
O240 O 0.67504 0.06587 0.60271 0.0
N241 N 0.79934 0.08425 0.59492 0.0
C242 C 0.81463 0.10348 0.58557 0.0
C243 C 0.84421 0.10763 0.60833 0.0
C244 C 0.82005 0.07682 0.62292 0.0
N245 N 0.84793 0.09071 0.63157 0.0
C246 C 0.7396 0.10281 0.5211 0.0
C247 C 0.72068 0.13134 0.57502 0.0
C248 C 0.72514 0.13975 0.54039 0.0
C249 C 0.73296 0.12487 0.513 0.0
C250 C 0.72718 0.10901 0.58196 0.0
N251 N 0.73785 0.09515 0.55536 0.0
H252 H 0.74964 0.09252 0.50018 0.0
H253 H 0.7275 0.10359 0.60946 0.0
H254 H 0.80624 0.11327 0.56259 0.0
H255 H 0.81632 0.06082 0.63487 0.0
O256 O 0.79832 0.06654 0.52892 0.0
O257 O 0.7937 0.04218 0.57277 0.0
O258 O 0.73627 0.06296 0.61308 0.0
C259 C 0.81124 0.04908 0.54517 0.0
H260 H 0.67648 0.0078 0.51928 0.0
H261 H 0.86226 0.1217 0.6069 0.0
H262 H 0.71515 0.14216 0.59722 0.0
H263 H 0.73613 0.13043 0.48572 0.0
H264 H 0.16013 0.5611 0.66152 0.0
H265 H 0.15573 0.54625 0.72239 0.0
H266 H 0.27077 0.52837 0.72205 0.0
H267 H 0.27524 0.54276 0.66158 0.0
H268 H 0.2323 0.4957 0.74821 0.0
H269 H 0.23958 0.57343 0.76868 0.0
H270 H 0.22086 0.61215 0.76159 0.0
H271 H 0.11443 0.59712 0.80259 0.0
H272 H 0.13236 0.55822 0.80948 0.0
H273 H 0.27125 0.47792 0.93333 0.0
H274 H 0.26909 0.49208 0.87221 0.0
H275 H 0.153 0.50553 0.88061 0.0
H276 H 0.15477 0.49114 0.94174 0.0
H277 H 0.18786 0.5397 0.84997 0.0
H278 H 0.18283 0.46182 0.83212 0.0
H279 H 0.20315 0.42343 0.83987 0.0
H280 H 0.30718 0.43913 0.79426 0.0
H281 H 0.28767 0.4777 0.78669 0.0
C282 C 0.18448 0.55404 0.67444 0.0
C283 C 0.21802 0.55318 0.65645 0.0
C284 C 0.18198 0.54561 0.70935 0.0
C285 C 0.213 0.53625 0.72709 0.0
C286 C 0.24638 0.5354 0.70909 0.0
C287 C 0.2489 0.54376 0.67437 0.0
C288 C 0.21102 0.5271 0.76419 0.0
C289 C 0.22291 0.50543 0.77048 0.0
C290 C 0.19801 0.53952 0.79331 0.0
C291 C 0.18716 0.56288 0.78919 0.0
C292 C 0.21207 0.57835 0.77589 0.0
C293 C 0.20163 0.60033 0.77197 0.0
C294 C 0.16644 0.60708 0.78153 0.0
C295 C 0.14165 0.59186 0.79513 0.0
C296 C 0.15195 0.56985 0.79907 0.0
C297 C 0.24508 0.48356 0.9222 0.0
C298 C 0.21314 0.4832 0.94278 0.0
C299 C 0.24392 0.49177 0.8871 0.0
C300 C 0.21079 0.49974 0.8715 0.0
C301 C 0.17892 0.49954 0.89196 0.0
C302 C 0.18003 0.49131 0.92707 0.0
C303 C 0.20954 0.5084 0.83399 0.0
C304 C 0.19703 0.52994 0.82763 0.0
C305 C 0.22217 0.49591 0.80479 0.0
C306 C 0.2339 0.47269 0.80913 0.0
C307 C 0.21014 0.45712 0.82398 0.0
C308 C 0.2215 0.43532 0.82831 0.0
C309 C 0.25646 0.42886 0.81764 0.0
C310 C 0.28011 0.44417 0.80254 0.0
C311 C 0.26891 0.46599 0.79819 0.0
H312 H 0.26521 0.41197 0.82102 0.0
H313 H 0.15841 0.62411 0.77848 0.0
H314 H 0.72177 0.48329 0.59736 0.0
H315 H 0.72534 0.49883 0.6575 0.0
H316 H 0.84116 0.51182 0.64574 0.0
H317 H 0.83795 0.49577 0.58546 0.0
H318 H 0.82694 0.49483 0.71225 0.0
H319 H 0.77785 0.55211 0.63656 0.0
H320 H 0.73483 0.56905 0.5923 0.0
H321 H 0.64501 0.55885 0.66273 0.0
H322 H 0.68723 0.54121 0.70695 0.0
H323 H 0.83496 0.56124 0.87206 0.0
H324 H 0.84069 0.54834 0.8101 0.0
H325 H 0.72321 0.5376 0.80252 0.0
H326 H 0.71726 0.55064 0.86337 0.0
H327 H 0.7436 0.55591 0.74393 0.0
H328 H 0.78713 0.49504 0.81511 0.0
H329 H 0.82664 0.47611 0.86027 0.0
H330 H 0.9225 0.49139 0.80028 0.0
H331 H 0.88357 0.51069 0.75497 0.0
C332 C 0.74818 0.48915 0.60757 0.0
C333 C 0.77964 0.48817 0.58637 0.0
C334 C 0.75008 0.49828 0.64198 0.0
C335 C 0.78342 0.50678 0.65616 0.0
C336 C 0.81507 0.50547 0.63542 0.0
C337 C 0.81315 0.49641 0.60084 0.0
C338 C 0.78499 0.51712 0.69248 0.0
C339 C 0.80915 0.50844 0.719 0.0
C340 C 0.7612 0.53457 0.7017 0.0
C341 C 0.7357 0.54507 0.67493 0.0
C342 C 0.74884 0.5532 0.64243 0.0
C343 C 0.72457 0.56293 0.61733 0.0
C344 C 0.68714 0.56487 0.62458 0.0
C345 C 0.67392 0.55714 0.65699 0.0
C346 C 0.69801 0.54727 0.68208 0.0
C347 C 0.81037 0.55622 0.85711 0.0
C348 C 0.77565 0.55707 0.87295 0.0
C349 C 0.81369 0.54871 0.8217 0.0
C350 C 0.7824 0.54178 0.80148 0.0
C351 C 0.74781 0.54288 0.81725 0.0
C352 C 0.74449 0.55037 0.85234 0.0
C353 C 0.785 0.53334 0.76397 0.0
C354 C 0.76165 0.54242 0.73714 0.0
C355 C 0.80903 0.51603 0.75466 0.0
C356 C 0.83251 0.50455 0.78191 0.0
C357 C 0.81668 0.49454 0.81172 0.0
C358 C 0.83895 0.48371 0.83731 0.0
C359 C 0.87707 0.48262 0.83321 0.0
C360 C 0.89298 0.49231 0.80346 0.0
C361 C 0.87083 0.50318 0.77782 0.0
H362 H 0.89427 0.47421 0.85304 0.0
H363 H 0.66841 0.57246 0.60516 0.0
H364 H 0.82491 0.44105 0.35956 0.0
H365 H 0.8288 0.45419 0.29766 0.0
H366 H 0.73625 0.49721 0.31373 0.0
H367 H 0.73157 0.48376 0.37479 0.0
H368 H 0.72624 0.47846 0.2531 0.0
H369 H 0.82966 0.51518 0.30949 0.0
H370 H 0.88841 0.51829 0.34403 0.0
H371 H 0.94218 0.47847 0.26637 0.0
H372 H 0.88357 0.47485 0.23161 0.0
H373 H 0.73605 0.54769 0.1036 0.0
H374 H 0.73967 0.53328 0.16395 0.0
H375 H 0.8267 0.48929 0.13438 0.0
H376 H 0.82463 0.50443 0.07366 0.0
H377 H 0.84093 0.5061 0.1998 0.0
H378 H 0.73548 0.47088 0.14276 0.0
H379 H 0.67658 0.4704 0.10798 0.0
H380 H 0.62645 0.51031 0.18782 0.0
H381 H 0.68509 0.51111 0.22299 0.0
C382 C 0.80562 0.45345 0.34998 0.0
C383 C 0.77796 0.46131 0.37231 0.0
C384 C 0.80791 0.46102 0.31452 0.0
C385 C 0.78296 0.47689 0.30077 0.0
C386 C 0.75576 0.48493 0.32334 0.0
C387 C 0.75322 0.47724 0.35848 0.0
C388 C 0.78417 0.4848 0.26277 0.0
C389 C 0.75134 0.48469 0.24172 0.0
C390 C 0.81694 0.49252 0.24719 0.0
C391 C 0.85212 0.49452 0.26819 0.0
C392 C 0.85392 0.50691 0.29996 0.0
C393 C 0.88721 0.5088 0.31954 0.0
C394 C 0.91897 0.49852 0.30747 0.0
C395 C 0.91753 0.48637 0.27574 0.0
C396 C 0.88429 0.4844 0.25608 0.0
C397 C 0.75647 0.5352 0.10951 0.0
C398 C 0.77994 0.52727 0.08294 0.0
C399 C 0.75813 0.52672 0.14435 0.0
C400 C 0.78285 0.50979 0.15376 0.0
C401 C 0.80709 0.5022 0.12781 0.0
C402 C 0.80565 0.5108 0.09287 0.0
C403 C 0.783 0.50001 0.19056 0.0
C404 C 0.81599 0.4997 0.21126 0.0
C405 C 0.75032 0.49211 0.20602 0.0
C406 C 0.71475 0.49116 0.18537 0.0
C407 C 0.71191 0.4796 0.15284 0.0
C408 C 0.67857 0.47926 0.13307 0.0
C409 C 0.64783 0.49038 0.14562 0.0
C410 C 0.65032 0.50178 0.17806 0.0
C411 C 0.68356 0.50209 0.198 0.0
H412 H 0.62205 0.49011 0.13027 0.0
H413 H 0.94472 0.50002 0.32265 0.0
H414 H 0.15502 0.44009 0.17035 0.0
H415 H 0.14933 0.4537 0.23178 0.0
H416 H 0.24155 0.4971 0.21689 0.0
H417 H 0.24781 0.48337 0.15622 0.0
H418 H 0.25068 0.47704 0.27783 0.0
H419 H 0.14926 0.51504 0.21913 0.0
H420 H 0.09119 0.51845 0.18355 0.0
H421 H 0.03516 0.47948 0.26083 0.0
H422 H 0.09307 0.47556 0.29663 0.0
H423 H 0.24276 0.54829 0.42258 0.0
H424 H 0.23642 0.53371 0.36266 0.0
H425 H 0.15175 0.4894 0.39652 0.0
H426 H 0.15668 0.50455 0.45711 0.0
H427 H 0.13612 0.5068 0.32871 0.0
H428 H 0.23818 0.46838 0.38639 0.0
H429 H 0.29519 0.46757 0.42408 0.0
H430 H 0.34875 0.50943 0.34906 0.0
H431 H 0.29207 0.51042 0.31092 0.0
C432 C 0.17377 0.45273 0.18004 0.0
C433 C 0.20188 0.46058 0.15822 0.0
C434 C 0.17048 0.46053 0.21522 0.0
C435 C 0.19495 0.47653 0.22916 0.0
C436 C 0.22243 0.48469 0.20703 0.0
C437 C 0.22587 0.47684 0.17214 0.0
C438 C 0.19319 0.48436 0.26704 0.0
C439 C 0.22559 0.48369 0.28866 0.0
C440 C 0.16037 0.49255 0.28192 0.0
C441 C 0.12561 0.49478 0.26033 0.0
C442 C 0.12464 0.50702 0.22836 0.0
C443 C 0.09174 0.50908 0.20819 0.0
C444 C 0.05954 0.49912 0.21985 0.0
C445 C 0.06015 0.48713 0.25178 0.0
C446 C 0.093 0.48499 0.27202 0.0
C447 C 0.22231 0.53569 0.41785 0.0
C448 C 0.20061 0.52754 0.44565 0.0
C449 C 0.21895 0.52719 0.38317 0.0
C450 C 0.19419 0.5101 0.37511 0.0
C451 C 0.17132 0.50246 0.40212 0.0
C452 C 0.17448 0.51107 0.43698 0.0
C453 C 0.19363 0.4998 0.33884 0.0
C454 C 0.16096 0.49993 0.31772 0.0
C455 C 0.22613 0.49113 0.32424 0.0
C456 C 0.26092 0.48953 0.34592 0.0
C457 C 0.2622 0.47734 0.37791 0.0
C458 C 0.29442 0.47685 0.39935 0.0
C459 C 0.32554 0.48849 0.38906 0.0
C460 C 0.32465 0.50042 0.35704 0.0
C461 C 0.29253 0.50087 0.33541 0.0
H462 H 0.35024 0.48831 0.406 0.0
H463 H 0.03409 0.50076 0.20421 0.0
H464 H 0.70013 0.96129 0.92927 0.0
H465 H 0.69548 0.97477 0.86758 0.0
H466 H 0.68725 0.04119 0.90648 0.0
H467 H 0.69119 0.0277 0.96821 0.0
H468 H 0.6434 0.03706 0.85007 0.0
H469 H 0.76961 0.01932 0.87653 0.0
H470 H 0.82165 0.99589 0.89681 0.0
H471 H 0.79634 0.95012 0.81224 0.0
H472 H 0.74377 0.97311 0.79181 0.0
H473 H 0.75547 0.06427 0.67853 0.0
H474 H 0.7507 0.05238 0.74038 0.0
H475 H 0.63698 0.03443 0.72 0.0
H476 H 0.64139 0.04697 0.65772 0.0
H477 H 0.74129 0.01469 0.76763 0.0
H478 H 0.5898 0.03612 0.79852 0.0
H479 H 0.54262 0.06372 0.78154 0.0
H480 H 0.62753 0.10968 0.75571 0.0
H481 H 0.67519 0.08247 0.77296 0.0
C482 C 0.69721 0.97876 0.92468 0.0
C483 C 0.69631 0.99338 0.95379 0.0
C484 C 0.69458 0.98648 0.88934 0.0
C485 C 0.69166 0.0091 0.88211 0.0
C486 C 0.68947 0.02368 0.91115 0.0
C487 C 0.6917 0.01593 0.94655 0.0
C488 C 0.69246 0.01758 0.84446 0.0
C489 C 0.66473 0.03209 0.83202 0.0
C490 C 0.7207 0.01159 0.82089 0.0
C491 C 0.75253 0.99783 0.83287 0.0
C492 C 0.775 1.00419 0.86241 0.0
C493 C 0.8046 0.991 0.87391 0.0
C494 C 0.81224 0.97151 0.85587 0.0
C495 C 0.79035 0.96521 0.82622 0.0
C496 C 0.76066 0.97831 0.81466 0.0
C497 C 0.72924 0.05797 0.68712 0.0
C498 C 0.69879 0.05656 0.66294 0.0
C499 C 0.72661 0.05106 0.72266 0.0
C500 C 0.69352 0.04242 0.73523 0.0
C501 C 0.66276 0.04128 0.71132 0.0
C502 C 0.66529 0.04844 0.67562 0.0
C503 C 0.69205 0.0341 0.77299 0.0
C504 C 0.71972 0.01957 0.7855 0.0
C505 C 0.66445 0.04064 0.79689 0.0
C506 C 0.63602 0.05715 0.78662 0.0
C507 C 0.59838 0.05213 0.78929 0.0
C508 C 0.57156 0.06771 0.77961 0.0
C509 C 0.58207 0.08841 0.76742 0.0
C510 C 0.61943 0.09361 0.765 0.0
C511 C 0.64635 0.07811 0.77468 0.0
H512 H 0.56127 0.10044 0.75994 0.0
H513 H 0.83516 0.96131 0.86482 0.0
H514 H 0.33805 0.071 0.85816 0.0
H515 H 0.34409 0.05713 0.7967 0.0
H516 H 0.24449 0.01936 0.80732 0.0
H517 H 0.23844 0.03281 0.86802 0.0
H518 H 0.29597 0.99539 0.77602 0.0
H519 H 0.24412 0.06791 0.76235 0.0
H520 H 0.24252 0.1081 0.77005 0.0
H521 H 0.34396 0.11411 0.71441 0.0
H522 H 0.3464 0.07389 0.70682 0.0
H523 H 0.23358 0.97182 0.59997 0.0
H524 H 0.23982 0.98659 0.66051 0.0
H525 H 0.33953 0.02007 0.63224 0.0
H526 H 0.33287 1.00587 0.57109 0.0
H527 H 0.29621 0.04626 0.67225 0.0
H528 H 0.34378 0.973 0.68122 0.0
H529 H 0.34281 0.93284 0.67303 0.0
H530 H 0.24709 0.92815 0.73754 0.0
H531 H 0.24716 0.96833 0.7457 0.0
C532 C 0.31765 0.05961 0.84743 0.0
C533 C 0.28772 0.05312 0.86809 0.0
C534 C 0.32101 0.05178 0.81225 0.0
C535 C 0.29458 0.03728 0.79723 0.0
C536 C 0.26528 0.03047 0.8182 0.0
C537 C 0.26181 0.03831 0.85301 0.0
C538 C 0.29651 0.02927 0.75959 0.0
C539 C 0.29586 1.00653 0.75335 0.0
C540 C 0.29712 0.04374 0.7299 0.0
C541 C 0.2957 0.06789 0.73443 0.0
C542 C 0.26626 0.07779 0.75205 0.0
C543 C 0.26516 0.10057 0.75633 0.0
C544 C 0.29319 0.11365 0.74284 0.0
C545 C 0.32231 0.10396 0.72493 0.0
C546 C 0.32357 0.08117 0.72062 0.0
C547 C 0.25663 0.98252 0.60634 0.0
C548 C 0.28277 0.98756 0.58044 0.0
C549 C 0.26039 0.9908 0.6412 0.0
C550 C 0.29046 1.00421 0.65119 0.0
C551 C 0.3162 0.00967 0.62528 0.0
C552 C 0.3125 1.00137 0.59036 0.0
C553 C 0.29499 0.01238 0.68873 0.0
C554 C 0.29685 0.03511 0.69492 0.0
C555 C 0.29525 0.99791 0.71844 0.0
C556 C 0.29533 0.97371 0.71385 0.0
C557 C 0.32238 0.96343 0.69347 0.0
C558 C 0.32201 0.94065 0.68885 0.0
C559 C 0.29487 0.92796 0.70469 0.0
C560 C 0.26809 0.938 0.72526 0.0
C561 C 0.26831 0.96077 0.72993 0.0
H562 H 0.29462 0.91033 0.70108 0.0
H563 H 0.29228 0.13128 0.74616 0.0
H564 H 0.26376 0.05575 0.10381 0.0
H565 H 0.26688 0.04184 0.16522 0.0
H566 H 0.3121 0.98083 0.12782 0.0
H567 H 0.308 0.99435 0.06626 0.0
H568 H 0.25868 0.9735 0.17508 0.0
H569 H 0.36659 0.01953 0.171 0.0
H570 H 0.40035 0.05391 0.16016 0.0
H571 H 0.33593 0.08705 0.23821 0.0
H572 H 0.30144 0.05293 0.24918 0.0
H573 H 0.31521 0.93152 0.34633 0.0
H574 H 0.31945 0.94643 0.28548 0.0
H575 H 0.26353 1.00524 0.31818 0.0
H576 H 0.25864 0.99035 0.37868 0.0
H577 H 0.324 0.01351 0.27371 0.0
H578 H 0.21411 0.97055 0.27594 0.0
H579 H 0.17661 0.93774 0.28745 0.0
H580 H 0.24058 0.90053 0.21394 0.0
H581 H 0.2788 0.93315 0.20226 0.0
C582 C 0.27424 0.03934 0.10855 0.0
C583 C 0.28566 0.02624 0.07988 0.0
C584 C 0.27632 0.03146 0.14381 0.0
C585 C 0.29009 0.01033 0.15131 0.0
C586 C 0.30149 0.9972 0.12279 0.0
C587 C 0.29944 1.00507 0.08754 0.0
C588 C 0.29195 1.00175 0.18876 0.0
C589 C 0.27355 0.98207 0.19646 0.0
C590 C 0.31032 0.01323 0.21706 0.0
C591 C 0.33123 0.03372 0.21068 0.0
C592 C 0.35946 0.03419 0.18568 0.0
C593 C 0.37875 0.05362 0.17954 0.0
C594 C 0.37024 0.07267 0.19843 0.0
C595 C 0.34248 0.0723 0.22357 0.0
C596 C 0.32308 0.0529 0.22979 0.0
C597 C 0.30439 0.94777 0.3407 0.0
C598 C 0.28657 0.95973 0.36733 0.0
C599 C 0.30663 0.95622 0.30588 0.0
C600 C 0.29159 0.9769 0.29725 0.0
C601 C 0.27534 0.98927 0.32422 0.0
C602 C 0.27251 0.9807 0.35878 0.0
C603 C 0.29112 0.98522 0.25976 0.0
C604 C 0.30954 1.00486 0.25215 0.0
C605 C 0.2724 0.97388 0.23163 0.0
C606 C 0.24962 0.95421 0.23858 0.0
C607 C 0.22043 0.95532 0.2625 0.0
C608 C 0.19898 0.93677 0.269 0.0
C609 C 0.20628 0.91703 0.25157 0.0
C610 C 0.235 0.91583 0.22749 0.0
C611 C 0.25656 0.93435 0.22089 0.0
H612 H 0.18962 0.90269 0.25663 0.0
H613 H 0.3852 0.0877 0.19363 0.0
H614 H 0.64936 0.00995 0.45784 0.0
H615 H 0.64461 0.99651 0.39599 0.0
H616 H 0.75334 0.0217 0.37665 0.0
H617 H 0.758 0.03526 0.43796 0.0
H618 H 0.71059 0.03121 0.322 0.0
H619 H 0.73428 0.96541 0.39005 0.0
H620 H 0.72312 0.93773 0.43671 0.0
H621 H 0.61655 0.92393 0.38892 0.0
H622 H 0.6269 0.95175 0.34221 0.0
H623 H 0.76296 0.97293 0.16951 0.0
H624 H 0.75637 0.98553 0.23076 0.0
H625 H 0.64247 0.96534 0.22765 0.0
H626 H 0.6488 0.95253 0.16563 0.0
H627 H 0.68052 0.95378 0.29229 0.0
H628 H 0.661 0.01824 0.2207 0.0
H629 H 0.67533 0.04507 0.17365 0.0
H630 H 0.77771 0.06067 0.22841 0.0
H631 H 0.76424 0.03369 0.27554 0.0
C632 C 0.67229 0.01253 0.44043 0.0
C633 C 0.70395 0.02383 0.45301 0.0
C634 C 0.6696 1.00479 0.40501 0.0
C635 C 0.69874 0.00787 0.38144 0.0
C636 C 0.73031 0.01918 0.39402 0.0
C637 C 0.7329 0.02703 0.42924 0.0
C638 C 0.69659 0.9996 0.34362 0.0
C639 C 0.70432 0.01422 0.31568 0.0
C640 C 0.68746 0.97755 0.33487 0.0
C641 C 0.68119 0.96084 0.3629 0.0
C642 C 0.70835 0.9566 0.38967 0.0
C643 C 0.70219 0.94086 0.41609 0.0
C644 C 0.6691 0.92913 0.41585 0.0
C645 C 0.64213 0.93306 0.38912 0.0
C646 C 0.64814 0.9488 0.36265 0.0
C647 C 0.73638 0.97108 0.18163 0.0
C648 C 0.70631 0.96176 0.1623 0.0
C649 C 0.73267 0.97839 0.2168 0.0
C650 C 0.69882 0.97666 0.23382 0.0
C651 C 0.66886 0.96693 0.21507 0.0
C652 C 0.67249 0.95967 0.17956 0.0
C653 C 0.69518 0.98532 0.27101 0.0
C654 C 0.68638 0.97081 0.29873 0.0
C655 C 0.70368 1.00742 0.27966 0.0
C656 C 0.71171 0.02382 0.25153 0.0
C657 C 0.68668 0.02728 0.22259 0.0
C658 C 0.69464 0.04254 0.19592 0.0
C659 C 0.72744 0.05454 0.19801 0.0
C660 C 0.75231 0.05135 0.22682 0.0
C661 C 0.74451 0.0361 0.25355 0.0
H662 H 0.73355 0.06633 0.17733 0.0
H663 H 0.66439 0.91695 0.43633 0.0
H664 H 0.37324 0.43393 1.01336 0.0
H665 H 0.4374 0.44524 1.00537 0.0
H666 H 0.40916 0.51167 0.03333 0.0
H667 H 0.34522 0.50044 0.04221 0.0
H668 H 0.46035 0.50077 0.96609 0.0
H669 H 0.44788 0.49493 0.09982 0.0
H670 H 0.42927 0.47421 0.1528 0.0
H671 H 0.48983 0.418 0.11747 0.0
H672 H 0.50945 0.43877 0.0644 0.0
H673 H 0.60954 0.56482 0.02463 0.0
H674 H 0.55165 0.54473 0.03173 0.0
H675 H 0.60721 0.48377 1.01012 0.0
H676 H 0.6649 0.50392 1.00156 0.0
H677 H 0.54612 0.48613 0.06963 0.0
H678 H 0.57291 0.49381 0.94648 0.0
H679 H 0.59463 0.51295 0.89294 0.0
H680 H 0.50742 0.56019 0.90131 0.0
H681 H 0.48602 0.54179 0.95573 0.0
C682 C 0.38054 0.45105 0.01696 0.0
C683 C 0.35434 0.46636 0.0283 0.0
C684 C 0.41715 0.45741 1.01259 0.0
C685 C 0.42774 0.47922 0.01888 0.0
C686 C 0.40127 0.49477 0.02833 0.0
C687 C 0.36486 0.48835 0.03333 0.0
C688 C 0.46684 0.48567 0.01801 0.0
C689 C 0.47914 0.4976 0.98864 0.0
C690 C 0.49156 0.4808 0.04683 0.0
C691 C 0.47976 0.46825 0.07824 0.0
C692 C 0.45703 0.47811 0.10335 0.0
C693 C 0.44636 0.46635 0.1334 0.0
C694 C 0.45799 0.44465 0.1384 0.0
C695 C 0.48071 0.43476 0.11349 0.0
C696 C 0.49176 0.44655 0.08352 0.0
C697 C 0.60962 0.54707 0.02264 0.0
C698 C 0.64137 0.53583 1.01253 0.0
C699 C 0.57662 0.53566 0.02646 0.0
C700 C 0.57536 0.51288 0.02105 0.0
C701 C 0.60784 0.50137 0.01431 0.0
C702 C 0.64062 0.51285 1.00948 0.0
C703 C 0.53937 0.50176 0.01812 0.0
C704 C 0.52762 0.48899 0.04674 0.0
C705 C 0.5155 0.50532 0.98805 0.0
C706 C 0.52829 0.51666 0.95556 0.0
C707 C 0.55879 0.50853 0.93731 0.0
C708 C 0.57102 0.51921 0.90677 0.0
C709 C 0.55261 0.53785 0.8939 0.0
C710 C 0.52187 0.54584 0.91147 0.0
C711 C 0.50971 0.53532 0.94223 0.0
H712 H 0.56215 0.54598 0.8702 0.0
H713 H 0.44958 0.4355 0.1616 0.0
H714 H 0.65295 0.50775 0.50252 0.0
H715 H 0.5906 0.52247 0.50872 0.0
H716 H 0.54952 0.45706 0.52645 0.0
H717 H 0.61205 0.44231 0.52129 0.0
H718 H 0.51886 0.48214 0.46392 0.0
H719 H 0.54156 0.4871 0.59057 0.0
H720 H 0.5767 0.49765 0.64535 0.0
H721 H 0.56502 0.56571 0.61737 0.0
H722 H 0.5303 0.55556 0.56199 0.0
H723 H 0.33318 0.50742 0.51562 0.0
H724 H 0.39543 0.4933 0.50625 0.0
H725 H 0.43407 0.55921 0.48827 0.0
H726 H 0.37158 0.57334 0.49636 0.0
H727 H 0.46641 0.53449 0.55047 0.0
H728 H 0.44947 0.53111 0.4238 0.0
H729 H 0.42122 0.52219 0.36475 0.0
H730 H 0.42413 0.45357 0.39096 0.0
H731 H 0.45287 0.46206 0.44999 0.0
C732 C 0.63079 0.49666 0.50904 0.0
C733 C 0.63707 0.47397 0.51154 0.0
C734 C 0.59531 0.50505 0.51248 0.0
C735 C 0.56568 0.49078 0.5178 0.0
C736 C 0.57223 0.46825 0.52242 0.0
C737 C 0.60789 0.4599 0.51978 0.0
C738 C 0.52766 0.49911 0.51403 0.0
C739 C 0.50702 0.49325 0.48317 0.0
C740 C 0.51322 0.51431 0.53844 0.0
C741 C 0.53375 0.52054 0.57186 0.0
C742 C 0.5468 0.50431 0.59586 0.0
C743 C 0.56656 0.51021 0.62706 0.0
C744 C 0.57321 0.53231 0.63469 0.0
C745 C 0.55991 0.54859 0.61131 0.0
C746 C 0.54016 0.54277 0.58002 0.0
C747 C 0.35467 0.51874 0.50815 0.0
C748 C 0.34781 0.54139 0.50663 0.0
C749 C 0.39012 0.5107 0.50289 0.0
C750 C 0.41917 0.52529 0.49686 0.0
C751 C 0.41184 0.54777 0.4928 0.0
C752 C 0.37616 0.55576 0.49714 0.0
C753 C 0.45749 0.51738 0.50045 0.0
C754 C 0.47819 0.52331 0.5313 0.0
C755 C 0.47219 0.50242 0.47588 0.0
C756 C 0.453 0.49723 0.44139 0.0
C757 C 0.44375 0.51413 0.41709 0.0
C758 C 0.42801 0.50914 0.38349 0.0
C759 C 0.4213 0.48732 0.37395 0.0
C760 C 0.42982 0.47044 0.39817 0.0
C761 C 0.44591 0.47532 0.43168 0.0
H762 H 0.40923 0.48356 0.34789 0.0
H763 H 0.58867 0.53679 0.65872 0.0
H764 H 0.14813 0.00828 0.96351 0.0
H765 H 0.08502 0.99534 0.96763 0.0
H766 H 0.06003 0.04983 0.03662 0.0
H767 H 0.12328 0.06343 0.03151 0.0
H768 H 0.04219 0.98211 0.01758 0.0
H769 H 0.97231 0.06713 0.01841 0.0
H770 H 0.98519 0.10518 0.99995 0.0
H771 H 0.05515 0.08161 0.91771 0.0
H772 H 0.04236 0.04332 0.93528 0.0
H773 H 0.85597 0.997 0.0749 0.0
H774 H 0.91764 0.0091 0.06008 0.0
H775 H 0.90492 0.97951 0.95563 0.0
H776 H 0.84326 0.96619 0.97101 0.0
H777 H 0.94047 0.03334 0.98405 0.0
H778 H 0.95182 0.95288 0.9699 0.0
H779 H 0.94101 0.91467 0.98867 0.0
H780 H 0.99299 0.92809 0.09106 0.0
H781 H 0.00197 0.96667 0.07356 0.0
C782 C 0.12943 0.01738 0.98005 0.0
C783 C 0.14054 0.03701 0.99692 0.0
C784 C 0.0933 0.00994 0.98233 0.0
C785 C 0.06757 0.02191 1.00167 0.0
C786 C 0.07925 0.04066 0.02078 0.0
C787 C 0.11548 0.04825 0.01824 0.0
C788 C 0.0284 0.015 1.00058 0.0
C789 C 0.02004 0.99328 1.00981 0.0
C790 C -0.00053 0.0295 0.99011 0.0
C791 C 0.0066 0.05236 0.97843 0.0
C792 C 0.99026 0.07004 0.99623 0.0
C793 C -0.00241 0.09163 0.98594 0.0
C794 C 0.02111 0.09576 0.95776 0.0
C795 C 0.03708 0.07831 0.93959 0.0
C796 C 0.02982 0.05667 0.94972 0.0
C797 C 0.86596 0.99327 0.04854 0.0
C798 C 0.84491 0.98054 0.02411 0.0
C799 C 0.90127 1.00014 0.04023 0.0
C800 C 0.91592 0.99477 1.00715 0.0
C801 C 0.8942 0.98332 0.98165 0.0
C802 C 0.85902 0.9759 0.99032 0.0
C803 C 0.95462 1.00051 1.0007 0.0
C804 C 0.96284 0.02211 0.99082 0.0
C805 C 0.98354 0.98581 1.0098 0.0
C806 C 0.97652 0.96285 0.02084 0.0
C807 C 0.9598 0.94787 0.99683 0.0
C808 C 0.95409 0.92611 1.0072 0.0
C809 C 0.9658 0.91901 0.04126 0.0
C810 C 0.98331 0.93367 0.06494 0.0
C811 C 0.98847 0.95552 0.0549 0.0
H812 H 0.96163 0.90212 0.04917 0.0
H813 H 0.02697 0.11249 0.95006 0.0
H814 H 0.85767 0.02922 0.59265 0.0
H815 H 0.92056 0.01681 0.58333 0.0
H816 H 0.91079 0.03588 0.47227 0.0
H817 H 0.84763 0.04926 0.48173 0.0
H818 H 0.9383 0.98782 0.49833 0.0
H819 H 0.95521 0.06609 0.50716 0.0
H820 H 0.94927 0.1024 0.53527 0.0
H821 H 0.01249 0.08011 0.62716 0.0
H822 H 0.01748 0.04327 0.60031 0.0
H823 H 0.12844 0.99255 0.44481 0.0
H824 H 0.06721 1.00633 0.45848 0.0
H825 H 0.0744 0.97489 0.56189 0.0
H826 H 0.13552 0.96014 0.54774 0.0
H827 H 0.0486 0.02924 0.54175 0.0
H828 H 0.02335 0.95089 0.53993 0.0
H829 H 0.02388 0.91297 0.51708 0.0
H830 H 0.97437 0.93478 0.41739 0.0
H831 H 0.97492 0.97296 0.43923 0.0
C832 C 0.86871 0.03064 0.56611 0.0
C833 C 0.84776 0.04 0.53772 0.0
C834 C 0.90474 0.02374 0.56101 0.0
C835 C 0.92021 0.02573 0.52733 0.0
C836 C 0.89915 0.03447 0.49855 0.0
C837 C 0.86323 0.04197 0.50389 0.0
C838 C 0.95806 0.01783 0.52234 0.0
C839 C 0.96248 0.99698 0.50737 0.0
C840 C 0.98923 0.02955 0.53559 0.0
C841 C 0.98593 0.05167 0.55201 0.0
C842 C 0.96709 0.0687 0.53373 0.0
C843 C 0.96399 0.08942 0.54941 0.0
C844 C 0.9802 0.09348 0.58313 0.0
C845 C -0.00038 0.07684 0.6012 0.0
C846 C 0.00249 0.05601 0.58579 0.0
C847 C 0.11717 0.9887 0.47061 0.0
C848 C 0.13666 0.97531 0.4953 0.0
C849 C 0.08217 0.99649 0.47826 0.0
C850 C 0.06632 0.99137 0.51092 0.0
C851 C 0.08617 0.97872 0.53631 0.0
C852 C 0.12098 0.9704 0.5283 0.0
C853 C 0.02874 0.99923 0.51772 0.0
C854 C 0.02437 0.0201 0.53285 0.0
C855 C -0.00256 0.98742 0.50527 0.0
C856 C 7e-05 0.96485 0.49089 0.0
C857 C 0.01366 0.9477 0.51275 0.0
C858 C 0.01355 0.92613 0.50006 0.0
C859 C -0.00064 0.92146 0.46575 0.0
C860 C 0.98563 0.93841 0.44388 0.0
C861 C 0.986 0.96003 0.45633 0.0
H862 H -0.00127 0.90468 0.45625 0.0
H863 H 0.97795 0.10957 0.59515 0.0
H864 H 0.19252 0.34773 0.99789 0.0
H865 H 0.19771 0.30837 0.98649 0.0
H866 H 0.26627 0.30105 0.08208 0.0
H867 H 0.26263 0.34047 0.09276 0.0
H868 H 0.29589 0.27972 0.02899 0.0
H869 H 0.17478 0.28312 0.0769 0.0
H870 H 0.11075 0.29624 0.08134 0.0
H871 H 0.08632 0.27429 0.97402 0.0
H872 H 0.15036 0.2613 0.96877 0.0
H873 H 0.29108 0.16262 0.03704 0.0
H874 H 0.28559 0.20195 0.04894 0.0
H875 H 0.21956 0.20985 0.95186 0.0
H876 H 0.22384 0.1705 0.94043 0.0
H877 H 0.18862 0.23079 1.00587 0.0
H878 H 0.30986 0.22745 0.95808 0.0
H879 H 0.37387 0.2143 0.95381 0.0
H880 H 0.39798 0.23606 0.06129 0.0
H881 H 0.33394 0.24908 0.06638 0.0
C882 C 0.20866 0.33777 0.01656 0.0
C883 C 0.22705 0.3474 0.04634 0.0
C884 C 0.21135 0.31517 1.01016 0.0
C885 C 0.23217 0.3016 0.03356 0.0
C886 C 0.24999 0.3111 0.06363 0.0
C887 C 0.24746 0.33369 0.06996 0.0
C888 C 0.23658 0.27769 0.02605 0.0
C889 C 0.27238 0.26897 0.02447 0.0
C890 C 0.20602 0.26368 0.01921 0.0
C891 C 0.16747 0.27143 0.02233 0.0
C892 C 0.15583 0.28125 0.05415 0.0
C893 C 0.11952 0.28863 0.05683 0.0
C894 C 0.09451 0.28615 0.02795 0.0
C895 C 0.10573 0.27623 0.99635 0.0
C896 C 0.14203 0.26883 0.99352 0.0
C897 C 0.27547 0.17272 0.01815 0.0
C898 C 0.25807 0.16331 0.98767 0.0
C899 C 0.27257 0.19527 0.02486 0.0
C900 C 0.25235 0.20897 1.00118 0.0
C901 C 0.23535 0.19967 0.97053 0.0
C902 C 0.23823 0.17715 0.9638 0.0
C903 C 0.24791 0.23284 1.00885 0.0
C904 C 0.21211 0.24155 1.01044 0.0
C905 C 0.27845 0.24683 0.01575 0.0
C906 C 0.31699 0.23904 1.01273 0.0
C907 C 0.32872 0.22927 0.98091 0.0
C908 C 0.36503 0.22187 0.97832 0.0
C909 C 0.38995 0.22428 1.00729 0.0
C910 C 0.37864 0.23417 0.03888 0.0
C911 C 0.34235 0.24158 0.04163 0.0
H912 H 0.41805 0.21855 1.00523 0.0
H913 H 0.06641 0.29187 0.03007 0.0
H914 H 0.70909 0.35207 0.5309 0.0
H915 H 0.70431 0.31255 0.53965 0.0
H916 H 0.78813 0.30205 0.46187 0.0
H917 H 0.79247 0.34185 0.45244 0.0
H918 H 0.73485 0.27356 0.45134 0.0
H919 H 0.80535 0.29658 0.55495 0.0
H920 H 0.81957 0.31872 0.60886 0.0
H921 H 0.72076 0.29563 0.65698 0.0
H922 H 0.70569 0.27358 0.60315 0.0
H923 H 0.77163 0.16247 0.49739 0.0
H924 H 0.77501 0.20191 0.48757 0.0
H925 H 0.6853 0.21187 0.559 0.0
H926 H 0.68136 0.17212 0.56874 0.0
H927 H 0.74149 0.24044 0.57277 0.0
H928 H 0.67195 0.21699 0.46836 0.0
H929 H 0.65925 0.19457 0.41446 0.0
H930 H 0.75858 0.21818 0.36797 0.0
H931 H 0.77215 0.24053 0.42183 0.0
C932 C 0.72695 0.3414 0.516 0.0
C933 C 0.7516 0.35018 0.49134 0.0
C934 C 0.72416 0.31874 0.52103 0.0
C935 C 0.74636 0.30419 0.50199 0.0
C936 C 0.77078 0.31288 0.47704 0.0
C937 C 0.7733 0.33563 0.47168 0.0
C938 C 0.7434 0.27998 0.50768 0.0
C939 C 0.73688 0.26632 0.47787 0.0
C940 C 0.74512 0.27044 0.54236 0.0
C941 C 0.75423 0.28358 0.57487 0.0
C942 C 0.78653 0.29634 0.57692 0.0
C943 C 0.79476 0.30886 0.60748 0.0
C944 C 0.77104 0.30862 0.63629 0.0
C945 C 0.73909 0.29581 0.63463 0.0
C946 C 0.73071 0.28328 0.60412 0.0
C947 C 0.75199 0.17291 0.5105 0.0
C948 C 0.72581 0.16394 0.53351 0.0
C949 C 0.75413 0.19556 0.50496 0.0
C950 C 0.73012 0.20992 0.52215 0.0
C951 C 0.70409 0.20113 0.54535 0.0
C952 C 0.70189 0.17839 0.55092 0.0
C953 C 0.73294 0.2341 0.51646 0.0
C954 C 0.73945 0.24773 0.54627 0.0
C955 C 0.73146 0.24359 0.48179 0.0
C956 C 0.72322 0.23029 0.44927 0.0
C957 C 0.69122 0.21728 0.44675 0.0
C958 C 0.68385 0.2046 0.41619 0.0
C959 C 0.70814 0.20491 0.38784 0.0
C960 C 0.73981 0.21794 0.38996 0.0
C961 C 0.74733 0.23064 0.42048 0.0
H962 H 0.70238 0.19508 0.36421 0.0
H963 H 0.77746 0.31832 0.65992 0.0
H964 H 0.68881 0.84602 0.07544 0.0
H965 H 0.69179 0.80623 0.06633 0.0
H966 H 0.77392 0.81547 0.98652 0.0
H967 H 0.77105 0.85507 0.99539 0.0
H968 H 0.72614 0.78554 0.96419 0.0
H969 H 0.79663 0.79832 0.07297 0.0
H970 H 0.80796 0.81212 0.13437 0.0
H971 H 0.72011 0.77182 0.17214 0.0
H972 H 0.70792 0.758 0.11084 0.0
H973 H 0.78927 0.67446 0.95729 0.0
H974 H 0.78631 0.71433 0.96563 0.0
H975 H 0.70196 0.70584 0.04341 0.0
H976 H 0.70448 0.66622 0.03507 0.0
H977 H 0.7514 0.73536 0.06666 0.0
H978 H 0.68104 0.7227 0.95744 0.0
H979 H 0.67034 0.70883 0.89599 0.0
H980 H 0.75887 0.74889 0.85904 0.0
H981 H 0.77044 0.76277 0.9204 0.0
C982 C 0.7075 0.83957 0.05596 0.0
C983 C 0.72953 0.85384 0.03606 0.0
C984 C 0.70924 0.81679 0.0508 0.0
C985 C 0.73341 0.80774 0.02597 0.0
C986 C 0.75496 0.82198 1.00572 0.0
C987 C 0.75312 0.8447 1.01074 0.0
C988 C 0.73662 0.78348 0.02117 0.0
C989 C 0.73211 0.77462 0.98657 0.0
C990 C 0.74379 0.76906 0.05036 0.0
C991 C 0.75113 0.7773 0.08725 0.0
C992 C 0.77955 0.79253 0.09432 0.0
C993 C 0.78615 0.80033 0.12911 0.0
C994 C 0.7647 0.7929 0.15712 0.0
C995 C 0.73666 0.77759 0.15041 0.0
C996 C 0.72991 0.76976 0.11565 0.0
C997 C 0.77002 0.68108 0.97608 0.0
C998 C 0.74732 0.667 0.99565 0.0
C999 C 0.76834 0.70391 0.98084 0.0
C1000 C 0.7437 0.71318 1.00501 0.0
C1001 C 0.72134 0.69915 0.02477 0.0
C1002 C 0.723 0.67641 0.02007 0.0
C1003 C 0.74086 0.73745 1.00971 0.0
C1004 C 0.74544 0.7463 0.04428 0.0
C1005 C 0.73386 0.75185 0.9805 0.0
C1006 C 0.72685 0.7436 0.94358 0.0
C1007 C 0.69841 0.72842 0.93626 0.0
C1008 C 0.69216 0.72058 0.90144 0.0
C1009 C 0.71397 0.72793 0.87365 0.0
C1010 C 0.74203 0.74319 0.88061 0.0
C1011 C 0.74843 0.75106 0.91539 0.0
H1012 H 0.70908 0.72185 0.84671 0.0
H1013 H 0.76986 0.79895 0.18404 0.0
H1014 H 0.21932 0.85416 0.5393 0.0
H1015 H 0.21666 0.81486 0.55133 0.0
H1016 H 0.29109 0.80274 0.4656 0.0
H1017 H 0.29405 0.8422 0.45343 0.0
H1018 H 0.23351 0.77543 0.4614 0.0
H1019 H 0.31917 0.79815 0.55459 0.0
H1020 H 0.34098 0.82031 0.60621 0.0
H1021 H 0.25009 0.79761 0.66733 0.0
H1022 H 0.22744 0.77553 0.61588 0.0
H1023 H 0.27445 0.66449 0.49734 0.0
H1024 H 0.27734 0.7041 0.48931 0.0
H1025 H 0.20349 0.71309 0.57654 0.0
H1026 H 0.20069 0.67312 0.58496 0.0
H1027 H 0.25883 0.74213 0.58088 0.0
H1028 H 0.17346 0.71912 0.48831 0.0
H1029 H 0.15129 0.69697 0.43682 0.0
H1030 H 0.24083 0.72041 0.37459 0.0
H1031 H 0.26385 0.74248 0.42589 0.0
C1032 C 0.23579 0.84323 0.52343 0.0
C1033 C 0.25715 0.85145 0.49552 0.0
C1034 C 0.23411 0.82069 0.5303 0.0
C1035 C 0.25394 0.80577 0.50963 0.0
C1036 C 0.27551 0.8139 0.48192 0.0
C1037 C 0.27716 0.83648 0.47497 0.0
C1038 C 0.25102 0.78168 0.51603 0.0
C1039 C 0.23958 0.76813 0.48741 0.0
C1040 C 0.25776 0.77216 0.55024 0.0
C1041 C 0.27142 0.78535 0.58126 0.0
C1042 C 0.30367 0.79801 0.57894 0.0
C1043 C 0.31622 0.81053 0.60819 0.0
C1044 C 0.29688 0.81041 0.63999 0.0
C1045 C 0.26501 0.79771 0.64266 0.0
C1046 C 0.25233 0.78517 0.61348 0.0
C1047 C 0.25832 0.67482 0.51453 0.0
C1048 C 0.23678 0.66556 0.54141 0.0
C1049 C 0.26009 0.69754 0.50995 0.0
C1050 C 0.24009 0.71165 0.53184 0.0
C1051 C 0.21904 0.70254 0.55918 0.0
C1052 C 0.21743 0.67971 0.56396 0.0
C1053 C 0.24163 0.73587 0.52616 0.0
C1054 C 0.25271 0.74944 0.55489 0.0
C1055 C 0.23447 0.74545 0.49206 0.0
C1056 C 0.22055 0.73232 0.46106 0.0
C1057 C 0.18857 0.71944 0.46373 0.0
C1058 C 0.17583 0.70691 0.43456 0.0
C1059 C 0.19468 0.70725 0.40248 0.0
C1060 C 0.22627 0.72016 0.39947 0.0
C1061 C 0.23915 0.7327 0.42857 0.0
H1062 H 0.18478 0.69753 0.37993 0.0
H1063 H 0.30663 0.82012 0.6626 0.0
H1064 H 0.6068 0.40442 0.34808 0.0
H1065 H 0.55397 0.41129 0.30698 0.0
H1066 H 0.53607 0.47387 0.35753 0.0
H1067 H 0.58987 0.46725 0.39803 0.0
H1068 H 0.47126 0.44086 0.3482 0.0
H1069 H 0.56597 0.47963 0.28509 0.0
H1070 H 0.62763 0.48239 0.25932 0.0
H1071 H 0.60181 0.42885 0.18827 0.0
H1072 H 0.5403 0.42544 0.21409 0.0
H1073 H 0.35954 0.46693 0.17282 0.0
H1074 H 0.40457 0.47478 0.22122 0.0
H1075 H 0.41811 0.40549 0.24065 0.0
H1076 H 0.3734 0.39743 0.19205 0.0
H1077 H 0.4828 0.45105 0.21724 0.0
H1078 H 0.42436 0.40982 0.34374 0.0
H1079 H 0.36421 0.4027 0.37045 0.0
H1080 H 0.31696 0.45736 0.3129 0.0
H1081 H 0.37714 0.46556 0.28732 0.0
C1082 C 0.59181 0.41974 0.34996 0.0
C1083 C 0.60235 0.43541 0.37575 0.0
C1084 C 0.56175 0.42363 0.32665 0.0
C1085 C 0.54132 0.44308 0.32929 0.0
C1086 C 0.55172 0.45882 0.35508 0.0
C1087 C 0.58243 0.45513 0.37789 0.0
C1088 C 0.50857 0.44642 0.30545 0.0
C1089 C 0.47352 0.44347 0.31963 0.0
C1090 C 0.512 0.44961 0.26822 0.0
C1091 C 0.54861 0.45213 0.25185 0.0
C1092 C 0.57353 0.46832 0.26418 0.0
C1093 C 0.60846 0.47001 0.24955 0.0
C1094 C 0.6187 0.4557 0.22235 0.0
C1095 C 0.59389 0.43985 0.20944 0.0
C1096 C 0.55897 0.43805 0.22406 0.0
C1097 C 0.37141 0.45336 0.18788 0.0
C1098 C 0.36331 0.43152 0.17825 0.0
C1099 C 0.39724 0.4579 0.21541 0.0
C1100 C 0.41457 0.4407 0.23427 0.0
C1101 C 0.40492 0.41895 0.22627 0.0
C1102 C 0.3796 0.41439 0.19839 0.0
C1103 C 0.4454 0.44514 0.25989 0.0
C1104 C 0.48022 0.44918 0.24593 0.0
C1105 C 0.44172 0.4426 0.29722 0.0
C1106 C 0.40535 0.4381 0.3131 0.0
C1107 C 0.40125 0.42045 0.33695 0.0
C1108 C 0.36714 0.4163 0.35209 0.0
C1109 C 0.33679 0.4296 0.34342 0.0
C1110 C 0.34051 0.44712 0.31969 0.0
C1111 C 0.37464 0.45151 0.30482 0.0
H1112 H 0.31038 0.42635 0.3551 0.0
H1113 H 0.64585 0.45689 0.21125 0.0
H1114 H 0.35378 0.57597 0.68476 0.0
H1115 H 0.40138 0.57444 0.73293 0.0
H1116 H 0.48507 0.5883 0.65644 0.0
H1117 H 0.43749 0.59025 0.60844 0.0
H1118 H 0.5023 0.55349 0.71167 0.0
H1119 H 0.46084 0.62902 0.69762 0.0
H1120 H 0.41283 0.65766 0.69333 0.0
H1121 H 0.37592 0.64022 0.79778 0.0
H1122 H 0.4234 0.61124 0.80244 0.0
H1123 H 0.64557 0.58113 0.83736 0.0
H1124 H 0.60273 0.57945 0.78562 0.0
H1125 H 0.51217 0.59387 0.85449 0.0
H1126 H 0.5554 0.59718 0.90536 0.0
H1127 H 0.49935 0.61434 0.79979 0.0
H1128 H 0.53077 0.53666 0.81315 0.0
H1129 H 0.5746 0.50577 0.81996 0.0
H1130 H 0.62476 0.52396 0.72149 0.0
H1131 H 0.58179 0.55532 0.71485 0.0
C1132 C 0.3824 0.57837 0.6783 0.0
C1133 C 0.39208 0.58346 0.64315 0.0
C1134 C 0.40946 0.57753 0.70569 0.0
C1135 C 0.44659 0.58138 0.69812 0.0
C1136 C 0.45654 0.58532 0.66271 0.0
C1137 C 0.42941 0.58658 0.63547 0.0
C1138 C 0.47459 0.58301 0.72753 0.0
C1139 C 0.50194 0.56683 0.73089 0.0
C1140 C 0.47357 0.60021 0.75279 0.0
C1141 C 0.44542 0.61784 0.75022 0.0
C1142 C 0.4423 0.63119 0.71955 0.0
C1143 C 0.41522 0.6475 0.71707 0.0
C1144 C 0.39127 0.65072 0.74523 0.0
C1145 C 0.39445 0.63769 0.77597 0.0
C1146 C 0.42146 0.62133 0.77856 0.0
C1147 C 0.61646 0.58387 0.84125 0.0
C1148 C 0.60372 0.58921 0.87527 0.0
C1149 C 0.59185 0.58267 0.81177 0.0
C1150 C 0.55379 0.58591 0.81603 0.0
C1151 C 0.54126 0.59134 0.85018 0.0
C1152 C 0.56598 0.59323 0.87933 0.0
C1153 C 0.52696 0.58437 0.78508 0.0
C1154 C 0.49984 0.60077 0.78102 0.0
C1155 C 0.52766 0.56705 0.75973 0.0
C1156 C 0.55337 0.5483 0.76365 0.0
C1157 C 0.55142 0.53414 0.79321 0.0
C1158 C 0.57608 0.51658 0.79704 0.0
C1159 C 0.60254 0.51294 0.77122 0.0
C1160 C 0.60434 0.52683 0.74151 0.0
C1161 C 0.57982 0.54445 0.73768 0.0
H1162 H 0.62159 0.49934 0.7742 0.0
H1163 H 0.37032 0.66336 0.74326 0.0
H1164 H 0.12028 0.96748 0.35708 0.0
H1165 H 0.07375 0.9723 0.30868 0.0
H1166 H 0.08014 0.90319 0.2844 0.0
H1167 H 0.12567 0.89829 0.33351 0.0
H1168 H 0.0637 0.96415 0.23617 0.0
H1169 H 0.98921 0.88397 0.27419 0.0
H1170 H 0.99003 0.85752 0.32417 0.0
H1171 H 0.02499 0.90837 0.39691 0.0
H1172 H 0.02126 0.93553 0.34819 0.0
H1173 H 0.92792 0.92019 0.11383 0.0
H1174 H 0.97955 0.92606 0.15629 0.0
H1175 H 0.90555 0.95494 0.23121 0.0
H1176 H 0.85362 0.9494 0.18836 0.0
H1177 H 0.95246 0.91912 0.25759 0.0
H1178 H 0.95889 0.98753 0.19634 0.0
H1179 H 0.96187 0.0123 0.14432 0.0
H1180 H 0.06554 0.98404 0.11634 0.0
H1181 H 0.0627 0.95861 0.16758 0.0
C1182 C 0.11231 0.95348 0.34079 0.0
C1183 C 0.12586 0.93244 0.34928 0.0
C1184 C 0.08585 0.95623 0.31314 0.0
C1185 C 0.0729 0.93801 0.29353 0.0
C1186 C 0.08922 0.91738 0.29972 0.0
C1187 C 0.11506 0.91457 0.32776 0.0
C1188 C 0.03931 0.93993 0.27014 0.0
C1189 C 0.03938 0.95431 0.24077 0.0
C1190 C 0.00728 0.92737 0.27673 0.0
C1191 C 0.00549 0.91177 0.30728 0.0
C1192 C -0.00379 0.88965 0.30101 0.0
C1193 C -0.00307 0.87455 0.32923 0.0
C1194 C 0.00725 0.8813 0.36381 0.0
C1195 C 0.01626 0.90325 0.37033 0.0
C1196 C 0.01458 0.91855 0.34245 0.0
C1197 C 0.92268 0.92793 0.13921 0.0
C1198 C 0.88678 0.93431 0.14781 0.0
C1199 C 0.9522 0.93143 0.16327 0.0
C1200 C 0.94633 0.94114 0.19658 0.0
C1201 C 0.91058 0.9476 0.20539 0.0
C1202 C 0.88104 0.94446 0.18098 0.0
C1203 C 0.97728 0.9428 0.22305 0.0
C1204 C 0.97668 0.92908 0.25312 0.0
C1205 C 0.00877 0.95582 0.21688 0.0
C1206 C 0.01041 0.97099 0.18575 0.0
C1207 C 0.98212 0.98637 0.17888 0.0
C1208 C 0.98382 1.00058 0.14955 0.0
C1209 C 0.01391 0.99978 0.12709 0.0
C1210 C 0.04231 0.9847 0.13385 0.0
C1211 C 0.04061 0.97034 0.16299 0.0
H1212 H 0.01516 0.01077 0.10436 0.0
H1213 H 0.00842 0.86953 0.38553 0.0
H1214 H 0.13151 0.11042 0.83211 0.0
H1215 H 0.08227 0.10681 0.78623 0.0
H1216 H 0.0453 0.04731 0.8369 0.0
H1217 H 0.09656 0.05025 0.88125 0.0
H1218 H 0.03283 0.04378 0.76844 0.0
H1219 H 0.00564 0.09846 0.85442 0.0
H1220 H 0.01633 0.13118 0.89215 0.0
H1221 H 0.0246 0.17128 0.7982 0.0
H1222 H 0.01436 0.13879 0.75983 0.0
H1223 H 0.8488 0.0632 0.68911 0.0
H1224 H 0.89987 0.0574 0.73243 0.0
H1225 H 0.96571 0.10422 0.67601 0.0
H1226 H 0.91576 0.10963 0.63213 0.0
H1227 H 0.95839 0.11162 0.75204 0.0
H1228 H 0.98433 0.05348 0.66729 0.0
H1229 H 0.96932 0.01976 0.63344 0.0
H1230 H 0.95612 0.98467 0.73195 0.0
H1231 H 0.9706 0.01831 0.76633 0.0
C1232 C 0.11327 0.09636 0.83272 0.0
C1233 C 0.11729 0.08069 0.85994 0.0
C1234 C 0.08503 0.09436 0.80685 0.0
C1235 C 0.05928 0.07719 0.80883 0.0
C1236 C 0.06463 0.06078 0.83495 0.0
C1237 C 0.09378 0.06242 0.86017 0.0
C1238 C 0.0257 0.07737 0.78515 0.0
C1239 C 0.01626 0.05852 0.76524 0.0
C1240 C 0.0037 0.0965 0.78122 0.0
C1241 C 0.00946 0.11615 0.80424 0.0
C1242 C 0.00991 0.11424 0.84179 0.0
C1243 C 0.01589 0.13274 0.8633 0.0
C1244 C 0.02123 0.15327 0.8476 0.0
C1245 C 0.02048 0.15536 0.81033 0.0
C1246 C 0.01453 0.13692 0.78868 0.0
C1247 C 0.87428 0.07206 0.68559 0.0
C1248 C 0.87788 0.08706 0.65717 0.0
C1249 C 0.90338 0.06872 0.71041 0.0
C1250 C 0.9364 0.08041 0.7073 0.0
C1251 C 0.94027 0.09515 0.67889 0.0
C1252 C 0.91146 0.09835 0.65396 0.0
C1253 C 0.96646 0.07837 0.73459 0.0
C1254 C 0.97492 0.09687 0.75547 0.0
C1255 C 0.98669 0.05875 0.74004 0.0
C1256 C 0.97817 0.0385 0.71933 0.0
C1257 C 0.97791 0.03864 0.68169 0.0
C1258 C 0.96956 0.01953 0.66241 0.0
C1259 C 0.96165 1.0001 0.68052 0.0
C1260 C 0.9622 0.99974 0.71794 0.0
C1261 C 0.97051 0.01883 0.73733 0.0
H1262 H 0.95519 0.98532 0.66555 0.0
H1263 H 0.02588 0.16756 0.86432 0.0
loop_
_geom_bond_atom_site_label_1
_geom_bond_atom_site_label_2
_geom_bond_distance
_geom_bond_site_symmetry_2
_ccdc_geom_bond_type
Co0 N4 2.148 . S
Co0 N10 2.128 . S
Co0 N20 2.194 . S
Co0 O25 2.351 . S
Co0 O26 2.155 . S
Co0 O27 2.096 . S
C1 N4 1.301 1_556 S
C1 N5 1.328 . S
C1 H6 0.930 . S
C2 C3 1.333 . S
C2 N4 1.317 . S
C2 H7 0.930 . S
C3 C2 1.333 . S
C3 N5 1.350 1_554 S
C3 H29 0.931 . S
N4 Co0 2.148 . S
N4 C1 1.301 1_554 S
N4 C2 1.317 . S
N5 C1 1.328 . S
N5 C3 1.350 1_556 S
H6 C1 0.930 . S
H7 C2 0.930 . S
C8 O9 1.224 . S
C8 O27 1.247 . S
O9 C8 1.224 . S
N10 Co0 2.128 . S
N10 C11 1.355 . S
N10 C13 1.311 . S
C11 N10 1.355 . S
C11 C12 1.363 . S
C11 H23 0.929 . S
C12 C11 1.363 . S
C12 N14 1.375 . S
C12 H30 0.931 . S
C13 N10 1.311 . S
C13 N14 1.347 . S
C13 H24 0.929 . S
N14 C12 1.375 . S
N14 C13 1.347 . S
C15 C18 1.365 . S
C15 N20 1.328 . S
C15 H21 0.929 . S
C16 C17 1.362 . S
C16 C19 1.378 . S
C16 H31 0.929 . S
C17 C16 1.362 . S
C17 C18 1.366 . S
C18 C15 1.365 . S
C18 C17 1.366 . S
C18 H32 0.930 1_554 S
C19 C16 1.378 . S
C19 N20 1.315 . S
C19 H22 0.930 . S
N20 Co0 2.194 . S
N20 C15 1.328 . S
N20 C19 1.315 . S
H21 C15 0.929 . S
H22 C19 0.930 . S
H23 C11 0.929 . S
H24 C13 0.929 . S
O25 Co0 2.351 . S
O25 C28 1.244 . S
O26 Co0 2.155 . S
O26 C28 1.240 . S
O27 Co0 2.096 . S
O27 C8 1.247 . S
C28 O25 1.244 . S
C28 O26 1.240 . S
H29 C3 0.931 . S
H30 C12 0.931 . S
H31 C16 0.929 . S
H32 C18 0.930 1_556 S
Co33 N37 2.148 . S
Co33 N43 2.128 . S
Co33 N53 2.194 . S
Co33 O58 2.351 . S
Co33 O59 2.155 . S
Co33 O60 2.096 . S
C34 N37 1.301 . S
C34 N38 1.328 . S
C34 H39 0.930 . S
C35 C36 1.333 . S
C35 N37 1.317 . S
C35 H40 0.930 . S
C36 C35 1.333 . S
C36 N38 1.350 . S
C36 H62 0.931 . S
N37 Co33 2.148 . S
N37 C34 1.301 . S
N37 C35 1.317 . S
N38 C34 1.328 . S
N38 C36 1.350 . S
H39 C34 0.930 . S
H40 C35 0.930 . S
C41 O42 1.224 . S
C41 O60 1.247 . S
O42 C41 1.224 . S
N43 Co33 2.128 . S
N43 C44 1.355 . S
N43 C46 1.311 . S
C44 N43 1.355 . S
C44 C45 1.363 . S
C44 H56 0.929 . S
C45 C44 1.363 . S
C45 N47 1.375 . S
C45 H63 0.931 . S
C46 N43 1.311 . S
C46 N47 1.347 . S
C46 H57 0.929 . S
N47 C45 1.375 . S
N47 C46 1.347 . S
C48 C51 1.365 . S
C48 N53 1.328 . S
C48 H54 0.929 . S
C49 C50 1.362 . S
C49 C52 1.378 . S
C49 H64 0.929 . S
C50 C49 1.362 . S
C50 C51 1.366 . S
C51 C48 1.365 . S
C51 C50 1.366 . S
C51 H65 0.930 . S
C52 C49 1.378 . S
C52 N53 1.315 . S
C52 H55 0.930 . S
N53 Co33 2.194 . S
N53 C48 1.328 . S
N53 C52 1.315 . S
H54 C48 0.929 . S
H55 C52 0.930 . S
H56 C44 0.929 . S
H57 C46 0.929 . S
O58 Co33 2.351 . S
O58 C61 1.244 . S
O59 Co33 2.155 . S
O59 C61 1.240 . S
O60 Co33 2.096 . S
O60 C41 1.247 . S
C61 O58 1.244 . S
C61 O59 1.240 . S
H62 C36 0.931 . S
H63 C45 0.931 . S
H64 C49 0.929 . S
H65 C51 0.930 . S
Co66 N70 2.148 . S
Co66 N76 2.128 . S
Co66 N86 2.194 . S
Co66 O91 2.351 . S
Co66 O92 2.155 . S
Co66 O93 2.096 . S
C67 N70 1.301 1_554 S
C67 N71 1.328 . S
C67 H72 0.930 . S
C68 C69 1.333 . S
C68 N70 1.317 . S
C68 H73 0.930 . S
C69 C68 1.333 . S
C69 N71 1.350 1_556 S
C69 H95 0.931 . S
N70 Co66 2.148 . S
N70 C67 1.301 1_556 S
N70 C68 1.317 . S
N71 C67 1.328 . S
N71 C69 1.350 1_554 S
H72 C67 0.930 . S
H73 C68 0.930 . S
C74 O75 1.224 . S
C74 O93 1.247 . S
O75 C74 1.224 . S
N76 Co66 2.128 . S
N76 C77 1.355 . S
N76 C79 1.311 . S
C77 N76 1.355 . S
C77 C78 1.363 . S
C77 H89 0.929 . S
C78 C77 1.363 . S
C78 N80 1.375 . S
C78 H96 0.931 . S
C79 N76 1.311 . S
C79 N80 1.347 . S
C79 H90 0.929 . S
N80 C78 1.375 . S
N80 C79 1.347 . S
C81 C84 1.365 . S
C81 N86 1.328 . S
C81 H87 0.929 . S
C82 C83 1.362 . S
C82 C85 1.378 . S
C82 H97 0.929 . S
C83 C82 1.362 . S
C83 C84 1.366 . S
C84 C81 1.365 . S
C84 C83 1.366 . S
C84 H98 0.930 1_556 S
C85 C82 1.378 . S
C85 N86 1.315 . S
C85 H88 0.930 . S
N86 Co66 2.194 . S
N86 C81 1.328 . S
N86 C85 1.315 . S
H87 C81 0.929 . S
H88 C85 0.930 . S
H89 C77 0.929 . S
H90 C79 0.929 . S
O91 Co66 2.351 . S
O91 C94 1.244 . S
O92 Co66 2.155 . S
O92 C94 1.240 . S
O93 Co66 2.096 . S
O93 C74 1.247 . S
C94 O91 1.244 . S
C94 O92 1.240 . S
H95 C69 0.931 . S
H96 C78 0.931 . S
H97 C82 0.929 . S
H98 C84 0.930 1_554 S
Co99 N103 2.148 . S
Co99 N109 2.128 . S
Co99 N119 2.194 . S
Co99 O124 2.351 . S
Co99 O125 2.155 . S
Co99 O126 2.096 . S
C100 N103 1.301 . S
C100 N104 1.328 . S
C100 H105 0.930 . S
C101 C102 1.333 . S
C101 N103 1.317 . S
C101 H106 0.930 . S
C102 C101 1.333 . S
C102 N104 1.350 . S
C102 H128 0.931 . S
N103 Co99 2.148 . S
N103 C100 1.301 . S
N103 C101 1.317 . S
N104 C100 1.328 . S
N104 C102 1.350 . S
H105 C100 0.930 . S
H106 C101 0.930 . S
C107 O108 1.224 . S
C107 O126 1.247 . S
O108 C107 1.224 . S
N109 Co99 2.128 . S
N109 C110 1.355 . S
N109 C112 1.311 . S
C110 N109 1.355 . S
C110 C111 1.363 . S
C110 H122 0.929 . S
C111 C110 1.363 . S
C111 N113 1.375 . S
C111 H129 0.931 . S
C112 N109 1.311 . S
C112 N113 1.347 . S
C112 H123 0.929 . S
N113 C111 1.375 . S
N113 C112 1.347 . S
C114 C117 1.365 . S
C114 N119 1.328 . S
C114 H120 0.929 . S
C115 C116 1.362 . S
C115 C118 1.378 . S
C115 H130 0.929 . S
C116 C115 1.362 . S
C116 C117 1.366 . S
C117 C114 1.365 . S
C117 C116 1.366 . S
C117 H131 0.930 . S
C118 C115 1.378 . S
C118 N119 1.315 . S
C118 H121 0.930 . S
N119 Co99 2.194 . S
N119 C114 1.328 . S
N119 C118 1.315 . S
H120 C114 0.929 . S
H121 C118 0.930 . S
H122 C110 0.929 . S
H123 C112 0.929 . S
O124 Co99 2.351 . S
O124 C127 1.244 . S
O125 Co99 2.155 . S
O125 C127 1.240 . S
O126 Co99 2.096 . S
O126 C107 1.247 . S
C127 O124 1.244 . S
C127 O125 1.240 . S
H128 C102 0.931 . S
H129 C111 0.931 . S
H130 C115 0.929 . S
H131 C117 0.930 . S
Co132 N136 2.148 . S
Co132 N142 2.128 . S
Co132 N152 2.194 . S
Co132 O157 2.351 . S
Co132 O158 2.155 . S
Co132 O159 2.096 . S
C133 N136 1.301 1_556 S
C133 N137 1.328 . S
C133 H138 0.930 . S
C134 C135 1.333 . S
C134 N136 1.317 . S
C134 H139 0.930 . S
C135 C134 1.333 . S
C135 N137 1.350 1_554 S
C135 H161 0.931 . S
N136 Co132 2.148 . S
N136 C133 1.301 1_554 S
N136 C134 1.317 . S
N137 C133 1.328 . S
N137 C135 1.350 1_556 S
H138 C133 0.930 . S
H139 C134 0.930 . S
C140 O141 1.224 . S
C140 O159 1.247 . S
O141 C140 1.224 . S
N142 Co132 2.128 . S
N142 C143 1.355 . S
N142 C145 1.311 . S
C143 N142 1.355 . S
C143 C144 1.363 . S
C143 H155 0.929 . S
C144 C143 1.363 . S
C144 N146 1.375 . S
C144 H162 0.931 . S
C145 N142 1.311 . S
C145 N146 1.347 . S
C145 H156 0.929 . S
N146 C144 1.375 . S
N146 C145 1.347 . S
C147 C150 1.365 . S
C147 N152 1.328 . S
C147 H153 0.929 . S
C148 C149 1.362 . S
C148 C151 1.378 . S
C148 H163 0.929 . S
C149 C148 1.362 . S
C149 C150 1.366 . S
C150 C147 1.365 . S
C150 C149 1.366 . S
C150 H164 0.930 1_554 S
C151 C148 1.378 . S
C151 N152 1.315 . S
C151 H154 0.930 . S
N152 Co132 2.194 . S
N152 C147 1.328 . S
N152 C151 1.315 . S
H153 C147 0.929 . S
H154 C151 0.930 . S
H155 C143 0.929 . S
H156 C145 0.929 . S
O157 Co132 2.351 . S
O157 C160 1.244 . S
O158 Co132 2.155 . S
O158 C160 1.240 . S
O159 Co132 2.096 . S
O159 C140 1.247 . S
C160 O157 1.244 . S
C160 O158 1.240 . S
H161 C135 0.931 . S
H162 C144 0.931 . S
H163 C148 0.929 . S
H164 C150 0.930 1_556 S
Co165 N169 2.148 . S
Co165 N175 2.128 . S
Co165 N185 2.194 . S
Co165 O190 2.351 . S
Co165 O191 2.155 . S
Co165 O192 2.096 . S
C166 N169 1.301 . S
C166 N170 1.328 . S
C166 H171 0.930 . S
C167 C168 1.333 . S
C167 N169 1.317 . S
C167 H172 0.930 . S
C168 C167 1.333 . S
C168 N170 1.350 . S
C168 H194 0.931 . S
N169 Co165 2.148 . S
N169 C166 1.301 . S
N169 C167 1.317 . S
N170 C166 1.328 . S
N170 C168 1.350 . S
H171 C166 0.930 . S
H172 C167 0.930 . S
C173 O174 1.224 . S
C173 O192 1.247 . S
O174 C173 1.224 . S
N175 Co165 2.128 . S
N175 C176 1.355 . S
N175 C178 1.311 . S
C176 N175 1.355 . S
C176 C177 1.363 . S
C176 H188 0.929 . S
C177 C176 1.363 . S
C177 N179 1.375 . S
C177 H195 0.931 . S
C178 N175 1.311 . S
C178 N179 1.347 . S
C178 H189 0.929 . S
N179 C177 1.375 . S
N179 C178 1.347 . S
C180 C183 1.365 . S
C180 N185 1.328 . S
C180 H186 0.929 . S
C181 C182 1.362 . S
C181 C184 1.378 . S
C181 H196 0.929 . S
C182 C181 1.362 . S
C182 C183 1.366 . S
C183 C180 1.365 . S
C183 C182 1.366 . S
C183 H197 0.930 . S
C184 C181 1.378 . S
C184 N185 1.315 . S
C184 H187 0.930 . S
N185 Co165 2.194 . S
N185 C180 1.328 . S
N185 C184 1.315 . S
H186 C180 0.929 . S
H187 C184 0.930 . S
H188 C176 0.929 . S
H189 C178 0.929 . S
O190 Co165 2.351 . S
O190 C193 1.244 . S
O191 Co165 2.155 . S
O191 C193 1.240 . S
O192 Co165 2.096 . S
O192 C173 1.247 . S
C193 O190 1.244 . S
C193 O191 1.240 . S
H194 C168 0.931 . S
H195 C177 0.931 . S
H196 C181 0.929 . S
H197 C183 0.930 . S
Co198 N202 2.148 . S
Co198 N208 2.128 . S
Co198 N218 2.194 . S
Co198 O223 2.351 . S
Co198 O224 2.155 . S
Co198 O225 2.096 . S
C199 N202 1.301 1_554 S
C199 N203 1.328 . S
C199 H204 0.930 . S
C200 C201 1.333 . S
C200 N202 1.317 . S
C200 H205 0.930 . S
C201 C200 1.333 . S
C201 N203 1.350 1_556 S
C201 H227 0.931 . S
N202 Co198 2.148 . S
N202 C199 1.301 1_556 S
N202 C200 1.317 . S
N203 C199 1.328 . S
N203 C201 1.350 1_554 S
H204 C199 0.930 . S
H205 C200 0.930 . S
C206 O207 1.224 . S
C206 O225 1.247 . S
O207 C206 1.224 . S
N208 Co198 2.128 . S
N208 C209 1.355 . S
N208 C211 1.311 . S
C209 N208 1.355 . S
C209 C210 1.363 . S
C209 H221 0.929 . S
C210 C209 1.363 . S
C210 N212 1.375 . S
C210 H228 0.931 . S
C211 N208 1.311 . S
C211 N212 1.347 . S
C211 H222 0.929 . S
N212 C210 1.375 . S
N212 C211 1.347 . S
C213 C216 1.365 . S
C213 N218 1.328 . S
C213 H219 0.929 . S
C214 C215 1.362 . S
C214 C217 1.378 . S
C214 H229 0.929 . S
C215 C214 1.362 . S
C215 C216 1.366 . S
C216 C213 1.365 . S
C216 C215 1.366 . S
C216 H230 0.930 1_556 S
C217 C214 1.378 . S
C217 N218 1.315 . S
C217 H220 0.930 . S
N218 Co198 2.194 . S
N218 C213 1.328 . S
N218 C217 1.315 . S
H219 C213 0.929 . S
H220 C217 0.930 . S
H221 C209 0.929 . S
H222 C211 0.929 . S
O223 Co198 2.351 . S
O223 C226 1.244 . S
O224 Co198 2.155 . S
O224 C226 1.240 . S
O225 Co198 2.096 . S
O225 C206 1.247 . S
C226 O223 1.244 . S
C226 O224 1.240 . S
H227 C201 0.931 . S
H228 C210 0.931 . S
H229 C214 0.929 . S
H230 C216 0.930 1_554 S
Co231 N235 2.148 . S
Co231 N241 2.128 . S
Co231 N251 2.194 . S
Co231 O256 2.351 . S
Co231 O257 2.155 . S
Co231 O258 2.096 . S
C232 N235 1.301 . S
C232 N236 1.328 . S
C232 H237 0.930 . S
C233 C234 1.333 . S
C233 N235 1.317 . S
C233 H238 0.930 . S
C234 C233 1.333 . S
C234 N236 1.350 . S
C234 H260 0.931 . S
N235 Co231 2.148 . S
N235 C232 1.301 . S
N235 C233 1.317 . S
N236 C232 1.328 . S
N236 C234 1.350 . S
H237 C232 0.930 . S
H238 C233 0.930 . S
C239 O240 1.224 . S
C239 O258 1.247 . S
O240 C239 1.224 . S
N241 Co231 2.128 . S
N241 C242 1.355 . S
N241 C244 1.311 . S
C242 N241 1.355 . S
C242 C243 1.363 . S
C242 H254 0.929 . S
C243 C242 1.363 . S
C243 N245 1.375 . S
C243 H261 0.931 . S
C244 N241 1.311 . S
C244 N245 1.347 . S
C244 H255 0.929 . S
N245 C243 1.375 . S
N245 C244 1.347 . S
C246 C249 1.365 . S
C246 N251 1.328 . S
C246 H252 0.929 . S
C247 C248 1.362 . S
C247 C250 1.378 . S
C247 H262 0.929 . S
C248 C247 1.362 . S
C248 C249 1.366 . S
C249 C246 1.365 . S
C249 C248 1.366 . S
C249 H263 0.930 . S
C250 C247 1.378 . S
C250 N251 1.315 . S
C250 H253 0.930 . S
N251 Co231 2.194 . S
N251 C246 1.328 . S
N251 C250 1.315 . S
H252 C246 0.929 . S
H253 C250 0.930 . S
H254 C242 0.929 . S
H255 C244 0.929 . S
O256 Co231 2.351 . S
O256 C259 1.244 . S
O257 Co231 2.155 . S
O257 C259 1.240 . S
O258 Co231 2.096 . S
O258 C239 1.247 . S
C259 O256 1.244 . S
C259 O257 1.240 . S
H260 C234 0.931 . S
H261 C243 0.931 . S
H262 C247 0.929 . S
H263 C249 0.930 . S
H264 C282 0.951 . S
H265 C284 0.951 . S
H266 C286 0.950 . S
H267 C287 0.950 . S
H268 C289 0.950 . S
H269 C292 0.950 . S
H270 C293 0.950 . S
H271 C295 0.950 . S
H272 C296 0.950 . S
H273 C297 0.951 . S
H274 C299 0.951 . S
H275 C301 0.950 . S
H276 C302 0.950 . S
H277 C304 0.950 . S
H278 C307 0.950 . S
H279 C308 0.950 . S
H280 C310 0.950 . S
H281 C311 0.950 . S
C282 H264 0.951 . S
C282 C283 1.366 . S
C282 C284 1.388 . S
C283 C282 1.366 . S
C283 C287 1.385 . S
C284 H265 0.951 . S
C284 C282 1.388 . S
C284 C285 1.366 . S
C285 C284 1.366 . S
C285 C286 1.414 . S
C285 C288 1.499 . S
C286 H266 0.950 . S
C286 C285 1.414 . S
C286 C287 1.374 . S
C287 H267 0.950 . S
C287 C283 1.385 . S
C287 C286 1.374 . S
C288 C285 1.499 . S
C288 C289 1.373 . S
C288 C290 1.389 . S
C289 H268 0.950 . S
C289 C288 1.373 . S
C289 C305 1.377 . S
C290 C288 1.389 . S
C290 C291 1.524 . S
C290 C304 1.377 . S
C291 C290 1.524 . S
C291 C292 1.397 . S
C291 C296 1.363 . S
C292 H269 0.950 . S
C292 C291 1.397 . S
C292 C293 1.334 . S
C293 H270 0.950 . S
C293 C292 1.334 . S
C293 C294 1.287 . S
C294 C293 1.287 . S
C294 C295 1.524 . S
C294 H313 0.913 . S
C295 H271 0.950 . S
C295 C294 1.524 . S
C295 C296 1.415 . S
C296 H272 0.950 . S
C296 C291 1.363 . S
C296 C295 1.415 . S
C297 H273 0.951 . S
C297 C298 1.366 . S
C297 C299 1.388 . S
C298 C297 1.366 . S
C298 C302 1.385 . S
C299 H274 0.951 . S
C299 C297 1.388 . S
C299 C300 1.366 . S
C300 C299 1.366 . S
C300 C301 1.414 . S
C300 C303 1.499 . S
C301 H275 0.950 . S
C301 C300 1.414 . S
C301 C302 1.374 . S
C302 H276 0.950 . S
C302 C298 1.385 . S
C302 C301 1.374 . S
C303 C300 1.499 . S
C303 C304 1.373 . S
C303 C305 1.389 . S
C304 H277 0.950 . S
C304 C290 1.377 . S
C304 C303 1.373 . S
C305 C289 1.377 . S
C305 C303 1.389 . S
C305 C306 1.524 . S
C306 C305 1.524 . S
C306 C307 1.397 . S
C306 C311 1.363 . S
C307 H278 0.950 . S
C307 C306 1.397 . S
C307 C308 1.334 . S
C308 H279 0.950 . S
C308 C307 1.334 . S
C308 C309 1.287 . S
C309 C308 1.287 . S
C309 C310 1.524 . S
C309 H312 0.999 . S
C310 H280 0.950 . S
C310 C309 1.524 . S
C310 C311 1.415 . S
C311 H281 0.950 . S
C311 C306 1.363 . S
C311 C310 1.415 . S
H312 C309 0.999 . S
H313 C294 0.913 . S
H314 C332 0.951 . S
H315 C334 0.951 . S
H316 C336 0.950 . S
H317 C337 0.950 . S
H318 C339 0.950 . S
H319 C342 0.950 . S
H320 C343 0.950 . S
H321 C345 0.950 . S
H322 C346 0.950 . S
H323 C347 0.951 . S
H324 C349 0.951 . S
H325 C351 0.950 . S
H326 C352 0.950 . S
H327 C354 0.950 . S
H328 C357 0.950 . S
H329 C358 0.950 . S
H330 C360 0.950 . S
H331 C361 0.950 . S
C332 H314 0.951 . S
C332 C333 1.366 . S
C332 C334 1.388 . S
C333 C332 1.366 . S
C333 C337 1.385 . S
C334 H315 0.951 . S
C334 C332 1.388 . S
C334 C335 1.366 . S
C335 C334 1.366 . S
C335 C336 1.414 . S
C335 C338 1.499 . S
C336 H316 0.950 . S
C336 C335 1.414 . S
C336 C337 1.374 . S
C337 H317 0.950 . S
C337 C333 1.385 . S
C337 C336 1.374 . S
C338 C335 1.499 . S
C338 C339 1.373 . S
C338 C340 1.389 . S
C339 H318 0.950 . S
C339 C338 1.373 . S
C339 C355 1.377 . S
C340 C338 1.389 . S
C340 C341 1.524 . S
C340 C354 1.377 . S
C341 C340 1.524 . S
C341 C342 1.397 . S
C341 C346 1.363 . S
C342 H319 0.950 . S
C342 C341 1.397 . S
C342 C343 1.334 . S
C343 H320 0.950 . S
C343 C342 1.334 . S
C343 C344 1.287 . S
C344 C343 1.287 . S
C344 C345 1.524 . S
C344 H363 0.913 . S
C345 H321 0.950 . S
C345 C344 1.524 . S
C345 C346 1.415 . S
C346 H322 0.950 . S
C346 C341 1.363 . S
C346 C345 1.415 . S
C347 H323 0.951 . S
C347 C348 1.366 . S
C347 C349 1.388 . S
C348 C347 1.366 . S
C348 C352 1.385 . S
C349 H324 0.951 . S
C349 C347 1.388 . S
C349 C350 1.366 . S
C350 C349 1.366 . S
C350 C351 1.414 . S
C350 C353 1.499 . S
C351 H325 0.950 . S
C351 C350 1.414 . S
C351 C352 1.374 . S
C352 H326 0.950 . S
C352 C348 1.385 . S
C352 C351 1.374 . S
C353 C350 1.499 . S
C353 C354 1.373 . S
C353 C355 1.389 . S
C354 H327 0.950 . S
C354 C340 1.377 . S
C354 C353 1.373 . S
C355 C339 1.377 . S
C355 C353 1.389 . S
C355 C356 1.524 . S
C356 C355 1.524 . S
C356 C357 1.397 . S
C356 C361 1.363 . S
C357 H328 0.950 . S
C357 C356 1.397 . S
C357 C358 1.334 . S
C358 H329 0.950 . S
C358 C357 1.334 . S
C358 C359 1.287 . S
C359 C358 1.287 . S
C359 C360 1.524 . S
C359 H362 0.999 . S
C360 H330 0.950 . S
C360 C359 1.524 . S
C360 C361 1.415 . S
C361 H331 0.950 . S
C361 C356 1.363 . S
C361 C360 1.415 . S
H362 C359 0.999 . S
H363 C344 0.913 . S
H364 C382 0.951 . S
H365 C384 0.951 . S
H366 C386 0.950 . S
H367 C387 0.950 . S
H368 C389 0.950 . S
H369 C392 0.950 . S
H370 C393 0.950 . S
H371 C395 0.950 . S
H372 C396 0.950 . S
H373 C397 0.951 . S
H374 C399 0.951 . S
H375 C401 0.950 . S
H376 C402 0.950 . S
H377 C404 0.950 . S
H378 C407 0.950 . S
H379 C408 0.950 . S
H380 C410 0.950 . S
H381 C411 0.950 . S
C382 H364 0.951 . S
C382 C383 1.366 . S
C382 C384 1.388 . S
C383 C382 1.366 . S
C383 C387 1.385 . S
C384 H365 0.951 . S
C384 C382 1.388 . S
C384 C385 1.366 . S
C385 C384 1.366 . S
C385 C386 1.414 . S
C385 C388 1.499 . S
C386 H366 0.950 . S
C386 C385 1.414 . S
C386 C387 1.374 . S
C387 H367 0.950 . S
C387 C383 1.385 . S
C387 C386 1.374 . S
C388 C385 1.499 . S
C388 C389 1.373 . S
C388 C390 1.389 . S
C389 H368 0.950 . S
C389 C388 1.373 . S
C389 C405 1.377 . S
C390 C388 1.389 . S
C390 C391 1.524 . S
C390 C404 1.377 . S
C391 C390 1.524 . S
C391 C392 1.397 . S
C391 C396 1.363 . S
C392 H369 0.950 . S
C392 C391 1.397 . S
C392 C393 1.334 . S
C393 H370 0.950 . S
C393 C392 1.334 . S
C393 C394 1.287 . S
C394 C393 1.287 . S
C394 C395 1.524 . S
C394 H413 0.913 . S
C395 H371 0.950 . S
C395 C394 1.524 . S
C395 C396 1.415 . S
C396 H372 0.950 . S
C396 C391 1.363 . S
C396 C395 1.415 . S
C397 H373 0.951 . S
C397 C398 1.366 . S
C397 C399 1.388 . S
C398 C397 1.366 . S
C398 C402 1.385 . S
C399 H374 0.951 . S
C399 C397 1.388 . S
C399 C400 1.366 . S
C400 C399 1.366 . S
C400 C401 1.414 . S
C400 C403 1.499 . S
C401 H375 0.950 . S
C401 C400 1.414 . S
C401 C402 1.374 . S
C402 H376 0.950 . S
C402 C398 1.385 . S
C402 C401 1.374 . S
C403 C400 1.499 . S
C403 C404 1.373 . S
C403 C405 1.389 . S
C404 H377 0.950 . S
C404 C390 1.377 . S
C404 C403 1.373 . S
C405 C389 1.377 . S
C405 C403 1.389 . S
C405 C406 1.524 . S
C406 C405 1.524 . S
C406 C407 1.397 . S
C406 C411 1.363 . S
C407 H378 0.950 . S
C407 C406 1.397 . S
C407 C408 1.334 . S
C408 H379 0.950 . S
C408 C407 1.334 . S
C408 C409 1.287 . S
C409 C408 1.287 . S
C409 C410 1.524 . S
C409 H412 0.999 . S
C410 H380 0.950 . S
C410 C409 1.524 . S
C410 C411 1.415 . S
C411 H381 0.950 . S
C411 C406 1.363 . S
C411 C410 1.415 . S
H412 C409 0.999 . S
H413 C394 0.913 . S
H414 C432 0.951 . S
H415 C434 0.951 . S
H416 C436 0.950 . S
H417 C437 0.950 . S
H418 C439 0.950 . S
H419 C442 0.950 . S
H420 C443 0.950 . S
H421 C445 0.950 . S
H422 C446 0.950 . S
H423 C447 0.951 . S
H424 C449 0.951 . S
H425 C451 0.950 . S
H426 C452 0.950 . S
H427 C454 0.950 . S
H428 C457 0.950 . S
H429 C458 0.950 . S
H430 C460 0.950 . S
H431 C461 0.950 . S
C432 H414 0.951 . S
C432 C433 1.366 . S
C432 C434 1.388 . S
C433 C432 1.366 . S
C433 C437 1.385 . S
C434 H415 0.951 . S
C434 C432 1.388 . S
C434 C435 1.366 . S
C435 C434 1.366 . S
C435 C436 1.414 . S
C435 C438 1.499 . S
C436 H416 0.950 . S
C436 C435 1.414 . S
C436 C437 1.374 . S
C437 H417 0.950 . S
C437 C433 1.385 . S
C437 C436 1.374 . S
C438 C435 1.499 . S
C438 C439 1.373 . S
C438 C440 1.389 . S
C439 H418 0.950 . S
C439 C438 1.373 . S
C439 C455 1.377 . S
C440 C438 1.389 . S
C440 C441 1.524 . S
C440 C454 1.377 . S
C441 C440 1.524 . S
C441 C442 1.397 . S
C441 C446 1.363 . S
C442 H419 0.950 . S
C442 C441 1.397 . S
C442 C443 1.334 . S
C443 H420 0.950 . S
C443 C442 1.334 . S
C443 C444 1.287 . S
C444 C443 1.287 . S
C444 C445 1.524 . S
C444 H463 0.913 . S
C445 H421 0.950 . S
C445 C444 1.524 . S
C445 C446 1.415 . S
C446 H422 0.950 . S
C446 C441 1.363 . S
C446 C445 1.415 . S
C447 H423 0.951 . S
C447 C448 1.366 . S
C447 C449 1.388 . S
C448 C447 1.366 . S
C448 C452 1.385 . S
C449 H424 0.951 . S
C449 C447 1.388 . S
C449 C450 1.366 . S
C450 C449 1.366 . S
C450 C451 1.414 . S
C450 C453 1.499 . S
C451 H425 0.950 . S
C451 C450 1.414 . S
C451 C452 1.374 . S
C452 H426 0.950 . S
C452 C448 1.385 . S
C452 C451 1.374 . S
C453 C450 1.499 . S
C453 C454 1.373 . S
C453 C455 1.389 . S
C454 H427 0.950 . S
C454 C440 1.377 . S
C454 C453 1.373 . S
C455 C439 1.377 . S
C455 C453 1.389 . S
C455 C456 1.524 . S
C456 C455 1.524 . S
C456 C457 1.397 . S
C456 C461 1.363 . S
C457 H428 0.950 . S
C457 C456 1.397 . S
C457 C458 1.334 . S
C458 H429 0.950 . S
C458 C457 1.334 . S
C458 C459 1.287 . S
C459 C458 1.287 . S
C459 C460 1.524 . S
C459 H462 0.999 . S
C460 H430 0.950 . S
C460 C459 1.524 . S
C460 C461 1.415 . S
C461 H431 0.950 . S
C461 C456 1.363 . S
C461 C460 1.415 . S
H462 C459 0.999 . S
H463 C444 0.913 . S
H464 C482 0.951 . S
H465 C484 0.951 . S
H466 C486 0.950 1_545 S
H467 C487 0.950 . S
H468 C489 0.950 . S
H469 C492 0.950 . S
H470 C493 0.950 . S
H471 C495 0.950 . S
H472 C496 0.950 . S
H473 C497 0.951 . S
H474 C499 0.951 . S
H475 C501 0.950 1_565 S
H476 C502 0.950 . S
H477 C504 0.950 . S
H478 C507 0.950 . S
H479 C508 0.950 . S
H480 C510 0.950 . S
H481 C511 0.950 . S
C482 H464 0.951 . S
C482 C483 1.366 . S
C482 C484 1.388 . S
C483 C482 1.366 . S
C483 C487 1.385 . S
C484 H465 0.951 . S
C484 C482 1.388 . S
C484 C485 1.366 . S
C485 C484 1.366 . S
C485 C486 1.414 . S
C485 C488 1.499 . S
C486 H466 0.950 1_565 S
C486 C485 1.414 . S
C486 C487 1.374 . S
C487 H467 0.950 . S
C487 C483 1.385 . S
C487 C486 1.374 . S
C488 C485 1.499 . S
C488 C489 1.373 1_565 S
C488 C490 1.389 . S
C489 H468 0.950 . S
C489 C488 1.373 1_545 S
C489 C505 1.377 . S
C490 C488 1.389 . S
C490 C491 1.524 . S
C490 C504 1.377 . S
C491 C490 1.524 . S
C491 C492 1.397 . S
C491 C496 1.363 . S
C492 H469 0.950 . S
C492 C491 1.397 . S
C492 C493 1.334 . S
C493 H470 0.950 . S
C493 C492 1.334 . S
C493 C494 1.287 . S
C494 C493 1.287 . S
C494 C495 1.524 . S
C494 H513 0.913 . S
C495 H471 0.950 . S
C495 C494 1.524 . S
C495 C496 1.415 . S
C496 H472 0.950 . S
C496 C491 1.363 . S
C496 C495 1.415 . S
C497 H473 0.951 . S
C497 C498 1.366 . S
C497 C499 1.388 . S
C498 C497 1.366 . S
C498 C502 1.385 . S
C499 H474 0.951 . S
C499 C497 1.388 . S
C499 C500 1.366 . S
C500 C499 1.366 . S
C500 C501 1.414 . S
C500 C503 1.499 . S
C501 H475 0.950 1_545 S
C501 C500 1.414 . S
C501 C502 1.374 . S
C502 H476 0.950 . S
C502 C498 1.385 . S
C502 C501 1.374 . S
C503 C500 1.499 . S
C503 C504 1.373 1_545 S
C503 C505 1.389 . S
C504 H477 0.950 . S
C504 C490 1.377 . S
C504 C503 1.373 1_565 S
C505 C489 1.377 . S
C505 C503 1.389 . S
C505 C506 1.524 . S
C506 C505 1.524 . S
C506 C507 1.397 . S
C506 C511 1.363 . S
C507 H478 0.950 . S
C507 C506 1.397 . S
C507 C508 1.334 . S
C508 H479 0.950 . S
C508 C507 1.334 . S
C508 C509 1.287 . S
C509 C508 1.287 . S
C509 C510 1.524 . S
C509 H512 0.999 . S
C510 H480 0.950 . S
C510 C509 1.524 . S
C510 C511 1.415 . S
C511 H481 0.950 . S
C511 C506 1.363 . S
C511 C510 1.415 . S
H512 C509 0.999 . S
H513 C494 0.913 . S
H514 C532 0.951 . S
H515 C534 0.951 . S
H516 C536 0.950 . S
H517 C537 0.950 . S
H518 C539 0.950 . S
H519 C542 0.950 . S
H520 C543 0.950 . S
H521 C545 0.950 . S
H522 C546 0.950 . S
H523 C547 0.951 . S
H524 C549 0.951 . S
H525 C551 0.950 1_545 S
H526 C552 0.950 . S
H527 C554 0.950 . S
H528 C557 0.950 . S
H529 C558 0.950 . S
H530 C560 0.950 . S
H531 C561 0.950 . S
C532 H514 0.951 . S
C532 C533 1.366 . S
C532 C534 1.388 . S
C533 C532 1.366 . S
C533 C537 1.385 . S
C534 H515 0.951 . S
C534 C532 1.388 . S
C534 C535 1.366 . S
C535 C534 1.366 . S
C535 C536 1.414 . S
C535 C538 1.499 . S
C536 H516 0.950 . S
C536 C535 1.414 . S
C536 C537 1.374 . S
C537 H517 0.950 . S
C537 C533 1.385 . S
C537 C536 1.374 . S
C538 C535 1.499 . S
C538 C539 1.373 1_545 S
C538 C540 1.389 . S
C539 H518 0.950 . S
C539 C538 1.373 1_565 S
C539 C555 1.377 . S
C540 C538 1.389 . S
C540 C541 1.524 . S
C540 C554 1.377 . S
C541 C540 1.524 . S
C541 C542 1.397 . S
C541 C546 1.363 . S
C542 H519 0.950 . S
C542 C541 1.397 . S
C542 C543 1.334 . S
C543 H520 0.950 . S
C543 C542 1.334 . S
C543 C544 1.287 . S
C544 C543 1.287 . S
C544 C545 1.524 . S
C544 H563 0.913 . S
C545 H521 0.950 . S
C545 C544 1.524 . S
C545 C546 1.415 . S
C546 H522 0.950 . S
C546 C541 1.363 . S
C546 C545 1.415 . S
C547 H523 0.951 . S
C547 C548 1.366 . S
C547 C549 1.388 . S
C548 C547 1.366 . S
C548 C552 1.385 . S
C549 H524 0.951 . S
C549 C547 1.388 . S
C549 C550 1.366 . S
C550 C549 1.366 . S
C550 C551 1.414 . S
C550 C553 1.499 . S
C551 H525 0.950 1_565 S
C551 C550 1.414 . S
C551 C552 1.374 . S
C552 H526 0.950 . S
C552 C548 1.385 . S
C552 C551 1.374 . S
C553 C550 1.499 . S
C553 C554 1.373 1_565 S
C553 C555 1.389 . S
C554 H527 0.950 . S
C554 C540 1.377 . S
C554 C553 1.373 1_545 S
C555 C539 1.377 . S
C555 C553 1.389 . S
C555 C556 1.524 . S
C556 C555 1.524 . S
C556 C557 1.397 . S
C556 C561 1.363 . S
C557 H528 0.950 . S
C557 C556 1.397 . S
C557 C558 1.334 . S
C558 H529 0.950 . S
C558 C557 1.334 . S
C558 C559 1.287 . S
C559 C558 1.287 . S
C559 C560 1.524 . S
C559 H562 0.999 . S
C560 H530 0.950 . S
C560 C559 1.524 . S
C560 C561 1.415 . S
C561 H531 0.950 . S
C561 C556 1.363 . S
C561 C560 1.415 . S
H562 C559 0.999 . S
H563 C544 0.913 . S
H564 C582 0.951 . S
H565 C584 0.951 . S
H566 C586 0.950 1_565 S
H567 C587 0.950 . S
H568 C589 0.950 . S
H569 C592 0.950 . S
H570 C593 0.950 . S
H571 C595 0.950 . S
H572 C596 0.950 . S
H573 C597 0.951 . S
H574 C599 0.951 . S
H575 C601 0.950 1_545 S
H576 C602 0.950 . S
H577 C604 0.950 . S
H578 C607 0.950 . S
H579 C608 0.950 . S
H580 C610 0.950 . S
H581 C611 0.950 . S
C582 H564 0.951 . S
C582 C583 1.366 . S
C582 C584 1.388 . S
C583 C582 1.366 . S
C583 C587 1.385 . S
C584 H565 0.951 . S
C584 C582 1.388 . S
C584 C585 1.366 . S
C585 C584 1.366 . S
C585 C586 1.414 . S
C585 C588 1.499 . S
C586 H566 0.950 1_545 S
C586 C585 1.414 . S
C586 C587 1.374 . S
C587 H567 0.950 . S
C587 C583 1.385 . S
C587 C586 1.374 . S
C588 C585 1.499 . S
C588 C589 1.373 1_545 S
C588 C590 1.389 . S
C589 H568 0.950 . S
C589 C588 1.373 1_565 S
C589 C605 1.377 . S
C590 C588 1.389 . S
C590 C591 1.524 . S
C590 C604 1.377 . S
C591 C590 1.524 . S
C591 C592 1.397 . S
C591 C596 1.363 . S
C592 H569 0.950 . S
C592 C591 1.397 . S
C592 C593 1.334 . S
C593 H570 0.950 . S
C593 C592 1.334 . S
C593 C594 1.287 . S
C594 C593 1.287 . S
C594 C595 1.524 . S
C594 H613 0.913 . S
C595 H571 0.950 . S
C595 C594 1.524 . S
C595 C596 1.415 . S
C596 H572 0.950 . S
C596 C591 1.363 . S
C596 C595 1.415 . S
C597 H573 0.951 . S
C597 C598 1.366 . S
C597 C599 1.388 . S
C598 C597 1.366 . S
C598 C602 1.385 . S
C599 H574 0.951 . S
C599 C597 1.388 . S
C599 C600 1.366 . S
C600 C599 1.366 . S
C600 C601 1.414 . S
C600 C603 1.499 . S
C601 H575 0.950 1_565 S
C601 C600 1.414 . S
C601 C602 1.374 . S
C602 H576 0.950 . S
C602 C598 1.385 . S
C602 C601 1.374 . S
C603 C600 1.499 . S
C603 C604 1.373 1_565 S
C603 C605 1.389 . S
C604 H577 0.950 . S
C604 C590 1.377 . S
C604 C603 1.373 1_545 S
C605 C589 1.377 . S
C605 C603 1.389 . S
C605 C606 1.524 . S
C606 C605 1.524 . S
C606 C607 1.397 . S
C606 C611 1.363 . S
C607 H578 0.950 . S
C607 C606 1.397 . S
C607 C608 1.334 . S
C608 H579 0.950 . S
C608 C607 1.334 . S
C608 C609 1.287 . S
C609 C608 1.287 . S
C609 C610 1.524 . S
C609 H612 0.999 . S
C610 H580 0.950 . S
C610 C609 1.524 . S
C610 C611 1.415 . S
C611 H581 0.950 . S
C611 C606 1.363 . S
C611 C610 1.415 . S
H612 C609 0.999 . S
H613 C594 0.913 . S
H614 C632 0.951 . S
H615 C634 0.951 . S
H616 C636 0.950 . S
H617 C637 0.950 . S
H618 C639 0.950 . S
H619 C642 0.950 . S
H620 C643 0.950 . S
H621 C645 0.950 . S
H622 C646 0.950 . S
H623 C647 0.951 . S
H624 C649 0.951 . S
H625 C651 0.950 . S
H626 C652 0.950 . S
H627 C654 0.950 . S
H628 C657 0.950 . S
H629 C658 0.950 . S
H630 C660 0.950 . S
H631 C661 0.950 . S
C632 H614 0.951 . S
C632 C633 1.366 . S
C632 C634 1.388 . S
C633 C632 1.366 . S
C633 C637 1.385 . S
C634 H615 0.951 . S
C634 C632 1.388 . S
C634 C635 1.366 . S
C635 C634 1.366 . S
C635 C636 1.414 . S
C635 C638 1.499 . S
C636 H616 0.950 . S
C636 C635 1.414 . S
C636 C637 1.374 . S
C637 H617 0.950 . S
C637 C633 1.385 . S
C637 C636 1.374 . S
C638 C635 1.499 . S
C638 C639 1.373 . S
C638 C640 1.389 1_545 S
C639 H618 0.950 . S
C639 C638 1.373 . S
C639 C655 1.377 . S
C640 C638 1.389 1_565 S
C640 C641 1.524 . S
C640 C654 1.377 . S
C641 C640 1.524 . S
C641 C642 1.397 . S
C641 C646 1.363 . S
C642 H619 0.950 . S
C642 C641 1.397 . S
C642 C643 1.334 . S
C643 H620 0.950 . S
C643 C642 1.334 . S
C643 C644 1.287 . S
C644 C643 1.287 . S
C644 C645 1.524 . S
C644 H663 0.913 . S
C645 H621 0.950 . S
C645 C644 1.524 . S
C645 C646 1.415 . S
C646 H622 0.950 . S
C646 C641 1.363 . S
C646 C645 1.415 . S
C647 H623 0.951 . S
C647 C648 1.366 . S
C647 C649 1.388 . S
C648 C647 1.366 . S
C648 C652 1.385 . S
C649 H624 0.951 . S
C649 C647 1.388 . S
C649 C650 1.366 . S
C650 C649 1.366 . S
C650 C651 1.414 . S
C650 C653 1.499 . S
C651 H625 0.950 . S
C651 C650 1.414 . S
C651 C652 1.374 . S
C652 H626 0.950 . S
C652 C648 1.385 . S
C652 C651 1.374 . S
C653 C650 1.499 . S
C653 C654 1.373 . S
C653 C655 1.389 1_565 S
C654 H627 0.950 . S
C654 C640 1.377 . S
C654 C653 1.373 . S
C655 C639 1.377 . S
C655 C653 1.389 1_545 S
C655 C656 1.524 . S
C656 C655 1.524 . S
C656 C657 1.397 . S
C656 C661 1.363 . S
C657 H628 0.950 . S
C657 C656 1.397 . S
C657 C658 1.334 . S
C658 H629 0.950 . S
C658 C657 1.334 . S
C658 C659 1.287 . S
C659 C658 1.287 . S
C659 C660 1.524 . S
C659 H662 0.999 . S
C660 H630 0.950 . S
C660 C659 1.524 . S
C660 C661 1.415 . S
C661 H631 0.950 . S
C661 C656 1.363 . S
C661 C660 1.415 . S
H662 C659 0.999 . S
H663 C644 0.913 . S
H664 C682 0.951 . S
H665 C684 0.951 . S
H666 C686 0.950 1_556 S
H667 C687 0.950 1_556 S
H668 C689 0.950 . S
H669 C692 0.950 . S
H670 C693 0.950 . S
H671 C695 0.950 . S
H672 C696 0.950 . S
H673 C697 0.951 . S
H674 C699 0.951 . S
H675 C701 0.950 1_554 S
H676 C702 0.950 1_554 S
H677 C704 0.950 . S
H678 C707 0.950 . S
H679 C708 0.950 . S
H680 C710 0.950 . S
H681 C711 0.950 . S
C682 H664 0.951 . S
C682 C683 1.366 . S
C682 C684 1.388 . S
C683 C682 1.366 . S
C683 C687 1.385 . S
C684 H665 0.951 . S
C684 C682 1.388 . S
C684 C685 1.366 . S
C685 C684 1.366 . S
C685 C686 1.414 . S
C685 C688 1.499 . S
C686 H666 0.950 1_554 S
C686 C685 1.414 . S
C686 C687 1.374 . S
C687 H667 0.950 1_554 S
C687 C683 1.385 . S
C687 C686 1.374 . S
C688 C685 1.499 . S
C688 C689 1.373 1_554 S
C688 C690 1.389 . S
C689 H668 0.950 . S
C689 C688 1.373 1_556 S
C689 C705 1.377 . S
C690 C688 1.389 . S
C690 C691 1.524 . S
C690 C704 1.377 . S
C691 C690 1.524 . S
C691 C692 1.397 . S
C691 C696 1.363 . S
C692 H669 0.950 . S
C692 C691 1.397 . S
C692 C693 1.334 . S
C693 H670 0.950 . S
C693 C692 1.334 . S
C693 C694 1.287 . S
C694 C693 1.287 . S
C694 C695 1.524 . S
C694 H713 0.913 . S
C695 H671 0.950 . S
C695 C694 1.524 . S
C695 C696 1.415 . S
C696 H672 0.950 . S
C696 C691 1.363 . S
C696 C695 1.415 . S
C697 H673 0.951 . S
C697 C698 1.366 . S
C697 C699 1.388 . S
C698 C697 1.366 . S
C698 C702 1.385 . S
C699 H674 0.951 . S
C699 C697 1.388 . S
C699 C700 1.366 . S
C700 C699 1.366 . S
C700 C701 1.414 . S
C700 C703 1.499 . S
C701 H675 0.950 1_556 S
C701 C700 1.414 . S
C701 C702 1.374 . S
C702 H676 0.950 1_556 S
C702 C698 1.385 . S
C702 C701 1.374 . S
C703 C700 1.499 . S
C703 C704 1.373 1_556 S
C703 C705 1.389 . S
C704 H677 0.950 . S
C704 C690 1.377 . S
C704 C703 1.373 1_554 S
C705 C689 1.377 . S
C705 C703 1.389 . S
C705 C706 1.524 . S
C706 C705 1.524 . S
C706 C707 1.397 . S
C706 C711 1.363 . S
C707 H678 0.950 . S
C707 C706 1.397 . S
C707 C708 1.334 . S
C708 H679 0.950 . S
C708 C707 1.334 . S
C708 C709 1.287 . S
C709 C708 1.287 . S
C709 C710 1.524 . S
C709 H712 0.999 . S
C710 H680 0.950 . S
C710 C709 1.524 . S
C710 C711 1.415 . S
C711 H681 0.950 . S
C711 C706 1.363 . S
C711 C710 1.415 . S
H712 C709 0.999 . S
H713 C694 0.913 . S
H714 C732 0.951 . S
H715 C734 0.951 . S
H716 C736 0.950 . S
H717 C737 0.950 . S
H718 C739 0.950 . S
H719 C742 0.950 . S
H720 C743 0.950 . S
H721 C745 0.950 . S
H722 C746 0.950 . S
H723 C747 0.951 . S
H724 C749 0.951 . S
H725 C751 0.950 . S
H726 C752 0.950 . S
H727 C754 0.950 . S
H728 C757 0.950 . S
H729 C758 0.950 . S
H730 C760 0.950 . S
H731 C761 0.950 . S
C732 H714 0.951 . S
C732 C733 1.366 . S
C732 C734 1.388 . S
C733 C732 1.366 . S
C733 C737 1.385 . S
C734 H715 0.951 . S
C734 C732 1.388 . S
C734 C735 1.366 . S
C735 C734 1.366 . S
C735 C736 1.414 . S
C735 C738 1.499 . S
C736 H716 0.950 . S
C736 C735 1.414 . S
C736 C737 1.374 . S
C737 H717 0.950 . S
C737 C733 1.385 . S
C737 C736 1.374 . S
C738 C735 1.499 . S
C738 C739 1.373 . S
C738 C740 1.389 . S
C739 H718 0.950 . S
C739 C738 1.373 . S
C739 C755 1.377 . S
C740 C738 1.389 . S
C740 C741 1.524 . S
C740 C754 1.377 . S
C741 C740 1.524 . S
C741 C742 1.397 . S
C741 C746 1.363 . S
C742 H719 0.950 . S
C742 C741 1.397 . S
C742 C743 1.334 . S
C743 H720 0.950 . S
C743 C742 1.334 . S
C743 C744 1.287 . S
C744 C743 1.287 . S
C744 C745 1.524 . S
C744 H763 0.913 . S
C745 H721 0.950 . S
C745 C744 1.524 . S
C745 C746 1.415 . S
C746 H722 0.950 . S
C746 C741 1.363 . S
C746 C745 1.415 . S
C747 H723 0.951 . S
C747 C748 1.366 . S
C747 C749 1.388 . S
C748 C747 1.366 . S
C748 C752 1.385 . S
C749 H724 0.951 . S
C749 C747 1.388 . S
C749 C750 1.366 . S
C750 C749 1.366 . S
C750 C751 1.414 . S
C750 C753 1.499 . S
C751 H725 0.950 . S
C751 C750 1.414 . S
C751 C752 1.374 . S
C752 H726 0.950 . S
C752 C748 1.385 . S
C752 C751 1.374 . S
C753 C750 1.499 . S
C753 C754 1.373 . S
C753 C755 1.389 . S
C754 H727 0.950 . S
C754 C740 1.377 . S
C754 C753 1.373 . S
C755 C739 1.377 . S
C755 C753 1.389 . S
C755 C756 1.524 . S
C756 C755 1.524 . S
C756 C757 1.397 . S
C756 C761 1.363 . S
C757 H728 0.950 . S
C757 C756 1.397 . S
C757 C758 1.334 . S
C758 H729 0.950 . S
C758 C757 1.334 . S
C758 C759 1.287 . S
C759 C758 1.287 . S
C759 C760 1.524 . S
C759 H762 0.999 . S
C760 H730 0.950 . S
C760 C759 1.524 . S
C760 C761 1.415 . S
C761 H731 0.950 . S
C761 C756 1.363 . S
C761 C760 1.415 . S
H762 C759 0.999 . S
H763 C744 0.913 . S
H764 C782 0.951 . S
H765 C784 0.951 . S
H766 C786 0.950 . S
H767 C787 0.950 . S
H768 C789 0.950 . S
H769 C792 0.950 . S
H770 C793 0.950 . S
H771 C795 0.950 . S
H772 C796 0.950 . S
H773 C797 0.951 . S
H774 C799 0.951 . S
H775 C801 0.950 . S
H776 C802 0.950 . S
H777 C804 0.950 . S
H778 C807 0.950 . S
H779 C808 0.950 . S
H780 C810 0.950 . S
H781 C811 0.950 . S
C782 H764 0.951 . S
C782 C783 1.366 . S
C782 C784 1.388 . S
C783 C782 1.366 . S
C783 C787 1.385 1_556 S
C784 H765 0.951 . S
C784 C782 1.388 . S
C784 C785 1.366 . S
C785 C784 1.366 . S
C785 C786 1.414 1_556 S
C785 C788 1.499 . S
C786 H766 0.950 . S
C786 C785 1.414 1_554 S
C786 C787 1.374 . S
C787 H767 0.950 . S
C787 C783 1.385 1_554 S
C787 C786 1.374 . S
C788 C785 1.499 . S
C788 C789 1.373 1_546 S
C788 C790 1.389 1_455 S
C789 H768 0.950 . S
C789 C788 1.373 1_564 S
C789 C805 1.377 . S
C790 C788 1.389 1_655 S
C790 C791 1.524 . S
C790 C804 1.377 . S
C791 C790 1.524 . S
C791 C792 1.397 1_656 S
C791 C796 1.363 . S
C792 H769 0.950 . S
C792 C791 1.397 1_454 S
C792 C793 1.334 . S
C793 H770 0.950 . S
C793 C792 1.334 . S
C793 C794 1.287 1_454 S
C794 C793 1.287 1_656 S
C794 C795 1.524 . S
C794 H813 0.913 . S
C795 H771 0.950 . S
C795 C794 1.524 . S
C795 C796 1.415 . S
C796 H772 0.950 . S
C796 C791 1.363 . S
C796 C795 1.415 . S
C797 H773 0.951 . S
C797 C798 1.366 . S
C797 C799 1.388 . S
C798 C797 1.366 . S
C798 C802 1.385 1_554 S
C799 H774 0.951 . S
C799 C797 1.388 . S
C799 C800 1.366 . S
C800 C799 1.366 . S
C800 C801 1.414 1_554 S
C800 C803 1.499 . S
C801 H775 0.950 . S
C801 C800 1.414 1_556 S
C801 C802 1.374 . S
C802 H776 0.950 . S
C802 C798 1.385 1_556 S
C802 C801 1.374 . S
C803 C800 1.499 . S
C803 C804 1.373 1_564 S
C803 C805 1.389 1_655 S
C804 H777 0.950 . S
C804 C790 1.377 . S
C804 C803 1.373 1_546 S
C805 C789 1.377 . S
C805 C803 1.389 1_455 S
C805 C806 1.524 . S
C806 C805 1.524 . S
C806 C807 1.397 1_454 S
C806 C811 1.363 . S
C807 H778 0.950 . S
C807 C806 1.397 1_656 S
C807 C808 1.334 . S
C808 H779 0.950 . S
C808 C807 1.334 . S
C808 C809 1.287 1_656 S
C809 C808 1.287 1_454 S
C809 C810 1.524 . S
C809 H812 0.999 . S
C810 H780 0.950 . S
C810 C809 1.524 . S
C810 C811 1.415 . S
C811 H781 0.950 . S
C811 C806 1.363 . S
C811 C810 1.415 . S
H812 C809 0.999 . S
H813 C794 0.913 . S
H814 C832 0.951 . S
H815 C834 0.951 . S
H816 C836 0.950 . S
H817 C837 0.950 . S
H818 C839 0.950 . S
H819 C842 0.950 . S
H820 C843 0.950 . S
H821 C845 0.950 . S
H822 C846 0.950 . S
H823 C847 0.951 . S
H824 C849 0.951 . S
H825 C851 0.950 . S
H826 C852 0.950 . S
H827 C854 0.950 . S
H828 C857 0.950 . S
H829 C858 0.950 . S
H830 C860 0.950 . S
H831 C861 0.950 . S
C832 H814 0.951 . S
C832 C833 1.366 . S
C832 C834 1.388 . S
C833 C832 1.366 . S
C833 C837 1.385 . S
C834 H815 0.951 . S
C834 C832 1.388 . S
C834 C835 1.366 . S
C835 C834 1.366 . S
C835 C836 1.414 . S
C835 C838 1.499 . S
C836 H816 0.950 . S
C836 C835 1.414 . S
C836 C837 1.374 . S
C837 H817 0.950 . S
C837 C833 1.385 . S
C837 C836 1.374 . S
C838 C835 1.499 . S
C838 C839 1.373 1_545 S
C838 C840 1.362 1_655 S
C839 H818 0.950 . S
C839 C838 1.373 1_565 S
C839 C855 1.403 . S
C840 C838 1.362 1_455 S
C840 C841 1.527 . S
C840 C854 1.403 . S
C841 C840 1.527 . S
C841 C842 1.397 1_455 S
C841 C846 1.363 . S
C842 H819 0.950 . S
C842 C841 1.397 1_655 S
C842 C843 1.334 . S
C843 H820 0.950 . S
C843 C842 1.334 . S
C843 C844 1.287 1_655 S
C844 C843 1.287 1_455 S
C844 C845 1.524 . S
C844 H863 0.913 . S
C845 H821 0.950 . S
C845 C844 1.524 . S
C845 C846 1.415 . S
C846 H822 0.950 . S
C846 C841 1.363 . S
C846 C845 1.415 . S
C847 H823 0.951 . S
C847 C848 1.366 . S
C847 C849 1.388 . S
C848 C847 1.366 . S
C848 C852 1.385 . S
C849 H824 0.951 . S
C849 C847 1.388 . S
C849 C850 1.366 . S
C850 C849 1.366 . S
C850 C851 1.414 . S
C850 C853 1.499 . S
C851 H825 0.950 . S
C851 C850 1.414 . S
C851 C852 1.374 . S
C852 H826 0.950 . S
C852 C848 1.385 . S
C852 C851 1.374 . S
C853 C850 1.499 . S
C853 C854 1.373 1_565 S
C853 C855 1.362 1_455 S
C854 H827 0.950 . S
C854 C840 1.403 . S
C854 C853 1.373 1_545 S
C855 C839 1.403 . S
C855 C853 1.362 1_655 S
C855 C856 1.527 . S
C856 C855 1.527 . S
C856 C857 1.397 1_655 S
C856 C861 1.363 . S
C857 H828 0.950 . S
C857 C856 1.397 1_455 S
C857 C858 1.334 . S
C858 H829 0.950 . S
C858 C857 1.334 . S
C858 C859 1.287 1_455 S
C859 C858 1.287 1_655 S
C859 C860 1.524 . S
C859 H862 0.999 . S
C860 H830 0.950 . S
C860 C859 1.524 . S
C860 C861 1.415 . S
C861 H831 0.950 . S
C861 C856 1.363 . S
C861 C860 1.415 . S
H862 C859 0.999 . S
H863 C844 0.913 . S
H864 C882 0.951 . S
H865 C884 0.951 . S
H866 C886 0.950 . S
H867 C887 0.950 . S
H868 C889 0.950 . S
H869 C892 0.950 . S
H870 C893 0.950 . S
H871 C895 0.950 . S
H872 C896 0.950 . S
H873 C897 0.951 . S
H874 C899 0.951 . S
H875 C901 0.950 . S
H876 C902 0.950 . S
H877 C904 0.950 . S
H878 C907 0.950 . S
H879 C908 0.950 . S
H880 C910 0.950 . S
H881 C911 0.950 . S
C882 H864 0.951 . S
C882 C883 1.366 1_556 S
C882 C884 1.388 . S
C883 C882 1.366 1_554 S
C883 C887 1.385 . S
C884 H865 0.951 . S
C884 C882 1.388 . S
C884 C885 1.366 1_556 S
C885 C884 1.366 1_554 S
C885 C886 1.414 . S
C885 C888 1.499 . S
C886 H866 0.950 . S
C886 C885 1.414 . S
C886 C887 1.374 . S
C887 H867 0.950 . S
C887 C883 1.385 . S
C887 C886 1.374 . S
C888 C885 1.499 . S
C888 C889 1.373 . S
C888 C890 1.389 1_554 S
C889 H868 0.950 . S
C889 C888 1.373 . S
C889 C905 1.377 . S
C890 C888 1.389 1_556 S
C890 C891 1.524 . S
C890 C904 1.377 . S
C891 C890 1.524 . S
C891 C892 1.397 1_556 S
C891 C896 1.363 . S
C892 H869 0.950 . S
C892 C891 1.397 1_554 S
C892 C893 1.334 . S
C893 H870 0.950 . S
C893 C892 1.334 . S
C893 C894 1.308 . S
C894 C893 1.308 . S
C894 C895 1.500 1_554 S
C894 H913 0.915 . S
C895 H871 0.950 . S
C895 C894 1.500 1_556 S
C895 C896 1.415 . S
C896 H872 0.950 . S
C896 C891 1.363 . S
C896 C895 1.415 . S
C897 H873 0.951 . S
C897 C898 1.366 1_554 S
C897 C899 1.388 . S
C898 C897 1.366 1_556 S
C898 C902 1.385 . S
C899 H874 0.951 . S
C899 C897 1.388 . S
C899 C900 1.366 1_554 S
C900 C899 1.366 1_556 S
C900 C901 1.414 . S
C900 C903 1.499 . S
C901 H875 0.950 . S
C901 C900 1.414 . S
C901 C902 1.374 . S
C902 H876 0.950 . S
C902 C898 1.385 . S
C902 C901 1.374 . S
C903 C900 1.499 . S
C903 C904 1.373 . S
C903 C905 1.389 1_556 S
C904 H877 0.950 . S
C904 C890 1.377 . S
C904 C903 1.373 . S
C905 C889 1.377 . S
C905 C903 1.389 1_554 S
C905 C906 1.524 . S
C906 C905 1.524 . S
C906 C907 1.397 1_554 S
C906 C911 1.363 . S
C907 H878 0.950 . S
C907 C906 1.397 1_556 S
C907 C908 1.334 . S
C908 H879 0.950 . S
C908 C907 1.334 . S
C908 C909 1.308 . S
C909 C908 1.308 . S
C909 C910 1.500 1_556 S
C909 H912 0.999 . S
C910 H880 0.950 . S
C910 C909 1.500 1_554 S
C910 C911 1.415 . S
C911 H881 0.950 . S
C911 C906 1.363 . S
C911 C910 1.415 . S
H912 C909 0.999 . S
H913 C894 0.915 . S
H914 C932 0.951 . S
H915 C934 0.951 . S
H916 C936 0.950 . S
H917 C937 0.950 . S
H918 C939 0.950 . S
H919 C942 0.950 . S
H920 C943 0.950 . S
H921 C945 0.950 . S
H922 C946 0.950 . S
H923 C947 0.951 . S
H924 C949 0.951 . S
H925 C951 0.950 . S
H926 C952 0.950 . S
H927 C954 0.950 . S
H928 C957 0.950 . S
H929 C958 0.950 . S
H930 C960 0.950 . S
H931 C961 0.950 . S
C932 H914 0.951 . S
C932 C933 1.366 . S
C932 C934 1.388 . S
C933 C932 1.366 . S
C933 C937 1.385 . S
C934 H915 0.951 . S
C934 C932 1.388 . S
C934 C935 1.366 . S
C935 C934 1.366 . S
C935 C936 1.414 . S
C935 C938 1.499 . S
C936 H916 0.950 . S
C936 C935 1.414 . S
C936 C937 1.374 . S
C937 H917 0.950 . S
C937 C933 1.385 . S
C937 C936 1.374 . S
C938 C935 1.499 . S
C938 C939 1.373 . S
C938 C940 1.389 . S
C939 H918 0.950 . S
C939 C938 1.373 . S
C939 C955 1.377 . S
C940 C938 1.389 . S
C940 C941 1.524 . S
C940 C954 1.377 . S
C941 C940 1.524 . S
C941 C942 1.397 . S
C941 C946 1.363 . S
C942 H919 0.950 . S
C942 C941 1.397 . S
C942 C943 1.334 . S
C943 H920 0.950 . S
C943 C942 1.334 . S
C943 C944 1.287 . S
C944 C943 1.287 . S
C944 C945 1.524 . S
C944 H963 0.913 . S
C945 H921 0.950 . S
C945 C944 1.524 . S
C945 C946 1.415 . S
C946 H922 0.950 . S
C946 C941 1.363 . S
C946 C945 1.415 . S
C947 H923 0.951 . S
C947 C948 1.366 . S
C947 C949 1.388 . S
C948 C947 1.366 . S
C948 C952 1.385 . S
C949 H924 0.951 . S
C949 C947 1.388 . S
C949 C950 1.366 . S
C950 C949 1.366 . S
C950 C951 1.414 . S
C950 C953 1.499 . S
C951 H925 0.950 . S
C951 C950 1.414 . S
C951 C952 1.374 . S
C952 H926 0.950 . S
C952 C948 1.385 . S
C952 C951 1.374 . S
C953 C950 1.499 . S
C953 C954 1.373 . S
C953 C955 1.389 . S
C954 H927 0.950 . S
C954 C940 1.377 . S
C954 C953 1.373 . S
C955 C939 1.377 . S
C955 C953 1.389 . S
C955 C956 1.524 . S
C956 C955 1.524 . S
C956 C957 1.397 . S
C956 C961 1.363 . S
C957 H928 0.950 . S
C957 C956 1.397 . S
C957 C958 1.334 . S
C958 H929 0.950 . S
C958 C957 1.334 . S
C958 C959 1.287 . S
C959 C958 1.287 . S
C959 C960 1.524 . S
C959 H962 0.999 . S
C960 H930 0.950 . S
C960 C959 1.524 . S
C960 C961 1.415 . S
C961 H931 0.950 . S
C961 C956 1.363 . S
C961 C960 1.415 . S
H962 C959 0.999 . S
H963 C944 0.913 . S
H964 C982 0.951 . S
H965 C984 0.951 . S
H966 C986 0.950 1_556 S
H967 C987 0.950 . S
H968 C989 0.950 . S
H969 C992 0.950 . S
H970 C993 0.950 . S
H971 C995 0.950 . S
H972 C996 0.950 . S
H973 C997 0.951 . S
H974 C999 0.951 . S
H975 C1001 0.950 1_554 S
H976 C1002 0.950 . S
H977 C1004 0.950 . S
H978 C1007 0.950 . S
H979 C1008 0.950 . S
H980 C1010 0.950 . S
H981 C1011 0.950 . S
C982 H964 0.951 . S
C982 C983 1.366 . S
C982 C984 1.388 . S
C983 C982 1.366 . S
C983 C987 1.385 . S
C984 H965 0.951 . S
C984 C982 1.388 . S
C984 C985 1.366 . S
C985 C984 1.366 . S
C985 C986 1.414 . S
C985 C988 1.499 . S
C986 H966 0.950 1_554 S
C986 C985 1.414 . S
C986 C987 1.374 . S
C987 H967 0.950 . S
C987 C983 1.385 . S
C987 C986 1.374 . S
C988 C985 1.499 . S
C988 C989 1.373 1_554 S
C988 C990 1.389 . S
C989 H968 0.950 . S
C989 C988 1.373 1_556 S
C989 C1005 1.377 . S
C990 C988 1.389 . S
C990 C991 1.524 . S
C990 C1004 1.377 . S
C991 C990 1.524 . S
C991 C992 1.397 . S
C991 C996 1.363 . S
C992 H969 0.950 . S
C992 C991 1.397 . S
C992 C993 1.334 . S
C993 H970 0.950 . S
C993 C992 1.334 . S
C993 C994 1.287 . S
C994 C993 1.287 . S
C994 C995 1.524 . S
C994 H1013 0.913 . S
C995 H971 0.950 . S
C995 C994 1.524 . S
C995 C996 1.415 . S
C996 H972 0.950 . S
C996 C991 1.363 . S
C996 C995 1.415 . S
C997 H973 0.951 . S
C997 C998 1.366 . S
C997 C999 1.388 . S
C998 C997 1.366 . S
C998 C1002 1.385 . S
C999 H974 0.951 . S
C999 C997 1.388 . S
C999 C1000 1.366 . S
C1000 C999 1.366 . S
C1000 C1001 1.414 . S
C1000 C1003 1.499 . S
C1001 H975 0.950 1_556 S
C1001 C1000 1.414 . S
C1001 C1002 1.374 . S
C1002 H976 0.950 . S
C1002 C998 1.385 . S
C1002 C1001 1.374 . S
C1003 C1000 1.499 . S
C1003 C1004 1.373 1_556 S
C1003 C1005 1.389 . S
C1004 H977 0.950 . S
C1004 C990 1.377 . S
C1004 C1003 1.373 1_554 S
C1005 C989 1.377 . S
C1005 C1003 1.389 . S
C1005 C1006 1.524 . S
C1006 C1005 1.524 . S
C1006 C1007 1.397 . S
C1006 C1011 1.363 . S
C1007 H978 0.950 . S
C1007 C1006 1.397 . S
C1007 C1008 1.334 . S
C1008 H979 0.950 . S
C1008 C1007 1.334 . S
C1008 C1009 1.287 . S
C1009 C1008 1.287 . S
C1009 C1010 1.524 . S
C1009 H1012 0.999 . S
C1010 H980 0.950 . S
C1010 C1009 1.524 . S
C1010 C1011 1.415 . S
C1011 H981 0.950 . S
C1011 C1006 1.363 . S
C1011 C1010 1.415 . S
H1012 C1009 0.999 . S
H1013 C994 0.913 . S
H1014 C1032 0.951 . S
H1015 C1034 0.951 . S
H1016 C1036 0.950 . S
H1017 C1037 0.950 . S
H1018 C1039 0.950 . S
H1019 C1042 0.950 . S
H1020 C1043 0.950 . S
H1021 C1045 0.950 . S
H1022 C1046 0.950 . S
H1023 C1047 0.951 . S
H1024 C1049 0.951 . S
H1025 C1051 0.950 . S
H1026 C1052 0.950 . S
H1027 C1054 0.950 . S
H1028 C1057 0.950 . S
H1029 C1058 0.950 . S
H1030 C1060 0.950 . S
H1031 C1061 0.950 . S
C1032 H1014 0.951 . S
C1032 C1033 1.366 . S
C1032 C1034 1.388 . S
C1033 C1032 1.366 . S
C1033 C1037 1.385 . S
C1034 H1015 0.951 . S
C1034 C1032 1.388 . S
C1034 C1035 1.366 . S
C1035 C1034 1.366 . S
C1035 C1036 1.414 . S
C1035 C1038 1.499 . S
C1036 H1016 0.950 . S
C1036 C1035 1.414 . S
C1036 C1037 1.374 . S
C1037 H1017 0.950 . S
C1037 C1033 1.385 . S
C1037 C1036 1.374 . S
C1038 C1035 1.499 . S
C1038 C1039 1.373 . S
C1038 C1040 1.389 . S
C1039 H1018 0.950 . S
C1039 C1038 1.373 . S
C1039 C1055 1.377 . S
C1040 C1038 1.389 . S
C1040 C1041 1.524 . S
C1040 C1054 1.377 . S
C1041 C1040 1.524 . S
C1041 C1042 1.397 . S
C1041 C1046 1.363 . S
C1042 H1019 0.950 . S
C1042 C1041 1.397 . S
C1042 C1043 1.334 . S
C1043 H1020 0.950 . S
C1043 C1042 1.334 . S
C1043 C1044 1.287 . S
C1044 C1043 1.287 . S
C1044 C1045 1.524 . S
C1044 H1063 0.913 . S
C1045 H1021 0.950 . S
C1045 C1044 1.524 . S
C1045 C1046 1.415 . S
C1046 H1022 0.950 . S
C1046 C1041 1.363 . S
C1046 C1045 1.415 . S
C1047 H1023 0.951 . S
C1047 C1048 1.366 . S
C1047 C1049 1.388 . S
C1048 C1047 1.366 . S
C1048 C1052 1.385 . S
C1049 H1024 0.951 . S
C1049 C1047 1.388 . S
C1049 C1050 1.366 . S
C1050 C1049 1.366 . S
C1050 C1051 1.414 . S
C1050 C1053 1.499 . S
C1051 H1025 0.950 . S
C1051 C1050 1.414 . S
C1051 C1052 1.374 . S
C1052 H1026 0.950 . S
C1052 C1048 1.385 . S
C1052 C1051 1.374 . S
C1053 C1050 1.499 . S
C1053 C1054 1.373 . S
C1053 C1055 1.389 . S
C1054 H1027 0.950 . S
C1054 C1040 1.377 . S
C1054 C1053 1.373 . S
C1055 C1039 1.377 . S
C1055 C1053 1.389 . S
C1055 C1056 1.524 . S
C1056 C1055 1.524 . S
C1056 C1057 1.397 . S
C1056 C1061 1.363 . S
C1057 H1028 0.950 . S
C1057 C1056 1.397 . S
C1057 C1058 1.334 . S
C1058 H1029 0.950 . S
C1058 C1057 1.334 . S
C1058 C1059 1.287 . S
C1059 C1058 1.287 . S
C1059 C1060 1.524 . S
C1059 H1062 0.999 . S
C1060 H1030 0.950 . S
C1060 C1059 1.524 . S
C1060 C1061 1.415 . S
C1061 H1031 0.950 . S
C1061 C1056 1.363 . S
C1061 C1060 1.415 . S
H1062 C1059 0.999 . S
H1063 C1044 0.913 . S
H1064 C1082 0.951 . S
H1065 C1084 0.951 . S
H1066 C1086 0.950 . S
H1067 C1087 0.950 . S
H1068 C1089 0.950 . S
H1069 C1092 0.950 . S
H1070 C1093 0.950 . S
H1071 C1095 0.950 . S
H1072 C1096 0.950 . S
H1073 C1097 0.951 . S
H1074 C1099 0.951 . S
H1075 C1101 0.950 . S
H1076 C1102 0.950 . S
H1077 C1104 0.950 . S
H1078 C1107 0.950 . S
H1079 C1108 0.950 . S
H1080 C1110 0.950 . S
H1081 C1111 0.950 . S
C1082 H1064 0.951 . S
C1082 C1083 1.366 . S
C1082 C1084 1.388 . S
C1083 C1082 1.366 . S
C1083 C1087 1.385 . S
C1084 H1065 0.951 . S
C1084 C1082 1.388 . S
C1084 C1085 1.366 . S
C1085 C1084 1.366 . S
C1085 C1086 1.414 . S
C1085 C1088 1.499 . S
C1086 H1066 0.950 . S
C1086 C1085 1.414 . S
C1086 C1087 1.374 . S
C1087 H1067 0.950 . S
C1087 C1083 1.385 . S
C1087 C1086 1.374 . S
C1088 C1085 1.499 . S
C1088 C1089 1.373 . S
C1088 C1090 1.389 . S
C1089 H1068 0.950 . S
C1089 C1088 1.373 . S
C1089 C1105 1.377 . S
C1090 C1088 1.389 . S
C1090 C1091 1.524 . S
C1090 C1104 1.377 . S
C1091 C1090 1.524 . S
C1091 C1092 1.397 . S
C1091 C1096 1.363 . S
C1092 H1069 0.950 . S
C1092 C1091 1.397 . S
C1092 C1093 1.334 . S
C1093 H1070 0.950 . S
C1093 C1092 1.334 . S
C1093 C1094 1.287 . S
C1094 C1093 1.287 . S
C1094 C1095 1.524 . S
C1094 H1113 0.913 . S
C1095 H1071 0.950 . S
C1095 C1094 1.524 . S
C1095 C1096 1.415 . S
C1096 H1072 0.950 . S
C1096 C1091 1.363 . S
C1096 C1095 1.415 . S
C1097 H1073 0.951 . S
C1097 C1098 1.366 . S
C1097 C1099 1.388 . S
C1098 C1097 1.366 . S
C1098 C1102 1.385 . S
C1099 H1074 0.951 . S
C1099 C1097 1.388 . S
C1099 C1100 1.366 . S
C1100 C1099 1.366 . S
C1100 C1101 1.414 . S
C1100 C1103 1.499 . S
C1101 H1075 0.950 . S
C1101 C1100 1.414 . S
C1101 C1102 1.374 . S
C1102 H1076 0.950 . S
C1102 C1098 1.385 . S
C1102 C1101 1.374 . S
C1103 C1100 1.499 . S
C1103 C1104 1.373 . S
C1103 C1105 1.389 . S
C1104 H1077 0.950 . S
C1104 C1090 1.377 . S
C1104 C1103 1.373 . S
C1105 C1089 1.377 . S
C1105 C1103 1.389 . S
C1105 C1106 1.524 . S
C1106 C1105 1.524 . S
C1106 C1107 1.397 . S
C1106 C1111 1.363 . S
C1107 H1078 0.950 . S
C1107 C1106 1.397 . S
C1107 C1108 1.334 . S
C1108 H1079 0.950 . S
C1108 C1107 1.334 . S
C1108 C1109 1.287 . S
C1109 C1108 1.287 . S
C1109 C1110 1.524 . S
C1109 H1112 0.999 . S
C1110 H1080 0.950 . S
C1110 C1109 1.524 . S
C1110 C1111 1.415 . S
C1111 H1081 0.950 . S
C1111 C1106 1.363 . S
C1111 C1110 1.415 . S
H1112 C1109 0.999 . S
H1113 C1094 0.913 . S
H1114 C1132 0.951 . S
H1115 C1134 0.951 . S
H1116 C1136 0.950 . S
H1117 C1137 0.950 . S
H1118 C1139 0.950 . S
H1119 C1142 0.950 . S
H1120 C1143 0.950 . S
H1121 C1145 0.950 . S
H1122 C1146 0.950 . S
H1123 C1147 0.951 . S
H1124 C1149 0.951 . S
H1125 C1151 0.950 . S
H1126 C1152 0.950 . S
H1127 C1154 0.950 . S
H1128 C1157 0.950 . S
H1129 C1158 0.950 . S
H1130 C1160 0.950 . S
H1131 C1161 0.950 . S
C1132 H1114 0.951 . S
C1132 C1133 1.366 . S
C1132 C1134 1.388 . S
C1133 C1132 1.366 . S
C1133 C1137 1.385 . S
C1134 H1115 0.951 . S
C1134 C1132 1.388 . S
C1134 C1135 1.366 . S
C1135 C1134 1.366 . S
C1135 C1136 1.414 . S
C1135 C1138 1.499 . S
C1136 H1116 0.950 . S
C1136 C1135 1.414 . S
C1136 C1137 1.374 . S
C1137 H1117 0.950 . S
C1137 C1133 1.385 . S
C1137 C1136 1.374 . S
C1138 C1135 1.499 . S
C1138 C1139 1.373 . S
C1138 C1140 1.389 . S
C1139 H1118 0.950 . S
C1139 C1138 1.373 . S
C1139 C1155 1.377 . S
C1140 C1138 1.389 . S
C1140 C1141 1.524 . S
C1140 C1154 1.377 . S
C1141 C1140 1.524 . S
C1141 C1142 1.397 . S
C1141 C1146 1.363 . S
C1142 H1119 0.950 . S
C1142 C1141 1.397 . S
C1142 C1143 1.334 . S
C1143 H1120 0.950 . S
C1143 C1142 1.334 . S
C1143 C1144 1.287 . S
C1144 C1143 1.287 . S
C1144 C1145 1.524 . S
C1144 H1163 0.913 . S
C1145 H1121 0.950 . S
C1145 C1144 1.524 . S
C1145 C1146 1.415 . S
C1146 H1122 0.950 . S
C1146 C1141 1.363 . S
C1146 C1145 1.415 . S
C1147 H1123 0.951 . S
C1147 C1148 1.366 . S
C1147 C1149 1.388 . S
C1148 C1147 1.366 . S
C1148 C1152 1.385 . S
C1149 H1124 0.951 . S
C1149 C1147 1.388 . S
C1149 C1150 1.366 . S
C1150 C1149 1.366 . S
C1150 C1151 1.414 . S
C1150 C1153 1.499 . S
C1151 H1125 0.950 . S
C1151 C1150 1.414 . S
C1151 C1152 1.374 . S
C1152 H1126 0.950 . S
C1152 C1148 1.385 . S
C1152 C1151 1.374 . S
C1153 C1150 1.499 . S
C1153 C1154 1.373 . S
C1153 C1155 1.389 . S
C1154 H1127 0.950 . S
C1154 C1140 1.377 . S
C1154 C1153 1.373 . S
C1155 C1139 1.377 . S
C1155 C1153 1.389 . S
C1155 C1156 1.524 . S
C1156 C1155 1.524 . S
C1156 C1157 1.397 . S
C1156 C1161 1.363 . S
C1157 H1128 0.950 . S
C1157 C1156 1.397 . S
C1157 C1158 1.334 . S
C1158 H1129 0.950 . S
C1158 C1157 1.334 . S
C1158 C1159 1.287 . S
C1159 C1158 1.287 . S
C1159 C1160 1.524 . S
C1159 H1162 0.999 . S
C1160 H1130 0.950 . S
C1160 C1159 1.524 . S
C1160 C1161 1.415 . S
C1161 H1131 0.950 . S
C1161 C1156 1.363 . S
C1161 C1160 1.415 . S
H1162 C1159 0.999 . S
H1163 C1144 0.913 . S
H1164 C1182 0.951 . S
H1165 C1184 0.951 . S
H1166 C1186 0.950 . S
H1167 C1187 0.950 . S
H1168 C1189 0.950 . S
H1169 C1192 0.950 . S
H1170 C1193 0.950 . S
H1171 C1195 0.950 . S
H1172 C1196 0.950 . S
H1173 C1197 0.951 . S
H1174 C1199 0.951 . S
H1175 C1201 0.950 . S
H1176 C1202 0.950 . S
H1177 C1204 0.950 . S
H1178 C1207 0.950 . S
H1179 C1208 0.950 . S
H1180 C1210 0.950 . S
H1181 C1211 0.950 . S
C1182 H1164 0.951 . S
C1182 C1183 1.366 . S
C1182 C1184 1.388 . S
C1183 C1182 1.366 . S
C1183 C1187 1.385 . S
C1184 H1165 0.951 . S
C1184 C1182 1.388 . S
C1184 C1185 1.366 . S
C1185 C1184 1.366 . S
C1185 C1186 1.414 . S
C1185 C1188 1.499 . S
C1186 H1166 0.950 . S
C1186 C1185 1.414 . S
C1186 C1187 1.374 . S
C1187 H1167 0.950 . S
C1187 C1183 1.385 . S
C1187 C1186 1.374 . S
C1188 C1185 1.499 . S
C1188 C1189 1.373 . S
C1188 C1190 1.363 1_455 S
C1189 H1168 0.950 . S
C1189 C1188 1.373 . S
C1189 C1205 1.401 . S
C1190 C1188 1.363 1_655 S
C1190 C1191 1.528 . S
C1190 C1204 1.401 . S
C1191 C1190 1.528 . S
C1191 C1192 1.397 1_655 S
C1191 C1196 1.363 . S
C1192 H1169 0.950 . S
C1192 C1191 1.397 1_455 S
C1192 C1193 1.334 . S
C1193 H1170 0.950 . S
C1193 C1192 1.334 . S
C1193 C1194 1.287 1_455 S
C1194 C1193 1.287 1_655 S
C1194 C1195 1.524 . S
C1194 H1213 0.913 . S
C1195 H1171 0.950 . S
C1195 C1194 1.524 . S
C1195 C1196 1.415 . S
C1196 H1172 0.950 . S
C1196 C1191 1.363 . S
C1196 C1195 1.415 . S
C1197 H1173 0.951 . S
C1197 C1198 1.366 . S
C1197 C1199 1.388 . S
C1198 C1197 1.366 . S
C1198 C1202 1.385 . S
C1199 H1174 0.951 . S
C1199 C1197 1.388 . S
C1199 C1200 1.366 . S
C1200 C1199 1.366 . S
C1200 C1201 1.414 . S
C1200 C1203 1.499 . S
C1201 H1175 0.950 . S
C1201 C1200 1.414 . S
C1201 C1202 1.374 . S
C1202 H1176 0.950 . S
C1202 C1198 1.385 . S
C1202 C1201 1.374 . S
C1203 C1200 1.499 . S
C1203 C1204 1.373 . S
C1203 C1205 1.363 1_655 S
C1204 H1177 0.950 . S
C1204 C1190 1.401 . S
C1204 C1203 1.373 . S
C1205 C1189 1.401 . S
C1205 C1203 1.363 1_455 S
C1205 C1206 1.528 . S
C1206 C1205 1.528 . S
C1206 C1207 1.397 1_455 S
C1206 C1211 1.363 . S
C1207 H1178 0.950 . S
C1207 C1206 1.397 1_655 S
C1207 C1208 1.334 . S
C1208 H1179 0.950 . S
C1208 C1207 1.334 . S
C1208 C1209 1.287 1_655 S
C1209 C1208 1.287 1_455 S
C1209 C1210 1.524 . S
C1209 H1212 0.999 . S
C1210 H1180 0.950 . S
C1210 C1209 1.524 . S
C1210 C1211 1.415 . S
C1211 H1181 0.950 . S
C1211 C1206 1.363 . S
C1211 C1210 1.415 . S
H1212 C1209 0.999 . S
H1213 C1194 0.913 . S
H1214 C1232 0.951 . S
H1215 C1234 0.951 . S
H1216 C1236 0.950 . S
H1217 C1237 0.950 . S
H1218 C1239 0.950 . S
H1219 C1242 0.950 . S
H1220 C1243 0.950 . S
H1221 C1245 0.950 . S
H1222 C1246 0.950 . S
H1223 C1247 0.951 . S
H1224 C1249 0.951 . S
H1225 C1251 0.950 . S
H1226 C1252 0.950 . S
H1227 C1254 0.950 . S
H1228 C1257 0.950 . S
H1229 C1258 0.950 . S
H1230 C1260 0.945 1_565 S
H1231 C1261 0.950 . S
C1232 H1214 0.951 . S
C1232 C1233 1.366 . S
C1232 C1234 1.388 . S
C1233 C1232 1.366 . S
C1233 C1237 1.385 . S
C1234 H1215 0.951 . S
C1234 C1232 1.388 . S
C1234 C1235 1.366 . S
C1235 C1234 1.366 . S
C1235 C1236 1.414 . S
C1235 C1238 1.499 . S
C1236 H1216 0.950 . S
C1236 C1235 1.414 . S
C1236 C1237 1.374 . S
C1237 H1217 0.950 . S
C1237 C1233 1.385 . S
C1237 C1236 1.374 . S
C1238 C1235 1.499 . S
C1238 C1239 1.373 . S
C1238 C1240 1.389 . S
C1239 H1218 0.950 . S
C1239 C1238 1.373 . S
C1239 C1255 1.377 1_455 S
C1240 C1238 1.389 . S
C1240 C1241 1.524 . S
C1240 C1254 1.377 1_455 S
C1241 C1240 1.524 . S
C1241 C1242 1.397 . S
C1241 C1246 1.363 . S
C1242 H1219 0.950 . S
C1242 C1241 1.397 . S
C1242 C1243 1.334 . S
C1243 H1220 0.950 . S
C1243 C1242 1.334 . S
C1243 C1244 1.287 . S
C1244 C1243 1.287 . S
C1244 C1245 1.524 . S
C1244 H1263 0.913 . S
C1245 H1221 0.950 . S
C1245 C1244 1.524 . S
C1245 C1246 1.415 . S
C1246 H1222 0.950 . S
C1246 C1241 1.363 . S
C1246 C1245 1.415 . S
C1247 H1223 0.951 . S
C1247 C1248 1.366 . S
C1247 C1249 1.388 . S
C1248 C1247 1.366 . S
C1248 C1252 1.385 . S
C1249 H1224 0.951 . S
C1249 C1247 1.388 . S
C1249 C1250 1.366 . S
C1250 C1249 1.366 . S
C1250 C1251 1.414 . S
C1250 C1253 1.499 . S
C1251 H1225 0.950 . S
C1251 C1250 1.414 . S
C1251 C1252 1.374 . S
C1252 H1226 0.950 . S
C1252 C1248 1.385 . S
C1252 C1251 1.374 . S
C1253 C1250 1.499 . S
C1253 C1254 1.373 . S
C1253 C1255 1.389 . S
C1254 H1227 0.950 . S
C1254 C1240 1.377 1_655 S
C1254 C1253 1.373 . S
C1255 C1239 1.377 1_655 S
C1255 C1253 1.389 . S
C1255 C1256 1.524 . S
C1256 C1255 1.524 . S
C1256 C1257 1.397 . S
C1256 C1261 1.363 . S
C1257 H1228 0.950 . S
C1257 C1256 1.397 . S
C1257 C1258 1.334 . S
C1258 H1229 0.950 . S
C1258 C1257 1.334 . S
C1258 C1259 1.287 . S
C1259 C1258 1.287 . S
C1259 C1260 1.524 . S
C1259 H1262 0.999 1_545 S
C1260 H1230 0.945 1_545 S
C1260 C1259 1.524 . S
C1260 C1261 1.415 . S
C1261 H1231 0.950 . S
C1261 C1256 1.363 . S
C1261 C1260 1.415 . S
H1262 C1259 0.999 1_565 S
H1263 C1244 0.913 . S
C283 C107 1.804 . S
C298 N5 1.819 . S
C333 N38 1.819 . S
C348 C74 1.804 . S
C383 C41 1.804 . S
C398 N71 1.819 . S
C433 C8 1.804 . S
C448 N104 1.819 . S
C483 N137 1.819 . S
C498 C239 1.804 . S
C533 C206 1.804 . S
C548 N170 1.819 . S
C583 N203 1.819 . S
C598 C173 1.805 . S
C633 N236 1.819 . S
C648 C140 1.804 . S
C683 C28 0.527 . S
C698 C94 0.527 . S
C733 C61 0.524 . S
C748 C127 0.524 . S
C783 C226 0.525 . S
C798 C160 0.525 . S
C833 C259 0.525 . S
C848 C193 0.525 . S
C883 C17 1.440 . S
C898 C215 1.440 . S
C933 C50 1.440 . S
C948 C248 1.440 . S
C983 C149 1.440 . S
C998 C83 1.440 . S
C1033 C182 1.440 . S
C1048 C116 1.440 . S
C1083 N47 0.670 . S
C1098 N14 0.670 . S
C1133 N113 0.671 . S
C1148 N80 0.671 . S
C1183 N179 0.673 . S
C1198 N146 0.673 . S
C1233 N212 0.672 . S
C1248 N245 0.672 . S
