# Generated by pormake.
# Topology unv, (4)-cn, num edge types: 1
# Building blocks:
#     Node 0, Type 0, BuildingBlock: KUFVIS_clean_sbu_0, # of connection points: 4
#     Node 1, Type 0, BuildingBlock: KUFVIS_clean_sbu_0, # of connection points: 4
#     Node 2, Type 0, BuildingBlock: KUFVIS_clean_sbu_0, # of connection points: 4
#     Node 3, Type 0, BuildingBlock: KUFVIS_clean_sbu_0, # of connection points: 4
#     Node 4, Type 0, BuildingBlock: KUFVIS_clean_sbu_0, # of connection points: 4
#     Node 5, Type 0, BuildingBlock: KUFVIS_clean_sbu_0, # of connection points: 4
#     Node 6, Type 0, BuildingBlock: KUFVIS_clean_sbu_0, # of connection points: 4
#     Node 7, Type 0, BuildingBlock: KUFVIS_clean_sbu_0, # of connection points: 4
#     Node 8, Type 0, BuildingBlock: KUFVIS_clean_sbu_0, # of connection points: 4
#     Node 9, Type 0, BuildingBlock: KUFVIS_clean_sbu_0, # of connection points: 4
#     Node 10, Type 0, BuildingBlock: KUFVIS_clean_sbu_0, # of connection points: 4
#     Node 11, Type 0, BuildingBlock: KUFVIS_clean_sbu_0, # of connection points: 4
#     Node 12, Type 0, BuildingBlock: KUFVIS_clean_sbu_0, # of connection points: 4
#     Node 13, Type 0, BuildingBlock: KUFVIS_clean_sbu_0, # of connection points: 4
#     Node 14, Type 0, BuildingBlock: KUFVIS_clean_sbu_0, # of connection points: 4
#     Node 15, Type 0, BuildingBlock: KUFVIS_clean_sbu_0, # of connection points: 4
#     Node 16, Type 0, BuildingBlock: KUFVIS_clean_sbu_0, # of connection points: 4
#     Node 17, Type 0, BuildingBlock: KUFVIS_clean_sbu_0, # of connection points: 4
#     Node 18, Type 0, BuildingBlock: KUFVIS_clean_sbu_0, # of connection points: 4
#     Node 19, Type 0, BuildingBlock: KUFVIS_clean_sbu_0, # of connection points: 4
#     Node 20, Type 0, BuildingBlock: KUFVIS_clean_sbu_0, # of connection points: 4
#     Node 21, Type 0, BuildingBlock: KUFVIS_clean_sbu_0, # of connection points: 4
#     Node 22, Type 0, BuildingBlock: KUFVIS_clean_sbu_0, # of connection points: 4
#     Node 23, Type 0, BuildingBlock: KUFVIS_clean_sbu_0, # of connection points: 4
#     Edge 24, Type (0, 0), BuildingBlock: CIFDUS_clean_linker_0, # of connection points: 2
#     Edge 25, Type (0, 0), BuildingBlock: CIFDUS_clean_linker_0, # of connection points: 2
#     Edge 26, Type (0, 0), BuildingBlock: CIFDUS_clean_linker_0, # of connection points: 2
#     Edge 27, Type (0, 0), BuildingBlock: CIFDUS_clean_linker_0, # of connection points: 2
#     Edge 28, Type (0, 0), BuildingBlock: CIFDUS_clean_linker_0, # of connection points: 2
#     Edge 29, Type (0, 0), BuildingBlock: CIFDUS_clean_linker_0, # of connection points: 2
#     Edge 30, Type (0, 0), BuildingBlock: CIFDUS_clean_linker_0, # of connection points: 2
#     Edge 31, Type (0, 0), BuildingBlock: CIFDUS_clean_linker_0, # of connection points: 2
#     Edge 32, Type (0, 0), BuildingBlock: CIFDUS_clean_linker_0, # of connection points: 2
#     Edge 33, Type (0, 0), BuildingBlock: CIFDUS_clean_linker_0, # of connection points: 2
#     Edge 34, Type (0, 0), BuildingBlock: CIFDUS_clean_linker_0, # of connection points: 2
#     Edge 35, Type (0, 0), BuildingBlock: CIFDUS_clean_linker_0, # of connection points: 2
#     Edge 36, Type (0, 0), BuildingBlock: CIFDUS_clean_linker_0, # of connection points: 2
#     Edge 37, Type (0, 0), BuildingBlock: CIFDUS_clean_linker_0, # of connection points: 2
#     Edge 38, Type (0, 0), BuildingBlock: CIFDUS_clean_linker_0, # of connection points: 2
#     Edge 39, Type (0, 0), BuildingBlock: CIFDUS_clean_linker_0, # of connection points: 2
#     Edge 40, Type (0, 0), BuildingBlock: CIFDUS_clean_linker_0, # of connection points: 2
#     Edge 41, Type (0, 0), BuildingBlock: CIFDUS_clean_linker_0, # of connection points: 2
#     Edge 42, Type (0, 0), BuildingBlock: CIFDUS_clean_linker_0, # of connection points: 2
#     Edge 43, Type (0, 0), BuildingBlock: CIFDUS_clean_linker_0, # of connection points: 2
#     Edge 44, Type (0, 0), BuildingBlock: CIFDUS_clean_linker_0, # of connection points: 2
#     Edge 45, Type (0, 0), BuildingBlock: CIFDUS_clean_linker_0, # of connection points: 2
#     Edge 46, Type (0, 0), BuildingBlock: CIFDUS_clean_linker_0, # of connection points: 2
#     Edge 47, Type (0, 0), BuildingBlock: CIFDUS_clean_linker_0, # of connection points: 2
#     Edge 48, Type (0, 0), BuildingBlock: CIFDUS_clean_linker_0, # of connection points: 2
#     Edge 49, Type (0, 0), BuildingBlock: CIFDUS_clean_linker_0, # of connection points: 2
#     Edge 50, Type (0, 0), BuildingBlock: CIFDUS_clean_linker_0, # of connection points: 2
#     Edge 51, Type (0, 0), BuildingBlock: CIFDUS_clean_linker_0, # of connection points: 2
#     Edge 52, Type (0, 0), BuildingBlock: CIFDUS_clean_linker_0, # of connection points: 2
#     Edge 53, Type (0, 0), BuildingBlock: CIFDUS_clean_linker_0, # of connection points: 2
#     Edge 54, Type (0, 0), BuildingBlock: CIFDUS_clean_linker_0, # of connection points: 2
#     Edge 55, Type (0, 0), BuildingBlock: CIFDUS_clean_linker_0, # of connection points: 2
#     Edge 56, Type (0, 0), BuildingBlock: CIFDUS_clean_linker_0, # of connection points: 2
#     Edge 57, Type (0, 0), BuildingBlock: CIFDUS_clean_linker_0, # of connection points: 2
#     Edge 58, Type (0, 0), BuildingBlock: CIFDUS_clean_linker_0, # of connection points: 2
#     Edge 59, Type (0, 0), BuildingBlock: CIFDUS_clean_linker_0, # of connection points: 2
#     Edge 60, Type (0, 0), BuildingBlock: CIFDUS_clean_linker_0, # of connection points: 2
#     Edge 61, Type (0, 0), BuildingBlock: CIFDUS_clean_linker_0, # of connection points: 2
#     Edge 62, Type (0, 0), BuildingBlock: CIFDUS_clean_linker_0, # of connection points: 2
#     Edge 63, Type (0, 0), BuildingBlock: CIFDUS_clean_linker_0, # of connection points: 2
#     Edge 64, Type (0, 0), BuildingBlock: CIFDUS_clean_linker_0, # of connection points: 2
#     Edge 65, Type (0, 0), BuildingBlock: CIFDUS_clean_linker_0, # of connection points: 2
#     Edge 66, Type (0, 0), BuildingBlock: CIFDUS_clean_linker_0, # of connection points: 2
#     Edge 67, Type (0, 0), BuildingBlock: CIFDUS_clean_linker_0, # of connection points: 2
#     Edge 68, Type (0, 0), BuildingBlock: CIFDUS_clean_linker_0, # of connection points: 2
#     Edge 69, Type (0, 0), BuildingBlock: CIFDUS_clean_linker_0, # of connection points: 2
#     Edge 70, Type (0, 0), BuildingBlock: CIFDUS_clean_linker_0, # of connection points: 2
#     Edge 71, Type (0, 0), BuildingBlock: CIFDUS_clean_linker_0, # of connection points: 2
# Relax obj value: 0.326
# Max RMSD: 0.271
# Mean RMSD: 0.241
data_MOF--net-unv--node1-KUFVIS_clean_sbu_0--edge1-CIFDUS_clean_linker_0
_symmetry_space_group_name_H-M    P1
_symmetry_Int_Tables_number       1
_symmetry_cell_setting            triclinic
loop_
_symmetry_equiv_pos_as_xyz
'x, y, z'
_cell_length_a     42.224095
_cell_length_b     42.247485
_cell_length_c     42.350889
_cell_angle_alpha  90.015323
_cell_angle_beta   89.955531
_cell_angle_gamma 90.00489
loop_
_atom_site_label
_atom_site_type_symbol
_atom_site_fract_x
_atom_site_fract_y
_atom_site_fract_z
_atom_type_partial_charge
Mn0 Mn 0.01648 0.10118 0.37204 0.0
Mn1 Mn 0.09316 0.11486 0.35557 0.0
C2 C 0.05193 0.11122 0.41259 0.0
C3 C 0.97793 0.06328 0.38237 0.0
C4 C 0.04034 0.16253 0.3433 0.0
O5 O 0.02161 0.08379 0.32777 0.0
O6 O 0.07451 0.0878 0.32163 0.0
C7 C 0.12005 0.05012 0.35933 0.0
N8 N 0.11925 0.08063 0.36978 0.0
C9 C 0.16042 0.07015 0.40767 0.0
C10 C 0.16179 0.03873 0.39714 0.0
C11 C 0.1415 0.02868 0.37288 0.0
C12 C 0.13893 0.09064 0.39291 0.0
H13 H 0.10432 0.04208 0.34095 0.0
C14 C 0.04727 0.07708 0.31331 0.0
O15 O 0.96989 0.09111 0.37196 0.0
O16 O 0.00774 0.05815 0.38712 0.0
N17 N 0.11313 0.13913 0.38826 0.0
C18 C 0.10657 0.16915 0.39808 0.0
C19 C 0.12371 0.18226 0.42327 0.0
C20 C 0.14715 0.16427 0.43843 0.0
C21 C 0.1531 0.13323 0.42837 0.0
C22 C 0.13552 0.12153 0.40286 0.0
H23 H 0.08804 0.18281 0.38718 0.0
O24 O 0.02183 0.11589 0.41684 0.0
O25 O 0.05983 0.102 0.38449 0.0
O26 O 0.01784 0.14657 0.35565 0.0
O27 O 0.06871 0.15218 0.34077 0.0
C28 C 0.17517 0.11316 0.44325 0.0
C29 C 0.17888 0.08167 0.43286 0.0
H30 H 0.17799 0.02199 0.40784 0.0
H31 H 0.14222 0.00439 0.3648 0.0
H32 H 0.11863 0.20607 0.43122 0.0
H33 H 0.16007 0.17435 0.4581 0.0
H34 H 0.18907 0.12158 0.46303 0.0
H35 H 0.19558 0.06633 0.4448 0.0
Mn36 Mn 0.98914 0.39954 0.37081 0.0
Mn37 Mn 0.91532 0.37903 0.35085 0.0
C38 C 0.95356 0.38548 0.41009 0.0
C39 C 0.02138 0.44303 0.38099 0.0
C40 C 0.97347 0.33712 0.34031 0.0
O41 O 0.9846 0.41422 0.32559 0.0
O42 O 0.93182 0.41013 0.31899 0.0
C43 C 0.8812 0.43993 0.35836 0.0
N44 N 0.88475 0.40885 0.36613 0.0
C45 C 0.84099 0.41166 0.40253 0.0
C46 C 0.83647 0.44347 0.3943 0.0
C47 C 0.85677 0.45769 0.37221 0.0
C48 C 0.86539 0.39494 0.38747 0.0
H49 H 0.89727 0.45125 0.34223 0.0
C50 C 0.9592 0.42059 0.3107 0.0
O51 O 0.03398 0.41624 0.37236 0.0
O52 O 0.99105 0.44377 0.3845 0.0
N53 N 0.89729 0.35044 0.38118 0.0
C54 C 0.90696 0.32076 0.38931 0.0
C55 C 0.89044 0.30395 0.41267 0.0
C56 C 0.86432 0.31788 0.42773 0.0
C57 C 0.85505 0.34861 0.41939 0.0
C58 C 0.8722 0.36411 0.39564 0.0
H59 H 0.92736 0.31007 0.37842 0.0
O60 O 0.98377 0.38534 0.41574 0.0
O61 O 0.94582 0.39377 0.38167 0.0
O62 O 0.99345 0.35384 0.3557 0.0
O63 O 0.9449 0.34597 0.33501 0.0
C64 C 0.83 0.36475 0.43435 0.0
C65 C 0.82294 0.39624 0.42589 0.0
H66 H 0.81799 0.45739 0.40534 0.0
H67 H 0.85386 0.48241 0.36619 0.0
H68 H 0.89801 0.28038 0.41926 0.0
H69 H 0.85185 0.30496 0.446 0.0
H70 H 0.81635 0.35335 0.45279 0.0
H71 H 0.804 0.4086 0.43798 0.0
Mn72 Mn 0.98586 0.90915 0.1452 0.0
Mn73 Mn 0.06029 0.88629 0.16091 0.0
C74 C 0.02126 0.89964 0.10422 0.0
C75 C 0.95126 0.95146 0.13763 0.0
C76 C 0.00252 0.84368 0.16925 0.0
O77 O 0.99193 0.92102 0.19138 0.0
O78 O 0.04468 0.91358 0.19622 0.0
C79 C 0.09331 0.94821 0.15832 0.0
N80 N 0.09008 0.91791 0.14781 0.0
C81 C 0.13202 0.92525 0.10993 0.0
C82 C 0.13636 0.95618 0.12108 0.0
C83 C 0.1168 0.96776 0.14527 0.0
C84 C 0.1086 0.90663 0.12428 0.0
H85 H 0.07758 0.95768 0.17593 0.0
C86 C 0.01815 0.92494 0.20597 0.0
O87 O 0.94052 0.92367 0.14536 0.0
O88 O 0.9816 0.95439 0.13458 0.0
N89 N 0.07733 0.86132 0.12703 0.0
C90 C 0.06753 0.83257 0.11616 0.0
C91 C 0.08317 0.81856 0.09046 0.0
C92 C 0.10852 0.83435 0.07592 0.0
C93 C 0.11793 0.8641 0.08715 0.0
C94 C 0.10173 0.87673 0.11316 0.0
H95 H 0.04767 0.82054 0.12667 0.0
O96 O 0.99099 0.89891 0.09891 0.0
O97 O 0.02901 0.90485 0.13323 0.0
O98 O 0.98236 0.86236 0.15669 0.0
O99 O 0.03149 0.85133 0.17406 0.0
C100 C 0.14208 0.88212 0.07288 0.0
C101 C 0.14916 0.91266 0.0843 0.0
H102 H 0.15409 0.97152 0.11069 0.0
H103 H 0.11948 0.99186 0.15351 0.0
H104 H 0.07549 0.79576 0.08168 0.0
H105 H 0.12025 0.82365 0.05582 0.0
H106 H 0.15494 0.87297 0.05271 0.0
H107 H 0.16732 0.92655 0.0727 0.0
Mn108 Mn 0.98815 0.59098 0.14508 0.0
Mn109 Mn 0.91485 0.61769 0.16073 0.0
C110 C 0.95382 0.60247 0.10393 0.0
C111 C 0.02034 0.54661 0.13789 0.0
C112 C 0.97471 0.65741 0.1688 0.0
O113 O 0.98115 0.57904 0.1909 0.0
O114 O 0.92913 0.59008 0.19617 0.0
C115 C 0.87716 0.55849 0.16127 0.0
N116 N 0.8832 0.58757 0.14871 0.0
C117 C 0.84084 0.58163 0.11116 0.0
C118 C 0.83421 0.55165 0.12371 0.0
C119 C 0.85243 0.54006 0.1489 0.0
C120 C 0.86551 0.59914 0.12474 0.0
H121 H 0.89122 0.54925 0.18044 0.0
C122 C 0.95474 0.57653 0.2054 0.0
O123 O 0.03265 0.57377 0.14561 0.0
O124 O 0.98996 0.54562 0.13425 0.0
N125 N 0.89899 0.64292 0.12657 0.0
C126 C 0.91005 0.67105 0.11532 0.0
C127 C 0.89519 0.68524 0.08929 0.0
C128 C 0.86925 0.67028 0.0749 0.0
C129 C 0.85846 0.6412 0.08664 0.0
C130 C 0.87401 0.62832 0.11287 0.0
H131 H 0.93028 0.68246 0.12583 0.0
O132 O 0.98419 0.60192 0.09912 0.0
O133 O 0.94516 0.59731 0.13281 0.0
O134 O 0.9942 0.63762 0.15685 0.0
O135 O 0.94537 0.65116 0.17319 0.0
C136 C 0.83333 0.62417 0.07287 0.0
C137 C 0.82449 0.59443 0.08515 0.0
H138 H 0.8154 0.5372 0.11399 0.0
H139 H 0.84755 0.51689 0.15864 0.0
H140 H 0.90386 0.70755 0.08018 0.0
H141 H 0.85805 0.68116 0.05462 0.0
H142 H 0.82089 0.63354 0.05256 0.0
H143 H 0.80539 0.58138 0.07411 0.0
Mn144 Mn 0.35625 0.00542 0.09438 0.0
Mn145 Mn 0.33717 0.07899 0.11734 0.0
C146 C 0.3959 0.04246 0.10363 0.0
C147 C 0.36547 0.97053 0.05314 0.0
C148 C 0.33143 0.02091 0.15986 0.0
O149 O 0.31012 0.00954 0.08132 0.0
O150 O 0.30205 0.06149 0.09082 0.0
C151 C 0.33493 0.11294 0.05609 0.0
N152 N 0.34769 0.10936 0.08543 0.0
C153 C 0.38366 0.1527 0.07664 0.0
C154 C 0.37074 0.15692 0.04646 0.0
C155 C 0.34626 0.13695 0.03616 0.0
C156 C 0.37106 0.12867 0.0957 0.0
H157 H 0.31646 0.09741 0.04777 0.0
C158 C 0.29411 0.035 0.07805 0.0
O159 O 0.35773 0.95999 0.08093 0.0
O160 O 0.36789 0.00089 0.04968 0.0
N161 N 0.3709 0.09777 0.14122 0.0
C162 C 0.38311 0.08859 0.16955 0.0
C163 C 0.40875 0.10524 0.18253 0.0
C164 C 0.42188 0.13094 0.16611 0.0
C165 C 0.40933 0.13966 0.13675 0.0
C166 C 0.38348 0.12242 0.12514 0.0
H167 H 0.37375 0.0684 0.18197 0.0
O168 O 0.40212 0.0124 0.10534 0.0
O169 O 0.3665 0.04922 0.09815 0.0
O170 O 0.3441 0.00136 0.14075 0.0
O171 O 0.32619 0.04991 0.15282 0.0
C172 C 0.42204 0.16424 0.11817 0.0
C173 C 0.40917 0.17079 0.08817 0.0
H174 H 0.37971 0.17514 0.03084 0.0
H175 H 0.33633 0.13988 0.01279 0.0
H176 H 0.41859 0.09807 0.20501 0.0
H177 H 0.44191 0.14349 0.17603 0.0
H178 H 0.44203 0.17794 0.12654 0.0
H179 H 0.41945 0.18945 0.07392 0.0
Mn180 Mn 0.64444 0.49919 0.08429 0.0
Mn181 Mn 0.66641 0.42573 0.10593 0.0
C182 C 0.60661 0.46013 0.09208 0.0
C183 C 0.63338 0.53579 0.04491 0.0
C184 C 0.66783 0.48236 0.15023 0.0
O185 O 0.69069 0.4974 0.07125 0.0
O186 O 0.70206 0.44637 0.08278 0.0
C187 C 0.67445 0.39497 0.04354 0.0
N188 N 0.65971 0.3964 0.07214 0.0
C189 C 0.62723 0.35134 0.0594 0.0
C190 C 0.64213 0.34937 0.02988 0.0
C191 C 0.66586 0.37127 0.02194 0.0
C192 C 0.63712 0.37518 0.08019 0.0
H193 H 0.69253 0.41186 0.03713 0.0
C194 C 0.70885 0.47322 0.07019 0.0
O195 O 0.64108 0.54501 0.07314 0.0
O196 O 0.63247 0.50555 0.03972 0.0
N197 N 0.63268 0.40383 0.12696 0.0
C198 C 0.6186 0.41071 0.1551 0.0
C199 C 0.59341 0.39188 0.16585 0.0
C200 C 0.58277 0.36634 0.14749 0.0
C201 C 0.59741 0.35987 0.11847 0.0
C202 C 0.62266 0.37924 0.10912 0.0
H203 H 0.62622 0.43064 0.16907 0.0
O204 O 0.59898 0.48979 0.09483 0.0
O205 O 0.6363 0.45473 0.08643 0.0
O206 O 0.65612 0.5022 0.13086 0.0
O207 O 0.67357 0.45356 0.14301 0.0
C208 C 0.58738 0.33547 0.09812 0.0
C209 C 0.60233 0.33116 0.06864 0.0
H210 H 0.63529 0.33137 0.01298 0.0
H211 H 0.67736 0.37 0.99913 0.0
H212 H 0.58202 0.39723 0.18813 0.0
H213 H 0.56309 0.3521 0.1557 0.0
H214 H 0.56789 0.32016 0.10472 0.0
H215 H 0.59411 0.3126 0.05301 0.0
Mn216 Mn 0.36575 0.99133 0.40787 0.0
Mn217 Mn 0.33984 0.92135 0.3815 0.0
C218 C 0.40208 0.95208 0.39447 0.0
C219 C 0.37935 0.02154 0.45168 0.0
C220 C 0.33608 0.98287 0.34363 0.0
O221 O 0.31956 0.98996 0.4218 0.0
O222 O 0.30826 0.93849 0.41264 0.0
C223 C 0.34175 0.8821 0.43957 0.0
N224 N 0.35127 0.88741 0.4093 0.0
C225 C 0.38473 0.84124 0.41036 0.0
C226 C 0.37465 0.83497 0.44127 0.0
C227 C 0.35314 0.85557 0.45597 0.0
C228 C 0.37211 0.86776 0.39497 0.0
H229 H 0.32644 0.89848 0.45146 0.0
C230 C 0.30226 0.96541 0.42565 0.0
O231 O 0.37163 0.03518 0.42525 0.0
O232 O 0.3789 0.99094 0.45234 0.0
N233 N 0.37005 0.9031 0.35286 0.0
C234 C 0.38018 0.91421 0.32437 0.0
C235 C 0.40318 0.89733 0.30737 0.0
C236 C 0.41587 0.86934 0.31992 0.0
C237 C 0.40552 0.85857 0.34947 0.0
C238 C 0.38222 0.87619 0.36519 0.0
H239 H 0.37117 0.93599 0.31477 0.0
O240 O 0.41066 0.98159 0.39484 0.0
O241 O 0.37239 0.94744 0.40042 0.0
O242 O 0.3527 0.99971 0.36232 0.0
O243 O 0.32778 0.95438 0.34998 0.0
C244 C 0.41804 0.83147 0.36425 0.0
C245 C 0.40763 0.82279 0.39467 0.0
H246 H 0.38379 0.81481 0.45417 0.0
H247 H 0.34575 0.85131 0.48007 0.0
H248 H 0.41133 0.90604 0.28474 0.0
H249 H 0.43387 0.85657 0.30688 0.0
H250 H 0.43608 0.81741 0.35265 0.0
H251 H 0.41784 0.80221 0.40603 0.0
Mn252 Mn 0.63858 0.49772 0.40129 0.0
Mn253 Mn 0.65699 0.57123 0.37701 0.0
C254 C 0.5987 0.5341 0.39103 0.0
C255 C 0.63021 0.46312 0.44305 0.0
C256 C 0.66325 0.51252 0.33564 0.0
O257 O 0.68461 0.50278 0.41416 0.0
O258 O 0.69214 0.55469 0.40373 0.0
C259 C 0.65894 0.60653 0.43746 0.0
N260 N 0.64614 0.60213 0.40825 0.0
C261 C 0.60994 0.64547 0.41595 0.0
C262 C 0.62278 0.65046 0.44606 0.0
C263 C 0.6474 0.63092 0.45683 0.0
C264 C 0.62271 0.62108 0.39748 0.0
H265 H 0.67769 0.59146 0.44604 0.0
C266 C 0.70028 0.52851 0.41686 0.0
O267 O 0.6379 0.45249 0.41529 0.0
O268 O 0.62719 0.49347 0.44626 0.0
N269 N 0.62324 0.58921 0.3526 0.0
C270 C 0.61149 0.57957 0.32422 0.0
C271 C 0.58581 0.59579 0.31079 0.0
C272 C 0.57229 0.62162 0.32673 0.0
C273 C 0.58457 0.63096 0.35603 0.0
C274 C 0.61043 0.61411 0.36812 0.0
H275 H 0.62133 0.55943 0.31205 0.0
O276 O 0.59263 0.50396 0.39027 0.0
O277 O 0.62795 0.54134 0.39663 0.0
O278 O 0.65061 0.49311 0.3549 0.0
O279 O 0.66839 0.54159 0.3424 0.0
C280 C 0.57162 0.65584 0.37405 0.0
C281 C 0.58435 0.66314 0.40395 0.0
H282 H 0.61367 0.66898 0.46125 0.0
H283 H 0.65733 0.63452 0.48011 0.0
H284 H 0.57627 0.58824 0.2883 0.0
H285 H 0.55225 0.63384 0.31645 0.0
H286 H 0.55159 0.66923 0.36531 0.0
H287 H 0.5739 0.68203 0.41777 0.0
Mn288 Mn 0.10534 0.37089 0.0196 0.0
Mn289 Mn 0.12636 0.35087 0.09321 0.0
C290 C 0.11616 0.41033 0.05625 0.0
C291 C 0.0626 0.38004 0.98623 0.0
C292 C 0.17072 0.34551 0.03618 0.0
O293 O 0.09142 0.32512 0.02303 0.0
O294 O 0.0996 0.31624 0.0748 0.0
C295 C 0.06383 0.3494 0.12507 0.0
N296 N 0.09367 0.3615 0.12272 0.0
C297 C 0.08434 0.39672 0.16645 0.0
C298 C 0.05362 0.38448 0.16941 0.0
C299 C 0.04334 0.36073 0.14862 0.0
C300 C 0.10392 0.38416 0.14282 0.0
H301 H 0.05558 0.33136 0.109 0.0
C302 C 0.08731 0.30886 0.04802 0.0
O303 O 0.09015 0.37269 0.9745 0.0
O304 O 0.06063 0.38293 0.01651 0.0
N305 N 0.15048 0.38367 0.11329 0.0
C306 C 0.1795 0.39533 0.10532 0.0
C307 C 0.19259 0.42026 0.12291 0.0
C308 C 0.17562 0.43322 0.14831 0.0
C309 C 0.14561 0.4212 0.15584 0.0
C310 C 0.13392 0.39603 0.13772 0.0
H311 H 0.19241 0.38606 0.08542 0.0
O312 O 0.11742 0.41636 0.02622 0.0
O313 O 0.1092 0.38128 0.06336 0.0
O314 O 0.15222 0.35802 0.01578 0.0
O315 O 0.16231 0.34002 0.06476 0.0
C316 C 0.12651 0.43382 0.18005 0.0
C317 C 0.09591 0.42156 0.18538 0.0
H318 H 0.03758 0.39347 0.18726 0.0
H319 H 0.01957 0.35132 0.15061 0.0
H320 H 0.2156 0.42968 0.11669 0.0
H321 H 0.18565 0.45272 0.16158 0.0
H322 H 0.13493 0.45331 0.19439 0.0
H323 H 0.08125 0.43181 0.20373 0.0
Mn324 Mn 0.08707 0.62953 0.49738 0.0
Mn325 Mn 0.11031 0.64508 0.42346 0.0
C326 C 0.1003 0.58774 0.46429 0.0
C327 C 0.04283 0.62335 0.52953 0.0
C328 C 0.1515 0.65614 0.48189 0.0
O329 O 0.07462 0.67528 0.49044 0.0
O330 O 0.0803 0.67916 0.43774 0.0
C331 C 0.04985 0.6389 0.38843 0.0
N332 N 0.08056 0.63009 0.3928 0.0
C333 C 0.07751 0.59301 0.34973 0.0
C334 C 0.04617 0.60243 0.34423 0.0
C335 C 0.03222 0.62533 0.36381 0.0
C336 C 0.09415 0.60785 0.37424 0.0
H337 H 0.03872 0.65571 0.40394 0.0
C338 C 0.06945 0.68921 0.46429 0.0
O339 O 0.06997 0.63122 0.54181 0.0
O340 O 0.04205 0.61817 0.49949 0.0
N341 N 0.13787 0.61276 0.40733 0.0
C342 C 0.16677 0.60337 0.41817 0.0
C343 C 0.18299 0.57883 0.40275 0.0
C344 C 0.16925 0.56392 0.3765 0.0
C345 C 0.13929 0.57357 0.36604 0.0
C346 C 0.12438 0.59844 0.38213 0.0
H347 H 0.17726 0.61416 0.43867 0.0
O348 O 0.09922 0.58367 0.49465 0.0
O349 O 0.0932 0.61605 0.45473 0.0
O350 O 0.13346 0.64258 0.50201 0.0
O351 O 0.14359 0.66059 0.45299 0.0
C352 C 0.12328 0.55884 0.34083 0.0
C353 C 0.09244 0.5686 0.33263 0.0
H354 H 0.03232 0.59161 0.3256 0.0
H355 H 0.00781 0.63223 0.36019 0.0
H356 H 0.20593 0.57124 0.41125 0.0
H357 H 0.18169 0.54475 0.36489 0.0
H358 H 0.13425 0.53957 0.32797 0.0
H359 H 0.08012 0.55665 0.31363 0.0
Mn360 Mn 0.90275 0.86432 0.48051 0.0
Mn361 Mn 0.88846 0.85117 0.40341 0.0
C362 C 0.8991 0.90642 0.44542 0.0
C363 C 0.93996 0.87048 0.52071 0.0
C364 C 0.83843 0.84384 0.45494 0.0
O365 O 0.91534 0.81823 0.47462 0.0
O366 O 0.91022 0.81353 0.42172 0.0
C367 C 0.95374 0.84672 0.37793 0.0
N368 N 0.92491 0.86125 0.37843 0.0
C369 C 0.94158 0.89871 0.33893 0.0
C370 C 0.97136 0.88408 0.33797 0.0
C371 C 0.97744 0.85796 0.35754 0.0
C372 C 0.91868 0.88617 0.35939 0.0
H373 H 0.95875 0.82682 0.39308 0.0
C374 C 0.91999 0.80348 0.44865 0.0
O375 O 0.91087 0.86281 0.52726 0.0
O376 O 0.94711 0.87433 0.49124 0.0
N377 N 0.86924 0.88729 0.3838 0.0
C378 C 0.84045 0.90062 0.38967 0.0
C379 C 0.8313 0.92787 0.37305 0.0
C380 C 0.85193 0.94134 0.35077 0.0
C381 C 0.88159 0.92746 0.34536 0.0
C382 C 0.8893 0.9001 0.36239 0.0
H383 H 0.82473 0.89083 0.40719 0.0
O384 O 0.89383 0.91088 0.47531 0.0
O385 O 0.90467 0.87739 0.43744 0.0
O386 O 0.85553 0.85338 0.47791 0.0
O387 O 0.84892 0.84091 0.42674 0.0
C388 C 0.90412 0.94022 0.32435 0.0
C389 C 0.93406 0.92581 0.32108 0.0
H390 H 0.98984 0.89293 0.32256 0.0
H391 H 1.00043 0.84664 0.35706 0.0
H392 H 0.80851 0.93866 0.37762 0.0
H393 H 0.84492 0.96257 0.33827 0.0
H394 H 0.89883 0.96138 0.31092 0.0
H395 H 0.95133 0.93609 0.30519 0.0
Mn396 Mn 0.4008 0.62732 0.48409 0.0
Mn397 Mn 0.38269 0.64894 0.55811 0.0
C398 C 0.3889 0.58897 0.52163 0.0
C399 C 0.4412 0.61437 0.44904 0.0
C400 C 0.33813 0.6574 0.50191 0.0
O401 O 0.41703 0.67261 0.48691 0.0
O402 O 0.41176 0.68143 0.53921 0.0
C403 C 0.44578 0.64403 0.58852 0.0
N404 N 0.41469 0.63555 0.58729 0.0
C405 C 0.42105 0.60074 0.63186 0.0
C406 C 0.45281 0.61005 0.63425 0.0
C407 C 0.46528 0.63163 0.61233 0.0
C408 C 0.40253 0.61446 0.60805 0.0
H409 H 0.45585 0.65945 0.57101 0.0
C410 C 0.42282 0.68867 0.51181 0.0
O411 O 0.41388 0.62385 0.43847 0.0
O412 O 0.44454 0.61243 0.47931 0.0
N413 N 0.35626 0.61804 0.57841 0.0
C414 C 0.32661 0.60823 0.57034 0.0
C415 C 0.31153 0.58476 0.58835 0.0
C416 C 0.32723 0.57124 0.61424 0.0
C417 C 0.35799 0.58116 0.62173 0.0
C418 C 0.37168 0.60499 0.60318 0.0
H419 H 0.31469 0.61778 0.55001 0.0
O420 O 0.38644 0.58249 0.49178 0.0
O421 O 0.39732 0.61776 0.5279 0.0
O422 O 0.3551 0.64285 0.48158 0.0
O423 O 0.34726 0.66278 0.53026 0.0
C424 C 0.37594 0.56761 0.64628 0.0
C425 C 0.40743 0.57743 0.65138 0.0
H426 H 0.46808 0.60005 0.65221 0.0
H427 H 0.49001 0.63827 0.61345 0.0
H428 H 0.28798 0.57685 0.58206 0.0
H429 H 0.31567 0.55284 0.62783 0.0
H430 H 0.36595 0.54915 0.66099 0.0
H431 H 0.42121 0.56635 0.66989 0.0
Mn432 Mn 0.50833 0.60858 0.86271 0.0
Mn433 Mn 0.58156 0.62592 0.83687 0.0
C434 C 0.54977 0.61388 0.89844 0.0
C435 C 0.47229 0.56836 0.87486 0.0
C436 C 0.52651 0.67298 0.83692 0.0
O437 O 0.50686 0.59706 0.81615 0.0
O438 O 0.55908 0.59995 0.80431 0.0
C439 C 0.61373 0.56391 0.83002 0.0
N440 N 0.6112 0.59248 0.84471 0.0
C441 C 0.65668 0.58123 0.87709 0.0
C442 C 0.65903 0.55129 0.86302 0.0
C443 C 0.63761 0.5427 0.83919 0.0
C444 C 0.63255 0.6015 0.86674 0.0
H445 H 0.59795 0.55746 0.81115 0.0
C446 C 0.53057 0.5909 0.79846 0.0
O447 O 0.4624 0.59693 0.86898 0.0
O448 O 0.50249 0.56363 0.87351 0.0
N449 N 0.60445 0.64888 0.8687 0.0
C450 C 0.59776 0.67764 0.88167 0.0
C451 C 0.61689 0.68954 0.90602 0.0
C452 C 0.64246 0.67157 0.91722 0.0
C453 C 0.64856 0.64175 0.90407 0.0
C454 C 0.62886 0.63124 0.87959 0.0
H455 H 0.57762 0.69121 0.87402 0.0
O456 O 0.52069 0.61747 0.90777 0.0
O457 O 0.55311 0.60893 0.86851 0.0
O458 O 0.50669 0.65592 0.85211 0.0
O459 O 0.55375 0.6629 0.82823 0.0
C460 C 0.67293 0.62173 0.91486 0.0
C461 C 0.67706 0.59154 0.90131 0.0
H462 H 0.67728 0.53478 0.87022 0.0
H463 H 0.63955 0.51984 0.82783 0.0
H464 H 0.61169 0.71236 0.91641 0.0
H465 H 0.65696 0.68068 0.93626 0.0
H466 H 0.68846 0.62923 0.93379 0.0
H467 H 0.69579 0.57629 0.90993 0.0
Mn468 Mn 0.47833 0.91624 0.85781 0.0
Mn469 Mn 0.40439 0.89605 0.8366 0.0
C470 C 0.43989 0.90777 0.89605 0.0
C471 C 0.51261 0.95846 0.86822 0.0
C472 C 0.46065 0.85057 0.834 0.0
O473 O 0.47643 0.92867 0.81159 0.0
O474 O 0.4245 0.92098 0.80187 0.0
C475 C 0.37383 0.95908 0.83211 0.0
N476 N 0.37517 0.92964 0.8452 0.0
C477 C 0.33017 0.94085 0.87832 0.0
C478 C 0.32819 0.97114 0.86497 0.0
C479 C 0.35013 0.98028 0.84178 0.0
C480 C 0.35397 0.92049 0.86736 0.0
H481 H 0.39087 0.9665 0.81464 0.0
C482 C 0.45176 0.93242 0.79459 0.0
O483 O 0.52391 0.93059 0.86147 0.0
O484 O 0.48219 0.96124 0.86893 0.0
N485 N 0.3829 0.87363 0.8697 0.0
C486 C 0.39035 0.84524 0.88304 0.0
C487 C 0.37175 0.83342 0.90786 0.0
C488 C 0.34593 0.85108 0.91906 0.0
C489 C 0.33907 0.88052 0.90547 0.0
C490 C 0.35819 0.89093 0.88048 0.0
H491 H 0.41067 0.83195 0.87528 0.0
O492 O 0.46968 0.9058 0.90331 0.0
O493 O 0.4341 0.91367 0.86664 0.0
O494 O 0.48134 0.86895 0.84635 0.0
O495 O 0.43229 0.85932 0.8278 0.0
C496 C 0.3146 0.90037 0.91643 0.0
C497 C 0.31011 0.93048 0.90281 0.0
H498 H 0.31022 0.98774 0.87268 0.0
H499 H 0.34895 0.00373 0.83156 0.0
H500 H 0.37755 0.81091 0.9186 0.0
H501 H 0.3319 0.84207 0.93851 0.0
H502 H 0.29946 0.89294 0.93571 0.0
H503 H 0.29156 0.94575 0.91182 0.0
Mn504 Mn 0.51396 0.41582 0.63243 0.0
Mn505 Mn 0.58319 0.39185 0.66331 0.0
C506 C 0.55569 0.40278 0.59944 0.0
C507 C 0.48329 0.45852 0.61598 0.0
C508 C 0.52419 0.35032 0.66071 0.0
O509 O 0.51141 0.43127 0.67748 0.0
O510 O 0.56021 0.41842 0.69507 0.0
C511 C 0.61625 0.45327 0.67098 0.0
N512 N 0.61492 0.42378 0.65798 0.0
C513 C 0.66395 0.43228 0.6302 0.0
C514 C 0.66586 0.46265 0.64339 0.0
C515 C 0.64191 0.47317 0.66388 0.0
C516 C 0.63805 0.41327 0.63852 0.0
H517 H 0.59781 0.46168 0.68653 0.0
C518 C 0.53343 0.43261 0.69798 0.0
O519 O 0.46996 0.43171 0.62325 0.0
O520 O 0.51379 0.45997 0.61808 0.0
N521 N 0.60751 0.36764 0.63363 0.0
C522 C 0.60058 0.33908 0.62034 0.0
C523 C 0.6215 0.32581 0.59823 0.0
C524 C 0.64916 0.34216 0.5897 0.0
C525 C 0.65557 0.37174 0.60327 0.0
C526 C 0.63404 0.38363 0.62548 0.0
H527 H 0.57901 0.32675 0.62613 0.0
O528 O 0.52673 0.40172 0.58919 0.0
O529 O 0.55879 0.41031 0.62898 0.0
O530 O 0.5064 0.36995 0.64617 0.0
O531 O 0.55255 0.35676 0.66915 0.0
C532 C 0.68206 0.39024 0.59496 0.0
C533 C 0.68627 0.42047 0.60845 0.0
H534 H 0.68542 0.47823 0.63766 0.0
H535 H 0.64314 0.49665 0.67403 0.0
H536 H 0.61615 0.30317 0.58753 0.0
H537 H 0.66505 0.332 0.57235 0.0
H538 H 0.69909 0.38165 0.57784 0.0
H539 H 0.70648 0.43467 0.60151 0.0
Mn540 Mn 0.51033 0.10146 0.62185 0.0
Mn541 Mn 0.43622 0.12318 0.64055 0.0
C542 C 0.47451 0.11443 0.58224 0.0
C543 C 0.54431 0.05957 0.6105 0.0
C544 C 0.49428 0.16498 0.651 0.0
O545 O 0.50498 0.08585 0.66701 0.0
O546 O 0.4525 0.09369 0.67379 0.0
C547 C 0.40284 0.06164 0.63505 0.0
N548 N 0.40602 0.0925 0.62629 0.0
C549 C 0.36259 0.08789 0.58977 0.0
C550 C 0.35823 0.05641 0.59925 0.0
C551 C 0.37859 0.04318 0.62186 0.0
C552 C 0.38674 0.10538 0.60428 0.0
H553 H 0.41915 0.05096 0.65137 0.0
C554 C 0.47913 0.08146 0.68211 0.0
O555 O 0.55557 0.08653 0.62021 0.0
O556 O 0.51392 0.05737 0.60749 0.0
N557 N 0.41844 0.15024 0.60878 0.0
C558 C 0.42828 0.17943 0.59922 0.0
C559 C 0.41196 0.1951 0.57497 0.0
C560 C 0.38592 0.18046 0.56046 0.0
C561 C 0.37657 0.15017 0.5702 0.0
C562 C 0.39349 0.13586 0.59481 0.0
H563 H 0.44872 0.19052 0.60962 0.0
O564 O 0.50473 0.11558 0.57671 0.0
O565 O 0.46698 0.10678 0.61085 0.0
O566 O 0.51435 0.14712 0.63716 0.0
O567 O 0.46525 0.15724 0.65527 0.0
C568 C 0.35173 0.13326 0.55578 0.0
C569 C 0.3447 0.10216 0.56559 0.0
H570 H 0.33994 0.0419 0.58866 0.0
H571 H 0.37594 0.01864 0.6287 0.0
H572 H 0.41966 0.21827 0.56724 0.0
H573 H 0.37364 0.19247 0.54147 0.0
H574 H 0.33826 0.14374 0.5367 0.0
H575 H 0.32598 0.08916 0.55388 0.0
Mn576 Mn 0.86244 0.50481 0.59405 0.0
Mn577 Mn 0.83804 0.57567 0.61917 0.0
C578 C 0.90019 0.54169 0.60891 0.0
C579 C 0.8721 0.47419 0.54974 0.0
C580 C 0.83339 0.51477 0.65753 0.0
O581 O 0.81604 0.5069 0.58205 0.0
O582 O 0.80755 0.5593 0.5866 0.0
C583 C 0.8418 0.61595 0.56192 0.0
N584 N 0.85139 0.60936 0.59189 0.0
C585 C 0.88672 0.65413 0.59174 0.0
C586 C 0.87742 0.66108 0.56076 0.0
C587 C 0.85477 0.64195 0.54583 0.0
C588 C 0.87272 0.62805 0.60671 0.0
H589 H 0.82436 0.60154 0.55039 0.0
C590 C 0.80031 0.53179 0.5758 0.0
O591 O 0.86544 0.46077 0.5766 0.0
O592 O 0.87388 0.50475 0.54922 0.0
N593 N 0.8672 0.59349 0.64916 0.0
C594 C 0.87408 0.58363 0.67901 0.0
C595 C 0.89685 0.5999 0.69687 0.0
C596 C 0.91214 0.62643 0.68405 0.0
C597 C 0.90428 0.63662 0.65357 0.0
C598 C 0.88128 0.6195 0.63691 0.0
H599 H 0.86221 0.56369 0.68933 0.0
O600 O 0.90754 0.51196 0.60638 0.0
O601 O 0.8711 0.54862 0.60167 0.0
O602 O 0.85084 0.49778 0.63981 0.0
O603 O 0.82391 0.54263 0.65007 0.0
C604 C 0.91861 0.66295 0.63899 0.0
C605 C 0.90982 0.67171 0.6081 0.0
H606 H 0.88761 0.68094 0.54817 0.0
H607 H 0.84736 0.64718 0.52193 0.0
H608 H 0.90254 0.59203 0.72051 0.0
H609 H 0.9298 0.63886 0.69785 0.0
H610 H 0.93653 0.67654 0.65127 0.0
H611 H 0.92115 0.69187 0.59705 0.0
Mn612 Mn 0.13076 0.97593 0.59321 0.0
Mn613 Mn 0.15127 0.90422 0.61978 0.0
C614 C 0.09165 0.93825 0.60261 0.0
C615 C 0.12298 0.00797 0.54945 0.0
C616 C 0.15465 0.96456 0.65948 0.0
O617 O 0.17753 0.97263 0.58244 0.0
O618 O 0.18596 0.92084 0.59212 0.0
C619 C 0.15472 0.86612 0.56105 0.0
N620 N 0.14147 0.87163 0.58989 0.0
C621 C 0.10618 0.82729 0.58375 0.0
C622 C 0.1195 0.82117 0.55405 0.0
C623 C 0.1439 0.84066 0.54267 0.0
C624 C 0.11823 0.85275 0.60123 0.0
H625 H 0.17312 0.88124 0.55188 0.0
C626 C 0.19369 0.94729 0.57916 0.0
O627 O 0.12891 0.02043 0.5769 0.0
O628 O 0.12118 0.97744 0.54788 0.0
N629 N 0.11783 0.88639 0.64481 0.0
C630 C 0.10562 0.8969 0.6727 0.0
C631 C 0.08025 0.88064 0.6867 0.0
C632 C 0.06743 0.8539 0.67176 0.0
C633 C 0.08004 0.84373 0.64287 0.0
C634 C 0.10557 0.86069 0.63018 0.0
H635 H 0.11483 0.91776 0.68407 0.0
O636 O 0.08464 0.96819 0.60259 0.0
O637 O 0.12147 0.93217 0.5988 0.0
O638 O 0.14078 0.98266 0.63979 0.0
O639 O 0.16165 0.93571 0.65332 0.0
C640 C 0.06779 0.81782 0.62585 0.0
C641 C 0.08088 0.80958 0.59634 0.0
H642 H 0.11095 0.80179 0.53963 0.0
H643 H 0.15417 0.83622 0.51968 0.0
H644 H 0.07043 0.88886 0.70884 0.0
H645 H 0.04765 0.8416 0.68249 0.0
H646 H 0.04805 0.8043 0.63508 0.0
H647 H 0.07102 0.78984 0.5833 0.0
Mn648 Mn 0.88669 0.49983 0.90281 0.0
Mn649 Mn 0.86534 0.42552 0.88498 0.0
C650 C 0.92579 0.46237 0.894 0.0
C651 C 0.89474 0.53668 0.94246 0.0
C652 C 0.86053 0.4814 0.83979 0.0
O653 O 0.83995 0.49753 0.91432 0.0
O654 O 0.8328 0.4446 0.91382 0.0
C655 C 0.86612 0.39132 0.94617 0.0
N656 N 0.87782 0.39537 0.91648 0.0
C657 C 0.91364 0.3515 0.92324 0.0
C658 C 0.90237 0.3474 0.95409 0.0
C659 C 0.87838 0.36732 0.96554 0.0
C660 C 0.90027 0.37568 0.90491 0.0
H661 H 0.8474 0.40606 0.9549 0.0
C662 C 0.82454 0.47275 0.92199 0.0
O663 O 0.88819 0.54589 0.91391 0.0
O664 O 0.89702 0.50653 0.9475 0.0
N665 N 0.89664 0.40539 0.85878 0.0
C666 C 0.90534 0.41242 0.82859 0.0
C667 C 0.92949 0.39496 0.8139 0.0
C668 C 0.94436 0.37022 0.83025 0.0
C669 C 0.93476 0.363 0.86109 0.0
C670 C 0.91045 0.38119 0.8745 0.0
H671 H 0.89394 0.43106 0.81565 0.0
O672 O 0.93234 0.49236 0.89263 0.0
O673 O 0.89661 0.45558 0.90104 0.0
O674 O 0.87638 0.50093 0.85624 0.0
O675 O 0.85195 0.45409 0.84976 0.0
C676 C 0.9486 0.33867 0.87914 0.0
C677 C 0.93801 0.33287 0.91017 0.0
H678 H 0.91198 0.32907 0.96919 0.0
H679 H 0.86932 0.36416 0.98924 0.0
H680 H 0.93661 0.40057 0.78999 0.0
H681 H 0.96309 0.35689 0.81889 0.0
H682 H 0.96751 0.32433 0.86941 0.0
H683 H 0.94893 0.31419 0.92388 0.0
Mn684 Mn 0.12001 0.9895 0.90675 0.0
Mn685 Mn 0.1437 0.06168 0.88405 0.0
C686 C 0.08263 0.02762 0.89328 0.0
C687 C 0.10611 0.95664 0.94845 0.0
C688 C 0.15054 0.0023 0.84332 0.0
O689 O 0.16548 0.99206 0.92255 0.0
O690 O 0.17581 0.04383 0.91415 0.0
C691 C 0.13971 0.09637 0.94484 0.0
N692 N 0.1311 0.09329 0.914 0.0
C693 C 0.09686 0.13874 0.9177 0.0
C694 C 0.10627 0.14296 0.94915 0.0
C695 C 0.12764 0.12155 0.96283 0.0
C696 C 0.11022 0.11357 0.90071 0.0
H697 H 0.15494 0.07928 0.95588 0.0
C698 C 0.18229 0.01686 0.92677 0.0
O699 O 0.11546 0.94464 0.92174 0.0
O700 O 0.10508 0.98717 0.95057 0.0
N701 N 0.11321 0.08095 0.8565 0.0
C702 C 0.1033 0.07126 0.82744 0.0
C703 C 0.08014 0.08875 0.81134 0.0
C704 C 0.06702 0.11582 0.82542 0.0
C705 C 0.07705 0.12502 0.85559 0.0
C706 C 0.10058 0.10691 0.87034 0.0
H707 H 0.11258 0.05007 0.81677 0.0
O708 O 0.07531 0.99779 0.89229 0.0
O709 O 0.11172 0.03344 0.90097 0.0
O710 O 0.13518 0.98375 0.86147 0.0
O711 O 0.15684 0.0311 0.8505 0.0
C712 C 0.0639 0.15091 0.87197 0.0
C713 C 0.07382 0.15778 0.90299 0.0
H714 H 0.09653 0.16199 0.96328 0.0
H715 H 0.13438 0.12412 0.98734 0.0
H716 H 0.07217 0.08119 0.78826 0.0
H717 H 0.04885 0.12903 0.81309 0.0
H718 H 0.04568 0.16532 0.86114 0.0
H719 H 0.06305 0.17733 0.91559 0.0
Mn720 Mn 0.59477 0.86055 0.49675 0.0
Mn721 Mn 0.61368 0.84222 0.57163 0.0
C722 C 0.60342 0.90043 0.53365 0.0
C723 C 0.55499 0.87063 0.46003 0.0
C724 C 0.65953 0.83571 0.51626 0.0
O725 O 0.5803 0.81464 0.50093 0.0
O726 O 0.58776 0.80739 0.55319 0.0
C727 C 0.55044 0.84117 0.60211 0.0
N728 N 0.58024 0.85343 0.60007 0.0
C729 C 0.56985 0.88947 0.64289 0.0
C730 C 0.53917 0.87708 0.64552 0.0
C731 C 0.52944 0.85283 0.62503 0.0
C732 C 0.58994 0.87659 0.61988 0.0
H733 H 0.54262 0.82281 0.58623 0.0
C734 C 0.57592 0.79909 0.52649 0.0
O735 O 0.58309 0.86211 0.45076 0.0
O736 O 0.55034 0.87304 0.49014 0.0
N737 N 0.63716 0.87563 0.59144 0.0
C738 C 0.66645 0.88702 0.58406 0.0
C739 C 0.67907 0.91236 0.60141 0.0
C740 C 0.66142 0.92591 0.62604 0.0
C741 C 0.63124 0.91402 0.63307 0.0
C742 C 0.61999 0.88848 0.61518 0.0
H743 H 0.68 0.87713 0.56487 0.0
O744 O 0.60636 0.90631 0.50371 0.0
O745 O 0.59673 0.87135 0.5405 0.0
O746 O 0.64161 0.8478 0.49521 0.0
O747 O 0.65038 0.83069 0.54464 0.0
C748 C 0.61159 0.92703 0.65663 0.0
C749 C 0.58095 0.91471 0.66158 0.0
H750 H 0.52275 0.88628 0.66291 0.0
H751 H 0.50571 0.84329 0.62676 0.0
H752 H 0.70228 0.92159 0.59564 0.0
H753 H 0.67111 0.94568 0.63915 0.0
H754 H 0.61965 0.9468 0.67079 0.0
H755 H 0.5659 0.92521 0.67947 0.0
Mn756 Mn 0.5953 0.12613 0.00136 0.0
Mn757 Mn 0.61726 0.1496 0.92896 0.0
C758 C 0.60547 0.08827 0.96276 0.0
C759 C 0.55397 0.11538 0.03627 0.0
C760 C 0.66079 0.15144 0.98633 0.0
O761 O 0.58286 0.17291 -2e-05 0.0
O762 O 0.58916 0.18273 0.94804 0.0
C763 C 0.55532 0.1494 0.89593 0.0
N764 N 0.58588 0.13928 0.89795 0.0
C765 C 0.57962 0.10692 0.85154 0.0
C766 C 0.5485 0.11799 0.84837 0.0
C767 C 0.53622 0.13914 0.87082 0.0
C768 C 0.59777 0.1185 0.87673 0.0
H769 H 0.54532 0.1645 0.91377 0.0
C770 C 0.57798 0.18981 0.97541 0.0
O771 O 0.58204 0.1224 0.04673 0.0
O772 O 0.55018 0.11481 0.00593 0.0
N773 N 0.64295 0.11837 0.90822 0.0
C774 C 0.67233 0.10763 0.91616 0.0
C775 C 0.687 0.08441 0.89749 0.0
C776 C 0.67139 0.07243 0.87081 0.0
C777 C 0.64122 0.0838 0.86301 0.0
C778 C 0.62786 0.10718 0.88236 0.0
H779 H 0.68457 0.11659 0.93657 0.0
O780 O 0.60607 0.0807 0.99245 0.0
O781 O 0.59906 0.11778 0.95702 0.0
O782 O 0.64233 0.1366 0.00499 0.0
O783 O 0.65248 0.16054 0.9587 0.0
C784 C 0.62365 0.07235 0.83716 0.0
C785 C 0.59288 0.08393 0.83141 0.0
H786 H 0.53352 0.10968 0.82934 0.0
H787 H 0.51194 0.14712 0.86905 0.0
H788 H 0.71028 0.0757 0.90372 0.0
H789 H 0.68269 0.05432 0.85661 0.0
H790 H 0.63338 0.05427 0.82183 0.0
H791 H 0.57936 0.07449 0.81182 0.0
Mn792 Mn 0.41308 0.37058 0.98719 0.0
Mn793 Mn 0.39418 0.35253 0.91229 0.0
C794 C 0.40548 0.41069 0.95019 0.0
C795 C 0.45298 0.38049 0.02387 0.0
C796 C 0.34775 0.34684 0.96744 0.0
O797 O 0.42707 0.32448 0.98325 0.0
O798 O 0.41899 0.31691 0.93112 0.0
C799 C 0.45767 0.34951 0.88243 0.0
N800 N 0.4282 0.36258 0.88407 0.0
C801 C 0.44003 0.398 0.84112 0.0
C802 C 0.47037 0.38473 0.83886 0.0
C803 C 0.47921 0.36039 0.85962 0.0
C804 C 0.41934 0.38584 0.864 0.0
H805 H 0.46486 0.33114 0.89856 0.0
C806 C 0.43085 0.30854 0.95783 0.0
O807 O 0.4248 0.37226 0.0332 0.0
O808 O 0.45761 0.38263 0.99376 0.0
N809 N 0.37194 0.38659 0.89214 0.0
C810 C 0.34321 0.39928 0.89958 0.0
C811 C 0.33158 0.42498 0.88209 0.0
C812 C 0.34972 0.43766 0.85735 0.0
C813 C 0.37943 0.42459 0.85042 0.0
C814 C 0.38966 0.39871 0.86842 0.0
H815 H 0.32945 0.39024 0.91901 0.0
O816 O 0.40211 0.41651 0.9801 0.0
O817 O 0.4116 0.38143 0.9434 0.0
O818 O 0.36599 0.3582 0.98868 0.0
O819 O 0.35676 0.34221 0.93894 0.0
C820 C 0.39965 0.43683 0.82693 0.0
C821 C 0.4299 0.4235 0.82224 0.0
H822 H 0.48722 0.39336 0.82159 0.0
H823 H 0.50269 0.3502 0.8582 0.0
H824 H 0.30881 0.43522 0.88789 0.0
H825 H 0.34082 0.45774 0.84417 0.0
H826 H 0.39237 0.45683 0.81269 0.0
H827 H 0.44542 0.43344 0.80444 0.0
Mn828 Mn 0.90992 0.14113 0.01597 0.0
Mn829 Mn 0.88385 0.17226 0.08391 0.0
C830 C 0.89613 0.10747 0.05719 0.0
C831 C 0.95371 0.12601 0.98594 0.0
C832 C 0.84558 0.17107 0.02282 0.0
O833 O 0.92367 0.1875 0.01409 0.0
O834 O 0.9166 0.20117 0.06519 0.0
C835 C 0.93954 0.17494 0.12645 0.0
N836 N 0.91068 0.16261 0.11913 0.0
C837 C 0.91099 0.13053 0.16614 0.0
C838 C 0.94125 0.14201 0.17342 0.0
C839 C 0.95545 0.16455 0.15363 0.0
C840 C 0.89622 0.14191 0.13877 0.0
H841 H 0.95013 0.19289 0.11196 0.0
C842 C 0.92922 0.20535 0.03782 0.0
O843 O 0.92687 0.13262 0.97241 0.0
O844 O 0.95482 0.12839 0.01638 0.0
N845 N 0.85396 0.14413 0.10361 0.0
C846 C 0.82426 0.13595 0.094 0.0
C847 C 0.8067 0.11384 0.11148 0.0
C848 C 0.81965 0.10053 0.13893 0.0
C849 C 0.84993 0.10974 0.14882 0.0
C850 C 0.86633 0.13193 0.13042 0.0
H851 H 0.81384 0.14629 0.07332 0.0
O852 O 0.89713 0.09712 0.02834 0.0
O853 O 0.9027 0.13729 0.06043 0.0
O854 O 0.86369 0.15237 0.00763 0.0
O855 O 0.853 0.18309 0.04959 0.0
C856 C 0.86451 0.09766 0.17619 0.0
C857 C 0.89499 0.1081 0.18488 0.0
H858 H 0.95364 0.13394 0.19431 0.0
H859 H 0.97855 0.17404 0.1594 0.0
H860 H 0.78319 0.10713 0.10383 0.0
H861 H 0.80606 0.08342 0.15232 0.0
H862 H 0.85245 0.08038 0.19077 0.0
H863 H 0.90592 0.09872 0.20603 0.0
H864 H 0.10618 0.07064 0.54476 0.0
H865 H 0.12797 0.98737 0.48961 0.0
H866 H 0.1108 0.01391 0.44188 0.0
H867 H 0.08276 0.05697 0.41733 0.0
H868 H 0.06043 0.14143 0.46958 0.0
H869 H 0.08425 0.11812 0.51733 0.0
C870 C 0.10776 0.05869 0.52215 0.0
C871 C 0.11766 0.0269 0.52077 0.0
C872 C 0.09748 0.07409 0.4945 0.0
C873 C 0.11979 0.01162 0.49138 0.0
C874 C 0.11004 0.02676 0.46403 0.0
C875 C 0.08448 0.07098 0.43872 0.0
C876 C 0.07101 0.10122 0.4398 0.0
C877 C 0.09791 0.05748 0.46553 0.0
C878 C 0.0714 0.1183 0.46821 0.0
C879 C 0.08487 0.10492 0.4954 0.0
H880 H 0.91525 0.43456 0.41595 0.0
H881 H 0.94708 0.35128 0.46484 0.0
H882 H 0.92025 0.36941 0.51322 0.0
H883 H 0.89393 0.41334 0.54266 0.0
H884 H 0.86285 0.49575 0.49093 0.0
H885 H 0.88181 0.4728 0.44196 0.0
C886 C 0.91474 0.4194 0.43658 0.0
C887 C 0.93193 0.39113 0.43663 0.0
C888 C 0.89962 0.43005 0.46382 0.0
C889 C 0.93322 0.37284 0.46425 0.0
C890 C 0.91806 0.3833 0.49183 0.0
C891 C 0.89064 0.42574 0.52049 0.0
C892 C 0.87776 0.45646 0.5204 0.0
C893 C 0.90205 0.4125 0.49215 0.0
C894 C 0.87339 0.47237 0.49163 0.0
C895 C 0.88416 0.45928 0.46358 0.0
H896 H 0.03553 0.87058 0.04784 0.0
H897 H 0.05233 0.95429 0.1037 0.0
H898 H 0.08456 0.97683 0.06197 0.0
H899 H 0.10357 0.97545 0.00841 0.0
H900 H 0.08467 0.89487 0.94891 0.0
H901 H 0.05844 0.86791 0.99332 0.0
C902 C 0.0467 0.8935 0.05076 0.0
C903 C 0.04247 0.91044 0.07901 0.0
C904 C 0.06472 0.90684 0.02608 0.0
C905 C 0.05627 0.94043 0.08252 0.0
C906 C 0.07446 0.95347 0.0586 0.0
C907 C 0.09398 0.95183 0.00514 0.0
C908 C 0.09551 0.93734 0.97544 0.0
C909 C 0.07832 0.93719 0.03016 0.0
C910 C 0.08361 0.90652 0.97168 0.0
C911 C 0.06841 0.89126 0.99695 0.0
H912 H 0.95014 0.62839 0.0449 0.0
H913 H 0.91397 0.55336 0.10372 0.0
H914 H 0.8865 0.53028 0.05919 0.0
H915 H 0.88048 0.52591 0.00265 0.0
H916 H 0.92046 0.59652 0.94105 0.0
H917 H 0.93855 0.62702 0.98714 0.0
C918 C 0.93546 0.60754 0.04787 0.0
C919 C 0.93293 0.59332 0.07777 0.0
C920 C 0.92103 0.59324 0.02151 0.0
C921 C 0.91485 0.56568 0.08134 0.0
C922 C 0.89961 0.55208 0.05572 0.0
C923 C 0.89271 0.54828 0.99933 0.0
C924 C 0.89977 0.55877 0.96878 0.0
C925 C 0.90359 0.56493 0.0256 0.0
C926 C 0.91499 0.58801 0.96455 0.0
C927 C 0.9255 0.60526 0.99085 0.0
H928 H 0.45491 0.05279 0.12877 0.0
H929 H 0.39386 0.07734 0.05098 0.0
H930 H 0.4364 0.10651 0.02587 0.0
H931 H 0.49226 0.11907 0.0222 0.0
H932 H 0.55594 0.09253 0.09711 0.0
H933 H 0.51137 0.0704 0.12726 0.0
C934 C 0.45096 0.06519 0.10671 0.0
C935 C 0.42099 0.06388 0.09228 0.0
C936 C 0.47615 0.08112 0.09163 0.0
C937 C 0.41627 0.0792 0.06324 0.0
C938 C 0.44075 0.0955 0.04858 0.0
C939 C 0.49638 0.1088 0.04533 0.0
C940 C 0.5273 0.10692 0.05722 0.0
C941 C 0.47095 0.09581 0.06206 0.0
C942 C 0.53226 0.09409 0.08742 0.0
C943 C 0.50682 0.08128 0.10455 0.0
H944 H 0.54795 0.4473 0.11705 0.0
H945 H 0.61044 0.42539 0.03946 0.0
H946 H 0.56972 0.39348 0.01477 0.0
H947 H 0.51483 0.37784 0.01122 0.0
H948 H 0.44907 0.40275 0.08498 0.0
H949 H 0.49236 0.42692 0.11545 0.0
C950 C 0.55262 0.43492 0.0951 0.0
C951 C 0.5825 0.43771 0.08065 0.0
C952 C 0.52839 0.41747 0.08018 0.0
C953 C 0.58813 0.42244 0.05174 0.0
C954 C 0.56469 0.40452 0.03734 0.0
C955 C 0.50999 0.38814 0.0342 0.0
C956 C 0.47885 0.38901 0.04566 0.0
C957 C 0.53456 0.40264 0.05086 0.0
C958 C 0.47295 0.40191 0.07568 0.0
C959 C 0.49764 0.41595 0.09292 0.0
H960 H 0.49311 0.86632 0.47186 0.0
H961 H 0.55916 0.89431 0.39952 0.0
H962 H 0.51583 0.91874 0.36933 0.0
H963 H 0.46018 0.93906 0.36823 0.0
H964 H 0.39786 0.91485 0.44514 0.0
H965 H 0.43811 0.88148 0.46834 0.0
C966 C 0.49797 0.87729 0.44919 0.0
C967 C 0.52919 0.87904 0.43812 0.0
C968 C 0.47335 0.89192 0.43272 0.0
C969 C 0.53519 0.8928 0.40852 0.0
C970 C 0.51047 0.90698 0.39143 0.0
C971 C 0.45537 0.9257 0.38955 0.0
C972 C 0.42551 0.92814 0.40412 0.0
C973 C 0.47959 0.90776 0.40394 0.0
C974 C 0.41985 0.91178 0.43242 0.0
C975 C 0.44316 0.89318 0.44612 0.0
H976 H 0.50214 0.61816 0.46409 0.0
H977 H 0.44004 0.58943 0.38871 0.0
H978 H 0.48494 0.56428 0.36128 0.0
H979 H 0.54087 0.5445 0.36306 0.0
H980 H 0.59922 0.57026 0.44257 0.0
H981 H 0.557 0.60257 0.46405 0.0
C982 C 0.49845 0.60676 0.44141 0.0
C983 C 0.46792 0.60513 0.42861 0.0
C984 C 0.52381 0.59165 0.42665 0.0
C985 C 0.46347 0.59087 0.39899 0.0
C986 C 0.48905 0.57626 0.38353 0.0
C987 C 0.54427 0.55775 0.38473 0.0
C988 C 0.57344 0.55601 0.40067 0.0
C989 C 0.51917 0.57553 0.39774 0.0
C990 C 0.57745 0.57236 0.42922 0.0
C991 C 0.55319 0.59056 0.44175 0.0
H992 H 0.06594 0.41373 0.09424 0.0
H993 H 0.14732 0.46675 0.0636 0.0
H994 H 0.12686 0.51413 0.09053 0.0
H995 H 0.0817 0.54163 0.11676 0.0
H996 H 1.0007 0.48663 0.14604 0.0
H997 H 0.02578 0.43845 0.127 0.0
C998 C 0.08002 0.43519 0.09479 0.0
C999 C 0.10854 0.43657 0.07791 0.0
C1000 C 0.06795 0.46205 0.10991 0.0
C1001 C 0.12557 0.46509 0.07709 0.0
C1002 C 0.11378 0.49213 0.09233 0.0
C1003 C 0.07003 0.51895 0.11966 0.0
C1004 C 0.03919 0.51771 0.13226 0.0
C1005 C 0.08441 0.49115 0.10798 0.0
C1006 C 0.02422 0.48823 0.13589 0.0
C1007 C 0.0385 0.46065 0.125 0.0
H1008 H 0.08009 0.45153 0.40828 0.0
H1009 H 0.00175 0.50089 0.36522 0.0
H1010 H 0.02163 0.55105 0.38473 0.0
H1011 H 0.05518 0.57914 0.42153 0.0
H1012 H 0.13505 0.5329 0.46422 0.0
H1013 H 0.12056 0.483 0.43791 0.0
C1014 C 0.06816 0.47345 0.40233 0.0
C1015 C 0.03924 0.47256 0.38587 0.0
C1016 C 0.07965 0.50259 0.41398 0.0
C1017 C 0.0238 0.50102 0.37833 0.0
C1018 C 0.03509 0.52975 0.38948 0.0
C1019 C 0.07056 0.55871 0.42357 0.0
C1020 C 0.09679 0.55994 0.44365 0.0
C1021 C 0.06217 0.53061 0.40838 0.0
C1022 C 0.1151 0.53256 0.44815 0.0
C1023 C 0.10674 0.50409 0.43322 0.0
H1024 H 0.87661 0.96658 0.4345 0.0
H1025 H 0.95588 0.9043 0.41804 0.0
H1026 H 0.98478 0.94647 0.39221 0.0
H1027 H 0.99036 0.00172 0.37962 0.0
H1028 H 0.91473 0.06732 0.39915 0.0
H1029 H 0.88128 0.02337 0.41792 0.0
C1030 C 0.89996 0.96238 0.4247 0.0
C1031 C 0.91369 0.93213 0.4271 0.0
C1032 C 0.91716 0.98735 0.41072 0.0
C1033 C 0.94431 0.927 0.41525 0.0
C1034 C 0.96105 0.95121 0.40081 0.0
C1035 C 0.96643 0.00645 0.38774 0.0
C1036 C 0.95515 0.03761 0.38861 0.0
C1037 C 0.94803 0.98153 0.39909 0.0
C1038 C 0.9239 0.04339 0.39845 0.0
C1039 C 0.90494 0.01833 0.40937 0.0
H1040 H 0.44159 0.5858 0.55501 0.0
H1041 H 0.35681 0.53347 0.53409 0.0
H1042 H 0.37716 0.48807 0.56455 0.0
H1043 H 0.42211 0.4623 0.59327 0.0
H1044 H 0.5054 0.51808 0.61391 0.0
H1045 H 0.48208 0.5636 0.58831 0.0
C1046 C 0.42686 0.56504 0.55831 0.0
C1047 C 0.39733 0.56329 0.54349 0.0
C1048 C 0.43863 0.5396 0.57562 0.0
C1049 C 0.37939 0.53545 0.54604 0.0
C1050 C 0.39107 0.50958 0.56334 0.0
C1051 C 0.43474 0.48464 0.59268 0.0
C1052 C 0.46571 0.48658 0.60491 0.0
C1053 C 0.42108 0.51119 0.57775 0.0
C1054 C 0.48181 0.51569 0.60414 0.0
C1055 C 0.4685 0.54185 0.58956 0.0
H1056 H 0.62959 0.52346 0.98295 0.0
H1057 H 0.61578 0.59813 0.05097 0.0
H1058 H 0.59166 0.63147 0.01007 0.0
H1059 H 0.56836 0.63623 0.95621 0.0
H1060 H 0.57947 0.55852 0.89111 0.0
H1061 H 0.61111 0.52979 0.92927 0.0
C1062 C 0.62167 0.54719 0.98879 0.0
C1063 C 0.62391 0.55816 0.01993 0.0
C1064 C 0.60731 0.56571 0.96554 0.0
C1065 C 0.61408 0.58912 0.02708 0.0
C1066 C 0.60014 0.60809 0.00377 0.0
C1067 C 0.57839 0.61333 0.95039 0.0
C1068 C 0.5726 0.59995 0.92059 0.0
C1069 C 0.59569 0.59621 0.97311 0.0
C1070 C 0.58478 0.56986 0.91342 0.0
C1071 C 0.60252 0.55318 0.93539 0.0
H1072 H 0.36036 0.98543 0.99221 0.0
H1073 H 0.38708 0.9091 0.05415 0.0
H1074 H 0.40918 0.87978 0.00909 0.0
H1075 H 0.42787 0.88019 0.9532 0.0
H1076 H 0.40478 0.9603 0.89454 0.0
H1077 H 0.37385 0.98358 0.93681 0.0
C1078 C 0.37061 0.96214 0.9958 0.0
C1079 C 0.37273 0.94962 0.02633 0.0
C1080 C 0.38392 0.94614 0.97022 0.0
C1081 C 0.38541 0.91921 0.03072 0.0
C1082 C 0.39823 0.90261 0.00503 0.0
C1083 C 0.41535 0.90232 0.94969 0.0
C1084 C 0.41748 0.91797 0.92051 0.0
C1085 C 0.39871 0.91644 0.97484 0.0
C1086 C 0.40216 0.94713 0.91631 0.0
C1087 C 0.38488 0.96072 0.94064 0.0
H1088 H 0.56811 0.37384 0.54338 0.0
H1089 H 0.59604 0.45182 0.60279 0.0
H1090 H 0.62769 0.47395 0.56045 0.0
H1091 H 0.63847 0.47699 0.50416 0.0
H1092 H 0.60716 0.40246 0.44213 0.0
H1093 H 0.58586 0.37311 0.48745 0.0
C1094 C 0.58205 0.39507 0.54716 0.0
C1095 C 0.58067 0.41057 0.5765 0.0
C1096 C 0.59883 0.40877 0.5219 0.0
C1097 C 0.59799 0.43857 0.581 0.0
C1098 C 0.61558 0.45167 0.55652 0.0
C1099 C 0.62749 0.45402 0.50066 0.0
C1100 C 0.62368 0.44212 0.47 0.0
C1101 C 0.61488 0.4378 0.52655 0.0
C1102 C 0.61009 0.41211 0.46565 0.0
C1103 C 0.59777 0.39546 0.4915 0.0
H1104 H 0.44031 0.06227 0.57889 0.0
H1105 H 0.46345 0.14634 0.52647 0.0
H1106 H 0.43246 0.12657 0.4812 0.0
H1107 H 0.4026 0.08231 0.45564 0.0
H1108 H 0.38014 0.99948 0.51114 0.0
H1109 H 0.40615 0.02237 0.55669 0.0
C1110 C 0.43751 0.07692 0.55805 0.0
C1111 C 0.45306 0.1061 0.55624 0.0
C1112 C 0.41989 0.06548 0.53271 0.0
C1113 C 0.45101 0.12401 0.52843 0.0
C1114 C 0.43337 0.11268 0.50268 0.0
C1115 C 0.40281 0.06974 0.47795 0.0
C1116 C 0.38992 0.03903 0.47989 0.0
C1117 C 0.41815 0.08306 0.50437 0.0
C1118 C 0.39032 0.02291 0.50888 0.0
C1119 C 0.4052 0.03595 0.535 0.0
H1120 H 0.03412 0.5996 0.58926 0.0
H1121 H 0.98508 0.64025 0.50969 0.0
H1122 H 0.93445 0.62326 0.53119 0.0
H1123 H 0.90635 0.5868 0.56545 0.0
H1124 H 0.95326 0.54519 0.64539 0.0
H1125 H 0.00271 0.57214 0.63086 0.0
C1126 C 0.01221 0.60559 0.57733 0.0
C1127 C 0.01322 0.62049 0.54768 0.0
C1128 C 0.98298 0.59502 0.58952 0.0
C1129 C 0.98479 0.62821 0.53229 0.0
C1130 C 0.95584 0.61847 0.5445 0.0
C1131 C 0.92678 0.58526 0.58087 0.0
C1132 C 0.926 0.56494 0.60694 0.0
C1133 C 0.95487 0.60043 0.57214 0.0
C1134 C 0.95329 0.56135 0.62552 0.0
C1135 C 0.98156 0.57654 0.61707 0.0
H1136 H 0.00226 0.86152 0.51446 0.0
H1137 H 0.93199 0.89311 0.58114 0.0
H1138 H 0.97396 0.91332 0.61596 0.0
H1139 H 0.03056 0.92913 0.62287 0.0
H1140 H 0.0983 0.90073 0.55214 0.0
H1141 H 0.05791 0.87145 0.5241 0.0
C1142 C 0.99615 0.87231 0.53692 0.0
C1143 C 0.96423 0.87633 0.54508 0.0
C1144 C 0.02017 0.88437 0.5562 0.0
C1145 C 0.95652 0.88986 0.57439 0.0
C1146 C 0.9805 0.90162 0.59414 0.0
C1147 C 0.03644 0.9157 0.60184 0.0
C1148 C 0.06773 0.91594 0.59037 0.0
C1149 C 0.01241 0.90009 0.58468 0.0
C1150 C 0.07491 0.89944 0.56248 0.0
C1151 C 0.05161 0.88319 0.54599 0.0
H1152 H 0.05752 0.40204 0.92523 0.0
H1153 H 0.00301 0.36926 0.00508 0.0
H1154 H 0.9546 0.38857 0.98105 0.0
H1155 H 0.9297 0.42313 0.94285 0.0
H1156 H 0.98141 0.45552 0.86154 0.0
H1157 H 0.02925 0.42849 0.88072 0.0
C1158 C 0.03489 0.39837 0.93678 0.0
C1159 C 0.03386 0.38505 0.9672 0.0
C1160 C 0.00682 0.40987 0.92287 0.0
C1161 C 0.00444 0.3802 0.98197 0.0
C1162 C 0.97671 0.39119 0.96828 0.0
C1163 C 0.95088 0.42273 0.92836 0.0
C1164 C 0.95183 0.44021 0.90035 0.0
C1165 C 0.97785 0.40726 0.93949 0.0
C1166 C 0.98009 0.44147 0.88289 0.0
C1167 C 0.0074 0.42618 0.89394 0.0
H1168 H 0.08094 0.06382 0.94439 0.0
H1169 H 0.02699 0.03985 0.86167 0.0
H1170 H 0.9822 0.07157 0.88147 0.0
H1171 H 0.95716 0.1018 0.92563 0.0
H1172 H 0.01371 0.12474 0.00747 0.0
H1173 H 0.05924 0.09872 0.98412 0.0
C1174 C 0.05995 0.06671 0.92995 0.0
C1175 C 0.05758 0.05056 0.90116 0.0
C1176 C 0.03471 0.08462 0.94153 0.0
C1177 C 0.02947 0.05274 0.88364 0.0
C1178 C 0.00393 0.07074 0.89504 0.0
C1179 C 0.97965 0.10162 0.93795 0.0
C1180 C 0.98187 0.11473 0.96849 0.0
C1181 C 0.00603 0.08622 0.92441 0.0
C1182 C 0.01117 0.1144 0.9842 0.0
C1183 C 0.0373 0.09953 0.97088 0.0
H1184 H 0.52665 0.99907 0.61194 0.0
H1185 H 0.60629 0.05878 0.58962 0.0
H1186 H 0.63407 0.01324 0.56618 0.0
H1187 H 0.63212 0.95749 0.54613 0.0
H1188 H 0.54919 0.90126 0.56592 0.0
H1189 H 0.52635 0.94415 0.59637 0.0
C1190 C 0.55028 0.0021 0.60229 0.0
C1191 C 0.56425 0.03219 0.60199 0.0
C1192 C 0.56543 0.97633 0.58827 0.0
C1193 C 0.59507 0.03573 0.59 0.0
C1194 C 0.61078 0.00978 0.57638 0.0
C1195 C 0.60936 0.95469 0.55767 0.0
C1196 C 0.59278 0.92596 0.55475 0.0
C1197 C 0.5957 0.98013 0.57443 0.0
C1198 C 0.56292 0.92271 0.56894 0.0
C1199 C 0.54964 0.94736 0.58606 0.0
H1200 H 0.55735 0.08724 0.92222 0.0
H1201 H 0.63626 0.03171 0.95441 0.0
H1202 H 0.61684 0.98603 0.92397 0.0
H1203 H 0.57285 0.96063 0.89359 0.0
H1204 H 0.49568 0.01921 0.86107 0.0
H1205 H 0.51978 0.06543 0.88495 0.0
C1206 C 0.57137 0.0658 0.9211 0.0
C1207 C 0.59881 0.06321 0.93945 0.0
C1208 C 0.56014 0.04008 0.90363 0.0
C1209 C 0.61541 0.0344 0.93977 0.0
C1210 C 0.60422 0.00831 0.9225 0.0
C1211 C 0.56194 0.98371 0.89096 0.0
C1212 C 0.53219 0.98636 0.87616 0.0
C1213 C 0.57598 0.0106 0.90503 0.0
C1214 C 0.51828 0.01641 0.87287 0.0
C1215 C 0.53202 0.04294 0.88651 0.0
H1216 H 0.48652 0.50678 0.87262 0.0
H1217 H 0.41112 0.57058 0.89826 0.0
H1218 H 0.38129 0.52619 0.92138 0.0
H1219 H 0.38006 0.46976 0.9396 0.0
H1220 H 0.45941 0.40952 0.91723 0.0
H1221 H 0.4841 0.45172 0.88735 0.0
C1222 C 0.46339 0.51106 0.88298 0.0
C1223 C 0.45124 0.54195 0.88417 0.0
C1224 C 0.44708 0.48587 0.89685 0.0
C1225 C 0.42102 0.54696 0.89717 0.0
C1226 C 0.40411 0.52162 0.91057 0.0
C1227 C 0.40242 0.46593 0.9276 0.0
C1228 C 0.41726 0.43614 0.92945 0.0
C1229 C 0.41736 0.49106 0.91138 0.0
C1230 C 0.44676 0.43168 0.91482 0.0
C1231 C 0.46118 0.45598 0.8981 0.0
H1232 H 0.86593 0.05183 0.06992 0.0
H1233 H 0.94425 0.11068 0.09841 0.0
H1234 H 0.96459 0.06867 0.13176 0.0
H1235 H 0.96581 0.01269 0.14476 0.0
H1236 H 0.89094 0.95102 0.11331 0.0
H1237 H 0.86337 0.99632 0.08951 0.0
C1238 C 0.88683 0.0556 0.08432 0.0
C1239 C 0.90295 0.0847 0.08262 0.0
C1240 C 0.8994 0.03054 0.10234 0.0
C1241 C 0.9306 0.08909 0.10047 0.0
C1242 C 0.94261 0.06482 0.11912 0.0
C1243 C 0.94308 0.00928 0.13328 0.0
C1244 C 0.93062 0.97865 0.13027 0.0
C1245 C 0.92798 0.0351 0.11912 0.0
C1246 C 0.90099 0.97448 0.11581 0.0
C1247 C 0.8854 1.00033 0.10199 0.0
H1248 H 0.98368 0.18955 0.32872 0.0
H1249 H 0.08316 0.21094 0.33834 0.0
H1250 H 0.0717 0.26742 0.33564 0.0
H1251 H 0.03261 0.31074 0.3374 0.0
H1252 H 0.93362 0.28904 0.32346 0.0
H1253 H 0.94589 0.23292 0.32042 0.0
C1254 C 0.00292 0.20654 0.32974 0.0
C1255 C 0.03407 0.196 0.33482 0.0
C1256 C 0.99627 0.23904 0.32761 0.0
C1257 C 0.05882 0.21833 0.33516 0.0
C1258 C 0.05231 0.25072 0.33364 0.0
C1259 C 0.01378 0.2938 0.33317 0.0
C1260 C 0.98215 0.30417 0.33167 0.0
C1261 C 0.02099 0.26137 0.331 0.0
C1262 C 0.95817 0.28187 0.32532 0.0
C1263 C 0.96511 0.24963 0.32365 0.0
H1264 H 0.93814 0.70958 0.17861 0.0
H1265 H 0.03574 0.67966 0.17246 0.0
H1266 H 0.05302 0.73478 0.17611 0.0
H1267 H 0.04023 0.79157 0.17611 0.0
H1268 H 0.94233 0.82111 0.17686 0.0
H1269 H 0.92546 0.76599 0.18067 0.0
C1270 C 0.96325 0.71494 0.17843 0.0
C1271 C 0.98557 0.69034 0.17503 0.0
C1272 C 0.97298 0.74673 0.17939 0.0
C1273 C 0.01799 0.69801 0.17484 0.0
C1274 C 0.0279 0.72957 0.17688 0.0
C1275 C 0.0152 0.78604 0.17743 0.0
C1276 C 0.99259 0.81058 0.17587 0.0
C1277 C 0.00558 0.75417 0.17839 0.0
C1278 C 0.96026 0.8028 0.17772 0.0
C1279 C 0.95057 0.77124 0.17986 0.0
H1280 H 0.32852 0.05616 0.21397 0.0
H1281 H 0.31985 0.96048 0.17932 0.0
H1282 H 0.31604 0.94081 0.23339 0.0
H1283 H 0.32061 0.95003 0.29033 0.0
H1284 H 0.33572 0.04493 0.32496 0.0
H1285 H 0.33127 0.0656 0.27126 0.0
C1286 C 0.3255 0.03104 0.21819 0.0
C1287 C 0.32482 0.00982 0.19252 0.0
C1288 C 0.3247 0.01969 0.24945 0.0
C1289 C 0.32075 0.97734 0.19858 0.0
C1290 C 0.31861 0.96604 0.22953 0.0
C1291 C 0.3226 0.97529 0.28627 0.0
C1292 C 0.32882 0.99581 0.31176 0.0
C1293 C 0.32141 0.98689 0.25516 0.0
C1294 C 0.3312 0.02851 0.30584 0.0
C1295 C 0.32872 0.04036 0.27509 0.0
H1296 H 0.67269 0.44548 0.20287 0.0
H1297 H 0.67388 0.54289 0.17205 0.0
H1298 H 0.67609 0.56063 0.22684 0.0
H1299 H 0.67306 0.54875 0.28334 0.0
H1300 H 0.66761 0.45151 0.31425 0.0
H1301 H 0.67198 0.43353 0.25962 0.0
C1302 C 0.6738 0.47059 0.20808 0.0
C1303 C 0.67287 0.4928 0.18331 0.0
C1304 C 0.67411 0.4807 0.23971 0.0
C1305 C 0.67429 0.52525 0.19061 0.0
C1306 C 0.67554 0.53544 0.22196 0.0
C1307 C 0.67321 0.52359 0.27825 0.0
C1308 C 0.66977 0.50156 0.30296 0.0
C1309 C 0.67475 0.51341 0.2467 0.0
C1310 C 0.66998 0.46905 0.29575 0.0
C1311 C 0.67244 0.45872 0.26448 0.0
H1312 H 0.32016 0.33949 0.02567 0.0
H1313 H 0.29803 0.34227 0.92623 0.0
H1314 H 0.24163 0.34114 0.93827 0.0
H1315 H 0.19809 0.34321 0.97722 0.0
H1316 H 0.22038 0.33552 0.07641 0.0
H1317 H 0.27665 0.33439 0.06418 0.0
C1318 C 0.30304 0.33954 0.0066 0.0
C1319 C 0.3136 0.34164 0.97511 0.0
C1320 C 0.27038 0.33814 0.01362 0.0
C1321 C 0.29086 0.34106 0.95075 0.0
C1322 C 0.25843 0.34045 0.95759 0.0
C1323 C 0.2152 0.34094 0.99616 0.0
C1324 C 0.20469 0.34012 0.02775 0.0
C1325 C 0.24785 0.33961 0.98897 0.0
C1326 C 0.22745 0.33659 0.05185 0.0
C1327 C 0.25983 0.33599 0.04492 0.0
H1328 H 0.20178 0.66734 0.44315 0.0
H1329 H 0.17594 0.66195 0.54166 0.0
H1330 H 0.23166 0.66694 0.55656 0.0
H1331 H 0.28787 0.66687 0.54147 0.0
H1332 H 0.31344 0.66517 0.44276 0.0
H1333 H 0.25768 0.66945 0.42814 0.0
C1334 C 0.20817 0.66763 0.46794 0.0
C1335 C 0.18457 0.66393 0.49123 0.0
C1336 C 0.24033 0.66904 0.47629 0.0
C1337 C 0.19353 0.66448 0.5232 0.0
C1338 C 0.22543 0.66727 0.53174 0.0
C1339 C 0.28135 0.66774 0.51674 0.0
C1340 C 0.30493 0.66526 0.49325 0.0
C1341 C 0.2491 0.66862 0.50846 0.0
C1342 C 0.29587 0.66672 0.46134 0.0
C1343 C 0.26394 0.66908 0.45295 0.0
H1344 H 0.68886 0.83767 0.45844 0.0
H1345 H 0.70756 0.82253 0.55756 0.0
H1346 H 0.76424 0.82251 0.54729 0.0
H1347 H 0.80892 0.83114 0.51098 0.0
H1348 H 0.79049 0.84333 0.4115 0.0
H1349 H 0.73367 0.84002 0.42119 0.0
C1350 C 0.70527 0.83395 0.47777 0.0
C1351 C 0.69368 0.83061 0.50881 0.0
C1352 C 0.73811 0.83374 0.47173 0.0
C1353 C 0.71552 0.8254 0.53341 0.0
C1354 C 0.74811 0.82551 0.52762 0.0
C1355 C 0.7925 0.83283 0.49137 0.0
C1356 C 0.80411 0.83806 0.46065 0.0
C1357 C 0.75971 0.8304 0.497 0.0
C1358 C 0.78239 0.83959 0.43547 0.0
C1359 C 0.74977 0.83773 0.44097 0.0
H1360 H 0.51912 0.82234 0.82943 0.0
H1361 H 0.41901 0.80146 0.82824 0.0
H1362 H 0.43022 0.74506 0.82884 0.0
H1363 H 0.46834 0.7012 0.83331 0.0
H1364 H 0.56833 0.72155 0.82757 0.0
H1365 H 0.55723 0.77809 0.82582 0.0
C1366 C 0.49977 0.80547 0.82901 0.0
C1367 C 0.46828 0.8164 0.82967 0.0
C1368 C 0.50631 0.77273 0.82831 0.0
C1369 C 0.44354 0.79401 0.82834 0.0
C1370 C 0.44988 0.76157 0.82867 0.0
C1371 C 0.48769 0.71799 0.83143 0.0
C1372 C 0.51913 0.707 0.83151 0.0
C1373 C 0.48116 0.75062 0.8293 0.0
C1374 C 0.54386 0.72917 0.82821 0.0
C1375 C 0.53757 0.76165 0.82716 0.0
H1376 H 0.55962 0.29746 0.67089 0.0
H1377 H 0.46291 0.32885 0.66026 0.0
H1378 H 0.44482 0.27387 0.66079 0.0
H1379 H 0.45695 0.21706 0.65905 0.0
H1380 H 0.55434 0.18615 0.66261 0.0
H1381 H 0.57163 0.24079 0.67039 0.0
C1382 C 0.53453 0.29241 0.66894 0.0
C1383 C 0.5127 0.31738 0.66523 0.0
C1384 C 0.52444 0.26074 0.6678 0.0
C1385 C 0.48027 0.31017 0.6629 0.0
C1386 C 0.46991 0.27871 0.66315 0.0
C1387 C 0.48196 0.22217 0.66177 0.0
C1388 C 0.50434 0.19747 0.6599 0.0
C1389 C 0.49187 0.2538 0.66475 0.0
C1390 C 0.53662 0.20467 0.66367 0.0
C1391 C 0.54654 0.23593 0.66807 0.0
H1392 H 0.80774 0.48601 0.80206 0.0
H1393 H 0.9098 0.49039 0.80165 0.0
H1394 H 0.91002 0.49706 0.74454 0.0
H1395 H 0.88173 0.50261 0.69509 0.0
H1396 H 0.77994 0.50787 0.69443 0.0
H1397 H 0.77868 0.49611 0.75147 0.0
C1398 C 0.82985 0.48858 0.78927 0.0
C1399 C 0.85874 0.48757 0.80572 0.0
C1400 C 0.82977 0.4938 0.75638 0.0
C1401 C 0.88735 0.49128 0.78927 0.0
C1402 C 0.88751 0.49488 0.75668 0.0
C1403 C 0.85924 0.50069 0.70742 0.0
C1404 C 0.83096 0.50527 0.69081 0.0
C1405 C 0.85894 0.49614 0.74006 0.0
C1406 C 0.80195 0.50393 0.70694 0.0
C1407 C 0.80131 0.49742 0.73945 0.0
H1408 H 0.16328 0.93047 0.71353 0.0
H1409 H 0.15884 0.02631 0.67854 0.0
H1410 H 0.16188 0.04656 0.73249 0.0
H1411 H 0.16051 0.037 0.78973 0.0
H1412 H 0.15852 0.941 0.8245 0.0
H1413 H 0.16382 0.92097 0.77067 0.0
C1414 C 0.1633 0.95581 0.71761 0.0
C1415 C 0.16052 0.97679 0.6919 0.0
C1416 C 0.16376 0.96729 0.74879 0.0
C1417 C 0.16066 0.00957 0.69782 0.0
C1418 C 0.16238 0.02119 0.72871 0.0
C1419 C 0.16152 0.0117 0.78562 0.0
C1420 C 0.15871 0.99057 0.81121 0.0
C1421 C 0.1631 1.00027 0.75443 0.0
C1422 C 0.16032 0.95783 0.80529 0.0
C1423 C 0.16328 0.94633 0.77447 0.0
H1424 H 0.80435 0.12365 0.01598 0.0
H1425 H 0.81187 0.22491 0.00814 0.0
H1426 H 0.75518 0.22833 0.99475 0.0
H1427 H 0.7027 0.20178 0.98659 0.0
H1428 H 0.69563 0.1013 0.00304 0.0
H1429 H 0.75254 0.09819 0.01212 0.0
C1430 C 0.79359 0.14642 0.01094 0.0
C1431 C 0.81224 0.17391 0.01231 0.0
C1432 C 0.76087 0.14828 0.0053 0.0
C1433 C 0.79796 0.20341 0.00676 0.0
C1434 C 0.76556 0.20532 0.99931 0.0
C1435 C 0.71373 0.17936 0.99241 0.0
C1436 C 0.69499 0.15179 0.99427 0.0
C1437 C 0.74662 0.17788 0.99878 0.0
C1438 C 0.70949 0.12287 0.00191 0.0
C1439 C 0.74208 0.12101 0.00685 0.0
H1440 H 0.06944 0.95676 0.22863 0.0
H1441 H 0.96821 0.94837 0.24036 0.0
H1442 H 0.96799 0.99591 0.27327 0.0
H1443 H 0.99606 0.04156 0.29584 0.0
H1444 H 0.09652 0.05232 0.27919 0.0
H1445 H 0.09697 0.00318 0.24911 0.0
C1446 C 0.04722 0.96526 0.23815 0.0
C1447 C 0.01882 0.94912 0.23145 0.0
C1448 C 0.04693 0.99371 0.25526 0.0
C1449 C 0.99046 0.96028 0.24495 0.0
C1450 C 0.99025 0.98772 0.26345 0.0
C1451 C 0.01803 0.03356 0.28522 0.0
C1452 C 0.04623 0.05091 0.28986 0.0
C1453 C 0.01822 0.00511 0.26801 0.0
C1454 C 0.0744 0.03976 0.27598 0.0
C1455 C 0.07478 0.01139 0.25905 0.0
H1456 H 0.91444 0.46398 0.29398 0.0
H1457 H 0.00996 0.4342 0.27336 0.0
H1458 H 0.01803 0.48149 0.24121 0.0
H1459 H 0.99867 0.53193 0.22062 0.0
H1460 H 0.90399 0.56322 0.24363 0.0
H1461 H 0.89558 0.51539 0.27481 0.0
C1462 C 0.93696 0.46767 0.28241 0.0
C1463 C 0.96155 0.44554 0.28625 0.0
C1464 C 0.94197 0.49568 0.26526 0.0
C1465 C 0.99057 0.45078 0.27075 0.0
C1466 C 0.99534 0.47801 0.25267 0.0
C1467 C 0.97636 0.52874 0.23292 0.0
C1468 C 0.95206 0.55141 0.22977 0.0
C1469 C 0.97143 0.50092 0.25033 0.0
C1470 C 0.92323 0.54641 0.24571 0.0
C1471 C 0.91824 0.51883 0.26326 0.0
H1472 H 0.2051 0.06529 0.96284 0.0
H1473 H 0.21495 0.96481 0.94766 0.0
H1474 H 0.2488 0.96095 0.99439 0.0
H1475 H 0.27413 0.98597 0.04051 0.0
H1476 H 0.25837 0.08545 0.05849 0.0
H1477 H 0.22656 0.0893 0.01076 0.0
C1478 C 0.21432 0.04245 0.96972 0.0
C1479 C 0.20712 0.01537 0.95169 0.0
C1480 C 0.23201 0.04003 0.99772 0.0
C1481 C 0.22007 0.98611 0.96095 0.0
C1482 C 0.23916 0.98382 0.98791 0.0
C1483 C 0.2633 0.00842 0.03442 0.0
C1484 C 0.26902 0.03542 0.05327 0.0
C1485 C 0.2448 0.01054 0.00682 0.0
C1486 C 0.25461 0.06421 0.04467 0.0
C1487 C 0.23661 0.06656 0.0171 0.0
H1488 H 0.71465 0.50835 0.0168 0.0
H1489 H 0.76321 0.4385 0.07324 0.0
H1490 H 0.80287 0.43196 0.03168 0.0
H1491 H 0.8222 0.44439 0.97873 0.0
H1492 H 0.77345 0.51256 0.92105 0.0
H1493 H 0.73516 0.52173 0.96384 0.0
C1494 C 0.73434 0.49224 0.02034 0.0
C1495 C 0.73616 0.47412 0.04827 0.0
C1496 C 0.75643 0.4878 0.99587 0.0
C1497 C 0.76143 0.45287 0.05213 0.0
C1498 C 0.78392 0.44892 0.02826 0.0
C1499 C 0.8026 0.46036 0.97504 0.0
C1500 C 0.7997 0.4766 0.94624 0.0
C1501 C 0.78116 0.46565 -0.00023 0.0
C1502 C 0.77553 0.49912 0.94273 0.0
C1503 C 0.75387 0.50451 0.96726 0.0
H1504 H 0.2793 0.91701 0.46158 0.0
H1505 H 0.2703 0.01766 0.44732 0.0
H1506 H 0.23743 0.02154 0.49482 0.0
H1507 H 0.21305 0.99644 0.54147 0.0
H1508 H 0.22909 0.89689 0.55882 0.0
H1509 H 0.25941 0.89301 0.5101 0.0
C1510 C 0.27058 0.9399 0.46885 0.0
C1511 C 0.2777 0.967 0.45085 0.0
C1512 C 0.25373 0.94232 0.49735 0.0
C1513 C 0.26522 0.99633 0.46058 0.0
C1514 C 0.24674 0.99863 0.48798 0.0
C1515 C 0.22364 0.97396 0.53502 0.0
C1516 C 0.21831 0.94691 0.55392 0.0
C1517 C 0.24139 0.97186 0.50692 0.0
C1518 C 0.23245 0.91812 0.5449 0.0
C1519 C 0.24961 0.91576 0.51678 0.0
H1520 H 0.7975 0.56658 0.5225 0.0
H1521 H 0.75313 0.48817 0.57004 0.0
H1522 H 0.72039 0.47797 0.52331 0.0
H1523 H 0.70467 0.49162 0.46911 0.0
H1524 H 0.74926 0.57053 0.42194 0.0
H1525 H 0.78235 0.57997 0.46834 0.0
C1526 C 0.77997 0.548 0.52309 0.0
C1527 C 0.77685 0.52896 0.55013 0.0
C1528 C 0.76205 0.54179 0.49588 0.0
C1529 C 0.75529 0.50365 0.54976 0.0
C1530 C 0.73691 0.49761 0.52294 0.0
C1531 C 0.72215 0.51043 0.46863 0.0
C1532 C 0.72478 0.5301 0.44183 0.0
C1533 C 0.74035 0.51636 0.49575 0.0
C1534 C 0.74702 0.55484 0.44205 0.0
C1535 C 0.76567 0.56046 0.46871 0.0
H1536 H 0.03755 0.30432 0.00735 0.0
H1537 H 0.07977 0.25868 0.08825 0.0
H1538 H 0.03422 0.22309 0.09205 0.0
H1539 H 0.98211 0.20594 0.07322 0.0
H1540 H 0.93835 0.25248 0.99413 0.0
H1541 H 0.98511 0.28673 0.98839 0.0
C1542 C 0.03717 0.28617 0.02546 0.0
C1543 C 0.06241 0.28395 0.0473 0.0
C1544 C 0.0104 0.26644 0.0281 0.0
C1545 C 0.06096 0.26075 0.071 0.0
C1546 C 0.03478 0.24056 0.07331 0.0
C1547 C 0.98222 0.22434 0.05552 0.0
C1548 C 0.95614 0.22772 0.03512 0.0
C1549 C 0.00916 0.24361 0.05239 0.0
C1550 C 0.95779 0.25003 0.01062 0.0
C1551 C 0.98459 0.26942 0.00727 0.0
H1552 H 0.0283 0.70602 0.41755 0.0
H1553 H 0.05562 0.72933 0.51288 0.0
H1554 H 0.00996 0.76452 0.51763 0.0
H1555 H 0.96165 0.7876 0.4952 0.0
H1556 H 0.93281 0.76181 0.40079 0.0
H1557 H 0.97885 0.72727 0.39591 0.0
C1558 C 0.02444 0.71881 0.43932 0.0
C1559 C 0.04547 0.7149 0.46479 0.0
C1560 C 0.99728 0.73782 0.44245 0.0
C1561 C 0.03994 0.73195 0.49281 0.0
C1562 C 0.01362 0.75181 0.49569 0.0
C1563 C 0.96493 0.77391 0.47378 0.0
C1564 C 0.94351 0.7773 0.44847 0.0
C1565 C 0.9918 0.75447 0.47086 0.0
C1566 C 0.94867 0.75961 0.42076 0.0
C1567 C 0.97524 0.7401 0.41778 0.0
H1568 H 0.53655 0.78037 0.47822 0.0
H1569 H 0.55779 0.76238 0.57644 0.0
H1570 H 0.5099 0.73092 0.58136 0.0
H1571 H 0.46087 0.7105 0.55893 0.0
H1572 H 0.44224 0.72183 0.45945 0.0
H1573 H 0.48923 0.75544 0.4544 0.0
C1574 C 0.53114 0.76906 0.50056 0.0
C1575 C 0.55096 0.77412 0.52695 0.0
C1576 C 0.5034 0.75065 0.50333 0.0
C1577 C 0.54321 0.75916 0.55566 0.0
C1578 C 0.51554 0.74134 0.55865 0.0
C1579 C 0.46705 0.71998 0.53603 0.0
C1580 C 0.44795 0.71332 0.50962 0.0
C1581 C 0.49519 0.73743 0.53284 0.0
C1582 C 0.45634 0.72658 0.48028 0.0
C1583 C 0.48345 0.74552 0.47728 0.0
H1584 H 0.5505 0.53188 0.80718 0.0
H1585 H 0.49914 0.59041 0.74165 0.0
H1586 H 0.49194 0.54459 0.7064 0.0
H1587 H 0.50341 0.4889 0.69328 0.0
H1588 H 0.55863 0.43189 0.75743 0.0
H1589 H 0.56138 0.4763 0.79452 0.0
C1590 C 0.53854 0.53475 0.78472 0.0
C1591 C 0.52657 0.56457 0.77614 0.0
C1592 C 0.53489 0.50856 0.76478 0.0
C1593 C 0.50924 0.56775 0.74813 0.0
C1594 C 0.50504 0.54158 0.7282 0.0
C1595 C 0.51543 0.48594 0.71572 0.0
C1596 C 0.53046 0.45697 0.72287 0.0
C1597 C 0.51806 0.51196 0.73619 0.0
C1598 C 0.54666 0.4538 0.75161 0.0
C1599 C 0.54842 0.47923 0.77264 0.0
H1600 H 0.50295 0.9675 0.77562 0.0
H1601 H 0.40343 0.9528 0.75664 0.0
H1602 H 0.40248 1.00019 0.72406 0.0
H1603 H 0.42885 0.04709 0.70319 0.0
H1604 H 0.52945 0.05906 0.71648 0.0
H1605 H 0.53051 0.0124 0.75069 0.0
C1606 C 0.48113 0.97421 0.76391 0.0
C1607 C 0.45323 0.95649 0.76898 0.0
C1608 C 0.48066 0.00163 0.74506 0.0
C1609 C 0.4253 0.9658 0.7534 0.0
C1610 C 0.4246 0.99318 0.73498 0.0
C1611 C 0.45113 0.03953 0.71326 0.0
C1612 C 0.47905 0.05663 0.70697 0.0
C1613 C 0.45196 0.01159 0.73118 0.0
C1614 C 0.50753 0.0465 0.72094 0.0
C1615 C 0.50823 0.01958 0.74021 0.0
H1616 H 0.46727 0.2864 0.0072 0.0
H1617 H 0.44997 0.27278 0.90751 0.0
H1618 H 0.49642 0.23912 0.90371 0.0
H1619 H 0.54314 0.21535 0.92762 0.0
H1620 H 0.55725 0.22175 0.02827 0.0
H1621 H 0.51195 0.2578 0.03236 0.0
C1622 C 0.47323 0.27561 0.98473 0.0
C1623 C 0.45494 0.28259 0.95764 0.0
C1624 C 0.50005 0.25572 0.98264 0.0
C1625 C 0.46335 0.26818 0.92883 0.0
C1626 C 0.49021 0.24905 0.9265 0.0
C1627 C 0.53633 0.22422 0.95059 0.0
C1628 C 0.55374 0.21548 0.97759 0.0
C1629 C 0.50902 0.2431 0.95309 0.0
C1630 C 0.54451 0.22805 0.00699 0.0
C1631 C 0.51834 0.24843 0.0094 0.0
loop_
_geom_bond_atom_site_label_1
_geom_bond_atom_site_label_2
_geom_bond_distance
_geom_bond_site_symmetry_2
_ccdc_geom_bond_type
Mn0 O5 2.095 . S
Mn0 O15 2.162 . S
Mn0 O16 2.297 . S
Mn0 O24 2.385 1_655 S
Mn0 O25 2.209 1_655 S
Mn0 O26 2.094 . S
Mn1 O6 2.121 . S
Mn1 N8 2.257 . S
Mn1 N17 2.282 . S
Mn1 O25 2.215 . S
Mn1 O27 2.117 . S
C2 O24 1.234 . S
C2 O25 1.283 . S
C3 O15 1.281 . S
C3 O16 1.236 . S
C4 O26 1.240 . S
C4 O27 1.264 1_655 S
O5 Mn0 2.095 . S
O5 C14 1.250 1_655 S
O6 Mn1 2.121 . S
O6 C14 1.258 . S
C7 N8 1.326 . S
C7 C11 1.460 . S
C7 H13 0.929 . S
N8 Mn1 2.257 . S
N8 C7 1.326 . S
N8 C12 1.362 . S
C9 C10 1.258 . S
C9 C12 1.431 . S
C9 C29 1.449 . S
C10 C9 1.258 . S
C10 C11 1.477 . S
C10 H30 0.931 . S
C11 C7 1.460 . S
C11 C10 1.477 . S
C11 H31 0.930 . S
C12 N8 1.362 . S
C12 C9 1.431 . S
C12 C22 1.476 . S
H13 C7 0.929 . S
C14 O5 1.250 1_455 S
C14 O6 1.258 . S
O15 Mn0 2.162 . S
O15 C3 1.281 . S
O16 Mn0 2.297 . S
O16 C3 1.236 . S
N17 Mn1 2.282 . S
N17 C18 1.328 . S
N17 C22 1.318 . S
C18 N17 1.328 . S
C18 C19 1.457 . S
C18 H23 0.929 . S
C19 C18 1.457 . S
C19 C20 1.291 . S
C19 H32 0.931 . S
C20 C19 1.291 . S
C20 C21 1.373 . S
C20 H33 0.929 . S
C21 C20 1.373 . S
C21 C22 1.396 . S
C21 C28 1.403 . S
C22 C12 1.476 . S
C22 N17 1.318 . S
C22 C21 1.396 . S
H23 C18 0.929 . S
O24 Mn0 2.385 1_455 S
O24 C2 1.234 . S
O25 Mn0 2.209 1_455 S
O25 Mn1 2.215 . S
O25 C2 1.283 . S
O26 Mn0 2.094 . S
O26 C4 1.240 . S
O27 Mn1 2.117 . S
O27 C4 1.264 1_455 S
C28 C21 1.403 . S
C28 C29 1.399 . S
C28 H34 0.929 . S
C29 C9 1.449 . S
C29 C28 1.399 . S
C29 H35 0.930 . S
H30 C10 0.931 . S
H31 C11 0.930 . S
H32 C19 0.931 . S
H33 C20 0.929 . S
H34 C28 0.929 . S
H35 C29 0.930 . S
Mn36 O41 2.095 . S
Mn36 O51 2.162 . S
Mn36 O52 2.297 . S
Mn36 O60 2.385 1_455 S
Mn36 O61 2.209 1_455 S
Mn36 O62 2.094 . S
Mn37 O42 2.121 . S
Mn37 N44 2.257 . S
Mn37 N53 2.282 . S
Mn37 O61 2.215 . S
Mn37 O63 2.117 . S
C38 O60 1.234 . S
C38 O61 1.283 . S
C39 O51 1.281 . S
C39 O52 1.236 . S
C40 O62 1.240 . S
C40 O63 1.264 1_455 S
O41 Mn36 2.095 . S
O41 C50 1.250 1_455 S
O42 Mn37 2.121 . S
O42 C50 1.258 . S
C43 N44 1.326 . S
C43 C47 1.460 . S
C43 H49 0.929 . S
N44 Mn37 2.257 . S
N44 C43 1.326 . S
N44 C48 1.362 . S
C45 C46 1.258 . S
C45 C48 1.431 . S
C45 C65 1.449 . S
C46 C45 1.258 . S
C46 C47 1.477 . S
C46 H66 0.931 . S
C47 C43 1.460 . S
C47 C46 1.477 . S
C47 H67 0.930 . S
C48 N44 1.362 . S
C48 C45 1.431 . S
C48 C58 1.476 . S
H49 C43 0.929 . S
C50 O41 1.250 1_655 S
C50 O42 1.258 . S
O51 Mn36 2.162 . S
O51 C39 1.281 . S
O52 Mn36 2.297 . S
O52 C39 1.236 . S
N53 Mn37 2.282 . S
N53 C54 1.328 . S
N53 C58 1.318 . S
C54 N53 1.328 . S
C54 C55 1.457 . S
C54 H59 0.929 . S
C55 C54 1.457 . S
C55 C56 1.291 . S
C55 H68 0.931 . S
C56 C55 1.291 . S
C56 C57 1.373 . S
C56 H69 0.929 . S
C57 C56 1.373 . S
C57 C58 1.396 . S
C57 C64 1.403 . S
C58 C48 1.476 . S
C58 N53 1.318 . S
C58 C57 1.396 . S
H59 C54 0.929 . S
O60 Mn36 2.385 1_655 S
O60 C38 1.234 . S
O61 Mn36 2.209 1_655 S
O61 Mn37 2.215 . S
O61 C38 1.283 . S
O62 Mn36 2.094 . S
O62 C40 1.240 . S
O63 Mn37 2.117 . S
O63 C40 1.264 1_655 S
C64 C57 1.403 . S
C64 C65 1.399 . S
C64 H70 0.929 . S
C65 C45 1.449 . S
C65 C64 1.399 . S
C65 H71 0.930 . S
H66 C46 0.931 . S
H67 C47 0.930 . S
H68 C55 0.931 . S
H69 C56 0.929 . S
H70 C64 0.929 . S
H71 C65 0.930 . S
Mn72 O77 2.095 . S
Mn72 O87 2.162 . S
Mn72 O88 2.297 . S
Mn72 O96 2.385 1_655 S
Mn72 O97 2.209 1_655 S
Mn72 O98 2.094 . S
Mn73 O78 2.121 . S
Mn73 N80 2.257 . S
Mn73 N89 2.282 . S
Mn73 O97 2.215 . S
Mn73 O99 2.117 . S
C74 O96 1.234 . S
C74 O97 1.283 . S
C75 O87 1.281 . S
C75 O88 1.236 . S
C76 O98 1.240 . S
C76 O99 1.264 1_655 S
O77 Mn72 2.095 . S
O77 C86 1.250 1_655 S
O78 Mn73 2.121 . S
O78 C86 1.258 . S
C79 N80 1.326 . S
C79 C83 1.460 . S
C79 H85 0.929 . S
N80 Mn73 2.257 . S
N80 C79 1.326 . S
N80 C84 1.362 . S
C81 C82 1.258 . S
C81 C84 1.431 . S
C81 C101 1.449 . S
C82 C81 1.258 . S
C82 C83 1.477 . S
C82 H102 0.931 . S
C83 C79 1.460 . S
C83 C82 1.477 . S
C83 H103 0.930 . S
C84 N80 1.362 . S
C84 C81 1.431 . S
C84 C94 1.476 . S
H85 C79 0.929 . S
C86 O77 1.250 1_455 S
C86 O78 1.258 . S
O87 Mn72 2.162 . S
O87 C75 1.281 . S
O88 Mn72 2.297 . S
O88 C75 1.236 . S
N89 Mn73 2.282 . S
N89 C90 1.328 . S
N89 C94 1.318 . S
C90 N89 1.328 . S
C90 C91 1.457 . S
C90 H95 0.929 . S
C91 C90 1.457 . S
C91 C92 1.291 . S
C91 H104 0.931 . S
C92 C91 1.291 . S
C92 C93 1.373 . S
C92 H105 0.929 . S
C93 C92 1.373 . S
C93 C94 1.396 . S
C93 C100 1.403 . S
C94 C84 1.476 . S
C94 N89 1.318 . S
C94 C93 1.396 . S
H95 C90 0.929 . S
O96 Mn72 2.385 1_455 S
O96 C74 1.234 . S
O97 Mn72 2.209 1_455 S
O97 Mn73 2.215 . S
O97 C74 1.283 . S
O98 Mn72 2.094 . S
O98 C76 1.240 . S
O99 Mn73 2.117 . S
O99 C76 1.264 1_455 S
C100 C93 1.403 . S
C100 C101 1.399 . S
C100 H106 0.929 . S
C101 C81 1.449 . S
C101 C100 1.399 . S
C101 H107 0.930 . S
H102 C82 0.931 . S
H103 C83 0.930 . S
H104 C91 0.931 . S
H105 C92 0.929 . S
H106 C100 0.929 . S
H107 C101 0.930 . S
Mn108 O113 2.095 . S
Mn108 O123 2.162 . S
Mn108 O124 2.297 . S
Mn108 O132 2.385 1_455 S
Mn108 O133 2.209 1_455 S
Mn108 O134 2.094 . S
Mn109 O114 2.121 . S
Mn109 N116 2.257 . S
Mn109 N125 2.282 . S
Mn109 O133 2.215 . S
Mn109 O135 2.117 . S
C110 O132 1.234 . S
C110 O133 1.283 . S
C111 O123 1.281 . S
C111 O124 1.236 . S
C112 O134 1.240 . S
C112 O135 1.264 1_455 S
O113 Mn108 2.095 . S
O113 C122 1.250 1_455 S
O114 Mn109 2.121 . S
O114 C122 1.258 . S
C115 N116 1.326 . S
C115 C119 1.460 . S
C115 H121 0.929 . S
N116 Mn109 2.257 . S
N116 C115 1.326 . S
N116 C120 1.362 . S
C117 C118 1.258 . S
C117 C120 1.431 . S
C117 C137 1.449 . S
C118 C117 1.258 . S
C118 C119 1.477 . S
C118 H138 0.931 . S
C119 C115 1.460 . S
C119 C118 1.477 . S
C119 H139 0.930 . S
C120 N116 1.362 . S
C120 C117 1.431 . S
C120 C130 1.476 . S
H121 C115 0.929 . S
C122 O113 1.250 1_655 S
C122 O114 1.258 . S
O123 Mn108 2.162 . S
O123 C111 1.281 . S
O124 Mn108 2.297 . S
O124 C111 1.236 . S
N125 Mn109 2.282 . S
N125 C126 1.328 . S
N125 C130 1.318 . S
C126 N125 1.328 . S
C126 C127 1.457 . S
C126 H131 0.929 . S
C127 C126 1.457 . S
C127 C128 1.291 . S
C127 H140 0.931 . S
C128 C127 1.291 . S
C128 C129 1.373 . S
C128 H141 0.929 . S
C129 C128 1.373 . S
C129 C130 1.396 . S
C129 C136 1.403 . S
C130 C120 1.476 . S
C130 N125 1.318 . S
C130 C129 1.396 . S
H131 C126 0.929 . S
O132 Mn108 2.385 1_655 S
O132 C110 1.234 . S
O133 Mn108 2.209 1_655 S
O133 Mn109 2.215 . S
O133 C110 1.283 . S
O134 Mn108 2.094 . S
O134 C112 1.240 . S
O135 Mn109 2.117 . S
O135 C112 1.264 1_655 S
C136 C129 1.403 . S
C136 C137 1.399 . S
C136 H142 0.929 . S
C137 C117 1.449 . S
C137 C136 1.399 . S
C137 H143 0.930 . S
H138 C118 0.931 . S
H139 C119 0.930 . S
H140 C127 0.931 . S
H141 C128 0.929 . S
H142 C136 0.929 . S
H143 C137 0.930 . S
Mn144 O149 2.095 . S
Mn144 O159 2.162 . S
Mn144 O160 2.297 . S
Mn144 O168 2.385 1_565 S
Mn144 O169 2.209 1_565 S
Mn144 O170 2.094 . S
Mn145 O150 2.121 . S
Mn145 N152 2.257 . S
Mn145 N161 2.282 . S
Mn145 O169 2.215 . S
Mn145 O171 2.117 . S
C146 O168 1.234 . S
C146 O169 1.283 . S
C147 O159 1.281 . S
C147 O160 1.236 . S
C148 O170 1.240 . S
C148 O171 1.264 1_565 S
O149 Mn144 2.095 . S
O149 C158 1.250 1_565 S
O150 Mn145 2.121 . S
O150 C158 1.258 . S
C151 N152 1.326 . S
C151 C155 1.460 . S
C151 H157 0.929 . S
N152 Mn145 2.257 . S
N152 C151 1.326 . S
N152 C156 1.362 . S
C153 C154 1.258 . S
C153 C156 1.431 . S
C153 C173 1.449 . S
C154 C153 1.258 . S
C154 C155 1.477 . S
C154 H174 0.931 . S
C155 C151 1.460 . S
C155 C154 1.477 . S
C155 H175 0.930 . S
C156 N152 1.362 . S
C156 C153 1.431 . S
C156 C166 1.476 . S
H157 C151 0.929 . S
C158 O149 1.250 1_545 S
C158 O150 1.258 . S
O159 Mn144 2.162 . S
O159 C147 1.281 . S
O160 Mn144 2.297 . S
O160 C147 1.236 . S
N161 Mn145 2.282 . S
N161 C162 1.328 . S
N161 C166 1.318 . S
C162 N161 1.328 . S
C162 C163 1.457 . S
C162 H167 0.929 . S
C163 C162 1.457 . S
C163 C164 1.291 . S
C163 H176 0.931 . S
C164 C163 1.291 . S
C164 C165 1.373 . S
C164 H177 0.929 . S
C165 C164 1.373 . S
C165 C166 1.396 . S
C165 C172 1.403 . S
C166 C156 1.476 . S
C166 N161 1.318 . S
C166 C165 1.396 . S
H167 C162 0.929 . S
O168 Mn144 2.385 1_545 S
O168 C146 1.234 . S
O169 Mn144 2.209 1_545 S
O169 Mn145 2.215 . S
O169 C146 1.283 . S
O170 Mn144 2.094 . S
O170 C148 1.240 . S
O171 Mn145 2.117 . S
O171 C148 1.264 1_545 S
C172 C165 1.403 . S
C172 C173 1.399 . S
C172 H178 0.929 . S
C173 C153 1.449 . S
C173 C172 1.399 . S
C173 H179 0.930 . S
H174 C154 0.931 . S
H175 C155 0.930 . S
H176 C163 0.931 . S
H177 C164 0.929 . S
H178 C172 0.929 . S
H179 C173 0.930 . S
Mn180 O185 2.095 . S
Mn180 O195 2.162 . S
Mn180 O196 2.297 . S
Mn180 O204 2.385 . S
Mn180 O205 2.209 . S
Mn180 O206 2.094 . S
Mn181 O186 2.121 . S
Mn181 N188 2.257 . S
Mn181 N197 2.282 . S
Mn181 O205 2.215 . S
Mn181 O207 2.117 . S
C182 O204 1.234 . S
C182 O205 1.283 . S
C183 O195 1.281 . S
C183 O196 1.236 . S
C184 O206 1.240 . S
C184 O207 1.264 . S
O185 Mn180 2.095 . S
O185 C194 1.250 . S
O186 Mn181 2.121 . S
O186 C194 1.258 . S
C187 N188 1.326 . S
C187 C191 1.460 . S
C187 H193 0.929 . S
N188 Mn181 2.257 . S
N188 C187 1.326 . S
N188 C192 1.362 . S
C189 C190 1.258 . S
C189 C192 1.431 . S
C189 C209 1.449 . S
C190 C189 1.258 . S
C190 C191 1.477 . S
C190 H210 0.931 . S
C191 C187 1.460 . S
C191 C190 1.477 . S
C191 H211 0.930 . S
C192 N188 1.362 . S
C192 C189 1.431 . S
C192 C202 1.476 . S
H193 C187 0.929 . S
C194 O185 1.250 . S
C194 O186 1.258 . S
O195 Mn180 2.162 . S
O195 C183 1.281 . S
O196 Mn180 2.297 . S
O196 C183 1.236 . S
N197 Mn181 2.282 . S
N197 C198 1.328 . S
N197 C202 1.318 . S
C198 N197 1.328 . S
C198 C199 1.457 . S
C198 H203 0.929 . S
C199 C198 1.457 . S
C199 C200 1.291 . S
C199 H212 0.931 . S
C200 C199 1.291 . S
C200 C201 1.373 . S
C200 H213 0.929 . S
C201 C200 1.373 . S
C201 C202 1.396 . S
C201 C208 1.403 . S
C202 C192 1.476 . S
C202 N197 1.318 . S
C202 C201 1.396 . S
H203 C198 0.929 . S
O204 Mn180 2.385 . S
O204 C182 1.234 . S
O205 Mn180 2.209 . S
O205 Mn181 2.215 . S
O205 C182 1.283 . S
O206 Mn180 2.094 . S
O206 C184 1.240 . S
O207 Mn181 2.117 . S
O207 C184 1.264 . S
C208 C201 1.403 . S
C208 C209 1.399 . S
C208 H214 0.929 . S
C209 C189 1.449 . S
C209 C208 1.399 . S
C209 H215 0.930 . S
H210 C190 0.931 . S
H211 C191 0.930 . S
H212 C199 0.931 . S
H213 C200 0.929 . S
H214 C208 0.929 . S
H215 C209 0.930 . S
Mn216 O221 2.095 . S
Mn216 O231 2.162 . S
Mn216 O232 2.297 . S
Mn216 O240 2.385 1_545 S
Mn216 O241 2.209 1_545 S
Mn216 O242 2.094 . S
Mn217 O222 2.121 . S
Mn217 N224 2.257 . S
Mn217 N233 2.282 . S
Mn217 O241 2.215 . S
Mn217 O243 2.117 . S
C218 O240 1.234 . S
C218 O241 1.283 . S
C219 O231 1.281 . S
C219 O232 1.236 . S
C220 O242 1.240 . S
C220 O243 1.264 1_545 S
O221 Mn216 2.095 . S
O221 C230 1.250 1_545 S
O222 Mn217 2.121 . S
O222 C230 1.258 . S
C223 N224 1.326 . S
C223 C227 1.460 . S
C223 H229 0.929 . S
N224 Mn217 2.257 . S
N224 C223 1.326 . S
N224 C228 1.362 . S
C225 C226 1.258 . S
C225 C228 1.431 . S
C225 C245 1.449 . S
C226 C225 1.258 . S
C226 C227 1.477 . S
C226 H246 0.931 . S
C227 C223 1.460 . S
C227 C226 1.477 . S
C227 H247 0.930 . S
C228 N224 1.362 . S
C228 C225 1.431 . S
C228 C238 1.476 . S
H229 C223 0.929 . S
C230 O221 1.250 1_565 S
C230 O222 1.258 . S
O231 Mn216 2.162 . S
O231 C219 1.281 . S
O232 Mn216 2.297 . S
O232 C219 1.236 . S
N233 Mn217 2.282 . S
N233 C234 1.328 . S
N233 C238 1.318 . S
C234 N233 1.328 . S
C234 C235 1.457 . S
C234 H239 0.929 . S
C235 C234 1.457 . S
C235 C236 1.291 . S
C235 H248 0.931 . S
C236 C235 1.291 . S
C236 C237 1.373 . S
C236 H249 0.929 . S
C237 C236 1.373 . S
C237 C238 1.396 . S
C237 C244 1.403 . S
C238 C228 1.476 . S
C238 N233 1.318 . S
C238 C237 1.396 . S
H239 C234 0.929 . S
O240 Mn216 2.385 1_565 S
O240 C218 1.234 . S
O241 Mn216 2.209 1_565 S
O241 Mn217 2.215 . S
O241 C218 1.283 . S
O242 Mn216 2.094 . S
O242 C220 1.240 . S
O243 Mn217 2.117 . S
O243 C220 1.264 1_565 S
C244 C237 1.403 . S
C244 C245 1.399 . S
C244 H250 0.929 . S
C245 C225 1.449 . S
C245 C244 1.399 . S
C245 H251 0.930 . S
H246 C226 0.931 . S
H247 C227 0.930 . S
H248 C235 0.931 . S
H249 C236 0.929 . S
H250 C244 0.929 . S
H251 C245 0.930 . S
Mn252 O257 2.095 . S
Mn252 O267 2.162 . S
Mn252 O268 2.297 . S
Mn252 O276 2.385 . S
Mn252 O277 2.209 . S
Mn252 O278 2.094 . S
Mn253 O258 2.121 . S
Mn253 N260 2.257 . S
Mn253 N269 2.282 . S
Mn253 O277 2.215 . S
Mn253 O279 2.117 . S
C254 O276 1.234 . S
C254 O277 1.283 . S
C255 O267 1.281 . S
C255 O268 1.236 . S
C256 O278 1.240 . S
C256 O279 1.264 . S
O257 Mn252 2.095 . S
O257 C266 1.250 . S
O258 Mn253 2.121 . S
O258 C266 1.258 . S
C259 N260 1.326 . S
C259 C263 1.460 . S
C259 H265 0.929 . S
N260 Mn253 2.257 . S
N260 C259 1.326 . S
N260 C264 1.362 . S
C261 C262 1.258 . S
C261 C264 1.431 . S
C261 C281 1.449 . S
C262 C261 1.258 . S
C262 C263 1.477 . S
C262 H282 0.931 . S
C263 C259 1.460 . S
C263 C262 1.477 . S
C263 H283 0.930 . S
C264 N260 1.362 . S
C264 C261 1.431 . S
C264 C274 1.476 . S
H265 C259 0.929 . S
C266 O257 1.250 . S
C266 O258 1.258 . S
O267 Mn252 2.162 . S
O267 C255 1.281 . S
O268 Mn252 2.297 . S
O268 C255 1.236 . S
N269 Mn253 2.282 . S
N269 C270 1.328 . S
N269 C274 1.318 . S
C270 N269 1.328 . S
C270 C271 1.457 . S
C270 H275 0.929 . S
C271 C270 1.457 . S
C271 C272 1.291 . S
C271 H284 0.931 . S
C272 C271 1.291 . S
C272 C273 1.373 . S
C272 H285 0.929 . S
C273 C272 1.373 . S
C273 C274 1.396 . S
C273 C280 1.403 . S
C274 C264 1.476 . S
C274 N269 1.318 . S
C274 C273 1.396 . S
H275 C270 0.929 . S
O276 Mn252 2.385 . S
O276 C254 1.234 . S
O277 Mn252 2.209 . S
O277 Mn253 2.215 . S
O277 C254 1.283 . S
O278 Mn252 2.094 . S
O278 C256 1.240 . S
O279 Mn253 2.117 . S
O279 C256 1.264 . S
C280 C273 1.403 . S
C280 C281 1.399 . S
C280 H286 0.929 . S
C281 C261 1.449 . S
C281 C280 1.399 . S
C281 H287 0.930 . S
H282 C262 0.931 . S
H283 C263 0.930 . S
H284 C271 0.931 . S
H285 C272 0.929 . S
H286 C280 0.929 . S
H287 C281 0.930 . S
Mn288 O293 2.095 . S
Mn288 O303 2.162 . S
Mn288 O304 2.297 . S
Mn288 O312 2.385 1_556 S
Mn288 O313 2.209 1_556 S
Mn288 O314 2.094 . S
Mn289 O294 2.121 . S
Mn289 N296 2.257 . S
Mn289 N305 2.282 . S
Mn289 O313 2.215 . S
Mn289 O315 2.117 . S
C290 O312 1.234 . S
C290 O313 1.283 . S
C291 O303 1.281 . S
C291 O304 1.236 . S
C292 O314 1.240 . S
C292 O315 1.264 1_556 S
O293 Mn288 2.095 . S
O293 C302 1.250 1_556 S
O294 Mn289 2.121 . S
O294 C302 1.258 . S
C295 N296 1.326 . S
C295 C299 1.460 . S
C295 H301 0.929 . S
N296 Mn289 2.257 . S
N296 C295 1.326 . S
N296 C300 1.362 . S
C297 C298 1.258 . S
C297 C300 1.431 . S
C297 C317 1.449 . S
C298 C297 1.258 . S
C298 C299 1.477 . S
C298 H318 0.931 . S
C299 C295 1.460 . S
C299 C298 1.477 . S
C299 H319 0.930 . S
C300 N296 1.362 . S
C300 C297 1.431 . S
C300 C310 1.476 . S
H301 C295 0.929 . S
C302 O293 1.250 1_554 S
C302 O294 1.258 . S
O303 Mn288 2.162 . S
O303 C291 1.281 . S
O304 Mn288 2.297 . S
O304 C291 1.236 . S
N305 Mn289 2.282 . S
N305 C306 1.328 . S
N305 C310 1.318 . S
C306 N305 1.328 . S
C306 C307 1.457 . S
C306 H311 0.929 . S
C307 C306 1.457 . S
C307 C308 1.291 . S
C307 H320 0.931 . S
C308 C307 1.291 . S
C308 C309 1.373 . S
C308 H321 0.929 . S
C309 C308 1.373 . S
C309 C310 1.396 . S
C309 C316 1.403 . S
C310 C300 1.476 . S
C310 N305 1.318 . S
C310 C309 1.396 . S
H311 C306 0.929 . S
O312 Mn288 2.385 1_554 S
O312 C290 1.234 . S
O313 Mn288 2.209 1_554 S
O313 Mn289 2.215 . S
O313 C290 1.283 . S
O314 Mn288 2.094 . S
O314 C292 1.240 . S
O315 Mn289 2.117 . S
O315 C292 1.264 1_554 S
C316 C309 1.403 . S
C316 C317 1.399 . S
C316 H322 0.929 . S
C317 C297 1.449 . S
C317 C316 1.399 . S
C317 H323 0.930 . S
H318 C298 0.931 . S
H319 C299 0.930 . S
H320 C307 0.931 . S
H321 C308 0.929 . S
H322 C316 0.929 . S
H323 C317 0.930 . S
Mn324 O329 2.095 . S
Mn324 O339 2.162 . S
Mn324 O340 2.297 . S
Mn324 O348 2.385 . S
Mn324 O349 2.209 . S
Mn324 O350 2.094 . S
Mn325 O330 2.121 . S
Mn325 N332 2.257 . S
Mn325 N341 2.282 . S
Mn325 O349 2.215 . S
Mn325 O351 2.117 . S
C326 O348 1.234 . S
C326 O349 1.283 . S
C327 O339 1.281 . S
C327 O340 1.236 . S
C328 O350 1.240 . S
C328 O351 1.264 . S
O329 Mn324 2.095 . S
O329 C338 1.250 . S
O330 Mn325 2.121 . S
O330 C338 1.258 . S
C331 N332 1.326 . S
C331 C335 1.460 . S
C331 H337 0.929 . S
N332 Mn325 2.257 . S
N332 C331 1.326 . S
N332 C336 1.362 . S
C333 C334 1.258 . S
C333 C336 1.431 . S
C333 C353 1.449 . S
C334 C333 1.258 . S
C334 C335 1.477 . S
C334 H354 0.931 . S
C335 C331 1.460 . S
C335 C334 1.477 . S
C335 H355 0.930 . S
C336 N332 1.362 . S
C336 C333 1.431 . S
C336 C346 1.476 . S
H337 C331 0.929 . S
C338 O329 1.250 . S
C338 O330 1.258 . S
O339 Mn324 2.162 . S
O339 C327 1.281 . S
O340 Mn324 2.297 . S
O340 C327 1.236 . S
N341 Mn325 2.282 . S
N341 C342 1.328 . S
N341 C346 1.318 . S
C342 N341 1.328 . S
C342 C343 1.457 . S
C342 H347 0.929 . S
C343 C342 1.457 . S
C343 C344 1.291 . S
C343 H356 0.931 . S
C344 C343 1.291 . S
C344 C345 1.373 . S
C344 H357 0.929 . S
C345 C344 1.373 . S
C345 C346 1.396 . S
C345 C352 1.403 . S
C346 C336 1.476 . S
C346 N341 1.318 . S
C346 C345 1.396 . S
H347 C342 0.929 . S
O348 Mn324 2.385 . S
O348 C326 1.234 . S
O349 Mn324 2.209 . S
O349 Mn325 2.215 . S
O349 C326 1.283 . S
O350 Mn324 2.094 . S
O350 C328 1.240 . S
O351 Mn325 2.117 . S
O351 C328 1.264 . S
C352 C345 1.403 . S
C352 C353 1.399 . S
C352 H358 0.929 . S
C353 C333 1.449 . S
C353 C352 1.399 . S
C353 H359 0.930 . S
H354 C334 0.931 . S
H355 C335 0.930 . S
H356 C343 0.931 . S
H357 C344 0.929 . S
H358 C352 0.929 . S
H359 C353 0.930 . S
Mn360 O365 2.095 . S
Mn360 O375 2.162 . S
Mn360 O376 2.297 . S
Mn360 O384 2.385 . S
Mn360 O385 2.209 . S
Mn360 O386 2.094 . S
Mn361 O366 2.121 . S
Mn361 N368 2.257 . S
Mn361 N377 2.282 . S
Mn361 O385 2.215 . S
Mn361 O387 2.117 . S
C362 O384 1.234 . S
C362 O385 1.283 . S
C363 O375 1.281 . S
C363 O376 1.236 . S
C364 O386 1.240 . S
C364 O387 1.264 . S
O365 Mn360 2.095 . S
O365 C374 1.250 . S
O366 Mn361 2.121 . S
O366 C374 1.258 . S
C367 N368 1.326 . S
C367 C371 1.460 . S
C367 H373 0.929 . S
N368 Mn361 2.257 . S
N368 C367 1.326 . S
N368 C372 1.362 . S
C369 C370 1.258 . S
C369 C372 1.431 . S
C369 C389 1.449 . S
C370 C369 1.258 . S
C370 C371 1.477 . S
C370 H390 0.931 . S
C371 C367 1.460 . S
C371 C370 1.477 . S
C371 H391 0.930 . S
C372 N368 1.362 . S
C372 C369 1.431 . S
C372 C382 1.476 . S
H373 C367 0.929 . S
C374 O365 1.250 . S
C374 O366 1.258 . S
O375 Mn360 2.162 . S
O375 C363 1.281 . S
O376 Mn360 2.297 . S
O376 C363 1.236 . S
N377 Mn361 2.282 . S
N377 C378 1.328 . S
N377 C382 1.318 . S
C378 N377 1.328 . S
C378 C379 1.457 . S
C378 H383 0.929 . S
C379 C378 1.457 . S
C379 C380 1.291 . S
C379 H392 0.931 . S
C380 C379 1.291 . S
C380 C381 1.373 . S
C380 H393 0.929 . S
C381 C380 1.373 . S
C381 C382 1.396 . S
C381 C388 1.403 . S
C382 C372 1.476 . S
C382 N377 1.318 . S
C382 C381 1.396 . S
H383 C378 0.929 . S
O384 Mn360 2.385 . S
O384 C362 1.234 . S
O385 Mn360 2.209 . S
O385 Mn361 2.215 . S
O385 C362 1.283 . S
O386 Mn360 2.094 . S
O386 C364 1.240 . S
O387 Mn361 2.117 . S
O387 C364 1.264 . S
C388 C381 1.403 . S
C388 C389 1.399 . S
C388 H394 0.929 . S
C389 C369 1.449 . S
C389 C388 1.399 . S
C389 H395 0.930 . S
H390 C370 0.931 . S
H391 C371 0.930 . S
H392 C379 0.931 . S
H393 C380 0.929 . S
H394 C388 0.929 . S
H395 C389 0.930 . S
Mn396 O401 2.095 . S
Mn396 O411 2.162 . S
Mn396 O412 2.297 . S
Mn396 O420 2.385 . S
Mn396 O421 2.209 . S
Mn396 O422 2.094 . S
Mn397 O402 2.121 . S
Mn397 N404 2.257 . S
Mn397 N413 2.282 . S
Mn397 O421 2.215 . S
Mn397 O423 2.117 . S
C398 O420 1.234 . S
C398 O421 1.283 . S
C399 O411 1.281 . S
C399 O412 1.236 . S
C400 O422 1.240 . S
C400 O423 1.264 . S
O401 Mn396 2.095 . S
O401 C410 1.250 . S
O402 Mn397 2.121 . S
O402 C410 1.258 . S
C403 N404 1.326 . S
C403 C407 1.460 . S
C403 H409 0.929 . S
N404 Mn397 2.257 . S
N404 C403 1.326 . S
N404 C408 1.362 . S
C405 C406 1.258 . S
C405 C408 1.431 . S
C405 C425 1.449 . S
C406 C405 1.258 . S
C406 C407 1.477 . S
C406 H426 0.931 . S
C407 C403 1.460 . S
C407 C406 1.477 . S
C407 H427 0.930 . S
C408 N404 1.362 . S
C408 C405 1.431 . S
C408 C418 1.476 . S
H409 C403 0.929 . S
C410 O401 1.250 . S
C410 O402 1.258 . S
O411 Mn396 2.162 . S
O411 C399 1.281 . S
O412 Mn396 2.297 . S
O412 C399 1.236 . S
N413 Mn397 2.282 . S
N413 C414 1.328 . S
N413 C418 1.318 . S
C414 N413 1.328 . S
C414 C415 1.457 . S
C414 H419 0.929 . S
C415 C414 1.457 . S
C415 C416 1.291 . S
C415 H428 0.931 . S
C416 C415 1.291 . S
C416 C417 1.373 . S
C416 H429 0.929 . S
C417 C416 1.373 . S
C417 C418 1.396 . S
C417 C424 1.403 . S
C418 C408 1.476 . S
C418 N413 1.318 . S
C418 C417 1.396 . S
H419 C414 0.929 . S
O420 Mn396 2.385 . S
O420 C398 1.234 . S
O421 Mn396 2.209 . S
O421 Mn397 2.215 . S
O421 C398 1.283 . S
O422 Mn396 2.094 . S
O422 C400 1.240 . S
O423 Mn397 2.117 . S
O423 C400 1.264 . S
C424 C417 1.403 . S
C424 C425 1.399 . S
C424 H430 0.929 . S
C425 C405 1.449 . S
C425 C424 1.399 . S
C425 H431 0.930 . S
H426 C406 0.931 . S
H427 C407 0.930 . S
H428 C415 0.931 . S
H429 C416 0.929 . S
H430 C424 0.929 . S
H431 C425 0.930 . S
Mn432 O437 2.095 . S
Mn432 O447 2.162 . S
Mn432 O448 2.297 . S
Mn432 O456 2.385 . S
Mn432 O457 2.209 . S
Mn432 O458 2.094 . S
Mn433 O438 2.121 . S
Mn433 N440 2.257 . S
Mn433 N449 2.282 . S
Mn433 O457 2.215 . S
Mn433 O459 2.117 . S
C434 O456 1.234 . S
C434 O457 1.283 . S
C435 O447 1.281 . S
C435 O448 1.236 . S
C436 O458 1.240 . S
C436 O459 1.264 . S
O437 Mn432 2.095 . S
O437 C446 1.250 . S
O438 Mn433 2.121 . S
O438 C446 1.258 . S
C439 N440 1.326 . S
C439 C443 1.460 . S
C439 H445 0.929 . S
N440 Mn433 2.257 . S
N440 C439 1.326 . S
N440 C444 1.362 . S
C441 C442 1.258 . S
C441 C444 1.431 . S
C441 C461 1.449 . S
C442 C441 1.258 . S
C442 C443 1.477 . S
C442 H462 0.931 . S
C443 C439 1.460 . S
C443 C442 1.477 . S
C443 H463 0.930 . S
C444 N440 1.362 . S
C444 C441 1.431 . S
C444 C454 1.476 . S
H445 C439 0.929 . S
C446 O437 1.250 . S
C446 O438 1.258 . S
O447 Mn432 2.162 . S
O447 C435 1.281 . S
O448 Mn432 2.297 . S
O448 C435 1.236 . S
N449 Mn433 2.282 . S
N449 C450 1.328 . S
N449 C454 1.318 . S
C450 N449 1.328 . S
C450 C451 1.457 . S
C450 H455 0.929 . S
C451 C450 1.457 . S
C451 C452 1.291 . S
C451 H464 0.931 . S
C452 C451 1.291 . S
C452 C453 1.373 . S
C452 H465 0.929 . S
C453 C452 1.373 . S
C453 C454 1.396 . S
C453 C460 1.403 . S
C454 C444 1.476 . S
C454 N449 1.318 . S
C454 C453 1.396 . S
H455 C450 0.929 . S
O456 Mn432 2.385 . S
O456 C434 1.234 . S
O457 Mn432 2.209 . S
O457 Mn433 2.215 . S
O457 C434 1.283 . S
O458 Mn432 2.094 . S
O458 C436 1.240 . S
O459 Mn433 2.117 . S
O459 C436 1.264 . S
C460 C453 1.403 . S
C460 C461 1.399 . S
C460 H466 0.929 . S
C461 C441 1.449 . S
C461 C460 1.399 . S
C461 H467 0.930 . S
H462 C442 0.931 . S
H463 C443 0.930 . S
H464 C451 0.931 . S
H465 C452 0.929 . S
H466 C460 0.929 . S
H467 C461 0.930 . S
Mn468 O473 2.095 . S
Mn468 O483 2.162 . S
Mn468 O484 2.297 . S
Mn468 O492 2.385 . S
Mn468 O493 2.209 . S
Mn468 O494 2.094 . S
Mn469 O474 2.121 . S
Mn469 N476 2.257 . S
Mn469 N485 2.282 . S
Mn469 O493 2.215 . S
Mn469 O495 2.117 . S
C470 O492 1.234 . S
C470 O493 1.283 . S
C471 O483 1.281 . S
C471 O484 1.236 . S
C472 O494 1.240 . S
C472 O495 1.264 . S
O473 Mn468 2.095 . S
O473 C482 1.250 . S
O474 Mn469 2.121 . S
O474 C482 1.258 . S
C475 N476 1.326 . S
C475 C479 1.460 . S
C475 H481 0.929 . S
N476 Mn469 2.257 . S
N476 C475 1.326 . S
N476 C480 1.362 . S
C477 C478 1.258 . S
C477 C480 1.431 . S
C477 C497 1.449 . S
C478 C477 1.258 . S
C478 C479 1.477 . S
C478 H498 0.931 . S
C479 C475 1.460 . S
C479 C478 1.477 . S
C479 H499 0.930 . S
C480 N476 1.362 . S
C480 C477 1.431 . S
C480 C490 1.476 . S
H481 C475 0.929 . S
C482 O473 1.250 . S
C482 O474 1.258 . S
O483 Mn468 2.162 . S
O483 C471 1.281 . S
O484 Mn468 2.297 . S
O484 C471 1.236 . S
N485 Mn469 2.282 . S
N485 C486 1.328 . S
N485 C490 1.318 . S
C486 N485 1.328 . S
C486 C487 1.457 . S
C486 H491 0.929 . S
C487 C486 1.457 . S
C487 C488 1.291 . S
C487 H500 0.931 . S
C488 C487 1.291 . S
C488 C489 1.373 . S
C488 H501 0.929 . S
C489 C488 1.373 . S
C489 C490 1.396 . S
C489 C496 1.403 . S
C490 C480 1.476 . S
C490 N485 1.318 . S
C490 C489 1.396 . S
H491 C486 0.929 . S
O492 Mn468 2.385 . S
O492 C470 1.234 . S
O493 Mn468 2.209 . S
O493 Mn469 2.215 . S
O493 C470 1.283 . S
O494 Mn468 2.094 . S
O494 C472 1.240 . S
O495 Mn469 2.117 . S
O495 C472 1.264 . S
C496 C489 1.403 . S
C496 C497 1.399 . S
C496 H502 0.929 . S
C497 C477 1.449 . S
C497 C496 1.399 . S
C497 H503 0.930 . S
H498 C478 0.931 . S
H499 C479 0.930 . S
H500 C487 0.931 . S
H501 C488 0.929 . S
H502 C496 0.929 . S
H503 C497 0.930 . S
Mn504 O509 2.095 . S
Mn504 O519 2.162 . S
Mn504 O520 2.297 . S
Mn504 O528 2.385 . S
Mn504 O529 2.209 . S
Mn504 O530 2.094 . S
Mn505 O510 2.121 . S
Mn505 N512 2.257 . S
Mn505 N521 2.282 . S
Mn505 O529 2.215 . S
Mn505 O531 2.117 . S
C506 O528 1.234 . S
C506 O529 1.283 . S
C507 O519 1.281 . S
C507 O520 1.236 . S
C508 O530 1.240 . S
C508 O531 1.264 . S
O509 Mn504 2.095 . S
O509 C518 1.250 . S
O510 Mn505 2.121 . S
O510 C518 1.258 . S
C511 N512 1.326 . S
C511 C515 1.460 . S
C511 H517 0.929 . S
N512 Mn505 2.257 . S
N512 C511 1.326 . S
N512 C516 1.362 . S
C513 C514 1.258 . S
C513 C516 1.431 . S
C513 C533 1.449 . S
C514 C513 1.258 . S
C514 C515 1.477 . S
C514 H534 0.931 . S
C515 C511 1.460 . S
C515 C514 1.477 . S
C515 H535 0.930 . S
C516 N512 1.362 . S
C516 C513 1.431 . S
C516 C526 1.476 . S
H517 C511 0.929 . S
C518 O509 1.250 . S
C518 O510 1.258 . S
O519 Mn504 2.162 . S
O519 C507 1.281 . S
O520 Mn504 2.297 . S
O520 C507 1.236 . S
N521 Mn505 2.282 . S
N521 C522 1.328 . S
N521 C526 1.318 . S
C522 N521 1.328 . S
C522 C523 1.457 . S
C522 H527 0.929 . S
C523 C522 1.457 . S
C523 C524 1.291 . S
C523 H536 0.931 . S
C524 C523 1.291 . S
C524 C525 1.373 . S
C524 H537 0.929 . S
C525 C524 1.373 . S
C525 C526 1.396 . S
C525 C532 1.403 . S
C526 C516 1.476 . S
C526 N521 1.318 . S
C526 C525 1.396 . S
H527 C522 0.929 . S
O528 Mn504 2.385 . S
O528 C506 1.234 . S
O529 Mn504 2.209 . S
O529 Mn505 2.215 . S
O529 C506 1.283 . S
O530 Mn504 2.094 . S
O530 C508 1.240 . S
O531 Mn505 2.117 . S
O531 C508 1.264 . S
C532 C525 1.403 . S
C532 C533 1.399 . S
C532 H538 0.929 . S
C533 C513 1.449 . S
C533 C532 1.399 . S
C533 H539 0.930 . S
H534 C514 0.931 . S
H535 C515 0.930 . S
H536 C523 0.931 . S
H537 C524 0.929 . S
H538 C532 0.929 . S
H539 C533 0.930 . S
Mn540 O545 2.095 . S
Mn540 O555 2.162 . S
Mn540 O556 2.297 . S
Mn540 O564 2.385 . S
Mn540 O565 2.209 . S
Mn540 O566 2.094 . S
Mn541 O546 2.121 . S
Mn541 N548 2.257 . S
Mn541 N557 2.282 . S
Mn541 O565 2.215 . S
Mn541 O567 2.117 . S
C542 O564 1.234 . S
C542 O565 1.283 . S
C543 O555 1.281 . S
C543 O556 1.236 . S
C544 O566 1.240 . S
C544 O567 1.264 . S
O545 Mn540 2.095 . S
O545 C554 1.250 . S
O546 Mn541 2.121 . S
O546 C554 1.258 . S
C547 N548 1.326 . S
C547 C551 1.460 . S
C547 H553 0.929 . S
N548 Mn541 2.257 . S
N548 C547 1.326 . S
N548 C552 1.362 . S
C549 C550 1.258 . S
C549 C552 1.431 . S
C549 C569 1.449 . S
C550 C549 1.258 . S
C550 C551 1.477 . S
C550 H570 0.931 . S
C551 C547 1.460 . S
C551 C550 1.477 . S
C551 H571 0.930 . S
C552 N548 1.362 . S
C552 C549 1.431 . S
C552 C562 1.476 . S
H553 C547 0.929 . S
C554 O545 1.250 . S
C554 O546 1.258 . S
O555 Mn540 2.162 . S
O555 C543 1.281 . S
O556 Mn540 2.297 . S
O556 C543 1.236 . S
N557 Mn541 2.282 . S
N557 C558 1.328 . S
N557 C562 1.318 . S
C558 N557 1.328 . S
C558 C559 1.457 . S
C558 H563 0.929 . S
C559 C558 1.457 . S
C559 C560 1.291 . S
C559 H572 0.931 . S
C560 C559 1.291 . S
C560 C561 1.373 . S
C560 H573 0.929 . S
C561 C560 1.373 . S
C561 C562 1.396 . S
C561 C568 1.403 . S
C562 C552 1.476 . S
C562 N557 1.318 . S
C562 C561 1.396 . S
H563 C558 0.929 . S
O564 Mn540 2.385 . S
O564 C542 1.234 . S
O565 Mn540 2.209 . S
O565 Mn541 2.215 . S
O565 C542 1.283 . S
O566 Mn540 2.094 . S
O566 C544 1.240 . S
O567 Mn541 2.117 . S
O567 C544 1.264 . S
C568 C561 1.403 . S
C568 C569 1.399 . S
C568 H574 0.929 . S
C569 C549 1.449 . S
C569 C568 1.399 . S
C569 H575 0.930 . S
H570 C550 0.931 . S
H571 C551 0.930 . S
H572 C559 0.931 . S
H573 C560 0.929 . S
H574 C568 0.929 . S
H575 C569 0.930 . S
Mn576 O581 2.095 . S
Mn576 O591 2.162 . S
Mn576 O592 2.297 . S
Mn576 O600 2.385 . S
Mn576 O601 2.209 . S
Mn576 O602 2.094 . S
Mn577 O582 2.121 . S
Mn577 N584 2.257 . S
Mn577 N593 2.282 . S
Mn577 O601 2.215 . S
Mn577 O603 2.117 . S
C578 O600 1.234 . S
C578 O601 1.283 . S
C579 O591 1.281 . S
C579 O592 1.236 . S
C580 O602 1.240 . S
C580 O603 1.264 . S
O581 Mn576 2.095 . S
O581 C590 1.250 . S
O582 Mn577 2.121 . S
O582 C590 1.258 . S
C583 N584 1.326 . S
C583 C587 1.460 . S
C583 H589 0.929 . S
N584 Mn577 2.257 . S
N584 C583 1.326 . S
N584 C588 1.362 . S
C585 C586 1.258 . S
C585 C588 1.431 . S
C585 C605 1.449 . S
C586 C585 1.258 . S
C586 C587 1.477 . S
C586 H606 0.931 . S
C587 C583 1.460 . S
C587 C586 1.477 . S
C587 H607 0.930 . S
C588 N584 1.362 . S
C588 C585 1.431 . S
C588 C598 1.476 . S
H589 C583 0.929 . S
C590 O581 1.250 . S
C590 O582 1.258 . S
O591 Mn576 2.162 . S
O591 C579 1.281 . S
O592 Mn576 2.297 . S
O592 C579 1.236 . S
N593 Mn577 2.282 . S
N593 C594 1.328 . S
N593 C598 1.318 . S
C594 N593 1.328 . S
C594 C595 1.457 . S
C594 H599 0.929 . S
C595 C594 1.457 . S
C595 C596 1.291 . S
C595 H608 0.931 . S
C596 C595 1.291 . S
C596 C597 1.373 . S
C596 H609 0.929 . S
C597 C596 1.373 . S
C597 C598 1.396 . S
C597 C604 1.403 . S
C598 C588 1.476 . S
C598 N593 1.318 . S
C598 C597 1.396 . S
H599 C594 0.929 . S
O600 Mn576 2.385 . S
O600 C578 1.234 . S
O601 Mn576 2.209 . S
O601 Mn577 2.215 . S
O601 C578 1.283 . S
O602 Mn576 2.094 . S
O602 C580 1.240 . S
O603 Mn577 2.117 . S
O603 C580 1.264 . S
C604 C597 1.403 . S
C604 C605 1.399 . S
C604 H610 0.929 . S
C605 C585 1.449 . S
C605 C604 1.399 . S
C605 H611 0.930 . S
H606 C586 0.931 . S
H607 C587 0.930 . S
H608 C595 0.931 . S
H609 C596 0.929 . S
H610 C604 0.929 . S
H611 C605 0.930 . S
Mn612 O617 2.095 . S
Mn612 O627 2.162 . S
Mn612 O628 2.297 . S
Mn612 O636 2.385 1_545 S
Mn612 O637 2.209 1_545 S
Mn612 O638 2.094 . S
Mn613 O618 2.121 . S
Mn613 N620 2.257 . S
Mn613 N629 2.282 . S
Mn613 O637 2.215 . S
Mn613 O639 2.117 . S
C614 O636 1.234 . S
C614 O637 1.283 . S
C615 O627 1.281 . S
C615 O628 1.236 . S
C616 O638 1.240 . S
C616 O639 1.264 1_545 S
O617 Mn612 2.095 . S
O617 C626 1.250 1_545 S
O618 Mn613 2.121 . S
O618 C626 1.258 . S
C619 N620 1.326 . S
C619 C623 1.460 . S
C619 H625 0.929 . S
N620 Mn613 2.257 . S
N620 C619 1.326 . S
N620 C624 1.362 . S
C621 C622 1.258 . S
C621 C624 1.431 . S
C621 C641 1.449 . S
C622 C621 1.258 . S
C622 C623 1.477 . S
C622 H642 0.931 . S
C623 C619 1.460 . S
C623 C622 1.477 . S
C623 H643 0.930 . S
C624 N620 1.362 . S
C624 C621 1.431 . S
C624 C634 1.476 . S
H625 C619 0.929 . S
C626 O617 1.250 1_565 S
C626 O618 1.258 . S
O627 Mn612 2.162 . S
O627 C615 1.281 . S
O628 Mn612 2.297 . S
O628 C615 1.236 . S
N629 Mn613 2.282 . S
N629 C630 1.328 . S
N629 C634 1.318 . S
C630 N629 1.328 . S
C630 C631 1.457 . S
C630 H635 0.929 . S
C631 C630 1.457 . S
C631 C632 1.291 . S
C631 H644 0.931 . S
C632 C631 1.291 . S
C632 C633 1.373 . S
C632 H645 0.929 . S
C633 C632 1.373 . S
C633 C634 1.396 . S
C633 C640 1.403 . S
C634 C624 1.476 . S
C634 N629 1.318 . S
C634 C633 1.396 . S
H635 C630 0.929 . S
O636 Mn612 2.385 1_565 S
O636 C614 1.234 . S
O637 Mn612 2.209 1_565 S
O637 Mn613 2.215 . S
O637 C614 1.283 . S
O638 Mn612 2.094 . S
O638 C616 1.240 . S
O639 Mn613 2.117 . S
O639 C616 1.264 1_565 S
C640 C633 1.403 . S
C640 C641 1.399 . S
C640 H646 0.929 . S
C641 C621 1.449 . S
C641 C640 1.399 . S
C641 H647 0.930 . S
H642 C622 0.931 . S
H643 C623 0.930 . S
H644 C631 0.931 . S
H645 C632 0.929 . S
H646 C640 0.929 . S
H647 C641 0.930 . S
Mn648 O653 2.095 . S
Mn648 O663 2.162 . S
Mn648 O664 2.297 . S
Mn648 O672 2.385 . S
Mn648 O673 2.209 . S
Mn648 O674 2.094 . S
Mn649 O654 2.121 . S
Mn649 N656 2.257 . S
Mn649 N665 2.282 . S
Mn649 O673 2.215 . S
Mn649 O675 2.117 . S
C650 O672 1.234 . S
C650 O673 1.283 . S
C651 O663 1.281 . S
C651 O664 1.236 . S
C652 O674 1.240 . S
C652 O675 1.264 . S
O653 Mn648 2.095 . S
O653 C662 1.250 . S
O654 Mn649 2.121 . S
O654 C662 1.258 . S
C655 N656 1.326 . S
C655 C659 1.460 . S
C655 H661 0.929 . S
N656 Mn649 2.257 . S
N656 C655 1.326 . S
N656 C660 1.362 . S
C657 C658 1.258 . S
C657 C660 1.431 . S
C657 C677 1.449 . S
C658 C657 1.258 . S
C658 C659 1.477 . S
C658 H678 0.931 . S
C659 C655 1.460 . S
C659 C658 1.477 . S
C659 H679 0.930 . S
C660 N656 1.362 . S
C660 C657 1.431 . S
C660 C670 1.476 . S
H661 C655 0.929 . S
C662 O653 1.250 . S
C662 O654 1.258 . S
O663 Mn648 2.162 . S
O663 C651 1.281 . S
O664 Mn648 2.297 . S
O664 C651 1.236 . S
N665 Mn649 2.282 . S
N665 C666 1.328 . S
N665 C670 1.318 . S
C666 N665 1.328 . S
C666 C667 1.457 . S
C666 H671 0.929 . S
C667 C666 1.457 . S
C667 C668 1.291 . S
C667 H680 0.931 . S
C668 C667 1.291 . S
C668 C669 1.373 . S
C668 H681 0.929 . S
C669 C668 1.373 . S
C669 C670 1.396 . S
C669 C676 1.403 . S
C670 C660 1.476 . S
C670 N665 1.318 . S
C670 C669 1.396 . S
H671 C666 0.929 . S
O672 Mn648 2.385 . S
O672 C650 1.234 . S
O673 Mn648 2.209 . S
O673 Mn649 2.215 . S
O673 C650 1.283 . S
O674 Mn648 2.094 . S
O674 C652 1.240 . S
O675 Mn649 2.117 . S
O675 C652 1.264 . S
C676 C669 1.403 . S
C676 C677 1.399 . S
C676 H682 0.929 . S
C677 C657 1.449 . S
C677 C676 1.399 . S
C677 H683 0.930 . S
H678 C658 0.931 . S
H679 C659 0.930 . S
H680 C667 0.931 . S
H681 C668 0.929 . S
H682 C676 0.929 . S
H683 C677 0.930 . S
Mn684 O689 2.095 . S
Mn684 O699 2.162 . S
Mn684 O700 2.297 . S
Mn684 O708 2.385 1_565 S
Mn684 O709 2.209 1_565 S
Mn684 O710 2.094 . S
Mn685 O690 2.121 . S
Mn685 N692 2.257 . S
Mn685 N701 2.282 . S
Mn685 O709 2.215 . S
Mn685 O711 2.117 . S
C686 O708 1.234 . S
C686 O709 1.283 . S
C687 O699 1.281 . S
C687 O700 1.236 . S
C688 O710 1.240 . S
C688 O711 1.264 1_565 S
O689 Mn684 2.095 . S
O689 C698 1.250 1_565 S
O690 Mn685 2.121 . S
O690 C698 1.258 . S
C691 N692 1.326 . S
C691 C695 1.460 . S
C691 H697 0.929 . S
N692 Mn685 2.257 . S
N692 C691 1.326 . S
N692 C696 1.362 . S
C693 C694 1.258 . S
C693 C696 1.431 . S
C693 C713 1.449 . S
C694 C693 1.258 . S
C694 C695 1.477 . S
C694 H714 0.931 . S
C695 C691 1.460 . S
C695 C694 1.477 . S
C695 H715 0.930 . S
C696 N692 1.362 . S
C696 C693 1.431 . S
C696 C706 1.476 . S
H697 C691 0.929 . S
C698 O689 1.250 1_545 S
C698 O690 1.258 . S
O699 Mn684 2.162 . S
O699 C687 1.281 . S
O700 Mn684 2.297 . S
O700 C687 1.236 . S
N701 Mn685 2.282 . S
N701 C702 1.328 . S
N701 C706 1.318 . S
C702 N701 1.328 . S
C702 C703 1.457 . S
C702 H707 0.929 . S
C703 C702 1.457 . S
C703 C704 1.291 . S
C703 H716 0.931 . S
C704 C703 1.291 . S
C704 C705 1.373 . S
C704 H717 0.929 . S
C705 C704 1.373 . S
C705 C706 1.396 . S
C705 C712 1.403 . S
C706 C696 1.476 . S
C706 N701 1.318 . S
C706 C705 1.396 . S
H707 C702 0.929 . S
O708 Mn684 2.385 1_545 S
O708 C686 1.234 . S
O709 Mn684 2.209 1_545 S
O709 Mn685 2.215 . S
O709 C686 1.283 . S
O710 Mn684 2.094 . S
O710 C688 1.240 . S
O711 Mn685 2.117 . S
O711 C688 1.264 1_545 S
C712 C705 1.403 . S
C712 C713 1.399 . S
C712 H718 0.929 . S
C713 C693 1.449 . S
C713 C712 1.399 . S
C713 H719 0.930 . S
H714 C694 0.931 . S
H715 C695 0.930 . S
H716 C703 0.931 . S
H717 C704 0.929 . S
H718 C712 0.929 . S
H719 C713 0.930 . S
Mn720 O725 2.095 . S
Mn720 O735 2.162 . S
Mn720 O736 2.297 . S
Mn720 O744 2.385 . S
Mn720 O745 2.209 . S
Mn720 O746 2.094 . S
Mn721 O726 2.121 . S
Mn721 N728 2.257 . S
Mn721 N737 2.282 . S
Mn721 O745 2.215 . S
Mn721 O747 2.117 . S
C722 O744 1.234 . S
C722 O745 1.283 . S
C723 O735 1.281 . S
C723 O736 1.236 . S
C724 O746 1.240 . S
C724 O747 1.264 . S
O725 Mn720 2.095 . S
O725 C734 1.250 . S
O726 Mn721 2.121 . S
O726 C734 1.258 . S
C727 N728 1.326 . S
C727 C731 1.460 . S
C727 H733 0.929 . S
N728 Mn721 2.257 . S
N728 C727 1.326 . S
N728 C732 1.362 . S
C729 C730 1.258 . S
C729 C732 1.431 . S
C729 C749 1.449 . S
C730 C729 1.258 . S
C730 C731 1.477 . S
C730 H750 0.931 . S
C731 C727 1.460 . S
C731 C730 1.477 . S
C731 H751 0.930 . S
C732 N728 1.362 . S
C732 C729 1.431 . S
C732 C742 1.476 . S
H733 C727 0.929 . S
C734 O725 1.250 . S
C734 O726 1.258 . S
O735 Mn720 2.162 . S
O735 C723 1.281 . S
O736 Mn720 2.297 . S
O736 C723 1.236 . S
N737 Mn721 2.282 . S
N737 C738 1.328 . S
N737 C742 1.318 . S
C738 N737 1.328 . S
C738 C739 1.457 . S
C738 H743 0.929 . S
C739 C738 1.457 . S
C739 C740 1.291 . S
C739 H752 0.931 . S
C740 C739 1.291 . S
C740 C741 1.373 . S
C740 H753 0.929 . S
C741 C740 1.373 . S
C741 C742 1.396 . S
C741 C748 1.403 . S
C742 C732 1.476 . S
C742 N737 1.318 . S
C742 C741 1.396 . S
H743 C738 0.929 . S
O744 Mn720 2.385 . S
O744 C722 1.234 . S
O745 Mn720 2.209 . S
O745 Mn721 2.215 . S
O745 C722 1.283 . S
O746 Mn720 2.094 . S
O746 C724 1.240 . S
O747 Mn721 2.117 . S
O747 C724 1.264 . S
C748 C741 1.403 . S
C748 C749 1.399 . S
C748 H754 0.929 . S
C749 C729 1.449 . S
C749 C748 1.399 . S
C749 H755 0.930 . S
H750 C730 0.931 . S
H751 C731 0.930 . S
H752 C739 0.931 . S
H753 C740 0.929 . S
H754 C748 0.929 . S
H755 C749 0.930 . S
Mn756 O761 2.095 . S
Mn756 O771 2.162 . S
Mn756 O772 2.297 . S
Mn756 O780 2.385 1_554 S
Mn756 O781 2.209 1_554 S
Mn756 O782 2.094 . S
Mn757 O762 2.121 . S
Mn757 N764 2.257 . S
Mn757 N773 2.282 . S
Mn757 O781 2.215 . S
Mn757 O783 2.117 . S
C758 O780 1.234 . S
C758 O781 1.283 . S
C759 O771 1.281 . S
C759 O772 1.236 . S
C760 O782 1.240 . S
C760 O783 1.264 1_554 S
O761 Mn756 2.095 . S
O761 C770 1.250 1_554 S
O762 Mn757 2.121 . S
O762 C770 1.258 . S
C763 N764 1.326 . S
C763 C767 1.460 . S
C763 H769 0.929 . S
N764 Mn757 2.257 . S
N764 C763 1.326 . S
N764 C768 1.362 . S
C765 C766 1.258 . S
C765 C768 1.431 . S
C765 C785 1.449 . S
C766 C765 1.258 . S
C766 C767 1.477 . S
C766 H786 0.931 . S
C767 C763 1.460 . S
C767 C766 1.477 . S
C767 H787 0.930 . S
C768 N764 1.362 . S
C768 C765 1.431 . S
C768 C778 1.476 . S
H769 C763 0.929 . S
C770 O761 1.250 1_556 S
C770 O762 1.258 . S
O771 Mn756 2.162 . S
O771 C759 1.281 . S
O772 Mn756 2.297 . S
O772 C759 1.236 . S
N773 Mn757 2.282 . S
N773 C774 1.328 . S
N773 C778 1.318 . S
C774 N773 1.328 . S
C774 C775 1.457 . S
C774 H779 0.929 . S
C775 C774 1.457 . S
C775 C776 1.291 . S
C775 H788 0.931 . S
C776 C775 1.291 . S
C776 C777 1.373 . S
C776 H789 0.929 . S
C777 C776 1.373 . S
C777 C778 1.396 . S
C777 C784 1.403 . S
C778 C768 1.476 . S
C778 N773 1.318 . S
C778 C777 1.396 . S
H779 C774 0.929 . S
O780 Mn756 2.385 1_556 S
O780 C758 1.234 . S
O781 Mn756 2.209 1_556 S
O781 Mn757 2.215 . S
O781 C758 1.283 . S
O782 Mn756 2.094 . S
O782 C760 1.240 . S
O783 Mn757 2.117 . S
O783 C760 1.264 1_556 S
C784 C777 1.403 . S
C784 C785 1.399 . S
C784 H790 0.929 . S
C785 C765 1.449 . S
C785 C784 1.399 . S
C785 H791 0.930 . S
H786 C766 0.931 . S
H787 C767 0.930 . S
H788 C775 0.931 . S
H789 C776 0.929 . S
H790 C784 0.929 . S
H791 C785 0.930 . S
Mn792 O797 2.095 . S
Mn792 O807 2.162 . S
Mn792 O808 2.297 . S
Mn792 O816 2.385 1_554 S
Mn792 O817 2.209 1_554 S
Mn792 O818 2.094 . S
Mn793 O798 2.121 . S
Mn793 N800 2.257 . S
Mn793 N809 2.282 . S
Mn793 O817 2.215 . S
Mn793 O819 2.117 . S
C794 O816 1.234 . S
C794 O817 1.283 . S
C795 O807 1.281 . S
C795 O808 1.236 . S
C796 O818 1.240 . S
C796 O819 1.264 1_554 S
O797 Mn792 2.095 . S
O797 C806 1.250 1_554 S
O798 Mn793 2.121 . S
O798 C806 1.258 . S
C799 N800 1.326 . S
C799 C803 1.460 . S
C799 H805 0.929 . S
N800 Mn793 2.257 . S
N800 C799 1.326 . S
N800 C804 1.362 . S
C801 C802 1.258 . S
C801 C804 1.431 . S
C801 C821 1.449 . S
C802 C801 1.258 . S
C802 C803 1.477 . S
C802 H822 0.931 . S
C803 C799 1.460 . S
C803 C802 1.477 . S
C803 H823 0.930 . S
C804 N800 1.362 . S
C804 C801 1.431 . S
C804 C814 1.476 . S
H805 C799 0.929 . S
C806 O797 1.250 1_556 S
C806 O798 1.258 . S
O807 Mn792 2.162 . S
O807 C795 1.281 . S
O808 Mn792 2.297 . S
O808 C795 1.236 . S
N809 Mn793 2.282 . S
N809 C810 1.328 . S
N809 C814 1.318 . S
C810 N809 1.328 . S
C810 C811 1.457 . S
C810 H815 0.929 . S
C811 C810 1.457 . S
C811 C812 1.291 . S
C811 H824 0.931 . S
C812 C811 1.291 . S
C812 C813 1.373 . S
C812 H825 0.929 . S
C813 C812 1.373 . S
C813 C814 1.396 . S
C813 C820 1.403 . S
C814 C804 1.476 . S
C814 N809 1.318 . S
C814 C813 1.396 . S
H815 C810 0.929 . S
O816 Mn792 2.385 1_556 S
O816 C794 1.234 . S
O817 Mn792 2.209 1_556 S
O817 Mn793 2.215 . S
O817 C794 1.283 . S
O818 Mn792 2.094 . S
O818 C796 1.240 . S
O819 Mn793 2.117 . S
O819 C796 1.264 1_556 S
C820 C813 1.403 . S
C820 C821 1.399 . S
C820 H826 0.929 . S
C821 C801 1.449 . S
C821 C820 1.399 . S
C821 H827 0.930 . S
H822 C802 0.931 . S
H823 C803 0.930 . S
H824 C811 0.931 . S
H825 C812 0.929 . S
H826 C820 0.929 . S
H827 C821 0.930 . S
Mn828 O833 2.095 . S
Mn828 O843 2.162 . S
Mn828 O844 2.297 . S
Mn828 O852 2.385 1_556 S
Mn828 O853 2.209 1_556 S
Mn828 O854 2.094 . S
Mn829 O834 2.121 . S
Mn829 N836 2.257 . S
Mn829 N845 2.282 . S
Mn829 O853 2.215 . S
Mn829 O855 2.117 . S
C830 O852 1.234 . S
C830 O853 1.283 . S
C831 O843 1.281 . S
C831 O844 1.236 . S
C832 O854 1.240 . S
C832 O855 1.264 1_556 S
O833 Mn828 2.095 . S
O833 C842 1.250 1_556 S
O834 Mn829 2.121 . S
O834 C842 1.258 . S
C835 N836 1.326 . S
C835 C839 1.460 . S
C835 H841 0.929 . S
N836 Mn829 2.257 . S
N836 C835 1.326 . S
N836 C840 1.362 . S
C837 C838 1.258 . S
C837 C840 1.431 . S
C837 C857 1.449 . S
C838 C837 1.258 . S
C838 C839 1.477 . S
C838 H858 0.931 . S
C839 C835 1.460 . S
C839 C838 1.477 . S
C839 H859 0.930 . S
C840 N836 1.362 . S
C840 C837 1.431 . S
C840 C850 1.476 . S
H841 C835 0.929 . S
C842 O833 1.250 1_554 S
C842 O834 1.258 . S
O843 Mn828 2.162 . S
O843 C831 1.281 . S
O844 Mn828 2.297 . S
O844 C831 1.236 . S
N845 Mn829 2.282 . S
N845 C846 1.328 . S
N845 C850 1.318 . S
C846 N845 1.328 . S
C846 C847 1.457 . S
C846 H851 0.929 . S
C847 C846 1.457 . S
C847 C848 1.291 . S
C847 H860 0.931 . S
C848 C847 1.291 . S
C848 C849 1.373 . S
C848 H861 0.929 . S
C849 C848 1.373 . S
C849 C850 1.396 . S
C849 C856 1.403 . S
C850 C840 1.476 . S
C850 N845 1.318 . S
C850 C849 1.396 . S
H851 C846 0.929 . S
O852 Mn828 2.385 1_554 S
O852 C830 1.234 . S
O853 Mn828 2.209 1_554 S
O853 Mn829 2.215 . S
O853 C830 1.283 . S
O854 Mn828 2.094 . S
O854 C832 1.240 . S
O855 Mn829 2.117 . S
O855 C832 1.264 1_554 S
C856 C849 1.403 . S
C856 C857 1.399 . S
C856 H862 0.929 . S
C857 C837 1.449 . S
C857 C856 1.399 . S
C857 H863 0.930 . S
H858 C838 0.931 . S
H859 C839 0.930 . S
H860 C847 0.931 . S
H861 C848 0.929 . S
H862 C856 0.929 . S
H863 C857 0.930 . S
H864 C870 0.930 . S
H865 C873 0.930 . S
H866 C874 0.930 . S
H867 C875 0.930 . S
H868 C878 0.930 . S
H869 C879 0.930 . S
C870 H864 0.930 . S
C870 C871 1.355 . S
C870 C872 1.415 . S
C871 C870 1.355 . S
C871 C873 1.419 . S
C872 C870 1.415 . S
C872 C877 1.425 . S
C872 C879 1.409 . S
C873 H865 0.930 . S
C873 C871 1.419 . S
C873 C874 1.362 . S
C874 H866 0.930 . S
C874 C873 1.362 . S
C874 C877 1.409 . S
C875 H867 0.930 . S
C875 C876 1.355 . S
C875 C877 1.415 . S
C876 C875 1.355 . S
C876 C878 1.419 . S
C877 C872 1.425 . S
C877 C874 1.409 . S
C877 C875 1.415 . S
C878 H868 0.930 . S
C878 C876 1.419 . S
C878 C879 1.362 . S
C879 H869 0.930 . S
C879 C872 1.409 . S
C879 C878 1.362 . S
H880 C886 0.930 . S
H881 C889 0.930 . S
H882 C890 0.930 . S
H883 C891 0.930 . S
H884 C894 0.930 . S
H885 C895 0.930 . S
C886 H880 0.930 . S
C886 C887 1.355 . S
C886 C888 1.415 . S
C887 C886 1.355 . S
C887 C889 1.419 . S
C888 C886 1.415 . S
C888 C893 1.425 . S
C888 C895 1.409 . S
C889 H881 0.930 . S
C889 C887 1.419 . S
C889 C890 1.362 . S
C890 H882 0.930 . S
C890 C889 1.362 . S
C890 C893 1.409 . S
C891 H883 0.930 . S
C891 C892 1.355 . S
C891 C893 1.415 . S
C892 C891 1.355 . S
C892 C894 1.419 . S
C893 C888 1.425 . S
C893 C890 1.409 . S
C893 C891 1.415 . S
C894 H884 0.930 . S
C894 C892 1.419 . S
C894 C895 1.362 . S
C895 H885 0.930 . S
C895 C888 1.409 . S
C895 C894 1.362 . S
H896 C902 0.930 . S
H897 C905 0.930 . S
H898 C906 0.930 . S
H899 C907 0.930 . S
H900 C910 0.930 . S
H901 C911 0.930 . S
C902 H896 0.930 . S
C902 C903 1.355 . S
C902 C904 1.415 . S
C903 C902 1.355 . S
C903 C905 1.419 . S
C904 C902 1.415 . S
C904 C909 1.425 . S
C904 C911 1.409 . S
C905 H897 0.930 . S
C905 C903 1.419 . S
C905 C906 1.362 . S
C906 H898 0.930 . S
C906 C905 1.362 . S
C906 C909 1.409 . S
C907 H899 0.930 . S
C907 C908 1.355 . S
C907 C909 1.415 1_556 S
C908 C907 1.355 . S
C908 C910 1.419 . S
C909 C904 1.425 . S
C909 C906 1.409 . S
C909 C907 1.415 1_554 S
C910 H900 0.930 . S
C910 C908 1.419 . S
C910 C911 1.362 1_556 S
C911 H901 0.930 . S
C911 C904 1.409 . S
C911 C910 1.362 1_554 S
H912 C918 0.930 . S
H913 C921 0.930 . S
H914 C922 0.930 . S
H915 C923 0.929 . S
H916 C926 0.930 . S
H917 C927 0.930 . S
C918 H912 0.930 . S
C918 C919 1.355 . S
C918 C920 1.415 . S
C919 C918 1.355 . S
C919 C921 1.419 . S
C920 C918 1.415 . S
C920 C925 1.425 . S
C920 C927 1.402 1_554 S
C921 H913 0.930 . S
C921 C919 1.419 . S
C921 C922 1.362 . S
C922 H914 0.930 . S
C922 C921 1.362 . S
C922 C925 1.409 . S
C923 H915 0.929 . S
C923 C924 1.332 1_554 S
C923 C925 1.438 . S
C924 C923 1.332 1_556 S
C924 C926 1.419 . S
C925 C920 1.425 . S
C925 C922 1.409 . S
C925 C923 1.438 . S
C926 H916 0.930 . S
C926 C924 1.419 . S
C926 C927 1.369 . S
C927 H917 0.930 . S
C927 C920 1.402 1_556 S
C927 C926 1.369 . S
H928 C934 0.930 . S
H929 C937 0.930 . S
H930 C938 0.930 . S
H931 C939 0.930 . S
H932 C942 0.930 . S
H933 C943 0.930 . S
C934 H928 0.930 . S
C934 C935 1.355 . S
C934 C936 1.415 . S
C935 C934 1.355 . S
C935 C937 1.419 . S
C936 C934 1.415 . S
C936 C941 1.425 . S
C936 C943 1.409 . S
C937 H929 0.930 . S
C937 C935 1.419 . S
C937 C938 1.362 . S
C938 H930 0.930 . S
C938 C937 1.362 . S
C938 C941 1.409 . S
C939 H931 0.930 . S
C939 C940 1.355 . S
C939 C941 1.415 . S
C940 C939 1.355 . S
C940 C942 1.419 . S
C941 C936 1.425 . S
C941 C938 1.409 . S
C941 C939 1.415 . S
C942 H932 0.930 . S
C942 C940 1.419 . S
C942 C943 1.362 . S
C943 H933 0.930 . S
C943 C936 1.409 . S
C943 C942 1.362 . S
H944 C950 0.930 . S
H945 C953 0.930 . S
H946 C954 0.930 . S
H947 C955 0.930 . S
H948 C958 0.930 . S
H949 C959 0.930 . S
C950 H944 0.930 . S
C950 C951 1.355 . S
C950 C952 1.415 . S
C951 C950 1.355 . S
C951 C953 1.419 . S
C952 C950 1.415 . S
C952 C957 1.425 . S
C952 C959 1.409 . S
C953 H945 0.930 . S
C953 C951 1.419 . S
C953 C954 1.362 . S
C954 H946 0.930 . S
C954 C953 1.362 . S
C954 C957 1.409 . S
C955 H947 0.930 . S
C955 C956 1.355 . S
C955 C957 1.415 . S
C956 C955 1.355 . S
C956 C958 1.419 . S
C957 C952 1.425 . S
C957 C954 1.409 . S
C957 C955 1.415 . S
C958 H948 0.930 . S
C958 C956 1.419 . S
C958 C959 1.362 . S
C959 H949 0.930 . S
C959 C952 1.409 . S
C959 C958 1.362 . S
H960 C966 0.930 . S
H961 C969 0.930 . S
H962 C970 0.930 . S
H963 C971 0.930 . S
H964 C974 0.930 . S
H965 C975 0.930 . S
C966 H960 0.930 . S
C966 C967 1.355 . S
C966 C968 1.415 . S
C967 C966 1.355 . S
C967 C969 1.419 . S
C968 C966 1.415 . S
C968 C973 1.425 . S
C968 C975 1.409 . S
C969 H961 0.930 . S
C969 C967 1.419 . S
C969 C970 1.362 . S
C970 H962 0.930 . S
C970 C969 1.362 . S
C970 C973 1.409 . S
C971 H963 0.930 . S
C971 C972 1.355 . S
C971 C973 1.415 . S
C972 C971 1.355 . S
C972 C974 1.419 . S
C973 C968 1.425 . S
C973 C970 1.409 . S
C973 C971 1.415 . S
C974 H964 0.930 . S
C974 C972 1.419 . S
C974 C975 1.362 . S
C975 H965 0.930 . S
C975 C968 1.409 . S
C975 C974 1.362 . S
H976 C982 0.930 . S
H977 C985 0.930 . S
H978 C986 0.930 . S
H979 C987 0.930 . S
H980 C990 0.930 . S
H981 C991 0.930 . S
C982 H976 0.930 . S
C982 C983 1.355 . S
C982 C984 1.415 . S
C983 C982 1.355 . S
C983 C985 1.419 . S
C984 C982 1.415 . S
C984 C989 1.425 . S
C984 C991 1.409 . S
C985 H977 0.930 . S
C985 C983 1.419 . S
C985 C986 1.362 . S
C986 H978 0.930 . S
C986 C985 1.362 . S
C986 C989 1.409 . S
C987 H979 0.930 . S
C987 C988 1.355 . S
C987 C989 1.415 . S
C988 C987 1.355 . S
C988 C990 1.419 . S
C989 C984 1.425 . S
C989 C986 1.409 . S
C989 C987 1.415 . S
C990 H980 0.930 . S
C990 C988 1.419 . S
C990 C991 1.362 . S
C991 H981 0.930 . S
C991 C984 1.409 . S
C991 C990 1.362 . S
H992 C998 0.930 . S
H993 C1001 0.930 . S
H994 C1002 0.930 . S
H995 C1003 0.930 . S
H996 C1006 0.930 . S
H997 C1007 0.930 . S
C998 H992 0.930 . S
C998 C999 1.355 . S
C998 C1000 1.415 . S
C999 C998 1.355 . S
C999 C1001 1.419 . S
C1000 C998 1.415 . S
C1000 C1005 1.425 . S
C1000 C1007 1.409 . S
C1001 H993 0.930 . S
C1001 C999 1.419 . S
C1001 C1002 1.362 . S
C1002 H994 0.930 . S
C1002 C1001 1.362 . S
C1002 C1005 1.409 . S
C1003 H995 0.930 . S
C1003 C1004 1.355 . S
C1003 C1005 1.415 . S
C1004 C1003 1.355 . S
C1004 C1006 1.419 . S
C1005 C1000 1.425 . S
C1005 C1002 1.409 . S
C1005 C1003 1.415 . S
C1006 H996 0.930 . S
C1006 C1004 1.419 . S
C1006 C1007 1.362 . S
C1007 H997 0.930 . S
C1007 C1000 1.409 . S
C1007 C1006 1.362 . S
H1008 C1014 0.930 . S
H1009 C1017 0.930 . S
H1010 C1018 0.930 . S
H1011 C1019 0.930 . S
H1012 C1022 0.930 . S
H1013 C1023 0.930 . S
C1014 H1008 0.930 . S
C1014 C1015 1.355 . S
C1014 C1016 1.415 . S
C1015 C1014 1.355 . S
C1015 C1017 1.419 . S
C1016 C1014 1.415 . S
C1016 C1021 1.425 . S
C1016 C1023 1.409 . S
C1017 H1009 0.930 . S
C1017 C1015 1.419 . S
C1017 C1018 1.362 . S
C1018 H1010 0.930 . S
C1018 C1017 1.362 . S
C1018 C1021 1.409 . S
C1019 H1011 0.930 . S
C1019 C1020 1.355 . S
C1019 C1021 1.415 . S
C1020 C1019 1.355 . S
C1020 C1022 1.419 . S
C1021 C1016 1.425 . S
C1021 C1018 1.409 . S
C1021 C1019 1.415 . S
C1022 H1012 0.930 . S
C1022 C1020 1.419 . S
C1022 C1023 1.362 . S
C1023 H1013 0.930 . S
C1023 C1016 1.409 . S
C1023 C1022 1.362 . S
H1024 C1030 0.930 . S
H1025 C1033 0.930 . S
H1026 C1034 0.930 . S
H1027 C1035 0.930 . S
H1028 C1038 0.930 1_545 S
H1029 C1039 0.930 . S
C1030 H1024 0.930 . S
C1030 C1031 1.355 . S
C1030 C1032 1.415 . S
C1031 C1030 1.355 . S
C1031 C1033 1.419 . S
C1032 C1030 1.415 . S
C1032 C1037 1.425 . S
C1032 C1039 1.409 . S
C1033 H1025 0.930 . S
C1033 C1031 1.419 . S
C1033 C1034 1.362 . S
C1034 H1026 0.930 . S
C1034 C1033 1.362 . S
C1034 C1037 1.409 . S
C1035 H1027 0.930 . S
C1035 C1036 1.355 . S
C1035 C1037 1.415 1_545 S
C1036 C1035 1.355 . S
C1036 C1038 1.419 1_545 S
C1037 C1032 1.425 . S
C1037 C1034 1.409 . S
C1037 C1035 1.415 1_565 S
C1038 H1028 0.930 1_565 S
C1038 C1036 1.419 1_565 S
C1038 C1039 1.362 . S
C1039 H1029 0.930 . S
C1039 C1032 1.409 . S
C1039 C1038 1.362 . S
H1040 C1046 0.930 . S
H1041 C1049 0.930 . S
H1042 C1050 0.930 . S
H1043 C1051 0.930 . S
H1044 C1054 0.930 . S
H1045 C1055 0.930 . S
C1046 H1040 0.930 . S
C1046 C1047 1.355 . S
C1046 C1048 1.415 . S
C1047 C1046 1.355 . S
C1047 C1049 1.419 . S
C1048 C1046 1.415 . S
C1048 C1053 1.425 . S
C1048 C1055 1.409 . S
C1049 H1041 0.930 . S
C1049 C1047 1.419 . S
C1049 C1050 1.362 . S
C1050 H1042 0.930 . S
C1050 C1049 1.362 . S
C1050 C1053 1.409 . S
C1051 H1043 0.930 . S
C1051 C1052 1.355 . S
C1051 C1053 1.415 . S
C1052 C1051 1.355 . S
C1052 C1054 1.419 . S
C1053 C1048 1.425 . S
C1053 C1050 1.409 . S
C1053 C1051 1.415 . S
C1054 H1044 0.930 . S
C1054 C1052 1.419 . S
C1054 C1055 1.362 . S
C1055 H1045 0.930 . S
C1055 C1048 1.409 . S
C1055 C1054 1.362 . S
H1056 C1062 0.930 . S
H1057 C1065 0.930 . S
H1058 C1066 0.930 . S
H1059 C1067 0.930 . S
H1060 C1070 0.930 . S
H1061 C1071 0.930 . S
C1062 H1056 0.930 . S
C1062 C1063 1.355 . S
C1062 C1064 1.415 1_554 S
C1063 C1062 1.355 . S
C1063 C1065 1.419 . S
C1064 C1062 1.415 1_556 S
C1064 C1069 1.425 . S
C1064 C1071 1.409 . S
C1065 H1057 0.930 . S
C1065 C1063 1.419 . S
C1065 C1066 1.362 1_554 S
C1066 H1058 0.930 . S
C1066 C1065 1.362 1_556 S
C1066 C1069 1.409 . S
C1067 H1059 0.930 . S
C1067 C1068 1.355 . S
C1067 C1069 1.415 . S
C1068 C1067 1.355 . S
C1068 C1070 1.419 . S
C1069 C1064 1.425 . S
C1069 C1066 1.409 . S
C1069 C1067 1.415 . S
C1070 H1060 0.930 . S
C1070 C1068 1.419 . S
C1070 C1071 1.362 . S
C1071 H1061 0.930 . S
C1071 C1064 1.409 . S
C1071 C1070 1.362 . S
H1072 C1078 0.930 . S
H1073 C1081 0.930 . S
H1074 C1082 0.930 . S
H1075 C1083 0.930 . S
H1076 C1086 0.930 . S
H1077 C1087 0.930 . S
C1078 H1072 0.930 . S
C1078 C1079 1.355 1_556 S
C1078 C1080 1.415 . S
C1079 C1078 1.355 1_554 S
C1079 C1081 1.419 . S
C1080 C1078 1.415 . S
C1080 C1085 1.425 . S
C1080 C1087 1.409 . S
C1081 H1073 0.930 . S
C1081 C1079 1.419 . S
C1081 C1082 1.362 1_554 S
C1082 H1074 0.930 . S
C1082 C1081 1.362 1_556 S
C1082 C1085 1.409 . S
C1083 H1075 0.930 . S
C1083 C1084 1.355 . S
C1083 C1085 1.415 . S
C1084 C1083 1.355 . S
C1084 C1086 1.419 . S
C1085 C1080 1.425 . S
C1085 C1082 1.409 . S
C1085 C1083 1.415 . S
C1086 H1076 0.930 . S
C1086 C1084 1.419 . S
C1086 C1087 1.362 . S
C1087 H1077 0.930 . S
C1087 C1080 1.409 . S
C1087 C1086 1.362 . S
H1088 C1094 0.930 . S
H1089 C1097 0.930 . S
H1090 C1098 0.930 . S
H1091 C1099 0.930 . S
H1092 C1102 0.930 . S
H1093 C1103 0.930 . S
C1094 H1088 0.930 . S
C1094 C1095 1.355 . S
C1094 C1096 1.415 . S
C1095 C1094 1.355 . S
C1095 C1097 1.419 . S
C1096 C1094 1.415 . S
C1096 C1101 1.425 . S
C1096 C1103 1.409 . S
C1097 H1089 0.930 . S
C1097 C1095 1.419 . S
C1097 C1098 1.362 . S
C1098 H1090 0.930 . S
C1098 C1097 1.362 . S
C1098 C1101 1.409 . S
C1099 H1091 0.930 . S
C1099 C1100 1.355 . S
C1099 C1101 1.415 . S
C1100 C1099 1.355 . S
C1100 C1102 1.419 . S
C1101 C1096 1.425 . S
C1101 C1098 1.409 . S
C1101 C1099 1.415 . S
C1102 H1092 0.930 . S
C1102 C1100 1.419 . S
C1102 C1103 1.362 . S
C1103 H1093 0.930 . S
C1103 C1096 1.409 . S
C1103 C1102 1.362 . S
H1104 C1110 0.930 . S
H1105 C1113 0.930 . S
H1106 C1114 0.930 . S
H1107 C1115 0.930 . S
H1108 C1118 0.930 . S
H1109 C1119 0.930 . S
C1110 H1104 0.930 . S
C1110 C1111 1.355 . S
C1110 C1112 1.415 . S
C1111 C1110 1.355 . S
C1111 C1113 1.419 . S
C1112 C1110 1.415 . S
C1112 C1117 1.425 . S
C1112 C1119 1.409 . S
C1113 H1105 0.930 . S
C1113 C1111 1.419 . S
C1113 C1114 1.362 . S
C1114 H1106 0.930 . S
C1114 C1113 1.362 . S
C1114 C1117 1.409 . S
C1115 H1107 0.930 . S
C1115 C1116 1.355 . S
C1115 C1117 1.415 . S
C1116 C1115 1.355 . S
C1116 C1118 1.419 . S
C1117 C1112 1.425 . S
C1117 C1114 1.409 . S
C1117 C1115 1.415 . S
C1118 H1108 0.930 . S
C1118 C1116 1.419 . S
C1118 C1119 1.362 . S
C1119 H1109 0.930 . S
C1119 C1112 1.409 . S
C1119 C1118 1.362 . S
H1120 C1126 0.930 . S
H1121 C1129 0.930 . S
H1122 C1130 0.930 . S
H1123 C1131 0.930 . S
H1124 C1134 0.930 . S
H1125 C1135 0.930 . S
C1126 H1120 0.930 . S
C1126 C1127 1.355 . S
C1126 C1128 1.415 1_455 S
C1127 C1126 1.355 . S
C1127 C1129 1.419 . S
C1128 C1126 1.415 1_655 S
C1128 C1133 1.425 . S
C1128 C1135 1.409 . S
C1129 H1121 0.930 . S
C1129 C1127 1.419 . S
C1129 C1130 1.362 1_455 S
C1130 H1122 0.930 . S
C1130 C1129 1.362 1_655 S
C1130 C1133 1.409 . S
C1131 H1123 0.930 . S
C1131 C1132 1.355 . S
C1131 C1133 1.415 . S
C1132 C1131 1.355 . S
C1132 C1134 1.419 . S
C1133 C1128 1.425 . S
C1133 C1130 1.409 . S
C1133 C1131 1.415 . S
C1134 H1124 0.930 . S
C1134 C1132 1.419 . S
C1134 C1135 1.362 . S
C1135 H1125 0.930 . S
C1135 C1128 1.409 . S
C1135 C1134 1.362 . S
H1136 C1142 0.931 . S
H1137 C1145 0.930 . S
H1138 C1146 0.932 . S
H1139 C1147 0.930 . S
H1140 C1150 0.930 . S
H1141 C1151 0.930 . S
C1142 H1136 0.931 . S
C1142 C1143 1.326 1_455 S
C1142 C1144 1.443 . S
C1143 C1142 1.326 1_655 S
C1143 C1145 1.419 . S
C1144 C1142 1.443 . S
C1144 C1149 1.425 . S
C1144 C1151 1.409 . S
C1145 H1137 0.930 . S
C1145 C1143 1.419 . S
C1145 C1146 1.390 . S
C1146 H1138 0.932 . S
C1146 C1145 1.390 . S
C1146 C1149 1.380 1_655 S
C1147 H1139 0.930 . S
C1147 C1148 1.355 . S
C1147 C1149 1.415 . S
C1148 C1147 1.355 . S
C1148 C1150 1.419 . S
C1149 C1144 1.425 . S
C1149 C1146 1.380 1_455 S
C1149 C1147 1.415 . S
C1150 H1140 0.930 . S
C1150 C1148 1.419 . S
C1150 C1151 1.362 . S
C1151 H1141 0.930 . S
C1151 C1144 1.409 . S
C1151 C1150 1.362 . S
H1152 C1158 0.930 . S
H1153 C1161 0.930 . S
H1154 C1162 0.930 . S
H1155 C1163 0.930 . S
H1156 C1166 0.930 . S
H1157 C1167 0.930 . S
C1158 H1152 0.930 . S
C1158 C1159 1.355 . S
C1158 C1160 1.415 1_455 S
C1159 C1158 1.355 . S
C1159 C1161 1.419 . S
C1160 C1158 1.415 1_655 S
C1160 C1165 1.425 . S
C1160 C1167 1.409 . S
C1161 H1153 0.930 . S
C1161 C1159 1.419 . S
C1161 C1162 1.362 1_455 S
C1162 H1154 0.930 . S
C1162 C1161 1.362 1_655 S
C1162 C1165 1.409 . S
C1163 H1155 0.930 . S
C1163 C1164 1.355 . S
C1163 C1165 1.415 . S
C1164 C1163 1.355 . S
C1164 C1166 1.419 . S
C1165 C1160 1.425 . S
C1165 C1162 1.409 . S
C1165 C1163 1.415 . S
C1166 H1156 0.930 . S
C1166 C1164 1.419 . S
C1166 C1167 1.362 . S
C1167 H1157 0.930 . S
C1167 C1160 1.409 . S
C1167 C1166 1.362 . S
H1168 C1174 0.930 . S
H1169 C1177 0.930 . S
H1170 C1178 0.930 . S
H1171 C1179 0.930 . S
H1172 C1182 0.930 1_655 S
H1173 C1183 0.930 . S
C1174 H1168 0.930 . S
C1174 C1175 1.355 . S
C1174 C1176 1.415 . S
C1175 C1174 1.355 . S
C1175 C1177 1.419 . S
C1176 C1174 1.415 . S
C1176 C1181 1.425 . S
C1176 C1183 1.409 . S
C1177 H1169 0.930 . S
C1177 C1175 1.419 . S
C1177 C1178 1.362 . S
C1178 H1170 0.930 . S
C1178 C1177 1.362 . S
C1178 C1181 1.409 . S
C1179 H1171 0.930 . S
C1179 C1180 1.355 . S
C1179 C1181 1.415 1_655 S
C1180 C1179 1.355 . S
C1180 C1182 1.419 1_655 S
C1181 C1176 1.425 . S
C1181 C1178 1.409 . S
C1181 C1179 1.415 1_455 S
C1182 H1172 0.930 1_455 S
C1182 C1180 1.419 1_455 S
C1182 C1183 1.362 . S
C1183 H1173 0.930 . S
C1183 C1176 1.409 . S
C1183 C1182 1.362 . S
H1184 C1190 0.930 . S
H1185 C1193 0.930 . S
H1186 C1194 0.930 . S
H1187 C1195 0.930 . S
H1188 C1198 0.930 . S
H1189 C1199 0.930 . S
C1190 H1184 0.930 . S
C1190 C1191 1.355 1_565 S
C1190 C1192 1.415 . S
C1191 C1190 1.355 1_545 S
C1191 C1193 1.419 . S
C1192 C1190 1.415 . S
C1192 C1197 1.425 . S
C1192 C1199 1.409 . S
C1193 H1185 0.930 . S
C1193 C1191 1.419 . S
C1193 C1194 1.362 . S
C1194 H1186 0.930 . S
C1194 C1193 1.362 . S
C1194 C1197 1.409 1_545 S
C1195 H1187 0.930 . S
C1195 C1196 1.355 . S
C1195 C1197 1.415 . S
C1196 C1195 1.355 . S
C1196 C1198 1.419 . S
C1197 C1192 1.425 . S
C1197 C1194 1.409 1_565 S
C1197 C1195 1.415 . S
C1198 H1188 0.930 . S
C1198 C1196 1.419 . S
C1198 C1199 1.362 . S
C1199 H1189 0.930 . S
C1199 C1192 1.409 . S
C1199 C1198 1.362 . S
H1200 C1206 0.930 . S
H1201 C1209 0.930 . S
H1202 C1210 0.930 . S
H1203 C1211 0.930 . S
H1204 C1214 0.930 . S
H1205 C1215 0.930 . S
C1206 H1200 0.930 . S
C1206 C1207 1.355 . S
C1206 C1208 1.415 . S
C1207 C1206 1.355 . S
C1207 C1209 1.419 . S
C1208 C1206 1.415 . S
C1208 C1213 1.425 . S
C1208 C1215 1.409 . S
C1209 H1201 0.930 . S
C1209 C1207 1.419 . S
C1209 C1210 1.362 . S
C1210 H1202 0.930 . S
C1210 C1209 1.362 . S
C1210 C1213 1.409 . S
C1211 H1203 0.930 . S
C1211 C1212 1.355 . S
C1211 C1213 1.415 1_565 S
C1212 C1211 1.355 . S
C1212 C1214 1.419 . S
C1213 C1208 1.425 . S
C1213 C1210 1.409 . S
C1213 C1211 1.415 1_545 S
C1214 H1204 0.930 . S
C1214 C1212 1.419 . S
C1214 C1215 1.362 1_565 S
C1215 H1205 0.930 . S
C1215 C1208 1.409 . S
C1215 C1214 1.362 1_545 S
H1216 C1222 0.930 . S
H1217 C1225 0.930 . S
H1218 C1226 0.930 . S
H1219 C1227 0.930 . S
H1220 C1230 0.930 . S
H1221 C1231 0.930 . S
C1222 H1216 0.930 . S
C1222 C1223 1.355 . S
C1222 C1224 1.415 . S
C1223 C1222 1.355 . S
C1223 C1225 1.419 . S
C1224 C1222 1.415 . S
C1224 C1229 1.425 . S
C1224 C1231 1.409 . S
C1225 H1217 0.930 . S
C1225 C1223 1.419 . S
C1225 C1226 1.362 . S
C1226 H1218 0.930 . S
C1226 C1225 1.362 . S
C1226 C1229 1.409 . S
C1227 H1219 0.930 . S
C1227 C1228 1.355 . S
C1227 C1229 1.415 . S
C1228 C1227 1.355 . S
C1228 C1230 1.419 . S
C1229 C1224 1.425 . S
C1229 C1226 1.409 . S
C1229 C1227 1.415 . S
C1230 H1220 0.930 . S
C1230 C1228 1.419 . S
C1230 C1231 1.362 . S
C1231 H1221 0.930 . S
C1231 C1224 1.409 . S
C1231 C1230 1.362 . S
H1232 C1238 0.930 . S
H1233 C1241 0.930 . S
H1234 C1242 0.930 . S
H1235 C1243 0.930 . S
H1236 C1246 0.930 . S
H1237 C1247 0.930 . S
C1238 H1232 0.930 . S
C1238 C1239 1.355 . S
C1238 C1240 1.415 . S
C1239 C1238 1.355 . S
C1239 C1241 1.419 . S
C1240 C1238 1.415 . S
C1240 C1245 1.425 . S
C1240 C1247 1.409 . S
C1241 H1233 0.930 . S
C1241 C1239 1.419 . S
C1241 C1242 1.362 . S
C1242 H1234 0.930 . S
C1242 C1241 1.362 . S
C1242 C1245 1.409 . S
C1243 H1235 0.930 . S
C1243 C1244 1.355 . S
C1243 C1245 1.415 1_565 S
C1244 C1243 1.355 . S
C1244 C1246 1.419 . S
C1245 C1240 1.425 . S
C1245 C1242 1.409 . S
C1245 C1243 1.415 1_545 S
C1246 H1236 0.930 . S
C1246 C1244 1.419 . S
C1246 C1247 1.362 1_565 S
C1247 H1237 0.930 . S
C1247 C1240 1.409 . S
C1247 C1246 1.362 1_545 S
H1248 C1254 0.930 . S
H1249 C1257 0.930 . S
H1250 C1258 0.930 . S
H1251 C1259 0.930 . S
H1252 C1262 0.930 . S
H1253 C1263 0.930 . S
C1254 H1248 0.930 . S
C1254 C1255 1.355 . S
C1254 C1256 1.415 . S
C1255 C1254 1.355 . S
C1255 C1257 1.419 1_655 S
C1256 C1254 1.415 . S
C1256 C1261 1.425 1_655 S
C1256 C1263 1.409 . S
C1257 H1249 0.930 . S
C1257 C1255 1.419 1_455 S
C1257 C1258 1.362 . S
C1258 H1250 0.930 . S
C1258 C1257 1.362 . S
C1258 C1261 1.409 . S
C1259 H1251 0.930 . S
C1259 C1260 1.355 . S
C1259 C1261 1.415 . S
C1260 C1259 1.355 . S
C1260 C1262 1.419 1_455 S
C1261 C1256 1.425 1_455 S
C1261 C1258 1.409 . S
C1261 C1259 1.415 . S
C1262 H1252 0.930 . S
C1262 C1260 1.419 1_655 S
C1262 C1263 1.362 . S
C1263 H1253 0.930 . S
C1263 C1256 1.409 . S
C1263 C1262 1.362 . S
H1264 C1270 0.930 . S
H1265 C1273 0.930 . S
H1266 C1274 0.930 . S
H1267 C1275 0.930 . S
H1268 C1278 0.930 . S
H1269 C1279 0.930 . S
C1270 H1264 0.930 . S
C1270 C1271 1.355 1_655 S
C1270 C1272 1.415 . S
C1271 C1270 1.355 1_455 S
C1271 C1273 1.419 . S
C1272 C1270 1.415 . S
C1272 C1277 1.425 1_655 S
C1272 C1279 1.409 . S
C1273 H1265 0.930 . S
C1273 C1271 1.419 . S
C1273 C1274 1.362 . S
C1274 H1266 0.930 . S
C1274 C1273 1.362 . S
C1274 C1277 1.409 . S
C1275 H1267 0.930 . S
C1275 C1276 1.355 1_455 S
C1275 C1277 1.415 . S
C1276 C1275 1.355 1_655 S
C1276 C1278 1.419 . S
C1277 C1272 1.425 1_455 S
C1277 C1274 1.409 . S
C1277 C1275 1.415 . S
C1278 H1268 0.930 . S
C1278 C1276 1.419 . S
C1278 C1279 1.362 . S
C1279 H1269 0.930 . S
C1279 C1272 1.409 . S
C1279 C1278 1.362 . S
H1280 C1286 0.930 . S
H1281 C1289 0.930 . S
H1282 C1290 0.930 . S
H1283 C1291 0.930 . S
H1284 C1294 0.930 . S
H1285 C1295 0.930 . S
C1286 H1280 0.930 . S
C1286 C1287 1.355 1_545 S
C1286 C1288 1.415 . S
C1287 C1286 1.355 1_565 S
C1287 C1289 1.419 . S
C1288 C1286 1.415 . S
C1288 C1293 1.425 1_545 S
C1288 C1295 1.409 . S
C1289 H1281 0.930 . S
C1289 C1287 1.419 . S
C1289 C1290 1.362 . S
C1290 H1282 0.930 . S
C1290 C1289 1.362 . S
C1290 C1293 1.409 . S
C1291 H1283 0.930 . S
C1291 C1292 1.355 1_565 S
C1291 C1293 1.415 . S
C1292 C1291 1.355 1_545 S
C1292 C1294 1.419 . S
C1293 C1288 1.425 1_565 S
C1293 C1290 1.409 . S
C1293 C1291 1.415 . S
C1294 H1284 0.930 . S
C1294 C1292 1.419 . S
C1294 C1295 1.362 . S
C1295 H1285 0.930 . S
C1295 C1288 1.409 . S
C1295 C1294 1.362 . S
H1296 C1302 0.930 . S
H1297 C1305 0.930 . S
H1298 C1306 0.930 . S
H1299 C1307 0.930 . S
H1300 C1310 0.930 . S
H1301 C1311 0.930 . S
C1302 H1296 0.930 . S
C1302 C1303 1.355 . S
C1302 C1304 1.415 . S
C1303 C1302 1.355 . S
C1303 C1305 1.419 . S
C1304 C1302 1.415 . S
C1304 C1309 1.425 . S
C1304 C1311 1.409 . S
C1305 H1297 0.930 . S
C1305 C1303 1.419 . S
C1305 C1306 1.362 . S
C1306 H1298 0.930 . S
C1306 C1305 1.362 . S
C1306 C1309 1.409 . S
C1307 H1299 0.930 . S
C1307 C1308 1.355 . S
C1307 C1309 1.415 . S
C1308 C1307 1.355 . S
C1308 C1310 1.419 . S
C1309 C1304 1.425 . S
C1309 C1306 1.409 . S
C1309 C1307 1.415 . S
C1310 H1300 0.930 . S
C1310 C1308 1.419 . S
C1310 C1311 1.362 . S
C1311 H1301 0.930 . S
C1311 C1304 1.409 . S
C1311 C1310 1.362 . S
H1312 C1318 0.930 . S
H1313 C1321 0.930 . S
H1314 C1322 0.930 . S
H1315 C1323 0.930 . S
H1316 C1326 0.930 . S
H1317 C1327 0.930 . S
C1318 H1312 0.930 . S
C1318 C1319 1.355 . S
C1318 C1320 1.415 . S
C1319 C1318 1.355 . S
C1319 C1321 1.419 1_554 S
C1320 C1318 1.415 . S
C1320 C1325 1.425 1_554 S
C1320 C1327 1.409 . S
C1321 H1313 0.930 . S
C1321 C1319 1.419 1_556 S
C1321 C1322 1.362 . S
C1322 H1314 0.930 . S
C1322 C1321 1.362 . S
C1322 C1325 1.409 . S
C1323 H1315 0.930 . S
C1323 C1324 1.355 . S
C1323 C1325 1.415 . S
C1324 C1323 1.355 . S
C1324 C1326 1.419 1_556 S
C1325 C1320 1.425 1_556 S
C1325 C1322 1.409 . S
C1325 C1323 1.415 . S
C1326 H1316 0.930 . S
C1326 C1324 1.419 1_554 S
C1326 C1327 1.362 . S
C1327 H1317 0.930 . S
C1327 C1320 1.409 . S
C1327 C1326 1.362 . S
H1328 C1334 0.930 . S
H1329 C1337 0.930 . S
H1330 C1338 0.930 . S
H1331 C1339 0.930 . S
H1332 C1342 0.930 . S
H1333 C1343 0.930 . S
C1334 H1328 0.930 . S
C1334 C1335 1.355 . S
C1334 C1336 1.415 . S
C1335 C1334 1.355 . S
C1335 C1337 1.419 . S
C1336 C1334 1.415 . S
C1336 C1341 1.425 . S
C1336 C1343 1.409 . S
C1337 H1329 0.930 . S
C1337 C1335 1.419 . S
C1337 C1338 1.362 . S
C1338 H1330 0.930 . S
C1338 C1337 1.362 . S
C1338 C1341 1.409 . S
C1339 H1331 0.930 . S
C1339 C1340 1.355 . S
C1339 C1341 1.415 . S
C1340 C1339 1.355 . S
C1340 C1342 1.419 . S
C1341 C1336 1.425 . S
C1341 C1338 1.409 . S
C1341 C1339 1.415 . S
C1342 H1332 0.930 . S
C1342 C1340 1.419 . S
C1342 C1343 1.362 . S
C1343 H1333 0.930 . S
C1343 C1336 1.409 . S
C1343 C1342 1.362 . S
H1344 C1350 0.930 . S
H1345 C1353 0.930 . S
H1346 C1354 0.930 . S
H1347 C1355 0.930 . S
H1348 C1358 0.930 . S
H1349 C1359 0.930 . S
C1350 H1344 0.930 . S
C1350 C1351 1.355 . S
C1350 C1352 1.415 . S
C1351 C1350 1.355 . S
C1351 C1353 1.419 . S
C1352 C1350 1.415 . S
C1352 C1357 1.425 . S
C1352 C1359 1.409 . S
C1353 H1345 0.930 . S
C1353 C1351 1.419 . S
C1353 C1354 1.362 . S
C1354 H1346 0.930 . S
C1354 C1353 1.362 . S
C1354 C1357 1.409 . S
C1355 H1347 0.930 . S
C1355 C1356 1.355 . S
C1355 C1357 1.415 . S
C1356 C1355 1.355 . S
C1356 C1358 1.419 . S
C1357 C1352 1.425 . S
C1357 C1354 1.409 . S
C1357 C1355 1.415 . S
C1358 H1348 0.930 . S
C1358 C1356 1.419 . S
C1358 C1359 1.362 . S
C1359 H1349 0.930 . S
C1359 C1352 1.409 . S
C1359 C1358 1.362 . S
H1360 C1366 0.930 . S
H1361 C1369 0.930 . S
H1362 C1370 0.930 . S
H1363 C1371 0.930 . S
H1364 C1374 0.930 . S
H1365 C1375 0.930 . S
C1366 H1360 0.930 . S
C1366 C1367 1.355 . S
C1366 C1368 1.415 . S
C1367 C1366 1.355 . S
C1367 C1369 1.419 . S
C1368 C1366 1.415 . S
C1368 C1373 1.425 . S
C1368 C1375 1.409 . S
C1369 H1361 0.930 . S
C1369 C1367 1.419 . S
C1369 C1370 1.362 . S
C1370 H1362 0.930 . S
C1370 C1369 1.362 . S
C1370 C1373 1.409 . S
C1371 H1363 0.930 . S
C1371 C1372 1.355 . S
C1371 C1373 1.415 . S
C1372 C1371 1.355 . S
C1372 C1374 1.419 . S
C1373 C1368 1.425 . S
C1373 C1370 1.409 . S
C1373 C1371 1.415 . S
C1374 H1364 0.930 . S
C1374 C1372 1.419 . S
C1374 C1375 1.362 . S
C1375 H1365 0.930 . S
C1375 C1368 1.409 . S
C1375 C1374 1.362 . S
H1376 C1382 0.930 . S
H1377 C1385 0.930 . S
H1378 C1386 0.930 . S
H1379 C1387 0.930 . S
H1380 C1390 0.930 . S
H1381 C1391 0.930 . S
C1382 H1376 0.930 . S
C1382 C1383 1.355 . S
C1382 C1384 1.415 . S
C1383 C1382 1.355 . S
C1383 C1385 1.419 . S
C1384 C1382 1.415 . S
C1384 C1389 1.425 . S
C1384 C1391 1.409 . S
C1385 H1377 0.930 . S
C1385 C1383 1.419 . S
C1385 C1386 1.362 . S
C1386 H1378 0.930 . S
C1386 C1385 1.362 . S
C1386 C1389 1.409 . S
C1387 H1379 0.930 . S
C1387 C1388 1.355 . S
C1387 C1389 1.415 . S
C1388 C1387 1.355 . S
C1388 C1390 1.419 . S
C1389 C1384 1.425 . S
C1389 C1386 1.409 . S
C1389 C1387 1.415 . S
C1390 H1380 0.930 . S
C1390 C1388 1.419 . S
C1390 C1391 1.362 . S
C1391 H1381 0.930 . S
C1391 C1384 1.409 . S
C1391 C1390 1.362 . S
H1392 C1398 0.930 . S
H1393 C1401 0.930 . S
H1394 C1402 0.930 . S
H1395 C1403 0.930 . S
H1396 C1406 0.930 . S
H1397 C1407 0.930 . S
C1398 H1392 0.930 . S
C1398 C1399 1.355 . S
C1398 C1400 1.415 . S
C1399 C1398 1.355 . S
C1399 C1401 1.419 . S
C1400 C1398 1.415 . S
C1400 C1405 1.425 . S
C1400 C1407 1.409 . S
C1401 H1393 0.930 . S
C1401 C1399 1.419 . S
C1401 C1402 1.362 . S
C1402 H1394 0.930 . S
C1402 C1401 1.362 . S
C1402 C1405 1.409 . S
C1403 H1395 0.930 . S
C1403 C1404 1.355 . S
C1403 C1405 1.415 . S
C1404 C1403 1.355 . S
C1404 C1406 1.419 . S
C1405 C1400 1.425 . S
C1405 C1402 1.409 . S
C1405 C1403 1.415 . S
C1406 H1396 0.930 . S
C1406 C1404 1.419 . S
C1406 C1407 1.362 . S
C1407 H1397 0.930 . S
C1407 C1400 1.409 . S
C1407 C1406 1.362 . S
H1408 C1414 0.930 . S
H1409 C1417 0.930 . S
H1410 C1418 0.930 . S
H1411 C1419 0.930 . S
H1412 C1422 0.930 . S
H1413 C1423 0.930 . S
C1414 H1408 0.930 . S
C1414 C1415 1.355 1_565 S
C1414 C1416 1.415 . S
C1415 C1414 1.355 1_545 S
C1415 C1417 1.419 . S
C1416 C1414 1.415 . S
C1416 C1421 1.425 1_565 S
C1416 C1423 1.409 . S
C1417 H1409 0.930 . S
C1417 C1415 1.419 . S
C1417 C1418 1.362 . S
C1418 H1410 0.930 . S
C1418 C1417 1.362 . S
C1418 C1421 1.409 . S
C1419 H1411 0.930 . S
C1419 C1420 1.355 1_545 S
C1419 C1421 1.415 . S
C1420 C1419 1.355 1_565 S
C1420 C1422 1.419 . S
C1421 C1416 1.425 1_545 S
C1421 C1418 1.409 . S
C1421 C1419 1.415 . S
C1422 H1412 0.930 . S
C1422 C1420 1.419 . S
C1422 C1423 1.362 . S
C1423 H1413 0.930 . S
C1423 C1416 1.409 . S
C1423 C1422 1.362 . S
H1424 C1430 0.930 . S
H1425 C1433 0.930 . S
H1426 C1434 0.930 . S
H1427 C1435 0.930 . S
H1428 C1438 0.930 . S
H1429 C1439 0.930 . S
C1430 H1424 0.930 . S
C1430 C1431 1.355 . S
C1430 C1432 1.415 . S
C1431 C1430 1.355 . S
C1431 C1433 1.419 1_556 S
C1432 C1430 1.415 . S
C1432 C1437 1.425 1_556 S
C1432 C1439 1.409 . S
C1433 H1425 0.930 . S
C1433 C1431 1.419 1_554 S
C1433 C1434 1.362 . S
C1434 H1426 0.930 . S
C1434 C1433 1.362 . S
C1434 C1437 1.409 . S
C1435 H1427 0.930 . S
C1435 C1436 1.355 . S
C1435 C1437 1.415 . S
C1436 C1435 1.355 . S
C1436 C1438 1.419 1_554 S
C1437 C1432 1.425 1_554 S
C1437 C1434 1.409 . S
C1437 C1435 1.415 . S
C1438 H1428 0.930 . S
C1438 C1436 1.419 1_556 S
C1438 C1439 1.362 . S
C1439 H1429 0.930 . S
C1439 C1432 1.409 . S
C1439 C1438 1.362 . S
H1440 C1446 0.930 . S
H1441 C1449 0.930 . S
H1442 C1450 0.930 . S
H1443 C1451 0.930 . S
H1444 C1454 0.930 . S
H1445 C1455 0.930 . S
C1446 H1440 0.930 . S
C1446 C1447 1.355 . S
C1446 C1448 1.415 . S
C1447 C1446 1.355 . S
C1447 C1449 1.419 1_455 S
C1448 C1446 1.415 . S
C1448 C1453 1.422 1_465 S
C1448 C1455 1.409 1_565 S
C1449 H1441 0.930 . S
C1449 C1447 1.419 1_655 S
C1449 C1450 1.362 . S
C1450 H1442 0.930 . S
C1450 C1449 1.362 . S
C1450 C1453 1.396 1_565 S
C1451 H1443 0.930 . S
C1451 C1452 1.355 1_655 S
C1451 C1453 1.432 . S
C1452 C1451 1.355 1_455 S
C1452 C1454 1.419 . S
C1453 C1448 1.422 1_645 S
C1453 C1450 1.396 1_545 S
C1453 C1451 1.432 . S
C1454 H1444 0.930 . S
C1454 C1452 1.419 . S
C1454 C1455 1.362 . S
C1455 H1445 0.930 . S
C1455 C1448 1.409 1_545 S
C1455 C1454 1.362 . S
H1456 C1462 0.930 . S
H1457 C1465 0.930 . S
H1458 C1466 0.930 . S
H1459 C1467 0.930 . S
H1460 C1470 0.930 . S
H1461 C1471 0.930 . S
C1462 H1456 0.930 . S
C1462 C1463 1.355 . S
C1462 C1464 1.415 . S
C1463 C1462 1.355 . S
C1463 C1465 1.419 1_655 S
C1464 C1462 1.415 . S
C1464 C1469 1.425 1_655 S
C1464 C1471 1.409 . S
C1465 H1457 0.930 . S
C1465 C1463 1.419 1_455 S
C1465 C1466 1.362 . S
C1466 H1458 0.930 . S
C1466 C1465 1.362 . S
C1466 C1469 1.409 . S
C1467 H1459 0.930 . S
C1467 C1468 1.355 1_455 S
C1467 C1469 1.415 . S
C1468 C1467 1.355 1_655 S
C1468 C1470 1.419 . S
C1469 C1464 1.425 1_455 S
C1469 C1466 1.409 . S
C1469 C1467 1.415 . S
C1470 H1460 0.930 . S
C1470 C1468 1.419 . S
C1470 C1471 1.362 . S
C1471 H1461 0.930 . S
C1471 C1464 1.409 . S
C1471 C1470 1.362 . S
H1472 C1478 0.930 . S
H1473 C1481 0.930 . S
H1474 C1482 0.930 . S
H1475 C1483 0.933 . S
H1476 C1486 0.930 . S
H1477 C1487 0.930 . S
C1478 H1472 0.930 . S
C1478 C1479 1.355 . S
C1478 C1480 1.415 . S
C1479 C1478 1.355 . S
C1479 C1481 1.419 1_545 S
C1480 C1478 1.415 . S
C1480 C1485 1.435 1_556 S
C1480 C1487 1.409 . S
C1481 H1473 0.930 . S
C1481 C1479 1.419 1_565 S
C1481 C1482 1.362 1_556 S
C1482 H1474 0.930 . S
C1482 C1481 1.362 1_554 S
C1482 C1485 1.402 1_565 S
C1483 H1475 0.933 . S
C1483 C1484 1.352 1_565 S
C1483 C1485 1.414 1_565 S
C1484 C1483 1.352 1_545 S
C1484 C1486 1.419 . S
C1485 C1480 1.435 1_554 S
C1485 C1482 1.402 1_545 S
C1485 C1483 1.414 1_545 S
C1486 H1476 0.930 . S
C1486 C1484 1.419 . S
C1486 C1487 1.362 1_554 S
C1487 H1477 0.930 . S
C1487 C1480 1.409 . S
C1487 C1486 1.362 1_556 S
H1488 C1494 0.930 . S
H1489 C1497 0.930 . S
H1490 C1498 0.930 . S
H1491 C1499 0.930 . S
H1492 C1502 0.930 . S
H1493 C1503 0.930 . S
C1494 H1488 0.930 . S
C1494 C1495 1.355 . S
C1494 C1496 1.415 1_554 S
C1495 C1494 1.355 . S
C1495 C1497 1.419 . S
C1496 C1494 1.415 1_556 S
C1496 C1501 1.425 1_556 S
C1496 C1503 1.409 . S
C1497 H1489 0.930 . S
C1497 C1495 1.419 . S
C1497 C1498 1.362 . S
C1498 H1490 0.930 . S
C1498 C1497 1.362 . S
C1498 C1501 1.409 . S
C1499 H1491 0.930 . S
C1499 C1500 1.355 . S
C1499 C1501 1.415 1_556 S
C1500 C1499 1.355 . S
C1500 C1502 1.419 . S
C1501 C1496 1.425 1_554 S
C1501 C1498 1.409 . S
C1501 C1499 1.415 1_554 S
C1502 H1492 0.930 . S
C1502 C1500 1.419 . S
C1502 C1503 1.362 . S
C1503 H1493 0.930 . S
C1503 C1496 1.409 . S
C1503 C1502 1.362 . S
H1504 C1510 0.930 . S
H1505 C1513 0.930 . S
H1506 C1514 0.930 . S
H1507 C1515 0.930 . S
H1508 C1518 0.930 . S
H1509 C1519 0.930 . S
C1510 H1504 0.930 . S
C1510 C1511 1.355 . S
C1510 C1512 1.415 . S
C1511 C1510 1.355 . S
C1511 C1513 1.419 1_565 S
C1512 C1510 1.415 . S
C1512 C1517 1.425 1_565 S
C1512 C1519 1.409 . S
C1513 H1505 0.930 . S
C1513 C1511 1.419 1_545 S
C1513 C1514 1.362 . S
C1514 H1506 0.930 . S
C1514 C1513 1.362 . S
C1514 C1517 1.409 . S
C1515 H1507 0.930 . S
C1515 C1516 1.355 1_545 S
C1515 C1517 1.415 . S
C1516 C1515 1.355 1_565 S
C1516 C1518 1.419 . S
C1517 C1512 1.425 1_545 S
C1517 C1514 1.409 . S
C1517 C1515 1.415 . S
C1518 H1508 0.930 . S
C1518 C1516 1.419 . S
C1518 C1519 1.362 . S
C1519 H1509 0.930 . S
C1519 C1512 1.409 . S
C1519 C1518 1.362 . S
H1520 C1526 0.930 . S
H1521 C1529 0.930 . S
H1522 C1530 0.930 . S
H1523 C1531 0.930 . S
H1524 C1534 0.930 . S
H1525 C1535 0.930 . S
C1526 H1520 0.930 . S
C1526 C1527 1.355 . S
C1526 C1528 1.415 . S
C1527 C1526 1.355 . S
C1527 C1529 1.419 . S
C1528 C1526 1.415 . S
C1528 C1533 1.425 . S
C1528 C1535 1.409 . S
C1529 H1521 0.930 . S
C1529 C1527 1.419 . S
C1529 C1530 1.362 . S
C1530 H1522 0.930 . S
C1530 C1529 1.362 . S
C1530 C1533 1.409 . S
C1531 H1523 0.930 . S
C1531 C1532 1.355 . S
C1531 C1533 1.415 . S
C1532 C1531 1.355 . S
C1532 C1534 1.419 . S
C1533 C1528 1.425 . S
C1533 C1530 1.409 . S
C1533 C1531 1.415 . S
C1534 H1524 0.930 . S
C1534 C1532 1.419 . S
C1534 C1535 1.362 . S
C1535 H1525 0.930 . S
C1535 C1528 1.409 . S
C1535 C1534 1.362 . S
H1536 C1542 0.930 . S
H1537 C1545 0.930 . S
H1538 C1546 0.930 . S
H1539 C1547 0.930 . S
H1540 C1550 0.930 . S
H1541 C1551 0.930 . S
C1542 H1536 0.930 . S
C1542 C1543 1.355 1_556 S
C1542 C1544 1.415 1_455 S
C1543 C1542 1.355 1_554 S
C1543 C1545 1.419 . S
C1544 C1542 1.415 1_655 S
C1544 C1549 1.425 1_556 S
C1544 C1551 1.409 . S
C1545 H1537 0.930 . S
C1545 C1543 1.419 . S
C1545 C1546 1.362 . S
C1546 H1538 0.930 . S
C1546 C1545 1.362 . S
C1546 C1549 1.409 1_455 S
C1547 H1539 0.930 . S
C1547 C1548 1.355 . S
C1547 C1549 1.415 . S
C1548 C1547 1.355 . S
C1548 C1550 1.419 1_554 S
C1549 C1544 1.425 1_554 S
C1549 C1546 1.409 1_655 S
C1549 C1547 1.415 . S
C1550 H1540 0.930 . S
C1550 C1548 1.419 1_556 S
C1550 C1551 1.362 . S
C1551 H1541 0.930 . S
C1551 C1544 1.409 . S
C1551 C1550 1.362 . S
H1552 C1558 0.930 . S
H1553 C1561 0.930 . S
H1554 C1562 0.930 . S
H1555 C1563 0.930 . S
H1556 C1566 0.930 . S
H1557 C1567 0.930 . S
C1558 H1552 0.930 . S
C1558 C1559 1.355 . S
C1558 C1560 1.415 1_455 S
C1559 C1558 1.355 . S
C1559 C1561 1.419 . S
C1560 C1558 1.415 1_655 S
C1560 C1565 1.425 1_655 S
C1560 C1567 1.409 . S
C1561 H1553 0.930 . S
C1561 C1559 1.419 . S
C1561 C1562 1.362 . S
C1562 H1554 0.930 . S
C1562 C1561 1.362 . S
C1562 C1565 1.409 . S
C1563 H1555 0.930 . S
C1563 C1564 1.355 . S
C1563 C1565 1.415 1_655 S
C1564 C1563 1.355 . S
C1564 C1566 1.419 . S
C1565 C1560 1.425 1_455 S
C1565 C1562 1.409 . S
C1565 C1563 1.415 1_455 S
C1566 H1556 0.930 . S
C1566 C1564 1.419 . S
C1566 C1567 1.362 . S
C1567 H1557 0.930 . S
C1567 C1560 1.409 . S
C1567 C1566 1.362 . S
H1568 C1574 0.930 . S
H1569 C1577 0.930 . S
H1570 C1578 0.930 . S
H1571 C1579 0.930 . S
H1572 C1582 0.930 . S
H1573 C1583 0.930 . S
C1574 H1568 0.930 . S
C1574 C1575 1.355 . S
C1574 C1576 1.415 . S
C1575 C1574 1.355 . S
C1575 C1577 1.419 . S
C1576 C1574 1.415 . S
C1576 C1581 1.425 . S
C1576 C1583 1.409 . S
C1577 H1569 0.930 . S
C1577 C1575 1.419 . S
C1577 C1578 1.362 . S
C1578 H1570 0.930 . S
C1578 C1577 1.362 . S
C1578 C1581 1.409 . S
C1579 H1571 0.930 . S
C1579 C1580 1.355 . S
C1579 C1581 1.415 . S
C1580 C1579 1.355 . S
C1580 C1582 1.419 . S
C1581 C1576 1.425 . S
C1581 C1578 1.409 . S
C1581 C1579 1.415 . S
C1582 H1572 0.930 . S
C1582 C1580 1.419 . S
C1582 C1583 1.362 . S
C1583 H1573 0.930 . S
C1583 C1576 1.409 . S
C1583 C1582 1.362 . S
H1584 C1590 0.930 . S
H1585 C1593 0.930 . S
H1586 C1594 0.930 . S
H1587 C1595 0.930 . S
H1588 C1598 0.930 . S
H1589 C1599 0.930 . S
C1590 H1584 0.930 . S
C1590 C1591 1.355 . S
C1590 C1592 1.415 . S
C1591 C1590 1.355 . S
C1591 C1593 1.419 . S
C1592 C1590 1.415 . S
C1592 C1597 1.425 . S
C1592 C1599 1.409 . S
C1593 H1585 0.930 . S
C1593 C1591 1.419 . S
C1593 C1594 1.362 . S
C1594 H1586 0.930 . S
C1594 C1593 1.362 . S
C1594 C1597 1.409 . S
C1595 H1587 0.930 . S
C1595 C1596 1.355 . S
C1595 C1597 1.415 . S
C1596 C1595 1.355 . S
C1596 C1598 1.419 . S
C1597 C1592 1.425 . S
C1597 C1594 1.409 . S
C1597 C1595 1.415 . S
C1598 H1588 0.930 . S
C1598 C1596 1.419 . S
C1598 C1599 1.362 . S
C1599 H1589 0.930 . S
C1599 C1592 1.409 . S
C1599 C1598 1.362 . S
H1600 C1606 0.930 . S
H1601 C1609 0.930 . S
H1602 C1610 0.930 . S
H1603 C1611 0.930 . S
H1604 C1614 0.930 . S
H1605 C1615 0.930 . S
C1606 H1600 0.930 . S
C1606 C1607 1.355 . S
C1606 C1608 1.415 . S
C1607 C1606 1.355 . S
C1607 C1609 1.419 . S
C1608 C1606 1.415 . S
C1608 C1613 1.425 1_565 S
C1608 C1615 1.409 . S
C1609 H1601 0.930 . S
C1609 C1607 1.419 . S
C1609 C1610 1.362 1_565 S
C1610 H1602 0.930 . S
C1610 C1609 1.362 1_545 S
C1610 C1613 1.409 . S
C1611 H1603 0.930 . S
C1611 C1612 1.355 . S
C1611 C1613 1.415 . S
C1612 C1611 1.355 . S
C1612 C1614 1.419 . S
C1613 C1608 1.425 1_545 S
C1613 C1610 1.409 . S
C1613 C1611 1.415 . S
C1614 H1604 0.930 . S
C1614 C1612 1.419 . S
C1614 C1615 1.362 1_545 S
C1615 H1605 0.930 . S
C1615 C1608 1.409 . S
C1615 C1614 1.362 1_565 S
H1616 C1622 0.930 . S
H1617 C1625 0.930 . S
H1618 C1626 0.930 . S
H1619 C1627 0.930 . S
H1620 C1630 0.930 . S
H1621 C1631 0.930 . S
C1622 H1616 0.930 . S
C1622 C1623 1.355 1_554 S
C1622 C1624 1.415 1_554 S
C1623 C1622 1.355 1_556 S
C1623 C1625 1.419 . S
C1624 C1622 1.415 1_556 S
C1624 C1629 1.424 . S
C1624 C1631 1.410 1_556 S
C1625 H1617 0.930 . S
C1625 C1623 1.419 . S
C1625 C1626 1.362 . S
C1626 H1618 0.930 . S
C1626 C1625 1.362 . S
C1626 C1629 1.409 . S
C1627 H1619 0.930 . S
C1627 C1628 1.355 . S
C1627 C1629 1.415 . S
C1628 C1627 1.355 . S
C1628 C1630 1.419 1_556 S
C1629 C1624 1.424 . S
C1629 C1626 1.409 . S
C1629 C1627 1.415 . S
C1630 H1620 0.930 . S
C1630 C1628 1.419 1_554 S
C1630 C1631 1.362 . S
C1631 H1621 0.930 . S
C1631 C1624 1.410 1_554 S
C1631 C1630 1.362 . S
C871 C615 0.671 . S
C876 C2 0.621 . S
C887 C38 0.745 . S
C892 C579 0.792 . S
C903 C74 0.823 . S
C908 C687 0.899 . S
C919 C110 0.999 . S
C924 C651 0.918 . S
C935 C146 0.786 . S
C940 C759 0.752 . S
C951 C182 0.795 . S
C956 C795 0.862 . S
C967 C723 0.786 . S
C972 C218 0.740 . S
C983 C399 0.964 . S
C988 C254 0.981 . S
C999 C290 0.687 . S
C1004 C111 0.639 . S
C1015 C39 0.817 . S
C1020 C326 0.757 . S
C1031 C362 0.951 . S
C1036 C3 1.014 . S
C1047 C398 0.877 . S
C1052 C507 0.830 . S
C1063 C183 1.092 . S
C1068 C434 1.058 . S
C1079 C147 0.974 . S
C1084 C470 1.019 . S
C1095 C506 0.959 . S
C1100 C255 0.889 . S
C1111 C542 0.760 . S
C1116 C219 0.785 . S
C1127 C327 0.982 . S
C1132 C578 1.029 . S
C1143 C363 0.985 . S
C1148 C614 1.024 . S
C1159 C291 0.935 . S
C1164 C650 0.978 . S
C1175 C686 0.778 . S
C1180 C831 0.832 . S
C1191 C543 1.091 . S
C1196 C722 1.121 . S
C1207 C758 0.965 . S
C1212 C471 0.886 . S
C1223 C435 0.792 . S
C1228 C794 0.741 . S
C1239 C830 0.834 . S
C1244 C75 0.904 . S
C1255 C4 1.674 . S
C1260 C40 1.654 . S
C1271 C112 1.628 . S
C1276 C76 1.633 . S
C1287 C148 1.713 . S
C1292 C220 1.694 . S
C1303 C184 1.908 . S
C1308 C256 1.886 . S
C1319 C796 1.660 . S
C1324 C292 1.669 . S
C1335 C328 1.910 . S
C1340 C400 1.894 . S
C1351 C724 1.784 . S
C1356 C364 1.789 . S
C1367 C472 1.779 . S
C1372 C436 1.757 . S
C1383 C508 1.849 . S
C1388 C544 1.855 . S
C1399 C652 1.802 . S
C1404 C580 1.799 . S
C1415 C616 1.597 . S
C1420 C688 1.622 . S
C1431 C832 1.598 . S
C1436 C760 1.574 . S
C1447 C86 1.303 . S
C1452 C14 1.258 . S
C1463 C50 1.514 . S
C1468 C122 1.490 . S
C1479 C698 1.280 . S
C1484 C158 1.249 . S
C1495 C194 1.395 . S
C1500 C662 1.447 . S
C1511 C230 1.505 . S
C1516 C626 1.477 . S
C1527 C590 1.644 . S
C1532 C266 1.648 . S
C1543 C302 1.251 . S
C1548 C842 1.300 . S
C1559 C338 1.424 . S
C1564 C374 1.437 . S
C1575 C734 1.615 . S
C1580 C410 1.639 . S
C1591 C446 1.655 . S
C1596 C518 1.634 . S
C1607 C482 1.405 . S
C1612 C554 1.406 . S
C1623 C806 1.486 . S
C1628 C770 1.516 . S
