# Generated by pormake.
# Topology uoj, (4)-cn, num edge types: 1
# Building blocks:
#     Node 0, Type 0, BuildingBlock: QUQFOY_clean_sbu_1, # of connection points: 4
#     Node 1, Type 0, BuildingBlock: QUQFOY_clean_sbu_1, # of connection points: 4
#     Node 2, Type 0, BuildingBlock: QUQFOY_clean_sbu_1, # of connection points: 4
#     Node 3, Type 0, BuildingBlock: QUQFOY_clean_sbu_1, # of connection points: 4
#     Node 4, Type 0, BuildingBlock: QUQFOY_clean_sbu_1, # of connection points: 4
#     Node 5, Type 0, BuildingBlock: QUQFOY_clean_sbu_1, # of connection points: 4
#     Node 6, Type 0, BuildingBlock: QUQFOY_clean_sbu_1, # of connection points: 4
#     Node 7, Type 0, BuildingBlock: QUQFOY_clean_sbu_1, # of connection points: 4
#     Edge 8, Type (0, 0), BuildingBlock: ZUJKAS_clean_linker_0, # of connection points: 2
#     Edge 9, Type (0, 0), BuildingBlock: ZUJKAS_clean_linker_0, # of connection points: 2
#     Edge 10, Type (0, 0), BuildingBlock: ZUJKAS_clean_linker_0, # of connection points: 2
#     Edge 11, Type (0, 0), BuildingBlock: ZUJKAS_clean_linker_0, # of connection points: 2
#     Edge 12, Type (0, 0), BuildingBlock: ZUJKAS_clean_linker_0, # of connection points: 2
#     Edge 13, Type (0, 0), BuildingBlock: ZUJKAS_clean_linker_0, # of connection points: 2
#     Edge 14, Type (0, 0), BuildingBlock: ZUJKAS_clean_linker_0, # of connection points: 2
#     Edge 15, Type (0, 0), BuildingBlock: ZUJKAS_clean_linker_0, # of connection points: 2
#     Edge 16, Type (0, 0), BuildingBlock: ZUJKAS_clean_linker_0, # of connection points: 2
#     Edge 17, Type (0, 0), BuildingBlock: ZUJKAS_clean_linker_0, # of connection points: 2
#     Edge 18, Type (0, 0), BuildingBlock: ZUJKAS_clean_linker_0, # of connection points: 2
#     Edge 19, Type (0, 0), BuildingBlock: ZUJKAS_clean_linker_0, # of connection points: 2
#     Edge 20, Type (0, 0), BuildingBlock: ZUJKAS_clean_linker_0, # of connection points: 2
#     Edge 21, Type (0, 0), BuildingBlock: ZUJKAS_clean_linker_0, # of connection points: 2
#     Edge 22, Type (0, 0), BuildingBlock: ZUJKAS_clean_linker_0, # of connection points: 2
#     Edge 23, Type (0, 0), BuildingBlock: ZUJKAS_clean_linker_0, # of connection points: 2
# Relax obj value: 0.060
# Max RMSD: 0.098
# Mean RMSD: 0.098
data_MOF--net-uoj--node1-QUQFOY_clean_sbu_1--edge1-ZUJKAS_clean_linker_0
_symmetry_space_group_name_H-M    P1
_symmetry_Int_Tables_number       1
_symmetry_cell_setting            triclinic
loop_
_symmetry_equiv_pos_as_xyz
'x, y, z'
_cell_length_a     41.432918
_cell_length_b     41.41413
_cell_length_c     55.456783
_cell_angle_alpha  90.001149
_cell_angle_beta   90.038162
_cell_angle_gamma 90.00175
loop_
_atom_site_label
_atom_site_type_symbol
_atom_site_fract_x
_atom_site_fract_y
_atom_site_fract_z
_atom_type_partial_charge
O0 O 0.05173 0.26104 0.45211 0.0
Cd1 Cd 0.09541 0.2826 0.4459 0.0
Cd2 Cd 0.07408 0.27887 0.40085 0.0
O3 O 0.03954 0.24773 0.41473 0.0
O4 O 0.12023 0.27315 0.47574 0.0
O5 O 0.133 0.25323 0.43993 0.0
C6 C 0.13784 0.254 0.46297 0.0
C7 C 0.10234 0.27037 0.36496 0.0
C8 C 0.03329 0.24687 0.43719 0.0
C9 C 0.07709 0.34443 0.42477 0.0
O10 O 0.06602 0.32697 0.40783 0.0
O11 O 0.09357 0.33185 0.44166 0.0
O12 O 0.07172 0.27591 0.36503 0.0
O13 O 0.11671 0.26737 0.38553 0.0
O14 O 0.26312 0.94663 0.55802 0.0
Cd15 Cd 0.28342 0.90203 0.56289 0.0
Cd16 Cd 0.28509 0.92361 0.60846 0.0
O17 O 0.25555 0.9605 0.59596 0.0
O18 O 0.27085 0.87869 0.53305 0.0
O19 O 0.25334 0.86504 0.56935 0.0
C20 C 0.25229 0.86103 0.54624 0.0
C21 C 0.27728 0.89693 0.64519 0.0
C22 C 0.25217 0.96628 0.57356 0.0
C23 C 0.34805 0.91643 0.58103 0.0
O24 O 0.33295 0.92767 0.59911 0.0
O25 O 0.33295 0.90172 0.56439 0.0
O26 O 0.28614 0.92674 0.64431 0.0
O27 O 0.27074 0.88264 0.62505 0.0
O28 O 0.94416 0.72946 0.45244 0.0
Cd29 Cd 0.89991 0.70917 0.44598 0.0
Cd30 Cd 0.92194 0.71169 0.40102 0.0
O31 O 0.95705 0.74207 0.41509 0.0
O32 O 0.87531 0.71911 0.4758 0.0
O33 O 0.86313 0.73961 0.44006 0.0
C34 C 0.85821 0.73877 0.46307 0.0
C35 C 0.89425 0.72094 0.36496 0.0
C36 C 0.96309 0.74302 0.43758 0.0
C37 C 0.91641 0.64654 0.42514 0.0
O38 O 0.92845 0.66339 0.40824 0.0
O39 O 0.90011 0.6599 0.44178 0.0
O40 O 0.92473 0.71465 0.36521 0.0
O41 O 0.87973 0.72416 0.38544 0.0
O42 O 0.73381 0.04564 0.55889 0.0
Cd43 Cd 0.71326 0.09014 0.56361 0.0
Cd44 Cd 0.7107 0.06826 0.60916 0.0
O45 O 0.74101 0.03189 0.5969 0.0
O46 O 0.72559 0.11305 0.53354 0.0
O47 O 0.74324 0.12736 0.56966 0.0
C48 C 0.74417 0.13098 0.54651 0.0
C49 C 0.7176 0.0955 0.64573 0.0
C50 C 0.74477 0.02614 0.57453 0.0
C51 C 0.6483 0.07535 0.58121 0.0
O52 O 0.663 0.06368 0.59935 0.0
O53 O 0.66374 0.09038 0.56493 0.0
O54 O 0.7099 0.06535 0.64503 0.0
O55 O 0.72351 0.10987 0.62551 0.0
O56 O 0.44878 0.76317 0.95027 0.0
Cd57 Cd 0.40338 0.782 0.94623 0.0
Cd58 Cd 0.42404 0.78604 0.90026 0.0
O59 O 0.46223 0.75767 0.91204 0.0
O60 O 0.38132 0.76839 0.97635 0.0
O61 O 0.36706 0.75093 0.94016 0.0
C62 C 0.36366 0.74964 0.96332 0.0
C63 C 0.39775 0.77818 0.86335 0.0
C64 C 0.46854 0.75363 0.93431 0.0
C65 C 0.41451 0.84781 0.92881 0.0
O66 O 0.42603 0.83383 0.91032 0.0
O67 O 0.40105 0.83151 0.94538 0.0
O68 O 0.42713 0.78831 0.86445 0.0
O69 O 0.38373 0.77045 0.88334 0.0
O70 O 0.76114 0.54563 0.0585 0.0
Cd71 Cd 0.78164 0.59027 0.06288 0.0
Cd72 Cd 0.78199 0.57013 0.10914 0.0
O73 O 0.75262 0.53315 0.0966 0.0
O74 O 0.77134 0.61241 0.03202 0.0
O75 O 0.75199 0.62821 0.06728 0.0
C76 C 0.75264 0.6313 0.04408 0.0
C77 C 0.77354 0.59773 0.14539 0.0
C78 C 0.7498 0.52656 0.07428 0.0
C79 C 0.84574 0.57632 0.08294 0.0
O80 O 0.83017 0.56549 0.10094 0.0
O81 O 0.83108 0.59038 0.06577 0.0
O82 O 0.78122 0.56758 0.14502 0.0
O83 O 0.7684 0.61189 0.12498 0.0
O84 O 0.54689 0.2365 0.95183 0.0
Cd85 Cd 0.59 0.21337 0.94656 0.0
Cd86 Cd 0.56828 0.21471 0.9011 0.0
O87 O 0.53401 0.2468 0.91405 0.0
O88 O 0.61338 0.22228 0.97715 0.0
O89 O 0.62923 0.24115 0.94177 0.0
C90 C 0.63267 0.24037 0.96493 0.0
C91 C 0.59642 0.22152 0.86493 0.0
C92 C 0.52826 0.24955 0.93649 0.0
C93 C 0.57015 0.15063 0.92717 0.0
O94 O 0.55963 0.16714 0.90952 0.0
O95 O 0.58667 0.16398 0.94371 0.0
O96 O 0.56577 0.21615 0.86522 0.0
O97 O 0.61098 0.22506 0.88538 0.0
O98 O 0.23108 0.4429 0.05805 0.0
Cd99 Cd 0.20994 0.39916 0.06479 0.0
Cd100 Cd 0.21345 0.42117 0.10952 0.0
O101 O 0.24459 0.45548 0.0953 0.0
O102 O 0.21961 0.37399 0.03519 0.0
O103 O 0.23984 0.3621 0.07109 0.0
C104 C 0.23913 0.35696 0.04809 0.0
C105 C 0.22267 0.39299 0.14536 0.0
C106 C 0.24538 0.46147 0.0728 0.0
C107 C 0.14796 0.41727 0.08569 0.0
O108 O 0.16526 0.42887 0.10253 0.0
O109 O 0.16073 0.40055 0.06903 0.0
O110 O 0.21695 0.4236 0.14531 0.0
O111 O 0.22525 0.37856 0.12478 0.0
H112 H 0.23022 0.41702 0.19074 0.0
H113 H 0.21907 0.38949 0.22875 0.0
H114 H 0.20081 0.30093 0.19012 0.0
H115 H 0.21296 0.32819 0.15203 0.0
H116 H 0.16116 0.36654 0.23878 0.0
H117 H 0.24941 0.26683 0.24784 0.0
H118 H 0.2549 0.29969 0.22684 0.0
H119 H 0.22867 0.26652 0.21943 0.0
C120 C 0.22474 0.39145 0.19038 0.0
C121 C 0.22236 0.37481 0.16837 0.0
C122 C 0.21832 0.37573 0.21214 0.0
C123 C 0.20917 0.34307 0.21239 0.0
C124 C 0.20846 0.32593 0.19052 0.0
H125 H 0.07827 0.26685 0.31927 0.0
H126 H 0.10624 0.28042 0.28186 0.0
C127 C 0.21529 0.34159 0.16871 0.0
C128 C 0.19629 0.32853 0.23497 0.0
H129 H 0.20291 0.26438 0.27356 0.0
C130 C 0.17054 0.34433 0.24644 0.0
C131 C 0.20852 0.2996 0.24509 0.0
C132 C 0.23711 0.28232 0.23431 0.0
C133 C 0.15645 0.33195 0.26745 0.0
C134 C 0.16778 0.30239 0.27705 0.0
C135 C 0.19395 0.28678 0.26595 0.0
C136 C 0.15267 0.28796 0.2988 0.0
C137 C 0.12973 0.35094 0.27937 0.0
C138 C 0.16997 0.28569 0.32052 0.0
C139 C 0.15408 0.27753 0.34198 0.0
C140 C 0.12062 0.27166 0.34201 0.0
C141 C 0.10397 0.27155 0.31991 0.0
C142 C 0.1199 0.27942 0.2985 0.0
H143 H 0.12964 0.37658 0.27348 0.0
H144 H 0.10611 0.3402 0.2744 0.0
H145 H 0.13205 0.35023 0.29932 0.0
H146 H 0.19533 0.29203 0.32111 0.0
H147 H 0.16758 0.27782 0.35871 0.0
H148 H 0.26487 0.83262 0.65337 0.0
H149 H 0.2738 0.80256 0.69091 0.0
H150 H 0.30221 0.89075 0.72644 0.0
H151 H 0.29254 0.92084 0.6895 0.0
H152 H 0.3295 0.79466 0.71338 0.0
H153 H 0.24615 0.85253 0.77746 0.0
H154 H 0.24269 0.85831 0.7453 0.0
H155 H 0.27011 0.88271 0.76282 0.0
C156 C 0.27221 0.84569 0.66937 0.0
C157 C 0.27792 0.87916 0.66842 0.0
C158 C 0.27741 0.82846 0.6908 0.0
C159 C 0.28824 0.8444 0.71168 0.0
C160 C 0.29299 0.87795 0.71087 0.0
H161 H 0.42135 0.79487 0.81926 0.0
H162 H 0.39117 0.80407 0.78228 0.0
C163 C 0.28766 0.89514 0.68958 0.0
C164 C 0.29794 0.82597 0.73358 0.0
H165 H 0.29436 0.82831 0.79507 0.0
C166 C 0.32126 0.80155 0.73121 0.0
C167 C 0.2868 0.83427 0.75691 0.0
C168 C 0.25978 0.85814 0.76073 0.0
C169 C 0.33542 0.78703 0.75152 0.0
C170 C 0.32666 0.79778 0.77486 0.0
C171 C 0.30159 0.82039 0.77722 0.0
C172 C 0.34523 0.78846 0.79678 0.0
C173 C 0.36007 0.76072 0.7477 0.0
C174 C 0.32954 0.77688 0.81752 0.0
C175 C 0.34681 0.77191 0.83896 0.0
C176 C 0.38007 0.77864 0.84007 0.0
C177 C 0.39583 0.7892 0.81905 0.0
C178 C 0.37859 0.79426 0.79775 0.0
H179 H 0.355 0.74707 0.73086 0.0
H180 H 0.38434 0.77177 0.7458 0.0
H181 H 0.36059 0.7435 0.76304 0.0
H182 H 0.30377 0.77245 0.81728 0.0
H183 H 0.3339 0.76394 0.85486 0.0
H184 H 0.91853 0.72861 0.31969 0.0
H185 H 0.89141 0.717 0.28157 0.0
H186 H 0.80283 0.69791 0.31986 0.0
H187 H 0.82964 0.71064 0.35803 0.0
H188 H 0.86962 0.65923 0.27124 0.0
H189 H 0.76806 0.7452 0.2621 0.0
H190 H 0.80052 0.75127 0.28336 0.0
H191 H 0.76775 0.72437 0.29046 0.0
C192 C 0.89302 0.72287 0.31994 0.0
C193 C 0.87625 0.72046 0.34187 0.0
C194 C 0.87753 0.71617 0.29812 0.0
C195 C 0.84499 0.70663 0.29773 0.0
C196 C 0.82772 0.70587 0.31953 0.0
H197 H 0.77235 0.5733 0.191 0.0
H198 H 0.7857 0.60165 0.22833 0.0
C199 C 0.84313 0.71304 0.3414 0.0
C200 C 0.83076 0.69341 0.27512 0.0
H201 H 0.76631 0.69827 0.23666 0.0
C202 C 0.84716 0.66805 0.26363 0.0
C203 C 0.80152 0.70491 0.26502 0.0
C204 C 0.7836 0.73316 0.27573 0.0
C205 C 0.83507 0.6536 0.24263 0.0
C206 C 0.80516 0.66409 0.23311 0.0
C207 C 0.78897 0.68991 0.24421 0.0
C208 C 0.79092 0.64845 0.21146 0.0
C209 C 0.85477 0.62743 0.23067 0.0
C210 C 0.78732 0.66575 0.18984 0.0
C211 C 0.7792 0.64963 0.16845 0.0
C212 C 0.77473 0.61595 0.16837 0.0
C213 C 0.77597 0.59919 0.1904 0.0
C214 C 0.78374 0.61534 0.21175 0.0
H215 H 0.88049 0.62834 0.23631 0.0
H216 H 0.84501 0.60348 0.2359 0.0
H217 H 0.85363 0.62947 0.21072 0.0
H218 H 0.79256 0.69137 0.18925 0.0
H219 H 0.77845 0.66322 0.15177 0.0
H220 H 0.66083 0.20967 0.85827 0.0
H221 H 0.68753 0.19579 0.8203 0.0
H222 H 0.59935 0.21549 0.78159 0.0
H223 H 0.57232 0.22826 0.81951 0.0
H224 H 0.62056 0.1574 0.77158 0.0
H225 H 0.72302 0.2423 0.76246 0.0
H226 H 0.72296 0.22165 0.7909 0.0
H227 H 0.69052 0.24884 0.78357 0.0
C228 C 0.64741 0.2119 0.84158 0.0
C229 C 0.61442 0.21991 0.84189 0.0
C230 C 0.66276 0.20408 0.81983 0.0
C231 C 0.64557 0.20475 0.79797 0.0
C232 C 0.61316 0.21473 0.79818 0.0
H233 H 0.71312 0.16096 0.65242 0.0
H234 H 0.69866 0.18894 0.68989 0.0
C235 C 0.59773 0.22209 0.81989 0.0
C236 C 0.65975 0.1912 0.77547 0.0
H237 H 0.72428 0.19533 0.73711 0.0
C238 C 0.64312 0.16595 0.76399 0.0
C239 C 0.68911 0.20238 0.76539 0.0
C240 C 0.70729 0.2305 0.77607 0.0
C241 C 0.65508 0.15135 0.74303 0.0
C242 C 0.6851 0.16152 0.73353 0.0
C243 C 0.70154 0.1872 0.74464 0.0
C244 C 0.6992 0.14579 0.71187 0.0
C245 C 0.63509 0.1254 0.73104 0.0
C246 C 0.70583 0.11255 0.71205 0.0
C247 C 0.71378 0.09651 0.6907 0.0
C248 C 0.71579 0.11348 0.6688 0.0
C249 C 0.71177 0.14721 0.66901 0.0
C250 C 0.70346 0.16323 0.69039 0.0
H251 H 0.60935 0.12668 0.73658 0.0
H252 H 0.63634 0.12734 0.71109 0.0
H253 H 0.64448 0.10134 0.73637 0.0
H254 H 0.70342 0.09873 0.72853 0.0
H255 H 0.71706 0.07057 0.6912 0.0
H256 H 0.23737 0.0208 0.59978 0.0
H257 H 0.21868 0.07296 0.58386 0.0
H258 H 0.2171 0.03312 0.51203 0.0
H259 H 0.23507 0.98131 0.5276 0.0
H260 H 0.2503 0.11155 0.54906 0.0
H261 H 0.12877 0.07554 0.5174 0.0
H262 H 0.15188 0.05143 0.53833 0.0
H263 H 0.15983 0.04917 0.50647 0.0
C264 C 0.23245 0.02305 0.58067 0.0
C265 C 0.23763 0.99686 0.56498 0.0
C266 C 0.22198 0.05287 0.5716 0.0
C267 C 0.2162 0.05676 0.54681 0.0
C268 C 0.22083 0.0305 0.53127 0.0
H269 H 0.16752 0.20164 0.44278 0.0
H270 H 0.19086 0.1557 0.46435 0.0
C271 C 0.23127 0.00088 0.54024 0.0
C272 C 0.20676 0.08846 0.53665 0.0
H273 H 0.15033 0.1243 0.5007 0.0
C274 C 0.22824 0.11456 0.53876 0.0
C275 C 0.17798 0.09224 0.52322 0.0
C276 C 0.15314 0.06569 0.5214 0.0
C277 C 0.22225 0.14399 0.52694 0.0
C278 C 0.19406 0.14726 0.51281 0.0
C279 C 0.1722 0.12148 0.51126 0.0
C280 C 0.18615 0.17731 0.49968 0.0
C281 C 0.24645 0.17104 0.52898 0.0
C282 C 0.17683 0.20503 0.51238 0.0
C283 C 0.16343 0.2313 0.50012 0.0
C284 C 0.15907 0.23019 0.47496 0.0
C285 C 0.17063 0.20331 0.46213 0.0
C286 C 0.18385 0.17698 0.47443 0.0
H287 H 0.26962 0.16277 0.53696 0.0
H288 H 0.25129 0.18174 0.51098 0.0
H289 H 0.2364 0.19035 0.54065 0.0
H290 H 0.17809 0.20559 0.53189 0.0
H291 H 0.15477 0.25166 0.51054 0.0
H292 H 0.24579 0.84672 0.49844 0.0
H293 H 0.19837 0.82366 0.47867 0.0
H294 H 0.15465 0.8065 0.54801 0.0
H295 H 0.20192 0.82979 0.56803 0.0
H296 H 0.16278 0.76325 0.48303 0.0
H297 H 0.09355 0.8712 0.51259 0.0
H298 H 0.13707 0.86947 0.5136 0.0
H299 H 0.11355 0.84937 0.53629 0.0
C300 C 0.22641 0.83739 0.50955 0.0
C301 C 0.22742 0.84047 0.53481 0.0
C302 C 0.19934 0.82424 0.49819 0.0
C303 C 0.17283 0.81406 0.51188 0.0
C304 C 0.17475 0.81476 0.53715 0.0
H305 H 0.97861 0.75507 0.48438 0.0
H306 H 0.03021 0.77307 0.50052 0.0
C307 C 0.20186 0.82786 0.54856 0.0
C308 C 0.14225 0.80539 0.49972 0.0
H309 H 0.06425 0.83016 0.49263 0.0
C310 C 0.14122 0.77786 0.48502 0.0
C311 C 0.11436 0.82482 0.50218 0.0
C312 C 0.11458 0.85554 0.51683 0.0
C313 C 0.11257 0.76857 0.47334 0.0
C314 C 0.08455 0.78774 0.47613 0.0
C315 C 0.08581 0.81557 0.49051 0.0
C316 C 0.05305 0.77825 0.46568 0.0
C317 C 0.11222 0.73781 0.45876 0.0
C318 C 0.04849 0.77606 0.44063 0.0
C319 C 0.01881 0.76577 0.43125 0.0
C320 C 0.99331 0.75757 0.44682 0.0
C321 C -0.00225 0.76099 0.47185 0.0
C322 C 0.02726 0.77128 0.48115 0.0
H323 H 0.13375 0.72257 0.46242 0.0
H324 H 0.09018 0.72348 0.46269 0.0
H325 H 0.11207 0.74391 0.43928 0.0
H326 H 0.06795 0.78199 0.42838 0.0
H327 H 0.01615 0.76341 0.41189 0.0
H328 H 0.75833 0.97126 0.60067 0.0
H329 H 0.77727 0.91919 0.58478 0.0
H330 H 0.78225 0.96012 0.51337 0.0
H331 H 0.76401 0.01184 0.52894 0.0
H332 H 0.74637 0.88174 0.54894 0.0
H333 H 0.86964 0.9161 0.52031 0.0
H334 H 0.84617 0.94026 0.54096 0.0
H335 H 0.83948 0.94322 0.50896 0.0
C336 C 0.76409 0.96927 0.58168 0.0
C337 C 0.75972 0.99571 0.56609 0.0
C338 C 0.7747 0.93951 0.57262 0.0
C339 C 0.78146 0.93594 0.54795 0.0
C340 C 0.77775 0.96248 0.53253 0.0
H341 H 0.83016 0.79223 0.44317 0.0
H342 H 0.80737 0.83823 0.46499 0.0
C343 C 0.76714 0.99204 0.54149 0.0
C344 C 0.79076 0.90425 0.53772 0.0
H345 H 0.8478 0.86807 0.50256 0.0
C346 C 0.76874 0.87852 0.53909 0.0
C347 C 0.81995 0.90019 0.52487 0.0
C348 C 0.84531 0.92632 0.52387 0.0
C349 C 0.77462 0.84922 0.52707 0.0
C350 C 0.80323 0.84571 0.51349 0.0
C351 C 0.82562 0.87109 0.5127 0.0
C352 C 0.81097 0.81582 0.50011 0.0
C353 C 0.74986 0.82258 0.52828 0.0
C354 C 0.8195 0.78768 0.51262 0.0
C355 C 0.83259 0.76139 0.50022 0.0
C356 C 0.83741 0.76288 0.47512 0.0
C357 C 0.82668 0.79026 0.46246 0.0
C358 C 0.81378 0.81662 0.47491 0.0
H359 H 0.72665 0.83104 0.53606 0.0
H360 H 0.74528 0.81255 0.51003 0.0
H361 H 0.75925 0.80272 0.53975 0.0
H362 H 0.81782 0.78675 0.5321 0.0
H363 H 0.84062 0.74064 0.5105 0.0
H364 H 0.75025 0.14462 0.49859 0.0
H365 H 0.79764 0.16708 0.47844 0.0
H366 H 0.84205 0.18505 0.54746 0.0
H367 H 0.7948 0.16239 0.56786 0.0
H368 H 0.83393 0.22745 0.48231 0.0
H369 H 0.90209 0.11896 0.51223 0.0
H370 H 0.8586 0.12118 0.51329 0.0
H371 H 0.88242 0.14121 0.53585 0.0
C372 C 0.76977 0.15402 0.50954 0.0
C373 C 0.76897 0.15133 0.53483 0.0
C374 C 0.79682 0.16683 0.49796 0.0
C375 C 0.82351 0.17703 0.51147 0.0
C376 C 0.8218 0.17677 0.53675 0.0
H377 H 0.01789 0.23423 0.48389 0.0
H378 H 0.96625 0.21624 0.49989 0.0
C379 C 0.7947 0.16403 0.54837 0.0
C380 C 0.85408 0.18521 0.49914 0.0
H381 H 0.93175 0.1595 0.49202 0.0
C382 C 0.85533 0.21261 0.48431 0.0
C383 C 0.88174 0.16547 0.50162 0.0
C384 C 0.88125 0.13488 0.51643 0.0
C385 C 0.88402 0.22149 0.47255 0.0
C386 C 0.91186 0.20203 0.47539 0.0
C387 C 0.91034 0.1743 0.48986 0.0
C388 C 0.94346 0.21122 0.465 0.0
C389 C 0.88466 0.25216 0.45788 0.0
C390 C 0.94808 0.21342 0.43996 0.0
C391 C 0.97779 0.2237 0.43065 0.0
C392 C 0.00324 0.2319 0.4463 0.0
C393 C -0.00122 0.22833 0.47131 0.0
C394 C 0.96924 0.21805 0.48053 0.0
H395 H 0.86327 0.26761 0.46145 0.0
H396 H 0.90682 0.2663 0.46178 0.0
H397 H 0.88477 0.24594 0.43841 0.0
H398 H 0.92862 0.20759 0.42766 0.0
H399 H 0.98048 0.22618 0.41132 0.0
H400 H 0.2576 0.47618 0.02591 0.0
H401 H 0.27701 0.52704 0.00948 0.0
H402 H 0.2871 0.56541 0.08138 0.0
H403 H 0.26709 0.51429 0.09818 0.0
H404 H 0.25311 0.60618 0.04906 0.0
H405 H 0.36825 0.56421 0.0091 0.0
H406 H 0.33429 0.54004 1.0003 0.0
H407 H 0.34652 0.5411 0.03142 0.0
C408 C 0.26429 0.49521 0.03834 0.0
C409 C 0.26081 0.49114 0.0634 0.0
C410 C 0.27554 0.52426 0.02888 0.0
C411 C 0.2838 0.54984 0.04421 0.0
C412 C 0.28096 0.54582 0.06927 0.0
H413 H 0.34938 0.7437 0.01111 0.0
H414 H 0.32628 0.69665 0.03124 0.0
C415 C 0.26972 0.51659 0.07883 0.0
C416 C 0.29378 0.58115 0.03373 0.0
H417 H 0.34847 0.61517 0.99543 0.0
C418 C 0.27415 0.60831 0.03755 0.0
C419 C 0.32116 0.58375 0.01865 0.0
C420 C 0.34395 0.5558 0.01478 0.0
C421 C 0.28066 0.63782 0.02604 0.0
C422 C 0.30763 0.64015 0.01054 0.0
C423 C 0.32754 0.61314 0.00708 0.0
C424 C 0.3165 0.67058 0.99824 0.0
C425 C 0.25823 0.66601 0.03001 0.0
C426 C 0.31808 0.67176 0.97297 0.0
C427 C 0.33128 0.69866 0.96136 0.0
C428 C 0.34348 0.72462 0.97491 0.0
C429 C 0.34019 0.72409 1.00016 0.0
C430 C 0.32687 0.69726 0.01172 0.0
H431 H 0.23471 0.65823 0.03766 0.0
H432 H 0.26955 0.68314 0.04287 0.0
H433 H 0.25376 0.67911 0.01285 0.0
H434 H 0.31026 0.6513 0.96228 0.0
H435 H 0.33359 0.69827 0.94191 0.0
H436 H 0.75164 0.64568 0.99608 0.0
H437 H 0.70847 0.67261 0.97379 0.0
H438 H 0.65813 0.69087 0.04047 0.0
H439 H 0.70149 0.66452 0.06294 0.0
H440 H 0.64721 0.65017 0.97277 0.0
H441 H 0.64706 0.77613 0.00596 0.0
H442 H 0.68079 0.74922 0.01059 0.0
H443 H 0.64617 0.74741 0.03015 0.0
C444 C 0.73179 0.65617 0.00608 0.0
C445 C 0.72992 0.65288 0.03129 0.0
C446 C 0.70711 0.67149 0.99329 0.0
C447 C 0.68016 0.68392 0.00545 0.0
C448 C 0.67899 0.68207 0.03073 0.0
H449 H 0.48626 0.73768 0.98002 0.0
H450 H 0.53923 0.72099 0.99431 0.0
C451 C 0.70377 0.66688 0.04356 0.0
C452 C 0.65174 0.69544 0.99165 0.0
H453 H 0.59806 0.75763 0.98711 0.0
C454 C 0.63677 0.6739 0.97556 0.0
C455 C 0.63819 0.72639 0.99529 0.0
C456 C 0.65408 0.75123 0.01126 0.0
C457 C 0.60771 0.68187 0.96396 0.0
C458 C 0.59349 0.71226 0.96844 0.0
C459 C 0.60904 0.73426 0.98381 0.0
C460 C 0.5612 0.72075 0.95897 0.0
C461 C 0.59162 0.65722 0.94793 0.0
C462 C 0.55589 0.72567 0.93422 0.0
C463 C 0.5254 0.73521 0.92588 0.0
C464 C 0.4999 0.74008 0.94222 0.0
C465 C 0.5053 0.73428 0.96691 0.0
C466 C 0.53562 0.72482 0.97516 0.0
H467 H 0.60336 0.63316 0.94914 0.0
H468 H 0.56574 0.65464 0.95279 0.0
H469 H 0.59284 0.66548 0.92892 0.0
H470 H 0.57548 0.72288 0.92147 0.0
H471 H 0.52209 0.73967 0.90678 0.0
H472 H 0.73511 0.50878 0.02833 0.0
H473 H 0.7192 0.45559 0.01388 0.0
H474 H 0.71836 0.41981 0.08688 0.0
H475 H 0.73429 0.47337 0.10171 0.0
H476 H 0.756 0.39757 0.02182 0.0
H477 H 0.63065 0.39 0.05767 0.0
H478 H 0.65172 0.42795 0.0546 0.0
H479 H 0.662 0.40084 0.07863 0.0
C480 C 0.73118 0.48979 0.04143 0.0
C481 C 0.73604 0.49535 0.06621 0.0
C482 C 0.72219 0.45935 0.03309 0.0
C483 C 0.71767 0.43382 0.04929 0.0
C484 C 0.72149 0.43934 0.07412 0.0
H485 H 0.64743 0.24141 0.01288 0.0
H486 H 0.67366 0.28514 0.03502 0.0
C487 C 0.73053 0.46995 0.08254 0.0
C488 C 0.71007 0.4013 0.03979 0.0
H489 H 0.64952 0.34591 0.03509 0.0
C490 C 0.73283 0.38607 0.02487 0.0
C491 C 0.67994 0.38638 0.04394 0.0
C492 C 0.65448 0.40208 0.05945 0.0
C493 C 0.72598 0.35653 0.01356 0.0
C494 C 0.69535 0.34222 0.01692 0.0
C495 C 0.67303 0.35692 0.03254 0.0
C496 C 0.68488 0.31327 1.00325 0.0
C497 C 0.75159 0.34102 0.99808 0.0
C498 C 0.68339 0.31407 0.97795 0.0
C499 C 0.66861 0.28896 0.96519 0.0
C500 C 0.65467 0.26285 0.97757 0.0
C501 C 0.65788 0.26122 1.0028 0.0
C502 C 0.67278 0.28624 0.01551 0.0
H503 H 0.77616 0.34881 1.00362 0.0
H504 H 0.75027 0.31427 0.99901 0.0
H505 H 0.74798 0.3485 0.97906 0.0
H506 H 0.69198 0.33496 0.96812 0.0
H507 H 0.66631 0.29107 0.9458 0.0
H508 H 0.47386 0.26548 0.91065 0.0
H509 H 0.42189 0.28374 0.92703 0.0
H510 H 0.46282 0.28513 0.99855 0.0
H511 H 0.5145 0.26753 0.98247 0.0
H512 H 0.38503 0.25024 0.96151 0.0
H513 H 0.4174 0.37203 0.99484 0.0
H514 H 0.44207 0.35025 0.9735 0.0
H515 H 0.44477 0.34148 1.00523 0.0
C516 C 0.47194 0.27043 0.92977 0.0
C517 C 0.49831 0.26509 0.94525 0.0
C518 C 0.44222 0.28063 0.93911 0.0
C519 C 0.43862 0.28603 0.96397 0.0
C520 C 0.46519 0.28167 0.97927 0.0
H521 H 0.2923 0.32898 0.06848 0.0
H522 H 0.33909 0.3073 0.04702 0.0
C523 C 0.49473 0.27145 0.97002 0.0
C524 C 0.40679 0.29421 0.97445 0.0
H525 H 0.36937 0.34856 0.01123 0.0
C526 C 0.38139 0.27193 0.97212 0.0
C527 C 0.40219 0.32248 0.98831 0.0
C528 C 0.42796 0.34808 0.99044 0.0
C529 C 0.35187 0.27667 0.98407 0.0
C530 C 0.34775 0.30441 0.99855 0.0
C531 C 0.37284 0.32703 1.00039 0.0
C532 C 0.31741 0.31117 0.01165 0.0
C533 C 0.32565 0.2516 0.98176 0.0
C534 C 0.28937 0.31938 0.99889 0.0
C535 C 0.26261 0.33179 0.01109 0.0
C536 C 0.26353 0.3363 0.03623 0.0
C537 C 0.29077 0.32574 0.04913 0.0
C538 C 0.31759 0.31349 0.03689 0.0
H539 H 0.33482 0.2287 0.9739 0.0
H540 H 0.31473 0.2464 0.99962 0.0
H541 H 0.30631 0.26101 0.96982 0.0
H542 H 0.28889 0.3181 0.97938 0.0
H543 H 0.24198 0.3397 1.00062 0.0
H544 H 0.9152 0.60788 0.46517 0.0
H545 H 0.94052 0.5546 0.4694 0.0
H546 H 0.96394 0.55479 0.39369 0.0
H547 H 0.93903 0.60794 0.38925 0.0
H548 H 0.93473 0.49156 0.42148 0.0
H549 H 0.04675 0.55062 0.45583 0.0
H550 H 0.0076 0.56361 0.46628 0.0
H551 H 0.01959 0.57187 0.43588 0.0
C552 C 0.92502 0.59621 0.44931 0.0
C553 C 0.92536 0.61215 0.4269 0.0
C554 C 0.93959 0.56594 0.45181 0.0
C555 C 0.95427 0.5512 0.43189 0.0
C556 C 0.95278 0.56604 0.40924 0.0
H557 H 0.05448 0.38215 0.38837 0.0
H558 H 0.02582 0.43335 0.39231 0.0
C559 C 0.93854 0.59633 0.40676 0.0
C560 C 0.9733 0.52145 0.43471 0.0
H561 H 0.04954 0.49508 0.44715 0.0
C562 C 0.9597 0.49214 0.42737 0.0
C563 C 0.00573 0.52253 0.44255 0.0
C564 C 0.02105 0.55376 0.45061 0.0
C565 C 0.9781 0.46376 0.42706 0.0
C566 C 0.01113 0.46513 0.4336 0.0
C567 C 0.02433 0.49425 0.44192 0.0
C568 C 0.03246 0.43677 0.43093 0.0
C569 C 0.96204 0.4326 0.4196 0.0
C570 C 0.04765 0.42306 0.4511 0.0
C571 C 0.06457 0.39399 0.44883 0.0
C572 C 0.06634 0.37831 0.42638 0.0
C573 C 0.05317 0.39347 0.40595 0.0
C574 C 0.03656 0.42256 0.4082 0.0
H575 H 0.93548 0.43366 0.42224 0.0
H576 H 0.96664 0.42825 0.40016 0.0
H577 H 0.97174 0.4118 0.42996 0.0
H578 H 0.04507 0.43398 0.46874 0.0
H579 H 0.07445 0.38285 0.46489 0.0
H580 H 0.61486 0.07153 0.5388 0.0
H581 H 0.56141 0.04722 0.53292 0.0
H582 H 0.55149 0.03578 0.60984 0.0
H583 H 0.60474 0.05967 0.61587 0.0
H584 H 0.54844 0.98144 0.55115 0.0
H585 H 0.46308 0.07322 0.58632 0.0
H586 H 0.503 0.08333 0.57555 0.0
H587 H 0.49775 0.06651 0.60516 0.0
C588 C 0.60086 0.06468 0.55448 0.0
C589 C 0.61393 0.06739 0.5778 0.0
C590 C 0.57049 0.05065 0.55106 0.0
C591 C 0.55264 0.03986 0.57096 0.0
C592 C 0.56484 0.0443 0.5943 0.0
H593 H 0.39065 0.93344 0.61603 0.0
H594 H 0.4422 0.96085 0.61037 0.0
C595 C 0.59526 0.05788 0.59771 0.0
C596 C 0.52282 0.02093 0.56762 0.0
H597 H 0.44378 0.01886 0.58428 0.0
C598 C 0.52532 0.98971 0.55793 0.0
C599 C 0.49293 0.03194 0.57656 0.0
C600 C 0.48882 0.0657 0.5863 0.0
C601 C 0.49897 0.9684 0.55831 0.0
C602 C 0.46946 0.97895 0.56834 0.0
C603 C 0.46661 0.01075 0.57687 0.0
C604 C 0.44152 0.95719 0.57145 0.0
C605 C 0.5033 0.93437 0.54917 0.0
C606 C 0.42484 0.94481 0.55146 0.0
C607 C 0.39546 0.92873 0.55467 0.0
C608 C 0.38225 0.92534 0.5779 0.0
C609 C 0.40016 0.93585 0.59793 0.0
C610 C 0.42953 0.95161 0.59472 0.0
H611 H 0.52912 0.92827 0.54632 0.0
H612 H 0.49272 0.91673 0.56201 0.0
H613 H 0.49052 0.93172 0.53169 0.0
H614 H 0.43353 0.94921 0.53335 0.0
H615 H 0.38204 0.92112 0.53889 0.0
H616 H 0.54516 0.11162 0.89239 0.0
H617 H 0.5161 0.06103 0.89836 0.0
H618 H 0.53882 0.06355 0.97423 0.0
H619 H 0.56853 0.11415 0.96838 0.0
H620 H 0.54245 0.00146 0.95352 0.0
H621 H 0.42713 0.0619 0.93092 0.0
H622 H 0.45716 0.06708 0.90795 0.0
H623 H 0.46366 0.08403 0.93744 0.0
C624 C 0.54448 0.10117 0.91029 0.0
C625 C 0.55878 0.11706 0.92997 0.0
C626 C 0.52764 0.07242 0.9137 0.0
C627 C 0.52447 0.05924 0.93686 0.0
C628 C 0.54066 0.07369 0.95628 0.0
H629 H 0.4169 0.8814 0.97127 0.0
H630 H 0.43991 0.93543 0.97722 0.0
C631 C 0.55777 0.10245 0.95286 0.0
C632 C 0.50333 0.03097 0.94064 0.0
H633 H 0.42682 0.00385 0.92998 0.0
C634 C 0.51704 0.00205 0.94884 0.0
C635 C 0.47007 0.03206 0.93482 0.0
C636 C 0.45353 0.06303 0.92754 0.0
C637 C 0.49877 0.97355 0.9498 0.0
C638 C 0.46608 0.97428 0.9425 0.0
C639 C 0.45195 0.00351 0.93549 0.0
C640 C 0.44754 0.94424 0.93922 0.0
C641 C 0.51488 0.94246 0.95732 0.0
C642 C 0.44305 0.93222 0.91585 0.0
C643 C 0.4301 0.90152 0.91239 0.0
C644 C 0.42119 0.88248 0.93227 0.0
C645 C 0.42345 0.89559 0.95561 0.0
C646 C 0.43676 0.92629 0.95907 0.0
H647 H 0.5411 0.94563 0.9608 0.0
H648 H 0.50334 0.93325 0.97401 0.0
H649 H 0.51168 0.92386 0.9431 0.0
H650 H 0.45115 0.94592 0.90035 0.0
H651 H 0.42848 0.89211 0.8942 0.0
H652 H 0.10962 0.43959 0.1218 0.0
H653 H 0.05786 0.46713 0.11751 0.0
H654 H 0.05875 0.44806 0.04103 0.0
H655 H 0.1102 0.41964 0.0453 0.0
H656 H 0.0512 0.52182 0.09068 0.0
H657 H 0.96603 0.42749 0.05839 0.0
H658 H 0.00464 0.41775 0.07163 0.0
H659 H 0.00228 0.4313 0.04089 0.0
C660 C 0.09837 0.44049 0.10417 0.0
C661 C 0.11396 0.42754 0.08388 0.0
C662 C 0.06888 0.45635 0.10173 0.0
C663 C 0.05451 0.45967 0.07896 0.0
C664 C 0.06916 0.44532 0.05883 0.0
H665 H 0.88148 0.571 0.04173 0.0
H666 H 0.93528 0.54674 0.03808 0.0
C667 C 0.09857 0.42908 0.0613 0.0
C668 C 0.02585 0.48066 0.07622 0.0
H669 H 0.94657 0.48118 0.05955 0.0
C670 C 0.02834 0.51294 0.08381 0.0
C671 C 0.99621 0.4691 0.06698 0.0
C672 C 0.99191 0.43446 0.05918 0.0
C673 C 0.00171 0.53375 0.08302 0.0
C674 C 0.97193 0.52193 0.07445 0.0
C675 C 0.96965 0.49008 0.06599 0.0
C676 C 0.94205 0.54103 0.0765 0.0
C677 C 0.00539 0.56807 0.09169 0.0
C678 C 0.92864 0.54642 0.09934 0.0
C679 C 0.89798 0.55995 0.10148 0.0
C680 C 0.88032 0.56846 0.0808 0.0
C681 C 0.89466 0.5649 0.05798 0.0
C682 C 0.92524 0.55091 0.05584 0.0
H683 H 0.03112 0.57558 0.09238 0.0
H684 H 0.99196 0.58496 0.07979 0.0
H685 H 0.9952 0.57016 0.11012 0.0
H686 H 0.94122 0.53864 0.11546 0.0
H687 H 0.88753 0.56244 0.11929 0.0
loop_
_geom_bond_atom_site_label_1
_geom_bond_atom_site_label_2
_geom_bond_distance
_geom_bond_site_symmetry_2
_ccdc_geom_bond_type
O0 Cd1 2.223 . S
O0 C8 1.315 . S
Cd1 O0 2.223 . S
Cd1 O4 2.297 . S
Cd1 O5 2.439 . S
Cd1 O11 2.240 . S
Cd2 O3 2.240 . S
Cd2 O10 2.223 . S
Cd2 O12 2.297 . S
Cd2 O13 2.439 . S
O3 Cd2 2.240 . S
O3 C8 1.279 . S
O4 Cd1 2.297 . S
O4 C6 1.247 . S
O5 Cd1 2.439 . S
O5 C6 1.208 . S
C6 O4 1.247 . S
C6 O5 1.208 . S
C7 O12 1.247 . S
C7 O13 1.208 . S
C8 O0 1.315 . S
C8 O3 1.279 . S
C9 O10 1.315 . S
C9 O11 1.279 . S
O10 Cd2 2.223 . S
O10 C9 1.315 . S
O11 Cd1 2.240 . S
O11 C9 1.279 . S
O12 Cd2 2.297 . S
O12 C7 1.247 . S
O13 Cd2 2.439 . S
O13 C7 1.208 . S
O14 Cd15 2.223 . S
O14 C22 1.315 . S
Cd15 O14 2.223 . S
Cd15 O18 2.297 . S
Cd15 O19 2.439 . S
Cd15 O25 2.240 . S
Cd16 O17 2.240 . S
Cd16 O24 2.223 . S
Cd16 O26 2.297 . S
Cd16 O27 2.439 . S
O17 Cd16 2.240 . S
O17 C22 1.279 . S
O18 Cd15 2.297 . S
O18 C20 1.247 . S
O19 Cd15 2.439 . S
O19 C20 1.208 . S
C20 O18 1.247 . S
C20 O19 1.208 . S
C21 O26 1.247 . S
C21 O27 1.208 . S
C22 O14 1.315 . S
C22 O17 1.279 . S
C23 O24 1.315 . S
C23 O25 1.279 . S
O24 Cd16 2.223 . S
O24 C23 1.315 . S
O25 Cd15 2.240 . S
O25 C23 1.279 . S
O26 Cd16 2.297 . S
O26 C21 1.247 . S
O27 Cd16 2.439 . S
O27 C21 1.208 . S
O28 Cd29 2.223 . S
O28 C36 1.315 . S
Cd29 O28 2.223 . S
Cd29 O32 2.297 . S
Cd29 O33 2.439 . S
Cd29 O39 2.240 . S
Cd30 O31 2.240 . S
Cd30 O38 2.223 . S
Cd30 O40 2.297 . S
Cd30 O41 2.439 . S
O31 Cd30 2.240 . S
O31 C36 1.279 . S
O32 Cd29 2.297 . S
O32 C34 1.247 . S
O33 Cd29 2.439 . S
O33 C34 1.208 . S
C34 O32 1.247 . S
C34 O33 1.208 . S
C35 O40 1.247 . S
C35 O41 1.208 . S
C36 O28 1.315 . S
C36 O31 1.279 . S
C37 O38 1.315 . S
C37 O39 1.279 . S
O38 Cd30 2.223 . S
O38 C37 1.315 . S
O39 Cd29 2.240 . S
O39 C37 1.279 . S
O40 Cd30 2.297 . S
O40 C35 1.247 . S
O41 Cd30 2.439 . S
O41 C35 1.208 . S
O42 Cd43 2.223 . S
O42 C50 1.315 . S
Cd43 O42 2.223 . S
Cd43 O46 2.297 . S
Cd43 O47 2.439 . S
Cd43 O53 2.240 . S
Cd44 O45 2.240 . S
Cd44 O52 2.223 . S
Cd44 O54 2.297 . S
Cd44 O55 2.439 . S
O45 Cd44 2.240 . S
O45 C50 1.279 . S
O46 Cd43 2.297 . S
O46 C48 1.247 . S
O47 Cd43 2.439 . S
O47 C48 1.208 . S
C48 O46 1.247 . S
C48 O47 1.208 . S
C49 O54 1.247 . S
C49 O55 1.208 . S
C50 O42 1.315 . S
C50 O45 1.279 . S
C51 O52 1.315 . S
C51 O53 1.279 . S
O52 Cd44 2.223 . S
O52 C51 1.315 . S
O53 Cd43 2.240 . S
O53 C51 1.279 . S
O54 Cd44 2.297 . S
O54 C49 1.247 . S
O55 Cd44 2.439 . S
O55 C49 1.208 . S
O56 Cd57 2.223 . S
O56 C64 1.315 . S
Cd57 O56 2.223 . S
Cd57 O60 2.297 . S
Cd57 O61 2.439 . S
Cd57 O67 2.240 . S
Cd58 O59 2.240 . S
Cd58 O66 2.223 . S
Cd58 O68 2.297 . S
Cd58 O69 2.439 . S
O59 Cd58 2.240 . S
O59 C64 1.279 . S
O60 Cd57 2.297 . S
O60 C62 1.247 . S
O61 Cd57 2.439 . S
O61 C62 1.208 . S
C62 O60 1.247 . S
C62 O61 1.208 . S
C63 O68 1.247 . S
C63 O69 1.208 . S
C64 O56 1.315 . S
C64 O59 1.279 . S
C65 O66 1.315 . S
C65 O67 1.279 . S
O66 Cd58 2.223 . S
O66 C65 1.315 . S
O67 Cd57 2.240 . S
O67 C65 1.279 . S
O68 Cd58 2.297 . S
O68 C63 1.247 . S
O69 Cd58 2.439 . S
O69 C63 1.208 . S
O70 Cd71 2.223 . S
O70 C78 1.315 . S
Cd71 O70 2.223 . S
Cd71 O74 2.297 . S
Cd71 O75 2.439 . S
Cd71 O81 2.240 . S
Cd72 O73 2.240 . S
Cd72 O80 2.223 . S
Cd72 O82 2.297 . S
Cd72 O83 2.439 . S
O73 Cd72 2.240 . S
O73 C78 1.279 . S
O74 Cd71 2.297 . S
O74 C76 1.247 . S
O75 Cd71 2.439 . S
O75 C76 1.208 . S
C76 O74 1.247 . S
C76 O75 1.208 . S
C77 O82 1.247 . S
C77 O83 1.208 . S
C78 O70 1.315 . S
C78 O73 1.279 . S
C79 O80 1.315 . S
C79 O81 1.279 . S
O80 Cd72 2.223 . S
O80 C79 1.315 . S
O81 Cd71 2.240 . S
O81 C79 1.279 . S
O82 Cd72 2.297 . S
O82 C77 1.247 . S
O83 Cd72 2.439 . S
O83 C77 1.208 . S
O84 Cd85 2.223 . S
O84 C92 1.315 . S
Cd85 O84 2.223 . S
Cd85 O88 2.297 . S
Cd85 O89 2.439 . S
Cd85 O95 2.240 . S
Cd86 O87 2.240 . S
Cd86 O94 2.223 . S
Cd86 O96 2.297 . S
Cd86 O97 2.439 . S
O87 Cd86 2.240 . S
O87 C92 1.279 . S
O88 Cd85 2.297 . S
O88 C90 1.247 . S
O89 Cd85 2.439 . S
O89 C90 1.208 . S
C90 O88 1.247 . S
C90 O89 1.208 . S
C91 O96 1.247 . S
C91 O97 1.208 . S
C92 O84 1.315 . S
C92 O87 1.279 . S
C93 O94 1.315 . S
C93 O95 1.279 . S
O94 Cd86 2.223 . S
O94 C93 1.315 . S
O95 Cd85 2.240 . S
O95 C93 1.279 . S
O96 Cd86 2.297 . S
O96 C91 1.247 . S
O97 Cd86 2.439 . S
O97 C91 1.208 . S
O98 Cd99 2.223 . S
O98 C106 1.315 . S
Cd99 O98 2.223 . S
Cd99 O102 2.297 . S
Cd99 O103 2.439 . S
Cd99 O109 2.240 . S
Cd100 O101 2.240 . S
Cd100 O108 2.223 . S
Cd100 O110 2.297 . S
Cd100 O111 2.439 . S
O101 Cd100 2.240 . S
O101 C106 1.279 . S
O102 Cd99 2.297 . S
O102 C104 1.247 . S
O103 Cd99 2.439 . S
O103 C104 1.208 . S
C104 O102 1.247 . S
C104 O103 1.208 . S
C105 O110 1.247 . S
C105 O111 1.208 . S
C106 O98 1.315 . S
C106 O101 1.279 . S
C107 O108 1.315 . S
C107 O109 1.279 . S
O108 Cd100 2.223 . S
O108 C107 1.315 . S
O109 Cd99 2.240 . S
O109 C107 1.279 . S
O110 Cd100 2.297 . S
O110 C105 1.247 . S
O111 Cd100 2.439 . S
O111 C105 1.208 . S
H112 C120 0.929 . S
H113 C122 0.930 . S
H114 C124 0.930 . S
H115 C127 0.929 . S
H116 C130 0.930 . S
H117 C132 0.960 . S
H118 C132 0.960 . S
H119 C132 0.960 . S
C120 H112 0.929 . S
C120 C121 1.377 . S
C120 C122 1.384 . S
C121 C120 1.377 . S
C121 C127 1.390 . S
C122 H113 0.930 . S
C122 C120 1.384 . S
C122 C123 1.372 . S
C123 C122 1.372 . S
C123 C124 1.400 . S
C123 C128 1.490 . S
C124 H114 0.930 . S
C124 C123 1.400 . S
C124 C127 1.386 . S
H125 C141 0.930 . S
H126 C142 0.931 . S
C127 H115 0.929 . S
C127 C121 1.390 . S
C127 C124 1.386 . S
C128 C123 1.490 . S
C128 C130 1.395 . S
C128 C131 1.403 . S
H129 C135 0.930 . S
C130 H116 0.930 . S
C130 C128 1.395 . S
C130 C133 1.403 . S
C131 C128 1.403 . S
C131 C132 1.524 . S
C131 C135 1.400 . S
C132 H117 0.960 . S
C132 H118 0.960 . S
C132 H119 0.960 . S
C132 C131 1.524 . S
C133 C130 1.403 . S
C133 C134 1.392 . S
C133 C137 1.495 . S
C134 C133 1.392 . S
C134 C135 1.385 . S
C134 C136 1.478 . S
C135 H129 0.930 . S
C135 C131 1.400 . S
C135 C134 1.385 . S
C136 C134 1.478 . S
C136 C138 1.381 . S
C136 C142 1.383 . S
C137 C133 1.495 . S
C137 H143 0.959 . S
C137 H144 0.961 . S
C137 H145 0.960 . S
C138 C136 1.381 . S
C138 C139 1.394 . S
C138 H146 0.930 . S
C139 C138 1.394 . S
C139 C140 1.383 . S
C139 H147 0.929 . S
C140 C139 1.383 . S
C140 C141 1.377 . S
C141 H125 0.930 . S
C141 C140 1.377 . S
C141 C142 1.379 . S
C142 H126 0.931 . S
C142 C136 1.383 . S
C142 C141 1.379 . S
H143 C137 0.959 . S
H144 C137 0.961 . S
H145 C137 0.960 . S
H146 C138 0.930 . S
H147 C139 0.929 . S
H148 C156 0.929 . S
H149 C158 0.930 . S
H150 C160 0.930 . S
H151 C163 0.929 . S
H152 C166 0.930 . S
H153 C168 0.960 . S
H154 C168 0.960 . S
H155 C168 0.960 . S
C156 H148 0.929 . S
C156 C157 1.377 . S
C156 C158 1.384 . S
C157 C156 1.377 . S
C157 C163 1.390 . S
C158 H149 0.930 . S
C158 C156 1.384 . S
C158 C159 1.372 . S
C159 C158 1.372 . S
C159 C160 1.400 . S
C159 C164 1.490 . S
C160 H150 0.930 . S
C160 C159 1.400 . S
C160 C163 1.386 . S
H161 C177 0.930 . S
H162 C178 0.931 . S
C163 H151 0.929 . S
C163 C157 1.390 . S
C163 C160 1.386 . S
C164 C159 1.490 . S
C164 C166 1.395 . S
C164 C167 1.403 . S
H165 C171 0.930 . S
C166 H152 0.930 . S
C166 C164 1.395 . S
C166 C169 1.403 . S
C167 C164 1.403 . S
C167 C168 1.524 . S
C167 C171 1.400 . S
C168 H153 0.960 . S
C168 H154 0.960 . S
C168 H155 0.960 . S
C168 C167 1.524 . S
C169 C166 1.403 . S
C169 C170 1.392 . S
C169 C173 1.495 . S
C170 C169 1.392 . S
C170 C171 1.385 . S
C170 C172 1.478 . S
C171 H165 0.930 . S
C171 C167 1.400 . S
C171 C170 1.385 . S
C172 C170 1.478 . S
C172 C174 1.381 . S
C172 C178 1.383 . S
C173 C169 1.495 . S
C173 H179 0.959 . S
C173 H180 0.961 . S
C173 H181 0.960 . S
C174 C172 1.381 . S
C174 C175 1.394 . S
C174 H182 0.930 . S
C175 C174 1.394 . S
C175 C176 1.383 . S
C175 H183 0.929 . S
C176 C175 1.383 . S
C176 C177 1.377 . S
C177 H161 0.930 . S
C177 C176 1.377 . S
C177 C178 1.379 . S
C178 H162 0.931 . S
C178 C172 1.383 . S
C178 C177 1.379 . S
H179 C173 0.959 . S
H180 C173 0.961 . S
H181 C173 0.960 . S
H182 C174 0.930 . S
H183 C175 0.929 . S
H184 C192 0.929 . S
H185 C194 0.930 . S
H186 C196 0.930 . S
H187 C199 0.929 . S
H188 C202 0.930 . S
H189 C204 0.960 . S
H190 C204 0.960 . S
H191 C204 0.960 . S
C192 H184 0.929 . S
C192 C193 1.377 . S
C192 C194 1.384 . S
C193 C192 1.377 . S
C193 C199 1.390 . S
C194 H185 0.930 . S
C194 C192 1.384 . S
C194 C195 1.372 . S
C195 C194 1.372 . S
C195 C196 1.400 . S
C195 C200 1.490 . S
C196 H186 0.930 . S
C196 C195 1.400 . S
C196 C199 1.386 . S
H197 C213 0.930 . S
H198 C214 0.931 . S
C199 H187 0.929 . S
C199 C193 1.390 . S
C199 C196 1.386 . S
C200 C195 1.490 . S
C200 C202 1.395 . S
C200 C203 1.403 . S
H201 C207 0.930 . S
C202 H188 0.930 . S
C202 C200 1.395 . S
C202 C205 1.403 . S
C203 C200 1.403 . S
C203 C204 1.524 . S
C203 C207 1.400 . S
C204 H189 0.960 . S
C204 H190 0.960 . S
C204 H191 0.960 . S
C204 C203 1.524 . S
C205 C202 1.403 . S
C205 C206 1.392 . S
C205 C209 1.495 . S
C206 C205 1.392 . S
C206 C207 1.385 . S
C206 C208 1.478 . S
C207 H201 0.930 . S
C207 C203 1.400 . S
C207 C206 1.385 . S
C208 C206 1.478 . S
C208 C210 1.381 . S
C208 C214 1.383 . S
C209 C205 1.495 . S
C209 H215 0.959 . S
C209 H216 0.961 . S
C209 H217 0.960 . S
C210 C208 1.381 . S
C210 C211 1.394 . S
C210 H218 0.930 . S
C211 C210 1.394 . S
C211 C212 1.383 . S
C211 H219 0.929 . S
C212 C211 1.383 . S
C212 C213 1.377 . S
C213 H197 0.930 . S
C213 C212 1.377 . S
C213 C214 1.379 . S
C214 H198 0.931 . S
C214 C208 1.383 . S
C214 C213 1.379 . S
H215 C209 0.959 . S
H216 C209 0.961 . S
H217 C209 0.960 . S
H218 C210 0.930 . S
H219 C211 0.929 . S
H220 C228 0.929 . S
H221 C230 0.930 . S
H222 C232 0.930 . S
H223 C235 0.929 . S
H224 C238 0.930 . S
H225 C240 0.960 . S
H226 C240 0.960 . S
H227 C240 0.960 . S
C228 H220 0.929 . S
C228 C229 1.377 . S
C228 C230 1.384 . S
C229 C228 1.377 . S
C229 C235 1.390 . S
C230 H221 0.930 . S
C230 C228 1.384 . S
C230 C231 1.372 . S
C231 C230 1.372 . S
C231 C232 1.400 . S
C231 C236 1.490 . S
C232 H222 0.930 . S
C232 C231 1.400 . S
C232 C235 1.386 . S
H233 C249 0.930 . S
H234 C250 0.931 . S
C235 H223 0.929 . S
C235 C229 1.390 . S
C235 C232 1.386 . S
C236 C231 1.490 . S
C236 C238 1.395 . S
C236 C239 1.403 . S
H237 C243 0.930 . S
C238 H224 0.930 . S
C238 C236 1.395 . S
C238 C241 1.403 . S
C239 C236 1.403 . S
C239 C240 1.524 . S
C239 C243 1.400 . S
C240 H225 0.960 . S
C240 H226 0.960 . S
C240 H227 0.960 . S
C240 C239 1.524 . S
C241 C238 1.403 . S
C241 C242 1.392 . S
C241 C245 1.495 . S
C242 C241 1.392 . S
C242 C243 1.385 . S
C242 C244 1.478 . S
C243 H237 0.930 . S
C243 C239 1.400 . S
C243 C242 1.385 . S
C244 C242 1.478 . S
C244 C246 1.381 . S
C244 C250 1.383 . S
C245 C241 1.495 . S
C245 H251 0.959 . S
C245 H252 0.961 . S
C245 H253 0.960 . S
C246 C244 1.381 . S
C246 C247 1.394 . S
C246 H254 0.930 . S
C247 C246 1.394 . S
C247 C248 1.383 . S
C247 H255 0.929 . S
C248 C247 1.383 . S
C248 C249 1.377 . S
C249 H233 0.930 . S
C249 C248 1.377 . S
C249 C250 1.379 . S
C250 H234 0.931 . S
C250 C244 1.383 . S
C250 C249 1.379 . S
H251 C245 0.959 . S
H252 C245 0.961 . S
H253 C245 0.960 . S
H254 C246 0.930 . S
H255 C247 0.929 . S
H256 C264 0.929 . S
H257 C266 0.930 . S
H258 C268 0.930 . S
H259 C271 0.929 . S
H260 C274 0.930 . S
H261 C276 0.960 . S
H262 C276 0.960 . S
H263 C276 0.960 . S
C264 H256 0.929 . S
C264 C265 1.377 . S
C264 C266 1.384 1_565 S
C265 C264 1.377 . S
C265 C271 1.390 . S
C266 H257 0.930 . S
C266 C264 1.384 1_545 S
C266 C267 1.372 . S
C267 C266 1.372 . S
C267 C268 1.400 . S
C267 C272 1.490 . S
C268 H258 0.930 . S
C268 C267 1.400 . S
C268 C271 1.386 1_545 S
H269 C285 0.930 . S
H270 C286 0.931 . S
C271 H259 0.929 . S
C271 C265 1.390 . S
C271 C268 1.386 1_565 S
C272 C267 1.490 . S
C272 C274 1.395 . S
C272 C275 1.403 . S
H273 C279 0.930 . S
C274 H260 0.930 . S
C274 C272 1.395 . S
C274 C277 1.403 . S
C275 C272 1.403 . S
C275 C276 1.524 . S
C275 C279 1.400 . S
C276 H261 0.960 . S
C276 H262 0.960 . S
C276 H263 0.960 . S
C276 C275 1.524 . S
C277 C274 1.403 . S
C277 C278 1.392 . S
C277 C281 1.495 . S
C278 C277 1.392 . S
C278 C279 1.385 . S
C278 C280 1.478 . S
C279 H273 0.930 . S
C279 C275 1.400 . S
C279 C278 1.385 . S
C280 C278 1.478 . S
C280 C282 1.381 . S
C280 C286 1.383 . S
C281 C277 1.495 . S
C281 H287 0.959 . S
C281 H288 0.961 . S
C281 H289 0.960 . S
C282 C280 1.381 . S
C282 C283 1.394 . S
C282 H290 0.930 . S
C283 C282 1.394 . S
C283 C284 1.383 . S
C283 H291 0.929 . S
C284 C283 1.383 . S
C284 C285 1.377 . S
C285 H269 0.930 . S
C285 C284 1.377 . S
C285 C286 1.379 . S
C286 H270 0.931 . S
C286 C280 1.383 . S
C286 C285 1.379 . S
H287 C281 0.959 . S
H288 C281 0.961 . S
H289 C281 0.960 . S
H290 C282 0.930 . S
H291 C283 0.929 . S
H292 C300 0.929 . S
H293 C302 0.930 . S
H294 C304 0.930 . S
H295 C307 0.929 . S
H296 C310 0.930 . S
H297 C312 0.960 . S
H298 C312 0.960 . S
H299 C312 0.960 . S
C300 H292 0.929 . S
C300 C301 1.377 . S
C300 C302 1.384 . S
C301 C300 1.377 . S
C301 C307 1.390 . S
C302 H293 0.930 . S
C302 C300 1.384 . S
C302 C303 1.372 . S
C303 C302 1.372 . S
C303 C304 1.400 . S
C303 C308 1.490 . S
C304 H294 0.930 . S
C304 C303 1.400 . S
C304 C307 1.386 . S
H305 C321 0.930 . S
H306 C322 0.931 . S
C307 H295 0.929 . S
C307 C301 1.390 . S
C307 C304 1.386 . S
C308 C303 1.490 . S
C308 C310 1.395 . S
C308 C311 1.403 . S
H309 C315 0.930 . S
C310 H296 0.930 . S
C310 C308 1.395 . S
C310 C313 1.403 . S
C311 C308 1.403 . S
C311 C312 1.524 . S
C311 C315 1.400 . S
C312 H297 0.960 . S
C312 H298 0.960 . S
C312 H299 0.960 . S
C312 C311 1.524 . S
C313 C310 1.403 . S
C313 C314 1.392 . S
C313 C317 1.495 . S
C314 C313 1.392 . S
C314 C315 1.385 . S
C314 C316 1.478 . S
C315 H309 0.930 . S
C315 C311 1.400 . S
C315 C314 1.385 . S
C316 C314 1.478 . S
C316 C318 1.381 . S
C316 C322 1.383 . S
C317 C313 1.495 . S
C317 H323 0.959 . S
C317 H324 0.961 . S
C317 H325 0.960 . S
C318 C316 1.381 . S
C318 C319 1.375 1_455 S
C318 H326 0.930 . S
C319 C318 1.375 1_655 S
C319 C320 1.398 . S
C319 H327 0.934 . S
C320 C319 1.398 . S
C320 C321 1.377 . S
C321 H305 0.930 . S
C321 C320 1.377 . S
C321 C322 1.379 1_655 S
C322 H306 0.931 . S
C322 C316 1.383 . S
C322 C321 1.379 1_455 S
H323 C317 0.959 . S
H324 C317 0.961 . S
H325 C317 0.960 . S
H326 C318 0.930 . S
H327 C319 0.934 . S
H328 C336 0.929 . S
H329 C338 0.930 . S
H330 C340 0.930 . S
H331 C343 0.929 . S
H332 C346 0.930 . S
H333 C348 0.960 . S
H334 C348 0.960 . S
H335 C348 0.960 . S
C336 H328 0.929 . S
C336 C337 1.377 1_565 S
C336 C338 1.384 . S
C337 C336 1.377 1_545 S
C337 C343 1.390 . S
C338 H329 0.930 . S
C338 C336 1.384 . S
C338 C339 1.372 . S
C339 C338 1.372 . S
C339 C340 1.400 . S
C339 C344 1.490 . S
C340 H330 0.930 . S
C340 C339 1.400 . S
C340 C343 1.386 1_565 S
H341 C357 0.930 . S
H342 C358 0.931 . S
C343 H331 0.929 . S
C343 C337 1.390 . S
C343 C340 1.386 1_545 S
C344 C339 1.490 . S
C344 C346 1.395 . S
C344 C347 1.403 . S
H345 C351 0.930 . S
C346 H332 0.930 . S
C346 C344 1.395 . S
C346 C349 1.403 . S
C347 C344 1.403 . S
C347 C348 1.524 . S
C347 C351 1.400 . S
C348 H333 0.960 . S
C348 H334 0.960 . S
C348 H335 0.960 . S
C348 C347 1.524 . S
C349 C346 1.403 . S
C349 C350 1.392 . S
C349 C353 1.495 . S
C350 C349 1.392 . S
C350 C351 1.385 . S
C350 C352 1.478 . S
C351 H345 0.930 . S
C351 C347 1.400 . S
C351 C350 1.385 . S
C352 C350 1.478 . S
C352 C354 1.381 . S
C352 C358 1.383 . S
C353 C349 1.495 . S
C353 H359 0.959 . S
C353 H360 0.961 . S
C353 H361 0.960 . S
C354 C352 1.381 . S
C354 C355 1.394 . S
C354 H362 0.930 . S
C355 C354 1.394 . S
C355 C356 1.383 . S
C355 H363 0.929 . S
C356 C355 1.383 . S
C356 C357 1.377 . S
C357 H341 0.930 . S
C357 C356 1.377 . S
C357 C358 1.379 . S
C358 H342 0.931 . S
C358 C352 1.383 . S
C358 C357 1.379 . S
H359 C353 0.959 . S
H360 C353 0.961 . S
H361 C353 0.960 . S
H362 C354 0.930 . S
H363 C355 0.929 . S
H364 C372 0.929 . S
H365 C374 0.930 . S
H366 C376 0.930 . S
H367 C379 0.929 . S
H368 C382 0.930 . S
H369 C384 0.960 . S
H370 C384 0.960 . S
H371 C384 0.960 . S
C372 H364 0.929 . S
C372 C373 1.377 . S
C372 C374 1.384 . S
C373 C372 1.377 . S
C373 C379 1.390 . S
C374 H365 0.930 . S
C374 C372 1.384 . S
C374 C375 1.372 . S
C375 C374 1.372 . S
C375 C376 1.400 . S
C375 C380 1.490 . S
C376 H366 0.930 . S
C376 C375 1.400 . S
C376 C379 1.386 . S
H377 C393 0.930 . S
H378 C394 0.931 . S
C379 H367 0.929 . S
C379 C373 1.390 . S
C379 C376 1.386 . S
C380 C375 1.490 . S
C380 C382 1.395 . S
C380 C383 1.403 . S
H381 C387 0.930 . S
C382 H368 0.930 . S
C382 C380 1.395 . S
C382 C385 1.403 . S
C383 C380 1.403 . S
C383 C384 1.524 . S
C383 C387 1.400 . S
C384 H369 0.960 . S
C384 H370 0.960 . S
C384 H371 0.960 . S
C384 C383 1.524 . S
C385 C382 1.403 . S
C385 C386 1.392 . S
C385 C389 1.495 . S
C386 C385 1.392 . S
C386 C387 1.385 . S
C386 C388 1.478 . S
C387 H381 0.930 . S
C387 C383 1.400 . S
C387 C386 1.385 . S
C388 C386 1.478 . S
C388 C390 1.381 . S
C388 C394 1.383 . S
C389 C385 1.495 . S
C389 H395 0.959 . S
C389 H396 0.961 . S
C389 H397 0.960 . S
C390 C388 1.381 . S
C390 C391 1.394 1_655 S
C390 H398 0.930 . S
C391 C390 1.394 1_455 S
C391 C392 1.383 . S
C391 H399 0.929 . S
C392 C391 1.383 . S
C392 C393 1.377 . S
C393 H377 0.930 . S
C393 C392 1.377 . S
C393 C394 1.379 1_455 S
C394 H378 0.931 . S
C394 C388 1.383 . S
C394 C393 1.379 1_655 S
H395 C389 0.959 . S
H396 C389 0.961 . S
H397 C389 0.960 . S
H398 C390 0.930 . S
H399 C391 0.929 . S
H400 C408 0.929 . S
H401 C410 0.930 . S
H402 C412 0.930 . S
H403 C415 0.929 . S
H404 C418 0.930 . S
H405 C420 0.960 . S
H406 C420 0.960 . S
H407 C420 0.960 . S
C408 H400 0.929 . S
C408 C409 1.377 . S
C408 C410 1.384 . S
C409 C408 1.377 . S
C409 C415 1.390 . S
C410 H401 0.930 . S
C410 C408 1.384 . S
C410 C411 1.372 . S
C411 C410 1.372 . S
C411 C412 1.400 . S
C411 C416 1.490 . S
C412 H402 0.930 . S
C412 C411 1.400 . S
C412 C415 1.386 . S
H413 C429 0.930 . S
H414 C430 0.931 1_554 S
C415 H403 0.929 . S
C415 C409 1.390 . S
C415 C412 1.386 . S
C416 C411 1.490 . S
C416 C418 1.395 . S
C416 C419 1.403 1_554 S
H417 C423 0.930 . S
C418 H404 0.930 . S
C418 C416 1.395 . S
C418 C421 1.403 . S
C419 C416 1.403 1_556 S
C419 C420 1.524 . S
C419 C423 1.400 . S
C420 H405 0.960 . S
C420 H406 0.960 . S
C420 H407 0.960 . S
C420 C419 1.524 . S
C421 C418 1.403 . S
C421 C422 1.392 1_554 S
C421 C425 1.495 . S
C422 C421 1.392 1_556 S
C422 C423 1.385 . S
C422 C424 1.478 . S
C423 H417 0.930 . S
C423 C419 1.400 . S
C423 C422 1.385 . S
C424 C422 1.478 . S
C424 C426 1.381 . S
C424 C430 1.383 . S
C425 C421 1.495 . S
C425 H431 0.959 . S
C425 H432 0.961 . S
C425 H433 0.960 . S
C426 C424 1.381 . S
C426 C427 1.394 . S
C426 H434 0.930 . S
C427 C426 1.394 . S
C427 C428 1.383 . S
C427 H435 0.929 . S
C428 C427 1.383 . S
C428 C429 1.377 . S
C429 H413 0.930 . S
C429 C428 1.377 . S
C429 C430 1.379 . S
C430 H414 0.931 1_556 S
C430 C424 1.383 . S
C430 C429 1.379 . S
H431 C425 0.959 . S
H432 C425 0.961 . S
H433 C425 0.960 . S
H434 C426 0.930 . S
H435 C427 0.929 . S
H436 C444 0.929 1_556 S
H437 C446 0.930 . S
H438 C448 0.930 . S
H439 C451 0.929 . S
H440 C454 0.930 . S
H441 C456 0.960 . S
H442 C456 0.960 . S
H443 C456 0.960 . S
C444 H436 0.929 1_554 S
C444 C445 1.377 . S
C444 C446 1.384 1_554 S
C445 C444 1.377 . S
C445 C451 1.390 . S
C446 H437 0.930 . S
C446 C444 1.384 1_556 S
C446 C447 1.372 1_556 S
C447 C446 1.372 1_554 S
C447 C448 1.400 . S
C447 C452 1.490 . S
C448 H438 0.930 . S
C448 C447 1.400 . S
C448 C451 1.386 . S
H449 C465 0.930 . S
H450 C466 0.931 1_554 S
C451 H439 0.929 . S
C451 C445 1.390 . S
C451 C448 1.386 . S
C452 C447 1.490 . S
C452 C454 1.395 1_554 S
C452 C455 1.403 . S
H453 C459 0.930 . S
C454 H440 0.930 . S
C454 C452 1.395 1_556 S
C454 C457 1.403 . S
C455 C452 1.403 . S
C455 C456 1.524 . S
C455 C459 1.400 . S
C456 H441 0.960 . S
C456 H442 0.960 . S
C456 H443 0.960 . S
C456 C455 1.524 . S
C457 C454 1.403 . S
C457 C458 1.392 . S
C457 C461 1.495 . S
C458 C457 1.392 . S
C458 C459 1.385 1_556 S
C458 C460 1.478 . S
C459 H453 0.930 . S
C459 C455 1.400 . S
C459 C458 1.385 1_554 S
C460 C458 1.478 . S
C460 C462 1.381 . S
C460 C466 1.383 . S
C461 C457 1.495 . S
C461 H467 0.959 . S
C461 H468 0.961 . S
C461 H469 0.960 . S
C462 C460 1.381 . S
C462 C463 1.394 . S
C462 H470 0.930 . S
C463 C462 1.394 . S
C463 C464 1.383 . S
C463 H471 0.929 . S
C464 C463 1.383 . S
C464 C465 1.377 . S
C465 H449 0.930 . S
C465 C464 1.377 . S
C465 C466 1.379 . S
C466 H450 0.931 1_556 S
C466 C460 1.383 . S
C466 C465 1.379 . S
H467 C461 0.959 . S
H468 C461 0.961 . S
H469 C461 0.960 . S
H470 C462 0.930 . S
H471 C463 0.929 . S
H472 C480 0.929 . S
H473 C482 0.930 1_556 S
H474 C484 0.930 . S
H475 C487 0.929 . S
H476 C490 0.930 . S
H477 C492 0.960 . S
H478 C492 0.960 . S
H479 C492 0.960 . S
C480 H472 0.929 . S
C480 C481 1.377 . S
C480 C482 1.384 . S
C481 C480 1.377 . S
C481 C487 1.390 . S
C482 H473 0.930 1_554 S
C482 C480 1.384 . S
C482 C483 1.372 . S
C483 C482 1.372 . S
C483 C484 1.400 . S
C483 C488 1.490 . S
C484 H474 0.930 . S
C484 C483 1.400 . S
C484 C487 1.386 . S
H485 C501 0.930 1_554 S
H486 C502 0.931 . S
C487 H475 0.929 . S
C487 C481 1.390 . S
C487 C484 1.386 . S
C488 C483 1.490 . S
C488 C490 1.395 . S
C488 C491 1.403 . S
H489 C495 0.930 . S
C490 H476 0.930 . S
C490 C488 1.395 . S
C490 C493 1.403 1_554 S
C491 C488 1.403 . S
C491 C492 1.524 . S
C491 C495 1.400 . S
C492 H477 0.960 . S
C492 H478 0.960 . S
C492 H479 0.960 . S
C492 C491 1.524 . S
C493 C490 1.403 1_556 S
C493 C494 1.392 . S
C493 C497 1.495 . S
C494 C493 1.392 . S
C494 C495 1.385 1_556 S
C494 C496 1.478 . S
C495 H489 0.930 . S
C495 C491 1.400 . S
C495 C494 1.385 1_554 S
C496 C494 1.478 . S
C496 C498 1.381 . S
C496 C502 1.383 1_556 S
C497 C493 1.495 . S
C497 H503 0.959 . S
C497 H504 0.961 . S
C497 H505 0.960 . S
C498 C496 1.381 . S
C498 C499 1.394 . S
C498 H506 0.930 . S
C499 C498 1.394 . S
C499 C500 1.383 . S
C499 H507 0.929 . S
C500 C499 1.383 . S
C500 C501 1.377 . S
C501 H485 0.930 1_556 S
C501 C500 1.377 . S
C501 C502 1.379 1_556 S
C502 H486 0.931 . S
C502 C496 1.383 1_554 S
C502 C501 1.379 1_554 S
H503 C497 0.959 . S
H504 C497 0.961 . S
H505 C497 0.960 . S
H506 C498 0.930 . S
H507 C499 0.929 . S
H508 C516 0.929 . S
H509 C518 0.930 . S
H510 C520 0.930 1_554 S
H511 C523 0.929 . S
H512 C526 0.930 . S
H513 C528 0.960 . S
H514 C528 0.960 . S
H515 C528 0.960 1_554 S
C516 H508 0.929 . S
C516 C517 1.377 . S
C516 C518 1.384 . S
C517 C516 1.377 . S
C517 C523 1.390 . S
C518 H509 0.930 . S
C518 C516 1.384 . S
C518 C519 1.372 . S
C519 C518 1.372 . S
C519 C520 1.400 . S
C519 C524 1.490 . S
C520 H510 0.930 1_556 S
C520 C519 1.400 . S
C520 C523 1.386 . S
H521 C537 0.930 . S
H522 C538 0.931 . S
C523 H511 0.929 . S
C523 C517 1.390 . S
C523 C520 1.386 . S
C524 C519 1.490 . S
C524 C526 1.395 . S
C524 C527 1.403 . S
H525 C531 0.930 . S
C526 H512 0.930 . S
C526 C524 1.395 . S
C526 C529 1.403 . S
C527 C524 1.403 . S
C527 C528 1.524 . S
C527 C531 1.400 1_556 S
C528 H513 0.960 . S
C528 H514 0.960 . S
C528 H515 0.960 1_556 S
C528 C527 1.524 . S
C529 C526 1.403 . S
C529 C530 1.392 1_556 S
C529 C533 1.495 . S
C530 C529 1.392 1_554 S
C530 C531 1.385 . S
C530 C532 1.478 . S
C531 H525 0.930 . S
C531 C527 1.400 1_554 S
C531 C530 1.385 . S
C532 C530 1.478 . S
C532 C534 1.381 1_554 S
C532 C538 1.383 . S
C533 C529 1.495 . S
C533 H539 0.959 . S
C533 H540 0.961 1_556 S
C533 H541 0.960 . S
C534 C532 1.381 1_556 S
C534 C535 1.394 1_556 S
C534 H542 0.930 . S
C535 C534 1.394 1_554 S
C535 C536 1.383 . S
C535 H543 0.929 1_554 S
C536 C535 1.383 . S
C536 C537 1.377 . S
C537 H521 0.930 . S
C537 C536 1.377 . S
C537 C538 1.379 . S
C538 H522 0.931 . S
C538 C532 1.383 . S
C538 C537 1.379 . S
H539 C533 0.959 . S
H540 C533 0.961 1_554 S
H541 C533 0.960 . S
H542 C534 0.930 . S
H543 C535 0.929 1_556 S
H544 C552 0.929 . S
H545 C554 0.930 . S
H546 C556 0.930 . S
H547 C559 0.929 . S
H548 C562 0.930 . S
H549 C564 0.960 . S
H550 C564 0.960 . S
H551 C564 0.960 . S
C552 H544 0.929 . S
C552 C553 1.377 . S
C552 C554 1.384 . S
C553 C552 1.377 . S
C553 C559 1.390 . S
C554 H545 0.930 . S
C554 C552 1.384 . S
C554 C555 1.372 . S
C555 C554 1.372 . S
C555 C556 1.400 . S
C555 C560 1.490 . S
C556 H546 0.930 . S
C556 C555 1.400 . S
C556 C559 1.386 . S
H557 C573 0.930 . S
H558 C574 0.931 . S
C559 H547 0.929 . S
C559 C553 1.390 . S
C559 C556 1.386 . S
C560 C555 1.490 . S
C560 C562 1.395 . S
C560 C563 1.403 1_655 S
H561 C567 0.930 . S
C562 H548 0.930 . S
C562 C560 1.395 . S
C562 C565 1.403 . S
C563 C560 1.403 1_455 S
C563 C564 1.524 . S
C563 C567 1.400 . S
C564 H549 0.960 . S
C564 H550 0.960 . S
C564 H551 0.960 . S
C564 C563 1.524 . S
C565 C562 1.403 . S
C565 C566 1.392 1_655 S
C565 C569 1.495 . S
C566 C565 1.392 1_455 S
C566 C567 1.385 . S
C566 C568 1.478 . S
C567 H561 0.930 . S
C567 C563 1.400 . S
C567 C566 1.385 . S
C568 C566 1.478 . S
C568 C570 1.381 . S
C568 C574 1.383 . S
C569 C565 1.495 . S
C569 H575 0.959 . S
C569 H576 0.961 . S
C569 H577 0.960 . S
C570 C568 1.381 . S
C570 C571 1.394 . S
C570 H578 0.930 . S
C571 C570 1.394 . S
C571 C572 1.383 . S
C571 H579 0.929 . S
C572 C571 1.383 . S
C572 C573 1.377 . S
C573 H557 0.930 . S
C573 C572 1.377 . S
C573 C574 1.379 . S
C574 H558 0.931 . S
C574 C568 1.383 . S
C574 C573 1.379 . S
H575 C569 0.959 . S
H576 C569 0.961 . S
H577 C569 0.960 . S
H578 C570 0.930 . S
H579 C571 0.929 . S
H580 C588 0.929 . S
H581 C590 0.930 . S
H582 C592 0.930 . S
H583 C595 0.929 . S
H584 C598 0.930 . S
H585 C600 0.960 . S
H586 C600 0.960 . S
H587 C600 0.960 . S
C588 H580 0.929 . S
C588 C589 1.377 . S
C588 C590 1.384 . S
C589 C588 1.377 . S
C589 C595 1.390 . S
C590 H581 0.930 . S
C590 C588 1.384 . S
C590 C591 1.372 . S
C591 C590 1.372 . S
C591 C592 1.400 . S
C591 C596 1.490 . S
C592 H582 0.930 . S
C592 C591 1.400 . S
C592 C595 1.386 . S
H593 C609 0.930 . S
H594 C610 0.931 . S
C595 H583 0.929 . S
C595 C589 1.390 . S
C595 C592 1.386 . S
C596 C591 1.490 . S
C596 C598 1.395 1_545 S
C596 C599 1.403 . S
H597 C603 0.930 . S
C598 H584 0.930 . S
C598 C596 1.395 1_565 S
C598 C601 1.403 . S
C599 C596 1.403 . S
C599 C600 1.524 . S
C599 C603 1.400 . S
C600 H585 0.960 . S
C600 H586 0.960 . S
C600 H587 0.960 . S
C600 C599 1.524 . S
C601 C598 1.403 . S
C601 C602 1.392 . S
C601 C605 1.495 . S
C602 C601 1.392 . S
C602 C603 1.385 1_565 S
C602 C604 1.478 . S
C603 H597 0.930 . S
C603 C599 1.400 . S
C603 C602 1.385 1_545 S
C604 C602 1.478 . S
C604 C606 1.381 . S
C604 C610 1.383 . S
C605 C601 1.495 . S
C605 H611 0.959 . S
C605 H612 0.961 . S
C605 H613 0.960 . S
C606 C604 1.381 . S
C606 C607 1.394 . S
C606 H614 0.930 . S
C607 C606 1.394 . S
C607 C608 1.383 . S
C607 H615 0.929 . S
C608 C607 1.383 . S
C608 C609 1.377 . S
C609 H593 0.930 . S
C609 C608 1.377 . S
C609 C610 1.379 . S
C610 H594 0.931 . S
C610 C604 1.383 . S
C610 C609 1.379 . S
H611 C605 0.959 . S
H612 C605 0.961 . S
H613 C605 0.960 . S
H614 C606 0.930 . S
H615 C607 0.929 . S
H616 C624 0.929 . S
H617 C626 0.930 . S
H618 C628 0.930 . S
H619 C631 0.929 . S
H620 C634 0.930 . S
H621 C636 0.960 . S
H622 C636 0.960 . S
H623 C636 0.960 . S
C624 H616 0.929 . S
C624 C625 1.377 . S
C624 C626 1.384 . S
C625 C624 1.377 . S
C625 C631 1.390 . S
C626 H617 0.930 . S
C626 C624 1.384 . S
C626 C627 1.372 . S
C627 C626 1.372 . S
C627 C628 1.400 . S
C627 C632 1.490 . S
C628 H618 0.930 . S
C628 C627 1.400 . S
C628 C631 1.386 . S
H629 C645 0.930 . S
H630 C646 0.931 . S
C631 H619 0.929 . S
C631 C625 1.390 . S
C631 C628 1.386 . S
C632 C627 1.490 . S
C632 C634 1.395 . S
C632 C635 1.403 . S
H633 C639 0.930 . S
C634 H620 0.930 . S
C634 C632 1.395 . S
C634 C637 1.403 1_545 S
C635 C632 1.403 . S
C635 C636 1.524 . S
C635 C639 1.400 1_545 S
C636 H621 0.960 . S
C636 H622 0.960 . S
C636 H623 0.960 . S
C636 C635 1.524 . S
C637 C634 1.403 1_565 S
C637 C638 1.392 . S
C637 C641 1.495 . S
C638 C637 1.392 . S
C638 C639 1.385 . S
C638 C640 1.478 . S
C639 H633 0.930 . S
C639 C635 1.400 1_565 S
C639 C638 1.385 . S
C640 C638 1.478 . S
C640 C642 1.381 . S
C640 C646 1.383 . S
C641 C637 1.495 . S
C641 H647 0.959 . S
C641 H648 0.961 . S
C641 H649 0.960 . S
C642 C640 1.381 . S
C642 C643 1.394 . S
C642 H650 0.930 . S
C643 C642 1.394 . S
C643 C644 1.383 . S
C643 H651 0.929 . S
C644 C643 1.383 . S
C644 C645 1.377 . S
C645 H629 0.930 . S
C645 C644 1.377 . S
C645 C646 1.379 . S
C646 H630 0.931 . S
C646 C640 1.383 . S
C646 C645 1.379 . S
H647 C641 0.959 . S
H648 C641 0.961 . S
H649 C641 0.960 . S
H650 C642 0.930 . S
H651 C643 0.929 . S
H652 C660 0.929 . S
H653 C662 0.930 . S
H654 C664 0.930 . S
H655 C667 0.929 . S
H656 C670 0.930 . S
H657 C672 0.960 . S
H658 C672 0.952 1_455 S
H659 C672 0.960 1_455 S
C660 H652 0.929 . S
C660 C661 1.377 . S
C660 C662 1.384 . S
C661 C660 1.377 . S
C661 C667 1.390 . S
C662 H653 0.930 . S
C662 C660 1.384 . S
C662 C663 1.372 . S
C663 C662 1.372 . S
C663 C664 1.400 . S
C663 C668 1.490 . S
C664 H654 0.930 . S
C664 C663 1.400 . S
C664 C667 1.386 . S
H665 C681 0.930 . S
H666 C682 0.931 . S
C667 H655 0.929 . S
C667 C661 1.390 . S
C667 C664 1.386 . S
C668 C663 1.490 . S
C668 C670 1.395 . S
C668 C671 1.403 1_455 S
H669 C675 0.930 . S
C670 H656 0.930 . S
C670 C668 1.395 . S
C670 C673 1.403 . S
C671 C668 1.403 1_655 S
C671 C672 1.524 . S
C671 C675 1.400 . S
C672 H657 0.960 . S
C672 H658 0.952 1_655 S
C672 H659 0.960 1_655 S
C672 C671 1.524 . S
C673 C670 1.403 . S
C673 C674 1.392 1_455 S
C673 C677 1.495 . S
C674 C673 1.392 1_655 S
C674 C675 1.385 . S
C674 C676 1.478 . S
C675 H669 0.930 . S
C675 C671 1.400 . S
C675 C674 1.385 . S
C676 C674 1.478 . S
C676 C678 1.381 . S
C676 C682 1.383 . S
C677 C673 1.495 . S
C677 H683 0.959 . S
C677 H684 0.961 . S
C677 H685 0.943 1_455 S
C678 C676 1.381 . S
C678 C679 1.394 . S
C678 H686 0.930 . S
C679 C678 1.394 . S
C679 C680 1.383 . S
C679 H687 0.929 . S
C680 C679 1.383 . S
C680 C681 1.377 . S
C681 H665 0.930 . S
C681 C680 1.377 . S
C681 C682 1.379 . S
C682 H666 0.931 . S
C682 C676 1.383 . S
C682 C681 1.379 . S
H683 C677 0.959 . S
H684 C677 0.961 . S
H685 C677 0.943 1_655 S
H686 C678 0.930 . S
H687 C679 0.929 . S
C121 C105 1.581 . S
C140 C7 1.579 . S
C157 C21 1.577 . S
C176 C63 1.569 . S
C193 C35 1.581 . S
C212 C77 1.576 . S
C229 C91 1.584 . S
C248 C49 1.553 . S
C265 C22 1.456 . S
C284 C6 1.450 . S
C301 C20 1.445 . S
C320 C36 1.462 . S
C337 C50 1.458 . S
C356 C34 1.458 . S
C373 C48 1.446 . S
C392 C8 1.465 . S
C409 C106 1.454 . S
C428 C62 1.446 . S
C445 C76 1.450 . S
C464 C64 1.456 . S
C481 C78 1.453 . S
C500 C90 1.458 . S
C517 C92 1.457 . S
C536 C104 1.456 . S
C553 C37 1.201 . S
C572 C9 1.154 . S
C589 C51 1.202 . S
C608 C23 1.219 . S
C625 C93 1.189 . S
C644 C65 1.202 . S
C661 C107 1.190 . S
C680 C79 1.214 . S
