# Generated by pormake.
# Topology umb, (4)-cn, num edge types: 1
# Building blocks:
#     Node 0, Type 0, BuildingBlock: MUDLON_clean_sbu_0, # of connection points: 4
#     Node 1, Type 0, BuildingBlock: MUDLON_clean_sbu_0, # of connection points: 4
#     Node 2, Type 0, BuildingBlock: MUDLON_clean_sbu_0, # of connection points: 4
#     Node 3, Type 0, BuildingBlock: MUDLON_clean_sbu_0, # of connection points: 4
#     Node 4, Type 0, BuildingBlock: MUDLON_clean_sbu_0, # of connection points: 4
#     Node 5, Type 0, BuildingBlock: MUDLON_clean_sbu_0, # of connection points: 4
#     Node 6, Type 0, BuildingBlock: MUDLON_clean_sbu_0, # of connection points: 4
#     Node 7, Type 0, BuildingBlock: MUDLON_clean_sbu_0, # of connection points: 4
#     Node 8, Type 0, BuildingBlock: MUDLON_clean_sbu_0, # of connection points: 4
#     Node 9, Type 0, BuildingBlock: MUDLON_clean_sbu_0, # of connection points: 4
#     Node 10, Type 0, BuildingBlock: MUDLON_clean_sbu_0, # of connection points: 4
#     Node 11, Type 0, BuildingBlock: MUDLON_clean_sbu_0, # of connection points: 4
#     Edge 12, Type (0, 0), BuildingBlock: XUDNAN_clean_linker_2, # of connection points: 2
#     Edge 13, Type (0, 0), BuildingBlock: XUDNAN_clean_linker_2, # of connection points: 2
#     Edge 14, Type (0, 0), BuildingBlock: XUDNAN_clean_linker_2, # of connection points: 2
#     Edge 15, Type (0, 0), BuildingBlock: XUDNAN_clean_linker_2, # of connection points: 2
#     Edge 16, Type (0, 0), BuildingBlock: XUDNAN_clean_linker_2, # of connection points: 2
#     Edge 17, Type (0, 0), BuildingBlock: XUDNAN_clean_linker_2, # of connection points: 2
#     Edge 18, Type (0, 0), BuildingBlock: XUDNAN_clean_linker_2, # of connection points: 2
#     Edge 19, Type (0, 0), BuildingBlock: XUDNAN_clean_linker_2, # of connection points: 2
#     Edge 20, Type (0, 0), BuildingBlock: XUDNAN_clean_linker_2, # of connection points: 2
#     Edge 21, Type (0, 0), BuildingBlock: XUDNAN_clean_linker_2, # of connection points: 2
#     Edge 22, Type (0, 0), BuildingBlock: XUDNAN_clean_linker_2, # of connection points: 2
#     Edge 23, Type (0, 0), BuildingBlock: XUDNAN_clean_linker_2, # of connection points: 2
#     Edge 24, Type (0, 0), BuildingBlock: XUDNAN_clean_linker_2, # of connection points: 2
#     Edge 25, Type (0, 0), BuildingBlock: XUDNAN_clean_linker_2, # of connection points: 2
#     Edge 26, Type (0, 0), BuildingBlock: XUDNAN_clean_linker_2, # of connection points: 2
#     Edge 27, Type (0, 0), BuildingBlock: XUDNAN_clean_linker_2, # of connection points: 2
#     Edge 28, Type (0, 0), BuildingBlock: XUDNAN_clean_linker_2, # of connection points: 2
#     Edge 29, Type (0, 0), BuildingBlock: XUDNAN_clean_linker_2, # of connection points: 2
#     Edge 30, Type (0, 0), BuildingBlock: XUDNAN_clean_linker_2, # of connection points: 2
#     Edge 31, Type (0, 0), BuildingBlock: XUDNAN_clean_linker_2, # of connection points: 2
#     Edge 32, Type (0, 0), BuildingBlock: XUDNAN_clean_linker_2, # of connection points: 2
#     Edge 33, Type (0, 0), BuildingBlock: XUDNAN_clean_linker_2, # of connection points: 2
#     Edge 34, Type (0, 0), BuildingBlock: XUDNAN_clean_linker_2, # of connection points: 2
#     Edge 35, Type (0, 0), BuildingBlock: XUDNAN_clean_linker_2, # of connection points: 2
# Relax obj value: 0.249
# Max RMSD: 0.216
# Mean RMSD: 0.216
data_MOF--net-umb--node1-MUDLON_clean_sbu_0--edge1-XUDNAN_clean_linker_2
_symmetry_space_group_name_H-M    P1
_symmetry_Int_Tables_number       1
_symmetry_cell_setting            triclinic
loop_
_symmetry_equiv_pos_as_xyz
'x, y, z'
_cell_length_a     48.948009
_cell_length_b     49.215156
_cell_length_c     39.645673
_cell_angle_alpha  89.756857
_cell_angle_beta   90.049667
_cell_angle_gamma 119.90568
loop_
_atom_site_label
_atom_site_type_symbol
_atom_site_fract_x
_atom_site_fract_y
_atom_site_fract_z
_atom_type_partial_charge
Mg0 Mg 0.54518 0.15499 0.35275 0.0
C1 C 0.60091 0.19729 0.30765 0.0
O2 O 0.58023 0.18495 0.28322 0.0
C3 C 0.5039 0.08613 0.33774 0.0
O4 O 0.48252 0.09081 0.35235 0.0
C5 C 0.51048 0.16695 0.29724 0.0
O6 O 0.51517 0.14558 0.28297 0.0
O7 O 0.51807 0.17376 0.32808 0.0
O8 O 0.59296 0.18693 0.33752 0.0
O9 O 0.549 0.15868 0.40778 0.0
C10 C 0.54438 0.13614 0.42729 0.0
O11 O 0.53288 0.10785 0.41477 0.0
O12 O 0.53188 0.10881 0.33478 0.0
Mg13 Mg 0.33432 0.51654 0.69623 0.0
C14 C 0.35994 0.51508 0.76336 0.0
O15 O 0.38438 0.52491 0.74322 0.0
C16 C 0.29241 0.48431 0.63638 0.0
O17 O 0.31568 0.4788 0.63111 0.0
C18 C 0.36964 0.48367 0.67905 0.0
O19 O 0.34652 0.46211 0.6973 0.0
O20 O 0.37021 0.50934 0.6732 0.0
O21 O 0.33276 0.50514 0.75023 0.0
O22 O 0.35206 0.56616 0.70145 0.0
C23 C 0.34002 0.57237 0.72657 0.0
O24 O 0.31652 0.54929 0.74288 0.0
O25 O 0.2923 0.49795 0.66362 0.0
Mg26 Mg 0.79802 0.35613 1.03322 0.0
C27 C 0.77553 0.40014 1.00337 0.0
O28 O 0.79682 0.40799 0.97955 0.0
C29 C 0.8577 0.41505 1.02718 0.0
O30 O 0.84242 0.42159 0.05003 0.0
C31 C 0.79205 0.30855 0.98184 0.0
O32 O 0.8223 0.32894 0.97956 0.0
O33 O 0.77585 0.31252 1.00438 0.0
O34 O 0.77145 0.37942 1.02511 0.0
O35 O 0.8015 0.35695 0.08834 0.0
C36 C 0.78089 0.35976 0.10521 0.0
O37 O 0.75505 0.35491 0.08987 0.0
O38 O 0.84455 0.38777 1.01456 0.0
Mg39 Mg 0.45379 0.8143 0.35884 0.0
C40 C 0.39371 0.76471 0.38437 0.0
O41 O 0.41452 0.76285 0.40373 0.0
C42 C 0.44372 0.8667 0.33448 0.0
O43 O 0.41625 0.84904 0.34901 0.0
C44 C 0.45817 0.76461 0.31771 0.0
O45 O 0.42933 0.74789 0.3294 0.0
O46 O 0.47509 0.79269 0.32796 0.0
O47 O 0.40339 0.78408 0.35995 0.0
O48 O 0.46269 0.82235 0.41332 0.0
C49 C 0.46393 0.84681 0.42565 0.0
O50 O 0.46822 0.86954 0.40503 0.0
O51 O 0.46388 0.8576 0.33432 0.0
Mg52 Mg 0.61363 0.46006 0.69718 0.0
C53 C 0.62189 0.448 0.77129 0.0
O54 O 0.63742 0.43535 0.7579 0.0
C55 C 0.64993 0.48353 0.63474 0.0
O56 O 0.62022 0.46862 0.62542 0.0
C57 C 0.54908 0.45007 0.68551 0.0
O58 O 0.54239 0.42551 0.70441 0.0
O59 O 0.57764 0.46903 0.67802 0.0
O60 O 0.61327 0.46337 0.75235 0.0
O61 O 0.59841 0.41129 0.68992 0.0
C62 C 0.62034 0.40473 0.68792 0.0
O63 O 0.64968 0.42776 0.68677 0.0
O64 O 0.65609 0.48598 0.66621 0.0
Mg65 Mg 0.14544 0.61939 1.02153 0.0
C66 C 0.20517 0.62298 1.01871 0.0
O67 O 0.21077 0.65113 1.027 0.0
C68 C 0.07578 0.58489 1.01733 0.0
O69 O 0.08036 0.60551 1.0408 0.0
C70 C 0.16742 0.65343 0.95889 0.0
O71 O 0.15621 0.62351 0.95267 0.0
O72 O 0.16522 0.6613 0.98898 0.0
O73 O 0.17709 0.60208 1.01221 0.0
O74 O 0.14496 0.61699 0.0772 0.0
C75 C 0.13725 0.5889 0.08534 0.0
O76 O 0.12908 0.56823 0.061 0.0
O77 O 0.09947 0.58553 1.00359 0.0
Mg78 Mg 0.8027 0.46311 0.39292 0.0
C79 C 0.79454 0.46924 0.31707 0.0
O80 O 0.76566 0.46169 0.3253 0.0
C81 C 0.76703 0.49215 0.43202 0.0
O82 O 0.74929 0.4863 0.40515 0.0
C83 C 0.8561 0.4506 0.39427 0.0
O84 O 0.84254 0.4373 0.36566 0.0
O85 O 0.84394 0.46319 0.41216 0.0
O86 O 0.81527 0.47788 0.34021 0.0
O87 O 0.76715 0.41442 0.38739 0.0
C88 C 0.73955 0.40709 0.378 0.0
O89 O 0.73096 0.42842 0.37797 0.0
O90 O 0.7899 0.48675 0.43143 0.0
Mg91 Mg 0.34858 0.81387 0.72004 0.0
C92 C 0.37493 0.77872 0.75807 0.0
O93 O 0.37241 0.79383 0.78404 0.0
C94 C 0.41119 0.86919 0.73117 0.0
O95 O 0.41789 0.85302 0.70975 0.0
C96 C 0.29098 0.76733 0.75934 0.0
O97 O 0.29921 0.74828 0.74543 0.0
O98 O 0.3055 0.79609 0.75051 0.0
O99 O 0.36694 0.7831 0.72901 0.0
O100 O 0.35069 0.82081 0.66516 0.0
C101 C 0.35707 0.80385 0.64612 0.0
O102 O 0.35638 0.77888 0.65899 0.0
O103 O 0.38286 0.85825 0.74068 0.0
Mg104 Mg 0.52978 0.34928 0.06618 0.0
C105 C 0.59093 0.40542 0.05173 0.0
O106 O 0.57154 0.4115 1.03469 0.0
C107 C 0.48757 0.37784 0.0667 0.0
O108 O 0.47646 0.36118 1.03911 0.0
C109 C 0.50732 0.31227 0.12943 0.0
O110 O 0.50661 0.33805 0.13598 0.0
O111 O 0.5157 0.30892 0.1 0.0
O112 O 0.57965 0.38089 0.07006 0.0
O113 O 0.52345 0.34441 1.01144 0.0
C114 C 0.54624 0.34752 0.99312 0.0
O115 O 0.56939 0.34554 1.0075 0.0
O116 O 0.50904 0.37638 0.08316 0.0
Mg117 Mg 0.14233 0.52524 0.39966 0.0
C118 C 0.14112 0.54468 0.32838 0.0
O119 O 0.13765 0.56537 0.34589 0.0
C120 C 0.15875 0.50017 0.46112 0.0
O121 O 0.14096 0.5105 0.47413 0.0
C122 C 0.07169 0.48971 0.39718 0.0
O123 O 0.07781 0.47981 0.369 0.0
O124 O 0.09442 0.50866 0.41563 0.0
O125 O 0.14362 0.52337 0.34426 0.0
O126 O 0.16943 0.57495 0.40938 0.0
C127 C 0.19138 0.58695 0.43101 0.0
O128 O 0.19653 0.5685 0.45073 0.0
O129 O 0.16288 0.50189 0.42922 0.0
Mg130 Mg 0.62035 0.15248 0.73711 0.0
C131 C 0.62314 0.21245 0.74068 0.0
O132 O 0.65277 0.21957 0.73851 0.0
C133 C 0.58691 0.08266 0.7454 0.0
O134 O 0.61068 0.08639 0.72667 0.0
C135 C 0.6553 0.1754 0.80059 0.0
O136 O 0.62606 0.167 0.80846 0.0
O137 O 0.66131 0.17112 0.77043 0.0
O138 O 0.60198 0.1838 0.74226 0.0
O139 O 0.62692 0.15356 0.6824 0.0
C140 C 0.60284 0.13551 0.66477 0.0
O141 O 0.57701 0.11483 0.68028 0.0
O142 O 0.5852 0.10657 0.75402 0.0
Mg143 Mg 0.45476 0.61456 0.05806 0.0
C144 C 0.39936 0.61935 0.06084 0.0
O145 O 0.42265 0.64782 0.05464 0.0
C146 C 0.44392 0.54979 0.06411 0.0
O147 O 0.41985 0.5447 0.04507 0.0
C148 C 0.46537 0.64644 0.12237 0.0
O149 O 0.44444 0.61685 0.12783 0.0
O150 O 0.47709 0.65442 0.09283 0.0
O151 O 0.40568 0.59765 0.06595 0.0
O152 O 0.45407 0.61947 1.00312 0.0
C153 C 0.45727 0.60108 0.98303 0.0
O154 O 0.46956 0.58444 0.99441 0.0
O155 O 0.46336 0.57755 0.07327 0.0
H156 H 0.52697 0.09456 0.48035 0.0
H157 H 0.58931 0.19209 0.45362 0.0
H158 H 0.61313 0.20185 0.51039 0.0
H159 H 0.51333 0.10998 0.56648 0.0
H160 H 0.51174 0.07506 0.58306 0.0
H161 H 0.50004 0.0759 0.54017 0.0
H162 H 0.54029 0.06001 0.51941 0.0
H163 H 0.55243 0.05957 0.56222 0.0
H164 H 0.5812 0.08359 0.53093 0.0
H165 H 0.63217 0.2003 0.56944 0.0
H166 H 0.63949 0.18942 0.62876 0.0
H167 H 0.56267 0.09384 0.6181 0.0
C168 C 0.5455 0.11801 0.48653 0.0
C169 C 0.55632 0.14254 0.46247 0.0
C170 C 0.58048 0.17295 0.47164 0.0
C171 C 0.59435 0.17868 0.50377 0.0
C172 C 0.58353 0.15388 0.52669 0.0
C173 C 0.55922 0.12429 0.51871 0.0
C174 C 0.5511 0.10202 0.54839 0.0
C175 C 0.51704 0.09005 0.56023 0.0
C176 C 0.55659 0.07468 0.53971 0.0
C177 C 0.57476 0.12363 0.57422 0.0
C178 C 0.59357 0.15333 0.56106 0.0
C179 C 0.61744 0.17716 0.58006 0.0
C180 C 0.62161 0.17071 0.61365 0.0
C181 C 0.60169 0.1408 0.62806 0.0
C182 C 0.57827 0.11694 0.60781 0.0
H183 H 0.40866 0.52004 0.8016 0.0
H184 H 0.32589 0.5305 0.80641 0.0
H185 H 0.34287 0.55552 0.86235 0.0
H186 H 0.40903 0.50215 0.89231 0.0
H187 H 0.45148 0.52276 0.89407 0.0
H188 H 0.43159 0.50433 0.85544 0.0
H189 H 0.46375 0.55738 0.82416 0.0
H190 H 0.48318 0.57616 0.86283 0.0
H191 H 0.46226 0.59123 0.83888 0.0
H192 H 0.37237 0.58477 0.9151 0.0
H193 H 0.40636 0.60692 0.96519 0.0
H194 H 0.46805 0.57407 0.92779 0.0
C195 C 0.3937 0.52689 0.81482 0.0
C196 C 0.3659 0.52327 0.79964 0.0
C197 C 0.34707 0.53271 0.81763 0.0
C198 C 0.35672 0.54723 0.84931 0.0
C199 C 0.3849 0.55152 0.86297 0.0
C200 C 0.40264 0.54079 0.8467 0.0
C201 C 0.4318 0.54794 0.86691 0.0
C202 C 0.43091 0.51748 0.87784 0.0
C203 C 0.46203 0.56945 0.847 0.0
C204 C 0.42805 0.56485 0.89686 0.0
C205 C 0.40108 0.56708 0.89389 0.0
C206 C 0.3933 0.58278 0.91785 0.0
C207 C 0.41299 0.59561 0.94607 0.0
C208 C 0.43996 0.59231 0.95044 0.0
C209 C 0.44764 0.57699 0.9252 0.0
H210 H 0.75207 0.43935 0.26604 0.0
H211 H 0.84967 0.47376 0.29396 0.0
H212 H 0.85652 0.44823 0.24369 0.0
H213 H 0.73613 0.36524 0.23881 0.0
H214 H 0.71129 0.36261 0.20392 0.0
H215 H 0.71427 0.38579 0.2402 0.0
H216 H 0.73171 0.435 0.20296 0.0
H217 H 0.72748 0.41172 0.16633 0.0
H218 H 0.76432 0.44706 0.17422 0.0
H219 H 0.85168 0.41597 0.19178 0.0
H220 H 0.83701 0.38424 0.13975 0.0
H221 H 0.74252 0.37081 0.14646 0.0
C222 C 0.77514 0.4422 0.26126 0.0
C223 C 0.80039 0.45883 0.284 0.0
C224 C 0.83 0.46143 0.27688 0.0
C225 C 0.83408 0.44681 0.24846 0.0
C226 C 0.80837 0.42972 0.22726 0.0
C227 C 0.7796 0.42776 0.23307 0.0
C228 C 0.7555 0.40739 0.20691 0.0
C229 C 0.72767 0.37854 0.22346 0.0
C230 C 0.7441 0.42645 0.18639 0.0
C231 C 0.77516 0.39815 0.18548 0.0
C232 C 0.80556 0.41112 0.19768 0.0
C233 C 0.82796 0.40581 0.18197 0.0
C234 C 0.81934 0.38754 0.15252 0.0
C235 C 0.78857 0.37485 0.13897 0.0
C236 C 0.76618 0.37995 0.15616 0.0
H237 H 0.43507 0.79725 0.47075 0.0
H238 H 0.46689 0.89642 0.4593 0.0
H239 H 0.44134 0.8956 0.51309 0.0
H240 H 0.35996 0.77542 0.50504 0.0
H241 H 0.35929 0.7471 0.53448 0.0
H242 H 0.38152 0.75547 0.49587 0.0
H243 H 0.43208 0.76937 0.52973 0.0
H244 H 0.4099 0.76052 0.5684 0.0
H245 H 0.4447 0.79831 0.56266 0.0
H246 H 0.40938 0.88352 0.56624 0.0
H247 H 0.37891 0.86243 0.61886 0.0
H248 H 0.36848 0.77136 0.59697 0.0
C249 C 0.4373 0.81896 0.47992 0.0
C250 C 0.45319 0.84696 0.46071 0.0
C251 C 0.455 0.87469 0.47348 0.0
C252 C 0.44039 0.87445 0.50399 0.0
C253 C 0.42405 0.84631 0.52169 0.0
C254 C 0.42283 0.81916 0.51047 0.0
C255 C 0.40345 0.79202 0.53432 0.0
C256 C 0.37434 0.76597 0.51635 0.0
C257 C 0.42375 0.77932 0.54969 0.0
C258 C 0.39411 0.80821 0.56069 0.0
C259 C 0.40595 0.83944 0.55267 0.0
C260 C 0.40014 0.85914 0.57291 0.0
C261 C 0.38258 0.84686 0.60266 0.0
C262 C 0.37122 0.81522 0.61216 0.0
C263 C 0.37676 0.79563 0.59048 0.0
H264 H 0.59295 0.35822 0.94763 0.0
H265 H 0.5107 0.36879 0.96093 0.0
H266 H 0.52286 0.39817 0.9072 0.0
H267 H 0.64331 0.43389 0.91246 0.0
H268 H 0.66206 0.42057 0.88296 0.0
H269 H 0.64652 0.39976 0.92209 0.0
H270 H 0.61214 0.34824 0.88916 0.0
H271 H 0.62789 0.3689 0.85002 0.0
H272 H 0.58588 0.34741 0.85674 0.0
H273 H 0.54573 0.42902 0.85327 0.0
H274 H 0.57323 0.45258 0.79967 0.0
H275 H 0.63964 0.42053 0.82068 0.0
C276 C 0.57717 0.36626 0.93904 0.0
C277 C 0.55074 0.361 0.95856 0.0
C278 C 0.53091 0.37221 0.9464 0.0
C279 C 0.53778 0.38919 0.916 0.0
C280 C 0.56447 0.39465 0.89787 0.0
C281 C 0.58355 0.38306 0.90865 0.0
C282 C 0.61058 0.39182 0.88427 0.0
C283 C 0.6425 0.41275 0.90148 0.0
C284 C 0.60901 0.36234 0.86915 0.0
C285 C 0.60364 0.41 0.85795 0.0
C286 C 0.57721 0.41177 0.86652 0.0
C287 C 0.56635 0.42763 0.84624 0.0
C288 C 0.58231 0.44117 0.81592 0.0
C289 C 0.60865 0.43848 0.80587 0.0
C290 C 0.61964 0.42309 0.8276 0.0
H291 H 0.14172 0.59085 0.28844 0.0
H292 H 0.14214 0.50295 0.28325 0.0
H293 H 0.14231 0.50587 0.22097 0.0
H294 H 0.09061 0.57726 0.21807 0.0
H295 H 0.11129 0.6173 0.20338 0.0
H296 H 0.11181 0.60874 0.24752 0.0
H297 H 0.17283 0.63891 0.24676 0.0
H298 H 0.17252 0.64759 0.20261 0.0
H299 H 0.1934 0.62812 0.21677 0.0
H300 H 0.14072 0.51728 0.15985 0.0
H301 H 0.13865 0.53647 0.10327 0.0
H302 H 0.14043 0.6182 0.14677 0.0
C303 C 0.14192 0.5722 0.27426 0.0
C304 C 0.14187 0.54656 0.29087 0.0
C305 C 0.14221 0.52278 0.27123 0.0
C306 C 0.1423 0.52427 0.23582 0.0
C307 C 0.14222 0.54977 0.22035 0.0
C308 C 0.14218 0.57341 0.23888 0.0
C309 C 0.14199 0.59816 0.21588 0.0
C310 C 0.11215 0.60049 0.22156 0.0
C311 C 0.17198 0.63009 0.2208 0.0
C312 C 0.14165 0.58461 0.18143 0.0
C313 C 0.14176 0.55665 0.1848 0.0
C314 C 0.14075 0.53917 0.15693 0.0
C315 C 0.13947 0.55034 0.12479 0.0
C316 C 0.13932 0.57892 0.12035 0.0
C317 C 0.14069 0.59641 0.14921 0.0
H318 H 0.73155 0.3494 0.3928 0.0
H319 H 0.70617 0.39955 0.32072 0.0
H320 H 0.67693 0.35131 0.28712 0.0
H321 H 0.73651 0.29393 0.33271 0.0
H322 H 0.71825 0.2617 0.36215 0.0
H323 H 0.74196 0.30121 0.37742 0.0
H324 H 0.69526 0.29503 0.41408 0.0
H325 H 0.67187 0.25545 0.39951 0.0
H326 H 0.65767 0.2827 0.3944 0.0
H327 H 0.64745 0.29762 0.26383 0.0
H328 H 0.6106 0.24087 0.25929 0.0
H329 H 0.65271 0.22473 0.34791 0.0
C330 C 0.72015 0.35016 0.36967 0.0
C331 C 0.72096 0.37793 0.35922 0.0
C332 C 0.70546 0.37826 0.32922 0.0
C333 C 0.68934 0.35119 0.30967 0.0
C334 C 0.68893 0.32405 0.32057 0.0
C335 C 0.70341 0.32317 0.35022 0.0
C336 C 0.69533 0.29008 0.35907 0.0
C337 C 0.72477 0.28654 0.35775 0.0
C338 C 0.67905 0.28024 0.39379 0.0
C339 C 0.67288 0.27236 0.33062 0.0
C340 C 0.67052 0.2925 0.30794 0.0
C341 C 0.64934 0.28157 0.28112 0.0
C342 C 0.62861 0.24924 0.27862 0.0
C343 C 0.62885 0.22853 0.30334 0.0
C344 C 0.65232 0.24011 0.32853 0.0
H345 H 0.39023 0.7499 0.70947 0.0
H346 H 0.37268 0.7483 0.81689 0.0
H347 H 0.37136 0.69767 0.82184 0.0
H348 H 0.33769 0.67596 0.69425 0.0
H349 H 0.35963 0.66774 0.66343 0.0
H350 H 0.36788 0.70725 0.66932 0.0
H351 H 0.42652 0.72553 0.68144 0.0
H352 H 0.41867 0.68603 0.67494 0.0
H353 H 0.43655 0.70608 0.71369 0.0
H354 H 0.35893 0.64307 0.81284 0.0
H355 H 0.34096 0.58984 0.7915 0.0
H356 H 0.36794 0.62679 0.68999 0.0
C357 C 0.38734 0.73946 0.73426 0.0
C358 C 0.3815 0.75286 0.7628 0.0
C359 C 0.37744 0.73849 0.79477 0.0
C360 C 0.37669 0.70975 0.7978 0.0
C361 C 0.38068 0.69621 0.76875 0.0
C362 C 0.38664 0.71092 0.73766 0.0
C363 C 0.386 0.68978 0.70967 0.0
C364 C 0.36133 0.6849 0.68262 0.0
C365 C 0.4189 0.70262 0.69402 0.0
C366 C 0.37645 0.66009 0.7295 0.0
C367 C 0.37406 0.66446 0.76362 0.0
C368 C 0.36167 0.63955 0.78641 0.0
C369 C 0.35122 0.6094 0.774 0.0
C370 C 0.35332 0.60448 0.73918 0.0
C371 C 0.36678 0.63018 0.71682 0.0
H372 H 0.63877 0.40943 0.08988 0.0
H373 H 0.61796 0.43483 0.99235 0.0
H374 H 0.67076 0.44803 0.972 0.0
H375 H 0.72859 0.46816 0.08751 0.0
H376 H 0.73629 0.43989 0.10792 0.0
H377 H 0.70124 0.44145 0.11837 0.0
H378 H 0.66668 0.3827 0.10403 0.0
H379 H 0.70123 0.38065 0.09383 0.0
H380 H 0.67023 0.36894 0.06306 0.0
H381 H 0.71878 0.4447 0.958 0.0
H382 H 0.75861 0.42779 0.95321 0.0
H383 H 0.74829 0.40561 0.06001 0.0
C384 C 0.646 0.41921 0.06479 0.0
C385 C 0.62456 0.42134 1.04278 0.0
C386 C 0.63432 0.43357 1.00983 0.0
C387 C 0.66427 0.44108 0.99802 0.0
C388 C 0.6843 0.4369 1.01974 0.0
C389 C 0.67583 0.42699 0.05279 0.0
C390 C 0.69932 0.41991 0.06957 0.0
C391 C 0.71743 0.44379 0.09749 0.0
C392 C 0.6834 0.38605 0.08337 0.0
C393 C 0.72054 0.42443 1.03993 0.0
C394 C 0.71225 0.43517 1.01164 0.0
C395 C 0.72617 0.43726 0.98024 0.0
C396 C 0.74863 0.42751 0.97767 0.0
C397 C 0.75624 0.41528 1.0062 0.0
C398 C 0.74283 0.41486 1.03777 0.0
H399 H 0.36703 0.72075 0.43391 0.0
H400 H 0.34402 0.7635 0.35081 0.0
H401 H 0.28731 0.72791 0.36173 0.0
H402 H 0.31194 0.64524 0.41573 0.0
H403 H 0.30283 0.63212 0.45891 0.0
H404 H 0.34086 0.66458 0.4484 0.0
H405 H 0.33251 0.69845 0.49208 0.0
H406 H 0.29377 0.66664 0.50223 0.0
H407 H 0.29881 0.70392 0.48878 0.0
H408 H 0.2342 0.68329 0.37631 0.0
H409 H 0.18947 0.6312 0.39048 0.0
H410 H 0.24745 0.61795 0.46423 0.0
C411 C 0.3501 0.7231 0.41839 0.0
C412 C 0.35985 0.74483 0.39151 0.0
C413 C 0.33699 0.74696 0.37155 0.0
C414 C 0.30477 0.72706 0.37777 0.0
C415 C 0.29594 0.7055 0.40419 0.0
C416 C 0.318 0.70345 0.42419 0.0
C417 C 0.30274 0.67588 0.44817 0.0
C418 C 0.31533 0.65312 0.44242 0.0
C419 C 0.30721 0.68691 0.485 0.0
C420 C 0.26874 0.66174 0.43741 0.0
C421 C 0.26517 0.67957 0.41259 0.0
C422 C 0.23654 0.66946 0.39619 0.0
C423 C 0.21128 0.6398 0.40439 0.0
C424 C 0.21503 0.62054 0.42846 0.0
C425 C 0.24372 0.6323 0.4461 0.0
H426 H 0.6624 0.38618 0.70457 0.0
H427 H 0.56292 0.35054 0.68557 0.0
H428 H 0.55179 0.29701 0.70033 0.0
H429 H 0.66745 0.32169 0.67185 0.0
H430 H 0.69447 0.32366 0.70397 0.0
H431 H 0.69392 0.35859 0.69157 0.0
H432 H 0.68456 0.36768 0.75391 0.0
H433 H 0.68458 0.33246 0.76644 0.0
H434 H 0.65135 0.33728 0.77651 0.0
H435 H 0.55217 0.2473 0.71691 0.0
H436 H 0.56435 0.20543 0.73093 0.0
H437 H 0.66336 0.27533 0.74047 0.0
C438 C 0.63828 0.36712 0.7031 0.0
C439 C 0.61353 0.37239 0.69366 0.0
C440 C 0.58224 0.34689 0.6926 0.0
C441 C 0.57569 0.3165 0.70109 0.0
C442 C 0.60068 0.31227 0.7109 0.0
C443 C 0.63133 0.33693 0.71187 0.0
C444 C 0.65404 0.32648 0.72336 0.0
C445 C 0.67892 0.33298 0.69605 0.0
C446 C 0.66954 0.34189 0.75706 0.0
C447 C 0.63156 0.29185 0.72779 0.0
C448 C 0.60082 0.28404 0.72088 0.0
C449 C 0.57613 0.25316 0.72251 0.0
C450 C 0.58325 0.22959 0.7306 0.0
C451 C 0.61481 0.23719 0.7367 0.0
C452 C 0.63901 0.26878 0.73594 0.0
H453 H 0.26755 0.66387 1.0264 0.0
H454 H 0.19957 0.5646 1.01826 0.0
H455 H 0.24192 0.5522 1.02965 0.0
H456 H 0.33276 0.66117 0.98713 0.0
H457 H 0.36133 0.69049 1.01491 0.0
H458 H 0.32571 0.69089 1.0046 0.0
H459 H 0.31313 0.68924 0.0684 0.0
H460 H 0.34843 0.68829 0.07889 0.0
H461 H 0.31078 0.65794 0.09429 0.0
H462 H 0.29177 0.55112 0.0447 0.0
H463 H 0.34575 0.56162 0.05718 0.0
H464 H 0.37941 0.66162 0.05559 0.0
C465 C 0.26155 0.6395 1.02665 0.0
C466 C 0.23039 0.61518 1.0215 0.0
C467 C 0.22345 0.58359 1.02198 0.0
C468 C 0.24725 0.57633 1.02861 0.0
C469 C 0.27766 0.60097 1.0345 0.0
C470 C 0.28485 0.63191 1.03317 0.0
C471 C 0.31915 0.65416 1.04057 0.0
C472 C 0.33571 0.67542 1.00998 0.0
C473 C 0.32308 0.67354 0.07243 0.0
C474 C 0.33022 0.63093 0.04645 0.0
C475 C 0.30604 0.60036 1.04301 0.0
C476 C 0.31091 0.57497 0.04736 0.0
C477 C 0.34153 0.58115 0.05463 0.0
C478 C 0.36665 0.61243 0.05729 0.0
C479 C 0.36068 0.63747 0.05365 0.0
H480 H 0.45145 0.03014 0.3535 0.0
H481 H 0.53967 0.07073 0.29806 0.0
H482 H 0.52966 0.01775 0.28428 0.0
H483 H 0.45884 0.97124 0.39166 0.0
H484 H 0.41772 0.94181 0.3898 0.0
H485 H 0.42907 0.98261 0.39065 0.0
H486 H 0.39813 0.97597 0.33531 0.0
H487 H 0.38662 0.93501 0.33431 0.0
H488 H 0.40655 0.95988 0.29861 0.0
H489 H 0.51401 0.96141 0.28295 0.0
H490 H 0.4939 0.90531 0.29469 0.0
H491 H 0.4156 0.90098 0.35057 0.0
C492 C 0.46824 0.02787 0.33772 0.0
C493 C 0.49626 0.05451 0.32674 0.0
C494 C 0.51802 0.05061 0.30674 0.0
C495 C 0.51246 0.02062 0.2986 0.0
C496 C 0.48497 -0.00519 0.31049 0.0
C497 C 0.46312 -0.00191 0.32949 0.0
C498 C 0.43711 0.96663 0.34199 0.0
C499 C 0.43563 0.96553 0.38081 0.0
C500 C 0.40521 0.95892 0.32662 0.0
C501 C 0.44844 0.94534 0.32818 0.0
C502 C 0.47583 0.96201 0.30964 0.0
C503 C 0.49225 0.94795 0.29684 0.0
C504 C 0.48071 0.91613 0.30373 0.0
C505 C 0.45309 0.8988 0.32332 0.0
C506 C 0.43641 0.91348 0.33495 0.0
H507 H 0.38174 0.43764 0.69956 0.0
H508 H 0.41913 0.52179 0.63787 0.0
H509 H 0.46739 0.51892 0.62766 0.0
H510 H 0.45108 0.45714 0.74061 0.0
H511 H 0.4453 0.41801 0.74237 0.0
H512 H 0.41179 0.42371 0.74054 0.0
H513 H 0.39151 0.38883 0.68728 0.0
H514 H 0.42491 0.38279 0.68907 0.0
H515 H 0.41706 0.39806 0.65116 0.0
H516 H 0.51377 0.51052 0.62974 0.0
H517 H 0.55473 0.49698 0.64357 0.0
H518 H 0.487 0.41854 0.70425 0.0
C519 C 0.39969 0.45501 0.68316 0.0
C520 C 0.39664 0.47985 0.66937 0.0
C521 C 0.42095 0.50247 0.6486 0.0
C522 C 0.4484 0.501 0.64258 0.0
C523 C 0.45104 0.47668 0.65737 0.0
C524 C 0.42725 0.45396 0.67705 0.0
C525 C 0.43701 0.43193 0.69249 0.0
C526 C 0.43626 0.43278 0.73129 0.0
C527 C 0.4164 0.39842 0.67919 0.0
C528 C 0.47038 0.4464 0.6793 0.0
C529 C 0.4779 0.47194 0.65874 0.0
C530 C 0.50802 0.49028 0.64537 0.0
C531 C 0.53115 0.48247 0.65348 0.0
C532 C 0.52402 0.45665 0.67492 0.0
C533 C 0.49309 0.43819 0.6875 0.0
H534 H 0.89386 0.47324 0.05414 0.0
H535 H 0.89453 0.41034 0.97809 0.0
H536 H 0.94951 0.44943 0.9636 0.0
H537 H 0.94339 0.54671 1.00833 0.0
H538 H 0.96317 0.56735 0.04616 0.0
H539 H 0.923 0.53565 0.04824 0.0
H540 H 0.93893 0.50767 0.09316 0.0
H541 H 0.97908 0.53922 0.09124 0.0
H542 H 0.97018 0.49952 0.08386 0.0
H543 H 0.00541 0.49361 0.96045 0.0
H544 H 0.05846 0.53908 0.96965 0.0
H545 H 0.02075 0.57269 0.04787 0.0
C546 C 0.90537 0.46782 1.03408 0.0
C547 C 0.88994 0.43881 1.01717 0.0
C548 C 0.90594 0.43247 0.99135 0.0
C549 C 0.9371 0.45456 0.98286 0.0
C550 C 0.95174 0.48281 1.00034 0.0
C551 C 0.93639 0.4895 1.02537 0.0
C552 C 0.95795 0.52066 1.04184 0.0
C553 C 0.94617 0.54397 1.03576 0.0
C554 C 0.96176 0.5165 0.07976 0.0
C555 C -0.01191 0.53016 1.02268 0.0
C556 C -0.01604 0.5082 0.99861 0.0
C557 C 0.00887 0.51114 0.97896 0.0
C558 C 0.03889 0.53702 0.98441 0.0
C559 C 0.04369 0.55945 1.00943 0.0
C560 C 0.01779 0.55613 1.02835 0.0
H561 H 0.01898 0.45794 0.35813 0.0
H562 H 0.05073 0.50278 0.45557 0.0
H563 H -0.00298 0.49264 0.46791 0.0
H564 H 0.97149 0.48971 0.3392 0.0
H565 H 0.94096 0.45539 0.31854 0.0
H566 H -0.0193 0.46242 0.31916 0.0
H567 H 0.96133 0.40785 0.34645 0.0
H568 H 0.92142 0.40059 0.3458 0.0
H569 H 0.93864 0.3977 0.3849 0.0
H570 H 0.94159 0.48259 0.46719 0.0
H571 H 0.88843 0.47336 0.45342 0.0
H572 H 0.893 0.43506 0.35649 0.0
C573 C 0.01451 0.46503 0.38238 0.0
C574 C 0.03901 0.48105 0.40594 0.0
C575 C 0.0323 0.49041 0.43715 0.0
C576 C 0.00185 0.48466 0.44445 0.0
C577 C 0.97839 0.4694 0.42034 0.0
C578 C -0.01569 0.45957 0.39001 0.0
C579 C 0.95564 0.44585 0.36736 0.0
C580 C 0.96263 0.46446 0.33412 0.0
C581 C 0.94354 0.41092 0.36075 0.0
C582 C 0.93294 0.45035 0.3893 0.0
C583 C 0.94638 0.46364 0.41992 0.0
C584 C 0.93064 0.47177 0.44351 0.0
C585 C 0.9005 0.46652 0.43542 0.0
C586 C 0.88653 0.45338 0.40394 0.0
C587 C 0.90286 0.44477 0.38092 0.0
H588 H 0.57521 0.0271 0.71763 0.0
H589 H 0.53869 0.06704 0.78998 0.0
H590 H 0.49168 0.01499 0.79847 0.0
H591 H 0.50409 0.97913 0.67819 0.0
H592 H 0.51097 0.94688 0.67106 0.0
H593 H 0.54378 -0.01388 0.67418 0.0
H594 H 0.56752 0.96869 0.72243 0.0
H595 H 0.53481 0.92925 0.71931 0.0
H596 H 0.54396 0.9494 0.75916 0.0
H597 H 0.44638 0.96032 0.79453 0.0
H598 H 0.40601 0.9066 0.77867 0.0
H599 H 0.47204 0.9025 0.70867 0.0
C600 C 0.55772 0.02476 0.7359 0.0
C601 C 0.56064 0.05104 0.75327 0.0
C602 C 0.53693 0.04716 0.77644 0.0
C603 C 0.51021 0.01769 0.78153 0.0
C604 C 0.50766 -0.00761 0.76334 0.0
C605 C 0.53084 -0.00443 0.74112 0.0
C606 C 0.52118 0.96529 0.7226 0.0
C607 C 0.51992 0.96963 0.68425 0.0
C608 C 0.54318 0.9524 0.73142 0.0
C609 C 0.4886 0.94486 0.7372 0.0
C610 C 0.48137 0.96081 0.76092 0.0
C611 C 0.4519 0.94741 0.77636 0.0
C612 C 0.42911 0.91695 0.76709 0.0
C613 C 0.43593 0.90036 0.74252 0.0
C614 C 0.46622 0.91444 0.7278 0.0
H615 H 0.42291 0.49429 1.03123 0.0
H616 H 0.47748 0.54732 0.11777 0.0
H617 H 0.48882 0.50501 0.13193 0.0
H618 H 0.39112 0.41489 0.06819 0.0
H619 H 0.39532 0.39872 1.02911 0.0
H620 H 0.38767 0.43096 1.02852 0.0
H621 H 0.43746 0.46334 0.99172 0.0
H622 H 0.44521 0.43126 0.99216 0.0
H623 H 0.47499 0.46945 1.00634 0.0
H624 H 0.49778 0.45963 0.13405 0.0
H625 H 0.50709 0.41589 0.12192 0.0
H626 H 0.44818 0.39307 1.03271 0.0
C627 C 0.43662 0.49661 0.05359 0.0
C628 C 0.4491 0.52381 0.07364 0.0
C629 C 0.46768 0.52654 0.10217 0.0
C630 C 0.47404 0.50258 0.11053 0.0
C631 C 0.46175 0.47621 0.08998 0.0
C632 C 0.44357 0.47313 0.06199 0.0
C633 C 0.43606 0.44404 1.0421 0.0
C634 C 0.40042 0.42077 1.04199 0.0
C635 C 0.44923 0.45255 1.00596 0.0
C636 C 0.45355 0.4317 0.0628 0.0
C637 C 0.46769 0.45029 0.09065 0.0
C638 C 0.48657 0.44468 0.11255 0.0
C639 C 0.49174 0.41979 0.10539 0.0
C640 C 0.47837 0.40108 0.07635 0.0
C641 C 0.45848 0.40676 0.05526 0.0
H642 H 0.51709 0.17559 0.22884 0.0
H643 H 0.48673 0.20416 0.31802 0.0
H644 H 0.47812 0.24108 0.28322 0.0
H645 H 0.56113 0.25096 0.19447 0.0
H646 H 0.55179 0.23906 0.15109 0.0
H647 H 0.55166 0.21206 0.18192 0.0
H648 H 0.49411 0.17156 0.16613 0.0
H649 H 0.49406 0.19839 0.13507 0.0
H650 H 0.46427 0.18281 0.16751 0.0
H651 H 0.47642 0.27726 0.23978 0.0
H652 H 0.48336 0.31172 0.19154 0.0
H653 H 0.51671 0.26115 0.13033 0.0
C654 C 0.50784 0.18901 0.24093 0.0
C655 C 0.5021 0.18666 0.27612 0.0
C656 C 0.49099 0.20538 0.29111 0.0
C657 C 0.48599 0.22635 0.27152 0.0
C658 C 0.49243 0.22849 0.23701 0.0
C659 C 0.50317 0.21037 0.22183 0.0
C660 C 0.51086 0.21908 0.18487 0.0
C661 C 0.54594 0.231 0.17768 0.0
C662 C 0.48955 0.1913 0.16205 0.0
C663 C 0.50315 0.24524 0.18169 0.0
C664 C 0.49223 0.25 0.21202 0.0
C665 C 0.48471 0.27359 0.21587 0.0
C666 C 0.48882 0.29311 0.18823 0.0
C667 C 0.50055 0.28919 0.15701 0.0
C668 C 0.50739 0.26458 0.15368 0.0
H669 H 0.17075 0.51296 0.52847 0.0
H670 H 0.18844 0.467 0.44504 0.0
H671 H 0.22069 0.45388 0.48262 0.0
H672 H 0.2478 0.5484 0.56179 0.0
H673 H 0.23562 0.54424 0.6053 0.0
H674 H 0.21149 0.54721 0.57285 0.0
H675 H 0.16388 0.49486 0.59309 0.0
H676 H 0.1879 0.4917 0.62561 0.0
H677 H 0.16758 0.46027 0.59589 0.0
H678 H 0.25295 0.44797 0.52859 0.0
H679 H 0.28546 0.45238 0.57796 0.0
H680 H 0.2483 0.50382 0.63139 0.0
C681 C 0.18092 0.49962 0.5182 0.0
C682 C 0.17674 0.49066 0.48382 0.0
C683 C 0.19114 0.47395 0.47127 0.0
C684 C 0.20942 0.46632 0.49248 0.0
C685 C 0.21326 0.47575 0.52615 0.0
C686 C 0.19954 0.49219 0.53889 0.0
C687 C 0.2092 0.50159 0.5753 0.0
C688 C 0.22709 0.53748 0.57901 0.0
C689 C 0.18042 0.48618 0.59886 0.0
C690 C 0.23079 0.48815 0.58102 0.0
C691 C 0.23248 0.47303 0.55244 0.0
C692 C 0.25167 0.45962 0.55113 0.0
C693 C 0.27008 0.46227 0.57941 0.0
C694 C 0.26949 0.4784 0.60873 0.0
C695 C 0.24908 0.49103 0.6096 0.0
H696 H 0.72851 0.27023 0.97037 0.0
H697 H 0.82067 0.29307 0.93227 0.0
H698 H 0.7956 0.25827 0.88363 0.0
H699 H 0.68626 0.18741 0.94222 0.0
H700 H 0.65132 0.18902 0.93137 0.0
H701 H 0.67638 0.21294 0.96509 0.0
H702 H 0.68177 0.26248 0.9356 0.0
H703 H 0.65695 0.23879 0.90174 0.0
H704 H 0.69577 0.27105 0.89267 0.0
H705 H 0.76069 0.2251 0.83594 0.0
H706 H 0.71853 0.19498 0.7944 0.0
H707 H 0.64944 0.19359 0.86401 0.0
C708 C 0.7434 0.26734 0.95227 0.0
C709 C 0.7766 0.28434 0.95531 0.0
C710 C 0.7952 0.28026 0.93063 0.0
C711 C 0.78117 0.2605 0.90286 0.0
C712 C 0.74844 0.24477 0.90013 0.0
C713 C 0.72978 0.24773 0.92434 0.0
C714 C 0.69531 0.22976 0.91446 0.0
C715 C 0.67619 0.2032 0.93979 0.0
C716 C 0.68167 0.25184 0.9109 0.0
C717 C 0.6976 0.21689 0.88057 0.0
C718 C 0.7284 0.2256 0.8728 0.0
C719 C 0.73642 0.21778 0.84199 0.0
C720 C 0.71234 0.20072 0.8185 0.0
C721 C 0.68064 0.19172 0.82594 0.0
C722 C 0.67335 0.19976 0.85759 0.0
H723 H 0.43404 0.63644 0.18189 0.0
H724 H 0.51232 0.70882 0.12486 0.0
H725 H 0.52213 0.74664 0.17097 0.0
H726 H 0.40504 0.68468 0.21157 0.0
H727 H 0.39293 0.66527 0.25194 0.0
H728 H 0.39414 0.64401 0.21571 0.0
H729 H 0.4312 0.62935 0.24777 0.0
H730 H 0.43022 0.6507 0.2841 0.0
H731 H 0.46746 0.65996 0.26544 0.0
H732 H 0.52178 0.77684 0.2239 0.0
H733 H 0.50916 0.79695 0.27529 0.0
H734 H 0.43012 0.70416 0.29539 0.0
C735 C 0.45357 0.66013 0.17911 0.0
C736 C 0.47262 0.66957 0.14981 0.0
C737 C 0.49751 0.70099 0.14712 0.0
C738 C 0.50328 0.72258 0.17324 0.0
C739 C 0.48386 0.71239 0.20177 0.0
C740 C 0.45939 0.68186 0.20461 0.0
C741 C 0.44059 0.67689 0.2366 0.0
C742 C 0.40615 0.66715 0.22845 0.0
C743 C 0.4425 0.6528 0.25985 0.0
C744 C 0.45806 0.70945 0.25143 0.0
C745 C 0.48318 0.72962 0.2313 0.0
C746 C 0.50222 0.76113 0.23982 0.0
C747 C 0.49495 0.77233 0.26917 0.0
C748 C 0.46866 0.75216 0.28948 0.0
C749 C 0.45043 0.72023 0.28056 0.0
H750 H 0.64255 0.48276 0.56642 0.0
H751 H 0.71357 0.50602 0.64371 0.0
H752 H 0.75328 0.51654 0.5993 0.0
H753 H 0.6658 0.44131 0.5149 0.0
H754 H 0.65762 0.45447 0.47566 0.0
H755 H 0.63615 0.45282 0.51312 0.0
H756 H 0.65334 0.51156 0.50585 0.0
H757 H 0.67485 0.51338 0.46823 0.0
H758 H 0.69465 0.54017 0.50238 0.0
H759 H 0.78353 0.51854 0.54639 0.0
H760 H 0.80168 0.51239 0.49029 0.0
H761 H 0.71063 0.48833 0.44795 0.0
C762 C 0.6666 0.49069 0.57412 0.0
C763 C 0.67495 0.49368 0.60864 0.0
C764 C 0.70664 0.50381 0.61747 0.0
C765 C 0.72934 0.50982 0.59239 0.0
C766 C 0.72005 0.5059 0.5586 0.0
C767 C 0.68944 0.49681 0.54949 0.0
C768 C 0.68476 0.49214 0.51173 0.0
C769 C 0.65961 0.45817 0.50338 0.0
C770 C 0.67641 0.51573 0.49613 0.0
C771 C 0.71729 0.49911 0.50095 0.0
C772 C 0.73743 0.50729 0.52827 0.0
C773 C 0.76808 0.51265 0.5248 0.0
C774 C 0.77817 0.50906 0.49279 0.0
C775 C 0.7577 0.50013 0.46456 0.0
C776 C 0.72709 0.49575 0.46878 0.0
H777 H 0.18373 0.64183 0.89727 0.0
H778 H 0.18952 0.71749 0.95827 0.0
H779 H 0.21849 0.75504 0.91182 0.0
H780 H 0.26055 0.68413 0.86348 0.0
H781 H 0.2495 0.66535 0.8229 0.0
H782 H 0.22754 0.64489 0.85994 0.0
H783 H 0.17602 0.6362 0.83167 0.0
H784 H 0.19787 0.6568 0.79455 0.0
H785 H 0.17376 0.66948 0.81604 0.0
H786 H 0.24866 0.7844 0.85787 0.0
H787 H 0.27943 0.80274 0.80483 0.0
H788 H 0.25396 0.70697 0.7813 0.0
C789 C 0.19068 0.66623 0.90092 0.0
C790 C 0.18405 0.67664 0.93142 0.0
C791 C 0.19417 0.70892 0.93511 0.0
C792 C 0.21056 0.73036 0.9088 0.0
C793 C 0.21674 0.71916 0.87906 0.0
C794 C 0.20717 0.68778 0.87523 0.0
C795 C 0.21802 0.68155 0.84188 0.0
C796 C 0.24022 0.66821 0.8474 0.0
C797 C 0.18973 0.65972 0.81973 0.0
C798 C 0.23547 0.71436 0.82736 0.0
C799 C 0.2343 0.7358 0.84889 0.0
C800 C 0.24953 0.7677 0.84088 0.0
C801 C 0.26686 0.7779 0.81057 0.0
C802 C 0.26909 0.75632 0.78873 0.0
C803 C 0.25266 0.72411 0.79723 0.0
loop_
_geom_bond_atom_site_label_1
_geom_bond_atom_site_label_2
_geom_bond_distance
_geom_bond_site_symmetry_2
_ccdc_geom_bond_type
Mg0 O7 2.141 . S
Mg0 O8 2.048 . S
Mg0 O9 2.048 . S
Mg0 O12 2.141 . S
C1 O2 1.313 . S
C1 O8 1.195 . S
O2 C1 1.313 . S
C3 O4 1.245 . S
C3 O12 1.289 . S
O4 C3 1.245 . S
C5 O6 1.245 . S
C5 O7 1.289 . S
O6 C5 1.245 . S
O7 Mg0 2.141 . S
O7 C5 1.289 . S
O8 Mg0 2.048 . S
O8 C1 1.195 . S
O9 Mg0 2.048 . S
O9 C10 1.195 . S
C10 O9 1.195 . S
C10 O11 1.313 . S
O11 C10 1.313 . S
O12 Mg0 2.141 . S
O12 C3 1.289 . S
Mg13 O20 2.141 . S
Mg13 O21 2.048 . S
Mg13 O22 2.048 . S
Mg13 O25 2.141 . S
C14 O15 1.313 . S
C14 O21 1.195 . S
O15 C14 1.313 . S
C16 O17 1.245 . S
C16 O25 1.289 . S
O17 C16 1.245 . S
C18 O19 1.245 . S
C18 O20 1.289 . S
O19 C18 1.245 . S
O20 Mg13 2.141 . S
O20 C18 1.289 . S
O21 Mg13 2.048 . S
O21 C14 1.195 . S
O22 Mg13 2.048 . S
O22 C23 1.195 . S
C23 O22 1.195 . S
C23 O24 1.313 . S
O24 C23 1.313 . S
O25 Mg13 2.141 . S
O25 C16 1.289 . S
Mg26 O33 2.141 1_554 S
Mg26 O34 2.048 . S
Mg26 O35 2.048 . S
Mg26 O38 2.141 1_554 S
C27 O28 1.313 . S
C27 O34 1.195 . S
O28 C27 1.313 . S
C29 O30 1.245 . S
C29 O38 1.289 . S
O30 C29 1.245 . S
C31 O32 1.245 . S
C31 O33 1.289 . S
O32 C31 1.245 . S
O33 Mg26 2.141 1_556 S
O33 C31 1.289 . S
O34 Mg26 2.048 . S
O34 C27 1.195 . S
O35 Mg26 2.048 . S
O35 C36 1.195 . S
C36 O35 1.195 . S
C36 O37 1.313 . S
O37 C36 1.313 . S
O38 Mg26 2.141 1_556 S
O38 C29 1.289 . S
Mg39 O46 2.141 . S
Mg39 O47 2.048 . S
Mg39 O48 2.048 . S
Mg39 O51 2.141 . S
C40 O41 1.313 . S
C40 O47 1.195 . S
O41 C40 1.313 . S
C42 O43 1.245 . S
C42 O51 1.289 . S
O43 C42 1.245 . S
C44 O45 1.245 . S
C44 O46 1.289 . S
O45 C44 1.245 . S
O46 Mg39 2.141 . S
O46 C44 1.289 . S
O47 Mg39 2.048 . S
O47 C40 1.195 . S
O48 Mg39 2.048 . S
O48 C49 1.195 . S
C49 O48 1.195 . S
C49 O50 1.313 . S
O50 C49 1.313 . S
O51 Mg39 2.141 . S
O51 C42 1.289 . S
Mg52 O59 2.141 . S
Mg52 O60 2.048 . S
Mg52 O61 2.048 . S
Mg52 O64 2.141 . S
C53 O54 1.313 . S
C53 O60 1.195 . S
O54 C53 1.313 . S
C55 O56 1.245 . S
C55 O64 1.289 . S
O56 C55 1.245 . S
C57 O58 1.245 . S
C57 O59 1.289 . S
O58 C57 1.245 . S
O59 Mg52 2.141 . S
O59 C57 1.289 . S
O60 Mg52 2.048 . S
O60 C53 1.195 . S
O61 Mg52 2.048 . S
O61 C62 1.195 . S
C62 O61 1.195 . S
C62 O63 1.313 . S
O63 C62 1.313 . S
O64 Mg52 2.141 . S
O64 C55 1.289 . S
Mg65 O72 2.141 1_554 S
Mg65 O73 2.048 . S
Mg65 O74 2.048 . S
Mg65 O77 2.141 1_554 S
C66 O67 1.313 . S
C66 O73 1.195 . S
O67 C66 1.313 . S
C68 O69 1.245 . S
C68 O77 1.289 . S
O69 C68 1.245 . S
C70 O71 1.245 . S
C70 O72 1.289 . S
O71 C70 1.245 . S
O72 Mg65 2.141 1_556 S
O72 C70 1.289 . S
O73 Mg65 2.048 . S
O73 C66 1.195 . S
O74 Mg65 2.048 . S
O74 C75 1.195 . S
C75 O74 1.195 . S
C75 O76 1.313 . S
O76 C75 1.313 . S
O77 Mg65 2.141 1_556 S
O77 C68 1.289 . S
Mg78 O85 2.141 . S
Mg78 O86 2.048 . S
Mg78 O87 2.048 . S
Mg78 O90 2.141 . S
C79 O80 1.313 . S
C79 O86 1.195 . S
O80 C79 1.313 . S
C81 O82 1.245 . S
C81 O90 1.289 . S
O82 C81 1.245 . S
C83 O84 1.245 . S
C83 O85 1.289 . S
O84 C83 1.245 . S
O85 Mg78 2.141 . S
O85 C83 1.289 . S
O86 Mg78 2.048 . S
O86 C79 1.195 . S
O87 Mg78 2.048 . S
O87 C88 1.195 . S
C88 O87 1.195 . S
C88 O89 1.313 . S
O89 C88 1.313 . S
O90 Mg78 2.141 . S
O90 C81 1.289 . S
Mg91 O98 2.141 . S
Mg91 O99 2.048 . S
Mg91 O100 2.048 . S
Mg91 O103 2.141 . S
C92 O93 1.313 . S
C92 O99 1.195 . S
O93 C92 1.313 . S
C94 O95 1.245 . S
C94 O103 1.289 . S
O95 C94 1.245 . S
C96 O97 1.245 . S
C96 O98 1.289 . S
O97 C96 1.245 . S
O98 Mg91 2.141 . S
O98 C96 1.289 . S
O99 Mg91 2.048 . S
O99 C92 1.195 . S
O100 Mg91 2.048 . S
O100 C101 1.195 . S
C101 O100 1.195 . S
C101 O102 1.313 . S
O102 C101 1.313 . S
O103 Mg91 2.141 . S
O103 C94 1.289 . S
Mg104 O111 2.141 1_556 S
Mg104 O112 2.048 . S
Mg104 O113 2.048 . S
Mg104 O116 2.141 1_556 S
C105 O106 1.317 . S
C105 O112 1.195 . S
O106 C105 1.317 . S
C107 O108 1.245 . S
C107 O116 1.289 . S
O108 C107 1.245 . S
C109 O110 1.245 . S
C109 O111 1.289 . S
O110 C109 1.245 . S
O111 Mg104 2.141 1_554 S
O111 C109 1.289 . S
O112 Mg104 2.048 . S
O112 C105 1.195 . S
O113 Mg104 2.048 . S
O113 C114 1.195 . S
C114 O113 1.195 . S
C114 O115 1.313 . S
O115 C114 1.313 . S
O116 Mg104 2.141 1_554 S
O116 C107 1.289 . S
Mg117 O124 2.141 . S
Mg117 O125 2.048 . S
Mg117 O126 2.048 . S
Mg117 O129 2.141 . S
C118 O119 1.313 . S
C118 O125 1.195 . S
O119 C118 1.313 . S
C120 O121 1.245 . S
C120 O129 1.289 . S
O121 C120 1.245 . S
C122 O123 1.245 . S
C122 O124 1.289 . S
O123 C122 1.245 . S
O124 Mg117 2.141 . S
O124 C122 1.289 . S
O125 Mg117 2.048 . S
O125 C118 1.195 . S
O126 Mg117 2.048 . S
O126 C127 1.195 . S
C127 O126 1.195 . S
C127 O128 1.313 . S
O128 C127 1.313 . S
O129 Mg117 2.141 . S
O129 C120 1.289 . S
Mg130 O137 2.141 . S
Mg130 O138 2.048 . S
Mg130 O139 2.048 . S
Mg130 O142 2.141 . S
C131 O132 1.313 . S
C131 O138 1.195 . S
O132 C131 1.313 . S
C133 O134 1.245 . S
C133 O142 1.289 . S
O134 C133 1.245 . S
C135 O136 1.245 . S
C135 O137 1.289 . S
O136 C135 1.245 . S
O137 Mg130 2.141 . S
O137 C135 1.289 . S
O138 Mg130 2.048 . S
O138 C131 1.195 . S
O139 Mg130 2.048 . S
O139 C140 1.195 . S
C140 O139 1.195 . S
C140 O141 1.313 . S
O141 C140 1.313 . S
O142 Mg130 2.141 . S
O142 C133 1.289 . S
Mg143 O150 2.141 1_556 S
Mg143 O151 2.048 . S
Mg143 O152 2.048 . S
Mg143 O155 2.141 1_556 S
C144 O145 1.317 . S
C144 O151 1.195 . S
O145 C144 1.317 . S
C146 O147 1.245 . S
C146 O155 1.289 . S
O147 C146 1.245 . S
C148 O149 1.245 . S
C148 O150 1.289 . S
O149 C148 1.245 . S
O150 Mg143 2.141 1_554 S
O150 C148 1.289 . S
O151 Mg143 2.048 . S
O151 C144 1.195 . S
O152 Mg143 2.048 . S
O152 C153 1.195 . S
C153 O152 1.195 . S
C153 O154 1.313 . S
O154 C153 1.313 . S
O155 Mg143 2.141 1_554 S
O155 C146 1.289 . S
H156 C168 0.930 . S
H157 C170 0.930 . S
H158 C171 0.930 . S
H159 C175 0.959 . S
H160 C175 0.959 . S
H161 C175 0.961 . S
H162 C176 0.960 . S
H163 C176 0.961 . S
H164 C176 0.959 . S
H165 C179 0.929 . S
H166 C180 0.931 . S
H167 C182 0.930 . S
C168 H156 0.930 . S
C168 C169 1.399 . S
C168 C173 1.399 . S
C169 C168 1.399 . S
C169 C170 1.376 . S
C170 H157 0.930 . S
C170 C169 1.376 . S
C170 C171 1.388 . S
C171 H158 0.930 . S
C171 C170 1.388 . S
C171 C172 1.390 . S
C172 C171 1.390 . S
C172 C173 1.394 . S
C172 C178 1.465 . S
C173 C168 1.399 . S
C173 C172 1.394 . S
C173 C174 1.516 . S
C174 C173 1.516 . S
C174 C175 1.502 . S
C174 C176 1.561 . S
C174 C177 1.526 . S
C175 H159 0.959 . S
C175 H160 0.959 . S
C175 H161 0.961 . S
C175 C174 1.502 . S
C176 H162 0.960 . S
C176 H163 0.961 . S
C176 H164 0.959 . S
C176 C174 1.561 . S
C177 C174 1.526 . S
C177 C178 1.396 . S
C177 C182 1.390 . S
C178 C172 1.465 . S
C178 C177 1.396 . S
C178 C179 1.399 . S
C179 H165 0.929 . S
C179 C178 1.399 . S
C179 C180 1.385 . S
C180 H166 0.931 . S
C180 C179 1.385 . S
C180 C181 1.389 . S
C181 C180 1.389 . S
C181 C182 1.387 . S
C182 H167 0.930 . S
C182 C177 1.390 . S
C182 C181 1.387 . S
H183 C195 0.930 . S
H184 C197 0.930 . S
H185 C198 0.930 . S
H186 C202 0.959 . S
H187 C202 0.959 . S
H188 C202 0.961 . S
H189 C203 0.960 . S
H190 C203 0.961 . S
H191 C203 0.959 . S
H192 C206 0.929 . S
H193 C207 0.931 . S
H194 C209 0.930 . S
C195 H183 0.930 . S
C195 C196 1.399 . S
C195 C200 1.399 . S
C196 C195 1.399 . S
C196 C197 1.376 . S
C197 H184 0.930 . S
C197 C196 1.376 . S
C197 C198 1.388 . S
C198 H185 0.930 . S
C198 C197 1.388 . S
C198 C199 1.390 . S
C199 C198 1.390 . S
C199 C200 1.394 . S
C199 C205 1.465 . S
C200 C195 1.399 . S
C200 C199 1.394 . S
C200 C201 1.516 . S
C201 C200 1.516 . S
C201 C202 1.502 . S
C201 C203 1.561 . S
C201 C204 1.526 . S
C202 H186 0.959 . S
C202 H187 0.959 . S
C202 H188 0.961 . S
C202 C201 1.502 . S
C203 H189 0.960 . S
C203 H190 0.961 . S
C203 H191 0.959 . S
C203 C201 1.561 . S
C204 C201 1.526 . S
C204 C205 1.396 . S
C204 C209 1.390 . S
C205 C199 1.465 . S
C205 C204 1.396 . S
C205 C206 1.399 . S
C206 H192 0.929 . S
C206 C205 1.399 . S
C206 C207 1.385 . S
C207 H193 0.931 . S
C207 C206 1.385 . S
C207 C208 1.389 . S
C208 C207 1.389 . S
C208 C209 1.387 . S
C209 H194 0.930 . S
C209 C204 1.390 . S
C209 C208 1.387 . S
H210 C222 0.930 . S
H211 C224 0.930 . S
H212 C225 0.930 . S
H213 C229 0.959 . S
H214 C229 0.959 . S
H215 C229 0.961 . S
H216 C230 0.960 . S
H217 C230 0.961 . S
H218 C230 0.959 . S
H219 C233 0.929 . S
H220 C234 0.931 . S
H221 C236 0.930 . S
C222 H210 0.930 . S
C222 C223 1.399 . S
C222 C227 1.399 . S
C223 C222 1.399 . S
C223 C224 1.376 . S
C224 H211 0.930 . S
C224 C223 1.376 . S
C224 C225 1.388 . S
C225 H212 0.930 . S
C225 C224 1.388 . S
C225 C226 1.390 . S
C226 C225 1.390 . S
C226 C227 1.394 . S
C226 C232 1.465 . S
C227 C222 1.399 . S
C227 C226 1.394 . S
C227 C228 1.516 . S
C228 C227 1.516 . S
C228 C229 1.502 . S
C228 C230 1.561 . S
C228 C231 1.526 . S
C229 H213 0.959 . S
C229 H214 0.959 . S
C229 H215 0.961 . S
C229 C228 1.502 . S
C230 H216 0.960 . S
C230 H217 0.961 . S
C230 H218 0.959 . S
C230 C228 1.561 . S
C231 C228 1.526 . S
C231 C232 1.396 . S
C231 C236 1.390 . S
C232 C226 1.465 . S
C232 C231 1.396 . S
C232 C233 1.399 . S
C233 H219 0.929 . S
C233 C232 1.399 . S
C233 C234 1.385 . S
C234 H220 0.931 . S
C234 C233 1.385 . S
C234 C235 1.389 . S
C235 C234 1.389 . S
C235 C236 1.387 . S
C236 H221 0.930 . S
C236 C231 1.390 . S
C236 C235 1.387 . S
H237 C249 0.930 . S
H238 C251 0.930 . S
H239 C252 0.930 . S
H240 C256 0.959 . S
H241 C256 0.959 . S
H242 C256 0.961 . S
H243 C257 0.960 . S
H244 C257 0.961 . S
H245 C257 0.959 . S
H246 C260 0.929 . S
H247 C261 0.931 . S
H248 C263 0.930 . S
C249 H237 0.930 . S
C249 C250 1.399 . S
C249 C254 1.399 . S
C250 C249 1.399 . S
C250 C251 1.376 . S
C251 H238 0.930 . S
C251 C250 1.376 . S
C251 C252 1.388 . S
C252 H239 0.930 . S
C252 C251 1.388 . S
C252 C253 1.390 . S
C253 C252 1.390 . S
C253 C254 1.394 . S
C253 C259 1.465 . S
C254 C249 1.399 . S
C254 C253 1.394 . S
C254 C255 1.516 . S
C255 C254 1.516 . S
C255 C256 1.502 . S
C255 C257 1.561 . S
C255 C258 1.526 . S
C256 H240 0.959 . S
C256 H241 0.959 . S
C256 H242 0.961 . S
C256 C255 1.502 . S
C257 H243 0.960 . S
C257 H244 0.961 . S
C257 H245 0.959 . S
C257 C255 1.561 . S
C258 C255 1.526 . S
C258 C259 1.396 . S
C258 C263 1.390 . S
C259 C253 1.465 . S
C259 C258 1.396 . S
C259 C260 1.399 . S
C260 H246 0.929 . S
C260 C259 1.399 . S
C260 C261 1.385 . S
C261 H247 0.931 . S
C261 C260 1.385 . S
C261 C262 1.389 . S
C262 C261 1.389 . S
C262 C263 1.387 . S
C263 H248 0.930 . S
C263 C258 1.390 . S
C263 C262 1.387 . S
H264 C276 0.930 . S
H265 C278 0.930 . S
H266 C279 0.930 . S
H267 C283 0.959 . S
H268 C283 0.959 . S
H269 C283 0.961 . S
H270 C284 0.960 . S
H271 C284 0.961 . S
H272 C284 0.959 . S
H273 C287 0.929 . S
H274 C288 0.931 . S
H275 C290 0.930 . S
C276 H264 0.930 . S
C276 C277 1.399 . S
C276 C281 1.399 . S
C277 C276 1.399 . S
C277 C278 1.376 . S
C278 H265 0.930 . S
C278 C277 1.376 . S
C278 C279 1.388 . S
C279 H266 0.930 . S
C279 C278 1.388 . S
C279 C280 1.390 . S
C280 C279 1.390 . S
C280 C281 1.394 . S
C280 C286 1.465 . S
C281 C276 1.399 . S
C281 C280 1.394 . S
C281 C282 1.516 . S
C282 C281 1.516 . S
C282 C283 1.502 . S
C282 C284 1.561 . S
C282 C285 1.526 . S
C283 H267 0.959 . S
C283 H268 0.959 . S
C283 H269 0.961 . S
C283 C282 1.502 . S
C284 H270 0.960 . S
C284 H271 0.961 . S
C284 H272 0.959 . S
C284 C282 1.561 . S
C285 C282 1.526 . S
C285 C286 1.396 . S
C285 C290 1.390 . S
C286 C280 1.465 . S
C286 C285 1.396 . S
C286 C287 1.399 . S
C287 H273 0.929 . S
C287 C286 1.399 . S
C287 C288 1.385 . S
C288 H274 0.931 . S
C288 C287 1.385 . S
C288 C289 1.389 . S
C289 C288 1.389 . S
C289 C290 1.387 . S
C290 H275 0.930 . S
C290 C285 1.390 . S
C290 C289 1.387 . S
H291 C303 0.930 . S
H292 C305 0.930 . S
H293 C306 0.930 . S
H294 C310 0.959 . S
H295 C310 0.959 . S
H296 C310 0.961 . S
H297 C311 0.960 . S
H298 C311 0.961 . S
H299 C311 0.959 . S
H300 C314 0.929 . S
H301 C315 0.931 . S
H302 C317 0.930 . S
C303 H291 0.930 . S
C303 C304 1.399 . S
C303 C308 1.399 . S
C304 C303 1.399 . S
C304 C305 1.376 . S
C305 H292 0.930 . S
C305 C304 1.376 . S
C305 C306 1.388 . S
C306 H293 0.930 . S
C306 C305 1.388 . S
C306 C307 1.390 . S
C307 C306 1.390 . S
C307 C308 1.394 . S
C307 C313 1.465 . S
C308 C303 1.399 . S
C308 C307 1.394 . S
C308 C309 1.516 . S
C309 C308 1.516 . S
C309 C310 1.502 . S
C309 C311 1.561 . S
C309 C312 1.526 . S
C310 H294 0.959 . S
C310 H295 0.959 . S
C310 H296 0.961 . S
C310 C309 1.502 . S
C311 H297 0.960 . S
C311 H298 0.961 . S
C311 H299 0.959 . S
C311 C309 1.561 . S
C312 C309 1.526 . S
C312 C313 1.396 . S
C312 C317 1.390 . S
C313 C307 1.465 . S
C313 C312 1.396 . S
C313 C314 1.399 . S
C314 H300 0.929 . S
C314 C313 1.399 . S
C314 C315 1.385 . S
C315 H301 0.931 . S
C315 C314 1.385 . S
C315 C316 1.389 . S
C316 C315 1.389 . S
C316 C317 1.387 . S
C317 H302 0.930 . S
C317 C312 1.390 . S
C317 C316 1.387 . S
H318 C330 0.930 . S
H319 C332 0.930 . S
H320 C333 0.930 . S
H321 C337 0.959 . S
H322 C337 0.959 . S
H323 C337 0.961 . S
H324 C338 0.960 . S
H325 C338 0.961 . S
H326 C338 0.959 . S
H327 C341 0.929 . S
H328 C342 0.931 . S
H329 C344 0.930 . S
C330 H318 0.930 . S
C330 C331 1.399 . S
C330 C335 1.399 . S
C331 C330 1.399 . S
C331 C332 1.376 . S
C332 H319 0.930 . S
C332 C331 1.376 . S
C332 C333 1.388 . S
C333 H320 0.930 . S
C333 C332 1.388 . S
C333 C334 1.390 . S
C334 C333 1.390 . S
C334 C335 1.394 . S
C334 C340 1.465 . S
C335 C330 1.399 . S
C335 C334 1.394 . S
C335 C336 1.516 . S
C336 C335 1.516 . S
C336 C337 1.502 . S
C336 C338 1.561 . S
C336 C339 1.526 . S
C337 H321 0.959 . S
C337 H322 0.959 . S
C337 H323 0.961 . S
C337 C336 1.502 . S
C338 H324 0.960 . S
C338 H325 0.961 . S
C338 H326 0.959 . S
C338 C336 1.561 . S
C339 C336 1.526 . S
C339 C340 1.396 . S
C339 C344 1.390 . S
C340 C334 1.465 . S
C340 C339 1.396 . S
C340 C341 1.399 . S
C341 H327 0.929 . S
C341 C340 1.399 . S
C341 C342 1.385 . S
C342 H328 0.931 . S
C342 C341 1.385 . S
C342 C343 1.389 . S
C343 C342 1.389 . S
C343 C344 1.387 . S
C344 H329 0.930 . S
C344 C339 1.390 . S
C344 C343 1.387 . S
H345 C357 0.930 . S
H346 C359 0.930 . S
H347 C360 0.930 . S
H348 C364 0.959 . S
H349 C364 0.959 . S
H350 C364 0.961 . S
H351 C365 0.960 . S
H352 C365 0.961 . S
H353 C365 0.959 . S
H354 C368 0.929 . S
H355 C369 0.931 . S
H356 C371 0.930 . S
C357 H345 0.930 . S
C357 C358 1.399 . S
C357 C362 1.399 . S
C358 C357 1.399 . S
C358 C359 1.376 . S
C359 H346 0.930 . S
C359 C358 1.376 . S
C359 C360 1.388 . S
C360 H347 0.930 . S
C360 C359 1.388 . S
C360 C361 1.390 . S
C361 C360 1.390 . S
C361 C362 1.394 . S
C361 C367 1.465 . S
C362 C357 1.399 . S
C362 C361 1.394 . S
C362 C363 1.516 . S
C363 C362 1.516 . S
C363 C364 1.502 . S
C363 C365 1.561 . S
C363 C366 1.526 . S
C364 H348 0.959 . S
C364 H349 0.959 . S
C364 H350 0.961 . S
C364 C363 1.502 . S
C365 H351 0.960 . S
C365 H352 0.961 . S
C365 H353 0.959 . S
C365 C363 1.561 . S
C366 C363 1.526 . S
C366 C367 1.396 . S
C366 C371 1.390 . S
C367 C361 1.465 . S
C367 C366 1.396 . S
C367 C368 1.399 . S
C368 H354 0.929 . S
C368 C367 1.399 . S
C368 C369 1.385 . S
C369 H355 0.931 . S
C369 C368 1.385 . S
C369 C370 1.389 . S
C370 C369 1.389 . S
C370 C371 1.387 . S
C371 H356 0.930 . S
C371 C366 1.390 . S
C371 C370 1.387 . S
H372 C384 0.930 . S
H373 C386 0.930 . S
H374 C387 0.930 . S
H375 C391 0.959 . S
H376 C391 0.959 . S
H377 C391 0.961 . S
H378 C392 0.960 . S
H379 C392 0.961 . S
H380 C392 0.959 . S
H381 C395 0.929 . S
H382 C396 0.931 . S
H383 C398 0.934 . S
C384 H372 0.930 . S
C384 C385 1.399 . S
C384 C389 1.402 . S
C385 C384 1.399 . S
C385 C386 1.376 1_556 S
C386 H373 0.930 . S
C386 C385 1.376 1_554 S
C386 C387 1.388 . S
C387 H374 0.930 . S
C387 C386 1.388 . S
C387 C388 1.390 . S
C388 C387 1.390 . S
C388 C389 1.390 1_554 S
C388 C394 1.465 . S
C389 C384 1.402 . S
C389 C388 1.390 1_556 S
C389 C390 1.516 . S
C390 C389 1.516 . S
C390 C391 1.507 . S
C390 C392 1.556 1_556 S
C390 C393 1.525 1_556 S
C391 H375 0.959 . S
C391 H376 0.959 . S
C391 H377 0.961 . S
C391 C390 1.507 . S
C392 H378 0.960 . S
C392 H379 0.961 . S
C392 H380 0.959 . S
C392 C390 1.556 1_554 S
C393 C390 1.525 1_554 S
C393 C394 1.396 . S
C393 C398 1.390 . S
C394 C388 1.465 . S
C394 C393 1.396 . S
C394 C395 1.399 . S
C395 H381 0.929 . S
C395 C394 1.399 . S
C395 C396 1.385 . S
C396 H382 0.931 . S
C396 C395 1.385 . S
C396 C397 1.389 . S
C397 C396 1.389 . S
C397 C398 1.387 . S
C398 H383 0.934 . S
C398 C393 1.390 . S
C398 C397 1.387 . S
H399 C411 0.930 . S
H400 C413 0.930 . S
H401 C414 0.930 . S
H402 C418 0.959 . S
H403 C418 0.959 . S
H404 C418 0.961 . S
H405 C419 0.960 . S
H406 C419 0.961 . S
H407 C419 0.959 . S
H408 C422 0.929 . S
H409 C423 0.931 . S
H410 C425 0.930 . S
C411 H399 0.930 . S
C411 C412 1.399 . S
C411 C416 1.399 . S
C412 C411 1.399 . S
C412 C413 1.376 . S
C413 H400 0.930 . S
C413 C412 1.376 . S
C413 C414 1.388 . S
C414 H401 0.930 . S
C414 C413 1.388 . S
C414 C415 1.390 . S
C415 C414 1.390 . S
C415 C416 1.394 . S
C415 C421 1.465 . S
C416 C411 1.399 . S
C416 C415 1.394 . S
C416 C417 1.516 . S
C417 C416 1.516 . S
C417 C418 1.502 . S
C417 C419 1.561 . S
C417 C420 1.526 . S
C418 H402 0.959 . S
C418 H403 0.959 . S
C418 H404 0.961 . S
C418 C417 1.502 . S
C419 H405 0.960 . S
C419 H406 0.961 . S
C419 H407 0.959 . S
C419 C417 1.561 . S
C420 C417 1.526 . S
C420 C421 1.396 . S
C420 C425 1.390 . S
C421 C415 1.465 . S
C421 C420 1.396 . S
C421 C422 1.399 . S
C422 H408 0.929 . S
C422 C421 1.399 . S
C422 C423 1.385 . S
C423 H409 0.931 . S
C423 C422 1.385 . S
C423 C424 1.389 . S
C424 C423 1.389 . S
C424 C425 1.387 . S
C425 H410 0.930 . S
C425 C420 1.390 . S
C425 C424 1.387 . S
H426 C438 0.930 . S
H427 C440 0.930 . S
H428 C441 0.930 . S
H429 C445 0.959 . S
H430 C445 0.959 . S
H431 C445 0.961 . S
H432 C446 0.960 . S
H433 C446 0.961 . S
H434 C446 0.959 . S
H435 C449 0.929 . S
H436 C450 0.931 . S
H437 C452 0.930 . S
C438 H426 0.930 . S
C438 C439 1.399 . S
C438 C443 1.399 . S
C439 C438 1.399 . S
C439 C440 1.376 . S
C440 H427 0.930 . S
C440 C439 1.376 . S
C440 C441 1.388 . S
C441 H428 0.930 . S
C441 C440 1.388 . S
C441 C442 1.390 . S
C442 C441 1.390 . S
C442 C443 1.394 . S
C442 C448 1.465 . S
C443 C438 1.399 . S
C443 C442 1.394 . S
C443 C444 1.516 . S
C444 C443 1.516 . S
C444 C445 1.502 . S
C444 C446 1.561 . S
C444 C447 1.526 . S
C445 H429 0.959 . S
C445 H430 0.959 . S
C445 H431 0.961 . S
C445 C444 1.502 . S
C446 H432 0.960 . S
C446 H433 0.961 . S
C446 H434 0.959 . S
C446 C444 1.561 . S
C447 C444 1.526 . S
C447 C448 1.396 . S
C447 C452 1.390 . S
C448 C442 1.465 . S
C448 C447 1.396 . S
C448 C449 1.399 . S
C449 H435 0.929 . S
C449 C448 1.399 . S
C449 C450 1.385 . S
C450 H436 0.931 . S
C450 C449 1.385 . S
C450 C451 1.389 . S
C451 C450 1.389 . S
C451 C452 1.387 . S
C452 H437 0.930 . S
C452 C447 1.390 . S
C452 C451 1.387 . S
H453 C465 0.930 1_556 S
H454 C467 0.930 . S
H455 C468 0.930 . S
H456 C472 0.959 . S
H457 C472 0.959 . S
H458 C472 0.961 . S
H459 C473 0.960 . S
H460 C473 0.961 . S
H461 C473 0.959 . S
H462 C476 0.929 . S
H463 C477 0.931 . S
H464 C479 0.930 . S
C465 H453 0.930 1_554 S
C465 C466 1.399 . S
C465 C470 1.399 . S
C466 C465 1.399 . S
C466 C467 1.376 . S
C467 H454 0.930 . S
C467 C466 1.376 . S
C467 C468 1.388 . S
C468 H455 0.930 . S
C468 C467 1.388 . S
C468 C469 1.390 . S
C469 C468 1.390 . S
C469 C470 1.394 . S
C469 C475 1.465 . S
C470 C465 1.399 . S
C470 C469 1.394 . S
C470 C471 1.516 1_554 S
C471 C470 1.516 1_556 S
C471 C472 1.502 . S
C471 C473 1.561 1_556 S
C471 C474 1.526 . S
C472 H456 0.959 . S
C472 H457 0.959 . S
C472 H458 0.961 . S
C472 C471 1.502 . S
C473 H459 0.960 . S
C473 H460 0.961 . S
C473 H461 0.959 . S
C473 C471 1.561 1_554 S
C474 C471 1.526 . S
C474 C475 1.396 1_556 S
C474 C479 1.390 . S
C475 C469 1.465 . S
C475 C474 1.396 1_554 S
C475 C476 1.399 . S
C476 H462 0.929 . S
C476 C475 1.399 . S
C476 C477 1.385 . S
C477 H463 0.931 . S
C477 C476 1.385 . S
C477 C478 1.389 1_554 S
C478 C477 1.389 1_556 S
C478 C479 1.387 . S
C479 H464 0.930 . S
C479 C474 1.390 . S
C479 C478 1.387 . S
H480 C492 0.930 . S
H481 C494 0.930 . S
H482 C495 0.930 . S
H483 C499 0.959 . S
H484 C499 0.959 . S
H485 C499 0.961 . S
H486 C500 0.962 1_545 S
H487 C500 0.959 . S
H488 C500 0.959 1_545 S
H489 C503 0.929 1_545 S
H490 C504 0.931 . S
H491 C506 0.930 . S
C492 H480 0.930 . S
C492 C493 1.399 . S
C492 C497 1.399 . S
C493 C492 1.399 . S
C493 C494 1.376 . S
C494 H481 0.930 . S
C494 C493 1.376 . S
C494 C495 1.388 . S
C495 H482 0.930 . S
C495 C494 1.388 . S
C495 C496 1.390 . S
C496 C495 1.390 . S
C496 C497 1.394 . S
C496 C502 1.465 1_545 S
C497 C492 1.399 . S
C497 C496 1.394 . S
C497 C498 1.516 1_545 S
C498 C497 1.516 1_565 S
C498 C499 1.502 . S
C498 C500 1.561 . S
C498 C501 1.526 . S
C499 H483 0.959 . S
C499 H484 0.959 . S
C499 H485 0.961 . S
C499 C498 1.502 . S
C500 H486 0.962 1_565 S
C500 H487 0.959 . S
C500 H488 0.959 1_565 S
C500 C498 1.561 . S
C501 C498 1.526 . S
C501 C502 1.396 . S
C501 C506 1.390 . S
C502 C496 1.465 1_565 S
C502 C501 1.396 . S
C502 C503 1.399 . S
C503 H489 0.929 1_565 S
C503 C502 1.399 . S
C503 C504 1.385 . S
C504 H490 0.931 . S
C504 C503 1.385 . S
C504 C505 1.389 . S
C505 C504 1.389 . S
C505 C506 1.387 . S
C506 H491 0.930 . S
C506 C501 1.390 . S
C506 C505 1.387 . S
H507 C519 0.930 . S
H508 C521 0.930 . S
H509 C522 0.930 . S
H510 C526 0.959 . S
H511 C526 0.959 . S
H512 C526 0.961 . S
H513 C527 0.960 . S
H514 C527 0.961 . S
H515 C527 0.959 . S
H516 C530 0.929 . S
H517 C531 0.931 . S
H518 C533 0.930 . S
C519 H507 0.930 . S
C519 C520 1.399 . S
C519 C524 1.399 . S
C520 C519 1.399 . S
C520 C521 1.376 . S
C521 H508 0.930 . S
C521 C520 1.376 . S
C521 C522 1.388 . S
C522 H509 0.930 . S
C522 C521 1.388 . S
C522 C523 1.390 . S
C523 C522 1.390 . S
C523 C524 1.394 . S
C523 C529 1.465 . S
C524 C519 1.399 . S
C524 C523 1.394 . S
C524 C525 1.516 . S
C525 C524 1.516 . S
C525 C526 1.502 . S
C525 C527 1.561 . S
C525 C528 1.526 . S
C526 H510 0.959 . S
C526 H511 0.959 . S
C526 H512 0.961 . S
C526 C525 1.502 . S
C527 H513 0.960 . S
C527 H514 0.961 . S
C527 H515 0.959 . S
C527 C525 1.561 . S
C528 C525 1.526 . S
C528 C529 1.396 . S
C528 C533 1.390 . S
C529 C523 1.465 . S
C529 C528 1.396 . S
C529 C530 1.399 . S
C530 H516 0.929 . S
C530 C529 1.399 . S
C530 C531 1.385 . S
C531 H517 0.931 . S
C531 C530 1.385 . S
C531 C532 1.389 . S
C532 C531 1.389 . S
C532 C533 1.387 . S
C533 H518 0.930 . S
C533 C528 1.390 . S
C533 C532 1.387 . S
H534 C546 0.930 . S
H535 C548 0.930 . S
H536 C549 0.930 . S
H537 C553 0.959 . S
H538 C553 0.959 . S
H539 C553 0.961 . S
H540 C554 0.960 1_655 S
H541 C554 0.961 . S
H542 C554 0.959 . S
H543 C557 0.929 . S
H544 C558 0.931 . S
H545 C560 0.930 . S
C546 H534 0.930 . S
C546 C547 1.399 1_554 S
C546 C551 1.399 . S
C547 C546 1.399 1_556 S
C547 C548 1.376 . S
C548 H535 0.930 . S
C548 C547 1.376 . S
C548 C549 1.388 . S
C549 H536 0.930 . S
C549 C548 1.388 . S
C549 C550 1.390 . S
C550 C549 1.390 . S
C550 C551 1.394 1_556 S
C550 C556 1.465 1_655 S
C551 C546 1.399 . S
C551 C550 1.394 1_554 S
C551 C552 1.516 . S
C552 C551 1.516 . S
C552 C553 1.502 . S
C552 C554 1.561 1_655 S
C552 C555 1.526 1_655 S
C553 H537 0.959 . S
C553 H538 0.959 . S
C553 H539 0.961 . S
C553 C552 1.502 . S
C554 H540 0.960 1_455 S
C554 H541 0.961 . S
C554 H542 0.959 . S
C554 C552 1.561 1_455 S
C555 C552 1.526 1_455 S
C555 C556 1.396 1_554 S
C555 C560 1.390 . S
C556 C550 1.465 1_455 S
C556 C555 1.396 1_556 S
C556 C557 1.399 . S
C557 H543 0.929 . S
C557 C556 1.399 . S
C557 C558 1.385 . S
C558 H544 0.931 . S
C558 C557 1.385 . S
C558 C559 1.389 . S
C559 C558 1.389 . S
C559 C560 1.387 1_556 S
C560 H545 0.930 . S
C560 C555 1.390 . S
C560 C559 1.387 1_554 S
H561 C573 0.930 . S
H562 C575 0.930 . S
H563 C576 0.930 . S
H564 C580 0.959 . S
H565 C580 0.959 1_655 S
H566 C580 0.961 . S
H567 C581 0.960 . S
H568 C581 0.961 . S
H569 C581 0.959 . S
H570 C584 0.929 . S
H571 C585 0.931 . S
H572 C587 0.930 . S
C573 H561 0.930 . S
C573 C574 1.399 . S
C573 C578 1.399 . S
C574 C573 1.399 . S
C574 C575 1.376 . S
C575 H562 0.930 . S
C575 C574 1.376 . S
C575 C576 1.388 . S
C576 H563 0.930 . S
C576 C575 1.388 . S
C576 C577 1.390 . S
C577 C576 1.390 . S
C577 C578 1.394 . S
C577 C583 1.465 1_455 S
C578 C573 1.399 . S
C578 C577 1.394 . S
C578 C579 1.516 1_455 S
C579 C578 1.516 1_655 S
C579 C580 1.502 1_655 S
C579 C581 1.561 . S
C579 C582 1.526 . S
C580 H564 0.959 . S
C580 H565 0.959 1_455 S
C580 H566 0.961 . S
C580 C579 1.502 1_455 S
C581 H567 0.960 . S
C581 H568 0.961 . S
C581 H569 0.959 . S
C581 C579 1.561 . S
C582 C579 1.526 . S
C582 C583 1.396 . S
C582 C587 1.390 . S
C583 C577 1.465 1_655 S
C583 C582 1.396 . S
C583 C584 1.399 . S
C584 H570 0.929 . S
C584 C583 1.399 . S
C584 C585 1.385 . S
C585 H571 0.931 . S
C585 C584 1.385 . S
C585 C586 1.389 . S
C586 C585 1.389 . S
C586 C587 1.387 . S
C587 H572 0.930 . S
C587 C582 1.390 . S
C587 C586 1.387 . S
H588 C600 0.930 . S
H589 C602 0.930 . S
H590 C603 0.930 . S
H591 C607 0.960 1_545 S
H592 C607 0.959 . S
H593 C607 0.961 . S
H594 C608 0.960 . S
H595 C608 0.961 . S
H596 C608 0.959 . S
H597 C611 0.929 . S
H598 C612 0.931 . S
H599 C614 0.930 . S
C600 H588 0.930 . S
C600 C601 1.399 . S
C600 C605 1.399 . S
C601 C600 1.399 . S
C601 C602 1.376 . S
C602 H589 0.930 . S
C602 C601 1.376 . S
C602 C603 1.388 . S
C603 H590 0.930 . S
C603 C602 1.388 . S
C603 C604 1.390 . S
C604 C603 1.390 . S
C604 C605 1.394 . S
C604 C610 1.465 1_545 S
C605 C600 1.399 . S
C605 C604 1.394 . S
C605 C606 1.516 1_545 S
C606 C605 1.516 1_565 S
C606 C607 1.502 . S
C606 C608 1.561 . S
C606 C609 1.526 . S
C607 H591 0.960 1_565 S
C607 H592 0.959 . S
C607 H593 0.961 . S
C607 C606 1.502 . S
C608 H594 0.960 . S
C608 H595 0.961 . S
C608 H596 0.959 . S
C608 C606 1.561 . S
C609 C606 1.526 . S
C609 C610 1.396 . S
C609 C614 1.390 . S
C610 C604 1.465 1_565 S
C610 C609 1.396 . S
C610 C611 1.399 . S
C611 H597 0.929 . S
C611 C610 1.399 . S
C611 C612 1.385 . S
C612 H598 0.931 . S
C612 C611 1.385 . S
C612 C613 1.389 . S
C613 C612 1.389 . S
C613 C614 1.387 . S
C614 H599 0.930 . S
C614 C609 1.390 . S
C614 C613 1.387 . S
H615 C627 0.930 . S
H616 C629 0.930 . S
H617 C630 0.930 . S
H618 C634 0.959 . S
H619 C634 0.959 . S
H620 C634 0.961 . S
H621 C635 0.960 . S
H622 C635 0.961 . S
H623 C635 0.959 . S
H624 C638 0.929 . S
H625 C639 0.931 . S
H626 C641 0.930 . S
C627 H615 0.930 . S
C627 C628 1.399 1_556 S
C627 C632 1.399 . S
C628 C627 1.399 1_554 S
C628 C629 1.376 . S
C629 H616 0.930 . S
C629 C628 1.376 . S
C629 C630 1.388 . S
C630 H617 0.930 . S
C630 C629 1.388 . S
C630 C631 1.390 . S
C631 C630 1.390 . S
C631 C632 1.394 1_554 S
C631 C637 1.465 . S
C632 C627 1.399 . S
C632 C631 1.394 1_556 S
C632 C633 1.516 . S
C633 C632 1.516 . S
C633 C634 1.502 . S
C633 C635 1.561 . S
C633 C636 1.526 . S
C634 H618 0.959 . S
C634 H619 0.959 . S
C634 H620 0.961 . S
C634 C633 1.502 . S
C635 H621 0.960 . S
C635 H622 0.961 . S
C635 H623 0.959 . S
C635 C633 1.561 . S
C636 C633 1.526 . S
C636 C637 1.396 1_556 S
C636 C641 1.390 . S
C637 C631 1.465 . S
C637 C636 1.396 1_554 S
C637 C638 1.399 . S
C638 H624 0.929 . S
C638 C637 1.399 . S
C638 C639 1.385 . S
C639 H625 0.931 . S
C639 C638 1.385 . S
C639 C640 1.389 . S
C640 C639 1.389 . S
C640 C641 1.387 1_554 S
C641 H626 0.930 . S
C641 C636 1.390 . S
C641 C640 1.387 1_556 S
H642 C654 0.930 . S
H643 C656 0.930 . S
H644 C657 0.930 . S
H645 C661 0.959 . S
H646 C661 0.959 . S
H647 C661 0.961 . S
H648 C662 0.960 . S
H649 C662 0.961 . S
H650 C662 0.959 . S
H651 C665 0.929 . S
H652 C666 0.931 . S
H653 C668 0.930 . S
C654 H642 0.930 . S
C654 C655 1.399 . S
C654 C659 1.399 . S
C655 C654 1.399 . S
C655 C656 1.376 . S
C656 H643 0.930 . S
C656 C655 1.376 . S
C656 C657 1.388 . S
C657 H644 0.930 . S
C657 C656 1.388 . S
C657 C658 1.390 . S
C658 C657 1.390 . S
C658 C659 1.394 . S
C658 C664 1.465 . S
C659 C654 1.399 . S
C659 C658 1.394 . S
C659 C660 1.516 . S
C660 C659 1.516 . S
C660 C661 1.502 . S
C660 C662 1.561 . S
C660 C663 1.526 . S
C661 H645 0.959 . S
C661 H646 0.959 . S
C661 H647 0.961 . S
C661 C660 1.502 . S
C662 H648 0.960 . S
C662 H649 0.961 . S
C662 H650 0.959 . S
C662 C660 1.561 . S
C663 C660 1.526 . S
C663 C664 1.396 . S
C663 C668 1.390 . S
C664 C658 1.465 . S
C664 C663 1.396 . S
C664 C665 1.399 . S
C665 H651 0.929 . S
C665 C664 1.399 . S
C665 C666 1.385 . S
C666 H652 0.931 . S
C666 C665 1.385 . S
C666 C667 1.389 . S
C667 C666 1.389 . S
C667 C668 1.387 . S
C668 H653 0.930 . S
C668 C663 1.390 . S
C668 C667 1.387 . S
H669 C681 0.930 . S
H670 C683 0.930 . S
H671 C684 0.930 . S
H672 C688 0.959 . S
H673 C688 0.959 . S
H674 C688 0.961 . S
H675 C689 0.960 . S
H676 C689 0.961 . S
H677 C689 0.959 . S
H678 C692 0.929 . S
H679 C693 0.931 . S
H680 C695 0.930 . S
C681 H669 0.930 . S
C681 C682 1.399 . S
C681 C686 1.399 . S
C682 C681 1.399 . S
C682 C683 1.376 . S
C683 H670 0.930 . S
C683 C682 1.376 . S
C683 C684 1.388 . S
C684 H671 0.930 . S
C684 C683 1.388 . S
C684 C685 1.390 . S
C685 C684 1.390 . S
C685 C686 1.394 . S
C685 C691 1.465 . S
C686 C681 1.399 . S
C686 C685 1.394 . S
C686 C687 1.516 . S
C687 C686 1.516 . S
C687 C688 1.502 . S
C687 C689 1.561 . S
C687 C690 1.526 . S
C688 H672 0.959 . S
C688 H673 0.959 . S
C688 H674 0.961 . S
C688 C687 1.502 . S
C689 H675 0.960 . S
C689 H676 0.961 . S
C689 H677 0.959 . S
C689 C687 1.561 . S
C690 C687 1.526 . S
C690 C691 1.396 . S
C690 C695 1.390 . S
C691 C685 1.465 . S
C691 C690 1.396 . S
C691 C692 1.399 . S
C692 H678 0.929 . S
C692 C691 1.399 . S
C692 C693 1.385 . S
C693 H679 0.931 . S
C693 C692 1.385 . S
C693 C694 1.389 . S
C694 C693 1.389 . S
C694 C695 1.387 . S
C695 H680 0.930 . S
C695 C690 1.390 . S
C695 C694 1.387 . S
H696 C708 0.930 . S
H697 C710 0.930 . S
H698 C711 0.930 . S
H699 C715 0.959 . S
H700 C715 0.959 . S
H701 C715 0.961 . S
H702 C716 0.960 . S
H703 C716 0.961 . S
H704 C716 0.959 . S
H705 C719 0.929 . S
H706 C720 0.931 . S
H707 C722 0.930 . S
C708 H696 0.930 . S
C708 C709 1.399 . S
C708 C713 1.399 . S
C709 C708 1.399 . S
C709 C710 1.376 . S
C710 H697 0.930 . S
C710 C709 1.376 . S
C710 C711 1.388 . S
C711 H698 0.930 . S
C711 C710 1.388 . S
C711 C712 1.390 . S
C712 C711 1.390 . S
C712 C713 1.394 . S
C712 C718 1.465 . S
C713 C708 1.399 . S
C713 C712 1.394 . S
C713 C714 1.516 . S
C714 C713 1.516 . S
C714 C715 1.502 . S
C714 C716 1.561 . S
C714 C717 1.526 . S
C715 H699 0.959 . S
C715 H700 0.959 . S
C715 H701 0.961 . S
C715 C714 1.502 . S
C716 H702 0.960 . S
C716 H703 0.961 . S
C716 H704 0.959 . S
C716 C714 1.561 . S
C717 C714 1.526 . S
C717 C718 1.396 . S
C717 C722 1.390 . S
C718 C712 1.465 . S
C718 C717 1.396 . S
C718 C719 1.399 . S
C719 H705 0.929 . S
C719 C718 1.399 . S
C719 C720 1.385 . S
C720 H706 0.931 . S
C720 C719 1.385 . S
C720 C721 1.389 . S
C721 C720 1.389 . S
C721 C722 1.387 . S
C722 H707 0.930 . S
C722 C717 1.390 . S
C722 C721 1.387 . S
H723 C735 0.930 . S
H724 C737 0.930 . S
H725 C738 0.930 . S
H726 C742 0.959 . S
H727 C742 0.959 . S
H728 C742 0.961 . S
H729 C743 0.960 . S
H730 C743 0.961 . S
H731 C743 0.959 . S
H732 C746 0.929 . S
H733 C747 0.931 . S
H734 C749 0.930 . S
C735 H723 0.930 . S
C735 C736 1.399 . S
C735 C740 1.399 . S
C736 C735 1.399 . S
C736 C737 1.376 . S
C737 H724 0.930 . S
C737 C736 1.376 . S
C737 C738 1.388 . S
C738 H725 0.930 . S
C738 C737 1.388 . S
C738 C739 1.390 . S
C739 C738 1.390 . S
C739 C740 1.394 . S
C739 C745 1.465 . S
C740 C735 1.399 . S
C740 C739 1.394 . S
C740 C741 1.516 . S
C741 C740 1.516 . S
C741 C742 1.502 . S
C741 C743 1.561 . S
C741 C744 1.526 . S
C742 H726 0.959 . S
C742 H727 0.959 . S
C742 H728 0.961 . S
C742 C741 1.502 . S
C743 H729 0.960 . S
C743 H730 0.961 . S
C743 H731 0.959 . S
C743 C741 1.561 . S
C744 C741 1.526 . S
C744 C745 1.396 . S
C744 C749 1.390 . S
C745 C739 1.465 . S
C745 C744 1.396 . S
C745 C746 1.399 . S
C746 H732 0.929 . S
C746 C745 1.399 . S
C746 C747 1.385 . S
C747 H733 0.931 . S
C747 C746 1.385 . S
C747 C748 1.389 . S
C748 C747 1.389 . S
C748 C749 1.387 . S
C749 H734 0.930 . S
C749 C744 1.390 . S
C749 C748 1.387 . S
H750 C762 0.930 . S
H751 C764 0.930 . S
H752 C765 0.930 . S
H753 C769 0.959 . S
H754 C769 0.959 . S
H755 C769 0.961 . S
H756 C770 0.960 . S
H757 C770 0.961 . S
H758 C770 0.959 . S
H759 C773 0.929 . S
H760 C774 0.931 . S
H761 C776 0.930 . S
C762 H750 0.930 . S
C762 C763 1.399 . S
C762 C767 1.399 . S
C763 C762 1.399 . S
C763 C764 1.376 . S
C764 H751 0.930 . S
C764 C763 1.376 . S
C764 C765 1.388 . S
C765 H752 0.930 . S
C765 C764 1.388 . S
C765 C766 1.390 . S
C766 C765 1.390 . S
C766 C767 1.394 . S
C766 C772 1.465 . S
C767 C762 1.399 . S
C767 C766 1.394 . S
C767 C768 1.516 . S
C768 C767 1.516 . S
C768 C769 1.502 . S
C768 C770 1.561 . S
C768 C771 1.526 . S
C769 H753 0.959 . S
C769 H754 0.959 . S
C769 H755 0.961 . S
C769 C768 1.502 . S
C770 H756 0.960 . S
C770 H757 0.961 . S
C770 H758 0.959 . S
C770 C768 1.561 . S
C771 C768 1.526 . S
C771 C772 1.396 . S
C771 C776 1.390 . S
C772 C766 1.465 . S
C772 C771 1.396 . S
C772 C773 1.399 . S
C773 H759 0.929 . S
C773 C772 1.399 . S
C773 C774 1.385 . S
C774 H760 0.931 . S
C774 C773 1.385 . S
C774 C775 1.389 . S
C775 C774 1.389 . S
C775 C776 1.387 . S
C776 H761 0.930 . S
C776 C771 1.390 . S
C776 C775 1.387 . S
H777 C789 0.930 . S
H778 C791 0.930 . S
H779 C792 0.930 . S
H780 C796 0.959 . S
H781 C796 0.959 . S
H782 C796 0.961 . S
H783 C797 0.960 . S
H784 C797 0.961 . S
H785 C797 0.959 . S
H786 C800 0.929 . S
H787 C801 0.931 . S
H788 C803 0.930 . S
C789 H777 0.930 . S
C789 C790 1.399 . S
C789 C794 1.399 . S
C790 C789 1.399 . S
C790 C791 1.376 . S
C791 H778 0.930 . S
C791 C790 1.376 . S
C791 C792 1.388 . S
C792 H779 0.930 . S
C792 C791 1.388 . S
C792 C793 1.390 . S
C793 C792 1.390 . S
C793 C794 1.394 . S
C793 C799 1.465 . S
C794 C789 1.399 . S
C794 C793 1.394 . S
C794 C795 1.516 . S
C795 C794 1.516 . S
C795 C796 1.502 . S
C795 C797 1.561 . S
C795 C798 1.526 . S
C796 H780 0.959 . S
C796 H781 0.959 . S
C796 H782 0.961 . S
C796 C795 1.502 . S
C797 H783 0.960 . S
C797 H784 0.961 . S
C797 H785 0.959 . S
C797 C795 1.561 . S
C798 C795 1.526 . S
C798 C799 1.396 . S
C798 C803 1.390 . S
C799 C793 1.465 . S
C799 C798 1.396 . S
C799 C800 1.399 . S
C800 H786 0.929 . S
C800 C799 1.399 . S
C800 C801 1.385 . S
C801 H787 0.931 . S
C801 C800 1.385 . S
C801 C802 1.389 . S
C802 C801 1.389 . S
C802 C803 1.387 . S
C803 H788 0.930 . S
C803 C798 1.390 . S
C803 C802 1.387 . S
C169 C10 1.613 . S
C181 C140 1.638 . S
C196 C14 1.645 . S
C208 C153 1.626 . S
C223 C79 1.668 . S
C235 C36 1.653 . S
C250 C49 1.658 . S
C262 C101 1.640 . S
C277 C114 1.651 . S
C289 C53 1.667 . S
C304 C118 1.650 . S
C316 C75 1.616 . S
C331 C88 0.987 . S
C343 C1 0.992 . S
C358 C92 1.032 . S
C370 C23 1.021 . S
C385 C105 1.012 . S
C397 C27 1.031 . S
C412 C40 0.902 . S
C424 C127 0.981 . S
C439 C62 0.964 . S
C451 C131 0.926 . S
C466 C66 0.921 . S
C478 C144 0.896 . S
C493 C3 2.176 . S
C505 C42 2.241 . S
C520 C18 2.407 . S
C532 C57 2.379 . S
C547 C29 2.238 . S
C559 C68 2.194 . S
C574 C122 2.396 . S
C586 C83 2.394 . S
C601 C133 2.202 . S
C613 C94 2.230 . S
C628 C146 2.233 . S
C640 C107 2.198 . S
C655 C5 1.783 . S
C667 C109 1.797 . S
C682 C120 1.807 . S
C694 C16 1.756 . S
C709 C31 1.765 . S
C721 C135 1.768 . S
C736 C148 1.812 . S
C748 C44 1.802 . S
C763 C55 1.756 . S
C775 C81 1.797 . S
C790 C70 1.805 . S
C802 C96 1.813 . S
