# Generated by pormake.
# Topology snp, (6)-cn, num edge types: 1
# Building blocks:
#     Node 0, Type 0, BuildingBlock: BETDEL_clean_sbu_0, # of connection points: 6
#     Node 1, Type 0, BuildingBlock: BETDEL_clean_sbu_0, # of connection points: 6
#     Node 2, Type 0, BuildingBlock: BETDEL_clean_sbu_0, # of connection points: 6
#     Node 3, Type 0, BuildingBlock: BETDEL_clean_sbu_0, # of connection points: 6
#     Edge 4, Type (0, 0), BuildingBlock: FUNLAD_clean_linker_1, # of connection points: 2
#     Edge 5, Type (0, 0), BuildingBlock: FUNLAD_clean_linker_1, # of connection points: 2
#     Edge 6, Type (0, 0), BuildingBlock: FUNLAD_clean_linker_1, # of connection points: 2
#     Edge 7, Type (0, 0), BuildingBlock: FUNLAD_clean_linker_1, # of connection points: 2
#     Edge 8, Type (0, 0), BuildingBlock: FUNLAD_clean_linker_1, # of connection points: 2
#     Edge 9, Type (0, 0), BuildingBlock: FUNLAD_clean_linker_1, # of connection points: 2
#     Edge 10, Type (0, 0), BuildingBlock: FUNLAD_clean_linker_1, # of connection points: 2
#     Edge 11, Type (0, 0), BuildingBlock: FUNLAD_clean_linker_1, # of connection points: 2
#     Edge 12, Type (0, 0), BuildingBlock: FUNLAD_clean_linker_1, # of connection points: 2
#     Edge 13, Type (0, 0), BuildingBlock: FUNLAD_clean_linker_1, # of connection points: 2
#     Edge 14, Type (0, 0), BuildingBlock: FUNLAD_clean_linker_1, # of connection points: 2
#     Edge 15, Type (0, 0), BuildingBlock: FUNLAD_clean_linker_1, # of connection points: 2
# Relax obj value: 0.332
# Max RMSD: 0.193
# Mean RMSD: 0.191
data_MOF--net-snp--node1-BETDEL_clean_sbu_0--edge1-FUNLAD_clean_linker_1
_symmetry_space_group_name_H-M    P1
_symmetry_Int_Tables_number       1
_symmetry_cell_setting            triclinic
loop_
_symmetry_equiv_pos_as_xyz
'x, y, z'
_cell_length_a     26.304904
_cell_length_b     25.734526
_cell_length_c     27.37782
_cell_angle_alpha  93.375452
_cell_angle_beta   90.247025
_cell_angle_gamma 95.365067
loop_
_atom_site_label
_atom_site_type_symbol
_atom_site_fract_x
_atom_site_fract_y
_atom_site_fract_z
_atom_type_partial_charge
Dy0 Dy 0.21806 0.11527 0.10697 0.0
C1 C 0.22349 0.93959 0.96826 0.0
C2 C 0.21181 0.21048 0.15321 0.0
Dy3 Dy 0.2115 0.01513 1.0408 0.0
O4 O 0.25139 0.19657 0.1295 0.0
O5 O 0.17597 0.17198 0.15248 0.0
O6 O 0.28966 0.09231 0.14035 0.0
O7 O 0.27422 0.07233 0.06588 0.0
C8 C 0.30463 0.06824 0.10092 0.0
C9 C 0.12362 0.03935 0.07834 0.0
O10 O 0.21907 0.98433 0.11672 0.0
O11 O 0.18926 0.0557 0.16004 0.0
O12 O 0.18272 0.94405 0.99378 0.0
O13 O 0.259 0.97547 0.98348 0.0
O14 O 0.13392 0.99152 0.06876 0.0
O15 O 0.15859 0.07114 0.06371 0.0
O16 O 0.2097 0.14983 1.0339 0.0
O17 O 0.2001 0.07323 0.98391 0.0
C18 C 0.19858 0.0057 0.15695 0.0
C19 C 0.20197 0.12498 0.99027 0.0
Dy20 Dy -0.01488 0.2092 0.58977 0.0
C21 C 0.1489 0.31627 0.48292 0.0
C22 C 0.91516 0.14881 0.63938 0.0
Dy23 Dy 0.08237 0.25826 0.53829 0.0
O24 O 0.90645 0.19213 0.61989 0.0
O25 O 0.96106 0.13724 0.62923 0.0
O26 O 0.97286 0.28874 0.62353 0.0
O27 O 0.00716 0.28224 0.55479 0.0
C28 C -0.00466 0.31383 0.58881 0.0
C29 C 0.09248 0.16714 0.57454 0.0
O30 O 0.10142 0.28133 0.61797 0.0
O31 O 0.04181 0.2209 0.65112 0.0
O32 O 0.14866 0.26646 0.48811 0.0
O33 O 0.11233 0.33474 0.50822 0.0
O34 O 0.13141 0.20133 0.56977 0.0
O35 O 0.0526 0.1814 0.55553 0.0
O36 O 0.96019 0.18572 0.51206 0.0
O37 O 0.03459 0.21942 0.47368 0.0
C38 C 0.08284 0.25484 0.6554 0.0
C39 C -0.01217 0.19372 0.47208 0.0
Dy40 Dy 0.72803 0.90681 0.0963 0.0
C41 C 0.80071 0.07772 0.98761 0.0
C42 C 0.701 0.82707 0.15481 0.0
Dy43 Dy 0.77662 0.00184 1.05093 0.0
O44 O 0.67468 0.86642 0.14894 0.0
O45 O 0.7417 0.83099 0.12813 0.0
O46 O 0.66069 0.90635 1.04737 0.0
O47 O 0.698 0.97884 0.0737 0.0
C48 C 0.6625 0.95675 1.0461 0.0
C49 C 0.84055 0.94773 0.09849 0.0
O50 O 0.77503 0.04031 0.1262 0.0
O51 O 0.75274 0.96213 0.16261 0.0
O52 O 0.83048 0.04323 1.00005 0.0
O53 O 0.75807 0.0723 1.01143 0.0
O54 O 0.84719 -0.00176 0.09619 0.0
O55 O 0.80351 0.92918 0.07207 0.0
O56 O 0.74914 0.86735 1.02438 0.0
O57 O 0.76636 0.94425 0.9852 0.0
C58 C 0.76838 0.01305 0.16566 0.0
C59 C 0.76024 0.89246 0.98418 0.0
Dy60 Dy 0.91834 0.7697 0.52796 0.0
C61 C 0.10143 0.85031 0.62449 0.0
C62 C 0.83434 0.734 0.47298 0.0
Dy63 Dy 0.0152 0.82581 0.56884 0.0
O64 O 0.87387 0.70855 0.47892 0.0
O65 O 0.8403 0.77875 0.49783 0.0
O66 O 0.93666 0.6992 0.56406 0.0
O67 O -0.00307 0.7469 0.53418 0.0
C68 C -0.01445 0.706 0.5571 0.0
C69 C 0.94347 0.88715 0.54382 0.0
O70 O 0.04007 0.82237 0.4909 0.0
O71 O 0.95677 0.8086 0.46253 0.0
O72 O 0.08474 0.87973 0.5922 0.0
O73 O 0.07175 0.80718 0.62555 0.0
O74 O -0.00791 0.90161 0.54201 0.0
O75 O 0.93684 0.84473 0.56345 0.0
O76 O 0.89073 0.78176 0.60593 0.0
O77 O 0.97073 0.81125 0.63818 0.0
C78 C 0.00609 0.82274 0.45516 0.0
C79 C 0.92149 0.79649 0.64408 0.0
H80 H 0.85746 0.87605 0.13307 0.0
C81 C 0.87258 0.91568 0.12632 0.0
H82 H 0.93984 0.90693 0.16459 0.0
H83 H -0.00177 0.1098 1.02571 0.0
H84 H 0.96945 0.05219 0.9544 0.0
H85 H 0.9362 0.96052 0.96502 0.0
H86 H 0.92841 0.92717 1.04614 0.0
C87 C 0.91975 0.93254 0.14274 0.0
C88 C 0.94533 0.98526 0.13419 0.0
C89 C 0.95387 0.00152 0.08578 0.0
C90 C 0.9765 0.05261 0.07908 0.0
C91 C 0.98135 0.07061 1.03146 0.0
C92 C 0.96555 0.03797 0.99076 0.0
C93 C 0.9468 0.9864 0.99678 0.0
C94 C 0.94183 0.9679 1.04361 0.0
H95 H 0.07 0.01948 0.13456 0.0
C96 C 0.08467 0.052 0.1133 0.0
H97 H 0.06928 0.12307 0.08451 0.0
H98 H 0.92878 0.97116 0.23194 0.0
H99 H 0.96134 0.03012 0.2999 0.0
H100 H 0.01242 0.11326 0.28536 0.0
H101 H 0.03059 0.13803 0.20141 0.0
C102 C 0.05709 0.09286 0.10921 0.0
C103 C 0.00211 0.08106 0.11876 0.0
C104 C -0.01106 0.06856 0.16676 0.0
C105 C 0.96071 0.02016 0.17482 0.0
C106 C 0.95081 0.00713 0.22357 0.0
C107 C 0.9694 0.04061 0.26289 0.0
C108 C -0.00196 0.08753 0.25466 0.0
C109 C 0.00808 0.10141 0.20695 0.0
H110 H 0.86379 0.89681 0.52284 0.0
C111 C 0.90113 0.91754 0.53033 0.0
H112 H 0.87417 0.9903 0.51891 0.0
H113 H 0.08206 0.02912 0.66121 0.0
H114 H 0.02459 -0.00187 0.72512 0.0
H115 H 0.9334 0.97227 0.70664 0.0
H116 H 0.90004 0.97444 0.62382 0.0
C117 C 0.90631 0.96973 0.52944 0.0
C118 C 0.95556 -0.00012 0.54264 0.0
C119 C 0.97281 0.0029 0.59192 0.0
C120 C 0.02423 0.02071 0.60318 0.0
C121 C 0.04246 0.01791 0.65156 0.0
C122 C 0.00998 0.00013 0.68832 0.0
C123 C 0.95874 0.98535 0.67786 0.0
C124 C 0.94013 0.98662 0.63024 0.0
H125 H 0.06107 0.12144 0.63023 0.0
C126 C 0.09236 0.12235 0.60445 0.0
H127 H 0.13539 0.07772 0.55811 0.0
H128 H 0.93674 0.99039 0.44424 0.0
H129 H -0.0076 0.02395 0.38077 0.0
H130 H 0.07712 0.06888 0.40144 0.0
H131 H 0.10769 0.07841 0.485 0.0
C132 C 0.10204 0.07736 0.58128 0.0
C133 C 0.0563 0.0418 0.56639 0.0
C134 C 0.03889 0.03916 0.51693 0.0
C135 C -0.01111 0.01634 0.50502 0.0
C136 C 0.97337 0.01004 0.45531 0.0
C137 C 0.00505 0.02884 0.41851 0.0
C138 C 0.0528 0.05405 0.43023 0.0
C139 C 0.06984 0.05918 0.47871 0.0
H140 H 0.59258 0.9599 1.00336 0.0
C141 C 0.61624 0.98049 1.03236 0.0
H142 H 0.61757 0.03533 0.09297 0.0
H143 H 0.41484 0.12354 1.00718 0.0
H144 H 0.47756 0.1879 0.9755 0.0
H145 H 0.56965 0.17735 0.98087 0.0
H146 H 0.59966 0.1024 1.01837 0.0
C147 C 0.5961 0.01658 1.06171 0.0
C148 C 0.54057 0.02313 1.05809 0.0
C149 C 0.52362 0.06666 1.03568 0.0
C150 C 0.47042 0.07242 1.03222 0.0
C151 C 0.45468 0.11693 1.01047 0.0
C152 C 0.4903 0.1542 0.99214 0.0
C153 C 0.54217 0.14827 0.99518 0.0
C154 C 0.55888 0.10511 1.01672 0.0
H155 H 0.37873 0.05114 0.12972 0.0
C156 C 0.35677 0.05249 0.09616 0.0
H157 H 0.35873 0.04777 1.01894 0.0
H158 H 0.56001 0.93609 0.10587 0.0
H159 H 0.49741 0.86928 0.1333 0.0
H160 H 0.40526 0.87587 0.12146 0.0
H161 H 0.37526 0.94996 0.0829 0.0
C162 C 0.37919 0.04375 1.05287 0.0
C163 C 0.43431 0.03445 1.05112 0.0
C164 C 0.45127 0.9897 0.07164 0.0
C165 C 0.50441 0.98473 0.07636 0.0
C166 C 0.52018 0.94108 0.09967 0.0
C167 C 0.48461 0.90249 0.11587 0.0
C168 C 0.43274 0.90629 0.10936 0.0
C169 C 0.41605 0.94925 0.08752 0.0
H170 H -0.00937 0.39337 0.62123 0.0
C171 C 0.00232 0.3713 0.58879 0.0
H172 H 0.02988 0.37498 0.51698 0.0
H173 H 0.95475 0.59801 0.48993 0.0
H174 H 0.91191 0.5448 0.42325 0.0
H175 H 0.91984 0.44999 0.41393 0.0
H176 H 0.97051 0.40785 0.47114 0.0
C177 C 0.02103 0.39687 0.55041 0.0
C178 C 0.0239 0.45512 0.5508 0.0
C179 C -0.00503 0.47918 0.51617 0.0
C180 C -0.00984 0.53383 0.52165 0.0
C181 C 0.95965 0.55668 0.48757 0.0
C182 C 0.93488 0.5266 0.44906 0.0
C183 C 0.93938 0.47324 0.4438 0.0
C184 C 0.96876 0.44955 0.47696 0.0
H185 H 0.05018 0.66111 0.53325 0.0
C186 C 0.01611 0.66065 0.55555 0.0
H187 H 0.96264 0.61628 0.59721 0.0
H188 H 0.09387 0.42418 0.61478 0.0
H189 H 0.13936 0.47849 0.67956 0.0
H190 H 0.12772 0.57248 0.69113 0.0
H191 H 0.07103 0.61294 0.63734 0.0
C192 C -0.00297 0.61637 0.57531 0.0
C193 C 0.01425 0.56418 0.56164 0.0
C194 C 0.04703 0.54114 0.59334 0.0
C195 C 0.05257 0.48666 0.58747 0.0
C196 C 0.08678 0.46494 0.61883 0.0
C197 C 0.11343 0.49577 0.65584 0.0
C198 C 0.10693 0.54873 0.66231 0.0
C199 C 0.07419 0.5714 0.63145 0.0
H200 H 0.15116 0.36791 0.42283 0.0
C201 C 0.17362 0.34168 0.44161 0.0
H202 H 0.23283 0.2929 0.43751 0.0
H203 H 0.134 0.18171 0.24597 0.0
H204 H 0.12237 0.11468 0.30401 0.0
H205 H 0.14964 0.13306 0.39013 0.0
H206 H 0.18795 0.21801 0.41821 0.0
C207 C 0.21016 0.31803 0.41761 0.0
C208 C 0.20306 0.3056 0.36432 0.0
C209 C 0.18278 0.25431 0.34798 0.0
C210 C 0.16834 0.24342 0.29824 0.0
C211 C 0.14632 0.19239 0.28319 0.0
C212 C 0.13928 0.15329 0.31619 0.0
C213 C 0.15444 0.16361 0.36459 0.0
C214 C 0.17607 0.21319 0.3804 0.0
H215 H 0.2505 0.27376 0.19988 0.0
C216 C 0.21309 0.25673 0.18701 0.0
H217 H 0.13406 0.24994 0.19867 0.0
H218 H 0.24351 0.40648 0.38348 0.0
H219 H 0.25653 0.47358 0.32459 0.0
H220 H 0.23314 0.45397 0.23758 0.0
H221 H 0.19632 0.36715 0.20895 0.0
C222 C 0.17122 0.26749 0.21169 0.0
C223 C 0.17716 0.28289 0.26442 0.0
C224 C 0.19808 0.33375 0.28047 0.0
C225 C 0.21092 0.34521 0.33064 0.0
C226 C 0.23226 0.39612 0.34583 0.0
C227 C 0.24015 0.43481 0.31239 0.0
C228 C 0.22708 0.42373 0.26337 0.0
C229 C 0.20625 0.37381 0.24737 0.0
H230 H 0.89514 0.0892 0.69207 0.0
C231 C 0.88698 0.12748 0.68102 0.0
H232 H 0.85951 0.19946 0.70344 0.0
H233 H 0.76309 0.0445 0.87326 0.0
H234 H 0.69987 0.01286 0.81172 0.0
H235 H 0.70797 0.03985 0.72684 0.0
H236 H 0.77882 0.10081 0.70384 0.0
C237 C 0.8635 0.15938 0.71225 0.0
C238 C 0.85576 0.14601 0.76389 0.0
C239 C 0.81425 0.11057 0.77667 0.0
C240 C 0.80946 0.09521 0.82562 0.0
C241 C 0.76816 0.05874 0.83709 0.0
C242 C 0.73178 0.03967 0.80183 0.0
C243 C 0.73627 0.05504 0.75413 0.0
C244 C 0.77709 0.08994 0.74142 0.0
H245 H 0.78041 0.13434 0.9348 0.0
C246 C 0.80839 0.10784 0.94388 0.0
H247 H 0.87204 0.06902 0.92019 0.0
H248 H 0.93782 0.21822 0.75236 0.0
H249 H -0.00148 0.254 0.81552 0.0
H250 H -0.00823 0.22497 0.89951 0.0
H251 H 0.92263 0.16195 0.9219 0.0
C252 C 0.84435 0.096 0.91148 0.0
C253 C 0.84619 0.11568 0.86161 0.0
C254 C 0.88714 0.15187 0.84898 0.0
C255 C 0.89157 0.16771 0.80022 0.0
C256 C 0.93253 0.20467 0.78882 0.0
C257 C 0.96782 0.22535 0.8246 0.0
C258 C 0.96394 0.20914 0.87202 0.0
C259 C 0.92414 0.17287 0.88432 0.0
H260 H 0.80204 0.68603 0.40961 0.0
C261 C 0.79805 0.72149 0.43233 0.0
H262 H 0.77015 0.79559 0.43679 0.0
H263 H 0.81432 0.8242 0.21483 0.0
H264 H 0.8869 0.87582 0.25298 0.0
H265 H 0.90347 0.87411 0.34156 0.0
H266 H 0.84699 0.82137 0.39252 0.0
C267 C 0.77149 0.75871 0.41552 0.0
C268 C 0.76088 0.75848 0.36239 0.0
C269 C 0.79472 0.78936 0.33313 0.0
C270 C 0.78577 0.7895 0.28204 0.0
C271 C 0.81955 0.82168 0.25377 0.0
C272 C 0.86149 0.8517 0.2752 0.0
C273 C 0.87082 0.85073 0.32504 0.0
C274 C 0.83791 0.82024 0.35388 0.0
H275 H 0.66657 0.80409 0.22381 0.0
C276 C 0.69474 0.79425 0.19668 0.0
H277 H 0.76053 0.75582 0.18158 0.0
H278 H 0.68999 0.69438 0.40834 0.0
H279 H 0.61887 0.63972 0.36963 0.0
H280 H 0.60436 0.63845 0.2804 0.0
H281 H 0.66081 0.69195 0.22932 0.0
C282 C 0.73128 0.76401 0.20814 0.0
C283 C 0.7431 0.75855 0.26041 0.0
C284 C 0.71023 0.72657 0.28942 0.0
C285 C 0.71903 0.72671 0.34066 0.0
C286 C 0.68525 0.69515 0.36912 0.0
C287 C 0.6443 0.66375 0.34737 0.0
C288 C 0.63609 0.66309 0.29713 0.0
C289 C 0.66857 0.69408 0.26828 0.0
H290 H 0.16982 0.89977 0.6523 0.0
C291 C 0.14204 0.86761 0.66056 0.0
H292 H 0.112 0.81746 0.71348 0.0
H293 H 0.28151 0.83148 0.87232 0.0
H294 H 0.28043 0.74077 0.84155 0.0
H295 H 0.23244 0.70918 0.76629 0.0
H296 H 0.18497 0.76773 0.72154 0.0
C297 C 0.14034 0.84932 0.70558 0.0
C298 C 0.17517 0.87098 0.74655 0.0
C299 C 0.20378 0.83649 0.77162 0.0
C300 C 0.23171 0.85463 0.8149 0.0
C301 C 0.25917 0.81926 0.83966 0.0
C302 C 0.25912 0.7673 0.82223 0.0
C303 C 0.23211 0.74952 0.77984 0.0
C304 C 0.20481 0.78353 0.75462 0.0
H305 H 0.19086 0.87856 0.91524 0.0
C306 C 0.22264 0.90846 0.92143 0.0
H307 H 0.28 0.95667 0.88823 0.0
H308 H 0.1196 0.94778 0.71243 0.0
H309 H 0.12801 0.03935 0.73919 0.0
H310 H 0.18682 0.07245 0.80623 0.0
H311 H 0.23384 0.01346 0.85054 0.0
C312 C 0.25062 0.92417 0.88316 0.0
C313 C 0.2319 0.90742 0.83262 0.0
C314 C 0.20716 0.94302 0.80526 0.0
C315 C 0.17671 0.92447 0.76357 0.0
C316 C 0.14673 0.9599 0.74148 0.0
C317 C 0.15049 0.01266 0.75696 0.0
C318 C 0.1831 0.03127 0.79524 0.0
C319 C 0.21024 0.99693 0.82003 0.0
H320 H 0.76241 0.81953 0.9366 0.0
C321 C 0.76943 0.86185 0.93746 0.0
H322 H 0.79495 0.92716 0.89797 0.0
H323 H 0.90348 0.74193 0.76755 0.0
H324 H 0.94695 0.72499 0.84239 0.0
H325 H 0.92643 0.76964 0.92103 0.0
H326 H 0.8612 0.83002 0.92566 0.0
C327 C 0.78888 0.88477 0.89741 0.0
C328 C 0.80112 0.85545 0.85021 0.0
C329 C 0.84138 0.82217 0.84759 0.0
C330 C 0.85587 0.79913 0.80145 0.0
C331 C 0.89326 0.76296 0.80087 0.0
C332 C 0.91815 0.75245 0.84368 0.0
C333 C 0.90641 0.77739 0.88799 0.0
C334 C 0.86856 0.81183 0.89015 0.0
H335 H 0.92777 0.82527 0.72134 0.0
C336 C 0.90118 0.80535 0.69434 0.0
H337 H 0.82503 0.7753 0.68069 0.0
H338 H 0.7189 0.91167 0.84171 0.0
H339 H 0.67654 0.92971 0.76645 0.0
H340 H 0.70716 0.89752 0.68646 0.0
H341 H 0.77852 0.84484 0.68086 0.0
C342 C 0.85226 0.79398 0.70767 0.0
C343 C 0.83297 0.81232 0.75717 0.0
C344 C 0.79198 0.84466 0.75998 0.0
C345 C 0.77565 0.86537 0.80632 0.0
C346 C 0.73365 0.89604 0.80762 0.0
C347 C 0.70898 0.90676 0.76475 0.0
C348 C 0.72603 0.88836 0.71967 0.0
C349 C 0.76705 0.85786 0.71706 0.0
H350 H 0.19203 0.93174 0.19612 0.0
C351 C 0.18096 0.97141 0.1974 0.0
H352 H 0.13827 0.02657 0.23482 0.0
H353 H 0.02573 0.80651 0.31847 0.0
H354 H -0.00437 0.78688 0.23523 0.0
H355 H 0.02464 0.84349 0.16929 0.0
H356 H 0.0853 0.91937 0.18596 0.0
C357 C 0.14924 0.98684 0.23345 0.0
C358 C 0.12917 0.95295 0.274 0.0
C359 C 0.09236 0.90935 0.26446 0.0
C360 C 0.07293 0.87834 0.30347 0.0
C361 C 0.03927 0.83321 0.29141 0.0
C362 C 0.02208 0.82111 0.24351 0.0
C363 C 0.03861 0.85285 0.20632 0.0
C364 C 0.0736 0.89622 0.21637 0.0
H365 H -0.00883 0.85756 0.38475 0.0
C366 C 0.02153 0.84674 0.40803 0.0
H367 H 0.10063 0.84924 0.4196 0.0
H368 H 0.19572 0.03542 0.30674 0.0
H369 H 0.21838 0.06164 0.39099 0.0
H370 H 0.18078 0.01233 0.4586 0.0
H371 H 0.12046 0.93642 0.44259 0.0
C372 C 0.07079 0.85931 0.39529 0.0
C373 C 0.08774 0.89258 0.35301 0.0
C374 C 0.12232 0.93815 0.3626 0.0
C375 C 0.14322 0.96769 0.3234 0.0
C376 C 0.17822 0.01204 0.33481 0.0
C377 C 0.19169 0.02752 0.38307 0.0
C378 C 0.17066 -0.00035 0.42112 0.0
C379 C 0.13629 0.95573 0.41129 0.0
H380 H 0.15476 0.25423 0.69746 0.0
C381 C 0.11363 0.2538 0.70088 0.0
H382 H 0.04932 0.24175 0.74456 0.0
H383 H 0.09715 0.07831 0.88819 0.0
H384 H 0.02023 0.03984 0.8465 0.0
H385 H -0.01211 0.07851 0.77357 0.0
H386 H 0.03176 0.15586 0.74231 0.0
C387 C 0.0905 0.24117 0.74313 0.0
C388 C 0.11532 0.21526 0.78378 0.0
C389 C 0.0916 0.167 0.79928 0.0
C390 C 0.11185 0.14296 0.83981 0.0
C391 C 0.08476 0.09723 0.85658 0.0
C392 C 0.04035 0.0747 0.83307 0.0
C393 C 0.02212 0.09649 0.79209 0.0
C394 C 0.04754 0.14156 0.7749 0.0
H395 H 0.18271 0.19714 0.95711 0.0
C396 C 0.18887 0.1564 0.94883 0.0
H397 H 0.18556 0.09457 0.89505 0.0
H398 H 0.16601 0.31137 0.77093 0.0
H399 H 0.24634 0.34662 0.80869 0.0
H400 H 0.28924 0.29734 0.86875 0.0
H401 H 0.25104 0.21351 0.89287 0.0
C402 C 0.18082 0.13571 0.90274 0.0
C403 C 0.15821 0.16457 0.86285 0.0
C404 C 0.18299 0.21175 0.84625 0.0
C405 C 0.1603 0.23829 0.80843 0.0
C406 C 0.18322 0.28788 0.7967 0.0
C407 C 0.22911 0.30885 0.81853 0.0
C408 C 0.25312 0.28124 0.85256 0.0
C409 C 0.23052 0.23328 0.86639 0.0
H410 H 0.75737 0.03444 0.2446 0.0
C411 C 0.78411 0.03843 0.21467 0.0
H412 H 0.85847 0.06277 0.19304 0.0
H413 H 0.93795 0.23067 0.35705 0.0
H414 H 0.94657 0.27779 0.2835 0.0
H415 H 0.91211 0.23809 0.20473 0.0
H416 H 0.86829 0.15125 0.19916 0.0
C417 C 0.83233 0.06088 0.22364 0.0
C418 C 0.85278 0.0845 0.273 0.0
C419 C 0.87902 0.13567 0.27629 0.0
C420 C 0.90037 0.15831 0.32194 0.0
C421 C 0.92363 0.2103 0.32349 0.0
C422 C 0.92822 0.23826 0.28149 0.0
C423 C 0.90872 0.21596 0.23717 0.0
C424 C 0.88389 0.16569 0.23449 0.0
H425 H -0.00604 0.17041 0.39297 0.0
C426 C 0.96722 0.17149 0.42307 0.0
H427 H 0.89114 0.15415 0.44461 0.0
H428 H 0.81748 0.98142 0.27984 0.0
H429 H 0.80665 0.93498 0.35363 0.0
H430 H 0.83564 0.97666 0.43334 0.0
H431 H 0.87708 0.06479 0.43962 0.0
C432 C 0.91758 0.15343 0.41427 0.0
C433 C 0.89658 0.12978 0.36503 0.0
C434 C 0.86989 0.07881 0.36181 0.0
C435 C 0.84994 0.05557 0.31585 0.0
C436 C 0.82916 0.00267 0.31381 0.0
C437 C 0.82367 0.975 0.3559 0.0
C438 C 0.84006 -0.00151 0.40079 0.0
C439 C 0.86355 0.04939 0.40384 0.0
loop_
_geom_bond_atom_site_label_1
_geom_bond_atom_site_label_2
_geom_bond_distance
_geom_bond_site_symmetry_2
_ccdc_geom_bond_type
Dy0 O4 2.398 . S
Dy0 O5 2.491 . S
Dy0 O6 2.403 . S
Dy0 O7 2.664 1_554 S
Dy0 O11 2.326 . S
Dy0 O15 2.310 . S
Dy0 O16 2.351 1_554 S
C1 O12 1.185 . S
C1 O13 1.355 . S
C2 O4 1.185 . S
C2 O5 1.355 . S
Dy3 O7 2.310 1_565 S
Dy3 O10 2.351 1_556 S
Dy3 O12 2.398 . S
Dy3 O13 2.491 . S
Dy3 O14 2.403 . S
Dy3 O15 2.664 1_566 S
Dy3 O17 2.326 1_565 S
O4 Dy0 2.398 . S
O4 C2 1.185 . S
O5 Dy0 2.491 . S
O5 C2 1.355 . S
O6 Dy0 2.403 . S
O6 C8 1.254 . S
O7 Dy0 2.664 1_556 S
O7 Dy3 2.310 1_545 S
O7 C8 1.268 1_556 S
C8 O6 1.254 . S
C8 O7 1.268 1_554 S
C9 O14 1.254 1_544 S
C9 O15 1.268 . S
O10 Dy3 2.351 1_554 S
O10 C18 1.249 . S
O11 Dy0 2.326 . S
O11 C18 1.267 1_545 S
O12 C1 1.185 . S
O12 Dy3 2.398 . S
O13 C1 1.355 . S
O13 Dy3 2.491 . S
O14 Dy3 2.403 . S
O14 C9 1.254 1_566 S
O15 Dy0 2.310 . S
O15 Dy3 2.664 1_544 S
O15 C9 1.268 . S
O16 Dy0 2.351 1_556 S
O16 C19 1.249 . S
O17 Dy3 2.326 1_545 S
O17 C19 1.267 . S
C18 O10 1.249 . S
C18 O11 1.267 1_565 S
C19 O16 1.249 . S
C19 O17 1.267 . S
Dy20 O24 2.398 . S
Dy20 O25 2.491 . S
Dy20 O26 2.403 . S
Dy20 O27 2.664 1_655 S
Dy20 O31 2.326 1_655 S
Dy20 O35 2.310 1_655 S
Dy20 O36 2.351 . S
C21 O32 1.185 . S
C21 O33 1.355 . S
C22 O24 1.185 . S
C22 O25 1.355 . S
Dy23 O27 2.310 . S
Dy23 O30 2.351 . S
Dy23 O32 2.398 . S
Dy23 O33 2.491 . S
Dy23 O34 2.403 . S
Dy23 O35 2.664 . S
Dy23 O37 2.326 . S
O24 Dy20 2.398 . S
O24 C22 1.185 . S
O25 Dy20 2.491 . S
O25 C22 1.355 . S
O26 Dy20 2.403 . S
O26 C28 1.254 1_655 S
O27 Dy20 2.664 1_455 S
O27 Dy23 2.310 . S
O27 C28 1.268 . S
C28 O26 1.254 1_455 S
C28 O27 1.268 . S
C29 O34 1.254 . S
C29 O35 1.268 . S
O30 Dy23 2.351 . S
O30 C38 1.249 . S
O31 Dy20 2.326 1_455 S
O31 C38 1.267 . S
O32 C21 1.185 . S
O32 Dy23 2.398 . S
O33 C21 1.355 . S
O33 Dy23 2.491 . S
O34 Dy23 2.403 . S
O34 C29 1.254 . S
O35 Dy20 2.310 1_455 S
O35 Dy23 2.664 . S
O35 C29 1.268 . S
O36 Dy20 2.351 . S
O36 C39 1.249 . S
O37 Dy23 2.326 . S
O37 C39 1.267 1_455 S
C38 O30 1.249 . S
C38 O31 1.267 . S
C39 O36 1.249 . S
C39 O37 1.267 1_655 S
Dy40 O44 2.398 . S
Dy40 O45 2.491 . S
Dy40 O46 2.403 . S
Dy40 O47 2.664 1_564 S
Dy40 O51 2.326 1_565 S
Dy40 O55 2.310 . S
Dy40 O56 2.351 1_554 S
C41 O52 1.185 . S
C41 O53 1.355 . S
C42 O44 1.185 . S
C42 O45 1.355 . S
Dy43 O47 2.310 . S
Dy43 O50 2.351 1_556 S
Dy43 O52 2.398 . S
Dy43 O53 2.491 . S
Dy43 O54 2.403 . S
Dy43 O55 2.664 1_546 S
Dy43 O57 2.326 1_545 S
O44 Dy40 2.398 . S
O44 C42 1.185 . S
O45 Dy40 2.491 . S
O45 C42 1.355 . S
O46 Dy40 2.403 . S
O46 C48 1.254 . S
O47 Dy40 2.664 1_546 S
O47 Dy43 2.310 . S
O47 C48 1.268 1_546 S
C48 O46 1.254 . S
C48 O47 1.268 1_564 S
C49 O54 1.254 1_554 S
C49 O55 1.268 1_545 S
O50 Dy43 2.351 1_554 S
O50 C58 1.249 . S
O51 Dy40 2.326 1_545 S
O51 C58 1.267 . S
O52 C41 1.185 . S
O52 Dy43 2.398 . S
O53 C41 1.355 . S
O53 Dy43 2.491 . S
O54 Dy43 2.403 . S
O54 C49 1.254 1_556 S
O55 Dy40 2.310 . S
O55 Dy43 2.664 1_564 S
O55 C49 1.268 1_565 S
O56 Dy40 2.351 1_556 S
O56 C59 1.249 . S
O57 Dy43 2.326 1_565 S
O57 C59 1.267 . S
C58 O50 1.249 . S
C58 O51 1.267 . S
C59 O56 1.249 . S
C59 O57 1.267 . S
Dy60 O64 2.398 . S
Dy60 O65 2.491 . S
Dy60 O66 2.403 . S
Dy60 O67 2.664 1_655 S
Dy60 O71 2.326 1_655 S
Dy60 O75 2.307 1_655 S
Dy60 O76 2.351 . S
C61 O72 1.185 . S
C61 O73 1.355 . S
C62 O64 1.185 . S
C62 O65 1.355 . S
Dy63 O67 2.310 . S
Dy63 O70 2.351 . S
Dy63 O72 2.398 . S
Dy63 O73 2.491 . S
Dy63 O74 2.403 . S
Dy63 O75 2.668 . S
Dy63 O77 2.320 1_455 S
O64 Dy60 2.398 . S
O64 C62 1.185 . S
O65 Dy60 2.491 . S
O65 C62 1.355 . S
O66 Dy60 2.403 . S
O66 C68 1.254 . S
O67 Dy60 2.664 1_455 S
O67 Dy63 2.310 . S
O67 C68 1.268 1_455 S
C68 O66 1.254 . S
C68 O67 1.268 1_655 S
C69 O74 1.254 . S
C69 O75 1.269 . S
O70 Dy63 2.351 . S
O70 C78 1.249 . S
O71 Dy60 2.326 1_455 S
O71 C78 1.267 . S
O72 C61 1.185 . S
O72 Dy63 2.398 . S
O73 C61 1.355 . S
O73 Dy63 2.491 . S
O74 Dy63 2.403 . S
O74 C69 1.254 . S
O75 Dy60 2.307 1_455 S
O75 Dy63 2.668 . S
O75 C69 1.269 . S
O76 Dy60 2.351 . S
O76 C79 1.249 . S
O77 Dy63 2.320 1_655 S
O77 C79 1.274 . S
C78 O70 1.249 . S
C78 O71 1.267 . S
C79 O76 1.249 . S
C79 O77 1.274 . S
H80 C81 0.951 . S
C81 H80 0.951 . S
C81 C87 1.265 1_545 S
H82 C87 0.950 . S
H83 C91 0.949 1_545 S
H84 C92 0.950 . S
H85 C93 0.951 1_655 S
H86 C94 0.951 . S
C87 C81 1.265 1_565 S
C87 H82 0.950 . S
C87 C88 1.478 . S
C88 C87 1.478 . S
C88 C89 1.397 1_554 S
C88 C105 1.394 1_565 S
C89 C88 1.397 1_556 S
C89 C90 1.438 1_665 S
C89 C94 1.429 . S
C90 C89 1.438 1_445 S
C90 C91 1.428 1_545 S
C90 C103 1.394 1_556 S
C91 H83 0.949 1_565 S
C91 C90 1.428 1_565 S
C91 C92 1.345 . S
C92 H84 0.950 . S
C92 C91 1.345 . S
C92 C93 1.424 . S
C93 H85 0.951 1_455 S
C93 C92 1.424 . S
C93 C94 1.347 1_455 S
C94 H86 0.951 . S
C94 C89 1.429 . S
C94 C93 1.347 1_655 S
H95 C96 0.951 1_565 S
C96 H95 0.951 1_545 S
C96 C102 1.265 . S
H97 C102 0.950 . S
H98 C106 0.949 . S
H99 C107 0.950 . S
H100 C108 0.951 . S
H101 C109 0.951 . S
C102 C96 1.265 . S
C102 H97 0.950 . S
C102 C103 1.478 . S
C103 C90 1.394 1_554 S
C103 C102 1.478 . S
C103 C104 1.397 . S
C104 C103 1.397 . S
C104 C105 1.438 1_455 S
C104 C109 1.429 . S
C105 C88 1.394 1_545 S
C105 C104 1.438 1_655 S
C105 C106 1.428 . S
C106 H98 0.949 . S
C106 C105 1.428 . S
C106 C107 1.345 . S
C107 H99 0.950 . S
C107 C106 1.345 . S
C107 C108 1.424 1_655 S
C108 H100 0.951 . S
C108 C107 1.424 1_455 S
C108 C109 1.347 . S
C109 H101 0.951 . S
C109 C104 1.429 . S
C109 C108 1.347 . S
H110 C111 0.951 . S
C111 H110 0.951 . S
C111 C117 1.265 1_455 S
H112 C117 0.950 . S
H113 C121 0.949 . S
H114 C122 0.950 . S
H115 C123 0.951 . S
H116 C124 0.951 . S
C117 C111 1.265 1_655 S
C117 H112 0.950 . S
C117 C118 1.478 . S
C118 C117 1.478 . S
C118 C119 1.397 . S
C118 C135 1.394 1_655 S
C119 C118 1.397 . S
C119 C120 1.438 1_565 S
C119 C124 1.429 . S
C120 C119 1.438 1_545 S
C120 C121 1.428 . S
C120 C133 1.394 1_655 S
C121 H113 0.949 . S
C121 C120 1.428 . S
C121 C122 1.345 . S
C122 H114 0.950 . S
C122 C121 1.345 . S
C122 C123 1.424 1_545 S
C123 H115 0.951 . S
C123 C122 1.424 1_565 S
C123 C124 1.347 . S
C124 H116 0.951 . S
C124 C119 1.429 . S
C124 C123 1.347 . S
H125 C126 0.951 1_655 S
C126 H125 0.951 1_455 S
C126 C132 1.265 . S
H127 C132 0.950 . S
H128 C136 0.949 . S
H129 C137 0.950 . S
H130 C138 0.951 . S
H131 C139 0.951 . S
C132 C126 1.265 . S
C132 H127 0.950 . S
C132 C133 1.478 . S
C133 C120 1.394 1_455 S
C133 C132 1.478 . S
C133 C134 1.397 . S
C134 C133 1.397 . S
C134 C135 1.438 1_545 S
C134 C139 1.429 . S
C135 C118 1.394 1_455 S
C135 C134 1.438 1_565 S
C135 C136 1.428 . S
C136 H128 0.949 . S
C136 C135 1.428 . S
C136 C137 1.345 . S
C137 H129 0.950 . S
C137 C136 1.345 . S
C137 C138 1.424 1_565 S
C138 H130 0.951 . S
C138 C137 1.424 1_545 S
C138 C139 1.347 . S
C139 H131 0.951 . S
C139 C134 1.429 . S
C139 C138 1.347 . S
H140 C141 0.951 . S
C141 H140 0.951 . S
C141 C147 1.265 1_565 S
H142 C147 0.950 . S
H143 C151 0.949 . S
H144 C152 0.950 . S
H145 C153 0.951 . S
H146 C154 0.951 . S
C147 C141 1.265 1_545 S
C147 H142 0.950 . S
C147 C148 1.478 . S
C148 C147 1.478 . S
C148 C149 1.397 . S
C148 C165 1.394 1_556 S
C149 C148 1.397 . S
C149 C150 1.438 . S
C149 C154 1.429 . S
C150 C149 1.438 . S
C150 C151 1.428 . S
C150 C163 1.394 . S
C151 H143 0.949 . S
C151 C150 1.428 . S
C151 C152 1.345 . S
C152 H144 0.950 . S
C152 C151 1.345 . S
C152 C153 1.424 . S
C153 H145 0.951 . S
C153 C152 1.424 . S
C153 C154 1.347 . S
C154 H146 0.951 . S
C154 C149 1.429 . S
C154 C153 1.347 . S
H155 C156 0.953 . S
C156 H155 0.953 . S
C156 C162 1.264 . S
H157 C162 0.949 1_564 S
H158 C166 0.949 . S
H159 C167 0.950 . S
H160 C168 0.951 . S
H161 C169 0.951 . S
C162 C156 1.264 . S
C162 H157 0.949 1_546 S
C162 C163 1.478 . S
C163 C150 1.394 . S
C163 C162 1.478 . S
C163 C164 1.397 1_546 S
C164 C163 1.397 1_564 S
C164 C165 1.438 1_565 S
C164 C169 1.429 . S
C165 C148 1.394 1_554 S
C165 C164 1.438 1_545 S
C165 C166 1.428 1_545 S
C166 H158 0.949 . S
C166 C165 1.428 1_565 S
C166 C167 1.345 . S
C167 H159 0.950 . S
C167 C166 1.345 . S
C167 C168 1.424 . S
C168 H160 0.951 . S
C168 C167 1.424 . S
C168 C169 1.347 . S
C169 H161 0.951 . S
C169 C164 1.429 . S
C169 C168 1.347 . S
H170 C171 0.951 1_655 S
C171 H170 0.951 1_455 S
C171 C177 1.265 . S
H172 C177 0.950 . S
H173 C181 0.949 . S
H174 C182 0.950 . S
H175 C183 0.951 . S
H176 C184 0.951 . S
C177 C171 1.265 . S
C177 H172 0.950 . S
C177 C178 1.478 . S
C178 C177 1.478 . S
C178 C179 1.397 . S
C178 C195 1.394 1_455 S
C179 C178 1.397 . S
C179 C180 1.438 . S
C179 C184 1.429 . S
C180 C179 1.438 . S
C180 C181 1.428 . S
C180 C193 1.394 1_455 S
C181 H173 0.949 . S
C181 C180 1.428 . S
C181 C182 1.345 . S
C182 H174 0.950 . S
C182 C181 1.345 . S
C182 C183 1.424 . S
C183 H175 0.951 . S
C183 C182 1.424 . S
C183 C184 1.347 . S
C184 H176 0.951 . S
C184 C179 1.429 . S
C184 C183 1.347 . S
H185 C186 0.951 . S
C186 H185 0.951 . S
C186 C192 1.265 1_455 S
H187 C192 0.950 . S
H188 C196 0.949 . S
H189 C197 0.950 . S
H190 C198 0.951 . S
H191 C199 0.951 . S
C192 C186 1.265 1_655 S
C192 H187 0.950 . S
C192 C193 1.478 . S
C193 C180 1.394 1_655 S
C193 C192 1.478 . S
C193 C194 1.397 . S
C194 C193 1.397 . S
C194 C195 1.438 . S
C194 C199 1.429 . S
C195 C178 1.394 1_655 S
C195 C194 1.438 . S
C195 C196 1.428 . S
C196 H188 0.949 . S
C196 C195 1.428 . S
C196 C197 1.345 . S
C197 H189 0.950 . S
C197 C196 1.345 . S
C197 C198 1.424 . S
C198 H190 0.951 . S
C198 C197 1.424 . S
C198 C199 1.347 . S
C199 H191 0.951 . S
C199 C194 1.429 . S
C199 C198 1.347 . S
H200 C201 0.951 . S
C201 H200 0.951 . S
C201 C207 1.265 . S
H202 C207 0.950 . S
H203 C211 0.949 . S
H204 C212 0.950 . S
H205 C213 0.951 . S
H206 C214 0.951 . S
C207 C201 1.265 . S
C207 H202 0.950 . S
C207 C208 1.478 . S
C208 C207 1.478 . S
C208 C209 1.397 . S
C208 C225 1.394 . S
C209 C208 1.397 . S
C209 C210 1.438 . S
C209 C214 1.429 . S
C210 C209 1.438 . S
C210 C211 1.428 . S
C210 C223 1.394 . S
C211 H203 0.949 . S
C211 C210 1.428 . S
C211 C212 1.345 . S
C212 H204 0.950 . S
C212 C211 1.345 . S
C212 C213 1.424 . S
C213 H205 0.951 . S
C213 C212 1.424 . S
C213 C214 1.347 . S
C214 H206 0.951 . S
C214 C209 1.429 . S
C214 C213 1.347 . S
H215 C216 0.951 . S
C216 H215 0.951 . S
C216 C222 1.265 . S
H217 C222 0.950 . S
H218 C226 0.949 . S
H219 C227 0.950 . S
H220 C228 0.951 . S
H221 C229 0.951 . S
C222 C216 1.265 . S
C222 H217 0.950 . S
C222 C223 1.478 . S
C223 C210 1.394 . S
C223 C222 1.478 . S
C223 C224 1.397 . S
C224 C223 1.397 . S
C224 C225 1.438 . S
C224 C229 1.429 . S
C225 C208 1.394 . S
C225 C224 1.438 . S
C225 C226 1.428 . S
C226 H218 0.949 . S
C226 C225 1.428 . S
C226 C227 1.345 . S
C227 H219 0.950 . S
C227 C226 1.345 . S
C227 C228 1.424 . S
C228 H220 0.951 . S
C228 C227 1.424 . S
C228 C229 1.347 . S
C229 H221 0.951 . S
C229 C224 1.429 . S
C229 C228 1.347 . S
H230 C231 0.951 . S
C231 H230 0.951 . S
C231 C237 1.265 . S
H232 C237 0.950 . S
H233 C241 0.949 . S
H234 C242 0.950 . S
H235 C243 0.951 . S
H236 C244 0.951 . S
C237 C231 1.265 . S
C237 H232 0.950 . S
C237 C238 1.478 . S
C238 C237 1.478 . S
C238 C239 1.397 . S
C238 C255 1.394 . S
C239 C238 1.397 . S
C239 C240 1.438 . S
C239 C244 1.429 . S
C240 C239 1.438 . S
C240 C241 1.428 . S
C240 C253 1.394 . S
C241 H233 0.949 . S
C241 C240 1.428 . S
C241 C242 1.345 . S
C242 H234 0.950 . S
C242 C241 1.345 . S
C242 C243 1.424 . S
C243 H235 0.951 . S
C243 C242 1.424 . S
C243 C244 1.347 . S
C244 H236 0.951 . S
C244 C239 1.429 . S
C244 C243 1.347 . S
H245 C246 0.951 . S
C246 H245 0.951 . S
C246 C252 1.265 . S
H247 C252 0.950 . S
H248 C256 0.949 . S
H249 C257 0.950 1_455 S
H250 C258 0.951 . S
H251 C259 0.951 . S
C252 C246 1.265 . S
C252 H247 0.950 . S
C252 C253 1.478 . S
C253 C240 1.394 . S
C253 C252 1.478 . S
C253 C254 1.397 . S
C254 C253 1.397 . S
C254 C255 1.438 . S
C254 C259 1.429 . S
C255 C238 1.394 . S
C255 C254 1.438 . S
C255 C256 1.428 . S
C256 H248 0.949 . S
C256 C255 1.428 . S
C256 C257 1.345 . S
C257 H249 0.950 1_655 S
C257 C256 1.345 . S
C257 C258 1.424 . S
C258 H250 0.951 . S
C258 C257 1.424 . S
C258 C259 1.347 . S
C259 H251 0.951 . S
C259 C254 1.429 . S
C259 C258 1.347 . S
H260 C261 0.951 . S
C261 H260 0.951 . S
C261 C267 1.265 . S
H262 C267 0.950 . S
H263 C271 0.949 . S
H264 C272 0.950 1_545 S
H265 C273 0.951 . S
H266 C274 0.951 . S
C267 C261 1.265 . S
C267 H262 0.950 . S
C267 C268 1.478 . S
C268 C267 1.478 . S
C268 C269 1.397 . S
C268 C285 1.394 . S
C269 C268 1.397 . S
C269 C270 1.438 . S
C269 C274 1.429 . S
C270 C269 1.438 . S
C270 C271 1.428 . S
C270 C283 1.394 . S
C271 H263 0.949 . S
C271 C270 1.428 . S
C271 C272 1.345 . S
C272 H264 0.950 1_565 S
C272 C271 1.345 . S
C272 C273 1.424 . S
C273 H265 0.951 . S
C273 C272 1.424 . S
C273 C274 1.347 . S
C274 H266 0.951 . S
C274 C269 1.429 . S
C274 C273 1.347 . S
H275 C276 0.951 . S
C276 H275 0.951 . S
C276 C282 1.265 . S
H277 C282 0.950 . S
H278 C286 0.949 . S
H279 C287 0.950 . S
H280 C288 0.951 . S
H281 C289 0.951 . S
C282 C276 1.265 . S
C282 H277 0.950 . S
C282 C283 1.478 . S
C283 C270 1.394 . S
C283 C282 1.478 . S
C283 C284 1.397 . S
C284 C283 1.397 . S
C284 C285 1.438 . S
C284 C289 1.429 . S
C285 C268 1.394 . S
C285 C284 1.438 . S
C285 C286 1.428 . S
C286 H278 0.949 . S
C286 C285 1.428 . S
C286 C287 1.345 . S
C287 H279 0.950 . S
C287 C286 1.345 . S
C287 C288 1.424 . S
C288 H280 0.951 . S
C288 C287 1.424 . S
C288 C289 1.347 . S
C289 H281 0.951 . S
C289 C284 1.429 . S
C289 C288 1.347 . S
H290 C291 0.951 . S
C291 H290 0.951 . S
C291 C297 1.265 . S
H292 C297 0.950 . S
H293 C301 0.949 . S
H294 C302 0.950 . S
H295 C303 0.951 . S
H296 C304 0.951 . S
C297 C291 1.265 . S
C297 H292 0.950 . S
C297 C298 1.478 . S
C298 C297 1.478 . S
C298 C299 1.397 . S
C298 C315 1.394 . S
C299 C298 1.397 . S
C299 C300 1.438 . S
C299 C304 1.429 . S
C300 C299 1.438 . S
C300 C301 1.428 . S
C300 C313 1.394 . S
C301 H293 0.949 . S
C301 C300 1.428 . S
C301 C302 1.345 . S
C302 H294 0.950 . S
C302 C301 1.345 . S
C302 C303 1.424 . S
C303 H295 0.951 . S
C303 C302 1.424 . S
C303 C304 1.347 . S
C304 H296 0.951 . S
C304 C299 1.429 . S
C304 C303 1.347 . S
H305 C306 0.951 . S
C306 H305 0.951 . S
C306 C312 1.265 . S
H307 C312 0.950 . S
H308 C316 0.949 . S
H309 C317 0.950 . S
H310 C318 0.951 . S
H311 C319 0.951 . S
C312 C306 1.265 . S
C312 H307 0.950 . S
C312 C313 1.478 . S
C313 C300 1.394 . S
C313 C312 1.478 . S
C313 C314 1.397 . S
C314 C313 1.397 . S
C314 C315 1.438 . S
C314 C319 1.429 . S
C315 C298 1.394 . S
C315 C314 1.438 . S
C315 C316 1.428 . S
C316 H308 0.949 . S
C316 C315 1.428 . S
C316 C317 1.345 . S
C317 H309 0.950 . S
C317 C316 1.345 . S
C317 C318 1.424 1_565 S
C318 H310 0.951 . S
C318 C317 1.424 1_545 S
C318 C319 1.347 1_545 S
C319 H311 0.951 . S
C319 C314 1.429 . S
C319 C318 1.347 1_565 S
H320 C321 0.951 . S
C321 H320 0.951 . S
C321 C327 1.265 . S
H322 C327 0.950 . S
H323 C331 0.949 . S
H324 C332 0.950 . S
H325 C333 0.951 . S
H326 C334 0.951 . S
C327 C321 1.265 . S
C327 H322 0.950 . S
C327 C328 1.478 . S
C328 C327 1.478 . S
C328 C329 1.397 . S
C328 C345 1.394 . S
C329 C328 1.397 . S
C329 C330 1.438 . S
C329 C334 1.429 . S
C330 C329 1.438 . S
C330 C331 1.428 . S
C330 C343 1.394 . S
C331 H323 0.949 . S
C331 C330 1.428 . S
C331 C332 1.345 . S
C332 H324 0.950 . S
C332 C331 1.345 . S
C332 C333 1.424 . S
C333 H325 0.951 . S
C333 C332 1.424 . S
C333 C334 1.347 . S
C334 H326 0.951 . S
C334 C329 1.429 . S
C334 C333 1.347 . S
H335 C336 0.951 . S
C336 H335 0.951 . S
C336 C342 1.265 . S
H337 C342 0.950 . S
H338 C346 0.949 . S
H339 C347 0.950 . S
H340 C348 0.951 1_545 S
H341 C349 0.951 . S
C342 C336 1.265 . S
C342 H337 0.950 . S
C342 C343 1.478 . S
C343 C330 1.394 . S
C343 C342 1.478 . S
C343 C344 1.397 . S
C344 C343 1.397 . S
C344 C345 1.438 . S
C344 C349 1.429 . S
C345 C328 1.394 . S
C345 C344 1.438 . S
C345 C346 1.428 . S
C346 H338 0.949 . S
C346 C345 1.428 . S
C346 C347 1.345 1_565 S
C347 H339 0.950 . S
C347 C346 1.345 1_545 S
C347 C348 1.424 1_545 S
C348 H340 0.951 1_565 S
C348 C347 1.424 1_565 S
C348 C349 1.347 . S
C349 H341 0.951 . S
C349 C344 1.429 . S
C349 C348 1.347 . S
H350 C351 0.951 . S
C351 H350 0.951 . S
C351 C357 1.265 . S
H352 C357 0.950 . S
H353 C361 0.949 . S
H354 C362 0.950 . S
H355 C363 0.951 . S
H356 C364 0.951 . S
C357 C351 1.265 . S
C357 H352 0.950 . S
C357 C358 1.478 . S
C358 C357 1.478 . S
C358 C359 1.397 . S
C358 C375 1.394 . S
C359 C358 1.397 . S
C359 C360 1.438 . S
C359 C364 1.429 . S
C360 C359 1.438 . S
C360 C361 1.428 . S
C360 C373 1.394 . S
C361 H353 0.949 . S
C361 C360 1.428 . S
C361 C362 1.345 . S
C362 H354 0.950 . S
C362 C361 1.345 . S
C362 C363 1.424 . S
C363 H355 0.951 . S
C363 C362 1.424 . S
C363 C364 1.347 . S
C364 H356 0.951 . S
C364 C359 1.429 . S
C364 C363 1.347 . S
H365 C366 0.951 . S
C366 H365 0.951 . S
C366 C372 1.265 . S
H367 C372 0.950 . S
H368 C376 0.949 1_545 S
H369 C377 0.950 . S
H370 C378 0.951 1_545 S
H371 C379 0.951 . S
C372 C366 1.265 . S
C372 H367 0.950 . S
C372 C373 1.478 . S
C373 C360 1.394 . S
C373 C372 1.478 . S
C373 C374 1.397 . S
C374 C373 1.397 . S
C374 C375 1.438 . S
C374 C379 1.429 . S
C375 C358 1.394 . S
C375 C374 1.438 . S
C375 C376 1.428 . S
C376 H368 0.949 1_565 S
C376 C375 1.428 . S
C376 C377 1.345 1_565 S
C377 H369 0.950 . S
C377 C376 1.345 1_545 S
C377 C378 1.424 1_545 S
C378 H370 0.951 1_565 S
C378 C377 1.424 1_565 S
C378 C379 1.347 . S
C379 H371 0.951 . S
C379 C374 1.429 . S
C379 C378 1.347 . S
H380 C381 0.951 . S
C381 H380 0.951 . S
C381 C387 1.265 . S
H382 C387 0.950 . S
H383 C391 0.949 . S
H384 C392 0.950 1_565 S
H385 C393 0.951 . S
H386 C394 0.951 . S
C387 C381 1.265 . S
C387 H382 0.950 . S
C387 C388 1.478 . S
C388 C387 1.478 . S
C388 C389 1.397 . S
C388 C405 1.394 . S
C389 C388 1.397 . S
C389 C390 1.438 . S
C389 C394 1.429 . S
C390 C389 1.438 . S
C390 C391 1.428 . S
C390 C403 1.394 . S
C391 H383 0.949 . S
C391 C390 1.428 . S
C391 C392 1.345 . S
C392 H384 0.950 1_545 S
C392 C391 1.345 . S
C392 C393 1.424 . S
C393 H385 0.951 . S
C393 C392 1.424 . S
C393 C394 1.347 . S
C394 H386 0.951 . S
C394 C389 1.429 . S
C394 C393 1.347 . S
H395 C396 0.951 . S
C396 H395 0.951 . S
C396 C402 1.265 . S
H397 C402 0.950 . S
H398 C406 0.949 . S
H399 C407 0.950 . S
H400 C408 0.951 . S
H401 C409 0.951 . S
C402 C396 1.265 . S
C402 H397 0.950 . S
C402 C403 1.478 . S
C403 C390 1.394 . S
C403 C402 1.478 . S
C403 C404 1.397 . S
C404 C403 1.397 . S
C404 C405 1.438 . S
C404 C409 1.429 . S
C405 C388 1.394 . S
C405 C404 1.438 . S
C405 C406 1.428 . S
C406 H398 0.949 . S
C406 C405 1.428 . S
C406 C407 1.345 . S
C407 H399 0.950 . S
C407 C406 1.345 . S
C407 C408 1.424 . S
C408 H400 0.951 . S
C408 C407 1.424 . S
C408 C409 1.347 . S
C409 H401 0.951 . S
C409 C404 1.429 . S
C409 C408 1.347 . S
H410 C411 0.951 . S
C411 H410 0.951 . S
C411 C417 1.265 . S
H412 C417 0.950 . S
H413 C421 0.949 . S
H414 C422 0.950 . S
H415 C423 0.951 . S
H416 C424 0.951 . S
C417 C411 1.265 . S
C417 H412 0.950 . S
C417 C418 1.478 . S
C418 C417 1.478 . S
C418 C419 1.397 . S
C418 C435 1.394 . S
C419 C418 1.397 . S
C419 C420 1.438 . S
C419 C424 1.429 . S
C420 C419 1.438 . S
C420 C421 1.428 . S
C420 C433 1.394 . S
C421 H413 0.949 . S
C421 C420 1.428 . S
C421 C422 1.345 . S
C422 H414 0.950 . S
C422 C421 1.345 . S
C422 C423 1.424 . S
C423 H415 0.951 . S
C423 C422 1.424 . S
C423 C424 1.347 . S
C424 H416 0.951 . S
C424 C419 1.429 . S
C424 C423 1.347 . S
H425 C426 0.951 . S
C426 H425 0.951 . S
C426 C432 1.265 . S
H427 C432 0.950 . S
H428 C436 0.949 . S
H429 C437 0.950 1_565 S
H430 C438 0.951 1_565 S
H431 C439 0.951 . S
C432 C426 1.265 . S
C432 H427 0.950 . S
C432 C433 1.478 . S
C433 C420 1.394 . S
C433 C432 1.478 . S
C433 C434 1.397 . S
C434 C433 1.397 . S
C434 C435 1.438 . S
C434 C439 1.429 . S
C435 C418 1.394 . S
C435 C434 1.438 . S
C435 C436 1.428 . S
C436 H428 0.949 . S
C436 C435 1.428 . S
C436 C437 1.345 . S
C437 H429 0.950 1_545 S
C437 C436 1.345 . S
C437 C438 1.424 . S
C438 H430 0.951 1_545 S
C438 C437 1.424 . S
C438 C439 1.347 . S
C439 H431 0.951 . S
C439 C434 1.429 . S
C439 C438 1.347 . S
C81 C49 0.899 . S
C96 C9 0.907 . S
C111 C69 0.889 . S
C126 C29 0.980 . S
C141 C48 0.970 1_556 S
C156 C8 0.966 1_556 S
C171 C28 0.915 . S
C186 C68 1.031 1_455 S
C201 C21 0.794 . S
C216 C2 0.799 . S
C231 C22 0.842 . S
C246 C41 0.885 . S
C261 C62 0.872 . S
C276 C42 0.863 . S
C291 C61 0.728 . S
C306 C1 0.680 . S
C321 C59 2.328 . S
C336 C79 2.312 . S
C351 C18 2.484 . S
C366 C78 2.468 . S
C381 C38 2.507 . S
C396 C19 2.385 . S
C411 C58 2.361 . S
C426 C39 2.297 . S
