# Generated by pormake.
# Topology sra, (4)-cn, num edge types: 1
# Building blocks:
#     Node 0, Type 0, BuildingBlock: AZAVOO_clean_sbu_0, # of connection points: 4
#     Node 1, Type 0, BuildingBlock: AZAVOO_clean_sbu_0, # of connection points: 4
#     Node 2, Type 0, BuildingBlock: AZAVOO_clean_sbu_0, # of connection points: 4
#     Node 3, Type 0, BuildingBlock: AZAVOO_clean_sbu_0, # of connection points: 4
#     Node 4, Type 0, BuildingBlock: AZAVOO_clean_sbu_0, # of connection points: 4
#     Node 5, Type 0, BuildingBlock: AZAVOO_clean_sbu_0, # of connection points: 4
#     Node 6, Type 0, BuildingBlock: AZAVOO_clean_sbu_0, # of connection points: 4
#     Node 7, Type 0, BuildingBlock: AZAVOO_clean_sbu_0, # of connection points: 4
#     Edge 8, Type (0, 0), BuildingBlock: MIFKUJ_clean_linker_0, # of connection points: 2
#     Edge 9, Type (0, 0), BuildingBlock: MIFKUJ_clean_linker_0, # of connection points: 2
#     Edge 10, Type (0, 0), BuildingBlock: MIFKUJ_clean_linker_0, # of connection points: 2
#     Edge 11, Type (0, 0), BuildingBlock: MIFKUJ_clean_linker_0, # of connection points: 2
#     Edge 12, Type (0, 0), BuildingBlock: MIFKUJ_clean_linker_0, # of connection points: 2
#     Edge 13, Type (0, 0), BuildingBlock: MIFKUJ_clean_linker_0, # of connection points: 2
#     Edge 14, Type (0, 0), BuildingBlock: MIFKUJ_clean_linker_0, # of connection points: 2
#     Edge 15, Type (0, 0), BuildingBlock: MIFKUJ_clean_linker_0, # of connection points: 2
#     Edge 16, Type (0, 0), BuildingBlock: MIFKUJ_clean_linker_0, # of connection points: 2
#     Edge 17, Type (0, 0), BuildingBlock: MIFKUJ_clean_linker_0, # of connection points: 2
#     Edge 18, Type (0, 0), BuildingBlock: MIFKUJ_clean_linker_0, # of connection points: 2
#     Edge 19, Type (0, 0), BuildingBlock: MIFKUJ_clean_linker_0, # of connection points: 2
#     Edge 20, Type (0, 0), BuildingBlock: MIFKUJ_clean_linker_0, # of connection points: 2
#     Edge 21, Type (0, 0), BuildingBlock: MIFKUJ_clean_linker_0, # of connection points: 2
#     Edge 22, Type (0, 0), BuildingBlock: MIFKUJ_clean_linker_0, # of connection points: 2
#     Edge 23, Type (0, 0), BuildingBlock: MIFKUJ_clean_linker_0, # of connection points: 2
# Relax obj value: 0.077
# Max RMSD: 0.073
# Mean RMSD: 0.073
data_MOF--net-sra--node1-AZAVOO_clean_sbu_0--edge1-MIFKUJ_clean_linker_0
_symmetry_space_group_name_H-M    P1
_symmetry_Int_Tables_number       1
_symmetry_cell_setting            triclinic
loop_
_symmetry_equiv_pos_as_xyz
'x, y, z'
_cell_length_a     34.659569
_cell_length_b     50.900963
_cell_length_c     56.953147
_cell_angle_alpha  90.119065
_cell_angle_beta   90.000626
_cell_angle_gamma 89.932232
loop_
_atom_site_label
_atom_site_type_symbol
_atom_site_fract_x
_atom_site_fract_y
_atom_site_fract_z
_atom_type_partial_charge
Mg0 Mg 0.00518 0.06541 0.17368 0.0
O1 O 0.0104 0.11024 0.16925 0.0
O2 O 0.06996 0.11854 0.15607 0.0
Mg3 Mg 0.10118 0.07966 0.15018 0.0
C4 C 0.03673 0.12628 0.16288 0.0
C5 C 0.93026 0.05756 0.1991 0.0
O6 O 0.95637 0.04497 0.21146 0.0
O7 O -0.00281 0.06069 0.13421 0.0
O8 O 0.05706 0.06874 0.12155 0.0
O9 O 0.03015 0.0683 0.20958 0.0
O10 O 0.06493 0.06218 0.17755 0.0
C11 C 0.02183 0.0627 0.11764 0.0
C12 C 0.06375 0.06602 0.19991 0.0
O13 O 0.94062 0.06891 0.18027 0.0
Mg14 Mg 0.00101 0.46569 0.1601 0.0
O15 O -0.00505 0.42081 0.15578 0.0
O16 O 0.93722 0.41245 0.13993 0.0
Mg17 Mg 0.90855 0.45151 0.13162 0.0
C18 C 0.96922 0.40471 0.14856 0.0
C19 C 0.07361 0.46888 0.19 0.0
O20 O 0.04738 0.48089 0.20277 0.0
O21 O 0.01449 0.47028 0.12123 0.0
O22 O 0.95703 0.46099 0.10536 0.0
O23 O 0.97173 0.46277 0.19444 0.0
O24 O 0.94078 0.46917 0.16098 0.0
C25 C 0.99258 0.46725 0.10343 0.0
C26 C 0.93939 0.46449 0.18323 0.0
O27 O 0.06432 0.46051 0.16973 0.0
Mg28 Mg 0.03343 0.97479 0.82845 0.0
O29 O 0.03831 0.92997 0.83173 0.0
O30 O 0.09481 0.92009 0.84845 0.0
Mg31 Mg 0.12445 0.95875 0.8577 0.0
C32 C 0.06287 0.9132 0.83915 0.0
C33 C 0.95866 0.98564 0.80184 0.0
O34 O 0.98173 0.00425 0.79427 0.0
O35 O 0.01839 0.9779 0.86727 0.0
O36 O 0.07544 0.96861 0.88358 0.0
O37 O 0.06442 0.97295 0.79442 0.0
O38 O 0.0935 0.97796 0.82869 0.0
C39 C 0.03979 0.97483 0.88531 0.0
C40 C 0.09616 0.9743 0.80635 0.0
O41 O 0.97077 0.97013 0.81766 0.0
Mg42 Mg -0.00015 0.57573 0.81976 0.0
O43 O -0.00262 0.62067 0.82359 0.0
O44 O 0.94034 0.63107 0.83943 0.0
Mg45 Mg 0.90756 0.59318 0.84687 0.0
C46 C 0.97305 0.63764 0.83099 0.0
C47 C 0.07381 0.58922 0.79235 0.0
O48 O 0.0473 0.60099 0.77966 0.0
O49 O 0.0115 0.57145 0.85882 0.0
O50 O 0.9537 0.5812 0.87401 0.0
O51 O 0.97127 0.57784 0.78489 0.0
O52 O 0.93977 0.57387 0.8184 0.0
C53 C 0.98895 0.57421 0.87637 0.0
C54 C 0.93869 0.57665 0.79593 0.0
O55 O 0.06379 0.57767 0.81115 0.0
Mg56 Mg 0.51476 0.52835 0.66118 0.0
O57 O 0.52177 0.57302 0.65707 0.0
O58 O 0.57891 0.58099 0.64035 0.0
Mg59 Mg 0.60611 0.54148 0.63116 0.0
C60 C 0.54746 0.58894 0.64961 0.0
C61 C 0.44264 0.52699 0.69209 0.0
O62 O 0.46839 0.51473 0.70499 0.0
O63 O 0.49929 0.52426 0.62254 0.0
O64 O 0.55631 0.53216 0.60565 0.0
O65 O 0.5463 0.53089 0.69494 0.0
O66 O 0.5747 0.52383 0.66073 0.0
C67 C 0.52044 0.5265 0.6043 0.0
C68 C 0.57777 0.52862 0.68288 0.0
O69 O 0.45218 0.53475 0.67171 0.0
Mg70 Mg 0.52189 0.92861 0.66953 0.0
O71 O 0.51382 0.88377 0.66713 0.0
O72 O 0.45604 0.87653 0.65088 0.0
Mg73 Mg 0.42836 0.91596 0.64204 0.0
C74 C 0.48746 0.86818 0.65988 0.0
C75 C 0.6073 0.94298 0.6746 0.0
O76 O 0.59332 0.96337 0.6633 0.0
O77 O 0.53501 0.93033 0.63048 0.0
O78 O 0.47646 0.92398 0.61504 0.0
O79 O 0.49246 0.9296 0.70419 0.0
O80 O 0.46241 0.9341 0.67023 0.0
C81 C 0.51257 0.92848 0.61279 0.0
C82 C 0.46042 0.93227 0.69275 0.0
O83 O 0.5851 0.92376 0.67895 0.0
Mg84 Mg 0.51646 0.42582 0.3215 0.0
O85 O 0.51789 0.381 0.3261 0.0
O86 O 0.57395 0.3705 0.34315 0.0
Mg87 Mg 0.607 0.40835 0.35073 0.0
C88 C 0.54154 0.36402 0.33421 0.0
C89 C 0.44416 0.41402 0.29184 0.0
O90 O 0.47158 0.4034 0.27902 0.0
O91 O 0.50264 0.43086 0.36031 0.0
O92 O 0.5596 0.42136 0.37666 0.0
O93 O 0.54731 0.42257 0.28727 0.0
O94 O 0.57658 0.42716 0.32144 0.0
C95 C 0.52431 0.42853 0.37832 0.0
C96 C 0.57913 0.4237 0.29909 0.0
O97 O 0.45291 0.42423 0.31152 0.0
Mg98 Mg 0.48912 0.02773 0.33351 0.0
O99 O 0.48256 0.07228 0.33868 0.0
O100 O 0.42861 0.08023 0.35898 0.0
Mg101 Mg 0.40233 0.04057 0.36843 0.0
C102 C 0.45854 0.0882 0.34807 0.0
C103 C 0.55347 0.04734 0.30101 0.0
O104 O 0.52229 0.05671 0.29091 0.0
O105 O 0.50992 0.0233 0.3711 0.0
O106 O 0.45546 0.03053 0.39111 0.0
O107 O 0.45336 0.0301 0.30149 0.0
O108 O 0.42931 0.02338 0.33692 0.0
C109 C 0.49145 0.025 0.39042 0.0
C110 C 0.42347 0.02807 0.31496 0.0
O111 O 0.5501 0.03427 0.3199 0.0
H112 H 0.91673 0.36509 0.14336 0.0
H113 H 0.92772 0.31794 0.14702 0.0
H114 H 0.04771 0.33208 0.16254 0.0
H115 H 0.03711 0.37946 0.1588 0.0
H116 H 0.03648 0.29284 0.12928 0.0
H117 H 0.9874 0.31595 0.20601 0.0
H118 H 0.94026 0.33572 0.23328 0.0
H119 H 0.85184 0.28467 0.20672 0.0
H120 H 0.89837 0.26479 0.17909 0.0
H121 H 0.08895 0.16614 0.16519 0.0
H122 H 0.07641 0.21324 0.16417 0.0
H123 H 0.95411 0.19829 0.15932 0.0
H124 H 0.96646 0.15095 0.16135 0.0
H125 H 0.96526 0.23822 0.18685 0.0
H126 H 0.01039 0.21525 0.11029 0.0
H127 H 0.05421 0.19573 0.08093 0.0
H128 H 0.14553 0.24655 0.10397 0.0
H129 H 0.10238 0.26614 0.1337 0.0
C130 C 0.94553 0.35825 0.14749 0.0
C131 C 0.9761 0.37609 0.15073 0.0
C132 C 0.95167 0.33126 0.14972 0.0
C133 C 0.98844 0.32156 0.15524 0.0
C134 C 0.0191 0.33923 0.15831 0.0
C135 C 0.01295 0.36628 0.15623 0.0
C136 C -0.00498 0.29291 0.1574 0.0
C137 C 0.02138 0.28092 0.14209 0.0
C138 C 0.97418 0.27731 0.17354 0.0
C139 C 0.94632 0.28901 0.19037 0.0
C140 C 0.95786 0.30904 0.2059 0.0
C141 C 0.93127 0.32022 0.22145 0.0
C142 C 0.8931 0.31142 0.22175 0.0
C143 C 0.88144 0.29142 0.2065 0.0
C144 C 0.90792 0.28016 0.19092 0.0
C145 C 0.05936 0.17286 0.16395 0.0
C146 C 0.0287 0.15482 0.16312 0.0
C147 C 0.05223 0.19982 0.16326 0.0
C148 C 0.01436 0.20936 0.16109 0.0
C149 C 0.98359 0.19141 0.16087 0.0
C150 C 0.99067 0.16437 0.16199 0.0
C151 C 0.00709 0.23803 0.15883 0.0
C152 C 0.98048 0.25007 0.17404 0.0
C153 C 0.02724 0.25365 0.1423 0.0
C154 C 0.05324 0.24199 0.12437 0.0
C155 C 0.03989 0.22213 0.10921 0.0
C156 C 0.0646 0.21108 0.09248 0.0
C157 C 0.10266 0.21985 0.09062 0.0
C158 C 0.11606 0.23975 0.10545 0.0
C159 C 0.09148 0.25086 0.12222 0.0
H160 H 0.12174 0.21126 0.07766 0.0
H161 H 0.87253 0.32016 0.23376 0.0
H162 H 0.11315 0.8719 0.84208 0.0
H163 H 0.09833 0.82505 0.83896 0.0
H164 H 0.97809 0.84341 0.82847 0.0
H165 H 0.99261 0.89036 0.83131 0.0
H166 H 0.99318 0.80427 0.86326 0.0
H167 H 0.0268 0.82499 0.7832 0.0
H168 H 0.06881 0.84261 0.75206 0.0
H169 H 0.15796 0.7881 0.77128 0.0
H170 H 0.11667 0.7704 0.80278 0.0
H171 H 0.92377 0.67941 0.8327 0.0
H172 H 0.93998 0.72599 0.83252 0.0
H173 H 0.06099 0.70655 0.82782 0.0
H174 H 0.04479 0.65975 0.82704 0.0
H175 H 0.04694 0.74656 0.80097 0.0
H176 H 0.01725 0.72589 0.88065 0.0
H177 H 0.97888 0.70834 0.91351 0.0
H178 H 0.8874 0.76244 0.89769 0.0
H179 H 0.92502 0.78009 0.86452 0.0
C180 C 0.08355 0.866 0.83907 0.0
C181 C 0.05404 0.88486 0.83696 0.0
C182 C 0.07519 0.83924 0.8372 0.0
C183 C 0.03717 0.83086 0.83339 0.0
C184 C 0.00762 0.84956 0.83138 0.0
C185 C 0.01601 0.87635 0.83294 0.0
C186 C 0.0281 0.8025 0.83207 0.0
C187 C 0.00444 0.79166 0.84947 0.0
C188 C 0.04402 0.78604 0.81453 0.0
C189 C 0.06878 0.79656 0.79551 0.0
C190 C 0.05549 0.81691 0.78093 0.0
C191 C 0.07915 0.82689 0.76318 0.0
C192 C 0.11607 0.81653 0.75973 0.0
C193 C 0.12938 0.79613 0.77399 0.0
C194 C 0.10584 0.7861 0.79178 0.0
C195 C 0.95385 0.68502 0.83159 0.0
C196 C 0.98303 0.66588 0.8301 0.0
C197 C 0.9631 0.71169 0.8316 0.0
C198 C 0.00178 0.71982 0.83071 0.0
C199 C 0.03095 0.70076 0.82864 0.0
C200 C 0.02166 0.67403 0.82824 0.0
C201 C 0.01165 0.74818 0.83212 0.0
C202 C 0.03558 0.75907 0.81479 0.0
C203 C -0.00349 0.76466 0.84998 0.0
C204 C 0.97382 0.75414 0.86996 0.0
C205 C 0.98883 0.73391 0.88407 0.0
C206 C 0.96723 0.72397 0.90277 0.0
C207 C 0.93068 0.73422 0.90765 0.0
C208 C 0.9157 0.75449 0.89387 0.0
C209 C 0.93716 0.76449 0.87513 0.0
H210 H 0.91401 0.72649 0.92214 0.0
H211 H 0.13435 0.82428 0.74599 0.0
H212 H 0.47897 0.61466 0.65648 0.0
H213 H 0.46871 0.66209 0.66028 0.0
H214 H 0.59103 0.6752 0.65309 0.0
H215 H 0.60158 0.62788 0.64906 0.0
H216 H 0.55546 0.70457 0.69002 0.0
H217 H 0.53816 0.68561 0.60751 0.0
H218 H 0.50946 0.66217 0.57385 0.0
H219 H 0.39669 0.68866 0.59433 0.0
H220 H 0.42468 0.71195 0.62834 0.0
H221 H 0.5556 0.84162 0.66585 0.0
H222 H 0.56538 0.79404 0.66622 0.0
H223 H 0.44271 0.78224 0.65865 0.0
H224 H 0.43291 0.82967 0.65745 0.0
H225 H 0.47793 0.75149 0.63003 0.0
H226 H 0.49268 0.77119 0.71159 0.0
H227 H 0.51887 0.79374 0.74646 0.0
H228 H 0.63239 0.76532 0.72997 0.0
H229 H 0.60697 0.74288 0.69479 0.0
C230 C 0.50369 0.62763 0.65574 0.0
C231 C 0.54105 0.61754 0.65224 0.0
C232 C 0.49777 0.65469 0.6579 0.0
C233 C 0.52911 0.67209 0.65682 0.0
C234 C 0.5665 0.66206 0.65393 0.0
C235 C 0.57241 0.63505 0.65146 0.0
C236 C 0.5228 0.70082 0.65806 0.0
C237 C 0.53887 0.71496 0.67681 0.0
C238 C 0.50029 0.71412 0.64114 0.0
C239 C 0.48347 0.70029 0.6206 0.0
C240 C 0.50721 0.68625 0.60495 0.0
C241 C 0.49108 0.67303 0.58578 0.0
C242 C 0.45127 0.67386 0.58199 0.0
C243 C 0.42751 0.68799 0.59731 0.0
C244 C 0.4435 0.70123 0.61652 0.0
C245 C 0.53069 0.82888 0.66444 0.0
C246 C 0.49349 0.83943 0.66155 0.0
C247 C 0.53629 0.80166 0.66476 0.0
C248 C 0.50473 0.78448 0.6627 0.0
C249 C 0.46753 0.79504 0.6602 0.0
C250 C 0.46197 0.82219 0.65955 0.0
C251 C 0.51049 0.75553 0.66212 0.0
C252 C 0.49439 0.74125 0.6434 0.0
C253 C 0.53257 0.7421 0.67927 0.0
C254 C 0.54797 0.75558 0.70041 0.0
C255 C 0.52329 0.76993 0.71528 0.0
C256 C 0.53798 0.78266 0.73513 0.0
C257 C 0.57729 0.78102 0.74039 0.0
C258 C 0.60196 0.7666 0.72585 0.0
C259 C 0.58742 0.75385 0.70596 0.0
H260 H 0.58861 0.79089 0.75576 0.0
H261 H 0.43883 0.66361 0.56714 0.0
H262 H 0.4692 0.34262 0.33284 0.0
H263 H 0.45221 0.29585 0.33381 0.0
H264 H 0.57289 0.27527 0.3346 0.0
H265 H 0.59017 0.32189 0.33421 0.0
H266 H 0.52155 0.24597 0.30102 0.0
H267 H 0.53456 0.27226 0.38288 0.0
H268 H 0.51938 0.30023 0.41706 0.0
H269 H 0.39968 0.27948 0.41143 0.0
H270 H 0.41411 0.25167 0.37696 0.0
H271 H 0.52487 0.11311 0.3347 0.0
H272 H 0.53568 0.16029 0.33103 0.0
H273 H 0.41805 0.17524 0.35206 0.0
H274 H 0.40734 0.12808 0.35648 0.0
H275 H 0.46327 0.20851 0.37315 0.0
H276 H 0.4471 0.18075 0.29408 0.0
H277 H 0.45805 0.15344 0.25892 0.0
H278 H 0.57665 0.17766 0.25707 0.0
H279 H 0.56655 0.20487 0.29245 0.0
C280 C 0.4921 0.32812 0.33309 0.0
C281 C 0.53102 0.33589 0.33357 0.0
C282 C 0.48234 0.30148 0.33367 0.0
C283 C 0.51135 0.28225 0.3343 0.0
C284 C 0.55017 0.2899 0.33408 0.0
C285 C 0.55994 0.3165 0.33398 0.0
C286 C 0.50134 0.2541 0.336 0.0
C287 C 0.50912 0.23764 0.31682 0.0
C288 C 0.48396 0.24361 0.35636 0.0
C289 C 0.47534 0.26015 0.37717 0.0
C290 C 0.50495 0.27387 0.38879 0.0
C291 C 0.4965 0.28965 0.40824 0.0
C292 C 0.45857 0.29171 0.41637 0.0
C293 C 0.42904 0.27791 0.40509 0.0
C294 C 0.43734 0.26213 0.3856 0.0
C295 C 0.50126 0.12642 0.33854 0.0
C296 C 0.46523 0.11681 0.34587 0.0
C297 C 0.50744 0.15341 0.33632 0.0
C298 C 0.4775 0.17134 0.34092 0.0
C299 C 0.44158 0.1618 0.3484 0.0
C300 C 0.4355 0.13482 0.3509 0.0
C301 C 0.48393 0.20002 0.33822 0.0
C302 C 0.47544 0.21669 0.35722 0.0
C303 C 0.49998 0.2108 0.31749 0.0
C304 C 0.50614 0.19469 0.29604 0.0
C305 C 0.47559 0.18014 0.28627 0.0
C306 C 0.48163 0.16469 0.26629 0.0
C307 C 0.51805 0.16377 0.2558 0.0
C308 C 0.54847 0.17838 0.26523 0.0
C309 C 0.54259 0.19385 0.28523 0.0
H310 H 0.52269 0.15178 0.24033 0.0
H311 H 0.45208 0.30393 0.43143 0.0
H312 H 0.40436 0.04207 0.27037 0.0
H313 H 0.34074 0.05311 0.25519 0.0
H314 H 0.29091 0.03901 0.32344 0.0
H315 H 0.35448 0.0269 0.33859 0.0
H316 H 0.24745 0.01824 0.29066 0.0
H317 H 0.30343 0.10174 0.30307 0.0
H318 H 0.35384 0.1358 0.30132 0.0
H319 H 0.34634 0.13659 0.22608 0.0
H320 H 0.29636 0.10216 0.22732 0.0
H321 H 0.06961 0.07013 0.24758 0.0
H322 H 0.12855 0.06892 0.27124 0.0
H323 H 0.19703 0.06463 0.20814 0.0
H324 H 0.13848 0.06532 0.1844 0.0
H325 H 0.22695 0.09942 0.2441 0.0
H326 H 0.17745 0.01027 0.23375 0.0
H327 H 0.1271 0.97625 0.23693 0.0
H328 H 0.12144 0.98843 0.31149 0.0
H329 H 0.17143 0.0228 0.30867 0.0
C330 C 0.37991 0.04126 0.28219 0.0
C331 C 0.38457 0.03392 0.30579 0.0
C332 C 0.34358 0.04781 0.27352 0.0
C333 C 0.31123 0.04751 0.28833 0.0
C334 C 0.31559 0.03966 0.31179 0.0
C335 C 0.35198 0.03287 0.32044 0.0
C336 C 0.27278 0.05458 0.27892 0.0
C337 C 0.24275 0.03628 0.28094 0.0
C338 C 0.26668 0.07809 0.26617 0.0
C339 C 0.29625 0.09921 0.26529 0.0
C340 C 0.31266 0.10906 0.28613 0.0
C341 C 0.34117 0.12844 0.28523 0.0
C342 C 0.35332 0.13833 0.2636 0.0
C343 C 0.33689 0.1289 0.24283 0.0
C344 C 0.30843 0.10947 0.24362 0.0
C345 C 0.09723 0.06925 0.23872 0.0
C346 C 0.09935 0.06778 0.21408 0.0
C347 C 0.13081 0.06859 0.25227 0.0
C348 C 0.16698 0.06665 0.24138 0.0
C349 C 0.1693 0.0663 0.21682 0.0
C350 C 0.13576 0.06664 0.20327 0.0
C351 C 0.20231 0.06278 0.25543 0.0
C352 C 0.23163 0.08169 0.25426 0.0
C353 C 0.20762 0.04005 0.26928 0.0
C354 C 0.17779 0.0193 0.27097 0.0
C355 C 0.16522 0.00584 0.25079 0.0
C356 C 0.1368 0.98647 0.25253 0.0
C357 C 0.12099 0.98025 0.27439 0.0
C358 C 0.13365 0.99332 0.29456 0.0
C359 C 0.16203 0.01273 0.29291 0.0
H360 H 0.09899 0.96524 0.2757 0.0
H361 H 0.37544 0.15331 0.26295 0.0
H362 H 0.65055 0.42417 0.31944 0.0
H363 H 0.71287 0.42581 0.29976 0.0
H364 H 0.65618 0.42155 0.23244 0.0
H365 H 0.5935 0.419 0.25207 0.0
H366 H 0.72411 0.39422 0.23223 0.0
H367 H 0.68018 0.48028 0.25492 0.0
H368 H 0.65579 0.51395 0.28237 0.0
H369 H 0.75766 0.50566 0.32463 0.0
H370 H 0.78242 0.47165 0.29758 0.0
H371 H 0.86674 0.46169 0.16417 0.0
H372 H 0.80692 0.44991 0.1842 0.0
H373 H 0.86857 0.44342 0.24968 0.0
H374 H 0.92882 0.45439 0.22972 0.0
H375 H 0.79943 0.47449 0.25097 0.0
H376 H 0.84575 0.39063 0.22526 0.0
H377 H 0.87037 0.35918 0.19591 0.0
H378 H 0.76373 0.36423 0.15785 0.0
H379 H 0.73892 0.3965 0.18651 0.0
C380 C 0.65124 0.42301 0.30049 0.0
C381 C 0.617 0.42166 0.28733 0.0
C382 C 0.68694 0.42406 0.28925 0.0
C383 C 0.68905 0.42429 0.26465 0.0
C384 C 0.65513 0.42147 0.25145 0.0
C385 C 0.61935 0.42016 0.26271 0.0
C386 C 0.72619 0.42978 0.25281 0.0
C387 C 0.74045 0.41186 0.23614 0.0
C388 C 0.74766 0.45267 0.25816 0.0
C389 C 0.73296 0.47324 0.27437 0.0
C390 C 0.69725 0.48551 0.27016 0.0
C391 C 0.68338 0.50467 0.28563 0.0
C392 C 0.70511 0.51189 0.30527 0.0
C393 C 0.74083 0.50001 0.30943 0.0
C394 C 0.75481 0.48081 0.29403 0.0
C395 C 0.86777 0.45748 0.18274 0.0
C396 C 0.90268 0.45862 0.19527 0.0
C397 C 0.83353 0.45079 0.19416 0.0
C398 C 0.8336 0.44555 0.21831 0.0
C399 C 0.86814 0.44728 0.23098 0.0
C400 C 0.90246 0.45355 0.21953 0.0
C401 C 0.79738 0.43894 0.2305 0.0
C402 C 0.78323 0.45675 0.24716 0.0
C403 C 0.77603 0.41609 0.22497 0.0
C404 C 0.7906 0.39626 0.20793 0.0
C405 C 0.82766 0.38527 0.21051 0.0
C406 C 0.84165 0.36725 0.19401 0.0
C407 C 0.81862 0.35968 0.17505 0.0
C408 C 0.78155 0.37013 0.17254 0.0
C409 C 0.76753 0.38834 0.18889 0.0
H410 H 0.82951 0.34569 0.16232 0.0
H411 H 0.69433 0.52673 0.31722 0.0
H412 H 0.16769 0.97511 0.82667 0.0
H413 H 0.22953 0.96576 0.80811 0.0
H414 H 0.17233 0.95476 0.74151 0.0
H415 H 0.11001 0.96295 0.76023 0.0
H416 H 0.22428 0.91789 0.74742 0.0
H417 H 0.22308 0.01161 0.75483 0.0
H418 H 0.21669 0.05418 0.77522 0.0
H419 H 0.31156 0.03425 0.82031 0.0
H420 H 0.31819 0.99139 0.80039 0.0
H421 H 0.38828 0.93515 0.6734 0.0
H422 H 0.32683 0.93949 0.69392 0.0
H423 H 0.38604 0.9372 0.76047 0.0
H424 H 0.44783 0.9324 0.74008 0.0
H425 H 0.3342 0.97964 0.75539 0.0
H426 H 0.33616 0.88595 0.74529 0.0
H427 H 0.34237 0.84469 0.72286 0.0
H428 H 0.24529 0.86641 0.68024 0.0
H429 H 0.23887 0.90802 0.70219 0.0
C430 C 0.16813 0.97049 0.80813 0.0
C431 C 0.13386 0.96957 0.79498 0.0
C432 C 0.20362 0.96539 0.79748 0.0
C433 C 0.20563 0.95985 0.77335 0.0
C434 C 0.17146 0.95896 0.76016 0.0
C435 C 0.13589 0.96378 0.77086 0.0
C436 C 0.24335 0.95482 0.76191 0.0
C437 C 0.24815 0.93156 0.74893 0.0
C438 C 0.27476 0.97241 0.76426 0.0
C439 C 0.27086 0.99818 0.77627 0.0
C440 C 0.24238 0.01621 0.76922 0.0
C441 C 0.23875 0.04041 0.78067 0.0
C442 C 0.26363 0.04688 0.79909 0.0
C443 C 0.29226 0.02919 0.80606 0.0
C444 C 0.29599 0.00496 0.79468 0.0
C445 C 0.38831 0.93511 0.69239 0.0
C446 C 0.42297 0.93325 0.7051 0.0
C447 C 0.35312 0.93763 0.70408 0.0
C448 C 0.35199 0.93852 0.72867 0.0
C449 C 0.38642 0.93648 0.74146 0.0
C450 C 0.42163 0.93368 0.72978 0.0
C451 C 0.31495 0.94282 0.74094 0.0
C452 C 0.31031 0.96596 0.75402 0.0
C453 C 0.28359 0.92531 0.73841 0.0
C454 C 0.28727 0.90023 0.72525 0.0
C455 C 0.31634 0.88204 0.73101 0.0
C456 C 0.31986 0.85857 0.7184 0.0
C457 C 0.2943 0.85296 0.7001 0.0
C458 C 0.2651 0.87079 0.6944 0.0
C459 C 0.26149 0.89432 0.70694 0.0
H460 H 0.29707 0.83477 0.69036 0.0
H461 H 0.26078 0.06563 0.80793 0.0
H462 H 0.59189 0.54618 0.72735 0.0
H463 H 0.65411 0.55775 0.74455 0.0
H464 H 0.71114 0.53659 0.67986 0.0
H465 H 0.64917 0.52412 0.6628 0.0
H466 H 0.74984 0.51827 0.71595 0.0
H467 H 0.69645 0.60083 0.69467 0.0
H468 H 0.64691 0.63554 0.69255 0.0
H469 H 0.65051 0.64444 0.7675 0.0
H470 H 0.69959 0.60943 0.77014 0.0
H471 H 0.92797 0.57596 0.7485 0.0
H472 H 0.86682 0.57192 0.72737 0.0
H473 H 0.80478 0.5753 0.79291 0.0
H474 H 0.86568 0.57885 0.81425 0.0
H475 H 0.77055 0.60504 0.75384 0.0
H476 H 0.82086 0.51857 0.7736 0.0
H477 H 0.87124 0.48432 0.77406 0.0
H478 H 0.87468 0.48464 0.69869 0.0
H479 H 0.82468 0.51921 0.69782 0.0
C480 C 0.61768 0.54388 0.7168 0.0
C481 C 0.61555 0.53453 0.6936 0.0
C482 C 0.65318 0.55071 0.7266 0.0
C483 C 0.68715 0.54854 0.71331 0.0
C484 C 0.68522 0.53863 0.69034 0.0
C485 C 0.64974 0.53165 0.68057 0.0
C486 C 0.72477 0.55611 0.72359 0.0
C487 C 0.75451 0.53741 0.72386 0.0
C488 C 0.73075 0.58102 0.73412 0.0
C489 C 0.7015 0.60232 0.73262 0.0
C490 C 0.68648 0.61004 0.71073 0.0
C491 C 0.6585 0.62979 0.70943 0.0
C492 C 0.64552 0.64215 0.72988 0.0
C493 C 0.66057 0.63483 0.75167 0.0
C494 C 0.6885 0.61504 0.75308 0.0
C495 C 0.90131 0.57626 0.75842 0.0
C496 C 0.9017 0.57759 0.78308 0.0
C497 C 0.86645 0.57397 0.7463 0.0
C498 C 0.83148 0.57321 0.75865 0.0
C499 C 0.83158 0.57596 0.78313 0.0
C500 C 0.86644 0.57792 0.79529 0.0
C501 C 0.79514 0.56711 0.74629 0.0
C502 C 0.76575 0.58605 0.74568 0.0
C503 C 0.78958 0.54257 0.73514 0.0
C504 C 0.81939 0.52166 0.73565 0.0
C505 C 0.83261 0.5115 0.75714 0.0
C506 C 0.86104 0.492 0.75747 0.0
C507 C 0.87624 0.48237 0.73642 0.0
C508 C 0.86294 0.49216 0.71498 0.0
C509 C 0.83454 0.51169 0.71456 0.0
H510 H 0.89825 0.46727 0.73671 0.0
H511 H 0.62385 0.65744 0.72883 0.0
H512 H 0.6417 0.90707 0.70361 0.0
H513 H 0.70295 0.91183 0.72449 0.0
H514 H 0.7222 0.98623 0.69035 0.0
H515 H 0.66125 0.98156 0.66924 0.0
H516 H 0.78836 0.95718 0.69339 0.0
H517 H 0.68503 0.98456 0.74478 0.0
H518 H 0.62367 0.97897 0.76611 0.0
H519 H 0.67099 0.91304 0.80323 0.0
H520 H 0.73249 0.91802 0.78186 0.0
H521 H 0.92378 0.01615 0.7687 0.0
H522 H 0.86484 0.00662 0.74685 0.0
H523 H 0.85011 0.93497 0.78616 0.0
H524 H 0.90878 0.94461 0.80845 0.0
H525 H 0.78255 0.95973 0.78045 0.0
H526 H 0.88708 0.93355 0.73072 0.0
H527 H 0.94848 0.93891 0.70941 0.0
H528 H 0.8994 0.00184 0.66912 0.0
H529 H 0.83783 0.9971 0.69043 0.0
C530 C 0.65921 0.92428 0.70028 0.0
C531 C 0.64642 0.94408 0.68493 0.0
C532 C 0.69411 0.92701 0.71232 0.0
C533 C 0.71675 0.94959 0.70925 0.0
C534 C 0.70505 0.96871 0.69304 0.0
C535 C 0.67015 0.96602 0.68102 0.0
C536 C 0.75166 0.95398 0.72374 0.0
C537 C 0.78708 0.95797 0.71242 0.0
C538 C 0.75005 0.95441 0.74858 0.0
C539 C 0.71319 0.95149 0.76154 0.0
C540 C 0.68224 0.96875 0.75736 0.0
C541 C 0.64746 0.96571 0.76948 0.0
C542 C 0.6434 0.94562 0.78597 0.0
C543 C 0.67416 0.92856 0.79042 0.0
C544 C 0.70899 0.9315 0.77832 0.0
C545 C 0.90788 0.99846 0.77285 0.0
C546 C 0.92112 0.98104 0.7902 0.0
C547 C 0.8743 0.99297 0.76024 0.0
C548 C 0.85354 0.96981 0.76455 0.0
C549 C 0.86584 0.95287 0.78246 0.0
C550 C 0.89937 0.95841 0.79518 0.0
C551 C 0.81929 0.96317 0.75011 0.0
C552 C 0.78396 0.95876 0.76144 0.0
C553 C 0.82102 0.9623 0.72527 0.0
C554 C 0.85794 0.96511 0.71233 0.0
C555 C 0.88946 0.94866 0.71744 0.0
C556 C 0.92428 0.95157 0.70534 0.0
C557 C 0.92787 0.97075 0.68796 0.0
C558 C 0.89659 0.98701 0.68261 0.0
C559 C 0.86171 0.98421 0.69467 0.0
H560 H 0.95485 0.97297 0.67862 0.0
H561 H 0.61645 0.94329 0.79534 0.0
H562 H 0.41671 0.51725 0.73641 0.0
H563 H 0.35456 0.52925 0.75337 0.0
H564 H 0.31912 0.56249 0.68715 0.0
H565 H 0.3818 0.55103 0.67011 0.0
H566 H 0.30129 0.59461 0.7228 0.0
H567 H 0.28423 0.50296 0.70585 0.0
H568 H 0.30073 0.45583 0.70668 0.0
H569 H 0.29414 0.45615 0.78197 0.0
H570 H 0.27809 0.50338 0.78161 0.0
H571 H 0.10114 0.60395 0.74941 0.0
H572 H 0.16481 0.59517 0.73293 0.0
H573 H 0.2005 0.56012 0.79836 0.0
H574 H 0.13641 0.56822 0.81481 0.0
H575 H 0.21829 0.52922 0.76284 0.0
H576 H 0.23462 0.62097 0.77975 0.0
H577 H 0.21782 0.66804 0.77875 0.0
H578 H 0.22538 0.66759 0.7035 0.0
H579 H 0.24173 0.62041 0.70402 0.0
C580 C 0.39565 0.52696 0.72536 0.0
C581 C 0.40415 0.53311 0.70187 0.0
C582 C 0.36006 0.53375 0.73509 0.0
C583 C 0.33203 0.54649 0.72145 0.0
C584 C 0.34035 0.55262 0.69797 0.0
C585 C 0.37609 0.54597 0.68824 0.0
C586 C 0.29435 0.55383 0.7319 0.0
C587 C 0.28284 0.58027 0.73128 0.0
C588 C 0.27079 0.53521 0.74345 0.0
C589 C 0.2803 0.50677 0.7437 0.0
C590 C 0.28658 0.49303 0.72259 0.0
C591 C 0.2958 0.46629 0.72298 0.0
C592 C 0.29858 0.45302 0.74437 0.0
C593 C 0.29203 0.46645 0.76542 0.0
C594 C 0.28283 0.4932 0.76513 0.0
C595 C 0.12267 0.59469 0.76043 0.0
C596 C 0.11367 0.58669 0.7834 0.0
C597 C 0.15915 0.58978 0.75099 0.0
C598 C 0.18754 0.57715 0.76446 0.0
C599 C 0.17899 0.56985 0.78764 0.0
C600 C 0.1424 0.57457 0.79704 0.0
C601 C 0.22526 0.57005 0.75389 0.0
C602 C 0.23674 0.54361 0.75443 0.0
C603 C 0.24873 0.58868 0.74226 0.0
C604 C 0.23907 0.61709 0.74192 0.0
C605 C 0.23242 0.63086 0.76298 0.0
C606 C 0.22303 0.65757 0.7625 0.0
C607 C 0.22044 0.67078 0.74108 0.0
C608 C 0.22735 0.65733 0.72008 0.0
C609 C 0.23673 0.63061 0.72046 0.0
H610 H 0.21316 0.69146 0.74075 0.0
H611 H 0.30572 0.43232 0.74463 0.0
H612 H 0.56821 0.06513 0.25679 0.0
H613 H 0.63097 0.06975 0.23767 0.0
H614 H 0.68748 0.04279 0.30065 0.0
H615 H 0.62471 0.03786 0.31992 0.0
H616 H 0.72184 0.08775 0.28016 0.0
H617 H 0.67818 0.00139 0.25816 0.0
H618 H 0.63255 0.96907 0.24178 0.0
H619 H 0.63661 0.00798 0.175 0.0
H620 H 0.68188 0.04079 0.19111 0.0
H621 H 0.90444 0.04516 0.24268 0.0
H622 H 0.83863 0.04759 0.25756 0.0
H623 H 0.79911 0.0755 0.19027 0.0
H624 H 0.86549 0.07337 0.17514 0.0
H625 H 0.75398 0.03394 0.21001 0.0
H626 H 0.80233 0.11817 0.23121 0.0
H627 H 0.84867 0.14996 0.24766 0.0
H628 H 0.83619 0.11508 0.31582 0.0
H629 H 0.79019 0.0828 0.2997 0.0
C630 C 0.59398 0.06027 0.26664 0.0
C631 C 0.59154 0.05102 0.28985 0.0
C632 C 0.62976 0.06286 0.25565 0.0
C633 C 0.66371 0.05645 0.26773 0.0
C634 C 0.6615 0.04781 0.29107 0.0
C635 C 0.62567 0.04492 0.302 0.0
C636 C 0.70155 0.05837 0.25589 0.0
C637 C 0.72904 0.07585 0.26494 0.0
C638 C 0.71033 0.04338 0.23563 0.0
C639 C 0.68302 0.02375 0.22593 0.0
C640 C 0.66903 0.00322 0.24006 0.0
C641 C 0.6433 0.98478 0.23081 0.0
C642 C 0.63158 0.98652 0.20739 0.0
C643 C 0.64565 0.00669 0.19316 0.0
C644 C 0.67135 0.02521 0.20233 0.0
C645 C 0.88184 0.05183 0.23098 0.0
C646 C 0.89013 0.05909 0.20772 0.0
C647 C 0.84428 0.05332 0.23957 0.0
C648 C 0.81418 0.06192 0.22506 0.0
C649 C 0.8221 0.0689 0.20172 0.0
C650 C 0.85994 0.06773 0.19315 0.0
C651 C 0.77448 0.06305 0.23448 0.0
C652 C 0.74663 0.04611 0.22503 0.0
C653 C 0.76535 0.07854 0.25437 0.0
C654 C 0.79304 0.09791 0.26419 0.0
C655 C 0.80972 0.11712 0.24966 0.0
C656 C 0.83588 0.13526 0.25894 0.0
C657 C 0.84543 0.13451 0.28276 0.0
C658 C 0.82878 0.11563 0.29736 0.0
C659 C 0.80263 0.09742 0.28817 0.0
H660 H 0.86568 0.14858 0.28991 0.0
H661 H 0.61168 0.97221 0.20025 0.0
H662 H 0.09698 0.47638 0.23515 0.0
H663 H 0.15949 0.46599 0.25231 0.0
H664 H 0.20058 0.43951 0.18476 0.0
H665 H 0.13736 0.44914 0.16751 0.0
H666 H 0.22109 0.40603 0.21801 0.0
H667 H 0.228 0.49979 0.20882 0.0
H668 H 0.2057 0.54556 0.2133 0.0
H669 H 0.2094 0.53784 0.28833 0.0
H670 H 0.23125 0.49191 0.28429 0.0
H671 H 0.41997 0.40314 0.24732 0.0
H672 H 0.35648 0.41125 0.23042 0.0
H673 H 0.31527 0.43856 0.29769 0.0
H674 H 0.37927 0.43123 0.31461 0.0
H675 H 0.29473 0.47145 0.26453 0.0
H676 H 0.28817 0.37789 0.27391 0.0
H677 H 0.31043 0.3321 0.2696 0.0
H678 H 0.30602 0.3393 0.19454 0.0
H679 H 0.28421 0.38526 0.1984 0.0
C680 C 0.11935 0.46851 0.22386 0.0
C681 C 0.11228 0.4637 0.19992 0.0
C682 C 0.15517 0.46266 0.23371 0.0
C683 C 0.18494 0.45234 0.21976 0.0
C684 C 0.17802 0.44753 0.19583 0.0
C685 C 0.14197 0.45312 0.18599 0.0
C686 C 0.22295 0.44604 0.23034 0.0
C687 C 0.23749 0.42044 0.22789 0.0
C688 C 0.24382 0.46464 0.24379 0.0
C689 C 0.23096 0.49234 0.24624 0.0
C690 C 0.22382 0.5078 0.22627 0.0
C691 C 0.21129 0.53378 0.22873 0.0
C692 C 0.20605 0.54458 0.25108 0.0
C693 C 0.21343 0.52944 0.27103 0.0
C694 C 0.22594 0.50345 0.26866 0.0
C695 C 0.39731 0.41059 0.25862 0.0
C696 C 0.40466 0.41656 0.28231 0.0
C697 C 0.36093 0.41512 0.24893 0.0
C698 C 0.33095 0.42526 0.26283 0.0
C699 C 0.33798 0.43073 0.28663 0.0
C700 C 0.37452 0.42645 0.29629 0.0
C701 C 0.29288 0.43141 0.25225 0.0
C702 C 0.27833 0.45701 0.25468 0.0
C703 C 0.27202 0.4128 0.2388 0.0
C704 C 0.28487 0.3851 0.23645 0.0
C705 C 0.2922 0.36977 0.25648 0.0
C706 C 0.3047 0.34377 0.25412 0.0
C707 C 0.30972 0.33282 0.23181 0.0
C708 C 0.30215 0.34782 0.21181 0.0
C709 C 0.28967 0.37383 0.21408 0.0
H710 H 0.31941 0.31269 0.23002 0.0
H711 H 0.19634 0.56469 0.25295 0.0
H712 H 0.95577 0.03817 0.1023 0.0
H713 H 0.94116 0.02375 0.06216 0.0
H714 H 0.04732 0.05852 0.03789 0.0
H715 H 0.06193 0.07311 0.0776 0.0
H716 H 0.98965 0.06624 0.00663 0.0
H717 H 0.04349 0.99404 0.05263 0.0
H718 H 0.04356 0.96277 0.08568 0.0
H719 H 0.93288 0.93357 0.06408 0.0
H720 H 0.932 0.96492 0.03105 0.0
H721 H 0.07213 0.96233 0.92744 0.0
H722 H 0.0512 0.97624 0.96631 0.0
H723 H 0.95082 0.0133 0.93616 0.0
H724 H 0.97183 0.99959 0.89689 0.0
H725 H 0.98853 0.96972 0.99416 0.0
H726 H 0.93937 0.07208 0.96646 0.0
H727 H 0.94692 0.10329 0.93364 0.0
H728 H 0.05945 0.0719 0.91895 0.0
H729 H 0.05269 0.04076 0.95184 0.0
C730 C 0.97566 0.04311 0.08834 0.0
C731 C 0.01025 0.05653 0.09321 0.0
C732 C 0.9673 0.03481 0.06544 0.0
C733 C 0.99333 0.03987 0.0471 0.0
C734 C 0.02679 0.05443 0.05176 0.0
C735 C 0.03523 0.06261 0.07455 0.0
C736 C 0.98801 0.02836 0.0234 0.0
C737 C 0.98861 0.04514 0.0039 0.0
C738 C 0.98687 0.00084 0.01981 0.0
C739 C 0.98745 0.98202 0.0396 0.0
C740 C 0.01905 0.98108 0.05506 0.0
C741 C 0.01926 0.96333 0.07375 0.0
C742 C 0.98818 0.94626 0.07703 0.0
C743 C 0.95688 0.94685 0.06156 0.0
C744 C 0.95651 0.9646 0.04286 0.0
C745 C 0.04532 0.97315 0.92901 0.0
C746 C 0.02395 0.98017 0.909 0.0
C747 C 0.03323 0.98092 0.95131 0.0
C748 C -0.00034 0.996 0.95411 0.0
C749 C 0.977 0.00183 0.93434 0.0
C750 C 0.98903 0.99394 0.91194 0.0
C751 C 0.99113 0.00759 0.97743 0.0
C752 C 0.98798 0.99083 -0.00314 0.0
C753 C 0.99067 0.03512 0.98098 0.0
C754 C -0.00473 0.0539 0.96136 0.0
C755 C 0.96571 0.07189 0.95622 0.0
C756 C 0.96986 0.08956 0.93763 0.0
C757 C 0.00357 0.0895 0.92416 0.0
C758 C 0.03329 0.07185 0.92933 0.0
C759 C 0.0293 0.05418 0.94793 0.0
H760 H 0.00671 0.10318 0.90976 0.0
H761 H 0.98839 0.93252 0.09151 0.0
H762 H 0.04783 0.54061 0.88762 0.0
H763 H 0.06076 0.52131 0.92618 0.0
H764 H 0.97412 0.57154 0.95705 0.0
H765 H 0.96019 0.59026 0.91855 0.0
H766 H 0.08093 0.535 0.97055 0.0
H767 H 0.91719 0.53641 0.99171 0.0
H768 H 0.8551 0.53669 0.97051 0.0
H769 H 0.90872 0.49934 0.9112 0.0
H770 H 0.97094 0.49849 0.93219 0.0
H771 H 0.04094 0.50699 0.09089 0.0
H772 H 0.05314 0.52278 0.05105 0.0
H773 H 0.99011 0.45667 0.02293 0.0
H774 H 0.97594 0.44187 0.06276 0.0
H775 H 0.96234 0.49697 0.00538 0.0
H776 H 0.09159 0.46751 0.01405 0.0
H777 H 0.1553 0.46223 0.03272 0.0
H778 H 0.17413 0.54546 0.02864 0.0
H779 H 0.11029 0.55129 0.01023 0.0
C780 C 0.03214 0.54794 0.90272 0.0
C781 C 0.00246 0.56658 0.90001 0.0
C782 C 0.03963 0.53692 0.92475 0.0
C783 C 0.01777 0.54456 0.94435 0.0
C784 C 0.99073 0.56495 0.94203 0.0
C785 C 0.9828 0.57564 0.92003 0.0
C786 C 0.01975 0.52934 0.96649 0.0
C787 C 0.05512 0.52664 0.97827 0.0
C788 C 0.98629 0.51761 0.97605 0.0
C789 C 0.94878 0.51763 0.96345 0.0
C790 C 0.91567 0.52815 0.97419 0.0
C791 C 0.88047 0.52842 0.96221 0.0
C792 C 0.878 0.51811 0.9395 0.0
C793 C 0.91069 0.5074 0.92876 0.0
C794 C 0.94594 0.50703 0.94069 0.0
C795 C 0.03058 0.49553 0.07614 0.0
C796 C 0.00724 0.47338 0.0798 0.0
C797 C 0.03771 0.50448 0.05334 0.0
C798 C 0.02253 0.49097 0.03386 0.0
C799 C 0.00181 0.46763 0.03761 0.0
C800 C -0.00619 0.45911 0.06036 0.0
C801 C 0.02354 0.50285 0.01001 0.0
C802 C 0.98848 0.50505 -0.00219 0.0
C803 C 0.05756 0.51325 -0.00018 0.0
C804 C 0.09598 0.50985 0.01092 0.0
C805 C 0.10918 0.48471 0.0173 0.0
C806 C 0.14535 0.48162 0.0278 0.0
C807 C 0.16871 0.5035 0.03191 0.0
C808 C 0.15599 0.52853 0.02546 0.0
C809 C 0.11983 0.53173 0.01496 0.0
H810 H 0.19671 0.50106 0.04004 0.0
H811 H 0.85073 0.51838 0.93023 0.0
H812 H 0.55976 0.42201 0.42068 0.0
H813 H 0.53848 0.43793 0.45881 0.0
H814 H 0.43363 0.46763 0.42779 0.0
H815 H 0.45505 0.45198 0.3892 0.0
H816 H 0.46704 0.50404 0.45491 0.0
H817 H 0.42909 0.41577 0.46501 0.0
H818 H 0.43508 0.36754 0.46313 0.0
H819 H 0.53011 0.37023 0.51142 0.0
H820 H 0.52514 0.4185 0.51332 0.0
H821 H 0.4544 0.49908 0.59408 0.0
H822 H 0.43342 0.48349 0.55538 0.0
H823 H 0.52909 0.52387 0.52322 0.0
H824 H 0.55011 0.53949 0.56157 0.0
H825 H 0.47505 0.45117 0.52783 0.0
H826 H 0.50741 0.54251 0.46874 0.0
H827 H 0.49875 0.59055 0.47046 0.0
H828 H 0.40679 0.58131 0.52026 0.0
H829 H 0.41445 0.53319 0.51858 0.0
C830 C 0.53192 0.43164 0.4219 0.0
C831 C 0.50919 0.4358 0.4018 0.0
C832 C 0.51967 0.44059 0.44381 0.0
C833 C 0.48427 0.45372 0.44622 0.0
C834 C 0.46099 0.45743 0.42633 0.0
C835 C 0.47322 0.44841 0.4043 0.0
C836 C 0.47357 0.46518 0.46928 0.0
C837 C 0.46823 0.49247 0.47086 0.0
C838 C 0.47392 0.44994 0.49004 0.0
C839 C 0.47676 0.42082 0.48926 0.0
C840 C 0.45139 0.4061 0.47515 0.0
C841 C 0.4546 0.37874 0.47408 0.0
C842 C 0.48296 0.36583 0.48714 0.0
C843 C 0.50812 0.38025 0.50134 0.0
C844 C 0.50507 0.40762 0.50245 0.0
C845 C 0.47044 0.50512 0.5787 0.0
C846 C 0.50412 0.52035 0.58091 0.0
C847 C 0.45847 0.49613 0.55662 0.0
C848 C 0.47957 0.50262 0.53642 0.0
C849 C 0.51202 0.51891 0.53851 0.0
C850 C 0.52418 0.52767 0.56051 0.0
C851 C 0.47086 0.49018 0.51346 0.0
C852 C 0.47268 0.46269 0.5119 0.0
C853 C 0.46671 0.5052 0.49274 0.0
C854 C 0.46164 0.53418 0.4936 0.0
C855 C 0.48515 0.55068 0.47993 0.0
C856 C 0.48046 0.57795 0.48093 0.0
C857 C 0.45228 0.58897 0.49548 0.0
C858 C 0.42868 0.57275 0.50904 0.0
C859 C 0.43322 0.54547 0.5081 0.0
H860 H 0.44872 0.61009 0.49624 0.0
H861 H 0.48542 0.34465 0.48627 0.0
H862 H 0.47746 0.91846 0.5709 0.0
H863 H 0.49772 0.9329 0.53215 0.0
H864 H 0.6022 0.96507 0.56161 0.0
H865 H 0.58187 0.95081 0.60077 0.0
H866 H 0.56567 0.00065 0.53578 0.0
H867 H 0.6086 0.91428 0.52296 0.0
H868 H 0.60738 0.86587 0.52371 0.0
H869 H 0.50886 0.86564 0.47801 0.0
H870 H 0.50907 0.91405 0.47726 0.0
H871 H 0.56041 0.99929 0.39634 0.0
H872 H 0.58798 0.98338 0.43332 0.0
H873 H 0.49438 0.0195 0.47153 0.0
H874 H 0.46687 0.03547 0.43493 0.0
H875 H 0.55381 0.94901 0.46217 0.0
H876 H 0.52149 0.0379 0.52471 0.0
H877 H 0.52633 0.08619 0.52375 0.0
H878 H 0.61241 0.08114 0.46971 0.0
H879 H 0.60857 0.03281 0.47058 0.0
C880 C 0.50509 0.92819 0.56916 0.0
C881 C 0.52787 0.93369 0.58898 0.0
C882 C 0.51682 0.93625 0.54691 0.0
C883 C 0.55163 0.9499 0.54393 0.0
C884 C 0.5753 0.95447 0.56352 0.0
C885 C 0.56366 0.94625 0.58586 0.0
C886 C 0.56039 0.9619 0.52084 0.0
C887 C 0.56372 0.98935 0.51966 0.0
C888 C 0.55915 0.94706 0.49982 0.0
C889 C 0.55885 0.91787 0.50009 0.0
C890 C 0.58652 0.90393 0.51317 0.0
C891 C 0.58603 0.87647 0.51358 0.0
C892 C 0.55806 0.86269 0.50092 0.0
C893 C 0.53054 0.87634 0.48779 0.0
C894 C 0.53089 0.9038 0.48732 0.0
C895 C 0.54617 0.00431 0.41268 0.0
C896 C 0.51126 0.01848 0.41269 0.0
C897 C 0.56193 0.99514 0.43376 0.0
C898 C 0.5434 0.00039 0.45518 0.0
C899 C 0.50955 0.01555 0.45526 0.0
C900 C 0.49366 0.02451 0.43427 0.0
C901 C 0.55637 0.98781 0.47725 0.0
C902 C 0.55704 0.96026 0.47824 0.0
C903 C 0.56189 0.00253 0.49807 0.0
C904 C 0.56464 0.03166 0.49767 0.0
C905 C 0.54168 0.04705 0.51274 0.0
C906 C 0.54419 0.07446 0.51218 0.0
C907 C 0.56962 0.08673 0.49666 0.0
C908 C 0.59265 0.07162 0.48169 0.0
C909 C 0.59027 0.04421 0.48218 0.0
H910 H 0.5715 0.10795 0.49625 0.0
H911 H 0.55772 0.84143 0.50127 0.0
loop_
_geom_bond_atom_site_label_1
_geom_bond_atom_site_label_2
_geom_bond_distance
_geom_bond_site_symmetry_2
_ccdc_geom_bond_type
Mg0 O1 2.028 . S
Mg0 O7 1.986 . S
Mg0 O9 2.114 . S
Mg0 O10 2.251 . S
Mg0 O13 2.010 1_455 S
O1 Mg0 2.028 . S
O1 C4 1.250 . S
O2 Mg3 2.028 . S
O2 C4 1.248 . S
Mg3 O2 2.028 . S
Mg3 O8 2.032 . S
Mg3 O10 2.079 . S
C4 O1 1.250 . S
C4 O2 1.248 . S
C5 O6 1.264 . S
C5 O13 1.249 . S
O6 C5 1.264 . S
O7 Mg0 1.986 . S
O7 C11 1.246 . S
O8 Mg3 2.032 . S
O8 C11 1.259 . S
O9 Mg0 2.114 . S
O9 C12 1.252 . S
O10 Mg0 2.251 . S
O10 Mg3 2.079 . S
O10 C12 1.273 . S
C11 O7 1.246 . S
C11 O8 1.259 . S
C12 O9 1.252 . S
C12 O10 1.273 . S
O13 Mg0 2.010 1_655 S
O13 C5 1.249 . S
Mg14 O15 2.028 . S
Mg14 O21 1.986 . S
Mg14 O23 2.114 1_455 S
Mg14 O24 2.251 1_455 S
Mg14 O27 2.010 . S
O15 Mg14 2.028 . S
O15 C18 1.250 . S
O16 Mg17 2.028 . S
O16 C18 1.248 1_655 S
Mg17 O16 2.028 . S
Mg17 O22 2.032 . S
Mg17 O24 2.079 . S
C18 O15 1.250 . S
C18 O16 1.248 1_455 S
C19 O20 1.264 . S
C19 O27 1.249 . S
O20 C19 1.264 . S
O21 Mg14 1.986 . S
O21 C25 1.246 . S
O22 Mg17 2.032 . S
O22 C25 1.259 1_655 S
O23 Mg14 2.114 1_655 S
O23 C26 1.252 . S
O24 Mg14 2.251 1_655 S
O24 Mg17 2.079 . S
O24 C26 1.273 . S
C25 O21 1.246 . S
C25 O22 1.259 1_455 S
C26 O23 1.252 . S
C26 O24 1.273 . S
O27 Mg14 2.010 . S
O27 C19 1.249 . S
Mg28 O29 2.028 . S
Mg28 O35 1.986 . S
Mg28 O37 2.114 . S
Mg28 O38 2.251 . S
Mg28 O41 2.010 1_455 S
O29 Mg28 2.028 . S
O29 C32 1.250 . S
O30 Mg31 2.028 . S
O30 C32 1.248 . S
Mg31 O30 2.028 . S
Mg31 O36 2.032 . S
Mg31 O38 2.079 . S
C32 O29 1.250 . S
C32 O30 1.248 . S
C33 O34 1.264 . S
C33 O41 1.249 . S
O34 C33 1.264 . S
O35 Mg28 1.986 . S
O35 C39 1.246 . S
O36 Mg31 2.032 . S
O36 C39 1.259 . S
O37 Mg28 2.114 . S
O37 C40 1.252 . S
O38 Mg28 2.251 . S
O38 Mg31 2.079 . S
O38 C40 1.273 . S
C39 O35 1.246 . S
C39 O36 1.259 . S
C40 O37 1.252 . S
C40 O38 1.273 . S
O41 Mg28 2.010 1_655 S
O41 C33 1.249 . S
Mg42 O43 2.028 . S
Mg42 O49 1.986 . S
Mg42 O51 2.114 1_455 S
Mg42 O52 2.251 1_455 S
Mg42 O55 2.010 . S
O43 Mg42 2.028 . S
O43 C46 1.250 . S
O44 Mg45 2.028 . S
O44 C46 1.248 1_655 S
Mg45 O44 2.028 . S
Mg45 O50 2.032 . S
Mg45 O52 2.079 . S
C46 O43 1.250 . S
C46 O44 1.248 1_455 S
C47 O48 1.264 . S
C47 O55 1.249 . S
O48 C47 1.264 . S
O49 Mg42 1.986 . S
O49 C53 1.246 . S
O50 Mg45 2.032 . S
O50 C53 1.259 1_655 S
O51 Mg42 2.114 1_655 S
O51 C54 1.252 . S
O52 Mg42 2.251 1_655 S
O52 Mg45 2.079 . S
O52 C54 1.273 . S
C53 O49 1.246 . S
C53 O50 1.259 1_455 S
C54 O51 1.252 . S
C54 O52 1.273 . S
O55 Mg42 2.010 . S
O55 C47 1.249 . S
Mg56 O57 2.028 . S
Mg56 O63 1.986 . S
Mg56 O65 2.114 . S
Mg56 O66 2.251 . S
Mg56 O69 2.010 . S
O57 Mg56 2.028 . S
O57 C60 1.250 . S
O58 Mg59 2.028 . S
O58 C60 1.248 . S
Mg59 O58 2.028 . S
Mg59 O64 2.032 . S
Mg59 O66 2.079 . S
C60 O57 1.250 . S
C60 O58 1.248 . S
C61 O62 1.264 . S
C61 O69 1.249 . S
O62 C61 1.264 . S
O63 Mg56 1.986 . S
O63 C67 1.246 . S
O64 Mg59 2.032 . S
O64 C67 1.259 . S
O65 Mg56 2.114 . S
O65 C68 1.252 . S
O66 Mg56 2.251 . S
O66 Mg59 2.079 . S
O66 C68 1.273 . S
C67 O63 1.246 . S
C67 O64 1.259 . S
C68 O65 1.252 . S
C68 O66 1.273 . S
O69 Mg56 2.010 . S
O69 C61 1.249 . S
Mg70 O71 2.028 . S
Mg70 O77 1.986 . S
Mg70 O79 2.114 . S
Mg70 O80 2.251 . S
Mg70 O83 2.010 . S
O71 Mg70 2.028 . S
O71 C74 1.250 . S
O72 Mg73 2.028 . S
O72 C74 1.248 . S
Mg73 O72 2.028 . S
Mg73 O78 2.032 . S
Mg73 O80 2.079 . S
C74 O71 1.250 . S
C74 O72 1.248 . S
C75 O76 1.264 . S
C75 O83 1.249 . S
O76 C75 1.264 . S
O77 Mg70 1.986 . S
O77 C81 1.246 . S
O78 Mg73 2.032 . S
O78 C81 1.259 . S
O79 Mg70 2.114 . S
O79 C82 1.252 . S
O80 Mg70 2.251 . S
O80 Mg73 2.079 . S
O80 C82 1.273 . S
C81 O77 1.246 . S
C81 O78 1.259 . S
C82 O79 1.252 . S
C82 O80 1.273 . S
O83 Mg70 2.010 . S
O83 C75 1.249 . S
Mg84 O85 2.028 . S
Mg84 O91 1.986 . S
Mg84 O93 2.114 . S
Mg84 O94 2.251 . S
Mg84 O97 2.010 . S
O85 Mg84 2.028 . S
O85 C88 1.250 . S
O86 Mg87 2.028 . S
O86 C88 1.248 . S
Mg87 O86 2.028 . S
Mg87 O92 2.032 . S
Mg87 O94 2.079 . S
C88 O85 1.250 . S
C88 O86 1.248 . S
C89 O90 1.264 . S
C89 O97 1.249 . S
O90 C89 1.264 . S
O91 Mg84 1.986 . S
O91 C95 1.246 . S
O92 Mg87 2.032 . S
O92 C95 1.259 . S
O93 Mg84 2.114 . S
O93 C96 1.252 . S
O94 Mg84 2.251 . S
O94 Mg87 2.079 . S
O94 C96 1.273 . S
C95 O91 1.246 . S
C95 O92 1.259 . S
C96 O93 1.252 . S
C96 O94 1.273 . S
O97 Mg84 2.010 . S
O97 C89 1.249 . S
Mg98 O99 2.028 . S
Mg98 O105 1.986 . S
Mg98 O107 2.114 . S
Mg98 O108 2.251 . S
Mg98 O111 2.010 . S
O99 Mg98 2.028 . S
O99 C102 1.250 . S
O100 Mg101 2.028 . S
O100 C102 1.248 . S
Mg101 O100 2.028 . S
Mg101 O106 2.032 . S
Mg101 O108 2.079 . S
C102 O99 1.250 . S
C102 O100 1.248 . S
C103 O104 1.264 . S
C103 O111 1.249 . S
O104 C103 1.264 . S
O105 Mg98 1.986 . S
O105 C109 1.246 . S
O106 Mg101 2.032 . S
O106 C109 1.259 . S
O107 Mg98 2.114 . S
O107 C110 1.252 . S
O108 Mg98 2.251 . S
O108 Mg101 2.079 . S
O108 C110 1.273 . S
C109 O105 1.246 . S
C109 O106 1.259 . S
C110 O107 1.252 . S
C110 O108 1.273 . S
O111 Mg98 2.010 . S
O111 C103 1.249 . S
H112 C130 0.951 . S
H113 C132 0.951 . S
H114 C134 0.950 . S
H115 C135 0.950 . S
H116 C137 0.950 . S
H117 C140 0.950 . S
H118 C141 0.950 . S
H119 C143 0.950 . S
H120 C144 0.950 . S
H121 C145 0.951 . S
H122 C147 0.951 . S
H123 C149 0.950 . S
H124 C150 0.950 . S
H125 C152 0.950 . S
H126 C155 0.950 . S
H127 C156 0.950 . S
H128 C158 0.950 . S
H129 C159 0.950 . S
C130 H112 0.951 . S
C130 C131 1.366 1_655 S
C130 C132 1.388 . S
C131 C130 1.366 1_455 S
C131 C135 1.385 . S
C132 H113 0.951 . S
C132 C130 1.388 . S
C132 C133 1.366 1_655 S
C133 C132 1.366 1_455 S
C133 C134 1.414 . S
C133 C136 1.499 . S
C134 H114 0.950 . S
C134 C133 1.414 . S
C134 C135 1.374 . S
C135 H115 0.950 . S
C135 C131 1.385 . S
C135 C134 1.374 . S
C136 C133 1.499 . S
C136 C137 1.373 . S
C136 C138 1.389 1_455 S
C137 H116 0.950 . S
C137 C136 1.373 . S
C137 C153 1.377 . S
C138 C136 1.389 1_655 S
C138 C139 1.524 . S
C138 C152 1.377 . S
C139 C138 1.524 . S
C139 C140 1.397 . S
C139 C144 1.363 . S
C140 H117 0.950 . S
C140 C139 1.397 . S
C140 C141 1.334 . S
C141 H118 0.950 . S
C141 C140 1.334 . S
C141 C142 1.287 . S
C142 C141 1.287 . S
C142 C143 1.524 . S
C142 H161 0.913 . S
C143 H119 0.950 . S
C143 C142 1.524 . S
C143 C144 1.415 . S
C144 H120 0.950 . S
C144 C139 1.363 . S
C144 C143 1.415 . S
C145 H121 0.951 . S
C145 C146 1.366 . S
C145 C147 1.388 . S
C146 C145 1.366 . S
C146 C150 1.385 1_455 S
C147 H122 0.951 . S
C147 C145 1.388 . S
C147 C148 1.366 . S
C148 C147 1.366 . S
C148 C149 1.414 1_455 S
C148 C151 1.499 . S
C149 H123 0.950 . S
C149 C148 1.414 1_655 S
C149 C150 1.374 . S
C150 H124 0.950 . S
C150 C146 1.385 1_655 S
C150 C149 1.374 . S
C151 C148 1.499 . S
C151 C152 1.373 1_455 S
C151 C153 1.389 . S
C152 H125 0.950 . S
C152 C138 1.377 . S
C152 C151 1.373 1_655 S
C153 C137 1.377 . S
C153 C151 1.389 . S
C153 C154 1.524 . S
C154 C153 1.524 . S
C154 C155 1.397 . S
C154 C159 1.363 . S
C155 H126 0.950 . S
C155 C154 1.397 . S
C155 C156 1.334 . S
C156 H127 0.950 . S
C156 C155 1.334 . S
C156 C157 1.287 . S
C157 C156 1.287 . S
C157 C158 1.524 . S
C157 H160 0.999 . S
C158 H128 0.950 . S
C158 C157 1.524 . S
C158 C159 1.415 . S
C159 H129 0.950 . S
C159 C154 1.363 . S
C159 C158 1.415 . S
H160 C157 0.999 . S
H161 C142 0.913 . S
H162 C180 0.951 . S
H163 C182 0.951 . S
H164 C184 0.950 1_655 S
H165 C185 0.950 1_655 S
H166 C187 0.950 . S
H167 C190 0.950 . S
H168 C191 0.950 . S
H169 C193 0.950 . S
H170 C194 0.950 . S
H171 C195 0.951 . S
H172 C197 0.951 . S
H173 C199 0.950 . S
H174 C200 0.950 . S
H175 C202 0.950 . S
H176 C205 0.950 . S
H177 C206 0.950 . S
H178 C208 0.950 . S
H179 C209 0.950 . S
C180 H162 0.951 . S
C180 C181 1.366 . S
C180 C182 1.388 . S
C181 C180 1.366 . S
C181 C185 1.385 . S
C182 H163 0.951 . S
C182 C180 1.388 . S
C182 C183 1.366 . S
C183 C182 1.366 . S
C183 C184 1.414 . S
C183 C186 1.499 . S
C184 H164 0.950 1_455 S
C184 C183 1.414 . S
C184 C185 1.374 . S
C185 H165 0.950 1_455 S
C185 C181 1.385 . S
C185 C184 1.374 . S
C186 C183 1.499 . S
C186 C187 1.373 1_455 S
C186 C188 1.389 . S
C187 H166 0.950 . S
C187 C186 1.373 1_655 S
C187 C203 1.377 . S
C188 C186 1.389 . S
C188 C189 1.524 . S
C188 C202 1.377 . S
C189 C188 1.524 . S
C189 C190 1.397 . S
C189 C194 1.363 . S
C190 H167 0.950 . S
C190 C189 1.397 . S
C190 C191 1.334 . S
C191 H168 0.950 . S
C191 C190 1.334 . S
C191 C192 1.287 . S
C192 C191 1.287 . S
C192 C193 1.524 . S
C192 H211 0.913 . S
C193 H169 0.950 . S
C193 C192 1.524 . S
C193 C194 1.415 . S
C194 H170 0.950 . S
C194 C189 1.363 . S
C194 C193 1.415 . S
C195 H171 0.951 . S
C195 C196 1.366 1_655 S
C195 C197 1.388 . S
C196 C195 1.366 1_455 S
C196 C200 1.385 . S
C197 H172 0.951 . S
C197 C195 1.388 . S
C197 C198 1.366 1_655 S
C198 C197 1.366 1_455 S
C198 C199 1.414 . S
C198 C201 1.499 . S
C199 H173 0.950 . S
C199 C198 1.414 . S
C199 C200 1.374 . S
C200 H174 0.950 . S
C200 C196 1.385 . S
C200 C199 1.374 . S
C201 C198 1.499 . S
C201 C202 1.373 . S
C201 C203 1.389 1_455 S
C202 H175 0.950 . S
C202 C188 1.377 . S
C202 C201 1.373 . S
C203 C187 1.377 . S
C203 C201 1.389 1_655 S
C203 C204 1.524 . S
C204 C203 1.524 . S
C204 C205 1.397 . S
C204 C209 1.363 . S
C205 H176 0.950 . S
C205 C204 1.397 . S
C205 C206 1.334 . S
C206 H177 0.950 . S
C206 C205 1.334 . S
C206 C207 1.287 . S
C207 C206 1.287 . S
C207 C208 1.524 . S
C207 H210 0.999 . S
C208 H178 0.950 . S
C208 C207 1.524 . S
C208 C209 1.415 . S
C209 H179 0.950 . S
C209 C204 1.363 . S
C209 C208 1.415 . S
H210 C207 0.999 . S
H211 C192 0.913 . S
H212 C230 0.951 . S
H213 C232 0.951 . S
H214 C234 0.950 . S
H215 C235 0.950 . S
H216 C237 0.950 . S
H217 C240 0.950 . S
H218 C241 0.950 . S
H219 C243 0.950 . S
H220 C244 0.950 . S
H221 C245 0.951 . S
H222 C247 0.951 . S
H223 C249 0.950 . S
H224 C250 0.950 . S
H225 C252 0.950 . S
H226 C255 0.950 . S
H227 C256 0.950 . S
H228 C258 0.950 . S
H229 C259 0.950 . S
C230 H212 0.951 . S
C230 C231 1.366 . S
C230 C232 1.388 . S
C231 C230 1.366 . S
C231 C235 1.385 . S
C232 H213 0.951 . S
C232 C230 1.388 . S
C232 C233 1.366 . S
C233 C232 1.366 . S
C233 C234 1.414 . S
C233 C236 1.499 . S
C234 H214 0.950 . S
C234 C233 1.414 . S
C234 C235 1.374 . S
C235 H215 0.950 . S
C235 C231 1.385 . S
C235 C234 1.374 . S
C236 C233 1.499 . S
C236 C237 1.373 . S
C236 C238 1.389 . S
C237 H216 0.950 . S
C237 C236 1.373 . S
C237 C253 1.377 . S
C238 C236 1.389 . S
C238 C239 1.524 . S
C238 C252 1.377 . S
C239 C238 1.524 . S
C239 C240 1.397 . S
C239 C244 1.363 . S
C240 H217 0.950 . S
C240 C239 1.397 . S
C240 C241 1.334 . S
C241 H218 0.950 . S
C241 C240 1.334 . S
C241 C242 1.287 . S
C242 C241 1.287 . S
C242 C243 1.524 . S
C242 H261 0.913 . S
C243 H219 0.950 . S
C243 C242 1.524 . S
C243 C244 1.415 . S
C244 H220 0.950 . S
C244 C239 1.363 . S
C244 C243 1.415 . S
C245 H221 0.951 . S
C245 C246 1.366 . S
C245 C247 1.388 . S
C246 C245 1.366 . S
C246 C250 1.385 . S
C247 H222 0.951 . S
C247 C245 1.388 . S
C247 C248 1.366 . S
C248 C247 1.366 . S
C248 C249 1.414 . S
C248 C251 1.499 . S
C249 H223 0.950 . S
C249 C248 1.414 . S
C249 C250 1.374 . S
C250 H224 0.950 . S
C250 C246 1.385 . S
C250 C249 1.374 . S
C251 C248 1.499 . S
C251 C252 1.373 . S
C251 C253 1.389 . S
C252 H225 0.950 . S
C252 C238 1.377 . S
C252 C251 1.373 . S
C253 C237 1.377 . S
C253 C251 1.389 . S
C253 C254 1.524 . S
C254 C253 1.524 . S
C254 C255 1.397 . S
C254 C259 1.363 . S
C255 H226 0.950 . S
C255 C254 1.397 . S
C255 C256 1.334 . S
C256 H227 0.950 . S
C256 C255 1.334 . S
C256 C257 1.287 . S
C257 C256 1.287 . S
C257 C258 1.524 . S
C257 H260 0.999 . S
C258 H228 0.950 . S
C258 C257 1.524 . S
C258 C259 1.415 . S
C259 H229 0.950 . S
C259 C254 1.363 . S
C259 C258 1.415 . S
H260 C257 0.999 . S
H261 C242 0.913 . S
H262 C280 0.951 . S
H263 C282 0.951 . S
H264 C284 0.950 . S
H265 C285 0.950 . S
H266 C287 0.950 . S
H267 C290 0.950 . S
H268 C291 0.950 . S
H269 C293 0.950 . S
H270 C294 0.950 . S
H271 C295 0.951 . S
H272 C297 0.951 . S
H273 C299 0.950 . S
H274 C300 0.950 . S
H275 C302 0.950 . S
H276 C305 0.950 . S
H277 C306 0.950 . S
H278 C308 0.950 . S
H279 C309 0.950 . S
C280 H262 0.951 . S
C280 C281 1.366 . S
C280 C282 1.388 . S
C281 C280 1.366 . S
C281 C285 1.385 . S
C282 H263 0.951 . S
C282 C280 1.388 . S
C282 C283 1.366 . S
C283 C282 1.366 . S
C283 C284 1.414 . S
C283 C286 1.499 . S
C284 H264 0.950 . S
C284 C283 1.414 . S
C284 C285 1.374 . S
C285 H265 0.950 . S
C285 C281 1.385 . S
C285 C284 1.374 . S
C286 C283 1.499 . S
C286 C287 1.373 . S
C286 C288 1.389 . S
C287 H266 0.950 . S
C287 C286 1.373 . S
C287 C303 1.377 . S
C288 C286 1.389 . S
C288 C289 1.524 . S
C288 C302 1.377 . S
C289 C288 1.524 . S
C289 C290 1.397 . S
C289 C294 1.363 . S
C290 H267 0.950 . S
C290 C289 1.397 . S
C290 C291 1.334 . S
C291 H268 0.950 . S
C291 C290 1.334 . S
C291 C292 1.287 . S
C292 C291 1.287 . S
C292 C293 1.524 . S
C292 H311 0.913 . S
C293 H269 0.950 . S
C293 C292 1.524 . S
C293 C294 1.415 . S
C294 H270 0.950 . S
C294 C289 1.363 . S
C294 C293 1.415 . S
C295 H271 0.951 . S
C295 C296 1.366 . S
C295 C297 1.388 . S
C296 C295 1.366 . S
C296 C300 1.385 . S
C297 H272 0.951 . S
C297 C295 1.388 . S
C297 C298 1.366 . S
C298 C297 1.366 . S
C298 C299 1.414 . S
C298 C301 1.499 . S
C299 H273 0.950 . S
C299 C298 1.414 . S
C299 C300 1.374 . S
C300 H274 0.950 . S
C300 C296 1.385 . S
C300 C299 1.374 . S
C301 C298 1.499 . S
C301 C302 1.373 . S
C301 C303 1.389 . S
C302 H275 0.950 . S
C302 C288 1.377 . S
C302 C301 1.373 . S
C303 C287 1.377 . S
C303 C301 1.389 . S
C303 C304 1.524 . S
C304 C303 1.524 . S
C304 C305 1.397 . S
C304 C309 1.363 . S
C305 H276 0.950 . S
C305 C304 1.397 . S
C305 C306 1.334 . S
C306 H277 0.950 . S
C306 C305 1.334 . S
C306 C307 1.287 . S
C307 C306 1.287 . S
C307 C308 1.524 . S
C307 H310 0.999 . S
C308 H278 0.950 . S
C308 C307 1.524 . S
C308 C309 1.415 . S
C309 H279 0.950 . S
C309 C304 1.363 . S
C309 C308 1.415 . S
H310 C307 0.999 . S
H311 C292 0.913 . S
H312 C330 0.951 . S
H313 C332 0.951 . S
H314 C334 0.950 . S
H315 C335 0.950 . S
H316 C337 0.950 . S
H317 C340 0.950 . S
H318 C341 0.950 . S
H319 C343 0.950 . S
H320 C344 0.950 . S
H321 C345 0.951 . S
H322 C347 0.951 . S
H323 C349 0.950 . S
H324 C350 0.950 . S
H325 C352 0.950 . S
H326 C355 0.950 . S
H327 C356 0.950 . S
H328 C358 0.950 . S
H329 C359 0.950 . S
C330 H312 0.951 . S
C330 C331 1.366 . S
C330 C332 1.388 . S
C331 C330 1.366 . S
C331 C335 1.385 . S
C332 H313 0.951 . S
C332 C330 1.388 . S
C332 C333 1.366 . S
C333 C332 1.366 . S
C333 C334 1.414 . S
C333 C336 1.499 . S
C334 H314 0.950 . S
C334 C333 1.414 . S
C334 C335 1.374 . S
C335 H315 0.950 . S
C335 C331 1.385 . S
C335 C334 1.374 . S
C336 C333 1.499 . S
C336 C337 1.373 . S
C336 C338 1.389 . S
C337 H316 0.950 . S
C337 C336 1.373 . S
C337 C353 1.377 . S
C338 C336 1.389 . S
C338 C339 1.524 . S
C338 C352 1.377 . S
C339 C338 1.524 . S
C339 C340 1.397 . S
C339 C344 1.363 . S
C340 H317 0.950 . S
C340 C339 1.397 . S
C340 C341 1.334 . S
C341 H318 0.950 . S
C341 C340 1.334 . S
C341 C342 1.287 . S
C342 C341 1.287 . S
C342 C343 1.524 . S
C342 H361 0.913 . S
C343 H319 0.950 . S
C343 C342 1.524 . S
C343 C344 1.415 . S
C344 H320 0.950 . S
C344 C339 1.363 . S
C344 C343 1.415 . S
C345 H321 0.951 . S
C345 C346 1.366 . S
C345 C347 1.388 . S
C346 C345 1.366 . S
C346 C350 1.385 . S
C347 H322 0.951 . S
C347 C345 1.388 . S
C347 C348 1.366 . S
C348 C347 1.366 . S
C348 C349 1.414 . S
C348 C351 1.499 . S
C349 H323 0.950 . S
C349 C348 1.414 . S
C349 C350 1.374 . S
C350 H324 0.950 . S
C350 C346 1.385 . S
C350 C349 1.374 . S
C351 C348 1.499 . S
C351 C352 1.373 . S
C351 C353 1.389 . S
C352 H325 0.950 . S
C352 C338 1.377 . S
C352 C351 1.373 . S
C353 C337 1.377 . S
C353 C351 1.389 . S
C353 C354 1.524 . S
C354 C353 1.524 . S
C354 C355 1.397 1_545 S
C354 C359 1.363 . S
C355 H326 0.950 . S
C355 C354 1.397 1_565 S
C355 C356 1.334 . S
C356 H327 0.950 . S
C356 C355 1.334 . S
C356 C357 1.287 . S
C357 C356 1.287 . S
C357 C358 1.524 . S
C357 H360 0.999 . S
C358 H328 0.950 . S
C358 C357 1.524 . S
C358 C359 1.415 1_565 S
C359 H329 0.950 . S
C359 C354 1.363 . S
C359 C358 1.415 1_545 S
H360 C357 0.999 . S
H361 C342 0.913 . S
H362 C380 0.951 . S
H363 C382 0.951 . S
H364 C384 0.950 . S
H365 C385 0.950 . S
H366 C387 0.950 . S
H367 C390 0.950 . S
H368 C391 0.950 . S
H369 C393 0.950 . S
H370 C394 0.950 . S
H371 C395 0.951 . S
H372 C397 0.951 . S
H373 C399 0.950 . S
H374 C400 0.950 . S
H375 C402 0.950 . S
H376 C405 0.950 . S
H377 C406 0.950 . S
H378 C408 0.950 . S
H379 C409 0.950 . S
C380 H362 0.951 . S
C380 C381 1.366 . S
C380 C382 1.388 . S
C381 C380 1.366 . S
C381 C385 1.385 . S
C382 H363 0.951 . S
C382 C380 1.388 . S
C382 C383 1.366 . S
C383 C382 1.366 . S
C383 C384 1.414 . S
C383 C386 1.499 . S
C384 H364 0.950 . S
C384 C383 1.414 . S
C384 C385 1.374 . S
C385 H365 0.950 . S
C385 C381 1.385 . S
C385 C384 1.374 . S
C386 C383 1.499 . S
C386 C387 1.373 . S
C386 C388 1.389 . S
C387 H366 0.950 . S
C387 C386 1.373 . S
C387 C403 1.377 . S
C388 C386 1.389 . S
C388 C389 1.524 . S
C388 C402 1.377 . S
C389 C388 1.524 . S
C389 C390 1.397 . S
C389 C394 1.363 . S
C390 H367 0.950 . S
C390 C389 1.397 . S
C390 C391 1.334 . S
C391 H368 0.950 . S
C391 C390 1.334 . S
C391 C392 1.287 . S
C392 C391 1.287 . S
C392 C393 1.524 . S
C392 H411 0.913 . S
C393 H369 0.950 . S
C393 C392 1.524 . S
C393 C394 1.415 . S
C394 H370 0.950 . S
C394 C389 1.363 . S
C394 C393 1.415 . S
C395 H371 0.951 . S
C395 C396 1.366 . S
C395 C397 1.388 . S
C396 C395 1.366 . S
C396 C400 1.385 . S
C397 H372 0.951 . S
C397 C395 1.388 . S
C397 C398 1.366 . S
C398 C397 1.366 . S
C398 C399 1.414 . S
C398 C401 1.499 . S
C399 H373 0.950 . S
C399 C398 1.414 . S
C399 C400 1.374 . S
C400 H374 0.950 . S
C400 C396 1.385 . S
C400 C399 1.374 . S
C401 C398 1.499 . S
C401 C402 1.373 . S
C401 C403 1.389 . S
C402 H375 0.950 . S
C402 C388 1.377 . S
C402 C401 1.373 . S
C403 C387 1.377 . S
C403 C401 1.389 . S
C403 C404 1.524 . S
C404 C403 1.524 . S
C404 C405 1.397 . S
C404 C409 1.363 . S
C405 H376 0.950 . S
C405 C404 1.397 . S
C405 C406 1.334 . S
C406 H377 0.950 . S
C406 C405 1.334 . S
C406 C407 1.287 . S
C407 C406 1.287 . S
C407 C408 1.524 . S
C407 H410 0.999 . S
C408 H378 0.950 . S
C408 C407 1.524 . S
C408 C409 1.415 . S
C409 H379 0.950 . S
C409 C404 1.363 . S
C409 C408 1.415 . S
H410 C407 0.999 . S
H411 C392 0.913 . S
H412 C430 0.951 . S
H413 C432 0.951 . S
H414 C434 0.950 . S
H415 C435 0.950 . S
H416 C437 0.950 . S
H417 C440 0.950 1_565 S
H418 C441 0.950 . S
H419 C443 0.950 . S
H420 C444 0.950 . S
H421 C445 0.951 . S
H422 C447 0.951 . S
H423 C449 0.950 . S
H424 C450 0.950 . S
H425 C452 0.950 . S
H426 C455 0.950 . S
H427 C456 0.950 . S
H428 C458 0.950 . S
H429 C459 0.950 . S
C430 H412 0.951 . S
C430 C431 1.366 . S
C430 C432 1.388 . S
C431 C430 1.366 . S
C431 C435 1.385 . S
C432 H413 0.951 . S
C432 C430 1.388 . S
C432 C433 1.366 . S
C433 C432 1.366 . S
C433 C434 1.414 . S
C433 C436 1.499 . S
C434 H414 0.950 . S
C434 C433 1.414 . S
C434 C435 1.374 . S
C435 H415 0.950 . S
C435 C431 1.385 . S
C435 C434 1.374 . S
C436 C433 1.499 . S
C436 C437 1.373 . S
C436 C438 1.389 . S
C437 H416 0.950 . S
C437 C436 1.373 . S
C437 C453 1.377 . S
C438 C436 1.389 . S
C438 C439 1.524 . S
C438 C452 1.377 . S
C439 C438 1.524 . S
C439 C440 1.397 1_565 S
C439 C444 1.363 1_565 S
C440 H417 0.950 1_545 S
C440 C439 1.397 1_545 S
C440 C441 1.334 . S
C441 H418 0.950 . S
C441 C440 1.334 . S
C441 C442 1.287 . S
C442 C441 1.287 . S
C442 C443 1.524 . S
C442 H461 0.913 . S
C443 H419 0.950 . S
C443 C442 1.524 . S
C443 C444 1.415 . S
C444 H420 0.950 . S
C444 C439 1.363 1_545 S
C444 C443 1.415 . S
C445 H421 0.951 . S
C445 C446 1.366 . S
C445 C447 1.388 . S
C446 C445 1.366 . S
C446 C450 1.385 . S
C447 H422 0.951 . S
C447 C445 1.388 . S
C447 C448 1.366 . S
C448 C447 1.366 . S
C448 C449 1.414 . S
C448 C451 1.499 . S
C449 H423 0.950 . S
C449 C448 1.414 . S
C449 C450 1.374 . S
C450 H424 0.950 . S
C450 C446 1.385 . S
C450 C449 1.374 . S
C451 C448 1.499 . S
C451 C452 1.373 . S
C451 C453 1.389 . S
C452 H425 0.950 . S
C452 C438 1.377 . S
C452 C451 1.373 . S
C453 C437 1.377 . S
C453 C451 1.389 . S
C453 C454 1.524 . S
C454 C453 1.524 . S
C454 C455 1.397 . S
C454 C459 1.363 . S
C455 H426 0.950 . S
C455 C454 1.397 . S
C455 C456 1.334 . S
C456 H427 0.950 . S
C456 C455 1.334 . S
C456 C457 1.287 . S
C457 C456 1.287 . S
C457 C458 1.524 . S
C457 H460 0.999 . S
C458 H428 0.950 . S
C458 C457 1.524 . S
C458 C459 1.415 . S
C459 H429 0.950 . S
C459 C454 1.363 . S
C459 C458 1.415 . S
H460 C457 0.999 . S
H461 C442 0.913 . S
H462 C480 0.951 . S
H463 C482 0.951 . S
H464 C484 0.950 . S
H465 C485 0.950 . S
H466 C487 0.950 . S
H467 C490 0.950 . S
H468 C491 0.950 . S
H469 C493 0.950 . S
H470 C494 0.950 . S
H471 C495 0.951 . S
H472 C497 0.951 . S
H473 C499 0.950 . S
H474 C500 0.950 . S
H475 C502 0.950 . S
H476 C505 0.950 . S
H477 C506 0.950 . S
H478 C508 0.950 . S
H479 C509 0.950 . S
C480 H462 0.951 . S
C480 C481 1.366 . S
C480 C482 1.388 . S
C481 C480 1.366 . S
C481 C485 1.385 . S
C482 H463 0.951 . S
C482 C480 1.388 . S
C482 C483 1.366 . S
C483 C482 1.366 . S
C483 C484 1.414 . S
C483 C486 1.499 . S
C484 H464 0.950 . S
C484 C483 1.414 . S
C484 C485 1.374 . S
C485 H465 0.950 . S
C485 C481 1.385 . S
C485 C484 1.374 . S
C486 C483 1.499 . S
C486 C487 1.373 . S
C486 C488 1.389 . S
C487 H466 0.950 . S
C487 C486 1.373 . S
C487 C503 1.377 . S
C488 C486 1.389 . S
C488 C489 1.524 . S
C488 C502 1.377 . S
C489 C488 1.524 . S
C489 C490 1.397 . S
C489 C494 1.363 . S
C490 H467 0.950 . S
C490 C489 1.397 . S
C490 C491 1.334 . S
C491 H468 0.950 . S
C491 C490 1.334 . S
C491 C492 1.287 . S
C492 C491 1.287 . S
C492 C493 1.524 . S
C492 H511 0.913 . S
C493 H469 0.950 . S
C493 C492 1.524 . S
C493 C494 1.415 . S
C494 H470 0.950 . S
C494 C489 1.363 . S
C494 C493 1.415 . S
C495 H471 0.951 . S
C495 C496 1.366 . S
C495 C497 1.388 . S
C496 C495 1.366 . S
C496 C500 1.385 . S
C497 H472 0.951 . S
C497 C495 1.388 . S
C497 C498 1.366 . S
C498 C497 1.366 . S
C498 C499 1.414 . S
C498 C501 1.499 . S
C499 H473 0.950 . S
C499 C498 1.414 . S
C499 C500 1.374 . S
C500 H474 0.950 . S
C500 C496 1.385 . S
C500 C499 1.374 . S
C501 C498 1.499 . S
C501 C502 1.373 . S
C501 C503 1.389 . S
C502 H475 0.950 . S
C502 C488 1.377 . S
C502 C501 1.373 . S
C503 C487 1.377 . S
C503 C501 1.389 . S
C503 C504 1.524 . S
C504 C503 1.524 . S
C504 C505 1.397 . S
C504 C509 1.363 . S
C505 H476 0.950 . S
C505 C504 1.397 . S
C505 C506 1.334 . S
C506 H477 0.950 . S
C506 C505 1.334 . S
C506 C507 1.287 . S
C507 C506 1.287 . S
C507 C508 1.524 . S
C507 H510 0.999 . S
C508 H478 0.950 . S
C508 C507 1.524 . S
C508 C509 1.415 . S
C509 H479 0.950 . S
C509 C504 1.363 . S
C509 C508 1.415 . S
H510 C507 0.999 . S
H511 C492 0.913 . S
H512 C530 0.951 . S
H513 C532 0.951 . S
H514 C534 0.950 . S
H515 C535 0.950 . S
H516 C537 0.950 . S
H517 C540 0.950 . S
H518 C541 0.950 . S
H519 C543 0.950 . S
H520 C544 0.950 . S
H521 C545 0.951 . S
H522 C547 0.951 . S
H523 C549 0.950 . S
H524 C550 0.950 . S
H525 C552 0.950 . S
H526 C555 0.950 . S
H527 C556 0.950 . S
H528 C558 0.950 . S
H529 C559 0.950 . S
C530 H512 0.951 . S
C530 C531 1.366 . S
C530 C532 1.388 . S
C531 C530 1.366 . S
C531 C535 1.385 . S
C532 H513 0.951 . S
C532 C530 1.388 . S
C532 C533 1.366 . S
C533 C532 1.366 . S
C533 C534 1.414 . S
C533 C536 1.499 . S
C534 H514 0.950 . S
C534 C533 1.414 . S
C534 C535 1.374 . S
C535 H515 0.950 . S
C535 C531 1.385 . S
C535 C534 1.374 . S
C536 C533 1.499 . S
C536 C537 1.373 . S
C536 C538 1.389 . S
C537 H516 0.950 . S
C537 C536 1.373 . S
C537 C553 1.377 . S
C538 C536 1.389 . S
C538 C539 1.524 . S
C538 C552 1.377 . S
C539 C538 1.524 . S
C539 C540 1.397 . S
C539 C544 1.363 . S
C540 H517 0.950 . S
C540 C539 1.397 . S
C540 C541 1.334 . S
C541 H518 0.950 . S
C541 C540 1.334 . S
C541 C542 1.287 . S
C542 C541 1.287 . S
C542 C543 1.524 . S
C542 H561 0.913 . S
C543 H519 0.950 . S
C543 C542 1.524 . S
C543 C544 1.415 . S
C544 H520 0.950 . S
C544 C539 1.363 . S
C544 C543 1.415 . S
C545 H521 0.951 . S
C545 C546 1.366 . S
C545 C547 1.388 . S
C546 C545 1.366 . S
C546 C550 1.385 . S
C547 H522 0.951 . S
C547 C545 1.388 . S
C547 C548 1.366 . S
C548 C547 1.366 . S
C548 C549 1.414 . S
C548 C551 1.499 . S
C549 H523 0.950 . S
C549 C548 1.414 . S
C549 C550 1.374 . S
C550 H524 0.950 . S
C550 C546 1.385 . S
C550 C549 1.374 . S
C551 C548 1.499 . S
C551 C552 1.373 . S
C551 C553 1.389 . S
C552 H525 0.950 . S
C552 C538 1.377 . S
C552 C551 1.373 . S
C553 C537 1.377 . S
C553 C551 1.389 . S
C553 C554 1.524 . S
C554 C553 1.524 . S
C554 C555 1.397 . S
C554 C559 1.363 . S
C555 H526 0.950 . S
C555 C554 1.397 . S
C555 C556 1.334 . S
C556 H527 0.950 . S
C556 C555 1.334 . S
C556 C557 1.287 . S
C557 C556 1.287 . S
C557 C558 1.524 . S
C557 H560 0.999 . S
C558 H528 0.950 . S
C558 C557 1.524 . S
C558 C559 1.415 . S
C559 H529 0.950 . S
C559 C554 1.363 . S
C559 C558 1.415 . S
H560 C557 0.999 . S
H561 C542 0.913 . S
H562 C580 0.951 . S
H563 C582 0.951 . S
H564 C584 0.950 . S
H565 C585 0.950 . S
H566 C587 0.950 . S
H567 C590 0.950 . S
H568 C591 0.950 . S
H569 C593 0.950 . S
H570 C594 0.950 . S
H571 C595 0.951 . S
H572 C597 0.951 . S
H573 C599 0.950 . S
H574 C600 0.950 . S
H575 C602 0.950 . S
H576 C605 0.950 . S
H577 C606 0.950 . S
H578 C608 0.950 . S
H579 C609 0.950 . S
C580 H562 0.951 . S
C580 C581 1.366 . S
C580 C582 1.388 . S
C581 C580 1.366 . S
C581 C585 1.385 . S
C582 H563 0.951 . S
C582 C580 1.388 . S
C582 C583 1.366 . S
C583 C582 1.366 . S
C583 C584 1.414 . S
C583 C586 1.499 . S
C584 H564 0.950 . S
C584 C583 1.414 . S
C584 C585 1.374 . S
C585 H565 0.950 . S
C585 C581 1.385 . S
C585 C584 1.374 . S
C586 C583 1.499 . S
C586 C587 1.373 . S
C586 C588 1.389 . S
C587 H566 0.950 . S
C587 C586 1.373 . S
C587 C603 1.377 . S
C588 C586 1.389 . S
C588 C589 1.524 . S
C588 C602 1.377 . S
C589 C588 1.524 . S
C589 C590 1.397 . S
C589 C594 1.363 . S
C590 H567 0.950 . S
C590 C589 1.397 . S
C590 C591 1.334 . S
C591 H568 0.950 . S
C591 C590 1.334 . S
C591 C592 1.287 . S
C592 C591 1.287 . S
C592 C593 1.524 . S
C592 H611 0.913 . S
C593 H569 0.950 . S
C593 C592 1.524 . S
C593 C594 1.415 . S
C594 H570 0.950 . S
C594 C589 1.363 . S
C594 C593 1.415 . S
C595 H571 0.951 . S
C595 C596 1.366 . S
C595 C597 1.388 . S
C596 C595 1.366 . S
C596 C600 1.385 . S
C597 H572 0.951 . S
C597 C595 1.388 . S
C597 C598 1.366 . S
C598 C597 1.366 . S
C598 C599 1.414 . S
C598 C601 1.499 . S
C599 H573 0.950 . S
C599 C598 1.414 . S
C599 C600 1.374 . S
C600 H574 0.950 . S
C600 C596 1.385 . S
C600 C599 1.374 . S
C601 C598 1.499 . S
C601 C602 1.373 . S
C601 C603 1.389 . S
C602 H575 0.950 . S
C602 C588 1.377 . S
C602 C601 1.373 . S
C603 C587 1.377 . S
C603 C601 1.389 . S
C603 C604 1.524 . S
C604 C603 1.524 . S
C604 C605 1.397 . S
C604 C609 1.363 . S
C605 H576 0.950 . S
C605 C604 1.397 . S
C605 C606 1.334 . S
C606 H577 0.950 . S
C606 C605 1.334 . S
C606 C607 1.287 . S
C607 C606 1.287 . S
C607 C608 1.524 . S
C607 H610 0.999 . S
C608 H578 0.950 . S
C608 C607 1.524 . S
C608 C609 1.415 . S
C609 H579 0.950 . S
C609 C604 1.363 . S
C609 C608 1.415 . S
H610 C607 0.999 . S
H611 C592 0.913 . S
H612 C630 0.951 . S
H613 C632 0.951 . S
H614 C634 0.950 . S
H615 C635 0.950 . S
H616 C637 0.950 . S
H617 C640 0.950 . S
H618 C641 0.950 . S
H619 C643 0.950 . S
H620 C644 0.950 . S
H621 C645 0.951 . S
H622 C647 0.951 . S
H623 C649 0.950 . S
H624 C650 0.950 . S
H625 C652 0.950 . S
H626 C655 0.950 . S
H627 C656 0.950 . S
H628 C658 0.950 . S
H629 C659 0.950 . S
C630 H612 0.951 . S
C630 C631 1.366 . S
C630 C632 1.388 . S
C631 C630 1.366 . S
C631 C635 1.385 . S
C632 H613 0.951 . S
C632 C630 1.388 . S
C632 C633 1.366 . S
C633 C632 1.366 . S
C633 C634 1.414 . S
C633 C636 1.499 . S
C634 H614 0.950 . S
C634 C633 1.414 . S
C634 C635 1.374 . S
C635 H615 0.950 . S
C635 C631 1.385 . S
C635 C634 1.374 . S
C636 C633 1.499 . S
C636 C637 1.373 . S
C636 C638 1.389 . S
C637 H616 0.950 . S
C637 C636 1.373 . S
C637 C653 1.377 . S
C638 C636 1.389 . S
C638 C639 1.524 . S
C638 C652 1.377 . S
C639 C638 1.524 . S
C639 C640 1.397 1_545 S
C639 C644 1.363 . S
C640 H617 0.950 . S
C640 C639 1.397 1_565 S
C640 C641 1.334 . S
C641 H618 0.950 . S
C641 C640 1.334 . S
C641 C642 1.287 . S
C642 C641 1.287 . S
C642 C643 1.524 . S
C642 H661 0.913 . S
C643 H619 0.950 . S
C643 C642 1.524 . S
C643 C644 1.415 1_565 S
C644 H620 0.950 . S
C644 C639 1.363 . S
C644 C643 1.415 1_545 S
C645 H621 0.951 . S
C645 C646 1.366 . S
C645 C647 1.388 . S
C646 C645 1.366 . S
C646 C650 1.385 . S
C647 H622 0.951 . S
C647 C645 1.388 . S
C647 C648 1.366 . S
C648 C647 1.366 . S
C648 C649 1.414 . S
C648 C651 1.499 . S
C649 H623 0.950 . S
C649 C648 1.414 . S
C649 C650 1.374 . S
C650 H624 0.950 . S
C650 C646 1.385 . S
C650 C649 1.374 . S
C651 C648 1.499 . S
C651 C652 1.373 . S
C651 C653 1.389 . S
C652 H625 0.950 . S
C652 C638 1.377 . S
C652 C651 1.373 . S
C653 C637 1.377 . S
C653 C651 1.389 . S
C653 C654 1.524 . S
C654 C653 1.524 . S
C654 C655 1.397 . S
C654 C659 1.363 . S
C655 H626 0.950 . S
C655 C654 1.397 . S
C655 C656 1.334 . S
C656 H627 0.950 . S
C656 C655 1.334 . S
C656 C657 1.287 . S
C657 C656 1.287 . S
C657 C658 1.524 . S
C657 H660 0.999 . S
C658 H628 0.950 . S
C658 C657 1.524 . S
C658 C659 1.415 . S
C659 H629 0.950 . S
C659 C654 1.363 . S
C659 C658 1.415 . S
H660 C657 0.999 . S
H661 C642 0.913 . S
H662 C680 0.951 . S
H663 C682 0.951 . S
H664 C684 0.950 . S
H665 C685 0.950 . S
H666 C687 0.950 . S
H667 C690 0.950 . S
H668 C691 0.950 . S
H669 C693 0.950 . S
H670 C694 0.950 . S
H671 C695 0.951 . S
H672 C697 0.951 . S
H673 C699 0.950 . S
H674 C700 0.950 . S
H675 C702 0.950 . S
H676 C705 0.950 . S
H677 C706 0.950 . S
H678 C708 0.950 . S
H679 C709 0.950 . S
C680 H662 0.951 . S
C680 C681 1.366 . S
C680 C682 1.388 . S
C681 C680 1.366 . S
C681 C685 1.385 . S
C682 H663 0.951 . S
C682 C680 1.388 . S
C682 C683 1.366 . S
C683 C682 1.366 . S
C683 C684 1.414 . S
C683 C686 1.499 . S
C684 H664 0.950 . S
C684 C683 1.414 . S
C684 C685 1.374 . S
C685 H665 0.950 . S
C685 C681 1.385 . S
C685 C684 1.374 . S
C686 C683 1.499 . S
C686 C687 1.373 . S
C686 C688 1.389 . S
C687 H666 0.950 . S
C687 C686 1.373 . S
C687 C703 1.377 . S
C688 C686 1.389 . S
C688 C689 1.524 . S
C688 C702 1.377 . S
C689 C688 1.524 . S
C689 C690 1.397 . S
C689 C694 1.363 . S
C690 H667 0.950 . S
C690 C689 1.397 . S
C690 C691 1.334 . S
C691 H668 0.950 . S
C691 C690 1.334 . S
C691 C692 1.287 . S
C692 C691 1.287 . S
C692 C693 1.524 . S
C692 H711 0.913 . S
C693 H669 0.950 . S
C693 C692 1.524 . S
C693 C694 1.415 . S
C694 H670 0.950 . S
C694 C689 1.363 . S
C694 C693 1.415 . S
C695 H671 0.951 . S
C695 C696 1.366 . S
C695 C697 1.388 . S
C696 C695 1.366 . S
C696 C700 1.385 . S
C697 H672 0.951 . S
C697 C695 1.388 . S
C697 C698 1.366 . S
C698 C697 1.366 . S
C698 C699 1.414 . S
C698 C701 1.499 . S
C699 H673 0.950 . S
C699 C698 1.414 . S
C699 C700 1.374 . S
C700 H674 0.950 . S
C700 C696 1.385 . S
C700 C699 1.374 . S
C701 C698 1.499 . S
C701 C702 1.373 . S
C701 C703 1.389 . S
C702 H675 0.950 . S
C702 C688 1.377 . S
C702 C701 1.373 . S
C703 C687 1.377 . S
C703 C701 1.389 . S
C703 C704 1.524 . S
C704 C703 1.524 . S
C704 C705 1.397 . S
C704 C709 1.363 . S
C705 H676 0.950 . S
C705 C704 1.397 . S
C705 C706 1.334 . S
C706 H677 0.950 . S
C706 C705 1.334 . S
C706 C707 1.287 . S
C707 C706 1.287 . S
C707 C708 1.524 . S
C707 H710 0.999 . S
C708 H678 0.950 . S
C708 C707 1.524 . S
C708 C709 1.415 . S
C709 H679 0.950 . S
C709 C704 1.363 . S
C709 C708 1.415 . S
H710 C707 0.999 . S
H711 C692 0.913 . S
H712 C730 0.951 . S
H713 C732 0.951 1_565 S
H714 C734 0.950 . S
H715 C735 0.950 . S
H716 C737 0.950 . S
H717 C740 0.950 . S
H718 C741 0.950 . S
H719 C743 0.950 . S
H720 C744 0.950 . S
H721 C745 0.951 . S
H722 C747 0.951 1_545 S
H723 C749 0.950 . S
H724 C750 0.950 . S
H725 C752 0.950 . S
H726 C755 0.951 1_655 S
H727 C756 0.950 . S
H728 C758 0.950 . S
H729 C759 0.950 . S
C730 H712 0.951 . S
C730 C731 1.366 1_655 S
C730 C732 1.388 . S
C731 C730 1.366 1_455 S
C731 C735 1.385 . S
C732 H713 0.951 1_545 S
C732 C730 1.388 . S
C732 C733 1.366 1_655 S
C733 C732 1.366 1_455 S
C733 C734 1.414 . S
C733 C736 1.499 . S
C734 H714 0.950 . S
C734 C733 1.414 . S
C734 C735 1.374 . S
C735 H715 0.950 . S
C735 C731 1.385 . S
C735 C734 1.374 . S
C736 C733 1.499 . S
C736 C737 1.373 . S
C736 C738 1.389 1_545 S
C737 H716 0.950 . S
C737 C736 1.373 . S
C737 C753 1.377 1_554 S
C738 C736 1.389 1_565 S
C738 C739 1.524 . S
C738 C752 1.377 1_554 S
C739 C738 1.524 . S
C739 C740 1.397 . S
C739 C744 1.363 1_455 S
C740 H717 0.950 . S
C740 C739 1.397 . S
C740 C741 1.334 . S
C741 H718 0.950 . S
C741 C740 1.334 . S
C741 C742 1.287 . S
C742 C741 1.287 . S
C742 C743 1.524 1_455 S
C742 H761 0.913 . S
C743 H719 0.950 . S
C743 C742 1.524 1_655 S
C743 C744 1.415 . S
C744 H720 0.950 . S
C744 C739 1.363 1_655 S
C744 C743 1.415 . S
C745 H721 0.951 . S
C745 C746 1.366 . S
C745 C747 1.388 . S
C746 C745 1.366 . S
C746 C750 1.385 1_455 S
C747 H722 0.951 1_565 S
C747 C745 1.388 . S
C747 C748 1.366 . S
C748 C747 1.366 . S
C748 C749 1.414 1_455 S
C748 C751 1.499 . S
C749 H723 0.950 . S
C749 C748 1.414 1_655 S
C749 C750 1.374 . S
C750 H724 0.950 . S
C750 C746 1.385 1_655 S
C750 C749 1.374 . S
C751 C748 1.499 . S
C751 C752 1.373 . S
C751 C753 1.389 1_565 S
C752 H725 0.950 . S
C752 C738 1.377 1_556 S
C752 C751 1.373 . S
C753 C737 1.377 1_556 S
C753 C751 1.389 1_545 S
C753 C754 1.524 . S
C754 C753 1.524 . S
C754 C755 1.395 . S
C754 C759 1.363 . S
C755 H726 0.951 1_455 S
C755 C754 1.395 . S
C755 C756 1.334 1_455 S
C756 H727 0.950 . S
C756 C755 1.334 1_655 S
C756 C757 1.287 1_655 S
C757 C756 1.287 1_455 S
C757 C758 1.524 . S
C757 H760 0.999 . S
C758 H728 0.950 . S
C758 C757 1.524 . S
C758 C759 1.415 . S
C759 H729 0.950 . S
C759 C754 1.363 . S
C759 C758 1.415 . S
H760 C757 0.999 . S
H761 C742 0.913 . S
H762 C780 0.951 . S
H763 C782 0.951 . S
H764 C784 0.950 . S
H765 C785 0.950 . S
H766 C787 0.950 . S
H767 C790 0.950 . S
H768 C791 0.950 . S
H769 C793 0.950 . S
H770 C794 0.950 . S
H771 C795 0.951 . S
H772 C797 0.951 . S
H773 C799 0.951 . S
H774 C800 0.954 . S
H775 C802 0.950 . S
H776 C805 0.950 . S
H777 C806 0.950 . S
H778 C808 0.950 . S
H779 C809 0.950 . S
C780 H762 0.951 . S
C780 C781 1.366 1_655 S
C780 C782 1.388 . S
C781 C780 1.366 1_455 S
C781 C785 1.385 . S
C782 H763 0.951 . S
C782 C780 1.388 . S
C782 C783 1.366 1_655 S
C783 C782 1.366 1_455 S
C783 C784 1.414 . S
C783 C786 1.499 . S
C784 H764 0.950 . S
C784 C783 1.414 . S
C784 C785 1.374 . S
C785 H765 0.950 . S
C785 C781 1.385 . S
C785 C784 1.374 . S
C786 C783 1.499 . S
C786 C787 1.373 . S
C786 C788 1.389 1_455 S
C787 H766 0.950 . S
C787 C786 1.373 . S
C787 C803 1.377 1_556 S
C788 C786 1.389 1_655 S
C788 C789 1.524 . S
C788 C802 1.377 1_556 S
C789 C788 1.524 . S
C789 C790 1.397 . S
C789 C794 1.363 . S
C790 H767 0.950 . S
C790 C789 1.397 . S
C790 C791 1.334 . S
C791 H768 0.950 . S
C791 C790 1.334 . S
C791 C792 1.287 . S
C792 C791 1.287 . S
C792 C793 1.524 . S
C792 H811 0.913 . S
C793 H769 0.950 . S
C793 C792 1.524 . S
C793 C794 1.415 . S
C794 H770 0.950 . S
C794 C789 1.363 . S
C794 C793 1.415 . S
C795 H771 0.951 . S
C795 C796 1.366 . S
C795 C797 1.388 . S
C796 C795 1.366 . S
C796 C800 1.381 1_455 S
C797 H772 0.951 . S
C797 C795 1.388 . S
C797 C798 1.366 . S
C798 C797 1.366 . S
C798 C799 1.413 1_455 S
C798 C801 1.499 . S
C799 H773 0.951 . S
C799 C798 1.413 1_655 S
C799 C800 1.374 . S
C800 H774 0.954 . S
C800 C796 1.381 1_655 S
C800 C799 1.374 . S
C801 C798 1.499 . S
C801 C802 1.373 1_455 S
C801 C803 1.389 . S
C802 H775 0.950 . S
C802 C788 1.377 1_554 S
C802 C801 1.373 1_655 S
C803 C787 1.377 1_554 S
C803 C801 1.389 . S
C803 C804 1.524 . S
C804 C803 1.524 . S
C804 C805 1.397 . S
C804 C809 1.363 . S
C805 H776 0.950 . S
C805 C804 1.397 . S
C805 C806 1.334 . S
C806 H777 0.950 . S
C806 C805 1.334 . S
C806 C807 1.287 . S
C807 C806 1.287 . S
C807 C808 1.524 . S
C807 H810 0.999 . S
C808 H778 0.950 . S
C808 C807 1.524 . S
C808 C809 1.415 . S
C809 H779 0.950 . S
C809 C804 1.363 . S
C809 C808 1.415 . S
H810 C807 0.999 . S
H811 C792 0.913 . S
H812 C830 0.951 . S
H813 C832 0.951 . S
H814 C834 0.950 . S
H815 C835 0.950 . S
H816 C837 0.950 . S
H817 C840 0.950 . S
H818 C841 0.950 . S
H819 C843 0.950 . S
H820 C844 0.950 . S
H821 C845 0.951 . S
H822 C847 0.951 . S
H823 C849 0.950 . S
H824 C850 0.950 . S
H825 C852 0.950 . S
H826 C855 0.950 . S
H827 C856 0.950 . S
H828 C858 0.950 . S
H829 C859 0.950 . S
C830 H812 0.951 . S
C830 C831 1.366 . S
C830 C832 1.388 . S
C831 C830 1.366 . S
C831 C835 1.385 . S
C832 H813 0.951 . S
C832 C830 1.388 . S
C832 C833 1.366 . S
C833 C832 1.366 . S
C833 C834 1.414 . S
C833 C836 1.499 . S
C834 H814 0.950 . S
C834 C833 1.414 . S
C834 C835 1.374 . S
C835 H815 0.950 . S
C835 C831 1.385 . S
C835 C834 1.374 . S
C836 C833 1.499 . S
C836 C837 1.373 . S
C836 C838 1.389 . S
C837 H816 0.950 . S
C837 C836 1.373 . S
C837 C853 1.377 . S
C838 C836 1.389 . S
C838 C839 1.524 . S
C838 C852 1.377 . S
C839 C838 1.524 . S
C839 C840 1.397 . S
C839 C844 1.363 . S
C840 H817 0.950 . S
C840 C839 1.397 . S
C840 C841 1.334 . S
C841 H818 0.950 . S
C841 C840 1.334 . S
C841 C842 1.287 . S
C842 C841 1.287 . S
C842 C843 1.524 . S
C842 H861 0.913 . S
C843 H819 0.950 . S
C843 C842 1.524 . S
C843 C844 1.415 . S
C844 H820 0.950 . S
C844 C839 1.363 . S
C844 C843 1.415 . S
C845 H821 0.951 . S
C845 C846 1.366 . S
C845 C847 1.388 . S
C846 C845 1.366 . S
C846 C850 1.385 . S
C847 H822 0.951 . S
C847 C845 1.388 . S
C847 C848 1.366 . S
C848 C847 1.366 . S
C848 C849 1.414 . S
C848 C851 1.499 . S
C849 H823 0.950 . S
C849 C848 1.414 . S
C849 C850 1.374 . S
C850 H824 0.950 . S
C850 C846 1.385 . S
C850 C849 1.374 . S
C851 C848 1.499 . S
C851 C852 1.373 . S
C851 C853 1.389 . S
C852 H825 0.950 . S
C852 C838 1.377 . S
C852 C851 1.373 . S
C853 C837 1.377 . S
C853 C851 1.389 . S
C853 C854 1.524 . S
C854 C853 1.524 . S
C854 C855 1.397 . S
C854 C859 1.363 . S
C855 H826 0.950 . S
C855 C854 1.397 . S
C855 C856 1.334 . S
C856 H827 0.950 . S
C856 C855 1.334 . S
C856 C857 1.287 . S
C857 C856 1.287 . S
C857 C858 1.524 . S
C857 H860 0.999 . S
C858 H828 0.950 . S
C858 C857 1.524 . S
C858 C859 1.415 . S
C859 H829 0.950 . S
C859 C854 1.363 . S
C859 C858 1.415 . S
H860 C857 0.999 . S
H861 C842 0.913 . S
H862 C880 0.951 . S
H863 C882 0.951 . S
H864 C884 0.951 1_545 S
H865 C885 0.950 1_545 S
H866 C887 0.950 . S
H867 C890 0.950 . S
H868 C891 0.950 . S
H869 C893 0.950 . S
H870 C894 0.950 . S
H871 C895 0.951 . S
H872 C897 0.951 . S
H873 C899 0.951 1_565 S
H874 C900 0.950 1_565 S
H875 C902 0.950 . S
H876 C905 0.950 . S
H877 C906 0.950 . S
H878 C908 0.950 . S
H879 C909 0.950 . S
C880 H862 0.951 . S
C880 C881 1.366 . S
C880 C882 1.388 . S
C881 C880 1.366 . S
C881 C885 1.385 . S
C882 H863 0.951 . S
C882 C880 1.388 . S
C882 C883 1.366 . S
C883 C882 1.366 . S
C883 C884 1.414 . S
C883 C886 1.499 . S
C884 H864 0.951 1_565 S
C884 C883 1.414 . S
C884 C885 1.374 . S
C885 H865 0.950 1_565 S
C885 C881 1.385 . S
C885 C884 1.374 . S
C886 C883 1.499 . S
C886 C887 1.373 1_565 S
C886 C888 1.389 . S
C887 H866 0.950 . S
C887 C886 1.373 1_545 S
C887 C903 1.377 . S
C888 C886 1.389 . S
C888 C889 1.524 . S
C888 C902 1.377 . S
C889 C888 1.524 . S
C889 C890 1.397 . S
C889 C894 1.363 . S
C890 H867 0.950 . S
C890 C889 1.397 . S
C890 C891 1.334 . S
C891 H868 0.950 . S
C891 C890 1.334 . S
C891 C892 1.287 . S
C892 C891 1.287 . S
C892 C893 1.524 . S
C892 H911 0.913 . S
C893 H869 0.950 . S
C893 C892 1.524 . S
C893 C894 1.415 . S
C894 H870 0.950 . S
C894 C889 1.363 . S
C894 C893 1.415 . S
C895 H871 0.951 . S
C895 C896 1.366 . S
C895 C897 1.388 . S
C896 C895 1.366 . S
C896 C900 1.385 . S
C897 H872 0.951 . S
C897 C895 1.388 . S
C897 C898 1.366 . S
C898 C897 1.366 . S
C898 C899 1.414 . S
C898 C901 1.499 . S
C899 H873 0.951 1_545 S
C899 C898 1.414 . S
C899 C900 1.374 . S
C900 H874 0.950 1_545 S
C900 C896 1.385 . S
C900 C899 1.374 . S
C901 C898 1.499 . S
C901 C902 1.373 1_545 S
C901 C903 1.389 . S
C902 H875 0.950 . S
C902 C888 1.377 . S
C902 C901 1.373 1_565 S
C903 C887 1.377 . S
C903 C901 1.389 . S
C903 C904 1.524 . S
C904 C903 1.524 . S
C904 C905 1.397 . S
C904 C909 1.363 . S
C905 H876 0.950 . S
C905 C904 1.397 . S
C905 C906 1.334 . S
C906 H877 0.950 . S
C906 C905 1.334 . S
C906 C907 1.287 . S
C907 C906 1.287 . S
C907 C908 1.524 . S
C907 H910 0.999 . S
C908 H878 0.950 . S
C908 C907 1.524 . S
C908 C909 1.415 . S
C909 H879 0.950 . S
C909 C904 1.363 . S
C909 C908 1.415 . S
H910 C907 0.999 . S
H911 C892 0.913 . S
C131 C18 1.465 . S
C146 C4 1.465 . S
C181 C32 1.465 . S
C196 C46 1.465 . S
C231 C60 1.465 . S
C246 C74 1.465 . S
C281 C88 1.465 . S
C296 C102 1.465 . S
C331 C110 1.450 . S
C346 C12 1.450 . S
C381 C96 1.450 . S
C396 C26 1.450 . S
C431 C40 1.450 . S
C446 C82 1.450 . S
C481 C68 1.450 . S
C496 C54 1.450 . S
C531 C75 1.197 . S
C546 C33 1.196 . S
C581 C61 1.197 . S
C596 C47 1.195 . S
C631 C103 1.197 . S
C646 C5 1.195 . S
C681 C19 1.197 . S
C696 C89 1.195 . S
C731 C11 1.290 . S
C746 C39 1.290 . S
C781 C53 1.290 . S
C796 C25 1.290 . S
C831 C95 1.291 . S
C846 C67 1.290 . S
C881 C81 1.290 . S
C896 C109 1.290 . S
