# Generated by pormake.
# Topology rac, (4)-cn, num edge types: 1
# Building blocks:
#     Node 0, Type 0, BuildingBlock: GALJAG_clean_sbu_0, # of connection points: 4
#     Node 1, Type 0, BuildingBlock: GALJAG_clean_sbu_0, # of connection points: 4
#     Node 2, Type 0, BuildingBlock: GALJAG_clean_sbu_0, # of connection points: 4
#     Node 3, Type 0, BuildingBlock: GALJAG_clean_sbu_0, # of connection points: 4
#     Node 4, Type 0, BuildingBlock: GALJAG_clean_sbu_0, # of connection points: 4
#     Node 5, Type 0, BuildingBlock: GALJAG_clean_sbu_0, # of connection points: 4
#     Node 6, Type 0, BuildingBlock: GALJAG_clean_sbu_0, # of connection points: 4
#     Node 7, Type 0, BuildingBlock: GALJAG_clean_sbu_0, # of connection points: 4
#     Edge 8, Type (0, 0), BuildingBlock: FUNLAD_clean_linker_1, # of connection points: 2
#     Edge 9, Type (0, 0), BuildingBlock: FUNLAD_clean_linker_1, # of connection points: 2
#     Edge 10, Type (0, 0), BuildingBlock: FUNLAD_clean_linker_1, # of connection points: 2
#     Edge 11, Type (0, 0), BuildingBlock: FUNLAD_clean_linker_1, # of connection points: 2
#     Edge 12, Type (0, 0), BuildingBlock: FUNLAD_clean_linker_1, # of connection points: 2
#     Edge 13, Type (0, 0), BuildingBlock: FUNLAD_clean_linker_1, # of connection points: 2
#     Edge 14, Type (0, 0), BuildingBlock: FUNLAD_clean_linker_1, # of connection points: 2
#     Edge 15, Type (0, 0), BuildingBlock: FUNLAD_clean_linker_1, # of connection points: 2
#     Edge 16, Type (0, 0), BuildingBlock: FUNLAD_clean_linker_1, # of connection points: 2
#     Edge 17, Type (0, 0), BuildingBlock: FUNLAD_clean_linker_1, # of connection points: 2
#     Edge 18, Type (0, 0), BuildingBlock: FUNLAD_clean_linker_1, # of connection points: 2
#     Edge 19, Type (0, 0), BuildingBlock: FUNLAD_clean_linker_1, # of connection points: 2
#     Edge 20, Type (0, 0), BuildingBlock: FUNLAD_clean_linker_1, # of connection points: 2
#     Edge 21, Type (0, 0), BuildingBlock: FUNLAD_clean_linker_1, # of connection points: 2
#     Edge 22, Type (0, 0), BuildingBlock: FUNLAD_clean_linker_1, # of connection points: 2
#     Edge 23, Type (0, 0), BuildingBlock: FUNLAD_clean_linker_1, # of connection points: 2
# Relax obj value: 0.254
# Max RMSD: 0.115
# Mean RMSD: 0.115
data_MOF--net-rac--node1-GALJAG_clean_sbu_0--edge1-FUNLAD_clean_linker_1
_symmetry_space_group_name_H-M    P1
_symmetry_Int_Tables_number       1
_symmetry_cell_setting            triclinic
loop_
_symmetry_equiv_pos_as_xyz
'x, y, z'
_cell_length_a     37.36554
_cell_length_b     24.045538
_cell_length_c     40.988482
_cell_angle_alpha  89.957022
_cell_angle_beta   90.011925
_cell_angle_gamma 90.364397
loop_
_atom_site_label
_atom_site_type_symbol
_atom_site_fract_x
_atom_site_fract_y
_atom_site_fract_z
_atom_type_partial_charge
In0 In 0.37866 0.25754 0.06397 0.0
O1 O 0.36862 0.26919 0.11811 0.0
O2 O 0.41425 0.2221 0.10456 0.0
C3 C 0.32856 0.32916 0.04547 0.0
C4 C 0.34735 0.15936 0.04687 0.0
C5 C 0.43256 0.31978 0.03829 0.0
O6 O 0.33366 0.31664 0.07504 0.0
O7 O 0.3484 0.30492 0.02504 0.0
O8 O 0.42299 0.27398 0.02565 0.0
O9 O 0.41641 0.33194 0.06427 0.0
C10 C 0.39556 0.24207 0.12732 0.0
O11 O 0.33041 0.2014 0.05625 0.0
O12 O 0.38094 0.16617 0.04555 0.0
In13 In 0.13278 0.73072 0.06167 0.0
O14 O 0.12629 0.82214 0.04451 0.0
O15 O 0.1785 0.79081 0.05328 0.0
C16 C 0.07239 0.67071 0.05045 0.0
C17 C 0.13385 0.7424 0.12667 0.0
C18 C 0.17447 0.65866 0.03024 0.0
O19 O 0.08356 0.70653 0.03011 0.0
O20 O 0.08985 0.66879 0.07664 0.0
O21 O 0.17447 0.66346 0.06094 0.0
O22 O 0.15382 0.691 0.01516 0.0
C23 C 0.1597 0.83177 0.04516 0.0
O24 O 0.15714 0.71497 0.11134 0.0
O25 O 0.10989 0.76463 0.10922 0.0
In26 In 0.36936 0.22982 0.44441 0.0
O27 O 0.37503 0.32213 0.45973 0.0
O28 O 0.32444 0.29211 0.44336 0.0
C29 C 0.42662 0.17031 0.46388 0.0
C30 C 0.37502 0.22725 0.37891 0.0
C31 C 0.32425 0.17213 0.48218 0.0
O32 O 0.42397 0.22168 0.47039 0.0
O33 O 0.40153 0.15068 0.44677 0.0
O34 O 0.32371 0.1696 0.45137 0.0
O35 O 0.3472 0.20498 0.49418 0.0
C36 C 0.34248 0.33274 0.45383 0.0
O37 O 0.35004 0.20334 0.39421 0.0
O38 O 0.39748 0.25281 0.39655 0.0
In39 In 0.13536 0.77093 0.44177 0.0
O40 O 0.13383 0.68157 0.46286 0.0
O41 O 0.18148 0.71061 0.44001 0.0
C42 C 0.0801 0.83039 0.46552 0.0
C43 C 0.11812 0.76113 0.37825 0.0
C44 C 0.18463 0.83824 0.46794 0.0
O45 O 0.08705 0.78213 0.47615 0.0
O46 O 0.09984 0.84676 0.44246 0.0
O47 O 0.18213 0.83051 0.43756 0.0
O48 O 0.16281 0.811 0.48533 0.0
C49 C 0.16571 0.67126 0.45443 0.0
O50 O 0.14407 0.79041 0.38817 0.0
O51 O 0.10063 0.73648 0.40036 0.0
In52 In 0.62733 0.74672 0.94517 0.0
O53 O 0.63745 0.73055 0.89145 0.0
O54 O 0.5922 0.7798 0.90378 0.0
C55 C 0.67739 0.68413 0.97289 0.0
C56 C 0.65815 0.84663 0.95769 0.0
C57 C 0.57376 0.68091 0.9677 0.0
O58 O 0.67301 0.68656 0.94231 0.0
O59 O 0.65678 0.71413 0.98965 0.0
O60 O 0.57768 0.73055 0.97766 0.0
O61 O 0.59555 0.66639 0.94588 0.0
C62 C 0.61081 0.75785 0.88157 0.0
O63 O 0.62638 0.83586 0.96674 0.0
O64 O 0.67327 0.80785 0.94246 0.0
In65 In 0.87551 0.27322 0.9337 0.0
O66 O 0.87796 0.18575 0.95776 0.0
O67 O 0.82815 0.21557 0.94018 0.0
C68 C 0.93191 0.33816 0.95106 0.0
C69 C 0.88941 0.25003 0.87094 0.0
C70 C 0.82756 0.3483 0.95239 0.0
O71 O 0.91893 0.30236 0.97055 0.0
O72 O 0.91819 0.33799 0.92304 0.0
O73 O 0.83016 0.3324 0.92315 0.0
O74 O 0.84868 0.32564 0.97234 0.0
C75 C 0.84484 0.17642 0.95354 0.0
O76 O 0.86436 0.28173 0.87973 0.0
O77 O 0.90756 0.22924 0.89392 0.0
In78 In 0.64327 0.78271 0.56515 0.0
O79 O 0.63837 0.68967 0.55094 0.0
O80 O 0.69006 0.72417 0.55872 0.0
C81 C 0.58455 0.83639 0.5431 0.0
C82 C 0.63624 0.78009 0.63069 0.0
C83 C 0.68882 0.85077 0.53431 0.0
O84 O 0.59254 0.78817 0.53323 0.0
O85 O 0.60499 0.85569 0.56485 0.0
O86 O 0.68935 0.84384 0.56483 0.0
O87 O 0.66568 0.82252 0.519 0.0
C88 C 0.6718 0.68177 0.55165 0.0
O89 O 0.66097 0.80619 0.61637 0.0
O90 O 0.61464 0.75487 0.61208 0.0
In91 In 0.87156 0.23763 0.55344 0.0
O92 O 0.84905 0.21254 0.60276 0.0
O93 O 0.898 0.25862 0.60227 0.0
C94 C 0.8272 0.17983 0.51498 0.0
C95 C 0.84704 0.34206 0.54429 0.0
C96 C 0.9292 0.1776 0.53564 0.0
O97 O 0.82612 0.17734 0.54578 0.0
O98 O 0.85038 0.21265 0.5033 0.0
O99 O 0.92506 0.22726 0.52601 0.0
O100 O 0.90544 0.16012 0.55497 0.0
C101 C 0.87402 0.23464 0.619 0.0
O102 O 0.87998 0.33087 0.54144 0.0
O103 O 0.82735 0.30111 0.55133 0.0
H104 H 0.34469 0.06789 0.0395 0.0
C105 C 0.32896 0.10568 0.04041 0.0
H106 H 0.27766 0.14139 0.03917 0.0
H107 H 0.2433 0.88283 0.98722 0.0
H108 H 0.28446 0.90139 0.9427 0.0
H109 H 0.31917 0.98891 0.94062 0.0
H110 H 0.31335 0.05805 0.98322 0.0
C111 C 0.29294 0.10313 0.03792 0.0
C112 C 0.27197 0.04986 0.03824 0.0
C113 C 0.27506 0.01039 0.01268 0.0
C114 C 0.25438 0.96033 0.0135 0.0
C115 C 0.25839 0.92138 0.98788 0.0
C116 C 0.28178 0.93163 0.96209 0.0
C117 C 0.30136 0.98088 0.96094 0.0
C118 C 0.29798 0.02007 0.98574 0.0
H119 H 0.15868 0.92236 0.03406 0.0
C120 C 0.17597 0.88723 0.0391 0.0
H121 H 0.22892 0.85937 0.0462 0.0
H122 H 0.25889 0.11661 0.09114 0.0
H123 H 0.21727 0.09841 0.13508 0.0
H124 H 0.18153 0.0119 0.13636 0.0
H125 H 0.18706 0.94332 0.09362 0.0
C126 C 0.21169 0.89489 0.04191 0.0
C127 C 0.22991 0.95025 0.03936 0.0
C128 C 0.2263 0.99018 0.06461 0.0
C129 C 0.2472 0.03999 0.06398 0.0
C130 C 0.24344 0.07849 0.08994 0.0
C131 C 0.21976 0.06844 0.11552 0.0
C132 C 0.19964 0.01976 0.11624 0.0
C133 C 0.20295 0.9808 0.09133 0.0
H134 H 0.16785 0.58294 0.47036 0.0
C135 C 0.18327 0.61701 0.4599 0.0
H136 H 0.23259 0.64295 0.43967 0.0
H137 H 0.29005 0.41689 0.51418 0.0
H138 H 0.27664 0.46496 0.56471 0.0
H139 H 0.24506 0.55475 0.56422 0.0
H140 H 0.22623 0.5967 0.51322 0.0
C141 C 0.2176 0.60917 0.45096 0.0
C142 C 0.23543 0.55388 0.45198 0.0
C143 C 0.24687 0.53045 0.48197 0.0
C144 C 0.26596 0.47927 0.48221 0.0
C145 C 0.27613 0.45609 0.51255 0.0
C146 C 0.26853 0.4832 0.54174 0.0
C147 C 0.2507 0.53373 0.54146 0.0
C148 C 0.23996 0.5573 0.51201 0.0
H149 H 0.34338 0.42319 0.46516 0.0
C150 C 0.32641 0.38842 0.45803 0.0
H151 H 0.27463 0.36171 0.44424 0.0
H152 H 0.2172 0.58698 0.39027 0.0
H153 H 0.23178 0.53999 0.33972 0.0
H154 H 0.26608 0.45267 0.34007 0.0
H155 H 0.28597 0.41176 0.39097 0.0
C156 C 0.29128 0.39635 0.45221 0.0
C157 C 0.27415 0.45218 0.45242 0.0
C158 C 0.26295 0.47591 0.42245 0.0
C159 C 0.24358 0.52666 0.42223 0.0
C160 C 0.23243 0.54894 0.39189 0.0
C161 C 0.24051 0.52231 0.36266 0.0
C162 C 0.25976 0.47311 0.36286 0.0
C163 C 0.27091 0.44999 0.39229 0.0
H164 H 0.66146 0.93509 0.9735 0.0
C165 C 0.67653 0.90056 0.96355 0.0
H166 H 0.72599 0.87277 0.94503 0.0
H167 H 0.78846 0.09766 0.89485 0.0
H168 H 0.76908 0.05571 0.84402 0.0
H169 H 0.73164 0.97085 0.84396 0.0
H170 H 0.71338 0.92738 0.89471 0.0
C171 C 0.71136 0.90728 0.95561 0.0
C172 C 0.73049 0.96197 0.95645 0.0
C173 C 0.74074 0.98729 0.92656 0.0
C174 C 0.76191 0.03669 0.9266 0.0
C175 C 0.77196 0.06059 0.8963 0.0
C176 C 0.76113 0.03684 0.86691 0.0
C177 C 0.74012 0.98902 0.86687 0.0
C178 C 0.72995 0.96437 0.89623 0.0
H179 H 0.84291 0.0878 0.9693 0.0
C180 C 0.82691 0.12276 0.96121 0.0
H181 H 0.77589 0.15099 0.94686 0.0
H182 H 0.71748 0.92282 0.01801 0.0
H183 H 0.73614 0.96569 0.06888 0.0
H184 H 0.77113 0.05305 0.06893 0.0
H185 H 0.78813 0.09778 0.01805 0.0
C186 C 0.79148 0.11618 0.95587 0.0
C187 C 0.77282 0.06113 0.95652 0.0
C188 C 0.76262 0.03592 0.98642 0.0
C189 C 0.74167 0.98606 0.9864 0.0
C190 C 0.73273 0.96112 0.01661 0.0
C191 C 0.74334 0.98525 0.04599 0.0
C192 C 0.76308 0.03442 0.04601 0.0
C193 C 0.77268 0.05966 0.01665 0.0
H194 H 0.67148 0.59049 0.54344 0.0
C195 C 0.68855 0.62694 0.54616 0.0
H196 H 0.74132 0.65816 0.5494 0.0
H197 H 0.81655 0.44321 0.60018 0.0
H198 H 0.81905 0.50242 0.64788 0.0
H199 H 0.78679 0.59154 0.6492 0.0
H200 H 0.75169 0.62184 0.60287 0.0
C201 C 0.72447 0.62164 0.54587 0.0
C202 C 0.74286 0.56671 0.54488 0.0
C203 C 0.76375 0.54982 0.57206 0.0
C204 C 0.78252 0.49847 0.57127 0.0
C205 C 0.80222 0.48208 0.59917 0.0
C206 C 0.80379 0.51561 0.62683 0.0
C207 C 0.78563 0.56578 0.62757 0.0
C208 C 0.76571 0.58279 0.60067 0.0
H209 H 0.85064 0.43373 0.53796 0.0
C210 C 0.83236 0.39884 0.54115 0.0
H211 H 0.77851 0.37261 0.54592 0.0
H212 H 0.70859 0.58884 0.48722 0.0
H213 H 0.70585 0.52913 0.43966 0.0
H214 H 0.73697 0.43897 0.43897 0.0
H215 H 0.77142 0.40827 0.48579 0.0
C216 C 0.79685 0.40764 0.5436 0.0
C217 C 0.7806 0.4641 0.54322 0.0
C218 C 0.75998 0.48112 0.51597 0.0
C219 C 0.74143 0.53271 0.51661 0.0
C220 C 0.72231 0.54946 0.48848 0.0
C221 C 0.72071 0.51571 0.4609 0.0
C222 C 0.73826 0.46496 0.4605 0.0
C223 C 0.75781 0.44775 0.48758 0.0
H224 H 0.42999 0.21536 0.16833 0.0
C225 C 0.40486 0.23519 0.16205 0.0
H226 H 0.35829 0.27448 0.17932 0.0
H227 H 0.41321 0.14253 0.31277 0.0
H228 H 0.40676 0.05677 0.28209 0.0
H229 H 0.39195 0.05867 0.22344 0.0
H230 H 0.3844 0.14607 0.195 0.0
C231 C 0.38295 0.25334 0.18573 0.0
C232 C 0.39247 0.25078 0.22098 0.0
C233 C 0.39535 0.199 0.23741 0.0
C234 C 0.40187 0.19779 0.27162 0.0
C235 C 0.4066 0.14572 0.28714 0.0
C236 C 0.40324 0.09621 0.26978 0.0
C237 C 0.39505 0.09729 0.23674 0.0
C238 C 0.39104 0.14791 0.22063 0.0
H239 H 0.35443 0.20669 0.33014 0.0
C240 C 0.37676 0.22576 0.34305 0.0
H241 H 0.4264 0.26747 0.33857 0.0
H242 H 0.39171 0.35689 0.19663 0.0
H243 H 0.39678 0.44234 0.22769 0.0
H244 H 0.40459 0.44006 0.28743 0.0
H245 H 0.40772 0.35238 0.31643 0.0
C246 C 0.40429 0.24715 0.32601 0.0
C247 C 0.40335 0.24814 0.28964 0.0
C248 C 0.40161 0.29981 0.27309 0.0
C249 C 0.39638 0.30112 0.23872 0.0
C250 C 0.39497 0.35339 0.22278 0.0
C251 C 0.39797 0.40281 0.24029 0.0
C252 C 0.40242 0.40153 0.27392 0.0
C253 C 0.4042 0.35081 0.29026 0.0
H254 H 0.08512 0.73227 0.33674 0.0
C255 C 0.10898 0.75573 0.34343 0.0
H256 H 0.15321 0.80272 0.32678 0.0
H257 H 0.10404 0.66046 0.19439 0.0
H258 H 0.11632 0.57691 0.22551 0.0
H259 H 0.13297 0.58256 0.28366 0.0
H260 H 0.13636 0.67141 0.3112 0.0
C261 C 0.12984 0.77809 0.32009 0.0
C262 C 0.12097 0.77371 0.28477 0.0
C263 C 0.12095 0.72137 0.26875 0.0
C264 C 0.11372 0.71836 0.23472 0.0
C265 C 0.11134 0.66536 0.21977 0.0
C266 C 0.11802 0.61702 0.23741 0.0
C267 C 0.12721 0.62018 0.27017 0.0
C268 C 0.12877 0.67158 0.28577 0.0
H269 H 0.15838 0.73099 0.17492 0.0
C270 C 0.13473 0.74639 0.16246 0.0
H271 H 0.0835 0.78177 0.1679 0.0
H272 H 0.11634 0.88002 0.30828 0.0
H273 H 0.10591 0.96361 0.27663 0.0
H274 H 0.09727 0.95879 0.21703 0.0
H275 H 0.09861 0.87031 0.18876 0.0
C276 C 0.10714 0.76568 0.18002 0.0
C277 C 0.10914 0.76787 0.21633 0.0
C278 C 0.10838 0.81997 0.23243 0.0
C279 C 0.11407 0.82285 0.2667 0.0
C280 C 0.11282 0.87545 0.28221 0.0
C281 C 0.10674 0.92379 0.26436 0.0
C282 C 0.10183 0.92107 0.23081 0.0
C283 C 0.10265 0.86993 0.21489 0.0
H284 H 0.57743 0.78469 0.83992 0.0
C285 C 0.60208 0.76387 0.84666 0.0
H286 H 0.64841 0.72294 0.83016 0.0
H287 H 0.6007 0.65143 0.69101 0.0
H288 H 0.60193 0.56264 0.71896 0.0
H289 H 0.6086 0.55794 0.77877 0.0
H290 H 0.61444 0.64207 0.81096 0.0
C291 C 0.6242 0.74495 0.82337 0.0
C292 C 0.61571 0.749 0.78793 0.0
C293 C 0.61137 0.69948 0.7695 0.0
C294 C 0.6068 0.70221 0.73508 0.0
C295 C 0.60376 0.65194 0.71724 0.0
C296 C 0.60444 0.6006 0.73298 0.0
C297 C 0.60825 0.59795 0.76664 0.0
C298 C 0.61169 0.64661 0.78481 0.0
H299 H 0.65593 0.79752 0.68015 0.0
C300 C 0.63387 0.77911 0.66653 0.0
H301 H 0.5841 0.73742 0.66948 0.0
H302 H 0.62547 0.85247 0.8152 0.0
H303 H 0.6196 0.94112 0.7878 0.0
H304 H 0.60528 0.94568 0.72911 0.0
H305 H 0.59778 0.86131 0.69733 0.0
C306 C 0.606 0.75693 0.68275 0.0
C307 C 0.60612 0.75452 0.71914 0.0
C308 C 0.60799 0.80415 0.73783 0.0
C309 C 0.614 0.80146 0.77209 0.0
C310 C 0.61901 0.85178 0.78952 0.0
C311 C 0.61598 0.90311 0.77402 0.0
C312 C 0.60809 0.90569 0.74095 0.0
C313 C 0.60413 0.85694 0.72295 0.0
H314 H 0.85039 0.21681 0.66701 0.0
C315 C 0.87414 0.23299 0.65487 0.0
H316 H 0.92566 0.26794 0.66093 0.0
H317 H 0.89197 0.36274 0.80153 0.0
H318 H 0.90314 0.44689 0.77047 0.0
H319 H 0.91251 0.4431 0.71095 0.0
H320 H 0.91115 0.35513 0.68219 0.0
C321 C 0.90205 0.2507 0.67277 0.0
C322 C 0.89978 0.25205 0.70906 0.0
C323 C 0.90062 0.30391 0.72546 0.0
C324 C 0.89446 0.3062 0.75966 0.0
C325 C 0.89578 0.35859 0.77548 0.0
C326 C 0.90229 0.40726 0.75796 0.0
C327 C 0.90762 0.40512 0.72447 0.0
C328 C 0.90679 0.35423 0.70827 0.0
H329 H 0.92166 0.21647 0.8303 0.0
C330 C 0.89784 0.24003 0.83633 0.0
H331 H 0.85398 0.28575 0.81858 0.0
H332 H 0.90388 0.14517 0.68642 0.0
H333 H 0.8912 0.06095 0.71707 0.0
H334 H 0.87473 0.06548 0.77529 0.0
H335 H 0.87174 0.15392 0.80335 0.0
C336 C 0.8772 0.26082 0.81246 0.0
C337 C 0.88701 0.25674 0.77736 0.0
C338 C 0.88716 0.20464 0.76112 0.0
C339 C 0.89463 0.20222 0.72711 0.0
C340 C 0.89667 0.14953 0.71184 0.0
C341 C 0.88972 0.10084 0.7292 0.0
C342 C 0.8806 0.10338 0.76201 0.0
C343 C 0.87923 0.15452 0.77789 0.0
H344 H 0.47023 0.34716 0.99944 0.0
C345 C 0.4579 0.35902 0.02238 0.0
H346 H 0.45143 0.42231 0.05762 0.0
H347 H 0.59072 0.55844 0.01935 0.0
H348 H 0.61477 0.50475 0.06437 0.0
H349 H 0.5801 0.42745 0.0886 0.0
H350 H 0.52117 0.4031 0.06786 0.0
C351 C 0.46355 0.41044 0.03458 0.0
C352 C 0.48578 0.45362 0.01773 0.0
C353 C 0.52003 0.46776 0.03026 0.0
C354 C 0.54004 0.51245 0.01627 0.0
C355 C 0.57436 0.52502 0.02906 0.0
C356 C 0.58847 0.49459 0.05493 0.0
C357 C 0.56895 0.45106 0.06858 0.0
C358 C 0.53512 0.43762 0.0565 0.0
H359 H 0.52968 0.65513 0.00101 0.0
C360 C 0.54778 0.64093 0.98207 0.0
H361 H 0.5668 0.57218 0.95515 0.0
H362 H 0.42066 0.43885 0.98818 0.0
H363 H 0.3973 0.49132 0.94242 0.0
H364 H 0.43215 0.56831 0.91811 0.0
H365 H 0.49078 0.59324 0.93935 0.0
C366 C 0.54811 0.58674 0.97352 0.0
C367 C 0.52567 0.54346 0.98995 0.0
C368 C 0.49151 0.52922 0.97731 0.0
C369 C 0.47149 0.48442 0.99124 0.0
C370 C 0.43724 0.47183 0.97832 0.0
C371 C 0.42347 0.5017 0.95207 0.0
C372 C 0.44308 0.5451 0.93839 0.0
C373 C 0.4767 0.55893 0.95078 0.0
H374 H 0.03535 0.60333 0.06404 0.0
C375 C 0.04476 0.62806 0.04351 0.0
H376 H 0.04759 0.63365 0.99235 0.0
H377 H 0.02898 0.37498 0.97112 0.0
H378 H 0.08967 0.39154 0.95247 0.0
H379 H 0.11803 0.4838 0.95861 0.0
H380 H 0.08621 0.55972 0.9839 0.0
C381 C 0.03614 0.61179 0.01312 0.0
C382 C 0.01749 0.55723 0.00737 0.0
C383 C 0.03627 0.51325 0.99197 0.0
C384 C 0.01961 0.46018 0.98776 0.0
C385 C 0.03974 0.41658 0.97374 0.0
C386 C 0.07475 0.42536 0.9632 0.0
C387 C 0.09075 0.47727 0.96672 0.0
C388 C 0.07204 0.52064 0.98119 0.0
H389 H 0.96858 0.40747 0.94041 0.0
C390 C 0.95793 0.38209 0.96016 0.0
H391 H 0.95238 0.37458 0.01108 0.0
H392 H 0.97283 0.63289 0.03568 0.0
H393 H 0.91271 0.61568 0.05561 0.0
H394 H 0.88449 0.52328 0.0498 0.0
H395 H 0.91574 0.44796 0.02326 0.0
C396 C 0.96472 0.39742 0.99111 0.0
C397 C 0.98381 0.4512 0.99826 0.0
C398 C 0.96529 0.49486 0.01426 0.0
C399 C 0.98193 0.54798 0.0184 0.0
C400 C 0.96206 0.5913 0.03301 0.0
C401 C 0.9274 0.58212 0.04434 0.0
C402 C 0.91149 0.53012 0.04101 0.0
C403 C 0.92986 0.48711 0.0258 0.0
H404 H 0.53923 0.85143 0.50927 0.0
C405 C 0.55571 0.86996 0.52826 0.0
H406 H 0.56808 0.94284 0.55491 0.0
H407 H 0.50585 0.08426 0.43381 0.0
H408 H 0.56257 0.06145 0.40837 0.0
H409 H 0.60286 0.99252 0.43325 0.0
H410 H 0.58691 0.94624 0.48391 0.0
C411 C 0.5515 0.92393 0.53613 0.0
C412 C 0.52552 0.96082 0.51914 0.0
C413 C 0.53538 0.9879 0.48968 0.0
C414 C 0.51211 0.02775 0.47529 0.0
C415 C 0.52256 0.05385 0.4458 0.0
C416 C 0.55501 0.0411 0.43093 0.0
C417 C 0.57769 1.00226 0.44494 0.0
C418 C 0.56822 0.97603 0.47404 0.0
H419 H 0.47691 0.15337 0.49098 0.0
C420 C 0.45522 0.13445 0.47717 0.0
H421 H 0.43077 0.05956 0.4615 0.0
H422 H 0.4981 0.91544 0.57496 0.0
H423 H 0.44057 0.9362 0.59956 0.0
H424 H 0.39998 1.00445 0.57436 0.0
H425 H 0.4167 0.05272 0.52457 0.0
C426 C 0.45326 0.07867 0.47415 0.0
C427 C 0.47896 0.0403 0.49029 0.0
C428 C 0.46878 0.01232 0.51936 0.0
C429 C 0.49217 0.97287 0.53389 0.0
C430 C 0.48139 0.94591 0.56302 0.0
C431 C 0.44843 0.95735 0.57734 0.0
C432 C 0.42557 0.99578 0.56315 0.0
C433 C 0.43548 0.02311 0.53453 0.0
H434 H 0.97547 0.15623 0.50418 0.0
C435 C 0.95731 0.14047 0.52276 0.0
H436 H 0.94046 0.07056 0.55024 0.0
H437 H 0.99911 0.92366 0.42908 0.0
H438 H 0.94489 0.95472 0.40219 0.0
H439 H 0.90704 0.02688 0.42708 0.0
H440 H 0.92325 0.06879 0.47882 0.0
C441 C 0.9585 0.0865 0.53162 0.0
C442 C 0.98253 0.04551 0.5156 0.0
C443 C 0.9726 0.02129 0.48534 0.0
C444 C 0.99428 0.97928 0.47111 0.0
C445 C 0.98372 0.95589 0.44088 0.0
C446 C 0.95261 0.97319 0.42524 0.0
C447 C 0.93131 0.01384 0.43924 0.0
C448 C 0.94098 0.03765 0.46896 0.0
H449 H 0.03769 0.85182 0.50124 0.0
C450 C 0.05321 0.86722 0.48068 0.0
H451 H 0.06488 0.93576 0.45007 0.0
H452 H 0.00869 0.08243 0.57395 0.0
H453 H 0.06267 0.05094 0.60113 0.0
H454 H 0.10046 0.97856 0.57638 0.0
H455 H 0.08454 0.93705 0.52448 0.0
C456 C 0.04971 0.92045 0.47088 0.0
C457 C 0.02557 0.96085 0.48733 0.0
C458 C 0.03535 0.98479 0.51773 0.0
C459 C 0.01371 0.02695 0.53191 0.0
C460 C 0.02412 0.0502 0.5622 0.0
C461 C 0.05505 0.03259 0.57802 0.0
C462 C 0.0763 0.99178 0.56411 0.0
C463 C 0.06678 0.96816 0.53429 0.0
H464 H 0.19444 0.61397 0.98684 0.0
C465 C 0.19586 0.61677 0.01327 0.0
H466 H 0.21713 0.58318 0.0567 0.0
H467 H 0.23905 0.34678 0.9936 0.0
H468 H 0.17452 0.33688 0.00069 0.0
H469 H 0.13743 0.41824 0.01419 0.0
H470 H 0.16429 0.51016 0.01978 0.0
C471 C 0.21569 0.58086 0.03025 0.0
C472 C 0.23565 0.53575 0.01429 0.0
C473 C 0.21911 0.48313 0.0101 0.0
C474 C 0.24044 0.43617 0.00301 0.0
C475 C 0.22377 0.38354 0.99952 0.0
C476 C 0.1869 0.37743 0.00339 0.0
C477 C 0.166 0.42331 0.01089 0.0
C478 C 0.18175 0.47573 0.01417 0.0
H479 H 0.28521 0.38742 0.05535 0.0
C480 C 0.30232 0.37107 0.03618 0.0
H481 H 0.31909 0.37961 0.98703 0.0
H482 H 0.27395 0.63297 0.01484 0.0
H483 H 0.33817 0.64275 0.00659 0.0
H484 H 0.37545 0.56074 0.99531 0.0
H485 H 0.34867 0.46829 0.99159 0.0
C486 C 0.30093 0.393 0.00613 0.0
C487 C 0.27806 0.44212 0.00088 0.0
C488 C 0.29398 0.49565 0.00124 0.0
C489 C 0.27263 0.54276 0.00807 0.0
C490 C 0.28917 0.59577 0.00987 0.0
C491 C 0.32591 0.60192 0.00513 0.0
C492 C 0.3469 0.55569 0.9987 0.0
C493 C 0.33127 0.50299 0.99676 0.0
H494 H 0.30597 0.13545 0.5289 0.0
C495 C 0.30222 0.13523 0.50261 0.0
H496 H 0.27656 0.09768 0.46236 0.0
H497 H 0.26773 0.86522 0.5319 0.0
H498 H 0.33305 0.86523 0.53049 0.0
H499 H 0.36669 0.95142 0.51824 0.0
H500 H 0.33559 0.03802 0.50789 0.0
C501 C 0.28054 0.09774 0.48864 0.0
C502 C 0.26269 0.0527 0.5071 0.0
C503 C 0.2817 1.00329 0.51408 0.0
C504 C 0.26245 0.95348 0.52053 0.0
C505 C 0.28151 0.9039 0.52648 0.0
C506 C 0.3188 0.90348 0.52584 0.0
C507 C 0.33774 0.95207 0.51901 0.0
C508 C 0.31955 1.0015 0.51306 0.0
H509 H 0.22838 0.89871 0.46455 0.0
C510 C 0.20917 0.88002 0.4813 0.0
H511 H 0.18475 0.88555 0.52779 0.0
H512 H 0.2196 0.14344 0.50256 0.0
H513 H 0.1545 0.1437 0.50653 0.0
H514 H 0.12103 0.05674 0.51689 0.0
H515 H 0.15238 0.9689 0.52379 0.0
C516 C 0.20538 0.90108 0.51142 0.0
C517 C 0.22464 0.95337 0.51929 0.0
C518 C 0.20594 1.00422 0.51719 0.0
C519 C 0.22512 0.05415 0.51091 0.0
C520 C 0.20599 0.1043 0.50711 0.0
C521 C 0.16878 0.10498 0.50943 0.0
C522 C 0.14992 0.05596 0.51533 0.0
C523 C 0.16815 0.00594 0.51912 0.0
H524 H 0.7036 0.64251 0.01453 0.0
C525 C 0.70267 0.64564 0.98808 0.0
H526 H 0.7215 0.61447 0.94317 0.0
H527 H 0.85733 0.49148 0.98926 0.0
H528 H 0.88536 0.58034 0.97616 0.0
H529 H 0.8487 0.66412 0.96755 0.0
H530 H 0.78374 0.65931 0.9714 0.0
C531 C 0.722 0.61124 0.96961 0.0
C532 C 0.74364 0.56621 0.98382 0.0
C533 C 0.78139 0.5705 0.98288 0.0
C534 C 0.80247 0.52262 0.98841 0.0
C535 C 0.84014 0.52698 0.98559 0.0
C536 C 0.85651 0.57766 0.97813 0.0
C537 C 0.83586 0.62481 0.97323 0.0
C538 C 0.79868 0.62149 0.97543 0.0
H539 H 0.78435 0.40746 0.94342 0.0
C540 C 0.80316 0.39277 0.96171 0.0
H541 H 0.82601 0.40757 0.00827 0.0
H542 H 0.67156 0.54541 0.99119 0.0
H543 H 0.64425 0.45766 0.00688 0.0
H544 H 0.6814 0.37557 0.01867 0.0
H545 H 0.74635 0.38075 0.0141 0.0
C546 C 0.80596 0.41928 0.99036 0.0
C547 C 0.78553 0.47104 0.99499 0.0
C548 C 0.74806 0.46818 0.99954 0.0
C549 C 0.72687 0.51579 0.99354 0.0
C550 C 0.68915 0.51088 0.99606 0.0
C551 C 0.67309 0.46069 0.00505 0.0
C552 C 0.694 0.41441 0.01159 0.0
C553 C 0.73111 0.41782 0.00879 0.0
H554 H 0.73258 0.91135 0.53377 0.0
C555 C 0.71193 0.89224 0.51868 0.0
H556 H 0.68355 0.8966 0.47403 0.0
H557 H 0.72208 0.15411 0.49725 0.0
H558 H 0.65683 0.15548 0.49807 0.0
H559 H 0.62195 0.0692 0.48981 0.0
H560 H 0.65206 0.981 0.48006 0.0
C561 C 0.70558 0.91243 0.48871 0.0
C562 C 0.72426 0.96438 0.47905 0.0
C563 C 0.70618 0.01545 0.48279 0.0
C564 C 0.72619 0.06492 0.48802 0.0
C565 C 0.70782 0.1153 0.49348 0.0
C566 C 0.67053 0.1166 0.4939 0.0
C567 C 0.65088 0.06797 0.48916 0.0
C568 C 0.66838 0.01776 0.48372 0.0
H569 H 0.80862 0.14454 0.46797 0.0
C570 C 0.8051 0.14352 0.49428 0.0
H571 H 0.77932 0.10562 0.53432 0.0
H572 H 0.76541 0.87595 0.46265 0.0
H573 H 0.83067 0.87482 0.45945 0.0
H574 H 0.86591 0.9601 0.47003 0.0
H575 H 0.83645 0.0469 0.48332 0.0
C576 C 0.78319 0.1061 0.50804 0.0
C577 C 0.76394 0.06274 0.48938 0.0
C578 C 0.78194 0.01329 0.48054 0.0
C579 C 0.76183 0.96397 0.47502 0.0
C580 C 0.77993 0.91424 0.46737 0.0
C581 C 0.81715 0.91318 0.4654 0.0
C582 C 0.83699 0.96126 0.4713 0.0
C583 C 0.81974 0.01083 0.47895 0.0
loop_
_geom_bond_atom_site_label_1
_geom_bond_atom_site_label_2
_geom_bond_distance
_geom_bond_site_symmetry_2
_ccdc_geom_bond_type
In0 O1 2.294 . S
In0 O2 2.326 . S
In0 O6 2.266 . S
In0 O7 2.326 . S
In0 O8 2.266 . S
In0 O9 2.326 . S
In0 O11 2.294 . S
In0 O12 2.326 . S
O1 In0 2.294 . S
O1 C10 1.240 . S
O2 In0 2.326 . S
O2 C10 1.252 . S
C3 O6 1.252 . S
C3 O7 1.260 . S
C4 O11 1.240 . S
C4 O12 1.252 . S
C5 O8 1.252 . S
C5 O9 1.260 . S
O6 In0 2.266 . S
O6 C3 1.252 . S
O7 In0 2.326 . S
O7 C3 1.260 . S
O8 In0 2.266 . S
O8 C5 1.252 . S
O9 In0 2.326 . S
O9 C5 1.260 . S
C10 O1 1.240 . S
C10 O2 1.252 . S
O11 In0 2.294 . S
O11 C4 1.240 . S
O12 In0 2.326 . S
O12 C4 1.252 . S
In13 O14 2.294 . S
In13 O15 2.326 . S
In13 O19 2.266 . S
In13 O20 2.326 . S
In13 O21 2.266 . S
In13 O22 2.326 . S
In13 O24 2.294 . S
In13 O25 2.326 . S
O14 In13 2.294 . S
O14 C23 1.240 . S
O15 In13 2.326 . S
O15 C23 1.252 . S
C16 O19 1.252 . S
C16 O20 1.260 . S
C17 O24 1.240 . S
C17 O25 1.252 . S
C18 O21 1.252 . S
C18 O22 1.260 . S
O19 In13 2.266 . S
O19 C16 1.252 . S
O20 In13 2.326 . S
O20 C16 1.260 . S
O21 In13 2.266 . S
O21 C18 1.252 . S
O22 In13 2.326 . S
O22 C18 1.260 . S
C23 O14 1.240 . S
C23 O15 1.252 . S
O24 In13 2.294 . S
O24 C17 1.240 . S
O25 In13 2.326 . S
O25 C17 1.252 . S
In26 O27 2.294 . S
In26 O28 2.326 . S
In26 O32 2.266 . S
In26 O33 2.326 . S
In26 O34 2.266 . S
In26 O35 2.326 . S
In26 O37 2.294 . S
In26 O38 2.326 . S
O27 In26 2.294 . S
O27 C36 1.240 . S
O28 In26 2.326 . S
O28 C36 1.252 . S
C29 O32 1.252 . S
C29 O33 1.260 . S
C30 O37 1.240 . S
C30 O38 1.252 . S
C31 O34 1.252 . S
C31 O35 1.260 . S
O32 In26 2.266 . S
O32 C29 1.252 . S
O33 In26 2.326 . S
O33 C29 1.260 . S
O34 In26 2.266 . S
O34 C31 1.252 . S
O35 In26 2.326 . S
O35 C31 1.260 . S
C36 O27 1.240 . S
C36 O28 1.252 . S
O37 In26 2.294 . S
O37 C30 1.240 . S
O38 In26 2.326 . S
O38 C30 1.252 . S
In39 O40 2.294 . S
In39 O41 2.326 . S
In39 O45 2.266 . S
In39 O46 2.326 . S
In39 O47 2.266 . S
In39 O48 2.326 . S
In39 O50 2.294 . S
In39 O51 2.326 . S
O40 In39 2.294 . S
O40 C49 1.240 . S
O41 In39 2.326 . S
O41 C49 1.252 . S
C42 O45 1.252 . S
C42 O46 1.260 . S
C43 O50 1.240 . S
C43 O51 1.252 . S
C44 O47 1.252 . S
C44 O48 1.260 . S
O45 In39 2.266 . S
O45 C42 1.252 . S
O46 In39 2.326 . S
O46 C42 1.260 . S
O47 In39 2.266 . S
O47 C44 1.252 . S
O48 In39 2.326 . S
O48 C44 1.260 . S
C49 O40 1.240 . S
C49 O41 1.252 . S
O50 In39 2.294 . S
O50 C43 1.240 . S
O51 In39 2.326 . S
O51 C43 1.252 . S
In52 O53 2.294 . S
In52 O54 2.326 . S
In52 O58 2.266 . S
In52 O59 2.326 . S
In52 O60 2.266 . S
In52 O61 2.326 . S
In52 O63 2.294 . S
In52 O64 2.326 . S
O53 In52 2.294 . S
O53 C62 1.240 . S
O54 In52 2.326 . S
O54 C62 1.252 . S
C55 O58 1.252 . S
C55 O59 1.260 . S
C56 O63 1.240 . S
C56 O64 1.252 . S
C57 O60 1.252 . S
C57 O61 1.260 . S
O58 In52 2.266 . S
O58 C55 1.252 . S
O59 In52 2.326 . S
O59 C55 1.260 . S
O60 In52 2.266 . S
O60 C57 1.252 . S
O61 In52 2.326 . S
O61 C57 1.260 . S
C62 O53 1.240 . S
C62 O54 1.252 . S
O63 In52 2.294 . S
O63 C56 1.240 . S
O64 In52 2.326 . S
O64 C56 1.252 . S
In65 O66 2.294 . S
In65 O67 2.326 . S
In65 O71 2.266 . S
In65 O72 2.326 . S
In65 O73 2.266 . S
In65 O74 2.326 . S
In65 O76 2.294 . S
In65 O77 2.326 . S
O66 In65 2.294 . S
O66 C75 1.240 . S
O67 In65 2.326 . S
O67 C75 1.252 . S
C68 O71 1.252 . S
C68 O72 1.260 . S
C69 O76 1.240 . S
C69 O77 1.252 . S
C70 O73 1.252 . S
C70 O74 1.260 . S
O71 In65 2.266 . S
O71 C68 1.252 . S
O72 In65 2.326 . S
O72 C68 1.260 . S
O73 In65 2.266 . S
O73 C70 1.252 . S
O74 In65 2.326 . S
O74 C70 1.260 . S
C75 O66 1.240 . S
C75 O67 1.252 . S
O76 In65 2.294 . S
O76 C69 1.240 . S
O77 In65 2.326 . S
O77 C69 1.252 . S
In78 O79 2.294 . S
In78 O80 2.326 . S
In78 O84 2.266 . S
In78 O85 2.326 . S
In78 O86 2.266 . S
In78 O87 2.326 . S
In78 O89 2.294 . S
In78 O90 2.326 . S
O79 In78 2.294 . S
O79 C88 1.240 . S
O80 In78 2.326 . S
O80 C88 1.252 . S
C81 O84 1.252 . S
C81 O85 1.260 . S
C82 O89 1.240 . S
C82 O90 1.252 . S
C83 O86 1.252 . S
C83 O87 1.260 . S
O84 In78 2.266 . S
O84 C81 1.252 . S
O85 In78 2.326 . S
O85 C81 1.260 . S
O86 In78 2.266 . S
O86 C83 1.252 . S
O87 In78 2.326 . S
O87 C83 1.260 . S
C88 O79 1.240 . S
C88 O80 1.252 . S
O89 In78 2.294 . S
O89 C82 1.240 . S
O90 In78 2.326 . S
O90 C82 1.252 . S
In91 O92 2.294 . S
In91 O93 2.326 . S
In91 O97 2.266 . S
In91 O98 2.326 . S
In91 O99 2.266 . S
In91 O100 2.326 . S
In91 O102 2.294 . S
In91 O103 2.326 . S
O92 In91 2.294 . S
O92 C101 1.240 . S
O93 In91 2.326 . S
O93 C101 1.252 . S
C94 O97 1.252 . S
C94 O98 1.260 . S
C95 O102 1.240 . S
C95 O103 1.252 . S
C96 O99 1.252 . S
C96 O100 1.260 . S
O97 In91 2.266 . S
O97 C94 1.252 . S
O98 In91 2.326 . S
O98 C94 1.260 . S
O99 In91 2.266 . S
O99 C96 1.252 . S
O100 In91 2.326 . S
O100 C96 1.260 . S
C101 O92 1.240 . S
C101 O93 1.252 . S
O102 In91 2.294 . S
O102 C95 1.240 . S
O103 In91 2.326 . S
O103 C95 1.252 . S
H104 C105 0.951 . S
C105 H104 0.951 . S
C105 C111 1.265 . S
H106 C111 0.950 . S
H107 C115 0.949 . S
H108 C116 0.950 . S
H109 C117 0.951 . S
H110 C118 0.951 1_545 S
C111 C105 1.265 . S
C111 H106 0.950 . S
C111 C112 1.478 . S
C112 C111 1.478 . S
C112 C113 1.397 1_545 S
C112 C129 1.394 . S
C113 C112 1.397 1_565 S
C113 C114 1.438 . S
C113 C118 1.429 . S
C114 C113 1.438 . S
C114 C115 1.428 . S
C114 C127 1.394 . S
C115 H107 0.949 . S
C115 C114 1.428 . S
C115 C116 1.345 . S
C116 H108 0.950 . S
C116 C115 1.345 . S
C116 C117 1.424 . S
C117 H109 0.951 . S
C117 C116 1.424 . S
C117 C118 1.347 . S
C118 H110 0.951 1_565 S
C118 C113 1.429 . S
C118 C117 1.347 . S
H119 C120 0.951 . S
C120 H119 0.951 . S
C120 C126 1.265 . S
H121 C126 0.950 . S
H122 C130 0.947 1_556 S
H123 C131 0.950 . S
H124 C132 0.951 . S
H125 C133 0.951 1_565 S
C126 C120 1.265 . S
C126 H121 0.950 . S
C126 C127 1.478 . S
C127 C114 1.394 . S
C127 C126 1.478 . S
C127 C128 1.397 1_565 S
C128 C127 1.397 1_545 S
C128 C129 1.438 . S
C128 C133 1.429 . S
C129 C112 1.394 . S
C129 C128 1.438 . S
C129 C130 1.438 . S
C130 H122 0.947 1_554 S
C130 C129 1.438 . S
C130 C131 1.336 1_554 S
C131 H123 0.950 . S
C131 C130 1.336 1_556 S
C131 C132 1.424 . S
C132 H124 0.951 . S
C132 C131 1.424 . S
C132 C133 1.347 1_556 S
C133 H125 0.951 1_545 S
C133 C128 1.429 . S
C133 C132 1.347 1_554 S
H134 C135 0.951 . S
C135 H134 0.951 . S
C135 C141 1.265 . S
H136 C141 0.950 . S
H137 C145 0.949 . S
H138 C146 0.950 . S
H139 C147 0.951 . S
H140 C148 0.951 . S
C141 C135 1.265 . S
C141 H136 0.950 . S
C141 C142 1.478 . S
C142 C141 1.478 . S
C142 C143 1.397 . S
C142 C159 1.394 . S
C143 C142 1.397 . S
C143 C144 1.438 . S
C143 C148 1.429 . S
C144 C143 1.438 . S
C144 C145 1.428 . S
C144 C157 1.394 . S
C145 H137 0.949 . S
C145 C144 1.428 . S
C145 C146 1.345 . S
C146 H138 0.950 . S
C146 C145 1.345 . S
C146 C147 1.424 . S
C147 H139 0.951 . S
C147 C146 1.424 . S
C147 C148 1.347 . S
C148 H140 0.951 . S
C148 C143 1.429 . S
C148 C147 1.347 . S
H149 C150 0.951 . S
C150 H149 0.951 . S
C150 C156 1.265 . S
H151 C156 0.950 . S
H152 C160 0.949 . S
H153 C161 0.950 . S
H154 C162 0.951 . S
H155 C163 0.951 . S
C156 C150 1.265 . S
C156 H151 0.950 . S
C156 C157 1.478 . S
C157 C144 1.394 . S
C157 C156 1.478 . S
C157 C158 1.397 . S
C158 C157 1.397 . S
C158 C159 1.438 . S
C158 C163 1.429 . S
C159 C142 1.394 . S
C159 C158 1.438 . S
C159 C160 1.428 . S
C160 H152 0.949 . S
C160 C159 1.428 . S
C160 C161 1.345 . S
C161 H153 0.950 . S
C161 C160 1.345 . S
C161 C162 1.424 . S
C162 H154 0.951 . S
C162 C161 1.424 . S
C162 C163 1.347 . S
C163 H155 0.951 . S
C163 C158 1.429 . S
C163 C162 1.347 . S
H164 C165 0.951 . S
C165 H164 0.951 . S
C165 C171 1.265 . S
H166 C171 0.950 . S
H167 C175 0.949 . S
H168 C176 0.950 . S
H169 C177 0.951 . S
H170 C178 0.951 . S
C171 C165 1.265 . S
C171 H166 0.950 . S
C171 C172 1.478 . S
C172 C171 1.478 . S
C172 C173 1.397 . S
C172 C189 1.394 . S
C173 C172 1.397 . S
C173 C174 1.438 1_565 S
C173 C178 1.429 . S
C174 C173 1.438 1_545 S
C174 C175 1.428 . S
C174 C187 1.394 . S
C175 H167 0.949 . S
C175 C174 1.428 . S
C175 C176 1.345 . S
C176 H168 0.950 . S
C176 C175 1.345 . S
C176 C177 1.424 1_545 S
C177 H169 0.951 . S
C177 C176 1.424 1_565 S
C177 C178 1.347 . S
C178 H170 0.951 . S
C178 C173 1.429 . S
C178 C177 1.347 . S
H179 C180 0.951 . S
C180 H179 0.951 . S
C180 C186 1.265 . S
H181 C186 0.950 . S
H182 C190 0.949 . S
H183 C191 0.950 . S
H184 C192 0.951 . S
H185 C193 0.951 . S
C186 C180 1.265 . S
C186 H181 0.950 . S
C186 C187 1.478 . S
C187 C174 1.394 . S
C187 C186 1.478 . S
C187 C188 1.397 . S
C188 C187 1.397 . S
C188 C189 1.438 1_545 S
C188 C193 1.429 1_556 S
C189 C172 1.394 . S
C189 C188 1.438 1_565 S
C189 C190 1.428 1_556 S
C190 H182 0.949 . S
C190 C189 1.428 1_554 S
C190 C191 1.345 . S
C191 H183 0.950 . S
C191 C190 1.345 . S
C191 C192 1.424 1_565 S
C192 H184 0.951 . S
C192 C191 1.424 1_545 S
C192 C193 1.347 . S
C193 H185 0.951 . S
C193 C188 1.429 1_554 S
C193 C192 1.347 . S
H194 C195 0.951 . S
C195 H194 0.951 . S
C195 C201 1.265 . S
H196 C201 0.950 . S
H197 C205 0.949 . S
H198 C206 0.950 . S
H199 C207 0.951 . S
H200 C208 0.951 . S
C201 C195 1.265 . S
C201 H196 0.950 . S
C201 C202 1.478 . S
C202 C201 1.478 . S
C202 C203 1.397 . S
C202 C219 1.394 . S
C203 C202 1.397 . S
C203 C204 1.438 . S
C203 C208 1.429 . S
C204 C203 1.438 . S
C204 C205 1.428 . S
C204 C217 1.394 . S
C205 H197 0.949 . S
C205 C204 1.428 . S
C205 C206 1.345 . S
C206 H198 0.950 . S
C206 C205 1.345 . S
C206 C207 1.424 . S
C207 H199 0.951 . S
C207 C206 1.424 . S
C207 C208 1.347 . S
C208 H200 0.951 . S
C208 C203 1.429 . S
C208 C207 1.347 . S
H209 C210 0.951 . S
C210 H209 0.951 . S
C210 C216 1.265 . S
H211 C216 0.950 . S
H212 C220 0.949 . S
H213 C221 0.950 . S
H214 C222 0.951 . S
H215 C223 0.951 . S
C216 C210 1.265 . S
C216 H211 0.950 . S
C216 C217 1.478 . S
C217 C204 1.394 . S
C217 C216 1.478 . S
C217 C218 1.397 . S
C218 C217 1.397 . S
C218 C219 1.438 . S
C218 C223 1.429 . S
C219 C202 1.394 . S
C219 C218 1.438 . S
C219 C220 1.428 . S
C220 H212 0.949 . S
C220 C219 1.428 . S
C220 C221 1.345 . S
C221 H213 0.950 . S
C221 C220 1.345 . S
C221 C222 1.424 . S
C222 H214 0.951 . S
C222 C221 1.424 . S
C222 C223 1.347 . S
C223 H215 0.951 . S
C223 C218 1.429 . S
C223 C222 1.347 . S
H224 C225 0.951 . S
C225 H224 0.951 . S
C225 C231 1.265 . S
H226 C231 0.950 . S
H227 C235 0.949 . S
H228 C236 0.950 . S
H229 C237 0.951 . S
H230 C238 0.951 . S
C231 C225 1.265 . S
C231 H226 0.950 . S
C231 C232 1.478 . S
C232 C231 1.478 . S
C232 C233 1.397 . S
C232 C249 1.394 . S
C233 C232 1.397 . S
C233 C234 1.438 . S
C233 C238 1.429 . S
C234 C233 1.438 . S
C234 C235 1.428 . S
C234 C247 1.394 . S
C235 H227 0.949 . S
C235 C234 1.428 . S
C235 C236 1.345 . S
C236 H228 0.950 . S
C236 C235 1.345 . S
C236 C237 1.424 . S
C237 H229 0.951 . S
C237 C236 1.424 . S
C237 C238 1.347 . S
C238 H230 0.951 . S
C238 C233 1.429 . S
C238 C237 1.347 . S
H239 C240 0.951 . S
C240 H239 0.951 . S
C240 C246 1.265 . S
H241 C246 0.950 . S
H242 C250 0.949 . S
H243 C251 0.950 . S
H244 C252 0.951 . S
H245 C253 0.951 . S
C246 C240 1.265 . S
C246 H241 0.950 . S
C246 C247 1.478 . S
C247 C234 1.394 . S
C247 C246 1.478 . S
C247 C248 1.397 . S
C248 C247 1.397 . S
C248 C249 1.438 . S
C248 C253 1.429 . S
C249 C232 1.394 . S
C249 C248 1.438 . S
C249 C250 1.428 . S
C250 H242 0.949 . S
C250 C249 1.428 . S
C250 C251 1.345 . S
C251 H243 0.950 . S
C251 C250 1.345 . S
C251 C252 1.424 . S
C252 H244 0.951 . S
C252 C251 1.424 . S
C252 C253 1.347 . S
C253 H245 0.951 . S
C253 C248 1.429 . S
C253 C252 1.347 . S
H254 C255 0.951 . S
C255 H254 0.951 . S
C255 C261 1.265 . S
H256 C261 0.950 . S
H257 C265 0.949 . S
H258 C266 0.950 . S
H259 C267 0.951 . S
H260 C268 0.951 . S
C261 C255 1.265 . S
C261 H256 0.950 . S
C261 C262 1.478 . S
C262 C261 1.478 . S
C262 C263 1.397 . S
C262 C279 1.394 . S
C263 C262 1.397 . S
C263 C264 1.438 . S
C263 C268 1.429 . S
C264 C263 1.438 . S
C264 C265 1.428 . S
C264 C277 1.394 . S
C265 H257 0.949 . S
C265 C264 1.428 . S
C265 C266 1.345 . S
C266 H258 0.950 . S
C266 C265 1.345 . S
C266 C267 1.424 . S
C267 H259 0.951 . S
C267 C266 1.424 . S
C267 C268 1.347 . S
C268 H260 0.951 . S
C268 C263 1.429 . S
C268 C267 1.347 . S
H269 C270 0.951 . S
C270 H269 0.951 . S
C270 C276 1.265 . S
H271 C276 0.950 . S
H272 C280 0.949 . S
H273 C281 0.950 . S
H274 C282 0.951 . S
H275 C283 0.951 . S
C276 C270 1.265 . S
C276 H271 0.950 . S
C276 C277 1.478 . S
C277 C264 1.394 . S
C277 C276 1.478 . S
C277 C278 1.397 . S
C278 C277 1.397 . S
C278 C279 1.438 . S
C278 C283 1.429 . S
C279 C262 1.394 . S
C279 C278 1.438 . S
C279 C280 1.428 . S
C280 H272 0.949 . S
C280 C279 1.428 . S
C280 C281 1.345 . S
C281 H273 0.950 . S
C281 C280 1.345 . S
C281 C282 1.424 . S
C282 H274 0.951 . S
C282 C281 1.424 . S
C282 C283 1.347 . S
C283 H275 0.951 . S
C283 C278 1.429 . S
C283 C282 1.347 . S
H284 C285 0.951 . S
C285 H284 0.951 . S
C285 C291 1.265 . S
H286 C291 0.950 . S
H287 C295 0.949 . S
H288 C296 0.950 . S
H289 C297 0.951 . S
H290 C298 0.951 . S
C291 C285 1.265 . S
C291 H286 0.950 . S
C291 C292 1.478 . S
C292 C291 1.478 . S
C292 C293 1.397 . S
C292 C309 1.394 . S
C293 C292 1.397 . S
C293 C294 1.438 . S
C293 C298 1.429 . S
C294 C293 1.438 . S
C294 C295 1.428 . S
C294 C307 1.394 . S
C295 H287 0.949 . S
C295 C294 1.428 . S
C295 C296 1.345 . S
C296 H288 0.950 . S
C296 C295 1.345 . S
C296 C297 1.424 . S
C297 H289 0.951 . S
C297 C296 1.424 . S
C297 C298 1.347 . S
C298 H290 0.951 . S
C298 C293 1.429 . S
C298 C297 1.347 . S
H299 C300 0.951 . S
C300 H299 0.951 . S
C300 C306 1.265 . S
H301 C306 0.950 . S
H302 C310 0.949 . S
H303 C311 0.950 . S
H304 C312 0.951 . S
H305 C313 0.951 . S
C306 C300 1.265 . S
C306 H301 0.950 . S
C306 C307 1.478 . S
C307 C294 1.394 . S
C307 C306 1.478 . S
C307 C308 1.397 . S
C308 C307 1.397 . S
C308 C309 1.438 . S
C308 C313 1.429 . S
C309 C292 1.394 . S
C309 C308 1.438 . S
C309 C310 1.428 . S
C310 H302 0.949 . S
C310 C309 1.428 . S
C310 C311 1.345 . S
C311 H303 0.950 . S
C311 C310 1.345 . S
C311 C312 1.424 . S
C312 H304 0.951 . S
C312 C311 1.424 . S
C312 C313 1.347 . S
C313 H305 0.951 . S
C313 C308 1.429 . S
C313 C312 1.347 . S
H314 C315 0.951 . S
C315 H314 0.951 . S
C315 C321 1.265 . S
H316 C321 0.950 . S
H317 C325 0.949 . S
H318 C326 0.950 . S
H319 C327 0.951 . S
H320 C328 0.951 . S
C321 C315 1.265 . S
C321 H316 0.950 . S
C321 C322 1.478 . S
C322 C321 1.478 . S
C322 C323 1.397 . S
C322 C339 1.394 . S
C323 C322 1.397 . S
C323 C324 1.438 . S
C323 C328 1.429 . S
C324 C323 1.438 . S
C324 C325 1.428 . S
C324 C337 1.394 . S
C325 H317 0.949 . S
C325 C324 1.428 . S
C325 C326 1.345 . S
C326 H318 0.950 . S
C326 C325 1.345 . S
C326 C327 1.424 . S
C327 H319 0.951 . S
C327 C326 1.424 . S
C327 C328 1.347 . S
C328 H320 0.951 . S
C328 C323 1.429 . S
C328 C327 1.347 . S
H329 C330 0.951 . S
C330 H329 0.951 . S
C330 C336 1.265 . S
H331 C336 0.950 . S
H332 C340 0.949 . S
H333 C341 0.950 . S
H334 C342 0.951 . S
H335 C343 0.951 . S
C336 C330 1.265 . S
C336 H331 0.950 . S
C336 C337 1.478 . S
C337 C324 1.394 . S
C337 C336 1.478 . S
C337 C338 1.397 . S
C338 C337 1.397 . S
C338 C339 1.438 . S
C338 C343 1.429 . S
C339 C322 1.394 . S
C339 C338 1.438 . S
C339 C340 1.428 . S
C340 H332 0.949 . S
C340 C339 1.428 . S
C340 C341 1.345 . S
C341 H333 0.950 . S
C341 C340 1.345 . S
C341 C342 1.424 . S
C342 H334 0.951 . S
C342 C341 1.424 . S
C342 C343 1.347 . S
C343 H335 0.951 . S
C343 C338 1.429 . S
C343 C342 1.347 . S
H344 C345 0.951 1_556 S
C345 H344 0.951 1_554 S
C345 C351 1.265 . S
H346 C351 0.950 . S
H347 C355 0.949 . S
H348 C356 0.948 1_556 S
H349 C357 0.951 . S
H350 C358 0.951 . S
C351 C345 1.265 . S
C351 H346 0.950 . S
C351 C352 1.478 . S
C352 C351 1.478 . S
C352 C353 1.397 . S
C352 C369 1.394 . S
C353 C352 1.397 . S
C353 C354 1.438 1_554 S
C353 C358 1.429 . S
C354 C353 1.438 1_556 S
C354 C355 1.428 . S
C354 C367 1.394 . S
C355 H347 0.949 . S
C355 C354 1.428 . S
C355 C356 1.345 1_556 S
C356 H348 0.948 1_554 S
C356 C355 1.345 1_554 S
C356 C357 1.424 . S
C357 H349 0.951 . S
C357 C356 1.424 . S
C357 C358 1.347 . S
C358 H350 0.951 . S
C358 C353 1.429 . S
C358 C357 1.347 . S
H359 C360 0.951 1_554 S
C360 H359 0.951 1_556 S
C360 C366 1.265 . S
H361 C366 0.950 . S
H362 C370 0.949 . S
H363 C371 0.948 1_554 S
H364 C372 0.951 . S
H365 C373 0.951 . S
C366 C360 1.265 . S
C366 H361 0.950 . S
C366 C367 1.478 . S
C367 C354 1.394 . S
C367 C366 1.478 . S
C367 C368 1.397 . S
C368 C367 1.397 . S
C368 C369 1.438 1_556 S
C368 C373 1.429 . S
C369 C352 1.394 . S
C369 C368 1.438 1_554 S
C369 C370 1.428 . S
C370 H362 0.949 . S
C370 C369 1.428 . S
C370 C371 1.345 1_554 S
C371 H363 0.948 1_556 S
C371 C370 1.345 1_556 S
C371 C372 1.424 . S
C372 H364 0.951 . S
C372 C371 1.424 . S
C372 C373 1.347 . S
C373 H365 0.951 . S
C373 C368 1.429 . S
C373 C372 1.347 . S
H374 C375 0.951 . S
C375 H374 0.951 . S
C375 C381 1.265 . S
H376 C381 0.950 . S
H377 C385 0.949 . S
H378 C386 0.950 . S
H379 C387 0.951 1_455 S
H380 C388 0.951 . S
C381 C375 1.265 . S
C381 H376 0.950 . S
C381 C382 1.478 . S
C382 C381 1.478 . S
C382 C383 1.397 1_554 S
C382 C399 1.394 . S
C383 C382 1.397 1_556 S
C383 C384 1.438 1_455 S
C383 C388 1.429 . S
C384 C383 1.438 1_655 S
C384 C385 1.428 . S
C384 C397 1.394 . S
C385 H377 0.949 . S
C385 C384 1.428 . S
C385 C386 1.345 . S
C386 H378 0.950 . S
C386 C385 1.345 . S
C386 C387 1.424 . S
C387 H379 0.951 1_655 S
C387 C386 1.424 . S
C387 C388 1.347 1_655 S
C388 H380 0.951 . S
C388 C383 1.429 . S
C388 C387 1.347 1_455 S
H389 C390 0.951 . S
C390 H389 0.951 . S
C390 C396 1.265 . S
H391 C396 0.950 . S
H392 C400 0.949 . S
H393 C401 0.950 . S
H394 C402 0.951 1_655 S
H395 C403 0.951 . S
C396 C390 1.265 . S
C396 H391 0.950 . S
C396 C397 1.478 . S
C397 C384 1.394 . S
C397 C396 1.478 . S
C397 C398 1.397 1_556 S
C398 C397 1.397 1_554 S
C398 C399 1.438 1_655 S
C398 C403 1.429 . S
C399 C382 1.394 . S
C399 C398 1.438 1_455 S
C399 C400 1.428 . S
C400 H392 0.949 . S
C400 C399 1.428 . S
C400 C401 1.345 . S
C401 H393 0.950 . S
C401 C400 1.345 . S
C401 C402 1.424 . S
C402 H394 0.951 1_455 S
C402 C401 1.424 . S
C402 C403 1.347 1_455 S
C403 H395 0.951 . S
C403 C398 1.429 . S
C403 C402 1.347 1_655 S
H404 C405 0.951 . S
C405 H404 0.951 . S
C405 C411 1.265 . S
H406 C411 0.950 . S
H407 C415 0.949 . S
H408 C416 0.950 . S
H409 C417 0.951 . S
H410 C418 0.951 1_565 S
C411 C405 1.265 . S
C411 H406 0.950 . S
C411 C412 1.478 . S
C412 C411 1.478 . S
C412 C413 1.397 1_565 S
C412 C429 1.394 . S
C413 C412 1.397 1_545 S
C413 C414 1.438 . S
C413 C418 1.429 . S
C414 C413 1.438 . S
C414 C415 1.428 . S
C414 C427 1.394 . S
C415 H407 0.949 . S
C415 C414 1.428 . S
C415 C416 1.345 . S
C416 H408 0.950 . S
C416 C415 1.345 . S
C416 C417 1.424 . S
C417 H409 0.951 . S
C417 C416 1.424 . S
C417 C418 1.347 . S
C418 H410 0.951 1_545 S
C418 C413 1.429 . S
C418 C417 1.347 . S
H419 C420 0.951 . S
C420 H419 0.951 . S
C420 C426 1.265 . S
H421 C426 0.950 . S
H422 C430 0.949 . S
H423 C431 0.950 . S
H424 C432 0.951 . S
H425 C433 0.951 1_545 S
C426 C420 1.265 . S
C426 H421 0.950 . S
C426 C427 1.478 . S
C427 C414 1.394 . S
C427 C426 1.478 . S
C427 C428 1.397 1_545 S
C428 C427 1.397 1_565 S
C428 C429 1.438 . S
C428 C433 1.429 . S
C429 C412 1.394 . S
C429 C428 1.438 . S
C429 C430 1.428 . S
C430 H422 0.949 . S
C430 C429 1.428 . S
C430 C431 1.345 . S
C431 H423 0.950 . S
C431 C430 1.345 . S
C431 C432 1.424 . S
C432 H424 0.951 . S
C432 C431 1.424 . S
C432 C433 1.347 . S
C433 H425 0.951 1_565 S
C433 C428 1.429 . S
C433 C432 1.347 . S
H434 C435 0.951 . S
C435 H434 0.951 . S
C435 C441 1.265 . S
H436 C441 0.950 . S
H437 C445 0.949 . S
H438 C446 0.950 . S
H439 C447 0.951 . S
H440 C448 0.951 . S
C441 C435 1.265 . S
C441 H436 0.950 . S
C441 C442 1.478 . S
C442 C441 1.478 . S
C442 C443 1.397 . S
C442 C459 1.394 . S
C443 C442 1.397 . S
C443 C444 1.438 1_645 S
C443 C448 1.429 . S
C444 C443 1.438 1_465 S
C444 C445 1.428 . S
C444 C457 1.394 . S
C445 H437 0.949 . S
C445 C444 1.428 . S
C445 C446 1.345 . S
C446 H438 0.950 . S
C446 C445 1.345 . S
C446 C447 1.424 1_465 S
C447 H439 0.951 . S
C447 C446 1.424 1_645 S
C447 C448 1.347 . S
C448 H440 0.951 . S
C448 C443 1.429 . S
C448 C447 1.347 . S
H449 C450 0.951 . S
C450 H449 0.951 . S
C450 C456 1.265 . S
H451 C456 0.950 . S
H452 C460 0.949 . S
H453 C461 0.950 . S
H454 C462 0.951 . S
H455 C463 0.951 . S
C456 C450 1.265 . S
C456 H451 0.950 . S
C456 C457 1.478 . S
C457 C444 1.394 . S
C457 C456 1.478 . S
C457 C458 1.397 . S
C458 C457 1.397 . S
C458 C459 1.438 1_465 S
C458 C463 1.429 . S
C459 C442 1.394 . S
C459 C458 1.438 1_645 S
C459 C460 1.428 . S
C460 H452 0.949 . S
C460 C459 1.428 . S
C460 C461 1.345 . S
C461 H453 0.950 . S
C461 C460 1.345 . S
C461 C462 1.424 1_645 S
C462 H454 0.951 . S
C462 C461 1.424 1_465 S
C462 C463 1.347 . S
C463 H455 0.951 . S
C463 C458 1.429 . S
C463 C462 1.347 . S
H464 C465 0.951 . S
C465 H464 0.951 . S
C465 C471 1.265 . S
H466 C471 0.950 . S
H467 C475 0.949 . S
H468 C476 0.950 . S
H469 C477 0.951 . S
H470 C478 0.951 . S
C471 C465 1.265 . S
C471 H466 0.950 . S
C471 C472 1.478 . S
C472 C471 1.478 . S
C472 C473 1.398 . S
C472 C489 1.394 . S
C473 C472 1.398 . S
C473 C474 1.438 . S
C473 C478 1.427 1_554 S
C474 C473 1.438 . S
C474 C475 1.428 1_554 S
C474 C487 1.394 . S
C475 H467 0.949 . S
C475 C474 1.428 1_556 S
C475 C476 1.345 . S
C476 H468 0.950 . S
C476 C475 1.345 . S
C476 C477 1.424 . S
C477 H469 0.951 . S
C477 C476 1.424 . S
C477 C478 1.347 . S
C478 H470 0.951 . S
C478 C473 1.427 1_556 S
C478 C477 1.347 . S
H479 C480 0.951 . S
C480 H479 0.951 . S
C480 C486 1.265 . S
H481 C486 0.950 . S
H482 C490 0.949 . S
H483 C491 0.950 . S
H484 C492 0.951 . S
H485 C493 0.951 . S
C486 C480 1.265 . S
C486 H481 0.950 . S
C486 C487 1.478 . S
C487 C474 1.394 . S
C487 C486 1.478 . S
C487 C488 1.397 . S
C488 C487 1.397 . S
C488 C489 1.438 . S
C488 C493 1.429 . S
C489 C472 1.394 . S
C489 C488 1.438 . S
C489 C490 1.428 . S
C490 H482 0.949 . S
C490 C489 1.428 . S
C490 C491 1.345 . S
C491 H483 0.950 . S
C491 C490 1.345 . S
C491 C492 1.424 . S
C492 H484 0.951 . S
C492 C491 1.424 . S
C492 C493 1.347 . S
C493 H485 0.951 . S
C493 C488 1.429 . S
C493 C492 1.347 . S
H494 C495 0.951 . S
C495 H494 0.951 . S
C495 C501 1.265 . S
H496 C501 0.950 . S
H497 C505 0.949 . S
H498 C506 0.950 . S
H499 C507 0.951 . S
H500 C508 0.951 . S
C501 C495 1.265 . S
C501 H496 0.950 . S
C501 C502 1.478 . S
C502 C501 1.478 . S
C502 C503 1.397 . S
C502 C519 1.394 . S
C503 C502 1.397 . S
C503 C504 1.438 1_545 S
C503 C508 1.429 . S
C504 C503 1.438 1_565 S
C504 C505 1.428 . S
C504 C517 1.394 . S
C505 H497 0.949 . S
C505 C504 1.428 . S
C505 C506 1.345 . S
C506 H498 0.950 . S
C506 C505 1.345 . S
C506 C507 1.424 . S
C507 H499 0.951 . S
C507 C506 1.424 . S
C507 C508 1.347 1_565 S
C508 H500 0.951 . S
C508 C503 1.429 . S
C508 C507 1.347 1_545 S
H509 C510 0.951 . S
C510 H509 0.951 . S
C510 C516 1.265 . S
H511 C516 0.950 . S
H512 C520 0.949 . S
H513 C521 0.950 . S
H514 C522 0.951 . S
H515 C523 0.951 . S
C516 C510 1.265 . S
C516 H511 0.950 . S
C516 C517 1.478 . S
C517 C504 1.394 . S
C517 C516 1.478 . S
C517 C518 1.397 . S
C518 C517 1.397 . S
C518 C519 1.438 1_565 S
C518 C523 1.429 . S
C519 C502 1.394 . S
C519 C518 1.438 1_545 S
C519 C520 1.428 . S
C520 H512 0.949 . S
C520 C519 1.428 . S
C520 C521 1.345 . S
C521 H513 0.950 . S
C521 C520 1.345 . S
C521 C522 1.424 . S
C522 H514 0.951 . S
C522 C521 1.424 . S
C522 C523 1.347 1_545 S
C523 H515 0.951 . S
C523 C518 1.429 . S
C523 C522 1.347 1_565 S
H524 C525 0.951 . S
C525 H524 0.951 . S
C525 C531 1.265 . S
H526 C531 0.950 . S
H527 C535 0.949 . S
H528 C536 0.950 . S
H529 C537 0.951 . S
H530 C538 0.951 . S
C531 C525 1.265 . S
C531 H526 0.950 . S
C531 C532 1.478 . S
C532 C531 1.478 . S
C532 C533 1.397 . S
C532 C549 1.394 . S
C533 C532 1.397 . S
C533 C534 1.438 . S
C533 C538 1.429 1_556 S
C534 C533 1.438 . S
C534 C535 1.428 1_556 S
C534 C547 1.394 . S
C535 H527 0.949 . S
C535 C534 1.428 1_554 S
C535 C536 1.345 . S
C536 H528 0.950 . S
C536 C535 1.345 . S
C536 C537 1.424 . S
C537 H529 0.951 . S
C537 C536 1.424 . S
C537 C538 1.347 . S
C538 H530 0.951 . S
C538 C533 1.429 1_554 S
C538 C537 1.347 . S
H539 C540 0.951 . S
C540 H539 0.951 . S
C540 C546 1.265 . S
H541 C546 0.950 . S
H542 C550 0.949 . S
H543 C551 0.950 . S
H544 C552 0.951 . S
H545 C553 0.951 . S
C546 C540 1.265 . S
C546 H541 0.950 . S
C546 C547 1.478 . S
C547 C534 1.394 . S
C547 C546 1.478 . S
C547 C548 1.397 . S
C548 C547 1.397 . S
C548 C549 1.438 . S
C548 C553 1.429 . S
C549 C532 1.394 . S
C549 C548 1.438 . S
C549 C550 1.428 . S
C550 H542 0.949 . S
C550 C549 1.428 . S
C550 C551 1.345 . S
C551 H543 0.950 . S
C551 C550 1.345 . S
C551 C552 1.424 . S
C552 H544 0.951 . S
C552 C551 1.424 . S
C552 C553 1.347 . S
C553 H545 0.951 . S
C553 C548 1.429 . S
C553 C552 1.347 . S
H554 C555 0.951 . S
C555 H554 0.951 . S
C555 C561 1.265 . S
H556 C561 0.950 . S
H557 C565 0.949 . S
H558 C566 0.950 . S
H559 C567 0.951 . S
H560 C568 0.951 . S
C561 C555 1.265 . S
C561 H556 0.950 . S
C561 C562 1.478 . S
C562 C561 1.478 . S
C562 C563 1.397 . S
C562 C579 1.394 . S
C563 C562 1.397 . S
C563 C564 1.438 1_565 S
C563 C568 1.429 . S
C564 C563 1.438 1_545 S
C564 C565 1.428 . S
C564 C577 1.394 . S
C565 H557 0.949 . S
C565 C564 1.428 . S
C565 C566 1.345 . S
C566 H558 0.950 . S
C566 C565 1.345 . S
C566 C567 1.424 . S
C567 H559 0.951 . S
C567 C566 1.424 . S
C567 C568 1.347 1_545 S
C568 H560 0.951 . S
C568 C563 1.429 . S
C568 C567 1.347 1_565 S
H569 C570 0.951 . S
C570 H569 0.951 . S
C570 C576 1.265 . S
H571 C576 0.950 . S
H572 C580 0.949 . S
H573 C581 0.950 . S
H574 C582 0.951 . S
H575 C583 0.951 . S
C576 C570 1.265 . S
C576 H571 0.950 . S
C576 C577 1.478 . S
C577 C564 1.394 . S
C577 C576 1.478 . S
C577 C578 1.397 . S
C578 C577 1.397 . S
C578 C579 1.438 1_545 S
C578 C583 1.429 . S
C579 C562 1.394 . S
C579 C578 1.438 1_565 S
C579 C580 1.428 . S
C580 H572 0.949 . S
C580 C579 1.428 . S
C580 C581 1.345 . S
C581 H573 0.950 . S
C581 C580 1.345 . S
C581 C582 1.424 . S
C582 H574 0.951 . S
C582 C581 1.424 . S
C582 C583 1.347 1_565 S
C583 H575 0.951 . S
C583 C578 1.429 . S
C583 C582 1.347 1_545 S
C105 C4 1.765 . S
C120 C23 1.776 . S
C135 C49 1.801 . S
C150 C36 1.803 . S
C165 C56 1.804 . S
C180 C75 1.799 . S
C195 C88 1.801 . S
C210 C95 1.803 . S
C225 C10 1.751 . S
C240 C30 1.704 . S
C255 C43 1.748 . S
C270 C17 1.701 . S
C285 C62 1.753 . S
C300 C82 1.706 . S
C315 C101 1.696 . S
C330 C69 1.740 . S
C345 C5 1.370 . S
C360 C57 1.370 . S
C375 C16 1.317 . S
C390 C68 1.317 . S
C405 C81 1.392 . S
C420 C29 1.392 . S
C435 C96 1.390 . S
C450 C42 1.390 . S
C465 C18 0.888 . S
C480 C3 0.896 . S
C495 C31 0.885 . S
C510 C44 0.899 . S
C525 C55 0.886 . S
C540 C70 0.878 . S
C555 C83 0.892 . S
C570 C94 0.892 . S
