# Generated by pormake.
# Topology uoe, (4)-cn, num edge types: 1
# Building blocks:
#     Node 0, Type 0, BuildingBlock: CEKHIL_clean_sbu_0, # of connection points: 4
#     Node 1, Type 0, BuildingBlock: CEKHIL_clean_sbu_0, # of connection points: 4
#     Node 2, Type 0, BuildingBlock: CEKHIL_clean_sbu_0, # of connection points: 4
#     Node 3, Type 0, BuildingBlock: CEKHIL_clean_sbu_0, # of connection points: 4
#     Node 4, Type 0, BuildingBlock: CEKHIL_clean_sbu_0, # of connection points: 4
#     Node 5, Type 0, BuildingBlock: CEKHIL_clean_sbu_0, # of connection points: 4
#     Node 6, Type 0, BuildingBlock: CEKHIL_clean_sbu_0, # of connection points: 4
#     Node 7, Type 0, BuildingBlock: CEKHIL_clean_sbu_0, # of connection points: 4
#     Node 8, Type 0, BuildingBlock: CEKHIL_clean_sbu_0, # of connection points: 4
#     Node 9, Type 0, BuildingBlock: CEKHIL_clean_sbu_0, # of connection points: 4
#     Node 10, Type 0, BuildingBlock: CEKHIL_clean_sbu_0, # of connection points: 4
#     Node 11, Type 0, BuildingBlock: CEKHIL_clean_sbu_0, # of connection points: 4
#     Node 12, Type 0, BuildingBlock: CEKHIL_clean_sbu_0, # of connection points: 4
#     Node 13, Type 0, BuildingBlock: CEKHIL_clean_sbu_0, # of connection points: 4
#     Node 14, Type 0, BuildingBlock: CEKHIL_clean_sbu_0, # of connection points: 4
#     Node 15, Type 0, BuildingBlock: CEKHIL_clean_sbu_0, # of connection points: 4
#     Node 16, Type 0, BuildingBlock: CEKHIL_clean_sbu_0, # of connection points: 4
#     Node 17, Type 0, BuildingBlock: CEKHIL_clean_sbu_0, # of connection points: 4
#     Node 18, Type 0, BuildingBlock: CEKHIL_clean_sbu_0, # of connection points: 4
#     Node 19, Type 0, BuildingBlock: CEKHIL_clean_sbu_0, # of connection points: 4
#     Node 20, Type 0, BuildingBlock: CEKHIL_clean_sbu_0, # of connection points: 4
#     Node 21, Type 0, BuildingBlock: CEKHIL_clean_sbu_0, # of connection points: 4
#     Node 22, Type 0, BuildingBlock: CEKHIL_clean_sbu_0, # of connection points: 4
#     Node 23, Type 0, BuildingBlock: CEKHIL_clean_sbu_0, # of connection points: 4
#     Node 24, Type 0, BuildingBlock: CEKHIL_clean_sbu_0, # of connection points: 4
#     Node 25, Type 0, BuildingBlock: CEKHIL_clean_sbu_0, # of connection points: 4
#     Node 26, Type 0, BuildingBlock: CEKHIL_clean_sbu_0, # of connection points: 4
#     Node 27, Type 0, BuildingBlock: CEKHIL_clean_sbu_0, # of connection points: 4
#     Node 28, Type 0, BuildingBlock: CEKHIL_clean_sbu_0, # of connection points: 4
#     Node 29, Type 0, BuildingBlock: CEKHIL_clean_sbu_0, # of connection points: 4
#     Node 30, Type 0, BuildingBlock: CEKHIL_clean_sbu_0, # of connection points: 4
#     Node 31, Type 0, BuildingBlock: CEKHIL_clean_sbu_0, # of connection points: 4
#     Edge 32, Type (0, 0), BuildingBlock: KIFKEQ_clean_linker_1, # of connection points: 2
#     Edge 33, Type (0, 0), BuildingBlock: KIFKEQ_clean_linker_1, # of connection points: 2
#     Edge 34, Type (0, 0), BuildingBlock: KIFKEQ_clean_linker_1, # of connection points: 2
#     Edge 35, Type (0, 0), BuildingBlock: KIFKEQ_clean_linker_1, # of connection points: 2
#     Edge 36, Type (0, 0), BuildingBlock: KIFKEQ_clean_linker_1, # of connection points: 2
#     Edge 37, Type (0, 0), BuildingBlock: KIFKEQ_clean_linker_1, # of connection points: 2
#     Edge 38, Type (0, 0), BuildingBlock: KIFKEQ_clean_linker_1, # of connection points: 2
#     Edge 39, Type (0, 0), BuildingBlock: KIFKEQ_clean_linker_1, # of connection points: 2
#     Edge 40, Type (0, 0), BuildingBlock: KIFKEQ_clean_linker_1, # of connection points: 2
#     Edge 41, Type (0, 0), BuildingBlock: KIFKEQ_clean_linker_1, # of connection points: 2
#     Edge 42, Type (0, 0), BuildingBlock: KIFKEQ_clean_linker_1, # of connection points: 2
#     Edge 43, Type (0, 0), BuildingBlock: KIFKEQ_clean_linker_1, # of connection points: 2
#     Edge 44, Type (0, 0), BuildingBlock: KIFKEQ_clean_linker_1, # of connection points: 2
#     Edge 45, Type (0, 0), BuildingBlock: KIFKEQ_clean_linker_1, # of connection points: 2
#     Edge 46, Type (0, 0), BuildingBlock: KIFKEQ_clean_linker_1, # of connection points: 2
#     Edge 47, Type (0, 0), BuildingBlock: KIFKEQ_clean_linker_1, # of connection points: 2
#     Edge 48, Type (0, 0), BuildingBlock: KIFKEQ_clean_linker_1, # of connection points: 2
#     Edge 49, Type (0, 0), BuildingBlock: KIFKEQ_clean_linker_1, # of connection points: 2
#     Edge 50, Type (0, 0), BuildingBlock: KIFKEQ_clean_linker_1, # of connection points: 2
#     Edge 51, Type (0, 0), BuildingBlock: KIFKEQ_clean_linker_1, # of connection points: 2
#     Edge 52, Type (0, 0), BuildingBlock: KIFKEQ_clean_linker_1, # of connection points: 2
#     Edge 53, Type (0, 0), BuildingBlock: KIFKEQ_clean_linker_1, # of connection points: 2
#     Edge 54, Type (0, 0), BuildingBlock: KIFKEQ_clean_linker_1, # of connection points: 2
#     Edge 55, Type (0, 0), BuildingBlock: KIFKEQ_clean_linker_1, # of connection points: 2
#     Edge 56, Type (0, 0), BuildingBlock: KIFKEQ_clean_linker_1, # of connection points: 2
#     Edge 57, Type (0, 0), BuildingBlock: KIFKEQ_clean_linker_1, # of connection points: 2
#     Edge 58, Type (0, 0), BuildingBlock: KIFKEQ_clean_linker_1, # of connection points: 2
#     Edge 59, Type (0, 0), BuildingBlock: KIFKEQ_clean_linker_1, # of connection points: 2
#     Edge 60, Type (0, 0), BuildingBlock: KIFKEQ_clean_linker_1, # of connection points: 2
#     Edge 61, Type (0, 0), BuildingBlock: KIFKEQ_clean_linker_1, # of connection points: 2
#     Edge 62, Type (0, 0), BuildingBlock: KIFKEQ_clean_linker_1, # of connection points: 2
#     Edge 63, Type (0, 0), BuildingBlock: KIFKEQ_clean_linker_1, # of connection points: 2
#     Edge 64, Type (0, 0), BuildingBlock: KIFKEQ_clean_linker_1, # of connection points: 2
#     Edge 65, Type (0, 0), BuildingBlock: KIFKEQ_clean_linker_1, # of connection points: 2
#     Edge 66, Type (0, 0), BuildingBlock: KIFKEQ_clean_linker_1, # of connection points: 2
#     Edge 67, Type (0, 0), BuildingBlock: KIFKEQ_clean_linker_1, # of connection points: 2
#     Edge 68, Type (0, 0), BuildingBlock: KIFKEQ_clean_linker_1, # of connection points: 2
#     Edge 69, Type (0, 0), BuildingBlock: KIFKEQ_clean_linker_1, # of connection points: 2
#     Edge 70, Type (0, 0), BuildingBlock: KIFKEQ_clean_linker_1, # of connection points: 2
#     Edge 71, Type (0, 0), BuildingBlock: KIFKEQ_clean_linker_1, # of connection points: 2
#     Edge 72, Type (0, 0), BuildingBlock: KIFKEQ_clean_linker_1, # of connection points: 2
#     Edge 73, Type (0, 0), BuildingBlock: KIFKEQ_clean_linker_1, # of connection points: 2
#     Edge 74, Type (0, 0), BuildingBlock: KIFKEQ_clean_linker_1, # of connection points: 2
#     Edge 75, Type (0, 0), BuildingBlock: KIFKEQ_clean_linker_1, # of connection points: 2
#     Edge 76, Type (0, 0), BuildingBlock: KIFKEQ_clean_linker_1, # of connection points: 2
#     Edge 77, Type (0, 0), BuildingBlock: KIFKEQ_clean_linker_1, # of connection points: 2
#     Edge 78, Type (0, 0), BuildingBlock: KIFKEQ_clean_linker_1, # of connection points: 2
#     Edge 79, Type (0, 0), BuildingBlock: KIFKEQ_clean_linker_1, # of connection points: 2
#     Edge 80, Type (0, 0), BuildingBlock: KIFKEQ_clean_linker_1, # of connection points: 2
#     Edge 81, Type (0, 0), BuildingBlock: KIFKEQ_clean_linker_1, # of connection points: 2
#     Edge 82, Type (0, 0), BuildingBlock: KIFKEQ_clean_linker_1, # of connection points: 2
#     Edge 83, Type (0, 0), BuildingBlock: KIFKEQ_clean_linker_1, # of connection points: 2
#     Edge 84, Type (0, 0), BuildingBlock: KIFKEQ_clean_linker_1, # of connection points: 2
#     Edge 85, Type (0, 0), BuildingBlock: KIFKEQ_clean_linker_1, # of connection points: 2
#     Edge 86, Type (0, 0), BuildingBlock: KIFKEQ_clean_linker_1, # of connection points: 2
#     Edge 87, Type (0, 0), BuildingBlock: KIFKEQ_clean_linker_1, # of connection points: 2
#     Edge 88, Type (0, 0), BuildingBlock: KIFKEQ_clean_linker_1, # of connection points: 2
#     Edge 89, Type (0, 0), BuildingBlock: KIFKEQ_clean_linker_1, # of connection points: 2
#     Edge 90, Type (0, 0), BuildingBlock: KIFKEQ_clean_linker_1, # of connection points: 2
#     Edge 91, Type (0, 0), BuildingBlock: KIFKEQ_clean_linker_1, # of connection points: 2
#     Edge 92, Type (0, 0), BuildingBlock: KIFKEQ_clean_linker_1, # of connection points: 2
#     Edge 93, Type (0, 0), BuildingBlock: KIFKEQ_clean_linker_1, # of connection points: 2
#     Edge 94, Type (0, 0), BuildingBlock: KIFKEQ_clean_linker_1, # of connection points: 2
#     Edge 95, Type (0, 0), BuildingBlock: KIFKEQ_clean_linker_1, # of connection points: 2
# Relax obj value: 0.179
# Max RMSD: 0.206
# Mean RMSD: 0.206
data_MOF--net-uoe--node1-CEKHIL_clean_sbu_0--edge1-KIFKEQ_clean_linker_1
_symmetry_space_group_name_H-M    P1
_symmetry_Int_Tables_number       1
_symmetry_cell_setting            triclinic
loop_
_symmetry_equiv_pos_as_xyz
'x, y, z'
_cell_length_a     75.643229
_cell_length_b     75.677584
_cell_length_c     27.020998
_cell_angle_alpha  89.985199
_cell_angle_beta   90.009263
_cell_angle_gamma 89.950147
loop_
_atom_site_label
_atom_site_type_symbol
_atom_site_fract_x
_atom_site_fract_y
_atom_site_fract_z
_atom_type_partial_charge
Co0 Co 0.10839 0.47262 0.02787 0.0
O1 O 0.1291 0.45789 0.02903 0.0
O2 O 0.10361 0.45091 0.06398 0.0
C3 C 0.10942 0.48052 0.94787 0.0
O4 O 0.08413 0.48459 0.03261 0.0
Co5 Co 0.11303 0.51287 0.00638 0.0
O6 O 0.08679 0.51273 0.00608 0.0
C7 C 0.12453 0.49843 0.1014 0.0
C8 C 0.12012 0.4469 0.05597 0.0
C9 C 0.07743 0.49976 0.02106 0.0
O10 O 0.11638 0.484 0.09109 0.0
O11 O 0.12625 0.51112 0.0705 0.0
O12 O 0.10269 0.4653 0.96013 0.0
O13 O 0.11708 0.48904 0.9831 0.0
Co14 Co 0.79562 0.85311 0.28646 0.0
O15 O 0.80882 0.87481 0.28763 0.0
O16 O 0.81728 0.85011 0.32438 0.0
C17 C 0.78869 0.8534 0.20585 0.0
O18 O 0.78536 0.82801 0.29181 0.0
Co19 Co 0.75525 0.85462 0.26076 0.0
O20 O 0.75744 0.82856 0.26243 0.0
C21 C 0.76787 0.86808 0.3558 0.0
C22 C 0.82023 0.86677 0.3156 0.0
C23 C 0.77089 0.82023 0.27869 0.0
O24 O 0.783 0.86089 0.34789 0.0
O25 O 0.75529 0.86828 0.32418 0.0
O26 O 0.80418 0.84773 0.21961 0.0
O27 O 0.77905 0.86031 0.23997 0.0
Co28 Co 0.41301 0.54467 0.53249 0.0
O29 O 0.39156 0.55833 0.53425 0.0
O30 O 0.41685 0.56675 0.56773 0.0
C31 C 0.41178 0.53649 0.45266 0.0
O32 O 0.43794 0.53397 0.53665 0.0
Co33 Co 0.41049 0.50409 0.51159 0.0
O34 O 0.43662 0.50571 0.51045 0.0
C35 C 0.39906 0.51803 0.60724 0.0
C36 C 0.40011 0.56989 0.5604 0.0
C37 C 0.44535 0.51913 0.52516 0.0
O38 O 0.40586 0.53309 0.59633 0.0
O39 O 0.39827 0.50505 0.57705 0.0
O40 O 0.4178 0.55208 0.46409 0.0
O41 O 0.40497 0.52764 0.48855 0.0
Co42 Co 0.72347 0.16044 0.78082 0.0
O43 O 0.70881 0.13971 0.78359 0.0
O44 O 0.70174 0.16552 0.81648 0.0
C45 C 0.73133 0.15859 0.70089 0.0
O46 O 0.73527 0.18478 0.78377 0.0
Co47 Co 0.76376 0.15628 0.7588 0.0
O48 O 0.76267 0.18239 0.75168 0.0
C49 C 0.74969 0.14553 0.85521 0.0
C50 C 0.69774 0.14896 0.80961 0.0
C51 C 0.74986 0.19166 0.76813 0.0
O52 O 0.73497 0.15312 0.84448 0.0
O53 O 0.76242 0.14394 0.82437 0.0
O54 O 0.71608 0.16542 0.71268 0.0
O55 O 0.73994 0.1514 0.73671 0.0
Co56 Co 0.10591 0.54549 0.53278 0.0
O57 O 0.12698 0.55962 0.5332 0.0
O58 O 0.10178 0.56776 0.49854 0.0
C59 C 0.10676 0.53675 0.61214 0.0
O60 O 0.08137 0.53417 0.5269 0.0
Co61 Co 0.10973 0.50492 0.55103 0.0
O62 O 0.08351 0.50577 0.55162 0.0
C63 C 0.12195 0.52024 0.45783 0.0
C64 C 0.11838 0.5712 0.50725 0.0
C65 C 0.07439 0.51905 0.53755 0.0
O66 O 0.11374 0.53459 0.46869 0.0
O67 O 0.12348 0.50729 0.48798 0.0
O68 O 0.10034 0.55224 0.60111 0.0
O69 O 0.11417 0.52841 0.57619 0.0
Co70 Co 0.72626 0.85938 0.78777 0.0
O71 O 0.71263 0.88084 0.7854 0.0
O72 O 0.70412 0.85538 0.75309 0.0
C73 C 0.73454 0.8609 0.86734 0.0
O74 O 0.73682 0.83438 0.78442 0.0
Co75 Co 0.76688 0.86153 0.80802 0.0
O76 O 0.7647 0.8355 0.81374 0.0
C77 C 0.75277 0.87308 0.71263 0.0
C78 C 0.70098 0.87212 0.75995 0.0
C79 C 0.7513 0.82684 0.79866 0.0
O80 O 0.73775 0.86624 0.72374 0.0
O81 O 0.76585 0.87379 0.74253 0.0
O82 O 0.71891 0.85491 0.85614 0.0
O83 O 0.74344 0.86754 0.83123 0.0
Co84 Co 0.40787 0.47253 0.0387 0.0
O85 O 0.38823 0.45637 0.03442 0.0
O86 O 0.41446 0.45192 0.00029 0.0
C87 C 0.40553 0.47894 0.11942 0.0
O88 O 0.43148 0.48574 0.03684 0.0
Co89 Co 0.40222 0.5121 0.06686 0.0
O90 O 0.42835 0.51215 0.07409 0.0
C91 C 0.39294 0.49977 0.96711 0.0
C92 C 0.39833 0.44648 0.00717 0.0
C93 C 0.43798 0.50015 0.05484 0.0
O94 O 0.39968 0.48456 0.97668 0.0
O95 O 0.39175 0.51228 -0.00124 0.0
O96 O 0.41351 0.46448 0.10575 0.0
O97 O 0.39782 0.48772 0.08477 0.0
Co98 Co 0.7975 0.16339 0.28738 0.0
O99 O 0.81201 0.14253 0.2862 0.0
O100 O 0.8196 0.16812 0.25295 0.0
C101 C 0.78892 0.16181 0.36683 0.0
O102 O 0.78578 0.1878 0.28298 0.0
Co103 Co 0.75701 0.15906 0.30634 0.0
O104 O 0.75752 0.18527 0.30853 0.0
C105 C 0.77223 0.1476 0.21222 0.0
C106 C 0.82334 0.15151 0.26042 0.0
C107 C 0.77063 0.19459 0.29441 0.0
O108 O 0.78654 0.15588 0.22312 0.0
O109 O 0.75939 0.14576 0.24258 0.0
O110 O 0.80429 0.16854 0.35601 0.0
O111 O 0.78063 0.15458 0.33053 0.0
Co112 Co 0.91384 0.54724 0.03678 0.0
O113 O 0.89292 0.56167 0.03527 0.0
O114 O 0.91852 0.56928 0.00207 0.0
C115 C 0.91219 0.53884 0.11636 0.0
O116 O 0.93832 0.53567 0.0327 0.0
Co117 Co 0.90997 0.50679 0.05665 0.0
O118 O 0.93611 0.50796 0.06269 0.0
C119 C 0.89847 0.52163 0.96188 0.0
C120 C 0.90191 0.573 0.0095 0.0
C121 C 0.9453 0.52094 0.04705 0.0
O122 O 0.90642 0.53612 0.97268 0.0
O123 O 0.89691 0.50877 -0.00767 0.0
O124 O 0.91889 0.5542 0.10533 0.0
O125 O 0.90508 0.53041 0.08012 0.0
Co126 Co 0.22285 0.15954 0.78976 0.0
O127 O 0.20757 0.13917 0.78652 0.0
O128 O 0.20168 0.16511 0.75236 0.0
C129 C 0.23002 0.15749 0.87016 0.0
O130 O 0.23503 0.18371 0.78693 0.0
Co131 Co 0.26288 0.15555 0.8158 0.0
O132 O 0.26167 0.18161 0.82359 0.0
C133 C 0.25008 0.14529 0.71726 0.0
C134 C 0.19707 0.14874 0.75951 0.0
C135 C 0.24922 0.19076 0.80471 0.0
O136 O 0.23478 0.15175 0.72718 0.0
O137 O 0.2628 0.14455 0.74842 0.0
O138 O 0.21511 0.16484 0.85744 0.0
O139 O 0.23882 0.15022 0.83489 0.0
Co140 Co 0.60957 0.47512 0.54044 0.0
O141 O 0.63037 0.46043 0.53769 0.0
O142 O 0.60489 0.454 0.50184 0.0
C143 C 0.61053 0.48175 0.62132 0.0
O144 O 0.58515 0.48686 0.53677 0.0
Co145 Co 0.61278 0.51504 0.56825 0.0
O146 O 0.58669 0.51339 0.57428 0.0
C147 C 0.62377 0.50308 0.46973 0.0
C148 C 0.62135 0.44978 0.50975 0.0
C149 C 0.57782 0.50092 0.55459 0.0
O150 O 0.61756 0.48762 0.47891 0.0
O151 O 0.6241 0.51566 0.50132 0.0
O152 O 0.60387 0.46671 0.60716 0.0
O153 O 0.61805 0.49095 0.5872 0.0
Co154 Co 0.29492 0.85902 0.28887 0.0
O155 O 0.31024 0.87933 0.28776 0.0
O156 O 0.31666 0.85349 0.254 0.0
C157 C 0.28647 0.86044 0.36837 0.0
O158 O 0.28251 0.83503 0.28429 0.0
Co159 Co 0.25461 0.86435 0.3081 0.0
O160 O 0.25438 0.83812 0.31039 0.0
C161 C 0.26978 0.87504 0.21315 0.0
C162 C 0.32113 0.86988 0.26169 0.0
C163 C 0.26729 0.82854 0.29601 0.0
O164 O 0.28413 0.86694 0.22477 0.0
O165 O 0.25686 0.87701 0.2432 0.0
O166 O 0.30166 0.85338 0.35705 0.0
O167 O 0.27834 0.86823 0.33258 0.0
Co168 Co 0.9106 0.47321 0.53023 0.0
O169 O 0.88982 0.45859 0.53254 0.0
O170 O 0.91556 0.45142 0.56573 0.0
C171 C 0.90891 0.48123 0.45041 0.0
O172 O 0.93498 0.48496 0.53356 0.0
Co173 Co 0.90645 0.51353 0.50891 0.0
O174 O 0.93257 0.51243 0.50198 0.0
C175 C 0.8956 0.49925 0.60493 0.0
C176 C 0.89899 0.44747 0.55859 0.0
C177 C 0.94187 0.49959 0.51816 0.0
O178 O 0.90323 0.48459 0.59399 0.0
O179 O 0.89401 0.51205 0.5743 0.0
O180 O 0.91568 0.46595 0.46205 0.0
O181 O 0.90165 0.48978 0.48625 0.0
Co182 Co 0.2951 0.16207 0.28439 0.0
O183 O 0.31005 0.14138 0.28642 0.0
O184 O 0.31653 0.16706 0.3211 0.0
C185 C 0.28742 0.16076 0.20412 0.0
O186 O 0.28336 0.18648 0.28859 0.0
Co187 Co 0.25484 0.15864 0.26128 0.0
O188 O 0.25599 0.18475 0.25623 0.0
C189 C 0.26832 0.14738 0.35771 0.0
C190 C 0.32082 0.15064 0.31341 0.0
C191 C 0.26886 0.19371 0.27343 0.0
O192 O 0.28343 0.15421 0.34738 0.0
O193 O 0.25545 0.14665 0.32713 0.0
O194 O 0.30265 0.16746 0.21651 0.0
O195 O 0.27866 0.15343 0.23942 0.0
Co196 Co 0.60242 0.54582 0.03617 0.0
O197 O 0.62369 0.55971 0.03526 0.0
O198 O 0.59869 0.56811 0.0705 0.0
C199 C 0.60294 0.53705 0.95678 0.0
O200 O 0.57768 0.53493 0.04286 0.0
Co201 Co 0.60516 0.50514 0.01713 0.0
O202 O 0.57902 0.5066 0.0172 0.0
C203 C 0.61758 0.51989 0.11096 0.0
C204 C 0.6153 0.57136 0.06151 0.0
C205 C 0.5703 0.52001 0.03218 0.0
O206 O 0.61041 0.53478 0.09996 0.0
O207 O 0.6182 0.50673 0.08133 0.0
O208 O 0.59674 0.55262 0.96785 0.0
O209 O 0.61026 0.52858 -0.00736 0.0
Co210 Co 0.2216 0.85488 0.78311 0.0
O211 O 0.20613 0.87514 0.78502 0.0
O212 O 0.20027 0.84932 0.81979 0.0
C213 C 0.22921 0.85654 0.70285 0.0
O214 O 0.2341 0.83089 0.78722 0.0
Co215 Co 0.26168 0.85977 0.7603 0.0
O216 O 0.26144 0.83359 0.7551 0.0
C217 C 0.24753 0.8711 0.85602 0.0
C218 C 0.19558 0.86564 0.81198 0.0
C219 C 0.24885 0.82418 0.77215 0.0
O220 O 0.23302 0.863 0.84615 0.0
O221 O 0.26014 0.87273 0.82482 0.0
O222 O 0.21423 0.84929 0.71519 0.0
O223 O 0.23771 0.8641 0.73828 0.0
Co224 Co 0.60667 0.97361 0.53214 0.0
O225 O 0.62809 0.95999 0.53328 0.0
O226 O 0.60294 0.9515 0.56746 0.0
C227 C 0.60773 0.98184 0.45241 0.0
O228 O 0.58183 0.98438 0.53661 0.0
Co229 Co 0.60932 0.01412 0.51162 0.0
O230 O 0.58324 0.012 0.50549 0.0
C231 C 0.62144 0.99984 0.60641 0.0
C232 C 0.61966 0.94842 0.55964 0.0
C233 C 0.57443 0.99883 0.52164 0.0
O234 O 0.61392 0.98511 0.5958 0.0
O235 O 0.62254 0.01272 0.57587 0.0
O236 O 0.6016 0.96629 0.46394 0.0
O237 O 0.61472 0.99059 0.48824 0.0
Co238 Co 0.29749 0.35348 0.78324 0.0
O239 O 0.31285 0.37378 0.78385 0.0
O240 O 0.3191 0.34806 0.81878 0.0
C241 C 0.28924 0.35491 0.70351 0.0
O242 O 0.28513 0.32948 0.78845 0.0
Co243 Co 0.25723 0.35854 0.76305 0.0
O244 O 0.257 0.33231 0.76215 0.0
C245 C 0.27228 0.37018 0.85725 0.0
C246 C 0.32362 0.3644 0.81047 0.0
C247 C 0.26993 0.32286 0.77704 0.0
O248 O 0.28655 0.36173 0.84685 0.0
O249 O 0.25951 0.37199 0.82662 0.0
O250 O 0.30434 0.34772 0.71507 0.0
O251 O 0.28101 0.36258 0.73925 0.0
Co252 Co 0.91514 0.04844 0.03145 0.0
O253 O 0.89388 0.06235 0.03324 0.0
O254 O 0.91934 0.0706 0.06606 0.0
C255 C 0.91347 0.03999 0.95187 0.0
O256 O 0.9399 0.03743 0.03532 0.0
Co257 Co 0.91223 1.0079 0.01137 0.0
O258 O 0.93829 0.00979 0.00451 0.0
C259 C 0.90051 0.02243 0.10635 0.0
C260 C 0.90262 0.0739 0.05892 0.0
C261 C 0.9472 0.02292 0.02046 0.0
O262 O 0.9081 0.03713 0.0956 0.0
O263 O 0.89922 0.00957 0.07583 0.0
O264 O 0.91987 0.05549 0.96271 0.0
O265 O 0.90668 0.03142 0.98831 0.0
Co266 Co 0.22403 0.66346 0.28645 0.0
O267 O 0.21061 0.64191 0.28872 0.0
O268 O 0.20191 0.6672 0.32172 0.0
C269 C 0.23207 0.66201 0.20664 0.0
O270 O 0.2344 0.6885 0.28974 0.0
Co271 Co 0.26456 0.66186 0.26393 0.0
O272 O 0.26154 0.6877 0.25541 0.0
C273 C 0.25124 0.65032 0.36056 0.0
C274 C 0.19892 0.65044 0.3145 0.0
C275 C 0.24837 0.69622 0.27271 0.0
O276 O 0.23588 0.65654 0.35005 0.0
O277 O 0.2642 0.65006 0.33014 0.0
O278 O 0.21648 0.66806 0.21817 0.0
O279 O 0.24105 0.65541 0.24261 0.0
Co280 Co 0.60588 0.04691 0.03773 0.0
O281 O 0.62674 0.0614 0.03691 0.0
O282 O 0.60124 0.0689 0.00281 0.0
C283 C 0.60717 0.03852 0.11728 0.0
O284 O 0.58148 0.03527 0.03293 0.0
Co285 Co 0.60991 1.00648 0.05743 0.0
O286 O 0.58376 1.00764 0.06347 0.0
C287 C 0.62152 0.02137 0.96289 0.0
C288 C 0.6178 0.07267 0.01076 0.0
C289 C 0.57454 0.02057 0.04752 0.0
O290 O 0.61357 0.03585 0.97388 0.0
O291 O 0.62302 1.00843 -0.00689 0.0
O292 O 0.60049 0.05387 0.10597 0.0
O293 O 0.61455 0.03011 0.08138 0.0
Co294 Co 0.22398 0.35765 0.289 0.0
O295 O 0.20962 0.37862 0.28689 0.0
O296 O 0.20208 0.353 0.25371 0.0
C297 C 0.23216 0.35906 0.36874 0.0
O298 O 0.23545 0.33315 0.28547 0.0
Co299 Co 0.2644 0.36158 0.30942 0.0
O300 O 0.26366 0.33537 0.31174 0.0
C301 C 0.24992 0.37274 0.2141 0.0
C302 C 0.19837 0.36962 0.26081 0.0
C303 C 0.25046 0.3262 0.29744 0.0
O304 O 0.23535 0.36494 0.22506 0.0
O305 O 0.26271 0.37441 0.24471 0.0
O306 O 0.21675 0.35258 0.35719 0.0
O307 O 0.24072 0.36633 0.33293 0.0
Co308 Co 0.91098 0.9732 0.53954 0.0
O309 O 0.88957 0.95958 0.53758 0.0
O310 O 0.91498 0.95093 0.50517 0.0
C311 C 0.90947 0.98171 0.61898 0.0
O312 O 0.93582 0.98393 0.53613 0.0
Co313 Co 0.90826 0.01379 0.55921 0.0
O314 O 0.93426 0.01153 0.56726 0.0
C315 C 0.89718 0.99941 0.46348 0.0
C316 C 0.89822 0.94786 0.51221 0.0
C317 C 0.94315 0.99833 0.55156 0.0
O318 O 0.90423 0.98453 0.47514 0.0
O319 O 0.89595 0.0124 0.49361 0.0
O320 O 0.91562 0.9661 0.60814 0.0
O321 O 0.90264 0.99033 0.58264 0.0
Co322 Co 0.296 0.66038 0.79175 0.0
O323 O 0.31027 0.63935 0.79043 0.0
O324 O 0.31772 0.66461 0.75507 0.0
C325 C 0.28835 0.65953 0.87193 0.0
O326 O 0.28457 0.68494 0.78701 0.0
Co327 Co 0.25566 0.65696 0.81553 0.0
O328 O 0.2567 0.68313 0.81626 0.0
C329 C 0.26907 0.64551 0.71918 0.0
C330 C 0.3214 0.64804 0.76319 0.0
C331 C 0.26972 0.69208 0.79981 0.0
O332 O 0.28415 0.65249 0.72909 0.0
O333 O 0.2563 0.64468 0.75008 0.0
O334 O 0.30367 0.66599 0.85933 0.0
O335 O 0.27955 0.6521 0.83693 0.0
Co336 Co 0.41137 0.04603 0.53825 0.0
O337 O 0.39105 0.06142 0.53639 0.0
O338 O 0.41688 0.06739 0.50171 0.0
C339 C 0.40984 0.03823 0.61833 0.0
O340 O 0.43541 0.03361 0.53426 0.0
Co341 Co 0.4063 1.0059 0.56014 0.0
O342 O 0.43254 1.00565 0.56181 0.0
C343 C 0.39506 0.02034 0.46481 0.0
C344 C 0.40051 0.07199 0.5094 0.0
C345 C 0.44202 0.01849 0.54661 0.0
O346 O 0.40332 0.03471 0.47501 0.0
O347 O 0.39322 1.0077 0.49583 0.0
O348 O 0.41699 0.05328 0.60618 0.0
O349 O 0.40219 0.02982 0.58288 0.0
Co350 Co 0.7225 0.65771 0.29279 0.0
O351 O 0.70772 0.63713 0.28851 0.0
O352 O 0.701 0.6631 0.25611 0.0
C353 C 0.72979 0.65546 0.373 0.0
O354 O 0.73464 0.68194 0.29157 0.0
Co355 Co 0.76258 0.65261 0.31667 0.0
O356 O 0.76221 0.67876 0.32204 0.0
C357 C 0.74903 0.64286 0.21902 0.0
C358 C 0.69688 0.64653 0.26221 0.0
C359 C 0.74955 0.68841 0.30639 0.0
O360 O 0.73437 0.6506 0.22945 0.0
O361 O 0.76151 0.64077 0.25043 0.0
O362 O 0.71469 0.66248 0.36067 0.0
O363 O 0.73853 0.64826 0.33744 0.0
Co364 Co 0.10902 0.97227 0.03858 0.0
O365 O 0.12875 0.95617 0.0353 0.0
O366 O 0.10255 0.95128 0.00152 0.0
C367 C 0.11151 0.97933 0.11889 0.0
O368 O 0.08534 0.98543 0.03605 0.0
Co369 Co 0.11487 0.01204 0.06381 0.0
O370 O 0.08869 0.0127 0.06792 0.0
C371 C 0.12398 0.99879 0.96491 0.0
C372 C 0.11874 0.94601 0.00861 0.0
C373 C 0.07898 1.00036 0.05085 0.0
O374 O 0.11711 0.98374 0.97556 0.0
O375 O 0.12538 0.01151 -0.00417 0.0
O376 O 0.10344 0.96482 0.10622 0.0
O377 O 0.11915 0.98783 0.08364 0.0
Co378 Co 0.79603 0.35554 0.78549 0.0
O379 O 0.81042 0.37651 0.78475 0.0
O380 O 0.81785 0.35121 0.74947 0.0
C381 C 0.78804 0.35633 0.86545 0.0
O382 O 0.78459 0.33102 0.78018 0.0
Co383 Co 0.7556 0.35902 0.80739 0.0
O384 O 0.75656 0.33287 0.80809 0.0
C385 C 0.76956 0.37076 0.71207 0.0
C386 C 0.8216 0.36774 0.75781 0.0
C387 C 0.76967 0.3239 0.79227 0.0
O388 O 0.78451 0.36356 0.7224 0.0
O389 O 0.75664 0.37161 0.74247 0.0
O390 O 0.80342 0.3499 0.85331 0.0
O391 O 0.77936 0.36379 0.83021 0.0
Co392 Co 0.41136 0.97286 0.03313 0.0
O393 O 0.39077 0.95793 0.03466 0.0
O394 O 0.41654 0.95108 0.0683 0.0
C395 C 0.40982 0.98117 0.95346 0.0
O396 O 0.43558 0.98488 0.03727 0.0
Co397 Co 0.40654 0.01319 0.01336 0.0
O398 O 0.43278 0.01307 0.01137 0.0
C399 C 0.39534 0.9982 0.10797 0.0
C400 C 0.40004 0.94693 0.06087 0.0
C401 C 0.44223 1.00005 0.02563 0.0
O402 O 0.40364 0.9839 0.09709 0.0
O403 O 0.39342 0.011 0.07749 0.0
O404 O 0.41672 0.96592 0.96482 0.0
O405 O 0.40233 0.98948 -0.01063 0.0
Co406 Co 0.79668 0.66305 0.78522 0.0
O407 O 0.81116 0.64218 0.78661 0.0
O408 O 0.81895 0.66791 0.81859 0.0
C409 C 0.78774 0.6611 0.70621 0.0
O410 O 0.78504 0.68751 0.78899 0.0
Co411 Co 0.75608 0.65878 0.76784 0.0
O412 O 0.75664 0.68496 0.76457 0.0
C413 C 0.77178 0.64754 0.86161 0.0
C414 C 0.82265 0.65128 0.81147 0.0
C415 C 0.76987 0.6943 0.77778 0.0
O416 O 0.78601 0.65587 0.85017 0.0
O417 O 0.75884 0.64557 0.83164 0.0
O418 O 0.80317 0.66784 0.7162 0.0
O419 O 0.77958 0.65408 0.74307 0.0
Co420 Co 0.10653 0.04487 0.53192 0.0
O421 O 0.12711 0.05994 0.53428 0.0
O422 O 0.10147 0.06599 0.56993 0.0
C423 C 0.10767 0.03786 0.45115 0.0
O424 O 0.08224 0.03291 0.53615 0.0
Co425 Co 0.11072 1.00477 0.50683 0.0
O426 O 0.0846 1.0045 0.51216 0.0
C427 C 0.12169 0.01777 0.60393 0.0
C428 C 0.11784 0.07046 0.56202 0.0
C429 C 0.07541 0.01765 0.52656 0.0
O430 O 0.11464 0.03283 0.59423 0.0
O431 O 0.12275 1.00513 0.57267 0.0
O432 O 0.10091 0.05294 0.46461 0.0
O433 O 0.11517 0.02882 0.48567 0.0
Co434 Co 0.7247 0.35867 0.28086 0.0
O435 O 0.71016 0.37955 0.28341 0.0
O436 O 0.70325 0.35402 0.31819 0.0
C437 C 0.73191 0.3601 0.20044 0.0
O438 O 0.73626 0.33415 0.28438 0.0
Co439 Co 0.76485 0.3617 0.255 0.0
O440 O 0.76296 0.33568 0.24777 0.0
C441 C 0.75219 0.37267 0.35297 0.0
C442 C 0.69925 0.37054 0.31056 0.0
C443 C 0.75034 0.3268 0.26672 0.0
O444 O 0.73682 0.36635 0.34323 0.0
O445 O 0.76493 0.3731 0.32184 0.0
O446 O 0.71676 0.35334 0.2134 0.0
O447 O 0.7409 0.3673 0.23545 0.0
H448 H 0.96975 0.54066 -0.00422 0.0
H449 H 0.96503 0.49541 0.09236 0.0
H450 H 1.00146 0.53524 -0.01141 0.0
H451 H 0.99664 0.49038 0.08669 0.0
H452 H 0.05095 0.47499 0.02811 0.0
H453 H 0.01916 0.48028 0.03335 0.0
H454 H 0.02849 0.53662 0.0317 0.0
H455 H 0.06002 0.53132 0.02456 0.0
C456 C 0.97549 0.52969 0.01591 0.0
C457 C 0.96478 0.51846 0.04445 0.0
C458 C 0.99371 0.52659 0.01196 0.0
C459 C 1.00171 0.51229 0.03689 0.0
C460 C 0.99099 0.50127 0.06606 0.0
C461 C 0.9728 0.50426 0.06961 0.0
C462 C 0.04619 0.48848 0.02891 0.0
C463 C 0.05807 0.50269 0.02575 0.0
C464 C 0.02794 0.49156 0.03214 0.0
C465 C 0.02114 0.50892 0.03288 0.0
C466 C 0.03311 0.52308 0.0302 0.0
C467 C 0.05127 0.52002 0.02644 0.0
H468 H 0.75019 0.79907 0.22229 0.0
H469 H 0.78752 0.79736 0.34309 0.0
H470 H 0.74521 0.76756 0.23016 0.0
H471 H 0.78203 0.76564 0.35246 0.0
H472 H 0.78057 0.70604 0.32243 0.0
H473 H 0.78627 0.73749 0.31612 0.0
H474 H 0.73125 0.74655 0.2811 0.0
H475 H 0.72566 0.71486 0.28562 0.0
C476 C 0.7573 0.79193 0.25082 0.0
C477 C 0.76921 0.80075 0.28226 0.0
C478 C 0.75431 0.77383 0.25563 0.0
C479 C 0.76297 0.76398 0.29245 0.0
C480 C 0.7752 0.77273 0.32338 0.0
C481 C 0.77837 0.79092 0.31811 0.0
C482 C 0.76962 0.7147 0.31341 0.0
C483 C 0.75263 0.70781 0.3042 0.0
C484 C 0.77291 0.73283 0.31015 0.0
C485 C 0.75929 0.74467 0.29791 0.0
C486 C 0.74219 0.73783 0.28965 0.0
C487 C 0.73893 0.71964 0.29252 0.0
H488 H 0.46408 0.48837 0.52178 0.0
H489 H 0.47085 0.54471 0.53975 0.0
H490 H 0.49564 0.48406 0.52952 0.0
H491 H 0.50283 0.54041 0.54589 0.0
H492 H 0.55716 0.52436 0.6053 0.0
H493 H 0.52546 0.52902 0.59835 0.0
H494 H 0.52265 0.48799 0.48739 0.0
H495 H 0.55435 0.48292 0.49565 0.0
C496 C 0.47232 0.49992 0.52693 0.0
C497 C 0.46483 0.51694 0.52997 0.0
C498 C 0.49053 0.49742 0.53105 0.0
C499 C 0.50192 0.51186 0.53793 0.0
C500 C 0.49447 0.52892 0.54115 0.0
C501 C 0.47613 0.53143 0.53739 0.0
C502 C 0.54979 0.51629 0.57943 0.0
C503 C 0.55835 0.50324 0.55102 0.0
C504 C 0.53158 0.51908 0.57518 0.0
C505 C 0.5214 0.50898 0.54215 0.0
C506 C 0.52997 0.49588 0.51379 0.0
C507 C 0.54819 0.49298 0.51838 0.0
H508 H 0.77444 0.21143 0.71901 0.0
H509 H 0.7311 0.21597 0.82233 0.0
H510 H 0.77934 0.24312 0.72381 0.0
H511 H 0.73641 0.24766 0.82863 0.0
H512 H 0.73849 0.30591 0.79197 0.0
H513 H 0.7337 0.27438 0.78488 0.0
H514 H 0.79013 0.26602 0.77548 0.0
H515 H 0.79491 0.29791 0.7808 0.0
C516 C 0.766 0.21918 0.74304 0.0
C517 C 0.75235 0.21112 0.7703 0.0
C518 C 0.76891 0.23739 0.74607 0.0
C519 C 0.75836 0.24805 0.77677 0.0
C520 C 0.74466 0.23997 0.80395 0.0
C521 C 0.74162 0.22175 0.80052 0.0
C522 C 0.74994 0.2974 0.78841 0.0
C523 C 0.76713 0.30451 0.78714 0.0
C524 C 0.74716 0.27922 0.78467 0.0
C525 C 0.76149 0.26752 0.78004 0.0
C526 C 0.77873 0.27461 0.77843 0.0
C527 C 0.78151 0.2929 0.78169 0.0
H528 H 0.05636 0.48786 0.53563 0.0
H529 H 0.04831 0.54435 0.52964 0.0
H530 H 0.02475 0.48316 0.53006 0.0
H531 H 0.01638 0.53964 0.5258 0.0
H532 H 0.96145 0.52467 0.4705 0.0
H533 H 0.99317 0.52945 0.47433 0.0
H534 H 0.99823 0.48544 0.57535 0.0
H535 H 0.96646 0.48027 0.57005 0.0
C536 C 0.04783 0.49934 0.5335 0.0
C537 C 0.05495 0.51653 0.53321 0.0
C538 C 0.0296 0.49661 0.53065 0.0
C539 C 0.01787 0.51098 0.52787 0.0
C540 C 0.02498 0.52821 0.52729 0.0
C541 C 0.0433 0.53095 0.52969 0.0
C542 C 0.96931 0.51597 0.49353 0.0
C543 C 0.96135 0.50206 0.52 0.0
C544 C 0.98755 0.51881 0.49599 0.0
C545 C 0.99837 0.50792 0.52532 0.0
C546 C 0.99041 0.49396 0.55174 0.0
C547 C 0.97215 0.49101 0.54889 0.0
H548 H 0.73862 0.71238 0.77439 0.0
H549 H 0.79497 0.72039 0.78799 0.0
H550 H 0.73379 0.74399 0.77993 0.0
H551 H 0.79016 0.75225 0.79179 0.0
H552 H 0.7748 0.8064 0.84922 0.0
H553 H 0.77915 0.7747 0.84413 0.0
H554 H 0.73673 0.77115 0.73739 0.0
H555 H 0.73197 0.80301 0.74391 0.0
C556 C 0.75004 0.72089 0.77815 0.0
C557 C 0.76722 0.71376 0.78083 0.0
C558 C 0.74724 0.73912 0.78099 0.0
C559 C 0.76154 0.7508 0.78621 0.0
C560 C 0.77876 0.74368 0.78858 0.0
C561 C 0.78156 0.72539 0.78616 0.0
C562 C 0.76633 0.79888 0.82468 0.0
C563 C 0.75304 0.8073 0.79681 0.0
C564 C 0.76895 0.78065 0.82148 0.0
C565 C 0.75846 0.77027 0.78995 0.0
C566 C 0.74497 0.77865 0.7625 0.0
C567 C 0.74223 0.79694 0.76611 0.0
H568 H 0.54446 0.54568 0.03855 0.0
H569 H 0.55211 0.4891 0.03894 0.0
H570 H 0.51245 0.54123 0.04352 0.0
H571 H 0.52051 0.48469 0.04549 0.0
H572 H 0.46283 0.48117 0.00339 0.0
H573 H 0.49445 0.48673 -0.00215 0.0
H574 H 0.48883 0.5315 0.09586 0.0
H575 H 0.45712 0.52629 0.1001 0.0
C576 C 0.53935 0.53233 0.04016 0.0
C577 C 0.55088 0.51778 0.03786 0.0
C578 C 0.521 0.52975 0.04318 0.0
C579 C 0.5138 0.51256 0.04437 0.0
C580 C 0.52545 0.49809 0.04332 0.0
C581 C 0.54366 0.50066 0.03987 0.0
C582 C 0.46832 0.49219 0.02381 0.0
C583 C 0.45737 0.50324 0.0522 0.0
C584 C 0.48652 0.49536 0.02084 0.0
C585 C 0.4943 0.50956 0.04657 0.0
C586 C 0.48333 0.52061 0.07496 0.0
C587 C 0.46511 0.51752 0.07765 0.0
H588 H 0.73256 0.30319 0.3259 0.0
H589 H 0.77336 0.30625 0.21438 0.0
H590 H 0.73786 0.27149 0.33383 0.0
H591 H 0.77822 0.27462 0.22096 0.0
H592 H 0.7954 0.22071 0.27881 0.0
H593 H 0.79033 0.25252 0.27308 0.0
H594 H 0.73429 0.24409 0.29331 0.0
H595 H 0.73939 0.2126 0.30071 0.0
C596 C 0.7425 0.29708 0.30266 0.0
C597 C 0.75257 0.30731 0.26971 0.0
C598 C 0.74554 0.27886 0.30707 0.0
C599 C 0.75858 0.2704 0.27823 0.0
C600 C 0.76837 0.28065 0.24462 0.0
C601 C 0.76546 0.29883 0.24058 0.0
C602 C 0.78201 0.22566 0.28212 0.0
C603 C 0.76785 0.21402 0.29034 0.0
C604 C 0.77906 0.24392 0.27856 0.0
C605 C 0.76186 0.25098 0.28275 0.0
C606 C 0.74774 0.23928 0.29081 0.0
C607 C 0.75069 0.22111 0.29472 0.0
H608 H 0.23848 0.30514 0.77359 0.0
H609 H 0.29462 0.29662 0.79137 0.0
H610 H 0.2333 0.27364 0.78146 0.0
H611 H 0.28948 0.26487 0.7975 0.0
H612 H 0.27302 0.21094 0.85557 0.0
H613 H 0.27789 0.2426 0.84969 0.0
H614 H 0.23642 0.24637 0.74012 0.0
H615 H 0.23112 0.2147 0.74742 0.0
C616 C 0.24978 0.29653 0.77879 0.0
C617 C 0.267 0.30349 0.78182 0.0
C618 C 0.24679 0.27837 0.78299 0.0
C619 C 0.26094 0.26657 0.78992 0.0
C620 C 0.27819 0.27353 0.79292 0.0
C621 C 0.28118 0.29176 0.78914 0.0
C622 C 0.26489 0.21851 0.83026 0.0
C623 C 0.25167 0.21022 0.8019 0.0
C624 C 0.26779 0.23671 0.82662 0.0
C625 C 0.25766 0.24715 0.79418 0.0
C626 C 0.24434 0.23886 0.76604 0.0
C627 C 0.24132 0.22065 0.77006 0.0
H628 H 0.23578 0.81087 0.30002 0.0
H629 H 0.29197 0.80224 0.28378 0.0
H630 H 0.23062 0.77928 0.29343 0.0
H631 H 0.28684 0.77049 0.27886 0.0
H632 H 0.22929 0.71988 0.32889 0.0
H633 H 0.23386 0.75178 0.33535 0.0
H634 H 0.27523 0.74861 0.2254 0.0
H635 H 0.27106 0.71691 0.22018 0.0
C636 C 0.24709 0.80223 0.29542 0.0
C637 C 0.26432 0.80917 0.2923 0.0
C638 C 0.2441 0.78404 0.29195 0.0
C639 C 0.25827 0.77224 0.2856 0.0
C640 C 0.27554 0.77917 0.28285 0.0
C641 C 0.27852 0.7974 0.28592 0.0
C642 C 0.23927 0.72604 0.30594 0.0
C643 C 0.24988 0.71579 0.27436 0.0
C644 C 0.24189 0.74435 0.30952 0.0
C645 C 0.25507 0.75283 0.28127 0.0
C646 C 0.26528 0.74256 0.2487 0.0
C647 C 0.26278 0.72433 0.24544 0.0
H648 H 0.28862 0.2176 0.32654 0.0
H649 H 0.24377 0.21397 0.22803 0.0
H650 H 0.28376 0.24937 0.33412 0.0
H651 H 0.23931 0.24564 0.23409 0.0
H652 H 0.22502 0.30035 0.29086 0.0
H653 H 0.2295 0.26842 0.287 0.0
H654 H 0.28608 0.27629 0.29069 0.0
H655 H 0.28159 0.30795 0.29644 0.0
C656 C 0.27784 0.22359 0.30612 0.0
C657 C 0.26658 0.21318 0.27681 0.0
C658 C 0.27506 0.24184 0.31029 0.0
C659 C 0.26107 0.25017 0.28482 0.0
C660 C 0.24998 0.23973 0.2551 0.0
C661 C 0.25264 0.22151 0.25132 0.0
C662 C 0.2384 0.29524 0.29083 0.0
C663 C 0.25291 0.30675 0.29403 0.0
C664 C 0.24101 0.27691 0.28841 0.0
C665 C 0.25819 0.26967 0.28854 0.0
C666 C 0.27266 0.28126 0.29148 0.0
C667 C 0.27006 0.2995 0.29443 0.0
H668 H 0.29491 0.71816 0.79017 0.0
H669 H 0.23846 0.70994 0.79762 0.0
H670 H 0.29001 0.75004 0.78466 0.0
H671 H 0.23355 0.74145 0.79022 0.0
H672 H 0.22996 0.79983 0.8258 0.0
H673 H 0.23559 0.76824 0.83345 0.0
H674 H 0.27967 0.77293 0.73249 0.0
H675 H 0.27444 0.80454 0.72643 0.0
C676 C 0.28147 0.72312 0.79018 0.0
C677 C 0.26712 0.71146 0.79464 0.0
C678 C 0.27862 0.74141 0.78681 0.0
C679 C 0.26134 0.74845 0.78725 0.0
C680 C 0.24704 0.73668 0.79094 0.0
C681 C 0.24989 0.71851 0.79485 0.0
C682 C 0.24082 0.79411 0.80517 0.0
C683 C 0.25173 0.80477 0.77557 0.0
C684 C 0.24404 0.77594 0.80936 0.0
C685 C 0.25812 0.7679 0.78357 0.0
C686 C 0.26892 0.7786 0.75367 0.0
C687 C 0.26582 0.79678 0.74989 0.0
H688 H 0.4683 0.04323 0.53531 0.0
H689 H 0.45976 0.987 0.54912 0.0
H690 H 0.50009 0.03814 0.53035 0.0
H691 H 0.49136 0.98186 0.54228 0.0
H692 H 0.55057 0.97958 0.57649 0.0
H693 H 0.51874 0.98447 0.58361 0.0
H694 H 0.52232 0.02716 0.47773 0.0
H695 H 0.554 0.02268 0.47212 0.0
C696 C 0.47317 0.02978 0.53687 0.0
C697 C 0.46142 0.01556 0.54265 0.0
C698 C 0.49143 0.02682 0.53377 0.0
C699 C 0.49841 0.00954 0.53581 0.0
C700 C 0.4866 0.99535 0.54143 0.0
C701 C 0.46839 0.99832 0.54502 0.0
C702 C 0.54452 0.98994 0.55462 0.0
C703 C 0.55489 1.00078 0.524 0.0
C704 C 0.52623 0.99275 0.55855 0.0
C705 C 0.51786 1.00633 0.53152 0.0
C706 C 0.52826 0.01686 0.50008 0.0
C707 C 0.54648 0.01419 0.49657 0.0
H708 H 0.97084 0.04087 0.07915 0.0
H709 H 0.96768 0.99989 0.96832 0.0
H710 H 1.00249 0.03526 0.08797 0.0
H711 H 0.99925 0.99476 0.97551 0.0
H712 H 0.0523 0.97645 0.03412 0.0
H713 H 0.02069 0.9823 0.02776 0.0
H714 H 0.03039 0.03801 0.05028 0.0
H715 H 0.06179 0.03205 0.05861 0.0
C716 C 0.97695 0.03086 0.05615 0.0
C717 C 0.96669 0.02078 0.02327 0.0
C718 C 0.99513 0.02763 0.06108 0.0
C719 C 1.00353 0.01441 0.03276 0.0
C720 C 0.99327 1.00472 -0.00108 0.0
C721 C 0.97513 1.00778 -0.00553 0.0
C722 C 0.04768 0.98994 0.03779 0.0
C723 C 0.05965 1.00375 0.04686 0.0
C724 C 0.02952 0.99334 0.03384 0.0
C725 C 0.02286 0.01069 0.03826 0.0
C726 C 0.03489 0.02446 0.04743 0.0
C727 C 0.05299 0.02103 0.05191 0.0
H728 H 0.55474 0.99588 0.09588 0.0
H729 H 0.55021 0.03952 -0.00644 0.0
H730 H 0.52309 0.99098 0.09094 0.0
H731 H 0.51847 0.03419 0.98705 0.0
H732 H 0.45994 0.03148 0.02423 0.0
H733 H 0.49151 0.03656 0.0301 0.0
H734 H 0.5004 0.98022 0.03923 0.0
H735 H 0.46857 0.97516 0.03521 0.0
C736 C 0.547 1.00439 0.072 0.0
C737 C 0.55507 0.01811 0.04507 0.0
C738 C 0.52879 1.00147 0.06887 0.0
C739 C 0.51811 0.01208 0.03834 0.0
C740 C 0.52618 0.02588 0.01153 0.0
C741 C 0.54442 0.02893 0.01509 0.0
C742 C 0.46859 0.02012 0.02749 0.0
C743 C 0.46164 1.00288 0.02927 0.0
C744 C 0.48679 0.02306 0.03051 0.0
C745 C 0.49865 1.00884 0.03494 0.0
C746 C 0.49171 0.99155 0.0366 0.0
C747 C 0.47343 0.98862 0.03407 0.0
H748 H 0.05759 0.9863 0.52537 0.0
H749 H 0.0493 0.04256 0.54032 0.0
H750 H 0.02607 0.98128 0.5329 0.0
H751 H 0.01748 0.03755 0.54628 0.0
H752 H 0.96339 0.02161 0.60358 0.0
H753 H 0.99513 0.02611 0.59887 0.0
H754 H 0.99895 0.98445 0.48996 0.0
H755 H 0.96712 0.97954 0.49605 0.0
C756 C 0.04903 0.99766 0.52997 0.0
C757 C 0.05606 0.01488 0.53215 0.0
C758 C 0.03086 0.99475 0.53396 0.0
C759 C 0.01912 1.00898 0.53992 0.0
C760 C 0.02612 0.02622 0.54236 0.0
C761 C 0.04438 0.02913 0.53873 0.0
C762 C 0.97099 0.01335 0.57868 0.0
C763 C 0.96268 1.00023 0.55005 0.0
C764 C 0.98923 0.01604 0.57572 0.0
C765 C 0.99968 1.00579 0.54371 0.0
C766 C 0.99139 0.99248 0.51551 0.0
C767 C 0.97312 0.98967 0.51886 0.0
H768 H 0.09458 0.46578 0.86505 0.0
H769 H 0.11883 0.51364 0.91979 0.0
H770 H 0.09127 0.47956 0.78344 0.0
H771 H 0.11548 0.52726 0.83896 0.0
H772 H 0.09414 0.55171 0.69747 0.0
H773 H 0.09228 0.53784 0.7793 0.0
H774 H 0.11298 0.48928 0.7185 0.0
H775 H 0.11488 0.50299 0.6374 0.0
C776 C 0.09911 0.47922 0.85973 0.0
C777 C 0.10703 0.48859 0.89867 0.0
C778 C 0.09722 0.48709 0.81317 0.0
C779 C 0.10305 0.5045 0.80506 0.0
C780 C 0.11062 0.51394 0.84434 0.0
C781 C 0.11267 0.50605 0.89055 0.0
C782 C 0.09817 0.53805 0.70166 0.0
C783 C 0.10477 0.52848 0.6612 0.0
C784 C 0.09712 0.53013 0.74836 0.0
C785 C 0.10247 0.51248 0.7551 0.0
C786 C 0.10855 0.50281 0.71426 0.0
C787 C 0.10977 0.51075 0.66788 0.0
H788 H 0.71785 0.85942 0.95657 0.0
H789 H 0.76942 0.8572 0.88869 0.0
H790 H 0.73149 0.85686 0.0378 0.0
H791 H 0.78297 0.85262 0.96836 0.0
H792 H 0.80495 0.86377 0.12125 0.0
H793 H 0.79184 0.86541 0.03906 0.0
H794 H 0.74468 0.83972 0.09483 0.0
H795 H 0.75717 0.8401 0.17704 0.0
C796 C 0.73208 0.858 0.95907 0.0
C797 C 0.74255 0.8585 0.91643 0.0
C798 C 0.73997 0.85632 0.0056 0.0
C799 C 0.75848 0.85444 0.01023 0.0
C800 C 0.76879 0.85449 0.96698 0.0
C801 C 0.76096 0.85687 0.92086 0.0
C802 C 0.79185 0.85838 0.11538 0.0
C803 C 0.78206 0.85178 0.15516 0.0
C804 C 0.78429 0.85919 0.06823 0.0
C805 C 0.767 0.85282 0.05978 0.0
C806 C 0.75772 0.84533 0.09967 0.0
C807 C 0.76501 0.84522 0.14694 0.0
H808 H 0.3867 0.50614 0.15723 0.0
H809 H 0.42891 0.46977 0.19269 0.0
H810 H 0.3907 0.52083 0.23647 0.0
H811 H 0.43301 0.48468 0.27244 0.0
H812 H 0.41438 0.50165 0.43063 0.0
H813 H 0.41481 0.48794 0.34957 0.0
H814 H 0.41332 0.5395 0.28105 0.0
H815 H 0.41314 0.55338 0.3632 0.0
C816 C 0.39687 0.5013 0.18202 0.0
C817 C 0.40746 0.48676 0.16899 0.0
C818 C 0.39927 0.50985 0.22713 0.0
C819 C 0.4123 0.50404 0.26024 0.0
C820 C 0.42283 0.48938 0.2475 0.0
C821 C 0.42043 0.4808 0.20214 0.0
C822 C 0.41436 0.51012 0.39843 0.0
C823 C 0.41363 0.52859 0.40317 0.0
C824 C 0.41474 0.50223 0.35194 0.0
C825 C 0.41406 0.51264 0.3091 0.0
C826 C 0.41378 0.53118 0.31366 0.0
C827 C 0.41375 0.53911 0.36045 0.0
H828 H 0.71692 0.17342 0.61747 0.0
H829 H 0.76445 0.14882 0.67367 0.0
H830 H 0.73109 0.17675 0.5364 0.0
H831 H 0.77848 0.15224 0.59345 0.0
H832 H 0.80355 0.17421 0.45298 0.0
H833 H 0.78934 0.17578 0.53447 0.0
H834 H 0.74118 0.15486 0.47182 0.0
H835 H 0.75523 0.15319 0.39122 0.0
C836 C 0.73036 0.1688 0.61258 0.0
C837 C 0.73953 0.16081 0.6518 0.0
C838 C 0.73847 0.17072 0.56635 0.0
C839 C 0.75592 0.16484 0.55887 0.0
C840 C 0.76513 0.15715 0.59838 0.0
C841 C 0.75701 0.15506 0.64424 0.0
C842 C 0.78991 0.17006 0.45671 0.0
C843 C 0.78054 0.1635 0.41584 0.0
C844 C 0.7818 0.17095 0.5032 0.0
C845 C 0.76415 0.16549 0.50927 0.0
C846 C 0.7547 0.15939 0.46808 0.0
C847 C 0.76283 0.15831 0.42196 0.0
H848 H 0.9039 0.5051 0.14101 0.0
H849 H 0.92433 0.55368 0.20255 0.0
H850 H 0.90565 0.49115 0.22168 0.0
H851 H 0.92596 0.53957 0.2842 0.0
H852 H 0.89902 0.51434 0.42327 0.0
H853 H 0.90253 0.52846 0.34317 0.0
H854 H 0.92755 0.48133 0.28637 0.0
H855 H 0.92412 0.46706 0.36727 0.0
C856 C 0.90891 0.51279 0.17172 0.0
C857 C 0.91391 0.53054 0.1655 0.0
C858 C 0.91003 0.50471 0.2179 0.0
C859 C 0.91599 0.51425 0.25908 0.0
C860 C 0.92125 0.53195 0.25293 0.0
C861 C 0.92033 0.54001 0.20637 0.0
C862 C 0.9054 0.50697 0.39391 0.0
C863 C 0.91123 0.48953 0.40146 0.0
C864 C 0.90753 0.51516 0.34814 0.0
C865 C 0.91538 0.50603 0.30872 0.0
C866 C 0.92139 0.48863 0.31624 0.0
C867 C 0.91941 0.48047 0.36237 0.0
H868 H 0.21913 0.17841 0.94749 0.0
H869 H 0.25949 0.14113 0.90354 0.0
H870 H 0.23394 0.18206 0.02766 0.0
H871 H 0.27411 0.14476 0.98293 0.0
H872 H 0.30421 0.16659 0.11566 0.0
H873 H 0.29045 0.16799 0.03335 0.0
H874 H 0.23899 0.16142 0.09996 0.0
H875 H 0.25254 0.15963 0.1809 0.0
C876 C 0.23107 0.17098 0.95502 0.0
C877 C 0.23811 0.15945 0.91945 0.0
C878 C 0.23959 0.17312 0.00062 0.0
C879 C 0.25528 0.16383 0.01112 0.0
C880 C 0.26228 0.15238 0.97541 0.0
C881 C 0.25377 0.15018 0.93015 0.0
C882 C 0.28996 0.16565 0.11253 0.0
C883 C 0.27948 0.16293 0.15467 0.0
C884 C 0.28211 0.16642 0.06563 0.0
C885 C 0.26364 0.16488 0.06048 0.0
C886 C 0.2532 0.16286 0.10287 0.0
C887 C 0.26104 0.16171 0.14932 0.0
H888 H 0.6096 0.5029 0.93264 0.0
H889 H 0.59186 0.55243 0.87026 0.0
H890 H 0.60853 0.48929 0.85144 0.0
H891 H 0.59086 0.53865 0.78815 0.0
H892 H 0.62069 0.51411 0.65344 0.0
H893 H 0.61549 0.52749 0.73363 0.0
H894 H 0.58818 0.48044 0.78178 0.0
H895 H 0.5933 0.46689 0.70051 0.0
C896 C 0.60526 0.51086 0.90164 0.0
C897 C 0.60095 0.5288 0.90771 0.0
C898 C 0.60452 0.50297 0.85515 0.0
C899 C 0.59963 0.51291 0.81358 0.0
C900 C 0.59478 0.53074 0.81972 0.0
C901 C 0.59533 0.53861 0.86655 0.0
C902 C 0.61346 0.50659 0.68085 0.0
C903 C 0.60744 0.4894 0.67073 0.0
C904 C 0.61034 0.51437 0.72668 0.0
C905 C 0.6013 0.50508 0.76369 0.0
C906 C 0.5952 0.48787 0.75373 0.0
C907 C 0.59817 0.48012 0.70744 0.0
H908 H 0.21351 0.84549 0.61653 0.0
H909 H 0.26302 0.86401 0.67711 0.0
H910 H 0.22717 0.84408 0.53412 0.0
H911 H 0.27652 0.86236 0.59597 0.0
H912 H 0.29973 0.84378 0.45035 0.0
H913 H 0.28521 0.84016 0.53072 0.0
H914 H 0.2392 0.86762 0.47542 0.0
H915 H 0.25361 0.87129 0.39557 0.0
C916 C 0.22729 0.84908 0.61237 0.0
C917 C 0.23716 0.8549 0.65322 0.0
C918 C 0.23508 0.8483 0.56538 0.0
C919 C 0.25293 0.85302 0.55887 0.0
C920 C 0.26283 0.85839 0.6 0.0
C921 C 0.25502 0.85945 0.64651 0.0
C922 C 0.28652 0.84899 0.45541 0.0
C923 C 0.27788 0.85794 0.41686 0.0
C924 C 0.2782 0.84689 0.50125 0.0
C925 C 0.26107 0.85357 0.50911 0.0
C926 C 0.2523 0.86212 0.47016 0.0
C927 C 0.26065 0.86436 0.42459 0.0
H928 H 0.59309 0.05298 0.20151 0.0
H929 H 0.6164 1.00513 0.14341 0.0
H930 H 0.59054 0.03892 0.28292 0.0
H931 H 0.61383 0.99122 0.22406 0.0
H932 H 0.59438 0.96674 0.36804 0.0
H933 H 0.59157 0.98058 0.28634 0.0
H934 H 0.61314 0.02907 0.34503 0.0
H935 H 0.61597 0.0154 0.42587 0.0
C936 C 0.59756 0.03948 0.20605 0.0
C937 C 0.60504 0.03021 0.16625 0.0
C938 C 0.59611 0.03144 0.25249 0.0
C939 C 0.60195 0.01397 0.25965 0.0
C940 C 0.60899 1.0046 0.21946 0.0
C941 C 0.61059 0.01266 0.17335 0.0
C942 C 0.59842 0.98037 0.36338 0.0
C943 C 0.60547 0.98995 0.40321 0.0
C944 C 0.59681 0.98827 0.31678 0.0
C945 C 0.60208 1.00592 0.30953 0.0
C946 C 0.60873 0.01556 0.3497 0.0
C947 C 0.61048 1.00764 0.39594 0.0
H948 H 0.21751 0.34464 0.45221 0.0
H949 H 0.26566 0.36774 0.39551 0.0
H950 H 0.23161 0.34103 0.53324 0.0
H951 H 0.27963 0.36407 0.47584 0.0
H952 H 0.30387 0.34194 0.61791 0.0
H953 H 0.28989 0.34057 0.53602 0.0
H954 H 0.24206 0.36285 0.5971 0.0
H955 H 0.25587 0.36432 0.678 0.0
C956 C 0.23108 0.34887 0.45698 0.0
C957 C 0.24043 0.35656 0.41766 0.0
C958 C 0.23915 0.34679 0.5032 0.0
C959 C 0.25674 0.35221 0.51063 0.0
C960 C 0.26616 0.35954 0.47097 0.0
C961 C 0.25807 0.36177 0.42507 0.0
C962 C 0.29035 0.34643 0.61373 0.0
C963 C 0.281 0.35331 0.65425 0.0
C964 C 0.28237 0.34566 0.56702 0.0
C965 C 0.26487 0.35154 0.5604 0.0
C966 C 0.25545 0.35798 0.60125 0.0
C967 C 0.26345 0.35895 0.64756 0.0
H968 H 0.90516 1.00627 0.9275 0.0
H969 H 0.92551 0.0548 0.86538 0.0
H970 H 0.90682 0.99224 0.84705 0.0
H971 H 0.92709 0.04058 0.78386 0.0
H972 H 0.90023 0.0151 0.64501 0.0
H973 H 0.90398 0.02946 0.72468 0.0
H974 H 0.92834 0.98216 0.78276 0.0
H975 H 0.92459 0.96764 0.70239 0.0
C976 C 0.91015 0.01393 0.89671 0.0
C977 C 0.91515 0.03169 0.90273 0.0
C978 C 0.91122 1.0058 0.85063 0.0
C979 C 0.91715 0.01528 0.8093 0.0
C980 C 0.92241 0.033 0.81523 0.0
C981 C 0.92151 0.04112 0.86172 0.0
C982 C 0.90651 1.00775 0.67458 0.0
C983 C 0.91202 0.99018 0.66759 0.0
C984 C 0.9088 0.01607 0.7201 0.0
C985 C 0.91651 1.00696 0.75979 0.0
C986 C 0.92227 0.98945 0.75273 0.0
C987 C 0.9201 0.98114 0.70689 0.0
H988 H 0.30295 0.67508 0.95411 0.0
H989 H 0.25529 0.65016 0.90016 0.0
H990 H 0.28899 0.67882 0.0354 0.0
H991 H 0.2415 0.65399 0.98039 0.0
H992 H 0.21681 0.67482 0.1217 0.0
H993 H 0.23068 0.67728 0.0399 0.0
H994 H 0.27946 0.65671 0.09991 0.0
H995 H 0.26577 0.65414 0.18064 0.0
C996 C 0.28952 0.67051 0.9595 0.0
C997 C 0.28027 0.66226 0.92092 0.0
C998 C 0.28153 0.67268 0.00581 0.0
C999 C 0.26413 0.66679 0.01391 0.0
C1000 C 0.2548 0.65893 0.97494 0.0
C1001 C 0.26281 0.6566 0.92907 0.0
C1002 C 0.2305 0.67094 0.1173 0.0
C1003 C 0.24015 0.6642 0.15743 0.0
C1004 C 0.23844 0.67237 0.07069 0.0
C1005 C 0.25616 0.66726 0.06381 0.0
C1006 C 0.26588 0.66102 0.10432 0.0
C1007 C 0.25795 0.65941 0.15051 0.0
H1008 H 0.40095 0.01473 0.92781 0.0
H1009 H 0.42335 0.96662 0.86864 0.0
H1010 H 0.40352 0.02873 0.84721 0.0
H1011 H 0.42581 0.98074 0.78726 0.0
H1012 H 0.40027 1.00505 0.64526 0.0
H1013 H 0.40284 0.99126 0.72601 0.0
H1014 H 0.42624 0.03893 0.78438 0.0
H1015 H 0.42381 0.05287 0.70265 0.0
C1016 C 0.40655 1.00716 0.89765 0.0
C1017 C 0.41187 0.98952 0.90446 0.0
C1018 C 0.40814 0.01526 0.85157 0.0
C1019 C 0.41491 1.00585 0.81111 0.0
C1020 C 0.42048 0.98826 0.81793 0.0
C1021 C 0.41907 0.98019 0.86436 0.0
C1022 C 0.40611 0.01261 0.67507 0.0
C1023 C 0.4118 0.0301 0.66765 0.0
C1024 C 0.4077 1.00462 0.72127 0.0
C1025 C 0.41481 0.01398 0.76132 0.0
C1026 C 0.42066 0.03144 0.75401 0.0
C1027 C 0.41927 0.03941 0.70739 0.0
H1028 H 0.71568 0.67156 0.45494 0.0
H1029 H 0.76231 0.64445 0.40197 0.0
H1030 H 0.72989 0.67542 0.53581 0.0
H1031 H 0.77637 0.64841 0.48194 0.0
H1032 H 0.80239 0.672 0.61862 0.0
H1033 H 0.788 0.67278 0.53731 0.0
H1034 H 0.73944 0.65419 0.60321 0.0
H1035 H 0.75368 0.65328 0.68368 0.0
C1036 C 0.72891 0.66646 0.46053 0.0
C1037 C 0.73786 0.65768 0.42224 0.0
C1038 C 0.73704 0.6687 0.50661 0.0
C1039 C 0.75428 0.66234 0.51481 0.0
C1040 C 0.76322 0.65372 0.47634 0.0
C1041 C 0.75507 0.65133 0.43066 0.0
C1042 C 0.78862 0.66822 0.61564 0.0
C1043 C 0.7792 0.66248 0.65736 0.0
C1044 C 0.78041 0.66865 0.56926 0.0
C1045 C 0.76261 0.66357 0.56416 0.0
C1046 C 0.75309 0.65838 0.60619 0.0
C1047 C 0.76133 0.65774 0.65223 0.0
H1048 H 0.09801 1.00453 0.42771 0.0
H1049 H 0.11312 0.05429 0.36248 0.0
H1050 H 0.09722 0.99088 0.34663 0.0
H1051 H 0.11283 0.04042 0.28024 0.0
H1052 H 0.13445 1.00214 0.16081 0.0
H1053 H 0.13152 0.01751 0.23964 0.0
H1054 H 0.08194 0.99078 0.26592 0.0
H1055 H 0.08515 0.97503 0.18715 0.0
C1056 C 0.10094 0.01262 0.39587 0.0
C1057 C 0.10553 0.03046 0.40125 0.0
C1058 C 0.10043 1.00479 0.3493 0.0
C1059 C 0.105 0.01455 0.30709 0.0
C1060 C 0.10929 0.03257 0.31226 0.0
C1061 C 0.10935 0.04054 0.35905 0.0
C1062 C 0.12296 0.99951 0.18359 0.0
C1063 C 0.11009 0.98732 0.1683 0.0
C1064 C 0.12118 1.00846 0.22838 0.0
C1065 C 0.1064 1.00551 0.25863 0.0
C1066 C 0.09354 0.99322 0.24344 0.0
C1067 C 0.0954 0.98413 0.19865 0.0
H1068 H 0.71888 0.34132 0.12147 0.0
H1069 H 0.76313 0.37328 0.16853 0.0
H1070 H 0.73306 0.33724 0.0406 0.0
H1071 H 0.77712 0.36922 0.08856 0.0
H1072 H 0.80442 0.34738 0.95245 0.0
H1073 H 0.79077 0.34563 0.03471 0.0
H1074 H 0.73996 0.35814 0.97069 0.0
H1075 H 0.75343 0.36008 0.88956 0.0
C1076 C 0.73157 0.34745 0.11456 0.0
C1077 C 0.73985 0.35767 0.15115 0.0
C1078 C 0.73971 0.34507 0.06852 0.0
C1079 C 0.75626 0.35279 0.05864 0.0
C1080 C 0.76455 0.36282 0.0955 0.0
C1081 C 0.75642 0.36528 0.14115 0.0
C1082 C 0.79032 0.34956 0.95608 0.0
C1083 C 0.78003 0.35399 0.9147 0.0
C1084 C 0.78253 0.34858 0.00297 0.0
C1085 C 0.76431 0.35172 0.00889 0.0
C1086 C 0.75397 0.35544 0.96715 0.0
C1087 C 0.76177 0.3567 0.92066 0.0
H1088 H 0.11902 0.54354 0.38115 0.0
H1089 H 0.14037 0.49225 0.41917 0.0
H1090 H 0.12566 0.53817 0.29481 0.0
H1091 H 0.14756 0.48712 0.33247 0.0
H1092 H 0.12291 0.47485 0.17765 0.0
H1093 H 0.12816 0.48068 0.26444 0.0
H1094 H 0.14634 0.53329 0.22856 0.0
H1095 H 0.14053 0.52766 0.14127 0.0
C1096 C 0.12548 0.53126 0.37128 0.0
C1097 C 0.12873 0.51812 0.40691 0.0
C1098 C 0.12949 0.52826 0.32169 0.0
C1099 C 0.13695 0.51212 0.3067 0.0
C1100 C 0.1415 0.49956 0.34284 0.0
C1101 C 0.13739 0.50251 0.3925 0.0
C1102 C 0.12828 0.48759 0.18801 0.0
C1103 C 0.13083 0.50096 0.15263 0.0
C1104 C 0.1315 0.49087 0.23789 0.0
C1105 C 0.13746 0.50754 0.25346 0.0
C1106 C 0.14143 0.52042 0.21769 0.0
C1107 C 0.13812 0.51718 0.16769 0.0
H1108 H 0.78325 0.87266 0.65985 0.0
H1109 H 0.72811 0.88716 0.65083 0.0
H1110 H 0.78643 0.87738 0.57172 0.0
H1111 H 0.73146 0.89309 0.56265 0.0
H1112 H 0.79128 0.88556 0.4139 0.0
H1113 H 0.78729 0.89405 0.50017 0.0
H1114 H 0.73351 0.87452 0.4948 0.0
H1115 H 0.73727 0.8673 0.40799 0.0
C1116 C 0.77195 0.87743 0.63911 0.0
C1117 C 0.75537 0.87918 0.66165 0.0
C1118 C 0.77378 0.88032 0.58851 0.0
C1119 C 0.75911 0.88539 0.55969 0.0
C1120 C 0.74289 0.8887 0.5834 0.0
C1121 C 0.74098 0.88538 0.63386 0.0
C1122 C 0.77851 0.8835 0.43119 0.0
C1123 C 0.76465 0.87553 0.40499 0.0
C1124 C 0.77623 0.88828 0.48056 0.0
C1125 C 0.76021 0.88462 0.50494 0.0
C1126 C 0.74599 0.87774 0.47739 0.0
C1127 C 0.74815 0.87342 0.42766 0.0
H1128 H 0.3847 0.54237 0.66958 0.0
H1129 H 0.39967 0.48742 0.65924 0.0
H1130 H 0.37718 0.53827 0.75657 0.0
H1131 H 0.39342 0.48349 0.74641 0.0
H1132 H 0.3787 0.47675 0.90102 0.0
H1133 H 0.37438 0.48156 0.81268 0.0
H1134 H 0.39284 0.53539 0.8294 0.0
H1135 H 0.39583 0.53082 0.91779 0.0
C1136 C 0.38632 0.52941 0.68605 0.0
C1137 C 0.3929 0.51524 0.65811 0.0
C1138 C 0.38211 0.52705 0.73587 0.0
C1139 C 0.38487 0.5106 0.75893 0.0
C1140 C 0.39077 0.49628 0.73005 0.0
C1141 C 0.39454 0.49854 0.68004 0.0
C1142 C 0.38139 0.4897 0.88568 0.0
C1143 C 0.38775 0.50338 0.9158 0.0
C1144 C 0.37906 0.49245 0.83509 0.0
C1145 C 0.3836 0.50876 0.81351 0.0
C1146 C 0.38897 0.52272 0.84447 0.0
C1147 C 0.39082 0.52009 0.89524 0.0
H1148 H 0.74413 0.12952 0.17317 0.0
H1149 H 0.79545 0.15084 0.13543 0.0
H1150 H 0.73885 0.1228 0.08627 0.0
H1151 H 0.78992 0.14464 0.04888 0.0
H1152 H 0.77907 0.12973 0.89501 0.0
H1153 H 0.78489 0.12405 0.98229 0.0
H1154 H 0.73243 0.1426 0.01886 0.0
H1155 H 0.7264 0.14775 0.93208 0.0
C1156 C 0.75436 0.13259 0.14651 0.0
C1157 C 0.77003 0.14111 0.16108 0.0
C1158 C 0.75132 0.12875 0.09674 0.0
C1159 C 0.76385 0.13342 0.06067 0.0
C1160 C 0.78004 0.14074 0.07574 0.0
C1161 C 0.78312 0.14449 0.12543 0.0
C1162 C 0.76867 0.13228 0.9216 0.0
C1163 C 0.75242 0.13958 0.90669 0.0
C1164 C 0.77202 0.12905 0.97157 0.0
C1165 C 0.75922 0.13309 0.00748 0.0
C1166 C 0.74254 0.13918 -0.00785 0.0
C1167 C 0.73916 0.14233 0.94229 0.0
H1168 H 0.89801 0.47585 0.68147 0.0
H1169 H 0.87961 0.52844 0.64518 0.0
H1170 H 0.89305 0.48173 0.76837 0.0
H1171 H 0.87409 0.53411 0.7326 0.0
H1172 H 0.90133 0.5448 0.88488 0.0
H1173 H 0.89485 0.53923 0.79854 0.0
H1174 H 0.87362 0.48797 0.83652 0.0
H1175 H 0.88064 0.4933 0.92323 0.0
C1176 C 0.89254 0.48856 0.69188 0.0
C1177 C 0.88965 0.50185 0.65646 0.0
C1178 C 0.8895 0.49186 0.74182 0.0
C1179 C 0.88337 0.50848 0.75743 0.0
C1180 C 0.87913 0.52129 0.72169 0.0
C1181 C 0.88227 0.51802 0.67163 0.0
C1182 C 0.89506 0.53242 0.87507 0.0
C1183 C 0.89193 0.5193 0.91082 0.0
C1184 C 0.89114 0.52931 0.82549 0.0
C1185 C 0.8839 0.51307 0.81062 0.0
C1186 C 0.87951 0.50049 0.84683 0.0
C1187 C 0.88353 0.50355 0.89648 0.0
H1188 H 0.28096 0.1477 0.66688 0.0
H1189 H 0.2268 0.13042 0.6529 0.0
H1190 H 0.28536 0.14335 0.57893 0.0
H1191 H 0.23145 0.12477 0.56507 0.0
H1192 H 0.29242 0.13313 0.421 0.0
H1193 H 0.28815 0.12643 0.50842 0.0
H1194 H 0.2334 0.14264 0.49625 0.0
H1195 H 0.23748 0.14805 0.4087 0.0
C1196 C 0.27017 0.1424 0.64508 0.0
C1197 C 0.25349 0.13965 0.66623 0.0
C1198 C 0.2727 0.13975 0.59459 0.0
C1199 C 0.25869 0.13389 0.56449 0.0
C1200 C 0.24239 0.12977 0.58677 0.0
C1201 C 0.23973 0.13289 0.63706 0.0
C1202 C 0.27942 0.13488 0.43711 0.0
C1203 C 0.26532 0.14128 0.40853 0.0
C1204 C 0.27697 0.13114 0.48717 0.0
C1205 C 0.2605 0.13425 0.50982 0.0
C1206 C 0.2462 0.13979 0.48027 0.0
C1207 C 0.24855 0.14307 0.43001 0.0
H1208 H 0.63138 0.54502 0.17191 0.0
H1209 H 0.61899 0.4894 0.16354 0.0
H1210 H 0.63942 0.54158 0.25877 0.0
H1211 H 0.6258 0.48608 0.25054 0.0
H1212 H 0.63986 0.48061 0.40545 0.0
H1213 H 0.64475 0.48536 0.3173 0.0
H1214 H 0.62361 0.53833 0.33136 0.0
H1215 H 0.62003 0.53388 0.41961 0.0
C1216 C 0.63046 0.53205 0.18874 0.0
C1217 C 0.62437 0.51751 0.16143 0.0
C1218 C 0.63498 0.53007 0.23848 0.0
C1219 C 0.63303 0.51361 0.26211 0.0
C1220 C 0.62779 0.49891 0.23375 0.0
C1221 C 0.62369 0.50082 0.18382 0.0
C1222 C 0.63671 0.49339 0.38959 0.0
C1223 C 0.62938 0.50682 0.41886 0.0
C1224 C 0.63938 0.4961 0.33912 0.0
C1225 C 0.63422 0.5121 0.31679 0.0
C1226 C 0.62796 0.5259 0.34702 0.0
C1227 C 0.62576 0.52334 0.3977 0.0
H1228 H 0.27663 0.88786 0.89403 0.0
H1229 H 0.2243 0.86953 0.93321 0.0
H1230 H 0.28229 0.89506 0.98046 0.0
H1231 H 0.23017 0.8762 0.01929 0.0
H1232 H 0.24143 0.89215 0.17175 0.0
H1233 H 0.23611 0.89729 0.08396 0.0
H1234 H 0.28769 0.87588 0.04991 0.0
H1235 H 0.29325 0.87128 0.13718 0.0
C1236 C 0.26627 0.88555 0.92088 0.0
C1237 C 0.25016 0.87775 0.90686 0.0
C1238 C 0.26952 0.88966 0.97039 0.0
C1239 C 0.25677 0.88601 0.00677 0.0
C1240 C 0.24024 0.87935 -0.00781 0.0
C1241 C 0.23695 0.87531 0.94277 0.0
C1242 C 0.25177 0.88888 0.14559 0.0
C1243 C 0.26759 0.88091 0.16138 0.0
C1244 C 0.2487 0.89179 0.09532 0.0
C1245 C 0.26135 0.88674 0.05998 0.0
C1246 C 0.2777 0.88005 0.07613 0.0
C1247 C 0.28081 0.87723 0.1263 0.0
H1248 H 0.63784 0.02896 0.64565 0.0
H1249 H 0.62002 0.97628 0.6827 0.0
H1250 H 0.64453 0.03438 0.73255 0.0
H1251 H 0.62608 0.98192 0.76913 0.0
H1252 H 0.63922 0.99306 0.92321 0.0
H1253 H 0.64585 0.98796 0.83612 0.0
H1254 H 0.62474 0.0395 0.80012 0.0
H1255 H 0.61873 0.04485 0.8867 0.0
C1256 C 0.63553 0.01848 0.67215 0.0
C1257 C 0.62796 1.00236 0.65742 0.0
C1258 C 0.63935 0.0216 0.72192 0.0
C1259 C 0.63558 1.0087 0.75782 0.0
C1260 C 0.62929 0.99212 0.74248 0.0
C1261 C 0.62559 0.98896 0.69281 0.0
C1262 C 0.63631 1.00343 0.89679 0.0
C1263 C 0.62802 0.01918 0.91174 0.0
C1264 C 0.6401 1.00049 0.84691 0.0
C1265 C 0.63557 0.0132 0.81113 0.0
C1266 C 0.62854 0.02947 0.82666 0.0
C1267 C 0.62488 0.03245 0.87643 0.0
H1268 H 0.27897 0.38899 0.17401 0.0
H1269 H 0.22658 0.37015 0.13742 0.0
H1270 H 0.28464 0.39462 0.08665 0.0
H1271 H 0.23246 0.37526 0.05054 0.0
H1272 H 0.24392 0.38803 0.89588 0.0
H1273 H 0.23855 0.39493 0.98263 0.0
H1274 H 0.28999 0.37398 0.02044 0.0
H1275 H 0.2956 0.3676 0.93404 0.0
C1276 C 0.26859 0.38626 0.1475 0.0
C1277 C 0.25248 0.37873 0.16258 0.0
C1278 C 0.27185 0.38946 0.09747 0.0
C1279 C 0.2591 0.38516 0.06165 0.0
C1280 C 0.24253 0.37887 0.07715 0.0
C1281 C 0.23923 0.37574 0.12708 0.0
C1282 C 0.25422 0.38521 0.92258 0.0
C1283 C 0.27002 0.37686 0.90819 0.0
C1284 C 0.25112 0.38914 0.97227 0.0
C1285 C 0.26373 0.38477 0.00845 0.0
C1286 C 0.28004 0.37765 -0.00649 0.0
C1287 C 0.28318 0.3738 0.9439 0.0
H1288 H 0.9003 0.97617 0.38677 0.0
H1289 H 0.8811 0.02848 0.42292 0.0
H1290 H 0.8956 0.98211 0.29975 0.0
H1291 H 0.87585 0.03419 0.3354 0.0
H1292 H 0.90304 0.0455 0.18364 0.0
H1293 H 0.89664 0.03968 0.2699 0.0
H1294 H 0.87624 0.98815 0.23127 0.0
H1295 H 0.88319 0.99373 0.14465 0.0
C1296 C 0.8947 0.98882 0.37629 0.0
C1297 C 0.8915 1.00202 0.41173 0.0
C1298 C 0.89182 0.99215 0.32627 0.0
C1299 C 0.88554 1.00871 0.31064 0.0
C1300 C 0.88102 0.02143 0.34635 0.0
C1301 C 0.88401 0.01813 0.39646 0.0
C1302 C 0.89698 0.033 0.1933 0.0
C1303 C 0.89406 0.01989 0.1574 0.0
C1304 C 0.89311 0.02974 0.24283 0.0
C1305 C 0.88611 0.01336 0.25748 0.0
C1306 C 0.88194 1.00077 0.22114 0.0
C1307 C 0.88591 1.00398 0.17154 0.0
H1308 H 0.23803 0.64638 0.66919 0.0
H1309 H 0.29296 0.63172 0.65452 0.0
H1310 H 0.23386 0.64251 0.58105 0.0
H1311 H 0.28861 0.62658 0.5663 0.0
H1312 H 0.28179 0.65209 0.41275 0.0
H1313 H 0.28594 0.64554 0.49972 0.0
H1314 H 0.23205 0.62651 0.50855 0.0
H1315 H 0.22766 0.63431 0.42187 0.0
C1316 C 0.24907 0.64173 0.64719 0.0
C1317 C 0.26588 0.63968 0.66822 0.0
C1318 C 0.24667 0.63935 0.59655 0.0
C1319 C 0.26098 0.6345 0.56616 0.0
C1320 C 0.27743 0.63086 0.58829 0.0
C1321 C 0.27993 0.63369 0.63879 0.0
C1322 C 0.27093 0.64629 0.43322 0.0
C1323 C 0.25433 0.64399 0.41112 0.0
C1324 C 0.27333 0.64234 0.48308 0.0
C1325 C 0.25927 0.63561 0.51155 0.0
C1326 C 0.24303 0.6321 0.48817 0.0
C1327 C 0.2405 0.6365 0.43856 0.0
H1328 H 0.39856 0.97492 0.18462 0.0
H1329 H 0.37758 0.02646 0.1475 0.0
H1330 H 0.39267 0.98047 0.2713 0.0
H1331 H 0.37116 0.03176 0.23461 0.0
H1332 H 0.39694 0.04376 0.38821 0.0
H1333 H 0.39124 0.03793 0.30159 0.0
H1334 H 0.37237 0.98566 0.33846 0.0
H1335 H 0.37861 0.99127 0.42552 0.0
C1336 C 0.39234 0.9873 0.19478 0.0
C1337 C 0.38897 1.00045 0.15924 0.0
C1338 C 0.38876 0.9904 0.24457 0.0
C1339 C 0.38163 1.00665 0.25988 0.0
C1340 C 0.37697 0.01924 0.22395 0.0
C1341 C 0.38063 0.01618 0.17406 0.0
C1342 C 0.39134 0.0311 0.3781 0.0
C1343 C 0.38867 0.01781 0.41367 0.0
C1344 C 0.38786 0.02783 0.32834 0.0
C1345 C 0.38154 0.01125 0.3131 0.0
C1346 C 0.37754 0.99845 0.34908 0.0
C1347 C 0.38109 1.00169 0.39894 0.0
H1348 H 0.77916 0.62879 0.17863 0.0
H1349 H 0.72572 0.64456 0.14211 0.0
H1350 H 0.78534 0.62413 0.09109 0.0
H1351 H 0.73207 0.6404 0.05507 0.0
H1352 H 0.74455 0.62815 0.90035 0.0
H1353 H 0.73952 0.62106 0.98712 0.0
H1354 H 0.7893 0.64552 0.02534 0.0
H1355 H 0.7946 0.65215 0.93884 0.0
C1356 C 0.76866 0.63103 0.1521 0.0
C1357 C 0.75207 0.63742 0.16727 0.0
C1358 C 0.77223 0.6284 0.10198 0.0
C1359 C 0.75927 0.6321 0.0662 0.0
C1360 C 0.74231 0.63727 0.0817 0.0
C1361 C 0.73873 0.63985 0.1317 0.0
C1362 C 0.75456 0.63176 0.92717 0.0
C1363 C 0.76979 0.64107 0.91283 0.0
C1364 C 0.75166 0.62769 0.97685 0.0
C1365 C 0.76389 0.63293 0.01308 0.0
C1366 C 0.77967 0.64115 -0.0017 0.0
C1367 C 0.78262 0.64513 0.94866 0.0
H1368 H 0.13715 0.97496 0.89907 0.0
H1369 H 0.12216 0.02973 0.91466 0.0
H1370 H 0.14224 0.97951 0.81094 0.0
H1371 H 0.12589 0.03409 0.8265 0.0
H1372 H 0.13626 0.04126 0.66828 0.0
H1373 H 0.1425 0.03655 0.75579 0.0
H1374 H 0.12478 0.98236 0.74193 0.0
H1375 H 0.11993 0.98685 0.65422 0.0
C1376 C 0.13505 0.98799 0.88351 0.0
C1377 C 0.12917 1.00198 0.91334 0.0
C1378 C 0.13782 0.9906 0.833 0.0
C1379 C 0.13423 1.00711 0.81113 0.0
C1380 C 0.12912 0.02127 0.84177 0.0
C1381 C 0.12682 0.01877 0.89243 0.0
C1382 C 0.13409 0.02827 0.68405 0.0
C1383 C 0.12751 0.01444 0.65489 0.0
C1384 C 0.13753 0.02557 0.73421 0.0
C1385 C 0.13388 1.00914 0.75643 0.0
C1386 C 0.12806 0.99511 0.72635 0.0
C1387 C 0.12511 0.9977 0.67598 0.0
H1388 H 0.73883 0.37083 0.66056 0.0
H1389 H 0.79402 0.3848 0.64961 0.0
H1390 H 0.73506 0.37643 0.573 0.0
H1391 H 0.7901 0.39168 0.56215 0.0
H1392 H 0.78295 0.36999 0.40386 0.0
H1393 H 0.78725 0.37465 0.49174 0.0
H1394 H 0.73363 0.39429 0.50399 0.0
H1395 H 0.72908 0.38834 0.41628 0.0
C1396 C 0.75003 0.37566 0.63955 0.0
C1397 C 0.76676 0.3771 0.66138 0.0
C1398 C 0.74786 0.37905 0.58929 0.0
C1399 C 0.76233 0.38434 0.56009 0.0
C1400 C 0.77878 0.38715 0.58313 0.0
C1401 C 0.78103 0.38331 0.63321 0.0
C1402 C 0.77221 0.37559 0.42528 0.0
C1403 C 0.75562 0.37853 0.40377 0.0
C1404 C 0.77469 0.37843 0.47572 0.0
C1405 C 0.7607 0.38465 0.50537 0.0
C1406 C 0.74453 0.389 0.48266 0.0
C1407 C 0.74193 0.38571 0.43243 0.0
H1408 H 0.10631 0.42305 0.12284 0.0
H1409 H 0.15471 0.4375 0.04813 0.0
H1410 H 0.12298 0.40192 0.17418 0.0
H1411 H 0.1711 0.41676 0.09971 0.0
H1412 H 0.19006 0.40456 0.26469 0.0
H1413 H 0.16904 0.42064 0.21322 0.0
H1414 H 0.152 0.3718 0.14666 0.0
H1415 H 0.1734 0.35543 0.19788 0.0
C1416 C 0.12037 0.42147 0.11662 0.0
C1417 C 0.12918 0.43203 0.08149 0.0
C1418 C 0.12986 0.40941 0.14597 0.0
C1419 C 0.14826 0.40783 0.14075 0.0
C1420 C 0.1569 0.41776 0.10426 0.0
C1421 C 0.14747 0.42963 0.07477 0.0
C1422 C 0.18167 0.39711 0.23984 0.0
C1423 C 0.1835 0.37868 0.23529 0.0
C1424 C 0.16964 0.40636 0.21039 0.0
C1425 C 0.15898 0.39742 0.17616 0.0
C1426 C 0.16005 0.37893 0.17312 0.0
C1427 C 0.17228 0.36961 0.20239 0.0
H1428 H 0.91166 0.92095 0.4541 0.0
H1429 H 0.86288 0.94171 0.51376 0.0
H1430 H 0.89462 0.89936 0.40531 0.0
H1431 H 0.84616 0.92061 0.46467 0.0
H1432 H 0.82557 0.90224 0.31251 0.0
H1433 H 0.84602 0.91975 0.3617 0.0
H1434 H 0.8678 0.87221 0.42518 0.0
H1435 H 0.8469 0.85439 0.37628 0.0
C1436 C 0.8974 0.92074 0.45744 0.0
C1437 C 0.88865 0.93313 0.48769 0.0
C1438 C 0.88768 0.90841 0.42958 0.0
C1439 C 0.8691 0.90848 0.43105 0.0
C1440 C 0.86047 0.92037 0.46267 0.0
C1441 C 0.8701 0.93244 0.49088 0.0
C1442 C 0.83483 0.8954 0.33633 0.0
C1443 C 0.8345 0.87688 0.34061 0.0
C1444 C 0.84653 0.90547 0.36458 0.0
C1445 C 0.85839 0.89732 0.39733 0.0
C1446 C 0.85879 0.87877 0.4 0.0
C1447 C 0.84683 0.86862 0.37211 0.0
H1448 H 0.4135 0.59615 0.62066 0.0
H1449 H 0.36476 0.57627 0.5586 0.0
H1450 H 0.39645 0.61724 0.67111 0.0
H1451 H 0.34802 0.59692 0.60939 0.0
H1452 H 0.32893 0.61295 0.76735 0.0
H1453 H 0.34964 0.59636 0.71639 0.0
H1454 H 0.36792 0.64473 0.64959 0.0
H1455 H 0.34674 0.66162 0.70021 0.0
C1456 C 0.39924 0.59647 0.61709 0.0
C1457 C 0.3905 0.58445 0.58569 0.0
C1458 C 0.38953 0.60853 0.64592 0.0
C1459 C 0.37097 0.60857 0.64417 0.0
C1460 C 0.36233 0.59708 0.61144 0.0
C1461 C 0.37196 0.58528 0.58231 0.0
C1462 C 0.3375 0.62019 0.74247 0.0
C1463 C 0.33607 0.63865 0.7377 0.0
C1464 C 0.34935 0.61064 0.71325 0.0
C1465 C 0.36027 0.61928 0.67904 0.0
C1466 C 0.35964 0.63781 0.67591 0.0
C1467 C 0.34754 0.64743 0.70484 0.0
H1468 H 0.68808 0.11441 0.80363 0.0
H1469 H 0.67358 0.16359 0.87416 0.0
H1470 H 0.66649 0.09879 0.85432 0.0
H1471 H 0.65168 0.14768 0.92472 0.0
H1472 H 0.60454 0.09603 0.94172 0.0
H1473 H 0.62158 0.11711 0.89135 0.0
H1474 H 0.66882 0.10351 0.972 0.0
H1475 H 0.65205 0.08274 0.0225 0.0
C1476 C 0.68004 0.12198 0.82916 0.0
C1477 C 0.68264 0.14027 0.83494 0.0
C1478 C 0.66768 0.11299 0.85812 0.0
C1479 C 0.65748 0.12208 0.89314 0.0
C1480 C 0.65936 0.14047 0.89758 0.0
C1481 C 0.67187 0.14952 0.86869 0.0
C1482 C 0.61846 0.09788 0.94954 0.0
C1483 C 0.62694 0.08763 0.98601 0.0
C1484 C 0.62816 0.10992 0.92073 0.0
C1485 C 0.64644 0.11184 0.92804 0.0
C1486 C 0.65471 0.10227 0.96594 0.0
C1487 C 0.64507 0.09037 -0.00524 0.0
H1488 H 0.1931 0.61504 0.3139 0.0
H1489 H 0.17169 0.66385 0.37142 0.0
H1490 H 0.17177 0.59836 0.36244 0.0
H1491 H 0.14991 0.64684 0.41964 0.0
H1492 H 0.10554 0.59655 0.4429 0.0
H1493 H 0.12308 0.61799 0.39498 0.0
H1494 H 0.17037 0.60035 0.46909 0.0
H1495 H 0.15313 0.57938 0.51732 0.0
C1496 C 0.18364 0.62227 0.33615 0.0
C1497 C 0.18419 0.64082 0.33892 0.0
C1498 C 0.17143 0.61267 0.36399 0.0
C1499 C 0.15928 0.62134 0.39476 0.0
C1500 C 0.15914 0.6399 0.39593 0.0
C1501 C 0.17159 0.64959 0.36843 0.0
C1502 C 0.11961 0.59757 0.44976 0.0
C1503 C 0.12793 0.58616 0.48375 0.0
C1504 C 0.1296 0.60982 0.42237 0.0
C1505 C 0.14804 0.61067 0.4283 0.0
C1506 C 0.15617 0.59988 0.4638 0.0
C1507 C 0.14625 0.58787 0.49142 0.0
H1508 H 0.65475 0.9413 0.55243 0.0
H1509 H 0.60712 0.92318 0.62469 0.0
H1510 H 0.67225 0.92126 0.60303 0.0
H1511 H 0.62494 0.90266 0.67501 0.0
H1512 H 0.6736 0.85811 0.70505 0.0
H1513 H 0.65177 0.87454 0.65545 0.0
H1514 H 0.67377 0.92367 0.7075 0.0
H1515 H 0.69517 0.90754 0.75745 0.0
C1516 C 0.64793 0.93279 0.5784 0.0
C1517 C 0.62951 0.93396 0.5847 0.0
C1518 C 0.65801 0.92134 0.60743 0.0
C1519 C 0.64993 0.91056 0.64303 0.0
C1520 C 0.63143 0.91085 0.64763 0.0
C1521 C 0.62127 0.92257 0.61885 0.0
C1522 C 0.67352 0.87241 0.70663 0.0
C1523 C 0.68619 0.8815 0.73508 0.0
C1524 C 0.66103 0.88177 0.67834 0.0
C1525 C 0.66123 0.90033 0.67757 0.0
C1526 C 0.67342 0.90935 0.70737 0.0
C1527 C 0.68565 0.90008 0.73605 0.0
H1528 H 0.34165 0.39376 0.78141 0.0
H1529 H 0.3393 0.35461 0.89743 0.0
H1530 H 0.36293 0.41082 0.82988 0.0
H1531 H 0.36034 0.37195 0.9465 0.0
H1532 H 0.37012 0.42633 0.03431 0.0
H1533 H 0.35535 0.40349 0.98553 0.0
H1534 H 0.39457 0.40928 0.87074 0.0
H1535 H 0.40965 0.43189 0.92019 0.0
C1536 C 0.34598 0.38861 0.81682 0.0
C1537 C 0.33883 0.37284 0.83559 0.0
C1538 C 0.35819 0.39836 0.8445 0.0
C1539 C 0.36323 0.39274 0.89203 0.0
C1540 C 0.35664 0.37659 0.91 0.0
C1541 C 0.34471 0.36663 0.88179 0.0
C1542 C 0.37582 0.42244 -0.00083 0.0
C1543 C 0.39104 0.43089 0.98107 0.0
C1544 C 0.3674 0.40932 0.97134 0.0
C1545 C 0.3738 0.40463 0.92432 0.0
C1546 C 0.38936 0.41265 0.90687 0.0
C1547 C 0.39802 0.42551 0.93526 0.0
H1548 H 0.83159 0.1166 0.26525 0.0
H1549 H 0.84861 0.16552 0.19792 0.0
H1550 H 0.85265 0.10034 0.21458 0.0
H1551 H 0.87013 0.14895 0.14756 0.0
H1552 H 0.91611 0.09947 0.12132 0.0
H1553 H 0.89911 0.12063 0.17171 0.0
H1554 H 0.85081 0.10206 0.10508 0.0
H1555 H 0.8675 0.08134 0.0544 0.0
C1556 C 0.84007 0.12397 0.24044 0.0
C1557 C 0.83831 0.1424 0.2355 0.0
C1558 C 0.85213 0.1146 0.21142 0.0
C1559 C 0.86292 0.12341 0.17723 0.0
C1560 C 0.86197 0.14192 0.17393 0.0
C1561 C 0.84968 0.15135 0.20272 0.0
C1562 C 0.90191 0.10021 0.11663 0.0
C1563 C 0.89318 0.08864 0.08395 0.0
C1564 C 0.89222 0.1123 0.14542 0.0
C1565 C 0.87369 0.11284 0.14224 0.0
C1566 C 0.86509 0.10185 0.10816 0.0
C1567 C 0.8747 0.08999 0.07914 0.0
H1568 H 0.86735 0.58236 0.01824 0.0
H1569 H 0.91562 0.59727 0.94362 0.0
H1570 H 0.85089 0.60351 0.96815 0.0
H1571 H 0.89888 0.61878 0.89371 0.0
H1572 H 0.84745 0.66526 0.87537 0.0
H1573 H 0.86924 0.64872 0.92484 0.0
H1574 H 0.85333 0.60042 0.85318 0.0
H1575 H 0.8319 0.61668 0.80352 0.0
C1576 C 0.87455 0.59041 -0.00806 0.0
C1577 C 0.89282 0.58803 0.98481 0.0
C1578 C 0.86508 0.60252 0.96333 0.0
C1579 C 0.87366 0.61271 0.92729 0.0
C1580 C 0.89205 0.61112 0.92162 0.0
C1581 C 0.90158 0.59883 0.95016 0.0
C1582 C 0.84892 0.65119 0.86933 0.0
C1583 C 0.83785 0.64229 0.83563 0.0
C1584 C 0.86137 0.64177 0.8976 0.0
C1585 C 0.86286 0.62335 0.89264 0.0
C1586 C 0.85242 0.61463 0.85746 0.0
C1587 C 0.84014 0.62399 0.82909 0.0
H1588 H 0.14726 0.08879 0.53429 0.0
H1589 H 0.10784 0.08563 0.64944 0.0
H1590 H 0.16364 0.1106 0.58295 0.0
H1591 H 0.12452 0.10712 0.69871 0.0
H1592 H 0.17839 0.11959 0.78717 0.0
H1593 H 0.15645 0.10345 0.73842 0.0
H1594 H 0.16028 0.1426 0.62282 0.0
H1595 H 0.18193 0.15905 0.67224 0.0
C1596 C 0.14195 0.09298 0.56963 0.0
C1597 C 0.12626 0.08552 0.58801 0.0
C1598 C 0.15129 0.1055 0.5974 0.0
C1599 C 0.14537 0.11052 0.64465 0.0
C1600 C 0.12939 0.10347 0.66242 0.0
C1601 C 0.11981 0.09125 0.6341 0.0
C1602 C 0.17424 0.12497 0.75186 0.0
C1603 C 0.18186 0.14059 0.73355 0.0
C1604 C 0.16165 0.11576 0.72402 0.0
C1605 C 0.15671 0.12175 0.67677 0.0
C1606 C 0.16388 0.13768 0.65909 0.0
C1607 C 0.17618 0.14713 0.6875 0.0
H1608 H 0.67857 0.35787 0.38633 0.0
H1609 H 0.68649 0.40366 0.2934 0.0
H1610 H 0.65723 0.3747 0.43631 0.0
H1611 H 0.66512 0.42019 0.34303 0.0
H1612 H 0.65474 0.43731 0.52473 0.0
H1613 H 0.67084 0.41563 0.47507 0.0
H1614 H 0.62449 0.40706 0.38558 0.0
H1615 H 0.6081 0.42873 0.43557 0.0
C1616 C 0.67547 0.37133 0.37583 0.0
C1617 C 0.68428 0.37944 0.33595 0.0
C1618 C 0.6633 0.38092 0.40446 0.0
C1619 C 0.65958 0.39865 0.39317 0.0
C1620 C 0.66771 0.40648 0.35206 0.0
C1621 C 0.67995 0.397 0.32379 0.0
C1622 C 0.64781 0.43058 0.49517 0.0
C1623 C 0.63012 0.43479 0.48408 0.0
C1624 C 0.65704 0.41815 0.46688 0.0
C1625 C 0.64883 0.40971 0.42685 0.0
C1626 C 0.63101 0.41337 0.41659 0.0
C1627 C 0.62167 0.42573 0.44521 0.0
H1628 H 0.41341 0.92577 0.13475 0.0
H1629 H 0.36672 0.93439 0.04577 0.0
H1630 H 0.39692 0.90447 0.18566 0.0
H1631 H 0.35053 0.91309 0.09635 0.0
H1632 H 0.33442 0.90287 0.27744 0.0
H1633 H 0.3562 0.91863 0.22734 0.0
H1634 H 0.36393 0.87217 0.13777 0.0
H1635 H 0.34215 0.85613 0.18818 0.0
C1636 C 0.39982 0.92282 0.12525 0.0
C1637 C 0.39138 0.93182 0.08624 0.0
C1638 C 0.39043 0.91067 0.15443 0.0
C1639 C 0.37254 0.90719 0.14459 0.0
C1640 C 0.36436 0.91549 0.10425 0.0
C1641 C 0.37366 0.92769 0.07541 0.0
C1642 C 0.34103 0.89582 0.24785 0.0
C1643 C 0.3365 0.87823 0.23676 0.0
C1644 C 0.35351 0.90486 0.2193 0.0
C1645 C 0.3617 0.89655 0.17902 0.0
C1646 C 0.35783 0.87877 0.16898 0.0
C1647 C 0.3454 0.86963 0.19786 0.0
H1648 H 0.83161 0.40204 0.76945 0.0
H1649 H 0.84488 0.35459 0.68855 0.0
H1650 H 0.85264 0.41876 0.71951 0.0
H1651 H 0.86614 0.37157 0.63869 0.0
H1652 H 0.91297 0.42429 0.62693 0.0
H1653 H 0.89667 0.40255 0.67698 0.0
H1654 H 0.84878 0.41536 0.59837 0.0
H1655 H 0.86482 0.43686 0.54827 0.0
C1656 C 0.83927 0.39507 0.74177 0.0
C1657 C 0.83649 0.37696 0.73293 0.0
C1658 C 0.85131 0.40468 0.71327 0.0
C1659 C 0.86096 0.3964 0.67556 0.0
C1660 C 0.8589 0.37816 0.66794 0.0
C1661 C 0.84676 0.36849 0.69647 0.0
C1662 C 0.89906 0.42217 0.61955 0.0
C1663 C 0.8902 0.43237 0.58367 0.0
C1664 C 0.88978 0.40976 0.64819 0.0
C1665 C 0.87154 0.40736 0.64125 0.0
C1666 C 0.86287 0.41696 0.60411 0.0
C1667 C 0.87209 0.42927 0.57551 0.0
H1668 H 0.41014 0.08676 0.42108 0.0
H1669 H 0.37153 0.09077 0.53814 0.0
H1670 H 0.39319 0.1081 0.37177 0.0
H1671 H 0.3549 0.11241 0.48947 0.0
H1672 H 0.33667 0.16086 0.39964 0.0
H1673 H 0.3584 0.14424 0.44835 0.0
H1674 H 0.36072 0.10451 0.33406 0.0
H1675 H 0.33866 0.12084 0.28597 0.0
C1676 C 0.39832 0.09257 0.43684 0.0
C1677 C 0.39217 0.08713 0.48352 0.0
C1678 C 0.38857 0.10467 0.40848 0.0
C1679 C 0.37274 0.11189 0.42681 0.0
C1680 C 0.36713 0.10717 0.47459 0.0
C1681 C 0.37663 0.09477 0.50239 0.0
C1682 C 0.34208 0.14876 0.38448 0.0
C1683 C 0.33597 0.14215 0.33896 0.0
C1684 C 0.35444 0.13922 0.41249 0.0
C1685 C 0.36124 0.1231 0.39496 0.0
C1686 C 0.35581 0.11697 0.34828 0.0
C1687 C 0.34316 0.12629 0.32084 0.0
H1688 H 0.65018 0.57923 0.05152 0.0
H1689 H 0.60279 0.59651 0.12669 0.0
H1690 H 0.66767 0.59969 0.10096 0.0
H1691 H 0.62057 0.61735 0.17584 0.0
H1692 H 0.67209 0.66162 0.19996 0.0
H1693 H 0.65011 0.64599 0.14882 0.0
H1694 H 0.66655 0.59642 0.21254 0.0
H1695 H 0.68808 0.61174 0.26391 0.0
C1696 C 0.6434 0.58767 0.07775 0.0
C1697 C 0.62506 0.58612 0.08534 0.0
C1698 C 0.65346 0.59939 0.10601 0.0
C1699 C 0.64543 0.61002 0.14206 0.0
C1700 C 0.62699 0.60933 0.14792 0.0
C1701 C 0.61687 0.59741 0.11984 0.0
C1702 C 0.67074 0.64744 0.20376 0.0
C1703 C 0.6819 0.63794 0.23596 0.0
C1704 C 0.65818 0.63854 0.17455 0.0
C1705 C 0.65676 0.62005 0.17685 0.0
C1706 C 0.66743 0.61069 0.2102 0.0
C1707 C 0.67975 0.61952 0.23962 0.0
H1708 H 0.17711 0.89487 0.78374 0.0
H1709 H 0.18017 0.85549 0.899 0.0
H1710 H 0.15537 0.91136 0.83228 0.0
H1711 H 0.15867 0.87226 0.94816 0.0
H1712 H 0.1471 0.9262 0.03672 0.0
H1713 H 0.16256 0.90376 0.98811 0.0
H1714 H 0.12368 0.90896 0.87217 0.0
H1715 H 0.1079 0.93118 0.92145 0.0
C1716 C 0.17287 0.88957 0.81903 0.0
C1717 C 0.18032 0.87388 0.83752 0.0
C1718 C 0.16038 0.89898 0.84674 0.0
C1719 C 0.15536 0.89312 0.89405 0.0
C1720 C 0.16233 0.87709 0.91183 0.0
C1721 C 0.17453 0.86745 0.88357 0.0
C1722 C 0.14161 0.92225 0.00138 0.0
C1723 C 0.12629 0.93044 0.9829 0.0
C1724 C 0.15043 0.90936 0.97363 0.0
C1725 C 0.14435 0.90465 0.9263 0.0
C1726 C 0.12866 0.91237 0.90852 0.0
C1727 C 0.11959 0.92499 0.93683 0.0
loop_
_geom_bond_atom_site_label_1
_geom_bond_atom_site_label_2
_geom_bond_distance
_geom_bond_site_symmetry_2
_ccdc_geom_bond_type
Co0 O1 2.216 . S
Co0 O2 2.091 . S
Co0 O4 2.004 . S
Co0 O10 2.021 . S
Co0 O12 2.137 1_554 S
Co0 O13 2.244 . S
O1 Co0 2.216 . S
O1 C8 1.247 . S
O2 Co0 2.091 . S
O2 C8 1.261 . S
C3 O12 1.247 . S
C3 O13 1.272 1_556 S
O4 Co0 2.004 . S
O4 C9 1.259 . S
Co5 O6 2.061 . S
Co5 O11 2.052 . S
Co5 O13 2.135 . S
O6 Co5 2.061 . S
O6 C9 1.235 . S
C7 O10 1.238 . S
C7 O11 1.241 . S
C8 O1 1.247 . S
C8 O2 1.261 . S
C9 O4 1.259 . S
C9 O6 1.235 . S
O10 Co0 2.021 . S
O10 C7 1.238 . S
O11 Co5 2.052 . S
O11 C7 1.241 . S
O12 Co0 2.137 1_556 S
O12 C3 1.247 . S
O13 Co0 2.244 . S
O13 C3 1.272 1_554 S
O13 Co5 2.135 . S
Co14 O15 2.216 . S
Co14 O16 2.091 . S
Co14 O18 2.004 . S
Co14 O24 2.021 . S
Co14 O26 2.137 . S
Co14 O27 2.244 . S
O15 Co14 2.216 . S
O15 C22 1.247 . S
O16 Co14 2.091 . S
O16 C22 1.261 . S
C17 O26 1.247 . S
C17 O27 1.272 . S
O18 Co14 2.004 . S
O18 C23 1.259 . S
Co19 O20 2.061 . S
Co19 O25 2.052 . S
Co19 O27 2.135 . S
O20 Co19 2.061 . S
O20 C23 1.235 . S
C21 O24 1.238 . S
C21 O25 1.241 . S
C22 O15 1.247 . S
C22 O16 1.261 . S
C23 O18 1.259 . S
C23 O20 1.235 . S
O24 Co14 2.021 . S
O24 C21 1.238 . S
O25 Co19 2.052 . S
O25 C21 1.241 . S
O26 Co14 2.137 . S
O26 C17 1.247 . S
O27 Co14 2.244 . S
O27 C17 1.272 . S
O27 Co19 2.135 . S
Co28 O29 2.216 . S
Co28 O30 2.091 . S
Co28 O32 2.004 . S
Co28 O38 2.021 . S
Co28 O40 2.137 . S
Co28 O41 2.244 . S
O29 Co28 2.216 . S
O29 C36 1.247 . S
O30 Co28 2.091 . S
O30 C36 1.261 . S
C31 O40 1.247 . S
C31 O41 1.272 . S
O32 Co28 2.004 . S
O32 C37 1.259 . S
Co33 O34 2.061 . S
Co33 O39 2.052 . S
Co33 O41 2.135 . S
O34 Co33 2.061 . S
O34 C37 1.235 . S
C35 O38 1.238 . S
C35 O39 1.241 . S
C36 O29 1.247 . S
C36 O30 1.261 . S
C37 O32 1.259 . S
C37 O34 1.235 . S
O38 Co28 2.021 . S
O38 C35 1.238 . S
O39 Co33 2.052 . S
O39 C35 1.241 . S
O40 Co28 2.137 . S
O40 C31 1.247 . S
O41 Co28 2.244 . S
O41 C31 1.272 . S
O41 Co33 2.135 . S
Co42 O43 2.216 . S
Co42 O44 2.091 . S
Co42 O46 2.004 . S
Co42 O52 2.021 . S
Co42 O54 2.137 . S
Co42 O55 2.244 . S
O43 Co42 2.216 . S
O43 C50 1.247 . S
O44 Co42 2.091 . S
O44 C50 1.261 . S
C45 O54 1.247 . S
C45 O55 1.272 . S
O46 Co42 2.004 . S
O46 C51 1.259 . S
Co47 O48 2.061 . S
Co47 O53 2.052 . S
Co47 O55 2.135 . S
O48 Co47 2.061 . S
O48 C51 1.235 . S
C49 O52 1.238 . S
C49 O53 1.241 . S
C50 O43 1.247 . S
C50 O44 1.261 . S
C51 O46 1.259 . S
C51 O48 1.235 . S
O52 Co42 2.021 . S
O52 C49 1.238 . S
O53 Co47 2.052 . S
O53 C49 1.241 . S
O54 Co42 2.137 . S
O54 C45 1.247 . S
O55 Co42 2.244 . S
O55 C45 1.272 . S
O55 Co47 2.135 . S
Co56 O57 2.216 . S
Co56 O58 2.091 . S
Co56 O60 2.004 . S
Co56 O66 2.021 . S
Co56 O68 2.137 . S
Co56 O69 2.244 . S
O57 Co56 2.216 . S
O57 C64 1.247 . S
O58 Co56 2.091 . S
O58 C64 1.261 . S
C59 O68 1.247 . S
C59 O69 1.272 . S
O60 Co56 2.004 . S
O60 C65 1.259 . S
Co61 O62 2.061 . S
Co61 O67 2.052 . S
Co61 O69 2.135 . S
O62 Co61 2.061 . S
O62 C65 1.235 . S
C63 O66 1.238 . S
C63 O67 1.241 . S
C64 O57 1.247 . S
C64 O58 1.261 . S
C65 O60 1.259 . S
C65 O62 1.235 . S
O66 Co56 2.021 . S
O66 C63 1.238 . S
O67 Co61 2.052 . S
O67 C63 1.241 . S
O68 Co56 2.137 . S
O68 C59 1.247 . S
O69 Co56 2.244 . S
O69 C59 1.272 . S
O69 Co61 2.135 . S
Co70 O71 2.216 . S
Co70 O72 2.091 . S
Co70 O74 2.004 . S
Co70 O80 2.021 . S
Co70 O82 2.137 . S
Co70 O83 2.244 . S
O71 Co70 2.216 . S
O71 C78 1.247 . S
O72 Co70 2.091 . S
O72 C78 1.261 . S
C73 O82 1.247 . S
C73 O83 1.272 . S
O74 Co70 2.004 . S
O74 C79 1.259 . S
Co75 O76 2.061 . S
Co75 O81 2.052 . S
Co75 O83 2.135 . S
O76 Co75 2.061 . S
O76 C79 1.235 . S
C77 O80 1.238 . S
C77 O81 1.241 . S
C78 O71 1.247 . S
C78 O72 1.261 . S
C79 O74 1.259 . S
C79 O76 1.235 . S
O80 Co70 2.021 . S
O80 C77 1.238 . S
O81 Co75 2.052 . S
O81 C77 1.241 . S
O82 Co70 2.137 . S
O82 C73 1.247 . S
O83 Co70 2.244 . S
O83 C73 1.272 . S
O83 Co75 2.135 . S
Co84 O85 2.216 . S
Co84 O86 2.091 . S
Co84 O88 2.004 . S
Co84 O94 2.021 1_554 S
Co84 O96 2.137 . S
Co84 O97 2.244 . S
O85 Co84 2.216 . S
O85 C92 1.247 . S
O86 Co84 2.091 . S
O86 C92 1.261 . S
C87 O96 1.247 . S
C87 O97 1.272 . S
O88 Co84 2.004 . S
O88 C93 1.259 . S
Co89 O90 2.061 . S
Co89 O95 2.052 1_554 S
Co89 O97 2.135 . S
O90 Co89 2.061 . S
O90 C93 1.235 . S
C91 O94 1.238 . S
C91 O95 1.241 . S
C92 O85 1.247 . S
C92 O86 1.261 . S
C93 O88 1.259 . S
C93 O90 1.235 . S
O94 Co84 2.021 1_556 S
O94 C91 1.238 . S
O95 Co89 2.052 1_556 S
O95 C91 1.241 . S
O96 Co84 2.137 . S
O96 C87 1.247 . S
O97 Co84 2.244 . S
O97 C87 1.272 . S
O97 Co89 2.135 . S
Co98 O99 2.216 . S
Co98 O100 2.091 . S
Co98 O102 2.004 . S
Co98 O108 2.021 . S
Co98 O110 2.137 . S
Co98 O111 2.244 . S
O99 Co98 2.216 . S
O99 C106 1.247 . S
O100 Co98 2.091 . S
O100 C106 1.261 . S
C101 O110 1.247 . S
C101 O111 1.272 . S
O102 Co98 2.004 . S
O102 C107 1.259 . S
Co103 O104 2.061 . S
Co103 O109 2.052 . S
Co103 O111 2.135 . S
O104 Co103 2.061 . S
O104 C107 1.235 . S
C105 O108 1.238 . S
C105 O109 1.241 . S
C106 O99 1.247 . S
C106 O100 1.261 . S
C107 O102 1.259 . S
C107 O104 1.235 . S
O108 Co98 2.021 . S
O108 C105 1.238 . S
O109 Co103 2.052 . S
O109 C105 1.241 . S
O110 Co98 2.137 . S
O110 C101 1.247 . S
O111 Co98 2.244 . S
O111 C101 1.272 . S
O111 Co103 2.135 . S
Co112 O113 2.216 . S
Co112 O114 2.091 . S
Co112 O116 2.004 . S
Co112 O122 2.021 1_554 S
Co112 O124 2.137 . S
Co112 O125 2.244 . S
O113 Co112 2.216 . S
O113 C120 1.247 . S
O114 Co112 2.091 . S
O114 C120 1.261 . S
C115 O124 1.247 . S
C115 O125 1.272 . S
O116 Co112 2.004 . S
O116 C121 1.259 . S
Co117 O118 2.061 . S
Co117 O123 2.052 1_554 S
Co117 O125 2.135 . S
O118 Co117 2.061 . S
O118 C121 1.235 . S
C119 O122 1.238 . S
C119 O123 1.241 . S
C120 O113 1.247 . S
C120 O114 1.261 . S
C121 O116 1.259 . S
C121 O118 1.235 . S
O122 Co112 2.021 1_556 S
O122 C119 1.238 . S
O123 Co117 2.052 1_556 S
O123 C119 1.241 . S
O124 Co112 2.137 . S
O124 C115 1.247 . S
O125 Co112 2.244 . S
O125 C115 1.272 . S
O125 Co117 2.135 . S
Co126 O127 2.216 . S
Co126 O128 2.091 . S
Co126 O130 2.004 . S
Co126 O136 2.021 . S
Co126 O138 2.137 . S
Co126 O139 2.244 . S
O127 Co126 2.216 . S
O127 C134 1.247 . S
O128 Co126 2.091 . S
O128 C134 1.261 . S
C129 O138 1.247 . S
C129 O139 1.272 . S
O130 Co126 2.004 . S
O130 C135 1.259 . S
Co131 O132 2.061 . S
Co131 O137 2.052 . S
Co131 O139 2.135 . S
O132 Co131 2.061 . S
O132 C135 1.235 . S
C133 O136 1.238 . S
C133 O137 1.241 . S
C134 O127 1.247 . S
C134 O128 1.261 . S
C135 O130 1.259 . S
C135 O132 1.235 . S
O136 Co126 2.021 . S
O136 C133 1.238 . S
O137 Co131 2.052 . S
O137 C133 1.241 . S
O138 Co126 2.137 . S
O138 C129 1.247 . S
O139 Co126 2.244 . S
O139 C129 1.272 . S
O139 Co131 2.135 . S
Co140 O141 2.216 . S
Co140 O142 2.091 . S
Co140 O144 2.004 . S
Co140 O150 2.021 . S
Co140 O152 2.137 . S
Co140 O153 2.244 . S
O141 Co140 2.216 . S
O141 C148 1.247 . S
O142 Co140 2.091 . S
O142 C148 1.261 . S
C143 O152 1.247 . S
C143 O153 1.272 . S
O144 Co140 2.004 . S
O144 C149 1.259 . S
Co145 O146 2.061 . S
Co145 O151 2.052 . S
Co145 O153 2.135 . S
O146 Co145 2.061 . S
O146 C149 1.235 . S
C147 O150 1.238 . S
C147 O151 1.241 . S
C148 O141 1.247 . S
C148 O142 1.261 . S
C149 O144 1.259 . S
C149 O146 1.235 . S
O150 Co140 2.021 . S
O150 C147 1.238 . S
O151 Co145 2.052 . S
O151 C147 1.241 . S
O152 Co140 2.137 . S
O152 C143 1.247 . S
O153 Co140 2.244 . S
O153 C143 1.272 . S
O153 Co145 2.135 . S
Co154 O155 2.216 . S
Co154 O156 2.091 . S
Co154 O158 2.004 . S
Co154 O164 2.021 . S
Co154 O166 2.137 . S
Co154 O167 2.244 . S
O155 Co154 2.216 . S
O155 C162 1.247 . S
O156 Co154 2.091 . S
O156 C162 1.261 . S
C157 O166 1.247 . S
C157 O167 1.272 . S
O158 Co154 2.004 . S
O158 C163 1.259 . S
Co159 O160 2.061 . S
Co159 O165 2.052 . S
Co159 O167 2.135 . S
O160 Co159 2.061 . S
O160 C163 1.235 . S
C161 O164 1.238 . S
C161 O165 1.241 . S
C162 O155 1.247 . S
C162 O156 1.261 . S
C163 O158 1.259 . S
C163 O160 1.235 . S
O164 Co154 2.021 . S
O164 C161 1.238 . S
O165 Co159 2.052 . S
O165 C161 1.241 . S
O166 Co154 2.137 . S
O166 C157 1.247 . S
O167 Co154 2.244 . S
O167 C157 1.272 . S
O167 Co159 2.135 . S
Co168 O169 2.216 . S
Co168 O170 2.091 . S
Co168 O172 2.004 . S
Co168 O178 2.021 . S
Co168 O180 2.137 . S
Co168 O181 2.244 . S
O169 Co168 2.216 . S
O169 C176 1.247 . S
O170 Co168 2.091 . S
O170 C176 1.261 . S
C171 O180 1.247 . S
C171 O181 1.272 . S
O172 Co168 2.004 . S
O172 C177 1.259 . S
Co173 O174 2.061 . S
Co173 O179 2.052 . S
Co173 O181 2.135 . S
O174 Co173 2.061 . S
O174 C177 1.235 . S
C175 O178 1.238 . S
C175 O179 1.241 . S
C176 O169 1.247 . S
C176 O170 1.261 . S
C177 O172 1.259 . S
C177 O174 1.235 . S
O178 Co168 2.021 . S
O178 C175 1.238 . S
O179 Co173 2.052 . S
O179 C175 1.241 . S
O180 Co168 2.137 . S
O180 C171 1.247 . S
O181 Co168 2.244 . S
O181 C171 1.272 . S
O181 Co173 2.135 . S
Co182 O183 2.216 . S
Co182 O184 2.091 . S
Co182 O186 2.004 . S
Co182 O192 2.021 . S
Co182 O194 2.137 . S
Co182 O195 2.244 . S
O183 Co182 2.216 . S
O183 C190 1.247 . S
O184 Co182 2.091 . S
O184 C190 1.261 . S
C185 O194 1.247 . S
C185 O195 1.272 . S
O186 Co182 2.004 . S
O186 C191 1.259 . S
Co187 O188 2.061 . S
Co187 O193 2.052 . S
Co187 O195 2.135 . S
O188 Co187 2.061 . S
O188 C191 1.235 . S
C189 O192 1.238 . S
C189 O193 1.241 . S
C190 O183 1.247 . S
C190 O184 1.261 . S
C191 O186 1.259 . S
C191 O188 1.235 . S
O192 Co182 2.021 . S
O192 C189 1.238 . S
O193 Co187 2.052 . S
O193 C189 1.241 . S
O194 Co182 2.137 . S
O194 C185 1.247 . S
O195 Co182 2.244 . S
O195 C185 1.272 . S
O195 Co187 2.135 . S
Co196 O197 2.216 . S
Co196 O198 2.091 . S
Co196 O200 2.004 . S
Co196 O206 2.021 . S
Co196 O208 2.137 1_554 S
Co196 O209 2.244 . S
O197 Co196 2.216 . S
O197 C204 1.247 . S
O198 Co196 2.091 . S
O198 C204 1.261 . S
C199 O208 1.247 . S
C199 O209 1.272 1_556 S
O200 Co196 2.004 . S
O200 C205 1.259 . S
Co201 O202 2.061 . S
Co201 O207 2.052 . S
Co201 O209 2.135 . S
O202 Co201 2.061 . S
O202 C205 1.235 . S
C203 O206 1.238 . S
C203 O207 1.241 . S
C204 O197 1.247 . S
C204 O198 1.261 . S
C205 O200 1.259 . S
C205 O202 1.235 . S
O206 Co196 2.021 . S
O206 C203 1.238 . S
O207 Co201 2.052 . S
O207 C203 1.241 . S
O208 Co196 2.137 1_556 S
O208 C199 1.247 . S
O209 Co196 2.244 . S
O209 C199 1.272 1_554 S
O209 Co201 2.135 . S
Co210 O211 2.216 . S
Co210 O212 2.091 . S
Co210 O214 2.004 . S
Co210 O220 2.021 . S
Co210 O222 2.137 . S
Co210 O223 2.244 . S
O211 Co210 2.216 . S
O211 C218 1.247 . S
O212 Co210 2.091 . S
O212 C218 1.261 . S
C213 O222 1.247 . S
C213 O223 1.272 . S
O214 Co210 2.004 . S
O214 C219 1.259 . S
Co215 O216 2.061 . S
Co215 O221 2.052 . S
Co215 O223 2.135 . S
O216 Co215 2.061 . S
O216 C219 1.235 . S
C217 O220 1.238 . S
C217 O221 1.241 . S
C218 O211 1.247 . S
C218 O212 1.261 . S
C219 O214 1.259 . S
C219 O216 1.235 . S
O220 Co210 2.021 . S
O220 C217 1.238 . S
O221 Co215 2.052 . S
O221 C217 1.241 . S
O222 Co210 2.137 . S
O222 C213 1.247 . S
O223 Co210 2.244 . S
O223 C213 1.272 . S
O223 Co215 2.135 . S
Co224 O225 2.216 . S
Co224 O226 2.091 . S
Co224 O228 2.004 . S
Co224 O234 2.021 . S
Co224 O236 2.137 . S
Co224 O237 2.244 . S
O225 Co224 2.216 . S
O225 C232 1.247 . S
O226 Co224 2.091 . S
O226 C232 1.261 . S
C227 O236 1.247 . S
C227 O237 1.272 . S
O228 Co224 2.004 . S
O228 C233 1.259 . S
Co229 O230 2.060 1_545 S
Co229 O235 2.052 . S
Co229 O237 2.135 1_545 S
O230 Co229 2.060 1_565 S
O230 C233 1.237 . S
C231 O234 1.238 . S
C231 O235 1.241 1_565 S
C232 O225 1.247 . S
C232 O226 1.261 . S
C233 O228 1.259 . S
C233 O230 1.237 . S
O234 Co224 2.021 . S
O234 C231 1.238 . S
O235 Co229 2.052 . S
O235 C231 1.241 1_545 S
O236 Co224 2.137 . S
O236 C227 1.247 . S
O237 Co224 2.244 . S
O237 C227 1.272 . S
O237 Co229 2.135 1_565 S
Co238 O239 2.216 . S
Co238 O240 2.091 . S
Co238 O242 2.004 . S
Co238 O248 2.021 . S
Co238 O250 2.137 . S
Co238 O251 2.244 . S
O239 Co238 2.216 . S
O239 C246 1.247 . S
O240 Co238 2.091 . S
O240 C246 1.261 . S
C241 O250 1.247 . S
C241 O251 1.272 . S
O242 Co238 2.004 . S
O242 C247 1.259 . S
Co243 O244 2.061 . S
Co243 O249 2.052 . S
Co243 O251 2.135 . S
O244 Co243 2.061 . S
O244 C247 1.235 . S
C245 O248 1.238 . S
C245 O249 1.241 . S
C246 O239 1.247 . S
C246 O240 1.261 . S
C247 O242 1.259 . S
C247 O244 1.235 . S
O248 Co238 2.021 . S
O248 C245 1.238 . S
O249 Co243 2.052 . S
O249 C245 1.241 . S
O250 Co238 2.137 . S
O250 C241 1.247 . S
O251 Co238 2.244 . S
O251 C241 1.272 . S
O251 Co243 2.135 . S
Co252 O253 2.216 . S
Co252 O254 2.091 . S
Co252 O256 2.004 . S
Co252 O262 2.021 . S
Co252 O264 2.137 1_554 S
Co252 O265 2.244 . S
O253 Co252 2.216 . S
O253 C260 1.247 . S
O254 Co252 2.091 . S
O254 C260 1.261 . S
C255 O264 1.247 . S
C255 O265 1.272 1_556 S
O256 Co252 2.004 . S
O256 C261 1.259 . S
Co257 O258 2.060 1_565 S
Co257 O263 2.052 . S
Co257 O265 2.135 1_565 S
O258 Co257 2.060 1_545 S
O258 C261 1.236 . S
C259 O262 1.238 . S
C259 O263 1.241 1_545 S
C260 O253 1.247 . S
C260 O254 1.261 . S
C261 O256 1.259 . S
C261 O258 1.236 . S
O262 Co252 2.021 . S
O262 C259 1.238 . S
O263 Co257 2.052 . S
O263 C259 1.241 1_565 S
O264 Co252 2.137 1_556 S
O264 C255 1.247 . S
O265 Co252 2.244 . S
O265 C255 1.272 1_554 S
O265 Co257 2.135 1_545 S
Co266 O267 2.216 . S
Co266 O268 2.091 . S
Co266 O270 2.004 . S
Co266 O276 2.021 . S
Co266 O278 2.137 . S
Co266 O279 2.244 . S
O267 Co266 2.216 . S
O267 C274 1.247 . S
O268 Co266 2.091 . S
O268 C274 1.261 . S
C269 O278 1.247 . S
C269 O279 1.272 . S
O270 Co266 2.004 . S
O270 C275 1.259 . S
Co271 O272 2.061 . S
Co271 O277 2.052 . S
Co271 O279 2.135 . S
O272 Co271 2.061 . S
O272 C275 1.235 . S
C273 O276 1.238 . S
C273 O277 1.241 . S
C274 O267 1.247 . S
C274 O268 1.261 . S
C275 O270 1.259 . S
C275 O272 1.235 . S
O276 Co266 2.021 . S
O276 C273 1.238 . S
O277 Co271 2.052 . S
O277 C273 1.241 . S
O278 Co266 2.137 . S
O278 C269 1.247 . S
O279 Co266 2.244 . S
O279 C269 1.272 . S
O279 Co271 2.135 . S
Co280 O281 2.216 . S
Co280 O282 2.091 . S
Co280 O284 2.004 . S
Co280 O290 2.021 1_554 S
Co280 O292 2.137 . S
Co280 O293 2.244 . S
O281 Co280 2.216 . S
O281 C288 1.247 . S
O282 Co280 2.091 . S
O282 C288 1.261 . S
C283 O292 1.247 . S
C283 O293 1.272 . S
O284 Co280 2.004 . S
O284 C289 1.259 . S
Co285 O286 2.059 1_565 S
Co285 O291 2.052 1_554 S
Co285 O293 2.135 1_565 S
O286 Co285 2.059 1_545 S
O286 C289 1.239 . S
C287 O290 1.238 . S
C287 O291 1.241 1_545 S
C288 O281 1.247 . S
C288 O282 1.261 . S
C289 O284 1.259 . S
C289 O286 1.239 . S
O290 Co280 2.021 1_556 S
O290 C287 1.238 . S
O291 Co285 2.052 1_556 S
O291 C287 1.241 1_565 S
O292 Co280 2.137 . S
O292 C283 1.247 . S
O293 Co280 2.244 . S
O293 C283 1.272 . S
O293 Co285 2.135 1_545 S
Co294 O295 2.216 . S
Co294 O296 2.091 . S
Co294 O298 2.004 . S
Co294 O304 2.021 . S
Co294 O306 2.137 . S
Co294 O307 2.244 . S
O295 Co294 2.216 . S
O295 C302 1.247 . S
O296 Co294 2.091 . S
O296 C302 1.261 . S
C297 O306 1.247 . S
C297 O307 1.272 . S
O298 Co294 2.004 . S
O298 C303 1.259 . S
Co299 O300 2.061 . S
Co299 O305 2.052 . S
Co299 O307 2.135 . S
O300 Co299 2.061 . S
O300 C303 1.235 . S
C301 O304 1.238 . S
C301 O305 1.241 . S
C302 O295 1.247 . S
C302 O296 1.261 . S
C303 O298 1.259 . S
C303 O300 1.235 . S
O304 Co294 2.021 . S
O304 C301 1.238 . S
O305 Co299 2.052 . S
O305 C301 1.241 . S
O306 Co294 2.137 . S
O306 C297 1.247 . S
O307 Co294 2.244 . S
O307 C297 1.272 . S
O307 Co299 2.135 . S
Co308 O309 2.216 . S
Co308 O310 2.091 . S
Co308 O312 2.004 . S
Co308 O318 2.021 . S
Co308 O320 2.137 . S
Co308 O321 2.244 . S
O309 Co308 2.216 . S
O309 C316 1.247 . S
O310 Co308 2.091 . S
O310 C316 1.261 . S
C311 O320 1.247 . S
C311 O321 1.272 . S
O312 Co308 2.004 . S
O312 C317 1.259 . S
Co313 O314 2.058 1_545 S
Co313 O319 2.052 . S
Co313 O321 2.135 1_545 S
O314 Co313 2.058 1_565 S
O314 C317 1.239 . S
C315 O318 1.238 . S
C315 O319 1.241 1_565 S
C316 O309 1.247 . S
C316 O310 1.261 . S
C317 O312 1.259 . S
C317 O314 1.239 . S
O318 Co308 2.021 . S
O318 C315 1.238 . S
O319 Co313 2.052 . S
O319 C315 1.241 1_545 S
O320 Co308 2.137 . S
O320 C311 1.247 . S
O321 Co308 2.244 . S
O321 C311 1.272 . S
O321 Co313 2.135 1_565 S
Co322 O323 2.216 . S
Co322 O324 2.091 . S
Co322 O326 2.004 . S
Co322 O332 2.021 . S
Co322 O334 2.137 . S
Co322 O335 2.244 . S
O323 Co322 2.216 . S
O323 C330 1.247 . S
O324 Co322 2.091 . S
O324 C330 1.261 . S
C325 O334 1.247 . S
C325 O335 1.272 . S
O326 Co322 2.004 . S
O326 C331 1.259 . S
Co327 O328 2.061 . S
Co327 O333 2.052 . S
Co327 O335 2.135 . S
O328 Co327 2.061 . S
O328 C331 1.235 . S
C329 O332 1.238 . S
C329 O333 1.241 . S
C330 O323 1.247 . S
C330 O324 1.261 . S
C331 O326 1.259 . S
C331 O328 1.235 . S
O332 Co322 2.021 . S
O332 C329 1.238 . S
O333 Co327 2.052 . S
O333 C329 1.241 . S
O334 Co322 2.137 . S
O334 C325 1.247 . S
O335 Co322 2.244 . S
O335 C325 1.272 . S
O335 Co327 2.135 . S
Co336 O337 2.216 . S
Co336 O338 2.091 . S
Co336 O340 2.004 . S
Co336 O346 2.021 . S
Co336 O348 2.137 . S
Co336 O349 2.244 . S
O337 Co336 2.216 . S
O337 C344 1.247 . S
O338 Co336 2.091 . S
O338 C344 1.261 . S
C339 O348 1.247 . S
C339 O349 1.272 . S
O340 Co336 2.004 . S
O340 C345 1.259 . S
Co341 O342 2.058 1_565 S
Co341 O347 2.052 . S
Co341 O349 2.135 1_565 S
O342 Co341 2.058 1_545 S
O342 C345 1.239 . S
C343 O346 1.238 . S
C343 O347 1.241 1_545 S
C344 O337 1.247 . S
C344 O338 1.261 . S
C345 O340 1.259 . S
C345 O342 1.239 . S
O346 Co336 2.021 . S
O346 C343 1.238 . S
O347 Co341 2.052 . S
O347 C343 1.241 1_565 S
O348 Co336 2.137 . S
O348 C339 1.247 . S
O349 Co336 2.244 . S
O349 C339 1.272 . S
O349 Co341 2.135 1_545 S
Co350 O351 2.216 . S
Co350 O352 2.091 . S
Co350 O354 2.004 . S
Co350 O360 2.021 . S
Co350 O362 2.137 . S
Co350 O363 2.244 . S
O351 Co350 2.216 . S
O351 C358 1.247 . S
O352 Co350 2.091 . S
O352 C358 1.261 . S
C353 O362 1.247 . S
C353 O363 1.272 . S
O354 Co350 2.004 . S
O354 C359 1.259 . S
Co355 O356 2.061 . S
Co355 O361 2.052 . S
Co355 O363 2.135 . S
O356 Co355 2.061 . S
O356 C359 1.235 . S
C357 O360 1.238 . S
C357 O361 1.241 . S
C358 O351 1.247 . S
C358 O352 1.261 . S
C359 O354 1.259 . S
C359 O356 1.235 . S
O360 Co350 2.021 . S
O360 C357 1.238 . S
O361 Co355 2.052 . S
O361 C357 1.241 . S
O362 Co350 2.137 . S
O362 C353 1.247 . S
O363 Co350 2.244 . S
O363 C353 1.272 . S
O363 Co355 2.135 . S
Co364 O365 2.216 . S
Co364 O366 2.091 . S
Co364 O368 2.004 . S
Co364 O374 2.021 1_554 S
Co364 O376 2.137 . S
Co364 O377 2.244 . S
O365 Co364 2.216 . S
O365 C372 1.247 . S
O366 Co364 2.091 . S
O366 C372 1.261 . S
C367 O376 1.247 . S
C367 O377 1.272 . S
O368 Co364 2.004 . S
O368 C373 1.259 . S
Co369 O370 2.059 1_545 S
Co369 O375 2.052 1_554 S
Co369 O377 2.135 1_545 S
O370 Co369 2.059 1_565 S
O370 C373 1.239 . S
C371 O374 1.238 . S
C371 O375 1.241 1_565 S
C372 O365 1.247 . S
C372 O366 1.261 . S
C373 O368 1.259 . S
C373 O370 1.239 . S
O374 Co364 2.021 1_556 S
O374 C371 1.238 . S
O375 Co369 2.052 1_556 S
O375 C371 1.241 1_545 S
O376 Co364 2.137 . S
O376 C367 1.247 . S
O377 Co364 2.244 . S
O377 C367 1.272 . S
O377 Co369 2.135 1_565 S
Co378 O379 2.216 . S
Co378 O380 2.091 . S
Co378 O382 2.004 . S
Co378 O388 2.021 . S
Co378 O390 2.137 . S
Co378 O391 2.244 . S
O379 Co378 2.216 . S
O379 C386 1.247 . S
O380 Co378 2.091 . S
O380 C386 1.261 . S
C381 O390 1.247 . S
C381 O391 1.272 . S
O382 Co378 2.004 . S
O382 C387 1.259 . S
Co383 O384 2.061 . S
Co383 O389 2.052 . S
Co383 O391 2.135 . S
O384 Co383 2.061 . S
O384 C387 1.235 . S
C385 O388 1.238 . S
C385 O389 1.241 . S
C386 O379 1.247 . S
C386 O380 1.261 . S
C387 O382 1.259 . S
C387 O384 1.235 . S
O388 Co378 2.021 . S
O388 C385 1.238 . S
O389 Co383 2.052 . S
O389 C385 1.241 . S
O390 Co378 2.137 . S
O390 C381 1.247 . S
O391 Co378 2.244 . S
O391 C381 1.272 . S
O391 Co383 2.135 . S
Co392 O393 2.216 . S
Co392 O394 2.091 . S
Co392 O396 2.004 . S
Co392 O402 2.021 . S
Co392 O404 2.137 1_554 S
Co392 O405 2.244 . S
O393 Co392 2.216 . S
O393 C400 1.247 . S
O394 Co392 2.091 . S
O394 C400 1.261 . S
C395 O404 1.247 . S
C395 O405 1.272 1_556 S
O396 Co392 2.004 . S
O396 C401 1.259 . S
Co397 O398 2.060 1_545 S
Co397 O403 2.052 . S
Co397 O405 2.135 1_545 S
O398 Co397 2.060 1_565 S
O398 C401 1.236 . S
C399 O402 1.238 . S
C399 O403 1.241 1_565 S
C400 O393 1.247 . S
C400 O394 1.261 . S
C401 O396 1.259 . S
C401 O398 1.236 . S
O402 Co392 2.021 . S
O402 C399 1.238 . S
O403 Co397 2.052 . S
O403 C399 1.241 1_545 S
O404 Co392 2.137 1_556 S
O404 C395 1.247 . S
O405 Co392 2.244 . S
O405 C395 1.272 1_554 S
O405 Co397 2.135 1_565 S
Co406 O407 2.216 . S
Co406 O408 2.091 . S
Co406 O410 2.004 . S
Co406 O416 2.021 . S
Co406 O418 2.137 . S
Co406 O419 2.244 . S
O407 Co406 2.216 . S
O407 C414 1.247 . S
O408 Co406 2.091 . S
O408 C414 1.261 . S
C409 O418 1.247 . S
C409 O419 1.272 . S
O410 Co406 2.004 . S
O410 C415 1.259 . S
Co411 O412 2.061 . S
Co411 O417 2.052 . S
Co411 O419 2.135 . S
O412 Co411 2.061 . S
O412 C415 1.235 . S
C413 O416 1.238 . S
C413 O417 1.241 . S
C414 O407 1.247 . S
C414 O408 1.261 . S
C415 O410 1.259 . S
C415 O412 1.235 . S
O416 Co406 2.021 . S
O416 C413 1.238 . S
O417 Co411 2.052 . S
O417 C413 1.241 . S
O418 Co406 2.137 . S
O418 C409 1.247 . S
O419 Co406 2.244 . S
O419 C409 1.272 . S
O419 Co411 2.135 . S
Co420 O421 2.216 . S
Co420 O422 2.091 . S
Co420 O424 2.004 . S
Co420 O430 2.021 . S
Co420 O432 2.137 . S
Co420 O433 2.244 . S
O421 Co420 2.216 . S
O421 C428 1.247 . S
O422 Co420 2.091 . S
O422 C428 1.261 . S
C423 O432 1.247 . S
C423 O433 1.272 . S
O424 Co420 2.004 . S
O424 C429 1.259 . S
Co425 O426 2.060 1_565 S
Co425 O431 2.052 . S
Co425 O433 2.135 1_565 S
O426 Co425 2.060 1_545 S
O426 C429 1.237 . S
C427 O430 1.238 . S
C427 O431 1.241 1_545 S
C428 O421 1.247 . S
C428 O422 1.261 . S
C429 O424 1.259 . S
C429 O426 1.237 . S
O430 Co420 2.021 . S
O430 C427 1.238 . S
O431 Co425 2.052 . S
O431 C427 1.241 1_565 S
O432 Co420 2.137 . S
O432 C423 1.247 . S
O433 Co420 2.244 . S
O433 C423 1.272 . S
O433 Co425 2.135 1_545 S
Co434 O435 2.216 . S
Co434 O436 2.091 . S
Co434 O438 2.004 . S
Co434 O444 2.021 . S
Co434 O446 2.137 . S
Co434 O447 2.244 . S
O435 Co434 2.216 . S
O435 C442 1.247 . S
O436 Co434 2.091 . S
O436 C442 1.261 . S
C437 O446 1.247 . S
C437 O447 1.272 . S
O438 Co434 2.004 . S
O438 C443 1.259 . S
Co439 O440 2.061 . S
Co439 O445 2.052 . S
Co439 O447 2.135 . S
O440 Co439 2.061 . S
O440 C443 1.235 . S
C441 O444 1.238 . S
C441 O445 1.241 . S
C442 O435 1.247 . S
C442 O436 1.261 . S
C443 O438 1.259 . S
C443 O440 1.235 . S
O444 Co434 2.021 . S
O444 C441 1.238 . S
O445 Co439 2.052 . S
O445 C441 1.241 . S
O446 Co434 2.137 . S
O446 C437 1.247 . S
O447 Co434 2.244 . S
O447 C437 1.272 . S
O447 Co439 2.135 . S
H448 C456 0.950 . S
H449 C461 0.950 1_556 S
H450 C458 0.950 . S
H451 C460 0.950 1_556 S
H452 C462 0.950 . S
H453 C464 0.950 1_556 S
H454 C466 0.950 . S
H455 C467 0.950 . S
C456 H448 0.950 . S
C456 C457 1.386 . S
C456 C458 1.391 . S
C457 C456 1.386 . S
C457 C461 1.393 . S
C458 H450 0.950 . S
C458 C456 1.391 . S
C458 C459 1.400 . S
C459 C458 1.400 . S
C459 C460 1.398 . S
C459 C465 1.491 1_655 S
C460 H451 0.950 1_554 S
C460 C459 1.398 . S
C460 C461 1.391 . S
C461 H449 0.950 1_554 S
C461 C457 1.393 . S
C461 C460 1.391 . S
C462 H452 0.950 . S
C462 C463 1.386 . S
C462 C464 1.391 . S
C463 C462 1.386 . S
C463 C467 1.393 . S
C464 H453 0.950 1_554 S
C464 C462 1.391 . S
C464 C465 1.400 . S
C465 C459 1.491 1_455 S
C465 C464 1.400 . S
C465 C466 1.398 . S
C466 H454 0.950 . S
C466 C465 1.398 . S
C466 C467 1.391 . S
C467 H455 0.950 . S
C467 C463 1.393 . S
C467 C466 1.391 . S
H468 C476 0.950 . S
H469 C481 0.950 . S
H470 C478 0.950 . S
H471 C480 0.950 . S
H472 C482 0.950 . S
H473 C484 0.950 . S
H474 C486 0.950 . S
H475 C487 0.950 . S
C476 H468 0.950 . S
C476 C477 1.386 . S
C476 C478 1.391 . S
C477 C476 1.386 . S
C477 C481 1.393 . S
C478 H470 0.950 . S
C478 C476 1.391 . S
C478 C479 1.400 . S
C479 C478 1.400 . S
C479 C480 1.398 . S
C479 C485 1.491 . S
C480 H471 0.950 . S
C480 C479 1.398 . S
C480 C481 1.391 . S
C481 H469 0.950 . S
C481 C477 1.393 . S
C481 C480 1.391 . S
C482 H472 0.950 . S
C482 C483 1.386 . S
C482 C484 1.391 . S
C483 C482 1.386 . S
C483 C487 1.393 . S
C484 H473 0.950 . S
C484 C482 1.391 . S
C484 C485 1.400 . S
C485 C479 1.491 . S
C485 C484 1.400 . S
C485 C486 1.398 . S
C486 H474 0.950 . S
C486 C485 1.398 . S
C486 C487 1.391 . S
C487 H475 0.950 . S
C487 C483 1.393 . S
C487 C486 1.391 . S
H488 C496 0.950 . S
H489 C501 0.950 . S
H490 C498 0.950 . S
H491 C500 0.950 . S
H492 C502 0.950 . S
H493 C504 0.950 . S
H494 C506 0.950 . S
H495 C507 0.950 . S
C496 H488 0.950 . S
C496 C497 1.386 . S
C496 C498 1.391 . S
C497 C496 1.386 . S
C497 C501 1.393 . S
C498 H490 0.950 . S
C498 C496 1.391 . S
C498 C499 1.400 . S
C499 C498 1.400 . S
C499 C500 1.398 . S
C499 C505 1.491 . S
C500 H491 0.950 . S
C500 C499 1.398 . S
C500 C501 1.391 . S
C501 H489 0.950 . S
C501 C497 1.393 . S
C501 C500 1.391 . S
C502 H492 0.950 . S
C502 C503 1.386 . S
C502 C504 1.391 . S
C503 C502 1.386 . S
C503 C507 1.393 . S
C504 H493 0.950 . S
C504 C502 1.391 . S
C504 C505 1.400 . S
C505 C499 1.491 . S
C505 C504 1.400 . S
C505 C506 1.398 . S
C506 H494 0.950 . S
C506 C505 1.398 . S
C506 C507 1.391 . S
C507 H495 0.950 . S
C507 C503 1.393 . S
C507 C506 1.391 . S
H508 C516 0.950 . S
H509 C521 0.950 . S
H510 C518 0.950 . S
H511 C520 0.950 . S
H512 C522 0.950 . S
H513 C524 0.950 . S
H514 C526 0.950 . S
H515 C527 0.950 . S
C516 H508 0.950 . S
C516 C517 1.386 . S
C516 C518 1.391 . S
C517 C516 1.386 . S
C517 C521 1.393 . S
C518 H510 0.950 . S
C518 C516 1.391 . S
C518 C519 1.400 . S
C519 C518 1.400 . S
C519 C520 1.398 . S
C519 C525 1.491 . S
C520 H511 0.950 . S
C520 C519 1.398 . S
C520 C521 1.391 . S
C521 H509 0.950 . S
C521 C517 1.393 . S
C521 C520 1.391 . S
C522 H512 0.950 . S
C522 C523 1.386 . S
C522 C524 1.391 . S
C523 C522 1.386 . S
C523 C527 1.393 . S
C524 H513 0.950 . S
C524 C522 1.391 . S
C524 C525 1.400 . S
C525 C519 1.491 . S
C525 C524 1.400 . S
C525 C526 1.398 . S
C526 H514 0.950 . S
C526 C525 1.398 . S
C526 C527 1.391 . S
C527 H515 0.950 . S
C527 C523 1.393 . S
C527 C526 1.391 . S
H528 C536 0.950 . S
H529 C541 0.950 . S
H530 C538 0.950 . S
H531 C540 0.950 . S
H532 C542 0.950 . S
H533 C544 0.950 . S
H534 C546 0.950 . S
H535 C547 0.950 . S
C536 H528 0.950 . S
C536 C537 1.386 . S
C536 C538 1.391 . S
C537 C536 1.386 . S
C537 C541 1.393 . S
C538 H530 0.950 . S
C538 C536 1.391 . S
C538 C539 1.400 . S
C539 C538 1.400 . S
C539 C540 1.398 . S
C539 C545 1.491 1_455 S
C540 H531 0.950 . S
C540 C539 1.398 . S
C540 C541 1.391 . S
C541 H529 0.950 . S
C541 C537 1.393 . S
C541 C540 1.391 . S
C542 H532 0.950 . S
C542 C543 1.386 . S
C542 C544 1.391 . S
C543 C542 1.386 . S
C543 C547 1.393 . S
C544 H533 0.950 . S
C544 C542 1.391 . S
C544 C545 1.400 . S
C545 C539 1.491 1_655 S
C545 C544 1.400 . S
C545 C546 1.398 . S
C546 H534 0.950 . S
C546 C545 1.398 . S
C546 C547 1.391 . S
C547 H535 0.950 . S
C547 C543 1.393 . S
C547 C546 1.391 . S
H548 C556 0.950 . S
H549 C561 0.950 . S
H550 C558 0.950 . S
H551 C560 0.950 . S
H552 C562 0.950 . S
H553 C564 0.950 . S
H554 C566 0.950 . S
H555 C567 0.950 . S
C556 H548 0.950 . S
C556 C557 1.386 . S
C556 C558 1.391 . S
C557 C556 1.386 . S
C557 C561 1.393 . S
C558 H550 0.950 . S
C558 C556 1.391 . S
C558 C559 1.400 . S
C559 C558 1.400 . S
C559 C560 1.398 . S
C559 C565 1.491 . S
C560 H551 0.950 . S
C560 C559 1.398 . S
C560 C561 1.391 . S
C561 H549 0.950 . S
C561 C557 1.393 . S
C561 C560 1.391 . S
C562 H552 0.950 . S
C562 C563 1.386 . S
C562 C564 1.391 . S
C563 C562 1.386 . S
C563 C567 1.393 . S
C564 H553 0.950 . S
C564 C562 1.391 . S
C564 C565 1.400 . S
C565 C559 1.491 . S
C565 C564 1.400 . S
C565 C566 1.398 . S
C566 H554 0.950 . S
C566 C565 1.398 . S
C566 C567 1.391 . S
C567 H555 0.950 . S
C567 C563 1.393 . S
C567 C566 1.391 . S
H568 C576 0.950 . S
H569 C581 0.950 . S
H570 C578 0.950 . S
H571 C580 0.950 . S
H572 C582 0.950 . S
H573 C584 0.950 . S
H574 C586 0.950 . S
H575 C587 0.950 1_556 S
C576 H568 0.950 . S
C576 C577 1.386 . S
C576 C578 1.391 . S
C577 C576 1.386 . S
C577 C581 1.393 . S
C578 H570 0.950 . S
C578 C576 1.391 . S
C578 C579 1.400 . S
C579 C578 1.400 . S
C579 C580 1.398 . S
C579 C585 1.491 . S
C580 H571 0.950 . S
C580 C579 1.398 . S
C580 C581 1.391 . S
C581 H569 0.950 . S
C581 C577 1.393 . S
C581 C580 1.391 . S
C582 H572 0.950 . S
C582 C583 1.386 . S
C582 C584 1.391 . S
C583 C582 1.386 . S
C583 C587 1.393 . S
C584 H573 0.950 . S
C584 C582 1.391 . S
C584 C585 1.400 . S
C585 C579 1.491 . S
C585 C584 1.400 . S
C585 C586 1.398 . S
C586 H574 0.950 . S
C586 C585 1.398 . S
C586 C587 1.391 . S
C587 H575 0.950 1_554 S
C587 C583 1.393 . S
C587 C586 1.391 . S
H588 C596 0.950 . S
H589 C601 0.950 . S
H590 C598 0.950 . S
H591 C600 0.950 . S
H592 C602 0.950 . S
H593 C604 0.950 . S
H594 C606 0.950 . S
H595 C607 0.950 . S
C596 H588 0.950 . S
C596 C597 1.386 . S
C596 C598 1.391 . S
C597 C596 1.386 . S
C597 C601 1.393 . S
C598 H590 0.950 . S
C598 C596 1.391 . S
C598 C599 1.400 . S
C599 C598 1.400 . S
C599 C600 1.398 . S
C599 C605 1.491 . S
C600 H591 0.950 . S
C600 C599 1.398 . S
C600 C601 1.391 . S
C601 H589 0.950 . S
C601 C597 1.393 . S
C601 C600 1.391 . S
C602 H592 0.950 . S
C602 C603 1.386 . S
C602 C604 1.391 . S
C603 C602 1.386 . S
C603 C607 1.393 . S
C604 H593 0.950 . S
C604 C602 1.391 . S
C604 C605 1.400 . S
C605 C599 1.491 . S
C605 C604 1.400 . S
C605 C606 1.398 . S
C606 H594 0.950 . S
C606 C605 1.398 . S
C606 C607 1.391 . S
C607 H595 0.950 . S
C607 C603 1.393 . S
C607 C606 1.391 . S
H608 C616 0.950 . S
H609 C621 0.950 . S
H610 C618 0.950 . S
H611 C620 0.950 . S
H612 C622 0.950 . S
H613 C624 0.950 . S
H614 C626 0.950 . S
H615 C627 0.950 . S
C616 H608 0.950 . S
C616 C617 1.386 . S
C616 C618 1.391 . S
C617 C616 1.386 . S
C617 C621 1.393 . S
C618 H610 0.950 . S
C618 C616 1.391 . S
C618 C619 1.400 . S
C619 C618 1.400 . S
C619 C620 1.398 . S
C619 C625 1.491 . S
C620 H611 0.950 . S
C620 C619 1.398 . S
C620 C621 1.391 . S
C621 H609 0.950 . S
C621 C617 1.393 . S
C621 C620 1.391 . S
C622 H612 0.950 . S
C622 C623 1.386 . S
C622 C624 1.391 . S
C623 C622 1.386 . S
C623 C627 1.393 . S
C624 H613 0.950 . S
C624 C622 1.391 . S
C624 C625 1.400 . S
C625 C619 1.491 . S
C625 C624 1.400 . S
C625 C626 1.398 . S
C626 H614 0.950 . S
C626 C625 1.398 . S
C626 C627 1.391 . S
C627 H615 0.950 . S
C627 C623 1.393 . S
C627 C626 1.391 . S
H628 C636 0.950 . S
H629 C641 0.950 . S
H630 C638 0.950 . S
H631 C640 0.950 . S
H632 C642 0.950 . S
H633 C644 0.950 . S
H634 C646 0.950 . S
H635 C647 0.950 . S
C636 H628 0.950 . S
C636 C637 1.386 . S
C636 C638 1.391 . S
C637 C636 1.386 . S
C637 C641 1.393 . S
C638 H630 0.950 . S
C638 C636 1.391 . S
C638 C639 1.400 . S
C639 C638 1.400 . S
C639 C640 1.398 . S
C639 C645 1.491 . S
C640 H631 0.950 . S
C640 C639 1.398 . S
C640 C641 1.391 . S
C641 H629 0.950 . S
C641 C637 1.393 . S
C641 C640 1.391 . S
C642 H632 0.950 . S
C642 C643 1.386 . S
C642 C644 1.391 . S
C643 C642 1.386 . S
C643 C647 1.393 . S
C644 H633 0.950 . S
C644 C642 1.391 . S
C644 C645 1.400 . S
C645 C639 1.491 . S
C645 C644 1.400 . S
C645 C646 1.398 . S
C646 H634 0.950 . S
C646 C645 1.398 . S
C646 C647 1.391 . S
C647 H635 0.950 . S
C647 C643 1.393 . S
C647 C646 1.391 . S
H648 C656 0.950 . S
H649 C661 0.950 . S
H650 C658 0.950 . S
H651 C660 0.950 . S
H652 C662 0.950 . S
H653 C664 0.950 . S
H654 C666 0.950 . S
H655 C667 0.950 . S
C656 H648 0.950 . S
C656 C657 1.386 . S
C656 C658 1.391 . S
C657 C656 1.386 . S
C657 C661 1.393 . S
C658 H650 0.950 . S
C658 C656 1.391 . S
C658 C659 1.400 . S
C659 C658 1.400 . S
C659 C660 1.398 . S
C659 C665 1.491 . S
C660 H651 0.950 . S
C660 C659 1.398 . S
C660 C661 1.391 . S
C661 H649 0.950 . S
C661 C657 1.393 . S
C661 C660 1.391 . S
C662 H652 0.950 . S
C662 C663 1.386 . S
C662 C664 1.391 . S
C663 C662 1.386 . S
C663 C667 1.393 . S
C664 H653 0.950 . S
C664 C662 1.391 . S
C664 C665 1.400 . S
C665 C659 1.491 . S
C665 C664 1.400 . S
C665 C666 1.398 . S
C666 H654 0.950 . S
C666 C665 1.398 . S
C666 C667 1.391 . S
C667 H655 0.950 . S
C667 C663 1.393 . S
C667 C666 1.391 . S
H668 C676 0.950 . S
H669 C681 0.950 . S
H670 C678 0.950 . S
H671 C680 0.950 . S
H672 C682 0.950 . S
H673 C684 0.950 . S
H674 C686 0.950 . S
H675 C687 0.950 . S
C676 H668 0.950 . S
C676 C677 1.386 . S
C676 C678 1.391 . S
C677 C676 1.386 . S
C677 C681 1.393 . S
C678 H670 0.950 . S
C678 C676 1.391 . S
C678 C679 1.400 . S
C679 C678 1.400 . S
C679 C680 1.398 . S
C679 C685 1.491 . S
C680 H671 0.950 . S
C680 C679 1.398 . S
C680 C681 1.391 . S
C681 H669 0.950 . S
C681 C677 1.393 . S
C681 C680 1.391 . S
C682 H672 0.950 . S
C682 C683 1.386 . S
C682 C684 1.391 . S
C683 C682 1.386 . S
C683 C687 1.393 . S
C684 H673 0.950 . S
C684 C682 1.391 . S
C684 C685 1.400 . S
C685 C679 1.491 . S
C685 C684 1.400 . S
C685 C686 1.398 . S
C686 H674 0.950 . S
C686 C685 1.398 . S
C686 C687 1.391 . S
C687 H675 0.950 . S
C687 C683 1.393 . S
C687 C686 1.391 . S
H688 C696 0.950 . S
H689 C701 0.950 . S
H690 C698 0.950 . S
H691 C700 0.950 . S
H692 C702 0.950 . S
H693 C704 0.950 . S
H694 C706 0.950 . S
H695 C707 0.950 . S
C696 H688 0.950 . S
C696 C697 1.386 . S
C696 C698 1.391 . S
C697 C696 1.386 . S
C697 C701 1.393 1_545 S
C698 H690 0.950 . S
C698 C696 1.391 . S
C698 C699 1.400 . S
C699 C698 1.400 . S
C699 C700 1.398 1_545 S
C699 C705 1.491 1_545 S
C700 H691 0.950 . S
C700 C699 1.398 1_565 S
C700 C701 1.391 . S
C701 H689 0.950 . S
C701 C697 1.393 1_565 S
C701 C700 1.391 . S
C702 H692 0.950 . S
C702 C703 1.386 . S
C702 C704 1.391 . S
C703 C702 1.386 . S
C703 C707 1.393 1_565 S
C704 H693 0.950 . S
C704 C702 1.391 . S
C704 C705 1.400 . S
C705 C699 1.491 1_565 S
C705 C704 1.400 . S
C705 C706 1.398 1_565 S
C706 H694 0.950 . S
C706 C705 1.398 1_545 S
C706 C707 1.391 . S
C707 H695 0.950 . S
C707 C703 1.393 1_545 S
C707 C706 1.391 . S
H708 C716 0.950 . S
H709 C721 0.946 1_566 S
H710 C718 0.950 . S
H711 C720 0.950 1_556 S
H712 C722 0.950 1_556 S
H713 C724 0.950 1_556 S
H714 C726 0.950 . S
H715 C727 0.950 1_545 S
C716 H708 0.950 . S
C716 C717 1.386 . S
C716 C718 1.391 . S
C717 C716 1.386 . S
C717 C721 1.393 . S
C718 H710 0.950 . S
C718 C716 1.391 . S
C718 C719 1.400 . S
C719 C718 1.400 . S
C719 C720 1.398 1_545 S
C719 C725 1.491 1_645 S
C720 H711 0.950 1_554 S
C720 C719 1.398 1_565 S
C720 C721 1.391 1_565 S
C721 H709 0.946 1_544 S
C721 C717 1.393 . S
C721 C720 1.391 1_545 S
C722 H712 0.950 1_554 S
C722 C723 1.386 . S
C722 C724 1.391 . S
C723 C722 1.386 . S
C723 C727 1.393 . S
C724 H713 0.950 1_554 S
C724 C722 1.391 . S
C724 C725 1.400 . S
C725 C719 1.491 1_465 S
C725 C724 1.400 . S
C725 C726 1.398 1_565 S
C726 H714 0.950 . S
C726 C725 1.398 1_545 S
C726 C727 1.391 1_545 S
C727 H715 0.950 1_565 S
C727 C723 1.393 . S
C727 C726 1.391 1_565 S
H728 C736 0.950 1_565 S
H729 C741 0.950 1_556 S
H730 C738 0.950 . S
H731 C740 0.950 1_556 S
H732 C742 0.950 1_546 S
H733 C744 0.950 1_556 S
H734 C746 0.950 . S
H735 C747 0.950 . S
C736 H728 0.950 1_545 S
C736 C737 1.386 . S
C736 C738 1.391 1_545 S
C737 C736 1.386 . S
C737 C741 1.393 . S
C738 H730 0.950 . S
C738 C736 1.391 1_565 S
C738 C739 1.400 1_565 S
C739 C738 1.400 1_545 S
C739 C740 1.398 . S
C739 C745 1.491 1_545 S
C740 H731 0.950 1_554 S
C740 C739 1.398 . S
C740 C741 1.391 . S
C741 H729 0.950 1_554 S
C741 C737 1.393 . S
C741 C740 1.391 . S
C742 H732 0.950 1_564 S
C742 C743 1.386 . S
C742 C744 1.391 1_565 S
C743 C742 1.386 . S
C743 C747 1.393 . S
C744 H733 0.950 1_554 S
C744 C742 1.391 1_545 S
C744 C745 1.400 1_545 S
C745 C739 1.491 1_565 S
C745 C744 1.400 1_565 S
C745 C746 1.398 . S
C746 H734 0.950 . S
C746 C745 1.398 . S
C746 C747 1.391 . S
C747 H735 0.950 . S
C747 C743 1.393 . S
C747 C746 1.391 . S
H748 C756 0.950 . S
H749 C761 0.950 . S
H750 C758 0.950 1_565 S
H751 C760 0.950 . S
H752 C762 0.950 . S
H753 C764 0.950 1_545 S
H754 C766 0.950 . S
H755 C767 0.950 . S
C756 H748 0.950 . S
C756 C757 1.386 . S
C756 C758 1.391 . S
C757 C756 1.386 . S
C757 C761 1.393 . S
C758 H750 0.950 1_545 S
C758 C756 1.391 . S
C758 C759 1.400 . S
C759 C758 1.400 . S
C759 C760 1.398 . S
C759 C765 1.491 1_445 S
C760 H751 0.950 . S
C760 C759 1.398 . S
C760 C761 1.391 . S
C761 H749 0.950 . S
C761 C757 1.393 . S
C761 C760 1.391 . S
C762 H752 0.950 . S
C762 C763 1.386 . S
C762 C764 1.391 . S
C763 C762 1.386 . S
C763 C767 1.393 . S
C764 H753 0.950 1_565 S
C764 C762 1.391 . S
C764 C765 1.400 . S
C765 C759 1.491 1_665 S
C765 C764 1.400 . S
C765 C766 1.398 . S
C766 H754 0.950 . S
C766 C765 1.398 . S
C766 C767 1.391 . S
C767 H755 0.950 . S
C767 C763 1.393 . S
C767 C766 1.391 . S
H768 C776 0.950 . S
H769 C781 0.950 . S
H770 C778 0.950 . S
H771 C780 0.950 . S
H772 C782 0.950 . S
H773 C784 0.950 . S
H774 C786 0.950 . S
H775 C787 0.950 . S
C776 H768 0.950 . S
C776 C777 1.386 . S
C776 C778 1.391 . S
C777 C776 1.386 . S
C777 C781 1.393 . S
C778 H770 0.950 . S
C778 C776 1.391 . S
C778 C779 1.400 . S
C779 C778 1.400 . S
C779 C780 1.398 . S
C779 C785 1.491 . S
C780 H771 0.950 . S
C780 C779 1.398 . S
C780 C781 1.391 . S
C781 H769 0.950 . S
C781 C777 1.393 . S
C781 C780 1.391 . S
C782 H772 0.950 . S
C782 C783 1.386 . S
C782 C784 1.391 . S
C783 C782 1.386 . S
C783 C787 1.393 . S
C784 H773 0.950 . S
C784 C782 1.391 . S
C784 C785 1.400 . S
C785 C779 1.491 . S
C785 C784 1.400 . S
C785 C786 1.398 . S
C786 H774 0.950 . S
C786 C785 1.398 . S
C786 C787 1.391 . S
C787 H775 0.950 . S
C787 C783 1.393 . S
C787 C786 1.391 . S
H788 C796 0.950 . S
H789 C801 0.950 . S
H790 C798 0.950 1_554 S
H791 C800 0.950 . S
H792 C802 0.950 . S
H793 C804 0.950 . S
H794 C806 0.950 . S
H795 C807 0.950 . S
C796 H788 0.950 . S
C796 C797 1.386 . S
C796 C798 1.391 . S
C797 C796 1.386 . S
C797 C801 1.393 . S
C798 H790 0.950 1_556 S
C798 C796 1.391 . S
C798 C799 1.400 1_556 S
C799 C798 1.400 1_554 S
C799 C800 1.398 1_554 S
C799 C805 1.491 . S
C800 H791 0.950 . S
C800 C799 1.398 1_556 S
C800 C801 1.391 . S
C801 H789 0.950 . S
C801 C797 1.393 . S
C801 C800 1.391 . S
C802 H792 0.950 . S
C802 C803 1.386 . S
C802 C804 1.391 . S
C803 C802 1.386 . S
C803 C807 1.393 . S
C804 H793 0.950 . S
C804 C802 1.391 . S
C804 C805 1.400 . S
C805 C799 1.491 . S
C805 C804 1.400 . S
C805 C806 1.398 . S
C806 H794 0.950 . S
C806 C805 1.398 . S
C806 C807 1.391 . S
C807 H795 0.950 . S
C807 C803 1.393 . S
C807 C806 1.391 . S
H808 C816 0.950 . S
H809 C821 0.950 . S
H810 C818 0.950 . S
H811 C820 0.950 . S
H812 C822 0.950 . S
H813 C824 0.950 . S
H814 C826 0.950 . S
H815 C827 0.950 . S
C816 H808 0.950 . S
C816 C817 1.386 . S
C816 C818 1.391 . S
C817 C816 1.386 . S
C817 C821 1.393 . S
C818 H810 0.950 . S
C818 C816 1.391 . S
C818 C819 1.400 . S
C819 C818 1.400 . S
C819 C820 1.398 . S
C819 C825 1.491 . S
C820 H811 0.950 . S
C820 C819 1.398 . S
C820 C821 1.391 . S
C821 H809 0.950 . S
C821 C817 1.393 . S
C821 C820 1.391 . S
C822 H812 0.950 . S
C822 C823 1.386 . S
C822 C824 1.391 . S
C823 C822 1.386 . S
C823 C827 1.393 . S
C824 H813 0.950 . S
C824 C822 1.391 . S
C824 C825 1.400 . S
C825 C819 1.491 . S
C825 C824 1.400 . S
C825 C826 1.398 . S
C826 H814 0.950 . S
C826 C825 1.398 . S
C826 C827 1.391 . S
C827 H815 0.950 . S
C827 C823 1.393 . S
C827 C826 1.391 . S
H828 C836 0.950 . S
H829 C841 0.950 . S
H830 C838 0.950 . S
H831 C840 0.950 . S
H832 C842 0.950 . S
H833 C844 0.950 . S
H834 C846 0.950 . S
H835 C847 0.950 . S
C836 H828 0.950 . S
C836 C837 1.386 . S
C836 C838 1.391 . S
C837 C836 1.386 . S
C837 C841 1.393 . S
C838 H830 0.950 . S
C838 C836 1.391 . S
C838 C839 1.400 . S
C839 C838 1.400 . S
C839 C840 1.398 . S
C839 C845 1.491 . S
C840 H831 0.950 . S
C840 C839 1.398 . S
C840 C841 1.391 . S
C841 H829 0.950 . S
C841 C837 1.393 . S
C841 C840 1.391 . S
C842 H832 0.950 . S
C842 C843 1.386 . S
C842 C844 1.391 . S
C843 C842 1.386 . S
C843 C847 1.393 . S
C844 H833 0.950 . S
C844 C842 1.391 . S
C844 C845 1.400 . S
C845 C839 1.491 . S
C845 C844 1.400 . S
C845 C846 1.398 . S
C846 H834 0.950 . S
C846 C845 1.398 . S
C846 C847 1.391 . S
C847 H835 0.950 . S
C847 C843 1.393 . S
C847 C846 1.391 . S
H848 C856 0.950 . S
H849 C861 0.950 . S
H850 C858 0.950 . S
H851 C860 0.950 . S
H852 C862 0.950 . S
H853 C864 0.950 . S
H854 C866 0.950 . S
H855 C867 0.950 . S
C856 H848 0.950 . S
C856 C857 1.386 . S
C856 C858 1.391 . S
C857 C856 1.386 . S
C857 C861 1.393 . S
C858 H850 0.950 . S
C858 C856 1.391 . S
C858 C859 1.400 . S
C859 C858 1.400 . S
C859 C860 1.398 . S
C859 C865 1.491 . S
C860 H851 0.950 . S
C860 C859 1.398 . S
C860 C861 1.391 . S
C861 H849 0.950 . S
C861 C857 1.393 . S
C861 C860 1.391 . S
C862 H852 0.950 . S
C862 C863 1.386 . S
C862 C864 1.391 . S
C863 C862 1.386 . S
C863 C867 1.393 . S
C864 H853 0.950 . S
C864 C862 1.391 . S
C864 C865 1.400 . S
C865 C859 1.491 . S
C865 C864 1.400 . S
C865 C866 1.398 . S
C866 H854 0.950 . S
C866 C865 1.398 . S
C866 C867 1.391 . S
C867 H855 0.950 . S
C867 C863 1.393 . S
C867 C866 1.391 . S
H868 C876 0.950 . S
H869 C881 0.950 . S
H870 C878 0.950 1_554 S
H871 C880 0.950 1_554 S
H872 C882 0.950 . S
H873 C884 0.950 . S
H874 C886 0.950 . S
H875 C887 0.950 . S
C876 H868 0.950 . S
C876 C877 1.386 . S
C876 C878 1.391 . S
C877 C876 1.386 . S
C877 C881 1.393 . S
C878 H870 0.950 1_556 S
C878 C876 1.391 . S
C878 C879 1.400 1_556 S
C879 C878 1.400 1_554 S
C879 C880 1.398 1_554 S
C879 C885 1.491 . S
C880 H871 0.950 1_556 S
C880 C879 1.398 1_556 S
C880 C881 1.391 . S
C881 H869 0.950 . S
C881 C877 1.393 . S
C881 C880 1.391 . S
C882 H872 0.950 . S
C882 C883 1.386 . S
C882 C884 1.391 . S
C883 C882 1.386 . S
C883 C887 1.393 . S
C884 H873 0.950 . S
C884 C882 1.391 . S
C884 C885 1.400 . S
C885 C879 1.491 . S
C885 C884 1.400 . S
C885 C886 1.398 . S
C886 H874 0.950 . S
C886 C885 1.398 . S
C886 C887 1.391 . S
C887 H875 0.950 . S
C887 C883 1.393 . S
C887 C886 1.391 . S
H888 C896 0.950 . S
H889 C901 0.950 . S
H890 C898 0.950 . S
H891 C900 0.950 . S
H892 C902 0.950 . S
H893 C904 0.950 . S
H894 C906 0.950 . S
H895 C907 0.950 . S
C896 H888 0.950 . S
C896 C897 1.386 . S
C896 C898 1.391 . S
C897 C896 1.386 . S
C897 C901 1.393 . S
C898 H890 0.950 . S
C898 C896 1.391 . S
C898 C899 1.400 . S
C899 C898 1.400 . S
C899 C900 1.398 . S
C899 C905 1.491 . S
C900 H891 0.950 . S
C900 C899 1.398 . S
C900 C901 1.391 . S
C901 H889 0.950 . S
C901 C897 1.393 . S
C901 C900 1.391 . S
C902 H892 0.950 . S
C902 C903 1.386 . S
C902 C904 1.391 . S
C903 C902 1.386 . S
C903 C907 1.393 . S
C904 H893 0.950 . S
C904 C902 1.391 . S
C904 C905 1.400 . S
C905 C899 1.491 . S
C905 C904 1.400 . S
C905 C906 1.398 . S
C906 H894 0.950 . S
C906 C905 1.398 . S
C906 C907 1.391 . S
C907 H895 0.950 . S
C907 C903 1.393 . S
C907 C906 1.391 . S
H908 C916 0.950 . S
H909 C921 0.950 . S
H910 C918 0.950 . S
H911 C920 0.950 . S
H912 C922 0.950 . S
H913 C924 0.950 . S
H914 C926 0.950 . S
H915 C927 0.950 . S
C916 H908 0.950 . S
C916 C917 1.386 . S
C916 C918 1.391 . S
C917 C916 1.386 . S
C917 C921 1.393 . S
C918 H910 0.950 . S
C918 C916 1.391 . S
C918 C919 1.400 . S
C919 C918 1.400 . S
C919 C920 1.398 . S
C919 C925 1.491 . S
C920 H911 0.950 . S
C920 C919 1.398 . S
C920 C921 1.391 . S
C921 H909 0.950 . S
C921 C917 1.393 . S
C921 C920 1.391 . S
C922 H912 0.950 . S
C922 C923 1.386 . S
C922 C924 1.391 . S
C923 C922 1.386 . S
C923 C927 1.393 . S
C924 H913 0.950 . S
C924 C922 1.391 . S
C924 C925 1.400 . S
C925 C919 1.491 . S
C925 C924 1.400 . S
C925 C926 1.398 . S
C926 H914 0.950 . S
C926 C925 1.398 . S
C926 C927 1.391 . S
C927 H915 0.950 . S
C927 C923 1.393 . S
C927 C926 1.391 . S
H928 C936 0.950 . S
H929 C941 0.950 . S
H930 C938 0.950 . S
H931 C940 0.950 . S
H932 C942 0.950 . S
H933 C944 0.950 . S
H934 C946 0.950 . S
H935 C947 0.950 . S
C936 H928 0.950 . S
C936 C937 1.386 . S
C936 C938 1.391 . S
C937 C936 1.386 . S
C937 C941 1.393 1_545 S
C938 H930 0.950 . S
C938 C936 1.391 . S
C938 C939 1.400 . S
C939 C938 1.400 . S
C939 C940 1.398 1_545 S
C939 C945 1.491 1_545 S
C940 H931 0.950 . S
C940 C939 1.398 1_565 S
C940 C941 1.391 . S
C941 H929 0.950 . S
C941 C937 1.393 1_565 S
C941 C940 1.391 . S
C942 H932 0.950 . S
C942 C943 1.386 . S
C942 C944 1.391 . S
C943 C942 1.386 . S
C943 C947 1.393 1_565 S
C944 H933 0.950 . S
C944 C942 1.391 . S
C944 C945 1.400 . S
C945 C939 1.491 1_565 S
C945 C944 1.400 . S
C945 C946 1.398 1_565 S
C946 H934 0.950 . S
C946 C945 1.398 1_545 S
C946 C947 1.391 . S
C947 H935 0.950 . S
C947 C943 1.393 1_545 S
C947 C946 1.391 . S
H948 C956 0.950 . S
H949 C961 0.950 . S
H950 C958 0.950 . S
H951 C960 0.950 . S
H952 C962 0.950 . S
H953 C964 0.950 . S
H954 C966 0.950 . S
H955 C967 0.950 . S
C956 H948 0.950 . S
C956 C957 1.386 . S
C956 C958 1.391 . S
C957 C956 1.386 . S
C957 C961 1.393 . S
C958 H950 0.950 . S
C958 C956 1.391 . S
C958 C959 1.400 . S
C959 C958 1.400 . S
C959 C960 1.398 . S
C959 C965 1.491 . S
C960 H951 0.950 . S
C960 C959 1.398 . S
C960 C961 1.391 . S
C961 H949 0.950 . S
C961 C957 1.393 . S
C961 C960 1.391 . S
C962 H952 0.950 . S
C962 C963 1.386 . S
C962 C964 1.391 . S
C963 C962 1.386 . S
C963 C967 1.393 . S
C964 H953 0.950 . S
C964 C962 1.391 . S
C964 C965 1.400 . S
C965 C959 1.491 . S
C965 C964 1.400 . S
C965 C966 1.398 . S
C966 H954 0.950 . S
C966 C965 1.398 . S
C966 C967 1.391 . S
C967 H955 0.950 . S
C967 C963 1.393 . S
C967 C966 1.391 . S
H968 C976 0.948 1_565 S
H969 C981 0.950 . S
H970 C978 0.950 . S
H971 C980 0.950 . S
H972 C982 0.947 1_545 S
H973 C984 0.950 . S
H974 C986 0.950 . S
H975 C987 0.950 . S
C976 H968 0.948 1_545 S
C976 C977 1.389 . S
C976 C978 1.390 1_545 S
C977 C976 1.389 . S
C977 C981 1.393 . S
C978 H970 0.950 . S
C978 C976 1.390 1_565 S
C978 C979 1.400 1_565 S
C979 C978 1.400 1_545 S
C979 C980 1.398 . S
C979 C985 1.491 1_545 S
C980 H971 0.950 . S
C980 C979 1.398 . S
C980 C981 1.391 . S
C981 H969 0.950 . S
C981 C977 1.393 . S
C981 C980 1.391 . S
C982 H972 0.947 1_565 S
C982 C983 1.390 . S
C982 C984 1.390 1_565 S
C983 C982 1.390 . S
C983 C987 1.393 . S
C984 H973 0.950 . S
C984 C982 1.390 1_545 S
C984 C985 1.400 1_545 S
C985 C979 1.491 1_565 S
C985 C984 1.400 1_565 S
C985 C986 1.398 . S
C986 H974 0.950 . S
C986 C985 1.398 . S
C986 C987 1.391 . S
C987 H975 0.950 . S
C987 C983 1.393 . S
C987 C986 1.391 . S
H988 C996 0.950 . S
H989 C1001 0.950 . S
H990 C998 0.950 1_554 S
H991 C1000 0.950 1_554 S
H992 C1002 0.950 . S
H993 C1004 0.950 . S
H994 C1006 0.950 . S
H995 C1007 0.950 . S
C996 H988 0.950 . S
C996 C997 1.386 . S
C996 C998 1.391 . S
C997 C996 1.386 . S
C997 C1001 1.393 . S
C998 H990 0.950 1_556 S
C998 C996 1.391 . S
C998 C999 1.400 1_556 S
C999 C998 1.400 1_554 S
C999 C1000 1.398 1_554 S
C999 C1005 1.491 . S
C1000 H991 0.950 1_556 S
C1000 C999 1.398 1_556 S
C1000 C1001 1.391 . S
C1001 H989 0.950 . S
C1001 C997 1.393 . S
C1001 C1000 1.391 . S
C1002 H992 0.950 . S
C1002 C1003 1.386 . S
C1002 C1004 1.391 . S
C1003 C1002 1.386 . S
C1003 C1007 1.393 . S
C1004 H993 0.950 . S
C1004 C1002 1.391 . S
C1004 C1005 1.400 . S
C1005 C999 1.491 . S
C1005 C1004 1.400 . S
C1005 C1006 1.398 . S
C1006 H994 0.950 . S
C1006 C1005 1.398 . S
C1006 C1007 1.391 . S
C1007 H995 0.950 . S
C1007 C1003 1.393 . S
C1007 C1006 1.391 . S
H1008 C1016 0.950 . S
H1009 C1021 0.950 . S
H1010 C1018 0.950 . S
H1011 C1020 0.950 . S
H1012 C1022 0.950 . S
H1013 C1024 0.950 . S
H1014 C1026 0.950 . S
H1015 C1027 0.950 . S
C1016 H1008 0.950 . S
C1016 C1017 1.386 1_545 S
C1016 C1018 1.391 . S
C1017 C1016 1.386 1_565 S
C1017 C1021 1.393 . S
C1018 H1010 0.950 . S
C1018 C1016 1.391 . S
C1018 C1019 1.400 1_545 S
C1019 C1018 1.400 1_565 S
C1019 C1020 1.398 . S
C1019 C1025 1.491 1_565 S
C1020 H1011 0.950 . S
C1020 C1019 1.398 . S
C1020 C1021 1.391 . S
C1021 H1009 0.950 . S
C1021 C1017 1.393 . S
C1021 C1020 1.391 . S
C1022 H1012 0.950 . S
C1022 C1023 1.386 1_565 S
C1022 C1024 1.391 . S
C1023 C1022 1.386 1_545 S
C1023 C1027 1.393 . S
C1024 H1013 0.950 . S
C1024 C1022 1.391 . S
C1024 C1025 1.400 1_565 S
C1025 C1019 1.491 1_545 S
C1025 C1024 1.400 1_545 S
C1025 C1026 1.398 . S
C1026 H1014 0.950 . S
C1026 C1025 1.398 . S
C1026 C1027 1.391 . S
C1027 H1015 0.950 . S
C1027 C1023 1.393 . S
C1027 C1026 1.391 . S
H1028 C1036 0.950 . S
H1029 C1041 0.950 . S
H1030 C1038 0.950 . S
H1031 C1040 0.950 . S
H1032 C1042 0.950 . S
H1033 C1044 0.950 . S
H1034 C1046 0.950 . S
H1035 C1047 0.950 . S
C1036 H1028 0.950 . S
C1036 C1037 1.386 . S
C1036 C1038 1.391 . S
C1037 C1036 1.386 . S
C1037 C1041 1.393 . S
C1038 H1030 0.950 . S
C1038 C1036 1.391 . S
C1038 C1039 1.400 . S
C1039 C1038 1.400 . S
C1039 C1040 1.398 . S
C1039 C1045 1.491 . S
C1040 H1031 0.950 . S
C1040 C1039 1.398 . S
C1040 C1041 1.391 . S
C1041 H1029 0.950 . S
C1041 C1037 1.393 . S
C1041 C1040 1.391 . S
C1042 H1032 0.950 . S
C1042 C1043 1.386 . S
C1042 C1044 1.391 . S
C1043 C1042 1.386 . S
C1043 C1047 1.393 . S
C1044 H1033 0.950 . S
C1044 C1042 1.391 . S
C1044 C1045 1.400 . S
C1045 C1039 1.491 . S
C1045 C1044 1.400 . S
C1045 C1046 1.398 . S
C1046 H1034 0.950 . S
C1046 C1045 1.398 . S
C1046 C1047 1.391 . S
C1047 H1035 0.950 . S
C1047 C1043 1.393 . S
C1047 C1046 1.391 . S
H1048 C1056 0.950 . S
H1049 C1061 0.950 . S
H1050 C1058 0.950 . S
H1051 C1060 0.949 1_565 S
H1052 C1062 0.950 . S
H1053 C1064 0.950 . S
H1054 C1066 0.949 1_545 S
H1055 C1067 0.950 . S
C1056 H1048 0.950 . S
C1056 C1057 1.386 . S
C1056 C1058 1.391 . S
C1057 C1056 1.386 . S
C1057 C1061 1.393 . S
C1058 H1050 0.950 . S
C1058 C1056 1.391 . S
C1058 C1059 1.400 . S
C1059 C1058 1.400 . S
C1059 C1060 1.398 . S
C1059 C1065 1.491 1_545 S
C1060 H1051 0.949 1_545 S
C1060 C1059 1.398 . S
C1060 C1061 1.391 . S
C1061 H1049 0.950 . S
C1061 C1057 1.393 . S
C1061 C1060 1.391 . S
C1062 H1052 0.950 . S
C1062 C1063 1.386 . S
C1062 C1064 1.391 . S
C1063 C1062 1.386 . S
C1063 C1067 1.393 . S
C1064 H1053 0.950 . S
C1064 C1062 1.391 . S
C1064 C1065 1.400 . S
C1065 C1059 1.491 1_565 S
C1065 C1064 1.400 . S
C1065 C1066 1.398 . S
C1066 H1054 0.949 1_565 S
C1066 C1065 1.398 . S
C1066 C1067 1.391 . S
C1067 H1055 0.950 . S
C1067 C1063 1.393 . S
C1067 C1066 1.391 . S
H1068 C1076 0.950 . S
H1069 C1081 0.950 . S
H1070 C1078 0.950 . S
H1071 C1080 0.950 . S
H1072 C1082 0.950 . S
H1073 C1084 0.950 1_554 S
H1074 C1086 0.950 1_554 S
H1075 C1087 0.950 . S
C1076 H1068 0.950 . S
C1076 C1077 1.386 . S
C1076 C1078 1.391 . S
C1077 C1076 1.386 . S
C1077 C1081 1.393 . S
C1078 H1070 0.950 . S
C1078 C1076 1.391 . S
C1078 C1079 1.400 . S
C1079 C1078 1.400 . S
C1079 C1080 1.398 . S
C1079 C1085 1.491 . S
C1080 H1071 0.950 . S
C1080 C1079 1.398 . S
C1080 C1081 1.391 . S
C1081 H1069 0.950 . S
C1081 C1077 1.393 . S
C1081 C1080 1.391 . S
C1082 H1072 0.950 . S
C1082 C1083 1.386 . S
C1082 C1084 1.391 . S
C1083 C1082 1.386 . S
C1083 C1087 1.393 . S
C1084 H1073 0.950 1_556 S
C1084 C1082 1.391 . S
C1084 C1085 1.400 1_556 S
C1085 C1079 1.491 . S
C1085 C1084 1.400 1_554 S
C1085 C1086 1.398 1_554 S
C1086 H1074 0.950 1_556 S
C1086 C1085 1.398 1_556 S
C1086 C1087 1.391 . S
C1087 H1075 0.950 . S
C1087 C1083 1.393 . S
C1087 C1086 1.391 . S
H1088 C1096 0.950 . S
H1089 C1101 0.950 . S
H1090 C1098 0.950 . S
H1091 C1100 0.950 . S
H1092 C1102 0.950 . S
H1093 C1104 0.950 . S
H1094 C1106 0.950 . S
H1095 C1107 0.950 . S
C1096 H1088 0.950 . S
C1096 C1097 1.386 . S
C1096 C1098 1.391 . S
C1097 C1096 1.386 . S
C1097 C1101 1.393 . S
C1098 H1090 0.950 . S
C1098 C1096 1.391 . S
C1098 C1099 1.400 . S
C1099 C1098 1.400 . S
C1099 C1100 1.398 . S
C1099 C1105 1.491 . S
C1100 H1091 0.950 . S
C1100 C1099 1.398 . S
C1100 C1101 1.391 . S
C1101 H1089 0.950 . S
C1101 C1097 1.393 . S
C1101 C1100 1.391 . S
C1102 H1092 0.950 . S
C1102 C1103 1.386 . S
C1102 C1104 1.391 . S
C1103 C1102 1.386 . S
C1103 C1107 1.393 . S
C1104 H1093 0.950 . S
C1104 C1102 1.391 . S
C1104 C1105 1.400 . S
C1105 C1099 1.491 . S
C1105 C1104 1.400 . S
C1105 C1106 1.398 . S
C1106 H1094 0.950 . S
C1106 C1105 1.398 . S
C1106 C1107 1.391 . S
C1107 H1095 0.950 . S
C1107 C1103 1.393 . S
C1107 C1106 1.391 . S
H1108 C1116 0.950 . S
H1109 C1121 0.950 . S
H1110 C1118 0.950 . S
H1111 C1120 0.950 . S
H1112 C1122 0.950 . S
H1113 C1124 0.950 . S
H1114 C1126 0.950 . S
H1115 C1127 0.950 . S
C1116 H1108 0.950 . S
C1116 C1117 1.386 . S
C1116 C1118 1.391 . S
C1117 C1116 1.386 . S
C1117 C1121 1.393 . S
C1118 H1110 0.950 . S
C1118 C1116 1.391 . S
C1118 C1119 1.400 . S
C1119 C1118 1.400 . S
C1119 C1120 1.398 . S
C1119 C1125 1.491 . S
C1120 H1111 0.950 . S
C1120 C1119 1.398 . S
C1120 C1121 1.391 . S
C1121 H1109 0.950 . S
C1121 C1117 1.393 . S
C1121 C1120 1.391 . S
C1122 H1112 0.950 . S
C1122 C1123 1.386 . S
C1122 C1124 1.391 . S
C1123 C1122 1.386 . S
C1123 C1127 1.393 . S
C1124 H1113 0.950 . S
C1124 C1122 1.391 . S
C1124 C1125 1.400 . S
C1125 C1119 1.491 . S
C1125 C1124 1.400 . S
C1125 C1126 1.398 . S
C1126 H1114 0.950 . S
C1126 C1125 1.398 . S
C1126 C1127 1.391 . S
C1127 H1115 0.950 . S
C1127 C1123 1.393 . S
C1127 C1126 1.391 . S
H1128 C1136 0.950 . S
H1129 C1141 0.950 . S
H1130 C1138 0.950 . S
H1131 C1140 0.950 . S
H1132 C1142 0.950 . S
H1133 C1144 0.950 . S
H1134 C1146 0.950 . S
H1135 C1147 0.950 . S
C1136 H1128 0.950 . S
C1136 C1137 1.386 . S
C1136 C1138 1.391 . S
C1137 C1136 1.386 . S
C1137 C1141 1.393 . S
C1138 H1130 0.950 . S
C1138 C1136 1.391 . S
C1138 C1139 1.400 . S
C1139 C1138 1.400 . S
C1139 C1140 1.398 . S
C1139 C1145 1.491 . S
C1140 H1131 0.950 . S
C1140 C1139 1.398 . S
C1140 C1141 1.391 . S
C1141 H1129 0.950 . S
C1141 C1137 1.393 . S
C1141 C1140 1.391 . S
C1142 H1132 0.950 . S
C1142 C1143 1.386 . S
C1142 C1144 1.391 . S
C1143 C1142 1.386 . S
C1143 C1147 1.393 . S
C1144 H1133 0.950 . S
C1144 C1142 1.391 . S
C1144 C1145 1.400 . S
C1145 C1139 1.491 . S
C1145 C1144 1.400 . S
C1145 C1146 1.398 . S
C1146 H1134 0.950 . S
C1146 C1145 1.398 . S
C1146 C1147 1.391 . S
C1147 H1135 0.950 . S
C1147 C1143 1.393 . S
C1147 C1146 1.391 . S
H1148 C1156 0.950 . S
H1149 C1161 0.950 . S
H1150 C1158 0.950 . S
H1151 C1160 0.950 . S
H1152 C1162 0.950 . S
H1153 C1164 0.950 1_554 S
H1154 C1166 0.950 1_554 S
H1155 C1167 0.950 . S
C1156 H1148 0.950 . S
C1156 C1157 1.386 . S
C1156 C1158 1.391 . S
C1157 C1156 1.386 . S
C1157 C1161 1.393 . S
C1158 H1150 0.950 . S
C1158 C1156 1.391 . S
C1158 C1159 1.400 . S
C1159 C1158 1.400 . S
C1159 C1160 1.398 . S
C1159 C1165 1.491 . S
C1160 H1151 0.950 . S
C1160 C1159 1.398 . S
C1160 C1161 1.391 . S
C1161 H1149 0.950 . S
C1161 C1157 1.393 . S
C1161 C1160 1.391 . S
C1162 H1152 0.950 . S
C1162 C1163 1.386 . S
C1162 C1164 1.391 . S
C1163 C1162 1.386 . S
C1163 C1167 1.393 . S
C1164 H1153 0.950 1_556 S
C1164 C1162 1.391 . S
C1164 C1165 1.400 1_556 S
C1165 C1159 1.491 . S
C1165 C1164 1.400 1_554 S
C1165 C1166 1.398 1_554 S
C1166 H1154 0.950 1_556 S
C1166 C1165 1.398 1_556 S
C1166 C1167 1.391 . S
C1167 H1155 0.950 . S
C1167 C1163 1.393 . S
C1167 C1166 1.391 . S
H1168 C1176 0.950 . S
H1169 C1181 0.950 . S
H1170 C1178 0.950 . S
H1171 C1180 0.950 . S
H1172 C1182 0.950 . S
H1173 C1184 0.950 . S
H1174 C1186 0.950 . S
H1175 C1187 0.950 . S
C1176 H1168 0.950 . S
C1176 C1177 1.386 . S
C1176 C1178 1.391 . S
C1177 C1176 1.386 . S
C1177 C1181 1.393 . S
C1178 H1170 0.950 . S
C1178 C1176 1.391 . S
C1178 C1179 1.400 . S
C1179 C1178 1.400 . S
C1179 C1180 1.398 . S
C1179 C1185 1.491 . S
C1180 H1171 0.950 . S
C1180 C1179 1.398 . S
C1180 C1181 1.391 . S
C1181 H1169 0.950 . S
C1181 C1177 1.393 . S
C1181 C1180 1.391 . S
C1182 H1172 0.950 . S
C1182 C1183 1.386 . S
C1182 C1184 1.391 . S
C1183 C1182 1.386 . S
C1183 C1187 1.393 . S
C1184 H1173 0.950 . S
C1184 C1182 1.391 . S
C1184 C1185 1.400 . S
C1185 C1179 1.491 . S
C1185 C1184 1.400 . S
C1185 C1186 1.398 . S
C1186 H1174 0.950 . S
C1186 C1185 1.398 . S
C1186 C1187 1.391 . S
C1187 H1175 0.950 . S
C1187 C1183 1.393 . S
C1187 C1186 1.391 . S
H1188 C1196 0.950 . S
H1189 C1201 0.950 . S
H1190 C1198 0.950 . S
H1191 C1200 0.950 . S
H1192 C1202 0.950 . S
H1193 C1204 0.950 . S
H1194 C1206 0.950 . S
H1195 C1207 0.950 . S
C1196 H1188 0.950 . S
C1196 C1197 1.386 . S
C1196 C1198 1.391 . S
C1197 C1196 1.386 . S
C1197 C1201 1.393 . S
C1198 H1190 0.950 . S
C1198 C1196 1.391 . S
C1198 C1199 1.400 . S
C1199 C1198 1.400 . S
C1199 C1200 1.398 . S
C1199 C1205 1.491 . S
C1200 H1191 0.950 . S
C1200 C1199 1.398 . S
C1200 C1201 1.391 . S
C1201 H1189 0.950 . S
C1201 C1197 1.393 . S
C1201 C1200 1.391 . S
C1202 H1192 0.950 . S
C1202 C1203 1.386 . S
C1202 C1204 1.391 . S
C1203 C1202 1.386 . S
C1203 C1207 1.393 . S
C1204 H1193 0.950 . S
C1204 C1202 1.391 . S
C1204 C1205 1.400 . S
C1205 C1199 1.491 . S
C1205 C1204 1.400 . S
C1205 C1206 1.398 . S
C1206 H1194 0.950 . S
C1206 C1205 1.398 . S
C1206 C1207 1.391 . S
C1207 H1195 0.950 . S
C1207 C1203 1.393 . S
C1207 C1206 1.391 . S
H1208 C1216 0.950 . S
H1209 C1221 0.950 . S
H1210 C1218 0.950 . S
H1211 C1220 0.950 . S
H1212 C1222 0.950 . S
H1213 C1224 0.950 . S
H1214 C1226 0.950 . S
H1215 C1227 0.950 . S
C1216 H1208 0.950 . S
C1216 C1217 1.386 . S
C1216 C1218 1.391 . S
C1217 C1216 1.386 . S
C1217 C1221 1.393 . S
C1218 H1210 0.950 . S
C1218 C1216 1.391 . S
C1218 C1219 1.400 . S
C1219 C1218 1.400 . S
C1219 C1220 1.398 . S
C1219 C1225 1.491 . S
C1220 H1211 0.950 . S
C1220 C1219 1.398 . S
C1220 C1221 1.391 . S
C1221 H1209 0.950 . S
C1221 C1217 1.393 . S
C1221 C1220 1.391 . S
C1222 H1212 0.950 . S
C1222 C1223 1.386 . S
C1222 C1224 1.391 . S
C1223 C1222 1.386 . S
C1223 C1227 1.393 . S
C1224 H1213 0.950 . S
C1224 C1222 1.391 . S
C1224 C1225 1.400 . S
C1225 C1219 1.491 . S
C1225 C1224 1.400 . S
C1225 C1226 1.398 . S
C1226 H1214 0.950 . S
C1226 C1225 1.398 . S
C1226 C1227 1.391 . S
C1227 H1215 0.950 . S
C1227 C1223 1.393 . S
C1227 C1226 1.391 . S
H1228 C1236 0.950 . S
H1229 C1241 0.950 . S
H1230 C1238 0.950 1_554 S
H1231 C1240 0.950 1_554 S
H1232 C1242 0.950 . S
H1233 C1244 0.950 . S
H1234 C1246 0.950 . S
H1235 C1247 0.950 . S
C1236 H1228 0.950 . S
C1236 C1237 1.386 . S
C1236 C1238 1.391 . S
C1237 C1236 1.386 . S
C1237 C1241 1.393 . S
C1238 H1230 0.950 1_556 S
C1238 C1236 1.391 . S
C1238 C1239 1.400 1_556 S
C1239 C1238 1.400 1_554 S
C1239 C1240 1.398 1_554 S
C1239 C1245 1.491 . S
C1240 H1231 0.950 1_556 S
C1240 C1239 1.398 1_556 S
C1240 C1241 1.391 . S
C1241 H1229 0.950 . S
C1241 C1237 1.393 . S
C1241 C1240 1.391 . S
C1242 H1232 0.950 . S
C1242 C1243 1.386 . S
C1242 C1244 1.391 . S
C1243 C1242 1.386 . S
C1243 C1247 1.393 . S
C1244 H1233 0.950 . S
C1244 C1242 1.391 . S
C1244 C1245 1.400 . S
C1245 C1239 1.491 . S
C1245 C1244 1.400 . S
C1245 C1246 1.398 . S
C1246 H1234 0.950 . S
C1246 C1245 1.398 . S
C1246 C1247 1.391 . S
C1247 H1235 0.950 . S
C1247 C1243 1.393 . S
C1247 C1246 1.391 . S
H1248 C1256 0.950 . S
H1249 C1261 0.950 . S
H1250 C1258 0.950 . S
H1251 C1260 0.950 . S
H1252 C1262 0.950 . S
H1253 C1264 0.950 . S
H1254 C1266 0.950 . S
H1255 C1267 0.950 . S
C1256 H1248 0.950 . S
C1256 C1257 1.386 1_545 S
C1256 C1258 1.391 . S
C1257 C1256 1.386 1_565 S
C1257 C1261 1.393 . S
C1258 H1250 0.950 . S
C1258 C1256 1.391 . S
C1258 C1259 1.393 1_545 S
C1259 C1258 1.393 1_565 S
C1259 C1260 1.407 . S
C1259 C1265 1.489 1_565 S
C1260 H1251 0.950 . S
C1260 C1259 1.407 . S
C1260 C1261 1.391 . S
C1261 H1249 0.950 . S
C1261 C1257 1.393 . S
C1261 C1260 1.391 . S
C1262 H1252 0.950 . S
C1262 C1263 1.386 1_565 S
C1262 C1264 1.391 . S
C1263 C1262 1.386 1_545 S
C1263 C1267 1.393 . S
C1264 H1253 0.950 . S
C1264 C1262 1.391 . S
C1264 C1265 1.392 1_565 S
C1265 C1259 1.489 1_545 S
C1265 C1264 1.392 1_545 S
C1265 C1266 1.408 . S
C1266 H1254 0.950 . S
C1266 C1265 1.408 . S
C1266 C1267 1.391 . S
C1267 H1255 0.950 . S
C1267 C1263 1.393 . S
C1267 C1266 1.391 . S
H1268 C1276 0.950 . S
H1269 C1281 0.950 . S
H1270 C1278 0.950 . S
H1271 C1280 0.950 . S
H1272 C1282 0.950 . S
H1273 C1284 0.950 1_554 S
H1274 C1286 0.950 1_554 S
H1275 C1287 0.950 . S
C1276 H1268 0.950 . S
C1276 C1277 1.386 . S
C1276 C1278 1.391 . S
C1277 C1276 1.386 . S
C1277 C1281 1.393 . S
C1278 H1270 0.950 . S
C1278 C1276 1.391 . S
C1278 C1279 1.400 . S
C1279 C1278 1.400 . S
C1279 C1280 1.398 . S
C1279 C1285 1.491 . S
C1280 H1271 0.950 . S
C1280 C1279 1.398 . S
C1280 C1281 1.391 . S
C1281 H1269 0.950 . S
C1281 C1277 1.393 . S
C1281 C1280 1.391 . S
C1282 H1272 0.950 . S
C1282 C1283 1.386 . S
C1282 C1284 1.391 . S
C1283 C1282 1.386 . S
C1283 C1287 1.393 . S
C1284 H1273 0.950 1_556 S
C1284 C1282 1.391 . S
C1284 C1285 1.400 1_556 S
C1285 C1279 1.491 . S
C1285 C1284 1.400 1_554 S
C1285 C1286 1.398 1_554 S
C1286 H1274 0.950 1_556 S
C1286 C1285 1.398 1_556 S
C1286 C1287 1.391 . S
C1287 H1275 0.950 . S
C1287 C1283 1.393 . S
C1287 C1286 1.391 . S
H1288 C1296 0.950 . S
H1289 C1301 0.950 . S
H1290 C1298 0.950 . S
H1291 C1300 0.950 . S
H1292 C1302 0.950 . S
H1293 C1304 0.950 . S
H1294 C1306 0.950 . S
H1295 C1307 0.950 . S
C1296 H1288 0.950 . S
C1296 C1297 1.421 . S
C1296 C1298 1.391 . S
C1297 C1296 1.421 . S
C1297 C1301 1.359 1_565 S
C1298 H1290 0.950 . S
C1298 C1296 1.391 . S
C1298 C1299 1.411 . S
C1299 C1298 1.411 . S
C1299 C1300 1.389 1_565 S
C1299 C1305 1.490 1_565 S
C1300 H1291 0.950 . S
C1300 C1299 1.389 1_545 S
C1300 C1301 1.391 . S
C1301 H1289 0.950 . S
C1301 C1297 1.359 1_545 S
C1301 C1300 1.391 . S
C1302 H1292 0.950 . S
C1302 C1303 1.420 . S
C1302 C1304 1.391 . S
C1303 C1302 1.420 . S
C1303 C1307 1.360 1_545 S
C1304 H1293 0.950 . S
C1304 C1302 1.391 . S
C1304 C1305 1.409 . S
C1305 C1299 1.490 1_545 S
C1305 C1304 1.409 . S
C1305 C1306 1.390 1_545 S
C1306 H1294 0.950 . S
C1306 C1305 1.390 1_565 S
C1306 C1307 1.391 . S
C1307 H1295 0.950 . S
C1307 C1303 1.360 1_565 S
C1307 C1306 1.391 . S
H1308 C1316 0.950 . S
H1309 C1321 0.950 . S
H1310 C1318 0.950 . S
H1311 C1320 0.950 . S
H1312 C1322 0.950 . S
H1313 C1324 0.950 . S
H1314 C1326 0.950 . S
H1315 C1327 0.950 . S
C1316 H1308 0.950 . S
C1316 C1317 1.386 . S
C1316 C1318 1.391 . S
C1317 C1316 1.386 . S
C1317 C1321 1.393 . S
C1318 H1310 0.950 . S
C1318 C1316 1.391 . S
C1318 C1319 1.400 . S
C1319 C1318 1.400 . S
C1319 C1320 1.398 . S
C1319 C1325 1.491 . S
C1320 H1311 0.950 . S
C1320 C1319 1.398 . S
C1320 C1321 1.391 . S
C1321 H1309 0.950 . S
C1321 C1317 1.393 . S
C1321 C1320 1.391 . S
C1322 H1312 0.950 . S
C1322 C1323 1.386 . S
C1322 C1324 1.391 . S
C1323 C1322 1.386 . S
C1323 C1327 1.393 . S
C1324 H1313 0.950 . S
C1324 C1322 1.391 . S
C1324 C1325 1.400 . S
C1325 C1319 1.491 . S
C1325 C1324 1.400 . S
C1325 C1326 1.398 . S
C1326 H1314 0.950 . S
C1326 C1325 1.398 . S
C1326 C1327 1.391 . S
C1327 H1315 0.950 . S
C1327 C1323 1.393 . S
C1327 C1326 1.391 . S
H1328 C1336 0.950 . S
H1329 C1341 0.950 . S
H1330 C1338 0.950 . S
H1331 C1340 0.950 . S
H1332 C1342 0.950 . S
H1333 C1344 0.950 . S
H1334 C1346 0.950 . S
H1335 C1347 0.950 . S
C1336 H1328 0.950 . S
C1336 C1337 1.384 1_565 S
C1336 C1338 1.391 . S
C1337 C1336 1.384 1_545 S
C1337 C1341 1.395 . S
C1338 H1330 0.950 . S
C1338 C1336 1.391 . S
C1338 C1339 1.398 1_565 S
C1339 C1338 1.398 1_545 S
C1339 C1340 1.401 . S
C1339 C1345 1.490 1_545 S
C1340 H1331 0.950 . S
C1340 C1339 1.401 . S
C1340 C1341 1.391 . S
C1341 H1329 0.950 . S
C1341 C1337 1.395 . S
C1341 C1340 1.391 . S
C1342 H1332 0.950 . S
C1342 C1343 1.385 1_545 S
C1342 C1344 1.391 . S
C1343 C1342 1.385 1_565 S
C1343 C1347 1.394 . S
C1344 H1333 0.950 . S
C1344 C1342 1.391 . S
C1344 C1345 1.398 1_545 S
C1345 C1339 1.490 1_565 S
C1345 C1344 1.398 1_565 S
C1345 C1346 1.400 . S
C1346 H1334 0.950 . S
C1346 C1345 1.400 . S
C1346 C1347 1.391 . S
C1347 H1335 0.950 . S
C1347 C1343 1.394 . S
C1347 C1346 1.391 . S
H1348 C1356 0.950 . S
H1349 C1361 0.950 . S
H1350 C1358 0.950 . S
H1351 C1360 0.950 . S
H1352 C1362 0.950 . S
H1353 C1364 0.950 1_554 S
H1354 C1366 0.950 1_554 S
H1355 C1367 0.950 . S
C1356 H1348 0.950 . S
C1356 C1357 1.386 . S
C1356 C1358 1.391 . S
C1357 C1356 1.386 . S
C1357 C1361 1.393 . S
C1358 H1350 0.950 . S
C1358 C1356 1.391 . S
C1358 C1359 1.400 . S
C1359 C1358 1.400 . S
C1359 C1360 1.398 . S
C1359 C1365 1.491 . S
C1360 H1351 0.950 . S
C1360 C1359 1.398 . S
C1360 C1361 1.391 . S
C1361 H1349 0.950 . S
C1361 C1357 1.393 . S
C1361 C1360 1.391 . S
C1362 H1352 0.950 . S
C1362 C1363 1.386 . S
C1362 C1364 1.391 . S
C1363 C1362 1.386 . S
C1363 C1367 1.393 . S
C1364 H1353 0.950 1_556 S
C1364 C1362 1.391 . S
C1364 C1365 1.400 1_556 S
C1365 C1359 1.491 . S
C1365 C1364 1.400 1_554 S
C1365 C1366 1.398 1_554 S
C1366 H1354 0.950 1_556 S
C1366 C1365 1.398 1_556 S
C1366 C1367 1.391 . S
C1367 H1355 0.950 . S
C1367 C1363 1.393 . S
C1367 C1366 1.391 . S
H1368 C1376 0.950 . S
H1369 C1381 0.950 . S
H1370 C1378 0.950 . S
H1371 C1380 0.950 . S
H1372 C1382 0.950 . S
H1373 C1384 0.950 . S
H1374 C1386 0.950 . S
H1375 C1387 0.950 . S
C1376 H1368 0.950 . S
C1376 C1377 1.397 . S
C1376 C1378 1.391 . S
C1377 C1376 1.397 . S
C1377 C1381 1.381 1_565 S
C1378 H1370 0.950 . S
C1378 C1376 1.391 . S
C1378 C1379 1.395 . S
C1379 C1378 1.395 . S
C1379 C1380 1.404 1_565 S
C1379 C1385 1.491 . S
C1380 H1371 0.950 . S
C1380 C1379 1.404 1_545 S
C1380 C1381 1.391 . S
C1381 H1369 0.950 . S
C1381 C1377 1.381 1_545 S
C1381 C1380 1.391 . S
C1382 H1372 0.950 . S
C1382 C1383 1.395 . S
C1382 C1384 1.391 . S
C1383 C1382 1.395 . S
C1383 C1387 1.383 1_545 S
C1384 H1373 0.950 . S
C1384 C1382 1.391 . S
C1384 C1385 1.406 1_545 S
C1385 C1379 1.491 . S
C1385 C1384 1.406 1_565 S
C1385 C1386 1.392 . S
C1386 H1374 0.950 . S
C1386 C1385 1.392 . S
C1386 C1387 1.391 . S
C1387 H1375 0.950 . S
C1387 C1383 1.383 1_565 S
C1387 C1386 1.391 . S
H1388 C1396 0.950 . S
H1389 C1401 0.950 . S
H1390 C1398 0.950 . S
H1391 C1400 0.950 . S
H1392 C1402 0.950 . S
H1393 C1404 0.950 . S
H1394 C1406 0.950 . S
H1395 C1407 0.950 . S
C1396 H1388 0.950 . S
C1396 C1397 1.386 . S
C1396 C1398 1.391 . S
C1397 C1396 1.386 . S
C1397 C1401 1.393 . S
C1398 H1390 0.950 . S
C1398 C1396 1.391 . S
C1398 C1399 1.400 . S
C1399 C1398 1.400 . S
C1399 C1400 1.398 . S
C1399 C1405 1.491 . S
C1400 H1391 0.950 . S
C1400 C1399 1.398 . S
C1400 C1401 1.391 . S
C1401 H1389 0.950 . S
C1401 C1397 1.393 . S
C1401 C1400 1.391 . S
C1402 H1392 0.950 . S
C1402 C1403 1.386 . S
C1402 C1404 1.391 . S
C1403 C1402 1.386 . S
C1403 C1407 1.393 . S
C1404 H1393 0.950 . S
C1404 C1402 1.391 . S
C1404 C1405 1.400 . S
C1405 C1399 1.491 . S
C1405 C1404 1.400 . S
C1405 C1406 1.398 . S
C1406 H1394 0.950 . S
C1406 C1405 1.398 . S
C1406 C1407 1.391 . S
C1407 H1395 0.950 . S
C1407 C1403 1.393 . S
C1407 C1406 1.391 . S
H1408 C1416 0.950 . S
H1409 C1421 0.950 . S
H1410 C1418 0.950 . S
H1411 C1420 0.950 . S
H1412 C1422 0.950 . S
H1413 C1424 0.950 . S
H1414 C1426 0.950 . S
H1415 C1427 0.950 . S
C1416 H1408 0.950 . S
C1416 C1417 1.386 . S
C1416 C1418 1.391 . S
C1417 C1416 1.386 . S
C1417 C1421 1.393 . S
C1418 H1410 0.950 . S
C1418 C1416 1.391 . S
C1418 C1419 1.400 . S
C1419 C1418 1.400 . S
C1419 C1420 1.398 . S
C1419 C1425 1.491 . S
C1420 H1411 0.950 . S
C1420 C1419 1.398 . S
C1420 C1421 1.391 . S
C1421 H1409 0.950 . S
C1421 C1417 1.393 . S
C1421 C1420 1.391 . S
C1422 H1412 0.950 . S
C1422 C1423 1.386 . S
C1422 C1424 1.391 . S
C1423 C1422 1.386 . S
C1423 C1427 1.393 . S
C1424 H1413 0.950 . S
C1424 C1422 1.391 . S
C1424 C1425 1.400 . S
C1425 C1419 1.491 . S
C1425 C1424 1.400 . S
C1425 C1426 1.398 . S
C1426 H1414 0.950 . S
C1426 C1425 1.398 . S
C1426 C1427 1.391 . S
C1427 H1415 0.950 . S
C1427 C1423 1.393 . S
C1427 C1426 1.391 . S
H1428 C1436 0.950 . S
H1429 C1441 0.950 . S
H1430 C1438 0.950 . S
H1431 C1440 0.950 . S
H1432 C1442 0.950 . S
H1433 C1444 0.950 . S
H1434 C1446 0.950 . S
H1435 C1447 0.950 . S
C1436 H1428 0.950 . S
C1436 C1437 1.386 . S
C1436 C1438 1.391 . S
C1437 C1436 1.386 . S
C1437 C1441 1.393 . S
C1438 H1430 0.950 . S
C1438 C1436 1.391 . S
C1438 C1439 1.400 . S
C1439 C1438 1.400 . S
C1439 C1440 1.398 . S
C1439 C1445 1.491 . S
C1440 H1431 0.950 . S
C1440 C1439 1.398 . S
C1440 C1441 1.391 . S
C1441 H1429 0.950 . S
C1441 C1437 1.393 . S
C1441 C1440 1.391 . S
C1442 H1432 0.950 . S
C1442 C1443 1.386 . S
C1442 C1444 1.391 . S
C1443 C1442 1.386 . S
C1443 C1447 1.393 . S
C1444 H1433 0.950 . S
C1444 C1442 1.391 . S
C1444 C1445 1.400 . S
C1445 C1439 1.491 . S
C1445 C1444 1.400 . S
C1445 C1446 1.398 . S
C1446 H1434 0.950 . S
C1446 C1445 1.398 . S
C1446 C1447 1.391 . S
C1447 H1435 0.950 . S
C1447 C1443 1.393 . S
C1447 C1446 1.391 . S
H1448 C1456 0.950 . S
H1449 C1461 0.950 . S
H1450 C1458 0.950 . S
H1451 C1460 0.950 . S
H1452 C1462 0.950 . S
H1453 C1464 0.950 . S
H1454 C1466 0.950 . S
H1455 C1467 0.950 . S
C1456 H1448 0.950 . S
C1456 C1457 1.386 . S
C1456 C1458 1.391 . S
C1457 C1456 1.386 . S
C1457 C1461 1.393 . S
C1458 H1450 0.950 . S
C1458 C1456 1.391 . S
C1458 C1459 1.400 . S
C1459 C1458 1.400 . S
C1459 C1460 1.398 . S
C1459 C1465 1.491 . S
C1460 H1451 0.950 . S
C1460 C1459 1.398 . S
C1460 C1461 1.391 . S
C1461 H1449 0.950 . S
C1461 C1457 1.393 . S
C1461 C1460 1.391 . S
C1462 H1452 0.950 . S
C1462 C1463 1.386 . S
C1462 C1464 1.391 . S
C1463 C1462 1.386 . S
C1463 C1467 1.393 . S
C1464 H1453 0.950 . S
C1464 C1462 1.391 . S
C1464 C1465 1.400 . S
C1465 C1459 1.491 . S
C1465 C1464 1.400 . S
C1465 C1466 1.398 . S
C1466 H1454 0.950 . S
C1466 C1465 1.398 . S
C1466 C1467 1.391 . S
C1467 H1455 0.950 . S
C1467 C1463 1.393 . S
C1467 C1466 1.391 . S
H1468 C1476 0.950 . S
H1469 C1481 0.950 . S
H1470 C1478 0.950 . S
H1471 C1480 0.950 . S
H1472 C1482 0.950 . S
H1473 C1484 0.950 . S
H1474 C1486 0.950 . S
H1475 C1487 0.950 1_554 S
C1476 H1468 0.950 . S
C1476 C1477 1.386 . S
C1476 C1478 1.391 . S
C1477 C1476 1.386 . S
C1477 C1481 1.393 . S
C1478 H1470 0.950 . S
C1478 C1476 1.391 . S
C1478 C1479 1.400 . S
C1479 C1478 1.400 . S
C1479 C1480 1.398 . S
C1479 C1485 1.491 . S
C1480 H1471 0.950 . S
C1480 C1479 1.398 . S
C1480 C1481 1.391 . S
C1481 H1469 0.950 . S
C1481 C1477 1.393 . S
C1481 C1480 1.391 . S
C1482 H1472 0.950 . S
C1482 C1483 1.386 . S
C1482 C1484 1.391 . S
C1483 C1482 1.386 . S
C1483 C1487 1.393 . S
C1484 H1473 0.950 . S
C1484 C1482 1.391 . S
C1484 C1485 1.400 . S
C1485 C1479 1.491 . S
C1485 C1484 1.400 . S
C1485 C1486 1.398 . S
C1486 H1474 0.950 . S
C1486 C1485 1.398 . S
C1486 C1487 1.391 . S
C1487 H1475 0.950 1_556 S
C1487 C1483 1.393 . S
C1487 C1486 1.391 . S
H1488 C1496 0.950 . S
H1489 C1501 0.950 . S
H1490 C1498 0.950 . S
H1491 C1500 0.950 . S
H1492 C1502 0.950 . S
H1493 C1504 0.950 . S
H1494 C1506 0.950 . S
H1495 C1507 0.950 . S
C1496 H1488 0.950 . S
C1496 C1497 1.386 . S
C1496 C1498 1.391 . S
C1497 C1496 1.386 . S
C1497 C1501 1.393 . S
C1498 H1490 0.950 . S
C1498 C1496 1.391 . S
C1498 C1499 1.400 . S
C1499 C1498 1.400 . S
C1499 C1500 1.398 . S
C1499 C1505 1.491 . S
C1500 H1491 0.950 . S
C1500 C1499 1.398 . S
C1500 C1501 1.391 . S
C1501 H1489 0.950 . S
C1501 C1497 1.393 . S
C1501 C1500 1.391 . S
C1502 H1492 0.950 . S
C1502 C1503 1.386 . S
C1502 C1504 1.391 . S
C1503 C1502 1.386 . S
C1503 C1507 1.393 . S
C1504 H1493 0.950 . S
C1504 C1502 1.391 . S
C1504 C1505 1.400 . S
C1505 C1499 1.491 . S
C1505 C1504 1.400 . S
C1505 C1506 1.398 . S
C1506 H1494 0.950 . S
C1506 C1505 1.398 . S
C1506 C1507 1.391 . S
C1507 H1495 0.950 . S
C1507 C1503 1.393 . S
C1507 C1506 1.391 . S
H1508 C1516 0.950 . S
H1509 C1521 0.950 . S
H1510 C1518 0.950 . S
H1511 C1520 0.950 . S
H1512 C1522 0.950 . S
H1513 C1524 0.950 . S
H1514 C1526 0.950 . S
H1515 C1527 0.950 . S
C1516 H1508 0.950 . S
C1516 C1517 1.386 . S
C1516 C1518 1.391 . S
C1517 C1516 1.386 . S
C1517 C1521 1.393 . S
C1518 H1510 0.950 . S
C1518 C1516 1.391 . S
C1518 C1519 1.400 . S
C1519 C1518 1.400 . S
C1519 C1520 1.398 . S
C1519 C1525 1.491 . S
C1520 H1511 0.950 . S
C1520 C1519 1.398 . S
C1520 C1521 1.391 . S
C1521 H1509 0.950 . S
C1521 C1517 1.393 . S
C1521 C1520 1.391 . S
C1522 H1512 0.950 . S
C1522 C1523 1.386 . S
C1522 C1524 1.391 . S
C1523 C1522 1.386 . S
C1523 C1527 1.393 . S
C1524 H1513 0.950 . S
C1524 C1522 1.391 . S
C1524 C1525 1.400 . S
C1525 C1519 1.491 . S
C1525 C1524 1.400 . S
C1525 C1526 1.398 . S
C1526 H1514 0.950 . S
C1526 C1525 1.398 . S
C1526 C1527 1.391 . S
C1527 H1515 0.950 . S
C1527 C1523 1.393 . S
C1527 C1526 1.391 . S
H1528 C1536 0.950 . S
H1529 C1541 0.950 . S
H1530 C1538 0.950 . S
H1531 C1540 0.950 . S
H1532 C1542 0.950 . S
H1533 C1544 0.957 . S
H1534 C1546 0.950 . S
H1535 C1547 0.950 . S
C1536 H1528 0.950 . S
C1536 C1537 1.386 . S
C1536 C1538 1.391 . S
C1537 C1536 1.386 . S
C1537 C1541 1.393 . S
C1538 H1530 0.950 . S
C1538 C1536 1.391 . S
C1538 C1539 1.400 . S
C1539 C1538 1.400 . S
C1539 C1540 1.398 . S
C1539 C1545 1.491 . S
C1540 H1531 0.950 . S
C1540 C1539 1.398 . S
C1540 C1541 1.391 . S
C1541 H1529 0.950 . S
C1541 C1537 1.393 . S
C1541 C1540 1.391 . S
C1542 H1532 0.950 . S
C1542 C1543 1.386 1_554 S
C1542 C1544 1.391 1_554 S
C1543 C1542 1.386 1_556 S
C1543 C1547 1.393 . S
C1544 H1533 0.957 . S
C1544 C1542 1.391 1_556 S
C1544 C1545 1.400 . S
C1545 C1539 1.491 . S
C1545 C1544 1.400 . S
C1545 C1546 1.398 . S
C1546 H1534 0.950 . S
C1546 C1545 1.398 . S
C1546 C1547 1.391 . S
C1547 H1535 0.950 . S
C1547 C1543 1.393 . S
C1547 C1546 1.391 . S
H1548 C1556 0.950 . S
H1549 C1561 0.950 . S
H1550 C1558 0.950 . S
H1551 C1560 0.950 . S
H1552 C1562 0.950 . S
H1553 C1564 0.950 . S
H1554 C1566 0.950 . S
H1555 C1567 0.950 . S
C1556 H1548 0.950 . S
C1556 C1557 1.386 . S
C1556 C1558 1.391 . S
C1557 C1556 1.386 . S
C1557 C1561 1.393 . S
C1558 H1550 0.950 . S
C1558 C1556 1.391 . S
C1558 C1559 1.400 . S
C1559 C1558 1.400 . S
C1559 C1560 1.398 . S
C1559 C1565 1.491 . S
C1560 H1551 0.950 . S
C1560 C1559 1.398 . S
C1560 C1561 1.391 . S
C1561 H1549 0.950 . S
C1561 C1557 1.393 . S
C1561 C1560 1.391 . S
C1562 H1552 0.950 . S
C1562 C1563 1.386 . S
C1562 C1564 1.391 . S
C1563 C1562 1.386 . S
C1563 C1567 1.393 . S
C1564 H1553 0.950 . S
C1564 C1562 1.391 . S
C1564 C1565 1.400 . S
C1565 C1559 1.491 . S
C1565 C1564 1.400 . S
C1565 C1566 1.398 . S
C1566 H1554 0.950 . S
C1566 C1565 1.398 . S
C1566 C1567 1.391 . S
C1567 H1555 0.950 . S
C1567 C1563 1.393 . S
C1567 C1566 1.391 . S
H1568 C1576 0.949 1_554 S
H1569 C1581 0.950 . S
H1570 C1578 0.950 . S
H1571 C1580 0.950 . S
H1572 C1582 0.950 . S
H1573 C1584 0.950 . S
H1574 C1586 0.950 . S
H1575 C1587 0.950 . S
C1576 H1568 0.949 1_556 S
C1576 C1577 1.386 . S
C1576 C1578 1.391 . S
C1577 C1576 1.386 . S
C1577 C1581 1.393 . S
C1578 H1570 0.950 . S
C1578 C1576 1.391 . S
C1578 C1579 1.400 . S
C1579 C1578 1.400 . S
C1579 C1580 1.398 . S
C1579 C1585 1.491 . S
C1580 H1571 0.950 . S
C1580 C1579 1.398 . S
C1580 C1581 1.391 . S
C1581 H1569 0.950 . S
C1581 C1577 1.393 . S
C1581 C1580 1.391 . S
C1582 H1572 0.950 . S
C1582 C1583 1.386 . S
C1582 C1584 1.391 . S
C1583 C1582 1.386 . S
C1583 C1587 1.393 . S
C1584 H1573 0.950 . S
C1584 C1582 1.391 . S
C1584 C1585 1.400 . S
C1585 C1579 1.491 . S
C1585 C1584 1.400 . S
C1585 C1586 1.398 . S
C1586 H1574 0.950 . S
C1586 C1585 1.398 . S
C1586 C1587 1.391 . S
C1587 H1575 0.950 . S
C1587 C1583 1.393 . S
C1587 C1586 1.391 . S
H1588 C1596 0.950 . S
H1589 C1601 0.950 . S
H1590 C1598 0.950 . S
H1591 C1600 0.950 . S
H1592 C1602 0.950 . S
H1593 C1604 0.950 . S
H1594 C1606 0.950 . S
H1595 C1607 0.950 . S
C1596 H1588 0.950 . S
C1596 C1597 1.386 . S
C1596 C1598 1.391 . S
C1597 C1596 1.386 . S
C1597 C1601 1.393 . S
C1598 H1590 0.950 . S
C1598 C1596 1.391 . S
C1598 C1599 1.400 . S
C1599 C1598 1.400 . S
C1599 C1600 1.398 . S
C1599 C1605 1.491 . S
C1600 H1591 0.950 . S
C1600 C1599 1.398 . S
C1600 C1601 1.391 . S
C1601 H1589 0.950 . S
C1601 C1597 1.393 . S
C1601 C1600 1.391 . S
C1602 H1592 0.950 . S
C1602 C1603 1.386 . S
C1602 C1604 1.391 . S
C1603 C1602 1.386 . S
C1603 C1607 1.393 . S
C1604 H1593 0.950 . S
C1604 C1602 1.391 . S
C1604 C1605 1.400 . S
C1605 C1599 1.491 . S
C1605 C1604 1.400 . S
C1605 C1606 1.398 . S
C1606 H1594 0.950 . S
C1606 C1605 1.398 . S
C1606 C1607 1.391 . S
C1607 H1595 0.950 . S
C1607 C1603 1.393 . S
C1607 C1606 1.391 . S
H1608 C1616 0.950 . S
H1609 C1621 0.950 . S
H1610 C1618 0.950 . S
H1611 C1620 0.950 . S
H1612 C1622 0.950 . S
H1613 C1624 0.950 . S
H1614 C1626 0.950 . S
H1615 C1627 0.950 . S
C1616 H1608 0.950 . S
C1616 C1617 1.386 . S
C1616 C1618 1.391 . S
C1617 C1616 1.386 . S
C1617 C1621 1.393 . S
C1618 H1610 0.950 . S
C1618 C1616 1.391 . S
C1618 C1619 1.400 . S
C1619 C1618 1.400 . S
C1619 C1620 1.398 . S
C1619 C1625 1.491 . S
C1620 H1611 0.950 . S
C1620 C1619 1.398 . S
C1620 C1621 1.391 . S
C1621 H1609 0.950 . S
C1621 C1617 1.393 . S
C1621 C1620 1.391 . S
C1622 H1612 0.950 . S
C1622 C1623 1.386 . S
C1622 C1624 1.391 . S
C1623 C1622 1.386 . S
C1623 C1627 1.393 . S
C1624 H1613 0.950 . S
C1624 C1622 1.391 . S
C1624 C1625 1.400 . S
C1625 C1619 1.491 . S
C1625 C1624 1.400 . S
C1625 C1626 1.398 . S
C1626 H1614 0.950 . S
C1626 C1625 1.398 . S
C1626 C1627 1.391 . S
C1627 H1615 0.950 . S
C1627 C1623 1.393 . S
C1627 C1626 1.391 . S
H1628 C1636 0.950 . S
H1629 C1641 0.950 . S
H1630 C1638 0.950 . S
H1631 C1640 0.950 . S
H1632 C1642 0.950 . S
H1633 C1644 0.950 . S
H1634 C1646 0.950 . S
H1635 C1647 0.950 . S
C1636 H1628 0.950 . S
C1636 C1637 1.386 . S
C1636 C1638 1.391 . S
C1637 C1636 1.386 . S
C1637 C1641 1.393 . S
C1638 H1630 0.950 . S
C1638 C1636 1.391 . S
C1638 C1639 1.400 . S
C1639 C1638 1.400 . S
C1639 C1640 1.398 . S
C1639 C1645 1.491 . S
C1640 H1631 0.950 . S
C1640 C1639 1.398 . S
C1640 C1641 1.391 . S
C1641 H1629 0.950 . S
C1641 C1637 1.393 . S
C1641 C1640 1.391 . S
C1642 H1632 0.950 . S
C1642 C1643 1.386 . S
C1642 C1644 1.391 . S
C1643 C1642 1.386 . S
C1643 C1647 1.393 . S
C1644 H1633 0.950 . S
C1644 C1642 1.391 . S
C1644 C1645 1.400 . S
C1645 C1639 1.491 . S
C1645 C1644 1.400 . S
C1645 C1646 1.398 . S
C1646 H1634 0.950 . S
C1646 C1645 1.398 . S
C1646 C1647 1.391 . S
C1647 H1635 0.950 . S
C1647 C1643 1.393 . S
C1647 C1646 1.391 . S
H1648 C1656 0.950 . S
H1649 C1661 0.950 . S
H1650 C1658 0.950 . S
H1651 C1660 0.950 . S
H1652 C1662 0.950 . S
H1653 C1664 0.950 . S
H1654 C1666 0.950 . S
H1655 C1667 0.950 . S
C1656 H1648 0.950 . S
C1656 C1657 1.386 . S
C1656 C1658 1.391 . S
C1657 C1656 1.386 . S
C1657 C1661 1.393 . S
C1658 H1650 0.950 . S
C1658 C1656 1.391 . S
C1658 C1659 1.400 . S
C1659 C1658 1.400 . S
C1659 C1660 1.398 . S
C1659 C1665 1.491 . S
C1660 H1651 0.950 . S
C1660 C1659 1.398 . S
C1660 C1661 1.391 . S
C1661 H1649 0.950 . S
C1661 C1657 1.393 . S
C1661 C1660 1.391 . S
C1662 H1652 0.950 . S
C1662 C1663 1.386 . S
C1662 C1664 1.391 . S
C1663 C1662 1.386 . S
C1663 C1667 1.393 . S
C1664 H1653 0.950 . S
C1664 C1662 1.391 . S
C1664 C1665 1.400 . S
C1665 C1659 1.491 . S
C1665 C1664 1.400 . S
C1665 C1666 1.398 . S
C1666 H1654 0.950 . S
C1666 C1665 1.398 . S
C1666 C1667 1.391 . S
C1667 H1655 0.950 . S
C1667 C1663 1.393 . S
C1667 C1666 1.391 . S
H1668 C1676 0.950 . S
H1669 C1681 0.950 . S
H1670 C1678 0.950 . S
H1671 C1680 0.950 . S
H1672 C1682 0.950 . S
H1673 C1684 0.950 . S
H1674 C1686 0.950 . S
H1675 C1687 0.950 . S
C1676 H1668 0.950 . S
C1676 C1677 1.386 . S
C1676 C1678 1.391 . S
C1677 C1676 1.386 . S
C1677 C1681 1.393 . S
C1678 H1670 0.950 . S
C1678 C1676 1.391 . S
C1678 C1679 1.400 . S
C1679 C1678 1.400 . S
C1679 C1680 1.398 . S
C1679 C1685 1.491 . S
C1680 H1671 0.950 . S
C1680 C1679 1.398 . S
C1680 C1681 1.391 . S
C1681 H1669 0.950 . S
C1681 C1677 1.393 . S
C1681 C1680 1.391 . S
C1682 H1672 0.950 . S
C1682 C1683 1.386 . S
C1682 C1684 1.391 . S
C1683 C1682 1.386 . S
C1683 C1687 1.393 . S
C1684 H1673 0.950 . S
C1684 C1682 1.391 . S
C1684 C1685 1.400 . S
C1685 C1679 1.491 . S
C1685 C1684 1.400 . S
C1685 C1686 1.398 . S
C1686 H1674 0.950 . S
C1686 C1685 1.398 . S
C1686 C1687 1.391 . S
C1687 H1675 0.950 . S
C1687 C1683 1.393 . S
C1687 C1686 1.391 . S
H1688 C1696 0.950 . S
H1689 C1701 0.950 . S
H1690 C1698 0.950 . S
H1691 C1700 0.950 . S
H1692 C1702 0.950 . S
H1693 C1704 0.950 . S
H1694 C1706 0.950 . S
H1695 C1707 0.950 . S
C1696 H1688 0.950 . S
C1696 C1697 1.386 . S
C1696 C1698 1.391 . S
C1697 C1696 1.386 . S
C1697 C1701 1.393 . S
C1698 H1690 0.950 . S
C1698 C1696 1.391 . S
C1698 C1699 1.400 . S
C1699 C1698 1.400 . S
C1699 C1700 1.398 . S
C1699 C1705 1.491 . S
C1700 H1691 0.950 . S
C1700 C1699 1.398 . S
C1700 C1701 1.391 . S
C1701 H1689 0.950 . S
C1701 C1697 1.393 . S
C1701 C1700 1.391 . S
C1702 H1692 0.950 . S
C1702 C1703 1.386 . S
C1702 C1704 1.391 . S
C1703 C1702 1.386 . S
C1703 C1707 1.393 . S
C1704 H1693 0.950 . S
C1704 C1702 1.391 . S
C1704 C1705 1.400 . S
C1705 C1699 1.491 . S
C1705 C1704 1.400 . S
C1705 C1706 1.398 . S
C1706 H1694 0.950 . S
C1706 C1705 1.398 . S
C1706 C1707 1.391 . S
C1707 H1695 0.950 . S
C1707 C1703 1.393 . S
C1707 C1706 1.391 . S
H1708 C1716 0.950 . S
H1709 C1721 0.950 . S
H1710 C1718 0.950 . S
H1711 C1720 0.950 . S
H1712 C1722 0.950 . S
H1713 C1724 0.950 1_554 S
H1714 C1726 0.950 . S
H1715 C1727 0.950 . S
C1716 H1708 0.950 . S
C1716 C1717 1.386 . S
C1716 C1718 1.391 . S
C1717 C1716 1.386 . S
C1717 C1721 1.393 . S
C1718 H1710 0.950 . S
C1718 C1716 1.391 . S
C1718 C1719 1.400 . S
C1719 C1718 1.400 . S
C1719 C1720 1.398 . S
C1719 C1725 1.491 . S
C1720 H1711 0.950 . S
C1720 C1719 1.398 . S
C1720 C1721 1.391 . S
C1721 H1709 0.950 . S
C1721 C1717 1.393 . S
C1721 C1720 1.391 . S
C1722 H1712 0.950 . S
C1722 C1723 1.386 1_554 S
C1722 C1724 1.391 1_554 S
C1723 C1722 1.386 1_556 S
C1723 C1727 1.393 . S
C1724 H1713 0.950 1_556 S
C1724 C1722 1.391 1_556 S
C1724 C1725 1.400 . S
C1725 C1719 1.491 . S
C1725 C1724 1.400 . S
C1725 C1726 1.398 . S
C1726 H1714 0.950 . S
C1726 C1725 1.398 . S
C1726 C1727 1.391 . S
C1727 H1715 0.950 . S
C1727 C1723 1.393 . S
C1727 C1726 1.391 . S
C457 C121 1.378 . S
C463 C9 1.378 . S
C477 C23 1.400 . S
C483 C359 1.400 . S
C497 C37 1.398 . S
C503 C149 1.398 . S
C517 C51 1.402 . S
C523 C387 1.402 . S
C537 C65 1.394 . S
C543 C177 1.394 . S
C557 C415 1.384 . S
C563 C79 1.384 . S
C577 C205 1.378 . S
C583 C93 1.378 . S
C597 C443 1.401 . S
C603 C107 1.401 . S
C617 C247 1.401 . S
C623 C135 1.401 . S
C637 C163 1.401 . S
C643 C275 1.401 . S
C657 C191 1.385 . S
C663 C303 1.385 . S
C677 C331 1.391 . S
C683 C219 1.391 . S
C697 C345 1.380 . S
C703 C233 1.380 . S
C717 C261 1.378 . S
C723 C373 1.378 . S
C737 C289 1.399 . S
C743 C401 1.399 . S
C757 C429 1.376 . S
C763 C317 1.376 . S
C777 C3 1.330 . S
C783 C59 1.340 . S
C797 C73 1.323 . S
C803 C17 1.337 . S
C817 C87 1.322 . S
C823 C31 1.323 . S
C837 C45 1.334 . S
C843 C101 1.340 . S
C857 C115 1.322 . S
C863 C171 1.324 . S
C877 C129 1.325 . S
C883 C185 1.321 . S
C897 C199 1.321 . S
C903 C143 1.325 . S
C917 C213 1.338 . S
C923 C157 1.337 . S
C937 C283 1.320 . S
C943 C227 1.331 . S
C957 C297 1.335 . S
C963 C241 1.340 . S
C977 C255 1.340 . S
C983 C311 1.334 . S
C997 C325 1.330 . S
C1003 C269 1.340 . S
C1017 C395 1.320 . S
C1023 C339 1.329 . S
C1037 C353 1.327 . S
C1043 C409 1.320 . S
C1057 C423 1.325 . S
C1063 C367 1.321 . S
C1077 C437 1.325 . S
C1083 C381 1.321 . S
C1097 C63 0.502 . S
C1103 C7 0.466 . S
C1117 C77 0.490 . S
C1123 C21 0.472 . S
C1137 C35 0.509 . S
C1143 C91 0.467 . S
C1157 C105 0.467 . S
C1163 C49 0.501 . S
C1177 C175 0.493 . S
C1183 C119 0.506 . S
C1197 C133 0.504 . S
C1203 C189 0.495 . S
C1217 C203 0.472 . S
C1223 C147 0.513 . S
C1237 C217 0.513 . S
C1243 C161 0.476 . S
C1257 C231 0.474 . S
C1263 C287 0.487 . S
C1277 C301 0.474 . S
C1283 C245 0.513 . S
C1297 C315 0.512 . S
C1303 C259 0.479 . S
C1317 C329 0.466 . S
C1323 C273 0.505 . S
C1337 C399 0.495 1_545 S
C1343 C343 0.501 1_565 S
C1357 C357 0.512 . S
C1363 C413 0.480 . S
C1377 C371 0.476 . S
C1383 C427 0.516 . S
C1397 C385 0.508 . S
C1403 C441 0.466 . S
C1417 C8 1.513 . S
C1423 C302 1.512 . S
C1437 C316 1.510 . S
C1443 C22 1.512 . S
C1457 C36 1.510 . S
C1463 C330 1.512 . S
C1477 C50 1.499 . S
C1483 C288 1.498 1_556 S
C1497 C274 1.500 . S
C1503 C64 1.499 . S
C1517 C232 1.497 . S
C1523 C78 1.498 . S
C1537 C246 1.500 . S
C1543 C92 1.502 1_556 S
C1557 C106 1.502 . S
C1563 C260 1.500 . S
C1577 C120 1.514 1_556 S
C1583 C414 1.513 . S
C1597 C428 1.510 . S
C1603 C134 1.508 . S
C1617 C442 1.498 . S
C1623 C148 1.499 . S
C1637 C400 1.499 . S
C1643 C162 1.498 . S
C1657 C386 1.513 . S
C1663 C176 1.513 . S
C1677 C344 1.502 . S
C1683 C190 1.504 . S
C1697 C204 1.513 . S
C1703 C358 1.512 . S
C1717 C218 1.503 . S
C1723 C372 1.501 1_556 S
