# Generated by pormake.
# Topology une, (4)-cn, num edge types: 1
# Building blocks:
#     Node 0, Type 0, BuildingBlock: QUQFOY_clean_sbu_1, # of connection points: 4
#     Node 1, Type 0, BuildingBlock: QUQFOY_clean_sbu_1, # of connection points: 4
#     Node 2, Type 0, BuildingBlock: QUQFOY_clean_sbu_1, # of connection points: 4
#     Node 3, Type 0, BuildingBlock: QUQFOY_clean_sbu_1, # of connection points: 4
#     Node 4, Type 0, BuildingBlock: QUQFOY_clean_sbu_1, # of connection points: 4
#     Node 5, Type 0, BuildingBlock: QUQFOY_clean_sbu_1, # of connection points: 4
#     Node 6, Type 0, BuildingBlock: QUQFOY_clean_sbu_1, # of connection points: 4
#     Node 7, Type 0, BuildingBlock: QUQFOY_clean_sbu_1, # of connection points: 4
#     Node 8, Type 0, BuildingBlock: QUQFOY_clean_sbu_1, # of connection points: 4
#     Node 9, Type 0, BuildingBlock: QUQFOY_clean_sbu_1, # of connection points: 4
#     Node 10, Type 0, BuildingBlock: QUQFOY_clean_sbu_1, # of connection points: 4
#     Node 11, Type 0, BuildingBlock: QUQFOY_clean_sbu_1, # of connection points: 4
#     Node 12, Type 0, BuildingBlock: QUQFOY_clean_sbu_1, # of connection points: 4
#     Node 13, Type 0, BuildingBlock: QUQFOY_clean_sbu_1, # of connection points: 4
#     Node 14, Type 0, BuildingBlock: QUQFOY_clean_sbu_1, # of connection points: 4
#     Node 15, Type 0, BuildingBlock: QUQFOY_clean_sbu_1, # of connection points: 4
#     Node 16, Type 0, BuildingBlock: QUQFOY_clean_sbu_1, # of connection points: 4
#     Node 17, Type 0, BuildingBlock: QUQFOY_clean_sbu_1, # of connection points: 4
#     Edge 18, Type (0, 0), BuildingBlock: OJICUG_clean_linker_0, # of connection points: 2
#     Edge 19, Type (0, 0), BuildingBlock: OJICUG_clean_linker_0, # of connection points: 2
#     Edge 20, Type (0, 0), BuildingBlock: OJICUG_clean_linker_0, # of connection points: 2
#     Edge 21, Type (0, 0), BuildingBlock: OJICUG_clean_linker_0, # of connection points: 2
#     Edge 22, Type (0, 0), BuildingBlock: OJICUG_clean_linker_0, # of connection points: 2
#     Edge 23, Type (0, 0), BuildingBlock: OJICUG_clean_linker_0, # of connection points: 2
#     Edge 24, Type (0, 0), BuildingBlock: OJICUG_clean_linker_0, # of connection points: 2
#     Edge 25, Type (0, 0), BuildingBlock: OJICUG_clean_linker_0, # of connection points: 2
#     Edge 26, Type (0, 0), BuildingBlock: OJICUG_clean_linker_0, # of connection points: 2
#     Edge 27, Type (0, 0), BuildingBlock: OJICUG_clean_linker_0, # of connection points: 2
#     Edge 28, Type (0, 0), BuildingBlock: OJICUG_clean_linker_0, # of connection points: 2
#     Edge 29, Type (0, 0), BuildingBlock: OJICUG_clean_linker_0, # of connection points: 2
#     Edge 30, Type (0, 0), BuildingBlock: OJICUG_clean_linker_0, # of connection points: 2
#     Edge 31, Type (0, 0), BuildingBlock: OJICUG_clean_linker_0, # of connection points: 2
#     Edge 32, Type (0, 0), BuildingBlock: OJICUG_clean_linker_0, # of connection points: 2
#     Edge 33, Type (0, 0), BuildingBlock: OJICUG_clean_linker_0, # of connection points: 2
#     Edge 34, Type (0, 0), BuildingBlock: OJICUG_clean_linker_0, # of connection points: 2
#     Edge 35, Type (0, 0), BuildingBlock: OJICUG_clean_linker_0, # of connection points: 2
#     Edge 36, Type (0, 0), BuildingBlock: OJICUG_clean_linker_0, # of connection points: 2
#     Edge 37, Type (0, 0), BuildingBlock: OJICUG_clean_linker_0, # of connection points: 2
#     Edge 38, Type (0, 0), BuildingBlock: OJICUG_clean_linker_0, # of connection points: 2
#     Edge 39, Type (0, 0), BuildingBlock: OJICUG_clean_linker_0, # of connection points: 2
#     Edge 40, Type (0, 0), BuildingBlock: OJICUG_clean_linker_0, # of connection points: 2
#     Edge 41, Type (0, 0), BuildingBlock: OJICUG_clean_linker_0, # of connection points: 2
#     Edge 42, Type (0, 0), BuildingBlock: OJICUG_clean_linker_0, # of connection points: 2
#     Edge 43, Type (0, 0), BuildingBlock: OJICUG_clean_linker_0, # of connection points: 2
#     Edge 44, Type (0, 0), BuildingBlock: OJICUG_clean_linker_0, # of connection points: 2
#     Edge 45, Type (0, 0), BuildingBlock: OJICUG_clean_linker_0, # of connection points: 2
#     Edge 46, Type (0, 0), BuildingBlock: OJICUG_clean_linker_0, # of connection points: 2
#     Edge 47, Type (0, 0), BuildingBlock: OJICUG_clean_linker_0, # of connection points: 2
#     Edge 48, Type (0, 0), BuildingBlock: OJICUG_clean_linker_0, # of connection points: 2
#     Edge 49, Type (0, 0), BuildingBlock: OJICUG_clean_linker_0, # of connection points: 2
#     Edge 50, Type (0, 0), BuildingBlock: OJICUG_clean_linker_0, # of connection points: 2
#     Edge 51, Type (0, 0), BuildingBlock: OJICUG_clean_linker_0, # of connection points: 2
#     Edge 52, Type (0, 0), BuildingBlock: OJICUG_clean_linker_0, # of connection points: 2
#     Edge 53, Type (0, 0), BuildingBlock: OJICUG_clean_linker_0, # of connection points: 2
# Relax obj value: 0.110
# Max RMSD: 0.146
# Mean RMSD: 0.138
data_MOF--net-une--node1-QUQFOY_clean_sbu_1--edge1-OJICUG_clean_linker_0
_symmetry_space_group_name_H-M    P1
_symmetry_Int_Tables_number       1
_symmetry_cell_setting            triclinic
loop_
_symmetry_equiv_pos_as_xyz
'x, y, z'
_cell_length_a     30.827436
_cell_length_b     30.646361
_cell_length_c     43.992126
_cell_angle_alpha  89.726928
_cell_angle_beta   89.998244
_cell_angle_gamma 120.2387
loop_
_atom_site_label
_atom_site_type_symbol
_atom_site_fract_x
_atom_site_fract_y
_atom_site_fract_z
_atom_type_partial_charge
O0 O 0.26219 0.08039 0.04755 0.0
Cd1 Cd 0.26784 0.05169 0.08863 0.0
Cd2 Cd 0.33187 0.02923 0.05117 0.0
O3 O 0.32438 0.07923 0.02318 0.0
O4 O 0.24567 0.08354 0.11981 0.0
O5 O 0.32272 0.09571 0.11778 0.0
C6 C 0.29071 0.10542 0.1305 0.0
C7 C 0.39995 0.01843 0.03964 0.0
C8 C 0.29039 0.09098 0.02439 0.0
C9 C 0.23163 0.94449 0.07807 0.0
O10 O 0.26988 0.96037 0.06098 0.0
O11 O 0.22382 0.97499 0.09324 0.0
O12 O 0.36283 0.00438 0.0214 0.0
O13 O 0.39965 0.04068 0.06441 0.0
O14 O 0.89105 0.17574 0.05494 0.0
Cd15 Cd 0.92635 0.21574 0.0932 0.0
Cd16 Cd 0.94378 0.29719 0.05233 0.0
O17 O 0.88803 0.23625 0.02911 0.0
O18 O 0.89807 0.16588 0.12733 0.0
O19 O 0.8872 0.23175 0.12321 0.0
C20 C 0.87799 0.19103 0.13758 0.0
C21 C 0.95444 0.37644 0.04008 0.0
C22 C 0.87623 0.19033 0.0322 0.0
C23 C 0.03057 0.28229 0.07467 0.0
O24 O 0.01253 0.30265 0.05757 0.0
O25 O 0.00278 0.24721 0.0931 0.0
O26 O 0.96397 0.35095 0.02087 0.0
O27 O 0.93656 0.356 0.06624 0.0
O28 O 0.77533 0.68997 0.05098 0.0
Cd29 Cd 0.73364 0.68164 0.08934 0.0
Cd30 Cd 0.6561 0.6129 0.04732 0.0
O31 O 0.71991 0.62098 0.02694 0.0
O32 O 0.78246 0.70546 0.12368 0.0
O33 O 0.72087 0.62629 0.119 0.0
C34 C 0.75989 0.65955 0.13366 0.0
C35 C 0.5801 0.54468 0.0308 0.0
C36 C 0.76399 0.65856 0.02948 0.0
C37 C 0.66184 0.71152 0.07037 0.0
O38 O 0.64661 0.67409 0.05263 0.0
O39 O 0.6957 0.72074 0.08987 0.0
O40 O 0.60807 0.58181 1.01311 0.0
O41 O 0.59648 0.54468 0.0578 0.0
O42 O 0.64638 0.8638 0.99214 0.0
Cd43 Cd 0.65992 0.91195 0.9562 0.0
Cd44 Cd 0.61443 0.94739 1.00331 0.0
O45 O 0.61544 0.89083 0.02818 0.0
O46 O 0.68393 0.88295 0.92419 0.0
O47 O 0.61374 0.8852 0.91993 0.0
C48 C 0.64404 0.8717 0.90892 0.0
C49 C 0.55049 0.96458 1.01384 0.0
C50 C 0.62962 0.8609 1.01888 0.0
C51 C 0.7179 0.02003 0.97659 0.0
O52 O 0.68089 0.01099 0.99342 0.0
O53 O 0.71788 -0.01425 0.96043 0.0
O54 O 0.586 0.97516 0.03292 0.0
O55 O 0.55033 0.94258 0.98883 0.0
O56 O 0.08135 0.78366 0.99689 0.0
Cd57 Cd 0.04681 0.74687 0.95765 0.0
Cd58 Cd 0.02069 0.66205 0.99963 0.0
O59 O 0.07474 0.72054 0.02517 0.0
O60 O 0.07665 0.80035 0.92545 0.0
O61 O 0.08545 0.73311 0.92581 0.0
C62 C 0.09549 0.77541 0.91323 0.0
C63 C 0.00647 0.58129 1.01142 0.0
C64 C 0.09072 0.76723 0.02108 0.0
C65 C 0.94009 0.68392 0.97403 0.0
O66 O 0.95422 0.66036 0.99147 0.0
O67 O 0.97097 0.7194 0.95683 0.0
O68 O -0.0045 0.6063 0.03016 0.0
O69 O 0.02734 0.60281 0.98599 0.0
O70 O 0.17445 0.27751 0.98368 0.0
Cd71 Cd 0.20633 0.27757 0.94282 0.0
Cd72 Cd 0.29608 0.33852 0.98085 0.0
O73 O 0.24067 0.33799 1.0075 0.0
O74 O 0.15119 0.25593 0.91242 0.0
O75 O 0.21993 0.33123 0.91159 0.0
C76 C 0.17654 0.30011 0.90014 0.0
C77 C 0.37787 0.40016 0.9945 0.0
C78 C 0.19394 0.30647 1.0063 0.0
C79 C 0.26825 0.23253 0.95635 0.0
O80 O 0.2937 0.27146 0.97252 0.0
O81 O 0.23164 0.22745 0.94047 0.0
O82 O 0.34981 0.36313 1.01218 0.0
O83 O 0.3591 0.40346 0.96896 0.0
O84 O -0.00386 0.44349 0.38331 0.0
Cd85 Cd 0.96192 0.39479 0.41915 0.0
Cd86 Cd -0.00555 0.34016 0.38029 0.0
O87 O -0.01458 0.38607 0.34953 0.0
O88 O 0.9371 0.433 0.4434 0.0
O89 O -0.00768 0.41382 0.46117 0.0
C90 C 0.96614 0.43555 0.46516 0.0
C91 C 0.05801 0.32283 0.36842 0.0
C92 C -0.00582 0.43007 0.35587 0.0
C93 C 0.89284 0.28477 0.40546 0.0
O94 O 0.93171 0.28212 0.39974 0.0
O95 O 0.89628 0.32729 0.4102 0.0
O96 O 0.01707 0.30373 0.35304 0.0
O97 O 0.063 0.35195 0.3909 0.0
O98 O 0.5212 0.54374 0.38678 0.0
Cd99 Cd 0.57042 0.5638 0.42242 0.0
Cd100 Cd 0.61996 0.65372 0.38129 0.0
O101 O 0.56694 0.60157 0.35222 0.0
O102 O 0.53488 0.50232 0.44895 0.0
O103 O 0.55049 0.57754 0.46357 0.0
C104 C 0.53071 0.52991 0.46936 0.0
C105 C 0.64154 0.73745 0.37191 0.0
C106 C 0.52775 0.56083 0.3598 0.0
C107 C 0.67867 0.6058 0.40348 0.0
O108 O 0.67881 0.64456 0.39313 0.0
O109 O 0.63875 0.56829 0.41392 0.0
O110 O 0.65452 0.71336 0.3537 0.0
O111 O 0.61597 0.71392 0.39581 0.0
O112 O 0.41876 0.97978 0.37428 0.0
Cd113 Cd 0.39234 0.002 0.4103 0.0
Cd114 Cd 0.30554 0.95693 0.36554 0.0
O115 O 0.36004 0.95601 0.33886 0.0
O116 O 0.45199 0.03028 0.43791 0.0
O117 O 0.37873 0.96494 0.45058 0.0
C118 C 0.42515 -0.00444 0.45736 0.0
C119 C 0.22279 0.89293 0.35701 0.0
C120 C 0.40289 0.96476 0.34756 0.0
C121 C 0.34621 0.06374 0.38928 0.0
O122 O 0.31293 0.02538 0.37522 0.0
O123 O 0.38178 0.06288 0.40336 0.0
O124 O 0.24691 0.92851 0.3375 0.0
O125 O 0.246 0.89312 0.3815 0.0
O126 O 0.37321 0.25082 0.31481 0.0
Cd127 Cd 0.36651 0.2878 0.27756 0.0
Cd128 Cd 0.29176 0.2893 0.31759 0.0
O129 O 0.30333 0.23547 0.33808 0.0
O130 O 0.39139 0.26603 0.2422 0.0
O131 O 0.31223 0.24684 0.2475 0.0
C132 C 0.3458 0.24253 0.23231 0.0
C133 C 0.21889 0.28895 0.33309 0.0
C134 C 0.34086 0.22913 0.33577 0.0
C135 C 0.38896 0.38757 0.29797 0.0
O136 O 0.34948 0.36255 0.31383 0.0
O137 O 0.40276 0.36532 0.27938 0.0
O138 O 0.25581 0.3011 0.35123 0.0
O139 O 0.22212 0.27467 0.30605 0.0
O140 O 0.7198 0.13099 0.32087 0.0
Cd141 Cd 0.6886 0.0879 0.28265 0.0
Cd142 Cd 0.67975 0.00962 0.32463 0.0
O143 O 0.72702 0.07428 0.34818 0.0
O144 O 0.71485 0.13576 0.24749 0.0
O145 O 0.73337 0.07554 0.25525 0.0
C146 C 0.73934 0.1138 0.23933 0.0
C147 C 0.68046 0.93684 0.34026 0.0
C148 C 0.73535 0.11898 0.34444 0.0
C149 C 0.58591 0.0078 0.2977 0.0
O150 O 0.60759 -0.00785 0.31553 0.0
O151 O 0.61143 0.04584 0.28057 0.0
O152 O 0.66371 0.9588 0.35748 0.0
O153 O 0.69903 0.95739 0.31423 0.0
O154 O 0.82615 0.57584 0.31985 0.0
Cd155 Cd 0.86634 0.58262 0.281 0.0
Cd156 Cd 0.94713 0.65801 0.31894 0.0
O157 O 0.88422 0.64419 0.34316 0.0
O158 O 0.8174 0.55831 0.24673 0.0
O159 O 0.87853 0.63777 0.25148 0.0
C160 C 0.83963 0.60429 0.23681 0.0
C161 C 0.02137 0.73236 0.33147 0.0
C162 C 0.83964 0.60703 0.34165 0.0
C163 C 0.94621 0.56136 0.29689 0.0
O164 O 0.96293 0.6013 0.31254 0.0
O165 O 0.90734 0.54644 0.28056 0.0
O166 O -0.00079 0.69548 0.35035 0.0
O167 O 0.0001 0.72828 0.30554 0.0
O168 O 0.56835 0.73055 0.71882 0.0
Cd169 Cd 0.57623 0.69798 0.75788 0.0
Cd170 Cd 0.64928 0.69057 0.71808 0.0
O171 O 0.63382 0.73837 0.69343 0.0
O172 O 0.55087 0.72254 0.7916 0.0
O173 O 0.63008 0.74141 0.78761 0.0
C174 C 0.59617 0.74639 0.80191 0.0
C175 C 0.72241 0.69059 0.70349 0.0
C176 C 0.59747 0.74655 0.6959 0.0
C177 C 0.55446 0.59543 0.74336 0.0
O178 O 0.59345 0.61792 0.72681 0.0
O179 O 0.54041 0.6204 0.75944 0.0
O180 O 0.68417 0.67416 0.68592 0.0
O181 O 0.72026 0.70927 0.7293 0.0
O182 O 0.23263 0.84028 0.72404 0.0
Cd183 Cd 0.26976 0.88156 0.76186 0.0
Cd184 Cd 0.27286 0.9621 0.72396 0.0
O185 O 0.22156 0.89833 0.7012 0.0
O186 O 0.24747 0.83291 0.79667 0.0
O187 O 0.23002 0.89455 0.79294 0.0
C188 C 0.22515 0.85555 0.80752 0.0
C189 C 0.27255 0.03603 0.7104 0.0
C190 C 0.21365 0.85351 0.70281 0.0
C191 C 0.36979 0.96136 0.74246 0.0
O192 O 0.34554 0.97796 0.72788 0.0
O193 O 0.34701 0.92275 0.75957 0.0
O194 O 0.28576 0.01291 0.69163 0.0
O195 O 0.25727 0.01609 0.73697 0.0
O196 O 0.10928 0.38878 0.71762 0.0
Cd197 Cd 0.06696 0.37984 0.75579 0.0
Cd198 Cd -0.01156 0.30653 0.7152 0.0
O199 O 0.05332 0.32044 0.69336 0.0
O200 O 0.1152 0.40375 0.7904 0.0
O201 O 0.05486 0.32414 0.78488 0.0
C202 C 0.09344 0.35752 0.79982 0.0
C203 C 0.91552 0.23351 0.69962 0.0
C204 C 0.09761 0.35777 0.69586 0.0
C205 C -0.01211 0.40176 0.73897 0.0
O206 O 0.97261 0.3632 0.7222 0.0
O207 O 0.02536 0.41534 0.75638 0.0
O208 O 0.93929 0.27186 0.68193 0.0
O209 O 0.93429 0.23551 0.72616 0.0
O210 O 0.95232 0.53288 0.65673 0.0
Cd211 Cd -0.01637 0.58417 0.62185 0.0
Cd212 Cd 0.94518 0.63267 0.66381 0.0
O213 O 0.94638 0.57993 0.69258 0.0
O214 O 0.01079 0.54928 0.59641 0.0
O215 O 0.953 0.56556 0.57976 0.0
C216 C -0.01921 0.5458 0.57504 0.0
C217 C 0.88226 0.65213 0.67339 0.0
C218 C 0.94497 0.53971 0.68424 0.0
C219 C 0.05098 0.69246 0.64148 0.0
O220 O 0.01244 0.69282 0.65116 0.0
O221 O 0.04802 0.65219 0.63148 0.0
O222 O 0.91961 0.66596 0.69151 0.0
O223 O 0.88029 0.62671 0.64959 0.0
O224 O 0.42295 0.42886 0.66278 0.0
Cd225 Cd 0.37545 0.40488 0.62614 0.0
Cd226 Cd 0.32722 0.31764 0.67022 0.0
O227 O 0.37959 0.37211 0.69844 0.0
O228 O 0.41031 0.46583 0.59914 0.0
O229 O 0.39907 0.39153 0.58608 0.0
C230 C 0.41718 0.43874 0.57965 0.0
C231 C 0.30865 0.23506 0.68016 0.0
C232 C 0.4174 0.41343 0.6901 0.0
C233 C 0.26612 0.36067 0.64376 0.0
O234 O 0.26756 0.32468 0.65715 0.0
O235 O 0.30522 0.39729 0.63189 0.0
O236 O 0.29445 0.25835 0.69822 0.0
O237 O 0.33376 0.2588 0.65616 0.0
O238 O 0.52823 -0.00166 0.65139 0.0
Cd239 Cd 0.54809 0.96943 0.61551 0.0
Cd240 Cd 0.63672 0.00833 0.65528 0.0
O241 O 0.58305 0.00304 0.68551 0.0
O242 O 0.4871 0.9433 0.58915 0.0
O243 O 0.56192 0.00354 0.57426 0.0
C244 C 0.51463 0.97532 0.56858 0.0
C245 C 0.71868 0.07222 0.66608 0.0
C246 C 0.54364 0.00406 0.67863 0.0
C247 C 0.59139 0.90337 0.63207 0.0
O248 O 0.63111 0.94285 0.64029 0.0
O249 O 0.5527 0.90525 0.62414 0.0
O250 O 0.69549 0.03265 0.68295 0.0
O251 O 0.69527 0.07581 0.64274 0.0
C252 C 0.43811 0.98199 1.00548 0.0
C253 C 0.43983 0.00675 0.0327 0.0
H254 H 0.47149 0.949 0.97823 0.0
C255 C 0.47838 0.01778 0.05356 0.0
H256 H 0.40877 0.97286 0.98892 0.0
C257 C 0.51422 0.00385 0.04743 0.0
C258 C 0.51217 0.97866 0.02033 0.0
H259 H 0.48057 0.03663 0.07475 0.0
H260 H 0.54346 0.01275 0.06402 0.0
C261 C 0.47391 0.9681 0.99935 0.0
C262 C -0.01152 0.45016 1.00439 0.0
C263 C 0.9663 0.42834 0.03256 0.0
H264 H 0.01898 0.5157 0.97568 0.0
C265 C 0.95778 0.45732 0.05372 0.0
H266 H -0.00425 0.42887 0.9876 0.0
C267 C 0.97127 0.50715 0.04687 0.0
C268 C -0.00635 0.52904 1.01876 0.0
H269 H 0.94098 0.44167 0.07563 0.0
H270 H 0.96412 0.52851 0.06368 0.0
C271 C 0.00206 0.50001 0.99757 0.0
C272 C 0.46223 0.47548 0.98349 0.0
C273 C 0.43002 0.43661 1.00334 0.0
H274 H 0.53522 0.5397 0.97648 0.0
C275 C 0.44828 0.43215 0.03183 0.0
H276 H 0.44937 0.47967 0.96134 0.0
C277 C 0.49748 0.46642 0.04052 0.0
C278 C 0.52947 0.50575 0.02086 0.0
H279 H 0.42442 0.40239 0.04761 0.0
H280 H 0.51016 0.46251 0.06279 0.0
C281 C 0.5115 0.50966 0.99215 0.0
C282 C 0.13984 0.32728 0.37893 0.0
C283 C 0.09806 0.31208 0.36003 0.0
H284 H 0.21037 0.3312 0.38539 0.0
C285 C 0.09517 0.28709 0.33269 0.0
H286 H 0.14302 0.34638 0.40018 0.0
C287 C 0.13393 0.27859 0.32407 0.0
C288 C 0.17605 0.29448 0.34278 0.0
H289 H 0.06335 0.27485 0.31764 0.0
H290 H 0.13115 0.26014 0.30263 0.0
C291 C 0.17831 0.31836 0.37047 0.0
C292 C 0.68025 0.81337 0.33781 0.0
C293 C 0.65472 0.78992 0.36493 0.0
H294 H 0.70876 0.8784 0.30876 0.0
C295 C 0.64081 0.81655 0.38471 0.0
H296 H 0.69171 0.79389 0.32213 0.0
C297 C 0.65086 0.86506 0.3771 0.0
C298 C 0.67489 0.88787 0.3495 0.0
H299 H 0.62135 0.79963 0.40582 0.0
H300 H 0.63862 0.88415 0.39256 0.0
C301 C 0.69018 0.86185 0.33015 0.0
C302 C 0.0943 0.77687 0.36665 0.0
C303 C 0.07124 0.7758 0.33883 0.0
H304 H 0.16025 0.81449 0.39418 0.0
C305 C 0.09775 0.8146 0.31755 0.0
H306 H 0.07488 0.74749 0.38356 0.0
C307 C 0.14679 0.853 0.32368 0.0
C308 C 0.1703 0.85327 0.35116 0.0
H309 H 0.08106 0.81478 0.29592 0.0
H310 H 0.16651 0.88204 0.30662 0.0
C311 C 0.14333 0.81516 0.37273 0.0
C312 C 0.80255 0.65059 0.66022 0.0
C313 C 0.84284 0.66462 0.68021 0.0
H314 H 0.73325 0.64839 0.65177 0.0
C315 C 0.84477 0.69001 0.70721 0.0
H316 H 0.80014 0.63125 0.63919 0.0
C317 C 0.80641 0.69988 0.71447 0.0
C318 C 0.76548 0.68468 0.69483 0.0
H319 H 0.8755 0.70154 0.72305 0.0
H320 H 0.80836 0.71847 0.73573 0.0
C321 C 0.76431 0.66059 0.66743 0.0
C322 C 0.30947 0.15631 0.66663 0.0
C323 C 0.29697 0.18307 0.68722 0.0
H324 H 0.31091 0.08863 0.65769 0.0
C325 C 0.27388 0.16002 0.71497 0.0
H326 H 0.32704 0.17292 0.64503 0.0
C327 C 0.26469 0.11166 0.72232 0.0
C328 C 0.27816 0.08534 0.70198 0.0
H329 H 0.26365 0.17966 0.73131 0.0
H330 H 0.24783 0.09529 0.74411 0.0
C331 C 0.30003 0.10791 0.6739 0.0
C332 C 0.79258 0.10937 0.70105 0.0
C333 C 0.77014 0.11226 0.67383 0.0
H334 H 0.85626 0.14535 0.73058 0.0
C335 C 0.79697 0.15403 0.65453 0.0
H336 H 0.77288 0.07754 0.71639 0.0
C337 C 0.84487 0.19263 0.66257 0.0
C338 C 0.86679 0.1904 0.69017 0.0
H339 H 0.7808 0.15722 0.63336 0.0
H340 H 0.86424 0.22477 0.6474 0.0
C341 C 0.84038 0.14814 0.70919 0.0
C342 C 0.26911 0.14962 0.17043 0.0
C343 C 0.3051 0.14114 0.15624 0.0
H344 H 0.25368 0.1884 0.20539 0.0
C345 C 0.35491 0.16761 0.16664 0.0
H346 H 0.23042 0.13 0.16292 0.0
C347 C 0.36829 0.20138 0.19087 0.0
C348 C 0.33215 0.20935 0.20533 0.0
H349 H 0.3836 0.16218 0.15612 0.0
H350 H 0.40691 0.22073 0.19853 0.0
C351 C 0.28246 0.18326 0.19473 0.0
C352 C 0.81762 0.19658 0.17347 0.0
C353 C 0.84362 0.17221 0.16417 0.0
H354 H 0.76405 0.19705 0.20423 0.0
C355 C 0.83484 0.12825 0.17973 0.0
H356 H 0.8233 0.23035 0.1619 0.0
C357 C 0.80078 0.10905 0.20398 0.0
C358 C 0.77455 0.13326 0.21316 0.0
H359 H 0.85413 0.10842 0.17311 0.0
H360 H 0.79501 0.07522 0.2155 0.0
C361 C 0.78342 0.17729 0.19765 0.0
C362 C 0.77643 0.58164 0.19505 0.0
C363 C 0.81975 0.61831 0.21011 0.0
H364 H 0.72335 0.56582 0.15931 0.0
C365 C 0.84275 0.66869 0.20002 0.0
H366 H 0.75764 0.54249 0.2023 0.0
C367 C 0.82293 0.68208 0.17545 0.0
C368 C 0.77963 0.64541 0.16039 0.0
H369 H 0.87601 0.69791 0.21117 0.0
H370 H 0.84175 0.72123 0.16822 0.0
C371 C 0.7566 0.59503 0.17047 0.0
C372 C 0.58496 0.82096 0.86707 0.0
C373 C 0.63251 0.84185 0.88062 0.0
H374 H 0.53603 0.77402 0.83182 0.0
C375 C 0.66828 0.83165 0.86781 0.0
H376 H 0.5565 0.82787 0.87645 0.0
C377 C 0.65663 0.80088 0.84219 0.0
C378 C 0.60879 0.77925 0.82896 0.0
H379 H 0.70529 0.84712 0.87771 0.0
H380 H 0.68498 0.79365 0.83297 0.0
C381 C 0.57316 0.78983 0.84159 0.0
C382 C 0.15263 0.77085 0.87423 0.0
C383 C 0.12858 0.79567 0.88613 0.0
H384 H 0.2023 0.77049 0.84034 0.0
C385 C 0.13737 0.84092 0.8723 0.0
H386 H 0.14688 0.73607 0.88442 0.0
C387 C 0.16918 0.86072 0.84705 0.0
C388 C 0.19314 0.83585 0.83509 0.0
H389 H 0.11957 0.86113 0.88093 0.0
H390 H 0.17478 0.89542 0.83683 0.0
C391 C 0.18461 0.79076 0.84904 0.0
C392 C 0.10975 0.27926 0.86102 0.0
C393 C 0.15553 0.31482 0.87435 0.0
H394 H 0.05414 0.26476 0.82718 0.0
C395 C 0.18013 0.36473 0.86334 0.0
H396 H 0.08972 0.24049 0.86901 0.0
C397 C 0.15945 0.37873 0.83953 0.0
C398 C 0.11384 0.34308 0.82606 0.0
H399 H 0.21528 0.39311 0.87319 0.0
H400 H 0.17956 0.41746 0.83149 0.0
C401 C 0.08922 0.29318 0.83709 0.0
C402 C 0.94085 0.48697 0.49687 0.0
C403 C 0.9698 0.46355 0.49335 0.0
H404 H 0.92167 0.53146 0.52527 0.0
C405 C 0.00278 0.46802 0.51673 0.0
H406 H 0.91514 0.4844 0.47925 0.0
C407 C 0.00664 0.4952 0.54305 0.0
C408 C -0.02243 0.51849 0.54662 0.0
H409 H 0.0257 0.45059 0.51472 0.0
H410 H 0.0323 0.49769 0.56068 0.0
C411 C 0.94465 0.5141 0.52322 0.0
C412 C 0.48125 0.45474 0.50335 0.0
C413 C 0.50262 0.50691 0.49791 0.0
H414 H 0.43743 0.39224 0.53327 0.0
C415 C 0.49551 0.5363 0.51954 0.0
H416 H 0.48588 0.43093 0.48711 0.0
C417 C 0.46752 0.51401 0.54593 0.0
C418 C 0.44604 0.46182 0.55134 0.0
H419 H 0.51132 0.57651 0.51603 0.0
H420 H 0.46282 0.53781 0.56214 0.0
C421 C 0.45332 0.43246 0.52978 0.0
C422 C 0.5212 0.01731 0.51827 0.0
C423 C 0.49201 0.98012 0.5399 0.0
H424 H 0.52295 0.05154 0.47543 0.0
C425 C 0.44044 0.94815 0.53427 0.0
H426 H 0.56095 0.04263 0.52193 0.0
C427 C 0.41856 0.95325 0.5076 0.0
C428 C 0.44773 -0.00946 0.486 0.0
H429 H 0.4168 0.91912 0.5505 0.0
H430 H 0.37881 0.92794 0.50393 0.0
C431 C 0.4993 0.0225 0.49165 0.0
C432 C 0.20381 0.85501 0.06626 0.0
C433 C 0.19145 0.89185 0.07419 0.0
H434 H 0.18005 0.78481 0.04345 0.0
C435 C 0.14204 0.88158 0.07021 0.0
H436 H 0.24182 0.86231 0.06905 0.0
C437 C 0.10747 0.83822 0.0548 0.0
C438 C 0.12148 0.80398 0.04419 0.0
H439 H 0.13172 0.90955 0.07584 0.0
H440 H 0.07098 0.8332 0.04926 0.0
C441 C 0.1687 0.81089 0.05159 0.0
C442 C 0.11771 0.34008 0.05694 0.0
C443 C 0.081 0.29187 0.0672 0.0
H444 H 0.18394 0.3827 0.02974 0.0
C445 C 0.08764 0.25047 0.06209 0.0
H446 H 0.11299 0.37242 0.06046 0.0
C447 C 0.12693 0.25605 0.04366 0.0
C448 C 0.1609 0.30337 0.03111 0.0
H449 H 0.0595 0.21285 0.06941 0.0
H450 H 0.12898 0.22288 0.03765 0.0
C451 C 0.15797 0.34592 0.03928 0.0
C452 C 0.60474 0.73436 0.044 0.0
C453 C 0.64445 0.74771 0.06453 0.0
H454 H 0.56905 0.76083 1.01331 0.0
C455 C 0.67211 0.79787 0.07472 0.0
H456 H 0.58219 0.69591 0.03602 0.0
C457 C 0.66371 0.83492 0.06196 0.0
C458 C 0.62772 0.82196 0.03902 0.0
H459 H 0.70283 0.80925 0.09054 0.0
H460 H 0.68815 0.87411 0.06808 0.0
C461 C 0.59689 0.77133 0.03107 0.0
C462 C 0.80823 0.06859 0.98901 0.0
C463 C 0.76416 0.06849 0.98102 0.0
H464 H 0.87858 0.10785 1.01232 0.0
C465 C 0.7613 0.1124 0.98512 0.0
H466 H 0.81091 0.03488 0.98641 0.0
C467 C 0.8003 0.15441 0.99944 0.0
C468 C 0.84178 0.15223 1.0106 0.0
H469 H 0.72735 0.11282 0.97931 0.0
H470 H 0.79593 0.18666 1.00414 0.0
C471 C 0.84655 0.11 1.00413 0.0
C472 C 0.80649 0.62164 1.00001 0.0
C473 C 0.80374 0.66417 1.0087 0.0
H474 H 0.85318 0.59479 0.98173 0.0
C475 C 0.84219 0.71251 1.00008 0.0
H476 H 0.77717 0.584 1.00643 0.0
C477 C 0.88466 0.71852 0.98495 0.0
C478 C 0.88977 0.67635 0.97918 0.0
H479 H 0.84049 0.74576 1.00635 0.0
H480 H 0.91542 0.75639 0.98046 0.0
C481 C 0.84969 0.62775 0.98577 0.0
C482 C 0.23153 0.14371 0.9723 0.0
C483 C 0.27405 0.18883 0.96298 0.0
H484 H 0.2037 0.07741 1.00016 0.0
C485 C 0.32208 0.19639 0.96909 0.0
H486 H 0.19413 0.13739 0.96822 0.0
C487 C 0.32753 0.16164 0.98692 0.0
C488 C 0.28499 0.11991 0.9995 0.0
H489 H 0.35534 0.23125 0.96233 0.0
H490 H 0.36489 0.16992 0.9932 0.0
C491 C 0.23698 0.10983 0.99093 0.0
C492 C 0.80828 0.2463 0.38203 0.0
C493 C 0.84402 0.24019 0.39836 0.0
H494 H 0.74577 0.21239 0.35159 0.0
C495 C 0.83806 0.19182 0.40115 0.0
H496 H 0.8122 0.28329 0.37936 0.0
C497 C 0.79991 0.1512 0.38543 0.0
C498 C 0.76771 0.15858 0.36622 0.0
H499 H 0.86517 0.18621 0.41366 0.0
H500 H 0.79822 0.11505 0.38651 0.0
C501 C 0.77066 0.20586 0.36581 0.0
C502 C 0.80997 0.6454 0.38037 0.0
C503 C 0.80183 0.60277 0.36389 0.0
H504 H 0.77648 0.67944 0.40658 0.0
C505 C 0.75534 0.5578 0.36658 0.0
H506 H 0.84554 0.68047 0.37901 0.0
C507 C 0.71621 0.5569 0.38314 0.0
C508 C 0.72285 0.60124 0.39666 0.0
H509 H 0.74829 0.52413 0.35449 0.0
H510 H 0.67957 0.52298 0.38282 0.0
C511 C 0.7706 0.64478 0.39635 0.0
C512 C 0.30056 0.1521 0.36851 0.0
C513 C 0.34434 0.19232 0.35577 0.0
H514 H 0.26707 0.07911 0.38958 0.0
C515 C 0.39039 0.19401 0.35982 0.0
H516 H 0.26459 0.14993 0.36588 0.0
C517 C 0.39195 0.15411 0.37425 0.0
C518 C 0.34732 0.1116 0.38412 0.0
H519 H 0.42478 0.22493 0.35051 0.0
H520 H 0.42728 0.15452 0.37517 0.0
C521 C 0.30195 0.11172 0.38222 0.0
C522 C 0.50788 0.51051 0.31254 0.0
C523 C 0.49175 0.52856 0.33676 0.0
H524 H 0.4872 0.45057 0.28064 0.0
C525 C 0.44041 0.50662 0.34285 0.0
H526 H 0.54756 0.52696 0.30767 0.0
C527 C 0.40592 0.46375 0.32715 0.0
C528 C 0.42248 0.44122 0.30579 0.0
H529 H 0.42734 0.52025 0.36139 0.0
H530 H 0.36682 0.44567 0.3339 0.0
C531 C 0.47336 0.46675 0.29716 0.0
C532 C 0.50446 0.94355 0.32036 0.0
C533 C 0.53119 -0.01388 0.30141 0.0
H534 H 0.44142 0.9032 0.35007 0.0
C535 C 0.50764 0.01281 0.29164 0.0
H536 H 0.52112 0.92155 0.32788 0.0
C537 C 0.46113 0.00124 0.30393 0.0
C538 C 0.43816 0.96313 0.32605 0.0
H539 H 0.52711 0.04556 0.27693 0.0
H540 H 0.44595 0.0255 0.29864 0.0
C541 C 0.45863 0.93264 0.33294 0.0
C542 C 0.01225 0.54802 0.3198 0.0
C543 C 0.96796 0.52877 0.30255 0.0
H544 H 0.05542 0.53088 0.35052 0.0
C545 C 0.94021 0.47666 0.29673 0.0
H546 H 0.03513 0.58813 0.32416 0.0
C547 C 0.95276 0.4439 0.31142 0.0
C548 C -0.00726 0.4631 0.33217 0.0
H549 H 0.90615 0.46077 0.28335 0.0
H550 H 0.92799 0.40352 0.30912 0.0
C551 C 0.02413 0.51538 0.33482 0.0
C552 C 0.43632 0.46997 0.73424 0.0
C553 C 0.45286 0.44818 0.71249 0.0
H554 H 0.4564 0.53496 0.76171 0.0
C555 C 0.50428 0.46917 0.7071 0.0
H556 H 0.39656 0.4543 0.73847 0.0
C557 C 0.53849 0.51461 0.72064 0.0
C558 C 0.5215 0.54051 0.73902 0.0
H559 H 0.51761 0.45274 0.69038 0.0
H560 H 0.57767 0.53179 0.71422 0.0
C561 C 0.47056 0.51619 0.74743 0.0
C562 C 0.49205 0.96698 0.72514 0.0
C563 C 0.51069 0.0045 0.70245 0.0
H564 H 0.43168 0.92345 0.75624 0.0
C565 C 0.48923 0.03491 0.69857 0.0
H566 H 0.50816 0.94297 0.72832 0.0
C567 C 0.44637 0.02456 0.71485 0.0
C568 C 0.42332 0.9825 0.73454 0.0
H569 H 0.50334 0.0642 0.68127 0.0
H570 H 0.42873 0.04666 0.70977 0.0
C571 C 0.44827 0.95578 0.74106 0.0
C572 C -0.00789 0.48552 0.74266 0.0
C573 C 0.96624 0.43459 0.73379 0.0
H574 H 0.00417 0.55977 0.73392 0.0
C575 C 0.92436 0.41754 0.71454 0.0
H576 H 0.02425 0.49969 0.75763 0.0
C577 C 0.91348 0.45186 0.70077 0.0
C578 C 0.94332 0.5035 0.7067 0.0
H579 H 0.90288 0.37832 0.70775 0.0
H580 H 0.88455 0.43858 0.68351 0.0
C581 C -0.01951 0.51987 0.72922 0.0
C582 C 0.1761 0.76842 0.67849 0.0
C583 C 0.17866 0.81535 0.68117 0.0
H584 H 0.13388 0.69245 0.6623 0.0
C585 C 0.14439 0.82395 0.66493 0.0
H586 H 0.20252 0.76101 0.69038 0.0
C587 C 0.10506 0.7847 0.64907 0.0
C588 C 0.09999 0.73657 0.64865 0.0
H589 H 0.14569 0.85988 0.66626 0.0
H590 H 0.07664 0.79101 0.6389 0.0
C591 C 0.13726 0.7294 0.66207 0.0
C592 C 0.18326 0.40746 0.67278 0.0
C593 C 0.13743 0.36179 0.67546 0.0
H594 H 0.26039 0.44324 0.65905 0.0
C595 C 0.13213 0.3183 0.66142 0.0
H596 H 0.18813 0.44168 0.68308 0.0
C597 C 0.17355 0.31911 0.64805 0.0
C598 C 0.22046 0.36369 0.64783 0.0
H599 H 0.09718 0.28262 0.66294 0.0
H600 H 0.16978 0.28408 0.63985 0.0
C601 C 0.22442 0.40851 0.65872 0.0
C602 C 0.54668 0.77994 0.67147 0.0
C603 C 0.59168 0.77892 0.67327 0.0
H604 H 0.51064 0.81976 0.65541 0.0
C605 C 0.63287 0.81282 0.65539 0.0
H606 H 0.51407 0.75368 0.68463 0.0
C607 C 0.63097 0.85077 0.63885 0.0
C608 C 0.58756 0.85473 0.63945 0.0
H609 H 0.6679 0.81263 0.65605 0.0
H610 H 0.66469 0.87929 0.6275 0.0
C611 C 0.54447 0.8173 0.65439 0.0
loop_
_geom_bond_atom_site_label_1
_geom_bond_atom_site_label_2
_geom_bond_distance
_geom_bond_site_symmetry_2
_ccdc_geom_bond_type
O0 Cd1 2.223 . S
O0 C8 1.315 . S
Cd1 O0 2.223 . S
Cd1 O4 2.297 . S
Cd1 O5 2.439 . S
Cd1 O11 2.240 1_545 S
Cd2 O3 2.240 . S
Cd2 O10 2.223 1_554 S
Cd2 O12 2.297 1_554 S
Cd2 O13 2.439 . S
O3 Cd2 2.240 . S
O3 C8 1.279 . S
O4 Cd1 2.297 . S
O4 C6 1.247 . S
O5 Cd1 2.439 . S
O5 C6 1.208 . S
C6 O4 1.247 . S
C6 O5 1.208 . S
C7 O12 1.247 1_554 S
C7 O13 1.208 . S
C8 O0 1.315 . S
C8 O3 1.279 . S
C9 O10 1.315 1_564 S
C9 O11 1.279 . S
O10 Cd2 2.223 1_556 S
O10 C9 1.315 1_546 S
O11 Cd1 2.240 1_565 S
O11 C9 1.279 . S
O12 Cd2 2.297 1_556 S
O12 C7 1.247 1_556 S
O13 Cd2 2.439 . S
O13 C7 1.208 . S
O14 Cd15 2.223 . S
O14 C22 1.315 . S
Cd15 O14 2.223 . S
Cd15 O18 2.297 . S
Cd15 O19 2.439 . S
Cd15 O25 2.240 1_655 S
Cd16 O17 2.240 . S
Cd16 O24 2.223 1_554 S
Cd16 O26 2.301 . S
Cd16 O27 2.439 . S
O17 Cd16 2.240 . S
O17 C22 1.279 . S
O18 Cd15 2.297 . S
O18 C20 1.247 . S
O19 Cd15 2.439 . S
O19 C20 1.208 . S
C20 O18 1.247 . S
C20 O19 1.208 . S
C21 O26 1.264 . S
C21 O27 1.208 . S
C22 O14 1.315 . S
C22 O17 1.279 . S
C23 O24 1.315 1_454 S
C23 O25 1.279 . S
O24 Cd16 2.223 1_556 S
O24 C23 1.315 1_656 S
O25 Cd15 2.240 1_455 S
O25 C23 1.279 . S
O26 Cd16 2.301 . S
O26 C21 1.264 . S
O27 Cd16 2.439 . S
O27 C21 1.208 . S
O28 Cd29 2.223 . S
O28 C36 1.315 . S
Cd29 O28 2.223 . S
Cd29 O32 2.297 . S
Cd29 O33 2.439 . S
Cd29 O39 2.240 . S
Cd30 O31 2.240 . S
Cd30 O38 2.223 1_554 S
Cd30 O40 2.303 . S
Cd30 O41 2.439 . S
O31 Cd30 2.240 . S
O31 C36 1.279 . S
O32 Cd29 2.297 . S
O32 C34 1.247 . S
O33 Cd29 2.439 . S
O33 C34 1.208 . S
C34 O32 1.247 . S
C34 O33 1.208 . S
C35 O40 1.277 . S
C35 O41 1.208 . S
C36 O28 1.315 . S
C36 O31 1.279 . S
C37 O38 1.315 1_554 S
C37 O39 1.279 . S
O38 Cd30 2.223 1_556 S
O38 C37 1.315 1_556 S
O39 Cd29 2.240 . S
O39 C37 1.279 . S
O40 Cd30 2.303 . S
O40 C35 1.277 . S
O41 Cd30 2.439 . S
O41 C35 1.208 . S
O42 Cd43 2.223 . S
O42 C50 1.315 . S
Cd43 O42 2.223 . S
Cd43 O46 2.297 . S
Cd43 O47 2.439 . S
Cd43 O53 2.240 1_565 S
Cd44 O45 2.240 . S
Cd44 O52 2.223 1_556 S
Cd44 O54 2.297 1_556 S
Cd44 O55 2.439 . S
O45 Cd44 2.240 . S
O45 C50 1.279 . S
O46 Cd43 2.297 . S
O46 C48 1.247 . S
O47 Cd43 2.439 . S
O47 C48 1.208 . S
C48 O46 1.247 . S
C48 O47 1.208 . S
C49 O54 1.247 1_556 S
C49 O55 1.208 . S
C50 O42 1.315 . S
C50 O45 1.279 . S
C51 O52 1.315 1_546 S
C51 O53 1.279 . S
O52 Cd44 2.223 1_554 S
O52 C51 1.315 1_564 S
O53 Cd43 2.240 1_545 S
O53 C51 1.279 . S
O54 Cd44 2.297 1_554 S
O54 C49 1.247 1_554 S
O55 Cd44 2.439 . S
O55 C49 1.208 . S
O56 Cd57 2.223 . S
O56 C64 1.315 . S
Cd57 O56 2.223 . S
Cd57 O60 2.297 . S
Cd57 O61 2.439 . S
Cd57 O67 2.240 1_455 S
Cd58 O59 2.240 . S
Cd58 O66 2.223 1_556 S
Cd58 O68 2.301 . S
Cd58 O69 2.439 . S
O59 Cd58 2.240 . S
O59 C64 1.279 . S
O60 Cd57 2.297 . S
O60 C62 1.247 . S
O61 Cd57 2.439 . S
O61 C62 1.208 . S
C62 O60 1.247 . S
C62 O61 1.208 . S
C63 O68 1.264 . S
C63 O69 1.208 . S
C64 O56 1.315 . S
C64 O59 1.279 . S
C65 O66 1.315 1_656 S
C65 O67 1.279 . S
O66 Cd58 2.223 1_554 S
O66 C65 1.315 1_454 S
O67 Cd57 2.240 1_655 S
O67 C65 1.279 . S
O68 Cd58 2.301 . S
O68 C63 1.264 . S
O69 Cd58 2.439 . S
O69 C63 1.208 . S
O70 Cd71 2.223 . S
O70 C78 1.315 . S
Cd71 O70 2.223 . S
Cd71 O74 2.297 . S
Cd71 O75 2.439 . S
Cd71 O81 2.240 . S
Cd72 O73 2.240 . S
Cd72 O80 2.223 1_556 S
Cd72 O82 2.303 . S
Cd72 O83 2.439 . S
O73 Cd72 2.240 . S
O73 C78 1.279 . S
O74 Cd71 2.297 . S
O74 C76 1.247 . S
O75 Cd71 2.439 . S
O75 C76 1.208 . S
C76 O74 1.247 . S
C76 O75 1.208 . S
C77 O82 1.277 . S
C77 O83 1.208 . S
C78 O70 1.315 . S
C78 O73 1.279 . S
C79 O80 1.315 1_556 S
C79 O81 1.279 . S
O80 Cd72 2.223 1_554 S
O80 C79 1.315 1_554 S
O81 Cd71 2.240 . S
O81 C79 1.279 . S
O82 Cd72 2.303 . S
O82 C77 1.277 . S
O83 Cd72 2.439 . S
O83 C77 1.208 . S
O84 Cd85 2.223 . S
O84 C92 1.315 . S
Cd85 O84 2.223 . S
Cd85 O88 2.297 . S
Cd85 O89 2.439 1_655 S
Cd85 O95 2.240 . S
Cd86 O87 2.240 . S
Cd86 O94 2.223 1_455 S
Cd86 O96 2.297 . S
Cd86 O97 2.439 . S
O87 Cd86 2.240 . S
O87 C92 1.279 1_455 S
O88 Cd85 2.297 . S
O88 C90 1.247 1_655 S
O89 Cd85 2.439 1_455 S
O89 C90 1.208 . S
C90 O88 1.247 1_455 S
C90 O89 1.208 . S
C91 O96 1.247 . S
C91 O97 1.208 . S
C92 O84 1.315 . S
C92 O87 1.279 1_655 S
C93 O94 1.315 . S
C93 O95 1.279 . S
O94 Cd86 2.223 1_655 S
O94 C93 1.315 . S
O95 Cd85 2.240 . S
O95 C93 1.279 . S
O96 Cd86 2.297 . S
O96 C91 1.247 . S
O97 Cd86 2.439 . S
O97 C91 1.208 . S
O98 Cd99 2.223 . S
O98 C106 1.315 . S
Cd99 O98 2.223 . S
Cd99 O102 2.297 . S
Cd99 O103 2.439 . S
Cd99 O109 2.240 . S
Cd100 O101 2.240 . S
Cd100 O108 2.223 . S
Cd100 O110 2.297 . S
Cd100 O111 2.439 . S
O101 Cd100 2.240 . S
O101 C106 1.279 . S
O102 Cd99 2.297 . S
O102 C104 1.247 . S
O103 Cd99 2.439 . S
O103 C104 1.208 . S
C104 O102 1.247 . S
C104 O103 1.208 . S
C105 O110 1.247 . S
C105 O111 1.208 . S
C106 O98 1.315 . S
C106 O101 1.279 . S
C107 O108 1.315 . S
C107 O109 1.279 . S
O108 Cd100 2.223 . S
O108 C107 1.315 . S
O109 Cd99 2.240 . S
O109 C107 1.279 . S
O110 Cd100 2.297 . S
O110 C105 1.247 . S
O111 Cd100 2.439 . S
O111 C105 1.208 . S
O112 Cd113 2.223 . S
O112 C120 1.315 . S
Cd113 O112 2.223 . S
Cd113 O116 2.297 . S
Cd113 O117 2.439 1_545 S
Cd113 O123 2.240 . S
Cd114 O115 2.240 . S
Cd114 O122 2.223 1_565 S
Cd114 O124 2.297 . S
Cd114 O125 2.439 . S
O115 Cd114 2.240 . S
O115 C120 1.279 1_565 S
O116 Cd113 2.297 . S
O116 C118 1.247 1_545 S
O117 Cd113 2.439 1_565 S
O117 C118 1.208 . S
C118 O116 1.247 1_565 S
C118 O117 1.208 . S
C119 O124 1.247 . S
C119 O125 1.208 . S
C120 O112 1.315 . S
C120 O115 1.279 1_545 S
C121 O122 1.315 . S
C121 O123 1.279 . S
O122 Cd114 2.223 1_545 S
O122 C121 1.315 . S
O123 Cd113 2.240 . S
O123 C121 1.279 . S
O124 Cd114 2.297 . S
O124 C119 1.247 . S
O125 Cd114 2.439 . S
O125 C119 1.208 . S
O126 Cd127 2.223 . S
O126 C134 1.315 . S
Cd127 O126 2.223 . S
Cd127 O130 2.297 . S
Cd127 O131 2.439 . S
Cd127 O137 2.240 . S
Cd128 O129 2.240 . S
Cd128 O136 2.223 . S
Cd128 O138 2.297 . S
Cd128 O139 2.439 . S
O129 Cd128 2.240 . S
O129 C134 1.279 . S
O130 Cd127 2.297 . S
O130 C132 1.247 . S
O131 Cd127 2.439 . S
O131 C132 1.208 . S
C132 O130 1.247 . S
C132 O131 1.208 . S
C133 O138 1.247 . S
C133 O139 1.208 . S
C134 O126 1.315 . S
C134 O129 1.279 . S
C135 O136 1.315 . S
C135 O137 1.279 . S
O136 Cd128 2.223 . S
O136 C135 1.315 . S
O137 Cd127 2.240 . S
O137 C135 1.279 . S
O138 Cd128 2.297 . S
O138 C133 1.247 . S
O139 Cd128 2.439 . S
O139 C133 1.208 . S
O140 Cd141 2.223 . S
O140 C148 1.315 . S
Cd141 O140 2.223 . S
Cd141 O144 2.297 . S
Cd141 O145 2.439 . S
Cd141 O151 2.240 . S
Cd142 O143 2.240 . S
Cd142 O150 2.223 . S
Cd142 O152 2.297 1_545 S
Cd142 O153 2.439 1_545 S
O143 Cd142 2.240 . S
O143 C148 1.279 . S
O144 Cd141 2.297 . S
O144 C146 1.247 . S
O145 Cd141 2.439 . S
O145 C146 1.208 . S
C146 O144 1.247 . S
C146 O145 1.208 . S
C147 O152 1.247 . S
C147 O153 1.208 . S
C148 O140 1.315 . S
C148 O143 1.279 . S
C149 O150 1.315 . S
C149 O151 1.279 . S
O150 Cd142 2.223 . S
O150 C149 1.315 . S
O151 Cd141 2.240 . S
O151 C149 1.279 . S
O152 Cd142 2.297 1_565 S
O152 C147 1.247 . S
O153 Cd142 2.439 1_565 S
O153 C147 1.208 . S
O154 Cd155 2.223 . S
O154 C162 1.315 . S
Cd155 O154 2.223 . S
Cd155 O158 2.297 . S
Cd155 O159 2.439 . S
Cd155 O165 2.240 . S
Cd156 O157 2.240 . S
Cd156 O164 2.223 . S
Cd156 O166 2.297 1_655 S
Cd156 O167 2.439 1_655 S
O157 Cd156 2.240 . S
O157 C162 1.279 . S
O158 Cd155 2.297 . S
O158 C160 1.247 . S
O159 Cd155 2.439 . S
O159 C160 1.208 . S
C160 O158 1.247 . S
C160 O159 1.208 . S
C161 O166 1.247 . S
C161 O167 1.208 . S
C162 O154 1.315 . S
C162 O157 1.279 . S
C163 O164 1.315 . S
C163 O165 1.279 . S
O164 Cd156 2.223 . S
O164 C163 1.315 . S
O165 Cd155 2.240 . S
O165 C163 1.279 . S
O166 Cd156 2.297 1_455 S
O166 C161 1.247 . S
O167 Cd156 2.439 1_455 S
O167 C161 1.208 . S
O168 Cd169 2.223 . S
O168 C176 1.315 . S
Cd169 O168 2.223 . S
Cd169 O172 2.297 . S
Cd169 O173 2.439 . S
Cd169 O179 2.240 . S
Cd170 O171 2.240 . S
Cd170 O178 2.223 . S
Cd170 O180 2.297 . S
Cd170 O181 2.439 . S
O171 Cd170 2.240 . S
O171 C176 1.279 . S
O172 Cd169 2.297 . S
O172 C174 1.247 . S
O173 Cd169 2.439 . S
O173 C174 1.208 . S
C174 O172 1.247 . S
C174 O173 1.208 . S
C175 O180 1.247 . S
C175 O181 1.208 . S
C176 O168 1.315 . S
C176 O171 1.279 . S
C177 O178 1.315 . S
C177 O179 1.279 . S
O178 Cd170 2.223 . S
O178 C177 1.315 . S
O179 Cd169 2.240 . S
O179 C177 1.279 . S
O180 Cd170 2.297 . S
O180 C175 1.247 . S
O181 Cd170 2.439 . S
O181 C175 1.208 . S
O182 Cd183 2.223 . S
O182 C190 1.315 . S
Cd183 O182 2.223 . S
Cd183 O186 2.297 . S
Cd183 O187 2.439 . S
Cd183 O193 2.240 . S
Cd184 O185 2.240 . S
Cd184 O192 2.223 . S
Cd184 O194 2.297 1_565 S
Cd184 O195 2.439 1_565 S
O185 Cd184 2.240 . S
O185 C190 1.279 . S
O186 Cd183 2.297 . S
O186 C188 1.247 . S
O187 Cd183 2.439 . S
O187 C188 1.208 . S
C188 O186 1.247 . S
C188 O187 1.208 . S
C189 O194 1.247 . S
C189 O195 1.208 . S
C190 O182 1.315 . S
C190 O185 1.279 . S
C191 O192 1.315 . S
C191 O193 1.279 . S
O192 Cd184 2.223 . S
O192 C191 1.315 . S
O193 Cd183 2.240 . S
O193 C191 1.279 . S
O194 Cd184 2.297 1_545 S
O194 C189 1.247 . S
O195 Cd184 2.439 1_545 S
O195 C189 1.208 . S
O196 Cd197 2.223 . S
O196 C204 1.315 . S
Cd197 O196 2.223 . S
Cd197 O200 2.297 . S
Cd197 O201 2.439 . S
Cd197 O207 2.240 . S
Cd198 O199 2.240 . S
Cd198 O206 2.223 . S
Cd198 O208 2.297 1_455 S
Cd198 O209 2.439 1_455 S
O199 Cd198 2.240 . S
O199 C204 1.279 . S
O200 Cd197 2.297 . S
O200 C202 1.247 . S
O201 Cd197 2.439 . S
O201 C202 1.208 . S
C202 O200 1.247 . S
C202 O201 1.208 . S
C203 O208 1.247 . S
C203 O209 1.208 . S
C204 O196 1.315 . S
C204 O199 1.279 . S
C205 O206 1.315 . S
C205 O207 1.279 . S
O206 Cd198 2.223 . S
O206 C205 1.315 . S
O207 Cd197 2.240 . S
O207 C205 1.279 . S
O208 Cd198 2.297 1_655 S
O208 C203 1.247 . S
O209 Cd198 2.439 1_655 S
O209 C203 1.208 . S
O210 Cd211 2.223 . S
O210 C218 1.315 . S
Cd211 O210 2.223 . S
Cd211 O214 2.297 . S
Cd211 O215 2.439 1_455 S
Cd211 O221 2.240 . S
Cd212 O213 2.240 . S
Cd212 O220 2.223 1_655 S
Cd212 O222 2.297 . S
Cd212 O223 2.439 . S
O213 Cd212 2.240 . S
O213 C218 1.279 1_655 S
O214 Cd211 2.297 . S
O214 C216 1.247 1_455 S
O215 Cd211 2.439 1_655 S
O215 C216 1.208 . S
C216 O214 1.247 1_655 S
C216 O215 1.208 . S
C217 O222 1.247 . S
C217 O223 1.208 . S
C218 O210 1.315 . S
C218 O213 1.279 1_455 S
C219 O220 1.315 . S
C219 O221 1.279 . S
O220 Cd212 2.223 1_455 S
O220 C219 1.315 . S
O221 Cd211 2.240 . S
O221 C219 1.279 . S
O222 Cd212 2.297 . S
O222 C217 1.247 . S
O223 Cd212 2.439 . S
O223 C217 1.208 . S
O224 Cd225 2.223 . S
O224 C232 1.315 . S
Cd225 O224 2.223 . S
Cd225 O228 2.297 . S
Cd225 O229 2.439 . S
Cd225 O235 2.240 . S
Cd226 O227 2.240 . S
Cd226 O234 2.223 . S
Cd226 O236 2.297 . S
Cd226 O237 2.439 . S
O227 Cd226 2.240 . S
O227 C232 1.279 . S
O228 Cd225 2.297 . S
O228 C230 1.247 . S
O229 Cd225 2.439 . S
O229 C230 1.208 . S
C230 O228 1.247 . S
C230 O229 1.208 . S
C231 O236 1.247 . S
C231 O237 1.208 . S
C232 O224 1.315 . S
C232 O227 1.279 . S
C233 O234 1.315 . S
C233 O235 1.279 . S
O234 Cd226 2.223 . S
O234 C233 1.315 . S
O235 Cd225 2.240 . S
O235 C233 1.279 . S
O236 Cd226 2.297 . S
O236 C231 1.247 . S
O237 Cd226 2.439 . S
O237 C231 1.208 . S
O238 Cd239 2.223 . S
O238 C246 1.315 . S
Cd239 O238 2.223 . S
Cd239 O242 2.297 . S
Cd239 O243 2.439 1_565 S
Cd239 O249 2.240 . S
Cd240 O241 2.240 . S
Cd240 O248 2.223 1_545 S
Cd240 O250 2.297 . S
Cd240 O251 2.439 . S
O241 Cd240 2.240 . S
O241 C246 1.279 1_545 S
O242 Cd239 2.297 . S
O242 C244 1.247 1_565 S
O243 Cd239 2.439 1_545 S
O243 C244 1.208 . S
C244 O242 1.247 1_545 S
C244 O243 1.208 . S
C245 O250 1.247 . S
C245 O251 1.208 . S
C246 O238 1.315 . S
C246 O241 1.279 1_565 S
C247 O248 1.315 . S
C247 O249 1.279 . S
O248 Cd240 2.223 1_565 S
O248 C247 1.315 . S
O249 Cd239 2.240 . S
O249 C247 1.279 . S
O250 Cd240 2.297 . S
O250 C245 1.247 . S
O251 Cd240 2.439 . S
O251 C245 1.208 . S
C252 C253 1.387 . S
C252 H256 0.950 . S
C252 C261 1.390 1_554 S
C253 C252 1.387 . S
C253 C255 1.387 1_545 S
H254 C261 0.950 . S
C255 C253 1.387 1_565 S
C255 C257 1.390 1_554 S
C255 H259 0.950 . S
H256 C252 0.950 . S
C257 C255 1.390 1_556 S
C257 C258 1.387 . S
C257 H260 0.950 . S
C258 C257 1.387 . S
C258 C261 1.387 1_565 S
H259 C255 0.950 . S
H260 C257 0.950 . S
C261 C252 1.390 1_556 S
C261 H254 0.950 . S
C261 C258 1.387 1_545 S
C262 C263 1.387 1_556 S
C262 H266 0.950 . S
C262 C271 1.390 . S
C263 C262 1.387 1_554 S
C263 C265 1.387 1_655 S
H264 C271 0.950 . S
C265 C263 1.387 1_455 S
C265 C267 1.390 . S
C265 H269 0.950 . S
H266 C262 0.950 . S
C267 C265 1.390 . S
C267 C268 1.387 1_554 S
C267 H270 0.950 . S
C268 C267 1.387 1_556 S
C268 C271 1.387 1_455 S
H269 C265 0.950 . S
H270 C267 0.950 . S
C271 C262 1.390 . S
C271 H264 0.950 . S
C271 C268 1.387 1_655 S
C272 C273 1.387 . S
C272 H276 0.950 . S
C272 C281 1.390 . S
C273 C272 1.387 . S
C273 C275 1.387 1_556 S
H274 C281 0.950 . S
C275 C273 1.387 1_554 S
C275 C277 1.390 . S
C275 H279 0.950 . S
H276 C272 0.950 . S
C277 C275 1.390 . S
C277 C278 1.387 . S
C277 H280 0.950 . S
C278 C277 1.387 . S
C278 C281 1.387 1_554 S
H279 C275 0.950 . S
H280 C277 0.950 . S
C281 C272 1.390 . S
C281 H274 0.950 . S
C281 C278 1.387 1_556 S
C282 C283 1.387 . S
C282 H286 0.950 . S
C282 C291 1.390 . S
C283 C282 1.387 . S
C283 C285 1.387 . S
H284 C291 0.950 . S
C285 C283 1.387 . S
C285 C287 1.390 . S
C285 H289 0.950 . S
H286 C282 0.950 . S
C287 C285 1.390 . S
C287 C288 1.387 . S
C287 H290 0.950 . S
C288 C287 1.387 . S
C288 C291 1.387 . S
H289 C285 0.950 . S
H290 C287 0.950 . S
C291 C282 1.390 . S
C291 H284 0.950 . S
C291 C288 1.387 . S
C292 C293 1.387 . S
C292 H296 0.950 . S
C292 C301 1.390 . S
C293 C292 1.387 . S
C293 C295 1.387 . S
H294 C301 0.950 . S
C295 C293 1.387 . S
C295 C297 1.390 . S
C295 H299 0.950 . S
H296 C292 0.950 . S
C297 C295 1.390 . S
C297 C298 1.387 . S
C297 H300 0.950 . S
C298 C297 1.387 . S
C298 C301 1.387 . S
H299 C295 0.950 . S
H300 C297 0.950 . S
C301 C292 1.390 . S
C301 H294 0.950 . S
C301 C298 1.387 . S
C302 C303 1.387 . S
C302 H306 0.950 . S
C302 C311 1.390 . S
C303 C302 1.387 . S
C303 C305 1.387 . S
H304 C311 0.950 . S
C305 C303 1.387 . S
C305 C307 1.390 . S
C305 H309 0.950 . S
H306 C302 0.950 . S
C307 C305 1.390 . S
C307 C308 1.387 . S
C307 H310 0.950 . S
C308 C307 1.387 . S
C308 C311 1.387 . S
H309 C305 0.950 . S
H310 C307 0.950 . S
C311 C302 1.390 . S
C311 H304 0.950 . S
C311 C308 1.387 . S
C312 C313 1.387 . S
C312 H316 0.950 . S
C312 C321 1.390 . S
C313 C312 1.387 . S
C313 C315 1.387 . S
H314 C321 0.950 . S
C315 C313 1.387 . S
C315 C317 1.390 . S
C315 H319 0.950 . S
H316 C312 0.950 . S
C317 C315 1.390 . S
C317 C318 1.387 . S
C317 H320 0.950 . S
C318 C317 1.387 . S
C318 C321 1.387 . S
H319 C315 0.950 . S
H320 C317 0.950 . S
C321 C312 1.390 . S
C321 H314 0.950 . S
C321 C318 1.387 . S
C322 C323 1.387 . S
C322 H326 0.950 . S
C322 C331 1.390 . S
C323 C322 1.387 . S
C323 C325 1.387 . S
H324 C331 0.950 . S
C325 C323 1.387 . S
C325 C327 1.390 . S
C325 H329 0.950 . S
H326 C322 0.950 . S
C327 C325 1.390 . S
C327 C328 1.387 . S
C327 H330 0.950 . S
C328 C327 1.387 . S
C328 C331 1.387 . S
H329 C325 0.950 . S
H330 C327 0.950 . S
C331 C322 1.390 . S
C331 H324 0.950 . S
C331 C328 1.387 . S
C332 C333 1.387 . S
C332 H336 0.950 . S
C332 C341 1.390 . S
C333 C332 1.387 . S
C333 C335 1.387 . S
H334 C341 0.950 . S
C335 C333 1.387 . S
C335 C337 1.390 . S
C335 H339 0.950 . S
H336 C332 0.950 . S
C337 C335 1.390 . S
C337 C338 1.387 . S
C337 H340 0.950 . S
C338 C337 1.387 . S
C338 C341 1.387 . S
H339 C335 0.950 . S
H340 C337 0.950 . S
C341 C332 1.390 . S
C341 H334 0.950 . S
C341 C338 1.387 . S
C342 C343 1.387 . S
C342 H346 0.950 . S
C342 C351 1.390 . S
C343 C342 1.387 . S
C343 C345 1.387 . S
H344 C351 0.950 . S
C345 C343 1.387 . S
C345 C347 1.390 . S
C345 H349 0.950 . S
H346 C342 0.950 . S
C347 C345 1.390 . S
C347 C348 1.387 . S
C347 H350 0.950 . S
C348 C347 1.387 . S
C348 C351 1.387 . S
H349 C345 0.950 . S
H350 C347 0.950 . S
C351 C342 1.390 . S
C351 H344 0.950 . S
C351 C348 1.387 . S
C352 C353 1.387 . S
C352 H356 0.950 . S
C352 C361 1.390 . S
C353 C352 1.387 . S
C353 C355 1.387 . S
H354 C361 0.950 . S
C355 C353 1.387 . S
C355 C357 1.390 . S
C355 H359 0.950 . S
H356 C352 0.950 . S
C357 C355 1.390 . S
C357 C358 1.387 . S
C357 H360 0.950 . S
C358 C357 1.387 . S
C358 C361 1.387 . S
H359 C355 0.950 . S
H360 C357 0.950 . S
C361 C352 1.390 . S
C361 H354 0.950 . S
C361 C358 1.387 . S
C362 C363 1.387 . S
C362 H366 0.950 . S
C362 C371 1.390 . S
C363 C362 1.387 . S
C363 C365 1.387 . S
H364 C371 0.950 . S
C365 C363 1.387 . S
C365 C367 1.390 . S
C365 H369 0.950 . S
H366 C362 0.950 . S
C367 C365 1.390 . S
C367 C368 1.387 . S
C367 H370 0.950 . S
C368 C367 1.387 . S
C368 C371 1.387 . S
H369 C365 0.950 . S
H370 C367 0.950 . S
C371 C362 1.390 . S
C371 H364 0.950 . S
C371 C368 1.387 . S
C372 C373 1.387 . S
C372 H376 0.950 . S
C372 C381 1.390 . S
C373 C372 1.387 . S
C373 C375 1.387 . S
H374 C381 0.950 . S
C375 C373 1.387 . S
C375 C377 1.390 . S
C375 H379 0.950 . S
H376 C372 0.950 . S
C377 C375 1.390 . S
C377 C378 1.387 . S
C377 H380 0.950 . S
C378 C377 1.387 . S
C378 C381 1.387 . S
H379 C375 0.950 . S
H380 C377 0.950 . S
C381 C372 1.390 . S
C381 H374 0.950 . S
C381 C378 1.387 . S
C382 C383 1.387 . S
C382 H386 0.950 . S
C382 C391 1.390 . S
C383 C382 1.387 . S
C383 C385 1.387 . S
H384 C391 0.950 . S
C385 C383 1.387 . S
C385 C387 1.390 . S
C385 H389 0.950 . S
H386 C382 0.950 . S
C387 C385 1.390 . S
C387 C388 1.387 . S
C387 H390 0.950 . S
C388 C387 1.387 . S
C388 C391 1.387 . S
H389 C385 0.950 . S
H390 C387 0.950 . S
C391 C382 1.390 . S
C391 H384 0.950 . S
C391 C388 1.387 . S
C392 C393 1.387 . S
C392 H396 0.950 . S
C392 C401 1.390 . S
C393 C392 1.387 . S
C393 C395 1.387 . S
H394 C401 0.950 . S
C395 C393 1.387 . S
C395 C397 1.390 . S
C395 H399 0.950 . S
H396 C392 0.950 . S
C397 C395 1.390 . S
C397 C398 1.387 . S
C397 H400 0.950 . S
C398 C397 1.387 . S
C398 C401 1.387 . S
H399 C395 0.950 . S
H400 C397 0.950 . S
C401 C392 1.390 . S
C401 H394 0.950 . S
C401 C398 1.387 . S
C402 C403 1.387 1_655 S
C402 H406 0.950 . S
C402 C411 1.390 . S
C403 C402 1.387 1_455 S
C403 C405 1.387 . S
H404 C411 0.950 . S
C405 C403 1.387 . S
C405 C407 1.390 . S
C405 H409 0.950 . S
H406 C402 0.950 . S
C407 C405 1.390 . S
C407 C408 1.387 1_455 S
C407 H410 0.950 . S
C408 C407 1.387 1_655 S
C408 C411 1.387 . S
H409 C405 0.950 . S
H410 C407 0.950 . S
C411 C402 1.390 . S
C411 H404 0.950 . S
C411 C408 1.387 . S
C412 C413 1.387 . S
C412 H416 0.950 . S
C412 C421 1.390 . S
C413 C412 1.387 . S
C413 C415 1.387 . S
H414 C421 0.950 . S
C415 C413 1.387 . S
C415 C417 1.390 . S
C415 H419 0.950 . S
H416 C412 0.950 . S
C417 C415 1.390 . S
C417 C418 1.387 . S
C417 H420 0.950 . S
C418 C417 1.387 . S
C418 C421 1.387 . S
H419 C415 0.950 . S
H420 C417 0.950 . S
C421 C412 1.390 . S
C421 H414 0.950 . S
C421 C418 1.387 . S
C422 C423 1.387 . S
C422 H426 0.950 . S
C422 C431 1.390 . S
C423 C422 1.387 . S
C423 C425 1.387 1_545 S
H424 C431 0.950 . S
C425 C423 1.387 1_565 S
C425 C427 1.390 . S
C425 H429 0.950 . S
H426 C422 0.950 . S
C427 C425 1.390 . S
C427 C428 1.387 . S
C427 H430 0.950 . S
C428 C427 1.387 . S
C428 C431 1.387 1_565 S
H429 C425 0.950 . S
H430 C427 0.950 . S
C431 C422 1.390 . S
C431 H424 0.950 . S
C431 C428 1.387 1_545 S
C432 C433 1.387 . S
C432 H436 0.950 . S
C432 C441 1.390 . S
C433 C432 1.387 . S
C433 C435 1.387 1_554 S
H434 C441 0.950 . S
C435 C433 1.387 1_556 S
C435 C437 1.390 . S
C435 H439 0.950 . S
H436 C432 0.950 . S
C437 C435 1.390 . S
C437 C438 1.387 . S
C437 H440 0.950 . S
C438 C437 1.387 . S
C438 C441 1.387 1_556 S
H439 C435 0.950 . S
H440 C437 0.950 . S
C441 C432 1.390 . S
C441 H434 0.950 . S
C441 C438 1.387 1_554 S
C442 C443 1.387 . S
C442 H446 0.950 . S
C442 C451 1.380 1_554 S
C443 C442 1.387 . S
C443 C445 1.387 1_554 S
H444 C451 0.949 1_554 S
C445 C443 1.387 1_556 S
C445 C447 1.390 . S
C445 H449 0.950 . S
H446 C442 0.950 . S
C447 C445 1.390 . S
C447 C448 1.387 . S
C447 H450 0.950 . S
C448 C447 1.387 . S
C448 C451 1.400 . S
H449 C445 0.950 . S
H450 C447 0.950 . S
C451 C442 1.380 1_556 S
C451 H444 0.949 1_556 S
C451 C448 1.400 . S
C452 C453 1.387 1_556 S
C452 H456 0.950 . S
C452 C461 1.390 . S
C453 C452 1.387 1_554 S
C453 C455 1.387 . S
H454 C461 0.950 . S
C455 C453 1.387 . S
C455 C457 1.390 . S
C455 H459 0.950 . S
H456 C452 0.950 . S
C457 C455 1.390 . S
C457 C458 1.387 1_554 S
C457 H460 0.950 . S
C458 C457 1.387 1_556 S
C458 C461 1.387 . S
H459 C455 0.950 . S
H460 C457 0.950 . S
C461 C452 1.390 . S
C461 H454 0.950 . S
C461 C458 1.387 . S
C462 C463 1.387 1_554 S
C462 H466 0.950 . S
C462 C471 1.390 . S
C463 C462 1.387 1_556 S
C463 C465 1.387 . S
H464 C471 0.950 . S
C465 C463 1.387 . S
C465 C467 1.390 . S
C465 H469 0.950 . S
H466 C462 0.950 . S
C467 C465 1.390 . S
C467 C468 1.387 1_556 S
C467 H470 0.950 . S
C468 C467 1.387 1_554 S
C468 C471 1.387 . S
H469 C465 0.950 . S
H470 C467 0.950 . S
C471 C462 1.390 . S
C471 H464 0.950 . S
C471 C468 1.387 . S
C472 C473 1.387 . S
C472 H476 0.951 . S
C472 C481 1.390 1_554 S
C473 C472 1.387 . S
C473 C475 1.387 . S
H474 C481 0.950 . S
C475 C473 1.387 . S
C475 C477 1.390 . S
C475 H479 0.950 . S
H476 C472 0.951 . S
C477 C475 1.390 . S
C477 C478 1.387 1_554 S
C477 H480 0.950 . S
C478 C477 1.387 1_556 S
C478 C481 1.387 . S
H479 C475 0.950 . S
H480 C477 0.950 . S
C481 C472 1.390 1_556 S
C481 H474 0.950 . S
C481 C478 1.387 . S
C482 C483 1.387 . S
C482 H486 0.950 . S
C482 C491 1.390 . S
C483 C482 1.387 . S
C483 C485 1.387 1_556 S
H484 C491 0.950 . S
C485 C483 1.387 1_554 S
C485 C487 1.390 . S
C485 H489 0.950 . S
H486 C482 0.950 . S
C487 C485 1.390 . S
C487 C488 1.387 . S
C487 H490 0.950 . S
C488 C487 1.387 . S
C488 C491 1.387 1_554 S
H489 C485 0.950 . S
H490 C487 0.950 . S
C491 C482 1.390 . S
C491 H484 0.950 . S
C491 C488 1.387 1_556 S
C492 C493 1.387 . S
C492 H496 0.950 . S
C492 C501 1.390 . S
C493 C492 1.387 . S
C493 C495 1.387 . S
H494 C501 0.950 . S
C495 C493 1.387 . S
C495 C497 1.390 . S
C495 H499 0.950 . S
H496 C492 0.950 . S
C497 C495 1.390 . S
C497 C498 1.387 . S
C497 H500 0.950 . S
C498 C497 1.387 . S
C498 C501 1.387 . S
H499 C495 0.950 . S
H500 C497 0.950 . S
C501 C492 1.390 . S
C501 H494 0.950 . S
C501 C498 1.387 . S
C502 C503 1.387 . S
C502 H506 0.950 . S
C502 C511 1.390 . S
C503 C502 1.387 . S
C503 C505 1.387 . S
H504 C511 0.950 . S
C505 C503 1.387 . S
C505 C507 1.390 . S
C505 H509 0.950 . S
H506 C502 0.950 . S
C507 C505 1.390 . S
C507 C508 1.387 . S
C507 H510 0.950 . S
C508 C507 1.387 . S
C508 C511 1.387 . S
H509 C505 0.950 . S
H510 C507 0.950 . S
C511 C502 1.390 . S
C511 H504 0.950 . S
C511 C508 1.387 . S
C512 C513 1.387 . S
C512 H516 0.950 . S
C512 C521 1.390 . S
C513 C512 1.387 . S
C513 C515 1.387 . S
H514 C521 0.950 . S
C515 C513 1.387 . S
C515 C517 1.390 . S
C515 H519 0.950 . S
H516 C512 0.950 . S
C517 C515 1.390 . S
C517 C518 1.387 . S
C517 H520 0.950 . S
C518 C517 1.387 . S
C518 C521 1.387 . S
H519 C515 0.950 . S
H520 C517 0.950 . S
C521 C512 1.390 . S
C521 H514 0.950 . S
C521 C518 1.387 . S
C522 C523 1.387 . S
C522 H526 0.950 . S
C522 C531 1.390 . S
C523 C522 1.387 . S
C523 C525 1.387 . S
H524 C531 0.950 . S
C525 C523 1.387 . S
C525 C527 1.390 . S
C525 H529 0.950 . S
H526 C522 0.950 . S
C527 C525 1.390 . S
C527 C528 1.387 . S
C527 H530 0.950 . S
C528 C527 1.387 . S
C528 C531 1.387 . S
H529 C525 0.950 . S
H530 C527 0.950 . S
C531 C522 1.390 . S
C531 H524 0.950 . S
C531 C528 1.387 . S
C532 C533 1.387 . S
C532 H536 0.950 1_545 S
C532 C541 1.382 . S
C533 C532 1.387 . S
C533 C535 1.387 . S
H534 C541 0.935 1_565 S
C535 C533 1.387 . S
C535 C537 1.390 . S
C535 H539 0.950 . S
H536 C532 0.950 1_565 S
C537 C535 1.390 . S
C537 C538 1.387 . S
C537 H540 0.950 . S
C538 C537 1.387 . S
C538 C541 1.411 . S
H539 C535 0.950 . S
H540 C537 0.950 . S
C541 C532 1.382 . S
C541 H534 0.935 1_545 S
C541 C538 1.411 . S
C542 C543 1.387 . S
C542 H546 0.950 . S
C542 C551 1.390 . S
C543 C542 1.387 . S
C543 C545 1.387 . S
H544 C551 0.950 . S
C545 C543 1.387 . S
C545 C547 1.390 . S
C545 H549 0.950 . S
H546 C542 0.950 . S
C547 C545 1.390 . S
C547 C548 1.387 . S
C547 H550 0.950 . S
C548 C547 1.387 . S
C548 C551 1.387 . S
H549 C545 0.950 . S
H550 C547 0.950 . S
C551 C542 1.390 . S
C551 H544 0.950 . S
C551 C548 1.387 . S
C552 C553 1.387 . S
C552 H556 0.950 . S
C552 C561 1.390 . S
C553 C552 1.387 . S
C553 C555 1.387 . S
H554 C561 0.950 . S
C555 C553 1.387 . S
C555 C557 1.390 . S
C555 H559 0.950 . S
H556 C552 0.950 . S
C557 C555 1.390 . S
C557 C558 1.387 . S
C557 H560 0.950 . S
C558 C557 1.387 . S
C558 C561 1.387 . S
H559 C555 0.950 . S
H560 C557 0.950 . S
C561 C552 1.390 . S
C561 H554 0.950 . S
C561 C558 1.387 . S
C562 C563 1.387 . S
C562 H566 0.950 . S
C562 C571 1.390 . S
C563 C562 1.387 . S
C563 C565 1.387 . S
H564 C571 0.950 . S
C565 C563 1.387 . S
C565 C567 1.390 . S
C565 H569 0.950 1_565 S
H566 C562 0.950 . S
C567 C565 1.390 . S
C567 C568 1.387 . S
C567 H570 0.950 1_565 S
C568 C567 1.387 . S
C568 C571 1.387 . S
H569 C565 0.950 1_545 S
H570 C567 0.950 1_545 S
C571 C562 1.390 . S
C571 H564 0.950 . S
C571 C568 1.387 . S
C572 C573 1.387 . S
C572 H576 0.950 . S
C572 C581 1.390 . S
C573 C572 1.387 . S
C573 C575 1.387 . S
H574 C581 0.950 . S
C575 C573 1.387 . S
C575 C577 1.390 . S
C575 H579 0.950 . S
H576 C572 0.950 . S
C577 C575 1.390 . S
C577 C578 1.387 . S
C577 H580 0.950 . S
C578 C577 1.387 . S
C578 C581 1.387 . S
H579 C575 0.950 . S
H580 C577 0.950 . S
C581 C572 1.390 . S
C581 H574 0.950 . S
C581 C578 1.387 . S
C582 C583 1.387 . S
C582 H586 0.950 . S
C582 C591 1.390 . S
C583 C582 1.387 . S
C583 C585 1.387 . S
H584 C591 0.950 . S
C585 C583 1.387 . S
C585 C587 1.390 . S
C585 H589 0.950 . S
H586 C582 0.950 . S
C587 C585 1.390 . S
C587 C588 1.387 . S
C587 H590 0.950 . S
C588 C587 1.387 . S
C588 C591 1.387 . S
H589 C585 0.950 . S
H590 C587 0.950 . S
C591 C582 1.390 . S
C591 H584 0.950 . S
C591 C588 1.387 . S
C592 C593 1.387 . S
C592 H596 0.950 . S
C592 C601 1.390 . S
C593 C592 1.387 . S
C593 C595 1.387 . S
H594 C601 0.950 . S
C595 C593 1.387 . S
C595 C597 1.390 . S
C595 H599 0.950 . S
H596 C592 0.950 . S
C597 C595 1.390 . S
C597 C598 1.387 . S
C597 H600 0.950 . S
C598 C597 1.387 . S
C598 C601 1.387 . S
H599 C595 0.950 . S
H600 C597 0.950 . S
C601 C592 1.390 . S
C601 H594 0.950 . S
C601 C598 1.387 . S
C602 C603 1.387 . S
C602 H606 0.950 . S
C602 C611 1.390 . S
C603 C602 1.387 . S
C603 C605 1.387 . S
H604 C611 0.950 . S
C605 C603 1.387 . S
C605 C607 1.390 . S
C605 H609 0.950 . S
H606 C602 0.950 . S
C607 C605 1.390 . S
C607 C608 1.387 . S
C607 H610 0.950 . S
C608 C607 1.387 . S
C608 C611 1.387 . S
H609 C605 0.950 . S
H610 C607 0.950 . S
C611 C602 1.390 . S
C611 H604 0.950 . S
C611 C608 1.387 . S
C253 C7 1.762 . S
C258 C49 1.762 . S
C263 C21 1.775 . S
C268 C63 1.775 . S
C273 C77 1.766 . S
C278 C35 1.766 . S
C283 C91 1.741 . S
C288 C133 1.742 . S
C293 C105 1.771 . S
C298 C147 1.770 . S
C303 C161 1.726 . S
C308 C119 1.728 . S
C313 C217 1.738 . S
C318 C175 1.739 . S
C323 C231 1.769 . S
C328 C189 1.768 . S
C333 C245 1.728 . S
C338 C203 1.725 . S
C343 C6 1.464 . S
C348 C132 1.463 . S
C353 C20 1.471 . S
C358 C146 1.471 . S
C363 C160 1.483 . S
C368 C34 1.481 . S
C373 C48 1.464 . S
C378 C174 1.463 . S
C383 C62 1.470 . S
C388 C188 1.470 . S
C393 C76 1.481 . S
C398 C202 1.483 . S
C403 C90 1.490 . S
C408 C216 1.491 . S
C413 C104 1.481 . S
C418 C230 1.481 . S
C423 C244 1.467 . S
C428 C118 1.465 . S
C433 C9 1.116 . S
C438 C64 1.108 . S
C443 C23 1.107 . S
C448 C78 1.100 . S
C453 C37 1.115 . S
C458 C50 1.106 . S
C463 C51 1.116 . S
C468 C22 1.108 . S
C473 C36 1.097 . S
C478 C65 1.109 . S
C483 C79 1.114 . S
C488 C8 1.107 . S
C493 C93 1.190 . S
C498 C148 1.173 . S
C503 C162 1.100 . S
C508 C107 1.105 . S
C513 C134 1.164 . S
C518 C121 1.186 . S
C523 C106 1.107 . S
C528 C135 1.118 . S
C533 C149 1.121 . S
C538 C120 1.109 . S
C543 C163 1.068 . S
C548 C92 1.066 . S
C553 C232 1.108 . S
C558 C177 1.116 . S
C563 C246 1.110 . S
C568 C191 1.119 . S
C573 C205 1.068 . S
C578 C218 1.066 . S
C583 C190 1.173 . S
C588 C219 1.191 . S
C593 C204 1.100 . S
C598 C233 1.105 . S
C603 C176 1.164 . S
C608 C247 1.186 . S
