# Generated by pormake.
# Topology wgc, (5)-cn, num edge types: 1
# Building blocks:
#     Node 0, Type 0, BuildingBlock: BEQFEK_clean_sbu_0, # of connection points: 5
#     Node 1, Type 0, BuildingBlock: BEQFEK_clean_sbu_0, # of connection points: 5
#     Node 2, Type 0, BuildingBlock: BEQFEK_clean_sbu_0, # of connection points: 5
#     Node 3, Type 0, BuildingBlock: BEQFEK_clean_sbu_0, # of connection points: 5
#     Node 4, Type 0, BuildingBlock: BEQFEK_clean_sbu_0, # of connection points: 5
#     Node 5, Type 0, BuildingBlock: BEQFEK_clean_sbu_0, # of connection points: 5
#     Node 6, Type 0, BuildingBlock: BEQFEK_clean_sbu_0, # of connection points: 5
#     Node 7, Type 0, BuildingBlock: BEQFEK_clean_sbu_0, # of connection points: 5
#     Node 8, Type 0, BuildingBlock: BEQFEK_clean_sbu_0, # of connection points: 5
#     Node 9, Type 0, BuildingBlock: BEQFEK_clean_sbu_0, # of connection points: 5
#     Node 10, Type 0, BuildingBlock: BEQFEK_clean_sbu_0, # of connection points: 5
#     Node 11, Type 0, BuildingBlock: BEQFEK_clean_sbu_0, # of connection points: 5
#     Node 12, Type 0, BuildingBlock: BEQFEK_clean_sbu_0, # of connection points: 5
#     Node 13, Type 0, BuildingBlock: BEQFEK_clean_sbu_0, # of connection points: 5
#     Node 14, Type 0, BuildingBlock: BEQFEK_clean_sbu_0, # of connection points: 5
#     Node 15, Type 0, BuildingBlock: BEQFEK_clean_sbu_0, # of connection points: 5
#     Edge 16, Type (0, 0), BuildingBlock: OJICUG_clean_linker_0, # of connection points: 2
#     Edge 17, Type (0, 0), BuildingBlock: OJICUG_clean_linker_0, # of connection points: 2
#     Edge 18, Type (0, 0), BuildingBlock: OJICUG_clean_linker_0, # of connection points: 2
#     Edge 19, Type (0, 0), BuildingBlock: OJICUG_clean_linker_0, # of connection points: 2
#     Edge 20, Type (0, 0), BuildingBlock: OJICUG_clean_linker_0, # of connection points: 2
#     Edge 21, Type (0, 0), BuildingBlock: OJICUG_clean_linker_0, # of connection points: 2
#     Edge 22, Type (0, 0), BuildingBlock: OJICUG_clean_linker_0, # of connection points: 2
#     Edge 23, Type (0, 0), BuildingBlock: OJICUG_clean_linker_0, # of connection points: 2
#     Edge 24, Type (0, 0), BuildingBlock: OJICUG_clean_linker_0, # of connection points: 2
#     Edge 25, Type (0, 0), BuildingBlock: OJICUG_clean_linker_0, # of connection points: 2
#     Edge 26, Type (0, 0), BuildingBlock: OJICUG_clean_linker_0, # of connection points: 2
#     Edge 27, Type (0, 0), BuildingBlock: OJICUG_clean_linker_0, # of connection points: 2
#     Edge 28, Type (0, 0), BuildingBlock: OJICUG_clean_linker_0, # of connection points: 2
#     Edge 29, Type (0, 0), BuildingBlock: OJICUG_clean_linker_0, # of connection points: 2
#     Edge 30, Type (0, 0), BuildingBlock: OJICUG_clean_linker_0, # of connection points: 2
#     Edge 31, Type (0, 0), BuildingBlock: OJICUG_clean_linker_0, # of connection points: 2
#     Edge 32, Type (0, 0), BuildingBlock: OJICUG_clean_linker_0, # of connection points: 2
#     Edge 33, Type (0, 0), BuildingBlock: OJICUG_clean_linker_0, # of connection points: 2
#     Edge 34, Type (0, 0), BuildingBlock: OJICUG_clean_linker_0, # of connection points: 2
#     Edge 35, Type (0, 0), BuildingBlock: OJICUG_clean_linker_0, # of connection points: 2
#     Edge 36, Type (0, 0), BuildingBlock: OJICUG_clean_linker_0, # of connection points: 2
#     Edge 37, Type (0, 0), BuildingBlock: OJICUG_clean_linker_0, # of connection points: 2
#     Edge 38, Type (0, 0), BuildingBlock: OJICUG_clean_linker_0, # of connection points: 2
#     Edge 39, Type (0, 0), BuildingBlock: OJICUG_clean_linker_0, # of connection points: 2
#     Edge 40, Type (0, 0), BuildingBlock: OJICUG_clean_linker_0, # of connection points: 2
#     Edge 41, Type (0, 0), BuildingBlock: OJICUG_clean_linker_0, # of connection points: 2
#     Edge 42, Type (0, 0), BuildingBlock: OJICUG_clean_linker_0, # of connection points: 2
#     Edge 43, Type (0, 0), BuildingBlock: OJICUG_clean_linker_0, # of connection points: 2
#     Edge 44, Type (0, 0), BuildingBlock: OJICUG_clean_linker_0, # of connection points: 2
#     Edge 45, Type (0, 0), BuildingBlock: OJICUG_clean_linker_0, # of connection points: 2
#     Edge 46, Type (0, 0), BuildingBlock: OJICUG_clean_linker_0, # of connection points: 2
#     Edge 47, Type (0, 0), BuildingBlock: OJICUG_clean_linker_0, # of connection points: 2
#     Edge 48, Type (0, 0), BuildingBlock: OJICUG_clean_linker_0, # of connection points: 2
#     Edge 49, Type (0, 0), BuildingBlock: OJICUG_clean_linker_0, # of connection points: 2
#     Edge 50, Type (0, 0), BuildingBlock: OJICUG_clean_linker_0, # of connection points: 2
#     Edge 51, Type (0, 0), BuildingBlock: OJICUG_clean_linker_0, # of connection points: 2
#     Edge 52, Type (0, 0), BuildingBlock: OJICUG_clean_linker_0, # of connection points: 2
#     Edge 53, Type (0, 0), BuildingBlock: OJICUG_clean_linker_0, # of connection points: 2
#     Edge 54, Type (0, 0), BuildingBlock: OJICUG_clean_linker_0, # of connection points: 2
#     Edge 55, Type (0, 0), BuildingBlock: OJICUG_clean_linker_0, # of connection points: 2
# Relax obj value: 0.146
# Max RMSD: 0.140
# Mean RMSD: 0.140
data_MOF--net-wgc--node1-BEQFEK_clean_sbu_0--edge1-OJICUG_clean_linker_0
_symmetry_space_group_name_H-M    P1
_symmetry_Int_Tables_number       1
_symmetry_cell_setting            triclinic
loop_
_symmetry_equiv_pos_as_xyz
'x, y, z'
_cell_length_a     31.601235
_cell_length_b     31.693004
_cell_length_c     40.512129
_cell_angle_alpha  89.870895
_cell_angle_beta   89.90303
_cell_angle_gamma 89.977917
loop_
_atom_site_label
_atom_site_type_symbol
_atom_site_fract_x
_atom_site_fract_y
_atom_site_fract_z
_atom_type_partial_charge
Co0 Co 0.2038 0.1189 0.00823 0.0
Co1 Co 0.29789 0.08741 0.00636 0.0
C2 C 0.25451 0.10986 0.94478 0.0
O3 O 0.22152 0.11663 0.96193 0.0
O4 O 0.28976 0.10009 0.9583 0.0
C5 C 0.13893 0.17716 0.98989 0.0
O6 O 0.16923 0.19669 0.97372 0.0
C7 C 0.3846 0.04796 0.00104 0.0
C8 C 0.39752 0.04017 0.05427 0.0
C9 C 0.41357 0.03084 0.02334 0.0
N10 N 0.35311 0.06659 0.01833 0.0
N11 N 0.36137 0.06171 0.05007 0.0
C12 C 0.38407 0.04217 0.96443 0.0
H13 H 0.35105 0.04191 0.9552 0.0
H14 H 0.40098 0.06897 0.95269 0.0
H15 H 0.4003 0.01245 0.95737 0.0
C16 C 0.23888 0.18021 0.05484 0.0
N17 N 0.24351 0.14749 0.03413 0.0
N18 N 0.28355 0.13609 0.03293 0.0
C19 C 0.30597 0.16255 0.05242 0.0
C20 C 0.27834 0.19121 0.06704 0.0
C21 C 0.1969 0.19846 0.06437 0.0
H22 H 0.17225 0.17359 0.06406 0.0
H23 H 0.18804 0.22324 0.04626 0.0
H24 H 0.19802 0.21275 0.08934 0.0
O25 O 0.1955 0.06178 0.02375 0.0
O26 O 0.26059 0.03776 0.01609 0.0
H27 H 0.3625 0.1442 0.07751 0.0
H28 H 0.36499 0.19532 0.05862 0.0
C29 C 0.35315 0.16261 0.05539 0.0
H30 H 0.36789 0.1484 0.03318 0.0
H31 H 0.34099 0.07107 0.06897 0.0
O32 O 0.1477 0.14532 0.00768 0.0
C33 C 0.22184 0.03163 0.02334 0.0
Co34 Co 0.12236 0.79053 0.99145 0.0
Co35 Co 0.08869 0.69711 0.99018 0.0
C36 C 0.1136 0.73565 0.0528 0.0
O37 O 0.12123 0.76899 0.03645 0.0
O38 O 0.10223 0.70156 0.03847 0.0
C39 C 0.14237 0.86942 0.01604 0.0
O40 O 0.10828 0.86077 0.03338 0.0
C41 C 0.05567 0.60732 0.99053 0.0
C42 C 0.02875 0.60772 0.9403 0.0
C43 C 0.03216 0.58276 0.96835 0.0
N44 N 0.0648 0.64461 0.97592 0.0
N45 N 0.04868 0.64425 0.94592 0.0
C46 C 0.06991 0.596 0.02457 0.0
H47 H 0.09506 0.61789 0.03295 0.0
H48 H 0.08218 0.56319 0.02505 0.0
H49 H 0.0427 0.59833 0.04182 0.0
C50 C 0.1804 0.75686 0.94163 0.0
N51 N 0.14822 0.75173 0.96294 0.0
N52 N 0.13588 0.7121 0.9628 0.0
C53 C 0.16039 0.69053 0.94128 0.0
C54 C 0.18962 0.71821 0.9273 0.0
C55 C 0.2001 0.79874 0.93396 0.0
H56 H 0.17562 0.82381 0.93448 0.0
H57 H 0.22408 0.80608 0.95308 0.0
H58 H 0.21562 0.79872 0.90938 0.0
O59 O 0.06361 0.80251 0.97943 0.0
O60 O 0.04079 0.7365 0.98279 0.0
H61 H 0.13228 0.63886 0.91583 0.0
H62 H 0.18718 0.63104 0.92606 0.0
C63 C 0.1567 0.6442 0.93501 0.0
H64 H 0.14674 0.62759 0.95787 0.0
H65 H 0.05048 0.6696 0.92948 0.0
O66 O 0.15473 0.84333 0.99432 0.0
C67 C 0.03375 0.77568 0.97866 0.0
Co68 Co 0.79195 0.87979 0.00741 0.0
Co69 Co 0.69502 0.90216 0.00555 0.0
C70 C 0.74002 0.87976 0.94433 0.0
O71 O 0.77341 0.87675 0.96154 0.0
O72 O 0.70419 0.88799 0.95764 0.0
C73 C 0.85948 0.82628 0.98935 0.0
O74 O 0.82918 0.8058 0.97405 0.0
C75 C 0.60356 0.92964 2e-05 0.0
C76 C 0.58894 0.9346 0.0532 0.0
C77 C 0.57165 0.94087 0.02221 0.0
N78 N 0.6378 0.91703 0.0174 0.0
N79 N 0.62867 0.92059 0.0491 0.0
C80 C 0.60181 0.93119 0.96318 0.0
H81 H 0.62201 0.90605 0.9525 0.0
H82 H 0.56878 0.92758 0.95435 0.0
H83 H 0.61412 0.96214 0.95463 0.0
C84 C 0.76313 0.81758 0.05627 0.0
N85 N 0.75538 0.84932 0.03507 0.0
N86 N 0.71437 0.85637 0.03348 0.0
C87 C 0.69459 0.82794 0.05318 0.0
C88 C 0.72488 0.80266 0.06843 0.0
C89 C 0.80663 0.80316 0.06556 0.0
H90 H 0.82894 0.83014 0.065 0.0
H91 H 0.81757 0.77928 0.04747 0.0
H92 H 0.80688 0.78879 0.09057 0.0
O93 O 0.79448 0.93875 0.01929 0.0
O94 O 0.72691 0.95588 0.01376 0.0
H95 H 0.63524 0.83922 0.07693 0.0
H96 H 0.63979 0.78819 0.05831 0.0
C97 C 0.64767 0.8221 0.05512 0.0
H98 H 0.63218 0.83435 0.03251 0.0
H99 H 0.65012 0.91453 0.06808 0.0
O100 O 0.85021 0.85797 0.00708 0.0
C101 C 0.76526 0.96619 0.01905 0.0
Co102 Co 0.87601 0.20372 0.99215 0.0
Co103 Co 0.904 0.29881 0.99354 0.0
C104 C 0.88029 0.25598 0.05504 0.0
O105 O 0.87501 0.22309 0.03771 0.0
O106 O 0.89013 0.2914 0.04178 0.0
C107 C 0.81489 0.14031 0.00805 0.0
O108 O 0.79273 0.17172 0.02025 0.0
C109 C 0.9344 0.38991 0.99387 0.0
C110 C 0.95403 0.39235 0.94157 0.0
C111 C 0.95371 0.41608 0.97026 0.0
N112 N 0.92436 0.35291 0.97932 0.0
N113 N 0.93626 0.35495 0.94814 0.0
C114 C 0.92517 0.39945 0.02926 0.0
H115 H 0.90134 0.37706 0.03921 0.0
H116 H 0.91331 0.43225 0.0318 0.0
H117 H 0.95467 0.39618 0.04385 0.0
C118 C 0.81571 0.23637 0.94314 0.0
N119 N 0.84759 0.24194 0.9646 0.0
N120 N 0.85753 0.28221 0.96592 0.0
C121 C 0.83146 0.30374 0.94549 0.0
C122 C 0.80402 0.27537 0.93047 0.0
C123 C 0.79861 0.1941 0.93353 0.0
H124 H 0.82375 0.16979 0.93533 0.0
H125 H 0.77251 0.1854 0.95058 0.0
H126 H 0.78604 0.19467 0.90797 0.0
O127 O 0.93523 0.19664 0.97991 0.0
O128 O 0.95483 0.26328 0.98547 0.0
H129 H 0.85374 0.35943 0.92143 0.0
H130 H 0.79949 0.36224 0.9347 0.0
C131 C 0.83148 0.35067 0.9415 0.0
H132 H 0.84195 0.36605 0.96466 0.0
H133 H 0.93304 0.33017 0.93141 0.0
O134 O 0.84975 0.14767 0.99346 0.0
C135 C 0.96379 0.22479 0.98012 0.0
Co136 Co 0.20315 0.36571 0.24046 0.0
Co137 Co 0.2942 0.40431 0.24134 0.0
C138 C 0.25475 0.37679 0.30324 0.0
O139 O 0.22204 0.36798 0.28642 0.0
O140 O 0.28895 0.38942 0.28938 0.0
C141 C 0.14025 0.30579 0.26022 0.0
O142 O 0.16988 0.28934 0.27897 0.0
C143 C 0.38446 0.4374 0.24062 0.0
C144 C 0.37943 0.47353 0.1941 0.0
C145 C 0.40722 0.46419 0.2195 0.0
N146 N 0.34538 0.43182 0.22791 0.0
N147 N 0.34293 0.45358 0.20017 0.0
C148 C 0.39944 0.4163 0.27148 0.0
H149 H 0.37846 0.38942 0.27792 0.0
H150 H 0.43244 0.40497 0.26832 0.0
H151 H 0.39871 0.43934 0.29206 0.0
C152 C 0.24101 0.31159 0.18978 0.0
N153 N 0.24411 0.34175 0.21285 0.0
N154 N 0.28281 0.35709 0.21301 0.0
C155 C 0.30582 0.33648 0.18994 0.0
C156 C 0.27995 0.30712 0.17444 0.0
C157 C 0.20084 0.28873 0.18193 0.0
H158 H 0.19035 0.2709 0.20407 0.0
H159 H 0.20487 0.26644 0.16108 0.0
H160 H 0.17574 0.31199 0.17592 0.0
O161 O 0.18932 0.42279 0.22671 0.0
O162 O 0.25271 0.45048 0.23423 0.0
H163 H 0.35149 0.37528 0.16575 0.0
H164 H 0.3657 0.32022 0.16766 0.0
C165 C 0.35074 0.34655 0.18144 0.0
H166 H 0.36891 0.35307 0.20427 0.0
H167 H 0.31594 0.45501 0.1854 0.0
O168 O 0.14922 0.33566 0.24051 0.0
C169 C 0.21358 0.45455 0.22783 0.0
Co170 Co 0.37956 0.78761 0.75805 0.0
Co171 Co 0.40765 0.6924 0.75626 0.0
C172 C 0.3823 0.73518 0.69514 0.0
O173 O 0.37743 0.76825 0.71239 0.0
O174 O 0.39249 0.69985 0.70838 0.0
C175 C 0.3232 0.85365 0.73982 0.0
O176 O 0.30402 0.82379 0.72312 0.0
C177 C 0.43629 0.60062 0.7555 0.0
C178 C 0.46097 0.59915 0.80647 0.0
C179 C 0.45706 0.57465 0.77837 0.0
N180 N 0.42873 0.63833 0.76987 0.0
N181 N 0.44373 0.6369 0.80024 0.0
C182 C 0.42321 0.59005 0.72108 0.0
H183 H 0.39824 0.6121 0.71248 0.0
H184 H 0.41145 0.55709 0.71988 0.0
H185 H 0.45097 0.59307 0.70444 0.0
C186 C 0.32181 0.75523 0.80909 0.0
N187 N 0.35203 0.74936 0.78619 0.0
N188 N 0.36197 0.70906 0.78479 0.0
C189 C 0.33736 0.68782 0.80651 0.0
C190 C 0.3114 0.71647 0.82274 0.0
C191 C 0.30323 0.79735 0.81736 0.0
H192 H 0.28393 0.80846 0.79621 0.0
H193 H 0.28279 0.79592 0.83962 0.0
H194 H 0.32903 0.82056 0.82119 0.0
O195 O 0.43886 0.79437 0.76935 0.0
O196 O 0.45862 0.72784 0.76343 0.0
H197 H 0.36422 0.63482 0.83135 0.0
H198 H 0.30892 0.62925 0.8221 0.0
C199 C 0.33957 0.64132 0.81256 0.0
H200 H 0.34807 0.62457 0.78947 0.0
H201 H 0.44274 0.66222 0.81664 0.0
O202 O 0.35443 0.84434 0.75814 0.0
C203 C 0.4675 0.76634 0.76871 0.0
Co204 Co 0.79098 0.60902 0.23812 0.0
Co205 Co 0.6957 0.58183 0.23772 0.0
C206 C 0.7362 0.60631 0.29993 0.0
O207 O 0.77007 0.61094 0.28343 0.0
O208 O 0.70127 0.59681 0.2858 0.0
C209 C 0.85646 0.66373 0.25867 0.0
O210 O 0.82594 0.6822 0.2753 0.0
C211 C 0.6041 0.5539 0.23875 0.0
C212 C 0.60179 0.52891 0.18792 0.0
C213 C 0.57776 0.53299 0.21636 0.0
N214 N 0.64162 0.56135 0.22384 0.0
N215 N 0.63974 0.5462 0.19356 0.0
C216 C 0.59405 0.5672 0.27324 0.0
H217 H 0.61547 0.59302 0.28108 0.0
H218 H 0.56065 0.57781 0.27507 0.0
H219 H 0.59864 0.53996 0.29012 0.0
C220 C 0.76163 0.66678 0.18614 0.0
N221 N 0.75427 0.63686 0.20899 0.0
N222 N 0.71379 0.62711 0.20917 0.0
C223 C 0.69386 0.65151 0.18657 0.0
C224 C 0.72367 0.67709 0.17099 0.0
C225 C 0.80432 0.68564 0.1798 0.0
H226 H 0.815 0.70232 0.20233 0.0
H227 H 0.80397 0.70841 0.159 0.0
H228 H 0.82741 0.66008 0.17467 0.0
O229 O 0.79796 0.55003 0.22687 0.0
O230 O 0.73102 0.53052 0.23149 0.0
H231 H 0.6424 0.6242 0.16018 0.0
H232 H 0.63588 0.67937 0.16874 0.0
C233 C 0.64764 0.64907 0.17896 0.0
H234 H 0.6295 0.64082 0.20152 0.0
H235 H 0.66493 0.54693 0.17687 0.0
O236 O 0.84781 0.63349 0.23933 0.0
C237 C 0.76981 0.52154 0.22706 0.0
Co238 Co 0.62352 0.19913 0.76066 0.0
Co239 Co 0.58557 0.29053 0.75966 0.0
C240 C 0.61186 0.25039 0.69783 0.0
O241 O 0.62064 0.21765 0.71463 0.0
O242 O 0.59975 0.28462 0.71167 0.0
C243 C 0.68275 0.1359 0.74058 0.0
O244 O 0.69891 0.16543 0.72158 0.0
C245 C 0.55263 0.38063 0.75851 0.0
C246 C 0.5186 0.37814 0.80612 0.0
C247 C 0.52662 0.40446 0.77947 0.0
N248 N 0.55899 0.3424 0.77249 0.0
N249 N 0.53849 0.34147 0.80088 0.0
C250 C 0.57211 0.39376 0.72647 0.0
H251 H 0.59869 0.37243 0.71994 0.0
H252 H 0.5837 0.42675 0.72804 0.0
H253 H 0.5479 0.39199 0.70671 0.0
C254 C 0.67949 0.23686 0.81003 0.0
N255 N 0.64848 0.24004 0.78757 0.0
N256 N 0.63344 0.27878 0.7874 0.0
C257 C 0.65512 0.30173 0.8098 0.0
C258 C 0.68485 0.27578 0.82491 0.0
C259 C 0.70244 0.19668 0.81765 0.0
H260 H 0.71948 0.186 0.79522 0.0
H261 H 0.72556 0.20064 0.83799 0.0
H262 H 0.67918 0.17185 0.82431 0.0
O263 O 0.56644 0.18623 0.77513 0.0
O264 O 0.539 0.2497 0.76767 0.0
H265 H 0.61773 0.34793 0.83454 0.0
H266 H 0.67293 0.36157 0.83095 0.0
C267 C 0.64579 0.34672 0.81807 0.0
H268 H 0.63835 0.36461 0.79523 0.0
H269 H 0.53772 0.31535 0.8166 0.0
O270 O 0.6532 0.14493 0.76062 0.0
C271 C 0.53477 0.21072 0.77432 0.0
Co272 Co 0.69954 0.6198 0.50455 0.0
Co273 Co 0.79239 0.58595 0.50496 0.0
C274 C 0.75209 0.60875 0.44223 0.0
O275 O 0.71883 0.61654 0.45877 0.0
O276 O 0.7867 0.59823 0.45646 0.0
C277 C 0.63619 0.67913 0.48489 0.0
O278 O 0.66679 0.69846 0.46892 0.0
C279 C 0.88297 0.5536 0.50487 0.0
C280 C 0.8828 0.52847 0.55573 0.0
C281 C 0.90787 0.53133 0.52769 0.0
N282 N 0.8454 0.5627 0.51919 0.0
N283 N 0.84589 0.54758 0.54954 0.0
C284 C 0.89429 0.56674 0.47054 0.0
H285 H 0.87218 0.59141 0.46156 0.0
H286 H 0.92716 0.57903 0.46979 0.0
H287 H 0.89211 0.53904 0.45393 0.0
C288 C 0.73422 0.6799 0.55229 0.0
N289 N 0.73881 0.64755 0.53124 0.0
N290 N 0.7783 0.63439 0.53152 0.0
C291 C 0.80039 0.65872 0.55278 0.0
C292 C 0.77316 0.68849 0.56656 0.0
C293 C 0.69243 0.69959 0.56051 0.0
H294 H 0.66705 0.6755 0.55959 0.0
H295 H 0.68521 0.7244 0.54199 0.0
H296 H 0.69273 0.71407 0.58542 0.0
O297 O 0.68878 0.56317 0.52038 0.0
O298 O 0.75344 0.53775 0.51396 0.0
H299 H 0.85145 0.62977 0.5787 0.0
H300 H 0.86045 0.68427 0.56813 0.0
C301 C 0.84671 0.6541 0.55932 0.0
H302 H 0.86336 0.64374 0.53661 0.0
H303 H 0.82044 0.54966 0.56591 0.0
O304 O 0.64443 0.64735 0.50285 0.0
C305 C 0.71445 0.53248 0.52062 0.0
Co306 Co 0.61944 0.28905 0.49427 0.0
Co307 Co 0.58687 0.19581 0.49312 0.0
C308 C 0.61142 0.23421 0.55574 0.0
O309 O 0.61856 0.26764 0.53936 0.0
O310 O 0.60042 0.19997 0.54145 0.0
C311 C 0.63691 0.3691 0.51728 0.0
O312 O 0.60223 0.36074 0.53399 0.0
C313 C 0.55397 0.10626 0.49245 0.0
C314 C 0.52831 0.10745 0.44179 0.0
C315 C 0.531 0.08215 0.46968 0.0
N316 N 0.56352 0.14367 0.47829 0.0
N317 N 0.54817 0.14382 0.44804 0.0
C318 C 0.56732 0.09445 0.52661 0.0
H319 H 0.59256 0.11595 0.53543 0.0
H320 H 0.57913 0.06147 0.52709 0.0
H321 H 0.53978 0.09702 0.54351 0.0
C322 C 0.67795 0.25602 0.44438 0.0
N323 N 0.64592 0.2507 0.46581 0.0
N324 N 0.63394 0.21098 0.4658 0.0
C325 C 0.65854 0.18951 0.44429 0.0
C326 C 0.6874 0.21738 0.43011 0.0
C327 C 0.69723 0.29803 0.43652 0.0
H328 H 0.67253 0.32289 0.43704 0.0
H329 H 0.72124 0.30569 0.45554 0.0
H330 H 0.71263 0.29801 0.41189 0.0
O331 O 0.5608 0.30057 0.48193 0.0
O332 O 0.53847 0.2345 0.48562 0.0
H333 H 0.63121 0.13739 0.41886 0.0
H334 H 0.68603 0.13017 0.42952 0.0
C335 C 0.65533 0.1431 0.4382 0.0
H336 H 0.6453 0.12654 0.46107 0.0
H337 H 0.55043 0.1694 0.43187 0.0
O338 O 0.65078 0.34216 0.4968 0.0
C339 C 0.53115 0.27355 0.48121 0.0
Co340 Co 0.2897 0.37856 0.50781 0.0
Co341 Co 0.19396 0.40535 0.50695 0.0
C342 C 0.23627 0.38073 0.44533 0.0
O343 O 0.26982 0.37626 0.46222 0.0
O344 O 0.20097 0.39034 0.45898 0.0
C345 C 0.35658 0.32376 0.48897 0.0
O346 O 0.32687 0.30486 0.47185 0.0
C347 C 0.10228 0.43452 0.50585 0.0
C348 C 0.10002 0.4576 0.5572 0.0
C349 C 0.07605 0.45522 0.52864 0.0
N350 N 0.13954 0.4257 0.52071 0.0
N351 N 0.1376 0.43966 0.55132 0.0
C352 C 0.09264 0.42303 0.47092 0.0
H353 H 0.11526 0.39885 0.4619 0.0
H354 H 0.05985 0.41078 0.46896 0.0
H355 H 0.09559 0.45152 0.45512 0.0
C356 C 0.25897 0.32055 0.55924 0.0
N357 N 0.2522 0.35058 0.53639 0.0
N358 N 0.21163 0.35996 0.53546 0.0
C359 C 0.1911 0.33511 0.55745 0.0
C360 C 0.22053 0.30966 0.57342 0.0
C361 C 0.30161 0.30236 0.56677 0.0
H362 H 0.31282 0.28423 0.54506 0.0
H363 H 0.30083 0.28101 0.58848 0.0
H364 H 0.32449 0.32831 0.5711 0.0
O365 O 0.29589 0.43765 0.51911 0.0
O366 O 0.22891 0.45676 0.51389 0.0
H367 H 0.1381 0.36059 0.58328 0.0
H368 H 0.13292 0.30571 0.57313 0.0
C369 C 0.14455 0.33664 0.56398 0.0
H370 H 0.12725 0.34557 0.54122 0.0
H371 H 0.16262 0.43784 0.56805 0.0
O372 O 0.34691 0.35435 0.50771 0.0
C373 C 0.26753 0.46595 0.5188 0.0
Co374 Co 0.37417 0.7047 0.49036 0.0
Co375 Co 0.40138 0.79958 0.49167 0.0
C376 C 0.37898 0.75663 0.55335 0.0
O377 O 0.37373 0.72359 0.53616 0.0
O378 O 0.38824 0.79206 0.53989 0.0
C379 C 0.31636 0.64007 0.50821 0.0
O380 O 0.2962 0.67061 0.52348 0.0
C381 C 0.43109 0.89046 0.49239 0.0
C382 C 0.45355 0.89243 0.44074 0.0
C383 C 0.45168 0.91633 0.4693 0.0
N384 N 0.42182 0.85341 0.47769 0.0
N385 N 0.43539 0.85513 0.44691 0.0
C386 C 0.42007 0.9002 0.52743 0.0
H387 H 0.3954 0.87816 0.53659 0.0
H388 H 0.40854 0.93317 0.52957 0.0
H389 H 0.44869 0.89651 0.543 0.0
C390 C 0.31537 0.73633 0.44004 0.0
N391 N 0.34541 0.74262 0.46291 0.0
N392 N 0.35495 0.783 0.46416 0.0
C393 C 0.33018 0.80391 0.4424 0.0
C394 C 0.30464 0.77491 0.42628 0.0
C395 C 0.29776 0.6939 0.43147 0.0
H396 H 0.27743 0.68281 0.45207 0.0
H397 H 0.27846 0.69488 0.40864 0.0
H398 H 0.32401 0.67094 0.42852 0.0
O399 O 0.4329 0.69799 0.47723 0.0
O400 O 0.45222 0.76462 0.48292 0.0
H401 H 0.35595 0.85653 0.41632 0.0
H402 H 0.30113 0.86224 0.42715 0.0
C403 C 0.33218 0.85032 0.43592 0.0
H404 H 0.3416 0.86741 0.4586 0.0
H405 H 0.43315 0.83015 0.43025 0.0
O406 O 0.34884 0.64846 0.49093 0.0
C407 C 0.46125 0.7263 0.4771 0.0
Co408 Co 0.70648 0.87349 0.73987 0.0
Co409 Co 0.80163 0.90033 0.74062 0.0
C410 C 0.76 0.87586 0.80237 0.0
O411 O 0.72653 0.87115 0.78545 0.0
O412 O 0.79523 0.88564 0.78867 0.0
C413 C 0.64184 0.81567 0.75754 0.0
O414 O 0.67267 0.79529 0.77233 0.0
C415 C 0.89251 0.93056 0.74048 0.0
C416 C 0.8931 0.95382 0.68905 0.0
C417 C 0.91773 0.95185 0.71729 0.0
N418 N 0.85517 0.92111 0.72614 0.0
N419 N 0.85608 0.93512 0.69547 0.0
C420 C 0.90298 0.91917 0.77533 0.0
H421 H 0.88063 0.89499 0.78479 0.0
H422 H 0.93581 0.90689 0.77687 0.0
H423 H 0.90035 0.94768 0.79105 0.0
C424 C 0.73726 0.81628 0.68789 0.0
N425 N 0.74384 0.84575 0.71113 0.0
N426 N 0.78439 0.85501 0.71235 0.0
C427 C 0.80511 0.83063 0.69024 0.0
C428 C 0.77584 0.80562 0.67388 0.0
C429 C 0.69464 0.79881 0.67947 0.0
H430 H 0.68405 0.77775 0.69976 0.0
H431 H 0.6953 0.78041 0.65621 0.0
H432 H 0.6714 0.82494 0.67736 0.0
O433 O 0.69943 0.9328 0.72866 0.0
O434 O 0.76651 0.9515 0.73369 0.0
H435 H 0.85816 0.85618 0.66443 0.0
H436 H 0.86339 0.80135 0.67485 0.0
C437 C 0.85169 0.83229 0.68384 0.0
H438 H 0.86887 0.84123 0.70662 0.0
H439 H 0.83069 0.93289 0.67912 0.0
O440 O 0.65003 0.84835 0.74053 0.0
C441 C 0.72795 0.96095 0.72889 0.0
Co442 Co 0.87747 0.2844 0.25994 0.0
Co443 Co 0.90332 0.18922 0.25788 0.0
C444 C 0.88025 0.23254 0.19672 0.0
O445 O 0.87594 0.26545 0.2142 0.0
O446 O 0.88918 0.19682 0.20983 0.0
C447 C 0.81963 0.34827 0.24201 0.0
O448 O 0.79961 0.31708 0.22753 0.0
C449 C 0.93232 0.09807 0.257 0.0
C450 C 0.9548 0.09593 0.30858 0.0
C451 C 0.95268 0.07202 0.28004 0.0
N452 N 0.92339 0.13522 0.27171 0.0
N453 N 0.93699 0.13341 0.30244 0.0
C454 C 0.92117 0.08837 0.222 0.0
H455 H 0.89665 0.11059 0.21291 0.0
H456 H 0.90943 0.05548 0.21993 0.0
H457 H 0.94979 0.09182 0.20633 0.0
C458 C 0.819 0.25332 0.31094 0.0
N459 N 0.8488 0.24682 0.28782 0.0
N460 N 0.85763 0.20631 0.28615 0.0
C461 C 0.83262 0.18552 0.30787 0.0
C462 C 0.80766 0.21473 0.32444 0.0
C463 C 0.80178 0.29588 0.31965 0.0
H464 H 0.78096 0.30691 0.29938 0.0
H465 H 0.78304 0.29514 0.34281 0.0
H466 H 0.82816 0.31876 0.32203 0.0
O467 O 0.93664 0.29056 0.27192 0.0
O468 O 0.95481 0.22365 0.2656 0.0
H469 H 0.85733 0.13186 0.3332 0.0
H470 H 0.80243 0.12745 0.32244 0.0
C471 C 0.8337 0.13895 0.31375 0.0
H472 H 0.84281 0.12215 0.29083 0.0
H473 H 0.93497 0.15841 0.31909 0.0
O474 O 0.85228 0.34067 0.25924 0.0
C475 C 0.96458 0.26183 0.27126 0.0
Co476 Co 0.2922 0.11584 0.74119 0.0
Co477 Co 0.19808 0.08611 0.74008 0.0
C478 C 0.23682 0.10997 0.80266 0.0
O479 O 0.27047 0.11593 0.78619 0.0
O480 O 0.20217 0.09986 0.78843 0.0
C481 C 0.3726 0.13084 0.7647 0.0
O482 O 0.36362 0.09587 0.78073 0.0
C483 C 0.10814 0.05422 0.73964 0.0
C484 C 0.10757 0.03162 0.68811 0.0
C485 C 0.08315 0.03277 0.71657 0.0
N486 N 0.14522 0.06441 0.72511 0.0
N487 N 0.14434 0.05089 0.69436 0.0
C488 C 0.09743 0.0655 0.77446 0.0
H489 H 0.11876 0.09072 0.78352 0.0
H490 H 0.06413 0.07643 0.77615 0.0
H491 H 0.1014 0.03729 0.79043 0.0
C492 C 0.2611 0.17521 0.69118 0.0
N493 N 0.25481 0.14326 0.71247 0.0
N494 N 0.21462 0.13263 0.71255 0.0
C495 C 0.19377 0.15815 0.69129 0.0
C496 C 0.22258 0.18615 0.67711 0.0
C497 C 0.30378 0.19325 0.68346 0.0
H498 H 0.32805 0.16799 0.68423 0.0
H499 H 0.31194 0.21714 0.70239 0.0
H500 H 0.30431 0.20843 0.65875 0.0
O501 O 0.3023 0.0571 0.72923 0.0
O502 O 0.23557 0.03641 0.73324 0.0
H503 H 0.14001 0.13415 0.66572 0.0
H504 H 0.13507 0.18844 0.67806 0.0
C505 C 0.14702 0.15696 0.6857 0.0
H506 H 0.13047 0.14649 0.70846 0.0
H507 H 0.16954 0.05388 0.67783 0.0
O508 O 0.34606 0.14562 0.74424 0.0
C509 C 0.27457 0.02812 0.72895 0.0
Co510 Co 0.11843 0.69797 0.25682 0.0
Co511 Co 0.08591 0.79126 0.257 0.0
C512 C 0.11075 0.75171 0.19484 0.0
O513 O 0.11768 0.71845 0.21147 0.0
O514 O 0.09981 0.78621 0.20883 0.0
C515 C 0.13398 0.61708 0.23533 0.0
O516 O 0.0985 0.62528 0.21969 0.0
C517 C 0.05328 0.88103 0.25715 0.0
C518 C 0.02695 0.88008 0.30767 0.0
C519 C 0.03017 0.90532 0.27978 0.0
N520 N 0.06244 0.84358 0.2714 0.0
N521 N 0.04666 0.84357 0.30155 0.0
C522 C 0.06713 0.89269 0.22305 0.0
H523 H 0.09222 0.87088 0.21431 0.0
H524 H 0.07931 0.92553 0.22263 0.0
H525 H 0.03975 0.89047 0.20603 0.0
C526 C 0.17699 0.73196 0.30614 0.0
N527 N 0.14498 0.73682 0.28472 0.0
N528 N 0.13283 0.7765 0.28438 0.0
C529 C 0.15728 0.79841 0.30561 0.0
C530 C 0.1862 0.77088 0.32001 0.0
C531 C 0.19645 0.69016 0.3144 0.0
H532 H 0.17191 0.66516 0.31401 0.0
H533 H 0.22068 0.68238 0.29551 0.0
H534 H 0.21164 0.6906 0.33907 0.0
O535 O 0.05994 0.68688 0.26953 0.0
O536 O 0.03754 0.7528 0.2648 0.0
H537 H 0.12943 0.85086 0.33039 0.0
H538 H 0.18438 0.85806 0.31998 0.0
C539 C 0.15384 0.8449 0.31125 0.0
H540 H 0.14409 0.86108 0.28817 0.0
H541 H 0.0486 0.81802 0.31777 0.0
O542 O 0.14926 0.64457 0.25467 0.0
C543 C 0.03028 0.71388 0.26982 0.0
C544 C 0.20951 0.11158 0.89388 0.0
C545 C 0.25011 0.11157 0.90843 0.0
H546 H 0.17322 0.11075 0.84913 0.0
C547 C 0.28577 0.11218 0.88794 0.0
H548 H 0.18123 0.11093 0.90902 0.0
C549 C 0.28103 0.11264 0.85371 0.0
C550 C 0.24048 0.11189 0.83908 0.0
H551 H 0.31736 0.1122 0.8983 0.0
H552 H 0.30943 0.11278 0.83872 0.0
C553 C 0.20475 0.11142 0.85956 0.0
C554 C 0.11323 0.7033 0.10941 0.0
C555 C 0.11486 0.7391 0.08919 0.0
H556 H 0.1111 0.67932 0.15861 0.0
C557 C 0.11603 0.77938 0.10405 0.0
H558 H 0.11219 0.67197 0.09879 0.0
C559 C 0.11481 0.7838 0.13831 0.0
C560 C 0.1131 0.74801 0.15851 0.0
H561 H 0.11704 0.80782 0.0892 0.0
H562 H 0.11518 0.81514 0.14892 0.0
C563 C 0.11269 0.70769 0.14371 0.0
C564 C 0.7856 0.87633 0.89375 0.0
C565 C 0.7448 0.87592 0.90806 0.0
H566 H 0.8226 0.87682 0.84931 0.0
C567 C 0.7095 0.87324 0.88736 0.0
H568 H 0.81367 0.87841 0.90897 0.0
C569 C 0.71483 0.87173 0.85314 0.0
C570 C 0.75558 0.87348 0.83876 0.0
H571 H 0.67778 0.87274 0.89753 0.0
H572 H 0.68671 0.8703 0.83793 0.0
C573 C 0.79091 0.87541 0.8595 0.0
C574 C 0.87674 0.20956 0.10505 0.0
C575 C 0.87774 0.25061 0.09133 0.0
H576 H 0.87706 0.17148 0.14888 0.0
C577 C 0.8779 0.28533 0.1126 0.0
H578 H 0.87672 0.1819 0.0894 0.0
C579 C 0.87756 0.27914 0.14676 0.0
C580 C 0.87767 0.23807 0.16046 0.0
H581 H 0.87864 0.3172 0.1029 0.0
H582 H 0.87818 0.30678 0.16243 0.0
C583 C 0.87701 0.20337 0.1392 0.0
C584 C 0.20998 0.37328 0.35425 0.0
C585 C 0.25057 0.3753 0.33965 0.0
H586 H 0.17341 0.37385 0.39893 0.0
C587 C 0.28609 0.37769 0.36014 0.0
H588 H 0.18176 0.37162 0.33917 0.0
C589 C 0.28115 0.37839 0.39441 0.0
C590 C 0.24052 0.37742 0.409 0.0
H591 H 0.31766 0.37929 0.34974 0.0
H592 H 0.30937 0.38067 0.40945 0.0
C593 C 0.205 0.37468 0.38853 0.0
C594 C 0.37831 0.70508 0.63792 0.0
C595 C 0.37881 0.7401 0.65888 0.0
H596 H 0.37734 0.6829 0.58828 0.0
C597 C 0.37764 0.78095 0.64484 0.0
H598 H 0.37916 0.67333 0.64788 0.0
C599 C 0.37713 0.78664 0.61064 0.0
C600 C 0.37716 0.75162 0.58968 0.0
H601 H 0.3781 0.80883 0.66026 0.0
H602 H 0.37709 0.81839 0.60067 0.0
C603 C 0.37719 0.71076 0.60372 0.0
C604 C 0.70807 0.61067 0.39088 0.0
C605 C 0.74846 0.60993 0.40579 0.0
H606 H 0.6723 0.6098 0.34591 0.0
C607 C 0.78439 0.60931 0.38557 0.0
H608 H 0.67955 0.61099 0.40576 0.0
C609 C 0.78007 0.60921 0.35126 0.0
C610 C 0.73968 0.60908 0.33634 0.0
H611 H 0.81582 0.60878 0.39621 0.0
H612 H 0.80862 0.60836 0.33645 0.0
C613 C 0.70373 0.60993 0.35655 0.0
C614 C 0.61293 0.27793 0.60695 0.0
C615 C 0.61317 0.23763 0.59213 0.0
H616 H 0.61196 0.31368 0.65178 0.0
C617 C 0.61388 0.2018 0.61238 0.0
H618 H 0.61209 0.30636 0.59209 0.0
C619 C 0.61437 0.20622 0.64671 0.0
C620 C 0.61342 0.24654 0.66148 0.0
H621 H 0.61403 0.17046 0.60176 0.0
H622 H 0.61466 0.17785 0.66167 0.0
C623 C 0.61272 0.28232 0.64122 0.0
C624 C 0.22562 0.95481 0.01022 0.0
C625 C 0.20537 0.98833 0.02649 0.0
H626 H 0.22112 0.89087 0.99363 0.0
C627 C 0.16602 0.98128 0.04169 0.0
H628 H 0.25586 0.95943 0.9981 0.0
C629 C 0.14626 0.94209 0.03926 0.0
C630 C 0.16521 0.9094 0.02117 0.0
H631 H 0.14975 0.00655 0.05447 0.0
H632 H 0.11537 0.93801 0.05045 0.0
C633 C 0.20553 0.91574 0.00735 0.0
C634 C 0.95686 0.76191 0.96934 0.0
C635 C 0.98946 0.79022 0.97743 0.0
H636 H 0.89005 0.75122 0.96667 0.0
C637 C 0.97894 0.83103 0.98811 0.0
H638 H 0.96408 0.73021 0.96108 0.0
C639 C 0.93664 0.84268 0.99199 0.0
C640 C 0.90407 0.81401 0.98472 0.0
H641 H 0.00335 0.8534 0.99481 0.0
H642 H 0.92948 0.87409 0.0009 0.0
C643 C 0.91453 0.77384 0.97268 0.0
C644 C 0.74667 0.04339 0.02114 0.0
C645 C 0.77735 0.01121 0.0203 0.0
H646 H 0.73458 0.11 0.01812 0.0
C647 C 0.82024 0.02232 0.01717 0.0
H648 H 0.71338 0.03582 0.0235 0.0
C649 C 0.83208 0.06428 0.01335 0.0
C650 C 0.80147 0.09632 0.0132 0.0
H651 H 0.84479 -0.00152 0.0164 0.0
H652 H 0.86535 0.0716 0.01033 0.0
C653 C 0.75873 0.08574 0.01794 0.0
C654 C 0.0833 0.23049 0.97574 0.0
C655 C 0.09437 0.1894 0.98539 0.0
H656 H 0.03282 0.27414 0.96646 0.0
C657 C 0.06234 0.15938 0.99054 0.0
H658 H 0.10746 0.25411 0.97141 0.0
C659 C 0.01995 0.17043 0.98693 0.0
C660 C 0.00862 0.21198 0.97873 0.0
H661 H 0.07001 0.12725 0.99751 0.0
H662 H -0.00396 0.14675 0.99188 0.0
C663 C 0.04068 0.24185 0.97279 0.0
C664 C 0.13398 0.54217 0.21659 0.0
C665 C 0.15551 0.57637 0.23074 0.0
H666 H 0.13564 0.47656 0.20438 0.0
C667 C 0.19756 0.57111 0.24107 0.0
H668 H 0.10159 0.54544 0.20824 0.0
C669 C 0.21729 0.53193 0.23834 0.0
C670 C 0.19507 0.49714 0.22573 0.0
H671 H 0.21507 0.59712 0.25172 0.0
H672 H 0.24934 0.52855 0.24742 0.0
C673 C 0.15349 0.50279 0.21431 0.0
C674 C 0.58703 0.76142 0.77132 0.0
C675 C 0.59753 0.80294 0.76242 0.0
H676 H 0.53714 0.71704 0.78034 0.0
C677 C 0.56519 0.83286 0.75834 0.0
H678 H 0.61148 0.73787 0.77481 0.0
C679 C 0.523 0.82132 0.76223 0.0
C680 C 0.51221 0.7794 0.76967 0.0
H681 H 0.57245 0.86529 0.75197 0.0
H682 H 0.49882 0.84498 0.75811 0.0
C683 C 0.5446 0.7496 0.77458 0.0
C684 C 0.83662 0.42465 0.23976 0.0
C685 C 0.80676 0.39223 0.23624 0.0
H686 H 0.84863 0.49081 0.23859 0.0
C687 C 0.76522 0.40229 0.22686 0.0
H688 H 0.86908 0.41771 0.24645 0.0
C689 C 0.7533 0.44444 0.22258 0.0
C690 C 0.78302 0.47695 0.22695 0.0
H691 H 0.74172 0.37775 0.22376 0.0
H692 H 0.7207 0.4516 0.2165 0.0
C693 C 0.825 0.46653 0.23486 0.0
C694 C 0.41831 0.19455 0.75987 0.0
C695 C 0.41303 0.15259 0.77023 0.0
H696 H 0.46086 0.24635 0.75394 0.0
C697 C 0.44694 0.1314 0.78526 0.0
H698 H 0.39246 0.21181 0.74861 0.0
C699 C 0.48624 0.15107 0.78814 0.0
C700 C 0.49202 0.19246 0.77648 0.0
H701 H 0.4436 0.09911 0.79369 0.0
H702 H 0.51238 0.13342 0.79857 0.0
C703 C 0.45737 0.21445 0.76322 0.0
C704 C 0.65694 0.48329 0.53793 0.0
C705 C 0.69744 0.4895 0.52441 0.0
H706 H 0.60614 0.44008 0.54648 0.0
C707 C 0.71929 0.45495 0.51097 0.0
H708 H 0.63946 0.50935 0.54857 0.0
C709 C 0.6999 0.41548 0.50924 0.0
C710 C 0.65866 0.40978 0.52142 0.0
H711 H 0.75049 0.45883 0.50027 0.0
H712 H 0.71687 0.38969 0.49772 0.0
C713 C 0.63784 0.44368 0.53667 0.0
C714 C 0.45456 0.25945 0.47064 0.0
C715 C 0.48682 0.28779 0.47946 0.0
H716 H 0.38781 0.24878 0.46653 0.0
C717 C 0.47591 0.32847 0.49014 0.0
H718 H 0.46213 0.22785 0.46236 0.0
C719 C 0.43351 0.34002 0.49326 0.0
C720 C 0.40124 0.3114 0.48516 0.0
H721 H 0.50006 0.35085 0.49739 0.0
H722 H 0.42603 0.37135 0.50218 0.0
C723 C 0.4121 0.27133 0.47314 0.0
C724 C 0.2621 0.58516 0.52178 0.0
C725 C 0.30368 0.59583 0.51287 0.0
H726 H 0.21778 0.53518 0.53066 0.0
C727 C 0.33376 0.56372 0.50854 0.0
H728 H 0.23843 0.60944 0.52545 0.0
C729 C 0.32233 0.5216 0.51226 0.0
C730 C 0.28036 0.51062 0.51976 0.0
H731 H 0.36623 0.57111 0.50215 0.0
H732 H 0.34615 0.49761 0.508 0.0
C733 C 0.25038 0.54278 0.52486 0.0
C734 C 0.51758 0.67185 0.48112 0.0
C735 C 0.50604 0.71381 0.47465 0.0
H736 H 0.56784 0.62837 0.48992 0.0
C737 C 0.5379 0.74414 0.46948 0.0
H738 H 0.49384 0.64776 0.48532 0.0
C739 C 0.58057 0.73284 0.47182 0.0
C740 C 0.59179 0.69133 0.48007 0.0
H741 H 0.52984 0.77675 0.4644 0.0
H742 H 0.60464 0.75679 0.46837 0.0
C743 C 0.55998 0.66083 0.48411 0.0
C744 C 0.74537 0.03739 0.72076 0.0
C745 C 0.71562 0.00576 0.72827 0.0
H746 H 0.75808 0.1039 0.71847 0.0
C747 C 0.67491 0.01744 0.73867 0.0
H748 H 0.77704 0.02918 0.71275 0.0
C749 C 0.66462 0.05979 0.74282 0.0
C750 C 0.69449 0.09141 0.73595 0.0
H751 H 0.65142 0.99382 0.7449 0.0
H752 H 0.63313 0.06776 0.75142 0.0
C753 C 0.73466 0.08 0.72416 0.0
C754 C 0.08389 0.25383 0.27571 0.0
C755 C 0.09563 0.29429 0.26499 0.0
H756 H 0.03255 0.21152 0.28603 0.0
C757 C 0.06418 0.32469 0.25915 0.0
H758 H 0.10768 0.23002 0.28061 0.0
C759 C 0.02165 0.31464 0.26313 0.0
C760 C 0.0096 0.27367 0.27233 0.0
H761 H 0.07243 0.3564 0.25142 0.0
H762 H -0.00182 0.33857 0.25764 0.0
C763 C 0.04106 0.24339 0.27893 0.0
C764 C 0.27055 0.90904 0.72388 0.0
C765 C 0.31095 0.89818 0.73548 0.0
H766 H 0.22721 0.95907 0.71264 0.0
C767 C 0.34019 0.93031 0.74242 0.0
H768 H 0.24752 0.88485 0.71816 0.0
C769 C 0.32901 0.97258 0.7385 0.0
C770 C 0.28808 0.98359 0.72816 0.0
H771 H 0.37179 0.92283 0.75097 0.0
H772 H 0.35197 -0.00338 0.74481 0.0
C773 C 0.25904 0.95144 0.72059 0.0
C774 C 0.95344 0.72805 0.27918 0.0
C775 C 0.98602 0.69957 0.27126 0.0
H776 H 0.88655 0.73885 0.2816 0.0
C777 C 0.97558 0.65871 0.26079 0.0
H778 H 0.96069 0.75979 0.28729 0.0
C779 C 0.93337 0.64718 0.25677 0.0
C780 C 0.90082 0.67601 0.26378 0.0
H781 H 0.0 0.63622 0.25425 0.0
H782 H 0.92625 0.61574 0.24794 0.0
C783 C 0.91112 0.71618 0.2758 0.0
C784 C 0.48203 0.01284 0.99386 0.0
C785 C 0.45114 0.00353 0.01784 0.0
H786 H 0.54509 0.00036 0.97627 0.0
C787 C 0.45846 0.97004 0.03985 0.0
H788 H 0.47747 0.03885 0.97686 0.0
C789 C 0.4966 0.94799 0.03935 0.0
C790 C 0.52872 0.95878 0.0169 0.0
H791 H 0.43517 0.96178 0.05843 0.0
H792 H 0.50167 0.92351 0.05764 0.0
C793 C 0.52068 0.99066 0.99344 0.0
C794 C 0.00546 0.51848 0.00102 0.0
C795 C 0.01258 0.53985 0.97094 0.0
H796 H 0.98253 0.46262 0.02496 0.0
C797 C -0.00131 0.52045 0.94171 0.0
H798 H 0.01433 0.53232 0.02429 0.0
C799 C 0.97873 0.48139 0.94227 0.0
C800 C 0.97217 0.45945 0.97203 0.0
H801 H 0.00319 0.53537 0.91789 0.0
H802 H 0.96868 0.46828 0.91889 0.0
C803 C 0.98591 0.47851 0.00152 0.0
C804 C 0.51554 0.50328 0.24928 0.0
C805 C 0.53365 0.51681 0.21927 0.0
H806 H 0.46129 0.47672 0.27351 0.0
C807 C 0.51006 0.51203 0.19018 0.0
H808 H 0.53299 0.50535 0.27212 0.0
C809 C 0.4699 0.49423 0.19079 0.0
C810 C 0.45139 0.48069 0.22056 0.0
H811 H 0.52269 0.52196 0.16653 0.0
H812 H 0.45334 0.49109 0.16754 0.0
C813 C 0.47461 0.48567 0.24995 0.0
C814 C 0.50394 0.47026 0.74717 0.0
C815 C 0.50959 0.44835 0.77717 0.0
H816 H 0.48364 0.52749 0.72352 0.0
C817 C 0.49636 0.46804 0.80649 0.0
H818 H 0.51255 0.45604 0.72392 0.0
C819 C 0.47839 0.50805 0.80611 0.0
C820 C 0.47314 0.53045 0.77644 0.0
H821 H 0.49992 0.45257 0.83019 0.0
H822 H 0.46878 0.52154 0.8295 0.0
C823 C 0.48619 0.51109 0.74683 0.0
C824 C 0.97254 0.50362 0.49599 0.0
C825 C 0.95131 0.51263 0.5258 0.0
H826 H 0.02859 0.47958 0.47287 0.0
C827 C 0.97129 0.50139 0.55553 0.0
H828 H 0.95823 0.51055 0.47244 0.0
C829 C 0.01069 0.48194 0.55572 0.0
C830 C 0.03243 0.47329 0.5262 0.0
H831 H 0.95649 0.50753 0.57918 0.0
H832 H 0.02418 0.47389 0.57947 0.0
C833 C 0.01287 0.48457 0.4962 0.0
C834 C 0.49854 0.0202 0.44202 0.0
C835 C 0.51124 0.0394 0.47165 0.0
H836 H 0.46909 0.96835 0.41837 0.0
C837 C 0.50268 0.0181 0.50151 0.0
H838 H 0.50421 0.03513 0.41836 0.0
C839 C 0.48287 0.97832 0.50145 0.0
C840 C 0.47026 0.95949 0.47158 0.0
H841 H 0.5106 0.03187 0.52501 0.0
H842 H 0.4784 0.96239 0.52476 0.0
C843 C 0.47824 0.98136 0.44201 0.0
C844 C 0.98108 0.98151 0.74902 0.0
C845 C 0.96072 0.97122 0.71919 0.0
H846 H 0.03586 0.00756 0.77222 0.0
C847 C 0.98095 0.98208 0.68942 0.0
H848 H 0.96657 0.97485 0.77256 0.0
C849 C 0.01966 0.00275 0.68925 0.0
C850 C 0.04041 0.01293 0.71883 0.0
H851 H 0.96681 0.97486 0.66577 0.0
H852 H 0.03334 0.01062 0.66549 0.0
C853 C 0.02077 0.00165 0.74883 0.0
C854 C 0.98341 0.00972 0.24791 0.0
C855 C 0.97074 0.02864 0.27777 0.0
H856 H 0.01086 0.95588 0.2244 0.0
C857 C 0.9782 0.00665 0.30733 0.0
H858 H 0.97933 0.02574 0.22461 0.0
C859 C -0.00193 0.96759 0.30735 0.0
C860 C 0.01085 0.94828 0.27775 0.0
H861 H 0.96897 0.01974 0.33095 0.0
H862 H 0.00336 0.95257 0.33103 0.0
C863 C 0.00282 0.96971 0.24787 0.0
C864 C 0.26976 0.29277 0.11482 0.0
C865 C 0.28862 0.2815 0.14486 0.0
H866 H 0.2528 0.27304 0.06608 0.0
C867 C 0.30946 0.24257 0.14762 0.0
H868 H 0.25332 0.32262 0.11235 0.0
C869 C 0.30889 0.214 0.12124 0.0
C870 C 0.28729 0.22412 0.09198 0.0
H871 H 0.32376 0.23321 0.17079 0.0
H872 H 0.32272 0.18302 0.12459 0.0
C873 C 0.26928 0.26439 0.08852 0.0
C874 C 0.2428 0.69078 0.84633 0.0
C875 C 0.28278 0.7091 0.85094 0.0
H876 H 0.18142 0.67913 0.86742 0.0
C877 C 0.29355 0.7253 0.88195 0.0
H878 H 0.23394 0.67836 0.82243 0.0
C879 C 0.26392 0.72553 0.90751 0.0
C880 C 0.22288 0.70993 0.90238 0.0
H881 H 0.32429 0.73954 0.88593 0.0
H882 H 0.27244 0.73974 0.93087 0.0
C883 C 0.21294 0.69115 0.87198 0.0
C884 C 0.69427 0.77399 0.12115 0.0
C885 C 0.71871 0.76792 0.09253 0.0
H886 H 0.67678 0.74959 0.16886 0.0
C887 C 0.74057 0.72971 0.08847 0.0
H888 H 0.67733 0.8033 0.12494 0.0
C889 C 0.74022 0.69923 0.11341 0.0
C890 C 0.71791 0.70633 0.14285 0.0
H891 H 0.75912 0.724 0.06642 0.0
H892 H 0.75872 0.67073 0.11026 0.0
C893 C 0.69395 0.74338 0.14622 0.0
C894 C 0.70133 0.26517 0.88411 0.0
C895 C 0.71149 0.28438 0.85393 0.0
H896 H 0.72271 0.24826 0.93247 0.0
C897 C 0.75017 0.30566 0.8505 0.0
H898 H 0.67168 0.24842 0.8871 0.0
C899 C 0.77957 0.30531 0.87638 0.0
C900 C 0.77053 0.28347 0.90578 0.0
H901 H 0.75863 0.32025 0.8272 0.0
H902 H 0.8103 0.31967 0.87261 0.0
C903 C 0.73056 0.26485 0.90987 0.0
C904 C 0.80031 0.70926 0.62242 0.0
C905 C 0.78165 0.72059 0.59221 0.0
H906 H 0.81321 0.72797 0.67244 0.0
C907 C 0.76615 0.76178 0.58804 0.0
H908 H 0.81218 0.67757 0.62629 0.0
C909 C 0.76644 0.79019 0.6143 0.0
C910 C 0.7826 0.77803 0.64507 0.0
H911 H 0.75198 0.77136 0.56487 0.0
H912 H 0.75236 0.8211 0.61102 0.0
C913 C 0.80077 0.73789 0.64876 0.0
C914 C 0.79058 0.22445 0.38373 0.0
C915 C 0.77938 0.20787 0.35292 0.0
H916 H 0.77014 0.23948 0.43271 0.0
C917 C 0.73937 0.18944 0.3488 0.0
H918 H 0.82138 0.23873 0.38734 0.0
C919 C 0.70991 0.19006 0.37471 0.0
C920 C 0.72027 0.20921 0.40488 0.0
H921 H 0.73018 0.17669 0.32508 0.0
H922 H 0.67836 0.17787 0.37053 0.0
C923 C 0.76131 0.225 0.40953 0.0
C924 C 0.19427 0.21142 0.62259 0.0
C925 C 0.21518 0.21993 0.65243 0.0
H926 H 0.17946 0.23378 0.57375 0.0
C927 C 0.23301 0.26001 0.65732 0.0
H928 H 0.18046 0.18067 0.6182 0.0
C929 C 0.2326 0.29001 0.63205 0.0
C930 C 0.21405 0.28062 0.60154 0.0
H931 H 0.24877 0.26755 0.68028 0.0
H932 H 0.24833 0.31998 0.63584 0.0
C933 C 0.19374 0.24164 0.59724 0.0
C934 C 0.23681 0.79996 0.40136 0.0
C935 C 0.27696 0.78171 0.39756 0.0
H936 H 0.17605 0.81096 0.3792 0.0
C937 C 0.28877 0.76496 0.36691 0.0
H938 H 0.22718 0.81281 0.42496 0.0
C939 C 0.25989 0.764 0.34095 0.0
C940 C 0.21868 0.77957 0.3453 0.0
H941 H 0.31969 0.75078 0.3636 0.0
H942 H 0.26912 0.74933 0.3179 0.0
C943 C 0.20775 0.79895 0.37528 0.0
loop_
_geom_bond_atom_site_label_1
_geom_bond_atom_site_label_2
_geom_bond_distance
_geom_bond_site_symmetry_2
_ccdc_geom_bond_type
Co0 O3 1.970 1_554 S
Co0 N17 1.989 . S
Co0 O25 1.967 . S
Co0 O32 1.920 . S
Co1 O4 1.966 1_554 S
Co1 N10 2.022 . S
Co1 N18 1.993 . S
Co1 O26 1.941 . S
C2 O3 1.258 . S
C2 O4 1.263 . S
O3 Co0 1.970 1_556 S
O3 C2 1.258 . S
O4 Co1 1.966 1_556 S
O4 C2 1.263 . S
C5 O6 1.235 . S
C5 O32 1.289 1_556 S
O6 C5 1.235 . S
C7 C9 1.400 . S
C7 N10 1.351 . S
C7 C12 1.501 1_554 S
C8 C9 1.387 . S
C8 N11 1.341 . S
C9 C7 1.400 . S
C9 C8 1.387 . S
N10 Co1 2.022 . S
N10 C7 1.351 . S
N10 N11 1.365 . S
N11 C8 1.341 . S
N11 N10 1.365 . S
N11 H31 0.862 . S
C12 C7 1.501 1_556 S
C12 H13 0.961 . S
C12 H14 0.961 . S
C12 H15 0.960 . S
H13 C12 0.961 . S
H14 C12 0.961 . S
H15 C12 0.960 . S
C16 N17 1.342 . S
C16 C20 1.401 . S
C16 C21 1.499 . S
N17 Co0 1.989 . S
N17 C16 1.342 . S
N17 N18 1.388 . S
N18 Co1 1.993 . S
N18 N17 1.388 . S
N18 C19 1.346 . S
C19 N18 1.346 . S
C19 C20 1.396 . S
C19 C29 1.510 . S
C20 C16 1.401 . S
C20 C19 1.396 . S
C21 C16 1.499 . S
C21 H22 0.959 . S
C21 H23 0.960 . S
C21 H24 0.961 . S
H22 C21 0.959 . S
H23 C21 0.960 . S
H24 C21 0.961 . S
O25 Co0 1.967 . S
O25 C33 1.258 . S
O26 Co1 1.941 . S
O26 C33 1.266 . S
H27 C29 0.959 . S
H28 C29 0.961 . S
C29 C19 1.510 . S
C29 H27 0.959 . S
C29 H28 0.961 . S
C29 H30 0.960 . S
H30 C29 0.960 . S
H31 N11 0.862 . S
O32 Co0 1.920 . S
O32 C5 1.289 1_554 S
C33 O25 1.258 . S
C33 O26 1.266 . S
Co34 O37 1.970 1_556 S
Co34 N51 1.989 . S
Co34 O59 1.967 . S
Co34 O66 1.920 . S
Co35 O38 1.966 1_556 S
Co35 N44 2.022 . S
Co35 N52 1.993 . S
Co35 O60 1.941 . S
C36 O37 1.258 . S
C36 O38 1.263 . S
O37 Co34 1.970 1_554 S
O37 C36 1.258 . S
O38 Co35 1.966 1_554 S
O38 C36 1.263 . S
C39 O40 1.235 . S
C39 O66 1.289 1_554 S
O40 C39 1.235 . S
C41 C43 1.400 . S
C41 N44 1.351 . S
C41 C46 1.501 1_556 S
C42 C43 1.387 . S
C42 N45 1.341 . S
C43 C41 1.400 . S
C43 C42 1.387 . S
N44 Co35 2.022 . S
N44 C41 1.351 . S
N44 N45 1.365 . S
N45 C42 1.341 . S
N45 N44 1.365 . S
N45 H65 0.862 . S
C46 C41 1.501 1_554 S
C46 H47 0.961 . S
C46 H48 0.961 . S
C46 H49 0.960 . S
H47 C46 0.961 . S
H48 C46 0.961 . S
H49 C46 0.960 . S
C50 N51 1.342 . S
C50 C54 1.401 . S
C50 C55 1.499 . S
N51 Co34 1.989 . S
N51 C50 1.342 . S
N51 N52 1.388 . S
N52 Co35 1.993 . S
N52 N51 1.388 . S
N52 C53 1.346 . S
C53 N52 1.346 . S
C53 C54 1.396 . S
C53 C63 1.510 . S
C54 C50 1.401 . S
C54 C53 1.396 . S
C55 C50 1.499 . S
C55 H56 0.959 . S
C55 H57 0.960 . S
C55 H58 0.961 . S
H56 C55 0.959 . S
H57 C55 0.960 . S
H58 C55 0.961 . S
O59 Co34 1.967 . S
O59 C67 1.258 . S
O60 Co35 1.941 . S
O60 C67 1.266 . S
H61 C63 0.959 . S
H62 C63 0.961 . S
C63 C53 1.510 . S
C63 H61 0.959 . S
C63 H62 0.961 . S
C63 H64 0.960 . S
H64 C63 0.960 . S
H65 N45 0.862 . S
O66 Co34 1.920 . S
O66 C39 1.289 1_556 S
C67 O59 1.258 . S
C67 O60 1.266 . S
Co68 O71 1.970 1_554 S
Co68 N85 1.989 . S
Co68 O93 1.967 . S
Co68 O100 1.920 . S
Co69 O72 1.966 1_554 S
Co69 N78 2.022 . S
Co69 N86 1.993 . S
Co69 O94 1.941 . S
C70 O71 1.258 . S
C70 O72 1.263 . S
O71 Co68 1.970 1_556 S
O71 C70 1.258 . S
O72 Co69 1.966 1_556 S
O72 C70 1.263 . S
C73 O74 1.235 . S
C73 O100 1.289 1_556 S
O74 C73 1.235 . S
C75 C77 1.400 . S
C75 N78 1.351 . S
C75 C80 1.501 1_554 S
C76 C77 1.387 . S
C76 N79 1.341 . S
C77 C75 1.400 . S
C77 C76 1.387 . S
N78 Co69 2.022 . S
N78 C75 1.351 . S
N78 N79 1.365 . S
N79 C76 1.341 . S
N79 N78 1.365 . S
N79 H99 0.862 . S
C80 C75 1.501 1_556 S
C80 H81 0.961 . S
C80 H82 0.961 . S
C80 H83 0.960 . S
H81 C80 0.961 . S
H82 C80 0.961 . S
H83 C80 0.960 . S
C84 N85 1.342 . S
C84 C88 1.401 . S
C84 C89 1.499 . S
N85 Co68 1.989 . S
N85 C84 1.342 . S
N85 N86 1.388 . S
N86 Co69 1.993 . S
N86 N85 1.388 . S
N86 C87 1.346 . S
C87 N86 1.346 . S
C87 C88 1.396 . S
C87 C97 1.510 . S
C88 C84 1.401 . S
C88 C87 1.396 . S
C89 C84 1.499 . S
C89 H90 0.959 . S
C89 H91 0.960 . S
C89 H92 0.961 . S
H90 C89 0.959 . S
H91 C89 0.960 . S
H92 C89 0.961 . S
O93 Co68 1.967 . S
O93 C101 1.258 . S
O94 Co69 1.941 . S
O94 C101 1.266 . S
H95 C97 0.959 . S
H96 C97 0.961 . S
C97 C87 1.510 . S
C97 H95 0.959 . S
C97 H96 0.961 . S
C97 H98 0.960 . S
H98 C97 0.960 . S
H99 N79 0.862 . S
O100 Co68 1.920 . S
O100 C73 1.289 1_554 S
C101 O93 1.258 . S
C101 O94 1.266 . S
Co102 O105 1.970 1_556 S
Co102 N119 1.989 . S
Co102 O127 1.967 . S
Co102 O134 1.920 . S
Co103 O106 1.966 1_556 S
Co103 N112 2.022 . S
Co103 N120 1.993 . S
Co103 O128 1.941 . S
C104 O105 1.258 . S
C104 O106 1.263 . S
O105 Co102 1.970 1_554 S
O105 C104 1.258 . S
O106 Co103 1.966 1_554 S
O106 C104 1.263 . S
C107 O108 1.235 . S
C107 O134 1.289 1_554 S
O108 C107 1.235 . S
C109 C111 1.400 . S
C109 N112 1.351 . S
C109 C114 1.501 1_556 S
C110 C111 1.387 . S
C110 N113 1.341 . S
C111 C109 1.400 . S
C111 C110 1.387 . S
N112 Co103 2.022 . S
N112 C109 1.351 . S
N112 N113 1.365 . S
N113 C110 1.341 . S
N113 N112 1.365 . S
N113 H133 0.862 . S
C114 C109 1.501 1_554 S
C114 H115 0.961 . S
C114 H116 0.961 . S
C114 H117 0.960 . S
H115 C114 0.961 . S
H116 C114 0.961 . S
H117 C114 0.960 . S
C118 N119 1.342 . S
C118 C122 1.401 . S
C118 C123 1.499 . S
N119 Co102 1.989 . S
N119 C118 1.342 . S
N119 N120 1.388 . S
N120 Co103 1.993 . S
N120 N119 1.388 . S
N120 C121 1.346 . S
C121 N120 1.346 . S
C121 C122 1.396 . S
C121 C131 1.510 . S
C122 C118 1.401 . S
C122 C121 1.396 . S
C123 C118 1.499 . S
C123 H124 0.959 . S
C123 H125 0.960 . S
C123 H126 0.961 . S
H124 C123 0.959 . S
H125 C123 0.960 . S
H126 C123 0.961 . S
O127 Co102 1.967 . S
O127 C135 1.258 . S
O128 Co103 1.941 . S
O128 C135 1.266 . S
H129 C131 0.959 . S
H130 C131 0.961 . S
C131 C121 1.510 . S
C131 H129 0.959 . S
C131 H130 0.961 . S
C131 H132 0.960 . S
H132 C131 0.960 . S
H133 N113 0.862 . S
O134 Co102 1.920 . S
O134 C107 1.289 1_556 S
C135 O127 1.258 . S
C135 O128 1.266 . S
Co136 O139 1.970 . S
Co136 N153 1.989 . S
Co136 O161 1.967 . S
Co136 O168 1.920 . S
Co137 O140 1.966 . S
Co137 N146 2.022 . S
Co137 N154 1.993 . S
Co137 O162 1.941 . S
C138 O139 1.258 . S
C138 O140 1.263 . S
O139 Co136 1.970 . S
O139 C138 1.258 . S
O140 Co137 1.966 . S
O140 C138 1.263 . S
C141 O142 1.235 . S
C141 O168 1.289 . S
O142 C141 1.235 . S
C143 C145 1.400 . S
C143 N146 1.351 . S
C143 C148 1.501 . S
C144 C145 1.387 . S
C144 N147 1.341 . S
C145 C143 1.400 . S
C145 C144 1.387 . S
N146 Co137 2.022 . S
N146 C143 1.351 . S
N146 N147 1.365 . S
N147 C144 1.341 . S
N147 N146 1.365 . S
N147 H167 0.862 . S
C148 C143 1.501 . S
C148 H149 0.961 . S
C148 H150 0.961 . S
C148 H151 0.960 . S
H149 C148 0.961 . S
H150 C148 0.961 . S
H151 C148 0.960 . S
C152 N153 1.342 . S
C152 C156 1.401 . S
C152 C157 1.499 . S
N153 Co136 1.989 . S
N153 C152 1.342 . S
N153 N154 1.388 . S
N154 Co137 1.993 . S
N154 N153 1.388 . S
N154 C155 1.346 . S
C155 N154 1.346 . S
C155 C156 1.396 . S
C155 C165 1.510 . S
C156 C152 1.401 . S
C156 C155 1.396 . S
C157 C152 1.499 . S
C157 H158 0.959 . S
C157 H159 0.960 . S
C157 H160 0.961 . S
H158 C157 0.959 . S
H159 C157 0.960 . S
H160 C157 0.961 . S
O161 Co136 1.967 . S
O161 C169 1.258 . S
O162 Co137 1.941 . S
O162 C169 1.266 . S
H163 C165 0.959 . S
H164 C165 0.961 . S
C165 C155 1.510 . S
C165 H163 0.959 . S
C165 H164 0.961 . S
C165 H166 0.960 . S
H166 C165 0.960 . S
H167 N147 0.862 . S
O168 Co136 1.920 . S
O168 C141 1.289 . S
C169 O161 1.258 . S
C169 O162 1.266 . S
Co170 O173 1.970 . S
Co170 N187 1.989 . S
Co170 O195 1.967 . S
Co170 O202 1.920 . S
Co171 O174 1.966 . S
Co171 N180 2.022 . S
Co171 N188 1.993 . S
Co171 O196 1.941 . S
C172 O173 1.258 . S
C172 O174 1.263 . S
O173 Co170 1.970 . S
O173 C172 1.258 . S
O174 Co171 1.966 . S
O174 C172 1.263 . S
C175 O176 1.235 . S
C175 O202 1.289 . S
O176 C175 1.235 . S
C177 C179 1.400 . S
C177 N180 1.351 . S
C177 C182 1.501 . S
C178 C179 1.387 . S
C178 N181 1.341 . S
C179 C177 1.400 . S
C179 C178 1.387 . S
N180 Co171 2.022 . S
N180 C177 1.351 . S
N180 N181 1.365 . S
N181 C178 1.341 . S
N181 N180 1.365 . S
N181 H201 0.862 . S
C182 C177 1.501 . S
C182 H183 0.961 . S
C182 H184 0.961 . S
C182 H185 0.960 . S
H183 C182 0.961 . S
H184 C182 0.961 . S
H185 C182 0.960 . S
C186 N187 1.342 . S
C186 C190 1.401 . S
C186 C191 1.499 . S
N187 Co170 1.989 . S
N187 C186 1.342 . S
N187 N188 1.388 . S
N188 Co171 1.993 . S
N188 N187 1.388 . S
N188 C189 1.346 . S
C189 N188 1.346 . S
C189 C190 1.396 . S
C189 C199 1.510 . S
C190 C186 1.401 . S
C190 C189 1.396 . S
C191 C186 1.499 . S
C191 H192 0.959 . S
C191 H193 0.960 . S
C191 H194 0.961 . S
H192 C191 0.959 . S
H193 C191 0.960 . S
H194 C191 0.961 . S
O195 Co170 1.967 . S
O195 C203 1.258 . S
O196 Co171 1.941 . S
O196 C203 1.266 . S
H197 C199 0.959 . S
H198 C199 0.961 . S
C199 C189 1.510 . S
C199 H197 0.959 . S
C199 H198 0.961 . S
C199 H200 0.960 . S
H200 C199 0.960 . S
H201 N181 0.862 . S
O202 Co170 1.920 . S
O202 C175 1.289 . S
C203 O195 1.258 . S
C203 O196 1.266 . S
Co204 O207 1.970 . S
Co204 N221 1.989 . S
Co204 O229 1.967 . S
Co204 O236 1.920 . S
Co205 O208 1.966 . S
Co205 N214 2.022 . S
Co205 N222 1.993 . S
Co205 O230 1.941 . S
C206 O207 1.258 . S
C206 O208 1.263 . S
O207 Co204 1.970 . S
O207 C206 1.258 . S
O208 Co205 1.966 . S
O208 C206 1.263 . S
C209 O210 1.235 . S
C209 O236 1.289 . S
O210 C209 1.235 . S
C211 C213 1.400 . S
C211 N214 1.351 . S
C211 C216 1.501 . S
C212 C213 1.387 . S
C212 N215 1.341 . S
C213 C211 1.400 . S
C213 C212 1.387 . S
N214 Co205 2.022 . S
N214 C211 1.351 . S
N214 N215 1.365 . S
N215 C212 1.341 . S
N215 N214 1.365 . S
N215 H235 0.862 . S
C216 C211 1.501 . S
C216 H217 0.961 . S
C216 H218 0.961 . S
C216 H219 0.960 . S
H217 C216 0.961 . S
H218 C216 0.961 . S
H219 C216 0.960 . S
C220 N221 1.342 . S
C220 C224 1.401 . S
C220 C225 1.499 . S
N221 Co204 1.989 . S
N221 C220 1.342 . S
N221 N222 1.388 . S
N222 Co205 1.993 . S
N222 N221 1.388 . S
N222 C223 1.346 . S
C223 N222 1.346 . S
C223 C224 1.396 . S
C223 C233 1.510 . S
C224 C220 1.401 . S
C224 C223 1.396 . S
C225 C220 1.499 . S
C225 H226 0.959 . S
C225 H227 0.960 . S
C225 H228 0.961 . S
H226 C225 0.959 . S
H227 C225 0.960 . S
H228 C225 0.961 . S
O229 Co204 1.967 . S
O229 C237 1.258 . S
O230 Co205 1.941 . S
O230 C237 1.266 . S
H231 C233 0.959 . S
H232 C233 0.961 . S
C233 C223 1.510 . S
C233 H231 0.959 . S
C233 H232 0.961 . S
C233 H234 0.960 . S
H234 C233 0.960 . S
H235 N215 0.862 . S
O236 Co204 1.920 . S
O236 C209 1.289 . S
C237 O229 1.258 . S
C237 O230 1.266 . S
Co238 O241 1.970 . S
Co238 N255 1.989 . S
Co238 O263 1.967 . S
Co238 O270 1.920 . S
Co239 O242 1.966 . S
Co239 N248 2.022 . S
Co239 N256 1.993 . S
Co239 O264 1.941 . S
C240 O241 1.258 . S
C240 O242 1.263 . S
O241 Co238 1.970 . S
O241 C240 1.258 . S
O242 Co239 1.966 . S
O242 C240 1.263 . S
C243 O244 1.235 . S
C243 O270 1.289 . S
O244 C243 1.235 . S
C245 C247 1.400 . S
C245 N248 1.351 . S
C245 C250 1.501 . S
C246 C247 1.387 . S
C246 N249 1.341 . S
C247 C245 1.400 . S
C247 C246 1.387 . S
N248 Co239 2.022 . S
N248 C245 1.351 . S
N248 N249 1.365 . S
N249 C246 1.341 . S
N249 N248 1.365 . S
N249 H269 0.862 . S
C250 C245 1.501 . S
C250 H251 0.961 . S
C250 H252 0.961 . S
C250 H253 0.960 . S
H251 C250 0.961 . S
H252 C250 0.961 . S
H253 C250 0.960 . S
C254 N255 1.342 . S
C254 C258 1.401 . S
C254 C259 1.499 . S
N255 Co238 1.989 . S
N255 C254 1.342 . S
N255 N256 1.388 . S
N256 Co239 1.993 . S
N256 N255 1.388 . S
N256 C257 1.346 . S
C257 N256 1.346 . S
C257 C258 1.396 . S
C257 C267 1.510 . S
C258 C254 1.401 . S
C258 C257 1.396 . S
C259 C254 1.499 . S
C259 H260 0.959 . S
C259 H261 0.960 . S
C259 H262 0.961 . S
H260 C259 0.959 . S
H261 C259 0.960 . S
H262 C259 0.961 . S
O263 Co238 1.967 . S
O263 C271 1.258 . S
O264 Co239 1.941 . S
O264 C271 1.266 . S
H265 C267 0.959 . S
H266 C267 0.961 . S
C267 C257 1.510 . S
C267 H265 0.959 . S
C267 H266 0.961 . S
C267 H268 0.960 . S
H268 C267 0.960 . S
H269 N249 0.862 . S
O270 Co238 1.920 . S
O270 C243 1.289 . S
C271 O263 1.258 . S
C271 O264 1.266 . S
Co272 O275 1.970 . S
Co272 N289 1.989 . S
Co272 O297 1.967 . S
Co272 O304 1.920 . S
Co273 O276 1.966 . S
Co273 N282 2.022 . S
Co273 N290 1.993 . S
Co273 O298 1.941 . S
C274 O275 1.258 . S
C274 O276 1.263 . S
O275 Co272 1.970 . S
O275 C274 1.258 . S
O276 Co273 1.966 . S
O276 C274 1.263 . S
C277 O278 1.235 . S
C277 O304 1.289 . S
O278 C277 1.235 . S
C279 C281 1.400 . S
C279 N282 1.351 . S
C279 C284 1.501 . S
C280 C281 1.387 . S
C280 N283 1.341 . S
C281 C279 1.400 . S
C281 C280 1.387 . S
N282 Co273 2.022 . S
N282 C279 1.351 . S
N282 N283 1.365 . S
N283 C280 1.341 . S
N283 N282 1.365 . S
N283 H303 0.862 . S
C284 C279 1.501 . S
C284 H285 0.961 . S
C284 H286 0.961 . S
C284 H287 0.960 . S
H285 C284 0.961 . S
H286 C284 0.961 . S
H287 C284 0.960 . S
C288 N289 1.342 . S
C288 C292 1.401 . S
C288 C293 1.499 . S
N289 Co272 1.989 . S
N289 C288 1.342 . S
N289 N290 1.388 . S
N290 Co273 1.993 . S
N290 N289 1.388 . S
N290 C291 1.346 . S
C291 N290 1.346 . S
C291 C292 1.396 . S
C291 C301 1.510 . S
C292 C288 1.401 . S
C292 C291 1.396 . S
C293 C288 1.499 . S
C293 H294 0.959 . S
C293 H295 0.960 . S
C293 H296 0.961 . S
H294 C293 0.959 . S
H295 C293 0.960 . S
H296 C293 0.961 . S
O297 Co272 1.967 . S
O297 C305 1.258 . S
O298 Co273 1.941 . S
O298 C305 1.266 . S
H299 C301 0.959 . S
H300 C301 0.961 . S
C301 C291 1.510 . S
C301 H299 0.959 . S
C301 H300 0.961 . S
C301 H302 0.960 . S
H302 C301 0.960 . S
H303 N283 0.862 . S
O304 Co272 1.920 . S
O304 C277 1.289 . S
C305 O297 1.258 . S
C305 O298 1.266 . S
Co306 O309 1.970 . S
Co306 N323 1.989 . S
Co306 O331 1.967 . S
Co306 O338 1.920 . S
Co307 O310 1.966 . S
Co307 N316 2.022 . S
Co307 N324 1.993 . S
Co307 O332 1.941 . S
C308 O309 1.258 . S
C308 O310 1.263 . S
O309 Co306 1.970 . S
O309 C308 1.258 . S
O310 Co307 1.966 . S
O310 C308 1.263 . S
C311 O312 1.235 . S
C311 O338 1.289 . S
O312 C311 1.235 . S
C313 C315 1.400 . S
C313 N316 1.351 . S
C313 C318 1.501 . S
C314 C315 1.387 . S
C314 N317 1.341 . S
C315 C313 1.400 . S
C315 C314 1.387 . S
N316 Co307 2.022 . S
N316 C313 1.351 . S
N316 N317 1.365 . S
N317 C314 1.341 . S
N317 N316 1.365 . S
N317 H337 0.862 . S
C318 C313 1.501 . S
C318 H319 0.961 . S
C318 H320 0.961 . S
C318 H321 0.960 . S
H319 C318 0.961 . S
H320 C318 0.961 . S
H321 C318 0.960 . S
C322 N323 1.342 . S
C322 C326 1.401 . S
C322 C327 1.499 . S
N323 Co306 1.989 . S
N323 C322 1.342 . S
N323 N324 1.388 . S
N324 Co307 1.993 . S
N324 N323 1.388 . S
N324 C325 1.346 . S
C325 N324 1.346 . S
C325 C326 1.396 . S
C325 C335 1.510 . S
C326 C322 1.401 . S
C326 C325 1.396 . S
C327 C322 1.499 . S
C327 H328 0.959 . S
C327 H329 0.960 . S
C327 H330 0.961 . S
H328 C327 0.959 . S
H329 C327 0.960 . S
H330 C327 0.961 . S
O331 Co306 1.967 . S
O331 C339 1.258 . S
O332 Co307 1.941 . S
O332 C339 1.266 . S
H333 C335 0.959 . S
H334 C335 0.961 . S
C335 C325 1.510 . S
C335 H333 0.959 . S
C335 H334 0.961 . S
C335 H336 0.960 . S
H336 C335 0.960 . S
H337 N317 0.862 . S
O338 Co306 1.920 . S
O338 C311 1.289 . S
C339 O331 1.258 . S
C339 O332 1.266 . S
Co340 O343 1.970 . S
Co340 N357 1.989 . S
Co340 O365 1.967 . S
Co340 O372 1.920 . S
Co341 O344 1.966 . S
Co341 N350 2.022 . S
Co341 N358 1.993 . S
Co341 O366 1.941 . S
C342 O343 1.258 . S
C342 O344 1.263 . S
O343 Co340 1.970 . S
O343 C342 1.258 . S
O344 Co341 1.966 . S
O344 C342 1.263 . S
C345 O346 1.235 . S
C345 O372 1.289 . S
O346 C345 1.235 . S
C347 C349 1.400 . S
C347 N350 1.351 . S
C347 C352 1.501 . S
C348 C349 1.387 . S
C348 N351 1.341 . S
C349 C347 1.400 . S
C349 C348 1.387 . S
N350 Co341 2.022 . S
N350 C347 1.351 . S
N350 N351 1.365 . S
N351 C348 1.341 . S
N351 N350 1.365 . S
N351 H371 0.862 . S
C352 C347 1.501 . S
C352 H353 0.961 . S
C352 H354 0.961 . S
C352 H355 0.960 . S
H353 C352 0.961 . S
H354 C352 0.961 . S
H355 C352 0.960 . S
C356 N357 1.342 . S
C356 C360 1.401 . S
C356 C361 1.499 . S
N357 Co340 1.989 . S
N357 C356 1.342 . S
N357 N358 1.388 . S
N358 Co341 1.993 . S
N358 N357 1.388 . S
N358 C359 1.346 . S
C359 N358 1.346 . S
C359 C360 1.396 . S
C359 C369 1.510 . S
C360 C356 1.401 . S
C360 C359 1.396 . S
C361 C356 1.499 . S
C361 H362 0.959 . S
C361 H363 0.960 . S
C361 H364 0.961 . S
H362 C361 0.959 . S
H363 C361 0.960 . S
H364 C361 0.961 . S
O365 Co340 1.967 . S
O365 C373 1.258 . S
O366 Co341 1.941 . S
O366 C373 1.266 . S
H367 C369 0.959 . S
H368 C369 0.961 . S
C369 C359 1.510 . S
C369 H367 0.959 . S
C369 H368 0.961 . S
C369 H370 0.960 . S
H370 C369 0.960 . S
H371 N351 0.862 . S
O372 Co340 1.920 . S
O372 C345 1.289 . S
C373 O365 1.258 . S
C373 O366 1.266 . S
Co374 O377 1.970 . S
Co374 N391 1.989 . S
Co374 O399 1.967 . S
Co374 O406 1.920 . S
Co375 O378 1.966 . S
Co375 N384 2.022 . S
Co375 N392 1.993 . S
Co375 O400 1.941 . S
C376 O377 1.258 . S
C376 O378 1.263 . S
O377 Co374 1.970 . S
O377 C376 1.258 . S
O378 Co375 1.966 . S
O378 C376 1.263 . S
C379 O380 1.235 . S
C379 O406 1.289 . S
O380 C379 1.235 . S
C381 C383 1.400 . S
C381 N384 1.351 . S
C381 C386 1.501 . S
C382 C383 1.387 . S
C382 N385 1.341 . S
C383 C381 1.400 . S
C383 C382 1.387 . S
N384 Co375 2.022 . S
N384 C381 1.351 . S
N384 N385 1.365 . S
N385 C382 1.341 . S
N385 N384 1.365 . S
N385 H405 0.862 . S
C386 C381 1.501 . S
C386 H387 0.961 . S
C386 H388 0.961 . S
C386 H389 0.960 . S
H387 C386 0.961 . S
H388 C386 0.961 . S
H389 C386 0.960 . S
C390 N391 1.342 . S
C390 C394 1.401 . S
C390 C395 1.499 . S
N391 Co374 1.989 . S
N391 C390 1.342 . S
N391 N392 1.388 . S
N392 Co375 1.993 . S
N392 N391 1.388 . S
N392 C393 1.346 . S
C393 N392 1.346 . S
C393 C394 1.396 . S
C393 C403 1.510 . S
C394 C390 1.401 . S
C394 C393 1.396 . S
C395 C390 1.499 . S
C395 H396 0.959 . S
C395 H397 0.960 . S
C395 H398 0.961 . S
H396 C395 0.959 . S
H397 C395 0.960 . S
H398 C395 0.961 . S
O399 Co374 1.967 . S
O399 C407 1.258 . S
O400 Co375 1.941 . S
O400 C407 1.266 . S
H401 C403 0.959 . S
H402 C403 0.961 . S
C403 C393 1.510 . S
C403 H401 0.959 . S
C403 H402 0.961 . S
C403 H404 0.960 . S
H404 C403 0.960 . S
H405 N385 0.862 . S
O406 Co374 1.920 . S
O406 C379 1.289 . S
C407 O399 1.258 . S
C407 O400 1.266 . S
Co408 O411 1.970 . S
Co408 N425 1.989 . S
Co408 O433 1.967 . S
Co408 O440 1.920 . S
Co409 O412 1.966 . S
Co409 N418 2.022 . S
Co409 N426 1.993 . S
Co409 O434 1.941 . S
C410 O411 1.258 . S
C410 O412 1.263 . S
O411 Co408 1.970 . S
O411 C410 1.258 . S
O412 Co409 1.966 . S
O412 C410 1.263 . S
C413 O414 1.235 . S
C413 O440 1.289 . S
O414 C413 1.235 . S
C415 C417 1.400 . S
C415 N418 1.351 . S
C415 C420 1.501 . S
C416 C417 1.387 . S
C416 N419 1.341 . S
C417 C415 1.400 . S
C417 C416 1.387 . S
N418 Co409 2.022 . S
N418 C415 1.351 . S
N418 N419 1.365 . S
N419 C416 1.341 . S
N419 N418 1.365 . S
N419 H439 0.862 . S
C420 C415 1.501 . S
C420 H421 0.961 . S
C420 H422 0.961 . S
C420 H423 0.960 . S
H421 C420 0.961 . S
H422 C420 0.961 . S
H423 C420 0.960 . S
C424 N425 1.342 . S
C424 C428 1.401 . S
C424 C429 1.499 . S
N425 Co408 1.989 . S
N425 C424 1.342 . S
N425 N426 1.388 . S
N426 Co409 1.993 . S
N426 N425 1.388 . S
N426 C427 1.346 . S
C427 N426 1.346 . S
C427 C428 1.396 . S
C427 C437 1.510 . S
C428 C424 1.401 . S
C428 C427 1.396 . S
C429 C424 1.499 . S
C429 H430 0.959 . S
C429 H431 0.960 . S
C429 H432 0.961 . S
H430 C429 0.959 . S
H431 C429 0.960 . S
H432 C429 0.961 . S
O433 Co408 1.967 . S
O433 C441 1.258 . S
O434 Co409 1.941 . S
O434 C441 1.266 . S
H435 C437 0.959 . S
H436 C437 0.961 . S
C437 C427 1.510 . S
C437 H435 0.959 . S
C437 H436 0.961 . S
C437 H438 0.960 . S
H438 C437 0.960 . S
H439 N419 0.862 . S
O440 Co408 1.920 . S
O440 C413 1.289 . S
C441 O433 1.258 . S
C441 O434 1.266 . S
Co442 O445 1.970 . S
Co442 N459 1.989 . S
Co442 O467 1.967 . S
Co442 O474 1.920 . S
Co443 O446 1.966 . S
Co443 N452 2.022 . S
Co443 N460 1.993 . S
Co443 O468 1.941 . S
C444 O445 1.258 . S
C444 O446 1.263 . S
O445 Co442 1.970 . S
O445 C444 1.258 . S
O446 Co443 1.966 . S
O446 C444 1.263 . S
C447 O448 1.235 . S
C447 O474 1.289 . S
O448 C447 1.235 . S
C449 C451 1.400 . S
C449 N452 1.351 . S
C449 C454 1.501 . S
C450 C451 1.387 . S
C450 N453 1.341 . S
C451 C449 1.400 . S
C451 C450 1.387 . S
N452 Co443 2.022 . S
N452 C449 1.351 . S
N452 N453 1.365 . S
N453 C450 1.341 . S
N453 N452 1.365 . S
N453 H473 0.862 . S
C454 C449 1.501 . S
C454 H455 0.961 . S
C454 H456 0.961 . S
C454 H457 0.960 . S
H455 C454 0.961 . S
H456 C454 0.961 . S
H457 C454 0.960 . S
C458 N459 1.342 . S
C458 C462 1.401 . S
C458 C463 1.499 . S
N459 Co442 1.989 . S
N459 C458 1.342 . S
N459 N460 1.388 . S
N460 Co443 1.993 . S
N460 N459 1.388 . S
N460 C461 1.346 . S
C461 N460 1.346 . S
C461 C462 1.396 . S
C461 C471 1.510 . S
C462 C458 1.401 . S
C462 C461 1.396 . S
C463 C458 1.499 . S
C463 H464 0.959 . S
C463 H465 0.960 . S
C463 H466 0.961 . S
H464 C463 0.959 . S
H465 C463 0.960 . S
H466 C463 0.961 . S
O467 Co442 1.967 . S
O467 C475 1.258 . S
O468 Co443 1.941 . S
O468 C475 1.266 . S
H469 C471 0.959 . S
H470 C471 0.961 . S
C471 C461 1.510 . S
C471 H469 0.959 . S
C471 H470 0.961 . S
C471 H472 0.960 . S
H472 C471 0.960 . S
H473 N453 0.862 . S
O474 Co442 1.920 . S
O474 C447 1.289 . S
C475 O467 1.258 . S
C475 O468 1.266 . S
Co476 O479 1.970 . S
Co476 N493 1.989 . S
Co476 O501 1.967 . S
Co476 O508 1.920 . S
Co477 O480 1.966 . S
Co477 N486 2.022 . S
Co477 N494 1.993 . S
Co477 O502 1.941 . S
C478 O479 1.258 . S
C478 O480 1.263 . S
O479 Co476 1.970 . S
O479 C478 1.258 . S
O480 Co477 1.966 . S
O480 C478 1.263 . S
C481 O482 1.235 . S
C481 O508 1.289 . S
O482 C481 1.235 . S
C483 C485 1.400 . S
C483 N486 1.351 . S
C483 C488 1.501 . S
C484 C485 1.387 . S
C484 N487 1.341 . S
C485 C483 1.400 . S
C485 C484 1.387 . S
N486 Co477 2.022 . S
N486 C483 1.351 . S
N486 N487 1.365 . S
N487 C484 1.341 . S
N487 N486 1.365 . S
N487 H507 0.862 . S
C488 C483 1.501 . S
C488 H489 0.961 . S
C488 H490 0.961 . S
C488 H491 0.960 . S
H489 C488 0.961 . S
H490 C488 0.961 . S
H491 C488 0.960 . S
C492 N493 1.342 . S
C492 C496 1.401 . S
C492 C497 1.499 . S
N493 Co476 1.989 . S
N493 C492 1.342 . S
N493 N494 1.388 . S
N494 Co477 1.993 . S
N494 N493 1.388 . S
N494 C495 1.346 . S
C495 N494 1.346 . S
C495 C496 1.396 . S
C495 C505 1.510 . S
C496 C492 1.401 . S
C496 C495 1.396 . S
C497 C492 1.499 . S
C497 H498 0.959 . S
C497 H499 0.960 . S
C497 H500 0.961 . S
H498 C497 0.959 . S
H499 C497 0.960 . S
H500 C497 0.961 . S
O501 Co476 1.967 . S
O501 C509 1.258 . S
O502 Co477 1.941 . S
O502 C509 1.266 . S
H503 C505 0.959 . S
H504 C505 0.961 . S
C505 C495 1.510 . S
C505 H503 0.959 . S
C505 H504 0.961 . S
C505 H506 0.960 . S
H506 C505 0.960 . S
H507 N487 0.862 . S
O508 Co476 1.920 . S
O508 C481 1.289 . S
C509 O501 1.258 . S
C509 O502 1.266 . S
Co510 O513 1.970 . S
Co510 N527 1.989 . S
Co510 O535 1.967 . S
Co510 O542 1.920 . S
Co511 O514 1.966 . S
Co511 N520 2.022 . S
Co511 N528 1.993 . S
Co511 O536 1.941 . S
C512 O513 1.258 . S
C512 O514 1.263 . S
O513 Co510 1.970 . S
O513 C512 1.258 . S
O514 Co511 1.966 . S
O514 C512 1.263 . S
C515 O516 1.235 . S
C515 O542 1.289 . S
O516 C515 1.235 . S
C517 C519 1.400 . S
C517 N520 1.351 . S
C517 C522 1.501 . S
C518 C519 1.387 . S
C518 N521 1.341 . S
C519 C517 1.400 . S
C519 C518 1.387 . S
N520 Co511 2.022 . S
N520 C517 1.351 . S
N520 N521 1.365 . S
N521 C518 1.341 . S
N521 N520 1.365 . S
N521 H541 0.862 . S
C522 C517 1.501 . S
C522 H523 0.961 . S
C522 H524 0.961 . S
C522 H525 0.960 . S
H523 C522 0.961 . S
H524 C522 0.961 . S
H525 C522 0.960 . S
C526 N527 1.342 . S
C526 C530 1.401 . S
C526 C531 1.499 . S
N527 Co510 1.989 . S
N527 C526 1.342 . S
N527 N528 1.388 . S
N528 Co511 1.993 . S
N528 N527 1.388 . S
N528 C529 1.346 . S
C529 N528 1.346 . S
C529 C530 1.396 . S
C529 C539 1.510 . S
C530 C526 1.401 . S
C530 C529 1.396 . S
C531 C526 1.499 . S
C531 H532 0.959 . S
C531 H533 0.960 . S
C531 H534 0.961 . S
H532 C531 0.959 . S
H533 C531 0.960 . S
H534 C531 0.961 . S
O535 Co510 1.967 . S
O535 C543 1.258 . S
O536 Co511 1.941 . S
O536 C543 1.266 . S
H537 C539 0.959 . S
H538 C539 0.961 . S
C539 C529 1.510 . S
C539 H537 0.959 . S
C539 H538 0.961 . S
C539 H540 0.960 . S
H540 C539 0.960 . S
H541 N521 0.862 . S
O542 Co510 1.920 . S
O542 C515 1.289 . S
C543 O535 1.258 . S
C543 O536 1.266 . S
C544 C545 1.387 . S
C544 H548 0.950 . S
C544 C553 1.390 . S
C545 C544 1.387 . S
C545 C547 1.387 . S
H546 C553 0.950 . S
C547 C545 1.387 . S
C547 C549 1.390 . S
C547 H551 0.950 . S
H548 C544 0.950 . S
C549 C547 1.390 . S
C549 C550 1.387 . S
C549 H552 0.950 . S
C550 C549 1.387 . S
C550 C553 1.387 . S
H551 C547 0.950 . S
H552 C549 0.950 . S
C553 C544 1.390 . S
C553 H546 0.950 . S
C553 C550 1.387 . S
C554 C555 1.387 . S
C554 H558 0.950 . S
C554 C563 1.390 . S
C555 C554 1.387 . S
C555 C557 1.387 . S
H556 C563 0.950 . S
C557 C555 1.387 . S
C557 C559 1.390 . S
C557 H561 0.950 . S
H558 C554 0.950 . S
C559 C557 1.390 . S
C559 C560 1.387 . S
C559 H562 0.950 . S
C560 C559 1.387 . S
C560 C563 1.387 . S
H561 C557 0.950 . S
H562 C559 0.950 . S
C563 C554 1.390 . S
C563 H556 0.950 . S
C563 C560 1.387 . S
C564 C565 1.387 . S
C564 H568 0.950 . S
C564 C573 1.390 . S
C565 C564 1.387 . S
C565 C567 1.387 . S
H566 C573 0.950 . S
C567 C565 1.387 . S
C567 C569 1.390 . S
C567 H571 0.950 . S
H568 C564 0.950 . S
C569 C567 1.390 . S
C569 C570 1.387 . S
C569 H572 0.950 . S
C570 C569 1.387 . S
C570 C573 1.387 . S
H571 C567 0.950 . S
H572 C569 0.950 . S
C573 C564 1.390 . S
C573 H566 0.950 . S
C573 C570 1.387 . S
C574 C575 1.387 . S
C574 H578 0.950 . S
C574 C583 1.390 . S
C575 C574 1.387 . S
C575 C577 1.387 . S
H576 C583 0.950 . S
C577 C575 1.387 . S
C577 C579 1.390 . S
C577 H581 0.950 . S
H578 C574 0.950 . S
C579 C577 1.390 . S
C579 C580 1.387 . S
C579 H582 0.950 . S
C580 C579 1.387 . S
C580 C583 1.387 . S
H581 C577 0.950 . S
H582 C579 0.950 . S
C583 C574 1.390 . S
C583 H576 0.950 . S
C583 C580 1.387 . S
C584 C585 1.387 . S
C584 H588 0.950 . S
C584 C593 1.390 . S
C585 C584 1.387 . S
C585 C587 1.387 . S
H586 C593 0.950 . S
C587 C585 1.387 . S
C587 C589 1.390 . S
C587 H591 0.950 . S
H588 C584 0.950 . S
C589 C587 1.390 . S
C589 C590 1.387 . S
C589 H592 0.950 . S
C590 C589 1.387 . S
C590 C593 1.387 . S
H591 C587 0.950 . S
H592 C589 0.950 . S
C593 C584 1.390 . S
C593 H586 0.950 . S
C593 C590 1.387 . S
C594 C595 1.387 . S
C594 H598 0.950 . S
C594 C603 1.390 . S
C595 C594 1.387 . S
C595 C597 1.387 . S
H596 C603 0.950 . S
C597 C595 1.387 . S
C597 C599 1.390 . S
C597 H601 0.950 . S
H598 C594 0.950 . S
C599 C597 1.390 . S
C599 C600 1.387 . S
C599 H602 0.950 . S
C600 C599 1.387 . S
C600 C603 1.387 . S
H601 C597 0.950 . S
H602 C599 0.950 . S
C603 C594 1.390 . S
C603 H596 0.950 . S
C603 C600 1.387 . S
C604 C605 1.387 . S
C604 H608 0.950 . S
C604 C613 1.390 . S
C605 C604 1.387 . S
C605 C607 1.387 . S
H606 C613 0.950 . S
C607 C605 1.387 . S
C607 C609 1.390 . S
C607 H611 0.950 . S
H608 C604 0.950 . S
C609 C607 1.390 . S
C609 C610 1.387 . S
C609 H612 0.950 . S
C610 C609 1.387 . S
C610 C613 1.387 . S
H611 C607 0.950 . S
H612 C609 0.950 . S
C613 C604 1.390 . S
C613 H606 0.950 . S
C613 C610 1.387 . S
C614 C615 1.387 . S
C614 H618 0.950 . S
C614 C623 1.390 . S
C615 C614 1.387 . S
C615 C617 1.387 . S
H616 C623 0.950 . S
C617 C615 1.387 . S
C617 C619 1.390 . S
C617 H621 0.950 . S
H618 C614 0.950 . S
C619 C617 1.390 . S
C619 C620 1.387 . S
C619 H622 0.950 . S
C620 C619 1.387 . S
C620 C623 1.387 . S
H621 C617 0.950 . S
H622 C619 0.950 . S
C623 C614 1.390 . S
C623 H616 0.950 . S
C623 C620 1.387 . S
C624 C625 1.387 1_556 S
C624 H628 0.950 . S
C624 C633 1.390 . S
C625 C624 1.387 1_554 S
C625 C627 1.387 . S
H626 C633 0.950 . S
C627 C625 1.387 . S
C627 C629 1.390 . S
C627 H631 0.950 . S
H628 C624 0.950 . S
C629 C627 1.390 . S
C629 C630 1.387 . S
C629 H632 0.950 . S
C630 C629 1.387 . S
C630 C633 1.387 1_554 S
H631 C627 0.950 . S
H632 C629 0.950 . S
C633 C624 1.390 . S
C633 H626 0.950 . S
C633 C630 1.387 1_556 S
C634 C635 1.387 . S
C634 H638 0.950 . S
C634 C643 1.390 . S
C635 C634 1.387 . S
C635 C637 1.387 1_556 S
H636 C643 0.950 . S
C637 C635 1.387 1_554 S
C637 C639 1.390 . S
C637 H641 0.950 . S
H638 C634 0.950 . S
C639 C637 1.390 . S
C639 C640 1.387 1_554 S
C639 H642 0.950 . S
C640 C639 1.387 1_556 S
C640 C643 1.387 . S
H641 C637 0.950 . S
H642 C639 0.950 . S
C643 C634 1.390 . S
C643 H636 0.950 . S
C643 C640 1.387 . S
C644 C645 1.387 . S
C644 H648 0.950 . S
C644 C653 1.390 . S
C645 C644 1.387 . S
C645 C647 1.387 1_554 S
H646 C653 0.950 . S
C647 C645 1.387 1_556 S
C647 C649 1.390 . S
C647 H651 0.950 . S
H648 C644 0.950 . S
C649 C647 1.390 . S
C649 C650 1.387 1_556 S
C649 H652 0.950 . S
C650 C649 1.387 1_554 S
C650 C653 1.387 . S
H651 C647 0.950 . S
H652 C649 0.950 . S
C653 C644 1.390 . S
C653 H646 0.950 . S
C653 C650 1.387 . S
C654 C655 1.387 1_554 S
C654 H658 0.950 . S
C654 C663 1.390 . S
C655 C654 1.387 1_556 S
C655 C657 1.387 . S
H656 C663 0.950 . S
C657 C655 1.387 . S
C657 C659 1.390 . S
C657 H661 0.950 . S
H658 C654 0.950 . S
C659 C657 1.390 . S
C659 C660 1.387 . S
C659 H662 0.950 . S
C660 C659 1.387 . S
C660 C663 1.387 1_556 S
H661 C657 0.950 . S
H662 C659 0.950 . S
C663 C654 1.390 . S
C663 H656 0.950 . S
C663 C660 1.387 1_554 S
C664 C665 1.387 . S
C664 H668 0.950 . S
C664 C673 1.390 . S
C665 C664 1.387 . S
C665 C667 1.387 . S
H666 C673 0.950 . S
C667 C665 1.387 . S
C667 C669 1.390 . S
C667 H671 0.950 . S
H668 C664 0.950 . S
C669 C667 1.390 . S
C669 C670 1.387 . S
C669 H672 0.950 . S
C670 C669 1.387 . S
C670 C673 1.387 . S
H671 C667 0.950 . S
H672 C669 0.950 . S
C673 C664 1.390 . S
C673 H666 0.950 . S
C673 C670 1.387 . S
C674 C675 1.387 . S
C674 H678 0.950 . S
C674 C683 1.390 . S
C675 C674 1.387 . S
C675 C677 1.387 . S
H676 C683 0.950 . S
C677 C675 1.387 . S
C677 C679 1.390 . S
C677 H681 0.950 . S
H678 C674 0.950 . S
C679 C677 1.390 . S
C679 C680 1.387 . S
C679 H682 0.950 . S
C680 C679 1.387 . S
C680 C683 1.387 . S
H681 C677 0.950 . S
H682 C679 0.950 . S
C683 C674 1.390 . S
C683 H676 0.950 . S
C683 C680 1.387 . S
C684 C685 1.387 . S
C684 H688 0.950 . S
C684 C693 1.390 . S
C685 C684 1.387 . S
C685 C687 1.387 . S
H686 C693 0.950 . S
C687 C685 1.387 . S
C687 C689 1.390 . S
C687 H691 0.950 . S
H688 C684 0.950 . S
C689 C687 1.390 . S
C689 C690 1.387 . S
C689 H692 0.950 . S
C690 C689 1.387 . S
C690 C693 1.387 . S
H691 C687 0.950 . S
H692 C689 0.950 . S
C693 C684 1.390 . S
C693 H686 0.950 . S
C693 C690 1.387 . S
C694 C695 1.387 . S
C694 H698 0.950 . S
C694 C703 1.390 . S
C695 C694 1.387 . S
C695 C697 1.387 . S
H696 C703 0.950 . S
C697 C695 1.387 . S
C697 C699 1.390 . S
C697 H701 0.950 . S
H698 C694 0.950 . S
C699 C697 1.390 . S
C699 C700 1.387 . S
C699 H702 0.950 . S
C700 C699 1.387 . S
C700 C703 1.387 . S
H701 C697 0.950 . S
H702 C699 0.950 . S
C703 C694 1.390 . S
C703 H696 0.950 . S
C703 C700 1.387 . S
C704 C705 1.387 . S
C704 H708 0.950 . S
C704 C713 1.390 . S
C705 C704 1.387 . S
C705 C707 1.387 . S
H706 C713 0.950 . S
C707 C705 1.387 . S
C707 C709 1.390 . S
C707 H711 0.950 . S
H708 C704 0.950 . S
C709 C707 1.390 . S
C709 C710 1.387 . S
C709 H712 0.950 . S
C710 C709 1.387 . S
C710 C713 1.387 . S
H711 C707 0.950 . S
H712 C709 0.950 . S
C713 C704 1.390 . S
C713 H706 0.950 . S
C713 C710 1.387 . S
C714 C715 1.387 . S
C714 H718 0.950 . S
C714 C723 1.390 . S
C715 C714 1.387 . S
C715 C717 1.387 . S
H716 C723 0.950 . S
C717 C715 1.387 . S
C717 C719 1.390 . S
C717 H721 0.950 . S
H718 C714 0.950 . S
C719 C717 1.390 . S
C719 C720 1.387 . S
C719 H722 0.950 . S
C720 C719 1.387 . S
C720 C723 1.387 . S
H721 C717 0.950 . S
H722 C719 0.950 . S
C723 C714 1.390 . S
C723 H716 0.950 . S
C723 C720 1.387 . S
C724 C725 1.387 . S
C724 H728 0.950 . S
C724 C733 1.390 . S
C725 C724 1.387 . S
C725 C727 1.387 . S
H726 C733 0.950 . S
C727 C725 1.387 . S
C727 C729 1.390 . S
C727 H731 0.950 . S
H728 C724 0.950 . S
C729 C727 1.390 . S
C729 C730 1.387 . S
C729 H732 0.950 . S
C730 C729 1.387 . S
C730 C733 1.387 . S
H731 C727 0.950 . S
H732 C729 0.950 . S
C733 C724 1.390 . S
C733 H726 0.950 . S
C733 C730 1.387 . S
C734 C735 1.387 . S
C734 H738 0.950 . S
C734 C743 1.390 . S
C735 C734 1.387 . S
C735 C737 1.387 . S
H736 C743 0.950 . S
C737 C735 1.387 . S
C737 C739 1.390 . S
C737 H741 0.950 . S
H738 C734 0.950 . S
C739 C737 1.390 . S
C739 C740 1.387 . S
C739 H742 0.950 . S
C740 C739 1.387 . S
C740 C743 1.387 . S
H741 C737 0.950 . S
H742 C739 0.950 . S
C743 C734 1.390 . S
C743 H736 0.950 . S
C743 C740 1.387 . S
C744 C745 1.387 . S
C744 H748 0.950 . S
C744 C753 1.390 . S
C745 C744 1.387 . S
C745 C747 1.387 . S
H746 C753 0.950 . S
C747 C745 1.387 . S
C747 C749 1.390 . S
C747 H751 0.950 . S
H748 C744 0.950 . S
C749 C747 1.390 . S
C749 C750 1.387 . S
C749 H752 0.950 . S
C750 C749 1.387 . S
C750 C753 1.387 . S
H751 C747 0.950 . S
H752 C749 0.950 . S
C753 C744 1.390 . S
C753 H746 0.950 . S
C753 C750 1.387 . S
C754 C755 1.387 . S
C754 H758 0.950 . S
C754 C763 1.390 . S
C755 C754 1.387 . S
C755 C757 1.387 . S
H756 C763 0.950 . S
C757 C755 1.387 . S
C757 C759 1.390 . S
C757 H761 0.950 . S
H758 C754 0.950 . S
C759 C757 1.390 . S
C759 C760 1.387 . S
C759 H762 0.950 . S
C760 C759 1.387 . S
C760 C763 1.387 . S
H761 C757 0.950 . S
H762 C759 0.950 . S
C763 C754 1.390 . S
C763 H756 0.950 . S
C763 C760 1.387 . S
C764 C765 1.387 . S
C764 H768 0.950 . S
C764 C773 1.390 . S
C765 C764 1.387 . S
C765 C767 1.387 . S
H766 C773 0.950 . S
C767 C765 1.387 . S
C767 C769 1.390 . S
C767 H771 0.950 . S
H768 C764 0.950 . S
C769 C767 1.390 . S
C769 C770 1.387 . S
C769 H772 0.950 . S
C770 C769 1.387 . S
C770 C773 1.387 . S
H771 C767 0.950 . S
H772 C769 0.950 . S
C773 C764 1.390 . S
C773 H766 0.950 . S
C773 C770 1.387 . S
C774 C775 1.387 . S
C774 H778 0.950 . S
C774 C783 1.390 . S
C775 C774 1.387 . S
C775 C777 1.387 . S
H776 C783 0.950 . S
C777 C775 1.387 . S
C777 C779 1.390 . S
C777 H781 0.950 . S
H778 C774 0.950 . S
C779 C777 1.390 . S
C779 C780 1.387 . S
C779 H782 0.950 . S
C780 C779 1.387 . S
C780 C783 1.387 . S
H781 C777 0.950 . S
H782 C779 0.950 . S
C783 C774 1.390 . S
C783 H776 0.950 . S
C783 C780 1.387 . S
C784 C785 1.387 1_556 S
C784 H788 0.950 . S
C784 C793 1.390 1_545 S
C785 C784 1.387 1_554 S
C785 C787 1.387 . S
H786 C793 0.950 . S
C787 C785 1.387 . S
C787 C789 1.390 1_545 S
C787 H791 0.950 . S
H788 C784 0.950 . S
C789 C787 1.390 1_565 S
C789 C790 1.387 . S
C789 H792 0.950 . S
C790 C789 1.387 . S
C790 C793 1.387 1_554 S
H791 C787 0.950 . S
H792 C789 0.950 . S
C793 C784 1.390 1_565 S
C793 H786 0.950 . S
C793 C790 1.387 1_556 S
C794 C795 1.387 1_554 S
C794 H798 0.950 . S
C794 C803 1.390 1_455 S
C795 C794 1.387 1_556 S
C795 C797 1.387 . S
H796 C803 0.950 . S
C797 C795 1.387 . S
C797 C799 1.390 1_455 S
C797 H801 0.950 . S
H798 C794 0.950 . S
C799 C797 1.390 1_655 S
C799 C800 1.387 . S
C799 H802 0.950 . S
C800 C799 1.387 . S
C800 C803 1.387 1_556 S
H801 C797 0.950 . S
H802 C799 0.950 . S
C803 C794 1.390 1_655 S
C803 H796 0.950 . S
C803 C800 1.387 1_554 S
C804 C805 1.387 . S
C804 H808 0.950 . S
C804 C813 1.390 . S
C805 C804 1.387 . S
C805 C807 1.387 . S
H806 C813 0.950 . S
C807 C805 1.387 . S
C807 C809 1.390 . S
C807 H811 0.950 . S
H808 C804 0.950 . S
C809 C807 1.390 . S
C809 C810 1.387 . S
C809 H812 0.950 . S
C810 C809 1.387 . S
C810 C813 1.387 . S
H811 C807 0.950 . S
H812 C809 0.950 . S
C813 C804 1.390 . S
C813 H806 0.950 . S
C813 C810 1.387 . S
C814 C815 1.387 . S
C814 H818 0.950 . S
C814 C823 1.390 . S
C815 C814 1.387 . S
C815 C817 1.387 . S
H816 C823 0.950 . S
C817 C815 1.387 . S
C817 C819 1.390 . S
C817 H821 0.950 . S
H818 C814 0.950 . S
C819 C817 1.390 . S
C819 C820 1.387 . S
C819 H822 0.950 . S
C820 C819 1.387 . S
C820 C823 1.387 . S
H821 C817 0.950 . S
H822 C819 0.950 . S
C823 C814 1.390 . S
C823 H816 0.950 . S
C823 C820 1.387 . S
C824 C825 1.387 . S
C824 H828 0.950 . S
C824 C833 1.390 1_655 S
C825 C824 1.387 . S
C825 C827 1.387 . S
H826 C833 0.950 . S
C827 C825 1.387 . S
C827 C829 1.390 1_655 S
C827 H831 0.950 . S
H828 C824 0.950 . S
C829 C827 1.390 1_455 S
C829 C830 1.387 . S
C829 H832 0.950 . S
C830 C829 1.387 . S
C830 C833 1.387 . S
H831 C827 0.950 . S
H832 C829 0.950 . S
C833 C824 1.390 1_455 S
C833 H826 0.950 . S
C833 C830 1.387 . S
C834 C835 1.387 . S
C834 H838 0.950 . S
C834 C843 1.390 1_545 S
C835 C834 1.387 . S
C835 C837 1.387 . S
H836 C843 0.950 . S
C837 C835 1.387 . S
C837 C839 1.390 1_545 S
C837 H841 0.950 . S
H838 C834 0.950 . S
C839 C837 1.390 1_565 S
C839 C840 1.387 . S
C839 H842 0.950 . S
C840 C839 1.387 . S
C840 C843 1.387 . S
H841 C837 0.950 . S
H842 C839 0.950 . S
C843 C834 1.390 1_565 S
C843 H836 0.950 . S
C843 C840 1.387 . S
C844 C845 1.387 . S
C844 H848 0.950 . S
C844 C853 1.390 1_665 S
C845 C844 1.387 . S
C845 C847 1.387 . S
H846 C853 0.950 . S
C847 C845 1.387 . S
C847 C849 1.390 1_665 S
C847 H851 0.950 . S
H848 C844 0.950 . S
C849 C847 1.390 1_445 S
C849 C850 1.387 . S
C849 H852 0.950 . S
C850 C849 1.387 . S
C850 C853 1.387 . S
H851 C847 0.950 . S
H852 C849 0.950 . S
C853 C844 1.390 1_445 S
C853 H846 0.950 . S
C853 C850 1.387 . S
C854 C855 1.387 . S
C854 H858 0.950 . S
C854 C863 1.390 1_645 S
C855 C854 1.387 . S
C855 C857 1.387 . S
H856 C863 0.950 . S
C857 C855 1.387 . S
C857 C859 1.390 1_645 S
C857 H861 0.950 . S
H858 C854 0.950 . S
C859 C857 1.390 1_465 S
C859 C860 1.387 . S
C859 H862 0.950 . S
C860 C859 1.387 . S
C860 C863 1.387 . S
H861 C857 0.950 . S
H862 C859 0.950 . S
C863 C854 1.390 1_465 S
C863 H856 0.950 . S
C863 C860 1.387 . S
C864 C865 1.387 . S
C864 H868 0.950 . S
C864 C873 1.390 . S
C865 C864 1.387 . S
C865 C867 1.387 . S
H866 C873 0.950 . S
C867 C865 1.387 . S
C867 C869 1.390 . S
C867 H871 0.950 . S
H868 C864 0.950 . S
C869 C867 1.390 . S
C869 C870 1.387 . S
C869 H872 0.950 . S
C870 C869 1.387 . S
C870 C873 1.387 . S
H871 C867 0.950 . S
H872 C869 0.950 . S
C873 C864 1.390 . S
C873 H866 0.950 . S
C873 C870 1.387 . S
C874 C875 1.387 . S
C874 H878 0.950 . S
C874 C883 1.390 . S
C875 C874 1.387 . S
C875 C877 1.387 . S
H876 C883 0.950 . S
C877 C875 1.387 . S
C877 C879 1.390 . S
C877 H881 0.950 . S
H878 C874 0.950 . S
C879 C877 1.390 . S
C879 C880 1.387 . S
C879 H882 0.950 . S
C880 C879 1.387 . S
C880 C883 1.387 . S
H881 C877 0.950 . S
H882 C879 0.950 . S
C883 C874 1.390 . S
C883 H876 0.950 . S
C883 C880 1.387 . S
C884 C885 1.387 . S
C884 H888 0.950 . S
C884 C893 1.390 . S
C885 C884 1.387 . S
C885 C887 1.387 . S
H886 C893 0.950 . S
C887 C885 1.387 . S
C887 C889 1.390 . S
C887 H891 0.950 . S
H888 C884 0.950 . S
C889 C887 1.390 . S
C889 C890 1.387 . S
C889 H892 0.950 . S
C890 C889 1.387 . S
C890 C893 1.387 . S
H891 C887 0.950 . S
H892 C889 0.950 . S
C893 C884 1.390 . S
C893 H886 0.950 . S
C893 C890 1.387 . S
C894 C895 1.387 . S
C894 H898 0.950 . S
C894 C903 1.390 . S
C895 C894 1.387 . S
C895 C897 1.387 . S
H896 C903 0.950 . S
C897 C895 1.387 . S
C897 C899 1.390 . S
C897 H901 0.950 . S
H898 C894 0.950 . S
C899 C897 1.390 . S
C899 C900 1.387 . S
C899 H902 0.950 . S
C900 C899 1.387 . S
C900 C903 1.387 . S
H901 C897 0.950 . S
H902 C899 0.950 . S
C903 C894 1.390 . S
C903 H896 0.950 . S
C903 C900 1.387 . S
C904 C905 1.387 . S
C904 H908 0.950 . S
C904 C913 1.390 . S
C905 C904 1.387 . S
C905 C907 1.387 . S
H906 C913 0.950 . S
C907 C905 1.387 . S
C907 C909 1.390 . S
C907 H911 0.950 . S
H908 C904 0.950 . S
C909 C907 1.390 . S
C909 C910 1.387 . S
C909 H912 0.950 . S
C910 C909 1.387 . S
C910 C913 1.387 . S
H911 C907 0.950 . S
H912 C909 0.950 . S
C913 C904 1.390 . S
C913 H906 0.950 . S
C913 C910 1.387 . S
C914 C915 1.387 . S
C914 H918 0.950 . S
C914 C923 1.390 . S
C915 C914 1.387 . S
C915 C917 1.387 . S
H916 C923 0.950 . S
C917 C915 1.387 . S
C917 C919 1.390 . S
C917 H921 0.950 . S
H918 C914 0.950 . S
C919 C917 1.390 . S
C919 C920 1.387 . S
C919 H922 0.950 . S
C920 C919 1.387 . S
C920 C923 1.387 . S
H921 C917 0.950 . S
H922 C919 0.950 . S
C923 C914 1.390 . S
C923 H916 0.950 . S
C923 C920 1.387 . S
C924 C925 1.387 . S
C924 H928 0.950 . S
C924 C933 1.390 . S
C925 C924 1.387 . S
C925 C927 1.387 . S
H926 C933 0.950 . S
C927 C925 1.387 . S
C927 C929 1.390 . S
C927 H931 0.950 . S
H928 C924 0.950 . S
C929 C927 1.390 . S
C929 C930 1.387 . S
C929 H932 0.950 . S
C930 C929 1.387 . S
C930 C933 1.387 . S
H931 C927 0.950 . S
H932 C929 0.950 . S
C933 C924 1.390 . S
C933 H926 0.950 . S
C933 C930 1.387 . S
C934 C935 1.387 . S
C934 H938 0.950 . S
C934 C943 1.390 . S
C935 C934 1.387 . S
C935 C937 1.387 . S
H936 C943 0.950 . S
C937 C935 1.387 . S
C937 C939 1.390 . S
C937 H941 0.950 . S
H938 C934 0.950 . S
C939 C937 1.390 . S
C939 C940 1.387 . S
C939 H942 0.950 . S
C940 C939 1.387 . S
C940 C943 1.387 . S
H941 C937 0.950 . S
H942 C939 0.950 . S
C943 C934 1.390 . S
C943 H936 0.950 . S
C943 C940 1.387 . S
C545 C2 1.550 . S
C550 C478 1.550 . S
C555 C36 1.550 . S
C560 C512 1.550 . S
C565 C70 1.550 . S
C570 C410 1.550 . S
C575 C104 1.549 . S
C580 C444 1.549 . S
C585 C138 1.551 . S
C590 C342 1.551 . S
C595 C172 1.549 . S
C600 C376 1.549 . S
C605 C274 1.551 . S
C610 C206 1.551 . S
C615 C308 1.551 . S
C620 C240 1.551 . S
C625 C33 1.086 1_565 S
C630 C39 1.096 . S
C635 C67 1.086 1_655 S
C640 C73 1.096 . S
C645 C101 1.084 1_545 S
C650 C107 1.096 . S
C655 C5 1.097 . S
C660 C135 1.085 1_455 S
C665 C515 1.097 . S
C670 C169 1.085 . S
C675 C413 1.096 . S
C680 C203 1.086 . S
C685 C447 1.096 . S
C690 C237 1.086 . S
C695 C481 1.097 . S
C700 C271 1.085 . S
C705 C305 1.085 . S
C710 C311 1.097 . S
C715 C339 1.086 . S
C720 C345 1.097 . S
C725 C379 1.096 . S
C730 C373 1.084 . S
C735 C407 1.085 . S
C740 C277 1.095 . S
C745 C441 1.084 1_545 S
C750 C243 1.096 . S
C755 C141 1.097 . S
C760 C475 1.085 1_455 S
C765 C175 1.096 . S
C770 C509 1.084 1_565 S
C775 C543 1.087 1_655 S
C780 C209 1.096 . S
C785 C9 1.483 . S
C790 C77 1.483 . S
C795 C43 1.488 . S
C800 C111 1.488 . S
C805 C213 1.483 . S
C810 C145 1.483 . S
C815 C247 1.488 . S
C820 C179 1.488 . S
C825 C281 1.483 . S
C830 C349 1.483 . S
C835 C315 1.483 . S
C840 C383 1.483 . S
C845 C417 1.483 . S
C850 C485 1.483 . S
C855 C451 1.488 . S
C860 C519 1.488 . S
C865 C156 1.965 . S
C870 C20 1.965 . S
C875 C190 1.965 . S
C880 C54 1.965 . S
C885 C88 1.967 . S
C890 C224 1.967 . S
C895 C258 1.967 . S
C900 C122 1.967 . S
C905 C292 1.967 . S
C910 C428 1.967 . S
C915 C462 1.967 . S
C920 C326 1.967 . S
C925 C496 1.967 . S
C930 C360 1.967 . S
C935 C394 1.965 . S
C940 C530 1.965 . S
