# Generated by pormake.
# Topology vbm, (6)-cn, num edge types: 1
# Building blocks:
#     Node 0, Type 0, BuildingBlock: MIDCAF_clean_sbu_0, # of connection points: 6
#     Node 1, Type 0, BuildingBlock: MIDCAF_clean_sbu_0, # of connection points: 6
#     Node 2, Type 0, BuildingBlock: MIDCAF_clean_sbu_0, # of connection points: 6
#     Node 3, Type 0, BuildingBlock: MIDCAF_clean_sbu_0, # of connection points: 6
#     Node 4, Type 0, BuildingBlock: MIDCAF_clean_sbu_0, # of connection points: 6
#     Node 5, Type 0, BuildingBlock: MIDCAF_clean_sbu_0, # of connection points: 6
#     Node 6, Type 0, BuildingBlock: MIDCAF_clean_sbu_0, # of connection points: 6
#     Node 7, Type 0, BuildingBlock: MIDCAF_clean_sbu_0, # of connection points: 6
#     Node 8, Type 0, BuildingBlock: MIDCAF_clean_sbu_0, # of connection points: 6
#     Node 9, Type 0, BuildingBlock: MIDCAF_clean_sbu_0, # of connection points: 6
#     Node 10, Type 0, BuildingBlock: MIDCAF_clean_sbu_0, # of connection points: 6
#     Node 11, Type 0, BuildingBlock: MIDCAF_clean_sbu_0, # of connection points: 6
#     Node 12, Type 0, BuildingBlock: MIDCAF_clean_sbu_0, # of connection points: 6
#     Node 13, Type 0, BuildingBlock: MIDCAF_clean_sbu_0, # of connection points: 6
#     Node 14, Type 0, BuildingBlock: MIDCAF_clean_sbu_0, # of connection points: 6
#     Node 15, Type 0, BuildingBlock: MIDCAF_clean_sbu_0, # of connection points: 6
#     Edge 16, Type (0, 0), BuildingBlock: KIFKEQ_clean_linker_1, # of connection points: 2
#     Edge 17, Type (0, 0), BuildingBlock: KIFKEQ_clean_linker_1, # of connection points: 2
#     Edge 18, Type (0, 0), BuildingBlock: KIFKEQ_clean_linker_1, # of connection points: 2
#     Edge 19, Type (0, 0), BuildingBlock: KIFKEQ_clean_linker_1, # of connection points: 2
#     Edge 20, Type (0, 0), BuildingBlock: KIFKEQ_clean_linker_1, # of connection points: 2
#     Edge 21, Type (0, 0), BuildingBlock: KIFKEQ_clean_linker_1, # of connection points: 2
#     Edge 22, Type (0, 0), BuildingBlock: KIFKEQ_clean_linker_1, # of connection points: 2
#     Edge 23, Type (0, 0), BuildingBlock: KIFKEQ_clean_linker_1, # of connection points: 2
#     Edge 24, Type (0, 0), BuildingBlock: KIFKEQ_clean_linker_1, # of connection points: 2
#     Edge 25, Type (0, 0), BuildingBlock: KIFKEQ_clean_linker_1, # of connection points: 2
#     Edge 26, Type (0, 0), BuildingBlock: KIFKEQ_clean_linker_1, # of connection points: 2
#     Edge 27, Type (0, 0), BuildingBlock: KIFKEQ_clean_linker_1, # of connection points: 2
#     Edge 28, Type (0, 0), BuildingBlock: KIFKEQ_clean_linker_1, # of connection points: 2
#     Edge 29, Type (0, 0), BuildingBlock: KIFKEQ_clean_linker_1, # of connection points: 2
#     Edge 30, Type (0, 0), BuildingBlock: KIFKEQ_clean_linker_1, # of connection points: 2
#     Edge 31, Type (0, 0), BuildingBlock: KIFKEQ_clean_linker_1, # of connection points: 2
#     Edge 32, Type (0, 0), BuildingBlock: KIFKEQ_clean_linker_1, # of connection points: 2
#     Edge 33, Type (0, 0), BuildingBlock: KIFKEQ_clean_linker_1, # of connection points: 2
#     Edge 34, Type (0, 0), BuildingBlock: KIFKEQ_clean_linker_1, # of connection points: 2
#     Edge 35, Type (0, 0), BuildingBlock: KIFKEQ_clean_linker_1, # of connection points: 2
#     Edge 36, Type (0, 0), BuildingBlock: KIFKEQ_clean_linker_1, # of connection points: 2
#     Edge 37, Type (0, 0), BuildingBlock: KIFKEQ_clean_linker_1, # of connection points: 2
#     Edge 38, Type (0, 0), BuildingBlock: KIFKEQ_clean_linker_1, # of connection points: 2
#     Edge 39, Type (0, 0), BuildingBlock: KIFKEQ_clean_linker_1, # of connection points: 2
#     Edge 40, Type (0, 0), BuildingBlock: KIFKEQ_clean_linker_1, # of connection points: 2
#     Edge 41, Type (0, 0), BuildingBlock: KIFKEQ_clean_linker_1, # of connection points: 2
#     Edge 42, Type (0, 0), BuildingBlock: KIFKEQ_clean_linker_1, # of connection points: 2
#     Edge 43, Type (0, 0), BuildingBlock: KIFKEQ_clean_linker_1, # of connection points: 2
#     Edge 44, Type (0, 0), BuildingBlock: KIFKEQ_clean_linker_1, # of connection points: 2
#     Edge 45, Type (0, 0), BuildingBlock: KIFKEQ_clean_linker_1, # of connection points: 2
#     Edge 46, Type (0, 0), BuildingBlock: KIFKEQ_clean_linker_1, # of connection points: 2
#     Edge 47, Type (0, 0), BuildingBlock: KIFKEQ_clean_linker_1, # of connection points: 2
#     Edge 48, Type (0, 0), BuildingBlock: KIFKEQ_clean_linker_1, # of connection points: 2
#     Edge 49, Type (0, 0), BuildingBlock: KIFKEQ_clean_linker_1, # of connection points: 2
#     Edge 50, Type (0, 0), BuildingBlock: KIFKEQ_clean_linker_1, # of connection points: 2
#     Edge 51, Type (0, 0), BuildingBlock: KIFKEQ_clean_linker_1, # of connection points: 2
#     Edge 52, Type (0, 0), BuildingBlock: KIFKEQ_clean_linker_1, # of connection points: 2
#     Edge 53, Type (0, 0), BuildingBlock: KIFKEQ_clean_linker_1, # of connection points: 2
#     Edge 54, Type (0, 0), BuildingBlock: KIFKEQ_clean_linker_1, # of connection points: 2
#     Edge 55, Type (0, 0), BuildingBlock: KIFKEQ_clean_linker_1, # of connection points: 2
#     Edge 56, Type (0, 0), BuildingBlock: KIFKEQ_clean_linker_1, # of connection points: 2
#     Edge 57, Type (0, 0), BuildingBlock: KIFKEQ_clean_linker_1, # of connection points: 2
#     Edge 58, Type (0, 0), BuildingBlock: KIFKEQ_clean_linker_1, # of connection points: 2
#     Edge 59, Type (0, 0), BuildingBlock: KIFKEQ_clean_linker_1, # of connection points: 2
#     Edge 60, Type (0, 0), BuildingBlock: KIFKEQ_clean_linker_1, # of connection points: 2
#     Edge 61, Type (0, 0), BuildingBlock: KIFKEQ_clean_linker_1, # of connection points: 2
#     Edge 62, Type (0, 0), BuildingBlock: KIFKEQ_clean_linker_1, # of connection points: 2
#     Edge 63, Type (0, 0), BuildingBlock: KIFKEQ_clean_linker_1, # of connection points: 2
# Relax obj value: 0.153
# Max RMSD: 0.187
# Mean RMSD: 0.187
data_MOF--net-vbm--node1-MIDCAF_clean_sbu_0--edge1-KIFKEQ_clean_linker_1
_symmetry_space_group_name_H-M    P1
_symmetry_Int_Tables_number       1
_symmetry_cell_setting            triclinic
loop_
_symmetry_equiv_pos_as_xyz
'x, y, z'
_cell_length_a     59.409676
_cell_length_b     15.483819
_cell_length_c     60.907088
_cell_angle_alpha  90.123106
_cell_angle_beta   89.842532
_cell_angle_gamma 89.922227
loop_
_atom_site_label
_atom_site_type_symbol
_atom_site_fract_x
_atom_site_fract_y
_atom_site_fract_z
_atom_type_partial_charge
Zn0 Zn 0.17693 0.03177 0.09037 0.0
Zn1 Zn 0.11157 0.16629 0.13102 0.0
Zn2 Zn 0.14255 0.0925 0.10967 0.0
C3 C 0.09544 0.00366 0.12082 0.0
C4 C 0.14597 0.16094 0.16054 0.0
O5 O 0.17399 0.10719 0.13032 0.0
O6 O 0.20199 0.05856 0.10974 0.0
C7 C 0.15693 0.14261 0.06035 0.0
O8 O 0.11519 -0.00467 0.1123 0.0
O9 O 0.08966 0.07304 0.13008 0.0
O10 O 0.12607 0.18881 0.15935 0.0
O11 O 0.15516 0.12487 0.14356 0.0
O12 O 0.17373 0.09317 0.06215 0.0
O13 O 0.14398 0.15615 0.07705 0.0
O14 O 0.13398 0.95507 0.10207 0.0
O15 O 0.16723 0.91077 0.09022 0.0
C16 C 0.14706 0.89422 0.09511 0.0
O17 O 0.13214 0.21314 0.09168 0.0
O18 O 0.10519 0.26602 0.11279 0.0
C19 C 0.19521 0.09196 0.12744 0.0
C20 C 0.11752 0.27271 0.09603 0.0
Zn21 Zn 0.9023 0.75032 0.16452 0.0
Zn22 Zn 0.86683 0.89121 0.10334 0.0
Zn23 Zn 0.88897 0.82274 0.13336 0.0
C24 C 0.90211 0.00401 0.11344 0.0
C25 C 0.88551 0.74528 0.08442 0.0
O26 O 0.89548 0.68557 0.12463 0.0
O27 O 0.89049 0.63466 0.15799 0.0
C28 C 0.87283 0.84747 0.1845 0.0
O29 O 0.90833 0.94062 0.12569 0.0
O30 O 0.88385 -0.00022 0.10295 0.0
O31 O 0.8744 0.81168 0.07941 0.0
O32 O 0.89114 0.73183 0.10458 0.0
O33 O 0.89073 0.81069 0.19035 0.0
O34 O 0.86754 0.84955 0.16389 0.0
O35 O 0.92242 0.88114 0.13694 0.0
O36 O 0.93406 0.76974 0.15615 0.0
C37 C 0.93864 0.83559 0.14482 0.0
O38 O 0.85366 0.84616 0.14549 0.0
O39 O 0.83614 0.89057 0.11563 0.0
C40 C 0.89334 0.62087 0.13775 0.0
C41 C 0.83534 0.86823 0.13552 0.0
Zn42 Zn 0.17831 0.88953 0.38251 0.0
Zn43 Zn 0.12679 0.77502 0.31899 0.0
Zn44 Zn 0.15171 0.83372 0.35137 0.0
C45 C 0.09852 0.78876 0.35608 0.0
C46 C 0.14366 0.93255 0.30495 0.0
O47 O 0.18277 0.75227 0.35161 0.0
O48 O 0.20381 0.81066 0.37762 0.0
C49 C 0.13814 0.84213 0.4029 0.0
O50 O 0.11699 0.8137 0.36528 0.0
O51 O 0.0984 0.76879 0.33597 0.0
O52 O 0.1314 0.87155 0.29823 0.0
O53 O 0.15201 0.9309 0.32447 0.0
O54 O 0.15787 0.86657 0.40724 0.0
O55 O 0.13198 0.8298 0.38283 0.0
O56 O 0.16208 0.96764 0.34311 0.0
O57 O 0.18213 0.00927 0.37179 0.0
C58 C 0.17352 0.02588 0.35335 0.0
O59 O 0.16563 0.70768 0.3402 0.0
O60 O 0.14285 0.66501 0.31366 0.0
C61 C 0.20137 0.75605 0.36244 0.0
C62 C 0.15955 0.65067 0.3259 0.0
Zn63 Zn 0.86807 0.00076 0.40623 0.0
Zn64 Zn 0.92206 0.10627 0.35099 0.0
Zn65 Zn 0.89491 0.04879 0.38136 0.0
C66 C 0.94282 0.96017 0.36909 0.0
C67 C 0.882 0.06999 0.32932 0.0
O68 O 0.86011 0.05111 0.36629 0.0
O69 O 0.84114 0.06712 0.39714 0.0
C70 C 0.89444 0.10076 0.43158 0.0
O71 O 0.92414 0.95713 0.37992 0.0
O72 O 0.94612 0.01899 0.35513 0.0
O73 O 0.90171 0.09591 0.32529 0.0
O74 O 0.87603 0.05264 0.34927 0.0
O75 O 0.88339 0.03192 0.43369 0.0
O76 O 0.89771 0.13142 0.41211 0.0
O77 O 0.90521 0.91872 0.39029 0.0
O78 O 0.87056 0.87771 0.39777 0.0
C79 C 0.89092 0.85848 0.39429 0.0
O80 O 0.90596 0.17452 0.39312 0.0
O81 O 0.92622 0.22071 0.36491 0.0
C82 C 0.84157 0.06911 0.37647 0.0
C83 C 0.91768 0.23367 0.38364 0.0
Zn84 Zn 0.86353 0.85121 0.8968 0.0
Zn85 Zn 0.91972 0.70666 0.85738 0.0
Zn86 Zn 0.88915 0.77825 0.8775 0.0
C87 C 0.94059 0.75859 0.89519 0.0
C88 C 0.90624 0.84191 0.83032 0.0
O89 O 0.85701 0.70283 0.87637 0.0
O90 O 0.83746 0.82303 0.87809 0.0
C91 C 0.88615 0.76834 0.92864 0.0
O92 O 0.91995 0.78042 0.89926 0.0
O93 O 0.94529 0.72052 0.87743 0.0
O94 O 0.91941 0.77801 0.83075 0.0
O95 O 0.89403 0.85902 0.84734 0.0
O96 O 0.86604 0.78992 0.92498 0.0
O97 O 0.90059 0.77507 0.91284 0.0
O98 O 0.88237 0.90837 0.86334 0.0
O99 O 0.87281 0.97145 0.89454 0.0
C100 C 0.8772 0.97695 0.87431 0.0
O101 O 0.87542 0.65189 0.86749 0.0
O102 O 0.90603 0.59346 0.85305 0.0
C103 C 0.83814 0.74328 0.87414 0.0
C104 C 0.88547 0.58821 0.85805 0.0
Zn105 Zn 0.15249 0.0134 0.85806 0.0
Zn106 Zn 0.0881 0.13388 0.83543 0.0
Zn107 Zn 0.12334 0.12021 0.85849 0.0
C108 C 0.07319 0.06947 0.87659 0.0
C109 C 0.11937 0.0545 0.80888 0.0
O110 O 0.15719 0.16763 0.86686 0.0
O111 O 0.17414 0.08882 0.84185 0.0
C112 C 0.13464 0.03837 0.90144 0.0
O113 O 0.09482 0.06136 0.87943 0.0
O114 O 0.06599 0.09833 0.85852 0.0
O115 O 0.09814 0.05851 0.81019 0.0
O116 O 0.13129 0.08005 0.82504 0.0
O117 O 0.15323 0.02232 0.89199 0.0
O118 O 0.1174 0.05491 0.88943 0.0
O119 O 0.10951 -0.00809 0.86702 0.0
O120 O 0.13272 0.92352 0.84466 0.0
C121 C 0.11465 0.9246 0.85567 0.0
O122 O 0.11192 0.25156 0.86014 0.0
O123 O 0.08902 0.26181 0.83206 0.0
C124 C 0.17487 0.15064 0.85546 0.0
C125 C 0.09948 0.29731 0.84769 0.0
Zn126 Zn 0.84515 0.15656 0.61117 0.0
Zn127 Zn 0.89931 0.29095 0.66374 0.0
Zn128 Zn 0.87172 0.2154 0.63893 0.0
C129 C 0.92257 0.27705 0.62529 0.0
C130 C 0.8913 0.13249 0.68349 0.0
O131 O 0.83892 0.28769 0.64198 0.0
O132 O 0.81794 0.22145 0.61726 0.0
C133 C 0.87919 0.20555 0.58509 0.0
O134 O 0.90393 0.23875 0.62027 0.0
O135 O 0.92484 0.3114 0.64392 0.0
O136 O 0.90298 0.19988 0.68556 0.0
O137 O 0.87821 0.12351 0.66675 0.0
O138 O 0.8592 0.18025 0.58297 0.0
O139 O 0.88748 0.21697 0.60453 0.0
O140 O 0.86429 0.08262 0.65071 0.0
O141 O 0.84426 0.03748 0.62242 0.0
C142 C 0.85302 0.02284 0.6409 0.0
O143 O 0.85652 0.34056 0.65061 0.0
O144 O 0.88233 0.39225 0.6731 0.0
C145 C 0.81975 0.27605 0.63247 0.0
C146 C 0.86354 0.40018 0.66381 0.0
Zn147 Zn 0.15432 0.067 0.57324 0.0
Zn148 Zn 0.09511 0.96648 0.62891 0.0
Zn149 Zn 0.12401 0.01253 0.60127 0.0
C150 C 0.07416 0.09717 0.60812 0.0
C151 C 0.13193 -0.00131 0.6539 0.0
O152 O 0.15738 0.02202 0.61881 0.0
O153 O 0.18082 0.06464 0.5927 0.0
C154 C 0.13481 0.92216 0.55405 0.0
O155 O 0.09436 0.10301 0.60035 0.0
O156 O 0.0691 0.03734 0.62118 0.0
O157 O 0.11096 -0.00873 0.65629 0.0
O158 O 0.14063 0.00255 0.63446 0.0
O159 O 0.15014 0.97682 0.55053 0.0
O160 O 0.12386 0.9229 0.5724 0.0
O161 O 0.11324 0.1415 0.59018 0.0
O162 O 0.14062 0.18162 0.56774 0.0
C163 C 0.12232 0.19827 0.57746 0.0
O164 O 0.11329 0.8826 0.59053 0.0
O165 O 0.09434 0.84463 0.6202 0.0
C166 C 0.1774 0.04315 0.6124 0.0
C167 C 0.10277 0.82509 0.60183 0.0
Zn168 Zn 0.67526 0.42812 0.13132 0.0
Zn169 Zn 0.61385 0.54732 0.18732 0.0
Zn170 Zn 0.64434 0.48903 0.15849 0.0
C171 C 0.59111 0.51222 0.14786 0.0
C172 C 0.63338 0.4015 0.20618 0.0
O173 O 0.67243 0.58431 0.1568 0.0
O174 O 0.69672 0.52528 0.13354 0.0
C175 C 0.63528 0.44449 0.10704 0.0
O176 O 0.61118 0.49281 0.14135 0.0
O177 O 0.58762 0.53706 0.16733 0.0
O178 O 0.61853 0.45787 0.21014 0.0
O179 O 0.64409 0.40185 0.18771 0.0
O180 O 0.65553 0.42058 0.10521 0.0
O181 O 0.62775 0.47198 0.1257 0.0
O182 O 0.65615 0.361 0.17055 0.0
O183 O 0.68214 0.31893 0.14674 0.0
C184 C 0.67048 0.30418 0.16367 0.0
O185 O 0.65448 0.62115 0.16883 0.0
O186 O 0.62769 0.66254 0.19191 0.0
C187 C 0.69138 0.58596 0.14641 0.0
C188 C 0.64569 0.67865 0.18164 0.0
Zn189 Zn 0.41057 0.42976 0.18691 0.0
Zn190 Zn 0.35325 0.55923 0.13084 0.0
Zn191 Zn 0.38065 0.49121 0.15884 0.0
C192 C 0.35651 0.68065 0.16343 0.0
C193 C 0.39221 0.53042 0.10727 0.0
O194 O 0.36853 0.36184 0.16926 0.0
O195 O 0.39501 0.3191 0.19233 0.0
C196 C 0.39329 0.57955 0.2057 0.0
O197 O 0.36974 0.62153 0.171 0.0
O198 O 0.34642 0.669 0.14549 0.0
O199 O 0.3729 0.56277 0.10468 0.0
O200 O 0.39807 0.501 0.12624 0.0
O201 O 0.40773 0.52153 0.20934 0.0
O202 O 0.38198 0.57966 0.18766 0.0
O203 O 0.41423 0.48033 0.14207 0.0
O204 O 0.43729 0.42949 0.16747 0.0
C205 C 0.43403 0.45585 0.14816 0.0
O206 O 0.35106 0.40241 0.15712 0.0
O207 O 0.32991 0.46952 0.13272 0.0
C208 C 0.37683 0.30452 0.18231 0.0
C209 C 0.33268 0.40785 0.14596 0.0
Zn210 Zn 0.66493 0.19921 0.42575 0.0
Zn211 Zn 0.60098 0.0999 0.38067 0.0
Zn212 Zn 0.63215 0.16584 0.402 0.0
C213 C 0.58448 0.25298 0.39858 0.0
C214 C 0.63463 0.13413 0.35005 0.0
O215 O 0.66434 0.15308 0.38233 0.0
O216 O 0.68881 0.13764 0.4093 0.0
C217 C 0.63624 0.11331 0.45313 0.0
O218 O 0.60563 0.26654 0.40167 0.0
O219 O 0.57784 0.18115 0.39126 0.0
O220 O 0.61401 0.11503 0.35107 0.0
O221 O 0.64563 0.14961 0.36788 0.0
O222 O 0.65412 0.15671 0.45453 0.0
O223 O 0.62771 0.09778 0.43403 0.0
O224 O 0.62596 0.29813 0.41217 0.0
O225 O 0.66094 0.32727 0.42187 0.0
C226 C 0.64101 0.35245 0.41837 0.0
O227 O 0.62248 0.03935 0.41697 0.0
O228 O 0.5998 0.98255 0.39221 0.0
C229 C 0.68441 0.13502 0.38906 0.0
C230 C 0.61083 0.97498 0.40974 0.0
Zn231 Zn 0.43742 0.81597 0.38349 0.0
Zn232 Zn 0.37131 0.70654 0.42735 0.0
Zn233 Zn 0.40583 0.74561 0.40548 0.0
C234 C 0.40135 0.56202 0.42631 0.0
C235 C 0.39021 0.82507 0.45342 0.0
O236 O 0.41455 0.87488 0.42016 0.0
O237 O 0.44063 0.92731 0.39804 0.0
C238 C 0.40286 0.79128 0.35367 0.0
O239 O 0.4148 0.61539 0.4168 0.0
O240 O 0.38168 0.58551 0.43154 0.0
O241 O 0.37249 0.7805 0.45336 0.0
O242 O 0.40348 0.82374 0.43658 0.0
O243 O 0.423 0.8169 0.35436 0.0
O244 O 0.39318 0.76346 0.37128 0.0
O245 O 0.43417 0.65152 0.40619 0.0
O246 O 0.46065 0.73004 0.39025 0.0
C247 C 0.45477 0.66206 0.40006 0.0
O248 O 0.37487 0.73323 0.38383 0.0
O249 O 0.34637 0.7194 0.40702 0.0
C250 C 0.42804 0.9365 0.41456 0.0
C251 C 0.35355 0.72483 0.38761 0.0
Zn252 Zn 0.34872 0.44964 0.93589 0.0
Zn253 Zn 0.40743 0.34707 0.8805 0.0
Zn254 Zn 0.37591 0.40993 0.90616 0.0
C255 C 0.42973 0.38816 0.91819 0.0
C256 C 0.38797 0.49192 0.85952 0.0
O257 O 0.34582 0.32315 0.90444 0.0
O258 O 0.32202 0.38436 0.92768 0.0
C259 C 0.38536 0.41474 0.95918 0.0
O260 O 0.40928 0.40846 0.92331 0.0
O261 O 0.43423 0.35799 0.89945 0.0
O262 O 0.40236 0.43271 0.85692 0.0
O263 O 0.37666 0.49802 0.87754 0.0
O264 O 0.36447 0.41455 0.96277 0.0
O265 O 0.3928 0.42071 0.93929 0.0
O266 O 0.36455 0.53703 0.89538 0.0
O267 O 0.34908 0.57349 0.92707 0.0
C268 C 0.35528 0.59396 0.9079 0.0
O269 O 0.36477 0.27928 0.89575 0.0
O270 O 0.39397 0.23186 0.87662 0.0
C271 C 0.32591 0.32926 0.91291 0.0
C272 C 0.37468 0.21895 0.8847 0.0
Zn273 Zn 0.66016 0.45655 0.92606 0.0
Zn274 Zn 0.59884 0.59556 0.88017 0.0
Zn275 Zn 0.63164 0.52342 0.89995 0.0
C276 C 0.57956 0.55634 0.91844 0.0
C277 C 0.61258 0.45868 0.85341 0.0
O278 O 0.66231 0.60681 0.8993 0.0
O279 O 0.68462 0.53916 0.92261 0.0
C280 C 0.62504 0.47858 0.95304 0.0
O281 O 0.59976 0.52586 0.92025 0.0
O282 O 0.57402 0.5978 0.90152 0.0
O283 O 0.59708 0.51399 0.85535 0.0
O284 O 0.6272 0.44925 0.86885 0.0
O285 O 0.64503 0.45237 0.95463 0.0
O286 O 0.61738 0.50433 0.9343 0.0
O287 O 0.64027 0.39825 0.88426 0.0
O288 O 0.66358 0.34796 0.90942 0.0
C289 C 0.65333 0.33815 0.89146 0.0
O290 O 0.64388 0.65444 0.89028 0.0
O291 O 0.61383 0.705 0.87324 0.0
C292 C 0.68155 0.59882 0.9089 0.0
C293 C 0.63387 0.71505 0.87953 0.0
Zn294 Zn 0.34332 0.69731 0.63442 0.0
Zn295 Zn 0.41034 0.82788 0.67819 0.0
Zn296 Zn 0.37447 0.76538 0.65874 0.0
C297 C 0.42775 0.7607 0.64075 0.0
C298 C 0.39163 0.69748 0.70537 0.0
O299 O 0.34622 0.86161 0.65805 0.0
O300 O 0.32003 0.78388 0.64138 0.0
C301 C 0.37854 0.73245 0.6061 0.0
O302 O 0.40639 0.74598 0.63891 0.0
O303 O 0.43497 0.80344 0.65691 0.0
O304 O 0.40763 0.75096 0.70418 0.0
O305 O 0.37761 0.68993 0.68938 0.0
O306 O 0.35859 0.70465 0.60541 0.0
O307 O 0.38747 0.75228 0.62471 0.0
O308 O 0.36403 0.64226 0.67442 0.0
O309 O 0.34106 0.58616 0.6497 0.0
C310 C 0.35143 0.5799 0.66768 0.0
O311 O 0.36557 0.89885 0.66842 0.0
O312 O 0.39788 0.94552 0.68206 0.0
C313 C 0.32579 0.85186 0.65131 0.0
C314 C 0.3775 0.959 0.67728 0.0
Zn315 Zn 0.57597 0.31211 0.66358 0.0
Zn316 Zn 0.63352 0.43132 0.61674 0.0
Zn317 Zn 0.60998 0.36668 0.64496 0.0
C318 C 0.62815 0.55823 0.6475 0.0
C319 C 0.6031 0.3582 0.59103 0.0
O320 O 0.61975 0.2366 0.65562 0.0
O321 O 0.58524 0.19019 0.66192 0.0
C322 C 0.59776 0.4258 0.69279 0.0
O323 O 0.62037 0.49337 0.65833 0.0
O324 O 0.63246 0.55044 0.62728 0.0
O325 O 0.62121 0.39873 0.58805 0.0
O326 O 0.59525 0.34941 0.61076 0.0
O327 O 0.58247 0.36938 0.69199 0.0
O328 O 0.60918 0.44398 0.67541 0.0
O329 O 0.57843 0.39363 0.62523 0.0
O330 O 0.55016 0.35563 0.64671 0.0
C331 C 0.55708 0.39192 0.62949 0.0
O332 O 0.63955 0.28125 0.64637 0.0
O333 O 0.66052 0.3671 0.62592 0.0
C334 C 0.60612 0.17519 0.66066 0.0
C335 C 0.65881 0.30245 0.63836 0.0
H336 H 0.19675 0.2466 0.14888 0.0
H337 H 0.23342 0.00877 0.13929 0.0
H338 H 0.23158 0.3174 0.16066 0.0
H339 H 0.26801 0.07914 0.15149 0.0
H340 H 0.32154 0.30796 0.18212 0.0
H341 H 0.28692 0.2217 0.18699 0.0
H342 H 0.26583 0.29103 0.1217 0.0
H343 H 0.30022 0.37288 0.11639 0.0
C344 C 0.2119 0.20819 0.15057 0.0
C345 C 0.21251 0.12268 0.14294 0.0
C346 C 0.23182 0.24867 0.15729 0.0
C347 C 0.25237 0.20342 0.15692 0.0
C348 C 0.25233 0.11492 0.15214 0.0
C349 C 0.23254 0.07489 0.1451 0.0
C350 C 0.30974 0.30279 0.16867 0.0
C351 C 0.31373 0.34666 0.1488 0.0
C352 C 0.28987 0.25471 0.1716 0.0
C353 C 0.27365 0.25184 0.15486 0.0
C354 C 0.27794 0.29384 0.13496 0.0
C355 C 0.29772 0.34022 0.13192 0.0
H356 H 0.79726 0.9565 0.12552 0.0
H357 H 0.82247 0.75666 0.16825 0.0
H358 H 0.75881 0.91165 0.13333 0.0
H359 H 0.78375 0.71083 0.17587 0.0
H360 H 0.71153 0.6783 0.11462 0.0
H361 H 0.7443 0.77122 0.11816 0.0
H362 H 0.7424 0.74034 0.18861 0.0
H363 H 0.70886 0.6479 0.18492 0.0
C364 C 0.79455 0.90464 0.13714 0.0
C365 C 0.81289 0.85883 0.1459 0.0
C366 C 0.77251 0.87891 0.14158 0.0
C367 C 0.76828 0.8065 0.15479 0.0
C368 C 0.78649 0.7669 0.16561 0.0
C369 C 0.80868 0.79308 0.16124 0.0
C370 C 0.71768 0.69365 0.1309 0.0
C371 C 0.70773 0.65641 0.14948 0.0
C372 C 0.73642 0.74705 0.13299 0.0
C373 C 0.74599 0.76306 0.15369 0.0
C374 C 0.73539 0.729 0.17247 0.0
C375 C 0.71618 0.67678 0.17038 0.0
H376 H 0.33652 0.57331 0.37422 0.0
H377 H 0.33169 0.84779 0.3639 0.0
H378 H 0.29889 0.55393 0.35888 0.0
H379 H 0.29407 0.8289 0.34834 0.0
H380 H 0.22469 0.63476 0.38487 0.0
H381 H 0.26498 0.60869 0.38085 0.0
H382 H 0.26553 0.75953 0.32132 0.0
H383 H 0.22489 0.78314 0.32513 0.0
C384 C 0.32788 0.6289 0.36747 0.0
C385 C 0.33697 0.71196 0.37004 0.0
C386 C 0.30627 0.61789 0.35889 0.0
C387 C 0.2934 0.6899 0.35268 0.0
C388 C 0.30362 0.772 0.35282 0.0
C389 C 0.32522 0.78301 0.36162 0.0
C390 C 0.23318 0.65772 0.37024 0.0
C391 C 0.22172 0.7099 0.35518 0.0
C392 C 0.25631 0.64337 0.36795 0.0
C393 C 0.26849 0.68293 0.35086 0.0
C394 C 0.2566 0.72844 0.33465 0.0
C395 C 0.23331 0.74099 0.33669 0.0
H396 H 0.81713 0.21559 0.37889 0.0
H397 H 0.81712 0.9607 0.35042 0.0
H398 H 0.77697 0.22939 0.37169 0.0
H399 H 0.77653 0.97341 0.34342 0.0
H400 H 0.70445 0.24486 0.36013 0.0
H401 H 0.74338 0.23216 0.34687 0.0
H402 H 0.74674 0.97317 0.3728 0.0
H403 H 0.70819 0.98685 0.38616 0.0
C404 C 0.80866 0.16406 0.37014 0.0
C405 C 0.82021 0.08747 0.36503 0.0
C406 C 0.78559 0.17181 0.36601 0.0
C407 C 0.77341 0.10221 0.35713 0.0
C408 C 0.78539 0.02807 0.35036 0.0
C409 C 0.80865 0.02102 0.35415 0.0
C410 C 0.7132 0.18386 0.36196 0.0
C411 C 0.7033 0.11649 0.37396 0.0
C412 C 0.73557 0.17683 0.3546 0.0
C413 C 0.7483 0.1019 0.35894 0.0
C414 C 0.73746 0.03143 0.36894 0.0
C415 C 0.71531 0.03907 0.37658 0.0
H416 H 0.69275 0.64494 0.8669 0.0
H417 H 0.71692 0.64831 0.93364 0.0
H418 H 0.73138 0.66663 0.85356 0.0
H419 H 0.75518 0.67007 0.92048 0.0
H420 H 0.82208 0.60051 0.895 0.0
H421 H 0.78206 0.57118 0.90109 0.0
H422 H 0.76463 0.76713 0.85372 0.0
H423 H 0.80453 0.79553 0.84758 0.0
C424 C 0.70615 0.6539 0.87872 0.0
C425 C 0.70188 0.64466 0.9013 0.0
C426 C 0.7283 0.66476 0.87109 0.0
C427 C 0.74641 0.66636 0.88597 0.0
C428 C 0.74171 0.6656 0.90857 0.0
C429 C 0.71973 0.65507 0.91614 0.0
C430 C 0.80972 0.63396 0.8851 0.0
C431 C 0.81633 0.7002 0.87086 0.0
C432 C 0.7868 0.61864 0.88889 0.0
C433 C 0.77021 0.66892 0.87836 0.0
C434 C 0.77694 0.72785 0.86219 0.0
C435 C 0.7998 0.74355 0.85855 0.0
H436 H 0.28969 0.26969 0.93523 0.0
H437 H 0.31763 0.28919 0.87 0.0
H438 H 0.25345 0.22876 0.91996 0.0
H439 H 0.28101 0.25197 0.85444 0.0
H440 H 0.215 0.11726 0.83534 0.0
H441 H 0.25241 0.14965 0.84879 0.0
H442 H 0.22335 0.29835 0.90195 0.0
H443 H 0.18569 0.26205 0.88902 0.0
C444 C 0.28812 0.26359 0.91758 0.0
C445 C 0.30642 0.28257 0.90378 0.0
C446 C 0.26723 0.24173 0.90878 0.0
C447 C 0.264 0.23966 0.88592 0.0
C448 C 0.28279 0.253 0.87212 0.0
C449 C 0.30386 0.27373 0.881 0.0
C450 C 0.21652 0.1578 0.84978 0.0
C451 C 0.19726 0.18634 0.86124 0.0
C452 C 0.23809 0.17657 0.85747 0.0
C453 C 0.24104 0.22525 0.87672 0.0
C454 C 0.22177 0.2584 0.88742 0.0
C455 C 0.20012 0.23884 0.87983 0.0
H456 H 0.67976 0.32069 0.67755 0.0
H457 H 0.68681 0.20785 0.61318 0.0
H458 H 0.72089 0.32751 0.68098 0.0
H459 H 0.72766 0.21388 0.61656 0.0
H460 H 0.78934 0.36926 0.60994 0.0
H461 H 0.74888 0.36048 0.61622 0.0
H462 H 0.76059 0.24226 0.67924 0.0
H463 H 0.80138 0.25173 0.6729 0.0
C464 C 0.6901 0.29223 0.66475 0.0
C465 C 0.68015 0.26284 0.64517 0.0
C466 C 0.71363 0.29768 0.66654 0.0
C467 C 0.72739 0.27402 0.64872 0.0
C468 C 0.71741 0.23466 0.63034 0.0
C469 C 0.69403 0.22919 0.62859 0.0
C470 C 0.78332 0.34587 0.62565 0.0
C471 C 0.79847 0.31172 0.64097 0.0
C472 C 0.76015 0.33893 0.62905 0.0
C473 C 0.75164 0.29767 0.64786 0.0
C474 C 0.76672 0.27335 0.66449 0.0
C475 C 0.79006 0.28031 0.66104 0.0
H476 H 0.18857 0.91863 0.64256 0.0
H477 H 0.21139 0.15865 0.61458 0.0
H478 H 0.22598 0.89478 0.65813 0.0
H479 H 0.24832 0.1378 0.63093 0.0
H480 H 0.31535 0.98348 0.62419 0.0
H481 H 0.27821 0.04782 0.62069 0.0
H482 H 0.25746 0.92388 0.68098 0.0
H483 H 0.29477 0.85776 0.6839 0.0
C484 C 0.20133 0.9679 0.64051 0.0
C485 C 0.1972 0.03979 0.62712 0.0
C486 C 0.22285 0.95449 0.64944 0.0
C487 C 0.24053 0.01344 0.64539 0.0
C488 C 0.23548 0.0896 0.63386 0.0
C489 C 0.2142 0.10207 0.62466 0.0
C490 C 0.30321 0.97383 0.63727 0.0
C491 C 0.30807 0.9173 0.65454 0.0
C492 C 0.28173 0.0102 0.63524 0.0
C493 C 0.2645 -0.00964 0.65041 0.0
C494 C 0.27008 0.93958 0.66877 0.0
C495 C 0.29161 0.90307 0.67072 0.0
H496 H 0.11517 0.03744 0.28322 0.0
H497 H 0.18546 0.97393 0.28992 0.0
H498 H 0.12341 0.11863 0.24994 0.0
H499 H 0.19383 0.05353 0.25593 0.0
H500 H 0.1392 0.27417 0.19395 0.0
H501 H 0.14464 0.2442 0.23282 0.0
H502 H 0.1811 0.01177 0.21618 0.0
H503 H 0.1757 0.042 0.1771 0.0
C504 C 0.13252 0.04369 0.27792 0.0
C505 C 0.1497 0.00036 0.28912 0.0
C506 C 0.1373 0.09008 0.25886 0.0
C507 C 0.1593 0.09221 0.25025 0.0
C508 C 0.17675 0.05295 0.26219 0.0
C509 C 0.17201 0.00818 0.28168 0.0
C510 C 0.14916 0.21841 0.19855 0.0
C511 C 0.15662 0.15943 0.1825 0.0
C512 C 0.15221 0.20121 0.22083 0.0
C513 C 0.16282 0.12469 0.22754 0.0
C514 C 0.17283 0.07132 0.21149 0.0
C515 C 0.16978 0.08866 0.18908 0.0
H516 H 0.86456 0.91413 0.31833 0.0
H517 H 0.86858 0.17815 0.29674 0.0
H518 H 0.85352 0.86928 0.28168 0.0
H519 H 0.85551 0.13584 0.26041 0.0
H520 H 0.87798 0.01492 0.19469 0.0
H521 H 0.8718 0.07756 0.23059 0.0
H522 H 0.83438 0.85017 0.24996 0.0
H523 H 0.84233 0.78572 0.21411 0.0
C524 C 0.86187 0.96322 0.30595 0.0
C525 C 0.86748 0.04946 0.31033 0.0
C526 C 0.85551 0.93766 0.28473 0.0
C527 C 0.85413 -0.00176 0.26745 0.0
C528 C 0.85722 0.08621 0.27277 0.0
C529 C 0.8643 0.11114 0.29378 0.0
C530 C 0.86756 0.98015 0.20632 0.0
C531 C 0.86041 0.89602 0.20153 0.0
C532 C 0.864 0.01594 0.22718 0.0
C533 C 0.85293 0.96877 0.24384 0.0
C534 C 0.84363 0.88795 0.23806 0.0
C535 C 0.84768 0.85144 0.21727 0.0
H536 H 0.92876 0.08233 0.70425 0.0
H537 H 0.85675 0.0477 0.70473 0.0
H538 H 0.93146 0.01566 0.74 0.0
H539 H 0.85942 0.97715 0.74089 0.0
H540 H 0.87305 0.95688 0.81694 0.0
H541 H 0.86811 0.01663 0.77984 0.0
H542 H 0.92841 0.88412 0.75857 0.0
H543 H 0.93389 0.82922 0.79512 0.0
C544 C 0.91353 0.05752 0.71177 0.0
C545 C 0.89259 0.0695 0.70162 0.0
C546 C 0.91505 0.01938 0.73238 0.0
C547 C 0.89564 -0.00869 0.74352 0.0
C548 C 0.87466 -0.0008 0.7329 0.0
C549 C 0.87315 0.03782 0.71204 0.0
C550 C 0.88545 0.94232 0.8044 0.0
C551 C 0.90397 0.88884 0.80915 0.0
C552 C 0.88241 0.97517 0.78305 0.0
C553 C 0.89783 0.95502 0.76612 0.0
C554 C 0.91634 0.90227 0.77113 0.0
C555 C 0.91946 0.8705 0.79224 0.0
H556 H 0.15863 0.114 0.79075 0.0
H557 H 0.10335 0.93954 0.77904 0.0
H558 H 0.1716 0.09276 0.75277 0.0
H559 H 0.11647 0.9169 0.74153 0.0
H560 H 0.1471 0.1378 0.67662 0.0
H561 H 0.15176 0.13968 0.71654 0.0
H562 H 0.14858 0.8613 0.71749 0.0
H563 H 0.14401 0.85999 0.67763 0.0
C564 C 0.14968 0.06913 0.78028 0.0
C565 C 0.12991 0.02869 0.78778 0.0
C566 C 0.15704 0.05735 0.75855 0.0
C567 C 0.1451 0.00308 0.74416 0.0
C568 C 0.12623 0.9583 0.75224 0.0
C569 C 0.11861 0.97158 0.7737 0.0
C570 C 0.14885 0.07702 0.68524 0.0
C571 C 0.14545 -0.00126 0.67409 0.0
C572 C 0.15132 0.07797 0.70814 0.0
C573 C 0.15012 0.00062 0.72019 0.0
C574 C 0.14935 0.92192 0.70867 0.0
C575 C 0.14705 0.92106 0.68582 0.0
H576 H 0.66485 0.25722 0.33618 0.0
H577 H 0.62547 0.04066 0.31367 0.0
H578 H 0.66967 0.30474 0.29797 0.0
H579 H 0.63035 0.08751 0.27582 0.0
H580 H 0.67469 0.35278 0.22204 0.0
H581 H 0.68188 0.27002 0.2559 0.0
H582 H 0.61046 0.22731 0.26322 0.0
H583 H 0.6034 0.31121 0.23018 0.0
C584 C 0.65814 0.21764 0.32306 0.0
C585 C 0.64452 0.146 0.3279 0.0
C586 C 0.66084 0.24492 0.30118 0.0
C587 C 0.64999 0.20064 0.28397 0.0
C588 C 0.63862 0.12355 0.28875 0.0
C589 C 0.6359 0.09661 0.31045 0.0
C590 C 0.66067 0.32377 0.23071 0.0
C591 C 0.63848 0.33803 0.22357 0.0
C592 C 0.66476 0.27713 0.2501 0.0
C593 C 0.64674 0.24212 0.26218 0.0
C594 C 0.62473 0.25261 0.25419 0.0
C595 C 0.62065 0.30073 0.23528 0.0
H596 H 0.40862 0.90238 0.31993 0.0
H597 H 0.37325 0.66982 0.33804 0.0
H598 H 0.40019 0.87545 0.28141 0.0
H599 H 0.36484 0.64251 0.29929 0.0
H600 H 0.42384 0.67928 0.22618 0.0
H601 H 0.41915 0.75334 0.26118 0.0
H602 H 0.34843 0.68889 0.26136 0.0
H603 H 0.3532 0.61609 0.22565 0.0
C604 C 0.39839 0.8469 0.31572 0.0
C605 C 0.39184 0.78754 0.33194 0.0
C606 C 0.39359 0.83152 0.29365 0.0
C607 C 0.38223 0.75613 0.2873 0.0
C608 C 0.37355 0.7014 0.30371 0.0
C609 C 0.37833 0.71703 0.32592 0.0
C610 C 0.40714 0.68391 0.2333 0.0
C611 C 0.38888 0.64267 0.22328 0.0
C612 C 0.4044 0.72629 0.25334 0.0
C613 C 0.38341 0.72665 0.26408 0.0
C614 C 0.36478 0.68947 0.25345 0.0
C615 C 0.36746 0.64862 0.233 0.0
H616 H 0.35192 0.47726 0.83284 0.0
H617 H 0.41383 0.61724 0.84172 0.0
H618 H 0.35072 0.52191 0.79436 0.0
H619 H 0.41223 0.66618 0.80372 0.0
H620 H 0.42391 0.6349 0.73217 0.0
H621 H 0.41985 0.59437 0.77047 0.0
H622 H 0.34774 0.62663 0.76561 0.0
H623 H 0.35194 0.66364 0.72668 0.0
C624 C 0.36464 0.52135 0.82678 0.0
C625 C 0.38283 0.54484 0.84019 0.0
C626 C 0.36409 0.54636 0.80468 0.0
C627 C 0.38173 0.59559 0.79566 0.0
C628 C 0.39875 0.62573 0.80983 0.0
C629 C 0.39946 0.59952 0.83176 0.0
C630 C 0.40715 0.63124 0.73916 0.0
C631 C 0.38826 0.65255 0.7265 0.0
C632 C 0.4048 0.60961 0.76126 0.0
C633 C 0.38353 0.61036 0.77147 0.0
C634 C 0.36441 0.62602 0.75839 0.0
C635 C 0.36676 0.64653 0.73604 0.0
H636 H 0.64967 0.47325 0.82755 0.0
H637 H 0.58199 0.37376 0.82865 0.0
H638 H 0.64884 0.47619 0.78736 0.0
H639 H 0.58134 0.37282 0.78868 0.0
H640 H 0.5706 0.49282 0.72411 0.0
H641 H 0.57749 0.48905 0.76346 0.0
H642 H 0.64608 0.40846 0.75134 0.0
H643 H 0.63919 0.41588 0.7117 0.0
C644 C 0.6351 0.44735 0.81915 0.0
C645 C 0.61592 0.42275 0.83119 0.0
C646 C 0.63448 0.45026 0.7961 0.0
C647 C 0.6147 0.42796 0.78473 0.0
C648 C 0.59655 0.39383 0.79685 0.0
C649 C 0.59708 0.39211 0.81978 0.0
C650 C 0.58741 0.47798 0.72987 0.0
C651 C 0.6044 0.45559 0.71487 0.0
C652 C 0.59126 0.47362 0.75245 0.0
C653 C 0.6121 0.44498 0.76068 0.0
C654 C 0.62976 0.42999 0.74564 0.0
C655 C 0.62594 0.43546 0.72291 0.0
H656 H 0.10149 0.1146 0.92659 0.0
H657 H 0.16685 -0.00656 0.93096 0.0
H658 H 0.10457 0.16099 0.96499 0.0
H659 H 0.16972 0.03801 0.96906 0.0
H660 H 0.18393 0.19325 0.02684 0.0
H661 H 0.17584 0.17346 0.98798 0.0
H662 H 0.10673 0.11303 1.00378 0.0
H663 H 0.11479 0.13588 0.04278 0.0
C664 C 0.11628 0.09622 0.93584 0.0
C665 C 0.13402 0.05084 0.92562 0.0
C666 C 0.11809 0.12329 0.95781 0.0
C667 C 0.13769 0.10559 0.96994 0.0
C668 C 0.15472 0.05558 0.96003 0.0
C669 C 0.15294 0.02882 0.93821 0.0
C670 C 0.16678 0.17957 0.02192 0.0
C671 C 0.15004 0.16583 0.03783 0.0
C672 C 0.1622 0.16656 0.99969 0.0
C673 C 0.14084 0.1383 0.99282 0.0
C674 C 0.12341 0.134 1.0085 0.0
C675 C 0.12797 0.14805 0.03085 0.0
H676 H 0.85653 0.70772 0.95836 0.0
H677 H 0.92772 0.75245 0.9497 0.0
H678 H 0.86237 0.6698 0.99598 0.0
H679 H 0.93398 0.71015 0.98816 0.0
H680 H 0.8683 0.60581 0.06263 0.0
H681 H 0.8742 0.58039 0.02346 0.0
H682 H 0.92831 0.76684 0.02361 0.0
H683 H 0.9234 0.78592 0.0629 0.0
C684 C 0.87366 0.70819 0.96444 0.0
C685 C 0.89161 0.73498 0.95096 0.0
C686 C 0.8771 0.6846 0.9862 0.0
C687 C 0.89871 0.68602 0.99551 0.0
C688 C 0.91701 0.70884 0.98175 0.0
C689 C 0.9135 0.73281 0.95965 0.0
C690 C 0.88238 0.63678 0.05451 0.0
C691 C 0.89545 0.69741 0.06581 0.0
C692 C 0.88547 0.62415 0.03187 0.0
C693 C 0.90106 0.67472 0.01993 0.0
C694 C 0.91604 0.72688 0.03192 0.0
C695 C 0.91333 0.73749 0.05463 0.0
H696 H 0.10998 0.95176 0.42434 0.0
H697 H 0.13643 0.69276 0.42534 0.0
H698 H 0.10189 0.94267 0.46362 0.0
H699 H 0.12851 0.68321 0.46466 0.0
H700 H 0.16039 0.8162 0.52874 0.0
H701 H 0.15182 0.77043 0.49136 0.0
H702 H 0.08462 0.87401 0.498 0.0
H703 H 0.09322 0.91808 0.53579 0.0
C704 C 0.11273 0.89098 0.43271 0.0
C705 C 0.12357 0.82265 0.42181 0.0
C706 C 0.10826 0.8858 0.45528 0.0
C707 C 0.11492 0.81264 0.46735 0.0
C708 C 0.12337 0.74064 0.45586 0.0
C709 C 0.12762 0.74564 0.43328 0.0
C710 C 0.14346 0.82527 0.52257 0.0
C711 C 0.1274 0.86967 0.53518 0.0
C712 C 0.1385 0.79921 0.50112 0.0
C713 C 0.11754 0.81902 0.49163 0.0
C714 C 0.1009 0.85792 0.50484 0.0
C715 C 0.10575 0.8824 0.52651 0.0
H716 H 0.91881 0.13414 0.57026 0.0
H717 H 0.86609 0.31188 0.55285 0.0
H718 H 0.93212 0.13353 0.53231 0.0
H719 H 0.87777 0.30638 0.51481 0.0
H720 H 0.89278 0.27101 0.44577 0.0
H721 H 0.89851 0.32138 0.4833 0.0
H722 H 0.91907 0.0636 0.50192 0.0
H723 H 0.91494 0.01666 0.46436 0.0
C724 C 0.91074 0.17622 0.55854 0.0
C725 C 0.8917 0.2242 0.56461 0.0
C726 C 0.91793 0.17424 0.53654 0.0
C727 C 0.90574 0.21808 0.52003 0.0
C728 C 0.88788 0.27205 0.5267 0.0
C729 C 0.88103 0.27506 0.54865 0.0
C730 C 0.89969 0.22672 0.4576 0.0
C731 C 0.90347 0.14001 0.45199 0.0
C732 C 0.90253 0.25491 0.47939 0.0
C733 C 0.90876 0.19642 0.49612 0.0
C734 C 0.91444 0.11157 0.48986 0.0
C735 C 0.91189 0.0841 0.46816 0.0
H736 H 0.6341 0.31862 0.07651 0.0
H737 H 0.60615 0.56885 0.09171 0.0
H738 H 0.62084 0.33024 0.03908 0.0
H739 H 0.59256 0.58127 0.05372 0.0
H740 H 0.62153 0.6148 0.98058 0.0
H741 H 0.61392 0.60521 0.01987 0.0
H742 H 0.59249 0.3407 1.01143 0.0
H743 H 0.60087 0.35042 0.97217 0.0
C744 C 0.62435 0.37502 0.07197 0.0
C745 C 0.6213 0.44303 0.08696 0.0
C746 C 0.61659 0.38167 0.05044 0.0
C747 C 0.60575 0.45715 0.04316 0.0
C748 C 0.60104 0.52256 0.0587 0.0
C749 C 0.60862 0.51524 0.08049 0.0
C750 C 0.61411 0.55614 0.987 0.0
C751 C 0.61167 0.4835 0.97341 0.0
C752 C 0.60977 0.55039 1.00959 0.0
C753 C 0.60303 0.47151 0.01901 0.0
C754 C 0.59809 0.40194 1.00485 0.0
C755 C 0.60259 0.40765 0.98229 0.0
H756 H 0.38427 0.30234 0.99286 0.0
H757 H 0.41907 0.52794 0.96923 0.0
H758 H 0.3988 0.32761 0.02955 0.0
H759 H 0.43368 0.55447 1.0063 0.0
H760 H 0.41732 0.38907 0.09576 0.0
H761 H 0.42811 0.35067 0.05809 0.0
H762 H 0.40852 0.60527 0.03641 0.0
H763 H 0.3977 0.64263 0.07372 0.0
C764 C 0.39591 0.35526 0.99539 0.0
C765 C 0.40046 0.4135 0.97834 0.0
C766 C 0.40436 0.36969 0.01643 0.0
C767 C 0.41718 0.44383 0.02098 0.0
C768 C 0.42371 0.49712 1.00334 0.0
C769 C 0.4155 0.48171 0.9821 0.0
C770 C 0.41636 0.43789 0.08308 0.0
C771 C 0.40635 0.5183 0.08751 0.0
C772 C 0.4224 0.41581 0.06149 0.0
C773 C 0.41881 0.47436 0.04415 0.0
C774 C 0.41162 0.55858 0.04927 0.0
C775 C 0.40529 0.58002 0.07069 0.0
H776 H 0.59216 0.15441 0.45851 0.0
H777 H 0.65038 0.06333 0.49372 0.0
H778 H 0.57494 0.20059 0.49319 0.0
H779 H 0.63281 0.10627 0.52841 0.0
H780 H 0.59347 0.41682 0.55006 0.0
H781 H 0.5938 0.32934 0.5166 0.0
H782 H 0.59699 0.09772 0.55568 0.0
H783 H 0.59571 0.18557 0.58924 0.0
C784 C 0.60069 0.13941 0.47374 0.0
C785 C 0.62259 0.10467 0.4734 0.0
C786 C 0.59091 0.16684 0.49359 0.0
C787 C 0.60257 0.15754 0.51351 0.0
C788 C 0.62332 0.11367 0.51337 0.0
C789 C 0.63336 0.08854 0.4935 0.0
C790 C 0.5929 0.34712 0.5515 0.0
C791 C 0.59423 0.30805 0.57225 0.0
C792 C 0.59323 0.29689 0.53233 0.0
C793 C 0.59558 0.2066 0.53351 0.0
C794 C 0.59511 0.16708 0.55428 0.0
C795 C 0.59411 0.21737 0.57348 0.0
H796 H 0.40654 0.86776 0.59666 0.0
H797 H 0.3756 0.64206 0.56806 0.0
H798 H 0.41676 0.91889 0.55968 0.0
H799 H 0.38635 0.69184 0.53149 0.0
H800 H 0.36557 0.91599 0.48312 0.0
H801 H 0.37091 0.90602 0.5228 0.0
H802 H 0.43569 0.78703 0.51248 0.0
H803 H 0.43072 0.79957 0.47268 0.0
C804 C 0.40276 0.82747 0.58259 0.0
C805 C 0.39019 0.7511 0.58516 0.0
C806 C 0.40853 0.85694 0.56151 0.0
C807 C 0.40227 0.80909 0.54291 0.0
C808 C 0.39141 0.72946 0.54567 0.0
C809 C 0.38528 0.70101 0.56656 0.0
C810 C 0.38158 0.8931 0.48932 0.0
C811 C 0.39771 0.85853 0.47487 0.0
C812 C 0.38459 0.88694 0.51201 0.0
C813 C 0.40365 0.84541 0.52055 0.0
C814 C 0.42099 0.8202 0.50622 0.0
C815 C 0.41818 0.82803 0.48345 0.0
H816 H 0.97428 0.73693 0.15661 0.0
H817 H 0.95745 0.96766 0.12024 0.0
H818 H 0.01335 0.75294 0.1466 0.0
H819 H 0.99736 0.98562 0.11082 0.0
H820 H 0.08191 0.89534 0.15254 0.0
H821 H 0.04331 0.84615 0.15657 0.0
H822 H 0.02925 0.92513 0.08997 0.0
H823 H 0.06812 0.97554 0.08626 0.0
C824 C 0.97891 0.79195 0.14662 0.0
C825 C 0.96263 0.85172 0.13942 0.0
C826 C 1.00146 0.80087 0.14087 0.0
C827 C 0.00857 0.87042 0.12794 0.0
C828 C 0.99237 0.93038 0.12055 0.0
C829 C 0.96956 0.92096 0.12619 0.0
C830 C 0.07092 0.89734 0.13838 0.0
C831 C 0.07799 0.93763 0.119 0.0
C832 C 0.04865 0.87033 0.14073 0.0
C833 C 0.03301 0.88349 0.12372 0.0
C834 C 0.04076 0.91581 0.10351 0.0
C835 C 0.06313 0.94256 0.10118 0.0
H836 H 0.96615 0.94252 0.40731 0.0
H837 H 0.96348 0.85372 0.3403 0.0
H838 H 1.00434 0.88261 0.41086 0.0
H839 H 1.00113 0.79333 0.3437 0.0
H840 H 0.06563 0.66973 0.35196 0.0
H841 H 0.02598 0.68826 0.36101 0.0
H842 H 0.04138 0.92787 0.39407 0.0
H843 H 0.08143 0.90776 0.38538 0.0
C844 C 0.97336 0.90677 0.39369 0.0
C845 C 0.96179 0.90131 0.37363 0.0
C846 C 0.99531 0.87361 0.3956 0.0
C847 C 1.0059 0.83334 0.37756 0.0
C848 C 0.9935 0.82271 0.35806 0.0
C849 C 0.97184 0.85701 0.35607 0.0
C850 C 0.06067 0.72487 0.36184 0.0
C851 C 0.07658 0.78785 0.36774 0.0
C852 C 0.0379 0.7358 0.3669 0.0
C853 C 0.03037 0.81061 0.37776 0.0
C854 C 0.04658 0.86942 0.38567 0.0
C855 C 0.06956 0.85796 0.38074 0.0
H856 H 0.077 0.93127 0.90513 0.0
H857 H 0.03074 0.12638 0.88262 0.0
H858 H 0.0455 0.85215 0.9218 0.0
H859 H 0.99963 0.0491 0.89885 0.0
H860 H 0.9428 0.90679 0.91992 0.0
H861 H 0.97738 0.98754 0.92689 0.0
H862 H 0.01661 0.76851 0.90487 0.0
H863 H 0.98229 0.68781 0.89879 0.0
C864 C 0.06024 0.9583 0.90424 0.0
C865 C 0.05625 0.03356 0.89203 0.0
C866 C 0.04214 0.91302 0.91372 0.0
C867 C 0.01979 0.94311 0.91142 0.0
C868 C 0.01641 0.02347 0.90122 0.0
C869 C 0.03433 0.06775 0.89165 0.0
C870 C 0.95883 0.87449 0.91769 0.0
C871 C 0.9598 0.79171 0.90828 0.0
C872 C 0.97873 0.9212 0.92137 0.0
C873 C 0.99989 0.88598 0.91563 0.0
C874 C 1.00079 0.79857 0.90937 0.0
C875 C 0.98098 0.75201 0.90581 0.0
H876 H 0.93849 0.13621 0.60359 0.0
H877 H 0.9533 0.40299 0.61767 0.0
H878 H 0.97717 0.11418 0.59118 0.0
H879 H 0.99217 0.38099 0.60567 0.0
H880 H 0.04876 0.08724 0.57137 0.0
H881 H 0.01089 0.14855 0.56708 0.0
H882 H 0.01981 0.29323 0.62713 0.0
H883 H 0.05721 0.23068 0.63144 0.0
C884 C 0.94965 0.19135 0.60277 0.0
C885 C 0.9428 0.27153 0.61122 0.0
C886 C 0.97193 0.17867 0.59588 0.0
C887 C 0.98782 0.24572 0.59766 0.0
C888 C 0.98038 0.32796 0.60427 0.0
C889 C 0.95811 0.34067 0.61101 0.0
C890 C 0.04292 0.13532 0.58302 0.0
C891 C 0.05594 0.15579 0.6015 0.0
C892 C 0.0212 0.16963 0.58071 0.0
C893 C 0.01231 0.22552 0.59679 0.0
C894 C 0.02622 0.25141 0.61427 0.0
C895 C 0.04769 0.2159 0.61676 0.0
H896 H 0.45737 0.33223 0.1259 0.0
H897 H 0.45645 0.60399 0.14085 0.0
H898 H 0.49668 0.34303 0.11433 0.0
H899 H 0.49592 0.61499 0.13095 0.0
H900 H 0.56819 0.62767 0.12264 0.0
H901 H 0.5289 0.61348 0.11131 0.0
H902 H 0.52904 0.34931 0.13445 0.0
H903 H 0.56836 0.36324 0.14425 0.0
C904 C 0.46545 0.39493 0.12594 0.0
C905 C 0.45397 0.46742 0.13409 0.0
C906 C 0.48812 0.40112 0.11971 0.0
C907 C 0.5 0.47936 0.12229 0.0
C908 C 0.48766 0.55352 0.12849 0.0
C909 C 0.46488 0.54753 0.13421 0.0
C910 C 0.55998 0.56553 0.12418 0.0
C911 C 0.57123 0.49625 0.13409 0.0
C912 C 0.53732 0.55757 0.11808 0.0
C913 C 0.52528 0.4809 0.12244 0.0
C914 C 0.53741 0.40934 0.13053 0.0
C915 C 0.56011 0.41702 0.13621 0.0
H916 H 0.4958 0.698 0.41602 0.0
H917 H 0.45424 0.48634 0.39433 0.0
H918 H 0.52795 0.60115 0.4193 0.0
H919 H 0.48655 0.38847 0.3974 0.0
H920 H 0.54476 0.22237 0.4183 0.0
H921 H 0.51293 0.32041 0.42231 0.0
H922 H 0.55259 0.52588 0.39387 0.0
H923 H 0.58462 0.42694 0.39009 0.0
C924 C 0.49353 0.63013 0.41226 0.0
C925 C 0.47257 0.59911 0.4051 0.0
C926 C 0.51197 0.57491 0.41398 0.0
C927 C 0.50991 0.48737 0.4084 0.0
C928 C 0.48865 0.45553 0.40203 0.0
C929 C 0.47012 0.51115 0.40033 0.0
C930 C 0.54675 0.28898 0.41323 0.0
C931 C 0.56711 0.31752 0.40397 0.0
C932 C 0.52847 0.34485 0.41537 0.0
C933 C 0.53009 0.43057 0.40817 0.0
C934 C 0.55084 0.46027 0.39975 0.0
C935 C 0.56921 0.40402 0.39763 0.0
H936 H 0.45891 0.28215 0.93974 0.0
H937 H 0.44388 0.54916 0.92687 0.0
H938 H 0.49618 0.32205 0.95293 0.0
H939 H 0.48146 0.58963 0.93765 0.0
H940 H 0.55072 0.65899 0.94162 0.0
H941 H 0.51354 0.61648 0.95449 0.0
H942 H 0.52914 0.35079 0.93768 0.0
H943 H 0.56677 0.39352 0.92743 0.0
C944 C 0.46351 0.3498 0.94028 0.0
C945 C 0.44869 0.41274 0.93234 0.0
C946 C 0.48509 0.37295 0.94742 0.0
C947 C 0.49269 0.45908 0.94563 0.0
C948 C 0.47679 0.52263 0.93954 0.0
C949 C 0.45501 0.49965 0.9332 0.0
C950 C 0.54639 0.59104 0.94185 0.0
C951 C 0.56143 0.52948 0.93343 0.0
C952 C 0.52483 0.56644 0.94873 0.0
C953 C 0.51742 0.48041 0.94611 0.0
C954 C 0.53362 0.41778 0.94001 0.0
C955 C 0.55547 0.4421 0.93405 0.0
H956 H 0.42684 0.59181 0.62932 0.0
H957 H 0.46671 0.82213 0.62251 0.0
H958 H 0.45863 0.50443 0.61844 0.0
H959 H 0.49823 0.73658 0.60909 0.0
H960 H 0.5586 0.5648 0.62542 0.0
H961 H 0.52656 0.65853 0.62054 0.0
H962 H 0.4862 0.43759 0.6016 0.0
H963 H 0.51812 0.3438 0.6091 0.0
C964 C 0.44222 0.62407 0.62437 0.0
C965 C 0.44434 0.71366 0.62697 0.0
C966 C 0.46075 0.57367 0.61801 0.0
C967 C 0.48187 0.61173 0.61335 0.0
C968 C 0.48295 0.70299 0.61351 0.0
C969 C 0.46464 0.75295 0.62076 0.0
C970 C 0.54304 0.53694 0.61946 0.0
C971 C 0.54088 0.44712 0.6176 0.0
C972 C 0.52432 0.591 0.61666 0.0
C973 C 0.50294 0.55692 0.61129 0.0
C974 C 0.50174 0.46737 0.60679 0.0
C975 C 0.52028 0.41306 0.6105 0.0
H976 H 0.17261 0.7524 0.10021 0.0
H977 H 0.10511 0.83182 0.08364 0.0
H978 H 0.16312 0.60379 0.09278 0.0
H979 H 0.0955 0.68097 0.0753 0.0
H980 H 0.084 0.39214 0.09617 0.0
H981 H 0.08914 0.54619 0.09197 0.0
H982 H 0.15572 0.50119 0.06545 0.0
H983 H 0.15101 0.34625 0.07106 0.0
C984 C 0.15565 0.73784 0.09484 0.0
C985 C 0.13957 0.80377 0.09256 0.0
C986 C 0.15029 0.65239 0.09018 0.0
C987 C 0.12869 0.62986 0.0828 0.0
C988 C 0.11235 0.69576 0.08087 0.0
C989 C 0.11773 0.78206 0.08581 0.0
C990 C 0.09954 0.41484 0.08884 0.0
C991 C 0.11743 0.35719 0.08468 0.0
C992 C 0.10245 0.50369 0.08634 0.0
C993 C 0.1232 0.53678 0.07925 0.0
C994 C 0.13982 0.47807 0.07188 0.0
C995 C 0.13702 0.38894 0.0747 0.0
H996 H 0.9233 0.08278 0.14778 0.0
H997 H 0.90567 0.11612 0.07963 0.0
H998 H 0.92677 0.23938 0.15176 0.0
H999 H 0.90859 0.27194 0.08365 0.0
H1000 H 0.91507 0.56169 0.10058 0.0
H1001 H 0.92662 0.41195 0.09309 0.0
H1002 H 0.89242 0.32936 0.1521 0.0
H1003 H 0.88104 0.47658 0.15948 0.0
C1004 C 0.92124 0.12321 0.13342 0.0
C1005 C 0.91369 0.08795 0.11357 0.0
C1006 C 0.92292 0.21287 0.13573 0.0
C1007 C 0.91711 0.26785 0.11819 0.0
C1008 C 0.91295 0.23153 0.0975 0.0
C1009 C 0.91127 0.14216 0.09522 0.0
C1010 C 0.90979 0.51107 0.1117 0.0
C1011 C 0.8972 0.53085 0.13064 0.0
C1012 C 0.91664 0.42575 0.10759 0.0
C1013 C 0.91109 0.3594 0.12243 0.0
C1014 C 0.89777 0.37932 0.14082 0.0
C1015 C 0.89091 0.46369 0.14484 0.0
H1016 H 0.14497 0.11395 0.32621 0.0
H1017 H 0.20799 0.13713 0.36081 0.0
H1018 H 0.14725 0.26541 0.31574 0.0
H1019 H 0.21048 0.28852 0.35022 0.0
H1020 H 0.18327 0.57055 0.35851 0.0
H1021 H 0.19087 0.41669 0.36141 0.0
H1022 H 0.16587 0.37816 0.29555 0.0
H1023 H 0.15785 0.53208 0.29284 0.0
C1024 C 0.15966 0.15068 0.33097 0.0
C1025 C 0.17628 0.1137 0.3443 0.0
C1026 C 0.16101 0.23771 0.32501 0.0
C1027 C 0.17901 0.28952 0.33228 0.0
C1028 C 0.19621 0.251 0.34466 0.0
C1029 C 0.1948 0.1642 0.35067 0.0
C1030 C 0.18009 0.52984 0.34438 0.0
C1031 C 0.16971 0.5634 0.32555 0.0
C1032 C 0.18441 0.44128 0.34604 0.0
C1033 C 0.17856 0.38465 0.32884 0.0
C1034 C 0.17005 0.41961 0.30929 0.0
C1035 C 0.16562 0.50796 0.30768 0.0
H1036 H 0.94973 0.35564 0.37618 0.0
H1037 H 0.88709 0.31041 0.4103 0.0
H1038 H 0.94582 0.51017 0.38279 0.0
H1039 H 0.88422 0.46331 0.41878 0.0
H1040 H 0.93296 0.79152 0.40205 0.0
H1041 H 0.94286 0.63848 0.40581 0.0
H1042 H 0.87367 0.5694 0.39258 0.0
H1043 H 0.86391 0.72021 0.38936 0.0
C1044 C 0.93566 0.37843 0.38597 0.0
C1045 C 0.91874 0.32119 0.39288 0.0
C1046 C 0.93352 0.46683 0.38991 0.0
C1047 C 0.91448 0.49896 0.40093 0.0
C1048 C 0.89886 0.44048 0.40984 0.0
C1049 C 0.90075 0.35253 0.40547 0.0
C1050 C 0.92001 0.74319 0.39985 0.0
C1051 C 0.89771 0.76741 0.39538 0.0
C1052 C 0.92561 0.65589 0.40216 0.0
C1053 C 0.90895 0.59199 0.39997 0.0
C1054 C 0.88677 0.61691 0.39516 0.0
C1055 C 0.88121 0.70346 0.39302 0.0
H1056 H 0.83923 0.0691 0.87759 0.0
H1057 H 0.90491 0.06967 0.84728 0.0
H1058 H 0.83348 0.21891 0.86689 0.0
H1059 H 0.89979 0.22144 0.83733 0.0
H1060 H 0.88954 0.49081 0.82156 0.0
H1061 H 0.88136 0.3371 0.81857 0.0
H1062 H 0.84954 0.3453 0.88253 0.0
H1063 H 0.85708 0.49968 0.88497 0.0
C1064 C 0.85228 0.10146 0.86826 0.0
C1065 C 0.87267 0.0594 0.86353 0.0
C1066 C 0.84903 0.18713 0.86223 0.0
C1067 C 0.86632 0.23282 0.85173 0.0
C1068 C 0.88603 0.18809 0.84533 0.0
C1069 C 0.88911 0.10146 0.85108 0.0
C1070 C 0.88002 0.45997 0.83457 0.0
C1071 C 0.87416 0.50601 0.85364 0.0
C1072 C 0.87553 0.37198 0.83294 0.0
C1073 C 0.86538 0.32841 0.85052 0.0
C1074 C 0.85735 0.37677 0.8686 0.0
C1075 C 0.86161 0.46532 0.87008 0.0
H1076 H 0.06928 0.4055 0.82833 0.0
H1077 H 0.12269 0.40036 0.87638 0.0
H1078 H 0.06527 0.56054 0.83356 0.0
H1079 H 0.11905 0.55622 0.88117 0.0
H1080 H 0.10542 0.83259 0.89246 0.0
H1081 H 0.0959 0.67871 0.89342 0.0
H1082 H 0.0891 0.6793 0.82275 0.0
H1083 H 0.09803 0.83248 0.82209 0.0
C1084 C 0.08017 0.43744 0.84004 0.0
C1085 C 0.09658 0.39086 0.85169 0.0
C1086 C 0.0778 0.52629 0.84307 0.0
C1087 C 0.09187 0.57078 0.8577 0.0
C1088 C 0.1077 0.5237 0.87 0.0
C1089 C 0.11 0.43454 0.86706 0.0
C1090 C 0.10062 0.80047 0.87737 0.0
C1091 C 0.10202 0.84387 0.85724 0.0
C1092 C 0.09563 0.71221 0.87783 0.0
C1093 C 0.09204 0.66658 0.85814 0.0
C1094 C 0.09155 0.71242 0.83824 0.0
C1095 C 0.09663 0.80018 0.83781 0.0
H1096 H 0.88115 0.93065 0.66807 0.0
H1097 H 0.8171 0.91888 0.6349 0.0
H1098 H 0.8775 0.77806 0.67784 0.0
H1099 H 0.81318 0.76784 0.64493 0.0
H1100 H 0.83777 0.48324 0.63327 0.0
H1101 H 0.83115 0.63858 0.632 0.0
H1102 H 0.85799 0.66484 0.69755 0.0
H1103 H 0.86499 0.50987 0.69857 0.0
C1104 C 0.86604 0.89616 0.66343 0.0
C1105 C 0.84961 0.9362 0.65048 0.0
C1106 C 0.86387 0.80872 0.66901 0.0
C1107 C 0.84514 0.76021 0.66186 0.0
C1108 C 0.82803 0.80249 0.65026 0.0
C1109 C 0.83028 0.88921 0.64458 0.0
C1110 C 0.8414 0.5217 0.64771 0.0
C1111 C 0.85217 0.48471 0.66586 0.0
C1112 C 0.83774 0.61102 0.64699 0.0
C1113 C 0.8446 0.66461 0.66451 0.0
C1114 C 0.85311 0.62588 0.68357 0.0
C1115 C 0.85685 0.53692 0.68423 0.0
H1116 H 0.09044 0.27339 0.60358 0.0
H1117 H 0.13423 0.32491 0.54851 0.0
H1118 H 0.07964 0.4238 0.60487 0.0
H1119 H 0.12545 0.47796 0.55137 0.0
H1120 H 0.10229 0.75616 0.56001 0.0
H1121 H 0.10148 0.60255 0.55012 0.0
H1122 H 0.10087 0.53688 0.61914 0.0
H1123 H 0.10111 0.68783 0.62863 0.0
C1124 C 0.09717 0.31601 0.59125 0.0
C1125 C 0.11298 0.28654 0.57586 0.0
C1126 C 0.09143 0.40313 0.59232 0.0
C1127 C 0.10218 0.46356 0.57864 0.0
C1128 C 0.1168 0.4334 0.56215 0.0
C1129 C 0.12202 0.34559 0.56068 0.0
C1130 C 0.10205 0.70848 0.57289 0.0
C1131 C 0.10192 0.73386 0.595 0.0
C1132 C 0.10143 0.62064 0.5673 0.0
C1133 C 0.10079 0.55713 0.58382 0.0
C1134 C 0.10059 0.58345 0.6059 0.0
C1135 C 0.10097 0.67041 0.61139 0.0
H1136 H 0.6415 0.79083 0.21586 0.0
H1137 H 0.67033 0.76666 0.151 0.0
H1138 H 0.65165 0.94351 0.2166 0.0
H1139 H 0.68085 0.9186 0.15186 0.0
H1140 H 0.70487 0.18806 0.16076 0.0
H1141 H 0.70335 0.03419 0.16917 0.0
H1142 H 0.63655 0.0677 0.19608 0.0
H1143 H 0.63795 0.22083 0.18739 0.0
C1144 C 0.65047 0.81768 0.20195 0.0
C1145 C 0.65532 0.76645 0.18343 0.0
C1146 C 0.65623 0.90513 0.20238 0.0
C1147 C 0.66697 0.9433 0.18428 0.0
C1148 C 0.6729 0.89093 0.16623 0.0
C1149 C 0.667 0.80352 0.16576 0.0
C1150 C 0.69007 0.16291 0.16896 0.0
C1151 C 0.67154 0.21684 0.17347 0.0
C1152 C 0.68918 0.07471 0.17368 0.0
C1153 C 0.66975 0.03855 0.18306 0.0
C1154 C 0.65188 0.09361 0.18905 0.0
C1155 C 0.65272 0.18179 0.18421 0.0
H1156 H 0.38783 0.76602 0.1882 0.0
H1157 H 0.32107 0.7909 0.16109 0.0
H1158 H 0.38769 0.91939 0.19736 0.0
H1159 H 0.32096 0.94439 0.17007 0.0
H1160 H 0.35203 0.21554 0.15198 0.0
H1161 H 0.3426 0.06233 0.15286 0.0
H1162 H 0.37107 0.042 0.21783 0.0
H1163 H 0.3803 0.19542 0.217 0.0
C1164 C 0.37278 0.80335 0.18504 0.0
C1165 C 0.3545 0.76644 0.17392 0.0
C1166 C 0.37271 0.89152 0.19015 0.0
C1167 C 0.35441 0.9443 0.18412 0.0
C1168 C 0.33545 0.90576 0.17456 0.0
C1169 C 0.33549 0.8178 0.16953 0.0
C1170 C 0.35551 0.17912 0.16674 0.0
C1171 C 0.36685 0.21753 0.18441 0.0
C1172 C 0.35019 0.09117 0.16726 0.0
C1173 C 0.35631 0.03984 0.18537 0.0
C1174 C 0.36643 0.07955 0.20355 0.0
C1175 C 0.37162 0.16744 0.20308 0.0
H1176 H 0.58036 0.84587 0.40579 0.0
H1177 H 0.64364 0.90949 0.43658 0.0
H1178 H 0.58662 0.69417 0.41328 0.0
H1179 H 0.64972 0.75652 0.44471 0.0
H1180 H 0.66884 0.49018 0.41422 0.0
H1181 H 0.65975 0.64202 0.41945 0.0
H1182 H 0.59161 0.57302 0.43728 0.0
H1183 H 0.60091 0.42041 0.43193 0.0
C1184 C 0.59532 0.82754 0.41482 0.0
C1185 C 0.61177 0.88919 0.42017 0.0
C1186 C 0.59884 0.74039 0.41925 0.0
C1187 C 0.61891 0.71295 0.42917 0.0
C1188 C 0.63431 0.77563 0.43658 0.0
C1189 C 0.63074 0.86326 0.43215 0.0
C1190 C 0.65195 0.50753 0.41936 0.0
C1191 C 0.63534 0.44403 0.422 0.0
C1192 C 0.6468 0.59449 0.42264 0.0
C1193 C 0.62494 0.61985 0.42882 0.0
C1194 C 0.60852 0.55577 0.43224 0.0
C1195 C 0.61372 0.46861 0.42891 0.0
H1196 H 0.39534 0.00646 0.44141 0.0
H1197 H 0.45982 0.06184 0.41169 0.0
H1198 H 0.39114 0.15871 0.45092 0.0
H1199 H 0.45507 0.21369 0.4199 0.0
H1200 H 0.37335 0.42624 0.42355 0.0
H1201 H 0.38184 0.27462 0.42784 0.0
H1202 H 0.45117 0.33789 0.44225 0.0
H1203 H 0.44237 0.49179 0.43759 0.0
C1204 C 0.40887 0.05046 0.43742 0.0
C1205 C 0.42768 0.02218 0.42542 0.0
C1206 C 0.40636 0.13814 0.44259 0.0
C1207 C 0.42245 0.1992 0.43557 0.0
C1208 C 0.44229 0.16916 0.42557 0.0
C1209 C 0.4449 0.08172 0.42066 0.0
C1210 C 0.39039 0.40796 0.42782 0.0
C1211 C 0.40736 0.47055 0.42975 0.0
C1212 C 0.39524 0.32073 0.43057 0.0
C1213 C 0.41718 0.29336 0.43557 0.0
C1214 C 0.43412 0.35643 0.43817 0.0
C1215 C 0.42921 0.44439 0.43529 0.0
H1216 H 0.34635 0.73107 0.93415 0.0
H1217 H 0.3581 0.66305 0.86626 0.0
H1218 H 0.3452 0.88174 0.92456 0.0
H1219 H 0.35616 0.81578 0.8563 0.0
H1220 H 0.3891 0.08879 0.85811 0.0
H1221 H 0.37931 0.9376 0.86037 0.0
H1222 H 0.32748 -0.00136 0.90795 0.0
H1223 H 0.33861 0.14952 0.90696 0.0
C1224 C 0.34828 0.7482 0.91702 0.0
C1225 C 0.35272 0.68493 0.901 0.0
C1226 C 0.34734 0.83514 0.91144 0.0
C1227 C 0.35053 0.86158 0.88961 0.0
C1228 C 0.35396 0.79794 0.87334 0.0
C1229 C 0.35514 0.71039 0.87901 0.0
C1230 C 0.37538 0.07034 0.86887 0.0
C1231 C 0.3649 0.13143 0.88266 0.0
C1232 C 0.36956 0.98328 0.86995 0.0
C1233 C 0.35288 0.95523 0.88467 0.0
C1234 C 0.34085 0.01761 0.89685 0.0
C1235 C 0.34699 0.10467 0.89606 0.0
H1236 H 0.68963 0.23238 0.89158 0.0
H1237 H 0.62133 0.25007 0.86804 0.0
H1238 H 0.69014 0.0783 0.88359 0.0
H1239 H 0.62155 0.09506 0.86048 0.0
H1240 H 0.62657 0.81809 0.8445 0.0
H1241 H 0.63553 0.97075 0.84115 0.0
H1242 H 0.67268 0.95834 0.90198 0.0
H1243 H 0.6641 0.80437 0.90495 0.0
C1244 C 0.67487 0.20349 0.88418 0.0
C1245 C 0.65532 0.25293 0.88066 0.0
C1246 C 0.67511 0.115 0.8798 0.0
C1247 C 0.65576 0.07367 0.87189 0.0
C1248 C 0.63683 0.12467 0.86652 0.0
C1249 C 0.63666 0.2137 0.87078 0.0
C1250 C 0.63716 0.84757 0.85688 0.0
C1251 C 0.6444 0.79974 0.87517 0.0
C1252 C 0.64213 0.93526 0.85503 0.0
C1253 C 0.65437 0.97753 0.87151 0.0
C1254 C 0.66326 0.92792 0.8889 0.0
C1255 C 0.65839 0.83957 0.89066 0.0
H1256 H 0.34605 0.04847 0.65368 0.0
H1257 H 0.38859 0.06556 0.71081 0.0
H1258 H 0.3361 0.20044 0.65791 0.0
H1259 H 0.37826 0.21668 0.71555 0.0
H1260 H 0.38553 0.49977 0.68968 0.0
H1261 H 0.38805 0.34543 0.69695 0.0
H1262 H 0.31851 0.31455 0.67768 0.0
H1263 H 0.3164 0.46838 0.66967 0.0
C1264 C 0.35264 0.08404 0.66755 0.0
C1265 C 0.36817 0.0456 0.68179 0.0
C1266 C 0.34697 0.17128 0.67006 0.0
C1267 C 0.35658 0.22141 0.68699 0.0
C1268 C 0.37093 0.18079 0.70207 0.0
C1269 C 0.37676 0.09409 0.69941 0.0
C1270 C 0.37059 0.46045 0.68778 0.0
C1271 C 0.3509 0.49558 0.67884 0.0
C1272 C 0.37199 0.3717 0.69188 0.0
C1273 C 0.3536 0.31693 0.68736 0.0
C1274 C 0.33318 0.35425 0.6807 0.0
C1275 C 0.33189 0.44253 0.67636 0.0
H1276 H 0.60928 0.62554 0.68529 0.0
H1277 H 0.65555 0.68403 0.63255 0.0
H1278 H 0.60965 0.77767 0.69631 0.0
H1279 H 0.65514 0.83455 0.64269 0.0
H1280 H 0.64939 0.1092 0.65913 0.0
H1281 H 0.66055 0.95849 0.66458 0.0
H1282 H 0.59122 0.8919 0.67818 0.0
H1283 H 0.58042 0.04025 0.6736 0.0
C1284 C 0.61987 0.67034 0.67638 0.0
C1285 C 0.63176 0.64364 0.65764 0.0
C1286 C 0.62003 0.75753 0.68257 0.0
C1287 C 0.63195 0.81895 0.67 0.0
C1288 C 0.64576 0.78977 0.6528 0.0
C1289 C 0.6457 0.70319 0.64675 0.0
C1290 C 0.63668 0.06233 0.66358 0.0
C1291 C 0.61396 0.0865 0.66539 0.0
C1292 C 0.64304 0.97605 0.66677 0.0
C1293 C 0.62677 0.91265 0.67172 0.0
C1294 C 0.60434 0.93849 0.67477 0.0
C1295 C 0.59806 0.02401 0.67171 0.0
loop_
_geom_bond_atom_site_label_1
_geom_bond_atom_site_label_2
_geom_bond_distance
_geom_bond_site_symmetry_2
_ccdc_geom_bond_type
Zn0 O6 1.920 1_565 S
Zn0 O12 1.898 . S
Zn0 O15 1.905 . S
Zn1 O9 1.905 . S
Zn1 O10 1.898 . S
Zn1 O18 1.920 . S
Zn2 O5 2.080 . S
Zn2 O8 2.114 . S
Zn2 O11 2.120 . S
Zn2 O13 2.120 . S
Zn2 O14 2.114 1_545 S
Zn2 O17 2.080 . S
C3 O8 1.166 . S
C3 O9 1.182 . S
C4 O10 1.167 . S
C4 O11 1.299 . S
O5 Zn2 2.080 . S
O5 C19 1.305 . S
O6 Zn0 1.920 1_545 S
O6 C19 1.234 . S
C7 O12 1.167 1_545 S
C7 O13 1.299 . S
O8 Zn2 2.114 . S
O8 C3 1.166 . S
O9 Zn1 1.905 . S
O9 C3 1.182 . S
O10 Zn1 1.898 . S
O10 C4 1.167 . S
O11 Zn2 2.120 . S
O11 C4 1.299 . S
O12 Zn0 1.898 . S
O12 C7 1.167 1_565 S
O13 Zn2 2.120 . S
O13 C7 1.299 . S
O14 Zn2 2.114 1_565 S
O14 C16 1.166 . S
O15 Zn0 1.905 . S
O15 C16 1.182 . S
C16 O14 1.166 . S
C16 O15 1.182 . S
O17 Zn2 2.080 . S
O17 C20 1.305 . S
O18 Zn1 1.920 . S
O18 C20 1.234 . S
C19 O5 1.305 . S
C19 O6 1.234 . S
C20 O17 1.305 . S
C20 O18 1.234 . S
Zn21 O27 1.920 . S
Zn21 O33 1.898 . S
Zn21 O36 1.905 . S
Zn22 O30 1.905 . S
Zn22 O31 1.898 . S
Zn22 O39 1.920 1_545 S
Zn23 O26 2.080 . S
Zn23 O29 2.114 1_565 S
Zn23 O32 2.120 . S
Zn23 O34 2.120 . S
Zn23 O35 2.114 . S
Zn23 O38 2.080 . S
C24 O29 1.166 . S
C24 O30 1.182 . S
C25 O31 1.167 1_565 S
C25 O32 1.299 . S
O26 Zn23 2.080 . S
O26 C40 1.305 . S
O27 Zn21 1.920 . S
O27 C40 1.234 . S
C28 O33 1.167 . S
C28 O34 1.299 . S
O29 Zn23 2.114 1_545 S
O29 C24 1.166 . S
O30 Zn22 1.905 . S
O30 C24 1.182 . S
O31 Zn22 1.898 . S
O31 C25 1.167 1_545 S
O32 Zn23 2.120 . S
O32 C25 1.299 . S
O33 Zn21 1.898 . S
O33 C28 1.167 . S
O34 Zn23 2.120 . S
O34 C28 1.299 . S
O35 Zn23 2.114 . S
O35 C37 1.166 . S
O36 Zn21 1.905 . S
O36 C37 1.182 . S
C37 O35 1.166 . S
C37 O36 1.182 . S
O38 Zn23 2.080 . S
O38 C41 1.305 . S
O39 Zn22 1.920 1_565 S
O39 C41 1.234 . S
C40 O26 1.305 . S
C40 O27 1.234 . S
C41 O38 1.305 . S
C41 O39 1.234 . S
Zn42 O48 1.920 1_545 S
Zn42 O54 1.898 . S
Zn42 O57 1.905 . S
Zn43 O51 1.905 . S
Zn43 O52 1.898 . S
Zn43 O60 1.920 . S
Zn44 O47 2.080 . S
Zn44 O50 2.114 . S
Zn44 O53 2.120 . S
Zn44 O55 2.120 . S
Zn44 O56 2.114 1_565 S
Zn44 O59 2.080 . S
C45 O50 1.166 . S
C45 O51 1.182 . S
C46 O52 1.167 . S
C46 O53 1.299 . S
O47 Zn44 2.080 . S
O47 C61 1.305 . S
O48 Zn42 1.920 1_565 S
O48 C61 1.234 . S
C49 O54 1.167 1_565 S
C49 O55 1.299 . S
O50 Zn44 2.114 . S
O50 C45 1.166 . S
O51 Zn43 1.905 . S
O51 C45 1.182 . S
O52 Zn43 1.898 . S
O52 C46 1.167 . S
O53 Zn44 2.120 . S
O53 C46 1.299 . S
O54 Zn42 1.898 . S
O54 C49 1.167 1_545 S
O55 Zn44 2.120 . S
O55 C49 1.299 . S
O56 Zn44 2.114 1_545 S
O56 C58 1.166 . S
O57 Zn42 1.905 . S
O57 C58 1.182 . S
C58 O56 1.166 . S
C58 O57 1.182 . S
O59 Zn44 2.080 . S
O59 C62 1.305 . S
O60 Zn43 1.920 . S
O60 C62 1.234 . S
C61 O47 1.305 . S
C61 O48 1.234 . S
C62 O59 1.305 . S
C62 O60 1.234 . S
Zn63 O69 1.920 1_565 S
Zn63 O75 1.898 . S
Zn63 O78 1.905 . S
Zn64 O72 1.905 . S
Zn64 O73 1.898 . S
Zn64 O81 1.920 . S
Zn65 O68 2.080 . S
Zn65 O71 2.114 . S
Zn65 O74 2.120 . S
Zn65 O76 2.120 . S
Zn65 O77 2.114 1_545 S
Zn65 O80 2.080 . S
C66 O71 1.166 . S
C66 O72 1.182 . S
C67 O73 1.167 . S
C67 O74 1.299 . S
O68 Zn65 2.080 . S
O68 C82 1.305 . S
O69 Zn63 1.920 1_545 S
O69 C82 1.234 . S
C70 O75 1.167 1_545 S
C70 O76 1.299 . S
O71 Zn65 2.114 . S
O71 C66 1.166 . S
O72 Zn64 1.905 . S
O72 C66 1.182 . S
O73 Zn64 1.898 . S
O73 C67 1.167 . S
O74 Zn65 2.120 . S
O74 C67 1.299 . S
O75 Zn63 1.898 . S
O75 C70 1.167 1_565 S
O76 Zn65 2.120 . S
O76 C70 1.299 . S
O77 Zn65 2.114 1_565 S
O77 C79 1.166 . S
O78 Zn63 1.905 . S
O78 C79 1.182 . S
C79 O77 1.166 . S
C79 O78 1.182 . S
O80 Zn65 2.080 . S
O80 C83 1.305 . S
O81 Zn64 1.920 . S
O81 C83 1.234 . S
C82 O68 1.305 . S
C82 O69 1.234 . S
C83 O80 1.305 . S
C83 O81 1.234 . S
Zn84 O90 1.920 1_545 S
Zn84 O96 1.898 . S
Zn84 O99 1.905 . S
Zn85 O93 1.905 . S
Zn85 O94 1.898 . S
Zn85 O102 1.920 . S
Zn86 O89 2.080 . S
Zn86 O92 2.114 . S
Zn86 O95 2.120 . S
Zn86 O97 2.120 . S
Zn86 O98 2.114 1_565 S
Zn86 O101 2.080 . S
C87 O92 1.166 . S
C87 O93 1.182 . S
C88 O94 1.167 . S
C88 O95 1.299 . S
O89 Zn86 2.080 . S
O89 C103 1.305 . S
O90 Zn84 1.920 1_565 S
O90 C103 1.234 . S
C91 O96 1.167 1_565 S
C91 O97 1.299 . S
O92 Zn86 2.114 . S
O92 C87 1.166 . S
O93 Zn85 1.905 . S
O93 C87 1.182 . S
O94 Zn85 1.898 . S
O94 C88 1.167 . S
O95 Zn86 2.120 . S
O95 C88 1.299 . S
O96 Zn84 1.898 . S
O96 C91 1.167 1_545 S
O97 Zn86 2.120 . S
O97 C91 1.299 . S
O98 Zn86 2.114 1_545 S
O98 C100 1.166 . S
O99 Zn84 1.905 . S
O99 C100 1.182 . S
C100 O98 1.166 . S
C100 O99 1.182 . S
O101 Zn86 2.080 . S
O101 C104 1.305 . S
O102 Zn85 1.920 . S
O102 C104 1.234 . S
C103 O89 1.305 . S
C103 O90 1.234 . S
C104 O101 1.305 . S
C104 O102 1.234 . S
Zn105 O111 1.920 1_565 S
Zn105 O117 1.898 . S
Zn105 O120 1.905 . S
Zn106 O114 1.905 . S
Zn106 O115 1.898 . S
Zn106 O123 1.920 . S
Zn107 O110 2.080 . S
Zn107 O113 2.114 . S
Zn107 O116 2.120 . S
Zn107 O118 2.120 . S
Zn107 O119 2.114 1_545 S
Zn107 O122 2.080 . S
C108 O113 1.166 . S
C108 O114 1.182 . S
C109 O115 1.167 . S
C109 O116 1.299 . S
O110 Zn107 2.080 . S
O110 C124 1.305 . S
O111 Zn105 1.920 1_545 S
O111 C124 1.234 . S
C112 O117 1.167 1_545 S
C112 O118 1.299 . S
O113 Zn107 2.114 . S
O113 C108 1.166 . S
O114 Zn106 1.905 . S
O114 C108 1.182 . S
O115 Zn106 1.898 . S
O115 C109 1.167 . S
O116 Zn107 2.120 . S
O116 C109 1.299 . S
O117 Zn105 1.898 . S
O117 C112 1.167 1_565 S
O118 Zn107 2.120 . S
O118 C112 1.299 . S
O119 Zn107 2.114 1_565 S
O119 C121 1.166 . S
O120 Zn105 1.905 . S
O120 C121 1.182 . S
C121 O119 1.166 . S
C121 O120 1.182 . S
O122 Zn107 2.080 . S
O122 C125 1.305 . S
O123 Zn106 1.920 . S
O123 C125 1.234 . S
C124 O110 1.305 . S
C124 O111 1.234 . S
C125 O122 1.305 . S
C125 O123 1.234 . S
Zn126 O132 1.920 1_565 S
Zn126 O138 1.898 . S
Zn126 O141 1.905 . S
Zn127 O135 1.905 . S
Zn127 O136 1.898 . S
Zn127 O144 1.920 . S
Zn128 O131 2.080 . S
Zn128 O134 2.114 . S
Zn128 O137 2.120 . S
Zn128 O139 2.120 . S
Zn128 O140 2.114 1_545 S
Zn128 O143 2.080 . S
C129 O134 1.166 . S
C129 O135 1.182 . S
C130 O136 1.167 . S
C130 O137 1.299 . S
O131 Zn128 2.080 . S
O131 C145 1.305 . S
O132 Zn126 1.920 1_545 S
O132 C145 1.234 . S
C133 O138 1.167 1_545 S
C133 O139 1.299 . S
O134 Zn128 2.114 . S
O134 C129 1.166 . S
O135 Zn127 1.905 . S
O135 C129 1.182 . S
O136 Zn127 1.898 . S
O136 C130 1.167 . S
O137 Zn128 2.120 . S
O137 C130 1.299 . S
O138 Zn126 1.898 . S
O138 C133 1.167 1_565 S
O139 Zn128 2.120 . S
O139 C133 1.299 . S
O140 Zn128 2.114 1_565 S
O140 C142 1.166 . S
O141 Zn126 1.905 . S
O141 C142 1.182 . S
C142 O140 1.166 . S
C142 O141 1.182 . S
O143 Zn128 2.080 . S
O143 C146 1.305 . S
O144 Zn127 1.920 . S
O144 C146 1.234 . S
C145 O131 1.305 . S
C145 O132 1.234 . S
C146 O143 1.305 . S
C146 O144 1.234 . S
Zn147 O153 1.920 1_545 S
Zn147 O159 1.898 . S
Zn147 O162 1.905 . S
Zn148 O156 1.905 . S
Zn148 O157 1.898 . S
Zn148 O165 1.920 . S
Zn149 O152 2.080 . S
Zn149 O155 2.114 . S
Zn149 O158 2.120 . S
Zn149 O160 2.120 . S
Zn149 O161 2.114 1_565 S
Zn149 O164 2.080 . S
C150 O155 1.166 . S
C150 O156 1.182 . S
C151 O157 1.167 . S
C151 O158 1.299 . S
O152 Zn149 2.080 . S
O152 C166 1.305 . S
O153 Zn147 1.920 1_565 S
O153 C166 1.234 . S
C154 O159 1.167 1_565 S
C154 O160 1.299 . S
O155 Zn149 2.114 . S
O155 C150 1.166 . S
O156 Zn148 1.905 . S
O156 C150 1.182 . S
O157 Zn148 1.898 . S
O157 C151 1.167 . S
O158 Zn149 2.120 . S
O158 C151 1.299 . S
O159 Zn147 1.898 . S
O159 C154 1.167 1_545 S
O160 Zn149 2.120 . S
O160 C154 1.299 . S
O161 Zn149 2.114 1_545 S
O161 C163 1.166 . S
O162 Zn147 1.905 . S
O162 C163 1.182 . S
C163 O161 1.166 . S
C163 O162 1.182 . S
O164 Zn149 2.080 . S
O164 C167 1.305 . S
O165 Zn148 1.920 . S
O165 C167 1.234 . S
C166 O152 1.305 . S
C166 O153 1.234 . S
C167 O164 1.305 . S
C167 O165 1.234 . S
Zn168 O174 1.920 . S
Zn168 O180 1.898 . S
Zn168 O183 1.905 . S
Zn169 O177 1.905 . S
Zn169 O178 1.898 . S
Zn169 O186 1.920 . S
Zn170 O173 2.080 . S
Zn170 O176 2.114 . S
Zn170 O179 2.120 . S
Zn170 O181 2.120 . S
Zn170 O182 2.114 . S
Zn170 O185 2.080 . S
C171 O176 1.166 . S
C171 O177 1.182 . S
C172 O178 1.167 . S
C172 O179 1.299 . S
O173 Zn170 2.080 . S
O173 C187 1.305 . S
O174 Zn168 1.920 . S
O174 C187 1.234 . S
C175 O180 1.167 . S
C175 O181 1.299 . S
O176 Zn170 2.114 . S
O176 C171 1.166 . S
O177 Zn169 1.905 . S
O177 C171 1.182 . S
O178 Zn169 1.898 . S
O178 C172 1.167 . S
O179 Zn170 2.120 . S
O179 C172 1.299 . S
O180 Zn168 1.898 . S
O180 C175 1.167 . S
O181 Zn170 2.120 . S
O181 C175 1.299 . S
O182 Zn170 2.114 . S
O182 C184 1.166 . S
O183 Zn168 1.905 . S
O183 C184 1.182 . S
C184 O182 1.166 . S
C184 O183 1.182 . S
O185 Zn170 2.080 . S
O185 C188 1.305 . S
O186 Zn169 1.920 . S
O186 C188 1.234 . S
C187 O173 1.305 . S
C187 O174 1.234 . S
C188 O185 1.305 . S
C188 O186 1.234 . S
Zn189 O195 1.920 . S
Zn189 O201 1.898 . S
Zn189 O204 1.905 . S
Zn190 O198 1.905 . S
Zn190 O199 1.898 . S
Zn190 O207 1.920 . S
Zn191 O194 2.080 . S
Zn191 O197 2.114 . S
Zn191 O200 2.120 . S
Zn191 O202 2.120 . S
Zn191 O203 2.114 . S
Zn191 O206 2.080 . S
C192 O197 1.166 . S
C192 O198 1.182 . S
C193 O199 1.167 . S
C193 O200 1.299 . S
O194 Zn191 2.080 . S
O194 C208 1.305 . S
O195 Zn189 1.920 . S
O195 C208 1.234 . S
C196 O201 1.167 . S
C196 O202 1.299 . S
O197 Zn191 2.114 . S
O197 C192 1.166 . S
O198 Zn190 1.905 . S
O198 C192 1.182 . S
O199 Zn190 1.898 . S
O199 C193 1.167 . S
O200 Zn191 2.120 . S
O200 C193 1.299 . S
O201 Zn189 1.898 . S
O201 C196 1.167 . S
O202 Zn191 2.120 . S
O202 C196 1.299 . S
O203 Zn191 2.114 . S
O203 C205 1.166 . S
O204 Zn189 1.905 . S
O204 C205 1.182 . S
C205 O203 1.166 . S
C205 O204 1.182 . S
O206 Zn191 2.080 . S
O206 C209 1.305 . S
O207 Zn190 1.920 . S
O207 C209 1.234 . S
C208 O194 1.305 . S
C208 O195 1.234 . S
C209 O206 1.305 . S
C209 O207 1.234 . S
Zn210 O216 1.920 . S
Zn210 O222 1.898 . S
Zn210 O225 1.905 . S
Zn211 O219 1.905 . S
Zn211 O220 1.898 . S
Zn211 O228 1.920 . S
Zn212 O215 2.080 . S
Zn212 O218 2.114 . S
Zn212 O221 2.120 . S
Zn212 O223 2.120 . S
Zn212 O224 2.114 . S
Zn212 O227 2.080 . S
C213 O218 1.166 . S
C213 O219 1.182 . S
C214 O220 1.167 . S
C214 O221 1.299 . S
O215 Zn212 2.080 . S
O215 C229 1.305 . S
O216 Zn210 1.920 . S
O216 C229 1.234 . S
C217 O222 1.167 . S
C217 O223 1.299 . S
O218 Zn212 2.114 . S
O218 C213 1.166 . S
O219 Zn211 1.905 . S
O219 C213 1.182 . S
O220 Zn211 1.898 . S
O220 C214 1.167 . S
O221 Zn212 2.120 . S
O221 C214 1.299 . S
O222 Zn210 1.898 . S
O222 C217 1.167 . S
O223 Zn212 2.120 . S
O223 C217 1.299 . S
O224 Zn212 2.114 . S
O224 C226 1.166 . S
O225 Zn210 1.905 . S
O225 C226 1.182 . S
C226 O224 1.166 . S
C226 O225 1.182 . S
O227 Zn212 2.080 . S
O227 C230 1.305 . S
O228 Zn211 1.920 . S
O228 C230 1.234 . S
C229 O215 1.305 . S
C229 O216 1.234 . S
C230 O227 1.305 . S
C230 O228 1.234 . S
Zn231 O237 1.920 . S
Zn231 O243 1.898 . S
Zn231 O246 1.905 . S
Zn232 O240 1.905 . S
Zn232 O241 1.898 . S
Zn232 O249 1.920 . S
Zn233 O236 2.080 . S
Zn233 O239 2.114 . S
Zn233 O242 2.120 . S
Zn233 O244 2.120 . S
Zn233 O245 2.114 . S
Zn233 O248 2.080 . S
C234 O239 1.166 . S
C234 O240 1.182 . S
C235 O241 1.167 . S
C235 O242 1.299 . S
O236 Zn233 2.080 . S
O236 C250 1.305 . S
O237 Zn231 1.920 . S
O237 C250 1.234 . S
C238 O243 1.167 . S
C238 O244 1.299 . S
O239 Zn233 2.114 . S
O239 C234 1.166 . S
O240 Zn232 1.905 . S
O240 C234 1.182 . S
O241 Zn232 1.898 . S
O241 C235 1.167 . S
O242 Zn233 2.120 . S
O242 C235 1.299 . S
O243 Zn231 1.898 . S
O243 C238 1.167 . S
O244 Zn233 2.120 . S
O244 C238 1.299 . S
O245 Zn233 2.114 . S
O245 C247 1.166 . S
O246 Zn231 1.905 . S
O246 C247 1.182 . S
C247 O245 1.166 . S
C247 O246 1.182 . S
O248 Zn233 2.080 . S
O248 C251 1.305 . S
O249 Zn232 1.920 . S
O249 C251 1.234 . S
C250 O236 1.305 . S
C250 O237 1.234 . S
C251 O248 1.305 . S
C251 O249 1.234 . S
Zn252 O258 1.920 . S
Zn252 O264 1.898 . S
Zn252 O267 1.905 . S
Zn253 O261 1.905 . S
Zn253 O262 1.898 . S
Zn253 O270 1.920 . S
Zn254 O257 2.080 . S
Zn254 O260 2.114 . S
Zn254 O263 2.120 . S
Zn254 O265 2.120 . S
Zn254 O266 2.114 . S
Zn254 O269 2.080 . S
C255 O260 1.166 . S
C255 O261 1.182 . S
C256 O262 1.167 . S
C256 O263 1.299 . S
O257 Zn254 2.080 . S
O257 C271 1.305 . S
O258 Zn252 1.920 . S
O258 C271 1.234 . S
C259 O264 1.167 . S
C259 O265 1.299 . S
O260 Zn254 2.114 . S
O260 C255 1.166 . S
O261 Zn253 1.905 . S
O261 C255 1.182 . S
O262 Zn253 1.898 . S
O262 C256 1.167 . S
O263 Zn254 2.120 . S
O263 C256 1.299 . S
O264 Zn252 1.898 . S
O264 C259 1.167 . S
O265 Zn254 2.120 . S
O265 C259 1.299 . S
O266 Zn254 2.114 . S
O266 C268 1.166 . S
O267 Zn252 1.905 . S
O267 C268 1.182 . S
C268 O266 1.166 . S
C268 O267 1.182 . S
O269 Zn254 2.080 . S
O269 C272 1.305 . S
O270 Zn253 1.920 . S
O270 C272 1.234 . S
C271 O257 1.305 . S
C271 O258 1.234 . S
C272 O269 1.305 . S
C272 O270 1.234 . S
Zn273 O279 1.920 . S
Zn273 O285 1.898 . S
Zn273 O288 1.905 . S
Zn274 O282 1.905 . S
Zn274 O283 1.898 . S
Zn274 O291 1.920 . S
Zn275 O278 2.080 . S
Zn275 O281 2.114 . S
Zn275 O284 2.120 . S
Zn275 O286 2.120 . S
Zn275 O287 2.114 . S
Zn275 O290 2.080 . S
C276 O281 1.166 . S
C276 O282 1.182 . S
C277 O283 1.167 . S
C277 O284 1.299 . S
O278 Zn275 2.080 . S
O278 C292 1.305 . S
O279 Zn273 1.920 . S
O279 C292 1.234 . S
C280 O285 1.167 . S
C280 O286 1.299 . S
O281 Zn275 2.114 . S
O281 C276 1.166 . S
O282 Zn274 1.905 . S
O282 C276 1.182 . S
O283 Zn274 1.898 . S
O283 C277 1.167 . S
O284 Zn275 2.120 . S
O284 C277 1.299 . S
O285 Zn273 1.898 . S
O285 C280 1.167 . S
O286 Zn275 2.120 . S
O286 C280 1.299 . S
O287 Zn275 2.114 . S
O287 C289 1.166 . S
O288 Zn273 1.905 . S
O288 C289 1.182 . S
C289 O287 1.166 . S
C289 O288 1.182 . S
O290 Zn275 2.080 . S
O290 C293 1.305 . S
O291 Zn274 1.920 . S
O291 C293 1.234 . S
C292 O278 1.305 . S
C292 O279 1.234 . S
C293 O290 1.305 . S
C293 O291 1.234 . S
Zn294 O300 1.920 . S
Zn294 O306 1.898 . S
Zn294 O309 1.905 . S
Zn295 O303 1.905 . S
Zn295 O304 1.898 . S
Zn295 O312 1.920 . S
Zn296 O299 2.080 . S
Zn296 O302 2.114 . S
Zn296 O305 2.120 . S
Zn296 O307 2.120 . S
Zn296 O308 2.114 . S
Zn296 O311 2.080 . S
C297 O302 1.166 . S
C297 O303 1.182 . S
C298 O304 1.167 . S
C298 O305 1.299 . S
O299 Zn296 2.080 . S
O299 C313 1.305 . S
O300 Zn294 1.920 . S
O300 C313 1.234 . S
C301 O306 1.167 . S
C301 O307 1.299 . S
O302 Zn296 2.114 . S
O302 C297 1.166 . S
O303 Zn295 1.905 . S
O303 C297 1.182 . S
O304 Zn295 1.898 . S
O304 C298 1.167 . S
O305 Zn296 2.120 . S
O305 C298 1.299 . S
O306 Zn294 1.898 . S
O306 C301 1.167 . S
O307 Zn296 2.120 . S
O307 C301 1.299 . S
O308 Zn296 2.114 . S
O308 C310 1.166 . S
O309 Zn294 1.905 . S
O309 C310 1.182 . S
C310 O308 1.166 . S
C310 O309 1.182 . S
O311 Zn296 2.080 . S
O311 C314 1.305 . S
O312 Zn295 1.920 . S
O312 C314 1.234 . S
C313 O299 1.305 . S
C313 O300 1.234 . S
C314 O311 1.305 . S
C314 O312 1.234 . S
Zn315 O321 1.920 . S
Zn315 O327 1.898 . S
Zn315 O330 1.905 . S
Zn316 O324 1.905 . S
Zn316 O325 1.898 . S
Zn316 O333 1.920 . S
Zn317 O320 2.080 . S
Zn317 O323 2.114 . S
Zn317 O326 2.120 . S
Zn317 O328 2.120 . S
Zn317 O329 2.114 . S
Zn317 O332 2.080 . S
C318 O323 1.166 . S
C318 O324 1.182 . S
C319 O325 1.167 . S
C319 O326 1.299 . S
O320 Zn317 2.080 . S
O320 C334 1.305 . S
O321 Zn315 1.920 . S
O321 C334 1.234 . S
C322 O327 1.167 . S
C322 O328 1.299 . S
O323 Zn317 2.114 . S
O323 C318 1.166 . S
O324 Zn316 1.905 . S
O324 C318 1.182 . S
O325 Zn316 1.898 . S
O325 C319 1.167 . S
O326 Zn317 2.120 . S
O326 C319 1.299 . S
O327 Zn315 1.898 . S
O327 C322 1.167 . S
O328 Zn317 2.120 . S
O328 C322 1.299 . S
O329 Zn317 2.114 . S
O329 C331 1.166 . S
O330 Zn315 1.905 . S
O330 C331 1.182 . S
C331 O329 1.166 . S
C331 O330 1.182 . S
O332 Zn317 2.080 . S
O332 C335 1.305 . S
O333 Zn316 1.920 . S
O333 C335 1.234 . S
C334 O320 1.305 . S
C334 O321 1.234 . S
C335 O332 1.305 . S
C335 O333 1.234 . S
H336 C344 0.950 . S
H337 C349 0.950 . S
H338 C346 0.950 . S
H339 C348 0.950 . S
H340 C350 0.950 . S
H341 C352 0.950 . S
H342 C354 0.950 . S
H343 C355 0.950 . S
C344 H336 0.950 . S
C344 C345 1.386 . S
C344 C346 1.391 . S
C345 C344 1.386 . S
C345 C349 1.393 . S
C346 H338 0.950 . S
C346 C344 1.391 . S
C346 C347 1.400 . S
C347 C346 1.400 . S
C347 C348 1.398 . S
C347 C353 1.491 . S
C348 H339 0.950 . S
C348 C347 1.398 . S
C348 C349 1.391 . S
C349 H337 0.950 . S
C349 C345 1.393 . S
C349 C348 1.391 . S
C350 H340 0.950 . S
C350 C351 1.386 . S
C350 C352 1.391 . S
C351 C350 1.386 . S
C351 C355 1.393 . S
C352 H341 0.950 . S
C352 C350 1.391 . S
C352 C353 1.400 . S
C353 C347 1.491 . S
C353 C352 1.400 . S
C353 C354 1.398 . S
C354 H342 0.950 . S
C354 C353 1.398 . S
C354 C355 1.391 . S
C355 H343 0.950 . S
C355 C351 1.393 . S
C355 C354 1.391 . S
H356 C364 0.950 . S
H357 C369 0.950 . S
H358 C366 0.950 . S
H359 C368 0.950 . S
H360 C370 0.950 . S
H361 C372 0.950 . S
H362 C374 0.950 . S
H363 C375 0.950 . S
C364 H356 0.950 . S
C364 C365 1.386 . S
C364 C366 1.391 . S
C365 C364 1.386 . S
C365 C369 1.393 . S
C366 H358 0.950 . S
C366 C364 1.391 . S
C366 C367 1.400 . S
C367 C366 1.400 . S
C367 C368 1.398 . S
C367 C373 1.491 . S
C368 H359 0.950 . S
C368 C367 1.398 . S
C368 C369 1.391 . S
C369 H357 0.950 . S
C369 C365 1.393 . S
C369 C368 1.391 . S
C370 H360 0.950 . S
C370 C371 1.386 . S
C370 C372 1.391 . S
C371 C370 1.386 . S
C371 C375 1.393 . S
C372 H361 0.950 . S
C372 C370 1.391 . S
C372 C373 1.400 . S
C373 C367 1.491 . S
C373 C372 1.400 . S
C373 C374 1.398 . S
C374 H362 0.950 . S
C374 C373 1.398 . S
C374 C375 1.391 . S
C375 H363 0.950 . S
C375 C371 1.393 . S
C375 C374 1.391 . S
H376 C384 0.950 . S
H377 C389 0.950 . S
H378 C386 0.950 . S
H379 C388 0.950 . S
H380 C390 0.950 . S
H381 C392 0.950 . S
H382 C394 0.950 . S
H383 C395 0.950 . S
C384 H376 0.950 . S
C384 C385 1.386 . S
C384 C386 1.391 . S
C385 C384 1.386 . S
C385 C389 1.393 . S
C386 H378 0.950 . S
C386 C384 1.391 . S
C386 C387 1.400 . S
C387 C386 1.400 . S
C387 C388 1.398 . S
C387 C393 1.491 . S
C388 H379 0.950 . S
C388 C387 1.398 . S
C388 C389 1.391 . S
C389 H377 0.950 . S
C389 C385 1.393 . S
C389 C388 1.391 . S
C390 H380 0.950 . S
C390 C391 1.386 . S
C390 C392 1.391 . S
C391 C390 1.386 . S
C391 C395 1.393 . S
C392 H381 0.950 . S
C392 C390 1.391 . S
C392 C393 1.400 . S
C393 C387 1.491 . S
C393 C392 1.400 . S
C393 C394 1.398 . S
C394 H382 0.950 . S
C394 C393 1.398 . S
C394 C395 1.391 . S
C395 H383 0.950 . S
C395 C391 1.393 . S
C395 C394 1.391 . S
H396 C404 0.950 . S
H397 C409 0.950 . S
H398 C406 0.950 . S
H399 C408 0.950 . S
H400 C410 0.950 . S
H401 C412 0.950 . S
H402 C414 0.950 . S
H403 C415 0.950 . S
C404 H396 0.950 . S
C404 C405 1.386 . S
C404 C406 1.391 . S
C405 C404 1.386 . S
C405 C409 1.393 . S
C406 H398 0.950 . S
C406 C404 1.391 . S
C406 C407 1.400 . S
C407 C406 1.400 . S
C407 C408 1.398 . S
C407 C413 1.491 . S
C408 H399 0.950 . S
C408 C407 1.398 . S
C408 C409 1.391 . S
C409 H397 0.950 . S
C409 C405 1.393 . S
C409 C408 1.391 . S
C410 H400 0.950 . S
C410 C411 1.386 . S
C410 C412 1.391 . S
C411 C410 1.386 . S
C411 C415 1.393 . S
C412 H401 0.950 . S
C412 C410 1.391 . S
C412 C413 1.400 . S
C413 C407 1.491 . S
C413 C412 1.400 . S
C413 C414 1.398 . S
C414 H402 0.950 . S
C414 C413 1.398 . S
C414 C415 1.391 . S
C415 H403 0.950 . S
C415 C411 1.393 . S
C415 C414 1.391 . S
H416 C424 0.950 . S
H417 C429 0.950 . S
H418 C426 0.950 . S
H419 C428 0.950 . S
H420 C430 0.950 . S
H421 C432 0.950 . S
H422 C434 0.950 . S
H423 C435 0.950 . S
C424 H416 0.950 . S
C424 C425 1.386 . S
C424 C426 1.391 . S
C425 C424 1.386 . S
C425 C429 1.393 . S
C426 H418 0.950 . S
C426 C424 1.391 . S
C426 C427 1.400 . S
C427 C426 1.400 . S
C427 C428 1.398 . S
C427 C433 1.491 . S
C428 H419 0.950 . S
C428 C427 1.398 . S
C428 C429 1.391 . S
C429 H417 0.950 . S
C429 C425 1.393 . S
C429 C428 1.391 . S
C430 H420 0.950 . S
C430 C431 1.386 . S
C430 C432 1.391 . S
C431 C430 1.386 . S
C431 C435 1.393 . S
C432 H421 0.950 . S
C432 C430 1.391 . S
C432 C433 1.400 . S
C433 C427 1.491 . S
C433 C432 1.400 . S
C433 C434 1.398 . S
C434 H422 0.950 . S
C434 C433 1.398 . S
C434 C435 1.391 . S
C435 H423 0.950 . S
C435 C431 1.393 . S
C435 C434 1.391 . S
H436 C444 0.950 . S
H437 C449 0.950 . S
H438 C446 0.950 . S
H439 C448 0.950 . S
H440 C450 0.950 . S
H441 C452 0.950 . S
H442 C454 0.950 . S
H443 C455 0.950 . S
C444 H436 0.950 . S
C444 C445 1.386 . S
C444 C446 1.391 . S
C445 C444 1.386 . S
C445 C449 1.393 . S
C446 H438 0.950 . S
C446 C444 1.391 . S
C446 C447 1.400 . S
C447 C446 1.400 . S
C447 C448 1.398 . S
C447 C453 1.491 . S
C448 H439 0.950 . S
C448 C447 1.398 . S
C448 C449 1.391 . S
C449 H437 0.950 . S
C449 C445 1.393 . S
C449 C448 1.391 . S
C450 H440 0.950 . S
C450 C451 1.386 . S
C450 C452 1.391 . S
C451 C450 1.386 . S
C451 C455 1.393 . S
C452 H441 0.950 . S
C452 C450 1.391 . S
C452 C453 1.400 . S
C453 C447 1.491 . S
C453 C452 1.400 . S
C453 C454 1.398 . S
C454 H442 0.950 . S
C454 C453 1.398 . S
C454 C455 1.391 . S
C455 H443 0.950 . S
C455 C451 1.393 . S
C455 C454 1.391 . S
H456 C464 0.950 . S
H457 C469 0.950 . S
H458 C466 0.950 . S
H459 C468 0.950 . S
H460 C470 0.950 . S
H461 C472 0.950 . S
H462 C474 0.950 . S
H463 C475 0.950 . S
C464 H456 0.950 . S
C464 C465 1.386 . S
C464 C466 1.391 . S
C465 C464 1.386 . S
C465 C469 1.393 . S
C466 H458 0.950 . S
C466 C464 1.391 . S
C466 C467 1.400 . S
C467 C466 1.400 . S
C467 C468 1.398 . S
C467 C473 1.491 . S
C468 H459 0.950 . S
C468 C467 1.398 . S
C468 C469 1.391 . S
C469 H457 0.950 . S
C469 C465 1.393 . S
C469 C468 1.391 . S
C470 H460 0.950 . S
C470 C471 1.386 . S
C470 C472 1.391 . S
C471 C470 1.386 . S
C471 C475 1.393 . S
C472 H461 0.950 . S
C472 C470 1.391 . S
C472 C473 1.400 . S
C473 C467 1.491 . S
C473 C472 1.400 . S
C473 C474 1.398 . S
C474 H462 0.950 . S
C474 C473 1.398 . S
C474 C475 1.391 . S
C475 H463 0.950 . S
C475 C471 1.393 . S
C475 C474 1.391 . S
H476 C484 0.950 . S
H477 C489 0.950 . S
H478 C486 0.950 . S
H479 C488 0.950 . S
H480 C490 0.950 . S
H481 C492 0.950 . S
H482 C494 0.950 . S
H483 C495 0.950 . S
C484 H476 0.950 . S
C484 C485 1.386 . S
C484 C486 1.391 . S
C485 C484 1.386 . S
C485 C489 1.393 . S
C486 H478 0.950 . S
C486 C484 1.391 . S
C486 C487 1.400 . S
C487 C486 1.400 . S
C487 C488 1.398 . S
C487 C493 1.491 . S
C488 H479 0.950 . S
C488 C487 1.398 . S
C488 C489 1.391 . S
C489 H477 0.950 . S
C489 C485 1.393 . S
C489 C488 1.391 . S
C490 H480 0.950 . S
C490 C491 1.386 . S
C490 C492 1.391 . S
C491 C490 1.386 . S
C491 C495 1.393 . S
C492 H481 0.950 . S
C492 C490 1.391 . S
C492 C493 1.400 . S
C493 C487 1.491 . S
C493 C492 1.400 . S
C493 C494 1.398 . S
C494 H482 0.950 . S
C494 C493 1.398 . S
C494 C495 1.391 . S
C495 H483 0.950 . S
C495 C491 1.393 . S
C495 C494 1.391 . S
H496 C504 0.950 . S
H497 C509 0.950 . S
H498 C506 0.950 . S
H499 C508 0.950 . S
H500 C510 0.950 . S
H501 C512 0.950 . S
H502 C514 0.950 . S
H503 C515 0.950 . S
C504 H496 0.950 . S
C504 C505 1.386 . S
C504 C506 1.391 . S
C505 C504 1.386 . S
C505 C509 1.393 1_565 S
C506 H498 0.950 . S
C506 C504 1.391 . S
C506 C507 1.400 . S
C507 C506 1.400 . S
C507 C508 1.398 1_565 S
C507 C513 1.491 1_565 S
C508 H499 0.950 . S
C508 C507 1.398 1_545 S
C508 C509 1.391 . S
C509 H497 0.950 . S
C509 C505 1.393 1_545 S
C509 C508 1.391 . S
C510 H500 0.950 . S
C510 C511 1.386 . S
C510 C512 1.391 . S
C511 C510 1.386 . S
C511 C515 1.393 1_545 S
C512 H501 0.950 . S
C512 C510 1.391 . S
C512 C513 1.400 . S
C513 C507 1.491 1_545 S
C513 C512 1.400 . S
C513 C514 1.398 1_545 S
C514 H502 0.950 . S
C514 C513 1.398 1_565 S
C514 C515 1.391 . S
C515 H503 0.950 . S
C515 C511 1.393 1_565 S
C515 C514 1.391 . S
H516 C524 0.950 . S
H517 C529 0.950 . S
H518 C526 0.950 . S
H519 C528 0.950 . S
H520 C530 0.950 . S
H521 C532 0.950 . S
H522 C534 0.950 . S
H523 C535 0.950 . S
C524 H516 0.950 . S
C524 C525 1.386 1_565 S
C524 C526 1.391 . S
C525 C524 1.386 1_545 S
C525 C529 1.393 . S
C526 H518 0.950 . S
C526 C524 1.391 . S
C526 C527 1.400 1_565 S
C527 C526 1.400 1_545 S
C527 C528 1.398 . S
C527 C533 1.491 1_545 S
C528 H519 0.950 . S
C528 C527 1.398 . S
C528 C529 1.391 . S
C529 H517 0.950 . S
C529 C525 1.393 . S
C529 C528 1.391 . S
C530 H520 0.950 . S
C530 C531 1.386 1_545 S
C530 C532 1.391 . S
C531 C530 1.386 1_565 S
C531 C535 1.393 . S
C532 H521 0.950 . S
C532 C530 1.391 . S
C532 C533 1.400 1_545 S
C533 C527 1.491 1_565 S
C533 C532 1.400 1_565 S
C533 C534 1.398 . S
C534 H522 0.950 . S
C534 C533 1.398 . S
C534 C535 1.391 . S
C535 H523 0.950 . S
C535 C531 1.393 . S
C535 C534 1.391 . S
H536 C544 0.950 . S
H537 C549 0.950 . S
H538 C546 0.950 . S
H539 C548 0.950 . S
H540 C550 0.950 . S
H541 C552 0.950 . S
H542 C554 0.950 . S
H543 C555 0.950 . S
C544 H536 0.950 . S
C544 C545 1.386 1_565 S
C544 C546 1.391 . S
C545 C544 1.386 1_545 S
C545 C549 1.393 . S
C546 H538 0.950 . S
C546 C544 1.391 . S
C546 C547 1.400 1_565 S
C547 C546 1.400 1_545 S
C547 C548 1.398 . S
C547 C553 1.491 1_545 S
C548 H539 0.950 . S
C548 C547 1.398 . S
C548 C549 1.391 . S
C549 H537 0.950 . S
C549 C545 1.393 . S
C549 C548 1.391 . S
C550 H540 0.950 . S
C550 C551 1.386 1_545 S
C550 C552 1.391 . S
C551 C550 1.386 1_565 S
C551 C555 1.393 . S
C552 H541 0.950 . S
C552 C550 1.391 . S
C552 C553 1.400 1_545 S
C553 C547 1.491 1_565 S
C553 C552 1.400 1_565 S
C553 C554 1.398 . S
C554 H542 0.950 . S
C554 C553 1.398 . S
C554 C555 1.391 . S
C555 H543 0.950 . S
C555 C551 1.393 . S
C555 C554 1.391 . S
H556 C564 0.950 . S
H557 C569 0.950 . S
H558 C566 0.950 . S
H559 C568 0.950 . S
H560 C570 0.950 . S
H561 C572 0.950 . S
H562 C574 0.950 . S
H563 C575 0.950 . S
C564 H556 0.950 . S
C564 C565 1.386 1_565 S
C564 C566 1.391 . S
C565 C564 1.386 1_545 S
C565 C569 1.393 . S
C566 H558 0.950 . S
C566 C564 1.391 . S
C566 C567 1.400 1_565 S
C567 C566 1.400 1_545 S
C567 C568 1.398 . S
C567 C573 1.491 1_545 S
C568 H559 0.950 . S
C568 C567 1.398 . S
C568 C569 1.391 . S
C569 H557 0.950 . S
C569 C565 1.393 . S
C569 C568 1.391 . S
C570 H560 0.950 . S
C570 C571 1.386 1_545 S
C570 C572 1.391 . S
C571 C570 1.386 1_565 S
C571 C575 1.393 . S
C572 H561 0.950 . S
C572 C570 1.391 . S
C572 C573 1.400 1_545 S
C573 C567 1.491 1_565 S
C573 C572 1.400 1_565 S
C573 C574 1.398 . S
C574 H562 0.950 . S
C574 C573 1.398 . S
C574 C575 1.391 . S
C575 H563 0.950 . S
C575 C571 1.393 . S
C575 C574 1.391 . S
H576 C584 0.950 . S
H577 C589 0.950 . S
H578 C586 0.950 . S
H579 C588 0.950 . S
H580 C590 0.950 . S
H581 C592 0.950 . S
H582 C594 0.950 . S
H583 C595 0.950 . S
C584 H576 0.950 . S
C584 C585 1.386 . S
C584 C586 1.391 . S
C585 C584 1.386 . S
C585 C589 1.393 . S
C586 H578 0.950 . S
C586 C584 1.391 . S
C586 C587 1.400 . S
C587 C586 1.400 . S
C587 C588 1.398 . S
C587 C593 1.491 . S
C588 H579 0.950 . S
C588 C587 1.398 . S
C588 C589 1.391 . S
C589 H577 0.950 . S
C589 C585 1.393 . S
C589 C588 1.391 . S
C590 H580 0.950 . S
C590 C591 1.386 . S
C590 C592 1.391 . S
C591 C590 1.386 . S
C591 C595 1.393 . S
C592 H581 0.950 . S
C592 C590 1.391 . S
C592 C593 1.400 . S
C593 C587 1.491 . S
C593 C592 1.400 . S
C593 C594 1.398 . S
C594 H582 0.950 . S
C594 C593 1.398 . S
C594 C595 1.391 . S
C595 H583 0.950 . S
C595 C591 1.393 . S
C595 C594 1.391 . S
H596 C604 0.950 . S
H597 C609 0.950 . S
H598 C606 0.950 . S
H599 C608 0.950 . S
H600 C610 0.950 . S
H601 C612 0.950 . S
H602 C614 0.950 . S
H603 C615 0.950 . S
C604 H596 0.950 . S
C604 C605 1.386 . S
C604 C606 1.391 . S
C605 C604 1.386 . S
C605 C609 1.393 . S
C606 H598 0.950 . S
C606 C604 1.391 . S
C606 C607 1.400 . S
C607 C606 1.400 . S
C607 C608 1.398 . S
C607 C613 1.491 . S
C608 H599 0.950 . S
C608 C607 1.398 . S
C608 C609 1.391 . S
C609 H597 0.950 . S
C609 C605 1.393 . S
C609 C608 1.391 . S
C610 H600 0.950 . S
C610 C611 1.386 . S
C610 C612 1.391 . S
C611 C610 1.386 . S
C611 C615 1.393 . S
C612 H601 0.950 . S
C612 C610 1.391 . S
C612 C613 1.400 . S
C613 C607 1.491 . S
C613 C612 1.400 . S
C613 C614 1.398 . S
C614 H602 0.950 . S
C614 C613 1.398 . S
C614 C615 1.391 . S
C615 H603 0.950 . S
C615 C611 1.393 . S
C615 C614 1.391 . S
H616 C624 0.950 . S
H617 C629 0.950 . S
H618 C626 0.950 . S
H619 C628 0.950 . S
H620 C630 0.950 . S
H621 C632 0.950 . S
H622 C634 0.950 . S
H623 C635 0.950 . S
C624 H616 0.950 . S
C624 C625 1.386 . S
C624 C626 1.391 . S
C625 C624 1.386 . S
C625 C629 1.393 . S
C626 H618 0.950 . S
C626 C624 1.391 . S
C626 C627 1.400 . S
C627 C626 1.400 . S
C627 C628 1.398 . S
C627 C633 1.491 . S
C628 H619 0.950 . S
C628 C627 1.398 . S
C628 C629 1.391 . S
C629 H617 0.950 . S
C629 C625 1.393 . S
C629 C628 1.391 . S
C630 H620 0.950 . S
C630 C631 1.386 . S
C630 C632 1.391 . S
C631 C630 1.386 . S
C631 C635 1.393 . S
C632 H621 0.950 . S
C632 C630 1.391 . S
C632 C633 1.400 . S
C633 C627 1.491 . S
C633 C632 1.400 . S
C633 C634 1.398 . S
C634 H622 0.950 . S
C634 C633 1.398 . S
C634 C635 1.391 . S
C635 H623 0.950 . S
C635 C631 1.393 . S
C635 C634 1.391 . S
H636 C644 0.950 . S
H637 C649 0.950 . S
H638 C646 0.950 . S
H639 C648 0.950 . S
H640 C650 0.950 . S
H641 C652 0.950 . S
H642 C654 0.950 . S
H643 C655 0.950 . S
C644 H636 0.950 . S
C644 C645 1.386 . S
C644 C646 1.391 . S
C645 C644 1.386 . S
C645 C649 1.393 . S
C646 H638 0.950 . S
C646 C644 1.391 . S
C646 C647 1.400 . S
C647 C646 1.400 . S
C647 C648 1.398 . S
C647 C653 1.491 . S
C648 H639 0.950 . S
C648 C647 1.398 . S
C648 C649 1.391 . S
C649 H637 0.950 . S
C649 C645 1.393 . S
C649 C648 1.391 . S
C650 H640 0.950 . S
C650 C651 1.386 . S
C650 C652 1.391 . S
C651 C650 1.386 . S
C651 C655 1.393 . S
C652 H641 0.950 . S
C652 C650 1.391 . S
C652 C653 1.400 . S
C653 C647 1.491 . S
C653 C652 1.400 . S
C653 C654 1.398 . S
C654 H642 0.950 . S
C654 C653 1.398 . S
C654 C655 1.391 . S
C655 H643 0.950 . S
C655 C651 1.393 . S
C655 C654 1.391 . S
H656 C664 0.950 . S
H657 C669 0.950 . S
H658 C666 0.950 . S
H659 C668 0.950 . S
H660 C670 0.950 . S
H661 C672 0.950 . S
H662 C674 0.950 . S
H663 C675 0.950 . S
C664 H656 0.950 . S
C664 C665 1.386 . S
C664 C666 1.391 . S
C665 C664 1.386 . S
C665 C669 1.393 1_545 S
C666 H658 0.950 . S
C666 C664 1.391 . S
C666 C667 1.400 . S
C667 C666 1.400 . S
C667 C668 1.398 1_545 S
C667 C673 1.491 1_556 S
C668 H659 0.950 . S
C668 C667 1.398 1_565 S
C668 C669 1.391 . S
C669 H657 0.950 . S
C669 C665 1.393 1_565 S
C669 C668 1.391 . S
C670 H660 0.950 . S
C670 C671 1.386 1_565 S
C670 C672 1.391 . S
C671 C670 1.386 1_545 S
C671 C675 1.393 . S
C672 H661 0.950 . S
C672 C670 1.391 . S
C672 C673 1.400 1_565 S
C673 C667 1.491 1_554 S
C673 C672 1.400 1_545 S
C673 C674 1.398 . S
C674 H662 0.950 . S
C674 C673 1.398 . S
C674 C675 1.391 . S
C675 H663 0.950 . S
C675 C671 1.393 . S
C675 C674 1.391 . S
H676 C684 0.950 . S
H677 C689 0.950 . S
H678 C686 0.950 . S
H679 C688 0.950 . S
H680 C690 0.950 . S
H681 C692 0.950 . S
H682 C694 0.950 . S
H683 C695 0.950 . S
C684 H676 0.950 . S
C684 C685 1.386 1_545 S
C684 C686 1.391 . S
C685 C684 1.386 1_565 S
C685 C689 1.393 . S
C686 H678 0.950 . S
C686 C684 1.391 . S
C686 C687 1.400 1_545 S
C687 C686 1.400 1_565 S
C687 C688 1.398 . S
C687 C693 1.491 1_556 S
C688 H679 0.950 . S
C688 C687 1.398 . S
C688 C689 1.391 . S
C689 H677 0.950 . S
C689 C685 1.393 . S
C689 C688 1.391 . S
C690 H680 0.950 . S
C690 C691 1.386 . S
C690 C692 1.391 . S
C691 C690 1.386 . S
C691 C695 1.393 1_565 S
C692 H681 0.950 . S
C692 C690 1.391 . S
C692 C693 1.400 . S
C693 C687 1.491 1_554 S
C693 C692 1.400 . S
C693 C694 1.398 1_565 S
C694 H682 0.950 . S
C694 C693 1.398 1_545 S
C694 C695 1.391 . S
C695 H683 0.950 . S
C695 C691 1.393 1_545 S
C695 C694 1.391 . S
H696 C704 0.950 . S
H697 C709 0.950 . S
H698 C706 0.950 . S
H699 C708 0.950 . S
H700 C710 0.950 . S
H701 C712 0.950 . S
H702 C714 0.950 . S
H703 C715 0.950 . S
C704 H696 0.950 . S
C704 C705 1.386 . S
C704 C706 1.391 . S
C705 C704 1.386 . S
C705 C709 1.393 . S
C706 H698 0.950 . S
C706 C704 1.391 . S
C706 C707 1.400 . S
C707 C706 1.400 . S
C707 C708 1.398 . S
C707 C713 1.491 . S
C708 H699 0.950 . S
C708 C707 1.398 . S
C708 C709 1.391 . S
C709 H697 0.950 . S
C709 C705 1.393 . S
C709 C708 1.391 . S
C710 H700 0.950 . S
C710 C711 1.386 . S
C710 C712 1.391 . S
C711 C710 1.386 . S
C711 C715 1.393 . S
C712 H701 0.950 . S
C712 C710 1.391 . S
C712 C713 1.400 . S
C713 C707 1.491 . S
C713 C712 1.400 . S
C713 C714 1.398 . S
C714 H702 0.950 . S
C714 C713 1.398 . S
C714 C715 1.391 . S
C715 H703 0.950 . S
C715 C711 1.393 . S
C715 C714 1.391 . S
H716 C724 0.950 1_565 S
H717 C729 0.950 . S
H718 C726 0.950 1_565 S
H719 C728 0.950 . S
H720 C730 0.950 . S
H721 C732 0.950 . S
H722 C734 0.950 1_565 S
H723 C735 0.950 1_565 S
C724 H716 0.950 1_545 S
C724 C725 1.386 . S
C724 C726 1.391 . S
C725 C724 1.386 . S
C725 C729 1.393 . S
C726 H718 0.950 1_545 S
C726 C724 1.391 . S
C726 C727 1.400 . S
C727 C726 1.400 . S
C727 C728 1.398 . S
C727 C733 1.491 . S
C728 H719 0.950 . S
C728 C727 1.398 . S
C728 C729 1.391 . S
C729 H717 0.950 . S
C729 C725 1.393 . S
C729 C728 1.391 . S
C730 H720 0.950 . S
C730 C731 1.386 . S
C730 C732 1.391 . S
C731 C730 1.386 . S
C731 C735 1.393 . S
C732 H721 0.950 . S
C732 C730 1.391 . S
C732 C733 1.400 . S
C733 C727 1.491 . S
C733 C732 1.400 . S
C733 C734 1.398 . S
C734 H722 0.950 1_545 S
C734 C733 1.398 . S
C734 C735 1.391 . S
C735 H723 0.950 1_545 S
C735 C731 1.393 . S
C735 C734 1.391 . S
H736 C744 0.950 . S
H737 C749 0.950 . S
H738 C746 0.950 . S
H739 C748 0.950 . S
H740 C750 0.950 . S
H741 C752 0.950 . S
H742 C754 0.950 . S
H743 C755 0.950 . S
C744 H736 0.950 . S
C744 C745 1.386 . S
C744 C746 1.391 . S
C745 C744 1.386 . S
C745 C749 1.393 . S
C746 H738 0.950 . S
C746 C744 1.391 . S
C746 C747 1.400 . S
C747 C746 1.400 . S
C747 C748 1.398 . S
C747 C753 1.491 1_554 S
C748 H739 0.950 . S
C748 C747 1.398 . S
C748 C749 1.391 . S
C749 H737 0.950 . S
C749 C745 1.393 . S
C749 C748 1.391 . S
C750 H740 0.950 . S
C750 C751 1.386 . S
C750 C752 1.391 . S
C751 C750 1.386 . S
C751 C755 1.393 . S
C752 H741 0.950 . S
C752 C750 1.391 . S
C752 C753 1.400 . S
C753 C747 1.491 1_556 S
C753 C752 1.400 . S
C753 C754 1.398 . S
C754 H742 0.950 . S
C754 C753 1.398 . S
C754 C755 1.391 . S
C755 H743 0.950 . S
C755 C751 1.393 . S
C755 C754 1.391 . S
H756 C764 0.950 . S
H757 C769 0.950 . S
H758 C766 0.950 . S
H759 C768 0.950 . S
H760 C770 0.950 . S
H761 C772 0.950 . S
H762 C774 0.950 . S
H763 C775 0.950 . S
C764 H756 0.950 . S
C764 C765 1.386 . S
C764 C766 1.391 . S
C765 C764 1.386 . S
C765 C769 1.393 . S
C766 H758 0.950 . S
C766 C764 1.391 . S
C766 C767 1.400 . S
C767 C766 1.400 . S
C767 C768 1.398 . S
C767 C773 1.491 1_556 S
C768 H759 0.950 . S
C768 C767 1.398 . S
C768 C769 1.391 . S
C769 H757 0.950 . S
C769 C765 1.393 . S
C769 C768 1.391 . S
C770 H760 0.950 . S
C770 C771 1.386 . S
C770 C772 1.391 . S
C771 C770 1.386 . S
C771 C775 1.393 . S
C772 H761 0.950 . S
C772 C770 1.391 . S
C772 C773 1.400 . S
C773 C767 1.491 1_554 S
C773 C772 1.400 . S
C773 C774 1.398 . S
C774 H762 0.950 . S
C774 C773 1.398 . S
C774 C775 1.391 . S
C775 H763 0.950 . S
C775 C771 1.393 . S
C775 C774 1.391 . S
H776 C784 0.950 . S
H777 C789 0.950 . S
H778 C786 0.950 . S
H779 C788 0.950 . S
H780 C790 0.950 . S
H781 C792 0.950 . S
H782 C794 0.950 . S
H783 C795 0.950 . S
C784 H776 0.950 . S
C784 C785 1.386 . S
C784 C786 1.391 . S
C785 C784 1.386 . S
C785 C789 1.393 . S
C786 H778 0.950 . S
C786 C784 1.391 . S
C786 C787 1.400 . S
C787 C786 1.400 . S
C787 C788 1.398 . S
C787 C793 1.491 . S
C788 H779 0.950 . S
C788 C787 1.398 . S
C788 C789 1.391 . S
C789 H777 0.950 . S
C789 C785 1.393 . S
C789 C788 1.391 . S
C790 H780 0.950 . S
C790 C791 1.386 . S
C790 C792 1.391 . S
C791 C790 1.386 . S
C791 C795 1.393 . S
C792 H781 0.950 . S
C792 C790 1.391 . S
C792 C793 1.400 . S
C793 C787 1.491 . S
C793 C792 1.400 . S
C793 C794 1.398 . S
C794 H782 0.950 . S
C794 C793 1.398 . S
C794 C795 1.391 . S
C795 H783 0.950 . S
C795 C791 1.393 . S
C795 C794 1.391 . S
H796 C804 0.950 . S
H797 C809 0.950 . S
H798 C806 0.950 . S
H799 C808 0.950 . S
H800 C810 0.950 . S
H801 C812 0.950 . S
H802 C814 0.950 . S
H803 C815 0.950 . S
C804 H796 0.950 . S
C804 C805 1.386 . S
C804 C806 1.391 . S
C805 C804 1.386 . S
C805 C809 1.393 . S
C806 H798 0.950 . S
C806 C804 1.391 . S
C806 C807 1.400 . S
C807 C806 1.400 . S
C807 C808 1.398 . S
C807 C813 1.491 . S
C808 H799 0.950 . S
C808 C807 1.398 . S
C808 C809 1.391 . S
C809 H797 0.950 . S
C809 C805 1.393 . S
C809 C808 1.391 . S
C810 H800 0.950 . S
C810 C811 1.386 . S
C810 C812 1.391 . S
C811 C810 1.386 . S
C811 C815 1.393 . S
C812 H801 0.950 . S
C812 C810 1.391 . S
C812 C813 1.400 . S
C813 C807 1.491 . S
C813 C812 1.400 . S
C813 C814 1.398 . S
C814 H802 0.950 . S
C814 C813 1.398 . S
C814 C815 1.391 . S
C815 H803 0.950 . S
C815 C811 1.393 . S
C815 C814 1.391 . S
H816 C824 0.950 . S
H817 C829 0.950 . S
H818 C826 0.950 . S
H819 C828 0.950 . S
H820 C830 0.950 . S
H821 C832 0.950 . S
H822 C834 0.950 . S
H823 C835 0.950 . S
C824 H816 0.950 . S
C824 C825 1.386 . S
C824 C826 1.391 . S
C825 C824 1.386 . S
C825 C829 1.393 1_565 S
C826 H818 0.950 . S
C826 C824 1.391 . S
C826 C827 1.400 . S
C827 C826 1.400 . S
C827 C828 1.398 1_565 S
C827 C833 1.491 1_665 S
C828 H819 0.950 . S
C828 C827 1.398 1_545 S
C828 C829 1.391 . S
C829 H817 0.950 . S
C829 C825 1.393 1_545 S
C829 C828 1.391 . S
C830 H820 0.950 . S
C830 C831 1.386 . S
C830 C832 1.391 . S
C831 C830 1.386 . S
C831 C835 1.393 1_545 S
C832 H821 0.950 . S
C832 C830 1.391 . S
C832 C833 1.400 . S
C833 C827 1.491 1_445 S
C833 C832 1.400 . S
C833 C834 1.398 1_545 S
C834 H822 0.950 . S
C834 C833 1.398 1_565 S
C834 C835 1.391 . S
C835 H823 0.950 . S
C835 C831 1.393 1_565 S
C835 C834 1.391 . S
H836 C844 0.950 . S
H837 C849 0.950 . S
H838 C846 0.950 . S
H839 C848 0.950 . S
H840 C850 0.950 . S
H841 C852 0.950 . S
H842 C854 0.950 . S
H843 C855 0.950 . S
C844 H836 0.950 . S
C844 C845 1.386 . S
C844 C846 1.391 . S
C845 C844 1.386 . S
C845 C849 1.393 1_545 S
C846 H838 0.950 . S
C846 C844 1.391 . S
C846 C847 1.400 . S
C847 C846 1.400 . S
C847 C848 1.398 1_545 S
C847 C853 1.491 1_645 S
C848 H839 0.950 . S
C848 C847 1.398 1_565 S
C848 C849 1.391 . S
C849 H837 0.950 . S
C849 C845 1.393 1_565 S
C849 C848 1.391 . S
C850 H840 0.950 . S
C850 C851 1.386 . S
C850 C852 1.391 . S
C851 C850 1.386 . S
C851 C855 1.393 1_565 S
C852 H841 0.950 . S
C852 C850 1.391 . S
C852 C853 1.400 . S
C853 C847 1.491 1_465 S
C853 C852 1.400 . S
C853 C854 1.398 1_565 S
C854 H842 0.950 . S
C854 C853 1.398 1_545 S
C854 C855 1.391 . S
C855 H843 0.950 . S
C855 C851 1.393 1_545 S
C855 C854 1.391 . S
H856 C864 0.950 . S
H857 C869 0.950 . S
H858 C866 0.950 . S
H859 C868 0.950 . S
H860 C870 0.950 . S
H861 C872 0.950 . S
H862 C874 0.950 . S
H863 C875 0.950 . S
C864 H856 0.950 . S
C864 C865 1.386 1_565 S
C864 C866 1.391 . S
C865 C864 1.386 1_545 S
C865 C869 1.393 . S
C866 H858 0.950 . S
C866 C864 1.391 . S
C866 C867 1.400 1_565 S
C867 C866 1.400 1_545 S
C867 C868 1.398 . S
C867 C873 1.491 1_445 S
C868 H859 0.950 . S
C868 C867 1.398 . S
C868 C869 1.391 . S
C869 H857 0.950 . S
C869 C865 1.393 . S
C869 C868 1.391 . S
C870 H860 0.950 . S
C870 C871 1.386 1_545 S
C870 C872 1.391 . S
C871 C870 1.386 1_565 S
C871 C875 1.393 . S
C872 H861 0.950 . S
C872 C870 1.391 . S
C872 C873 1.400 1_545 S
C873 C867 1.491 1_665 S
C873 C872 1.400 1_565 S
C873 C874 1.398 . S
C874 H862 0.950 . S
C874 C873 1.398 . S
C874 C875 1.391 . S
C875 H863 0.950 . S
C875 C871 1.393 . S
C875 C874 1.391 . S
H876 C884 0.950 . S
H877 C889 0.950 . S
H878 C886 0.950 . S
H879 C888 0.950 . S
H880 C890 0.950 . S
H881 C892 0.950 . S
H882 C894 0.950 . S
H883 C895 0.950 . S
C884 H876 0.950 . S
C884 C885 1.386 1_565 S
C884 C886 1.391 . S
C885 C884 1.386 1_545 S
C885 C889 1.393 . S
C886 H878 0.950 . S
C886 C884 1.391 . S
C886 C887 1.400 1_565 S
C887 C886 1.400 1_545 S
C887 C888 1.398 . S
C887 C893 1.491 1_645 S
C888 H879 0.950 . S
C888 C887 1.398 . S
C888 C889 1.391 . S
C889 H877 0.950 . S
C889 C885 1.393 . S
C889 C888 1.391 . S
C890 H880 0.950 . S
C890 C891 1.386 1_545 S
C890 C892 1.391 . S
C891 C890 1.386 1_565 S
C891 C895 1.393 . S
C892 H881 0.950 . S
C892 C890 1.391 . S
C892 C893 1.400 1_545 S
C893 C887 1.491 1_465 S
C893 C892 1.400 1_565 S
C893 C894 1.398 . S
C894 H882 0.950 . S
C894 C893 1.398 . S
C894 C895 1.391 . S
C895 H883 0.950 . S
C895 C891 1.393 . S
C895 C894 1.391 . S
H896 C904 0.950 . S
H897 C909 0.950 . S
H898 C906 0.950 . S
H899 C908 0.950 . S
H900 C910 0.950 . S
H901 C912 0.950 . S
H902 C914 0.950 . S
H903 C915 0.950 . S
C904 H896 0.950 . S
C904 C905 1.386 . S
C904 C906 1.391 . S
C905 C904 1.386 . S
C905 C909 1.393 . S
C906 H898 0.950 . S
C906 C904 1.391 . S
C906 C907 1.400 . S
C907 C906 1.400 . S
C907 C908 1.398 . S
C907 C913 1.491 . S
C908 H899 0.950 . S
C908 C907 1.398 . S
C908 C909 1.391 . S
C909 H897 0.950 . S
C909 C905 1.393 . S
C909 C908 1.391 . S
C910 H900 0.950 . S
C910 C911 1.386 . S
C910 C912 1.391 . S
C911 C910 1.386 . S
C911 C915 1.393 . S
C912 H901 0.950 . S
C912 C910 1.391 . S
C912 C913 1.400 . S
C913 C907 1.491 . S
C913 C912 1.400 . S
C913 C914 1.398 . S
C914 H902 0.950 . S
C914 C913 1.398 . S
C914 C915 1.391 . S
C915 H903 0.950 . S
C915 C911 1.393 . S
C915 C914 1.391 . S
H916 C924 0.950 . S
H917 C929 0.950 . S
H918 C926 0.950 . S
H919 C928 0.950 . S
H920 C930 0.950 . S
H921 C932 0.950 . S
H922 C934 0.950 . S
H923 C935 0.950 . S
C924 H916 0.950 . S
C924 C925 1.386 . S
C924 C926 1.391 . S
C925 C924 1.386 . S
C925 C929 1.393 . S
C926 H918 0.950 . S
C926 C924 1.391 . S
C926 C927 1.400 . S
C927 C926 1.400 . S
C927 C928 1.398 . S
C927 C933 1.491 . S
C928 H919 0.950 . S
C928 C927 1.398 . S
C928 C929 1.391 . S
C929 H917 0.950 . S
C929 C925 1.393 . S
C929 C928 1.391 . S
C930 H920 0.950 . S
C930 C931 1.386 . S
C930 C932 1.391 . S
C931 C930 1.386 . S
C931 C935 1.393 . S
C932 H921 0.950 . S
C932 C930 1.391 . S
C932 C933 1.400 . S
C933 C927 1.491 . S
C933 C932 1.400 . S
C933 C934 1.398 . S
C934 H922 0.950 . S
C934 C933 1.398 . S
C934 C935 1.391 . S
C935 H923 0.950 . S
C935 C931 1.393 . S
C935 C934 1.391 . S
H936 C944 0.950 . S
H937 C949 0.950 . S
H938 C946 0.950 . S
H939 C948 0.950 . S
H940 C950 0.950 . S
H941 C952 0.950 . S
H942 C954 0.950 . S
H943 C955 0.950 . S
C944 H936 0.950 . S
C944 C945 1.386 . S
C944 C946 1.391 . S
C945 C944 1.386 . S
C945 C949 1.393 . S
C946 H938 0.950 . S
C946 C944 1.391 . S
C946 C947 1.400 . S
C947 C946 1.400 . S
C947 C948 1.398 . S
C947 C953 1.491 . S
C948 H939 0.950 . S
C948 C947 1.398 . S
C948 C949 1.391 . S
C949 H937 0.950 . S
C949 C945 1.393 . S
C949 C948 1.391 . S
C950 H940 0.950 . S
C950 C951 1.386 . S
C950 C952 1.391 . S
C951 C950 1.386 . S
C951 C955 1.393 . S
C952 H941 0.950 . S
C952 C950 1.391 . S
C952 C953 1.400 . S
C953 C947 1.491 . S
C953 C952 1.400 . S
C953 C954 1.398 . S
C954 H942 0.950 . S
C954 C953 1.398 . S
C954 C955 1.391 . S
C955 H943 0.950 . S
C955 C951 1.393 . S
C955 C954 1.391 . S
H956 C964 0.950 . S
H957 C969 0.950 . S
H958 C966 0.950 . S
H959 C968 0.950 . S
H960 C970 0.950 . S
H961 C972 0.950 . S
H962 C974 0.950 . S
H963 C975 0.950 . S
C964 H956 0.950 . S
C964 C965 1.386 . S
C964 C966 1.391 . S
C965 C964 1.386 . S
C965 C969 1.393 . S
C966 H958 0.950 . S
C966 C964 1.391 . S
C966 C967 1.400 . S
C967 C966 1.400 . S
C967 C968 1.398 . S
C967 C973 1.491 . S
C968 H959 0.950 . S
C968 C967 1.398 . S
C968 C969 1.391 . S
C969 H957 0.950 . S
C969 C965 1.393 . S
C969 C968 1.391 . S
C970 H960 0.950 . S
C970 C971 1.386 . S
C970 C972 1.391 . S
C971 C970 1.386 . S
C971 C975 1.393 . S
C972 H961 0.950 . S
C972 C970 1.391 . S
C972 C973 1.400 . S
C973 C967 1.491 . S
C973 C972 1.400 . S
C973 C974 1.398 . S
C974 H962 0.950 . S
C974 C973 1.398 . S
C974 C975 1.391 . S
C975 H963 0.950 . S
C975 C971 1.393 . S
C975 C974 1.391 . S
H976 C984 0.950 . S
H977 C989 0.950 . S
H978 C986 0.950 . S
H979 C988 0.950 . S
H980 C990 0.950 . S
H981 C992 0.950 . S
H982 C994 0.950 . S
H983 C995 0.950 . S
C984 H976 0.950 . S
C984 C985 1.386 . S
C984 C986 1.391 . S
C985 C984 1.386 . S
C985 C989 1.393 . S
C986 H978 0.950 . S
C986 C984 1.391 . S
C986 C987 1.400 . S
C987 C986 1.400 . S
C987 C988 1.398 . S
C987 C993 1.491 . S
C988 H979 0.950 . S
C988 C987 1.398 . S
C988 C989 1.391 . S
C989 H977 0.950 . S
C989 C985 1.393 . S
C989 C988 1.391 . S
C990 H980 0.950 . S
C990 C991 1.386 . S
C990 C992 1.391 . S
C991 C990 1.386 . S
C991 C995 1.393 . S
C992 H981 0.950 . S
C992 C990 1.391 . S
C992 C993 1.400 . S
C993 C987 1.491 . S
C993 C992 1.400 . S
C993 C994 1.398 . S
C994 H982 0.950 . S
C994 C993 1.398 . S
C994 C995 1.391 . S
C995 H983 0.950 . S
C995 C991 1.393 . S
C995 C994 1.391 . S
H996 C1004 0.950 . S
H997 C1009 0.950 . S
H998 C1006 0.950 . S
H999 C1008 0.950 . S
H1000 C1010 0.950 . S
H1001 C1012 0.950 . S
H1002 C1014 0.950 . S
H1003 C1015 0.950 . S
C1004 H996 0.950 . S
C1004 C1005 1.386 . S
C1004 C1006 1.391 . S
C1005 C1004 1.386 . S
C1005 C1009 1.393 . S
C1006 H998 0.950 . S
C1006 C1004 1.391 . S
C1006 C1007 1.400 . S
C1007 C1006 1.400 . S
C1007 C1008 1.398 . S
C1007 C1013 1.491 . S
C1008 H999 0.950 . S
C1008 C1007 1.398 . S
C1008 C1009 1.391 . S
C1009 H997 0.950 . S
C1009 C1005 1.393 . S
C1009 C1008 1.391 . S
C1010 H1000 0.950 . S
C1010 C1011 1.386 . S
C1010 C1012 1.391 . S
C1011 C1010 1.386 . S
C1011 C1015 1.393 . S
C1012 H1001 0.950 . S
C1012 C1010 1.391 . S
C1012 C1013 1.400 . S
C1013 C1007 1.491 . S
C1013 C1012 1.400 . S
C1013 C1014 1.398 . S
C1014 H1002 0.950 . S
C1014 C1013 1.398 . S
C1014 C1015 1.391 . S
C1015 H1003 0.950 . S
C1015 C1011 1.393 . S
C1015 C1014 1.391 . S
H1016 C1024 0.950 . S
H1017 C1029 0.950 . S
H1018 C1026 0.950 . S
H1019 C1028 0.950 . S
H1020 C1030 0.950 . S
H1021 C1032 0.950 . S
H1022 C1034 0.950 . S
H1023 C1035 0.950 . S
C1024 H1016 0.950 . S
C1024 C1025 1.386 . S
C1024 C1026 1.391 . S
C1025 C1024 1.386 . S
C1025 C1029 1.393 . S
C1026 H1018 0.950 . S
C1026 C1024 1.391 . S
C1026 C1027 1.400 . S
C1027 C1026 1.400 . S
C1027 C1028 1.398 . S
C1027 C1033 1.491 . S
C1028 H1019 0.950 . S
C1028 C1027 1.398 . S
C1028 C1029 1.391 . S
C1029 H1017 0.950 . S
C1029 C1025 1.393 . S
C1029 C1028 1.391 . S
C1030 H1020 0.950 . S
C1030 C1031 1.386 . S
C1030 C1032 1.391 . S
C1031 C1030 1.386 . S
C1031 C1035 1.393 . S
C1032 H1021 0.950 . S
C1032 C1030 1.391 . S
C1032 C1033 1.400 . S
C1033 C1027 1.491 . S
C1033 C1032 1.400 . S
C1033 C1034 1.398 . S
C1034 H1022 0.950 . S
C1034 C1033 1.398 . S
C1034 C1035 1.391 . S
C1035 H1023 0.950 . S
C1035 C1031 1.393 . S
C1035 C1034 1.391 . S
H1036 C1044 0.950 . S
H1037 C1049 0.950 . S
H1038 C1046 0.950 . S
H1039 C1048 0.950 . S
H1040 C1050 0.950 . S
H1041 C1052 0.950 . S
H1042 C1054 0.950 . S
H1043 C1055 0.950 . S
C1044 H1036 0.950 . S
C1044 C1045 1.386 . S
C1044 C1046 1.391 . S
C1045 C1044 1.386 . S
C1045 C1049 1.393 . S
C1046 H1038 0.950 . S
C1046 C1044 1.391 . S
C1046 C1047 1.400 . S
C1047 C1046 1.400 . S
C1047 C1048 1.398 . S
C1047 C1053 1.491 . S
C1048 H1039 0.950 . S
C1048 C1047 1.398 . S
C1048 C1049 1.391 . S
C1049 H1037 0.950 . S
C1049 C1045 1.393 . S
C1049 C1048 1.391 . S
C1050 H1040 0.950 . S
C1050 C1051 1.386 . S
C1050 C1052 1.391 . S
C1051 C1050 1.386 . S
C1051 C1055 1.393 . S
C1052 H1041 0.950 . S
C1052 C1050 1.391 . S
C1052 C1053 1.400 . S
C1053 C1047 1.491 . S
C1053 C1052 1.400 . S
C1053 C1054 1.398 . S
C1054 H1042 0.950 . S
C1054 C1053 1.398 . S
C1054 C1055 1.391 . S
C1055 H1043 0.950 . S
C1055 C1051 1.393 . S
C1055 C1054 1.391 . S
H1056 C1064 0.950 . S
H1057 C1069 0.950 . S
H1058 C1066 0.950 . S
H1059 C1068 0.950 . S
H1060 C1070 0.950 . S
H1061 C1072 0.950 . S
H1062 C1074 0.950 . S
H1063 C1075 0.950 . S
C1064 H1056 0.950 . S
C1064 C1065 1.386 . S
C1064 C1066 1.391 . S
C1065 C1064 1.386 . S
C1065 C1069 1.393 . S
C1066 H1058 0.950 . S
C1066 C1064 1.391 . S
C1066 C1067 1.400 . S
C1067 C1066 1.400 . S
C1067 C1068 1.398 . S
C1067 C1073 1.491 . S
C1068 H1059 0.950 . S
C1068 C1067 1.398 . S
C1068 C1069 1.391 . S
C1069 H1057 0.950 . S
C1069 C1065 1.393 . S
C1069 C1068 1.391 . S
C1070 H1060 0.950 . S
C1070 C1071 1.386 . S
C1070 C1072 1.391 . S
C1071 C1070 1.386 . S
C1071 C1075 1.393 . S
C1072 H1061 0.950 . S
C1072 C1070 1.391 . S
C1072 C1073 1.400 . S
C1073 C1067 1.491 . S
C1073 C1072 1.400 . S
C1073 C1074 1.398 . S
C1074 H1062 0.950 . S
C1074 C1073 1.398 . S
C1074 C1075 1.391 . S
C1075 H1063 0.950 . S
C1075 C1071 1.393 . S
C1075 C1074 1.391 . S
H1076 C1084 0.950 . S
H1077 C1089 0.950 . S
H1078 C1086 0.950 . S
H1079 C1088 0.950 . S
H1080 C1090 0.950 . S
H1081 C1092 0.950 . S
H1082 C1094 0.950 . S
H1083 C1095 0.950 . S
C1084 H1076 0.950 . S
C1084 C1085 1.386 . S
C1084 C1086 1.391 . S
C1085 C1084 1.386 . S
C1085 C1089 1.393 . S
C1086 H1078 0.950 . S
C1086 C1084 1.391 . S
C1086 C1087 1.400 . S
C1087 C1086 1.400 . S
C1087 C1088 1.398 . S
C1087 C1093 1.491 . S
C1088 H1079 0.950 . S
C1088 C1087 1.398 . S
C1088 C1089 1.391 . S
C1089 H1077 0.950 . S
C1089 C1085 1.393 . S
C1089 C1088 1.391 . S
C1090 H1080 0.950 . S
C1090 C1091 1.386 . S
C1090 C1092 1.391 . S
C1091 C1090 1.386 . S
C1091 C1095 1.393 . S
C1092 H1081 0.950 . S
C1092 C1090 1.391 . S
C1092 C1093 1.400 . S
C1093 C1087 1.491 . S
C1093 C1092 1.400 . S
C1093 C1094 1.398 . S
C1094 H1082 0.950 . S
C1094 C1093 1.398 . S
C1094 C1095 1.391 . S
C1095 H1083 0.950 . S
C1095 C1091 1.393 . S
C1095 C1094 1.391 . S
H1096 C1104 0.950 . S
H1097 C1109 0.950 . S
H1098 C1106 0.950 . S
H1099 C1108 0.950 . S
H1100 C1110 0.950 . S
H1101 C1112 0.950 . S
H1102 C1114 0.950 . S
H1103 C1115 0.950 . S
C1104 H1096 0.950 . S
C1104 C1105 1.386 . S
C1104 C1106 1.391 . S
C1105 C1104 1.386 . S
C1105 C1109 1.393 . S
C1106 H1098 0.950 . S
C1106 C1104 1.391 . S
C1106 C1107 1.400 . S
C1107 C1106 1.400 . S
C1107 C1108 1.398 . S
C1107 C1113 1.491 . S
C1108 H1099 0.950 . S
C1108 C1107 1.398 . S
C1108 C1109 1.391 . S
C1109 H1097 0.950 . S
C1109 C1105 1.393 . S
C1109 C1108 1.391 . S
C1110 H1100 0.950 . S
C1110 C1111 1.386 . S
C1110 C1112 1.391 . S
C1111 C1110 1.386 . S
C1111 C1115 1.393 . S
C1112 H1101 0.950 . S
C1112 C1110 1.391 . S
C1112 C1113 1.400 . S
C1113 C1107 1.491 . S
C1113 C1112 1.400 . S
C1113 C1114 1.398 . S
C1114 H1102 0.950 . S
C1114 C1113 1.398 . S
C1114 C1115 1.391 . S
C1115 H1103 0.950 . S
C1115 C1111 1.393 . S
C1115 C1114 1.391 . S
H1116 C1124 0.950 . S
H1117 C1129 0.950 . S
H1118 C1126 0.950 . S
H1119 C1128 0.950 . S
H1120 C1130 0.950 . S
H1121 C1132 0.950 . S
H1122 C1134 0.950 . S
H1123 C1135 0.950 . S
C1124 H1116 0.950 . S
C1124 C1125 1.386 . S
C1124 C1126 1.391 . S
C1125 C1124 1.386 . S
C1125 C1129 1.393 . S
C1126 H1118 0.950 . S
C1126 C1124 1.391 . S
C1126 C1127 1.400 . S
C1127 C1126 1.400 . S
C1127 C1128 1.398 . S
C1127 C1133 1.491 . S
C1128 H1119 0.950 . S
C1128 C1127 1.398 . S
C1128 C1129 1.391 . S
C1129 H1117 0.950 . S
C1129 C1125 1.393 . S
C1129 C1128 1.391 . S
C1130 H1120 0.950 . S
C1130 C1131 1.386 . S
C1130 C1132 1.391 . S
C1131 C1130 1.386 . S
C1131 C1135 1.393 . S
C1132 H1121 0.950 . S
C1132 C1130 1.391 . S
C1132 C1133 1.400 . S
C1133 C1127 1.491 . S
C1133 C1132 1.400 . S
C1133 C1134 1.398 . S
C1134 H1122 0.950 . S
C1134 C1133 1.398 . S
C1134 C1135 1.391 . S
C1135 H1123 0.950 . S
C1135 C1131 1.393 . S
C1135 C1134 1.391 . S
H1136 C1144 0.950 . S
H1137 C1149 0.950 . S
H1138 C1146 0.950 1_545 S
H1139 C1148 0.950 . S
H1140 C1150 0.950 . S
H1141 C1152 0.950 . S
H1142 C1154 0.950 . S
H1143 C1155 0.950 . S
C1144 H1136 0.950 . S
C1144 C1145 1.386 . S
C1144 C1146 1.391 . S
C1145 C1144 1.386 . S
C1145 C1149 1.393 . S
C1146 H1138 0.950 1_565 S
C1146 C1144 1.391 . S
C1146 C1147 1.400 1_565 S
C1147 C1146 1.400 1_545 S
C1147 C1148 1.398 1_545 S
C1147 C1153 1.491 . S
C1148 H1139 0.950 . S
C1148 C1147 1.398 1_565 S
C1148 C1149 1.391 . S
C1149 H1137 0.950 . S
C1149 C1145 1.393 . S
C1149 C1148 1.391 . S
C1150 H1140 0.950 . S
C1150 C1151 1.386 . S
C1150 C1152 1.391 . S
C1151 C1150 1.386 . S
C1151 C1155 1.393 . S
C1152 H1141 0.950 . S
C1152 C1150 1.391 . S
C1152 C1153 1.400 . S
C1153 C1147 1.491 . S
C1153 C1152 1.400 . S
C1153 C1154 1.398 . S
C1154 H1142 0.950 . S
C1154 C1153 1.398 . S
C1154 C1155 1.391 . S
C1155 H1143 0.950 . S
C1155 C1151 1.393 . S
C1155 C1154 1.391 . S
H1156 C1164 0.950 . S
H1157 C1169 0.950 . S
H1158 C1166 0.950 . S
H1159 C1168 0.950 . S
H1160 C1170 0.950 . S
H1161 C1172 0.950 . S
H1162 C1174 0.950 1_565 S
H1163 C1175 0.950 . S
C1164 H1156 0.950 . S
C1164 C1165 1.386 . S
C1164 C1166 1.391 . S
C1165 C1164 1.386 . S
C1165 C1169 1.393 . S
C1166 H1158 0.950 . S
C1166 C1164 1.391 . S
C1166 C1167 1.400 . S
C1167 C1166 1.400 . S
C1167 C1168 1.398 . S
C1167 C1173 1.491 . S
C1168 H1159 0.950 . S
C1168 C1167 1.398 . S
C1168 C1169 1.391 . S
C1169 H1157 0.950 . S
C1169 C1165 1.393 . S
C1169 C1168 1.391 . S
C1170 H1160 0.950 . S
C1170 C1171 1.386 . S
C1170 C1172 1.391 . S
C1171 C1170 1.386 . S
C1171 C1175 1.393 . S
C1172 H1161 0.950 . S
C1172 C1170 1.391 . S
C1172 C1173 1.400 1_545 S
C1173 C1167 1.491 . S
C1173 C1172 1.400 1_565 S
C1173 C1174 1.398 1_565 S
C1174 H1162 0.950 1_545 S
C1174 C1173 1.398 1_545 S
C1174 C1175 1.391 . S
C1175 H1163 0.950 . S
C1175 C1171 1.393 . S
C1175 C1174 1.391 . S
H1176 C1184 0.950 . S
H1177 C1189 0.950 . S
H1178 C1186 0.950 1_565 S
H1179 C1188 0.950 1_565 S
H1180 C1190 0.950 . S
H1181 C1192 0.950 . S
H1182 C1194 0.950 . S
H1183 C1195 0.950 . S
C1184 H1176 0.950 . S
C1184 C1185 1.386 . S
C1184 C1186 1.391 . S
C1185 C1184 1.386 . S
C1185 C1189 1.393 . S
C1186 H1178 0.950 1_545 S
C1186 C1184 1.391 . S
C1186 C1187 1.400 1_545 S
C1187 C1186 1.400 1_565 S
C1187 C1188 1.398 1_565 S
C1187 C1193 1.491 . S
C1188 H1179 0.950 1_545 S
C1188 C1187 1.398 1_545 S
C1188 C1189 1.391 . S
C1189 H1177 0.950 . S
C1189 C1185 1.393 . S
C1189 C1188 1.391 . S
C1190 H1180 0.950 . S
C1190 C1191 1.386 . S
C1190 C1192 1.391 . S
C1191 C1190 1.386 . S
C1191 C1195 1.393 . S
C1192 H1181 0.950 . S
C1192 C1190 1.391 . S
C1192 C1193 1.400 . S
C1193 C1187 1.491 . S
C1193 C1192 1.400 . S
C1193 C1194 1.398 . S
C1194 H1182 0.950 . S
C1194 C1193 1.398 . S
C1194 C1195 1.391 . S
C1195 H1183 0.950 . S
C1195 C1191 1.393 . S
C1195 C1194 1.391 . S
H1196 C1204 0.950 . S
H1197 C1209 0.950 . S
H1198 C1206 0.950 1_545 S
H1199 C1208 0.950 . S
H1200 C1210 0.950 . S
H1201 C1212 0.950 . S
H1202 C1214 0.950 . S
H1203 C1215 0.950 . S
C1204 H1196 0.950 . S
C1204 C1205 1.386 . S
C1204 C1206 1.391 . S
C1205 C1204 1.386 . S
C1205 C1209 1.393 . S
C1206 H1198 0.950 1_565 S
C1206 C1204 1.391 . S
C1206 C1207 1.400 1_565 S
C1207 C1206 1.400 1_545 S
C1207 C1208 1.398 1_545 S
C1207 C1213 1.491 . S
C1208 H1199 0.950 . S
C1208 C1207 1.398 1_565 S
C1208 C1209 1.391 . S
C1209 H1197 0.950 . S
C1209 C1205 1.393 . S
C1209 C1208 1.391 . S
C1210 H1200 0.950 . S
C1210 C1211 1.386 . S
C1210 C1212 1.391 . S
C1211 C1210 1.386 . S
C1211 C1215 1.393 . S
C1212 H1201 0.950 . S
C1212 C1210 1.391 . S
C1212 C1213 1.400 . S
C1213 C1207 1.491 . S
C1213 C1212 1.400 . S
C1213 C1214 1.398 . S
C1214 H1202 0.950 . S
C1214 C1213 1.398 . S
C1214 C1215 1.391 . S
C1215 H1203 0.950 . S
C1215 C1211 1.393 . S
C1215 C1214 1.391 . S
H1216 C1224 0.950 . S
H1217 C1229 0.950 . S
H1218 C1226 0.950 . S
H1219 C1228 0.950 . S
H1220 C1230 0.950 . S
H1221 C1232 0.950 1_565 S
H1222 C1234 0.950 . S
H1223 C1235 0.950 . S
C1224 H1216 0.950 . S
C1224 C1225 1.386 . S
C1224 C1226 1.391 . S
C1225 C1224 1.386 . S
C1225 C1229 1.393 . S
C1226 H1218 0.950 . S
C1226 C1224 1.391 . S
C1226 C1227 1.400 . S
C1227 C1226 1.400 . S
C1227 C1228 1.398 . S
C1227 C1233 1.491 . S
C1228 H1219 0.950 . S
C1228 C1227 1.398 . S
C1228 C1229 1.391 . S
C1229 H1217 0.950 . S
C1229 C1225 1.393 . S
C1229 C1228 1.391 . S
C1230 H1220 0.950 . S
C1230 C1231 1.386 . S
C1230 C1232 1.391 . S
C1231 C1230 1.386 . S
C1231 C1235 1.393 . S
C1232 H1221 0.950 1_545 S
C1232 C1230 1.391 . S
C1232 C1233 1.400 1_545 S
C1233 C1227 1.491 . S
C1233 C1232 1.400 1_565 S
C1233 C1234 1.398 1_565 S
C1234 H1222 0.950 . S
C1234 C1233 1.398 1_545 S
C1234 C1235 1.391 . S
C1235 H1223 0.950 . S
C1235 C1231 1.393 . S
C1235 C1234 1.391 . S
H1236 C1244 0.950 . S
H1237 C1249 0.950 . S
H1238 C1246 0.950 . S
H1239 C1248 0.950 . S
H1240 C1250 0.950 . S
H1241 C1252 0.950 1_545 S
H1242 C1254 0.950 . S
H1243 C1255 0.950 . S
C1244 H1236 0.950 . S
C1244 C1245 1.386 . S
C1244 C1246 1.391 . S
C1245 C1244 1.386 . S
C1245 C1249 1.393 . S
C1246 H1238 0.950 . S
C1246 C1244 1.391 . S
C1246 C1247 1.400 . S
C1247 C1246 1.400 . S
C1247 C1248 1.398 . S
C1247 C1253 1.491 . S
C1248 H1239 0.950 . S
C1248 C1247 1.398 . S
C1248 C1249 1.391 . S
C1249 H1237 0.950 . S
C1249 C1245 1.393 . S
C1249 C1248 1.391 . S
C1250 H1240 0.950 . S
C1250 C1251 1.386 . S
C1250 C1252 1.391 . S
C1251 C1250 1.386 . S
C1251 C1255 1.393 . S
C1252 H1241 0.950 1_565 S
C1252 C1250 1.391 . S
C1252 C1253 1.400 1_565 S
C1253 C1247 1.491 . S
C1253 C1252 1.400 1_545 S
C1253 C1254 1.398 1_545 S
C1254 H1242 0.950 . S
C1254 C1253 1.398 1_565 S
C1254 C1255 1.391 . S
C1255 H1243 0.950 . S
C1255 C1251 1.393 . S
C1255 C1254 1.391 . S
H1256 C1264 0.950 . S
H1257 C1269 0.950 . S
H1258 C1266 0.950 . S
H1259 C1268 0.950 1_545 S
H1260 C1270 0.950 . S
H1261 C1272 0.950 . S
H1262 C1274 0.950 . S
H1263 C1275 0.950 . S
C1264 H1256 0.950 . S
C1264 C1265 1.386 . S
C1264 C1266 1.391 . S
C1265 C1264 1.386 . S
C1265 C1269 1.393 . S
C1266 H1258 0.950 . S
C1266 C1264 1.391 . S
C1266 C1267 1.400 1_565 S
C1267 C1266 1.400 1_545 S
C1267 C1268 1.398 1_545 S
C1267 C1273 1.491 . S
C1268 H1259 0.950 1_565 S
C1268 C1267 1.398 1_565 S
C1268 C1269 1.391 . S
C1269 H1257 0.950 . S
C1269 C1265 1.393 . S
C1269 C1268 1.391 . S
C1270 H1260 0.950 . S
C1270 C1271 1.386 . S
C1270 C1272 1.391 . S
C1271 C1270 1.386 . S
C1271 C1275 1.393 . S
C1272 H1261 0.950 . S
C1272 C1270 1.391 . S
C1272 C1273 1.400 . S
C1273 C1267 1.491 . S
C1273 C1272 1.400 . S
C1273 C1274 1.398 . S
C1274 H1262 0.950 . S
C1274 C1273 1.398 . S
C1274 C1275 1.391 . S
C1275 H1263 0.950 . S
C1275 C1271 1.393 . S
C1275 C1274 1.391 . S
H1276 C1284 0.950 . S
H1277 C1289 0.950 . S
H1278 C1286 0.950 . S
H1279 C1288 0.950 . S
H1280 C1290 0.950 . S
H1281 C1292 0.950 1_565 S
H1282 C1294 0.950 1_565 S
H1283 C1295 0.950 . S
C1284 H1276 0.950 . S
C1284 C1285 1.386 . S
C1284 C1286 1.391 . S
C1285 C1284 1.386 . S
C1285 C1289 1.393 . S
C1286 H1278 0.950 . S
C1286 C1284 1.391 . S
C1286 C1287 1.400 . S
C1287 C1286 1.400 . S
C1287 C1288 1.398 . S
C1287 C1293 1.491 . S
C1288 H1279 0.950 . S
C1288 C1287 1.398 . S
C1288 C1289 1.391 . S
C1289 H1277 0.950 . S
C1289 C1285 1.393 . S
C1289 C1288 1.391 . S
C1290 H1280 0.950 . S
C1290 C1291 1.386 . S
C1290 C1292 1.391 . S
C1291 C1290 1.386 . S
C1291 C1295 1.393 . S
C1292 H1281 0.950 1_545 S
C1292 C1290 1.391 . S
C1292 C1293 1.400 1_545 S
C1293 C1287 1.491 . S
C1293 C1292 1.400 1_565 S
C1293 C1294 1.398 1_565 S
C1294 H1282 0.950 1_545 S
C1294 C1293 1.398 1_545 S
C1294 C1295 1.391 . S
C1295 H1283 0.950 . S
C1295 C1291 1.393 . S
C1295 C1294 1.391 . S
C345 C19 1.400 . S
C351 C209 1.381 . S
C365 C41 1.378 . S
C371 C187 1.395 . S
C385 C251 1.378 . S
C391 C61 1.379 . S
C405 C82 1.407 . S
C411 C229 1.402 . S
C425 C292 1.407 . S
C431 C103 1.394 . S
C445 C271 1.393 . S
C451 C124 1.376 . S
C465 C335 1.408 . S
C471 C145 1.395 . S
C485 C166 1.376 . S
C491 C313 1.393 . S
C505 C46 1.304 . S
C511 C4 1.314 . S
C525 C67 1.296 . S
C531 C28 1.274 . S
C545 C130 1.269 . S
C551 C88 1.283 . S
C565 C109 1.297 . S
C571 C151 1.314 . S
C585 C214 1.313 . S
C591 C172 1.308 . S
C605 C238 1.269 . S
C611 C196 1.278 . S
C625 C256 1.305 . S
C631 C298 1.314 . S
C645 C277 1.313 . S
C651 C322 1.308 . S
C665 C112 1.310 . S
C671 C7 1.288 . S
C685 C91 1.295 . S
C691 C25 1.303 . S
C705 C49 1.306 . S
C711 C154 1.292 . S
C725 C133 1.282 . S
C731 C70 1.316 . S
C745 C175 1.313 . S
C751 C280 1.285 . S
C765 C259 1.302 . S
C771 C193 1.296 . S
C785 C217 1.300 . S
C791 C319 1.298 . S
C805 C301 1.296 . S
C811 C235 1.302 . S
C825 C37 1.406 . S
C831 C3 1.384 . S
C845 C66 1.407 . S
C851 C45 1.370 . S
C865 C108 1.397 . S
C871 C87 1.374 . S
C885 C129 1.409 . S
C891 C150 1.379 . S
C905 C205 1.409 . S
C911 C171 1.370 . S
C925 C247 1.409 . S
C931 C213 1.379 . S
C945 C255 1.372 . S
C951 C276 1.410 . S
C965 C297 1.403 . S
C971 C331 1.371 . S
C985 C16 1.203 . S
C991 C20 1.237 . S
C1005 C24 1.209 . S
C1011 C40 1.241 . S
C1025 C58 1.188 . S
C1031 C62 1.222 . S
C1045 C83 1.239 . S
C1051 C79 1.226 . S
C1065 C100 1.186 . S
C1071 C104 1.218 . S
C1085 C125 1.209 . S
C1091 C121 1.203 . S
C1105 C142 1.220 . S
C1111 C146 1.222 . S
C1125 C163 1.199 . S
C1131 C167 1.207 . S
C1145 C188 1.219 . S
C1151 C184 1.186 . S
C1165 C192 1.195 . S
C1171 C208 1.230 . S
C1185 C230 1.206 . S
C1191 C226 1.190 . S
C1205 C250 1.216 . S
C1211 C234 1.185 . S
C1225 C268 1.185 . S
C1231 C272 1.214 . S
C1245 C289 1.193 . S
C1251 C293 1.228 . S
C1265 C314 1.232 . S
C1271 C310 1.196 . S
C1285 C318 1.224 . S
C1291 C334 1.243 . S
