# Generated by pormake.
# Topology snk, (6)-cn, num edge types: 1
# Building blocks:
#     Node 0, Type 0, BuildingBlock: BETDIP_clean_sbu_0, # of connection points: 6
#     Node 1, Type 0, BuildingBlock: BETDIP_clean_sbu_0, # of connection points: 6
#     Node 2, Type 0, BuildingBlock: BETDIP_clean_sbu_0, # of connection points: 6
#     Node 3, Type 0, BuildingBlock: BETDIP_clean_sbu_0, # of connection points: 6
#     Node 4, Type 0, BuildingBlock: BETDIP_clean_sbu_0, # of connection points: 6
#     Node 5, Type 0, BuildingBlock: BETDIP_clean_sbu_0, # of connection points: 6
#     Node 6, Type 0, BuildingBlock: BETDIP_clean_sbu_0, # of connection points: 6
#     Node 7, Type 0, BuildingBlock: BETDIP_clean_sbu_0, # of connection points: 6
#     Edge 8, Type (0, 0), BuildingBlock: CIFDUS_clean_linker_0, # of connection points: 2
#     Edge 9, Type (0, 0), BuildingBlock: CIFDUS_clean_linker_0, # of connection points: 2
#     Edge 10, Type (0, 0), BuildingBlock: CIFDUS_clean_linker_0, # of connection points: 2
#     Edge 11, Type (0, 0), BuildingBlock: CIFDUS_clean_linker_0, # of connection points: 2
#     Edge 12, Type (0, 0), BuildingBlock: CIFDUS_clean_linker_0, # of connection points: 2
#     Edge 13, Type (0, 0), BuildingBlock: CIFDUS_clean_linker_0, # of connection points: 2
#     Edge 14, Type (0, 0), BuildingBlock: CIFDUS_clean_linker_0, # of connection points: 2
#     Edge 15, Type (0, 0), BuildingBlock: CIFDUS_clean_linker_0, # of connection points: 2
#     Edge 16, Type (0, 0), BuildingBlock: CIFDUS_clean_linker_0, # of connection points: 2
#     Edge 17, Type (0, 0), BuildingBlock: CIFDUS_clean_linker_0, # of connection points: 2
#     Edge 18, Type (0, 0), BuildingBlock: CIFDUS_clean_linker_0, # of connection points: 2
#     Edge 19, Type (0, 0), BuildingBlock: CIFDUS_clean_linker_0, # of connection points: 2
#     Edge 20, Type (0, 0), BuildingBlock: CIFDUS_clean_linker_0, # of connection points: 2
#     Edge 21, Type (0, 0), BuildingBlock: CIFDUS_clean_linker_0, # of connection points: 2
#     Edge 22, Type (0, 0), BuildingBlock: CIFDUS_clean_linker_0, # of connection points: 2
#     Edge 23, Type (0, 0), BuildingBlock: CIFDUS_clean_linker_0, # of connection points: 2
#     Edge 24, Type (0, 0), BuildingBlock: CIFDUS_clean_linker_0, # of connection points: 2
#     Edge 25, Type (0, 0), BuildingBlock: CIFDUS_clean_linker_0, # of connection points: 2
#     Edge 26, Type (0, 0), BuildingBlock: CIFDUS_clean_linker_0, # of connection points: 2
#     Edge 27, Type (0, 0), BuildingBlock: CIFDUS_clean_linker_0, # of connection points: 2
#     Edge 28, Type (0, 0), BuildingBlock: CIFDUS_clean_linker_0, # of connection points: 2
#     Edge 29, Type (0, 0), BuildingBlock: CIFDUS_clean_linker_0, # of connection points: 2
#     Edge 30, Type (0, 0), BuildingBlock: CIFDUS_clean_linker_0, # of connection points: 2
#     Edge 31, Type (0, 0), BuildingBlock: CIFDUS_clean_linker_0, # of connection points: 2
# Relax obj value: 0.103
# Max RMSD: 0.174
# Mean RMSD: 0.139
data_MOF--net-snk--node1-BETDIP_clean_sbu_0--edge1-CIFDUS_clean_linker_0
_symmetry_space_group_name_H-M    P1
_symmetry_Int_Tables_number       1
_symmetry_cell_setting            triclinic
loop_
_symmetry_equiv_pos_as_xyz
'x, y, z'
_cell_length_a     31.956665
_cell_length_b     32.126078
_cell_length_c     23.335969
_cell_angle_alpha  96.627082
_cell_angle_beta   96.446637
_cell_angle_gamma 91.292895
loop_
_atom_site_label
_atom_site_type_symbol
_atom_site_fract_x
_atom_site_fract_y
_atom_site_fract_z
_atom_type_partial_charge
Tb0 Tb 1.00497 0.99817 0.4681 0.0
Tb1 Tb 0.03117 0.04241 0.58713 0.0
C2 C 0.98283 0.97589 0.36157 0.0
C3 C 0.9902 0.98841 0.30475 0.0
C4 C 1.00162 0.02985 0.29799 0.0
C5 C 1.00886 0.04047 0.24326 0.0
C6 C 1.00454 1.00984 0.19443 0.0
C7 C 0.99307 0.96842 0.20173 0.0
C8 C 0.98601 0.95787 0.25633 0.0
C9 C 0.06065 0.95986 0.53422 0.0
C10 C 0.07593 0.07079 0.48603 0.0
C11 C 0.05592 0.0608 0.69371 0.0
C12 C 0.04334 0.05207 0.75015 0.0
C13 C 0.02785 0.01228 0.75875 0.0
C14 C 0.0176 1.00465 0.81347 0.0
C15 C 0.02254 0.0367 0.86059 0.0
C16 C 0.03737 0.07666 0.85127 0.0
C17 C 0.04773 0.08419 0.79667 0.0
C18 C 0.97808 0.08387 0.52296 0.0
C19 C 0.95693 0.97105 0.5662 0.0
O20 O 0.96165 1.00133 0.39439 0.0
O21 O 0.01504 0.96095 0.39117 0.0
O22 O 0.05966 0.99851 0.5304 0.0
O23 O 0.03051 0.94072 0.4985 0.0
O24 O 0.04514 0.0501 0.45081 0.0
O25 O 0.08056 0.06785 0.54255 0.0
O26 O 0.06978 0.02942 0.66111 0.0
O27 O 0.03074 0.08383 0.66367 0.0
O28 O 0.97682 0.04451 0.52401 0.0
O29 O 1.00783 0.10089 0.56128 0.0
O30 O 0.98547 0.99384 0.60322 0.0
O31 O 0.9555 0.97148 0.50959 0.0
H32 H 1.00487 0.05394 0.33487 0.0
H33 H 0.01735 0.07272 0.23908 0.0
H34 H 0.99018 0.94392 0.16537 0.0
H35 H 0.97741 0.92568 0.26082 0.0
H36 H 0.02413 0.98696 0.72343 0.0
H37 H 1.00663 0.9734 0.81908 0.0
H38 H 0.04081 0.10229 0.88612 0.0
H39 H 0.05941 0.11517 0.79084 0.0
Tb40 Tb 0.29046 0.73862 0.6917 0.0
Tb41 Tb 0.25782 0.77717 0.80269 0.0
C42 C 0.30026 0.70736 0.59011 0.0
C43 C 0.29189 0.71803 0.5301 0.0
C44 C 0.25509 0.73782 0.51069 0.0
C45 C 0.24888 0.74843 0.4538 0.0
C46 C 0.27942 0.73965 0.4153 0.0
C47 C 0.31612 0.71974 0.4352 0.0
C48 C 0.32219 0.70901 0.49184 0.0
C49 C 0.34088 0.79512 0.75799 0.0
C50 C 0.22508 0.81268 0.68938 0.0
C51 C 0.25009 0.80929 0.90463 0.0
C52 C 0.2574 0.79764 0.96433 0.0
C53 C 0.29473 0.77919 0.98493 0.0
C54 C 0.30028 0.76797 0.04152 0.0
C55 C 0.26868 0.77511 0.0787 0.0
C56 C 0.2315 0.79381 0.05782 0.0
C57 C 0.22598 0.80492 1.00133 0.0
C58 C 0.20882 0.71871 0.73866 0.0
C59 C 0.31931 0.69893 0.80356 0.0
O60 O 0.26782 0.69829 0.61668 0.0
O61 O 0.32869 0.7312 0.62409 0.0
O62 O 0.30136 0.79654 0.74799 0.0
O63 O 0.3534 0.76267 0.72723 0.0
O64 O 0.2409 0.7796 0.6613 0.0
O65 O 0.23403 0.82278 0.74612 0.0
O66 O 0.28318 0.81568 0.87799 0.0
O67 O 0.21984 0.78815 0.87031 0.0
O68 O 0.24825 0.719 0.74798 0.0
O69 O 0.19489 0.75079 0.7687 0.0
O70 O 0.30396 0.73203 0.83282 0.0
O71 O 0.31194 0.69129 0.74629 0.0
H72 H 0.23126 0.74524 0.53945 0.0
H73 H 0.22001 0.76329 0.4399 0.0
H74 H 0.34069 0.71315 0.40739 0.0
H75 H 0.35093 0.69401 0.50606 0.0
H76 H 0.3196 0.77347 0.95742 0.0
H77 H 0.32952 0.75408 0.05631 0.0
H78 H 0.20625 0.79922 0.0848 0.0
H79 H 0.1969 0.81904 0.98633 0.0
Tb80 Tb 0.53286 0.98644 0.08125 0.0
Tb81 Tb 0.49791 0.01896 0.96912 0.0
C82 C 0.56464 0.97686 0.18256 0.0
C83 C 0.55286 0.98364 0.24195 0.0
C84 C 0.58162 0.97465 0.28834 0.0
C85 C 0.57037 0.97861 0.34486 0.0
C86 C 0.53002 0.99165 0.35605 0.0
C87 C 0.50147 1.00131 0.30931 0.0
C88 C 0.5128 0.99734 0.25272 0.0
C89 C 0.46765 0.94356 0.02067 0.0
C90 C 0.46643 0.05924 0.08324 0.0
C91 C 0.46403 0.02555 0.86787 0.0
C92 C 0.47611 0.02018 0.80858 0.0
C93 C 0.44726 0.02936 0.7624 0.0
C94 C 0.45858 0.02617 0.70594 0.0
C95 C 0.49907 0.01368 0.69458 0.0
C96 C 0.52777 1.00397 0.74113 0.0
C97 C 0.51639 1.00725 0.79767 0.0
C98 C 0.56235 0.0626 0.02841 0.0
C99 C 0.57086 0.95093 0.96955 0.0
O100 O 0.57121 1.01044 0.15752 0.0
O101 O 0.54265 0.94768 0.14742 0.0
O102 O 0.47323 0.98265 0.02847 0.0
O103 O 0.49834 0.92687 0.04992 0.0
O104 O 0.49787 0.04108 0.11152 0.0
O105 O 0.45521 0.0491 0.02682 0.0
O106 O 0.4614 0.99146 0.89324 0.0
O107 O 0.48308 0.05674 0.90277 0.0
O108 O 0.55696 0.02351 0.02208 0.0
O109 O 0.53238 0.07884 0.99709 0.0
O110 O 0.5394 0.96825 0.93937 0.0
O111 O 0.57816 0.95933 0.02671 0.0
H112 H 0.61263 0.96386 0.28071 0.0
H113 H 0.59295 0.97038 0.37956 0.0
H114 H 0.47035 0.01194 0.31646 0.0
H115 H 0.49017 1.00444 0.21734 0.0
H116 H 0.41608 0.03957 0.77013 0.0
H117 H 0.43589 0.03445 0.67141 0.0
H118 H 0.559 0.99373 0.73388 0.0
H119 H 0.53912 1.00006 0.83287 0.0
Tb120 Tb 0.28512 0.2758 0.32009 0.0
Tb121 Tb 0.23843 0.2531 0.2016 0.0
C122 C 0.30988 0.29593 0.42646 0.0
C123 C 0.29675 0.29177 0.48405 0.0
C124 C 0.25564 0.27866 0.49097 0.0
C125 C 0.24451 0.27441 0.5465 0.0
C126 C 0.2743 0.28344 0.59604 0.0
C127 C 0.31532 0.29693 0.58852 0.0
C128 C 0.32639 0.30091 0.53312 0.0
C129 C 0.3228 0.22273 0.24877 0.0
C130 C 0.21111 0.2063 0.30147 0.0
C131 C 0.21541 0.23166 0.09501 0.0
C132 C 0.2276 0.23863 0.0378 0.0
C133 C 0.26803 0.254 0.03123 0.0
C134 C 0.27871 0.25965 0.97594 0.0
C135 C 0.24914 0.25001 0.92632 0.0
C136 C 0.20863 0.23489 0.93351 0.0
C137 C 0.19802 0.22931 0.98868 0.0
C138 C 0.19748 0.30301 0.27153 0.0
C139 C 0.31182 0.32489 0.22333 0.0
O140 O 0.28758 0.31994 0.39414 0.0
O141 O 0.3199 0.26139 0.39659 0.0
O142 O 0.28414 0.22342 0.25405 0.0
O143 O 0.34244 0.25143 0.2863 0.0
O144 O 0.23301 0.23584 0.33741 0.0
O145 O 0.2124 0.20335 0.2446 0.0
O146 O 0.24109 0.21038 0.12717 0.0
O147 O 0.20099 0.26389 0.12521 0.0
O148 O 0.23685 0.30513 0.2687 0.0
O149 O 0.18025 0.27416 0.23216 0.0
O150 O 0.28924 0.29649 0.18594 0.0
O151 O 0.31117 0.32595 0.27982 0.0
H152 H 0.23225 0.27167 0.45355 0.0
H153 H 0.21276 0.26357 0.55051 0.0
H154 H 0.33885 0.30496 0.62554 0.0
H155 H 0.35824 0.31128 0.5286 0.0
H156 H 0.29131 0.26141 0.06871 0.0
H157 H 0.31003 0.2718 0.97209 0.0
H158 H 0.18528 0.22653 0.89633 0.0
H159 H 0.16669 0.21731 0.99293 0.0
Tb160 Tb 0.77015 0.23657 0.22095 0.0
Tb161 Tb 0.74296 0.27796 0.33432 0.0
C162 C 0.77519 0.20348 0.11846 0.0
C163 C 0.77109 0.21654 0.05957 0.0
C164 C 0.77941 0.18791 1.01255 0.0
C165 C 0.77758 0.20004 0.9566 0.0
C166 C 0.76735 0.24117 0.94645 0.0
C167 C 0.75851 0.26967 0.99385 0.0
C168 C 0.76039 0.25747 0.04986 0.0
C169 C 0.81917 0.2991 0.27744 0.0
C170 C 0.7042 0.30993 0.22049 0.0
C171 C 0.74215 0.31356 0.43643 0.0
C172 C 0.74741 0.30117 0.49568 0.0
C173 C 0.73949 0.33006 0.54265 0.0
C174 C 0.74194 0.31829 0.59885 0.0
C175 C 0.75235 0.27725 0.60926 0.0
C176 C 0.76099 0.24857 0.56196 0.0
C177 C 0.75846 0.26039 0.50574 0.0
C178 C 0.69146 0.21802 0.27878 0.0
C179 C 0.80393 0.19916 0.33218 0.0
O180 O 0.74079 0.20264 0.14394 0.0
O181 O 0.80738 0.22001 0.15391 0.0
O182 O 0.77977 0.29674 0.27132 0.0
O183 O 0.83303 0.26629 0.24908 0.0
O184 O 0.71883 0.27613 0.19253 0.0
O185 O 0.71621 0.32186 0.27637 0.0
O186 O 0.77559 0.31238 0.40867 0.0
O187 O 0.7085 0.2979 0.40317 0.0
O188 O 0.73106 0.21869 0.2826 0.0
O189 O 0.67969 0.24981 0.31164 0.0
O190 O 0.79118 0.23361 0.36151 0.0
O191 O 0.79259 0.18977 0.27581 0.0
H192 H 0.78794 0.15623 0.01923 0.0
H193 H 0.78517 0.1774 0.92155 0.0
H194 H 0.74999 0.30141 0.98766 0.0
H195 H 0.75387 0.28008 0.08563 0.0
H196 H 0.73068 0.36162 0.5357 0.0
H197 H 0.73453 0.34107 0.63386 0.0
H198 H 0.76968 0.2169 0.56834 0.0
H199 H 0.76464 0.23756 0.47006 0.0
Tb200 Tb 0.79061 0.77704 0.83018 0.0
Tb201 Tb 0.75026 0.7472 0.71001 0.0
C202 C 0.81116 0.79964 0.93694 0.0
C203 C 0.79704 0.79176 0.99279 0.0
C204 C 0.80285 0.82332 0.04001 0.0
C205 C 0.79416 0.81498 0.09511 0.0
C206 C 0.77942 0.77484 0.10389 0.0
C207 C 0.77196 0.74382 0.05576 0.0
C208 C 0.78091 0.75213 1.00086 0.0
C209 C 0.83478 0.72493 0.76712 0.0
C210 C 0.72162 0.70299 0.81082 0.0
C211 C 0.73733 0.71759 0.60437 0.0
C212 C 0.73911 0.73078 0.5465 0.0
C213 C 0.72889 0.70126 0.49765 0.0
C214 C 0.73146 0.71233 0.44202 0.0
C215 C 0.74458 0.75319 0.43414 0.0
C216 C 0.75429 0.78295 0.48342 0.0
C217 C 0.75152 0.77181 0.53921 0.0
C218 C 0.70382 0.79865 0.76962 0.0
C219 C 0.81576 0.82664 0.73211 0.0
O220 O 0.78648 0.82095 0.90355 0.0
O221 O 0.82695 0.76783 0.90758 0.0
O222 O 0.79559 0.72227 0.76908 0.0
O223 O 0.85059 0.75676 0.80248 0.0
O224 O 0.73896 0.73563 0.84581 0.0
O225 O 0.72805 0.69706 0.75548 0.0
O226 O 0.77343 0.7165 0.6365 0.0
O227 O 0.70808 0.73375 0.63403 0.0
O228 O 0.74355 0.80127 0.77149 0.0
O229 O 0.68901 0.76971 0.72874 0.0
O230 O 0.7944 0.79733 0.69464 0.0
O231 O 0.81514 0.82765 0.78872 0.0
H232 H 0.81548 0.85404 0.0347 0.0
H233 H 0.80065 0.83948 0.13121 0.0
H234 H 0.75996 0.71279 0.06071 0.0
H235 H 0.77653 0.7272 0.96512 0.0
H236 H 0.71905 0.66948 0.50256 0.0
H237 H 0.72298 0.68885 0.4051 0.0
H238 H 0.76481 0.81458 0.47896 0.0
H239 H 0.75933 0.79502 0.57659 0.0
Tb240 Tb 0.50715 0.49487 0.9656 0.0
Tb241 Tb 0.52831 0.54244 0.0843 0.0
C242 C 0.48926 0.46877 0.85938 0.0
C243 C 0.49652 0.48091 0.80221 0.0
C244 C 0.46464 0.4727 0.75558 0.0
C245 C 0.47184 0.48073 0.6998 0.0
C246 C 0.51112 0.49729 0.68963 0.0
C247 C 0.54262 0.50662 0.73698 0.0
C248 C 0.53544 0.49832 0.79265 0.0
C249 C 0.55819 0.45785 0.03916 0.0
C250 C 0.57742 0.56855 0.9857 0.0
C251 C 0.54911 0.5654 0.19088 0.0
C252 C 0.53991 0.55441 0.24774 0.0
C253 C 0.57042 0.56382 0.29576 0.0
C254 C 0.56193 0.55587 0.35098 0.0
C255 C 0.52267 0.53821 0.35924 0.0
C256 C 0.49232 0.52816 0.31067 0.0
C257 C 0.50087 0.53623 0.25537 0.0
C258 C 0.47889 0.58201 1.01262 0.0
C259 C 0.45562 0.46992 0.06151 0.0
O260 O 0.46471 0.49233 0.88944 0.0
O261 O 0.52218 0.45749 0.89174 0.0
O262 O 0.55856 0.49622 0.03323 0.0
O263 O 0.5296 0.43828 1.00138 0.0
O264 O 0.54861 0.54619 0.94881 0.0
O265 O 0.57909 0.56776 0.0425 0.0
O266 O 0.56963 0.53811 0.15988 0.0
O267 O 0.51853 0.58151 0.15947 0.0
O268 O 0.47715 0.54297 1.01595 0.0
O269 O 0.50671 0.6 0.05295 0.0
O270 O 0.4837 0.49263 0.09937 0.0
O271 O 0.45544 0.47015 1.005 0.0
H272 H 0.43446 0.45904 0.76202 0.0
H273 H 0.44705 0.47267 0.66438 0.0
H274 H 0.573 0.52 0.73097 0.0
H275 H 0.56059 0.50462 0.82792 0.0
H276 H 0.60066 0.57805 0.29071 0.0
H277 H 0.58579 0.56455 0.38743 0.0
H278 H 0.46198 0.51408 0.31539 0.0
H279 H 0.47686 0.52883 0.21878 0.0
Tb280 Tb 0.03083 0.49502 0.57636 0.0
Tb281 Tb 0.98707 0.51862 0.46265 0.0
C282 C 0.0646 0.49314 0.67912 0.0
C283 C 0.05351 0.50048 0.73913 0.0
C284 C 0.02196 0.52795 0.75449 0.0
C285 C 1.01178 0.53343 0.81177 0.0
C286 C 0.03284 0.51142 0.85468 0.0
C287 C 0.06448 0.48407 0.83881 0.0
C288 C 0.07463 0.47868 0.78172 0.0
C289 C 0.97846 0.43773 0.51521 0.0
C290 C 0.94746 0.54885 0.57438 0.0
C291 C 0.95253 0.51962 0.36003 0.0
C292 C 0.96384 0.51391 0.30001 0.0
C293 C 0.99558 0.487 0.28379 0.0
C294 C 1.0055 0.48223 0.22643 0.0
C295 C 0.98397 0.50444 0.18415 0.0
C296 C 0.95236 0.53154 0.20089 0.0
C297 C 0.94245 0.53618 0.25816 0.0
C298 C 0.03942 0.57587 0.52292 0.0
C299 C 0.07276 0.46698 0.46594 0.0
O300 O 0.06699 0.52577 0.65062 0.0
O301 O 0.04577 0.46072 0.64671 0.0
O302 O 0.97323 0.47658 0.52216 0.0
O303 O 1.01291 0.42943 0.54581 0.0
O304 O 0.98302 0.53873 0.60362 0.0
O305 O 0.93839 0.53706 0.51797 0.0
O306 O 0.95276 0.4865 0.38793 0.0
O307 O 0.96909 0.55286 0.39302 0.0
O308 O 0.04451 0.53702 0.51652 0.0
O309 O 1.00529 0.58432 0.49175 0.0
O310 O 0.03743 0.47723 0.43578 0.0
O311 O 0.08034 0.47746 0.52275 0.0
H312 H 1.00506 0.54497 0.72229 0.0
H313 H 0.98697 0.55443 0.82221 0.0
H314 H 0.08183 0.46712 0.87071 0.0
H315 H 0.09909 0.45735 0.77077 0.0
H316 H 1.01269 0.46971 0.3154 0.0
H317 H 0.03037 0.46147 0.21538 0.0
H318 H 0.93473 0.54871 0.1695 0.0
H319 H 0.91783 0.55713 0.26975 0.0
H320 H 0.08116 0.07581 0.37158 0.0
H321 H 0.13736 0.1261 0.54333 0.0
H322 H 0.18457 0.17172 0.5009 0.0
H323 H 0.20888 0.19791 0.41553 0.0
H324 H 0.15246 0.14805 0.24372 0.0
H325 H 0.10624 0.1013 0.28602 0.0
C326 C 0.10365 0.09675 0.39991 0.0
C327 C 0.10551 0.09764 0.46068 0.0
C328 C 0.13062 0.12286 0.37524 0.0
C329 C 0.13522 0.12472 0.4965 0.0
C330 C 0.16219 0.15086 0.47225 0.0
C331 C 0.18646 0.17694 0.38715 0.0
C332 C 0.18402 0.17674 0.32644 0.0
C333 C 0.15999 0.1503 0.41173 0.0
C334 C 0.15506 0.14889 0.29052 0.0
C335 C 0.12856 0.12221 0.3147 0.0
H336 H 0.07077 0.87645 0.53459 0.0
H337 H 0.12793 0.99667 0.60656 0.0
H338 H 0.18243 0.96231 0.66447 0.0
H339 H 0.21458 0.89731 0.69403 0.0
H340 H 0.16196 0.7776 0.61165 0.0
H341 H 0.10546 0.8122 0.5582 0.0
C342 C 0.09512 0.8951 0.56305 0.0
C343 C 0.09448 0.93905 0.56779 0.0
C344 C 0.12745 0.87508 0.59411 0.0
C345 C 0.12681 0.96281 0.60377 0.0
C346 C 0.15827 0.94315 0.63646 0.0
C347 C 0.19068 0.87902 0.66432 0.0
C348 C 0.19224 0.83508 0.65681 0.0
C349 C 0.15891 0.89924 0.63212 0.0
C350 C 0.16147 0.81155 0.61778 0.0
C351 C 0.12907 0.83127 0.58734 0.0
H352 H 0.32939 0.87237 0.81521 0.0
H353 H 0.4117 0.76777 0.81385 0.0
H354 H 0.45671 0.80335 0.89711 0.0
H355 H 0.4741 0.86484 0.96877 0.0
H356 H 0.3942 0.97111 0.96944 0.0
H357 H 0.34667 0.93435 0.88865 0.0
C358 C 0.35715 0.85752 0.83343 0.0
C359 C 0.3673 0.81764 0.80848 0.0
C360 C 0.38325 0.8784 0.88126 0.0
C361 C 0.40341 0.79864 0.83207 0.0
C362 C 0.4291 0.81885 0.87986 0.0
C363 C 0.44604 0.87975 0.95155 0.0
C364 C 0.43754 0.9205 0.97478 0.0
C365 C 0.41949 0.8588 0.9046 0.0
C366 C 0.40131 0.93968 0.95196 0.0
C367 C 0.37424 0.91873 0.90576 0.0
H368 H 0.38202 0.07212 0.07992 0.0
H369 H 0.50361 0.12132 0.16123 0.0
H370 H 0.47038 0.17779 0.217 0.0
H371 H 0.40654 0.21264 0.24432 0.0
H372 H 0.28468 0.15739 0.17458 0.0
H373 H 0.31774 0.10437 0.11262 0.0
C374 C 0.40105 0.09541 0.10967 0.0
C375 C 0.44514 0.09299 0.11601 0.0
C376 C 0.38158 0.12685 0.14359 0.0
C377 C 0.46958 0.12275 0.15549 0.0
C378 C 0.45061 0.15502 0.18743 0.0
C379 C 0.38725 0.18908 0.21537 0.0
C380 C 0.34312 0.18994 0.21246 0.0
C381 C 0.40662 0.15731 0.18209 0.0
C382 C 0.3186 0.15856 0.17583 0.0
C383 C 0.33755 0.12785 0.14088 0.0
H384 H 0.94473 0.96539 0.67915 0.0
H385 H 0.89979 0.91435 0.503 0.0
H386 H 0.85137 0.86645 0.53858 0.0
H387 H 0.82349 0.83707 0.61941 0.0
H388 H 0.8678 0.88812 0.79569 0.0
H389 H 0.91455 0.93785 0.76018 0.0
C390 C 0.92428 0.94391 0.64849 0.0
C391 C 0.92618 0.94348 0.58846 0.0
C392 C 0.89634 0.91628 0.66921 0.0
C393 C 0.89916 0.9155 0.54946 0.0
C394 C 0.87141 0.88795 0.56973 0.0
C395 C 0.84307 0.85923 0.65015 0.0
C396 C 0.84203 0.85864 0.71016 0.0
C397 C 0.86997 0.88781 0.6295 0.0
C398 C 0.8678 0.88773 0.74922 0.0
C399 C 0.89469 0.91621 0.72898 0.0
H400 H 0.91698 0.05888 0.43205 0.0
H401 H 0.96487 0.16574 0.55251 0.0
H402 H 0.91328 0.20986 0.50707 0.0
H403 H 0.8569 0.2194 0.4305 0.0
H404 H 0.81316 0.11516 0.30288 0.0
H405 H 0.86102 0.06894 0.35282 0.0
C406 C 0.91626 0.09178 0.44795 0.0
C407 C 0.94502 0.10894 0.49522 0.0
C408 C 0.88733 0.11758 0.42013 0.0
C409 C 0.94329 0.15168 0.51592 0.0
C410 C 0.91376 0.17705 0.48999 0.0
C411 C 0.85756 0.18647 0.41391 0.0
C412 C 0.8314 0.17066 0.36336 0.0
C413 C 0.88597 0.16049 0.44171 0.0
C414 C 0.83307 0.12808 0.3418 0.0
C415 C 0.8604 0.10163 0.37035 0.0
H416 H 0.70536 0.14228 0.22056 0.0
H417 H 0.61353 0.2381 0.23601 0.0
H418 H 0.56642 0.19938 0.15746 0.0
H419 H 0.55142 0.13869 0.08399 0.0
H420 H 0.63916 0.03898 0.07371 0.0
H421 H 0.68815 0.07879 0.1502 0.0
C422 C 0.67497 0.15443 0.20661 0.0
C423 C 0.66292 0.19296 0.23339 0.0
C424 C 0.64757 0.13149 0.16222 0.0
C425 C 0.62336 0.2084 0.21584 0.0
C426 C 0.5965 0.18642 0.17082 0.0
C427 C 0.58137 0.12585 0.09846 0.0
C428 C 0.59214 0.08643 0.07332 0.0
C429 C 0.60836 0.14808 0.14358 0.0
C430 C 0.63057 0.06954 0.09267 0.0
C431 C 0.65842 0.09219 0.13631 0.0
H432 H 0.71312 0.83504 0.88131 0.0
H433 H 0.63251 0.83035 0.72013 0.0
H434 H 0.58446 0.87823 0.76662 0.0
H435 H 0.56435 0.91973 0.85445 0.0
H436 H 0.64487 0.92175 1.01642 0.0
H437 H 0.6941 0.87712 0.96838 0.0
C438 C 0.68582 0.84545 0.85614 0.0
C439 C 0.677 0.83006 0.79727 0.0
C440 C 0.65798 0.87223 0.88353 0.0
C441 C 0.64015 0.84216 0.76559 0.0
C442 C 0.61263 0.86945 0.79215 0.0
C443 C 0.59275 0.91059 0.87916 0.0
C444 C 0.60071 0.92418 0.93903 0.0
C445 C 0.62102 0.88442 0.85134 0.0
C446 C 0.63766 0.91175 0.97036 0.0
C447 C 0.66602 0.88622 0.94292 0.0
H448 H 0.59167 0.56903 0.873 0.0
H449 H 0.6315 0.62973 0.04596 0.0
H450 H 0.67965 0.67635 1.00692 0.0
H451 H 0.70884 0.70091 0.92369 0.0
H452 H 0.67146 0.6383 0.7511 0.0
H453 H 0.62367 0.59124 0.79017 0.0
C454 C 0.61099 0.59223 0.90229 0.0
C455 C 0.60783 0.5958 0.96236 0.0
C456 C 0.63893 0.61862 0.87962 0.0
C457 C 0.63327 0.62615 0.99958 0.0
C458 C 0.66077 0.65291 0.97728 0.0
C459 C 0.69067 0.67675 0.89454 0.0
C460 C 0.69395 0.67316 0.8345 0.0
C461 C 0.66368 0.64953 0.91736 0.0
C462 C 0.66975 0.64175 0.79749 0.0
C463 C 0.64233 0.61486 0.81979 0.0
H464 H 0.69933 0.39472 0.21877 0.0
H465 H 0.63861 0.27604 0.14673 0.0
H466 H 0.58653 0.31146 0.08703 0.0
H467 H 0.55962 0.37571 0.05235 0.0
H468 H 0.62505 0.494 0.11341 0.0
H469 H 0.67362 0.45967 0.18033 0.0
C470 C 0.67435 0.37691 0.19039 0.0
C471 C 0.6723 0.33299 0.18758 0.0
C472 C 0.64544 0.39745 0.15411 0.0
C473 C 0.64049 0.30994 0.14983 0.0
C474 C 0.61079 0.33013 0.11555 0.0
C475 C 0.58442 0.394 0.08047 0.0
C476 C 0.58806 0.43745 0.07915 0.0
C477 C 0.6132 0.37379 0.11686 0.0
C478 C 0.62077 0.46067 0.11506 0.0
C479 C 0.64881 0.44097 0.15292 0.0
H480 H 0.90017 0.44649 0.461 0.0
H481 H 1.00225 0.36118 0.47085 0.0
H482 H 0.96283 0.31125 0.39598 0.0
H483 H 0.89885 0.29156 0.32809 0.0
H484 H 0.79593 0.37595 0.3205 0.0
H485 H 0.83616 0.42673 0.39344 0.0
C486 C 0.91368 0.41696 0.44658 0.0
C487 C 0.95395 0.40746 0.47112 0.0
C488 C 0.89077 0.38838 0.4037 0.0
C489 C 0.97115 0.36904 0.45261 0.0
C490 C 0.94873 0.34058 0.40967 0.0
C491 C 0.88551 0.32125 0.34214 0.0
C492 C 0.8447 0.33023 0.31902 0.0
C493 C 0.90851 0.34991 0.38486 0.0
C494 C 0.8274 0.36851 0.33786 0.0
C495 C 0.8503 0.39746 0.37959 0.0
H496 H 0.80784 0.65702 0.68758 0.0
H497 H 0.91966 0.72263 0.7783 0.0
H498 H 0.96381 0.67264 0.72904 0.0
H499 H 0.97118 0.61155 0.65883 0.0
H500 H 0.86095 0.5498 0.55874 0.0
H501 H 0.81557 0.59745 0.61185 0.0
C502 C 0.84184 0.66068 0.69583 0.0
C503 C 0.8604 0.69381 0.73617 0.0
C504 C 0.86729 0.63256 0.66559 0.0
C505 C 0.90453 0.69758 0.74732 0.0
C506 C 0.92987 0.669 0.71916 0.0
C507 C 0.93717 0.60832 0.64891 0.0
C508 C 0.91931 0.57692 0.6056 0.0
C509 C 0.91163 0.63653 0.6781 0.0
C510 C 0.87532 0.57369 0.59214 0.0
C511 C 0.84945 0.60088 0.62254 0.0
H512 H 0.31876 0.3374 0.11083 0.0
H513 H 0.36816 0.38176 0.28783 0.0
H514 H 0.41605 0.4309 0.25364 0.0
H515 H 0.44545 0.46015 0.17375 0.0
H516 H 0.39586 0.41651 0.99667 0.0
H517 H 0.34679 0.36835 0.0308 0.0
C518 C 0.33993 0.35783 0.14197 0.0
C519 C 0.3398 0.35563 0.20182 0.0
C520 C 0.36753 0.38621 0.12206 0.0
C521 C 0.36741 0.38263 0.24147 0.0
C522 C 0.39496 0.41079 0.222 0.0
C523 C 0.42375 0.44039 0.14255 0.0
C524 C 0.4245 0.44213 0.08272 0.0
C525 C 0.39547 0.41271 0.16241 0.0
C526 C 0.3961 0.41601 0.04303 0.0
C527 C 0.36797 0.38833 0.06247 0.0
H528 H 0.43507 0.56173 0.90525 0.0
H529 H 0.45009 0.6568 0.05281 0.0
H530 H 0.39992 0.70022 1.00258 0.0
H531 H 0.35518 0.71297 0.91506 0.0
H532 H 0.3427 0.6201 0.76449 0.0
H533 H 0.38872 0.57401 0.81725 0.0
C534 C 0.4269 0.59156 0.9265 0.0
C535 C 0.44608 0.60588 0.98258 0.0
C536 C 0.39886 0.61695 0.89661 0.0
C537 C 0.43579 0.64515 1.00945 0.0
C538 C 0.40714 0.67002 0.9808 0.0
C539 C 0.36202 0.68246 0.89392 0.0
C540 C 0.34535 0.66998 0.83603 0.0
C541 C 0.38897 0.65651 0.92408 0.0
C542 C 0.35516 0.63053 0.80906 0.0
C543 C 0.38144 0.60412 0.8392 0.0
H544 H 0.12821 0.7259 0.69379 0.0
H545 H 0.23124 0.64154 0.69419 0.0
H546 H 0.18745 0.58905 0.62799 0.0
H547 H 0.1197 0.56742 0.56978 0.0
H548 H 0.01787 0.65324 0.56632 0.0
H549 H 0.0612 0.70499 0.63406 0.0
C550 C 0.14091 0.69593 0.67945 0.0
C551 C 0.18261 0.6873 0.69876 0.0
C552 C 0.1158 0.66631 0.6409 0.0
C553 C 0.1991 0.6487 0.67961 0.0
C554 C 0.17411 0.61874 0.64192 0.0
C555 C 0.10714 0.59747 0.58405 0.0
C556 C 0.06586 0.6067 0.56342 0.0
C557 C 0.13242 0.62722 0.62227 0.0
C558 C 0.04977 0.6457 0.58161 0.0
C559 C 0.07444 0.6752 0.62037 0.0
H560 H 0.21834 0.35655 0.3723 0.0
H561 H 0.11887 0.32275 0.23261 0.0
H562 H 0.07292 0.37237 0.27829 0.0
H563 H 0.05892 0.42179 0.36017 0.0
H564 H 0.15558 0.45426 0.50382 0.0
H565 H 0.20441 0.40854 0.45496 0.0
C566 C 0.18681 0.36039 0.35184 0.0
C567 C 0.17213 0.33589 0.29923 0.0
C568 C 0.15983 0.38848 0.37929 0.0
C569 C 0.13096 0.341 0.27331 0.0
C570 C 0.10455 0.36941 0.29936 0.0
C571 C 0.09087 0.41959 0.38045 0.0
C572 C 0.1036 0.44177 0.43529 0.0
C573 C 0.11839 0.39283 0.35269 0.0
C574 C 0.14492 0.43757 0.46149 0.0
C575 C 0.17288 0.41142 0.43356 0.0
H576 H 0.066 0.06572 0.96562 0.0
H577 H 0.95707 0.98897 0.88796 0.0
H578 H 0.94182 0.97436 0.98399 0.0
H579 H 0.95924 0.98339 0.09001 0.0
H580 H 0.06782 0.06051 0.16773 0.0
H581 H 0.08245 0.0761 0.07175 0.0
C582 C 0.03857 0.04623 0.96961 0.0
C583 C 1.01281 0.02844 0.91936 0.0
C584 C 0.02971 0.03825 0.02506 0.0
C585 C 0.97786 1.00261 0.92562 0.0
C586 C 0.96892 0.99445 0.98062 0.0
C587 C 0.98627 1.00341 0.08597 0.0
C588 C 1.01245 0.02062 0.13611 0.0
C589 C 0.99471 0.01197 0.0306 0.0
C590 C 0.04687 0.04717 0.13003 0.0
C591 C 0.05544 0.05586 0.07509 0.0
H592 H 0.30046 0.69593 0.31546 0.0
H593 H 0.24549 0.81125 0.37937 0.0
H594 H 0.23712 0.83206 0.28155 0.0
H595 H 0.2468 0.81843 0.1781 0.0
H596 H 0.30262 0.70358 0.11443 0.0
H597 H 0.31052 0.68248 0.21219 0.0
C598 C 0.287 0.72582 0.30824 0.0
C599 C 0.2736 0.75187 0.3551 0.0
C600 C 0.28279 0.73794 0.25189 0.0
C601 C 0.25551 0.79016 0.34429 0.0
C602 C 0.25102 0.80229 0.28832 0.0
C603 C 0.26039 0.78861 0.18544 0.0
C604 C 0.27408 0.76269 0.13872 0.0
C605 C 0.26461 0.77649 0.2418 0.0
C606 C 0.29228 0.72447 0.1495 0.0
C607 C 0.29654 0.71221 0.2054 0.0
H608 H 0.45179 0.98459 0.59236 0.0
H609 H 0.57437 0.03888 0.66191 0.0
H610 H 0.59462 0.03701 0.56388 0.0
H611 H 0.57722 0.02107 0.4582 0.0
H612 H 0.45461 0.96687 0.38869 0.0
H613 H 0.43433 0.96885 0.48671 0.0
C614 C 0.48283 0.99634 0.58611 0.0
C615 C 0.5115 1.01177 0.63466 0.0
C616 C 0.49417 0.99558 0.52951 0.0
C617 C 0.55184 0.02623 0.62557 0.0
C618 C 0.56336 0.02548 0.56943 0.0
C619 C 0.54615 1.00941 0.46447 0.0
C620 C 0.5175 0.99392 0.41594 0.0
C621 C 0.53479 1.01025 0.52107 0.0
C622 C 0.47713 0.97955 0.42502 0.0
C623 C 0.46559 0.98036 0.48116 0.0
H624 H 0.20108 0.28017 0.83689 0.0
H625 H 0.32294 0.23005 0.88228 0.0
H626 H 0.34123 0.23577 0.78463 0.0
H627 H 0.32216 0.25344 0.68572 0.0
H628 H 0.20054 0.30413 0.64032 0.0
H629 H 0.18219 0.29837 0.73796 0.0
C630 C 0.23155 0.27022 0.82536 0.0
C631 C 0.26057 0.25471 0.86711 0.0
C632 C 0.24177 0.27326 0.76887 0.0
C633 C 0.30017 0.24263 0.85147 0.0
C634 C 0.31056 0.24559 0.79542 0.0
C635 C 0.29177 0.26365 0.69723 0.0
C636 C 0.26283 0.27922 0.65543 0.0
C637 C 0.28158 0.26076 0.75374 0.0
C638 C 0.22328 0.29148 0.67112 0.0
C639 C 0.21285 0.28851 0.72718 0.0
H640 H 0.738 0.19642 0.84206 0.0
H641 H 0.79615 0.31589 0.91675 0.0
H642 H 0.79662 0.3375 0.81992 0.0
H643 H 0.78175 0.32217 0.71366 0.0
H644 H 0.72359 0.20265 0.63913 0.0
H645 H 0.72316 0.18109 0.73593 0.0
C646 C 0.75112 0.22707 0.83725 0.0
C647 C 0.76692 0.25444 0.88701 0.0
C648 C 0.75168 0.23923 0.78125 0.0
C649 C 0.78314 0.29432 0.87958 0.0
C650 C 0.78374 0.30664 0.82406 0.0
C651 C 0.76867 0.29151 0.71851 0.0
C652 C 0.75287 0.2641 0.66878 0.0
C653 C 0.76812 0.27936 0.77454 0.0
C654 C 0.73663 0.22424 0.67626 0.0
C655 C 0.73605 0.21195 0.73177 0.0
H656 H 0.77618 0.70571 0.34603 0.0
H657 H 0.72206 0.82561 0.38861 0.0
H658 H 0.7278 0.84294 0.29038 0.0
H659 H 0.74715 0.82338 0.19169 0.0
H660 H 0.8014 0.70324 0.15044 0.0
H661 H 0.79529 0.68621 0.24823 0.0
C662 C 0.76518 0.73548 0.33374 0.0
C663 C 0.74855 0.76421 0.37469 0.0
C664 C 0.7682 0.74505 0.27715 0.0
C665 C 0.73538 0.80304 0.35822 0.0
C666 C 0.73838 0.81286 0.30191 0.0
C667 C 0.75783 0.79356 0.20419 0.0
C668 C 0.77443 0.76456 0.16342 0.0
C669 C 0.75469 0.78406 0.26095 0.0
C670 C 0.78772 0.72588 0.18035 0.0
C671 C 0.7846 0.71621 0.23652 0.0
H672 H 0.45825 0.52622 0.60371 0.0
H673 H 0.58348 0.48087 0.64007 0.0
H674 H 0.59783 0.48918 0.54155 0.0
H675 H 0.5747 0.50831 0.44457 0.0
H676 H 0.44947 0.55329 0.40757 0.0
H677 H 0.43482 0.5447 0.50612 0.0
C678 C 0.48857 0.51782 0.59 0.0
C679 C 0.51977 0.50314 0.62959 0.0
C680 C 0.49651 0.52216 0.53289 0.0
C681 C 0.55909 0.49298 0.61107 0.0
C682 C 0.56724 0.49736 0.55449 0.0
C683 C 0.54428 0.51651 0.45814 0.0
C684 C 0.51328 0.53146 0.41861 0.0
C685 C 0.53621 0.51192 0.51505 0.0
C686 C 0.47376 0.54121 0.43674 0.0
C687 C 0.46546 0.53662 0.49329 0.0
H688 H 0.02647 0.45134 0.92755 0.0
H689 H 0.01536 0.58426 0.91972 0.0
H690 H 0.99912 0.59376 0.02012 0.0
H691 H 0.98945 0.56463 0.11103 0.0
H692 H 1.00074 0.4317 0.11866 0.0
H693 H 0.01663 0.42222 1.01818 0.0
C694 C 0.02086 0.48248 0.94787 0.0
C695 C 0.02221 0.51701 0.9158 0.0
C696 C 1.01187 0.48782 1.0059 0.0
C697 C 1.01404 0.55699 0.94284 0.0
C698 C 1.00502 0.56252 1.0005 0.0
C699 C 0.99504 0.53351 0.09063 0.0
C700 C 0.99396 0.49897 0.12273 0.0
C701 C 1.0039 0.52818 0.03251 0.0
C702 C 1.00195 0.45899 0.09556 0.0
C703 C 1.01077 0.45347 0.03785 0.0
loop_
_geom_bond_atom_site_label_1
_geom_bond_atom_site_label_2
_geom_bond_distance
_geom_bond_site_symmetry_2
_ccdc_geom_bond_type
Tb0 C2 2.809 1_655 S
Tb0 O20 2.484 . S
Tb0 O21 2.440 1_655 S
Tb0 O22 2.658 1_655 S
Tb0 O23 2.409 1_655 S
Tb0 O24 2.378 1_665 S
Tb0 O28 2.325 1_565 S
Tb0 O31 2.341 . S
Tb1 C11 2.809 1_455 S
Tb1 O22 2.325 1_545 S
Tb1 O25 2.341 . S
Tb1 O26 2.484 . S
Tb1 O27 2.440 1_455 S
Tb1 O28 2.658 1_455 S
Tb1 O29 2.409 1_455 S
Tb1 O30 2.378 1_445 S
C2 Tb0 2.809 1_455 S
C2 C3 1.514 . S
C2 O20 1.248 1_455 S
C2 O21 1.266 . S
C3 C2 1.514 . S
C3 C4 1.359 1_455 S
C3 C8 1.348 . S
C4 C3 1.359 1_655 S
C4 C5 1.380 1_655 S
C4 H32 0.929 1_565 S
C5 C4 1.380 1_455 S
C5 C6 1.347 . S
C5 H33 0.931 1_465 S
C6 C5 1.347 . S
C6 C7 1.369 . S
C7 C6 1.369 . S
C7 C8 1.408 . S
C7 H34 0.930 . S
C8 C3 1.348 . S
C8 C7 1.408 . S
C8 H35 0.930 . S
C9 O22 1.281 . S
C9 O23 1.254 . S
C10 O24 1.236 . S
C10 O25 1.266 . S
C11 Tb1 2.809 1_655 S
C11 C12 1.514 . S
C11 O26 1.248 1_655 S
C11 O27 1.266 . S
C12 C11 1.514 . S
C12 C13 1.359 1_655 S
C12 C17 1.348 . S
C13 C12 1.359 1_455 S
C13 C14 1.380 1_455 S
C13 H36 0.929 1_545 S
C14 C13 1.380 1_655 S
C14 C15 1.347 . S
C14 H37 0.931 1_645 S
C15 C14 1.347 . S
C15 C16 1.369 . S
C16 C15 1.369 . S
C16 C17 1.408 . S
C16 H38 0.930 . S
C17 C12 1.348 . S
C17 C16 1.408 . S
C17 H39 0.930 . S
C18 O28 1.281 . S
C18 O29 1.254 . S
C19 O30 1.236 . S
C19 O31 1.266 . S
O20 Tb0 2.484 . S
O20 C2 1.248 1_655 S
O21 Tb0 2.440 1_455 S
O21 C2 1.266 . S
O22 Tb0 2.658 1_455 S
O22 Tb1 2.325 1_565 S
O22 C9 1.281 . S
O23 Tb0 2.409 1_455 S
O23 C9 1.254 . S
O24 Tb0 2.378 1_445 S
O24 C10 1.236 . S
O25 Tb1 2.341 . S
O25 C10 1.266 . S
O26 Tb1 2.484 . S
O26 C11 1.248 1_455 S
O27 Tb1 2.440 1_655 S
O27 C11 1.266 . S
O28 Tb0 2.325 1_545 S
O28 Tb1 2.658 1_655 S
O28 C18 1.281 . S
O29 Tb1 2.409 1_655 S
O29 C18 1.254 . S
O30 Tb1 2.378 1_665 S
O30 C19 1.236 . S
O31 Tb0 2.341 . S
O31 C19 1.266 . S
H32 C4 0.929 1_545 S
H33 C5 0.931 1_645 S
H34 C7 0.930 . S
H35 C8 0.930 . S
H36 C13 0.929 1_565 S
H37 C14 0.931 1_465 S
H38 C16 0.930 . S
H39 C17 0.930 . S
Tb40 C42 2.809 . S
Tb40 O60 2.484 . S
Tb40 O61 2.440 . S
Tb40 O62 2.658 . S
Tb40 O63 2.409 . S
Tb40 O64 2.378 . S
Tb40 O68 2.325 . S
Tb40 O71 2.341 . S
Tb41 C51 2.809 . S
Tb41 O62 2.325 . S
Tb41 O65 2.341 . S
Tb41 O66 2.484 . S
Tb41 O67 2.440 . S
Tb41 O68 2.658 . S
Tb41 O69 2.409 . S
Tb41 O70 2.378 . S
C42 Tb40 2.809 . S
C42 C43 1.514 . S
C42 O60 1.248 . S
C42 O61 1.266 . S
C43 C42 1.514 . S
C43 C44 1.359 . S
C43 C48 1.348 . S
C44 C43 1.359 . S
C44 C45 1.380 . S
C44 H72 0.929 . S
C45 C44 1.380 . S
C45 C46 1.347 . S
C45 H73 0.931 . S
C46 C45 1.347 . S
C46 C47 1.369 . S
C47 C46 1.369 . S
C47 C48 1.408 . S
C47 H74 0.930 . S
C48 C43 1.348 . S
C48 C47 1.408 . S
C48 H75 0.930 . S
C49 O62 1.281 . S
C49 O63 1.254 . S
C50 O64 1.236 . S
C50 O65 1.266 . S
C51 Tb41 2.809 . S
C51 C52 1.514 . S
C51 O66 1.248 . S
C51 O67 1.266 . S
C52 C51 1.514 . S
C52 C53 1.359 1_556 S
C52 C57 1.348 . S
C53 C52 1.359 1_554 S
C53 C54 1.380 . S
C53 H76 0.929 . S
C54 C53 1.380 . S
C54 C55 1.347 . S
C54 H77 0.931 . S
C55 C54 1.347 . S
C55 C56 1.369 . S
C56 C55 1.369 . S
C56 C57 1.408 1_554 S
C56 H78 0.930 . S
C57 C52 1.348 . S
C57 C56 1.408 1_556 S
C57 H79 0.930 . S
C58 O68 1.281 . S
C58 O69 1.254 . S
C59 O70 1.236 . S
C59 O71 1.266 . S
O60 Tb40 2.484 . S
O60 C42 1.248 . S
O61 Tb40 2.440 . S
O61 C42 1.266 . S
O62 Tb40 2.658 . S
O62 Tb41 2.325 . S
O62 C49 1.281 . S
O63 Tb40 2.409 . S
O63 C49 1.254 . S
O64 Tb40 2.378 . S
O64 C50 1.236 . S
O65 Tb41 2.341 . S
O65 C50 1.266 . S
O66 Tb41 2.484 . S
O66 C51 1.248 . S
O67 Tb41 2.440 . S
O67 C51 1.266 . S
O68 Tb40 2.325 . S
O68 Tb41 2.658 . S
O68 C58 1.281 . S
O69 Tb41 2.409 . S
O69 C58 1.254 . S
O70 Tb41 2.378 . S
O70 C59 1.236 . S
O71 Tb40 2.341 . S
O71 C59 1.266 . S
H72 C44 0.929 . S
H73 C45 0.931 . S
H74 C47 0.930 . S
H75 C48 0.930 . S
H76 C53 0.929 . S
H77 C54 0.931 . S
H78 C56 0.930 . S
H79 C57 0.930 . S
Tb80 C82 2.809 . S
Tb80 O100 2.484 1_565 S
Tb80 O101 2.440 . S
Tb80 O102 2.658 1_554 S
Tb80 O103 2.409 . S
Tb80 O104 2.378 1_565 S
Tb80 O108 2.325 1_565 S
Tb80 O111 2.341 1_554 S
Tb81 C91 2.809 . S
Tb81 O102 2.325 1_545 S
Tb81 O105 2.341 1_556 S
Tb81 O106 2.484 1_545 S
Tb81 O107 2.440 . S
Tb81 O108 2.658 1_556 S
Tb81 O109 2.409 . S
Tb81 O110 2.378 1_545 S
C82 Tb80 2.809 . S
C82 C83 1.514 . S
C82 O100 1.248 1_565 S
C82 O101 1.266 . S
C83 C82 1.514 . S
C83 C84 1.359 1_565 S
C83 C88 1.348 . S
C84 C83 1.359 1_545 S
C84 C85 1.380 . S
C84 H112 0.929 . S
C85 C84 1.380 . S
C85 C86 1.332 1_545 S
C85 H113 0.931 . S
C86 C85 1.332 1_565 S
C86 C87 1.382 . S
C87 C86 1.382 . S
C87 C88 1.408 . S
C87 H114 0.930 . S
C88 C83 1.348 . S
C88 C87 1.408 . S
C88 H115 0.930 . S
C89 O102 1.281 . S
C89 O103 1.254 1_556 S
C90 O104 1.236 . S
C90 O105 1.266 . S
C91 Tb81 2.809 . S
C91 C92 1.514 . S
C91 O106 1.248 1_545 S
C91 O107 1.266 . S
C92 C91 1.514 . S
C92 C93 1.359 1_545 S
C92 C97 1.348 . S
C93 C92 1.359 1_565 S
C93 C94 1.380 . S
C93 H116 0.929 . S
C94 C93 1.380 . S
C94 C95 1.328 1_565 S
C94 H117 0.931 . S
C95 C94 1.328 1_545 S
C95 C96 1.387 . S
C96 C95 1.387 . S
C96 C97 1.408 . S
C96 H118 0.930 . S
C97 C92 1.348 . S
C97 C96 1.408 . S
C97 H119 0.930 . S
C98 O108 1.281 . S
C98 O109 1.254 1_554 S
C99 O110 1.236 . S
C99 O111 1.266 . S
O100 Tb80 2.484 1_545 S
O100 C82 1.248 1_545 S
O101 Tb80 2.440 . S
O101 C82 1.266 . S
O102 Tb80 2.658 1_556 S
O102 Tb81 2.325 1_565 S
O102 C89 1.281 . S
O103 Tb80 2.409 . S
O103 C89 1.254 1_554 S
O104 Tb80 2.378 1_545 S
O104 C90 1.236 . S
O105 Tb81 2.341 1_554 S
O105 C90 1.266 . S
O106 Tb81 2.484 1_565 S
O106 C91 1.248 1_565 S
O107 Tb81 2.440 . S
O107 C91 1.266 . S
O108 Tb80 2.325 1_545 S
O108 Tb81 2.658 1_554 S
O108 C98 1.281 . S
O109 Tb81 2.409 . S
O109 C98 1.254 1_556 S
O110 Tb81 2.378 1_565 S
O110 C99 1.236 . S
O111 Tb80 2.341 1_556 S
O111 C99 1.266 . S
H112 C84 0.929 . S
H113 C85 0.931 . S
H114 C87 0.930 . S
H115 C88 0.930 . S
H116 C93 0.929 . S
H117 C94 0.931 . S
H118 C96 0.930 . S
H119 C97 0.930 . S
Tb120 C122 2.809 . S
Tb120 O140 2.484 . S
Tb120 O141 2.440 . S
Tb120 O142 2.658 . S
Tb120 O143 2.409 . S
Tb120 O144 2.378 . S
Tb120 O148 2.325 . S
Tb120 O151 2.341 . S
Tb121 C131 2.809 . S
Tb121 O142 2.325 . S
Tb121 O145 2.341 . S
Tb121 O146 2.484 . S
Tb121 O147 2.440 . S
Tb121 O148 2.658 . S
Tb121 O149 2.409 . S
Tb121 O150 2.378 . S
C122 Tb120 2.809 . S
C122 C123 1.514 . S
C122 O140 1.248 . S
C122 O141 1.266 . S
C123 C122 1.514 . S
C123 C124 1.359 . S
C123 C128 1.348 . S
C124 C123 1.359 . S
C124 C125 1.380 . S
C124 H152 0.929 . S
C125 C124 1.380 . S
C125 C126 1.347 . S
C125 H153 0.931 . S
C126 C125 1.347 . S
C126 C127 1.369 . S
C127 C126 1.369 . S
C127 C128 1.408 . S
C127 H154 0.930 . S
C128 C123 1.348 . S
C128 C127 1.408 . S
C128 H155 0.930 . S
C129 O142 1.281 . S
C129 O143 1.254 . S
C130 O144 1.236 . S
C130 O145 1.266 . S
C131 Tb121 2.809 . S
C131 C132 1.514 . S
C131 O146 1.248 . S
C131 O147 1.266 . S
C132 C131 1.514 . S
C132 C133 1.359 1_554 S
C132 C137 1.348 1_554 S
C133 C132 1.359 1_556 S
C133 C134 1.380 . S
C133 H156 0.929 1_556 S
C134 C133 1.380 . S
C134 C135 1.347 . S
C134 H157 0.931 . S
C135 C134 1.347 . S
C135 C136 1.369 . S
C136 C135 1.369 . S
C136 C137 1.408 . S
C136 H158 0.930 . S
C137 C132 1.348 1_556 S
C137 C136 1.408 . S
C137 H159 0.930 1_556 S
C138 O148 1.281 . S
C138 O149 1.254 . S
C139 O150 1.236 . S
C139 O151 1.266 . S
O140 Tb120 2.484 . S
O140 C122 1.248 . S
O141 Tb120 2.440 . S
O141 C122 1.266 . S
O142 Tb120 2.658 . S
O142 Tb121 2.325 . S
O142 C129 1.281 . S
O143 Tb120 2.409 . S
O143 C129 1.254 . S
O144 Tb120 2.378 . S
O144 C130 1.236 . S
O145 Tb121 2.341 . S
O145 C130 1.266 . S
O146 Tb121 2.484 . S
O146 C131 1.248 . S
O147 Tb121 2.440 . S
O147 C131 1.266 . S
O148 Tb120 2.325 . S
O148 Tb121 2.658 . S
O148 C138 1.281 . S
O149 Tb121 2.409 . S
O149 C138 1.254 . S
O150 Tb121 2.378 . S
O150 C139 1.236 . S
O151 Tb120 2.341 . S
O151 C139 1.266 . S
H152 C124 0.929 . S
H153 C125 0.931 . S
H154 C127 0.930 . S
H155 C128 0.930 . S
H156 C133 0.929 1_554 S
H157 C134 0.931 . S
H158 C136 0.930 . S
H159 C137 0.930 1_554 S
Tb160 C162 2.809 . S
Tb160 O180 2.484 . S
Tb160 O181 2.440 . S
Tb160 O182 2.658 . S
Tb160 O183 2.409 . S
Tb160 O184 2.378 . S
Tb160 O188 2.325 . S
Tb160 O191 2.341 . S
Tb161 C171 2.809 . S
Tb161 O182 2.325 . S
Tb161 O185 2.341 . S
Tb161 O186 2.484 . S
Tb161 O187 2.440 . S
Tb161 O188 2.658 . S
Tb161 O189 2.409 . S
Tb161 O190 2.378 . S
C162 Tb160 2.809 . S
C162 C163 1.514 . S
C162 O180 1.248 . S
C162 O181 1.266 . S
C163 C162 1.514 . S
C163 C164 1.359 1_554 S
C163 C168 1.348 . S
C164 C163 1.359 1_556 S
C164 C165 1.380 . S
C164 H192 0.929 . S
C165 C164 1.380 . S
C165 C166 1.347 . S
C165 H193 0.931 . S
C166 C165 1.347 . S
C166 C167 1.369 . S
C167 C166 1.369 . S
C167 C168 1.408 1_556 S
C167 H194 0.930 . S
C168 C163 1.348 . S
C168 C167 1.408 1_554 S
C168 H195 0.930 . S
C169 O182 1.281 . S
C169 O183 1.254 . S
C170 O184 1.236 . S
C170 O185 1.266 . S
C171 Tb161 2.809 . S
C171 C172 1.514 . S
C171 O186 1.248 . S
C171 O187 1.266 . S
C172 C171 1.514 . S
C172 C173 1.359 . S
C172 C177 1.348 . S
C173 C172 1.359 . S
C173 C174 1.380 . S
C173 H196 0.929 . S
C174 C173 1.380 . S
C174 C175 1.347 . S
C174 H197 0.931 . S
C175 C174 1.347 . S
C175 C176 1.369 . S
C176 C175 1.369 . S
C176 C177 1.408 . S
C176 H198 0.930 . S
C177 C172 1.348 . S
C177 C176 1.408 . S
C177 H199 0.930 . S
C178 O188 1.281 . S
C178 O189 1.254 . S
C179 O190 1.236 . S
C179 O191 1.266 . S
O180 Tb160 2.484 . S
O180 C162 1.248 . S
O181 Tb160 2.440 . S
O181 C162 1.266 . S
O182 Tb160 2.658 . S
O182 Tb161 2.325 . S
O182 C169 1.281 . S
O183 Tb160 2.409 . S
O183 C169 1.254 . S
O184 Tb160 2.378 . S
O184 C170 1.236 . S
O185 Tb161 2.341 . S
O185 C170 1.266 . S
O186 Tb161 2.484 . S
O186 C171 1.248 . S
O187 Tb161 2.440 . S
O187 C171 1.266 . S
O188 Tb160 2.325 . S
O188 Tb161 2.658 . S
O188 C178 1.281 . S
O189 Tb161 2.409 . S
O189 C178 1.254 . S
O190 Tb161 2.378 . S
O190 C179 1.236 . S
O191 Tb160 2.341 . S
O191 C179 1.266 . S
H192 C164 0.929 . S
H193 C165 0.931 . S
H194 C167 0.930 . S
H195 C168 0.930 . S
H196 C173 0.929 . S
H197 C174 0.931 . S
H198 C176 0.930 . S
H199 C177 0.930 . S
Tb200 C202 2.809 . S
Tb200 O220 2.484 . S
Tb200 O221 2.440 . S
Tb200 O222 2.658 . S
Tb200 O223 2.409 . S
Tb200 O224 2.378 . S
Tb200 O228 2.325 . S
Tb200 O231 2.341 . S
Tb201 C211 2.809 . S
Tb201 O222 2.325 . S
Tb201 O225 2.341 . S
Tb201 O226 2.484 . S
Tb201 O227 2.440 . S
Tb201 O228 2.658 . S
Tb201 O229 2.409 . S
Tb201 O230 2.378 . S
C202 Tb200 2.809 . S
C202 C203 1.514 . S
C202 O220 1.248 . S
C202 O221 1.266 . S
C203 C202 1.514 . S
C203 C204 1.359 1_556 S
C203 C208 1.348 1_556 S
C204 C203 1.359 1_554 S
C204 C205 1.380 . S
C204 H232 0.929 1_554 S
C205 C204 1.380 . S
C205 C206 1.347 . S
C205 H233 0.931 . S
C206 C205 1.347 . S
C206 C207 1.369 . S
C207 C206 1.369 . S
C207 C208 1.408 . S
C207 H234 0.930 . S
C208 C203 1.348 1_554 S
C208 C207 1.408 . S
C208 H235 0.930 1_554 S
C209 O222 1.281 . S
C209 O223 1.254 . S
C210 O224 1.236 . S
C210 O225 1.266 . S
C211 Tb201 2.809 . S
C211 C212 1.514 . S
C211 O226 1.248 . S
C211 O227 1.266 . S
C212 C211 1.514 . S
C212 C213 1.359 . S
C212 C217 1.348 . S
C213 C212 1.359 . S
C213 C214 1.380 . S
C213 H236 0.929 . S
C214 C213 1.380 . S
C214 C215 1.347 . S
C214 H237 0.931 . S
C215 C214 1.347 . S
C215 C216 1.369 . S
C216 C215 1.369 . S
C216 C217 1.408 . S
C216 H238 0.930 . S
C217 C212 1.348 . S
C217 C216 1.408 . S
C217 H239 0.930 . S
C218 O228 1.281 . S
C218 O229 1.254 . S
C219 O230 1.236 . S
C219 O231 1.266 . S
O220 Tb200 2.484 . S
O220 C202 1.248 . S
O221 Tb200 2.440 . S
O221 C202 1.266 . S
O222 Tb200 2.658 . S
O222 Tb201 2.325 . S
O222 C209 1.281 . S
O223 Tb200 2.409 . S
O223 C209 1.254 . S
O224 Tb200 2.378 . S
O224 C210 1.236 . S
O225 Tb201 2.341 . S
O225 C210 1.266 . S
O226 Tb201 2.484 . S
O226 C211 1.248 . S
O227 Tb201 2.440 . S
O227 C211 1.266 . S
O228 Tb200 2.325 . S
O228 Tb201 2.658 . S
O228 C218 1.281 . S
O229 Tb201 2.409 . S
O229 C218 1.254 . S
O230 Tb201 2.378 . S
O230 C219 1.236 . S
O231 Tb200 2.341 . S
O231 C219 1.266 . S
H232 C204 0.929 1_556 S
H233 C205 0.931 . S
H234 C207 0.930 . S
H235 C208 0.930 1_556 S
H236 C213 0.929 . S
H237 C214 0.931 . S
H238 C216 0.930 . S
H239 C217 0.930 . S
Tb240 C242 2.809 . S
Tb240 O260 2.484 . S
Tb240 O261 2.440 . S
Tb240 O262 2.658 1_556 S
Tb240 O263 2.409 . S
Tb240 O264 2.378 . S
Tb240 O268 2.325 . S
Tb240 O271 2.341 . S
Tb241 C251 2.809 . S
Tb241 O262 2.325 . S
Tb241 O265 2.341 . S
Tb241 O266 2.484 . S
Tb241 O267 2.440 . S
Tb241 O268 2.658 1_554 S
Tb241 O269 2.409 . S
Tb241 O270 2.378 . S
C242 Tb240 2.809 . S
C242 C243 1.514 . S
C242 O260 1.248 . S
C242 O261 1.266 . S
C243 C242 1.514 . S
C243 C244 1.359 . S
C243 C248 1.348 . S
C244 C243 1.359 . S
C244 C245 1.380 . S
C244 H272 0.929 . S
C245 C244 1.380 . S
C245 C246 1.347 . S
C245 H273 0.931 . S
C246 C245 1.347 . S
C246 C247 1.369 . S
C247 C246 1.369 . S
C247 C248 1.408 . S
C247 H274 0.930 . S
C248 C243 1.348 . S
C248 C247 1.408 . S
C248 H275 0.930 . S
C249 O262 1.281 . S
C249 O263 1.254 1_554 S
C250 O264 1.236 . S
C250 O265 1.266 1_556 S
C251 Tb241 2.809 . S
C251 C252 1.514 . S
C251 O266 1.248 . S
C251 O267 1.266 . S
C252 C251 1.514 . S
C252 C253 1.359 . S
C252 C257 1.348 . S
C253 C252 1.359 . S
C253 C254 1.380 . S
C253 H276 0.929 . S
C254 C253 1.380 . S
C254 C255 1.347 . S
C254 H277 0.931 . S
C255 C254 1.347 . S
C255 C256 1.369 . S
C256 C255 1.369 . S
C256 C257 1.408 . S
C256 H278 0.930 . S
C257 C252 1.348 . S
C257 C256 1.408 . S
C257 H279 0.930 . S
C258 O268 1.281 . S
C258 O269 1.254 1_556 S
C259 O270 1.236 . S
C259 O271 1.266 1_554 S
O260 Tb240 2.484 . S
O260 C242 1.248 . S
O261 Tb240 2.440 . S
O261 C242 1.266 . S
O262 Tb240 2.658 1_554 S
O262 Tb241 2.325 . S
O262 C249 1.281 . S
O263 Tb240 2.409 . S
O263 C249 1.254 1_556 S
O264 Tb240 2.378 . S
O264 C250 1.236 . S
O265 Tb241 2.341 . S
O265 C250 1.266 1_554 S
O266 Tb241 2.484 . S
O266 C251 1.248 . S
O267 Tb241 2.440 . S
O267 C251 1.266 . S
O268 Tb240 2.325 . S
O268 Tb241 2.658 1_556 S
O268 C258 1.281 . S
O269 Tb241 2.409 . S
O269 C258 1.254 1_554 S
O270 Tb241 2.378 . S
O270 C259 1.236 . S
O271 Tb240 2.341 . S
O271 C259 1.266 1_556 S
H272 C244 0.929 . S
H273 C245 0.931 . S
H274 C247 0.930 . S
H275 C248 0.930 . S
H276 C253 0.929 . S
H277 C254 0.931 . S
H278 C256 0.930 . S
H279 C257 0.930 . S
Tb280 C282 2.809 1_455 S
Tb280 O300 2.484 . S
Tb280 O301 2.440 1_455 S
Tb280 O302 2.658 1_455 S
Tb280 O303 2.409 1_455 S
Tb280 O304 2.378 1_455 S
Tb280 O308 2.325 . S
Tb280 O311 2.341 . S
Tb281 C291 2.809 1_655 S
Tb281 O302 2.325 . S
Tb281 O305 2.341 . S
Tb281 O306 2.484 . S
Tb281 O307 2.440 1_655 S
Tb281 O308 2.658 1_655 S
Tb281 O309 2.409 1_655 S
Tb281 O310 2.378 1_655 S
C282 Tb280 2.809 1_655 S
C282 C283 1.514 . S
C282 O300 1.248 1_655 S
C282 O301 1.266 . S
C283 C282 1.514 . S
C283 C284 1.359 1_655 S
C283 C288 1.348 . S
C284 C283 1.359 1_455 S
C284 C285 1.380 1_455 S
C284 H312 0.929 . S
C285 C284 1.380 1_655 S
C285 C286 1.347 . S
C285 H313 0.931 1_655 S
C286 C285 1.347 . S
C286 C287 1.369 . S
C287 C286 1.369 . S
C287 C288 1.408 . S
C287 H314 0.930 . S
C288 C283 1.348 . S
C288 C287 1.408 . S
C288 H315 0.930 . S
C289 O302 1.281 . S
C289 O303 1.254 . S
C290 O304 1.236 . S
C290 O305 1.266 . S
C291 Tb281 2.809 1_455 S
C291 C292 1.514 . S
C291 O306 1.248 1_455 S
C291 O307 1.266 . S
C292 C291 1.514 . S
C292 C293 1.359 1_455 S
C292 C297 1.348 . S
C293 C292 1.359 1_655 S
C293 C294 1.380 1_655 S
C293 H316 0.929 . S
C294 C293 1.380 1_455 S
C294 C295 1.347 . S
C294 H317 0.931 1_455 S
C295 C294 1.347 . S
C295 C296 1.369 . S
C296 C295 1.369 . S
C296 C297 1.408 . S
C296 H318 0.930 . S
C297 C292 1.348 . S
C297 C296 1.408 . S
C297 H319 0.930 . S
C298 O308 1.281 . S
C298 O309 1.254 . S
C299 O310 1.236 . S
C299 O311 1.266 . S
O300 Tb280 2.484 . S
O300 C282 1.248 1_455 S
O301 Tb280 2.440 1_655 S
O301 C282 1.266 . S
O302 Tb280 2.658 1_655 S
O302 Tb281 2.325 . S
O302 C289 1.281 . S
O303 Tb280 2.409 1_655 S
O303 C289 1.254 . S
O304 Tb280 2.378 1_655 S
O304 C290 1.236 . S
O305 Tb281 2.341 . S
O305 C290 1.266 . S
O306 Tb281 2.484 . S
O306 C291 1.248 1_655 S
O307 Tb281 2.440 1_455 S
O307 C291 1.266 . S
O308 Tb280 2.325 . S
O308 Tb281 2.658 1_455 S
O308 C298 1.281 . S
O309 Tb281 2.409 1_455 S
O309 C298 1.254 . S
O310 Tb281 2.378 1_455 S
O310 C299 1.236 . S
O311 Tb280 2.341 . S
O311 C299 1.266 . S
H312 C284 0.929 . S
H313 C285 0.931 1_455 S
H314 C287 0.930 . S
H315 C288 0.930 . S
H316 C293 0.929 . S
H317 C294 0.931 1_655 S
H318 C296 0.930 . S
H319 C297 0.930 . S
H320 C326 0.930 . S
H321 C329 0.930 . S
H322 C330 0.930 . S
H323 C331 0.930 . S
H324 C334 0.930 . S
H325 C335 0.930 . S
C326 H320 0.930 . S
C326 C327 1.355 . S
C326 C328 1.415 . S
C327 C326 1.355 . S
C327 C329 1.419 . S
C328 C326 1.415 . S
C328 C333 1.425 . S
C328 C335 1.409 . S
C329 H321 0.930 . S
C329 C327 1.419 . S
C329 C330 1.362 . S
C330 H322 0.930 . S
C330 C329 1.362 . S
C330 C333 1.409 . S
C331 H323 0.930 . S
C331 C332 1.355 . S
C331 C333 1.415 . S
C332 C331 1.355 . S
C332 C334 1.419 . S
C333 C328 1.425 . S
C333 C330 1.409 . S
C333 C331 1.415 . S
C334 H324 0.930 . S
C334 C332 1.419 . S
C334 C335 1.362 . S
C335 H325 0.930 . S
C335 C328 1.409 . S
C335 C334 1.362 . S
H336 C342 0.930 . S
H337 C345 0.930 . S
H338 C346 0.930 . S
H339 C347 0.930 . S
H340 C350 0.930 . S
H341 C351 0.930 . S
C342 H336 0.930 . S
C342 C343 1.355 . S
C342 C344 1.415 . S
C343 C342 1.355 . S
C343 C345 1.419 . S
C344 C342 1.415 . S
C344 C349 1.425 . S
C344 C351 1.409 . S
C345 H337 0.930 . S
C345 C343 1.419 . S
C345 C346 1.362 . S
C346 H338 0.930 . S
C346 C345 1.362 . S
C346 C349 1.409 . S
C347 H339 0.930 . S
C347 C348 1.355 . S
C347 C349 1.415 . S
C348 C347 1.355 . S
C348 C350 1.419 . S
C349 C344 1.425 . S
C349 C346 1.409 . S
C349 C347 1.415 . S
C350 H340 0.930 . S
C350 C348 1.419 . S
C350 C351 1.362 . S
C351 H341 0.930 . S
C351 C344 1.409 . S
C351 C350 1.362 . S
H352 C358 0.930 . S
H353 C361 0.930 . S
H354 C362 0.930 . S
H355 C363 0.930 . S
H356 C366 0.930 . S
H357 C367 0.930 . S
C358 H352 0.930 . S
C358 C359 1.355 . S
C358 C360 1.415 . S
C359 C358 1.355 . S
C359 C361 1.419 . S
C360 C358 1.415 . S
C360 C365 1.425 . S
C360 C367 1.409 . S
C361 H353 0.930 . S
C361 C359 1.419 . S
C361 C362 1.362 . S
C362 H354 0.930 . S
C362 C361 1.362 . S
C362 C365 1.409 . S
C363 H355 0.930 . S
C363 C364 1.355 . S
C363 C365 1.415 . S
C364 C363 1.355 . S
C364 C366 1.419 . S
C365 C360 1.425 . S
C365 C362 1.409 . S
C365 C363 1.415 . S
C366 H356 0.930 . S
C366 C364 1.419 . S
C366 C367 1.362 . S
C367 H357 0.930 . S
C367 C360 1.409 . S
C367 C366 1.362 . S
H368 C374 0.930 . S
H369 C377 0.930 . S
H370 C378 0.930 . S
H371 C379 0.930 . S
H372 C382 0.930 . S
H373 C383 0.930 . S
C374 H368 0.930 . S
C374 C375 1.355 . S
C374 C376 1.415 . S
C375 C374 1.355 . S
C375 C377 1.419 . S
C376 C374 1.415 . S
C376 C381 1.425 . S
C376 C383 1.409 . S
C377 H369 0.930 . S
C377 C375 1.419 . S
C377 C378 1.362 . S
C378 H370 0.930 . S
C378 C377 1.362 . S
C378 C381 1.409 . S
C379 H371 0.930 . S
C379 C380 1.355 . S
C379 C381 1.415 . S
C380 C379 1.355 . S
C380 C382 1.419 . S
C381 C376 1.425 . S
C381 C378 1.409 . S
C381 C379 1.415 . S
C382 H372 0.930 . S
C382 C380 1.419 . S
C382 C383 1.362 . S
C383 H373 0.930 . S
C383 C376 1.409 . S
C383 C382 1.362 . S
H384 C390 0.930 . S
H385 C393 0.930 . S
H386 C394 0.930 . S
H387 C395 0.930 . S
H388 C398 0.930 . S
H389 C399 0.930 . S
C390 H384 0.930 . S
C390 C391 1.355 . S
C390 C392 1.415 . S
C391 C390 1.355 . S
C391 C393 1.419 . S
C392 C390 1.415 . S
C392 C397 1.425 . S
C392 C399 1.409 . S
C393 H385 0.930 . S
C393 C391 1.419 . S
C393 C394 1.362 . S
C394 H386 0.930 . S
C394 C393 1.362 . S
C394 C397 1.409 . S
C395 H387 0.930 . S
C395 C396 1.355 . S
C395 C397 1.415 . S
C396 C395 1.355 . S
C396 C398 1.419 . S
C397 C392 1.425 . S
C397 C394 1.409 . S
C397 C395 1.415 . S
C398 H388 0.930 . S
C398 C396 1.419 . S
C398 C399 1.362 . S
C399 H389 0.930 . S
C399 C392 1.409 . S
C399 C398 1.362 . S
H400 C406 0.930 . S
H401 C409 0.930 . S
H402 C410 0.930 . S
H403 C411 0.930 . S
H404 C414 0.930 . S
H405 C415 0.930 . S
C406 H400 0.930 . S
C406 C407 1.355 . S
C406 C408 1.415 . S
C407 C406 1.355 . S
C407 C409 1.419 . S
C408 C406 1.415 . S
C408 C413 1.425 . S
C408 C415 1.409 . S
C409 H401 0.930 . S
C409 C407 1.419 . S
C409 C410 1.362 . S
C410 H402 0.930 . S
C410 C409 1.362 . S
C410 C413 1.409 . S
C411 H403 0.930 . S
C411 C412 1.355 . S
C411 C413 1.415 . S
C412 C411 1.355 . S
C412 C414 1.419 . S
C413 C408 1.425 . S
C413 C410 1.409 . S
C413 C411 1.415 . S
C414 H404 0.930 . S
C414 C412 1.419 . S
C414 C415 1.362 . S
C415 H405 0.930 . S
C415 C408 1.409 . S
C415 C414 1.362 . S
H416 C422 0.930 . S
H417 C425 0.930 . S
H418 C426 0.930 . S
H419 C427 0.930 . S
H420 C430 0.930 . S
H421 C431 0.930 . S
C422 H416 0.930 . S
C422 C423 1.355 . S
C422 C424 1.415 . S
C423 C422 1.355 . S
C423 C425 1.419 . S
C424 C422 1.415 . S
C424 C429 1.425 . S
C424 C431 1.409 . S
C425 H417 0.930 . S
C425 C423 1.419 . S
C425 C426 1.362 . S
C426 H418 0.930 . S
C426 C425 1.362 . S
C426 C429 1.409 . S
C427 H419 0.930 . S
C427 C428 1.355 . S
C427 C429 1.415 . S
C428 C427 1.355 . S
C428 C430 1.419 . S
C429 C424 1.425 . S
C429 C426 1.409 . S
C429 C427 1.415 . S
C430 H420 0.930 . S
C430 C428 1.419 . S
C430 C431 1.362 . S
C431 H421 0.930 . S
C431 C424 1.409 . S
C431 C430 1.362 . S
H432 C438 0.930 . S
H433 C441 0.930 . S
H434 C442 0.930 . S
H435 C443 0.930 . S
H436 C446 0.930 . S
H437 C447 0.930 . S
C438 H432 0.930 . S
C438 C439 1.355 . S
C438 C440 1.415 . S
C439 C438 1.355 . S
C439 C441 1.419 . S
C440 C438 1.415 . S
C440 C445 1.425 . S
C440 C447 1.409 . S
C441 H433 0.930 . S
C441 C439 1.419 . S
C441 C442 1.362 . S
C442 H434 0.930 . S
C442 C441 1.362 . S
C442 C445 1.409 . S
C443 H435 0.930 . S
C443 C444 1.355 . S
C443 C445 1.415 . S
C444 C443 1.355 . S
C444 C446 1.419 . S
C445 C440 1.425 . S
C445 C442 1.409 . S
C445 C443 1.415 . S
C446 H436 0.930 . S
C446 C444 1.419 . S
C446 C447 1.362 . S
C447 H437 0.930 . S
C447 C440 1.409 . S
C447 C446 1.362 . S
H448 C454 0.930 . S
H449 C457 0.930 . S
H450 C458 0.930 . S
H451 C459 0.930 . S
H452 C462 0.930 . S
H453 C463 0.930 . S
C454 H448 0.930 . S
C454 C455 1.355 . S
C454 C456 1.415 . S
C455 C454 1.355 . S
C455 C457 1.419 . S
C456 C454 1.415 . S
C456 C461 1.425 . S
C456 C463 1.409 . S
C457 H449 0.930 . S
C457 C455 1.419 . S
C457 C458 1.362 . S
C458 H450 0.930 . S
C458 C457 1.362 . S
C458 C461 1.409 . S
C459 H451 0.930 . S
C459 C460 1.355 . S
C459 C461 1.415 . S
C460 C459 1.355 . S
C460 C462 1.419 . S
C461 C456 1.425 . S
C461 C458 1.409 . S
C461 C459 1.415 . S
C462 H452 0.930 . S
C462 C460 1.419 . S
C462 C463 1.362 . S
C463 H453 0.930 . S
C463 C456 1.409 . S
C463 C462 1.362 . S
H464 C470 0.930 . S
H465 C473 0.930 . S
H466 C474 0.930 . S
H467 C475 0.930 . S
H468 C478 0.930 . S
H469 C479 0.930 . S
C470 H464 0.930 . S
C470 C471 1.355 . S
C470 C472 1.415 . S
C471 C470 1.355 . S
C471 C473 1.419 . S
C472 C470 1.415 . S
C472 C477 1.425 . S
C472 C479 1.409 . S
C473 H465 0.930 . S
C473 C471 1.419 . S
C473 C474 1.362 . S
C474 H466 0.930 . S
C474 C473 1.362 . S
C474 C477 1.409 . S
C475 H467 0.930 . S
C475 C476 1.355 . S
C475 C477 1.415 . S
C476 C475 1.355 . S
C476 C478 1.419 . S
C477 C472 1.425 . S
C477 C474 1.409 . S
C477 C475 1.415 . S
C478 H468 0.930 . S
C478 C476 1.419 . S
C478 C479 1.362 . S
C479 H469 0.930 . S
C479 C472 1.409 . S
C479 C478 1.362 . S
H480 C486 0.930 . S
H481 C489 0.930 . S
H482 C490 0.930 . S
H483 C491 0.930 . S
H484 C494 0.930 . S
H485 C495 0.930 . S
C486 H480 0.930 . S
C486 C487 1.355 . S
C486 C488 1.415 . S
C487 C486 1.355 . S
C487 C489 1.419 . S
C488 C486 1.415 . S
C488 C493 1.425 . S
C488 C495 1.409 . S
C489 H481 0.930 . S
C489 C487 1.419 . S
C489 C490 1.362 . S
C490 H482 0.930 . S
C490 C489 1.362 . S
C490 C493 1.409 . S
C491 H483 0.930 . S
C491 C492 1.355 . S
C491 C493 1.415 . S
C492 C491 1.355 . S
C492 C494 1.419 . S
C493 C488 1.425 . S
C493 C490 1.409 . S
C493 C491 1.415 . S
C494 H484 0.930 . S
C494 C492 1.419 . S
C494 C495 1.362 . S
C495 H485 0.930 . S
C495 C488 1.409 . S
C495 C494 1.362 . S
H496 C502 0.930 . S
H497 C505 0.930 . S
H498 C506 0.930 . S
H499 C507 0.930 . S
H500 C510 0.930 . S
H501 C511 0.930 . S
C502 H496 0.930 . S
C502 C503 1.355 . S
C502 C504 1.415 . S
C503 C502 1.355 . S
C503 C505 1.419 . S
C504 C502 1.415 . S
C504 C509 1.425 . S
C504 C511 1.409 . S
C505 H497 0.930 . S
C505 C503 1.419 . S
C505 C506 1.362 . S
C506 H498 0.930 . S
C506 C505 1.362 . S
C506 C509 1.409 . S
C507 H499 0.930 . S
C507 C508 1.355 . S
C507 C509 1.415 . S
C508 C507 1.355 . S
C508 C510 1.419 . S
C509 C504 1.425 . S
C509 C506 1.409 . S
C509 C507 1.415 . S
C510 H500 0.930 . S
C510 C508 1.419 . S
C510 C511 1.362 . S
C511 H501 0.930 . S
C511 C504 1.409 . S
C511 C510 1.362 . S
H512 C518 0.930 . S
H513 C521 0.930 . S
H514 C522 0.930 . S
H515 C523 0.930 . S
H516 C526 0.930 . S
H517 C527 0.930 . S
C518 H512 0.930 . S
C518 C519 1.355 . S
C518 C520 1.415 . S
C519 C518 1.355 . S
C519 C521 1.419 . S
C520 C518 1.415 . S
C520 C525 1.425 . S
C520 C527 1.409 . S
C521 H513 0.930 . S
C521 C519 1.419 . S
C521 C522 1.362 . S
C522 H514 0.930 . S
C522 C521 1.362 . S
C522 C525 1.409 . S
C523 H515 0.930 . S
C523 C524 1.355 . S
C523 C525 1.415 . S
C524 C523 1.355 . S
C524 C526 1.419 . S
C525 C520 1.425 . S
C525 C522 1.409 . S
C525 C523 1.415 . S
C526 H516 0.930 . S
C526 C524 1.419 . S
C526 C527 1.362 . S
C527 H517 0.930 . S
C527 C520 1.409 . S
C527 C526 1.362 . S
H528 C534 0.930 . S
H529 C537 0.930 1_554 S
H530 C538 0.930 . S
H531 C539 0.930 . S
H532 C542 0.930 . S
H533 C543 0.930 . S
C534 H528 0.930 . S
C534 C535 1.355 . S
C534 C536 1.415 . S
C535 C534 1.355 . S
C535 C537 1.419 . S
C536 C534 1.415 . S
C536 C541 1.425 . S
C536 C543 1.409 . S
C537 H529 0.930 1_556 S
C537 C535 1.419 . S
C537 C538 1.362 . S
C538 H530 0.930 . S
C538 C537 1.362 . S
C538 C541 1.409 . S
C539 H531 0.930 . S
C539 C540 1.355 . S
C539 C541 1.415 . S
C540 C539 1.355 . S
C540 C542 1.419 . S
C541 C536 1.425 . S
C541 C538 1.409 . S
C541 C539 1.415 . S
C542 H532 0.930 . S
C542 C540 1.419 . S
C542 C543 1.362 . S
C543 H533 0.930 . S
C543 C536 1.409 . S
C543 C542 1.362 . S
H544 C550 0.930 . S
H545 C553 0.930 . S
H546 C554 0.930 . S
H547 C555 0.930 . S
H548 C558 0.930 . S
H549 C559 0.930 . S
C550 H544 0.930 . S
C550 C551 1.355 . S
C550 C552 1.415 . S
C551 C550 1.355 . S
C551 C553 1.419 . S
C552 C550 1.415 . S
C552 C557 1.425 . S
C552 C559 1.409 . S
C553 H545 0.930 . S
C553 C551 1.419 . S
C553 C554 1.362 . S
C554 H546 0.930 . S
C554 C553 1.362 . S
C554 C557 1.409 . S
C555 H547 0.930 . S
C555 C556 1.355 . S
C555 C557 1.415 . S
C556 C555 1.355 . S
C556 C558 1.419 . S
C557 C552 1.425 . S
C557 C554 1.409 . S
C557 C555 1.415 . S
C558 H548 0.930 . S
C558 C556 1.419 . S
C558 C559 1.362 . S
C559 H549 0.930 . S
C559 C552 1.409 . S
C559 C558 1.362 . S
H560 C566 0.930 . S
H561 C569 0.930 . S
H562 C570 0.930 . S
H563 C571 0.930 . S
H564 C574 0.930 . S
H565 C575 0.930 . S
C566 H560 0.930 . S
C566 C567 1.355 . S
C566 C568 1.415 . S
C567 C566 1.355 . S
C567 C569 1.419 . S
C568 C566 1.415 . S
C568 C573 1.425 . S
C568 C575 1.409 . S
C569 H561 0.930 . S
C569 C567 1.419 . S
C569 C570 1.362 . S
C570 H562 0.930 . S
C570 C569 1.362 . S
C570 C573 1.409 . S
C571 H563 0.930 . S
C571 C572 1.355 . S
C571 C573 1.415 . S
C572 C571 1.355 . S
C572 C574 1.419 . S
C573 C568 1.425 . S
C573 C570 1.409 . S
C573 C571 1.415 . S
C574 H564 0.930 . S
C574 C572 1.419 . S
C574 C575 1.362 . S
C575 H565 0.930 . S
C575 C568 1.409 . S
C575 C574 1.362 . S
H576 C582 0.930 1_455 S
H577 C585 0.930 . S
H578 C586 0.930 . S
H579 C587 0.930 1_655 S
H580 C590 0.930 . S
H581 C591 0.930 . S
C582 H576 0.930 1_655 S
C582 C583 1.355 . S
C582 C584 1.415 1_656 S
C583 C582 1.355 . S
C583 C585 1.419 1_545 S
C584 C582 1.415 1_454 S
C584 C589 1.425 1_444 S
C584 C591 1.409 . S
C585 H577 0.930 . S
C585 C583 1.419 1_565 S
C585 C586 1.362 . S
C586 H578 0.930 . S
C586 C585 1.362 . S
C586 C589 1.409 . S
C587 H579 0.930 1_455 S
C587 C588 1.355 . S
C587 C589 1.415 1_454 S
C588 C587 1.355 . S
C588 C590 1.419 1_565 S
C589 C584 1.425 1_666 S
C589 C586 1.409 . S
C589 C587 1.415 1_656 S
C590 H580 0.930 . S
C590 C588 1.419 1_545 S
C590 C591 1.362 . S
C591 H581 0.930 . S
C591 C584 1.409 . S
C591 C590 1.362 . S
H592 C598 0.930 . S
H593 C601 0.930 . S
H594 C602 0.930 . S
H595 C603 0.930 . S
H596 C606 0.930 . S
H597 C607 0.930 . S
C598 H592 0.930 . S
C598 C599 1.355 . S
C598 C600 1.415 . S
C599 C598 1.355 . S
C599 C601 1.419 . S
C600 C598 1.415 . S
C600 C605 1.425 . S
C600 C607 1.409 . S
C601 H593 0.930 . S
C601 C599 1.419 . S
C601 C602 1.362 . S
C602 H594 0.930 . S
C602 C601 1.362 . S
C602 C605 1.409 . S
C603 H595 0.930 . S
C603 C604 1.355 . S
C603 C605 1.415 . S
C604 C603 1.355 . S
C604 C606 1.419 . S
C605 C600 1.425 . S
C605 C602 1.409 . S
C605 C603 1.415 . S
C606 H596 0.930 . S
C606 C604 1.419 . S
C606 C607 1.362 . S
C607 H597 0.930 . S
C607 C600 1.409 . S
C607 C606 1.362 . S
H608 C614 0.930 . S
H609 C617 0.930 . S
H610 C618 0.930 . S
H611 C619 0.930 . S
H612 C622 0.930 . S
H613 C623 0.930 . S
C614 H608 0.930 . S
C614 C615 1.355 1_565 S
C614 C616 1.415 . S
C615 C614 1.355 1_545 S
C615 C617 1.419 . S
C616 C614 1.415 . S
C616 C621 1.425 1_565 S
C616 C623 1.409 . S
C617 H609 0.930 . S
C617 C615 1.419 . S
C617 C618 1.362 . S
C618 H610 0.930 . S
C618 C617 1.362 . S
C618 C621 1.409 . S
C619 H611 0.930 . S
C619 C620 1.355 1_545 S
C619 C621 1.415 . S
C620 C619 1.355 1_565 S
C620 C622 1.419 . S
C621 C616 1.425 1_545 S
C621 C618 1.409 . S
C621 C619 1.415 . S
C622 H612 0.930 . S
C622 C620 1.419 . S
C622 C623 1.362 . S
C623 H613 0.930 . S
C623 C616 1.409 . S
C623 C622 1.362 . S
H624 C630 0.930 . S
H625 C633 0.930 . S
H626 C634 0.930 . S
H627 C635 0.930 . S
H628 C638 0.930 . S
H629 C639 0.930 . S
C630 H624 0.930 . S
C630 C631 1.355 . S
C630 C632 1.415 . S
C631 C630 1.355 . S
C631 C633 1.419 . S
C632 C630 1.415 . S
C632 C637 1.425 . S
C632 C639 1.409 . S
C633 H625 0.930 . S
C633 C631 1.419 . S
C633 C634 1.362 . S
C634 H626 0.930 . S
C634 C633 1.362 . S
C634 C637 1.409 . S
C635 H627 0.930 . S
C635 C636 1.355 . S
C635 C637 1.415 . S
C636 C635 1.355 . S
C636 C638 1.419 . S
C637 C632 1.425 . S
C637 C634 1.409 . S
C637 C635 1.415 . S
C638 H628 0.930 . S
C638 C636 1.419 . S
C638 C639 1.362 . S
C639 H629 0.930 . S
C639 C632 1.409 . S
C639 C638 1.362 . S
H640 C646 0.930 . S
H641 C649 0.930 . S
H642 C650 0.930 . S
H643 C651 0.930 . S
H644 C654 0.930 . S
H645 C655 0.930 . S
C646 H640 0.930 . S
C646 C647 1.355 . S
C646 C648 1.415 . S
C647 C646 1.355 . S
C647 C649 1.419 . S
C648 C646 1.415 . S
C648 C653 1.425 . S
C648 C655 1.409 . S
C649 H641 0.930 . S
C649 C647 1.419 . S
C649 C650 1.362 . S
C650 H642 0.930 . S
C650 C649 1.362 . S
C650 C653 1.409 . S
C651 H643 0.930 . S
C651 C652 1.355 . S
C651 C653 1.415 . S
C652 C651 1.355 . S
C652 C654 1.419 . S
C653 C648 1.425 . S
C653 C650 1.409 . S
C653 C651 1.415 . S
C654 H644 0.930 . S
C654 C652 1.419 . S
C654 C655 1.362 . S
C655 H645 0.930 . S
C655 C648 1.409 . S
C655 C654 1.362 . S
H656 C662 0.930 . S
H657 C665 0.930 . S
H658 C666 0.930 . S
H659 C667 0.930 . S
H660 C670 0.930 . S
H661 C671 0.930 . S
C662 H656 0.930 . S
C662 C663 1.355 . S
C662 C664 1.415 . S
C663 C662 1.355 . S
C663 C665 1.419 . S
C664 C662 1.415 . S
C664 C669 1.425 . S
C664 C671 1.409 . S
C665 H657 0.930 . S
C665 C663 1.419 . S
C665 C666 1.362 . S
C666 H658 0.930 . S
C666 C665 1.362 . S
C666 C669 1.409 . S
C667 H659 0.930 . S
C667 C668 1.355 . S
C667 C669 1.415 . S
C668 C667 1.355 . S
C668 C670 1.419 . S
C669 C664 1.425 . S
C669 C666 1.409 . S
C669 C667 1.415 . S
C670 H660 0.930 . S
C670 C668 1.419 . S
C670 C671 1.362 . S
C671 H661 0.930 . S
C671 C664 1.409 . S
C671 C670 1.362 . S
H672 C678 0.930 . S
H673 C681 0.930 . S
H674 C682 0.930 . S
H675 C683 0.930 . S
H676 C686 0.930 . S
H677 C687 0.930 . S
C678 H672 0.930 . S
C678 C679 1.355 . S
C678 C680 1.415 . S
C679 C678 1.355 . S
C679 C681 1.419 . S
C680 C678 1.415 . S
C680 C685 1.425 . S
C680 C687 1.409 . S
C681 H673 0.930 . S
C681 C679 1.419 . S
C681 C682 1.362 . S
C682 H674 0.930 . S
C682 C681 1.362 . S
C682 C685 1.409 . S
C683 H675 0.930 . S
C683 C684 1.355 . S
C683 C685 1.415 . S
C684 C683 1.355 . S
C684 C686 1.419 . S
C685 C680 1.425 . S
C685 C682 1.409 . S
C685 C683 1.415 . S
C686 H676 0.930 . S
C686 C684 1.419 . S
C686 C687 1.362 . S
C687 H677 0.930 . S
C687 C680 1.409 . S
C687 C686 1.362 . S
H688 C694 0.930 . S
H689 C697 0.930 . S
H690 C698 0.930 . S
H691 C699 0.930 . S
H692 C702 0.930 . S
H693 C703 0.930 . S
C694 H688 0.930 . S
C694 C695 1.355 . S
C694 C696 1.415 . S
C695 C694 1.355 . S
C695 C697 1.419 1_655 S
C696 C694 1.415 . S
C696 C701 1.425 1_656 S
C696 C703 1.409 1_556 S
C697 H689 0.930 . S
C697 C695 1.419 1_455 S
C697 C698 1.362 . S
C698 H690 0.930 . S
C698 C697 1.362 . S
C698 C701 1.409 1_556 S
C699 H691 0.930 . S
C699 C700 1.355 . S
C699 C701 1.415 . S
C700 C699 1.355 . S
C700 C702 1.419 1_455 S
C701 C696 1.425 1_454 S
C701 C698 1.409 1_554 S
C701 C699 1.415 . S
C702 H692 0.930 . S
C702 C700 1.419 1_655 S
C702 C703 1.362 . S
C703 H693 0.930 . S
C703 C696 1.409 1_554 S
C703 C702 1.362 . S
C327 C10 1.997 . S
C332 C130 2.003 . S
C343 C9 1.543 . S
C348 C50 1.556 . S
C359 C49 0.926 . S
C364 C89 0.996 . S
C375 C90 1.554 . S
C380 C129 1.537 . S
C391 C19 2.009 . S
C396 C219 2.002 . S
C407 C18 1.494 . S
C412 C179 1.538 . S
C423 C178 0.935 . S
C428 C98 1.004 . S
C439 C218 1.490 . S
C444 C99 1.536 . S
C455 C250 2.000 . S
C460 C210 2.010 . S
C471 C170 1.551 . S
C476 C249 1.534 . S
C487 C289 0.929 . S
C492 C169 1.002 . S
C503 C209 1.522 . S
C508 C290 1.547 . S
C519 C139 1.998 . S
C524 C259 2.002 . S
C535 C258 1.513 . S
C540 C59 1.542 . S
C551 C58 1.003 . S
C556 C298 0.962 . S
C567 C138 1.488 . S
C572 C299 1.531 . S
C583 C15 1.588 . S
C588 C6 1.588 . S
C599 C46 1.438 . S
C604 C55 1.438 . S
C615 C95 1.398 . S
C620 C86 1.396 . S
C631 C135 1.579 . S
C636 C126 1.579 . S
C647 C166 1.392 . S
C652 C175 1.392 . S
C663 C215 1.613 . S
C668 C206 1.613 . S
C679 C246 1.599 . S
C684 C255 1.599 . S
C695 C286 1.393 . S
C700 C295 1.393 . S
