# Generated by pormake.
# Topology snl, (6)-cn, num edge types: 1
# Building blocks:
#     Node 0, Type 0, BuildingBlock: BETFAJ_clean_sbu_0, # of connection points: 6
#     Node 1, Type 0, BuildingBlock: BETFAJ_clean_sbu_0, # of connection points: 6
#     Node 2, Type 0, BuildingBlock: BETFAJ_clean_sbu_0, # of connection points: 6
#     Node 3, Type 0, BuildingBlock: BETFAJ_clean_sbu_0, # of connection points: 6
#     Node 4, Type 0, BuildingBlock: BETFAJ_clean_sbu_0, # of connection points: 6
#     Node 5, Type 0, BuildingBlock: BETFAJ_clean_sbu_0, # of connection points: 6
#     Node 6, Type 0, BuildingBlock: BETFAJ_clean_sbu_0, # of connection points: 6
#     Node 7, Type 0, BuildingBlock: BETFAJ_clean_sbu_0, # of connection points: 6
#     Node 8, Type 0, BuildingBlock: BETFAJ_clean_sbu_0, # of connection points: 6
#     Node 9, Type 0, BuildingBlock: BETFAJ_clean_sbu_0, # of connection points: 6
#     Node 10, Type 0, BuildingBlock: BETFAJ_clean_sbu_0, # of connection points: 6
#     Node 11, Type 0, BuildingBlock: BETFAJ_clean_sbu_0, # of connection points: 6
#     Node 12, Type 0, BuildingBlock: BETFAJ_clean_sbu_0, # of connection points: 6
#     Node 13, Type 0, BuildingBlock: BETFAJ_clean_sbu_0, # of connection points: 6
#     Node 14, Type 0, BuildingBlock: BETFAJ_clean_sbu_0, # of connection points: 6
#     Node 15, Type 0, BuildingBlock: BETFAJ_clean_sbu_0, # of connection points: 6
#     Edge 16, Type (0, 0), BuildingBlock: MIFKUJ_clean_linker_0, # of connection points: 2
#     Edge 17, Type (0, 0), BuildingBlock: MIFKUJ_clean_linker_0, # of connection points: 2
#     Edge 18, Type (0, 0), BuildingBlock: MIFKUJ_clean_linker_0, # of connection points: 2
#     Edge 19, Type (0, 0), BuildingBlock: MIFKUJ_clean_linker_0, # of connection points: 2
#     Edge 20, Type (0, 0), BuildingBlock: MIFKUJ_clean_linker_0, # of connection points: 2
#     Edge 21, Type (0, 0), BuildingBlock: MIFKUJ_clean_linker_0, # of connection points: 2
#     Edge 22, Type (0, 0), BuildingBlock: MIFKUJ_clean_linker_0, # of connection points: 2
#     Edge 23, Type (0, 0), BuildingBlock: MIFKUJ_clean_linker_0, # of connection points: 2
#     Edge 24, Type (0, 0), BuildingBlock: MIFKUJ_clean_linker_0, # of connection points: 2
#     Edge 25, Type (0, 0), BuildingBlock: MIFKUJ_clean_linker_0, # of connection points: 2
#     Edge 26, Type (0, 0), BuildingBlock: MIFKUJ_clean_linker_0, # of connection points: 2
#     Edge 27, Type (0, 0), BuildingBlock: MIFKUJ_clean_linker_0, # of connection points: 2
#     Edge 28, Type (0, 0), BuildingBlock: MIFKUJ_clean_linker_0, # of connection points: 2
#     Edge 29, Type (0, 0), BuildingBlock: MIFKUJ_clean_linker_0, # of connection points: 2
#     Edge 30, Type (0, 0), BuildingBlock: MIFKUJ_clean_linker_0, # of connection points: 2
#     Edge 31, Type (0, 0), BuildingBlock: MIFKUJ_clean_linker_0, # of connection points: 2
#     Edge 32, Type (0, 0), BuildingBlock: MIFKUJ_clean_linker_0, # of connection points: 2
#     Edge 33, Type (0, 0), BuildingBlock: MIFKUJ_clean_linker_0, # of connection points: 2
#     Edge 34, Type (0, 0), BuildingBlock: MIFKUJ_clean_linker_0, # of connection points: 2
#     Edge 35, Type (0, 0), BuildingBlock: MIFKUJ_clean_linker_0, # of connection points: 2
#     Edge 36, Type (0, 0), BuildingBlock: MIFKUJ_clean_linker_0, # of connection points: 2
#     Edge 37, Type (0, 0), BuildingBlock: MIFKUJ_clean_linker_0, # of connection points: 2
#     Edge 38, Type (0, 0), BuildingBlock: MIFKUJ_clean_linker_0, # of connection points: 2
#     Edge 39, Type (0, 0), BuildingBlock: MIFKUJ_clean_linker_0, # of connection points: 2
#     Edge 40, Type (0, 0), BuildingBlock: MIFKUJ_clean_linker_0, # of connection points: 2
#     Edge 41, Type (0, 0), BuildingBlock: MIFKUJ_clean_linker_0, # of connection points: 2
#     Edge 42, Type (0, 0), BuildingBlock: MIFKUJ_clean_linker_0, # of connection points: 2
#     Edge 43, Type (0, 0), BuildingBlock: MIFKUJ_clean_linker_0, # of connection points: 2
#     Edge 44, Type (0, 0), BuildingBlock: MIFKUJ_clean_linker_0, # of connection points: 2
#     Edge 45, Type (0, 0), BuildingBlock: MIFKUJ_clean_linker_0, # of connection points: 2
#     Edge 46, Type (0, 0), BuildingBlock: MIFKUJ_clean_linker_0, # of connection points: 2
#     Edge 47, Type (0, 0), BuildingBlock: MIFKUJ_clean_linker_0, # of connection points: 2
#     Edge 48, Type (0, 0), BuildingBlock: MIFKUJ_clean_linker_0, # of connection points: 2
#     Edge 49, Type (0, 0), BuildingBlock: MIFKUJ_clean_linker_0, # of connection points: 2
#     Edge 50, Type (0, 0), BuildingBlock: MIFKUJ_clean_linker_0, # of connection points: 2
#     Edge 51, Type (0, 0), BuildingBlock: MIFKUJ_clean_linker_0, # of connection points: 2
#     Edge 52, Type (0, 0), BuildingBlock: MIFKUJ_clean_linker_0, # of connection points: 2
#     Edge 53, Type (0, 0), BuildingBlock: MIFKUJ_clean_linker_0, # of connection points: 2
#     Edge 54, Type (0, 0), BuildingBlock: MIFKUJ_clean_linker_0, # of connection points: 2
#     Edge 55, Type (0, 0), BuildingBlock: MIFKUJ_clean_linker_0, # of connection points: 2
#     Edge 56, Type (0, 0), BuildingBlock: MIFKUJ_clean_linker_0, # of connection points: 2
#     Edge 57, Type (0, 0), BuildingBlock: MIFKUJ_clean_linker_0, # of connection points: 2
#     Edge 58, Type (0, 0), BuildingBlock: MIFKUJ_clean_linker_0, # of connection points: 2
#     Edge 59, Type (0, 0), BuildingBlock: MIFKUJ_clean_linker_0, # of connection points: 2
#     Edge 60, Type (0, 0), BuildingBlock: MIFKUJ_clean_linker_0, # of connection points: 2
#     Edge 61, Type (0, 0), BuildingBlock: MIFKUJ_clean_linker_0, # of connection points: 2
#     Edge 62, Type (0, 0), BuildingBlock: MIFKUJ_clean_linker_0, # of connection points: 2
#     Edge 63, Type (0, 0), BuildingBlock: MIFKUJ_clean_linker_0, # of connection points: 2
# Relax obj value: 0.186
# Max RMSD: 0.248
# Mean RMSD: 0.216
data_MOF--net-snl--node1-BETFAJ_clean_sbu_0--edge1-MIFKUJ_clean_linker_0
_symmetry_space_group_name_H-M    P1
_symmetry_Int_Tables_number       1
_symmetry_cell_setting            triclinic
loop_
_symmetry_equiv_pos_as_xyz
'x, y, z'
_cell_length_a     75.24391
_cell_length_b     75.344201
_cell_length_c     30.65988
_cell_angle_alpha  102.7732
_cell_angle_beta   89.881986
_cell_angle_gamma 89.977323
loop_
_atom_site_label
_atom_site_type_symbol
_atom_site_fract_x
_atom_site_fract_y
_atom_site_fract_z
_atom_type_partial_charge
Sm0 Sm 0.1442 0.63006 0.11016 0.0
Sm1 Sm 0.13083 0.63346 0.20224 0.0
C2 C 0.15129 0.62105 0.02301 0.0
C3 C 0.14637 0.62415 0.97851 0.0
C4 C 0.14103 0.60931 0.94482 0.0
C5 C 0.13828 0.61134 0.90107 0.0
C6 C 0.14094 0.62828 0.88988 0.0
C7 C 0.14581 0.64328 0.92394 0.0
C8 C 0.14848 0.64125 0.9678 0.0
C9 C 0.14279 0.66584 0.15738 0.0
C10 C 0.10077 0.63443 0.12999 0.0
C11 C 0.12339 0.64229 0.28915 0.0
C12 C 0.12818 0.63935 0.33391 0.0
C13 C 0.13392 0.65419 0.36711 0.0
C14 C 0.13654 0.65237 0.41108 0.0
C15 C 0.13336 0.63567 0.42302 0.0
C16 C 0.12807 0.62067 0.38946 0.0
C17 C 0.1255 0.62248 0.3454 0.0
C18 C 0.1323 0.59787 0.15275 0.0
C19 C 0.17397 0.62951 0.1861 0.0
O20 O 0.14021 0.61196 0.0427 0.0
O21 O 0.1593 0.63418 0.051 0.0
O22 O 0.13086 0.65406 0.15782 0.0
O23 O 0.15568 0.65889 0.13112 0.0
O24 O 0.11321 0.62762 0.10023 0.0
O25 O 0.10516 0.64111 0.17188 0.0
O26 O 0.13438 0.65159 0.26975 0.0
O27 O 0.11563 0.629 0.26094 0.0
O28 O 0.14407 0.60981 0.15359 0.0
O29 O 0.11967 0.60413 0.18071 0.0
O30 O 0.16107 0.63579 0.21451 0.0
O31 O 0.17054 0.6237 0.14299 0.0
H32 H 0.1395 0.59594 0.95204 0.0
H33 H 0.13474 0.59946 0.87563 0.0
H34 H 0.14774 0.65656 0.91659 0.0
H35 H 0.15259 0.65299 0.99299 0.0
H36 H 0.13587 0.66741 0.35934 0.0
H37 H 0.14041 0.66426 0.4361 0.0
H38 H 0.12572 0.60754 0.39735 0.0
H39 H 0.12103 0.61076 0.32066 0.0
Sm40 Sm 0.64488 0.88658 0.41837 0.0
Sm41 Sm 0.63247 0.87908 0.3188 0.0
C42 C 0.65128 0.9029 0.5028 0.0
C43 C 0.64857 0.90017 0.54877 0.0
C44 C 0.64484 0.91523 0.5836 0.0
C45 C 0.64309 0.91318 0.62775 0.0
C46 C 0.6451 0.89599 0.63816 0.0
C47 C 0.6486 0.88087 0.60299 0.0
C48 C 0.65026 0.88292 0.55878 0.0
C49 C 0.64129 0.84923 0.38979 0.0
C50 C 0.60272 0.87764 0.39135 0.0
C51 C 0.62601 0.86883 0.23147 0.0
C52 C 0.63014 0.87259 0.18699 0.0
C53 C 0.63493 0.85808 0.15168 0.0
C54 C 0.63733 0.8608 0.1083 0.0
C55 C 0.63492 0.87813 0.09902 0.0
C56 C 0.63048 0.89275 0.1347 0.0
C57 C 0.62813 0.89002 0.17817 0.0
C58 C 0.63215 0.91509 0.36631 0.0
C59 C 0.67555 0.8835 0.33943 0.0
O60 O 0.63718 0.90637 0.48103 0.0
O61 O 0.66264 0.89207 0.47738 0.0
O62 O 0.63833 0.86075 0.36621 0.0
O63 O 0.64665 0.85743 0.42919 0.0
O64 O 0.61368 0.88794 0.42029 0.0
O65 O 0.60853 0.86892 0.35182 0.0
O66 O 0.63843 0.8615 0.25156 0.0
O67 O 0.61637 0.88071 0.2592 0.0
O68 O 0.64407 0.90349 0.36693 0.0
O69 O 0.61978 0.90804 0.33851 0.0
O70 O 0.66286 0.87847 0.3095 0.0
O71 O 0.67201 0.88877 0.38285 0.0
H72 H 0.64353 0.92867 0.57674 0.0
H73 H 0.64059 0.92516 0.6539 0.0
H74 H 0.64998 0.8674 0.60959 0.0
H75 H 0.65303 0.87104 0.53251 0.0
H76 H 0.63641 0.84448 0.15745 0.0
H77 H 0.64052 0.84916 0.08176 0.0
H78 H 0.62877 0.90633 0.12901 0.0
H79 H 0.62446 0.9015 0.20468 0.0
Sm80 Sm 0.37693 0.39749 0.6697 0.0
Sm81 Sm 0.37769 0.37787 0.56669 0.0
C82 C 0.3652 0.40832 0.75317 0.0
C83 C 0.36807 0.40544 0.7993 0.0
C84 C 0.35801 0.39242 0.81517 0.0
C85 C 0.35978 0.39042 0.85935 0.0
C86 C 0.37157 0.40146 0.88919 0.0
C87 C 0.38167 0.41446 0.87325 0.0
C88 C 0.37992 0.41644 0.82898 0.0
C89 C 0.41212 0.39096 0.64401 0.0
C90 C 0.38272 0.35254 0.6372 0.0
C91 C 0.38283 0.36684 0.47888 0.0
C92 C 0.38073 0.37211 0.4351 0.0
C93 C 0.39066 0.3863 0.42385 0.0
C94 C 0.3896 0.3898 0.38076 0.0
C95 C 0.37864 0.37919 0.34777 0.0
C96 C 0.36841 0.36532 0.35963 0.0
C97 C 0.3695 0.3618 0.40256 0.0
C98 C 0.34534 0.37975 0.61071 0.0
C99 C 0.37492 0.42301 0.59458 0.0
O100 O 0.35811 0.3949 0.72375 0.0
O101 O 0.37736 0.41718 0.73574 0.0
O102 O 0.39865 0.38685 0.61918 0.0
O103 O 0.407 0.39885 0.68405 0.0
O104 O 0.37621 0.3663 0.66792 0.0
O105 O 0.38743 0.35457 0.59704 0.0
O106 O 0.39503 0.37501 0.5066 0.0
O107 O 0.36841 0.36329 0.49929 0.0
O108 O 0.35671 0.39231 0.61474 0.0
O109 O 0.35061 0.36555 0.58122 0.0
O110 O 0.37665 0.40796 0.56316 0.0
O111 O 0.37399 0.42278 0.63782 0.0
H112 H 0.34851 0.38391 0.79363 0.0
H113 H 0.35153 0.38048 0.87042 0.0
H114 H 0.39102 0.4231 0.89497 0.0
H115 H 0.38775 0.42676 0.8182 0.0
H116 H 0.39953 0.39447 0.44798 0.0
H117 H 0.39781 0.40049 0.37296 0.0
H118 H 0.35956 0.35705 0.33563 0.0
H119 H 0.36174 0.35074 0.41008 0.0
Sm120 Sm 0.87651 0.11334 0.84609 0.0
Sm121 Sm 0.87642 0.13339 0.94893 0.0
C122 C 0.86541 0.10182 0.76228 0.0
C123 C 0.86812 0.1041 0.71575 0.0
C124 C 0.85322 0.10659 0.69025 0.0
C125 C 0.85508 0.10815 0.64575 0.0
C126 C 0.87194 0.10723 0.62531 0.0
C127 C 0.88692 0.10496 0.65117 0.0
C128 C 0.88504 0.1034 0.69583 0.0
C129 C 0.91147 0.11947 0.87404 0.0
C130 C 0.88199 0.15849 0.87836 0.0
C131 C 0.87904 0.14435 0.0375 0.0
C132 C 0.87923 0.1378 0.08007 0.0
C133 C 0.89534 0.13451 0.10013 0.0
C134 C 0.89553 0.13025 0.14249 0.0
C135 C 0.87961 0.12928 0.1662 0.0
C136 C 0.86349 0.1322 0.14559 0.0
C137 C 0.8633 0.13643 0.10329 0.0
C138 C 0.8445 0.131 0.9032 0.0
C139 C 0.87634 0.08825 0.92155 0.0
O140 O 0.85813 0.11544 0.79069 0.0
O141 O 0.87775 0.09348 0.78046 0.0
O142 O 0.89769 0.12392 0.8976 0.0
O143 O 0.90682 0.11139 0.8338 0.0
O144 O 0.87579 0.14459 0.84754 0.0
O145 O 0.88619 0.1568 0.91907 0.0
O146 O 0.89287 0.14113 1.01086 0.0
O147 O 0.86403 0.14333 0.01565 0.0
O148 O 0.85584 0.11846 0.90035 0.0
O149 O 0.84977 0.14563 0.93102 0.0
O150 O 0.87918 0.10336 0.95201 0.0
O151 O 0.87311 0.0884 0.87897 0.0
H152 H 0.84002 0.10724 0.70476 0.0
H153 H 0.84324 0.11023 0.62747 0.0
H154 H 0.90011 0.10404 0.63667 0.0
H155 H 0.89679 0.1015 0.71461 0.0
H156 H 0.90789 0.13558 0.08351 0.0
H157 H 0.90821 0.12783 0.15677 0.0
H158 H 0.85095 0.13186 0.16277 0.0
H159 H 0.85063 0.13913 0.08935 0.0
Sm160 Sm 0.14487 0.38389 0.91207 0.0
Sm161 Sm 0.13133 0.38013 0.82055 0.0
C162 C 0.15208 0.39333 0.99913 0.0
C163 C 0.14754 0.39012 0.04396 0.0
C164 C 0.13555 0.40164 0.0721 0.0
C165 C 0.13287 0.40001 0.11628 0.0
C166 C 0.14222 0.3869 0.13354 0.0
C167 C 0.15392 0.37513 0.10502 0.0
C168 C 0.15658 0.37675 0.06088 0.0
C169 C 0.1437 0.34786 0.8664 0.0
C170 C 0.10151 0.37894 0.89312 0.0
C171 C 0.12354 0.37162 0.73386 0.0
C172 C 0.12808 0.37499 0.68919 0.0
C173 C 0.14051 0.36393 0.66136 0.0
C174 C 0.14317 0.36566 0.61726 0.0
C175 C 0.13341 0.37844 0.5998 0.0
C176 C 0.1213 0.38979 0.62802 0.0
C177 C 0.11862 0.38804 0.67206 0.0
C178 C 0.13288 0.41584 0.8697 0.0
C179 C 0.17448 0.38423 0.83506 0.0
O180 O 0.14066 0.40201 0.97938 0.0
O181 O 0.16041 0.38042 0.97108 0.0
O182 O 0.13167 0.35951 0.86521 0.0
O183 O 0.15649 0.35515 0.89236 0.0
O184 O 0.11384 0.38642 0.9223 0.0
O185 O 0.10599 0.37187 0.85146 0.0
O186 O 0.13476 0.36234 0.7527 0.0
O187 O 0.11565 0.38465 0.76267 0.0
O188 O 0.14468 0.4039 0.86824 0.0
O189 O 0.11996 0.40945 0.84295 0.0
O190 O 0.16152 0.37798 0.807 0.0
O191 O 0.17118 0.38998 0.87831 0.0
H192 H 0.12852 0.41223 0.06035 0.0
H193 H 0.12359 0.40916 0.13707 0.0
H194 H 0.16155 0.36505 0.11724 0.0
H195 H 0.16615 0.36784 0.04046 0.0
H196 H 0.14789 0.3536 0.67326 0.0
H197 H 0.15276 0.35684 0.59667 0.0
H198 H 0.11337 0.3996 0.61559 0.0
H199 H 0.10873 0.39658 0.69225 0.0
Sm200 Sm 0.87699 0.89927 0.17636 0.0
Sm201 Sm 0.87804 0.88075 0.07231 0.0
C202 C 0.8648 0.9096 0.25938 0.0
C203 C 0.86756 0.90691 0.30542 0.0
C204 C 0.85329 0.90084 0.32788 0.0
C205 C 0.85518 0.89872 0.37186 0.0
C206 C 0.87141 0.90269 0.39471 0.0
C207 C 0.88574 0.9087 0.37206 0.0
C208 C 0.88385 0.91077 0.3279 0.0
C209 C 0.91218 0.89262 0.15083 0.0
C210 C 0.88251 0.85445 0.14099 0.0
C211 C 0.88483 0.87097 0.98511 0.0
C212 C 0.88278 0.87655 0.94171 0.0
C213 C 0.89744 0.88348 0.92225 0.0
C214 C 0.8963 0.88692 0.87924 0.0
C215 C 0.88049 0.88343 0.85434 0.0
C216 C 0.8657 0.8769 0.87427 0.0
C217 C 0.86684 0.87347 0.9173 0.0
C218 C 0.84531 0.88266 0.11477 0.0
C219 C 0.87463 0.92574 0.10312 0.0
O220 O 0.85835 0.89576 0.23009 0.0
O221 O 0.87674 0.91885 0.24234 0.0
O222 O 0.89868 0.88902 0.12589 0.0
O223 O 0.90709 0.90012 0.19119 0.0
O224 O 0.87585 0.8679 0.17232 0.0
O225 O 0.88744 0.857 0.10145 0.0
O226 O 0.89605 0.88009 0.01427 0.0
O227 O 0.87065 0.8658 1.00383 0.0
O228 O 0.85709 0.89486 0.12077 0.0
O229 O 0.85025 0.86894 0.08331 0.0
O230 O 0.87601 0.91099 0.07066 0.0
O231 O 0.87434 0.92506 0.14614 0.0
H232 H 0.84055 0.89788 0.31146 0.0
H233 H 0.84377 0.89431 0.38828 0.0
H234 H 0.89849 0.91168 0.38834 0.0
H235 H 0.89513 0.91543 0.3115 0.0
H236 H 0.91 0.88577 0.9398 0.0
H237 H 0.90804 0.89171 0.86491 0.0
H238 H 0.85323 0.8743 0.85646 0.0
H239 H 0.8553 0.86803 0.931 0.0
Sm240 Sm 0.37721 0.61313 0.34574 0.0
Sm241 Sm 0.3774 0.63313 0.44849 0.0
C242 C 0.36582 0.60233 0.26206 0.0
C243 C 0.36883 0.60523 0.21598 0.0
C244 C 0.35681 0.61588 0.19761 0.0
C245 C 0.35878 0.61797 0.15353 0.0
C246 C 0.37277 0.60936 0.12627 0.0
C247 C 0.38483 0.59872 0.14469 0.0
C248 C 0.38288 0.59666 0.1889 0.0
C249 C 0.41226 0.619 0.37269 0.0
C250 C 0.3832 0.65822 0.37766 0.0
C251 C 0.38077 0.64466 0.53672 0.0
C252 C 0.38002 0.63915 0.58048 0.0
C253 C 0.39257 0.62729 0.59275 0.0
C254 C 0.39231 0.62367 0.63584 0.0
C255 C 0.37957 0.63188 0.66779 0.0
C256 C 0.36681 0.6434 0.65489 0.0
C257 C 0.36709 0.64701 0.612 0.0
C258 C 0.3456 0.63168 0.40269 0.0
C259 C 0.37563 0.58793 0.42121 0.0
O260 O 0.35864 0.61578 0.29132 0.0
O261 O 0.37789 0.59347 0.2797 0.0
O262 O 0.39865 0.62352 0.39698 0.0
O263 O 0.40735 0.611 0.33259 0.0
O264 O 0.37741 0.64426 0.34645 0.0
O265 O 0.38707 0.65653 0.41857 0.0
O266 O 0.39424 0.63933 0.50982 0.0
O267 O 0.3658 0.64502 0.51537 0.0
O268 O 0.35659 0.61882 0.39995 0.0
O269 O 0.35111 0.64606 0.43105 0.0
O270 O 0.37799 0.60303 0.4521 0.0
O271 O 0.37365 0.58809 0.37817 0.0
H272 H 0.34566 0.62242 0.21717 0.0
H273 H 0.34904 0.62602 0.14049 0.0
H274 H 0.39587 0.59201 0.12499 0.0
H275 H 0.39233 0.58823 0.20168 0.0
H276 H 0.40279 0.62106 0.56941 0.0
H277 H 0.40244 0.61484 0.6445 0.0
H278 H 0.35658 0.64973 0.67804 0.0
H279 H 0.35728 0.65627 0.6037 0.0
Sm280 Sm 0.64451 0.12812 0.60533 0.0
Sm281 Sm 0.63089 0.13285 0.69727 0.0
C282 C 0.65156 0.11789 0.51815 0.0
C283 C 0.64665 0.1201 0.47283 0.0
C284 C 0.6451 0.10457 0.43804 0.0
C285 C 0.64247 0.10619 0.39387 0.0
C286 C 0.64138 0.12342 0.38335 0.0
C287 C 0.64244 0.13899 0.41853 0.0
C288 C 0.64504 0.13735 0.46277 0.0
C289 C 0.6443 0.16431 0.65012 0.0
C290 C 0.6013 0.13455 0.62497 0.0
C291 C 0.62301 0.14176 0.78406 0.0
C292 C 0.62758 0.13914 0.82925 0.0
C293 C 0.62918 0.15448 0.86456 0.0
C294 C 0.63173 0.15255 0.9085 0.0
C295 C 0.63269 0.13518 0.91831 0.0
C296 C 0.6315 0.1198 0.88266 0.0
C297 C 0.62898 0.12175 0.83861 0.0
C298 C 0.63128 0.09707 0.64843 0.0
C299 C 0.67405 0.12766 0.68196 0.0
O300 O 0.6407 0.10899 0.53893 0.0
O301 O 0.65926 0.13157 0.54505 0.0
O302 O 0.63193 0.15308 0.65178 0.0
O303 O 0.65695 0.15651 0.62416 0.0
O304 O 0.61343 0.12635 0.59595 0.0
O305 O 0.60592 0.1419 0.66634 0.0
O306 O 0.63396 0.15117 0.76484 0.0
O307 O 0.61566 0.12821 0.75583 0.0
O308 O 0.64365 0.10843 0.65023 0.0
O309 O 0.61816 0.10424 0.67374 0.0
O310 O 0.66116 0.13422 0.71018 0.0
O311 O 0.67068 0.1218 0.63883 0.0
H312 H 0.64646 0.09112 0.44484 0.0
H313 H 0.64192 0.0939 0.36775 0.0
H314 H 0.64139 0.15247 0.41184 0.0
H315 H 0.64616 0.14959 0.48891 0.0
H316 H 0.62798 0.16803 0.85831 0.0
H317 H 0.63235 0.16471 0.93498 0.0
H318 H 0.63243 0.10622 0.88881 0.0
H319 H 0.62781 0.10965 0.81207 0.0
Sm320 Sm 0.88132 0.37935 0.82028 0.0
Sm321 Sm 0.86807 0.38423 0.91305 0.0
C322 C 0.88863 0.36974 0.7333 0.0
C323 C 0.88402 0.37244 0.68819 0.0
C324 C 0.8784 0.35747 0.65523 0.0
C325 C 0.87591 0.35905 0.61102 0.0
C326 C 0.87908 0.37567 0.59855 0.0
C327 C 0.88421 0.39082 0.63192 0.0
C328 C 0.88668 0.38923 0.67621 0.0
C329 C 0.87973 0.41545 0.86714 0.0
C330 C 0.83834 0.38335 0.83654 0.0
C331 C 0.86104 0.39458 1.0001 0.0
C332 C 0.86548 0.39185 0.04527 0.0
C333 C 0.87088 0.40685 0.07844 0.0
C334 C 0.87327 0.40521 0.12264 0.0
C335 C 0.8702 0.38854 0.13489 0.0
C336 C 0.86527 0.37337 0.1013 0.0
C337 C 0.86292 0.37501 0.05701 0.0
C338 C 0.86949 0.34796 0.86896 0.0
C339 C 0.9114 0.3791 0.89276 0.0
O340 O 0.87734 0.36095 0.75325 0.0
O341 O 0.89671 0.38294 0.761 0.0
O342 O 0.86808 0.4035 0.86731 0.0
O343 O 0.89239 0.40888 0.8396 0.0
O344 O 0.85106 0.3757 0.80908 0.0
O345 O 0.84211 0.39088 0.87873 0.0
O346 O 0.87273 0.40273 0.97971 0.0
O347 O 0.85247 0.38165 0.97283 0.0
O348 O 0.88138 0.35966 0.86715 0.0
O349 O 0.85666 0.35528 0.89499 0.0
O350 O 0.89913 0.3869 0.92195 0.0
O351 O 0.90683 0.37159 0.85142 0.0
H352 H 0.87635 0.34435 0.66343 0.0
H353 H 0.87166 0.34717 0.58649 0.0
H354 H 0.88693 0.40378 0.62356 0.0
H355 H 0.89112 0.40102 0.70073 0.0
H356 H 0.87287 0.42 0.07036 0.0
H357 H 0.87738 0.4171 0.14734 0.0
H358 H 0.86263 0.36036 0.10947 0.0
H359 H 0.85865 0.3632 0.03228 0.0
Sm360 Sm 0.3806 0.13197 0.7002 0.0
Sm361 Sm 0.36704 0.12776 0.60813 0.0
C362 C 0.3883 0.1408 0.78692 0.0
C363 C 0.3841 0.1372 0.83154 0.0
C364 C 0.37429 0.15 0.86271 0.0
C365 C 0.37202 0.14791 0.90664 0.0
C366 C 0.37963 0.13304 0.92064 0.0
C367 C 0.38908 0.12001 0.88912 0.0
C368 C 0.39131 0.12207 0.84516 0.0
C369 C 0.3795 0.09617 0.65143 0.0
C370 C 0.33749 0.12746 0.68533 0.0
C371 C 0.36008 0.11798 0.521 0.0
C372 C 0.3645 0.12134 0.47629 0.0
C373 C 0.37401 0.1082 0.44529 0.0
C374 C 0.37646 0.11011 0.40126 0.0
C375 C 0.36931 0.12513 0.38703 0.0
C376 C 0.36019 0.13851 0.41839 0.0
C377 C 0.3578 0.13664 0.46245 0.0
C378 C 0.36781 0.16382 0.65359 0.0
C379 C 0.4103 0.13347 0.62767 0.0
O380 O 0.37655 0.14954 0.76818 0.0
O381 O 0.39671 0.1282 0.75804 0.0
O382 O 0.3676 0.10797 0.65246 0.0
O383 O 0.39227 0.10274 0.67849 0.0
O384 O 0.35039 0.134 0.71331 0.0
O385 O 0.34084 0.12147 0.64216 0.0
O386 O 0.37186 0.10974 0.54088 0.0
O387 O 0.3513 0.13055 0.54893 0.0
O388 O 0.37997 0.15233 0.65491 0.0
O389 O 0.35516 0.1564 0.62729 0.0
O390 O 0.39814 0.12549 0.59857 0.0
O391 O 0.40565 0.1408 0.66906 0.0
H392 H 0.3688 0.16195 0.85351 0.0
H393 H 0.36484 0.15833 0.93009 0.0
H394 H 0.39492 0.10827 0.89856 0.0
H395 H 0.39907 0.11201 0.8222 0.0
H396 H 0.37911 0.09613 0.45472 0.0
H397 H 0.38338 0.09945 0.37791 0.0
H398 H 0.35471 0.15038 0.40875 0.0
H399 H 0.35031 0.14699 0.4853 0.0
Sm400 Sm 0.63514 0.63385 0.45102 0.0
Sm401 Sm 0.63581 0.61421 0.34739 0.0
C402 C 0.62924 0.64456 0.53854 0.0
C403 C 0.63185 0.63945 0.58223 0.0
C404 C 0.62626 0.62256 0.58984 0.0
C405 C 0.62771 0.61876 0.63256 0.0
C406 C 0.63486 0.63171 0.6686 0.0
C407 C 0.64072 0.64844 0.6605 0.0
C408 C 0.6392 0.65224 0.61795 0.0
C409 C 0.66767 0.63157 0.40775 0.0
C410 C 0.63813 0.58872 0.42279 0.0
C411 C 0.64729 0.60339 0.26369 0.0
C412 C 0.64431 0.60615 0.21754 0.0
C413 C 0.64992 0.62218 0.20514 0.0
C414 C 0.64849 0.624 0.16074 0.0
C415 C 0.64142 0.60987 0.12739 0.0
C416 C 0.63552 0.59398 0.13999 0.0
C417 C 0.63703 0.59212 0.1844 0.0
C418 C 0.60073 0.62095 0.37386 0.0
C419 C 0.6301 0.65913 0.3801 0.0
O420 O 0.61777 0.63524 0.51043 0.0
O421 O 0.64328 0.64936 0.51869 0.0
O422 O 0.65596 0.61929 0.40253 0.0
O423 O 0.66278 0.64548 0.43863 0.0
O424 O 0.63656 0.60377 0.45431 0.0
O425 O 0.63878 0.58893 0.37947 0.0
O426 O 0.65432 0.61689 0.29297 0.0
O427 O 0.63522 0.59447 0.28124 0.0
O428 O 0.61434 0.62494 0.3982 0.0
O429 O 0.60565 0.61301 0.33369 0.0
O430 O 0.63663 0.64538 0.34938 0.0
O431 O 0.62548 0.65714 0.42036 0.0
H432 H 0.62058 0.61237 0.56297 0.0
H433 H 0.62326 0.60566 0.63733 0.0
H434 H 0.64607 0.65885 0.68739 0.0
H435 H 0.64347 0.66541 0.61315 0.0
H436 H 0.65568 0.63328 0.22957 0.0
H437 H 0.65294 0.63654 0.15254 0.0
H438 H 0.63019 0.58272 0.11525 0.0
H439 H 0.6328 0.57951 0.19265 0.0
Sm440 Sm 0.1351 0.88004 0.07567 0.0
Sm441 Sm 0.13576 0.89963 0.17916 0.0
C442 C 0.12934 0.86903 0.98819 0.0
C443 C 0.13117 0.87435 0.9444 0.0
C444 C 0.12043 0.88792 0.93291 0.0
C445 C 0.12121 0.89142 0.8898 0.0
C446 C 0.1327 0.88141 0.85701 0.0
C447 C 0.14373 0.86817 0.86907 0.0
C448 C 0.14291 0.86465 0.91203 0.0
C449 C 0.16781 0.88262 0.11821 0.0
C450 C 0.13679 0.92521 0.10395 0.0
C451 C 0.14681 0.91056 0.26305 0.0
C452 C 0.14346 0.90776 0.30904 0.0
C453 C 0.15362 0.89504 0.32564 0.0
C454 C 0.15144 0.893 0.36965 0.0
C455 C 0.13909 0.9037 0.39861 0.0
C456 C 0.12885 0.91639 0.38195 0.0
C457 C 0.13103 0.91843 0.3378 0.0
C458 C 0.1007 0.89188 0.15345 0.0
C459 C 0.13133 0.85475 0.14623 0.0
O460 O 0.11736 0.87731 0.01657 0.0
O461 O 0.14387 0.8653 1.00782 0.0
O462 O 0.15598 0.89485 0.12382 0.0
O463 O 0.1629 0.8687 0.08747 0.0
O464 O 0.13489 0.91016 0.07264 0.0
O465 O 0.13847 0.92493 0.14705 0.0
O466 O 0.15391 0.89695 0.23415 0.0
O467 O 0.13499 0.91954 0.24493 0.0
O468 O 0.11435 0.88839 0.12896 0.0
O469 O 0.10555 0.89986 0.19356 0.0
O470 O 0.13825 0.86848 0.17612 0.0
O471 O 0.12578 0.85674 0.10675 0.0
H472 H 0.11113 0.89559 0.95686 0.0
H473 H 0.11239 0.9016 0.88183 0.0
H474 H 0.15299 0.8604 0.84519 0.0
H475 H 0.15129 0.85404 0.91969 0.0
H476 H 0.16352 0.88681 0.30473 0.0
H477 H 0.15978 0.88331 0.38131 0.0
H478 H 0.11907 0.92475 0.40298 0.0
H479 H 0.12309 0.92849 0.32639 0.0
Sm480 Sm 0.88021 0.63345 0.19943 0.0
Sm481 Sm 0.86766 0.62862 0.10604 0.0
C482 C 0.88722 0.6431 0.28648 0.0
C483 C 0.88238 0.64079 0.33169 0.0
C484 C 0.88184 0.65619 0.36705 0.0
C485 C 0.87914 0.65442 0.41105 0.0
C486 C 0.87695 0.63716 0.4208 0.0
C487 C 0.87703 0.62174 0.38508 0.0
C488 C 0.87971 0.62353 0.34096 0.0
C489 C 0.87835 0.59735 0.15255 0.0
C490 C 0.83739 0.63015 0.18193 0.0
C491 C 0.86087 0.61815 0.019 0.0
C492 C 0.86548 0.62073 0.97391 0.0
C493 C 0.86607 0.60545 0.93823 0.0
C494 C 0.86862 0.60745 0.89437 0.0
C495 C 0.87063 0.62483 0.88509 0.0
C496 C 0.87048 0.64013 0.92115 0.0
C497 C 0.86794 0.6381 0.96513 0.0
C498 C 0.86898 0.66486 0.14995 0.0
C499 C 0.91094 0.63298 0.12794 0.0
O500 O 0.8763 0.65213 0.26628 0.0
O501 O 0.89489 0.62946 0.25918 0.0
O502 O 0.86694 0.6095 0.15205 0.0
O503 O 0.89092 0.60374 0.18039 0.0
O504 O 0.85001 0.63765 0.20969 0.0
O505 O 0.84136 0.62241 0.13992 0.0
O506 O 0.8724 0.60992 0.03956 0.0
O507 O 0.85249 0.63136 0.04598 0.0
O508 O 0.88081 0.65316 0.15252 0.0
O509 O 0.85639 0.65754 0.12326 0.0
O510 O 0.89876 0.62581 0.09793 0.0
O511 O 0.90616 0.64044 0.16919 0.0
H512 H 0.88401 0.66962 0.36077 0.0
H513 H 0.87941 0.66658 0.4376 0.0
H514 H 0.87514 0.60825 0.39124 0.0
H515 H 0.88003 0.6114 0.31429 0.0
H516 H 0.86406 0.59194 0.94416 0.0
H517 H 0.86841 0.59538 0.86755 0.0
H518 H 0.87223 0.65369 0.91538 0.0
H519 H 0.86757 0.65012 0.9921 0.0
Sm520 Sm 0.13437 0.1346 0.95502 0.0
Sm521 Sm 0.13468 0.11439 0.85224 0.0
C522 C 0.1299 0.14584 0.04304 0.0
C523 C 0.13159 0.14031 0.0866 0.0
C524 C 0.12176 0.12582 0.09662 0.0
C525 C 0.12266 0.12191 0.13934 0.0
C526 C 0.13345 0.13235 0.17304 0.0
C527 C 0.14346 0.14664 0.16252 0.0
C528 C 0.1425 0.15057 0.12 0.0
C529 C 0.16637 0.13301 0.90955 0.0
C530 C 0.13767 0.08945 0.92829 0.0
C531 C 0.1461 0.10363 0.7684 0.0
C532 C 0.14328 0.1066 0.7223 0.0
C533 C 0.15341 0.11962 0.70663 0.0
C534 C 0.15188 0.12156 0.66234 0.0
C535 C 0.14025 0.11046 0.63216 0.0
C536 C 0.12994 0.09757 0.64798 0.0
C537 C 0.13149 0.09562 0.69235 0.0
C538 C 0.09959 0.11991 0.87985 0.0
C539 C 0.12817 0.15938 0.88382 0.0
O540 O 0.11719 0.13862 0.01566 0.0
O541 O 0.14456 0.14834 0.02222 0.0
O542 O 0.15525 0.12025 0.90637 0.0
O543 O 0.16096 0.14731 0.93853 0.0
O544 O 0.13557 0.10458 0.95927 0.0
O545 O 0.13865 0.08945 0.88492 0.0
O546 O 0.15334 0.11694 0.79784 0.0
O547 O 0.13389 0.09485 0.78591 0.0
O548 O 0.11324 0.12466 0.90366 0.0
O549 O 0.10449 0.1118 0.83977 0.0
O550 O 0.13447 0.14553 0.853 0.0
O551 O 0.12406 0.15761 0.92455 0.0
H552 H 0.11321 0.11763 0.0717 0.0
H553 H 0.11492 0.11068 0.14594 0.0
H554 H 0.15171 0.15516 0.18759 0.0
H555 H 0.15008 0.16194 0.11347 0.0
H556 H 0.16278 0.12821 0.72844 0.0
H557 H 0.15986 0.13181 0.65179 0.0
H558 H 0.121 0.08861 0.62573 0.0
H559 H 0.12366 0.08526 0.70293 0.0
Sm560 Sm 0.63571 0.37965 0.56947 0.0
Sm561 Sm 0.63637 0.39885 0.67299 0.0
C562 C 0.63016 0.36877 0.48185 0.0
C563 C 0.63223 0.37397 0.43811 0.0
C564 C 0.6259 0.39063 0.43067 0.0
C565 C 0.62703 0.39452 0.38798 0.0
C566 C 0.63453 0.38186 0.35175 0.0
C567 C 0.64103 0.36533 0.35966 0.0
C568 C 0.63988 0.36146 0.4022 0.0
C569 C 0.66841 0.38223 0.61211 0.0
C570 C 0.63736 0.42477 0.5985 0.0
C571 C 0.64764 0.4096 0.75673 0.0
C572 C 0.64436 0.40692 0.80284 0.0
C573 C 0.64918 0.39064 0.81512 0.0
C574 C 0.64745 0.38886 0.85951 0.0
C575 C 0.64085 0.40329 0.89292 0.0
C576 C 0.63571 0.41944 0.88042 0.0
C577 C 0.63752 0.42125 0.83604 0.0
C578 C 0.60124 0.39205 0.64726 0.0
C579 C 0.63117 0.35392 0.63928 0.0
O580 O 0.61826 0.37735 0.51 0.0
O581 O 0.64457 0.36489 0.50164 0.0
O582 O 0.65654 0.39438 0.61771 0.0
O583 O 0.66353 0.36829 0.58141 0.0
O584 O 0.63544 0.40981 0.56693 0.0
O585 O 0.63917 0.42432 0.64147 0.0
O586 O 0.65463 0.39598 0.7276 0.0
O587 O 0.63579 0.41867 0.739 0.0
O588 O 0.6148 0.38818 0.6225 0.0
O589 O 0.60625 0.39986 0.68737 0.0
O590 O 0.6377 0.36759 0.67011 0.0
O591 O 0.62631 0.35613 0.59946 0.0
H592 H 0.61991 0.40056 0.45766 0.0
H593 H 0.62207 0.40747 0.38341 0.0
H594 H 0.64663 0.35511 0.33265 0.0
H595 H 0.6447 0.34845 0.40687 0.0
H596 H 0.65456 0.3793 0.79061 0.0
H597 H 0.65132 0.37613 0.86766 0.0
H598 H 0.63076 0.43092 0.90523 0.0
H599 H 0.6339 0.43405 0.82785 0.0
Sm600 Sm 0.38061 0.87813 0.32013 0.0
Sm601 Sm 0.36845 0.8856 0.42046 0.0
C602 C 0.38651 0.86722 0.23271 0.0
C603 C 0.38229 0.8713 0.18866 0.0
C604 C 0.37606 0.85727 0.15402 0.0
C605 C 0.37339 0.86023 0.11099 0.0
C606 C 0.37697 0.87731 0.10141 0.0
C607 C 0.38285 0.89148 0.13646 0.0
C608 C 0.38547 0.88852 0.17959 0.0
C609 C 0.38029 0.91432 0.36639 0.0
C610 C 0.33757 0.88221 0.34172 0.0
C611 C 0.36197 0.90178 0.50504 0.0
C612 C 0.36426 0.89895 0.55101 0.0
C613 C 0.36918 0.91369 0.58544 0.0
C614 C 0.37068 0.91162 0.62959 0.0
C615 C 0.36722 0.89474 0.64042 0.0
C616 C 0.36248 0.87991 0.60568 0.0
C617 C 0.36107 0.88197 0.56145 0.0
C618 C 0.37265 0.84831 0.39204 0.0
C619 C 0.41066 0.87757 0.39253 0.0
O620 O 0.37379 0.86061 0.25359 0.0
O621 O 0.39684 0.87854 0.25981 0.0
O622 O 0.36894 0.90238 0.36891 0.0
O623 O 0.392 0.90769 0.33607 0.0
O624 O 0.35031 0.87745 0.3117 0.0
O625 O 0.34109 0.88729 0.38522 0.0
O626 O 0.37635 0.90486 0.48364 0.0
O627 O 0.35046 0.89138 0.47926 0.0
O628 O 0.37528 0.85982 0.36818 0.0
O629 O 0.36747 0.85654 0.43164 0.0
O630 O 0.39959 0.88773 0.42156 0.0
O631 O 0.40495 0.86873 0.35308 0.0
H632 H 0.37364 0.84383 0.16 0.0
H633 H 0.36906 0.84893 0.08485 0.0
H634 H 0.38551 0.90488 0.13052 0.0
H635 H 0.39024 0.89965 0.2056 0.0
H636 H 0.37164 0.92692 0.57825 0.0
H637 H 0.37415 0.92339 0.65544 0.0
H638 H 0.35995 0.86666 0.61263 0.0
H639 H 0.35736 0.87032 0.5355 0.0
H640 H 0.11559 0.61366 0.8281 0.0
H641 H 0.11428 0.61506 0.74922 0.0
H642 H 0.16174 0.64795 0.76528 0.0
H643 H 0.16305 0.6467 0.84423 0.0
H644 H 0.13846 0.66075 0.71524 0.0
H645 H 0.16266 0.60186 0.71614 0.0
H646 H 0.16342 0.57167 0.73486 0.0
H647 H 0.11448 0.55728 0.66408 0.0
H648 H 0.1133 0.58749 0.64545 0.0
H649 H 0.15885 0.6502 0.48458 0.0
H650 H 0.16012 0.64904 0.56362 0.0
H651 H 0.11226 0.61679 0.54848 0.0
H652 H 0.11092 0.61788 0.46946 0.0
H653 H 0.13585 0.60369 0.598 0.0
H654 H 0.11175 0.6627 0.59714 0.0
H655 H 0.11115 0.69287 0.57836 0.0
H656 H 0.16016 0.70701 0.64897 0.0
H657 H 0.16118 0.67681 0.66766 0.0
C658 C 0.12577 0.62117 0.81483 0.0
C659 C 0.13947 0.63 0.8425 0.0
C660 C 0.12502 0.62195 0.76967 0.0
C661 C 0.13808 0.63137 0.75099 0.0
C662 C 0.15151 0.64058 0.77882 0.0
C663 C 0.15221 0.6399 0.82404 0.0
C664 C 0.13787 0.63148 0.70243 0.0
C665 C 0.13812 0.64826 0.68962 0.0
C666 C 0.13707 0.61521 0.66884 0.0
C667 C 0.13781 0.597 0.67977 0.0
C668 C 0.152 0.5923 0.70484 0.0
C669 C 0.15251 0.57518 0.71539 0.0
C670 C 0.13899 0.56258 0.70077 0.0
C671 C 0.12494 0.56706 0.67544 0.0
C672 C 0.12435 0.58417 0.66484 0.0
C673 C 0.14856 0.6429 0.49809 0.0
C674 C 0.13475 0.63418 0.47062 0.0
C675 C 0.1493 0.64226 0.54333 0.0
C676 C 0.13614 0.63305 0.56228 0.0
C677 C 0.12257 0.62399 0.53471 0.0
C678 C 0.12186 0.62456 0.48943 0.0
C679 C 0.13642 0.63296 0.61084 0.0
C680 C 0.13619 0.61618 0.62363 0.0
C681 C 0.13726 0.64923 0.6444 0.0
C682 C 0.13662 0.66743 0.63343 0.0
C683 C 0.12246 0.67219 0.60839 0.0
C684 C 0.12204 0.68931 0.5978 0.0
C685 C 0.13563 0.70184 0.61237 0.0
C686 C 0.14965 0.69729 0.63766 0.0
C687 C 0.15015 0.68018 0.64829 0.0
H688 H 0.13528 0.71508 0.60414 0.0
H689 H 0.13941 0.54934 0.70897 0.0
H690 H 0.65926 0.86289 0.03445 0.0
H691 H 0.66093 0.86612 0.95695 0.0
H692 H 0.6161 0.9027 0.97962 0.0
H693 H 0.614 0.8991 0.05683 0.0
H694 H 0.61249 0.87863 0.90187 0.0
H695 H 0.65877 0.91835 0.97245 0.0
H696 H 0.68574 0.9269 0.01775 0.0
H697 H 0.71584 0.88672 0.92583 0.0
H698 H 0.68898 0.87775 0.88027 0.0
H699 H 0.62154 0.91237 0.70341 0.0
H700 H 0.62005 0.90956 0.78131 0.0
H701 H 0.66413 0.87204 0.75836 0.0
H702 H 0.66597 0.87512 0.68065 0.0
H703 H 0.66812 0.89673 0.83625 0.0
H704 H 0.62175 0.85699 0.76586 0.0
H705 H 0.59477 0.84855 0.72053 0.0
H706 H 0.56481 0.88895 0.81225 0.0
H707 H 0.59169 0.89782 0.85781 0.0
C708 C 0.64969 0.87158 0.02298 0.0
C709 C 0.63651 0.88075 0.05215 0.0
C710 C 0.65077 0.87354 0.97865 0.0
C711 C 0.63876 0.88481 0.96233 0.0
C712 C 0.62557 0.89397 0.99131 0.0
C713 C 0.6245 0.89203 0.03569 0.0
C714 C 0.63975 0.88678 0.91492 0.0
C715 C 0.6246 0.88285 0.88777 0.0
C716 C 0.65563 0.89187 0.89593 0.0
C717 C 0.67182 0.89726 0.92319 0.0
C718 C 0.6711 0.91124 0.96208 0.0
C719 C 0.68638 0.91618 0.98778 0.0
C720 C 0.70248 0.90733 0.97474 0.0
C721 C 0.70335 0.89354 0.93592 0.0
C722 C 0.68811 0.88854 0.91013 0.0
C723 C 0.63099 0.90359 0.71493 0.0
C724 C 0.64386 0.89394 0.68554 0.0
C725 C 0.63002 0.90188 0.75948 0.0
C726 C 0.64187 0.89045 0.77579 0.0
C727 C 0.6548 0.8809 0.74665 0.0
C728 C 0.65573 0.88255 0.70204 0.0
C729 C 0.64087 0.88858 0.82326 0.0
C730 C 0.65601 0.89253 0.8504 0.0
C731 C 0.62498 0.88353 0.84225 0.0
C732 C 0.60878 0.87819 0.81499 0.0
C733 C 0.60944 0.86418 0.77617 0.0
C734 C 0.59416 0.8593 0.75046 0.0
C735 C 0.5781 0.86824 0.76343 0.0
C736 C 0.57727 0.88205 0.80221 0.0
C737 C 0.59252 0.887 0.828 0.0
H738 H 0.56628 0.86444 0.74349 0.0
H739 H 0.71429 0.91117 0.99468 0.0
H740 H 0.37651 0.35344 0.26891 0.0
H741 H 0.37561 0.35806 0.19273 0.0
H742 H 0.37967 0.41606 0.24306 0.0
H743 H 0.37984 0.41159 0.3198 0.0
H744 H 0.35583 0.4089 0.17749 0.0
H745 H 0.41565 0.39001 0.19463 0.0
H746 H 0.43937 0.37031 0.21305 0.0
H747 H 0.42032 0.3257 0.11153 0.0
H748 H 0.39632 0.34507 0.0929 0.0
H749 H 0.37528 0.42857 0.96529 0.0
H750 H 0.37721 0.4255 0.04288 0.0
H751 H 0.37253 0.36724 0.99923 0.0
H752 H 0.37119 0.37015 0.92144 0.0
H753 H 0.39738 0.37553 0.06219 0.0
H754 H 0.33714 0.39431 0.04645 0.0
H755 H 0.31346 0.41408 0.02805 0.0
H756 H 0.33352 0.45905 0.127 0.0
H757 H 0.35748 0.4396 0.14556 0.0
C758 C 0.377 0.36723 0.26403 0.0
C759 C 0.37823 0.38213 0.30092 0.0
C760 C 0.37671 0.36984 0.22019 0.0
C761 C 0.37783 0.38741 0.21178 0.0
C762 C 0.37887 0.40235 0.24845 0.0
C763 C 0.37912 0.39975 0.29243 0.0
C764 C 0.3778 0.39012 0.16481 0.0
C765 C 0.36512 0.40181 0.1525 0.0
C766 C 0.38963 0.38062 0.13165 0.0
C767 C 0.40409 0.36895 0.14265 0.0
C768 C 0.41644 0.37596 0.17645 0.0
C769 C 0.42995 0.36486 0.18689 0.0
C770 C 0.43132 0.34675 0.16355 0.0
C771 C 0.41922 0.33972 0.12962 0.0
C772 C 0.40567 0.35076 0.11908 0.0
C773 C 0.37486 0.41507 0.97204 0.0
C774 C 0.37302 0.39962 0.93679 0.0
C775 C 0.37577 0.41335 0.01663 0.0
C776 C 0.37477 0.39614 0.02725 0.0
C777 C 0.37325 0.38068 0.99213 0.0
C778 C 0.37233 0.38239 0.94755 0.0
C779 C 0.37535 0.39421 0.07482 0.0
C780 C 0.38814 0.38267 0.08723 0.0
C781 C 0.36363 0.40386 0.10806 0.0
C782 C 0.34921 0.41555 0.09706 0.0
C783 C 0.33658 0.40845 0.06404 0.0
C784 C 0.3231 0.41959 0.05363 0.0
C785 C 0.32202 0.43782 0.07626 0.0
C786 C 0.33439 0.44493 0.10945 0.0
C787 C 0.34792 0.43386 0.11995 0.0
H788 H 0.31157 0.44642 0.06815 0.0
H789 H 0.44179 0.33818 0.17168 0.0
H790 H 0.89797 0.12459 0.58677 0.0
H791 H 0.90041 0.12723 0.50888 0.0
H792 H 0.85227 0.09609 0.47702 0.0
H793 H 0.8501 0.09281 0.55437 0.0
H794 H 0.87569 0.08572 0.41154 0.0
H795 H 0.85293 0.14316 0.49222 0.0
H796 H 0.85253 0.1713 0.55132 0.0
H797 H 0.90264 0.18726 0.50478 0.0
H798 H 0.90345 0.15908 0.44574 0.0
H799 H 0.85575 0.10965 0.20519 0.0
H800 H 0.8553 0.10554 0.28189 0.0
H801 H 0.90355 0.13679 0.30998 0.0
H802 H 0.90369 0.14162 0.23373 0.0
H803 H 0.88086 0.14682 0.37709 0.0
H804 H 0.90276 0.08942 0.29382 0.0
H805 H 0.90186 0.06194 0.23276 0.0
H806 H 0.85242 0.04615 0.28316 0.0
H807 H 0.85287 0.0737 0.34414 0.0
C808 C 0.888 0.1181 0.56317 0.0
C809 C 0.87376 0.10859 0.57732 0.0
C810 C 0.88931 0.11978 0.51856 0.0
C811 C 0.87638 0.1121 0.48686 0.0
C812 C 0.8624 0.10224 0.50063 0.0
C813 C 0.86108 0.10054 0.54519 0.0
C814 C 0.87725 0.11454 0.43964 0.0
C815 C 0.87664 0.09911 0.40409 0.0
C816 C 0.87881 0.13194 0.42947 0.0
C817 C 0.87834 0.14891 0.46487 0.0
C818 C 0.86393 0.1526 0.49481 0.0
C819 C 0.86362 0.16857 0.52826 0.0
C820 C 0.87757 0.18104 0.53189 0.0
C821 C 0.89185 0.17758 0.50198 0.0
C822 C 0.89224 0.16161 0.4685 0.0
C823 C 0.86625 0.11574 0.22757 0.0
C824 C 0.87979 0.12593 0.21274 0.0
C825 C 0.86607 0.11322 0.27154 0.0
C826 C 0.87952 0.12064 0.30193 0.0
C827 C 0.89304 0.13083 0.28733 0.0
C828 C 0.89321 0.13341 0.24337 0.0
C829 C 0.87933 0.11803 0.34902 0.0
C830 C 0.88003 0.13342 0.38454 0.0
C831 C 0.87779 0.1006 0.35911 0.0
C832 C 0.87779 0.08371 0.32336 0.0
C833 C 0.89166 0.08012 0.2918 0.0
C834 C 0.89123 0.06454 0.25718 0.0
C835 C 0.87707 0.05233 0.25402 0.0
C836 C 0.86337 0.05563 0.28562 0.0
C837 C 0.86372 0.07122 0.32025 0.0
H838 H 0.87673 0.04031 0.2271 0.0
H839 H 0.8773 0.19339 0.5578 0.0
H840 H 0.14099 0.35649 0.16919 0.0
H841 H 0.13963 0.35517 0.24805 0.0
H842 H 0.13762 0.41379 0.28558 0.0
H843 H 0.13965 0.41525 0.20689 0.0
H844 H 0.16041 0.40103 0.33741 0.0
H845 H 0.10035 0.38743 0.28931 0.0
H846 H 0.07656 0.37108 0.24156 0.0
H847 H 0.09231 0.32105 0.27555 0.0
H848 H 0.11636 0.33707 0.32306 0.0
H849 H 0.13415 0.40885 0.56422 0.0
H850 H 0.1356 0.41019 0.48531 0.0
H851 H 0.13846 0.35161 0.44787 0.0
H852 H 0.13647 0.35014 0.52659 0.0
H853 H 0.11524 0.36435 0.39608 0.0
H854 H 0.17527 0.37795 0.44418 0.0
H855 H 0.19905 0.39429 0.492 0.0
H856 H 0.1833 0.44434 0.45806 0.0
H857 H 0.15926 0.42832 0.41049 0.0
C858 C 0.14033 0.36912 0.19418 0.0
C859 C 0.14039 0.38598 0.18151 0.0
C860 C 0.13938 0.36834 0.23932 0.0
C861 C 0.13833 0.38438 0.27288 0.0
C862 C 0.13836 0.40122 0.26037 0.0
C863 C 0.13934 0.40202 0.21524 0.0
C864 C 0.13757 0.38362 0.32103 0.0
C865 C 0.15037 0.39321 0.35033 0.0
C866 C 0.12475 0.37308 0.33785 0.0
C867 C 0.11027 0.36342 0.3094 0.0
C868 C 0.09883 0.37292 0.28633 0.0
C869 C 0.08528 0.36371 0.25936 0.0
C870 C 0.08296 0.34503 0.25543 0.0
C871 C 0.09415 0.33552 0.27857 0.0
C872 C 0.10773 0.34466 0.30556 0.0
C873 C 0.13503 0.39624 0.53921 0.0
C874 C 0.13523 0.37939 0.55188 0.0
C875 C 0.13602 0.39704 0.49408 0.0
C876 C 0.13731 0.381 0.46056 0.0
C877 C 0.13752 0.36417 0.47307 0.0
C878 C 0.13656 0.36336 0.51819 0.0
C879 C 0.13807 0.38176 0.41243 0.0
C880 C 0.12527 0.37217 0.38314 0.0
C881 C 0.15089 0.39231 0.39563 0.0
C882 C 0.16536 0.40196 0.42413 0.0
C883 C 0.17679 0.39246 0.4472 0.0
C884 C 0.19033 0.40166 0.4742 0.0
C885 C 0.19265 0.42035 0.47816 0.0
C886 C 0.18147 0.42987 0.45502 0.0
C887 C 0.16789 0.42073 0.428 0.0
H888 H 0.20314 0.42745 0.49908 0.0
H889 H 0.07246 0.33793 0.23453 0.0
H890 H 0.89526 0.9107 0.81929 0.0
H891 H 0.89455 0.9141 0.74188 0.0
H892 H 0.86297 0.86537 0.705 0.0
H893 H 0.86408 0.86156 0.78208 0.0
H894 H 0.88868 0.86558 0.64432 0.0
H895 H 0.84437 0.90796 0.71756 0.0
H896 H 0.83324 0.93356 0.77581 0.0
H897 H 0.87138 0.96922 0.73555 0.0
H898 H 0.88291 0.94375 0.67741 0.0
H899 H 0.85802 0.87571 0.43269 0.0
H900 H 0.86016 0.87303 0.51046 0.0
H901 H 0.89131 0.92221 0.54191 0.0
H902 H 0.88877 0.92531 0.46432 0.0
H903 H 0.86677 0.92226 0.60556 0.0
H904 H 0.91073 0.88039 0.53147 0.0
H905 H 0.92239 0.85489 0.47379 0.0
H906 H 0.88564 0.81841 0.51597 0.0
H907 H 0.87357 0.84376 0.57353 0.0
C908 C 0.88823 0.90064 0.79477 0.0
C909 C 0.87965 0.88591 0.80726 0.0
C910 C 0.88771 0.90269 0.75044 0.0
C911 C 0.87854 0.8901 0.71748 0.0
C912 C 0.87009 0.87531 0.72973 0.0
C913 C 0.87058 0.87326 0.77404 0.0
C914 C 0.8778 0.89227 0.67023 0.0
C915 C 0.88367 0.87789 0.63584 0.0
C916 C 0.87173 0.90851 0.65904 0.0
C917 C 0.86461 0.92391 0.69342 0.0
C918 C 0.85045 0.92124 0.7213 0.0
C919 C 0.84407 0.93573 0.75428 0.0
C920 C 0.85164 0.953 0.75947 0.0
C921 C 0.86555 0.95583 0.73154 0.0
C922 C 0.872 0.94138 0.69853 0.0
C923 C 0.86524 0.88605 0.45614 0.0
C924 C 0.87323 0.90073 0.44202 0.0
C925 C 0.86659 0.8844 0.50062 0.0
C926 C 0.87606 0.89731 0.53216 0.0
C927 C 0.88398 0.91203 0.51829 0.0
C928 C 0.88265 0.91369 0.47373 0.0
C929 C 0.87753 0.8955 0.57959 0.0
C930 C 0.87181 0.90995 0.61403 0.0
C931 C 0.8838 0.87934 0.59085 0.0
C932 C 0.89113 0.86402 0.55654 0.0
C933 C 0.90504 0.86696 0.52825 0.0
C934 C 0.91174 0.85252 0.4956 0.0
C935 C 0.90473 0.83505 0.49113 0.0
C936 C 0.89104 0.83196 0.51943 0.0
C937 C 0.88428 0.84635 0.5521 0.0
H938 H 0.90992 0.8239 0.46581 0.0
H939 H 0.84669 0.96419 0.78507 0.0
H940 H 0.37278 0.65679 0.74616 0.0
H941 H 0.37246 0.65206 0.82228 0.0
H942 H 0.38706 0.59585 0.77306 0.0
H943 H 0.38675 0.60031 0.69626 0.0
H944 H 0.36191 0.59837 0.83544 0.0
H945 H 0.41747 0.62805 0.82619 0.0
H946 H 0.43755 0.65178 0.81069 0.0
H947 H 0.41031 0.69217 0.90884 0.0
H948 H 0.3899 0.66872 0.92451 0.0
H949 H 0.38223 0.58324 0.05183 0.0
H950 H 0.38451 0.58635 0.97425 0.0
H951 H 0.36913 0.64274 0.01479 0.0
H952 H 0.36733 0.63988 0.09258 0.0
H953 H 0.39583 0.63906 0.95598 0.0
H954 H 0.3397 0.6094 0.96324 0.0
H955 H 0.31965 0.5856 0.97857 0.0
H956 H 0.34824 0.54501 0.88398 0.0
H957 H 0.36862 0.56855 0.86854 0.0
C958 C 0.37575 0.64334 0.75125 0.0
C959 C 0.37975 0.62893 0.71466 0.0
C960 C 0.37578 0.6407 0.79509 0.0
C961 C 0.37997 0.62364 0.80382 0.0
C962 C 0.38385 0.60917 0.76742 0.0
C963 C 0.38382 0.61179 0.72344 0.0
C964 C 0.38009 0.62094 0.85082 0.0
C965 C 0.36957 0.60709 0.8616 0.0
C966 C 0.38977 0.63251 0.88547 0.0
C967 C 0.40206 0.64664 0.87623 0.0
C968 C 0.41568 0.64202 0.84424 0.0
C969 C 0.42713 0.65542 0.83546 0.0
C970 C 0.42518 0.67348 0.85869 0.0
C971 C 0.41179 0.67818 0.89083 0.0
C972 C 0.40029 0.66483 0.89971 0.0
C973 C 0.37951 0.59637 0.04441 0.0
C974 C 0.37453 0.61129 0.07876 0.0
C975 C 0.38064 0.59809 0.99982 0.0
C976 C 0.37677 0.61473 0.98829 0.0
C977 C 0.37212 0.62972 0.02258 0.0
C978 C 0.37095 0.62801 0.06714 0.0
C979 C 0.37755 0.61659 0.94065 0.0
C980 C 0.38824 0.63028 0.92976 0.0
C981 C 0.36805 0.60487 0.90592 0.0
C982 C 0.3558 0.59071 0.91511 0.0
C983 C 0.3418 0.59538 0.94599 0.0
C984 C 0.33036 0.58194 0.95464 0.0
C985 C 0.33271 0.5638 0.93236 0.0
C986 C 0.34647 0.55907 0.90128 0.0
C987 C 0.35796 0.57245 0.89254 0.0
H988 H 0.32383 0.55342 0.9391 0.0
H989 H 0.43406 0.68383 0.85184 0.0
H990 H 0.65293 0.15551 0.98586 0.0
H991 H 0.65426 0.15334 0.06414 0.0
H992 H 0.61777 0.10814 0.03666 0.0
H993 H 0.6159 0.11062 0.95857 0.0
H994 H 0.60856 0.13155 0.11209 0.0
H995 H 0.66251 0.10194 0.05235 0.0
H996 H 0.69116 0.09891 0.01219 0.0
H997 H 0.71152 0.14522 0.10645 0.0
H998 H 0.68289 0.14868 0.14684 0.0
H999 H 0.62133 0.10267 0.316 0.0
H1000 H 0.62001 0.10452 0.23745 0.0
H1001 H 0.65632 0.14989 0.26408 0.0
H1002 H 0.65813 0.14777 0.3424 0.0
H1003 H 0.66561 0.12621 0.18897 0.0
H1004 H 0.61165 0.15592 0.24845 0.0
H1005 H 0.58299 0.15901 0.28858 0.0
H1006 H 0.56267 0.11254 0.19479 0.0
H1007 H 0.59131 0.10902 0.15442 0.0
C1008 C 0.64512 0.14514 0.99641 0.0
C1009 C 0.63432 0.13323 0.96567 0.0
C1010 C 0.64603 0.1438 0.04122 0.0
C1011 C 0.63625 0.13045 0.05642 0.0
C1012 C 0.62548 0.11853 0.02583 0.0
C1013 C 0.62457 0.11985 0.981 0.0
C1014 C 0.63698 0.12918 0.10433 0.0
C1015 C 0.62103 0.13011 0.12868 0.0
C1016 C 0.65325 0.12775 0.12651 0.0
C1017 C 0.67049 0.12567 0.10236 0.0
C1018 C 0.67305 0.11156 0.06431 0.0
C1019 C 0.68929 0.10975 0.04154 0.0
C1020 C 0.70314 0.12189 0.05669 0.0
C1021 C 0.70078 0.13584 0.09472 0.0
C1022 C 0.68455 0.13772 0.11759 0.0
C1023 C 0.6291 0.11302 0.30518 0.0
C1024 C 0.63981 0.12509 0.33576 0.0
C1025 C 0.62821 0.11416 0.26024 0.0
C1026 C 0.63794 0.12746 0.24473 0.0
C1027 C 0.64864 0.13953 0.27513 0.0
C1028 C 0.64953 0.13841 0.3201 0.0
C1029 C 0.6372 0.12859 0.19672 0.0
C1030 C 0.65314 0.12763 0.17236 0.0
C1031 C 0.62093 0.13 0.17453 0.0
C1032 C 0.60369 0.1321 0.19868 0.0
C1033 C 0.60112 0.14627 0.23659 0.0
C1034 C 0.58487 0.14812 0.25934 0.0
C1035 C 0.57103 0.13595 0.24432 0.0
C1036 C 0.57341 0.12194 0.20643 0.0
C1037 C 0.58964 0.12002 0.18358 0.0
H1038 H 0.55846 0.1374 0.26197 0.0
H1039 H 0.71571 0.12047 0.03902 0.0
H1040 H 0.8594 0.41349 0.20955 0.0
H1041 H 0.8612 0.41126 0.28762 0.0
H1042 H 0.88525 0.35819 0.24718 0.0
H1043 H 0.88367 0.36039 0.16879 0.0
H1044 H 0.85976 0.35831 0.30919 0.0
H1045 H 0.91012 0.39539 0.29404 0.0
H1046 H 0.9259 0.42122 0.27435 0.0
H1047 H 0.89407 0.45873 0.36867 0.0
H1048 H 0.87793 0.43312 0.38848 0.0
H1049 H 0.88964 0.35057 0.52392 0.0
H1050 H 0.88779 0.35273 0.4458 0.0
H1051 H 0.86399 0.40593 0.48614 0.0
H1052 H 0.86567 0.40381 0.56458 0.0
H1053 H 0.88936 0.40572 0.42413 0.0
H1054 H 0.83899 0.36865 0.43931 0.0
H1055 H 0.82319 0.34283 0.45896 0.0
H1056 H 0.85499 0.3053 0.36461 0.0
H1057 H 0.87116 0.33091 0.34483 0.0
C1058 C 0.86532 0.40143 0.21716 0.0
C1059 C 0.87151 0.38717 0.18268 0.0
C1060 C 0.86628 0.40015 0.26194 0.0
C1061 C 0.87355 0.38464 0.27346 0.0
C1062 C 0.87959 0.3703 0.23918 0.0
C1063 C 0.87863 0.37156 0.19431 0.0
C1064 C 0.87463 0.38332 0.3212 0.0
C1065 C 0.86646 0.36854 0.33419 0.0
C1066 C 0.88298 0.3969 0.35416 0.0
C1067 C 0.8927 0.41233 0.34242 0.0
C1068 C 0.90639 0.40915 0.31032 0.0
C1069 C 0.91542 0.42375 0.29919 0.0
C1070 C 0.91096 0.44161 0.32016 0.0
C1071 C 0.8975 0.44489 0.35241 0.0
C1072 C 0.88841 0.43034 0.36363 0.0
C1073 C 0.88377 0.36264 0.51627 0.0
C1074 C 0.87768 0.37696 0.55073 0.0
C1075 C 0.88277 0.36388 0.47147 0.0
C1076 C 0.87556 0.37941 0.4599 0.0
C1077 C 0.86961 0.3938 0.49417 0.0
C1078 C 0.87062 0.39259 0.53906 0.0
C1079 C 0.87449 0.38071 0.41214 0.0
C1080 C 0.88266 0.39549 0.39914 0.0
C1081 C 0.86614 0.36713 0.37918 0.0
C1082 C 0.85641 0.3517 0.39091 0.0
C1083 C 0.84271 0.35489 0.42301 0.0
C1084 C 0.83367 0.34029 0.43412 0.0
C1085 C 0.83811 0.32243 0.41313 0.0
C1086 C 0.85158 0.31914 0.38089 0.0
C1087 C 0.86068 0.33369 0.36968 0.0
H1088 H 0.8311 0.31115 0.42178 0.0
H1089 H 0.91797 0.4529 0.3115 0.0
H1090 H 0.3981 0.11746 0.33073 0.0
H1091 H 0.39984 0.11872 0.25171 0.0
H1092 H 0.34545 0.13712 0.25628 0.0
H1093 H 0.34349 0.13549 0.33492 0.0
H1094 H 0.35161 0.11078 0.18243 0.0
H1095 H 0.37946 0.16663 0.25582 0.0
H1096 H 0.40083 0.18583 0.30609 0.0
H1097 H 0.44428 0.15804 0.22897 0.0
H1098 H 0.42316 0.13848 0.17857 0.0
H1099 H 0.3508 0.14011 0.97702 0.0
H1100 H 0.34922 0.13872 0.05591 0.0
H1101 H 0.40386 0.12106 0.05106 0.0
H1102 H 0.40569 0.1229 0.97256 0.0
H1103 H 0.39766 0.14692 0.12505 0.0
H1104 H 0.36987 0.09111 0.05155 0.0
H1105 H 0.34853 0.07185 1.0013 0.0
H1106 H 0.30504 0.09946 0.0786 0.0
H1107 H 0.32612 0.11907 0.12898 0.0
C1108 C 0.38649 0.12172 0.31489 0.0
C1109 C 0.37068 0.12645 0.3393 0.0
C1110 C 0.38754 0.12257 0.26977 0.0
C1111 C 0.37281 0.12817 0.24807 0.0
C1112 C 0.357 0.13281 0.27228 0.0
C1113 C 0.35596 0.13203 0.3174 0.0
C1114 C 0.3738 0.12899 0.20001 0.0
C1115 C 0.36154 0.11888 0.17 0.0
C1116 C 0.387 0.13921 0.1835 0.0
C1117 C 0.39973 0.15096 0.2137 0.0
C1118 C 0.39357 0.1645 0.2498 0.0
C1119 C 0.40564 0.17547 0.27828 0.0
C1120 C 0.4239 0.17312 0.27081 0.0
C1121 C 0.43013 0.15982 0.23476 0.0
C1122 C 0.41812 0.1488 0.2062 0.0
C1123 C 0.36251 0.136 0.99276 0.0
C1124 C 0.37835 0.13155 0.96829 0.0
C1125 C 0.36155 0.13506 0.03782 0.0
C1126 C 0.37638 0.12961 0.05942 0.0
C1127 C 0.39222 0.12524 0.03515 0.0
C1128 C 0.39319 0.12614 0.99009 0.0
C1129 C 0.37546 0.12871 0.10744 0.0
C1130 C 0.38774 0.13881 0.13746 0.0
C1131 C 0.36229 0.11847 0.12396 0.0
C1132 C 0.34957 0.10668 0.09377 0.0
C1133 C 0.35575 0.09317 0.05762 0.0
C1134 C 0.3437 0.08218 0.02916 0.0
C1135 C 0.32544 0.08446 0.03668 0.0
C1136 C 0.31919 0.09772 0.07277 0.0
C1137 C 0.33118 0.10877 0.10132 0.0
H1138 H 0.31613 0.07593 0.01461 0.0
H1139 H 0.43322 0.18163 0.29289 0.0
H1140 H 0.66646 0.62433 0.07996 0.0
H1141 H 0.66517 0.62726 1.00228 0.0
H1142 H 0.61341 0.60213 0.98826 0.0
H1143 H 0.61466 0.59906 0.06608 0.0
H1144 H 0.63273 0.58902 0.91579 0.0
H1145 H 0.61908 0.64897 1.00059 0.0
H1146 H 0.62385 0.67697 0.05854 0.0
H1147 H 0.67308 0.68635 0.99624 0.0
H1148 H 0.66871 0.65826 0.93823 0.0
H1149 H 0.61008 0.615 0.7121 0.0
H1150 H 0.61113 0.61047 0.78863 0.0
H1151 H 0.66278 0.63581 0.80653 0.0
H1152 H 0.66177 0.64043 0.73013 0.0
H1153 H 0.64295 0.64873 0.87711 0.0
H1154 H 0.65666 0.58872 0.79235 0.0
H1155 H 0.6519 0.56072 0.73442 0.0
H1156 H 0.60257 0.55145 0.7964 0.0
H1157 H 0.60692 0.57955 0.85439 0.0
C1158 C 0.6547 0.61958 0.06057 0.0
C1159 C 0.6406 0.61158 0.07964 0.0
C1160 C 0.65399 0.62125 0.01597 0.0
C1161 C 0.63907 0.61519 0.98927 0.0
C1162 C 0.62508 0.60695 1.00798 0.0
C1163 C 0.62582 0.60517 0.05257 0.0
C1164 C 0.63809 0.61745 0.94199 0.0
C1165 C 0.63472 0.60214 0.90745 0.0
C1166 C 0.64105 0.63446 0.93063 0.0
C1167 C 0.64364 0.65142 0.9653 0.0
C1168 C 0.63098 0.65694 0.99942 0.0
C1169 C 0.6336 0.67283 0.03225 0.0
C1170 C 0.64878 0.6834 0.03114 0.0
C1171 C 0.66134 0.67813 0.9971 0.0
C1172 C 0.65879 0.66224 0.96421 0.0
C1173 C 0.62178 0.61939 0.73206 0.0
C1174 C 0.63584 0.62809 0.7147 0.0
C1175 C 0.62237 0.6168 0.77598 0.0
C1176 C 0.63711 0.62264 0.80358 0.0
C1177 C 0.65121 0.63121 0.7862 0.0
C1178 C 0.6506 0.63388 0.74239 0.0
C1179 C 0.6377 0.62029 0.85083 0.0
C1180 C 0.64096 0.6356 0.8854 0.0
C1181 C 0.63464 0.60328 0.86217 0.0
C1182 C 0.63203 0.58634 0.82746 0.0
C1183 C 0.64473 0.58079 0.79344 0.0
C1184 C 0.64212 0.56488 0.76062 0.0
C1185 C 0.62692 0.55434 0.76166 0.0
C1186 C 0.61432 0.55965 0.7956 0.0
C1187 C 0.61686 0.57555 0.82847 0.0
H1188 H 0.62492 0.54203 0.73622 0.0
H1189 H 0.65079 0.6957 0.05659 0.0
H1190 H 0.14054 0.87245 0.43109 0.0
H1191 H 0.13888 0.86955 0.5087 0.0
H1192 H 0.13128 0.92751 0.55188 0.0
H1193 H 0.13368 0.93065 0.47436 0.0
H1194 H 0.15417 0.91628 0.60546 0.0
H1195 H 0.09647 0.89669 0.54881 0.0
H1196 H 0.075 0.87862 0.49654 0.0
H1197 H 0.09577 0.82938 0.52531 0.0
H1198 H 0.11754 0.84714 0.57734 0.0
H1199 H 0.12946 0.91365 0.82893 0.0
H1200 H 0.12942 0.91809 0.75227 0.0
H1201 H 0.1368 0.86042 0.70203 0.0
H1202 H 0.13608 0.85577 0.77828 0.0
H1203 H 0.11314 0.87251 0.65265 0.0
H1204 H 0.17143 0.89199 0.70732 0.0
H1205 H 0.19307 0.90998 0.75925 0.0
H1206 H 0.17121 0.9594 0.73406 0.0
H1207 H 0.14928 0.9417 0.68238 0.0
C1208 C 0.13864 0.88464 0.45701 0.0
C1209 C 0.13725 0.9018 0.44611 0.0
C1210 C 0.13749 0.88292 0.50152 0.0
C1211 C 0.13472 0.89827 0.53641 0.0
C1212 C 0.13334 0.91543 0.52571 0.0
C1213 C 0.13454 0.91717 0.48117 0.0
C1214 C 0.13357 0.89645 0.584 0.0
C1215 C 0.14499 0.90691 0.61586 0.0
C1216 C 0.12189 0.88396 0.59773 0.0
C1217 C 0.10874 0.87325 0.56668 0.0
C1218 C 0.09654 0.882 0.54376 0.0
C1219 C 0.0843 0.87182 0.51421 0.0
C1220 C 0.08405 0.85286 0.50753 0.0
C1221 C 0.096 0.84406 0.53049 0.0
C1222 C 0.10828 0.85418 0.56005 0.0
C1223 C 0.13092 0.90186 0.80162 0.0
C1224 C 0.13289 0.88434 0.81016 0.0
C1225 C 0.13109 0.90446 0.75767 0.0
C1226 C 0.13336 0.88963 0.72108 0.0
C1227 C 0.13511 0.87213 0.72949 0.0
C1228 C 0.13489 0.86951 0.77334 0.0
C1229 C 0.13383 0.89224 0.67406 0.0
C1230 C 0.12228 0.88194 0.6423 0.0
C1231 C 0.14539 0.90487 0.66043 0.0
C1232 C 0.1586 0.91553 0.69135 0.0
C1233 C 0.17116 0.9067 0.71311 0.0
C1234 C 0.18349 0.91684 0.74245 0.0
C1235 C 0.18348 0.93583 0.75004 0.0
C1236 C 0.17118 0.9447 0.7282 0.0
C1237 C 0.15881 0.93462 0.69885 0.0
H1238 H 0.19304 0.94366 0.77277 0.0
H1239 H 0.07457 0.845 0.48463 0.0
H1240 H 0.85531 0.65083 0.84697 0.0
H1241 H 0.85659 0.65322 0.7688 0.0
H1242 H 0.89003 0.60558 0.73746 0.0
H1243 H 0.88935 0.60348 0.81588 0.0
H1244 H 0.9017 0.63075 0.69541 0.0
H1245 H 0.84527 0.6034 0.71313 0.0
H1246 H 0.81592 0.60111 0.74736 0.0
H1247 H 0.79979 0.65126 0.71459 0.0
H1248 H 0.82916 0.65398 0.6807 0.0
H1249 H 0.8921 0.61132 0.45969 0.0
H1250 H 0.89075 0.60925 0.53806 0.0
H1251 H 0.8575 0.65705 0.56825 0.0
H1252 H 0.85828 0.65885 0.48959 0.0
H1253 H 0.8457 0.63202 0.61099 0.0
H1254 H 0.90208 0.6593 0.59297 0.0
H1255 H 0.93142 0.66159 0.55867 0.0
H1256 H 0.94764 0.61157 0.59197 0.0
H1257 H 0.91829 0.60885 0.62594 0.0
C1258 C 0.86317 0.64101 0.82365 0.0
C1259 C 0.87216 0.6269 0.83786 0.0
C1260 C 0.86372 0.64227 0.77877 0.0
C1261 C 0.87316 0.6294 0.74694 0.0
C1262 C 0.88256 0.61561 0.76124 0.0
C1263 C 0.88204 0.61435 0.8061 0.0
C1264 C 0.87313 0.63017 0.69873 0.0
C1265 C 0.88945 0.63079 0.67683 0.0
C1266 C 0.85716 0.63063 0.67456 0.0
C1267 C 0.83948 0.62899 0.69479 0.0
C1268 C 0.83552 0.61401 0.71354 0.0
C1269 C 0.81887 0.61262 0.73282 0.0
C1270 C 0.80602 0.62605 0.73326 0.0
C1271 C 0.80977 0.64088 0.71429 0.0
C1272 C 0.82641 0.64235 0.69501 0.0
C1273 C 0.88427 0.62124 0.4828 0.0
C1274 C 0.87536 0.6353 0.46819 0.0
C1275 C 0.88368 0.62016 0.52779 0.0
C1276 C 0.87427 0.63318 0.55935 0.0
C1277 C 0.86495 0.64692 0.54468 0.0
C1278 C 0.86552 0.648 0.49968 0.0
C1279 C 0.87428 0.63258 0.60766 0.0
C1280 C 0.85795 0.63199 0.62958 0.0
C1281 C 0.89025 0.63215 0.63185 0.0
C1282 C 0.90793 0.63379 0.6116 0.0
C1283 C 0.91186 0.64872 0.59267 0.0
C1284 C 0.9285 0.65011 0.57334 0.0
C1285 C 0.94137 0.63671 0.57303 0.0
C1286 C 0.93765 0.62192 0.59217 0.0
C1287 C 0.92102 0.62046 0.6115 0.0
H1288 H 0.95425 0.63781 0.55805 0.0
H1289 H 0.79313 0.62495 0.7482 0.0
H1290 H 0.16748 0.11633 0.57706 0.0
H1291 H 0.16581 0.11946 0.49962 0.0
H1292 H 0.10913 0.11121 0.50032 0.0
H1293 H 0.11067 0.10813 0.5781 0.0
H1294 H 0.12323 0.09249 0.42334 0.0
H1295 H 0.12723 0.15395 0.50831 0.0
H1296 H 0.14004 0.17949 0.56373 0.0
H1297 H 0.18891 0.17437 0.4894 0.0
H1298 H 0.17646 0.14862 0.43383 0.0
H1299 H 0.10578 0.12344 0.22311 0.0
H1300 H 0.10656 0.11895 0.2997 0.0
H1301 H 0.16306 0.12875 0.30478 0.0
H1302 H 0.16236 0.13329 0.22829 0.0
H1303 H 0.14838 0.1468 0.37922 0.0
H1304 H 0.14466 0.08523 0.2946 0.0
H1305 H 0.13205 0.05955 0.23922 0.0
H1306 H 0.08294 0.06473 0.31253 0.0
H1307 H 0.09518 0.09061 0.36807 0.0
C1308 C 0.15459 0.11537 0.56105 0.0
C1309 C 0.13919 0.11213 0.58432 0.0
C1310 C 0.15367 0.11713 0.51653 0.0
C1311 C 0.1373 0.11584 0.494 0.0
C1312 C 0.12193 0.11228 0.51679 0.0
C1313 C 0.12285 0.11048 0.56137 0.0
C1314 C 0.13627 0.11826 0.44683 0.0
C1315 C 0.12851 0.1045 0.41385 0.0
C1316 C 0.14348 0.13371 0.4339 0.0
C1317 C 0.15096 0.14925 0.46713 0.0
C1318 C 0.14075 0.15819 0.50395 0.0
C1319 C 0.14794 0.17271 0.53536 0.0
C1320 C 0.16529 0.17852 0.53014 0.0
C1321 C 0.17547 0.16984 0.49342 0.0
C1322 C 0.16835 0.15529 0.46194 0.0
C1323 C 0.11843 0.12439 0.24023 0.0
C1324 C 0.13401 0.12874 0.21923 0.0
C1325 C 0.11886 0.12184 0.28422 0.0
C1326 C 0.13491 0.12334 0.30826 0.0
C1327 C 0.15048 0.12757 0.28725 0.0
C1328 C 0.15005 0.1302 0.24339 0.0
C1329 C 0.13545 0.12098 0.35556 0.0
C1330 C 0.14309 0.13479 0.38863 0.0
C1331 C 0.12816 0.10556 0.3685 0.0
C1332 C 0.12078 0.08997 0.33524 0.0
C1333 C 0.13113 0.08098 0.29873 0.0
C1334 C 0.12405 0.06638 0.26734 0.0
C1335 C 0.10669 0.06055 0.27229 0.0
C1336 C 0.09638 0.06928 0.30871 0.0
C1337 C 0.10338 0.0839 0.34017 0.0
H1338 H 0.10123 0.04924 0.24796 0.0
H1339 H 0.17083 0.18977 0.5545 0.0
H1340 H 0.60935 0.3985 0.30921 0.0
H1341 H 0.61015 0.4034 0.23297 0.0
H1342 H 0.66179 0.37804 0.21281 0.0
H1343 H 0.66135 0.37366 0.28944 0.0
H1344 H 0.66115 0.40712 0.17734 0.0
H1345 H 0.62335 0.35523 0.17044 0.0
H1346 H 0.598 0.33823 0.19186 0.0
H1347 H 0.56169 0.37655 0.15579 0.0
H1348 H 0.58686 0.39393 0.1347 0.0
H1349 H 0.66508 0.38777 0.94013 0.0
H1350 H 0.6635 0.38524 0.01815 0.0
H1351 H 0.61292 0.41283 0.03275 0.0
H1352 H 0.61423 0.41509 0.95427 0.0
H1353 H 0.61237 0.38375 0.07159 0.0
H1354 H 0.65036 0.43503 0.07602 0.0
H1355 H 0.67583 0.45172 0.05406 0.0
H1356 H 0.71192 0.41422 0.09438 0.0
H1357 H 0.68664 0.39714 0.11601 0.0
C1358 C 0.62099 0.39416 0.28883 0.0
C1359 C 0.63524 0.38557 0.30568 0.0
C1360 C 0.62135 0.3968 0.24493 0.0
C1361 C 0.63591 0.39084 0.21663 0.0
C1362 C 0.65034 0.38269 0.23372 0.0
C1363 C 0.65 0.38005 0.27756 0.0
C1364 C 0.63612 0.39294 0.16918 0.0
C1365 C 0.65057 0.40181 0.15414 0.0
C1366 C 0.62215 0.38642 0.13887 0.0
C1367 C 0.607 0.37599 0.15146 0.0
C1368 C 0.60997 0.36012 0.16742 0.0
C1369 C 0.59563 0.3504 0.17944 0.0
C1370 C 0.57825 0.35634 0.17531 0.0
C1371 C 0.57516 0.37198 0.15904 0.0
C1372 C 0.58946 0.38177 0.14702 0.0
C1373 C 0.65352 0.39317 0.95973 0.0
C1374 C 0.63978 0.40165 0.94069 0.0
C1375 C 0.65272 0.39187 1.00459 0.0
C1376 C 0.63818 0.39902 0.03171 0.0
C1377 C 0.62431 0.40726 0.01269 0.0
C1378 C 0.62515 0.40866 0.96783 0.0
C1379 C 0.63745 0.39781 0.07975 0.0
C1380 C 0.62291 0.38911 0.09487 0.0
C1381 C 0.65136 0.40445 0.11011 0.0
C1382 C 0.6666 0.41471 0.09723 0.0
C1383 C 0.66372 0.43025 0.07987 0.0
C1384 C 0.67813 0.4398 0.06754 0.0
C1385 C 0.69549 0.43401 0.07272 0.0
C1386 C 0.69847 0.41868 0.09034 0.0
C1387 C 0.68411 0.40907 0.10267 0.0
H1388 H 0.70662 0.44142 0.06317 0.0
H1389 H 0.56716 0.34879 0.18463 0.0
H1390 H 0.35077 0.86461 0.04003 0.0
H1391 H 0.3488 0.8678 0.96252 0.0
H1392 H 0.3971 0.89936 0.97925 0.0
H1393 H 0.39917 0.8962 0.05677 0.0
H1394 H 0.37331 0.91418 0.93347 0.0
H1395 H 0.39664 0.85407 0.92411 0.0
H1396 H 0.39705 0.82307 0.93809 0.0
H1397 H 0.34723 0.81134 0.86979 0.0
H1398 H 0.34641 0.84237 0.85592 0.0
H1399 H 0.39221 0.90885 0.70382 0.0
H1400 H 0.39344 0.90619 0.78179 0.0
H1401 H 0.34583 0.87356 0.76273 0.0
H1402 H 0.34459 0.87607 0.68458 0.0
H1403 H 0.36894 0.85936 0.80989 0.0
H1404 H 0.34563 0.9193 0.81859 0.0
H1405 H 0.34508 0.95031 0.80471 0.0
H1406 H 0.39459 0.96242 0.8743 0.0
H1407 H 0.39555 0.93138 0.88808 0.0
C1408 C 0.36103 0.87217 0.02721 0.0
C1409 C 0.37519 0.88006 0.05475 0.0
C1410 C 0.35988 0.87399 0.98279 0.0
C1411 C 0.37294 0.8836 0.96463 0.0
C1412 C 0.38684 0.89187 0.99235 0.0
C1413 C 0.38798 0.8901 0.03681 0.0
C1414 C 0.37223 0.8849 0.91671 0.0
C1415 C 0.37258 0.90217 0.90644 0.0
C1416 C 0.37087 0.86929 0.88128 0.0
C1417 C 0.37138 0.8506 0.88937 0.0
C1418 C 0.38571 0.84492 0.91236 0.0
C1419 C 0.38603 0.82734 0.92022 0.0
C1420 C 0.37215 0.81526 0.90494 0.0
C1421 C 0.35795 0.82072 0.88166 0.0
C1422 C 0.35756 0.8383 0.87376 0.0
C1423 C 0.38192 0.9012 0.71625 0.0
C1424 C 0.36825 0.89274 0.68782 0.0
C1425 C 0.38264 0.89969 0.76096 0.0
C1426 C 0.36958 0.8899 0.77859 0.0
C1427 C 0.35608 0.8812 0.75009 0.0
C1428 C 0.35541 0.88261 0.70529 0.0
C1429 C 0.37003 0.88864 0.82658 0.0
C1430 C 0.36964 0.87138 0.83689 0.0
C1431 C 0.37133 0.90426 0.86205 0.0
C1432 C 0.37074 0.92296 0.85399 0.0
C1433 C 0.35646 0.92853 0.83065 0.0
C1434 C 0.35607 0.94612 0.82285 0.0
C1435 C 0.36982 0.95831 0.83852 0.0
C1436 C 0.38397 0.95295 0.86213 0.0
C1437 C 0.38443 0.93537 0.86998 0.0
H1438 H 0.36949 0.97192 0.83244 0.0
H1439 H 0.37242 0.80166 0.91106 0.0
H1440 H 0.11127 0.6846 0.16248 0.0
H1441 H 0.10756 0.71756 0.16942 0.0
H1442 H 0.16414 0.72499 0.18592 0.0
H1443 H 0.16795 0.69208 0.17752 0.0
H1444 H 0.14019 0.75304 0.24541 0.0
H1445 H 0.15244 0.72267 0.09061 0.0
H1446 H 0.14656 0.6992 0.02223 0.0
H1447 H 0.09342 0.71948 0.0174 0.0
H1448 H 0.09891 0.74288 0.08628 0.0
H1449 H 0.15518 0.83931 0.19394 0.0
H1450 H 0.15578 0.80788 0.203 0.0
H1451 H 0.10631 0.79729 0.13071 0.0
H1452 H 0.10648 0.82834 0.11885 0.0
H1453 H 0.12506 0.77035 0.10296 0.0
H1454 H 0.112 0.80193 0.25294 0.0
H1455 H 0.11628 0.82521 0.32256 0.0
H1456 H 0.16776 0.80313 0.33973 0.0
H1457 H 0.16386 0.77982 0.26995 0.0
C1458 C 0.12285 0.69333 0.16857 0.0
C1459 C 0.13991 0.6858 0.16943 0.0
C1460 C 0.12073 0.71213 0.17241 0.0
C1461 C 0.13559 0.72373 0.17816 0.0
C1462 C 0.15249 0.71633 0.18174 0.0
C1463 C 0.15465 0.69753 0.17684 0.0
C1464 C 0.13381 0.74321 0.17593 0.0
C1465 C 0.13695 0.7569 0.21432 0.0
C1466 C 0.12922 0.74823 0.13562 0.0
C1467 C 0.12601 0.73437 0.09385 0.0
C1468 C 0.13945 0.72202 0.07519 0.0
C1469 C 0.1362 0.70875 0.03631 0.0
C1470 C 0.11961 0.70781 0.01556 0.0
C1471 C 0.10625 0.72019 0.03357 0.0
C1472 C 0.10943 0.73346 0.07251 0.0
C1473 C 0.14435 0.8303 0.18043 0.0
C1474 C 0.13075 0.8363 0.15582 0.0
C1475 C 0.14461 0.81229 0.18586 0.0
C1476 C 0.1309 0.80005 0.16833 0.0
C1477 C 0.11711 0.80628 0.14457 0.0
C1478 C 0.11714 0.82409 0.13796 0.0
C1479 C 0.13131 0.78058 0.17271 0.0
C1480 C 0.12804 0.76674 0.13449 0.0
C1481 C 0.13546 0.77549 0.21349 0.0
C1482 C 0.13768 0.78921 0.25604 0.0
C1483 C 0.12425 0.80207 0.27149 0.0
C1484 C 0.12662 0.81527 0.31098 0.0
C1485 C 0.1423 0.81568 0.33549 0.0
C1486 C 0.15562 0.80281 0.32069 0.0
C1487 C 0.15333 0.78957 0.28122 0.0
H1488 H 0.14412 0.82594 0.36599 0.0
H1489 H 0.11711 0.69753 0.98547 0.0
H1490 H 0.5829 0.8993 0.45894 0.0
H1491 H 0.55039 0.89989 0.46746 0.0
H1492 H 0.54596 0.85507 0.35305 0.0
H1493 H 0.57813 0.85449 0.3442 0.0
H1494 H 0.52364 0.88115 0.34479 0.0
H1495 H 0.53838 0.85042 0.46199 0.0
H1496 H 0.55331 0.84686 0.53107 0.0
H1497 H 0.52783 0.89537 0.6045 0.0
H1498 H 0.51293 0.89936 0.53568 0.0
H1499 H 0.43524 0.85374 0.34737 0.0
H1500 H 0.46741 0.85445 0.35587 0.0
H1501 H 0.46299 0.90083 0.46649 0.0
H1502 H 0.43043 0.90006 0.4585 0.0
H1503 H 0.48957 0.87719 0.481 0.0
H1504 H 0.47389 0.90714 0.36437 0.0
H1505 H 0.45879 0.91051 0.29534 0.0
H1506 H 0.48639 0.86358 0.22077 0.0
H1507 H 0.50145 0.85976 0.28951 0.0
C1508 C 0.57501 0.8894 0.43603 0.0
C1509 C 0.58324 0.87692 0.40074 0.0
C1510 C 0.55637 0.88974 0.44093 0.0
C1511 C 0.54556 0.87754 0.41083 0.0
C1512 C 0.55386 0.86474 0.37656 0.0
C1513 C 0.57237 0.86441 0.37162 0.0
C1514 C 0.52562 0.87847 0.4131 0.0
C1515 C 0.51626 0.88008 0.37453 0.0
C1516 C 0.5158 0.87771 0.4522 0.0
C1517 C 0.5247 0.8753 0.49359 0.0
C1518 C 0.53608 0.86042 0.49279 0.0
C1519 C 0.54451 0.8583 0.53191 0.0
C1520 C 0.54156 0.87091 0.57213 0.0
C1521 C 0.53013 0.88563 0.57332 0.0
C1522 C 0.52168 0.88782 0.53427 0.0
C1523 C 0.441 0.86405 0.37385 0.0
C1524 C 0.43013 0.87698 0.40193 0.0
C1525 C 0.4595 0.86445 0.37861 0.0
C1526 C 0.4678 0.87793 0.41123 0.0
C1527 C 0.45698 0.89034 0.44088 0.0
C1528 C 0.43834 0.88989 0.43626 0.0
C1529 C 0.4877 0.87941 0.41234 0.0
C1530 C 0.49702 0.87835 0.45143 0.0
C1531 C 0.49757 0.88071 0.37371 0.0
C1532 C 0.4887 0.88309 0.33218 0.0
C1533 C 0.47666 0.89747 0.3333 0.0
C1534 C 0.46811 0.89947 0.29422 0.0
C1535 C 0.4716 0.88725 0.25371 0.0
C1536 C 0.48369 0.87303 0.25218 0.0
C1537 C 0.49224 0.87096 0.29119 0.0
H1538 H 0.46497 0.88881 0.2235 0.0
H1539 H 0.5481 0.86925 0.60238 0.0
H1540 H 0.39579 0.32146 0.5828 0.0
H1541 H 0.39463 0.29046 0.5941 0.0
H1542 H 0.37035 0.3099 0.7233 0.0
H1543 H 0.37153 0.34119 0.71239 0.0
H1544 H 0.39476 0.28206 0.72418 0.0
H1545 H 0.34455 0.29259 0.63762 0.0
H1546 H 0.32926 0.30231 0.57576 0.0
H1547 H 0.35764 0.26183 0.48036 0.0
H1548 H 0.37331 0.25206 0.54169 0.0
H1549 H 0.34219 0.18935 0.65809 0.0
H1550 H 0.34574 0.22202 0.66469 0.0
H1551 H 0.40248 0.2165 0.67717 0.0
H1552 H 0.39885 0.18364 0.67161 0.0
H1553 H 0.36103 0.23825 0.60952 0.0
H1554 H 0.42024 0.25795 0.73092 0.0
H1555 H 0.43327 0.24904 0.79671 0.0
H1556 H 0.38238 0.22985 0.82997 0.0
H1557 H 0.369 0.23886 0.76476 0.0
C1558 C 0.39035 0.31927 0.61391 0.0
C1559 C 0.3836 0.33393 0.6465 0.0
C1560 C 0.38969 0.30146 0.62029 0.0
C1561 C 0.3822 0.29775 0.65931 0.0
C1562 C 0.37618 0.31239 0.69288 0.0
C1563 C 0.37682 0.33029 0.68651 0.0
C1564 C 0.37962 0.27851 0.66337 0.0
C1565 C 0.38742 0.27246 0.69912 0.0
C1566 C 0.36975 0.26599 0.63121 0.0
C1567 C 0.36023 0.27171 0.59424 0.0
C1568 C 0.34763 0.28585 0.60344 0.0
C1569 C 0.33888 0.29136 0.56848 0.0
C1570 C 0.34251 0.28272 0.52415 0.0
C1571 C 0.35486 0.26852 0.51471 0.0
C1572 C 0.36367 0.26298 0.54956 0.0
C1573 C 0.35541 0.19513 0.66303 0.0
C1574 C 0.37024 0.1839 0.66424 0.0
C1575 C 0.35744 0.21384 0.66659 0.0
C1576 C 0.37438 0.22188 0.67126 0.0
C1577 C 0.38922 0.21077 0.6741 0.0
C1578 C 0.38716 0.19196 0.67091 0.0
C1579 C 0.37636 0.24156 0.67012 0.0
C1580 C 0.36844 0.24775 0.6347 0.0
C1581 C 0.38581 0.25421 0.70309 0.0
C1582 C 0.39367 0.24891 0.74267 0.0
C1583 C 0.41182 0.25189 0.75237 0.0
C1584 C 0.41927 0.24681 0.78954 0.0
C1585 C 0.40867 0.23882 0.81741 0.0
C1586 C 0.39059 0.23596 0.80826 0.0
C1587 C 0.38307 0.24103 0.77115 0.0
H1588 H 0.41447 0.23489 0.84615 0.0
H1589 H 0.33572 0.287 0.49713 0.0
H1590 H 0.9262 0.14112 0.95089 0.0
H1591 H 0.95812 0.14413 0.97043 0.0
H1592 H 0.97092 0.10504 0.84903 0.0
H1593 H 0.93962 0.10225 0.82937 0.0
H1594 H 0.98817 0.09794 0.92351 0.0
H1595 H 0.97628 0.14907 0.85411 0.0
H1596 H 0.96128 0.17777 0.85003 0.0
H1597 H 0.98192 0.20322 0.97919 0.0
H1598 H 0.99682 0.17455 0.98429 0.0
H1599 H 0.07181 0.10276 0.83377 0.0
H1600 H 0.04037 0.1053 0.85221 0.0
H1601 H 0.05211 0.14384 0.97509 0.0
H1602 H 0.08421 0.14116 0.95669 0.0
H1603 H 0.02253 0.15418 0.92423 0.0
H1604 H 0.03944 0.10427 0.98591 0.0
H1605 H 0.05373 0.07527 0.99035 0.0
H1606 H 0.02333 0.04731 0.87762 0.0
H1607 H 0.00906 0.07617 0.87198 0.0
C1608 C 0.93588 0.13317 0.92863 0.0
C1609 C 0.93037 0.12145 0.88859 0.0
C1610 C 0.9541 0.13493 0.9397 0.0
C1611 C 0.96699 0.12478 0.91118 0.0
C1612 C 0.96133 0.11296 0.8717 0.0
C1613 C 0.94335 0.11142 0.86044 0.0
C1614 C 0.98647 0.12618 0.92108 0.0
C1615 C 0.99567 0.11026 0.92389 0.0
C1616 C 0.99629 0.1424 0.92312 0.0
C1617 C 0.98745 0.15962 0.91986 0.0
C1618 C 0.97748 0.16074 0.88181 0.0
C1619 C 0.96902 0.177 0.87928 0.0
C1620 C 0.97059 0.19229 0.9144 0.0
C1621 C 0.98067 0.19136 0.95206 0.0
C1622 C 0.98913 0.17511 0.95479 0.0
C1623 C 0.06783 0.11176 0.86492 0.0
C1624 C 0.08058 0.12171 0.89383 0.0
C1625 C 0.04976 0.11316 0.87547 0.0
C1626 C 0.04377 0.12464 0.9152 0.0
C1627 C 0.0564 0.13483 0.94427 0.0
C1628 C 0.07472 0.13324 0.93388 0.0
C1629 C 0.02425 0.1257 0.92485 0.0
C1630 C 0.01504 0.14199 0.92537 0.0
C1631 C 0.01434 0.1098 0.92595 0.0
C1632 C 0.0232 0.09244 0.92847 0.0
C1633 C 0.03592 0.09198 0.96177 0.0
C1634 C 0.044 0.07555 0.96456 0.0
C1635 C 0.03941 0.05946 0.93433 0.0
C1636 C 0.02684 0.05978 0.90106 0.0
C1637 C 0.01874 0.07617 0.8981 0.0
H1638 H 0.04552 0.04673 0.93677 0.0
H1639 H 0.96403 0.20487 0.91238 0.0
H1640 H 0.16902 0.32206 0.86226 0.0
H1641 H 0.16511 0.28945 0.85589 0.0
H1642 H 0.10847 0.29554 0.84284 0.0
H1643 H 0.11245 0.32836 0.84828 0.0
H1644 H 0.14934 0.27352 0.91134 0.0
H1645 H 0.09059 0.2541 0.78855 0.0
H1646 H 0.07791 0.26305 0.72242 0.0
H1647 H 0.12912 0.28185 0.69015 0.0
H1648 H 0.14214 0.27279 0.75571 0.0
H1649 H 0.11443 0.19034 0.93731 0.0
H1650 H 0.11541 0.2213 0.92574 0.0
H1651 H 0.14035 0.20192 0.79735 0.0
H1652 H 0.13934 0.17066 0.80851 0.0
H1653 H 0.11594 0.22978 0.79577 0.0
H1654 H 0.16572 0.21922 0.88395 0.0
H1655 H 0.18057 0.20947 0.94636 0.0
H1656 H 0.15171 0.2499 0.04073 0.0
H1657 H 0.13647 0.25971 0.97883 0.0
C1658 C 0.15574 0.31642 0.85726 0.0
C1659 C 0.14105 0.32781 0.85588 0.0
C1660 C 0.1535 0.29775 0.85383 0.0
C1661 C 0.13649 0.28989 0.84906 0.0
C1662 C 0.12178 0.30114 0.84601 0.0
C1663 C 0.12405 0.31992 0.84913 0.0
C1664 C 0.13431 0.27023 0.85029 0.0
C1665 C 0.14199 0.26404 0.88597 0.0
C1666 C 0.12493 0.25762 0.8171 0.0
C1667 C 0.11728 0.26294 0.77732 0.0
C1668 C 0.09915 0.26009 0.76725 0.0
C1669 C 0.0919 0.26519 0.72988 0.0
C1670 C 0.10269 0.27307 0.70219 0.0
C1671 C 0.12076 0.27581 0.71172 0.0
C1672 C 0.12808 0.27072 0.74902 0.0
C1673 C 0.11997 0.19252 0.90629 0.0
C1674 C 0.12697 0.17791 0.87404 0.0
C1675 C 0.12052 0.21032 0.89976 0.0
C1676 C 0.12817 0.21405 0.86093 0.0
C1677 C 0.13439 0.19942 0.82761 0.0
C1678 C 0.13384 0.18153 0.83412 0.0
C1679 C 0.1308 0.2333 0.857 0.0
C1680 C 0.12321 0.23937 0.82104 0.0
C1681 C 0.14056 0.24581 0.88946 0.0
C1682 C 0.14984 0.24009 0.92676 0.0
C1683 C 0.16245 0.22595 0.91802 0.0
C1684 C 0.17095 0.22042 0.95329 0.0
C1685 C 0.16706 0.22904 0.99749 0.0
C1686 C 0.15469 0.24323 1.00648 0.0
C1687 C 0.14613 0.24879 0.97131 0.0
H1688 H 0.17365 0.22474 0.02476 0.0
H1689 H 0.09705 0.27702 0.6733 0.0
H1690 H 0.0852 0.88298 0.06911 0.0
H1691 H 0.05318 0.87861 0.05223 0.0
H1692 H 0.04181 0.88737 0.19329 0.0
H1693 H 0.07328 0.89182 0.21002 0.0
H1694 H 0.02293 0.85874 0.14604 0.0
H1695 H 0.03645 0.92109 0.13729 0.0
H1696 H 0.05189 0.94437 0.10607 0.0
H1697 H 0.03091 0.92093 0.97594 0.0
H1698 H 0.01553 0.89734 1.00635 0.0
H1699 H 0.93968 0.89482 0.20786 0.0
H1700 H 0.97115 0.89008 0.19145 0.0
H1701 H 0.95997 0.87782 0.05012 0.0
H1702 H 0.92789 0.88249 0.06664 0.0
H1703 H 0.9899 0.90252 0.07711 0.0
H1704 H 0.97132 0.84386 0.09092 0.0
H1705 H 0.9552 0.82168 0.12445 0.0
H1706 H 0.98549 0.83806 0.24515 0.0
H1707 H 1.0016 0.86058 0.21268 0.0
C1708 C 0.07583 0.88379 0.09632 0.0
C1709 C 0.08179 0.88779 0.1409 0.0
C1710 C 0.05753 0.88137 0.08671 0.0
C1711 C 0.04497 0.8827 0.12153 0.0
C1712 C 0.05111 0.88619 0.16578 0.0
C1713 C 0.06919 0.88881 0.17531 0.0
C1714 C 0.02536 0.8811 0.11322 0.0
C1715 C 0.01574 0.86826 0.13074 0.0
C1716 C 0.01586 0.89314 0.09212 0.0
C1717 C 0.02505 0.90732 0.07393 0.0
C1718 C 0.03526 0.92081 0.10194 0.0
C1719 C 0.04397 0.93408 0.08442 0.0
C1720 C 0.04244 0.93409 0.03901 0.0
C1721 C 0.03213 0.92087 0.01107 0.0
C1722 C 0.02341 0.90755 0.02843 0.0
C1723 C 0.9438 0.89105 0.17316 0.0
C1724 C 0.93121 0.88898 0.13855 0.0
C1725 C 0.96188 0.8883 0.16384 0.0
C1726 C 0.96803 0.88346 0.11958 0.0
C1727 C 0.95556 0.88152 0.08458 0.0
C1728 C 0.93724 0.88409 0.09401 0.0
C1729 C 0.98753 0.88055 0.11128 0.0
C1730 C 0.99711 0.89259 0.09102 0.0
C1731 C 0.99704 0.86776 0.12984 0.0
C1732 C 0.98763 0.85399 0.14937 0.0
C1733 C 0.97449 0.84281 0.12471 0.0
C1734 C 0.96535 0.83017 0.14353 0.0
C1735 C 0.9693 0.82848 0.18692 0.0
C1736 C 0.98245 0.83939 0.21153 0.0
C1737 C 0.99161 0.85208 0.1929 0.0
H1738 H 0.96219 0.8187 0.20146 0.0
H1739 H 0.04919 0.94437 0.02551 0.0
H1740 H 0.38636 0.6907 0.43785 0.0
H1741 H 0.38495 0.7213 0.42398 0.0
H1742 H 0.38049 0.699 0.28244 0.0
H1743 H 0.38147 0.66799 0.29602 0.0
H1744 H 0.40698 0.73351 0.32353 0.0
H1745 H 0.34649 0.7112 0.30913 0.0
H1746 H 0.321 0.695 0.33284 0.0
H1747 H 0.32011 0.73293 0.45995 0.0
H1748 H 0.34585 0.74912 0.43734 0.0
H1749 H 0.38269 0.82613 0.31033 0.0
H1750 H 0.38461 0.79253 0.29229 0.0
H1751 H 0.36824 0.79187 0.42685 0.0
H1752 H 0.36615 0.82476 0.44451 0.0
H1753 H 0.35073 0.76667 0.37069 0.0
H1754 H 0.41214 0.78641 0.3912 0.0
H1755 H 0.439 0.80226 0.37355 0.0
H1756 H 0.43904 0.76952 0.23974 0.0
H1757 H 0.41202 0.75365 0.25646 0.0
C1758 C 0.38529 0.69216 0.4036 0.0
C1759 C 0.38399 0.67677 0.36805 0.0
C1760 C 0.3845 0.70974 0.39578 0.0
C1761 C 0.38264 0.71244 0.35223 0.0
C1762 C 0.38201 0.6972 0.31632 0.0
C1763 C 0.3825 0.6795 0.32418 0.0
C1764 C 0.38007 0.73126 0.34557 0.0
C1765 C 0.39455 0.74069 0.33264 0.0
C1766 C 0.36397 0.74069 0.35831 0.0
C1767 C 0.34821 0.73127 0.37166 0.0
C1768 C 0.34096 0.71599 0.34228 0.0
C1769 C 0.32645 0.70682 0.3555 0.0
C1770 C 0.31896 0.71291 0.3979 0.0
C1771 C 0.32593 0.72822 0.42712 0.0
C1772 C 0.34048 0.7374 0.41411 0.0
C1773 C 0.37951 0.81872 0.33584 0.0
C1774 C 0.37425 0.82814 0.37881 0.0
C1775 C 0.38063 0.79954 0.3256 0.0
C1776 C 0.37654 0.78955 0.35822 0.0
C1777 C 0.37131 0.79909 0.40089 0.0
C1778 C 0.37021 0.81803 0.41101 0.0
C1779 C 0.37777 0.76922 0.34941 0.0
C1780 C 0.36302 0.75947 0.36002 0.0
C1781 C 0.39366 0.75958 0.33483 0.0
C1782 C 0.40994 0.76902 0.32488 0.0
C1783 C 0.4178 0.78269 0.35791 0.0
C1784 C 0.43306 0.79166 0.3481 0.0
C1785 C 0.44069 0.78694 0.3055 0.0
C1786 C 0.4331 0.7732 0.27268 0.0
C1787 C 0.41781 0.76421 0.2823 0.0
H1788 H 0.4525 0.7939 0.29796 0.0
H1789 H 0.30774 0.70578 0.40809 0.0
H1790 H 0.57635 0.15892 0.66483 0.0
H1791 H 0.54426 0.15751 0.65429 0.0
H1792 H 0.55017 0.10937 0.54901 0.0
H1793 H 0.58267 0.11099 0.55881 0.0
H1794 H 0.52276 0.13102 0.53051 0.0
H1795 H 0.53935 0.10528 0.65346 0.0
H1796 H 0.5547 0.10416 0.72378 0.0
H1797 H 0.52617 0.15163 0.79194 0.0
H1798 H 0.51084 0.1532 0.72184 0.0
H1799 H 0.42897 0.11059 0.55977 0.0
H1800 H 0.46143 0.10934 0.54888 0.0
H1801 H 0.46733 0.15608 0.65809 0.0
H1802 H 0.43531 0.15715 0.66949 0.0
H1803 H 0.48907 0.13052 0.66946 0.0
H1804 H 0.47386 0.1571 0.54412 0.0
H1805 H 0.45871 0.15787 0.4733 0.0
H1806 H 0.48422 0.10784 0.40948 0.0
H1807 H 0.49936 0.10666 0.48012 0.0
C1808 C 0.57091 0.14814 0.63893 0.0
C1809 C 0.58213 0.13496 0.61296 0.0
C1810 C 0.55248 0.14732 0.63302 0.0
C1811 C 0.54463 0.13307 0.6016 0.0
C1812 C 0.55583 0.12044 0.57369 0.0
C1813 C 0.57443 0.12139 0.57927 0.0
C1814 C 0.5248 0.13096 0.60052 0.0
C1815 C 0.5154 0.13064 0.56073 0.0
C1816 C 0.51505 0.13049 0.63987 0.0
C1817 C 0.52403 0.12942 0.6823 0.0
C1818 C 0.53642 0.11554 0.68338 0.0
C1819 C 0.54511 0.11482 0.72321 0.0
C1820 C 0.54143 0.12783 0.76228 0.0
C1821 C 0.52901 0.14156 0.76164 0.0
C1822 C 0.5203 0.14236 0.72188 0.0
C1823 C 0.4372 0.12078 0.58085 0.0
C1824 C 0.4295 0.13392 0.61564 0.0
C1825 C 0.45579 0.12006 0.57464 0.0
C1826 C 0.46699 0.1326 0.60275 0.0
C1827 C 0.45913 0.14612 0.63616 0.0
C1828 C 0.44072 0.14675 0.64257 0.0
C1829 C 0.48689 0.13131 0.59988 0.0
C1830 C 0.49637 0.13082 0.63907 0.0
C1831 C 0.49661 0.13093 0.55996 0.0
C1832 C 0.48759 0.13169 0.51751 0.0
C1833 C 0.47613 0.1462 0.51507 0.0
C1834 C 0.46757 0.14672 0.47495 0.0
C1835 C 0.47046 0.13289 0.43695 0.0
C1836 C 0.48197 0.11853 0.43896 0.0
C1837 C 0.49056 0.11794 0.47901 0.0
H1838 H 0.46381 0.13331 0.40593 0.0
H1839 H 0.54819 0.12726 0.79308 0.0
H1840 H 0.90492 0.18586 0.91404 0.0
H1841 H 0.90495 0.21715 0.90426 0.0
H1842 H 0.86072 0.2047 0.81324 0.0
H1843 H 0.86133 0.17301 0.8212 0.0
H1844 H 0.88021 0.22762 0.78518 0.0
H1845 H 0.85623 0.22699 0.92879 0.0
H1846 H 0.85511 0.22027 1.0039 0.0
H1847 H 0.90189 0.25259 0.04181 0.0
H1848 H 0.90343 0.2593 0.96668 0.0
H1849 H 0.84435 0.32153 0.85722 0.0
H1850 H 0.84867 0.28872 0.84986 0.0
H1851 H 0.90542 0.2964 0.85327 0.0
H1852 H 0.90119 0.32926 0.85916 0.0
H1853 H 0.88015 0.27645 0.92349 0.0
H1854 H 0.90234 0.27606 0.77221 0.0
H1855 H 0.89923 0.28333 0.69802 0.0
H1856 H 0.85028 0.2534 0.67704 0.0
H1857 H 0.85297 0.24623 0.75151 0.0
C1858 C 0.89533 0.18973 0.89154 0.0
C1859 C 0.88305 0.17696 0.86863 0.0
C1860 C 0.89525 0.20772 0.88619 0.0
C1861 C 0.8825 0.21362 0.85898 0.0
C1862 C 0.87067 0.20066 0.83464 0.0
C1863 C 0.87101 0.1825 0.83919 0.0
C1864 C 0.88116 0.23335 0.85727 0.0
C1865 C 0.88015 0.23821 0.81557 0.0
C1866 C 0.88096 0.24743 0.89669 0.0
C1867 C 0.88005 0.24349 0.94196 0.0
C1868 C 0.86635 0.23256 0.95305 0.0
C1869 C 0.86563 0.22877 0.99564 0.0
C1870 C 0.87845 0.23596 0.02757 0.0
C1871 C 0.89199 0.247 0.01701 0.0
C1872 C 0.89278 0.25082 0.97445 0.0
C1873 C 0.85776 0.31617 0.85544 0.0
C1874 C 0.87243 0.32796 0.8586 0.0
C1875 C 0.8602 0.29743 0.85127 0.0
C1876 C 0.87735 0.2901 0.85082 0.0
C1877 C 0.89207 0.30176 0.85311 0.0
C1878 C 0.88964 0.32051 0.85634 0.0
C1879 C 0.87968 0.27054 0.85167 0.0
C1880 C 0.88055 0.26576 0.89328 0.0
C1881 C 0.87932 0.25658 0.81236 0.0
C1882 C 0.87774 0.26083 0.76763 0.0
C1883 C 0.89081 0.27124 0.75201 0.0
C1884 C 0.88915 0.27529 0.70985 0.0
C1885 C 0.87453 0.26889 0.68289 0.0
C1886 C 0.86157 0.25838 0.69799 0.0
C1887 C 0.86317 0.25431 0.74016 0.0
H1888 H 0.87328 0.27203 0.65025 0.0
H1889 H 0.87788 0.233 0.06052 0.0
H1890 H 0.62267 0.82774 0.31936 0.0
H1891 H 0.61956 0.79426 0.30345 0.0
H1892 H 0.6544 0.79224 0.41377 0.0
H1893 H 0.65736 0.82517 0.42978 0.0
H1894 H 0.66213 0.76506 0.34203 0.0
H1895 H 0.61028 0.79131 0.42701 0.0
H1896 H 0.58332 0.81043 0.4392 0.0
H1897 H 0.5606 0.77888 0.31834 0.0
H1898 H 0.58756 0.75973 0.30513 0.0
H1899 H 0.61598 0.69003 0.43314 0.0
H1900 H 0.61639 0.72091 0.42085 0.0
H1901 H 0.64163 0.70149 0.29278 0.0
H1902 H 0.6415 0.67043 0.30509 0.0
H1903 H 0.60305 0.7385 0.36087 0.0
H1904 H 0.6717 0.73392 0.27725 0.0
H1905 H 0.69912 0.71554 0.27167 0.0
H1906 H 0.68889 0.70483 0.40128 0.0
H1907 H 0.66157 0.72336 0.40786 0.0
C1908 C 0.6298 0.82005 0.33971 0.0
C1909 C 0.64021 0.82909 0.37588 0.0
C1910 C 0.62798 0.80096 0.33074 0.0
C1911 C 0.63674 0.79067 0.3575 0.0
C1912 C 0.64758 0.79976 0.39249 0.0
C1913 C 0.64919 0.81866 0.40173 0.0
C1914 C 0.63413 0.77061 0.35151 0.0
C1915 C 0.64915 0.75922 0.34536 0.0
C1916 C 0.61728 0.76292 0.35655 0.0
C1917 C 0.601 0.77424 0.3648 0.0
C1918 C 0.59958 0.78854 0.40288 0.0
C1919 C 0.5843 0.79937 0.41 0.0
C1920 C 0.57028 0.79592 0.37948 0.0
C1921 C 0.57149 0.78157 0.34189 0.0
C1922 C 0.58676 0.77072 0.33457 0.0
C1923 C 0.62151 0.69221 0.40211 0.0
C1924 C 0.62887 0.67765 0.37032 0.0
C1925 C 0.62163 0.70995 0.39502 0.0
C1926 C 0.62918 0.71367 0.35608 0.0
C1927 C 0.6359 0.69906 0.32337 0.0
C1928 C 0.63578 0.68126 0.33043 0.0
C1929 C 0.63107 0.73296 0.35162 0.0
C1930 C 0.61595 0.74422 0.35613 0.0
C1931 C 0.64788 0.74062 0.34581 0.0
C1932 C 0.6645 0.72983 0.34275 0.0
C1933 C 0.67535 0.7277 0.3046 0.0
C1934 C 0.69087 0.71725 0.30127 0.0
C1935 C 0.69571 0.70896 0.33602 0.0
C1936 C 0.6851 0.7112 0.37432 0.0
C1937 C 0.6696 0.72167 0.37786 0.0
H1938 H 0.70769 0.70084 0.33332 0.0
H1939 H 0.55847 0.80433 0.38503 0.0
H1940 H 0.84413 0.69069 0.14842 0.0
H1941 H 0.84853 0.72325 0.15487 0.0
H1942 H 0.90423 0.71726 0.18116 0.0
H1943 H 0.89981 0.6844 0.17518 0.0
H1944 H 0.8902 0.75015 0.23129 0.0
H1945 H 0.89222 0.71785 0.07841 0.0
H1946 H 0.88151 0.69616 0.01121 0.0
H1947 H 0.83396 0.72776 0.012 0.0
H1948 H 0.84425 0.74948 0.07969 0.0
H1949 H 0.8991 0.82491 0.08896 0.0
H1950 H 0.89922 0.79357 0.09784 0.0
H1951 H 0.86835 0.80945 0.21889 0.0
H1952 H 0.86836 0.84109 0.2105 0.0
H1953 H 0.87276 0.77111 0.09496 0.0
H1954 H 0.87717 0.77966 0.28736 0.0
H1955 H 0.89041 0.80071 0.35235 0.0
H1956 H 0.93027 0.81615 0.26741 0.0
H1957 H 0.91742 0.79504 0.20208 0.0
C1958 C 0.85729 0.69631 0.15626 0.0
C1959 C 0.87166 0.68491 0.16081 0.0
C1960 C 0.8598 0.71496 0.15989 0.0
C1961 C 0.87677 0.72273 0.16774 0.0
C1962 C 0.89101 0.7116 0.17497 0.0
C1963 C 0.88848 0.69282 0.17151 0.0
C1964 C 0.87965 0.74205 0.16464 0.0
C1965 C 0.88638 0.75476 0.20153 0.0
C1966 C 0.87506 0.74808 0.12548 0.0
C1967 C 0.86895 0.73521 0.08434 0.0
C1968 C 0.87943 0.72011 0.06441 0.0
C1969 C 0.87344 0.70782 0.02623 0.0
C1970 C 0.85705 0.71056 1.0074 0.0
C1971 C 0.84665 0.72564 0.02665 0.0
C1972 C 0.85256 0.73796 0.06491 0.0
C1973 C 0.89244 0.82186 0.11777 0.0
C1974 C 0.88367 0.83563 0.14895 0.0
C1975 C 0.8925 0.80383 0.12275 0.0
C1976 C 0.88383 0.799 0.15905 0.0
C1977 C 0.87535 0.81278 0.19085 0.0
C1978 C 0.87533 0.8309 0.18595 0.0
C1979 C 0.88297 0.77944 0.16198 0.0
C1980 C 0.87658 0.76661 0.12487 0.0
C1981 C 0.88824 0.77332 0.20058 0.0
C1982 C 0.8962 0.7859 0.23977 0.0
C1983 C 0.8888 0.7875 0.2826 0.0
C1984 C 0.89623 0.79945 0.31949 0.0
C1985 C 0.91113 0.80981 0.31399 0.0
C1986 C 0.91868 0.80818 0.27161 0.0
C1987 C 0.91131 0.79625 0.23463 0.0
H1988 H 0.91685 0.81906 0.34259 0.0
H1989 H 0.85244 0.70103 0.97785 0.0
H1990 H 0.67019 0.18929 0.65058 0.0
H1991 H 0.66705 0.22203 0.65768 0.0
H1992 H 0.61061 0.21778 0.67829 0.0
H1993 H 0.61381 0.18482 0.67201 0.0
H1994 H 0.65053 0.23875 0.60483 0.0
H1995 H 0.5947 0.25967 0.73632 0.0
H1996 H 0.58316 0.2508 0.80383 0.0
H1997 H 0.63451 0.23004 0.82786 0.0
H1998 H 0.64641 0.239 0.76088 0.0
H1999 H 0.61668 0.32339 0.58605 0.0
H2000 H 0.61763 0.29223 0.59619 0.0
H2001 H 0.64474 0.31035 0.72186 0.0
H2002 H 0.64372 0.34183 0.71218 0.0
H2003 H 0.6203 0.28317 0.72586 0.0
H2004 H 0.66839 0.29255 0.63074 0.0
H2005 H 0.68218 0.30202 0.56648 0.0
H2006 H 0.6508 0.26272 0.47599 0.0
H2007 H 0.63663 0.2532 0.53978 0.0
C2008 C 0.65712 0.19535 0.65732 0.0
C2009 C 0.64224 0.18443 0.66059 0.0
C2010 C 0.65533 0.2141 0.66119 0.0
C2011 C 0.63859 0.22252 0.66838 0.0
C2012 C 0.62372 0.21174 0.67322 0.0
C2013 C 0.62555 0.19288 0.6696 0.0
C2014 C 0.63679 0.24229 0.66792 0.0
C2015 C 0.64388 0.24839 0.63138 0.0
C2016 C 0.62833 0.25509 0.70267 0.0
C2017 C 0.62138 0.24983 0.7433 0.0
C2018 C 0.60354 0.25327 0.7561 0.0
C2019 C 0.59693 0.24822 0.79426 0.0
C2020 C 0.60808 0.2398 0.82002 0.0
C2021 C 0.62588 0.23649 0.80778 0.0
C2022 C 0.63255 0.24153 0.76968 0.0
C2023 C 0.62273 0.32088 0.61614 0.0
C2024 C 0.6303 0.33521 0.64807 0.0
C2025 C 0.62326 0.30297 0.62186 0.0
C2026 C 0.63148 0.29882 0.65948 0.0
C2027 C 0.63834 0.31317 0.69249 0.0
C2028 C 0.6378 0.33118 0.68682 0.0
C2029 C 0.63386 0.27943 0.66257 0.0
C2030 C 0.62689 0.27344 0.6994 0.0
C2031 C 0.64272 0.26672 0.6285 0.0
C2032 C 0.65134 0.27228 0.59005 0.0
C2033 C 0.66435 0.28602 0.59715 0.0
C2034 C 0.67224 0.29138 0.56081 0.0
C2035 C 0.66734 0.28301 0.51718 0.0
C2036 C 0.65457 0.26921 0.5098 0.0
C2037 C 0.64661 0.26382 0.54604 0.0
H2038 H 0.67347 0.28718 0.48909 0.0
H2039 H 0.60294 0.23589 0.84953 0.0
H2040 H 0.92895 0.39972 0.96607 0.0
H2041 H 0.96114 0.40044 0.98086 0.0
H2042 H 0.96929 0.35868 0.86136 0.0
H2043 H 0.93751 0.3578 0.84673 0.0
H2044 H 0.98936 0.35203 0.92763 0.0
H2045 H 0.97641 0.40435 0.86475 0.0
H2046 H 0.96164 0.43344 0.86329 0.0
H2047 H 0.9844 0.45776 0.99081 0.0
H2048 H 0.99912 0.42871 0.99328 0.0
H2049 H 0.07541 0.35795 0.84678 0.0
H2050 H 0.04365 0.35883 0.8616 0.0
H2051 H 0.05169 0.40016 0.98185 0.0
H2052 H 0.08392 0.39946 0.9668 0.0
H2053 H 0.02364 0.40867 0.93261 0.0
H2054 H 0.04037 0.35739 0.98953 0.0
H2055 H 0.05542 0.32835 0.98983 0.0
H2056 H 0.02569 0.30201 0.87422 0.0
H2057 H 0.01063 0.33095 0.87279 0.0
C2058 C 0.93761 0.39056 0.9433 0.0
C2059 C 0.93058 0.37876 0.9051 0.0
C2060 C 0.95604 0.39106 0.95161 0.0
C2061 C 0.96779 0.37973 0.92199 0.0
C2062 C 0.96063 0.36757 0.88479 0.0
C2063 C 0.94236 0.36715 0.87637 0.0
C2064 C 0.98756 0.38059 0.92828 0.0
C2065 C 0.99683 0.36443 0.92864 0.0
C2066 C 0.99743 0.39685 0.93107 0.0
C2067 C 0.98866 0.4143 0.92948 0.0
C2068 C 0.97814 0.41586 0.89264 0.0
C2069 C 0.9698 0.43234 0.8916 0.0
C2070 C 0.97203 0.44742 0.92701 0.0
C2071 C 0.98265 0.44606 0.96346 0.0
C2072 C 0.99099 0.42959 0.9647 0.0
C2073 C 0.07056 0.36716 0.87669 0.0
C2074 C 0.08234 0.3786 0.90567 0.0
C2075 C 0.05229 0.36759 0.88524 0.0
C2076 C 0.04514 0.37942 0.92312 0.0
C2077 C 0.05683 0.39085 0.95246 0.0
C2078 C 0.07528 0.39034 0.94402 0.0
C2079 C 0.02542 0.37996 0.93052 0.0
C2080 C 0.01617 0.39635 0.93262 0.0
C2081 C 0.01553 0.36391 0.93002 0.0
C2082 C 0.02443 0.34639 0.93094 0.0
C2083 C 0.03711 0.34544 0.964 0.0
C2084 C 0.04564 0.32899 0.96439 0.0
C2085 C 0.04153 0.31335 0.93203 0.0
C2086 C 0.02885 0.31413 0.89927 0.0
C2087 C 0.02029 0.33055 0.8987 0.0
H2088 H 0.04816 0.30063 0.93238 0.0
H2089 H 0.96556 0.46017 0.92615 0.0
H2090 H 0.42727 0.63321 0.45621 0.0
H2091 H 0.45933 0.63549 0.47437 0.0
H2092 H 0.47185 0.61266 0.33598 0.0
H2093 H 0.44045 0.61026 0.31811 0.0
H2094 H 0.49026 0.59585 0.38913 0.0
H2095 H 0.47588 0.65872 0.3846 0.0
H2096 H 0.46019 0.68787 0.41129 0.0
H2097 H 0.48201 0.69221 0.54253 0.0
H2098 H 0.49766 0.66295 0.5167 0.0
H2099 H 0.5727 0.61556 0.31823 0.0
H2100 H 0.54123 0.61736 0.33621 0.0
H2101 H 0.55346 0.63436 0.47655 0.0
H2102 H 0.58558 0.63268 0.45842 0.0
H2103 H 0.523 0.65345 0.4457 0.0
H2104 H 0.54177 0.59293 0.44487 0.0
H2105 H 0.55783 0.56417 0.41616 0.0
H2106 H 0.52751 0.55526 0.29479 0.0
H2107 H 0.51146 0.58411 0.32245 0.0
C2108 C 0.43694 0.62877 0.42983 0.0
C2109 C 0.43129 0.62148 0.38576 0.0
C2110 C 0.45524 0.6301 0.44017 0.0
C2111 C 0.46811 0.62417 0.40655 0.0
C2112 C 0.46231 0.61717 0.36267 0.0
C2113 C 0.44425 0.61586 0.35246 0.0
C2114 C 0.48767 0.62468 0.41566 0.0
C2115 C 0.49736 0.60847 0.40171 0.0
C2116 C 0.49706 0.64097 0.43357 0.0
C2117 C 0.48774 0.65856 0.44889 0.0
C2118 C 0.47721 0.66583 0.41924 0.0
C2119 C 0.46835 0.68238 0.43418 0.0
C2120 C 0.47005 0.69186 0.47862 0.0
C2121 C 0.48067 0.68483 0.50815 0.0
C2122 C 0.48954 0.66827 0.49338 0.0
C2123 C 0.56882 0.61982 0.35303 0.0
C2124 C 0.58171 0.6238 0.38693 0.0
C2125 C 0.55074 0.62085 0.36325 0.0
C2126 C 0.54489 0.62575 0.40775 0.0
C2127 C 0.55765 0.6305 0.44193 0.0
C2128 C 0.57597 0.62949 0.4316 0.0
C2129 C 0.52546 0.62476 0.41716 0.0
C2130 C 0.51584 0.64078 0.43443 0.0
C2131 C 0.51603 0.60827 0.40229 0.0
C2132 C 0.52544 0.59073 0.38574 0.0
C2133 C 0.53859 0.58488 0.41197 0.0
C2134 C 0.54768 0.56856 0.39588 0.0
C2135 C 0.54369 0.5579 0.35367 0.0
C2136 C 0.53057 0.56352 0.3275 0.0
C2137 C 0.52145 0.57985 0.34341 0.0
H2138 H 0.55076 0.54527 0.34126 0.0
H2139 H 0.46318 0.70466 0.49013 0.0
H2140 H 0.43967 0.39464 0.70106 0.0
H2141 H 0.47129 0.39282 0.68476 0.0
H2142 H 0.4602 0.37907 0.5434 0.0
H2143 H 0.42794 0.38069 0.55983 0.0
H2144 H 0.49006 0.35908 0.57036 0.0
H2145 H 0.47202 0.42072 0.58413 0.0
H2146 H 0.45623 0.44912 0.61801 0.0
H2147 H 0.48611 0.4535 0.73908 0.0
H2148 H 0.50189 0.42497 0.70619 0.0
H2149 H 0.58586 0.37995 0.56318 0.0
H2150 H 0.55372 0.37796 0.54591 0.0
H2151 H 0.5418 0.39613 0.68638 0.0
H2152 H 0.57329 0.39825 0.70339 0.0
H2153 H 0.52322 0.41521 0.63868 0.0
H2154 H 0.53735 0.35116 0.62869 0.0
H2155 H 0.55286 0.32244 0.59593 0.0
H2156 H 0.53065 0.32289 0.46727 0.0
H2157 H 0.51518 0.35175 0.49921 0.0
C2158 C 0.44384 0.39108 0.66637 0.0
C2159 C 0.43123 0.388 0.63173 0.0
C2160 C 0.46201 0.39005 0.65711 0.0
C2161 C 0.46824 0.38611 0.61286 0.0
C2162 C 0.45574 0.38221 0.57785 0.0
C2163 C 0.43732 0.38317 0.58722 0.0
C2164 C 0.48779 0.3872 0.60467 0.0
C2165 C 0.49731 0.37147 0.58432 0.0
C2166 C 0.49736 0.40331 0.62296 0.0
C2167 C 0.4881 0.42066 0.64269 0.0
C2168 C 0.47517 0.42769 0.61806 0.0
C2169 C 0.46622 0.44382 0.63709 0.0
C2170 C 0.47016 0.4531 0.68068 0.0
C2171 C 0.48309 0.4463 0.7053 0.0
C2172 C 0.49206 0.43017 0.68645 0.0
C2173 C 0.57632 0.38338 0.59021 0.0
C2174 C 0.58216 0.38936 0.63463 0.0
C2175 C 0.55796 0.38223 0.58037 0.0
C2176 C 0.54523 0.38699 0.61486 0.0
C2177 C 0.55122 0.39254 0.65906 0.0
C2178 C 0.56934 0.3937 0.66876 0.0
C2179 C 0.52561 0.38689 0.60632 0.0
C2180 C 0.51603 0.40291 0.62362 0.0
C2181 C 0.5161 0.37108 0.58518 0.0
C2182 C 0.5253 0.35371 0.56619 0.0
C2183 C 0.53589 0.3452 0.59334 0.0
C2184 C 0.54465 0.32889 0.57494 0.0
C2185 C 0.54279 0.32088 0.52952 0.0
C2186 C 0.53211 0.32913 0.50243 0.0
C2187 C 0.52334 0.34546 0.52066 0.0
H2188 H 0.54958 0.30825 0.51533 0.0
H2189 H 0.46321 0.46558 0.69537 0.0
H2190 H 0.07287 0.64541 0.18613 0.0
H2191 H 0.04128 0.64266 0.17009 0.0
H2192 H 0.05258 0.6199 0.03117 0.0
H2193 H 0.08474 0.62238 0.04711 0.0
H2194 H 0.02269 0.648 0.05187 0.0
H2195 H 0.04074 0.59099 0.08042 0.0
H2196 H 0.05665 0.57075 0.12022 0.0
H2197 H 0.02709 0.59293 0.23982 0.0
H2198 H 0.01122 0.61355 0.20094 0.0
H2199 H 0.92779 0.62292 0.04526 0.0
H2200 H 0.9601 0.62105 0.03077 0.0
H2201 H 0.97002 0.63896 0.17206 0.0
H2202 H 0.93831 0.64109 0.18665 0.0
H2203 H 0.98961 0.60815 0.13269 0.0
H2204 H 0.97513 0.66782 0.10712 0.0
H2205 H 0.95966 0.68892 0.06896 0.0
H2206 H 0.98244 0.66157 0.94353 0.0
H2207 H 0.99787 0.64012 0.98093 0.0
C2208 C 0.06882 0.63993 0.15193 0.0
C2209 C 0.08151 0.63403 0.11796 0.0
C2210 C 0.05064 0.63837 0.14286 0.0
C2211 C 0.0445 0.63098 0.09952 0.0
C2212 C 0.05701 0.62567 0.0649 0.0
C2213 C 0.07538 0.62706 0.07409 0.0
C2214 C 0.025 0.62806 0.09217 0.0
C2215 C 0.01546 0.63893 0.06849 0.0
C2216 C 0.01549 0.61641 0.1143 0.0
C2217 C 0.02486 0.60391 0.13781 0.0
C2218 C 0.03772 0.59166 0.11531 0.0
C2219 C 0.04673 0.5801 0.13769 0.0
C2220 C 0.0429 0.58057 0.18254 0.0
C2221 C 0.03004 0.59258 0.20507 0.0
C2222 C 0.02102 0.6042 0.18286 0.0
C2223 C 0.93688 0.62655 0.07312 0.0
C2224 C 0.93034 0.63221 0.11711 0.0
C2225 C 0.95535 0.62549 0.06481 0.0
C2226 C 0.96755 0.62982 0.10039 0.0
C2227 C 0.96096 0.63546 0.14406 0.0
C2228 C 0.9427 0.63676 0.15227 0.0
C2229 C 0.98722 0.62842 0.09339 0.0
C2230 C 0.99681 0.61681 0.11481 0.0
C2231 C 0.99669 0.63935 0.06911 0.0
C2232 C 0.98744 0.65221 0.04668 0.0
C2233 C 0.97669 0.66618 0.07133 0.0
C2234 C 0.96796 0.67823 0.04986 0.0
C2235 C 0.97001 0.67654 1.00382 0.0
C2236 C 0.98083 0.66283 0.97917 0.0
C2237 C 0.98957 0.65073 1.00048 0.0
H2238 H 0.96325 0.68589 0.98726 0.0
H2239 H 0.04988 0.57161 0.19981 0.0
H2240 H 0.1133 0.56827 0.16366 0.0
H2241 H 0.11458 0.5372 0.11838 0.0
H2242 H 0.15327 0.55419 0.0317 0.0
H2243 H 0.15309 0.58483 0.07935 0.0
H2244 H 0.10606 0.52148 0.04322 0.0
H2245 H 0.17868 0.52054 0.97618 0.0
H2246 H 0.20789 0.5337 1.00169 0.0
H2247 H 0.19171 0.53945 0.13848 0.0
H2248 H 0.1625 0.52611 0.1138 0.0
H2249 H 0.11259 0.44528 0.86359 0.0
H2250 H 0.1135 0.47591 0.91139 0.0
H2251 H 0.15515 0.45896 0.98996 0.0
H2252 H 0.15509 0.42872 0.94007 0.0
H2253 H 0.16244 0.49064 0.98683 0.0
H2254 H 0.10872 0.4645 0.0234 0.0
H2255 H 0.0798 0.44885 1.01037 0.0
H2256 H 0.05882 0.49281 0.95771 0.0
H2257 H 0.08772 0.5086 0.96979 0.0
C2258 C 0.12224 0.56529 0.13523 0.0
C2259 C 0.13316 0.57898 0.12522 0.0
C2260 C 0.1229 0.54749 0.10906 0.0
C2261 C 0.13421 0.543 0.07156 0.0
C2262 C 0.14482 0.5569 0.06104 0.0
C2263 C 0.14458 0.57455 0.08807 0.0
C2264 C 0.1346 0.52394 0.04321 0.0
C2265 C 0.11844 0.5148 0.0311 0.0
C2266 C 0.15068 0.51473 0.02795 0.0
C2267 C 0.16833 0.52249 0.04309 0.0
C2268 C 0.18139 0.52454 0.01169 0.0
C2269 C 0.19793 0.53204 0.02601 0.0
C2270 C 0.20163 0.53746 0.07167 0.0
C2271 C 0.18881 0.53531 0.10312 0.0
C2272 C 0.17225 0.52779 0.08898 0.0
C2273 C 0.12199 0.44814 0.89094 0.0
C2274 C 0.13366 0.43454 0.89826 0.0
C2275 C 0.12242 0.46566 0.91863 0.0
C2276 C 0.13409 0.46985 0.95536 0.0
C2277 C 0.14596 0.45626 0.96214 0.0
C2278 C 0.14585 0.43888 0.93371 0.0
C2279 C 0.1339 0.4883 0.98663 0.0
C2280 C 0.15008 0.49733 0.99916 0.0
C2281 C 0.11789 0.49703 1.00423 0.0
C2282 C 0.10044 0.48765 0.99711 0.0
C2283 C 0.09797 0.47078 1.00877 0.0
C2284 C 0.08158 0.46189 1.00158 0.0
C2285 C 0.0675 0.46982 0.98313 0.0
C2286 C 0.06976 0.48668 0.97194 0.0
C2287 C 0.08614 0.49561 0.97897 0.0
H2288 H 0.05482 0.46291 0.97759 0.0
H2289 H 0.21443 0.5433 0.08269 0.0
H2290 H 0.70392 0.90507 0.37574 0.0
H2291 H 0.73384 0.90588 0.3433 0.0
H2292 H 0.71926 0.86231 0.23277 0.0
H2293 H 0.6894 0.86178 0.26409 0.0
H2294 H 0.75442 0.85862 0.27328 0.0
H2295 H 0.71855 0.90153 0.21335 0.0
H2296 H 0.69924 0.92849 0.2208 0.0
H2297 H 0.73999 0.96207 0.29474 0.0
H2298 H 0.75945 0.93523 0.28826 0.0
H2299 H 0.8192 0.85692 0.10625 0.0
H2300 H 0.79166 0.85801 0.1492 0.0
H2301 H 0.8058 0.91122 0.22629 0.0
H2302 H 0.83304 0.91047 0.18181 0.0
H2303 H 0.77218 0.91144 0.21106 0.0
H2304 H 0.80924 0.87132 0.26838 0.0
H2305 H 0.82968 0.84553 0.26578 0.0
H2306 H 0.78884 0.80816 0.20658 0.0
H2307 H 0.76822 0.83376 0.20808 0.0
C2308 C 0.70716 0.89558 0.34474 0.0
C2309 C 0.69421 0.8834 0.32251 0.0
C2310 C 0.72425 0.89608 0.32614 0.0
C2311 C 0.72885 0.88415 0.28549 0.0
C2312 C 0.7161 0.87162 0.26414 0.0
C2313 C 0.69897 0.87139 0.28208 0.0
C2314 C 0.74664 0.885 0.26401 0.0
C2315 C 0.75827 0.8701 0.25941 0.0
C2316 C 0.752 0.90022 0.24719 0.0
C2317 C 0.74036 0.91635 0.25079 0.0
C2318 C 0.72332 0.91463 0.23155 0.0
C2319 C 0.71237 0.9299 0.23552 0.0
C2320 C 0.71836 0.94698 0.25836 0.0
C2321 C 0.73535 0.94883 0.27714 0.0
C2322 C 0.74635 0.9336 0.27331 0.0
C2323 C 0.81644 0.86888 0.1323 0.0
C2324 C 0.82845 0.88352 0.14087 0.0
C2325 C 0.80069 0.86945 0.1572 0.0
C2326 C 0.79664 0.88454 0.19196 0.0
C2327 C 0.80852 0.89935 0.19998 0.0
C2328 C 0.82418 0.89886 0.17465 0.0
C2329 C 0.77999 0.88486 0.21944 0.0
C2330 C 0.76853 0.89997 0.22523 0.0
C2331 C 0.77498 0.86999 0.23831 0.0
C2332 C 0.78721 0.85449 0.238 0.0
C2333 C 0.80463 0.85761 0.25456 0.0
C2334 C 0.81626 0.84303 0.25329 0.0
C2335 C 0.81057 0.82522 0.23595 0.0
C2336 C 0.79323 0.82196 0.21997 0.0
C2337 C 0.78156 0.83651 0.22105 0.0
H2338 H 0.8196 0.81395 0.23495 0.0
H2339 H 0.70986 0.95878 0.26139 0.0
H2340 H 0.37877 0.45855 0.64326 0.0
H2341 H 0.3785 0.48652 0.61444 0.0
H2342 H 0.36783 0.45481 0.48182 0.0
H2343 H 0.36859 0.4271 0.50982 0.0
H2344 H 0.39155 0.47827 0.47465 0.0
H2345 H 0.33541 0.48225 0.55177 0.0
H2346 H 0.31552 0.48312 0.61627 0.0
H2347 H 0.34242 0.53066 0.6896 0.0
H2348 H 0.36261 0.52993 0.6257 0.0
H2349 H 0.36889 0.55274 0.37315 0.0
H2350 H 0.36791 0.52475 0.4019 0.0
H2351 H 0.38049 0.55575 0.53401 0.0
H2352 H 0.38117 0.58347 0.50616 0.0
H2353 H 0.35552 0.53265 0.54107 0.0
H2354 H 0.41174 0.52843 0.46387 0.0
H2355 H 0.43155 0.52752 0.3992 0.0
H2356 H 0.40422 0.48031 0.32568 0.0
H2357 H 0.38409 0.48109 0.38974 0.0
C2358 C 0.37625 0.45758 0.60805 0.0
C2359 C 0.37374 0.44047 0.57905 0.0
C2360 C 0.37605 0.47361 0.59151 0.0
C2361 C 0.37302 0.47294 0.54574 0.0
C2362 C 0.37031 0.45587 0.5171 0.0
C2363 C 0.37069 0.43993 0.53339 0.0
C2364 C 0.373 0.48978 0.52696 0.0
C2365 C 0.38346 0.49005 0.48896 0.0
C2366 C 0.36278 0.50543 0.54575 0.0
C2367 C 0.35063 0.50592 0.58413 0.0
C2368 C 0.33716 0.49281 0.58177 0.0
C2369 C 0.32582 0.49329 0.6182 0.0
C2370 C 0.32774 0.50691 0.65705 0.0
C2371 C 0.34097 0.5201 0.65951 0.0
C2372 C 0.35236 0.51967 0.62319 0.0
C2373 C 0.37146 0.55358 0.40829 0.0
C2374 C 0.37511 0.57049 0.43709 0.0
C2375 C 0.37096 0.53752 0.42475 0.0
C2376 C 0.37425 0.53799 0.4703 0.0
C2377 C 0.37782 0.55488 0.49889 0.0
C2378 C 0.37826 0.57082 0.48263 0.0
C2379 C 0.37403 0.5211 0.48875 0.0
C2380 C 0.36355 0.52084 0.52672 0.0
C2381 C 0.3842 0.50544 0.46989 0.0
C2382 C 0.3963 0.50494 0.43141 0.0
C2383 C 0.40987 0.51794 0.43378 0.0
C2384 C 0.42117 0.51743 0.39726 0.0
C2385 C 0.41911 0.5039 0.35831 0.0
C2386 C 0.40578 0.49081 0.35584 0.0
C2387 C 0.39443 0.49127 0.39225 0.0
H2388 H 0.42787 0.50353 0.33008 0.0
H2389 H 0.31895 0.50726 0.68522 0.0
H2390 H 0.83738 0.14628 0.83238 0.0
H2391 H 0.80997 0.1441 0.7886 0.0
H2392 H 0.78612 0.11197 0.87369 0.0
H2393 H 0.81422 0.11276 0.91444 0.0
H2394 H 0.77401 0.0993 0.79945 0.0
H2395 H 0.77821 0.16168 0.87814 0.0
H2396 H 0.79219 0.19186 0.90241 0.0
H2397 H 0.79472 0.19734 0.76608 0.0
H2398 H 0.78093 0.1671 0.74095 0.0
H2399 H 0.68328 0.12567 0.76679 0.0
H2400 H 0.71308 0.12497 0.79827 0.0
H2401 H 0.73621 0.12729 0.67103 0.0
H2402 H 0.70626 0.12741 0.63865 0.0
H2403 H 0.74872 0.15469 0.76109 0.0
H2404 H 0.74158 0.09108 0.68695 0.0
H2405 H 0.72508 0.0621 0.67029 0.0
H2406 H 0.72519 0.06086 0.80964 0.0
H2407 H 0.74146 0.09001 0.8272 0.0
C2408 C 0.8263 0.13861 0.84129 0.0
C2409 C 0.8279 0.12964 0.87664 0.0
C2410 C 0.81047 0.13754 0.81662 0.0
C2411 C 0.79549 0.12828 0.8282 0.0
C2412 C 0.79727 0.11923 0.86362 0.0
C2413 C 0.81333 0.11974 0.88719 0.0
C2414 C 0.77804 0.12801 0.80379 0.0
C2415 C 0.76853 0.11154 0.79163 0.0
C2416 C 0.77061 0.1438 0.7926 0.0
C2417 C 0.77871 0.16206 0.80765 0.0
C2418 C 0.78183 0.16929 0.85333 0.0
C2419 C 0.78972 0.18641 0.86723 0.0
C2420 C 0.79439 0.19649 0.83579 0.0
C2421 C 0.79112 0.18951 0.79039 0.0
C2422 C 0.78326 0.17239 0.7763 0.0
C2423 C 0.69468 0.12594 0.7453 0.0
C2424 C 0.69234 0.12658 0.70008 0.0
C2425 C 0.71173 0.12553 0.76343 0.0
C2426 C 0.72691 0.12612 0.73712 0.0
C2427 C 0.72469 0.12684 0.69199 0.0
C2428 C 0.70757 0.12681 0.67347 0.0
C2429 C 0.74498 0.12613 0.7573 0.0
C2430 C 0.75445 0.14253 0.76881 0.0
C2431 C 0.75213 0.11046 0.76902 0.0
C2432 C 0.74258 0.09281 0.75842 0.0
C2433 C 0.73795 0.08471 0.71408 0.0
C2434 C 0.72867 0.06824 0.70447 0.0
C2435 C 0.72405 0.05967 0.7389 0.0
C2436 C 0.72876 0.06753 0.783 0.0
C2437 C 0.73802 0.08401 0.7928 0.0
H2438 H 0.71685 0.04692 0.73139 0.0
H2439 H 0.80052 0.20972 0.84661 0.0
H2440 H 0.89846 0.56788 0.15979 0.0
H2441 H 0.89804 0.5373 0.11158 0.0
H2442 H 0.85742 0.55431 0.03027 0.0
H2443 H 0.85696 0.58446 0.08046 0.0
H2444 H 0.84982 0.52274 0.03277 0.0
H2445 H 0.90444 0.54856 1.00039 0.0
H2446 H 0.93346 0.56385 0.01567 0.0
H2447 H 0.95296 0.51948 0.06909 0.0
H2448 H 0.92395 0.50404 0.05476 0.0
H2449 H 0.89947 0.44487 0.85772 0.0
H2450 H 0.89843 0.4759 0.90359 0.0
H2451 H 0.85867 0.45918 0.98801 0.0
H2452 H 0.85869 0.42865 0.93991 0.0
H2453 H 0.90641 0.49153 0.97973 0.0
H2454 H 0.83316 0.49286 0.04219 0.0
H2455 H 0.80402 0.48011 0.01478 0.0
H2456 H 0.82153 0.47469 0.87909 0.0
H2457 H 0.85068 0.48762 0.90567 0.0
C2458 C 0.88938 0.56504 0.13175 0.0
C2459 C 0.87785 0.57865 0.12378 0.0
C2460 C 0.88925 0.54755 0.10381 0.0
C2461 C 0.878 0.54337 0.06621 0.0
C2462 C 0.86629 0.55698 0.05875 0.0
C2463 C 0.8661 0.57432 0.08738 0.0
C2464 C 0.87838 0.5249 0.0349 0.0
C2465 C 0.86224 0.51599 0.02122 0.0
C2466 C 0.89447 0.51604 0.01833 0.0
C2467 C 0.91196 0.52523 0.0269 0.0
C2468 C 0.91488 0.54212 0.01568 0.0
C2469 C 0.93132 0.55081 0.02414 0.0
C2470 C 0.94503 0.54266 0.04344 0.0
C2471 C 0.94232 0.52578 0.05421 0.0
C2472 C 0.92588 0.51705 0.0459 0.0
C2473 C 0.89036 0.44791 0.88577 0.0
C2474 C 0.87909 0.43432 0.89499 0.0
C2475 C 0.88983 0.46568 0.9123 0.0
C2476 C 0.87826 0.47025 0.9493 0.0
C2477 C 0.86732 0.45643 0.95906 0.0
C2478 C 0.86747 0.43883 0.93174 0.0
C2479 C 0.87785 0.48929 0.97786 0.0
C2480 C 0.89398 0.4983 0.99115 0.0
C2481 C 0.86174 0.49862 0.99224 0.0
C2482 C 0.84416 0.49104 0.97596 0.0
C2483 C 0.83076 0.48902 1.00651 0.0
C2484 C 0.81425 0.48174 0.99112 0.0
C2485 C 0.81095 0.47654 0.94523 0.0
C2486 C 0.82413 0.47867 0.91462 0.0
C2487 C 0.84065 0.48595 0.92983 0.0
H2488 H 0.79817 0.47089 0.93338 0.0
H2489 H 0.95775 0.54941 0.04996 0.0
H2490 H 0.18384 0.10267 0.86341 0.0
H2491 H 0.21212 0.10124 0.82287 0.0
H2492 H 0.21411 0.15992 0.85187 0.0
H2493 H 0.18645 0.16129 0.89453 0.0
H2494 H 0.2247 0.10964 0.75411 0.0
H2495 H 0.25526 0.1762 0.85854 0.0
H2496 H 0.25404 0.19496 0.93544 0.0
H2497 H 0.2388 0.14812 0.98494 0.0
H2498 H 0.24014 0.12905 0.90844 0.0
H2499 H 0.30493 0.12778 0.6438 0.0
H2500 H 0.27531 0.12849 0.67803 0.0
H2501 H 0.29943 0.12473 0.8033 0.0
H2502 H 0.32878 0.12509 0.77002 0.0
H2503 H 0.27556 0.14724 0.82342 0.0
H2504 H 0.27564 0.08796 0.72657 0.0
H2505 H 0.27835 0.06527 0.65531 0.0
H2506 H 0.23523 0.0906 0.60042 0.0
H2507 H 0.23241 0.11359 0.6712 0.0
C2508 C 0.19039 0.11525 0.86126 0.0
C2509 C 0.18304 0.13209 0.8828 0.0
C2510 C 0.20656 0.11444 0.83781 0.0
C2511 C 0.21569 0.13046 0.83479 0.0
C2512 C 0.20783 0.1473 0.85468 0.0
C2513 C 0.19189 0.14809 0.87894 0.0
C2514 C 0.23349 0.12953 0.81177 0.0
C2515 C 0.2358 0.11789 0.76937 0.0
C2516 C 0.24829 0.13994 0.83153 0.0
C2517 C 0.24762 0.15126 0.87771 0.0
C2518 C 0.25171 0.16991 0.88587 0.0
C2519 C 0.25098 0.18059 0.92937 0.0
C2520 C 0.24629 0.17275 0.96503 0.0
C2521 C 0.24237 0.15419 0.95728 0.0
C2522 C 0.2431 0.14344 0.91385 0.0
C2523 C 0.30385 0.12699 0.67855 0.0
C2524 C 0.31927 0.12642 0.70411 0.0
C2525 C 0.28686 0.12731 0.69819 0.0
C2526 C 0.28486 0.12652 0.74353 0.0
C2527 C 0.30035 0.12554 0.76854 0.0
C2528 C 0.31724 0.12565 0.7493 0.0
C2529 C 0.26688 0.12726 0.76575 0.0
C2530 C 0.2645 0.13897 0.80801 0.0
C2531 C 0.25227 0.11637 0.7466 0.0
C2532 C 0.25395 0.10261 0.704 0.0
C2533 C 0.26683 0.08877 0.69918 0.0
C2534 C 0.26837 0.07584 0.6589 0.0
C2535 C 0.25701 0.07653 0.62331 0.0
C2536 C 0.24404 0.09011 0.62798 0.0
C2537 C 0.24246 0.10308 0.66817 0.0
H2538 H 0.25822 0.06651 0.59216 0.0
H2539 H 0.24572 0.18105 0.99867 0.0
H2540 H 0.64647 0.58467 0.50651 0.0
H2541 H 0.64698 0.55708 0.53522 0.0
H2542 H 0.63304 0.52535 0.4049 0.0
H2543 H 0.63252 0.55325 0.37542 0.0
H2544 H 0.61277 0.51634 0.47345 0.0
H2545 H 0.67447 0.52312 0.44316 0.0
H2546 H 0.70306 0.5393 0.44587 0.0
H2547 H 0.70337 0.54819 0.58911 0.0
H2548 H 0.67464 0.53228 0.58731 0.0
H2549 H 0.62967 0.42982 0.51521 0.0
H2550 H 0.63025 0.45759 0.48776 0.0
H2551 H 0.64596 0.48795 0.61809 0.0
H2552 H 0.64555 0.45974 0.64633 0.0
H2553 H 0.66531 0.498 0.55073 0.0
H2554 H 0.60391 0.49138 0.58179 0.0
H2555 H 0.57518 0.47552 0.58007 0.0
H2556 H 0.57402 0.46682 0.43689 0.0
H2557 H 0.60288 0.48241 0.43769 0.0
C2558 C 0.6436 0.57186 0.48356 0.0
C2559 C 0.63945 0.57129 0.4384 0.0
C2560 C 0.64397 0.55601 0.50019 0.0
C2561 C 0.64018 0.53902 0.47234 0.0
C2562 C 0.63607 0.53828 0.42713 0.0
C2563 C 0.63587 0.55423 0.4102 0.0
C2564 C 0.64012 0.52227 0.49121 0.0
C2565 C 0.62436 0.51216 0.48965 0.0
C2566 C 0.65502 0.5171 0.51389 0.0
C2567 C 0.67231 0.52665 0.51511 0.0
C2568 C 0.68056 0.52866 0.47527 0.0
C2569 C 0.6968 0.53776 0.47663 0.0
C2570 C 0.70501 0.54481 0.51764 0.0
C2571 C 0.69699 0.54274 0.55737 0.0
C2572 C 0.68074 0.53366 0.55619 0.0
C2573 C 0.63326 0.44231 0.53847 0.0
C2574 C 0.63755 0.44237 0.5833 0.0
C2575 C 0.63349 0.45831 0.52253 0.0
C2576 C 0.63793 0.47502 0.55078 0.0
C2577 C 0.64241 0.47525 0.59555 0.0
C2578 C 0.64211 0.45911 0.61175 0.0
C2579 C 0.63799 0.492 0.53278 0.0
C2580 C 0.65372 0.50217 0.53454 0.0
C2581 C 0.62304 0.49728 0.51044 0.0
C2582 C 0.60565 0.48793 0.50978 0.0
C2583 C 0.5976 0.48596 0.5499 0.0
C2584 C 0.58128 0.47704 0.5491 0.0
C2585 C 0.5728 0.47013 0.50839 0.0
C2586 C 0.58061 0.47217 0.4684 0.0
C2587 C 0.59695 0.48106 0.46901 0.0
H2588 H 0.56016 0.46323 0.50784 0.0
H2589 H 0.71759 0.55185 0.51862 0.0
H2590 H 0.32545 0.86488 0.25971 0.0
H2591 H 0.29614 0.8661 0.22744 0.0
H2592 H 0.27776 0.90092 0.35026 0.0
H2593 H 0.30736 0.89941 0.3836 0.0
H2594 H 0.25207 0.87676 0.31473 0.0
H2595 H 0.28869 0.91841 0.25784 0.0
H2596 H 0.31543 0.92813 0.22278 0.0
H2597 H 0.30561 0.88743 0.10319 0.0
H2598 H 0.27893 0.87729 0.13775 0.0
H2599 H 0.17938 0.90949 0.18879 0.0
H2600 H 0.2069 0.90992 0.23228 0.0
H2601 H 0.22276 0.85894 0.14711 0.0
H2602 H 0.19491 0.8579 0.10522 0.0
H2603 H 0.24879 0.89394 0.16774 0.0
H2604 H 0.21394 0.8507 0.2271 0.0
H2605 H 0.18797 0.83997 0.26303 0.0
H2606 H 0.1948 0.88361 0.37832 0.0
H2607 H 0.22056 0.8949 0.34247 0.0
C2608 C 0.31524 0.87282 0.28021 0.0
C2609 C 0.31896 0.88223 0.32431 0.0
C2610 C 0.29839 0.87355 0.26146 0.0
C2611 C 0.28469 0.88398 0.28577 0.0
C2612 C 0.28808 0.89288 0.33049 0.0
C2613 C 0.30504 0.89202 0.34959 0.0
C2614 C 0.26712 0.88566 0.26369 0.0
C2615 C 0.25137 0.88084 0.28301 0.0
C2616 C 0.26602 0.89071 0.22177 0.0
C2617 C 0.28186 0.89702 0.20052 0.0
C2618 C 0.29227 0.91148 0.22414 0.0
C2619 C 0.30742 0.91706 0.20435 0.0
C2620 C 0.31224 0.90838 0.16082 0.0
C2621 C 0.30187 0.89414 0.13691 0.0
C2622 C 0.28671 0.88849 0.15656 0.0
C2623 C 0.1886 0.89824 0.17976 0.0
C2624 C 0.18477 0.88352 0.14391 0.0
C2625 C 0.20436 0.89853 0.20457 0.0
C2626 C 0.21686 0.88437 0.19328 0.0
C2627 C 0.21328 0.86994 0.15673 0.0
C2628 C 0.19734 0.86939 0.13275 0.0
C2629 C 0.2339 0.88481 0.21854 0.0
C2630 C 0.24952 0.89008 0.19974 0.0
C2631 C 0.23485 0.88019 0.26082 0.0
C2632 C 0.21899 0.87384 0.28174 0.0
C2633 C 0.2097 0.85823 0.25971 0.0
C2634 C 0.19508 0.85198 0.28017 0.0
C2635 C 0.18974 0.8611 0.32293 0.0
C2636 C 0.19895 0.87656 0.34519 0.0
C2637 C 0.21353 0.88292 0.32476 0.0
H2638 H 0.17848 0.85617 0.3388 0.0
H2639 H 0.32399 0.9127 0.14559 0.0
H2640 H 0.60362 0.93767 0.39013 0.0
H2641 H 0.6033 0.96814 0.43889 0.0
H2642 H 0.66018 0.96546 0.45462 0.0
H2643 H 0.66024 0.93449 0.40837 0.0
H2644 H 0.64865 0.9812 0.52866 0.0
H2645 H 0.63694 0.99161 0.38348 0.0
H2646 H 0.62182 0.98811 0.31078 0.0
H2647 H 0.57298 0.00703 0.37785 0.0
H2648 H 0.58776 0.01043 0.451 0.0
H2649 H 0.6596 0.07819 0.60482 0.0
H2650 H 0.65975 0.04727 0.55756 0.0
H2651 H 0.60345 0.0429 0.57922 0.0
H2652 H 0.6033 0.07366 0.62722 0.0
H2653 H 0.61492 0.03146 0.48669 0.0
H2654 H 0.62951 0.0215 0.63339 0.0
H2655 H 0.6472 0.02674 0.70268 0.0
H2656 H 0.69431 0.00881 0.62626 0.0
H2657 H 0.67692 1.00368 0.55643 0.0
C2658 C 0.61604 0.94363 0.40399 0.0
C2659 C 0.63197 0.93376 0.39511 0.0
C2660 C 0.6159 0.96117 0.43168 0.0
C2661 C 0.63179 0.96955 0.44993 0.0
C2662 C 0.6477 0.95952 0.44117 0.0
C2663 C 0.64776 0.9418 0.41447 0.0
C2664 C 0.63184 0.98857 0.47847 0.0
C2665 C 0.64144 0.99216 0.51888 0.0
C2666 C 0.62236 1.00312 0.46662 0.0
C2667 C 0.61342 1.00109 0.42271 0.0
C2668 C 0.62295 0.9949 0.38272 0.0
C2669 C 0.61444 0.99295 0.34144 0.0
C2670 C 0.59644 0.99729 0.3397 0.0
C2671 C 0.58692 1.00364 0.37925 0.0
C2672 C 0.59535 1.0056 0.42063 0.0
C2673 C 0.64727 0.0706 0.59964 0.0
C2674 C 0.63145 0.07832 0.61998 0.0
C2675 C 0.64737 0.05293 0.57265 0.0
C2676 C 0.63162 0.0427 0.56492 0.0
C2677 C 0.61577 0.0505 0.58469 0.0
C2678 C 0.61571 0.06805 0.61227 0.0
C2679 C 0.63166 0.02387 0.53629 0.0
C2680 C 0.6221 0.02038 0.49605 0.0
C2681 C 0.64156 0.00957 0.54765 0.0
C2682 C 0.65194 0.01237 0.58967 0.0
C2683 C 0.64366 0.01879 0.63134 0.0
C2684 C 0.65363 0.02172 0.67071 0.0
C2685 C 0.67188 0.01816 0.66887 0.0
C2686 C 0.68018 0.01159 0.62764 0.0
C2687 C 0.67027 0.00864 0.58816 0.0
H2688 H 0.67958 0.02046 0.69938 0.0
H2689 H 0.58988 0.99578 0.30771 0.0
H2690 H 0.20702 0.38179 0.87484 0.0
H2691 H 0.23656 0.38135 0.84037 0.0
H2692 H 0.21236 0.38981 0.719 0.0
H2693 H 0.18305 0.38904 0.7523 0.0
H2694 H 0.23554 0.36723 0.69407 0.0
H2695 H 0.23747 0.42397 0.80156 0.0
H2696 H 0.23562 0.44456 0.87615 0.0
H2697 H 0.27799 0.4154 0.92279 0.0
H2698 H 0.27994 0.39449 0.84861 0.0
H2699 H 0.32884 0.40996 0.66091 0.0
H2700 H 0.30055 0.4114 0.70149 0.0
H2701 H 0.29642 0.35288 0.66344 0.0
H2702 H 0.32415 0.35156 0.62113 0.0
H2703 H 0.28768 0.40111 0.76833 0.0
H2704 H 0.2546 0.3384 0.65284 0.0
H2705 H 0.25513 0.32209 0.57362 0.0
H2706 H 0.27241 0.37076 0.53514 0.0
H2707 H 0.27177 0.3874 0.61403 0.0
C2708 C 0.20808 0.38366 0.84091 0.0
C2709 C 0.19265 0.38541 0.81635 0.0
C2710 C 0.22502 0.38352 0.82116 0.0
C2711 C 0.22698 0.38573 0.77685 0.0
C2712 C 0.21148 0.3879 0.75293 0.0
C2713 C 0.19462 0.38755 0.77216 0.0
C2714 C 0.2449 0.38518 0.75444 0.0
C2715 C 0.24687 0.3747 0.71058 0.0
C2716 C 0.25988 0.39504 0.77505 0.0
C2717 C 0.25872 0.40756 0.81969 0.0
C2718 C 0.2463 0.42187 0.82783 0.0
C2719 C 0.24525 0.43361 0.87001 0.0
C2720 C 0.25664 0.43125 0.90422 0.0
C2721 C 0.26915 0.41719 0.89628 0.0
C2722 C 0.27024 0.4054 0.85417 0.0
C2723 C 0.32183 0.39742 0.66111 0.0
C2724 C 0.32861 0.38067 0.63723 0.0
C2725 C 0.30566 0.39823 0.68455 0.0
C2726 C 0.29595 0.38229 0.68507 0.0
C2727 C 0.3032 0.36548 0.66268 0.0
C2728 C 0.31916 0.36471 0.63859 0.0
C2729 C 0.27817 0.38324 0.70811 0.0
C2730 C 0.27629 0.39369 0.75201 0.0
C2731 C 0.26303 0.37394 0.68696 0.0
C2732 C 0.26332 0.36407 0.63939 0.0
C2733 C 0.25846 0.34563 0.62744 0.0
C2734 C 0.25879 0.33633 0.58261 0.0
C2735 C 0.26386 0.34537 0.54939 0.0
C2736 C 0.26855 0.36375 0.56091 0.0
C2737 C 0.26822 0.37312 0.60568 0.0
H2738 H 0.26412 0.33814 0.51471 0.0
H2739 H 0.25581 0.44036 0.93685 0.0
H2740 H 0.85921 0.93132 0.02737 0.0
H2741 H 0.85872 0.9589 0.99847 0.0
H2742 H 0.88646 0.98775 0.11586 0.0
H2743 H 0.88625 0.96004 0.14608 0.0
H2744 H 0.86364 0.00989 0.09216 0.0
H2745 H 0.90779 0.97035 1.01086 0.0
H2746 H 0.91973 0.94152 0.96613 0.0
H2747 H 0.88242 0.94352 0.86154 0.0
H2748 H 0.87007 0.97225 0.90593 0.0
H2749 H 0.89151 0.08255 0.99784 0.0
H2750 H 0.89082 0.05543 0.02836 0.0
H2751 H 0.86098 0.02722 0.91399 0.0
H2752 H 0.86206 0.05451 0.88224 0.0
H2753 H 0.88492 1.00493 0.9366 0.0
H2754 H 0.84143 0.04564 0.01989 0.0
H2755 H 0.83071 0.0748 0.06569 0.0
H2756 H 0.86845 0.07104 0.16812 0.0
H2757 H 0.87959 0.04196 0.12264 0.0
C2758 C 0.8651 0.94356 0.04736 0.0
C2759 C 0.87293 0.94338 0.08895 0.0
C2760 C 0.86493 0.95936 0.03053 0.0
C2761 C 0.87306 0.97542 0.05407 0.0
C2762 C 0.88023 0.97555 0.09664 0.0
C2763 C 0.8801 0.95971 0.11401 0.0
C2764 C 0.87427 0.99178 0.03362 0.0
C2765 C 0.86854 0.00881 0.05838 0.0
C2766 C 0.88034 0.99051 0.98909 0.0
C2767 C 0.88791 0.97338 0.96192 0.0
C2768 C 0.90206 0.9646 0.97842 0.0
C2769 C 0.9089 0.94828 0.95314 0.0
C2770 C 0.90181 0.94068 0.91109 0.0
C2771 C 0.88789 0.94942 0.89415 0.0
C2772 C 0.88097 0.96573 0.91935 0.0
C2773 C 0.88478 0.07061 0.97888 0.0
C2774 C 0.87666 0.07088 0.93759 0.0
C2775 C 0.88431 0.05505 0.99668 0.0
C2776 C 0.87542 0.03929 0.97433 0.0
C2777 C 0.8678 0.03923 0.93228 0.0
C2778 C 0.86843 0.05484 0.91406 0.0
C2779 C 0.8742 0.02301 0.99504 0.0
C2780 C 0.87997 1.006 0.97034 0.0
C2781 C 0.86835 0.02436 0.03979 0.0
C2782 C 0.86146 0.04169 0.06761 0.0
C2783 C 0.84752 0.05107 0.05206 0.0
C2784 C 0.84136 0.06759 0.07797 0.0
C2785 C 0.84893 0.07479 0.1197 0.0
C2786 C 0.86262 0.06545 0.13573 0.0
C2787 C 0.86885 0.04894 0.10991 0.0
H2788 H 0.84413 0.08758 0.13961 0.0
H2789 H 0.90716 0.92806 0.89163 0.0
H2790 H 0.2061 0.62606 0.14096 0.0
H2791 H 0.23602 0.62626 0.17293 0.0
H2792 H 0.21308 0.63058 0.30397 0.0
H2793 H 0.18346 0.63115 0.27266 0.0
H2794 H 0.23888 0.65204 0.31376 0.0
H2795 H 0.23243 0.58973 0.23634 0.0
H2796 H 0.22681 0.56449 0.17143 0.0
H2797 H 0.27156 0.58095 0.10277 0.0
H2798 H 0.27729 0.60646 0.16701 0.0
H2799 H 0.3256 0.60189 0.3651 0.0
H2800 H 0.29742 0.60126 0.32468 0.0
H2801 H 0.30155 0.65914 0.33405 0.0
H2802 H 0.3289 0.65991 0.37734 0.0
H2803 H 0.28536 0.60662 0.2527 0.0
H2804 H 0.26318 0.67961 0.33507 0.0
H2805 H 0.26757 0.70242 0.40555 0.0
H2806 H 0.27701 0.65973 0.47517 0.0
H2807 H 0.27255 0.63669 0.40516 0.0
C2808 C 0.20747 0.62698 0.17654 0.0
C2809 C 0.19231 0.62863 0.20414 0.0
C2810 C 0.22462 0.62702 0.19487 0.0
C2811 C 0.22701 0.6283 0.2411 0.0
C2812 C 0.21181 0.62971 0.26837 0.0
C2813 C 0.19477 0.62997 0.25027 0.0
C2814 C 0.24517 0.62857 0.26171 0.0
C2815 C 0.249 0.64207 0.30019 0.0
C2816 C 0.25851 0.61552 0.24483 0.0
C2817 C 0.25517 0.60012 0.2063 0.0
C2818 C 0.241 0.58804 0.20727 0.0
C2819 C 0.2378 0.57368 0.17062 0.0
C2820 C 0.24879 0.57115 0.13296 0.0
C2821 C 0.26304 0.58295 0.13193 0.0
C2822 C 0.26627 0.59736 0.16846 0.0
C2823 C 0.32039 0.61447 0.35865 0.0
C2824 C 0.32926 0.63099 0.37516 0.0
C2825 C 0.3043 0.61411 0.33527 0.0
C2826 C 0.29687 0.63022 0.32702 0.0
C2827 C 0.30642 0.64657 0.34126 0.0
C2828 C 0.32218 0.64701 0.36582 0.0
C2829 C 0.27898 0.63 0.30493 0.0
C2830 C 0.27523 0.61658 0.26614 0.0
C2831 C 0.26543 0.64275 0.32236 0.0
C2832 C 0.26767 0.65646 0.36484 0.0
C2833 C 0.26609 0.67511 0.36549 0.0
C2834 C 0.26863 0.68807 0.40532 0.0
C2835 C 0.27261 0.68253 0.44478 0.0
C2836 C 0.27398 0.66401 0.44455 0.0
C2837 C 0.27146 0.65099 0.40481 0.0
H2838 H 0.27461 0.69258 0.47555 0.0
H2839 H 0.2463 0.56003 0.10462 0.0
H2840 H 0.36031 0.92775 0.44078 0.0
H2841 H 0.36082 0.95827 0.48854 0.0
H2842 H 0.39914 0.97478 0.40023 0.0
H2843 H 0.39989 0.94362 0.35493 0.0
H2844 H 0.40779 0.99116 0.47503 0.0
H2845 H 0.35113 0.98607 0.40583 0.0
H2846 H 0.3219 0.97264 0.38173 0.0
H2847 H 0.30622 0.9782 0.51883 0.0
H2848 H 0.33545 0.99146 0.54376 0.0
H2849 H 0.35751 0.08312 0.58075 0.0
H2850 H 0.35804 0.05311 0.52996 0.0
H2851 H 0.40038 0.03666 0.60735 0.0
H2852 H 0.40066 0.06712 0.65616 0.0
H2853 H 0.35131 0.02142 0.53287 0.0
H2854 H 0.42638 1.00422 0.54781 0.0
H2855 H 0.45509 0.02038 0.5594 0.0
H2856 H 0.43315 0.06426 0.5081 0.0
H2857 H 0.40441 0.04825 0.49554 0.0
C2858 C 0.36901 0.93783 0.43188 0.0
C2859 C 0.38016 0.93319 0.39425 0.0
C2860 C 0.3691 0.95546 0.4589 0.0
C2861 C 0.37969 0.96925 0.44783 0.0
C2862 C 0.39082 0.96458 0.40996 0.0
C2863 C 0.39117 0.94674 0.38378 0.0
C2864 C 0.37928 0.98839 0.47582 0.0
C2865 C 0.39539 0.99772 0.48748 0.0
C2866 C 0.36317 0.99748 0.49143 0.0
C2867 C 0.34554 0.98961 0.47664 0.0
C2868 C 0.34148 0.98433 0.43083 0.0
C2869 C 0.32492 0.97676 0.41702 0.0
C2870 C 0.31223 0.97453 0.44872 0.0
C2871 C 0.31607 0.97992 0.49431 0.0
C2872 C 0.33263 0.98748 0.50831 0.0
C2873 C 0.36703 0.07314 0.58667 0.0
C2874 C 0.37919 0.07758 0.62217 0.0
C2875 C 0.36727 0.05588 0.5577 0.0
C2876 C 0.37947 0.04247 0.56393 0.0
C2877 C 0.39119 0.04677 0.60055 0.0
C2878 C 0.39125 0.06418 0.62883 0.0
C2879 C 0.37981 0.02407 0.53245 0.0
C2880 C 0.3637 0.01487 0.52024 0.0
C2881 C 0.39585 0.01551 0.5144 0.0
C2882 C 0.41319 0.0251 0.52119 0.0
C2883 C 0.42771 0.01727 0.5388 0.0
C2884 C 0.44399 0.02642 0.54556 0.0
C2885 C 0.44593 0.04336 0.53462 0.0
C2886 C 0.43162 0.05116 0.51669 0.0
C2887 C 0.41533 0.04206 0.50977 0.0
H2888 H 0.45852 0.05043 0.53996 0.0
H2889 H 0.29942 0.96865 0.43797 0.0
H2890 H 0.80919 0.60769 0.14832 0.0
H2891 H 0.77981 0.60649 0.18268 0.0
H2892 H 0.79443 0.65151 0.28998 0.0
H2893 H 0.82377 0.65224 0.25692 0.0
H2894 H 0.77923 0.62849 0.3254 0.0
H2895 H 0.76397 0.6541 0.2002 0.0
H2896 H 0.76213 0.65563 0.12082 0.0
H2897 H 0.73237 0.6058 0.09181 0.0
H2898 H 0.73424 0.60384 0.17096 0.0
H2899 H 0.69396 0.6571 0.41626 0.0
H2900 H 0.72194 0.65541 0.37447 0.0
H2901 H 0.70765 0.60217 0.2983 0.0
H2902 H 0.67981 0.60355 0.34101 0.0
H2903 H 0.72186 0.62692 0.24534 0.0
H2904 H 0.73647 0.60306 0.3739 0.0
H2905 H 0.73768 0.60341 0.45445 0.0
H2906 H 0.76839 0.65261 0.47775 0.0
H2907 H 0.76714 0.65271 0.39738 0.0
C2908 C 0.80605 0.61741 0.17903 0.0
C2909 C 0.81892 0.63002 0.19984 0.0
C2910 C 0.78918 0.61677 0.19868 0.0
C2911 C 0.78465 0.62899 0.23909 0.0
C2912 C 0.79744 0.6418 0.25913 0.0
C2913 C 0.81429 0.64225 0.23998 0.0
C2914 C 0.76698 0.62825 0.26173 0.0
C2915 C 0.76675 0.62837 0.30773 0.0
C2916 C 0.75048 0.62763 0.23901 0.0
C2917 C 0.74944 0.62871 0.19139 0.0
C2918 C 0.75717 0.64338 0.17682 0.0
C2919 C 0.7561 0.64434 0.13188 0.0
C2920 C 0.74719 0.63079 0.10126 0.0
C2921 C 0.7393 0.61627 0.11554 0.0
C2922 C 0.74036 0.61523 0.16044 0.0
C2923 C 0.69676 0.645 0.39068 0.0
C2924 C 0.6846 0.63048 0.38191 0.0
C2925 C 0.71278 0.64407 0.36674 0.0
C2926 C 0.71696 0.62866 0.33314 0.0
C2927 C 0.70472 0.61423 0.32386 0.0
C2928 C 0.68881 0.61504 0.34834 0.0
C2929 C 0.73431 0.62753 0.30874 0.0
C2930 C 0.73444 0.627 0.26263 0.0
C2931 C 0.75073 0.62804 0.33138 0.0
C2932 C 0.75156 0.62798 0.37968 0.0
C2933 C 0.74335 0.61404 0.39626 0.0
C2934 C 0.74407 0.61414 0.44187 0.0
C2935 C 0.75307 0.62805 0.47122 0.0
C2936 C 0.76141 0.64186 0.45498 0.0
C2937 C 0.76071 0.64184 0.4094 0.0
H2938 H 0.75361 0.6281 0.50652 0.0
H2939 H 0.74637 0.63156 0.06649 0.0
H2940 H 0.13582 0.05366 0.87998 0.0
H2941 H 0.13653 0.02586 0.90962 0.0
H2942 H 0.14329 0.0584 0.04308 0.0
H2943 H 0.14272 0.08592 0.01412 0.0
H2944 H 0.16445 0.02913 0.03096 0.0
H2945 H 0.10305 0.0409 1.0063 0.0
H2946 H 0.0774 0.04658 0.96154 0.0
H2947 H 0.08462 0.99426 0.87315 0.0
H2948 H 0.11062 0.98844 0.91694 0.0
H2949 H 0.14203 0.96062 0.1529 0.0
H2950 H 0.14272 0.98868 0.12434 0.0
H2951 H 0.13342 0.9573 0.99074 0.0
H2952 H 0.13242 0.92963 0.01859 0.0
H2953 H 0.11356 0.98634 1.00377 0.0
H2954 H 0.17526 0.97468 0.02762 0.0
H2955 H 0.20142 0.96932 0.07135 0.0
H2956 H 0.19369 0.02127 0.16091 0.0
H2957 H 0.16733 0.02684 0.11801 0.0
C2958 C 0.13759 0.05488 0.91556 0.0
C2959 C 0.13909 0.07214 0.94448 0.0
C2960 C 0.13792 0.03896 0.93257 0.0
C2961 C 0.13981 0.03995 0.97883 0.0
C2962 C 0.14183 0.05714 1.00737 0.0
C2963 C 0.1414 0.07296 0.99057 0.0
C2964 C 0.13918 0.0233 0.9981 0.0
C2965 C 0.15323 0.01987 0.02531 0.0
C2966 C 0.12468 0.01101 0.99056 0.0
C2967 C 0.1089 0.01432 0.9646 0.0
C2968 C 0.09925 0.03066 0.97713 0.0
C2969 C 0.08463 0.0339 0.95194 0.0
C2970 C 0.07938 0.02079 0.91444 0.0
C2971 C 0.08872 1.0044 0.90216 0.0
C2972 C 0.10341 1.00113 0.92714 0.0
C2973 C 0.14012 0.95972 0.11749 0.0
C2974 C 0.13723 0.94271 0.08829 0.0
C2975 C 0.14059 0.97579 0.10107 0.0
C2976 C 0.13826 0.97521 0.0551 0.0
C2977 C 0.13522 0.95827 0.02625 0.0
C2978 C 0.13474 0.94233 0.04246 0.0
C2979 C 0.13892 0.99204 0.03642 0.0
C2980 C 0.12482 0.99555 1.0094 0.0
C2981 C 0.15339 1.00438 0.04411 0.0
C2982 C 0.16922 1.00108 0.06991 0.0
C2983 C 0.17906 0.98489 0.05685 0.0
C2984 C 0.19393 0.98183 0.08144 0.0
C2985 C 0.19918 0.99492 0.11896 0.0
C2986 C 0.18959 0.01113 0.13189 0.0
C2987 C 0.17469 0.01425 0.10744 0.0
H2988 H 0.2107 0.99253 0.13795 0.0
H2989 H 0.06807 0.02332 0.89491 0.0
H2990 H 0.68003 0.40968 0.68092 0.0
H2991 H 0.70745 0.41073 0.7243 0.0
H2992 H 0.72327 0.3589 0.64234 0.0
H2993 H 0.69536 0.35734 0.60101 0.0
H2994 H 0.73185 0.35823 0.72093 0.0
H2995 H 0.74126 0.4034 0.63454 0.0
H2996 H 0.73452 0.43088 0.60634 0.0
H2997 H 0.73618 0.46346 0.74023 0.0
H2998 H 0.74272 0.43612 0.76929 0.0
H2999 H 0.82496 0.36232 0.75962 0.0
H3000 H 0.79543 0.36325 0.72744 0.0
H3001 H 0.78031 0.40644 0.83855 0.0
H3002 H 0.81001 0.40543 0.87158 0.0
H3003 H 0.77069 0.41272 0.752 0.0
H3004 H 0.76401 0.36625 0.8356 0.0
H3005 H 0.77229 0.33823 0.85964 0.0
H3006 H 0.76712 0.30738 0.72465 0.0
H3007 H 0.75907 0.33528 0.69967 0.0
C3008 C 0.68931 0.39846 0.67239 0.0
C3009 C 0.6854 0.38337 0.63764 0.0
C3010 C 0.70516 0.39915 0.69695 0.0
C3011 C 0.71782 0.38502 0.6865 0.0
C3012 C 0.71388 0.37 0.65151 0.0
C3013 C 0.6979 0.36915 0.6276 0.0
C3014 C 0.735 0.38565 0.71202 0.0
C3015 C 0.74036 0.37013 0.72712 0.0
C3016 C 0.74617 0.40124 0.7215 0.0
C3017 C 0.74228 0.41769 0.70412 0.0
C3018 C 0.74006 0.41641 0.65799 0.0
C3019 C 0.7363 0.43196 0.64185 0.0
C3020 C 0.73487 0.44889 0.67149 0.0
C3021 C 0.73726 0.45032 0.71733 0.0
C3022 C 0.741 0.43481 0.73364 0.0
C3023 C 0.81538 0.37201 0.7775 0.0
C3024 C 0.81994 0.38378 0.81839 0.0
C3025 C 0.79843 0.37249 0.75898 0.0
C3026 C 0.78552 0.38486 0.78051 0.0
C3027 C 0.79 0.39676 0.82124 0.0
C3028 C 0.80697 0.3961 0.84023 0.0
C3029 C 0.76749 0.38526 0.75998 0.0
C3030 C 0.76203 0.40092 0.74589 0.0
C3031 C 0.75637 0.36972 0.75072 0.0
C3032 C 0.76108 0.35289 0.76571 0.0
C3033 C 0.76477 0.35352 0.81098 0.0
C3034 C 0.7694 0.33765 0.82479 0.0
C3035 C 0.77027 0.32104 0.79368 0.0
C3036 C 0.76646 0.32026 0.74871 0.0
C3037 C 0.76184 0.33609 0.73471 0.0
H3038 H 0.77386 0.30877 0.80444 0.0
H3039 H 0.73195 0.46092 0.65893 0.0
loop_
_geom_bond_atom_site_label_1
_geom_bond_atom_site_label_2
_geom_bond_distance
_geom_bond_site_symmetry_2
_ccdc_geom_bond_type
Sm0 C2 2.846 1_554 S
Sm0 O20 2.544 1_554 S
Sm0 O21 2.450 . S
Sm0 O22 2.681 . S
Sm0 O23 2.464 . S
Sm0 O24 2.396 . S
Sm0 O28 2.386 . S
Sm0 O31 2.408 . S
Sm1 C11 2.846 . S
Sm1 O22 2.386 . S
Sm1 O25 2.408 . S
Sm1 O26 2.543 . S
Sm1 O27 2.450 . S
Sm1 O28 2.681 . S
Sm1 O29 2.464 . S
Sm1 O30 2.396 . S
C2 Sm0 2.846 1_556 S
C2 C3 1.506 . S
C2 O20 1.260 . S
C2 O21 1.242 1_556 S
C3 C2 1.506 . S
C3 C4 1.358 . S
C3 C8 1.382 . S
C4 C3 1.358 . S
C4 C5 1.385 . S
C4 H32 0.930 . S
C5 C4 1.385 . S
C5 C6 1.395 . S
C5 H33 0.929 . S
C6 C5 1.395 . S
C6 C7 1.335 . S
C7 C6 1.335 . S
C7 C8 1.398 . S
C7 H34 0.930 . S
C8 C3 1.382 . S
C8 C7 1.398 . S
C8 H35 0.929 . S
C9 O22 1.271 . S
C9 O23 1.251 . S
C10 O24 1.252 . S
C10 O25 1.272 . S
C11 Sm1 2.846 . S
C11 C12 1.506 . S
C11 O26 1.261 . S
C11 O27 1.242 . S
C12 C11 1.506 . S
C12 C13 1.358 . S
C12 C17 1.382 . S
C13 C12 1.358 . S
C13 C14 1.385 . S
C13 H36 0.930 . S
C14 C13 1.385 . S
C14 C15 1.395 . S
C14 H37 0.929 . S
C15 C14 1.395 . S
C15 C16 1.335 . S
C16 C15 1.335 . S
C16 C17 1.398 . S
C16 H38 0.930 . S
C17 C12 1.382 . S
C17 C16 1.398 . S
C17 H39 0.929 . S
C18 O28 1.271 . S
C18 O29 1.251 . S
C19 O30 1.252 . S
C19 O31 1.272 . S
O20 Sm0 2.544 1_556 S
O20 C2 1.260 . S
O21 Sm0 2.450 . S
O21 C2 1.242 1_554 S
O22 Sm0 2.681 . S
O22 Sm1 2.386 . S
O22 C9 1.271 . S
O23 Sm0 2.464 . S
O23 C9 1.251 . S
O24 Sm0 2.396 . S
O24 C10 1.252 . S
O25 Sm1 2.408 . S
O25 C10 1.272 . S
O26 Sm1 2.543 . S
O26 C11 1.261 . S
O27 Sm1 2.450 . S
O27 C11 1.242 . S
O28 Sm0 2.386 . S
O28 Sm1 2.681 . S
O28 C18 1.271 . S
O29 Sm1 2.464 . S
O29 C18 1.251 . S
O30 Sm1 2.396 . S
O30 C19 1.252 . S
O31 Sm0 2.408 . S
O31 C19 1.272 . S
H32 C4 0.930 . S
H33 C5 0.929 . S
H34 C7 0.930 . S
H35 C8 0.929 . S
H36 C13 0.930 . S
H37 C14 0.929 . S
H38 C16 0.930 . S
H39 C17 0.929 . S
Sm40 C42 2.846 . S
Sm40 O60 2.543 . S
Sm40 O61 2.450 . S
Sm40 O62 2.681 . S
Sm40 O63 2.464 . S
Sm40 O64 2.396 . S
Sm40 O68 2.386 . S
Sm40 O71 2.408 . S
Sm41 C51 2.846 . S
Sm41 O62 2.386 . S
Sm41 O65 2.408 . S
Sm41 O66 2.543 . S
Sm41 O67 2.450 . S
Sm41 O68 2.681 . S
Sm41 O69 2.464 . S
Sm41 O70 2.396 . S
C42 Sm40 2.846 . S
C42 C43 1.506 . S
C42 O60 1.261 . S
C42 O61 1.242 . S
C43 C42 1.506 . S
C43 C44 1.358 . S
C43 C48 1.382 . S
C44 C43 1.358 . S
C44 C45 1.385 . S
C44 H72 0.930 . S
C45 C44 1.385 . S
C45 C46 1.395 . S
C45 H73 0.929 . S
C46 C45 1.395 . S
C46 C47 1.335 . S
C47 C46 1.335 . S
C47 C48 1.398 . S
C47 H74 0.930 . S
C48 C43 1.382 . S
C48 C47 1.398 . S
C48 H75 0.929 . S
C49 O62 1.271 . S
C49 O63 1.251 . S
C50 O64 1.252 . S
C50 O65 1.272 . S
C51 Sm41 2.846 . S
C51 C52 1.506 . S
C51 O66 1.261 . S
C51 O67 1.242 . S
C52 C51 1.506 . S
C52 C53 1.358 . S
C52 C57 1.382 . S
C53 C52 1.358 . S
C53 C54 1.385 . S
C53 H76 0.930 . S
C54 C53 1.385 . S
C54 C55 1.395 . S
C54 H77 0.929 . S
C55 C54 1.395 . S
C55 C56 1.335 . S
C56 C55 1.335 . S
C56 C57 1.398 . S
C56 H78 0.930 . S
C57 C52 1.382 . S
C57 C56 1.398 . S
C57 H79 0.929 . S
C58 O68 1.271 . S
C58 O69 1.251 . S
C59 O70 1.252 . S
C59 O71 1.272 . S
O60 Sm40 2.543 . S
O60 C42 1.261 . S
O61 Sm40 2.450 . S
O61 C42 1.242 . S
O62 Sm40 2.681 . S
O62 Sm41 2.386 . S
O62 C49 1.271 . S
O63 Sm40 2.464 . S
O63 C49 1.251 . S
O64 Sm40 2.396 . S
O64 C50 1.252 . S
O65 Sm41 2.408 . S
O65 C50 1.272 . S
O66 Sm41 2.543 . S
O66 C51 1.261 . S
O67 Sm41 2.450 . S
O67 C51 1.242 . S
O68 Sm40 2.386 . S
O68 Sm41 2.681 . S
O68 C58 1.271 . S
O69 Sm41 2.464 . S
O69 C58 1.251 . S
O70 Sm41 2.396 . S
O70 C59 1.252 . S
O71 Sm40 2.408 . S
O71 C59 1.272 . S
H72 C44 0.930 . S
H73 C45 0.929 . S
H74 C47 0.930 . S
H75 C48 0.929 . S
H76 C53 0.930 . S
H77 C54 0.929 . S
H78 C56 0.930 . S
H79 C57 0.929 . S
Sm80 C82 2.846 . S
Sm80 O100 2.543 . S
Sm80 O101 2.450 . S
Sm80 O102 2.681 . S
Sm80 O103 2.464 . S
Sm80 O104 2.396 . S
Sm80 O108 2.386 . S
Sm80 O111 2.408 . S
Sm81 C91 2.846 . S
Sm81 O102 2.386 . S
Sm81 O105 2.408 . S
Sm81 O106 2.543 . S
Sm81 O107 2.450 . S
Sm81 O108 2.681 . S
Sm81 O109 2.464 . S
Sm81 O110 2.396 . S
C82 Sm80 2.846 . S
C82 C83 1.506 . S
C82 O100 1.261 . S
C82 O101 1.242 . S
C83 C82 1.506 . S
C83 C84 1.358 . S
C83 C88 1.382 . S
C84 C83 1.358 . S
C84 C85 1.385 . S
C84 H112 0.930 . S
C85 C84 1.385 . S
C85 C86 1.395 . S
C85 H113 0.929 . S
C86 C85 1.395 . S
C86 C87 1.335 . S
C87 C86 1.335 . S
C87 C88 1.398 . S
C87 H114 0.930 . S
C88 C83 1.382 . S
C88 C87 1.398 . S
C88 H115 0.929 . S
C89 O102 1.271 . S
C89 O103 1.251 . S
C90 O104 1.252 . S
C90 O105 1.272 . S
C91 Sm81 2.846 . S
C91 C92 1.506 . S
C91 O106 1.261 . S
C91 O107 1.242 . S
C92 C91 1.506 . S
C92 C93 1.358 . S
C92 C97 1.382 . S
C93 C92 1.358 . S
C93 C94 1.385 . S
C93 H116 0.930 . S
C94 C93 1.385 . S
C94 C95 1.395 . S
C94 H117 0.929 . S
C95 C94 1.395 . S
C95 C96 1.335 . S
C96 C95 1.335 . S
C96 C97 1.398 . S
C96 H118 0.930 . S
C97 C92 1.382 . S
C97 C96 1.398 . S
C97 H119 0.929 . S
C98 O108 1.271 . S
C98 O109 1.251 . S
C99 O110 1.252 . S
C99 O111 1.272 . S
O100 Sm80 2.543 . S
O100 C82 1.261 . S
O101 Sm80 2.450 . S
O101 C82 1.242 . S
O102 Sm80 2.681 . S
O102 Sm81 2.386 . S
O102 C89 1.271 . S
O103 Sm80 2.464 . S
O103 C89 1.251 . S
O104 Sm80 2.396 . S
O104 C90 1.252 . S
O105 Sm81 2.408 . S
O105 C90 1.272 . S
O106 Sm81 2.543 . S
O106 C91 1.261 . S
O107 Sm81 2.450 . S
O107 C91 1.242 . S
O108 Sm80 2.386 . S
O108 Sm81 2.681 . S
O108 C98 1.271 . S
O109 Sm81 2.464 . S
O109 C98 1.251 . S
O110 Sm81 2.396 . S
O110 C99 1.252 . S
O111 Sm80 2.408 . S
O111 C99 1.272 . S
H112 C84 0.930 . S
H113 C85 0.929 . S
H114 C87 0.930 . S
H115 C88 0.929 . S
H116 C93 0.930 . S
H117 C94 0.929 . S
H118 C96 0.930 . S
H119 C97 0.929 . S
Sm120 C122 2.846 . S
Sm120 O140 2.543 . S
Sm120 O141 2.450 . S
Sm120 O142 2.681 . S
Sm120 O143 2.464 . S
Sm120 O144 2.396 . S
Sm120 O148 2.386 . S
Sm120 O151 2.408 . S
Sm121 C131 2.846 1_556 S
Sm121 O142 2.386 . S
Sm121 O145 2.408 . S
Sm121 O146 2.543 . S
Sm121 O147 2.450 1_556 S
Sm121 O148 2.681 . S
Sm121 O149 2.464 . S
Sm121 O150 2.396 . S
C122 Sm120 2.846 . S
C122 C123 1.506 . S
C122 O140 1.261 . S
C122 O141 1.242 . S
C123 C122 1.506 . S
C123 C124 1.358 . S
C123 C128 1.382 . S
C124 C123 1.358 . S
C124 C125 1.385 . S
C124 H152 0.930 . S
C125 C124 1.385 . S
C125 C126 1.395 . S
C125 H153 0.929 . S
C126 C125 1.395 . S
C126 C127 1.335 . S
C127 C126 1.335 . S
C127 C128 1.398 . S
C127 H154 0.930 . S
C128 C123 1.382 . S
C128 C127 1.398 . S
C128 H155 0.929 . S
C129 O142 1.271 . S
C129 O143 1.251 . S
C130 O144 1.252 . S
C130 O145 1.272 . S
C131 Sm121 2.846 1_554 S
C131 C132 1.506 . S
C131 O146 1.261 1_554 S
C131 O147 1.242 . S
C132 C131 1.506 . S
C132 C133 1.358 . S
C132 C137 1.382 . S
C133 C132 1.358 . S
C133 C134 1.385 . S
C133 H156 0.930 . S
C134 C133 1.385 . S
C134 C135 1.395 . S
C134 H157 0.929 . S
C135 C134 1.395 . S
C135 C136 1.335 . S
C136 C135 1.335 . S
C136 C137 1.398 . S
C136 H158 0.930 . S
C137 C132 1.382 . S
C137 C136 1.398 . S
C137 H159 0.929 . S
C138 O148 1.271 . S
C138 O149 1.251 . S
C139 O150 1.252 . S
C139 O151 1.272 . S
O140 Sm120 2.543 . S
O140 C122 1.261 . S
O141 Sm120 2.450 . S
O141 C122 1.242 . S
O142 Sm120 2.681 . S
O142 Sm121 2.386 . S
O142 C129 1.271 . S
O143 Sm120 2.464 . S
O143 C129 1.251 . S
O144 Sm120 2.396 . S
O144 C130 1.252 . S
O145 Sm121 2.408 . S
O145 C130 1.272 . S
O146 Sm121 2.543 . S
O146 C131 1.261 1_556 S
O147 Sm121 2.450 1_554 S
O147 C131 1.242 . S
O148 Sm120 2.386 . S
O148 Sm121 2.681 . S
O148 C138 1.271 . S
O149 Sm121 2.464 . S
O149 C138 1.251 . S
O150 Sm121 2.396 . S
O150 C139 1.252 . S
O151 Sm120 2.408 . S
O151 C139 1.272 . S
H152 C124 0.930 . S
H153 C125 0.929 . S
H154 C127 0.930 . S
H155 C128 0.929 . S
H156 C133 0.930 . S
H157 C134 0.929 . S
H158 C136 0.930 . S
H159 C137 0.929 . S
Sm160 C162 2.846 1_556 S
Sm160 O180 2.544 1_556 S
Sm160 O181 2.450 . S
Sm160 O182 2.681 . S
Sm160 O183 2.464 . S
Sm160 O184 2.396 . S
Sm160 O188 2.386 . S
Sm160 O191 2.408 . S
Sm161 C171 2.846 . S
Sm161 O182 2.386 . S
Sm161 O185 2.408 . S
Sm161 O186 2.543 . S
Sm161 O187 2.450 . S
Sm161 O188 2.681 . S
Sm161 O189 2.464 . S
Sm161 O190 2.396 . S
C162 Sm160 2.846 1_554 S
C162 C163 1.506 . S
C162 O180 1.260 . S
C162 O181 1.242 1_554 S
C163 C162 1.506 . S
C163 C164 1.358 . S
C163 C168 1.382 . S
C164 C163 1.358 . S
C164 C165 1.385 . S
C164 H192 0.930 . S
C165 C164 1.385 . S
C165 C166 1.395 . S
C165 H193 0.929 . S
C166 C165 1.395 . S
C166 C167 1.335 . S
C167 C166 1.335 . S
C167 C168 1.398 . S
C167 H194 0.930 . S
C168 C163 1.382 . S
C168 C167 1.398 . S
C168 H195 0.929 . S
C169 O182 1.271 . S
C169 O183 1.251 . S
C170 O184 1.252 . S
C170 O185 1.272 . S
C171 Sm161 2.846 . S
C171 C172 1.506 . S
C171 O186 1.261 . S
C171 O187 1.242 . S
C172 C171 1.506 . S
C172 C173 1.358 . S
C172 C177 1.382 . S
C173 C172 1.358 . S
C173 C174 1.385 . S
C173 H196 0.930 . S
C174 C173 1.385 . S
C174 C175 1.395 . S
C174 H197 0.929 . S
C175 C174 1.395 . S
C175 C176 1.335 . S
C176 C175 1.335 . S
C176 C177 1.398 . S
C176 H198 0.930 . S
C177 C172 1.382 . S
C177 C176 1.398 . S
C177 H199 0.929 . S
C178 O188 1.271 . S
C178 O189 1.251 . S
C179 O190 1.252 . S
C179 O191 1.272 . S
O180 Sm160 2.544 1_554 S
O180 C162 1.260 . S
O181 Sm160 2.450 . S
O181 C162 1.242 1_556 S
O182 Sm160 2.681 . S
O182 Sm161 2.386 . S
O182 C169 1.271 . S
O183 Sm160 2.464 . S
O183 C169 1.251 . S
O184 Sm160 2.396 . S
O184 C170 1.252 . S
O185 Sm161 2.408 . S
O185 C170 1.272 . S
O186 Sm161 2.543 . S
O186 C171 1.261 . S
O187 Sm161 2.450 . S
O187 C171 1.242 . S
O188 Sm160 2.386 . S
O188 Sm161 2.681 . S
O188 C178 1.271 . S
O189 Sm161 2.464 . S
O189 C178 1.251 . S
O190 Sm161 2.396 . S
O190 C179 1.252 . S
O191 Sm160 2.408 . S
O191 C179 1.272 . S
H192 C164 0.930 . S
H193 C165 0.929 . S
H194 C167 0.930 . S
H195 C168 0.929 . S
H196 C173 0.930 . S
H197 C174 0.929 . S
H198 C176 0.930 . S
H199 C177 0.929 . S
Sm200 C202 2.846 . S
Sm200 O220 2.543 . S
Sm200 O221 2.450 . S
Sm200 O222 2.681 . S
Sm200 O223 2.464 . S
Sm200 O224 2.396 . S
Sm200 O228 2.386 . S
Sm200 O231 2.408 . S
Sm201 C211 2.846 1_554 S
Sm201 O222 2.386 . S
Sm201 O225 2.408 . S
Sm201 O226 2.543 . S
Sm201 O227 2.450 1_554 S
Sm201 O228 2.681 . S
Sm201 O229 2.464 . S
Sm201 O230 2.396 . S
C202 Sm200 2.846 . S
C202 C203 1.506 . S
C202 O220 1.261 . S
C202 O221 1.242 . S
C203 C202 1.506 . S
C203 C204 1.358 . S
C203 C208 1.382 . S
C204 C203 1.358 . S
C204 C205 1.385 . S
C204 H232 0.930 . S
C205 C204 1.385 . S
C205 C206 1.395 . S
C205 H233 0.929 . S
C206 C205 1.395 . S
C206 C207 1.335 . S
C207 C206 1.335 . S
C207 C208 1.398 . S
C207 H234 0.930 . S
C208 C203 1.382 . S
C208 C207 1.398 . S
C208 H235 0.929 . S
C209 O222 1.271 . S
C209 O223 1.251 . S
C210 O224 1.252 . S
C210 O225 1.272 . S
C211 Sm201 2.846 1_556 S
C211 C212 1.506 . S
C211 O226 1.261 1_556 S
C211 O227 1.242 . S
C212 C211 1.506 . S
C212 C213 1.358 . S
C212 C217 1.382 . S
C213 C212 1.358 . S
C213 C214 1.385 . S
C213 H236 0.930 . S
C214 C213 1.385 . S
C214 C215 1.395 . S
C214 H237 0.929 . S
C215 C214 1.395 . S
C215 C216 1.335 . S
C216 C215 1.335 . S
C216 C217 1.398 . S
C216 H238 0.930 . S
C217 C212 1.382 . S
C217 C216 1.398 . S
C217 H239 0.929 . S
C218 O228 1.271 . S
C218 O229 1.251 . S
C219 O230 1.252 . S
C219 O231 1.272 . S
O220 Sm200 2.543 . S
O220 C202 1.261 . S
O221 Sm200 2.450 . S
O221 C202 1.242 . S
O222 Sm200 2.681 . S
O222 Sm201 2.386 . S
O222 C209 1.271 . S
O223 Sm200 2.464 . S
O223 C209 1.251 . S
O224 Sm200 2.396 . S
O224 C210 1.252 . S
O225 Sm201 2.408 . S
O225 C210 1.272 . S
O226 Sm201 2.543 . S
O226 C211 1.261 1_554 S
O227 Sm201 2.450 1_556 S
O227 C211 1.242 . S
O228 Sm200 2.386 . S
O228 Sm201 2.681 . S
O228 C218 1.271 . S
O229 Sm201 2.464 . S
O229 C218 1.251 . S
O230 Sm201 2.396 . S
O230 C219 1.252 . S
O231 Sm200 2.408 . S
O231 C219 1.272 . S
H232 C204 0.930 . S
H233 C205 0.929 . S
H234 C207 0.930 . S
H235 C208 0.929 . S
H236 C213 0.930 . S
H237 C214 0.929 . S
H238 C216 0.930 . S
H239 C217 0.929 . S
Sm240 C242 2.846 . S
Sm240 O260 2.543 . S
Sm240 O261 2.450 . S
Sm240 O262 2.681 . S
Sm240 O263 2.464 . S
Sm240 O264 2.396 . S
Sm240 O268 2.386 . S
Sm240 O271 2.408 . S
Sm241 C251 2.846 . S
Sm241 O262 2.386 . S
Sm241 O265 2.408 . S
Sm241 O266 2.543 . S
Sm241 O267 2.450 . S
Sm241 O268 2.681 . S
Sm241 O269 2.464 . S
Sm241 O270 2.396 . S
C242 Sm240 2.846 . S
C242 C243 1.506 . S
C242 O260 1.261 . S
C242 O261 1.242 . S
C243 C242 1.506 . S
C243 C244 1.358 . S
C243 C248 1.382 . S
C244 C243 1.358 . S
C244 C245 1.385 . S
C244 H272 0.930 . S
C245 C244 1.385 . S
C245 C246 1.395 . S
C245 H273 0.929 . S
C246 C245 1.395 . S
C246 C247 1.335 . S
C247 C246 1.335 . S
C247 C248 1.398 . S
C247 H274 0.930 . S
C248 C243 1.382 . S
C248 C247 1.398 . S
C248 H275 0.929 . S
C249 O262 1.271 . S
C249 O263 1.251 . S
C250 O264 1.252 . S
C250 O265 1.272 . S
C251 Sm241 2.846 . S
C251 C252 1.506 . S
C251 O266 1.261 . S
C251 O267 1.242 . S
C252 C251 1.506 . S
C252 C253 1.358 . S
C252 C257 1.382 . S
C253 C252 1.358 . S
C253 C254 1.385 . S
C253 H276 0.930 . S
C254 C253 1.385 . S
C254 C255 1.395 . S
C254 H277 0.929 . S
C255 C254 1.395 . S
C255 C256 1.335 . S
C256 C255 1.335 . S
C256 C257 1.398 . S
C256 H278 0.930 . S
C257 C252 1.382 . S
C257 C256 1.398 . S
C257 H279 0.929 . S
C258 O268 1.271 . S
C258 O269 1.251 . S
C259 O270 1.252 . S
C259 O271 1.272 . S
O260 Sm240 2.543 . S
O260 C242 1.261 . S
O261 Sm240 2.450 . S
O261 C242 1.242 . S
O262 Sm240 2.681 . S
O262 Sm241 2.386 . S
O262 C249 1.271 . S
O263 Sm240 2.464 . S
O263 C249 1.251 . S
O264 Sm240 2.396 . S
O264 C250 1.252 . S
O265 Sm241 2.408 . S
O265 C250 1.272 . S
O266 Sm241 2.543 . S
O266 C251 1.261 . S
O267 Sm241 2.450 . S
O267 C251 1.242 . S
O268 Sm240 2.386 . S
O268 Sm241 2.681 . S
O268 C258 1.271 . S
O269 Sm241 2.464 . S
O269 C258 1.251 . S
O270 Sm241 2.396 . S
O270 C259 1.252 . S
O271 Sm240 2.408 . S
O271 C259 1.272 . S
H272 C244 0.930 . S
H273 C245 0.929 . S
H274 C247 0.930 . S
H275 C248 0.929 . S
H276 C253 0.930 . S
H277 C254 0.929 . S
H278 C256 0.930 . S
H279 C257 0.929 . S
Sm280 C282 2.846 . S
Sm280 O300 2.543 . S
Sm280 O301 2.450 . S
Sm280 O302 2.681 . S
Sm280 O303 2.464 . S
Sm280 O304 2.396 . S
Sm280 O308 2.386 . S
Sm280 O311 2.408 . S
Sm281 C291 2.846 . S
Sm281 O302 2.386 . S
Sm281 O305 2.408 . S
Sm281 O306 2.543 . S
Sm281 O307 2.450 . S
Sm281 O308 2.681 . S
Sm281 O309 2.464 . S
Sm281 O310 2.396 . S
C282 Sm280 2.846 . S
C282 C283 1.506 . S
C282 O300 1.261 . S
C282 O301 1.242 . S
C283 C282 1.506 . S
C283 C284 1.358 . S
C283 C288 1.382 . S
C284 C283 1.358 . S
C284 C285 1.385 . S
C284 H312 0.930 . S
C285 C284 1.385 . S
C285 C286 1.395 . S
C285 H313 0.929 . S
C286 C285 1.395 . S
C286 C287 1.335 . S
C287 C286 1.335 . S
C287 C288 1.398 . S
C287 H314 0.930 . S
C288 C283 1.382 . S
C288 C287 1.398 . S
C288 H315 0.929 . S
C289 O302 1.271 . S
C289 O303 1.251 . S
C290 O304 1.252 . S
C290 O305 1.272 . S
C291 Sm281 2.846 . S
C291 C292 1.506 . S
C291 O306 1.261 . S
C291 O307 1.242 . S
C292 C291 1.506 . S
C292 C293 1.358 . S
C292 C297 1.382 . S
C293 C292 1.358 . S
C293 C294 1.385 . S
C293 H316 0.930 . S
C294 C293 1.385 . S
C294 C295 1.395 . S
C294 H317 0.929 . S
C295 C294 1.395 . S
C295 C296 1.335 . S
C296 C295 1.335 . S
C296 C297 1.398 . S
C296 H318 0.930 . S
C297 C292 1.382 . S
C297 C296 1.398 . S
C297 H319 0.929 . S
C298 O308 1.271 . S
C298 O309 1.251 . S
C299 O310 1.252 . S
C299 O311 1.272 . S
O300 Sm280 2.543 . S
O300 C282 1.261 . S
O301 Sm280 2.450 . S
O301 C282 1.242 . S
O302 Sm280 2.681 . S
O302 Sm281 2.386 . S
O302 C289 1.271 . S
O303 Sm280 2.464 . S
O303 C289 1.251 . S
O304 Sm280 2.396 . S
O304 C290 1.252 . S
O305 Sm281 2.408 . S
O305 C290 1.272 . S
O306 Sm281 2.543 . S
O306 C291 1.261 . S
O307 Sm281 2.450 . S
O307 C291 1.242 . S
O308 Sm280 2.386 . S
O308 Sm281 2.681 . S
O308 C298 1.271 . S
O309 Sm281 2.464 . S
O309 C298 1.251 . S
O310 Sm281 2.396 . S
O310 C299 1.252 . S
O311 Sm280 2.408 . S
O311 C299 1.272 . S
H312 C284 0.930 . S
H313 C285 0.929 . S
H314 C287 0.930 . S
H315 C288 0.929 . S
H316 C293 0.930 . S
H317 C294 0.929 . S
H318 C296 0.930 . S
H319 C297 0.929 . S
Sm320 C322 2.846 . S
Sm320 O340 2.543 . S
Sm320 O341 2.450 . S
Sm320 O342 2.681 . S
Sm320 O343 2.464 . S
Sm320 O344 2.396 . S
Sm320 O348 2.386 . S
Sm320 O351 2.408 . S
Sm321 C331 2.846 1_556 S
Sm321 O342 2.386 . S
Sm321 O345 2.408 . S
Sm321 O346 2.544 1_556 S
Sm321 O347 2.450 . S
Sm321 O348 2.681 . S
Sm321 O349 2.464 . S
Sm321 O350 2.396 . S
C322 Sm320 2.846 . S
C322 C323 1.506 . S
C322 O340 1.261 . S
C322 O341 1.242 . S
C323 C322 1.506 . S
C323 C324 1.358 . S
C323 C328 1.382 . S
C324 C323 1.358 . S
C324 C325 1.385 . S
C324 H352 0.930 . S
C325 C324 1.385 . S
C325 C326 1.395 . S
C325 H353 0.929 . S
C326 C325 1.395 . S
C326 C327 1.335 . S
C327 C326 1.335 . S
C327 C328 1.398 . S
C327 H354 0.930 . S
C328 C323 1.382 . S
C328 C327 1.398 . S
C328 H355 0.929 . S
C329 O342 1.271 . S
C329 O343 1.251 . S
C330 O344 1.252 . S
C330 O345 1.272 . S
C331 Sm321 2.846 1_554 S
C331 C332 1.506 . S
C331 O346 1.260 . S
C331 O347 1.242 1_554 S
C332 C331 1.506 . S
C332 C333 1.358 . S
C332 C337 1.382 . S
C333 C332 1.358 . S
C333 C334 1.385 . S
C333 H356 0.930 . S
C334 C333 1.385 . S
C334 C335 1.395 . S
C334 H357 0.929 . S
C335 C334 1.395 . S
C335 C336 1.335 . S
C336 C335 1.335 . S
C336 C337 1.398 . S
C336 H358 0.930 . S
C337 C332 1.382 . S
C337 C336 1.398 . S
C337 H359 0.929 . S
C338 O348 1.271 . S
C338 O349 1.251 . S
C339 O350 1.252 . S
C339 O351 1.272 . S
O340 Sm320 2.543 . S
O340 C322 1.261 . S
O341 Sm320 2.450 . S
O341 C322 1.242 . S
O342 Sm320 2.681 . S
O342 Sm321 2.386 . S
O342 C329 1.271 . S
O343 Sm320 2.464 . S
O343 C329 1.251 . S
O344 Sm320 2.396 . S
O344 C330 1.252 . S
O345 Sm321 2.408 . S
O345 C330 1.272 . S
O346 Sm321 2.544 1_554 S
O346 C331 1.260 . S
O347 Sm321 2.450 . S
O347 C331 1.242 1_556 S
O348 Sm320 2.386 . S
O348 Sm321 2.681 . S
O348 C338 1.271 . S
O349 Sm321 2.464 . S
O349 C338 1.251 . S
O350 Sm321 2.396 . S
O350 C339 1.252 . S
O351 Sm320 2.408 . S
O351 C339 1.272 . S
H352 C324 0.930 . S
H353 C325 0.929 . S
H354 C327 0.930 . S
H355 C328 0.929 . S
H356 C333 0.930 . S
H357 C334 0.929 . S
H358 C336 0.930 . S
H359 C337 0.929 . S
Sm360 C362 2.846 . S
Sm360 O380 2.543 . S
Sm360 O381 2.450 . S
Sm360 O382 2.681 . S
Sm360 O383 2.464 . S
Sm360 O384 2.396 . S
Sm360 O388 2.386 . S
Sm360 O391 2.408 . S
Sm361 C371 2.846 . S
Sm361 O382 2.386 . S
Sm361 O385 2.408 . S
Sm361 O386 2.543 . S
Sm361 O387 2.450 . S
Sm361 O388 2.681 . S
Sm361 O389 2.464 . S
Sm361 O390 2.396 . S
C362 Sm360 2.846 . S
C362 C363 1.506 . S
C362 O380 1.261 . S
C362 O381 1.242 . S
C363 C362 1.506 . S
C363 C364 1.358 . S
C363 C368 1.382 . S
C364 C363 1.358 . S
C364 C365 1.385 . S
C364 H392 0.930 . S
C365 C364 1.385 . S
C365 C366 1.395 . S
C365 H393 0.929 . S
C366 C365 1.395 . S
C366 C367 1.335 . S
C367 C366 1.335 . S
C367 C368 1.398 . S
C367 H394 0.930 . S
C368 C363 1.382 . S
C368 C367 1.398 . S
C368 H395 0.929 . S
C369 O382 1.271 . S
C369 O383 1.251 . S
C370 O384 1.252 . S
C370 O385 1.272 . S
C371 Sm361 2.846 . S
C371 C372 1.506 . S
C371 O386 1.261 . S
C371 O387 1.242 . S
C372 C371 1.506 . S
C372 C373 1.358 . S
C372 C377 1.382 . S
C373 C372 1.358 . S
C373 C374 1.385 . S
C373 H396 0.930 . S
C374 C373 1.385 . S
C374 C375 1.395 . S
C374 H397 0.929 . S
C375 C374 1.395 . S
C375 C376 1.335 . S
C376 C375 1.335 . S
C376 C377 1.398 . S
C376 H398 0.930 . S
C377 C372 1.382 . S
C377 C376 1.398 . S
C377 H399 0.929 . S
C378 O388 1.271 . S
C378 O389 1.251 . S
C379 O390 1.252 . S
C379 O391 1.272 . S
O380 Sm360 2.543 . S
O380 C362 1.261 . S
O381 Sm360 2.450 . S
O381 C362 1.242 . S
O382 Sm360 2.681 . S
O382 Sm361 2.386 . S
O382 C369 1.271 . S
O383 Sm360 2.464 . S
O383 C369 1.251 . S
O384 Sm360 2.396 . S
O384 C370 1.252 . S
O385 Sm361 2.408 . S
O385 C370 1.272 . S
O386 Sm361 2.543 . S
O386 C371 1.261 . S
O387 Sm361 2.450 . S
O387 C371 1.242 . S
O388 Sm360 2.386 . S
O388 Sm361 2.681 . S
O388 C378 1.271 . S
O389 Sm361 2.464 . S
O389 C378 1.251 . S
O390 Sm361 2.396 . S
O390 C379 1.252 . S
O391 Sm360 2.408 . S
O391 C379 1.272 . S
H392 C364 0.930 . S
H393 C365 0.929 . S
H394 C367 0.930 . S
H395 C368 0.929 . S
H396 C373 0.930 . S
H397 C374 0.929 . S
H398 C376 0.930 . S
H399 C377 0.929 . S
Sm400 C402 2.846 . S
Sm400 O420 2.543 . S
Sm400 O421 2.450 . S
Sm400 O422 2.681 . S
Sm400 O423 2.464 . S
Sm400 O424 2.396 . S
Sm400 O428 2.386 . S
Sm400 O431 2.408 . S
Sm401 C411 2.846 . S
Sm401 O422 2.386 . S
Sm401 O425 2.408 . S
Sm401 O426 2.543 . S
Sm401 O427 2.450 . S
Sm401 O428 2.681 . S
Sm401 O429 2.464 . S
Sm401 O430 2.396 . S
C402 Sm400 2.846 . S
C402 C403 1.506 . S
C402 O420 1.261 . S
C402 O421 1.242 . S
C403 C402 1.506 . S
C403 C404 1.358 . S
C403 C408 1.382 . S
C404 C403 1.358 . S
C404 C405 1.385 . S
C404 H432 0.930 . S
C405 C404 1.385 . S
C405 C406 1.395 . S
C405 H433 0.929 . S
C406 C405 1.395 . S
C406 C407 1.335 . S
C407 C406 1.335 . S
C407 C408 1.398 . S
C407 H434 0.930 . S
C408 C403 1.382 . S
C408 C407 1.398 . S
C408 H435 0.929 . S
C409 O422 1.271 . S
C409 O423 1.251 . S
C410 O424 1.252 . S
C410 O425 1.272 . S
C411 Sm401 2.846 . S
C411 C412 1.506 . S
C411 O426 1.261 . S
C411 O427 1.242 . S
C412 C411 1.506 . S
C412 C413 1.358 . S
C412 C417 1.382 . S
C413 C412 1.358 . S
C413 C414 1.385 . S
C413 H436 0.930 . S
C414 C413 1.385 . S
C414 C415 1.395 . S
C414 H437 0.929 . S
C415 C414 1.395 . S
C415 C416 1.335 . S
C416 C415 1.335 . S
C416 C417 1.398 . S
C416 H438 0.930 . S
C417 C412 1.382 . S
C417 C416 1.398 . S
C417 H439 0.929 . S
C418 O428 1.271 . S
C418 O429 1.251 . S
C419 O430 1.252 . S
C419 O431 1.272 . S
O420 Sm400 2.543 . S
O420 C402 1.261 . S
O421 Sm400 2.450 . S
O421 C402 1.242 . S
O422 Sm400 2.681 . S
O422 Sm401 2.386 . S
O422 C409 1.271 . S
O423 Sm400 2.464 . S
O423 C409 1.251 . S
O424 Sm400 2.396 . S
O424 C410 1.252 . S
O425 Sm401 2.408 . S
O425 C410 1.272 . S
O426 Sm401 2.543 . S
O426 C411 1.261 . S
O427 Sm401 2.450 . S
O427 C411 1.242 . S
O428 Sm400 2.386 . S
O428 Sm401 2.681 . S
O428 C418 1.271 . S
O429 Sm401 2.464 . S
O429 C418 1.251 . S
O430 Sm401 2.396 . S
O430 C419 1.252 . S
O431 Sm400 2.408 . S
O431 C419 1.272 . S
H432 C404 0.930 . S
H433 C405 0.929 . S
H434 C407 0.930 . S
H435 C408 0.929 . S
H436 C413 0.930 . S
H437 C414 0.929 . S
H438 C416 0.930 . S
H439 C417 0.929 . S
Sm440 C442 2.846 1_554 S
Sm440 O460 2.543 . S
Sm440 O461 2.450 1_554 S
Sm440 O462 2.681 . S
Sm440 O463 2.464 . S
Sm440 O464 2.396 . S
Sm440 O468 2.386 . S
Sm440 O471 2.408 . S
Sm441 C451 2.846 . S
Sm441 O462 2.386 . S
Sm441 O465 2.408 . S
Sm441 O466 2.543 . S
Sm441 O467 2.450 . S
Sm441 O468 2.681 . S
Sm441 O469 2.464 . S
Sm441 O470 2.396 . S
C442 Sm440 2.846 1_556 S
C442 C443 1.506 . S
C442 O460 1.261 1_556 S
C442 O461 1.242 . S
C443 C442 1.506 . S
C443 C444 1.358 . S
C443 C448 1.382 . S
C444 C443 1.358 . S
C444 C445 1.385 . S
C444 H472 0.930 . S
C445 C444 1.385 . S
C445 C446 1.395 . S
C445 H473 0.929 . S
C446 C445 1.395 . S
C446 C447 1.335 . S
C447 C446 1.335 . S
C447 C448 1.398 . S
C447 H474 0.930 . S
C448 C443 1.382 . S
C448 C447 1.398 . S
C448 H475 0.929 . S
C449 O462 1.271 . S
C449 O463 1.251 . S
C450 O464 1.252 . S
C450 O465 1.272 . S
C451 Sm441 2.846 . S
C451 C452 1.506 . S
C451 O466 1.261 . S
C451 O467 1.242 . S
C452 C451 1.506 . S
C452 C453 1.358 . S
C452 C457 1.382 . S
C453 C452 1.358 . S
C453 C454 1.385 . S
C453 H476 0.930 . S
C454 C453 1.385 . S
C454 C455 1.395 . S
C454 H477 0.929 . S
C455 C454 1.395 . S
C455 C456 1.335 . S
C456 C455 1.335 . S
C456 C457 1.398 . S
C456 H478 0.930 . S
C457 C452 1.382 . S
C457 C456 1.398 . S
C457 H479 0.929 . S
C458 O468 1.271 . S
C458 O469 1.251 . S
C459 O470 1.252 . S
C459 O471 1.272 . S
O460 Sm440 2.543 . S
O460 C442 1.261 1_554 S
O461 Sm440 2.450 1_556 S
O461 C442 1.242 . S
O462 Sm440 2.681 . S
O462 Sm441 2.386 . S
O462 C449 1.271 . S
O463 Sm440 2.464 . S
O463 C449 1.251 . S
O464 Sm440 2.396 . S
O464 C450 1.252 . S
O465 Sm441 2.408 . S
O465 C450 1.272 . S
O466 Sm441 2.543 . S
O466 C451 1.261 . S
O467 Sm441 2.450 . S
O467 C451 1.242 . S
O468 Sm440 2.386 . S
O468 Sm441 2.681 . S
O468 C458 1.271 . S
O469 Sm441 2.464 . S
O469 C458 1.251 . S
O470 Sm441 2.396 . S
O470 C459 1.252 . S
O471 Sm440 2.408 . S
O471 C459 1.272 . S
H472 C444 0.930 . S
H473 C445 0.929 . S
H474 C447 0.930 . S
H475 C448 0.929 . S
H476 C453 0.930 . S
H477 C454 0.929 . S
H478 C456 0.930 . S
H479 C457 0.929 . S
Sm480 C482 2.846 . S
Sm480 O500 2.543 . S
Sm480 O501 2.450 . S
Sm480 O502 2.681 . S
Sm480 O503 2.464 . S
Sm480 O504 2.396 . S
Sm480 O508 2.386 . S
Sm480 O511 2.408 . S
Sm481 C491 2.846 1_554 S
Sm481 O502 2.386 . S
Sm481 O505 2.408 . S
Sm481 O506 2.544 1_554 S
Sm481 O507 2.450 . S
Sm481 O508 2.681 . S
Sm481 O509 2.464 . S
Sm481 O510 2.396 . S
C482 Sm480 2.846 . S
C482 C483 1.506 . S
C482 O500 1.261 . S
C482 O501 1.242 . S
C483 C482 1.506 . S
C483 C484 1.358 . S
C483 C488 1.382 . S
C484 C483 1.358 . S
C484 C485 1.385 . S
C484 H512 0.930 . S
C485 C484 1.385 . S
C485 C486 1.395 . S
C485 H513 0.929 . S
C486 C485 1.395 . S
C486 C487 1.335 . S
C487 C486 1.335 . S
C487 C488 1.398 . S
C487 H514 0.930 . S
C488 C483 1.382 . S
C488 C487 1.398 . S
C488 H515 0.929 . S
C489 O502 1.271 . S
C489 O503 1.251 . S
C490 O504 1.252 . S
C490 O505 1.272 . S
C491 Sm481 2.846 1_556 S
C491 C492 1.506 . S
C491 O506 1.260 . S
C491 O507 1.242 1_556 S
C492 C491 1.506 . S
C492 C493 1.358 . S
C492 C497 1.382 . S
C493 C492 1.358 . S
C493 C494 1.385 . S
C493 H516 0.930 . S
C494 C493 1.385 . S
C494 C495 1.395 . S
C494 H517 0.929 . S
C495 C494 1.395 . S
C495 C496 1.335 . S
C496 C495 1.335 . S
C496 C497 1.398 . S
C496 H518 0.930 . S
C497 C492 1.382 . S
C497 C496 1.398 . S
C497 H519 0.929 . S
C498 O508 1.271 . S
C498 O509 1.251 . S
C499 O510 1.252 . S
C499 O511 1.272 . S
O500 Sm480 2.543 . S
O500 C482 1.261 . S
O501 Sm480 2.450 . S
O501 C482 1.242 . S
O502 Sm480 2.681 . S
O502 Sm481 2.386 . S
O502 C489 1.271 . S
O503 Sm480 2.464 . S
O503 C489 1.251 . S
O504 Sm480 2.396 . S
O504 C490 1.252 . S
O505 Sm481 2.408 . S
O505 C490 1.272 . S
O506 Sm481 2.544 1_556 S
O506 C491 1.260 . S
O507 Sm481 2.450 . S
O507 C491 1.242 1_554 S
O508 Sm480 2.386 . S
O508 Sm481 2.681 . S
O508 C498 1.271 . S
O509 Sm481 2.464 . S
O509 C498 1.251 . S
O510 Sm481 2.396 . S
O510 C499 1.252 . S
O511 Sm480 2.408 . S
O511 C499 1.272 . S
H512 C484 0.930 . S
H513 C485 0.929 . S
H514 C487 0.930 . S
H515 C488 0.929 . S
H516 C493 0.930 . S
H517 C494 0.929 . S
H518 C496 0.930 . S
H519 C497 0.929 . S
Sm520 C522 2.846 1_556 S
Sm520 O540 2.543 . S
Sm520 O541 2.450 1_556 S
Sm520 O542 2.681 . S
Sm520 O543 2.464 . S
Sm520 O544 2.396 . S
Sm520 O548 2.386 . S
Sm520 O551 2.408 . S
Sm521 C531 2.846 . S
Sm521 O542 2.386 . S
Sm521 O545 2.408 . S
Sm521 O546 2.543 . S
Sm521 O547 2.450 . S
Sm521 O548 2.681 . S
Sm521 O549 2.464 . S
Sm521 O550 2.396 . S
C522 Sm520 2.846 1_554 S
C522 C523 1.506 . S
C522 O540 1.261 1_554 S
C522 O541 1.242 . S
C523 C522 1.506 . S
C523 C524 1.358 . S
C523 C528 1.382 . S
C524 C523 1.358 . S
C524 C525 1.385 . S
C524 H552 0.930 . S
C525 C524 1.385 . S
C525 C526 1.395 . S
C525 H553 0.929 . S
C526 C525 1.395 . S
C526 C527 1.335 . S
C527 C526 1.335 . S
C527 C528 1.398 . S
C527 H554 0.930 . S
C528 C523 1.382 . S
C528 C527 1.398 . S
C528 H555 0.929 . S
C529 O542 1.271 . S
C529 O543 1.251 . S
C530 O544 1.252 . S
C530 O545 1.272 . S
C531 Sm521 2.846 . S
C531 C532 1.506 . S
C531 O546 1.261 . S
C531 O547 1.242 . S
C532 C531 1.506 . S
C532 C533 1.358 . S
C532 C537 1.382 . S
C533 C532 1.358 . S
C533 C534 1.385 . S
C533 H556 0.930 . S
C534 C533 1.385 . S
C534 C535 1.395 . S
C534 H557 0.929 . S
C535 C534 1.395 . S
C535 C536 1.335 . S
C536 C535 1.335 . S
C536 C537 1.398 . S
C536 H558 0.930 . S
C537 C532 1.382 . S
C537 C536 1.398 . S
C537 H559 0.929 . S
C538 O548 1.271 . S
C538 O549 1.251 . S
C539 O550 1.252 . S
C539 O551 1.272 . S
O540 Sm520 2.543 . S
O540 C522 1.261 1_556 S
O541 Sm520 2.450 1_554 S
O541 C522 1.242 . S
O542 Sm520 2.681 . S
O542 Sm521 2.386 . S
O542 C529 1.271 . S
O543 Sm520 2.464 . S
O543 C529 1.251 . S
O544 Sm520 2.396 . S
O544 C530 1.252 . S
O545 Sm521 2.408 . S
O545 C530 1.272 . S
O546 Sm521 2.543 . S
O546 C531 1.261 . S
O547 Sm521 2.450 . S
O547 C531 1.242 . S
O548 Sm520 2.386 . S
O548 Sm521 2.681 . S
O548 C538 1.271 . S
O549 Sm521 2.464 . S
O549 C538 1.251 . S
O550 Sm521 2.396 . S
O550 C539 1.252 . S
O551 Sm520 2.408 . S
O551 C539 1.272 . S
H552 C524 0.930 . S
H553 C525 0.929 . S
H554 C527 0.930 . S
H555 C528 0.929 . S
H556 C533 0.930 . S
H557 C534 0.929 . S
H558 C536 0.930 . S
H559 C537 0.929 . S
Sm560 C562 2.846 . S
Sm560 O580 2.543 . S
Sm560 O581 2.450 . S
Sm560 O582 2.681 . S
Sm560 O583 2.464 . S
Sm560 O584 2.396 . S
Sm560 O588 2.386 . S
Sm560 O591 2.408 . S
Sm561 C571 2.846 . S
Sm561 O582 2.386 . S
Sm561 O585 2.408 . S
Sm561 O586 2.543 . S
Sm561 O587 2.450 . S
Sm561 O588 2.681 . S
Sm561 O589 2.464 . S
Sm561 O590 2.396 . S
C562 Sm560 2.846 . S
C562 C563 1.506 . S
C562 O580 1.261 . S
C562 O581 1.242 . S
C563 C562 1.506 . S
C563 C564 1.358 . S
C563 C568 1.382 . S
C564 C563 1.358 . S
C564 C565 1.385 . S
C564 H592 0.930 . S
C565 C564 1.385 . S
C565 C566 1.395 . S
C565 H593 0.929 . S
C566 C565 1.395 . S
C566 C567 1.335 . S
C567 C566 1.335 . S
C567 C568 1.398 . S
C567 H594 0.930 . S
C568 C563 1.382 . S
C568 C567 1.398 . S
C568 H595 0.929 . S
C569 O582 1.271 . S
C569 O583 1.251 . S
C570 O584 1.252 . S
C570 O585 1.272 . S
C571 Sm561 2.846 . S
C571 C572 1.506 . S
C571 O586 1.261 . S
C571 O587 1.242 . S
C572 C571 1.506 . S
C572 C573 1.358 . S
C572 C577 1.382 . S
C573 C572 1.358 . S
C573 C574 1.385 . S
C573 H596 0.930 . S
C574 C573 1.385 . S
C574 C575 1.395 . S
C574 H597 0.929 . S
C575 C574 1.395 . S
C575 C576 1.335 . S
C576 C575 1.335 . S
C576 C577 1.398 . S
C576 H598 0.930 . S
C577 C572 1.382 . S
C577 C576 1.398 . S
C577 H599 0.929 . S
C578 O588 1.271 . S
C578 O589 1.251 . S
C579 O590 1.252 . S
C579 O591 1.272 . S
O580 Sm560 2.543 . S
O580 C562 1.261 . S
O581 Sm560 2.450 . S
O581 C562 1.242 . S
O582 Sm560 2.681 . S
O582 Sm561 2.386 . S
O582 C569 1.271 . S
O583 Sm560 2.464 . S
O583 C569 1.251 . S
O584 Sm560 2.396 . S
O584 C570 1.252 . S
O585 Sm561 2.408 . S
O585 C570 1.272 . S
O586 Sm561 2.543 . S
O586 C571 1.261 . S
O587 Sm561 2.450 . S
O587 C571 1.242 . S
O588 Sm560 2.386 . S
O588 Sm561 2.681 . S
O588 C578 1.271 . S
O589 Sm561 2.464 . S
O589 C578 1.251 . S
O590 Sm561 2.396 . S
O590 C579 1.252 . S
O591 Sm560 2.408 . S
O591 C579 1.272 . S
H592 C564 0.930 . S
H593 C565 0.929 . S
H594 C567 0.930 . S
H595 C568 0.929 . S
H596 C573 0.930 . S
H597 C574 0.929 . S
H598 C576 0.930 . S
H599 C577 0.929 . S
Sm600 C602 2.846 . S
Sm600 O620 2.543 . S
Sm600 O621 2.450 . S
Sm600 O622 2.681 . S
Sm600 O623 2.464 . S
Sm600 O624 2.396 . S
Sm600 O628 2.386 . S
Sm600 O631 2.408 . S
Sm601 C611 2.846 . S
Sm601 O622 2.386 . S
Sm601 O625 2.408 . S
Sm601 O626 2.543 . S
Sm601 O627 2.450 . S
Sm601 O628 2.681 . S
Sm601 O629 2.464 . S
Sm601 O630 2.396 . S
C602 Sm600 2.846 . S
C602 C603 1.506 . S
C602 O620 1.261 . S
C602 O621 1.242 . S
C603 C602 1.506 . S
C603 C604 1.358 . S
C603 C608 1.382 . S
C604 C603 1.358 . S
C604 C605 1.385 . S
C604 H632 0.930 . S
C605 C604 1.385 . S
C605 C606 1.395 . S
C605 H633 0.929 . S
C606 C605 1.395 . S
C606 C607 1.335 . S
C607 C606 1.335 . S
C607 C608 1.398 . S
C607 H634 0.930 . S
C608 C603 1.382 . S
C608 C607 1.398 . S
C608 H635 0.929 . S
C609 O622 1.271 . S
C609 O623 1.251 . S
C610 O624 1.252 . S
C610 O625 1.272 . S
C611 Sm601 2.846 . S
C611 C612 1.506 . S
C611 O626 1.261 . S
C611 O627 1.242 . S
C612 C611 1.506 . S
C612 C613 1.358 . S
C612 C617 1.382 . S
C613 C612 1.358 . S
C613 C614 1.385 . S
C613 H636 0.930 . S
C614 C613 1.385 . S
C614 C615 1.395 . S
C614 H637 0.929 . S
C615 C614 1.395 . S
C615 C616 1.335 . S
C616 C615 1.335 . S
C616 C617 1.398 . S
C616 H638 0.930 . S
C617 C612 1.382 . S
C617 C616 1.398 . S
C617 H639 0.929 . S
C618 O628 1.271 . S
C618 O629 1.251 . S
C619 O630 1.252 . S
C619 O631 1.272 . S
O620 Sm600 2.543 . S
O620 C602 1.261 . S
O621 Sm600 2.450 . S
O621 C602 1.242 . S
O622 Sm600 2.681 . S
O622 Sm601 2.386 . S
O622 C609 1.271 . S
O623 Sm600 2.464 . S
O623 C609 1.251 . S
O624 Sm600 2.396 . S
O624 C610 1.252 . S
O625 Sm601 2.408 . S
O625 C610 1.272 . S
O626 Sm601 2.543 . S
O626 C611 1.261 . S
O627 Sm601 2.450 . S
O627 C611 1.242 . S
O628 Sm600 2.386 . S
O628 Sm601 2.681 . S
O628 C618 1.271 . S
O629 Sm601 2.464 . S
O629 C618 1.251 . S
O630 Sm601 2.396 . S
O630 C619 1.252 . S
O631 Sm600 2.408 . S
O631 C619 1.272 . S
H632 C604 0.930 . S
H633 C605 0.929 . S
H634 C607 0.930 . S
H635 C608 0.929 . S
H636 C613 0.930 . S
H637 C614 0.929 . S
H638 C616 0.930 . S
H639 C617 0.929 . S
H640 C658 0.951 . S
H641 C660 0.951 . S
H642 C662 0.950 . S
H643 C663 0.950 . S
H644 C665 0.950 . S
H645 C668 0.950 . S
H646 C669 0.950 . S
H647 C671 0.950 . S
H648 C672 0.950 . S
H649 C673 0.951 . S
H650 C675 0.951 . S
H651 C677 0.950 . S
H652 C678 0.950 . S
H653 C680 0.950 . S
H654 C683 0.950 . S
H655 C684 0.950 . S
H656 C686 0.950 . S
H657 C687 0.950 . S
C658 H640 0.951 . S
C658 C659 1.366 . S
C658 C660 1.388 . S
C659 C658 1.366 . S
C659 C663 1.385 . S
C660 H641 0.951 . S
C660 C658 1.388 . S
C660 C661 1.366 . S
C661 C660 1.366 . S
C661 C662 1.414 . S
C661 C664 1.499 . S
C662 H642 0.950 . S
C662 C661 1.414 . S
C662 C663 1.374 . S
C663 H643 0.950 . S
C663 C659 1.385 . S
C663 C662 1.374 . S
C664 C661 1.499 . S
C664 C665 1.373 . S
C664 C666 1.389 . S
C665 H644 0.950 . S
C665 C664 1.373 . S
C665 C681 1.377 . S
C666 C664 1.389 . S
C666 C667 1.524 . S
C666 C680 1.377 . S
C667 C666 1.524 . S
C667 C668 1.397 . S
C667 C672 1.363 . S
C668 H645 0.950 . S
C668 C667 1.397 . S
C668 C669 1.334 . S
C669 H646 0.950 . S
C669 C668 1.334 . S
C669 C670 1.287 . S
C670 C669 1.287 . S
C670 C671 1.524 . S
C670 H689 0.913 . S
C671 H647 0.950 . S
C671 C670 1.524 . S
C671 C672 1.415 . S
C672 H648 0.950 . S
C672 C667 1.363 . S
C672 C671 1.415 . S
C673 H649 0.951 . S
C673 C674 1.366 . S
C673 C675 1.388 . S
C674 C673 1.366 . S
C674 C678 1.385 . S
C675 H650 0.951 . S
C675 C673 1.388 . S
C675 C676 1.366 . S
C676 C675 1.366 . S
C676 C677 1.414 . S
C676 C679 1.499 . S
C677 H651 0.950 . S
C677 C676 1.414 . S
C677 C678 1.374 . S
C678 H652 0.950 . S
C678 C674 1.385 . S
C678 C677 1.374 . S
C679 C676 1.499 . S
C679 C680 1.373 . S
C679 C681 1.389 . S
C680 H653 0.950 . S
C680 C666 1.377 . S
C680 C679 1.373 . S
C681 C665 1.377 . S
C681 C679 1.389 . S
C681 C682 1.524 . S
C682 C681 1.524 . S
C682 C683 1.397 . S
C682 C687 1.363 . S
C683 H654 0.950 . S
C683 C682 1.397 . S
C683 C684 1.334 . S
C684 H655 0.950 . S
C684 C683 1.334 . S
C684 C685 1.287 . S
C685 C684 1.287 . S
C685 C686 1.524 . S
C685 H688 0.999 . S
C686 H656 0.950 . S
C686 C685 1.524 . S
C686 C687 1.415 . S
C687 H657 0.950 . S
C687 C682 1.363 . S
C687 C686 1.415 . S
H688 C685 0.999 . S
H689 C670 0.913 . S
H690 C708 0.951 . S
H691 C710 0.951 . S
H692 C712 0.950 . S
H693 C713 0.950 . S
H694 C715 0.950 . S
H695 C718 0.950 . S
H696 C719 0.950 . S
H697 C721 0.950 . S
H698 C722 0.950 . S
H699 C723 0.951 . S
H700 C725 0.951 . S
H701 C727 0.950 . S
H702 C728 0.950 . S
H703 C730 0.950 . S
H704 C733 0.950 . S
H705 C734 0.950 . S
H706 C736 0.950 . S
H707 C737 0.950 . S
C708 H690 0.951 . S
C708 C709 1.366 . S
C708 C710 1.388 1_554 S
C709 C708 1.366 . S
C709 C713 1.385 . S
C710 H691 0.951 . S
C710 C708 1.388 1_556 S
C710 C711 1.366 . S
C711 C710 1.366 . S
C711 C712 1.414 . S
C711 C714 1.499 . S
C712 H692 0.950 . S
C712 C711 1.414 . S
C712 C713 1.374 1_556 S
C713 H693 0.950 . S
C713 C709 1.385 . S
C713 C712 1.374 1_554 S
C714 C711 1.499 . S
C714 C715 1.373 . S
C714 C716 1.389 . S
C715 H694 0.950 . S
C715 C714 1.373 . S
C715 C731 1.377 . S
C716 C714 1.389 . S
C716 C717 1.524 . S
C716 C730 1.377 . S
C717 C716 1.524 . S
C717 C718 1.397 . S
C717 C722 1.363 . S
C718 H695 0.950 . S
C718 C717 1.397 . S
C718 C719 1.334 . S
C719 H696 0.950 . S
C719 C718 1.334 . S
C719 C720 1.287 . S
C720 C719 1.287 . S
C720 C721 1.524 . S
C720 H739 0.913 . S
C721 H697 0.950 . S
C721 C720 1.524 . S
C721 C722 1.415 . S
C722 H698 0.950 . S
C722 C717 1.363 . S
C722 C721 1.415 . S
C723 H699 0.951 . S
C723 C724 1.366 . S
C723 C725 1.388 . S
C724 C723 1.366 . S
C724 C728 1.385 . S
C725 H700 0.951 . S
C725 C723 1.388 . S
C725 C726 1.366 . S
C726 C725 1.366 . S
C726 C727 1.414 . S
C726 C729 1.499 . S
C727 H701 0.950 . S
C727 C726 1.414 . S
C727 C728 1.374 . S
C728 H702 0.950 . S
C728 C724 1.385 . S
C728 C727 1.374 . S
C729 C726 1.499 . S
C729 C730 1.373 . S
C729 C731 1.389 . S
C730 H703 0.950 . S
C730 C716 1.377 . S
C730 C729 1.373 . S
C731 C715 1.377 . S
C731 C729 1.389 . S
C731 C732 1.524 . S
C732 C731 1.524 . S
C732 C733 1.397 . S
C732 C737 1.363 . S
C733 H704 0.950 . S
C733 C732 1.397 . S
C733 C734 1.334 . S
C734 H705 0.950 . S
C734 C733 1.334 . S
C734 C735 1.287 . S
C735 C734 1.287 . S
C735 C736 1.524 . S
C735 H738 0.999 . S
C736 H706 0.950 . S
C736 C735 1.524 . S
C736 C737 1.415 . S
C737 H707 0.950 . S
C737 C732 1.363 . S
C737 C736 1.415 . S
H738 C735 0.999 . S
H739 C720 0.913 . S
H740 C758 0.951 . S
H741 C760 0.951 . S
H742 C762 0.950 . S
H743 C763 0.950 . S
H744 C765 0.950 . S
H745 C768 0.950 . S
H746 C769 0.950 . S
H747 C771 0.950 . S
H748 C772 0.950 . S
H749 C773 0.951 . S
H750 C775 0.951 . S
H751 C777 0.950 . S
H752 C778 0.950 . S
H753 C780 0.950 . S
H754 C783 0.950 . S
H755 C784 0.950 . S
H756 C786 0.950 . S
H757 C787 0.950 . S
C758 H740 0.951 . S
C758 C759 1.366 . S
C758 C760 1.388 . S
C759 C758 1.366 . S
C759 C763 1.385 . S
C760 H741 0.951 . S
C760 C758 1.388 . S
C760 C761 1.366 . S
C761 C760 1.366 . S
C761 C762 1.414 . S
C761 C764 1.499 . S
C762 H742 0.950 . S
C762 C761 1.414 . S
C762 C763 1.374 . S
C763 H743 0.950 . S
C763 C759 1.385 . S
C763 C762 1.374 . S
C764 C761 1.499 . S
C764 C765 1.373 . S
C764 C766 1.389 . S
C765 H744 0.950 . S
C765 C764 1.373 . S
C765 C781 1.377 . S
C766 C764 1.389 . S
C766 C767 1.524 . S
C766 C780 1.377 . S
C767 C766 1.524 . S
C767 C768 1.397 . S
C767 C772 1.363 . S
C768 H745 0.950 . S
C768 C767 1.397 . S
C768 C769 1.334 . S
C769 H746 0.950 . S
C769 C768 1.334 . S
C769 C770 1.287 . S
C770 C769 1.287 . S
C770 C771 1.524 . S
C770 H789 0.913 . S
C771 H747 0.950 . S
C771 C770 1.524 . S
C771 C772 1.415 . S
C772 H748 0.950 . S
C772 C767 1.363 . S
C772 C771 1.415 . S
C773 H749 0.951 . S
C773 C774 1.366 . S
C773 C775 1.388 1_556 S
C774 C773 1.366 . S
C774 C778 1.385 . S
C775 H750 0.951 . S
C775 C773 1.388 1_554 S
C775 C776 1.366 . S
C776 C775 1.366 . S
C776 C777 1.414 . S
C776 C779 1.499 . S
C777 H751 0.950 . S
C777 C776 1.414 . S
C777 C778 1.374 1_554 S
C778 H752 0.950 . S
C778 C774 1.385 . S
C778 C777 1.374 1_556 S
C779 C776 1.499 . S
C779 C780 1.373 . S
C779 C781 1.389 . S
C780 H753 0.950 . S
C780 C766 1.377 . S
C780 C779 1.373 . S
C781 C765 1.377 . S
C781 C779 1.389 . S
C781 C782 1.524 . S
C782 C781 1.524 . S
C782 C783 1.397 . S
C782 C787 1.363 . S
C783 H754 0.950 . S
C783 C782 1.397 . S
C783 C784 1.334 . S
C784 H755 0.950 . S
C784 C783 1.334 . S
C784 C785 1.287 . S
C785 C784 1.287 . S
C785 C786 1.524 . S
C785 H788 0.999 . S
C786 H756 0.950 . S
C786 C785 1.524 . S
C786 C787 1.415 . S
C787 H757 0.950 . S
C787 C782 1.363 . S
C787 C786 1.415 . S
H788 C785 0.999 . S
H789 C770 0.913 . S
H790 C808 0.951 . S
H791 C810 0.951 . S
H792 C812 0.950 . S
H793 C813 0.950 . S
H794 C815 0.950 . S
H795 C818 0.950 . S
H796 C819 0.950 . S
H797 C821 0.950 . S
H798 C822 0.950 . S
H799 C823 0.951 . S
H800 C825 0.951 . S
H801 C827 0.950 . S
H802 C828 0.950 . S
H803 C830 0.950 . S
H804 C833 0.950 . S
H805 C834 0.950 . S
H806 C836 0.950 . S
H807 C837 0.950 . S
C808 H790 0.951 . S
C808 C809 1.366 . S
C808 C810 1.388 . S
C809 C808 1.366 . S
C809 C813 1.385 . S
C810 H791 0.951 . S
C810 C808 1.388 . S
C810 C811 1.366 . S
C811 C810 1.366 . S
C811 C812 1.414 . S
C811 C814 1.499 . S
C812 H792 0.950 . S
C812 C811 1.414 . S
C812 C813 1.374 . S
C813 H793 0.950 . S
C813 C809 1.385 . S
C813 C812 1.374 . S
C814 C811 1.499 . S
C814 C815 1.373 . S
C814 C816 1.389 . S
C815 H794 0.950 . S
C815 C814 1.373 . S
C815 C831 1.377 . S
C816 C814 1.389 . S
C816 C817 1.524 . S
C816 C830 1.377 . S
C817 C816 1.524 . S
C817 C818 1.397 . S
C817 C822 1.363 . S
C818 H795 0.950 . S
C818 C817 1.397 . S
C818 C819 1.334 . S
C819 H796 0.950 . S
C819 C818 1.334 . S
C819 C820 1.287 . S
C820 C819 1.287 . S
C820 C821 1.524 . S
C820 H839 0.913 . S
C821 H797 0.950 . S
C821 C820 1.524 . S
C821 C822 1.415 . S
C822 H798 0.950 . S
C822 C817 1.363 . S
C822 C821 1.415 . S
C823 H799 0.951 . S
C823 C824 1.366 . S
C823 C825 1.388 . S
C824 C823 1.366 . S
C824 C828 1.385 . S
C825 H800 0.951 . S
C825 C823 1.388 . S
C825 C826 1.366 . S
C826 C825 1.366 . S
C826 C827 1.414 . S
C826 C829 1.499 . S
C827 H801 0.950 . S
C827 C826 1.414 . S
C827 C828 1.374 . S
C828 H802 0.950 . S
C828 C824 1.385 . S
C828 C827 1.374 . S
C829 C826 1.499 . S
C829 C830 1.373 . S
C829 C831 1.389 . S
C830 H803 0.950 . S
C830 C816 1.377 . S
C830 C829 1.373 . S
C831 C815 1.377 . S
C831 C829 1.389 . S
C831 C832 1.524 . S
C832 C831 1.524 . S
C832 C833 1.397 . S
C832 C837 1.363 . S
C833 H804 0.950 . S
C833 C832 1.397 . S
C833 C834 1.334 . S
C834 H805 0.950 . S
C834 C833 1.334 . S
C834 C835 1.287 . S
C835 C834 1.287 . S
C835 C836 1.524 . S
C835 H838 0.999 . S
C836 H806 0.950 . S
C836 C835 1.524 . S
C836 C837 1.415 . S
C837 H807 0.950 . S
C837 C832 1.363 . S
C837 C836 1.415 . S
H838 C835 0.999 . S
H839 C820 0.913 . S
H840 C858 0.951 . S
H841 C860 0.951 . S
H842 C862 0.950 . S
H843 C863 0.950 . S
H844 C865 0.950 . S
H845 C868 0.950 . S
H846 C869 0.950 . S
H847 C871 0.950 . S
H848 C872 0.950 . S
H849 C873 0.951 . S
H850 C875 0.951 . S
H851 C877 0.950 . S
H852 C878 0.950 . S
H853 C880 0.950 . S
H854 C883 0.950 . S
H855 C884 0.950 . S
H856 C886 0.950 . S
H857 C887 0.950 . S
C858 H840 0.951 . S
C858 C859 1.366 . S
C858 C860 1.388 . S
C859 C858 1.366 . S
C859 C863 1.385 . S
C860 H841 0.951 . S
C860 C858 1.388 . S
C860 C861 1.366 . S
C861 C860 1.366 . S
C861 C862 1.414 . S
C861 C864 1.499 . S
C862 H842 0.950 . S
C862 C861 1.414 . S
C862 C863 1.374 . S
C863 H843 0.950 . S
C863 C859 1.385 . S
C863 C862 1.374 . S
C864 C861 1.499 . S
C864 C865 1.373 . S
C864 C866 1.389 . S
C865 H844 0.950 . S
C865 C864 1.373 . S
C865 C881 1.377 . S
C866 C864 1.389 . S
C866 C867 1.524 . S
C866 C880 1.377 . S
C867 C866 1.524 . S
C867 C868 1.397 . S
C867 C872 1.363 . S
C868 H845 0.950 . S
C868 C867 1.397 . S
C868 C869 1.334 . S
C869 H846 0.950 . S
C869 C868 1.334 . S
C869 C870 1.287 . S
C870 C869 1.287 . S
C870 C871 1.524 . S
C870 H889 0.913 . S
C871 H847 0.950 . S
C871 C870 1.524 . S
C871 C872 1.415 . S
C872 H848 0.950 . S
C872 C867 1.363 . S
C872 C871 1.415 . S
C873 H849 0.951 . S
C873 C874 1.366 . S
C873 C875 1.388 . S
C874 C873 1.366 . S
C874 C878 1.385 . S
C875 H850 0.951 . S
C875 C873 1.388 . S
C875 C876 1.366 . S
C876 C875 1.366 . S
C876 C877 1.414 . S
C876 C879 1.499 . S
C877 H851 0.950 . S
C877 C876 1.414 . S
C877 C878 1.374 . S
C878 H852 0.950 . S
C878 C874 1.385 . S
C878 C877 1.374 . S
C879 C876 1.499 . S
C879 C880 1.373 . S
C879 C881 1.389 . S
C880 H853 0.950 . S
C880 C866 1.377 . S
C880 C879 1.373 . S
C881 C865 1.377 . S
C881 C879 1.389 . S
C881 C882 1.524 . S
C882 C881 1.524 . S
C882 C883 1.397 . S
C882 C887 1.363 . S
C883 H854 0.950 . S
C883 C882 1.397 . S
C883 C884 1.334 . S
C884 H855 0.950 . S
C884 C883 1.334 . S
C884 C885 1.287 . S
C885 C884 1.287 . S
C885 C886 1.524 . S
C885 H888 0.999 . S
C886 H856 0.950 . S
C886 C885 1.524 . S
C886 C887 1.415 . S
C887 H857 0.950 . S
C887 C882 1.363 . S
C887 C886 1.415 . S
H888 C885 0.999 . S
H889 C870 0.913 . S
H890 C908 0.951 . S
H891 C910 0.951 . S
H892 C912 0.950 . S
H893 C913 0.950 . S
H894 C915 0.950 . S
H895 C918 0.950 . S
H896 C919 0.950 . S
H897 C921 0.950 . S
H898 C922 0.950 . S
H899 C923 0.951 . S
H900 C925 0.951 . S
H901 C927 0.950 . S
H902 C928 0.950 . S
H903 C930 0.950 . S
H904 C933 0.950 . S
H905 C934 0.950 . S
H906 C936 0.950 . S
H907 C937 0.950 . S
C908 H890 0.951 . S
C908 C909 1.366 . S
C908 C910 1.388 . S
C909 C908 1.366 . S
C909 C913 1.385 . S
C910 H891 0.951 . S
C910 C908 1.388 . S
C910 C911 1.366 . S
C911 C910 1.366 . S
C911 C912 1.414 . S
C911 C914 1.499 . S
C912 H892 0.950 . S
C912 C911 1.414 . S
C912 C913 1.374 . S
C913 H893 0.950 . S
C913 C909 1.385 . S
C913 C912 1.374 . S
C914 C911 1.499 . S
C914 C915 1.373 . S
C914 C916 1.389 . S
C915 H894 0.950 . S
C915 C914 1.373 . S
C915 C931 1.377 . S
C916 C914 1.389 . S
C916 C917 1.524 . S
C916 C930 1.377 . S
C917 C916 1.524 . S
C917 C918 1.397 . S
C917 C922 1.363 . S
C918 H895 0.950 . S
C918 C917 1.397 . S
C918 C919 1.334 . S
C919 H896 0.950 . S
C919 C918 1.334 . S
C919 C920 1.287 . S
C920 C919 1.287 . S
C920 C921 1.524 . S
C920 H939 0.913 . S
C921 H897 0.950 . S
C921 C920 1.524 . S
C921 C922 1.415 . S
C922 H898 0.950 . S
C922 C917 1.363 . S
C922 C921 1.415 . S
C923 H899 0.951 . S
C923 C924 1.366 . S
C923 C925 1.388 . S
C924 C923 1.366 . S
C924 C928 1.385 . S
C925 H900 0.951 . S
C925 C923 1.388 . S
C925 C926 1.366 . S
C926 C925 1.366 . S
C926 C927 1.414 . S
C926 C929 1.499 . S
C927 H901 0.950 . S
C927 C926 1.414 . S
C927 C928 1.374 . S
C928 H902 0.950 . S
C928 C924 1.385 . S
C928 C927 1.374 . S
C929 C926 1.499 . S
C929 C930 1.373 . S
C929 C931 1.389 . S
C930 H903 0.950 . S
C930 C916 1.377 . S
C930 C929 1.373 . S
C931 C915 1.377 . S
C931 C929 1.389 . S
C931 C932 1.524 . S
C932 C931 1.524 . S
C932 C933 1.397 . S
C932 C937 1.363 . S
C933 H904 0.950 . S
C933 C932 1.397 . S
C933 C934 1.334 . S
C934 H905 0.950 . S
C934 C933 1.334 . S
C934 C935 1.287 . S
C935 C934 1.287 . S
C935 C936 1.524 . S
C935 H938 0.999 . S
C936 H906 0.950 . S
C936 C935 1.524 . S
C936 C937 1.415 . S
C937 H907 0.950 . S
C937 C932 1.363 . S
C937 C936 1.415 . S
H938 C935 0.999 . S
H939 C920 0.913 . S
H940 C958 0.951 . S
H941 C960 0.951 . S
H942 C962 0.950 . S
H943 C963 0.950 . S
H944 C965 0.950 . S
H945 C968 0.950 . S
H946 C969 0.950 . S
H947 C971 0.950 . S
H948 C972 0.950 . S
H949 C973 0.951 . S
H950 C975 0.951 . S
H951 C977 0.950 . S
H952 C978 0.950 . S
H953 C980 0.950 . S
H954 C983 0.950 . S
H955 C984 0.950 . S
H956 C986 0.950 . S
H957 C987 0.950 . S
C958 H940 0.951 . S
C958 C959 1.366 . S
C958 C960 1.388 . S
C959 C958 1.366 . S
C959 C963 1.385 . S
C960 H941 0.951 . S
C960 C958 1.388 . S
C960 C961 1.366 . S
C961 C960 1.366 . S
C961 C962 1.414 . S
C961 C964 1.499 . S
C962 H942 0.950 . S
C962 C961 1.414 . S
C962 C963 1.374 . S
C963 H943 0.950 . S
C963 C959 1.385 . S
C963 C962 1.374 . S
C964 C961 1.499 . S
C964 C965 1.373 . S
C964 C966 1.389 . S
C965 H944 0.950 . S
C965 C964 1.373 . S
C965 C981 1.377 . S
C966 C964 1.389 . S
C966 C967 1.524 . S
C966 C980 1.377 . S
C967 C966 1.524 . S
C967 C968 1.397 . S
C967 C972 1.363 . S
C968 H945 0.950 . S
C968 C967 1.397 . S
C968 C969 1.334 . S
C969 H946 0.950 . S
C969 C968 1.334 . S
C969 C970 1.287 . S
C970 C969 1.287 . S
C970 C971 1.524 . S
C970 H989 0.913 . S
C971 H947 0.950 . S
C971 C970 1.524 . S
C971 C972 1.415 . S
C972 H948 0.950 . S
C972 C967 1.363 . S
C972 C971 1.415 . S
C973 H949 0.951 . S
C973 C974 1.366 . S
C973 C975 1.388 1_554 S
C974 C973 1.366 . S
C974 C978 1.385 . S
C975 H950 0.951 . S
C975 C973 1.388 1_556 S
C975 C976 1.366 . S
C976 C975 1.366 . S
C976 C977 1.414 . S
C976 C979 1.499 . S
C977 H951 0.950 . S
C977 C976 1.414 . S
C977 C978 1.374 1_556 S
C978 H952 0.950 . S
C978 C974 1.385 . S
C978 C977 1.374 1_554 S
C979 C976 1.499 . S
C979 C980 1.373 . S
C979 C981 1.389 . S
C980 H953 0.950 . S
C980 C966 1.377 . S
C980 C979 1.373 . S
C981 C965 1.377 . S
C981 C979 1.389 . S
C981 C982 1.524 . S
C982 C981 1.524 . S
C982 C983 1.397 . S
C982 C987 1.363 . S
C983 H954 0.950 . S
C983 C982 1.397 . S
C983 C984 1.334 . S
C984 H955 0.950 . S
C984 C983 1.334 . S
C984 C985 1.287 . S
C985 C984 1.287 . S
C985 C986 1.524 . S
C985 H988 0.999 . S
C986 H956 0.950 . S
C986 C985 1.524 . S
C986 C987 1.415 . S
C987 H957 0.950 . S
C987 C982 1.363 . S
C987 C986 1.415 . S
H988 C985 0.999 . S
H989 C970 0.913 . S
H990 C1008 0.951 . S
H991 C1010 0.951 . S
H992 C1012 0.950 . S
H993 C1013 0.950 . S
H994 C1015 0.950 . S
H995 C1018 0.950 . S
H996 C1019 0.950 . S
H997 C1021 0.950 . S
H998 C1022 0.950 . S
H999 C1023 0.951 . S
H1000 C1025 0.951 . S
H1001 C1027 0.950 . S
H1002 C1028 0.950 . S
H1003 C1030 0.950 . S
H1004 C1033 0.950 . S
H1005 C1034 0.950 . S
H1006 C1036 0.950 . S
H1007 C1037 0.950 . S
C1008 H990 0.951 . S
C1008 C1009 1.366 . S
C1008 C1010 1.388 1_556 S
C1009 C1008 1.366 . S
C1009 C1013 1.385 . S
C1010 H991 0.951 . S
C1010 C1008 1.388 1_554 S
C1010 C1011 1.366 . S
C1011 C1010 1.366 . S
C1011 C1012 1.414 . S
C1011 C1014 1.499 . S
C1012 H992 0.950 . S
C1012 C1011 1.414 . S
C1012 C1013 1.374 1_554 S
C1013 H993 0.950 . S
C1013 C1009 1.385 . S
C1013 C1012 1.374 1_556 S
C1014 C1011 1.499 . S
C1014 C1015 1.373 . S
C1014 C1016 1.389 . S
C1015 H994 0.950 . S
C1015 C1014 1.373 . S
C1015 C1031 1.377 . S
C1016 C1014 1.389 . S
C1016 C1017 1.524 . S
C1016 C1030 1.377 . S
C1017 C1016 1.524 . S
C1017 C1018 1.397 . S
C1017 C1022 1.363 . S
C1018 H995 0.950 . S
C1018 C1017 1.397 . S
C1018 C1019 1.334 . S
C1019 H996 0.950 . S
C1019 C1018 1.334 . S
C1019 C1020 1.287 . S
C1020 C1019 1.287 . S
C1020 C1021 1.524 . S
C1020 H1039 0.913 . S
C1021 H997 0.950 . S
C1021 C1020 1.524 . S
C1021 C1022 1.415 . S
C1022 H998 0.950 . S
C1022 C1017 1.363 . S
C1022 C1021 1.415 . S
C1023 H999 0.951 . S
C1023 C1024 1.366 . S
C1023 C1025 1.388 . S
C1024 C1023 1.366 . S
C1024 C1028 1.385 . S
C1025 H1000 0.951 . S
C1025 C1023 1.388 . S
C1025 C1026 1.366 . S
C1026 C1025 1.366 . S
C1026 C1027 1.414 . S
C1026 C1029 1.499 . S
C1027 H1001 0.950 . S
C1027 C1026 1.414 . S
C1027 C1028 1.374 . S
C1028 H1002 0.950 . S
C1028 C1024 1.385 . S
C1028 C1027 1.374 . S
C1029 C1026 1.499 . S
C1029 C1030 1.373 . S
C1029 C1031 1.389 . S
C1030 H1003 0.950 . S
C1030 C1016 1.377 . S
C1030 C1029 1.373 . S
C1031 C1015 1.377 . S
C1031 C1029 1.389 . S
C1031 C1032 1.524 . S
C1032 C1031 1.524 . S
C1032 C1033 1.397 . S
C1032 C1037 1.363 . S
C1033 H1004 0.950 . S
C1033 C1032 1.397 . S
C1033 C1034 1.334 . S
C1034 H1005 0.950 . S
C1034 C1033 1.334 . S
C1034 C1035 1.287 . S
C1035 C1034 1.287 . S
C1035 C1036 1.524 . S
C1035 H1038 0.999 . S
C1036 H1006 0.950 . S
C1036 C1035 1.524 . S
C1036 C1037 1.415 . S
C1037 H1007 0.950 . S
C1037 C1032 1.363 . S
C1037 C1036 1.415 . S
H1038 C1035 0.999 . S
H1039 C1020 0.913 . S
H1040 C1058 0.951 . S
H1041 C1060 0.951 . S
H1042 C1062 0.950 . S
H1043 C1063 0.950 . S
H1044 C1065 0.950 . S
H1045 C1068 0.950 . S
H1046 C1069 0.950 . S
H1047 C1071 0.950 . S
H1048 C1072 0.950 . S
H1049 C1073 0.951 . S
H1050 C1075 0.951 . S
H1051 C1077 0.950 . S
H1052 C1078 0.950 . S
H1053 C1080 0.950 . S
H1054 C1083 0.950 . S
H1055 C1084 0.950 . S
H1056 C1086 0.950 . S
H1057 C1087 0.950 . S
C1058 H1040 0.951 . S
C1058 C1059 1.366 . S
C1058 C1060 1.388 . S
C1059 C1058 1.366 . S
C1059 C1063 1.385 . S
C1060 H1041 0.951 . S
C1060 C1058 1.388 . S
C1060 C1061 1.366 . S
C1061 C1060 1.366 . S
C1061 C1062 1.414 . S
C1061 C1064 1.499 . S
C1062 H1042 0.950 . S
C1062 C1061 1.414 . S
C1062 C1063 1.374 . S
C1063 H1043 0.950 . S
C1063 C1059 1.385 . S
C1063 C1062 1.374 . S
C1064 C1061 1.499 . S
C1064 C1065 1.373 . S
C1064 C1066 1.389 . S
C1065 H1044 0.950 . S
C1065 C1064 1.373 . S
C1065 C1081 1.377 . S
C1066 C1064 1.389 . S
C1066 C1067 1.524 . S
C1066 C1080 1.377 . S
C1067 C1066 1.524 . S
C1067 C1068 1.397 . S
C1067 C1072 1.363 . S
C1068 H1045 0.950 . S
C1068 C1067 1.397 . S
C1068 C1069 1.334 . S
C1069 H1046 0.950 . S
C1069 C1068 1.334 . S
C1069 C1070 1.287 . S
C1070 C1069 1.287 . S
C1070 C1071 1.524 . S
C1070 H1089 0.913 . S
C1071 H1047 0.950 . S
C1071 C1070 1.524 . S
C1071 C1072 1.415 . S
C1072 H1048 0.950 . S
C1072 C1067 1.363 . S
C1072 C1071 1.415 . S
C1073 H1049 0.951 . S
C1073 C1074 1.366 . S
C1073 C1075 1.388 . S
C1074 C1073 1.366 . S
C1074 C1078 1.385 . S
C1075 H1050 0.951 . S
C1075 C1073 1.388 . S
C1075 C1076 1.366 . S
C1076 C1075 1.366 . S
C1076 C1077 1.414 . S
C1076 C1079 1.499 . S
C1077 H1051 0.950 . S
C1077 C1076 1.414 . S
C1077 C1078 1.374 . S
C1078 H1052 0.950 . S
C1078 C1074 1.385 . S
C1078 C1077 1.374 . S
C1079 C1076 1.499 . S
C1079 C1080 1.373 . S
C1079 C1081 1.389 . S
C1080 H1053 0.950 . S
C1080 C1066 1.377 . S
C1080 C1079 1.373 . S
C1081 C1065 1.377 . S
C1081 C1079 1.389 . S
C1081 C1082 1.524 . S
C1082 C1081 1.524 . S
C1082 C1083 1.397 . S
C1082 C1087 1.363 . S
C1083 H1054 0.950 . S
C1083 C1082 1.397 . S
C1083 C1084 1.334 . S
C1084 H1055 0.950 . S
C1084 C1083 1.334 . S
C1084 C1085 1.287 . S
C1085 C1084 1.287 . S
C1085 C1086 1.524 . S
C1085 H1088 0.999 . S
C1086 H1056 0.950 . S
C1086 C1085 1.524 . S
C1086 C1087 1.415 . S
C1087 H1057 0.950 . S
C1087 C1082 1.363 . S
C1087 C1086 1.415 . S
H1088 C1085 0.999 . S
H1089 C1070 0.913 . S
H1090 C1108 0.951 . S
H1091 C1110 0.951 . S
H1092 C1112 0.950 . S
H1093 C1113 0.950 . S
H1094 C1115 0.950 . S
H1095 C1118 0.950 . S
H1096 C1119 0.950 . S
H1097 C1121 0.950 . S
H1098 C1122 0.950 . S
H1099 C1123 0.951 . S
H1100 C1125 0.951 . S
H1101 C1127 0.950 . S
H1102 C1128 0.950 . S
H1103 C1130 0.950 . S
H1104 C1133 0.950 . S
H1105 C1134 0.950 1_556 S
H1106 C1136 0.950 . S
H1107 C1137 0.950 . S
C1108 H1090 0.951 . S
C1108 C1109 1.366 . S
C1108 C1110 1.388 . S
C1109 C1108 1.366 . S
C1109 C1113 1.385 . S
C1110 H1091 0.951 . S
C1110 C1108 1.388 . S
C1110 C1111 1.366 . S
C1111 C1110 1.366 . S
C1111 C1112 1.414 . S
C1111 C1114 1.499 . S
C1112 H1092 0.950 . S
C1112 C1111 1.414 . S
C1112 C1113 1.374 . S
C1113 H1093 0.950 . S
C1113 C1109 1.385 . S
C1113 C1112 1.374 . S
C1114 C1111 1.499 . S
C1114 C1115 1.373 . S
C1114 C1116 1.389 . S
C1115 H1094 0.950 . S
C1115 C1114 1.373 . S
C1115 C1131 1.377 . S
C1116 C1114 1.389 . S
C1116 C1117 1.524 . S
C1116 C1130 1.377 . S
C1117 C1116 1.524 . S
C1117 C1118 1.397 . S
C1117 C1122 1.363 . S
C1118 H1095 0.950 . S
C1118 C1117 1.397 . S
C1118 C1119 1.334 . S
C1119 H1096 0.950 . S
C1119 C1118 1.334 . S
C1119 C1120 1.287 . S
C1120 C1119 1.287 . S
C1120 C1121 1.524 . S
C1120 H1139 0.913 . S
C1121 H1097 0.950 . S
C1121 C1120 1.524 . S
C1121 C1122 1.415 . S
C1122 H1098 0.950 . S
C1122 C1117 1.363 . S
C1122 C1121 1.415 . S
C1123 H1099 0.951 . S
C1123 C1124 1.366 . S
C1123 C1125 1.388 1_556 S
C1124 C1123 1.366 . S
C1124 C1128 1.385 . S
C1125 H1100 0.951 . S
C1125 C1123 1.388 1_554 S
C1125 C1126 1.366 . S
C1126 C1125 1.366 . S
C1126 C1127 1.414 . S
C1126 C1129 1.499 . S
C1127 H1101 0.950 . S
C1127 C1126 1.414 . S
C1127 C1128 1.374 1_554 S
C1128 H1102 0.950 . S
C1128 C1124 1.385 . S
C1128 C1127 1.374 1_556 S
C1129 C1126 1.499 . S
C1129 C1130 1.373 . S
C1129 C1131 1.389 . S
C1130 H1103 0.950 . S
C1130 C1116 1.377 . S
C1130 C1129 1.373 . S
C1131 C1115 1.377 . S
C1131 C1129 1.389 . S
C1131 C1132 1.524 . S
C1132 C1131 1.524 . S
C1132 C1133 1.397 . S
C1132 C1137 1.363 . S
C1133 H1104 0.950 . S
C1133 C1132 1.397 . S
C1133 C1134 1.334 . S
C1134 H1105 0.950 1_554 S
C1134 C1133 1.334 . S
C1134 C1135 1.287 . S
C1135 C1134 1.287 . S
C1135 C1136 1.524 . S
C1135 H1138 0.999 . S
C1136 H1106 0.950 . S
C1136 C1135 1.524 . S
C1136 C1137 1.415 . S
C1137 H1107 0.950 . S
C1137 C1132 1.363 . S
C1137 C1136 1.415 . S
H1138 C1135 0.999 . S
H1139 C1120 0.913 . S
H1140 C1158 0.951 . S
H1141 C1160 0.951 . S
H1142 C1162 0.950 . S
H1143 C1163 0.950 . S
H1144 C1165 0.950 . S
H1145 C1168 0.950 . S
H1146 C1169 0.950 . S
H1147 C1171 0.950 . S
H1148 C1172 0.950 . S
H1149 C1173 0.951 . S
H1150 C1175 0.951 . S
H1151 C1177 0.950 . S
H1152 C1178 0.950 . S
H1153 C1180 0.950 . S
H1154 C1183 0.950 . S
H1155 C1184 0.950 . S
H1156 C1186 0.950 . S
H1157 C1187 0.950 . S
C1158 H1140 0.951 . S
C1158 C1159 1.366 . S
C1158 C1160 1.388 1_554 S
C1159 C1158 1.366 . S
C1159 C1163 1.385 . S
C1160 H1141 0.951 . S
C1160 C1158 1.388 1_556 S
C1160 C1161 1.366 . S
C1161 C1160 1.366 . S
C1161 C1162 1.414 . S
C1161 C1164 1.499 . S
C1162 H1142 0.950 . S
C1162 C1161 1.414 . S
C1162 C1163 1.374 1_556 S
C1163 H1143 0.950 . S
C1163 C1159 1.385 . S
C1163 C1162 1.374 1_554 S
C1164 C1161 1.499 . S
C1164 C1165 1.373 . S
C1164 C1166 1.389 . S
C1165 H1144 0.950 . S
C1165 C1164 1.373 . S
C1165 C1181 1.377 . S
C1166 C1164 1.389 . S
C1166 C1167 1.524 . S
C1166 C1180 1.377 . S
C1167 C1166 1.524 . S
C1167 C1168 1.397 . S
C1167 C1172 1.363 . S
C1168 H1145 0.950 . S
C1168 C1167 1.397 . S
C1168 C1169 1.334 . S
C1169 H1146 0.950 . S
C1169 C1168 1.334 . S
C1169 C1170 1.287 . S
C1170 C1169 1.287 . S
C1170 C1171 1.524 . S
C1170 H1189 0.913 . S
C1171 H1147 0.950 . S
C1171 C1170 1.524 . S
C1171 C1172 1.415 . S
C1172 H1148 0.950 . S
C1172 C1167 1.363 . S
C1172 C1171 1.415 . S
C1173 H1149 0.951 . S
C1173 C1174 1.366 . S
C1173 C1175 1.388 . S
C1174 C1173 1.366 . S
C1174 C1178 1.385 . S
C1175 H1150 0.951 . S
C1175 C1173 1.388 . S
C1175 C1176 1.366 . S
C1176 C1175 1.366 . S
C1176 C1177 1.414 . S
C1176 C1179 1.499 . S
C1177 H1151 0.950 . S
C1177 C1176 1.414 . S
C1177 C1178 1.374 . S
C1178 H1152 0.950 . S
C1178 C1174 1.385 . S
C1178 C1177 1.374 . S
C1179 C1176 1.499 . S
C1179 C1180 1.373 . S
C1179 C1181 1.389 . S
C1180 H1153 0.950 . S
C1180 C1166 1.377 . S
C1180 C1179 1.373 . S
C1181 C1165 1.377 . S
C1181 C1179 1.389 . S
C1181 C1182 1.524 . S
C1182 C1181 1.524 . S
C1182 C1183 1.397 . S
C1182 C1187 1.363 . S
C1183 H1154 0.950 . S
C1183 C1182 1.397 . S
C1183 C1184 1.334 . S
C1184 H1155 0.950 . S
C1184 C1183 1.334 . S
C1184 C1185 1.287 . S
C1185 C1184 1.287 . S
C1185 C1186 1.524 . S
C1185 H1188 0.999 . S
C1186 H1156 0.950 . S
C1186 C1185 1.524 . S
C1186 C1187 1.415 . S
C1187 H1157 0.950 . S
C1187 C1182 1.363 . S
C1187 C1186 1.415 . S
H1188 C1185 0.999 . S
H1189 C1170 0.913 . S
H1190 C1208 0.951 . S
H1191 C1210 0.951 . S
H1192 C1212 0.950 . S
H1193 C1213 0.950 . S
H1194 C1215 0.950 . S
H1195 C1218 0.950 . S
H1196 C1219 0.950 . S
H1197 C1221 0.950 . S
H1198 C1222 0.950 . S
H1199 C1223 0.951 . S
H1200 C1225 0.951 . S
H1201 C1227 0.950 . S
H1202 C1228 0.950 . S
H1203 C1230 0.950 . S
H1204 C1233 0.950 . S
H1205 C1234 0.950 . S
H1206 C1236 0.950 . S
H1207 C1237 0.950 . S
C1208 H1190 0.951 . S
C1208 C1209 1.366 . S
C1208 C1210 1.388 . S
C1209 C1208 1.366 . S
C1209 C1213 1.385 . S
C1210 H1191 0.951 . S
C1210 C1208 1.388 . S
C1210 C1211 1.366 . S
C1211 C1210 1.366 . S
C1211 C1212 1.414 . S
C1211 C1214 1.499 . S
C1212 H1192 0.950 . S
C1212 C1211 1.414 . S
C1212 C1213 1.374 . S
C1213 H1193 0.950 . S
C1213 C1209 1.385 . S
C1213 C1212 1.374 . S
C1214 C1211 1.499 . S
C1214 C1215 1.373 . S
C1214 C1216 1.389 . S
C1215 H1194 0.950 . S
C1215 C1214 1.373 . S
C1215 C1231 1.377 . S
C1216 C1214 1.389 . S
C1216 C1217 1.524 . S
C1216 C1230 1.377 . S
C1217 C1216 1.524 . S
C1217 C1218 1.397 . S
C1217 C1222 1.363 . S
C1218 H1195 0.950 . S
C1218 C1217 1.397 . S
C1218 C1219 1.334 . S
C1219 H1196 0.950 . S
C1219 C1218 1.334 . S
C1219 C1220 1.287 . S
C1220 C1219 1.287 . S
C1220 C1221 1.524 . S
C1220 H1239 0.913 . S
C1221 H1197 0.950 . S
C1221 C1220 1.524 . S
C1221 C1222 1.415 . S
C1222 H1198 0.950 . S
C1222 C1217 1.363 . S
C1222 C1221 1.415 . S
C1223 H1199 0.951 . S
C1223 C1224 1.366 . S
C1223 C1225 1.388 . S
C1224 C1223 1.366 . S
C1224 C1228 1.385 . S
C1225 H1200 0.951 . S
C1225 C1223 1.388 . S
C1225 C1226 1.366 . S
C1226 C1225 1.366 . S
C1226 C1227 1.414 . S
C1226 C1229 1.499 . S
C1227 H1201 0.950 . S
C1227 C1226 1.414 . S
C1227 C1228 1.374 . S
C1228 H1202 0.950 . S
C1228 C1224 1.385 . S
C1228 C1227 1.374 . S
C1229 C1226 1.499 . S
C1229 C1230 1.373 . S
C1229 C1231 1.389 . S
C1230 H1203 0.950 . S
C1230 C1216 1.377 . S
C1230 C1229 1.373 . S
C1231 C1215 1.377 . S
C1231 C1229 1.389 . S
C1231 C1232 1.524 . S
C1232 C1231 1.524 . S
C1232 C1233 1.397 . S
C1232 C1237 1.363 . S
C1233 H1204 0.950 . S
C1233 C1232 1.397 . S
C1233 C1234 1.334 . S
C1234 H1205 0.950 . S
C1234 C1233 1.334 . S
C1234 C1235 1.287 . S
C1235 C1234 1.287 . S
C1235 C1236 1.524 . S
C1235 H1238 0.999 . S
C1236 H1206 0.950 . S
C1236 C1235 1.524 . S
C1236 C1237 1.415 . S
C1237 H1207 0.950 . S
C1237 C1232 1.363 . S
C1237 C1236 1.415 . S
H1238 C1235 0.999 . S
H1239 C1220 0.913 . S
H1240 C1258 0.951 . S
H1241 C1260 0.951 . S
H1242 C1262 0.950 . S
H1243 C1263 0.950 . S
H1244 C1265 0.950 . S
H1245 C1268 0.950 . S
H1246 C1269 0.950 . S
H1247 C1271 0.950 . S
H1248 C1272 0.950 . S
H1249 C1273 0.951 . S
H1250 C1275 0.951 . S
H1251 C1277 0.950 . S
H1252 C1278 0.950 . S
H1253 C1280 0.950 . S
H1254 C1283 0.950 . S
H1255 C1284 0.950 . S
H1256 C1286 0.950 . S
H1257 C1287 0.950 . S
C1258 H1240 0.951 . S
C1258 C1259 1.366 . S
C1258 C1260 1.388 . S
C1259 C1258 1.366 . S
C1259 C1263 1.385 . S
C1260 H1241 0.951 . S
C1260 C1258 1.388 . S
C1260 C1261 1.366 . S
C1261 C1260 1.366 . S
C1261 C1262 1.414 . S
C1261 C1264 1.499 . S
C1262 H1242 0.950 . S
C1262 C1261 1.414 . S
C1262 C1263 1.374 . S
C1263 H1243 0.950 . S
C1263 C1259 1.385 . S
C1263 C1262 1.374 . S
C1264 C1261 1.499 . S
C1264 C1265 1.373 . S
C1264 C1266 1.389 . S
C1265 H1244 0.950 . S
C1265 C1264 1.373 . S
C1265 C1281 1.377 . S
C1266 C1264 1.389 . S
C1266 C1267 1.524 . S
C1266 C1280 1.377 . S
C1267 C1266 1.524 . S
C1267 C1268 1.397 . S
C1267 C1272 1.363 . S
C1268 H1245 0.950 . S
C1268 C1267 1.397 . S
C1268 C1269 1.334 . S
C1269 H1246 0.950 . S
C1269 C1268 1.334 . S
C1269 C1270 1.287 . S
C1270 C1269 1.287 . S
C1270 C1271 1.524 . S
C1270 H1289 0.913 . S
C1271 H1247 0.950 . S
C1271 C1270 1.524 . S
C1271 C1272 1.415 . S
C1272 H1248 0.950 . S
C1272 C1267 1.363 . S
C1272 C1271 1.415 . S
C1273 H1249 0.951 . S
C1273 C1274 1.366 . S
C1273 C1275 1.388 . S
C1274 C1273 1.366 . S
C1274 C1278 1.385 . S
C1275 H1250 0.951 . S
C1275 C1273 1.388 . S
C1275 C1276 1.366 . S
C1276 C1275 1.366 . S
C1276 C1277 1.414 . S
C1276 C1279 1.499 . S
C1277 H1251 0.950 . S
C1277 C1276 1.414 . S
C1277 C1278 1.374 . S
C1278 H1252 0.950 . S
C1278 C1274 1.385 . S
C1278 C1277 1.374 . S
C1279 C1276 1.499 . S
C1279 C1280 1.373 . S
C1279 C1281 1.389 . S
C1280 H1253 0.950 . S
C1280 C1266 1.377 . S
C1280 C1279 1.373 . S
C1281 C1265 1.377 . S
C1281 C1279 1.389 . S
C1281 C1282 1.524 . S
C1282 C1281 1.524 . S
C1282 C1283 1.397 . S
C1282 C1287 1.363 . S
C1283 H1254 0.950 . S
C1283 C1282 1.397 . S
C1283 C1284 1.334 . S
C1284 H1255 0.950 . S
C1284 C1283 1.334 . S
C1284 C1285 1.287 . S
C1285 C1284 1.287 . S
C1285 C1286 1.524 . S
C1285 H1288 0.999 . S
C1286 H1256 0.950 . S
C1286 C1285 1.524 . S
C1286 C1287 1.415 . S
C1287 H1257 0.950 . S
C1287 C1282 1.363 . S
C1287 C1286 1.415 . S
H1288 C1285 0.999 . S
H1289 C1270 0.913 . S
H1290 C1308 0.951 . S
H1291 C1310 0.951 . S
H1292 C1312 0.950 . S
H1293 C1313 0.950 . S
H1294 C1315 0.950 . S
H1295 C1318 0.950 . S
H1296 C1319 0.950 . S
H1297 C1321 0.950 . S
H1298 C1322 0.950 . S
H1299 C1323 0.951 . S
H1300 C1325 0.951 . S
H1301 C1327 0.950 . S
H1302 C1328 0.950 . S
H1303 C1330 0.950 . S
H1304 C1333 0.950 . S
H1305 C1334 0.950 . S
H1306 C1336 0.950 . S
H1307 C1337 0.950 . S
C1308 H1290 0.951 . S
C1308 C1309 1.366 . S
C1308 C1310 1.388 . S
C1309 C1308 1.366 . S
C1309 C1313 1.385 . S
C1310 H1291 0.951 . S
C1310 C1308 1.388 . S
C1310 C1311 1.366 . S
C1311 C1310 1.366 . S
C1311 C1312 1.414 . S
C1311 C1314 1.499 . S
C1312 H1292 0.950 . S
C1312 C1311 1.414 . S
C1312 C1313 1.374 . S
C1313 H1293 0.950 . S
C1313 C1309 1.385 . S
C1313 C1312 1.374 . S
C1314 C1311 1.499 . S
C1314 C1315 1.373 . S
C1314 C1316 1.389 . S
C1315 H1294 0.950 . S
C1315 C1314 1.373 . S
C1315 C1331 1.377 . S
C1316 C1314 1.389 . S
C1316 C1317 1.524 . S
C1316 C1330 1.377 . S
C1317 C1316 1.524 . S
C1317 C1318 1.397 . S
C1317 C1322 1.363 . S
C1318 H1295 0.950 . S
C1318 C1317 1.397 . S
C1318 C1319 1.334 . S
C1319 H1296 0.950 . S
C1319 C1318 1.334 . S
C1319 C1320 1.287 . S
C1320 C1319 1.287 . S
C1320 C1321 1.524 . S
C1320 H1339 0.913 . S
C1321 H1297 0.950 . S
C1321 C1320 1.524 . S
C1321 C1322 1.415 . S
C1322 H1298 0.950 . S
C1322 C1317 1.363 . S
C1322 C1321 1.415 . S
C1323 H1299 0.951 . S
C1323 C1324 1.366 . S
C1323 C1325 1.388 . S
C1324 C1323 1.366 . S
C1324 C1328 1.385 . S
C1325 H1300 0.951 . S
C1325 C1323 1.388 . S
C1325 C1326 1.366 . S
C1326 C1325 1.366 . S
C1326 C1327 1.414 . S
C1326 C1329 1.499 . S
C1327 H1301 0.950 . S
C1327 C1326 1.414 . S
C1327 C1328 1.374 . S
C1328 H1302 0.950 . S
C1328 C1324 1.385 . S
C1328 C1327 1.374 . S
C1329 C1326 1.499 . S
C1329 C1330 1.373 . S
C1329 C1331 1.389 . S
C1330 H1303 0.950 . S
C1330 C1316 1.377 . S
C1330 C1329 1.373 . S
C1331 C1315 1.377 . S
C1331 C1329 1.389 . S
C1331 C1332 1.524 . S
C1332 C1331 1.524 . S
C1332 C1333 1.397 . S
C1332 C1337 1.363 . S
C1333 H1304 0.950 . S
C1333 C1332 1.397 . S
C1333 C1334 1.334 . S
C1334 H1305 0.950 . S
C1334 C1333 1.334 . S
C1334 C1335 1.287 . S
C1335 C1334 1.287 . S
C1335 C1336 1.524 . S
C1335 H1338 0.999 . S
C1336 H1306 0.950 . S
C1336 C1335 1.524 . S
C1336 C1337 1.415 . S
C1337 H1307 0.950 . S
C1337 C1332 1.363 . S
C1337 C1336 1.415 . S
H1338 C1335 0.999 . S
H1339 C1320 0.913 . S
H1340 C1358 0.951 . S
H1341 C1360 0.951 . S
H1342 C1362 0.950 . S
H1343 C1363 0.950 . S
H1344 C1365 0.950 . S
H1345 C1368 0.950 . S
H1346 C1369 0.950 . S
H1347 C1371 0.950 . S
H1348 C1372 0.950 . S
H1349 C1373 0.951 . S
H1350 C1375 0.951 . S
H1351 C1377 0.950 . S
H1352 C1378 0.950 . S
H1353 C1380 0.950 . S
H1354 C1383 0.950 . S
H1355 C1384 0.950 . S
H1356 C1386 0.950 . S
H1357 C1387 0.950 . S
C1358 H1340 0.951 . S
C1358 C1359 1.366 . S
C1358 C1360 1.388 . S
C1359 C1358 1.366 . S
C1359 C1363 1.385 . S
C1360 H1341 0.951 . S
C1360 C1358 1.388 . S
C1360 C1361 1.366 . S
C1361 C1360 1.366 . S
C1361 C1362 1.414 . S
C1361 C1364 1.499 . S
C1362 H1342 0.950 . S
C1362 C1361 1.414 . S
C1362 C1363 1.374 . S
C1363 H1343 0.950 . S
C1363 C1359 1.385 . S
C1363 C1362 1.374 . S
C1364 C1361 1.499 . S
C1364 C1365 1.373 . S
C1364 C1366 1.389 . S
C1365 H1344 0.950 . S
C1365 C1364 1.373 . S
C1365 C1381 1.377 . S
C1366 C1364 1.389 . S
C1366 C1367 1.524 . S
C1366 C1380 1.377 . S
C1367 C1366 1.524 . S
C1367 C1368 1.397 . S
C1367 C1372 1.363 . S
C1368 H1345 0.950 . S
C1368 C1367 1.397 . S
C1368 C1369 1.334 . S
C1369 H1346 0.950 . S
C1369 C1368 1.334 . S
C1369 C1370 1.287 . S
C1370 C1369 1.287 . S
C1370 C1371 1.524 . S
C1370 H1389 0.913 . S
C1371 H1347 0.950 . S
C1371 C1370 1.524 . S
C1371 C1372 1.415 . S
C1372 H1348 0.950 . S
C1372 C1367 1.363 . S
C1372 C1371 1.415 . S
C1373 H1349 0.951 . S
C1373 C1374 1.366 . S
C1373 C1375 1.388 1_556 S
C1374 C1373 1.366 . S
C1374 C1378 1.385 . S
C1375 H1350 0.951 . S
C1375 C1373 1.388 1_554 S
C1375 C1376 1.366 . S
C1376 C1375 1.366 . S
C1376 C1377 1.414 . S
C1376 C1379 1.499 . S
C1377 H1351 0.950 . S
C1377 C1376 1.414 . S
C1377 C1378 1.374 1_554 S
C1378 H1352 0.950 . S
C1378 C1374 1.385 . S
C1378 C1377 1.374 1_556 S
C1379 C1376 1.499 . S
C1379 C1380 1.373 . S
C1379 C1381 1.389 . S
C1380 H1353 0.950 . S
C1380 C1366 1.377 . S
C1380 C1379 1.373 . S
C1381 C1365 1.377 . S
C1381 C1379 1.389 . S
C1381 C1382 1.524 . S
C1382 C1381 1.524 . S
C1382 C1383 1.397 . S
C1382 C1387 1.363 . S
C1383 H1354 0.950 . S
C1383 C1382 1.397 . S
C1383 C1384 1.334 . S
C1384 H1355 0.950 . S
C1384 C1383 1.334 . S
C1384 C1385 1.287 . S
C1385 C1384 1.287 . S
C1385 C1386 1.524 . S
C1385 H1388 0.999 . S
C1386 H1356 0.950 . S
C1386 C1385 1.524 . S
C1386 C1387 1.415 . S
C1387 H1357 0.950 . S
C1387 C1382 1.363 . S
C1387 C1386 1.415 . S
H1388 C1385 0.999 . S
H1389 C1370 0.913 . S
H1390 C1408 0.951 . S
H1391 C1410 0.951 . S
H1392 C1412 0.950 . S
H1393 C1413 0.950 . S
H1394 C1415 0.950 . S
H1395 C1418 0.950 . S
H1396 C1419 0.950 . S
H1397 C1421 0.950 . S
H1398 C1422 0.950 . S
H1399 C1423 0.951 . S
H1400 C1425 0.951 . S
H1401 C1427 0.950 . S
H1402 C1428 0.950 . S
H1403 C1430 0.950 . S
H1404 C1433 0.950 . S
H1405 C1434 0.950 . S
H1406 C1436 0.950 . S
H1407 C1437 0.950 . S
C1408 H1390 0.951 . S
C1408 C1409 1.366 . S
C1408 C1410 1.388 1_554 S
C1409 C1408 1.366 . S
C1409 C1413 1.385 . S
C1410 H1391 0.951 . S
C1410 C1408 1.388 1_556 S
C1410 C1411 1.366 . S
C1411 C1410 1.366 . S
C1411 C1412 1.414 . S
C1411 C1414 1.499 . S
C1412 H1392 0.950 . S
C1412 C1411 1.414 . S
C1412 C1413 1.374 1_556 S
C1413 H1393 0.950 . S
C1413 C1409 1.385 . S
C1413 C1412 1.374 1_554 S
C1414 C1411 1.499 . S
C1414 C1415 1.373 . S
C1414 C1416 1.389 . S
C1415 H1394 0.950 . S
C1415 C1414 1.373 . S
C1415 C1431 1.377 . S
C1416 C1414 1.389 . S
C1416 C1417 1.524 . S
C1416 C1430 1.377 . S
C1417 C1416 1.524 . S
C1417 C1418 1.397 . S
C1417 C1422 1.363 . S
C1418 H1395 0.950 . S
C1418 C1417 1.397 . S
C1418 C1419 1.334 . S
C1419 H1396 0.950 . S
C1419 C1418 1.334 . S
C1419 C1420 1.287 . S
C1420 C1419 1.287 . S
C1420 C1421 1.524 . S
C1420 H1439 0.913 . S
C1421 H1397 0.950 . S
C1421 C1420 1.524 . S
C1421 C1422 1.415 . S
C1422 H1398 0.950 . S
C1422 C1417 1.363 . S
C1422 C1421 1.415 . S
C1423 H1399 0.951 . S
C1423 C1424 1.366 . S
C1423 C1425 1.388 . S
C1424 C1423 1.366 . S
C1424 C1428 1.385 . S
C1425 H1400 0.951 . S
C1425 C1423 1.388 . S
C1425 C1426 1.366 . S
C1426 C1425 1.366 . S
C1426 C1427 1.414 . S
C1426 C1429 1.499 . S
C1427 H1401 0.950 . S
C1427 C1426 1.414 . S
C1427 C1428 1.374 . S
C1428 H1402 0.950 . S
C1428 C1424 1.385 . S
C1428 C1427 1.374 . S
C1429 C1426 1.499 . S
C1429 C1430 1.373 . S
C1429 C1431 1.389 . S
C1430 H1403 0.950 . S
C1430 C1416 1.377 . S
C1430 C1429 1.373 . S
C1431 C1415 1.377 . S
C1431 C1429 1.389 . S
C1431 C1432 1.524 . S
C1432 C1431 1.524 . S
C1432 C1433 1.397 . S
C1432 C1437 1.363 . S
C1433 H1404 0.950 . S
C1433 C1432 1.397 . S
C1433 C1434 1.334 . S
C1434 H1405 0.950 . S
C1434 C1433 1.334 . S
C1434 C1435 1.287 . S
C1435 C1434 1.287 . S
C1435 C1436 1.524 . S
C1435 H1438 0.999 . S
C1436 H1406 0.950 . S
C1436 C1435 1.524 . S
C1436 C1437 1.415 . S
C1437 H1407 0.950 . S
C1437 C1432 1.363 . S
C1437 C1436 1.415 . S
H1438 C1435 0.999 . S
H1439 C1420 0.913 . S
H1440 C1458 0.951 . S
H1441 C1460 0.951 . S
H1442 C1462 0.950 . S
H1443 C1463 0.950 . S
H1444 C1465 0.950 . S
H1445 C1468 0.950 . S
H1446 C1469 0.950 . S
H1447 C1471 0.950 1_556 S
H1448 C1472 0.950 . S
H1449 C1473 0.951 . S
H1450 C1475 0.951 . S
H1451 C1477 0.950 . S
H1452 C1478 0.950 . S
H1453 C1480 0.950 . S
H1454 C1483 0.950 . S
H1455 C1484 0.950 . S
H1456 C1486 0.950 . S
H1457 C1487 0.950 . S
C1458 H1440 0.951 . S
C1458 C1459 1.366 . S
C1458 C1460 1.388 . S
C1459 C1458 1.366 . S
C1459 C1463 1.385 . S
C1460 H1441 0.951 . S
C1460 C1458 1.388 . S
C1460 C1461 1.366 . S
C1461 C1460 1.366 . S
C1461 C1462 1.414 . S
C1461 C1464 1.499 . S
C1462 H1442 0.950 . S
C1462 C1461 1.414 . S
C1462 C1463 1.374 . S
C1463 H1443 0.950 . S
C1463 C1459 1.385 . S
C1463 C1462 1.374 . S
C1464 C1461 1.499 . S
C1464 C1465 1.373 . S
C1464 C1466 1.389 . S
C1465 H1444 0.950 . S
C1465 C1464 1.373 . S
C1465 C1481 1.377 . S
C1466 C1464 1.389 . S
C1466 C1467 1.524 . S
C1466 C1480 1.377 . S
C1467 C1466 1.524 . S
C1467 C1468 1.397 . S
C1467 C1472 1.363 . S
C1468 H1445 0.950 . S
C1468 C1467 1.397 . S
C1468 C1469 1.334 . S
C1469 H1446 0.950 . S
C1469 C1468 1.334 . S
C1469 C1470 1.287 1_554 S
C1470 C1469 1.287 1_556 S
C1470 C1471 1.524 1_556 S
C1470 H1489 0.913 . S
C1471 H1447 0.950 1_554 S
C1471 C1470 1.524 1_554 S
C1471 C1472 1.415 . S
C1472 H1448 0.950 . S
C1472 C1467 1.363 . S
C1472 C1471 1.415 . S
C1473 H1449 0.951 . S
C1473 C1474 1.366 . S
C1473 C1475 1.388 . S
C1474 C1473 1.366 . S
C1474 C1478 1.385 . S
C1475 H1450 0.951 . S
C1475 C1473 1.388 . S
C1475 C1476 1.366 . S
C1476 C1475 1.366 . S
C1476 C1477 1.414 . S
C1476 C1479 1.499 . S
C1477 H1451 0.950 . S
C1477 C1476 1.414 . S
C1477 C1478 1.374 . S
C1478 H1452 0.950 . S
C1478 C1474 1.385 . S
C1478 C1477 1.374 . S
C1479 C1476 1.499 . S
C1479 C1480 1.373 . S
C1479 C1481 1.389 . S
C1480 H1453 0.950 . S
C1480 C1466 1.377 . S
C1480 C1479 1.373 . S
C1481 C1465 1.377 . S
C1481 C1479 1.389 . S
C1481 C1482 1.524 . S
C1482 C1481 1.524 . S
C1482 C1483 1.397 . S
C1482 C1487 1.363 . S
C1483 H1454 0.950 . S
C1483 C1482 1.397 . S
C1483 C1484 1.334 . S
C1484 H1455 0.950 . S
C1484 C1483 1.334 . S
C1484 C1485 1.287 . S
C1485 C1484 1.287 . S
C1485 C1486 1.524 . S
C1485 H1488 0.999 . S
C1486 H1456 0.950 . S
C1486 C1485 1.524 . S
C1486 C1487 1.415 . S
C1487 H1457 0.950 . S
C1487 C1482 1.363 . S
C1487 C1486 1.415 . S
H1488 C1485 0.999 . S
H1489 C1470 0.913 . S
H1490 C1508 0.951 . S
H1491 C1510 0.951 . S
H1492 C1512 0.950 . S
H1493 C1513 0.950 . S
H1494 C1515 0.950 . S
H1495 C1518 0.950 . S
H1496 C1519 0.950 . S
H1497 C1521 0.950 . S
H1498 C1522 0.950 . S
H1499 C1523 0.951 . S
H1500 C1525 0.951 . S
H1501 C1527 0.950 . S
H1502 C1528 0.950 . S
H1503 C1530 0.950 . S
H1504 C1533 0.950 . S
H1505 C1534 0.950 . S
H1506 C1536 0.950 . S
H1507 C1537 0.950 . S
C1508 H1490 0.951 . S
C1508 C1509 1.366 . S
C1508 C1510 1.388 . S
C1509 C1508 1.366 . S
C1509 C1513 1.385 . S
C1510 H1491 0.951 . S
C1510 C1508 1.388 . S
C1510 C1511 1.366 . S
C1511 C1510 1.366 . S
C1511 C1512 1.414 . S
C1511 C1514 1.499 . S
C1512 H1492 0.950 . S
C1512 C1511 1.414 . S
C1512 C1513 1.374 . S
C1513 H1493 0.950 . S
C1513 C1509 1.385 . S
C1513 C1512 1.374 . S
C1514 C1511 1.499 . S
C1514 C1515 1.373 . S
C1514 C1516 1.389 . S
C1515 H1494 0.950 . S
C1515 C1514 1.373 . S
C1515 C1531 1.377 . S
C1516 C1514 1.389 . S
C1516 C1517 1.524 . S
C1516 C1530 1.377 . S
C1517 C1516 1.524 . S
C1517 C1518 1.397 . S
C1517 C1522 1.363 . S
C1518 H1495 0.950 . S
C1518 C1517 1.397 . S
C1518 C1519 1.334 . S
C1519 H1496 0.950 . S
C1519 C1518 1.334 . S
C1519 C1520 1.287 . S
C1520 C1519 1.287 . S
C1520 C1521 1.524 . S
C1520 H1539 0.913 . S
C1521 H1497 0.950 . S
C1521 C1520 1.524 . S
C1521 C1522 1.415 . S
C1522 H1498 0.950 . S
C1522 C1517 1.363 . S
C1522 C1521 1.415 . S
C1523 H1499 0.951 . S
C1523 C1524 1.366 . S
C1523 C1525 1.388 . S
C1524 C1523 1.366 . S
C1524 C1528 1.385 . S
C1525 H1500 0.951 . S
C1525 C1523 1.388 . S
C1525 C1526 1.366 . S
C1526 C1525 1.366 . S
C1526 C1527 1.414 . S
C1526 C1529 1.499 . S
C1527 H1501 0.950 . S
C1527 C1526 1.414 . S
C1527 C1528 1.374 . S
C1528 H1502 0.950 . S
C1528 C1524 1.385 . S
C1528 C1527 1.374 . S
C1529 C1526 1.499 . S
C1529 C1530 1.373 . S
C1529 C1531 1.389 . S
C1530 H1503 0.950 . S
C1530 C1516 1.377 . S
C1530 C1529 1.373 . S
C1531 C1515 1.377 . S
C1531 C1529 1.389 . S
C1531 C1532 1.524 . S
C1532 C1531 1.524 . S
C1532 C1533 1.397 . S
C1532 C1537 1.363 . S
C1533 H1504 0.950 . S
C1533 C1532 1.397 . S
C1533 C1534 1.334 . S
C1534 H1505 0.950 . S
C1534 C1533 1.334 . S
C1534 C1535 1.287 . S
C1535 C1534 1.287 . S
C1535 C1536 1.524 . S
C1535 H1538 0.999 . S
C1536 H1506 0.950 . S
C1536 C1535 1.524 . S
C1536 C1537 1.415 . S
C1537 H1507 0.950 . S
C1537 C1532 1.363 . S
C1537 C1536 1.415 . S
H1538 C1535 0.999 . S
H1539 C1520 0.913 . S
H1540 C1558 0.951 . S
H1541 C1560 0.951 . S
H1542 C1562 0.950 . S
H1543 C1563 0.950 . S
H1544 C1565 0.950 . S
H1545 C1568 0.950 . S
H1546 C1569 0.950 . S
H1547 C1571 0.950 . S
H1548 C1572 0.950 . S
H1549 C1573 0.951 . S
H1550 C1575 0.951 . S
H1551 C1577 0.950 . S
H1552 C1578 0.950 . S
H1553 C1580 0.950 . S
H1554 C1583 0.950 . S
H1555 C1584 0.950 . S
H1556 C1586 0.950 . S
H1557 C1587 0.950 . S
C1558 H1540 0.951 . S
C1558 C1559 1.366 . S
C1558 C1560 1.388 . S
C1559 C1558 1.366 . S
C1559 C1563 1.385 . S
C1560 H1541 0.951 . S
C1560 C1558 1.388 . S
C1560 C1561 1.366 . S
C1561 C1560 1.366 . S
C1561 C1562 1.414 . S
C1561 C1564 1.499 . S
C1562 H1542 0.950 . S
C1562 C1561 1.414 . S
C1562 C1563 1.374 . S
C1563 H1543 0.950 . S
C1563 C1559 1.385 . S
C1563 C1562 1.374 . S
C1564 C1561 1.499 . S
C1564 C1565 1.373 . S
C1564 C1566 1.389 . S
C1565 H1544 0.950 . S
C1565 C1564 1.373 . S
C1565 C1581 1.377 . S
C1566 C1564 1.389 . S
C1566 C1567 1.524 . S
C1566 C1580 1.377 . S
C1567 C1566 1.524 . S
C1567 C1568 1.397 . S
C1567 C1572 1.363 . S
C1568 H1545 0.950 . S
C1568 C1567 1.397 . S
C1568 C1569 1.334 . S
C1569 H1546 0.950 . S
C1569 C1568 1.334 . S
C1569 C1570 1.287 . S
C1570 C1569 1.287 . S
C1570 C1571 1.524 . S
C1570 H1589 0.913 . S
C1571 H1547 0.950 . S
C1571 C1570 1.524 . S
C1571 C1572 1.415 . S
C1572 H1548 0.950 . S
C1572 C1567 1.363 . S
C1572 C1571 1.415 . S
C1573 H1549 0.951 . S
C1573 C1574 1.366 . S
C1573 C1575 1.388 . S
C1574 C1573 1.366 . S
C1574 C1578 1.385 . S
C1575 H1550 0.951 . S
C1575 C1573 1.388 . S
C1575 C1576 1.366 . S
C1576 C1575 1.366 . S
C1576 C1577 1.414 . S
C1576 C1579 1.499 . S
C1577 H1551 0.950 . S
C1577 C1576 1.414 . S
C1577 C1578 1.374 . S
C1578 H1552 0.950 . S
C1578 C1574 1.385 . S
C1578 C1577 1.374 . S
C1579 C1576 1.499 . S
C1579 C1580 1.373 . S
C1579 C1581 1.389 . S
C1580 H1553 0.950 . S
C1580 C1566 1.377 . S
C1580 C1579 1.373 . S
C1581 C1565 1.377 . S
C1581 C1579 1.389 . S
C1581 C1582 1.524 . S
C1582 C1581 1.524 . S
C1582 C1583 1.397 . S
C1582 C1587 1.363 . S
C1583 H1554 0.950 . S
C1583 C1582 1.397 . S
C1583 C1584 1.334 . S
C1584 H1555 0.950 . S
C1584 C1583 1.334 . S
C1584 C1585 1.287 . S
C1585 C1584 1.287 . S
C1585 C1586 1.524 . S
C1585 H1588 0.999 . S
C1586 H1556 0.950 . S
C1586 C1585 1.524 . S
C1586 C1587 1.415 . S
C1587 H1557 0.950 . S
C1587 C1582 1.363 . S
C1587 C1586 1.415 . S
H1588 C1585 0.999 . S
H1589 C1570 0.913 . S
H1590 C1608 0.951 . S
H1591 C1610 0.951 . S
H1592 C1612 0.950 . S
H1593 C1613 0.950 . S
H1594 C1615 0.950 . S
H1595 C1618 0.950 . S
H1596 C1619 0.950 . S
H1597 C1621 0.950 . S
H1598 C1622 0.950 . S
H1599 C1623 0.951 . S
H1600 C1625 0.951 . S
H1601 C1627 0.950 . S
H1602 C1628 0.950 . S
H1603 C1630 0.950 . S
H1604 C1633 0.950 . S
H1605 C1634 0.950 . S
H1606 C1636 0.950 . S
H1607 C1637 0.950 . S
C1608 H1590 0.951 . S
C1608 C1609 1.366 . S
C1608 C1610 1.388 . S
C1609 C1608 1.366 . S
C1609 C1613 1.385 . S
C1610 H1591 0.951 . S
C1610 C1608 1.388 . S
C1610 C1611 1.366 . S
C1611 C1610 1.366 . S
C1611 C1612 1.414 . S
C1611 C1614 1.499 . S
C1612 H1592 0.950 . S
C1612 C1611 1.414 . S
C1612 C1613 1.374 . S
C1613 H1593 0.950 . S
C1613 C1609 1.385 . S
C1613 C1612 1.374 . S
C1614 C1611 1.499 . S
C1614 C1615 1.373 . S
C1614 C1616 1.389 . S
C1615 H1594 0.950 . S
C1615 C1614 1.373 . S
C1615 C1631 1.377 1_655 S
C1616 C1614 1.389 . S
C1616 C1617 1.524 . S
C1616 C1630 1.377 1_655 S
C1617 C1616 1.524 . S
C1617 C1618 1.397 . S
C1617 C1622 1.363 . S
C1618 H1595 0.950 . S
C1618 C1617 1.397 . S
C1618 C1619 1.334 . S
C1619 H1596 0.950 . S
C1619 C1618 1.334 . S
C1619 C1620 1.287 . S
C1620 C1619 1.287 . S
C1620 C1621 1.524 . S
C1620 H1639 0.913 . S
C1621 H1597 0.950 . S
C1621 C1620 1.524 . S
C1621 C1622 1.415 . S
C1622 H1598 0.950 . S
C1622 C1617 1.363 . S
C1622 C1621 1.415 . S
C1623 H1599 0.951 . S
C1623 C1624 1.366 . S
C1623 C1625 1.388 . S
C1624 C1623 1.366 . S
C1624 C1628 1.385 . S
C1625 H1600 0.951 . S
C1625 C1623 1.388 . S
C1625 C1626 1.366 . S
C1626 C1625 1.366 . S
C1626 C1627 1.414 . S
C1626 C1629 1.499 . S
C1627 H1601 0.950 . S
C1627 C1626 1.414 . S
C1627 C1628 1.374 . S
C1628 H1602 0.950 . S
C1628 C1624 1.385 . S
C1628 C1627 1.374 . S
C1629 C1626 1.499 . S
C1629 C1630 1.373 . S
C1629 C1631 1.389 . S
C1630 H1603 0.950 . S
C1630 C1616 1.377 1_455 S
C1630 C1629 1.373 . S
C1631 C1615 1.377 1_455 S
C1631 C1629 1.389 . S
C1631 C1632 1.524 . S
C1632 C1631 1.524 . S
C1632 C1633 1.397 . S
C1632 C1637 1.363 . S
C1633 H1604 0.950 . S
C1633 C1632 1.397 . S
C1633 C1634 1.334 1_556 S
C1634 H1605 0.950 . S
C1634 C1633 1.334 1_554 S
C1634 C1635 1.287 . S
C1635 C1634 1.287 . S
C1635 C1636 1.524 1_554 S
C1635 H1638 0.999 . S
C1636 H1606 0.950 . S
C1636 C1635 1.524 1_556 S
C1636 C1637 1.415 . S
C1637 H1607 0.950 . S
C1637 C1632 1.363 . S
C1637 C1636 1.415 . S
H1638 C1635 0.999 . S
H1639 C1620 0.913 . S
H1640 C1658 0.951 . S
H1641 C1660 0.951 . S
H1642 C1662 0.950 . S
H1643 C1663 0.950 . S
H1644 C1665 0.950 . S
H1645 C1668 0.950 . S
H1646 C1669 0.950 . S
H1647 C1671 0.950 . S
H1648 C1672 0.950 . S
H1649 C1673 0.951 . S
H1650 C1675 0.951 . S
H1651 C1677 0.950 . S
H1652 C1678 0.950 . S
H1653 C1680 0.950 . S
H1654 C1683 0.950 . S
H1655 C1684 0.950 . S
H1656 C1686 0.963 . S
H1657 C1687 0.950 . S
C1658 H1640 0.951 . S
C1658 C1659 1.366 . S
C1658 C1660 1.388 . S
C1659 C1658 1.366 . S
C1659 C1663 1.385 . S
C1660 H1641 0.951 . S
C1660 C1658 1.388 . S
C1660 C1661 1.366 . S
C1661 C1660 1.366 . S
C1661 C1662 1.414 . S
C1661 C1664 1.499 . S
C1662 H1642 0.950 . S
C1662 C1661 1.414 . S
C1662 C1663 1.374 . S
C1663 H1643 0.950 . S
C1663 C1659 1.385 . S
C1663 C1662 1.374 . S
C1664 C1661 1.499 . S
C1664 C1665 1.373 . S
C1664 C1666 1.389 . S
C1665 H1644 0.950 . S
C1665 C1664 1.373 . S
C1665 C1681 1.377 . S
C1666 C1664 1.389 . S
C1666 C1667 1.524 . S
C1666 C1680 1.377 . S
C1667 C1666 1.524 . S
C1667 C1668 1.397 . S
C1667 C1672 1.363 . S
C1668 H1645 0.950 . S
C1668 C1667 1.397 . S
C1668 C1669 1.334 . S
C1669 H1646 0.950 . S
C1669 C1668 1.334 . S
C1669 C1670 1.287 . S
C1670 C1669 1.287 . S
C1670 C1671 1.524 . S
C1670 H1689 0.913 . S
C1671 H1647 0.950 . S
C1671 C1670 1.524 . S
C1671 C1672 1.415 . S
C1672 H1648 0.950 . S
C1672 C1667 1.363 . S
C1672 C1671 1.415 . S
C1673 H1649 0.951 . S
C1673 C1674 1.366 . S
C1673 C1675 1.388 . S
C1674 C1673 1.366 . S
C1674 C1678 1.385 . S
C1675 H1650 0.951 . S
C1675 C1673 1.388 . S
C1675 C1676 1.366 . S
C1676 C1675 1.366 . S
C1676 C1677 1.414 . S
C1676 C1679 1.499 . S
C1677 H1651 0.950 . S
C1677 C1676 1.414 . S
C1677 C1678 1.374 . S
C1678 H1652 0.950 . S
C1678 C1674 1.385 . S
C1678 C1677 1.374 . S
C1679 C1676 1.499 . S
C1679 C1680 1.373 . S
C1679 C1681 1.389 . S
C1680 H1653 0.950 . S
C1680 C1666 1.377 . S
C1680 C1679 1.373 . S
C1681 C1665 1.377 . S
C1681 C1679 1.389 . S
C1681 C1682 1.524 . S
C1682 C1681 1.524 . S
C1682 C1683 1.397 . S
C1682 C1687 1.363 . S
C1683 H1654 0.950 . S
C1683 C1682 1.397 . S
C1683 C1684 1.334 . S
C1684 H1655 0.950 . S
C1684 C1683 1.334 . S
C1684 C1685 1.287 1_556 S
C1685 C1684 1.287 1_554 S
C1685 C1686 1.527 . S
C1685 H1688 0.999 . S
C1686 H1656 0.963 . S
C1686 C1685 1.527 . S
C1686 C1687 1.397 1_554 S
C1687 H1657 0.950 . S
C1687 C1682 1.363 . S
C1687 C1686 1.397 1_556 S
H1688 C1685 0.999 . S
H1689 C1670 0.913 . S
H1690 C1708 0.951 . S
H1691 C1710 0.951 . S
H1692 C1712 0.950 . S
H1693 C1713 0.950 . S
H1694 C1715 0.950 . S
H1695 C1718 0.950 . S
H1696 C1719 0.950 . S
H1697 C1721 0.950 . S
H1698 C1722 0.950 . S
H1699 C1723 0.951 . S
H1700 C1725 0.951 . S
H1701 C1727 0.950 . S
H1702 C1728 0.950 . S
H1703 C1730 0.950 . S
H1704 C1733 0.950 . S
H1705 C1734 0.950 1_556 S
H1706 C1736 0.950 . S
H1707 C1737 0.950 . S
C1708 H1690 0.951 . S
C1708 C1709 1.366 . S
C1708 C1710 1.388 . S
C1709 C1708 1.366 . S
C1709 C1713 1.385 . S
C1710 H1691 0.951 . S
C1710 C1708 1.388 . S
C1710 C1711 1.366 . S
C1711 C1710 1.366 . S
C1711 C1712 1.414 . S
C1711 C1714 1.499 . S
C1712 H1692 0.950 . S
C1712 C1711 1.414 . S
C1712 C1713 1.374 . S
C1713 H1693 0.950 . S
C1713 C1709 1.385 . S
C1713 C1712 1.374 . S
C1714 C1711 1.499 . S
C1714 C1715 1.373 . S
C1714 C1716 1.389 . S
C1715 H1694 0.950 . S
C1715 C1714 1.373 . S
C1715 C1731 1.377 1_455 S
C1716 C1714 1.389 . S
C1716 C1717 1.524 . S
C1716 C1730 1.377 1_455 S
C1717 C1716 1.524 . S
C1717 C1718 1.397 . S
C1717 C1722 1.363 . S
C1718 H1695 0.950 . S
C1718 C1717 1.397 . S
C1718 C1719 1.334 . S
C1719 H1696 0.950 . S
C1719 C1718 1.334 . S
C1719 C1720 1.287 . S
C1720 C1719 1.287 . S
C1720 C1721 1.524 . S
C1720 H1739 0.913 . S
C1721 H1697 0.950 . S
C1721 C1720 1.524 . S
C1721 C1722 1.415 . S
C1722 H1698 0.950 . S
C1722 C1717 1.363 . S
C1722 C1721 1.415 . S
C1723 H1699 0.951 . S
C1723 C1724 1.366 . S
C1723 C1725 1.388 . S
C1724 C1723 1.366 . S
C1724 C1728 1.385 . S
C1725 H1700 0.951 . S
C1725 C1723 1.388 . S
C1725 C1726 1.366 . S
C1726 C1725 1.366 . S
C1726 C1727 1.414 . S
C1726 C1729 1.499 . S
C1727 H1701 0.950 . S
C1727 C1726 1.414 . S
C1727 C1728 1.374 . S
C1728 H1702 0.950 . S
C1728 C1724 1.385 . S
C1728 C1727 1.374 . S
C1729 C1726 1.499 . S
C1729 C1730 1.373 . S
C1729 C1731 1.389 . S
C1730 H1703 0.950 . S
C1730 C1716 1.377 1_655 S
C1730 C1729 1.373 . S
C1731 C1715 1.377 1_655 S
C1731 C1729 1.389 . S
C1731 C1732 1.524 . S
C1732 C1731 1.524 . S
C1732 C1733 1.397 . S
C1732 C1737 1.363 . S
C1733 H1704 0.950 . S
C1733 C1732 1.397 . S
C1733 C1734 1.334 . S
C1734 H1705 0.950 1_554 S
C1734 C1733 1.334 . S
C1734 C1735 1.287 . S
C1735 C1734 1.287 . S
C1735 C1736 1.524 . S
C1735 H1738 0.999 . S
C1736 H1706 0.950 . S
C1736 C1735 1.524 . S
C1736 C1737 1.415 . S
C1737 H1707 0.950 . S
C1737 C1732 1.363 . S
C1737 C1736 1.415 . S
H1738 C1735 0.999 . S
H1739 C1720 0.913 . S
H1740 C1758 0.951 . S
H1741 C1760 0.951 . S
H1742 C1762 0.950 . S
H1743 C1763 0.950 . S
H1744 C1765 0.950 . S
H1745 C1768 0.950 . S
H1746 C1769 0.950 . S
H1747 C1771 0.950 . S
H1748 C1772 0.950 . S
H1749 C1773 0.951 . S
H1750 C1775 0.951 . S
H1751 C1777 0.950 . S
H1752 C1778 0.950 . S
H1753 C1780 0.950 . S
H1754 C1783 0.950 . S
H1755 C1784 0.950 . S
H1756 C1786 0.950 . S
H1757 C1787 0.950 . S
C1758 H1740 0.951 . S
C1758 C1759 1.366 . S
C1758 C1760 1.388 . S
C1759 C1758 1.366 . S
C1759 C1763 1.385 . S
C1760 H1741 0.951 . S
C1760 C1758 1.388 . S
C1760 C1761 1.366 . S
C1761 C1760 1.366 . S
C1761 C1762 1.414 . S
C1761 C1764 1.499 . S
C1762 H1742 0.950 . S
C1762 C1761 1.414 . S
C1762 C1763 1.374 . S
C1763 H1743 0.950 . S
C1763 C1759 1.385 . S
C1763 C1762 1.374 . S
C1764 C1761 1.499 . S
C1764 C1765 1.373 . S
C1764 C1766 1.389 . S
C1765 H1744 0.950 . S
C1765 C1764 1.373 . S
C1765 C1781 1.377 . S
C1766 C1764 1.389 . S
C1766 C1767 1.524 . S
C1766 C1780 1.377 . S
C1767 C1766 1.524 . S
C1767 C1768 1.397 . S
C1767 C1772 1.363 . S
C1768 H1745 0.950 . S
C1768 C1767 1.397 . S
C1768 C1769 1.334 . S
C1769 H1746 0.950 . S
C1769 C1768 1.334 . S
C1769 C1770 1.287 . S
C1770 C1769 1.287 . S
C1770 C1771 1.524 . S
C1770 H1789 0.913 . S
C1771 H1747 0.950 . S
C1771 C1770 1.524 . S
C1771 C1772 1.415 . S
C1772 H1748 0.950 . S
C1772 C1767 1.363 . S
C1772 C1771 1.415 . S
C1773 H1749 0.951 . S
C1773 C1774 1.366 . S
C1773 C1775 1.388 . S
C1774 C1773 1.366 . S
C1774 C1778 1.385 . S
C1775 H1750 0.951 . S
C1775 C1773 1.388 . S
C1775 C1776 1.366 . S
C1776 C1775 1.366 . S
C1776 C1777 1.414 . S
C1776 C1779 1.499 . S
C1777 H1751 0.950 . S
C1777 C1776 1.414 . S
C1777 C1778 1.374 . S
C1778 H1752 0.950 . S
C1778 C1774 1.385 . S
C1778 C1777 1.374 . S
C1779 C1776 1.499 . S
C1779 C1780 1.373 . S
C1779 C1781 1.389 . S
C1780 H1753 0.950 . S
C1780 C1766 1.377 . S
C1780 C1779 1.373 . S
C1781 C1765 1.377 . S
C1781 C1779 1.389 . S
C1781 C1782 1.524 . S
C1782 C1781 1.524 . S
C1782 C1783 1.397 . S
C1782 C1787 1.363 . S
C1783 H1754 0.950 . S
C1783 C1782 1.397 . S
C1783 C1784 1.334 . S
C1784 H1755 0.950 . S
C1784 C1783 1.334 . S
C1784 C1785 1.287 . S
C1785 C1784 1.287 . S
C1785 C1786 1.524 . S
C1785 H1788 0.999 . S
C1786 H1756 0.950 . S
C1786 C1785 1.524 . S
C1786 C1787 1.415 . S
C1787 H1757 0.950 . S
C1787 C1782 1.363 . S
C1787 C1786 1.415 . S
H1788 C1785 0.999 . S
H1789 C1770 0.913 . S
H1790 C1808 0.951 . S
H1791 C1810 0.951 . S
H1792 C1812 0.950 . S
H1793 C1813 0.950 . S
H1794 C1815 0.950 . S
H1795 C1818 0.950 . S
H1796 C1819 0.950 . S
H1797 C1821 0.950 . S
H1798 C1822 0.950 . S
H1799 C1823 0.951 . S
H1800 C1825 0.951 . S
H1801 C1827 0.950 . S
H1802 C1828 0.950 . S
H1803 C1830 0.950 . S
H1804 C1833 0.950 . S
H1805 C1834 0.950 . S
H1806 C1836 0.950 . S
H1807 C1837 0.950 . S
C1808 H1790 0.951 . S
C1808 C1809 1.366 . S
C1808 C1810 1.388 . S
C1809 C1808 1.366 . S
C1809 C1813 1.385 . S
C1810 H1791 0.951 . S
C1810 C1808 1.388 . S
C1810 C1811 1.366 . S
C1811 C1810 1.366 . S
C1811 C1812 1.414 . S
C1811 C1814 1.499 . S
C1812 H1792 0.950 . S
C1812 C1811 1.414 . S
C1812 C1813 1.374 . S
C1813 H1793 0.950 . S
C1813 C1809 1.385 . S
C1813 C1812 1.374 . S
C1814 C1811 1.499 . S
C1814 C1815 1.373 . S
C1814 C1816 1.389 . S
C1815 H1794 0.950 . S
C1815 C1814 1.373 . S
C1815 C1831 1.377 . S
C1816 C1814 1.389 . S
C1816 C1817 1.524 . S
C1816 C1830 1.377 . S
C1817 C1816 1.524 . S
C1817 C1818 1.397 . S
C1817 C1822 1.363 . S
C1818 H1795 0.950 . S
C1818 C1817 1.397 . S
C1818 C1819 1.334 . S
C1819 H1796 0.950 . S
C1819 C1818 1.334 . S
C1819 C1820 1.287 . S
C1820 C1819 1.287 . S
C1820 C1821 1.524 . S
C1820 H1839 0.913 . S
C1821 H1797 0.950 . S
C1821 C1820 1.524 . S
C1821 C1822 1.415 . S
C1822 H1798 0.950 . S
C1822 C1817 1.363 . S
C1822 C1821 1.415 . S
C1823 H1799 0.951 . S
C1823 C1824 1.366 . S
C1823 C1825 1.388 . S
C1824 C1823 1.366 . S
C1824 C1828 1.385 . S
C1825 H1800 0.951 . S
C1825 C1823 1.388 . S
C1825 C1826 1.366 . S
C1826 C1825 1.366 . S
C1826 C1827 1.414 . S
C1826 C1829 1.499 . S
C1827 H1801 0.950 . S
C1827 C1826 1.414 . S
C1827 C1828 1.374 . S
C1828 H1802 0.950 . S
C1828 C1824 1.385 . S
C1828 C1827 1.374 . S
C1829 C1826 1.499 . S
C1829 C1830 1.373 . S
C1829 C1831 1.389 . S
C1830 H1803 0.950 . S
C1830 C1816 1.377 . S
C1830 C1829 1.373 . S
C1831 C1815 1.377 . S
C1831 C1829 1.389 . S
C1831 C1832 1.524 . S
C1832 C1831 1.524 . S
C1832 C1833 1.397 . S
C1832 C1837 1.363 . S
C1833 H1804 0.950 . S
C1833 C1832 1.397 . S
C1833 C1834 1.334 . S
C1834 H1805 0.950 . S
C1834 C1833 1.334 . S
C1834 C1835 1.287 . S
C1835 C1834 1.287 . S
C1835 C1836 1.524 . S
C1835 H1838 0.999 . S
C1836 H1806 0.950 . S
C1836 C1835 1.524 . S
C1836 C1837 1.415 . S
C1837 H1807 0.950 . S
C1837 C1832 1.363 . S
C1837 C1836 1.415 . S
H1838 C1835 0.999 . S
H1839 C1820 0.913 . S
H1840 C1858 0.951 . S
H1841 C1860 0.951 . S
H1842 C1862 0.950 . S
H1843 C1863 0.950 . S
H1844 C1865 0.950 . S
H1845 C1868 0.950 . S
H1846 C1869 0.950 . S
H1847 C1871 0.950 1_554 S
H1848 C1872 0.950 . S
H1849 C1873 0.951 . S
H1850 C1875 0.951 . S
H1851 C1877 0.950 . S
H1852 C1878 0.950 . S
H1853 C1880 0.950 . S
H1854 C1883 0.950 . S
H1855 C1884 0.950 . S
H1856 C1886 0.950 . S
H1857 C1887 0.950 . S
C1858 H1840 0.951 . S
C1858 C1859 1.366 . S
C1858 C1860 1.388 . S
C1859 C1858 1.366 . S
C1859 C1863 1.385 . S
C1860 H1841 0.951 . S
C1860 C1858 1.388 . S
C1860 C1861 1.366 . S
C1861 C1860 1.366 . S
C1861 C1862 1.414 . S
C1861 C1864 1.499 . S
C1862 H1842 0.950 . S
C1862 C1861 1.414 . S
C1862 C1863 1.374 . S
C1863 H1843 0.950 . S
C1863 C1859 1.385 . S
C1863 C1862 1.374 . S
C1864 C1861 1.499 . S
C1864 C1865 1.373 . S
C1864 C1866 1.389 . S
C1865 H1844 0.950 . S
C1865 C1864 1.373 . S
C1865 C1881 1.377 . S
C1866 C1864 1.389 . S
C1866 C1867 1.524 . S
C1866 C1880 1.377 . S
C1867 C1866 1.524 . S
C1867 C1868 1.397 . S
C1867 C1872 1.363 . S
C1868 H1845 0.950 . S
C1868 C1867 1.397 . S
C1868 C1869 1.334 . S
C1869 H1846 0.950 . S
C1869 C1868 1.334 . S
C1869 C1870 1.287 1_556 S
C1870 C1869 1.287 1_554 S
C1870 C1871 1.524 1_554 S
C1870 H1889 0.913 . S
C1871 H1847 0.950 1_556 S
C1871 C1870 1.524 1_556 S
C1871 C1872 1.415 . S
C1872 H1848 0.950 . S
C1872 C1867 1.363 . S
C1872 C1871 1.415 . S
C1873 H1849 0.951 . S
C1873 C1874 1.366 . S
C1873 C1875 1.388 . S
C1874 C1873 1.366 . S
C1874 C1878 1.385 . S
C1875 H1850 0.951 . S
C1875 C1873 1.388 . S
C1875 C1876 1.366 . S
C1876 C1875 1.366 . S
C1876 C1877 1.414 . S
C1876 C1879 1.499 . S
C1877 H1851 0.950 . S
C1877 C1876 1.414 . S
C1877 C1878 1.374 . S
C1878 H1852 0.950 . S
C1878 C1874 1.385 . S
C1878 C1877 1.374 . S
C1879 C1876 1.499 . S
C1879 C1880 1.373 . S
C1879 C1881 1.389 . S
C1880 H1853 0.950 . S
C1880 C1866 1.377 . S
C1880 C1879 1.373 . S
C1881 C1865 1.377 . S
C1881 C1879 1.389 . S
C1881 C1882 1.524 . S
C1882 C1881 1.524 . S
C1882 C1883 1.397 . S
C1882 C1887 1.363 . S
C1883 H1854 0.950 . S
C1883 C1882 1.397 . S
C1883 C1884 1.334 . S
C1884 H1855 0.950 . S
C1884 C1883 1.334 . S
C1884 C1885 1.287 . S
C1885 C1884 1.287 . S
C1885 C1886 1.524 . S
C1885 H1888 0.999 . S
C1886 H1856 0.950 . S
C1886 C1885 1.524 . S
C1886 C1887 1.415 . S
C1887 H1857 0.950 . S
C1887 C1882 1.363 . S
C1887 C1886 1.415 . S
H1888 C1885 0.999 . S
H1889 C1870 0.913 . S
H1890 C1908 0.951 . S
H1891 C1910 0.951 . S
H1892 C1912 0.950 . S
H1893 C1913 0.950 . S
H1894 C1915 0.950 . S
H1895 C1918 0.950 . S
H1896 C1919 0.950 . S
H1897 C1921 0.950 . S
H1898 C1922 0.950 . S
H1899 C1923 0.951 . S
H1900 C1925 0.951 . S
H1901 C1927 0.950 . S
H1902 C1928 0.950 . S
H1903 C1930 0.950 . S
H1904 C1933 0.950 . S
H1905 C1934 0.950 . S
H1906 C1936 0.950 . S
H1907 C1937 0.950 . S
C1908 H1890 0.951 . S
C1908 C1909 1.366 . S
C1908 C1910 1.388 . S
C1909 C1908 1.366 . S
C1909 C1913 1.385 . S
C1910 H1891 0.951 . S
C1910 C1908 1.388 . S
C1910 C1911 1.366 . S
C1911 C1910 1.366 . S
C1911 C1912 1.414 . S
C1911 C1914 1.499 . S
C1912 H1892 0.950 . S
C1912 C1911 1.414 . S
C1912 C1913 1.374 . S
C1913 H1893 0.950 . S
C1913 C1909 1.385 . S
C1913 C1912 1.374 . S
C1914 C1911 1.499 . S
C1914 C1915 1.373 . S
C1914 C1916 1.389 . S
C1915 H1894 0.950 . S
C1915 C1914 1.373 . S
C1915 C1931 1.377 . S
C1916 C1914 1.389 . S
C1916 C1917 1.524 . S
C1916 C1930 1.377 . S
C1917 C1916 1.524 . S
C1917 C1918 1.397 . S
C1917 C1922 1.363 . S
C1918 H1895 0.950 . S
C1918 C1917 1.397 . S
C1918 C1919 1.334 . S
C1919 H1896 0.950 . S
C1919 C1918 1.334 . S
C1919 C1920 1.287 . S
C1920 C1919 1.287 . S
C1920 C1921 1.524 . S
C1920 H1939 0.913 . S
C1921 H1897 0.950 . S
C1921 C1920 1.524 . S
C1921 C1922 1.415 . S
C1922 H1898 0.950 . S
C1922 C1917 1.363 . S
C1922 C1921 1.415 . S
C1923 H1899 0.951 . S
C1923 C1924 1.366 . S
C1923 C1925 1.388 . S
C1924 C1923 1.366 . S
C1924 C1928 1.385 . S
C1925 H1900 0.951 . S
C1925 C1923 1.388 . S
C1925 C1926 1.366 . S
C1926 C1925 1.366 . S
C1926 C1927 1.414 . S
C1926 C1929 1.499 . S
C1927 H1901 0.950 . S
C1927 C1926 1.414 . S
C1927 C1928 1.374 . S
C1928 H1902 0.950 . S
C1928 C1924 1.385 . S
C1928 C1927 1.374 . S
C1929 C1926 1.499 . S
C1929 C1930 1.373 . S
C1929 C1931 1.389 . S
C1930 H1903 0.950 . S
C1930 C1916 1.377 . S
C1930 C1929 1.373 . S
C1931 C1915 1.377 . S
C1931 C1929 1.389 . S
C1931 C1932 1.524 . S
C1932 C1931 1.524 . S
C1932 C1933 1.397 . S
C1932 C1937 1.363 . S
C1933 H1904 0.950 . S
C1933 C1932 1.397 . S
C1933 C1934 1.334 . S
C1934 H1905 0.950 . S
C1934 C1933 1.334 . S
C1934 C1935 1.287 . S
C1935 C1934 1.287 . S
C1935 C1936 1.524 . S
C1935 H1938 0.999 . S
C1936 H1906 0.950 . S
C1936 C1935 1.524 . S
C1936 C1937 1.415 . S
C1937 H1907 0.950 . S
C1937 C1932 1.363 . S
C1937 C1936 1.415 . S
H1938 C1935 0.999 . S
H1939 C1920 0.913 . S
H1940 C1958 0.951 . S
H1941 C1960 0.951 . S
H1942 C1962 0.950 . S
H1943 C1963 0.950 . S
H1944 C1965 0.950 . S
H1945 C1968 0.950 . S
H1946 C1969 0.950 . S
H1947 C1971 0.950 . S
H1948 C1972 0.950 . S
H1949 C1973 0.951 . S
H1950 C1975 0.951 . S
H1951 C1977 0.950 . S
H1952 C1978 0.950 . S
H1953 C1980 0.950 . S
H1954 C1983 0.950 . S
H1955 C1984 0.950 . S
H1956 C1986 0.950 . S
H1957 C1987 0.950 . S
C1958 H1940 0.951 . S
C1958 C1959 1.366 . S
C1958 C1960 1.388 . S
C1959 C1958 1.366 . S
C1959 C1963 1.385 . S
C1960 H1941 0.951 . S
C1960 C1958 1.388 . S
C1960 C1961 1.366 . S
C1961 C1960 1.366 . S
C1961 C1962 1.414 . S
C1961 C1964 1.499 . S
C1962 H1942 0.950 . S
C1962 C1961 1.414 . S
C1962 C1963 1.374 . S
C1963 H1943 0.950 . S
C1963 C1959 1.385 . S
C1963 C1962 1.374 . S
C1964 C1961 1.499 . S
C1964 C1965 1.373 . S
C1964 C1966 1.389 . S
C1965 H1944 0.950 . S
C1965 C1964 1.373 . S
C1965 C1981 1.377 . S
C1966 C1964 1.389 . S
C1966 C1967 1.524 . S
C1966 C1980 1.377 . S
C1967 C1966 1.524 . S
C1967 C1968 1.397 . S
C1967 C1972 1.363 . S
C1968 H1945 0.950 . S
C1968 C1967 1.397 . S
C1968 C1969 1.334 . S
C1969 H1946 0.950 . S
C1969 C1968 1.334 . S
C1969 C1970 1.287 . S
C1970 C1969 1.287 . S
C1970 C1971 1.524 . S
C1970 H1989 0.913 . S
C1971 H1947 0.950 . S
C1971 C1970 1.524 . S
C1971 C1972 1.415 . S
C1972 H1948 0.950 . S
C1972 C1967 1.363 . S
C1972 C1971 1.415 . S
C1973 H1949 0.951 . S
C1973 C1974 1.366 . S
C1973 C1975 1.388 . S
C1974 C1973 1.366 . S
C1974 C1978 1.385 . S
C1975 H1950 0.951 . S
C1975 C1973 1.388 . S
C1975 C1976 1.366 . S
C1976 C1975 1.366 . S
C1976 C1977 1.414 . S
C1976 C1979 1.499 . S
C1977 H1951 0.950 . S
C1977 C1976 1.414 . S
C1977 C1978 1.374 . S
C1978 H1952 0.950 . S
C1978 C1974 1.385 . S
C1978 C1977 1.374 . S
C1979 C1976 1.499 . S
C1979 C1980 1.373 . S
C1979 C1981 1.389 . S
C1980 H1953 0.950 . S
C1980 C1966 1.377 . S
C1980 C1979 1.373 . S
C1981 C1965 1.377 . S
C1981 C1979 1.389 . S
C1981 C1982 1.524 . S
C1982 C1981 1.524 . S
C1982 C1983 1.397 . S
C1982 C1987 1.363 . S
C1983 H1954 0.950 . S
C1983 C1982 1.397 . S
C1983 C1984 1.334 . S
C1984 H1955 0.950 . S
C1984 C1983 1.334 . S
C1984 C1985 1.287 . S
C1985 C1984 1.287 . S
C1985 C1986 1.524 . S
C1985 H1988 0.999 . S
C1986 H1956 0.950 . S
C1986 C1985 1.524 . S
C1986 C1987 1.415 . S
C1987 H1957 0.950 . S
C1987 C1982 1.363 . S
C1987 C1986 1.415 . S
H1988 C1985 0.999 . S
H1989 C1970 0.913 . S
H1990 C2008 0.951 . S
H1991 C2010 0.951 . S
H1992 C2012 0.950 . S
H1993 C2013 0.950 . S
H1994 C2015 0.950 . S
H1995 C2018 0.950 . S
H1996 C2019 0.950 . S
H1997 C2021 0.950 . S
H1998 C2022 0.950 . S
H1999 C2023 0.951 . S
H2000 C2025 0.951 . S
H2001 C2027 0.950 . S
H2002 C2028 0.950 . S
H2003 C2030 0.950 . S
H2004 C2033 0.950 . S
H2005 C2034 0.950 . S
H2006 C2036 0.950 . S
H2007 C2037 0.950 . S
C2008 H1990 0.951 . S
C2008 C2009 1.366 . S
C2008 C2010 1.388 . S
C2009 C2008 1.366 . S
C2009 C2013 1.385 . S
C2010 H1991 0.951 . S
C2010 C2008 1.388 . S
C2010 C2011 1.366 . S
C2011 C2010 1.366 . S
C2011 C2012 1.414 . S
C2011 C2014 1.499 . S
C2012 H1992 0.950 . S
C2012 C2011 1.414 . S
C2012 C2013 1.374 . S
C2013 H1993 0.950 . S
C2013 C2009 1.385 . S
C2013 C2012 1.374 . S
C2014 C2011 1.499 . S
C2014 C2015 1.373 . S
C2014 C2016 1.389 . S
C2015 H1994 0.950 . S
C2015 C2014 1.373 . S
C2015 C2031 1.377 . S
C2016 C2014 1.389 . S
C2016 C2017 1.524 . S
C2016 C2030 1.377 . S
C2017 C2016 1.524 . S
C2017 C2018 1.397 . S
C2017 C2022 1.363 . S
C2018 H1995 0.950 . S
C2018 C2017 1.397 . S
C2018 C2019 1.334 . S
C2019 H1996 0.950 . S
C2019 C2018 1.334 . S
C2019 C2020 1.287 . S
C2020 C2019 1.287 . S
C2020 C2021 1.524 . S
C2020 H2039 0.913 . S
C2021 H1997 0.950 . S
C2021 C2020 1.524 . S
C2021 C2022 1.415 . S
C2022 H1998 0.950 . S
C2022 C2017 1.363 . S
C2022 C2021 1.415 . S
C2023 H1999 0.951 . S
C2023 C2024 1.366 . S
C2023 C2025 1.388 . S
C2024 C2023 1.366 . S
C2024 C2028 1.385 . S
C2025 H2000 0.951 . S
C2025 C2023 1.388 . S
C2025 C2026 1.366 . S
C2026 C2025 1.366 . S
C2026 C2027 1.414 . S
C2026 C2029 1.499 . S
C2027 H2001 0.950 . S
C2027 C2026 1.414 . S
C2027 C2028 1.374 . S
C2028 H2002 0.950 . S
C2028 C2024 1.385 . S
C2028 C2027 1.374 . S
C2029 C2026 1.499 . S
C2029 C2030 1.373 . S
C2029 C2031 1.389 . S
C2030 H2003 0.950 . S
C2030 C2016 1.377 . S
C2030 C2029 1.373 . S
C2031 C2015 1.377 . S
C2031 C2029 1.389 . S
C2031 C2032 1.524 . S
C2032 C2031 1.524 . S
C2032 C2033 1.397 . S
C2032 C2037 1.363 . S
C2033 H2004 0.950 . S
C2033 C2032 1.397 . S
C2033 C2034 1.334 . S
C2034 H2005 0.950 . S
C2034 C2033 1.334 . S
C2034 C2035 1.287 . S
C2035 C2034 1.287 . S
C2035 C2036 1.524 . S
C2035 H2038 0.999 . S
C2036 H2006 0.950 . S
C2036 C2035 1.524 . S
C2036 C2037 1.415 . S
C2037 H2007 0.950 . S
C2037 C2032 1.363 . S
C2037 C2036 1.415 . S
H2038 C2035 0.999 . S
H2039 C2020 0.913 . S
H2040 C2058 0.951 . S
H2041 C2060 0.951 . S
H2042 C2062 0.950 . S
H2043 C2063 0.950 . S
H2044 C2065 0.950 . S
H2045 C2068 0.950 . S
H2046 C2069 0.950 . S
H2047 C2071 0.950 . S
H2048 C2072 0.950 . S
H2049 C2073 0.951 . S
H2050 C2075 0.951 . S
H2051 C2077 0.950 . S
H2052 C2078 0.950 . S
H2053 C2080 0.950 . S
H2054 C2083 0.950 . S
H2055 C2084 0.950 . S
H2056 C2086 0.950 . S
H2057 C2087 0.950 . S
C2058 H2040 0.951 . S
C2058 C2059 1.366 . S
C2058 C2060 1.388 . S
C2059 C2058 1.366 . S
C2059 C2063 1.385 . S
C2060 H2041 0.951 . S
C2060 C2058 1.388 . S
C2060 C2061 1.366 . S
C2061 C2060 1.366 . S
C2061 C2062 1.414 . S
C2061 C2064 1.499 . S
C2062 H2042 0.950 . S
C2062 C2061 1.414 . S
C2062 C2063 1.374 . S
C2063 H2043 0.950 . S
C2063 C2059 1.385 . S
C2063 C2062 1.374 . S
C2064 C2061 1.499 . S
C2064 C2065 1.373 . S
C2064 C2066 1.389 . S
C2065 H2044 0.950 . S
C2065 C2064 1.373 . S
C2065 C2081 1.377 1_655 S
C2066 C2064 1.389 . S
C2066 C2067 1.524 . S
C2066 C2080 1.377 1_655 S
C2067 C2066 1.524 . S
C2067 C2068 1.397 . S
C2067 C2072 1.363 . S
C2068 H2045 0.950 . S
C2068 C2067 1.397 . S
C2068 C2069 1.334 . S
C2069 H2046 0.950 . S
C2069 C2068 1.334 . S
C2069 C2070 1.287 . S
C2070 C2069 1.287 . S
C2070 C2071 1.524 . S
C2070 H2089 0.913 . S
C2071 H2047 0.950 . S
C2071 C2070 1.524 . S
C2071 C2072 1.415 . S
C2072 H2048 0.950 . S
C2072 C2067 1.363 . S
C2072 C2071 1.415 . S
C2073 H2049 0.951 . S
C2073 C2074 1.366 . S
C2073 C2075 1.388 . S
C2074 C2073 1.366 . S
C2074 C2078 1.385 . S
C2075 H2050 0.951 . S
C2075 C2073 1.388 . S
C2075 C2076 1.366 . S
C2076 C2075 1.366 . S
C2076 C2077 1.414 . S
C2076 C2079 1.499 . S
C2077 H2051 0.950 . S
C2077 C2076 1.414 . S
C2077 C2078 1.374 . S
C2078 H2052 0.950 . S
C2078 C2074 1.385 . S
C2078 C2077 1.374 . S
C2079 C2076 1.499 . S
C2079 C2080 1.373 . S
C2079 C2081 1.389 . S
C2080 H2053 0.950 . S
C2080 C2066 1.377 1_455 S
C2080 C2079 1.373 . S
C2081 C2065 1.377 1_455 S
C2081 C2079 1.389 . S
C2081 C2082 1.524 . S
C2082 C2081 1.524 . S
C2082 C2083 1.397 1_556 S
C2082 C2087 1.363 . S
C2083 H2054 0.950 . S
C2083 C2082 1.397 1_554 S
C2083 C2084 1.334 . S
C2084 H2055 0.950 . S
C2084 C2083 1.334 . S
C2084 C2085 1.287 . S
C2085 C2084 1.287 . S
C2085 C2086 1.524 . S
C2085 H2088 0.999 . S
C2086 H2056 0.950 . S
C2086 C2085 1.524 . S
C2086 C2087 1.415 1_554 S
C2087 H2057 0.950 . S
C2087 C2082 1.363 . S
C2087 C2086 1.415 1_556 S
H2088 C2085 0.999 . S
H2089 C2070 0.913 . S
H2090 C2108 0.951 . S
H2091 C2110 0.951 . S
H2092 C2112 0.950 . S
H2093 C2113 0.950 . S
H2094 C2115 0.950 . S
H2095 C2118 0.950 . S
H2096 C2119 0.950 . S
H2097 C2121 0.950 . S
H2098 C2122 0.950 . S
H2099 C2123 0.951 . S
H2100 C2125 0.951 . S
H2101 C2127 0.950 . S
H2102 C2128 0.950 . S
H2103 C2130 0.950 . S
H2104 C2133 0.950 . S
H2105 C2134 0.950 . S
H2106 C2136 0.950 . S
H2107 C2137 0.950 . S
C2108 H2090 0.951 . S
C2108 C2109 1.366 . S
C2108 C2110 1.388 . S
C2109 C2108 1.366 . S
C2109 C2113 1.385 . S
C2110 H2091 0.951 . S
C2110 C2108 1.388 . S
C2110 C2111 1.366 . S
C2111 C2110 1.366 . S
C2111 C2112 1.414 . S
C2111 C2114 1.499 . S
C2112 H2092 0.950 . S
C2112 C2111 1.414 . S
C2112 C2113 1.374 . S
C2113 H2093 0.950 . S
C2113 C2109 1.385 . S
C2113 C2112 1.374 . S
C2114 C2111 1.499 . S
C2114 C2115 1.373 . S
C2114 C2116 1.389 . S
C2115 H2094 0.950 . S
C2115 C2114 1.373 . S
C2115 C2131 1.377 . S
C2116 C2114 1.389 . S
C2116 C2117 1.524 . S
C2116 C2130 1.377 . S
C2117 C2116 1.524 . S
C2117 C2118 1.397 . S
C2117 C2122 1.363 . S
C2118 H2095 0.950 . S
C2118 C2117 1.397 . S
C2118 C2119 1.334 . S
C2119 H2096 0.950 . S
C2119 C2118 1.334 . S
C2119 C2120 1.287 . S
C2120 C2119 1.287 . S
C2120 C2121 1.524 . S
C2120 H2139 0.913 . S
C2121 H2097 0.950 . S
C2121 C2120 1.524 . S
C2121 C2122 1.415 . S
C2122 H2098 0.950 . S
C2122 C2117 1.363 . S
C2122 C2121 1.415 . S
C2123 H2099 0.951 . S
C2123 C2124 1.366 . S
C2123 C2125 1.388 . S
C2124 C2123 1.366 . S
C2124 C2128 1.385 . S
C2125 H2100 0.951 . S
C2125 C2123 1.388 . S
C2125 C2126 1.366 . S
C2126 C2125 1.366 . S
C2126 C2127 1.414 . S
C2126 C2129 1.499 . S
C2127 H2101 0.950 . S
C2127 C2126 1.414 . S
C2127 C2128 1.374 . S
C2128 H2102 0.950 . S
C2128 C2124 1.385 . S
C2128 C2127 1.374 . S
C2129 C2126 1.499 . S
C2129 C2130 1.373 . S
C2129 C2131 1.389 . S
C2130 H2103 0.950 . S
C2130 C2116 1.377 . S
C2130 C2129 1.373 . S
C2131 C2115 1.377 . S
C2131 C2129 1.389 . S
C2131 C2132 1.524 . S
C2132 C2131 1.524 . S
C2132 C2133 1.397 . S
C2132 C2137 1.363 . S
C2133 H2104 0.950 . S
C2133 C2132 1.397 . S
C2133 C2134 1.334 . S
C2134 H2105 0.950 . S
C2134 C2133 1.334 . S
C2134 C2135 1.287 . S
C2135 C2134 1.287 . S
C2135 C2136 1.524 . S
C2135 H2138 0.999 . S
C2136 H2106 0.950 . S
C2136 C2135 1.524 . S
C2136 C2137 1.415 . S
C2137 H2107 0.950 . S
C2137 C2132 1.363 . S
C2137 C2136 1.415 . S
H2138 C2135 0.999 . S
H2139 C2120 0.913 . S
H2140 C2158 0.951 . S
H2141 C2160 0.951 . S
H2142 C2162 0.950 . S
H2143 C2163 0.950 . S
H2144 C2165 0.950 . S
H2145 C2168 0.950 . S
H2146 C2169 0.950 . S
H2147 C2171 0.950 . S
H2148 C2172 0.950 . S
H2149 C2173 0.951 . S
H2150 C2175 0.951 . S
H2151 C2177 0.950 . S
H2152 C2178 0.950 . S
H2153 C2180 0.950 . S
H2154 C2183 0.950 . S
H2155 C2184 0.950 . S
H2156 C2186 0.950 . S
H2157 C2187 0.950 . S
C2158 H2140 0.951 . S
C2158 C2159 1.366 . S
C2158 C2160 1.388 . S
C2159 C2158 1.366 . S
C2159 C2163 1.385 . S
C2160 H2141 0.951 . S
C2160 C2158 1.388 . S
C2160 C2161 1.366 . S
C2161 C2160 1.366 . S
C2161 C2162 1.414 . S
C2161 C2164 1.499 . S
C2162 H2142 0.950 . S
C2162 C2161 1.414 . S
C2162 C2163 1.374 . S
C2163 H2143 0.950 . S
C2163 C2159 1.385 . S
C2163 C2162 1.374 . S
C2164 C2161 1.499 . S
C2164 C2165 1.373 . S
C2164 C2166 1.389 . S
C2165 H2144 0.950 . S
C2165 C2164 1.373 . S
C2165 C2181 1.377 . S
C2166 C2164 1.389 . S
C2166 C2167 1.524 . S
C2166 C2180 1.377 . S
C2167 C2166 1.524 . S
C2167 C2168 1.397 . S
C2167 C2172 1.363 . S
C2168 H2145 0.950 . S
C2168 C2167 1.397 . S
C2168 C2169 1.334 . S
C2169 H2146 0.950 . S
C2169 C2168 1.334 . S
C2169 C2170 1.287 . S
C2170 C2169 1.287 . S
C2170 C2171 1.524 . S
C2170 H2189 0.913 . S
C2171 H2147 0.950 . S
C2171 C2170 1.524 . S
C2171 C2172 1.415 . S
C2172 H2148 0.950 . S
C2172 C2167 1.363 . S
C2172 C2171 1.415 . S
C2173 H2149 0.951 . S
C2173 C2174 1.366 . S
C2173 C2175 1.388 . S
C2174 C2173 1.366 . S
C2174 C2178 1.385 . S
C2175 H2150 0.951 . S
C2175 C2173 1.388 . S
C2175 C2176 1.366 . S
C2176 C2175 1.366 . S
C2176 C2177 1.414 . S
C2176 C2179 1.499 . S
C2177 H2151 0.950 . S
C2177 C2176 1.414 . S
C2177 C2178 1.374 . S
C2178 H2152 0.950 . S
C2178 C2174 1.385 . S
C2178 C2177 1.374 . S
C2179 C2176 1.499 . S
C2179 C2180 1.373 . S
C2179 C2181 1.389 . S
C2180 H2153 0.950 . S
C2180 C2166 1.377 . S
C2180 C2179 1.373 . S
C2181 C2165 1.377 . S
C2181 C2179 1.389 . S
C2181 C2182 1.524 . S
C2182 C2181 1.524 . S
C2182 C2183 1.397 . S
C2182 C2187 1.363 . S
C2183 H2154 0.950 . S
C2183 C2182 1.397 . S
C2183 C2184 1.334 . S
C2184 H2155 0.950 . S
C2184 C2183 1.334 . S
C2184 C2185 1.287 . S
C2185 C2184 1.287 . S
C2185 C2186 1.524 . S
C2185 H2188 0.999 . S
C2186 H2156 0.950 . S
C2186 C2185 1.524 . S
C2186 C2187 1.415 . S
C2187 H2157 0.950 . S
C2187 C2182 1.363 . S
C2187 C2186 1.415 . S
H2188 C2185 0.999 . S
H2189 C2170 0.913 . S
H2190 C2208 0.951 . S
H2191 C2210 0.951 . S
H2192 C2212 0.950 . S
H2193 C2213 0.950 . S
H2194 C2215 0.950 . S
H2195 C2218 0.950 1_556 S
H2196 C2219 0.950 . S
H2197 C2221 0.950 . S
H2198 C2222 0.950 . S
H2199 C2223 0.951 . S
H2200 C2225 0.951 . S
H2201 C2227 0.950 . S
H2202 C2228 0.950 . S
H2203 C2230 0.950 . S
H2204 C2233 0.950 . S
H2205 C2234 0.950 . S
H2206 C2236 0.950 . S
H2207 C2237 0.950 . S
C2208 H2190 0.951 . S
C2208 C2209 1.366 . S
C2208 C2210 1.388 . S
C2209 C2208 1.366 . S
C2209 C2213 1.385 . S
C2210 H2191 0.951 . S
C2210 C2208 1.388 . S
C2210 C2211 1.366 . S
C2211 C2210 1.366 . S
C2211 C2212 1.414 . S
C2211 C2214 1.499 . S
C2212 H2192 0.950 . S
C2212 C2211 1.414 . S
C2212 C2213 1.374 . S
C2213 H2193 0.950 . S
C2213 C2209 1.385 . S
C2213 C2212 1.374 . S
C2214 C2211 1.499 . S
C2214 C2215 1.373 . S
C2214 C2216 1.389 . S
C2215 H2194 0.950 . S
C2215 C2214 1.373 . S
C2215 C2231 1.377 1_455 S
C2216 C2214 1.389 . S
C2216 C2217 1.524 . S
C2216 C2230 1.377 1_455 S
C2217 C2216 1.524 . S
C2217 C2218 1.397 . S
C2217 C2222 1.363 . S
C2218 H2195 0.950 1_554 S
C2218 C2217 1.397 . S
C2218 C2219 1.334 1_554 S
C2219 H2196 0.950 . S
C2219 C2218 1.334 1_556 S
C2219 C2220 1.287 . S
C2220 C2219 1.287 . S
C2220 C2221 1.524 1_556 S
C2220 H2239 0.913 . S
C2221 H2197 0.950 . S
C2221 C2220 1.524 1_554 S
C2221 C2222 1.415 . S
C2222 H2198 0.950 . S
C2222 C2217 1.363 . S
C2222 C2221 1.415 . S
C2223 H2199 0.951 . S
C2223 C2224 1.366 . S
C2223 C2225 1.388 . S
C2224 C2223 1.366 . S
C2224 C2228 1.385 . S
C2225 H2200 0.951 . S
C2225 C2223 1.388 . S
C2225 C2226 1.366 . S
C2226 C2225 1.366 . S
C2226 C2227 1.414 . S
C2226 C2229 1.499 . S
C2227 H2201 0.950 . S
C2227 C2226 1.414 . S
C2227 C2228 1.374 . S
C2228 H2202 0.950 . S
C2228 C2224 1.385 . S
C2228 C2227 1.374 . S
C2229 C2226 1.499 . S
C2229 C2230 1.373 . S
C2229 C2231 1.389 . S
C2230 H2203 0.950 . S
C2230 C2216 1.377 1_655 S
C2230 C2229 1.373 . S
C2231 C2215 1.377 1_655 S
C2231 C2229 1.389 . S
C2231 C2232 1.524 . S
C2232 C2231 1.524 . S
C2232 C2233 1.397 . S
C2232 C2237 1.363 . S
C2233 H2204 0.950 . S
C2233 C2232 1.397 . S
C2233 C2234 1.334 . S
C2234 H2205 0.950 . S
C2234 C2233 1.334 . S
C2234 C2235 1.287 . S
C2235 C2234 1.287 . S
C2235 C2236 1.524 . S
C2235 H2238 0.999 . S
C2236 H2206 0.950 . S
C2236 C2235 1.524 . S
C2236 C2237 1.415 . S
C2237 H2207 0.950 . S
C2237 C2232 1.363 . S
C2237 C2236 1.415 . S
H2238 C2235 0.999 . S
H2239 C2220 0.913 . S
H2240 C2258 0.951 . S
H2241 C2260 0.951 . S
H2242 C2262 0.950 1_556 S
H2243 C2263 0.950 . S
H2244 C2265 0.950 . S
H2245 C2268 0.950 . S
H2246 C2269 0.950 . S
H2247 C2271 0.950 . S
H2248 C2272 0.950 . S
H2249 C2273 0.951 . S
H2250 C2275 0.951 . S
H2251 C2277 0.950 1_554 S
H2252 C2278 0.950 . S
H2253 C2280 0.950 . S
H2254 C2283 0.950 . S
H2255 C2284 0.950 . S
H2256 C2286 0.950 . S
H2257 C2287 0.950 . S
C2258 H2240 0.951 . S
C2258 C2259 1.366 . S
C2258 C2260 1.388 . S
C2259 C2258 1.366 . S
C2259 C2263 1.385 . S
C2260 H2241 0.951 . S
C2260 C2258 1.388 . S
C2260 C2261 1.366 . S
C2261 C2260 1.366 . S
C2261 C2262 1.414 . S
C2261 C2264 1.499 . S
C2262 H2242 0.950 1_554 S
C2262 C2261 1.414 . S
C2262 C2263 1.374 . S
C2263 H2243 0.950 . S
C2263 C2259 1.385 . S
C2263 C2262 1.374 . S
C2264 C2261 1.499 . S
C2264 C2265 1.373 1_554 S
C2264 C2266 1.389 . S
C2265 H2244 0.950 . S
C2265 C2264 1.373 1_556 S
C2265 C2281 1.377 . S
C2266 C2264 1.389 . S
C2266 C2267 1.524 . S
C2266 C2280 1.377 . S
C2267 C2266 1.524 . S
C2267 C2268 1.397 . S
C2267 C2272 1.363 . S
C2268 H2245 0.950 . S
C2268 C2267 1.397 . S
C2268 C2269 1.334 . S
C2269 H2246 0.950 . S
C2269 C2268 1.334 . S
C2269 C2270 1.287 . S
C2270 C2269 1.287 . S
C2270 C2271 1.524 . S
C2270 H2289 0.913 . S
C2271 H2247 0.950 . S
C2271 C2270 1.524 . S
C2271 C2272 1.415 . S
C2272 H2248 0.950 . S
C2272 C2267 1.363 . S
C2272 C2271 1.415 . S
C2273 H2249 0.951 . S
C2273 C2274 1.366 . S
C2273 C2275 1.388 . S
C2274 C2273 1.366 . S
C2274 C2278 1.385 . S
C2275 H2250 0.951 . S
C2275 C2273 1.388 . S
C2275 C2276 1.366 . S
C2276 C2275 1.366 . S
C2276 C2277 1.414 . S
C2276 C2279 1.499 . S
C2277 H2251 0.950 1_556 S
C2277 C2276 1.414 . S
C2277 C2278 1.374 . S
C2278 H2252 0.950 . S
C2278 C2274 1.385 . S
C2278 C2277 1.374 . S
C2279 C2276 1.499 . S
C2279 C2280 1.373 1_556 S
C2279 C2281 1.389 . S
C2280 H2253 0.950 . S
C2280 C2266 1.377 . S
C2280 C2279 1.373 1_554 S
C2281 C2265 1.377 . S
C2281 C2279 1.389 . S
C2281 C2282 1.524 . S
C2282 C2281 1.524 . S
C2282 C2283 1.397 . S
C2282 C2287 1.363 . S
C2283 H2254 0.950 . S
C2283 C2282 1.397 . S
C2283 C2284 1.334 . S
C2284 H2255 0.950 . S
C2284 C2283 1.334 . S
C2284 C2285 1.287 . S
C2285 C2284 1.287 . S
C2285 C2286 1.524 . S
C2285 H2288 0.999 . S
C2286 H2256 0.950 . S
C2286 C2285 1.524 . S
C2286 C2287 1.415 . S
C2287 H2257 0.950 . S
C2287 C2282 1.363 . S
C2287 C2286 1.415 . S
H2288 C2285 0.999 . S
H2289 C2270 0.913 . S
H2290 C2308 0.951 . S
H2291 C2310 0.951 . S
H2292 C2312 0.950 . S
H2293 C2313 0.950 . S
H2294 C2315 0.950 . S
H2295 C2318 0.950 . S
H2296 C2319 0.950 . S
H2297 C2321 0.950 . S
H2298 C2322 0.950 . S
H2299 C2323 0.951 . S
H2300 C2325 0.951 . S
H2301 C2327 0.950 . S
H2302 C2328 0.950 . S
H2303 C2330 0.950 . S
H2304 C2333 0.950 . S
H2305 C2334 0.950 . S
H2306 C2336 0.950 . S
H2307 C2337 0.950 . S
C2308 H2290 0.951 . S
C2308 C2309 1.366 . S
C2308 C2310 1.388 . S
C2309 C2308 1.366 . S
C2309 C2313 1.385 . S
C2310 H2291 0.951 . S
C2310 C2308 1.388 . S
C2310 C2311 1.366 . S
C2311 C2310 1.366 . S
C2311 C2312 1.414 . S
C2311 C2314 1.499 . S
C2312 H2292 0.950 . S
C2312 C2311 1.414 . S
C2312 C2313 1.374 . S
C2313 H2293 0.950 . S
C2313 C2309 1.385 . S
C2313 C2312 1.374 . S
C2314 C2311 1.499 . S
C2314 C2315 1.373 . S
C2314 C2316 1.389 . S
C2315 H2294 0.950 . S
C2315 C2314 1.373 . S
C2315 C2331 1.377 . S
C2316 C2314 1.389 . S
C2316 C2317 1.524 . S
C2316 C2330 1.377 . S
C2317 C2316 1.524 . S
C2317 C2318 1.397 . S
C2317 C2322 1.363 . S
C2318 H2295 0.950 . S
C2318 C2317 1.397 . S
C2318 C2319 1.334 . S
C2319 H2296 0.950 . S
C2319 C2318 1.334 . S
C2319 C2320 1.287 . S
C2320 C2319 1.287 . S
C2320 C2321 1.524 . S
C2320 H2339 0.913 . S
C2321 H2297 0.950 . S
C2321 C2320 1.524 . S
C2321 C2322 1.415 . S
C2322 H2298 0.950 . S
C2322 C2317 1.363 . S
C2322 C2321 1.415 . S
C2323 H2299 0.951 . S
C2323 C2324 1.366 . S
C2323 C2325 1.388 . S
C2324 C2323 1.366 . S
C2324 C2328 1.385 . S
C2325 H2300 0.951 . S
C2325 C2323 1.388 . S
C2325 C2326 1.366 . S
C2326 C2325 1.366 . S
C2326 C2327 1.414 . S
C2326 C2329 1.499 . S
C2327 H2301 0.950 . S
C2327 C2326 1.414 . S
C2327 C2328 1.374 . S
C2328 H2302 0.950 . S
C2328 C2324 1.385 . S
C2328 C2327 1.374 . S
C2329 C2326 1.499 . S
C2329 C2330 1.373 . S
C2329 C2331 1.389 . S
C2330 H2303 0.950 . S
C2330 C2316 1.377 . S
C2330 C2329 1.373 . S
C2331 C2315 1.377 . S
C2331 C2329 1.389 . S
C2331 C2332 1.524 . S
C2332 C2331 1.524 . S
C2332 C2333 1.397 . S
C2332 C2337 1.363 . S
C2333 H2304 0.950 . S
C2333 C2332 1.397 . S
C2333 C2334 1.334 . S
C2334 H2305 0.950 . S
C2334 C2333 1.334 . S
C2334 C2335 1.287 . S
C2335 C2334 1.287 . S
C2335 C2336 1.524 . S
C2335 H2338 0.999 . S
C2336 H2306 0.950 . S
C2336 C2335 1.524 . S
C2336 C2337 1.415 . S
C2337 H2307 0.950 . S
C2337 C2332 1.363 . S
C2337 C2336 1.415 . S
H2338 C2335 0.999 . S
H2339 C2320 0.913 . S
H2340 C2358 0.951 . S
H2341 C2360 0.951 . S
H2342 C2362 0.950 . S
H2343 C2363 0.950 . S
H2344 C2365 0.950 . S
H2345 C2368 0.950 . S
H2346 C2369 0.950 . S
H2347 C2371 0.950 . S
H2348 C2372 0.950 . S
H2349 C2373 0.951 . S
H2350 C2375 0.951 . S
H2351 C2377 0.950 . S
H2352 C2378 0.950 . S
H2353 C2380 0.950 . S
H2354 C2383 0.950 . S
H2355 C2384 0.950 . S
H2356 C2386 0.950 . S
H2357 C2387 0.950 . S
C2358 H2340 0.951 . S
C2358 C2359 1.366 . S
C2358 C2360 1.388 . S
C2359 C2358 1.366 . S
C2359 C2363 1.385 . S
C2360 H2341 0.951 . S
C2360 C2358 1.388 . S
C2360 C2361 1.366 . S
C2361 C2360 1.366 . S
C2361 C2362 1.414 . S
C2361 C2364 1.499 . S
C2362 H2342 0.950 . S
C2362 C2361 1.414 . S
C2362 C2363 1.374 . S
C2363 H2343 0.950 . S
C2363 C2359 1.385 . S
C2363 C2362 1.374 . S
C2364 C2361 1.499 . S
C2364 C2365 1.373 . S
C2364 C2366 1.389 . S
C2365 H2344 0.950 . S
C2365 C2364 1.373 . S
C2365 C2381 1.377 . S
C2366 C2364 1.389 . S
C2366 C2367 1.524 . S
C2366 C2380 1.377 . S
C2367 C2366 1.524 . S
C2367 C2368 1.397 . S
C2367 C2372 1.363 . S
C2368 H2345 0.950 . S
C2368 C2367 1.397 . S
C2368 C2369 1.334 . S
C2369 H2346 0.950 . S
C2369 C2368 1.334 . S
C2369 C2370 1.287 . S
C2370 C2369 1.287 . S
C2370 C2371 1.524 . S
C2370 H2389 0.913 . S
C2371 H2347 0.950 . S
C2371 C2370 1.524 . S
C2371 C2372 1.415 . S
C2372 H2348 0.950 . S
C2372 C2367 1.363 . S
C2372 C2371 1.415 . S
C2373 H2349 0.951 . S
C2373 C2374 1.366 . S
C2373 C2375 1.388 . S
C2374 C2373 1.366 . S
C2374 C2378 1.385 . S
C2375 H2350 0.951 . S
C2375 C2373 1.388 . S
C2375 C2376 1.366 . S
C2376 C2375 1.366 . S
C2376 C2377 1.414 . S
C2376 C2379 1.499 . S
C2377 H2351 0.950 . S
C2377 C2376 1.414 . S
C2377 C2378 1.374 . S
C2378 H2352 0.950 . S
C2378 C2374 1.385 . S
C2378 C2377 1.374 . S
C2379 C2376 1.499 . S
C2379 C2380 1.373 . S
C2379 C2381 1.389 . S
C2380 H2353 0.950 . S
C2380 C2366 1.377 . S
C2380 C2379 1.373 . S
C2381 C2365 1.377 . S
C2381 C2379 1.389 . S
C2381 C2382 1.524 . S
C2382 C2381 1.524 . S
C2382 C2383 1.397 . S
C2382 C2387 1.363 . S
C2383 H2354 0.950 . S
C2383 C2382 1.397 . S
C2383 C2384 1.334 . S
C2384 H2355 0.950 . S
C2384 C2383 1.334 . S
C2384 C2385 1.287 . S
C2385 C2384 1.287 . S
C2385 C2386 1.524 . S
C2385 H2388 0.999 . S
C2386 H2356 0.950 . S
C2386 C2385 1.524 . S
C2386 C2387 1.415 . S
C2387 H2357 0.950 . S
C2387 C2382 1.363 . S
C2387 C2386 1.415 . S
H2388 C2385 0.999 . S
H2389 C2370 0.913 . S
H2390 C2408 0.951 . S
H2391 C2410 0.951 . S
H2392 C2412 0.950 . S
H2393 C2413 0.950 . S
H2394 C2415 0.950 . S
H2395 C2418 0.950 . S
H2396 C2419 0.950 . S
H2397 C2421 0.950 . S
H2398 C2422 0.950 . S
H2399 C2423 0.951 . S
H2400 C2425 0.951 . S
H2401 C2427 0.950 . S
H2402 C2428 0.950 . S
H2403 C2430 0.950 . S
H2404 C2433 0.950 . S
H2405 C2434 0.950 . S
H2406 C2436 0.950 . S
H2407 C2437 0.950 . S
C2408 H2390 0.951 . S
C2408 C2409 1.366 . S
C2408 C2410 1.388 . S
C2409 C2408 1.366 . S
C2409 C2413 1.385 . S
C2410 H2391 0.951 . S
C2410 C2408 1.388 . S
C2410 C2411 1.366 . S
C2411 C2410 1.366 . S
C2411 C2412 1.414 . S
C2411 C2414 1.499 . S
C2412 H2392 0.950 . S
C2412 C2411 1.414 . S
C2412 C2413 1.374 . S
C2413 H2393 0.950 . S
C2413 C2409 1.385 . S
C2413 C2412 1.374 . S
C2414 C2411 1.499 . S
C2414 C2415 1.373 . S
C2414 C2416 1.389 . S
C2415 H2394 0.950 . S
C2415 C2414 1.373 . S
C2415 C2431 1.377 . S
C2416 C2414 1.389 . S
C2416 C2417 1.524 . S
C2416 C2430 1.377 . S
C2417 C2416 1.524 . S
C2417 C2418 1.397 . S
C2417 C2422 1.363 . S
C2418 H2395 0.950 . S
C2418 C2417 1.397 . S
C2418 C2419 1.334 . S
C2419 H2396 0.950 . S
C2419 C2418 1.334 . S
C2419 C2420 1.287 . S
C2420 C2419 1.287 . S
C2420 C2421 1.524 . S
C2420 H2439 0.913 . S
C2421 H2397 0.950 . S
C2421 C2420 1.524 . S
C2421 C2422 1.415 . S
C2422 H2398 0.950 . S
C2422 C2417 1.363 . S
C2422 C2421 1.415 . S
C2423 H2399 0.951 . S
C2423 C2424 1.366 . S
C2423 C2425 1.388 . S
C2424 C2423 1.366 . S
C2424 C2428 1.385 . S
C2425 H2400 0.951 . S
C2425 C2423 1.388 . S
C2425 C2426 1.366 . S
C2426 C2425 1.366 . S
C2426 C2427 1.414 . S
C2426 C2429 1.499 . S
C2427 H2401 0.950 . S
C2427 C2426 1.414 . S
C2427 C2428 1.374 . S
C2428 H2402 0.950 . S
C2428 C2424 1.385 . S
C2428 C2427 1.374 . S
C2429 C2426 1.499 . S
C2429 C2430 1.373 . S
C2429 C2431 1.389 . S
C2430 H2403 0.950 . S
C2430 C2416 1.377 . S
C2430 C2429 1.373 . S
C2431 C2415 1.377 . S
C2431 C2429 1.389 . S
C2431 C2432 1.524 . S
C2432 C2431 1.524 . S
C2432 C2433 1.397 . S
C2432 C2437 1.363 . S
C2433 H2404 0.950 . S
C2433 C2432 1.397 . S
C2433 C2434 1.334 . S
C2434 H2405 0.950 . S
C2434 C2433 1.334 . S
C2434 C2435 1.287 . S
C2435 C2434 1.287 . S
C2435 C2436 1.524 . S
C2435 H2438 0.999 . S
C2436 H2406 0.950 . S
C2436 C2435 1.524 . S
C2436 C2437 1.415 . S
C2437 H2407 0.950 . S
C2437 C2432 1.363 . S
C2437 C2436 1.415 . S
H2438 C2435 0.999 . S
H2439 C2420 0.913 . S
H2440 C2458 0.951 . S
H2441 C2460 0.951 . S
H2442 C2462 0.950 1_556 S
H2443 C2463 0.950 . S
H2444 C2465 0.950 . S
H2445 C2468 0.950 . S
H2446 C2469 0.950 . S
H2447 C2471 0.950 . S
H2448 C2472 0.950 . S
H2449 C2473 0.951 . S
H2450 C2475 0.951 . S
H2451 C2477 0.950 1_554 S
H2452 C2478 0.950 . S
H2453 C2480 0.950 . S
H2454 C2483 0.950 . S
H2455 C2484 0.950 . S
H2456 C2486 0.950 . S
H2457 C2487 0.950 . S
C2458 H2440 0.951 . S
C2458 C2459 1.366 . S
C2458 C2460 1.388 . S
C2459 C2458 1.366 . S
C2459 C2463 1.385 . S
C2460 H2441 0.951 . S
C2460 C2458 1.388 . S
C2460 C2461 1.366 . S
C2461 C2460 1.366 . S
C2461 C2462 1.414 . S
C2461 C2464 1.499 . S
C2462 H2442 0.950 1_554 S
C2462 C2461 1.414 . S
C2462 C2463 1.374 . S
C2463 H2443 0.950 . S
C2463 C2459 1.385 . S
C2463 C2462 1.374 . S
C2464 C2461 1.499 . S
C2464 C2465 1.373 1_554 S
C2464 C2466 1.389 . S
C2465 H2444 0.950 . S
C2465 C2464 1.373 1_556 S
C2465 C2481 1.377 . S
C2466 C2464 1.389 . S
C2466 C2467 1.524 . S
C2466 C2480 1.377 . S
C2467 C2466 1.524 . S
C2467 C2468 1.397 . S
C2467 C2472 1.363 . S
C2468 H2445 0.950 . S
C2468 C2467 1.397 . S
C2468 C2469 1.334 . S
C2469 H2446 0.950 . S
C2469 C2468 1.334 . S
C2469 C2470 1.287 . S
C2470 C2469 1.287 . S
C2470 C2471 1.524 . S
C2470 H2489 0.913 . S
C2471 H2447 0.950 . S
C2471 C2470 1.524 . S
C2471 C2472 1.415 . S
C2472 H2448 0.950 . S
C2472 C2467 1.363 . S
C2472 C2471 1.415 . S
C2473 H2449 0.951 . S
C2473 C2474 1.366 . S
C2473 C2475 1.388 . S
C2474 C2473 1.366 . S
C2474 C2478 1.385 . S
C2475 H2450 0.951 . S
C2475 C2473 1.388 . S
C2475 C2476 1.366 . S
C2476 C2475 1.366 . S
C2476 C2477 1.414 . S
C2476 C2479 1.499 . S
C2477 H2451 0.950 1_556 S
C2477 C2476 1.414 . S
C2477 C2478 1.374 . S
C2478 H2452 0.950 . S
C2478 C2474 1.385 . S
C2478 C2477 1.374 . S
C2479 C2476 1.499 . S
C2479 C2480 1.373 1_556 S
C2479 C2481 1.389 . S
C2480 H2453 0.950 . S
C2480 C2466 1.377 . S
C2480 C2479 1.373 1_554 S
C2481 C2465 1.377 . S
C2481 C2479 1.389 . S
C2481 C2482 1.524 . S
C2482 C2481 1.524 . S
C2482 C2483 1.397 . S
C2482 C2487 1.363 . S
C2483 H2454 0.950 . S
C2483 C2482 1.397 . S
C2483 C2484 1.334 . S
C2484 H2455 0.950 . S
C2484 C2483 1.334 . S
C2484 C2485 1.287 . S
C2485 C2484 1.287 . S
C2485 C2486 1.524 . S
C2485 H2488 0.999 . S
C2486 H2456 0.950 . S
C2486 C2485 1.524 . S
C2486 C2487 1.415 . S
C2487 H2457 0.950 . S
C2487 C2482 1.363 . S
C2487 C2486 1.415 . S
H2488 C2485 0.999 . S
H2489 C2470 0.913 . S
H2490 C2508 0.951 . S
H2491 C2510 0.951 . S
H2492 C2512 0.950 . S
H2493 C2513 0.950 . S
H2494 C2515 0.950 . S
H2495 C2518 0.950 . S
H2496 C2519 0.950 . S
H2497 C2521 0.950 . S
H2498 C2522 0.950 . S
H2499 C2523 0.951 . S
H2500 C2525 0.951 . S
H2501 C2527 0.950 . S
H2502 C2528 0.950 . S
H2503 C2530 0.950 . S
H2504 C2533 0.950 . S
H2505 C2534 0.950 . S
H2506 C2536 0.950 . S
H2507 C2537 0.950 . S
C2508 H2490 0.951 . S
C2508 C2509 1.366 . S
C2508 C2510 1.388 . S
C2509 C2508 1.366 . S
C2509 C2513 1.385 . S
C2510 H2491 0.951 . S
C2510 C2508 1.388 . S
C2510 C2511 1.366 . S
C2511 C2510 1.366 . S
C2511 C2512 1.414 . S
C2511 C2514 1.499 . S
C2512 H2492 0.950 . S
C2512 C2511 1.414 . S
C2512 C2513 1.374 . S
C2513 H2493 0.950 . S
C2513 C2509 1.385 . S
C2513 C2512 1.374 . S
C2514 C2511 1.499 . S
C2514 C2515 1.373 . S
C2514 C2516 1.389 . S
C2515 H2494 0.950 . S
C2515 C2514 1.373 . S
C2515 C2531 1.377 . S
C2516 C2514 1.389 . S
C2516 C2517 1.524 . S
C2516 C2530 1.377 . S
C2517 C2516 1.524 . S
C2517 C2518 1.397 . S
C2517 C2522 1.363 . S
C2518 H2495 0.950 . S
C2518 C2517 1.397 . S
C2518 C2519 1.334 . S
C2519 H2496 0.950 . S
C2519 C2518 1.334 . S
C2519 C2520 1.287 . S
C2520 C2519 1.287 . S
C2520 C2521 1.524 . S
C2520 H2539 0.913 . S
C2521 H2497 0.950 . S
C2521 C2520 1.524 . S
C2521 C2522 1.415 . S
C2522 H2498 0.950 . S
C2522 C2517 1.363 . S
C2522 C2521 1.415 . S
C2523 H2499 0.951 . S
C2523 C2524 1.366 . S
C2523 C2525 1.388 . S
C2524 C2523 1.366 . S
C2524 C2528 1.385 . S
C2525 H2500 0.951 . S
C2525 C2523 1.388 . S
C2525 C2526 1.366 . S
C2526 C2525 1.366 . S
C2526 C2527 1.414 . S
C2526 C2529 1.499 . S
C2527 H2501 0.950 . S
C2527 C2526 1.414 . S
C2527 C2528 1.374 . S
C2528 H2502 0.950 . S
C2528 C2524 1.385 . S
C2528 C2527 1.374 . S
C2529 C2526 1.499 . S
C2529 C2530 1.373 . S
C2529 C2531 1.389 . S
C2530 H2503 0.950 . S
C2530 C2516 1.377 . S
C2530 C2529 1.373 . S
C2531 C2515 1.377 . S
C2531 C2529 1.389 . S
C2531 C2532 1.524 . S
C2532 C2531 1.524 . S
C2532 C2533 1.397 . S
C2532 C2537 1.363 . S
C2533 H2504 0.950 . S
C2533 C2532 1.397 . S
C2533 C2534 1.334 . S
C2534 H2505 0.950 . S
C2534 C2533 1.334 . S
C2534 C2535 1.287 . S
C2535 C2534 1.287 . S
C2535 C2536 1.524 . S
C2535 H2538 0.999 . S
C2536 H2506 0.950 . S
C2536 C2535 1.524 . S
C2536 C2537 1.415 . S
C2537 H2507 0.950 . S
C2537 C2532 1.363 . S
C2537 C2536 1.415 . S
H2538 C2535 0.999 . S
H2539 C2520 0.913 . S
H2540 C2558 0.951 . S
H2541 C2560 0.951 . S
H2542 C2562 0.950 . S
H2543 C2563 0.950 . S
H2544 C2565 0.950 . S
H2545 C2568 0.950 . S
H2546 C2569 0.950 . S
H2547 C2571 0.950 . S
H2548 C2572 0.950 . S
H2549 C2573 0.951 . S
H2550 C2575 0.951 . S
H2551 C2577 0.950 . S
H2552 C2578 0.950 . S
H2553 C2580 0.950 . S
H2554 C2583 0.950 . S
H2555 C2584 0.950 . S
H2556 C2586 0.950 . S
H2557 C2587 0.950 . S
C2558 H2540 0.951 . S
C2558 C2559 1.366 . S
C2558 C2560 1.388 . S
C2559 C2558 1.366 . S
C2559 C2563 1.385 . S
C2560 H2541 0.951 . S
C2560 C2558 1.388 . S
C2560 C2561 1.366 . S
C2561 C2560 1.366 . S
C2561 C2562 1.414 . S
C2561 C2564 1.499 . S
C2562 H2542 0.950 . S
C2562 C2561 1.414 . S
C2562 C2563 1.374 . S
C2563 H2543 0.950 . S
C2563 C2559 1.385 . S
C2563 C2562 1.374 . S
C2564 C2561 1.499 . S
C2564 C2565 1.373 . S
C2564 C2566 1.389 . S
C2565 H2544 0.950 . S
C2565 C2564 1.373 . S
C2565 C2581 1.377 . S
C2566 C2564 1.389 . S
C2566 C2567 1.524 . S
C2566 C2580 1.377 . S
C2567 C2566 1.524 . S
C2567 C2568 1.397 . S
C2567 C2572 1.363 . S
C2568 H2545 0.950 . S
C2568 C2567 1.397 . S
C2568 C2569 1.334 . S
C2569 H2546 0.950 . S
C2569 C2568 1.334 . S
C2569 C2570 1.287 . S
C2570 C2569 1.287 . S
C2570 C2571 1.524 . S
C2570 H2589 0.913 . S
C2571 H2547 0.950 . S
C2571 C2570 1.524 . S
C2571 C2572 1.415 . S
C2572 H2548 0.950 . S
C2572 C2567 1.363 . S
C2572 C2571 1.415 . S
C2573 H2549 0.951 . S
C2573 C2574 1.366 . S
C2573 C2575 1.388 . S
C2574 C2573 1.366 . S
C2574 C2578 1.385 . S
C2575 H2550 0.951 . S
C2575 C2573 1.388 . S
C2575 C2576 1.366 . S
C2576 C2575 1.366 . S
C2576 C2577 1.414 . S
C2576 C2579 1.499 . S
C2577 H2551 0.950 . S
C2577 C2576 1.414 . S
C2577 C2578 1.374 . S
C2578 H2552 0.950 . S
C2578 C2574 1.385 . S
C2578 C2577 1.374 . S
C2579 C2576 1.499 . S
C2579 C2580 1.373 . S
C2579 C2581 1.389 . S
C2580 H2553 0.950 . S
C2580 C2566 1.377 . S
C2580 C2579 1.373 . S
C2581 C2565 1.377 . S
C2581 C2579 1.389 . S
C2581 C2582 1.524 . S
C2582 C2581 1.524 . S
C2582 C2583 1.397 . S
C2582 C2587 1.363 . S
C2583 H2554 0.950 . S
C2583 C2582 1.397 . S
C2583 C2584 1.334 . S
C2584 H2555 0.950 . S
C2584 C2583 1.334 . S
C2584 C2585 1.287 . S
C2585 C2584 1.287 . S
C2585 C2586 1.524 . S
C2585 H2588 0.999 . S
C2586 H2556 0.950 . S
C2586 C2585 1.524 . S
C2586 C2587 1.415 . S
C2587 H2557 0.950 . S
C2587 C2582 1.363 . S
C2587 C2586 1.415 . S
H2588 C2585 0.999 . S
H2589 C2570 0.913 . S
H2590 C2608 0.951 . S
H2591 C2610 0.951 . S
H2592 C2612 0.950 . S
H2593 C2613 0.950 . S
H2594 C2615 0.950 . S
H2595 C2618 0.950 . S
H2596 C2619 0.950 . S
H2597 C2621 0.950 . S
H2598 C2622 0.950 . S
H2599 C2623 0.951 . S
H2600 C2625 0.951 . S
H2601 C2627 0.950 . S
H2602 C2628 0.950 . S
H2603 C2630 0.950 . S
H2604 C2633 0.950 . S
H2605 C2634 0.950 . S
H2606 C2636 0.950 . S
H2607 C2637 0.950 . S
C2608 H2590 0.951 . S
C2608 C2609 1.366 . S
C2608 C2610 1.388 . S
C2609 C2608 1.366 . S
C2609 C2613 1.385 . S
C2610 H2591 0.951 . S
C2610 C2608 1.388 . S
C2610 C2611 1.366 . S
C2611 C2610 1.366 . S
C2611 C2612 1.414 . S
C2611 C2614 1.499 . S
C2612 H2592 0.950 . S
C2612 C2611 1.414 . S
C2612 C2613 1.374 . S
C2613 H2593 0.950 . S
C2613 C2609 1.385 . S
C2613 C2612 1.374 . S
C2614 C2611 1.499 . S
C2614 C2615 1.373 . S
C2614 C2616 1.389 . S
C2615 H2594 0.950 . S
C2615 C2614 1.373 . S
C2615 C2631 1.377 . S
C2616 C2614 1.389 . S
C2616 C2617 1.524 . S
C2616 C2630 1.377 . S
C2617 C2616 1.524 . S
C2617 C2618 1.397 . S
C2617 C2622 1.363 . S
C2618 H2595 0.950 . S
C2618 C2617 1.397 . S
C2618 C2619 1.334 . S
C2619 H2596 0.950 . S
C2619 C2618 1.334 . S
C2619 C2620 1.287 . S
C2620 C2619 1.287 . S
C2620 C2621 1.524 . S
C2620 H2639 0.913 . S
C2621 H2597 0.950 . S
C2621 C2620 1.524 . S
C2621 C2622 1.415 . S
C2622 H2598 0.950 . S
C2622 C2617 1.363 . S
C2622 C2621 1.415 . S
C2623 H2599 0.951 . S
C2623 C2624 1.366 . S
C2623 C2625 1.388 . S
C2624 C2623 1.366 . S
C2624 C2628 1.385 . S
C2625 H2600 0.951 . S
C2625 C2623 1.388 . S
C2625 C2626 1.366 . S
C2626 C2625 1.366 . S
C2626 C2627 1.414 . S
C2626 C2629 1.499 . S
C2627 H2601 0.950 . S
C2627 C2626 1.414 . S
C2627 C2628 1.374 . S
C2628 H2602 0.950 . S
C2628 C2624 1.385 . S
C2628 C2627 1.374 . S
C2629 C2626 1.499 . S
C2629 C2630 1.373 . S
C2629 C2631 1.389 . S
C2630 H2603 0.950 . S
C2630 C2616 1.377 . S
C2630 C2629 1.373 . S
C2631 C2615 1.377 . S
C2631 C2629 1.389 . S
C2631 C2632 1.524 . S
C2632 C2631 1.524 . S
C2632 C2633 1.397 . S
C2632 C2637 1.363 . S
C2633 H2604 0.950 . S
C2633 C2632 1.397 . S
C2633 C2634 1.334 . S
C2634 H2605 0.950 . S
C2634 C2633 1.334 . S
C2634 C2635 1.287 . S
C2635 C2634 1.287 . S
C2635 C2636 1.524 . S
C2635 H2638 0.999 . S
C2636 H2606 0.950 . S
C2636 C2635 1.524 . S
C2636 C2637 1.415 . S
C2637 H2607 0.950 . S
C2637 C2632 1.363 . S
C2637 C2636 1.415 . S
H2638 C2635 0.999 . S
H2639 C2620 0.913 . S
H2640 C2658 0.951 . S
H2641 C2660 0.951 . S
H2642 C2662 0.950 . S
H2643 C2663 0.950 . S
H2644 C2665 0.950 . S
H2645 C2668 0.950 . S
H2646 C2669 0.950 . S
H2647 C2671 0.950 . S
H2648 C2672 0.950 . S
H2649 C2673 0.951 . S
H2650 C2675 0.951 . S
H2651 C2677 0.950 . S
H2652 C2678 0.950 . S
H2653 C2680 0.950 . S
H2654 C2683 0.950 . S
H2655 C2684 0.950 . S
H2656 C2686 0.950 . S
H2657 C2687 0.950 . S
C2658 H2640 0.951 . S
C2658 C2659 1.366 . S
C2658 C2660 1.388 . S
C2659 C2658 1.366 . S
C2659 C2663 1.385 . S
C2660 H2641 0.951 . S
C2660 C2658 1.388 . S
C2660 C2661 1.366 . S
C2661 C2660 1.366 . S
C2661 C2662 1.414 . S
C2661 C2664 1.499 . S
C2662 H2642 0.950 . S
C2662 C2661 1.414 . S
C2662 C2663 1.374 . S
C2663 H2643 0.950 . S
C2663 C2659 1.385 . S
C2663 C2662 1.374 . S
C2664 C2661 1.499 . S
C2664 C2665 1.373 . S
C2664 C2666 1.389 . S
C2665 H2644 0.950 . S
C2665 C2664 1.373 . S
C2665 C2681 1.377 1_565 S
C2666 C2664 1.389 . S
C2666 C2667 1.524 . S
C2666 C2680 1.377 1_565 S
C2667 C2666 1.524 . S
C2667 C2668 1.397 . S
C2667 C2672 1.363 . S
C2668 H2645 0.950 . S
C2668 C2667 1.397 . S
C2668 C2669 1.334 . S
C2669 H2646 0.950 . S
C2669 C2668 1.334 . S
C2669 C2670 1.287 . S
C2670 C2669 1.287 . S
C2670 C2671 1.524 . S
C2670 H2689 0.913 . S
C2671 H2647 0.950 . S
C2671 C2670 1.524 . S
C2671 C2672 1.415 . S
C2672 H2648 0.950 . S
C2672 C2667 1.363 . S
C2672 C2671 1.415 . S
C2673 H2649 0.951 . S
C2673 C2674 1.366 . S
C2673 C2675 1.388 . S
C2674 C2673 1.366 . S
C2674 C2678 1.385 . S
C2675 H2650 0.951 . S
C2675 C2673 1.388 . S
C2675 C2676 1.366 . S
C2676 C2675 1.366 . S
C2676 C2677 1.414 . S
C2676 C2679 1.499 . S
C2677 H2651 0.950 . S
C2677 C2676 1.414 . S
C2677 C2678 1.374 . S
C2678 H2652 0.950 . S
C2678 C2674 1.385 . S
C2678 C2677 1.374 . S
C2679 C2676 1.499 . S
C2679 C2680 1.373 . S
C2679 C2681 1.389 . S
C2680 H2653 0.950 . S
C2680 C2666 1.377 1_545 S
C2680 C2679 1.373 . S
C2681 C2665 1.377 1_545 S
C2681 C2679 1.389 . S
C2681 C2682 1.524 . S
C2682 C2681 1.524 . S
C2682 C2683 1.397 . S
C2682 C2687 1.363 . S
C2683 H2654 0.950 . S
C2683 C2682 1.397 . S
C2683 C2684 1.334 . S
C2684 H2655 0.950 . S
C2684 C2683 1.334 . S
C2684 C2685 1.287 . S
C2685 C2684 1.287 . S
C2685 C2686 1.524 . S
C2685 H2688 0.999 . S
C2686 H2656 0.950 . S
C2686 C2685 1.524 . S
C2686 C2687 1.415 . S
C2687 H2657 0.950 . S
C2687 C2682 1.363 . S
C2687 C2686 1.415 . S
H2688 C2685 0.999 . S
H2689 C2670 0.913 . S
H2690 C2708 0.951 . S
H2691 C2710 0.951 . S
H2692 C2712 0.950 . S
H2693 C2713 0.950 . S
H2694 C2715 0.950 . S
H2695 C2718 0.950 . S
H2696 C2719 0.950 . S
H2697 C2721 0.950 . S
H2698 C2722 0.950 . S
H2699 C2723 0.951 . S
H2700 C2725 0.951 . S
H2701 C2727 0.950 . S
H2702 C2728 0.950 . S
H2703 C2730 0.950 . S
H2704 C2733 0.950 . S
H2705 C2734 0.950 . S
H2706 C2736 0.950 . S
H2707 C2737 0.950 . S
C2708 H2690 0.951 . S
C2708 C2709 1.366 . S
C2708 C2710 1.388 . S
C2709 C2708 1.366 . S
C2709 C2713 1.385 . S
C2710 H2691 0.951 . S
C2710 C2708 1.388 . S
C2710 C2711 1.366 . S
C2711 C2710 1.366 . S
C2711 C2712 1.414 . S
C2711 C2714 1.499 . S
C2712 H2692 0.950 . S
C2712 C2711 1.414 . S
C2712 C2713 1.374 . S
C2713 H2693 0.950 . S
C2713 C2709 1.385 . S
C2713 C2712 1.374 . S
C2714 C2711 1.499 . S
C2714 C2715 1.373 . S
C2714 C2716 1.389 . S
C2715 H2694 0.950 . S
C2715 C2714 1.373 . S
C2715 C2731 1.377 . S
C2716 C2714 1.389 . S
C2716 C2717 1.524 . S
C2716 C2730 1.377 . S
C2717 C2716 1.524 . S
C2717 C2718 1.397 . S
C2717 C2722 1.363 . S
C2718 H2695 0.950 . S
C2718 C2717 1.397 . S
C2718 C2719 1.334 . S
C2719 H2696 0.950 . S
C2719 C2718 1.334 . S
C2719 C2720 1.287 . S
C2720 C2719 1.287 . S
C2720 C2721 1.524 . S
C2720 H2739 0.913 . S
C2721 H2697 0.950 . S
C2721 C2720 1.524 . S
C2721 C2722 1.415 . S
C2722 H2698 0.950 . S
C2722 C2717 1.363 . S
C2722 C2721 1.415 . S
C2723 H2699 0.951 . S
C2723 C2724 1.366 . S
C2723 C2725 1.388 . S
C2724 C2723 1.366 . S
C2724 C2728 1.385 . S
C2725 H2700 0.951 . S
C2725 C2723 1.388 . S
C2725 C2726 1.366 . S
C2726 C2725 1.366 . S
C2726 C2727 1.414 . S
C2726 C2729 1.499 . S
C2727 H2701 0.950 . S
C2727 C2726 1.414 . S
C2727 C2728 1.374 . S
C2728 H2702 0.950 . S
C2728 C2724 1.385 . S
C2728 C2727 1.374 . S
C2729 C2726 1.499 . S
C2729 C2730 1.373 . S
C2729 C2731 1.389 . S
C2730 H2703 0.950 . S
C2730 C2716 1.377 . S
C2730 C2729 1.373 . S
C2731 C2715 1.377 . S
C2731 C2729 1.389 . S
C2731 C2732 1.524 . S
C2732 C2731 1.524 . S
C2732 C2733 1.397 . S
C2732 C2737 1.363 . S
C2733 H2704 0.950 . S
C2733 C2732 1.397 . S
C2733 C2734 1.334 . S
C2734 H2705 0.950 . S
C2734 C2733 1.334 . S
C2734 C2735 1.287 . S
C2735 C2734 1.287 . S
C2735 C2736 1.524 . S
C2735 H2738 0.999 . S
C2736 H2706 0.950 . S
C2736 C2735 1.524 . S
C2736 C2737 1.415 . S
C2737 H2707 0.950 . S
C2737 C2732 1.363 . S
C2737 C2736 1.415 . S
H2738 C2735 0.999 . S
H2739 C2720 0.913 . S
H2740 C2758 0.951 . S
H2741 C2760 0.951 1_556 S
H2742 C2762 0.950 . S
H2743 C2763 0.950 . S
H2744 C2765 0.950 . S
H2745 C2768 0.950 1_554 S
H2746 C2769 0.950 . S
H2747 C2771 0.950 . S
H2748 C2772 0.950 . S
H2749 C2773 0.951 . S
H2750 C2775 0.951 1_554 S
H2751 C2777 0.950 . S
H2752 C2778 0.950 . S
H2753 C2780 0.950 . S
H2754 C2783 0.950 1_556 S
H2755 C2784 0.950 . S
H2756 C2786 0.950 . S
H2757 C2787 0.950 . S
C2758 H2740 0.951 . S
C2758 C2759 1.366 . S
C2758 C2760 1.388 . S
C2759 C2758 1.366 . S
C2759 C2763 1.385 . S
C2760 H2741 0.951 1_554 S
C2760 C2758 1.388 . S
C2760 C2761 1.366 . S
C2761 C2760 1.366 . S
C2761 C2762 1.414 . S
C2761 C2764 1.499 . S
C2762 H2742 0.950 . S
C2762 C2761 1.414 . S
C2762 C2763 1.374 . S
C2763 H2743 0.950 . S
C2763 C2759 1.385 . S
C2763 C2762 1.374 . S
C2764 C2761 1.499 . S
C2764 C2765 1.373 1_565 S
C2764 C2766 1.389 1_554 S
C2765 H2744 0.950 . S
C2765 C2764 1.373 1_545 S
C2765 C2781 1.377 . S
C2766 C2764 1.389 1_556 S
C2766 C2767 1.524 . S
C2766 C2780 1.377 . S
C2767 C2766 1.524 . S
C2767 C2768 1.397 . S
C2767 C2772 1.363 . S
C2768 H2745 0.950 1_556 S
C2768 C2767 1.397 . S
C2768 C2769 1.334 . S
C2769 H2746 0.950 . S
C2769 C2768 1.334 . S
C2769 C2770 1.287 . S
C2770 C2769 1.287 . S
C2770 C2771 1.524 . S
C2770 H2789 0.913 . S
C2771 H2747 0.950 . S
C2771 C2770 1.524 . S
C2771 C2772 1.415 . S
C2772 H2748 0.950 . S
C2772 C2767 1.363 . S
C2772 C2771 1.415 . S
C2773 H2749 0.951 . S
C2773 C2774 1.366 . S
C2773 C2775 1.388 . S
C2774 C2773 1.366 . S
C2774 C2778 1.385 . S
C2775 H2750 0.951 1_556 S
C2775 C2773 1.388 . S
C2775 C2776 1.366 . S
C2776 C2775 1.366 . S
C2776 C2777 1.414 . S
C2776 C2779 1.499 . S
C2777 H2751 0.950 . S
C2777 C2776 1.414 . S
C2777 C2778 1.374 . S
C2778 H2752 0.950 . S
C2778 C2774 1.385 . S
C2778 C2777 1.374 . S
C2779 C2776 1.499 . S
C2779 C2780 1.373 1_545 S
C2779 C2781 1.389 1_556 S
C2780 H2753 0.950 . S
C2780 C2766 1.377 . S
C2780 C2779 1.373 1_565 S
C2781 C2765 1.377 . S
C2781 C2779 1.389 1_554 S
C2781 C2782 1.524 . S
C2782 C2781 1.524 . S
C2782 C2783 1.397 . S
C2782 C2787 1.363 . S
C2783 H2754 0.950 1_554 S
C2783 C2782 1.397 . S
C2783 C2784 1.334 . S
C2784 H2755 0.950 . S
C2784 C2783 1.334 . S
C2784 C2785 1.287 . S
C2785 C2784 1.287 . S
C2785 C2786 1.524 . S
C2785 H2788 0.999 . S
C2786 H2756 0.950 . S
C2786 C2785 1.524 . S
C2786 C2787 1.415 . S
C2787 H2757 0.950 . S
C2787 C2782 1.363 . S
C2787 C2786 1.415 . S
H2788 C2785 0.999 . S
H2789 C2770 0.913 . S
H2790 C2808 0.951 . S
H2791 C2810 0.951 . S
H2792 C2812 0.950 . S
H2793 C2813 0.950 . S
H2794 C2815 0.950 . S
H2795 C2818 0.950 . S
H2796 C2819 0.950 . S
H2797 C2821 0.950 . S
H2798 C2822 0.950 . S
H2799 C2823 0.951 . S
H2800 C2825 0.951 . S
H2801 C2827 0.950 . S
H2802 C2828 0.950 . S
H2803 C2830 0.950 . S
H2804 C2833 0.950 . S
H2805 C2834 0.950 . S
H2806 C2836 0.950 . S
H2807 C2837 0.950 . S
C2808 H2790 0.951 . S
C2808 C2809 1.366 . S
C2808 C2810 1.388 . S
C2809 C2808 1.366 . S
C2809 C2813 1.385 . S
C2810 H2791 0.951 . S
C2810 C2808 1.388 . S
C2810 C2811 1.366 . S
C2811 C2810 1.366 . S
C2811 C2812 1.414 . S
C2811 C2814 1.499 . S
C2812 H2792 0.950 . S
C2812 C2811 1.414 . S
C2812 C2813 1.374 . S
C2813 H2793 0.950 . S
C2813 C2809 1.385 . S
C2813 C2812 1.374 . S
C2814 C2811 1.499 . S
C2814 C2815 1.373 . S
C2814 C2816 1.389 . S
C2815 H2794 0.950 . S
C2815 C2814 1.373 . S
C2815 C2831 1.377 . S
C2816 C2814 1.389 . S
C2816 C2817 1.524 . S
C2816 C2830 1.377 . S
C2817 C2816 1.524 . S
C2817 C2818 1.397 . S
C2817 C2822 1.363 . S
C2818 H2795 0.950 . S
C2818 C2817 1.397 . S
C2818 C2819 1.334 . S
C2819 H2796 0.950 . S
C2819 C2818 1.334 . S
C2819 C2820 1.287 . S
C2820 C2819 1.287 . S
C2820 C2821 1.524 . S
C2820 H2839 0.913 . S
C2821 H2797 0.950 . S
C2821 C2820 1.524 . S
C2821 C2822 1.415 . S
C2822 H2798 0.950 . S
C2822 C2817 1.363 . S
C2822 C2821 1.415 . S
C2823 H2799 0.951 . S
C2823 C2824 1.366 . S
C2823 C2825 1.388 . S
C2824 C2823 1.366 . S
C2824 C2828 1.385 . S
C2825 H2800 0.951 . S
C2825 C2823 1.388 . S
C2825 C2826 1.366 . S
C2826 C2825 1.366 . S
C2826 C2827 1.414 . S
C2826 C2829 1.499 . S
C2827 H2801 0.950 . S
C2827 C2826 1.414 . S
C2827 C2828 1.374 . S
C2828 H2802 0.950 . S
C2828 C2824 1.385 . S
C2828 C2827 1.374 . S
C2829 C2826 1.499 . S
C2829 C2830 1.373 . S
C2829 C2831 1.389 . S
C2830 H2803 0.950 . S
C2830 C2816 1.377 . S
C2830 C2829 1.373 . S
C2831 C2815 1.377 . S
C2831 C2829 1.389 . S
C2831 C2832 1.524 . S
C2832 C2831 1.524 . S
C2832 C2833 1.397 . S
C2832 C2837 1.363 . S
C2833 H2804 0.950 . S
C2833 C2832 1.397 . S
C2833 C2834 1.334 . S
C2834 H2805 0.950 . S
C2834 C2833 1.334 . S
C2834 C2835 1.287 . S
C2835 C2834 1.287 . S
C2835 C2836 1.524 . S
C2835 H2838 0.999 . S
C2836 H2806 0.950 . S
C2836 C2835 1.524 . S
C2836 C2837 1.415 . S
C2837 H2807 0.950 . S
C2837 C2832 1.363 . S
C2837 C2836 1.415 . S
H2838 C2835 0.999 . S
H2839 C2820 0.913 . S
H2840 C2858 0.951 . S
H2841 C2860 0.951 . S
H2842 C2862 0.950 . S
H2843 C2863 0.950 . S
H2844 C2865 0.950 . S
H2845 C2868 0.950 . S
H2846 C2869 0.950 . S
H2847 C2871 0.950 . S
H2848 C2872 0.950 . S
H2849 C2873 0.951 . S
H2850 C2875 0.951 . S
H2851 C2877 0.950 . S
H2852 C2878 0.950 . S
H2853 C2880 0.950 . S
H2854 C2883 0.950 . S
H2855 C2884 0.950 . S
H2856 C2886 0.950 . S
H2857 C2887 0.950 . S
C2858 H2840 0.951 . S
C2858 C2859 1.366 . S
C2858 C2860 1.388 . S
C2859 C2858 1.366 . S
C2859 C2863 1.385 . S
C2860 H2841 0.951 . S
C2860 C2858 1.388 . S
C2860 C2861 1.366 . S
C2861 C2860 1.366 . S
C2861 C2862 1.414 . S
C2861 C2864 1.499 . S
C2862 H2842 0.950 . S
C2862 C2861 1.414 . S
C2862 C2863 1.374 . S
C2863 H2843 0.950 . S
C2863 C2859 1.385 . S
C2863 C2862 1.374 . S
C2864 C2861 1.499 . S
C2864 C2865 1.373 . S
C2864 C2866 1.389 . S
C2865 H2844 0.950 . S
C2865 C2864 1.373 . S
C2865 C2881 1.377 1_565 S
C2866 C2864 1.389 . S
C2866 C2867 1.524 . S
C2866 C2880 1.377 1_565 S
C2867 C2866 1.524 . S
C2867 C2868 1.397 . S
C2867 C2872 1.363 . S
C2868 H2845 0.950 . S
C2868 C2867 1.397 . S
C2868 C2869 1.334 . S
C2869 H2846 0.950 . S
C2869 C2868 1.334 . S
C2869 C2870 1.287 . S
C2870 C2869 1.287 . S
C2870 C2871 1.524 . S
C2870 H2889 0.913 . S
C2871 H2847 0.950 . S
C2871 C2870 1.524 . S
C2871 C2872 1.415 . S
C2872 H2848 0.950 . S
C2872 C2867 1.363 . S
C2872 C2871 1.415 . S
C2873 H2849 0.951 . S
C2873 C2874 1.366 . S
C2873 C2875 1.388 . S
C2874 C2873 1.366 . S
C2874 C2878 1.385 . S
C2875 H2850 0.951 . S
C2875 C2873 1.388 . S
C2875 C2876 1.366 . S
C2876 C2875 1.366 . S
C2876 C2877 1.414 . S
C2876 C2879 1.499 . S
C2877 H2851 0.950 . S
C2877 C2876 1.414 . S
C2877 C2878 1.374 . S
C2878 H2852 0.950 . S
C2878 C2874 1.385 . S
C2878 C2877 1.374 . S
C2879 C2876 1.499 . S
C2879 C2880 1.373 . S
C2879 C2881 1.389 . S
C2880 H2853 0.950 . S
C2880 C2866 1.377 1_545 S
C2880 C2879 1.373 . S
C2881 C2865 1.377 1_545 S
C2881 C2879 1.389 . S
C2881 C2882 1.524 . S
C2882 C2881 1.524 . S
C2882 C2883 1.397 . S
C2882 C2887 1.363 . S
C2883 H2854 0.950 . S
C2883 C2882 1.397 . S
C2883 C2884 1.334 . S
C2884 H2855 0.950 . S
C2884 C2883 1.334 . S
C2884 C2885 1.287 . S
C2885 C2884 1.287 . S
C2885 C2886 1.524 . S
C2885 H2888 0.999 . S
C2886 H2856 0.950 . S
C2886 C2885 1.524 . S
C2886 C2887 1.415 . S
C2887 H2857 0.950 . S
C2887 C2882 1.363 . S
C2887 C2886 1.415 . S
H2888 C2885 0.999 . S
H2889 C2870 0.913 . S
H2890 C2908 0.951 . S
H2891 C2910 0.951 . S
H2892 C2912 0.950 . S
H2893 C2913 0.950 . S
H2894 C2915 0.950 . S
H2895 C2918 0.950 . S
H2896 C2919 0.950 . S
H2897 C2921 0.950 . S
H2898 C2922 0.950 . S
H2899 C2923 0.951 . S
H2900 C2925 0.951 . S
H2901 C2927 0.950 . S
H2902 C2928 0.950 . S
H2903 C2930 0.950 . S
H2904 C2933 0.950 . S
H2905 C2934 0.950 . S
H2906 C2936 0.950 . S
H2907 C2937 0.950 . S
C2908 H2890 0.951 . S
C2908 C2909 1.366 . S
C2908 C2910 1.388 . S
C2909 C2908 1.366 . S
C2909 C2913 1.385 . S
C2910 H2891 0.951 . S
C2910 C2908 1.388 . S
C2910 C2911 1.366 . S
C2911 C2910 1.366 . S
C2911 C2912 1.414 . S
C2911 C2914 1.499 . S
C2912 H2892 0.950 . S
C2912 C2911 1.414 . S
C2912 C2913 1.374 . S
C2913 H2893 0.950 . S
C2913 C2909 1.385 . S
C2913 C2912 1.374 . S
C2914 C2911 1.499 . S
C2914 C2915 1.373 . S
C2914 C2916 1.389 . S
C2915 H2894 0.950 . S
C2915 C2914 1.373 . S
C2915 C2931 1.377 . S
C2916 C2914 1.389 . S
C2916 C2917 1.524 . S
C2916 C2930 1.377 . S
C2917 C2916 1.524 . S
C2917 C2918 1.397 . S
C2917 C2922 1.363 . S
C2918 H2895 0.950 . S
C2918 C2917 1.397 . S
C2918 C2919 1.334 . S
C2919 H2896 0.950 . S
C2919 C2918 1.334 . S
C2919 C2920 1.287 . S
C2920 C2919 1.287 . S
C2920 C2921 1.524 . S
C2920 H2939 0.913 . S
C2921 H2897 0.950 . S
C2921 C2920 1.524 . S
C2921 C2922 1.415 . S
C2922 H2898 0.950 . S
C2922 C2917 1.363 . S
C2922 C2921 1.415 . S
C2923 H2899 0.951 . S
C2923 C2924 1.366 . S
C2923 C2925 1.388 . S
C2924 C2923 1.366 . S
C2924 C2928 1.385 . S
C2925 H2900 0.951 . S
C2925 C2923 1.388 . S
C2925 C2926 1.366 . S
C2926 C2925 1.366 . S
C2926 C2927 1.414 . S
C2926 C2929 1.499 . S
C2927 H2901 0.950 . S
C2927 C2926 1.414 . S
C2927 C2928 1.374 . S
C2928 H2902 0.950 . S
C2928 C2924 1.385 . S
C2928 C2927 1.374 . S
C2929 C2926 1.499 . S
C2929 C2930 1.373 . S
C2929 C2931 1.389 . S
C2930 H2903 0.950 . S
C2930 C2916 1.377 . S
C2930 C2929 1.373 . S
C2931 C2915 1.377 . S
C2931 C2929 1.389 . S
C2931 C2932 1.524 . S
C2932 C2931 1.524 . S
C2932 C2933 1.397 . S
C2932 C2937 1.363 . S
C2933 H2904 0.950 . S
C2933 C2932 1.397 . S
C2933 C2934 1.334 . S
C2934 H2905 0.950 . S
C2934 C2933 1.334 . S
C2934 C2935 1.287 . S
C2935 C2934 1.287 . S
C2935 C2936 1.524 . S
C2935 H2938 0.999 . S
C2936 H2906 0.950 . S
C2936 C2935 1.524 . S
C2936 C2937 1.415 . S
C2937 H2907 0.950 . S
C2937 C2932 1.363 . S
C2937 C2936 1.415 . S
H2938 C2935 0.999 . S
H2939 C2920 0.913 . S
H2940 C2958 0.951 . S
H2941 C2960 0.951 . S
H2942 C2962 0.950 1_554 S
H2943 C2963 0.950 . S
H2944 C2965 0.950 . S
H2945 C2968 0.950 . S
H2946 C2969 0.950 . S
H2947 C2971 0.950 . S
H2948 C2972 0.950 . S
H2949 C2973 0.951 . S
H2950 C2975 0.951 . S
H2951 C2977 0.950 1_556 S
H2952 C2978 0.950 . S
H2953 C2980 0.950 . S
H2954 C2983 0.950 . S
H2955 C2984 0.950 . S
H2956 C2986 0.950 . S
H2957 C2987 0.950 . S
C2958 H2940 0.951 . S
C2958 C2959 1.366 . S
C2958 C2960 1.388 . S
C2959 C2958 1.366 . S
C2959 C2963 1.385 . S
C2960 H2941 0.951 . S
C2960 C2958 1.388 . S
C2960 C2961 1.366 . S
C2961 C2960 1.366 . S
C2961 C2962 1.414 . S
C2961 C2964 1.499 . S
C2962 H2942 0.950 1_556 S
C2962 C2961 1.414 . S
C2962 C2963 1.374 . S
C2963 H2943 0.950 . S
C2963 C2959 1.385 . S
C2963 C2962 1.374 . S
C2964 C2961 1.499 . S
C2964 C2965 1.373 1_556 S
C2964 C2966 1.389 . S
C2965 H2944 0.950 . S
C2965 C2964 1.373 1_554 S
C2965 C2981 1.377 1_545 S
C2966 C2964 1.389 . S
C2966 C2967 1.524 . S
C2966 C2980 1.377 1_545 S
C2967 C2966 1.524 . S
C2967 C2968 1.397 . S
C2967 C2972 1.363 1_545 S
C2968 H2945 0.950 . S
C2968 C2967 1.397 . S
C2968 C2969 1.334 . S
C2969 H2946 0.950 . S
C2969 C2968 1.334 . S
C2969 C2970 1.287 . S
C2970 C2969 1.287 . S
C2970 C2971 1.524 1_545 S
C2970 H2989 0.913 . S
C2971 H2947 0.950 . S
C2971 C2970 1.524 1_565 S
C2971 C2972 1.415 . S
C2972 H2948 0.950 . S
C2972 C2967 1.363 1_565 S
C2972 C2971 1.415 . S
C2973 H2949 0.951 . S
C2973 C2974 1.366 . S
C2973 C2975 1.388 . S
C2974 C2973 1.366 . S
C2974 C2978 1.385 . S
C2975 H2950 0.951 . S
C2975 C2973 1.388 . S
C2975 C2976 1.366 . S
C2976 C2975 1.366 . S
C2976 C2977 1.414 . S
C2976 C2979 1.499 . S
C2977 H2951 0.950 1_554 S
C2977 C2976 1.414 . S
C2977 C2978 1.374 . S
C2978 H2952 0.950 . S
C2978 C2974 1.385 . S
C2978 C2977 1.374 . S
C2979 C2976 1.499 . S
C2979 C2980 1.373 1_554 S
C2979 C2981 1.389 . S
C2980 H2953 0.950 . S
C2980 C2966 1.377 1_565 S
C2980 C2979 1.373 1_556 S
C2981 C2965 1.377 1_565 S
C2981 C2979 1.389 . S
C2981 C2982 1.524 . S
C2982 C2981 1.524 . S
C2982 C2983 1.397 . S
C2982 C2987 1.363 1_565 S
C2983 H2954 0.950 . S
C2983 C2982 1.397 . S
C2983 C2984 1.334 . S
C2984 H2955 0.950 . S
C2984 C2983 1.334 . S
C2984 C2985 1.287 . S
C2985 C2984 1.287 . S
C2985 C2986 1.524 1_565 S
C2985 H2988 0.999 . S
C2986 H2956 0.950 . S
C2986 C2985 1.524 1_545 S
C2986 C2987 1.415 . S
C2987 H2957 0.950 . S
C2987 C2982 1.363 1_545 S
C2987 C2986 1.415 . S
H2988 C2985 0.999 . S
H2989 C2970 0.913 . S
H2990 C3008 0.951 . S
H2991 C3010 0.951 . S
H2992 C3012 0.950 . S
H2993 C3013 0.950 . S
H2994 C3015 0.950 . S
H2995 C3018 0.950 . S
H2996 C3019 0.950 . S
H2997 C3021 0.950 . S
H2998 C3022 0.950 . S
H2999 C3023 0.951 . S
H3000 C3025 0.951 . S
H3001 C3027 0.950 . S
H3002 C3028 0.950 . S
H3003 C3030 0.950 . S
H3004 C3033 0.950 . S
H3005 C3034 0.950 . S
H3006 C3036 0.950 . S
H3007 C3037 0.950 . S
C3008 H2990 0.951 . S
C3008 C3009 1.366 . S
C3008 C3010 1.388 . S
C3009 C3008 1.366 . S
C3009 C3013 1.385 . S
C3010 H2991 0.951 . S
C3010 C3008 1.388 . S
C3010 C3011 1.366 . S
C3011 C3010 1.366 . S
C3011 C3012 1.414 . S
C3011 C3014 1.499 . S
C3012 H2992 0.950 . S
C3012 C3011 1.414 . S
C3012 C3013 1.374 . S
C3013 H2993 0.950 . S
C3013 C3009 1.385 . S
C3013 C3012 1.374 . S
C3014 C3011 1.499 . S
C3014 C3015 1.373 . S
C3014 C3016 1.389 . S
C3015 H2994 0.950 . S
C3015 C3014 1.373 . S
C3015 C3031 1.377 . S
C3016 C3014 1.389 . S
C3016 C3017 1.524 . S
C3016 C3030 1.377 . S
C3017 C3016 1.524 . S
C3017 C3018 1.397 . S
C3017 C3022 1.363 . S
C3018 H2995 0.950 . S
C3018 C3017 1.397 . S
C3018 C3019 1.334 . S
C3019 H2996 0.950 . S
C3019 C3018 1.334 . S
C3019 C3020 1.287 . S
C3020 C3019 1.287 . S
C3020 C3021 1.524 . S
C3020 H3039 0.913 . S
C3021 H2997 0.950 . S
C3021 C3020 1.524 . S
C3021 C3022 1.415 . S
C3022 H2998 0.950 . S
C3022 C3017 1.363 . S
C3022 C3021 1.415 . S
C3023 H2999 0.951 . S
C3023 C3024 1.366 . S
C3023 C3025 1.388 . S
C3024 C3023 1.366 . S
C3024 C3028 1.385 . S
C3025 H3000 0.951 . S
C3025 C3023 1.388 . S
C3025 C3026 1.366 . S
C3026 C3025 1.366 . S
C3026 C3027 1.414 . S
C3026 C3029 1.499 . S
C3027 H3001 0.950 . S
C3027 C3026 1.414 . S
C3027 C3028 1.374 . S
C3028 H3002 0.950 . S
C3028 C3024 1.385 . S
C3028 C3027 1.374 . S
C3029 C3026 1.499 . S
C3029 C3030 1.373 . S
C3029 C3031 1.389 . S
C3030 H3003 0.950 . S
C3030 C3016 1.377 . S
C3030 C3029 1.373 . S
C3031 C3015 1.377 . S
C3031 C3029 1.389 . S
C3031 C3032 1.524 . S
C3032 C3031 1.524 . S
C3032 C3033 1.397 . S
C3032 C3037 1.363 . S
C3033 H3004 0.950 . S
C3033 C3032 1.397 . S
C3033 C3034 1.334 . S
C3034 H3005 0.950 . S
C3034 C3033 1.334 . S
C3034 C3035 1.287 . S
C3035 C3034 1.287 . S
C3035 C3036 1.524 . S
C3035 H3038 0.999 . S
C3036 H3006 0.950 . S
C3036 C3035 1.524 . S
C3036 C3037 1.415 . S
C3037 H3007 0.950 . S
C3037 C3032 1.363 . S
C3037 C3036 1.415 . S
H3038 C3035 0.999 . S
H3039 C3020 0.913 . S
C659 C6 1.856 . S
C674 C15 1.856 . S
C709 C55 1.856 . S
C724 C46 1.856 . S
C759 C95 1.525 . S
C774 C86 1.525 . S
C809 C126 1.524 . S
C824 C135 1.524 . S
C859 C166 1.855 . S
C874 C175 1.855 . S
C909 C215 1.524 . S
C924 C206 1.524 . S
C959 C255 1.525 . S
C974 C246 1.525 . S
C1009 C295 1.855 . S
C1024 C286 1.855 . S
C1059 C335 1.855 . S
C1074 C326 1.855 . S
C1109 C375 1.856 . S
C1124 C366 1.856 . S
C1159 C415 1.524 . S
C1174 C406 1.524 . S
C1209 C455 1.524 . S
C1224 C446 1.524 . S
C1259 C495 1.856 . S
C1274 C486 1.856 . S
C1309 C535 1.524 . S
C1324 C526 1.524 . S
C1359 C566 1.525 . S
C1374 C575 1.525 . S
C1409 C606 1.856 . S
C1424 C615 1.856 . S
C1459 C9 1.641 . S
C1474 C459 1.711 . S
C1509 C50 1.656 . S
C1524 C619 1.657 . S
C1559 C90 1.712 . S
C1574 C378 1.639 . S
C1609 C129 1.772 . S
C1624 C538 1.771 . S
C1659 C169 1.639 . S
C1674 C539 1.712 . S
C1709 C458 1.772 . S
C1724 C209 1.771 . S
C1759 C250 1.712 . S
C1774 C618 1.640 . S
C1809 C290 1.657 . S
C1824 C379 1.656 . S
C1859 C130 1.712 . S
C1874 C338 1.639 . S
C1909 C49 1.640 . S
C1924 C419 1.711 . S
C1959 C498 1.641 . S
C1974 C210 1.712 . S
C2009 C289 1.639 . S
C2024 C579 1.712 . S
C2059 C339 1.657 . S
C2074 C170 1.656 . S
C2109 C249 1.771 . S
C2124 C418 1.772 . S
C2159 C89 1.772 . S
C2174 C578 1.771 . S
C2209 C10 1.656 . S
C2224 C499 1.657 . S
C2259 C18 1.211 . S
C2274 C178 1.212 . S
C2309 C59 1.704 . S
C2324 C218 1.702 . S
C2359 C99 2.129 . S
C2374 C259 2.129 . S
C2409 C138 1.702 . S
C2424 C299 1.704 . S
C2459 C489 1.212 . S
C2474 C329 1.211 . S
C2509 C529 1.702 . S
C2524 C370 1.704 . S
C2559 C410 2.129 . S
C2574 C570 2.129 . S
C2609 C610 1.704 . S
C2624 C449 1.701 . S
C2659 C58 1.212 . S
C2674 C298 1.212 . S
C2709 C179 1.704 . S
C2724 C98 1.702 . S
C2759 C219 2.129 . S
C2774 C139 2.129 . S
C2809 C19 1.704 . S
C2824 C258 1.702 . S
C2859 C609 1.211 . S
C2874 C369 1.212 . S
C2909 C490 1.703 . S
C2924 C409 1.701 . S
C2959 C530 2.129 . S
C2974 C450 2.129 . S
C3009 C569 1.701 . S
C3024 C330 1.703 . S
