# Generated by pormake.
# Topology whv, (6)-cn, num edge types: 1
# Building blocks:
#     Node 0, Type 0, BuildingBlock: IZENUY_clean_sbu_0, # of connection points: 6
#     Node 1, Type 0, BuildingBlock: IZENUY_clean_sbu_0, # of connection points: 6
#     Node 2, Type 0, BuildingBlock: IZENUY_clean_sbu_0, # of connection points: 6
#     Node 3, Type 0, BuildingBlock: IZENUY_clean_sbu_0, # of connection points: 6
#     Node 4, Type 0, BuildingBlock: IZENUY_clean_sbu_0, # of connection points: 6
#     Node 5, Type 0, BuildingBlock: IZENUY_clean_sbu_0, # of connection points: 6
#     Node 6, Type 0, BuildingBlock: IZENUY_clean_sbu_0, # of connection points: 6
#     Node 7, Type 0, BuildingBlock: IZENUY_clean_sbu_0, # of connection points: 6
#     Node 8, Type 0, BuildingBlock: IZENUY_clean_sbu_0, # of connection points: 6
#     Node 9, Type 0, BuildingBlock: IZENUY_clean_sbu_0, # of connection points: 6
#     Node 10, Type 0, BuildingBlock: IZENUY_clean_sbu_0, # of connection points: 6
#     Node 11, Type 0, BuildingBlock: IZENUY_clean_sbu_0, # of connection points: 6
#     Node 12, Type 0, BuildingBlock: IZENUY_clean_sbu_0, # of connection points: 6
#     Node 13, Type 0, BuildingBlock: IZENUY_clean_sbu_0, # of connection points: 6
#     Node 14, Type 0, BuildingBlock: IZENUY_clean_sbu_0, # of connection points: 6
#     Node 15, Type 0, BuildingBlock: IZENUY_clean_sbu_0, # of connection points: 6
#     Edge 16, Type (0, 0), BuildingBlock: AJUNOK_clean_linker_0, # of connection points: 2
#     Edge 17, Type (0, 0), BuildingBlock: AJUNOK_clean_linker_0, # of connection points: 2
#     Edge 18, Type (0, 0), BuildingBlock: AJUNOK_clean_linker_0, # of connection points: 2
#     Edge 19, Type (0, 0), BuildingBlock: AJUNOK_clean_linker_0, # of connection points: 2
#     Edge 20, Type (0, 0), BuildingBlock: AJUNOK_clean_linker_0, # of connection points: 2
#     Edge 21, Type (0, 0), BuildingBlock: AJUNOK_clean_linker_0, # of connection points: 2
#     Edge 22, Type (0, 0), BuildingBlock: AJUNOK_clean_linker_0, # of connection points: 2
#     Edge 23, Type (0, 0), BuildingBlock: AJUNOK_clean_linker_0, # of connection points: 2
#     Edge 24, Type (0, 0), BuildingBlock: AJUNOK_clean_linker_0, # of connection points: 2
#     Edge 25, Type (0, 0), BuildingBlock: AJUNOK_clean_linker_0, # of connection points: 2
#     Edge 26, Type (0, 0), BuildingBlock: AJUNOK_clean_linker_0, # of connection points: 2
#     Edge 27, Type (0, 0), BuildingBlock: AJUNOK_clean_linker_0, # of connection points: 2
#     Edge 28, Type (0, 0), BuildingBlock: AJUNOK_clean_linker_0, # of connection points: 2
#     Edge 29, Type (0, 0), BuildingBlock: AJUNOK_clean_linker_0, # of connection points: 2
#     Edge 30, Type (0, 0), BuildingBlock: AJUNOK_clean_linker_0, # of connection points: 2
#     Edge 31, Type (0, 0), BuildingBlock: AJUNOK_clean_linker_0, # of connection points: 2
#     Edge 32, Type (0, 0), BuildingBlock: AJUNOK_clean_linker_0, # of connection points: 2
#     Edge 33, Type (0, 0), BuildingBlock: AJUNOK_clean_linker_0, # of connection points: 2
#     Edge 34, Type (0, 0), BuildingBlock: AJUNOK_clean_linker_0, # of connection points: 2
#     Edge 35, Type (0, 0), BuildingBlock: AJUNOK_clean_linker_0, # of connection points: 2
#     Edge 36, Type (0, 0), BuildingBlock: AJUNOK_clean_linker_0, # of connection points: 2
#     Edge 37, Type (0, 0), BuildingBlock: AJUNOK_clean_linker_0, # of connection points: 2
#     Edge 38, Type (0, 0), BuildingBlock: AJUNOK_clean_linker_0, # of connection points: 2
#     Edge 39, Type (0, 0), BuildingBlock: AJUNOK_clean_linker_0, # of connection points: 2
#     Edge 40, Type (0, 0), BuildingBlock: AJUNOK_clean_linker_0, # of connection points: 2
#     Edge 41, Type (0, 0), BuildingBlock: AJUNOK_clean_linker_0, # of connection points: 2
#     Edge 42, Type (0, 0), BuildingBlock: AJUNOK_clean_linker_0, # of connection points: 2
#     Edge 43, Type (0, 0), BuildingBlock: AJUNOK_clean_linker_0, # of connection points: 2
#     Edge 44, Type (0, 0), BuildingBlock: AJUNOK_clean_linker_0, # of connection points: 2
#     Edge 45, Type (0, 0), BuildingBlock: AJUNOK_clean_linker_0, # of connection points: 2
#     Edge 46, Type (0, 0), BuildingBlock: AJUNOK_clean_linker_0, # of connection points: 2
#     Edge 47, Type (0, 0), BuildingBlock: AJUNOK_clean_linker_0, # of connection points: 2
#     Edge 48, Type (0, 0), BuildingBlock: AJUNOK_clean_linker_0, # of connection points: 2
#     Edge 49, Type (0, 0), BuildingBlock: AJUNOK_clean_linker_0, # of connection points: 2
#     Edge 50, Type (0, 0), BuildingBlock: AJUNOK_clean_linker_0, # of connection points: 2
#     Edge 51, Type (0, 0), BuildingBlock: AJUNOK_clean_linker_0, # of connection points: 2
#     Edge 52, Type (0, 0), BuildingBlock: AJUNOK_clean_linker_0, # of connection points: 2
#     Edge 53, Type (0, 0), BuildingBlock: AJUNOK_clean_linker_0, # of connection points: 2
#     Edge 54, Type (0, 0), BuildingBlock: AJUNOK_clean_linker_0, # of connection points: 2
#     Edge 55, Type (0, 0), BuildingBlock: AJUNOK_clean_linker_0, # of connection points: 2
#     Edge 56, Type (0, 0), BuildingBlock: AJUNOK_clean_linker_0, # of connection points: 2
#     Edge 57, Type (0, 0), BuildingBlock: AJUNOK_clean_linker_0, # of connection points: 2
#     Edge 58, Type (0, 0), BuildingBlock: AJUNOK_clean_linker_0, # of connection points: 2
#     Edge 59, Type (0, 0), BuildingBlock: AJUNOK_clean_linker_0, # of connection points: 2
#     Edge 60, Type (0, 0), BuildingBlock: AJUNOK_clean_linker_0, # of connection points: 2
#     Edge 61, Type (0, 0), BuildingBlock: AJUNOK_clean_linker_0, # of connection points: 2
#     Edge 62, Type (0, 0), BuildingBlock: AJUNOK_clean_linker_0, # of connection points: 2
#     Edge 63, Type (0, 0), BuildingBlock: AJUNOK_clean_linker_0, # of connection points: 2
# Relax obj value: 0.237
# Max RMSD: 0.246
# Mean RMSD: 0.246
data_MOF--net-whv--node1-IZENUY_clean_sbu_0--edge1-AJUNOK_clean_linker_0
_symmetry_space_group_name_H-M    P1
_symmetry_Int_Tables_number       1
_symmetry_cell_setting            triclinic
loop_
_symmetry_equiv_pos_as_xyz
'x, y, z'
_cell_length_a     37.612508
_cell_length_b     37.580832
_cell_length_c     19.006751
_cell_angle_alpha  90.065547
_cell_angle_beta   90.030476
_cell_angle_gamma 90.050522
loop_
_atom_site_label
_atom_site_type_symbol
_atom_site_fract_x
_atom_site_fract_y
_atom_site_fract_z
_atom_type_partial_charge
Fe0 Fe 0.30339 0.24466 0.04644 0.0
Fe1 Fe 0.33104 0.17299 1.0003 0.0
O2 O 0.33475 0.21043 0.0549 0.0
Fe3 Fe 0.37021 0.21475 0.11491 0.0
O4 O 0.3862 0.25372 0.07004 0.0
O5 O 0.33498 0.28055 0.06959 0.0
O6 O 0.31761 0.25239 0.95862 0.0
C7 C 0.31142 0.23081 0.9106 0.0
C8 C 0.30838 0.24234 0.18759 0.0
O9 O 0.30948 0.19767 0.92508 0.0
C10 C 0.35775 0.14503 0.13142 0.0
O11 O 0.26611 0.21427 1.0198 0.0
O12 O 0.28915 0.16181 0.0393 0.0
O13 O 0.34244 0.24049 0.18105 0.0
O14 O 0.28881 0.23861 0.13469 0.0
C15 C 0.40162 0.18188 0.99245 0.0
O16 O 0.35207 0.14233 0.06535 0.0
O17 O 0.35721 0.17503 0.16096 0.0
C18 C 0.26233 0.18072 0.02777 0.0
O19 O 0.3727 0.18256 0.95952 0.0
O20 O 0.4027 0.18953 0.05817 0.0
C21 C 0.36782 0.28025 0.05408 0.0
Fe22 Fe 0.54758 0.55283 0.29888 0.0
Fe23 Fe 0.61936 0.58146 0.25535 0.0
O24 O 0.58109 0.5851 0.30734 0.0
Fe25 Fe 0.5754 0.62103 0.36558 0.0
O26 O 0.53703 0.63578 0.3174 0.0
O27 O 0.51079 0.58403 0.31932 0.0
O28 O 0.5404 0.56608 0.21048 0.0
C29 C 0.56264 0.5607 0.16335 0.0
C30 C 0.54757 0.55973 0.43943 0.0
O31 O 0.59568 0.5594 0.17912 0.0
C32 C 0.64477 0.60915 0.38762 0.0
O33 O 0.57876 0.51582 0.27369 0.0
O34 O 0.63011 0.53998 0.29672 0.0
O35 O 0.54892 0.59368 0.43074 0.0
O36 O 0.55316 0.53928 0.38831 0.0
C37 C 0.60984 0.65203 0.24472 0.0
O38 O 0.64884 0.60305 0.32199 0.0
O39 O 0.61429 0.60889 0.41484 0.0
C40 C 0.61229 0.51281 0.28241 0.0
O41 O 0.61047 0.62287 0.21254 0.0
O42 O 0.60126 0.65337 0.30984 0.0
C43 C 0.51065 0.6168 0.3028 0.0
Fe44 Fe 0.23942 0.80143 0.54707 0.0
Fe45 Fe 0.2111 0.87353 0.50535 0.0
O46 O 0.20791 0.83518 0.55791 0.0
Fe47 Fe 0.17276 0.82927 0.61754 0.0
O48 O 0.15722 0.7905 0.57092 0.0
O49 O 0.20881 0.76466 0.56963 0.0
O50 O 0.22363 0.79522 0.46002 0.0
C51 C 0.23191 0.81684 0.41367 0.0
C52 C 0.23536 0.80202 0.68777 0.0
O53 O 0.23266 0.84995 0.42865 0.0
C54 C 0.18424 0.89876 0.63839 0.0
O55 O 0.27629 0.83245 0.5208 0.0
O56 O 0.25332 0.88448 0.54426 0.0
O57 O 0.20124 0.80328 0.68176 0.0
O58 O 0.25476 0.8065 0.6349 0.0
C59 C 0.14051 0.86285 0.49696 0.0
O60 O 0.18988 0.90297 0.57262 0.0
O61 O 0.18545 0.86834 0.66559 0.0
C62 C 0.28008 0.86591 0.52984 0.0
O63 O 0.1694 0.8644 0.46415 0.0
O64 O 0.13972 0.85457 0.56234 0.0
C65 C 0.17584 0.76403 0.55552 0.0
Fe66 Fe 0.9963 0.49145 0.79831 0.0
Fe67 Fe 0.92371 0.46578 0.75303 0.0
O68 O 0.96156 0.46057 0.80593 0.0
Fe69 Fe 0.96576 0.42429 0.8638 0.0
O70 O 1.00399 0.40825 0.81676 0.0
O71 O 0.03178 0.45901 0.81944 0.0
O72 O 1.00328 0.47792 0.71006 0.0
C73 C 0.98145 0.484 0.66245 0.0
C74 C 0.99523 0.48473 0.93885 0.0
O75 O 0.94849 0.48702 0.67763 0.0
C76 C 0.89663 0.43816 0.88409 0.0
O77 O 0.96678 0.5295 0.77286 0.0
O78 O 0.91415 0.50779 0.79398 0.0
O79 O 0.9926 0.45079 0.93025 0.0
O80 O 0.99082 0.50525 0.88753 0.0
C81 C 0.93103 0.39489 0.74116 0.0
O82 O 0.89318 0.44493 0.81857 0.0
O83 O 0.92692 0.43744 0.91209 0.0
C84 C 0.93341 0.53422 0.78098 0.0
O85 O 0.93145 0.42428 0.71001 0.0
O86 O 0.93944 0.39285 0.80643 0.0
C87 C 0.03095 0.42634 0.80228 0.0
Fe88 Fe 0.71185 0.86935 0.12113 0.0
Fe89 Fe 0.67299 0.82595 1.00861 0.0
O90 O 0.70852 0.83134 0.06797 0.0
Fe91 Fe 0.74046 0.79762 0.07667 0.0
O92 O 0.72641 0.79001 0.16437 0.0
O93 O 0.73299 0.84516 0.19731 0.0
O94 O 0.67014 0.86015 0.16227 0.0
C95 C 0.64124 0.85977 0.12945 0.0
C96 C 0.78078 0.8621 0.09666 0.0
O97 O 0.64031 0.85162 0.06405 0.0
C98 C 0.73469 0.79822 0.93592 0.0
O99 O 0.6909 0.89928 0.05438 0.0
O100 O 0.6857 0.8651 0.96072 0.0
O101 O 0.77739 0.82849 0.10391 0.0
O102 O 0.75392 0.88038 0.08222 0.0
C103 C 0.67634 0.76073 0.07023 0.0
O104 O 0.70072 0.79973 0.9437 0.0
O105 O 0.7548 0.80355 0.98768 0.0
C106 C 0.68505 0.89546 0.98855 0.0
O107 O 0.65764 0.78723 0.05517 0.0
O108 O 0.70922 0.76109 0.05452 0.0
C109 C 0.73104 0.81208 0.21222 0.0
Fe110 Fe 0.46527 0.42359 0.76112 0.0
Fe111 Fe 0.49438 0.49058 0.83042 0.0
O112 O 0.46059 0.45873 0.82172 0.0
Fe113 Fe 0.42321 0.46168 0.87635 0.0
O114 O 0.43326 0.41995 0.91615 0.0
O115 O 0.4403 0.39045 0.81707 0.0
O116 O 0.50433 0.40785 0.80566 0.0
C117 C 0.53069 0.42656 0.82143 0.0
C118 C 0.3957 0.43524 0.74452 0.0
O119 O 0.53054 0.45949 0.80618 0.0
C120 C 0.43008 0.53065 0.85239 0.0
O121 O 0.4907 0.45192 0.69573 0.0
O122 O 0.48773 0.50551 0.74238 0.0
O123 O 0.39264 0.4406 0.81064 0.0
O124 O 0.42565 0.43665 0.71536 0.0
C125 C 0.48115 0.48086 0.96608 0.0
O126 O 0.46371 0.52732 0.85909 0.0
O127 O 0.41165 0.50377 0.83842 0.0
C128 C 0.49191 0.48603 0.68935 0.0
O129 O 0.50265 0.47592 0.91751 0.0
O130 O 0.44798 0.48284 0.95211 0.0
C131 C 0.43267 0.39118 0.88278 0.0
Fe132 Fe 0.80332 0.24708 0.57576 0.0
Fe133 Fe 0.83108 0.17572 0.62402 0.0
O134 O 0.83478 0.21283 0.5687 0.0
Fe135 Fe 0.87036 0.21689 0.50898 0.0
O136 O 0.88629 0.25595 0.55422 0.0
O137 O 0.83506 0.28288 0.55224 0.0
O138 O 0.81724 0.25559 0.66335 0.0
C139 C 0.81201 0.23428 0.71218 0.0
C140 C 0.80913 0.24469 0.43512 0.0
O141 O 0.81001 0.20101 0.69889 0.0
C142 C 0.8573 0.14716 0.49296 0.0
O143 O 0.76603 0.21701 0.60357 0.0
O144 O 0.7889 0.16444 0.58592 0.0
O145 O 0.84305 0.24274 0.44297 0.0
O146 O 0.78898 0.24025 0.48703 0.0
C147 C 0.90185 0.18426 0.63076 0.0
O148 O 0.85155 0.14479 0.55902 0.0
O149 O 0.85721 0.17707 0.46297 0.0
C150 C 0.76211 0.18337 0.59756 0.0
O151 O 0.87312 0.18505 0.66429 0.0
O152 O 0.90263 0.19152 0.56511 0.0
C153 C 0.86784 0.28273 0.56857 0.0
Fe154 Fe 0.05051 0.55397 0.3288 0.0
Fe155 Fe 0.12106 0.58386 0.37675 0.0
O156 O 0.08405 0.58605 0.32073 0.0
Fe157 Fe 0.07946 0.62106 0.26004 0.0
O158 O 0.03995 0.63657 0.30392 0.0
O159 O 1.01398 0.58475 0.30498 0.0
O160 O 0.04202 0.56834 0.41622 0.0
C161 C 0.06337 0.56306 0.46491 0.0
C162 C 0.05289 0.5585 0.1877 0.0
O163 O 0.09657 0.56176 0.45137 0.0
C164 C 0.14958 0.60985 0.2455 0.0
O165 O 0.08173 0.51759 0.35619 0.0
O166 O 0.13396 0.542 0.33924 0.0
O167 O 0.05443 0.59261 0.19394 0.0
O168 O 0.05718 0.53915 0.24068 0.0
C169 C 0.10983 0.65405 0.38324 0.0
O170 O 0.15159 0.60584 0.31217 0.0
O171 O 0.11985 0.60819 0.21509 0.0
C172 C 0.11545 0.51468 0.3497 0.0
O173 O 0.10948 0.62533 0.41665 0.0
O174 O 0.10361 0.65434 0.31692 0.0
C175 C 1.01363 0.61775 0.31957 0.0
Fe176 Fe 0.80225 0.7444 0.54453 0.0
Fe177 Fe 0.83139 0.67325 0.49831 0.0
O178 O 0.83453 0.71105 0.55241 0.0
Fe179 Fe 0.8703 0.71644 0.61123 0.0
O180 O 0.88483 0.75595 0.56666 0.0
O181 O 0.83286 0.78146 0.56573 0.0
O182 O 0.81552 0.75201 0.45615 0.0
C183 C 0.80976 0.73003 0.40862 0.0
C184 C 0.80844 0.74272 0.68567 0.0
O185 O 0.8084 0.69697 0.42373 0.0
C186 C 0.85961 0.64642 0.62882 0.0
O187 O 0.76567 0.71285 0.51997 0.0
O188 O 0.79012 0.6609 0.53882 0.0
O189 O 0.84247 0.74142 0.67828 0.0
O190 O 0.78857 0.73849 0.63336 0.0
C191 C 0.90148 0.68408 0.48726 0.0
O192 O 0.85418 0.64334 0.56279 0.0
O193 O 0.85867 0.67646 0.65784 0.0
C194 C 0.76275 0.67925 0.5285 0.0
O195 O 0.87222 0.68411 0.45569 0.0
O196 O 0.90296 0.69215 0.55285 0.0
C197 C 0.86589 0.78231 0.55195 0.0
Fe198 Fe 0.04694 0.05346 0.80099 0.0
Fe199 Fe 0.11859 0.08139 0.75554 0.0
O200 O 0.0806 0.08554 0.80823 0.0
Fe201 Fe 0.07536 0.12188 0.86578 0.0
O202 O 0.03671 0.13658 0.81876 0.0
O203 O 1.01044 0.08495 0.82082 0.0
O204 O 0.03958 0.06603 0.71218 0.0
C205 C 0.06162 0.05973 0.66511 0.0
C206 C 0.04757 0.0612 0.94143 0.0
O207 O 0.09468 0.0585 0.6806 0.0
C208 C 0.14476 0.11013 0.88628 0.0
O209 O 0.07792 1.01618 0.77717 0.0
O210 O 0.12968 0.04028 0.79777 0.0
O211 O 0.0492 0.0951 0.93233 0.0
O212 O 0.05267 0.04054 0.89052 0.0
C213 C 0.10925 0.15177 0.74289 0.0
O214 O 0.14845 0.10366 0.82071 0.0
O215 O 0.11449 0.10985 0.91423 0.0
C216 C 0.11145 1.01303 0.7859 0.0
O217 O 0.10919 0.12232 0.71178 0.0
O218 O 0.1009 0.15376 0.80818 0.0
C219 C 1.01025 0.11771 0.80418 0.0
Fe220 Fe 0.74081 0.30052 0.04519 0.0
Fe221 Fe 0.71249 0.37235 1.00247 0.0
O222 O 0.70897 0.33423 0.05488 0.0
Fe223 Fe 0.67345 0.32884 0.11422 0.0
O224 O 0.6581 0.2902 0.06742 0.0
O225 O 0.70966 0.2639 0.06675 0.0
O226 O 0.72664 0.29346 0.95717 0.0
C227 C 0.73233 0.31562 0.91003 0.0
C228 C 0.73547 0.30141 0.18626 0.0
O229 O 0.73416 0.34861 0.92603 0.0
C230 C 0.68542 0.39842 0.13464 0.0
O231 O 0.77781 0.33164 1.01932 0.0
O232 O 0.75415 0.3832 0.04305 0.0
O233 O 0.70141 0.30276 0.17931 0.0
O234 O 0.75518 0.30599 0.13381 0.0
C235 C 0.64206 0.36283 0.99301 0.0
O236 O 0.69115 0.40206 0.06883 0.0
O237 O 0.68587 0.36808 0.16247 0.0
C238 C 0.78113 0.36517 0.02853 0.0
O239 O 0.67109 0.36308 0.96063 0.0
O240 O 0.6408 0.35433 0.05829 0.0
C241 C 0.67677 0.26387 0.05141 0.0
Fe242 Fe 0.49581 0.98972 0.2972 0.0
Fe243 Fe 0.42503 0.95984 0.2499 0.0
O244 O 0.46233 0.9574 0.30502 0.0
Fe245 Fe 0.46724 0.92222 0.36541 0.0
O246 O 0.50649 0.90691 0.32061 0.0
O247 O 0.53228 0.95878 0.32058 0.0
O248 O 0.50439 0.97572 0.20967 0.0
C249 C 0.48277 0.98 0.16096 0.0
C250 C 0.49432 0.98436 0.4381 0.0
O251 O 0.44957 0.98119 0.17452 0.0
C252 C 0.39739 0.93417 0.38193 0.0
O253 O 0.46482 0.02626 0.26896 0.0
O254 O 0.41293 1.00192 0.28756 0.0
O255 O 0.49274 0.95035 0.43074 0.0
O256 O 0.48908 1.00426 0.38605 0.0
C257 C 0.4362 0.88916 0.24355 0.0
O258 O 0.39468 0.93897 0.31559 0.0
O259 O 0.42739 0.9348 0.41143 0.0
C260 C 0.43109 0.02909 0.27457 0.0
O261 O 0.43536 0.91785 0.20993 0.0
O262 O 0.44243 0.88909 0.30971 0.0
C263 C 0.53285 0.9258 0.30533 0.0
Fe264 Fe 0.21305 0.37015 0.62212 0.0
Fe265 Fe 0.17312 0.32748 0.50995 0.0
O266 O 0.20888 0.3322 0.569 0.0
Fe267 Fe 0.24021 0.29791 0.57755 0.0
O268 O 0.2263 0.29079 0.66546 0.0
O269 O 0.23431 0.34577 0.69812 0.0
O270 O 0.17142 0.36153 0.66376 0.0
C271 C 0.14235 0.36177 0.63142 0.0
C272 C 0.28163 0.36174 0.59629 0.0
O273 O 0.14098 0.3535 0.56605 0.0
C274 C 0.23425 0.29865 0.43679 0.0
O275 O 0.19221 0.40042 0.55593 0.0
O276 O 0.18633 0.36648 0.46209 0.0
O277 O 0.27772 0.32819 0.60385 0.0
O278 O 0.255 0.38045 0.58236 0.0
C279 C 0.17545 0.26243 0.57212 0.0
O280 O 0.20029 0.30085 0.44458 0.0
O281 O 0.25444 0.30343 0.48856 0.0
C282 C 0.18617 0.3968 0.49015 0.0
O283 O 0.15718 0.2891 0.55657 0.0
O284 O 0.20826 0.2619 0.55598 0.0
C285 C 0.23193 0.31272 0.71317 0.0
Fe286 Fe 0.99469 0.98966 0.33229 0.0
Fe287 Fe 0.92344 0.96014 0.3769 0.0
O288 O 0.96074 0.95809 0.32167 0.0
Fe289 Fe 0.96516 0.9239 0.2588 0.0
O290 O 1.0044 0.90738 0.30198 0.0
O291 O 0.03082 0.95879 0.30685 0.0
O292 O 1.00272 0.97386 0.41894 0.0
C293 C 0.98116 0.97856 0.46754 0.0
C294 C 0.99232 0.98707 0.19081 0.0
O295 O 0.94805 0.98043 0.45344 0.0
C296 C 0.8954 0.93591 0.2438 0.0
O297 O 0.96402 0.02612 0.36209 0.0
O298 O 0.91168 1.00282 0.34167 0.0
O299 O 0.9906 0.95296 0.19516 0.0
O300 O 0.98843 1.00586 0.24489 0.0
C301 C 0.93399 0.88945 0.37882 0.0
O302 O 0.89287 0.94015 0.31031 0.0
O303 O 0.92527 0.93758 0.2141 0.0
C304 C 0.93041 0.02963 0.35506 0.0
O305 O 0.93359 0.91761 0.4143 0.0
O306 O 0.94025 0.89019 0.31269 0.0
C307 C 0.03096 0.92554 0.31917 0.0
Fe308 Fe 0.30443 0.74846 0.07229 0.0
Fe309 Fe 0.32924 0.67688 0.12365 0.0
O310 O 0.33457 0.71331 0.06678 0.0
Fe311 Fe 0.3707 0.71611 1.00846 0.0
O312 O 0.3874 0.75549 0.05174 0.0
O313 O 0.33685 0.78333 0.04762 0.0
O314 O 0.31955 0.75671 0.15904 0.0
C315 C 0.31001 0.73714 0.20767 0.0
C316 C 0.31031 0.74424 0.93234 0.0
O317 O 0.30777 0.70363 0.19672 0.0
C318 C 0.3565 0.64665 0.99469 0.0
O319 O 0.26609 0.7196 0.10014 0.0
O320 O 0.28694 0.666 0.08445 0.0
O321 O 0.34422 0.74166 0.94048 0.0
O322 O 0.28993 0.74137 0.98425 0.0
C323 C 0.40009 0.68385 0.13344 0.0
O324 O 0.34999 0.6447 0.06065 0.0
O325 O 0.35674 0.67631 0.96408 0.0
C326 C 0.26078 0.68612 0.09443 0.0
O327 O 0.37092 0.68602 0.16516 0.0
O328 O 0.40195 0.6907 0.06747 0.0
C329 C 0.36962 0.78304 0.06372 0.0
Fe330 Fe 0.54955 0.05263 0.82862 0.0
Fe331 Fe 0.62103 0.08122 0.87418 0.0
O332 O 0.58327 0.08456 0.82027 0.0
Fe333 Fe 0.57818 0.12028 0.76121 0.0
O334 O 0.53921 0.13543 0.80674 0.0
O335 O 0.51301 0.08379 0.80724 0.0
O336 O 0.54214 0.06626 0.91693 0.0
C337 C 0.56402 0.06022 0.9644 0.0
C338 C 0.551 0.05844 0.68746 0.0
O339 O 0.59707 0.05875 0.94924 0.0
C340 C 0.64794 0.10893 0.74315 0.0
O341 O 0.58067 1.01569 0.85361 0.0
O342 O 0.63276 0.03964 0.83405 0.0
O343 O 0.55261 0.09251 0.69471 0.0
O344 O 0.55525 0.03864 0.73983 0.0
C345 C 0.61096 0.15155 0.88419 0.0
O346 O 0.65106 0.1034 0.80914 0.0
O347 O 0.61787 0.10813 0.71421 0.0
C348 C 0.61425 1.01246 0.84533 0.0
O349 O 0.61088 0.12243 0.91633 0.0
O350 O 0.60296 0.15282 0.81869 0.0
C351 C 0.51296 0.11668 0.82274 0.0
C352 C 0.23634 0.13035 0.95903 0.0
C353 C 0.23102 0.1621 0.99772 0.0
C354 C 0.20841 0.11357 0.92315 0.0
C355 C 0.17388 0.12728 0.92616 0.0
H356 H 0.26265 0.11891 0.95415 0.0
H357 H 0.21388 0.08976 0.89287 0.0
S358 S 0.14563 0.20963 1.01915 0.0
N359 N 0.18866 0.20673 0.03557 0.0
N360 N 0.13564 0.17463 0.97029 0.0
C361 C 0.16794 0.15862 0.96559 0.0
C362 C 0.19663 0.17617 1.00077 0.0
C363 C 0.64175 0.42035 0.22455 0.0
C364 C 0.66893 0.4278 0.17528 0.0
C365 C 0.62328 0.44773 0.25935 0.0
C366 C 0.63207 0.48349 0.24766 0.0
H367 H 0.63381 0.39311 0.23465 0.0
H368 H 0.6021 0.44092 0.29551 0.0
S369 S 0.70097 0.51715 0.12372 0.0
N370 N 0.70314 0.47346 0.11609 0.0
N371 N 0.66973 0.52493 0.18271 0.0
C372 C 0.65961 0.49122 0.19928 0.0
C373 C 0.67768 0.4634 0.16275 0.0
C374 C 0.37348 0.89389 0.47613 0.0
C375 C 0.36711 0.91894 0.42206 0.0
C376 C 0.34539 0.87662 0.51109 0.0
C377 C 0.30994 0.88455 0.49469 0.0
H378 H 0.40044 0.88671 0.4902 0.0
H379 H 0.35143 0.85708 0.55121 0.0
S380 S 0.27886 0.94782 0.35745 0.0
N381 N 0.32264 0.95012 0.3534 0.0
N382 N 0.26989 0.91901 0.42049 0.0
C383 C 0.30322 0.90988 0.44144 0.0
C384 C 0.33177 0.92672 0.40479 0.0
C385 C 0.85976 0.59143 0.70275 0.0
C386 C 0.87857 0.61815 0.66757 0.0
C387 C 0.87769 0.56582 0.74317 0.0
C388 C 0.91524 0.56581 0.74974 0.0
H389 H 0.83104 0.59028 0.69896 0.0
H390 H 0.86186 0.5452 0.76776 0.0
S391 S 0.97623 0.63265 0.6717 0.0
N392 N 0.93629 0.6449 0.64514 0.0
N393 N 0.97004 0.59682 0.72039 0.0
C394 C 0.9341 0.59345 0.71673 0.0
C395 C 0.91578 0.6195 0.6757 0.0
C396 C 0.84579 0.8749 0.11653 0.0
C397 C 0.81005 0.88121 0.13316 0.0
C398 C 0.87314 0.89379 0.15078 0.0
C399 C 0.86576 0.91898 0.20422 0.0
H400 H 0.85263 0.85556 0.07645 0.0
H401 H 0.90037 0.88784 0.1365 0.0
S402 S 0.77645 0.94392 0.26943 0.0
N403 N 0.76868 0.9142 0.20726 0.0
N404 N 0.82008 0.94837 0.27284 0.0
C405 C 0.83015 0.92503 0.22193 0.0
C406 C 0.80234 0.9065 0.18614 0.0
C407 C 0.41844 0.59575 0.87192 0.0
C408 C 0.41121 0.56016 0.88823 0.0
C409 C 0.39972 0.6234 0.90521 0.0
C410 C 0.3737 0.6165 0.95731 0.0
H411 H 0.43831 0.60223 0.83273 0.0
H412 H 0.40635 0.65051 0.891 0.0
S413 S 0.34638 0.52764 1.02141 0.0
N414 N 0.37675 0.51931 0.96092 0.0
N415 N 0.34264 0.57138 0.02449 0.0
C416 C 0.36679 0.58101 0.97488 0.0
C417 C 0.38525 0.55286 0.94009 0.0
C418 C 0.70518 0.10949 0.67625 0.0
C419 C 0.67634 0.12797 0.70483 0.0
C420 C 0.73154 0.12748 0.63789 0.0
C421 C 0.7304 0.16482 0.62744 0.0
H422 H 0.7074 0.08099 0.68357 0.0
H423 H 0.75361 0.1119 0.61815 0.0
S424 S 0.65884 0.22492 0.68996 0.0
N425 N 0.6468 0.18509 0.71778 0.0
N426 N 0.69667 0.21905 0.64745 0.0
C427 C 0.70099 0.18334 0.65456 0.0
C428 C 0.67397 0.1649 0.69292 0.0
C429 C 0.18291 0.46062 0.45326 0.0
C430 C 0.16918 0.42603 0.45022 0.0
C431 C 0.16612 0.48862 0.4176 0.0
C432 C 0.13431 0.48333 0.37913 0.0
H433 H 0.20674 0.46609 0.48346 0.0
H434 H 0.17756 0.51496 0.42258 0.0
S435 S 0.0867 0.39779 0.35765 0.0
N436 N 0.12173 0.3878 0.40621 0.0
N437 N 0.08965 0.44086 0.34141 0.0
C438 C 0.12024 0.44886 0.37602 0.0
C439 C 0.1378 0.42013 0.41096 0.0
C440 C 0.70881 0.61296 0.42199 0.0
C441 C 0.67396 0.62559 0.42863 0.0
C442 C 0.73693 0.62958 0.45762 0.0
C443 C 0.73147 0.66015 0.49968 0.0
H444 H 0.71441 0.59021 0.38873 0.0
H445 H 0.76347 0.61915 0.44967 0.0
S446 S 0.6453 0.70458 0.5321 0.0
N447 N 0.63533 0.67062 0.48041 0.0
N448 N 0.68866 0.70247 0.5451 0.0
C449 C 0.69677 0.67307 0.50669 0.0
C450 C 0.66792 0.65564 0.47179 0.0
C451 C 0.17892 0.96223 0.67646 0.0
C452 C 0.16668 0.92712 0.67975 0.0
C453 C 0.16165 0.98934 0.71384 0.0
C454 C 0.1308 0.98258 0.75437 0.0
H455 H 0.20194 0.9688 0.6448 0.0
H456 H 0.1719 1.01615 0.70864 0.0
S457 S 0.08707 0.89518 0.77714 0.0
N458 N 0.12163 0.88679 0.72616 0.0
N459 N 0.08854 0.93827 0.79408 0.0
C460 C 0.11819 0.9476 0.75771 0.0
C461 C 0.13629 0.91976 0.72105 0.0
C462 C 0.87391 0.39401 0.97227 0.0
C463 C 0.86691 0.42169 0.92378 0.0
C464 C 0.84627 0.37558 1.00626 0.0
C465 C 0.81069 0.38485 0.99449 0.0
H466 H 0.90099 0.38567 0.98244 0.0
H467 H 0.85275 0.35406 0.04189 0.0
S468 S 0.77813 0.45508 0.87235 0.0
N469 N 0.82182 0.45686 0.86522 0.0
N470 N 0.76986 0.42344 0.93024 0.0
C471 C 0.80339 0.41284 0.94684 0.0
C472 C 0.83147 0.43092 0.91117 0.0
C473 C 0.41952 0.09439 0.25511 0.0
C474 C 0.41199 0.05872 0.23939 0.0
C475 C 0.4008 0.12208 0.22179 0.0
C476 C 0.37454 0.11511 0.1702 0.0
H477 H 0.43972 0.1009 0.29369 0.0
H478 H 0.40771 0.14923 0.23526 0.0
S479 S 0.3461 0.02614 0.10801 0.0
N480 N 0.37675 1.01786 0.16796 0.0
N481 N 0.3427 0.06989 0.10447 0.0
C482 C 0.3672 0.07957 0.15349 0.0
C483 C 0.38562 0.05142 0.18827 0.0
C484 C 0.33265 0.43052 0.70344 0.0
C485 C 0.36713 0.41668 0.70547 0.0
C486 C 0.30571 0.41303 0.66579 0.0
C487 C 0.31196 0.38049 0.63019 0.0
H488 H 0.32654 0.45514 0.73054 0.0
H489 H 0.27943 0.4248 0.6663 0.0
S490 S 0.3976 0.33222 0.6233 0.0
N491 N 0.40627 0.36821 0.67026 0.0
N492 N 0.35513 0.33483 0.60175 0.0
C493 C 0.34624 0.36609 0.63308 0.0
C494 C 0.37393 0.38431 0.67006 0.0
C495 C 0.89823 0.12295 0.39985 0.0
C496 C 0.87376 0.11672 0.45506 0.0
C497 C 0.91717 0.09493 0.36807 0.0
C498 C 0.9117 0.05966 0.38931 0.0
H499 H 0.90361 0.14982 0.38224 0.0
H500 H 0.93588 0.10085 0.32636 0.0
S501 S 0.85098 0.0289 0.53118 0.0
N502 N 0.84574 0.07249 0.52966 0.0
N503 N 0.88028 1.01988 0.46906 0.0
C504 C 0.88711 0.05304 0.44387 0.0
C505 C 0.86841 0.08152 0.47692 0.0
C506 C 0.1939 0.61457 0.14674 0.0
C507 C 0.17823 0.62904 0.20748 0.0
C508 C 0.21927 0.63397 0.10784 0.0
C509 C 0.22877 0.66914 0.12643 0.0
H510 H 0.18698 0.58789 0.12995 0.0
H511 H 0.23205 0.62111 0.06353 0.0
S512 S 0.19218 0.72028 0.2772 0.0
N513 N 0.17262 0.68108 0.28218 0.0
N514 N 0.21821 0.71802 0.20753 0.0
C515 C 0.21169 0.68436 0.18499 0.0
C516 C 0.18701 0.6642 0.22588 0.0
C517 C 0.6806 0.95951 0.95362 0.0
C518 C 0.66814 0.92452 0.94786 0.0
C519 C 0.66382 0.98732 0.91737 0.0
C520 C 0.63323 0.98142 0.87557 0.0
H521 H 0.70341 0.96546 0.98643 0.0
H522 H 0.6742 1.01398 0.92448 0.0
S523 S 0.589 0.89474 0.84605 0.0
N524 N 0.62308 0.88531 0.89759 0.0
N525 N 0.59094 0.93805 0.83186 0.0
C526 C 0.62038 0.94659 0.86974 0.0
C527 C 0.63798 0.91805 0.90522 0.0
C528 C 0.42369 0.13602 0.90816 0.0
C529 C 0.43146 0.16411 0.9554 0.0
C530 C 0.45007 0.12031 0.86627 0.0
C531 C 0.4852 0.13259 0.86867 0.0
H532 H 0.39673 0.12616 0.90303 0.0
H533 H 0.4427 0.09906 0.83057 0.0
S534 S 0.52021 0.20328 0.9877 0.0
N535 N 0.47728 0.20164 1.00571 0.0
N536 N 0.52704 0.17298 0.92616 0.0
C537 C 0.49361 0.15995 0.91735 0.0
C538 C 0.46675 0.17543 0.96103 0.0
C539 C 0.61002 0.71255 0.18928 0.0
C540 C 0.62832 0.68171 0.20896 0.0
C541 C 0.62564 0.73738 0.14335 0.0
C542 C 0.66031 0.73251 0.11565 0.0
H543 H 0.58308 0.7169 0.20741 0.0
H544 H 0.61019 0.76066 0.12949 0.0
S545 S 0.72017 0.65697 0.15688 0.0
N546 N 0.68331 0.64811 0.20061 0.0
N547 N 0.71294 0.69504 0.11601 0.0
C548 C 0.6792 0.7022 0.13722 0.0
C549 C 0.66314 0.67679 0.1833 0.0
C550 C 0.08843 0.92858 0.38714 0.0
C551 C 0.05886 0.90874 0.36441 0.0
C552 C 0.11365 0.9139 0.43324 0.0
C553 C 0.10991 0.87918 0.46036 0.0
H554 H 0.09232 0.9556 0.36891 0.0
H555 H 0.13666 0.92978 0.44732 0.0
S556 S 0.03823 0.81543 0.41759 0.0
N557 N 0.028 0.85155 0.37248 0.0
N558 N 0.0751 0.82513 0.46065 0.0
C559 C 0.08047 0.85917 0.43929 0.0
C560 C 0.05506 0.87365 0.39102 0.0
C561 C 0.87306 0.34636 0.60768 0.0
C562 C 0.88354 0.31079 0.61438 0.0
C563 C 0.88832 0.37296 0.64991 0.0
C564 C 0.91415 0.36506 0.70185 0.0
H565 H 0.85349 0.35383 0.56856 0.0
H566 H 0.87971 0.40013 0.64159 0.0
S567 S 0.9474 0.27537 0.74659 0.0
N568 N 0.91941 0.26852 0.68091 0.0
N569 N 0.94737 0.31871 0.76084 0.0
C570 C 0.92366 0.32943 0.71132 0.0
C571 C 0.90862 0.30231 0.66739 0.0
C572 C 0.58062 0.85994 0.18437 0.0
C573 C 0.61156 0.87823 0.16524 0.0
C574 C 0.55585 0.87542 0.23065 0.0
C575 C 0.56099 0.90987 0.25954 0.0
H576 H 0.57618 0.83305 0.16569 0.0
H577 H 0.53244 0.86004 0.2439 0.0
S578 S 0.63725 0.9694 0.22143 0.0
N579 N 0.64576 0.93286 0.17619 0.0
N580 N 0.59902 0.96216 0.26164 0.0
C581 C 0.5915 0.9287 0.23891 0.0
C582 C 0.6168 0.91281 0.19235 0.0
C583 C 0.37141 0.3429 1.0094 0.0
C584 C 0.38378 0.30779 1.00763 0.0
C585 C 0.38685 0.36912 0.9668 0.0
C586 C 0.41481 0.36125 0.91948 0.0
H587 H 0.35027 0.35039 0.04514 0.0
H588 H 0.37694 0.39608 0.97161 0.0
S589 S 0.45379 0.27239 0.88797 0.0
N590 N 0.42384 0.26574 0.95015 0.0
N591 N 0.4521 0.31527 0.86935 0.0
C592 C 0.42613 0.32594 0.91428 0.0
C593 C 0.41089 0.29921 0.95867 0.0
C594 C 0.96276 0.18327 0.68335 0.0
C595 C 0.93137 0.16542 0.66577 0.0
C596 C 0.98755 0.16776 0.72925 0.0
C597 C 0.98215 0.1335 0.75852 0.0
H598 H 0.96767 0.20979 0.66345 0.0
H599 H 1.01122 0.18295 0.74174 0.0
S600 S 0.90553 0.07426 0.72088 0.0
N601 N 0.89695 0.11093 0.67625 0.0
N602 N 0.94395 0.08128 0.76069 0.0
C603 C 0.95148 0.11476 0.73823 0.0
C604 C 0.92606 0.13082 0.69228 0.0
C605 C 0.11107 0.71598 0.43297 0.0
C606 C 0.12825 0.68369 0.41943 0.0
C607 C 0.12641 0.74126 0.47843 0.0
C608 C 0.15981 0.73551 0.51101 0.0
H609 H 0.08517 0.72124 0.41037 0.0
H610 H 0.11189 0.76559 0.48797 0.0
S611 S 0.21662 0.65586 0.48727 0.0
N612 N 0.18092 0.64758 0.43942 0.0
N613 N 0.21015 0.69551 0.52248 0.0
C614 C 0.17771 0.70373 0.49557 0.0
C615 C 0.16184 0.67778 0.45043 0.0
C616 C 0.92317 0.64157 0.39518 0.0
C617 C 0.9313 0.66647 0.44899 0.0
C618 C 0.94972 0.62525 0.35457 0.0
C619 C 0.98558 0.63365 0.36489 0.0
H620 H 0.89582 0.63447 0.38399 0.0
H621 H 0.94205 0.60665 0.3137 0.0
S622 S 0.02173 0.694 0.50296 0.0
N623 N 0.97821 0.69633 0.51353 0.0
N624 N 0.02833 0.6663 0.43668 0.0
C625 C 0.99431 0.65757 0.4199 0.0
C626 C 0.96718 0.67374 0.46213 0.0
C627 C 0.17062 0.19941 0.61487 0.0
C628 C 0.1592 0.23482 0.61804 0.0
C629 C 0.15459 0.17319 0.65672 0.0
C630 C 0.12696 0.18135 0.70467 0.0
H631 H 0.1915 0.19173 0.57869 0.0
H632 H 0.16394 0.14607 0.65116 0.0
S633 S 0.09026 0.27093 0.7393 0.0
N634 N 0.12031 0.27735 0.67722 0.0
N635 N 0.09083 0.22784 0.75631 0.0
C636 C 0.11646 0.21689 0.71088 0.0
C637 C 0.13234 0.24362 0.66738 0.0
C638 C 0.61956 0.40878 0.90972 0.0
C639 C 0.61207 0.38022 0.95585 0.0
C640 C 0.59322 0.42401 0.86714 0.0
C641 C 0.5584 0.41083 0.86776 0.0
H642 H 0.64629 0.41938 0.90594 0.0
H643 H 0.60039 0.44568 0.83237 0.0
S644 S 0.52403 0.33887 0.98417 0.0
N645 N 0.56676 0.34136 1.00361 0.0
N646 N 0.51701 0.36925 0.92298 0.0
C647 C 0.5502 0.38304 0.91552 0.0
C648 C 0.57704 0.36799 0.95983 0.0
C649 C 0.42329 0.81221 0.11788 0.0
C650 C 0.38596 0.81124 0.1089 0.0
C651 C 0.4396 0.83582 0.16553 0.0
C652 C 0.41922 0.85869 0.20763 0.0
H653 H 0.44019 0.79473 0.08731 0.0
H654 H 0.46836 0.83686 0.16807 0.0
S655 S 0.32095 0.86682 0.20677 0.0
N656 N 0.32933 0.83582 0.14741 0.0
N657 N 0.36004 0.87926 0.23782 0.0
C658 C 0.38202 0.85779 0.20018 0.0
C659 C 0.36538 0.83435 0.15072 0.0
C660 C 0.12017 0.40713 0.71661 0.0
C661 C 0.11245 0.3792 0.66898 0.0
C662 C 0.09381 0.42257 0.75888 0.0
C663 C 0.0587 0.41022 0.75653 0.0
H664 H 0.14708 0.41713 0.72167 0.0
H665 H 0.10117 0.44378 0.79469 0.0
S666 S 0.02372 0.33994 0.63658 0.0
N667 N 0.06663 0.34173 0.6184 0.0
N668 N 1.01689 0.36994 0.69869 0.0
C669 C 0.05031 0.38298 0.70759 0.0
C670 C 0.07717 0.36775 0.66349 0.0
C671 C 0.9197 0.81318 0.504 0.0
C672 C 0.88225 0.81102 0.50869 0.0
C673 C 0.93651 0.83697 0.45787 0.0
C674 C 0.91669 0.85878 0.41286 0.0
H675 H 0.93633 0.79652 0.53681 0.0
H676 H 0.96518 0.83911 0.45905 0.0
S677 S 0.81835 0.86507 0.40517 0.0
N678 N 0.82599 0.83412 0.46494 0.0
N679 N 0.85782 0.87812 0.37726 0.0
C680 C 0.87937 0.85705 0.41663 0.0
C681 C 0.86211 0.83337 0.46466 0.0
C682 C 0.42057 0.64306 0.22943 0.0
C683 C 0.42931 0.66582 0.17255 0.0
C684 C 0.44678 0.6263 0.27016 0.0
C685 C 0.48284 0.63216 0.25666 0.0
H686 H 0.39304 0.63804 0.24297 0.0
H687 H 0.43875 0.60951 0.31366 0.0
S688 S 0.52035 0.68627 0.11071 0.0
N689 N 0.47689 0.69091 0.10222 0.0
N690 N 0.52634 0.66007 0.17942 0.0
C691 C 0.49211 0.65389 0.19879 0.0
C692 C 0.46535 0.67048 0.15652 0.0
C693 C 0.65591 0.17381 0.97037 0.0
C694 C 0.62859 0.18152 0.92146 0.0
C695 C 0.67191 0.20046 1.01128 0.0
C696 C 0.66073 0.23586 1.00617 0.0
H697 H 0.66505 0.14671 0.97747 0.0
H698 H 0.69253 0.19313 0.04835 0.0
S699 S 0.59259 0.27085 0.88201 0.0
N700 N 0.59306 0.22757 0.86676 0.0
N701 N 0.62236 0.27788 0.94445 0.0
C702 C 0.63419 0.24422 0.9559 0.0
C703 C 0.61839 0.21705 0.91324 0.0
C704 C 0.30762 0.27432 0.3052 0.0
C705 C 0.28983 0.25454 0.25335 0.0
C706 C 0.28907 0.28915 0.36263 0.0
C707 C 0.25181 0.28497 0.37119 0.0
H708 H 0.33593 0.2791 0.30071 0.0
H709 H 0.3043 0.30418 0.40087 0.0
S710 S 0.19273 0.23386 0.25214 0.0
N711 N 0.2325 0.23029 0.21618 0.0
N712 N 0.19824 0.25849 0.32326 0.0
C713 C 0.23375 0.26502 0.32009 0.0
C714 C 0.25257 0.24969 0.26179 0.0
C715 C 0.52373 0.48671 0.57195 0.0
C716 C 0.50406 0.50462 0.62372 0.0
C717 C 0.53833 0.50511 0.51422 0.0
C718 C 0.53398 0.54233 0.50517 0.0
H719 H 0.52857 0.45842 0.57669 0.0
H720 H 0.55332 0.48978 0.47612 0.0
S721 S 0.48313 0.60166 0.62395 0.0
N722 N 0.47981 0.56198 0.6605 0.0
N723 N 0.50751 0.596 0.55264 0.0
C724 C 0.51414 0.56052 0.55622 0.0
C725 C 0.49908 0.54182 0.61492 0.0
C726 C 0.23715 0.76671 0.80063 0.0
C727 C 0.25414 0.78908 0.75217 0.0
C728 C 0.25617 0.75116 0.85643 0.0
C729 C 0.29303 0.75725 0.86649 0.0
H730 H 0.20916 0.76056 0.79471 0.0
H731 H 0.24163 0.73428 0.89257 0.0
S732 S 0.34986 0.81506 0.75601 0.0
N733 N 0.31015 0.8175 0.71931 0.0
N734 N 0.34537 0.788 0.82377 0.0
C735 C 0.31033 0.77956 0.81852 0.0
C736 C 0.29101 0.79562 0.76186 0.0
C737 C 1.02046 0.55774 0.0708 0.0
C738 C 0.04014 0.53979 0.12243 0.0
C739 C 1.00528 0.53932 1.01355 0.0
C740 C 1.00901 0.50198 1.0048 0.0
H741 H 1.0161 0.58615 0.07523 0.0
H742 H 0.9904 0.55473 0.9755 0.0
S743 S 0.05932 0.44234 0.12365 0.0
N744 N 0.06349 0.48213 0.15963 0.0
N745 N 0.03475 0.44809 0.05259 0.0
C746 C 0.02873 0.48371 0.05581 0.0
C747 C 0.04439 0.50241 0.11407 0.0
C748 C 0.78945 0.78928 0.86116 0.0
C749 C 0.7523 0.78458 0.87037 0.0
C750 C 0.80791 0.77469 0.80335 0.0
C751 C 0.79014 0.75462 0.75189 0.0
H752 H 0.80461 0.80457 0.89907 0.0
H753 H 0.83612 0.7799 0.79824 0.0
S754 S 0.69338 0.73239 0.75278 0.0
N755 N 0.6989 0.7572 0.82364 0.0
N756 N 0.73301 0.72939 0.71606 0.0
C757 C 0.75302 0.74915 0.76116 0.0
C758 C 0.73429 0.76428 0.81973 0.0
C759 C 0.7361 0.26846 0.3026 0.0
C760 C 0.75389 0.28886 0.25179 0.0
C761 C 0.75455 0.25353 0.36 0.0
C762 C 0.79168 0.2582 0.36943 0.0
H763 H 0.70788 0.26334 0.29736 0.0
H764 H 0.73938 0.23807 0.39756 0.0
S765 S 0.85063 0.31104 0.25348 0.0
N766 N 0.81101 0.31424 0.21667 0.0
N767 N 0.8451 0.28581 0.32362 0.0
C768 C 0.80973 0.27873 0.31935 0.0
C769 C 0.791 0.29419 0.26116 0.0
C770 C 0.0382 1.00664 1.01578 0.0
C771 C 0.03437 0.04396 1.00757 0.0
C772 C 0.02366 0.98819 0.07335 0.0
C773 C 1.00467 1.00614 0.126 0.0
H774 H 0.05263 0.99121 0.977 0.0
H775 H 0.02796 0.95977 0.07718 0.0
S776 S 0.98573 0.10354 0.12941 0.0
N777 N 1.00936 0.09787 0.05711 0.0
N778 N 0.98195 0.06371 0.16519 0.0
C779 C 1.00042 0.04349 0.11845 0.0
C780 C 1.01533 0.06225 0.05966 0.0
C781 C 0.51862 0.05786 0.57013 0.0
C782 C 0.53871 0.04008 0.62145 0.0
C783 C 0.50376 0.03935 0.51253 0.0
C784 C 0.50815 1.00212 0.50346 0.0
H785 H 0.51365 0.08615 0.57515 0.0
H786 H 0.48851 0.05451 0.47467 0.0
S787 S 0.56025 0.94313 0.6207 0.0
N788 N 0.56362 0.98285 0.6572 0.0
N789 N 0.53528 0.94864 0.55015 0.0
C790 C 0.52845 0.98411 0.55397 0.0
C791 C 0.54387 1.00289 0.61228 0.0
C792 C 0.28483 0.30432 0.78865 0.0
C793 C 0.2492 0.2961 0.77412 0.0
C794 C 0.30623 0.28057 0.82663 0.0
C795 C 0.29296 0.2476 0.85099 0.0
H796 H 0.29672 0.32836 0.76774 0.0
H797 H 0.33322 0.28855 0.83916 0.0
S798 S 0.20142 0.21356 0.82518 0.0
N799 N 0.20149 0.25285 0.78644 0.0
N800 N 0.2419 0.20819 0.85711 0.0
C801 C 0.25748 0.23904 0.83619 0.0
C802 C 0.23552 0.26344 0.79874 0.0
C803 C 0.49004 0.53417 0.04004 0.0
C804 C 0.49803 0.49838 0.02649 0.0
C805 C 0.51391 0.55578 0.07735 0.0
C806 C 0.5467 0.54251 0.1025 0.0
H807 H 0.46601 0.54599 1.01898 0.0
H808 H 0.50603 0.58287 0.08936 0.0
S809 S 0.58031 0.45067 0.0788 0.0
N810 N 0.54111 0.45064 0.03961 0.0
N811 N 0.58581 0.49136 0.10987 0.0
C812 C 0.55512 0.50692 0.08831 0.0
C813 C 0.53068 0.4848 0.05113 0.0
C814 C 0.27927 0.77454 0.38057 0.0
C815 C 0.25464 0.80105 0.35955 0.0
C816 C 0.29582 0.75222 0.33177 0.0
C817 C 0.28865 0.75605 0.26032 0.0
H818 H 0.28499 0.77029 0.43582 0.0
H819 H 0.31475 0.73253 0.34982 0.0
S820 S 0.22719 0.82191 0.17814 0.0
N821 N 0.22433 0.82998 0.26334 0.0
N822 N 0.25607 0.7891 0.16999 0.0
C823 C 0.26481 0.78323 0.23845 0.0
C824 C 0.24776 0.80559 0.28842 0.0
C825 C 1.01327 0.5578 0.54763 0.0
C826 C 0.04659 0.54487 0.52464 0.0
C827 C 0.98954 0.53626 0.58525 0.0
C828 C 0.99829 0.50098 0.60147 0.0
H829 H 1.00497 0.58454 0.53395 0.0
H830 H 0.96499 0.54777 0.60434 0.0
S831 S 0.08146 0.45384 0.55253 0.0
N832 N 0.08655 0.49426 0.52 0.0
N833 N 0.04208 0.45368 0.59088 0.0
C834 C 0.03123 0.48756 0.57788 0.0
C835 C 0.05551 0.5096 0.54036 0.0
C836 C 0.78481 0.80201 0.28313 0.0
C837 C 0.74836 0.79589 0.27324 0.0
C838 C 0.80579 0.77766 0.3204 0.0
C839 C 0.79122 0.74614 0.34866 0.0
H840 H 0.79753 0.82486 0.25916 0.0
H841 H 0.83349 0.78416 0.3296 0.0
S842 S 0.69713 0.71775 0.3361 0.0
N843 N 0.69854 0.75603 0.29363 0.0
N844 N 0.73806 0.71035 0.36387 0.0
C845 C 0.75491 0.73959 0.33841 0.0
C846 C 0.73345 0.76459 0.30137 0.0
C847 C 0.75908 0.24281 0.7872 0.0
C848 C 0.79457 0.25138 0.7724 0.0
C849 C 0.73744 0.26646 0.82481 0.0
C850 C 0.75046 0.29954 0.8493 0.0
H851 H 0.74753 0.21843 0.76706 0.0
H852 H 0.71059 0.25817 0.83759 0.0
S853 S 0.84154 0.33455 0.82287 0.0
N854 N 0.84178 0.29526 0.78392 0.0
N855 N 0.80106 0.33951 0.85497 0.0
C856 C 0.78576 0.30853 0.83401 0.0
C857 C 0.80788 0.28434 0.79634 0.0
C858 C 0.98926 0.03198 0.5416 0.0
C859 C 0.99761 0.99625 0.52823 0.0
C860 C 1.01271 0.05377 0.57951 0.0
C861 C 0.04546 0.04075 0.60536 0.0
H862 H 0.9653 0.04364 0.5199 0.0
H863 H 1.00461 0.08084 0.59107 0.0
S864 S 0.07904 0.94874 0.58527 0.0
N865 N 0.04042 0.94857 0.54398 0.0
N866 N 0.08438 0.98959 0.61558 0.0
C867 C 0.05403 1.0051 0.59215 0.0
C868 C 0.03 0.98281 0.55423 0.0
C869 C 0.51529 0.05497 0.05032 0.0
C870 C 0.54773 0.04146 0.02408 0.0
C871 C 0.49149 0.03344 0.08782 0.0
C872 C 0.49915 0.99747 0.10019 0.0
H873 H 0.50771 0.08225 0.03941 0.0
H874 H 0.46782 0.04544 0.11006 0.0
S875 S 0.57968 0.94875 0.04199 0.0
N876 N 0.58573 0.98965 1.01267 0.0
N877 N 0.54109 0.9491 0.08334 0.0
C878 C 0.53128 0.98357 0.07385 0.0
C879 C 0.55568 1.00559 0.03648 0.0
loop_
_geom_bond_atom_site_label_1
_geom_bond_atom_site_label_2
_geom_bond_distance
_geom_bond_site_symmetry_2
_ccdc_geom_bond_type
Fe0 O2 1.918 . S
Fe0 O5 1.997 . S
Fe0 O6 2.002 1_554 S
Fe0 O11 1.976 . S
Fe0 O14 1.996 . S
Fe1 O2 1.918 1_556 S
Fe1 O9 1.997 . S
Fe1 O12 1.996 . S
Fe1 O16 1.976 1_556 S
Fe1 O19 2.002 . S
O2 Fe0 1.918 . S
O2 Fe1 1.918 1_554 S
O2 Fe3 1.918 . S
Fe3 O2 1.918 . S
Fe3 O4 2.002 . S
Fe3 O13 1.976 . S
Fe3 O17 1.996 . S
Fe3 O20 1.997 . S
O4 Fe3 2.002 . S
O4 C21 1.295 . S
O5 Fe0 1.997 . S
O5 C21 1.235 . S
O6 Fe0 2.002 1_556 S
O6 C7 1.295 . S
C7 O6 1.295 . S
C7 O9 1.235 . S
C8 O13 1.287 . S
C8 O14 1.255 . S
O9 Fe1 1.997 . S
O9 C7 1.235 . S
C10 O16 1.287 . S
C10 O17 1.255 . S
O11 Fe0 1.976 . S
O11 C18 1.288 . S
O12 Fe1 1.996 . S
O12 C18 1.252 1_556 S
O13 Fe3 1.976 . S
O13 C8 1.287 . S
O14 Fe0 1.996 . S
O14 C8 1.255 . S
C15 O19 1.295 . S
C15 O20 1.235 1_556 S
O16 Fe1 1.976 1_554 S
O16 C10 1.287 . S
O17 Fe3 1.996 . S
O17 C10 1.255 . S
C18 O11 1.288 . S
C18 O12 1.252 1_554 S
O19 Fe1 2.002 . S
O19 C15 1.295 . S
O20 Fe3 1.997 . S
O20 C15 1.235 1_554 S
C21 O4 1.295 . S
C21 O5 1.235 . S
Fe22 O24 1.918 . S
Fe22 O27 1.997 . S
Fe22 O28 2.002 . S
Fe22 O33 1.976 . S
Fe22 O36 1.996 . S
Fe23 O24 1.918 . S
Fe23 O31 1.997 . S
Fe23 O34 1.996 . S
Fe23 O38 1.976 . S
Fe23 O41 2.002 . S
O24 Fe22 1.918 . S
O24 Fe23 1.918 . S
O24 Fe25 1.918 . S
Fe25 O24 1.918 . S
Fe25 O26 2.002 . S
Fe25 O35 1.976 . S
Fe25 O39 1.996 . S
Fe25 O42 1.997 . S
O26 Fe25 2.002 . S
O26 C43 1.295 . S
O27 Fe22 1.997 . S
O27 C43 1.235 . S
O28 Fe22 2.002 . S
O28 C29 1.295 . S
C29 O28 1.295 . S
C29 O31 1.235 . S
C30 O35 1.287 . S
C30 O36 1.255 . S
O31 Fe23 1.997 . S
O31 C29 1.235 . S
C32 O38 1.287 . S
C32 O39 1.255 . S
O33 Fe22 1.976 . S
O33 C40 1.287 . S
O34 Fe23 1.996 . S
O34 C40 1.255 . S
O35 Fe25 1.976 . S
O35 C30 1.287 . S
O36 Fe22 1.996 . S
O36 C30 1.255 . S
C37 O41 1.295 . S
C37 O42 1.235 . S
O38 Fe23 1.976 . S
O38 C32 1.287 . S
O39 Fe25 1.996 . S
O39 C32 1.255 . S
C40 O33 1.287 . S
C40 O34 1.255 . S
O41 Fe23 2.002 . S
O41 C37 1.295 . S
O42 Fe25 1.997 . S
O42 C37 1.235 . S
C43 O26 1.295 . S
C43 O27 1.235 . S
Fe44 O46 1.918 . S
Fe44 O49 1.997 . S
Fe44 O50 2.002 . S
Fe44 O55 1.976 . S
Fe44 O58 1.996 . S
Fe45 O46 1.918 . S
Fe45 O53 1.997 . S
Fe45 O56 1.996 . S
Fe45 O60 1.976 . S
Fe45 O63 2.002 . S
O46 Fe44 1.918 . S
O46 Fe45 1.918 . S
O46 Fe47 1.918 . S
Fe47 O46 1.918 . S
Fe47 O48 2.002 . S
Fe47 O57 1.976 . S
Fe47 O61 1.996 . S
Fe47 O64 1.997 . S
O48 Fe47 2.002 . S
O48 C65 1.295 . S
O49 Fe44 1.997 . S
O49 C65 1.235 . S
O50 Fe44 2.002 . S
O50 C51 1.295 . S
C51 O50 1.295 . S
C51 O53 1.235 . S
C52 O57 1.287 . S
C52 O58 1.255 . S
O53 Fe45 1.997 . S
O53 C51 1.235 . S
C54 O60 1.287 . S
C54 O61 1.255 . S
O55 Fe44 1.976 . S
O55 C62 1.287 . S
O56 Fe45 1.996 . S
O56 C62 1.255 . S
O57 Fe47 1.976 . S
O57 C52 1.287 . S
O58 Fe44 1.996 . S
O58 C52 1.255 . S
C59 O63 1.295 . S
C59 O64 1.235 . S
O60 Fe45 1.976 . S
O60 C54 1.287 . S
O61 Fe47 1.996 . S
O61 C54 1.255 . S
C62 O55 1.287 . S
C62 O56 1.255 . S
O63 Fe45 2.002 . S
O63 C59 1.295 . S
O64 Fe47 1.997 . S
O64 C59 1.235 . S
C65 O48 1.295 . S
C65 O49 1.235 . S
Fe66 O68 1.918 . S
Fe66 O71 1.997 1_655 S
Fe66 O72 2.002 . S
Fe66 O77 1.976 . S
Fe66 O80 1.996 . S
Fe67 O68 1.918 . S
Fe67 O75 1.997 . S
Fe67 O78 1.996 . S
Fe67 O82 1.976 . S
Fe67 O85 2.002 . S
O68 Fe66 1.918 . S
O68 Fe67 1.918 . S
O68 Fe69 1.918 . S
Fe69 O68 1.918 . S
Fe69 O70 2.002 . S
Fe69 O79 1.976 . S
Fe69 O83 1.996 . S
Fe69 O86 1.997 . S
O70 Fe69 2.002 . S
O70 C87 1.295 1_655 S
O71 Fe66 1.997 1_455 S
O71 C87 1.235 . S
O72 Fe66 2.002 . S
O72 C73 1.295 . S
C73 O72 1.295 . S
C73 O75 1.235 . S
C74 O79 1.287 . S
C74 O80 1.255 . S
O75 Fe67 1.997 . S
O75 C73 1.235 . S
C76 O82 1.287 . S
C76 O83 1.255 . S
O77 Fe66 1.976 . S
O77 C84 1.287 . S
O78 Fe67 1.996 . S
O78 C84 1.255 . S
O79 Fe69 1.976 . S
O79 C74 1.287 . S
O80 Fe66 1.996 . S
O80 C74 1.255 . S
C81 O85 1.295 . S
C81 O86 1.235 . S
O82 Fe67 1.976 . S
O82 C76 1.287 . S
O83 Fe69 1.996 . S
O83 C76 1.255 . S
C84 O77 1.287 . S
C84 O78 1.255 . S
O85 Fe67 2.002 . S
O85 C81 1.295 . S
O86 Fe69 1.997 . S
O86 C81 1.235 . S
C87 O70 1.295 1_455 S
C87 O71 1.235 . S
Fe88 O90 1.918 . S
Fe88 O93 1.997 . S
Fe88 O94 2.002 . S
Fe88 O99 1.976 . S
Fe88 O102 1.996 . S
Fe89 O90 1.918 1_556 S
Fe89 O97 1.997 1_556 S
Fe89 O100 1.996 . S
Fe89 O104 1.976 . S
Fe89 O107 2.002 1_556 S
O90 Fe88 1.918 . S
O90 Fe89 1.918 1_554 S
O90 Fe91 1.918 . S
Fe91 O90 1.918 . S
Fe91 O92 2.002 . S
Fe91 O101 1.976 . S
Fe91 O105 1.996 1_554 S
Fe91 O108 1.997 . S
O92 Fe91 2.002 . S
O92 C109 1.295 . S
O93 Fe88 1.997 . S
O93 C109 1.235 . S
O94 Fe88 2.002 . S
O94 C95 1.295 . S
C95 O94 1.295 . S
C95 O97 1.235 . S
C96 O101 1.287 . S
C96 O102 1.255 . S
O97 Fe89 1.997 1_554 S
O97 C95 1.235 . S
C98 O104 1.287 . S
C98 O105 1.255 . S
O99 Fe88 1.976 . S
O99 C106 1.287 1_554 S
O100 Fe89 1.996 . S
O100 C106 1.255 . S
O101 Fe91 1.976 . S
O101 C96 1.287 . S
O102 Fe88 1.996 . S
O102 C96 1.255 . S
C103 O107 1.295 . S
C103 O108 1.235 . S
O104 Fe89 1.976 . S
O104 C98 1.287 . S
O105 Fe91 1.996 1_556 S
O105 C98 1.255 . S
C106 O99 1.287 1_556 S
C106 O100 1.255 . S
O107 Fe89 2.002 1_554 S
O107 C103 1.295 . S
O108 Fe91 1.997 . S
O108 C103 1.235 . S
C109 O92 1.295 . S
C109 O93 1.235 . S
Fe110 O112 1.918 . S
Fe110 O115 1.997 . S
Fe110 O116 2.002 . S
Fe110 O121 1.976 . S
Fe110 O124 1.996 . S
Fe111 O112 1.918 . S
Fe111 O119 1.997 . S
Fe111 O122 1.996 . S
Fe111 O126 1.976 . S
Fe111 O129 2.002 . S
O112 Fe110 1.918 . S
O112 Fe111 1.918 . S
O112 Fe113 1.918 . S
Fe113 O112 1.918 . S
Fe113 O114 2.002 . S
Fe113 O123 1.976 . S
Fe113 O127 1.996 . S
Fe113 O130 1.997 . S
O114 Fe113 2.002 . S
O114 C131 1.295 . S
O115 Fe110 1.997 . S
O115 C131 1.235 . S
O116 Fe110 2.002 . S
O116 C117 1.295 . S
C117 O116 1.295 . S
C117 O119 1.235 . S
C118 O123 1.287 . S
C118 O124 1.255 . S
O119 Fe111 1.997 . S
O119 C117 1.235 . S
C120 O126 1.287 . S
C120 O127 1.255 . S
O121 Fe110 1.976 . S
O121 C128 1.287 . S
O122 Fe111 1.996 . S
O122 C128 1.255 . S
O123 Fe113 1.976 . S
O123 C118 1.287 . S
O124 Fe110 1.996 . S
O124 C118 1.255 . S
C125 O129 1.295 . S
C125 O130 1.235 . S
O126 Fe111 1.976 . S
O126 C120 1.287 . S
O127 Fe113 1.996 . S
O127 C120 1.255 . S
C128 O121 1.287 . S
C128 O122 1.255 . S
O129 Fe111 2.002 . S
O129 C125 1.295 . S
O130 Fe113 1.997 . S
O130 C125 1.235 . S
C131 O114 1.295 . S
C131 O115 1.235 . S
Fe132 O134 1.918 . S
Fe132 O137 1.997 . S
Fe132 O138 2.002 . S
Fe132 O143 1.976 . S
Fe132 O146 1.996 . S
Fe133 O134 1.918 . S
Fe133 O141 1.997 . S
Fe133 O144 1.996 . S
Fe133 O148 1.976 . S
Fe133 O151 2.002 . S
O134 Fe132 1.918 . S
O134 Fe133 1.918 . S
O134 Fe135 1.918 . S
Fe135 O134 1.918 . S
Fe135 O136 2.002 . S
Fe135 O145 1.976 . S
Fe135 O149 1.996 . S
Fe135 O152 1.997 . S
O136 Fe135 2.002 . S
O136 C153 1.295 . S
O137 Fe132 1.997 . S
O137 C153 1.235 . S
O138 Fe132 2.002 . S
O138 C139 1.295 . S
C139 O138 1.295 . S
C139 O141 1.235 . S
C140 O145 1.287 . S
C140 O146 1.255 . S
O141 Fe133 1.997 . S
O141 C139 1.235 . S
C142 O148 1.287 . S
C142 O149 1.255 . S
O143 Fe132 1.976 . S
O143 C150 1.287 . S
O144 Fe133 1.996 . S
O144 C150 1.255 . S
O145 Fe135 1.976 . S
O145 C140 1.287 . S
O146 Fe132 1.996 . S
O146 C140 1.255 . S
C147 O151 1.295 . S
C147 O152 1.235 . S
O148 Fe133 1.976 . S
O148 C142 1.287 . S
O149 Fe135 1.996 . S
O149 C142 1.255 . S
C150 O143 1.287 . S
C150 O144 1.255 . S
O151 Fe133 2.002 . S
O151 C147 1.295 . S
O152 Fe135 1.997 . S
O152 C147 1.235 . S
C153 O136 1.295 . S
C153 O137 1.235 . S
Fe154 O156 1.918 . S
Fe154 O159 1.997 1_455 S
Fe154 O160 2.002 . S
Fe154 O165 1.976 . S
Fe154 O168 1.996 . S
Fe155 O156 1.918 . S
Fe155 O163 1.997 . S
Fe155 O166 1.996 . S
Fe155 O170 1.976 . S
Fe155 O173 2.002 . S
O156 Fe154 1.918 . S
O156 Fe155 1.918 . S
O156 Fe157 1.918 . S
Fe157 O156 1.918 . S
Fe157 O158 2.002 . S
Fe157 O167 1.976 . S
Fe157 O171 1.996 . S
Fe157 O174 1.997 . S
O158 Fe157 2.002 . S
O158 C175 1.295 1_455 S
O159 Fe154 1.997 1_655 S
O159 C175 1.235 . S
O160 Fe154 2.002 . S
O160 C161 1.295 . S
C161 O160 1.295 . S
C161 O163 1.235 . S
C162 O167 1.287 . S
C162 O168 1.255 . S
O163 Fe155 1.997 . S
O163 C161 1.235 . S
C164 O170 1.287 . S
C164 O171 1.255 . S
O165 Fe154 1.976 . S
O165 C172 1.287 . S
O166 Fe155 1.996 . S
O166 C172 1.255 . S
O167 Fe157 1.976 . S
O167 C162 1.287 . S
O168 Fe154 1.996 . S
O168 C162 1.255 . S
C169 O173 1.295 . S
C169 O174 1.235 . S
O170 Fe155 1.976 . S
O170 C164 1.287 . S
O171 Fe157 1.996 . S
O171 C164 1.255 . S
C172 O165 1.287 . S
C172 O166 1.255 . S
O173 Fe155 2.002 . S
O173 C169 1.295 . S
O174 Fe157 1.997 . S
O174 C169 1.235 . S
C175 O158 1.295 1_655 S
C175 O159 1.235 . S
Fe176 O178 1.918 . S
Fe176 O181 1.997 . S
Fe176 O182 2.002 . S
Fe176 O187 1.976 . S
Fe176 O190 1.996 . S
Fe177 O178 1.918 . S
Fe177 O185 1.997 . S
Fe177 O188 1.996 . S
Fe177 O192 1.976 . S
Fe177 O195 2.002 . S
O178 Fe176 1.918 . S
O178 Fe177 1.918 . S
O178 Fe179 1.918 . S
Fe179 O178 1.918 . S
Fe179 O180 2.002 . S
Fe179 O189 1.976 . S
Fe179 O193 1.996 . S
Fe179 O196 1.997 . S
O180 Fe179 2.002 . S
O180 C197 1.295 . S
O181 Fe176 1.997 . S
O181 C197 1.235 . S
O182 Fe176 2.002 . S
O182 C183 1.295 . S
C183 O182 1.295 . S
C183 O185 1.235 . S
C184 O189 1.287 . S
C184 O190 1.255 . S
O185 Fe177 1.997 . S
O185 C183 1.235 . S
C186 O192 1.287 . S
C186 O193 1.255 . S
O187 Fe176 1.976 . S
O187 C194 1.287 . S
O188 Fe177 1.996 . S
O188 C194 1.255 . S
O189 Fe179 1.976 . S
O189 C184 1.287 . S
O190 Fe176 1.996 . S
O190 C184 1.255 . S
C191 O195 1.295 . S
C191 O196 1.235 . S
O192 Fe177 1.976 . S
O192 C186 1.287 . S
O193 Fe179 1.996 . S
O193 C186 1.255 . S
C194 O187 1.287 . S
C194 O188 1.255 . S
O195 Fe177 2.002 . S
O195 C191 1.295 . S
O196 Fe179 1.997 . S
O196 C191 1.235 . S
C197 O180 1.295 . S
C197 O181 1.235 . S
Fe198 O200 1.918 . S
Fe198 O203 1.997 1_455 S
Fe198 O204 2.002 . S
Fe198 O209 1.976 1_545 S
Fe198 O212 1.996 . S
Fe199 O200 1.918 . S
Fe199 O207 1.997 . S
Fe199 O210 1.996 . S
Fe199 O214 1.976 . S
Fe199 O217 2.002 . S
O200 Fe198 1.918 . S
O200 Fe199 1.918 . S
O200 Fe201 1.918 . S
Fe201 O200 1.918 . S
Fe201 O202 2.002 . S
Fe201 O211 1.976 . S
Fe201 O215 1.996 . S
Fe201 O218 1.997 . S
O202 Fe201 2.002 . S
O202 C219 1.295 1_455 S
O203 Fe198 1.997 1_655 S
O203 C219 1.235 . S
O204 Fe198 2.002 . S
O204 C205 1.295 . S
C205 O204 1.295 . S
C205 O207 1.235 . S
C206 O211 1.287 . S
C206 O212 1.255 . S
O207 Fe199 1.997 . S
O207 C205 1.235 . S
C208 O214 1.287 . S
C208 O215 1.255 . S
O209 Fe198 1.976 1_565 S
O209 C216 1.287 . S
O210 Fe199 1.996 . S
O210 C216 1.255 1_545 S
O211 Fe201 1.976 . S
O211 C206 1.287 . S
O212 Fe198 1.996 . S
O212 C206 1.255 . S
C213 O217 1.295 . S
C213 O218 1.235 . S
O214 Fe199 1.976 . S
O214 C208 1.287 . S
O215 Fe201 1.996 . S
O215 C208 1.255 . S
C216 O209 1.287 . S
C216 O210 1.255 1_565 S
O217 Fe199 2.002 . S
O217 C213 1.295 . S
O218 Fe201 1.997 . S
O218 C213 1.235 . S
C219 O202 1.295 1_655 S
C219 O203 1.235 . S
Fe220 O222 1.918 . S
Fe220 O225 1.997 . S
Fe220 O226 2.002 1_554 S
Fe220 O231 1.976 . S
Fe220 O234 1.996 . S
Fe221 O222 1.918 1_556 S
Fe221 O229 1.997 . S
Fe221 O232 1.996 . S
Fe221 O236 1.976 1_556 S
Fe221 O239 2.002 . S
O222 Fe220 1.918 . S
O222 Fe221 1.918 1_554 S
O222 Fe223 1.918 . S
Fe223 O222 1.918 . S
Fe223 O224 2.002 . S
Fe223 O233 1.976 . S
Fe223 O237 1.996 . S
Fe223 O240 1.997 . S
O224 Fe223 2.002 . S
O224 C241 1.295 . S
O225 Fe220 1.997 . S
O225 C241 1.235 . S
O226 Fe220 2.002 1_556 S
O226 C227 1.295 . S
C227 O226 1.295 . S
C227 O229 1.235 . S
C228 O233 1.287 . S
C228 O234 1.255 . S
O229 Fe221 1.997 . S
O229 C227 1.235 . S
C230 O236 1.287 . S
C230 O237 1.255 . S
O231 Fe220 1.976 . S
O231 C238 1.288 . S
O232 Fe221 1.996 . S
O232 C238 1.252 1_556 S
O233 Fe223 1.976 . S
O233 C228 1.287 . S
O234 Fe220 1.996 . S
O234 C228 1.255 . S
C235 O239 1.295 . S
C235 O240 1.235 1_556 S
O236 Fe221 1.976 1_554 S
O236 C230 1.287 . S
O237 Fe223 1.996 . S
O237 C230 1.255 . S
C238 O231 1.288 . S
C238 O232 1.252 1_554 S
O239 Fe221 2.002 . S
O239 C235 1.295 . S
O240 Fe223 1.997 . S
O240 C235 1.235 1_554 S
C241 O224 1.295 . S
C241 O225 1.235 . S
Fe242 O244 1.918 . S
Fe242 O247 1.997 . S
Fe242 O248 2.002 . S
Fe242 O253 1.976 1_565 S
Fe242 O256 1.996 . S
Fe243 O244 1.918 . S
Fe243 O251 1.997 . S
Fe243 O254 1.996 . S
Fe243 O258 1.976 . S
Fe243 O261 2.002 . S
O244 Fe242 1.918 . S
O244 Fe243 1.918 . S
O244 Fe245 1.918 . S
Fe245 O244 1.918 . S
Fe245 O246 2.002 . S
Fe245 O255 1.976 . S
Fe245 O259 1.996 . S
Fe245 O262 1.997 . S
O246 Fe245 2.002 . S
O246 C263 1.295 . S
O247 Fe242 1.997 . S
O247 C263 1.235 . S
O248 Fe242 2.002 . S
O248 C249 1.295 . S
C249 O248 1.295 . S
C249 O251 1.235 . S
C250 O255 1.287 . S
C250 O256 1.255 . S
O251 Fe243 1.997 . S
O251 C249 1.235 . S
C252 O258 1.287 . S
C252 O259 1.255 . S
O253 Fe242 1.976 1_545 S
O253 C260 1.287 . S
O254 Fe243 1.996 . S
O254 C260 1.255 1_565 S
O255 Fe245 1.976 . S
O255 C250 1.287 . S
O256 Fe242 1.996 . S
O256 C250 1.255 . S
C257 O261 1.295 . S
C257 O262 1.235 . S
O258 Fe243 1.976 . S
O258 C252 1.287 . S
O259 Fe245 1.996 . S
O259 C252 1.255 . S
C260 O253 1.287 . S
C260 O254 1.255 1_545 S
O261 Fe243 2.002 . S
O261 C257 1.295 . S
O262 Fe245 1.997 . S
O262 C257 1.235 . S
C263 O246 1.295 . S
C263 O247 1.235 . S
Fe264 O266 1.918 . S
Fe264 O269 1.997 . S
Fe264 O270 2.002 . S
Fe264 O275 1.976 . S
Fe264 O278 1.996 . S
Fe265 O266 1.918 . S
Fe265 O273 1.997 . S
Fe265 O276 1.996 . S
Fe265 O280 1.976 . S
Fe265 O283 2.002 . S
O266 Fe264 1.918 . S
O266 Fe265 1.918 . S
O266 Fe267 1.918 . S
Fe267 O266 1.918 . S
Fe267 O268 2.002 . S
Fe267 O277 1.976 . S
Fe267 O281 1.996 . S
Fe267 O284 1.997 . S
O268 Fe267 2.002 . S
O268 C285 1.295 . S
O269 Fe264 1.997 . S
O269 C285 1.235 . S
O270 Fe264 2.002 . S
O270 C271 1.295 . S
C271 O270 1.295 . S
C271 O273 1.235 . S
C272 O277 1.287 . S
C272 O278 1.255 . S
O273 Fe265 1.997 . S
O273 C271 1.235 . S
C274 O280 1.287 . S
C274 O281 1.255 . S
O275 Fe264 1.976 . S
O275 C282 1.287 . S
O276 Fe265 1.996 . S
O276 C282 1.255 . S
O277 Fe267 1.976 . S
O277 C272 1.287 . S
O278 Fe264 1.996 . S
O278 C272 1.255 . S
C279 O283 1.295 . S
C279 O284 1.235 . S
O280 Fe265 1.976 . S
O280 C274 1.287 . S
O281 Fe267 1.996 . S
O281 C274 1.255 . S
C282 O275 1.287 . S
C282 O276 1.255 . S
O283 Fe265 2.002 . S
O283 C279 1.295 . S
O284 Fe267 1.997 . S
O284 C279 1.235 . S
C285 O268 1.295 . S
C285 O269 1.235 . S
Fe286 O288 1.918 . S
Fe286 O291 1.997 1_655 S
Fe286 O292 2.002 . S
Fe286 O297 1.976 1_565 S
Fe286 O300 1.996 . S
Fe287 O288 1.918 . S
Fe287 O295 1.997 . S
Fe287 O298 1.996 . S
Fe287 O302 1.976 . S
Fe287 O305 2.002 . S
O288 Fe286 1.918 . S
O288 Fe287 1.918 . S
O288 Fe289 1.918 . S
Fe289 O288 1.918 . S
Fe289 O290 2.002 . S
Fe289 O299 1.976 . S
Fe289 O303 1.996 . S
Fe289 O306 1.997 . S
O290 Fe289 2.002 . S
O290 C307 1.295 1_655 S
O291 Fe286 1.997 1_455 S
O291 C307 1.235 . S
O292 Fe286 2.002 . S
O292 C293 1.295 . S
C293 O292 1.295 . S
C293 O295 1.235 . S
C294 O299 1.287 . S
C294 O300 1.255 . S
O295 Fe287 1.997 . S
O295 C293 1.235 . S
C296 O302 1.287 . S
C296 O303 1.255 . S
O297 Fe286 1.976 1_545 S
O297 C304 1.287 . S
O298 Fe287 1.996 . S
O298 C304 1.255 1_565 S
O299 Fe289 1.976 . S
O299 C294 1.287 . S
O300 Fe286 1.996 . S
O300 C294 1.255 . S
C301 O305 1.295 . S
C301 O306 1.235 . S
O302 Fe287 1.976 . S
O302 C296 1.287 . S
O303 Fe289 1.996 . S
O303 C296 1.255 . S
C304 O297 1.287 . S
C304 O298 1.255 1_545 S
O305 Fe287 2.002 . S
O305 C301 1.295 . S
O306 Fe289 1.997 . S
O306 C301 1.235 . S
C307 O290 1.295 1_455 S
C307 O291 1.235 . S
Fe308 O310 1.918 . S
Fe308 O313 1.997 . S
Fe308 O314 2.002 . S
Fe308 O319 1.976 . S
Fe308 O322 1.996 1_554 S
Fe309 O310 1.918 . S
Fe309 O317 1.997 . S
Fe309 O320 1.996 . S
Fe309 O324 1.976 . S
Fe309 O327 2.002 . S
O310 Fe308 1.918 . S
O310 Fe309 1.918 . S
O310 Fe311 1.918 1_554 S
Fe311 O310 1.918 1_556 S
Fe311 O312 2.002 1_556 S
Fe311 O321 1.976 . S
Fe311 O325 1.996 . S
Fe311 O328 1.997 1_556 S
O312 Fe311 2.002 1_554 S
O312 C329 1.295 . S
O313 Fe308 1.997 . S
O313 C329 1.235 . S
O314 Fe308 2.002 . S
O314 C315 1.295 . S
C315 O314 1.295 . S
C315 O317 1.235 . S
C316 O321 1.287 . S
C316 O322 1.255 . S
O317 Fe309 1.997 . S
O317 C315 1.235 . S
C318 O324 1.287 1_556 S
C318 O325 1.255 . S
O319 Fe308 1.976 . S
O319 C326 1.287 . S
O320 Fe309 1.996 . S
O320 C326 1.255 . S
O321 Fe311 1.976 . S
O321 C316 1.287 . S
O322 Fe308 1.996 1_556 S
O322 C316 1.255 . S
C323 O327 1.295 . S
C323 O328 1.235 . S
O324 Fe309 1.976 . S
O324 C318 1.287 1_554 S
O325 Fe311 1.996 . S
O325 C318 1.255 . S
C326 O319 1.287 . S
C326 O320 1.255 . S
O327 Fe309 2.002 . S
O327 C323 1.295 . S
O328 Fe311 1.997 1_554 S
O328 C323 1.235 . S
C329 O312 1.295 . S
C329 O313 1.235 . S
Fe330 O332 1.918 . S
Fe330 O335 1.997 . S
Fe330 O336 2.002 . S
Fe330 O341 1.976 1_545 S
Fe330 O344 1.996 . S
Fe331 O332 1.918 . S
Fe331 O339 1.997 . S
Fe331 O342 1.996 . S
Fe331 O346 1.976 . S
Fe331 O349 2.002 . S
O332 Fe330 1.918 . S
O332 Fe331 1.918 . S
O332 Fe333 1.918 . S
Fe333 O332 1.918 . S
Fe333 O334 2.002 . S
Fe333 O343 1.976 . S
Fe333 O347 1.996 . S
Fe333 O350 1.997 . S
O334 Fe333 2.002 . S
O334 C351 1.295 . S
O335 Fe330 1.997 . S
O335 C351 1.235 . S
O336 Fe330 2.002 . S
O336 C337 1.295 . S
C337 O336 1.295 . S
C337 O339 1.235 . S
C338 O343 1.287 . S
C338 O344 1.255 . S
O339 Fe331 1.997 . S
O339 C337 1.235 . S
C340 O346 1.287 . S
C340 O347 1.255 . S
O341 Fe330 1.976 1_565 S
O341 C348 1.287 . S
O342 Fe331 1.996 . S
O342 C348 1.255 1_545 S
O343 Fe333 1.976 . S
O343 C338 1.287 . S
O344 Fe330 1.996 . S
O344 C338 1.255 . S
C345 O349 1.295 . S
C345 O350 1.235 . S
O346 Fe331 1.976 . S
O346 C340 1.287 . S
O347 Fe333 1.996 . S
O347 C340 1.255 . S
C348 O341 1.287 . S
C348 O342 1.255 1_565 S
O349 Fe331 2.002 . S
O349 C345 1.295 . S
O350 Fe333 1.997 . S
O350 C345 1.235 . S
C351 O334 1.295 . S
C351 O335 1.235 . S
C352 C353 1.369 . S
C352 C354 1.419 . S
C352 H356 0.930 . S
C353 C352 1.369 . S
C353 C362 1.429 1_556 S
C354 C352 1.419 . S
C354 C355 1.363 . S
C354 H357 0.929 . S
C355 C354 1.363 . S
C355 C361 1.428 . S
H356 C352 0.930 . S
H357 C354 0.929 . S
S358 N359 1.613 . S
S358 N360 1.610 1_554 S
N359 S358 1.613 . S
N359 C362 1.350 . S
N360 S358 1.610 1_556 S
N360 C361 1.351 . S
C361 C355 1.428 . S
C361 N360 1.351 . S
C361 C362 1.434 1_556 S
C362 C353 1.429 1_554 S
C362 N359 1.350 . S
C362 C361 1.434 1_554 S
C363 C364 1.369 . S
C363 C365 1.419 . S
C363 H367 0.930 . S
C364 C363 1.369 . S
C364 C373 1.429 . S
C365 C363 1.419 . S
C365 C366 1.363 . S
C365 H368 0.929 . S
C366 C365 1.363 . S
C366 C372 1.428 . S
H367 C363 0.930 . S
H368 C365 0.929 . S
S369 N370 1.613 . S
S369 N371 1.610 . S
N370 S369 1.613 . S
N370 C373 1.350 . S
N371 S369 1.610 . S
N371 C372 1.351 . S
C372 C366 1.428 . S
C372 N371 1.351 . S
C372 C373 1.434 . S
C373 C364 1.429 . S
C373 N370 1.350 . S
C373 C372 1.434 . S
C374 C375 1.369 . S
C374 C376 1.419 . S
C374 H378 0.930 . S
C375 C374 1.369 . S
C375 C384 1.429 . S
C376 C374 1.419 . S
C376 C377 1.363 . S
C376 H379 0.929 . S
C377 C376 1.363 . S
C377 C383 1.428 . S
H378 C374 0.930 . S
H379 C376 0.929 . S
S380 N381 1.613 . S
S380 N382 1.610 . S
N381 S380 1.613 . S
N381 C384 1.350 . S
N382 S380 1.610 . S
N382 C383 1.351 . S
C383 C377 1.428 . S
C383 N382 1.351 . S
C383 C384 1.434 . S
C384 C375 1.429 . S
C384 N381 1.350 . S
C384 C383 1.434 . S
C385 C386 1.369 . S
C385 C387 1.419 . S
C385 H389 0.930 . S
C386 C385 1.369 . S
C386 C395 1.429 . S
C387 C385 1.419 . S
C387 C388 1.363 . S
C387 H390 0.929 . S
C388 C387 1.363 . S
C388 C394 1.428 . S
H389 C385 0.930 . S
H390 C387 0.929 . S
S391 N392 1.613 . S
S391 N393 1.610 . S
N392 S391 1.613 . S
N392 C395 1.350 . S
N393 S391 1.610 . S
N393 C394 1.351 . S
C394 C388 1.428 . S
C394 N393 1.351 . S
C394 C395 1.434 . S
C395 C386 1.429 . S
C395 N392 1.350 . S
C395 C394 1.434 . S
C396 C397 1.369 . S
C396 C398 1.419 . S
C396 H400 0.930 . S
C397 C396 1.369 . S
C397 C406 1.429 . S
C398 C396 1.419 . S
C398 C399 1.363 . S
C398 H401 0.929 . S
C399 C398 1.363 . S
C399 C405 1.428 . S
H400 C396 0.930 . S
H401 C398 0.929 . S
S402 N403 1.613 . S
S402 N404 1.610 . S
N403 S402 1.613 . S
N403 C406 1.350 . S
N404 S402 1.610 . S
N404 C405 1.351 . S
C405 C399 1.428 . S
C405 N404 1.351 . S
C405 C406 1.434 . S
C406 C397 1.429 . S
C406 N403 1.350 . S
C406 C405 1.434 . S
C407 C408 1.369 . S
C407 C409 1.419 . S
C407 H411 0.930 . S
C408 C407 1.369 . S
C408 C417 1.429 . S
C409 C407 1.419 . S
C409 C410 1.363 . S
C409 H412 0.929 . S
C410 C409 1.363 . S
C410 C416 1.428 . S
H411 C407 0.930 . S
H412 C409 0.929 . S
S413 N414 1.613 1_554 S
S413 N415 1.610 . S
N414 S413 1.613 1_556 S
N414 C417 1.350 . S
N415 S413 1.610 . S
N415 C416 1.351 1_554 S
C416 C410 1.428 . S
C416 N415 1.351 1_556 S
C416 C417 1.434 . S
C417 C408 1.429 . S
C417 N414 1.350 . S
C417 C416 1.434 . S
C418 C419 1.369 . S
C418 C420 1.419 . S
C418 H422 0.930 . S
C419 C418 1.369 . S
C419 C428 1.429 . S
C420 C418 1.419 . S
C420 C421 1.363 . S
C420 H423 0.929 . S
C421 C420 1.363 . S
C421 C427 1.428 . S
H422 C418 0.930 . S
H423 C420 0.929 . S
S424 N425 1.613 . S
S424 N426 1.610 . S
N425 S424 1.613 . S
N425 C428 1.350 . S
N426 S424 1.610 . S
N426 C427 1.351 . S
C427 C421 1.428 . S
C427 N426 1.351 . S
C427 C428 1.434 . S
C428 C419 1.429 . S
C428 N425 1.350 . S
C428 C427 1.434 . S
C429 C430 1.369 . S
C429 C431 1.419 . S
C429 H433 0.930 . S
C430 C429 1.369 . S
C430 C439 1.429 . S
C431 C429 1.419 . S
C431 C432 1.363 . S
C431 H434 0.929 . S
C432 C431 1.363 . S
C432 C438 1.428 . S
H433 C429 0.930 . S
H434 C431 0.929 . S
S435 N436 1.613 . S
S435 N437 1.610 . S
N436 S435 1.613 . S
N436 C439 1.350 . S
N437 S435 1.610 . S
N437 C438 1.351 . S
C438 C432 1.428 . S
C438 N437 1.351 . S
C438 C439 1.434 . S
C439 C430 1.429 . S
C439 N436 1.350 . S
C439 C438 1.434 . S
C440 C441 1.369 . S
C440 C442 1.419 . S
C440 H444 0.930 . S
C441 C440 1.369 . S
C441 C450 1.429 . S
C442 C440 1.419 . S
C442 C443 1.363 . S
C442 H445 0.929 . S
C443 C442 1.363 . S
C443 C449 1.428 . S
H444 C440 0.930 . S
H445 C442 0.929 . S
S446 N447 1.613 . S
S446 N448 1.610 . S
N447 S446 1.613 . S
N447 C450 1.350 . S
N448 S446 1.610 . S
N448 C449 1.351 . S
C449 C443 1.428 . S
C449 N448 1.351 . S
C449 C450 1.434 . S
C450 C441 1.429 . S
C450 N447 1.350 . S
C450 C449 1.434 . S
C451 C452 1.369 . S
C451 C453 1.419 . S
C451 H455 0.930 . S
C452 C451 1.369 . S
C452 C461 1.429 . S
C453 C451 1.419 . S
C453 C454 1.363 . S
C453 H456 0.929 . S
C454 C453 1.363 . S
C454 C460 1.428 . S
H455 C451 0.930 . S
H456 C453 0.929 . S
S457 N458 1.613 . S
S457 N459 1.610 . S
N458 S457 1.613 . S
N458 C461 1.350 . S
N459 S457 1.610 . S
N459 C460 1.351 . S
C460 C454 1.428 . S
C460 N459 1.351 . S
C460 C461 1.434 . S
C461 C452 1.429 . S
C461 N458 1.350 . S
C461 C460 1.434 . S
C462 C463 1.369 . S
C462 C464 1.419 . S
C462 H466 0.930 . S
C463 C462 1.369 . S
C463 C472 1.429 . S
C464 C462 1.419 . S
C464 C465 1.363 . S
C464 H467 0.929 1_556 S
C465 C464 1.363 . S
C465 C471 1.428 . S
H466 C462 0.930 . S
H467 C464 0.929 1_554 S
S468 N469 1.613 . S
S468 N470 1.610 . S
N469 S468 1.613 . S
N469 C472 1.350 . S
N470 S468 1.610 . S
N470 C471 1.351 . S
C471 C465 1.428 . S
C471 N470 1.351 . S
C471 C472 1.434 . S
C472 C463 1.429 . S
C472 N469 1.350 . S
C472 C471 1.434 . S
C473 C474 1.369 . S
C473 C475 1.419 . S
C473 H477 0.930 . S
C474 C473 1.369 . S
C474 C483 1.429 . S
C475 C473 1.419 . S
C475 C476 1.363 . S
C475 H478 0.929 . S
C476 C475 1.363 . S
C476 C482 1.428 . S
H477 C473 0.930 . S
H478 C475 0.929 . S
S479 N480 1.613 . S
S479 N481 1.610 . S
N480 S479 1.613 . S
N480 C483 1.350 . S
N481 S479 1.610 . S
N481 C482 1.351 . S
C482 C476 1.428 . S
C482 N481 1.351 . S
C482 C483 1.434 . S
C483 C474 1.429 . S
C483 N480 1.350 . S
C483 C482 1.434 . S
C484 C485 1.369 . S
C484 C486 1.419 . S
C484 H488 0.930 . S
C485 C484 1.369 . S
C485 C494 1.429 . S
C486 C484 1.419 . S
C486 C487 1.363 . S
C486 H489 0.929 . S
C487 C486 1.363 . S
C487 C493 1.428 . S
H488 C484 0.930 . S
H489 C486 0.929 . S
S490 N491 1.613 . S
S490 N492 1.610 . S
N491 S490 1.613 . S
N491 C494 1.350 . S
N492 S490 1.610 . S
N492 C493 1.351 . S
C493 C487 1.428 . S
C493 N492 1.351 . S
C493 C494 1.434 . S
C494 C485 1.429 . S
C494 N491 1.350 . S
C494 C493 1.434 . S
C495 C496 1.369 . S
C495 C497 1.419 . S
C495 H499 0.930 . S
C496 C495 1.369 . S
C496 C505 1.429 . S
C497 C495 1.419 . S
C497 C498 1.363 . S
C497 H500 0.929 . S
C498 C497 1.363 . S
C498 C504 1.428 . S
H499 C495 0.930 . S
H500 C497 0.929 . S
S501 N502 1.613 . S
S501 N503 1.610 . S
N502 S501 1.613 . S
N502 C505 1.350 . S
N503 S501 1.610 . S
N503 C504 1.351 . S
C504 C498 1.428 . S
C504 N503 1.351 . S
C504 C505 1.434 . S
C505 C496 1.429 . S
C505 N502 1.350 . S
C505 C504 1.434 . S
C506 C507 1.369 . S
C506 C508 1.419 . S
C506 H510 0.930 . S
C507 C506 1.369 . S
C507 C516 1.429 . S
C508 C506 1.419 . S
C508 C509 1.363 . S
C508 H511 0.929 . S
C509 C508 1.363 . S
C509 C515 1.428 . S
H510 C506 0.930 . S
H511 C508 0.929 . S
S512 N513 1.613 . S
S512 N514 1.610 . S
N513 S512 1.613 . S
N513 C516 1.350 . S
N514 S512 1.610 . S
N514 C515 1.351 . S
C515 C509 1.428 . S
C515 N514 1.351 . S
C515 C516 1.434 . S
C516 C507 1.429 . S
C516 N513 1.350 . S
C516 C515 1.434 . S
C517 C518 1.369 . S
C517 C519 1.419 . S
C517 H521 0.930 . S
C518 C517 1.369 . S
C518 C527 1.429 . S
C519 C517 1.419 . S
C519 C520 1.363 . S
C519 H522 0.929 . S
C520 C519 1.363 . S
C520 C526 1.428 . S
H521 C517 0.930 . S
H522 C519 0.929 . S
S523 N524 1.613 . S
S523 N525 1.610 . S
N524 S523 1.613 . S
N524 C527 1.350 . S
N525 S523 1.610 . S
N525 C526 1.351 . S
C526 C520 1.428 . S
C526 N525 1.351 . S
C526 C527 1.434 . S
C527 C518 1.429 . S
C527 N524 1.350 . S
C527 C526 1.434 . S
C528 C529 1.369 . S
C528 C530 1.419 . S
C528 H532 0.930 . S
C529 C528 1.369 . S
C529 C538 1.429 . S
C530 C528 1.419 . S
C530 C531 1.363 . S
C530 H533 0.929 . S
C531 C530 1.363 . S
C531 C537 1.428 . S
H532 C528 0.930 . S
H533 C530 0.929 . S
S534 N535 1.613 . S
S534 N536 1.610 . S
N535 S534 1.613 . S
N535 C538 1.350 . S
N536 S534 1.610 . S
N536 C537 1.351 . S
C537 C531 1.428 . S
C537 N536 1.351 . S
C537 C538 1.434 . S
C538 C529 1.429 . S
C538 N535 1.350 . S
C538 C537 1.434 . S
C539 C540 1.369 . S
C539 C541 1.419 . S
C539 H543 0.930 . S
C540 C539 1.369 . S
C540 C549 1.429 . S
C541 C539 1.419 . S
C541 C542 1.363 . S
C541 H544 0.929 . S
C542 C541 1.363 . S
C542 C548 1.428 . S
H543 C539 0.930 . S
H544 C541 0.929 . S
S545 N546 1.613 . S
S545 N547 1.610 . S
N546 S545 1.613 . S
N546 C549 1.350 . S
N547 S545 1.610 . S
N547 C548 1.351 . S
C548 C542 1.428 . S
C548 N547 1.351 . S
C548 C549 1.434 . S
C549 C540 1.429 . S
C549 N546 1.350 . S
C549 C548 1.434 . S
C550 C551 1.369 . S
C550 C552 1.419 . S
C550 H554 0.930 . S
C551 C550 1.369 . S
C551 C560 1.429 . S
C552 C550 1.419 . S
C552 C553 1.363 . S
C552 H555 0.929 . S
C553 C552 1.363 . S
C553 C559 1.428 . S
H554 C550 0.930 . S
H555 C552 0.929 . S
S556 N557 1.613 . S
S556 N558 1.610 . S
N557 S556 1.613 . S
N557 C560 1.350 . S
N558 S556 1.610 . S
N558 C559 1.351 . S
C559 C553 1.428 . S
C559 N558 1.351 . S
C559 C560 1.434 . S
C560 C551 1.429 . S
C560 N557 1.350 . S
C560 C559 1.434 . S
C561 C562 1.369 . S
C561 C563 1.419 . S
C561 H565 0.930 . S
C562 C561 1.369 . S
C562 C571 1.429 . S
C563 C561 1.419 . S
C563 C564 1.363 . S
C563 H566 0.929 . S
C564 C563 1.363 . S
C564 C570 1.428 . S
H565 C561 0.930 . S
H566 C563 0.929 . S
S567 N568 1.613 . S
S567 N569 1.610 . S
N568 S567 1.613 . S
N568 C571 1.350 . S
N569 S567 1.610 . S
N569 C570 1.351 . S
C570 C564 1.428 . S
C570 N569 1.351 . S
C570 C571 1.434 . S
C571 C562 1.429 . S
C571 N568 1.350 . S
C571 C570 1.434 . S
C572 C573 1.369 . S
C572 C574 1.419 . S
C572 H576 0.930 . S
C573 C572 1.369 . S
C573 C582 1.429 . S
C574 C572 1.419 . S
C574 C575 1.363 . S
C574 H577 0.929 . S
C575 C574 1.363 . S
C575 C581 1.428 . S
H576 C572 0.930 . S
H577 C574 0.929 . S
S578 N579 1.613 . S
S578 N580 1.610 . S
N579 S578 1.613 . S
N579 C582 1.350 . S
N580 S578 1.610 . S
N580 C581 1.351 . S
C581 C575 1.428 . S
C581 N580 1.351 . S
C581 C582 1.434 . S
C582 C573 1.429 . S
C582 N579 1.350 . S
C582 C581 1.434 . S
C583 C584 1.369 . S
C583 C585 1.419 . S
C583 H587 0.930 . S
C584 C583 1.369 . S
C584 C593 1.429 . S
C585 C583 1.419 . S
C585 C586 1.363 . S
C585 H588 0.929 . S
C586 C585 1.363 . S
C586 C592 1.428 . S
H587 C583 0.930 . S
H588 C585 0.929 . S
S589 N590 1.613 . S
S589 N591 1.610 1_554 S
N590 S589 1.613 . S
N590 C593 1.350 1_554 S
N591 S589 1.610 1_556 S
N591 C592 1.351 . S
C592 C586 1.428 . S
C592 N591 1.351 . S
C592 C593 1.434 . S
C593 C584 1.429 . S
C593 N590 1.350 1_556 S
C593 C592 1.434 . S
C594 C595 1.369 . S
C594 C596 1.419 . S
C594 H598 0.930 . S
C595 C594 1.369 . S
C595 C604 1.429 . S
C596 C594 1.419 . S
C596 C597 1.363 . S
C596 H599 0.929 . S
C597 C596 1.363 . S
C597 C603 1.428 . S
H598 C594 0.930 . S
H599 C596 0.929 . S
S600 N601 1.613 . S
S600 N602 1.610 . S
N601 S600 1.613 . S
N601 C604 1.350 . S
N602 S600 1.610 . S
N602 C603 1.351 . S
C603 C597 1.428 . S
C603 N602 1.351 . S
C603 C604 1.434 . S
C604 C595 1.429 . S
C604 N601 1.350 . S
C604 C603 1.434 . S
C605 C606 1.369 . S
C605 C607 1.419 . S
C605 H609 0.930 . S
C606 C605 1.369 . S
C606 C615 1.429 . S
C607 C605 1.419 . S
C607 C608 1.363 . S
C607 H610 0.929 . S
C608 C607 1.363 . S
C608 C614 1.428 . S
H609 C605 0.930 . S
H610 C607 0.929 . S
S611 N612 1.613 . S
S611 N613 1.610 . S
N612 S611 1.613 . S
N612 C615 1.350 . S
N613 S611 1.610 . S
N613 C614 1.351 . S
C614 C608 1.428 . S
C614 N613 1.351 . S
C614 C615 1.434 . S
C615 C606 1.429 . S
C615 N612 1.350 . S
C615 C614 1.434 . S
C616 C617 1.369 . S
C616 C618 1.419 . S
C616 H620 0.930 . S
C617 C616 1.369 . S
C617 C626 1.429 . S
C618 C616 1.419 . S
C618 C619 1.363 . S
C618 H621 0.929 . S
C619 C618 1.363 . S
C619 C625 1.428 . S
H620 C616 0.930 . S
H621 C618 0.929 . S
S622 N623 1.613 . S
S622 N624 1.610 . S
N623 S622 1.613 . S
N623 C626 1.350 . S
N624 S622 1.610 . S
N624 C625 1.351 . S
C625 C619 1.428 . S
C625 N624 1.351 . S
C625 C626 1.434 . S
C626 C617 1.429 . S
C626 N623 1.350 . S
C626 C625 1.434 . S
C627 C628 1.369 . S
C627 C629 1.419 . S
C627 H631 0.930 . S
C628 C627 1.369 . S
C628 C637 1.429 . S
C629 C627 1.419 . S
C629 C630 1.363 . S
C629 H632 0.929 . S
C630 C629 1.363 . S
C630 C636 1.428 . S
H631 C627 0.930 . S
H632 C629 0.929 . S
S633 N634 1.613 . S
S633 N635 1.610 . S
N634 S633 1.613 . S
N634 C637 1.350 . S
N635 S633 1.610 . S
N635 C636 1.351 . S
C636 C630 1.428 . S
C636 N635 1.351 . S
C636 C637 1.434 . S
C637 C628 1.429 . S
C637 N634 1.350 . S
C637 C636 1.434 . S
C638 C639 1.369 . S
C638 C640 1.419 . S
C638 H642 0.930 . S
C639 C638 1.369 . S
C639 C648 1.429 . S
C640 C638 1.419 . S
C640 C641 1.363 . S
C640 H643 0.929 . S
C641 C640 1.363 . S
C641 C647 1.428 . S
H642 C638 0.930 . S
H643 C640 0.929 . S
S644 N645 1.613 . S
S644 N646 1.610 1_554 S
N645 S644 1.613 . S
N645 C648 1.350 1_554 S
N646 S644 1.610 1_556 S
N646 C647 1.351 . S
C647 C641 1.428 . S
C647 N646 1.351 . S
C647 C648 1.434 . S
C648 C639 1.429 . S
C648 N645 1.350 1_556 S
C648 C647 1.434 . S
C649 C650 1.369 . S
C649 C651 1.419 . S
C649 H653 0.930 . S
C650 C649 1.369 . S
C650 C659 1.429 . S
C651 C649 1.419 . S
C651 C652 1.363 . S
C651 H654 0.929 . S
C652 C651 1.363 . S
C652 C658 1.428 . S
H653 C649 0.930 . S
H654 C651 0.929 . S
S655 N656 1.613 . S
S655 N657 1.610 . S
N656 S655 1.613 . S
N656 C659 1.350 . S
N657 S655 1.610 . S
N657 C658 1.351 . S
C658 C652 1.428 . S
C658 N657 1.351 . S
C658 C659 1.434 . S
C659 C650 1.429 . S
C659 N656 1.350 . S
C659 C658 1.434 . S
C660 C661 1.369 . S
C660 C662 1.419 . S
C660 H664 0.930 . S
C661 C660 1.369 . S
C661 C670 1.429 . S
C662 C660 1.419 . S
C662 C663 1.363 . S
C662 H665 0.929 . S
C663 C662 1.363 . S
C663 C669 1.428 . S
H664 C660 0.930 . S
H665 C662 0.929 . S
S666 N667 1.613 . S
S666 N668 1.610 . S
N667 S666 1.613 . S
N667 C670 1.350 . S
N668 S666 1.610 . S
N668 C669 1.351 . S
C669 C663 1.428 . S
C669 N668 1.351 . S
C669 C670 1.434 . S
C670 C661 1.429 . S
C670 N667 1.350 . S
C670 C669 1.434 . S
C671 C672 1.369 . S
C671 C673 1.419 . S
C671 H675 0.930 . S
C672 C671 1.369 . S
C672 C681 1.429 . S
C673 C671 1.419 . S
C673 C674 1.363 . S
C673 H676 0.929 . S
C674 C673 1.363 . S
C674 C680 1.428 . S
H675 C671 0.930 . S
H676 C673 0.929 . S
S677 N678 1.613 . S
S677 N679 1.610 . S
N678 S677 1.613 . S
N678 C681 1.350 . S
N679 S677 1.610 . S
N679 C680 1.351 . S
C680 C674 1.428 . S
C680 N679 1.351 . S
C680 C681 1.434 . S
C681 C672 1.429 . S
C681 N678 1.350 . S
C681 C680 1.434 . S
C682 C683 1.369 . S
C682 C684 1.419 . S
C682 H686 0.930 . S
C683 C682 1.369 . S
C683 C692 1.429 . S
C684 C682 1.419 . S
C684 C685 1.363 . S
C684 H687 0.929 . S
C685 C684 1.363 . S
C685 C691 1.428 . S
H686 C682 0.930 . S
H687 C684 0.929 . S
S688 N689 1.613 . S
S688 N690 1.610 . S
N689 S688 1.613 . S
N689 C692 1.350 . S
N690 S688 1.610 . S
N690 C691 1.351 . S
C691 C685 1.428 . S
C691 N690 1.351 . S
C691 C692 1.434 . S
C692 C683 1.429 . S
C692 N689 1.350 . S
C692 C691 1.434 . S
C693 C694 1.369 . S
C693 C695 1.419 . S
C693 H697 0.930 . S
C694 C693 1.369 . S
C694 C703 1.429 . S
C695 C693 1.419 . S
C695 C696 1.363 . S
C695 H698 0.929 . S
C696 C695 1.363 . S
C696 C702 1.428 . S
H697 C693 0.930 . S
H698 C695 0.929 . S
S699 N700 1.613 . S
S699 N701 1.610 1_556 S
N700 S699 1.613 . S
N700 C703 1.350 . S
N701 S699 1.610 1_554 S
N701 C702 1.351 1_554 S
C702 C696 1.428 . S
C702 N701 1.351 1_556 S
C702 C703 1.434 . S
C703 C694 1.429 . S
C703 N700 1.350 . S
C703 C702 1.434 . S
C704 C705 1.369 . S
C704 C706 1.419 . S
C704 H708 0.930 . S
C705 C704 1.369 . S
C705 C714 1.429 . S
C706 C704 1.419 . S
C706 C707 1.363 . S
C706 H709 0.929 . S
C707 C706 1.363 . S
C707 C713 1.428 . S
H708 C704 0.930 . S
H709 C706 0.929 . S
S710 N711 1.613 . S
S710 N712 1.610 . S
N711 S710 1.613 . S
N711 C714 1.350 . S
N712 S710 1.610 . S
N712 C713 1.351 . S
C713 C707 1.428 . S
C713 N712 1.351 . S
C713 C714 1.434 . S
C714 C705 1.429 . S
C714 N711 1.350 . S
C714 C713 1.434 . S
C715 C716 1.369 . S
C715 C717 1.419 . S
C715 H719 0.930 . S
C716 C715 1.369 . S
C716 C725 1.429 . S
C717 C715 1.419 . S
C717 C718 1.363 . S
C717 H720 0.929 . S
C718 C717 1.363 . S
C718 C724 1.428 . S
H719 C715 0.930 . S
H720 C717 0.929 . S
S721 N722 1.613 . S
S721 N723 1.610 . S
N722 S721 1.613 . S
N722 C725 1.350 . S
N723 S721 1.610 . S
N723 C724 1.351 . S
C724 C718 1.428 . S
C724 N723 1.351 . S
C724 C725 1.434 . S
C725 C716 1.429 . S
C725 N722 1.350 . S
C725 C724 1.434 . S
C726 C727 1.369 . S
C726 C728 1.419 . S
C726 H730 0.930 . S
C727 C726 1.369 . S
C727 C736 1.429 . S
C728 C726 1.419 . S
C728 C729 1.363 . S
C728 H731 0.929 . S
C729 C728 1.363 . S
C729 C735 1.428 . S
H730 C726 0.930 . S
H731 C728 0.929 . S
S732 N733 1.613 . S
S732 N734 1.610 . S
N733 S732 1.613 . S
N733 C736 1.350 . S
N734 S732 1.610 . S
N734 C735 1.351 . S
C735 C729 1.428 . S
C735 N734 1.351 . S
C735 C736 1.434 . S
C736 C727 1.429 . S
C736 N733 1.350 . S
C736 C735 1.434 . S
C737 C738 1.369 . S
C737 C739 1.419 1_554 S
C737 H741 0.930 . S
C738 C737 1.369 . S
C738 C747 1.429 1_455 S
C739 C737 1.419 1_556 S
C739 C740 1.363 1_455 S
C739 H742 0.929 . S
C740 C739 1.363 1_655 S
C740 C746 1.428 1_556 S
H741 C737 0.930 . S
H742 C739 0.929 . S
S743 N744 1.613 . S
S743 N745 1.610 . S
N744 S743 1.613 . S
N744 C747 1.350 . S
N745 S743 1.610 . S
N745 C746 1.351 . S
C746 C740 1.428 1_554 S
C746 N745 1.351 . S
C746 C747 1.434 . S
C747 C738 1.429 1_655 S
C747 N744 1.350 . S
C747 C746 1.434 . S
C748 C749 1.369 . S
C748 C750 1.419 . S
C748 H752 0.930 . S
C749 C748 1.369 . S
C749 C758 1.429 . S
C750 C748 1.419 . S
C750 C751 1.363 . S
C750 H753 0.929 . S
C751 C750 1.363 . S
C751 C757 1.428 . S
H752 C748 0.930 . S
H753 C750 0.929 . S
S754 N755 1.613 . S
S754 N756 1.610 . S
N755 S754 1.613 . S
N755 C758 1.350 . S
N756 S754 1.610 . S
N756 C757 1.351 . S
C757 C751 1.428 . S
C757 N756 1.351 . S
C757 C758 1.434 . S
C758 C749 1.429 . S
C758 N755 1.350 . S
C758 C757 1.434 . S
C759 C760 1.369 . S
C759 C761 1.419 . S
C759 H763 0.930 . S
C760 C759 1.369 . S
C760 C769 1.429 . S
C761 C759 1.419 . S
C761 C762 1.363 . S
C761 H764 0.929 . S
C762 C761 1.363 . S
C762 C768 1.428 . S
H763 C759 0.930 . S
H764 C761 0.929 . S
S765 N766 1.613 . S
S765 N767 1.610 . S
N766 S765 1.613 . S
N766 C769 1.350 . S
N767 S765 1.610 . S
N767 C768 1.351 . S
C768 C762 1.428 . S
C768 N767 1.351 . S
C768 C769 1.434 . S
C769 C760 1.429 . S
C769 N766 1.350 . S
C769 C768 1.434 . S
C770 C771 1.369 1_655 S
C770 C772 1.419 1_546 S
C770 H774 0.930 . S
C771 C770 1.369 1_455 S
C771 C780 1.429 1_556 S
C772 C770 1.419 1_564 S
C772 C773 1.363 . S
C772 H775 0.929 . S
C773 C772 1.363 . S
C773 C779 1.428 1_655 S
H774 C770 0.930 . S
H775 C772 0.929 . S
S776 N777 1.613 . S
S776 N778 1.610 1_545 S
N777 S776 1.613 . S
N777 C780 1.350 . S
N778 S776 1.610 1_565 S
N778 C779 1.351 . S
C779 C773 1.428 1_455 S
C779 N778 1.351 . S
C779 C780 1.434 1_565 S
C780 C771 1.429 1_554 S
C780 N777 1.350 . S
C780 C779 1.434 1_545 S
C781 C782 1.369 . S
C781 C783 1.419 1_545 S
C781 H785 0.930 . S
C782 C781 1.369 . S
C782 C791 1.429 . S
C783 C781 1.419 1_565 S
C783 C784 1.363 . S
C783 H786 0.929 . S
C784 C783 1.363 . S
C784 C790 1.428 . S
H785 C781 0.930 . S
H786 C783 0.929 . S
S787 N788 1.613 1_565 S
S787 N789 1.610 . S
N788 S787 1.613 1_545 S
N788 C791 1.350 . S
N789 S787 1.610 . S
N789 C790 1.351 . S
C790 C784 1.428 . S
C790 N789 1.351 . S
C790 C791 1.434 1_565 S
C791 C782 1.429 . S
C791 N788 1.350 . S
C791 C790 1.434 1_545 S
C792 C793 1.369 . S
C792 C794 1.419 . S
C792 H796 0.930 . S
C793 C792 1.369 . S
C793 C802 1.429 . S
C794 C792 1.419 . S
C794 C795 1.363 . S
C794 H797 0.929 . S
C795 C794 1.363 . S
C795 C801 1.428 . S
H796 C792 0.930 . S
H797 C794 0.929 . S
S798 N799 1.613 . S
S798 N800 1.610 . S
N799 S798 1.613 . S
N799 C802 1.350 . S
N800 S798 1.610 . S
N800 C801 1.351 . S
C801 C795 1.428 . S
C801 N800 1.351 . S
C801 C802 1.434 . S
C802 C793 1.429 . S
C802 N799 1.350 . S
C802 C801 1.434 . S
C803 C804 1.369 . S
C803 C805 1.419 . S
C803 H807 0.930 . S
C804 C803 1.369 . S
C804 C813 1.429 1_554 S
C805 C803 1.419 . S
C805 C806 1.363 . S
C805 H808 0.929 . S
C806 C805 1.363 . S
C806 C812 1.428 . S
H807 C803 0.930 . S
H808 C805 0.929 . S
S809 N810 1.613 . S
S809 N811 1.610 . S
N810 S809 1.613 . S
N810 C813 1.350 . S
N811 S809 1.610 . S
N811 C812 1.351 1_556 S
C812 C806 1.428 . S
C812 N811 1.351 1_554 S
C812 C813 1.434 1_554 S
C813 C804 1.429 1_556 S
C813 N810 1.350 . S
C813 C812 1.434 1_556 S
C814 C815 1.369 . S
C814 C816 1.419 . S
C814 H818 0.930 . S
C815 C814 1.369 . S
C815 C824 1.429 . S
C816 C814 1.419 . S
C816 C817 1.363 . S
C816 H819 0.929 . S
C817 C816 1.363 . S
C817 C823 1.428 . S
H818 C814 0.930 . S
H819 C816 0.929 . S
S820 N821 1.613 . S
S820 N822 1.610 . S
N821 S820 1.613 . S
N821 C824 1.350 . S
N822 S820 1.610 . S
N822 C823 1.351 . S
C823 C817 1.428 . S
C823 N822 1.351 . S
C823 C824 1.434 . S
C824 C815 1.429 . S
C824 N821 1.350 . S
C824 C823 1.434 . S
C825 C826 1.369 1_655 S
C825 C827 1.419 . S
C825 H829 0.930 . S
C826 C825 1.369 1_455 S
C826 C835 1.429 . S
C827 C825 1.419 . S
C827 C828 1.363 . S
C827 H830 0.929 . S
C828 C827 1.363 . S
C828 C834 1.428 1_655 S
H829 C825 0.930 . S
H830 C827 0.929 . S
S831 N832 1.613 . S
S831 N833 1.610 . S
N832 S831 1.613 . S
N832 C835 1.350 . S
N833 S831 1.610 . S
N833 C834 1.351 . S
C834 C828 1.428 1_455 S
C834 N833 1.351 . S
C834 C835 1.434 . S
C835 C826 1.429 . S
C835 N832 1.350 . S
C835 C834 1.434 . S
C836 C837 1.369 . S
C836 C838 1.419 . S
C836 H840 0.930 . S
C837 C836 1.369 . S
C837 C846 1.429 . S
C838 C836 1.419 . S
C838 C839 1.363 . S
C838 H841 0.929 . S
C839 C838 1.363 . S
C839 C845 1.428 . S
H840 C836 0.930 . S
H841 C838 0.929 . S
S842 N843 1.613 . S
S842 N844 1.610 . S
N843 S842 1.613 . S
N843 C846 1.350 . S
N844 S842 1.610 . S
N844 C845 1.351 . S
C845 C839 1.428 . S
C845 N844 1.351 . S
C845 C846 1.434 . S
C846 C837 1.429 . S
C846 N843 1.350 . S
C846 C845 1.434 . S
C847 C848 1.369 . S
C847 C849 1.419 . S
C847 H851 0.930 . S
C848 C847 1.369 . S
C848 C857 1.429 . S
C849 C847 1.419 . S
C849 C850 1.363 . S
C849 H852 0.929 . S
C850 C849 1.363 . S
C850 C856 1.428 . S
H851 C847 0.930 . S
H852 C849 0.929 . S
S853 N854 1.613 . S
S853 N855 1.610 . S
N854 S853 1.613 . S
N854 C857 1.350 . S
N855 S853 1.610 . S
N855 C856 1.351 . S
C856 C850 1.428 . S
C856 N855 1.351 . S
C856 C857 1.434 . S
C857 C848 1.429 . S
C857 N854 1.350 . S
C857 C856 1.434 . S
C858 C859 1.369 1_545 S
C858 C860 1.419 1_655 S
C858 H862 0.930 . S
C859 C858 1.369 1_565 S
C859 C868 1.429 . S
C860 C858 1.419 1_455 S
C860 C861 1.363 . S
C860 H863 0.929 . S
C861 C860 1.363 . S
C861 C867 1.428 1_545 S
H862 C858 0.930 . S
H863 C860 0.929 . S
S864 N865 1.613 1_455 S
S864 N866 1.610 . S
N865 S864 1.613 1_655 S
N865 C868 1.350 . S
N866 S864 1.610 . S
N866 C867 1.351 . S
C867 C861 1.428 1_565 S
C867 N866 1.351 . S
C867 C868 1.434 1_455 S
C868 C859 1.429 . S
C868 N865 1.350 . S
C868 C867 1.434 1_655 S
C869 C870 1.369 1_556 S
C869 C871 1.419 1_546 S
C869 H873 0.930 . S
C870 C869 1.369 1_554 S
C870 C879 1.429 . S
C871 C869 1.419 1_564 S
C871 C872 1.363 . S
C871 H874 0.929 1_554 S
C872 C871 1.363 . S
C872 C878 1.428 . S
H873 C869 0.930 . S
H874 C871 0.929 1_556 S
S875 N876 1.613 1_565 S
S875 N877 1.610 . S
N876 S875 1.613 1_545 S
N876 C879 1.350 . S
N877 S875 1.610 . S
N877 C878 1.351 . S
C878 C872 1.428 . S
C878 N877 1.351 . S
C878 C879 1.434 1_565 S
C879 C870 1.429 . S
C879 N876 1.350 . S
C879 C878 1.434 1_545 S
C353 C18 1.554 1_556 S
C355 C208 1.606 . S
C364 C230 1.610 . S
C366 C40 1.550 . S
C375 C252 1.610 . S
C377 C62 1.548 . S
C386 C186 1.605 . S
C388 C84 1.548 . S
C397 C96 1.547 . S
C399 C296 1.609 . S
C408 C120 1.546 . S
C410 C318 1.608 . S
C419 C340 1.601 . S
C421 C150 1.554 . S
C430 C282 1.602 . S
C432 C172 1.556 . S
C441 C32 1.602 . S
C443 C194 1.552 . S
C452 C54 1.602 . S
C454 C216 1.556 . S
C463 C76 1.610 . S
C465 C238 1.545 1_556 S
C474 C260 1.548 . S
C476 C10 1.605 . S
C485 C118 1.607 . S
C487 C272 1.555 . S
C496 C142 1.605 . S
C498 C304 1.548 . S
C507 C164 1.602 . S
C509 C326 1.552 . S
C518 C106 1.602 . S
C520 C348 1.555 . S
C529 C15 1.594 . S
C531 C351 1.619 . S
C540 C37 1.585 . S
C542 C103 1.621 . S
C551 C307 1.620 . S
C553 C59 1.592 . S
C562 C153 1.617 . S
C564 C81 1.593 . S
C573 C95 1.586 . S
C575 C263 1.623 . S
C584 C21 1.621 1_556 S
C586 C131 1.592 . S
C595 C147 1.585 . S
C597 C219 1.623 . S
C606 C169 1.591 . S
C608 C65 1.622 . S
C617 C191 1.593 . S
C619 C175 1.619 . S
C628 C279 1.617 . S
C630 C213 1.592 . S
C639 C235 1.591 . S
C641 C117 1.618 . S
C650 C329 1.624 . S
C652 C257 1.587 . S
C661 C271 1.590 . S
C663 C87 1.618 . S
C672 C197 1.619 . S
C674 C301 1.587 . S
C683 C323 1.589 . S
C685 C43 1.618 . S
C694 C345 1.593 . S
C696 C241 1.618 1_556 S
C705 C8 1.569 . S
C707 C274 1.572 . S
C716 C128 1.569 . S
C718 C30 1.572 . S
C727 C52 1.570 . S
C729 C316 1.572 . S
C738 C162 1.569 . S
C740 C74 1.572 . S
C749 C98 1.572 . S
C751 C184 1.570 . S
C760 C228 1.570 . S
C762 C140 1.572 . S
C771 C206 1.571 . S
C773 C294 1.570 . S
C782 C338 1.569 . S
C784 C250 1.572 . S
C793 C285 1.243 . S
C795 C7 1.229 . S
C804 C125 1.230 1_554 S
C806 C29 1.239 . S
C815 C51 1.241 . S
C817 C315 1.230 . S
C826 C161 1.240 . S
C828 C73 1.231 . S
C837 C109 1.242 . S
C839 C183 1.229 . S
C848 C139 1.242 . S
C850 C227 1.229 . S
C859 C293 1.243 . S
C861 C205 1.229 . S
C870 C337 1.239 1_554 S
C872 C249 1.231 . S
