# Generated by pormake.
# Topology crs, (6)-cn, num edge types: 1
# Building blocks:
#     Node 0, Type 0, BuildingBlock: CUKXOW_clean_sbu_0, # of connection points: 6
#     Node 1, Type 0, BuildingBlock: CUKXOW_clean_sbu_0, # of connection points: 6
#     Node 2, Type 0, BuildingBlock: CUKXOW_clean_sbu_0, # of connection points: 6
#     Node 3, Type 0, BuildingBlock: CUKXOW_clean_sbu_0, # of connection points: 6
#     Node 4, Type 0, BuildingBlock: CUKXOW_clean_sbu_0, # of connection points: 6
#     Node 5, Type 0, BuildingBlock: CUKXOW_clean_sbu_0, # of connection points: 6
#     Node 6, Type 0, BuildingBlock: CUKXOW_clean_sbu_0, # of connection points: 6
#     Node 7, Type 0, BuildingBlock: CUKXOW_clean_sbu_0, # of connection points: 6
#     Node 8, Type 0, BuildingBlock: CUKXOW_clean_sbu_0, # of connection points: 6
#     Node 9, Type 0, BuildingBlock: CUKXOW_clean_sbu_0, # of connection points: 6
#     Node 10, Type 0, BuildingBlock: CUKXOW_clean_sbu_0, # of connection points: 6
#     Node 11, Type 0, BuildingBlock: CUKXOW_clean_sbu_0, # of connection points: 6
#     Node 12, Type 0, BuildingBlock: CUKXOW_clean_sbu_0, # of connection points: 6
#     Node 13, Type 0, BuildingBlock: CUKXOW_clean_sbu_0, # of connection points: 6
#     Node 14, Type 0, BuildingBlock: CUKXOW_clean_sbu_0, # of connection points: 6
#     Node 15, Type 0, BuildingBlock: CUKXOW_clean_sbu_0, # of connection points: 6
#     Edge 16, Type (0, 0), BuildingBlock: UVAHIK_clean_linker_0, # of connection points: 2
#     Edge 17, Type (0, 0), BuildingBlock: UVAHIK_clean_linker_0, # of connection points: 2
#     Edge 18, Type (0, 0), BuildingBlock: UVAHIK_clean_linker_0, # of connection points: 2
#     Edge 19, Type (0, 0), BuildingBlock: UVAHIK_clean_linker_0, # of connection points: 2
#     Edge 20, Type (0, 0), BuildingBlock: UVAHIK_clean_linker_0, # of connection points: 2
#     Edge 21, Type (0, 0), BuildingBlock: UVAHIK_clean_linker_0, # of connection points: 2
#     Edge 22, Type (0, 0), BuildingBlock: UVAHIK_clean_linker_0, # of connection points: 2
#     Edge 23, Type (0, 0), BuildingBlock: UVAHIK_clean_linker_0, # of connection points: 2
#     Edge 24, Type (0, 0), BuildingBlock: UVAHIK_clean_linker_0, # of connection points: 2
#     Edge 25, Type (0, 0), BuildingBlock: UVAHIK_clean_linker_0, # of connection points: 2
#     Edge 26, Type (0, 0), BuildingBlock: UVAHIK_clean_linker_0, # of connection points: 2
#     Edge 27, Type (0, 0), BuildingBlock: UVAHIK_clean_linker_0, # of connection points: 2
#     Edge 28, Type (0, 0), BuildingBlock: UVAHIK_clean_linker_0, # of connection points: 2
#     Edge 29, Type (0, 0), BuildingBlock: UVAHIK_clean_linker_0, # of connection points: 2
#     Edge 30, Type (0, 0), BuildingBlock: UVAHIK_clean_linker_0, # of connection points: 2
#     Edge 31, Type (0, 0), BuildingBlock: UVAHIK_clean_linker_0, # of connection points: 2
#     Edge 32, Type (0, 0), BuildingBlock: UVAHIK_clean_linker_0, # of connection points: 2
#     Edge 33, Type (0, 0), BuildingBlock: UVAHIK_clean_linker_0, # of connection points: 2
#     Edge 34, Type (0, 0), BuildingBlock: UVAHIK_clean_linker_0, # of connection points: 2
#     Edge 35, Type (0, 0), BuildingBlock: UVAHIK_clean_linker_0, # of connection points: 2
#     Edge 36, Type (0, 0), BuildingBlock: UVAHIK_clean_linker_0, # of connection points: 2
#     Edge 37, Type (0, 0), BuildingBlock: UVAHIK_clean_linker_0, # of connection points: 2
#     Edge 38, Type (0, 0), BuildingBlock: UVAHIK_clean_linker_0, # of connection points: 2
#     Edge 39, Type (0, 0), BuildingBlock: UVAHIK_clean_linker_0, # of connection points: 2
#     Edge 40, Type (0, 0), BuildingBlock: UVAHIK_clean_linker_0, # of connection points: 2
#     Edge 41, Type (0, 0), BuildingBlock: UVAHIK_clean_linker_0, # of connection points: 2
#     Edge 42, Type (0, 0), BuildingBlock: UVAHIK_clean_linker_0, # of connection points: 2
#     Edge 43, Type (0, 0), BuildingBlock: UVAHIK_clean_linker_0, # of connection points: 2
#     Edge 44, Type (0, 0), BuildingBlock: UVAHIK_clean_linker_0, # of connection points: 2
#     Edge 45, Type (0, 0), BuildingBlock: UVAHIK_clean_linker_0, # of connection points: 2
#     Edge 46, Type (0, 0), BuildingBlock: UVAHIK_clean_linker_0, # of connection points: 2
#     Edge 47, Type (0, 0), BuildingBlock: UVAHIK_clean_linker_0, # of connection points: 2
#     Edge 48, Type (0, 0), BuildingBlock: UVAHIK_clean_linker_0, # of connection points: 2
#     Edge 49, Type (0, 0), BuildingBlock: UVAHIK_clean_linker_0, # of connection points: 2
#     Edge 50, Type (0, 0), BuildingBlock: UVAHIK_clean_linker_0, # of connection points: 2
#     Edge 51, Type (0, 0), BuildingBlock: UVAHIK_clean_linker_0, # of connection points: 2
#     Edge 52, Type (0, 0), BuildingBlock: UVAHIK_clean_linker_0, # of connection points: 2
#     Edge 53, Type (0, 0), BuildingBlock: UVAHIK_clean_linker_0, # of connection points: 2
#     Edge 54, Type (0, 0), BuildingBlock: UVAHIK_clean_linker_0, # of connection points: 2
#     Edge 55, Type (0, 0), BuildingBlock: UVAHIK_clean_linker_0, # of connection points: 2
#     Edge 56, Type (0, 0), BuildingBlock: UVAHIK_clean_linker_0, # of connection points: 2
#     Edge 57, Type (0, 0), BuildingBlock: UVAHIK_clean_linker_0, # of connection points: 2
#     Edge 58, Type (0, 0), BuildingBlock: UVAHIK_clean_linker_0, # of connection points: 2
#     Edge 59, Type (0, 0), BuildingBlock: UVAHIK_clean_linker_0, # of connection points: 2
#     Edge 60, Type (0, 0), BuildingBlock: UVAHIK_clean_linker_0, # of connection points: 2
#     Edge 61, Type (0, 0), BuildingBlock: UVAHIK_clean_linker_0, # of connection points: 2
#     Edge 62, Type (0, 0), BuildingBlock: UVAHIK_clean_linker_0, # of connection points: 2
#     Edge 63, Type (0, 0), BuildingBlock: UVAHIK_clean_linker_0, # of connection points: 2
# Relax obj value: 0.149
# Max RMSD: 0.216
# Mean RMSD: 0.189
data_MOF--net-crs--node1-CUKXOW_clean_sbu_0--edge1-UVAHIK_clean_linker_0
_symmetry_space_group_name_H-M    P1
_symmetry_Int_Tables_number       1
_symmetry_cell_setting            triclinic
loop_
_symmetry_equiv_pos_as_xyz
'x, y, z'
_cell_length_a     49.286825
_cell_length_b     56.623383
_cell_length_c     59.429214
_cell_angle_alpha  93.728877
_cell_angle_beta   92.551537
_cell_angle_gamma 91.913006
loop_
_atom_site_label
_atom_site_type_symbol
_atom_site_fract_x
_atom_site_fract_y
_atom_site_fract_z
_atom_type_partial_charge
Tb0 Tb 0.00856 0.99394 0.98308 0.0
C1 C 0.03029 0.99858 0.03413 0.0
Tb2 Tb 0.99003 0.03393 0.0145 0.0
O3 O 0.0321 0.01903 0.96458 0.0
O4 O 0.02666 0.02551 -0.00083 0.0
O5 O 0.02463 0.98406 0.01597 0.0
C6 C 0.9806 0.07507 0.0367 0.0
O7 O 0.02248 0.02079 0.03545 0.0
C8 C 0.96231 0.99366 0.0152 0.0
C9 C 0.96904 0.03013 0.96295 0.0
O10 O 0.97045 0.05456 0.04102 0.0
O11 O 0.99612 0.07256 0.01969 0.0
O12 O 0.96588 0.00874 0.03253 0.0
O13 O 0.97197 0.0025 -0.00173 0.0
O14 O 0.97123 0.04328 0.98234 0.0
O15 O 0.9798 0.00905 0.96009 0.0
C16 C 0.01492 0.95133 0.96261 0.0
O17 O 0.99355 0.958 0.97284 0.0
O18 O 0.03291 0.9687 0.96384 0.0
C19 C 0.03581 0.03416 0.98193 0.0
Tb20 Tb 0.9931 0.25654 0.26228 0.0
C21 C 0.05358 0.24338 0.25101 0.0
Tb22 Tb 0.02435 0.28548 0.23055 0.0
O23 O 0.96715 0.2406 0.23415 0.0
O24 O 0.00749 0.25073 0.2294 0.0
O25 O 0.03375 0.24228 0.26538 0.0
C26 C 0.04108 0.30759 0.19519 0.0
O27 O 0.05233 0.25684 0.23354 0.0
C28 C 0.03166 0.29864 0.27341 0.0
C29 C 0.96287 0.2969 0.24033 0.0
O30 O 0.05059 0.31165 0.2158 0.0
O31 O 0.02245 0.29081 0.1944 0.0
O32 O 0.05018 0.30117 0.25885 0.0
O33 O 0.00975 0.29132 0.26331 0.0
O34 O 0.98319 0.29863 0.2265 0.0
O35 O 0.96431 0.28415 0.25825 0.0
C36 C 0.97694 0.23577 0.29856 0.0
O37 O 0.96724 0.23087 0.27809 0.0
O38 O 0.99553 0.25252 0.29862 0.0
C39 C 0.98552 0.24331 0.21947 0.0
Tb40 Tb 0.75435 0.27772 0.48972 0.0
C41 C 0.73541 0.2756 0.53978 0.0
Tb42 Tb 0.77849 0.24061 0.5196 0.0
O43 O 0.73242 0.24999 0.46765 0.0
O44 O 0.74147 0.24493 0.50136 0.0
O45 O 0.73613 0.28777 0.52142 0.0
C46 C 0.78766 0.20295 0.54267 0.0
O47 O 0.7494 0.25616 0.5424 0.0
C48 C 0.80953 0.27856 0.51544 0.0
C49 C 0.79707 0.2431 0.47044 0.0
O50 O 0.77417 0.20266 0.52339 0.0
O51 O 0.79569 0.22452 0.54918 0.0
O52 O 0.819 0.25797 0.5191 0.0
O53 O 0.7841 0.27738 0.5163 0.0
O54 O 0.7916 0.2287 0.48645 0.0
O55 O 0.78764 0.26472 0.47032 0.0
C56 C 0.74363 0.31808 0.47129 0.0
O57 O 0.76747 0.30926 0.47348 0.0
O58 O 0.72555 0.30399 0.47919 0.0
C59 C 0.7322 0.23475 0.4831 0.0
Tb60 Tb 0.75945 0.02301 0.73583 0.0
C61 C 0.76566 0.9698 0.74876 0.0
Tb62 Tb 0.72908 0.00454 0.7755 0.0
O63 O 0.78509 0.04638 0.75904 0.0
O64 O 0.76963 0.01399 0.76901 0.0
O65 O 0.76678 0.98502 0.73268 0.0
C66 C 0.71371 0.99644 0.81683 0.0
O67 O 0.75528 0.97519 0.76859 0.0
C68 C 0.70577 0.99521 0.7355 0.0
C69 C 0.72182 0.0578 0.76195 0.0
O70 O 0.70117 0.98829 0.79812 0.0
O71 O 0.73466 0.00937 0.8122 0.0
O72 O 0.70265 0.98156 0.752 0.0
O73 O 0.71914 0.01365 0.74256 0.0
O74 O 0.71841 0.04188 0.77722 0.0
O75 O 0.73477 0.05334 0.74308 0.0
C76 C 0.77909 0.03126 0.69593 0.0
O77 O 0.79317 0.03203 0.71492 0.0
O78 O 0.75391 0.02593 0.69943 0.0
C79 C 0.78247 0.03291 0.77573 0.0
Tb80 Tb 0.50396 0.752 0.27855 0.0
C81 C 0.56669 0.7417 0.27581 0.0
Tb82 Tb 0.53782 0.77859 0.24724 0.0
O83 O 0.4806 0.73465 0.24975 0.0
O84 O 0.52181 0.74352 0.24721 0.0
O85 O 0.54442 0.73992 0.28744 0.0
C86 C 0.559 0.79658 0.21132 0.0
O87 O 0.56795 0.75393 0.25758 0.0
C88 C 0.54027 0.79618 0.28924 0.0
C89 C 0.47525 0.78962 0.25124 0.0
O90 O 0.55974 0.80689 0.23145 0.0
O91 O 0.54649 0.77608 0.21142 0.0
O92 O 0.56036 0.7972 0.27589 0.0
O93 O 0.51962 0.78718 0.27822 0.0
O94 O 0.4968 0.79035 0.23859 0.0
O95 O 0.4751 0.77815 0.26993 0.0
C96 C 0.48019 0.73379 0.31331 0.0
O97 O 0.47956 0.72427 0.29286 0.0
O98 O 0.49451 0.75351 0.31427 0.0
C99 C 0.50062 0.73537 0.23636 0.0
Tb100 Tb 0.24096 0.7879 0.48914 0.0
C101 C 0.22335 0.78794 0.54041 0.0
Tb102 Tb 0.26112 0.75001 0.51921 0.0
O103 O 0.21408 0.76216 0.46913 0.0
O104 O 0.22372 0.75793 0.50319 0.0
O105 O 0.22435 0.79915 0.52149 0.0
C106 C 0.27011 0.70843 0.53602 0.0
O107 O 0.23492 0.76739 0.543 0.0
C108 C 0.28995 0.78984 0.5224 0.0
C109 C 0.27717 0.74947 0.46797 0.0
O110 O 0.24649 0.71741 0.53301 0.0
O111 O 0.28884 0.72305 0.53001 0.0
O112 O 0.28804 0.77606 0.53899 0.0
O113 O 0.2783 0.77977 0.50491 0.0
O114 O 0.27193 0.73677 0.4854 0.0
O115 O 0.26999 0.77178 0.4671 0.0
C116 C 0.23322 0.83028 0.4737 0.0
O117 O 0.21958 0.81098 0.46671 0.0
O118 O 0.25131 0.82564 0.48909 0.0
C119 C 0.21214 0.74815 0.48553 0.0
Tb120 Tb 0.27093 0.53001 0.72958 0.0
C121 C 0.27562 0.47513 0.73778 0.0
Tb122 Tb 0.24519 0.50977 0.77021 0.0
O123 O 0.30204 0.54928 0.7517 0.0
O124 O 0.28494 0.51706 0.76034 0.0
O125 O 0.27711 0.492 0.72327 0.0
C126 C 0.23385 0.4991 0.81189 0.0
O127 O 0.26722 0.47915 0.75854 0.0
C128 C 0.21569 0.50537 0.73243 0.0
C129 C 0.23916 0.56428 0.76144 0.0
O130 O 0.21851 0.49369 0.79386 0.0
O131 O 0.25544 0.51068 0.80644 0.0
O132 O 0.21401 0.49053 0.74811 0.0
O133 O 0.23115 0.52265 0.73938 0.0
O134 O 0.23871 0.54773 0.77633 0.0
O135 O 0.24735 0.56001 0.74061 0.0
C136 C 0.28448 0.54036 0.68839 0.0
O137 O 0.29742 0.54786 0.70708 0.0
O138 O 0.2637 0.52708 0.69283 0.0
C139 C 0.30042 0.53434 0.76726 0.0
Tb140 Tb 0.0192 0.49367 0.48608 0.0
C141 C 0.03614 0.50977 0.53593 0.0
Tb142 Tb 0.9933 0.53737 0.50668 0.0
O143 O 0.05816 0.51275 0.48411 0.0
O144 O 0.02195 0.5307 0.48185 0.0
O145 O 0.03312 0.4912 0.52109 0.0
C146 C 0.98394 0.57981 0.52649 0.0
O147 O 0.02404 0.53 0.53284 0.0
C148 C 0.96547 0.49738 0.50913 0.0
C149 C 0.97658 0.52162 0.45669 0.0
O150 O 0.96585 0.56289 0.52168 0.0
O151 O 0.00735 0.57285 0.52014 0.0
O152 O 0.95443 0.51778 0.50837 0.0
O153 O 0.99086 0.50046 0.51096 0.0
O154 O 0.97877 0.53988 0.47192 0.0
O155 O 0.9893 0.50159 0.45941 0.0
C156 C 0.02724 0.45074 0.46682 0.0
O157 O 0.04601 0.46699 0.47207 0.0
O158 O 0.00393 0.45868 0.47237 0.0
C159 C 0.04745 0.53333 0.4836 0.0
Tb160 Tb 0.24496 0.28056 0.98198 0.0
C161 C 0.22455 0.28502 0.03241 0.0
Tb162 Tb 0.2602 0.24355 0.01509 0.0
O163 O 0.21795 0.2544 0.96245 0.0
O164 O 0.22469 0.25296 -0.00269 0.0
O165 O 0.22854 0.29539 0.01333 0.0
C166 C 0.26313 0.20269 0.0346 0.0
O167 O 0.23322 0.2636 0.0361 0.0
C168 C 0.29164 0.28173 0.01745 0.0
C169 C 0.27949 0.23886 0.96447 0.0
O170 O 0.28306 0.21819 0.03395 0.0
O171 O 0.2416 0.21034 0.02455 0.0
O172 O 0.2874 0.2693 0.03472 0.0
O173 O 0.28054 0.27129 -0.00011 0.0
O174 O 0.27422 0.22805 0.98307 0.0
O175 O 0.27291 0.26102 0.96152 0.0
C176 C 0.24045 0.32149 0.96268 0.0
O177 O 0.22406 0.30312 0.95871 0.0
O178 O 0.25946 0.3167 0.97726 0.0
C179 C 0.21366 0.24231 0.97989 0.0
Tb180 Tb 0.24642 0.00082 0.21727 0.0
C181 C 0.26596 0.95366 0.2351 0.0
Tb182 Tb 0.22628 0.98701 0.26266 0.0
O183 O 0.28668 0.01006 0.23381 0.0
O184 O 0.25138 0.01386 0.25118 0.0
O185 O 0.2599 0.96482 0.21667 0.0
C186 C 0.22402 0.97895 0.30612 0.0
O187 O 0.25684 0.96047 0.25519 0.0
C188 C 0.19436 0.97294 0.228 0.0
C189 C 0.20514 0.03367 0.24338 0.0
O190 O 0.24459 0.98859 0.29692 0.0
O191 O 0.2049 0.97341 0.2908 0.0
O192 O 0.18587 0.97696 0.24822 0.0
O193 O 0.21992 0.97431 0.22847 0.0
O194 O 0.20941 0.02198 0.26182 0.0
O195 O 0.21593 0.02736 0.22388 0.0
C196 C 0.25272 0.0136 0.17535 0.0
O197 O 0.2296 0.0088 0.18396 0.0
O198 O 0.27216 0.01104 0.19029 0.0
C199 C 0.2767 0.01538 0.25321 0.0
Tb200 Tb 0.46661 0.24176 0.75495 0.0
C201 C 0.5298 0.23426 0.75004 0.0
Tb202 Tb 0.49671 0.26848 0.72149 0.0
O203 O 0.44415 0.22109 0.72742 0.0
O204 O 0.4841 0.23275 0.72369 0.0
O205 O 0.5086 0.23234 0.76292 0.0
C206 C 0.51673 0.28494 0.68439 0.0
O207 O 0.52856 0.2452 0.73102 0.0
C208 C 0.50106 0.2875 0.76291 0.0
C209 C 0.43401 0.2769 0.72701 0.0
O210 O 0.51828 0.29586 0.70427 0.0
O211 O 0.50359 0.26484 0.68536 0.0
O212 O 0.51988 0.28912 0.74846 0.0
O213 O 0.48006 0.27742 0.75323 0.0
O214 O 0.45485 0.27794 0.71366 0.0
O215 O 0.43529 0.26607 0.74615 0.0
C216 C 0.44835 0.2227 0.79149 0.0
O217 O 0.44491 0.21356 0.77099 0.0
O218 O 0.46186 0.24274 0.79145 0.0
C219 C 0.46366 0.22232 0.71356 0.0
Tb220 Tb 0.97687 0.74081 0.76557 0.0
C221 C 0.03959 0.73282 0.75864 0.0
Tb222 Tb 0.00779 0.77147 0.73468 0.0
O223 O 0.95255 0.72476 0.73663 0.0
O224 O 0.99286 0.73609 0.73317 0.0
O225 O 0.0186 0.72997 0.77159 0.0
C226 C 0.02742 0.79283 0.69988 0.0
O227 O 0.03856 0.74587 0.7409 0.0
C228 C 0.01326 0.78453 0.77767 0.0
C229 C 0.94546 0.7806 0.74294 0.0
O230 O 0.02917 0.80122 0.72073 0.0
O231 O 0.0144 0.77247 0.6986 0.0
O232 O 0.032 0.78801 0.76346 0.0
O233 O 0.99199 0.77619 0.76714 0.0
O234 O 0.96609 0.78317 0.7295 0.0
O235 O 0.94666 0.76708 0.76035 0.0
C236 C 0.95784 0.71819 0.79987 0.0
O237 O 0.95528 0.7107 0.77879 0.0
O238 O 0.97109 0.73844 0.80164 0.0
C239 C 0.97153 0.72797 0.7226 0.0
Tb240 Tb 0.7548 0.51263 0.22903 0.0
C241 C 0.7585 0.45844 0.23824 0.0
Tb242 Tb 0.7313 0.49427 0.27161 0.0
O243 O 0.7876 0.53181 0.24916 0.0
O244 O 0.77052 0.50036 0.25981 0.0
O245 O 0.75689 0.47426 0.22272 0.0
C246 C 0.71962 0.48381 0.31328 0.0
O247 O 0.75374 0.46388 0.25976 0.0
C248 C 0.69926 0.48995 0.23526 0.0
C249 C 0.72856 0.54908 0.26269 0.0
O250 O 0.70651 0.47575 0.29487 0.0
O251 O 0.73946 0.49789 0.3083 0.0
O252 O 0.69806 0.47553 0.25126 0.0
O253 O 0.71582 0.50675 0.24116 0.0
O254 O 0.72693 0.53259 0.27758 0.0
O255 O 0.73589 0.5445 0.24168 0.0
C256 C 0.76494 0.52319 0.18703 0.0
O257 O 0.78312 0.52166 0.20328 0.0
O258 O 0.74112 0.51853 0.1944 0.0
C259 C 0.78685 0.51753 0.26537 0.0
Tb260 Tb 0.74372 0.77918 0.98404 0.0
C261 C 0.72792 0.78359 0.03582 0.0
Tb262 Tb 0.76229 0.74247 0.01614 0.0
O263 O 0.7156 0.75337 0.96573 0.0
O264 O 0.72505 0.75108 0.00018 0.0
O265 O 0.72947 0.79371 0.01633 0.0
C266 C 0.76919 0.70209 0.03601 0.0
O267 O 0.73731 0.76233 0.03908 0.0
C268 C 0.79301 0.78112 0.01673 0.0
C269 C 0.77775 0.73793 0.96465 0.0
O270 O 0.78817 0.71806 0.03364 0.0
O271 O 0.7464 0.70899 0.02742 0.0
O272 O 0.79029 0.76879 0.03426 0.0
O273 O 0.78082 0.77042 -0.00021 0.0
O274 O 0.77344 0.72694 0.98331 0.0
O275 O 0.77103 0.76019 0.9623 0.0
C276 C 0.73611 0.81997 0.96511 0.0
O277 O 0.75545 0.81616 0.97977 0.0
O278 O 0.72125 0.80073 0.96085 0.0
C279 C 0.71288 0.74071 0.98301 0.0
Tb280 Tb 0.52857 0.00565 0.51025 0.0
C281 C 0.5173 0.98406 0.46045 0.0
Tb282 Tb 0.48187 0.0242 0.48317 0.0
O283 O 0.50029 0.99002 0.53318 0.0
O284 O 0.4888 0.99293 0.49962 0.0
O285 O 0.53481 0.9863 0.47813 0.0
C286 C 0.43854 0.03111 0.45652 0.0
O287 O 0.49485 0.99635 0.45925 0.0
C288 C 0.52553 0.05229 0.48718 0.0
C289 C 0.49302 0.04464 0.53266 0.0
O290 O 0.46333 0.03763 0.45292 0.0
O291 O 0.43793 0.02061 0.47533 0.0
O292 O 0.50093 0.05958 0.4857 0.0
O293 O 0.52497 0.02997 0.48472 0.0
O294 O 0.47341 0.03836 0.51715 0.0
O295 O 0.51783 0.03647 0.53132 0.0
C296 C 0.57603 0.99363 0.52844 0.0
O297 O 0.55607 0.979 0.52169 0.0
O298 O 0.56926 0.0151 0.52491 0.0
C299 C 0.48036 0.98707 0.51816 0.0
Tb300 Tb 0.51123 0.49134 0.98268 0.0
C301 C 0.54076 0.4967 0.03094 0.0
Tb302 Tb 0.49443 0.53041 0.01725 0.0
O303 O 0.53068 0.51818 0.96303 0.0
O304 O 0.52844 0.52363 -0.00214 0.0
O305 O 0.53322 0.4816 0.01354 0.0
C306 C 0.48735 0.56946 0.04393 0.0
O307 O 0.53134 0.51837 0.03335 0.0
C308 C 0.47031 0.4885 0.01931 0.0
C309 C 0.46504 0.52556 0.96864 0.0
O310 O 0.47832 0.54827 0.04721 0.0
O311 O 0.49993 0.5689 0.02516 0.0
O312 O 0.47465 0.50349 0.03662 0.0
O313 O 0.47714 0.49827 0.00196 0.0
O314 O 0.47078 0.53977 0.98708 0.0
O315 O 0.4762 0.50472 0.96491 0.0
C316 C 0.51649 0.4508 0.95765 0.0
O317 O 0.53255 0.46946 0.95771 0.0
O318 O 0.49796 0.45483 0.97208 0.0
C319 C 0.53506 0.53326 0.98036 0.0
C320 C 0.98709 0.11901 0.04407 0.0
C321 C 0.97674 0.09716 0.05041 0.0
C322 C 0.98458 0.13959 0.05812 0.0
C323 C 0.94944 0.16249 0.10932 0.0
H324 H 0.01233 0.20557 0.11752 0.0
C325 C 0.00591 0.22649 0.18466 0.0
C326 C 0.9829 0.2338 0.19587 0.0
C327 C 0.0031 0.21478 0.16324 0.0
C328 C 0.99464 0.19364 0.11559 0.0
H329 H 0.95547 0.07953 0.07607 0.0
H330 H 0.95205 0.11482 0.10087 0.0
H331 H 0.01069 0.17452 0.08728 0.0
H332 H 0.93925 0.23665 0.19303 0.0
H333 H 0.93429 0.21751 0.15505 0.0
H334 H 0.93445 0.17994 0.13875 0.0
C335 C 0.96129 0.11658 0.08484 0.0
C336 C 0.99348 0.17603 0.09792 0.0
C337 C 0.96348 0.09621 0.07071 0.0
C338 C 0.95722 0.23074 0.18478 0.0
C339 C 0.95444 0.21961 0.16309 0.0
C340 C 0.95087 0.17969 0.12726 0.0
C341 C 0.97194 0.13855 0.07886 0.0
C342 C 0.97126 0.15971 0.09505 0.0
C343 C 0.97723 0.21066 0.15233 0.0
C344 C 0.97387 0.19506 0.1311 0.0
H345 H 0.99734 0.12016 0.02841 0.0
H346 H 0.99273 0.15622 0.05282 0.0
H347 H 0.9316 0.15073 0.10724 0.0
H348 H 0.02596 0.22871 0.19292 0.0
H349 H 0.02115 0.20794 0.15585 0.0
C350 C 0.82973 0.21426 0.4542 0.0
C351 C 0.81649 0.23585 0.45334 0.0
C352 C 0.85049 0.20895 0.43959 0.0
C353 C 0.88368 0.19954 0.39683 0.0
H354 H 0.93425 0.25223 0.38983 0.0
C355 C 0.94156 0.21272 0.31716 0.0
C356 C 0.96586 0.22645 0.31883 0.0
C357 C 0.92822 0.20768 0.33659 0.0
C358 C 0.92083 0.23708 0.3919 0.0
H359 H 0.81364 0.26816 0.43569 0.0
H360 H 0.84957 0.25882 0.41034 0.0
H361 H 0.90013 0.25596 0.41783 0.0
H362 H 0.9969 0.24357 0.34183 0.0
H363 H 0.97393 0.23431 0.37589 0.0
H364 H 0.90407 0.18089 0.37036 0.0
C365 C 0.84428 0.24623 0.42255 0.0
C366 C 0.901 0.23938 0.40775 0.0
C367 C 0.82356 0.25149 0.43699 0.0
C368 C 0.97794 0.23322 0.34017 0.0
C369 C 0.96476 0.22797 0.35962 0.0
C370 C 0.9036 0.19722 0.38087 0.0
C371 C 0.85837 0.22522 0.42408 0.0
C372 C 0.88165 0.221 0.40977 0.0
C373 C 0.93911 0.21617 0.35798 0.0
C374 C 0.92181 0.21628 0.37775 0.0
H375 H 0.82469 0.20181 0.46659 0.0
H376 H 0.86102 0.19258 0.44098 0.0
H377 H 0.86903 0.18508 0.3982 0.0
H378 H 0.93197 0.20719 0.30082 0.0
H379 H 0.90842 0.19871 0.33469 0.0
C380 C 0.81502 0.05034 0.67456 0.0
C381 C 0.7889 0.03976 0.67485 0.0
C382 C 0.82228 0.06318 0.65637 0.0
C383 C 0.80224 0.07937 0.59895 0.0
H384 H 0.81868 0.14347 0.62396 0.0
C385 C 0.77805 0.16087 0.55003 0.0
C386 C 0.79359 0.18191 0.55487 0.0
C387 C 0.78313 0.14103 0.5621 0.0
C388 C 0.81486 0.12566 0.61646 0.0
H389 H 0.75088 0.03203 0.65563 0.0
H390 H 0.7636 0.05449 0.62374 0.0
H391 H 0.81926 0.11112 0.64859 0.0
H392 H 0.82744 0.19865 0.57501 0.0
H393 H 0.83724 0.16374 0.59545 0.0
H394 H 0.79751 0.09399 0.56677 0.0
C395 C 0.77843 0.05292 0.63752 0.0
C396 C 0.81516 0.10708 0.63067 0.0
C397 C 0.77109 0.04021 0.65581 0.0
C398 C 0.81493 0.18265 0.57129 0.0
C399 C 0.82044 0.16267 0.58302 0.0
C400 C 0.80239 0.09797 0.58459 0.0
C401 C 0.80358 0.06543 0.63817 0.0
C402 C 0.80812 0.08388 0.62217 0.0
C403 C 0.80424 0.14174 0.57892 0.0
C404 C 0.80789 0.12146 0.59331 0.0
H405 H 0.82917 0.05004 0.68901 0.0
H406 H 0.84188 0.07252 0.65712 0.0
H407 H 0.79684 0.06157 0.59203 0.0
H408 H 0.76147 0.15995 0.53737 0.0
H409 H 0.76988 0.12545 0.55873 0.0
C410 C 0.95749 0.0301 0.92199 0.0
C411 C 0.95214 0.03805 0.94413 0.0
C412 C 0.93916 0.03395 0.90427 0.0
C413 C 0.88759 0.02421 0.87669 0.0
H414 H 0.84552 0.0797 0.86738 0.0
C415 C 0.79831 0.01866 0.81258 0.0
C416 C 0.79756 0.03674 0.79756 0.0
C417 C 0.81477 0.02137 0.8323 0.0
C418 C 0.8572 0.06412 0.8698 0.0
H419 H 0.92465 0.05773 0.96508 0.0
H420 H 0.89197 0.06394 0.93396 0.0
H421 H 0.88164 0.08138 0.89724 0.0
H422 H 0.81234 0.07216 0.7916 0.0
H423 H 0.84194 0.07662 0.82581 0.0
H424 H 0.86396 0.00703 0.84913 0.0
C425 C 0.91051 0.05499 0.93031 0.0
C426 C 0.87771 0.06505 0.88691 0.0
C427 C 0.92914 0.0514 0.9481 0.0
C428 C 0.81269 0.05794 0.80295 0.0
C429 C 0.82941 0.06057 0.8226 0.0
C430 C 0.86725 0.02329 0.85969 0.0
C431 C 0.91489 0.04546 0.9084 0.0
C432 C 0.89323 0.04512 0.89035 0.0
C433 C 0.83114 0.04204 0.83715 0.0
C434 C 0.85182 0.04319 0.85602 0.0
H435 H 0.9754 0.02016 0.91847 0.0
H436 H 0.94342 0.027 0.88742 0.0
H437 H 0.89881 0.0084 0.87922 0.0
H438 H 0.78697 0.00207 0.80873 0.0
H439 H 0.81534 0.00694 0.8434 0.0
C440 C 0.05309 0.96626 0.0539 0.0
C441 C 0.04623 0.99014 0.05337 0.0
C442 C 0.06734 0.95841 0.07271 0.0
C443 C 0.08219 0.97517 0.13294 0.0
H444 H 0.14586 0.93729 0.12681 0.0
C445 C 0.14879 0.96143 0.21068 0.0
C446 C 0.17663 0.96561 0.20814 0.0
C447 C 0.13121 0.95697 0.19179 0.0
C448 C 0.12809 0.94784 0.12878 0.0
H449 H 0.04954 0.0246 0.07182 0.0
H450 H 0.07452 0.01103 0.10421 0.0
H451 H 0.11799 0.94513 0.09322 0.0
H452 H 0.2085 0.96615 0.18426 0.0
H453 H 0.17763 0.96023 0.15102 0.0
H454 H 0.09295 0.97949 0.16801 0.0
C455 C 0.06842 0.99824 0.09041 0.0
C456 C 0.112 0.95209 0.1096 0.0
C457 C 0.05425 0.00605 0.07174 0.0
C458 C 0.18695 0.9637 0.18654 0.0
C459 C 0.16927 0.95985 0.16754 0.0
C460 C 0.09829 0.97112 0.15199 0.0
C461 C 0.07482 0.97433 0.09123 0.0
C462 C 0.08945 0.96648 0.11149 0.0
C463 C 0.14107 0.95724 0.16996 0.0
C464 C 0.12187 0.95797 0.1501 0.0
H465 H 0.04717 0.95359 0.03997 0.0
H466 H 0.07206 0.93988 0.07295 0.0
H467 H 0.06458 0.98594 0.13492 0.0
H468 H 0.14044 0.96223 0.22726 0.0
H469 H 0.10973 0.95427 0.19429 0.0
C470 C 0.00874 0.41387 0.44567 0.0
C471 C 0.03122 0.42832 0.45371 0.0
C472 C 0.01211 0.39453 0.43036 0.0
C473 C 0.05783 0.37728 0.38611 0.0
H474 H 0.01307 0.31938 0.38046 0.0
C475 C 0.06016 0.31448 0.30696 0.0
C476 C 0.03453 0.30716 0.29732 0.0
C477 C 0.0627 0.32455 0.32905 0.0
C478 C 0.0257 0.33548 0.38183 0.0
H479 H 0.07501 0.43305 0.45361 0.0
H480 H 0.08103 0.39905 0.4271 0.0
H481 H 0.01245 0.34551 0.41485 0.0
H482 H 0.99159 0.30353 0.30331 0.0
H483 H 0.99585 0.32162 0.34175 0.0
H484 H 0.07029 0.36796 0.35289 0.0
C485 C 0.06073 0.40289 0.43222 0.0
C486 C 0.02537 0.3504 0.40151 0.0
C487 C 0.05732 0.42227 0.44744 0.0
C488 C 0.0116 0.30908 0.3104 0.0
C489 C 0.01409 0.31928 0.33246 0.0
C490 C 0.05814 0.36244 0.36649 0.0
C491 C 0.03807 0.38931 0.4229 0.0
C492 C 0.04102 0.37171 0.40364 0.0
C493 C 0.0396 0.32765 0.34185 0.0
C494 C 0.04166 0.34162 0.36391 0.0
H495 H 0.98839 0.41816 0.45035 0.0
H496 H 0.99421 0.38456 0.42339 0.0
H497 H 0.06974 0.39377 0.38699 0.0
H498 H 0.07819 0.3129 0.29727 0.0
H499 H 0.08268 0.33044 0.33593 0.0
C500 C 0.71268 0.26949 0.57587 0.0
C501 C 0.71585 0.28266 0.55688 0.0
C502 C 0.69107 0.27357 0.58984 0.0
C503 C 0.63624 0.31463 0.60374 0.0
H504 H 0.59887 0.25669 0.61843 0.0
C505 C 0.53233 0.27658 0.64561 0.0
C506 C 0.53329 0.29121 0.66559 0.0
C507 C 0.55235 0.27904 0.62997 0.0
C508 C 0.60878 0.27306 0.61416 0.0
H509 H 0.69997 0.31166 0.53863 0.0
H510 H 0.66214 0.31843 0.56278 0.0
H511 H 0.64023 0.2545 0.59791 0.0
H512 H 0.55417 0.3212 0.68414 0.0
H513 H 0.58947 0.32523 0.65709 0.0
H514 H 0.60433 0.33312 0.61978 0.0
C515 C 0.67639 0.30506 0.56696 0.0
C516 C 0.63282 0.2718 0.60279 0.0
C517 C 0.69806 0.30106 0.55305 0.0
C518 C 0.55308 0.30965 0.66883 0.0
C519 C 0.57325 0.312 0.65329 0.0
C520 C 0.61207 0.31589 0.61513 0.0
C521 C 0.67216 0.29082 0.58503 0.0
C522 C 0.64695 0.29255 0.59761 0.0
C523 C 0.57377 0.29602 0.63422 0.0
C524 C 0.59814 0.29509 0.62052 0.0
H525 H 0.72618 0.25537 0.57947 0.0
H526 H 0.68866 0.26268 0.604 0.0
H527 H 0.64672 0.33093 0.59997 0.0
H528 H 0.51708 0.26236 0.64266 0.0
H529 H 0.55185 0.26685 0.61512 0.0
C530 C 0.689 0.97002 0.84144 0.0
C531 C 0.70911 0.98768 0.83914 0.0
C532 C 0.68862 0.95773 0.86103 0.0
C533 C 0.73808 0.9389 0.90268 0.0
H534 H 0.67493 0.90821 0.92631 0.0
C535 C 0.74855 0.86254 0.9615 0.0
C536 C 0.73127 0.84275 0.9554 0.0
C537 C 0.74409 0.8841 0.95204 0.0
C538 C 0.69275 0.91668 0.91989 0.0
H539 H 0.74294 0.00805 0.8561 0.0
H540 H 0.74207 0.98677 0.89053 0.0
H541 H 0.66898 0.94104 0.90203 0.0
H542 H 0.69558 0.82985 0.93511 0.0
H543 H 0.68803 0.86734 0.91824 0.0
H544 H 0.76179 0.91399 0.91964 0.0
C545 C 0.72692 0.98209 0.87707 0.0
C546 C 0.68935 0.93549 0.90606 0.0
C547 C 0.72732 0.99435 0.85745 0.0
C548 C 0.70921 0.84489 0.94004 0.0
C549 C 0.70474 0.86642 0.93058 0.0
C550 C 0.74148 0.92014 0.91649 0.0
C551 C 0.70835 0.96294 0.87865 0.0
C552 C 0.71193 0.94632 0.89674 0.0
C553 C 0.72225 0.88621 0.93633 0.0
C554 C 0.7188 0.90835 0.92467 0.0
H555 H 0.6747 0.9646 0.82754 0.0
H556 H 0.67414 0.94299 0.86161 0.0
H557 H 0.7559 0.94658 0.89551 0.0
H558 H 0.76562 0.86132 0.97345 0.0
H559 H 0.75781 0.89908 0.95692 0.0
C560 C 0.19416 0.31771 0.04457 0.0
C561 C 0.20653 0.29626 0.0488 0.0
C562 C 0.17362 0.32608 0.05815 0.0
C563 C 0.12008 0.30207 0.08963 0.0
H564 H 0.11849 0.36175 0.12536 0.0
C565 C 0.0772 0.33089 0.17776 0.0
C566 C 0.05254 0.31769 0.17543 0.0
C567 C 0.09117 0.33611 0.15869 0.0
C568 C 0.11849 0.34516 0.11521 0.0
H569 H 0.20853 0.26784 0.07163 0.0
H570 H 0.1727 0.28238 0.09502 0.0
H571 H 0.15536 0.35481 0.09951 0.0
H572 H 0.0213 0.30216 0.15169 0.0
H573 H 0.04539 0.31174 0.11825 0.0
H574 H 0.08455 0.29155 0.10592 0.0
C575 C 0.1787 0.2925 0.08107 0.0
C576 C 0.13948 0.34126 0.10044 0.0
C577 C 0.19926 0.28425 0.0677 0.0
C578 C 0.04057 0.31201 0.15384 0.0
C579 C 0.05436 0.31748 0.13475 0.0
C580 C 0.09917 0.30595 0.10419 0.0
C581 C 0.16514 0.313 0.07596 0.0
C582 C 0.14093 0.31928 0.08833 0.0
C583 C 0.08052 0.32834 0.13702 0.0
C584 C 0.0987 0.32715 0.11782 0.0
H585 H 0.19946 0.32748 0.03022 0.0
H586 H 0.16345 0.34203 0.05406 0.0
H587 H 0.12071 0.28509 0.08017 0.0
H588 H 0.08668 0.33565 0.1943 0.0
H589 H 0.1113 0.34439 0.16108 0.0
C590 C 0.73 0.48514 0.35489 0.0
C591 C 0.71518 0.47526 0.33568 0.0
C592 C 0.72837 0.47463 0.37548 0.0
C593 C 0.73989 0.43818 0.40902 0.0
H594 H 0.68001 0.39542 0.421 0.0
C595 C 0.75852 0.35156 0.4494 0.0
C596 C 0.73831 0.34064 0.46137 0.0
C597 C 0.75358 0.37259 0.43926 0.0
C598 C 0.69683 0.40757 0.41839 0.0
H599 H 0.68595 0.44765 0.32296 0.0
H600 H 0.68409 0.42867 0.35817 0.0
H601 H 0.67279 0.42609 0.39503 0.0
H602 H 0.69751 0.34341 0.47312 0.0
H603 H 0.68905 0.38079 0.45609 0.0
H604 H 0.7637 0.42016 0.43289 0.0
C605 C 0.69636 0.44485 0.35794 0.0
C606 C 0.69278 0.42499 0.40313 0.0
C607 C 0.69762 0.4556 0.33757 0.0
C608 C 0.7133 0.35144 0.4637 0.0
C609 C 0.70848 0.37279 0.45388 0.0
C610 C 0.74374 0.42117 0.4247 0.0
C611 C 0.71231 0.45379 0.37705 0.0
C612 C 0.71465 0.43963 0.39728 0.0
C613 C 0.72845 0.38348 0.44125 0.0
C614 C 0.72269 0.40478 0.42864 0.0
H615 H 0.7435 0.50049 0.35384 0.0
H616 H 0.74045 0.48239 0.38992 0.0
H617 H 0.75731 0.44906 0.40512 0.0
H618 H 0.77799 0.34353 0.44736 0.0
H619 H 0.76927 0.37981 0.42923 0.0
C620 C 0.60317 0.96385 0.54758 0.0
C621 C 0.59999 0.98736 0.54205 0.0
C622 C 0.62247 0.95861 0.56427 0.0
C623 C 0.67912 0.98482 0.60268 0.0
H624 H 0.64224 0.95078 0.64773 0.0
C625 C 0.6964 0.00749 0.6968 0.0
C626 C 0.69759 0.98935 0.71172 0.0
C627 C 0.69034 0.00223 0.6739 0.0
C628 C 0.65316 0.95983 0.6352 0.0
H629 H 0.61585 0.02346 0.54788 0.0
H630 H 0.6492 0.01449 0.57721 0.0
H631 H 0.62265 0.94991 0.60942 0.0
H632 H 0.69271 0.95156 0.71481 0.0
H633 H 0.68124 0.94227 0.67449 0.0
H634 H 0.70872 0.99595 0.62902 0.0
C635 C 0.63711 -0.0 0.56866 0.0
C636 C 0.64199 0.95929 0.61318 0.0
C637 C 0.61787 0.00521 0.55196 0.0
C638 C 0.69188 0.96583 0.70353 0.0
C639 C 0.68552 0.96053 0.68054 0.0
C640 C 0.69023 0.98542 0.62473 0.0
C641 C 0.63881 0.97681 0.57568 0.0
C642 C 0.65422 0.97263 0.59695 0.0
C643 C 0.68493 0.97871 0.66551 0.0
C644 C 0.67669 0.97378 0.64139 0.0
H645 H 0.58973 0.94973 0.53997 0.0
H646 H 0.62362 0.94052 0.56906 0.0
H647 H 0.68927 0.9949 0.59043 0.0
H648 H 0.70014 0.02583 0.70286 0.0
H649 H 0.68927 0.01667 0.66284 0.0
C650 C 0.03984 0.92369 0.93718 0.0
C651 C 0.01688 0.92855 0.94956 0.0
C652 C 0.04017 0.90323 0.92273 0.0
C653 C 0.99272 0.86417 0.88826 0.0
H654 H 0.05579 0.82656 0.87768 0.0
C655 C 0.9913 0.79438 0.81398 0.0
C656 C 0.01447 0.79471 0.80111 0.0
C657 C 0.99185 0.80611 0.83541 0.0
C658 C 0.03803 0.83695 0.88039 0.0
H659 H 0.9769 0.91543 0.95768 0.0
H660 H 0.97745 0.8797 0.93242 0.0
H661 H 0.05677 0.85598 0.90972 0.0
H662 H 0.05664 0.80666 0.80071 0.0
H663 H 0.05744 0.82784 0.83772 0.0
H664 H 0.97436 0.84621 0.85848 0.0
C665 C 0.99507 0.89175 0.93368 0.0
C666 C 0.0386 0.85373 0.89875 0.0
C667 C 0.99479 0.91213 0.94816 0.0
C668 C 0.03848 0.80618 0.81032 0.0
C669 C 0.03898 0.81812 0.83163 0.0
C670 C 0.99222 0.84758 0.86985 0.0
C671 C 0.01747 0.88739 0.9204 0.0
C672 C 0.0161 0.86776 0.90262 0.0
C673 C 0.0155 0.81867 0.84424 0.0
C674 C 0.01504 0.83407 0.86542 0.0
H675 H 0.05713 0.93611 0.93803 0.0
H676 H 0.05761 0.90043 0.91255 0.0
H677 H 0.97522 0.87499 0.8906 0.0
H678 H 0.97248 0.78573 0.80722 0.0
H679 H 0.97354 0.80585 0.84482 0.0
C680 C 0.05224 0.06994 0.96363 0.0
C681 C 0.05286 0.05602 0.98225 0.0
C682 C 0.06886 0.09047 0.96369 0.0
C683 C 0.11618 0.13074 0.00188 0.0
H684 H 0.13647 0.15297 0.94454 0.0
C685 C 0.17957 0.21782 -0.00147 0.0
C686 C 0.19557 0.22112 0.98002 0.0
C687 C 0.16198 0.19797 -0.00132 0.0
C688 C 0.13162 0.14689 0.96081 0.0
H689 H 0.07135 0.05211 0.01541 0.0
H690 H 0.10197 0.08655 0.01496 0.0
H691 H 0.10786 0.11778 0.94513 0.0
H692 H 0.20672 0.20617 0.9475 0.0
H693 H 0.17784 0.17052 0.94835 0.0
H694 H 0.14205 0.15845 0.01759 0.0
C695 C 0.0878 0.08276 0.00066 0.0
C696 C 0.1144 0.12679 0.96115 0.0
C697 C 0.0704 0.06277 0.00092 0.0
C698 C 0.19424 0.20405 0.96184 0.0
C699 C 0.17739 0.18371 0.96232 0.0
C700 C 0.13421 0.15029 0.00155 0.0
C701 C 0.08733 0.09706 0.98205 0.0
C702 C 0.10611 0.11846 0.9817 0.0
C703 C 0.16071 0.1804 0.98067 0.0
C704 C 0.14204 0.15893 0.98101 0.0
H705 H 0.03858 0.06514 0.94914 0.0
H706 H 0.06695 0.10113 0.9493 0.0
H707 H 0.11011 0.1255 0.01815 0.0
H708 H 0.18017 0.23091 0.0127 0.0
H709 H 0.14915 0.19676 0.01288 0.0
C710 C 0.71211 0.58811 0.25231 0.0
C711 C 0.72024 0.57324 0.26914 0.0
C712 C 0.70294 0.61057 0.25808 0.0
C713 C 0.67288 0.64459 0.30509 0.0
H714 H 0.67551 0.69265 0.26165 0.0
C715 C 0.61658 0.73514 0.27715 0.0
C716 C 0.59023 0.728 0.28245 0.0
C717 C 0.6385 0.72086 0.28163 0.0
C718 C 0.67497 0.67988 0.27442 0.0
H719 H 0.72641 0.57053 0.3052 0.0
H720 H 0.71117 0.61028 0.31538 0.0
H721 H 0.70514 0.65964 0.25822 0.0
H722 H 0.56612 0.70092 0.29733 0.0
H723 H 0.60365 0.67539 0.30382 0.0
H724 H 0.64331 0.66523 0.32171 0.0
C725 C 0.71115 0.60432 0.2977 0.0
C726 C 0.6917 0.66059 0.27216 0.0
C727 C 0.71992 0.58157 0.2919 0.0
C728 C 0.58627 0.70688 0.29312 0.0
C729 C 0.60799 0.69233 0.29707 0.0
C730 C 0.65666 0.66424 0.30772 0.0
C731 C 0.70215 0.61898 0.28084 0.0
C732 C 0.68966 0.642 0.28663 0.0
C733 C 0.63434 0.69884 0.29091 0.0
C734 C 0.6563 0.68142 0.29164 0.0
H735 H 0.71193 0.58213 0.23461 0.0
H736 H 0.69551 0.62094 0.24458 0.0
H737 H 0.67082 0.63077 0.31672 0.0
H738 H 0.6202 0.7516 0.26924 0.0
H739 H 0.65854 0.72682 0.27719 0.0
C740 C 0.31944 0.82184 0.54306 0.0
C741 C 0.30728 0.81168 0.52274 0.0
C742 C 0.33639 0.84222 0.54316 0.0
C743 C 0.37789 0.87637 0.50496 0.0
H744 H 0.37891 0.92539 0.55374 0.0
C745 C 0.44024 0.96341 0.50077 0.0
C746 C 0.45673 0.97065 0.52003 0.0
C747 C 0.42009 0.94558 0.50167 0.0
C748 C 0.37894 0.91178 0.54006 0.0
H749 H 0.30338 0.81474 0.48659 0.0
H750 H 0.33196 0.85062 0.4868 0.0
H751 H 0.34755 0.89106 0.55414 0.0
H752 H 0.4642 0.96582 0.5556 0.0
H753 H 0.42885 0.93464 0.55723 0.0
H754 H 0.40916 0.89706 0.49085 0.0
C755 C 0.32893 0.84275 0.50267 0.0
C756 C 0.36103 0.89205 0.54031 0.0
C757 C 0.31223 0.82232 0.50256 0.0
C758 C 0.45179 0.96054 0.54049 0.0
C759 C 0.43151 0.94275 0.54143 0.0
C760 C 0.39561 0.89611 0.50465 0.0
C761 C 0.34147 0.85288 0.52293 0.0
C762 C 0.36029 0.87407 0.52275 0.0
C763 C 0.41587 0.93467 0.52188 0.0
C764 C 0.39638 0.91406 0.52218 0.0
H765 H 0.31605 0.81393 0.55885 0.0
H766 H 0.34596 0.8493 0.55904 0.0
H767 H 0.3784 0.86269 0.4914 0.0
H768 H 0.44351 0.97095 0.48477 0.0
H769 H 0.40809 0.94004 0.48641 0.0
C770 C 0.0682 0.70974 0.78446 0.0
C771 C 0.06473 0.72045 0.7639 0.0
C772 C 0.09145 0.69719 0.78908 0.0
C773 C 0.16075 0.68532 0.76982 0.0
H774 H 0.14622 0.62365 0.79237 0.0
C775 C 0.22461 0.6042 0.75116 0.0
C776 C 0.2269 0.58718 0.76727 0.0
C777 C 0.20957 0.6243 0.7554 0.0
C778 C 0.15085 0.64101 0.78657 0.0
H779 H 0.08329 0.72704 0.73237 0.0
H780 H 0.12349 0.70459 0.74016 0.0
H781 H 0.11027 0.6518 0.79099 0.0
H782 H 0.21711 0.57892 0.80122 0.0
H783 H 0.19088 0.6141 0.80858 0.0
H784 H 0.2011 0.67389 0.76443 0.0
C785 C 0.10852 0.70627 0.75292 0.0
C786 C 0.13019 0.65718 0.78575 0.0
C787 C 0.08534 0.71896 0.74835 0.0
C788 C 0.21543 0.59151 0.78832 0.0
C789 C 0.20037 0.61163 0.79254 0.0
C790 C 0.18144 0.66907 0.77057 0.0
C791 C 0.11163 0.69495 0.77319 0.0
C792 C 0.1347 0.67928 0.77684 0.0
C793 C 0.19655 0.62781 0.77583 0.0
C794 C 0.17646 0.64654 0.77843 0.0
H795 H 0.05287 0.71086 0.79695 0.0
H796 H 0.09346 0.68898 0.80501 0.0
H797 H 0.16497 0.70238 0.76323 0.0
H798 H 0.23339 0.60152 0.73484 0.0
H799 H 0.20683 0.63634 0.74211 0.0
C800 C 0.85444 0.29958 0.51234 0.0
C801 C 0.82606 0.3004 0.5132 0.0
C802 C 0.87021 0.32036 0.51084 0.0
C803 C 0.86691 0.38175 0.4942 0.0
H804 H 0.93077 0.39316 0.53444 0.0
C805 C 0.92198 0.47339 0.50602 0.0
C806 C 0.9504 0.47441 0.50903 0.0
C807 C 0.90747 0.45174 0.50576 0.0
C808 C 0.91327 0.39013 0.52281 0.0
H809 H 0.7919 0.32351 0.51338 0.0
H810 H 0.81937 0.35978 0.51031 0.0
H811 H 0.90435 0.35603 0.5349 0.0
H812 H 0.986 0.45372 0.51441 0.0
H813 H 0.96081 0.41572 0.51323 0.0
H814 H 0.87584 0.41567 0.48192 0.0
C815 C 0.82943 0.34308 0.51063 0.0
C816 C 0.8981 0.36885 0.52313 0.0
C817 C 0.81371 0.32233 0.51237 0.0
C818 C 0.96409 0.45339 0.51187 0.0
C819 C 0.9496 0.43166 0.51141 0.0
C820 C 0.8822 0.40293 0.49373 0.0
C821 C 0.85788 0.34234 0.51 0.0
C822 C 0.87461 0.36452 0.50898 0.0
C823 C 0.92107 0.43056 0.50836 0.0
C824 C 0.90545 0.40753 0.50819 0.0
H825 H 0.86446 0.28288 0.51294 0.0
H826 H 0.89206 0.31923 0.5102 0.0
H827 H 0.84912 0.37876 0.48287 0.0
H828 H 0.9109 0.48936 0.50391 0.0
H829 H 0.88552 0.4517 0.50382 0.0
C830 C 0.29613 0.92761 0.21271 0.0
C831 C 0.28324 0.93294 0.23297 0.0
C832 C 0.31415 0.9092 0.21107 0.0
C833 C 0.33554 0.85529 0.23675 0.0
H834 H 0.40694 0.87276 0.21683 0.0
C835 C 0.43012 0.80517 0.26039 0.0
C836 C 0.4511 0.80298 0.24523 0.0
C837 C 0.40765 0.81846 0.25545 0.0
C838 C 0.38697 0.86736 0.22194 0.0
H839 H 0.27836 0.92258 0.26712 0.0
H840 H 0.30986 0.89028 0.26417 0.0
H841 H 0.37046 0.90058 0.2145 0.0
H842 H 0.46457 0.8124 0.21262 0.0
H843 H 0.4249 0.83547 0.2038 0.0
H844 H 0.35206 0.82218 0.24444 0.0
C845 C 0.30589 0.90038 0.24958 0.0
C846 C 0.36612 0.88334 0.22068 0.0
C847 C 0.28801 0.91895 0.2513 0.0
C848 C 0.44882 0.81392 0.22472 0.0
C849 C 0.42615 0.82717 0.2197 0.0
C850 C 0.35632 0.83921 0.23781 0.0
C851 C 0.31945 0.89564 0.22957 0.0
C852 C 0.34043 0.87765 0.22857 0.0
C853 C 0.40546 0.82975 0.23514 0.0
C854 C 0.38246 0.84533 0.23099 0.0
H855 H 0.29288 0.93802 0.19823 0.0
H856 H 0.32423 0.90576 0.19542 0.0
H857 H 0.31577 0.8504 0.24264 0.0
H858 H 0.43124 0.79705 0.2764 0.0
H859 H 0.3924 0.82047 0.26794 0.0
C860 C 0.29525 0.44637 0.7096 0.0
C861 C 0.28507 0.45131 0.73106 0.0
C862 C 0.30553 0.4242 0.70385 0.0
C863 C 0.30897 0.36257 0.72156 0.0
H864 H 0.38068 0.3655 0.69741 0.0
C865 C 0.39041 0.29496 0.73773 0.0
C866 C 0.40989 0.29062 0.72156 0.0
C867 C 0.37001 0.31096 0.73396 0.0
C868 C 0.3604 0.36417 0.70363 0.0
H869 H 0.27666 0.43651 0.76294 0.0
H870 H 0.29498 0.39815 0.75305 0.0
H871 H 0.35418 0.40084 0.69975 0.0
H872 H 0.42182 0.29799 0.68792 0.0
H873 H 0.38602 0.32568 0.68128 0.0
H874 H 0.3158 0.32603 0.7263 0.0
C875 C 0.29472 0.41124 0.74055 0.0
C876 C 0.3452 0.38449 0.70499 0.0
C877 C 0.28448 0.43337 0.74631 0.0
C878 C 0.40738 0.30125 0.70088 0.0
C879 C 0.38691 0.31716 0.69708 0.0
C880 C 0.3242 0.3422 0.72018 0.0
C881 C 0.30577 0.40654 0.71941 0.0
C882 C 0.31968 0.38409 0.71459 0.0
C883 C 0.36861 0.32283 0.7139 0.0
C884 C 0.35042 0.34298 0.71182 0.0
H885 H 0.29575 0.45972 0.69737 0.0
H886 H 0.31367 0.42099 0.68734 0.0
H887 H 0.28915 0.36166 0.72869 0.0
H888 H 0.3917 0.287 0.75381 0.0
H889 H 0.35639 0.31507 0.74736 0.0
C890 C 0.20517 0.78697 0.57899 0.0
C891 C 0.20609 0.79752 0.55828 0.0
C892 C 0.18634 0.79406 0.59469 0.0
C893 C 0.11869 0.81695 0.59623 0.0
H894 H 0.13331 0.82002 0.66102 0.0
C895 C 0.04154 0.79041 0.66018 0.0
C896 C 0.04259 0.80242 0.68161 0.0
C897 C 0.05974 0.79678 0.6441 0.0
C898 C 0.12891 0.8197 0.64297 0.0
H899 H 0.18893 0.8247 0.53833 0.0
H900 H 0.15593 0.83685 0.56575 0.0
H901 H 0.17108 0.81865 0.63587 0.0
H902 H 0.06185 0.83152 0.70262 0.0
H903 H 0.09379 0.84261 0.67448 0.0
H904 H 0.07645 0.81699 0.60335 0.0
C905 C 0.16971 0.82304 0.56971 0.0
C906 C 0.15053 0.81868 0.62861 0.0
C907 C 0.1887 0.8161 0.55408 0.0
C908 C 0.06076 0.82192 0.68621 0.0
C909 C 0.07908 0.8282 0.67018 0.0
C910 C 0.09705 0.81779 0.6106 0.0
C911 C 0.16797 0.81173 0.58994 0.0
C912 C 0.14557 0.81664 0.60512 0.0
C913 C 0.07934 0.81516 0.64927 0.0
C914 C 0.10195 0.81853 0.6341 0.0
H915 H 0.21836 0.77269 0.5828 0.0
H916 H 0.18527 0.78488 0.61008 0.0
H917 H 0.11428 0.81521 0.57817 0.0
H918 H 0.02766 0.77531 0.65625 0.0
H919 H 0.05961 0.78628 0.62819 0.0
C920 C 0.24466 0.98121 0.34526 0.0
C921 C 0.22297 0.97405 0.32999 0.0
C922 C 0.24466 0.97454 0.36748 0.0
C923 C 0.2018 0.94498 0.40862 0.0
H924 H 0.2692 0.91545 0.42457 0.0
C925 C 0.2081 0.85722 0.44955 0.0
C926 C 0.22973 0.85362 0.46489 0.0
C927 C 0.20611 0.87882 0.43971 0.0
C928 C 0.25041 0.92409 0.42077 0.0
H929 H 0.18367 0.95563 0.32594 0.0
H930 H 0.18395 0.9433 0.36431 0.0
H931 H 0.26807 0.94236 0.39448 0.0
H932 H 0.26552 0.86981 0.48297 0.0
H933 H 0.26234 0.90756 0.46534 0.0
H934 H 0.18378 0.925 0.43386 0.0
C935 C 0.20074 0.95444 0.35954 0.0
C936 C 0.24975 0.93961 0.40351 0.0
C937 C 0.20068 0.96124 0.33743 0.0
C938 C 0.24871 0.87221 0.47105 0.0
C939 C 0.24689 0.89375 0.46104 0.0
C940 C 0.20242 0.92926 0.42575 0.0
C941 C 0.22304 0.96048 0.37466 0.0
C942 C 0.22513 0.94932 0.39652 0.0
C943 C 0.22588 0.89706 0.44493 0.0
C944 C 0.22647 0.91789 0.43124 0.0
H945 H 0.26196 0.99137 0.33989 0.0
H946 H 0.26197 0.97972 0.3788 0.0
H947 H 0.18267 0.95265 0.40398 0.0
H948 H 0.19316 0.84314 0.44466 0.0
H949 H 0.18994 0.88078 0.42709 0.0
C950 C 0.94451 0.71205 0.68828 0.0
C951 C 0.96972 0.71955 0.69864 0.0
C952 C 0.94294 0.70212 0.66613 0.0
C953 C 0.94954 0.66472 0.62851 0.0
H954 H 0.99592 0.68369 0.58132 0.0
C955 C 0.95301 0.60702 0.54645 0.0
C956 C 0.97932 0.60179 0.54008 0.0
C957 C 0.94899 0.62585 0.56215 0.0
C958 C 0.98284 0.6782 0.59434 0.0
H959 H 0.01294 0.72341 0.69394 0.0
H960 H 0.01033 0.70576 0.65531 0.0
H961 H 0.99402 0.70895 0.61616 0.0
H962 H 0.02186 0.61285 0.54382 0.0
H963 H 0.01499 0.64547 0.57165 0.0
H964 H 0.93908 0.63365 0.60728 0.0
C965 C 0.99169 0.70786 0.6641 0.0
C966 C 0.98177 0.69264 0.61427 0.0
C967 C 0.99323 0.71785 0.68625 0.0
C968 C 0.00137 0.61654 0.54854 0.0
C969 C 0.99739 0.6353 0.56437 0.0
C970 C 0.95062 0.65034 0.60867 0.0
C971 C 0.96659 0.6994 0.65397 0.0
C972 C 0.96549 0.6858 0.63174 0.0
C973 C 0.97124 0.63967 0.57189 0.0
C974 C 0.96767 0.65666 0.59152 0.0
H975 H 0.92605 0.7134 0.69746 0.0
H976 H 0.92326 0.6961 0.65867 0.0
H977 H 0.93717 0.6587 0.64177 0.0
H978 H 0.93564 0.59601 0.53997 0.0
H979 H 0.92854 0.62906 0.56726 0.0
C980 C 0.30977 0.71945 0.45427 0.0
C981 C 0.29428 0.73931 0.45029 0.0
C982 C 0.32899 0.71195 0.43904 0.0
C983 C 0.38187 0.71659 0.41432 0.0
H984 H 0.36987 0.71471 0.3493 0.0
C985 C 0.46365 0.73868 0.35226 0.0
C986 C 0.46299 0.72597 0.33118 0.0
C987 C 0.44411 0.73387 0.3678 0.0
C988 C 0.37348 0.71475 0.36741 0.0
H989 H 0.28553 0.7659 0.42658 0.0
H990 H 0.31886 0.75261 0.39988 0.0
H991 H 0.33118 0.71785 0.37346 0.0
H992 H 0.44272 0.69731 0.31023 0.0
H993 H 0.40836 0.68903 0.33737 0.0
H994 H 0.42431 0.71459 0.40828 0.0
C995 C 0.31621 0.74293 0.41482 0.0
C996 C 0.35138 0.71673 0.38121 0.0
C997 C 0.29724 0.75063 0.43016 0.0
C998 C 0.44358 0.70741 0.32638 0.0
C999 C 0.42388 0.70274 0.34183 0.0
C1000 C 0.40402 0.71487 0.40053 0.0
C1001 C 0.33276 0.72394 0.41942 0.0
C1002 C 0.35545 0.71823 0.40478 0.0
C1003 C 0.4235 0.7164 0.36239 0.0
C1004 C 0.40007 0.71447 0.37696 0.0
H1005 H 0.30798 0.71033 0.46963 0.0
H1006 H 0.3414 0.69716 0.44287 0.0
H1007 H 0.38558 0.7179 0.43248 0.0
H1008 H 0.47846 0.75307 0.35632 0.0
H1009 H 0.44416 0.7448 0.38345 0.0
C1010 C 0.28232 0.03176 0.14794 0.0
C1011 C 0.25618 0.02495 0.15408 0.0
C1012 C 0.28564 0.04663 0.13039 0.0
C1013 C 0.25043 0.07455 0.08312 0.0
H1014 H 0.29678 0.12908 0.10377 0.0
C1015 C 0.24107 0.16548 0.04608 0.0
C1016 C 0.26465 0.1798 0.0448 0.0
C1017 C 0.24226 0.14397 0.05622 0.0
C1018 C 0.28421 0.11383 0.09744 0.0
H1019 H 0.21309 0.02664 0.14574 0.0
H1020 H 0.21883 0.05283 0.11508 0.0
H1021 H 0.29522 0.09471 0.12606 0.0
H1022 H 0.30808 0.18274 0.05228 0.0
H1023 H 0.31037 0.1449 0.06965 0.0
H1024 H 0.23904 0.09397 0.05467 0.0
C1025 C 0.23677 0.04662 0.12372 0.0
C1026 C 0.28331 0.09409 0.11024 0.0
C1027 C 0.23346 0.03171 0.14131 0.0
C1028 C 0.28958 0.17207 0.05329 0.0
C1029 C 0.29083 0.15046 0.06328 0.0
C1030 C 0.25146 0.09429 0.07019 0.0
C1031 C 0.26286 0.05496 0.1187 0.0
C1032 C 0.26607 0.07442 0.10344 0.0
C1033 C 0.26712 0.13629 0.06511 0.0
C1034 C 0.26798 0.11434 0.07745 0.0
H1035 H 0.30018 0.0266 0.15745 0.0
H1036 H 0.30599 0.05248 0.12662 0.0
H1037 H 0.23713 0.05954 0.0774 0.0
H1038 H 0.22159 0.17109 0.03959 0.0
H1039 H 0.22355 0.13372 0.05765 0.0
C1040 C 0.80655 0.70487 0.95105 0.0
C1041 C 0.79263 0.72551 0.94672 0.0
C1042 C 0.82309 0.69459 0.93493 0.0
C1043 C 0.87295 0.69318 0.90614 0.0
H1044 H 0.85495 0.69119 0.84185 0.0
C1045 C 0.94686 0.71823 0.84024 0.0
C1046 C 0.94381 0.70764 0.81826 0.0
C1047 C 0.92984 0.71115 0.85687 0.0
C1048 C 0.86023 0.69104 0.85973 0.0
H1049 H 0.7838 0.7507 0.92164 0.0
H1050 H 0.81258 0.73273 0.89353 0.0
H1051 H 0.81904 0.69592 0.86848 0.0
H1052 H 0.92238 0.68013 0.79667 0.0
H1053 H 0.89235 0.66784 0.82579 0.0
H1054 H 0.91437 0.68964 0.89738 0.0
C1055 C 0.81069 0.72448 0.90936 0.0
C1056 C 0.83969 0.69398 0.87495 0.0
C1057 C 0.79441 0.73491 0.92554 0.0
C1058 C 0.92495 0.68866 0.81352 0.0
C1059 C 0.90778 0.68166 0.83013 0.0
C1060 C 0.89354 0.69039 0.8909 0.0
C1061 C 0.82568 0.70457 0.91411 0.0
C1062 C 0.84604 0.69608 0.89826 0.0
C1063 C 0.9094 0.69346 0.85171 0.0
C1064 C 0.8875 0.69029 0.86758 0.0
H1065 H 0.80555 0.69714 0.9672 0.0
H1066 H 0.83437 0.67919 0.93894 0.0
H1067 H 0.87841 0.69481 0.92404 0.0
H1068 H 0.96137 0.73286 0.84429 0.0
H1069 H 0.93142 0.72074 0.87327 0.0
C1070 C 0.27638 0.53843 0.64654 0.0
C1071 C 0.2904 0.54842 0.6661 0.0
C1072 C 0.27946 0.54846 0.62588 0.0
C1073 C 0.27019 0.58478 0.59185 0.0
H1074 H 0.33104 0.62746 0.58229 0.0
C1075 C 0.25379 0.6734 0.55514 0.0
C1076 C 0.27464 0.68506 0.5445 0.0
C1077 C 0.2581 0.65157 0.56396 0.0
C1078 C 0.31398 0.61533 0.58417 0.0
H1079 H 0.31975 0.57565 0.67943 0.0
H1080 H 0.32406 0.59392 0.64407 0.0
H1081 H 0.33697 0.59608 0.60763 0.0
H1082 H 0.31583 0.68281 0.53353 0.0
H1083 H 0.32319 0.64409 0.54817 0.0
H1084 H 0.24744 0.60355 0.56789 0.0
C1085 C 0.31135 0.57796 0.64408 0.0
C1086 C 0.31728 0.59749 0.59908 0.0
C1087 C 0.30867 0.56766 0.66454 0.0
C1088 C 0.29958 0.67421 0.54201 0.0
C1089 C 0.30377 0.65207 0.55044 0.0
C1090 C 0.26711 0.60218 0.57647 0.0
C1091 C 0.29615 0.56898 0.62458 0.0
C1092 C 0.29496 0.58299 0.60423 0.0
C1093 C 0.28322 0.64064 0.56189 0.0
C1094 C 0.28845 0.61864 0.57354 0.0
H1095 H 0.26241 0.52336 0.64734 0.0
H1096 H 0.26795 0.54067 0.61115 0.0
H1097 H 0.25247 0.57397 0.59514 0.0
H1098 H 0.23435 0.68146 0.55723 0.0
H1099 H 0.24196 0.64376 0.57312 0.0
C1100 C 0.27996 0.03235 0.29273 0.0
C1101 C 0.29187 0.01956 0.27495 0.0
C1102 C 0.29277 0.03456 0.31418 0.0
C1103 C 0.34051 0.00541 0.35076 0.0
H1104 H 0.35105 0.06704 0.38308 0.0
C1105 C 0.41796 0.04894 0.42322 0.0
C1106 C 0.41571 0.03293 0.44013 0.0
C1107 C 0.39843 0.04864 0.40553 0.0
C1108 C 0.34797 0.04971 0.37432 0.0
H1109 H 0.32652 -0.00059 0.26521 0.0
H1110 H 0.34913 0.00323 0.30299 0.0
H1111 H 0.32671 0.0636 0.34617 0.0
H1112 H 0.39101 0.00466 0.45252 0.0
H1113 H 0.35684 0.00376 0.42105 0.0
H1114 H 0.36229 0.9916 0.37868 0.0
C1115 C 0.3298 0.01142 0.30029 0.0
C1116 C 0.33407 0.04774 0.35327 0.0
C1117 C 0.3171 0.00945 0.27871 0.0
C1118 C 0.39302 0.01724 0.43967 0.0
C1119 C 0.37364 0.01664 0.42168 0.0
C1120 C 0.35414 0.00734 0.37193 0.0
C1121 C 0.3176 0.02383 0.31822 0.0
C1122 C 0.33076 0.02565 0.34111 0.0
C1123 C 0.37652 0.03206 0.40426 0.0
C1124 C 0.35849 0.02959 0.38366 0.0
H1125 H 0.26044 0.04026 0.29013 0.0
H1126 H 0.28293 0.04413 0.32774 0.0
H1127 H 0.33786 0.98815 0.3418 0.0
H1128 H 0.43533 0.0612 0.42327 0.0
H1129 H 0.40127 0.06056 0.39222 0.0
C1130 C 0.81654 0.81197 0.99553 0.0
C1131 C 0.81019 0.80293 0.01619 0.0
C1132 C 0.83291 0.83258 0.99505 0.0
C1133 C 0.85763 0.88582 0.03039 0.0
H1134 H 0.91327 0.88924 0.98646 0.0
C1135 C 0.93855 0.96215 0.03511 0.0
C1136 C 0.94563 0.97148 0.01479 0.0
C1137 C 0.9222 0.94147 0.03497 0.0
C1138 C 0.89763 0.88869 -0.00133 0.0
H1139 H 0.8161 0.80814 0.05252 0.0
H1140 H 0.84493 0.84402 0.05174 0.0
H1141 H 0.8842 0.85353 0.98677 0.0
H1142 H 0.94089 0.9668 0.97835 0.0
H1143 H 0.91234 0.93063 0.978 0.0
H1144 H 0.87096 0.92095 0.04227 0.0
C1145 C 0.83696 0.83542 0.0359 0.0
C1146 C 0.88096 0.86821 -0.00115 0.0
C1147 C 0.82061 0.81479 0.03636 0.0
C1148 C 0.93612 0.95975 0.99427 0.0
C1149 C 0.91976 0.93903 0.99409 0.0
C1150 C 0.87426 0.90629 0.03019 0.0
C1151 C 0.84332 0.84457 0.01523 0.0
C1152 C 0.86082 0.86648 0.01477 0.0
C1153 C 0.91247 0.9297 0.01446 0.0
C1154 C 0.89456 0.90797 0.0144 0.0
H1155 H 0.80894 0.80305 0.97971 0.0
H1156 H 0.83718 0.83925 0.97886 0.0
H1157 H 0.84203 0.88525 0.04263 0.0
H1158 H 0.94568 0.97082 0.05118 0.0
H1159 H 0.91736 0.93461 0.05096 0.0
C1160 C 0.70396 0.20307 0.46078 0.0
C1161 C 0.71608 0.21217 0.48149 0.0
C1162 C 0.68663 0.18288 0.45977 0.0
C1163 C 0.66395 0.13212 0.49219 0.0
H1164 H 0.59608 0.13756 0.4577 0.0
C1165 C 0.54661 0.09279 0.48817 0.0
C1166 C 0.54986 0.06821 0.487 0.0
C1167 C 0.56886 0.10834 0.48658 0.0
C1168 C 0.61493 0.13575 0.46742 0.0
H1169 H 0.72014 0.20703 0.5173 0.0
H1170 H 0.69002 0.17191 0.51558 0.0
H1171 H 0.632 0.16784 0.45613 0.0
H1172 H 0.57907 0.04058 0.48398 0.0
H1173 H 0.61839 0.068 0.48131 0.0
H1174 H 0.64626 0.10033 0.50404 0.0
C1175 C 0.69409 0.18008 0.50004 0.0
C1176 C 0.63568 0.15298 0.46631 0.0
C1177 C 0.71133 0.20027 0.50104 0.0
C1178 C 0.57603 0.05947 0.48489 0.0
C1179 C 0.59847 0.07514 0.48339 0.0
C1180 C 0.64315 0.11477 0.49323 0.0
C1181 C 0.68109 0.17138 0.47947 0.0
C1182 C 0.66028 0.15163 0.47897 0.0
C1183 C 0.59499 0.09975 0.48383 0.0
C1184 C 0.61819 0.11669 0.48122 0.0
H1185 H 0.70737 0.21185 0.44545 0.0
H1186 H 0.67723 0.17648 0.44361 0.0
H1187 H 0.68276 0.13043 0.50198 0.0
H1188 H 0.52672 0.10007 0.49004 0.0
H1189 H 0.56556 0.12719 0.48749 0.0
C1190 C 0.779 0.43019 0.21028 0.0
C1191 C 0.76962 0.43518 0.23201 0.0
C1192 C 0.79401 0.41014 0.20566 0.0
C1193 C 0.81773 0.35453 0.22857 0.0
H1194 H 0.88675 0.37452 0.20576 0.0
C1195 C 0.91766 0.31116 0.25147 0.0
C1196 C 0.93777 0.30944 0.23549 0.0
C1197 C 0.89376 0.32277 0.24677 0.0
C1198 C 0.86745 0.36836 0.21166 0.0
H1199 H 0.76624 0.42184 0.26525 0.0
H1200 H 0.79268 0.38711 0.25726 0.0
H1201 H 0.84865 0.40045 0.20399 0.0
H1202 H 0.94824 0.31785 0.20175 0.0
H1203 H 0.90638 0.33792 0.19348 0.0
H1204 H 0.83699 0.32275 0.237 0.0
C1205 C 0.78843 0.39861 0.24377 0.0
C1206 C 0.84555 0.38324 0.2106 0.0
C1207 C 0.77347 0.41867 0.24841 0.0
C1208 C 0.9333 0.31918 0.21455 0.0
C1209 C 0.9093 0.33065 0.20979 0.0
C1210 C 0.83965 0.33957 0.22954 0.0
C1211 C 0.7998 0.39469 0.22265 0.0
C1212 C 0.82075 0.37681 0.21969 0.0
C1213 C 0.88937 0.33274 0.22592 0.0
C1214 C 0.86498 0.3467 0.22177 0.0
H1215 H 0.77603 0.44238 0.19715 0.0
H1216 H 0.80221 0.40731 0.18912 0.0
H1217 H 0.79873 0.34905 0.23547 0.0
H1218 H 0.9205 0.30383 0.26776 0.0
H1219 H 0.87905 0.32447 0.25973 0.0
C1220 C 0.05009 0.57742 0.48097 0.0
C1221 C 0.06314 0.55593 0.48294 0.0
C1222 C 0.06536 0.59871 0.48069 0.0
C1223 C 0.13278 0.62253 0.46787 0.0
H1224 H 0.11558 0.67706 0.50686 0.0
C1225 C 0.18586 0.71496 0.46385 0.0
C1226 C 0.19485 0.72631 0.48468 0.0
C1227 C 0.16919 0.6944 0.46305 0.0
C1228 C 0.12062 0.66196 0.4959 0.0
H1229 H 0.10226 0.53974 0.48586 0.0
H1230 H 0.12886 0.57676 0.48498 0.0
H1231 H 0.08721 0.64068 0.50632 0.0
H1232 H 0.1932 0.72539 0.52099 0.0
H1233 H 0.164 0.6895 0.51961 0.0
H1234 H 0.16624 0.64372 0.45752 0.0
C1235 C 0.10689 0.57722 0.48372 0.0
C1236 C 0.10427 0.64123 0.49546 0.0
C1237 C 0.09166 0.55604 0.48431 0.0
C1238 C 0.18676 0.71685 0.5047 0.0
C1239 C 0.16985 0.69646 0.50391 0.0
C1240 C 0.14892 0.64333 0.4681 0.0
C1241 C 0.09393 0.59879 0.48197 0.0
C1242 C 0.11036 0.62122 0.48161 0.0
C1243 C 0.1609 0.68499 0.48308 0.0
C1244 C 0.14317 0.66319 0.48228 0.0
H1245 H 0.02813 0.57778 0.47958 0.0
H1246 H 0.05484 0.61507 0.47915 0.0
H1247 H 0.13784 0.60743 0.45691 0.0
H1248 H 0.19179 0.72194 0.44818 0.0
H1249 H 0.16246 0.68603 0.44676 0.0
C1250 C 0.68954 0.08436 0.78164 0.0
C1251 C 0.70892 0.08083 0.76523 0.0
C1252 C 0.67532 0.10527 0.78311 0.0
C1253 C 0.65311 0.15112 0.74662 0.0
H1254 H 0.62658 0.18015 0.80194 0.0
C1255 C 0.57827 0.22565 0.74361 0.0
C1256 C 0.55499 0.22227 0.75601 0.0
C1257 C 0.6012 0.2125 0.7475 0.0
C1258 C 0.63388 0.17221 0.78638 0.0
H1259 H 0.73004 0.09714 0.7386 0.0
H1260 H 0.70552 0.13373 0.74141 0.0
H1261 H 0.66024 0.14947 0.80385 0.0
H1262 H 0.53808 0.20348 0.78314 0.0
H1263 H 0.57803 0.18016 0.78963 0.0
H1264 H 0.62631 0.17319 0.72909 0.0
C1265 C 0.70083 0.1201 0.75276 0.0
C1266 C 0.6531 0.15467 0.78746 0.0
C1267 C 0.71489 0.09915 0.75118 0.0
C1268 C 0.55565 0.2064 0.77322 0.0
C1269 C 0.57861 0.19316 0.77706 0.0
C1270 C 0.63402 0.16863 0.74554 0.0
C1271 C 0.68034 0.12311 0.76829 0.0
C1272 C 0.66252 0.14364 0.76755 0.0
C1273 C 0.60133 0.19563 0.7638 0.0
C1274 C 0.62383 0.17907 0.76537 0.0
H1275 H 0.68453 0.07062 0.79278 0.0
H1276 H 0.65949 0.10694 0.79511 0.0
H1277 H 0.65951 0.14268 0.73095 0.0
H1278 H 0.57858 0.23802 0.73046 0.0
H1279 H 0.61861 0.21507 0.7373 0.0
C1280 C 0.79611 0.54123 0.16053 0.0
C1281 C 0.76986 0.53333 0.16536 0.0
C1282 C 0.80005 0.55484 0.14209 0.0
C1283 C 0.76626 0.57674 0.0906 0.0
H1284 H 0.8082 0.63455 0.10873 0.0
C1285 C 0.7502 0.66432 0.04898 0.0
C1286 C 0.77269 0.67973 0.04687 0.0
C1287 C 0.75315 0.6435 0.06005 0.0
C1288 C 0.79689 0.61834 0.10313 0.0
H1289 H 0.72741 0.5318 0.15398 0.0
H1290 H 0.73418 0.55575 0.12193 0.0
H1291 H 0.80799 0.60208 0.13346 0.0
H1292 H 0.81602 0.68527 0.05387 0.0
H1293 H 0.82131 0.64871 0.07312 0.0
H1294 H 0.75445 0.59345 0.06056 0.0
C1295 C 0.75179 0.55137 0.13218 0.0
C1296 C 0.79679 0.59967 0.11733 0.0
C1297 C 0.74787 0.53775 0.15061 0.0
C1298 C 0.79833 0.67373 0.05546 0.0
C1299 C 0.80132 0.65285 0.0665 0.0
C1300 C 0.76639 0.59544 0.07636 0.0
C1301 C 0.77778 0.56077 0.12821 0.0
C1302 C 0.78098 0.57888 0.11148 0.0
C1303 C 0.77869 0.63765 0.06917 0.0
C1304 C 0.78119 0.61667 0.08274 0.0
H1305 H 0.81341 0.5379 0.17161 0.0
H1306 H 0.82037 0.56151 0.13922 0.0
H1307 H 0.75415 0.56082 0.08551 0.0
H1308 H 0.7302 0.66856 0.04244 0.0
H1309 H 0.73523 0.63239 0.0621 0.0
C1310 C 0.93887 0.54023 0.43547 0.0
C1311 C 0.95911 0.52337 0.43608 0.0
C1312 C 0.92071 0.54048 0.41676 0.0
C1313 C 0.89187 0.54448 0.37121 0.0
H1314 H 0.86785 0.48399 0.34139 0.0
C1315 C 0.82516 0.53773 0.28863 0.0
C1316 C 0.80569 0.51905 0.28536 0.0
C1317 C 0.84378 0.53877 0.3071 0.0
C1318 C 0.87404 0.50104 0.34967 0.0
H1319 H 0.97695 0.49419 0.41722 0.0
H1320 H 0.94599 0.49518 0.38427 0.0
H1321 H 0.90041 0.48512 0.3733 0.0
H1322 H 0.79018 0.48686 0.29878 0.0
H1323 H 0.82178 0.48919 0.33162 0.0
H1324 H 0.86452 0.56032 0.34819 0.0
C1325 C 0.9435 0.50773 0.3985 0.0
C1326 C 0.89314 0.50172 0.36777 0.0
C1327 C 0.96141 0.50728 0.41732 0.0
C1328 C 0.80487 0.50157 0.30102 0.0
C1329 C 0.82323 0.50277 0.31968 0.0
C1330 C 0.8725 0.54379 0.35326 0.0
C1331 C 0.9226 0.52405 0.39814 0.0
C1332 C 0.90239 0.52345 0.37873 0.0
C1333 C 0.84311 0.52127 0.32285 0.0
C1334 C 0.86339 0.52205 0.34221 0.0
H1335 H 0.93644 0.55274 0.44975 0.0
H1336 H 0.90467 0.55309 0.41725 0.0
H1337 H 0.89871 0.56156 0.37906 0.0
H1338 H 0.8263 0.55137 0.2767 0.0
H1339 H 0.85905 0.55305 0.30874 0.0
C1340 C 0.18369 0.4835 0.70411 0.0
C1341 C 0.19832 0.50443 0.71162 0.0
C1342 C 0.16628 0.48295 0.68485 0.0
C1343 C 0.1239 0.52087 0.65269 0.0
H1344 H 0.12764 0.47342 0.60297 0.0
C1345 C 0.06356 0.52877 0.56887 0.0
C1346 C 0.0534 0.50806 0.55666 0.0
C1347 C 0.08078 0.52746 0.58797 0.0
C1348 C 0.12596 0.48655 0.61686 0.0
H1349 H 0.2067 0.54108 0.70491 0.0
H1350 H 0.17579 0.54025 0.6715 0.0
H1351 H 0.15899 0.47246 0.63588 0.0
H1352 H 0.05289 0.46969 0.55507 0.0
H1353 H 0.08219 0.46733 0.58898 0.0
H1354 H 0.09053 0.53467 0.63427 0.0
C1355 C 0.17787 0.52429 0.68045 0.0
C1356 C 0.14404 0.48605 0.63562 0.0
C1357 C 0.19559 0.52472 0.69946 0.0
C1358 C 0.06053 0.48596 0.5641 0.0
C1359 C 0.07747 0.48464 0.58345 0.0
C1360 C 0.10556 0.52116 0.63416 0.0
C1361 C 0.16293 0.50345 0.67309 0.0
C1362 C 0.14335 0.50339 0.65353 0.0
C1363 C 0.08794 0.50539 0.59557 0.0
C1364 C 0.10656 0.5042 0.61584 0.0
H1365 H 0.18558 0.46762 0.7132 0.0
H1366 H 0.15488 0.46671 0.6795 0.0
H1367 H 0.12273 0.53421 0.6665 0.0
H1368 H 0.05873 0.54608 0.5634 0.0
H1369 H 0.08889 0.54384 0.5965 0.0
C1370 C 0.56991 0.79293 0.17087 0.0
C1371 C 0.57245 0.80565 0.19192 0.0
C1372 C 0.5851 0.79994 0.15306 0.0
C1373 C 0.65056 0.82744 0.14449 0.0
H1374 H 0.62639 0.81775 0.08147 0.0
C1375 C 0.71582 0.78815 0.07611 0.0
C1376 C 0.71336 0.79571 0.05411 0.0
C1377 C 0.69996 0.79781 0.09296 0.0
C1378 C 0.63343 0.82108 0.09895 0.0
H1379 H 0.59152 0.83633 0.21076 0.0
H1380 H 0.61843 0.8485 0.17957 0.0
H1381 H 0.5929 0.81994 0.11049 0.0
H1382 H 0.69339 0.82022 0.03275 0.0
H1383 H 0.66528 0.83686 0.06229 0.0
H1384 H 0.69112 0.82736 0.13301 0.0
C1385 C 0.60474 0.83312 0.17686 0.0
C1386 C 0.61427 0.82213 0.11555 0.0
C1387 C 0.58936 0.82617 0.19465 0.0
C1388 C 0.69566 0.81396 0.04955 0.0
C1389 C 0.67955 0.82347 0.0664 0.0
C1390 C 0.66972 0.82629 0.1279 0.0
C1391 C 0.60321 0.81973 0.15607 0.0
C1392 C 0.62271 0.82429 0.1385 0.0
C1393 C 0.68118 0.81512 0.08813 0.0
C1394 C 0.66133 0.82208 0.10506 0.0
H1395 H 0.55691 0.77707 0.16837 0.0
H1396 H 0.58377 0.78907 0.13734 0.0
H1397 H 0.65769 0.82903 0.16205 0.0
H1398 H 0.72946 0.77427 0.0802 0.0
H1399 H 0.70142 0.79081 0.10949 0.0
C1400 C 0.68058 0.50713 0.20075 0.0
C1401 C 0.68321 0.48754 0.21379 0.0
C1402 C 0.6656 0.50502 0.18026 0.0
C1403 C 0.63827 0.46269 0.13485 0.0
H1404 H 0.59127 0.51433 0.12252 0.0
C1405 C 0.56145 0.46813 0.05666 0.0
C1406 C 0.56156 0.49052 0.04779 0.0
C1407 C 0.57773 0.46449 0.07601 0.0
C1408 C 0.60442 0.49983 0.12568 0.0
H1409 H 0.67233 0.4504 0.21597 0.0
H1410 H 0.64561 0.44671 0.17999 0.0
H1411 H 0.61583 0.51442 0.15887 0.0
H1412 H 0.58045 0.52577 0.05038 0.0
H1413 H 0.60899 0.51933 0.08364 0.0
H1414 H 0.62665 0.44826 0.10129 0.0
C1415 C 0.65548 0.4636 0.18552 0.0
C1416 C 0.61848 0.4999 0.14646 0.0
C1417 C 0.67052 0.46575 0.20612 0.0
C1418 C 0.57968 0.50848 0.05719 0.0
C1419 C 0.59594 0.50482 0.07624 0.0
C1420 C 0.62403 0.4626 0.1139 0.0
C1421 C 0.65274 0.48329 0.17249 0.0
C1422 C 0.63606 0.48167 0.15109 0.0
C1423 C 0.59421 0.4832 0.08644 0.0
C1424 C 0.60756 0.48153 0.10899 0.0
H1425 H 0.68993 0.52419 0.20647 0.0
H1426 H 0.66413 0.52043 0.17044 0.0
H1427 H 0.65171 0.4484 0.13802 0.0
H1428 H 0.54755 0.45407 0.04962 0.0
H1429 H 0.57618 0.44764 0.08358 0.0
C1430 C 0.4471 0.45679 0.03951 0.0
C1431 C 0.45352 0.46643 0.01916 0.0
C1432 C 0.43012 0.43647 0.03942 0.0
C1433 C 0.37751 0.40176 0.00374 0.0
H1434 H 0.39162 0.35315 0.04535 0.0
C1435 C 0.31816 0.31171 -0.0025 0.0
C1436 C 0.31005 0.30286 0.01778 0.0
C1437 C 0.33567 0.33166 -0.00221 0.0
C1438 C 0.38725 0.36669 0.03379 0.0
H1439 H 0.44713 0.46259 0.98278 0.0
H1440 H 0.41821 0.4268 0.98251 0.0
H1441 H 0.42265 0.38766 0.0455 0.0
H1442 H 0.31406 0.30766 0.05424 0.0
H1443 H 0.34478 0.34256 0.0548 0.0
H1444 H 0.34219 0.38073 0.99196 0.0
C1445 C 0.42596 0.435 -0.00141 0.0
C1446 C 0.40503 0.38648 0.03387 0.0
C1447 C 0.44285 0.45533 -0.00129 0.0
C1448 C 0.32 0.31415 0.03836 0.0
C1449 C 0.33766 0.33405 0.03867 0.0
C1450 C 0.35979 0.38195 0.00361 0.0
C1451 C 0.41919 0.42541 0.01895 0.0
C1452 C 0.40039 0.40426 0.01883 0.0
C1453 C 0.34566 0.34305 0.01837 0.0
C1454 C 0.36445 0.36418 0.01863 0.0
H1455 H 0.45496 0.4651 0.05552 0.0
H1456 H 0.42507 0.42976 0.05542 0.0
H1457 H 0.37301 0.41531 0.99221 0.0
H1458 H 0.31119 0.30307 0.98139 0.0
H1459 H 0.34177 0.33792 0.98186 0.0
C1460 C 0.09051 0.21988 0.23414 0.0
C1461 C 0.0755 0.2265 0.25293 0.0
C1462 C 0.10798 0.20102 0.23492 0.0
C1463 C 0.11499 0.14656 0.26429 0.0
H1464 H 0.1823 0.14178 0.23321 0.0
C1465 C 0.18024 0.06412 0.26588 0.0
C1466 C 0.19048 0.05596 0.2452 0.0
C1467 C 0.1678 0.08587 0.26792 0.0
C1468 C 0.16344 0.14286 0.24184 0.0
H1469 H 0.06873 0.22003 0.28786 0.0
H1470 H 0.09963 0.18748 0.28937 0.0
H1471 H 0.15948 0.17946 0.23566 0.0
H1472 H 0.19528 0.06409 0.21034 0.0
H1473 H 0.17329 0.10192 0.21392 0.0
H1474 H 0.11871 0.10997 0.27024 0.0
C1475 C 0.09731 0.19636 0.27383 0.0
C1476 C 0.15043 0.1644 0.24327 0.0
C1477 C 0.07971 0.21506 0.27299 0.0
C1478 C 0.18768 0.06986 0.22653 0.0
C1479 C 0.1753 0.09164 0.22861 0.0
C1480 C 0.12802 0.12509 0.26292 0.0
C1481 C 0.11087 0.18859 0.25457 0.0
C1482 C 0.12595 0.16641 0.25437 0.0
C1483 C 0.16538 0.0999 0.24935 0.0
C1484 C 0.15222 0.12297 0.25151 0.0
H1485 H 0.08764 0.22837 0.21843 0.0
H1486 H 0.11804 0.19537 0.21976 0.0
H1487 H 0.09586 0.14738 0.27255 0.0
H1488 H 0.18213 0.05388 0.2806 0.0
H1489 H 0.16049 0.0919 0.28415 0.0
C1490 C 0.216 0.34779 0.93726 0.0
C1491 C 0.23782 0.34429 0.95249 0.0
C1492 C 0.21391 0.36927 0.92716 0.0
C1493 C 0.20791 0.42022 0.91527 0.0
H1494 H 0.27355 0.44293 0.88884 0.0
C1495 C 0.25011 0.49378 0.85143 0.0
C1496 C 0.2301 0.48952 0.83397 0.0
C1497 C 0.24919 0.48117 0.87083 0.0
C1498 C 0.25514 0.43728 0.89654 0.0
H1499 H 0.27419 0.36046 0.96967 0.0
H1500 H 0.27056 0.39808 0.95197 0.0
H1501 H 0.27577 0.41056 0.91362 0.0
H1502 H 0.19245 0.47025 0.82358 0.0
H1503 H 0.191 0.44796 0.85719 0.0
H1504 H 0.18714 0.44648 0.8975 0.0
C1505 C 0.25519 0.3842 0.94771 0.0
C1506 C 0.25642 0.41864 0.91072 0.0
C1507 C 0.25724 0.36272 0.95784 0.0
C1508 C 0.20814 0.4738 0.83683 0.0
C1509 C 0.20725 0.46114 0.85617 0.0
C1510 C 0.20664 0.43895 0.90112 0.0
C1511 C 0.23364 0.38761 0.9321 0.0
C1512 C 0.23271 0.40947 0.91972 0.0
C1513 C 0.22829 0.46406 0.87301 0.0
C1514 C 0.23012 0.44723 0.89109 0.0
H1515 H 0.20076 0.33382 0.93292 0.0
H1516 H 0.1973 0.37123 0.91494 0.0
H1517 H 0.18939 0.41377 0.9223 0.0
H1518 H 0.26719 0.50595 0.84963 0.0
H1519 H 0.26544 0.4841 0.88369 0.0
C1520 C 0.29387 0.23384 0.92492 0.0
C1521 C 0.29473 0.22629 0.94694 0.0
C1522 C 0.31014 0.22352 0.90872 0.0
C1523 C 0.37564 0.19852 0.90445 0.0
H1524 H 0.35234 0.18917 0.84122 0.0
C1525 C 0.4395 0.22555 0.83241 0.0
C1526 C 0.43623 0.21313 0.81124 0.0
C1527 C 0.42487 0.2183 0.85046 0.0
C1528 C 0.35923 0.1911 0.85883 0.0
H1529 H 0.31244 0.20142 0.96916 0.0
H1530 H 0.34152 0.18368 0.94077 0.0
H1531 H 0.31848 0.19191 0.86978 0.0
H1532 H 0.41693 0.18247 0.79254 0.0
H1533 H 0.3912 0.16981 0.82414 0.0
H1534 H 0.41641 0.19907 0.89337 0.0
C1535 C 0.32804 0.19746 0.93611 0.0
C1536 C 0.33981 0.19285 0.87514 0.0
C1537 C 0.3114 0.20758 0.95227 0.0
C1538 C 0.41955 0.19246 0.80871 0.0
C1539 C 0.40486 0.18522 0.82675 0.0
C1540 C 0.3951 0.19688 0.8881 0.0
C1541 C 0.32781 0.20561 0.9143 0.0
C1542 C 0.34785 0.19766 0.89797 0.0
C1543 C 0.40671 0.19853 0.84758 0.0
C1544 C 0.38702 0.19423 0.86508 0.0
H1545 H 0.28106 0.24811 0.9203 0.0
H1546 H 0.30984 0.23037 0.89211 0.0
H1547 H 0.38236 0.20229 0.92196 0.0
H1548 H 0.45236 0.2415 0.83476 0.0
H1549 H 0.42649 0.22911 0.86622 0.0
C1550 C 0.44267 0.55379 0.94348 0.0
C1551 C 0.44358 0.5314 0.95225 0.0
C1552 C 0.42534 0.55723 0.92468 0.0
C1553 C 0.39532 0.52143 0.87602 0.0
H1554 H 0.34974 0.57437 0.8651 0.0
C1555 C 0.31731 0.5167 0.80218 0.0
C1556 C 0.31585 0.53635 0.78906 0.0
C1557 C 0.33221 0.51832 0.82273 0.0
C1558 C 0.36263 0.55962 0.8679 0.0
H1559 H 0.42563 0.49582 0.95008 0.0
H1560 H 0.39509 0.50193 0.91794 0.0
H1561 H 0.37647 0.57392 0.90098 0.0
H1562 H 0.32848 0.57313 0.78698 0.0
H1563 H 0.35505 0.5759 0.823 0.0
H1564 H 0.38173 0.507 0.84326 0.0
C1565 C 0.4082 0.51661 0.92487 0.0
C1566 C 0.37785 0.55937 0.88837 0.0
C1567 C 0.42557 0.51314 0.94331 0.0
C1568 C 0.32938 0.55773 0.79686 0.0
C1569 C 0.34435 0.55937 0.81749 0.0
C1570 C 0.38022 0.52166 0.85574 0.0
C1571 C 0.40875 0.5383 0.91473 0.0
C1572 C 0.39387 0.53999 0.89275 0.0
C1573 C 0.34614 0.53957 0.83047 0.0
C1574 C 0.36331 0.54049 0.85161 0.0
H1575 H 0.45649 0.56807 0.95018 0.0
H1576 H 0.42605 0.57415 0.91719 0.0
H1577 H 0.40811 0.50656 0.87868 0.0
H1578 H 0.30719 0.49997 0.79646 0.0
H1579 H 0.33292 0.50286 0.83253 0.0
C1580 C 0.68701 0.71054 0.00338 0.0
C1581 C 0.6949 0.71936 0.98304 0.0
C1582 C 0.66941 0.6906 0.0032 0.0
C1583 C 0.61811 0.6553 0.9665 0.0
H1584 H 0.63003 0.60763 0.00949 0.0
C1585 C 0.5595 0.56446 0.96022 0.0
C1586 C 0.55142 0.55559 0.98048 0.0
C1587 C 0.5763 0.58493 0.96054 0.0
C1588 C 0.62623 0.62091 -0.00246 0.0
H1589 H 0.69078 0.71434 0.9466 0.0
H1590 H 0.66032 0.67944 0.94621 0.0
H1591 H 0.66108 0.64211 0.01012 0.0
H1592 H 0.55423 0.56125 0.01696 0.0
H1593 H 0.58317 0.59706 0.01754 0.0
H1594 H 0.58334 0.63399 0.95384 0.0
C1595 C 0.66737 0.68801 0.96233 0.0
C1596 C 0.64404 0.6407 -0.0021 0.0
C1597 C 0.68494 0.70793 0.96253 0.0
C1598 C 0.56006 0.56773 0.00105 0.0
C1599 C 0.57687 0.58813 0.00139 0.0
C1600 C 0.60033 0.63548 0.96611 0.0
C1601 C 0.65928 0.67915 0.98265 0.0
C1602 C 0.64023 0.65814 0.98237 0.0
C1603 C 0.58541 0.59686 0.98116 0.0
C1604 C 0.60418 0.61805 0.98162 0.0
H1605 H 0.69403 0.71928 0.01944 0.0
H1606 H 0.66331 0.68447 0.01917 0.0
H1607 H 0.61429 0.66857 0.95454 0.0
H1608 H 0.55316 0.55541 0.94413 0.0
H1609 H 0.5827 0.59107 0.94466 0.0
C1610 C 0.9201 0.81127 0.7229 0.0
C1611 C 0.92124 0.7949 0.73968 0.0
C1612 C 0.8985 0.82655 0.7215 0.0
C1613 C 0.85062 0.85527 0.75828 0.0
H1614 H 0.81805 0.87592 0.70263 0.0
C1615 C 0.77377 0.92884 0.76013 0.0
C1616 C 0.77789 0.94652 0.74499 0.0
C1617 C 0.78696 0.90748 0.75763 0.0
C1618 C 0.82705 0.87038 0.71829 0.0
H1619 H 0.8997 0.78069 0.7672 0.0
H1620 H 0.86209 0.80729 0.76466 0.0
H1621 H 0.84909 0.8431 0.70127 0.0
H1622 H 0.7982 0.95531 0.71481 0.0
H1623 H 0.82178 0.9183 0.7108 0.0
H1624 H 0.8296 0.88293 0.77533 0.0
C1625 C 0.87811 0.80855 0.75284 0.0
C1626 C 0.84475 0.85159 0.7175 0.0
C1627 C 0.89965 0.79328 0.75424 0.0
C1628 C 0.79464 0.94205 0.72679 0.0
C1629 C 0.80801 0.92075 0.72439 0.0
C1630 C 0.83308 0.87406 0.75906 0.0
C1631 C 0.87767 0.82573 0.73684 0.0
C1632 C 0.85696 0.84407 0.73749 0.0
C1633 C 0.80473 0.90342 0.74005 0.0
C1634 C 0.82136 0.88205 0.73908 0.0
H1635 H 0.93633 0.8129 0.71133 0.0
H1636 H 0.8988 0.83973 0.70908 0.0
H1637 H 0.8601 0.85016 0.77394 0.0
H1638 H 0.76066 0.93159 0.77415 0.0
H1639 H 0.78358 0.89429 0.76971 0.0
C1640 C 0.48993 0.20257 0.6831 0.0
C1641 C 0.4649 0.20669 0.69278 0.0
C1642 C 0.49162 0.18567 0.66503 0.0
C1643 C 0.45272 0.15142 0.61905 0.0
H1644 H 0.50861 0.10561 0.62645 0.0
C1645 C 0.46161 0.06932 0.55602 0.0
C1646 C 0.48802 0.06254 0.55121 0.0
C1647 C 0.4575 0.08675 0.5733 0.0
C1648 C 0.49312 0.11841 0.62387 0.0
H1649 H 0.42184 0.19734 0.69051 0.0
H1650 H 0.42473 0.16802 0.6586 0.0
H1651 H 0.50431 0.13748 0.65537 0.0
H1652 H 0.53084 0.06913 0.56052 0.0
H1653 H 0.52379 0.09963 0.58988 0.0
H1654 H 0.44191 0.13269 0.58727 0.0
C1655 C 0.44303 0.17773 0.66511 0.0
C1656 C 0.49065 0.13666 0.64053 0.0
C1657 C 0.4414 0.19444 0.68338 0.0
C1658 C 0.51016 0.07362 0.56393 0.0
C1659 C 0.5061 0.09112 0.58094 0.0
C1660 C 0.45541 0.13329 0.60218 0.0
C1661 C 0.46827 0.17279 0.6561 0.0
C1662 C 0.47056 0.15345 0.63825 0.0
C1663 C 0.47974 0.0979 0.58598 0.0
C1664 C 0.47581 0.11663 0.60429 0.0
H1665 H 0.50837 0.2118 0.68996 0.0
H1666 H 0.51128 0.18244 0.65822 0.0
H1667 H 0.43707 0.16417 0.61685 0.0
H1668 H 0.44412 0.06111 0.54653 0.0
H1669 H 0.43689 0.09129 0.57684 0.0
C1670 C 0.52641 0.31309 0.79296 0.0
C1671 C 0.50239 0.30049 0.78535 0.0
C1672 C 0.52779 0.32651 0.81356 0.0
C1673 C 0.48409 0.35593 0.85527 0.0
H1674 H 0.55194 0.36351 0.89109 0.0
C1675 C 0.49434 0.41362 0.93945 0.0
C1676 C 0.51648 0.43002 0.94128 0.0
C1677 C 0.49268 0.39546 0.92226 0.0
C1678 C 0.53287 0.36161 0.88123 0.0
H1679 H 0.46104 0.29167 0.79348 0.0
H1680 H 0.46358 0.31461 0.82993 0.0
H1681 H 0.54841 0.33556 0.85801 0.0
H1682 H 0.55465 0.4399 0.92715 0.0
H1683 H 0.55198 0.40793 0.89729 0.0
H1684 H 0.46862 0.38201 0.87864 0.0
C1685 C 0.48127 0.3145 0.81976 0.0
C1686 C 0.53084 0.34564 0.8622 0.0
C1687 C 0.47985 0.30117 0.79899 0.0
C1688 C 0.53742 0.42743 0.92616 0.0
C1689 C 0.5359 0.4091 0.90911 0.0
C1690 C 0.48606 0.37172 0.87445 0.0
C1691 C 0.50522 0.32754 0.82724 0.0
C1692 C 0.50657 0.3429 0.8487 0.0
C1693 C 0.51327 0.39318 0.90672 0.0
C1694 C 0.51061 0.37502 0.88743 0.0
H1695 H 0.54411 0.31296 0.78278 0.0
H1696 H 0.5464 0.33661 0.81844 0.0
H1697 H 0.4652 0.35461 0.84518 0.0
H1698 H 0.47788 0.41525 0.95087 0.0
H1699 H 0.47513 0.38332 0.92097 0.0
C1700 C 0.56298 0.8219 0.32068 0.0
C1701 C 0.53902 0.81181 0.30997 0.0
C1702 C 0.56182 0.83905 0.33859 0.0
C1703 C 0.51441 0.86734 0.37884 0.0
H1704 H 0.56687 0.92008 0.3798 0.0
C1705 C 0.49968 0.95684 0.42786 0.0
C1706 C 0.52161 0.96557 0.44232 0.0
C1707 C 0.50283 0.93766 0.41231 0.0
C1708 C 0.55224 0.90537 0.37982 0.0
H1709 H 0.49504 0.81098 0.31001 0.0
H1710 H 0.49287 0.84139 0.34068 0.0
H1711 H 0.57032 0.88649 0.35239 0.0
H1712 H 0.56429 0.96153 0.45124 0.0
H1713 H 0.56991 0.92832 0.42355 0.0
H1714 H 0.49579 0.88687 0.40576 0.0
C1715 C 0.51266 0.83583 0.33572 0.0
C1716 C 0.55427 0.88601 0.36422 0.0
C1717 C 0.51386 0.81844 0.31803 0.0
C1718 C 0.547 0.95521 0.44035 0.0
C1719 C 0.55025 0.93625 0.4245 0.0
C1720 C 0.51216 0.88687 0.39419 0.0
C1721 C 0.53663 0.84672 0.34597 0.0
C1722 C 0.53529 0.86676 0.36343 0.0
C1723 C 0.52806 0.92704 0.41064 0.0
C1724 C 0.53096 0.90612 0.39473 0.0
H1725 H 0.58266 0.81692 0.31487 0.0
H1726 H 0.58072 0.84654 0.3464 0.0
H1727 H 0.49975 0.85271 0.3791 0.0
H1728 H 0.4798 0.96431 0.42901 0.0
H1729 H 0.48548 0.93105 0.40163 0.0
C1730 C 0.47555 0.58656 0.08166 0.0
C1731 C 0.48643 0.58988 0.06064 0.0
C1732 C 0.47634 0.60499 0.09845 0.0
C1733 C 0.5118 0.66245 0.11647 0.0
H1734 H 0.45391 0.66528 0.15847 0.0
C1735 C 0.47439 0.71983 0.20153 0.0
C1736 C 0.49955 0.72384 0.21334 0.0
C1737 C 0.47255 0.70689 0.18067 0.0
C1738 C 0.47011 0.66519 0.14676 0.0
H1739 H 0.50633 0.61519 0.04047 0.0
H1740 H 0.50697 0.6479 0.06967 0.0
H1741 H 0.44991 0.63728 0.12595 0.0
H1742 H 0.54274 0.71836 0.21234 0.0
H1743 H 0.53953 0.69473 0.17636 0.0
H1744 H 0.53159 0.69099 0.13705 0.0
C1745 C 0.49829 0.63084 0.07335 0.0
C1746 C 0.46801 0.64871 0.1282 0.0
C1747 C 0.49771 0.6122 0.05654 0.0
C1748 C 0.52307 0.71546 0.20353 0.0
C1749 C 0.52119 0.70204 0.18281 0.0
C1750 C 0.51375 0.67924 0.13495 0.0
C1751 C 0.48775 0.62741 0.09461 0.0
C1752 C 0.48905 0.64671 0.11305 0.0
C1753 C 0.49577 0.69711 0.17131 0.0
C1754 C 0.4931 0.6806 0.15058 0.0
H1755 H 0.46698 0.56946 0.0854 0.0
H1756 H 0.4686 0.60139 0.11469 0.0
H1757 H 0.52852 0.66139 0.10527 0.0
H1758 H 0.456 0.72643 0.2086 0.0
H1759 H 0.45274 0.70421 0.17209 0.0
loop_
_geom_bond_atom_site_label_1
_geom_bond_atom_site_label_2
_geom_bond_distance
_geom_bond_site_symmetry_2
_ccdc_geom_bond_type
Tb0 O3 2.448 1_565 S
Tb0 O4 2.591 1_566 S
Tb0 O5 2.375 1_556 S
Tb0 O13 2.346 1_456 S
Tb0 O15 2.350 1_465 S
Tb0 O17 2.431 . S
Tb0 O18 2.519 . S
C1 O5 1.263 . S
C1 O7 1.251 1_565 S
Tb2 O4 2.343 1_655 S
Tb2 O7 2.353 1_655 S
Tb2 O10 2.422 1_655 S
Tb2 O11 2.513 . S
Tb2 O12 2.453 1_545 S
Tb2 O13 2.595 1_545 S
Tb2 O14 2.374 1_554 S
O3 Tb0 2.448 1_545 S
O3 C19 1.211 1_556 S
O4 Tb0 2.591 1_544 S
O4 Tb2 2.343 1_455 S
O4 C19 1.276 . S
O5 Tb0 2.375 1_554 S
O5 C1 1.263 . S
C6 O10 1.270 1_655 S
C6 O11 1.246 . S
O7 C1 1.251 1_545 S
O7 Tb2 2.353 1_455 S
C8 O12 1.245 . S
C8 O13 1.259 . S
C9 O14 1.250 . S
C9 O15 1.263 . S
O10 Tb2 2.422 1_455 S
O10 C6 1.270 1_455 S
O11 Tb2 2.513 . S
O11 C6 1.246 . S
O12 Tb2 2.453 1_565 S
O12 C8 1.245 . S
O13 Tb0 2.346 1_654 S
O13 Tb2 2.595 1_565 S
O13 C8 1.259 . S
O14 Tb2 2.374 1_556 S
O14 C9 1.250 . S
O15 Tb0 2.350 1_645 S
O15 C9 1.263 . S
C16 O17 1.275 . S
C16 O18 1.246 . S
O17 Tb0 2.431 . S
O17 C16 1.275 . S
O18 Tb0 2.519 . S
O18 C16 1.246 . S
C19 O3 1.211 1_554 S
C19 O4 1.276 . S
Tb20 O23 2.453 . S
Tb20 O24 2.596 1_655 S
Tb20 O25 2.374 1_655 S
Tb20 O33 2.343 1_655 S
Tb20 O35 2.353 . S
Tb20 O37 2.427 . S
Tb20 O38 2.513 . S
C21 O25 1.251 . S
C21 O27 1.263 . S
Tb22 O24 2.343 . S
Tb22 O27 2.353 . S
Tb22 O30 2.427 . S
Tb22 O31 2.513 . S
Tb22 O32 2.453 . S
Tb22 O33 2.596 . S
Tb22 O34 2.374 1_455 S
O23 Tb20 2.453 . S
O23 C39 1.245 . S
O24 Tb20 2.596 1_455 S
O24 Tb22 2.343 . S
O24 C39 1.259 1_455 S
O25 Tb20 2.374 1_455 S
O25 C21 1.251 . S
C26 O30 1.275 . S
C26 O31 1.246 . S
O27 C21 1.263 . S
O27 Tb22 2.353 . S
C28 O32 1.245 . S
C28 O33 1.259 . S
C29 O34 1.250 . S
C29 O35 1.263 . S
O30 Tb22 2.427 . S
O30 C26 1.275 . S
O31 Tb22 2.513 . S
O31 C26 1.246 . S
O32 Tb22 2.453 . S
O32 C28 1.245 . S
O33 Tb20 2.343 1_455 S
O33 Tb22 2.596 . S
O33 C28 1.259 . S
O34 Tb22 2.374 1_655 S
O34 C29 1.250 . S
O35 Tb20 2.353 . S
O35 C29 1.263 . S
C36 O37 1.275 . S
C36 O38 1.246 . S
O37 Tb20 2.427 . S
O37 C36 1.275 . S
O38 Tb20 2.513 . S
O38 C36 1.246 . S
C39 O23 1.245 . S
C39 O24 1.259 1_655 S
Tb40 O43 2.453 . S
Tb40 O44 2.596 . S
Tb40 O45 2.374 . S
Tb40 O53 2.343 . S
Tb40 O55 2.353 . S
Tb40 O57 2.427 . S
Tb40 O58 2.513 . S
C41 O45 1.251 . S
C41 O47 1.263 . S
Tb42 O44 2.343 . S
Tb42 O47 2.353 . S
Tb42 O50 2.427 . S
Tb42 O51 2.513 . S
Tb42 O52 2.453 . S
Tb42 O53 2.596 . S
Tb42 O54 2.374 . S
O43 Tb40 2.453 . S
O43 C59 1.245 . S
O44 Tb40 2.596 . S
O44 Tb42 2.343 . S
O44 C59 1.259 . S
O45 Tb40 2.374 . S
O45 C41 1.251 . S
C46 O50 1.275 . S
C46 O51 1.246 . S
O47 C41 1.263 . S
O47 Tb42 2.353 . S
C48 O52 1.245 . S
C48 O53 1.259 . S
C49 O54 1.250 . S
C49 O55 1.263 . S
O50 Tb42 2.427 . S
O50 C46 1.275 . S
O51 Tb42 2.513 . S
O51 C46 1.246 . S
O52 Tb42 2.453 . S
O52 C48 1.245 . S
O53 Tb40 2.343 . S
O53 Tb42 2.596 . S
O53 C48 1.259 . S
O54 Tb42 2.374 . S
O54 C49 1.250 . S
O55 Tb40 2.353 . S
O55 C49 1.263 . S
C56 O57 1.275 . S
C56 O58 1.246 . S
O57 Tb40 2.427 . S
O57 C56 1.275 . S
O58 Tb40 2.513 . S
O58 C56 1.246 . S
C59 O43 1.245 . S
C59 O44 1.259 . S
Tb60 O63 2.453 . S
Tb60 O64 2.596 . S
Tb60 O65 2.374 . S
Tb60 O73 2.343 . S
Tb60 O75 2.353 . S
Tb60 O77 2.427 . S
Tb60 O78 2.513 . S
C61 O65 1.251 1_565 S
C61 O67 1.263 . S
Tb62 O64 2.343 1_565 S
Tb62 O67 2.353 . S
Tb62 O70 2.427 . S
Tb62 O71 2.513 . S
Tb62 O72 2.453 . S
Tb62 O73 2.596 1_565 S
Tb62 O74 2.374 1_565 S
O63 Tb60 2.453 . S
O63 C79 1.245 . S
O64 Tb60 2.596 . S
O64 Tb62 2.343 1_545 S
O64 C79 1.259 . S
O65 Tb60 2.374 . S
O65 C61 1.251 1_545 S
C66 O70 1.275 . S
C66 O71 1.246 . S
O67 C61 1.263 . S
O67 Tb62 2.353 . S
C68 O72 1.245 1_545 S
C68 O73 1.259 . S
C69 O74 1.250 . S
C69 O75 1.263 . S
O70 Tb62 2.427 . S
O70 C66 1.275 . S
O71 Tb62 2.513 . S
O71 C66 1.246 . S
O72 Tb62 2.453 . S
O72 C68 1.245 1_565 S
O73 Tb60 2.343 . S
O73 Tb62 2.596 1_545 S
O73 C68 1.259 . S
O74 Tb62 2.374 1_545 S
O74 C69 1.250 . S
O75 Tb60 2.353 . S
O75 C69 1.263 . S
C76 O77 1.275 . S
C76 O78 1.246 . S
O77 Tb60 2.427 . S
O77 C76 1.275 . S
O78 Tb60 2.513 . S
O78 C76 1.246 . S
C79 O63 1.245 . S
C79 O64 1.259 . S
Tb80 O83 2.453 . S
Tb80 O84 2.596 . S
Tb80 O85 2.374 . S
Tb80 O93 2.343 . S
Tb80 O95 2.353 . S
Tb80 O97 2.427 . S
Tb80 O98 2.513 . S
C81 O85 1.251 . S
C81 O87 1.263 . S
Tb82 O84 2.343 . S
Tb82 O87 2.353 . S
Tb82 O90 2.427 . S
Tb82 O91 2.513 . S
Tb82 O92 2.453 . S
Tb82 O93 2.596 . S
Tb82 O94 2.374 . S
O83 Tb80 2.453 . S
O83 C99 1.245 . S
O84 Tb80 2.596 . S
O84 Tb82 2.343 . S
O84 C99 1.259 . S
O85 Tb80 2.374 . S
O85 C81 1.251 . S
C86 O90 1.275 . S
C86 O91 1.246 . S
O87 C81 1.263 . S
O87 Tb82 2.353 . S
C88 O92 1.245 . S
C88 O93 1.259 . S
C89 O94 1.250 . S
C89 O95 1.263 . S
O90 Tb82 2.427 . S
O90 C86 1.275 . S
O91 Tb82 2.513 . S
O91 C86 1.246 . S
O92 Tb82 2.453 . S
O92 C88 1.245 . S
O93 Tb80 2.343 . S
O93 Tb82 2.596 . S
O93 C88 1.259 . S
O94 Tb82 2.374 . S
O94 C89 1.250 . S
O95 Tb80 2.353 . S
O95 C89 1.263 . S
C96 O97 1.275 . S
C96 O98 1.246 . S
O97 Tb80 2.427 . S
O97 C96 1.275 . S
O98 Tb80 2.513 . S
O98 C96 1.246 . S
C99 O83 1.245 . S
C99 O84 1.259 . S
Tb100 O103 2.453 . S
Tb100 O104 2.596 . S
Tb100 O105 2.374 . S
Tb100 O113 2.343 . S
Tb100 O115 2.353 . S
Tb100 O117 2.427 . S
Tb100 O118 2.513 . S
C101 O105 1.251 . S
C101 O107 1.263 . S
Tb102 O104 2.343 . S
Tb102 O107 2.353 . S
Tb102 O110 2.427 . S
Tb102 O111 2.513 . S
Tb102 O112 2.453 . S
Tb102 O113 2.596 . S
Tb102 O114 2.374 . S
O103 Tb100 2.453 . S
O103 C119 1.245 . S
O104 Tb100 2.596 . S
O104 Tb102 2.343 . S
O104 C119 1.259 . S
O105 Tb100 2.374 . S
O105 C101 1.251 . S
C106 O110 1.275 . S
C106 O111 1.246 . S
O107 C101 1.263 . S
O107 Tb102 2.353 . S
C108 O112 1.245 . S
C108 O113 1.259 . S
C109 O114 1.250 . S
C109 O115 1.263 . S
O110 Tb102 2.427 . S
O110 C106 1.275 . S
O111 Tb102 2.513 . S
O111 C106 1.246 . S
O112 Tb102 2.453 . S
O112 C108 1.245 . S
O113 Tb100 2.343 . S
O113 Tb102 2.596 . S
O113 C108 1.259 . S
O114 Tb102 2.374 . S
O114 C109 1.250 . S
O115 Tb100 2.353 . S
O115 C109 1.263 . S
C116 O117 1.275 . S
C116 O118 1.246 . S
O117 Tb100 2.427 . S
O117 C116 1.275 . S
O118 Tb100 2.513 . S
O118 C116 1.246 . S
C119 O103 1.245 . S
C119 O104 1.259 . S
Tb120 O123 2.453 . S
Tb120 O124 2.596 . S
Tb120 O125 2.374 . S
Tb120 O133 2.343 . S
Tb120 O135 2.353 . S
Tb120 O137 2.427 . S
Tb120 O138 2.513 . S
C121 O125 1.251 . S
C121 O127 1.263 . S
Tb122 O124 2.343 . S
Tb122 O127 2.353 . S
Tb122 O130 2.427 . S
Tb122 O131 2.513 . S
Tb122 O132 2.453 . S
Tb122 O133 2.596 . S
Tb122 O134 2.374 . S
O123 Tb120 2.453 . S
O123 C139 1.245 . S
O124 Tb120 2.596 . S
O124 Tb122 2.343 . S
O124 C139 1.259 . S
O125 Tb120 2.374 . S
O125 C121 1.251 . S
C126 O130 1.275 . S
C126 O131 1.246 . S
O127 C121 1.263 . S
O127 Tb122 2.353 . S
C128 O132 1.245 . S
C128 O133 1.259 . S
C129 O134 1.250 . S
C129 O135 1.263 . S
O130 Tb122 2.427 . S
O130 C126 1.275 . S
O131 Tb122 2.513 . S
O131 C126 1.246 . S
O132 Tb122 2.453 . S
O132 C128 1.245 . S
O133 Tb120 2.343 . S
O133 Tb122 2.596 . S
O133 C128 1.259 . S
O134 Tb122 2.374 . S
O134 C129 1.250 . S
O135 Tb120 2.353 . S
O135 C129 1.263 . S
C136 O137 1.275 . S
C136 O138 1.246 . S
O137 Tb120 2.427 . S
O137 C136 1.275 . S
O138 Tb120 2.513 . S
O138 C136 1.246 . S
C139 O123 1.245 . S
C139 O124 1.259 . S
Tb140 O143 2.453 . S
Tb140 O144 2.596 . S
Tb140 O145 2.374 . S
Tb140 O153 2.343 1_455 S
Tb140 O155 2.353 1_455 S
Tb140 O157 2.427 . S
Tb140 O158 2.513 . S
C141 O145 1.251 . S
C141 O147 1.263 . S
Tb142 O144 2.343 1_655 S
Tb142 O147 2.353 1_655 S
Tb142 O150 2.427 1_655 S
Tb142 O151 2.513 . S
Tb142 O152 2.453 . S
Tb142 O153 2.596 . S
Tb142 O154 2.374 . S
O143 Tb140 2.453 . S
O143 C159 1.245 . S
O144 Tb140 2.596 . S
O144 Tb142 2.343 1_455 S
O144 C159 1.259 . S
O145 Tb140 2.374 . S
O145 C141 1.251 . S
C146 O150 1.275 1_655 S
C146 O151 1.246 . S
O147 C141 1.263 . S
O147 Tb142 2.353 1_455 S
C148 O152 1.245 . S
C148 O153 1.259 . S
C149 O154 1.250 . S
C149 O155 1.263 . S
O150 Tb142 2.427 1_455 S
O150 C146 1.275 1_455 S
O151 Tb142 2.513 . S
O151 C146 1.246 . S
O152 Tb142 2.453 . S
O152 C148 1.245 . S
O153 Tb140 2.343 1_655 S
O153 Tb142 2.596 . S
O153 C148 1.259 . S
O154 Tb142 2.374 . S
O154 C149 1.250 . S
O155 Tb140 2.353 1_655 S
O155 C149 1.263 . S
C156 O157 1.275 . S
C156 O158 1.246 . S
O157 Tb140 2.427 . S
O157 C156 1.275 . S
O158 Tb140 2.513 . S
O158 C156 1.246 . S
C159 O143 1.245 . S
C159 O144 1.259 . S
Tb160 O163 2.453 . S
Tb160 O164 2.596 1_556 S
Tb160 O165 2.374 1_556 S
Tb160 O173 2.337 1_556 S
Tb160 O175 2.353 . S
Tb160 O177 2.427 . S
Tb160 O178 2.513 . S
C161 O165 1.251 . S
C161 O167 1.263 . S
Tb162 O164 2.343 . S
Tb162 O167 2.353 . S
Tb162 O170 2.427 . S
Tb162 O171 2.513 . S
Tb162 O172 2.453 . S
Tb162 O173 2.604 . S
Tb162 O174 2.374 1_554 S
O163 Tb160 2.453 . S
O163 C179 1.245 . S
O164 Tb160 2.596 1_554 S
O164 Tb162 2.343 . S
O164 C179 1.259 1_554 S
O165 Tb160 2.374 1_554 S
O165 C161 1.251 . S
C166 O170 1.275 . S
C166 O171 1.246 . S
O167 C161 1.263 . S
O167 Tb162 2.353 . S
C168 O172 1.245 . S
C168 O173 1.263 . S
C169 O174 1.250 . S
C169 O175 1.263 . S
O170 Tb162 2.427 . S
O170 C166 1.275 . S
O171 Tb162 2.513 . S
O171 C166 1.246 . S
O172 Tb162 2.453 . S
O172 C168 1.245 . S
O173 Tb160 2.337 1_554 S
O173 Tb162 2.604 . S
O173 C168 1.263 . S
O174 Tb162 2.374 1_556 S
O174 C169 1.250 . S
O175 Tb160 2.353 . S
O175 C169 1.263 . S
C176 O177 1.275 . S
C176 O178 1.246 . S
O177 Tb160 2.427 . S
O177 C176 1.275 . S
O178 Tb160 2.513 . S
O178 C176 1.246 . S
C179 O163 1.245 . S
C179 O164 1.259 1_556 S
Tb180 O183 2.453 . S
Tb180 O184 2.596 . S
Tb180 O185 2.374 1_545 S
Tb180 O193 2.343 . S
Tb180 O195 2.353 . S
Tb180 O197 2.427 . S
Tb180 O198 2.513 . S
C181 O185 1.251 . S
C181 O187 1.263 . S
Tb182 O184 2.343 1_565 S
Tb182 O187 2.353 . S
Tb182 O190 2.427 . S
Tb182 O191 2.513 . S
Tb182 O192 2.453 . S
Tb182 O193 2.596 1_565 S
Tb182 O194 2.374 1_565 S
O183 Tb180 2.453 . S
O183 C199 1.245 . S
O184 Tb180 2.596 . S
O184 Tb182 2.343 1_545 S
O184 C199 1.259 . S
O185 Tb180 2.374 1_565 S
O185 C181 1.251 . S
C186 O190 1.275 . S
C186 O191 1.246 . S
O187 C181 1.263 . S
O187 Tb182 2.353 . S
C188 O192 1.245 . S
C188 O193 1.259 1_565 S
C189 O194 1.250 . S
C189 O195 1.263 . S
O190 Tb182 2.427 . S
O190 C186 1.275 . S
O191 Tb182 2.513 . S
O191 C186 1.246 . S
O192 Tb182 2.453 . S
O192 C188 1.245 . S
O193 Tb180 2.343 . S
O193 Tb182 2.596 1_545 S
O193 C188 1.259 1_545 S
O194 Tb182 2.374 1_545 S
O194 C189 1.250 . S
O195 Tb180 2.353 . S
O195 C189 1.263 . S
C196 O197 1.275 . S
C196 O198 1.246 . S
O197 Tb180 2.427 . S
O197 C196 1.275 . S
O198 Tb180 2.513 . S
O198 C196 1.246 . S
C199 O183 1.245 . S
C199 O184 1.259 . S
Tb200 O203 2.453 . S
Tb200 O204 2.596 . S
Tb200 O205 2.374 . S
Tb200 O213 2.343 . S
Tb200 O215 2.353 . S
Tb200 O217 2.427 . S
Tb200 O218 2.513 . S
C201 O205 1.251 . S
C201 O207 1.263 . S
Tb202 O204 2.343 . S
Tb202 O207 2.353 . S
Tb202 O210 2.427 . S
Tb202 O211 2.513 . S
Tb202 O212 2.453 . S
Tb202 O213 2.596 . S
Tb202 O214 2.374 . S
O203 Tb200 2.453 . S
O203 C219 1.245 . S
O204 Tb200 2.596 . S
O204 Tb202 2.343 . S
O204 C219 1.259 . S
O205 Tb200 2.374 . S
O205 C201 1.251 . S
C206 O210 1.275 . S
C206 O211 1.246 . S
O207 C201 1.263 . S
O207 Tb202 2.353 . S
C208 O212 1.245 . S
C208 O213 1.259 . S
C209 O214 1.250 . S
C209 O215 1.263 . S
O210 Tb202 2.427 . S
O210 C206 1.275 . S
O211 Tb202 2.513 . S
O211 C206 1.246 . S
O212 Tb202 2.453 . S
O212 C208 1.245 . S
O213 Tb200 2.343 . S
O213 Tb202 2.596 . S
O213 C208 1.259 . S
O214 Tb202 2.374 . S
O214 C209 1.250 . S
O215 Tb200 2.353 . S
O215 C209 1.263 . S
C216 O217 1.275 . S
C216 O218 1.246 . S
O217 Tb200 2.427 . S
O217 C216 1.275 . S
O218 Tb200 2.513 . S
O218 C216 1.246 . S
C219 O203 1.245 . S
C219 O204 1.259 . S
Tb220 O223 2.453 . S
Tb220 O224 2.596 1_655 S
Tb220 O225 2.374 1_655 S
Tb220 O233 2.343 1_655 S
Tb220 O235 2.353 . S
Tb220 O237 2.427 . S
Tb220 O238 2.513 . S
C221 O225 1.251 . S
C221 O227 1.263 . S
Tb222 O224 2.343 . S
Tb222 O227 2.353 . S
Tb222 O230 2.427 . S
Tb222 O231 2.513 . S
Tb222 O232 2.453 . S
Tb222 O233 2.596 . S
Tb222 O234 2.374 1_455 S
O223 Tb220 2.453 . S
O223 C239 1.245 . S
O224 Tb220 2.596 1_455 S
O224 Tb222 2.343 . S
O224 C239 1.259 1_455 S
O225 Tb220 2.374 1_455 S
O225 C221 1.251 . S
C226 O230 1.275 . S
C226 O231 1.246 . S
O227 C221 1.263 . S
O227 Tb222 2.353 . S
C228 O232 1.245 . S
C228 O233 1.259 . S
C229 O234 1.250 . S
C229 O235 1.263 . S
O230 Tb222 2.427 . S
O230 C226 1.275 . S
O231 Tb222 2.513 . S
O231 C226 1.246 . S
O232 Tb222 2.453 . S
O232 C228 1.245 . S
O233 Tb220 2.343 1_455 S
O233 Tb222 2.596 . S
O233 C228 1.259 . S
O234 Tb222 2.374 1_655 S
O234 C229 1.250 . S
O235 Tb220 2.353 . S
O235 C229 1.263 . S
C236 O237 1.275 . S
C236 O238 1.246 . S
O237 Tb220 2.427 . S
O237 C236 1.275 . S
O238 Tb220 2.513 . S
O238 C236 1.246 . S
C239 O223 1.245 . S
C239 O224 1.259 1_655 S
Tb240 O243 2.453 . S
Tb240 O244 2.596 . S
Tb240 O245 2.374 . S
Tb240 O253 2.343 . S
Tb240 O255 2.353 . S
Tb240 O257 2.427 . S
Tb240 O258 2.513 . S
C241 O245 1.251 . S
C241 O247 1.263 . S
Tb242 O244 2.343 . S
Tb242 O247 2.353 . S
Tb242 O250 2.427 . S
Tb242 O251 2.513 . S
Tb242 O252 2.453 . S
Tb242 O253 2.596 . S
Tb242 O254 2.374 . S
O243 Tb240 2.453 . S
O243 C259 1.245 . S
O244 Tb240 2.596 . S
O244 Tb242 2.343 . S
O244 C259 1.259 . S
O245 Tb240 2.374 . S
O245 C241 1.251 . S
C246 O250 1.275 . S
C246 O251 1.246 . S
O247 C241 1.263 . S
O247 Tb242 2.353 . S
C248 O252 1.245 . S
C248 O253 1.259 . S
C249 O254 1.250 . S
C249 O255 1.263 . S
O250 Tb242 2.427 . S
O250 C246 1.275 . S
O251 Tb242 2.513 . S
O251 C246 1.246 . S
O252 Tb242 2.453 . S
O252 C248 1.245 . S
O253 Tb240 2.343 . S
O253 Tb242 2.596 . S
O253 C248 1.259 . S
O254 Tb242 2.374 . S
O254 C249 1.250 . S
O255 Tb240 2.353 . S
O255 C249 1.263 . S
C256 O257 1.275 . S
C256 O258 1.246 . S
O257 Tb240 2.427 . S
O257 C256 1.275 . S
O258 Tb240 2.513 . S
O258 C256 1.246 . S
C259 O243 1.245 . S
C259 O244 1.259 . S
Tb260 O263 2.453 . S
Tb260 O264 2.596 1_556 S
Tb260 O265 2.374 1_556 S
Tb260 O273 2.343 1_556 S
Tb260 O275 2.353 . S
Tb260 O277 2.427 . S
Tb260 O278 2.513 . S
C261 O265 1.251 . S
C261 O267 1.263 . S
Tb262 O264 2.343 . S
Tb262 O267 2.353 . S
Tb262 O270 2.427 . S
Tb262 O271 2.513 . S
Tb262 O272 2.453 . S
Tb262 O273 2.596 . S
Tb262 O274 2.374 1_554 S
O263 Tb260 2.453 . S
O263 C279 1.277 . S
O264 Tb260 2.596 1_554 S
O264 Tb262 2.343 . S
O264 C279 1.248 1_554 S
O265 Tb260 2.374 1_554 S
O265 C261 1.251 . S
C266 O270 1.275 . S
C266 O271 1.246 . S
O267 C261 1.263 . S
O267 Tb262 2.353 . S
C268 O272 1.245 . S
C268 O273 1.259 . S
C269 O274 1.250 . S
C269 O275 1.263 . S
O270 Tb262 2.427 . S
O270 C266 1.275 . S
O271 Tb262 2.513 . S
O271 C266 1.246 . S
O272 Tb262 2.453 . S
O272 C268 1.245 . S
O273 Tb260 2.343 1_554 S
O273 Tb262 2.596 . S
O273 C268 1.259 . S
O274 Tb262 2.374 1_556 S
O274 C269 1.250 . S
O275 Tb260 2.353 . S
O275 C269 1.263 . S
C276 O277 1.275 . S
C276 O278 1.246 . S
O277 Tb260 2.427 . S
O277 C276 1.275 . S
O278 Tb260 2.513 . S
O278 C276 1.246 . S
C279 O263 1.277 . S
C279 O264 1.248 1_556 S
Tb280 O283 2.453 . S
Tb280 O284 2.596 . S
Tb280 O285 2.374 . S
Tb280 O293 2.343 1_565 S
Tb280 O295 2.353 1_565 S
Tb280 O297 2.427 1_565 S
Tb280 O298 2.513 . S
C281 O285 1.251 . S
C281 O287 1.263 . S
Tb282 O284 2.343 1_545 S
Tb282 O287 2.353 1_545 S
Tb282 O290 2.427 . S
Tb282 O291 2.513 . S
Tb282 O292 2.453 . S
Tb282 O293 2.596 . S
Tb282 O294 2.374 . S
O283 Tb280 2.453 . S
O283 C299 1.245 . S
O284 Tb280 2.596 . S
O284 Tb282 2.343 1_565 S
O284 C299 1.259 . S
O285 Tb280 2.374 . S
O285 C281 1.251 . S
C286 O290 1.275 . S
C286 O291 1.246 . S
O287 C281 1.263 . S
O287 Tb282 2.353 1_565 S
C288 O292 1.245 . S
C288 O293 1.259 . S
C289 O294 1.250 . S
C289 O295 1.263 . S
O290 Tb282 2.427 . S
O290 C286 1.275 . S
O291 Tb282 2.513 . S
O291 C286 1.246 . S
O292 Tb282 2.453 . S
O292 C288 1.245 . S
O293 Tb280 2.343 1_545 S
O293 Tb282 2.596 . S
O293 C288 1.259 . S
O294 Tb282 2.374 . S
O294 C289 1.250 . S
O295 Tb280 2.353 1_545 S
O295 C289 1.263 . S
C296 O297 1.275 . S
C296 O298 1.246 1_545 S
O297 Tb280 2.427 1_545 S
O297 C296 1.275 . S
O298 Tb280 2.513 . S
O298 C296 1.246 1_565 S
C299 O283 1.245 . S
C299 O284 1.259 . S
Tb300 O303 2.453 . S
Tb300 O304 2.596 1_556 S
Tb300 O305 2.374 1_556 S
Tb300 O313 2.337 1_556 S
Tb300 O315 2.353 . S
Tb300 O317 2.427 . S
Tb300 O318 2.513 . S
C301 O305 1.251 . S
C301 O307 1.263 . S
Tb302 O304 2.343 . S
Tb302 O307 2.353 . S
Tb302 O310 2.427 . S
Tb302 O311 2.513 . S
Tb302 O312 2.453 . S
Tb302 O313 2.601 . S
Tb302 O314 2.374 1_554 S
O303 Tb300 2.453 . S
O303 C319 1.231 1_556 S
O304 Tb300 2.596 1_554 S
O304 Tb302 2.343 . S
O304 C319 1.266 . S
O305 Tb300 2.374 1_554 S
O305 C301 1.251 . S
C306 O310 1.275 . S
C306 O311 1.246 . S
O307 C301 1.263 . S
O307 Tb302 2.353 . S
C308 O312 1.245 . S
C308 O313 1.263 . S
C309 O314 1.250 . S
C309 O315 1.263 . S
O310 Tb302 2.427 . S
O310 C306 1.275 . S
O311 Tb302 2.513 . S
O311 C306 1.246 . S
O312 Tb302 2.453 . S
O312 C308 1.245 . S
O313 Tb300 2.337 1_554 S
O313 Tb302 2.601 . S
O313 C308 1.263 . S
O314 Tb302 2.374 1_556 S
O314 C309 1.250 . S
O315 Tb300 2.353 . S
O315 C309 1.263 . S
C316 O317 1.275 . S
C316 O318 1.246 . S
O317 Tb300 2.427 . S
O317 C316 1.275 . S
O318 Tb300 2.513 . S
O318 C316 1.246 . S
C319 O303 1.231 1_554 S
C319 O304 1.266 . S
C320 C321 1.349 . S
C320 C322 1.327 . S
C320 H345 0.950 . S
C321 C320 1.349 . S
C321 C337 1.349 1_655 S
C322 C320 1.327 . S
C322 C341 1.429 . S
C322 H346 0.950 . S
C323 C340 1.574 . S
C323 C342 1.368 1_455 S
C323 H347 0.949 . S
H324 C328 0.949 . S
C325 C326 1.349 . S
C325 C327 1.327 . S
C325 H348 0.950 . S
C326 C325 1.349 . S
C326 C338 1.349 1_455 S
C327 C325 1.327 . S
C327 C343 1.422 1_455 S
C327 H349 0.950 . S
C328 H324 0.949 . S
C328 C336 1.574 . S
C328 C344 1.368 . S
H329 C337 0.950 . S
H330 C335 0.950 . S
H331 C336 0.949 . S
H332 C338 0.950 . S
H333 C339 0.950 . S
H334 C340 0.949 . S
C335 H330 0.950 . S
C335 C337 1.327 . S
C335 C341 1.429 1_455 S
C336 C328 1.574 . S
C336 H331 0.949 . S
C336 C342 1.368 . S
C337 C321 1.349 1_455 S
C337 H329 0.950 . S
C337 C335 1.327 . S
C338 C326 1.349 1_655 S
C338 H332 0.950 . S
C338 C339 1.327 . S
C339 H333 0.950 . S
C339 C338 1.327 . S
C339 C343 1.436 . S
C340 C323 1.574 . S
C340 H334 0.949 . S
C340 C344 1.368 1_455 S
C341 C322 1.429 . S
C341 C335 1.429 1_655 S
C341 C342 1.523 . S
C342 C323 1.368 1_655 S
C342 C336 1.368 . S
C342 C341 1.523 . S
C343 C327 1.422 1_655 S
C343 C339 1.436 . S
C343 C344 1.523 . S
C344 C328 1.368 . S
C344 C340 1.368 1_655 S
C344 C343 1.523 . S
H345 C320 0.950 . S
H346 C322 0.950 . S
H347 C323 0.949 . S
H348 C325 0.950 . S
H349 C327 0.950 . S
C350 C351 1.349 . S
C350 C352 1.327 . S
C350 H375 0.950 . S
C351 C350 1.349 . S
C351 C367 1.349 . S
C352 C350 1.327 . S
C352 C371 1.429 . S
C352 H376 0.950 . S
C353 C370 1.574 . S
C353 C372 1.368 . S
C353 H377 0.949 . S
H354 C358 0.949 . S
C355 C356 1.349 . S
C355 C357 1.327 . S
C355 H378 0.950 . S
C356 C355 1.349 . S
C356 C368 1.349 . S
C357 C355 1.327 . S
C357 C373 1.429 . S
C357 H379 0.950 . S
C358 H354 0.949 . S
C358 C366 1.574 . S
C358 C374 1.368 . S
H359 C367 0.950 . S
H360 C365 0.950 . S
H361 C366 0.949 . S
H362 C368 0.950 . S
H363 C369 0.950 . S
H364 C370 0.949 . S
C365 H360 0.950 . S
C365 C367 1.327 . S
C365 C371 1.429 . S
C366 C358 1.574 . S
C366 H361 0.949 . S
C366 C372 1.368 . S
C367 C351 1.349 . S
C367 H359 0.950 . S
C367 C365 1.327 . S
C368 C356 1.349 . S
C368 H362 0.950 . S
C368 C369 1.327 . S
C369 H363 0.950 . S
C369 C368 1.327 . S
C369 C373 1.429 . S
C370 C353 1.574 . S
C370 H364 0.949 . S
C370 C374 1.368 . S
C371 C352 1.429 . S
C371 C365 1.429 . S
C371 C372 1.523 . S
C372 C353 1.368 . S
C372 C366 1.368 . S
C372 C371 1.523 . S
C373 C357 1.429 . S
C373 C369 1.429 . S
C373 C374 1.523 . S
C374 C358 1.368 . S
C374 C370 1.368 . S
C374 C373 1.523 . S
H375 C350 0.950 . S
H376 C352 0.950 . S
H377 C353 0.949 . S
H378 C355 0.950 . S
H379 C357 0.950 . S
C380 C381 1.349 . S
C380 C382 1.327 . S
C380 H405 0.950 . S
C381 C380 1.349 . S
C381 C397 1.349 . S
C382 C380 1.327 . S
C382 C401 1.429 . S
C382 H406 0.950 . S
C383 C400 1.574 . S
C383 C402 1.368 . S
C383 H407 0.949 . S
H384 C388 0.949 . S
C385 C386 1.349 . S
C385 C387 1.327 . S
C385 H408 0.950 . S
C386 C385 1.349 . S
C386 C398 1.349 . S
C387 C385 1.327 . S
C387 C403 1.429 . S
C387 H409 0.950 . S
C388 H384 0.949 . S
C388 C396 1.574 . S
C388 C404 1.368 . S
H389 C397 0.950 . S
H390 C395 0.950 . S
H391 C396 0.949 . S
H392 C398 0.950 . S
H393 C399 0.950 . S
H394 C400 0.949 . S
C395 H390 0.950 . S
C395 C397 1.327 . S
C395 C401 1.429 . S
C396 C388 1.574 . S
C396 H391 0.949 . S
C396 C402 1.368 . S
C397 C381 1.349 . S
C397 H389 0.950 . S
C397 C395 1.327 . S
C398 C386 1.349 . S
C398 H392 0.950 . S
C398 C399 1.327 . S
C399 H393 0.950 . S
C399 C398 1.327 . S
C399 C403 1.429 . S
C400 C383 1.574 . S
C400 H394 0.949 . S
C400 C404 1.368 . S
C401 C382 1.429 . S
C401 C395 1.429 . S
C401 C402 1.523 . S
C402 C383 1.368 . S
C402 C396 1.368 . S
C402 C401 1.523 . S
C403 C387 1.429 . S
C403 C399 1.429 . S
C403 C404 1.523 . S
C404 C388 1.368 . S
C404 C400 1.368 . S
C404 C403 1.523 . S
H405 C380 0.950 . S
H406 C382 0.950 . S
H407 C383 0.949 . S
H408 C385 0.950 . S
H409 C387 0.950 . S
C410 C411 1.349 . S
C410 C412 1.327 . S
C410 H435 0.950 . S
C411 C410 1.349 . S
C411 C427 1.349 . S
C412 C410 1.327 . S
C412 C431 1.429 . S
C412 H436 0.950 . S
C413 C430 1.574 . S
C413 C432 1.368 . S
C413 H437 0.949 1_545 S
H414 C418 0.949 . S
C415 C416 1.349 . S
C415 C417 1.327 . S
C415 H438 0.950 1_545 S
C416 C415 1.349 . S
C416 C428 1.349 . S
C417 C415 1.327 . S
C417 C433 1.429 . S
C417 H439 0.950 1_545 S
C418 H414 0.949 . S
C418 C426 1.574 . S
C418 C434 1.368 . S
H419 C427 0.950 1_565 S
H420 C425 0.950 1_565 S
H421 C426 0.949 . S
H422 C428 0.950 . S
H423 C429 0.950 . S
H424 C430 0.949 1_565 S
C425 H420 0.950 1_545 S
C425 C427 1.327 . S
C425 C431 1.429 . S
C426 C418 1.574 . S
C426 H421 0.949 . S
C426 C432 1.368 . S
C427 C411 1.349 . S
C427 H419 0.950 1_545 S
C427 C425 1.327 . S
C428 C416 1.349 . S
C428 H422 0.950 . S
C428 C429 1.327 . S
C429 H423 0.950 . S
C429 C428 1.327 . S
C429 C433 1.429 . S
C430 C413 1.574 . S
C430 H424 0.949 1_545 S
C430 C434 1.368 . S
C431 C412 1.429 . S
C431 C425 1.429 . S
C431 C432 1.523 . S
C432 C413 1.368 . S
C432 C426 1.368 . S
C432 C431 1.523 . S
C433 C417 1.429 . S
C433 C429 1.429 . S
C433 C434 1.523 . S
C434 C418 1.368 . S
C434 C430 1.368 . S
C434 C433 1.523 . S
H435 C410 0.950 . S
H436 C412 0.950 . S
H437 C413 0.949 1_565 S
H438 C415 0.950 1_565 S
H439 C417 0.950 1_565 S
C440 C441 1.362 . S
C440 C442 1.327 . S
C440 H465 0.950 . S
C441 C440 1.362 . S
C441 C457 1.337 1_565 S
C442 C440 1.327 . S
C442 C461 1.418 1_565 S
C442 H466 0.950 . S
C443 C460 1.574 . S
C443 C462 1.399 . S
C443 H467 0.949 . S
H444 C448 0.949 . S
C445 C446 1.349 . S
C445 C447 1.327 . S
C445 H468 0.950 . S
C446 C445 1.349 . S
C446 C458 1.349 1_545 S
C447 C445 1.327 . S
C447 C463 1.429 . S
C447 H469 0.950 . S
C448 H444 0.949 . S
C448 C456 1.574 . S
C448 C464 1.368 1_565 S
H449 C457 0.950 . S
H450 C455 0.950 . S
H451 C456 0.949 . S
H452 C458 0.950 . S
H453 C459 0.950 . S
H454 C460 0.949 . S
C455 H450 0.950 . S
C455 C457 1.327 . S
C455 C461 1.440 . S
C456 C448 1.574 . S
C456 H451 0.949 . S
C456 C462 1.337 1_565 S
C457 C441 1.337 1_545 S
C457 H449 0.950 . S
C457 C455 1.327 . S
C458 C446 1.349 1_565 S
C458 H452 0.950 . S
C458 C459 1.327 . S
C459 H453 0.950 . S
C459 C458 1.327 . S
C459 C463 1.429 1_565 S
C460 C443 1.574 . S
C460 H454 0.949 . S
C460 C464 1.368 . S
C461 C442 1.418 1_545 S
C461 C455 1.440 . S
C461 C462 1.524 . S
C462 C443 1.399 . S
C462 C456 1.337 1_545 S
C462 C461 1.524 . S
C463 C447 1.429 . S
C463 C459 1.429 1_545 S
C463 C464 1.523 . S
C464 C448 1.368 1_545 S
C464 C460 1.368 . S
C464 C463 1.523 . S
H465 C440 0.950 . S
H466 C442 0.950 . S
H467 C443 0.949 . S
H468 C445 0.950 . S
H469 C447 0.950 . S
C470 C471 1.349 1_655 S
C470 C472 1.327 . S
C470 H495 0.950 . S
C471 C470 1.349 1_455 S
C471 C487 1.349 . S
C472 C470 1.327 . S
C472 C491 1.429 1_655 S
C472 H496 0.950 . S
C473 C490 1.574 . S
C473 C492 1.368 . S
C473 H497 0.949 . S
H474 C478 0.949 . S
C475 C476 1.349 . S
C475 C477 1.327 . S
C475 H498 0.950 . S
C476 C475 1.349 . S
C476 C488 1.349 1_455 S
C477 C475 1.327 . S
C477 C493 1.429 . S
C477 H499 0.950 . S
C478 H474 0.949 . S
C478 C486 1.574 . S
C478 C494 1.368 1_655 S
H479 C487 0.950 . S
H480 C485 0.950 . S
H481 C486 0.949 . S
H482 C488 0.950 . S
H483 C489 0.950 . S
H484 C490 0.949 . S
C485 H480 0.950 . S
C485 C487 1.327 . S
C485 C491 1.429 . S
C486 C478 1.574 . S
C486 H481 0.949 . S
C486 C492 1.368 1_655 S
C487 C471 1.349 . S
C487 H479 0.950 . S
C487 C485 1.327 . S
C488 C476 1.349 1_655 S
C488 H482 0.950 . S
C488 C489 1.327 . S
C489 H483 0.950 . S
C489 C488 1.327 . S
C489 C493 1.429 1_655 S
C490 C473 1.574 . S
C490 H484 0.949 . S
C490 C494 1.368 . S
C491 C472 1.429 1_455 S
C491 C485 1.429 . S
C491 C492 1.523 . S
C492 C473 1.368 . S
C492 C486 1.368 1_455 S
C492 C491 1.523 . S
C493 C477 1.429 . S
C493 C489 1.429 1_455 S
C493 C494 1.523 . S
C494 C478 1.368 1_455 S
C494 C490 1.368 . S
C494 C493 1.523 . S
H495 C470 0.950 . S
H496 C472 0.950 . S
H497 C473 0.949 . S
H498 C475 0.950 . S
H499 C477 0.950 . S
C500 C501 1.349 . S
C500 C502 1.327 . S
C500 H525 0.950 . S
C501 C500 1.349 . S
C501 C517 1.349 . S
C502 C500 1.327 . S
C502 C521 1.429 . S
C502 H526 0.950 . S
C503 C520 1.574 . S
C503 C522 1.368 . S
C503 H527 0.949 . S
H504 C508 0.949 . S
C505 C506 1.349 . S
C505 C507 1.327 . S
C505 H528 0.950 . S
C506 C505 1.349 . S
C506 C518 1.349 . S
C507 C505 1.327 . S
C507 C523 1.429 . S
C507 H529 0.950 . S
C508 H504 0.949 . S
C508 C516 1.574 . S
C508 C524 1.368 . S
H509 C517 0.950 . S
H510 C515 0.950 . S
H511 C516 0.949 . S
H512 C518 0.950 . S
H513 C519 0.950 . S
H514 C520 0.949 . S
C515 H510 0.950 . S
C515 C517 1.327 . S
C515 C521 1.429 . S
C516 C508 1.574 . S
C516 H511 0.949 . S
C516 C522 1.368 . S
C517 C501 1.349 . S
C517 H509 0.950 . S
C517 C515 1.327 . S
C518 C506 1.349 . S
C518 H512 0.950 . S
C518 C519 1.327 . S
C519 H513 0.950 . S
C519 C518 1.327 . S
C519 C523 1.429 . S
C520 C503 1.574 . S
C520 H514 0.949 . S
C520 C524 1.368 . S
C521 C502 1.429 . S
C521 C515 1.429 . S
C521 C522 1.523 . S
C522 C503 1.368 . S
C522 C516 1.368 . S
C522 C521 1.523 . S
C523 C507 1.429 . S
C523 C519 1.429 . S
C523 C524 1.523 . S
C524 C508 1.368 . S
C524 C520 1.368 . S
C524 C523 1.523 . S
H525 C500 0.950 . S
H526 C502 0.950 . S
H527 C503 0.949 . S
H528 C505 0.950 . S
H529 C507 0.950 . S
C530 C531 1.349 . S
C530 C532 1.327 . S
C530 H555 0.950 . S
C531 C530 1.349 . S
C531 C547 1.349 . S
C532 C530 1.327 . S
C532 C551 1.429 . S
C532 H556 0.950 . S
C533 C550 1.574 . S
C533 C552 1.368 . S
C533 H557 0.949 . S
H534 C538 0.949 . S
C535 C536 1.349 . S
C535 C537 1.327 . S
C535 H558 0.950 . S
C536 C535 1.349 . S
C536 C548 1.349 . S
C537 C535 1.327 . S
C537 C553 1.429 . S
C537 H559 0.950 . S
C538 H534 0.949 . S
C538 C546 1.574 . S
C538 C554 1.368 . S
H539 C547 0.950 . S
H540 C545 0.950 . S
H541 C546 0.949 . S
H542 C548 0.950 . S
H543 C549 0.950 . S
H544 C550 0.949 . S
C545 H540 0.950 . S
C545 C547 1.327 . S
C545 C551 1.429 . S
C546 C538 1.574 . S
C546 H541 0.949 . S
C546 C552 1.368 . S
C547 C531 1.349 . S
C547 H539 0.950 . S
C547 C545 1.327 . S
C548 C536 1.349 . S
C548 H542 0.950 . S
C548 C549 1.327 . S
C549 H543 0.950 . S
C549 C548 1.327 . S
C549 C553 1.429 . S
C550 C533 1.574 . S
C550 H544 0.949 . S
C550 C554 1.368 . S
C551 C532 1.429 . S
C551 C545 1.429 . S
C551 C552 1.523 . S
C552 C533 1.368 . S
C552 C546 1.368 . S
C552 C551 1.523 . S
C553 C537 1.429 . S
C553 C549 1.429 . S
C553 C554 1.523 . S
C554 C538 1.368 . S
C554 C550 1.368 . S
C554 C553 1.523 . S
H555 C530 0.950 . S
H556 C532 0.950 . S
H557 C533 0.949 . S
H558 C535 0.950 . S
H559 C537 0.950 . S
C560 C561 1.349 . S
C560 C562 1.327 . S
C560 H585 0.950 . S
C561 C560 1.349 . S
C561 C577 1.349 . S
C562 C560 1.327 . S
C562 C581 1.429 . S
C562 H586 0.950 . S
C563 C580 1.574 . S
C563 C582 1.368 . S
C563 H587 0.949 . S
H564 C568 0.949 . S
C565 C566 1.349 . S
C565 C567 1.327 . S
C565 H588 0.950 . S
C566 C565 1.349 . S
C566 C578 1.349 . S
C567 C565 1.327 . S
C567 C583 1.429 . S
C567 H589 0.950 . S
C568 H564 0.949 . S
C568 C576 1.574 . S
C568 C584 1.368 . S
H569 C577 0.950 . S
H570 C575 0.950 . S
H571 C576 0.949 . S
H572 C578 0.950 . S
H573 C579 0.950 . S
H574 C580 0.949 . S
C575 H570 0.950 . S
C575 C577 1.327 . S
C575 C581 1.429 . S
C576 C568 1.574 . S
C576 H571 0.949 . S
C576 C582 1.368 . S
C577 C561 1.349 . S
C577 H569 0.950 . S
C577 C575 1.327 . S
C578 C566 1.349 . S
C578 H572 0.950 . S
C578 C579 1.327 . S
C579 H573 0.950 . S
C579 C578 1.327 . S
C579 C583 1.429 . S
C580 C563 1.574 . S
C580 H574 0.949 . S
C580 C584 1.368 . S
C581 C562 1.429 . S
C581 C575 1.429 . S
C581 C582 1.523 . S
C582 C563 1.368 . S
C582 C576 1.368 . S
C582 C581 1.523 . S
C583 C567 1.429 . S
C583 C579 1.429 . S
C583 C584 1.523 . S
C584 C568 1.368 . S
C584 C580 1.368 . S
C584 C583 1.523 . S
H585 C560 0.950 . S
H586 C562 0.950 . S
H587 C563 0.949 . S
H588 C565 0.950 . S
H589 C567 0.950 . S
C590 C591 1.349 . S
C590 C592 1.327 . S
C590 H615 0.950 . S
C591 C590 1.349 . S
C591 C607 1.349 . S
C592 C590 1.327 . S
C592 C611 1.429 . S
C592 H616 0.950 . S
C593 C610 1.574 . S
C593 C612 1.368 . S
C593 H617 0.949 . S
H594 C598 0.949 . S
C595 C596 1.349 . S
C595 C597 1.327 . S
C595 H618 0.950 . S
C596 C595 1.349 . S
C596 C608 1.349 . S
C597 C595 1.327 . S
C597 C613 1.429 . S
C597 H619 0.950 . S
C598 H594 0.949 . S
C598 C606 1.574 . S
C598 C614 1.368 . S
H599 C607 0.950 . S
H600 C605 0.950 . S
H601 C606 0.949 . S
H602 C608 0.950 . S
H603 C609 0.950 . S
H604 C610 0.949 . S
C605 H600 0.950 . S
C605 C607 1.327 . S
C605 C611 1.429 . S
C606 C598 1.574 . S
C606 H601 0.949 . S
C606 C612 1.368 . S
C607 C591 1.349 . S
C607 H599 0.950 . S
C607 C605 1.327 . S
C608 C596 1.349 . S
C608 H602 0.950 . S
C608 C609 1.327 . S
C609 H603 0.950 . S
C609 C608 1.327 . S
C609 C613 1.429 . S
C610 C593 1.574 . S
C610 H604 0.949 . S
C610 C614 1.368 . S
C611 C592 1.429 . S
C611 C605 1.429 . S
C611 C612 1.523 . S
C612 C593 1.368 . S
C612 C606 1.368 . S
C612 C611 1.523 . S
C613 C597 1.429 . S
C613 C609 1.429 . S
C613 C614 1.523 . S
C614 C598 1.368 . S
C614 C610 1.368 . S
C614 C613 1.523 . S
H615 C590 0.950 . S
H616 C592 0.950 . S
H617 C593 0.949 . S
H618 C595 0.950 . S
H619 C597 0.950 . S
C620 C621 1.349 1_565 S
C620 C622 1.327 . S
C620 H645 0.950 . S
C621 C620 1.349 1_545 S
C621 C637 1.349 . S
C622 C620 1.327 . S
C622 C641 1.429 1_565 S
C622 H646 0.950 . S
C623 C640 1.574 . S
C623 C642 1.368 . S
C623 H647 0.949 . S
H624 C628 0.949 . S
C625 C626 1.349 . S
C625 C627 1.327 . S
C625 H648 0.950 . S
C626 C625 1.349 . S
C626 C638 1.349 . S
C627 C625 1.327 . S
C627 C643 1.429 . S
C627 H649 0.950 . S
C628 H624 0.949 . S
C628 C636 1.574 . S
C628 C644 1.368 1_565 S
H629 C637 0.950 . S
H630 C635 0.950 . S
H631 C636 0.949 . S
H632 C638 0.950 1_565 S
H633 C639 0.951 1_565 S
H634 C640 0.949 . S
C635 H630 0.950 . S
C635 C637 1.327 . S
C635 C641 1.429 . S
C636 C628 1.574 . S
C636 H631 0.949 . S
C636 C642 1.368 1_565 S
C637 C621 1.349 . S
C637 H629 0.950 . S
C637 C635 1.327 . S
C638 C626 1.349 . S
C638 H632 0.950 1_545 S
C638 C639 1.327 . S
C639 H633 0.951 1_545 S
C639 C638 1.327 . S
C639 C643 1.427 . S
C640 C623 1.574 . S
C640 H634 0.949 . S
C640 C644 1.368 . S
C641 C622 1.429 1_545 S
C641 C635 1.429 . S
C641 C642 1.523 . S
C642 C623 1.368 . S
C642 C636 1.368 1_545 S
C642 C641 1.523 . S
C643 C627 1.429 . S
C643 C639 1.427 . S
C643 C644 1.523 . S
C644 C628 1.368 1_545 S
C644 C640 1.368 . S
C644 C643 1.523 . S
H645 C620 0.950 . S
H646 C622 0.950 . S
H647 C623 0.949 . S
H648 C625 0.950 . S
H649 C627 0.950 . S
C650 C651 1.349 . S
C650 C652 1.327 . S
C650 H675 0.950 . S
C651 C650 1.349 . S
C651 C667 1.349 . S
C652 C650 1.327 . S
C652 C671 1.429 . S
C652 H676 0.950 . S
C653 C670 1.574 . S
C653 C672 1.368 . S
C653 H677 0.955 . S
H654 C658 0.949 . S
C655 C656 1.349 . S
C655 C657 1.327 . S
C655 H678 0.950 1_455 S
C656 C655 1.349 . S
C656 C668 1.349 . S
C657 C655 1.327 . S
C657 C673 1.429 . S
C657 H679 0.950 1_455 S
C658 H654 0.949 . S
C658 C666 1.574 . S
C658 C674 1.368 . S
H659 C667 0.950 . S
H660 C665 0.950 . S
H661 C666 0.949 . S
H662 C668 0.950 . S
H663 C669 0.950 . S
H664 C670 0.949 1_655 S
C665 H660 0.950 . S
C665 C667 1.327 . S
C665 C671 1.429 . S
C666 C658 1.574 . S
C666 H661 0.949 . S
C666 C672 1.368 . S
C667 C651 1.349 . S
C667 H659 0.950 . S
C667 C665 1.327 . S
C668 C656 1.349 . S
C668 H662 0.950 . S
C668 C669 1.327 . S
C669 H663 0.950 . S
C669 C668 1.327 . S
C669 C673 1.429 . S
C670 C653 1.574 . S
C670 H664 0.949 1_455 S
C670 C674 1.368 . S
C671 C652 1.429 . S
C671 C665 1.429 . S
C671 C672 1.523 . S
C672 C653 1.368 . S
C672 C666 1.368 . S
C672 C671 1.523 . S
C673 C657 1.429 . S
C673 C669 1.429 . S
C673 C674 1.523 . S
C674 C658 1.368 . S
C674 C670 1.368 . S
C674 C673 1.523 . S
H675 C650 0.950 . S
H676 C652 0.950 . S
H677 C653 0.955 . S
H678 C655 0.950 1_655 S
H679 C657 0.950 1_655 S
C680 C681 1.349 1_556 S
C680 C682 1.327 . S
C680 H705 0.950 . S
C681 C680 1.349 1_554 S
C681 C697 1.349 . S
C682 C680 1.327 . S
C682 C701 1.429 1_556 S
C682 H706 0.950 . S
C683 C700 1.574 . S
C683 C702 1.368 . S
C683 H707 0.949 . S
H684 C688 0.949 . S
C685 C686 1.349 . S
C685 C687 1.327 . S
C685 H708 0.950 . S
C686 C685 1.349 . S
C686 C698 1.349 1_554 S
C687 C685 1.327 . S
C687 C703 1.429 . S
C687 H709 0.950 . S
C688 H684 0.949 . S
C688 C696 1.574 . S
C688 C704 1.368 1_556 S
H689 C697 0.950 . S
H690 C695 0.950 . S
H691 C696 0.949 . S
H692 C698 0.950 . S
H693 C699 0.950 . S
H694 C700 0.949 . S
C695 H690 0.950 . S
C695 C697 1.327 . S
C695 C701 1.429 . S
C696 C688 1.574 . S
C696 H691 0.949 . S
C696 C702 1.368 1_556 S
C697 C681 1.349 . S
C697 H689 0.950 . S
C697 C695 1.327 . S
C698 C686 1.349 1_556 S
C698 H692 0.950 . S
C698 C699 1.327 . S
C699 H693 0.950 . S
C699 C698 1.327 . S
C699 C703 1.429 1_556 S
C700 C683 1.574 . S
C700 H694 0.949 . S
C700 C704 1.368 . S
C701 C682 1.429 1_554 S
C701 C695 1.429 . S
C701 C702 1.523 . S
C702 C683 1.368 . S
C702 C696 1.368 1_554 S
C702 C701 1.523 . S
C703 C687 1.429 . S
C703 C699 1.429 1_554 S
C703 C704 1.523 . S
C704 C688 1.368 1_554 S
C704 C700 1.368 . S
C704 C703 1.523 . S
H705 C680 0.950 . S
H706 C682 0.950 . S
H707 C683 0.949 . S
H708 C685 0.950 . S
H709 C687 0.950 . S
C710 C711 1.349 . S
C710 C712 1.327 . S
C710 H735 0.950 . S
C711 C710 1.349 . S
C711 C727 1.349 . S
C712 C710 1.327 . S
C712 C731 1.429 . S
C712 H736 0.950 . S
C713 C730 1.574 . S
C713 C732 1.368 . S
C713 H737 0.949 . S
H714 C718 0.949 . S
C715 C716 1.349 . S
C715 C717 1.327 . S
C715 H738 0.950 . S
C716 C715 1.349 . S
C716 C728 1.349 . S
C717 C715 1.327 . S
C717 C733 1.429 . S
C717 H739 0.950 . S
C718 H714 0.949 . S
C718 C726 1.574 . S
C718 C734 1.368 . S
H719 C727 0.950 . S
H720 C725 0.950 . S
H721 C726 0.949 . S
H722 C728 0.950 . S
H723 C729 0.950 . S
H724 C730 0.949 . S
C725 H720 0.950 . S
C725 C727 1.327 . S
C725 C731 1.429 . S
C726 C718 1.574 . S
C726 H721 0.949 . S
C726 C732 1.368 . S
C727 C711 1.349 . S
C727 H719 0.950 . S
C727 C725 1.327 . S
C728 C716 1.349 . S
C728 H722 0.950 . S
C728 C729 1.327 . S
C729 H723 0.950 . S
C729 C728 1.327 . S
C729 C733 1.429 . S
C730 C713 1.574 . S
C730 H724 0.949 . S
C730 C734 1.368 . S
C731 C712 1.429 . S
C731 C725 1.429 . S
C731 C732 1.523 . S
C732 C713 1.368 . S
C732 C726 1.368 . S
C732 C731 1.523 . S
C733 C717 1.429 . S
C733 C729 1.429 . S
C733 C734 1.523 . S
C734 C718 1.368 . S
C734 C730 1.368 . S
C734 C733 1.523 . S
H735 C710 0.950 . S
H736 C712 0.950 . S
H737 C713 0.949 . S
H738 C715 0.950 . S
H739 C717 0.950 . S
C740 C741 1.349 . S
C740 C742 1.327 . S
C740 H765 0.950 . S
C741 C740 1.349 . S
C741 C757 1.349 . S
C742 C740 1.327 . S
C742 C761 1.429 . S
C742 H766 0.950 . S
C743 C760 1.574 . S
C743 C762 1.368 . S
C743 H767 0.949 . S
H744 C748 0.949 . S
C745 C746 1.349 . S
C745 C747 1.327 . S
C745 H768 0.950 . S
C746 C745 1.349 . S
C746 C758 1.349 . S
C747 C745 1.327 . S
C747 C763 1.429 . S
C747 H769 0.950 . S
C748 H744 0.949 . S
C748 C756 1.574 . S
C748 C764 1.368 . S
H749 C757 0.950 . S
H750 C755 0.950 . S
H751 C756 0.949 . S
H752 C758 0.950 . S
H753 C759 0.950 . S
H754 C760 0.949 . S
C755 H750 0.950 . S
C755 C757 1.327 . S
C755 C761 1.429 . S
C756 C748 1.574 . S
C756 H751 0.949 . S
C756 C762 1.368 . S
C757 C741 1.349 . S
C757 H749 0.950 . S
C757 C755 1.327 . S
C758 C746 1.349 . S
C758 H752 0.950 . S
C758 C759 1.327 . S
C759 H753 0.950 . S
C759 C758 1.327 . S
C759 C763 1.429 . S
C760 C743 1.574 . S
C760 H754 0.949 . S
C760 C764 1.368 . S
C761 C742 1.429 . S
C761 C755 1.429 . S
C761 C762 1.523 . S
C762 C743 1.368 . S
C762 C756 1.368 . S
C762 C761 1.523 . S
C763 C747 1.429 . S
C763 C759 1.429 . S
C763 C764 1.523 . S
C764 C748 1.368 . S
C764 C760 1.368 . S
C764 C763 1.523 . S
H765 C740 0.950 . S
H766 C742 0.950 . S
H767 C743 0.949 . S
H768 C745 0.950 . S
H769 C747 0.950 . S
C770 C771 1.349 . S
C770 C772 1.327 . S
C770 H795 0.950 . S
C771 C770 1.349 . S
C771 C787 1.349 . S
C772 C770 1.327 . S
C772 C791 1.429 . S
C772 H796 0.950 . S
C773 C790 1.574 . S
C773 C792 1.368 . S
C773 H797 0.949 . S
H774 C778 0.949 . S
C775 C776 1.349 . S
C775 C777 1.327 . S
C775 H798 0.950 . S
C776 C775 1.349 . S
C776 C788 1.349 . S
C777 C775 1.327 . S
C777 C793 1.429 . S
C777 H799 0.950 . S
C778 H774 0.949 . S
C778 C786 1.574 . S
C778 C794 1.368 . S
H779 C787 0.950 . S
H780 C785 0.950 . S
H781 C786 0.949 . S
H782 C788 0.950 . S
H783 C789 0.950 . S
H784 C790 0.949 . S
C785 H780 0.950 . S
C785 C787 1.327 . S
C785 C791 1.429 . S
C786 C778 1.574 . S
C786 H781 0.949 . S
C786 C792 1.368 . S
C787 C771 1.349 . S
C787 H779 0.950 . S
C787 C785 1.327 . S
C788 C776 1.349 . S
C788 H782 0.950 . S
C788 C789 1.327 . S
C789 H783 0.950 . S
C789 C788 1.327 . S
C789 C793 1.429 . S
C790 C773 1.574 . S
C790 H784 0.949 . S
C790 C794 1.368 . S
C791 C772 1.429 . S
C791 C785 1.429 . S
C791 C792 1.523 . S
C792 C773 1.368 . S
C792 C786 1.368 . S
C792 C791 1.523 . S
C793 C777 1.429 . S
C793 C789 1.429 . S
C793 C794 1.523 . S
C794 C778 1.368 . S
C794 C790 1.368 . S
C794 C793 1.523 . S
H795 C770 0.950 . S
H796 C772 0.950 . S
H797 C773 0.949 . S
H798 C775 0.950 . S
H799 C777 0.950 . S
C800 C801 1.349 . S
C800 C802 1.327 . S
C800 H825 0.950 . S
C801 C800 1.349 . S
C801 C817 1.349 . S
C802 C800 1.327 . S
C802 C821 1.429 . S
C802 H826 0.950 . S
C803 C820 1.574 . S
C803 C822 1.368 . S
C803 H827 0.949 . S
H804 C808 0.949 . S
C805 C806 1.349 . S
C805 C807 1.327 . S
C805 H828 0.950 . S
C806 C805 1.349 . S
C806 C818 1.349 . S
C807 C805 1.327 . S
C807 C823 1.429 . S
C807 H829 0.950 . S
C808 H804 0.949 . S
C808 C816 1.574 . S
C808 C824 1.368 . S
H809 C817 0.950 . S
H810 C815 0.950 . S
H811 C816 0.949 . S
H812 C818 0.950 . S
H813 C819 0.950 . S
H814 C820 0.949 . S
C815 H810 0.950 . S
C815 C817 1.327 . S
C815 C821 1.429 . S
C816 C808 1.574 . S
C816 H811 0.949 . S
C816 C822 1.368 . S
C817 C801 1.349 . S
C817 H809 0.950 . S
C817 C815 1.327 . S
C818 C806 1.349 . S
C818 H812 0.950 . S
C818 C819 1.327 . S
C819 H813 0.950 . S
C819 C818 1.327 . S
C819 C823 1.429 . S
C820 C803 1.574 . S
C820 H814 0.949 . S
C820 C824 1.368 . S
C821 C802 1.429 . S
C821 C815 1.429 . S
C821 C822 1.523 . S
C822 C803 1.368 . S
C822 C816 1.368 . S
C822 C821 1.523 . S
C823 C807 1.429 . S
C823 C819 1.429 . S
C823 C824 1.523 . S
C824 C808 1.368 . S
C824 C820 1.368 . S
C824 C823 1.523 . S
H825 C800 0.950 . S
H826 C802 0.950 . S
H827 C803 0.949 . S
H828 C805 0.950 . S
H829 C807 0.950 . S
C830 C831 1.349 . S
C830 C832 1.327 . S
C830 H855 0.950 . S
C831 C830 1.349 . S
C831 C847 1.349 . S
C832 C830 1.327 . S
C832 C851 1.429 . S
C832 H856 0.950 . S
C833 C850 1.574 . S
C833 C852 1.368 . S
C833 H857 0.949 . S
H834 C838 0.949 . S
C835 C836 1.349 . S
C835 C837 1.327 . S
C835 H858 0.950 . S
C836 C835 1.349 . S
C836 C848 1.349 . S
C837 C835 1.327 . S
C837 C853 1.429 . S
C837 H859 0.950 . S
C838 H834 0.949 . S
C838 C846 1.574 . S
C838 C854 1.368 . S
H839 C847 0.950 . S
H840 C845 0.950 . S
H841 C846 0.949 . S
H842 C848 0.950 . S
H843 C849 0.950 . S
H844 C850 0.949 . S
C845 H840 0.950 . S
C845 C847 1.327 . S
C845 C851 1.429 . S
C846 C838 1.574 . S
C846 H841 0.949 . S
C846 C852 1.368 . S
C847 C831 1.349 . S
C847 H839 0.950 . S
C847 C845 1.327 . S
C848 C836 1.349 . S
C848 H842 0.950 . S
C848 C849 1.327 . S
C849 H843 0.950 . S
C849 C848 1.327 . S
C849 C853 1.429 . S
C850 C833 1.574 . S
C850 H844 0.949 . S
C850 C854 1.368 . S
C851 C832 1.429 . S
C851 C845 1.429 . S
C851 C852 1.523 . S
C852 C833 1.368 . S
C852 C846 1.368 . S
C852 C851 1.523 . S
C853 C837 1.429 . S
C853 C849 1.429 . S
C853 C854 1.523 . S
C854 C838 1.368 . S
C854 C850 1.368 . S
C854 C853 1.523 . S
H855 C830 0.950 . S
H856 C832 0.950 . S
H857 C833 0.949 . S
H858 C835 0.950 . S
H859 C837 0.950 . S
C860 C861 1.349 . S
C860 C862 1.327 . S
C860 H885 0.950 . S
C861 C860 1.349 . S
C861 C877 1.349 . S
C862 C860 1.327 . S
C862 C881 1.429 . S
C862 H886 0.950 . S
C863 C880 1.574 . S
C863 C882 1.368 . S
C863 H887 0.949 . S
H864 C868 0.949 . S
C865 C866 1.349 . S
C865 C867 1.327 . S
C865 H888 0.950 . S
C866 C865 1.349 . S
C866 C878 1.349 . S
C867 C865 1.327 . S
C867 C883 1.429 . S
C867 H889 0.950 . S
C868 H864 0.949 . S
C868 C876 1.574 . S
C868 C884 1.368 . S
H869 C877 0.950 . S
H870 C875 0.950 . S
H871 C876 0.949 . S
H872 C878 0.950 . S
H873 C879 0.950 . S
H874 C880 0.949 . S
C875 H870 0.950 . S
C875 C877 1.327 . S
C875 C881 1.429 . S
C876 C868 1.574 . S
C876 H871 0.949 . S
C876 C882 1.368 . S
C877 C861 1.349 . S
C877 H869 0.950 . S
C877 C875 1.327 . S
C878 C866 1.349 . S
C878 H872 0.950 . S
C878 C879 1.327 . S
C879 H873 0.950 . S
C879 C878 1.327 . S
C879 C883 1.429 . S
C880 C863 1.574 . S
C880 H874 0.949 . S
C880 C884 1.368 . S
C881 C862 1.429 . S
C881 C875 1.429 . S
C881 C882 1.523 . S
C882 C863 1.368 . S
C882 C876 1.368 . S
C882 C881 1.523 . S
C883 C867 1.429 . S
C883 C879 1.429 . S
C883 C884 1.523 . S
C884 C868 1.368 . S
C884 C880 1.368 . S
C884 C883 1.523 . S
H885 C860 0.950 . S
H886 C862 0.950 . S
H887 C863 0.949 . S
H888 C865 0.950 . S
H889 C867 0.950 . S
C890 C891 1.349 . S
C890 C892 1.327 . S
C890 H915 0.950 . S
C891 C890 1.349 . S
C891 C907 1.349 . S
C892 C890 1.327 . S
C892 C911 1.429 . S
C892 H916 0.950 . S
C893 C910 1.574 . S
C893 C912 1.368 . S
C893 H917 0.949 . S
H894 C898 0.949 . S
C895 C896 1.349 . S
C895 C897 1.327 . S
C895 H918 0.950 . S
C896 C895 1.349 . S
C896 C908 1.349 . S
C897 C895 1.327 . S
C897 C913 1.429 . S
C897 H919 0.950 . S
C898 H894 0.949 . S
C898 C906 1.574 . S
C898 C914 1.368 . S
H899 C907 0.950 . S
H900 C905 0.950 . S
H901 C906 0.949 . S
H902 C908 0.950 . S
H903 C909 0.950 . S
H904 C910 0.949 . S
C905 H900 0.950 . S
C905 C907 1.327 . S
C905 C911 1.429 . S
C906 C898 1.574 . S
C906 H901 0.949 . S
C906 C912 1.368 . S
C907 C891 1.349 . S
C907 H899 0.950 . S
C907 C905 1.327 . S
C908 C896 1.349 . S
C908 H902 0.950 . S
C908 C909 1.327 . S
C909 H903 0.950 . S
C909 C908 1.327 . S
C909 C913 1.429 . S
C910 C893 1.574 . S
C910 H904 0.949 . S
C910 C914 1.368 . S
C911 C892 1.429 . S
C911 C905 1.429 . S
C911 C912 1.523 . S
C912 C893 1.368 . S
C912 C906 1.368 . S
C912 C911 1.523 . S
C913 C897 1.429 . S
C913 C909 1.429 . S
C913 C914 1.523 . S
C914 C898 1.368 . S
C914 C910 1.368 . S
C914 C913 1.523 . S
H915 C890 0.950 . S
H916 C892 0.950 . S
H917 C893 0.949 . S
H918 C895 0.950 . S
H919 C897 0.950 . S
C920 C921 1.349 . S
C920 C922 1.327 . S
C920 H945 0.950 . S
C921 C920 1.349 . S
C921 C937 1.349 . S
C922 C920 1.327 . S
C922 C941 1.429 . S
C922 H946 0.950 . S
C923 C940 1.574 . S
C923 C942 1.368 . S
C923 H947 0.949 . S
H924 C928 0.949 . S
C925 C926 1.349 . S
C925 C927 1.327 . S
C925 H948 0.950 . S
C926 C925 1.349 . S
C926 C938 1.349 . S
C927 C925 1.327 . S
C927 C943 1.429 . S
C927 H949 0.950 . S
C928 H924 0.949 . S
C928 C936 1.574 . S
C928 C944 1.368 . S
H929 C937 0.950 . S
H930 C935 0.950 . S
H931 C936 0.949 . S
H932 C938 0.950 . S
H933 C939 0.950 . S
H934 C940 0.949 . S
C935 H930 0.950 . S
C935 C937 1.327 . S
C935 C941 1.429 . S
C936 C928 1.574 . S
C936 H931 0.949 . S
C936 C942 1.368 . S
C937 C921 1.349 . S
C937 H929 0.950 . S
C937 C935 1.327 . S
C938 C926 1.349 . S
C938 H932 0.950 . S
C938 C939 1.327 . S
C939 H933 0.950 . S
C939 C938 1.327 . S
C939 C943 1.429 . S
C940 C923 1.574 . S
C940 H934 0.949 . S
C940 C944 1.368 . S
C941 C922 1.429 . S
C941 C935 1.429 . S
C941 C942 1.523 . S
C942 C923 1.368 . S
C942 C936 1.368 . S
C942 C941 1.523 . S
C943 C927 1.429 . S
C943 C939 1.429 . S
C943 C944 1.523 . S
C944 C928 1.368 . S
C944 C940 1.368 . S
C944 C943 1.523 . S
H945 C920 0.950 . S
H946 C922 0.950 . S
H947 C923 0.949 . S
H948 C925 0.950 . S
H949 C927 0.950 . S
C950 C951 1.349 1_455 S
C950 C952 1.327 . S
C950 H975 0.950 . S
C951 C950 1.349 1_655 S
C951 C967 1.349 . S
C952 C950 1.327 . S
C952 C971 1.429 1_455 S
C952 H976 0.950 . S
C953 C970 1.574 . S
C953 C972 1.368 . S
C953 H977 0.949 . S
H954 C958 0.949 . S
C955 C956 1.349 . S
C955 C957 1.327 . S
C955 H978 0.950 . S
C956 C955 1.349 . S
C956 C968 1.349 1_655 S
C957 C955 1.327 . S
C957 C973 1.429 . S
C957 H979 0.950 . S
C958 H954 0.949 . S
C958 C966 1.574 . S
C958 C974 1.368 1_455 S
H959 C967 0.950 . S
H960 C965 0.950 . S
H961 C966 0.949 . S
H962 C968 0.950 . S
H963 C969 0.950 . S
H964 C970 0.949 . S
C965 H960 0.950 . S
C965 C967 1.327 . S
C965 C971 1.429 . S
C966 C958 1.574 . S
C966 H961 0.949 . S
C966 C972 1.368 1_455 S
C967 C951 1.349 . S
C967 H959 0.950 . S
C967 C965 1.327 . S
C968 C956 1.349 1_455 S
C968 H962 0.950 . S
C968 C969 1.327 . S
C969 H963 0.950 . S
C969 C968 1.327 . S
C969 C973 1.429 1_455 S
C970 C953 1.574 . S
C970 H964 0.949 . S
C970 C974 1.368 . S
C971 C952 1.429 1_655 S
C971 C965 1.429 . S
C971 C972 1.523 . S
C972 C953 1.368 . S
C972 C966 1.368 1_655 S
C972 C971 1.523 . S
C973 C957 1.429 . S
C973 C969 1.429 1_655 S
C973 C974 1.523 . S
C974 C958 1.368 1_655 S
C974 C970 1.368 . S
C974 C973 1.523 . S
H975 C950 0.950 . S
H976 C952 0.950 . S
H977 C953 0.949 . S
H978 C955 0.950 . S
H979 C957 0.950 . S
C980 C981 1.349 . S
C980 C982 1.327 . S
C980 H1005 0.950 . S
C981 C980 1.349 . S
C981 C997 1.349 . S
C982 C980 1.327 . S
C982 C1001 1.429 . S
C982 H1006 0.950 . S
C983 C1000 1.574 . S
C983 C1002 1.368 . S
C983 H1007 0.949 . S
H984 C988 0.949 . S
C985 C986 1.349 . S
C985 C987 1.327 . S
C985 H1008 0.950 . S
C986 C985 1.349 . S
C986 C998 1.349 . S
C987 C985 1.327 . S
C987 C1003 1.429 . S
C987 H1009 0.950 . S
C988 H984 0.949 . S
C988 C996 1.574 . S
C988 C1004 1.368 . S
H989 C997 0.950 . S
H990 C995 0.950 . S
H991 C996 0.949 . S
H992 C998 0.950 . S
H993 C999 0.950 . S
H994 C1000 0.949 . S
C995 H990 0.950 . S
C995 C997 1.327 . S
C995 C1001 1.429 . S
C996 C988 1.574 . S
C996 H991 0.949 . S
C996 C1002 1.368 . S
C997 C981 1.349 . S
C997 H989 0.950 . S
C997 C995 1.327 . S
C998 C986 1.349 . S
C998 H992 0.950 . S
C998 C999 1.327 . S
C999 H993 0.950 . S
C999 C998 1.327 . S
C999 C1003 1.429 . S
C1000 C983 1.574 . S
C1000 H994 0.949 . S
C1000 C1004 1.368 . S
C1001 C982 1.429 . S
C1001 C995 1.429 . S
C1001 C1002 1.523 . S
C1002 C983 1.368 . S
C1002 C996 1.368 . S
C1002 C1001 1.523 . S
C1003 C987 1.429 . S
C1003 C999 1.429 . S
C1003 C1004 1.523 . S
C1004 C988 1.368 . S
C1004 C1000 1.368 . S
C1004 C1003 1.523 . S
H1005 C980 0.950 . S
H1006 C982 0.950 . S
H1007 C983 0.949 . S
H1008 C985 0.950 . S
H1009 C987 0.950 . S
C1010 C1011 1.349 . S
C1010 C1012 1.327 . S
C1010 H1035 0.950 . S
C1011 C1010 1.349 . S
C1011 C1027 1.349 . S
C1012 C1010 1.327 . S
C1012 C1031 1.429 . S
C1012 H1036 0.950 . S
C1013 C1030 1.574 . S
C1013 C1032 1.368 . S
C1013 H1037 0.949 . S
H1014 C1018 0.949 . S
C1015 C1016 1.349 . S
C1015 C1017 1.327 . S
C1015 H1038 0.950 . S
C1016 C1015 1.349 . S
C1016 C1028 1.349 . S
C1017 C1015 1.327 . S
C1017 C1033 1.429 . S
C1017 H1039 0.950 . S
C1018 H1014 0.949 . S
C1018 C1026 1.574 . S
C1018 C1034 1.368 . S
H1019 C1027 0.950 . S
H1020 C1025 0.950 . S
H1021 C1026 0.949 . S
H1022 C1028 0.950 . S
H1023 C1029 0.950 . S
H1024 C1030 0.949 . S
C1025 H1020 0.950 . S
C1025 C1027 1.327 . S
C1025 C1031 1.429 . S
C1026 C1018 1.574 . S
C1026 H1021 0.949 . S
C1026 C1032 1.368 . S
C1027 C1011 1.349 . S
C1027 H1019 0.950 . S
C1027 C1025 1.327 . S
C1028 C1016 1.349 . S
C1028 H1022 0.950 . S
C1028 C1029 1.327 . S
C1029 H1023 0.950 . S
C1029 C1028 1.327 . S
C1029 C1033 1.429 . S
C1030 C1013 1.574 . S
C1030 H1024 0.949 . S
C1030 C1034 1.368 . S
C1031 C1012 1.429 . S
C1031 C1025 1.429 . S
C1031 C1032 1.523 . S
C1032 C1013 1.368 . S
C1032 C1026 1.368 . S
C1032 C1031 1.523 . S
C1033 C1017 1.429 . S
C1033 C1029 1.429 . S
C1033 C1034 1.523 . S
C1034 C1018 1.368 . S
C1034 C1030 1.368 . S
C1034 C1033 1.523 . S
H1035 C1010 0.950 . S
H1036 C1012 0.950 . S
H1037 C1013 0.949 . S
H1038 C1015 0.950 . S
H1039 C1017 0.950 . S
C1040 C1041 1.349 . S
C1040 C1042 1.327 . S
C1040 H1065 0.950 . S
C1041 C1040 1.349 . S
C1041 C1057 1.349 . S
C1042 C1040 1.327 . S
C1042 C1061 1.429 . S
C1042 H1066 0.950 . S
C1043 C1060 1.574 . S
C1043 C1062 1.368 . S
C1043 H1067 0.949 . S
H1044 C1048 0.949 . S
C1045 C1046 1.349 . S
C1045 C1047 1.327 . S
C1045 H1068 0.950 . S
C1046 C1045 1.349 . S
C1046 C1058 1.349 . S
C1047 C1045 1.327 . S
C1047 C1063 1.429 . S
C1047 H1069 0.950 . S
C1048 H1044 0.949 . S
C1048 C1056 1.574 . S
C1048 C1064 1.368 . S
H1049 C1057 0.950 . S
H1050 C1055 0.950 . S
H1051 C1056 0.949 . S
H1052 C1058 0.950 . S
H1053 C1059 0.950 . S
H1054 C1060 0.949 . S
C1055 H1050 0.950 . S
C1055 C1057 1.327 . S
C1055 C1061 1.429 . S
C1056 C1048 1.574 . S
C1056 H1051 0.949 . S
C1056 C1062 1.368 . S
C1057 C1041 1.349 . S
C1057 H1049 0.950 . S
C1057 C1055 1.327 . S
C1058 C1046 1.349 . S
C1058 H1052 0.950 . S
C1058 C1059 1.327 . S
C1059 H1053 0.950 . S
C1059 C1058 1.327 . S
C1059 C1063 1.429 . S
C1060 C1043 1.574 . S
C1060 H1054 0.949 . S
C1060 C1064 1.368 . S
C1061 C1042 1.429 . S
C1061 C1055 1.429 . S
C1061 C1062 1.523 . S
C1062 C1043 1.368 . S
C1062 C1056 1.368 . S
C1062 C1061 1.523 . S
C1063 C1047 1.429 . S
C1063 C1059 1.429 . S
C1063 C1064 1.523 . S
C1064 C1048 1.368 . S
C1064 C1060 1.368 . S
C1064 C1063 1.523 . S
H1065 C1040 0.950 . S
H1066 C1042 0.950 . S
H1067 C1043 0.949 . S
H1068 C1045 0.950 . S
H1069 C1047 0.950 . S
C1070 C1071 1.349 . S
C1070 C1072 1.327 . S
C1070 H1095 0.950 . S
C1071 C1070 1.349 . S
C1071 C1087 1.349 . S
C1072 C1070 1.327 . S
C1072 C1091 1.429 . S
C1072 H1096 0.950 . S
C1073 C1090 1.574 . S
C1073 C1092 1.368 . S
C1073 H1097 0.949 . S
H1074 C1078 0.949 . S
C1075 C1076 1.349 . S
C1075 C1077 1.327 . S
C1075 H1098 0.950 . S
C1076 C1075 1.349 . S
C1076 C1088 1.349 . S
C1077 C1075 1.327 . S
C1077 C1093 1.429 . S
C1077 H1099 0.950 . S
C1078 H1074 0.949 . S
C1078 C1086 1.574 . S
C1078 C1094 1.368 . S
H1079 C1087 0.950 . S
H1080 C1085 0.950 . S
H1081 C1086 0.949 . S
H1082 C1088 0.950 . S
H1083 C1089 0.950 . S
H1084 C1090 0.949 . S
C1085 H1080 0.950 . S
C1085 C1087 1.327 . S
C1085 C1091 1.429 . S
C1086 C1078 1.574 . S
C1086 H1081 0.949 . S
C1086 C1092 1.368 . S
C1087 C1071 1.349 . S
C1087 H1079 0.950 . S
C1087 C1085 1.327 . S
C1088 C1076 1.349 . S
C1088 H1082 0.950 . S
C1088 C1089 1.327 . S
C1089 H1083 0.950 . S
C1089 C1088 1.327 . S
C1089 C1093 1.429 . S
C1090 C1073 1.574 . S
C1090 H1084 0.949 . S
C1090 C1094 1.368 . S
C1091 C1072 1.429 . S
C1091 C1085 1.429 . S
C1091 C1092 1.523 . S
C1092 C1073 1.368 . S
C1092 C1086 1.368 . S
C1092 C1091 1.523 . S
C1093 C1077 1.429 . S
C1093 C1089 1.429 . S
C1093 C1094 1.523 . S
C1094 C1078 1.368 . S
C1094 C1090 1.368 . S
C1094 C1093 1.523 . S
H1095 C1070 0.950 . S
H1096 C1072 0.950 . S
H1097 C1073 0.949 . S
H1098 C1075 0.950 . S
H1099 C1077 0.950 . S
C1100 C1101 1.349 . S
C1100 C1102 1.327 . S
C1100 H1125 0.950 . S
C1101 C1100 1.349 . S
C1101 C1117 1.349 1_545 S
C1102 C1100 1.327 . S
C1102 C1121 1.429 . S
C1102 H1126 0.950 . S
C1103 C1120 1.574 . S
C1103 C1122 1.368 1_565 S
C1103 H1127 0.949 . S
H1104 C1108 0.949 . S
C1105 C1106 1.349 1_565 S
C1105 C1107 1.327 . S
C1105 H1128 0.950 . S
C1106 C1105 1.349 1_545 S
C1106 C1118 1.349 . S
C1107 C1105 1.327 . S
C1107 C1123 1.429 1_565 S
C1107 H1129 0.950 . S
C1108 H1104 0.949 . S
C1108 C1116 1.574 . S
C1108 C1124 1.368 . S
H1109 C1117 0.950 . S
H1110 C1115 0.950 . S
H1111 C1116 0.949 . S
H1112 C1118 0.950 . S
H1113 C1119 0.950 . S
H1114 C1120 0.949 . S
C1115 H1110 0.950 . S
C1115 C1117 1.327 . S
C1115 C1121 1.429 1_565 S
C1116 C1108 1.574 . S
C1116 H1111 0.949 . S
C1116 C1122 1.368 . S
C1117 C1101 1.349 1_565 S
C1117 H1109 0.950 . S
C1117 C1115 1.327 . S
C1118 C1106 1.349 . S
C1118 H1112 0.950 . S
C1118 C1119 1.327 . S
C1119 H1113 0.950 . S
C1119 C1118 1.327 . S
C1119 C1123 1.429 . S
C1120 C1103 1.574 . S
C1120 H1114 0.949 . S
C1120 C1124 1.368 1_565 S
C1121 C1102 1.429 . S
C1121 C1115 1.429 1_545 S
C1121 C1122 1.523 . S
C1122 C1103 1.368 1_545 S
C1122 C1116 1.368 . S
C1122 C1121 1.523 . S
C1123 C1107 1.429 1_545 S
C1123 C1119 1.429 . S
C1123 C1124 1.523 . S
C1124 C1108 1.368 . S
C1124 C1120 1.368 1_545 S
C1124 C1123 1.523 . S
H1125 C1100 0.950 . S
H1126 C1102 0.950 . S
H1127 C1103 0.949 . S
H1128 C1105 0.950 . S
H1129 C1107 0.950 . S
C1130 C1131 1.349 1_556 S
C1130 C1132 1.327 . S
C1130 H1155 0.950 . S
C1131 C1130 1.349 1_554 S
C1131 C1147 1.349 . S
C1132 C1130 1.327 . S
C1132 C1151 1.429 1_556 S
C1132 H1156 0.950 . S
C1133 C1150 1.574 . S
C1133 C1152 1.368 . S
C1133 H1157 0.949 . S
H1134 C1138 0.949 . S
C1135 C1136 1.372 . S
C1135 C1137 1.327 . S
C1135 H1158 0.950 . S
C1136 C1135 1.372 . S
C1136 C1148 1.330 1_554 S
C1137 C1135 1.327 . S
C1137 C1153 1.429 . S
C1137 H1159 0.950 . S
C1138 H1134 0.949 . S
C1138 C1146 1.574 . S
C1138 C1154 1.368 1_556 S
H1139 C1147 0.950 . S
H1140 C1145 0.950 . S
H1141 C1146 0.949 . S
H1142 C1148 0.950 . S
H1143 C1149 0.950 . S
H1144 C1150 0.949 . S
C1145 H1140 0.950 . S
C1145 C1147 1.327 . S
C1145 C1151 1.429 . S
C1146 C1138 1.574 . S
C1146 H1141 0.949 . S
C1146 C1152 1.368 1_556 S
C1147 C1131 1.349 . S
C1147 H1139 0.950 . S
C1147 C1145 1.327 . S
C1148 C1136 1.330 1_556 S
C1148 H1142 0.950 . S
C1148 C1149 1.327 . S
C1149 H1143 0.950 . S
C1149 C1148 1.327 . S
C1149 C1153 1.429 1_556 S
C1150 C1133 1.574 . S
C1150 H1144 0.949 . S
C1150 C1154 1.368 . S
C1151 C1132 1.429 1_554 S
C1151 C1145 1.429 . S
C1151 C1152 1.523 . S
C1152 C1133 1.368 . S
C1152 C1146 1.368 1_554 S
C1152 C1151 1.523 . S
C1153 C1137 1.429 . S
C1153 C1149 1.429 1_554 S
C1153 C1154 1.523 . S
C1154 C1138 1.368 1_554 S
C1154 C1150 1.368 . S
C1154 C1153 1.523 . S
H1155 C1130 0.950 . S
H1156 C1132 0.950 . S
H1157 C1133 0.949 . S
H1158 C1135 0.950 . S
H1159 C1137 0.950 . S
C1160 C1161 1.349 . S
C1160 C1162 1.327 . S
C1160 H1185 0.950 . S
C1161 C1160 1.349 . S
C1161 C1177 1.349 . S
C1162 C1160 1.327 . S
C1162 C1181 1.429 . S
C1162 H1186 0.950 . S
C1163 C1180 1.574 . S
C1163 C1182 1.368 . S
C1163 H1187 0.949 . S
H1164 C1168 0.949 . S
C1165 C1166 1.349 . S
C1165 C1167 1.327 . S
C1165 H1188 0.950 . S
C1166 C1165 1.349 . S
C1166 C1178 1.349 . S
C1167 C1165 1.327 . S
C1167 C1183 1.429 . S
C1167 H1189 0.950 . S
C1168 H1164 0.949 . S
C1168 C1176 1.574 . S
C1168 C1184 1.368 . S
H1169 C1177 0.950 . S
H1170 C1175 0.950 . S
H1171 C1176 0.949 . S
H1172 C1178 0.950 . S
H1173 C1179 0.950 . S
H1174 C1180 0.949 . S
C1175 H1170 0.950 . S
C1175 C1177 1.327 . S
C1175 C1181 1.429 . S
C1176 C1168 1.574 . S
C1176 H1171 0.949 . S
C1176 C1182 1.368 . S
C1177 C1161 1.349 . S
C1177 H1169 0.950 . S
C1177 C1175 1.327 . S
C1178 C1166 1.349 . S
C1178 H1172 0.950 . S
C1178 C1179 1.327 . S
C1179 H1173 0.950 . S
C1179 C1178 1.327 . S
C1179 C1183 1.429 . S
C1180 C1163 1.574 . S
C1180 H1174 0.949 . S
C1180 C1184 1.368 . S
C1181 C1162 1.429 . S
C1181 C1175 1.429 . S
C1181 C1182 1.523 . S
C1182 C1163 1.368 . S
C1182 C1176 1.368 . S
C1182 C1181 1.523 . S
C1183 C1167 1.429 . S
C1183 C1179 1.429 . S
C1183 C1184 1.523 . S
C1184 C1168 1.368 . S
C1184 C1180 1.368 . S
C1184 C1183 1.523 . S
H1185 C1160 0.950 . S
H1186 C1162 0.950 . S
H1187 C1163 0.949 . S
H1188 C1165 0.950 . S
H1189 C1167 0.950 . S
C1190 C1191 1.349 . S
C1190 C1192 1.327 . S
C1190 H1215 0.950 . S
C1191 C1190 1.349 . S
C1191 C1207 1.349 . S
C1192 C1190 1.327 . S
C1192 C1211 1.429 . S
C1192 H1216 0.950 . S
C1193 C1210 1.574 . S
C1193 C1212 1.368 . S
C1193 H1217 0.949 . S
H1194 C1198 0.949 . S
C1195 C1196 1.349 . S
C1195 C1197 1.327 . S
C1195 H1218 0.950 . S
C1196 C1195 1.349 . S
C1196 C1208 1.349 . S
C1197 C1195 1.327 . S
C1197 C1213 1.429 . S
C1197 H1219 0.950 . S
C1198 H1194 0.949 . S
C1198 C1206 1.574 . S
C1198 C1214 1.368 . S
H1199 C1207 0.950 . S
H1200 C1205 0.950 . S
H1201 C1206 0.949 . S
H1202 C1208 0.950 . S
H1203 C1209 0.950 . S
H1204 C1210 0.949 . S
C1205 H1200 0.950 . S
C1205 C1207 1.327 . S
C1205 C1211 1.429 . S
C1206 C1198 1.574 . S
C1206 H1201 0.949 . S
C1206 C1212 1.368 . S
C1207 C1191 1.349 . S
C1207 H1199 0.950 . S
C1207 C1205 1.327 . S
C1208 C1196 1.349 . S
C1208 H1202 0.950 . S
C1208 C1209 1.327 . S
C1209 H1203 0.950 . S
C1209 C1208 1.327 . S
C1209 C1213 1.429 . S
C1210 C1193 1.574 . S
C1210 H1204 0.949 . S
C1210 C1214 1.368 . S
C1211 C1192 1.429 . S
C1211 C1205 1.429 . S
C1211 C1212 1.523 . S
C1212 C1193 1.368 . S
C1212 C1206 1.368 . S
C1212 C1211 1.523 . S
C1213 C1197 1.429 . S
C1213 C1209 1.429 . S
C1213 C1214 1.523 . S
C1214 C1198 1.368 . S
C1214 C1210 1.368 . S
C1214 C1213 1.523 . S
H1215 C1190 0.950 . S
H1216 C1192 0.950 . S
H1217 C1193 0.949 . S
H1218 C1195 0.950 . S
H1219 C1197 0.950 . S
C1220 C1221 1.349 . S
C1220 C1222 1.327 . S
C1220 H1245 0.950 . S
C1221 C1220 1.349 . S
C1221 C1237 1.349 . S
C1222 C1220 1.327 . S
C1222 C1241 1.429 . S
C1222 H1246 0.950 . S
C1223 C1240 1.574 . S
C1223 C1242 1.368 . S
C1223 H1247 0.949 . S
H1224 C1228 0.949 . S
C1225 C1226 1.349 . S
C1225 C1227 1.327 . S
C1225 H1248 0.950 . S
C1226 C1225 1.349 . S
C1226 C1238 1.349 . S
C1227 C1225 1.327 . S
C1227 C1243 1.429 . S
C1227 H1249 0.950 . S
C1228 H1224 0.949 . S
C1228 C1236 1.574 . S
C1228 C1244 1.368 . S
H1229 C1237 0.950 . S
H1230 C1235 0.950 . S
H1231 C1236 0.949 . S
H1232 C1238 0.950 . S
H1233 C1239 0.950 . S
H1234 C1240 0.949 . S
C1235 H1230 0.950 . S
C1235 C1237 1.327 . S
C1235 C1241 1.429 . S
C1236 C1228 1.574 . S
C1236 H1231 0.949 . S
C1236 C1242 1.368 . S
C1237 C1221 1.349 . S
C1237 H1229 0.950 . S
C1237 C1235 1.327 . S
C1238 C1226 1.349 . S
C1238 H1232 0.950 . S
C1238 C1239 1.327 . S
C1239 H1233 0.950 . S
C1239 C1238 1.327 . S
C1239 C1243 1.429 . S
C1240 C1223 1.574 . S
C1240 H1234 0.949 . S
C1240 C1244 1.368 . S
C1241 C1222 1.429 . S
C1241 C1235 1.429 . S
C1241 C1242 1.523 . S
C1242 C1223 1.368 . S
C1242 C1236 1.368 . S
C1242 C1241 1.523 . S
C1243 C1227 1.429 . S
C1243 C1239 1.429 . S
C1243 C1244 1.523 . S
C1244 C1228 1.368 . S
C1244 C1240 1.368 . S
C1244 C1243 1.523 . S
H1245 C1220 0.950 . S
H1246 C1222 0.950 . S
H1247 C1223 0.949 . S
H1248 C1225 0.950 . S
H1249 C1227 0.950 . S
C1250 C1251 1.349 . S
C1250 C1252 1.327 . S
C1250 H1275 0.950 . S
C1251 C1250 1.349 . S
C1251 C1267 1.349 . S
C1252 C1250 1.327 . S
C1252 C1271 1.429 . S
C1252 H1276 0.950 . S
C1253 C1270 1.574 . S
C1253 C1272 1.368 . S
C1253 H1277 0.949 . S
H1254 C1258 0.949 . S
C1255 C1256 1.349 . S
C1255 C1257 1.327 . S
C1255 H1278 0.950 . S
C1256 C1255 1.349 . S
C1256 C1268 1.349 . S
C1257 C1255 1.327 . S
C1257 C1273 1.429 . S
C1257 H1279 0.950 . S
C1258 H1254 0.949 . S
C1258 C1266 1.574 . S
C1258 C1274 1.368 . S
H1259 C1267 0.950 . S
H1260 C1265 0.950 . S
H1261 C1266 0.949 . S
H1262 C1268 0.950 . S
H1263 C1269 0.950 . S
H1264 C1270 0.949 . S
C1265 H1260 0.950 . S
C1265 C1267 1.327 . S
C1265 C1271 1.429 . S
C1266 C1258 1.574 . S
C1266 H1261 0.949 . S
C1266 C1272 1.368 . S
C1267 C1251 1.349 . S
C1267 H1259 0.950 . S
C1267 C1265 1.327 . S
C1268 C1256 1.349 . S
C1268 H1262 0.950 . S
C1268 C1269 1.327 . S
C1269 H1263 0.950 . S
C1269 C1268 1.327 . S
C1269 C1273 1.429 . S
C1270 C1253 1.574 . S
C1270 H1264 0.949 . S
C1270 C1274 1.368 . S
C1271 C1252 1.429 . S
C1271 C1265 1.429 . S
C1271 C1272 1.523 . S
C1272 C1253 1.368 . S
C1272 C1266 1.368 . S
C1272 C1271 1.523 . S
C1273 C1257 1.429 . S
C1273 C1269 1.429 . S
C1273 C1274 1.523 . S
C1274 C1258 1.368 . S
C1274 C1270 1.368 . S
C1274 C1273 1.523 . S
H1275 C1250 0.950 . S
H1276 C1252 0.950 . S
H1277 C1253 0.949 . S
H1278 C1255 0.950 . S
H1279 C1257 0.950 . S
C1280 C1281 1.349 . S
C1280 C1282 1.327 . S
C1280 H1305 0.950 . S
C1281 C1280 1.349 . S
C1281 C1297 1.349 . S
C1282 C1280 1.327 . S
C1282 C1301 1.429 . S
C1282 H1306 0.950 . S
C1283 C1300 1.574 . S
C1283 C1302 1.368 . S
C1283 H1307 0.949 . S
H1284 C1288 0.949 . S
C1285 C1286 1.349 . S
C1285 C1287 1.327 . S
C1285 H1308 0.950 . S
C1286 C1285 1.349 . S
C1286 C1298 1.349 . S
C1287 C1285 1.327 . S
C1287 C1303 1.429 . S
C1287 H1309 0.950 . S
C1288 H1284 0.949 . S
C1288 C1296 1.574 . S
C1288 C1304 1.368 . S
H1289 C1297 0.950 . S
H1290 C1295 0.950 . S
H1291 C1296 0.949 . S
H1292 C1298 0.950 . S
H1293 C1299 0.950 . S
H1294 C1300 0.949 . S
C1295 H1290 0.950 . S
C1295 C1297 1.327 . S
C1295 C1301 1.429 . S
C1296 C1288 1.574 . S
C1296 H1291 0.949 . S
C1296 C1302 1.368 . S
C1297 C1281 1.349 . S
C1297 H1289 0.950 . S
C1297 C1295 1.327 . S
C1298 C1286 1.349 . S
C1298 H1292 0.950 . S
C1298 C1299 1.327 . S
C1299 H1293 0.950 . S
C1299 C1298 1.327 . S
C1299 C1303 1.429 . S
C1300 C1283 1.574 . S
C1300 H1294 0.949 . S
C1300 C1304 1.368 . S
C1301 C1282 1.429 . S
C1301 C1295 1.429 . S
C1301 C1302 1.523 . S
C1302 C1283 1.368 . S
C1302 C1296 1.368 . S
C1302 C1301 1.523 . S
C1303 C1287 1.429 . S
C1303 C1299 1.429 . S
C1303 C1304 1.523 . S
C1304 C1288 1.368 . S
C1304 C1300 1.368 . S
C1304 C1303 1.523 . S
H1305 C1280 0.950 . S
H1306 C1282 0.950 . S
H1307 C1283 0.949 . S
H1308 C1285 0.950 . S
H1309 C1287 0.950 . S
C1310 C1311 1.349 . S
C1310 C1312 1.327 . S
C1310 H1335 0.950 . S
C1311 C1310 1.349 . S
C1311 C1327 1.349 . S
C1312 C1310 1.327 . S
C1312 C1331 1.429 . S
C1312 H1336 0.950 . S
C1313 C1330 1.574 . S
C1313 C1332 1.368 . S
C1313 H1337 0.949 . S
H1314 C1318 0.949 . S
C1315 C1316 1.349 . S
C1315 C1317 1.327 . S
C1315 H1338 0.950 . S
C1316 C1315 1.349 . S
C1316 C1328 1.349 . S
C1317 C1315 1.327 . S
C1317 C1333 1.429 . S
C1317 H1339 0.950 . S
C1318 H1314 0.949 . S
C1318 C1326 1.574 . S
C1318 C1334 1.368 . S
H1319 C1327 0.950 . S
H1320 C1325 0.950 . S
H1321 C1326 0.949 . S
H1322 C1328 0.950 . S
H1323 C1329 0.950 . S
H1324 C1330 0.949 . S
C1325 H1320 0.950 . S
C1325 C1327 1.327 . S
C1325 C1331 1.429 . S
C1326 C1318 1.574 . S
C1326 H1321 0.949 . S
C1326 C1332 1.368 . S
C1327 C1311 1.349 . S
C1327 H1319 0.950 . S
C1327 C1325 1.327 . S
C1328 C1316 1.349 . S
C1328 H1322 0.950 . S
C1328 C1329 1.327 . S
C1329 H1323 0.950 . S
C1329 C1328 1.327 . S
C1329 C1333 1.429 . S
C1330 C1313 1.574 . S
C1330 H1324 0.949 . S
C1330 C1334 1.368 . S
C1331 C1312 1.429 . S
C1331 C1325 1.429 . S
C1331 C1332 1.523 . S
C1332 C1313 1.368 . S
C1332 C1326 1.368 . S
C1332 C1331 1.523 . S
C1333 C1317 1.429 . S
C1333 C1329 1.429 . S
C1333 C1334 1.523 . S
C1334 C1318 1.368 . S
C1334 C1330 1.368 . S
C1334 C1333 1.523 . S
H1335 C1310 0.950 . S
H1336 C1312 0.950 . S
H1337 C1313 0.949 . S
H1338 C1315 0.950 . S
H1339 C1317 0.950 . S
C1340 C1341 1.349 . S
C1340 C1342 1.327 . S
C1340 H1365 0.950 . S
C1341 C1340 1.349 . S
C1341 C1357 1.349 . S
C1342 C1340 1.327 . S
C1342 C1361 1.429 . S
C1342 H1366 0.950 . S
C1343 C1360 1.574 . S
C1343 C1362 1.368 . S
C1343 H1367 0.949 . S
H1344 C1348 0.949 . S
C1345 C1346 1.349 . S
C1345 C1347 1.327 . S
C1345 H1368 0.950 . S
C1346 C1345 1.349 . S
C1346 C1358 1.349 . S
C1347 C1345 1.327 . S
C1347 C1363 1.429 . S
C1347 H1369 0.950 . S
C1348 H1344 0.949 . S
C1348 C1356 1.574 . S
C1348 C1364 1.368 . S
H1349 C1357 0.950 . S
H1350 C1355 0.950 . S
H1351 C1356 0.949 . S
H1352 C1358 0.950 . S
H1353 C1359 0.950 . S
H1354 C1360 0.949 . S
C1355 H1350 0.950 . S
C1355 C1357 1.327 . S
C1355 C1361 1.429 . S
C1356 C1348 1.574 . S
C1356 H1351 0.949 . S
C1356 C1362 1.368 . S
C1357 C1341 1.349 . S
C1357 H1349 0.950 . S
C1357 C1355 1.327 . S
C1358 C1346 1.349 . S
C1358 H1352 0.950 . S
C1358 C1359 1.327 . S
C1359 H1353 0.950 . S
C1359 C1358 1.327 . S
C1359 C1363 1.429 . S
C1360 C1343 1.574 . S
C1360 H1354 0.949 . S
C1360 C1364 1.368 . S
C1361 C1342 1.429 . S
C1361 C1355 1.429 . S
C1361 C1362 1.523 . S
C1362 C1343 1.368 . S
C1362 C1356 1.368 . S
C1362 C1361 1.523 . S
C1363 C1347 1.429 . S
C1363 C1359 1.429 . S
C1363 C1364 1.523 . S
C1364 C1348 1.368 . S
C1364 C1360 1.368 . S
C1364 C1363 1.523 . S
H1365 C1340 0.950 . S
H1366 C1342 0.950 . S
H1367 C1343 0.949 . S
H1368 C1345 0.950 . S
H1369 C1347 0.950 . S
C1370 C1371 1.349 . S
C1370 C1372 1.327 . S
C1370 H1395 0.950 . S
C1371 C1370 1.349 . S
C1371 C1387 1.349 . S
C1372 C1370 1.327 . S
C1372 C1391 1.429 . S
C1372 H1396 0.950 . S
C1373 C1390 1.574 . S
C1373 C1392 1.368 . S
C1373 H1397 0.949 . S
H1374 C1378 0.949 . S
C1375 C1376 1.349 . S
C1375 C1377 1.327 . S
C1375 H1398 0.950 . S
C1376 C1375 1.349 . S
C1376 C1388 1.349 . S
C1377 C1375 1.327 . S
C1377 C1393 1.429 . S
C1377 H1399 0.950 . S
C1378 H1374 0.949 . S
C1378 C1386 1.574 . S
C1378 C1394 1.368 . S
H1379 C1387 0.950 . S
H1380 C1385 0.950 . S
H1381 C1386 0.949 . S
H1382 C1388 0.950 . S
H1383 C1389 0.950 . S
H1384 C1390 0.949 . S
C1385 H1380 0.950 . S
C1385 C1387 1.327 . S
C1385 C1391 1.429 . S
C1386 C1378 1.574 . S
C1386 H1381 0.949 . S
C1386 C1392 1.368 . S
C1387 C1371 1.349 . S
C1387 H1379 0.950 . S
C1387 C1385 1.327 . S
C1388 C1376 1.349 . S
C1388 H1382 0.950 . S
C1388 C1389 1.327 . S
C1389 H1383 0.950 . S
C1389 C1388 1.327 . S
C1389 C1393 1.429 . S
C1390 C1373 1.574 . S
C1390 H1384 0.949 . S
C1390 C1394 1.368 . S
C1391 C1372 1.429 . S
C1391 C1385 1.429 . S
C1391 C1392 1.523 . S
C1392 C1373 1.368 . S
C1392 C1386 1.368 . S
C1392 C1391 1.523 . S
C1393 C1377 1.429 . S
C1393 C1389 1.429 . S
C1393 C1394 1.523 . S
C1394 C1378 1.368 . S
C1394 C1390 1.368 . S
C1394 C1393 1.523 . S
H1395 C1370 0.950 . S
H1396 C1372 0.950 . S
H1397 C1373 0.949 . S
H1398 C1375 0.950 . S
H1399 C1377 0.950 . S
C1400 C1401 1.349 . S
C1400 C1402 1.327 . S
C1400 H1425 0.950 . S
C1401 C1400 1.349 . S
C1401 C1417 1.349 . S
C1402 C1400 1.327 . S
C1402 C1421 1.429 . S
C1402 H1426 0.950 . S
C1403 C1420 1.574 . S
C1403 C1422 1.368 . S
C1403 H1427 0.949 . S
H1404 C1408 0.949 . S
C1405 C1406 1.349 . S
C1405 C1407 1.327 . S
C1405 H1428 0.950 . S
C1406 C1405 1.349 . S
C1406 C1418 1.349 . S
C1407 C1405 1.327 . S
C1407 C1423 1.429 . S
C1407 H1429 0.950 . S
C1408 H1404 0.949 . S
C1408 C1416 1.574 . S
C1408 C1424 1.368 . S
H1409 C1417 0.950 . S
H1410 C1415 0.950 . S
H1411 C1416 0.949 . S
H1412 C1418 0.950 . S
H1413 C1419 0.950 . S
H1414 C1420 0.949 . S
C1415 H1410 0.950 . S
C1415 C1417 1.327 . S
C1415 C1421 1.429 . S
C1416 C1408 1.574 . S
C1416 H1411 0.949 . S
C1416 C1422 1.368 . S
C1417 C1401 1.349 . S
C1417 H1409 0.950 . S
C1417 C1415 1.327 . S
C1418 C1406 1.349 . S
C1418 H1412 0.950 . S
C1418 C1419 1.327 . S
C1419 H1413 0.950 . S
C1419 C1418 1.327 . S
C1419 C1423 1.429 . S
C1420 C1403 1.574 . S
C1420 H1414 0.949 . S
C1420 C1424 1.368 . S
C1421 C1402 1.429 . S
C1421 C1415 1.429 . S
C1421 C1422 1.523 . S
C1422 C1403 1.368 . S
C1422 C1416 1.368 . S
C1422 C1421 1.523 . S
C1423 C1407 1.429 . S
C1423 C1419 1.429 . S
C1423 C1424 1.523 . S
C1424 C1408 1.368 . S
C1424 C1420 1.368 . S
C1424 C1423 1.523 . S
H1425 C1400 0.950 . S
H1426 C1402 0.950 . S
H1427 C1403 0.949 . S
H1428 C1405 0.950 . S
H1429 C1407 0.950 . S
C1430 C1431 1.349 . S
C1430 C1432 1.327 . S
C1430 H1455 0.950 . S
C1431 C1430 1.349 . S
C1431 C1447 1.349 1_554 S
C1432 C1430 1.327 . S
C1432 C1451 1.429 . S
C1432 H1456 0.950 . S
C1433 C1450 1.574 . S
C1433 C1452 1.368 1_556 S
C1433 H1457 0.949 . S
H1434 C1438 0.949 . S
C1435 C1436 1.349 1_556 S
C1435 C1437 1.327 . S
C1435 H1458 0.950 . S
C1436 C1435 1.349 1_554 S
C1436 C1448 1.349 . S
C1437 C1435 1.327 . S
C1437 C1453 1.429 1_556 S
C1437 H1459 0.950 . S
C1438 H1434 0.949 . S
C1438 C1446 1.574 . S
C1438 C1454 1.368 . S
H1439 C1447 0.950 . S
H1440 C1445 0.950 . S
H1441 C1446 0.949 . S
H1442 C1448 0.950 . S
H1443 C1449 0.950 . S
H1444 C1450 0.949 . S
C1445 H1440 0.950 . S
C1445 C1447 1.327 . S
C1445 C1451 1.429 1_556 S
C1446 C1438 1.574 . S
C1446 H1441 0.949 . S
C1446 C1452 1.368 . S
C1447 C1431 1.349 1_556 S
C1447 H1439 0.950 . S
C1447 C1445 1.327 . S
C1448 C1436 1.349 . S
C1448 H1442 0.950 . S
C1448 C1449 1.327 . S
C1449 H1443 0.950 . S
C1449 C1448 1.327 . S
C1449 C1453 1.429 . S
C1450 C1433 1.574 . S
C1450 H1444 0.949 . S
C1450 C1454 1.368 1_556 S
C1451 C1432 1.429 . S
C1451 C1445 1.429 1_554 S
C1451 C1452 1.523 . S
C1452 C1433 1.368 1_554 S
C1452 C1446 1.368 . S
C1452 C1451 1.523 . S
C1453 C1437 1.429 1_554 S
C1453 C1449 1.429 . S
C1453 C1454 1.523 . S
C1454 C1438 1.368 . S
C1454 C1450 1.368 1_554 S
C1454 C1453 1.523 . S
H1455 C1430 0.950 . S
H1456 C1432 0.950 . S
H1457 C1433 0.949 . S
H1458 C1435 0.950 . S
H1459 C1437 0.950 . S
C1460 C1461 1.349 . S
C1460 C1462 1.327 . S
C1460 H1485 0.950 . S
C1461 C1460 1.349 . S
C1461 C1477 1.349 . S
C1462 C1460 1.327 . S
C1462 C1481 1.429 . S
C1462 H1486 0.950 . S
C1463 C1480 1.574 . S
C1463 C1482 1.368 . S
C1463 H1487 0.949 . S
H1464 C1468 0.949 . S
C1465 C1466 1.349 . S
C1465 C1467 1.327 . S
C1465 H1488 0.950 . S
C1466 C1465 1.349 . S
C1466 C1478 1.349 . S
C1467 C1465 1.327 . S
C1467 C1483 1.429 . S
C1467 H1489 0.950 . S
C1468 H1464 0.949 . S
C1468 C1476 1.574 . S
C1468 C1484 1.368 . S
H1469 C1477 0.950 . S
H1470 C1475 0.950 . S
H1471 C1476 0.949 . S
H1472 C1478 0.950 . S
H1473 C1479 0.950 . S
H1474 C1480 0.949 . S
C1475 H1470 0.950 . S
C1475 C1477 1.327 . S
C1475 C1481 1.429 . S
C1476 C1468 1.574 . S
C1476 H1471 0.949 . S
C1476 C1482 1.368 . S
C1477 C1461 1.349 . S
C1477 H1469 0.950 . S
C1477 C1475 1.327 . S
C1478 C1466 1.349 . S
C1478 H1472 0.950 . S
C1478 C1479 1.327 . S
C1479 H1473 0.950 . S
C1479 C1478 1.327 . S
C1479 C1483 1.429 . S
C1480 C1463 1.574 . S
C1480 H1474 0.949 . S
C1480 C1484 1.368 . S
C1481 C1462 1.429 . S
C1481 C1475 1.429 . S
C1481 C1482 1.523 . S
C1482 C1463 1.368 . S
C1482 C1476 1.368 . S
C1482 C1481 1.523 . S
C1483 C1467 1.429 . S
C1483 C1479 1.429 . S
C1483 C1484 1.523 . S
C1484 C1468 1.368 . S
C1484 C1480 1.368 . S
C1484 C1483 1.523 . S
H1485 C1460 0.950 . S
H1486 C1462 0.950 . S
H1487 C1463 0.949 . S
H1488 C1465 0.950 . S
H1489 C1467 0.950 . S
C1490 C1491 1.349 . S
C1490 C1492 1.327 . S
C1490 H1515 0.950 . S
C1491 C1490 1.349 . S
C1491 C1507 1.349 . S
C1492 C1490 1.327 . S
C1492 C1511 1.429 . S
C1492 H1516 0.950 . S
C1493 C1510 1.574 . S
C1493 C1512 1.368 . S
C1493 H1517 0.949 . S
H1494 C1498 0.949 . S
C1495 C1496 1.349 . S
C1495 C1497 1.327 . S
C1495 H1518 0.950 . S
C1496 C1495 1.349 . S
C1496 C1508 1.349 . S
C1497 C1495 1.327 . S
C1497 C1513 1.429 . S
C1497 H1519 0.950 . S
C1498 H1494 0.949 . S
C1498 C1506 1.574 . S
C1498 C1514 1.368 . S
H1499 C1507 0.950 . S
H1500 C1505 0.950 . S
H1501 C1506 0.949 . S
H1502 C1508 0.950 . S
H1503 C1509 0.950 . S
H1504 C1510 0.949 . S
C1505 H1500 0.950 . S
C1505 C1507 1.327 . S
C1505 C1511 1.429 . S
C1506 C1498 1.574 . S
C1506 H1501 0.949 . S
C1506 C1512 1.368 . S
C1507 C1491 1.349 . S
C1507 H1499 0.950 . S
C1507 C1505 1.327 . S
C1508 C1496 1.349 . S
C1508 H1502 0.950 . S
C1508 C1509 1.327 . S
C1509 H1503 0.950 . S
C1509 C1508 1.327 . S
C1509 C1513 1.429 . S
C1510 C1493 1.574 . S
C1510 H1504 0.949 . S
C1510 C1514 1.368 . S
C1511 C1492 1.429 . S
C1511 C1505 1.429 . S
C1511 C1512 1.523 . S
C1512 C1493 1.368 . S
C1512 C1506 1.368 . S
C1512 C1511 1.523 . S
C1513 C1497 1.429 . S
C1513 C1509 1.429 . S
C1513 C1514 1.523 . S
C1514 C1498 1.368 . S
C1514 C1510 1.368 . S
C1514 C1513 1.523 . S
H1515 C1490 0.950 . S
H1516 C1492 0.950 . S
H1517 C1493 0.949 . S
H1518 C1495 0.950 . S
H1519 C1497 0.950 . S
C1520 C1521 1.349 . S
C1520 C1522 1.327 . S
C1520 H1545 0.950 . S
C1521 C1520 1.349 . S
C1521 C1537 1.349 . S
C1522 C1520 1.327 . S
C1522 C1541 1.429 . S
C1522 H1546 0.950 . S
C1523 C1540 1.574 . S
C1523 C1542 1.368 . S
C1523 H1547 0.949 . S
H1524 C1528 0.949 . S
C1525 C1526 1.349 . S
C1525 C1527 1.327 . S
C1525 H1548 0.950 . S
C1526 C1525 1.349 . S
C1526 C1538 1.349 . S
C1527 C1525 1.327 . S
C1527 C1543 1.429 . S
C1527 H1549 0.950 . S
C1528 H1524 0.949 . S
C1528 C1536 1.574 . S
C1528 C1544 1.368 . S
H1529 C1537 0.950 . S
H1530 C1535 0.950 . S
H1531 C1536 0.949 . S
H1532 C1538 0.950 . S
H1533 C1539 0.950 . S
H1534 C1540 0.949 . S
C1535 H1530 0.950 . S
C1535 C1537 1.327 . S
C1535 C1541 1.429 . S
C1536 C1528 1.574 . S
C1536 H1531 0.949 . S
C1536 C1542 1.368 . S
C1537 C1521 1.349 . S
C1537 H1529 0.950 . S
C1537 C1535 1.327 . S
C1538 C1526 1.349 . S
C1538 H1532 0.950 . S
C1538 C1539 1.327 . S
C1539 H1533 0.950 . S
C1539 C1538 1.327 . S
C1539 C1543 1.429 . S
C1540 C1523 1.574 . S
C1540 H1534 0.949 . S
C1540 C1544 1.368 . S
C1541 C1522 1.429 . S
C1541 C1535 1.429 . S
C1541 C1542 1.523 . S
C1542 C1523 1.368 . S
C1542 C1536 1.368 . S
C1542 C1541 1.523 . S
C1543 C1527 1.429 . S
C1543 C1539 1.429 . S
C1543 C1544 1.523 . S
C1544 C1528 1.368 . S
C1544 C1540 1.368 . S
C1544 C1543 1.523 . S
H1545 C1520 0.950 . S
H1546 C1522 0.950 . S
H1547 C1523 0.949 . S
H1548 C1525 0.950 . S
H1549 C1527 0.950 . S
C1550 C1551 1.349 . S
C1550 C1552 1.327 . S
C1550 H1575 0.950 . S
C1551 C1550 1.349 . S
C1551 C1567 1.349 . S
C1552 C1550 1.327 . S
C1552 C1571 1.429 . S
C1552 H1576 0.950 . S
C1553 C1570 1.574 . S
C1553 C1572 1.368 . S
C1553 H1577 0.949 . S
H1554 C1558 0.949 . S
C1555 C1556 1.349 . S
C1555 C1557 1.327 . S
C1555 H1578 0.950 . S
C1556 C1555 1.349 . S
C1556 C1568 1.349 . S
C1557 C1555 1.327 . S
C1557 C1573 1.429 . S
C1557 H1579 0.950 . S
C1558 H1554 0.949 . S
C1558 C1566 1.574 . S
C1558 C1574 1.368 . S
H1559 C1567 0.950 . S
H1560 C1565 0.950 . S
H1561 C1566 0.949 . S
H1562 C1568 0.950 . S
H1563 C1569 0.950 . S
H1564 C1570 0.949 . S
C1565 H1560 0.950 . S
C1565 C1567 1.327 . S
C1565 C1571 1.429 . S
C1566 C1558 1.574 . S
C1566 H1561 0.949 . S
C1566 C1572 1.368 . S
C1567 C1551 1.349 . S
C1567 H1559 0.950 . S
C1567 C1565 1.327 . S
C1568 C1556 1.349 . S
C1568 H1562 0.950 . S
C1568 C1569 1.327 . S
C1569 H1563 0.950 . S
C1569 C1568 1.327 . S
C1569 C1573 1.429 . S
C1570 C1553 1.574 . S
C1570 H1564 0.949 . S
C1570 C1574 1.368 . S
C1571 C1552 1.429 . S
C1571 C1565 1.429 . S
C1571 C1572 1.523 . S
C1572 C1553 1.368 . S
C1572 C1566 1.368 . S
C1572 C1571 1.523 . S
C1573 C1557 1.429 . S
C1573 C1569 1.429 . S
C1573 C1574 1.523 . S
C1574 C1558 1.368 . S
C1574 C1570 1.368 . S
C1574 C1573 1.523 . S
H1575 C1550 0.950 . S
H1576 C1552 0.950 . S
H1577 C1553 0.949 . S
H1578 C1555 0.950 . S
H1579 C1557 0.950 . S
C1580 C1581 1.349 . S
C1580 C1582 1.327 . S
C1580 H1605 0.950 . S
C1581 C1580 1.349 . S
C1581 C1597 1.349 1_554 S
C1582 C1580 1.327 . S
C1582 C1601 1.429 . S
C1582 H1606 0.950 . S
C1583 C1600 1.574 . S
C1583 C1602 1.368 1_556 S
C1583 H1607 0.949 . S
H1584 C1588 0.949 . S
C1585 C1586 1.349 1_556 S
C1585 C1587 1.327 . S
C1585 H1608 0.950 . S
C1586 C1585 1.349 1_554 S
C1586 C1598 1.349 . S
C1587 C1585 1.327 . S
C1587 C1603 1.429 1_556 S
C1587 H1609 0.950 . S
C1588 H1584 0.949 . S
C1588 C1596 1.574 . S
C1588 C1604 1.368 . S
H1589 C1597 0.950 . S
H1590 C1595 0.950 . S
H1591 C1596 0.949 . S
H1592 C1598 0.950 . S
H1593 C1599 0.950 . S
H1594 C1600 0.949 . S
C1595 H1590 0.950 . S
C1595 C1597 1.327 . S
C1595 C1601 1.429 1_556 S
C1596 C1588 1.574 . S
C1596 H1591 0.949 . S
C1596 C1602 1.368 . S
C1597 C1581 1.349 1_556 S
C1597 H1589 0.950 . S
C1597 C1595 1.327 . S
C1598 C1586 1.349 . S
C1598 H1592 0.950 . S
C1598 C1599 1.327 . S
C1599 H1593 0.950 . S
C1599 C1598 1.327 . S
C1599 C1603 1.429 . S
C1600 C1583 1.574 . S
C1600 H1594 0.949 . S
C1600 C1604 1.368 1_556 S
C1601 C1582 1.429 . S
C1601 C1595 1.429 1_554 S
C1601 C1602 1.523 . S
C1602 C1583 1.368 1_554 S
C1602 C1596 1.368 . S
C1602 C1601 1.523 . S
C1603 C1587 1.429 1_554 S
C1603 C1599 1.429 . S
C1603 C1604 1.523 . S
C1604 C1588 1.368 . S
C1604 C1600 1.368 1_554 S
C1604 C1603 1.523 . S
H1605 C1580 0.950 . S
H1606 C1582 0.950 . S
H1607 C1583 0.949 . S
H1608 C1585 0.950 . S
H1609 C1587 0.950 . S
C1610 C1611 1.349 . S
C1610 C1612 1.327 . S
C1610 H1635 0.950 . S
C1611 C1610 1.349 . S
C1611 C1627 1.349 . S
C1612 C1610 1.327 . S
C1612 C1631 1.429 . S
C1612 H1636 0.950 . S
C1613 C1630 1.574 . S
C1613 C1632 1.368 . S
C1613 H1637 0.949 . S
H1614 C1618 0.949 . S
C1615 C1616 1.349 . S
C1615 C1617 1.327 . S
C1615 H1638 0.950 . S
C1616 C1615 1.349 . S
C1616 C1628 1.349 . S
C1617 C1615 1.327 . S
C1617 C1633 1.429 . S
C1617 H1639 0.950 . S
C1618 H1614 0.949 . S
C1618 C1626 1.574 . S
C1618 C1634 1.368 . S
H1619 C1627 0.950 . S
H1620 C1625 0.950 . S
H1621 C1626 0.949 . S
H1622 C1628 0.950 . S
H1623 C1629 0.950 . S
H1624 C1630 0.949 . S
C1625 H1620 0.950 . S
C1625 C1627 1.327 . S
C1625 C1631 1.429 . S
C1626 C1618 1.574 . S
C1626 H1621 0.949 . S
C1626 C1632 1.368 . S
C1627 C1611 1.349 . S
C1627 H1619 0.950 . S
C1627 C1625 1.327 . S
C1628 C1616 1.349 . S
C1628 H1622 0.950 . S
C1628 C1629 1.327 . S
C1629 H1623 0.950 . S
C1629 C1628 1.327 . S
C1629 C1633 1.429 . S
C1630 C1613 1.574 . S
C1630 H1624 0.949 . S
C1630 C1634 1.368 . S
C1631 C1612 1.429 . S
C1631 C1625 1.429 . S
C1631 C1632 1.523 . S
C1632 C1613 1.368 . S
C1632 C1626 1.368 . S
C1632 C1631 1.523 . S
C1633 C1617 1.429 . S
C1633 C1629 1.429 . S
C1633 C1634 1.523 . S
C1634 C1618 1.368 . S
C1634 C1630 1.368 . S
C1634 C1633 1.523 . S
H1635 C1610 0.950 . S
H1636 C1612 0.950 . S
H1637 C1613 0.949 . S
H1638 C1615 0.950 . S
H1639 C1617 0.950 . S
C1640 C1641 1.349 . S
C1640 C1642 1.327 . S
C1640 H1665 0.950 . S
C1641 C1640 1.349 . S
C1641 C1657 1.349 . S
C1642 C1640 1.327 . S
C1642 C1661 1.429 . S
C1642 H1666 0.950 . S
C1643 C1660 1.574 . S
C1643 C1662 1.368 . S
C1643 H1667 0.949 . S
H1644 C1648 0.949 . S
C1645 C1646 1.349 . S
C1645 C1647 1.327 . S
C1645 H1668 0.950 . S
C1646 C1645 1.349 . S
C1646 C1658 1.349 . S
C1647 C1645 1.327 . S
C1647 C1663 1.429 . S
C1647 H1669 0.950 . S
C1648 H1644 0.949 . S
C1648 C1656 1.574 . S
C1648 C1664 1.368 . S
H1649 C1657 0.950 . S
H1650 C1655 0.950 . S
H1651 C1656 0.949 . S
H1652 C1658 0.950 . S
H1653 C1659 0.950 . S
H1654 C1660 0.949 . S
C1655 H1650 0.950 . S
C1655 C1657 1.327 . S
C1655 C1661 1.429 . S
C1656 C1648 1.574 . S
C1656 H1651 0.949 . S
C1656 C1662 1.368 . S
C1657 C1641 1.349 . S
C1657 H1649 0.950 . S
C1657 C1655 1.327 . S
C1658 C1646 1.349 . S
C1658 H1652 0.950 . S
C1658 C1659 1.327 . S
C1659 H1653 0.950 . S
C1659 C1658 1.327 . S
C1659 C1663 1.429 . S
C1660 C1643 1.574 . S
C1660 H1654 0.949 . S
C1660 C1664 1.368 . S
C1661 C1642 1.429 . S
C1661 C1655 1.429 . S
C1661 C1662 1.523 . S
C1662 C1643 1.368 . S
C1662 C1656 1.368 . S
C1662 C1661 1.523 . S
C1663 C1647 1.429 . S
C1663 C1659 1.429 . S
C1663 C1664 1.523 . S
C1664 C1648 1.368 . S
C1664 C1660 1.368 . S
C1664 C1663 1.523 . S
H1665 C1640 0.950 . S
H1666 C1642 0.950 . S
H1667 C1643 0.949 . S
H1668 C1645 0.950 . S
H1669 C1647 0.950 . S
C1670 C1671 1.349 . S
C1670 C1672 1.327 . S
C1670 H1695 0.950 . S
C1671 C1670 1.349 . S
C1671 C1687 1.349 . S
C1672 C1670 1.327 . S
C1672 C1691 1.429 . S
C1672 H1696 0.950 . S
C1673 C1690 1.574 . S
C1673 C1692 1.368 . S
C1673 H1697 0.949 . S
H1674 C1678 0.949 . S
C1675 C1676 1.349 . S
C1675 C1677 1.327 . S
C1675 H1698 0.950 . S
C1676 C1675 1.349 . S
C1676 C1688 1.349 . S
C1677 C1675 1.327 . S
C1677 C1693 1.429 . S
C1677 H1699 0.950 . S
C1678 H1674 0.949 . S
C1678 C1686 1.574 . S
C1678 C1694 1.368 . S
H1679 C1687 0.950 . S
H1680 C1685 0.950 . S
H1681 C1686 0.949 . S
H1682 C1688 0.950 . S
H1683 C1689 0.950 . S
H1684 C1690 0.949 . S
C1685 H1680 0.950 . S
C1685 C1687 1.327 . S
C1685 C1691 1.429 . S
C1686 C1678 1.574 . S
C1686 H1681 0.949 . S
C1686 C1692 1.368 . S
C1687 C1671 1.349 . S
C1687 H1679 0.950 . S
C1687 C1685 1.327 . S
C1688 C1676 1.349 . S
C1688 H1682 0.950 . S
C1688 C1689 1.327 . S
C1689 H1683 0.950 . S
C1689 C1688 1.327 . S
C1689 C1693 1.429 . S
C1690 C1673 1.574 . S
C1690 H1684 0.949 . S
C1690 C1694 1.368 . S
C1691 C1672 1.429 . S
C1691 C1685 1.429 . S
C1691 C1692 1.523 . S
C1692 C1673 1.368 . S
C1692 C1686 1.368 . S
C1692 C1691 1.523 . S
C1693 C1677 1.429 . S
C1693 C1689 1.429 . S
C1693 C1694 1.523 . S
C1694 C1678 1.368 . S
C1694 C1690 1.368 . S
C1694 C1693 1.523 . S
H1695 C1670 0.950 . S
H1696 C1672 0.950 . S
H1697 C1673 0.949 . S
H1698 C1675 0.950 . S
H1699 C1677 0.950 . S
C1700 C1701 1.349 . S
C1700 C1702 1.327 . S
C1700 H1725 0.950 . S
C1701 C1700 1.349 . S
C1701 C1717 1.349 . S
C1702 C1700 1.327 . S
C1702 C1721 1.429 . S
C1702 H1726 0.950 . S
C1703 C1720 1.574 . S
C1703 C1722 1.368 . S
C1703 H1727 0.949 . S
H1704 C1708 0.949 . S
C1705 C1706 1.349 . S
C1705 C1707 1.327 . S
C1705 H1728 0.950 . S
C1706 C1705 1.349 . S
C1706 C1718 1.349 . S
C1707 C1705 1.327 . S
C1707 C1723 1.429 . S
C1707 H1729 0.950 . S
C1708 H1704 0.949 . S
C1708 C1716 1.574 . S
C1708 C1724 1.368 . S
H1709 C1717 0.950 . S
H1710 C1715 0.950 . S
H1711 C1716 0.949 . S
H1712 C1718 0.950 . S
H1713 C1719 0.950 . S
H1714 C1720 0.949 . S
C1715 H1710 0.950 . S
C1715 C1717 1.327 . S
C1715 C1721 1.429 . S
C1716 C1708 1.574 . S
C1716 H1711 0.949 . S
C1716 C1722 1.368 . S
C1717 C1701 1.349 . S
C1717 H1709 0.950 . S
C1717 C1715 1.327 . S
C1718 C1706 1.349 . S
C1718 H1712 0.950 . S
C1718 C1719 1.327 . S
C1719 H1713 0.950 . S
C1719 C1718 1.327 . S
C1719 C1723 1.429 . S
C1720 C1703 1.574 . S
C1720 H1714 0.949 . S
C1720 C1724 1.368 . S
C1721 C1702 1.429 . S
C1721 C1715 1.429 . S
C1721 C1722 1.523 . S
C1722 C1703 1.368 . S
C1722 C1716 1.368 . S
C1722 C1721 1.523 . S
C1723 C1707 1.429 . S
C1723 C1719 1.429 . S
C1723 C1724 1.523 . S
C1724 C1708 1.368 . S
C1724 C1720 1.368 . S
C1724 C1723 1.523 . S
H1725 C1700 0.950 . S
H1726 C1702 0.950 . S
H1727 C1703 0.949 . S
H1728 C1705 0.950 . S
H1729 C1707 0.950 . S
C1730 C1731 1.349 . S
C1730 C1732 1.327 . S
C1730 H1755 0.950 . S
C1731 C1730 1.349 . S
C1731 C1747 1.349 . S
C1732 C1730 1.327 . S
C1732 C1751 1.429 . S
C1732 H1756 0.950 . S
C1733 C1750 1.574 . S
C1733 C1752 1.368 . S
C1733 H1757 0.949 . S
H1734 C1738 0.949 . S
C1735 C1736 1.349 . S
C1735 C1737 1.327 . S
C1735 H1758 0.950 . S
C1736 C1735 1.349 . S
C1736 C1748 1.349 . S
C1737 C1735 1.327 . S
C1737 C1753 1.429 . S
C1737 H1759 0.950 . S
C1738 H1734 0.949 . S
C1738 C1746 1.574 . S
C1738 C1754 1.368 . S
H1739 C1747 0.950 . S
H1740 C1745 0.950 . S
H1741 C1746 0.949 . S
H1742 C1748 0.950 . S
H1743 C1749 0.950 . S
H1744 C1750 0.949 . S
C1745 H1740 0.950 . S
C1745 C1747 1.327 . S
C1745 C1751 1.429 . S
C1746 C1738 1.574 . S
C1746 H1741 0.949 . S
C1746 C1752 1.368 . S
C1747 C1731 1.349 . S
C1747 H1739 0.950 . S
C1747 C1745 1.327 . S
C1748 C1736 1.349 . S
C1748 H1742 0.950 . S
C1748 C1749 1.327 . S
C1749 H1743 0.950 . S
C1749 C1748 1.327 . S
C1749 C1753 1.429 . S
C1750 C1733 1.574 . S
C1750 H1744 0.949 . S
C1750 C1754 1.368 . S
C1751 C1732 1.429 . S
C1751 C1745 1.429 . S
C1751 C1752 1.523 . S
C1752 C1733 1.368 . S
C1752 C1746 1.368 . S
C1752 C1751 1.523 . S
C1753 C1737 1.429 . S
C1753 C1749 1.429 . S
C1753 C1754 1.523 . S
C1754 C1738 1.368 . S
C1754 C1750 1.368 . S
C1754 C1753 1.523 . S
H1755 C1730 0.950 . S
H1756 C1732 0.950 . S
H1757 C1733 0.949 . S
H1758 C1735 0.950 . S
H1759 C1737 0.950 . S
C321 C6 1.061 . S
C326 C39 1.051 1_455 S
C351 C49 0.781 . S
C356 C36 0.779 . S
C381 C76 0.758 . S
C386 C46 0.758 . S
C411 C9 0.856 . S
C416 C79 0.844 . S
C441 C1 0.857 . S
C446 C188 0.844 1_545 S
C471 C156 1.058 . S
C476 C28 1.050 . S
C501 C41 1.047 . S
C506 C206 1.025 . S
C531 C66 0.938 . S
C536 C276 0.943 . S
C561 C161 0.806 . S
C566 C26 0.803 . S
C591 C246 0.967 . S
C596 C56 0.967 . S
C621 C296 0.941 . S
C626 C68 0.935 . S
C651 C16 1.061 . S
C656 C228 1.051 . S
C681 C19 1.144 . S
C686 C179 1.150 1_554 S
C711 C249 1.329 . S
C716 C81 1.340 . S
C741 C108 1.200 . S
C746 C299 1.185 . S
C771 C221 1.244 . S
C776 C129 1.242 . S
C801 C48 1.171 . S
C806 C148 1.157 . S
C831 C181 1.286 . S
C836 C89 1.279 . S
C861 C121 1.329 . S
C866 C209 1.340 . S
C891 C101 0.781 . S
C896 C226 0.779 . S
C921 C186 0.758 . S
C926 C116 0.758 . S
C951 C239 1.050 . S
C956 C146 1.058 . S
C981 C109 1.047 . S
C986 C96 1.025 . S
C1011 C196 0.938 . S
C1016 C166 0.943 . S
C1041 C269 0.806 . S
C1046 C236 0.803 . S
C1071 C136 0.967 . S
C1076 C106 0.967 . S
C1101 C199 0.935 . S
C1106 C286 0.941 . S
C1131 C268 1.150 . S
C1136 C8 1.144 . S
C1161 C59 1.200 . S
C1166 C288 1.185 . S
C1191 C241 1.242 . S
C1196 C29 1.244 . S
C1221 C159 1.157 . S
C1226 C119 1.171 . S
C1251 C69 1.286 . S
C1256 C201 1.279 . S
C1281 C256 0.929 . S
C1286 C266 0.927 . S
C1311 C149 1.248 . S
C1316 C259 1.201 . S
C1341 C128 1.201 . S
C1346 C141 1.248 . S
C1371 C86 0.803 . S
C1376 C261 0.805 . S
C1401 C248 1.195 . S
C1406 C301 1.240 . S
C1431 C308 1.189 . S
C1436 C168 1.200 . S
C1461 C21 1.190 . S
C1466 C189 1.179 . S
C1491 C176 0.927 . S
C1496 C126 0.929 . S
C1521 C169 0.805 . S
C1526 C216 0.803 . S
C1551 C309 1.240 . S
C1556 C139 1.195 . S
C1581 C279 1.187 1_554 S
C1586 C319 1.193 . S
C1611 C229 1.190 . S
C1616 C61 1.179 . S
C1641 C219 1.375 . S
C1646 C289 1.424 . S
C1671 C208 1.384 . S
C1676 C316 1.409 . S
C1701 C88 1.375 . S
C1706 C281 1.424 . S
C1731 C306 1.409 . S
C1736 C99 1.384 . S
