# Generated by pormake.
# Topology vbj, (5)-cn, num edge types: 1
# Building blocks:
#     Node 0, Type 0, BuildingBlock: BEQFEK_clean_sbu_0, # of connection points: 5
#     Node 1, Type 0, BuildingBlock: BEQFEK_clean_sbu_0, # of connection points: 5
#     Node 2, Type 0, BuildingBlock: BEQFEK_clean_sbu_0, # of connection points: 5
#     Node 3, Type 0, BuildingBlock: BEQFEK_clean_sbu_0, # of connection points: 5
#     Node 4, Type 0, BuildingBlock: BEQFEK_clean_sbu_0, # of connection points: 5
#     Node 5, Type 0, BuildingBlock: BEQFEK_clean_sbu_0, # of connection points: 5
#     Node 6, Type 0, BuildingBlock: BEQFEK_clean_sbu_0, # of connection points: 5
#     Node 7, Type 0, BuildingBlock: BEQFEK_clean_sbu_0, # of connection points: 5
#     Node 8, Type 0, BuildingBlock: BEQFEK_clean_sbu_0, # of connection points: 5
#     Node 9, Type 0, BuildingBlock: BEQFEK_clean_sbu_0, # of connection points: 5
#     Node 10, Type 0, BuildingBlock: BEQFEK_clean_sbu_0, # of connection points: 5
#     Node 11, Type 0, BuildingBlock: BEQFEK_clean_sbu_0, # of connection points: 5
#     Node 12, Type 0, BuildingBlock: BEQFEK_clean_sbu_0, # of connection points: 5
#     Node 13, Type 0, BuildingBlock: BEQFEK_clean_sbu_0, # of connection points: 5
#     Node 14, Type 0, BuildingBlock: BEQFEK_clean_sbu_0, # of connection points: 5
#     Node 15, Type 0, BuildingBlock: BEQFEK_clean_sbu_0, # of connection points: 5
#     Edge 16, Type (0, 0), BuildingBlock: EZIPEK_clean_linker_0, # of connection points: 2
#     Edge 17, Type (0, 0), BuildingBlock: EZIPEK_clean_linker_0, # of connection points: 2
#     Edge 18, Type (0, 0), BuildingBlock: EZIPEK_clean_linker_0, # of connection points: 2
#     Edge 19, Type (0, 0), BuildingBlock: EZIPEK_clean_linker_0, # of connection points: 2
#     Edge 20, Type (0, 0), BuildingBlock: EZIPEK_clean_linker_0, # of connection points: 2
#     Edge 21, Type (0, 0), BuildingBlock: EZIPEK_clean_linker_0, # of connection points: 2
#     Edge 22, Type (0, 0), BuildingBlock: EZIPEK_clean_linker_0, # of connection points: 2
#     Edge 23, Type (0, 0), BuildingBlock: EZIPEK_clean_linker_0, # of connection points: 2
#     Edge 24, Type (0, 0), BuildingBlock: EZIPEK_clean_linker_0, # of connection points: 2
#     Edge 25, Type (0, 0), BuildingBlock: EZIPEK_clean_linker_0, # of connection points: 2
#     Edge 26, Type (0, 0), BuildingBlock: EZIPEK_clean_linker_0, # of connection points: 2
#     Edge 27, Type (0, 0), BuildingBlock: EZIPEK_clean_linker_0, # of connection points: 2
#     Edge 28, Type (0, 0), BuildingBlock: EZIPEK_clean_linker_0, # of connection points: 2
#     Edge 29, Type (0, 0), BuildingBlock: EZIPEK_clean_linker_0, # of connection points: 2
#     Edge 30, Type (0, 0), BuildingBlock: EZIPEK_clean_linker_0, # of connection points: 2
#     Edge 31, Type (0, 0), BuildingBlock: EZIPEK_clean_linker_0, # of connection points: 2
#     Edge 32, Type (0, 0), BuildingBlock: EZIPEK_clean_linker_0, # of connection points: 2
#     Edge 33, Type (0, 0), BuildingBlock: EZIPEK_clean_linker_0, # of connection points: 2
#     Edge 34, Type (0, 0), BuildingBlock: EZIPEK_clean_linker_0, # of connection points: 2
#     Edge 35, Type (0, 0), BuildingBlock: EZIPEK_clean_linker_0, # of connection points: 2
#     Edge 36, Type (0, 0), BuildingBlock: EZIPEK_clean_linker_0, # of connection points: 2
#     Edge 37, Type (0, 0), BuildingBlock: EZIPEK_clean_linker_0, # of connection points: 2
#     Edge 38, Type (0, 0), BuildingBlock: EZIPEK_clean_linker_0, # of connection points: 2
#     Edge 39, Type (0, 0), BuildingBlock: EZIPEK_clean_linker_0, # of connection points: 2
#     Edge 40, Type (0, 0), BuildingBlock: EZIPEK_clean_linker_0, # of connection points: 2
#     Edge 41, Type (0, 0), BuildingBlock: EZIPEK_clean_linker_0, # of connection points: 2
#     Edge 42, Type (0, 0), BuildingBlock: EZIPEK_clean_linker_0, # of connection points: 2
#     Edge 43, Type (0, 0), BuildingBlock: EZIPEK_clean_linker_0, # of connection points: 2
#     Edge 44, Type (0, 0), BuildingBlock: EZIPEK_clean_linker_0, # of connection points: 2
#     Edge 45, Type (0, 0), BuildingBlock: EZIPEK_clean_linker_0, # of connection points: 2
#     Edge 46, Type (0, 0), BuildingBlock: EZIPEK_clean_linker_0, # of connection points: 2
#     Edge 47, Type (0, 0), BuildingBlock: EZIPEK_clean_linker_0, # of connection points: 2
#     Edge 48, Type (0, 0), BuildingBlock: EZIPEK_clean_linker_0, # of connection points: 2
#     Edge 49, Type (0, 0), BuildingBlock: EZIPEK_clean_linker_0, # of connection points: 2
#     Edge 50, Type (0, 0), BuildingBlock: EZIPEK_clean_linker_0, # of connection points: 2
#     Edge 51, Type (0, 0), BuildingBlock: EZIPEK_clean_linker_0, # of connection points: 2
#     Edge 52, Type (0, 0), BuildingBlock: EZIPEK_clean_linker_0, # of connection points: 2
#     Edge 53, Type (0, 0), BuildingBlock: EZIPEK_clean_linker_0, # of connection points: 2
#     Edge 54, Type (0, 0), BuildingBlock: EZIPEK_clean_linker_0, # of connection points: 2
#     Edge 55, Type (0, 0), BuildingBlock: EZIPEK_clean_linker_0, # of connection points: 2
# Relax obj value: 0.102
# Max RMSD: 0.129
# Mean RMSD: 0.129
data_MOF--net-vbj--node1-BEQFEK_clean_sbu_0--edge1-EZIPEK_clean_linker_0
_symmetry_space_group_name_H-M    P1
_symmetry_Int_Tables_number       1
_symmetry_cell_setting            triclinic
loop_
_symmetry_equiv_pos_as_xyz
'x, y, z'
_cell_length_a     19.265744
_cell_length_b     58.292167
_cell_length_c     33.418045
_cell_angle_alpha  90.038147
_cell_angle_beta   90.012067
_cell_angle_gamma 90.081464
loop_
_atom_site_label
_atom_site_type_symbol
_atom_site_fract_x
_atom_site_fract_y
_atom_site_fract_z
_atom_type_partial_charge
Co0 Co 0.06846 0.16369 0.10649 0.0
Co1 Co 0.08951 0.11127 0.08227 0.0
C2 C 0.04296 0.1251 0.16355 0.0
O3 O 0.04613 0.14631 0.15502 0.0
O4 O 0.05761 0.10948 0.13837 0.0
C5 C 0.08079 0.21321 0.13635 0.0
O6 O 0.14238 0.21015 0.15231 0.0
C7 C 0.15044 0.06443 0.08694 0.0
C8 C 0.14093 0.05289 0.02422 0.0
C9 C 0.167 0.04646 0.0612 0.0
N10 N 0.11799 0.08095 0.06576 0.0
N11 N 0.1116 0.0737 0.02845 0.0
C12 C 0.16589 0.06617 0.13069 0.0
H13 H 0.1163 0.06639 0.14757 0.0
H14 H 0.19297 0.08262 0.13687 0.0
H15 H 0.19788 0.05155 0.14121 0.0
C16 C 0.21163 0.16647 0.07185 0.0
N17 N 0.15614 0.1547 0.08562 0.0
N18 N 0.16433 0.13273 0.07697 0.0
C19 C 0.22543 0.12998 0.0582 0.0
C20 C 0.25708 0.15105 0.05421 0.0
C21 C 0.21674 0.19204 0.07061 0.0
H22 H 0.16443 0.19967 0.06714 0.0
H23 H 0.23958 0.19818 0.09914 0.0
H24 H 0.25087 0.19777 0.04578 0.0
O25 O -0.00102 0.15758 0.06571 0.0
O26 O 0.01196 0.12126 0.04664 0.0
H27 H 0.2139 0.10344 0.01464 0.0
H28 H 0.30294 0.10949 0.02742 0.0
C29 C 0.24942 0.10812 0.03942 0.0
H30 H 0.24862 0.09452 0.06224 0.0
H31 H 0.08876 0.08325 0.00557 0.0
O32 O 0.05112 0.19676 0.11816 0.0
C33 C 0.98201 0.14068 0.04395 0.0
Co34 Co 0.40328 0.84342 0.1039 0.0
Co35 Co 0.39219 0.89626 0.0802 0.0
C36 C 0.43627 0.88101 0.16166 0.0
O37 O 0.43008 0.85986 0.15303 0.0
O38 O 0.42315 0.89686 0.13665 0.0
C39 C 0.43153 0.80045 0.14409 0.0
O40 O 0.44212 0.81331 0.1758 0.0
C41 C 0.32658 0.94224 0.08293 0.0
C42 C 0.36785 0.95843 0.02815 0.0
C43 C 0.32384 0.96213 0.06023 0.0
N44 N 0.36973 0.92728 0.06489 0.0
N45 N 0.39456 0.93719 0.03229 0.0
C46 C 0.28832 0.93751 0.12094 0.0
H47 H 0.29133 0.91904 0.12878 0.0
H48 H 0.23327 0.94284 0.1179 0.0
H49 H 0.31174 0.94783 0.14539 0.0
C50 C 0.25975 0.84372 0.07193 0.0
N51 N 0.31791 0.85459 0.08396 0.0
N52 N 0.3143 0.87638 0.07344 0.0
C53 C 0.2542 0.87984 0.05393 0.0
C54 C 0.21781 0.85945 0.05237 0.0
C55 C 0.24857 0.81842 0.0752 0.0
H56 H 0.29021 0.80934 0.05863 0.0
H57 H 0.25241 0.8133 0.10709 0.0
H58 H 0.19714 0.81332 0.06309 0.0
O59 O 0.47397 0.84826 0.0629 0.0
O60 O 0.46917 0.8851 0.04557 0.0
H61 H 0.27964 0.90874 0.01705 0.0
H62 H 0.19096 0.89927 0.01218 0.0
C63 C 0.23454 0.90167 0.03348 0.0
H64 H 0.21773 0.91403 0.05664 0.0
H65 H 0.42902 0.92933 0.0125 0.0
O66 O 0.4076 0.80952 0.11229 0.0
C67 C 0.49522 0.8651 0.0422 0.0
Co68 Co 0.5633 0.84754 0.38173 0.0
Co69 Co 0.5838 0.90051 0.401 0.0
C70 C 0.53467 0.88418 0.32139 0.0
O71 O 0.53824 0.86325 0.33185 0.0
O72 O 0.55027 0.90057 0.34493 0.0
C73 C 0.56785 0.79966 0.34823 0.0
O74 O 0.61437 0.80568 0.32148 0.0
C75 C 0.64476 0.94731 0.39342 0.0
C76 C 0.63763 0.95946 0.4559 0.0
C77 C 0.66327 0.96537 0.41856 0.0
N78 N 0.61204 0.93116 0.41538 0.0
N79 N 0.60688 0.93881 0.4525 0.0
C80 C 0.65911 0.94502 0.34962 0.0
H81 H 0.60916 0.94367 0.33325 0.0
H82 H 0.68828 0.92891 0.3441 0.0
H83 H 0.68886 0.95992 0.33804 0.0
C84 C 0.70672 0.84598 0.41516 0.0
N85 N 0.65123 0.85739 0.40067 0.0
N86 N 0.65943 0.87954 0.40761 0.0
C87 C 0.72067 0.88278 0.42609 0.0
C88 C 0.75226 0.86182 0.4317 0.0
C89 C 0.71071 0.8205 0.41888 0.0
H90 H 0.69621 0.8124 0.39005 0.0
H91 H 0.76364 0.81496 0.42777 0.0
H92 H 0.67304 0.81474 0.4419 0.0
O93 O 0.49484 0.85448 0.42251 0.0
O94 O 0.50704 0.89137 0.43798 0.0
H95 H 0.70916 0.90963 0.46903 0.0
H96 H 0.79809 0.90397 0.45556 0.0
C97 C 0.74416 0.90495 0.44403 0.0
H98 H 0.74218 0.91833 0.42091 0.0
H99 H 0.58439 0.92956 0.47587 0.0
O100 O 0.54798 0.81409 0.37431 0.0
C101 C 0.47773 0.87195 0.44276 0.0
Co102 Co 0.92707 0.1648 0.38145 0.0
Co103 Co 0.90631 0.11243 0.40495 0.0
C104 C 0.9535 0.12636 0.32404 0.0
O105 O 0.94968 0.14758 0.33251 0.0
O106 O 0.93913 0.11076 0.34923 0.0
C107 C 0.91407 0.21476 0.35365 0.0
O108 O 0.85103 0.21226 0.33931 0.0
C109 C 0.83836 0.06701 0.3998 0.0
C110 C 0.86527 0.05154 0.45807 0.0
C111 C 0.82836 0.04766 0.42317 0.0
N112 N 0.87866 0.08189 0.42013 0.0
N113 N 0.8952 0.07238 0.45477 0.0
C114 C 0.80836 0.07152 0.35932 0.0
H115 H 0.80885 0.09018 0.35267 0.0
H116 H 0.75459 0.06473 0.3575 0.0
H117 H 0.8401 0.0625 0.33653 0.0
C118 C 0.78444 0.16724 0.41722 0.0
N119 N 0.83944 0.15563 0.40248 0.0
N120 N 0.83077 0.13354 0.40991 0.0
C121 C 0.76935 0.13051 0.42822 0.0
C122 C 0.7383 0.15156 0.43367 0.0
C123 C 0.78073 0.19275 0.42087 0.0
H124 H 0.83364 0.20013 0.42317 0.0
H125 H 0.75504 0.19977 0.39383 0.0
H126 H 0.74957 0.19784 0.44736 0.0
O127 O 0.99662 0.15879 0.42207 0.0
O128 O 0.98331 0.12251 0.44118 0.0
H129 H 0.69455 0.11005 0.46146 0.0
H130 H 0.73522 0.09625 0.41981 0.0
C131 C 0.74415 0.10824 0.44493 0.0
H132 H 0.78364 0.10104 0.46546 0.0
H133 H 0.92571 0.08033 0.47656 0.0
O134 O 0.94432 0.19789 0.37016 0.0
C135 C 0.01341 0.14194 0.4439 0.0
Co136 Co 0.90478 0.84477 0.8796 0.0
Co137 Co 0.88715 0.89721 0.90368 0.0
C138 C 0.93623 0.8831 0.82284 0.0
O139 O 0.93158 0.86188 0.83124 0.0
O140 O 0.92115 0.89875 0.84789 0.0
C141 C 0.97034 0.8054 0.85339 0.0
O142 O 0.01385 0.82149 0.84197 0.0
C143 C 0.82817 0.94416 0.8988 0.0
C144 C 0.83768 0.95575 0.9615 0.0
C145 C 0.81185 0.96217 0.92447 0.0
N146 N 0.86024 0.92762 0.92008 0.0
N147 N 0.86662 0.93487 0.95738 0.0
C148 C 0.81256 0.94234 0.85507 0.0
H149 H 0.86207 0.94157 0.83818 0.0
H150 H 0.78408 0.92612 0.84918 0.0
H151 H 0.78175 0.95719 0.84435 0.0
C152 C 0.76174 0.84295 0.91172 0.0
N153 N 0.81769 0.85469 0.89878 0.0
N154 N 0.81057 0.87653 0.90832 0.0
C155 C 0.74967 0.87927 0.92736 0.0
C156 C 0.71704 0.85824 0.9303 0.0
C157 C 0.7566 0.81737 0.91176 0.0
H158 H 0.76959 0.81068 0.88158 0.0
H159 H 0.70379 0.81162 0.92054 0.0
H160 H 0.79511 0.81033 0.93316 0.0
O161 O 0.9733 0.84989 0.92147 0.0
O162 O 0.96326 0.88649 0.93966 0.0
H163 H 0.76461 0.90443 0.97303 0.0
H164 H 0.67464 0.89939 0.96076 0.0
C165 C 0.72787 0.90074 0.94831 0.0
H166 H 0.72901 0.91502 0.92682 0.0
H167 H 0.88909 0.92527 0.98033 0.0
O168 O 0.91267 0.81123 0.86905 0.0
C169 C 0.99144 0.86679 0.94299 0.0
Co170 Co 0.56958 0.16447 0.88177 0.0
Co171 Co 0.58561 0.112 0.90593 0.0
C172 C 0.54109 0.12617 0.82452 0.0
O173 O 0.54624 0.14736 0.833 0.0
O174 O 0.55401 0.11048 0.8498 0.0
C175 C 0.58508 0.2143 0.85301 0.0
O176 O 0.6474 0.2115 0.83789 0.0
C177 C 0.65009 0.06593 0.90262 0.0
C178 C 0.61797 0.05102 0.96047 0.0
C179 C 0.65658 0.04659 0.92643 0.0
N180 N 0.61011 0.08132 0.92191 0.0
N181 N 0.59056 0.07215 0.95631 0.0
C182 C 0.68262 0.06987 0.86261 0.0
H183 H 0.68244 0.0884 0.85503 0.0
H184 H 0.73654 0.06317 0.86236 0.0
H185 H 0.65259 0.06036 0.8396 0.0
C186 C 0.71303 0.16578 0.91675 0.0
N187 N 0.65634 0.15462 0.90299 0.0
N188 N 0.66243 0.13257 0.91155 0.0
C189 C 0.72326 0.12914 0.93027 0.0
C190 C 0.75706 0.14985 0.93426 0.0
C191 C 0.72084 0.19127 0.91787 0.0
H192 H 0.66935 0.19951 0.92127 0.0
H193 H 0.74435 0.19707 0.88933 0.0
H194 H 0.75554 0.19666 0.94269 0.0
O195 O 0.49899 0.1591 0.92227 0.0
O196 O 0.50893 0.12271 0.94139 0.0
H197 H 0.70446 0.10004 0.9678 0.0
H198 H 0.79428 0.10852 0.9658 0.0
C199 C 0.74583 0.10686 0.94811 0.0
H200 H 0.75575 0.09464 0.92347 0.0
H201 H 0.55949 0.08049 0.97734 0.0
O202 O 0.55475 0.19764 0.87017 0.0
C203 C 0.48052 0.14238 0.94398 0.0
Co204 Co 0.42593 0.16488 0.60629 0.0
Co205 Co 0.40817 0.11237 0.58213 0.0
C206 C 0.45255 0.1267 0.66371 0.0
O207 O 0.44867 0.1479 0.65524 0.0
O208 O 0.43892 0.11107 0.6384 0.0
C209 C 0.41353 0.21452 0.6357 0.0
O210 O 0.35252 0.21145 0.65241 0.0
C211 C 0.3459 0.06596 0.58877 0.0
C212 C 0.35304 0.05366 0.5264 0.0
C213 C 0.32652 0.04797 0.56368 0.0
N214 N 0.37987 0.08184 0.56686 0.0
N215 N 0.38515 0.07409 0.52982 0.0
C216 C 0.3314 0.06838 0.63254 0.0
H217 H 0.38132 0.06896 0.64906 0.0
H218 H 0.30427 0.08487 0.63807 0.0
H219 H 0.2998 0.05388 0.64402 0.0
C220 C 0.28231 0.16672 0.57192 0.0
N221 N 0.33878 0.15534 0.58528 0.0
N222 N 0.33263 0.13343 0.57562 0.0
C223 C 0.27232 0.13036 0.55606 0.0
C224 C 0.23856 0.15111 0.55324 0.0
C225 C 0.27458 0.19221 0.5723 0.0
H226 H 0.32585 0.20051 0.56801 0.0
H227 H 0.25353 0.19754 0.60174 0.0
H228 H 0.23807 0.198 0.54867 0.0
O229 O 0.4958 0.15891 0.56555 0.0
O230 O 0.48666 0.12233 0.54719 0.0
H231 H 0.29 0.10512 0.51091 0.0
H232 H 0.19942 0.11004 0.52113 0.0
C233 C 0.25175 0.10882 0.5348 0.0
H234 H 0.25118 0.09459 0.55633 0.0
H235 H 0.40847 0.08316 0.50649 0.0
O236 O 0.44258 0.19805 0.61732 0.0
C237 C 0.51506 0.14204 0.54437 0.0
Co238 Co 0.06569 0.84867 0.60366 0.0
Co239 Co 0.07908 0.90164 0.58247 0.0
C240 C 0.03521 0.88519 0.66342 0.0
O241 O 0.04063 0.86419 0.65364 0.0
O242 O 0.04862 0.90144 0.63919 0.0
C243 C 0.06437 0.80285 0.64179 0.0
O244 O 0.09605 0.8117 0.67301 0.0
C245 C 0.14868 0.94705 0.58653 0.0
C246 C 0.10829 0.9641 0.53235 0.0
C247 C 0.15345 0.96702 0.56415 0.0
N248 N 0.10335 0.93276 0.56851 0.0
N249 N 0.07892 0.94322 0.53635 0.0
C250 C 0.18764 0.94152 0.62396 0.0
H251 H 0.18293 0.92301 0.63126 0.0
H252 H 0.24311 0.94632 0.62055 0.0
H253 H 0.16605 0.9518 0.64898 0.0
C254 C 0.20951 0.84867 0.57147 0.0
N255 N 0.15174 0.85952 0.58406 0.0
N256 N 0.15616 0.88147 0.57462 0.0
C257 C 0.21638 0.88505 0.55529 0.0
C258 C 0.25203 0.8646 0.55274 0.0
C259 C 0.21941 0.82329 0.57277 0.0
H260 H 0.18501 0.81517 0.55019 0.0
H261 H 0.20426 0.81669 0.60266 0.0
H262 H 0.27408 0.81862 0.56616 0.0
O263 O 0.99518 0.85459 0.56333 0.0
O264 O 0.00121 0.89153 0.54714 0.0
H265 H 0.19164 0.91457 0.51988 0.0
H266 H 0.27957 0.90476 0.51384 0.0
C267 C 0.23672 0.90705 0.53562 0.0
H268 H 0.2551 0.91894 0.55915 0.0
H269 H 0.04333 0.93588 0.51656 0.0
O270 O 0.05532 0.81503 0.6107 0.0
C271 C 0.97444 0.87165 0.54318 0.0
Co272 Co 0.59352 0.66686 0.11072 0.0
Co273 Co 0.60811 0.61415 0.08752 0.0
C274 C 0.56045 0.62874 0.16796 0.0
O275 O 0.56566 0.64988 0.15906 0.0
O276 O 0.57511 0.61285 0.14333 0.0
C277 C 0.5276 0.70605 0.13619 0.0
O278 O 0.48346 0.68979 0.14595 0.0
C279 C 0.67174 0.56792 0.09026 0.0
C280 C 0.6384 0.55316 0.03249 0.0
C281 C 0.67741 0.54858 0.06632 0.0
N282 N 0.63175 0.58342 0.07128 0.0
N283 N 0.61151 0.57435 0.03691 0.0
C284 C 0.70497 0.57173 0.13013 0.0
H285 H 0.70472 0.59024 0.13797 0.0
H286 H 0.75896 0.5651 0.12994 0.0
H287 H 0.67551 0.56209 0.15318 0.0
C288 C 0.73719 0.66751 0.07897 0.0
N289 N 0.68009 0.65629 0.09164 0.0
N290 N 0.68598 0.63433 0.0826 0.0
C291 C 0.7473 0.63099 0.06432 0.0
C292 C 0.78145 0.65176 0.06121 0.0
C293 C 0.74421 0.69303 0.0786 0.0
H294 H 0.70776 0.70024 0.05618 0.0
H295 H 0.72965 0.70003 0.10832 0.0
H296 H 0.79799 0.6983 0.07091 0.0
O297 O 0.52498 0.66219 0.06879 0.0
O298 O 0.53138 0.62526 0.05227 0.0
H299 H 0.81771 0.61081 0.0277 0.0
H300 H 0.77981 0.59643 0.06973 0.0
C301 C 0.76953 0.60892 0.04557 0.0
H302 H 0.72775 0.60227 0.02594 0.0
H303 H 0.58032 0.5828 0.01608 0.0
O304 O 0.58639 0.70043 0.12166 0.0
C305 C 0.50481 0.64515 0.04824 0.0
Co306 Co 0.9242 0.34591 0.10547 0.0
Co307 Co 0.90708 0.3987 0.08331 0.0
C308 C 0.95686 0.38312 0.16351 0.0
O309 O 0.95198 0.36199 0.15443 0.0
O310 O 0.94178 0.39909 0.13909 0.0
C311 C 0.93437 0.30054 0.14454 0.0
O312 O 0.90955 0.30981 0.17738 0.0
C313 C 0.84823 0.44566 0.09071 0.0
C314 C 0.85749 0.4581 0.02852 0.0
C315 C 0.8319 0.46404 0.06586 0.0
N316 N 0.88005 0.42939 0.06865 0.0
N317 N 0.88629 0.43715 0.03168 0.0
C318 C 0.83299 0.44328 0.13439 0.0
H319 H 0.8826 0.44178 0.15105 0.0
H320 H 0.80328 0.42722 0.13954 0.0
H321 H 0.80346 0.4582 0.14597 0.0
C322 C 0.7787 0.34501 0.07618 0.0
N323 N 0.8365 0.35626 0.08772 0.0
N324 N 0.83041 0.37815 0.07825 0.0
C325 C 0.76891 0.38135 0.06015 0.0
C326 C 0.73439 0.36063 0.05814 0.0
C327 C 0.77072 0.31953 0.07727 0.0
H328 H 0.80578 0.31178 0.05467 0.0
H329 H 0.78642 0.31303 0.10712 0.0
H330 H 0.71641 0.31437 0.07066 0.0
O331 O 0.99173 0.35204 0.06366 0.0
O332 O 0.98199 0.3887 0.04617 0.0
H333 H 0.78518 0.40688 0.0153 0.0
H334 H 0.69487 0.40182 0.02651 0.0
C335 C 0.74772 0.40299 0.03953 0.0
H336 H 0.74824 0.41711 0.06141 0.0
H337 H 0.90858 0.42787 0.00828 0.0
O338 O 0.93631 0.31227 0.11249 0.0
C339 C 0.00966 0.36899 0.04231 0.0
Co340 Co 0.07584 0.34674 0.38485 0.0
Co341 Co 0.09219 0.39988 0.4049 0.0
C342 C 0.04853 0.38326 0.32437 0.0
O343 O 0.05255 0.36227 0.33447 0.0
O344 O 0.0623 0.39959 0.34839 0.0
C345 C 0.06407 0.30155 0.3463 0.0
O346 O 0.08726 0.31107 0.31327 0.0
C347 C 0.16054 0.44553 0.40015 0.0
C348 C 0.12419 0.46195 0.45589 0.0
C349 C 0.16653 0.46532 0.42298 0.0
N350 N 0.11725 0.43092 0.41898 0.0
N351 N 0.09518 0.44101 0.45207 0.0
C352 C 0.19657 0.44047 0.36155 0.0
H353 H 0.19276 0.42194 0.35416 0.0
H354 H 0.25185 0.44577 0.36339 0.0
H355 H 0.17187 0.4506 0.33733 0.0
C356 C 0.21814 0.34611 0.41878 0.0
N357 N 0.16185 0.35725 0.40489 0.0
N358 N 0.1683 0.37936 0.41271 0.0
C359 C 0.22909 0.38284 0.43146 0.0
C360 C 0.2624 0.36208 0.43604 0.0
C361 C 0.22475 0.3206 0.42014 0.0
H362 H 0.21345 0.3134 0.39009 0.0
H363 H 0.27747 0.31536 0.42992 0.0
H364 H 0.18568 0.31361 0.44128 0.0
O365 O 0.00536 0.35329 0.42456 0.0
O366 O 0.01363 0.39029 0.44008 0.0
H367 H 0.29839 0.40345 0.46821 0.0
H368 H 0.26578 0.41675 0.42382 0.0
C369 C 0.25199 0.4052 0.44882 0.0
H370 H 0.20938 0.41286 0.46658 0.0
H371 H 0.06147 0.43338 0.47258 0.0
O372 O 0.06409 0.31304 0.37866 0.0
C373 C 0.98559 0.37063 0.44431 0.0
Co374 Co 0.43138 0.6644 0.3866 0.0
Co375 Co 0.41636 0.61157 0.40807 0.0
C376 C 0.46083 0.62765 0.3272 0.0
O377 O 0.45569 0.64868 0.33676 0.0
O378 O 0.44726 0.61152 0.3516 0.0
C379 C 0.4251 0.71148 0.35095 0.0
O380 O 0.38066 0.70441 0.32378 0.0
C381 C 0.3545 0.56524 0.39947 0.0
C382 C 0.36469 0.55178 0.46093 0.0
C383 C 0.33662 0.54675 0.42373 0.0
N384 N 0.38922 0.58076 0.42181 0.0
N385 N 0.39623 0.57234 0.45829 0.0
C386 C 0.33797 0.56848 0.35611 0.0
H387 H 0.38712 0.56956 0.33891 0.0
H388 H 0.31016 0.58498 0.35202 0.0
H389 H 0.30623 0.55411 0.3442 0.0
C390 C 0.2877 0.665 0.41964 0.0
N391 N 0.34479 0.65398 0.40639 0.0
N392 N 0.33994 0.63204 0.41583 0.0
C393 C 0.28014 0.62859 0.43569 0.0
C394 C 0.24519 0.64915 0.43861 0.0
C395 C 0.27902 0.69045 0.41931 0.0
H396 H 0.29183 0.69724 0.38923 0.0
H397 H 0.22524 0.69537 0.42759 0.0
H398 H 0.31577 0.69816 0.44107 0.0
O399 O 0.5015 0.65815 0.42709 0.0
O400 O 0.4943 0.62126 0.44358 0.0
H401 H 0.30167 0.60335 0.48024 0.0
H402 H 0.21026 0.60808 0.47224 0.0
C403 C 0.26158 0.607 0.45734 0.0
H404 H 0.25985 0.59274 0.43581 0.0
H405 H 0.42042 0.58102 0.4818 0.0
O406 O 0.44429 0.69788 0.3785 0.0
C407 C 0.52164 0.64106 0.44741 0.0
Co408 Co 0.42428 0.34622 0.88541 0.0
Co409 Co 0.40717 0.39899 0.90783 0.0
C410 C 0.45626 0.38348 0.82745 0.0
O411 O 0.45148 0.36235 0.83648 0.0
O412 O 0.44132 0.39945 0.85194 0.0
C413 C 0.43633 0.30121 0.84572 0.0
O414 O 0.41313 0.31078 0.81276 0.0
C415 C 0.34052 0.44489 0.9033 0.0
C416 C 0.37423 0.46055 0.96028 0.0
C417 C 0.33433 0.4645 0.92656 0.0
N418 N 0.38163 0.42983 0.92262 0.0
N419 N 0.40197 0.43945 0.95652 0.0
C420 C 0.30711 0.44046 0.86368 0.0
H421 H 0.30958 0.42194 0.85603 0.0
H422 H 0.25233 0.44633 0.86416 0.0
H423 H 0.33481 0.45044 0.84035 0.0
C424 C 0.27903 0.34527 0.91495 0.0
N425 N 0.33681 0.35654 0.90353 0.0
N426 N 0.3305 0.37845 0.9129 0.0
C427 C 0.26878 0.38164 0.93071 0.0
C428 C 0.23442 0.36089 0.93276 0.0
C429 C 0.27107 0.31979 0.91359 0.0
H430 H 0.30705 0.31194 0.93559 0.0
H431 H 0.2857 0.31342 0.88346 0.0
H432 H 0.21703 0.31457 0.92075 0.0
O433 O 0.49228 0.35222 0.92696 0.0
O434 O 0.48242 0.38883 0.94471 0.0
H435 H 0.28792 0.41075 0.96832 0.0
H436 H 0.19863 0.40148 0.96811 0.0
C437 C 0.24581 0.40363 0.94947 0.0
H438 H 0.23346 0.41585 0.92521 0.0
H439 H 0.43398 0.43145 0.97747 0.0
O440 O 0.43633 0.31261 0.87816 0.0
C441 C 0.51025 0.36913 0.94837 0.0
Co442 Co 0.09379 0.66779 0.8875 0.0
Co443 Co 0.10791 0.61475 0.9093 0.0
C444 C 0.05961 0.63032 0.82926 0.0
O445 O 0.06481 0.65139 0.83869 0.0
O446 O 0.07458 0.61425 0.85345 0.0
C447 C 0.06195 0.71048 0.8477 0.0
O448 O 0.04798 0.6973 0.81684 0.0
C449 C 0.16513 0.56767 0.90205 0.0
C450 C 0.15415 0.55493 0.96394 0.0
C451 C 0.18045 0.54911 0.9267 0.0
N452 N 0.13322 0.58392 0.92413 0.0
N453 N 0.12595 0.57598 0.96093 0.0
C454 C 0.18153 0.57026 0.85855 0.0
H455 H 0.13234 0.57157 0.84144 0.0
H456 H 0.21075 0.58646 0.85381 0.0
H457 H 0.21192 0.55549 0.84709 0.0
C458 C 0.23735 0.66796 0.91896 0.0
N459 N 0.18024 0.65683 0.90602 0.0
N460 N 0.18557 0.63488 0.91513 0.0
C461 C 0.24628 0.63148 0.93408 0.0
C462 C 0.28089 0.65216 0.93713 0.0
C463 C 0.24511 0.69346 0.91895 0.0
H464 H 0.242 0.69977 0.8877 0.0
H465 H 0.29526 0.69883 0.93241 0.0
H466 H 0.20154 0.70124 0.93588 0.0
O467 O 0.02527 0.66252 0.92941 0.0
O468 O 0.03148 0.62545 0.9451 0.0
H469 H 0.22791 0.60612 0.97894 0.0
H470 H 0.3187 0.61073 0.96823 0.0
C471 C 0.26602 0.60977 0.95492 0.0
H472 H 0.26513 0.59561 0.93314 0.0
H473 H 0.10342 0.58521 0.98432 0.0
O474 O 0.08865 0.7017 0.87901 0.0
C475 C 0.00508 0.64535 0.94961 0.0
Co476 Co 0.93333 0.66552 0.60933 0.0
Co477 Co 0.91344 0.61256 0.58957 0.0
C478 C 0.96033 0.62867 0.66959 0.0
O479 O 0.9564 0.64962 0.65931 0.0
O480 O 0.94548 0.61235 0.6458 0.0
C481 C 0.9207 0.7149 0.63778 0.0
O482 O 0.86246 0.71101 0.65706 0.0
C483 C 0.8455 0.56683 0.59493 0.0
C484 C 0.87708 0.551 0.53772 0.0
C485 C 0.83766 0.54727 0.5717 0.0
N486 N 0.88698 0.58168 0.57531 0.0
N487 N 0.90624 0.57193 0.54133 0.0
C488 C 0.81265 0.57149 0.63461 0.0
H489 H 0.81624 0.59 0.6422 0.0
H490 H 0.75753 0.56591 0.63429 0.0
H491 H 0.83994 0.56138 0.6579 0.0
C492 C 0.79044 0.66695 0.57444 0.0
N493 N 0.84591 0.65567 0.58928 0.0
N494 N 0.8378 0.63347 0.58269 0.0
C495 C 0.77654 0.63008 0.56438 0.0
C496 C 0.74482 0.65098 0.55836 0.0
C497 C 0.78557 0.69244 0.57091 0.0
H498 H 0.83742 0.69973 0.56423 0.0
H499 H 0.76759 0.69958 0.59986 0.0
H500 H 0.74809 0.6975 0.54727 0.0
O501 O 0.00308 0.65876 0.56922 0.0
O502 O 0.99082 0.62195 0.55318 0.0
H503 H 0.79236 0.59992 0.52906 0.0
H504 H 0.70322 0.60913 0.53094 0.0
C505 C 0.75191 0.60757 0.54843 0.0
H506 H 0.74152 0.59612 0.5741 0.0
H507 H 0.93812 0.57978 0.52012 0.0
O508 O 0.94923 0.69887 0.61804 0.0
C509 C 0.02044 0.64136 0.5489 0.0
Co510 Co 0.5755 0.34692 0.60615 0.0
Co511 Co 0.59287 0.40001 0.58641 0.0
C512 C 0.54818 0.38329 0.66674 0.0
O513 O 0.55211 0.36228 0.65668 0.0
O514 O 0.56217 0.39957 0.64273 0.0
C515 C 0.56423 0.30123 0.64343 0.0
O516 O 0.59017 0.31013 0.67633 0.0
C517 C 0.65436 0.44645 0.59561 0.0
C518 C 0.64485 0.45991 0.5341 0.0
C519 C 0.67202 0.46502 0.57147 0.0
N520 N 0.62053 0.43083 0.57305 0.0
N521 N 0.61401 0.43923 0.53652 0.0
C522 C 0.67033 0.44325 0.63904 0.0
H523 H 0.62096 0.44208 0.65601 0.0
H524 H 0.69833 0.42679 0.64326 0.0
H525 H 0.70173 0.45767 0.65107 0.0
C526 C 0.71806 0.34601 0.5726 0.0
N527 N 0.662 0.35725 0.58656 0.0
N528 N 0.66855 0.37932 0.5785 0.0
C529 C 0.72904 0.38268 0.55933 0.0
C530 C 0.76213 0.36187 0.55492 0.0
C531 C 0.72426 0.32049 0.5712 0.0
H532 H 0.71061 0.31322 0.60085 0.0
H533 H 0.77756 0.31519 0.56264 0.0
H534 H 0.68677 0.31365 0.54896 0.0
O535 O 0.50569 0.35393 0.56622 0.0
O536 O 0.51455 0.39091 0.55071 0.0
H537 H 0.71233 0.40899 0.51596 0.0
H538 H 0.80275 0.40365 0.52636 0.0
C539 C 0.75017 0.40466 0.53976 0.0
H540 H 0.75041 0.41839 0.56234 0.0
H541 H 0.59046 0.43049 0.51286 0.0
O542 O 0.56229 0.31323 0.6117 0.0
C543 C 0.4863 0.37128 0.54639 0.0
C544 C 0.43968 0.14905 0.01404 0.0
C545 C 0.42408 0.14642 0.97279 0.0
C546 C 0.30252 0.15609 0.9854 0.0
C547 C 0.31613 0.15539 0.02704 0.0
N548 N 0.39557 0.15121 0.08201 0.0
N549 N 0.34122 0.14594 0.91868 0.0
C550 C 0.38442 0.15219 0.04165 0.0
C551 C 0.35574 0.14982 0.95821 0.0
N552 N 0.50728 0.14903 0.02656 0.0
N553 N 0.23826 0.16247 0.9721 0.0
H554 H 0.37891 0.14118 0.89787 0.0
H555 H 0.29122 0.14567 0.90691 0.0
H556 H 0.198 0.16688 0.99146 0.0
H557 H 0.22643 0.16538 0.94215 0.0
H558 H 0.52257 0.1532 0.05554 0.0
H559 H 0.54898 0.14639 0.00718 0.0
H560 H 0.4422 0.14605 0.09488 0.0
H561 H 0.35659 0.15477 0.1028 0.0
C562 C 0.03429 0.8647 0.01369 0.0
C563 C 0.04789 0.86307 0.97206 0.0
C564 C 0.16682 0.8506 0.98586 0.0
C565 C 0.1562 0.85553 0.0269 0.0
N566 N 0.082 0.86777 0.0807 0.0
N567 N 0.12818 0.85659 0.91773 0.0
C568 C 0.09024 0.86249 0.04113 0.0
C569 C 0.11423 0.85628 0.95789 0.0
N570 N 0.96774 0.86765 0.02696 0.0
N571 N 0.22771 0.84084 0.97363 0.0
H572 H 0.09157 0.86114 0.89619 0.0
H573 H 0.17755 0.85427 0.90576 0.0
H574 H 0.26812 0.83702 0.99324 0.0
H575 H 0.23592 0.83462 0.94481 0.0
H576 H 0.95351 0.86663 0.05695 0.0
H577 H 0.92542 0.86929 0.00769 0.0
H578 H 0.03803 0.87576 0.09222 0.0
H579 H 0.12097 0.86502 0.10186 0.0
C580 C 0.79512 0.85884 0.50181 0.0
C581 C 0.80981 0.85807 0.46024 0.0
C582 C 0.93249 0.8663 0.47296 0.0
C583 C 0.91753 0.86768 0.51451 0.0
N584 N 0.83866 0.86181 0.56971 0.0
N585 N 0.89158 0.8562 0.40626 0.0
C586 C 0.85007 0.86272 0.52932 0.0
C587 C 0.87855 0.86017 0.44588 0.0
N588 N 0.72786 0.85714 0.51463 0.0
N589 N 0.99798 0.87114 0.45953 0.0
H590 H 0.85249 0.85144 0.38626 0.0
H591 H 0.94095 0.85577 0.39372 0.0
H592 H 0.03932 0.87485 0.47864 0.0
H593 H 0.01117 0.87265 0.42947 0.0
H594 H 0.7118 0.86069 0.5437 0.0
H595 H 0.6869 0.85298 0.49554 0.0
H596 H 0.79323 0.85556 0.58257 0.0
H597 H 0.87611 0.8663 0.59087 0.0
C598 C 0.69481 0.15479 0.50356 0.0
C599 C 0.6805 0.15552 0.46195 0.0
C600 C 0.55755 0.14754 0.47427 0.0
C601 C 0.57219 0.14604 0.51585 0.0
N602 N 0.65086 0.15157 0.57132 0.0
N603 N 0.59938 0.15743 0.40767 0.0
C604 C 0.63963 0.15088 0.53089 0.0
C605 C 0.61188 0.15352 0.44735 0.0
N606 N 0.76197 0.1565 0.51658 0.0
N607 N 0.49196 0.143 0.46065 0.0
H608 H 0.63878 0.16211 0.38783 0.0
H609 H 0.55021 0.15787 0.39486 0.0
H610 H 0.45029 0.13952 0.47963 0.0
H611 H 0.47884 0.14161 0.43056 0.0
H612 H 0.77786 0.15298 0.54568 0.0
H613 H 0.80305 0.1607 0.49762 0.0
H614 H 0.6962 0.15775 0.5844 0.0
H615 H 0.61341 0.14691 0.59234 0.0
C616 C 0.59068 0.85586 0.944 0.0
C617 C 0.65935 0.85341 0.95823 0.0
C618 C 0.61885 0.85535 0.02762 0.0
C619 C 0.5515 0.86086 0.01326 0.0
N620 N 0.47087 0.86575 0.95867 0.0
N621 N 0.74104 0.85017 0.01245 0.0
C622 C 0.53655 0.86079 0.97162 0.0
C623 C 0.67386 0.85247 -0.0002 0.0
N624 N 0.57792 0.8534 0.90397 0.0
N625 N 0.63023 0.85312 0.06787 0.0
H626 H 0.78195 0.84672 0.99293 0.0
H627 H 0.75715 0.85247 0.0419 0.0
H628 H 0.59289 0.85692 0.08946 0.0
H629 H 0.67556 0.84646 0.08013 0.0
H630 H 0.52865 0.85335 0.89126 0.0
H631 H 0.61717 0.84952 0.88353 0.0
H632 H 0.45763 0.86829 0.92884 0.0
H633 H 0.42918 0.86829 0.97808 0.0
C634 C 0.88471 0.14932 0.94624 0.0
C635 C 0.81705 0.15354 0.96108 0.0
C636 C 0.85733 0.1483 0.02986 0.0
C637 C 0.92525 0.14425 0.01512 0.0
N638 N 0.00756 0.1454 0.96076 0.0
N639 N 0.74088 0.16198 0.01625 0.0
C640 C 0.94023 0.14611 0.97368 0.0
C641 C 0.80425 0.15482 0.00276 0.0
N642 N 0.89502 0.14753 0.9059 0.0
N643 N 0.84295 0.14479 0.06949 0.0
H644 H 0.70055 0.16653 -0.00296 0.0
H645 H 0.73004 0.16539 0.04618 0.0
H646 H 0.8804 0.1397 0.09021 0.0
H647 H 0.79306 0.14503 0.08142 0.0
H648 H 0.94089 0.14162 0.89308 0.0
H649 H 0.85605 0.15112 0.88512 0.0
H650 H 0.02253 0.14906 0.93152 0.0
H651 H 0.04946 0.14273 0.97999 0.0
C652 C 0.13783 0.15021 0.45803 0.0
C653 C 0.07016 0.14561 0.47276 0.0
C654 C 0.11086 0.1505 0.54168 0.0
C655 C 0.17828 0.15516 0.52682 0.0
N656 N 0.25356 0.16464 0.47182 0.0
N657 N 0.98809 0.14604 0.52728 0.0
C658 C 0.19069 0.15691 0.48519 0.0
C659 C 0.05531 0.14716 0.51427 0.0
N660 N 0.15227 0.14703 0.41831 0.0
N661 N 0.10087 0.14838 0.58199 0.0
H662 H 0.94619 0.1433 0.50807 0.0
H663 H 0.97316 0.14944 0.55663 0.0
H664 H 0.13983 0.15206 0.60276 0.0
H665 H 0.05533 0.14213 0.59475 0.0
H666 H 0.20211 0.1477 0.40636 0.0
H667 H 0.11508 0.14175 0.39755 0.0
H668 H 0.26408 0.16834 0.44197 0.0
H669 H 0.29355 0.16938 0.49117 0.0
C670 C 0.30082 0.85765 0.48511 0.0
C671 C 0.3128 0.86091 0.52654 0.0
C672 C 0.43533 0.86939 0.51346 0.0
C673 C 0.4209 0.86912 0.47183 0.0
N674 N 0.33936 0.86531 0.41743 0.0
N675 N 0.3891 0.87058 0.581 0.0
C676 C 0.3536 0.86363 0.45744 0.0
C677 C 0.37967 0.86676 0.54101 0.0
N678 N 0.23849 0.84913 0.4723 0.0
N679 N 0.50231 0.87148 0.52654 0.0
H680 H 0.35024 0.86748 0.60209 0.0
H681 H 0.43404 0.87771 0.59308 0.0
H682 H 0.54427 0.87372 0.50719 0.0
H683 H 0.5171 0.86937 0.55627 0.0
H684 H 0.22875 0.84418 0.44289 0.0
H685 H 0.19808 0.84507 0.49178 0.0
H686 H 0.28965 0.86401 0.40544 0.0
H687 H 0.37649 0.86998 0.39623 0.0
C688 C 0.90834 0.65273 0.04798 0.0
C689 C 0.84004 0.65601 0.0336 0.0
C690 C 0.88146 0.65507 0.96433 0.0
C691 C 0.94842 0.64897 0.97863 0.0
N692 N 0.02778 0.64233 0.03326 0.0
N693 N 0.75923 0.66026 0.97908 0.0
C694 C 0.96263 0.64799 0.02031 0.0
C695 C 0.82615 0.65763 0.99201 0.0
N696 N 0.9207 0.65431 0.08819 0.0
N697 N 0.87067 0.65823 0.92422 0.0
H698 H 0.71791 0.66345 -0.00157 0.0
H699 H 0.74365 0.65834 0.94945 0.0
H700 H 0.9079 0.65461 0.9025 0.0
H701 H 0.82597 0.66552 0.91229 0.0
H702 H 0.96979 0.65376 0.10108 0.0
H703 H 0.88145 0.65802 0.10872 0.0
H704 H 0.04032 0.63901 0.06296 0.0
H705 H 0.06964 0.63995 0.01392 0.0
C706 C 0.68681 0.35418 0.99023 0.0
C707 C 0.67422 0.35641 0.03179 0.0
C708 C 0.55147 0.36433 0.01887 0.0
C709 C 0.56656 0.36538 0.97736 0.0
N710 N 0.64868 0.36316 0.92299 0.0
N711 N 0.59672 0.36374 0.08668 0.0
C712 C 0.63412 0.36053 0.96281 0.0
C713 C 0.60682 0.36123 0.04644 0.0
N714 N 0.74967 0.34632 0.97713 0.0
N715 N 0.48421 0.36574 0.03172 0.0
H716 H 0.63558 0.36026 0.10758 0.0
H717 H 0.55119 0.37009 0.09925 0.0
H718 H 0.44251 0.36833 0.01232 0.0
H719 H 0.46902 0.36275 0.06115 0.0
H720 H 0.76013 0.34219 0.94744 0.0
H721 H 0.78982 0.34192 -0.00344 0.0
H722 H 0.69854 0.36238 0.91109 0.0
H723 H 0.61153 0.36804 0.90196 0.0
C724 C 0.38906 0.36143 0.44908 0.0
C725 C 0.3209 0.35838 0.46384 0.0
C726 C 0.36207 0.36227 0.53284 0.0
C727 C 0.42896 0.36789 0.51784 0.0
N728 N 0.50826 0.37275 0.46261 0.0
N729 N 0.24018 0.35557 0.51863 0.0
C730 C 0.4432 0.36737 0.47614 0.0
C731 C 0.30699 0.35825 0.50551 0.0
N732 N 0.40133 0.35849 0.40911 0.0
N733 N 0.35132 0.36091 0.57327 0.0
H734 H 0.19931 0.35126 0.49957 0.0
H735 H 0.22425 0.35838 0.54796 0.0
H736 H 0.38849 0.36572 0.59438 0.0
H737 H 0.3067 0.35413 0.58622 0.0
H738 H 0.45029 0.35888 0.39605 0.0
H739 H 0.36213 0.35382 0.38911 0.0
H740 H 0.52099 0.3748 0.43259 0.0
H741 H 0.54984 0.37627 0.48165 0.0
C742 C 0.19795 0.65509 0.50687 0.0
C743 C 0.18515 0.65297 0.4653 0.0
C744 C 0.06217 0.6453 0.47833 0.0
C745 C 0.0772 0.64434 0.51986 0.0
N746 N 0.15949 0.64621 0.57416 0.0
N747 N 0.10732 0.64554 0.41051 0.0
C748 C 0.14504 0.6489 0.53434 0.0
C749 C 0.1176 0.64818 0.45072 0.0
N750 N 0.26113 0.66276 0.5199 0.0
N751 N 0.99486 0.64407 0.46546 0.0
H752 H 0.14615 0.64887 0.38951 0.0
H753 H 0.06163 0.63918 0.39808 0.0
H754 H 0.95305 0.64158 0.48482 0.0
H755 H 0.97979 0.6471 0.43602 0.0
H756 H 0.27194 0.66676 0.54961 0.0
H757 H 0.30125 0.66711 0.50039 0.0
H758 H 0.20937 0.64689 0.58606 0.0
H759 H 0.12217 0.64136 0.59515 0.0
C760 C 0.18604 0.35386 0.00032 0.0
C761 C 0.17387 0.35669 0.95882 0.0
C762 C 0.05126 0.36487 0.97172 0.0
C763 C 0.066 0.36529 0.01331 0.0
N764 N 0.14772 0.36219 0.06777 0.0
N765 N 0.09711 0.36511 0.90405 0.0
C766 C 0.13332 0.36004 0.02783 0.0
C767 C 0.10677 0.36198 0.94419 0.0
N768 N 0.24853 0.34565 0.01332 0.0
N769 N 0.98417 0.36666 0.95873 0.0
H770 H 0.13603 0.36179 0.8831 0.0
H771 H 0.05191 0.37182 0.89166 0.0
H772 H 0.94235 0.36906 0.97811 0.0
H773 H 0.96918 0.36413 0.92912 0.0
H774 H 0.25843 0.34103 0.04286 0.0
H775 H 0.28893 0.34146 0.99394 0.0
H776 H 0.19749 0.36115 0.07973 0.0
H777 H 0.11061 0.36695 0.0889 0.0
C778 C 0.32595 0.65796 0.00627 0.0
C779 C 0.33961 0.65635 0.96467 0.0
C780 C 0.46214 0.64816 0.97766 0.0
C781 C 0.44808 0.64896 0.01937 0.0
N782 N 0.37069 0.65807 0.07404 0.0
N783 N 0.41994 0.65474 0.90993 0.0
C784 C 0.38128 0.65513 0.03386 0.0
C785 C 0.40779 0.65305 0.95014 0.0
N786 N 0.25916 0.66084 0.01926 0.0
N787 N 0.52722 0.64253 0.96455 0.0
H788 H 0.38063 0.65859 0.88951 0.0
H789 H 0.46893 0.65416 0.89693 0.0
H790 H 0.56917 0.64007 0.9838 0.0
H791 H 0.53967 0.63935 0.93479 0.0
H792 H 0.24357 0.659 0.04888 0.0
H793 H 0.21797 0.66426 -8e-05 0.0
H794 H 0.32627 0.66546 0.08616 0.0
H795 H 0.4078 0.65414 0.09566 0.0
C796 C 0.56415 0.64615 0.5176 0.0
C797 C 0.57877 0.64491 0.47599 0.0
C798 C 0.70122 0.65382 0.48841 0.0
C799 C 0.68685 0.65451 0.53003 0.0
N800 N 0.6056 0.65602 0.58429 0.0
N801 N 0.65724 0.65084 0.42061 0.0
C802 C 0.61829 0.65223 0.54458 0.0
C803 C 0.6461 0.64992 0.46103 0.0
N804 N 0.49878 0.64124 0.53116 0.0
N805 N 0.76836 0.65562 0.4754 0.0
H806 H 0.61978 0.64624 0.39953 0.0
H807 H 0.70247 0.65716 0.40764 0.0
H808 H 0.80946 0.6598 0.49437 0.0
H809 H 0.78422 0.65212 0.44628 0.0
H810 H 0.48581 0.63965 0.56123 0.0
H811 H 0.45728 0.63759 0.51213 0.0
H812 H 0.55636 0.65631 0.59702 0.0
H813 H 0.6448 0.66077 0.60423 0.0
C814 C 0.8612 0.36184 0.45792 0.0
C815 C 0.92833 0.36719 0.47287 0.0
C816 C 0.88863 0.36063 0.5416 0.0
C817 C 0.82026 0.35797 0.52694 0.0
N818 N 0.73914 0.35561 0.47228 0.0
N819 N 0.00808 0.37159 0.52804 0.0
C820 C 0.80611 0.358 0.4853 0.0
C821 C 0.9428 0.36647 0.51453 0.0
N822 N 0.85027 0.36054 0.41749 0.0
N823 N 0.90108 0.35745 0.5815 0.0
H824 H 0.04966 0.37504 0.50897 0.0
H825 H 0.02097 0.37352 0.55806 0.0
H826 H 0.86184 0.35287 0.60152 0.0
H827 H 0.95018 0.35751 0.59442 0.0
H828 H 0.80527 0.354 0.40456 0.0
H829 H 0.88764 0.36513 0.39637 0.0
H830 H 0.72315 0.35853 0.44299 0.0
H831 H 0.69826 0.35141 0.49139 0.0
C832 C 0.17045 1.00355 0.06033 0.0
C833 C 0.20464 0.02452 0.06908 0.0
C834 C 0.31229 1.00313 0.0821 0.0
C835 C 0.28089 0.983 0.06668 0.0
N836 N 0.1822 0.96477 0.03555 0.0
N837 N 0.31143 0.04456 0.08433 0.0
C838 C 0.21029 0.98332 0.0546 0.0
C839 C 0.27633 0.0244 0.07944 0.0
N840 N 0.09967 1.00294 0.0579 0.0
N841 N 0.37649 1.00191 0.09936 0.0
H842 H 0.2875 0.06048 0.08284 0.0
H843 H 0.36523 0.04557 0.08692 0.0
H844 H 0.40436 0.98662 0.10145 0.0
H845 H 0.39915 0.01552 0.11481 0.0
H846 H 0.07144 0.98776 0.05523 0.0
H847 H 0.0689 0.01739 0.06289 0.0
H848 H 0.13316 0.96489 0.02243 0.0
H849 H 0.21059 0.95002 0.02939 0.0
C850 C 0.67052 0.00812 0.41948 0.0
C851 C 0.70267 0.98692 0.41017 0.0
C852 C 0.81276 0.00732 0.39865 0.0
C853 C 0.78332 0.02747 0.41506 0.0
N854 N 0.68547 0.04658 0.44529 0.0
N855 N 0.8072 0.96601 0.39363 0.0
C856 C 0.71231 0.02784 0.42628 0.0
C857 C 0.77438 0.98643 0.39983 0.0
N858 N 0.59979 0.0094 0.42146 0.0
N859 N 0.87753 0.00813 0.38202 0.0
H860 H 0.78136 0.95039 0.39334 0.0
H861 H 0.86088 0.96441 0.39129 0.0
H862 H 0.90733 0.02309 0.38128 0.0
H863 H 0.89901 0.9946 0.36586 0.0
H864 H 0.57293 0.0248 0.42456 0.0
H865 H 0.56779 0.99532 0.41565 0.0
H866 H 0.63611 0.04688 0.45798 0.0
H867 H 0.71483 0.06113 0.45157 0.0
C868 C 0.66699 1.00567 0.90418 0.0
C869 C 0.6991 0.02573 0.91932 0.0
C870 C 0.80942 1.00504 0.92477 0.0
C871 C 0.77461 0.98413 0.91645 0.0
N872 N 0.66744 0.96424 0.9015 0.0
N873 N 0.79933 0.0441 0.94851 0.0
C874 C 0.70277 0.98435 0.90644 0.0
C875 C 0.77014 0.02539 0.93051 0.0
N876 N 0.60222 0.00698 0.88766 0.0
N877 N 0.88027 1.00547 0.9267 0.0
H878 H 0.77182 0.05912 0.95399 0.0
H879 H 0.84872 0.04401 0.96119 0.0
H880 H 0.91056 0.99091 0.92169 0.0
H881 H 0.909 0.02056 0.929 0.0
H882 H 0.57889 0.99344 0.87237 0.0
H883 H 0.57436 0.0223 0.88603 0.0
H884 H 0.6136 0.96326 0.89929 0.0
H885 H 0.69135 0.9483 0.90232 0.0
C886 C 0.17458 0.00742 0.58717 0.0
C887 C 0.20063 0.98697 0.57001 0.0
C888 C 0.31431 1.00529 0.56181 0.0
C889 C 0.28513 0.02681 0.57214 0.0
N890 N 0.1832 0.04871 0.59041 0.0
N891 N 0.29254 0.96757 0.53459 0.0
C892 C 0.21427 0.02799 0.58424 0.0
C893 C 0.26999 0.98611 0.55587 0.0
N894 N 0.1118 0.00723 0.60618 0.0
N895 N 0.38461 1.00314 0.55796 0.0
H896 H 0.26027 0.95383 0.52756 0.0
H897 H 0.34056 0.96699 0.52029 0.0
H898 H 0.41867 0.01676 0.56323 0.0
H899 H 0.40923 0.98741 0.55394 0.0
H900 H 0.09327 0.02104 0.62284 0.0
H901 H 0.08114 0.99251 0.60838 0.0
H902 H 0.12988 0.05065 0.5943 0.0
H903 H 0.20963 0.0642 0.58872 0.0
C904 C 0.72331 0.48619 0.08508 0.0
C905 C 0.79503 0.48596 0.0748 0.0
C906 C 0.79072 0.52729 0.0615 0.0
C907 C 0.71984 0.52765 0.07297 0.0
N908 N 0.62323 0.50883 0.10472 0.0
N909 N 0.90074 0.50728 0.0647 0.0
C910 C 0.68776 0.50754 0.08789 0.0
C911 C 0.82991 0.50689 0.0668 0.0
N912 N 0.68784 0.46608 0.08971 0.0
N913 N 0.81982 0.54603 0.04357 0.0
H914 H 0.93096 0.49268 0.06942 0.0
H915 H 0.92953 0.52237 0.06257 0.0
H916 H 0.79229 0.56107 0.03828 0.0
H917 H 0.86906 0.54593 0.03071 0.0
H918 H 0.63402 0.46516 0.09214 0.0
H919 H 0.71155 0.45012 0.08838 0.0
H920 H 0.59997 0.49523 0.11984 0.0
H921 H 0.59557 0.52417 0.10675 0.0
C922 C 0.22394 0.52674 0.40422 0.0
C923 C 0.29562 0.52562 0.41458 0.0
C924 C 0.28325 0.48459 0.42869 0.0
C925 C 0.21273 0.48545 0.41659 0.0
N926 N 0.12041 0.50596 0.38394 0.0
N927 N 0.39696 0.50218 0.42475 0.0
C928 C 0.18468 0.50609 0.40126 0.0
C929 C 0.32636 0.50406 0.42279 0.0
N930 N 0.19193 0.54745 0.39974 0.0
N931 N 0.30821 0.46574 0.44811 0.0
H932 H 0.43003 0.51606 0.41953 0.0
H933 H 0.4225 0.4865 0.42714 0.0
H934 H 0.27713 0.45169 0.45499 0.0
H935 H 0.35735 0.46508 0.46108 0.0
H936 H 0.13833 0.54929 0.39727 0.0
H937 H 0.21815 0.56298 0.4013 0.0
H938 H 0.10005 0.51997 0.36858 0.0
H939 H 0.09013 0.49115 0.38174 0.0
C940 C 0.32463 0.50555 0.90507 0.0
C941 C 0.29189 0.48536 0.9192 0.0
C942 C 0.18186 0.50624 0.92466 0.0
C943 C 0.21727 0.52718 0.91762 0.0
N944 N 0.32516 0.547 0.90417 0.0
N945 N 0.19068 0.46689 0.94695 0.0
C946 C 0.28928 0.52692 0.90802 0.0
C947 C 0.2206 0.48572 0.92983 0.0
N948 N 0.38961 0.50428 0.88883 0.0
N949 N 0.11097 0.50595 0.92603 0.0
H950 H 0.21786 0.45177 0.95215 0.0
H951 H 0.14101 0.46694 0.95925 0.0
H952 H 0.08113 0.52065 0.92145 0.0
H953 H 0.0819 0.49089 0.92743 0.0
H954 H 0.41354 0.51797 0.87429 0.0
H955 H 0.417 0.48889 0.88658 0.0
H956 H 0.37906 0.54786 0.90236 0.0
H957 H 0.30161 0.56298 0.90548 0.0
C958 C 0.72139 0.52756 0.56774 0.0
C959 C 0.79246 0.52698 0.57884 0.0
C960 C 0.78371 0.48559 0.5908 0.0
C961 C 0.71181 0.48634 0.58094 0.0
N962 N 0.60885 0.50914 0.57202 0.0
N963 N 0.88693 0.50685 0.6101 0.0
C964 C 0.6796 0.50775 0.57345 0.0
C965 C 0.82206 0.50644 0.59356 0.0
N966 N 0.69457 0.54655 0.54957 0.0
N967 N 0.81671 0.46503 0.59502 0.0
H968 H 0.91652 0.52182 0.61212 0.0
H969 H 0.90861 0.49291 0.62503 0.0
H970 H 0.791 0.44939 0.59382 0.0
H971 H 0.87043 0.46342 0.59703 0.0
H972 H 0.64503 0.54707 0.53711 0.0
H973 H 0.72425 0.56104 0.54345 0.0
H974 H 0.58217 0.52464 0.57022 0.0
H975 H 0.57682 0.49497 0.57702 0.0
C976 C 0.01484 0.27095 0.17583 0.0
C977 C 0.96794 0.27744 0.14488 0.0
C978 C 0.00537 0.24401 0.10606 0.0
C979 C 0.04407 0.23573 0.13929 0.0
N980 N 0.06811 0.23909 0.21024 0.0
N981 N 0.90559 0.26602 0.08537 0.0
C982 C 0.04371 0.2485 0.17557 0.0
C983 C 0.95913 0.26267 0.11149 0.0
N984 N 0.03563 0.28639 0.20419 0.0
N985 N 0.01494 0.23495 0.06875 0.0
H986 H 0.86809 0.27866 0.08963 0.0
H987 H 0.8939 0.25451 0.06242 0.0
H988 H 0.05238 0.22257 0.06247 0.0
H989 H 0.99183 0.24183 0.04323 0.0
H990 H 0.07443 0.28276 0.22499 0.0
H991 H 0.02061 0.30353 0.20426 0.0
H992 H 0.06329 0.24723 0.2379 0.0
H993 H 0.08543 0.22222 0.21229 0.0
C994 C 0.52429 0.77056 0.1563 0.0
C995 C 0.45589 0.77619 0.14338 0.0
C996 C 0.44049 0.73667 0.11992 0.0
C997 C 0.50471 0.73039 0.13778 0.0
N998 N 0.60126 0.74074 0.18013 0.0
N999 N 0.34372 0.76304 0.12069 0.0
C1000 C 0.5448 0.74715 0.15809 0.0
C1001 C 0.41244 0.75878 0.12744 0.0
N1002 N 0.57133 0.78748 0.16461 0.0
N1003 N 0.40765 0.72197 0.09423 0.0
H1004 H 0.32051 0.77873 0.12741 0.0
H1005 H 0.30841 0.75029 0.11264 0.0
H1006 H 0.4282 0.70611 0.08601 0.0
H1007 H 0.36414 0.7266 0.07757 0.0
H1008 H 0.6235 0.78417 0.17044 0.0
H1009 H 0.56071 0.80489 0.16119 0.0
H1010 H 0.62759 0.752 0.19906 0.0
H1011 H 0.61755 0.72375 0.18262 0.0
C1012 C 0.519 0.76544 0.38434 0.0
C1013 C 0.5343 0.77653 0.34756 0.0
C1014 C 0.4829 0.7438 0.31189 0.0
C1015 C 0.45809 0.73467 0.34876 0.0
N1016 N 0.43758 0.7412 0.41925 0.0
N1017 N 0.51261 0.77841 0.27609 0.0
C1018 C 0.47162 0.74682 0.38476 0.0
C1019 C 0.51114 0.76637 0.31115 0.0
N1020 N 0.55153 0.772 0.41882 0.0
N1021 N 0.48326 0.73076 0.2779 0.0
H1022 H 0.52837 0.79546 0.27416 0.0
H1023 H 0.49031 0.77224 0.24975 0.0
H1024 H 0.468 0.71363 0.27717 0.0
H1025 H 0.50663 0.73623 0.25142 0.0
H1026 H 0.54601 0.76308 0.44568 0.0
H1027 H 0.59039 0.78445 0.41946 0.0
H1028 H 0.44188 0.75086 0.4454 0.0
H1029 H 0.39877 0.72874 0.42032 0.0
C1030 C 0.03926 0.26341 0.37839 0.0
C1031 C 0.02929 0.27862 0.34578 0.0
C1032 C 0.9504 0.25042 0.31534 0.0
C1033 C 0.95164 0.23716 0.35101 0.0
N1034 N 0.98489 0.2352 0.42086 0.0
N1035 N 0.95851 0.28866 0.28826 0.0
C1036 C 0.99263 0.24481 0.38383 0.0
C1037 C 0.9803 0.27275 0.31549 0.0
N1038 N 0.09423 0.26628 0.40372 0.0
N1039 N 0.92337 0.24161 0.28081 0.0
H1040 H 0.97421 0.30575 0.28868 0.0
H1041 H 0.91836 0.28546 0.26808 0.0
H1042 H 0.90487 0.22486 0.27843 0.0
H1043 H 0.92702 0.25008 0.25341 0.0
H1044 H 0.10674 0.25444 0.42595 0.0
H1045 H 0.13184 0.27892 0.39944 0.0
H1046 H 0.00968 0.24162 0.44625 0.0
H1047 H 0.94745 0.22281 0.42725 0.0
C1048 C 0.05822 0.77474 0.86828 0.0
C1049 C 0.99258 0.78099 0.85218 0.0
C1050 C 0.96931 0.74055 0.83718 0.0
C1051 C 0.03866 0.73485 0.84809 0.0
N1052 N 0.15357 0.74784 0.86596 0.0
N1053 N 0.89134 0.77023 0.81393 0.0
C1054 C 0.08446 0.75234 0.86132 0.0
C1055 C 0.94969 0.76401 0.83445 0.0
N1056 N 0.09423 0.78977 0.89192 0.0
N1057 N 0.9208 0.72371 0.83167 0.0
H1058 H 0.87582 0.78725 0.81056 0.0
H1059 H 0.86235 0.75869 0.79691 0.0
H1060 H 0.93112 0.70634 0.83589 0.0
H1061 H 0.86825 0.72715 0.82744 0.0
H1062 H 0.13912 0.78522 0.90739 0.0
H1063 H 0.07528 0.80589 0.89988 0.0
H1064 H 0.19019 0.76057 0.8719 0.0
H1065 H 0.17532 0.7319 0.85951 0.0
C1066 C 0.54894 0.24996 0.81457 0.0
C1067 C 0.54817 0.23679 0.85038 0.0
C1068 C 0.46122 0.26313 0.87791 0.0
C1069 C 0.47084 0.27826 0.84514 0.0
N1070 N 0.54104 0.28814 0.78728 0.0
N1071 N 0.51636 0.23518 0.92046 0.0
C1072 C 0.51937 0.2723 0.81469 0.0
C1073 C 0.5079 0.24459 0.88335 0.0
N1074 N 0.57511 0.24102 0.77993 0.0
N1075 N 0.40653 0.266 0.90341 0.0
H1076 H 0.55404 0.2229 0.92681 0.0
H1077 H 0.49198 0.2417 0.94589 0.0
H1078 H 0.36874 0.27854 0.89906 0.0
H1079 H 0.39438 0.25423 0.92582 0.0
H1080 H 0.57112 0.24945 0.75251 0.0
H1081 H 0.59315 0.22424 0.77753 0.0
H1082 H 0.58088 0.28486 0.76696 0.0
H1083 H 0.52564 0.30524 0.78767 0.0
C1084 C 0.48862 0.24525 0.60479 0.0
C1085 C 0.45075 0.237 0.63837 0.0
C1086 C 0.48262 0.272 0.67487 0.0
C1087 C 0.52899 0.27837 0.64357 0.0
N1088 N 0.58856 0.26697 0.58313 0.0
N1089 N 0.42912 0.24027 0.70959 0.0
C1090 C 0.53586 0.26372 0.60987 0.0
C1091 C 0.45277 0.24967 0.67473 0.0
N1092 N 0.47738 0.23631 0.56754 0.0
N1093 N 0.46324 0.28746 0.70348 0.0
H1094 H 0.4112 0.22345 0.71174 0.0
H1095 H 0.43513 0.24833 0.73725 0.0
H1096 H 0.47888 0.30456 0.70346 0.0
H1097 H 0.42486 0.28393 0.72461 0.0
H1098 H 0.49984 0.24317 0.5418 0.0
H1099 H 0.43929 0.22405 0.56163 0.0
H1100 H 0.59886 0.25551 0.55991 0.0
H1101 H 0.62675 0.27945 0.58702 0.0
C1102 C 0.98821 0.74675 0.60482 0.0
C1103 C 0.95631 0.73766 0.63975 0.0
C1104 C 0.99244 0.77209 0.67665 0.0
C1105 C 0.03224 0.77952 0.64312 0.0
N1106 N 0.0827 0.76966 0.57923 0.0
N1107 N 0.94686 0.73924 0.71202 0.0
C1108 C 0.03467 0.76552 0.60841 0.0
C1109 C 0.96383 0.74957 0.67666 0.0
N1110 N 0.97214 0.73823 0.56786 0.0
N1111 N 0.97814 0.78668 0.70758 0.0
H1112 H 0.92965 0.72233 0.71397 0.0
H1113 H 0.95789 0.74662 0.73974 0.0
H1114 H 0.99327 0.80382 0.70806 0.0
H1115 H 0.94409 0.78241 0.73066 0.0
H1116 H 0.98979 0.74573 0.54143 0.0
H1117 H 0.93477 0.72557 0.56334 0.0
H1118 H 0.09012 0.7587 0.55494 0.0
H1119 H 0.12055 0.78237 0.58189 0.0
C1120 C 0.0708 0.11841 0.23526 0.0
C1121 C 0.02095 0.1188 0.20412 0.0
C1122 C 0.92592 0.1187 0.25249 0.0
C1123 C 0.97579 0.1199 0.28358 0.0
N1124 N 0.09332 0.11528 0.30662 0.0
N1125 N 0.90347 0.11362 0.18143 0.0
C1126 C 0.04768 0.11777 0.27557 0.0
C1127 C 0.94907 0.11693 0.21228 0.0
N1128 N 0.13989 0.11966 0.22609 0.0
N1129 N 0.85683 0.12025 0.26149 0.0
H1130 H 0.91957 0.11233 0.1517 0.0
H1131 H 0.85078 0.11038 0.18524 0.0
H1132 H 0.83838 0.12055 0.29085 0.0
H1133 H 0.81781 0.12207 0.24022 0.0
H1134 H 0.17897 0.1221 0.24716 0.0
H1135 H 0.15822 0.11902 0.19672 0.0
H1136 H 0.14592 0.11187 0.303 0.0
H1137 H 0.0774 0.11489 0.33646 0.0
C1138 C 0.53161 0.89101 0.20893 0.0
C1139 C 0.45992 0.8871 0.20212 0.0
C1140 C 0.4367 0.88902 0.27397 0.0
C1141 C 0.5092 0.88925 0.2809 0.0
N1142 N 0.62671 0.89129 0.25674 0.0
N1143 N 0.34296 0.88294 0.22655 0.0
C1144 C 0.55705 0.89089 0.24885 0.0
C1145 C 0.41186 0.88658 0.23421 0.0
N1146 N 0.57503 0.89462 0.17716 0.0
N1147 N 0.39208 0.89124 0.30555 0.0
H1148 H 0.32275 0.88223 0.1976 0.0
H1149 H 0.30612 0.87967 0.24859 0.0
H1150 H 0.40935 0.89323 0.33495 0.0
H1151 H 0.33861 0.89304 0.30259 0.0
H1152 H 0.62675 0.89951 0.17995 0.0
H1153 H 0.55795 0.89432 0.14753 0.0
H1154 H 0.665 0.88981 0.23496 0.0
H1155 H 0.64655 0.89223 0.28576 0.0
C1156 C 0.91659 0.8943 0.75165 0.0
C1157 C 0.96333 0.88943 0.78325 0.0
C1158 C 0.06038 0.88688 0.73639 0.0
C1159 C 0.0131 0.89048 0.70452 0.0
N1160 N 0.90068 0.90246 0.68092 0.0
N1161 N 0.0802 0.88682 0.80818 0.0
C1162 C 0.94259 0.89599 0.71195 0.0
C1163 C 0.03563 0.88763 0.77635 0.0
N1164 N 0.84716 0.89614 0.75954 0.0
N1165 N 0.12832 0.88198 0.72817 0.0
H1166 H 0.06309 0.88756 0.83778 0.0
H1167 H 0.13399 0.88735 0.80558 0.0
H1168 H 0.14883 0.88265 0.69929 0.0
H1169 H 0.1639 0.87644 0.74949 0.0
H1170 H 0.80897 0.89709 0.7376 0.0
H1171 H 0.82708 0.89579 0.78853 0.0
H1172 H 0.85036 0.90858 0.68449 0.0
H1173 H 0.91796 0.90328 0.65138 0.0
C1174 C 0.44738 0.11792 0.77556 0.0
C1175 C 0.5192 0.11997 0.78386 0.0
C1176 C 0.54644 0.11847 0.71249 0.0
C1177 C 0.47457 0.12035 0.70426 0.0
N1178 N 0.35546 0.12058 0.72599 0.0
N1179 N 0.63829 0.1209 0.76214 0.0
C1180 C 0.42451 0.11928 0.73524 0.0
C1181 C 0.56927 0.11946 0.75284 0.0
N1182 N 0.40156 0.11484 0.80636 0.0
N1183 N 0.59234 0.1159 0.6816 0.0
H1184 H 0.65648 0.12052 0.79156 0.0
H1185 H 0.67747 0.12325 0.74113 0.0
H1186 H 0.57665 0.11528 0.65172 0.0
H1187 H 0.64501 0.11265 0.68538 0.0
H1188 H 0.34895 0.11149 0.80247 0.0
H1189 H 0.41733 0.11392 0.83619 0.0
H1190 H 0.3162 0.1225 0.74708 0.0
H1191 H 0.33728 0.12052 0.69656 0.0
C1192 C 0.55329 0.61639 0.27898 0.0
C1193 C 0.48292 0.62216 0.28622 0.0
C1194 C 0.46075 0.62487 0.21436 0.0
C1195 C 0.53303 0.6228 0.20762 0.0
N1196 N 0.64896 0.61588 0.23159 0.0
N1197 N 0.36798 0.63088 0.26236 0.0
C1198 C 0.57951 0.6179 0.23932 0.0
C1199 C 0.43585 0.6258 0.25427 0.0
N1200 N 0.59486 0.60986 0.31012 0.0
N1201 N 0.41636 0.62579 0.18245 0.0
H1202 H 0.34735 0.63032 0.29123 0.0
H1203 H 0.33258 0.63644 0.24096 0.0
H1204 H 0.43355 0.62501 0.15286 0.0
H1205 H 0.36255 0.62547 0.18495 0.0
H1206 H 0.64497 0.60354 0.30665 0.0
H1207 H 0.57745 0.60918 0.33964 0.0
H1208 H 0.68699 0.61492 0.25362 0.0
H1209 H 0.66924 0.61614 0.20264 0.0
C1210 C 0.95767 0.39409 0.27493 0.0
C1211 C 0.02788 0.38857 0.28313 0.0
C1212 C 0.05396 0.38717 0.21164 0.0
C1213 C 0.98203 0.38895 0.2037 0.0
N1214 N 0.86451 0.3948 0.22594 0.0
N1215 N 0.14428 0.38051 0.26087 0.0
C1216 C 0.93362 0.39306 0.23479 0.0
C1217 C 0.07674 0.38559 0.25189 0.0
N1218 N 0.91423 0.40002 0.3056 0.0
N1219 N 0.10006 0.3872 0.18053 0.0
H1220 H 0.16337 0.38047 0.2901 0.0
H1221 H 0.18083 0.37542 0.23975 0.0
H1222 H 0.08428 0.38867 0.15077 0.0
H1223 H 0.15369 0.38779 0.18406 0.0
H1224 H 0.86409 0.40619 0.3015 0.0
H1225 H 0.93006 0.40035 0.33545 0.0
H1226 H 0.82532 0.39514 0.24734 0.0
H1227 H 0.84575 0.39496 0.19664 0.0
C1228 C 0.432 0.39232 0.75593 0.0
C1229 C 0.48083 0.38929 0.78717 0.0
C1230 C 0.57605 0.38681 0.73916 0.0
C1231 C 0.52686 0.3887 0.70781 0.0
N1232 N 0.41194 0.3983 0.68492 0.0
N1233 N 0.59893 0.3894 0.81051 0.0
C1234 C 0.45599 0.39328 0.71579 0.0
C1235 C 0.55298 0.38847 0.77935 0.0
N1236 N 0.36269 0.39314 0.76467 0.0
N1237 N 0.64422 0.38265 0.73033 0.0
H1238 H 0.5829 0.39084 0.84023 0.0
H1239 H 0.65245 0.3907 0.80702 0.0
H1240 H 0.66326 0.38252 0.70109 0.0
H1241 H 0.68148 0.37841 0.7516 0.0
H1242 H 0.32357 0.39264 0.74323 0.0
H1243 H 0.34387 0.39339 0.79395 0.0
H1244 H 0.36099 0.40375 0.6888 0.0
H1245 H 0.42794 0.39865 0.6551 0.0
C1246 C 0.95997 0.62715 0.78254 0.0
C1247 C 0.03206 0.62461 0.78948 0.0
C1248 C 0.05208 0.6174 0.71829 0.0
C1249 C 0.98211 0.62356 0.71078 0.0
N1250 N 0.86788 0.63355 0.73429 0.0
N1251 N 0.14763 0.61675 0.76578 0.0
C1252 C 0.93529 0.62794 0.74258 0.0
C1253 C 0.07832 0.61913 0.75794 0.0
N1254 N 0.91545 0.62855 0.81433 0.0
N1255 N 0.09329 0.61024 0.6874 0.0
H1256 H 0.16797 0.61722 0.79471 0.0
H1257 H 0.1856 0.61533 0.7438 0.0
H1258 H 0.07589 0.60938 0.65788 0.0
H1259 H 0.14295 0.60359 0.69112 0.0
H1260 H 0.86165 0.62853 0.81168 0.0
H1261 H 0.9324 0.6278 0.84396 0.0
H1262 H 0.83301 0.63968 0.75551 0.0
H1263 H 0.84721 0.63289 0.70543 0.0
loop_
_geom_bond_atom_site_label_1
_geom_bond_atom_site_label_2
_geom_bond_distance
_geom_bond_site_symmetry_2
_ccdc_geom_bond_type
Co0 O3 1.970 . S
Co0 N17 1.989 . S
Co0 O25 1.967 1_455 S
Co0 O32 1.920 . S
Co1 O4 1.966 . S
Co1 N10 2.022 . S
Co1 N18 1.993 . S
Co1 O26 1.941 1_455 S
C2 O3 1.258 . S
C2 O4 1.263 . S
O3 Co0 1.970 . S
O3 C2 1.258 . S
O4 Co1 1.966 . S
O4 C2 1.263 . S
C5 O6 1.235 . S
C5 O32 1.289 . S
O6 C5 1.235 . S
C7 C9 1.400 . S
C7 N10 1.351 . S
C7 C12 1.501 . S
C8 C9 1.387 . S
C8 N11 1.341 . S
C9 C7 1.400 . S
C9 C8 1.387 . S
N10 Co1 2.022 . S
N10 C7 1.351 . S
N10 N11 1.365 . S
N11 C8 1.341 . S
N11 N10 1.365 . S
N11 H31 0.862 . S
C12 C7 1.501 . S
C12 H13 0.961 . S
C12 H14 0.961 . S
C12 H15 0.960 . S
H13 C12 0.961 . S
H14 C12 0.961 . S
H15 C12 0.960 . S
C16 N17 1.342 . S
C16 C20 1.401 . S
C16 C21 1.499 . S
N17 Co0 1.989 . S
N17 C16 1.342 . S
N17 N18 1.388 . S
N18 Co1 1.993 . S
N18 N17 1.388 . S
N18 C19 1.346 . S
C19 N18 1.346 . S
C19 C20 1.396 . S
C19 C29 1.510 . S
C20 C16 1.401 . S
C20 C19 1.396 . S
C21 C16 1.499 . S
C21 H22 0.959 . S
C21 H23 0.960 . S
C21 H24 0.961 . S
H22 C21 0.959 . S
H23 C21 0.960 . S
H24 C21 0.961 . S
O25 Co0 1.967 1_655 S
O25 C33 1.258 . S
O26 Co1 1.941 1_655 S
O26 C33 1.266 . S
H27 C29 0.959 . S
H28 C29 0.961 . S
C29 C19 1.510 . S
C29 H27 0.959 . S
C29 H28 0.961 . S
C29 H30 0.960 . S
H30 C29 0.960 . S
H31 N11 0.862 . S
O32 Co0 1.920 . S
O32 C5 1.289 . S
C33 O25 1.258 . S
C33 O26 1.266 . S
Co34 O37 1.970 . S
Co34 N51 1.989 . S
Co34 O59 1.967 . S
Co34 O66 1.920 . S
Co35 O38 1.966 . S
Co35 N44 2.022 . S
Co35 N52 1.993 . S
Co35 O60 1.941 . S
C36 O37 1.258 . S
C36 O38 1.263 . S
O37 Co34 1.970 . S
O37 C36 1.258 . S
O38 Co35 1.966 . S
O38 C36 1.263 . S
C39 O40 1.235 . S
C39 O66 1.289 . S
O40 C39 1.235 . S
C41 C43 1.400 . S
C41 N44 1.351 . S
C41 C46 1.501 . S
C42 C43 1.387 . S
C42 N45 1.341 . S
C43 C41 1.400 . S
C43 C42 1.387 . S
N44 Co35 2.022 . S
N44 C41 1.351 . S
N44 N45 1.365 . S
N45 C42 1.341 . S
N45 N44 1.365 . S
N45 H65 0.862 . S
C46 C41 1.501 . S
C46 H47 0.961 . S
C46 H48 0.961 . S
C46 H49 0.960 . S
H47 C46 0.961 . S
H48 C46 0.961 . S
H49 C46 0.960 . S
C50 N51 1.342 . S
C50 C54 1.401 . S
C50 C55 1.499 . S
N51 Co34 1.989 . S
N51 C50 1.342 . S
N51 N52 1.388 . S
N52 Co35 1.993 . S
N52 N51 1.388 . S
N52 C53 1.346 . S
C53 N52 1.346 . S
C53 C54 1.396 . S
C53 C63 1.510 . S
C54 C50 1.401 . S
C54 C53 1.396 . S
C55 C50 1.499 . S
C55 H56 0.959 . S
C55 H57 0.960 . S
C55 H58 0.961 . S
H56 C55 0.959 . S
H57 C55 0.960 . S
H58 C55 0.961 . S
O59 Co34 1.967 . S
O59 C67 1.258 . S
O60 Co35 1.941 . S
O60 C67 1.266 . S
H61 C63 0.959 . S
H62 C63 0.961 . S
C63 C53 1.510 . S
C63 H61 0.959 . S
C63 H62 0.961 . S
C63 H64 0.960 . S
H64 C63 0.960 . S
H65 N45 0.862 . S
O66 Co34 1.920 . S
O66 C39 1.289 . S
C67 O59 1.258 . S
C67 O60 1.266 . S
Co68 O71 1.970 . S
Co68 N85 1.989 . S
Co68 O93 1.967 . S
Co68 O100 1.920 . S
Co69 O72 1.966 . S
Co69 N78 2.022 . S
Co69 N86 1.993 . S
Co69 O94 1.941 . S
C70 O71 1.258 . S
C70 O72 1.263 . S
O71 Co68 1.970 . S
O71 C70 1.258 . S
O72 Co69 1.966 . S
O72 C70 1.263 . S
C73 O74 1.235 . S
C73 O100 1.289 . S
O74 C73 1.235 . S
C75 C77 1.400 . S
C75 N78 1.351 . S
C75 C80 1.501 . S
C76 C77 1.387 . S
C76 N79 1.341 . S
C77 C75 1.400 . S
C77 C76 1.387 . S
N78 Co69 2.022 . S
N78 C75 1.351 . S
N78 N79 1.365 . S
N79 C76 1.341 . S
N79 N78 1.365 . S
N79 H99 0.862 . S
C80 C75 1.501 . S
C80 H81 0.961 . S
C80 H82 0.961 . S
C80 H83 0.960 . S
H81 C80 0.961 . S
H82 C80 0.961 . S
H83 C80 0.960 . S
C84 N85 1.342 . S
C84 C88 1.401 . S
C84 C89 1.499 . S
N85 Co68 1.989 . S
N85 C84 1.342 . S
N85 N86 1.388 . S
N86 Co69 1.993 . S
N86 N85 1.388 . S
N86 C87 1.346 . S
C87 N86 1.346 . S
C87 C88 1.396 . S
C87 C97 1.510 . S
C88 C84 1.401 . S
C88 C87 1.396 . S
C89 C84 1.499 . S
C89 H90 0.959 . S
C89 H91 0.960 . S
C89 H92 0.961 . S
H90 C89 0.959 . S
H91 C89 0.960 . S
H92 C89 0.961 . S
O93 Co68 1.967 . S
O93 C101 1.258 . S
O94 Co69 1.941 . S
O94 C101 1.266 . S
H95 C97 0.959 . S
H96 C97 0.961 . S
C97 C87 1.510 . S
C97 H95 0.959 . S
C97 H96 0.961 . S
C97 H98 0.960 . S
H98 C97 0.960 . S
H99 N79 0.862 . S
O100 Co68 1.920 . S
O100 C73 1.289 . S
C101 O93 1.258 . S
C101 O94 1.266 . S
Co102 O105 1.970 . S
Co102 N119 1.989 . S
Co102 O127 1.967 1_655 S
Co102 O134 1.920 . S
Co103 O106 1.966 . S
Co103 N112 2.022 . S
Co103 N120 1.993 . S
Co103 O128 1.941 1_655 S
C104 O105 1.258 . S
C104 O106 1.263 . S
O105 Co102 1.970 . S
O105 C104 1.258 . S
O106 Co103 1.966 . S
O106 C104 1.263 . S
C107 O108 1.235 . S
C107 O134 1.289 . S
O108 C107 1.235 . S
C109 C111 1.400 . S
C109 N112 1.351 . S
C109 C114 1.501 . S
C110 C111 1.387 . S
C110 N113 1.341 . S
C111 C109 1.400 . S
C111 C110 1.387 . S
N112 Co103 2.022 . S
N112 C109 1.351 . S
N112 N113 1.365 . S
N113 C110 1.341 . S
N113 N112 1.365 . S
N113 H133 0.862 . S
C114 C109 1.501 . S
C114 H115 0.961 . S
C114 H116 0.961 . S
C114 H117 0.960 . S
H115 C114 0.961 . S
H116 C114 0.961 . S
H117 C114 0.960 . S
C118 N119 1.342 . S
C118 C122 1.401 . S
C118 C123 1.499 . S
N119 Co102 1.989 . S
N119 C118 1.342 . S
N119 N120 1.388 . S
N120 Co103 1.993 . S
N120 N119 1.388 . S
N120 C121 1.346 . S
C121 N120 1.346 . S
C121 C122 1.396 . S
C121 C131 1.510 . S
C122 C118 1.401 . S
C122 C121 1.396 . S
C123 C118 1.499 . S
C123 H124 0.959 . S
C123 H125 0.960 . S
C123 H126 0.961 . S
H124 C123 0.959 . S
H125 C123 0.960 . S
H126 C123 0.961 . S
O127 Co102 1.967 1_455 S
O127 C135 1.258 . S
O128 Co103 1.941 1_455 S
O128 C135 1.266 . S
H129 C131 0.959 . S
H130 C131 0.961 . S
C131 C121 1.510 . S
C131 H129 0.959 . S
C131 H130 0.961 . S
C131 H132 0.960 . S
H132 C131 0.960 . S
H133 N113 0.862 . S
O134 Co102 1.920 . S
O134 C107 1.289 . S
C135 O127 1.258 . S
C135 O128 1.266 . S
Co136 O139 1.970 . S
Co136 N153 1.989 . S
Co136 O161 1.967 1_655 S
Co136 O168 1.920 . S
Co137 O140 1.966 . S
Co137 N146 2.022 . S
Co137 N154 1.993 . S
Co137 O162 1.941 1_655 S
C138 O139 1.258 . S
C138 O140 1.263 . S
O139 Co136 1.970 . S
O139 C138 1.258 . S
O140 Co137 1.966 . S
O140 C138 1.263 . S
C141 O142 1.235 . S
C141 O168 1.289 . S
O142 C141 1.235 . S
C143 C145 1.400 . S
C143 N146 1.351 . S
C143 C148 1.501 . S
C144 C145 1.387 . S
C144 N147 1.341 . S
C145 C143 1.400 . S
C145 C144 1.387 . S
N146 Co137 2.022 . S
N146 C143 1.351 . S
N146 N147 1.365 . S
N147 C144 1.341 . S
N147 N146 1.365 . S
N147 H167 0.862 . S
C148 C143 1.501 . S
C148 H149 0.961 . S
C148 H150 0.961 . S
C148 H151 0.960 . S
H149 C148 0.961 . S
H150 C148 0.961 . S
H151 C148 0.960 . S
C152 N153 1.342 . S
C152 C156 1.401 . S
C152 C157 1.499 . S
N153 Co136 1.989 . S
N153 C152 1.342 . S
N153 N154 1.388 . S
N154 Co137 1.993 . S
N154 N153 1.388 . S
N154 C155 1.346 . S
C155 N154 1.346 . S
C155 C156 1.396 . S
C155 C165 1.510 . S
C156 C152 1.401 . S
C156 C155 1.396 . S
C157 C152 1.499 . S
C157 H158 0.959 . S
C157 H159 0.960 . S
C157 H160 0.961 . S
H158 C157 0.959 . S
H159 C157 0.960 . S
H160 C157 0.961 . S
O161 Co136 1.967 1_455 S
O161 C169 1.258 . S
O162 Co137 1.941 1_455 S
O162 C169 1.266 . S
H163 C165 0.959 . S
H164 C165 0.961 . S
C165 C155 1.510 . S
C165 H163 0.959 . S
C165 H164 0.961 . S
C165 H166 0.960 . S
H166 C165 0.960 . S
H167 N147 0.862 . S
O168 Co136 1.920 . S
O168 C141 1.289 . S
C169 O161 1.258 . S
C169 O162 1.266 . S
Co170 O173 1.970 . S
Co170 N187 1.989 . S
Co170 O195 1.967 . S
Co170 O202 1.920 . S
Co171 O174 1.966 . S
Co171 N180 2.022 . S
Co171 N188 1.993 . S
Co171 O196 1.941 . S
C172 O173 1.258 . S
C172 O174 1.263 . S
O173 Co170 1.970 . S
O173 C172 1.258 . S
O174 Co171 1.966 . S
O174 C172 1.263 . S
C175 O176 1.235 . S
C175 O202 1.289 . S
O176 C175 1.235 . S
C177 C179 1.400 . S
C177 N180 1.351 . S
C177 C182 1.501 . S
C178 C179 1.387 . S
C178 N181 1.341 . S
C179 C177 1.400 . S
C179 C178 1.387 . S
N180 Co171 2.022 . S
N180 C177 1.351 . S
N180 N181 1.365 . S
N181 C178 1.341 . S
N181 N180 1.365 . S
N181 H201 0.862 . S
C182 C177 1.501 . S
C182 H183 0.961 . S
C182 H184 0.961 . S
C182 H185 0.960 . S
H183 C182 0.961 . S
H184 C182 0.961 . S
H185 C182 0.960 . S
C186 N187 1.342 . S
C186 C190 1.401 . S
C186 C191 1.499 . S
N187 Co170 1.989 . S
N187 C186 1.342 . S
N187 N188 1.388 . S
N188 Co171 1.993 . S
N188 N187 1.388 . S
N188 C189 1.346 . S
C189 N188 1.346 . S
C189 C190 1.396 . S
C189 C199 1.510 . S
C190 C186 1.401 . S
C190 C189 1.396 . S
C191 C186 1.499 . S
C191 H192 0.959 . S
C191 H193 0.960 . S
C191 H194 0.961 . S
H192 C191 0.959 . S
H193 C191 0.960 . S
H194 C191 0.961 . S
O195 Co170 1.967 . S
O195 C203 1.258 . S
O196 Co171 1.941 . S
O196 C203 1.266 . S
H197 C199 0.959 . S
H198 C199 0.961 . S
C199 C189 1.510 . S
C199 H197 0.959 . S
C199 H198 0.961 . S
C199 H200 0.960 . S
H200 C199 0.960 . S
H201 N181 0.862 . S
O202 Co170 1.920 . S
O202 C175 1.289 . S
C203 O195 1.258 . S
C203 O196 1.266 . S
Co204 O207 1.970 . S
Co204 N221 1.989 . S
Co204 O229 1.967 . S
Co204 O236 1.920 . S
Co205 O208 1.966 . S
Co205 N214 2.022 . S
Co205 N222 1.993 . S
Co205 O230 1.941 . S
C206 O207 1.258 . S
C206 O208 1.263 . S
O207 Co204 1.970 . S
O207 C206 1.258 . S
O208 Co205 1.966 . S
O208 C206 1.263 . S
C209 O210 1.235 . S
C209 O236 1.289 . S
O210 C209 1.235 . S
C211 C213 1.400 . S
C211 N214 1.351 . S
C211 C216 1.501 . S
C212 C213 1.387 . S
C212 N215 1.341 . S
C213 C211 1.400 . S
C213 C212 1.387 . S
N214 Co205 2.022 . S
N214 C211 1.351 . S
N214 N215 1.365 . S
N215 C212 1.341 . S
N215 N214 1.365 . S
N215 H235 0.862 . S
C216 C211 1.501 . S
C216 H217 0.961 . S
C216 H218 0.961 . S
C216 H219 0.960 . S
H217 C216 0.961 . S
H218 C216 0.961 . S
H219 C216 0.960 . S
C220 N221 1.342 . S
C220 C224 1.401 . S
C220 C225 1.499 . S
N221 Co204 1.989 . S
N221 C220 1.342 . S
N221 N222 1.388 . S
N222 Co205 1.993 . S
N222 N221 1.388 . S
N222 C223 1.346 . S
C223 N222 1.346 . S
C223 C224 1.396 . S
C223 C233 1.510 . S
C224 C220 1.401 . S
C224 C223 1.396 . S
C225 C220 1.499 . S
C225 H226 0.959 . S
C225 H227 0.960 . S
C225 H228 0.961 . S
H226 C225 0.959 . S
H227 C225 0.960 . S
H228 C225 0.961 . S
O229 Co204 1.967 . S
O229 C237 1.258 . S
O230 Co205 1.941 . S
O230 C237 1.266 . S
H231 C233 0.959 . S
H232 C233 0.961 . S
C233 C223 1.510 . S
C233 H231 0.959 . S
C233 H232 0.961 . S
C233 H234 0.960 . S
H234 C233 0.960 . S
H235 N215 0.862 . S
O236 Co204 1.920 . S
O236 C209 1.289 . S
C237 O229 1.258 . S
C237 O230 1.266 . S
Co238 O241 1.970 . S
Co238 N255 1.989 . S
Co238 O263 1.967 1_455 S
Co238 O270 1.920 . S
Co239 O242 1.966 . S
Co239 N248 2.022 . S
Co239 N256 1.993 . S
Co239 O264 1.941 1_455 S
C240 O241 1.258 . S
C240 O242 1.263 . S
O241 Co238 1.970 . S
O241 C240 1.258 . S
O242 Co239 1.966 . S
O242 C240 1.263 . S
C243 O244 1.235 . S
C243 O270 1.289 . S
O244 C243 1.235 . S
C245 C247 1.400 . S
C245 N248 1.351 . S
C245 C250 1.501 . S
C246 C247 1.387 . S
C246 N249 1.341 . S
C247 C245 1.400 . S
C247 C246 1.387 . S
N248 Co239 2.022 . S
N248 C245 1.351 . S
N248 N249 1.365 . S
N249 C246 1.341 . S
N249 N248 1.365 . S
N249 H269 0.862 . S
C250 C245 1.501 . S
C250 H251 0.961 . S
C250 H252 0.961 . S
C250 H253 0.960 . S
H251 C250 0.961 . S
H252 C250 0.961 . S
H253 C250 0.960 . S
C254 N255 1.342 . S
C254 C258 1.401 . S
C254 C259 1.499 . S
N255 Co238 1.989 . S
N255 C254 1.342 . S
N255 N256 1.388 . S
N256 Co239 1.993 . S
N256 N255 1.388 . S
N256 C257 1.346 . S
C257 N256 1.346 . S
C257 C258 1.396 . S
C257 C267 1.510 . S
C258 C254 1.401 . S
C258 C257 1.396 . S
C259 C254 1.499 . S
C259 H260 0.959 . S
C259 H261 0.960 . S
C259 H262 0.961 . S
H260 C259 0.959 . S
H261 C259 0.960 . S
H262 C259 0.961 . S
O263 Co238 1.967 1_655 S
O263 C271 1.258 . S
O264 Co239 1.941 1_655 S
O264 C271 1.266 . S
H265 C267 0.959 . S
H266 C267 0.961 . S
C267 C257 1.510 . S
C267 H265 0.959 . S
C267 H266 0.961 . S
C267 H268 0.960 . S
H268 C267 0.960 . S
H269 N249 0.862 . S
O270 Co238 1.920 . S
O270 C243 1.289 . S
C271 O263 1.258 . S
C271 O264 1.266 . S
Co272 O275 1.970 . S
Co272 N289 1.989 . S
Co272 O297 1.967 . S
Co272 O304 1.920 . S
Co273 O276 1.966 . S
Co273 N282 2.022 . S
Co273 N290 1.993 . S
Co273 O298 1.941 . S
C274 O275 1.258 . S
C274 O276 1.263 . S
O275 Co272 1.970 . S
O275 C274 1.258 . S
O276 Co273 1.966 . S
O276 C274 1.263 . S
C277 O278 1.235 . S
C277 O304 1.289 . S
O278 C277 1.235 . S
C279 C281 1.400 . S
C279 N282 1.351 . S
C279 C284 1.501 . S
C280 C281 1.387 . S
C280 N283 1.341 . S
C281 C279 1.400 . S
C281 C280 1.387 . S
N282 Co273 2.022 . S
N282 C279 1.351 . S
N282 N283 1.365 . S
N283 C280 1.341 . S
N283 N282 1.365 . S
N283 H303 0.862 . S
C284 C279 1.501 . S
C284 H285 0.961 . S
C284 H286 0.961 . S
C284 H287 0.960 . S
H285 C284 0.961 . S
H286 C284 0.961 . S
H287 C284 0.960 . S
C288 N289 1.342 . S
C288 C292 1.401 . S
C288 C293 1.499 . S
N289 Co272 1.989 . S
N289 C288 1.342 . S
N289 N290 1.388 . S
N290 Co273 1.993 . S
N290 N289 1.388 . S
N290 C291 1.346 . S
C291 N290 1.346 . S
C291 C292 1.396 . S
C291 C301 1.510 . S
C292 C288 1.401 . S
C292 C291 1.396 . S
C293 C288 1.499 . S
C293 H294 0.959 . S
C293 H295 0.960 . S
C293 H296 0.961 . S
H294 C293 0.959 . S
H295 C293 0.960 . S
H296 C293 0.961 . S
O297 Co272 1.967 . S
O297 C305 1.258 . S
O298 Co273 1.941 . S
O298 C305 1.266 . S
H299 C301 0.959 . S
H300 C301 0.961 . S
C301 C291 1.510 . S
C301 H299 0.959 . S
C301 H300 0.961 . S
C301 H302 0.960 . S
H302 C301 0.960 . S
H303 N283 0.862 . S
O304 Co272 1.920 . S
O304 C277 1.289 . S
C305 O297 1.258 . S
C305 O298 1.266 . S
Co306 O309 1.970 . S
Co306 N323 1.989 . S
Co306 O331 1.967 1_655 S
Co306 O338 1.920 . S
Co307 O310 1.966 . S
Co307 N316 2.022 . S
Co307 N324 1.993 . S
Co307 O332 1.941 1_655 S
C308 O309 1.258 . S
C308 O310 1.263 . S
O309 Co306 1.970 . S
O309 C308 1.258 . S
O310 Co307 1.966 . S
O310 C308 1.263 . S
C311 O312 1.235 . S
C311 O338 1.289 . S
O312 C311 1.235 . S
C313 C315 1.400 . S
C313 N316 1.351 . S
C313 C318 1.501 . S
C314 C315 1.387 . S
C314 N317 1.341 . S
C315 C313 1.400 . S
C315 C314 1.387 . S
N316 Co307 2.022 . S
N316 C313 1.351 . S
N316 N317 1.365 . S
N317 C314 1.341 . S
N317 N316 1.365 . S
N317 H337 0.862 . S
C318 C313 1.501 . S
C318 H319 0.961 . S
C318 H320 0.961 . S
C318 H321 0.960 . S
H319 C318 0.961 . S
H320 C318 0.961 . S
H321 C318 0.960 . S
C322 N323 1.342 . S
C322 C326 1.401 . S
C322 C327 1.499 . S
N323 Co306 1.989 . S
N323 C322 1.342 . S
N323 N324 1.388 . S
N324 Co307 1.993 . S
N324 N323 1.388 . S
N324 C325 1.346 . S
C325 N324 1.346 . S
C325 C326 1.396 . S
C325 C335 1.510 . S
C326 C322 1.401 . S
C326 C325 1.396 . S
C327 C322 1.499 . S
C327 H328 0.959 . S
C327 H329 0.960 . S
C327 H330 0.961 . S
H328 C327 0.959 . S
H329 C327 0.960 . S
H330 C327 0.961 . S
O331 Co306 1.967 1_455 S
O331 C339 1.258 . S
O332 Co307 1.941 1_455 S
O332 C339 1.266 . S
H333 C335 0.959 . S
H334 C335 0.961 . S
C335 C325 1.510 . S
C335 H333 0.959 . S
C335 H334 0.961 . S
C335 H336 0.960 . S
H336 C335 0.960 . S
H337 N317 0.862 . S
O338 Co306 1.920 . S
O338 C311 1.289 . S
C339 O331 1.258 . S
C339 O332 1.266 . S
Co340 O343 1.970 . S
Co340 N357 1.989 . S
Co340 O365 1.967 1_455 S
Co340 O372 1.920 . S
Co341 O344 1.966 . S
Co341 N350 2.022 . S
Co341 N358 1.993 . S
Co341 O366 1.941 1_455 S
C342 O343 1.258 . S
C342 O344 1.263 . S
O343 Co340 1.970 . S
O343 C342 1.258 . S
O344 Co341 1.966 . S
O344 C342 1.263 . S
C345 O346 1.235 . S
C345 O372 1.289 . S
O346 C345 1.235 . S
C347 C349 1.400 . S
C347 N350 1.351 . S
C347 C352 1.501 . S
C348 C349 1.387 . S
C348 N351 1.341 . S
C349 C347 1.400 . S
C349 C348 1.387 . S
N350 Co341 2.022 . S
N350 C347 1.351 . S
N350 N351 1.365 . S
N351 C348 1.341 . S
N351 N350 1.365 . S
N351 H371 0.862 . S
C352 C347 1.501 . S
C352 H353 0.961 . S
C352 H354 0.961 . S
C352 H355 0.960 . S
H353 C352 0.961 . S
H354 C352 0.961 . S
H355 C352 0.960 . S
C356 N357 1.342 . S
C356 C360 1.401 . S
C356 C361 1.499 . S
N357 Co340 1.989 . S
N357 C356 1.342 . S
N357 N358 1.388 . S
N358 Co341 1.993 . S
N358 N357 1.388 . S
N358 C359 1.346 . S
C359 N358 1.346 . S
C359 C360 1.396 . S
C359 C369 1.510 . S
C360 C356 1.401 . S
C360 C359 1.396 . S
C361 C356 1.499 . S
C361 H362 0.959 . S
C361 H363 0.960 . S
C361 H364 0.961 . S
H362 C361 0.959 . S
H363 C361 0.960 . S
H364 C361 0.961 . S
O365 Co340 1.967 1_655 S
O365 C373 1.258 . S
O366 Co341 1.941 1_655 S
O366 C373 1.266 . S
H367 C369 0.959 . S
H368 C369 0.961 . S
C369 C359 1.510 . S
C369 H367 0.959 . S
C369 H368 0.961 . S
C369 H370 0.960 . S
H370 C369 0.960 . S
H371 N351 0.862 . S
O372 Co340 1.920 . S
O372 C345 1.289 . S
C373 O365 1.258 . S
C373 O366 1.266 . S
Co374 O377 1.970 . S
Co374 N391 1.989 . S
Co374 O399 1.967 . S
Co374 O406 1.920 . S
Co375 O378 1.966 . S
Co375 N384 2.022 . S
Co375 N392 1.993 . S
Co375 O400 1.941 . S
C376 O377 1.258 . S
C376 O378 1.263 . S
O377 Co374 1.970 . S
O377 C376 1.258 . S
O378 Co375 1.966 . S
O378 C376 1.263 . S
C379 O380 1.235 . S
C379 O406 1.289 . S
O380 C379 1.235 . S
C381 C383 1.400 . S
C381 N384 1.351 . S
C381 C386 1.501 . S
C382 C383 1.387 . S
C382 N385 1.341 . S
C383 C381 1.400 . S
C383 C382 1.387 . S
N384 Co375 2.022 . S
N384 C381 1.351 . S
N384 N385 1.365 . S
N385 C382 1.341 . S
N385 N384 1.365 . S
N385 H405 0.862 . S
C386 C381 1.501 . S
C386 H387 0.961 . S
C386 H388 0.961 . S
C386 H389 0.960 . S
H387 C386 0.961 . S
H388 C386 0.961 . S
H389 C386 0.960 . S
C390 N391 1.342 . S
C390 C394 1.401 . S
C390 C395 1.499 . S
N391 Co374 1.989 . S
N391 C390 1.342 . S
N391 N392 1.388 . S
N392 Co375 1.993 . S
N392 N391 1.388 . S
N392 C393 1.346 . S
C393 N392 1.346 . S
C393 C394 1.396 . S
C393 C403 1.510 . S
C394 C390 1.401 . S
C394 C393 1.396 . S
C395 C390 1.499 . S
C395 H396 0.959 . S
C395 H397 0.960 . S
C395 H398 0.961 . S
H396 C395 0.959 . S
H397 C395 0.960 . S
H398 C395 0.961 . S
O399 Co374 1.967 . S
O399 C407 1.258 . S
O400 Co375 1.941 . S
O400 C407 1.266 . S
H401 C403 0.959 . S
H402 C403 0.961 . S
C403 C393 1.510 . S
C403 H401 0.959 . S
C403 H402 0.961 . S
C403 H404 0.960 . S
H404 C403 0.960 . S
H405 N385 0.862 . S
O406 Co374 1.920 . S
O406 C379 1.289 . S
C407 O399 1.258 . S
C407 O400 1.266 . S
Co408 O411 1.970 . S
Co408 N425 1.989 . S
Co408 O433 1.967 . S
Co408 O440 1.920 . S
Co409 O412 1.966 . S
Co409 N418 2.022 . S
Co409 N426 1.993 . S
Co409 O434 1.941 . S
C410 O411 1.258 . S
C410 O412 1.263 . S
O411 Co408 1.970 . S
O411 C410 1.258 . S
O412 Co409 1.966 . S
O412 C410 1.263 . S
C413 O414 1.235 . S
C413 O440 1.289 . S
O414 C413 1.235 . S
C415 C417 1.400 . S
C415 N418 1.351 . S
C415 C420 1.501 . S
C416 C417 1.387 . S
C416 N419 1.341 . S
C417 C415 1.400 . S
C417 C416 1.387 . S
N418 Co409 2.022 . S
N418 C415 1.351 . S
N418 N419 1.365 . S
N419 C416 1.341 . S
N419 N418 1.365 . S
N419 H439 0.862 . S
C420 C415 1.501 . S
C420 H421 0.961 . S
C420 H422 0.961 . S
C420 H423 0.960 . S
H421 C420 0.961 . S
H422 C420 0.961 . S
H423 C420 0.960 . S
C424 N425 1.342 . S
C424 C428 1.401 . S
C424 C429 1.499 . S
N425 Co408 1.989 . S
N425 C424 1.342 . S
N425 N426 1.388 . S
N426 Co409 1.993 . S
N426 N425 1.388 . S
N426 C427 1.346 . S
C427 N426 1.346 . S
C427 C428 1.396 . S
C427 C437 1.510 . S
C428 C424 1.401 . S
C428 C427 1.396 . S
C429 C424 1.499 . S
C429 H430 0.959 . S
C429 H431 0.960 . S
C429 H432 0.961 . S
H430 C429 0.959 . S
H431 C429 0.960 . S
H432 C429 0.961 . S
O433 Co408 1.967 . S
O433 C441 1.258 . S
O434 Co409 1.941 . S
O434 C441 1.266 . S
H435 C437 0.959 . S
H436 C437 0.961 . S
C437 C427 1.510 . S
C437 H435 0.959 . S
C437 H436 0.961 . S
C437 H438 0.960 . S
H438 C437 0.960 . S
H439 N419 0.862 . S
O440 Co408 1.920 . S
O440 C413 1.289 . S
C441 O433 1.258 . S
C441 O434 1.266 . S
Co442 O445 1.970 . S
Co442 N459 1.989 . S
Co442 O467 1.967 1_455 S
Co442 O474 1.920 . S
Co443 O446 1.966 . S
Co443 N452 2.022 . S
Co443 N460 1.993 . S
Co443 O468 1.941 1_455 S
C444 O445 1.258 . S
C444 O446 1.263 . S
O445 Co442 1.970 . S
O445 C444 1.258 . S
O446 Co443 1.966 . S
O446 C444 1.263 . S
C447 O448 1.235 . S
C447 O474 1.289 . S
O448 C447 1.235 . S
C449 C451 1.400 . S
C449 N452 1.351 . S
C449 C454 1.501 . S
C450 C451 1.387 . S
C450 N453 1.341 . S
C451 C449 1.400 . S
C451 C450 1.387 . S
N452 Co443 2.022 . S
N452 C449 1.351 . S
N452 N453 1.365 . S
N453 C450 1.341 . S
N453 N452 1.365 . S
N453 H473 0.862 . S
C454 C449 1.501 . S
C454 H455 0.961 . S
C454 H456 0.961 . S
C454 H457 0.960 . S
H455 C454 0.961 . S
H456 C454 0.961 . S
H457 C454 0.960 . S
C458 N459 1.342 . S
C458 C462 1.401 . S
C458 C463 1.499 . S
N459 Co442 1.989 . S
N459 C458 1.342 . S
N459 N460 1.388 . S
N460 Co443 1.993 . S
N460 N459 1.388 . S
N460 C461 1.346 . S
C461 N460 1.346 . S
C461 C462 1.396 . S
C461 C471 1.510 . S
C462 C458 1.401 . S
C462 C461 1.396 . S
C463 C458 1.499 . S
C463 H464 0.959 . S
C463 H465 0.960 . S
C463 H466 0.961 . S
H464 C463 0.959 . S
H465 C463 0.960 . S
H466 C463 0.961 . S
O467 Co442 1.967 1_655 S
O467 C475 1.258 . S
O468 Co443 1.941 1_655 S
O468 C475 1.266 . S
H469 C471 0.959 . S
H470 C471 0.961 . S
C471 C461 1.510 . S
C471 H469 0.959 . S
C471 H470 0.961 . S
C471 H472 0.960 . S
H472 C471 0.960 . S
H473 N453 0.862 . S
O474 Co442 1.920 . S
O474 C447 1.289 . S
C475 O467 1.258 . S
C475 O468 1.266 . S
Co476 O479 1.970 . S
Co476 N493 1.989 . S
Co476 O501 1.967 1_655 S
Co476 O508 1.920 . S
Co477 O480 1.966 . S
Co477 N486 2.022 . S
Co477 N494 1.993 . S
Co477 O502 1.941 1_655 S
C478 O479 1.258 . S
C478 O480 1.263 . S
O479 Co476 1.970 . S
O479 C478 1.258 . S
O480 Co477 1.966 . S
O480 C478 1.263 . S
C481 O482 1.235 . S
C481 O508 1.289 . S
O482 C481 1.235 . S
C483 C485 1.400 . S
C483 N486 1.351 . S
C483 C488 1.501 . S
C484 C485 1.387 . S
C484 N487 1.341 . S
C485 C483 1.400 . S
C485 C484 1.387 . S
N486 Co477 2.022 . S
N486 C483 1.351 . S
N486 N487 1.365 . S
N487 C484 1.341 . S
N487 N486 1.365 . S
N487 H507 0.862 . S
C488 C483 1.501 . S
C488 H489 0.961 . S
C488 H490 0.961 . S
C488 H491 0.960 . S
H489 C488 0.961 . S
H490 C488 0.961 . S
H491 C488 0.960 . S
C492 N493 1.342 . S
C492 C496 1.401 . S
C492 C497 1.499 . S
N493 Co476 1.989 . S
N493 C492 1.342 . S
N493 N494 1.388 . S
N494 Co477 1.993 . S
N494 N493 1.388 . S
N494 C495 1.346 . S
C495 N494 1.346 . S
C495 C496 1.396 . S
C495 C505 1.510 . S
C496 C492 1.401 . S
C496 C495 1.396 . S
C497 C492 1.499 . S
C497 H498 0.959 . S
C497 H499 0.960 . S
C497 H500 0.961 . S
H498 C497 0.959 . S
H499 C497 0.960 . S
H500 C497 0.961 . S
O501 Co476 1.967 1_455 S
O501 C509 1.258 . S
O502 Co477 1.941 1_455 S
O502 C509 1.266 . S
H503 C505 0.959 . S
H504 C505 0.961 . S
C505 C495 1.510 . S
C505 H503 0.959 . S
C505 H504 0.961 . S
C505 H506 0.960 . S
H506 C505 0.960 . S
H507 N487 0.862 . S
O508 Co476 1.920 . S
O508 C481 1.289 . S
C509 O501 1.258 . S
C509 O502 1.266 . S
Co510 O513 1.970 . S
Co510 N527 1.989 . S
Co510 O535 1.967 . S
Co510 O542 1.920 . S
Co511 O514 1.966 . S
Co511 N520 2.022 . S
Co511 N528 1.993 . S
Co511 O536 1.941 . S
C512 O513 1.258 . S
C512 O514 1.263 . S
O513 Co510 1.970 . S
O513 C512 1.258 . S
O514 Co511 1.966 . S
O514 C512 1.263 . S
C515 O516 1.235 . S
C515 O542 1.289 . S
O516 C515 1.235 . S
C517 C519 1.400 . S
C517 N520 1.351 . S
C517 C522 1.501 . S
C518 C519 1.387 . S
C518 N521 1.341 . S
C519 C517 1.400 . S
C519 C518 1.387 . S
N520 Co511 2.022 . S
N520 C517 1.351 . S
N520 N521 1.365 . S
N521 C518 1.341 . S
N521 N520 1.365 . S
N521 H541 0.862 . S
C522 C517 1.501 . S
C522 H523 0.961 . S
C522 H524 0.961 . S
C522 H525 0.960 . S
H523 C522 0.961 . S
H524 C522 0.961 . S
H525 C522 0.960 . S
C526 N527 1.342 . S
C526 C530 1.401 . S
C526 C531 1.499 . S
N527 Co510 1.989 . S
N527 C526 1.342 . S
N527 N528 1.388 . S
N528 Co511 1.993 . S
N528 N527 1.388 . S
N528 C529 1.346 . S
C529 N528 1.346 . S
C529 C530 1.396 . S
C529 C539 1.510 . S
C530 C526 1.401 . S
C530 C529 1.396 . S
C531 C526 1.499 . S
C531 H532 0.959 . S
C531 H533 0.960 . S
C531 H534 0.961 . S
H532 C531 0.959 . S
H533 C531 0.960 . S
H534 C531 0.961 . S
O535 Co510 1.967 . S
O535 C543 1.258 . S
O536 Co511 1.941 . S
O536 C543 1.266 . S
H537 C539 0.959 . S
H538 C539 0.961 . S
C539 C529 1.510 . S
C539 H537 0.959 . S
C539 H538 0.961 . S
C539 H540 0.960 . S
H540 C539 0.960 . S
H541 N521 0.862 . S
O542 Co510 1.920 . S
O542 C515 1.289 . S
C543 O535 1.258 . S
C543 O536 1.266 . S
C544 C545 1.363 . S
C544 C550 1.379 1_556 S
C544 N552 1.356 . S
C545 C544 1.363 . S
C545 C551 1.363 . S
C546 C547 1.363 1_556 S
C546 C551 1.379 . S
C546 N553 1.356 1_556 S
C547 C546 1.363 1_554 S
C547 C550 1.363 . S
N548 C550 1.356 . S
N548 H560 0.984 . S
N548 H561 0.985 . S
N549 C551 1.356 . S
N549 H554 0.984 . S
N549 H555 0.985 . S
C550 C544 1.379 1_554 S
C550 C547 1.363 . S
C550 N548 1.356 . S
C551 C545 1.363 . S
C551 C546 1.379 . S
C551 N549 1.356 . S
N552 C544 1.356 . S
N552 H558 0.984 . S
N552 H559 0.984 . S
N553 C546 1.356 1_554 S
N553 H556 0.984 . S
N553 H557 0.985 . S
H554 N549 0.984 . S
H555 N549 0.985 . S
H556 N553 0.984 . S
H557 N553 0.985 . S
H558 N552 0.984 . S
H559 N552 0.984 . S
H560 N548 0.984 . S
H561 N548 0.985 . S
C562 C563 1.363 . S
C562 C568 1.379 1_556 S
C562 N570 1.356 . S
C563 C562 1.363 . S
C563 C569 1.363 . S
C564 C565 1.363 . S
C564 C569 1.379 1_554 S
C564 N571 1.356 . S
C565 C564 1.363 . S
C565 C568 1.363 . S
N566 C568 1.356 . S
N566 H578 0.984 . S
N566 H579 0.985 . S
N567 C569 1.356 . S
N567 H572 0.984 . S
N567 H573 0.985 . S
C568 C562 1.379 1_554 S
C568 C565 1.363 . S
C568 N566 1.356 . S
C569 C563 1.363 . S
C569 C564 1.379 1_556 S
C569 N567 1.356 . S
N570 C562 1.356 . S
N570 H576 0.984 . S
N570 H577 0.984 . S
N571 C564 1.356 . S
N571 H574 0.984 . S
N571 H575 0.985 . S
H572 N567 0.984 . S
H573 N567 0.985 . S
H574 N571 0.984 . S
H575 N571 0.985 . S
H576 N570 0.984 . S
H577 N570 0.984 . S
H578 N566 0.984 . S
H579 N566 0.985 . S
C580 C581 1.363 . S
C580 C586 1.379 . S
C580 N588 1.356 . S
C581 C580 1.363 . S
C581 C587 1.363 . S
C582 C583 1.363 . S
C582 C587 1.379 . S
C582 N589 1.356 . S
C583 C582 1.363 . S
C583 C586 1.363 . S
N584 C586 1.356 . S
N584 H596 0.984 . S
N584 H597 0.985 . S
N585 C587 1.356 . S
N585 H590 0.984 . S
N585 H591 0.985 . S
C586 C580 1.379 . S
C586 C583 1.363 . S
C586 N584 1.356 . S
C587 C581 1.363 . S
C587 C582 1.379 . S
C587 N585 1.356 . S
N588 C580 1.356 . S
N588 H594 0.984 . S
N588 H595 0.984 . S
N589 C582 1.356 . S
N589 H592 0.984 . S
N589 H593 0.985 . S
H590 N585 0.984 . S
H591 N585 0.985 . S
H592 N589 0.984 . S
H593 N589 0.985 . S
H594 N588 0.984 . S
H595 N588 0.984 . S
H596 N584 0.984 . S
H597 N584 0.985 . S
C598 C599 1.363 . S
C598 C604 1.379 . S
C598 N606 1.356 . S
C599 C598 1.363 . S
C599 C605 1.363 . S
C600 C601 1.363 . S
C600 C605 1.379 . S
C600 N607 1.356 . S
C601 C600 1.363 . S
C601 C604 1.363 . S
N602 C604 1.356 . S
N602 H614 0.984 . S
N602 H615 0.985 . S
N603 C605 1.356 . S
N603 H608 0.984 . S
N603 H609 0.985 . S
C604 C598 1.379 . S
C604 C601 1.363 . S
C604 N602 1.356 . S
C605 C599 1.363 . S
C605 C600 1.379 . S
C605 N603 1.356 . S
N606 C598 1.356 . S
N606 H612 0.984 . S
N606 H613 0.984 . S
N607 C600 1.356 . S
N607 H610 0.984 . S
N607 H611 0.985 . S
H608 N603 0.984 . S
H609 N603 0.985 . S
H610 N607 0.984 . S
H611 N607 0.985 . S
H612 N606 0.984 . S
H613 N606 0.984 . S
H614 N602 0.984 . S
H615 N602 0.985 . S
C616 C617 1.363 . S
C616 C622 1.362 1_556 S
C616 N624 1.356 . S
C617 C616 1.363 . S
C617 C623 1.363 1_556 S
C618 C619 1.363 . S
C618 C623 1.379 . S
C618 N625 1.356 . S
C619 C618 1.363 . S
C619 C622 1.386 . S
N620 C622 1.358 . S
N620 H632 0.984 1_554 S
N620 H633 0.985 . S
N621 C623 1.356 . S
N621 H626 0.984 1_554 S
N621 H627 0.985 . S
C622 C616 1.362 1_554 S
C622 C619 1.386 . S
C622 N620 1.358 . S
C623 C617 1.363 1_554 S
C623 C618 1.379 . S
C623 N621 1.356 . S
N624 C616 1.356 . S
N624 H630 0.984 . S
N624 H631 0.984 . S
N625 C618 1.356 . S
N625 H628 0.984 . S
N625 H629 0.985 . S
H626 N621 0.984 1_556 S
H627 N621 0.985 . S
H628 N625 0.984 . S
H629 N625 0.985 . S
H630 N624 0.984 . S
H631 N624 0.984 . S
H632 N620 0.984 1_556 S
H633 N620 0.985 . S
C634 C635 1.363 . S
C634 C640 1.379 1_556 S
C634 N642 1.356 . S
C635 C634 1.363 . S
C635 C641 1.363 1_556 S
C636 C637 1.363 . S
C636 C641 1.379 . S
C636 N643 1.356 . S
C637 C636 1.363 . S
C637 C640 1.363 . S
N638 C640 1.356 . S
N638 H650 0.984 1_655 S
N638 H651 0.985 1_655 S
N639 C641 1.360 . S
N639 H644 0.971 1_554 S
N639 H645 0.994 . S
C640 C634 1.379 1_554 S
C640 C637 1.363 . S
C640 N638 1.356 . S
C641 C635 1.363 1_554 S
C641 C636 1.379 . S
C641 N639 1.360 . S
N642 C634 1.356 . S
N642 H648 0.984 . S
N642 H649 0.984 . S
N643 C636 1.356 . S
N643 H646 0.984 . S
N643 H647 0.985 . S
H644 N639 0.971 1_556 S
H645 N639 0.994 . S
H646 N643 0.984 . S
H647 N643 0.985 . S
H648 N642 0.984 . S
H649 N642 0.984 . S
H650 N638 0.984 1_455 S
H651 N638 0.985 1_455 S
C652 C653 1.363 . S
C652 C658 1.379 . S
C652 N660 1.356 . S
C653 C652 1.363 . S
C653 C659 1.363 . S
C654 C655 1.363 . S
C654 C659 1.379 . S
C654 N661 1.356 . S
C655 C654 1.363 . S
C655 C658 1.363 . S
N656 C658 1.356 . S
N656 H668 0.984 . S
N656 H669 0.985 . S
N657 C659 1.356 . S
N657 H662 0.984 1_455 S
N657 H663 0.985 . S
C658 C652 1.379 . S
C658 C655 1.363 . S
C658 N656 1.356 . S
C659 C653 1.363 . S
C659 C654 1.379 . S
C659 N657 1.356 . S
N660 C652 1.356 . S
N660 H666 0.984 . S
N660 H667 0.984 . S
N661 C654 1.356 . S
N661 H664 0.984 . S
N661 H665 0.985 . S
H662 N657 0.984 1_655 S
H663 N657 0.985 . S
H664 N661 0.984 . S
H665 N661 0.985 . S
H666 N660 0.984 . S
H667 N660 0.984 . S
H668 N656 0.984 . S
H669 N656 0.985 . S
C670 C671 1.363 . S
C670 C676 1.379 . S
C670 N678 1.356 . S
C671 C670 1.363 . S
C671 C677 1.363 . S
C672 C673 1.363 . S
C672 C677 1.379 . S
C672 N679 1.356 . S
C673 C672 1.363 . S
C673 C676 1.363 . S
N674 C676 1.356 . S
N674 H686 0.984 . S
N674 H687 0.985 . S
N675 C677 1.356 . S
N675 H680 0.984 . S
N675 H681 0.985 . S
C676 C670 1.379 . S
C676 C673 1.363 . S
C676 N674 1.356 . S
C677 C671 1.363 . S
C677 C672 1.379 . S
C677 N675 1.356 . S
N678 C670 1.356 . S
N678 H684 0.984 . S
N678 H685 0.984 . S
N679 C672 1.356 . S
N679 H682 0.984 . S
N679 H683 0.985 . S
H680 N675 0.984 . S
H681 N675 0.985 . S
H682 N679 0.984 . S
H683 N679 0.985 . S
H684 N678 0.984 . S
H685 N678 0.984 . S
H686 N674 0.984 . S
H687 N674 0.985 . S
C688 C689 1.363 . S
C688 C694 1.379 . S
C688 N696 1.356 . S
C689 C688 1.363 . S
C689 C695 1.363 1_554 S
C690 C691 1.363 . S
C690 C695 1.379 . S
C690 N697 1.356 . S
C691 C690 1.363 . S
C691 C694 1.363 1_556 S
N692 C694 1.356 . S
N692 H704 0.984 . S
N692 H705 0.985 1_554 S
N693 C695 1.356 . S
N693 H698 0.984 1_556 S
N693 H699 0.985 . S
C694 C688 1.379 . S
C694 C691 1.363 1_554 S
C694 N692 1.356 . S
C695 C689 1.363 1_556 S
C695 C690 1.379 . S
C695 N693 1.356 . S
N696 C688 1.356 . S
N696 H702 0.984 . S
N696 H703 0.984 . S
N697 C690 1.356 . S
N697 H700 0.984 . S
N697 H701 0.985 . S
H698 N693 0.984 1_554 S
H699 N693 0.985 . S
H700 N697 0.984 . S
H701 N697 0.985 . S
H702 N696 0.984 . S
H703 N696 0.984 . S
H704 N692 0.984 . S
H705 N692 0.985 1_556 S
C706 C707 1.363 1_556 S
C706 C712 1.379 . S
C706 N714 1.356 . S
C707 C706 1.363 1_554 S
C707 C713 1.363 . S
C708 C709 1.363 1_554 S
C708 C713 1.379 . S
C708 N715 1.356 . S
C709 C708 1.363 1_556 S
C709 C712 1.363 . S
N710 C712 1.356 . S
N710 H722 0.984 . S
N710 H723 0.985 . S
N711 C713 1.356 . S
N711 H716 0.984 . S
N711 H717 0.985 . S
C712 C706 1.379 . S
C712 C709 1.363 . S
C712 N710 1.356 . S
C713 C707 1.363 . S
C713 C708 1.379 . S
C713 N711 1.356 . S
N714 C706 1.356 . S
N714 H720 0.984 . S
N714 H721 0.984 1_556 S
N715 C708 1.356 . S
N715 H718 0.984 1_554 S
N715 H719 0.985 . S
H716 N711 0.984 . S
H717 N711 0.985 . S
H718 N715 0.984 1_556 S
H719 N715 0.985 . S
H720 N714 0.984 . S
H721 N714 0.984 1_554 S
H722 N710 0.984 . S
H723 N710 0.985 . S
C724 C725 1.363 . S
C724 C730 1.379 . S
C724 N732 1.356 . S
C725 C724 1.363 . S
C725 C731 1.363 . S
C726 C727 1.363 . S
C726 C731 1.379 . S
C726 N733 1.356 . S
C727 C726 1.363 . S
C727 C730 1.363 . S
N728 C730 1.356 . S
N728 H740 0.984 . S
N728 H741 0.985 . S
N729 C731 1.356 . S
N729 H734 0.984 . S
N729 H735 0.985 . S
C730 C724 1.379 . S
C730 C727 1.363 . S
C730 N728 1.356 . S
C731 C725 1.363 . S
C731 C726 1.379 . S
C731 N729 1.356 . S
N732 C724 1.356 . S
N732 H738 0.984 . S
N732 H739 0.984 . S
N733 C726 1.356 . S
N733 H736 0.984 . S
N733 H737 0.985 . S
H734 N729 0.984 . S
H735 N729 0.985 . S
H736 N733 0.984 . S
H737 N733 0.985 . S
H738 N732 0.984 . S
H739 N732 0.984 . S
H740 N728 0.984 . S
H741 N728 0.985 . S
C742 C743 1.363 . S
C742 C748 1.379 . S
C742 N750 1.356 . S
C743 C742 1.363 . S
C743 C749 1.363 . S
C744 C745 1.363 . S
C744 C749 1.379 . S
C744 N751 1.356 . S
C745 C744 1.363 . S
C745 C748 1.363 . S
N746 C748 1.356 . S
N746 H758 0.984 . S
N746 H759 0.985 . S
N747 C749 1.356 . S
N747 H752 0.984 . S
N747 H753 0.985 . S
C748 C742 1.379 . S
C748 C745 1.363 . S
C748 N746 1.356 . S
C749 C743 1.363 . S
C749 C744 1.379 . S
C749 N747 1.356 . S
N750 C742 1.356 . S
N750 H756 0.984 . S
N750 H757 0.984 . S
N751 C744 1.356 . S
N751 H754 0.984 . S
N751 H755 0.985 . S
H752 N747 0.984 . S
H753 N747 0.985 . S
H754 N751 0.984 . S
H755 N751 0.985 . S
H756 N750 0.984 . S
H757 N750 0.984 . S
H758 N746 0.984 . S
H759 N746 0.985 . S
C760 C761 1.363 1_554 S
C760 C766 1.379 . S
C760 N768 1.356 1_554 S
C761 C760 1.363 1_556 S
C761 C767 1.363 . S
C762 C763 1.363 . S
C762 C767 1.379 1_554 S
C762 N769 1.356 . S
C763 C762 1.363 . S
C763 C766 1.363 . S
N764 C766 1.356 . S
N764 H776 0.984 . S
N764 H777 0.985 . S
N765 C767 1.356 . S
N765 H770 0.984 . S
N765 H771 0.985 . S
C766 C760 1.379 . S
C766 C763 1.363 . S
C766 N764 1.356 . S
C767 C761 1.363 . S
C767 C762 1.379 1_556 S
C767 N765 1.356 . S
N768 C760 1.356 1_556 S
N768 H774 0.984 . S
N768 H775 0.984 . S
N769 C762 1.356 . S
N769 H772 0.984 1_455 S
N769 H773 0.985 . S
H770 N765 0.984 . S
H771 N765 0.985 . S
H772 N769 0.984 1_655 S
H773 N769 0.985 . S
H774 N768 0.984 . S
H775 N768 0.984 . S
H776 N764 0.984 . S
H777 N764 0.985 . S
C778 C779 1.363 1_554 S
C778 C784 1.379 . S
C778 N786 1.356 . S
C779 C778 1.363 1_556 S
C779 C785 1.363 . S
C780 C781 1.363 . S
C780 C785 1.379 1_554 S
C780 N787 1.356 . S
C781 C780 1.363 . S
C781 C784 1.363 . S
N782 C784 1.356 . S
N782 H794 0.984 . S
N782 H795 0.985 . S
N783 C785 1.356 . S
N783 H788 0.984 . S
N783 H789 0.985 . S
C784 C778 1.379 . S
C784 C781 1.363 . S
C784 N782 1.356 . S
C785 C779 1.363 . S
C785 C780 1.379 1_556 S
C785 N783 1.356 . S
N786 C778 1.356 . S
N786 H792 0.984 . S
N786 H793 0.984 1_554 S
N787 C780 1.356 . S
N787 H790 0.984 . S
N787 H791 0.985 1_554 S
H788 N783 0.984 . S
H789 N783 0.985 . S
H790 N787 0.984 . S
H791 N787 0.985 1_556 S
H792 N786 0.984 . S
H793 N786 0.984 1_556 S
H794 N782 0.984 . S
H795 N782 0.985 . S
C796 C797 1.363 . S
C796 C802 1.379 . S
C796 N804 1.356 . S
C797 C796 1.363 . S
C797 C803 1.363 . S
C798 C799 1.363 . S
C798 C803 1.379 . S
C798 N805 1.356 . S
C799 C798 1.363 . S
C799 C802 1.363 . S
N800 C802 1.356 . S
N800 H812 0.984 . S
N800 H813 0.985 . S
N801 C803 1.356 . S
N801 H806 0.984 . S
N801 H807 0.985 . S
C802 C796 1.379 . S
C802 C799 1.363 . S
C802 N800 1.356 . S
C803 C797 1.363 . S
C803 C798 1.379 . S
C803 N801 1.356 . S
N804 C796 1.356 . S
N804 H810 0.984 . S
N804 H811 0.984 . S
N805 C798 1.356 . S
N805 H808 0.984 . S
N805 H809 0.985 . S
H806 N801 0.984 . S
H807 N801 0.985 . S
H808 N805 0.984 . S
H809 N805 0.985 . S
H810 N804 0.984 . S
H811 N804 0.984 . S
H812 N800 0.984 . S
H813 N800 0.985 . S
C814 C815 1.363 . S
C814 C820 1.379 . S
C814 N822 1.356 . S
C815 C814 1.363 . S
C815 C821 1.363 . S
C816 C817 1.363 . S
C816 C821 1.379 . S
C816 N823 1.356 . S
C817 C816 1.363 . S
C817 C820 1.363 . S
N818 C820 1.356 . S
N818 H830 0.984 . S
N818 H831 0.985 . S
N819 C821 1.356 . S
N819 H824 0.984 . S
N819 H825 0.985 . S
C820 C814 1.379 . S
C820 C817 1.363 . S
C820 N818 1.356 . S
C821 C815 1.363 . S
C821 C816 1.379 . S
C821 N819 1.356 . S
N822 C814 1.356 . S
N822 H828 0.984 . S
N822 H829 0.984 . S
N823 C816 1.356 . S
N823 H826 0.984 . S
N823 H827 0.985 . S
H824 N819 0.984 . S
H825 N819 0.985 . S
H826 N823 0.984 . S
H827 N823 0.985 . S
H828 N822 0.984 . S
H829 N822 0.984 . S
H830 N818 0.984 . S
H831 N818 0.985 . S
C832 C833 1.363 . S
C832 C838 1.379 1_545 S
C832 N840 1.356 . S
C833 C832 1.363 . S
C833 C839 1.363 . S
C834 C835 1.363 . S
C834 C839 1.379 1_565 S
C834 N841 1.356 . S
C835 C834 1.363 . S
C835 C838 1.363 . S
N836 C838 1.356 . S
N836 H848 0.984 . S
N836 H849 0.985 . S
N837 C839 1.356 . S
N837 H842 0.984 . S
N837 H843 0.985 . S
C838 C832 1.379 1_565 S
C838 C835 1.363 . S
C838 N836 1.356 . S
C839 C833 1.363 . S
C839 C834 1.379 1_545 S
C839 N837 1.356 . S
N840 C832 1.356 . S
N840 H846 0.984 . S
N840 H847 0.984 . S
N841 C834 1.356 . S
N841 H844 0.984 . S
N841 H845 0.985 . S
H842 N837 0.984 . S
H843 N837 0.985 . S
H844 N841 0.984 . S
H845 N841 0.985 . S
H846 N840 0.984 . S
H847 N840 0.984 . S
H848 N836 0.984 . S
H849 N836 0.985 . S
C850 C851 1.363 . S
C850 C856 1.379 1_565 S
C850 N858 1.356 . S
C851 C850 1.363 . S
C851 C857 1.363 . S
C852 C853 1.363 . S
C852 C857 1.379 1_545 S
C852 N859 1.356 . S
C853 C852 1.363 . S
C853 C856 1.363 . S
N854 C856 1.356 . S
N854 H866 0.984 . S
N854 H867 0.985 . S
N855 C857 1.356 . S
N855 H860 0.984 . S
N855 H861 0.985 . S
C856 C850 1.379 1_545 S
C856 C853 1.363 . S
C856 N854 1.356 . S
C857 C851 1.363 . S
C857 C852 1.379 1_565 S
C857 N855 1.356 . S
N858 C850 1.356 . S
N858 H864 0.984 . S
N858 H865 0.984 . S
N859 C852 1.356 . S
N859 H862 0.984 . S
N859 H863 0.985 . S
H860 N855 0.984 . S
H861 N855 0.985 . S
H862 N859 0.984 . S
H863 N859 0.985 . S
H864 N858 0.984 . S
H865 N858 0.984 . S
H866 N854 0.984 . S
H867 N854 0.985 . S
C868 C869 1.363 . S
C868 C874 1.379 1_545 S
C868 N876 1.356 . S
C869 C868 1.363 . S
C869 C875 1.363 . S
C870 C871 1.363 . S
C870 C875 1.379 1_565 S
C870 N877 1.356 . S
C871 C870 1.363 . S
C871 C874 1.363 . S
N872 C874 1.356 . S
N872 H884 0.984 . S
N872 H885 0.985 . S
N873 C875 1.356 . S
N873 H878 0.984 . S
N873 H879 0.985 . S
C874 C868 1.379 1_565 S
C874 C871 1.363 . S
C874 N872 1.356 . S
C875 C869 1.363 . S
C875 C870 1.379 1_545 S
C875 N873 1.356 . S
N876 C868 1.356 . S
N876 H882 0.984 . S
N876 H883 0.984 . S
N877 C870 1.356 . S
N877 H880 0.984 . S
N877 H881 0.985 . S
H878 N873 0.984 . S
H879 N873 0.985 . S
H880 N877 0.984 . S
H881 N877 0.985 . S
H882 N876 0.984 . S
H883 N876 0.984 . S
H884 N872 0.984 . S
H885 N872 0.985 . S
C886 C887 1.363 . S
C886 C892 1.379 1_565 S
C886 N894 1.356 . S
C887 C886 1.363 . S
C887 C893 1.363 . S
C888 C889 1.363 . S
C888 C893 1.379 1_545 S
C888 N895 1.356 . S
C889 C888 1.363 . S
C889 C892 1.363 . S
N890 C892 1.356 . S
N890 H902 0.984 . S
N890 H903 0.985 . S
N891 C893 1.356 . S
N891 H896 0.984 . S
N891 H897 0.985 . S
C892 C886 1.379 1_545 S
C892 C889 1.363 . S
C892 N890 1.356 . S
C893 C887 1.363 . S
C893 C888 1.379 1_565 S
C893 N891 1.356 . S
N894 C886 1.356 . S
N894 H900 0.984 . S
N894 H901 0.984 . S
N895 C888 1.356 . S
N895 H898 0.984 . S
N895 H899 0.985 . S
H896 N891 0.984 . S
H897 N891 0.985 . S
H898 N895 0.984 . S
H899 N895 0.985 . S
H900 N894 0.984 . S
H901 N894 0.984 . S
H902 N890 0.984 . S
H903 N890 0.985 . S
C904 C905 1.363 . S
C904 C910 1.379 . S
C904 N912 1.356 . S
C905 C904 1.363 . S
C905 C911 1.363 . S
C906 C907 1.363 . S
C906 C911 1.379 . S
C906 N913 1.356 . S
C907 C906 1.363 . S
C907 C910 1.363 . S
N908 C910 1.356 . S
N908 H920 0.984 . S
N908 H921 0.985 . S
N909 C911 1.356 . S
N909 H914 0.984 . S
N909 H915 0.985 . S
C910 C904 1.379 . S
C910 C907 1.363 . S
C910 N908 1.356 . S
C911 C905 1.363 . S
C911 C906 1.379 . S
C911 N909 1.356 . S
N912 C904 1.356 . S
N912 H918 0.984 . S
N912 H919 0.984 . S
N913 C906 1.356 . S
N913 H916 0.984 . S
N913 H917 0.985 . S
H914 N909 0.984 . S
H915 N909 0.985 . S
H916 N913 0.984 . S
H917 N913 0.985 . S
H918 N912 0.984 . S
H919 N912 0.984 . S
H920 N908 0.984 . S
H921 N908 0.985 . S
C922 C923 1.363 . S
C922 C928 1.379 . S
C922 N930 1.356 . S
C923 C922 1.363 . S
C923 C929 1.363 . S
C924 C925 1.363 . S
C924 C929 1.379 . S
C924 N931 1.356 . S
C925 C924 1.363 . S
C925 C928 1.363 . S
N926 C928 1.356 . S
N926 H938 0.984 . S
N926 H939 0.985 . S
N927 C929 1.356 . S
N927 H932 0.984 . S
N927 H933 0.985 . S
C928 C922 1.379 . S
C928 C925 1.363 . S
C928 N926 1.356 . S
C929 C923 1.363 . S
C929 C924 1.379 . S
C929 N927 1.356 . S
N930 C922 1.356 . S
N930 H936 0.984 . S
N930 H937 0.984 . S
N931 C924 1.356 . S
N931 H934 0.984 . S
N931 H935 0.985 . S
H932 N927 0.984 . S
H933 N927 0.985 . S
H934 N931 0.984 . S
H935 N931 0.985 . S
H936 N930 0.984 . S
H937 N930 0.984 . S
H938 N926 0.984 . S
H939 N926 0.985 . S
C940 C941 1.363 . S
C940 C946 1.379 . S
C940 N948 1.356 . S
C941 C940 1.363 . S
C941 C947 1.363 . S
C942 C943 1.363 . S
C942 C947 1.379 . S
C942 N949 1.356 . S
C943 C942 1.363 . S
C943 C946 1.363 . S
N944 C946 1.356 . S
N944 H956 0.984 . S
N944 H957 0.985 . S
N945 C947 1.356 . S
N945 H950 0.984 . S
N945 H951 0.985 . S
C946 C940 1.379 . S
C946 C943 1.363 . S
C946 N944 1.356 . S
C947 C941 1.363 . S
C947 C942 1.379 . S
C947 N945 1.356 . S
N948 C940 1.356 . S
N948 H954 0.984 . S
N948 H955 0.984 . S
N949 C942 1.356 . S
N949 H952 0.984 . S
N949 H953 0.985 . S
H950 N945 0.984 . S
H951 N945 0.985 . S
H952 N949 0.984 . S
H953 N949 0.985 . S
H954 N948 0.984 . S
H955 N948 0.984 . S
H956 N944 0.984 . S
H957 N944 0.985 . S
C958 C959 1.363 . S
C958 C964 1.379 . S
C958 N966 1.356 . S
C959 C958 1.363 . S
C959 C965 1.363 . S
C960 C961 1.363 . S
C960 C965 1.379 . S
C960 N967 1.356 . S
C961 C960 1.363 . S
C961 C964 1.363 . S
N962 C964 1.356 . S
N962 H974 0.984 . S
N962 H975 0.985 . S
N963 C965 1.356 . S
N963 H968 0.984 . S
N963 H969 0.985 . S
C964 C958 1.379 . S
C964 C961 1.363 . S
C964 N962 1.356 . S
C965 C959 1.363 . S
C965 C960 1.379 . S
C965 N963 1.356 . S
N966 C958 1.356 . S
N966 H972 0.984 . S
N966 H973 0.984 . S
N967 C960 1.356 . S
N967 H970 0.984 . S
N967 H971 0.985 . S
H968 N963 0.984 . S
H969 N963 0.985 . S
H970 N967 0.984 . S
H971 N967 0.985 . S
H972 N966 0.984 . S
H973 N966 0.984 . S
H974 N962 0.984 . S
H975 N962 0.985 . S
C976 C977 1.363 1_455 S
C976 C982 1.379 . S
C976 N984 1.356 1_455 S
C977 C976 1.363 1_655 S
C977 C983 1.363 . S
C978 C979 1.363 1_655 S
C978 C983 1.379 . S
C978 N985 1.356 1_655 S
C979 C978 1.363 1_455 S
C979 C982 1.363 . S
N980 C982 1.356 . S
N980 H992 0.984 . S
N980 H993 0.985 . S
N981 C983 1.356 . S
N981 H986 0.984 . S
N981 H987 0.985 . S
C982 C976 1.379 . S
C982 C979 1.363 . S
C982 N980 1.356 . S
C983 C977 1.363 . S
C983 C978 1.379 . S
C983 N981 1.356 . S
N984 C976 1.356 1_655 S
N984 H990 0.984 1_655 S
N984 H991 0.984 . S
N985 C978 1.356 1_455 S
N985 H988 0.984 . S
N985 H989 0.985 1_455 S
H986 N981 0.984 . S
H987 N981 0.985 . S
H988 N985 0.984 . S
H989 N985 0.985 1_655 S
H990 N984 0.984 1_455 S
H991 N984 0.984 . S
H992 N980 0.984 . S
H993 N980 0.985 . S
C994 C995 1.363 . S
C994 C1000 1.379 . S
C994 N1002 1.356 . S
C995 C994 1.363 . S
C995 C1001 1.363 . S
C996 C997 1.363 . S
C996 C1001 1.379 . S
C996 N1003 1.356 . S
C997 C996 1.363 . S
C997 C1000 1.363 . S
N998 C1000 1.356 . S
N998 H1010 0.984 . S
N998 H1011 0.985 . S
N999 C1001 1.356 . S
N999 H1004 0.984 . S
N999 H1005 0.985 . S
C1000 C994 1.379 . S
C1000 C997 1.363 . S
C1000 N998 1.356 . S
C1001 C995 1.363 . S
C1001 C996 1.379 . S
C1001 N999 1.356 . S
N1002 C994 1.356 . S
N1002 H1008 0.984 . S
N1002 H1009 0.984 . S
N1003 C996 1.356 . S
N1003 H1006 0.984 . S
N1003 H1007 0.985 . S
H1004 N999 0.984 . S
H1005 N999 0.985 . S
H1006 N1003 0.984 . S
H1007 N1003 0.985 . S
H1008 N1002 0.984 . S
H1009 N1002 0.984 . S
H1010 N998 0.984 . S
H1011 N998 0.985 . S
C1012 C1013 1.363 . S
C1012 C1018 1.379 . S
C1012 N1020 1.356 . S
C1013 C1012 1.363 . S
C1013 C1019 1.363 . S
C1014 C1015 1.363 . S
C1014 C1019 1.379 . S
C1014 N1021 1.356 . S
C1015 C1014 1.363 . S
C1015 C1018 1.363 . S
N1016 C1018 1.356 . S
N1016 H1028 0.984 . S
N1016 H1029 0.985 . S
N1017 C1019 1.356 . S
N1017 H1022 0.984 . S
N1017 H1023 0.985 . S
C1018 C1012 1.379 . S
C1018 C1015 1.363 . S
C1018 N1016 1.356 . S
C1019 C1013 1.363 . S
C1019 C1014 1.379 . S
C1019 N1017 1.356 . S
N1020 C1012 1.356 . S
N1020 H1026 0.984 . S
N1020 H1027 0.984 . S
N1021 C1014 1.356 . S
N1021 H1024 0.984 . S
N1021 H1025 0.985 . S
H1022 N1017 0.984 . S
H1023 N1017 0.985 . S
H1024 N1021 0.984 . S
H1025 N1021 0.985 . S
H1026 N1020 0.984 . S
H1027 N1020 0.984 . S
H1028 N1016 0.984 . S
H1029 N1016 0.985 . S
C1030 C1031 1.363 . S
C1030 C1036 1.379 . S
C1030 N1038 1.356 . S
C1031 C1030 1.363 . S
C1031 C1037 1.363 1_455 S
C1032 C1033 1.363 . S
C1032 C1037 1.379 . S
C1032 N1039 1.356 . S
C1033 C1032 1.363 . S
C1033 C1036 1.363 1_655 S
N1034 C1036 1.356 1_655 S
N1034 H1046 0.984 1_655 S
N1034 H1047 0.985 . S
N1035 C1037 1.356 1_455 S
N1035 H1040 0.984 . S
N1035 H1041 0.985 1_455 S
C1036 C1030 1.379 . S
C1036 C1033 1.363 1_455 S
C1036 N1034 1.356 1_455 S
C1037 C1031 1.363 1_655 S
C1037 C1032 1.379 . S
C1037 N1035 1.356 1_655 S
N1038 C1030 1.356 . S
N1038 H1044 0.984 . S
N1038 H1045 0.984 . S
N1039 C1032 1.356 . S
N1039 H1042 0.984 . S
N1039 H1043 0.985 . S
H1040 N1035 0.984 . S
H1041 N1035 0.985 1_655 S
H1042 N1039 0.984 . S
H1043 N1039 0.985 . S
H1044 N1038 0.984 . S
H1045 N1038 0.984 . S
H1046 N1034 0.984 1_455 S
H1047 N1034 0.985 . S
C1048 C1049 1.363 1_455 S
C1048 C1054 1.379 . S
C1048 N1056 1.356 1_455 S
C1049 C1048 1.363 1_655 S
C1049 C1055 1.363 . S
C1050 C1051 1.363 1_655 S
C1050 C1055 1.379 . S
C1050 N1057 1.356 1_655 S
C1051 C1050 1.363 1_455 S
C1051 C1054 1.363 . S
N1052 C1054 1.356 . S
N1052 H1064 0.984 . S
N1052 H1065 0.985 . S
N1053 C1055 1.356 . S
N1053 H1058 0.984 . S
N1053 H1059 0.985 . S
C1054 C1048 1.379 . S
C1054 C1051 1.363 . S
C1054 N1052 1.356 . S
C1055 C1049 1.363 . S
C1055 C1050 1.379 . S
C1055 N1053 1.356 . S
N1056 C1048 1.356 1_655 S
N1056 H1062 0.984 1_655 S
N1056 H1063 0.984 . S
N1057 C1050 1.356 1_455 S
N1057 H1060 0.984 . S
N1057 H1061 0.985 1_455 S
H1058 N1053 0.984 . S
H1059 N1053 0.985 . S
H1060 N1057 0.984 . S
H1061 N1057 0.985 1_655 S
H1062 N1056 0.984 1_455 S
H1063 N1056 0.984 . S
H1064 N1052 0.984 . S
H1065 N1052 0.985 . S
C1066 C1067 1.363 . S
C1066 C1072 1.379 . S
C1066 N1074 1.356 . S
C1067 C1066 1.363 . S
C1067 C1073 1.363 . S
C1068 C1069 1.363 . S
C1068 C1073 1.379 . S
C1068 N1075 1.356 . S
C1069 C1068 1.363 . S
C1069 C1072 1.363 . S
N1070 C1072 1.356 . S
N1070 H1082 0.984 . S
N1070 H1083 0.985 . S
N1071 C1073 1.356 . S
N1071 H1076 0.984 . S
N1071 H1077 0.985 . S
C1072 C1066 1.379 . S
C1072 C1069 1.363 . S
C1072 N1070 1.356 . S
C1073 C1067 1.363 . S
C1073 C1068 1.379 . S
C1073 N1071 1.356 . S
N1074 C1066 1.356 . S
N1074 H1080 0.984 . S
N1074 H1081 0.984 . S
N1075 C1068 1.356 . S
N1075 H1078 0.984 . S
N1075 H1079 0.985 . S
H1076 N1071 0.984 . S
H1077 N1071 0.985 . S
H1078 N1075 0.984 . S
H1079 N1075 0.985 . S
H1080 N1074 0.984 . S
H1081 N1074 0.984 . S
H1082 N1070 0.984 . S
H1083 N1070 0.985 . S
C1084 C1085 1.363 . S
C1084 C1090 1.379 . S
C1084 N1092 1.356 . S
C1085 C1084 1.363 . S
C1085 C1091 1.363 . S
C1086 C1087 1.363 . S
C1086 C1091 1.379 . S
C1086 N1093 1.356 . S
C1087 C1086 1.363 . S
C1087 C1090 1.363 . S
N1088 C1090 1.356 . S
N1088 H1100 0.984 . S
N1088 H1101 0.985 . S
N1089 C1091 1.356 . S
N1089 H1094 0.984 . S
N1089 H1095 0.985 . S
C1090 C1084 1.379 . S
C1090 C1087 1.363 . S
C1090 N1088 1.356 . S
C1091 C1085 1.363 . S
C1091 C1086 1.379 . S
C1091 N1089 1.356 . S
N1092 C1084 1.356 . S
N1092 H1098 0.984 . S
N1092 H1099 0.984 . S
N1093 C1086 1.356 . S
N1093 H1096 0.984 . S
N1093 H1097 0.985 . S
H1094 N1089 0.984 . S
H1095 N1089 0.985 . S
H1096 N1093 0.984 . S
H1097 N1093 0.985 . S
H1098 N1092 0.984 . S
H1099 N1092 0.984 . S
H1100 N1088 0.984 . S
H1101 N1088 0.985 . S
C1102 C1103 1.363 1_455 S
C1102 C1108 1.379 . S
C1102 N1110 1.356 1_455 S
C1103 C1102 1.363 1_655 S
C1103 C1109 1.363 . S
C1104 C1105 1.363 1_655 S
C1104 C1109 1.379 . S
C1104 N1111 1.356 1_655 S
C1105 C1104 1.363 1_455 S
C1105 C1108 1.363 . S
N1106 C1108 1.356 . S
N1106 H1118 0.984 . S
N1106 H1119 0.985 . S
N1107 C1109 1.356 . S
N1107 H1112 0.984 . S
N1107 H1113 0.985 . S
C1108 C1102 1.379 . S
C1108 C1105 1.363 . S
C1108 N1106 1.356 . S
C1109 C1103 1.363 . S
C1109 C1104 1.379 . S
C1109 N1107 1.356 . S
N1110 C1102 1.356 1_655 S
N1110 H1116 0.984 1_655 S
N1110 H1117 0.984 . S
N1111 C1104 1.356 1_455 S
N1111 H1114 0.984 . S
N1111 H1115 0.985 1_455 S
H1112 N1107 0.984 . S
H1113 N1107 0.985 . S
H1114 N1111 0.984 . S
H1115 N1111 0.985 1_655 S
H1116 N1110 0.984 1_455 S
H1117 N1110 0.984 . S
H1118 N1106 0.984 . S
H1119 N1106 0.985 . S
C1120 C1121 1.363 . S
C1120 C1126 1.379 . S
C1120 N1128 1.356 . S
C1121 C1120 1.363 . S
C1121 C1127 1.363 1_455 S
C1122 C1123 1.363 . S
C1122 C1127 1.379 . S
C1122 N1129 1.356 . S
C1123 C1122 1.363 . S
C1123 C1126 1.363 1_655 S
N1124 C1126 1.356 . S
N1124 H1136 0.984 . S
N1124 H1137 0.985 . S
N1125 C1127 1.356 . S
N1125 H1130 0.984 . S
N1125 H1131 0.985 . S
C1126 C1120 1.379 . S
C1126 C1123 1.363 1_455 S
C1126 N1124 1.356 . S
C1127 C1121 1.363 1_655 S
C1127 C1122 1.379 . S
C1127 N1125 1.356 . S
N1128 C1120 1.356 . S
N1128 H1134 0.984 . S
N1128 H1135 0.984 . S
N1129 C1122 1.356 . S
N1129 H1132 0.984 . S
N1129 H1133 0.985 . S
H1130 N1125 0.984 . S
H1131 N1125 0.985 . S
H1132 N1129 0.984 . S
H1133 N1129 0.985 . S
H1134 N1128 0.984 . S
H1135 N1128 0.984 . S
H1136 N1124 0.984 . S
H1137 N1124 0.985 . S
C1138 C1139 1.363 . S
C1138 C1144 1.379 . S
C1138 N1146 1.356 . S
C1139 C1138 1.363 . S
C1139 C1145 1.363 . S
C1140 C1141 1.363 . S
C1140 C1145 1.379 . S
C1140 N1147 1.356 . S
C1141 C1140 1.363 . S
C1141 C1144 1.363 . S
N1142 C1144 1.356 . S
N1142 H1154 0.984 . S
N1142 H1155 0.985 . S
N1143 C1145 1.356 . S
N1143 H1148 0.984 . S
N1143 H1149 0.985 . S
C1144 C1138 1.379 . S
C1144 C1141 1.363 . S
C1144 N1142 1.356 . S
C1145 C1139 1.363 . S
C1145 C1140 1.379 . S
C1145 N1143 1.356 . S
N1146 C1138 1.356 . S
N1146 H1152 0.984 . S
N1146 H1153 0.984 . S
N1147 C1140 1.356 . S
N1147 H1150 0.984 . S
N1147 H1151 0.985 . S
H1148 N1143 0.984 . S
H1149 N1143 0.985 . S
H1150 N1147 0.984 . S
H1151 N1147 0.985 . S
H1152 N1146 0.984 . S
H1153 N1146 0.984 . S
H1154 N1142 0.984 . S
H1155 N1142 0.985 . S
C1156 C1157 1.363 . S
C1156 C1162 1.379 . S
C1156 N1164 1.356 . S
C1157 C1156 1.363 . S
C1157 C1163 1.363 1_655 S
C1158 C1159 1.363 . S
C1158 C1163 1.379 . S
C1158 N1165 1.356 . S
C1159 C1158 1.363 . S
C1159 C1162 1.363 1_455 S
N1160 C1162 1.356 . S
N1160 H1172 0.984 . S
N1160 H1173 0.985 . S
N1161 C1163 1.356 . S
N1161 H1166 0.984 . S
N1161 H1167 0.985 . S
C1162 C1156 1.379 . S
C1162 C1159 1.363 1_655 S
C1162 N1160 1.356 . S
C1163 C1157 1.363 1_455 S
C1163 C1158 1.379 . S
C1163 N1161 1.356 . S
N1164 C1156 1.356 . S
N1164 H1170 0.984 . S
N1164 H1171 0.984 . S
N1165 C1158 1.356 . S
N1165 H1168 0.984 . S
N1165 H1169 0.985 . S
H1166 N1161 0.984 . S
H1167 N1161 0.985 . S
H1168 N1165 0.984 . S
H1169 N1165 0.985 . S
H1170 N1164 0.984 . S
H1171 N1164 0.984 . S
H1172 N1160 0.984 . S
H1173 N1160 0.985 . S
C1174 C1175 1.363 . S
C1174 C1180 1.379 . S
C1174 N1182 1.356 . S
C1175 C1174 1.363 . S
C1175 C1181 1.363 . S
C1176 C1177 1.363 . S
C1176 C1181 1.379 . S
C1176 N1183 1.356 . S
C1177 C1176 1.363 . S
C1177 C1180 1.363 . S
N1178 C1180 1.356 . S
N1178 H1190 0.984 . S
N1178 H1191 0.985 . S
N1179 C1181 1.356 . S
N1179 H1184 0.984 . S
N1179 H1185 0.985 . S
C1180 C1174 1.379 . S
C1180 C1177 1.363 . S
C1180 N1178 1.356 . S
C1181 C1175 1.363 . S
C1181 C1176 1.379 . S
C1181 N1179 1.356 . S
N1182 C1174 1.356 . S
N1182 H1188 0.984 . S
N1182 H1189 0.984 . S
N1183 C1176 1.356 . S
N1183 H1186 0.984 . S
N1183 H1187 0.985 . S
H1184 N1179 0.984 . S
H1185 N1179 0.985 . S
H1186 N1183 0.984 . S
H1187 N1183 0.985 . S
H1188 N1182 0.984 . S
H1189 N1182 0.984 . S
H1190 N1178 0.984 . S
H1191 N1178 0.985 . S
C1192 C1193 1.363 . S
C1192 C1198 1.379 . S
C1192 N1200 1.356 . S
C1193 C1192 1.363 . S
C1193 C1199 1.363 . S
C1194 C1195 1.363 . S
C1194 C1199 1.379 . S
C1194 N1201 1.356 . S
C1195 C1194 1.363 . S
C1195 C1198 1.363 . S
N1196 C1198 1.356 . S
N1196 H1208 0.984 . S
N1196 H1209 0.985 . S
N1197 C1199 1.356 . S
N1197 H1202 0.984 . S
N1197 H1203 0.985 . S
C1198 C1192 1.379 . S
C1198 C1195 1.363 . S
C1198 N1196 1.356 . S
C1199 C1193 1.363 . S
C1199 C1194 1.379 . S
C1199 N1197 1.356 . S
N1200 C1192 1.356 . S
N1200 H1206 0.984 . S
N1200 H1207 0.984 . S
N1201 C1194 1.356 . S
N1201 H1204 0.984 . S
N1201 H1205 0.985 . S
H1202 N1197 0.984 . S
H1203 N1197 0.985 . S
H1204 N1201 0.984 . S
H1205 N1201 0.985 . S
H1206 N1200 0.984 . S
H1207 N1200 0.984 . S
H1208 N1196 0.984 . S
H1209 N1196 0.985 . S
C1210 C1211 1.363 1_655 S
C1210 C1216 1.379 . S
C1210 N1218 1.356 . S
C1211 C1210 1.363 1_455 S
C1211 C1217 1.363 . S
C1212 C1213 1.363 1_455 S
C1212 C1217 1.379 . S
C1212 N1219 1.356 . S
C1213 C1212 1.363 1_655 S
C1213 C1216 1.363 . S
N1214 C1216 1.356 . S
N1214 H1226 0.984 . S
N1214 H1227 0.985 . S
N1215 C1217 1.356 . S
N1215 H1220 0.984 . S
N1215 H1221 0.985 . S
C1216 C1210 1.379 . S
C1216 C1213 1.363 . S
C1216 N1214 1.356 . S
C1217 C1211 1.363 . S
C1217 C1212 1.379 . S
C1217 N1215 1.356 . S
N1218 C1210 1.356 . S
N1218 H1224 0.984 . S
N1218 H1225 0.984 . S
N1219 C1212 1.356 . S
N1219 H1222 0.984 . S
N1219 H1223 0.985 . S
H1220 N1215 0.984 . S
H1221 N1215 0.985 . S
H1222 N1219 0.984 . S
H1223 N1219 0.985 . S
H1224 N1218 0.984 . S
H1225 N1218 0.984 . S
H1226 N1214 0.984 . S
H1227 N1214 0.985 . S
C1228 C1229 1.363 . S
C1228 C1234 1.379 . S
C1228 N1236 1.356 . S
C1229 C1228 1.363 . S
C1229 C1235 1.363 . S
C1230 C1231 1.363 . S
C1230 C1235 1.379 . S
C1230 N1237 1.356 . S
C1231 C1230 1.363 . S
C1231 C1234 1.363 . S
N1232 C1234 1.356 . S
N1232 H1244 0.984 . S
N1232 H1245 0.985 . S
N1233 C1235 1.356 . S
N1233 H1238 0.984 . S
N1233 H1239 0.985 . S
C1234 C1228 1.379 . S
C1234 C1231 1.363 . S
C1234 N1232 1.356 . S
C1235 C1229 1.363 . S
C1235 C1230 1.379 . S
C1235 N1233 1.356 . S
N1236 C1228 1.356 . S
N1236 H1242 0.984 . S
N1236 H1243 0.984 . S
N1237 C1230 1.356 . S
N1237 H1240 0.984 . S
N1237 H1241 0.985 . S
H1238 N1233 0.984 . S
H1239 N1233 0.985 . S
H1240 N1237 0.984 . S
H1241 N1237 0.985 . S
H1242 N1236 0.984 . S
H1243 N1236 0.984 . S
H1244 N1232 0.984 . S
H1245 N1232 0.985 . S
C1246 C1247 1.363 1_655 S
C1246 C1252 1.379 . S
C1246 N1254 1.356 . S
C1247 C1246 1.363 1_455 S
C1247 C1253 1.363 . S
C1248 C1249 1.363 1_455 S
C1248 C1253 1.379 . S
C1248 N1255 1.356 . S
C1249 C1248 1.363 1_655 S
C1249 C1252 1.363 . S
N1250 C1252 1.356 . S
N1250 H1262 0.984 . S
N1250 H1263 0.985 . S
N1251 C1253 1.356 . S
N1251 H1256 0.984 . S
N1251 H1257 0.985 . S
C1252 C1246 1.379 . S
C1252 C1249 1.363 . S
C1252 N1250 1.356 . S
C1253 C1247 1.363 . S
C1253 C1248 1.379 . S
C1253 N1251 1.356 . S
N1254 C1246 1.356 . S
N1254 H1260 0.984 . S
N1254 H1261 0.984 . S
N1255 C1248 1.356 . S
N1255 H1258 0.984 . S
N1255 H1259 0.985 . S
H1256 N1251 0.984 . S
H1257 N1251 0.985 . S
H1258 N1255 0.984 . S
H1259 N1255 0.985 . S
H1260 N1254 0.984 . S
H1261 N1254 0.984 . S
H1262 N1250 0.984 . S
H1263 N1250 0.985 . S
C545 C203 1.270 . S
C547 C20 1.267 . S
C563 C169 1.270 . S
C565 C54 1.267 . S
C581 C88 1.267 . S
C583 C271 1.270 . S
C599 C122 1.267 . S
C601 C237 1.270 . S
C617 C156 1.267 . S
C619 C67 1.270 . S
C635 C190 1.267 . S
C637 C33 1.270 . S
C653 C135 1.270 . S
C655 C224 1.267 . S
C671 C258 1.267 . S
C673 C101 1.270 . S
C689 C292 1.267 . S
C691 C475 1.270 . S
C707 C326 1.267 . S
C709 C441 1.270 . S
C725 C360 1.267 . S
C727 C543 1.270 . S
C743 C394 1.267 . S
C745 C509 1.270 . S
C761 C428 1.267 . S
C763 C339 1.270 . S
C779 C462 1.267 . S
C781 C305 1.270 . S
C797 C407 1.270 . S
C799 C496 1.267 . S
C815 C373 1.270 . S
C817 C530 1.267 . S
C833 C9 1.467 . S
C835 C43 1.467 . S
C851 C77 1.467 . S
C853 C111 1.467 . S
C869 C179 1.467 . S
C871 C145 1.467 . S
C887 C247 1.467 . S
C889 C213 1.467 . S
C905 C315 1.467 . S
C907 C281 1.467 . S
C923 C383 1.467 . S
C925 C349 1.467 . S
C941 C417 1.467 . S
C943 C451 1.467 . S
C959 C485 1.467 . S
C961 C519 1.467 . S
C977 C311 1.653 . S
C979 C5 1.653 . S
C995 C39 1.653 . S
C997 C277 1.653 . S
C1013 C73 1.653 . S
C1015 C379 1.653 . S
C1031 C345 1.653 . S
C1033 C107 1.653 . S
C1049 C141 1.653 . S
C1051 C447 1.653 . S
C1067 C175 1.653 . S
C1069 C413 1.653 . S
C1085 C209 1.653 . S
C1087 C515 1.653 . S
C1103 C481 1.653 . S
C1105 C243 1.653 . S
C1121 C2 1.431 . S
C1123 C104 1.431 . S
C1139 C36 1.431 . S
C1141 C70 1.431 . S
C1157 C138 1.431 . S
C1159 C240 1.431 . S
C1175 C172 1.431 . S
C1177 C206 1.431 . S
C1193 C376 1.431 . S
C1195 C274 1.431 . S
C1211 C342 1.431 . S
C1213 C308 1.431 . S
C1229 C410 1.431 . S
C1231 C512 1.431 . S
C1247 C444 1.431 . S
C1249 C478 1.431 . S
