# Generated by pormake.
# Topology uol, (4)-cn, num edge types: 1
# Building blocks:
#     Node 0, Type 0, BuildingBlock: MUDLON_clean_sbu_0, # of connection points: 4
#     Node 1, Type 0, BuildingBlock: MUDLON_clean_sbu_0, # of connection points: 4
#     Node 2, Type 0, BuildingBlock: MUDLON_clean_sbu_0, # of connection points: 4
#     Node 3, Type 0, BuildingBlock: MUDLON_clean_sbu_0, # of connection points: 4
#     Node 4, Type 0, BuildingBlock: MUDLON_clean_sbu_0, # of connection points: 4
#     Node 5, Type 0, BuildingBlock: MUDLON_clean_sbu_0, # of connection points: 4
#     Node 6, Type 0, BuildingBlock: MUDLON_clean_sbu_0, # of connection points: 4
#     Node 7, Type 0, BuildingBlock: MUDLON_clean_sbu_0, # of connection points: 4
#     Node 8, Type 0, BuildingBlock: MUDLON_clean_sbu_0, # of connection points: 4
#     Node 9, Type 0, BuildingBlock: MUDLON_clean_sbu_0, # of connection points: 4
#     Node 10, Type 0, BuildingBlock: MUDLON_clean_sbu_0, # of connection points: 4
#     Node 11, Type 0, BuildingBlock: MUDLON_clean_sbu_0, # of connection points: 4
#     Edge 12, Type (0, 0), BuildingBlock: UVAHIK_clean_linker_0, # of connection points: 2
#     Edge 13, Type (0, 0), BuildingBlock: UVAHIK_clean_linker_0, # of connection points: 2
#     Edge 14, Type (0, 0), BuildingBlock: UVAHIK_clean_linker_0, # of connection points: 2
#     Edge 15, Type (0, 0), BuildingBlock: UVAHIK_clean_linker_0, # of connection points: 2
#     Edge 16, Type (0, 0), BuildingBlock: UVAHIK_clean_linker_0, # of connection points: 2
#     Edge 17, Type (0, 0), BuildingBlock: UVAHIK_clean_linker_0, # of connection points: 2
#     Edge 18, Type (0, 0), BuildingBlock: UVAHIK_clean_linker_0, # of connection points: 2
#     Edge 19, Type (0, 0), BuildingBlock: UVAHIK_clean_linker_0, # of connection points: 2
#     Edge 20, Type (0, 0), BuildingBlock: UVAHIK_clean_linker_0, # of connection points: 2
#     Edge 21, Type (0, 0), BuildingBlock: UVAHIK_clean_linker_0, # of connection points: 2
#     Edge 22, Type (0, 0), BuildingBlock: UVAHIK_clean_linker_0, # of connection points: 2
#     Edge 23, Type (0, 0), BuildingBlock: UVAHIK_clean_linker_0, # of connection points: 2
#     Edge 24, Type (0, 0), BuildingBlock: UVAHIK_clean_linker_0, # of connection points: 2
#     Edge 25, Type (0, 0), BuildingBlock: UVAHIK_clean_linker_0, # of connection points: 2
#     Edge 26, Type (0, 0), BuildingBlock: UVAHIK_clean_linker_0, # of connection points: 2
#     Edge 27, Type (0, 0), BuildingBlock: UVAHIK_clean_linker_0, # of connection points: 2
#     Edge 28, Type (0, 0), BuildingBlock: UVAHIK_clean_linker_0, # of connection points: 2
#     Edge 29, Type (0, 0), BuildingBlock: UVAHIK_clean_linker_0, # of connection points: 2
#     Edge 30, Type (0, 0), BuildingBlock: UVAHIK_clean_linker_0, # of connection points: 2
#     Edge 31, Type (0, 0), BuildingBlock: UVAHIK_clean_linker_0, # of connection points: 2
#     Edge 32, Type (0, 0), BuildingBlock: UVAHIK_clean_linker_0, # of connection points: 2
#     Edge 33, Type (0, 0), BuildingBlock: UVAHIK_clean_linker_0, # of connection points: 2
#     Edge 34, Type (0, 0), BuildingBlock: UVAHIK_clean_linker_0, # of connection points: 2
#     Edge 35, Type (0, 0), BuildingBlock: UVAHIK_clean_linker_0, # of connection points: 2
# Relax obj value: 0.130
# Max RMSD: 0.264
# Mean RMSD: 0.264
data_MOF--net-uol--node1-MUDLON_clean_sbu_0--edge1-UVAHIK_clean_linker_0
_symmetry_space_group_name_H-M    P1
_symmetry_Int_Tables_number       1
_symmetry_cell_setting            triclinic
loop_
_symmetry_equiv_pos_as_xyz
'x, y, z'
_cell_length_a     42.99964
_cell_length_b     43.014615
_cell_length_c     92.704727
_cell_angle_alpha  90.109708
_cell_angle_beta   89.84741
_cell_angle_gamma 119.97513
loop_
_atom_site_label
_atom_site_type_symbol
_atom_site_fract_x
_atom_site_fract_y
_atom_site_fract_z
_atom_type_partial_charge
Mg0 Mg 0.1426 0.33691 0.1158 0.0
C1 C 0.08934 0.27856 0.13558 0.0
O2 O 0.11662 0.27304 0.13685 0.0
C3 C 0.16835 0.33641 0.08568 0.0
O4 O 0.18464 0.37105 0.0883 0.0
C5 C 0.12218 0.39481 0.11532 0.0
O6 O 0.09242 0.36814 0.1206 0.0
O7 O 0.14811 0.3896 0.11231 0.0
O8 O 0.09186 0.30251 0.12684 0.0
O9 O 0.18424 0.34131 0.13037 0.0
C10 C 0.20207 0.32574 0.1275 0.0
O11 O 0.19666 0.30884 0.11514 0.0
O12 O 0.14759 0.31483 0.09527 0.0
Mg13 Mg 0.80963 0.13189 0.28253 0.0
C14 C 0.87702 0.19977 0.29236 0.0
O15 O 0.88578 0.2009 0.27871 0.0
C16 C 0.73908 0.12989 0.28892 0.0
O17 O 0.74589 0.12306 0.30197 0.0
C18 C 0.83406 0.15452 0.25192 0.0
O19 O 0.8136 0.16885 0.25385 0.0
O20 O 0.83686 0.13628 0.2621 0.0
O21 O 0.84639 0.17514 0.29661 0.0
O22 O 0.79794 0.0835 0.29439 0.0
C23 C 0.76694 0.05593 0.29565 0.0
O24 O 0.73987 0.05459 0.28858 0.0
O25 O 0.76111 0.13481 0.2788 0.0
Mg26 Mg 0.67875 0.80467 0.44917 0.0
C27 C 0.69302 0.87805 0.45828 0.0
O28 O 0.70918 0.88601 0.44567 0.0
C29 C 0.624 0.73213 0.43854 0.0
O30 O 0.65392 0.73496 0.43352 0.0
C31 C 0.67857 0.82642 0.41868 0.0
O32 O 0.64428 0.81006 0.42201 0.0
O33 O 0.70077 0.82784 0.42807 0.0
O34 O 0.67648 0.84545 0.46236 0.0
O35 O 0.71167 0.78846 0.4614 0.0
C36 C 0.69531 0.76126 0.4696 0.0
O37 O 0.66005 0.74351 0.4696 0.0
O38 O 0.6257 0.758 0.44584 0.0
Mg39 Mg 0.87644 0.67154 0.61811 0.0
C40 C 0.94016 0.69627 0.63789 0.0
O41 O 0.92687 0.66138 0.6385 0.0
C42 C 0.84267 0.66888 0.59028 0.0
O43 O 0.82135 0.63736 0.59608 0.0
C44 C 0.8989 0.61786 0.60987 0.0
O45 O 0.9279 0.64793 0.60627 0.0
O46 O 0.87244 0.61931 0.61528 0.0
O47 O 0.92535 0.70874 0.62967 0.0
O48 O 0.83259 0.66772 0.63111 0.0
C49 C 0.83161 0.66334 0.64469 0.0
O50 O 0.85624 0.65828 0.65082 0.0
O51 O 0.87084 0.69081 0.59711 0.0
Mg52 Mg 0.21651 0.87988 0.78322 0.0
C53 C 0.14678 0.81572 0.7929 0.0
O54 O 0.13847 0.81811 0.77949 0.0
C55 C 0.2832 0.88864 0.76916 0.0
O56 O 0.27018 0.89992 0.75892 0.0
C57 C 0.17425 0.88345 0.75657 0.0
O58 O 0.17012 0.90706 0.76408 0.0
O59 O 0.19239 0.87023 0.76184 0.0
O60 O 0.17843 0.83721 0.79732 0.0
O61 O 0.22596 0.92943 0.7936 0.0
C62 C 0.25731 0.95346 0.79739 0.0
O63 O 0.28485 0.94985 0.79369 0.0
O64 O 0.26634 0.87847 0.78108 0.0
Mg65 Mg 0.35513 0.2166 0.94722 0.0
C66 C 0.32338 0.14779 0.96268 0.0
O67 O 0.29553 0.14816 0.95709 0.0
C68 C 0.41473 0.28527 0.93552 0.0
O69 O 0.38879 0.27813 0.92633 0.0
C70 C 0.3077 0.17621 0.92059 0.0
O71 O 0.28027 0.16933 0.92894 0.0
O72 O 0.33943 0.19533 0.92541 0.0
O73 O 0.35454 0.17422 0.96021 0.0
O74 O 0.31985 0.2311 0.95875 0.0
C75 C 0.32791 0.2372 0.97206 0.0
O76 O 0.35574 0.23531 0.97676 0.0
O77 O 0.40859 0.26366 0.94591 0.0
Mg78 Mg 0.67983 0.88239 0.74698 0.0
C79 C 0.68206 0.8154 0.73834 0.0
O80 O 0.69014 0.81641 0.75205 0.0
C81 C 0.60993 0.88216 0.73969 0.0
O82 O 0.62214 0.88633 0.72641 0.0
C83 C 0.72931 0.88617 0.772 0.0
O84 O 0.75538 0.90316 0.76261 0.0
O85 O 0.69723 0.8764 0.76835 0.0
O86 O 0.67472 0.83861 0.73346 0.0
O87 O 0.71807 0.93112 0.73558 0.0
C88 C 0.71298 0.95745 0.73343 0.0
O89 O 0.68507 0.9571 0.7394 0.0
O90 O 0.62825 0.87969 0.74991 0.0
Mg91 Mg 0.81432 0.68443 0.91382 0.0
C92 C 0.77606 0.71426 0.89577 0.0
O93 O 0.74835 0.68247 0.89851 0.0
C94 C 0.83872 0.68379 0.94392 0.0
O95 O 0.82087 0.64933 0.9409 0.0
C96 C 0.75771 0.60476 0.91213 0.0
O97 O 0.78277 0.60354 0.90443 0.0
O98 O 0.76368 0.63473 0.91722 0.0
O99 O 0.80628 0.72278 0.90136 0.0
O100 O 0.85246 0.67643 0.90129 0.0
C101 C 0.84945 0.67335 0.88765 0.0
O102 O 0.82128 0.6719 0.88148 0.0
O103 O 0.83987 0.7059 0.93454 0.0
Mg104 Mg 0.1462 0.8012 0.07938 0.0
C105 C 0.20212 0.87334 0.06807 0.0
O106 O 0.1928 0.88305 0.08003 0.0
C107 C 0.12691 0.72772 0.08935 0.0
O108 O 0.09878 0.72973 0.09359 0.0
C109 C 0.16984 0.8263 0.10974 0.0
O110 O 0.18645 0.80816 0.10729 0.0
O111 O 0.14952 0.82718 0.09999 0.0
O112 O 0.18791 0.84007 0.06519 0.0
O113 O 0.09549 0.78378 0.06829 0.0
C114 C 0.09139 0.80595 0.06061 0.0
O115 O 0.11704 0.83972 0.06039 0.0
O116 O 0.1522 0.75444 0.08285 0.0
Mg117 Mg 0.34962 0.13633 0.24723 0.0
C118 C 0.34267 0.20005 0.23702 0.0
O119 O 0.33141 0.19861 0.25032 0.0
C120 C 0.40659 0.12591 0.26163 0.0
O121 O 0.37932 0.10693 0.27029 0.0
C122 C 0.34516 0.16119 0.27709 0.0
O123 O 0.37961 0.18144 0.27437 0.0
O124 O 0.32527 0.13844 0.26764 0.0
O125 O 0.35345 0.17863 0.23316 0.0
O126 O 0.31689 0.08718 0.23505 0.0
C127 C 0.32653 0.0888 0.22195 0.0
O128 O 0.35489 0.11832 0.21743 0.0
O129 O 0.40217 0.14177 0.25093 0.0
Mg130 Mg 0.2173 0.34184 0.41194 0.0
C131 C 0.21051 0.28032 0.39367 0.0
O132 O 0.17709 0.27332 0.39324 0.0
C133 C 0.1863 0.34537 0.44002 0.0
O134 O 0.19886 0.3778 0.43472 0.0
C135 C 0.29576 0.39979 0.4118 0.0
O136 O 0.29876 0.37306 0.4065 0.0
O137 O 0.26471 0.39459 0.41496 0.0
O138 O 0.23297 0.3063 0.40141 0.0
O139 O 0.17986 0.3456 0.39727 0.0
C140 C 0.14636 0.32837 0.39996 0.0
O141 O 0.13514 0.30996 0.412 0.0
O142 O 0.19077 0.32273 0.43278 0.0
Mg143 Mg 0.88342 0.21236 0.58072 0.0
C144 C 0.84021 0.17558 0.55408 0.0
O145 O 0.86482 0.2058 0.54825 0.0
C146 C 0.90209 0.28666 0.58998 0.0
O147 O 0.93121 0.28615 0.59385 0.0
C148 C 0.85884 0.18843 0.61082 0.0
O149 O 0.84101 0.20477 0.60734 0.0
O150 O 0.88063 0.18783 0.60165 0.0
O151 O 0.84042 0.17159 0.56766 0.0
O152 O 0.93288 0.22816 0.56856 0.0
C153 C 0.94535 0.25611 0.56069 0.0
O154 O 0.9293 0.27528 0.56087 0.0
O155 O 0.87667 0.25889 0.58406 0.0
C156 C 0.10024 0.66528 0.09909 0.0
C157 C 0.12882 0.69477 0.09214 0.0
C158 C 0.10171 0.6341 0.10178 0.0
C159 C 0.14671 0.58408 0.09019 0.0
H160 H 0.10902 0.53383 0.12635 0.0
C161 C 0.15607 0.45869 0.10656 0.0
C162 C 0.12515 0.43027 0.11286 0.0
C163 C 0.15845 0.49197 0.1042 0.0
C164 C 0.11938 0.54736 0.11615 0.0
H165 H 0.18148 0.71455 0.08257 0.0
H166 H 0.1842 0.66012 0.0874 0.0
H167 H 0.10984 0.59003 0.12195 0.0
H168 H 0.07248 0.41462 0.12161 0.0
H169 H 0.07656 0.47236 0.11744 0.0
H170 H 0.15607 0.54118 0.08439 0.0
C171 C 0.16044 0.66103 0.09063 0.0
C172 C 0.11983 0.5796 0.11362 0.0
C173 C 0.15896 0.6923 0.08792 0.0
C174 C 0.09674 0.43592 0.11677 0.0
C175 C 0.09917 0.46914 0.11446 0.0
C176 C 0.1463 0.5518 0.09273 0.0
C177 C 0.13184 0.63157 0.09762 0.0
C178 C 0.13311 0.59817 0.10054 0.0
C179 C 0.13004 0.4976 0.10816 0.0
C180 C 0.13224 0.53285 0.10568 0.0
H181 H 0.07653 0.66615 0.10243 0.0
H182 H 0.07894 0.61175 0.10696 0.0
H183 H 0.15677 0.59746 0.07994 0.0
H184 H 0.17845 0.45525 0.10342 0.0
H185 H 0.18272 0.51343 0.09944 0.0
C186 C 0.67905 0.12059 0.2966 0.0
C187 C 0.70582 0.13112 0.28598 0.0
C188 C 0.64746 0.12131 0.29381 0.0
C189 C 0.59168 0.12384 0.26375 0.0
H190 H 0.54771 0.15071 0.29422 0.0
C191 C 0.46963 0.14404 0.25407 0.0
C192 C 0.44176 0.12837 0.2643 0.0
C193 C 0.50248 0.14556 0.25655 0.0
C194 C 0.55953 0.14291 0.28563 0.0
H195 H 0.72048 0.15104 0.2641 0.0
H196 H 0.6658 0.15308 0.25934 0.0
H197 H 0.60386 0.15149 0.29882 0.0
H198 H 0.42676 0.10233 0.28521 0.0
H199 H 0.48401 0.10518 0.28954 0.0
H200 H 0.54735 0.11563 0.25054 0.0
C201 C 0.66883 0.14353 0.26975 0.0
C202 C 0.5917 0.14324 0.28827 0.0
C203 C 0.70033 0.14258 0.27251 0.0
C204 C 0.44762 0.11459 0.2771 0.0
C205 C 0.48052 0.11639 0.27963 0.0
C206 C 0.55962 0.12378 0.26108 0.0
C207 C 0.64191 0.13283 0.28036 0.0
C208 C 0.6081 0.13344 0.2774 0.0
C209 C 0.5083 0.13177 0.26937 0.0
C210 C 0.54304 0.13305 0.27202 0.0
H211 H 0.68228 0.1114 0.30706 0.0
H212 H 0.62714 0.11226 0.30217 0.0
H213 H 0.60314 0.1156 0.25517 0.0
H214 H 0.46601 0.15489 0.2441 0.0
H215 H 0.52347 0.15785 0.2485 0.0
C216 C 0.5882 0.67013 0.42839 0.0
C217 C 0.58915 0.69917 0.43576 0.0
C218 C 0.55557 0.63897 0.42566 0.0
C219 C 0.46075 0.58811 0.43756 0.0
H220 H 0.44777 0.53938 0.40094 0.0
C221 C 0.32585 0.46352 0.42076 0.0
C222 C 0.32827 0.43524 0.41425 0.0
C223 C 0.35678 0.49671 0.42322 0.0
C224 C 0.45106 0.5525 0.41127 0.0
H225 H 0.5564 0.7182 0.44604 0.0
H226 H 0.49926 0.66384 0.44111 0.0
H227 H 0.50311 0.59546 0.40554 0.0
H228 H 0.36517 0.41979 0.40519 0.0
H229 H 0.41889 0.47743 0.40951 0.0
H230 H 0.40858 0.54494 0.44326 0.0
C231 C 0.52388 0.66504 0.4376 0.0
C232 C 0.48283 0.58466 0.41391 0.0
C233 C 0.55662 0.69628 0.44037 0.0
C234 C 0.36227 0.44098 0.41019 0.0
C235 C 0.3931 0.47414 0.41259 0.0
C236 C 0.42887 0.55593 0.43489 0.0
C237 C 0.52295 0.63602 0.43017 0.0
C238 C 0.48829 0.60269 0.42715 0.0
C239 C 0.39077 0.50241 0.41914 0.0
C240 C 0.42383 0.53753 0.42177 0.0
H241 H 0.61273 0.67132 0.42475 0.0
H242 H 0.55598 0.61695 0.42015 0.0
H243 H 0.46418 0.60104 0.44793 0.0
H244 H 0.30008 0.46001 0.42402 0.0
H245 H 0.35403 0.51805 0.42817 0.0
C246 C 0.86475 0.55051 0.6083 0.0
C247 C 0.89754 0.58302 0.60783 0.0
C248 C 0.86371 0.51778 0.60607 0.0
C249 C 0.91898 0.48001 0.59142 0.0
H250 H 0.85124 0.39487 0.61246 0.0
C251 C 0.93108 0.3526 0.59473 0.0
C252 C 0.89985 0.31968 0.59193 0.0
C253 C 0.92943 0.38404 0.59633 0.0
C254 C 0.87009 0.41839 0.60643 0.0
H255 H 0.95503 0.60661 0.60502 0.0
H256 H 0.95346 0.54983 0.60167 0.0
H257 H 0.85124 0.45111 0.61614 0.0
H258 H 0.84226 0.29387 0.58884 0.0
H259 H 0.83932 0.34896 0.59195 0.0
H260 H 0.93852 0.44739 0.5821 0.0
C261 C 0.9283 0.54941 0.60326 0.0
C262 C 0.87005 0.45064 0.60848 0.0
C263 C 0.92927 0.58207 0.60529 0.0
C264 C 0.86681 0.31884 0.59095 0.0
C265 C 0.86508 0.35029 0.59279 0.0
C266 C 0.91933 0.44794 0.58954 0.0
C267 C 0.8955 0.51676 0.6035 0.0
C268 C 0.89467 0.482 0.60106 0.0
C269 C 0.89644 0.38324 0.59539 0.0
C270 C 0.89503 0.41685 0.59707 0.0
H271 H 0.8398 0.55037 0.61016 0.0
H272 H 0.83788 0.49335 0.60613 0.0
H273 H 0.93775 0.50321 0.58523 0.0
H274 H 0.95697 0.3542 0.59553 0.0
H275 H 0.95397 0.40901 0.59846 0.0
C276 C 0.56151 0.87461 0.75693 0.0
C277 C 0.57566 0.88131 0.74286 0.0
C278 C 0.52951 0.87435 0.76 0.0
C279 C 0.44827 0.86658 0.74255 0.0
H280 H 0.43976 0.90892 0.77825 0.0
C281 C 0.33284 0.89553 0.7529 0.0
C282 C 0.3166 0.88731 0.76661 0.0
C283 C 0.36401 0.89392 0.75028 0.0
C284 C 0.44156 0.89663 0.76831 0.0
H285 H 0.56716 0.89305 0.72096 0.0
H286 H 0.5117 0.89317 0.72633 0.0
H287 H 0.49489 0.90791 0.77305 0.0
H288 H 0.32063 0.87118 0.78835 0.0
H289 H 0.37526 0.86843 0.78376 0.0
H290 H 0.39509 0.85573 0.73774 0.0
C291 C 0.52501 0.8875 0.73498 0.0
C292 C 0.47317 0.896 0.76532 0.0
C293 C 0.55696 0.88763 0.7319 0.0
C294 C 0.33246 0.87768 0.77767 0.0
C295 C 0.36385 0.87627 0.77506 0.0
C296 C 0.41675 0.86735 0.74551 0.0
C297 C 0.51088 0.88091 0.74907 0.0
C298 C 0.477 0.88109 0.75237 0.0
C299 C 0.37988 0.88421 0.76131 0.0
C300 C 0.41307 0.88252 0.75839 0.0
H301 H 0.57512 0.86948 0.76563 0.0
H302 H 0.5192 0.86863 0.77092 0.0
H303 H 0.44994 0.85426 0.7326 0.0
H304 H 0.32143 0.90312 0.74413 0.0
H305 H 0.37595 0.9007 0.73962 0.0
C306 C 0.45722 0.34004 0.92152 0.0
C307 C 0.45046 0.31782 0.9336 0.0
C308 C 0.49082 0.3706 0.91951 0.0
C309 C 0.57281 0.43563 0.93876 0.0
H310 H 0.61431 0.4573 0.90036 0.0
C311 C 0.69693 0.57227 0.9239 0.0
C312 C 0.72298 0.57159 0.9149 0.0
C313 C 0.66421 0.54094 0.9265 0.0
C314 C 0.60324 0.45153 0.91117 0.0
H315 H 0.47379 0.31053 0.95312 0.0
H316 H 0.53262 0.36401 0.94958 0.0
H317 H 0.55668 0.40308 0.90438 0.0
H318 H 0.735 0.53731 0.90163 0.0
H319 H 0.67798 0.48274 0.90617 0.0
H320 H 0.61958 0.48404 0.94556 0.0
C321 C 0.51175 0.3578 0.9417 0.0
C322 C 0.57002 0.42063 0.91345 0.0
C323 C 0.4781 0.32706 0.94369 0.0
C324 C 0.71553 0.53884 0.90858 0.0
C325 C 0.68275 0.50757 0.91113 0.0
C326 C 0.606 0.46668 0.93647 0.0
C327 C 0.51854 0.37984 0.92955 0.0
C328 C 0.55432 0.41235 0.92726 0.0
C329 C 0.65667 0.50823 0.92011 0.0
C330 C 0.62158 0.47503 0.92264 0.0
H331 H 0.43655 0.33384 0.91355 0.0
H332 H 0.49496 0.38726 0.91014 0.0
H333 H 0.56134 0.43019 0.94951 0.0
H334 H 0.70176 0.59703 0.92893 0.0
H335 H 0.64455 0.54248 0.93333 0.0
C336 C 0.34337 0.21928 0.21143 0.0
C337 C 0.33827 0.22288 0.2262 0.0
C338 C 0.33488 0.23749 0.20109 0.0
C339 C 0.27624 0.27643 0.19648 0.0
H340 H 0.32725 0.31058 0.16021 0.0
C341 C 0.22713 0.33635 0.15261 0.0
C342 C 0.22531 0.32294 0.1386 0.0
C343 C 0.24592 0.3302 0.16348 0.0
C344 C 0.31268 0.30107 0.17028 0.0
H345 H 0.32225 0.2501 0.2417 0.0
H346 H 0.30809 0.28233 0.22369 0.0
H347 H 0.35171 0.28932 0.17905 0.0
H348 H 0.24319 0.29395 0.1249 0.0
H349 H 0.27572 0.28309 0.14385 0.0
H350 H 0.2369 0.28749 0.18766 0.0
C351 C 0.31785 0.26478 0.22007 0.0
C352 C 0.32666 0.28885 0.18107 0.0
C353 C 0.32619 0.24646 0.23041 0.0
C354 C 0.24398 0.3046 0.13557 0.0
C355 C 0.26283 0.29854 0.14643 0.0
C356 C 0.26235 0.28872 0.18573 0.0
C357 C 0.32125 0.25985 0.20527 0.0
C358 C 0.30833 0.27589 0.19423 0.0
C359 C 0.26341 0.31063 0.16058 0.0
C360 C 0.2801 0.3007 0.17242 0.0
H361 H 0.35259 0.2013 0.2078 0.0
H362 H 0.33753 0.23275 0.1898 0.0
H363 H 0.26103 0.26606 0.20636 0.0
H364 H 0.21319 0.35072 0.1553 0.0
H365 H 0.24628 0.34031 0.17422 0.0
C366 C 0.8966 0.2191 0.31785 0.0
C367 C 0.90423 0.22365 0.303 0.0
C368 C 0.92359 0.23833 0.32797 0.0
C369 C 0.02168 0.28201 0.33145 0.0
H370 H 1.00425 0.31207 0.36861 0.0
C371 C 0.13134 0.3407 0.37522 0.0
C372 C 0.12005 0.32578 0.38904 0.0
C373 C 0.10616 0.33498 0.36451 0.0
C374 C 1.00951 0.30375 0.35829 0.0
H375 H 0.94576 0.2536 0.28713 0.0
H376 H 0.9927 0.28749 0.30478 0.0
H377 H 0.95775 0.29035 0.35009 0.0
H378 H 0.07343 0.29449 0.40261 0.0
H379 H 0.02967 0.28433 0.38394 0.0
H380 H 0.07301 0.29451 0.33974 0.0
C381 C 0.966 0.2685 0.30861 0.0
C382 C 0.98287 0.29129 0.34768 0.0
C383 C 0.93902 0.24921 0.29849 0.0
C384 C 0.08308 0.3063 0.39207 0.0
C385 C 0.05794 0.30067 0.38138 0.0
C386 C 0.04831 0.29451 0.34204 0.0
C387 C 0.95883 0.26265 0.32347 0.0
C388 C 0.98838 0.27963 0.33422 0.0
C389 C 0.06915 0.31435 0.36739 0.0
C390 C 0.0423 0.30489 0.35568 0.0
H391 H 0.87009 0.19966 0.32171 0.0
H392 H 0.91714 0.23287 0.33931 0.0
H393 H 0.02669 0.27273 0.32131 0.0
H394 H 0.15963 0.35598 0.37255 0.0
H395 H 0.11567 0.34627 0.35389 0.0
C396 C 0.81772 0.14858 0.52969 0.0
C397 C 0.81544 0.14515 0.54478 0.0
C398 C 0.79721 0.11892 0.52084 0.0
C399 C 0.75312 0.02042 0.5214 0.0
H400 H 0.71592 0.02808 0.48433 0.0
C401 C 0.6856 0.89968 0.48255 0.0
C402 C 0.69766 0.90715 0.46818 0.0
C403 C 0.69359 0.92763 0.49226 0.0
C404 C 0.72624 0.02553 0.49464 0.0
H405 H 0.78848 0.10814 0.56242 0.0
H406 H 0.75238 0.05646 0.54697 0.0
H407 H 0.74128 0.07926 0.50078 0.0
H408 H 0.72618 0.94983 0.45261 0.0
H409 H 0.74025 0.99838 0.46952 0.0
H410 H 0.73891 0.96706 0.51513 0.0
C411 C 0.77051 0.082 0.54198 0.0
C412 C 0.74079 0.05486 0.50406 0.0
C413 C 0.79105 0.11169 0.55083 0.0
C414 C 0.71653 0.94309 0.46361 0.0
C415 C 0.72442 0.97099 0.47329 0.0
C416 C 0.73854 0.9911 0.51198 0.0
C417 C 0.77386 0.08509 0.52687 0.0
C418 C 0.755 0.05288 0.51745 0.0
C419 C 0.71366 0.96364 0.48781 0.0
C420 C 0.72552 0.99351 0.49838 0.0
H421 H 0.83621 0.17395 0.52466 0.0
H422 H 0.80079 0.12223 0.50927 0.0
H423 H 0.76429 0.01808 0.53152 0.0
H424 H 0.67088 0.87228 0.48642 0.0
H425 H 0.6845 0.92106 0.50333 0.0
C426 C 0.80624 0.66602 0.66875 0.0
C427 C 0.80601 0.66863 0.65364 0.0
C428 C 0.78519 0.6752 0.6773 0.0
C429 C 0.74594 0.73356 0.67638 0.0
H430 H 0.69918 0.68469 0.71183 0.0
C431 C 0.67861 0.78997 0.7136 0.0
C432 C 0.68611 0.79063 0.72839 0.0
C433 C 0.68646 0.76971 0.70399 0.0
C434 C 0.71225 0.69875 0.702 0.0
H435 H 0.782 0.68119 0.63564 0.0
H436 H 0.74525 0.69711 0.65057 0.0
H437 H 0.72539 0.65858 0.69588 0.0
H438 H 0.70627 0.76921 0.74474 0.0
H439 H 0.72057 0.73458 0.72801 0.0
H440 H 0.73411 0.77435 0.68265 0.0
C441 C 0.76208 0.68839 0.6558 0.0
C442 C 0.72721 0.68374 0.69286 0.0
C443 C 0.78301 0.67907 0.64725 0.0
C444 C 0.70015 0.76935 0.73342 0.0
C445 C 0.70816 0.74925 0.72381 0.0
C446 C 0.73117 0.74864 0.68554 0.0
C447 C 0.76351 0.6873 0.67093 0.0
C448 C 0.74466 0.70125 0.68004 0.0
C449 C 0.70215 0.74976 0.70893 0.0
C450 C 0.7146 0.73173 0.69857 0.0
H451 H 0.82359 0.65801 0.67403 0.0
H452 H 0.78713 0.67433 0.68892 0.0
H453 H 0.75968 0.74803 0.6667 0.0
H454 H 0.66753 0.80584 0.70938 0.0
H455 H 0.68084 0.7702 0.69264 0.0
C456 C 0.87673 0.67427 0.86362 0.0
C457 C 0.87955 0.67648 0.87874 0.0
C458 C 0.90655 0.68184 0.85509 0.0
C459 C 1.00441 0.73602 0.85607 0.0
H460 H 0.99921 0.68713 0.82022 0.0
C461 C 0.1261 0.79016 0.81773 0.0
C462 C 0.1184 0.79139 0.80308 0.0
C463 C 0.09842 0.77022 0.82756 0.0
C464 C 1.00109 0.70117 0.83017 0.0
H465 H 0.91549 0.68652 0.89676 0.0
H466 H 0.9675 0.69972 0.88184 0.0
H467 H 0.94738 0.66238 0.83639 0.0
H468 H 0.07572 0.77133 0.78719 0.0
H469 H 0.02767 0.73733 0.80429 0.0
H470 H 0.05743 0.77558 0.84968 0.0
C471 C 0.94229 0.6925 0.8766 0.0
C472 C 0.97141 0.68693 0.83944 0.0
C473 C 0.91241 0.68474 0.88515 0.0
C474 C 0.08265 0.77103 0.7984 0.0
C475 C 0.05502 0.75126 0.80822 0.0
C476 C 0.03399 0.75036 0.84678 0.0
C477 C 0.93989 0.69192 0.86148 0.0
C478 C 0.97252 0.70456 0.85237 0.0
C479 C 0.06244 0.75117 0.82298 0.0
C480 C 0.03249 0.73351 0.83358 0.0
H481 H 0.8518 0.6679 0.85834 0.0
H482 H 0.90387 0.68143 0.84347 0.0
H483 H 1.00598 0.75055 0.86586 0.0
H484 H 0.15338 0.80534 0.82168 0.0
H485 H 0.10518 0.77027 0.83881 0.0
C486 C 0.23237 0.89087 0.04385 0.0
C487 C 0.22507 0.90084 0.05734 0.0
C488 C 0.25044 0.9167 0.03315 0.0
C489 C 0.30356 0.01553 0.02653 0.0
H490 H 0.25951 0.98937 0.98873 0.0
C491 C 0.34651 0.11846 0.97973 0.0
C492 C 0.31784 0.11779 0.97219 0.0
C493 C 0.3403 0.0907 0.98928 0.0
C494 C 0.27216 0.99712 0.99922 0.0
H495 H 0.23261 0.94602 0.07038 0.0
H496 H 0.26339 0.99074 0.05174 0.0
H497 H 0.24045 0.94391 1.00745 0.0
H498 H 0.26034 0.08706 0.96855 0.0
H499 H 0.24958 0.03924 0.98519 0.0
H500 H 0.33387 0.06923 0.01847 0.0
C501 C 0.25565 0.96312 0.04942 0.0
C502 C 0.26156 0.97092 1.00992 0.0
C503 C 0.2377 0.93736 0.06011 0.0
C504 C 0.28308 0.08848 0.97417 0.0
C505 C 0.27692 0.06082 0.98364 0.0
C506 C 0.31411 0.04179 0.01582 0.0
C507 C 0.26156 0.95305 0.03569 0.0
C508 C 0.27647 0.97994 0.02383 0.0
C509 C 0.30535 0.06166 0.99141 0.0
C510 C 0.29784 0.03307 1.00215 0.0
H511 H 0.22322 0.86299 0.04139 0.0
H512 H 0.25505 0.90807 0.02277 0.0
H513 H 0.316 0.02331 0.03706 0.0
H514 H 0.37362 0.14067 0.97843 0.0
H515 H 0.36283 0.09201 0.99502 0.0
C516 C 0.16251 0.28599 0.06997 0.0
C517 C 0.17658 0.32294 0.07227 0.0
C518 C 0.17282 0.27372 0.05786 0.0
C519 C 0.21798 0.3018 0.02198 0.0
H520 H 0.2434 0.22865 0.02943 0.0
C521 C 0.27684 0.24835 0.9779 0.0
C522 C 0.30627 0.24504 0.98239 0.0
C523 C 0.25666 0.25535 0.98798 0.0
C524 C 0.23643 0.2491 0.02716 0.0
H525 H 0.21153 0.37588 0.06335 0.0
H526 H 0.22974 0.35458 0.04243 0.0
H527 H 0.21562 0.24565 0.04843 0.0
H528 H 0.33755 0.24663 1.00102 0.0
H529 H 0.30279 0.25887 0.01839 0.0
H530 H 0.2402 0.30612 1.00084 0.0
C531 C 0.21045 0.33498 0.04986 0.0
C532 C 0.22007 0.25856 0.03801 0.0
C533 C 0.20019 0.34723 0.06194 0.0
C534 C 0.31503 0.2489 0.99714 0.0
C535 C 0.29488 0.25565 1.00716 0.0
C536 C 0.23431 0.29224 1.01109 0.0
C537 C 0.19738 0.29811 0.04777 0.0
C538 C 0.21126 0.28553 0.03567 0.0
C539 C 0.26536 0.25883 1.00275 0.0
C540 C 0.24445 0.26634 1.01366 0.0
H541 H 0.14414 0.26653 0.07767 0.0
H542 H 0.16184 0.24511 0.0565 0.0
H543 H 0.21112 0.32235 0.01974 0.0
H544 H 0.26938 0.2455 0.96662 0.0
H545 H 0.23399 0.25754 0.98425 0.0
C546 C 0.85244 0.18246 0.22741 0.0
C547 C 0.85565 0.16205 0.23852 0.0
C548 C 0.87438 0.19176 0.21518 0.0
C549 C 0.9348 0.16953 0.19447 0.0
H550 H 0.97619 0.2676 0.18096 0.0
C551 C 0.05659 0.23546 0.15569 0.0
C552 C 0.058 0.26013 0.14541 0.0
C553 C 0.02901 0.22068 0.16594 0.0
C554 C 0.96445 0.23994 0.18442 0.0
H555 H 0.88396 0.13466 0.2453 0.0
H556 H 0.9225 0.15117 0.22401 0.0
H557 H 0.9337 0.24705 0.20092 0.0
H558 H 0.03061 0.28751 0.13751 0.0
H559 H 0.98225 0.26139 0.15529 0.0
H560 H 0.96603 0.16266 0.17806 0.0
C561 C 0.90272 0.1597 0.22469 0.0
C562 C 0.94006 0.22814 0.19589 0.0
C563 C 0.88073 0.15036 0.23694 0.0
C564 C 0.03044 0.2687 0.14531 0.0
C565 C 1.00285 0.25392 0.15557 0.0
C566 C 0.95922 0.18135 0.18297 0.0
C567 C 0.90014 0.18092 0.21374 0.0
C568 C 0.92507 0.19286 0.20114 0.0
C569 C 1.00212 0.23019 0.16617 0.0
C570 C 0.97456 0.2168 0.17786 0.0
H571 H 0.83326 0.19174 0.22822 0.0
H572 H 0.87122 0.2076 0.20685 0.0
H573 H 0.92339 0.14205 0.1981 0.0
H574 H 0.07737 0.22824 0.1561 0.0
H575 H 0.02955 0.2028 0.17402 0.0
C576 C 0.78951 0.03008 0.31444 0.0
C577 C 0.76084 0.02761 0.30627 0.0
C578 C 0.78334 1.00539 0.32543 0.0
C579 C 0.71552 0.91647 0.34011 0.0
H580 H 0.76432 0.95606 0.37635 0.0
C581 C 0.66561 0.84179 0.39424 0.0
C582 C 0.6909 0.84521 0.40463 0.0
C583 C 0.6766 0.86142 0.38142 0.0
C584 C 0.75091 0.94439 0.36626 0.0
H585 H 0.70328 0.9964 0.30296 0.0
H586 H 0.69248 0.95357 0.32219 0.0
H587 H 0.77889 0.9949 0.35537 0.0
H588 H 0.74776 0.87126 0.40948 0.0
H589 H 0.76702 0.90551 0.38699 0.0
H590 H 0.687 0.86609 0.35112 0.0
C591 C 0.71983 0.97441 0.32002 0.0
C592 C 0.75925 0.9667 0.3542 0.0
C593 C 0.726 0.9991 0.30902 0.0
C594 C 0.72758 0.86804 0.40171 0.0
C595 C 0.7386 0.88784 0.38887 0.0
C596 C 0.70716 0.89416 0.35217 0.0
C597 C 0.74834 0.97759 0.32853 0.0
C598 C 0.74131 0.95315 0.34102 0.0
C599 C 0.71319 0.88507 0.37864 0.0
C600 C 0.72436 0.90796 0.36546 0.0
H601 H 0.81674 0.05158 0.31258 0.0
H602 H 0.80599 0.00832 0.33161 0.0
H603 H 0.70162 0.90499 0.33007 0.0
H604 H 0.63713 0.82443 0.39611 0.0
H605 H 0.65625 0.85892 0.37389 0.0
C606 C 0.79946 0.65491 0.57001 0.0
C607 C 0.83219 0.67908 0.57661 0.0
C608 C 0.78776 0.66483 0.55775 0.0
C609 C 0.81593 0.72785 0.52726 0.0
H610 H 0.71624 0.70399 0.528 0.0
C611 C 0.75097 0.7755 0.48367 0.0
C612 C 0.71497 0.75144 0.48007 0.0
C613 C 0.76776 0.76739 0.49482 0.0
C614 C 0.744 0.71043 0.52748 0.0
H615 H 0.87895 0.73233 0.57514 0.0
H616 H 0.85838 0.74966 0.55355 0.0
H617 H 0.74115 0.68884 0.54851 0.0
H618 H 0.66914 0.69914 0.48476 0.0
H619 H 0.69848 0.68468 0.50381 0.0
H620 H 0.81854 0.74917 0.50609 0.0
C621 C 0.84186 0.72299 0.55796 0.0
C622 C 0.75831 0.70183 0.53929 0.0
C623 C 0.85355 0.71311 0.57034 0.0
C624 C 0.69674 0.71849 0.48738 0.0
C625 C 0.71352 0.7103 0.49839 0.0
C626 C 0.80149 0.73632 0.51535 0.0
C627 C 0.80849 0.69914 0.55171 0.0
C628 C 0.79429 0.71002 0.53927 0.0
C629 C 0.74892 0.73499 0.50254 0.0
C630 C 0.76517 0.72728 0.51525 0.0
H631 H 0.7824 0.6284 0.57446 0.0
H632 H 0.76222 0.64561 0.55305 0.0
H633 H 0.84373 0.73439 0.52692 0.0
H634 H 0.76573 0.80115 0.47825 0.0
H635 H 0.795 0.78708 0.49774 0.0
C636 C 0.15557 0.84029 0.73589 0.0
C637 C 0.15497 0.86921 0.74273 0.0
C638 C 0.13502 0.8245 0.72358 0.0
C639 C 0.08707 0.83744 0.69345 0.0
H640 H 0.03006 0.73358 0.69435 0.0
C641 C 0.97533 0.75424 0.65149 0.0
C642 C 0.96941 0.71996 0.64785 0.0
C643 C 1.00016 0.77463 0.66221 0.0
C644 C 0.04622 0.76253 0.69374 0.0
H645 H 0.13329 0.90511 0.74157 0.0
H646 H 0.09746 0.87753 0.71989 0.0
H647 H 0.06952 0.76542 0.71441 0.0
H648 H 0.9864 0.68111 0.65199 0.0
H649 H 0.03043 0.71697 0.67023 0.0
H650 H 0.06399 0.83448 0.67267 0.0
C651 C 0.1139 0.86715 0.72415 0.0
C652 C 0.06876 0.7808 0.70531 0.0
C653 C 0.1343 0.88283 0.7366 0.0
C654 C 0.99002 0.70724 0.65467 0.0
C655 C 0.01509 0.72774 0.66523 0.0
C656 C 0.06469 0.81908 0.68176 0.0
C657 C 0.1135 0.83735 0.71769 0.0
C658 C 0.08953 0.81842 0.70529 0.0
C659 C 0.01986 0.76131 0.66944 0.0
C660 C 0.04404 0.78133 0.68174 0.0
H661 H 0.17128 0.82917 0.74025 0.0
H662 H 0.13568 0.80191 0.71872 0.0
H663 H 0.10293 0.86645 0.69312 0.0
H664 H 0.95973 0.76472 0.64647 0.0
H665 H 1.00285 0.8002 0.66521 0.0
C666 C 0.26734 0.13452 0.90124 0.0
C667 C 0.30206 0.159 0.90619 0.0
C668 C 0.26246 0.11593 0.88824 0.0
C669 C 0.31034 0.0855 0.8642 0.0
H670 H 0.23364 0.06502 0.83725 0.0
C671 C 0.297 0.00928 0.81148 0.0
C672 C 0.26231 0.98234 0.80755 0.0
C673 C 0.30198 0.03399 0.82233 0.0
C674 C 0.25503 0.07026 0.84472 0.0
H675 H 0.35879 0.18422 0.90099 0.0
H676 H 0.35025 0.1521 0.87839 0.0
H677 H 0.24177 0.10217 0.85847 0.0
H678 H 0.20552 0.96119 0.81159 0.0
H679 H 0.2142 1.00387 0.83067 0.0
H680 H 0.32326 0.05314 0.85076 0.0
C681 C 0.32679 0.14679 0.88465 0.0
C682 C 0.25969 0.09158 0.85688 0.0
C683 C 0.33167 0.16537 0.89759 0.0
C684 C 0.23264 0.98163 0.81432 0.0
C685 C 0.23763 1.00624 0.82525 0.0
C686 C 0.30562 0.06414 0.85212 0.0
C687 C 0.29219 0.12136 0.87993 0.0
C688 C 0.28741 0.09943 0.86678 0.0
C689 C 0.2724 0.03227 0.82961 0.0
C690 C 0.2779 0.05617 0.8422 0.0
H691 H 0.24393 0.12895 0.90758 0.0
H692 H 0.23545 0.09638 0.88498 0.0
H693 H 0.33152 0.09039 0.87174 0.0
H694 H 0.32046 0.01083 0.8064 0.0
H695 H 0.32913 0.05414 0.82516 0.0
C696 C 0.70774 0.8519 0.79517 0.0
C697 C 0.73644 0.87515 0.78621 0.0
C698 C 0.71403 0.83922 0.80808 0.0
C699 C 0.78257 0.82482 0.82616 0.0
H700 H 0.72029 0.8049 0.85934 0.0
C701 C 0.80386 0.76795 0.8794 0.0
C702 C 0.77297 0.73822 0.88508 0.0
C703 C 0.80105 0.7885 0.86832 0.0
C704 C 0.73783 0.81022 0.85015 0.0
H705 H 0.79441 0.90422 0.78407 0.0
H706 H 0.80548 0.88275 0.80677 0.0
H707 H 0.71301 0.83462 0.8383 0.0
H708 H 0.71485 0.70757 0.88392 0.0
H709 H 0.70998 0.74359 0.86471 0.0
H710 H 0.80732 0.80034 0.83806 0.0
C711 C 0.77799 0.87367 0.80366 0.0
C712 C 0.73362 0.82717 0.83805 0.0
C713 C 0.77167 0.8862 0.79068 0.0
C714 C 0.73918 0.73027 0.87979 0.0
C715 C 0.73636 0.75102 0.86882 0.0
C716 C 0.78696 0.80815 0.83831 0.0
C717 C 0.74921 0.84962 0.81245 0.0
C718 C 0.75556 0.8342 0.82579 0.0
C719 C 0.76729 0.78001 0.8628 0.0
C720 C 0.76431 0.80018 0.85036 0.0
H721 H 0.68022 0.84267 0.79206 0.0
H722 H 0.69112 0.82032 0.81439 0.0
H723 H 0.79962 0.82923 0.81688 0.0
H724 H 0.83032 0.77482 0.88321 0.0
H725 H 0.82535 0.81089 0.864 0.0
C726 C 0.85767 0.67158 0.96778 0.0
C727 C 0.85945 0.69648 0.95753 0.0
C728 C 0.87915 0.68309 0.98012 0.0
C729 C 0.9355 0.76286 1.0029 0.0
H730 H 0.98231 0.70898 1.0133 0.0
C731 C 0.0572 0.8176 0.04154 0.0
C732 C 0.0601 0.79334 0.05082 0.0
C733 C 0.02969 0.80541 0.03132 0.0
C734 C 0.96904 0.72403 1.01072 0.0
H735 H 0.88453 0.75316 0.95246 0.0
H736 H 0.92235 0.77325 0.97393 0.0
H737 H 0.94008 0.68867 0.99334 0.0
H738 H 0.0354 0.73734 0.057 0.0
H739 H 0.98718 0.71612 0.03927 0.0
H740 H 0.96499 0.79855 0.0202 0.0
C741 C 0.90404 0.7448 0.97249 0.0
C742 C 0.94479 0.71238 0.99924 0.0
C743 C 0.88247 0.73327 0.96014 0.0
C744 C 0.03408 0.75674 0.04997 0.0
C745 C 1.00656 0.74454 0.03974 0.0
C746 C 0.9598 0.77454 0.0144 0.0
C747 C 0.90305 0.7198 0.98252 0.0
C748 C 0.92784 0.73173 0.99512 0.0
C749 C 1.00439 0.76865 0.03012 0.0
C750 C 0.97704 0.75537 0.0184 0.0
H751 H 0.84004 0.64305 0.96618 0.0
H752 H 0.87719 0.66314 0.98774 0.0
H753 H 0.92257 0.77814 1.00014 0.0
H754 H 0.07676 0.84598 0.04188 0.0
H755 H 0.02908 0.82469 0.024 0.0
C756 C 0.16414 0.87171 0.12493 0.0
C757 C 0.17765 0.84819 0.12304 0.0
C758 C 0.17448 0.89481 0.13684 0.0
C759 C 0.21824 0.91273 0.17291 0.0
H760 H 0.24675 0.01157 0.16422 0.0
C761 C 0.27571 0.02672 0.21608 0.0
C762 C 0.30584 0.05904 0.21166 0.0
C763 C 0.25616 0.9993 0.20606 0.0
C764 C 0.23893 0.98408 0.16684 0.0
H765 H 0.21144 0.82951 0.13254 0.0
H766 H 0.22963 0.86988 0.15316 0.0
H767 H 0.2189 0.96599 0.14556 0.0
H768 H 0.33915 0.08766 0.19324 0.0
H769 H 0.30541 0.04013 0.17595 0.0
H770 H 0.23955 0.93129 0.19408 0.0
C771 C 0.21084 0.87034 0.14553 0.0
C772 C 0.22254 0.95783 0.15618 0.0
C773 C 0.20057 0.84732 0.13362 0.0
C774 C 0.31604 0.06322 0.19705 0.0
C775 C 0.2965 0.03602 0.18708 0.0
C776 C 0.23457 0.93904 0.18361 0.0
C777 C 0.19847 0.89486 0.14715 0.0
C778 C 0.21255 0.92193 0.15899 0.0
C779 C 0.26622 1.0038 0.19142 0.0
C780 C 0.24576 0.97515 0.1806 0.0
H781 H 0.14632 0.87298 0.11702 0.0
H782 H 0.16406 0.91302 0.13786 0.0
H783 H 0.21051 0.88525 0.17549 0.0
H784 H 0.26713 0.02266 0.22725 0.0
H785 H 0.23288 0.97483 0.20973 0.0
C786 C 0.35216 0.19168 0.30089 0.0
C787 C 0.32963 0.16696 0.29046 0.0
C788 C 0.33773 0.19911 0.31307 0.0
C789 C 0.25541 0.19686 0.32572 0.0
H790 H 0.30102 0.21423 0.36321 0.0
C791 C 0.19781 0.23302 0.37507 0.0
C792 C 0.22265 0.26118 0.38384 0.0
C793 C 0.20944 0.21745 0.36468 0.0
C794 C 0.2881 0.20972 0.35279 0.0
H795 H 0.27415 0.12996 0.28485 0.0
H796 H 0.24893 0.14284 0.30616 0.0
H797 H 0.32371 0.19423 0.34319 0.0
H798 H 0.27924 0.29418 0.38888 0.0
H799 H 0.29955 0.26732 0.37067 0.0
H800 H 0.22028 0.21301 0.33519 0.0
C801 C 0.27782 0.15675 0.30483 0.0
C802 C 0.3011 0.19822 0.34131 0.0
C803 C 0.29228 0.14921 0.29266 0.0
C804 C 0.25934 0.27249 0.38233 0.0
C805 C 0.271 0.25696 0.37191 0.0
C806 C 0.24246 0.20841 0.33718 0.0
C807 C 0.30037 0.18209 0.31511 0.0
C808 C 0.28514 0.19199 0.3276 0.0
C809 C 0.24624 0.22967 0.36277 0.0
C810 C 0.25884 0.21533 0.35084 0.0
H811 H 0.38106 0.20585 0.29956 0.0
H812 H 0.3559 0.21907 0.32066 0.0
H813 H 0.24281 0.19288 0.31526 0.0
H814 H 0.16932 0.22347 0.376 0.0
H815 H 0.18956 0.19605 0.35803 0.0
C816 C 0.15895 0.36041 0.46078 0.0
C817 C 0.16513 0.33517 0.45361 0.0
C818 C 0.13713 0.35076 0.47302 0.0
C819 C 0.09739 0.28477 0.50245 0.0
H820 H 0.02779 0.31702 0.50322 0.0
C821 C 0.98444 0.23972 0.54598 0.0
C822 C 0.97492 0.26524 0.55028 0.0
C823 C 1.00937 0.24747 0.53482 0.0
C824 C 0.04738 0.30821 0.50333 0.0
H825 H 0.15404 0.28014 0.45401 0.0
H826 H 0.11579 0.26326 0.47555 0.0
H827 H 0.06785 0.33164 0.48268 0.0
H828 H 0.98572 0.31959 0.54686 0.0
H829 H 0.02963 0.33341 0.52782 0.0
H830 H 0.07693 0.26156 0.52325 0.0
C831 C 0.12799 0.29058 0.47162 0.0
C832 C 0.07031 0.31652 0.4915 0.0
C833 C 0.14977 0.30021 0.45926 0.0
C834 C 0.99209 0.29916 0.54369 0.0
C835 C 0.01711 0.30699 0.53267 0.0
C836 C 0.07448 0.27659 0.5144 0.0
C837 C 0.12095 0.31563 0.47848 0.0
C838 C 0.09585 0.30526 0.49096 0.0
C839 C 0.02541 0.28098 0.5278 0.0
C840 C 0.04944 0.28858 0.51505 0.0
H841 H 0.17049 0.38764 0.45681 0.0
H842 H 0.13276 0.37087 0.47819 0.0
H843 H 0.11689 0.27584 0.50237 0.0
H844 H 0.97159 0.21328 0.55083 0.0
H845 H 0.01499 0.22674 0.53132 0.0
C846 C 0.72837 0.01355 0.71966 0.0
C847 C 0.73567 0.98593 0.72292 0.0
C848 C 0.74729 0.03831 0.70872 0.0
C849 C 0.79816 0.04755 0.67536 0.0
H850 H 0.82253 0.14717 0.67795 0.0
C851 C 0.86608 0.14711 0.62799 0.0
C852 C 0.85146 0.16913 0.62479 0.0
C853 C 0.85676 0.12709 0.6408 0.0
C854 C 0.81574 0.11937 0.67702 0.0
H855 H 0.76967 0.96357 0.71754 0.0
H856 H 0.80288 1.00697 0.69856 0.0
H857 H 0.79772 0.10822 0.69894 0.0
H858 H 0.81633 0.18806 0.63274 0.0
H859 H 0.80002 0.1532 0.65486 0.0
H860 H 0.81551 0.05851 0.65335 0.0
C861 C 0.78212 0.00916 0.70433 0.0
C862 C 0.8015 0.09703 0.68906 0.0
C863 C 0.76322 0.98441 0.71529 0.0
C864 C 0.82812 0.17139 0.63484 0.0
C865 C 0.81893 0.15154 0.64761 0.0
C866 C 0.81241 0.0699 0.6633 0.0
C867 C 0.77401 0.03609 0.70075 0.0
C868 C 0.79198 0.06068 0.68833 0.0
C869 C 0.83278 0.12881 0.6507 0.0
C870 C 0.82083 0.10595 0.66391 0.0
H871 H 0.70731 0.01552 0.72529 0.0
H872 H 0.74003 0.05843 0.70618 0.0
H873 H 0.79073 0.0196 0.67433 0.0
H874 H 0.88419 0.14479 0.6205 0.0
H875 H 0.86823 0.11015 0.64291 0.0
loop_
_geom_bond_atom_site_label_1
_geom_bond_atom_site_label_2
_geom_bond_distance
_geom_bond_site_symmetry_2
_ccdc_geom_bond_type
Mg0 O7 2.141 . S
Mg0 O8 2.048 . S
Mg0 O9 2.048 . S
Mg0 O12 2.141 . S
C1 O2 1.313 . S
C1 O8 1.195 . S
O2 C1 1.313 . S
C3 O4 1.245 . S
C3 O12 1.289 . S
O4 C3 1.245 . S
C5 O6 1.245 . S
C5 O7 1.289 . S
O6 C5 1.245 . S
O7 Mg0 2.141 . S
O7 C5 1.289 . S
O8 Mg0 2.048 . S
O8 C1 1.195 . S
O9 Mg0 2.048 . S
O9 C10 1.195 . S
C10 O9 1.195 . S
C10 O11 1.313 . S
O11 C10 1.313 . S
O12 Mg0 2.141 . S
O12 C3 1.289 . S
Mg13 O20 2.141 . S
Mg13 O21 2.048 . S
Mg13 O22 2.048 . S
Mg13 O25 2.141 . S
C14 O15 1.313 . S
C14 O21 1.195 . S
O15 C14 1.313 . S
C16 O17 1.245 . S
C16 O25 1.289 . S
O17 C16 1.245 . S
C18 O19 1.245 . S
C18 O20 1.289 . S
O19 C18 1.245 . S
O20 Mg13 2.141 . S
O20 C18 1.289 . S
O21 Mg13 2.048 . S
O21 C14 1.195 . S
O22 Mg13 2.048 . S
O22 C23 1.195 . S
C23 O22 1.195 . S
C23 O24 1.313 . S
O24 C23 1.313 . S
O25 Mg13 2.141 . S
O25 C16 1.289 . S
Mg26 O33 2.141 . S
Mg26 O34 2.048 . S
Mg26 O35 2.048 . S
Mg26 O38 2.141 . S
C27 O28 1.313 . S
C27 O34 1.195 . S
O28 C27 1.313 . S
C29 O30 1.245 . S
C29 O38 1.289 . S
O30 C29 1.245 . S
C31 O32 1.245 . S
C31 O33 1.289 . S
O32 C31 1.245 . S
O33 Mg26 2.141 . S
O33 C31 1.289 . S
O34 Mg26 2.048 . S
O34 C27 1.195 . S
O35 Mg26 2.048 . S
O35 C36 1.195 . S
C36 O35 1.195 . S
C36 O37 1.313 . S
O37 C36 1.313 . S
O38 Mg26 2.141 . S
O38 C29 1.289 . S
Mg39 O46 2.141 . S
Mg39 O47 2.048 . S
Mg39 O48 2.048 . S
Mg39 O51 2.141 . S
C40 O41 1.313 . S
C40 O47 1.195 . S
O41 C40 1.313 . S
C42 O43 1.245 . S
C42 O51 1.289 . S
O43 C42 1.245 . S
C44 O45 1.245 . S
C44 O46 1.289 . S
O45 C44 1.245 . S
O46 Mg39 2.141 . S
O46 C44 1.289 . S
O47 Mg39 2.048 . S
O47 C40 1.195 . S
O48 Mg39 2.048 . S
O48 C49 1.195 . S
C49 O48 1.195 . S
C49 O50 1.313 . S
O50 C49 1.313 . S
O51 Mg39 2.141 . S
O51 C42 1.289 . S
Mg52 O59 2.141 . S
Mg52 O60 2.048 . S
Mg52 O61 2.048 . S
Mg52 O64 2.141 . S
C53 O54 1.313 . S
C53 O60 1.195 . S
O54 C53 1.313 . S
C55 O56 1.245 . S
C55 O64 1.289 . S
O56 C55 1.245 . S
C57 O58 1.245 . S
C57 O59 1.289 . S
O58 C57 1.245 . S
O59 Mg52 2.141 . S
O59 C57 1.289 . S
O60 Mg52 2.048 . S
O60 C53 1.195 . S
O61 Mg52 2.048 . S
O61 C62 1.195 . S
C62 O61 1.195 . S
C62 O63 1.313 . S
O63 C62 1.313 . S
O64 Mg52 2.141 . S
O64 C55 1.289 . S
Mg65 O72 2.141 . S
Mg65 O73 2.048 . S
Mg65 O74 2.048 . S
Mg65 O77 2.141 . S
C66 O67 1.313 . S
C66 O73 1.195 . S
O67 C66 1.313 . S
C68 O69 1.245 . S
C68 O77 1.289 . S
O69 C68 1.245 . S
C70 O71 1.245 . S
C70 O72 1.289 . S
O71 C70 1.245 . S
O72 Mg65 2.141 . S
O72 C70 1.289 . S
O73 Mg65 2.048 . S
O73 C66 1.195 . S
O74 Mg65 2.048 . S
O74 C75 1.195 . S
C75 O74 1.195 . S
C75 O76 1.313 . S
O76 C75 1.313 . S
O77 Mg65 2.141 . S
O77 C68 1.289 . S
Mg78 O85 2.141 . S
Mg78 O86 2.048 . S
Mg78 O87 2.048 . S
Mg78 O90 2.141 . S
C79 O80 1.313 . S
C79 O86 1.195 . S
O80 C79 1.313 . S
C81 O82 1.245 . S
C81 O90 1.289 . S
O82 C81 1.245 . S
C83 O84 1.245 . S
C83 O85 1.289 . S
O84 C83 1.245 . S
O85 Mg78 2.141 . S
O85 C83 1.289 . S
O86 Mg78 2.048 . S
O86 C79 1.195 . S
O87 Mg78 2.048 . S
O87 C88 1.195 . S
C88 O87 1.195 . S
C88 O89 1.313 . S
O89 C88 1.313 . S
O90 Mg78 2.141 . S
O90 C81 1.289 . S
Mg91 O98 2.141 . S
Mg91 O99 2.048 . S
Mg91 O100 2.048 . S
Mg91 O103 2.141 . S
C92 O93 1.313 . S
C92 O99 1.195 . S
O93 C92 1.313 . S
C94 O95 1.245 . S
C94 O103 1.289 . S
O95 C94 1.245 . S
C96 O97 1.245 . S
C96 O98 1.289 . S
O97 C96 1.245 . S
O98 Mg91 2.141 . S
O98 C96 1.289 . S
O99 Mg91 2.048 . S
O99 C92 1.195 . S
O100 Mg91 2.048 . S
O100 C101 1.195 . S
C101 O100 1.195 . S
C101 O102 1.313 . S
O102 C101 1.313 . S
O103 Mg91 2.141 . S
O103 C94 1.289 . S
Mg104 O111 2.141 . S
Mg104 O112 2.048 . S
Mg104 O113 2.048 . S
Mg104 O116 2.141 . S
C105 O106 1.313 . S
C105 O112 1.195 . S
O106 C105 1.313 . S
C107 O108 1.245 . S
C107 O116 1.289 . S
O108 C107 1.245 . S
C109 O110 1.245 . S
C109 O111 1.289 . S
O110 C109 1.245 . S
O111 Mg104 2.141 . S
O111 C109 1.289 . S
O112 Mg104 2.048 . S
O112 C105 1.195 . S
O113 Mg104 2.048 . S
O113 C114 1.195 . S
C114 O113 1.195 . S
C114 O115 1.313 . S
O115 C114 1.313 . S
O116 Mg104 2.141 . S
O116 C107 1.289 . S
Mg117 O124 2.141 . S
Mg117 O125 2.048 . S
Mg117 O126 2.048 . S
Mg117 O129 2.141 . S
C118 O119 1.313 . S
C118 O125 1.195 . S
O119 C118 1.313 . S
C120 O121 1.245 . S
C120 O129 1.289 . S
O121 C120 1.245 . S
C122 O123 1.245 . S
C122 O124 1.289 . S
O123 C122 1.245 . S
O124 Mg117 2.141 . S
O124 C122 1.289 . S
O125 Mg117 2.048 . S
O125 C118 1.195 . S
O126 Mg117 2.048 . S
O126 C127 1.195 . S
C127 O126 1.195 . S
C127 O128 1.313 . S
O128 C127 1.313 . S
O129 Mg117 2.141 . S
O129 C120 1.289 . S
Mg130 O137 2.141 . S
Mg130 O138 2.048 . S
Mg130 O139 2.048 . S
Mg130 O142 2.141 . S
C131 O132 1.313 . S
C131 O138 1.195 . S
O132 C131 1.313 . S
C133 O134 1.245 . S
C133 O142 1.289 . S
O134 C133 1.245 . S
C135 O136 1.245 . S
C135 O137 1.289 . S
O136 C135 1.245 . S
O137 Mg130 2.141 . S
O137 C135 1.289 . S
O138 Mg130 2.048 . S
O138 C131 1.195 . S
O139 Mg130 2.048 . S
O139 C140 1.195 . S
C140 O139 1.195 . S
C140 O141 1.313 . S
O141 C140 1.313 . S
O142 Mg130 2.141 . S
O142 C133 1.289 . S
Mg143 O150 2.141 . S
Mg143 O151 2.048 . S
Mg143 O152 2.048 . S
Mg143 O155 2.141 . S
C144 O145 1.313 . S
C144 O151 1.195 . S
O145 C144 1.313 . S
C146 O147 1.245 . S
C146 O155 1.289 . S
O147 C146 1.245 . S
C148 O149 1.245 . S
C148 O150 1.289 . S
O149 C148 1.245 . S
O150 Mg143 2.141 . S
O150 C148 1.289 . S
O151 Mg143 2.048 . S
O151 C144 1.195 . S
O152 Mg143 2.048 . S
O152 C153 1.195 . S
C153 O152 1.195 . S
C153 O154 1.313 . S
O154 C153 1.313 . S
O155 Mg143 2.141 . S
O155 C146 1.289 . S
C156 C157 1.349 . S
C156 C158 1.327 . S
C156 H181 0.950 . S
C157 C156 1.349 . S
C157 C173 1.349 . S
C158 C156 1.327 . S
C158 C177 1.429 . S
C158 H182 0.950 . S
C159 C176 1.574 . S
C159 C178 1.368 . S
C159 H183 0.949 . S
H160 C164 0.949 . S
C161 C162 1.349 . S
C161 C163 1.327 . S
C161 H184 0.950 . S
C162 C161 1.349 . S
C162 C174 1.349 . S
C163 C161 1.327 . S
C163 C179 1.429 . S
C163 H185 0.950 . S
C164 H160 0.949 . S
C164 C172 1.574 . S
C164 C180 1.368 . S
H165 C173 0.950 . S
H166 C171 0.950 . S
H167 C172 0.949 . S
H168 C174 0.950 . S
H169 C175 0.950 . S
H170 C176 0.949 . S
C171 H166 0.950 . S
C171 C173 1.327 . S
C171 C177 1.429 . S
C172 C164 1.574 . S
C172 H167 0.949 . S
C172 C178 1.368 . S
C173 C157 1.349 . S
C173 H165 0.950 . S
C173 C171 1.327 . S
C174 C162 1.349 . S
C174 H168 0.950 . S
C174 C175 1.327 . S
C175 H169 0.950 . S
C175 C174 1.327 . S
C175 C179 1.429 . S
C176 C159 1.574 . S
C176 H170 0.949 . S
C176 C180 1.368 . S
C177 C158 1.429 . S
C177 C171 1.429 . S
C177 C178 1.523 . S
C178 C159 1.368 . S
C178 C172 1.368 . S
C178 C177 1.523 . S
C179 C163 1.429 . S
C179 C175 1.429 . S
C179 C180 1.523 . S
C180 C164 1.368 . S
C180 C176 1.368 . S
C180 C179 1.523 . S
H181 C156 0.950 . S
H182 C158 0.950 . S
H183 C159 0.949 . S
H184 C161 0.950 . S
H185 C163 0.950 . S
C186 C187 1.349 . S
C186 C188 1.327 . S
C186 H211 0.950 . S
C187 C186 1.349 . S
C187 C203 1.349 . S
C188 C186 1.327 . S
C188 C207 1.429 . S
C188 H212 0.950 . S
C189 C206 1.574 . S
C189 C208 1.368 . S
C189 H213 0.949 . S
H190 C194 0.949 . S
C191 C192 1.349 . S
C191 C193 1.327 . S
C191 H214 0.950 . S
C192 C191 1.349 . S
C192 C204 1.349 . S
C193 C191 1.327 . S
C193 C209 1.429 . S
C193 H215 0.950 . S
C194 H190 0.949 . S
C194 C202 1.574 . S
C194 C210 1.368 . S
H195 C203 0.950 . S
H196 C201 0.950 . S
H197 C202 0.949 . S
H198 C204 0.950 . S
H199 C205 0.950 . S
H200 C206 0.949 . S
C201 H196 0.950 . S
C201 C203 1.327 . S
C201 C207 1.429 . S
C202 C194 1.574 . S
C202 H197 0.949 . S
C202 C208 1.368 . S
C203 C187 1.349 . S
C203 H195 0.950 . S
C203 C201 1.327 . S
C204 C192 1.349 . S
C204 H198 0.950 . S
C204 C205 1.327 . S
C205 H199 0.950 . S
C205 C204 1.327 . S
C205 C209 1.429 . S
C206 C189 1.574 . S
C206 H200 0.949 . S
C206 C210 1.368 . S
C207 C188 1.429 . S
C207 C201 1.429 . S
C207 C208 1.523 . S
C208 C189 1.368 . S
C208 C202 1.368 . S
C208 C207 1.523 . S
C209 C193 1.429 . S
C209 C205 1.429 . S
C209 C210 1.523 . S
C210 C194 1.368 . S
C210 C206 1.368 . S
C210 C209 1.523 . S
H211 C186 0.950 . S
H212 C188 0.950 . S
H213 C189 0.949 . S
H214 C191 0.950 . S
H215 C193 0.950 . S
C216 C217 1.349 . S
C216 C218 1.327 . S
C216 H241 0.950 . S
C217 C216 1.349 . S
C217 C233 1.349 . S
C218 C216 1.327 . S
C218 C237 1.429 . S
C218 H242 0.950 . S
C219 C236 1.574 . S
C219 C238 1.368 . S
C219 H243 0.949 . S
H220 C224 0.949 . S
C221 C222 1.349 . S
C221 C223 1.327 . S
C221 H244 0.950 . S
C222 C221 1.349 . S
C222 C234 1.349 . S
C223 C221 1.327 . S
C223 C239 1.429 . S
C223 H245 0.950 . S
C224 H220 0.949 . S
C224 C232 1.574 . S
C224 C240 1.368 . S
H225 C233 0.950 . S
H226 C231 0.950 . S
H227 C232 0.949 . S
H228 C234 0.950 . S
H229 C235 0.950 . S
H230 C236 0.949 . S
C231 H226 0.950 . S
C231 C233 1.327 . S
C231 C237 1.429 . S
C232 C224 1.574 . S
C232 H227 0.949 . S
C232 C238 1.368 . S
C233 C217 1.349 . S
C233 H225 0.950 . S
C233 C231 1.327 . S
C234 C222 1.349 . S
C234 H228 0.950 . S
C234 C235 1.327 . S
C235 H229 0.950 . S
C235 C234 1.327 . S
C235 C239 1.429 . S
C236 C219 1.574 . S
C236 H230 0.949 . S
C236 C240 1.368 . S
C237 C218 1.429 . S
C237 C231 1.429 . S
C237 C238 1.523 . S
C238 C219 1.368 . S
C238 C232 1.368 . S
C238 C237 1.523 . S
C239 C223 1.429 . S
C239 C235 1.429 . S
C239 C240 1.523 . S
C240 C224 1.368 . S
C240 C236 1.368 . S
C240 C239 1.523 . S
H241 C216 0.950 . S
H242 C218 0.950 . S
H243 C219 0.949 . S
H244 C221 0.950 . S
H245 C223 0.950 . S
C246 C247 1.349 . S
C246 C248 1.327 . S
C246 H271 0.950 . S
C247 C246 1.349 . S
C247 C263 1.349 . S
C248 C246 1.327 . S
C248 C267 1.429 . S
C248 H272 0.950 . S
C249 C266 1.574 . S
C249 C268 1.368 . S
C249 H273 0.949 . S
H250 C254 0.949 . S
C251 C252 1.349 . S
C251 C253 1.327 . S
C251 H274 0.950 . S
C252 C251 1.349 . S
C252 C264 1.349 . S
C253 C251 1.327 . S
C253 C269 1.429 . S
C253 H275 0.950 . S
C254 H250 0.949 . S
C254 C262 1.574 . S
C254 C270 1.368 . S
H255 C263 0.950 . S
H256 C261 0.950 . S
H257 C262 0.949 . S
H258 C264 0.950 . S
H259 C265 0.950 . S
H260 C266 0.949 . S
C261 H256 0.950 . S
C261 C263 1.327 . S
C261 C267 1.429 . S
C262 C254 1.574 . S
C262 H257 0.949 . S
C262 C268 1.368 . S
C263 C247 1.349 . S
C263 H255 0.950 . S
C263 C261 1.327 . S
C264 C252 1.349 . S
C264 H258 0.950 . S
C264 C265 1.327 . S
C265 H259 0.950 . S
C265 C264 1.327 . S
C265 C269 1.429 . S
C266 C249 1.574 . S
C266 H260 0.949 . S
C266 C270 1.368 . S
C267 C248 1.429 . S
C267 C261 1.429 . S
C267 C268 1.523 . S
C268 C249 1.368 . S
C268 C262 1.368 . S
C268 C267 1.523 . S
C269 C253 1.429 . S
C269 C265 1.429 . S
C269 C270 1.523 . S
C270 C254 1.368 . S
C270 C266 1.368 . S
C270 C269 1.523 . S
H271 C246 0.950 . S
H272 C248 0.950 . S
H273 C249 0.949 . S
H274 C251 0.950 . S
H275 C253 0.950 . S
C276 C277 1.349 . S
C276 C278 1.327 . S
C276 H301 0.950 . S
C277 C276 1.349 . S
C277 C293 1.349 . S
C278 C276 1.327 . S
C278 C297 1.429 . S
C278 H302 0.950 . S
C279 C296 1.574 . S
C279 C298 1.368 . S
C279 H303 0.949 . S
H280 C284 0.949 . S
C281 C282 1.349 . S
C281 C283 1.327 . S
C281 H304 0.950 . S
C282 C281 1.349 . S
C282 C294 1.349 . S
C283 C281 1.327 . S
C283 C299 1.429 . S
C283 H305 0.950 . S
C284 H280 0.949 . S
C284 C292 1.574 . S
C284 C300 1.368 . S
H285 C293 0.950 . S
H286 C291 0.950 . S
H287 C292 0.949 . S
H288 C294 0.950 . S
H289 C295 0.950 . S
H290 C296 0.949 . S
C291 H286 0.950 . S
C291 C293 1.327 . S
C291 C297 1.429 . S
C292 C284 1.574 . S
C292 H287 0.949 . S
C292 C298 1.368 . S
C293 C277 1.349 . S
C293 H285 0.950 . S
C293 C291 1.327 . S
C294 C282 1.349 . S
C294 H288 0.950 . S
C294 C295 1.327 . S
C295 H289 0.950 . S
C295 C294 1.327 . S
C295 C299 1.429 . S
C296 C279 1.574 . S
C296 H290 0.949 . S
C296 C300 1.368 . S
C297 C278 1.429 . S
C297 C291 1.429 . S
C297 C298 1.523 . S
C298 C279 1.368 . S
C298 C292 1.368 . S
C298 C297 1.523 . S
C299 C283 1.429 . S
C299 C295 1.429 . S
C299 C300 1.523 . S
C300 C284 1.368 . S
C300 C296 1.368 . S
C300 C299 1.523 . S
H301 C276 0.950 . S
H302 C278 0.950 . S
H303 C279 0.949 . S
H304 C281 0.950 . S
H305 C283 0.950 . S
C306 C307 1.349 . S
C306 C308 1.327 . S
C306 H331 0.950 . S
C307 C306 1.349 . S
C307 C323 1.349 . S
C308 C306 1.327 . S
C308 C327 1.429 . S
C308 H332 0.950 . S
C309 C326 1.574 . S
C309 C328 1.368 . S
C309 H333 0.949 . S
H310 C314 0.949 . S
C311 C312 1.349 . S
C311 C313 1.327 . S
C311 H334 0.950 . S
C312 C311 1.349 . S
C312 C324 1.349 . S
C313 C311 1.327 . S
C313 C329 1.429 . S
C313 H335 0.950 . S
C314 H310 0.949 . S
C314 C322 1.574 . S
C314 C330 1.368 . S
H315 C323 0.950 . S
H316 C321 0.950 . S
H317 C322 0.949 . S
H318 C324 0.950 . S
H319 C325 0.950 . S
H320 C326 0.949 . S
C321 H316 0.950 . S
C321 C323 1.327 . S
C321 C327 1.429 . S
C322 C314 1.574 . S
C322 H317 0.949 . S
C322 C328 1.368 . S
C323 C307 1.349 . S
C323 H315 0.950 . S
C323 C321 1.327 . S
C324 C312 1.349 . S
C324 H318 0.950 . S
C324 C325 1.327 . S
C325 H319 0.950 . S
C325 C324 1.327 . S
C325 C329 1.429 . S
C326 C309 1.574 . S
C326 H320 0.949 . S
C326 C330 1.368 . S
C327 C308 1.429 . S
C327 C321 1.429 . S
C327 C328 1.523 . S
C328 C309 1.368 . S
C328 C322 1.368 . S
C328 C327 1.523 . S
C329 C313 1.429 . S
C329 C325 1.429 . S
C329 C330 1.523 . S
C330 C314 1.368 . S
C330 C326 1.368 . S
C330 C329 1.523 . S
H331 C306 0.950 . S
H332 C308 0.950 . S
H333 C309 0.949 . S
H334 C311 0.950 . S
H335 C313 0.950 . S
C336 C337 1.349 . S
C336 C338 1.327 . S
C336 H361 0.950 . S
C337 C336 1.349 . S
C337 C353 1.349 . S
C338 C336 1.327 . S
C338 C357 1.429 . S
C338 H362 0.950 . S
C339 C356 1.574 . S
C339 C358 1.368 . S
C339 H363 0.949 . S
H340 C344 0.949 . S
C341 C342 1.349 . S
C341 C343 1.327 . S
C341 H364 0.950 . S
C342 C341 1.349 . S
C342 C354 1.349 . S
C343 C341 1.327 . S
C343 C359 1.429 . S
C343 H365 0.950 . S
C344 H340 0.949 . S
C344 C352 1.574 . S
C344 C360 1.368 . S
H345 C353 0.950 . S
H346 C351 0.950 . S
H347 C352 0.949 . S
H348 C354 0.950 . S
H349 C355 0.950 . S
H350 C356 0.949 . S
C351 H346 0.950 . S
C351 C353 1.327 . S
C351 C357 1.429 . S
C352 C344 1.574 . S
C352 H347 0.949 . S
C352 C358 1.368 . S
C353 C337 1.349 . S
C353 H345 0.950 . S
C353 C351 1.327 . S
C354 C342 1.349 . S
C354 H348 0.950 . S
C354 C355 1.327 . S
C355 H349 0.950 . S
C355 C354 1.327 . S
C355 C359 1.429 . S
C356 C339 1.574 . S
C356 H350 0.949 . S
C356 C360 1.368 . S
C357 C338 1.429 . S
C357 C351 1.429 . S
C357 C358 1.523 . S
C358 C339 1.368 . S
C358 C352 1.368 . S
C358 C357 1.523 . S
C359 C343 1.429 . S
C359 C355 1.429 . S
C359 C360 1.523 . S
C360 C344 1.368 . S
C360 C356 1.368 . S
C360 C359 1.523 . S
H361 C336 0.950 . S
H362 C338 0.950 . S
H363 C339 0.949 . S
H364 C341 0.950 . S
H365 C343 0.950 . S
C366 C367 1.349 . S
C366 C368 1.327 . S
C366 H391 0.950 . S
C367 C366 1.349 . S
C367 C383 1.349 . S
C368 C366 1.327 . S
C368 C387 1.429 . S
C368 H392 0.950 . S
C369 C386 1.574 1_655 S
C369 C388 1.368 . S
C369 H393 0.949 . S
H370 C374 0.949 . S
C371 C372 1.349 . S
C371 C373 1.327 . S
C371 H394 0.950 . S
C372 C371 1.349 . S
C372 C384 1.349 . S
C373 C371 1.327 . S
C373 C389 1.429 . S
C373 H395 0.950 . S
C374 H370 0.949 . S
C374 C382 1.574 1_455 S
C374 C390 1.368 . S
H375 C383 0.950 . S
H376 C381 0.950 . S
H377 C382 0.949 . S
H378 C384 0.950 . S
H379 C385 0.950 . S
H380 C386 0.949 . S
C381 H376 0.950 . S
C381 C383 1.327 . S
C381 C387 1.429 . S
C382 C374 1.574 1_655 S
C382 H377 0.949 . S
C382 C388 1.368 . S
C383 C367 1.349 . S
C383 H375 0.950 . S
C383 C381 1.327 . S
C384 C372 1.349 . S
C384 H378 0.950 . S
C384 C385 1.327 . S
C385 H379 0.950 . S
C385 C384 1.327 . S
C385 C389 1.429 . S
C386 C369 1.574 1_455 S
C386 H380 0.949 . S
C386 C390 1.368 . S
C387 C368 1.429 . S
C387 C381 1.429 . S
C387 C388 1.523 . S
C388 C369 1.368 . S
C388 C382 1.368 . S
C388 C387 1.523 . S
C389 C373 1.429 . S
C389 C385 1.429 . S
C389 C390 1.523 . S
C390 C374 1.368 . S
C390 C386 1.368 . S
C390 C389 1.523 . S
H391 C366 0.950 . S
H392 C368 0.950 . S
H393 C369 0.949 . S
H394 C371 0.950 . S
H395 C373 0.950 . S
C396 C397 1.349 . S
C396 C398 1.327 . S
C396 H421 0.950 . S
C397 C396 1.349 . S
C397 C413 1.349 . S
C398 C396 1.327 . S
C398 C417 1.429 . S
C398 H422 0.950 . S
C399 C416 1.574 1_545 S
C399 C418 1.368 . S
C399 H423 0.949 . S
H400 C404 0.949 . S
C401 C402 1.349 . S
C401 C403 1.327 . S
C401 H424 0.950 . S
C402 C401 1.349 . S
C402 C414 1.349 . S
C403 C401 1.327 . S
C403 C419 1.429 . S
C403 H425 0.950 . S
C404 H400 0.949 . S
C404 C412 1.574 1_565 S
C404 C420 1.368 . S
H405 C413 0.950 . S
H406 C411 0.950 . S
H407 C412 0.949 . S
H408 C414 0.950 . S
H409 C415 0.950 . S
H410 C416 0.949 . S
C411 H406 0.950 . S
C411 C413 1.327 . S
C411 C417 1.429 . S
C412 C404 1.574 1_545 S
C412 H407 0.949 . S
C412 C418 1.368 . S
C413 C397 1.349 . S
C413 H405 0.950 . S
C413 C411 1.327 . S
C414 C402 1.349 . S
C414 H408 0.950 . S
C414 C415 1.327 . S
C415 H409 0.950 . S
C415 C414 1.327 . S
C415 C419 1.429 . S
C416 C399 1.574 1_565 S
C416 H410 0.949 . S
C416 C420 1.368 . S
C417 C398 1.429 . S
C417 C411 1.429 . S
C417 C418 1.523 . S
C418 C399 1.368 . S
C418 C412 1.368 . S
C418 C417 1.523 . S
C419 C403 1.429 . S
C419 C415 1.429 . S
C419 C420 1.523 . S
C420 C404 1.368 . S
C420 C416 1.368 . S
C420 C419 1.523 . S
H421 C396 0.950 . S
H422 C398 0.950 . S
H423 C399 0.949 . S
H424 C401 0.950 . S
H425 C403 0.950 . S
C426 C427 1.349 . S
C426 C428 1.327 . S
C426 H451 0.950 . S
C427 C426 1.349 . S
C427 C443 1.349 . S
C428 C426 1.327 . S
C428 C447 1.429 . S
C428 H452 0.950 . S
C429 C446 1.574 . S
C429 C448 1.368 . S
C429 H453 0.949 . S
H430 C434 0.949 . S
C431 C432 1.349 . S
C431 C433 1.327 . S
C431 H454 0.950 . S
C432 C431 1.349 . S
C432 C444 1.349 . S
C433 C431 1.327 . S
C433 C449 1.429 . S
C433 H455 0.950 . S
C434 H430 0.949 . S
C434 C442 1.574 . S
C434 C450 1.368 . S
H435 C443 0.950 . S
H436 C441 0.950 . S
H437 C442 0.949 . S
H438 C444 0.950 . S
H439 C445 0.950 . S
H440 C446 0.949 . S
C441 H436 0.950 . S
C441 C443 1.327 . S
C441 C447 1.429 . S
C442 C434 1.574 . S
C442 H437 0.949 . S
C442 C448 1.368 . S
C443 C427 1.349 . S
C443 H435 0.950 . S
C443 C441 1.327 . S
C444 C432 1.349 . S
C444 H438 0.950 . S
C444 C445 1.327 . S
C445 H439 0.950 . S
C445 C444 1.327 . S
C445 C449 1.429 . S
C446 C429 1.574 . S
C446 H440 0.949 . S
C446 C450 1.368 . S
C447 C428 1.429 . S
C447 C441 1.429 . S
C447 C448 1.523 . S
C448 C429 1.368 . S
C448 C442 1.368 . S
C448 C447 1.523 . S
C449 C433 1.429 . S
C449 C445 1.429 . S
C449 C450 1.523 . S
C450 C434 1.368 . S
C450 C446 1.368 . S
C450 C449 1.523 . S
H451 C426 0.950 . S
H452 C428 0.950 . S
H453 C429 0.949 . S
H454 C431 0.950 . S
H455 C433 0.950 . S
C456 C457 1.349 . S
C456 C458 1.327 . S
C456 H481 0.950 . S
C457 C456 1.349 . S
C457 C473 1.349 . S
C458 C456 1.327 . S
C458 C477 1.429 . S
C458 H482 0.950 . S
C459 C476 1.574 . S
C459 C478 1.368 1_455 S
C459 H483 0.949 . S
H460 C464 0.949 . S
C461 C462 1.349 . S
C461 C463 1.327 . S
C461 H484 0.950 . S
C462 C461 1.349 . S
C462 C474 1.349 . S
C463 C461 1.327 . S
C463 C479 1.429 . S
C463 H485 0.950 . S
C464 H460 0.949 . S
C464 C472 1.574 . S
C464 C480 1.368 1_655 S
H465 C473 0.950 . S
H466 C471 0.950 . S
H467 C472 0.949 . S
H468 C474 0.950 . S
H469 C475 0.950 . S
H470 C476 0.949 . S
C471 H466 0.950 . S
C471 C473 1.327 . S
C471 C477 1.429 . S
C472 C464 1.574 . S
C472 H467 0.949 . S
C472 C478 1.368 . S
C473 C457 1.349 . S
C473 H465 0.950 . S
C473 C471 1.327 . S
C474 C462 1.349 . S
C474 H468 0.950 . S
C474 C475 1.327 . S
C475 H469 0.950 . S
C475 C474 1.327 . S
C475 C479 1.429 . S
C476 C459 1.574 . S
C476 H470 0.949 . S
C476 C480 1.368 . S
C477 C458 1.429 . S
C477 C471 1.429 . S
C477 C478 1.523 . S
C478 C459 1.368 1_655 S
C478 C472 1.368 . S
C478 C477 1.523 . S
C479 C463 1.429 . S
C479 C475 1.429 . S
C479 C480 1.523 . S
C480 C464 1.368 1_455 S
C480 C476 1.368 . S
C480 C479 1.523 . S
H481 C456 0.950 . S
H482 C458 0.950 . S
H483 C459 0.949 . S
H484 C461 0.950 . S
H485 C463 0.950 . S
C486 C487 1.349 . S
C486 C488 1.327 . S
C486 H511 0.950 . S
C487 C486 1.349 . S
C487 C503 1.349 . S
C488 C486 1.327 . S
C488 C507 1.429 . S
C488 H512 0.950 . S
C489 C506 1.574 . S
C489 C508 1.368 1_545 S
C489 H513 0.949 . S
H490 C494 0.949 . S
C491 C492 1.349 . S
C491 C493 1.327 . S
C491 H514 0.950 . S
C492 C491 1.349 . S
C492 C504 1.349 . S
C493 C491 1.327 . S
C493 C509 1.429 . S
C493 H515 0.950 . S
C494 H490 0.949 . S
C494 C502 1.574 . S
C494 C510 1.368 1_565 S
H495 C503 0.950 . S
H496 C501 0.950 . S
H497 C502 0.949 . S
H498 C504 0.950 . S
H499 C505 0.950 . S
H500 C506 0.949 . S
C501 H496 0.950 . S
C501 C503 1.327 . S
C501 C507 1.429 . S
C502 C494 1.574 . S
C502 H497 0.949 . S
C502 C508 1.368 1_556 S
C503 C487 1.349 . S
C503 H495 0.950 . S
C503 C501 1.327 . S
C504 C492 1.349 . S
C504 H498 0.950 . S
C504 C505 1.327 . S
C505 H499 0.950 . S
C505 C504 1.327 . S
C505 C509 1.429 . S
C506 C489 1.574 . S
C506 H500 0.949 . S
C506 C510 1.368 1_554 S
C507 C488 1.429 . S
C507 C501 1.429 . S
C507 C508 1.523 . S
C508 C489 1.368 1_565 S
C508 C502 1.368 1_554 S
C508 C507 1.523 . S
C509 C493 1.429 . S
C509 C505 1.429 . S
C509 C510 1.523 . S
C510 C494 1.368 1_545 S
C510 C506 1.368 1_556 S
C510 C509 1.523 . S
H511 C486 0.950 . S
H512 C488 0.950 . S
H513 C489 0.949 . S
H514 C491 0.950 . S
H515 C493 0.950 . S
C516 C517 1.349 . S
C516 C518 1.327 . S
C516 H541 0.950 . S
C517 C516 1.349 . S
C517 C533 1.349 . S
C518 C516 1.327 . S
C518 C537 1.429 . S
C518 H542 0.950 . S
C519 C536 1.574 . S
C519 C538 1.368 . S
C519 H543 0.949 . S
H520 C524 0.949 . S
C521 C522 1.349 . S
C521 C523 1.293 1_556 S
C521 H544 0.950 . S
C522 C521 1.349 . S
C522 C534 1.349 . S
C523 C521 1.293 1_554 S
C523 C539 1.448 . S
C523 H545 0.967 . S
C524 H520 0.949 . S
C524 C532 1.574 . S
C524 C540 1.368 . S
H525 C533 0.950 . S
H526 C531 0.950 . S
H527 C532 0.949 . S
H528 C534 0.950 . S
H529 C535 0.956 . S
H530 C536 0.949 . S
C531 H526 0.950 . S
C531 C533 1.327 . S
C531 C537 1.429 . S
C532 C524 1.574 . S
C532 H527 0.949 . S
C532 C538 1.368 . S
C533 C517 1.349 . S
C533 H525 0.950 . S
C533 C531 1.327 . S
C534 C522 1.349 . S
C534 H528 0.950 . S
C534 C535 1.314 1_556 S
C535 H529 0.956 . S
C535 C534 1.314 1_554 S
C535 C539 1.436 . S
C536 C519 1.574 . S
C536 H530 0.949 . S
C536 C540 1.368 . S
C537 C518 1.429 . S
C537 C531 1.429 . S
C537 C538 1.523 . S
C538 C519 1.368 . S
C538 C532 1.368 . S
C538 C537 1.523 . S
C539 C523 1.448 . S
C539 C535 1.436 . S
C539 C540 1.523 . S
C540 C524 1.368 . S
C540 C536 1.368 . S
C540 C539 1.523 . S
H541 C516 0.950 . S
H542 C518 0.950 . S
H543 C519 0.949 . S
H544 C521 0.950 . S
H545 C523 0.967 . S
C546 C547 1.349 . S
C546 C548 1.327 . S
C546 H571 0.950 . S
C547 C546 1.349 . S
C547 C563 1.349 . S
C548 C546 1.327 . S
C548 C567 1.429 . S
C548 H572 0.950 . S
C549 C566 1.574 . S
C549 C568 1.368 . S
C549 H573 0.949 . S
H550 C554 0.949 . S
C551 C552 1.349 . S
C551 C553 1.327 . S
C551 H574 0.950 . S
C552 C551 1.349 . S
C552 C564 1.349 . S
C553 C551 1.327 . S
C553 C569 1.429 . S
C553 H575 0.950 . S
C554 H550 0.949 . S
C554 C562 1.574 . S
C554 C570 1.368 . S
H555 C563 0.950 . S
H556 C561 0.950 . S
H557 C562 0.949 . S
H558 C564 0.950 . S
H559 C565 0.950 . S
H560 C566 0.949 1_455 S
C561 H556 0.950 . S
C561 C563 1.327 . S
C561 C567 1.429 . S
C562 C554 1.574 . S
C562 H557 0.949 . S
C562 C568 1.368 . S
C563 C547 1.349 . S
C563 H555 0.950 . S
C563 C561 1.327 . S
C564 C552 1.349 . S
C564 H558 0.950 . S
C564 C565 1.327 1_455 S
C565 H559 0.950 . S
C565 C564 1.327 1_655 S
C565 C569 1.429 1_655 S
C566 C549 1.574 . S
C566 H560 0.949 1_655 S
C566 C570 1.368 . S
C567 C548 1.429 . S
C567 C561 1.429 . S
C567 C568 1.523 . S
C568 C549 1.368 . S
C568 C562 1.368 . S
C568 C567 1.523 . S
C569 C553 1.429 . S
C569 C565 1.429 1_455 S
C569 C570 1.523 1_455 S
C570 C554 1.368 . S
C570 C566 1.368 . S
C570 C569 1.523 1_655 S
H571 C546 0.950 . S
H572 C548 0.950 . S
H573 C549 0.949 . S
H574 C551 0.950 . S
H575 C553 0.950 . S
C576 C577 1.349 . S
C576 C578 1.327 . S
C576 H601 0.950 . S
C577 C576 1.349 . S
C577 C593 1.349 . S
C578 C576 1.327 . S
C578 C597 1.429 . S
C578 H602 0.950 . S
C579 C596 1.574 . S
C579 C598 1.368 . S
C579 H603 0.949 . S
H580 C584 0.949 . S
C581 C582 1.349 . S
C581 C583 1.327 . S
C581 H604 0.950 . S
C582 C581 1.349 . S
C582 C594 1.349 . S
C583 C581 1.327 . S
C583 C599 1.429 . S
C583 H605 0.950 . S
C584 H580 0.949 . S
C584 C592 1.574 . S
C584 C600 1.368 . S
H585 C593 0.950 . S
H586 C591 0.950 . S
H587 C592 0.949 1_545 S
H588 C594 0.950 . S
H589 C595 0.950 . S
H590 C596 0.949 . S
C591 H586 0.950 . S
C591 C593 1.327 1_565 S
C591 C597 1.429 1_565 S
C592 C584 1.574 . S
C592 H587 0.949 1_565 S
C592 C598 1.368 . S
C593 C577 1.349 . S
C593 H585 0.950 . S
C593 C591 1.327 1_545 S
C594 C582 1.349 . S
C594 H588 0.950 . S
C594 C595 1.327 . S
C595 H589 0.950 . S
C595 C594 1.327 . S
C595 C599 1.429 . S
C596 C579 1.574 . S
C596 H590 0.949 . S
C596 C600 1.368 . S
C597 C578 1.429 . S
C597 C591 1.429 1_545 S
C597 C598 1.523 1_545 S
C598 C579 1.368 . S
C598 C592 1.368 . S
C598 C597 1.523 1_565 S
C599 C583 1.429 . S
C599 C595 1.429 . S
C599 C600 1.523 . S
C600 C584 1.368 . S
C600 C596 1.368 . S
C600 C599 1.523 . S
H601 C576 0.950 . S
H602 C578 0.950 . S
H603 C579 0.949 . S
H604 C581 0.950 . S
H605 C583 0.950 . S
C606 C607 1.349 . S
C606 C608 1.327 . S
C606 H631 0.950 . S
C607 C606 1.349 . S
C607 C623 1.349 . S
C608 C606 1.327 . S
C608 C627 1.429 . S
C608 H632 0.950 . S
C609 C626 1.574 . S
C609 C628 1.368 . S
C609 H633 0.949 . S
H610 C614 0.949 . S
C611 C612 1.349 . S
C611 C613 1.327 . S
C611 H634 0.950 . S
C612 C611 1.349 . S
C612 C624 1.349 . S
C613 C611 1.327 . S
C613 C629 1.429 . S
C613 H635 0.950 . S
C614 H610 0.949 . S
C614 C622 1.574 . S
C614 C630 1.368 . S
H615 C623 0.950 . S
H616 C621 0.950 . S
H617 C622 0.949 . S
H618 C624 0.950 . S
H619 C625 0.950 . S
H620 C626 0.949 . S
C621 H616 0.950 . S
C621 C623 1.327 . S
C621 C627 1.429 . S
C622 C614 1.574 . S
C622 H617 0.949 . S
C622 C628 1.368 . S
C623 C607 1.349 . S
C623 H615 0.950 . S
C623 C621 1.327 . S
C624 C612 1.349 . S
C624 H618 0.950 . S
C624 C625 1.327 . S
C625 H619 0.950 . S
C625 C624 1.327 . S
C625 C629 1.429 . S
C626 C609 1.574 . S
C626 H620 0.949 . S
C626 C630 1.368 . S
C627 C608 1.429 . S
C627 C621 1.429 . S
C627 C628 1.523 . S
C628 C609 1.368 . S
C628 C622 1.368 . S
C628 C627 1.523 . S
C629 C613 1.429 . S
C629 C625 1.429 . S
C629 C630 1.523 . S
C630 C614 1.368 . S
C630 C626 1.368 . S
C630 C629 1.523 . S
H631 C606 0.950 . S
H632 C608 0.950 . S
H633 C609 0.949 . S
H634 C611 0.950 . S
H635 C613 0.950 . S
C636 C637 1.349 . S
C636 C638 1.327 . S
C636 H661 0.950 . S
C637 C636 1.349 . S
C637 C653 1.349 . S
C638 C636 1.327 . S
C638 C657 1.429 . S
C638 H662 0.950 . S
C639 C656 1.574 . S
C639 C658 1.368 . S
C639 H663 0.949 . S
H640 C644 0.949 1_655 S
C641 C642 1.349 . S
C641 C643 1.327 1_655 S
C641 H664 0.950 . S
C642 C641 1.349 . S
C642 C654 1.349 . S
C643 C641 1.327 1_455 S
C643 C659 1.429 1_455 S
C643 H665 0.950 . S
C644 H640 0.949 1_455 S
C644 C652 1.574 . S
C644 C660 1.368 . S
H645 C653 0.950 . S
H646 C651 0.950 . S
H647 C652 0.949 . S
H648 C654 0.950 . S
H649 C655 0.950 . S
H650 C656 0.949 . S
C651 H646 0.950 . S
C651 C653 1.327 . S
C651 C657 1.429 . S
C652 C644 1.574 . S
C652 H647 0.949 . S
C652 C658 1.368 . S
C653 C637 1.349 . S
C653 H645 0.950 . S
C653 C651 1.327 . S
C654 C642 1.349 . S
C654 H648 0.950 . S
C654 C655 1.327 . S
C655 H649 0.950 . S
C655 C654 1.327 . S
C655 C659 1.429 . S
C656 C639 1.574 . S
C656 H650 0.949 . S
C656 C660 1.368 . S
C657 C638 1.429 . S
C657 C651 1.429 . S
C657 C658 1.523 . S
C658 C639 1.368 . S
C658 C652 1.368 . S
C658 C657 1.523 . S
C659 C643 1.429 1_655 S
C659 C655 1.429 . S
C659 C660 1.523 1_655 S
C660 C644 1.368 . S
C660 C656 1.368 . S
C660 C659 1.523 1_455 S
H661 C636 0.950 . S
H662 C638 0.950 . S
H663 C639 0.949 . S
H664 C641 0.950 . S
H665 C643 0.950 . S
C666 C667 1.349 . S
C666 C668 1.327 . S
C666 H691 0.950 . S
C667 C666 1.349 . S
C667 C683 1.349 . S
C668 C666 1.327 . S
C668 C687 1.429 . S
C668 H692 0.950 . S
C669 C686 1.574 . S
C669 C688 1.368 . S
C669 H693 0.949 . S
H670 C674 0.949 . S
C671 C672 1.349 . S
C671 C673 1.327 . S
C671 H694 0.950 . S
C672 C671 1.349 . S
C672 C684 1.349 . S
C673 C671 1.327 . S
C673 C689 1.429 . S
C673 H695 0.950 1_565 S
C674 H670 0.949 . S
C674 C682 1.574 . S
C674 C690 1.368 . S
H675 C683 0.950 . S
H676 C681 0.950 . S
H677 C682 0.949 . S
H678 C684 0.950 . S
H679 C685 0.950 . S
H680 C686 0.949 . S
C681 H676 0.950 . S
C681 C683 1.327 . S
C681 C687 1.429 . S
C682 C674 1.574 . S
C682 H677 0.949 . S
C682 C688 1.368 . S
C683 C667 1.349 . S
C683 H675 0.950 . S
C683 C681 1.327 . S
C684 C672 1.349 . S
C684 H678 0.950 . S
C684 C685 1.327 . S
C685 H679 0.950 . S
C685 C684 1.327 . S
C685 C689 1.429 . S
C686 C669 1.574 . S
C686 H680 0.949 . S
C686 C690 1.368 . S
C687 C668 1.429 . S
C687 C681 1.429 . S
C687 C688 1.523 . S
C688 C669 1.368 . S
C688 C682 1.368 . S
C688 C687 1.523 . S
C689 C673 1.429 . S
C689 C685 1.429 . S
C689 C690 1.523 1_565 S
C690 C674 1.368 . S
C690 C686 1.368 . S
C690 C689 1.523 1_545 S
H691 C666 0.950 . S
H692 C668 0.950 . S
H693 C669 0.949 . S
H694 C671 0.950 . S
H695 C673 0.950 1_545 S
C696 C697 1.349 . S
C696 C698 1.327 . S
C696 H721 0.950 . S
C697 C696 1.349 . S
C697 C713 1.349 . S
C698 C696 1.327 . S
C698 C717 1.429 . S
C698 H722 0.950 . S
C699 C716 1.574 . S
C699 C718 1.368 . S
C699 H723 0.949 . S
H700 C704 0.949 . S
C701 C702 1.349 . S
C701 C703 1.327 . S
C701 H724 0.950 . S
C702 C701 1.349 . S
C702 C714 1.349 . S
C703 C701 1.327 . S
C703 C719 1.429 . S
C703 H725 0.950 . S
C704 H700 0.949 . S
C704 C712 1.574 . S
C704 C720 1.368 . S
H705 C713 0.950 . S
H706 C711 0.950 . S
H707 C712 0.949 . S
H708 C714 0.950 . S
H709 C715 0.950 . S
H710 C716 0.949 . S
C711 H706 0.950 . S
C711 C713 1.327 . S
C711 C717 1.429 . S
C712 C704 1.574 . S
C712 H707 0.949 . S
C712 C718 1.368 . S
C713 C697 1.349 . S
C713 H705 0.950 . S
C713 C711 1.327 . S
C714 C702 1.349 . S
C714 H708 0.950 . S
C714 C715 1.327 . S
C715 H709 0.950 . S
C715 C714 1.327 . S
C715 C719 1.429 . S
C716 C699 1.574 . S
C716 H710 0.949 . S
C716 C720 1.368 . S
C717 C698 1.429 . S
C717 C711 1.429 . S
C717 C718 1.523 . S
C718 C699 1.368 . S
C718 C712 1.368 . S
C718 C717 1.523 . S
C719 C703 1.429 . S
C719 C715 1.429 . S
C719 C720 1.523 . S
C720 C704 1.368 . S
C720 C716 1.368 . S
C720 C719 1.523 . S
H721 C696 0.950 . S
H722 C698 0.950 . S
H723 C699 0.949 . S
H724 C701 0.950 . S
H725 C703 0.950 . S
C726 C727 1.349 . S
C726 C728 1.327 . S
C726 H751 0.950 . S
C727 C726 1.349 . S
C727 C743 1.349 . S
C728 C726 1.327 . S
C728 C747 1.429 . S
C728 H752 0.950 . S
C729 C746 1.574 . S
C729 C748 1.368 . S
C729 H753 0.949 . S
H730 C734 0.949 . S
C731 C732 1.349 . S
C731 C733 1.327 . S
C731 H754 0.950 . S
C732 C731 1.349 . S
C732 C744 1.349 . S
C733 C731 1.327 . S
C733 C749 1.429 1_554 S
C733 H755 0.950 . S
C734 H730 0.949 . S
C734 C742 1.574 . S
C734 C750 1.368 . S
H735 C743 0.950 . S
H736 C741 0.950 . S
H737 C742 0.949 . S
H738 C744 0.950 . S
H739 C745 0.950 . S
H740 C746 0.949 . S
C741 H736 0.950 . S
C741 C743 1.327 . S
C741 C747 1.429 . S
C742 C734 1.574 . S
C742 H737 0.949 . S
C742 C748 1.368 . S
C743 C727 1.349 . S
C743 H735 0.950 . S
C743 C741 1.327 . S
C744 C732 1.349 . S
C744 H738 0.950 . S
C744 C745 1.327 1_554 S
C745 H739 0.950 . S
C745 C744 1.327 1_556 S
C745 C749 1.429 . S
C746 C729 1.574 . S
C746 H740 0.949 . S
C746 C750 1.368 . S
C747 C728 1.429 . S
C747 C741 1.429 . S
C747 C748 1.523 . S
C748 C729 1.368 . S
C748 C742 1.368 . S
C748 C747 1.523 . S
C749 C733 1.429 1_556 S
C749 C745 1.429 . S
C749 C750 1.523 1_455 S
C750 C734 1.368 . S
C750 C746 1.368 . S
C750 C749 1.523 1_655 S
H751 C726 0.950 . S
H752 C728 0.950 . S
H753 C729 0.949 . S
H754 C731 0.950 . S
H755 C733 0.950 . S
C756 C757 1.349 . S
C756 C758 1.327 . S
C756 H781 0.950 . S
C757 C756 1.349 . S
C757 C773 1.349 . S
C758 C756 1.327 . S
C758 C777 1.429 . S
C758 H782 0.950 . S
C759 C776 1.574 . S
C759 C778 1.368 . S
C759 H783 0.949 . S
H760 C764 0.949 . S
C761 C762 1.349 . S
C761 C763 1.327 . S
C761 H784 0.950 . S
C762 C761 1.349 . S
C762 C774 1.349 . S
C763 C761 1.327 . S
C763 C779 1.429 . S
C763 H785 0.949 . S
C764 H760 0.949 . S
C764 C772 1.574 . S
C764 C780 1.368 . S
H765 C773 0.950 . S
H766 C771 0.950 . S
H767 C772 0.949 . S
H768 C774 0.950 . S
H769 C775 0.950 . S
H770 C776 0.949 . S
C771 H766 0.950 . S
C771 C773 1.327 . S
C771 C777 1.429 . S
C772 C764 1.574 . S
C772 H767 0.949 . S
C772 C778 1.368 . S
C773 C757 1.349 . S
C773 H765 0.950 . S
C773 C771 1.327 . S
C774 C762 1.349 . S
C774 H768 0.950 . S
C774 C775 1.327 . S
C775 H769 0.950 . S
C775 C774 1.327 . S
C775 C779 1.429 . S
C776 C759 1.574 . S
C776 H770 0.949 . S
C776 C780 1.368 . S
C777 C758 1.429 . S
C777 C771 1.429 . S
C777 C778 1.523 . S
C778 C759 1.368 . S
C778 C772 1.368 . S
C778 C777 1.523 . S
C779 C763 1.429 . S
C779 C775 1.429 . S
C779 C780 1.523 1_545 S
C780 C764 1.368 . S
C780 C776 1.368 . S
C780 C779 1.523 1_565 S
H781 C756 0.950 . S
H782 C758 0.950 . S
H783 C759 0.949 . S
H784 C761 0.950 . S
H785 C763 0.949 . S
C786 C787 1.349 . S
C786 C788 1.327 . S
C786 H811 0.950 . S
C787 C786 1.349 . S
C787 C803 1.349 . S
C788 C786 1.327 . S
C788 C807 1.429 . S
C788 H812 0.950 . S
C789 C806 1.574 . S
C789 C808 1.368 . S
C789 H813 0.949 . S
H790 C794 0.949 . S
C791 C792 1.349 . S
C791 C793 1.327 . S
C791 H814 0.950 . S
C792 C791 1.349 . S
C792 C804 1.349 . S
C793 C791 1.327 . S
C793 C809 1.429 . S
C793 H815 0.950 . S
C794 H790 0.949 . S
C794 C802 1.574 . S
C794 C810 1.368 . S
H795 C803 0.950 . S
H796 C801 0.950 . S
H797 C802 0.949 . S
H798 C804 0.950 . S
H799 C805 0.950 . S
H800 C806 0.949 . S
C801 H796 0.950 . S
C801 C803 1.327 . S
C801 C807 1.429 . S
C802 C794 1.574 . S
C802 H797 0.949 . S
C802 C808 1.368 . S
C803 C787 1.349 . S
C803 H795 0.950 . S
C803 C801 1.327 . S
C804 C792 1.349 . S
C804 H798 0.950 . S
C804 C805 1.327 . S
C805 H799 0.950 . S
C805 C804 1.327 . S
C805 C809 1.429 . S
C806 C789 1.574 . S
C806 H800 0.949 . S
C806 C810 1.368 . S
C807 C788 1.429 . S
C807 C801 1.429 . S
C807 C808 1.523 . S
C808 C789 1.368 . S
C808 C802 1.368 . S
C808 C807 1.523 . S
C809 C793 1.429 . S
C809 C805 1.429 . S
C809 C810 1.523 . S
C810 C794 1.368 . S
C810 C806 1.368 . S
C810 C809 1.523 . S
H811 C786 0.950 . S
H812 C788 0.950 . S
H813 C789 0.949 . S
H814 C791 0.950 . S
H815 C793 0.950 . S
C816 C817 1.349 . S
C816 C818 1.327 . S
C816 H841 0.950 . S
C817 C816 1.349 . S
C817 C833 1.349 . S
C818 C816 1.327 . S
C818 C837 1.429 . S
C818 H842 0.950 . S
C819 C836 1.574 . S
C819 C838 1.368 . S
C819 H843 0.949 . S
H820 C824 0.949 . S
C821 C822 1.349 . S
C821 C823 1.327 . S
C821 H844 0.950 . S
C822 C821 1.349 . S
C822 C834 1.349 . S
C823 C821 1.327 . S
C823 C839 1.429 . S
C823 H845 0.950 . S
C824 H820 0.949 . S
C824 C832 1.574 . S
C824 C840 1.368 . S
H825 C833 0.950 . S
H826 C831 0.950 . S
H827 C832 0.949 . S
H828 C834 0.950 . S
H829 C835 0.950 . S
H830 C836 0.949 . S
C831 H826 0.950 . S
C831 C833 1.327 . S
C831 C837 1.429 . S
C832 C824 1.574 . S
C832 H827 0.949 . S
C832 C838 1.368 . S
C833 C817 1.349 . S
C833 H825 0.950 . S
C833 C831 1.327 . S
C834 C822 1.349 . S
C834 H828 0.950 . S
C834 C835 1.327 . S
C835 H829 0.950 . S
C835 C834 1.327 . S
C835 C839 1.429 . S
C836 C819 1.574 . S
C836 H830 0.949 . S
C836 C840 1.368 . S
C837 C818 1.429 . S
C837 C831 1.429 . S
C837 C838 1.523 . S
C838 C819 1.368 . S
C838 C832 1.368 . S
C838 C837 1.523 . S
C839 C823 1.429 . S
C839 C835 1.429 . S
C839 C840 1.523 1_655 S
C840 C824 1.368 . S
C840 C836 1.368 . S
C840 C839 1.523 1_455 S
H841 C816 0.950 . S
H842 C818 0.950 . S
H843 C819 0.949 . S
H844 C821 0.950 . S
H845 C823 0.950 . S
C846 C847 1.349 . S
C846 C848 1.327 1_565 S
C846 H871 0.950 . S
C847 C846 1.349 . S
C847 C863 1.349 . S
C848 C846 1.327 1_545 S
C848 C867 1.429 1_545 S
C848 H872 0.950 . S
C849 C866 1.574 . S
C849 C868 1.368 . S
C849 H873 0.949 1_545 S
H850 C854 0.949 . S
C851 C852 1.349 . S
C851 C853 1.327 . S
C851 H874 0.950 . S
C852 C851 1.349 . S
C852 C864 1.349 . S
C853 C851 1.327 . S
C853 C869 1.429 . S
C853 H875 0.950 . S
C854 H850 0.949 . S
C854 C862 1.574 . S
C854 C870 1.368 . S
H855 C863 0.950 . S
H856 C861 0.950 . S
H857 C862 0.949 . S
H858 C864 0.950 . S
H859 C865 0.950 . S
H860 C866 0.949 . S
C861 H856 0.950 . S
C861 C863 1.327 . S
C861 C867 1.429 . S
C862 C854 1.574 . S
C862 H857 0.949 . S
C862 C868 1.368 . S
C863 C847 1.349 . S
C863 H855 0.950 . S
C863 C861 1.327 . S
C864 C852 1.349 . S
C864 H858 0.950 . S
C864 C865 1.327 . S
C865 H859 0.950 . S
C865 C864 1.327 . S
C865 C869 1.429 . S
C866 C849 1.574 . S
C866 H860 0.949 . S
C866 C870 1.368 . S
C867 C848 1.429 1_565 S
C867 C861 1.429 . S
C867 C868 1.523 1_565 S
C868 C849 1.368 . S
C868 C862 1.368 . S
C868 C867 1.523 1_545 S
C869 C853 1.429 . S
C869 C865 1.429 . S
C869 C870 1.523 . S
C870 C854 1.368 . S
C870 C866 1.368 . S
C870 C869 1.523 . S
H871 C846 0.950 . S
H872 C848 0.950 . S
H873 C849 0.949 1_565 S
H874 C851 0.950 . S
H875 C853 0.950 . S
C157 C107 1.637 . S
C162 C5 1.570 . S
C187 C16 1.637 . S
C192 C120 1.637 . S
C217 C29 1.636 . S
C222 C135 1.570 . S
C247 C44 1.570 . S
C252 C146 1.637 . S
C277 C81 1.637 . S
C282 C55 1.637 . S
C307 C68 1.636 . S
C312 C96 1.570 . S
C337 C118 1.385 . S
C342 C10 1.351 . S
C367 C14 1.384 . S
C372 C140 1.350 . S
C397 C144 1.384 . S
C402 C27 1.384 . S
C427 C49 1.351 . S
C432 C79 1.385 . S
C457 C101 1.350 . S
C462 C53 1.384 . S
C487 C105 1.384 . S
C492 C66 1.384 . S
C517 C3 1.943 . S
C522 C75 1.883 . S
C547 C18 1.901 . S
C552 C1 1.929 . S
C577 C23 1.883 . S
C582 C31 1.901 . S
C607 C42 1.943 . S
C612 C36 1.883 . S
C637 C57 1.902 . S
C642 C40 1.930 . S
C667 C70 1.901 . S
C672 C62 1.883 . S
C697 C83 1.901 . S
C702 C92 1.929 . S
C727 C94 1.943 . S
C732 C114 1.883 . S
C757 C109 1.901 . S
C762 C127 1.883 . S
C787 C122 1.901 . S
C792 C131 1.930 . S
C817 C133 1.943 . S
C822 C153 1.883 . S
C847 C88 1.883 . S
C852 C148 1.901 . S
