# Generated by pormake.
# Topology tzs, (4)-cn, num edge types: 1
# Building blocks:
#     Node 0, Type 0, BuildingBlock: AZAVOO_clean_sbu_0, # of connection points: 4
#     Node 1, Type 0, BuildingBlock: AZAVOO_clean_sbu_0, # of connection points: 4
#     Node 2, Type 0, BuildingBlock: AZAVOO_clean_sbu_0, # of connection points: 4
#     Node 3, Type 0, BuildingBlock: AZAVOO_clean_sbu_0, # of connection points: 4
#     Node 4, Type 0, BuildingBlock: AZAVOO_clean_sbu_0, # of connection points: 4
#     Node 5, Type 0, BuildingBlock: AZAVOO_clean_sbu_0, # of connection points: 4
#     Node 6, Type 0, BuildingBlock: AZAVOO_clean_sbu_0, # of connection points: 4
#     Node 7, Type 0, BuildingBlock: AZAVOO_clean_sbu_0, # of connection points: 4
#     Node 8, Type 0, BuildingBlock: AZAVOO_clean_sbu_0, # of connection points: 4
#     Node 9, Type 0, BuildingBlock: AZAVOO_clean_sbu_0, # of connection points: 4
#     Node 10, Type 0, BuildingBlock: AZAVOO_clean_sbu_0, # of connection points: 4
#     Node 11, Type 0, BuildingBlock: AZAVOO_clean_sbu_0, # of connection points: 4
#     Node 12, Type 0, BuildingBlock: AZAVOO_clean_sbu_0, # of connection points: 4
#     Node 13, Type 0, BuildingBlock: AZAVOO_clean_sbu_0, # of connection points: 4
#     Node 14, Type 0, BuildingBlock: AZAVOO_clean_sbu_0, # of connection points: 4
#     Node 15, Type 0, BuildingBlock: AZAVOO_clean_sbu_0, # of connection points: 4
#     Edge 16, Type (0, 0), BuildingBlock: EZIPEK_clean_linker_0, # of connection points: 2
#     Edge 17, Type (0, 0), BuildingBlock: EZIPEK_clean_linker_0, # of connection points: 2
#     Edge 18, Type (0, 0), BuildingBlock: EZIPEK_clean_linker_0, # of connection points: 2
#     Edge 19, Type (0, 0), BuildingBlock: EZIPEK_clean_linker_0, # of connection points: 2
#     Edge 20, Type (0, 0), BuildingBlock: EZIPEK_clean_linker_0, # of connection points: 2
#     Edge 21, Type (0, 0), BuildingBlock: EZIPEK_clean_linker_0, # of connection points: 2
#     Edge 22, Type (0, 0), BuildingBlock: EZIPEK_clean_linker_0, # of connection points: 2
#     Edge 23, Type (0, 0), BuildingBlock: EZIPEK_clean_linker_0, # of connection points: 2
#     Edge 24, Type (0, 0), BuildingBlock: EZIPEK_clean_linker_0, # of connection points: 2
#     Edge 25, Type (0, 0), BuildingBlock: EZIPEK_clean_linker_0, # of connection points: 2
#     Edge 26, Type (0, 0), BuildingBlock: EZIPEK_clean_linker_0, # of connection points: 2
#     Edge 27, Type (0, 0), BuildingBlock: EZIPEK_clean_linker_0, # of connection points: 2
#     Edge 28, Type (0, 0), BuildingBlock: EZIPEK_clean_linker_0, # of connection points: 2
#     Edge 29, Type (0, 0), BuildingBlock: EZIPEK_clean_linker_0, # of connection points: 2
#     Edge 30, Type (0, 0), BuildingBlock: EZIPEK_clean_linker_0, # of connection points: 2
#     Edge 31, Type (0, 0), BuildingBlock: EZIPEK_clean_linker_0, # of connection points: 2
#     Edge 32, Type (0, 0), BuildingBlock: EZIPEK_clean_linker_0, # of connection points: 2
#     Edge 33, Type (0, 0), BuildingBlock: EZIPEK_clean_linker_0, # of connection points: 2
#     Edge 34, Type (0, 0), BuildingBlock: EZIPEK_clean_linker_0, # of connection points: 2
#     Edge 35, Type (0, 0), BuildingBlock: EZIPEK_clean_linker_0, # of connection points: 2
#     Edge 36, Type (0, 0), BuildingBlock: EZIPEK_clean_linker_0, # of connection points: 2
#     Edge 37, Type (0, 0), BuildingBlock: EZIPEK_clean_linker_0, # of connection points: 2
#     Edge 38, Type (0, 0), BuildingBlock: EZIPEK_clean_linker_0, # of connection points: 2
#     Edge 39, Type (0, 0), BuildingBlock: EZIPEK_clean_linker_0, # of connection points: 2
#     Edge 40, Type (0, 0), BuildingBlock: EZIPEK_clean_linker_0, # of connection points: 2
#     Edge 41, Type (0, 0), BuildingBlock: EZIPEK_clean_linker_0, # of connection points: 2
#     Edge 42, Type (0, 0), BuildingBlock: EZIPEK_clean_linker_0, # of connection points: 2
#     Edge 43, Type (0, 0), BuildingBlock: EZIPEK_clean_linker_0, # of connection points: 2
#     Edge 44, Type (0, 0), BuildingBlock: EZIPEK_clean_linker_0, # of connection points: 2
#     Edge 45, Type (0, 0), BuildingBlock: EZIPEK_clean_linker_0, # of connection points: 2
#     Edge 46, Type (0, 0), BuildingBlock: EZIPEK_clean_linker_0, # of connection points: 2
#     Edge 47, Type (0, 0), BuildingBlock: EZIPEK_clean_linker_0, # of connection points: 2
# Relax obj value: 0.114
# Max RMSD: 0.120
# Mean RMSD: 0.120
data_MOF--net-tzs--node1-AZAVOO_clean_sbu_0--edge1-EZIPEK_clean_linker_0
_symmetry_space_group_name_H-M    P1
_symmetry_Int_Tables_number       1
_symmetry_cell_setting            triclinic
loop_
_symmetry_equiv_pos_as_xyz
'x, y, z'
_cell_length_a     34.910669
_cell_length_b     34.97306
_cell_length_c     30.273753
_cell_angle_alpha  89.827587
_cell_angle_beta   89.979965
_cell_angle_gamma 90.147157
loop_
_atom_site_label
_atom_site_type_symbol
_atom_site_fract_x
_atom_site_fract_y
_atom_site_fract_z
_atom_type_partial_charge
Mg0 Mg 0.16134 0.36583 0.15739 0.0
O1 O 0.10091 0.35789 0.18613 0.0
O2 O 0.07454 0.30777 0.15208 0.0
Mg3 Mg 0.11643 0.28743 0.09833 0.0
C4 C 0.07332 0.33435 0.18087 0.0
C5 C 0.20291 0.42928 0.2019 0.0
O6 O 0.22407 0.42186 0.16707 0.0
O7 O 0.18299 0.31275 0.19307 0.0
O8 O 0.15831 0.26565 0.15163 0.0
O9 O 0.13977 0.40589 0.10672 0.0
O10 O 0.146 0.34339 0.09686 0.0
C11 C 0.17957 0.27738 0.18323 0.0
C12 C 0.13715 0.3765 0.08104 0.0
O13 O 0.17572 0.40671 0.21202 0.0
Mg14 Mg 0.64005 0.159 0.15957 0.0
O15 O 0.64472 0.09917 0.19112 0.0
O16 O 0.69726 0.07232 0.16263 0.0
Mg17 Mg 0.72171 0.1117 0.10856 0.0
C18 C 0.66872 0.07174 0.18903 0.0
C19 C 0.57512 0.20397 0.19586 0.0
O20 O 0.58557 0.22329 0.16054 0.0
O21 O 0.69121 0.18097 0.19848 0.0
O22 O 0.74036 0.15613 0.16038 0.0
O23 O 0.60338 0.13928 0.10405 0.0
O24 O 0.66664 0.14136 0.10297 0.0
C25 C 0.72703 0.17819 0.19028 0.0
C26 C 0.63501 0.13544 0.08225 0.0
O27 O 0.5958 0.17649 0.20931 0.0
Mg28 Mg 0.83224 0.63351 0.19176 0.0
O29 O 0.89576 0.64223 0.2097 0.0
O30 O 0.9205 0.68498 0.16275 0.0
Mg31 Mg 0.87559 0.6949 0.10784 0.0
C32 C 0.92335 0.66361 0.1969 0.0
C33 C 0.81245 0.58122 0.2764 0.0
O34 O 0.80494 0.57628 0.31853 0.0
O35 O 0.81848 0.69443 0.2114 0.0
O36 O 0.83998 0.7315 0.15619 0.0
O37 O 0.84511 0.58205 0.14959 0.0
O38 O 0.84396 0.64188 0.12596 0.0
C39 C 0.8219 0.72694 0.19255 0.0
C40 C 0.84865 0.60623 0.11736 0.0
O41 O 0.82046 0.6145 0.26235 0.0
Mg42 Mg 0.36664 0.83765 0.16784 0.0
O43 O 0.35921 0.89901 0.19384 0.0
O44 O 0.30852 0.92384 0.15919 0.0
Mg45 Mg 0.28754 0.88026 0.10766 0.0
C46 C 0.33548 0.92621 0.18755 0.0
C47 C 0.42929 0.79596 0.21337 0.0
O48 O 0.41974 0.77347 0.18045 0.0
O49 O 0.31385 0.81708 0.2054 0.0
O50 O 0.26631 0.83999 0.16319 0.0
O51 O 0.40638 0.85729 0.11568 0.0
O52 O 0.34362 0.85106 0.10681 0.0
C53 C 0.27832 0.81996 0.19576 0.0
C54 C 0.3767 0.85926 0.09022 0.0
O55 O 0.40832 0.82455 0.22228 0.0
Mg56 Mg 0.14968 0.6395 0.32756 0.0
O57 O 0.08958 0.64835 0.29798 0.0
O58 O 0.06537 0.70076 0.3293 0.0
Mg59 Mg 0.1086 0.72258 0.38084 0.0
C60 C 0.06285 0.67291 0.30228 0.0
C61 C 0.19329 0.57614 0.28647 0.0
O62 O 0.21438 0.58684 0.32021 0.0
O63 O 0.17417 0.68943 0.28846 0.0
O64 O 0.15173 0.73971 0.32615 0.0
O65 O 0.12621 0.60293 0.38049 0.0
O66 O 0.13531 0.6655 0.38655 0.0
C67 C 0.17255 0.72536 0.29564 0.0
C68 C 0.12501 0.63353 0.40438 0.0
O69 O 0.164 0.59567 0.27607 0.0
Mg70 Mg 0.36219 0.15411 0.3136 0.0
O71 O 0.35703 0.09272 0.28683 0.0
O72 O 0.30384 0.06788 0.31678 0.0
Mg73 Mg 0.27939 0.1103 0.3672 0.0
C74 C 0.33265 0.06563 0.29091 0.0
C75 C 0.42455 0.20021 0.27202 0.0
O76 O 0.41165 0.2225 0.30354 0.0
O77 O 0.31178 0.17395 0.27209 0.0
O78 O 0.26191 0.15182 0.31149 0.0
O79 O 0.39835 0.13705 0.37072 0.0
O80 O 0.33509 0.13917 0.37107 0.0
C81 C 0.27586 0.17184 0.27988 0.0
C82 C 0.36653 0.13389 0.39237 0.0
O83 O 0.40673 0.1695 0.26306 0.0
Mg84 Mg 0.84745 0.37489 0.30062 0.0
O85 O 0.90962 0.36438 0.28016 0.0
O86 O 0.93084 0.31322 0.31702 0.0
Mg87 Mg 0.88476 0.2964 0.3679 0.0
C88 C 0.93539 0.33954 0.28817 0.0
C89 C 0.80867 0.43112 0.23674 0.0
O90 O 0.77943 0.41788 0.25955 0.0
O91 O 0.82709 0.321 0.2649 0.0
O92 O 0.84547 0.27502 0.3123 0.0
O93 O 0.86319 0.41497 0.35548 0.0
O94 O 0.85677 0.35247 0.36253 0.0
C95 C 0.82742 0.2861 0.27783 0.0
C96 C 0.86297 0.38505 0.38074 0.0
O97 O 0.84074 0.41476 0.24206 0.0
Mg98 Mg 0.64526 0.84813 0.32723 0.0
O99 O 0.64649 0.90974 0.29985 0.0
O100 O 0.69937 0.93722 0.32679 0.0
Mg101 Mg 0.72697 0.89642 0.37691 0.0
C102 C 0.66982 0.93787 0.30201 0.0
C103 C 0.57938 0.80359 0.29155 0.0
O104 O 0.59038 0.78393 0.32634 0.0
O105 O 0.69544 0.83099 0.28358 0.0
O106 O 0.74516 0.85679 0.31988 0.0
O107 O 0.61026 0.86295 0.38585 0.0
O108 O 0.67357 0.86327 0.38422 0.0
C109 C 0.73145 0.83567 0.28924 0.0
C110 C 0.6424 0.86664 0.40669 0.0
O111 O 0.59958 0.83169 0.27846 0.0
Mg112 Mg 0.86162 0.63868 0.85768 0.0
O113 O 0.84959 0.58415 0.81771 0.0
O114 O 0.79605 0.55748 0.84401 0.0
Mg115 Mg 0.77368 0.59724 0.89848 0.0
C116 C 0.82439 0.55769 0.81744 0.0
C117 C 0.93055 0.68113 0.82444 0.0
O118 O 0.92263 0.69814 0.86198 0.0
O119 O 0.81602 0.67129 0.81998 0.0
O120 O 0.76225 0.64492 0.84651 0.0
O121 O 0.89329 0.60543 0.90752 0.0
O122 O 0.83175 0.62014 0.91349 0.0
C123 C 0.77956 0.66885 0.82134 0.0
C124 C 0.86212 0.60517 0.93068 0.0
O125 O 0.90829 0.65522 0.81009 0.0
Mg126 Mg 0.35276 0.86152 0.82321 0.0
O127 O 0.41301 0.8506 0.79565 0.0
O128 O 0.43366 0.79699 0.82819 0.0
Mg129 Mg 0.38895 0.77772 0.87996 0.0
C130 C 0.43816 0.82456 0.80088 0.0
C131 C 0.31004 0.92368 0.78006 0.0
O132 O 0.28785 0.91163 0.81233 0.0
O133 O 0.32882 0.812 0.78364 0.0
O134 O 0.34493 0.76182 0.82585 0.0
O135 O 0.37526 0.89814 0.87673 0.0
O136 O 0.36494 0.83581 0.88295 0.0
C137 C 0.32685 0.77645 0.79318 0.0
C138 C 0.37514 0.8676 0.90096 0.0
O139 O 0.34027 0.9052 0.7709 0.0
Mg140 Mg 0.13699 0.34811 0.81609 0.0
O141 O 0.14767 0.40848 0.788 0.0
O142 O 0.19922 0.43203 0.82225 0.0
Mg143 Mg 0.21778 0.38878 0.87552 0.0
C144 C 0.17253 0.43487 0.79361 0.0
C145 C 0.07442 0.30612 0.76966 0.0
O146 O 0.08325 0.28368 0.80301 0.0
O147 O 0.18905 0.3244 0.78023 0.0
O148 O 0.23743 0.34651 0.8218 0.0
O149 O 0.09806 0.3706 0.8674 0.0
O150 O 0.16047 0.3619 0.87644 0.0
C151 C 0.22464 0.32609 0.79005 0.0
C152 C 0.12785 0.37168 0.8928 0.0
O153 O 0.09531 0.33506 0.76144 0.0
Mg154 Mg 0.65956 0.13998 0.81335 0.0
O155 O 0.59841 0.1448 0.78539 0.0
O156 O 0.57318 0.19762 0.81504 0.0
Mg157 Mg 0.61503 0.22216 0.86622 0.0
C158 C 0.57125 0.16901 0.789 0.0
C159 C 0.70434 0.07613 0.77634 0.0
O160 O 0.72521 0.08905 0.80922 0.0
O161 O 0.67982 0.19051 0.77187 0.0
O162 O 0.6569 0.2399 0.81093 0.0
O163 O 0.6416 0.10362 0.87002 0.0
O164 O 0.64389 0.16677 0.87061 0.0
C165 C 0.67725 0.22634 0.77955 0.0
C166 C 0.6381 0.13525 0.89167 0.0
O167 O 0.67531 0.0951 0.76381 0.0
Mg168 Mg 0.86024 0.35434 0.64816 0.0
O169 O 0.85435 0.41229 0.68327 0.0
O170 O 0.79824 0.43641 0.6611 0.0
Mg171 Mg 0.77484 0.40025 0.60362 0.0
C172 C 0.82794 0.43741 0.68576 0.0
C173 C 0.92773 0.30924 0.68293 0.0
O174 O 0.91828 0.28988 0.64742 0.0
O175 O 0.81095 0.32956 0.68877 0.0
O176 O 0.75942 0.35273 0.65333 0.0
O177 O 0.89429 0.3772 0.59154 0.0
O178 O 0.83125 0.37419 0.59389 0.0
C179 C 0.77477 0.33086 0.68222 0.0
C180 C 0.8618 0.38136 0.57154 0.0
O181 O 0.90642 0.33641 0.69579 0.0
Mg182 Mg 0.66667 0.85437 0.67681 0.0
O183 O 0.60464 0.84785 0.70177 0.0
O184 O 0.58248 0.79328 0.67289 0.0
Mg185 Mg 0.6271 0.76981 0.62403 0.0
C186 C 0.57853 0.8224 0.69786 0.0
C187 C 0.70728 0.92101 0.71353 0.0
O188 O 0.72893 0.90903 0.68089 0.0
O189 O 0.68626 0.80547 0.7212 0.0
O190 O 0.66755 0.75442 0.68191 0.0
O191 O 0.64962 0.88953 0.61918 0.0
O192 O 0.65399 0.82651 0.61865 0.0
C193 C 0.68542 0.76944 0.71444 0.0
C194 C 0.64752 0.85785 0.59741 0.0
O195 O 0.67914 0.90058 0.72606 0.0
Mg196 Mg 0.13185 0.6592 0.67171 0.0
O197 O 0.1443 0.59777 0.69374 0.0
O198 O 0.19602 0.57803 0.65678 0.0
Mg199 Mg 0.21135 0.62468 0.6055 0.0
C200 C 0.16988 0.57274 0.68572 0.0
C201 C 0.07151 0.69665 0.7276 0.0
O202 O 0.07875 0.72287 0.69754 0.0
O203 O 0.18477 0.67999 0.70832 0.0
O204 O 0.23182 0.66495 0.66107 0.0
O205 O 0.09137 0.64011 0.61969 0.0
O206 O 0.15352 0.64964 0.60942 0.0
C207 C 0.2198 0.68139 0.69611 0.0
C208 C 0.12057 0.64053 0.59336 0.0
O209 O 0.09236 0.66702 0.72959 0.0
Mg210 Mg 0.34408 0.13932 0.66166 0.0
O211 O 0.40557 0.14484 0.6881 0.0
O212 O 0.4306 0.19751 0.65735 0.0
Mg213 Mg 0.3879 0.22126 0.60654 0.0
C214 C 0.43277 0.16904 0.68373 0.0
C215 C 0.30287 0.07334 0.70155 0.0
O216 O 0.2819 0.0826 0.66713 0.0
O217 O 0.32432 0.19013 0.7024 0.0
O218 O 0.34673 0.23937 0.66219 0.0
O219 O 0.36132 0.10265 0.60533 0.0
O220 O 0.35853 0.16579 0.6035 0.0
C221 C 0.32669 0.22591 0.69406 0.0
C222 C 0.36427 0.13412 0.583 0.0
O223 O 0.33018 0.09516 0.71311 0.0
C224 C 0.22726 0.22454 0.27806 0.0
C225 C 0.24979 0.19732 0.25492 0.0
C226 C 0.2285 0.22466 0.1846 0.0
C227 C 0.20282 0.24895 0.20776 0.0
N228 N 0.17172 0.26563 0.27616 0.0
N229 N 0.26608 0.16653 0.18633 0.0
C230 C 0.20039 0.24698 0.25441 0.0
C231 C 0.24868 0.19588 0.20818 0.0
N232 N 0.23291 0.2306 0.32219 0.0
N233 N 0.23526 0.23027 0.14056 0.0
H234 H 0.28058 0.14463 0.20266 0.0
H235 H 0.26291 0.16192 0.15255 0.0
H236 H 0.22231 0.25193 0.12219 0.0
H237 H 0.25663 0.21595 0.12326 0.0
H238 H 0.21999 0.25288 0.33939 0.0
H239 H 0.25349 0.21618 0.34074 0.0
H240 H 0.16632 0.26201 0.30977 0.0
H241 H 0.15088 0.28152 0.25978 0.0
C242 C 0.80538 0.2524 0.20899 0.0
C243 C 0.80245 0.25793 0.25518 0.0
C244 C 0.75415 0.20696 0.25946 0.0
C245 C 0.75381 0.2047 0.21278 0.0
N246 N 0.77277 0.23238 0.14261 0.0
N247 N 0.7669 0.24682 0.32277 0.0
C248 C 0.77774 0.22931 0.18729 0.0
C249 C 0.7749 0.23691 0.2801 0.0
N250 N 0.8351 0.26824 0.18592 0.0
N251 N 0.73553 0.17998 0.28422 0.0
H252 H 0.77972 0.26994 0.33867 0.0
H253 H 0.74442 0.23477 0.34074 0.0
H254 H 0.72074 0.15708 0.27023 0.0
H255 H 0.73807 0.17818 0.31846 0.0
H256 H 0.84071 0.26187 0.15294 0.0
H257 H 0.85635 0.28466 0.20089 0.0
H258 H 0.78692 0.25275 0.1234 0.0
H259 H 0.75158 0.21764 0.12534 0.0
C260 C 0.77423 0.78125 0.19255 0.0
C261 C 0.80355 0.76018 0.21415 0.0
C262 C 0.78602 0.78895 0.28465 0.0
C263 C 0.75826 0.812 0.26286 0.0
N264 N 0.73326 0.83706 0.19442 0.0
N265 N 0.84513 0.75373 0.27709 0.0
C266 C 0.75469 0.81039 0.2162 0.0
C267 C 0.81202 0.76736 0.25902 0.0
N268 N 0.76342 0.77216 0.15049 0.0
N269 N 0.78597 0.78514 0.32962 0.0
H270 H 0.86547 0.73918 0.25835 0.0
H271 H 0.85429 0.76083 0.3088 0.0
H272 H 0.76572 0.79782 0.35012 0.0
H273 H 0.80341 0.76569 0.34622 0.0
H274 H 0.73934 0.78377 0.13524 0.0
H275 H 0.77648 0.75074 0.13204 0.0
H276 H 0.73248 0.83936 0.16011 0.0
H277 H 0.71954 0.85938 0.21072 0.0
C278 C 0.24784 0.80083 0.26781 0.0
C279 C 0.25008 0.79701 0.22128 0.0
C280 C 0.19713 0.75077 0.22322 0.0
C281 C 0.1982 0.75107 0.27002 0.0
N282 N 0.23062 0.77065 0.33693 0.0
N283 N 0.23208 0.7622 0.1555 0.0
C284 C 0.22513 0.77463 0.29244 0.0
C285 C 0.22607 0.77038 0.1991 0.0
N286 N 0.26646 0.83017 0.28842 0.0
N287 N 0.16787 0.73268 0.20173 0.0
H288 H 0.25387 0.77469 0.1368 0.0
H289 H 0.21799 0.74013 0.13909 0.0
H290 H 0.14573 0.71871 0.21837 0.0
H291 H 0.16351 0.73485 0.16777 0.0
H292 H 0.26266 0.83662 0.32171 0.0
H293 H 0.28264 0.85042 0.27129 0.0
H294 H 0.25269 0.78429 0.35392 0.0
H295 H 0.21582 0.75078 0.35624 0.0
C296 C 0.70101 0.73863 0.78739 0.0
C297 C 0.70975 0.74439 0.74218 0.0
C298 C 0.76334 0.69944 0.74795 0.0
C299 C 0.75634 0.69567 0.79407 0.0
N300 N 0.72452 0.71958 0.85931 0.0
N301 N 0.75405 0.73711 0.6816 0.0
C302 C 0.72679 0.71745 0.81429 0.0
C303 C 0.7423 0.72673 0.72306 0.0
N304 N 0.66756 0.75245 0.80437 0.0
N305 N 0.78902 0.67605 0.72736 0.0
H306 H 0.73967 0.7572 0.66227 0.0
H307 H 0.78005 0.72855 0.66797 0.0
H308 H 0.80577 0.65615 0.74401 0.0
H309 H 0.79157 0.67421 0.69315 0.0
H310 H 0.65764 0.74565 0.8359 0.0
H311 H 0.64801 0.76793 0.78548 0.0
H312 H 0.70598 0.738 0.87574 0.0
H313 H 0.74396 0.70614 0.88034 0.0
C314 C 0.23729 0.74341 0.73277 0.0
C315 C 0.24712 0.70525 0.72169 0.0
C316 C 0.31147 0.71576 0.75186 0.0
C317 C 0.29977 0.75196 0.76806 0.0
N318 N 0.24731 0.79497 0.78416 0.0
N319 N 0.29115 0.65247 0.7296 0.0
C320 C 0.26146 0.76434 0.76149 0.0
C321 C 0.28358 0.6906 0.73376 0.0
N322 N 0.20594 0.76055 0.71438 0.0
N323 N 0.34932 0.70591 0.75212 0.0
H324 H 0.27092 0.6328 0.71831 0.0
H325 H 0.31602 0.63984 0.7418 0.0
H326 H 0.37083 0.72416 0.76344 0.0
H327 H 0.35968 0.68136 0.73683 0.0
H328 H 0.19995 0.78952 0.71845 0.0
H329 H 0.18847 0.74729 0.69105 0.0
H330 H 0.21847 0.80262 0.78331 0.0
H331 H 0.26303 0.80992 0.80776 0.0
C332 C 0.25356 0.30337 0.71889 0.0
C333 C 0.2519 0.3015 0.76561 0.0
C334 C 0.30348 0.25395 0.76557 0.0
C335 C 0.30174 0.25251 0.71886 0.0
N336 N 0.26836 0.26964 0.65158 0.0
N337 N 0.26967 0.26871 0.83306 0.0
C338 C 0.27497 0.27557 0.69556 0.0
C339 C 0.27541 0.27514 0.78898 0.0
N340 N 0.23569 0.33236 0.69676 0.0
N341 N 0.3325 0.23597 0.78758 0.0
H342 H 0.24835 0.28226 0.85129 0.0
H343 H 0.28341 0.247 0.85052 0.0
H344 H 0.35394 0.22076 0.7714 0.0
H345 H 0.33737 0.23932 0.8213 0.0
H346 H 0.23924 0.33725 0.66303 0.0
H347 H 0.2206 0.35386 0.71285 0.0
H348 H 0.24632 0.28306 0.63431 0.0
H349 H 0.28198 0.24841 0.63333 0.0
C350 C 0.72856 0.27658 0.77732 0.0
C351 C 0.70197 0.2531 0.75431 0.0
C352 C 0.72646 0.27756 0.6839 0.0
C353 C 0.7496 0.3043 0.70712 0.0
N354 N 0.76668 0.33441 0.77592 0.0
N355 N 0.67082 0.23611 0.68602 0.0
C356 C 0.74898 0.30529 0.75387 0.0
C357 C 0.69955 0.25492 0.70763 0.0
N358 N 0.73575 0.27038 0.82116 0.0
N359 N 0.7313 0.27253 0.63947 0.0
H360 H 0.65022 0.21976 0.70241 0.0
H361 H 0.66528 0.23967 0.65245 0.0
H362 H 0.75148 0.28767 0.62093 0.0
H363 H 0.718 0.25069 0.62182 0.0
H364 H 0.75768 0.28415 0.83824 0.0
H365 H 0.72266 0.24865 0.83941 0.0
H366 H 0.76383 0.33866 0.80982 0.0
H367 H 0.78093 0.35659 0.75972 0.0
C368 C 0.10071 0.35407 0.96692 0.0
C369 C 0.1241 0.37855 0.94066 0.0
C370 C 0.15391 0.40456 0.00707 0.0
C371 C 0.12946 0.38117 0.03339 0.0
N372 N 0.07282 0.34214 0.03887 0.0
N373 N 0.16462 0.4341 0.9357 0.0
C374 C 0.10055 0.35876 0.0134 0.0
C375 C 0.14789 0.40621 0.96082 0.0
N376 N 0.08085 0.32453 0.94817 0.0
N377 N 0.18463 0.42296 0.02541 0.0
H378 H 0.16023 0.43601 0.90172 0.0
H379 H 0.17935 0.45729 0.94905 0.0
H380 H 0.19147 0.42165 0.05885 0.0
H381 H 0.20559 0.43673 0.00667 0.0
H382 H 0.06707 0.3034 0.96664 0.0
H383 H 0.08082 0.31879 0.91444 0.0
H384 H 0.04881 0.32851 0.02581 0.0
H385 H 0.07198 0.34552 0.07303 0.0
C386 C 0.60913 0.11139 0.96308 0.0
C387 C 0.63588 0.13498 0.94038 0.0
C388 C 0.6569 0.16204 0.01022 0.0
C389 C 0.63471 0.13456 0.03349 0.0
N390 N 0.59339 0.07917 0.03188 0.0
N391 N 0.69404 0.17302 0.94473 0.0
C392 C 0.61171 0.10805 0.00991 0.0
C393 C 0.66237 0.15751 0.96453 0.0
N394 N 0.58067 0.09327 0.94029 0.0
N395 N 0.67129 0.19366 0.03095 0.0
H396 H 0.7016 0.16779 0.912 0.0
H397 H 0.71545 0.18696 0.96256 0.0
H398 H 0.66527 0.20044 0.06373 0.0
H399 H 0.68498 0.21572 0.01383 0.0
H400 H 0.55835 0.07857 0.95568 0.0
H401 H 0.57732 0.09605 0.9062 0.0
H402 H 0.57919 0.05696 0.01584 0.0
H403 H 0.59539 0.07549 0.06601 0.0
C404 C 0.83588 0.57331 -0.00116 0.0
C405 C 0.86367 0.59746 0.97886 0.0
C406 C 0.89045 0.61112 0.05183 0.0
C407 C 0.85798 0.59445 0.07171 0.0
N408 N 0.79891 0.55904 0.06479 0.0
N409 N 0.91426 0.64478 0.98816 0.0
C410 C 0.83071 0.57465 0.04552 0.0
C411 C 0.8907 0.61732 0.00567 0.0
N412 N 0.81478 0.54904 0.97325 0.0
N413 N 0.9208 0.62154 0.07748 0.0
H414 H 0.91378 0.6533 0.95522 0.0
H415 H 0.93146 0.6624 0.00757 0.0
H416 H 0.92107 0.61617 0.11141 0.0
H417 H 0.9468 0.63104 0.06446 0.0
H418 H 0.79629 0.52845 0.9862 0.0
H419 H 0.81871 0.54704 0.93916 0.0
H420 H 0.77581 0.54836 0.04685 0.0
H421 H 0.79473 0.55856 0.09888 0.0
C422 C 0.40407 0.84016 0.01686 0.0
C423 C 0.38108 0.86549 0.04222 0.0
C424 C 0.3554 0.89368 0.97461 0.0
C425 C 0.38012 0.87 0.94929 0.0
N426 N 0.43446 0.82787 0.9464 0.0
N427 N 0.34295 0.92261 0.04567 0.0
C428 C 0.40664 0.84559 0.97051 0.0
C429 C 0.3594 0.89434 0.02118 0.0
N430 N 0.42134 0.80934 0.03629 0.0
N431 N 0.32629 0.91346 0.95483 0.0
H432 H 0.3459 0.92398 0.07988 0.0
H433 H 0.32993 0.94656 0.03175 0.0
H434 H 0.32078 0.91279 0.92104 0.0
H435 H 0.30509 0.92764 0.97259 0.0
H436 H 0.43479 0.78784 0.01834 0.0
H437 H 0.41926 0.80303 0.06984 0.0
H438 H 0.45695 0.81269 0.96065 0.0
H439 H 0.43715 0.83166 0.91236 0.0
C440 C 0.0926 0.6588 0.51982 0.0
C441 C 0.11607 0.63405 0.54547 0.0
C442 C 0.14405 0.60756 0.47838 0.0
C443 C 0.11924 0.63087 0.45259 0.0
N444 N 0.06382 0.67152 0.44845 0.0
N445 N 0.15562 0.57797 0.54943 0.0
C446 C 0.09147 0.65417 0.47327 0.0
C447 C 0.13898 0.60611 0.52474 0.0
N448 N 0.07337 0.68829 0.53933 0.0
N449 N 0.17425 0.58898 0.45932 0.0
H450 H 0.15171 0.57605 0.58348 0.0
H451 H 0.16967 0.55459 0.53569 0.0
H452 H 0.18067 0.59045 0.42576 0.0
H453 H 0.19539 0.57513 0.47758 0.0
H454 H 0.05954 0.70967 0.52145 0.0
H455 H 0.0738 0.69348 0.57318 0.0
H456 H 0.04051 0.68581 0.46206 0.0
H457 H 0.06225 0.66834 0.41427 0.0
C458 C 0.39268 0.11016 0.51158 0.0
C459 C 0.36589 0.13343 0.53427 0.0
C460 C 0.34392 0.15982 0.46429 0.0
C461 C 0.36649 0.13281 0.44114 0.0
N462 N 0.408 0.07773 0.4431 0.0
N463 N 0.30721 0.17037 0.53013 0.0
C464 C 0.38976 0.1066 0.46485 0.0
C465 C 0.33889 0.15534 0.51012 0.0
N466 N 0.42152 0.09256 0.53426 0.0
N467 N 0.32884 0.19105 0.44335 0.0
H468 H 0.3001 0.16518 0.56305 0.0
H469 H 0.28542 0.1838 0.51241 0.0
H470 H 0.33443 0.19784 0.41043 0.0
H471 H 0.3149 0.21286 0.46036 0.0
H472 H 0.44387 0.07817 0.51877 0.0
H473 H 0.42513 0.0955 0.56829 0.0
H474 H 0.42243 0.05577 0.45933 0.0
H475 H 0.40556 0.0737 0.4091 0.0
C476 C 0.83201 0.36834 0.45212 0.0
C477 C 0.86147 0.38828 0.42949 0.0
C478 C 0.88523 0.41183 0.50061 0.0
C479 C 0.86029 0.38594 0.52282 0.0
N480 N 0.81816 0.33068 0.5164 0.0
N481 N 0.91921 0.42627 0.43258 0.0
C482 C 0.83574 0.36181 0.49782 0.0
C483 C 0.88892 0.40958 0.45376 0.0
N484 N 0.79988 0.35628 0.43038 0.0
N485 N 0.90461 0.43905 0.52397 0.0
H486 H 0.92315 0.42459 0.3985 0.0
H487 H 0.94206 0.43888 0.44926 0.0
H488 H 0.90143 0.44233 0.55801 0.0
H489 H 0.9206 0.46069 0.50901 0.0
H490 H 0.77647 0.34426 0.4468 0.0
H491 H 0.79456 0.36265 0.39727 0.0
H492 H 0.80264 0.31095 0.49778 0.0
H493 H 0.82319 0.32134 0.54856 0.0
C494 C 0.61679 0.8824 0.52768 0.0
C495 C 0.64429 0.8586 0.54865 0.0
C496 C 0.66612 0.83663 0.47655 0.0
C497 C 0.64319 0.86481 0.45555 0.0
N498 N 0.60035 0.91854 0.4619 0.0
N499 N 0.70284 0.82183 0.54143 0.0
C500 C 0.61942 0.88887 0.48132 0.0
C501 C 0.67116 0.83813 0.52274 0.0
N502 N 0.58753 0.89779 0.55169 0.0
N503 N 0.68159 0.8071 0.45308 0.0
H504 H 0.70989 0.82446 0.57471 0.0
H505 H 0.72469 0.80972 0.52264 0.0
H506 H 0.67625 0.80258 0.41964 0.0
H507 H 0.69568 0.7843 0.46822 0.0
H508 H 0.56476 0.9125 0.53738 0.0
H509 H 0.58392 0.89242 0.58536 0.0
H510 H 0.58551 0.93913 0.47982 0.0
H511 H 0.60242 0.92466 0.42823 0.0
C512 C 0.20284 0.53703 0.2185 0.0
C513 C 0.20004 0.53887 0.26507 0.0
C514 C 0.20795 0.46939 0.26978 0.0
C515 C 0.20499 0.46715 0.22324 0.0
N516 N 0.19138 0.49882 0.15364 0.0
N517 N 0.19235 0.50578 0.33497 0.0
C518 C 0.20052 0.50095 0.19749 0.0
C519 C 0.20087 0.50483 0.29089 0.0
N520 N 0.20818 0.56969 0.19434 0.0
N521 N 0.21789 0.43779 0.29379 0.0
H522 H 0.18498 0.53069 0.3517 0.0
H523 H 0.18866 0.4812 0.35405 0.0
H524 H 0.22359 0.41139 0.27924 0.0
H525 H 0.22414 0.43874 0.32742 0.0
H526 H 0.2142 0.56952 0.16062 0.0
H527 H 0.21047 0.59666 0.20876 0.0
H528 H 0.1839 0.52265 0.13482 0.0
H529 H 0.18714 0.47315 0.13695 0.0
C530 C 0.5036 0.20364 0.18716 0.0
C531 C 0.53636 0.20876 0.21447 0.0
C532 C 0.49562 0.20924 0.28005 0.0
C533 C 0.46271 0.207 0.25246 0.0
N534 N 0.43502 0.21156 0.17975 0.0
N535 N 0.56292 0.22558 0.28525 0.0
C536 C 0.46662 0.20737 0.20595 0.0
C537 C 0.53212 0.21463 0.26042 0.0
N538 N 0.5075 0.1925 0.14412 0.0
N539 N 0.49261 0.20347 0.32462 0.0
H540 H 0.59007 0.23001 0.2717 0.0
H541 H 0.56065 0.23392 0.31816 0.0
H542 H 0.46684 0.19754 0.3406 0.0
H543 H 0.51631 0.20073 0.34528 0.0
H544 H 0.48437 0.1844 0.12449 0.0
H545 H 0.53385 0.18748 0.12911 0.0
H546 H 0.43665 0.21578 0.14571 0.0
H547 H 0.40747 0.2147 0.19259 0.0
C548 C 0.84483 0.52972 0.23308 0.0
C549 C 0.81055 0.54804 0.24645 0.0
C550 C 0.77322 0.49228 0.22331 0.0
C551 C 0.80784 0.47157 0.22061 0.0
N552 N 0.873 0.47526 0.19558 0.0
N553 N 0.74171 0.55113 0.24574 0.0
C554 C 0.84265 0.49197 0.21621 0.0
C555 C 0.77443 0.53093 0.23781 0.0
N556 N 0.8794 0.5472 0.23944 0.0
N557 N 0.73981 0.47464 0.21178 0.0
H558 H 0.7423 0.57998 0.25452 0.0
H559 H 0.71427 0.53959 0.24408 0.0
H560 H 0.7397 0.44694 0.19893 0.0
H561 H 0.71322 0.48798 0.21124 0.0
H562 H 0.90555 0.53347 0.23499 0.0
H563 H 0.88185 0.57508 0.25122 0.0
H564 H 0.89857 0.4895 0.18878 0.0
H565 H 0.87045 0.44851 0.1806 0.0
C566 C 0.53762 0.79214 0.22594 0.0
C567 C 0.5411 0.79714 0.27212 0.0
C568 C 0.47139 0.79245 0.27995 0.0
C569 C 0.46776 0.79327 0.2334 0.0
N570 N 0.49782 0.80195 0.16182 0.0
N571 N 0.51059 0.80956 0.34254 0.0
C572 C 0.50095 0.79495 0.20615 0.0
C573 C 0.50784 0.79899 0.29919 0.0
N574 N 0.56927 0.78427 0.20101 0.0
N575 N 0.44009 0.78507 0.30576 0.0
H576 H 0.53638 0.81661 0.35781 0.0
H577 H 0.48679 0.81521 0.36221 0.0
H578 H 0.41295 0.77985 0.29262 0.0
H579 H 0.44185 0.78039 0.33971 0.0
H580 H 0.56775 0.77661 0.16782 0.0
H581 H 0.59661 0.78158 0.21458 0.0
H582 H 0.52138 0.80741 0.14161 0.0
H583 H 0.4718 0.80644 0.14582 0.0
C584 C 0.82055 0.53561 0.73865 0.0
C585 C 0.82727 0.52697 0.78379 0.0
C586 C 0.83478 0.45913 0.76516 0.0
C587 C 0.83083 0.46829 0.71948 0.0
N588 N 0.8292 0.51657 0.66245 0.0
N589 N 0.84774 0.48202 0.83932 0.0
C590 C 0.82648 0.50698 0.70615 0.0
C591 C 0.83652 0.48915 0.79683 0.0
N592 N 0.8067 0.5707 0.72698 0.0
N593 N 0.83483 0.42181 0.77872 0.0
H594 H 0.84895 0.50322 0.86347 0.0
H595 H 0.85897 0.45592 0.84967 0.0
H596 H 0.83365 0.3988 0.75706 0.0
H597 H 0.83287 0.41358 0.81173 0.0
H598 H 0.79755 0.57747 0.69517 0.0
H599 H 0.80069 0.59177 0.75018 0.0
H600 H 0.83001 0.54474 0.65121 0.0
H601 H 0.8347 0.49653 0.63781 0.0
C602 C 0.54425 0.82725 0.77108 0.0
C603 C 0.54263 0.82593 0.72417 0.0
C604 C 0.47235 0.8224 0.72761 0.0
C605 C 0.47395 0.82629 0.77425 0.0
N606 N 0.51081 0.8409 0.83938 0.0
N607 N 0.50508 0.83079 0.65755 0.0
C608 C 0.50975 0.83119 0.7957 0.0
C609 C 0.50661 0.82598 0.70235 0.0
N610 N 0.5785 0.82293 0.79237 0.0
N611 N 0.43837 0.8137 0.70752 0.0
H612 H 0.5295 0.8344 0.63809 0.0
H613 H 0.47964 0.83501 0.64028 0.0
H614 H 0.41268 0.81061 0.7248 0.0
H615 H 0.43619 0.80631 0.67432 0.0
H616 H 0.5808 0.81903 0.82639 0.0
H617 H 0.6045 0.81994 0.77589 0.0
H618 H 0.53583 0.84889 0.8557 0.0
H619 H 0.48616 0.84465 0.8583 0.0
C620 C 0.17121 0.46719 0.71882 0.0
C621 C 0.17069 0.47002 0.76567 0.0
C622 C 0.17394 0.53999 0.75954 0.0
C623 C 0.17043 0.53725 0.71294 0.0
N624 N 0.1585 0.49828 0.64877 0.0
N625 N 0.16277 0.50959 0.83023 0.0
C626 C 0.16707 0.50084 0.69269 0.0
C627 C 0.16961 0.50658 0.78594 0.0
N628 N 0.17728 0.43264 0.6991 0.0
N629 N 0.18296 0.57424 0.77862 0.0
H630 H 0.15791 0.48592 0.85044 0.0
H631 H 0.15779 0.53557 0.84594 0.0
H632 H 0.18739 0.59927 0.76049 0.0
H633 H 0.18985 0.577 0.81194 0.0
H634 H 0.18232 0.42958 0.66539 0.0
H635 H 0.18079 0.40734 0.71683 0.0
H636 H 0.15152 0.47264 0.63327 0.0
H637 H 0.15479 0.52218 0.62867 0.0
C638 C 0.46587 0.16551 0.7577 0.0
C639 C 0.46803 0.16461 0.71083 0.0
C640 C 0.53828 0.16523 0.71492 0.0
C641 C 0.53608 0.16431 0.76179 0.0
N642 N 0.49818 0.15392 0.82732 0.0
N643 N 0.50579 0.15417 0.64531 0.0
C644 C 0.49994 0.16148 0.78303 0.0
C645 C 0.50413 0.16159 0.68958 0.0
N646 N 0.43161 0.17218 0.77812 0.0
N647 N 0.57265 0.17152 0.69449 0.0
H648 H 0.48136 0.15063 0.62587 0.0
H649 H 0.53114 0.14777 0.62879 0.0
H650 H 0.59837 0.17438 0.71161 0.0
H651 H 0.57528 0.17704 0.6608 0.0
H652 H 0.42911 0.17762 0.81181 0.0
H653 H 0.40595 0.17555 0.76101 0.0
H654 H 0.47274 0.14766 0.84384 0.0
H655 H 0.52256 0.15007 0.84676 0.0
C656 C 0.708 0.00554 0.79099 0.0
C657 C 0.70942 0.03659 0.76052 0.0
C658 C 0.70839 0.9917 0.69893 0.0
C659 C 0.71073 0.96074 0.7294 0.0
N660 N 0.7214 0.93855 0.80382 0.0
N661 N 0.71949 0.0592 0.68614 0.0
C662 C 0.71337 0.9678 0.77528 0.0
C663 C 0.71242 0.02964 0.71465 0.0
N664 N 0.6989 0.01159 0.83435 0.0
N665 N 0.6997 0.98529 0.65552 0.0
H666 H 0.72289 0.08739 0.69667 0.0
H667 H 0.72574 0.05518 0.65281 0.0
H668 H 0.69437 0.95823 0.64261 0.0
H669 H 0.69374 0.00723 0.63322 0.0
H670 H 0.69358 0.98941 0.8566 0.0
H671 H 0.69256 0.0384 0.84726 0.0
H672 H 0.72743 0.94284 0.83715 0.0
H673 H 0.72581 0.91051 0.79332 0.0
C674 C 0.00238 0.68511 0.82284 0.0
C675 C 0.96666 0.68959 0.80093 0.0
C676 C 0.99973 0.69904 0.73063 0.0
C677 C 0.03547 0.69762 0.75308 0.0
N678 N 0.07062 0.69786 0.82158 0.0
N679 N 0.93155 0.71018 0.73657 0.0
C680 C 0.03671 0.69344 0.79959 0.0
C681 C 0.96541 0.69959 0.75562 0.0
N682 N 0.00382 0.67061 0.86481 0.0
N683 N 0.99821 0.69721 0.68554 0.0
H684 H 0.90585 0.71145 0.75412 0.0
H685 H 0.92973 0.72141 0.70472 0.0
H686 H 0.02237 0.69487 0.66554 0.0
H687 H 0.97268 0.694 0.6681 0.0
H688 H 0.02931 0.66295 0.88034 0.0
H689 H 0.97957 0.66263 0.8827 0.0
H690 H 0.07256 0.69886 0.8559 0.0
H691 H 0.09628 0.70431 0.80548 0.0
C692 C 0.29612 0.03089 0.76747 0.0
C693 C 0.29996 0.03477 0.72115 0.0
C694 C 0.30184 0.96511 0.71353 0.0
C695 C 0.30373 0.96163 0.76004 0.0
N696 N 0.31004 0.99204 0.83149 0.0
N697 N 0.31417 0.00563 0.65046 0.0
C698 C 0.30253 0.99468 0.78725 0.0
C699 C 0.30455 0.00192 0.69407 0.0
N700 N 0.28596 0.06169 0.79252 0.0
N701 N 0.29701 0.93331 0.68798 0.0
H702 H 0.31849 0.03189 0.63491 0.0
H703 H 0.3218 0.98251 0.63073 0.0
H704 H 0.29463 0.90584 0.70128 0.0
H705 H 0.29159 0.93461 0.65416 0.0
H706 H 0.27905 0.0596 0.82593 0.0
H707 H 0.28074 0.08864 0.77894 0.0
H708 H 0.31351 0.01585 0.8517 0.0
H709 H 0.31676 0.96646 0.84739 0.0
C710 C 0.0026 0.3027 0.77263 0.0
C711 C 0.03696 0.30219 0.74738 0.0
C712 C 0.99966 0.30621 0.67923 0.0
C713 C 0.96532 0.30335 0.70435 0.0
N714 N 0.93453 0.28948 0.77389 0.0
N715 N 0.06799 0.29455 0.67685 0.0
C716 C 0.96695 0.2985 0.75075 0.0
C717 C 0.0354 0.30101 0.70069 0.0
N718 N 0.00358 0.30985 0.81701 0.0
N719 N 0.99856 0.31652 0.63564 0.0
H720 H 0.09465 0.2903 0.69163 0.0
H721 H 0.06785 0.28962 0.64292 0.0
H722 H 0.97331 0.32261 0.61874 0.0
H723 H 0.02304 0.32292 0.61734 0.0
H724 H 0.97901 0.3145 0.83577 0.0
H725 H 0.02874 0.31525 0.83443 0.0
H726 H 0.93483 0.28199 0.80724 0.0
H727 H 0.90795 0.28561 0.75875 0.0
C728 C 0.33698 0.03194 0.21751 0.0
C729 C 0.3374 0.03021 0.26439 0.0
C730 C 0.33712 0.96004 0.26128 0.0
C731 C 0.33882 0.96177 0.21437 0.0
N732 N 0.3505 0.99936 0.1488 0.0
N733 N 0.34729 0.9931 0.33061 0.0
C734 C 0.34177 0.99776 0.19277 0.0
C735 C 0.34033 0.99436 0.28619 0.0
N736 N 0.3302 0.06589 0.19647 0.0
N737 N 0.33053 0.92595 0.28215 0.0
H738 H 0.35051 0.01764 0.34978 0.0
H739 H 0.35368 0.96796 0.34757 0.0
H740 H 0.32789 0.90012 0.26544 0.0
H741 H 0.32446 0.92371 0.31575 0.0
H742 H 0.32512 0.06801 0.16264 0.0
H743 H 0.3263 0.0916 0.21317 0.0
H744 H 0.35678 0.02475 0.13221 0.0
H745 H 0.35557 0.97499 0.13 0.0
C746 C 0.96826 0.3379 0.21422 0.0
C747 C 0.9709 0.3399 0.26099 0.0
C748 C 0.04103 0.33692 0.25568 0.0
C749 C 0.03837 0.33808 0.2088 0.0
N750 N 0.99954 0.3498 0.14427 0.0
N751 N 0.00992 0.34958 0.32574 0.0
C752 C 0.00198 0.3415 0.1883 0.0
C753 C 0.00736 0.34178 0.28162 0.0
N754 N 0.93379 0.33084 0.1944 0.0
N755 N 0.07538 0.32957 0.27555 0.0
H756 H 0.98596 0.35405 0.34564 0.0
H757 H 0.03575 0.35529 0.34166 0.0
H758 H 0.1007 0.32577 0.25797 0.0
H759 H 0.07817 0.32399 0.30921 0.0
H760 H 0.93104 0.32485 0.16085 0.0
H761 H 0.90839 0.32722 0.21196 0.0
H762 H 0.97386 0.35644 0.12852 0.0
H763 H 0.02358 0.35432 0.12454 0.0
C764 C 0.6636 0.96797 0.22636 0.0
C765 C 0.66391 0.97193 0.27312 0.0
C766 C 0.66561 0.04185 0.26501 0.0
C767 C 0.66375 0.03785 0.21836 0.0
N768 N 0.65108 0.99778 0.15541 0.0
N769 N 0.65563 0.0123 0.33673 0.0
C770 C 0.65965 0.00107 0.1993 0.0
C771 C 0.66193 0.00883 0.29236 0.0
N772 N 0.66928 0.93295 0.20755 0.0
N773 N 0.67288 0.07683 0.28325 0.0
H774 H 0.6521 0.9887 0.35754 0.0
H775 H 0.65008 0.03831 0.35209 0.0
H776 H 0.6759 0.10173 0.26457 0.0
H777 H 0.67903 0.08072 0.3166 0.0
H778 H 0.67398 0.92915 0.17387 0.0
H779 H 0.67254 0.90789 0.2258 0.0
H780 H 0.64382 0.97193 0.14056 0.0
H781 H 0.64741 0.02142 0.13475 0.0
C782 C 0.02963 0.66846 0.22838 0.0
C783 C 0.02742 0.66897 0.27519 0.0
C784 C 0.95722 0.66938 0.27055 0.0
C785 C 0.9593 0.66488 0.22385 0.0
N786 N 0.9985 0.65169 0.15983 0.0
N787 N 0.98906 0.66056 0.34079 0.0
C788 C 0.99581 0.66208 0.20316 0.0
C789 C 0.99119 0.6667 0.29626 0.0
N790 N 0.06375 0.67556 0.20774 0.0
N791 N 0.92323 0.67816 0.29046 0.0
H792 H 0.01323 0.6572 0.36061 0.0
H793 H 0.96345 0.65466 0.35717 0.0
H794 H 0.89768 0.68175 0.27326 0.0
H795 H 0.92114 0.68586 0.32359 0.0
H796 H 0.06616 0.67992 0.17379 0.0
H797 H 0.08913 0.68065 0.22483 0.0
H798 H 0.02438 0.64518 0.14448 0.0
H799 H 0.97473 0.64566 0.14039 0.0
loop_
_geom_bond_atom_site_label_1
_geom_bond_atom_site_label_2
_geom_bond_distance
_geom_bond_site_symmetry_2
_ccdc_geom_bond_type
Mg0 O1 2.028 . S
Mg0 O7 1.986 . S
Mg0 O9 2.114 . S
Mg0 O10 2.251 . S
Mg0 O13 2.010 . S
O1 Mg0 2.028 . S
O1 C4 1.250 . S
O2 Mg3 2.028 . S
O2 C4 1.248 . S
Mg3 O2 2.028 . S
Mg3 O8 2.032 . S
Mg3 O10 2.079 . S
C4 O1 1.250 . S
C4 O2 1.248 . S
C5 O6 1.264 . S
C5 O13 1.249 . S
O6 C5 1.264 . S
O7 Mg0 1.986 . S
O7 C11 1.246 . S
O8 Mg3 2.032 . S
O8 C11 1.259 . S
O9 Mg0 2.114 . S
O9 C12 1.252 . S
O10 Mg0 2.251 . S
O10 Mg3 2.079 . S
O10 C12 1.273 . S
C11 O7 1.246 . S
C11 O8 1.259 . S
C12 O9 1.252 . S
C12 O10 1.273 . S
O13 Mg0 2.010 . S
O13 C5 1.249 . S
Mg14 O15 2.028 . S
Mg14 O21 1.986 . S
Mg14 O23 2.114 . S
Mg14 O24 2.251 . S
Mg14 O27 2.010 . S
O15 Mg14 2.028 . S
O15 C18 1.250 . S
O16 Mg17 2.028 . S
O16 C18 1.248 . S
Mg17 O16 2.028 . S
Mg17 O22 2.032 . S
Mg17 O24 2.079 . S
C18 O15 1.250 . S
C18 O16 1.248 . S
C19 O20 1.264 . S
C19 O27 1.249 . S
O20 C19 1.264 . S
O21 Mg14 1.986 . S
O21 C25 1.246 . S
O22 Mg17 2.032 . S
O22 C25 1.259 . S
O23 Mg14 2.114 . S
O23 C26 1.252 . S
O24 Mg14 2.251 . S
O24 Mg17 2.079 . S
O24 C26 1.273 . S
C25 O21 1.246 . S
C25 O22 1.259 . S
C26 O23 1.252 . S
C26 O24 1.273 . S
O27 Mg14 2.010 . S
O27 C19 1.249 . S
Mg28 O29 2.028 . S
Mg28 O35 1.986 . S
Mg28 O37 2.114 . S
Mg28 O38 2.251 . S
Mg28 O41 2.010 . S
O29 Mg28 2.028 . S
O29 C32 1.250 . S
O30 Mg31 2.028 . S
O30 C32 1.248 . S
Mg31 O30 2.028 . S
Mg31 O36 2.032 . S
Mg31 O38 2.079 . S
C32 O29 1.250 . S
C32 O30 1.248 . S
C33 O34 1.264 . S
C33 O41 1.249 . S
O34 C33 1.264 . S
O35 Mg28 1.986 . S
O35 C39 1.246 . S
O36 Mg31 2.032 . S
O36 C39 1.259 . S
O37 Mg28 2.114 . S
O37 C40 1.252 . S
O38 Mg28 2.251 . S
O38 Mg31 2.079 . S
O38 C40 1.273 . S
C39 O35 1.246 . S
C39 O36 1.259 . S
C40 O37 1.252 . S
C40 O38 1.273 . S
O41 Mg28 2.010 . S
O41 C33 1.249 . S
Mg42 O43 2.028 . S
Mg42 O49 1.986 . S
Mg42 O51 2.114 . S
Mg42 O52 2.251 . S
Mg42 O55 2.010 . S
O43 Mg42 2.028 . S
O43 C46 1.250 . S
O44 Mg45 2.028 . S
O44 C46 1.248 . S
Mg45 O44 2.028 . S
Mg45 O50 2.032 . S
Mg45 O52 2.079 . S
C46 O43 1.250 . S
C46 O44 1.248 . S
C47 O48 1.264 . S
C47 O55 1.249 . S
O48 C47 1.264 . S
O49 Mg42 1.986 . S
O49 C53 1.246 . S
O50 Mg45 2.032 . S
O50 C53 1.259 . S
O51 Mg42 2.114 . S
O51 C54 1.252 . S
O52 Mg42 2.251 . S
O52 Mg45 2.079 . S
O52 C54 1.273 . S
C53 O49 1.246 . S
C53 O50 1.259 . S
C54 O51 1.252 . S
C54 O52 1.273 . S
O55 Mg42 2.010 . S
O55 C47 1.249 . S
Mg56 O57 2.028 . S
Mg56 O63 1.986 . S
Mg56 O65 2.114 . S
Mg56 O66 2.251 . S
Mg56 O69 2.010 . S
O57 Mg56 2.028 . S
O57 C60 1.250 . S
O58 Mg59 2.028 . S
O58 C60 1.248 . S
Mg59 O58 2.028 . S
Mg59 O64 2.032 . S
Mg59 O66 2.079 . S
C60 O57 1.250 . S
C60 O58 1.248 . S
C61 O62 1.264 . S
C61 O69 1.249 . S
O62 C61 1.264 . S
O63 Mg56 1.986 . S
O63 C67 1.246 . S
O64 Mg59 2.032 . S
O64 C67 1.259 . S
O65 Mg56 2.114 . S
O65 C68 1.252 . S
O66 Mg56 2.251 . S
O66 Mg59 2.079 . S
O66 C68 1.273 . S
C67 O63 1.246 . S
C67 O64 1.259 . S
C68 O65 1.252 . S
C68 O66 1.273 . S
O69 Mg56 2.010 . S
O69 C61 1.249 . S
Mg70 O71 2.028 . S
Mg70 O77 1.986 . S
Mg70 O79 2.114 . S
Mg70 O80 2.251 . S
Mg70 O83 2.010 . S
O71 Mg70 2.028 . S
O71 C74 1.250 . S
O72 Mg73 2.028 . S
O72 C74 1.248 . S
Mg73 O72 2.028 . S
Mg73 O78 2.032 . S
Mg73 O80 2.079 . S
C74 O71 1.250 . S
C74 O72 1.248 . S
C75 O76 1.264 . S
C75 O83 1.249 . S
O76 C75 1.264 . S
O77 Mg70 1.986 . S
O77 C81 1.246 . S
O78 Mg73 2.032 . S
O78 C81 1.259 . S
O79 Mg70 2.114 . S
O79 C82 1.252 . S
O80 Mg70 2.251 . S
O80 Mg73 2.079 . S
O80 C82 1.273 . S
C81 O77 1.246 . S
C81 O78 1.259 . S
C82 O79 1.252 . S
C82 O80 1.273 . S
O83 Mg70 2.010 . S
O83 C75 1.249 . S
Mg84 O85 2.028 . S
Mg84 O91 1.986 . S
Mg84 O93 2.114 . S
Mg84 O94 2.251 . S
Mg84 O97 2.010 . S
O85 Mg84 2.028 . S
O85 C88 1.250 . S
O86 Mg87 2.028 . S
O86 C88 1.248 . S
Mg87 O86 2.028 . S
Mg87 O92 2.032 . S
Mg87 O94 2.079 . S
C88 O85 1.250 . S
C88 O86 1.248 . S
C89 O90 1.264 . S
C89 O97 1.249 . S
O90 C89 1.264 . S
O91 Mg84 1.986 . S
O91 C95 1.246 . S
O92 Mg87 2.032 . S
O92 C95 1.259 . S
O93 Mg84 2.114 . S
O93 C96 1.252 . S
O94 Mg84 2.251 . S
O94 Mg87 2.079 . S
O94 C96 1.273 . S
C95 O91 1.246 . S
C95 O92 1.259 . S
C96 O93 1.252 . S
C96 O94 1.273 . S
O97 Mg84 2.010 . S
O97 C89 1.249 . S
Mg98 O99 2.028 . S
Mg98 O105 1.986 . S
Mg98 O107 2.114 . S
Mg98 O108 2.251 . S
Mg98 O111 2.010 . S
O99 Mg98 2.028 . S
O99 C102 1.250 . S
O100 Mg101 2.028 . S
O100 C102 1.248 . S
Mg101 O100 2.028 . S
Mg101 O106 2.032 . S
Mg101 O108 2.079 . S
C102 O99 1.250 . S
C102 O100 1.248 . S
C103 O104 1.264 . S
C103 O111 1.249 . S
O104 C103 1.264 . S
O105 Mg98 1.986 . S
O105 C109 1.246 . S
O106 Mg101 2.032 . S
O106 C109 1.259 . S
O107 Mg98 2.114 . S
O107 C110 1.252 . S
O108 Mg98 2.251 . S
O108 Mg101 2.079 . S
O108 C110 1.273 . S
C109 O105 1.246 . S
C109 O106 1.259 . S
C110 O107 1.252 . S
C110 O108 1.273 . S
O111 Mg98 2.010 . S
O111 C103 1.249 . S
Mg112 O113 2.028 . S
Mg112 O119 1.986 . S
Mg112 O121 2.114 . S
Mg112 O122 2.251 . S
Mg112 O125 2.010 . S
O113 Mg112 2.028 . S
O113 C116 1.250 . S
O114 Mg115 2.028 . S
O114 C116 1.248 . S
Mg115 O114 2.028 . S
Mg115 O120 2.032 . S
Mg115 O122 2.079 . S
C116 O113 1.250 . S
C116 O114 1.248 . S
C117 O118 1.264 . S
C117 O125 1.249 . S
O118 C117 1.264 . S
O119 Mg112 1.986 . S
O119 C123 1.246 . S
O120 Mg115 2.032 . S
O120 C123 1.259 . S
O121 Mg112 2.114 . S
O121 C124 1.252 . S
O122 Mg112 2.251 . S
O122 Mg115 2.079 . S
O122 C124 1.273 . S
C123 O119 1.246 . S
C123 O120 1.259 . S
C124 O121 1.252 . S
C124 O122 1.273 . S
O125 Mg112 2.010 . S
O125 C117 1.249 . S
Mg126 O127 2.028 . S
Mg126 O133 1.986 . S
Mg126 O135 2.114 . S
Mg126 O136 2.251 . S
Mg126 O139 2.010 . S
O127 Mg126 2.028 . S
O127 C130 1.250 . S
O128 Mg129 2.028 . S
O128 C130 1.248 . S
Mg129 O128 2.028 . S
Mg129 O134 2.032 . S
Mg129 O136 2.079 . S
C130 O127 1.250 . S
C130 O128 1.248 . S
C131 O132 1.264 . S
C131 O139 1.249 . S
O132 C131 1.264 . S
O133 Mg126 1.986 . S
O133 C137 1.246 . S
O134 Mg129 2.032 . S
O134 C137 1.259 . S
O135 Mg126 2.114 . S
O135 C138 1.252 . S
O136 Mg126 2.251 . S
O136 Mg129 2.079 . S
O136 C138 1.273 . S
C137 O133 1.246 . S
C137 O134 1.259 . S
C138 O135 1.252 . S
C138 O136 1.273 . S
O139 Mg126 2.010 . S
O139 C131 1.249 . S
Mg140 O141 2.028 . S
Mg140 O147 1.986 . S
Mg140 O149 2.114 . S
Mg140 O150 2.251 . S
Mg140 O153 2.010 . S
O141 Mg140 2.028 . S
O141 C144 1.250 . S
O142 Mg143 2.028 . S
O142 C144 1.248 . S
Mg143 O142 2.028 . S
Mg143 O148 2.032 . S
Mg143 O150 2.079 . S
C144 O141 1.250 . S
C144 O142 1.248 . S
C145 O146 1.264 . S
C145 O153 1.249 . S
O146 C145 1.264 . S
O147 Mg140 1.986 . S
O147 C151 1.246 . S
O148 Mg143 2.032 . S
O148 C151 1.259 . S
O149 Mg140 2.114 . S
O149 C152 1.252 . S
O150 Mg140 2.251 . S
O150 Mg143 2.079 . S
O150 C152 1.273 . S
C151 O147 1.246 . S
C151 O148 1.259 . S
C152 O149 1.252 . S
C152 O150 1.273 . S
O153 Mg140 2.010 . S
O153 C145 1.249 . S
Mg154 O155 2.028 . S
Mg154 O161 1.986 . S
Mg154 O163 2.114 . S
Mg154 O164 2.251 . S
Mg154 O167 2.010 . S
O155 Mg154 2.028 . S
O155 C158 1.250 . S
O156 Mg157 2.028 . S
O156 C158 1.248 . S
Mg157 O156 2.028 . S
Mg157 O162 2.032 . S
Mg157 O164 2.079 . S
C158 O155 1.250 . S
C158 O156 1.248 . S
C159 O160 1.264 . S
C159 O167 1.249 . S
O160 C159 1.264 . S
O161 Mg154 1.986 . S
O161 C165 1.246 . S
O162 Mg157 2.032 . S
O162 C165 1.259 . S
O163 Mg154 2.114 . S
O163 C166 1.252 . S
O164 Mg154 2.251 . S
O164 Mg157 2.079 . S
O164 C166 1.273 . S
C165 O161 1.246 . S
C165 O162 1.259 . S
C166 O163 1.252 . S
C166 O164 1.273 . S
O167 Mg154 2.010 . S
O167 C159 1.249 . S
Mg168 O169 2.028 . S
Mg168 O175 1.986 . S
Mg168 O177 2.114 . S
Mg168 O178 2.251 . S
Mg168 O181 2.010 . S
O169 Mg168 2.028 . S
O169 C172 1.250 . S
O170 Mg171 2.028 . S
O170 C172 1.248 . S
Mg171 O170 2.028 . S
Mg171 O176 2.032 . S
Mg171 O178 2.079 . S
C172 O169 1.250 . S
C172 O170 1.248 . S
C173 O174 1.264 . S
C173 O181 1.249 . S
O174 C173 1.264 . S
O175 Mg168 1.986 . S
O175 C179 1.246 . S
O176 Mg171 2.032 . S
O176 C179 1.259 . S
O177 Mg168 2.114 . S
O177 C180 1.252 . S
O178 Mg168 2.251 . S
O178 Mg171 2.079 . S
O178 C180 1.273 . S
C179 O175 1.246 . S
C179 O176 1.259 . S
C180 O177 1.252 . S
C180 O178 1.273 . S
O181 Mg168 2.010 . S
O181 C173 1.249 . S
Mg182 O183 2.028 . S
Mg182 O189 1.986 . S
Mg182 O191 2.114 . S
Mg182 O192 2.251 . S
Mg182 O195 2.010 . S
O183 Mg182 2.028 . S
O183 C186 1.250 . S
O184 Mg185 2.028 . S
O184 C186 1.248 . S
Mg185 O184 2.028 . S
Mg185 O190 2.032 . S
Mg185 O192 2.079 . S
C186 O183 1.250 . S
C186 O184 1.248 . S
C187 O188 1.264 . S
C187 O195 1.249 . S
O188 C187 1.264 . S
O189 Mg182 1.986 . S
O189 C193 1.246 . S
O190 Mg185 2.032 . S
O190 C193 1.259 . S
O191 Mg182 2.114 . S
O191 C194 1.252 . S
O192 Mg182 2.251 . S
O192 Mg185 2.079 . S
O192 C194 1.273 . S
C193 O189 1.246 . S
C193 O190 1.259 . S
C194 O191 1.252 . S
C194 O192 1.273 . S
O195 Mg182 2.010 . S
O195 C187 1.249 . S
Mg196 O197 2.028 . S
Mg196 O203 1.986 . S
Mg196 O205 2.114 . S
Mg196 O206 2.251 . S
Mg196 O209 2.010 . S
O197 Mg196 2.028 . S
O197 C200 1.250 . S
O198 Mg199 2.028 . S
O198 C200 1.248 . S
Mg199 O198 2.028 . S
Mg199 O204 2.032 . S
Mg199 O206 2.079 . S
C200 O197 1.250 . S
C200 O198 1.248 . S
C201 O202 1.264 . S
C201 O209 1.249 . S
O202 C201 1.264 . S
O203 Mg196 1.986 . S
O203 C207 1.246 . S
O204 Mg199 2.032 . S
O204 C207 1.259 . S
O205 Mg196 2.114 . S
O205 C208 1.252 . S
O206 Mg196 2.251 . S
O206 Mg199 2.079 . S
O206 C208 1.273 . S
C207 O203 1.246 . S
C207 O204 1.259 . S
C208 O205 1.252 . S
C208 O206 1.273 . S
O209 Mg196 2.010 . S
O209 C201 1.249 . S
Mg210 O211 2.028 . S
Mg210 O217 1.986 . S
Mg210 O219 2.114 . S
Mg210 O220 2.251 . S
Mg210 O223 2.010 . S
O211 Mg210 2.028 . S
O211 C214 1.250 . S
O212 Mg213 2.028 . S
O212 C214 1.248 . S
Mg213 O212 2.028 . S
Mg213 O218 2.032 . S
Mg213 O220 2.079 . S
C214 O211 1.250 . S
C214 O212 1.248 . S
C215 O216 1.264 . S
C215 O223 1.249 . S
O216 C215 1.264 . S
O217 Mg210 1.986 . S
O217 C221 1.246 . S
O218 Mg213 2.032 . S
O218 C221 1.259 . S
O219 Mg210 2.114 . S
O219 C222 1.252 . S
O220 Mg210 2.251 . S
O220 Mg213 2.079 . S
O220 C222 1.273 . S
C221 O217 1.246 . S
C221 O218 1.259 . S
C222 O219 1.252 . S
C222 O220 1.273 . S
O223 Mg210 2.010 . S
O223 C215 1.249 . S
C224 C225 1.363 . S
C224 C230 1.379 . S
C224 N232 1.356 . S
C225 C224 1.363 . S
C225 C231 1.363 . S
C226 C227 1.363 . S
C226 C231 1.379 . S
C226 N233 1.356 . S
C227 C226 1.363 . S
C227 C230 1.363 . S
N228 C230 1.356 . S
N228 H240 0.984 . S
N228 H241 0.985 . S
N229 C231 1.356 . S
N229 H234 0.984 . S
N229 H235 0.985 . S
C230 C224 1.379 . S
C230 C227 1.363 . S
C230 N228 1.356 . S
C231 C225 1.363 . S
C231 C226 1.379 . S
C231 N229 1.356 . S
N232 C224 1.356 . S
N232 H238 0.984 . S
N232 H239 0.984 . S
N233 C226 1.356 . S
N233 H236 0.984 . S
N233 H237 0.985 . S
H234 N229 0.984 . S
H235 N229 0.985 . S
H236 N233 0.984 . S
H237 N233 0.985 . S
H238 N232 0.984 . S
H239 N232 0.984 . S
H240 N228 0.984 . S
H241 N228 0.985 . S
C242 C243 1.363 . S
C242 C248 1.379 . S
C242 N250 1.356 . S
C243 C242 1.363 . S
C243 C249 1.363 . S
C244 C245 1.363 . S
C244 C249 1.379 . S
C244 N251 1.356 . S
C245 C244 1.363 . S
C245 C248 1.363 . S
N246 C248 1.356 . S
N246 H258 0.984 . S
N246 H259 0.985 . S
N247 C249 1.356 . S
N247 H252 0.984 . S
N247 H253 0.985 . S
C248 C242 1.379 . S
C248 C245 1.363 . S
C248 N246 1.356 . S
C249 C243 1.363 . S
C249 C244 1.379 . S
C249 N247 1.356 . S
N250 C242 1.356 . S
N250 H256 0.984 . S
N250 H257 0.984 . S
N251 C244 1.356 . S
N251 H254 0.984 . S
N251 H255 0.985 . S
H252 N247 0.984 . S
H253 N247 0.985 . S
H254 N251 0.984 . S
H255 N251 0.985 . S
H256 N250 0.984 . S
H257 N250 0.984 . S
H258 N246 0.984 . S
H259 N246 0.985 . S
C260 C261 1.363 . S
C260 C266 1.379 . S
C260 N268 1.356 . S
C261 C260 1.363 . S
C261 C267 1.363 . S
C262 C263 1.363 . S
C262 C267 1.379 . S
C262 N269 1.356 . S
C263 C262 1.363 . S
C263 C266 1.363 . S
N264 C266 1.356 . S
N264 H276 0.984 . S
N264 H277 0.985 . S
N265 C267 1.356 . S
N265 H270 0.984 . S
N265 H271 0.985 . S
C266 C260 1.379 . S
C266 C263 1.363 . S
C266 N264 1.356 . S
C267 C261 1.363 . S
C267 C262 1.379 . S
C267 N265 1.356 . S
N268 C260 1.356 . S
N268 H274 0.984 . S
N268 H275 0.984 . S
N269 C262 1.356 . S
N269 H272 0.984 . S
N269 H273 0.985 . S
H270 N265 0.984 . S
H271 N265 0.985 . S
H272 N269 0.984 . S
H273 N269 0.985 . S
H274 N268 0.984 . S
H275 N268 0.984 . S
H276 N264 0.984 . S
H277 N264 0.985 . S
C278 C279 1.363 . S
C278 C284 1.379 . S
C278 N286 1.356 . S
C279 C278 1.363 . S
C279 C285 1.363 . S
C280 C281 1.363 . S
C280 C285 1.379 . S
C280 N287 1.356 . S
C281 C280 1.363 . S
C281 C284 1.363 . S
N282 C284 1.356 . S
N282 H294 0.984 . S
N282 H295 0.985 . S
N283 C285 1.356 . S
N283 H288 0.984 . S
N283 H289 0.985 . S
C284 C278 1.379 . S
C284 C281 1.363 . S
C284 N282 1.356 . S
C285 C279 1.363 . S
C285 C280 1.379 . S
C285 N283 1.356 . S
N286 C278 1.356 . S
N286 H292 0.984 . S
N286 H293 0.984 . S
N287 C280 1.356 . S
N287 H290 0.984 . S
N287 H291 0.985 . S
H288 N283 0.984 . S
H289 N283 0.985 . S
H290 N287 0.984 . S
H291 N287 0.985 . S
H292 N286 0.984 . S
H293 N286 0.984 . S
H294 N282 0.984 . S
H295 N282 0.985 . S
C296 C297 1.363 . S
C296 C302 1.379 . S
C296 N304 1.356 . S
C297 C296 1.363 . S
C297 C303 1.363 . S
C298 C299 1.363 . S
C298 C303 1.379 . S
C298 N305 1.356 . S
C299 C298 1.363 . S
C299 C302 1.363 . S
N300 C302 1.356 . S
N300 H312 0.984 . S
N300 H313 0.985 . S
N301 C303 1.356 . S
N301 H306 0.984 . S
N301 H307 0.985 . S
C302 C296 1.379 . S
C302 C299 1.363 . S
C302 N300 1.356 . S
C303 C297 1.363 . S
C303 C298 1.379 . S
C303 N301 1.356 . S
N304 C296 1.356 . S
N304 H310 0.984 . S
N304 H311 0.984 . S
N305 C298 1.356 . S
N305 H308 0.984 . S
N305 H309 0.985 . S
H306 N301 0.984 . S
H307 N301 0.985 . S
H308 N305 0.984 . S
H309 N305 0.985 . S
H310 N304 0.984 . S
H311 N304 0.984 . S
H312 N300 0.984 . S
H313 N300 0.985 . S
C314 C315 1.363 . S
C314 C320 1.379 . S
C314 N322 1.356 . S
C315 C314 1.363 . S
C315 C321 1.363 . S
C316 C317 1.363 . S
C316 C321 1.379 . S
C316 N323 1.356 . S
C317 C316 1.363 . S
C317 C320 1.363 . S
N318 C320 1.356 . S
N318 H330 0.984 . S
N318 H331 0.985 . S
N319 C321 1.356 . S
N319 H324 0.984 . S
N319 H325 0.985 . S
C320 C314 1.379 . S
C320 C317 1.363 . S
C320 N318 1.356 . S
C321 C315 1.363 . S
C321 C316 1.379 . S
C321 N319 1.356 . S
N322 C314 1.356 . S
N322 H328 0.984 . S
N322 H329 0.984 . S
N323 C316 1.356 . S
N323 H326 0.984 . S
N323 H327 0.985 . S
H324 N319 0.984 . S
H325 N319 0.985 . S
H326 N323 0.984 . S
H327 N323 0.985 . S
H328 N322 0.984 . S
H329 N322 0.984 . S
H330 N318 0.984 . S
H331 N318 0.985 . S
C332 C333 1.363 . S
C332 C338 1.379 . S
C332 N340 1.356 . S
C333 C332 1.363 . S
C333 C339 1.363 . S
C334 C335 1.363 . S
C334 C339 1.379 . S
C334 N341 1.356 . S
C335 C334 1.363 . S
C335 C338 1.363 . S
N336 C338 1.356 . S
N336 H348 0.984 . S
N336 H349 0.985 . S
N337 C339 1.356 . S
N337 H342 0.984 . S
N337 H343 0.985 . S
C338 C332 1.379 . S
C338 C335 1.363 . S
C338 N336 1.356 . S
C339 C333 1.363 . S
C339 C334 1.379 . S
C339 N337 1.356 . S
N340 C332 1.356 . S
N340 H346 0.984 . S
N340 H347 0.984 . S
N341 C334 1.356 . S
N341 H344 0.984 . S
N341 H345 0.985 . S
H342 N337 0.984 . S
H343 N337 0.985 . S
H344 N341 0.984 . S
H345 N341 0.985 . S
H346 N340 0.984 . S
H347 N340 0.984 . S
H348 N336 0.984 . S
H349 N336 0.985 . S
C350 C351 1.363 . S
C350 C356 1.379 . S
C350 N358 1.356 . S
C351 C350 1.363 . S
C351 C357 1.363 . S
C352 C353 1.363 . S
C352 C357 1.379 . S
C352 N359 1.356 . S
C353 C352 1.363 . S
C353 C356 1.363 . S
N354 C356 1.356 . S
N354 H366 0.984 . S
N354 H367 0.985 . S
N355 C357 1.356 . S
N355 H360 0.984 . S
N355 H361 0.985 . S
C356 C350 1.379 . S
C356 C353 1.363 . S
C356 N354 1.356 . S
C357 C351 1.363 . S
C357 C352 1.379 . S
C357 N355 1.356 . S
N358 C350 1.356 . S
N358 H364 0.984 . S
N358 H365 0.984 . S
N359 C352 1.356 . S
N359 H362 0.984 . S
N359 H363 0.985 . S
H360 N355 0.984 . S
H361 N355 0.985 . S
H362 N359 0.984 . S
H363 N359 0.985 . S
H364 N358 0.984 . S
H365 N358 0.984 . S
H366 N354 0.984 . S
H367 N354 0.985 . S
C368 C369 1.363 . S
C368 C374 1.379 1_556 S
C368 N376 1.356 . S
C369 C368 1.363 . S
C369 C375 1.363 . S
C370 C371 1.363 . S
C370 C375 1.379 1_554 S
C370 N377 1.356 . S
C371 C370 1.363 . S
C371 C374 1.363 . S
N372 C374 1.356 . S
N372 H384 0.984 . S
N372 H385 0.985 . S
N373 C375 1.356 . S
N373 H378 0.984 . S
N373 H379 0.985 . S
C374 C368 1.379 1_554 S
C374 C371 1.363 . S
C374 N372 1.356 . S
C375 C369 1.363 . S
C375 C370 1.379 1_556 S
C375 N373 1.356 . S
N376 C368 1.356 . S
N376 H382 0.984 . S
N376 H383 0.984 . S
N377 C370 1.356 . S
N377 H380 0.984 . S
N377 H381 0.985 . S
H378 N373 0.984 . S
H379 N373 0.985 . S
H380 N377 0.984 . S
H381 N377 0.985 . S
H382 N376 0.984 . S
H383 N376 0.984 . S
H384 N372 0.984 . S
H385 N372 0.985 . S
C386 C387 1.363 . S
C386 C392 1.379 1_556 S
C386 N394 1.356 . S
C387 C386 1.363 . S
C387 C393 1.363 . S
C388 C389 1.363 . S
C388 C393 1.379 1_554 S
C388 N395 1.356 . S
C389 C388 1.363 . S
C389 C392 1.363 . S
N390 C392 1.356 . S
N390 H402 0.984 . S
N390 H403 0.985 . S
N391 C393 1.356 . S
N391 H396 0.984 . S
N391 H397 0.985 . S
C392 C386 1.379 1_554 S
C392 C389 1.363 . S
C392 N390 1.356 . S
C393 C387 1.363 . S
C393 C388 1.379 1_556 S
C393 N391 1.356 . S
N394 C386 1.356 . S
N394 H400 0.984 . S
N394 H401 0.984 . S
N395 C388 1.356 . S
N395 H398 0.984 . S
N395 H399 0.985 . S
H396 N391 0.984 . S
H397 N391 0.985 . S
H398 N395 0.984 . S
H399 N395 0.985 . S
H400 N394 0.984 . S
H401 N394 0.984 . S
H402 N390 0.984 . S
H403 N390 0.985 . S
C404 C405 1.363 . S
C404 C410 1.379 1_556 S
C404 N412 1.356 . S
C405 C404 1.363 . S
C405 C411 1.363 . S
C406 C407 1.363 . S
C406 C411 1.379 1_554 S
C406 N413 1.356 . S
C407 C406 1.363 . S
C407 C410 1.363 . S
N408 C410 1.356 . S
N408 H420 0.984 . S
N408 H421 0.985 . S
N409 C411 1.356 . S
N409 H414 0.984 . S
N409 H415 0.985 . S
C410 C404 1.379 1_554 S
C410 C407 1.363 . S
C410 N408 1.356 . S
C411 C405 1.363 . S
C411 C406 1.379 1_556 S
C411 N409 1.356 . S
N412 C404 1.356 . S
N412 H418 0.984 . S
N412 H419 0.984 . S
N413 C406 1.356 . S
N413 H416 0.984 . S
N413 H417 0.985 . S
H414 N409 0.984 . S
H415 N409 0.985 . S
H416 N413 0.984 . S
H417 N413 0.985 . S
H418 N412 0.984 . S
H419 N412 0.984 . S
H420 N408 0.984 . S
H421 N408 0.985 . S
C422 C423 1.363 . S
C422 C428 1.379 1_554 S
C422 N430 1.356 . S
C423 C422 1.363 . S
C423 C429 1.363 . S
C424 C425 1.363 . S
C424 C429 1.379 1_556 S
C424 N431 1.356 . S
C425 C424 1.363 . S
C425 C428 1.363 . S
N426 C428 1.356 . S
N426 H438 0.984 . S
N426 H439 0.985 . S
N427 C429 1.356 . S
N427 H432 0.984 . S
N427 H433 0.985 . S
C428 C422 1.379 1_556 S
C428 C425 1.363 . S
C428 N426 1.356 . S
C429 C423 1.363 . S
C429 C424 1.379 1_554 S
C429 N427 1.356 . S
N430 C422 1.356 . S
N430 H436 0.984 . S
N430 H437 0.984 . S
N431 C424 1.356 . S
N431 H434 0.984 . S
N431 H435 0.985 . S
H432 N427 0.984 . S
H433 N427 0.985 . S
H434 N431 0.984 . S
H435 N431 0.985 . S
H436 N430 0.984 . S
H437 N430 0.984 . S
H438 N426 0.984 . S
H439 N426 0.985 . S
C440 C441 1.363 . S
C440 C446 1.379 . S
C440 N448 1.356 . S
C441 C440 1.363 . S
C441 C447 1.363 . S
C442 C443 1.363 . S
C442 C447 1.379 . S
C442 N449 1.356 . S
C443 C442 1.363 . S
C443 C446 1.363 . S
N444 C446 1.356 . S
N444 H456 0.984 . S
N444 H457 0.985 . S
N445 C447 1.356 . S
N445 H450 0.984 . S
N445 H451 0.985 . S
C446 C440 1.379 . S
C446 C443 1.363 . S
C446 N444 1.356 . S
C447 C441 1.363 . S
C447 C442 1.379 . S
C447 N445 1.356 . S
N448 C440 1.356 . S
N448 H454 0.984 . S
N448 H455 0.984 . S
N449 C442 1.356 . S
N449 H452 0.984 . S
N449 H453 0.985 . S
H450 N445 0.984 . S
H451 N445 0.985 . S
H452 N449 0.984 . S
H453 N449 0.985 . S
H454 N448 0.984 . S
H455 N448 0.984 . S
H456 N444 0.984 . S
H457 N444 0.985 . S
C458 C459 1.363 . S
C458 C464 1.379 . S
C458 N466 1.356 . S
C459 C458 1.363 . S
C459 C465 1.363 . S
C460 C461 1.363 . S
C460 C465 1.379 . S
C460 N467 1.356 . S
C461 C460 1.363 . S
C461 C464 1.363 . S
N462 C464 1.356 . S
N462 H474 0.984 . S
N462 H475 0.985 . S
N463 C465 1.356 . S
N463 H468 0.984 . S
N463 H469 0.985 . S
C464 C458 1.379 . S
C464 C461 1.363 . S
C464 N462 1.356 . S
C465 C459 1.363 . S
C465 C460 1.379 . S
C465 N463 1.356 . S
N466 C458 1.356 . S
N466 H472 0.984 . S
N466 H473 0.984 . S
N467 C460 1.356 . S
N467 H470 0.984 . S
N467 H471 0.985 . S
H468 N463 0.984 . S
H469 N463 0.985 . S
H470 N467 0.984 . S
H471 N467 0.985 . S
H472 N466 0.984 . S
H473 N466 0.984 . S
H474 N462 0.984 . S
H475 N462 0.985 . S
C476 C477 1.363 . S
C476 C482 1.379 . S
C476 N484 1.356 . S
C477 C476 1.363 . S
C477 C483 1.363 . S
C478 C479 1.363 . S
C478 C483 1.379 . S
C478 N485 1.356 . S
C479 C478 1.363 . S
C479 C482 1.363 . S
N480 C482 1.356 . S
N480 H492 0.984 . S
N480 H493 0.985 . S
N481 C483 1.356 . S
N481 H486 0.984 . S
N481 H487 0.985 . S
C482 C476 1.379 . S
C482 C479 1.363 . S
C482 N480 1.356 . S
C483 C477 1.363 . S
C483 C478 1.379 . S
C483 N481 1.356 . S
N484 C476 1.356 . S
N484 H490 0.984 . S
N484 H491 0.984 . S
N485 C478 1.356 . S
N485 H488 0.984 . S
N485 H489 0.985 . S
H486 N481 0.984 . S
H487 N481 0.985 . S
H488 N485 0.984 . S
H489 N485 0.985 . S
H490 N484 0.984 . S
H491 N484 0.984 . S
H492 N480 0.984 . S
H493 N480 0.985 . S
C494 C495 1.363 . S
C494 C500 1.379 . S
C494 N502 1.356 . S
C495 C494 1.363 . S
C495 C501 1.363 . S
C496 C497 1.363 . S
C496 C501 1.379 . S
C496 N503 1.356 . S
C497 C496 1.363 . S
C497 C500 1.363 . S
N498 C500 1.356 . S
N498 H510 0.984 . S
N498 H511 0.985 . S
N499 C501 1.356 . S
N499 H504 0.984 . S
N499 H505 0.985 . S
C500 C494 1.379 . S
C500 C497 1.363 . S
C500 N498 1.356 . S
C501 C495 1.363 . S
C501 C496 1.379 . S
C501 N499 1.356 . S
N502 C494 1.356 . S
N502 H508 0.984 . S
N502 H509 0.984 . S
N503 C496 1.356 . S
N503 H506 0.984 . S
N503 H507 0.985 . S
H504 N499 0.984 . S
H505 N499 0.985 . S
H506 N503 0.984 . S
H507 N503 0.985 . S
H508 N502 0.984 . S
H509 N502 0.984 . S
H510 N498 0.984 . S
H511 N498 0.985 . S
C512 C513 1.363 . S
C512 C518 1.379 . S
C512 N520 1.356 . S
C513 C512 1.363 . S
C513 C519 1.363 . S
C514 C515 1.363 . S
C514 C519 1.379 . S
C514 N521 1.356 . S
C515 C514 1.363 . S
C515 C518 1.363 . S
N516 C518 1.356 . S
N516 H528 0.984 . S
N516 H529 0.985 . S
N517 C519 1.356 . S
N517 H522 0.984 . S
N517 H523 0.985 . S
C518 C512 1.379 . S
C518 C515 1.363 . S
C518 N516 1.356 . S
C519 C513 1.363 . S
C519 C514 1.379 . S
C519 N517 1.356 . S
N520 C512 1.356 . S
N520 H526 0.984 . S
N520 H527 0.984 . S
N521 C514 1.356 . S
N521 H524 0.984 . S
N521 H525 0.985 . S
H522 N517 0.984 . S
H523 N517 0.985 . S
H524 N521 0.984 . S
H525 N521 0.985 . S
H526 N520 0.984 . S
H527 N520 0.984 . S
H528 N516 0.984 . S
H529 N516 0.985 . S
C530 C531 1.363 . S
C530 C536 1.379 . S
C530 N538 1.356 . S
C531 C530 1.363 . S
C531 C537 1.363 . S
C532 C533 1.363 . S
C532 C537 1.379 . S
C532 N539 1.356 . S
C533 C532 1.363 . S
C533 C536 1.363 . S
N534 C536 1.356 . S
N534 H546 0.984 . S
N534 H547 0.985 . S
N535 C537 1.356 . S
N535 H540 0.984 . S
N535 H541 0.985 . S
C536 C530 1.379 . S
C536 C533 1.363 . S
C536 N534 1.356 . S
C537 C531 1.363 . S
C537 C532 1.379 . S
C537 N535 1.356 . S
N538 C530 1.356 . S
N538 H544 0.984 . S
N538 H545 0.984 . S
N539 C532 1.356 . S
N539 H542 0.984 . S
N539 H543 0.985 . S
H540 N535 0.984 . S
H541 N535 0.985 . S
H542 N539 0.984 . S
H543 N539 0.985 . S
H544 N538 0.984 . S
H545 N538 0.984 . S
H546 N534 0.984 . S
H547 N534 0.985 . S
C548 C549 1.363 . S
C548 C554 1.379 . S
C548 N556 1.356 . S
C549 C548 1.363 . S
C549 C555 1.363 . S
C550 C551 1.363 . S
C550 C555 1.379 . S
C550 N557 1.356 . S
C551 C550 1.363 . S
C551 C554 1.363 . S
N552 C554 1.356 . S
N552 H564 0.984 . S
N552 H565 0.985 . S
N553 C555 1.356 . S
N553 H558 0.984 . S
N553 H559 0.985 . S
C554 C548 1.379 . S
C554 C551 1.363 . S
C554 N552 1.356 . S
C555 C549 1.363 . S
C555 C550 1.379 . S
C555 N553 1.356 . S
N556 C548 1.356 . S
N556 H562 0.984 . S
N556 H563 0.984 . S
N557 C550 1.356 . S
N557 H560 0.984 . S
N557 H561 0.985 . S
H558 N553 0.984 . S
H559 N553 0.985 . S
H560 N557 0.984 . S
H561 N557 0.985 . S
H562 N556 0.984 . S
H563 N556 0.984 . S
H564 N552 0.984 . S
H565 N552 0.985 . S
C566 C567 1.363 . S
C566 C572 1.379 . S
C566 N574 1.356 . S
C567 C566 1.363 . S
C567 C573 1.363 . S
C568 C569 1.363 . S
C568 C573 1.379 . S
C568 N575 1.356 . S
C569 C568 1.363 . S
C569 C572 1.363 . S
N570 C572 1.356 . S
N570 H582 0.984 . S
N570 H583 0.985 . S
N571 C573 1.356 . S
N571 H576 0.984 . S
N571 H577 0.985 . S
C572 C566 1.379 . S
C572 C569 1.363 . S
C572 N570 1.356 . S
C573 C567 1.363 . S
C573 C568 1.379 . S
C573 N571 1.356 . S
N574 C566 1.356 . S
N574 H580 0.984 . S
N574 H581 0.984 . S
N575 C568 1.356 . S
N575 H578 0.984 . S
N575 H579 0.985 . S
H576 N571 0.984 . S
H577 N571 0.985 . S
H578 N575 0.984 . S
H579 N575 0.985 . S
H580 N574 0.984 . S
H581 N574 0.984 . S
H582 N570 0.984 . S
H583 N570 0.985 . S
C584 C585 1.363 . S
C584 C590 1.379 . S
C584 N592 1.356 . S
C585 C584 1.363 . S
C585 C591 1.363 . S
C586 C587 1.363 . S
C586 C591 1.379 . S
C586 N593 1.356 . S
C587 C586 1.363 . S
C587 C590 1.363 . S
N588 C590 1.356 . S
N588 H600 0.984 . S
N588 H601 0.985 . S
N589 C591 1.356 . S
N589 H594 0.984 . S
N589 H595 0.985 . S
C590 C584 1.379 . S
C590 C587 1.363 . S
C590 N588 1.356 . S
C591 C585 1.363 . S
C591 C586 1.379 . S
C591 N589 1.356 . S
N592 C584 1.356 . S
N592 H598 0.984 . S
N592 H599 0.984 . S
N593 C586 1.356 . S
N593 H596 0.984 . S
N593 H597 0.985 . S
H594 N589 0.984 . S
H595 N589 0.985 . S
H596 N593 0.984 . S
H597 N593 0.985 . S
H598 N592 0.984 . S
H599 N592 0.984 . S
H600 N588 0.984 . S
H601 N588 0.985 . S
C602 C603 1.363 . S
C602 C608 1.379 . S
C602 N610 1.356 . S
C603 C602 1.363 . S
C603 C609 1.363 . S
C604 C605 1.363 . S
C604 C609 1.379 . S
C604 N611 1.356 . S
C605 C604 1.363 . S
C605 C608 1.363 . S
N606 C608 1.356 . S
N606 H618 0.984 . S
N606 H619 0.985 . S
N607 C609 1.356 . S
N607 H612 0.984 . S
N607 H613 0.985 . S
C608 C602 1.379 . S
C608 C605 1.363 . S
C608 N606 1.356 . S
C609 C603 1.363 . S
C609 C604 1.379 . S
C609 N607 1.356 . S
N610 C602 1.356 . S
N610 H616 0.984 . S
N610 H617 0.984 . S
N611 C604 1.356 . S
N611 H614 0.984 . S
N611 H615 0.985 . S
H612 N607 0.984 . S
H613 N607 0.985 . S
H614 N611 0.984 . S
H615 N611 0.985 . S
H616 N610 0.984 . S
H617 N610 0.984 . S
H618 N606 0.984 . S
H619 N606 0.985 . S
C620 C621 1.363 . S
C620 C626 1.379 . S
C620 N628 1.356 . S
C621 C620 1.363 . S
C621 C627 1.363 . S
C622 C623 1.363 . S
C622 C627 1.379 . S
C622 N629 1.356 . S
C623 C622 1.363 . S
C623 C626 1.363 . S
N624 C626 1.356 . S
N624 H636 0.984 . S
N624 H637 0.985 . S
N625 C627 1.356 . S
N625 H630 0.984 . S
N625 H631 0.985 . S
C626 C620 1.379 . S
C626 C623 1.363 . S
C626 N624 1.356 . S
C627 C621 1.363 . S
C627 C622 1.379 . S
C627 N625 1.356 . S
N628 C620 1.356 . S
N628 H634 0.984 . S
N628 H635 0.984 . S
N629 C622 1.356 . S
N629 H632 0.984 . S
N629 H633 0.985 . S
H630 N625 0.984 . S
H631 N625 0.985 . S
H632 N629 0.984 . S
H633 N629 0.985 . S
H634 N628 0.984 . S
H635 N628 0.984 . S
H636 N624 0.984 . S
H637 N624 0.985 . S
C638 C639 1.363 . S
C638 C644 1.379 . S
C638 N646 1.356 . S
C639 C638 1.363 . S
C639 C645 1.363 . S
C640 C641 1.363 . S
C640 C645 1.379 . S
C640 N647 1.356 . S
C641 C640 1.363 . S
C641 C644 1.363 . S
N642 C644 1.356 . S
N642 H654 0.984 . S
N642 H655 0.985 . S
N643 C645 1.356 . S
N643 H648 0.984 . S
N643 H649 0.985 . S
C644 C638 1.379 . S
C644 C641 1.363 . S
C644 N642 1.356 . S
C645 C639 1.363 . S
C645 C640 1.379 . S
C645 N643 1.356 . S
N646 C638 1.356 . S
N646 H652 0.984 . S
N646 H653 0.984 . S
N647 C640 1.356 . S
N647 H650 0.984 . S
N647 H651 0.985 . S
H648 N643 0.984 . S
H649 N643 0.985 . S
H650 N647 0.984 . S
H651 N647 0.985 . S
H652 N646 0.984 . S
H653 N646 0.984 . S
H654 N642 0.984 . S
H655 N642 0.985 . S
C656 C657 1.363 . S
C656 C662 1.379 1_545 S
C656 N664 1.356 . S
C657 C656 1.363 . S
C657 C663 1.363 . S
C658 C659 1.363 . S
C658 C663 1.379 1_565 S
C658 N665 1.356 . S
C659 C658 1.363 . S
C659 C662 1.363 . S
N660 C662 1.356 . S
N660 H672 0.984 . S
N660 H673 0.985 . S
N661 C663 1.356 . S
N661 H666 0.984 . S
N661 H667 0.985 . S
C662 C656 1.379 1_565 S
C662 C659 1.363 . S
C662 N660 1.356 . S
C663 C657 1.363 . S
C663 C658 1.379 1_545 S
C663 N661 1.356 . S
N664 C656 1.356 . S
N664 H670 0.984 . S
N664 H671 0.984 . S
N665 C658 1.356 . S
N665 H668 0.984 . S
N665 H669 0.985 . S
H666 N661 0.984 . S
H667 N661 0.985 . S
H668 N665 0.984 . S
H669 N665 0.985 . S
H670 N664 0.984 . S
H671 N664 0.984 . S
H672 N660 0.984 . S
H673 N660 0.985 . S
C674 C675 1.363 . S
C674 C680 1.379 1_655 S
C674 N682 1.356 . S
C675 C674 1.363 . S
C675 C681 1.363 . S
C676 C677 1.363 . S
C676 C681 1.379 1_455 S
C676 N683 1.356 . S
C677 C676 1.363 . S
C677 C680 1.363 . S
N678 C680 1.356 . S
N678 H690 0.984 . S
N678 H691 0.985 . S
N679 C681 1.356 . S
N679 H684 0.984 . S
N679 H685 0.985 . S
C680 C674 1.379 1_455 S
C680 C677 1.363 . S
C680 N678 1.356 . S
C681 C675 1.363 . S
C681 C676 1.379 1_655 S
C681 N679 1.356 . S
N682 C674 1.356 . S
N682 H688 0.984 . S
N682 H689 0.984 . S
N683 C676 1.356 . S
N683 H686 0.984 . S
N683 H687 0.985 . S
H684 N679 0.984 . S
H685 N679 0.985 . S
H686 N683 0.984 . S
H687 N683 0.985 . S
H688 N682 0.984 . S
H689 N682 0.984 . S
H690 N678 0.984 . S
H691 N678 0.985 . S
C692 C693 1.363 . S
C692 C698 1.379 1_545 S
C692 N700 1.356 . S
C693 C692 1.363 . S
C693 C699 1.363 . S
C694 C695 1.363 . S
C694 C699 1.379 1_565 S
C694 N701 1.356 . S
C695 C694 1.363 . S
C695 C698 1.363 . S
N696 C698 1.356 . S
N696 H708 0.984 . S
N696 H709 0.985 . S
N697 C699 1.356 . S
N697 H702 0.984 . S
N697 H703 0.985 . S
C698 C692 1.379 1_565 S
C698 C695 1.363 . S
C698 N696 1.356 . S
C699 C693 1.363 . S
C699 C694 1.379 1_545 S
C699 N697 1.356 . S
N700 C692 1.356 . S
N700 H706 0.984 . S
N700 H707 0.984 . S
N701 C694 1.356 . S
N701 H704 0.984 . S
N701 H705 0.985 . S
H702 N697 0.984 . S
H703 N697 0.985 . S
H704 N701 0.984 . S
H705 N701 0.985 . S
H706 N700 0.984 . S
H707 N700 0.984 . S
H708 N696 0.984 . S
H709 N696 0.985 . S
C710 C711 1.363 . S
C710 C716 1.379 1_455 S
C710 N718 1.356 . S
C711 C710 1.363 . S
C711 C717 1.363 . S
C712 C713 1.363 . S
C712 C717 1.379 1_655 S
C712 N719 1.356 . S
C713 C712 1.363 . S
C713 C716 1.363 . S
N714 C716 1.356 . S
N714 H726 0.984 . S
N714 H727 0.985 . S
N715 C717 1.356 . S
N715 H720 0.984 . S
N715 H721 0.985 . S
C716 C710 1.379 1_655 S
C716 C713 1.363 . S
C716 N714 1.356 . S
C717 C711 1.363 . S
C717 C712 1.379 1_455 S
C717 N715 1.356 . S
N718 C710 1.356 . S
N718 H724 0.984 . S
N718 H725 0.984 . S
N719 C712 1.356 . S
N719 H722 0.984 . S
N719 H723 0.985 . S
H720 N715 0.984 . S
H721 N715 0.985 . S
H722 N719 0.984 . S
H723 N719 0.985 . S
H724 N718 0.984 . S
H725 N718 0.984 . S
H726 N714 0.984 . S
H727 N714 0.985 . S
C728 C729 1.363 . S
C728 C734 1.379 1_545 S
C728 N736 1.356 . S
C729 C728 1.363 . S
C729 C735 1.363 . S
C730 C731 1.363 . S
C730 C735 1.379 1_565 S
C730 N737 1.356 . S
C731 C730 1.363 . S
C731 C734 1.363 . S
N732 C734 1.356 . S
N732 H744 0.984 . S
N732 H745 0.985 . S
N733 C735 1.356 . S
N733 H738 0.984 . S
N733 H739 0.985 . S
C734 C728 1.379 1_565 S
C734 C731 1.363 . S
C734 N732 1.356 . S
C735 C729 1.363 . S
C735 C730 1.379 1_545 S
C735 N733 1.356 . S
N736 C728 1.356 . S
N736 H742 0.984 . S
N736 H743 0.984 . S
N737 C730 1.356 . S
N737 H740 0.984 . S
N737 H741 0.985 . S
H738 N733 0.984 . S
H739 N733 0.985 . S
H740 N737 0.984 . S
H741 N737 0.985 . S
H742 N736 0.984 . S
H743 N736 0.984 . S
H744 N732 0.984 . S
H745 N732 0.985 . S
C746 C747 1.363 . S
C746 C752 1.379 1_655 S
C746 N754 1.356 . S
C747 C746 1.363 . S
C747 C753 1.363 . S
C748 C749 1.363 . S
C748 C753 1.379 1_455 S
C748 N755 1.356 . S
C749 C748 1.363 . S
C749 C752 1.363 . S
N750 C752 1.356 . S
N750 H762 0.984 . S
N750 H763 0.985 . S
N751 C753 1.356 . S
N751 H756 0.984 . S
N751 H757 0.985 . S
C752 C746 1.379 1_455 S
C752 C749 1.363 . S
C752 N750 1.356 . S
C753 C747 1.363 . S
C753 C748 1.379 1_655 S
C753 N751 1.356 . S
N754 C746 1.356 . S
N754 H760 0.984 . S
N754 H761 0.984 . S
N755 C748 1.356 . S
N755 H758 0.984 . S
N755 H759 0.985 . S
H756 N751 0.984 . S
H757 N751 0.985 . S
H758 N755 0.984 . S
H759 N755 0.985 . S
H760 N754 0.984 . S
H761 N754 0.984 . S
H762 N750 0.984 . S
H763 N750 0.985 . S
C764 C765 1.363 . S
C764 C770 1.379 1_565 S
C764 N772 1.356 . S
C765 C764 1.363 . S
C765 C771 1.363 . S
C766 C767 1.363 . S
C766 C771 1.379 1_545 S
C766 N773 1.356 . S
C767 C766 1.363 . S
C767 C770 1.363 . S
N768 C770 1.356 . S
N768 H780 1.002 . S
N768 H781 0.985 . S
N769 C771 1.356 . S
N769 H774 0.984 . S
N769 H775 1.002 . S
C770 C764 1.379 1_545 S
C770 C767 1.363 . S
C770 N768 1.356 . S
C771 C765 1.363 . S
C771 C766 1.379 1_565 S
C771 N769 1.356 . S
N772 C764 1.356 . S
N772 H778 0.984 . S
N772 H779 0.984 . S
N773 C766 1.356 . S
N773 H776 0.984 . S
N773 H777 0.985 . S
H774 N769 0.984 . S
H775 N769 1.002 . S
H776 N773 0.984 . S
H777 N773 0.985 . S
H778 N772 0.984 . S
H779 N772 0.984 . S
H780 N768 1.002 . S
H781 N768 0.985 . S
C782 C783 1.363 . S
C782 C788 1.379 1_455 S
C782 N790 1.356 . S
C783 C782 1.363 . S
C783 C789 1.363 . S
C784 C785 1.363 . S
C784 C789 1.379 1_655 S
C784 N791 1.356 . S
C785 C784 1.363 . S
C785 C788 1.363 . S
N786 C788 1.356 . S
N786 H798 0.984 . S
N786 H799 0.985 . S
N787 C789 1.356 . S
N787 H792 0.984 . S
N787 H793 0.985 . S
C788 C782 1.379 1_655 S
C788 C785 1.363 . S
C788 N786 1.356 . S
C789 C783 1.363 . S
C789 C784 1.379 1_455 S
C789 N787 1.356 . S
N790 C782 1.356 . S
N790 H796 0.984 . S
N790 H797 0.984 . S
N791 C784 1.356 . S
N791 H794 0.984 . S
N791 H795 0.985 . S
H792 N787 0.984 . S
H793 N787 0.985 . S
H794 N791 0.984 . S
H795 N791 0.985 . S
H796 N790 0.984 . S
H797 N790 0.984 . S
H798 N786 0.984 . S
H799 N786 0.985 . S
C225 C81 1.284 . S
C227 C11 1.284 . S
C243 C95 1.284 . S
C245 C25 1.284 . S
C261 C39 1.284 . S
C263 C109 1.284 . S
C279 C53 1.284 . S
C281 C67 1.284 . S
C297 C193 1.284 . S
C299 C123 1.284 . S
C315 C207 1.284 . S
C317 C137 1.284 . S
C333 C151 1.284 . S
C335 C221 1.284 . S
C351 C165 1.284 . S
C353 C179 1.284 . S
C369 C152 1.547 . S
C371 C12 1.547 . S
C387 C166 1.547 . S
C389 C26 1.547 . S
C405 C124 1.547 . S
C407 C40 1.547 . S
C423 C54 1.547 . S
C425 C138 1.547 . S
C441 C208 1.547 . S
C443 C68 1.547 . S
C459 C222 1.547 . S
C461 C82 1.547 . S
C477 C96 1.547 . S
C479 C180 1.547 . S
C495 C194 1.547 . S
C497 C110 1.547 . S
C513 C61 1.123 . S
C515 C5 1.123 . S
C531 C19 1.123 . S
C533 C75 1.123 . S
C549 C33 1.123 . S
C551 C89 1.123 . S
C567 C103 1.123 . S
C569 C47 1.123 . S
C585 C116 1.646 . S
C587 C172 1.646 . S
C603 C186 1.646 . S
C605 C130 1.646 . S
C621 C144 1.646 . S
C623 C200 1.646 . S
C639 C214 1.646 . S
C641 C158 1.646 . S
C657 C159 1.123 . S
C659 C187 1.123 . S
C675 C117 1.123 . S
C677 C201 1.123 . S
C693 C215 1.123 . S
C695 C131 1.123 . S
C711 C145 1.123 . S
C713 C173 1.123 . S
C729 C74 1.646 . S
C731 C46 1.646 . S
C747 C88 1.646 . S
C749 C4 1.646 . S
C765 C102 1.646 . S
C767 C18 1.646 . S
C783 C60 1.646 . S
C785 C32 1.646 . S
