# Generated by pormake.
# Topology wfz, (7)-cn, num edge types: 1
# Building blocks:
#     Node 0, Type 0, BuildingBlock: HICVOG_clean_sbu_0, # of connection points: 7
#     Node 1, Type 0, BuildingBlock: HICVOG_clean_sbu_0, # of connection points: 7
#     Node 2, Type 0, BuildingBlock: HICVOG_clean_sbu_0, # of connection points: 7
#     Node 3, Type 0, BuildingBlock: HICVOG_clean_sbu_0, # of connection points: 7
#     Node 4, Type 0, BuildingBlock: HICVOG_clean_sbu_0, # of connection points: 7
#     Node 5, Type 0, BuildingBlock: HICVOG_clean_sbu_0, # of connection points: 7
#     Node 6, Type 0, BuildingBlock: HICVOG_clean_sbu_0, # of connection points: 7
#     Node 7, Type 0, BuildingBlock: HICVOG_clean_sbu_0, # of connection points: 7
#     Edge 8, Type (0, 0), BuildingBlock: ZUJKAS_clean_linker_0, # of connection points: 2
#     Edge 9, Type (0, 0), BuildingBlock: ZUJKAS_clean_linker_0, # of connection points: 2
#     Edge 10, Type (0, 0), BuildingBlock: ZUJKAS_clean_linker_0, # of connection points: 2
#     Edge 11, Type (0, 0), BuildingBlock: ZUJKAS_clean_linker_0, # of connection points: 2
#     Edge 12, Type (0, 0), BuildingBlock: ZUJKAS_clean_linker_0, # of connection points: 2
#     Edge 13, Type (0, 0), BuildingBlock: ZUJKAS_clean_linker_0, # of connection points: 2
#     Edge 14, Type (0, 0), BuildingBlock: ZUJKAS_clean_linker_0, # of connection points: 2
#     Edge 15, Type (0, 0), BuildingBlock: ZUJKAS_clean_linker_0, # of connection points: 2
#     Edge 16, Type (0, 0), BuildingBlock: ZUJKAS_clean_linker_0, # of connection points: 2
#     Edge 17, Type (0, 0), BuildingBlock: ZUJKAS_clean_linker_0, # of connection points: 2
#     Edge 18, Type (0, 0), BuildingBlock: ZUJKAS_clean_linker_0, # of connection points: 2
#     Edge 19, Type (0, 0), BuildingBlock: ZUJKAS_clean_linker_0, # of connection points: 2
#     Edge 20, Type (0, 0), BuildingBlock: ZUJKAS_clean_linker_0, # of connection points: 2
#     Edge 21, Type (0, 0), BuildingBlock: ZUJKAS_clean_linker_0, # of connection points: 2
#     Edge 22, Type (0, 0), BuildingBlock: ZUJKAS_clean_linker_0, # of connection points: 2
#     Edge 23, Type (0, 0), BuildingBlock: ZUJKAS_clean_linker_0, # of connection points: 2
#     Edge 24, Type (0, 0), BuildingBlock: ZUJKAS_clean_linker_0, # of connection points: 2
#     Edge 25, Type (0, 0), BuildingBlock: ZUJKAS_clean_linker_0, # of connection points: 2
#     Edge 26, Type (0, 0), BuildingBlock: ZUJKAS_clean_linker_0, # of connection points: 2
#     Edge 27, Type (0, 0), BuildingBlock: ZUJKAS_clean_linker_0, # of connection points: 2
#     Edge 28, Type (0, 0), BuildingBlock: ZUJKAS_clean_linker_0, # of connection points: 2
#     Edge 29, Type (0, 0), BuildingBlock: ZUJKAS_clean_linker_0, # of connection points: 2
#     Edge 30, Type (0, 0), BuildingBlock: ZUJKAS_clean_linker_0, # of connection points: 2
#     Edge 31, Type (0, 0), BuildingBlock: ZUJKAS_clean_linker_0, # of connection points: 2
#     Edge 32, Type (0, 0), BuildingBlock: ZUJKAS_clean_linker_0, # of connection points: 2
#     Edge 33, Type (0, 0), BuildingBlock: ZUJKAS_clean_linker_0, # of connection points: 2
#     Edge 34, Type (0, 0), BuildingBlock: ZUJKAS_clean_linker_0, # of connection points: 2
#     Edge 35, Type (0, 0), BuildingBlock: ZUJKAS_clean_linker_0, # of connection points: 2
# Relax obj value: 0.176
# Max RMSD: 0.257
# Mean RMSD: 0.257
data_MOF--net-wfz--node1-HICVOG_clean_sbu_0--edge1-ZUJKAS_clean_linker_0
_symmetry_space_group_name_H-M    P1
_symmetry_Int_Tables_number       1
_symmetry_cell_setting            triclinic
loop_
_symmetry_equiv_pos_as_xyz
'x, y, z'
_cell_length_a     30.073816
_cell_length_b     30.092561
_cell_length_c     79.468088
_cell_angle_alpha  89.972405
_cell_angle_beta   89.991047
_cell_angle_gamma 89.882333
loop_
_atom_site_label
_atom_site_type_symbol
_atom_site_fract_x
_atom_site_fract_y
_atom_site_fract_z
_atom_type_partial_charge
Zn0 Zn 0.23168 0.48796 0.40292 0.0
C1 C 0.32654 0.48216 0.43793 0.0
N2 N 0.32937 0.43997 0.43253 0.0
C3 C 0.30284 0.43986 0.41896 0.0
N4 N 0.28488 0.48023 0.41614 0.0
N5 N 0.30021 0.50733 0.42794 0.0
C6 C 0.26256 0.59728 0.45637 0.0
O7 O 0.22954 0.58028 0.4477 0.0
O8 O 0.23186 0.45131 0.38138 0.0
Zn9 Zn 0.30464 0.57198 0.42605 0.0
N10 N 0.18284 0.46715 0.41672 0.0
C11 C 0.14671 0.46903 0.44335 0.0
C12 C 0.18247 0.4803 0.43307 0.0
C13 C 0.14913 0.44229 0.41026 0.0
N14 N 0.11275 0.4448 0.43689 0.0
C15 C 0.11293 0.43073 0.42061 0.0
O16 O 0.25574 0.60151 0.41187 0.0
C17 C 0.22512 0.59161 0.40139 0.0
O18 O 0.21658 0.55148 0.39756 0.0
H19 H 0.20956 0.49982 0.438 0.0
H20 H 0.15 0.4327 0.39714 0.0
C21 C 0.38173 0.62526 0.41426 0.0
C22 C 0.42211 0.63014 0.40527 0.0
C23 C 0.4214 0.55285 0.39921 0.0
C24 C 0.38147 0.54836 0.40777 0.0
N25 N 0.36225 0.58427 0.41525 0.0
N26 N 0.44052 0.59337 0.39811 0.0
H27 H 0.36539 0.65359 0.41994 0.0
C28 C 0.23775 0.46919 0.36704 0.0
O29 O 0.2473 0.51173 0.3663 0.0
O30 O 0.30095 0.59848 0.44962 0.0
H31 H 0.36582 0.51624 0.40816 0.0
H32 H 0.1458 0.47963 0.45635 0.0
H33 H 0.43688 0.52442 0.39326 0.0
Zn34 Zn 1.00589 0.80155 0.67611 0.0
C35 C 0.13537 0.81761 0.66614 0.0
N36 N 0.13244 0.8487 0.67817 0.0
C37 C 0.09179 0.84157 0.6846 0.0
N38 N 0.07045 0.80792 0.67674 0.0
N39 N 0.09837 0.79262 0.66516 0.0
C40 C 0.11356 0.74534 0.61823 0.0
O41 O 0.07231 0.75981 0.61817 0.0
O42 O 0.98007 0.80058 0.69983 0.0
Zn43 Zn 0.09724 0.735 0.65427 0.0
N44 N 0.98511 0.85122 0.66232 0.0
C45 C 1.00023 0.88675 0.63618 0.0
C46 C 1.00845 0.85302 0.64769 0.0
C47 C 0.95257 0.88173 0.66578 0.0
N48 N 0.96843 0.9173 0.63962 0.0
C49 C 0.9439 0.91607 0.65402 0.0
O50 O 0.03622 0.70982 0.65005 0.0
C51 C 0.99587 0.71435 0.65457 0.0
O52 O 0.98355 0.74575 0.66429 0.0
H53 H 0.03356 0.82827 0.645 0.0
H54 H 0.9344 0.87967 0.67751 0.0
C55 C 0.14762 0.65654 0.66294 0.0
C56 C 0.16946 0.62705 0.674 0.0
C57 C 0.14871 0.67324 0.69696 0.0
C58 C 0.127 0.70211 0.68597 0.0
N59 N 0.1271 0.69343 0.66919 0.0
N60 N 0.16944 0.63666 0.69075 0.0
H61 H 0.14748 0.6509 0.6495 0.0
C62 C 0.98849 0.76517 0.70804 0.0
O63 O 0.01309 0.73445 0.70083 0.0
O64 O 0.13141 0.73484 0.63219 0.0
H65 H 0.11033 0.7313 0.69078 0.0
H66 H 0.01891 0.88864 0.62457 0.0
H67 H 0.14912 0.67986 0.71034 0.0
Zn68 Zn 0.77194 0.50389 0.92566 0.0
C69 C 0.75806 0.63503 0.91789 0.0
N70 N 0.7302 0.63193 0.93105 0.0
C71 C 0.73682 0.59012 0.93636 0.0
N72 N 0.76705 0.56836 0.92688 0.0
N73 N 0.78103 0.59706 0.91537 0.0
C74 C 0.83688 0.61109 0.86829 0.0
O75 O 0.82772 0.56842 0.86805 0.0
O76 O 0.77172 0.47803 0.94938 0.0
Zn77 Zn 0.83903 0.596 0.90454 0.0
N78 N 0.72172 0.48405 0.91191 0.0
C79 C 0.67977 0.50243 0.88745 0.0
C80 C 0.71275 0.51251 0.89904 0.0
C81 C 0.69876 0.44508 0.91356 0.0
N82 N 0.65742 0.46365 0.8889 0.0
C83 C 0.66575 0.43428 0.90155 0.0
O84 O 0.86386 0.53476 0.90038 0.0
C85 C 0.85923 0.4941 0.9044 0.0
O86 O 0.8276 0.48109 0.91388 0.0
H87 H 0.73172 0.54263 0.89754 0.0
H88 H 0.70713 0.42234 0.92363 0.0
C89 C 0.91704 0.64587 0.91428 0.0
C90 C 0.94616 0.66611 0.92588 0.0
C91 C 0.89935 0.64225 0.94822 0.0
C92 C 0.87084 0.62229 0.9367 0.0
N93 N 0.88006 0.62453 0.91998 0.0
N94 N 0.93607 0.66367 0.94257 0.0
H95 H 0.92298 0.64757 0.90087 0.0
C96 C 0.80278 0.49215 0.95885 0.0
O97 O 0.83068 0.52155 0.95274 0.0
O98 O 0.8412 0.63045 0.88243 0.0
H99 H 0.84149 0.60526 0.94108 0.0
H100 H 0.67247 0.52488 0.87717 0.0
H101 H 0.89233 0.64083 0.96156 0.0
Zn102 Zn 0.07035 0.27148 0.17602 0.0
C103 C 0.93816 0.27092 0.16884 0.0
N104 N 0.93845 0.24566 0.18279 0.0
C105 C 0.98089 0.2485 0.1879 0.0
N106 N 1.00578 0.27367 0.17748 0.0
N107 N 0.9785 0.28841 0.16562 0.0
C108 C 0.9694 0.34308 0.11707 0.0
O109 O 1.01294 0.33962 0.11665 0.0
O110 O 0.09566 0.2727 0.19978 0.0
Zn111 Zn 0.98424 0.34375 0.15342 0.0
N112 N 0.08538 0.2165 0.16391 0.0
C113 C 0.05829 0.16295 0.14437 0.0
C114 C 0.05158 0.20017 0.15436 0.0
C115 C 0.12628 0.19648 0.16381 0.0
N116 N 0.09888 0.14353 0.14404 0.0
C117 C 0.13341 0.15896 0.15342 0.0
O118 O 0.04746 0.36355 0.14939 0.0
C119 C 0.08763 0.35564 0.15349 0.0
O120 O 0.09796 0.32347 0.16322 0.0
H121 H 0.01955 0.21625 0.15422 0.0
H122 H 0.15305 0.21035 0.17122 0.0
C123 C 0.93747 0.42559 0.1608 0.0
C124 C 0.91757 0.45733 0.17147 0.0
C125 C 0.93909 0.41409 0.19514 0.0
C126 C 0.95876 0.38293 0.18453 0.0
N127 N 0.9574 0.38906 0.16759 0.0
N128 N 0.9189 0.4503 0.1884 0.0
H129 H 0.93643 0.42921 0.14726 0.0
C130 C 0.08422 0.30644 0.20844 0.0
O131 O 0.05775 0.33601 0.2015 0.0
O132 O 0.94987 0.34347 0.13128 0.0
H133 H 0.97471 0.35391 0.18978 0.0
H134 H 0.03159 0.1499 0.13671 0.0
H135 H 0.93972 0.40948 0.20864 0.0
Zn136 Zn 0.804 1.00397 0.34394 0.0
C137 C 0.80568 0.13638 0.35062 0.0
N138 N 0.83146 0.13533 0.33683 0.0
C139 C 0.82836 0.09278 0.33191 0.0
N140 N 0.80253 0.06852 0.34231 0.0
N141 N 0.78763 0.09636 0.35395 0.0
C142 C 0.73759 0.10388 0.40272 0.0
O143 O 0.74449 0.06076 0.40247 0.0
O144 O 0.80388 0.9783 0.32025 0.0
Zn145 Zn 0.73314 0.09045 0.36667 0.0
N146 N 0.85785 0.98878 0.35663 0.0
C147 C 0.90608 0.01345 0.37847 0.0
C148 C 0.87016 0.02063 0.36783 0.0
C149 C 0.8805 0.9494 0.35568 0.0
N150 N 0.92811 0.97425 0.37776 0.0
C151 C 0.91659 0.94168 0.36672 0.0
O152 O 0.71365 0.02738 0.37097 0.0
C153 C 0.72026 0.98722 0.36661 0.0
O154 O 0.75143 0.97652 0.35648 0.0
H155 H 0.85172 0.05126 0.36879 0.0
H156 H 0.86965 0.92405 0.34695 0.0
C157 C 0.65208 0.13932 0.35929 0.0
C158 C 0.61719 0.15325 0.3487 0.0
C159 C 0.6535 0.11918 0.32552 0.0
C160 C 0.68788 0.10539 0.33605 0.0
N161 N 0.68641 0.11534 0.35272 0.0
N162 N 0.61892 0.14245 0.33208 0.0
H163 H 0.65137 0.14624 0.37266 0.0
C164 C 0.76713 0.98389 0.31259 0.0
O165 O 0.73488 1.00474 0.32048 0.0
O166 O 0.73396 0.12452 0.38881 0.0
H167 H 0.71527 0.0863 0.33104 0.0
H168 H 0.91598 0.03858 0.38745 0.0
H169 H 0.65409 0.11113 0.31226 0.0
Zn170 Zn 0.57526 0.30613 0.59471 0.0
C171 C 0.44349 0.30655 0.6035 0.0
N172 N 0.44316 0.33299 0.58989 0.0
C173 C 0.48501 0.32971 0.58418 0.0
N174 N 0.51038 0.30314 0.59399 0.0
N175 N 0.48388 0.28809 0.60606 0.0
C176 C 0.46795 0.20248 0.65107 0.0
O177 O 0.50013 0.17493 0.64701 0.0
O178 O 0.59865 0.29875 0.57082 0.0
Zn179 Zn 0.49265 0.23398 0.61875 0.0
N180 N 0.58985 0.36515 0.60365 0.0
C181 C 0.56141 0.4298 0.61725 0.0
C182 C 0.55537 0.38713 0.61103 0.0
C183 C 0.63112 0.38401 0.60285 0.0
N184 N 0.60206 0.44877 0.61625 0.0
C185 C 0.6375 0.42725 0.60937 0.0
O186 O 0.55682 0.21971 0.62389 0.0
C187 C 0.59684 0.22876 0.62001 0.0
O188 O 0.60615 0.2592 0.6094 0.0
H189 H 0.52314 0.37185 0.61216 0.0
H190 H 0.65826 0.3659 0.59709 0.0
C191 C 0.44642 0.15195 0.61027 0.0
C192 C 0.43576 0.11633 0.59951 0.0
C193 C 0.47658 0.15112 0.5776 0.0
C194 C 0.48723 0.18609 0.58833 0.0
N195 N 0.47231 0.18575 0.60447 0.0
N196 N 0.45147 0.11702 0.58344 0.0
H197 H 0.4354 0.15216 0.62322 0.0
C198 C 0.60331 0.25913 0.56548 0.0
O199 O 0.59385 0.22613 0.57569 0.0
O200 O 0.45745 0.23298 0.64069 0.0
H201 H 0.50775 0.21312 0.58392 0.0
H202 H 0.53403 0.44767 0.62295 0.0
H203 H 0.48854 0.15083 0.56476 0.0
Zn204 Zn 0.26983 0.07388 0.84564 0.0
C205 C 0.25986 0.94296 0.85381 0.0
N206 N 0.2312 0.94517 0.84091 0.0
C207 C 0.23709 0.9866 0.83511 0.0
N208 N 0.26761 1.00923 0.84416 0.0
N209 N 0.28238 0.98135 0.85584 0.0
C210 C 0.3372 0.96688 0.90287 0.0
O211 O 0.32725 1.00936 0.9036 0.0
O212 O 0.27193 0.09965 0.82204 0.0
Zn213 Zn 0.33952 0.98513 0.86698 0.0
N214 N 0.21649 0.09162 0.85805 0.0
C215 C 0.16481 0.06923 0.87912 0.0
C216 C 0.20074 0.05995 0.86873 0.0
C217 C 0.1974 0.13284 0.85744 0.0
N218 N 0.14628 0.11022 0.87873 0.0
C219 C 0.16137 0.14261 0.86824 0.0
O220 O 0.3608 0.04711 0.8721 0.0
C221 C 0.35429 0.08769 0.86831 0.0
O222 O 0.32283 0.09943 0.8585 0.0
H223 H 0.21644 0.0278 0.86949 0.0
H224 H 0.21103 0.15793 0.84917 0.0
C225 C 0.41962 0.93926 0.85767 0.0
C226 C 0.45112 0.9215 0.84637 0.0
C227 C 0.40729 0.94791 0.82354 0.0
C228 C 0.37612 0.9649 0.8348 0.0
N229 N 0.38285 0.96026 0.85161 0.0
N230 N 0.44384 0.92668 0.82956 0.0
H231 H 0.42425 0.93724 0.87114 0.0
C232 C 0.30872 0.09328 0.81448 0.0
O233 O 0.34039 0.07169 0.82244 0.0
O234 O 0.34222 0.94878 0.88853 0.0
H235 H 0.34689 0.98185 0.83016 0.0
H236 H 0.15216 0.04427 0.88767 0.0
H237 H 0.40248 0.95147 0.81012 0.0
Zn238 Zn 0.59069 0.84161 0.11614 0.0
C239 C 0.59148 0.74519 0.08167 0.0
N240 N 0.63437 0.74229 0.08616 0.0
C241 C 0.63633 0.76872 0.09975 0.0
N242 N 0.5965 0.78713 0.10333 0.0
N243 N 0.56788 0.7717 0.09207 0.0
C244 C 0.48554 0.80593 0.06218 0.0
O245 O 0.50867 0.83724 0.06963 0.0
O246 O 0.62395 0.84004 0.13855 0.0
Zn247 Zn 0.50327 0.77024 0.09398 0.0
N248 N 0.6158 0.88834 0.10222 0.0
C249 C 0.61933 0.92099 0.07496 0.0
C250 C 0.60586 0.88667 0.08555 0.0
C251 C 0.63972 0.92271 0.1087 0.0
N252 N 0.64233 0.95572 0.08145 0.0
C253 C 0.65324 0.95756 0.09806 0.0
O254 O 0.47545 0.82242 0.10666 0.0
C255 C 0.48675 0.85405 0.11644 0.0
O256 O 0.52723 0.86083 0.12031 0.0
H257 H 0.58705 0.85915 0.08059 0.0
H258 H 0.64695 0.92359 0.12202 0.0
C259 C 0.45152 0.69087 0.10453 0.0
C260 C 0.44632 0.65192 0.11432 0.0
C261 C 0.5165 0.66551 0.12705 0.0
C262 C 0.52124 0.70392 0.11755 0.0
N263 N 0.48921 0.71577 0.10633 0.0
N264 N 0.47941 0.64061 0.12522 0.0
H265 H 0.42645 0.70101 0.09554 0.0
C266 C 0.61333 0.86953 0.14932 0.0
O267 O 0.58186 0.89808 0.14545 0.0
O268 O 0.47727 0.77053 0.07036 0.0
H269 H 0.55044 0.72421 0.11919 0.0
H270 H 0.61122 0.92025 0.0617 0.0
H271 H 0.54197 0.65564 0.13591 0.0
H272 H 0.28855 0.35134 0.42243 0.0
H273 H 0.32911 0.29408 0.40677 0.0
H274 H 0.37761 0.39421 0.37253 0.0
H275 H 0.33455 0.45068 0.38746 0.0
H276 H 0.37614 0.31711 0.35708 0.0
H277 H 0.45739 0.29462 0.41914 0.0
H278 H 0.39979 0.27955 0.4194 0.0
H279 H 0.41559 0.33639 0.41552 0.0
C280 C 0.30578 0.36051 0.41097 0.0
C281 C 0.30849 0.40524 0.40611 0.0
C282 C 0.32972 0.328 0.40223 0.0
C283 C 0.35821 0.34019 0.38899 0.0
C284 C 0.35645 0.38399 0.38286 0.0
H285 H 0.61666 0.22262 0.37105 0.0
H286 H 0.55261 0.2671 0.37993 0.0
C287 C 0.33143 0.41627 0.39131 0.0
C288 C 0.39402 0.30959 0.38314 0.0
H289 H 0.48318 0.24938 0.3971 0.0
C290 C 0.39947 0.30214 0.36582 0.0
C291 C 0.42543 0.29113 0.39451 0.0
C292 C 0.42465 0.30117 0.41314 0.0
C293 C 0.43528 0.27689 0.35956 0.0
C294 C 0.46557 0.25696 0.371 0.0
C295 C 0.45987 0.26422 0.38831 0.0
C296 C 0.50439 0.22982 0.36541 0.0
C297 C 0.44119 0.2736 0.34075 0.0
C298 C 0.49882 0.19357 0.35449 0.0
C299 C 0.53555 0.16871 0.34916 0.0
C300 C 0.57844 0.1786 0.35508 0.0
C301 C 0.58393 0.21392 0.36643 0.0
C302 C 0.54731 0.23944 0.37145 0.0
H303 H 0.42459 0.3016 0.33412 0.0
H304 H 0.4769 0.27346 0.33721 0.0
H305 H 0.42584 0.24233 0.33621 0.0
H306 H 0.46605 0.18432 0.35011 0.0
H307 H 0.53035 0.14138 0.34052 0.0
H308 H 0.36416 0.11565 0.62105 0.0
H309 H 0.31989 0.0516 0.6297 0.0
H310 H 0.40279 0.96552 0.59963 0.0
H311 H 0.44626 0.02977 0.59047 0.0
H312 H 0.31945 0.94293 0.59573 0.0
H313 H 0.35093 0.96011 0.66388 0.0
H314 H 0.32671 1.00986 0.65553 0.0
H315 H 0.38089 0.99217 0.64844 0.0
C316 C 0.37334 0.08303 0.61645 0.0
C317 C 0.40918 0.07769 0.60527 0.0
C318 C 0.34803 0.04634 0.62143 0.0
C319 C 0.35862 1.00342 0.61566 0.0
C320 C 0.39408 0.99816 0.60435 0.0
H321 H 0.22197 0.79691 0.67106 0.0
H322 H 0.28354 0.83091 0.65563 0.0
C323 C 0.41894 0.03493 0.59914 0.0
C324 C 0.33215 0.96426 0.62118 0.0
H325 H 0.28913 0.91439 0.65607 0.0
C326 C 0.31331 0.93627 0.60895 0.0
C327 C 0.32501 0.95464 0.6384 0.0
C328 C 0.3474 0.98051 0.65229 0.0
C329 C 0.28588 0.90033 0.61345 0.0
C330 C 0.2759 0.89295 0.63063 0.0
C331 C 0.29637 0.91984 0.64285 0.0
C332 C 0.24176 0.86045 0.63641 0.0
C333 C 0.26813 0.87072 0.5997 0.0
C334 C 0.19815 0.86257 0.63005 0.0
C335 C 0.16326 0.84155 0.63853 0.0
C336 C 0.1713 0.81908 0.65369 0.0
C337 C 0.21521 0.81331 0.65919 0.0
C338 C 0.25027 0.83332 0.65048 0.0
H339 H 0.29187 0.86878 0.58901 0.0
H340 H 0.26154 0.83654 0.60433 0.0
H341 H 0.23665 0.885 0.59479 0.0
H342 H 0.19018 0.88398 0.61953 0.0
H343 H 0.12945 0.84747 0.63435 0.0
H344 H 0.46461 0.87529 0.87611 0.0
H345 H 0.53029 0.83342 0.88444 0.0
H346 H 0.59422 0.86709 0.83759 0.0
H347 H 0.5292 0.91072 0.82932 0.0
H348 H 0.56416 0.76104 0.86785 0.0
H349 H 0.69154 0.89409 0.87206 0.0
H350 H 0.63265 0.90579 0.87145 0.0
H351 H 0.66178 0.89147 0.85248 0.0
C352 C 0.4929 0.87508 0.86771 0.0
C353 C 0.49161 0.89725 0.8521 0.0
C354 C 0.53041 0.85062 0.87245 0.0
C355 C 0.56744 0.84763 0.86175 0.0
C356 C 0.56645 0.8697 0.84621 0.0
H357 H 0.7501 0.62958 0.8839 0.0
H358 H 0.71364 0.68537 0.86617 0.0
C359 C 0.52898 0.8943 0.84146 0.0
C360 C 0.60568 0.81903 0.8665 0.0
H361 H 0.71636 0.82029 0.87631 0.0
C362 C 0.59753 0.77389 0.86958 0.0
C363 C 0.64913 0.83599 0.86876 0.0
C364 C 0.65945 0.88455 0.86616 0.0
C365 C 0.63122 0.74543 0.87532 0.0
C366 C 0.67475 0.76231 0.87764 0.0
C367 C 0.68321 0.80729 0.87421 0.0
C368 C 0.70971 0.73499 0.88583 0.0
C369 C 0.61923 0.69807 0.87969 0.0
C370 C 0.7234 0.74605 0.90217 0.0
C371 C 0.74532 0.71468 0.91212 0.0
C372 C 0.75401 0.67194 0.90585 0.0
C373 C 0.74503 0.6627 0.88888 0.0
C374 C 0.72338 0.69429 0.87885 0.0
H375 H 0.58267 0.69295 0.88019 0.0
H376 H 0.63302 0.67538 0.86999 0.0
H377 H 0.63352 0.6885 0.89206 0.0
H378 H 0.71338 0.77731 0.90779 0.0
H379 H 0.75149 0.72235 0.92524 0.0
H380 H 0.84955 0.28373 0.1732 0.0
H381 H 0.79184 0.24404 0.15754 0.0
H382 H 0.89066 0.19886 0.12205 0.0
H383 H 0.94748 0.24126 0.13696 0.0
H384 H 0.81303 0.20052 0.10722 0.0
H385 H 0.79414 0.11527 0.16869 0.0
H386 H 0.77836 0.17266 0.16954 0.0
H387 H 0.83527 0.15762 0.16521 0.0
C388 C 0.85829 0.26737 0.16151 0.0
C389 C 0.9028 0.26533 0.15628 0.0
C390 C 0.82554 0.24396 0.15275 0.0
C391 C 0.83733 0.21657 0.13913 0.0
C392 C 0.88078 0.21912 0.13269 0.0
H393 H 0.72346 0.95822 0.11999 0.0
H394 H 0.76704 0.0225 0.12902 0.0
C395 C 0.91326 0.24372 0.14114 0.0
C396 C 0.80684 0.18097 0.13317 0.0
H397 H 0.74841 0.09046 0.14669 0.0
C398 C 0.79874 0.17653 0.11584 0.0
C399 C 0.78924 0.14873 0.14437 0.0
C400 C 0.80004 0.14842 0.16295 0.0
C401 C 0.77382 0.14082 0.10942 0.0
C402 C 0.75482 0.10964 0.12071 0.0
C403 C 0.76257 0.11444 0.13802 0.0
C404 C 0.72833 0.0707 0.11495 0.0
C405 C 0.76994 0.13598 0.09058 0.0
C406 C 0.69163 0.07617 0.10421 0.0
C407 C 0.66733 0.0393 0.09877 0.0
C408 C 0.67823 0.99639 0.10442 0.0
C409 C 0.71403 0.99097 0.11557 0.0
C410 C 0.73901 0.02772 0.12069 0.0
H411 H 0.79739 0.15338 0.08395 0.0
H412 H 0.77035 0.10051 0.08674 0.0
H413 H 0.7382 0.15111 0.08632 0.0
H414 H 0.68157 0.10895 0.10006 0.0
H415 H 0.63959 0.0444 0.09028 0.0
H416 H 0.02521 0.44353 0.42728 0.0
H417 H 0.96213 0.39916 0.41763 0.0
H418 H 0.05211 0.31217 0.39099 0.0
H419 H 0.115 0.35784 0.39994 0.0
H420 H 0.98489 0.3281 0.3723 0.0
H421 H 0.91867 0.28406 0.43508 0.0
H422 H 0.92028 0.34299 0.43191 0.0
H423 H 0.97136 0.3116 0.43238 0.0
C424 C 0.03143 0.41493 0.41934 0.0
C425 C 0.07496 0.40424 0.4143 0.0
C426 C 0.99538 0.38929 0.41398 0.0
C427 C 1.00224 0.35153 0.40391 0.0
C428 C 0.04582 0.34101 0.39879 0.0
H429 H 0.83456 0.1288 0.38271 0.0
H430 H 0.87627 0.18655 0.39741 0.0
C431 C 0.08178 0.36723 0.40385 0.0
C432 C 0.96414 0.3238 0.39817 0.0
H433 H 0.87314 0.26561 0.4116 0.0
C434 C 0.96054 0.31441 0.38093 0.0
C435 C 0.93251 0.30538 0.40942 0.0
C436 C 0.93611 0.31111 0.42824 0.0
C437 C 0.92688 0.28685 0.37463 0.0
C438 C 0.89415 0.26988 0.38577 0.0
C439 C 0.8975 0.27942 0.40301 0.0
C440 C 0.85896 0.23885 0.37983 0.0
C441 C 0.92831 0.27457 0.3562 0.0
C442 C 0.83204 0.2498 0.36597 0.0
C443 C 0.80894 0.21654 0.35737 0.0
C444 C 0.81088 0.17236 0.36296 0.0
C445 C 0.83212 0.16276 0.37827 0.0
C446 C 0.85634 0.19576 0.38659 0.0
H447 H 0.96175 0.28023 0.35066 0.0
H448 H 0.91943 0.23914 0.35427 0.0
H449 H 0.90429 0.29554 0.34916 0.0
H450 H 0.83208 0.28321 0.36091 0.0
H451 H 0.79293 0.22462 0.34554 0.0
H452 H 0.24262 0.58805 0.68784 0.0
H453 H 0.28229 0.52169 0.67831 0.0
H454 H 0.18826 0.50617 0.63779 0.0
H455 H 0.1488 0.57289 0.64705 0.0
H456 H 0.2581 0.43509 0.67456 0.0
H457 H 0.30459 0.5065 0.61264 0.0
H458 H 0.28132 0.5398 0.62933 0.0
H459 H 0.24574 0.5063 0.6163 0.0
C460 C 0.23039 0.5706 0.67686 0.0
C461 C 0.19304 0.58648 0.66801 0.0
C462 C 0.25307 0.53255 0.67147 0.0
C463 C 0.23879 0.50931 0.65716 0.0
C464 C 0.20067 0.52421 0.6486 0.0
H465 H 0.35527 0.29995 0.59797 0.0
H466 H 0.29899 0.34095 0.61383 0.0
C467 C 0.17819 0.56255 0.65389 0.0
C468 C 0.26442 0.47015 0.65102 0.0
H469 H 0.3212 0.43069 0.61695 0.0
C470 C 0.27185 0.43405 0.66195 0.0
C471 C 0.28274 0.46892 0.63462 0.0
C472 C 0.27864 0.5076 0.62259 0.0
C473 C 0.29662 0.39663 0.65683 0.0
C474 C 0.31445 0.39539 0.64039 0.0
C475 C 0.3069 0.43137 0.62949 0.0
C476 C 0.34319 0.35862 0.6342 0.0
C477 C 0.30333 0.35864 0.66894 0.0
C478 C 0.38589 0.3522 0.64099 0.0
C479 C 0.41801 0.32808 0.63201 0.0
C480 C 0.40782 0.31055 0.6161 0.0
C481 C 0.36374 0.3126 0.61033 0.0
C482 C 0.33168 0.33641 0.61931 0.0
H483 H 0.27879 0.35955 0.67939 0.0
H484 H 0.3007 0.3262 0.66236 0.0
H485 H 0.33713 0.3609 0.67448 0.0
H486 H 0.39578 0.36953 0.65233 0.0
H487 H 0.452 0.32801 0.63654 0.0
H488 H 0.25493 0.85502 0.8476 0.0
H489 H 0.21452 0.80209 0.86512 0.0
H490 H 0.2113 0.89763 0.90554 0.0
H491 H 0.24984 0.95148 0.88765 0.0
H492 H 0.21327 0.76124 0.89648 0.0
H493 H 0.08186 0.89084 0.89081 0.0
H494 H 0.13362 0.89407 0.87947 0.0
H495 H 0.13147 0.9084 0.90143 0.0
C496 C 0.24753 0.8639 0.86052 0.0
C497 C 0.25579 0.90716 0.86633 0.0
C498 C 0.22419 0.83371 0.8705 0.0
C499 C 0.20873 0.8464 0.88645 0.0
C500 C 0.22217 0.8875 0.89312 0.0
H501 H 0.98587 0.7346 0.94233 0.0
H502 H 0.05232 0.77588 0.93426 0.0
C503 C 0.24513 0.91796 0.88304 0.0
C504 C 0.17279 0.82011 0.89452 0.0
H505 H 0.0621 0.82442 0.90418 0.0
C506 C 0.18034 0.77514 0.89834 0.0
C507 C 0.12953 0.8381 0.89665 0.0
C508 C 0.11832 0.88534 0.89175 0.0
C509 C 0.14581 0.74774 0.90424 0.0
C510 C 0.10262 0.76573 0.90619 0.0
C511 C 0.09531 0.81081 0.9027 0.0
C512 C 0.06404 0.73841 0.91148 0.0
C513 C 0.15573 0.6998 0.90833 0.0
C514 C 0.0483 0.7038 0.90126 0.0
C515 C 1.01005 0.68012 0.90578 0.0
C516 C 0.9867 0.69081 0.92061 0.0
C517 C 1.00295 0.72534 0.93085 0.0
C518 C 0.04098 0.74903 0.92627 0.0
H519 H 0.19191 0.69398 0.91013 0.0
H520 H 0.13783 0.68926 0.91988 0.0
H521 H 0.14432 0.67855 0.89778 0.0
H522 H 0.06521 0.69553 0.88963 0.0
H523 H 0.99921 0.65326 0.89773 0.0
H524 H 0.8462 0.49935 0.18525 0.0
H525 H 0.80702 0.56503 0.17484 0.0
H526 H 0.89842 0.57346 0.13314 0.0
H527 H 0.93734 0.50725 0.1433 0.0
H528 H 0.8325 0.65048 0.16916 0.0
H529 H 0.78024 0.57133 0.10927 0.0
H530 H 0.80428 0.54002 0.12635 0.0
H531 H 0.83931 0.57134 0.11235 0.0
C532 C 0.85796 0.51511 0.17383 0.0
C533 C 0.89437 0.49742 0.16493 0.0
C534 C 0.83559 0.55276 0.16793 0.0
C535 C 0.84927 0.57379 0.15306 0.0
C536 C 0.8865 0.55711 0.14441 0.0
H537 H 0.72344 0.77418 0.09181 0.0
H538 H 0.7829 0.73618 0.10711 0.0
C539 C 0.90865 0.51911 0.15021 0.0
C540 C 0.82376 0.61238 0.14643 0.0
H541 H 0.76359 0.64733 0.11251 0.0
C542 C 0.81755 0.64992 0.15674 0.0
C543 C 0.80395 0.61151 0.13028 0.0
C544 C 0.80683 0.57126 0.11898 0.0
C545 C 0.79225 0.6866 0.15128 0.0
C546 C 0.77264 0.68561 0.13514 0.0
C547 C 0.77925 0.64833 0.1248 0.0
C548 C 0.74244 0.721 0.12886 0.0
C549 C 0.7867 0.72609 0.16277 0.0
C550 C 0.70083 0.72773 0.1365 0.0
C551 C 0.66692 0.75002 0.12783 0.0
C552 C 0.67424 0.76551 0.11139 0.0
C553 C 0.71723 0.76309 0.10457 0.0
C554 C 0.75111 0.74107 0.11325 0.0
H555 H 0.81301 0.72709 0.17257 0.0
H556 H 0.78742 0.75766 0.15553 0.0
H557 H 0.75402 0.72386 0.1692 0.0
H558 H 0.69308 0.7119 0.14839 0.0
H559 H 0.63375 0.75023 0.13315 0.0
H560 H 0.08376 0.76121 0.58624 0.0
H561 H 0.1189 0.73938 0.55975 0.0
H562 H 0.23171 0.68793 0.58701 0.0
H563 H 0.19667 0.70936 0.61364 0.0
H564 H 0.20304 0.7603 0.54493 0.0
H565 H 0.18623 0.58031 0.55965 0.0
H566 H 0.15686 0.62271 0.57127 0.0
H567 H 0.21497 0.61324 0.57504 0.0
C568 C 0.11624 0.74563 0.58664 0.0
C569 C 0.13713 0.73662 0.60211 0.0
C570 C 0.13632 0.73323 0.57145 0.0
C571 C 0.17761 0.71138 0.5714 0.0
C572 C 0.1995 0.70407 0.58677 0.0
H573 H 0.31999 0.64238 0.47733 0.0
H574 H 0.30427 0.67094 0.50572 0.0
C575 C 0.17947 0.71654 0.60198 0.0
C576 C 0.19645 0.69456 0.55529 0.0
H577 H 0.21888 0.59889 0.53368 0.0
C578 C 0.20698 0.72504 0.54251 0.0
C579 C 0.20116 0.6485 0.55211 0.0
C580 C 0.18895 0.61413 0.56515 0.0
C581 C 0.22152 0.71065 0.52657 0.0
C582 C 0.2258 0.6646 0.52337 0.0
C583 C 0.21594 0.63418 0.53623 0.0
C584 C 0.23643 0.64716 0.50633 0.0
C585 C 0.23052 0.74464 0.51305 0.0
C586 C 0.20383 0.62377 0.49738 0.0
C587 C 0.21261 0.60763 0.48124 0.0
C588 C 0.2544 0.61416 0.47367 0.0
C589 C 0.28741 0.63697 0.48276 0.0
C590 C 0.27844 0.65344 0.49895 0.0
H591 H 0.21959 0.77851 0.5168 0.0
H592 H 0.26673 0.74564 0.5104 0.0
H593 H 0.21329 0.73533 0.50121 0.0
H594 H 0.17126 0.61841 0.50285 0.0
H595 H 0.18644 0.59 0.4747 0.0
H596 H 0.86451 0.6974 0.86408 0.0
H597 H 0.88478 0.73448 0.8377 0.0
H598 H 0.8506 0.6162 0.81002 0.0
H599 H 0.82998 0.57914 0.8362 0.0
H600 H 0.9507 0.70843 0.81557 0.0
H601 H 0.78845 0.71279 0.78276 0.0
H602 H 0.79328 0.70248 0.80508 0.0
H603 H 0.80257 0.65828 0.79023 0.0
C604 C 0.86069 0.67949 0.85235 0.0
C605 C 0.84558 0.63523 0.85229 0.0
C606 C 0.87237 0.70073 0.83728 0.0
C607 C 0.86871 0.67838 0.82182 0.0
C608 C 0.85284 0.63453 0.82171 0.0
H609 H 1.01006 0.69777 0.72943 0.0
H610 H 0.98085 0.68317 0.75749 0.0
C611 C 0.8413 0.61325 0.83675 0.0
C612 C 0.8844 0.69944 0.80592 0.0
H613 H 0.8533 0.72265 0.76546 0.0
C614 C 0.92921 0.71212 0.80469 0.0
C615 C 0.85633 0.70487 0.79175 0.0
C616 C 0.80737 0.69432 0.79253 0.0
C617 C 0.94716 0.72789 0.78948 0.0
C618 C 0.91975 0.73064 0.77504 0.0
C619 C 0.87443 0.72015 0.77648 0.0
C620 C 0.93824 0.74113 0.75813 0.0
C621 C 0.99554 0.74095 0.78894 0.0
C622 C 0.92358 0.77837 0.74897 0.0
C623 C 0.94036 0.78694 0.73279 0.0
C624 C 0.97159 0.758 0.72541 0.0
C625 C 0.98609 0.72082 0.73468 0.0
C626 C 0.9696 0.71251 0.75081 0.0
H627 H 1.00827 0.7494 0.80167 0.0
H628 H 0.01543 0.71263 0.78408 0.0
H629 H 1.00082 0.76984 0.78047 0.0
H630 H 0.89918 0.80076 0.75434 0.0
H631 H 0.92842 0.81578 0.72599 0.0
H632 H 0.76187 0.42111 0.9743 0.0
H633 H 0.7774 0.3911 1.00248 0.0
H634 H 0.87383 0.49467 0.01068 0.0
H635 H 0.85847 0.52479 0.98281 0.0
H636 H 0.85935 0.3595 0.01423 0.0
H637 H 0.80054 0.49855 0.05396 0.0
H638 H 0.78469 0.49269 0.03215 0.0
H639 H 0.8375 0.51671 0.03762 0.0
C640 C 0.78595 0.43777 0.98221 0.0
C641 C 0.80902 0.47527 0.97627 0.0
C642 C 0.79484 0.42056 0.99829 0.0
C643 C 0.8264 0.44094 1.0088 0.0
C644 C 0.84873 0.47883 1.00297 0.0
H645 H 1.00205 0.34742 0.08502 0.0
H646 H 0.9621 0.3665 0.05931 0.0
C647 C 0.84012 0.49583 0.98694 0.0
C648 C 0.83858 0.42135 0.02538 0.0
H649 H 0.8524 0.44785 0.06686 0.0
C650 C 0.85718 0.37853 0.02579 0.0
C651 C 0.83516 0.44583 0.04053 0.0
C652 C 0.81296 0.49081 0.04112 0.0
C653 C 0.87468 0.36058 0.04075 0.0
C654 C 0.87425 0.38641 0.05564 0.0
C655 C 0.85333 0.4282 0.05543 0.0
C656 C 0.89765 0.37196 0.07126 0.0
C657 C 0.89388 0.31424 0.04039 0.0
C658 C 0.87497 0.36922 0.08669 0.0
C659 C 0.89789 0.35851 0.10153 0.0
C660 C 0.94408 0.35072 0.10125 0.0
C661 C 0.96649 0.35292 0.08573 0.0
C662 C 0.9436 0.36359 0.07094 0.0
H663 H 0.8789 0.2941 0.03014 0.0
H664 H 0.93018 0.31622 0.03801 0.0
H665 H 0.88856 0.29683 0.05254 0.0
H666 H 0.83958 0.37581 0.08728 0.0
H667 H 0.87958 0.35723 0.11325 0.0
H668 H 0.06041 0.37242 0.23008 0.0
H669 H 0.09069 0.38837 0.25785 0.0
H670 H 0.17607 0.2735 0.25426 0.0
H671 H 0.14606 0.25738 0.22615 0.0
H672 H 0.09263 0.33735 0.28731 0.0
H673 H 0.26299 0.37611 0.26431 0.0
H674 H 0.2159 0.37194 0.25033 0.0
H675 H 0.24117 0.32255 0.25869 0.0
C676 C 0.08558 0.35037 0.23514 0.0
C677 C 0.10114 0.31385 0.22577 0.0
C678 C 0.10278 0.35952 0.25109 0.0
C679 C 0.1361 0.33255 0.25807 0.0
C680 C 0.15091 0.29524 0.249 0.0
H681 H 0.2139 0.38145 0.36375 0.0
H682 H 0.19262 0.3425 0.33789 0.0
C683 C 0.13358 0.28594 0.23298 0.0
C684 C 0.15547 0.34464 0.27468 0.0
H685 H 0.24976 0.38452 0.2933 0.0
C686 C 0.12713 0.34715 0.28869 0.0
C687 C 0.20037 0.35788 0.2764 0.0
C688 C 0.23197 0.3574 0.26165 0.0
C689 C 0.1421 0.36358 0.30425 0.0
C690 C 0.18691 0.37728 0.30594 0.0
C691 C 0.21554 0.37373 0.29203 0.0
C692 C 0.20357 0.39899 0.32155 0.0
C693 C 0.10922 0.36813 0.31851 0.0
C694 C 0.21861 0.44309 0.32091 0.0
C695 C 0.23114 0.46529 0.33561 0.0
C696 C 0.22898 0.44388 0.35133 0.0
C697 C 0.21565 0.39907 0.35188 0.0
C698 C 0.2032 0.37682 0.33712 0.0
H699 H 0.0743 0.36496 0.31411 0.0
H700 H 0.11547 0.34158 0.32791 0.0
H701 H 0.11301 0.40071 0.3249 0.0
H702 H 0.21939 0.46086 0.30905 0.0
H703 H 0.24137 0.49969 0.33468 0.0
H704 H 0.59221 0.9247 0.1752 0.0
H705 H 0.62997 0.93305 0.20213 0.0
H706 H 0.72466 0.83207 0.18802 0.0
H707 H 0.68669 0.82311 0.16076 0.0
H708 H 0.65385 0.84832 0.22614 0.0
H709 H 0.79008 0.95966 0.20427 0.0
H710 H 0.73674 0.96059 0.19383 0.0
H711 H 0.77205 0.91291 0.19176 0.0
C712 C 0.62104 0.90413 0.17773 0.0
C713 C 0.63641 0.87323 0.16577 0.0
C714 C 0.64257 0.90902 0.19316 0.0
C715 C 0.68014 0.88339 0.197 0.0
C716 C 0.69575 0.85229 0.18521 0.0
H717 H 0.82572 0.93965 0.29168 0.0
H718 H 0.81017 0.90928 0.26353 0.0
C719 C 0.67398 0.84716 0.16969 0.0
C720 C 0.70192 0.88945 0.21357 0.0
H721 H 0.77946 0.95319 0.23361 0.0
C722 C 0.68191 0.8705 0.22778 0.0
C723 C 0.73856 0.91825 0.21562 0.0
C724 C 0.76093 0.93919 0.20062 0.0
C725 C 0.69634 0.8812 0.24409 0.0
C726 C 0.73102 0.91246 0.24623 0.0
C727 C 0.75277 0.92941 0.23197 0.0
C728 C 0.74163 0.93126 0.26305 0.0
C729 C 0.67346 0.85981 0.25891 0.0
C730 C 0.70871 0.95462 0.27189 0.0
C731 C 0.71743 0.97192 0.28783 0.0
C732 C 0.75943 0.96649 0.29535 0.0
C733 C 0.79292 0.94407 0.28631 0.0
C734 C 0.78411 0.92675 0.27023 0.0
H735 H 0.65852 0.82737 0.2554 0.0
H736 H 0.69695 0.85449 0.26951 0.0
H737 H 0.64622 0.88184 0.26332 0.0
H738 H 0.67604 0.95948 0.26644 0.0
H739 H 0.69093 0.98935 0.29431 0.0
H740 H 0.62032 0.3183 0.53977 0.0
H741 H 0.64306 0.30068 0.51079 0.0
H742 H 0.64261 0.16103 0.52291 0.0
H743 H 0.61976 0.17806 0.5516 0.0
H744 H 0.71891 0.25317 0.49871 0.0
H745 H 0.56249 0.16814 0.48131 0.0
H746 H 0.56691 0.20355 0.49957 0.0
H747 H 0.58619 0.14693 0.50043 0.0
C748 C 0.62513 0.28386 0.53624 0.0
C749 C 0.61805 0.24959 0.54801 0.0
C750 C 0.63811 0.27387 0.51969 0.0
C751 C 0.64383 0.22949 0.51461 0.0
C752 C 0.63751 0.19544 0.52643 0.0
H753 H 0.73221 0.06659 0.43396 0.0
H754 H 0.71077 0.1024 0.4603 0.0
C755 C 0.62462 0.20532 0.54289 0.0
C756 C 0.65675 0.21807 0.49707 0.0
H757 H 0.62562 0.15371 0.46369 0.0
C758 C 0.69825 0.23206 0.49092 0.0
C759 C 0.62964 0.19071 0.48686 0.0
C760 C 0.58363 0.17682 0.49229 0.0
C761 C 0.71426 0.21739 0.47521 0.0
C762 C 0.68801 0.18826 0.46543 0.0
C763 C 0.64585 0.17575 0.47129 0.0
C764 C 0.7045 0.16812 0.44956 0.0
C765 C 0.75987 0.23146 0.46943 0.0
C766 C 0.70852 0.19335 0.43477 0.0
C767 C 0.72064 0.17289 0.41958 0.0
C768 C 0.72898 0.12684 0.41895 0.0
C769 C 0.72612 0.10208 0.43394 0.0
C770 C 0.71377 0.12246 0.44903 0.0
H771 H 0.77799 0.25044 0.47926 0.0
H772 H 0.77991 0.20184 0.46592 0.0
H773 H 0.75672 0.25267 0.45807 0.0
H774 H 0.70113 0.22859 0.43489 0.0
H775 H 0.7225 0.19293 0.40827 0.0
H776 H 0.37952 0.07447 0.79439 0.0
H777 H 0.39304 0.09909 0.7656 0.0
H778 H 0.26878 0.17066 0.76569 0.0
H779 H 0.25458 0.1458 0.79472 0.0
H780 H 0.32697 0.08656 0.73606 0.0
H781 H 0.37498 0.26092 0.75123 0.0
H782 H 0.38099 0.21698 0.76656 0.0
H783 H 0.32666 0.2365 0.76098 0.0
C784 C 0.35495 0.0955 0.78837 0.0
C785 C 0.31603 0.10836 0.79692 0.0
C786 C 0.36276 0.10947 0.77188 0.0
C787 C 0.33208 0.13688 0.76359 0.0
C788 C 0.293 0.14973 0.77196 0.0
H789 H 0.39635 0.24988 0.66346 0.0
H790 H 0.35596 0.23639 0.68991 0.0
C791 C 0.28493 0.13544 0.7885 0.0
C792 C 0.3416 0.15127 0.74611 0.0
H793 H 0.38695 0.23645 0.72347 0.0
C794 C 0.33936 0.11956 0.73322 0.0
C795 C 0.3574 0.19441 0.74245 0.0
C796 C 0.36038 0.22942 0.75596 0.0
C797 C 0.35423 0.12929 0.71689 0.0
C798 C 0.37292 0.1715 0.71346 0.0
C799 C 0.37284 0.20406 0.72612 0.0
C800 C 0.39684 0.18056 0.69745 0.0
C801 C 0.35064 0.09387 0.70352 0.0
C802 C 0.43376 0.15442 0.69313 0.0
C803 C 0.45673 0.16197 0.67816 0.0
C804 C 0.44363 0.19617 0.66715 0.0
C805 C 0.40718 0.22314 0.67163 0.0
C806 C 0.38407 0.21547 0.68672 0.0
H807 H 0.32311 0.07042 0.70631 0.0
H808 H 0.34503 0.10866 0.69089 0.0
H809 H 0.38202 0.07443 0.70316 0.0
H810 H 0.44499 0.12807 0.70141 0.0
H811 H 0.48483 0.14078 0.67523 0.0
H812 H 0.50512 0.87488 0.04135 0.0
H813 H 0.47605 0.88973 0.0133 0.0
H814 H 0.4003 0.76835 0.01511 0.0
H815 H 0.42926 0.75314 0.04349 0.0
H816 H 0.4811 0.83752 0.98349 0.0
H817 H 0.30688 0.86692 1.00453 0.0
H818 H 0.35309 0.86644 0.01903 0.0
H819 H 0.33237 0.8152 0.01062 0.0
C820 C 0.48231 0.85117 0.03584 0.0
C821 C 0.46915 0.81301 0.04477 0.0
C822 C 0.46583 0.8597 0.01975 0.0
C823 C 0.43561 0.83047 0.01218 0.0
C824 C 0.42311 0.79169 0.02083 0.0
H825 H 0.3626 0.87952 0.90606 0.0
H826 H 0.38329 0.84024 0.93194 0.0
C827 C 0.43981 0.78297 0.037 0.0
C828 C 0.41699 0.84176 0.99539 0.0
H829 H 0.32255 0.87858 0.9759 0.0
C830 C 0.44631 0.84588 0.98173 0.0
C831 C 0.37168 0.85312 0.99322 0.0
C832 C 0.33903 0.85057 1.0076 0.0
C833 C 0.43185 0.86224 0.96609 0.0
C834 C 0.38666 0.8743 0.96398 0.0
C835 C 0.35708 0.86904 0.97751 0.0
C836 C 0.37047 0.89619 0.94835 0.0
C837 C 0.46552 0.86854 0.95221 0.0
C838 C 0.35481 0.94012 0.94903 0.0
C839 C 0.34278 0.96256 0.9343 0.0
C840 C 0.34601 0.9415 0.91855 0.0
C841 C 0.36002 0.89685 0.91796 0.0
C842 C 0.37207 0.8744 0.93274 0.0
H843 H 0.50022 0.86578 0.95689 0.0
H844 H 0.46052 0.84264 0.94246 0.0
H845 H 0.46126 0.90151 0.94613 0.0
H846 H 0.35315 0.95756 0.96094 0.0
H847 H 0.33195 0.99681 0.93526 0.0
H848 H 0.71569 0.89923 0.35748 0.0
H849 H 0.66125 0.8439 0.36664 0.0
H850 H 0.60015 0.94085 0.39924 0.0
H851 H 0.65384 0.99654 0.39 0.0
H852 H 0.6422 0.81022 0.39818 0.0
H853 H 0.49437 0.89715 0.372 0.0
H854 H 0.5505 0.91261 0.36655 0.0
H855 H 0.52704 0.92967 0.38632 0.0
C856 C 0.69078 0.90883 0.36663 0.0
C857 C 0.68908 0.95255 0.37288 0.0
C858 C 0.65962 0.87712 0.37185 0.0
C859 C 0.62602 0.88839 0.3834 0.0
C860 C 0.62502 0.9316 0.39002 0.0
H861 H 0.42536 0.7041 0.42632 0.0
H862 H 0.47218 0.77048 0.42264 0.0
C863 C 0.65603 0.96337 0.38478 0.0
C864 C 0.59228 0.85478 0.38849 0.0
H865 H 0.48102 0.831 0.38723 0.0
C866 C 0.60696 0.81498 0.39589 0.0
C867 C 0.54617 0.86092 0.38552 0.0
C868 C 0.52846 0.90219 0.37703 0.0
C869 C 0.57697 0.78103 0.40015 0.0
C870 C 0.53114 0.78685 0.39689 0.0
C871 C 0.51616 0.82695 0.38989 0.0
C872 C 0.49952 0.7494 0.39876 0.0
C873 C 0.59446 0.73848 0.40772 0.0
C874 C 0.49866 0.71639 0.38638 0.0
C875 C 0.47202 0.6789 0.38836 0.0
C876 C 0.44542 0.67333 0.4028 0.0
C877 C 0.44496 0.7074 0.41496 0.0
C878 C 0.47189 0.74521 0.41294 0.0
H879 H 0.62957 0.74164 0.41189 0.0
H880 H 0.57372 0.72845 0.41864 0.0
H881 H 0.59253 0.71154 0.39821 0.0
H882 H 0.51952 0.71916 0.37531 0.0
H883 H 0.47298 0.65371 0.37863 0.0
H884 H 0.68678 0.2318 0.61335 0.0
H885 H 0.74436 0.18007 0.62316 0.0
H886 H 0.64661 0.1094 0.65236 0.0
H887 H 0.58901 0.16043 0.64264 0.0
H888 H 0.77248 0.15574 0.65683 0.0
H889 H 0.7014 1.01258 0.62184 0.0
H890 H 0.68573 0.06934 0.61744 0.0
H891 H 0.66342 0.04129 0.63551 0.0
C892 C 0.67753 0.2055 0.62197 0.0
C893 C 0.633 0.20028 0.62707 0.0
C894 C 0.71053 0.17592 0.62756 0.0
C895 C 0.69968 0.14038 0.63827 0.0
C896 C 0.65566 0.13604 0.64386 0.0
H897 H 0.86086 0.90919 0.66898 0.0
H898 H 0.8007 0.96461 0.66805 0.0
C899 C 0.62274 0.16553 0.63832 0.0
C900 C 0.73407 0.10723 0.6433 0.0
H901 H 0.76348 0.99796 0.63908 0.0
C902 C 0.77048 0.12122 0.65298 0.0
C903 C 0.73126 0.06205 0.63843 0.0
C904 C 0.69359 0.04529 0.62762 0.0
C905 C 0.80423 0.09136 0.65784 0.0
C906 C 0.80207 0.04643 0.65257 0.0
C907 C 0.76509 0.03226 0.64322 0.0
C908 C 0.8396 0.01467 0.65519 0.0
C909 C 0.84178 0.10826 0.66865 0.0
C910 C 0.88158 0.02439 0.64847 0.0
C911 C 0.91582 0.99303 0.64904 0.0
C912 C 0.90909 0.95086 0.65629 0.0
C913 C 0.86749 0.94153 0.66357 0.0
C914 C 0.83295 0.97308 0.66292 0.0
H915 H 0.83122 0.13741 0.67625 0.0
H916 H 0.85432 0.08204 0.67727 0.0
H917 H 0.86957 0.11906 0.66042 0.0
H918 H 0.88744 0.05566 0.64209 0.0
H919 H 0.94737 1.00138 0.64328 0.0
H920 H 0.63154 0.38697 0.92854 0.0
H921 H 0.58167 0.32216 0.92711 0.0
H922 H 0.59189 0.32275 0.873 0.0
H923 H 0.64134 0.38659 0.87431 0.0
H924 H 0.4981 0.3199 0.90962 0.0
H925 H 0.6134 0.19173 0.88517 0.0
H926 H 0.6326 0.24218 0.89509 0.0
H927 H 0.61552 0.24258 0.87339 0.0
C928 C 0.62395 0.37254 0.9164 0.0
C929 C 0.64056 0.39181 0.90154 0.0
C930 C 0.59521 0.33577 0.91558 0.0
C931 C 0.5834 0.31731 0.89994 0.0
C932 C 0.60103 0.33585 0.88521 0.0
H933 H 0.35636 0.17736 0.86157 0.0
H934 H 0.41084 0.23182 0.87134 0.0
C935 C 0.62916 0.37258 0.886 0.0
C936 C 0.55045 0.28064 0.8986 0.0
H937 H 0.53551 0.17814 0.88105 0.0
C938 C 0.50637 0.28858 0.90363 0.0
C939 C 0.56126 0.23964 0.89089 0.0
C940 C 0.60837 0.22826 0.88597 0.0
C941 C 0.47249 0.2575 0.90042 0.0
C942 C 0.48284 0.21769 0.89175 0.0
C943 C 0.52733 0.20886 0.88749 0.0
C944 C 0.44809 0.18517 0.88659 0.0
C945 C 0.42586 0.26774 0.90627 0.0
C946 C 0.45112 0.14059 0.89167 0.0
C947 C 0.42019 0.10927 0.88601 0.0
C948 C 0.38555 0.12172 0.87502 0.0
C949 C 0.38233 0.16655 0.87008 0.0
C950 C 0.41336 0.19786 0.87576 0.0
H951 H 0.42583 0.29196 0.91682 0.0
H952 H 0.40683 0.28262 0.89571 0.0
H953 H 0.40843 0.23712 0.9104 0.0
H954 H 0.4777 0.1299 0.89994 0.0
H955 H 0.42385 0.07513 0.89011 0.0
H956 H 0.16924 0.12621 0.12483 0.0
H957 H 0.23435 0.07852 0.12175 0.0
H958 H 0.26094 0.09 0.17487 0.0
H959 H 0.19508 0.13816 0.17809 0.0
H960 H 0.32625 0.09232 0.13015 0.0
H961 H 0.24821 0.95323 0.16565 0.0
H962 H 0.21625 0.99945 0.15761 0.0
H963 H 0.25059 1.00657 0.17586 0.0
C964 C 0.1892 0.11909 0.13587 0.0
C965 C 0.17692 0.13591 0.15172 0.0
C966 C 0.22647 0.09183 0.13406 0.0
C967 C 0.25218 0.08018 0.14809 0.0
C968 C 0.24122 0.09822 0.1639 0.0
H969 H 0.49935 0.92811 0.13594 0.0
H970 H 0.44412 0.98257 0.14498 0.0
C971 C 0.20391 0.12607 0.1657 0.0
C972 C 0.28913 0.04772 0.14593 0.0
H973 H 0.3181 0.93949 0.15338 0.0
C974 C 0.32484 0.05909 0.13541 0.0
C975 C 0.28675 1.00412 0.15256 0.0
C976 C 0.24834 0.9897 0.16347 0.0
C977 C 0.35791 0.02795 0.13116 0.0
C978 C 0.35544 0.98426 0.13772 0.0
C979 C 0.32002 0.97301 0.14841 0.0
C980 C 0.38858 0.94951 0.13313 0.0
C981 C 0.39436 0.04157 0.11918 0.0
C982 C 0.37559 0.91193 0.12388 0.0
C983 C 0.40717 0.88042 0.11871 0.0
C984 C 0.45242 0.8857 0.12278 0.0
C985 C 0.46496 0.92281 0.1325 0.0
C986 C 0.43341 0.95424 0.13763 0.0
H987 H 0.38623 0.07297 0.11248 0.0
H988 H 0.42556 0.04682 0.12635 0.0
H989 H 0.4006 0.01516 0.10971 0.0
H990 H 0.34111 0.90752 0.12033 0.0
H991 H 0.39619 0.85231 0.1113 0.0
H992 H 0.94625 0.88903 0.34047 0.0
H993 H 0.99677 0.8246 0.34256 0.0
H994 H 0.99549 0.8358 0.39663 0.0
H995 H 0.94569 0.89965 0.39466 0.0
H996 H 0.08473 0.8273 0.35987 0.0
H997 H 0.97027 0.70159 0.38678 0.0
H998 H 0.95077 0.7498 0.37536 0.0
H999 H 0.96807 0.75494 0.39692 0.0
C1000 C 0.95602 0.87705 0.35278 0.0
C1001 C 0.94185 0.89926 0.36741 0.0
C1002 C 0.98511 0.84053 0.35396 0.0
C1003 C 0.99965 0.82527 0.36977 0.0
C1004 C 0.98436 0.84665 0.38433 0.0
H1005 H 0.22555 0.68129 0.40841 0.0
H1006 H 0.17238 0.73753 0.39871 0.0
C1007 C 0.95597 0.88324 0.38316 0.0
C1008 C 0.03271 0.78873 0.37135 0.0
H1009 H 0.04796 0.68679 0.38938 0.0
C1010 C 0.07663 0.79627 0.3661 0.0
C1011 C 0.02207 0.74827 0.37944 0.0
C1012 C 0.97516 0.73783 0.38484 0.0
C1013 C 0.11055 0.76508 0.36931 0.0
C1014 C 0.10029 0.72554 0.37814 0.0
C1015 C 0.05598 0.71728 0.38277 0.0
C1016 C 0.13491 0.69244 0.38296 0.0
C1017 C 0.15709 0.77478 0.3633 0.0
C1018 C 0.13155 0.64835 0.37741 0.0
C1019 C 0.16178 0.61614 0.38295 0.0
C1020 C 0.19598 0.62713 0.39433 0.0
C1021 C 0.19988 0.67161 0.3996 0.0
C1022 C 0.16957 0.70389 0.394 0.0
H1023 H 0.15723 0.79987 0.35304 0.0
H1024 H 0.17688 0.78819 0.37393 0.0
H1025 H 0.1737 0.74408 0.35872 0.0
H1026 H 0.10506 0.63868 0.36894 0.0
H1027 H 0.15762 0.58233 0.37857 0.0
H1028 H 0.72117 0.39241 0.61531 0.0
H1029 H 0.7897 0.43474 0.6205 0.0
H1030 H 0.71985 0.55676 0.60977 0.0
H1031 H 0.65188 0.51499 0.60446 0.0
H1032 H 0.80758 0.55318 0.59624 0.0
H1033 H 0.80085 0.50966 0.6643 0.0
H1034 H 0.80145 0.46411 0.64965 0.0
H1035 H 0.75438 0.50083 0.65034 0.0
C1036 C 0.7208 0.42812 0.61362 0.0
C1037 C 0.68107 0.45038 0.60951 0.0
C1038 C 0.75982 0.45231 0.61678 0.0
C1039 C 0.75967 0.49899 0.61578 0.0
C1040 C 0.72073 0.52084 0.61069 0.0
H1041 H 0.90761 0.70811 0.66313 0.0
H1042 H 0.85322 0.65378 0.65315 0.0
C1043 C 0.68187 0.49687 0.60768 0.0
C1044 C 0.79868 0.52589 0.62104 0.0
H1045 H 0.85683 0.55916 0.65577 0.0
C1046 C 0.81881 0.5541 0.6092 0.0
C1047 C 0.8127 0.52758 0.63803 0.0
C1048 C 0.79116 0.49924 0.65141 0.0
C1049 C 0.85214 0.58434 0.61394 0.0
C1050 C 0.86593 0.58621 0.63095 0.0
C1051 C 0.84629 0.55755 0.64274 0.0
C1052 C 0.89933 0.61899 0.63692 0.0
C1053 C 0.87113 0.61526 0.60084 0.0
C1054 C 0.94345 0.61729 0.63121 0.0
C1055 C 0.97468 0.64829 0.63689 0.0
C1056 C 0.96248 0.68167 0.64844 0.0
C1057 C 0.91822 0.68307 0.65419 0.0
C1058 C 0.88707 0.65194 0.64854 0.0
H1059 H 0.85067 0.61592 0.5892 0.0
H1060 H 0.87367 0.64961 0.60585 0.0
H1061 H 0.90509 0.60396 0.59742 0.0
H1062 H 0.95383 0.59175 0.62243 0.0
H1063 H 1.00844 0.64599 0.63221 0.0
H1064 H 0.13857 0.19969 0.84238 0.0
H1065 H 0.09306 0.2676 0.84471 0.0
H1066 H 0.08882 0.25169 0.89861 0.0
H1067 H 0.1338 0.18452 0.89639 0.0
H1068 H 1.00538 0.26932 0.85954 0.0
H1069 H 0.11999 0.38424 0.89226 0.0
H1070 H 0.13923 0.33592 0.88086 0.0
H1071 H 0.11747 0.33025 0.90184 0.0
C1072 C 0.12883 0.21141 0.85472 0.0
C1073 C 0.13987 0.18692 0.86922 0.0
C1074 C 0.10263 0.24997 0.85604 0.0
C1075 C 0.08795 0.26492 0.87186 0.0
C1076 C 0.10033 0.24125 0.88631 0.0
H1077 H 0.86047 0.40372 0.9093 0.0
H1078 H 0.91596 0.35038 0.89931 0.0
C1079 C 0.12587 0.20269 0.88501 0.0
C1080 C 0.05664 0.30289 0.8735 0.0
H1081 H 0.04204 0.40099 0.89439 0.0
C1082 C 0.01357 0.29852 0.8669 0.0
C1083 C 0.06742 0.34106 0.88302 0.0
C1084 C 0.11368 0.34847 0.88978 0.0
C1085 C 0.98038 0.33023 0.87031 0.0
C1086 C 0.99044 0.36697 0.88074 0.0
C1087 C 0.03415 0.37253 0.88658 0.0
C1088 C 0.95585 0.39921 0.88623 0.0
C1089 C 0.93469 0.32386 0.86288 0.0
C1090 C 0.9602 0.44454 0.88247 0.0
C1091 C 0.92862 0.47519 0.88822 0.0
C1092 C 0.89215 0.46122 0.898 0.0
C1093 C 0.88794 0.41571 0.90176 0.0
C1094 C 0.91952 0.38507 0.89596 0.0
H1095 H 0.93571 0.30205 0.85161 0.0
H1096 H 0.91289 0.30786 0.87237 0.0
H1097 H 0.91956 0.3562 0.8593 0.0
H1098 H 0.98812 0.45623 0.87509 0.0
H1099 H 0.93308 0.50993 0.88508 0.0
H1100 H 0.44343 0.56335 0.12034 0.0
H1101 H 0.37829 0.51655 0.12425 0.0
H1102 H 0.29287 0.62658 0.11145 0.0
H1103 H 0.35831 0.67441 0.1077 0.0
H1104 H 0.30704 0.54452 0.1491 0.0
H1105 H 0.24709 0.51155 0.08395 0.0
H1106 H 0.30468 0.52431 0.08826 0.0
H1107 H 0.26343 0.56716 0.0897 0.0
C1108 C 0.41089 0.57769 0.11811 0.0
C1109 C 0.4063 0.62282 0.11373 0.0
C1110 C 0.37367 0.55074 0.12033 0.0
C1111 C 0.33082 0.56804 0.11814 0.0
C1112 C 0.32578 0.6125 0.11304 0.0
H1113 H 0.07755 0.43173 0.13482 0.0
H1114 H 0.13498 0.48435 0.12619 0.0
C1115 C 0.36326 0.63974 0.11082 0.0
C1116 C 0.29196 0.54014 0.1227 0.0
H1117 H 0.20865 0.47669 0.10616 0.0
C1118 C 0.28532 0.52988 0.13974 0.0
C1119 C 0.26359 0.5214 0.11046 0.0
C1120 C 0.2698 0.53133 0.09202 0.0
C1121 C 0.25135 0.50094 0.14488 0.0
C1122 C 0.22398 0.48061 0.13261 0.0
C1123 C 0.22987 0.49188 0.11556 0.0
C1124 C 0.18938 0.44743 0.13726 0.0
C1125 C 0.24484 0.49287 0.16347 0.0
C1126 C 0.20085 0.40849 0.14604 0.0
C1127 C 0.16803 0.37835 0.15111 0.0
C1128 C 0.12298 0.38622 0.14734 0.0
C1129 C 0.11182 0.42454 0.13803 0.0
C1130 C 0.14465 0.45474 0.13304 0.0
H1131 H 0.25885 0.52036 0.17113 0.0
H1132 H 0.20906 0.48922 0.16662 0.0
H1133 H 0.26231 0.46181 0.16711 0.0
H1134 H 0.23526 0.4015 0.14907 0.0
H1135 H 0.17799 0.34908 0.1581 0.0
H1136 H 0.51411 0.29957 0.55387 0.0
H1137 H 0.507 0.34074 0.52736 0.0
H1138 H 0.47474 0.45966 0.55513 0.0
H1139 H 0.48285 0.4188 0.58147 0.0
H1140 H 0.42455 0.37111 0.52066 0.0
H1141 H 0.54129 0.51228 0.51557 0.0
H1142 H 0.55109 0.46567 0.52945 0.0
H1143 H 0.51433 0.50995 0.53569 0.0
C1144 C 0.50841 0.33511 0.55429 0.0
C1145 C 0.49974 0.35626 0.56967 0.0
C1146 C 0.50374 0.35856 0.53914 0.0
C1147 C 0.49029 0.40343 0.53919 0.0
C1148 C 0.48597 0.42547 0.55467 0.0
H1149 H 0.2985 0.50802 0.46888 0.0
H1150 H 0.34244 0.49849 0.49465 0.0
C1151 C 0.49065 0.40206 0.56976 0.0
C1152 C 0.47181 0.4242 0.52367 0.0
H1153 H 0.47426 0.51746 0.49897 0.0
C1154 C 0.43589 0.40286 0.51583 0.0
C1155 C 0.48624 0.46582 0.51739 0.0
C1156 C 0.52564 0.48958 0.52487 0.0
C1157 C 0.41351 0.42217 0.50218 0.0
C1158 C 0.4268 0.4645 0.49629 0.0
C1159 C 0.46347 0.48551 0.50377 0.0
C1160 C 0.40423 0.48519 0.48161 0.0
C1161 C 0.37584 0.39688 0.49407 0.0
C1162 C 0.42515 0.48434 0.46585 0.0
C1163 C 0.40015 0.49026 0.45117 0.0
C1164 C 0.35404 0.49748 0.45207 0.0
C1165 C 0.33416 0.50361 0.46787 0.0
C1166 C 0.35918 0.49759 0.48259 0.0
H1167 H 0.37527 0.36147 0.49803 0.0
H1168 H 0.34372 0.41228 0.49776 0.0
H1169 H 0.37842 0.39827 0.48014 0.0
H1170 H 0.45978 0.47473 0.4648 0.0
H1171 H 0.41599 0.48456 0.43911 0.0
H1172 H 0.14808 0.99142 0.83171 0.0
H1173 H 0.10858 0.98218 0.80505 0.0
H1174 H 0.23119 1.00272 0.77805 0.0
H1175 H 0.27094 1.01041 0.80479 0.0
H1176 H 0.09649 0.02205 0.77223 0.0
H1177 H 0.20105 0.86956 0.77173 0.0
H1178 H 0.19733 0.90552 0.78981 0.0
H1179 H 0.23171 0.92069 0.77222 0.0
C1180 C 0.16608 0.9964 0.82005 0.0
C1181 C 0.2124 1.00237 0.82028 0.0
C1182 C 0.14353 0.99082 0.80481 0.0
C1183 C 0.16707 0.99083 0.78958 0.0
C1184 C 0.21243 1.00219 0.78969 0.0
H1185 H 0.08845 0.93054 0.68841 0.0
H1186 H 0.09642 0.96952 0.71516 0.0
C1187 C 0.23506 1.00752 0.80497 0.0
C1188 C 0.14637 0.97094 0.77435 0.0
H1189 H 0.15357 0.88045 0.74861 0.0
C1190 C 0.10894 0.99116 0.76701 0.0
C1191 C 0.16173 0.92984 0.76789 0.0
C1192 C 0.19987 0.9048 0.77588 0.0
C1193 C 0.08732 0.97193 0.75305 0.0
C1194 C 0.10382 0.93166 0.74622 0.0
C1195 C 0.14068 0.91119 0.75383 0.0
C1196 C 0.08592 0.91113 0.73056 0.0
C1197 C 0.04673 0.99458 0.74592 0.0
C1198 C 0.07558 0.86553 0.73019 0.0
C1199 C 0.07131 0.84314 0.71482 0.0
C1200 C 0.07677 0.86608 0.6996 0.0
C1201 C 0.08288 0.91235 0.69999 0.0
C1202 C 0.08748 0.93469 0.71532 0.0
H1203 H 0.02987 0.01538 0.75556 0.0
H1204 H 0.057 0.01675 0.73546 0.0
H1205 H 0.02257 0.97005 0.74092 0.0
H1206 H 0.07461 0.84649 0.74176 0.0
H1207 H 0.06889 0.80726 0.71491 0.0
H1208 H 0.58915 0.77521 0.04991 0.0
H1209 H 0.59457 0.72855 0.02497 0.0
H1210 H 0.5663 0.61266 0.05514 0.0
H1211 H 0.56304 0.65974 0.08033 0.0
H1212 H 0.63818 0.59853 0.03937 0.0
H1213 H 0.52327 0.66392 0.99177 0.0
H1214 H 0.55538 0.70942 0.99958 0.0
H1215 H 0.51872 0.67967 0.01361 0.0
C1216 C 0.58168 0.7401 0.05103 0.0
C1217 C 0.57475 0.7211 0.06691 0.0
C1218 C 0.58486 0.71324 0.03673 0.0
C1219 C 0.58053 0.66679 0.038 0.0
C1220 C 0.56969 0.64829 0.05375 0.0
H1221 H 0.65327 0.55741 0.93996 0.0
H1222 H 0.60974 0.56057 0.96605 0.0
C1223 C 0.56713 0.67523 0.06811 0.0
C1224 C 0.59468 0.63787 0.02366 0.0
H1225 H 0.59314 0.6325 0.98079 0.0
C1226 C 0.62737 0.60521 0.02659 0.0
C1227 C 0.58021 0.64531 1.00695 0.0
C1228 C 0.54208 0.67616 1.00287 0.0
C1229 C 0.64832 0.58263 0.01327 0.0
C1230 C 0.63756 0.59406 0.99646 0.0
C1231 C 0.60232 0.62401 0.9936 0.0
C1232 C 0.66529 0.5798 0.98179 0.0
C1233 C 0.68226 0.5473 0.01745 0.0
C1234 C 0.71153 0.58693 0.98199 0.0
C1235 C 0.73648 0.58367 0.96719 0.0
C1236 C 0.71569 0.57392 0.95185 0.0
C1237 C 0.67021 0.56369 0.95175 0.0
C1238 C 0.64527 0.56618 0.96663 0.0
H1239 H 0.67277 0.52929 0.02911 0.0
H1240 H 0.68608 0.52278 1.00711 0.0
H1241 H 0.7149 0.56324 0.01984 0.0
H1242 H 0.72791 0.59886 0.99323 0.0
H1243 H 0.77119 0.59329 0.96745 0.0
H1244 H 0.97605 0.27876 0.21954 0.0
H1245 H 0.97087 0.23256 0.24462 0.0
H1246 H 1.01028 0.11785 0.21557 0.0
H1247 H 0.01351 0.16441 0.1902 0.0
H1248 H 0.93769 0.09977 0.23051 0.0
H1249 H 0.04367 0.17378 0.27911 0.0
H1250 H 1.00965 0.21702 0.27054 0.0
H1251 H 0.04935 0.18878 0.25723 0.0
C1252 C 0.98585 0.24414 0.21873 0.0
C1253 C 0.99612 0.22523 0.20309 0.0
C1254 C 0.98288 0.21756 0.2331 0.0
C1255 C 0.99059 0.17149 0.23217 0.0
C1256 C 1.00434 0.15324 0.2167 0.0
H1257 H 0.91348 0.06308 0.3299 0.0
H1258 H 0.95983 0.06674 0.30451 0.0
C1259 C 1.00682 0.17989 0.20225 0.0
C1260 C 0.9771 0.14227 0.24649 0.0
H1261 H 0.97458 0.13915 0.28939 0.0
C1262 C 0.94678 0.10767 0.24337 0.0
C1263 C 0.98945 0.1513 0.26334 0.0
C1264 C 0.02524 0.18443 0.26768 0.0
C1265 C 0.9258 0.0847 0.25658 0.0
C1266 C 0.93406 0.09765 0.27342 0.0
C1267 C 0.96725 0.12952 0.27654 0.0
C1268 C 0.90536 0.08305 0.28775 0.0
C1269 C 0.89436 0.04742 0.25224 0.0
C1270 C 0.85893 0.08842 0.28675 0.0
C1271 C 0.83247 0.08503 0.30116 0.0
C1272 C 0.85189 0.07685 0.31688 0.0
C1273 C 0.89768 0.0682 0.3178 0.0
C1274 C 0.92419 0.07095 0.30332 0.0
H1275 H 0.90608 0.02927 0.2409 0.0
H1276 H 0.89085 0.02335 0.26275 0.0
H1277 H 0.86116 0.06148 0.24923 0.0
H1278 H 0.84339 0.09909 0.27515 0.0
H1279 H 0.79743 0.09323 0.30027 0.0
loop_
_geom_bond_atom_site_label_1
_geom_bond_atom_site_label_2
_geom_bond_distance
_geom_bond_site_symmetry_2
_ccdc_geom_bond_type
Zn0 N4 2.020 . S
Zn0 O8 2.019 . S
Zn0 N10 2.119 . S
Zn0 O18 1.975 . S
C1 N2 1.334 . S
C1 N5 1.336 . S
N2 C1 1.334 . S
N2 C3 1.334 . S
C3 N2 1.334 . S
C3 N4 1.336 . S
N4 Zn0 2.020 . S
N4 C3 1.336 . S
N4 N5 1.354 . S
N5 C1 1.336 . S
N5 N4 1.354 . S
N5 Zn9 2.020 . S
C6 O7 1.244 . S
C6 O30 1.257 . S
O7 C6 1.244 . S
O8 Zn0 2.019 . S
O8 C28 1.257 . S
Zn9 N5 2.020 . S
Zn9 O16 1.975 . S
Zn9 N25 2.119 . S
Zn9 O30 2.019 . S
N10 Zn0 2.119 . S
N10 C12 1.334 . S
N10 C13 1.328 . S
C11 C12 1.391 . S
C11 N14 1.329 . S
C11 H32 0.930 . S
C12 N10 1.334 . S
C12 C11 1.391 . S
C12 H19 0.930 . S
C13 N10 1.328 . S
C13 C15 1.392 . S
C13 H20 0.930 . S
N14 C11 1.329 . S
N14 C15 1.331 . S
C15 C13 1.392 . S
C15 N14 1.331 . S
O16 Zn9 1.975 . S
O16 C17 1.252 . S
C17 O16 1.252 . S
C17 O18 1.252 . S
O18 Zn0 1.975 . S
O18 C17 1.252 . S
H19 C12 0.930 . S
H20 C13 0.930 . S
C21 C22 1.392 . S
C21 N25 1.328 . S
C21 H27 0.930 . S
C22 C21 1.392 . S
C22 N26 1.331 . S
C23 C24 1.391 . S
C23 N26 1.329 . S
C23 H33 0.930 . S
C24 C23 1.391 . S
C24 N25 1.334 . S
C24 H31 0.930 . S
N25 Zn9 2.119 . S
N25 C21 1.328 . S
N25 C24 1.334 . S
N26 C22 1.331 . S
N26 C23 1.329 . S
H27 C21 0.930 . S
C28 O8 1.257 . S
C28 O29 1.244 . S
O29 C28 1.244 . S
O30 C6 1.257 . S
O30 Zn9 2.019 . S
H31 C24 0.930 . S
H32 C11 0.930 . S
H33 C23 0.930 . S
Zn34 N38 2.020 1_655 S
Zn34 O42 2.019 . S
Zn34 N44 2.119 . S
Zn34 O52 1.975 . S
C35 N36 1.334 . S
C35 N39 1.336 . S
N36 C35 1.334 . S
N36 C37 1.334 . S
C37 N36 1.334 . S
C37 N38 1.336 . S
N38 Zn34 2.020 1_455 S
N38 C37 1.336 . S
N38 N39 1.354 . S
N39 C35 1.336 . S
N39 N38 1.354 . S
N39 Zn43 2.020 . S
C40 O41 1.244 . S
C40 O64 1.257 . S
O41 C40 1.244 . S
O42 Zn34 2.019 . S
O42 C62 1.257 . S
Zn43 N39 2.020 . S
Zn43 O50 1.975 . S
Zn43 N59 2.119 . S
Zn43 O64 2.019 . S
N44 Zn34 2.119 . S
N44 C46 1.334 . S
N44 C47 1.328 . S
C45 C46 1.391 . S
C45 N48 1.329 . S
C45 H66 0.930 . S
C46 N44 1.334 . S
C46 C45 1.391 . S
C46 H53 0.930 . S
C47 N44 1.328 . S
C47 C49 1.392 . S
C47 H54 0.930 . S
N48 C45 1.329 . S
N48 C49 1.331 . S
C49 C47 1.392 . S
C49 N48 1.331 . S
O50 Zn43 1.975 . S
O50 C51 1.252 1_455 S
C51 O50 1.252 1_655 S
C51 O52 1.252 . S
O52 Zn34 1.975 . S
O52 C51 1.252 . S
H53 C46 0.930 . S
H54 C47 0.930 . S
C55 C56 1.392 . S
C55 N59 1.328 . S
C55 H61 0.930 . S
C56 C55 1.392 . S
C56 N60 1.331 . S
C57 C58 1.391 . S
C57 N60 1.329 . S
C57 H67 0.930 . S
C58 C57 1.391 . S
C58 N59 1.334 . S
C58 H65 0.930 . S
N59 Zn43 2.119 . S
N59 C55 1.328 . S
N59 C58 1.334 . S
N60 C56 1.331 . S
N60 C57 1.329 . S
H61 C55 0.930 . S
C62 O42 1.257 . S
C62 O63 1.244 1_655 S
O63 C62 1.244 1_455 S
O64 C40 1.257 . S
O64 Zn43 2.019 . S
H65 C58 0.930 . S
H66 C45 0.930 . S
H67 C57 0.930 . S
Zn68 N72 2.020 . S
Zn68 O76 2.019 . S
Zn68 N78 2.119 . S
Zn68 O86 1.975 . S
C69 N70 1.334 . S
C69 N73 1.336 . S
N70 C69 1.334 . S
N70 C71 1.334 . S
C71 N70 1.334 . S
C71 N72 1.336 . S
N72 Zn68 2.020 . S
N72 C71 1.336 . S
N72 N73 1.354 . S
N73 C69 1.336 . S
N73 N72 1.354 . S
N73 Zn77 2.020 . S
C74 O75 1.244 . S
C74 O98 1.257 . S
O75 C74 1.244 . S
O76 Zn68 2.019 . S
O76 C96 1.257 . S
Zn77 N73 2.020 . S
Zn77 O84 1.975 . S
Zn77 N93 2.119 . S
Zn77 O98 2.019 . S
N78 Zn68 2.119 . S
N78 C80 1.334 . S
N78 C81 1.328 . S
C79 C80 1.391 . S
C79 N82 1.329 . S
C79 H100 0.930 . S
C80 N78 1.334 . S
C80 C79 1.391 . S
C80 H87 0.930 . S
C81 N78 1.328 . S
C81 C83 1.392 . S
C81 H88 0.930 . S
N82 C79 1.329 . S
N82 C83 1.331 . S
C83 C81 1.392 . S
C83 N82 1.331 . S
O84 Zn77 1.975 . S
O84 C85 1.252 . S
C85 O84 1.252 . S
C85 O86 1.252 . S
O86 Zn68 1.975 . S
O86 C85 1.252 . S
H87 C80 0.930 . S
H88 C81 0.930 . S
C89 C90 1.392 . S
C89 N93 1.328 . S
C89 H95 0.930 . S
C90 C89 1.392 . S
C90 N94 1.331 . S
C91 C92 1.391 . S
C91 N94 1.329 . S
C91 H101 0.930 . S
C92 C91 1.391 . S
C92 N93 1.334 . S
C92 H99 0.930 . S
N93 Zn77 2.119 . S
N93 C89 1.328 . S
N93 C92 1.334 . S
N94 C90 1.331 . S
N94 C91 1.329 . S
H95 C89 0.930 . S
C96 O76 1.257 . S
C96 O97 1.244 . S
O97 C96 1.244 . S
O98 C74 1.257 . S
O98 Zn77 2.019 . S
H99 C92 0.930 . S
H100 C79 0.930 . S
H101 C91 0.930 . S
Zn102 N106 2.020 . S
Zn102 O110 2.019 . S
Zn102 N112 2.119 . S
Zn102 O120 1.975 . S
C103 N104 1.334 . S
C103 N107 1.336 . S
N104 C103 1.334 . S
N104 C105 1.334 . S
C105 N104 1.334 . S
C105 N106 1.336 1_655 S
N106 Zn102 2.020 . S
N106 C105 1.336 1_455 S
N106 N107 1.354 1_455 S
N107 C103 1.336 . S
N107 N106 1.354 1_655 S
N107 Zn111 2.020 . S
C108 O109 1.242 1_655 S
C108 O132 1.257 . S
O109 C108 1.242 1_455 S
O110 Zn102 2.019 . S
O110 C130 1.257 . S
Zn111 N107 2.020 . S
Zn111 O118 1.975 1_655 S
Zn111 N127 2.119 . S
Zn111 O132 2.019 . S
N112 Zn102 2.119 . S
N112 C114 1.334 . S
N112 C115 1.328 . S
C113 C114 1.391 . S
C113 N116 1.329 . S
C113 H134 0.930 . S
C114 N112 1.334 . S
C114 C113 1.391 . S
C114 H121 0.930 . S
C115 N112 1.328 . S
C115 C117 1.392 . S
C115 H122 0.930 . S
N116 C113 1.329 . S
N116 C117 1.331 . S
C117 C115 1.392 . S
C117 N116 1.331 . S
O118 Zn111 1.975 1_455 S
O118 C119 1.252 . S
C119 O118 1.252 . S
C119 O120 1.252 . S
O120 Zn102 1.975 . S
O120 C119 1.252 . S
H121 C114 0.930 . S
H122 C115 0.930 . S
C123 C124 1.392 . S
C123 N127 1.328 . S
C123 H129 0.930 . S
C124 C123 1.392 . S
C124 N128 1.331 . S
C125 C126 1.391 . S
C125 N128 1.329 . S
C125 H135 0.930 . S
C126 C125 1.391 . S
C126 N127 1.334 . S
C126 H133 0.930 . S
N127 Zn111 2.119 . S
N127 C123 1.328 . S
N127 C126 1.334 . S
N128 C124 1.331 . S
N128 C125 1.329 . S
H129 C123 0.930 . S
C130 O110 1.257 . S
C130 O131 1.244 . S
O131 C130 1.244 . S
O132 C108 1.257 . S
O132 Zn111 2.019 . S
H133 C126 0.930 . S
H134 C113 0.930 . S
H135 C125 0.930 . S
Zn136 N140 2.020 1_565 S
Zn136 O144 2.019 . S
Zn136 N146 2.119 . S
Zn136 O154 1.975 . S
C137 N138 1.334 . S
C137 N141 1.336 . S
N138 C137 1.334 . S
N138 C139 1.334 . S
C139 N138 1.334 . S
C139 N140 1.336 . S
N140 Zn136 2.020 1_545 S
N140 C139 1.336 . S
N140 N141 1.354 . S
N141 C137 1.336 . S
N141 N140 1.354 . S
N141 Zn145 2.020 . S
C142 O143 1.244 . S
C142 O166 1.257 . S
O143 C142 1.244 . S
O144 Zn136 2.019 . S
O144 C164 1.257 . S
Zn145 N141 2.020 . S
Zn145 O152 1.975 . S
Zn145 N161 2.119 . S
Zn145 O166 2.019 . S
N146 Zn136 2.119 . S
N146 C148 1.334 . S
N146 C149 1.328 . S
C147 C148 1.391 . S
C147 N150 1.329 . S
C147 H168 0.930 . S
C148 N146 1.334 . S
C148 C147 1.391 . S
C148 H155 0.930 . S
C149 N146 1.328 . S
C149 C151 1.392 . S
C149 H156 0.930 . S
N150 C147 1.329 . S
N150 C151 1.331 . S
C151 C149 1.392 . S
C151 N150 1.331 . S
O152 Zn145 1.975 . S
O152 C153 1.252 1_545 S
C153 O152 1.252 1_565 S
C153 O154 1.252 . S
O154 Zn136 1.975 . S
O154 C153 1.252 . S
H155 C148 0.930 . S
H156 C149 0.930 . S
C157 C158 1.392 . S
C157 N161 1.328 . S
C157 H163 0.930 . S
C158 C157 1.392 . S
C158 N162 1.331 . S
C159 C160 1.391 . S
C159 N162 1.329 . S
C159 H169 0.930 . S
C160 C159 1.391 . S
C160 N161 1.334 . S
C160 H167 0.930 . S
N161 Zn145 2.119 . S
N161 C157 1.328 . S
N161 C160 1.334 . S
N162 C158 1.331 . S
N162 C159 1.329 . S
H163 C157 0.930 . S
C164 O144 1.257 . S
C164 O165 1.244 1_565 S
O165 C164 1.244 1_545 S
O166 C142 1.257 . S
O166 Zn145 2.019 . S
H167 C160 0.930 . S
H168 C147 0.930 . S
H169 C159 0.930 . S
Zn170 N174 2.020 . S
Zn170 O178 2.019 . S
Zn170 N180 2.119 . S
Zn170 O188 1.975 . S
C171 N172 1.334 . S
C171 N175 1.336 . S
N172 C171 1.334 . S
N172 C173 1.334 . S
C173 N172 1.334 . S
C173 N174 1.336 . S
N174 Zn170 2.020 . S
N174 C173 1.336 . S
N174 N175 1.354 . S
N175 C171 1.336 . S
N175 N174 1.354 . S
N175 Zn179 2.020 . S
C176 O177 1.244 . S
C176 O200 1.257 . S
O177 C176 1.244 . S
O178 Zn170 2.019 . S
O178 C198 1.257 . S
Zn179 N175 2.020 . S
Zn179 O186 1.975 . S
Zn179 N195 2.119 . S
Zn179 O200 2.019 . S
N180 Zn170 2.119 . S
N180 C182 1.334 . S
N180 C183 1.328 . S
C181 C182 1.391 . S
C181 N184 1.329 . S
C181 H202 0.930 . S
C182 N180 1.334 . S
C182 C181 1.391 . S
C182 H189 0.930 . S
C183 N180 1.328 . S
C183 C185 1.392 . S
C183 H190 0.930 . S
N184 C181 1.329 . S
N184 C185 1.331 . S
C185 C183 1.392 . S
C185 N184 1.331 . S
O186 Zn179 1.975 . S
O186 C187 1.252 . S
C187 O186 1.252 . S
C187 O188 1.252 . S
O188 Zn170 1.975 . S
O188 C187 1.252 . S
H189 C182 0.930 . S
H190 C183 0.930 . S
C191 C192 1.392 . S
C191 N195 1.328 . S
C191 H197 0.930 . S
C192 C191 1.392 . S
C192 N196 1.331 . S
C193 C194 1.391 . S
C193 N196 1.329 . S
C193 H203 0.930 . S
C194 C193 1.391 . S
C194 N195 1.334 . S
C194 H201 0.930 . S
N195 Zn179 2.119 . S
N195 C191 1.328 . S
N195 C194 1.334 . S
N196 C192 1.331 . S
N196 C193 1.329 . S
H197 C191 0.930 . S
C198 O178 1.257 . S
C198 O199 1.244 . S
O199 C198 1.244 . S
O200 C176 1.257 . S
O200 Zn179 2.019 . S
H201 C194 0.930 . S
H202 C181 0.930 . S
H203 C193 0.930 . S
Zn204 N208 2.020 . S
Zn204 O212 2.019 . S
Zn204 N214 2.119 . S
Zn204 O222 1.975 . S
C205 N206 1.334 . S
C205 N209 1.336 . S
N206 C205 1.334 . S
N206 C207 1.334 . S
C207 N206 1.334 . S
C207 N208 1.336 1_565 S
N208 Zn204 2.020 . S
N208 C207 1.336 1_545 S
N208 N209 1.354 1_545 S
N209 C205 1.336 . S
N209 N208 1.354 1_565 S
N209 Zn213 2.020 . S
C210 O211 1.242 1_565 S
C210 O234 1.257 . S
O211 C210 1.242 1_545 S
O212 Zn204 2.019 . S
O212 C232 1.257 . S
Zn213 N209 2.020 . S
Zn213 O220 1.975 1_565 S
Zn213 N229 2.119 . S
Zn213 O234 2.019 . S
N214 Zn204 2.119 . S
N214 C216 1.334 . S
N214 C217 1.328 . S
C215 C216 1.391 . S
C215 N218 1.329 . S
C215 H236 0.930 . S
C216 N214 1.334 . S
C216 C215 1.391 . S
C216 H223 0.930 . S
C217 N214 1.328 . S
C217 C219 1.392 . S
C217 H224 0.930 . S
N218 C215 1.329 . S
N218 C219 1.331 . S
C219 C217 1.392 . S
C219 N218 1.331 . S
O220 Zn213 1.975 1_545 S
O220 C221 1.252 . S
C221 O220 1.252 . S
C221 O222 1.252 . S
O222 Zn204 1.975 . S
O222 C221 1.252 . S
H223 C216 0.930 . S
H224 C217 0.930 . S
C225 C226 1.392 . S
C225 N229 1.328 . S
C225 H231 0.930 . S
C226 C225 1.392 . S
C226 N230 1.331 . S
C227 C228 1.391 . S
C227 N230 1.329 . S
C227 H237 0.930 . S
C228 C227 1.391 . S
C228 N229 1.334 . S
C228 H235 0.930 . S
N229 Zn213 2.119 . S
N229 C225 1.328 . S
N229 C228 1.334 . S
N230 C226 1.331 . S
N230 C227 1.329 . S
H231 C225 0.930 . S
C232 O212 1.257 . S
C232 O233 1.244 . S
O233 C232 1.244 . S
O234 C210 1.257 . S
O234 Zn213 2.019 . S
H235 C228 0.930 . S
H236 C215 0.930 . S
H237 C227 0.930 . S
Zn238 N242 2.020 . S
Zn238 O246 2.019 . S
Zn238 N248 2.119 . S
Zn238 O256 1.975 . S
C239 N240 1.334 . S
C239 N243 1.336 . S
N240 C239 1.334 . S
N240 C241 1.334 . S
C241 N240 1.334 . S
C241 N242 1.336 . S
N242 Zn238 2.020 . S
N242 C241 1.336 . S
N242 N243 1.354 . S
N243 C239 1.336 . S
N243 N242 1.354 . S
N243 Zn247 2.020 . S
C244 O245 1.244 . S
C244 O268 1.257 . S
O245 C244 1.244 . S
O246 Zn238 2.019 . S
O246 C266 1.257 . S
Zn247 N243 2.020 . S
Zn247 O254 1.975 . S
Zn247 N263 2.119 . S
Zn247 O268 2.019 . S
N248 Zn238 2.119 . S
N248 C250 1.334 . S
N248 C251 1.328 . S
C249 C250 1.391 . S
C249 N252 1.329 . S
C249 H270 0.930 . S
C250 N248 1.334 . S
C250 C249 1.391 . S
C250 H257 0.930 . S
C251 N248 1.328 . S
C251 C253 1.392 . S
C251 H258 0.930 . S
N252 C249 1.329 . S
N252 C253 1.331 . S
C253 C251 1.392 . S
C253 N252 1.331 . S
O254 Zn247 1.975 . S
O254 C255 1.252 . S
C255 O254 1.252 . S
C255 O256 1.252 . S
O256 Zn238 1.975 . S
O256 C255 1.252 . S
H257 C250 0.930 . S
H258 C251 0.930 . S
C259 C260 1.392 . S
C259 N263 1.328 . S
C259 H265 0.930 . S
C260 C259 1.392 . S
C260 N264 1.331 . S
C261 C262 1.391 . S
C261 N264 1.329 . S
C261 H271 0.930 . S
C262 C261 1.391 . S
C262 N263 1.334 . S
C262 H269 0.930 . S
N263 Zn247 2.119 . S
N263 C259 1.328 . S
N263 C262 1.334 . S
N264 C260 1.331 . S
N264 C261 1.329 . S
H265 C259 0.930 . S
C266 O246 1.257 . S
C266 O267 1.244 . S
O267 C266 1.244 . S
O268 C244 1.257 . S
O268 Zn247 2.019 . S
H269 C262 0.930 . S
H270 C249 0.930 . S
H271 C261 0.930 . S
H272 C280 0.929 . S
H273 C282 0.930 . S
H274 C284 0.930 . S
H275 C287 0.929 . S
H276 C290 0.930 . S
H277 C292 0.960 . S
H278 C292 0.960 . S
H279 C292 0.960 . S
C280 H272 0.929 . S
C280 C281 1.377 . S
C280 C282 1.384 . S
C281 C280 1.377 . S
C281 C287 1.390 . S
C282 H273 0.930 . S
C282 C280 1.384 . S
C282 C283 1.372 . S
C283 C282 1.372 . S
C283 C284 1.400 . S
C283 C288 1.490 . S
C284 H274 0.930 . S
C284 C283 1.400 . S
C284 C287 1.386 . S
H285 C301 0.930 . S
H286 C302 0.931 . S
C287 H275 0.929 . S
C287 C281 1.390 . S
C287 C284 1.386 . S
C288 C283 1.490 . S
C288 C290 1.395 . S
C288 C291 1.403 . S
H289 C295 0.930 . S
C290 H276 0.930 . S
C290 C288 1.395 . S
C290 C293 1.403 . S
C291 C288 1.403 . S
C291 C292 1.524 . S
C291 C295 1.400 . S
C292 H277 0.960 . S
C292 H278 0.960 . S
C292 H279 0.960 . S
C292 C291 1.524 . S
C293 C290 1.403 . S
C293 C294 1.392 . S
C293 C297 1.495 . S
C294 C293 1.392 . S
C294 C295 1.385 . S
C294 C296 1.478 . S
C295 H289 0.930 . S
C295 C291 1.400 . S
C295 C294 1.385 . S
C296 C294 1.478 . S
C296 C298 1.381 . S
C296 C302 1.383 . S
C297 C293 1.495 . S
C297 H303 0.959 . S
C297 H304 0.961 . S
C297 H305 0.960 . S
C298 C296 1.381 . S
C298 C299 1.394 . S
C298 H306 0.930 . S
C299 C298 1.394 . S
C299 C300 1.383 . S
C299 H307 0.929 . S
C300 C299 1.383 . S
C300 C301 1.377 . S
C301 H285 0.930 . S
C301 C300 1.377 . S
C301 C302 1.379 . S
C302 H286 0.931 . S
C302 C296 1.383 . S
C302 C301 1.379 . S
H303 C297 0.959 . S
H304 C297 0.961 . S
H305 C297 0.960 . S
H306 C298 0.930 . S
H307 C299 0.929 . S
H308 C316 0.929 . S
H309 C318 0.930 . S
H310 C320 0.930 1_565 S
H311 C323 0.929 . S
H312 C326 0.930 . S
H313 C328 0.960 . S
H314 C328 0.960 . S
H315 C328 0.960 . S
C316 H308 0.929 . S
C316 C317 1.377 . S
C316 C318 1.384 . S
C317 C316 1.377 . S
C317 C323 1.390 . S
C318 H309 0.930 . S
C318 C316 1.384 . S
C318 C319 1.372 . S
C319 C318 1.372 . S
C319 C320 1.400 . S
C319 C324 1.490 1_545 S
C320 H310 0.930 1_545 S
C320 C319 1.400 . S
C320 C323 1.386 . S
H321 C337 0.930 . S
H322 C338 0.931 . S
C323 H311 0.929 . S
C323 C317 1.390 . S
C323 C320 1.386 . S
C324 C319 1.490 1_565 S
C324 C326 1.395 . S
C324 C327 1.403 . S
H325 C331 0.930 . S
C326 H312 0.930 . S
C326 C324 1.395 . S
C326 C329 1.403 . S
C327 C324 1.403 . S
C327 C328 1.524 . S
C327 C331 1.400 . S
C328 H313 0.960 . S
C328 H314 0.960 . S
C328 H315 0.960 . S
C328 C327 1.524 . S
C329 C326 1.403 . S
C329 C330 1.392 . S
C329 C333 1.495 . S
C330 C329 1.392 . S
C330 C331 1.385 . S
C330 C332 1.478 . S
C331 H325 0.930 . S
C331 C327 1.400 . S
C331 C330 1.385 . S
C332 C330 1.478 . S
C332 C334 1.381 . S
C332 C338 1.383 . S
C333 C329 1.495 . S
C333 H339 0.959 . S
C333 H340 0.961 . S
C333 H341 0.960 . S
C334 C332 1.381 . S
C334 C335 1.394 . S
C334 H342 0.930 . S
C335 C334 1.394 . S
C335 C336 1.383 . S
C335 H343 0.929 . S
C336 C335 1.383 . S
C336 C337 1.377 . S
C337 H321 0.930 . S
C337 C336 1.377 . S
C337 C338 1.379 . S
C338 H322 0.931 . S
C338 C332 1.383 . S
C338 C337 1.379 . S
H339 C333 0.959 . S
H340 C333 0.961 . S
H341 C333 0.960 . S
H342 C334 0.930 . S
H343 C335 0.929 . S
H344 C352 0.929 . S
H345 C354 0.930 . S
H346 C356 0.930 . S
H347 C359 0.929 . S
H348 C362 0.930 . S
H349 C364 0.960 . S
H350 C364 0.960 . S
H351 C364 0.960 . S
C352 H344 0.929 . S
C352 C353 1.377 . S
C352 C354 1.384 . S
C353 C352 1.377 . S
C353 C359 1.390 . S
C354 H345 0.930 . S
C354 C352 1.384 . S
C354 C355 1.372 . S
C355 C354 1.372 . S
C355 C356 1.400 . S
C355 C360 1.490 . S
C356 H346 0.930 . S
C356 C355 1.400 . S
C356 C359 1.386 . S
H357 C373 0.930 . S
H358 C374 0.931 . S
C359 H347 0.929 . S
C359 C353 1.390 . S
C359 C356 1.386 . S
C360 C355 1.490 . S
C360 C362 1.395 . S
C360 C363 1.403 . S
H361 C367 0.930 . S
C362 H348 0.930 . S
C362 C360 1.395 . S
C362 C365 1.403 . S
C363 C360 1.403 . S
C363 C364 1.524 . S
C363 C367 1.400 . S
C364 H349 0.960 . S
C364 H350 0.960 . S
C364 H351 0.960 . S
C364 C363 1.524 . S
C365 C362 1.403 . S
C365 C366 1.392 . S
C365 C369 1.495 . S
C366 C365 1.392 . S
C366 C367 1.385 . S
C366 C368 1.478 . S
C367 H361 0.930 . S
C367 C363 1.400 . S
C367 C366 1.385 . S
C368 C366 1.478 . S
C368 C370 1.381 . S
C368 C374 1.383 . S
C369 C365 1.495 . S
C369 H375 0.959 . S
C369 H376 0.961 . S
C369 H377 0.960 . S
C370 C368 1.381 . S
C370 C371 1.394 . S
C370 H378 0.930 . S
C371 C370 1.394 . S
C371 C372 1.383 . S
C371 H379 0.929 . S
C372 C371 1.383 . S
C372 C373 1.377 . S
C373 H357 0.930 . S
C373 C372 1.377 . S
C373 C374 1.379 . S
C374 H358 0.931 . S
C374 C368 1.383 . S
C374 C373 1.379 . S
H375 C369 0.959 . S
H376 C369 0.961 . S
H377 C369 0.960 . S
H378 C370 0.930 . S
H379 C371 0.929 . S
H380 C388 0.929 . S
H381 C390 0.930 . S
H382 C392 0.930 . S
H383 C395 0.929 . S
H384 C398 0.930 . S
H385 C400 0.960 . S
H386 C400 0.960 . S
H387 C400 0.960 . S
C388 H380 0.929 . S
C388 C389 1.377 . S
C388 C390 1.384 . S
C389 C388 1.377 . S
C389 C395 1.390 . S
C390 H381 0.930 . S
C390 C388 1.384 . S
C390 C391 1.372 . S
C391 C390 1.372 . S
C391 C392 1.400 . S
C391 C396 1.490 . S
C392 H382 0.930 . S
C392 C391 1.400 . S
C392 C395 1.386 . S
H393 C409 0.930 . S
H394 C410 0.928 1_565 S
C395 H383 0.929 . S
C395 C389 1.390 . S
C395 C392 1.386 . S
C396 C391 1.490 . S
C396 C398 1.395 . S
C396 C399 1.403 . S
H397 C403 0.930 . S
C398 H384 0.930 . S
C398 C396 1.395 . S
C398 C401 1.403 . S
C399 C396 1.403 . S
C399 C400 1.524 . S
C399 C403 1.400 . S
C400 H385 0.960 . S
C400 H386 0.960 . S
C400 H387 0.960 . S
C400 C399 1.524 . S
C401 C398 1.403 . S
C401 C402 1.392 . S
C401 C405 1.495 . S
C402 C401 1.392 . S
C402 C403 1.385 . S
C402 C404 1.478 . S
C403 H397 0.930 . S
C403 C399 1.400 . S
C403 C402 1.385 . S
C404 C402 1.478 . S
C404 C406 1.381 . S
C404 C410 1.398 . S
C405 C401 1.495 . S
C405 H411 0.959 . S
C405 H412 0.961 . S
C405 H413 0.960 . S
C406 C404 1.381 . S
C406 C407 1.394 . S
C406 H414 0.930 . S
C407 C406 1.394 . S
C407 C408 1.383 1_545 S
C407 H415 0.929 . S
C408 C407 1.383 1_565 S
C408 C409 1.377 . S
C409 H393 0.930 . S
C409 C408 1.377 . S
C409 C410 1.367 1_565 S
C410 H394 0.928 1_545 S
C410 C404 1.398 . S
C410 C409 1.367 1_545 S
H411 C405 0.959 . S
H412 C405 0.961 . S
H413 C405 0.960 . S
H414 C406 0.930 . S
H415 C407 0.929 . S
H416 C424 0.929 . S
H417 C426 0.930 1_655 S
H418 C428 0.930 . S
H419 C431 0.929 . S
H420 C434 0.930 . S
H421 C436 0.965 . S
H422 C436 0.961 . S
H423 C436 0.946 1_455 S
C424 H416 0.929 . S
C424 C425 1.377 . S
C424 C426 1.384 . S
C425 C424 1.377 . S
C425 C431 1.390 . S
C426 H417 0.930 1_455 S
C426 C424 1.384 . S
C426 C427 1.372 . S
C427 C426 1.372 . S
C427 C428 1.400 . S
C427 C432 1.490 1_455 S
C428 H418 0.930 . S
C428 C427 1.400 . S
C428 C431 1.386 . S
H429 C445 0.930 . S
H430 C446 0.931 . S
C431 H419 0.929 . S
C431 C425 1.390 . S
C431 C428 1.386 . S
C432 C427 1.490 1_655 S
C432 C434 1.395 . S
C432 C435 1.403 . S
H433 C439 0.930 . S
C434 H420 0.930 . S
C434 C432 1.395 . S
C434 C437 1.403 . S
C435 C432 1.403 . S
C435 C436 1.533 . S
C435 C439 1.400 . S
C436 H421 0.965 . S
C436 H422 0.961 . S
C436 H423 0.946 1_655 S
C436 C435 1.533 . S
C437 C434 1.403 . S
C437 C438 1.392 . S
C437 C441 1.495 . S
C438 C437 1.392 . S
C438 C439 1.385 . S
C438 C440 1.478 . S
C439 H433 0.930 . S
C439 C435 1.400 . S
C439 C438 1.385 . S
C440 C438 1.478 . S
C440 C442 1.381 . S
C440 C446 1.383 . S
C441 C437 1.495 . S
C441 H447 0.959 . S
C441 H448 0.961 . S
C441 H449 0.960 . S
C442 C440 1.381 . S
C442 C443 1.394 . S
C442 H450 0.930 . S
C443 C442 1.394 . S
C443 C444 1.383 . S
C443 H451 0.929 . S
C444 C443 1.383 . S
C444 C445 1.377 . S
C445 H429 0.930 . S
C445 C444 1.377 . S
C445 C446 1.379 . S
C446 H430 0.931 . S
C446 C440 1.383 . S
C446 C445 1.379 . S
H447 C441 0.959 . S
H448 C441 0.961 . S
H449 C441 0.960 . S
H450 C442 0.930 . S
H451 C443 0.929 . S
H452 C460 0.929 . S
H453 C462 0.930 . S
H454 C464 0.930 . S
H455 C467 0.929 . S
H456 C470 0.930 . S
H457 C472 0.960 . S
H458 C472 0.960 . S
H459 C472 0.960 . S
C460 H452 0.929 . S
C460 C461 1.377 . S
C460 C462 1.384 . S
C461 C460 1.377 . S
C461 C467 1.390 . S
C462 H453 0.930 . S
C462 C460 1.384 . S
C462 C463 1.372 . S
C463 C462 1.372 . S
C463 C464 1.400 . S
C463 C468 1.490 . S
C464 H454 0.930 . S
C464 C463 1.400 . S
C464 C467 1.386 . S
H465 C481 0.930 . S
H466 C482 0.931 . S
C467 H455 0.929 . S
C467 C461 1.390 . S
C467 C464 1.386 . S
C468 C463 1.490 . S
C468 C470 1.395 . S
C468 C471 1.403 . S
H469 C475 0.930 . S
C470 H456 0.930 . S
C470 C468 1.395 . S
C470 C473 1.403 . S
C471 C468 1.403 . S
C471 C472 1.524 . S
C471 C475 1.400 . S
C472 H457 0.960 . S
C472 H458 0.960 . S
C472 H459 0.960 . S
C472 C471 1.524 . S
C473 C470 1.403 . S
C473 C474 1.392 . S
C473 C477 1.495 . S
C474 C473 1.392 . S
C474 C475 1.385 . S
C474 C476 1.478 . S
C475 H469 0.930 . S
C475 C471 1.400 . S
C475 C474 1.385 . S
C476 C474 1.478 . S
C476 C478 1.381 . S
C476 C482 1.383 . S
C477 C473 1.495 . S
C477 H483 0.959 . S
C477 H484 0.961 . S
C477 H485 0.960 . S
C478 C476 1.381 . S
C478 C479 1.394 . S
C478 H486 0.930 . S
C479 C478 1.394 . S
C479 C480 1.383 . S
C479 H487 0.929 . S
C480 C479 1.383 . S
C480 C481 1.377 . S
C481 H465 0.930 . S
C481 C480 1.377 . S
C481 C482 1.379 . S
C482 H466 0.931 . S
C482 C476 1.383 . S
C482 C481 1.379 . S
H483 C477 0.959 . S
H484 C477 0.961 . S
H485 C477 0.960 . S
H486 C478 0.930 . S
H487 C479 0.929 . S
H488 C496 0.929 . S
H489 C498 0.930 . S
H490 C500 0.930 . S
H491 C503 0.929 . S
H492 C506 0.930 . S
H493 C508 0.960 . S
H494 C508 0.960 . S
H495 C508 0.960 . S
C496 H488 0.929 . S
C496 C497 1.377 . S
C496 C498 1.384 . S
C497 C496 1.377 . S
C497 C503 1.390 . S
C498 H489 0.930 . S
C498 C496 1.384 . S
C498 C499 1.372 . S
C499 C498 1.372 . S
C499 C500 1.400 . S
C499 C504 1.490 . S
C500 H490 0.930 . S
C500 C499 1.400 . S
C500 C503 1.386 . S
H501 C517 0.930 . S
H502 C518 0.931 . S
C503 H491 0.929 . S
C503 C497 1.390 . S
C503 C500 1.386 . S
C504 C499 1.490 . S
C504 C506 1.395 . S
C504 C507 1.403 . S
H505 C511 0.930 . S
C506 H492 0.930 . S
C506 C504 1.395 . S
C506 C509 1.403 . S
C507 C504 1.403 . S
C507 C508 1.524 . S
C507 C511 1.400 . S
C508 H493 0.960 . S
C508 H494 0.960 . S
C508 H495 0.960 . S
C508 C507 1.524 . S
C509 C506 1.403 . S
C509 C510 1.392 . S
C509 C513 1.495 . S
C510 C509 1.392 . S
C510 C511 1.385 . S
C510 C512 1.478 . S
C511 H505 0.930 . S
C511 C507 1.400 . S
C511 C510 1.385 . S
C512 C510 1.478 . S
C512 C514 1.381 . S
C512 C518 1.383 . S
C513 C509 1.495 . S
C513 H519 0.959 . S
C513 H520 0.961 . S
C513 H521 0.960 . S
C514 C512 1.381 . S
C514 C515 1.394 1_455 S
C514 H522 0.930 . S
C515 C514 1.394 1_655 S
C515 C516 1.383 . S
C515 H523 0.929 . S
C516 C515 1.383 . S
C516 C517 1.377 . S
C517 H501 0.930 . S
C517 C516 1.377 . S
C517 C518 1.379 1_655 S
C518 H502 0.931 . S
C518 C512 1.383 . S
C518 C517 1.379 1_455 S
H519 C513 0.959 . S
H520 C513 0.961 . S
H521 C513 0.960 . S
H522 C514 0.930 . S
H523 C515 0.929 . S
H524 C532 0.929 . S
H525 C534 0.930 . S
H526 C536 0.930 . S
H527 C539 0.929 . S
H528 C542 0.930 . S
H529 C544 0.960 . S
H530 C544 0.960 . S
H531 C544 0.960 . S
C532 H524 0.929 . S
C532 C533 1.377 . S
C532 C534 1.384 . S
C533 C532 1.377 . S
C533 C539 1.390 . S
C534 H525 0.930 . S
C534 C532 1.384 . S
C534 C535 1.372 . S
C535 C534 1.372 . S
C535 C536 1.400 . S
C535 C540 1.490 . S
C536 H526 0.930 . S
C536 C535 1.400 . S
C536 C539 1.386 . S
H537 C553 0.930 . S
H538 C554 0.931 . S
C539 H527 0.929 . S
C539 C533 1.390 . S
C539 C536 1.386 . S
C540 C535 1.490 . S
C540 C542 1.395 . S
C540 C543 1.403 . S
H541 C547 0.930 . S
C542 H528 0.930 . S
C542 C540 1.395 . S
C542 C545 1.403 . S
C543 C540 1.403 . S
C543 C544 1.524 . S
C543 C547 1.400 . S
C544 H529 0.960 . S
C544 H530 0.960 . S
C544 H531 0.960 . S
C544 C543 1.524 . S
C545 C542 1.403 . S
C545 C546 1.392 . S
C545 C549 1.495 . S
C546 C545 1.392 . S
C546 C547 1.385 . S
C546 C548 1.478 . S
C547 H541 0.930 . S
C547 C543 1.400 . S
C547 C546 1.385 . S
C548 C546 1.478 . S
C548 C550 1.381 . S
C548 C554 1.383 . S
C549 C545 1.495 . S
C549 H555 0.959 . S
C549 H556 0.961 . S
C549 H557 0.960 . S
C550 C548 1.381 . S
C550 C551 1.394 . S
C550 H558 0.930 . S
C551 C550 1.394 . S
C551 C552 1.383 . S
C551 H559 0.929 . S
C552 C551 1.383 . S
C552 C553 1.377 . S
C553 H537 0.930 . S
C553 C552 1.377 . S
C553 C554 1.379 . S
C554 H538 0.931 . S
C554 C548 1.383 . S
C554 C553 1.379 . S
H555 C549 0.959 . S
H556 C549 0.961 . S
H557 C549 0.960 . S
H558 C550 0.930 . S
H559 C551 0.929 . S
H560 C568 0.929 . S
H561 C570 0.930 . S
H562 C572 0.930 . S
H563 C575 0.929 . S
H564 C578 0.930 . S
H565 C580 0.960 . S
H566 C580 0.960 . S
H567 C580 0.960 . S
C568 H560 0.929 . S
C568 C569 1.377 . S
C568 C570 1.384 . S
C569 C568 1.377 . S
C569 C575 1.390 . S
C570 H561 0.930 . S
C570 C568 1.384 . S
C570 C571 1.372 . S
C571 C570 1.372 . S
C571 C572 1.400 . S
C571 C576 1.490 . S
C572 H562 0.930 . S
C572 C571 1.400 . S
C572 C575 1.386 . S
H573 C589 0.930 . S
H574 C590 0.931 . S
C575 H563 0.929 . S
C575 C569 1.390 . S
C575 C572 1.386 . S
C576 C571 1.490 . S
C576 C578 1.395 . S
C576 C579 1.403 . S
H577 C583 0.930 . S
C578 H564 0.930 . S
C578 C576 1.395 . S
C578 C581 1.403 . S
C579 C576 1.403 . S
C579 C580 1.524 . S
C579 C583 1.400 . S
C580 H565 0.960 . S
C580 H566 0.960 . S
C580 H567 0.960 . S
C580 C579 1.524 . S
C581 C578 1.403 . S
C581 C582 1.392 . S
C581 C585 1.495 . S
C582 C581 1.392 . S
C582 C583 1.385 . S
C582 C584 1.478 . S
C583 H577 0.930 . S
C583 C579 1.400 . S
C583 C582 1.385 . S
C584 C582 1.478 . S
C584 C586 1.381 . S
C584 C590 1.383 . S
C585 C581 1.495 . S
C585 H591 0.959 . S
C585 H592 0.961 . S
C585 H593 0.960 . S
C586 C584 1.381 . S
C586 C587 1.394 . S
C586 H594 0.930 . S
C587 C586 1.394 . S
C587 C588 1.383 . S
C587 H595 0.929 . S
C588 C587 1.383 . S
C588 C589 1.377 . S
C589 H573 0.930 . S
C589 C588 1.377 . S
C589 C590 1.379 . S
C590 H574 0.931 . S
C590 C584 1.383 . S
C590 C589 1.379 . S
H591 C585 0.959 . S
H592 C585 0.961 . S
H593 C585 0.960 . S
H594 C586 0.930 . S
H595 C587 0.929 . S
H596 C604 0.929 . S
H597 C606 0.930 . S
H598 C608 0.930 . S
H599 C611 0.929 . S
H600 C614 0.930 . S
H601 C616 0.960 . S
H602 C616 0.960 . S
H603 C616 0.960 . S
C604 H596 0.929 . S
C604 C605 1.377 . S
C604 C606 1.384 . S
C605 C604 1.377 . S
C605 C611 1.390 . S
C606 H597 0.930 . S
C606 C604 1.384 . S
C606 C607 1.372 . S
C607 C606 1.372 . S
C607 C608 1.400 . S
C607 C612 1.490 . S
C608 H598 0.930 . S
C608 C607 1.400 . S
C608 C611 1.386 . S
H609 C625 0.930 . S
H610 C626 0.931 . S
C611 H599 0.929 . S
C611 C605 1.390 . S
C611 C608 1.386 . S
C612 C607 1.490 . S
C612 C614 1.395 . S
C612 C615 1.403 . S
H613 C619 0.930 . S
C614 H600 0.930 . S
C614 C612 1.395 . S
C614 C617 1.403 . S
C615 C612 1.403 . S
C615 C616 1.524 . S
C615 C619 1.400 . S
C616 H601 0.960 . S
C616 H602 0.960 . S
C616 H603 0.960 . S
C616 C615 1.524 . S
C617 C614 1.403 . S
C617 C618 1.392 . S
C617 C621 1.495 . S
C618 C617 1.392 . S
C618 C619 1.385 . S
C618 C620 1.478 . S
C619 H613 0.930 . S
C619 C615 1.400 . S
C619 C618 1.385 . S
C620 C618 1.478 . S
C620 C622 1.381 . S
C620 C626 1.383 . S
C621 C617 1.495 . S
C621 H627 0.959 1_655 S
C621 H628 0.961 . S
C621 H629 0.967 . S
C622 C620 1.381 . S
C622 C623 1.394 . S
C622 H630 0.930 . S
C623 C622 1.394 . S
C623 C624 1.383 . S
C623 H631 0.929 . S
C624 C623 1.383 . S
C624 C625 1.377 . S
C625 H609 0.930 . S
C625 C624 1.377 . S
C625 C626 1.379 . S
C626 H610 0.931 . S
C626 C620 1.383 . S
C626 C625 1.379 . S
H627 C621 0.959 1_455 S
H628 C621 0.961 . S
H629 C621 0.967 . S
H630 C622 0.930 . S
H631 C623 0.929 . S
H632 C640 0.929 . S
H633 C642 0.930 . S
H634 C644 0.930 . S
H635 C647 0.929 . S
H636 C650 0.930 1_556 S
H637 C652 0.960 . S
H638 C652 0.960 . S
H639 C652 0.960 . S
C640 H632 0.929 . S
C640 C641 1.377 . S
C640 C642 1.384 . S
C641 C640 1.377 . S
C641 C647 1.390 . S
C642 H633 0.930 . S
C642 C640 1.384 . S
C642 C643 1.372 . S
C643 C642 1.372 . S
C643 C644 1.400 . S
C643 C648 1.490 1_556 S
C644 H634 0.930 . S
C644 C643 1.400 . S
C644 C647 1.386 . S
H645 C661 0.930 1_455 S
H646 C662 0.931 . S
C647 H635 0.929 . S
C647 C641 1.390 . S
C647 C644 1.386 . S
C648 C643 1.490 1_554 S
C648 C650 1.395 . S
C648 C651 1.403 . S
H649 C655 0.930 . S
C650 H636 0.930 1_554 S
C650 C648 1.395 . S
C650 C653 1.403 . S
C651 C648 1.403 . S
C651 C652 1.524 . S
C651 C655 1.400 . S
C652 H637 0.960 . S
C652 H638 0.960 . S
C652 H639 0.960 . S
C652 C651 1.524 . S
C653 C650 1.403 . S
C653 C654 1.392 . S
C653 C657 1.495 . S
C654 C653 1.392 . S
C654 C655 1.385 . S
C654 C656 1.478 . S
C655 H649 0.930 . S
C655 C651 1.400 . S
C655 C654 1.385 . S
C656 C654 1.478 . S
C656 C658 1.381 . S
C656 C662 1.383 . S
C657 C653 1.495 . S
C657 H663 0.959 . S
C657 H664 0.961 . S
C657 H665 0.960 . S
C658 C656 1.381 . S
C658 C659 1.394 . S
C658 H666 0.930 . S
C659 C658 1.394 . S
C659 C660 1.383 . S
C659 H667 0.929 . S
C660 C659 1.383 . S
C660 C661 1.377 . S
C661 H645 0.930 1_655 S
C661 C660 1.377 . S
C661 C662 1.379 . S
C662 H646 0.931 . S
C662 C656 1.383 . S
C662 C661 1.379 . S
H663 C657 0.959 . S
H664 C657 0.961 . S
H665 C657 0.960 . S
H666 C658 0.930 . S
H667 C659 0.929 . S
H668 C676 0.929 . S
H669 C678 0.930 . S
H670 C680 0.930 . S
H671 C683 0.929 . S
H672 C686 0.930 . S
H673 C688 0.960 . S
H674 C688 0.960 . S
H675 C688 0.960 . S
C676 H668 0.929 . S
C676 C677 1.377 . S
C676 C678 1.384 . S
C677 C676 1.377 . S
C677 C683 1.390 . S
C678 H669 0.930 . S
C678 C676 1.384 . S
C678 C679 1.372 . S
C679 C678 1.372 . S
C679 C680 1.400 . S
C679 C684 1.490 . S
C680 H670 0.930 . S
C680 C679 1.400 . S
C680 C683 1.386 . S
H681 C697 0.930 . S
H682 C698 0.931 . S
C683 H671 0.929 . S
C683 C677 1.390 . S
C683 C680 1.386 . S
C684 C679 1.490 . S
C684 C686 1.395 . S
C684 C687 1.403 . S
H685 C691 0.930 . S
C686 H672 0.930 . S
C686 C684 1.395 . S
C686 C689 1.403 . S
C687 C684 1.403 . S
C687 C688 1.524 . S
C687 C691 1.400 . S
C688 H673 0.960 . S
C688 H674 0.960 . S
C688 H675 0.960 . S
C688 C687 1.524 . S
C689 C686 1.403 . S
C689 C690 1.392 . S
C689 C693 1.495 . S
C690 C689 1.392 . S
C690 C691 1.385 . S
C690 C692 1.478 . S
C691 H685 0.930 . S
C691 C687 1.400 . S
C691 C690 1.385 . S
C692 C690 1.478 . S
C692 C694 1.381 . S
C692 C698 1.383 . S
C693 C689 1.495 . S
C693 H699 0.959 . S
C693 H700 0.961 . S
C693 H701 0.960 . S
C694 C692 1.381 . S
C694 C695 1.394 . S
C694 H702 0.930 . S
C695 C694 1.394 . S
C695 C696 1.383 . S
C695 H703 0.929 . S
C696 C695 1.383 . S
C696 C697 1.377 . S
C697 H681 0.930 . S
C697 C696 1.377 . S
C697 C698 1.379 . S
C698 H682 0.931 . S
C698 C692 1.383 . S
C698 C697 1.379 . S
H699 C693 0.959 . S
H700 C693 0.961 . S
H701 C693 0.960 . S
H702 C694 0.930 . S
H703 C695 0.929 . S
H704 C712 0.929 . S
H705 C714 0.930 . S
H706 C716 0.930 . S
H707 C719 0.929 . S
H708 C722 0.930 . S
H709 C724 0.960 . S
H710 C724 0.960 . S
H711 C724 0.960 . S
C712 H704 0.929 . S
C712 C713 1.377 . S
C712 C714 1.384 . S
C713 C712 1.377 . S
C713 C719 1.390 . S
C714 H705 0.930 . S
C714 C712 1.384 . S
C714 C715 1.372 . S
C715 C714 1.372 . S
C715 C716 1.400 . S
C715 C720 1.490 . S
C716 H706 0.930 . S
C716 C715 1.400 . S
C716 C719 1.386 . S
H717 C733 0.930 . S
H718 C734 0.931 . S
C719 H707 0.929 . S
C719 C713 1.390 . S
C719 C716 1.386 . S
C720 C715 1.490 . S
C720 C722 1.395 . S
C720 C723 1.403 . S
H721 C727 0.930 . S
C722 H708 0.930 . S
C722 C720 1.395 . S
C722 C725 1.403 . S
C723 C720 1.403 . S
C723 C724 1.524 . S
C723 C727 1.400 . S
C724 H709 0.960 . S
C724 H710 0.960 . S
C724 H711 0.960 . S
C724 C723 1.524 . S
C725 C722 1.403 . S
C725 C726 1.392 . S
C725 C729 1.495 . S
C726 C725 1.392 . S
C726 C727 1.385 . S
C726 C728 1.478 . S
C727 H721 0.930 . S
C727 C723 1.400 . S
C727 C726 1.385 . S
C728 C726 1.478 . S
C728 C730 1.381 . S
C728 C734 1.383 . S
C729 C725 1.495 . S
C729 H735 0.959 . S
C729 H736 0.961 . S
C729 H737 0.960 . S
C730 C728 1.381 . S
C730 C731 1.394 . S
C730 H738 0.930 . S
C731 C730 1.394 . S
C731 C732 1.383 . S
C731 H739 0.929 . S
C732 C731 1.383 . S
C732 C733 1.377 . S
C733 H717 0.930 . S
C733 C732 1.377 . S
C733 C734 1.379 . S
C734 H718 0.931 . S
C734 C728 1.383 . S
C734 C733 1.379 . S
H735 C729 0.959 . S
H736 C729 0.961 . S
H737 C729 0.960 . S
H738 C730 0.930 . S
H739 C731 0.929 . S
H740 C748 0.929 . S
H741 C750 0.930 . S
H742 C752 0.930 . S
H743 C755 0.929 . S
H744 C758 0.930 . S
H745 C760 0.960 . S
H746 C760 0.960 . S
H747 C760 0.960 . S
C748 H740 0.929 . S
C748 C749 1.377 . S
C748 C750 1.384 . S
C749 C748 1.377 . S
C749 C755 1.390 . S
C750 H741 0.930 . S
C750 C748 1.384 . S
C750 C751 1.372 . S
C751 C750 1.372 . S
C751 C752 1.400 . S
C751 C756 1.490 . S
C752 H742 0.930 . S
C752 C751 1.400 . S
C752 C755 1.386 . S
H753 C769 0.930 . S
H754 C770 0.931 . S
C755 H743 0.929 . S
C755 C749 1.390 . S
C755 C752 1.386 . S
C756 C751 1.490 . S
C756 C758 1.395 . S
C756 C759 1.403 . S
H757 C763 0.930 . S
C758 H744 0.930 . S
C758 C756 1.395 . S
C758 C761 1.403 . S
C759 C756 1.403 . S
C759 C760 1.524 . S
C759 C763 1.400 . S
C760 H745 0.960 . S
C760 H746 0.960 . S
C760 H747 0.960 . S
C760 C759 1.524 . S
C761 C758 1.403 . S
C761 C762 1.392 . S
C761 C765 1.495 . S
C762 C761 1.392 . S
C762 C763 1.385 . S
C762 C764 1.478 . S
C763 H757 0.930 . S
C763 C759 1.400 . S
C763 C762 1.385 . S
C764 C762 1.478 . S
C764 C766 1.381 . S
C764 C770 1.383 . S
C765 C761 1.495 . S
C765 H771 0.959 . S
C765 H772 0.961 . S
C765 H773 0.960 . S
C766 C764 1.381 . S
C766 C767 1.394 . S
C766 H774 0.930 . S
C767 C766 1.394 . S
C767 C768 1.383 . S
C767 H775 0.929 . S
C768 C767 1.383 . S
C768 C769 1.377 . S
C769 H753 0.930 . S
C769 C768 1.377 . S
C769 C770 1.379 . S
C770 H754 0.931 . S
C770 C764 1.383 . S
C770 C769 1.379 . S
H771 C765 0.959 . S
H772 C765 0.961 . S
H773 C765 0.960 . S
H774 C766 0.930 . S
H775 C767 0.929 . S
H776 C784 0.929 . S
H777 C786 0.930 . S
H778 C788 0.930 . S
H779 C791 0.929 . S
H780 C794 0.930 . S
H781 C796 0.960 . S
H782 C796 0.960 . S
H783 C796 0.960 . S
C784 H776 0.929 . S
C784 C785 1.377 . S
C784 C786 1.384 . S
C785 C784 1.377 . S
C785 C791 1.390 . S
C786 H777 0.930 . S
C786 C784 1.384 . S
C786 C787 1.372 . S
C787 C786 1.372 . S
C787 C788 1.400 . S
C787 C792 1.490 . S
C788 H778 0.930 . S
C788 C787 1.400 . S
C788 C791 1.386 . S
H789 C805 0.930 . S
H790 C806 0.931 . S
C791 H779 0.929 . S
C791 C785 1.390 . S
C791 C788 1.386 . S
C792 C787 1.490 . S
C792 C794 1.395 . S
C792 C795 1.403 . S
H793 C799 0.930 . S
C794 H780 0.930 . S
C794 C792 1.395 . S
C794 C797 1.403 . S
C795 C792 1.403 . S
C795 C796 1.524 . S
C795 C799 1.400 . S
C796 H781 0.960 . S
C796 H782 0.960 . S
C796 H783 0.960 . S
C796 C795 1.524 . S
C797 C794 1.403 . S
C797 C798 1.392 . S
C797 C801 1.495 . S
C798 C797 1.392 . S
C798 C799 1.385 . S
C798 C800 1.478 . S
C799 H793 0.930 . S
C799 C795 1.400 . S
C799 C798 1.385 . S
C800 C798 1.478 . S
C800 C802 1.381 . S
C800 C806 1.383 . S
C801 C797 1.495 . S
C801 H807 0.959 . S
C801 H808 0.961 . S
C801 H809 0.960 . S
C802 C800 1.381 . S
C802 C803 1.394 . S
C802 H810 0.930 . S
C803 C802 1.394 . S
C803 C804 1.383 . S
C803 H811 0.929 . S
C804 C803 1.383 . S
C804 C805 1.377 . S
C805 H789 0.930 . S
C805 C804 1.377 . S
C805 C806 1.379 . S
C806 H790 0.931 . S
C806 C800 1.383 . S
C806 C805 1.379 . S
H807 C801 0.959 . S
H808 C801 0.961 . S
H809 C801 0.960 . S
H810 C802 0.930 . S
H811 C803 0.929 . S
H812 C820 0.929 . S
H813 C822 0.930 . S
H814 C824 0.930 . S
H815 C827 0.929 . S
H816 C830 0.930 . S
H817 C832 0.961 1_556 S
H818 C832 0.960 . S
H819 C832 0.960 . S
C820 H812 0.929 . S
C820 C821 1.377 . S
C820 C822 1.384 . S
C821 C820 1.377 . S
C821 C827 1.390 . S
C822 H813 0.930 . S
C822 C820 1.384 . S
C822 C823 1.372 . S
C823 C822 1.372 . S
C823 C824 1.400 . S
C823 C828 1.490 1_554 S
C824 H814 0.930 . S
C824 C823 1.400 . S
C824 C827 1.386 . S
H825 C841 0.930 . S
H826 C842 0.931 . S
C827 H815 0.929 . S
C827 C821 1.390 . S
C827 C824 1.386 . S
C828 C823 1.490 1_556 S
C828 C830 1.395 . S
C828 C831 1.403 . S
H829 C835 0.930 . S
C830 H816 0.930 . S
C830 C828 1.395 . S
C830 C833 1.403 . S
C831 C828 1.403 . S
C831 C832 1.524 1_556 S
C831 C835 1.400 . S
C832 H817 0.961 1_554 S
C832 H818 0.960 . S
C832 H819 0.960 . S
C832 C831 1.524 1_554 S
C833 C830 1.403 . S
C833 C834 1.392 . S
C833 C837 1.495 . S
C834 C833 1.392 . S
C834 C835 1.385 . S
C834 C836 1.478 . S
C835 H829 0.930 . S
C835 C831 1.400 . S
C835 C834 1.385 . S
C836 C834 1.478 . S
C836 C838 1.381 . S
C836 C842 1.383 . S
C837 C833 1.495 . S
C837 H843 0.959 . S
C837 H844 0.961 . S
C837 H845 0.960 . S
C838 C836 1.381 . S
C838 C839 1.394 . S
C838 H846 0.930 . S
C839 C838 1.394 . S
C839 C840 1.383 . S
C839 H847 0.929 1_565 S
C840 C839 1.383 . S
C840 C841 1.377 . S
C841 H825 0.930 . S
C841 C840 1.377 . S
C841 C842 1.379 . S
C842 H826 0.931 . S
C842 C836 1.383 . S
C842 C841 1.379 . S
H843 C837 0.959 . S
H844 C837 0.961 . S
H845 C837 0.960 . S
H846 C838 0.930 . S
H847 C839 0.929 1_545 S
H848 C856 0.929 . S
H849 C858 0.930 . S
H850 C860 0.930 . S
H851 C863 0.929 . S
H852 C866 0.930 . S
H853 C868 0.960 . S
H854 C868 0.960 . S
H855 C868 0.960 . S
C856 H848 0.929 . S
C856 C857 1.377 . S
C856 C858 1.384 . S
C857 C856 1.377 . S
C857 C863 1.390 . S
C858 H849 0.930 . S
C858 C856 1.384 . S
C858 C859 1.372 . S
C859 C858 1.372 . S
C859 C860 1.400 . S
C859 C864 1.490 . S
C860 H850 0.930 . S
C860 C859 1.400 . S
C860 C863 1.386 . S
H861 C877 0.930 . S
H862 C878 0.931 . S
C863 H851 0.929 . S
C863 C857 1.390 . S
C863 C860 1.386 . S
C864 C859 1.490 . S
C864 C866 1.395 . S
C864 C867 1.403 . S
H865 C871 0.930 . S
C866 H852 0.930 . S
C866 C864 1.395 . S
C866 C869 1.403 . S
C867 C864 1.403 . S
C867 C868 1.524 . S
C867 C871 1.400 . S
C868 H853 0.960 . S
C868 H854 0.960 . S
C868 H855 0.960 . S
C868 C867 1.524 . S
C869 C866 1.403 . S
C869 C870 1.392 . S
C869 C873 1.495 . S
C870 C869 1.392 . S
C870 C871 1.385 . S
C870 C872 1.478 . S
C871 H865 0.930 . S
C871 C867 1.400 . S
C871 C870 1.385 . S
C872 C870 1.478 . S
C872 C874 1.381 . S
C872 C878 1.383 . S
C873 C869 1.495 . S
C873 H879 0.959 . S
C873 H880 0.961 . S
C873 H881 0.960 . S
C874 C872 1.381 . S
C874 C875 1.394 . S
C874 H882 0.930 . S
C875 C874 1.394 . S
C875 C876 1.383 . S
C875 H883 0.929 . S
C876 C875 1.383 . S
C876 C877 1.377 . S
C877 H861 0.930 . S
C877 C876 1.377 . S
C877 C878 1.379 . S
C878 H862 0.931 . S
C878 C872 1.383 . S
C878 C877 1.379 . S
H879 C873 0.959 . S
H880 C873 0.961 . S
H881 C873 0.960 . S
H882 C874 0.930 . S
H883 C875 0.929 . S
H884 C892 0.929 . S
H885 C894 0.930 . S
H886 C896 0.930 . S
H887 C899 0.929 . S
H888 C902 0.930 . S
H889 C904 0.960 . S
H890 C904 0.960 . S
H891 C904 0.960 . S
C892 H884 0.929 . S
C892 C893 1.377 . S
C892 C894 1.384 . S
C893 C892 1.377 . S
C893 C899 1.390 . S
C894 H885 0.930 . S
C894 C892 1.384 . S
C894 C895 1.372 . S
C895 C894 1.372 . S
C895 C896 1.400 . S
C895 C900 1.490 . S
C896 H886 0.930 . S
C896 C895 1.400 . S
C896 C899 1.386 . S
H897 C913 0.930 . S
H898 C914 0.931 . S
C899 H887 0.929 . S
C899 C893 1.390 . S
C899 C896 1.386 . S
C900 C895 1.490 . S
C900 C902 1.395 . S
C900 C903 1.426 . S
H901 C907 0.930 . S
C902 H888 0.930 . S
C902 C900 1.395 . S
C902 C905 1.403 . S
C903 C900 1.426 . S
C903 C904 1.516 1_545 S
C903 C907 1.385 1_545 S
C904 H889 0.960 . S
C904 H890 0.960 . S
C904 H891 0.960 . S
C904 C903 1.516 1_565 S
C905 C902 1.403 . S
C905 C906 1.392 1_545 S
C905 C909 1.495 . S
C906 C905 1.392 1_565 S
C906 C907 1.385 . S
C906 C908 1.478 . S
C907 H901 0.930 . S
C907 C903 1.385 1_565 S
C907 C906 1.385 . S
C908 C906 1.478 . S
C908 C910 1.381 . S
C908 C914 1.383 . S
C909 C905 1.495 . S
C909 H915 0.959 . S
C909 H916 0.961 . S
C909 H917 0.960 . S
C910 C908 1.381 . S
C910 C911 1.394 . S
C910 H918 0.930 . S
C911 C910 1.394 . S
C911 C912 1.383 . S
C911 H919 0.929 . S
C912 C911 1.383 . S
C912 C913 1.377 . S
C913 H897 0.930 . S
C913 C912 1.377 . S
C913 C914 1.379 . S
C914 H898 0.931 . S
C914 C908 1.383 . S
C914 C913 1.379 . S
H915 C909 0.959 . S
H916 C909 0.961 . S
H917 C909 0.960 . S
H918 C910 0.930 . S
H919 C911 0.929 . S
H920 C928 0.929 . S
H921 C930 0.930 . S
H922 C932 0.930 . S
H923 C935 0.929 . S
H924 C938 0.930 . S
H925 C940 0.960 . S
H926 C940 0.960 . S
H927 C940 0.960 . S
C928 H920 0.929 . S
C928 C929 1.377 . S
C928 C930 1.384 . S
C929 C928 1.377 . S
C929 C935 1.390 . S
C930 H921 0.930 . S
C930 C928 1.384 . S
C930 C931 1.372 . S
C931 C930 1.372 . S
C931 C932 1.400 . S
C931 C936 1.490 . S
C932 H922 0.930 . S
C932 C931 1.400 . S
C932 C935 1.386 . S
H933 C949 0.930 . S
H934 C950 0.931 . S
C935 H923 0.929 . S
C935 C929 1.390 . S
C935 C932 1.386 . S
C936 C931 1.490 . S
C936 C938 1.395 . S
C936 C939 1.403 . S
H937 C943 0.930 . S
C938 H924 0.930 . S
C938 C936 1.395 . S
C938 C941 1.403 . S
C939 C936 1.403 . S
C939 C940 1.524 . S
C939 C943 1.400 . S
C940 H925 0.960 . S
C940 H926 0.960 . S
C940 H927 0.960 . S
C940 C939 1.524 . S
C941 C938 1.403 . S
C941 C942 1.392 . S
C941 C945 1.495 . S
C942 C941 1.392 . S
C942 C943 1.385 . S
C942 C944 1.478 . S
C943 H937 0.930 . S
C943 C939 1.400 . S
C943 C942 1.385 . S
C944 C942 1.478 . S
C944 C946 1.381 . S
C944 C950 1.383 . S
C945 C941 1.495 . S
C945 H951 0.959 . S
C945 H952 0.961 . S
C945 H953 0.960 . S
C946 C944 1.381 . S
C946 C947 1.394 . S
C946 H954 0.930 . S
C947 C946 1.394 . S
C947 C948 1.383 . S
C947 H955 0.929 . S
C948 C947 1.383 . S
C948 C949 1.377 . S
C949 H933 0.930 . S
C949 C948 1.377 . S
C949 C950 1.379 . S
C950 H934 0.931 . S
C950 C944 1.383 . S
C950 C949 1.379 . S
H951 C945 0.959 . S
H952 C945 0.961 . S
H953 C945 0.960 . S
H954 C946 0.930 . S
H955 C947 0.929 . S
H956 C964 0.929 . S
H957 C966 0.930 . S
H958 C968 0.930 . S
H959 C971 0.929 . S
H960 C974 0.930 . S
H961 C976 0.960 1_565 S
H962 C976 0.960 . S
H963 C976 0.960 . S
C964 H956 0.929 . S
C964 C965 1.377 . S
C964 C966 1.384 . S
C965 C964 1.377 . S
C965 C971 1.390 . S
C966 H957 0.930 . S
C966 C964 1.384 . S
C966 C967 1.372 . S
C967 C966 1.372 . S
C967 C968 1.400 . S
C967 C972 1.490 . S
C968 H958 0.930 . S
C968 C967 1.400 . S
C968 C971 1.386 . S
H969 C985 0.930 . S
H970 C986 0.931 . S
C971 H959 0.929 . S
C971 C965 1.390 . S
C971 C968 1.386 . S
C972 C967 1.490 . S
C972 C974 1.395 . S
C972 C975 1.403 . S
H973 C979 0.930 1_565 S
C974 H960 0.930 . S
C974 C972 1.395 . S
C974 C977 1.403 . S
C975 C972 1.403 . S
C975 C976 1.524 . S
C975 C979 1.400 . S
C976 H961 0.960 1_545 S
C976 H962 0.960 . S
C976 H963 0.960 . S
C976 C975 1.524 . S
C977 C974 1.403 . S
C977 C978 1.392 . S
C977 C981 1.495 . S
C978 C977 1.392 . S
C978 C979 1.385 . S
C978 C980 1.478 1_545 S
C979 H973 0.930 1_545 S
C979 C975 1.400 . S
C979 C978 1.385 . S
C980 C978 1.478 1_565 S
C980 C982 1.381 . S
C980 C986 1.383 . S
C981 C977 1.495 . S
C981 H987 0.959 . S
C981 H988 0.961 . S
C981 H989 0.960 . S
C982 C980 1.381 . S
C982 C983 1.394 . S
C982 H990 0.930 1_565 S
C983 C982 1.394 . S
C983 C984 1.383 . S
C983 H991 0.929 . S
C984 C983 1.383 . S
C984 C985 1.377 . S
C985 H969 0.930 . S
C985 C984 1.377 . S
C985 C986 1.379 . S
C986 H970 0.931 . S
C986 C980 1.383 . S
C986 C985 1.379 . S
H987 C981 0.959 . S
H988 C981 0.961 . S
H989 C981 0.960 . S
H990 C982 0.930 1_545 S
H991 C983 0.929 . S
H992 C1000 0.929 . S
H993 C1002 0.930 . S
H994 C1004 0.930 . S
H995 C1007 0.929 . S
H996 C1010 0.930 . S
H997 C1012 0.960 . S
H998 C1012 0.960 . S
H999 C1012 0.960 . S
C1000 H992 0.929 . S
C1000 C1001 1.377 . S
C1000 C1002 1.384 . S
C1001 C1000 1.377 . S
C1001 C1007 1.390 . S
C1002 H993 0.930 . S
C1002 C1000 1.384 . S
C1002 C1003 1.372 . S
C1003 C1002 1.372 . S
C1003 C1004 1.400 . S
C1003 C1008 1.490 . S
C1004 H994 0.930 . S
C1004 C1003 1.400 . S
C1004 C1007 1.386 . S
H1005 C1021 0.930 . S
H1006 C1022 0.931 . S
C1007 H995 0.929 . S
C1007 C1001 1.390 . S
C1007 C1004 1.386 . S
C1008 C1003 1.490 . S
C1008 C1010 1.395 1_655 S
C1008 C1011 1.403 . S
H1009 C1015 0.930 . S
C1010 H996 0.930 . S
C1010 C1008 1.395 1_455 S
C1010 C1013 1.403 . S
C1011 C1008 1.403 . S
C1011 C1012 1.524 . S
C1011 C1015 1.400 1_655 S
C1012 H997 0.960 . S
C1012 H998 0.960 . S
C1012 H999 0.960 . S
C1012 C1011 1.524 . S
C1013 C1010 1.403 . S
C1013 C1014 1.392 . S
C1013 C1017 1.495 . S
C1014 C1013 1.392 . S
C1014 C1015 1.385 . S
C1014 C1016 1.478 . S
C1015 H1009 0.930 . S
C1015 C1011 1.400 1_455 S
C1015 C1014 1.385 . S
C1016 C1014 1.478 . S
C1016 C1018 1.381 . S
C1016 C1022 1.383 . S
C1017 C1013 1.495 . S
C1017 H1023 0.959 . S
C1017 H1024 0.961 . S
C1017 H1025 0.960 . S
C1018 C1016 1.381 . S
C1018 C1019 1.394 . S
C1018 H1026 0.930 . S
C1019 C1018 1.394 . S
C1019 C1020 1.383 . S
C1019 H1027 0.929 . S
C1020 C1019 1.383 . S
C1020 C1021 1.377 . S
C1021 H1005 0.930 . S
C1021 C1020 1.377 . S
C1021 C1022 1.379 . S
C1022 H1006 0.931 . S
C1022 C1016 1.383 . S
C1022 C1021 1.379 . S
H1023 C1017 0.959 . S
H1024 C1017 0.961 . S
H1025 C1017 0.960 . S
H1026 C1018 0.930 . S
H1027 C1019 0.929 . S
H1028 C1036 0.929 . S
H1029 C1038 0.930 . S
H1030 C1040 0.930 . S
H1031 C1043 0.929 . S
H1032 C1046 0.930 . S
H1033 C1048 0.960 . S
H1034 C1048 0.960 . S
H1035 C1048 0.960 . S
C1036 H1028 0.929 . S
C1036 C1037 1.377 . S
C1036 C1038 1.384 . S
C1037 C1036 1.377 . S
C1037 C1043 1.390 . S
C1038 H1029 0.930 . S
C1038 C1036 1.384 . S
C1038 C1039 1.372 . S
C1039 C1038 1.372 . S
C1039 C1040 1.400 . S
C1039 C1044 1.490 . S
C1040 H1030 0.930 . S
C1040 C1039 1.400 . S
C1040 C1043 1.386 . S
H1041 C1057 0.930 . S
H1042 C1058 0.931 . S
C1043 H1031 0.929 . S
C1043 C1037 1.390 . S
C1043 C1040 1.386 . S
C1044 C1039 1.490 . S
C1044 C1046 1.395 . S
C1044 C1047 1.403 . S
H1045 C1051 0.930 . S
C1046 H1032 0.930 . S
C1046 C1044 1.395 . S
C1046 C1049 1.403 . S
C1047 C1044 1.403 . S
C1047 C1048 1.524 . S
C1047 C1051 1.400 . S
C1048 H1033 0.960 . S
C1048 H1034 0.960 . S
C1048 H1035 0.960 . S
C1048 C1047 1.524 . S
C1049 C1046 1.403 . S
C1049 C1050 1.392 . S
C1049 C1053 1.495 . S
C1050 C1049 1.392 . S
C1050 C1051 1.385 . S
C1050 C1052 1.478 . S
C1051 H1045 0.930 . S
C1051 C1047 1.400 . S
C1051 C1050 1.385 . S
C1052 C1050 1.478 . S
C1052 C1054 1.381 . S
C1052 C1058 1.383 . S
C1053 C1049 1.495 . S
C1053 H1059 0.959 . S
C1053 H1060 0.961 . S
C1053 H1061 0.960 . S
C1054 C1052 1.381 . S
C1054 C1055 1.394 . S
C1054 H1062 0.930 . S
C1055 C1054 1.394 . S
C1055 C1056 1.383 . S
C1055 H1063 0.929 . S
C1056 C1055 1.383 . S
C1056 C1057 1.377 . S
C1057 H1041 0.930 . S
C1057 C1056 1.377 . S
C1057 C1058 1.379 . S
C1058 H1042 0.931 . S
C1058 C1052 1.383 . S
C1058 C1057 1.379 . S
H1059 C1053 0.959 . S
H1060 C1053 0.961 . S
H1061 C1053 0.960 . S
H1062 C1054 0.930 . S
H1063 C1055 0.929 . S
H1064 C1072 0.929 . S
H1065 C1074 0.930 . S
H1066 C1076 0.930 . S
H1067 C1079 0.929 . S
H1068 C1082 0.930 . S
H1069 C1084 0.960 . S
H1070 C1084 0.960 . S
H1071 C1084 0.960 . S
C1072 H1064 0.929 . S
C1072 C1073 1.377 . S
C1072 C1074 1.384 . S
C1073 C1072 1.377 . S
C1073 C1079 1.390 . S
C1074 H1065 0.930 . S
C1074 C1072 1.384 . S
C1074 C1075 1.372 . S
C1075 C1074 1.372 . S
C1075 C1076 1.400 . S
C1075 C1080 1.490 . S
C1076 H1066 0.930 . S
C1076 C1075 1.400 . S
C1076 C1079 1.386 . S
H1077 C1093 0.930 . S
H1078 C1094 0.931 . S
C1079 H1067 0.929 . S
C1079 C1073 1.390 . S
C1079 C1076 1.386 . S
C1080 C1075 1.490 . S
C1080 C1082 1.395 . S
C1080 C1083 1.403 . S
H1081 C1087 0.930 . S
C1082 H1068 0.930 . S
C1082 C1080 1.395 . S
C1082 C1085 1.403 1_455 S
C1083 C1080 1.403 . S
C1083 C1084 1.524 . S
C1083 C1087 1.400 . S
C1084 H1069 0.960 . S
C1084 H1070 0.960 . S
C1084 H1071 0.960 . S
C1084 C1083 1.524 . S
C1085 C1082 1.403 1_655 S
C1085 C1086 1.392 1_655 S
C1085 C1089 1.495 . S
C1086 C1085 1.392 1_455 S
C1086 C1087 1.385 . S
C1086 C1088 1.478 1_455 S
C1087 H1081 0.930 . S
C1087 C1083 1.400 . S
C1087 C1086 1.385 . S
C1088 C1086 1.478 1_655 S
C1088 C1090 1.381 . S
C1088 C1094 1.383 . S
C1089 C1085 1.495 . S
C1089 H1095 0.959 . S
C1089 H1096 0.961 . S
C1089 H1097 0.960 . S
C1090 C1088 1.381 . S
C1090 C1091 1.394 . S
C1090 H1098 0.930 . S
C1091 C1090 1.394 . S
C1091 C1092 1.383 . S
C1091 H1099 0.929 . S
C1092 C1091 1.383 . S
C1092 C1093 1.377 . S
C1093 H1077 0.930 . S
C1093 C1092 1.377 . S
C1093 C1094 1.379 . S
C1094 H1078 0.931 . S
C1094 C1088 1.383 . S
C1094 C1093 1.379 . S
H1095 C1089 0.959 . S
H1096 C1089 0.961 . S
H1097 C1089 0.960 . S
H1098 C1090 0.930 . S
H1099 C1091 0.929 . S
H1100 C1108 0.929 . S
H1101 C1110 0.930 . S
H1102 C1112 0.930 . S
H1103 C1115 0.929 . S
H1104 C1118 0.930 . S
H1105 C1120 0.960 . S
H1106 C1120 0.960 . S
H1107 C1120 0.960 . S
C1108 H1100 0.929 . S
C1108 C1109 1.377 . S
C1108 C1110 1.384 . S
C1109 C1108 1.377 . S
C1109 C1115 1.390 . S
C1110 H1101 0.930 . S
C1110 C1108 1.384 . S
C1110 C1111 1.372 . S
C1111 C1110 1.372 . S
C1111 C1112 1.400 . S
C1111 C1116 1.490 . S
C1112 H1102 0.930 . S
C1112 C1111 1.400 . S
C1112 C1115 1.386 . S
H1113 C1129 0.930 . S
H1114 C1130 0.931 . S
C1115 H1103 0.929 . S
C1115 C1109 1.390 . S
C1115 C1112 1.386 . S
C1116 C1111 1.490 . S
C1116 C1118 1.395 . S
C1116 C1119 1.403 . S
H1117 C1123 0.930 . S
C1118 H1104 0.930 . S
C1118 C1116 1.395 . S
C1118 C1121 1.403 . S
C1119 C1116 1.403 . S
C1119 C1120 1.524 . S
C1119 C1123 1.400 . S
C1120 H1105 0.960 . S
C1120 H1106 0.960 . S
C1120 H1107 0.960 . S
C1120 C1119 1.524 . S
C1121 C1118 1.403 . S
C1121 C1122 1.392 . S
C1121 C1125 1.495 . S
C1122 C1121 1.392 . S
C1122 C1123 1.385 . S
C1122 C1124 1.478 . S
C1123 H1117 0.930 . S
C1123 C1119 1.400 . S
C1123 C1122 1.385 . S
C1124 C1122 1.478 . S
C1124 C1126 1.381 . S
C1124 C1130 1.383 . S
C1125 C1121 1.495 . S
C1125 H1131 0.959 . S
C1125 H1132 0.961 . S
C1125 H1133 0.960 . S
C1126 C1124 1.381 . S
C1126 C1127 1.394 . S
C1126 H1134 0.930 . S
C1127 C1126 1.394 . S
C1127 C1128 1.383 . S
C1127 H1135 0.929 . S
C1128 C1127 1.383 . S
C1128 C1129 1.377 . S
C1129 H1113 0.930 . S
C1129 C1128 1.377 . S
C1129 C1130 1.379 . S
C1130 H1114 0.931 . S
C1130 C1124 1.383 . S
C1130 C1129 1.379 . S
H1131 C1125 0.959 . S
H1132 C1125 0.961 . S
H1133 C1125 0.960 . S
H1134 C1126 0.930 . S
H1135 C1127 0.929 . S
H1136 C1144 0.929 . S
H1137 C1146 0.930 . S
H1138 C1148 0.930 . S
H1139 C1151 0.929 . S
H1140 C1154 0.930 . S
H1141 C1156 0.960 . S
H1142 C1156 0.960 . S
H1143 C1156 0.960 . S
C1144 H1136 0.929 . S
C1144 C1145 1.377 . S
C1144 C1146 1.384 . S
C1145 C1144 1.377 . S
C1145 C1151 1.390 . S
C1146 H1137 0.930 . S
C1146 C1144 1.384 . S
C1146 C1147 1.372 . S
C1147 C1146 1.372 . S
C1147 C1148 1.400 . S
C1147 C1152 1.490 . S
C1148 H1138 0.930 . S
C1148 C1147 1.400 . S
C1148 C1151 1.386 . S
H1149 C1165 0.930 . S
H1150 C1166 0.931 . S
C1151 H1139 0.929 . S
C1151 C1145 1.390 . S
C1151 C1148 1.386 . S
C1152 C1147 1.490 . S
C1152 C1154 1.395 . S
C1152 C1155 1.403 . S
H1153 C1159 0.930 . S
C1154 H1140 0.930 . S
C1154 C1152 1.395 . S
C1154 C1157 1.403 . S
C1155 C1152 1.403 . S
C1155 C1156 1.524 . S
C1155 C1159 1.400 . S
C1156 H1141 0.960 . S
C1156 H1142 0.960 . S
C1156 H1143 0.960 . S
C1156 C1155 1.524 . S
C1157 C1154 1.403 . S
C1157 C1158 1.392 . S
C1157 C1161 1.495 . S
C1158 C1157 1.392 . S
C1158 C1159 1.385 . S
C1158 C1160 1.478 . S
C1159 H1153 0.930 . S
C1159 C1155 1.400 . S
C1159 C1158 1.385 . S
C1160 C1158 1.478 . S
C1160 C1162 1.381 . S
C1160 C1166 1.383 . S
C1161 C1157 1.495 . S
C1161 H1167 0.959 . S
C1161 H1168 0.961 . S
C1161 H1169 0.960 . S
C1162 C1160 1.381 . S
C1162 C1163 1.394 . S
C1162 H1170 0.930 . S
C1163 C1162 1.394 . S
C1163 C1164 1.383 . S
C1163 H1171 0.929 . S
C1164 C1163 1.383 . S
C1164 C1165 1.377 . S
C1165 H1149 0.930 . S
C1165 C1164 1.377 . S
C1165 C1166 1.379 . S
C1166 H1150 0.931 . S
C1166 C1160 1.383 . S
C1166 C1165 1.379 . S
H1167 C1161 0.959 . S
H1168 C1161 0.961 . S
H1169 C1161 0.960 . S
H1170 C1162 0.930 . S
H1171 C1163 0.929 . S
H1172 C1180 0.929 . S
H1173 C1182 0.930 . S
H1174 C1184 0.930 . S
H1175 C1187 0.929 1_545 S
H1176 C1190 0.930 . S
H1177 C1192 0.960 . S
H1178 C1192 0.960 . S
H1179 C1192 0.960 . S
C1180 H1172 0.929 . S
C1180 C1181 1.377 . S
C1180 C1182 1.384 . S
C1181 C1180 1.377 . S
C1181 C1187 1.390 . S
C1182 H1173 0.930 . S
C1182 C1180 1.384 . S
C1182 C1183 1.372 . S
C1183 C1182 1.372 . S
C1183 C1184 1.400 . S
C1183 C1188 1.490 . S
C1184 H1174 0.930 . S
C1184 C1183 1.400 . S
C1184 C1187 1.386 . S
H1185 C1201 0.930 . S
H1186 C1202 0.931 . S
C1187 H1175 0.929 1_565 S
C1187 C1181 1.390 . S
C1187 C1184 1.386 . S
C1188 C1183 1.490 . S
C1188 C1190 1.395 . S
C1188 C1191 1.403 . S
H1189 C1195 0.930 . S
C1190 H1176 0.930 . S
C1190 C1188 1.395 . S
C1190 C1193 1.403 . S
C1191 C1188 1.403 . S
C1191 C1192 1.524 . S
C1191 C1195 1.400 . S
C1192 H1177 0.960 . S
C1192 H1178 0.960 . S
C1192 H1179 0.960 . S
C1192 C1191 1.524 . S
C1193 C1190 1.403 . S
C1193 C1194 1.392 . S
C1193 C1197 1.495 . S
C1194 C1193 1.392 . S
C1194 C1195 1.385 . S
C1194 C1196 1.478 . S
C1195 H1189 0.930 . S
C1195 C1191 1.400 . S
C1195 C1194 1.385 . S
C1196 C1194 1.478 . S
C1196 C1198 1.381 . S
C1196 C1202 1.383 . S
C1197 C1193 1.495 . S
C1197 H1203 0.959 . S
C1197 H1204 0.961 . S
C1197 H1205 0.960 . S
C1198 C1196 1.381 . S
C1198 C1199 1.394 . S
C1198 H1206 0.930 . S
C1199 C1198 1.394 . S
C1199 C1200 1.383 . S
C1199 H1207 0.929 . S
C1200 C1199 1.383 . S
C1200 C1201 1.377 . S
C1201 H1185 0.930 . S
C1201 C1200 1.377 . S
C1201 C1202 1.379 . S
C1202 H1186 0.931 . S
C1202 C1196 1.383 . S
C1202 C1201 1.379 . S
H1203 C1197 0.959 . S
H1204 C1197 0.961 . S
H1205 C1197 0.960 . S
H1206 C1198 0.930 . S
H1207 C1199 0.929 . S
H1208 C1216 0.929 . S
H1209 C1218 0.930 . S
H1210 C1220 0.930 . S
H1211 C1223 0.929 . S
H1212 C1226 0.930 . S
H1213 C1228 0.960 . S
H1214 C1228 0.955 1_554 S
H1215 C1228 0.960 1_554 S
C1216 H1208 0.929 . S
C1216 C1217 1.377 . S
C1216 C1218 1.384 . S
C1217 C1216 1.377 . S
C1217 C1223 1.390 . S
C1218 H1209 0.930 . S
C1218 C1216 1.384 . S
C1218 C1219 1.372 . S
C1219 C1218 1.372 . S
C1219 C1220 1.400 . S
C1219 C1224 1.490 . S
C1220 H1210 0.930 . S
C1220 C1219 1.400 . S
C1220 C1223 1.386 . S
H1221 C1237 0.930 . S
H1222 C1238 0.931 . S
C1223 H1211 0.929 . S
C1223 C1217 1.390 . S
C1223 C1220 1.386 . S
C1224 C1219 1.490 . S
C1224 C1226 1.395 . S
C1224 C1227 1.342 1_554 S
H1225 C1231 0.930 . S
C1226 H1212 0.930 . S
C1226 C1224 1.395 . S
C1226 C1229 1.403 . S
C1227 C1224 1.342 1_556 S
C1227 C1228 1.536 . S
C1227 C1231 1.453 . S
C1228 H1213 0.960 . S
C1228 H1214 0.955 1_556 S
C1228 H1215 0.960 1_556 S
C1228 C1227 1.536 . S
C1229 C1226 1.403 . S
C1229 C1230 1.392 1_554 S
C1229 C1233 1.495 . S
C1230 C1229 1.392 1_556 S
C1230 C1231 1.385 . S
C1230 C1232 1.478 . S
C1231 H1225 0.930 . S
C1231 C1227 1.453 . S
C1231 C1230 1.385 . S
C1232 C1230 1.478 . S
C1232 C1234 1.381 . S
C1232 C1238 1.383 . S
C1233 C1229 1.495 . S
C1233 H1239 0.959 . S
C1233 H1240 0.988 . S
C1233 H1241 0.944 1_554 S
C1234 C1232 1.381 . S
C1234 C1235 1.394 . S
C1234 H1242 0.930 . S
C1235 C1234 1.394 . S
C1235 C1236 1.383 . S
C1235 H1243 0.929 . S
C1236 C1235 1.383 . S
C1236 C1237 1.377 . S
C1237 H1221 0.930 . S
C1237 C1236 1.377 . S
C1237 C1238 1.379 . S
C1238 H1222 0.931 . S
C1238 C1232 1.383 . S
C1238 C1237 1.379 . S
H1239 C1233 0.959 . S
H1240 C1233 0.988 . S
H1241 C1233 0.944 1_556 S
H1242 C1234 0.930 . S
H1243 C1235 0.929 . S
H1244 C1252 0.929 . S
H1245 C1254 0.930 . S
H1246 C1256 0.930 . S
H1247 C1259 0.929 . S
H1248 C1262 0.930 . S
H1249 C1264 0.960 1_455 S
H1250 C1264 0.960 1_455 S
H1251 C1264 0.964 . S
C1252 H1244 0.929 . S
C1252 C1253 1.377 . S
C1252 C1254 1.384 . S
C1253 C1252 1.377 . S
C1253 C1259 1.390 . S
C1254 H1245 0.930 . S
C1254 C1252 1.384 . S
C1254 C1255 1.372 . S
C1255 C1254 1.372 . S
C1255 C1256 1.400 . S
C1255 C1260 1.490 . S
C1256 H1246 0.930 . S
C1256 C1255 1.400 . S
C1256 C1259 1.386 . S
H1257 C1273 0.930 . S
H1258 C1274 0.931 . S
C1259 H1247 0.929 . S
C1259 C1253 1.390 . S
C1259 C1256 1.386 . S
C1260 C1255 1.490 . S
C1260 C1262 1.395 . S
C1260 C1263 1.403 . S
H1261 C1267 0.930 . S
C1262 H1248 0.930 . S
C1262 C1260 1.395 . S
C1262 C1265 1.403 . S
C1263 C1260 1.403 . S
C1263 C1264 1.524 . S
C1263 C1267 1.400 . S
C1264 H1249 0.960 1_655 S
C1264 H1250 0.960 1_655 S
C1264 H1251 0.964 . S
C1264 C1263 1.524 . S
C1265 C1262 1.403 . S
C1265 C1266 1.392 . S
C1265 C1269 1.495 . S
C1266 C1265 1.392 . S
C1266 C1267 1.385 . S
C1266 C1268 1.478 . S
C1267 H1261 0.930 . S
C1267 C1263 1.400 . S
C1267 C1266 1.385 . S
C1268 C1266 1.478 . S
C1268 C1270 1.381 . S
C1268 C1274 1.383 . S
C1269 C1265 1.495 . S
C1269 H1275 0.959 . S
C1269 H1276 0.961 . S
C1269 H1277 0.960 . S
C1270 C1268 1.381 . S
C1270 C1271 1.394 . S
C1270 H1278 0.930 . S
C1271 C1270 1.394 . S
C1271 C1272 1.383 . S
C1271 H1279 0.929 . S
C1272 C1271 1.383 . S
C1272 C1273 1.377 . S
C1273 H1257 0.930 . S
C1273 C1272 1.377 . S
C1273 C1274 1.379 . S
C1274 H1258 0.931 . S
C1274 C1268 1.383 . S
C1274 C1273 1.379 . S
H1275 C1269 0.959 . S
H1276 C1269 0.961 . S
H1277 C1269 0.960 . S
H1278 C1270 0.930 . S
H1279 C1271 0.929 . S
C281 C3 1.272 . S
C300 C158 1.373 . S
C317 C192 1.404 . S
C336 C35 1.286 . S
C353 C226 1.402 . S
C372 C69 1.231 . S
C389 C103 1.272 . S
C408 C253 1.372 . S
C425 C15 1.394 . S
C444 C137 1.266 . S
C461 C56 1.400 . S
C480 C171 1.319 . S
C497 C205 1.262 . S
C516 C90 1.393 . S
C533 C124 1.403 . S
C552 C241 1.302 . S
C569 C40 1.381 . S
C588 C6 1.404 . S
C605 C74 1.379 . S
C624 C62 1.395 . S
C641 C96 1.403 . S
C660 C108 1.397 . S
C677 C130 1.399 . S
C696 C28 1.355 . S
C713 C266 1.377 . S
C732 C164 1.393 . S
C749 C198 1.403 . S
C768 C142 1.394 . S
C785 C232 1.399 . S
C804 C176 1.359 . S
C821 C244 1.398 . S
C840 C210 1.355 . S
C857 C153 1.870 . S
C876 C22 1.645 . S
C893 C187 1.870 . S
C912 C49 1.681 . S
C929 C83 1.692 . S
C948 C221 1.868 . S
C965 C117 1.677 . S
C984 C255 1.864 . S
C1001 C151 1.692 . S
C1020 C17 1.869 . S
C1037 C185 1.685 . S
C1056 C51 1.866 . S
C1073 C219 1.692 . S
C1092 C85 1.868 . S
C1109 C260 1.689 . S
C1128 C119 1.868 . S
C1145 C173 2.027 . S
C1164 C1 1.991 . S
C1181 C207 2.016 . S
C1200 C37 2.043 . S
C1217 C239 2.019 . S
C1236 C71 2.032 . S
C1253 C105 2.024 . S
C1272 C139 2.006 . S
