# Generated by pormake.
# Topology mok, (4)-cn, num edge types: 1
# Building blocks:
#     Node 0, Type 0, BuildingBlock: UXUYUI_clean_sbu_0, # of connection points: 4
#     Node 1, Type 0, BuildingBlock: UXUYUI_clean_sbu_0, # of connection points: 4
#     Node 2, Type 0, BuildingBlock: UXUYUI_clean_sbu_0, # of connection points: 4
#     Node 3, Type 0, BuildingBlock: UXUYUI_clean_sbu_0, # of connection points: 4
#     Node 4, Type 0, BuildingBlock: UXUYUI_clean_sbu_0, # of connection points: 4
#     Node 5, Type 0, BuildingBlock: UXUYUI_clean_sbu_0, # of connection points: 4
#     Node 6, Type 0, BuildingBlock: UXUYUI_clean_sbu_0, # of connection points: 4
#     Node 7, Type 0, BuildingBlock: UXUYUI_clean_sbu_0, # of connection points: 4
#     Edge 8, Type (0, 0), BuildingBlock: KIFKEQ_clean_linker_1, # of connection points: 2
#     Edge 9, Type (0, 0), BuildingBlock: KIFKEQ_clean_linker_1, # of connection points: 2
#     Edge 10, Type (0, 0), BuildingBlock: KIFKEQ_clean_linker_1, # of connection points: 2
#     Edge 11, Type (0, 0), BuildingBlock: KIFKEQ_clean_linker_1, # of connection points: 2
#     Edge 12, Type (0, 0), BuildingBlock: KIFKEQ_clean_linker_1, # of connection points: 2
#     Edge 13, Type (0, 0), BuildingBlock: KIFKEQ_clean_linker_1, # of connection points: 2
#     Edge 14, Type (0, 0), BuildingBlock: KIFKEQ_clean_linker_1, # of connection points: 2
#     Edge 15, Type (0, 0), BuildingBlock: KIFKEQ_clean_linker_1, # of connection points: 2
#     Edge 16, Type (0, 0), BuildingBlock: KIFKEQ_clean_linker_1, # of connection points: 2
#     Edge 17, Type (0, 0), BuildingBlock: KIFKEQ_clean_linker_1, # of connection points: 2
#     Edge 18, Type (0, 0), BuildingBlock: KIFKEQ_clean_linker_1, # of connection points: 2
#     Edge 19, Type (0, 0), BuildingBlock: KIFKEQ_clean_linker_1, # of connection points: 2
#     Edge 20, Type (0, 0), BuildingBlock: KIFKEQ_clean_linker_1, # of connection points: 2
#     Edge 21, Type (0, 0), BuildingBlock: KIFKEQ_clean_linker_1, # of connection points: 2
#     Edge 22, Type (0, 0), BuildingBlock: KIFKEQ_clean_linker_1, # of connection points: 2
#     Edge 23, Type (0, 0), BuildingBlock: KIFKEQ_clean_linker_1, # of connection points: 2
# Relax obj value: 0.076
# Max RMSD: 0.067
# Mean RMSD: 0.067
data_MOF--net-mok--node1-UXUYUI_clean_sbu_0--edge1-KIFKEQ_clean_linker_1
_symmetry_space_group_name_H-M    P1
_symmetry_Int_Tables_number       1
_symmetry_cell_setting            triclinic
loop_
_symmetry_equiv_pos_as_xyz
'x, y, z'
_cell_length_a     68.036271
_cell_length_b     31.121083
_cell_length_c     38.001356
_cell_angle_alpha  90.027688
_cell_angle_beta   90.067704
_cell_angle_gamma 90.008296
loop_
_atom_site_label
_atom_site_type_symbol
_atom_site_fract_x
_atom_site_fract_y
_atom_site_fract_z
_atom_type_partial_charge
Li0 Li 0.58578 0.34118 0.03861 0.0
Li1 Li 0.60982 0.29966 0.00635 0.0
Li2 Li 0.58572 0.33968 0.97365 0.0
Li3 Li 0.57649 0.2716 0.00607 0.0
C4 C 0.6087 0.40548 0.00942 0.0
N5 N 0.61368 0.49297 0.01795 0.0
C6 C 0.62692 0.42194 0.01982 0.0
C7 C 0.59304 0.4335 1.00327 0.0
C8 C 0.62913 0.46627 0.02404 0.0
C9 C 0.59584 0.47764 0.00772 0.0
C10 C 0.60523 0.25811 0.07031 0.0
C11 C 0.61488 0.19112 0.09708 0.0
N12 N 0.62841 0.21249 0.11685 0.0
C13 C 0.61914 0.27946 0.091 0.0
C14 C 0.603 0.21362 0.07341 0.0
C15 C 0.63076 0.25579 0.11432 0.0
C16 C 0.56312 0.37948 0.09377 0.0
N17 N 0.58139 0.37501 0.07971 0.0
C18 C 0.5952 0.41965 0.12454 0.0
C19 C 0.59731 0.3941 0.09466 0.0
C20 C 0.57656 0.42506 0.13964 0.0
C21 C 0.56037 0.40436 0.1241 0.0
H22 H 0.55073 0.36368 0.08148 0.0
H23 H 0.61172 0.38934 0.08346 0.0
C24 C 0.64893 0.31462 0.98905 0.0
N25 N 0.63728 0.28511 1.00513 0.0
C26 C 0.66922 0.30856 0.98727 0.0
C27 C 0.66525 0.24124 0.01803 0.0
C28 C 0.64497 0.24835 0.01874 0.0
C29 C 0.67775 0.27181 1.00244 0.0
H30 H 0.64241 0.34294 0.97742 0.0
H31 H 0.63546 0.22446 0.0302 0.0
C32 C 0.5454 0.34324 0.99413 0.0
N33 N 0.50955 0.3709 0.96847 0.0
C34 C 0.53362 0.31545 0.97433 0.0
C35 C 0.53878 0.38481 1.00146 0.0
C36 C 0.51558 0.33011 0.96145 0.0
C37 C 0.52067 0.39827 0.98806 0.0
C38 C 0.60813 0.25604 0.94853 0.0
C39 C 0.61937 0.27462 0.92181 0.0
C40 C 0.61192 0.21383 0.95909 0.0
C41 C 0.63433 0.2506 0.90613 0.0
C42 C 0.62701 0.19088 0.94274 0.0
N43 N 0.63782 0.20959 0.91685 0.0
C44 C 0.59768 0.39659 0.92085 0.0
C45 C 0.56551 0.36996 0.91142 0.0
C46 C 0.59678 0.42042 0.88981 0.0
N47 N 0.58211 0.37238 0.93131 0.0
C48 C 0.564 0.39315 0.88 0.0
C49 C 0.57981 0.41878 0.86873 0.0
H50 H 0.61097 0.39705 0.93644 0.0
H51 H 0.55359 0.34936 0.9194 0.0
C52 C 0.55047 0.20999 0.03569 0.0
N53 N 0.56038 0.22162 0.00614 0.0
C54 C 0.53944 0.17204 0.0362 0.0
C55 C 0.54887 0.1592 0.9758 0.0
C56 C 0.55959 0.19745 0.97638 0.0
C57 C 0.53874 0.14583 0.00607 0.0
H58 H 0.55141 0.22985 0.059 0.0
H59 H 0.56746 0.20771 0.95315 0.0
O60 O 0.60624 0.36206 0.00577 0.0
O61 O 0.59366 0.28061 0.04742 0.0
O62 O 0.56302 0.32934 0.00718 0.0
O63 O 0.59379 0.2794 0.96487 0.0
H64 H 0.63917 0.40065 0.02496 0.0
H65 H 0.57892 0.42129 0.99497 0.0
H66 H 0.64313 0.47944 0.03223 0.0
H67 H 0.58384 0.4997 1.00302 0.0
H68 H 0.61338 0.15667 0.09969 0.0
H69 H 0.62109 0.31382 0.08877 0.0
H70 H 0.59231 0.19664 0.05753 0.0
H71 H 0.64166 0.27183 0.13036 0.0
H72 H 0.6081 0.43446 0.13608 0.0
H73 H 0.54576 0.40781 0.13502 0.0
H74 H 0.67808 0.33244 0.97398 0.0
H75 H 0.67103 0.21243 0.03016 0.0
H76 H 0.53845 0.28309 0.96862 0.0
H77 H 0.54746 0.40639 0.01751 0.0
H78 H 0.50639 0.30908 0.94583 0.0
H79 H 0.51542 0.43043 0.99337 0.0
H80 H 0.61666 0.30736 0.91351 0.0
H81 H 0.60352 0.19922 0.98008 0.0
H82 H 0.64321 0.26459 0.88551 0.0
H83 H 0.6302 0.15828 0.95079 0.0
H84 H 0.60929 0.43995 0.88248 0.0
H85 H 0.55078 0.39015 0.86429 0.0
H86 H 0.53195 0.16278 0.06017 0.0
H87 H 0.54848 0.14033 0.95185 0.0
Li88 Li 0.39348 0.70677 1.00461 0.0
Li89 Li 0.41994 0.6689 0.03593 0.0
Li90 Li 0.42756 0.73549 1.00116 0.0
Li91 Li 0.42028 0.66642 0.97259 0.0
C92 C 0.40403 0.76339 0.06204 0.0
N93 N 0.39129 0.83396 0.09986 0.0
C94 C 0.40029 0.75981 0.09808 0.0
C95 C 0.40153 0.80303 0.04537 0.0
C96 C 0.39378 0.7958 0.11671 0.0
C97 C 0.39503 0.83829 0.0649 0.0
C98 C 0.39313 0.60927 0.02249 0.0
C99 C 0.3984 0.53747 0.0444 0.0
N100 N 0.3807 0.53905 0.06094 0.0
C101 C 0.37493 0.6101 0.0395 0.0
C102 C 0.40492 0.57258 0.02473 0.0
C103 C 0.36893 0.57429 0.05888 0.0
C104 C 0.35599 0.71037 0.97451 0.0
N105 N 0.3661 0.71938 1.00448 0.0
C106 C 0.33659 0.74176 0.03318 0.0
C107 C 0.35685 0.73466 0.03359 0.0
C108 C 0.32566 0.7325 1.00265 0.0
C109 C 0.33568 0.71672 0.97299 0.0
H110 H 0.36371 0.69765 0.95192 0.0
H111 H 0.36509 0.74075 0.05735 0.0
C112 C 0.44157 0.61753 0.08568 0.0
N113 N 0.42443 0.63831 0.07868 0.0
C114 C 0.44377 0.59436 0.11703 0.0
C115 C 0.41065 0.61447 0.13304 0.0
C116 C 0.40918 0.6374 0.10168 0.0
C117 C 0.42814 0.59258 0.14124 0.0
H118 H 0.4535 0.61886 0.06693 0.0
H119 H 0.39568 0.65405 0.09532 0.0
C120 C 0.40389 0.75514 0.93859 0.0
N121 N 0.39387 0.81819 0.89053 0.0
C122 C 0.4119 0.75466 0.90472 0.0
C123 C 0.39051 0.78736 0.94775 0.0
C124 C 0.40674 0.78692 0.88088 0.0
C125 C 0.38571 0.81902 0.92317 0.0
C126 C 0.45826 0.66403 0.98639 0.0
C127 C 0.47069 0.69124 0.96744 0.0
C128 C 0.46164 0.61973 0.98624 0.0
C129 C 0.48622 0.67355 0.94826 0.0
C130 C 0.47731 0.6033 0.96668 0.0
N131 N 0.48916 0.63032 0.94825 0.0
C132 C 0.45106 0.80032 0.03116 0.0
C133 C 0.44519 0.81032 0.97029 0.0
C134 C 0.4618 0.83857 0.03274 0.0
N135 N 0.44286 0.78719 1.00033 0.0
C136 C 0.45571 0.84887 0.97069 0.0
C137 C 0.46415 0.86367 1.00226 0.0
H138 H 0.44911 0.78114 0.05463 0.0
H139 H 0.43885 0.79908 0.94597 0.0
C140 C 0.41445 0.59478 0.92854 0.0
N141 N 0.42489 0.63179 0.9318 0.0
C142 C 0.41589 0.56999 0.89804 0.0
C143 C 0.43895 0.62163 0.87471 0.0
C144 C 0.4372 0.64521 0.90587 0.0
C145 C 0.42797 0.5837 0.87021 0.0
H146 H 0.40462 0.58492 0.94931 0.0
H147 H 0.44528 0.67486 0.90895 0.0
O148 O 0.41038 0.72836 0.04345 0.0
O149 O 0.39942 0.6443 1.00392 0.0
O150 O 0.40873 0.72358 0.96218 0.0
O151 O 0.44289 0.6807 1.00507 0.0
H152 H 0.40235 0.72956 0.11157 0.0
H153 H 0.40483 0.80676 0.01778 0.0
H154 H 0.39073 0.7934 0.14457 0.0
H155 H 0.39304 0.86914 0.05228 0.0
H156 H 0.40743 0.50899 0.04657 0.0
H157 H 0.36562 0.6382 0.03802 0.0
H158 H 0.41903 0.57142 0.0117 0.0
H159 H 0.35493 0.57456 0.07235 0.0
H160 H 0.32959 0.75441 0.05656 0.0
H161 H 0.32789 0.70838 0.94909 0.0
H162 H 0.45759 0.5784 0.12234 0.0
H163 H 0.39805 0.61337 0.15038 0.0
H164 H 0.42211 0.72989 0.89694 0.0
H165 H 0.38372 0.78779 0.97341 0.0
H166 H 0.41296 0.78706 0.8547 0.0
H167 H 0.37541 0.84415 0.92999 0.0
H168 H 0.46829 0.7256 0.96734 0.0
H169 H 0.45218 0.59827 1.00085 0.0
H170 H 0.49591 0.69419 0.93333 0.0
H171 H 0.48003 0.56906 0.96614 0.0
H172 H 0.46831 0.84813 0.05755 0.0
H173 H 0.45691 0.86718 0.94657 0.0
H174 H 0.40743 0.54062 0.89621 0.0
H175 H 0.44828 0.63387 0.85395 0.0
Li176 Li 0.57656 0.73748 0.50698 0.0
Li177 Li 0.58403 0.67046 0.53831 0.0
Li178 Li 0.6102 0.7111 0.50552 0.0
Li179 Li 0.58512 0.66965 0.473 0.0
C180 C 0.59113 0.76123 0.57053 0.0
N181 N 0.5831 0.82731 0.61691 0.0
C182 C 0.57986 0.7535 0.6006 0.0
C183 C 0.59854 0.8024 0.5643 0.0
C184 C 0.57591 0.78737 0.62368 0.0
C185 C 0.59425 0.83543 0.58798 0.0
C186 C 0.54534 0.65931 0.51173 0.0
C187 C 0.52596 0.5945 0.50868 0.0
N188 N 0.51123 0.61456 0.52643 0.0
C189 C 0.5299 0.67947 0.52949 0.0
C190 C 0.54327 0.61665 0.50083 0.0
C191 C 0.51282 0.65623 0.53685 0.0
C192 C 0.56119 0.81416 0.47796 0.0
N193 N 0.56066 0.78838 0.50683 0.0
C194 C 0.53833 0.83645 0.53543 0.0
C195 C 0.5493 0.79848 0.53508 0.0
C196 C 0.53879 0.86398 0.50615 0.0
C197 C 0.5503 0.85223 0.47703 0.0
H198 H 0.57013 0.80527 0.45564 0.0
H199 H 0.54876 0.77714 0.55745 0.0
C200 C 0.59691 0.61842 0.59284 0.0
N201 N 0.58026 0.63653 0.57976 0.0
C202 C 0.59634 0.59426 0.62372 0.0
C203 C 0.56149 0.60815 0.62766 0.0
C204 C 0.56272 0.63196 0.5965 0.0
C205 C 0.57849 0.58909 0.6418 0.0
H206 H 0.61073 0.62307 0.57937 0.0
H207 H 0.54978 0.64756 0.58629 0.0
C208 C 0.60647 0.75263 0.44421 0.0
N209 N 0.63282 0.79749 0.40292 0.0
C210 C 0.61294 0.73528 0.41233 0.0
C211 C 0.61319 0.79303 0.45486 0.0
C212 C 0.62631 0.75841 0.39188 0.0
C213 C 0.62657 0.81514 0.43369 0.0
C214 C 0.61053 0.60661 0.50385 0.0
C215 C 0.62978 0.59598 0.49442 0.0
C216 C 0.59699 0.57395 0.51078 0.0
C217 C 0.63506 0.55275 0.4915 0.0
C218 C 0.60284 0.53111 0.50764 0.0
N219 N 0.62159 0.52148 0.49809 0.0
C220 C 0.64564 0.74442 0.53398 0.0
C221 C 0.64855 0.71326 0.47729 0.0
C222 C 0.66582 0.75281 0.5349 0.0
N223 N 0.63747 0.72503 0.50543 0.0
C224 C 0.6687 0.72165 0.47684 0.0
C225 C 0.67759 0.7414 0.50602 0.0
H226 H 0.63654 0.75279 0.55625 0.0
H227 H 0.64179 0.6967 0.4554 0.0
C228 C 0.56359 0.63571 0.41454 0.0
N229 N 0.58128 0.63671 0.4312 0.0
C230 C 0.56143 0.61319 0.38285 0.0
C231 C 0.59564 0.59287 0.38645 0.0
C232 C 0.59717 0.61607 0.41771 0.0
C233 C 0.57765 0.59155 0.36822 0.0
H234 H 0.55125 0.65302 0.42554 0.0
H235 H 0.61121 0.61836 0.43084 0.0
O236 O 0.59504 0.72854 0.54753 0.0
O237 O 0.5621 0.6817 0.50411 0.0
O238 O 0.59358 0.73021 0.46481 0.0
O239 O 0.60514 0.64882 0.50675 0.0
H240 H 0.57408 0.7218 0.60591 0.0
H241 H 0.60749 0.80881 0.5414 0.0
H242 H 0.5671 0.78192 0.64693 0.0
H243 H 0.59979 0.86752 0.58337 0.0
H244 H 0.5242 0.56141 0.50052 0.0
H245 H 0.53115 0.7126 0.53775 0.0
H246 H 0.5548 0.60088 0.48617 0.0
H247 H 0.50083 0.67134 0.55084 0.0
H248 H 0.52941 0.84394 0.55821 0.0
H249 H 0.55116 0.87262 0.45399 0.0
H250 H 0.60979 0.57974 0.63327 0.0
H251 H 0.54747 0.60567 0.64097 0.0
H252 H 0.60778 0.7042 0.40356 0.0
H253 H 0.60818 0.80707 0.47926 0.0
H254 H 0.63154 0.74527 0.36725 0.0
H255 H 0.63199 0.84632 0.44172 0.0
H256 H 0.64049 0.62087 0.48923 0.0
H257 H 0.5822 0.58158 0.51894 0.0
H258 H 0.64987 0.54406 0.48403 0.0
H259 H 0.5925 0.50551 0.51291 0.0
H260 H 0.67215 0.76813 0.55786 0.0
H261 H 0.67734 0.71173 0.45433 0.0
H262 H 0.54734 0.6137 0.36958 0.0
H263 H 0.60851 0.5763 0.37665 0.0
Li264 Li 0.42066 0.33966 0.5356 0.0
Li265 Li 0.42659 0.27273 0.50518 0.0
Li266 Li 0.4199 0.34148 0.47093 0.0
Li267 Li 0.39383 0.30296 0.50504 0.0
C268 C 0.45903 0.35013 0.50833 0.0
N269 N 0.49278 0.3974 0.52023 0.0
C270 C 0.47421 0.33311 0.52886 0.0
C271 C 0.46108 0.39105 0.4936 0.0
C272 C 0.49113 0.35757 0.53465 0.0
C273 C 0.47824 0.41447 0.49999 0.0
C274 C 0.41318 0.25013 0.5683 0.0
C275 C 0.41057 0.17545 0.58454 0.0
N276 N 0.42235 0.18289 0.61283 0.0
C277 C 0.42522 0.25709 0.59759 0.0
C278 C 0.40571 0.20905 0.56177 0.0
C279 C 0.42969 0.22266 0.61978 0.0
C280 C 0.41025 0.37021 0.60134 0.0
N281 N 0.42522 0.37272 0.57773 0.0
C282 C 0.44258 0.4215 0.61534 0.0
C283 C 0.44123 0.39782 0.58414 0.0
C284 C 0.42716 0.41994 0.6398 0.0
C285 C 0.41083 0.39388 0.63249 0.0
H286 H 0.3977 0.35002 0.59568 0.0
H287 H 0.45287 0.40016 0.56513 0.0
C288 C 0.43915 0.1924 0.47783 0.0
N289 N 0.44154 0.22048 0.50491 0.0
C290 C 0.4496 0.15373 0.47719 0.0
C291 C 0.46486 0.1736 0.53226 0.0
C292 C 0.45427 0.21205 0.53161 0.0
C293 C 0.46262 0.14367 0.50479 0.0
H294 H 0.42917 0.20009 0.4566 0.0
H295 H 0.45609 0.235 0.55268 0.0
C296 C 0.39456 0.40087 0.52131 0.0
N297 N 0.38373 0.47288 0.55912 0.0
C298 C 0.37699 0.40109 0.54034 0.0
C299 C 0.40655 0.43734 0.5213 0.0
C300 C 0.37178 0.43782 0.55931 0.0
C301 C 0.40085 0.47339 0.54067 0.0
C302 C 0.3949 0.26414 0.44331 0.0
C303 C 0.38787 0.28601 0.41376 0.0
C304 C 0.38679 0.22443 0.45246 0.0
C305 C 0.37265 0.2679 0.39398 0.0
C306 C 0.37157 0.20745 0.43205 0.0
N307 N 0.36487 0.22936 0.40349 0.0
C308 C 0.43659 0.35945 0.40358 0.0
C309 C 0.41371 0.41045 0.42512 0.0
C310 C 0.43848 0.38235 0.37206 0.0
N311 N 0.42425 0.37372 0.42915 0.0
C312 C 0.41525 0.43444 0.39428 0.0
C313 C 0.42755 0.42025 0.36693 0.0
H314 H 0.44464 0.32984 0.4074 0.0
H315 H 0.40385 0.42084 0.44569 0.0
C316 C 0.35826 0.26668 0.5308 0.0
N317 N 0.36629 0.29186 0.50538 0.0
C318 C 0.33798 0.25959 0.53157 0.0
C319 C 0.33465 0.30445 0.47998 0.0
C320 C 0.35495 0.31101 0.48043 0.0
C321 C 0.32591 0.27854 0.50586 0.0
H322 H 0.36756 0.25243 0.55067 0.0
H323 H 0.36169 0.3317 0.46104 0.0
O324 O 0.44249 0.32642 0.502 0.0
O325 O 0.40871 0.28336 0.54615 0.0
O326 O 0.40011 0.36491 0.50317 0.0
O327 O 0.40952 0.28172 0.4634 0.0
H328 H 0.47291 0.30145 0.54031 0.0
H329 H 0.44954 0.40472 0.47759 0.0
H330 H 0.50296 0.34487 0.55059 0.0
H331 H 0.48 0.44624 0.48889 0.0
H332 H 0.40498 0.14344 0.5797 0.0
H333 H 0.43125 0.28858 0.60294 0.0
H334 H 0.3964 0.2031 0.5392 0.0
H335 H 0.43907 0.22753 0.64245 0.0
H336 H 0.45534 0.44156 0.61994 0.0
H337 H 0.39871 0.39155 0.65084 0.0
H338 H 0.44765 0.13223 0.45506 0.0
H339 H 0.47448 0.16723 0.55436 0.0
H340 H 0.36758 0.37308 0.54072 0.0
H341 H 0.42024 0.4376 0.50684 0.0
H342 H 0.35828 0.4384 0.57429 0.0
H343 H 0.41005 0.50173 0.5411 0.0
H344 H 0.39398 0.31681 0.40635 0.0
H345 H 0.39208 0.20713 0.47526 0.0
H346 H 0.36699 0.28455 0.37114 0.0
H347 H 0.36506 0.17688 0.43895 0.0
H348 H 0.44797 0.36988 0.35162 0.0
H349 H 0.4068 0.46378 0.39191 0.0
H350 H 0.33183 0.23927 0.55189 0.0
H351 H 0.32585 0.3202 0.46004 0.0
Li352 Li 0.08393 0.84446 0.03793 0.0
Li353 Li 0.11043 0.80299 1.00519 0.0
Li354 Li 0.08475 0.83924 0.97483 0.0
Li355 Li 0.07629 0.77426 1.00455 0.0
C356 C 0.10827 0.90327 0.98951 0.0
N357 N 0.11426 0.97936 0.95365 0.0
C358 C 0.12246 0.90561 0.96303 0.0
C359 C 0.0972 0.93969 0.99791 0.0
C360 C 0.12523 0.94435 0.94513 0.0
C361 C 0.10045 0.97786 0.97948 0.0
C362 C 0.10056 0.7659 0.07595 0.0
C363 C 0.10586 0.70353 0.11245 0.0
N364 N 0.11411 0.72899 0.13753 0.0
C365 C 0.10907 0.79143 0.10214 0.0
C366 C 0.0989 0.72157 0.08117 0.0
C367 C 0.11584 0.77218 0.13306 0.0
C368 C 0.06336 0.87193 0.09999 0.0
N369 N 0.07946 0.87761 0.07933 0.0
C370 C 0.0926 0.92924 0.11951 0.0
C371 C 0.09385 0.90584 0.08833 0.0
C372 C 0.0764 0.92353 0.14191 0.0
C373 C 0.06148 0.89484 0.13157 0.0
H374 H 0.0522 0.84899 0.09229 0.0
H375 H 0.1066 0.9094 0.07161 0.0
C376 C 0.14732 0.79223 0.97362 0.0
N377 N 0.13783 0.7889 1.00497 0.0
C378 C 0.16751 0.78455 0.97147 0.0
C379 C 0.16772 0.76881 0.03372 0.0
C380 C 0.14757 0.77719 0.03471 0.0
C381 C 0.17799 0.77288 1.00186 0.0
H382 H 0.13919 0.80119 0.95027 0.0
H383 H 0.13986 0.77477 0.05933 0.0
C384 C 0.04578 0.8431 0.98749 0.0
N385 N 0.01397 0.87086 0.9485 0.0
C386 C 0.04009 0.82069 0.95728 0.0
C387 C 0.0352 0.87931 0.99814 0.0
C388 C 0.024 0.83535 0.93784 0.0
C389 C 0.01918 0.8929 0.978 0.0
C390 C 0.10199 0.74136 0.95496 0.0
C391 C 0.10188 0.72861 0.91967 0.0
C392 C 0.10917 0.71325 0.98059 0.0
C393 C 0.10889 0.68787 0.91067 0.0
C394 C 0.11607 0.67281 0.97055 0.0
N395 N 0.11578 0.66104 0.93609 0.0
C396 C 0.08937 0.85691 0.90302 0.0
C397 C 0.06937 0.90839 0.93168 0.0
C398 C 0.08785 0.87925 0.87131 0.0
N399 N 0.08017 0.8716 0.93238 0.0
C400 C 0.06746 0.93184 0.90049 0.0
C401 C 0.07682 0.91737 0.86972 0.0
H402 H 0.09829 0.82825 0.90442 0.0
H403 H 0.06255 0.92013 0.95545 0.0
C404 C 0.05259 0.71012 0.03661 0.0
N405 N 0.06054 0.72325 0.0056 0.0
C406 C 0.0418 0.67188 0.03831 0.0
C407 C 0.04724 0.66191 0.97602 0.0
C408 C 0.0577 0.70051 0.97545 0.0
C409 C 0.03927 0.64694 0.0078 0.0
H410 H 0.05487 0.72907 0.06013 0.0
H411 H 0.06361 0.71219 0.95089 0.0
O412 O 0.10503 0.86538 0.0068 0.0
O413 O 0.09358 0.78426 0.04566 0.0
O414 O 0.06158 0.82952 0.00668 0.0
O415 O 0.09505 0.78116 0.96405 0.0
H416 H 0.13111 0.87774 0.95611 0.0
H417 H 0.08596 0.9383 0.01799 0.0
H418 H 0.13607 0.94654 0.92441 0.0
H419 H 0.0919 0.00621 0.98554 0.0
H420 H 0.10468 0.66927 0.11679 0.0
H421 H 0.11076 0.82562 0.09842 0.0
H422 H 0.09235 0.70122 0.06128 0.0
H423 H 0.12254 0.79156 0.15345 0.0
H424 H 0.1043 0.95145 0.1261 0.0
H425 H 0.04881 0.88922 0.14816 0.0
H426 H 0.17484 0.78755 0.9463 0.0
H427 H 0.17528 0.76027 0.05783 0.0
H428 H 0.04817 0.79261 0.94875 0.0
H429 H 0.03944 0.89687 0.02156 0.0
H430 H 0.0195 0.81854 0.91424 0.0
H431 H 0.0109 0.92102 0.98577 0.0
H432 H 0.09629 0.74982 0.89945 0.0
H433 H 0.10952 0.72255 0.0079 0.0
H434 H 0.10883 0.67757 0.88348 0.0
H435 H 0.12167 0.65079 0.99017 0.0
H436 H 0.09566 0.86735 0.84848 0.0
H437 H 0.05876 0.96097 0.90049 0.0
H438 H 0.03589 0.66144 0.06334 0.0
H439 H 0.0453 0.64407 0.95178 0.0
Li440 Li 0.89305 0.20762 0.0058 0.0
Li441 Li 0.91934 0.17016 0.03696 0.0
Li442 Li 0.92705 0.23728 1.00343 0.0
Li443 Li 0.92023 0.16839 0.97315 0.0
C444 C 0.90142 0.26538 0.06036 0.0
N445 N 0.8851 0.33782 0.09063 0.0
C446 C 0.89579 0.26497 0.09572 0.0
C447 C 0.8989 0.30274 0.04051 0.0
C448 C 0.88751 0.30187 0.11051 0.0
C449 C 0.8906 0.33901 0.05624 0.0
C450 C 0.89475 0.10794 0.02104 0.0
C451 C 0.90228 0.03438 0.03567 0.0
N452 N 0.88606 0.03288 0.05652 0.0
C453 C 0.87806 0.10559 0.04236 0.0
C454 C 0.90689 0.072 0.01741 0.0
C455 C 0.87395 0.06737 0.06017 0.0
C456 C 0.85613 0.22337 0.97448 0.0
N457 N 0.86567 0.21978 0.00579 0.0
C458 C 0.8355 0.22853 0.03717 0.0
C459 C 0.85582 0.22212 0.03685 0.0
C460 C 0.82528 0.23275 1.00522 0.0
C461 C 0.83587 0.23038 0.97358 0.0
H462 H 0.86424 0.22019 0.95016 0.0
H463 H 0.86369 0.21813 0.06135 0.0
C464 C 0.94018 0.11472 0.08476 0.0
N465 N 0.92374 0.13868 0.07941 0.0
C466 C 0.94242 0.09112 0.11586 0.0
C467 C 0.91088 0.11769 0.13535 0.0
C468 C 0.90925 0.14064 0.10395 0.0
C469 C 0.92763 0.09244 0.1417 0.0
H470 H 0.95152 0.11382 0.06491 0.0
H471 H 0.89624 0.15956 0.0988 0.0
C472 C 0.90621 0.25462 0.9372 0.0
N473 N 0.90167 0.31269 0.88274 0.0
C474 C 0.91701 0.24987 0.90617 0.0
C475 C 0.89294 0.28872 0.94034 0.0
C476 C 0.91456 0.27961 0.879 0.0
C477 C 0.8909 0.31778 0.91257 0.0
C478 C 0.95896 0.16779 0.99032 0.0
C479 C 0.97214 0.19673 0.97503 0.0
C480 C 0.96293 0.12375 0.98922 0.0
C481 C 0.98903 0.18102 0.95856 0.0
C482 C 0.97996 0.10932 0.97244 0.0
N483 N 0.99254 0.138 0.95758 0.0
C484 C 0.95048 0.30194 0.03452 0.0
C485 C 0.94487 0.31293 0.97373 0.0
C486 C 0.96149 0.33986 0.03652 0.0
N487 N 0.94236 0.28932 1.00348 0.0
C488 C 0.95557 0.3512 0.97458 0.0
C489 C 0.96412 0.36528 0.00627 0.0
H490 H 0.94838 0.28248 0.0578 0.0
H491 H 0.9386 0.30232 0.94923 0.0
C492 C 0.9106 0.10529 0.92343 0.0
N493 N 0.92477 0.1344 0.93173 0.0
C494 C 0.91196 0.08097 0.89263 0.0
C495 C 0.9426 0.11663 0.87943 0.0
C496 C 0.94058 0.14046 0.91041 0.0
C497 C 0.92808 0.08659 0.86996 0.0
H498 H 0.89798 0.10159 0.9404 0.0
H499 H 0.95143 0.16447 0.9169 0.0
O500 O 0.90941 0.22937 0.04543 0.0
O501 O 0.89931 0.1454 1.00414 0.0
O502 O 0.90842 0.22567 0.96405 0.0
O503 O 0.94239 0.1826 0.00662 0.0
H504 H 0.89775 0.23645 0.11159 0.0
H505 H 0.90343 0.30384 0.01334 0.0
H506 H 0.88303 0.30195 0.13781 0.0
H507 H 0.88857 0.36812 0.04113 0.0
H508 H 0.91161 0.00639 0.03328 0.0
H509 H 0.86851 0.13311 0.04543 0.0
H510 H 0.91978 0.07325 1.00082 0.0
H511 H 0.86117 0.06517 0.07697 0.0
H512 H 0.82786 0.23023 0.06213 0.0
H513 H 0.82847 0.2328 0.9484 0.0
H514 H 0.95566 0.07243 0.11978 0.0
H515 H 0.89896 0.1191 0.15415 0.0
H516 H 0.92736 0.22385 0.90323 0.0
H517 H 0.88417 0.29264 0.96383 0.0
H518 H 0.92292 0.27643 0.85495 0.0
H519 H 0.8807 0.34432 0.91471 0.0
H520 H 0.96934 0.23092 0.97575 0.0
H521 H 0.95291 0.10093 1.00093 0.0
H522 H 0.99932 0.20302 0.9465 0.0
H523 H 0.98316 0.0753 0.97121 0.0
H524 H 0.96802 0.34883 0.06145 0.0
H525 H 0.95687 0.36978 0.95062 0.0
H526 H 0.9002 0.05888 0.88621 0.0
H527 H 0.95537 0.12189 0.86303 0.0
Li528 Li 0.07842 0.23925 0.50782 0.0
Li529 Li 0.08609 0.16963 0.53962 0.0
Li530 Li 0.11057 0.20722 0.50809 0.0
Li531 Li 0.08643 0.16944 0.47447 0.0
C532 C 0.10984 0.2495 0.56746 0.0
N533 N 0.13984 0.29084 0.603 0.0
C534 C 0.1223 0.22634 0.58973 0.0
C535 C 0.11259 0.29374 0.56339 0.0
C536 C 0.13741 0.2478 0.60739 0.0
C537 C 0.12783 0.31405 0.5816 0.0
C538 C 0.045 0.17749 0.51789 0.0
C539 C 0.01418 0.13919 0.51752 0.0
N540 N 0.00677 0.16786 0.54105 0.0
C541 C 0.03706 0.20666 0.54196 0.0
C542 C 0.03345 0.14358 0.50542 0.0
C543 C 0.01771 0.20121 0.55339 0.0
C544 C 0.05398 0.30259 0.47676 0.0
N545 N 0.06296 0.29052 0.50714 0.0
C546 C 0.05047 0.35254 0.53681 0.0
C547 C 0.0613 0.31442 0.53694 0.0
C548 C 0.04106 0.36615 0.50577 0.0
C549 C 0.04288 0.34041 0.47548 0.0
H550 H 0.05548 0.28283 0.45348 0.0
H551 H 0.06842 0.30386 0.56087 0.0
C552 C 0.09761 0.11429 0.59368 0.0
N553 N 0.08162 0.13575 0.5813 0.0
C554 C 0.09637 0.08954 0.6242 0.0
C555 C 0.06214 0.10914 0.629 0.0
C556 C 0.06406 0.13354 0.59829 0.0
C557 C 0.07846 0.08678 0.64242 0.0
H558 H 0.11148 0.11674 0.57994 0.0
H559 H 0.05152 0.15076 0.58834 0.0
C560 C 0.10902 0.25145 0.44739 0.0
N561 N 0.13645 0.2965 0.40864 0.0
C562 C 0.12323 0.22943 0.42793 0.0
C563 C 0.10861 0.29635 0.44688 0.0
C564 C 0.13703 0.25281 0.40861 0.0
C565 C 0.12264 0.31855 0.42716 0.0
C566 C 0.10346 0.10058 0.5064 0.0
C567 C 0.11957 0.07328 0.50162 0.0
C568 C 0.08466 0.08291 0.50972 0.0
C569 C 0.11661 0.02888 0.50047 0.0
C570 C 0.08229 0.03836 0.50848 0.0
N571 N 0.09818 0.01248 0.50392 0.0
C572 C 0.15067 0.18665 0.51285 0.0
C573 C 0.14535 0.26121 0.50499 0.0
C574 C 0.17098 0.19274 0.51277 0.0
N575 N 0.13828 0.22052 0.50863 0.0
C576 C 0.16559 0.26886 0.50502 0.0
C577 C 0.1787 0.23427 0.50866 0.0
H578 H 0.14476 0.15479 0.51638 0.0
H579 H 0.13531 0.28781 0.50196 0.0
C580 C 0.06404 0.13517 0.41654 0.0
N581 N 0.08191 0.13728 0.43255 0.0
C582 C 0.06179 0.1121 0.38512 0.0
C583 C 0.09629 0.09385 0.38758 0.0
C584 C 0.09786 0.11711 0.41881 0.0
C585 C 0.07813 0.0914 0.37006 0.0
H586 H 0.05163 0.15185 0.4279 0.0
H587 H 0.11189 0.11934 0.43205 0.0
O588 O 0.09514 0.22891 0.54955 0.0
O589 O 0.06379 0.1827 0.50582 0.0
O590 O 0.09544 0.22923 0.46661 0.0
O591 O 0.10619 0.14425 0.50713 0.0
H592 H 0.12045 0.19211 0.59308 0.0
H593 H 0.10333 0.31209 0.54579 0.0
H594 H 0.14723 0.23021 0.62455 0.0
H595 H 0.13021 0.3482 0.5785 0.0
H596 H 0.00509 0.11303 0.50817 0.0
H597 H 0.04585 0.23268 0.55229 0.0
H598 H 0.03931 0.12085 0.48659 0.0
H599 H 0.01142 0.22339 0.5722 0.0
H600 H 0.04974 0.37142 0.5607 0.0
H601 H 0.03567 0.3491 0.45109 0.0
H602 H 0.10942 0.07344 0.63379 0.0
H603 H 0.04799 0.10761 0.64195 0.0
H604 H 0.12375 0.19471 0.42812 0.0
H605 H 0.09768 0.31384 0.4618 0.0
H606 H 0.14822 0.23622 0.39365 0.0
H607 H 0.12258 0.3533 0.42666 0.0
H608 H 0.13423 0.08617 0.49855 0.0
H609 H 0.072 0.10321 0.51341 0.0
H610 H 0.12895 0.00746 0.49676 0.0
H611 H 0.06782 0.02437 0.51115 0.0
H612 H 0.18056 0.16527 0.51626 0.0
H613 H 0.17093 0.30138 0.50162 0.0
H614 H 0.04756 0.11132 0.37235 0.0
H615 H 0.10921 0.07785 0.37732 0.0
Li616 Li 0.92034 0.8432 0.53497 0.0
Li617 Li 0.92812 0.77443 0.50574 0.0
Li618 Li 0.92009 0.84071 0.47135 0.0
Li619 Li 0.89369 0.80229 0.50211 0.0
C620 C 0.95883 0.84621 0.52003 0.0
N621 N 0.99077 0.87959 0.55571 0.0
C622 C 0.97241 0.8187 0.53597 0.0
C623 C 0.96157 0.89066 0.52195 0.0
C624 C 0.98845 0.83622 0.55394 0.0
C625 C 0.97778 0.90691 0.54022 0.0
C626 C 0.90453 0.75674 0.57012 0.0
C627 C 0.88574 0.69622 0.59113 0.0
N628 N 0.89513 0.6989 0.62267 0.0
C629 C 0.91386 0.75912 0.60286 0.0
C630 C 0.89024 0.72525 0.56429 0.0
C631 C 0.90897 0.72949 0.62903 0.0
C632 C 0.9117 0.90958 0.58294 0.0
N633 N 0.92456 0.87713 0.57644 0.0
C634 C 0.94126 0.89098 0.63073 0.0
C635 C 0.93915 0.86749 0.59961 0.0
C636 C 0.92805 0.92443 0.63843 0.0
C637 C 0.91317 0.93373 0.61384 0.0
H638 H 0.89998 0.91612 0.56447 0.0
H639 H 0.94898 0.84102 0.59431 0.0
C640 C 0.95293 0.71092 0.47678 0.0
N641 N 0.94379 0.7231 0.50701 0.0
C642 C 0.96378 0.67278 0.47555 0.0
C643 C 0.95587 0.66066 0.53669 0.0
C644 C 0.94528 0.69911 0.53679 0.0
C645 C 0.96519 0.64685 0.50572 0.0
H646 H 0.95151 0.73057 0.45345 0.0
H647 H 0.93822 0.70957 0.56065 0.0
C648 C 0.89371 0.90013 0.48453 0.0
N649 N 0.88251 0.97065 0.44524 0.0
C650 C 0.87706 0.89802 0.46304 0.0
C651 C 0.90458 0.93817 0.4863 0.0
C652 C 0.87165 0.93402 0.44333 0.0
C653 C 0.89871 0.97345 0.46615 0.0
C654 C 0.90544 0.74344 0.44699 0.0
C655 C 0.90286 0.74236 0.4105 0.0
C656 C 0.90307 0.70577 0.46656 0.0
C657 C 0.89768 0.70369 0.39426 0.0
C658 C 0.89792 0.66773 0.44934 0.0
N659 N 0.89534 0.66749 0.41385 0.0
C660 C 0.94033 0.89816 0.42446 0.0
C661 C 0.91065 0.8678 0.40331 0.0
C662 C 0.9425 0.92186 0.3934 0.0
N663 N 0.92453 0.87195 0.42881 0.0
C664 C 0.91223 0.89077 0.37193 0.0
C665 C 0.92831 0.91835 0.3666 0.0
H666 H 0.95118 0.90087 0.44513 0.0
H667 H 0.8981 0.84716 0.40769 0.0
C668 C 0.85531 0.81472 0.52497 0.0
N669 N 0.86614 0.79035 0.50254 0.0
C670 C 0.8349 0.81009 0.52642 0.0
C671 C 0.83717 0.7546 0.48216 0.0
C672 C 0.8575 0.76075 0.48122 0.0
C673 C 0.82549 0.77969 0.50477 0.0
H674 H 0.86255 0.83836 0.54137 0.0
H675 H 0.86624 0.74199 0.46328 0.0
O676 O 0.94302 0.82965 0.50241 0.0
O677 O 0.90907 0.78569 0.54426 0.0
O678 O 0.89952 0.8649 0.50332 0.0
O679 O 0.91076 0.78096 0.4632 0.0
H680 H 0.97054 0.78422 0.53464 0.0
H681 H 0.95117 0.91238 0.50981 0.0
H682 H 0.99904 0.81534 0.56654 0.0
H683 H 0.98001 0.94125 0.54213 0.0
H684 H 0.87475 0.67163 0.58692 0.0
H685 H 0.92491 0.78326 0.60793 0.0
H686 H 0.8826 0.72325 0.5394 0.0
H687 H 0.91617 0.73081 0.6544 0.0
H688 H 0.95309 0.88284 0.64861 0.0
H689 H 0.9024 0.9586 0.61882 0.0
H690 H 0.97062 0.66322 0.45105 0.0
H691 H 0.95685 0.64206 0.56071 0.0
H692 H 0.86854 0.86872 0.46126 0.0
H693 H 0.91749 0.94029 0.50284 0.0
H694 H 0.85887 0.93279 0.42641 0.0
H695 H 0.90705 1.00303 0.46708 0.0
H696 H 0.90487 0.77104 0.39485 0.0
H697 H 0.90524 0.70584 0.49469 0.0
H698 H 0.89558 0.70243 0.36606 0.0
H699 H 0.89602 0.63839 0.4642 0.0
H700 H 0.95522 0.94242 0.39031 0.0
H701 H 0.90074 0.88761 0.35234 0.0
H702 H 0.8266 0.83079 0.54381 0.0
H703 H 0.83072 0.73027 0.46536 0.0
H704 H 0.80398 0.29038 0.9667 0.0
H705 H 0.7978 0.18814 0.04266 0.0
H706 H 0.76826 0.29947 0.96556 0.0
H707 H 0.76209 0.19732 0.04159 0.0
H708 H 0.69865 0.19648 0.99585 0.0
H709 H 0.73424 0.18704 0.99703 0.0
H710 H 0.74186 0.32394 0.00881 0.0
H711 H 0.70635 0.33353 0.00907 0.0
C712 C 0.79497 0.26982 0.98307 0.0
C713 C 0.80365 0.23862 1.00482 0.0
C714 C 0.77457 0.2752 0.98259 0.0
C715 C 0.76243 0.24907 1.00347 0.0
C716 C 0.7711 0.21768 0.02504 0.0
C717 C 0.79152 0.21269 0.02588 0.0
C718 C 0.70784 0.22459 0.99918 0.0
C719 C 0.6995 0.26581 1.00235 0.0
C720 C 0.72825 0.21913 0.9997 0.0
C721 C 0.74079 0.25477 1.00294 0.0
C722 C 0.73254 0.29595 0.00583 0.0
C723 C 0.71215 0.30139 0.00579 0.0
H724 H 0.2056 0.82234 0.96904 0.0
H725 H 0.19907 0.70786 0.03206 0.0
H726 H 0.24116 0.81268 0.96896 0.0
H727 H 0.23458 0.69745 0.03136 0.0
H728 H 0.29933 0.71679 0.05568 0.0
H729 H 0.26393 0.72709 0.05499 0.0
H730 H 0.26707 0.7691 0.94675 0.0
H731 H 0.30266 0.76135 0.94814 0.0
C732 C 0.21177 0.79477 0.98247 0.0
C733 C 0.19956 0.76591 1.00061 0.0
C734 C 0.23216 0.78914 0.98239 0.0
C735 C 0.24081 0.75432 1.00023 0.0
C736 C 0.22851 0.72511 0.01793 0.0
C737 C 0.20814 0.73095 0.01824 0.0
C738 C 0.29254 0.72886 0.03187 0.0
C739 C 0.30393 0.73839 1.00202 0.0
C740 C 0.27215 0.73413 0.0313 0.0
C741 C 0.26256 0.74877 1.00076 0.0
C742 C 0.27394 0.75822 0.97086 0.0
C743 C 0.29436 0.75322 0.97152 0.0
H744 H 0.8005 0.78668 0.56134 0.0
H745 H 0.80083 0.76141 0.44946 0.0
H746 H 0.76491 0.78045 0.56181 0.0
H747 H 0.76547 0.75175 0.4505 0.0
H748 H 0.70016 0.77772 0.45477 0.0
H749 H 0.73564 0.78863 0.45499 0.0
H750 H 0.73908 0.73081 0.55831 0.0
H751 H 0.70349 0.7217 0.55843 0.0
C752 C 0.79304 0.77975 0.53681 0.0
C753 C 0.80368 0.77465 0.50535 0.0
C754 C 0.77258 0.77549 0.53719 0.0
C755 C 0.76218 0.76549 0.50621 0.0
C756 C 0.77285 0.76012 0.47481 0.0
C757 C 0.79327 0.76493 0.47434 0.0
C758 C 0.70856 0.76748 0.47751 0.0
C759 C 0.6991 0.74893 0.50658 0.0
C760 C 0.72892 0.77347 0.47761 0.0
C761 C 0.74037 0.76042 0.5066 0.0
C762 C 0.7308 0.74199 0.53576 0.0
C763 C 0.71039 0.73659 0.53583 0.0
H764 H 0.1998 0.29699 0.54223 0.0
H765 H 0.20635 0.18727 0.47362 0.0
H766 H 0.23539 0.30799 0.54133 0.0
H767 H 0.24191 0.19781 0.47321 0.0
H768 H 0.30181 0.2607 0.45013 0.0
H769 H 0.26619 0.25081 0.45064 0.0
H770 H 0.26559 0.27089 0.56309 0.0
H771 H 0.30118 0.28149 0.5625 0.0
C772 C 0.20884 0.27534 0.52687 0.0
C773 C 0.20029 0.24125 0.50802 0.0
C774 C 0.22922 0.28139 0.52662 0.0
C775 C 0.24145 0.25373 0.50723 0.0
C776 C 0.23287 0.21985 0.48817 0.0
C777 C 0.21253 0.21359 0.48867 0.0
C778 C 0.29405 0.26323 0.47492 0.0
C779 C 0.30429 0.27187 0.50627 0.0
C780 C 0.27368 0.25721 0.47525 0.0
C781 C 0.26309 0.26008 0.50691 0.0
C782 C 0.27333 0.26886 0.53825 0.0
C783 C 0.29372 0.27449 0.53796 0.0
H784 H 0.5571 0.40498 0.20041 0.0
H785 H 0.59109 0.50533 0.15118 0.0
H786 H 0.55625 0.44631 0.25507 0.0
H787 H 0.58969 0.54747 0.20511 0.0
H788 H 0.60535 0.5866 0.31612 0.0
H789 H 0.60376 0.54709 0.26133 0.0
H790 H 0.54437 0.50766 0.28555 0.0
H791 H 0.5465 0.54489 0.3419 0.0
C792 C 0.56407 0.43627 0.20115 0.0
C793 C 0.57431 0.4518 0.17171 0.0
C794 C 0.56355 0.46007 0.23242 0.0
C795 C 0.5731 0.50015 0.23478 0.0
C796 C 0.58262 0.5163 0.2047 0.0
C797 C 0.58334 0.49229 0.17367 0.0
C798 C 0.59202 0.56903 0.31015 0.0
C799 C 0.57613 0.56871 0.3338 0.0
C800 C 0.59097 0.54689 0.27826 0.0
C801 C 0.57388 0.52424 0.26872 0.0
C802 C 0.55785 0.52432 0.29211 0.0
C803 C 0.55898 0.5462 0.32428 0.0
H804 H 0.4135 0.6142 0.20597 0.0
H805 H 0.44663 0.51514 0.15269 0.0
H806 H 0.41403 0.57187 0.25976 0.0
H807 H 0.44757 0.4733 0.20712 0.0
H808 H 0.45971 0.43493 0.32463 0.0
H809 H 0.46095 0.47623 0.2699 0.0
H810 H 0.3988 0.50196 0.27832 0.0
H811 H 0.39736 0.46004 0.33221 0.0
C812 C 0.42086 0.58335 0.20563 0.0
C813 C 0.42981 0.56793 0.17475 0.0
C814 C 0.42121 0.55917 0.23654 0.0
C815 C 0.43069 0.51912 0.23756 0.0
C816 C 0.44024 0.5042 0.20714 0.0
C817 C 0.43974 0.52826 0.17601 0.0
C818 C 0.44626 0.44895 0.3146 0.0
C819 C 0.42847 0.44445 0.33313 0.0
C820 C 0.44701 0.47268 0.2833 0.0
C821 C 0.43002 0.49267 0.27005 0.0
C822 C 0.41222 0.48764 0.28826 0.0
C823 C 0.41143 0.4637 0.31926 0.0
H824 H 0.39746 0.54249 0.83728 0.0
H825 H 0.45936 0.57049 0.82579 0.0
H826 H 0.39793 0.50293 0.78238 0.0
H827 H 0.45948 0.53346 0.76933 0.0
H828 H 0.45738 0.42561 0.68697 0.0
H829 H 0.45797 0.46498 0.74257 0.0
H830 H 0.39942 0.51264 0.72137 0.0
H831 H 0.39868 0.47188 0.66665 0.0
C832 C 0.41123 0.54016 0.82314 0.0
C833 C 0.42841 0.55958 0.83628 0.0
C834 C 0.41141 0.51803 0.79118 0.0
C835 C 0.42871 0.51513 0.77109 0.0
C836 C 0.44592 0.53457 0.78417 0.0
C837 C 0.44578 0.55637 0.8164 0.0
C838 C 0.44471 0.44472 0.69426 0.0
C839 C 0.42794 0.44548 0.6727 0.0
C840 C 0.44504 0.46744 0.72604 0.0
C841 C 0.42869 0.49189 0.73674 0.0
C842 C 0.41211 0.49338 0.71455 0.0
C843 C 0.41169 0.47021 0.68307 0.0
H844 H 0.60921 0.43041 0.82055 0.0
H845 H 0.54829 0.46165 0.84003 0.0
H846 H 0.60822 0.47178 0.7663 0.0
H847 H 0.54727 0.5026 0.7852 0.0
H848 H 0.54982 0.53385 0.66528 0.0
H849 H 0.54944 0.49268 0.72004 0.0
H850 H 0.60534 0.54798 0.74921 0.0
H851 H 0.60563 0.58947 0.69499 0.0
C852 C 0.59563 0.44636 0.81345 0.0
C853 C 0.57888 0.44298 0.83494 0.0
C854 C 0.59507 0.47001 0.78226 0.0
C855 C 0.57771 0.49072 0.77157 0.0
C856 C 0.56082 0.48672 0.7926 0.0
C857 C 0.56141 0.46319 0.82399 0.0
C858 C 0.56192 0.53759 0.68355 0.0
C859 C 0.57784 0.56473 0.67551 0.0
C860 C 0.5617 0.51396 0.71491 0.0
C861 C 0.57744 0.5168 0.73881 0.0
C862 C 0.59318 0.54442 0.73102 0.0
C863 C 0.59336 0.56815 0.69985 0.0
H864 H 0.04455 0.96239 0.17311 0.0
H865 H 0.10634 0.93653 0.18851 0.0
H866 H 0.04397 1.00327 0.22816 0.0
H867 H 0.10576 0.97709 0.24317 0.0
H868 H 0.10409 0.09243 0.31538 0.0
H869 H 0.10273 0.05158 0.2609 0.0
H870 H 0.04724 0.99649 0.29262 0.0
H871 H 0.0486 0.03766 0.34748 0.0
C872 C 0.05794 0.96508 0.18838 0.0
C873 C 0.07554 0.94666 0.17617 0.0
C874 C 0.05761 0.98849 0.21991 0.0
C875 C 0.07487 0.99392 0.23986 0.0
C876 C 0.09231 0.97446 0.22805 0.0
C877 C 0.09264 0.95117 0.19667 0.0
C878 C 0.09164 0.07141 0.31091 0.0
C879 C 0.07656 0.06795 0.33602 0.0
C880 C 0.09086 0.04795 0.27964 0.0
C881 C 0.07499 0.02033 0.27255 0.0
C882 C 0.05961 0.01767 0.29718 0.0
C883 C 0.06039 0.04126 0.32859 0.0
H884 H 0.93994 1.00218 0.35875 0.0
H885 H 0.92041 0.89172 0.29936 0.0
H886 H 0.94154 0.04413 0.30458 0.0
H887 H 0.9213 0.93404 0.24548 0.0
H888 H 0.91771 0.11768 0.20839 0.0
H889 H 0.91896 0.07551 0.26233 0.0
H890 H 0.94356 0.96875 0.20456 0.0
H891 H 0.94162 0.01045 0.15029 0.0
C892 C 0.93612 0.98675 0.33413 0.0
C893 C 0.93 0.94359 0.33345 0.0
C894 C 0.93682 0.01094 0.30311 0.0
C895 C 0.93148 0.99253 0.27065 0.0
C896 C 0.9257 0.94916 0.26993 0.0
C897 C 0.92496 0.92502 0.30092 0.0
C898 C 0.9233 0.08513 0.20713 0.0
C899 C 0.92946 0.0674 0.17493 0.0
C900 C 0.92424 0.06111 0.23817 0.0
C901 C 0.93135 0.0187 0.23783 0.0
C902 C 0.93781 1.00116 0.20572 0.0
C903 C 0.9369 0.02524 0.17466 0.0
H904 H 0.93749 0.89315 0.70382 0.0
H905 H 0.92141 0.01033 0.65003 0.0
H906 H 0.93905 0.9321 0.75925 0.0
H907 H 0.92182 0.04872 0.70581 0.0
H908 H 0.94138 0.11522 0.80594 0.0
H909 H 0.94287 0.07598 0.75062 0.0
H910 H 0.91797 0.96442 0.80151 0.0
H911 H 0.91757 1.00281 0.85726 0.0
C912 C 0.93437 0.92727 0.70372 0.0
C913 C 0.92934 0.94852 0.6723 0.0
C914 C 0.93499 0.94952 0.73568 0.0
C915 C 0.93047 0.99359 0.73717 0.0
C916 C 0.92561 0.01493 0.7057 0.0
C917 C 0.9251 0.99273 0.6737 0.0
C918 C 0.93655 0.08207 0.80553 0.0
C919 C 0.92937 0.06226 0.83621 0.0
C920 C 0.93714 0.05972 0.77361 0.0
C921 C 0.93046 0.01701 0.77143 0.0
C922 C 0.92345 0.99708 0.80218 0.0
C923 C 0.92297 0.01934 0.83414 0.0
H924 H 0.07218 0.88637 0.80279 0.0
H925 H 0.07872 1.0047 0.8611 0.0
H926 H 0.07154 0.92681 0.74789 0.0
H927 H 0.0781 0.04517 0.80618 0.0
H928 H 0.05872 0.10735 0.70302 0.0
H929 H 0.05694 0.06609 0.7575 0.0
H930 H 0.0938 0.96803 0.71149 0.0
H931 H 0.09492 0.00838 0.65665 0.0
C932 C 0.07356 0.92101 0.80389 0.0
C933 C 0.07556 0.94226 0.83636 0.0
C934 C 0.0732 0.94421 0.7724 0.0
C935 C 0.07484 0.98925 0.77257 0.0
C936 C 0.07653 0.01057 0.80509 0.0
C937 C 0.07688 0.98736 0.8366 0.0
C938 C 0.06621 0.0767 0.70436 0.0
C939 C 0.07698 0.06122 0.67542 0.0
C940 C 0.06539 0.05328 0.73575 0.0
C941 C 0.07526 0.01377 0.73894 0.0
C942 C 0.08584 0.9981 0.70987 0.0
C943 C 0.08668 0.02151 0.67852 0.0
H944 H 0.48864 0.89723 0.9519 0.0
H945 H 0.46486 0.92408 0.05501 0.0
H946 H 0.50597 0.96548 0.95285 0.0
H947 H 0.48321 0.99119 0.05688 0.0
H948 H 0.50217 0.12938 0.03306 0.0
H949 H 0.48416 0.06155 0.03231 0.0
H950 H 0.53304 1.00061 0.97956 0.0
H951 H 0.55076 0.06856 0.97969 0.0
C952 C 0.48709 0.91763 0.97482 0.0
C953 C 0.47526 0.905 1.00333 0.0
C954 C 0.49729 0.95662 0.97558 0.0
C955 C 0.49609 0.98397 1.005 0.0
C956 C 0.48433 0.97127 0.03359 0.0
C957 C 0.47401 0.93239 0.03273 0.0
C958 C 0.50907 0.10139 0.02148 0.0
C959 C 0.52784 0.10441 0.00627 0.0
C960 C 0.49878 0.06243 0.02111 0.0
C961 C 0.50708 0.02546 0.00578 0.0
C962 C 0.52597 0.02851 0.99095 0.0
C963 C 0.53618 0.06749 0.99108 0.0
H964 H 0.53561 0.92306 0.55914 0.0
H965 H 0.51632 0.89714 0.45292 0.0
H966 H 0.51706 0.9903 0.55891 0.0
H967 H 0.49799 0.96467 0.45254 0.0
H968 H 0.45027 0.06419 0.4822 0.0
H969 H 0.46861 0.99692 0.48221 0.0
H970 H 0.51844 0.06162 0.52854 0.0
H971 H 0.5004 0.12923 0.5277 0.0
C972 C 0.52734 0.93165 0.5358 0.0
C973 C 0.52742 0.90478 0.50605 0.0
C974 C 0.51687 0.97033 0.53556 0.0
C975 C 0.50608 0.98281 0.50569 0.0
C976 C 0.50604 0.95578 0.47604 0.0
C977 C 0.51667 0.91731 0.47615 0.0
C978 C 0.46523 0.06434 0.49196 0.0
C979 C 0.4738 0.10238 0.50492 0.0
C980 C 0.47571 0.02567 0.49206 0.0
C981 C 0.49496 0.02394 0.50543 0.0
C982 C 0.50353 0.0618 0.51851 0.0
C983 C 0.49313 0.10056 0.51811 0.0
H984 H 0.05049 0.57052 0.97904 0.0
H985 H 0.00403 0.62936 0.03935 0.0
H986 H 0.03303 0.50225 0.98018 0.0
H987 H 0.98607 0.56147 0.03951 0.0
H988 H 0.96617 0.42451 0.06 0.0
H989 H 0.98496 0.49097 0.06187 0.0
H990 H 0.00582 0.46688 0.95629 0.0
H991 H 0.98829 0.39907 0.95546 0.0
C992 C 0.03642 0.56888 0.99227 0.0
C993 C 0.02859 0.60531 0.009 0.0
C994 C 0.02633 0.52976 0.99282 0.0
C995 C 0.008 0.52613 0.00974 0.0
C996 C 1.00026 0.56267 0.02668 0.0
C997 C 0.01049 0.6017 0.0265 0.0
C998 C 0.97504 0.43295 0.0374 0.0
C999 C 0.97563 0.40614 0.00757 0.0
C1000 C 0.9856 0.47155 0.03826 0.0
C1001 C 0.99694 0.48464 0.0092 0.0
C1002 C 0.99753 0.45778 0.97942 0.0
C1003 C 0.98716 0.41902 0.97871 0.0
H1004 H 0.01759 0.39977 0.55767 0.0
H1005 H 0.03835 0.42534 0.4523 0.0
H1006 H 0.9998 0.46746 0.55746 0.0
H1007 H 0.01954 0.49186 0.45129 0.0
H1008 H 1.00096 0.6302 0.47559 0.0
H1009 H 0.01908 0.56256 0.47525 0.0
H1010 H 0.97192 0.50197 0.533 0.0
H1011 H 0.95408 0.5698 0.5339 0.0
C1012 C 0.01837 0.41976 0.53441 0.0
C1013 C 0.02953 0.40696 0.50506 0.0
C1014 C 0.0079 0.45841 0.5341 0.0
C1015 C 0.00815 0.48529 0.50433 0.0
C1016 C 0.01918 0.47235 0.47486 0.0
C1017 C 0.02976 0.43378 0.47526 0.0
C1018 C 0.99444 0.60233 0.48802 0.0
C1019 C 0.97613 0.60544 0.50491 0.0
C1020 C 0.0048 0.56346 0.48776 0.0
C1021 C 0.99702 0.52664 0.50416 0.0
C1022 C 0.97858 0.52976 0.5207 0.0
C1023 C 0.96831 0.56867 0.52117 0.0
loop_
_geom_bond_atom_site_label_1
_geom_bond_atom_site_label_2
_geom_bond_distance
_geom_bond_site_symmetry_2
_ccdc_geom_bond_type
Li0 N17 1.990 . S
Li0 O60 1.935 1_554 S
Li0 O61 1.970 . S
Li0 O62 1.961 . S
Li1 N25 1.990 . S
Li1 O60 1.969 1_554 S
Li1 O61 1.956 . S
Li1 O63 1.961 1_554 S
Li2 N47 1.990 . S
Li2 O60 1.981 . S
Li2 O62 1.956 1_556 S
Li2 O63 1.970 . S
Li3 N53 1.991 . S
Li3 O61 1.938 1_556 S
Li3 O62 1.969 1_556 S
Li3 O63 1.978 . S
C4 C6 1.349 1_556 S
C4 C7 1.355 . S
C4 O60 1.324 . S
N5 C8 1.314 . S
N5 C9 1.279 1_554 S
C6 C4 1.349 1_554 S
C6 C8 1.353 . S
C6 H64 0.929 . S
C7 C4 1.355 . S
C7 C9 1.358 . S
C7 H65 0.930 . S
C8 N5 1.314 . S
C8 C6 1.353 . S
C8 H66 0.930 . S
C9 N5 1.279 1_556 S
C9 C7 1.358 . S
C9 H67 0.930 . S
C10 C13 1.348 . S
C10 C14 1.356 . S
C10 O61 1.325 . S
C11 N12 1.279 . S
C11 C14 1.358 . S
C11 H68 0.930 . S
N12 C11 1.279 . S
N12 C15 1.314 . S
C13 C10 1.348 . S
C13 C15 1.353 . S
C13 H69 0.929 . S
C14 C10 1.356 . S
C14 C11 1.358 . S
C14 H70 0.930 . S
C15 N12 1.314 . S
C15 C13 1.353 . S
C15 H71 0.930 . S
C16 N17 1.314 . S
C16 C21 1.353 . S
C16 H22 0.930 . S
N17 Li0 1.990 . S
N17 C16 1.314 . S
N17 C19 1.279 . S
C18 C19 1.358 . S
C18 C20 1.356 . S
C18 H72 0.930 . S
C19 N17 1.279 . S
C19 C18 1.358 . S
C19 H23 0.930 . S
C20 C18 1.356 . S
C20 C21 1.348 . S
C21 C16 1.353 . S
C21 C20 1.348 . S
C21 H73 0.929 . S
H22 C16 0.930 . S
H23 C19 0.930 . S
C24 N25 1.314 1_556 S
C24 C26 1.353 . S
C24 H30 0.930 . S
N25 Li1 1.990 . S
N25 C24 1.314 1_554 S
N25 C28 1.279 . S
C26 C24 1.353 . S
C26 C29 1.345 1_556 S
C26 H74 0.929 . S
C27 C28 1.358 . S
C27 C29 1.359 . S
C27 H75 0.930 . S
C28 N25 1.279 . S
C28 C27 1.358 . S
C28 H31 0.930 . S
C29 C26 1.345 1_554 S
C29 C27 1.359 . S
H30 C24 0.930 . S
H31 C28 0.930 . S
C32 C34 1.346 1_554 S
C32 C35 1.357 . S
C32 O62 1.325 . S
N33 C36 1.314 . S
N33 C37 1.279 1_556 S
C34 C32 1.346 1_556 S
C34 C36 1.353 . S
C34 H76 0.929 . S
C35 C32 1.357 . S
C35 C37 1.358 . S
C35 H77 0.930 . S
C36 N33 1.314 . S
C36 C34 1.353 . S
C36 H78 0.930 . S
C37 N33 1.279 1_554 S
C37 C35 1.358 . S
C37 H79 0.930 . S
C38 C39 1.348 . S
C38 C40 1.356 . S
C38 O63 1.325 . S
C39 C38 1.348 . S
C39 C41 1.353 . S
C39 H80 0.929 . S
C40 C38 1.356 . S
C40 C42 1.358 . S
C40 H81 0.930 . S
C41 C39 1.353 . S
C41 N43 1.314 . S
C41 H82 0.930 . S
C42 C40 1.358 . S
C42 N43 1.279 . S
C42 H83 0.930 . S
N43 C41 1.314 . S
N43 C42 1.279 . S
C44 C46 1.353 . S
C44 N47 1.314 . S
C44 H50 0.930 . S
C45 N47 1.279 . S
C45 C48 1.358 . S
C45 H51 0.930 . S
C46 C44 1.353 . S
C46 C49 1.348 . S
C46 H84 0.929 . S
N47 Li2 1.990 . S
N47 C44 1.314 . S
N47 C45 1.279 . S
C48 C45 1.358 . S
C48 C49 1.356 . S
C48 H85 0.930 . S
C49 C46 1.348 . S
C49 C48 1.356 . S
H50 C44 0.930 . S
H51 C45 0.930 . S
C52 N53 1.314 1_554 S
C52 C54 1.353 . S
C52 H58 0.930 . S
N53 Li3 1.991 . S
N53 C52 1.314 1_556 S
N53 C56 1.279 . S
C54 C52 1.353 . S
C54 C57 1.345 . S
C54 H86 0.929 . S
C55 C56 1.358 . S
C55 C57 1.359 1_556 S
C55 H87 0.930 . S
C56 N53 1.279 . S
C56 C55 1.358 . S
C56 H59 0.930 . S
C57 C54 1.345 . S
C57 C55 1.359 1_554 S
H58 C52 0.930 . S
H59 C56 0.930 . S
O60 Li0 1.935 1_556 S
O60 Li1 1.969 1_556 S
O60 Li2 1.981 . S
O60 C4 1.324 . S
O61 Li0 1.970 . S
O61 Li1 1.956 . S
O61 Li3 1.938 1_554 S
O61 C10 1.325 . S
O62 Li0 1.961 . S
O62 Li2 1.956 1_554 S
O62 Li3 1.969 1_554 S
O62 C32 1.325 . S
O63 Li1 1.961 1_556 S
O63 Li2 1.970 . S
O63 Li3 1.978 . S
O63 C38 1.325 . S
H64 C6 0.929 . S
H65 C7 0.930 . S
H66 C8 0.930 . S
H67 C9 0.930 . S
H68 C11 0.930 . S
H69 C13 0.929 . S
H70 C14 0.930 . S
H71 C15 0.930 . S
H72 C18 0.930 . S
H73 C21 0.929 . S
H74 C26 0.929 . S
H75 C27 0.930 . S
H76 C34 0.929 . S
H77 C35 0.930 . S
H78 C36 0.930 . S
H79 C37 0.930 . S
H80 C39 0.929 . S
H81 C40 0.930 . S
H82 C41 0.930 . S
H83 C42 0.930 . S
H84 C46 0.929 . S
H85 C48 0.930 . S
H86 C54 0.929 . S
H87 C55 0.930 . S
Li88 N105 1.990 . S
Li88 O148 1.956 . S
Li88 O149 1.969 1_554 S
Li88 O150 1.961 1_554 S
Li89 N113 1.990 . S
Li89 O148 1.970 . S
Li89 O149 1.935 1_554 S
Li89 O151 1.961 . S
Li90 N135 1.991 . S
Li90 O148 1.938 1_556 S
Li90 O150 1.978 . S
Li90 O151 1.969 1_556 S
Li91 N141 1.990 . S
Li91 O149 1.981 . S
Li91 O150 1.970 . S
Li91 O151 1.956 1_556 S
C92 C94 1.348 . S
C92 C95 1.356 . S
C92 O148 1.325 . S
N93 C96 1.314 . S
N93 C97 1.279 . S
C94 C92 1.348 . S
C94 C96 1.353 . S
C94 H152 0.929 . S
C95 C92 1.356 . S
C95 C97 1.358 . S
C95 H153 0.930 . S
C96 N93 1.314 . S
C96 C94 1.353 . S
C96 H154 0.930 . S
C97 N93 1.279 . S
C97 C95 1.358 . S
C97 H155 0.930 . S
C98 C101 1.349 1_556 S
C98 C102 1.355 . S
C98 O149 1.324 . S
C99 N100 1.279 1_556 S
C99 C102 1.358 . S
C99 H156 0.930 . S
N100 C99 1.279 1_554 S
N100 C103 1.314 . S
C101 C98 1.349 1_554 S
C101 C103 1.353 . S
C101 H157 0.929 . S
C102 C98 1.355 . S
C102 C99 1.358 . S
C102 H158 0.930 . S
C103 N100 1.314 . S
C103 C101 1.353 . S
C103 H159 0.930 . S
C104 N105 1.314 1_556 S
C104 C109 1.353 . S
C104 H110 0.930 . S
N105 Li88 1.990 . S
N105 C104 1.314 1_554 S
N105 C107 1.279 . S
C106 C107 1.358 . S
C106 C108 1.359 . S
C106 H160 0.930 . S
C107 N105 1.279 . S
C107 C106 1.358 . S
C107 H111 0.930 . S
C108 C106 1.359 . S
C108 C109 1.345 1_554 S
C109 C104 1.353 . S
C109 C108 1.345 1_556 S
C109 H161 0.929 . S
H110 C104 0.930 . S
H111 C107 0.930 . S
C112 N113 1.314 . S
C112 C114 1.353 . S
C112 H118 0.930 . S
N113 Li89 1.990 . S
N113 C112 1.314 . S
N113 C116 1.279 . S
C114 C112 1.353 . S
C114 C117 1.348 . S
C114 H162 0.929 . S
C115 C116 1.358 . S
C115 C117 1.356 . S
C115 H163 0.930 . S
C116 N113 1.279 . S
C116 C115 1.358 . S
C116 H119 0.930 . S
C117 C114 1.348 . S
C117 C115 1.356 . S
H118 C112 0.930 . S
H119 C116 0.930 . S
C120 C122 1.348 . S
C120 C123 1.356 . S
C120 O150 1.325 . S
N121 C124 1.314 . S
N121 C125 1.279 . S
C122 C120 1.348 . S
C122 C124 1.353 . S
C122 H164 0.929 . S
C123 C120 1.356 . S
C123 C125 1.358 . S
C123 H165 0.930 . S
C124 N121 1.314 . S
C124 C122 1.353 . S
C124 H166 0.930 . S
C125 N121 1.279 . S
C125 C123 1.358 . S
C125 H167 0.930 . S
C126 C127 1.346 1_554 S
C126 C128 1.357 . S
C126 O151 1.325 . S
C127 C126 1.346 1_556 S
C127 C129 1.353 . S
C127 H168 0.929 . S
C128 C126 1.357 . S
C128 C130 1.358 . S
C128 H169 0.930 . S
C129 C127 1.353 . S
C129 N131 1.314 . S
C129 H170 0.930 . S
C130 C128 1.358 . S
C130 N131 1.279 1_554 S
C130 H171 0.930 . S
N131 C129 1.314 . S
N131 C130 1.279 1_556 S
C132 C134 1.353 . S
C132 N135 1.314 1_554 S
C132 H138 0.930 . S
C133 N135 1.279 . S
C133 C136 1.358 . S
C133 H139 0.930 . S
C134 C132 1.353 . S
C134 C137 1.345 . S
C134 H172 0.929 . S
N135 Li90 1.991 . S
N135 C132 1.314 1_556 S
N135 C133 1.279 . S
C136 C133 1.358 . S
C136 C137 1.359 1_556 S
C136 H173 0.930 . S
C137 C134 1.345 . S
C137 C136 1.359 1_554 S
H138 C132 0.930 . S
H139 C133 0.930 . S
C140 N141 1.314 . S
C140 C142 1.353 . S
C140 H146 0.930 . S
N141 Li91 1.990 . S
N141 C140 1.314 . S
N141 C144 1.279 . S
C142 C140 1.353 . S
C142 C145 1.348 . S
C142 H174 0.929 . S
C143 C144 1.358 . S
C143 C145 1.356 . S
C143 H175 0.930 . S
C144 N141 1.279 . S
C144 C143 1.358 . S
C144 H147 0.930 . S
C145 C142 1.348 . S
C145 C143 1.356 . S
H146 C140 0.930 . S
H147 C144 0.930 . S
O148 Li88 1.956 . S
O148 Li89 1.970 . S
O148 Li90 1.938 1_554 S
O148 C92 1.325 . S
O149 Li88 1.969 1_556 S
O149 Li89 1.935 1_556 S
O149 Li91 1.981 . S
O149 C98 1.324 . S
O150 Li88 1.961 1_556 S
O150 Li90 1.978 . S
O150 Li91 1.970 . S
O150 C120 1.325 . S
O151 Li89 1.961 . S
O151 Li90 1.969 1_554 S
O151 Li91 1.956 1_554 S
O151 C126 1.325 . S
H152 C94 0.929 . S
H153 C95 0.930 . S
H154 C96 0.930 . S
H155 C97 0.930 . S
H156 C99 0.930 . S
H157 C101 0.929 . S
H158 C102 0.930 . S
H159 C103 0.930 . S
H160 C106 0.930 . S
H161 C109 0.929 . S
H162 C114 0.929 . S
H163 C115 0.930 . S
H164 C122 0.929 . S
H165 C123 0.930 . S
H166 C124 0.930 . S
H167 C125 0.930 . S
H168 C127 0.929 . S
H169 C128 0.930 . S
H170 C129 0.930 . S
H171 C130 0.930 . S
H172 C134 0.929 . S
H173 C136 0.930 . S
H174 C142 0.929 . S
H175 C143 0.930 . S
Li176 N193 1.990 . S
Li176 O236 1.956 . S
Li176 O237 1.970 . S
Li176 O238 1.961 . S
Li177 N201 1.990 . S
Li177 O236 1.970 . S
Li177 O237 1.956 . S
Li177 O239 1.961 . S
Li178 N223 1.990 . S
Li178 O236 1.961 . S
Li178 O238 1.956 . S
Li178 O239 1.970 . S
Li179 N229 1.990 . S
Li179 O237 1.961 . S
Li179 O238 1.970 . S
Li179 O239 1.956 . S
C180 C182 1.348 . S
C180 C183 1.356 . S
C180 O236 1.325 . S
N181 C184 1.314 . S
N181 C185 1.279 . S
C182 C180 1.348 . S
C182 C184 1.353 . S
C182 H240 0.929 . S
C183 C180 1.356 . S
C183 C185 1.358 . S
C183 H241 0.930 . S
C184 N181 1.314 . S
C184 C182 1.353 . S
C184 H242 0.930 . S
C185 N181 1.279 . S
C185 C183 1.358 . S
C185 H243 0.930 . S
C186 C189 1.348 . S
C186 C190 1.356 . S
C186 O237 1.325 . S
C187 N188 1.279 . S
C187 C190 1.358 . S
C187 H244 0.930 . S
N188 C187 1.279 . S
N188 C191 1.314 . S
C189 C186 1.348 . S
C189 C191 1.353 . S
C189 H245 0.929 . S
C190 C186 1.356 . S
C190 C187 1.358 . S
C190 H246 0.930 . S
C191 N188 1.314 . S
C191 C189 1.353 . S
C191 H247 0.930 . S
C192 N193 1.314 . S
C192 C197 1.353 . S
C192 H198 0.930 . S
N193 Li176 1.990 . S
N193 C192 1.314 . S
N193 C195 1.279 . S
C194 C195 1.358 . S
C194 C196 1.356 . S
C194 H248 0.930 . S
C195 N193 1.279 . S
C195 C194 1.358 . S
C195 H199 0.930 . S
C196 C194 1.356 . S
C196 C197 1.348 . S
C197 C192 1.353 . S
C197 C196 1.348 . S
C197 H249 0.929 . S
H198 C192 0.930 . S
H199 C195 0.930 . S
C200 N201 1.314 . S
C200 C202 1.353 . S
C200 H206 0.930 . S
N201 Li177 1.990 . S
N201 C200 1.314 . S
N201 C204 1.279 . S
C202 C200 1.353 . S
C202 C205 1.348 . S
C202 H250 0.929 . S
C203 C204 1.358 . S
C203 C205 1.356 . S
C203 H251 0.930 . S
C204 N201 1.279 . S
C204 C203 1.358 . S
C204 H207 0.930 . S
C205 C202 1.348 . S
C205 C203 1.356 . S
H206 C200 0.930 . S
H207 C204 0.930 . S
C208 C210 1.348 . S
C208 C211 1.356 . S
C208 O238 1.325 . S
N209 C212 1.314 . S
N209 C213 1.279 . S
C210 C208 1.348 . S
C210 C212 1.353 . S
C210 H252 0.929 . S
C211 C208 1.356 . S
C211 C213 1.358 . S
C211 H253 0.930 . S
C212 N209 1.314 . S
C212 C210 1.353 . S
C212 H254 0.930 . S
C213 N209 1.279 . S
C213 C211 1.358 . S
C213 H255 0.930 . S
C214 C215 1.348 . S
C214 C216 1.356 . S
C214 O239 1.325 . S
C215 C214 1.348 . S
C215 C217 1.353 . S
C215 H256 0.929 . S
C216 C214 1.356 . S
C216 C218 1.358 . S
C216 H257 0.930 . S
C217 C215 1.353 . S
C217 N219 1.314 . S
C217 H258 0.930 . S
C218 C216 1.358 . S
C218 N219 1.279 . S
C218 H259 0.930 . S
N219 C217 1.314 . S
N219 C218 1.279 . S
C220 C222 1.353 . S
C220 N223 1.314 . S
C220 H226 0.930 . S
C221 N223 1.279 . S
C221 C224 1.358 . S
C221 H227 0.930 . S
C222 C220 1.353 . S
C222 C225 1.348 . S
C222 H260 0.929 . S
N223 Li178 1.990 . S
N223 C220 1.314 . S
N223 C221 1.279 . S
C224 C221 1.358 . S
C224 C225 1.356 . S
C224 H261 0.930 . S
C225 C222 1.348 . S
C225 C224 1.356 . S
H226 C220 0.930 . S
H227 C221 0.930 . S
C228 N229 1.314 . S
C228 C230 1.353 . S
C228 H234 0.930 . S
N229 Li179 1.990 . S
N229 C228 1.314 . S
N229 C232 1.279 . S
C230 C228 1.353 . S
C230 C233 1.348 . S
C230 H262 0.929 . S
C231 C232 1.358 . S
C231 C233 1.356 . S
C231 H263 0.930 . S
C232 N229 1.279 . S
C232 C231 1.358 . S
C232 H235 0.930 . S
C233 C230 1.348 . S
C233 C231 1.356 . S
H234 C228 0.930 . S
H235 C232 0.930 . S
O236 Li176 1.956 . S
O236 Li177 1.970 . S
O236 Li178 1.961 . S
O236 C180 1.325 . S
O237 Li176 1.970 . S
O237 Li177 1.956 . S
O237 Li179 1.961 . S
O237 C186 1.325 . S
O238 Li176 1.961 . S
O238 Li178 1.956 . S
O238 Li179 1.970 . S
O238 C208 1.325 . S
O239 Li177 1.961 . S
O239 Li178 1.970 . S
O239 Li179 1.956 . S
O239 C214 1.325 . S
H240 C182 0.929 . S
H241 C183 0.930 . S
H242 C184 0.930 . S
H243 C185 0.930 . S
H244 C187 0.930 . S
H245 C189 0.929 . S
H246 C190 0.930 . S
H247 C191 0.930 . S
H248 C194 0.930 . S
H249 C197 0.929 . S
H250 C202 0.929 . S
H251 C203 0.930 . S
H252 C210 0.929 . S
H253 C211 0.930 . S
H254 C212 0.930 . S
H255 C213 0.930 . S
H256 C215 0.929 . S
H257 C216 0.930 . S
H258 C217 0.930 . S
H259 C218 0.930 . S
H260 C222 0.929 . S
H261 C224 0.930 . S
H262 C230 0.929 . S
H263 C231 0.930 . S
Li264 N281 1.990 . S
Li264 O324 1.956 . S
Li264 O325 1.970 . S
Li264 O326 1.961 . S
Li265 N289 1.990 . S
Li265 O324 1.970 . S
Li265 O325 1.956 . S
Li265 O327 1.961 . S
Li266 N311 1.990 . S
Li266 O324 1.961 . S
Li266 O326 1.956 . S
Li266 O327 1.970 . S
Li267 N317 1.990 . S
Li267 O325 1.961 . S
Li267 O326 1.970 . S
Li267 O327 1.956 . S
C268 C270 1.348 . S
C268 C271 1.356 . S
C268 O324 1.325 . S
N269 C272 1.314 . S
N269 C273 1.279 . S
C270 C268 1.348 . S
C270 C272 1.353 . S
C270 H328 0.929 . S
C271 C268 1.356 . S
C271 C273 1.358 . S
C271 H329 0.930 . S
C272 N269 1.314 . S
C272 C270 1.353 . S
C272 H330 0.930 . S
C273 N269 1.279 . S
C273 C271 1.358 . S
C273 H331 0.930 . S
C274 C277 1.348 . S
C274 C278 1.356 . S
C274 O325 1.325 . S
C275 N276 1.279 . S
C275 C278 1.358 . S
C275 H332 0.930 . S
N276 C275 1.279 . S
N276 C279 1.314 . S
C277 C274 1.348 . S
C277 C279 1.353 . S
C277 H333 0.929 . S
C278 C274 1.356 . S
C278 C275 1.358 . S
C278 H334 0.930 . S
C279 N276 1.314 . S
C279 C277 1.353 . S
C279 H335 0.930 . S
C280 N281 1.314 . S
C280 C285 1.353 . S
C280 H286 0.930 . S
N281 Li264 1.990 . S
N281 C280 1.314 . S
N281 C283 1.279 . S
C282 C283 1.358 . S
C282 C284 1.356 . S
C282 H336 0.930 . S
C283 N281 1.279 . S
C283 C282 1.358 . S
C283 H287 0.930 . S
C284 C282 1.356 . S
C284 C285 1.348 . S
C285 C280 1.353 . S
C285 C284 1.348 . S
C285 H337 0.929 . S
H286 C280 0.930 . S
H287 C283 0.930 . S
C288 N289 1.314 . S
C288 C290 1.353 . S
C288 H294 0.930 . S
N289 Li265 1.990 . S
N289 C288 1.314 . S
N289 C292 1.279 . S
C290 C288 1.353 . S
C290 C293 1.348 . S
C290 H338 0.929 . S
C291 C292 1.358 . S
C291 C293 1.356 . S
C291 H339 0.930 . S
C292 N289 1.279 . S
C292 C291 1.358 . S
C292 H295 0.930 . S
C293 C290 1.348 . S
C293 C291 1.356 . S
H294 C288 0.930 . S
H295 C292 0.930 . S
C296 C298 1.348 . S
C296 C299 1.356 . S
C296 O326 1.325 . S
N297 C300 1.314 . S
N297 C301 1.279 . S
C298 C296 1.348 . S
C298 C300 1.353 . S
C298 H340 0.929 . S
C299 C296 1.356 . S
C299 C301 1.358 . S
C299 H341 0.930 . S
C300 N297 1.314 . S
C300 C298 1.353 . S
C300 H342 0.930 . S
C301 N297 1.279 . S
C301 C299 1.358 . S
C301 H343 0.930 . S
C302 C303 1.348 . S
C302 C304 1.356 . S
C302 O327 1.325 . S
C303 C302 1.348 . S
C303 C305 1.353 . S
C303 H344 0.929 . S
C304 C302 1.356 . S
C304 C306 1.358 . S
C304 H345 0.930 . S
C305 C303 1.353 . S
C305 N307 1.314 . S
C305 H346 0.930 . S
C306 C304 1.358 . S
C306 N307 1.279 . S
C306 H347 0.930 . S
N307 C305 1.314 . S
N307 C306 1.279 . S
C308 C310 1.353 . S
C308 N311 1.314 . S
C308 H314 0.930 . S
C309 N311 1.279 . S
C309 C312 1.358 . S
C309 H315 0.930 . S
C310 C308 1.353 . S
C310 C313 1.348 . S
C310 H348 0.929 . S
N311 Li266 1.990 . S
N311 C308 1.314 . S
N311 C309 1.279 . S
C312 C309 1.358 . S
C312 C313 1.356 . S
C312 H349 0.930 . S
C313 C310 1.348 . S
C313 C312 1.356 . S
H314 C308 0.930 . S
H315 C309 0.930 . S
C316 N317 1.314 . S
C316 C318 1.353 . S
C316 H322 0.930 . S
N317 Li267 1.990 . S
N317 C316 1.314 . S
N317 C320 1.279 . S
C318 C316 1.353 . S
C318 C321 1.348 . S
C318 H350 0.929 . S
C319 C320 1.358 . S
C319 C321 1.356 . S
C319 H351 0.930 . S
C320 N317 1.279 . S
C320 C319 1.358 . S
C320 H323 0.930 . S
C321 C318 1.348 . S
C321 C319 1.356 . S
H322 C316 0.930 . S
H323 C320 0.930 . S
O324 Li264 1.956 . S
O324 Li265 1.970 . S
O324 Li266 1.961 . S
O324 C268 1.325 . S
O325 Li264 1.970 . S
O325 Li265 1.956 . S
O325 Li267 1.961 . S
O325 C274 1.325 . S
O326 Li264 1.961 . S
O326 Li266 1.956 . S
O326 Li267 1.970 . S
O326 C296 1.325 . S
O327 Li265 1.961 . S
O327 Li266 1.970 . S
O327 Li267 1.956 . S
O327 C302 1.325 . S
H328 C270 0.929 . S
H329 C271 0.930 . S
H330 C272 0.930 . S
H331 C273 0.930 . S
H332 C275 0.930 . S
H333 C277 0.929 . S
H334 C278 0.930 . S
H335 C279 0.930 . S
H336 C282 0.930 . S
H337 C285 0.929 . S
H338 C290 0.929 . S
H339 C291 0.930 . S
H340 C298 0.929 . S
H341 C299 0.930 . S
H342 C300 0.930 . S
H343 C301 0.930 . S
H344 C303 0.929 . S
H345 C304 0.930 . S
H346 C305 0.930 . S
H347 C306 0.930 . S
H348 C310 0.929 . S
H349 C312 0.930 . S
H350 C318 0.929 . S
H351 C319 0.930 . S
Li352 N369 1.990 . S
Li352 O412 1.935 1_554 S
Li352 O413 1.970 . S
Li352 O414 1.961 . S
Li353 N377 1.990 . S
Li353 O412 1.969 1_554 S
Li353 O413 1.956 . S
Li353 O415 1.961 1_554 S
Li354 N399 1.990 . S
Li354 O412 1.981 . S
Li354 O414 1.956 1_556 S
Li354 O415 1.970 . S
Li355 N405 1.991 . S
Li355 O413 1.938 1_556 S
Li355 O414 1.969 1_556 S
Li355 O415 1.978 . S
C356 C358 1.349 1_556 S
C356 C359 1.355 . S
C356 O412 1.324 . S
N357 C360 1.314 . S
N357 C361 1.279 1_554 S
C358 C356 1.349 1_554 S
C358 C360 1.353 . S
C358 H416 0.929 . S
C359 C356 1.355 . S
C359 C361 1.358 . S
C359 H417 0.930 . S
C360 N357 1.314 . S
C360 C358 1.353 . S
C360 H418 0.930 . S
C361 N357 1.279 1_556 S
C361 C359 1.358 . S
C361 H419 0.930 . S
C362 C365 1.348 . S
C362 C366 1.356 . S
C362 O413 1.325 . S
C363 N364 1.279 . S
C363 C366 1.358 . S
C363 H420 0.930 . S
N364 C363 1.279 . S
N364 C367 1.314 . S
C365 C362 1.348 . S
C365 C367 1.353 . S
C365 H421 0.929 . S
C366 C362 1.356 . S
C366 C363 1.358 . S
C366 H422 0.930 . S
C367 N364 1.314 . S
C367 C365 1.353 . S
C367 H423 0.930 . S
C368 N369 1.314 . S
C368 C373 1.353 . S
C368 H374 0.930 . S
N369 Li352 1.990 . S
N369 C368 1.314 . S
N369 C371 1.279 . S
C370 C371 1.358 . S
C370 C372 1.356 . S
C370 H424 0.930 . S
C371 N369 1.279 . S
C371 C370 1.358 . S
C371 H375 0.930 . S
C372 C370 1.356 . S
C372 C373 1.348 . S
C373 C368 1.353 . S
C373 C372 1.348 . S
C373 H425 0.929 . S
H374 C368 0.930 . S
H375 C371 0.930 . S
C376 N377 1.314 1_556 S
C376 C378 1.353 . S
C376 H382 0.930 . S
N377 Li353 1.990 . S
N377 C376 1.314 1_554 S
N377 C380 1.279 . S
C378 C376 1.353 . S
C378 C381 1.345 1_556 S
C378 H426 0.929 . S
C379 C380 1.358 . S
C379 C381 1.359 . S
C379 H427 0.930 . S
C380 N377 1.279 . S
C380 C379 1.358 . S
C380 H383 0.930 . S
C381 C378 1.345 1_554 S
C381 C379 1.359 . S
H382 C376 0.930 . S
H383 C380 0.930 . S
C384 C386 1.346 1_554 S
C384 C387 1.357 . S
C384 O414 1.325 . S
N385 C388 1.314 . S
N385 C389 1.279 1_556 S
C386 C384 1.346 1_556 S
C386 C388 1.353 . S
C386 H428 0.929 . S
C387 C384 1.357 . S
C387 C389 1.358 . S
C387 H429 0.930 . S
C388 N385 1.314 . S
C388 C386 1.353 . S
C388 H430 0.930 1_455 S
C389 N385 1.279 1_554 S
C389 C387 1.358 . S
C389 H431 0.930 . S
C390 C391 1.348 . S
C390 C392 1.356 . S
C390 O415 1.325 . S
C391 C390 1.348 . S
C391 C393 1.353 . S
C391 H432 0.929 . S
C392 C390 1.356 . S
C392 C394 1.358 . S
C392 H433 0.930 . S
C393 C391 1.353 . S
C393 N395 1.314 . S
C393 H434 0.930 . S
C394 C392 1.358 . S
C394 N395 1.279 . S
C394 H435 0.930 . S
N395 C393 1.314 . S
N395 C394 1.279 . S
C396 C398 1.353 . S
C396 N399 1.314 . S
C396 H402 0.930 . S
C397 N399 1.279 . S
C397 C400 1.358 . S
C397 H403 0.930 . S
C398 C396 1.353 . S
C398 C401 1.348 . S
C398 H436 0.929 . S
N399 Li354 1.990 . S
N399 C396 1.314 . S
N399 C397 1.279 . S
C400 C397 1.358 . S
C400 C401 1.356 . S
C400 H437 0.930 . S
C401 C398 1.348 . S
C401 C400 1.356 . S
H402 C396 0.930 . S
H403 C397 0.930 . S
C404 N405 1.314 1_554 S
C404 C406 1.353 . S
C404 H410 0.930 . S
N405 Li355 1.991 . S
N405 C404 1.314 1_556 S
N405 C408 1.279 . S
C406 C404 1.353 . S
C406 C409 1.345 . S
C406 H438 0.929 . S
C407 C408 1.358 . S
C407 C409 1.359 1_556 S
C407 H439 0.930 . S
C408 N405 1.279 . S
C408 C407 1.358 . S
C408 H411 0.930 . S
C409 C406 1.345 . S
C409 C407 1.359 1_554 S
H410 C404 0.930 . S
H411 C408 0.930 . S
O412 Li352 1.935 1_556 S
O412 Li353 1.969 1_556 S
O412 Li354 1.981 . S
O412 C356 1.324 . S
O413 Li352 1.970 . S
O413 Li353 1.956 . S
O413 Li355 1.938 1_554 S
O413 C362 1.325 . S
O414 Li352 1.961 . S
O414 Li354 1.956 1_554 S
O414 Li355 1.969 1_554 S
O414 C384 1.325 . S
O415 Li353 1.961 1_556 S
O415 Li354 1.970 . S
O415 Li355 1.978 . S
O415 C390 1.325 . S
H416 C358 0.929 . S
H417 C359 0.930 . S
H418 C360 0.930 . S
H419 C361 0.930 . S
H420 C363 0.930 . S
H421 C365 0.929 . S
H422 C366 0.930 . S
H423 C367 0.930 . S
H424 C370 0.930 . S
H425 C373 0.929 . S
H426 C378 0.929 . S
H427 C379 0.930 . S
H428 C386 0.929 . S
H429 C387 0.930 . S
H430 C388 0.930 1_655 S
H431 C389 0.930 . S
H432 C391 0.929 . S
H433 C392 0.930 . S
H434 C393 0.930 . S
H435 C394 0.930 . S
H436 C398 0.929 . S
H437 C400 0.930 . S
H438 C406 0.929 . S
H439 C407 0.930 . S
Li440 N457 1.990 . S
Li440 O500 1.956 . S
Li440 O501 1.969 1_554 S
Li440 O502 1.961 1_554 S
Li441 N465 1.990 . S
Li441 O500 1.970 . S
Li441 O501 1.935 1_554 S
Li441 O503 1.961 . S
Li442 N487 1.991 . S
Li442 O500 1.938 1_556 S
Li442 O502 1.978 . S
Li442 O503 1.969 1_556 S
Li443 N493 1.990 . S
Li443 O501 1.981 . S
Li443 O502 1.970 . S
Li443 O503 1.956 1_556 S
C444 C446 1.348 . S
C444 C447 1.356 . S
C444 O500 1.325 . S
N445 C448 1.314 . S
N445 C449 1.279 . S
C446 C444 1.348 . S
C446 C448 1.353 . S
C446 H504 0.929 . S
C447 C444 1.356 . S
C447 C449 1.358 . S
C447 H505 0.930 . S
C448 N445 1.314 . S
C448 C446 1.353 . S
C448 H506 0.930 . S
C449 N445 1.279 . S
C449 C447 1.358 . S
C449 H507 0.930 . S
C450 C453 1.349 1_556 S
C450 C454 1.355 . S
C450 O501 1.324 . S
C451 N452 1.279 1_556 S
C451 C454 1.358 . S
C451 H508 0.930 . S
N452 C451 1.279 1_554 S
N452 C455 1.314 . S
C453 C450 1.349 1_554 S
C453 C455 1.353 . S
C453 H509 0.929 . S
C454 C450 1.355 . S
C454 C451 1.358 . S
C454 H510 0.930 . S
C455 N452 1.314 . S
C455 C453 1.353 . S
C455 H511 0.930 . S
C456 N457 1.314 1_556 S
C456 C461 1.353 . S
C456 H462 0.930 . S
N457 Li440 1.990 . S
N457 C456 1.314 1_554 S
N457 C459 1.279 . S
C458 C459 1.358 . S
C458 C460 1.359 . S
C458 H512 0.930 . S
C459 N457 1.279 . S
C459 C458 1.358 . S
C459 H463 0.930 . S
C460 C458 1.359 . S
C460 C461 1.345 1_554 S
C461 C456 1.353 . S
C461 C460 1.345 1_556 S
C461 H513 0.929 . S
H462 C456 0.930 . S
H463 C459 0.930 . S
C464 N465 1.314 . S
C464 C466 1.353 . S
C464 H470 0.930 . S
N465 Li441 1.990 . S
N465 C464 1.314 . S
N465 C468 1.279 . S
C466 C464 1.353 . S
C466 C469 1.348 . S
C466 H514 0.929 . S
C467 C468 1.358 . S
C467 C469 1.356 . S
C467 H515 0.930 . S
C468 N465 1.279 . S
C468 C467 1.358 . S
C468 H471 0.930 . S
C469 C466 1.348 . S
C469 C467 1.356 . S
H470 C464 0.930 . S
H471 C468 0.930 . S
C472 C474 1.348 . S
C472 C475 1.356 . S
C472 O502 1.325 . S
N473 C476 1.314 . S
N473 C477 1.279 . S
C474 C472 1.348 . S
C474 C476 1.353 . S
C474 H516 0.929 . S
C475 C472 1.356 . S
C475 C477 1.358 . S
C475 H517 0.930 . S
C476 N473 1.314 . S
C476 C474 1.353 . S
C476 H518 0.930 . S
C477 N473 1.279 . S
C477 C475 1.358 . S
C477 H519 0.930 . S
C478 C479 1.346 1_554 S
C478 C480 1.357 . S
C478 O503 1.325 . S
C479 C478 1.346 1_556 S
C479 C481 1.353 . S
C479 H520 0.929 . S
C480 C478 1.357 . S
C480 C482 1.358 . S
C480 H521 0.930 . S
C481 C479 1.353 . S
C481 N483 1.314 . S
C481 H522 0.930 1_655 S
C482 C480 1.358 . S
C482 N483 1.279 1_554 S
C482 H523 0.930 . S
N483 C481 1.314 . S
N483 C482 1.279 1_556 S
C484 C486 1.353 . S
C484 N487 1.314 1_554 S
C484 H490 0.930 . S
C485 N487 1.279 . S
C485 C488 1.358 . S
C485 H491 0.930 . S
C486 C484 1.353 . S
C486 C489 1.345 . S
C486 H524 0.929 . S
N487 Li442 1.991 . S
N487 C484 1.314 1_556 S
N487 C485 1.279 . S
C488 C485 1.358 . S
C488 C489 1.359 1_556 S
C488 H525 0.930 . S
C489 C486 1.345 . S
C489 C488 1.359 1_554 S
H490 C484 0.930 . S
H491 C485 0.930 . S
C492 N493 1.314 . S
C492 C494 1.353 . S
C492 H498 0.930 . S
N493 Li443 1.990 . S
N493 C492 1.314 . S
N493 C496 1.279 . S
C494 C492 1.353 . S
C494 C497 1.348 . S
C494 H526 0.929 . S
C495 C496 1.358 . S
C495 C497 1.356 . S
C495 H527 0.930 . S
C496 N493 1.279 . S
C496 C495 1.358 . S
C496 H499 0.930 . S
C497 C494 1.348 . S
C497 C495 1.356 . S
H498 C492 0.930 . S
H499 C496 0.930 . S
O500 Li440 1.956 . S
O500 Li441 1.970 . S
O500 Li442 1.938 1_554 S
O500 C444 1.325 . S
O501 Li440 1.969 1_556 S
O501 Li441 1.935 1_556 S
O501 Li443 1.981 . S
O501 C450 1.324 . S
O502 Li440 1.961 1_556 S
O502 Li442 1.978 . S
O502 Li443 1.970 . S
O502 C472 1.325 . S
O503 Li441 1.961 . S
O503 Li442 1.969 1_554 S
O503 Li443 1.956 1_554 S
O503 C478 1.325 . S
H504 C446 0.929 . S
H505 C447 0.930 . S
H506 C448 0.930 . S
H507 C449 0.930 . S
H508 C451 0.930 . S
H509 C453 0.929 . S
H510 C454 0.930 . S
H511 C455 0.930 . S
H512 C458 0.930 . S
H513 C461 0.929 . S
H514 C466 0.929 . S
H515 C467 0.930 . S
H516 C474 0.929 . S
H517 C475 0.930 . S
H518 C476 0.930 . S
H519 C477 0.930 . S
H520 C479 0.929 . S
H521 C480 0.930 . S
H522 C481 0.930 1_455 S
H523 C482 0.930 . S
H524 C486 0.929 . S
H525 C488 0.930 . S
H526 C494 0.929 . S
H527 C495 0.930 . S
Li528 N545 1.990 . S
Li528 O588 1.956 . S
Li528 O589 1.970 . S
Li528 O590 1.961 . S
Li529 N553 1.990 . S
Li529 O588 1.970 . S
Li529 O589 1.956 . S
Li529 O591 1.961 . S
Li530 N575 1.990 . S
Li530 O588 1.961 . S
Li530 O590 1.956 . S
Li530 O591 1.970 . S
Li531 N581 1.990 . S
Li531 O589 1.961 . S
Li531 O590 1.970 . S
Li531 O591 1.956 . S
C532 C534 1.348 . S
C532 C535 1.356 . S
C532 O588 1.325 . S
N533 C536 1.314 . S
N533 C537 1.279 . S
C534 C532 1.348 . S
C534 C536 1.353 . S
C534 H592 0.929 . S
C535 C532 1.356 . S
C535 C537 1.358 . S
C535 H593 0.930 . S
C536 N533 1.314 . S
C536 C534 1.353 . S
C536 H594 0.930 . S
C537 N533 1.279 . S
C537 C535 1.358 . S
C537 H595 0.930 . S
C538 C541 1.348 . S
C538 C542 1.356 . S
C538 O589 1.325 . S
C539 N540 1.279 . S
C539 C542 1.358 . S
C539 H596 0.930 . S
N540 C539 1.279 . S
N540 C543 1.314 . S
C541 C538 1.348 . S
C541 C543 1.353 . S
C541 H597 0.929 . S
C542 C538 1.356 . S
C542 C539 1.358 . S
C542 H598 0.930 . S
C543 N540 1.314 . S
C543 C541 1.353 . S
C543 H599 0.930 1_455 S
C544 N545 1.314 . S
C544 C549 1.353 . S
C544 H550 0.930 . S
N545 Li528 1.990 . S
N545 C544 1.314 . S
N545 C547 1.279 . S
C546 C547 1.358 . S
C546 C548 1.356 . S
C546 H600 0.930 . S
C547 N545 1.279 . S
C547 C546 1.358 . S
C547 H551 0.930 . S
C548 C546 1.356 . S
C548 C549 1.348 . S
C549 C544 1.353 . S
C549 C548 1.348 . S
C549 H601 0.929 . S
H550 C544 0.930 . S
H551 C547 0.930 . S
C552 N553 1.314 . S
C552 C554 1.353 . S
C552 H558 0.930 . S
N553 Li529 1.990 . S
N553 C552 1.314 . S
N553 C556 1.279 . S
C554 C552 1.353 . S
C554 C557 1.348 . S
C554 H602 0.929 . S
C555 C556 1.358 . S
C555 C557 1.356 . S
C555 H603 0.930 . S
C556 N553 1.279 . S
C556 C555 1.358 . S
C556 H559 0.930 . S
C557 C554 1.348 . S
C557 C555 1.356 . S
H558 C552 0.930 . S
H559 C556 0.930 . S
C560 C562 1.348 . S
C560 C563 1.356 . S
C560 O590 1.325 . S
N561 C564 1.314 . S
N561 C565 1.279 . S
C562 C560 1.348 . S
C562 C564 1.353 . S
C562 H604 0.929 . S
C563 C560 1.356 . S
C563 C565 1.358 . S
C563 H605 0.930 . S
C564 N561 1.314 . S
C564 C562 1.353 . S
C564 H606 0.930 . S
C565 N561 1.279 . S
C565 C563 1.358 . S
C565 H607 0.930 . S
C566 C567 1.348 . S
C566 C568 1.356 . S
C566 O591 1.325 . S
C567 C566 1.348 . S
C567 C569 1.353 . S
C567 H608 0.929 . S
C568 C566 1.356 . S
C568 C570 1.358 . S
C568 H609 0.930 . S
C569 C567 1.353 . S
C569 N571 1.314 . S
C569 H610 0.930 . S
C570 C568 1.358 . S
C570 N571 1.279 . S
C570 H611 0.930 . S
N571 C569 1.314 . S
N571 C570 1.279 . S
C572 C574 1.353 . S
C572 N575 1.314 . S
C572 H578 0.930 . S
C573 N575 1.279 . S
C573 C576 1.358 . S
C573 H579 0.930 . S
C574 C572 1.353 . S
C574 C577 1.348 . S
C574 H612 0.929 . S
N575 Li530 1.990 . S
N575 C572 1.314 . S
N575 C573 1.279 . S
C576 C573 1.358 . S
C576 C577 1.356 . S
C576 H613 0.930 . S
C577 C574 1.348 . S
C577 C576 1.356 . S
H578 C572 0.930 . S
H579 C573 0.930 . S
C580 N581 1.314 . S
C580 C582 1.353 . S
C580 H586 0.930 . S
N581 Li531 1.990 . S
N581 C580 1.314 . S
N581 C584 1.279 . S
C582 C580 1.353 . S
C582 C585 1.348 . S
C582 H614 0.929 . S
C583 C584 1.358 . S
C583 C585 1.356 . S
C583 H615 0.930 . S
C584 N581 1.279 . S
C584 C583 1.358 . S
C584 H587 0.930 . S
C585 C582 1.348 . S
C585 C583 1.356 . S
H586 C580 0.930 . S
H587 C584 0.930 . S
O588 Li528 1.956 . S
O588 Li529 1.970 . S
O588 Li530 1.961 . S
O588 C532 1.325 . S
O589 Li528 1.970 . S
O589 Li529 1.956 . S
O589 Li531 1.961 . S
O589 C538 1.325 . S
O590 Li528 1.961 . S
O590 Li530 1.956 . S
O590 Li531 1.970 . S
O590 C560 1.325 . S
O591 Li529 1.961 . S
O591 Li530 1.970 . S
O591 Li531 1.956 . S
O591 C566 1.325 . S
H592 C534 0.929 . S
H593 C535 0.930 . S
H594 C536 0.930 . S
H595 C537 0.930 . S
H596 C539 0.930 . S
H597 C541 0.929 . S
H598 C542 0.930 . S
H599 C543 0.930 1_655 S
H600 C546 0.930 . S
H601 C549 0.929 . S
H602 C554 0.929 . S
H603 C555 0.930 . S
H604 C562 0.929 . S
H605 C563 0.930 . S
H606 C564 0.930 . S
H607 C565 0.930 . S
H608 C567 0.929 . S
H609 C568 0.930 . S
H610 C569 0.930 . S
H611 C570 0.930 . S
H612 C574 0.929 . S
H613 C576 0.930 . S
H614 C582 0.929 . S
H615 C583 0.930 . S
Li616 N633 1.990 . S
Li616 O676 1.956 . S
Li616 O677 1.970 . S
Li616 O678 1.961 . S
Li617 N641 1.990 . S
Li617 O676 1.970 . S
Li617 O677 1.956 . S
Li617 O679 1.961 . S
Li618 N663 1.990 . S
Li618 O676 1.961 . S
Li618 O678 1.956 . S
Li618 O679 1.970 . S
Li619 N669 1.990 . S
Li619 O677 1.961 . S
Li619 O678 1.970 . S
Li619 O679 1.956 . S
C620 C622 1.348 . S
C620 C623 1.356 . S
C620 O676 1.325 . S
N621 C624 1.314 . S
N621 C625 1.279 . S
C622 C620 1.348 . S
C622 C624 1.353 . S
C622 H680 0.929 . S
C623 C620 1.356 . S
C623 C625 1.358 . S
C623 H681 0.930 . S
C624 N621 1.314 . S
C624 C622 1.353 . S
C624 H682 0.930 1_655 S
C625 N621 1.279 . S
C625 C623 1.358 . S
C625 H683 0.930 . S
C626 C629 1.348 . S
C626 C630 1.356 . S
C626 O677 1.325 . S
C627 N628 1.279 . S
C627 C630 1.358 . S
C627 H684 0.930 . S
N628 C627 1.279 . S
N628 C631 1.314 . S
C629 C626 1.348 . S
C629 C631 1.353 . S
C629 H685 0.929 . S
C630 C626 1.356 . S
C630 C627 1.358 . S
C630 H686 0.930 . S
C631 N628 1.314 . S
C631 C629 1.353 . S
C631 H687 0.930 . S
C632 N633 1.314 . S
C632 C637 1.353 . S
C632 H638 0.930 . S
N633 Li616 1.990 . S
N633 C632 1.314 . S
N633 C635 1.279 . S
C634 C635 1.358 . S
C634 C636 1.356 . S
C634 H688 0.930 . S
C635 N633 1.279 . S
C635 C634 1.358 . S
C635 H639 0.930 . S
C636 C634 1.356 . S
C636 C637 1.348 . S
C637 C632 1.353 . S
C637 C636 1.348 . S
C637 H689 0.929 . S
H638 C632 0.930 . S
H639 C635 0.930 . S
C640 N641 1.314 . S
C640 C642 1.353 . S
C640 H646 0.930 . S
N641 Li617 1.990 . S
N641 C640 1.314 . S
N641 C644 1.279 . S
C642 C640 1.353 . S
C642 C645 1.348 . S
C642 H690 0.929 . S
C643 C644 1.358 . S
C643 C645 1.356 . S
C643 H691 0.930 . S
C644 N641 1.279 . S
C644 C643 1.358 . S
C644 H647 0.930 . S
C645 C642 1.348 . S
C645 C643 1.356 . S
H646 C640 0.930 . S
H647 C644 0.930 . S
C648 C650 1.348 . S
C648 C651 1.356 . S
C648 O678 1.325 . S
N649 C652 1.314 . S
N649 C653 1.279 . S
C650 C648 1.348 . S
C650 C652 1.353 . S
C650 H692 0.929 . S
C651 C648 1.356 . S
C651 C653 1.358 . S
C651 H693 0.930 . S
C652 N649 1.314 . S
C652 C650 1.353 . S
C652 H694 0.930 . S
C653 N649 1.279 . S
C653 C651 1.358 . S
C653 H695 0.930 . S
C654 C655 1.348 . S
C654 C656 1.356 . S
C654 O679 1.325 . S
C655 C654 1.348 . S
C655 C657 1.353 . S
C655 H696 0.929 . S
C656 C654 1.356 . S
C656 C658 1.358 . S
C656 H697 0.930 . S
C657 C655 1.353 . S
C657 N659 1.314 . S
C657 H698 0.930 . S
C658 C656 1.358 . S
C658 N659 1.279 . S
C658 H699 0.930 . S
N659 C657 1.314 . S
N659 C658 1.279 . S
C660 C662 1.353 . S
C660 N663 1.314 . S
C660 H666 0.930 . S
C661 N663 1.279 . S
C661 C664 1.358 . S
C661 H667 0.930 . S
C662 C660 1.353 . S
C662 C665 1.348 . S
C662 H700 0.929 . S
N663 Li618 1.990 . S
N663 C660 1.314 . S
N663 C661 1.279 . S
C664 C661 1.358 . S
C664 C665 1.356 . S
C664 H701 0.930 . S
C665 C662 1.348 . S
C665 C664 1.356 . S
H666 C660 0.930 . S
H667 C661 0.930 . S
C668 N669 1.314 . S
C668 C670 1.353 . S
C668 H674 0.930 . S
N669 Li619 1.990 . S
N669 C668 1.314 . S
N669 C672 1.279 . S
C670 C668 1.353 . S
C670 C673 1.348 . S
C670 H702 0.929 . S
C671 C672 1.358 . S
C671 C673 1.356 . S
C671 H703 0.930 . S
C672 N669 1.279 . S
C672 C671 1.358 . S
C672 H675 0.930 . S
C673 C670 1.348 . S
C673 C671 1.356 . S
H674 C668 0.930 . S
H675 C672 0.930 . S
O676 Li616 1.956 . S
O676 Li617 1.970 . S
O676 Li618 1.961 . S
O676 C620 1.325 . S
O677 Li616 1.970 . S
O677 Li617 1.956 . S
O677 Li619 1.961 . S
O677 C626 1.325 . S
O678 Li616 1.961 . S
O678 Li618 1.956 . S
O678 Li619 1.970 . S
O678 C648 1.325 . S
O679 Li617 1.961 . S
O679 Li618 1.970 . S
O679 Li619 1.956 . S
O679 C654 1.325 . S
H680 C622 0.929 . S
H681 C623 0.930 . S
H682 C624 0.930 1_455 S
H683 C625 0.930 . S
H684 C627 0.930 . S
H685 C629 0.929 . S
H686 C630 0.930 . S
H687 C631 0.930 . S
H688 C634 0.930 . S
H689 C637 0.929 . S
H690 C642 0.929 . S
H691 C643 0.930 . S
H692 C650 0.929 . S
H693 C651 0.930 . S
H694 C652 0.930 . S
H695 C653 0.930 . S
H696 C655 0.929 . S
H697 C656 0.930 . S
H698 C657 0.930 . S
H699 C658 0.930 . S
H700 C662 0.929 . S
H701 C664 0.930 . S
H702 C670 0.929 . S
H703 C671 0.930 . S
H704 C712 0.950 . S
H705 C717 0.950 . S
H706 C714 0.950 . S
H707 C716 0.950 . S
H708 C718 0.950 . S
H709 C720 0.950 . S
H710 C722 0.950 . S
H711 C723 0.950 . S
C712 H704 0.950 . S
C712 C713 1.386 . S
C712 C714 1.391 . S
C713 C712 1.386 . S
C713 C717 1.393 1_556 S
C714 H706 0.950 . S
C714 C712 1.391 . S
C714 C715 1.409 . S
C715 C714 1.409 . S
C715 C716 1.391 1_556 S
C715 C721 1.490 1_556 S
C716 H707 0.950 . S
C716 C715 1.391 1_554 S
C716 C717 1.391 . S
C717 H705 0.950 . S
C717 C713 1.393 1_554 S
C717 C716 1.391 . S
C718 H708 0.950 . S
C718 C719 1.399 . S
C718 C720 1.391 . S
C719 C718 1.399 . S
C719 C723 1.381 1_554 S
C720 H709 0.950 . S
C720 C718 1.391 . S
C720 C721 1.406 . S
C721 C715 1.490 1_554 S
C721 C720 1.406 . S
C721 C722 1.393 1_554 S
C722 H710 0.950 . S
C722 C721 1.393 1_556 S
C722 C723 1.391 . S
C723 H711 0.950 . S
C723 C719 1.381 1_556 S
C723 C722 1.391 . S
H724 C732 0.950 . S
H725 C737 0.950 . S
H726 C734 0.950 . S
H727 C736 0.950 . S
H728 C738 0.950 . S
H729 C740 0.950 . S
H730 C742 0.950 . S
H731 C743 0.950 . S
C732 H724 0.950 . S
C732 C733 1.367 1_556 S
C732 C734 1.391 . S
C733 C732 1.367 1_554 S
C733 C737 1.412 . S
C734 H726 0.950 . S
C734 C732 1.391 . S
C734 C735 1.393 1_556 S
C735 C734 1.393 1_554 S
C735 C736 1.406 . S
C735 C741 1.490 1_554 S
C736 H727 0.950 . S
C736 C735 1.406 . S
C736 C737 1.391 . S
C737 H725 0.950 . S
C737 C733 1.412 . S
C737 C736 1.391 . S
C738 H728 0.950 . S
C738 C739 1.386 1_554 S
C738 C740 1.391 . S
C739 C738 1.386 1_556 S
C739 C743 1.393 . S
C740 H729 0.950 . S
C740 C738 1.391 . S
C740 C741 1.389 1_554 S
C741 C735 1.490 1_556 S
C741 C740 1.389 1_556 S
C741 C742 1.411 . S
C742 H730 0.950 . S
C742 C741 1.411 . S
C742 C743 1.391 . S
C743 H731 0.950 . S
C743 C739 1.393 . S
C743 C742 1.391 . S
H744 C752 0.950 . S
H745 C757 0.950 . S
H746 C754 0.950 . S
H747 C756 0.950 . S
H748 C758 0.950 . S
H749 C760 0.950 . S
H750 C762 0.950 . S
H751 C763 0.950 . S
C752 H744 0.950 . S
C752 C753 1.386 . S
C752 C754 1.391 . S
C753 C752 1.386 . S
C753 C757 1.393 . S
C754 H746 0.950 . S
C754 C752 1.391 . S
C754 C755 1.400 . S
C755 C754 1.400 . S
C755 C756 1.398 . S
C755 C761 1.491 . S
C756 H747 0.950 . S
C756 C755 1.398 . S
C756 C757 1.391 . S
C757 H745 0.950 . S
C757 C753 1.393 . S
C757 C756 1.391 . S
C758 H748 0.950 . S
C758 C759 1.386 . S
C758 C760 1.391 . S
C759 C758 1.386 . S
C759 C763 1.393 . S
C760 H749 0.950 . S
C760 C758 1.391 . S
C760 C761 1.400 . S
C761 C755 1.491 . S
C761 C760 1.400 . S
C761 C762 1.398 . S
C762 H750 0.950 . S
C762 C761 1.398 . S
C762 C763 1.391 . S
C763 H751 0.950 . S
C763 C759 1.393 . S
C763 C762 1.391 . S
H764 C772 0.950 . S
H765 C777 0.950 . S
H766 C774 0.950 . S
H767 C776 0.950 . S
H768 C778 0.950 . S
H769 C780 0.950 . S
H770 C782 0.950 . S
H771 C783 0.950 . S
C772 H764 0.950 . S
C772 C773 1.386 . S
C772 C774 1.391 . S
C773 C772 1.386 . S
C773 C777 1.393 . S
C774 H766 0.950 . S
C774 C772 1.391 . S
C774 C775 1.400 . S
C775 C774 1.400 . S
C775 C776 1.398 . S
C775 C781 1.491 . S
C776 H767 0.950 . S
C776 C775 1.398 . S
C776 C777 1.391 . S
C777 H765 0.950 . S
C777 C773 1.393 . S
C777 C776 1.391 . S
C778 H768 0.950 . S
C778 C779 1.386 . S
C778 C780 1.391 . S
C779 C778 1.386 . S
C779 C783 1.393 . S
C780 H769 0.950 . S
C780 C778 1.391 . S
C780 C781 1.400 . S
C781 C775 1.491 . S
C781 C780 1.400 . S
C781 C782 1.398 . S
C782 H770 0.950 . S
C782 C781 1.398 . S
C782 C783 1.391 . S
C783 H771 0.950 . S
C783 C779 1.393 . S
C783 C782 1.391 . S
H784 C792 0.950 . S
H785 C797 0.950 . S
H786 C794 0.950 . S
H787 C796 0.950 . S
H788 C798 0.950 . S
H789 C800 0.950 . S
H790 C802 0.950 . S
H791 C803 0.950 . S
C792 H784 0.950 . S
C792 C793 1.386 . S
C792 C794 1.391 . S
C793 C792 1.386 . S
C793 C797 1.393 . S
C794 H786 0.950 . S
C794 C792 1.391 . S
C794 C795 1.400 . S
C795 C794 1.400 . S
C795 C796 1.398 . S
C795 C801 1.491 . S
C796 H787 0.950 . S
C796 C795 1.398 . S
C796 C797 1.391 . S
C797 H785 0.950 . S
C797 C793 1.393 . S
C797 C796 1.391 . S
C798 H788 0.950 . S
C798 C799 1.386 . S
C798 C800 1.391 . S
C799 C798 1.386 . S
C799 C803 1.393 . S
C800 H789 0.950 . S
C800 C798 1.391 . S
C800 C801 1.400 . S
C801 C795 1.491 . S
C801 C800 1.400 . S
C801 C802 1.398 . S
C802 H790 0.950 . S
C802 C801 1.398 . S
C802 C803 1.391 . S
C803 H791 0.950 . S
C803 C799 1.393 . S
C803 C802 1.391 . S
H804 C812 0.950 . S
H805 C817 0.950 . S
H806 C814 0.950 . S
H807 C816 0.950 . S
H808 C818 0.950 . S
H809 C820 0.950 . S
H810 C822 0.950 . S
H811 C823 0.950 . S
C812 H804 0.950 . S
C812 C813 1.386 . S
C812 C814 1.391 . S
C813 C812 1.386 . S
C813 C817 1.393 . S
C814 H806 0.950 . S
C814 C812 1.391 . S
C814 C815 1.400 . S
C815 C814 1.400 . S
C815 C816 1.398 . S
C815 C821 1.491 . S
C816 H807 0.950 . S
C816 C815 1.398 . S
C816 C817 1.391 . S
C817 H805 0.950 . S
C817 C813 1.393 . S
C817 C816 1.391 . S
C818 H808 0.950 . S
C818 C819 1.386 . S
C818 C820 1.391 . S
C819 C818 1.386 . S
C819 C823 1.393 . S
C820 H809 0.950 . S
C820 C818 1.391 . S
C820 C821 1.400 . S
C821 C815 1.491 . S
C821 C820 1.400 . S
C821 C822 1.398 . S
C822 H810 0.950 . S
C822 C821 1.398 . S
C822 C823 1.391 . S
C823 H811 0.950 . S
C823 C819 1.393 . S
C823 C822 1.391 . S
H824 C832 0.950 . S
H825 C837 0.950 . S
H826 C834 0.950 . S
H827 C836 0.950 . S
H828 C838 0.950 . S
H829 C840 0.950 . S
H830 C842 0.950 . S
H831 C843 0.950 . S
C832 H824 0.950 . S
C832 C833 1.386 . S
C832 C834 1.391 . S
C833 C832 1.386 . S
C833 C837 1.393 . S
C834 H826 0.950 . S
C834 C832 1.391 . S
C834 C835 1.400 . S
C835 C834 1.400 . S
C835 C836 1.398 . S
C835 C841 1.491 . S
C836 H827 0.950 . S
C836 C835 1.398 . S
C836 C837 1.391 . S
C837 H825 0.950 . S
C837 C833 1.393 . S
C837 C836 1.391 . S
C838 H828 0.950 . S
C838 C839 1.386 . S
C838 C840 1.391 . S
C839 C838 1.386 . S
C839 C843 1.393 . S
C840 H829 0.950 . S
C840 C838 1.391 . S
C840 C841 1.400 . S
C841 C835 1.491 . S
C841 C840 1.400 . S
C841 C842 1.398 . S
C842 H830 0.950 . S
C842 C841 1.398 . S
C842 C843 1.391 . S
C843 H831 0.950 . S
C843 C839 1.393 . S
C843 C842 1.391 . S
H844 C852 0.950 . S
H845 C857 0.950 . S
H846 C854 0.950 . S
H847 C856 0.950 . S
H848 C858 0.950 . S
H849 C860 0.950 . S
H850 C862 0.950 . S
H851 C863 0.950 . S
C852 H844 0.950 . S
C852 C853 1.386 . S
C852 C854 1.391 . S
C853 C852 1.386 . S
C853 C857 1.393 . S
C854 H846 0.950 . S
C854 C852 1.391 . S
C854 C855 1.400 . S
C855 C854 1.400 . S
C855 C856 1.398 . S
C855 C861 1.491 . S
C856 H847 0.950 . S
C856 C855 1.398 . S
C856 C857 1.391 . S
C857 H845 0.950 . S
C857 C853 1.393 . S
C857 C856 1.391 . S
C858 H848 0.950 . S
C858 C859 1.386 . S
C858 C860 1.391 . S
C859 C858 1.386 . S
C859 C863 1.393 . S
C860 H849 0.950 . S
C860 C858 1.391 . S
C860 C861 1.400 . S
C861 C855 1.491 . S
C861 C860 1.400 . S
C861 C862 1.398 . S
C862 H850 0.950 . S
C862 C861 1.398 . S
C862 C863 1.391 . S
C863 H851 0.950 . S
C863 C859 1.393 . S
C863 C862 1.391 . S
H864 C872 0.950 . S
H865 C877 0.950 . S
H866 C874 0.950 . S
H867 C876 0.950 . S
H868 C878 0.950 . S
H869 C880 0.950 . S
H870 C882 0.950 . S
H871 C883 0.950 . S
C872 H864 0.950 . S
C872 C873 1.386 . S
C872 C874 1.391 . S
C873 C872 1.386 . S
C873 C877 1.393 . S
C874 H866 0.950 . S
C874 C872 1.391 . S
C874 C875 1.400 . S
C875 C874 1.400 . S
C875 C876 1.398 . S
C875 C881 1.491 1_565 S
C876 H867 0.950 . S
C876 C875 1.398 . S
C876 C877 1.391 . S
C877 H865 0.950 . S
C877 C873 1.393 . S
C877 C876 1.391 . S
C878 H868 0.950 . S
C878 C879 1.386 . S
C878 C880 1.391 . S
C879 C878 1.386 . S
C879 C883 1.393 . S
C880 H869 0.950 . S
C880 C878 1.391 . S
C880 C881 1.400 . S
C881 C875 1.491 1_545 S
C881 C880 1.400 . S
C881 C882 1.398 . S
C882 H870 0.950 . S
C882 C881 1.398 . S
C882 C883 1.391 . S
C883 H871 0.950 . S
C883 C879 1.393 . S
C883 C882 1.391 . S
H884 C892 0.950 . S
H885 C897 0.950 . S
H886 C894 0.950 . S
H887 C896 0.950 . S
H888 C898 0.950 . S
H889 C900 0.950 . S
H890 C902 0.950 . S
H891 C903 0.950 . S
C892 H884 0.950 . S
C892 C893 1.386 . S
C892 C894 1.391 . S
C893 C892 1.386 . S
C893 C897 1.393 . S
C894 H886 0.950 . S
C894 C892 1.391 . S
C894 C895 1.400 . S
C895 C894 1.400 . S
C895 C896 1.398 . S
C895 C901 1.491 1_565 S
C896 H887 0.950 . S
C896 C895 1.398 . S
C896 C897 1.391 . S
C897 H885 0.950 . S
C897 C893 1.393 . S
C897 C896 1.391 . S
C898 H888 0.950 . S
C898 C899 1.386 . S
C898 C900 1.391 . S
C899 C898 1.386 . S
C899 C903 1.393 . S
C900 H889 0.950 . S
C900 C898 1.391 . S
C900 C901 1.400 . S
C901 C895 1.491 1_545 S
C901 C900 1.400 . S
C901 C902 1.398 . S
C902 H890 0.950 . S
C902 C901 1.398 . S
C902 C903 1.391 . S
C903 H891 0.950 . S
C903 C899 1.393 . S
C903 C902 1.391 . S
H904 C912 0.950 . S
H905 C917 0.950 1_545 S
H906 C914 0.950 . S
H907 C916 0.950 . S
H908 C918 0.950 . S
H909 C920 0.950 . S
H910 C922 0.950 . S
H911 C923 0.950 1_565 S
C912 H904 0.950 . S
C912 C913 1.386 . S
C912 C914 1.391 . S
C913 C912 1.386 . S
C913 C917 1.393 . S
C914 H906 0.950 . S
C914 C912 1.391 . S
C914 C915 1.400 . S
C915 C914 1.400 . S
C915 C916 1.398 1_565 S
C915 C921 1.491 1_565 S
C916 H907 0.950 . S
C916 C915 1.398 1_545 S
C916 C917 1.391 1_545 S
C917 H905 0.950 1_565 S
C917 C913 1.393 . S
C917 C916 1.391 1_565 S
C918 H908 0.950 . S
C918 C919 1.386 . S
C918 C920 1.391 . S
C919 C918 1.386 . S
C919 C923 1.393 . S
C920 H909 0.950 . S
C920 C918 1.391 . S
C920 C921 1.400 . S
C921 C915 1.491 1_545 S
C921 C920 1.400 . S
C921 C922 1.398 1_545 S
C922 H910 0.950 . S
C922 C921 1.398 1_565 S
C922 C923 1.391 1_565 S
C923 H911 0.950 1_545 S
C923 C919 1.393 . S
C923 C922 1.391 1_545 S
H924 C932 0.950 . S
H925 C937 0.950 1_545 S
H926 C934 0.950 . S
H927 C936 0.950 . S
H928 C938 0.950 . S
H929 C940 0.950 . S
H930 C942 0.950 . S
H931 C943 0.950 1_565 S
C932 H924 0.950 . S
C932 C933 1.386 . S
C932 C934 1.391 . S
C933 C932 1.386 . S
C933 C937 1.393 . S
C934 H926 0.950 . S
C934 C932 1.391 . S
C934 C935 1.400 . S
C935 C934 1.400 . S
C935 C936 1.398 1_565 S
C935 C941 1.491 1_565 S
C936 H927 0.950 . S
C936 C935 1.398 1_545 S
C936 C937 1.391 1_545 S
C937 H925 0.950 1_565 S
C937 C933 1.393 . S
C937 C936 1.391 1_565 S
C938 H928 0.950 . S
C938 C939 1.386 . S
C938 C940 1.391 . S
C939 C938 1.386 . S
C939 C943 1.393 . S
C940 H929 0.950 . S
C940 C938 1.391 . S
C940 C941 1.400 . S
C941 C935 1.491 1_545 S
C941 C940 1.400 . S
C941 C942 1.398 1_545 S
C942 H930 0.950 . S
C942 C941 1.398 1_565 S
C942 C943 1.391 1_565 S
C943 H931 0.950 1_545 S
C943 C939 1.393 . S
C943 C942 1.391 1_545 S
H944 C952 0.950 . S
H945 C957 0.950 . S
H946 C954 0.950 . S
H947 C956 0.950 . S
H948 C958 0.950 . S
H949 C960 0.950 . S
H950 C962 0.950 . S
H951 C963 0.950 . S
C952 H944 0.950 . S
C952 C953 1.386 1_556 S
C952 C954 1.391 . S
C953 C952 1.386 1_554 S
C953 C957 1.392 . S
C954 H946 0.950 . S
C954 C952 1.391 . S
C954 C955 1.398 1_556 S
C955 C954 1.398 1_554 S
C955 C956 1.400 . S
C955 C961 1.491 1_565 S
C956 H947 0.950 . S
C956 C955 1.400 . S
C956 C957 1.391 . S
C957 H945 0.950 . S
C957 C953 1.392 . S
C957 C956 1.391 . S
C958 H948 0.950 . S
C958 C959 1.398 . S
C958 C960 1.391 . S
C959 C958 1.398 . S
C959 C963 1.380 1_554 S
C960 H949 0.950 . S
C960 C958 1.391 . S
C960 C961 1.410 . S
C961 C955 1.491 1_545 S
C961 C960 1.410 . S
C961 C962 1.388 1_554 S
C962 H950 0.950 . S
C962 C961 1.388 1_556 S
C962 C963 1.391 . S
C963 H951 0.950 . S
C963 C959 1.380 1_556 S
C963 C962 1.391 . S
H964 C972 0.950 . S
H965 C977 0.950 . S
H966 C974 0.950 . S
H967 C976 0.950 . S
H968 C978 0.950 . S
H969 C980 0.950 . S
H970 C982 0.950 . S
H971 C983 0.950 . S
C972 H964 0.950 . S
C972 C973 1.386 . S
C972 C974 1.391 . S
C973 C972 1.386 . S
C973 C977 1.393 . S
C974 H966 0.950 . S
C974 C972 1.391 . S
C974 C975 1.400 . S
C975 C974 1.400 . S
C975 C976 1.398 . S
C975 C981 1.491 1_565 S
C976 H967 0.950 . S
C976 C975 1.398 . S
C976 C977 1.391 . S
C977 H965 0.950 . S
C977 C973 1.393 . S
C977 C976 1.391 . S
C978 H968 0.950 . S
C978 C979 1.386 . S
C978 C980 1.391 . S
C979 C978 1.386 . S
C979 C983 1.393 . S
C980 H969 0.950 . S
C980 C978 1.391 . S
C980 C981 1.400 . S
C981 C975 1.491 1_545 S
C981 C980 1.400 . S
C981 C982 1.398 . S
C982 H970 0.950 . S
C982 C981 1.398 . S
C982 C983 1.391 . S
C983 H971 0.950 . S
C983 C979 1.393 . S
C983 C982 1.391 . S
H984 C992 0.950 . S
H985 C997 0.950 . S
H986 C994 0.950 . S
H987 C996 0.950 . S
H988 C998 0.950 . S
H989 C1000 0.950 . S
H990 C1002 0.950 . S
H991 C1003 0.950 . S
C992 H984 0.950 . S
C992 C993 1.386 1_556 S
C992 C994 1.391 . S
C993 C992 1.386 1_554 S
C993 C997 1.393 . S
C994 H986 0.950 . S
C994 C992 1.391 . S
C994 C995 1.384 1_556 S
C995 C994 1.384 1_554 S
C995 C996 1.416 1_455 S
C995 C1001 1.490 1_454 S
C996 H987 0.950 . S
C996 C995 1.416 1_655 S
C996 C997 1.391 1_655 S
C997 H985 0.950 . S
C997 C993 1.393 . S
C997 C996 1.391 1_455 S
C998 H988 0.950 . S
C998 C999 1.373 1_554 S
C998 C1000 1.391 . S
C999 C998 1.373 1_556 S
C999 C1003 1.406 . S
C1000 H989 0.950 . S
C1000 C998 1.391 . S
C1000 C1001 1.399 1_554 S
C1001 C995 1.490 1_656 S
C1001 C1000 1.399 1_556 S
C1001 C1002 1.400 1_655 S
C1002 H990 0.950 . S
C1002 C1001 1.400 1_455 S
C1002 C1003 1.391 1_455 S
C1003 H991 0.950 . S
C1003 C999 1.406 . S
C1003 C1002 1.391 1_655 S
H1004 C1012 0.950 . S
H1005 C1017 0.950 . S
H1006 C1014 0.950 . S
H1007 C1016 0.950 . S
H1008 C1018 0.950 . S
H1009 C1020 0.950 . S
H1010 C1022 0.950 . S
H1011 C1023 0.950 . S
C1012 H1004 0.950 . S
C1012 C1013 1.386 . S
C1012 C1014 1.391 1_455 S
C1013 C1012 1.386 . S
C1013 C1017 1.393 . S
C1014 H1006 0.950 . S
C1014 C1012 1.391 1_655 S
C1014 C1015 1.400 1_655 S
C1015 C1014 1.400 1_455 S
C1015 C1016 1.398 . S
C1015 C1021 1.491 1_455 S
C1016 H1007 0.950 . S
C1016 C1015 1.398 . S
C1016 C1017 1.391 . S
C1017 H1005 0.950 . S
C1017 C1013 1.393 . S
C1017 C1016 1.391 . S
C1018 H1008 0.950 . S
C1018 C1019 1.386 . S
C1018 C1020 1.391 1_655 S
C1019 C1018 1.386 . S
C1019 C1023 1.393 . S
C1020 H1009 0.950 . S
C1020 C1018 1.391 1_455 S
C1020 C1021 1.400 1_455 S
C1021 C1015 1.491 1_655 S
C1021 C1020 1.400 1_655 S
C1021 C1022 1.398 . S
C1022 H1010 0.950 . S
C1022 C1021 1.398 . S
C1022 C1023 1.391 . S
C1023 H1011 0.950 . S
C1023 C1019 1.393 . S
C1023 C1022 1.391 . S
C713 C460 1.570 1_556 S
C719 C29 1.569 . S
C733 C381 1.569 . S
C739 C108 1.570 1_556 S
C753 C673 1.570 . S
C759 C225 1.569 . S
C773 C577 1.571 . S
C779 C321 1.571 . S
C793 C20 1.331 . S
C799 C233 1.336 . S
C813 C117 1.338 . S
C819 C313 1.337 . S
C833 C145 1.337 . S
C839 C284 1.335 . S
C853 C49 1.334 . S
C859 C205 1.337 . S
C873 C372 1.333 . S
C879 C585 1.333 . S
C893 C665 1.335 . S
C899 C469 1.331 . S
C913 C636 1.341 . S
C919 C497 1.335 . S
C933 C401 1.340 . S
C939 C557 1.334 . S
C953 C137 1.595 . S
C959 C57 1.595 . S
C973 C196 1.595 . S
C979 C293 1.595 . S
C993 C409 1.596 . S
C999 C489 1.596 1_556 S
C1013 C548 1.596 . S
C1019 C645 1.596 . S
