# Generated by pormake.
# Topology wkq, (6)-cn, num edge types: 1
# Building blocks:
#     Node 0, Type 0, BuildingBlock: IZENUY_clean_sbu_0, # of connection points: 6
#     Node 1, Type 0, BuildingBlock: IZENUY_clean_sbu_0, # of connection points: 6
#     Node 2, Type 0, BuildingBlock: IZENUY_clean_sbu_0, # of connection points: 6
#     Node 3, Type 0, BuildingBlock: IZENUY_clean_sbu_0, # of connection points: 6
#     Node 4, Type 0, BuildingBlock: IZENUY_clean_sbu_0, # of connection points: 6
#     Node 5, Type 0, BuildingBlock: IZENUY_clean_sbu_0, # of connection points: 6
#     Node 6, Type 0, BuildingBlock: IZENUY_clean_sbu_0, # of connection points: 6
#     Node 7, Type 0, BuildingBlock: IZENUY_clean_sbu_0, # of connection points: 6
#     Node 8, Type 0, BuildingBlock: IZENUY_clean_sbu_0, # of connection points: 6
#     Node 9, Type 0, BuildingBlock: IZENUY_clean_sbu_0, # of connection points: 6
#     Node 10, Type 0, BuildingBlock: IZENUY_clean_sbu_0, # of connection points: 6
#     Node 11, Type 0, BuildingBlock: IZENUY_clean_sbu_0, # of connection points: 6
#     Edge 12, Type (0, 0), BuildingBlock: UVAHIK_clean_linker_0, # of connection points: 2
#     Edge 13, Type (0, 0), BuildingBlock: UVAHIK_clean_linker_0, # of connection points: 2
#     Edge 14, Type (0, 0), BuildingBlock: UVAHIK_clean_linker_0, # of connection points: 2
#     Edge 15, Type (0, 0), BuildingBlock: UVAHIK_clean_linker_0, # of connection points: 2
#     Edge 16, Type (0, 0), BuildingBlock: UVAHIK_clean_linker_0, # of connection points: 2
#     Edge 17, Type (0, 0), BuildingBlock: UVAHIK_clean_linker_0, # of connection points: 2
#     Edge 18, Type (0, 0), BuildingBlock: UVAHIK_clean_linker_0, # of connection points: 2
#     Edge 19, Type (0, 0), BuildingBlock: UVAHIK_clean_linker_0, # of connection points: 2
#     Edge 20, Type (0, 0), BuildingBlock: UVAHIK_clean_linker_0, # of connection points: 2
#     Edge 21, Type (0, 0), BuildingBlock: UVAHIK_clean_linker_0, # of connection points: 2
#     Edge 22, Type (0, 0), BuildingBlock: UVAHIK_clean_linker_0, # of connection points: 2
#     Edge 23, Type (0, 0), BuildingBlock: UVAHIK_clean_linker_0, # of connection points: 2
#     Edge 24, Type (0, 0), BuildingBlock: UVAHIK_clean_linker_0, # of connection points: 2
#     Edge 25, Type (0, 0), BuildingBlock: UVAHIK_clean_linker_0, # of connection points: 2
#     Edge 26, Type (0, 0), BuildingBlock: UVAHIK_clean_linker_0, # of connection points: 2
#     Edge 27, Type (0, 0), BuildingBlock: UVAHIK_clean_linker_0, # of connection points: 2
#     Edge 28, Type (0, 0), BuildingBlock: UVAHIK_clean_linker_0, # of connection points: 2
#     Edge 29, Type (0, 0), BuildingBlock: UVAHIK_clean_linker_0, # of connection points: 2
#     Edge 30, Type (0, 0), BuildingBlock: UVAHIK_clean_linker_0, # of connection points: 2
#     Edge 31, Type (0, 0), BuildingBlock: UVAHIK_clean_linker_0, # of connection points: 2
#     Edge 32, Type (0, 0), BuildingBlock: UVAHIK_clean_linker_0, # of connection points: 2
#     Edge 33, Type (0, 0), BuildingBlock: UVAHIK_clean_linker_0, # of connection points: 2
#     Edge 34, Type (0, 0), BuildingBlock: UVAHIK_clean_linker_0, # of connection points: 2
#     Edge 35, Type (0, 0), BuildingBlock: UVAHIK_clean_linker_0, # of connection points: 2
#     Edge 36, Type (0, 0), BuildingBlock: UVAHIK_clean_linker_0, # of connection points: 2
#     Edge 37, Type (0, 0), BuildingBlock: UVAHIK_clean_linker_0, # of connection points: 2
#     Edge 38, Type (0, 0), BuildingBlock: UVAHIK_clean_linker_0, # of connection points: 2
#     Edge 39, Type (0, 0), BuildingBlock: UVAHIK_clean_linker_0, # of connection points: 2
#     Edge 40, Type (0, 0), BuildingBlock: UVAHIK_clean_linker_0, # of connection points: 2
#     Edge 41, Type (0, 0), BuildingBlock: UVAHIK_clean_linker_0, # of connection points: 2
#     Edge 42, Type (0, 0), BuildingBlock: UVAHIK_clean_linker_0, # of connection points: 2
#     Edge 43, Type (0, 0), BuildingBlock: UVAHIK_clean_linker_0, # of connection points: 2
#     Edge 44, Type (0, 0), BuildingBlock: UVAHIK_clean_linker_0, # of connection points: 2
#     Edge 45, Type (0, 0), BuildingBlock: UVAHIK_clean_linker_0, # of connection points: 2
#     Edge 46, Type (0, 0), BuildingBlock: UVAHIK_clean_linker_0, # of connection points: 2
#     Edge 47, Type (0, 0), BuildingBlock: UVAHIK_clean_linker_0, # of connection points: 2
# Relax obj value: 0.404
# Max RMSD: 0.286
# Mean RMSD: 0.286
data_MOF--net-wkq--node1-IZENUY_clean_sbu_0--edge1-UVAHIK_clean_linker_0
_symmetry_space_group_name_H-M    P1
_symmetry_Int_Tables_number       1
_symmetry_cell_setting            triclinic
loop_
_symmetry_equiv_pos_as_xyz
'x, y, z'
_cell_length_a     48.476441
_cell_length_b     48.498813
_cell_length_c     43.514769
_cell_angle_alpha  89.907737
_cell_angle_beta   90.194169
_cell_angle_gamma 119.94803
loop_
_atom_site_label
_atom_site_type_symbol
_atom_site_fract_x
_atom_site_fract_y
_atom_site_fract_z
_atom_type_partial_charge
Fe0 Fe 0.21568 0.37558 0.03353 0.0
Fe1 Fe 0.26088 0.4451 0.05129 0.0
O2 O 0.23181 0.41676 0.02617 0.0
Fe3 Fe 0.21914 0.42967 0.99352 0.0
O4 O 0.17771 0.39593 0.99399 0.0
O5 O 0.17605 0.36954 0.03579 0.0
O6 O 0.21767 0.37974 0.07535 0.0
C7 C 0.22084 0.40189 0.09293 0.0
C8 C 0.22514 0.38047 0.96961 0.0
O9 O 0.2338 0.43027 0.08353 0.0
C10 C 0.2857 0.47242 -0.00409 0.0
O11 O 0.25448 0.37841 0.03236 0.0
O12 O 0.27842 0.42053 0.06195 0.0
O13 O 0.2328 0.40938 0.96781 0.0
O14 O 0.2107 0.3641 0.99294 0.0
C15 C 0.22261 0.47239 0.03663 0.0
O16 O 0.28981 0.46147 0.0207 0.0
O17 O 0.258 0.46559 0.98722 0.0
C18 C 0.27694 0.39593 0.05034 0.0
O19 O 0.24861 0.47493 0.04576 0.0
O20 O 0.20538 0.45138 0.01721 0.0
C21 C 0.16213 0.37626 0.01516 0.0
Fe22 Fe 0.7924 0.21727 0.15198 0.0
Fe23 Fe 0.83881 0.20684 0.19168 0.0
O24 O 0.81592 0.22581 0.18582 0.0
Fe25 Fe 0.81682 0.25251 0.214 0.0
O26 O 0.77431 0.23084 0.21863 0.0
O27 O 0.75901 0.21914 0.17046 0.0
O28 O 0.7708 0.17474 0.16072 0.0
C29 C 0.78402 0.15827 0.16434 0.0
C30 C 0.81676 0.28212 0.15743 0.0
O31 O 0.81368 0.17187 0.16823 0.0
C32 C 0.87833 0.26681 0.21966 0.0
O33 O 0.82261 0.21499 0.12752 0.0
O34 O 0.86313 0.22737 0.15908 0.0
O35 O 0.8149 0.2801 0.18645 0.0
O36 O 0.81154 0.25865 0.14094 0.0
C37 C 0.81064 0.19939 0.24724 0.0
O38 O 0.86898 0.2376 0.2165 0.0
O39 O 0.86 0.27718 0.21251 0.0
C40 C 0.85228 0.22609 0.13237 0.0
O41 O 0.81512 0.18564 0.22474 0.0
O42 O 0.81807 0.22848 0.24598 0.0
C43 C 0.75299 0.22153 0.19837 0.0
Fe44 Fe 0.64144 0.83918 0.3566 0.0
Fe45 Fe 0.57352 0.82031 0.3759 0.0
O46 O 0.5998 0.81831 0.34907 0.0
Fe47 Fe 0.58525 0.79534 0.31503 0.0
O48 O 0.60345 0.77157 0.32551 0.0
O49 O 0.65034 0.8124 0.33464 0.0
O50 O 0.63616 0.81508 0.39036 0.0
C51 C 0.61742 0.81183 0.41199 0.0
C52 C 0.63892 0.8535 0.29666 0.0
O53 O 0.597 0.8208 0.40918 0.0
C54 C 0.54685 0.82209 0.31786 0.0
O55 O 0.64131 0.87032 0.38016 0.0
O56 O 0.5936 0.86357 0.37406 0.0
O57 O 0.6195 0.82414 0.29163 0.0
O58 O 0.64813 0.86399 0.32349 0.0
C59 C 0.53964 0.75681 0.3601 0.0
O60 O 0.5454 0.81937 0.34688 0.0
O61 O 0.5657 0.81681 0.30247 0.0
C62 C 0.62229 0.88092 0.38191 0.0
O63 O 0.55158 0.77775 0.38066 0.0
O64 O 0.54828 0.7634 0.33232 0.0
C65 C 0.63272 0.7829 0.3306 0.0
Fe66 Fe 0.80453 0.63866 0.53066 0.0
Fe67 Fe 0.75773 0.56866 0.54494 0.0
O68 O 0.78721 0.59789 0.52106 0.0
Fe69 Fe 0.79948 0.58636 0.48731 0.0
O70 O 0.84091 0.6199 0.48829 0.0
O71 O 0.84348 0.64254 0.53265 0.0
O72 O 0.80223 0.63231 0.57216 0.0
C73 C 0.79811 0.60897 0.58849 0.0
C74 C 0.79352 0.63682 0.46724 0.0
O75 O 0.78445 0.58111 0.57769 0.0
C76 C 0.73292 0.54423 0.48871 0.0
O77 O 0.76645 0.63739 0.53029 0.0
O78 O 0.74101 0.59341 0.55725 0.0
O79 O 0.78589 0.60807 0.46347 0.0
O80 O 0.80962 0.65208 0.49055 0.0
C81 C 0.79562 0.54163 0.5283 0.0
O82 O 0.72901 0.55454 0.51391 0.0
O83 O 0.76051 0.55085 0.48011 0.0
C84 C 0.7435 0.61911 0.54735 0.0
O85 O 0.76944 0.53872 0.5373 0.0
O86 O 0.81307 0.56342 0.50961 0.0
C87 C 0.85676 0.63615 0.51128 0.0
Fe88 Fe 0.1639 0.79441 0.70257 0.0
Fe89 Fe 0.19151 0.75137 0.71899 0.0
O90 O 0.18968 0.77932 0.69398 0.0
Fe91 Fe 0.2137 0.79253 0.66041 0.0
O92 O 0.2332 0.83374 0.67322 0.0
O93 O 0.18915 0.83344 0.68501 0.0
O94 O 0.18393 0.81118 0.73877 0.0
C95 C 0.18715 0.79493 0.7597 0.0
C96 C 0.15406 0.784 0.64092 0.0
O97 O 0.1851 0.7684 0.7538 0.0
C98 C 0.19414 0.72884 0.65949 0.0
O99 O 0.13369 0.75829 0.72172 0.0
O100 O 0.14914 0.72317 0.71523 0.0
O101 O 0.18387 0.79639 0.63707 0.0
O102 O 0.14207 0.77839 0.66739 0.0
C103 C 0.25485 0.78861 0.705 0.0
O104 O 0.19825 0.72946 0.68831 0.0
O105 O 0.19604 0.75248 0.64549 0.0
C106 C 0.12773 0.72977 0.72166 0.0
O107 O 0.23372 0.77713 0.72543 0.0
O108 O 0.24757 0.79042 0.67734 0.0
C109 C 0.21882 0.84846 0.68029 0.0
Fe110 Fe 0.37802 0.1672 0.86364 0.0
Fe111 Fe 0.44862 0.19206 0.87665 0.0
O112 O 0.41853 0.19246 0.85398 0.0
Fe113 Fe 0.42915 0.21793 0.82147 0.0
O114 O 0.3952 0.22515 0.82472 0.0
O115 O 0.3717 0.2005 0.8675 0.0
O116 O 0.3852 0.17 0.90518 0.0
C117 C 0.40858 0.18966 0.92132 0.0
C118 C 0.37894 0.16229 0.79938 0.0
O119 O 0.43621 0.20481 0.91018 0.0
C120 C 0.47177 0.19406 0.81944 0.0
O121 O 0.38121 0.13151 0.86094 0.0
O122 O 0.42501 0.15017 0.88813 0.0
O123 O 0.40755 0.18389 0.79613 0.0
O124 O 0.36389 0.16026 0.82375 0.0
C125 C 0.47415 0.25725 0.863 0.0
O126 O 0.46242 0.17904 0.84439 0.0
O127 O 0.46485 0.21529 0.81241 0.0
C128 C 0.39992 0.12684 0.87747 0.0
O129 O 0.47796 0.23402 0.87002 0.0
O130 O 0.45194 0.2534 0.84504 0.0
C131 C 0.37684 0.22094 0.84716 0.0
Fe132 Fe 0.58504 0.79408 0.83145 0.0
Fe133 Fe 0.63827 0.79579 0.79141 0.0
O134 O 0.59728 0.78015 0.79943 0.0
Fe135 Fe 0.56825 0.7501 0.7756 0.0
O136 O 0.53816 0.76193 0.78139 0.0
O137 O 0.56272 0.8068 0.80705 0.0
O138 O 0.61863 0.83544 0.82943 0.0
C139 C 0.6382 0.85018 0.80798 0.0
C140 C 0.54288 0.72737 0.83194 0.0
O141 O 0.64472 0.83551 0.78814 0.0
C142 C 0.61756 0.73433 0.77597 0.0
O143 O 0.60592 0.78161 0.85773 0.0
O144 O 0.65069 0.80154 0.83189 0.0
O145 O 0.55333 0.72238 0.80732 0.0
O146 O 0.5494 0.75531 0.83929 0.0
C147 C 0.61001 0.78901 0.7324 0.0
O148 O 0.63522 0.75698 0.79359 0.0
O149 O 0.59266 0.73256 0.76474 0.0
C150 C 0.63453 0.78823 0.85569 0.0
O151 O 0.63282 0.79278 0.74957 0.0
O152 O 0.58187 0.77615 0.7425 0.0
C153 C 0.54071 0.78828 0.78905 0.0
Fe154 Fe 0.84173 0.63781 0.96275 0.0
Fe155 Fe 0.81301 0.56771 0.94466 0.0
O156 O 0.81676 0.59687 0.97133 0.0
Fe157 Fe 0.79533 0.58557 0.00644 0.0
O158 O 0.77484 0.60731 -0.00343 0.0
O159 O 0.81837 0.65125 0.98459 0.0
O160 O 0.81802 0.63502 0.92939 0.0
C161 C 0.81126 0.61499 0.90811 0.0
C162 C 0.85665 0.63556 0.02262 0.0
O163 O 0.81598 0.59166 0.91105 0.0
C164 C 0.81517 0.54176 0.00267 0.0
O165 O 0.86989 0.63234 0.93915 0.0
O166 O 0.85555 0.58202 0.94473 0.0
O167 O 0.82707 0.61915 0.02845 0.0
O168 O 0.86663 0.64254 0.99544 0.0
C169 C 0.75098 0.54133 0.96351 0.0
O170 O 0.80904 0.53872 0.9741 0.0
O171 O 0.81414 0.56316 0.01817 0.0
C172 C 0.87614 0.61 0.93735 0.0
O173 O 0.77051 0.55136 0.94171 0.0
O174 O 0.76024 0.54951 0.99098 0.0
C175 C 0.78879 0.6365 0.98981 0.0
Fe176 Fe 0.25155 0.817 0.10776 0.0
Fe177 Fe 0.22041 0.79808 0.17169 0.0
O178 O 0.2274 0.81951 0.13674 0.0
Fe179 Fe 0.20941 0.84324 0.13082 0.0
O180 O 0.1867 0.81939 0.09832 0.0
O181 O 0.22719 0.81848 0.07616 0.0
O182 O 0.227 0.77422 0.10541 0.0
C183 C 0.21973 0.7548 0.12721 0.0
C184 C 0.26889 0.87938 0.10054 0.0
O185 O 0.22188 0.7639 0.15482 0.0
C186 C 0.23006 0.85849 0.18976 0.0
O187 O 0.27962 0.81472 0.1349 0.0
O188 O 0.26236 0.8181 0.1808 0.0
O189 O 0.24033 0.87201 0.10534 0.0
O190 O 0.27819 0.85994 0.10688 0.0
C191 C 0.16114 0.78937 0.15972 0.0
O192 O 0.21871 0.829 0.19525 0.0
O193 O 0.23129 0.8684 0.16271 0.0
C194 C 0.28417 0.82016 0.16355 0.0
O195 O 0.17759 0.77621 0.1643 0.0
O196 O 0.17474 0.81897 0.155 0.0
C197 C 0.19901 0.81384 0.07535 0.0
Fe198 Fe 0.37669 0.21028 0.29678 0.0
Fe199 Fe 0.44791 0.25414 0.28522 0.0
O200 O 0.4167 0.22591 0.30862 0.0
Fe201 Fe 0.4261 0.21363 0.34364 0.0
O202 O 0.39226 0.17242 0.34257 0.0
O203 O 0.36906 0.17008 0.29846 0.0
O204 O 0.38554 0.2094 0.25602 0.0
C205 C 0.40931 0.21016 0.24306 0.0
C206 C 0.37599 0.22238 0.36014 0.0
O207 O 0.43686 0.22537 0.25464 0.0
C208 C 0.46881 0.28037 0.34141 0.0
O209 O 0.38062 0.24938 0.29355 0.0
O210 O 0.42499 0.27084 0.26757 0.0
O211 O 0.40389 0.22787 0.36561 0.0
O212 O 0.36154 0.20841 0.33569 0.0
C213 C 0.47283 0.21638 0.30672 0.0
O214 O 0.46019 0.28396 0.31499 0.0
O215 O 0.46152 0.25281 0.35116 0.0
C216 C 0.39969 0.27038 0.27534 0.0
O217 O 0.47726 0.243 0.29756 0.0
O218 O 0.44926 0.19886 0.3235 0.0
C219 C 0.37376 0.1565 0.32078 0.0
Fe220 Fe 0.17275 0.37383 0.46566 0.0
Fe221 Fe 0.19317 0.44104 0.44272 0.0
O222 O 0.19446 0.41569 0.4712 0.0
Fe223 Fe 0.21769 0.43161 0.50496 0.0
O224 O 0.24104 0.41265 0.49613 0.0
O225 O 0.19977 0.36555 0.48831 0.0
O226 O 0.196 0.37679 0.4321 0.0
C227 C 0.19951 0.39455 0.40949 0.0
C228 C 0.15976 0.37889 0.52533 0.0
O229 O 0.19125 0.41556 0.41083 0.0
C230 C 0.19194 0.47047 0.49886 0.0
O231 O 0.14136 0.37367 0.4418 0.0
O232 O 0.15008 0.42239 0.44488 0.0
O233 O 0.18918 0.39852 0.52971 0.0
O234 O 0.14872 0.36909 0.49879 0.0
C235 C 0.25659 0.47442 0.45822 0.0
O236 O 0.19553 0.47103 0.46998 0.0
O237 O 0.19635 0.4518 0.51565 0.0
C238 C 0.1317 0.39342 0.43879 0.0
O239 O 0.23571 0.46134 0.43771 0.0
O240 O 0.24969 0.46772 0.48635 0.0
C241 C 0.22938 0.38318 0.49214 0.0
Fe242 Fe 0.75604 0.19441 0.60422 0.0
Fe243 Fe 0.79579 0.2184 0.66332 0.0
O244 O 0.78373 0.19362 0.63022 0.0
Fe245 Fe 0.79903 0.16779 0.62326 0.0
O246 O 0.79845 0.17089 0.58138 0.0
O247 O 0.78425 0.20677 0.57293 0.0
O248 O 0.76905 0.23654 0.61038 0.0
C249 C 0.79504 0.25935 0.62027 0.0
C250 C 0.73792 0.12876 0.60479 0.0
O251 O 0.81126 0.25452 0.64014 0.0
C252 C 0.78766 0.16217 0.68691 0.0
O253 O 0.72613 0.18182 0.63377 0.0
O254 O 0.75724 0.21648 0.66839 0.0
O255 O 0.75965 0.13261 0.62332 0.0
O256 O 0.73789 0.15254 0.59287 0.0
C257 C 0.85267 0.22069 0.64338 0.0
O258 O 0.7805 0.18382 0.68852 0.0
O259 O 0.80248 0.16023 0.66393 0.0
C260 C 0.72972 0.19631 0.65876 0.0
O261 O 0.83675 0.22487 0.66408 0.0
O262 O 0.83914 0.20063 0.62227 0.0
C263 C 0.79663 0.19072 0.56379 0.0
C264 C 0.196 0.50527 0.02887 0.0
C265 C 0.2145 0.4966 0.04704 0.0
C266 C 0.1912 0.53032 0.03798 0.0
C267 C 0.19349 0.57826 0.10493 0.0
H268 H 0.21566 0.64587 0.04577 0.0
C269 C 0.21807 0.70359 0.14111 0.0
C270 C 0.21197 0.72179 0.11992 0.0
C271 C 0.21406 0.67391 0.13265 0.0
C272 C 0.20867 0.62703 0.06252 0.0
H273 H 0.24112 0.50635 0.08965 0.0
H274 H 0.23221 0.54939 0.1057 0.0
H275 H 0.21498 0.59741 0.03009 0.0
H276 H 0.19508 0.7223 0.07385 0.0
H277 H 0.18675 0.67023 0.05957 0.0
H278 H 0.18693 0.6076 0.13738 0.0
C279 C 0.22166 0.53713 0.08435 0.0
C280 C 0.2084 0.59922 0.05345 0.0
C281 C 0.22693 0.51259 0.07503 0.0
C282 C 0.20038 0.70903 0.09061 0.0
C283 C 0.19586 0.6792 0.08233 0.0
C284 C 0.19331 0.6059 0.11393 0.0
C285 C 0.20421 0.54667 0.06573 0.0
C286 C 0.20129 0.57473 0.07465 0.0
C287 C 0.20335 0.66147 0.10293 0.0
C288 C 0.20139 0.63096 0.09298 0.0
H289 H 0.18615 0.49344 0.00718 0.0
H290 H 0.17751 0.53707 0.02323 0.0
H291 H 0.18764 0.55965 0.12173 0.0
H292 H 0.22724 0.71286 0.1638 0.0
H293 H 0.2205 0.66132 0.14912 0.0
C294 C 0.52964 0.23051 0.30667 0.0
C295 C 0.49774 0.2082 0.30019 0.0
C296 C 0.55415 0.22555 0.29657 0.0
C297 C 0.57758 0.19372 0.23448 0.0
H298 H 0.64264 0.19921 0.29021 0.0
C299 C 0.69317 0.19609 0.1914 0.0
C300 C 0.72113 0.21574 0.20808 0.0
C301 C 0.66339 0.19026 0.20227 0.0
C302 C 0.62495 0.19801 0.27417 0.0
H303 H 0.46625 0.16333 0.27795 0.0
H304 H 0.50956 0.15501 0.2593 0.0
H305 H 0.5953 0.19782 0.31072 0.0
H306 H 0.73973 0.24574 0.24852 0.0
H307 H 0.68891 0.23679 0.26647 0.0
H308 H 0.60805 0.19594 0.19778 0.0
C309 C 0.51537 0.17597 0.27281 0.0
C310 C 0.59765 0.19686 0.28605 0.0
C311 C 0.49068 0.18055 0.28369 0.0
C312 C 0.7187 0.22999 0.23529 0.0
C313 C 0.6893 0.22459 0.24581 0.0
C314 C 0.60528 0.19548 0.22248 0.0
C315 C 0.54734 0.1986 0.27901 0.0
C316 C 0.57397 0.19531 0.26635 0.0
C317 C 0.66106 0.20425 0.22986 0.0
C318 C 0.62977 0.19849 0.24218 0.0
H319 H 0.53565 0.25221 0.319 0.0
H320 H 0.57858 0.24345 0.30147 0.0
H321 H 0.5597 0.19275 0.21879 0.0
H322 H 0.69424 0.18473 0.17039 0.0
H323 H 0.64222 0.17439 0.18933 0.0
C324 C 0.297 0.5039 0.41741 0.0
C325 C 0.2887 0.49998 0.44873 0.0
C326 C 0.32591 0.52934 0.40753 0.0
C327 C 0.40594 0.59164 0.43353 0.0
H328 H 0.40223 0.63568 0.3605 0.0
C329 C 0.50631 0.71716 0.40025 0.0
C330 C 0.51351 0.72472 0.36897 0.0
C331 C 0.48064 0.68793 0.40915 0.0
C332 C 0.40387 0.62339 0.38061 0.0
H333 H 0.30502 0.51924 0.49435 0.0
H334 H 0.35562 0.56407 0.47701 0.0
H335 H 0.35444 0.58842 0.37821 0.0
H336 H 0.49973 0.70682 0.32254 0.0
H337 H 0.45482 0.65548 0.33814 0.0
H338 H 0.45537 0.62696 0.4361 0.0
C339 C 0.33969 0.54719 0.46013 0.0
C340 C 0.3764 0.59627 0.39085 0.0
C341 C 0.31066 0.52156 0.47008 0.0
C342 C 0.49481 0.70185 0.3468 0.0
C343 C 0.46895 0.67251 0.35575 0.0
C344 C 0.43346 0.6188 0.42328 0.0
C345 C 0.34738 0.55169 0.42864 0.0
C346 C 0.37701 0.58013 0.41753 0.0
C347 C 0.46137 0.66535 0.38706 0.0
C348 C 0.43271 0.63518 0.39681 0.0
H349 H 0.28092 0.4875 0.4003 0.0
H350 H 0.33132 0.53161 0.38322 0.0
H351 H 0.40738 0.57955 0.4539 0.0
H352 H 0.52024 0.73406 0.41805 0.0
H353 H 0.47534 0.68348 0.43341 0.0
C354 C 0.8277 0.51365 0.52367 0.0
C355 C 0.80392 0.51733 0.53835 0.0
C356 C 0.83392 0.48948 0.53287 0.0
C357 C 0.82119 0.43362 0.5973 0.0
H358 H 0.825 0.37953 0.53398 0.0
C359 C 0.82632 0.3192 0.62657 0.0
C360 C 0.80431 0.29212 0.61005 0.0
C361 C 0.83272 0.34968 0.61756 0.0
C362 C 0.82411 0.39448 0.55197 0.0
H363 H 0.76889 0.49911 0.57494 0.0
H364 H 0.77963 0.4574 0.59073 0.0
H365 H 0.8242 0.42778 0.51947 0.0
H366 H 0.7729 0.27608 0.57035 0.0
H367 H 0.78399 0.3287 0.55485 0.0
H368 H 0.81973 0.39963 0.62974 0.0
C369 C 0.79361 0.4731 0.57223 0.0
C370 C 0.82397 0.42232 0.54364 0.0
C371 C 0.78723 0.49691 0.56292 0.0
C372 C 0.78982 0.29634 0.58378 0.0
C373 C 0.79641 0.32664 0.57467 0.0
C374 C 0.82148 0.40586 0.60563 0.0
C375 C 0.81681 0.46882 0.55721 0.0
C376 C 0.82161 0.44179 0.56617 0.0
C377 C 0.8176 0.3537 0.59162 0.0
C378 C 0.82206 0.38548 0.58303 0.0
H379 H 0.84107 0.52901 0.50475 0.0
H380 H 0.85208 0.48693 0.52093 0.0
H381 H 0.8198 0.44831 0.61527 0.0
H382 H 0.83795 0.3168 0.64687 0.0
H383 H 0.84933 0.37007 0.63102 0.0
C384 C 0.49131 0.77392 0.75894 0.0
C385 C 0.51538 0.79516 0.779 0.0
C386 C 0.46661 0.77904 0.74984 0.0
C387 C 0.42479 0.80178 0.72142 0.0
H388 H 0.384 0.82766 0.78222 0.0
C389 C 0.31235 0.8091 0.69114 0.0
C390 C 0.28792 0.79675 0.71317 0.0
C391 C 0.34286 0.81459 0.69858 0.0
C392 C 0.39503 0.82031 0.76494 0.0
H393 H 0.53246 0.83896 0.80476 0.0
H394 H 0.48915 0.8481 0.78859 0.0
H395 H 0.43207 0.82615 0.7959 0.0
H396 H 0.27691 0.7814 0.76066 0.0
H397 H 0.32949 0.79022 0.7733 0.0
H398 H 0.38703 0.79434 0.69093 0.0
C399 C 0.48937 0.82721 0.78021 0.0
C400 C 0.4229 0.81985 0.7727 0.0
C401 C 0.51428 0.82206 0.78938 0.0
C402 C 0.29505 0.79092 0.74303 0.0
C403 C 0.32543 0.79624 0.7504 0.0
C404 C 0.39691 0.8021 0.71371 0.0
C405 C 0.46516 0.80566 0.76036 0.0
C406 C 0.43775 0.80988 0.75123 0.0
C407 C 0.3497 0.80776 0.7282 0.0
C408 C 0.38124 0.81074 0.73554 0.0
H409 H 0.49124 0.75292 0.75039 0.0
H410 H 0.44817 0.76157 0.73505 0.0
H411 H 0.43586 0.79453 0.70408 0.0
H412 H 0.30783 0.81412 0.66799 0.0
H413 H 0.36103 0.82397 0.68099 0.0
C414 C 0.70461 0.5168 0.92758 0.0
C415 C 0.7177 0.51677 0.95642 0.0
C416 C 0.67493 0.49163 0.91872 0.0
C417 C 0.60302 0.41767 0.94753 0.0
H418 H 0.59585 0.39288 0.86187 0.0
C419 C 0.51431 0.29193 0.90205 0.0
C420 C 0.49775 0.28928 0.87459 0.0
C421 C 0.53792 0.32159 0.91275 0.0
C422 C 0.59727 0.39975 0.88575 0.0
H423 H 0.70955 0.49074 -0.001 0.0
H424 H 0.65824 0.44606 0.98324 0.0
H425 H 0.64311 0.44072 0.87955 0.0
H426 H 0.49259 0.31586 0.83714 0.0
H427 H 0.53476 0.36798 0.85553 0.0
H428 H 0.55769 0.37542 0.95374 0.0
C429 C 0.6704 0.46592 0.96762 0.0
C430 C 0.62439 0.42734 0.89599 0.0
C431 C 0.69992 0.49153 0.97673 0.0
C432 C 0.50494 0.31715 0.85835 0.0
C433 C 0.52912 0.3469 0.86881 0.0
C434 C 0.57611 0.38978 0.93734 0.0
C435 C 0.65776 0.46527 0.93818 0.0
C436 C 0.62785 0.43666 0.92711 0.0
C437 C 0.54597 0.34937 0.89605 0.0
C438 C 0.57307 0.38039 0.90639 0.0
H439 H 0.71765 0.53614 0.91154 0.0
H440 H 0.66576 0.49267 0.8963 0.0
H441 H 0.60435 0.4242 0.97149 0.0
H442 H 0.50916 0.27093 0.91525 0.0
H443 H 0.55063 0.32265 0.93365 0.0
C444 C 0.32544 0.40409 0.07849 0.0
C445 C 0.29562 0.38319 0.06546 0.0
C446 C 0.33976 0.39291 0.09921 0.0
C447 C 0.33137 0.3181 0.13447 0.0
H448 H 0.37662 0.37507 0.20218 0.0
C449 C 0.35602 0.27551 0.25005 0.0
C450 C 0.38865 0.28847 0.25645 0.0
C451 C 0.3459 0.28871 0.22709 0.0
C452 C 0.3641 0.35901 0.18334 0.0
H453 H 0.25795 0.33398 0.06302 0.0
H454 H 0.28205 0.31461 0.09979 0.0
H455 H 0.35779 0.39394 0.15944 0.0
H456 H 0.43602 0.32659 0.24517 0.0
H457 H 0.41804 0.35055 0.20595 0.0
H458 H 0.33645 0.28277 0.15958 0.0
C459 C 0.29515 0.33951 0.09353 0.0
C460 C 0.35356 0.36983 0.15858 0.0
C461 C 0.28122 0.3506 0.07226 0.0
C462 C 0.41073 0.31617 0.24082 0.0
C463 C 0.4005 0.32981 0.21836 0.0
C464 C 0.34127 0.30712 0.15957 0.0
C465 C 0.32419 0.36065 0.10807 0.0
C466 C 0.33695 0.34953 0.13372 0.0
C467 C 0.3681 0.31557 0.21064 0.0
C468 C 0.35764 0.32745 0.18423 0.0
H469 H 0.33708 0.42935 0.07364 0.0
H470 H 0.36258 0.40985 0.109 0.0
H471 H 0.31936 0.30184 0.11566 0.0
H472 H 0.33841 0.254 0.26142 0.0
H473 H 0.32076 0.27747 0.22164 0.0
C474 C 0.91506 0.3169 0.24919 0.0
C475 C 0.90713 0.28633 0.23874 0.0
C476 C 0.93894 0.33246 0.2715 0.0
C477 C 0.97304 0.31285 0.33642 0.0
H478 H 0.04745 0.39686 0.32999 0.0
C479 C 0.08212 0.35128 0.41348 0.0
C480 C 0.10152 0.38339 0.42176 0.0
C481 C 0.05632 0.34198 0.3936 0.0
C482 C 0.02646 0.37363 0.3325 0.0
H483 H 0.91973 0.24925 0.24218 0.0
H484 H 0.96065 0.2761 0.28104 0.0
H485 H 0.00753 0.3771 0.28879 0.0
H486 H 0.10785 0.43071 0.41667 0.0
H487 H 0.06216 0.41427 0.38238 0.0
H488 H 0.99138 0.30906 0.37993 0.0
C489 C 0.94825 0.28788 0.27223 0.0
C490 C 1.00373 0.36231 0.3088 0.0
C491 C 0.92485 0.27259 0.24981 0.0
C492 C 0.09345 0.40577 0.41077 0.0
C493 C 0.06743 0.39639 0.39084 0.0
C494 C 0.99541 0.32424 0.3602 0.0
C495 C 0.95495 0.31753 0.28392 0.0
C496 C 0.9773 0.33145 0.3102 0.0
C497 C 0.04888 0.36443 0.38154 0.0
C498 C 0.02295 0.35439 0.35819 0.0
H499 H 0.90194 0.3282 0.24115 0.0
H500 H 0.94382 0.35542 0.28008 0.0
H501 H 0.95254 0.28916 0.3383 0.0
H502 H 0.08755 0.33333 0.42143 0.0
H503 H 0.04302 0.31724 0.38671 0.0
C504 C 0.73088 0.07727 0.58513 0.0
C505 C 0.71836 0.09757 0.58966 0.0
C506 C 0.71706 0.05261 0.56361 0.0
C507 C 0.64747 1.00045 0.5179 0.0
H508 H 0.70793 0.01378 0.45342 0.0
C509 C 0.61022 0.91909 0.41022 0.0
C510 C 0.63227 0.91023 0.40027 0.0
C511 C 0.61915 0.94357 0.43185 0.0
C512 C 0.69075 0.00931 0.47134 0.0
H513 H 0.67998 0.10623 0.5773 0.0
H514 H 0.6551 0.0622 0.54052 0.0
H515 H 0.72486 0.04926 0.49758 0.0
H516 H 0.68147 0.92139 0.40413 0.0
H517 H 0.69656 0.96278 0.44195 0.0
H518 H 0.61363 0.9597 0.49242 0.0
C519 C 0.67588 0.0658 0.55326 0.0
C520 C 0.70051 0.02974 0.49661 0.0
C521 C 0.69008 0.0909 0.57432 0.0
C522 C 0.66375 0.92745 0.41123 0.0
C523 C 0.67253 0.95153 0.43293 0.0
C524 C 0.6378 0.97949 0.49285 0.0
C525 C 0.69008 0.04737 0.54678 0.0
C526 C 0.6791 0.02532 0.52026 0.0
C527 C 0.65027 0.9596 0.44406 0.0
C528 C 0.65945 0.98342 0.46937 0.0
H529 H 0.7528 0.08196 0.59633 0.0
H530 H 0.72828 0.03853 0.55907 0.0
H531 H 0.63051 0.99674 0.53583 0.0
H532 H 0.58579 0.90638 0.40223 0.0
H533 H 0.60149 0.94951 0.4394 0.0
C534 C 0.60991 0.68721 0.74597 0.0
C535 C 0.63061 0.71637 0.76019 0.0
C536 C 0.62131 0.67428 0.7241 0.0
C537 C 0.696 0.68482 0.6874 0.0
H538 H 0.63965 0.64589 0.61761 0.0
C539 C 0.74043 0.66393 0.572 0.0
C540 C 0.72537 0.63162 0.56367 0.0
C541 C 0.72725 0.67425 0.59466 0.0
C542 C 0.65557 0.65671 0.63698 0.0
H543 H 0.67981 0.75401 0.76387 0.0
H544 H 0.69956 0.73218 0.72527 0.0
H545 H 0.62082 0.66195 0.66228 0.0
H546 H 0.68356 0.58538 0.57067 0.0
H547 H 0.65982 0.6038 0.60931 0.0
H548 H 0.73109 0.68056 0.66122 0.0
C549 C 0.67461 0.71867 0.73133 0.0
C550 C 0.64474 0.6656 0.66281 0.0
C551 C 0.6633 0.73125 0.75365 0.0
C552 C 0.69557 0.61043 0.57653 0.0
C553 C 0.68206 0.62091 0.5987 0.0
C554 C 0.70698 0.67649 0.66131 0.0
C555 C 0.65358 0.69059 0.71541 0.0
C556 C 0.66477 0.67976 0.68847 0.0
C557 C 0.69844 0.65262 0.60884 0.0
C558 C 0.68688 0.66239 0.63588 0.0
H559 H 0.5846 0.6752 0.75062 0.0
H560 H 0.6045 0.65209 0.71317 0.0
H561 H 0.71201 0.69506 0.70676 0.0
H562 H 0.76359 0.68075 0.56281 0.0
H563 H 0.74016 0.69889 0.60196 0.0
C564 C 0.07046 0.70829 0.7335 0.0
C565 C 0.09799 0.70589 0.73665 0.0
C566 C 0.04479 0.6919 0.75342 0.0
C567 C 0.01177 0.6321 0.81711 0.0
H568 H 0.97913 0.68658 0.84377 0.0
C569 C 0.93124 0.647 0.91909 0.0
C570 C 0.90494 0.61604 0.92016 0.0
C571 C 0.95586 0.65479 0.89822 0.0
C572 C 0.9882 0.67113 0.83697 0.0
H573 H 0.11955 0.6829 0.76186 0.0
H574 H 0.07501 0.6548 0.79729 0.0
H575 H 0.01771 0.70404 0.80276 0.0
H576 H 0.88473 0.56844 0.90142 0.0
H577 H 0.92748 0.58219 0.86436 0.0
H578 H 0.9827 0.59965 0.8524 0.0
C579 C 0.0729 0.66886 0.77906 0.0
C580 C 0.00996 0.6809 0.81288 0.0
C581 C 0.09844 0.6849 0.75869 0.0
C582 C 0.90479 0.59248 0.90125 0.0
C583 C 0.92932 0.6004 0.87997 0.0
C584 C 0.98994 0.62232 0.84146 0.0
C585 C 0.04633 0.67328 0.77749 0.0
C586 C 0.02205 0.66158 0.8025 0.0
C587 C 0.95458 0.63195 0.87745 0.0
C588 C 0.97804 0.64186 0.85182 0.0
H589 H 0.06945 0.72421 0.71659 0.0
H590 H 0.02432 0.69508 0.75084 0.0
H591 H 0.02047 0.61654 0.80968 0.0
H592 H 0.93218 0.66558 0.93362 0.0
H593 H 0.97541 0.67909 0.89764 0.0
C594 C 0.41016 0.08804 0.90614 0.0
C595 C 0.38838 0.09544 0.89222 0.0
C596 C 0.39964 0.06266 0.92685 0.0
C597 C 0.34305 0.02864 0.98625 0.0
H598 H 0.3517 0.95339 0.98504 0.0
C599 C 0.27645 0.92748 0.07232 0.0
C600 C 0.28872 0.90783 0.08126 0.0
C601 C 0.29183 0.95116 0.05028 0.0
C602 C 0.34968 0.97461 0.9861 0.0
H603 H 0.33832 0.08072 0.88768 0.0
H604 H 0.32016 0.0369 0.92439 0.0
H605 H 0.37153 0.99074 0.94178 0.0
H606 H 0.32802 0.89902 0.07506 0.0
H607 H 0.35575 0.94144 0.03722 0.0
H608 H 0.32244 0.01379 0.03069 0.0
C609 C 0.34528 0.05061 0.91895 0.0
C610 C 0.36075 0.99575 0.96115 0.0
C611 C 0.35568 0.07553 0.89777 0.0
C612 C 0.31787 0.91369 0.0687 0.0
C613 C 0.33355 0.93778 0.04671 0.0
C614 C 0.33264 0.00801 0.01137 0.0
C615 C 0.36726 0.04465 0.93436 0.0
C616 C 0.35684 0.02253 0.96081 0.0
C617 C 0.32036 0.95641 0.03673 0.0
C618 C 0.33504 0.98024 0.01141 0.0
H619 H 0.4355 0.10301 0.90235 0.0
H620 H 0.41699 0.0585 0.93854 0.0
H621 H 0.34044 0.04957 0.98674 0.0
H622 H 0.25406 0.92377 0.08139 0.0
H623 H 0.28045 0.96443 0.04299 0.0
C624 C 0.51018 0.66864 0.84113 0.0
C625 C 0.51965 0.69992 0.85036 0.0
C626 C 0.48693 0.64269 0.85752 0.0
C627 C 0.4452 0.61924 0.93208 0.0
H628 H 0.37832 0.55051 0.88476 0.0
C629 C 0.34475 0.50639 0.98936 0.0
C630 C 0.31375 0.49616 0.97852 0.0
C631 C 0.37117 0.52978 0.97359 0.0
C632 C 0.39679 0.56956 0.89828 0.0
H633 H 0.51283 0.72841 0.88465 0.0
H634 H 0.47208 0.68309 0.91306 0.0
H635 H 0.42255 0.59467 0.85821 0.0
H636 H 0.28628 0.50197 0.94218 0.0
H637 H 0.33236 0.5429 0.91485 0.0
H638 H 0.41893 0.59455 0.97213 0.0
C639 C 0.4828 0.67867 0.89326 0.0
C640 C 0.4223 0.59467 0.8831 0.0
C641 C 0.50601 0.70464 0.87685 0.0
C642 C 0.30981 0.50935 0.95121 0.0
C643 C 0.33623 0.53267 0.93542 0.0
C644 C 0.41972 0.59407 0.94727 0.0
C645 C 0.47272 0.64743 0.88354 0.0
C646 C 0.44662 0.61994 0.89982 0.0
C647 C 0.36717 0.54333 0.94658 0.0
C648 C 0.39508 0.56913 0.93051 0.0
H649 H 0.52037 0.66413 0.82097 0.0
H650 H 0.47999 0.61888 0.84975 0.0
H651 H 0.46374 0.63823 0.94559 0.0
H652 H 0.34866 0.4966 0.01022 0.0
H653 H 0.39475 0.53723 0.98253 0.0
C654 C 0.8273 0.52103 0.05052 0.0
C655 C 0.82102 0.51826 0.01876 0.0
C656 C 0.83135 0.49811 0.06607 0.0
C657 C 0.84859 0.43273 0.05502 0.0
H658 H 0.80198 0.40089 0.13124 0.0
C659 C 0.82304 0.31411 0.11003 0.0
C660 C 0.82301 0.31203 0.14227 0.0
C661 C 0.82686 0.34155 0.09568 0.0
C662 C 0.81561 0.40987 0.11029 0.0
H663 H 0.8151 0.4897 0.97827 0.0
H664 H 0.82192 0.44953 0.00554 0.0
H665 H 0.80132 0.44475 0.10471 0.0
H666 H 0.82839 0.3378 0.18468 0.0
H667 H 0.83545 0.38583 0.15957 0.0
H668 H 0.86255 0.39752 0.06045 0.0
C669 C 0.8239 0.46959 0.01833 0.0
C670 C 0.81519 0.43499 0.09506 0.0
C671 C 0.81979 0.4925 0.00275 0.0
C672 C 0.82798 0.33846 0.1598 0.0
C673 C 0.83189 0.36595 0.14542 0.0
C674 C 0.84909 0.40763 0.07032 0.0
C675 C 0.82931 0.47195 0.05022 0.0
C676 C 0.8314 0.44648 0.06711 0.0
C677 C 0.83088 0.36761 0.11321 0.0
C678 C 0.83232 0.3957 0.09796 0.0
H679 H 0.82874 0.54073 0.06354 0.0
H680 H 0.83596 0.5008 0.09057 0.0
H681 H 0.86165 0.44139 0.03372 0.0
H682 H 0.8194 0.29426 0.09579 0.0
H683 H 0.82562 0.34191 0.07084 0.0
C684 C 0.33883 0.82658 0.15981 0.0
C685 C 0.31456 0.8262 0.17773 0.0
C686 C 0.36667 0.83051 0.17363 0.0
C687 C 0.41397 0.8564 0.24604 0.0
H688 H 0.44513 0.80102 0.21829 0.0
C689 C 0.50032 0.83147 0.31716 0.0
C690 C 0.52392 0.82855 0.30121 0.0
C691 C 0.47721 0.83501 0.30113 0.0
C692 C 0.43705 0.817 0.22604 0.0
H693 H 0.30105 0.8306 0.22423 0.0
H694 H 0.34916 0.83688 0.24822 0.0
H695 H 0.40055 0.80036 0.19174 0.0
H696 H 0.54245 0.82846 0.25584 0.0
H697 H 0.5023 0.83478 0.22807 0.0
H698 H 0.45013 0.87246 0.28081 0.0
C699 C 0.34693 0.83454 0.22346 0.0
C700 C 0.41149 0.81666 0.21078 0.0
C701 C 0.31917 0.83067 0.20967 0.0
C702 C 0.52449 0.83035 0.26892 0.0
C703 C 0.50138 0.83382 0.25294 0.0
C704 C 0.43949 0.85666 0.26138 0.0
C705 C 0.37088 0.83415 0.20568 0.0
C706 C 0.39942 0.83614 0.22075 0.0
C707 C 0.47717 0.83568 0.26882 0.0
C708 C 0.45115 0.83677 0.2517 0.0
H709 H 0.33618 0.82343 0.13513 0.0
H710 H 0.38486 0.83058 0.1592 0.0
H711 H 0.40559 0.87207 0.25403 0.0
H712 H 0.49918 0.83024 0.34201 0.0
H713 H 0.45873 0.83614 0.31404 0.0
C714 C 0.70829 0.50471 0.44603 0.0
C715 C 0.70471 0.52061 0.47134 0.0
C716 C 0.68162 0.48047 0.43124 0.0
C717 C 0.59518 0.44561 0.42012 0.0
H718 H 0.59763 0.36801 0.40525 0.0
C719 C 0.50668 0.30546 0.38534 0.0
C720 C 0.49214 0.30879 0.35869 0.0
C721 C 0.531 0.33219 0.39994 0.0
C722 C 0.59649 0.38943 0.40948 0.0
H723 H 0.67027 0.52457 0.50001 0.0
H724 H 0.62372 0.48214 0.47415 0.0
H725 H 0.6438 0.41388 0.42765 0.0
H726 H 0.49059 0.34296 0.32745 0.0
H727 H 0.53316 0.38963 0.35303 0.0
H728 H 0.54764 0.42088 0.40206 0.0
C729 C 0.64718 0.48848 0.4658 0.0
C730 C 0.62307 0.41582 0.42192 0.0
C731 C 0.67386 0.51264 0.48071 0.0
C732 C 0.50145 0.33954 0.34781 0.0
C733 C 0.5257 0.3663 0.36254 0.0
C734 C 0.5686 0.41921 0.40743 0.0
C735 C 0.65082 0.47174 0.44133 0.0
C736 C 0.6227 0.44416 0.42739 0.0
C737 C 0.54118 0.36282 0.38834 0.0
C738 C 0.56898 0.39083 0.40212 0.0
H739 H 0.73169 0.51041 0.43805 0.0
H740 H 0.68509 0.46827 0.41211 0.0
H741 H 0.59432 0.46723 0.42399 0.0
H742 H 0.49992 0.28215 0.39448 0.0
H743 H 0.54219 0.32886 0.42011 0.0
C744 C 0.18646 0.70025 0.60944 0.0
C745 C 0.18926 0.70077 0.64165 0.0
C746 C 0.18264 0.67408 0.59259 0.0
C747 C 0.15898 0.58916 0.59965 0.0
H748 H 0.21176 0.60561 0.52755 0.0
C749 C 0.18285 0.49476 0.54572 0.0
C750 C 0.18567 0.49428 0.5136 0.0
C751 C 0.17929 0.51858 0.55991 0.0
C752 C 0.19643 0.60055 0.54729 0.0
H753 H 0.18955 0.67381 0.68141 0.0
H754 H 0.18315 0.62832 0.65195 0.0
H755 H 0.21305 0.64995 0.55503 0.0
H756 H 0.1856 0.51778 0.47113 0.0
H757 H 0.17905 0.55919 0.49595 0.0
H758 H 0.14268 0.53976 0.59215 0.0
C759 C 0.18365 0.64807 0.63977 0.0
C760 C 0.19721 0.62598 0.56307 0.0
C761 C 0.18756 0.67426 0.65663 0.0
C762 C 0.18375 0.51757 0.49593 0.0
C763 C 0.18016 0.54141 0.51015 0.0
C764 C 0.15813 0.56371 0.58383 0.0
C765 C 0.18138 0.64779 0.60756 0.0
C766 C 0.17883 0.62059 0.58966 0.0
C767 C 0.17837 0.54245 0.54234 0.0
C768 C 0.17719 0.56915 0.55771 0.0
H769 H 0.18743 0.72017 0.59716 0.0
H770 H 0.1806 0.67439 0.56781 0.0
H771 H 0.14416 0.58424 0.61978 0.0
H772 H 0.18411 0.47714 0.56006 0.0
H773 H 0.17833 0.51887 0.58477 0.0
C774 C 0.50895 0.20913 0.77473 0.0
C775 C 0.49436 0.18959 0.80036 0.0
C776 C 0.53197 0.20627 0.75811 0.0
C777 C 0.59041 0.18014 0.76793 0.0
H778 H 0.59727 0.18802 0.67921 0.0
C779 C 0.67066 0.17225 0.66328 0.0
C780 C 0.70133 0.19212 0.67529 0.0
C781 C 0.64392 0.16924 0.67832 0.0
C782 C 0.59547 0.18546 0.70397 0.0
H783 H 0.49134 0.15066 0.82771 0.0
H784 H 0.53133 0.14563 0.79856 0.0
H785 H 0.55192 0.18665 0.70495 0.0
H786 H 0.72791 0.22384 0.71285 0.0
H787 H 0.68121 0.21868 0.73896 0.0
H788 H 0.6339 0.17893 0.767 0.0
C789 C 0.52539 0.16352 0.7917 0.0
C790 C 0.56971 0.185 0.7187 0.0
C791 C 0.50241 0.16637 0.80831 0.0
C792 C 0.70464 0.20841 0.70295 0.0
C793 C 0.67788 0.2053 0.71802 0.0
C794 C 0.61618 0.18069 0.75323 0.0
C795 C 0.54079 0.1838 0.76676 0.0
C796 C 0.56707 0.18259 0.75085 0.0
C797 C 0.6473 0.18588 0.70572 0.0
C798 C 0.61911 0.18365 0.72114 0.0
H799 H 0.5032 0.22717 0.76795 0.0
H800 H 0.54364 0.22239 0.73912 0.0
H801 H 0.58919 0.1786 0.79278 0.0
H802 H 0.66727 0.15923 0.64209 0.0
H803 H 0.62058 0.1538 0.66855 0.0
C804 C 0.26255 0.38416 0.9279 0.0
C805 C 0.23522 0.36565 0.94573 0.0
C806 C 0.27614 0.36958 0.91064 0.0
C807 C 0.2816 0.2973 0.91539 0.0
H808 H 0.32109 0.31992 0.835 0.0
C809 C 0.32816 0.22226 0.8619 0.0
C810 C 0.35878 0.238 0.8491 0.0
C811 C 0.31221 0.23873 0.86842 0.0
C812 C 0.31036 0.31357 0.85757 0.0
H813 H 0.199 0.31741 0.95706 0.0
H814 H 0.22218 0.29212 0.92661 0.0
H815 H 0.29376 0.34723 0.8553 0.0
H816 H 0.39609 0.28298 0.83142 0.0
H817 H 0.36828 0.31238 0.84364 0.0
H818 H 0.29837 0.26429 0.91831 0.0
C819 C 0.23368 0.31786 0.92658 0.0
C820 C 0.29469 0.32913 0.86913 0.0
C821 C 0.22029 0.33235 0.9439 0.0
C822 C 0.37246 0.27032 0.84127 0.0
C823 C 0.35654 0.28708 0.84824 0.0
C824 C 0.29721 0.28198 0.90399 0.0
C825 C 0.26252 0.33629 0.9109 0.0
C826 C 0.2797 0.32072 0.89801 0.0
C827 C 0.32666 0.27159 0.86286 0.0
C828 C 0.31134 0.28946 0.87476 0.0
H829 H 0.27466 0.40991 0.92895 0.0
H830 H 0.29836 0.3844 0.89878 0.0
H831 H 0.27124 0.29096 0.93812 0.0
H832 H 0.31678 0.1972 0.86768 0.0
H833 H 0.28884 0.22584 0.8788 0.0
C834 C 0.89196 0.21865 0.10369 0.0
C835 C 0.87479 0.23468 0.10678 0.0
C836 C 0.91945 0.23156 0.08584 0.0
C837 C 0.9714 0.29544 0.03113 0.0
H838 H 0.03773 0.29291 0.07896 0.0
C839 C 0.10903 0.37324 0.00858 0.0
C840 C 0.12698 0.35841 0.01506 0.0
C841 C 0.07607 0.35709 0.01412 0.0
C842 C 0.0195 0.29349 0.06497 0.0
H843 H 0.87154 0.27572 0.09258 0.0
H844 H 0.92028 0.29887 0.06152 0.0
H845 H 0.9836 0.26568 0.09764 0.0
H846 H 0.12439 0.31442 0.02953 0.0
H847 H 0.06731 0.28614 0.03812 0.0
H848 H 0.00809 0.32394 -0.00139 0.0
C849 C 0.91214 0.27599 0.07238 0.0
C850 C 0.98833 0.27777 0.0757 0.0
C851 C 0.88423 0.26274 0.09004 0.0
C852 C 0.11121 0.32661 0.02485 0.0
C853 C 0.07851 0.31046 0.02992 0.0
C854 C 1.00289 0.31127 0.02025 0.0
C855 C 0.93081 0.26121 0.0713 0.0
C856 C 0.96377 0.27815 0.05883 0.0
C857 C 0.06072 0.32587 0.02593 0.0
C858 C 0.0272 0.31007 0.03694 0.0
H859 H 0.88513 0.19705 0.11658 0.0
H860 H 0.93287 0.21921 0.0849 0.0
H861 H 0.953 0.29633 0.01772 0.0
H862 H 0.12072 0.3978 0.00105 0.0
H863 H 0.06301 0.3696 0.01078 0.0
C864 C 0.63133 0.88459 0.25545 0.0
C865 C 0.65148 0.87636 0.27119 0.0
C866 C 0.64416 0.91199 0.23712 0.0
C867 C 0.71977 0.98888 0.23105 0.0
H868 H 0.67813 0.0038 0.16195 0.0
C869 C 0.78171 0.10579 0.16596 0.0
C870 C 0.76544 0.12303 0.16575 0.0
C871 C 0.76583 0.07348 0.17308 0.0
C872 C 0.68989 0.99985 0.18127 0.0
H873 H 0.70032 0.88846 0.27875 0.0
H874 H 0.72279 0.93484 0.24511 0.0
H875 H 0.65509 0.95021 0.18401 0.0
H876 H 0.71914 0.11919 0.17059 0.0
H877 H 0.69115 0.0621 0.18292 0.0
H878 H 0.75469 0.03821 0.22808 0.0
C879 C 0.69719 0.92125 0.24777 0.0
C880 C 0.67672 0.96923 0.19398 0.0
C881 C 0.68439 0.8944 0.26665 0.0
C882 C 0.73233 0.10657 0.17056 0.0
C883 C 0.71631 0.07395 0.17759 0.0
C884 C 0.73306 0.01912 0.2181 0.0
C885 C 0.67738 0.93136 0.23396 0.0
C886 C 0.69157 0.96334 0.21907 0.0
C887 C 0.73325 0.05748 0.18001 0.0
C888 C 0.71835 0.02495 0.1931 0.0
H889 H 0.60584 0.87124 0.25915 0.0
H890 H 0.62808 0.91896 0.22711 0.0
H891 H 0.73141 0.98583 0.25097 0.0
H892 H 0.80713 0.11756 0.16199 0.0
H893 H 0.77934 0.06121 0.17439 0.0
C894 C 0.67942 0.77429 0.32963 0.0
C895 C 0.64663 0.762 0.33423 0.0
C896 C 0.69394 0.75674 0.33818 0.0
C897 C 0.68704 0.70143 0.39694 0.0
H898 H 0.75083 0.69293 0.35088 0.0
C899 C 0.78055 0.67957 0.45552 0.0
C900 C 0.78094 0.65202 0.44612 0.0
C901 C 0.76407 0.69117 0.43847 0.0
C902 C 0.73295 0.69502 0.36388 0.0
H903 H 0.60311 0.72116 0.35026 0.0
H904 H 0.62871 0.69069 0.36593 0.0
H905 H 0.7202 0.71454 0.32563 0.0
H906 H 0.7656 0.61606 0.41047 0.0
H907 H 0.73759 0.63721 0.38003 0.0
H908 H 0.70062 0.68326 0.43548 0.0
C909 C 0.64303 0.71381 0.35536 0.0
C910 C 0.7155 0.70738 0.34951 0.0
C911 C 0.62836 0.73113 0.34622 0.0
C912 C 0.76584 0.63737 0.41831 0.0
C913 C 0.7498 0.6494 0.4009 0.0
C914 C 0.70487 0.68972 0.41141 0.0
C915 C 0.67608 0.72678 0.35207 0.0
C916 C 0.69252 0.71089 0.36599 0.0
C917 C 0.74805 0.67588 0.41133 0.0
C918 C 0.7282 0.68671 0.39513 0.0
H919 H 0.6941 0.79803 0.32044 0.0
H920 H 0.71947 0.76741 0.33558 0.0
H921 H 0.66977 0.70421 0.4103 0.0
H922 H 0.79171 0.69139 0.47688 0.0
H923 H 0.76329 0.71181 0.44683 0.0
C924 C 0.13404 0.75819 0.58978 0.0
C925 C 0.13247 0.77606 0.61438 0.0
C926 C 0.10941 0.74489 0.568 0.0
C927 C 0.03884 0.69837 0.55112 0.0
H928 H 0.99753 0.7416 0.51485 0.0
C929 C 0.90451 0.64765 0.54182 0.0
C930 C 0.89135 0.64879 0.5134 0.0
C931 C 0.93737 0.66171 0.54542 0.0
C932 C 0.00912 0.72927 0.52424 0.0
H933 H 0.10545 0.79592 0.63456 0.0
H934 H 0.06316 0.77383 0.59595 0.0
H935 H 0.05137 0.77281 0.53631 0.0
H936 H 0.90194 0.66505 0.46628 0.0
H937 H 0.96021 0.69125 0.47305 0.0
H938 H 0.99551 0.65494 0.54155 0.0
C939 C 0.08311 0.76979 0.59355 0.0
C940 C 0.03978 0.74708 0.5366 0.0
C941 C 0.1072 0.78232 0.61569 0.0
C942 C 0.91163 0.66374 0.48834 0.0
C943 C 0.94478 0.67871 0.49221 0.0
C944 C 0.00797 0.68061 0.53932 0.0
C945 C 0.0834 0.75006 0.57011 0.0
C946 C 0.05451 0.73178 0.55098 0.0
C947 C 0.95783 0.67789 0.52088 0.0
C948 C 0.99253 0.69596 0.52664 0.0
H949 H 0.15313 0.75273 0.58858 0.0
H950 H 0.11004 0.72961 0.55021 0.0
H951 H 0.0495 0.686 0.56238 0.0
H952 H 0.8893 0.63618 0.56144 0.0
H953 H 0.94689 0.66107 0.56781 0.0
C954 C 0.33003 0.11948 0.7741 0.0
C955 C 0.36336 0.13684 0.77616 0.0
C956 C 0.31479 0.09123 0.75728 0.0
C957 C 0.32732 0.03839 0.70341 0.0
H958 H 0.25423 0.97275 0.74691 0.0
C959 C 0.26979 0.90134 0.68256 0.0
C960 C 0.23631 0.88363 0.68337 0.0
C961 C 0.28593 0.93402 0.68915 0.0
C962 C 0.27436 0.99086 0.73424 0.0
H963 H 0.407 0.13925 0.76083 0.0
H964 H 0.38041 0.08935 0.73215 0.0
H965 H 0.28076 0.02682 0.76619 0.0
H966 H 0.19362 0.88686 0.69003 0.0
H967 H 0.22166 0.94342 0.70138 0.0
H968 H 0.32116 1.00152 0.67202 0.0
C969 C 0.36595 0.09782 0.74299 0.0
C970 C 0.28954 0.02201 0.7452 0.0
C971 C 0.38123 0.12647 0.75942 0.0
C972 C 0.2194 0.89959 0.68948 0.0
C973 C 0.23546 0.93205 0.6961 0.0
C974 C 0.31219 0.00696 0.69254 0.0
C975 C 0.3325 0.07924 0.74269 0.0
C976 C 0.3161 0.04631 0.72989 0.0
C977 C 0.26886 0.94947 0.69679 0.0
C978 C 0.28541 0.98294 0.70779 0.0
H979 H 0.31565 0.12708 0.78654 0.0
H980 H 0.28902 0.07813 0.75676 0.0
H981 H 0.34763 0.05648 0.69095 0.0
H982 H 0.28353 0.88978 0.67793 0.0
H983 H 0.31171 0.94685 0.68961 0.0
C984 C 0.78671 0.68579 0.97735 0.0
C985 C 0.77083 0.6538 0.98685 0.0
C986 C 0.7698 0.70142 0.97074 0.0
C987 C 0.68945 0.68449 0.94741 0.0
H988 H 0.72781 0.77593 0.95642 0.0
C989 C 0.62905 0.75273 0.89999 0.0
C990 C 0.64872 0.77781 0.88012 0.0
C991 C 0.64203 0.73896 0.91928 0.0
C992 C 0.71676 0.75037 0.95385 0.0
H993 H 0.72465 0.61359 -0.00191 0.0
H994 H 0.69507 0.64118 0.98725 0.0
H995 H 0.75336 0.74862 0.97988 0.0
H996 H 0.6976 0.80928 0.86629 0.0
H997 H 0.72024 0.78569 0.9004 0.0
H998 H 0.65298 0.68643 0.92117 0.0
C999 C 0.72066 0.65399 0.98432 0.0
C1000 C 0.73144 0.73468 0.96715 0.0
C1001 C 0.73764 0.63821 0.99079 0.0
C1002 C 0.6818 0.79002 0.88131 0.0
C1003 C 0.69479 0.77656 0.90093 0.0
C1004 C 0.67458 0.70015 0.93443 0.0
C1005 C 0.73648 0.68564 0.97362 0.0
C1006 C 0.71849 0.70163 0.96337 0.0
C1007 C 0.67497 0.75031 0.91948 0.0
C1008 C 0.6885 0.73336 0.93684 0.0
H1009 H 0.81224 0.69859 0.9739 0.0
H1010 H 0.78288 0.72554 0.96207 0.0
H1011 H 0.67891 0.65915 0.94359 0.0
H1012 H 0.60345 0.74261 0.8995 0.0
H1013 H 0.62622 0.71889 0.93349 0.0
C1014 C 0.10982 0.7374 0.15336 0.0
C1015 C 0.1259 0.77058 0.15765 0.0
C1016 C 0.07739 0.72095 0.1455 0.0
C1017 C 0.02129 0.73645 0.1039 0.0
H1018 H 0.9553 0.6548 0.13425 0.0
C1019 C 0.89578 0.68132 0.0538 0.0
C1020 C 0.88017 0.64865 0.04757 0.0
C1021 C 0.92269 0.69513 0.07275 0.0
C1022 C 0.97352 0.6775 0.12535 0.0
H1023 H 0.11987 0.81201 0.1595 0.0
H1024 H 0.06373 0.78344 0.14594 0.0
H1025 H 0.0085 0.68009 0.15756 0.0
H1026 H 0.87952 0.60446 0.0564 0.0
H1027 H 0.92717 0.62856 0.08885 0.0
H1028 H 0.98743 0.73372 0.07094 0.0
C1029 C 0.0762 0.77019 0.14813 0.0
C1030 C 1.00393 0.69197 0.13877 0.0
C1031 C 0.10839 0.78653 0.15601 0.0
C1032 C 0.89101 0.62968 0.06144 0.0
C1033 C 0.91829 0.64356 0.08003 0.0
C1034 C 0.9912 0.72194 0.09032 0.0
C1035 C 0.0606 0.73747 0.14172 0.0
C1036 C 0.02806 0.72169 0.12824 0.0
C1037 C 0.9351 0.67667 0.08515 0.0
C1038 C 0.96677 0.69232 0.10087 0.0
H1039 H 0.12264 0.72443 0.15437 0.0
H1040 H 0.06595 0.69571 0.14065 0.0
H1041 H 0.03959 0.75903 0.0948 0.0
H1042 H 0.88786 0.69635 0.04305 0.0
H1043 H 0.93442 0.72053 0.07677 0.0
C1044 C 0.32694 0.10511 0.30515 0.0
C1045 C 0.3559 0.12128 0.32127 0.0
C1046 C 0.31123 0.07217 0.30198 0.0
C1047 C 0.32698 0.00644 0.29709 0.0
H1048 H 0.23489 0.95793 0.29064 0.0
C1049 C 0.2575 0.88081 0.24017 0.0
C1050 C 0.23955 0.88166 0.21512 0.0
C1051 C 0.26995 0.90554 0.26187 0.0
C1052 C 0.2606 0.97099 0.29274 0.0
H1053 H 0.39062 0.11542 0.34761 0.0
H1054 H 0.36303 0.05718 0.34174 0.0
H1055 H 0.26052 0.01031 0.31482 0.0
H1056 H 0.21929 0.90795 0.19378 0.0
H1057 H 0.23996 0.95029 0.23202 0.0
H1058 H 0.32687 0.96739 0.2738 0.0
C1059 C 0.35258 0.0703 0.33167 0.0
C1060 C 0.27531 1.00102 0.30646 0.0
C1061 C 0.36825 0.10353 0.33519 0.0
C1062 C 0.23303 0.90672 0.21289 0.0
C1063 C 0.24473 0.93086 0.23486 0.0
C1064 C 0.31219 0.97617 0.28356 0.0
C1065 C 0.32405 0.05432 0.31466 0.0
C1066 C 0.3087 0.01976 0.30743 0.0
C1067 C 0.26381 0.93089 0.25924 0.0
C1068 C 0.27892 0.95884 0.28003 0.0
H1069 H 0.31671 0.11805 0.29424 0.0
H1070 H 0.28966 0.06085 0.28829 0.0
H1071 H 0.35274 0.02028 0.29734 0.0
H1072 H 0.2631 0.86187 0.24215 0.0
H1073 H 0.2847 0.90512 0.28042 0.0
C1074 C 0.37458 0.24867 0.4096 0.0
C1075 C 0.3608 0.23502 0.38105 0.0
C1076 C 0.36263 0.26471 0.42698 0.0
C1077 C 0.32517 0.31227 0.416 0.0
H1078 H 0.29549 0.29359 0.50021 0.0
C1079 C 0.28165 0.38736 0.47923 0.0
C1080 C 0.25015 0.36901 0.48962 0.0
C1081 C 0.29921 0.37271 0.47113 0.0
C1082 C 0.30402 0.29921 0.47679 0.0
H1083 H 0.32294 0.22671 0.34899 0.0
H1084 H 0.30271 0.25507 0.37901 0.0
H1085 H 0.31733 0.26305 0.47547 0.0
H1086 H 0.21318 0.32134 0.5018 0.0
H1087 H 0.24412 0.29595 0.4883 0.0
H1088 H 0.3117 0.34808 0.41696 0.0
C1089 C 0.32262 0.25322 0.38794 0.0
C1090 C 0.31652 0.28184 0.46273 0.0
C1091 C 0.33413 0.23678 0.37088 0.0
C1092 C 0.23739 0.33609 0.49378 0.0
C1093 C 0.25513 0.32156 0.4862 0.0
C1094 C 0.31328 0.32997 0.43018 0.0
C1095 C 0.33712 0.26786 0.41581 0.0
C1096 C 0.32654 0.2878 0.43198 0.0
C1097 C 0.2858 0.33955 0.47381 0.0
C1098 C 0.30204 0.32327 0.46052 0.0
H1099 H 0.39517 0.24781 0.41807 0.0
H1100 H 0.37417 0.27584 0.44844 0.0
H1101 H 0.33295 0.31742 0.39232 0.0
H1102 H 0.29206 0.41273 0.47562 0.0
H1103 H 0.32289 0.38714 0.46175 0.0
C1104 C 0.12178 0.33164 0.55494 0.0
C1105 C 0.13792 0.36473 0.5513 0.0
C1106 C 0.09498 0.31673 0.57367 0.0
C1107 C 0.04317 0.32841 0.629 0.0
H1108 H 0.97692 0.25752 0.58338 0.0
C1109 C 0.90586 0.27009 0.65033 0.0
C1110 C 0.8877 0.23725 0.64465 0.0
C1111 C 0.9389 0.28626 0.64548 0.0
C1112 C 0.99516 0.27687 0.5968 0.0
H1113 H 0.14025 0.4086 0.56536 0.0
H1114 H 0.09259 0.38243 0.59773 0.0
H1115 H 0.03073 0.28434 0.56404 0.0
H1116 H 0.88977 0.19502 0.63253 0.0
H1117 H 0.94709 0.22277 0.62521 0.0
H1118 H 0.00668 0.32099 0.66143 0.0
C1119 C 0.10102 0.36801 0.58674 0.0
C1120 C 0.02616 0.29227 0.5857 0.0
C1121 C 0.12829 0.38301 0.56829 0.0
C1122 C 0.90322 0.22046 0.63656 0.0
C1123 C 0.93602 0.2364 0.63224 0.0
C1124 C 0.01184 0.31283 0.64022 0.0
C1125 C 0.08326 0.33457 0.58844 0.0
C1126 C 0.05066 0.31806 0.60169 0.0
C1127 C 0.95407 0.26965 0.63522 0.0
C1128 C 0.98757 0.28669 0.62429 0.0
H1129 H 0.12885 0.31717 0.5419 0.0
H1130 H 0.08231 0.29099 0.57511 0.0
H1131 H 0.06151 0.34832 0.64176 0.0
H1132 H 0.89431 0.28349 0.65652 0.0
H1133 H 0.95217 0.3119 0.64796 0.0
C1134 C 0.7924 0.11921 0.71349 0.0
C1135 C 0.77698 0.13708 0.71069 0.0
C1136 C 0.77881 0.09118 0.73062 0.0
C1137 C 0.71611 0.04007 0.78612 0.0
H1138 H 0.71648 0.97293 0.73819 0.0
C1139 C 0.64068 0.90313 0.81319 0.0
C1140 C 0.65552 0.88531 0.80635 0.0
C1141 C 0.65601 0.93581 0.80633 0.0
C1142 C 0.71649 0.9914 0.75217 0.0
H1143 H 0.73631 0.14081 0.72551 0.0
H1144 H 0.71223 0.0913 0.75537 0.0
H1145 H 0.74297 0.0268 0.71852 0.0
H1146 H 0.69887 0.88801 0.78965 0.0
H1147 H 0.72575 0.9446 0.77871 0.0
H1148 H 0.68921 0.00402 0.81977 0.0
C1149 C 0.735 0.09922 0.74442 0.0
C1150 C 0.73173 0.02237 0.74085 0.0
C1151 C 0.74881 0.12757 0.72736 0.0
C1152 C 0.68663 0.90103 0.79467 0.0
C1153 C 0.70197 0.93346 0.78824 0.0
C1154 C 0.7008 0.00881 0.79761 0.0
C1155 C 0.74925 0.08008 0.74512 0.0
C1156 C 0.7322 0.04721 0.75781 0.0
C1157 C 0.68644 0.95104 0.79278 0.0
C1158 C 0.70129 0.98422 0.7809 0.0
H1159 H 0.81433 0.1261 0.70124 0.0
H1160 H 0.7908 0.07739 0.73136 0.0
H1161 H 0.71593 0.05872 0.79962 0.0
H1162 H 0.61665 0.89151 0.82215 0.0
H1163 H 0.64343 0.94871 0.81013 0.0
C1164 C 0.20128 0.35819 0.36987 0.0
C1165 C 0.21012 0.38904 0.37985 0.0
C1166 C 0.20734 0.35319 0.33959 0.0
C1167 C 0.25133 0.39478 0.26927 0.0
H1168 H 0.17183 0.34011 0.22685 0.0
C1169 C 0.22908 0.42067 0.1473 0.0
C1170 C 0.21631 0.39543 0.12617 0.0
C1171 C 0.23003 0.41469 0.17849 0.0
C1172 C 0.19432 0.35499 0.23838 0.0
H1173 H 0.2345 0.43898 0.36754 0.0
H1174 H 0.24537 0.43043 0.3151 0.0
H1175 H 0.17434 0.3375 0.28276 0.0
H1176 H 0.1926 0.344 0.12134 0.0
H1177 H 0.1939 0.3337 0.17607 0.0
H1178 H 0.2708 0.41358 0.22506 0.0
C1179 C 0.2337 0.41006 0.33026 0.0
C1180 C 0.19585 0.35333 0.2703 0.0
C1181 C 0.22719 0.41495 0.36015 0.0
C1182 C 0.20275 0.36399 0.13707 0.0
C1183 C 0.20353 0.35803 0.16833 0.0
C1184 C 0.24977 0.3965 0.23743 0.0
C1185 C 0.2229 0.37908 0.31937 0.0
C1186 C 0.22398 0.37426 0.28607 0.0
C1187 C 0.21802 0.38341 0.18912 0.0
C1188 C 0.22089 0.37763 0.22192 0.0
H1189 H 0.18812 0.33789 0.38482 0.0
H1190 H 0.19884 0.32911 0.33164 0.0
H1191 H 0.27338 0.41086 0.28094 0.0
H1192 H 0.2396 0.44513 0.13969 0.0
H1193 H 0.24061 0.43462 0.19428 0.0
C1194 C 0.81469 0.17061 0.51993 0.0
C1195 C 0.80145 0.18885 0.53062 0.0
C1196 C 0.81361 0.16351 0.48874 0.0
C1197 C 0.76582 0.15401 0.42066 0.0
H1198 H 0.84014 0.17056 0.37329 0.0
C1199 C 0.78302 0.19134 0.29673 0.0
C1200 C 0.80055 0.18319 0.27694 0.0
C1201 C 0.77759 0.18053 0.32687 0.0
C1202 C 0.81894 0.16483 0.38633 0.0
H1203 H 0.77859 0.21567 0.51675 0.0
H1204 H 0.77692 0.20338 0.46232 0.0
H1205 H 0.84442 0.17707 0.42907 0.0
H1206 H 0.82435 0.15567 0.27205 0.0
H1207 H 0.81539 0.13711 0.32557 0.0
H1208 H 0.74064 0.14313 0.37793 0.0
C1209 C 0.78756 0.19411 0.47823 0.0
C1210 C 0.82149 0.16882 0.41817 0.0
C1211 C 0.78888 0.20146 0.50931 0.0
C1212 C 0.81079 0.16226 0.28705 0.0
C1213 C 0.80576 0.15176 0.31755 0.0
C1214 C 0.76322 0.14984 0.38893 0.0
C1215 C 0.79908 0.17435 0.46786 0.0
C1216 C 0.7953 0.16487 0.4353 0.0
C1217 C 0.78991 0.16162 0.3379 0.0
C1218 C 0.79013 0.15672 0.37135 0.0
H1219 H 0.8247 0.16069 0.5358 0.0
H1220 H 0.8229 0.14846 0.48115 0.0
H1221 H 0.74511 0.15006 0.43361 0.0
H1222 H 0.77464 0.20723 0.28924 0.0
H1223 H 0.76564 0.18886 0.34208 0.0
C1224 C 0.58951 0.782 0.67856 0.0
C1225 C 0.61541 0.79322 0.69895 0.0
C1226 C 0.59418 0.78132 0.64705 0.0
C1227 C 0.65292 0.81557 0.58576 0.0
H1228 H 0.59266 0.73892 0.54239 0.0
C1229 C 0.65142 0.80877 0.45379 0.0
C1230 C 0.62129 0.8011 0.44241 0.0
C1231 C 0.65499 0.80287 0.48463 0.0
C1232 C 0.60984 0.76035 0.55424 0.0
H1233 H 0.66678 0.81421 0.70211 0.0
H1234 H 0.67483 0.8133 0.6469 0.0
H1235 H 0.59047 0.74086 0.59831 0.0
H1236 H 0.57104 0.77901 0.45307 0.0
H1237 H 0.57712 0.7685 0.50646 0.0
H1238 H 0.67132 0.83556 0.54155 0.0
C1239 C 0.65095 0.80479 0.65544 0.0
C1240 C 0.60845 0.76154 0.58614 0.0
C1241 C 0.64628 0.80531 0.68701 0.0
C1242 C 0.59457 0.78542 0.46147 0.0
C1243 C 0.59804 0.77913 0.49195 0.0
C1244 C 0.65425 0.81441 0.55377 0.0
C1245 C 0.62483 0.79203 0.63529 0.0
C1246 C 0.62922 0.78954 0.60206 0.0
C1247 C 0.62836 0.78868 0.50411 0.0
C1248 C 0.63193 0.78719 0.53769 0.0
H1249 H 0.56545 0.77264 0.68695 0.0
H1250 H 0.57372 0.77206 0.63187 0.0
H1251 H 0.66923 0.83742 0.59754 0.0
H1252 H 0.67235 0.82089 0.43942 0.0
H1253 H 0.67859 0.81032 0.4935 0.0
C1254 C 0.78287 0.59419 0.85893 0.0
C1255 C 0.80162 0.62046 0.87779 0.0
C1256 C 0.77798 0.59858 0.82828 0.0
C1257 C 0.82173 0.65242 0.76721 0.0
H1258 H 0.74684 0.59516 0.71983 0.0
C1259 C 0.8181 0.64479 0.63409 0.0
C1260 C 0.80255 0.61375 0.62196 0.0
C1261 C 0.81721 0.64977 0.66551 0.0
C1262 C 0.76791 0.61128 0.73282 0.0
H1263 H 0.82796 0.67195 0.88043 0.0
H1264 H 0.81976 0.67975 0.82614 0.0
H1265 H 0.74269 0.59853 0.77543 0.0
H1266 H 0.77554 0.56354 0.63348 0.0
H1267 H 0.77437 0.5723 0.68848 0.0
H1268 H 0.84718 0.66429 0.72468 0.0
C1269 C 0.80892 0.65578 0.83522 0.0
C1270 C 0.76548 0.61339 0.76451 0.0
C1271 C 0.8135 0.65135 0.86618 0.0
C1272 C 0.78768 0.58773 0.64208 0.0
C1273 C 0.78665 0.59274 0.67349 0.0
C1274 C 0.82413 0.65039 0.73546 0.0
C1275 C 0.79199 0.62936 0.81582 0.0
C1276 C 0.79263 0.63306 0.78212 0.0
C1277 C 0.80066 0.6238 0.68532 0.0
C1278 C 0.79749 0.62892 0.71821 0.0
H1279 H 0.77315 0.57013 0.86756 0.0
H1280 H 0.76508 0.57775 0.81387 0.0
H1281 H 0.84313 0.6675 0.78026 0.0
H1282 H 0.82989 0.66534 0.61915 0.0
H1283 H 0.82833 0.67393 0.67413 0.0
C1284 C 0.19333 0.78655 0.81492 0.0
C1285 C 0.18647 0.80292 0.79227 0.0
C1286 C 0.18672 0.78852 0.8456 0.0
C1287 C 0.17522 0.83438 0.90379 0.0
H1288 H 0.13192 0.75235 0.94475 0.0
C1289 C 0.16704 0.82303 0.03581 0.0
C1290 C 0.18281 0.80685 0.04549 0.0
C1291 C 0.15728 0.82093 0.00519 0.0
C1292 C 0.14352 0.77538 0.93356 0.0
H1293 H 0.1695 0.83613 0.78428 0.0
H1294 H 0.15848 0.84006 0.83868 0.0
H1295 H 0.13712 0.75469 0.88893 0.0
H1296 H 0.19872 0.77413 0.032 0.0
H1297 H 0.18095 0.76971 0.97892 0.0
H1298 H 0.1833 0.85502 0.94875 0.0
C1299 C 0.16851 0.82534 0.83225 0.0
C1300 C 0.14663 0.77674 0.90173 0.0
C1301 C 0.17501 0.82323 0.80126 0.0
C1302 C 0.18662 0.78681 0.02494 0.0
C1303 C 0.17629 0.78417 0.99467 0.0
C1304 C 0.17209 0.83302 0.93578 0.0
C1305 C 0.17326 0.80703 0.85442 0.0
C1306 C 0.16389 0.80621 0.88677 0.0
C1307 C 0.16248 0.80199 0.98426 0.0
C1308 C 0.15759 0.80347 0.95095 0.0
H1309 H 0.20262 0.77109 0.80881 0.0
H1310 H 0.19149 0.77493 0.86245 0.0
H1311 H 0.18854 0.85735 0.89268 0.0
H1312 H 0.16412 0.83883 0.05132 0.0
H1313 H 0.14672 0.83489 -0.0024 0.0
C1314 C 0.43154 0.20451 0.97403 0.0
C1315 C 0.40467 0.18962 0.95481 0.0
C1316 C 0.42821 0.20046 0.00571 0.0
C1317 C 0.37323 0.18195 0.06864 0.0
H1318 H 0.43069 0.16086 0.11139 0.0
C1319 C 0.43209 0.20425 0.19389 0.0
C1320 C 0.40536 0.19691 0.21196 0.0
C1321 C 0.42831 0.19514 0.16316 0.0
C1322 C 0.41446 0.16668 0.09974 0.0
H1323 H 0.35312 0.16029 0.95375 0.0
H1324 H 0.34741 0.15375 0.0094 0.0
H1325 H 0.43136 0.16334 0.05533 0.0
H1326 H 0.35367 0.17176 0.21301 0.0
H1327 H 0.34714 0.15555 0.15931 0.0
H1328 H 0.35737 0.18689 0.11288 0.0
C1329 C 0.37096 0.16814 -0.00025 0.0
C1330 C 0.41489 0.16814 0.06778 0.0
C1331 C 0.37428 0.17196 0.96799 0.0
C1332 C 0.37475 0.17831 0.19941 0.0
C1333 C 0.37097 0.16903 0.16872 0.0
C1334 C 0.37296 0.18074 0.10061 0.0
C1335 C 0.39798 0.18176 0.01872 0.0
C1336 C 0.3949 0.17665 0.05211 0.0
C1337 C 0.39775 0.17831 0.15006 0.0
C1338 C 0.3942 0.17395 0.11646 0.0
H1339 H 0.45527 0.21837 0.9646 0.0
H1340 H 0.44932 0.21175 0.02007 0.0
H1341 H 0.35768 0.18865 0.05696 0.0
H1342 H 0.45599 0.21833 0.203 0.0
H1343 H 0.44943 0.20291 0.14928 0.0
loop_
_geom_bond_atom_site_label_1
_geom_bond_atom_site_label_2
_geom_bond_distance
_geom_bond_site_symmetry_2
_ccdc_geom_bond_type
Fe0 O2 1.918 . S
Fe0 O5 1.997 . S
Fe0 O6 2.002 . S
Fe0 O11 1.976 . S
Fe0 O14 1.996 . S
Fe1 O2 1.918 . S
Fe1 O9 1.997 . S
Fe1 O12 1.996 . S
Fe1 O16 1.976 . S
Fe1 O19 2.002 . S
O2 Fe0 1.918 . S
O2 Fe1 1.918 . S
O2 Fe3 1.921 1_554 S
Fe3 O2 1.921 1_556 S
Fe3 O4 2.003 1_556 S
Fe3 O13 1.975 . S
Fe3 O17 1.995 . S
Fe3 O20 1.997 1_556 S
O4 Fe3 2.003 1_554 S
O4 C21 1.295 . S
O5 Fe0 1.997 . S
O5 C21 1.235 . S
O6 Fe0 2.002 . S
O6 C7 1.295 . S
C7 O6 1.295 . S
C7 O9 1.235 . S
C8 O13 1.287 . S
C8 O14 1.255 1_556 S
O9 Fe1 1.997 . S
O9 C7 1.235 . S
C10 O16 1.287 1_556 S
C10 O17 1.255 . S
O11 Fe0 1.976 . S
O11 C18 1.287 . S
O12 Fe1 1.996 . S
O12 C18 1.255 . S
O13 Fe3 1.975 . S
O13 C8 1.287 . S
O14 Fe0 1.996 . S
O14 C8 1.255 1_554 S
C15 O19 1.295 . S
C15 O20 1.235 . S
O16 Fe1 1.976 . S
O16 C10 1.287 1_554 S
O17 Fe3 1.995 . S
O17 C10 1.255 . S
C18 O11 1.287 . S
C18 O12 1.255 . S
O19 Fe1 2.002 . S
O19 C15 1.295 . S
O20 Fe3 1.997 1_554 S
O20 C15 1.235 . S
C21 O4 1.295 . S
C21 O5 1.235 . S
Fe22 O24 1.918 . S
Fe22 O27 1.997 . S
Fe22 O28 2.002 . S
Fe22 O33 1.976 . S
Fe22 O36 1.996 . S
Fe23 O24 1.918 . S
Fe23 O31 1.997 . S
Fe23 O34 1.996 . S
Fe23 O38 1.976 . S
Fe23 O41 2.002 . S
O24 Fe22 1.918 . S
O24 Fe23 1.918 . S
O24 Fe25 1.918 . S
Fe25 O24 1.918 . S
Fe25 O26 2.002 . S
Fe25 O35 1.976 . S
Fe25 O39 1.996 . S
Fe25 O42 1.997 . S
O26 Fe25 2.002 . S
O26 C43 1.295 . S
O27 Fe22 1.997 . S
O27 C43 1.235 . S
O28 Fe22 2.002 . S
O28 C29 1.295 . S
C29 O28 1.295 . S
C29 O31 1.235 . S
C30 O35 1.287 . S
C30 O36 1.255 . S
O31 Fe23 1.997 . S
O31 C29 1.235 . S
C32 O38 1.287 . S
C32 O39 1.255 . S
O33 Fe22 1.976 . S
O33 C40 1.287 . S
O34 Fe23 1.996 . S
O34 C40 1.255 . S
O35 Fe25 1.976 . S
O35 C30 1.287 . S
O36 Fe22 1.996 . S
O36 C30 1.255 . S
C37 O41 1.295 . S
C37 O42 1.235 . S
O38 Fe23 1.976 . S
O38 C32 1.287 . S
O39 Fe25 1.996 . S
O39 C32 1.255 . S
C40 O33 1.287 . S
C40 O34 1.255 . S
O41 Fe23 2.002 . S
O41 C37 1.295 . S
O42 Fe25 1.997 . S
O42 C37 1.235 . S
C43 O26 1.295 . S
C43 O27 1.235 . S
Fe44 O46 1.918 . S
Fe44 O49 1.997 . S
Fe44 O50 2.002 . S
Fe44 O55 1.976 . S
Fe44 O58 1.996 . S
Fe45 O46 1.918 . S
Fe45 O53 1.997 . S
Fe45 O56 1.996 . S
Fe45 O60 1.976 . S
Fe45 O63 2.002 . S
O46 Fe44 1.918 . S
O46 Fe45 1.918 . S
O46 Fe47 1.918 . S
Fe47 O46 1.918 . S
Fe47 O48 2.002 . S
Fe47 O57 1.976 . S
Fe47 O61 1.996 . S
Fe47 O64 1.997 . S
O48 Fe47 2.002 . S
O48 C65 1.295 . S
O49 Fe44 1.997 . S
O49 C65 1.235 . S
O50 Fe44 2.002 . S
O50 C51 1.295 . S
C51 O50 1.295 . S
C51 O53 1.235 . S
C52 O57 1.287 . S
C52 O58 1.255 . S
O53 Fe45 1.997 . S
O53 C51 1.235 . S
C54 O60 1.287 . S
C54 O61 1.255 . S
O55 Fe44 1.976 . S
O55 C62 1.287 . S
O56 Fe45 1.996 . S
O56 C62 1.255 . S
O57 Fe47 1.976 . S
O57 C52 1.287 . S
O58 Fe44 1.996 . S
O58 C52 1.255 . S
C59 O63 1.295 . S
C59 O64 1.235 . S
O60 Fe45 1.976 . S
O60 C54 1.287 . S
O61 Fe47 1.996 . S
O61 C54 1.255 . S
C62 O55 1.287 . S
C62 O56 1.255 . S
O63 Fe45 2.002 . S
O63 C59 1.295 . S
O64 Fe47 1.997 . S
O64 C59 1.235 . S
C65 O48 1.295 . S
C65 O49 1.235 . S
Fe66 O68 1.918 . S
Fe66 O71 1.997 . S
Fe66 O72 2.002 . S
Fe66 O77 1.976 . S
Fe66 O80 1.996 . S
Fe67 O68 1.918 . S
Fe67 O75 1.997 . S
Fe67 O78 1.996 . S
Fe67 O82 1.976 . S
Fe67 O85 2.002 . S
O68 Fe66 1.918 . S
O68 Fe67 1.918 . S
O68 Fe69 1.918 . S
Fe69 O68 1.918 . S
Fe69 O70 2.002 . S
Fe69 O79 1.976 . S
Fe69 O83 1.996 . S
Fe69 O86 1.997 . S
O70 Fe69 2.002 . S
O70 C87 1.295 . S
O71 Fe66 1.997 . S
O71 C87 1.235 . S
O72 Fe66 2.002 . S
O72 C73 1.295 . S
C73 O72 1.295 . S
C73 O75 1.235 . S
C74 O79 1.287 . S
C74 O80 1.255 . S
O75 Fe67 1.997 . S
O75 C73 1.235 . S
C76 O82 1.287 . S
C76 O83 1.255 . S
O77 Fe66 1.976 . S
O77 C84 1.287 . S
O78 Fe67 1.996 . S
O78 C84 1.255 . S
O79 Fe69 1.976 . S
O79 C74 1.287 . S
O80 Fe66 1.996 . S
O80 C74 1.255 . S
C81 O85 1.295 . S
C81 O86 1.235 . S
O82 Fe67 1.976 . S
O82 C76 1.287 . S
O83 Fe69 1.996 . S
O83 C76 1.255 . S
C84 O77 1.287 . S
C84 O78 1.255 . S
O85 Fe67 2.002 . S
O85 C81 1.295 . S
O86 Fe69 1.997 . S
O86 C81 1.235 . S
C87 O70 1.295 . S
C87 O71 1.235 . S
Fe88 O90 1.918 . S
Fe88 O93 1.997 . S
Fe88 O94 2.002 . S
Fe88 O99 1.976 . S
Fe88 O102 1.996 . S
Fe89 O90 1.918 . S
Fe89 O97 1.997 . S
Fe89 O100 1.996 . S
Fe89 O104 1.976 . S
Fe89 O107 2.002 . S
O90 Fe88 1.918 . S
O90 Fe89 1.918 . S
O90 Fe91 1.918 . S
Fe91 O90 1.918 . S
Fe91 O92 2.002 . S
Fe91 O101 1.976 . S
Fe91 O105 1.996 . S
Fe91 O108 1.997 . S
O92 Fe91 2.002 . S
O92 C109 1.295 . S
O93 Fe88 1.997 . S
O93 C109 1.235 . S
O94 Fe88 2.002 . S
O94 C95 1.295 . S
C95 O94 1.295 . S
C95 O97 1.235 . S
C96 O101 1.287 . S
C96 O102 1.255 . S
O97 Fe89 1.997 . S
O97 C95 1.235 . S
C98 O104 1.287 . S
C98 O105 1.255 . S
O99 Fe88 1.976 . S
O99 C106 1.287 . S
O100 Fe89 1.996 . S
O100 C106 1.255 . S
O101 Fe91 1.976 . S
O101 C96 1.287 . S
O102 Fe88 1.996 . S
O102 C96 1.255 . S
C103 O107 1.295 . S
C103 O108 1.235 . S
O104 Fe89 1.976 . S
O104 C98 1.287 . S
O105 Fe91 1.996 . S
O105 C98 1.255 . S
C106 O99 1.287 . S
C106 O100 1.255 . S
O107 Fe89 2.002 . S
O107 C103 1.295 . S
O108 Fe91 1.997 . S
O108 C103 1.235 . S
C109 O92 1.295 . S
C109 O93 1.235 . S
Fe110 O112 1.918 . S
Fe110 O115 1.997 . S
Fe110 O116 2.002 . S
Fe110 O121 1.976 . S
Fe110 O124 1.996 . S
Fe111 O112 1.918 . S
Fe111 O119 1.997 . S
Fe111 O122 1.996 . S
Fe111 O126 1.976 . S
Fe111 O129 2.002 . S
O112 Fe110 1.918 . S
O112 Fe111 1.918 . S
O112 Fe113 1.918 . S
Fe113 O112 1.918 . S
Fe113 O114 2.002 . S
Fe113 O123 1.976 . S
Fe113 O127 1.996 . S
Fe113 O130 1.997 . S
O114 Fe113 2.002 . S
O114 C131 1.295 . S
O115 Fe110 1.997 . S
O115 C131 1.235 . S
O116 Fe110 2.002 . S
O116 C117 1.295 . S
C117 O116 1.295 . S
C117 O119 1.235 . S
C118 O123 1.287 . S
C118 O124 1.255 . S
O119 Fe111 1.997 . S
O119 C117 1.235 . S
C120 O126 1.287 . S
C120 O127 1.255 . S
O121 Fe110 1.976 . S
O121 C128 1.287 . S
O122 Fe111 1.996 . S
O122 C128 1.255 . S
O123 Fe113 1.976 . S
O123 C118 1.287 . S
O124 Fe110 1.996 . S
O124 C118 1.255 . S
C125 O129 1.295 . S
C125 O130 1.235 . S
O126 Fe111 1.976 . S
O126 C120 1.287 . S
O127 Fe113 1.996 . S
O127 C120 1.255 . S
C128 O121 1.287 . S
C128 O122 1.255 . S
O129 Fe111 2.002 . S
O129 C125 1.295 . S
O130 Fe113 1.997 . S
O130 C125 1.235 . S
C131 O114 1.295 . S
C131 O115 1.235 . S
Fe132 O134 1.918 . S
Fe132 O137 1.997 . S
Fe132 O138 2.002 . S
Fe132 O143 1.976 . S
Fe132 O146 1.996 . S
Fe133 O134 1.918 . S
Fe133 O141 1.997 . S
Fe133 O144 1.996 . S
Fe133 O148 1.976 . S
Fe133 O151 2.002 . S
O134 Fe132 1.918 . S
O134 Fe133 1.918 . S
O134 Fe135 1.918 . S
Fe135 O134 1.918 . S
Fe135 O136 2.002 . S
Fe135 O145 1.976 . S
Fe135 O149 1.996 . S
Fe135 O152 1.997 . S
O136 Fe135 2.002 . S
O136 C153 1.295 . S
O137 Fe132 1.997 . S
O137 C153 1.235 . S
O138 Fe132 2.002 . S
O138 C139 1.295 . S
C139 O138 1.295 . S
C139 O141 1.235 . S
C140 O145 1.287 . S
C140 O146 1.255 . S
O141 Fe133 1.997 . S
O141 C139 1.235 . S
C142 O148 1.287 . S
C142 O149 1.255 . S
O143 Fe132 1.976 . S
O143 C150 1.287 . S
O144 Fe133 1.996 . S
O144 C150 1.255 . S
O145 Fe135 1.976 . S
O145 C140 1.287 . S
O146 Fe132 1.996 . S
O146 C140 1.255 . S
C147 O151 1.295 . S
C147 O152 1.235 . S
O148 Fe133 1.976 . S
O148 C142 1.287 . S
O149 Fe135 1.996 . S
O149 C142 1.255 . S
C150 O143 1.287 . S
C150 O144 1.255 . S
O151 Fe133 2.002 . S
O151 C147 1.295 . S
O152 Fe135 1.997 . S
O152 C147 1.235 . S
C153 O136 1.295 . S
C153 O137 1.235 . S
Fe154 O156 1.918 . S
Fe154 O159 1.997 . S
Fe154 O160 2.002 . S
Fe154 O165 1.976 . S
Fe154 O168 1.996 . S
Fe155 O156 1.918 . S
Fe155 O163 1.997 . S
Fe155 O166 1.996 . S
Fe155 O170 1.976 . S
Fe155 O173 2.002 . S
O156 Fe154 1.918 . S
O156 Fe155 1.918 . S
O156 Fe157 1.921 1_556 S
Fe157 O156 1.921 1_554 S
Fe157 O158 2.003 1_554 S
Fe157 O167 1.975 . S
Fe157 O171 1.995 . S
Fe157 O174 1.997 1_554 S
O158 Fe157 2.003 1_556 S
O158 C175 1.295 . S
O159 Fe154 1.997 . S
O159 C175 1.235 . S
O160 Fe154 2.002 . S
O160 C161 1.295 . S
C161 O160 1.295 . S
C161 O163 1.235 . S
C162 O167 1.287 . S
C162 O168 1.255 1_554 S
O163 Fe155 1.997 . S
O163 C161 1.235 . S
C164 O170 1.287 1_554 S
C164 O171 1.255 . S
O165 Fe154 1.976 . S
O165 C172 1.287 . S
O166 Fe155 1.996 . S
O166 C172 1.255 . S
O167 Fe157 1.975 . S
O167 C162 1.287 . S
O168 Fe154 1.996 . S
O168 C162 1.255 1_556 S
C169 O173 1.295 . S
C169 O174 1.235 . S
O170 Fe155 1.976 . S
O170 C164 1.287 1_556 S
O171 Fe157 1.995 . S
O171 C164 1.255 . S
C172 O165 1.287 . S
C172 O166 1.255 . S
O173 Fe155 2.002 . S
O173 C169 1.295 . S
O174 Fe157 1.997 1_556 S
O174 C169 1.235 . S
C175 O158 1.295 . S
C175 O159 1.235 . S
Fe176 O178 1.918 . S
Fe176 O181 1.997 . S
Fe176 O182 2.002 . S
Fe176 O187 1.976 . S
Fe176 O190 1.996 . S
Fe177 O178 1.918 . S
Fe177 O185 1.997 . S
Fe177 O188 1.996 . S
Fe177 O192 1.976 . S
Fe177 O195 2.002 . S
O178 Fe176 1.918 . S
O178 Fe177 1.918 . S
O178 Fe179 1.918 . S
Fe179 O178 1.918 . S
Fe179 O180 2.002 . S
Fe179 O189 1.976 . S
Fe179 O193 1.996 . S
Fe179 O196 1.997 . S
O180 Fe179 2.002 . S
O180 C197 1.295 . S
O181 Fe176 1.997 . S
O181 C197 1.235 . S
O182 Fe176 2.002 . S
O182 C183 1.295 . S
C183 O182 1.295 . S
C183 O185 1.235 . S
C184 O189 1.287 . S
C184 O190 1.255 . S
O185 Fe177 1.997 . S
O185 C183 1.235 . S
C186 O192 1.287 . S
C186 O193 1.255 . S
O187 Fe176 1.976 . S
O187 C194 1.287 . S
O188 Fe177 1.996 . S
O188 C194 1.255 . S
O189 Fe179 1.976 . S
O189 C184 1.287 . S
O190 Fe176 1.996 . S
O190 C184 1.255 . S
C191 O195 1.295 . S
C191 O196 1.235 . S
O192 Fe177 1.976 . S
O192 C186 1.287 . S
O193 Fe179 1.996 . S
O193 C186 1.255 . S
C194 O187 1.287 . S
C194 O188 1.255 . S
O195 Fe177 2.002 . S
O195 C191 1.295 . S
O196 Fe179 1.997 . S
O196 C191 1.235 . S
C197 O180 1.295 . S
C197 O181 1.235 . S
Fe198 O200 1.918 . S
Fe198 O203 1.997 . S
Fe198 O204 2.002 . S
Fe198 O209 1.976 . S
Fe198 O212 1.996 . S
Fe199 O200 1.918 . S
Fe199 O207 1.997 . S
Fe199 O210 1.996 . S
Fe199 O214 1.976 . S
Fe199 O217 2.002 . S
O200 Fe198 1.918 . S
O200 Fe199 1.918 . S
O200 Fe201 1.918 . S
Fe201 O200 1.918 . S
Fe201 O202 2.002 . S
Fe201 O211 1.976 . S
Fe201 O215 1.996 . S
Fe201 O218 1.997 . S
O202 Fe201 2.002 . S
O202 C219 1.295 . S
O203 Fe198 1.997 . S
O203 C219 1.235 . S
O204 Fe198 2.002 . S
O204 C205 1.295 . S
C205 O204 1.295 . S
C205 O207 1.235 . S
C206 O211 1.287 . S
C206 O212 1.255 . S
O207 Fe199 1.997 . S
O207 C205 1.235 . S
C208 O214 1.287 . S
C208 O215 1.255 . S
O209 Fe198 1.976 . S
O209 C216 1.287 . S
O210 Fe199 1.996 . S
O210 C216 1.255 . S
O211 Fe201 1.976 . S
O211 C206 1.287 . S
O212 Fe198 1.996 . S
O212 C206 1.255 . S
C213 O217 1.295 . S
C213 O218 1.235 . S
O214 Fe199 1.976 . S
O214 C208 1.287 . S
O215 Fe201 1.996 . S
O215 C208 1.255 . S
C216 O209 1.287 . S
C216 O210 1.255 . S
O217 Fe199 2.002 . S
O217 C213 1.295 . S
O218 Fe201 1.997 . S
O218 C213 1.235 . S
C219 O202 1.295 . S
C219 O203 1.235 . S
Fe220 O222 1.918 . S
Fe220 O225 1.997 . S
Fe220 O226 2.002 . S
Fe220 O231 1.976 . S
Fe220 O234 1.996 . S
Fe221 O222 1.918 . S
Fe221 O229 1.997 . S
Fe221 O232 1.996 . S
Fe221 O236 1.976 . S
Fe221 O239 2.002 . S
O222 Fe220 1.918 . S
O222 Fe221 1.918 . S
O222 Fe223 1.918 . S
Fe223 O222 1.918 . S
Fe223 O224 2.002 . S
Fe223 O233 1.976 . S
Fe223 O237 1.996 . S
Fe223 O240 1.997 . S
O224 Fe223 2.002 . S
O224 C241 1.295 . S
O225 Fe220 1.997 . S
O225 C241 1.235 . S
O226 Fe220 2.002 . S
O226 C227 1.295 . S
C227 O226 1.295 . S
C227 O229 1.235 . S
C228 O233 1.287 . S
C228 O234 1.255 . S
O229 Fe221 1.997 . S
O229 C227 1.235 . S
C230 O236 1.287 . S
C230 O237 1.255 . S
O231 Fe220 1.976 . S
O231 C238 1.287 . S
O232 Fe221 1.996 . S
O232 C238 1.255 . S
O233 Fe223 1.976 . S
O233 C228 1.287 . S
O234 Fe220 1.996 . S
O234 C228 1.255 . S
C235 O239 1.295 . S
C235 O240 1.235 . S
O236 Fe221 1.976 . S
O236 C230 1.287 . S
O237 Fe223 1.996 . S
O237 C230 1.255 . S
C238 O231 1.287 . S
C238 O232 1.255 . S
O239 Fe221 2.002 . S
O239 C235 1.295 . S
O240 Fe223 1.997 . S
O240 C235 1.235 . S
C241 O224 1.295 . S
C241 O225 1.235 . S
Fe242 O244 1.918 . S
Fe242 O247 1.997 . S
Fe242 O248 2.002 . S
Fe242 O253 1.976 . S
Fe242 O256 1.996 . S
Fe243 O244 1.918 . S
Fe243 O251 1.997 . S
Fe243 O254 1.996 . S
Fe243 O258 1.976 . S
Fe243 O261 2.002 . S
O244 Fe242 1.918 . S
O244 Fe243 1.918 . S
O244 Fe245 1.918 . S
Fe245 O244 1.918 . S
Fe245 O246 2.002 . S
Fe245 O255 1.976 . S
Fe245 O259 1.996 . S
Fe245 O262 1.997 . S
O246 Fe245 2.002 . S
O246 C263 1.295 . S
O247 Fe242 1.997 . S
O247 C263 1.235 . S
O248 Fe242 2.002 . S
O248 C249 1.295 . S
C249 O248 1.295 . S
C249 O251 1.235 . S
C250 O255 1.287 . S
C250 O256 1.255 . S
O251 Fe243 1.997 . S
O251 C249 1.235 . S
C252 O258 1.287 . S
C252 O259 1.255 . S
O253 Fe242 1.976 . S
O253 C260 1.287 . S
O254 Fe243 1.996 . S
O254 C260 1.255 . S
O255 Fe245 1.976 . S
O255 C250 1.287 . S
O256 Fe242 1.996 . S
O256 C250 1.255 . S
C257 O261 1.295 . S
C257 O262 1.235 . S
O258 Fe243 1.976 . S
O258 C252 1.287 . S
O259 Fe245 1.996 . S
O259 C252 1.255 . S
C260 O253 1.287 . S
C260 O254 1.255 . S
O261 Fe243 2.002 . S
O261 C257 1.295 . S
O262 Fe245 1.997 . S
O262 C257 1.235 . S
C263 O246 1.295 . S
C263 O247 1.235 . S
C264 C265 1.349 . S
C264 C266 1.327 . S
C264 H289 0.950 . S
C265 C264 1.349 . S
C265 C281 1.349 . S
C266 C264 1.327 . S
C266 C285 1.429 . S
C266 H290 0.950 . S
C267 C284 1.574 . S
C267 C286 1.368 . S
C267 H291 0.949 . S
H268 C272 0.949 . S
C269 C270 1.349 . S
C269 C271 1.327 . S
C269 H292 0.950 . S
C270 C269 1.349 . S
C270 C282 1.349 . S
C271 C269 1.327 . S
C271 C287 1.429 . S
C271 H293 0.950 . S
C272 H268 0.949 . S
C272 C280 1.574 . S
C272 C288 1.368 . S
H273 C281 0.950 . S
H274 C279 0.950 . S
H275 C280 0.949 . S
H276 C282 0.950 . S
H277 C283 0.950 . S
H278 C284 0.949 . S
C279 H274 0.950 . S
C279 C281 1.327 . S
C279 C285 1.429 . S
C280 C272 1.574 . S
C280 H275 0.949 . S
C280 C286 1.368 . S
C281 C265 1.349 . S
C281 H273 0.950 . S
C281 C279 1.327 . S
C282 C270 1.349 . S
C282 H276 0.950 . S
C282 C283 1.327 . S
C283 H277 0.950 . S
C283 C282 1.327 . S
C283 C287 1.429 . S
C284 C267 1.574 . S
C284 H278 0.949 . S
C284 C288 1.368 . S
C285 C266 1.429 . S
C285 C279 1.429 . S
C285 C286 1.523 . S
C286 C267 1.368 . S
C286 C280 1.368 . S
C286 C285 1.523 . S
C287 C271 1.429 . S
C287 C283 1.429 . S
C287 C288 1.523 . S
C288 C272 1.368 . S
C288 C284 1.368 . S
C288 C287 1.523 . S
H289 C264 0.950 . S
H290 C266 0.950 . S
H291 C267 0.949 . S
H292 C269 0.950 . S
H293 C271 0.950 . S
C294 C295 1.349 . S
C294 C296 1.327 . S
C294 H319 0.950 . S
C295 C294 1.349 . S
C295 C311 1.349 . S
C296 C294 1.327 . S
C296 C315 1.429 . S
C296 H320 0.950 . S
C297 C314 1.574 . S
C297 C316 1.368 . S
C297 H321 0.949 . S
H298 C302 0.949 . S
C299 C300 1.349 . S
C299 C301 1.327 . S
C299 H322 0.950 . S
C300 C299 1.349 . S
C300 C312 1.349 . S
C301 C299 1.327 . S
C301 C317 1.429 . S
C301 H323 0.950 . S
C302 H298 0.949 . S
C302 C310 1.574 . S
C302 C318 1.368 . S
H303 C311 0.950 . S
H304 C309 0.950 . S
H305 C310 0.949 . S
H306 C312 0.950 . S
H307 C313 0.950 . S
H308 C314 0.949 . S
C309 H304 0.950 . S
C309 C311 1.327 . S
C309 C315 1.429 . S
C310 C302 1.574 . S
C310 H305 0.949 . S
C310 C316 1.368 . S
C311 C295 1.349 . S
C311 H303 0.950 . S
C311 C309 1.327 . S
C312 C300 1.349 . S
C312 H306 0.950 . S
C312 C313 1.327 . S
C313 H307 0.950 . S
C313 C312 1.327 . S
C313 C317 1.429 . S
C314 C297 1.574 . S
C314 H308 0.949 . S
C314 C318 1.368 . S
C315 C296 1.429 . S
C315 C309 1.429 . S
C315 C316 1.523 . S
C316 C297 1.368 . S
C316 C310 1.368 . S
C316 C315 1.523 . S
C317 C301 1.429 . S
C317 C313 1.429 . S
C317 C318 1.523 . S
C318 C302 1.368 . S
C318 C314 1.368 . S
C318 C317 1.523 . S
H319 C294 0.950 . S
H320 C296 0.950 . S
H321 C297 0.949 . S
H322 C299 0.950 . S
H323 C301 0.950 . S
C324 C325 1.349 . S
C324 C326 1.327 . S
C324 H349 0.950 . S
C325 C324 1.349 . S
C325 C341 1.349 . S
C326 C324 1.327 . S
C326 C345 1.429 . S
C326 H350 0.950 . S
C327 C344 1.574 . S
C327 C346 1.368 . S
C327 H351 0.949 . S
H328 C332 0.949 . S
C329 C330 1.349 . S
C329 C331 1.327 . S
C329 H352 0.950 . S
C330 C329 1.349 . S
C330 C342 1.349 . S
C331 C329 1.327 . S
C331 C347 1.429 . S
C331 H353 0.950 . S
C332 H328 0.949 . S
C332 C340 1.574 . S
C332 C348 1.368 . S
H333 C341 0.950 . S
H334 C339 0.950 . S
H335 C340 0.949 . S
H336 C342 0.950 . S
H337 C343 0.950 . S
H338 C344 0.949 . S
C339 H334 0.950 . S
C339 C341 1.327 . S
C339 C345 1.429 . S
C340 C332 1.574 . S
C340 H335 0.949 . S
C340 C346 1.368 . S
C341 C325 1.349 . S
C341 H333 0.950 . S
C341 C339 1.327 . S
C342 C330 1.349 . S
C342 H336 0.950 . S
C342 C343 1.327 . S
C343 H337 0.950 . S
C343 C342 1.327 . S
C343 C347 1.429 . S
C344 C327 1.574 . S
C344 H338 0.949 . S
C344 C348 1.368 . S
C345 C326 1.429 . S
C345 C339 1.429 . S
C345 C346 1.523 . S
C346 C327 1.368 . S
C346 C340 1.368 . S
C346 C345 1.523 . S
C347 C331 1.429 . S
C347 C343 1.429 . S
C347 C348 1.523 . S
C348 C332 1.368 . S
C348 C344 1.368 . S
C348 C347 1.523 . S
H349 C324 0.950 . S
H350 C326 0.950 . S
H351 C327 0.949 . S
H352 C329 0.950 . S
H353 C331 0.950 . S
C354 C355 1.349 . S
C354 C356 1.327 . S
C354 H379 0.950 . S
C355 C354 1.349 . S
C355 C371 1.349 . S
C356 C354 1.327 . S
C356 C375 1.429 . S
C356 H380 0.950 . S
C357 C374 1.574 . S
C357 C376 1.368 . S
C357 H381 0.949 . S
H358 C362 0.949 . S
C359 C360 1.349 . S
C359 C361 1.327 . S
C359 H382 0.950 . S
C360 C359 1.349 . S
C360 C372 1.349 . S
C361 C359 1.327 . S
C361 C377 1.429 . S
C361 H383 0.950 . S
C362 H358 0.949 . S
C362 C370 1.574 . S
C362 C378 1.368 . S
H363 C371 0.950 . S
H364 C369 0.950 . S
H365 C370 0.949 . S
H366 C372 0.950 . S
H367 C373 0.950 . S
H368 C374 0.949 . S
C369 H364 0.950 . S
C369 C371 1.327 . S
C369 C375 1.429 . S
C370 C362 1.574 . S
C370 H365 0.949 . S
C370 C376 1.368 . S
C371 C355 1.349 . S
C371 H363 0.950 . S
C371 C369 1.327 . S
C372 C360 1.349 . S
C372 H366 0.950 . S
C372 C373 1.327 . S
C373 H367 0.950 . S
C373 C372 1.327 . S
C373 C377 1.429 . S
C374 C357 1.574 . S
C374 H368 0.949 . S
C374 C378 1.368 . S
C375 C356 1.429 . S
C375 C369 1.429 . S
C375 C376 1.523 . S
C376 C357 1.368 . S
C376 C370 1.368 . S
C376 C375 1.523 . S
C377 C361 1.429 . S
C377 C373 1.429 . S
C377 C378 1.523 . S
C378 C362 1.368 . S
C378 C374 1.368 . S
C378 C377 1.523 . S
H379 C354 0.950 . S
H380 C356 0.950 . S
H381 C357 0.949 . S
H382 C359 0.950 . S
H383 C361 0.950 . S
C384 C385 1.349 . S
C384 C386 1.327 . S
C384 H409 0.950 . S
C385 C384 1.349 . S
C385 C401 1.349 . S
C386 C384 1.327 . S
C386 C405 1.429 . S
C386 H410 0.950 . S
C387 C404 1.574 . S
C387 C406 1.368 . S
C387 H411 0.949 . S
H388 C392 0.949 . S
C389 C390 1.349 . S
C389 C391 1.327 . S
C389 H412 0.950 . S
C390 C389 1.349 . S
C390 C402 1.349 . S
C391 C389 1.327 . S
C391 C407 1.429 . S
C391 H413 0.950 . S
C392 H388 0.949 . S
C392 C400 1.574 . S
C392 C408 1.368 . S
H393 C401 0.950 . S
H394 C399 0.950 . S
H395 C400 0.949 . S
H396 C402 0.950 . S
H397 C403 0.950 . S
H398 C404 0.949 . S
C399 H394 0.950 . S
C399 C401 1.327 . S
C399 C405 1.429 . S
C400 C392 1.574 . S
C400 H395 0.949 . S
C400 C406 1.368 . S
C401 C385 1.349 . S
C401 H393 0.950 . S
C401 C399 1.327 . S
C402 C390 1.349 . S
C402 H396 0.950 . S
C402 C403 1.327 . S
C403 H397 0.950 . S
C403 C402 1.327 . S
C403 C407 1.429 . S
C404 C387 1.574 . S
C404 H398 0.949 . S
C404 C408 1.368 . S
C405 C386 1.429 . S
C405 C399 1.429 . S
C405 C406 1.523 . S
C406 C387 1.368 . S
C406 C400 1.368 . S
C406 C405 1.523 . S
C407 C391 1.429 . S
C407 C403 1.429 . S
C407 C408 1.523 . S
C408 C392 1.368 . S
C408 C404 1.368 . S
C408 C407 1.523 . S
H409 C384 0.950 . S
H410 C386 0.950 . S
H411 C387 0.949 . S
H412 C389 0.950 . S
H413 C391 0.950 . S
C414 C415 1.349 . S
C414 C416 1.327 . S
C414 H439 0.950 . S
C415 C414 1.349 . S
C415 C431 1.349 . S
C416 C414 1.327 . S
C416 C435 1.429 . S
C416 H440 0.950 . S
C417 C434 1.574 . S
C417 C436 1.368 . S
C417 H441 0.949 . S
H418 C422 0.949 . S
C419 C420 1.349 . S
C419 C421 1.327 . S
C419 H442 0.950 . S
C420 C419 1.349 . S
C420 C432 1.349 . S
C421 C419 1.327 . S
C421 C437 1.429 . S
C421 H443 0.950 . S
C422 H418 0.949 . S
C422 C430 1.574 . S
C422 C438 1.368 . S
H423 C431 0.950 . S
H424 C429 0.950 . S
H425 C430 0.949 . S
H426 C432 0.950 . S
H427 C433 0.950 . S
H428 C434 0.949 . S
C429 H424 0.950 . S
C429 C431 1.327 . S
C429 C435 1.429 . S
C430 C422 1.574 . S
C430 H425 0.949 . S
C430 C436 1.368 . S
C431 C415 1.349 . S
C431 H423 0.950 . S
C431 C429 1.327 . S
C432 C420 1.349 . S
C432 H426 0.950 . S
C432 C433 1.327 . S
C433 H427 0.950 . S
C433 C432 1.327 . S
C433 C437 1.429 . S
C434 C417 1.574 . S
C434 H428 0.949 . S
C434 C438 1.368 . S
C435 C416 1.429 . S
C435 C429 1.429 . S
C435 C436 1.523 . S
C436 C417 1.368 . S
C436 C430 1.368 . S
C436 C435 1.523 . S
C437 C421 1.429 . S
C437 C433 1.429 . S
C437 C438 1.523 . S
C438 C422 1.368 . S
C438 C434 1.368 . S
C438 C437 1.523 . S
H439 C414 0.950 . S
H440 C416 0.950 . S
H441 C417 0.949 . S
H442 C419 0.950 . S
H443 C421 0.950 . S
C444 C445 1.349 . S
C444 C446 1.327 . S
C444 H469 0.950 . S
C445 C444 1.349 . S
C445 C461 1.349 . S
C446 C444 1.327 . S
C446 C465 1.429 . S
C446 H470 0.950 . S
C447 C464 1.574 . S
C447 C466 1.368 . S
C447 H471 0.949 . S
H448 C452 0.949 . S
C449 C450 1.349 . S
C449 C451 1.327 . S
C449 H472 0.950 . S
C450 C449 1.349 . S
C450 C462 1.349 . S
C451 C449 1.327 . S
C451 C467 1.429 . S
C451 H473 0.950 . S
C452 H448 0.949 . S
C452 C460 1.574 . S
C452 C468 1.368 . S
H453 C461 0.950 . S
H454 C459 0.950 . S
H455 C460 0.949 . S
H456 C462 0.950 . S
H457 C463 0.950 . S
H458 C464 0.949 . S
C459 H454 0.950 . S
C459 C461 1.327 . S
C459 C465 1.429 . S
C460 C452 1.574 . S
C460 H455 0.949 . S
C460 C466 1.368 . S
C461 C445 1.349 . S
C461 H453 0.950 . S
C461 C459 1.327 . S
C462 C450 1.349 . S
C462 H456 0.950 . S
C462 C463 1.327 . S
C463 H457 0.950 . S
C463 C462 1.327 . S
C463 C467 1.429 . S
C464 C447 1.574 . S
C464 H458 0.949 . S
C464 C468 1.368 . S
C465 C446 1.429 . S
C465 C459 1.429 . S
C465 C466 1.523 . S
C466 C447 1.368 . S
C466 C460 1.368 . S
C466 C465 1.523 . S
C467 C451 1.429 . S
C467 C463 1.429 . S
C467 C468 1.523 . S
C468 C452 1.368 . S
C468 C464 1.368 . S
C468 C467 1.523 . S
H469 C444 0.950 . S
H470 C446 0.950 . S
H471 C447 0.949 . S
H472 C449 0.950 . S
H473 C451 0.950 . S
C474 C475 1.349 . S
C474 C476 1.327 . S
C474 H499 0.950 . S
C475 C474 1.349 . S
C475 C491 1.349 . S
C476 C474 1.327 . S
C476 C495 1.429 . S
C476 H500 0.950 . S
C477 C494 1.574 1_655 S
C477 C496 1.368 . S
C477 H501 0.949 . S
H478 C482 0.949 . S
C479 C480 1.349 . S
C479 C481 1.327 . S
C479 H502 0.950 . S
C480 C479 1.349 . S
C480 C492 1.349 . S
C481 C479 1.327 . S
C481 C497 1.429 . S
C481 H503 0.950 . S
C482 H478 0.949 . S
C482 C490 1.574 1_455 S
C482 C498 1.368 . S
H483 C491 0.950 . S
H484 C489 0.950 . S
H485 C490 0.949 . S
H486 C492 0.950 . S
H487 C493 0.950 . S
H488 C494 0.949 . S
C489 H484 0.950 . S
C489 C491 1.327 . S
C489 C495 1.429 . S
C490 C482 1.574 1_655 S
C490 H485 0.949 . S
C490 C496 1.368 . S
C491 C475 1.349 . S
C491 H483 0.950 . S
C491 C489 1.327 . S
C492 C480 1.349 . S
C492 H486 0.950 . S
C492 C493 1.327 . S
C493 H487 0.950 . S
C493 C492 1.327 . S
C493 C497 1.429 . S
C494 C477 1.574 1_455 S
C494 H488 0.949 . S
C494 C498 1.368 . S
C495 C476 1.429 . S
C495 C489 1.429 . S
C495 C496 1.523 . S
C496 C477 1.368 . S
C496 C490 1.368 . S
C496 C495 1.523 . S
C497 C481 1.429 . S
C497 C493 1.429 . S
C497 C498 1.523 . S
C498 C482 1.368 . S
C498 C494 1.368 . S
C498 C497 1.523 . S
H499 C474 0.950 . S
H500 C476 0.950 . S
H501 C477 0.949 . S
H502 C479 0.950 . S
H503 C481 0.950 . S
C504 C505 1.349 . S
C504 C506 1.327 . S
C504 H529 0.950 . S
C505 C504 1.349 . S
C505 C521 1.349 . S
C506 C504 1.327 . S
C506 C525 1.429 . S
C506 H530 0.950 . S
C507 C524 1.574 . S
C507 C526 1.368 1_565 S
C507 H531 0.949 . S
H508 C512 0.949 . S
C509 C510 1.349 . S
C509 C511 1.327 . S
C509 H532 0.950 . S
C510 C509 1.349 . S
C510 C522 1.349 . S
C511 C509 1.327 . S
C511 C527 1.429 . S
C511 H533 0.950 . S
C512 H508 0.949 . S
C512 C520 1.574 . S
C512 C528 1.368 1_545 S
H513 C521 0.950 . S
H514 C519 0.950 . S
H515 C520 0.949 . S
H516 C522 0.950 . S
H517 C523 0.950 . S
H518 C524 0.949 . S
C519 H514 0.950 . S
C519 C521 1.327 . S
C519 C525 1.429 . S
C520 C512 1.574 . S
C520 H515 0.949 . S
C520 C526 1.368 . S
C521 C505 1.349 . S
C521 H513 0.950 . S
C521 C519 1.327 . S
C522 C510 1.349 . S
C522 H516 0.950 . S
C522 C523 1.327 . S
C523 H517 0.950 . S
C523 C522 1.327 . S
C523 C527 1.429 . S
C524 C507 1.574 . S
C524 H518 0.949 . S
C524 C528 1.368 . S
C525 C506 1.429 . S
C525 C519 1.429 . S
C525 C526 1.523 . S
C526 C507 1.368 1_545 S
C526 C520 1.368 . S
C526 C525 1.523 . S
C527 C511 1.429 . S
C527 C523 1.429 . S
C527 C528 1.523 . S
C528 C512 1.368 1_565 S
C528 C524 1.368 . S
C528 C527 1.523 . S
H529 C504 0.950 . S
H530 C506 0.950 . S
H531 C507 0.949 . S
H532 C509 0.950 . S
H533 C511 0.950 . S
C534 C535 1.349 . S
C534 C536 1.327 . S
C534 H559 0.950 . S
C535 C534 1.349 . S
C535 C551 1.349 . S
C536 C534 1.327 . S
C536 C555 1.429 . S
C536 H560 0.950 . S
C537 C554 1.574 . S
C537 C556 1.368 . S
C537 H561 0.949 . S
H538 C542 0.949 . S
C539 C540 1.349 . S
C539 C541 1.327 . S
C539 H562 0.950 . S
C540 C539 1.349 . S
C540 C552 1.349 . S
C541 C539 1.327 . S
C541 C557 1.429 . S
C541 H563 0.950 . S
C542 H538 0.949 . S
C542 C550 1.574 . S
C542 C558 1.368 . S
H543 C551 0.950 . S
H544 C549 0.950 . S
H545 C550 0.949 . S
H546 C552 0.950 . S
H547 C553 0.950 . S
H548 C554 0.949 . S
C549 H544 0.950 . S
C549 C551 1.327 . S
C549 C555 1.429 . S
C550 C542 1.574 . S
C550 H545 0.949 . S
C550 C556 1.368 . S
C551 C535 1.349 . S
C551 H543 0.950 . S
C551 C549 1.327 . S
C552 C540 1.349 . S
C552 H546 0.950 . S
C552 C553 1.327 . S
C553 H547 0.950 . S
C553 C552 1.327 . S
C553 C557 1.429 . S
C554 C537 1.574 . S
C554 H548 0.949 . S
C554 C558 1.368 . S
C555 C536 1.429 . S
C555 C549 1.429 . S
C555 C556 1.523 . S
C556 C537 1.368 . S
C556 C550 1.368 . S
C556 C555 1.523 . S
C557 C541 1.429 . S
C557 C553 1.429 . S
C557 C558 1.523 . S
C558 C542 1.368 . S
C558 C554 1.368 . S
C558 C557 1.523 . S
H559 C534 0.950 . S
H560 C536 0.950 . S
H561 C537 0.949 . S
H562 C539 0.950 . S
H563 C541 0.950 . S
C564 C565 1.349 . S
C564 C566 1.327 . S
C564 H589 0.950 . S
C565 C564 1.349 . S
C565 C581 1.349 . S
C566 C564 1.327 . S
C566 C585 1.429 . S
C566 H590 0.950 . S
C567 C584 1.574 . S
C567 C586 1.368 . S
C567 H591 0.949 . S
H568 C572 0.949 . S
C569 C570 1.349 . S
C569 C571 1.327 . S
C569 H592 0.950 . S
C570 C569 1.349 . S
C570 C582 1.349 . S
C571 C569 1.327 . S
C571 C587 1.429 . S
C571 H593 0.950 . S
C572 H568 0.949 . S
C572 C580 1.574 . S
C572 C588 1.368 . S
H573 C581 0.950 . S
H574 C579 0.950 . S
H575 C580 0.949 . S
H576 C582 0.950 . S
H577 C583 0.950 . S
H578 C584 0.949 . S
C579 H574 0.950 . S
C579 C581 1.327 . S
C579 C585 1.429 . S
C580 C572 1.574 . S
C580 H575 0.949 . S
C580 C586 1.368 1_655 S
C581 C565 1.349 . S
C581 H573 0.950 . S
C581 C579 1.327 . S
C582 C570 1.349 . S
C582 H576 0.950 . S
C582 C583 1.327 . S
C583 H577 0.950 . S
C583 C582 1.327 . S
C583 C587 1.429 . S
C584 C567 1.574 . S
C584 H578 0.949 . S
C584 C588 1.368 1_455 S
C585 C566 1.429 . S
C585 C579 1.429 . S
C585 C586 1.523 . S
C586 C567 1.368 . S
C586 C580 1.368 1_455 S
C586 C585 1.523 . S
C587 C571 1.429 . S
C587 C583 1.429 . S
C587 C588 1.523 . S
C588 C572 1.368 . S
C588 C584 1.368 1_655 S
C588 C587 1.523 . S
H589 C564 0.950 . S
H590 C566 0.950 . S
H591 C567 0.949 . S
H592 C569 0.950 . S
H593 C571 0.950 . S
C594 C595 1.349 . S
C594 C596 1.327 . S
C594 H619 0.950 . S
C595 C594 1.349 . S
C595 C611 1.349 . S
C596 C594 1.327 . S
C596 C615 1.429 . S
C596 H620 0.950 . S
C597 C614 1.574 . S
C597 C616 1.368 1_554 S
C597 H621 0.949 . S
H598 C602 0.949 . S
C599 C600 1.349 . S
C599 C601 1.327 . S
C599 H622 0.950 . S
C600 C599 1.349 . S
C600 C612 1.349 . S
C601 C599 1.327 . S
C601 C617 1.429 . S
C601 H623 0.950 . S
C602 H598 0.949 . S
C602 C610 1.574 . S
C602 C618 1.368 1_556 S
H603 C611 0.950 . S
H604 C609 0.950 . S
H605 C610 0.949 . S
H606 C612 0.950 . S
H607 C613 0.950 . S
H608 C614 0.949 . S
C609 H604 0.950 . S
C609 C611 1.327 . S
C609 C615 1.429 . S
C610 C602 1.574 . S
C610 H605 0.949 . S
C610 C616 1.368 1_565 S
C611 C595 1.349 . S
C611 H603 0.950 . S
C611 C609 1.327 . S
C612 C600 1.349 . S
C612 H606 0.950 . S
C612 C613 1.327 . S
C613 H607 0.950 . S
C613 C612 1.327 . S
C613 C617 1.429 . S
C614 C597 1.574 . S
C614 H608 0.949 . S
C614 C618 1.368 1_545 S
C615 C596 1.429 . S
C615 C609 1.429 . S
C615 C616 1.523 . S
C616 C597 1.368 1_556 S
C616 C610 1.368 1_545 S
C616 C615 1.523 . S
C617 C601 1.429 . S
C617 C613 1.429 . S
C617 C618 1.523 . S
C618 C602 1.368 1_554 S
C618 C614 1.368 1_565 S
C618 C617 1.523 . S
H619 C594 0.950 . S
H620 C596 0.950 . S
H621 C597 0.949 . S
H622 C599 0.950 . S
H623 C601 0.950 . S
C624 C625 1.349 . S
C624 C626 1.327 . S
C624 H649 0.950 . S
C625 C624 1.349 . S
C625 C641 1.349 . S
C626 C624 1.327 . S
C626 C645 1.429 . S
C626 H650 0.950 . S
C627 C644 1.574 . S
C627 C646 1.368 . S
C627 H651 0.949 . S
H628 C632 0.949 . S
C629 C630 1.349 . S
C629 C631 1.327 . S
C629 H652 0.950 1_556 S
C630 C629 1.349 . S
C630 C642 1.349 . S
C631 C629 1.327 . S
C631 C647 1.429 . S
C631 H653 0.950 . S
C632 H628 0.949 . S
C632 C640 1.574 . S
C632 C648 1.368 . S
H633 C641 0.950 . S
H634 C639 0.950 . S
H635 C640 0.949 . S
H636 C642 0.950 . S
H637 C643 0.950 . S
H638 C644 0.949 . S
C639 H634 0.950 . S
C639 C641 1.327 . S
C639 C645 1.429 . S
C640 C632 1.574 . S
C640 H635 0.949 . S
C640 C646 1.368 . S
C641 C625 1.349 . S
C641 H633 0.950 . S
C641 C639 1.327 . S
C642 C630 1.349 . S
C642 H636 0.950 . S
C642 C643 1.327 . S
C643 H637 0.950 . S
C643 C642 1.327 . S
C643 C647 1.429 . S
C644 C627 1.574 . S
C644 H638 0.949 . S
C644 C648 1.368 . S
C645 C626 1.429 . S
C645 C639 1.429 . S
C645 C646 1.523 . S
C646 C627 1.368 . S
C646 C640 1.368 . S
C646 C645 1.523 . S
C647 C631 1.429 . S
C647 C643 1.429 . S
C647 C648 1.523 . S
C648 C632 1.368 . S
C648 C644 1.368 . S
C648 C647 1.523 . S
H649 C624 0.950 . S
H650 C626 0.950 . S
H651 C627 0.949 . S
H652 C629 0.950 1_554 S
H653 C631 0.950 . S
C654 C655 1.349 . S
C654 C656 1.327 . S
C654 H679 0.950 . S
C655 C654 1.349 . S
C655 C671 1.349 . S
C656 C654 1.327 . S
C656 C675 1.429 . S
C656 H680 0.950 . S
C657 C674 1.574 . S
C657 C676 1.368 . S
C657 H681 0.949 . S
H658 C662 0.949 . S
C659 C660 1.349 . S
C659 C661 1.327 . S
C659 H682 0.950 . S
C660 C659 1.349 . S
C660 C672 1.349 . S
C661 C659 1.327 . S
C661 C677 1.429 . S
C661 H683 0.950 . S
C662 H658 0.949 . S
C662 C670 1.574 . S
C662 C678 1.368 . S
H663 C671 0.950 1_556 S
H664 C669 0.950 . S
H665 C670 0.949 . S
H666 C672 0.950 . S
H667 C673 0.950 . S
H668 C674 0.949 . S
C669 H664 0.950 . S
C669 C671 1.327 . S
C669 C675 1.429 . S
C670 C662 1.574 . S
C670 H665 0.949 . S
C670 C676 1.368 . S
C671 C655 1.349 . S
C671 H663 0.950 1_554 S
C671 C669 1.327 . S
C672 C660 1.349 . S
C672 H666 0.950 . S
C672 C673 1.327 . S
C673 H667 0.950 . S
C673 C672 1.327 . S
C673 C677 1.429 . S
C674 C657 1.574 . S
C674 H668 0.949 . S
C674 C678 1.368 . S
C675 C656 1.429 . S
C675 C669 1.429 . S
C675 C676 1.523 . S
C676 C657 1.368 . S
C676 C670 1.368 . S
C676 C675 1.523 . S
C677 C661 1.429 . S
C677 C673 1.429 . S
C677 C678 1.523 . S
C678 C662 1.368 . S
C678 C674 1.368 . S
C678 C677 1.523 . S
H679 C654 0.950 . S
H680 C656 0.950 . S
H681 C657 0.949 . S
H682 C659 0.950 . S
H683 C661 0.950 . S
C684 C685 1.349 . S
C684 C686 1.327 . S
C684 H709 0.950 . S
C685 C684 1.349 . S
C685 C701 1.349 . S
C686 C684 1.327 . S
C686 C705 1.429 . S
C686 H710 0.950 . S
C687 C704 1.574 . S
C687 C706 1.368 . S
C687 H711 0.949 . S
H688 C692 0.949 . S
C689 C690 1.349 . S
C689 C691 1.327 . S
C689 H712 0.950 . S
C690 C689 1.349 . S
C690 C702 1.349 . S
C691 C689 1.327 . S
C691 C707 1.429 . S
C691 H713 0.950 . S
C692 H688 0.949 . S
C692 C700 1.574 . S
C692 C708 1.368 . S
H693 C701 0.950 . S
H694 C699 0.950 . S
H695 C700 0.949 . S
H696 C702 0.950 . S
H697 C703 0.950 . S
H698 C704 0.949 . S
C699 H694 0.950 . S
C699 C701 1.327 . S
C699 C705 1.429 . S
C700 C692 1.574 . S
C700 H695 0.949 . S
C700 C706 1.368 . S
C701 C685 1.349 . S
C701 H693 0.950 . S
C701 C699 1.327 . S
C702 C690 1.349 . S
C702 H696 0.950 . S
C702 C703 1.327 . S
C703 H697 0.950 . S
C703 C702 1.327 . S
C703 C707 1.429 . S
C704 C687 1.574 . S
C704 H698 0.949 . S
C704 C708 1.368 . S
C705 C686 1.429 . S
C705 C699 1.429 . S
C705 C706 1.523 . S
C706 C687 1.368 . S
C706 C700 1.368 . S
C706 C705 1.523 . S
C707 C691 1.429 . S
C707 C703 1.429 . S
C707 C708 1.523 . S
C708 C692 1.368 . S
C708 C704 1.368 . S
C708 C707 1.523 . S
H709 C684 0.950 . S
H710 C686 0.950 . S
H711 C687 0.949 . S
H712 C689 0.950 . S
H713 C691 0.950 . S
C714 C715 1.349 . S
C714 C716 1.327 . S
C714 H739 0.950 . S
C715 C714 1.349 . S
C715 C731 1.349 . S
C716 C714 1.327 . S
C716 C735 1.429 . S
C716 H740 0.950 . S
C717 C734 1.574 . S
C717 C736 1.368 . S
C717 H741 0.949 . S
H718 C722 0.949 . S
C719 C720 1.349 . S
C719 C721 1.327 . S
C719 H742 0.950 . S
C720 C719 1.349 . S
C720 C732 1.349 . S
C721 C719 1.327 . S
C721 C737 1.429 . S
C721 H743 0.950 . S
C722 H718 0.949 . S
C722 C730 1.574 . S
C722 C738 1.368 . S
H723 C731 0.950 . S
H724 C729 0.950 . S
H725 C730 0.949 . S
H726 C732 0.950 . S
H727 C733 0.950 . S
H728 C734 0.949 . S
C729 H724 0.950 . S
C729 C731 1.327 . S
C729 C735 1.429 . S
C730 C722 1.574 . S
C730 H725 0.949 . S
C730 C736 1.368 . S
C731 C715 1.349 . S
C731 H723 0.950 . S
C731 C729 1.327 . S
C732 C720 1.349 . S
C732 H726 0.950 . S
C732 C733 1.327 . S
C733 H727 0.950 . S
C733 C732 1.327 . S
C733 C737 1.429 . S
C734 C717 1.574 . S
C734 H728 0.949 . S
C734 C738 1.368 . S
C735 C716 1.429 . S
C735 C729 1.429 . S
C735 C736 1.523 . S
C736 C717 1.368 . S
C736 C730 1.368 . S
C736 C735 1.523 . S
C737 C721 1.429 . S
C737 C733 1.429 . S
C737 C738 1.523 . S
C738 C722 1.368 . S
C738 C734 1.368 . S
C738 C737 1.523 . S
H739 C714 0.950 . S
H740 C716 0.950 . S
H741 C717 0.949 . S
H742 C719 0.950 . S
H743 C721 0.950 . S
C744 C745 1.349 . S
C744 C746 1.327 . S
C744 H769 0.950 . S
C745 C744 1.349 . S
C745 C761 1.349 . S
C746 C744 1.327 . S
C746 C765 1.429 . S
C746 H770 0.950 . S
C747 C764 1.574 . S
C747 C766 1.368 . S
C747 H771 0.949 . S
H748 C752 0.949 . S
C749 C750 1.349 . S
C749 C751 1.327 . S
C749 H772 0.950 . S
C750 C749 1.349 . S
C750 C762 1.349 . S
C751 C749 1.327 . S
C751 C767 1.429 . S
C751 H773 0.950 . S
C752 H748 0.949 . S
C752 C760 1.574 . S
C752 C768 1.368 . S
H753 C761 0.950 . S
H754 C759 0.950 . S
H755 C760 0.949 . S
H756 C762 0.950 . S
H757 C763 0.950 . S
H758 C764 0.949 . S
C759 H754 0.950 . S
C759 C761 1.327 . S
C759 C765 1.429 . S
C760 C752 1.574 . S
C760 H755 0.949 . S
C760 C766 1.368 . S
C761 C745 1.349 . S
C761 H753 0.950 . S
C761 C759 1.327 . S
C762 C750 1.349 . S
C762 H756 0.950 . S
C762 C763 1.327 . S
C763 H757 0.950 . S
C763 C762 1.327 . S
C763 C767 1.429 . S
C764 C747 1.574 . S
C764 H758 0.949 . S
C764 C768 1.368 . S
C765 C746 1.429 . S
C765 C759 1.429 . S
C765 C766 1.523 . S
C766 C747 1.368 . S
C766 C760 1.368 . S
C766 C765 1.523 . S
C767 C751 1.429 . S
C767 C763 1.429 . S
C767 C768 1.523 . S
C768 C752 1.368 . S
C768 C764 1.368 . S
C768 C767 1.523 . S
H769 C744 0.950 . S
H770 C746 0.950 . S
H771 C747 0.949 . S
H772 C749 0.950 . S
H773 C751 0.950 . S
C774 C775 1.349 . S
C774 C776 1.327 . S
C774 H799 0.950 . S
C775 C774 1.349 . S
C775 C791 1.349 . S
C776 C774 1.327 . S
C776 C795 1.429 . S
C776 H800 0.950 . S
C777 C794 1.574 . S
C777 C796 1.368 . S
C777 H801 0.949 . S
H778 C782 0.949 . S
C779 C780 1.349 . S
C779 C781 1.327 . S
C779 H802 0.950 . S
C780 C779 1.349 . S
C780 C792 1.349 . S
C781 C779 1.327 . S
C781 C797 1.429 . S
C781 H803 0.950 . S
C782 H778 0.949 . S
C782 C790 1.574 . S
C782 C798 1.368 . S
H783 C791 0.950 . S
H784 C789 0.950 . S
H785 C790 0.949 . S
H786 C792 0.950 . S
H787 C793 0.950 . S
H788 C794 0.949 . S
C789 H784 0.950 . S
C789 C791 1.327 . S
C789 C795 1.429 . S
C790 C782 1.574 . S
C790 H785 0.949 . S
C790 C796 1.368 . S
C791 C775 1.349 . S
C791 H783 0.950 . S
C791 C789 1.327 . S
C792 C780 1.349 . S
C792 H786 0.950 . S
C792 C793 1.327 . S
C793 H787 0.950 . S
C793 C792 1.327 . S
C793 C797 1.429 . S
C794 C777 1.574 . S
C794 H788 0.949 . S
C794 C798 1.368 . S
C795 C776 1.429 . S
C795 C789 1.429 . S
C795 C796 1.523 . S
C796 C777 1.368 . S
C796 C790 1.368 . S
C796 C795 1.523 . S
C797 C781 1.429 . S
C797 C793 1.429 . S
C797 C798 1.523 . S
C798 C782 1.368 . S
C798 C794 1.368 . S
C798 C797 1.523 . S
H799 C774 0.950 . S
H800 C776 0.950 . S
H801 C777 0.949 . S
H802 C779 0.950 . S
H803 C781 0.950 . S
C804 C805 1.349 . S
C804 C806 1.327 . S
C804 H829 0.950 . S
C805 C804 1.349 . S
C805 C821 1.349 . S
C806 C804 1.327 . S
C806 C825 1.429 . S
C806 H830 0.950 . S
C807 C824 1.574 . S
C807 C826 1.368 . S
C807 H831 0.949 . S
H808 C812 0.949 . S
C809 C810 1.349 . S
C809 C811 1.327 . S
C809 H832 0.950 . S
C810 C809 1.349 . S
C810 C822 1.349 . S
C811 C809 1.327 . S
C811 C827 1.429 . S
C811 H833 0.950 . S
C812 H808 0.949 . S
C812 C820 1.574 . S
C812 C828 1.368 . S
H813 C821 0.961 . S
H814 C819 0.950 . S
H815 C820 0.949 . S
H816 C822 0.950 . S
H817 C823 0.950 . S
H818 C824 0.949 . S
C819 H814 0.950 . S
C819 C821 1.327 . S
C819 C825 1.429 . S
C820 C812 1.574 . S
C820 H815 0.949 . S
C820 C826 1.368 . S
C821 C805 1.349 . S
C821 H813 0.961 . S
C821 C819 1.327 . S
C822 C810 1.349 . S
C822 H816 0.950 . S
C822 C823 1.327 . S
C823 H817 0.950 . S
C823 C822 1.327 . S
C823 C827 1.429 . S
C824 C807 1.574 . S
C824 H818 0.949 . S
C824 C828 1.368 . S
C825 C806 1.429 . S
C825 C819 1.429 . S
C825 C826 1.523 . S
C826 C807 1.368 . S
C826 C820 1.368 . S
C826 C825 1.523 . S
C827 C811 1.429 . S
C827 C823 1.429 . S
C827 C828 1.523 . S
C828 C812 1.368 . S
C828 C824 1.368 . S
C828 C827 1.523 . S
H829 C804 0.950 . S
H830 C806 0.950 . S
H831 C807 0.949 . S
H832 C809 0.950 . S
H833 C811 0.950 . S
C834 C835 1.349 . S
C834 C836 1.327 . S
C834 H859 0.950 . S
C835 C834 1.349 . S
C835 C851 1.349 . S
C836 C834 1.327 . S
C836 C855 1.429 . S
C836 H860 0.950 . S
C837 C854 1.574 1_655 S
C837 C856 1.368 . S
C837 H861 0.949 . S
H838 C842 0.949 . S
C839 C840 1.349 . S
C839 C841 1.327 . S
C839 H862 0.950 1_554 S
C840 C839 1.349 . S
C840 C852 1.349 . S
C841 C839 1.327 . S
C841 C857 1.429 . S
C841 H863 0.950 . S
C842 H838 0.949 . S
C842 C850 1.592 . S
C842 C858 1.368 . S
H843 C851 0.950 . S
H844 C849 0.950 . S
H845 C850 0.950 1_655 S
H846 C852 0.950 . S
H847 C853 0.950 . S
H848 C854 0.949 . S
C849 H844 0.950 . S
C849 C851 1.327 . S
C849 C855 1.429 . S
C850 C842 1.592 . S
C850 H845 0.950 1_455 S
C850 C856 1.350 1_455 S
C851 C835 1.349 . S
C851 H843 0.950 . S
C851 C849 1.327 . S
C852 C840 1.349 . S
C852 H846 0.950 . S
C852 C853 1.327 . S
C853 H847 0.950 . S
C853 C852 1.327 . S
C853 C857 1.429 . S
C854 C837 1.574 1_455 S
C854 H848 0.949 . S
C854 C858 1.368 . S
C855 C836 1.429 . S
C855 C849 1.429 . S
C855 C856 1.523 . S
C856 C837 1.368 . S
C856 C850 1.350 1_655 S
C856 C855 1.523 . S
C857 C841 1.429 . S
C857 C853 1.429 . S
C857 C858 1.523 . S
C858 C842 1.368 . S
C858 C854 1.368 . S
C858 C857 1.523 . S
H859 C834 0.950 . S
H860 C836 0.950 . S
H861 C837 0.949 . S
H862 C839 0.950 1_556 S
H863 C841 0.950 . S
C864 C865 1.349 . S
C864 C866 1.327 . S
C864 H889 0.950 . S
C865 C864 1.349 . S
C865 C881 1.349 . S
C866 C864 1.327 . S
C866 C885 1.429 . S
C866 H890 0.950 . S
C867 C884 1.557 1_565 S
C867 C886 1.375 . S
C867 H891 0.958 . S
H868 C872 0.949 . S
C869 C870 1.349 . S
C869 C871 1.327 . S
C869 H892 0.950 . S
C870 C869 1.349 . S
C870 C882 1.349 . S
C871 C869 1.327 . S
C871 C887 1.429 . S
C871 H893 0.950 . S
C872 H868 0.949 . S
C872 C880 1.574 1_545 S
C872 C888 1.368 . S
H873 C881 0.950 . S
H874 C879 0.950 . S
H875 C880 0.949 . S
H876 C882 0.950 . S
H877 C883 0.950 . S
H878 C884 0.949 . S
C879 H874 0.950 . S
C879 C881 1.327 . S
C879 C885 1.429 . S
C880 C872 1.574 1_565 S
C880 H875 0.949 . S
C880 C886 1.368 . S
C881 C865 1.349 . S
C881 H873 0.950 . S
C881 C879 1.327 . S
C882 C870 1.349 . S
C882 H876 0.950 . S
C882 C883 1.327 . S
C883 H877 0.950 . S
C883 C882 1.327 . S
C883 C887 1.429 . S
C884 C867 1.557 1_545 S
C884 H878 0.949 . S
C884 C888 1.368 . S
C885 C866 1.429 . S
C885 C879 1.429 . S
C885 C886 1.523 . S
C886 C867 1.375 . S
C886 C880 1.368 . S
C886 C885 1.523 . S
C887 C871 1.429 . S
C887 C883 1.429 . S
C887 C888 1.523 . S
C888 C872 1.368 . S
C888 C884 1.368 . S
C888 C887 1.523 . S
H889 C864 0.950 . S
H890 C866 0.950 . S
H891 C867 0.958 . S
H892 C869 0.950 . S
H893 C871 0.950 . S
C894 C895 1.349 . S
C894 C896 1.327 . S
C894 H919 0.950 . S
C895 C894 1.349 . S
C895 C911 1.349 . S
C896 C894 1.327 . S
C896 C915 1.429 . S
C896 H920 0.950 . S
C897 C914 1.574 . S
C897 C916 1.368 . S
C897 H921 0.949 . S
H898 C902 0.949 . S
C899 C900 1.349 . S
C899 C901 1.327 . S
C899 H922 0.950 . S
C900 C899 1.349 . S
C900 C912 1.349 . S
C901 C899 1.327 . S
C901 C917 1.429 . S
C901 H923 0.950 . S
C902 H898 0.949 . S
C902 C910 1.574 . S
C902 C918 1.368 . S
H903 C911 0.950 . S
H904 C909 0.950 . S
H905 C910 0.949 . S
H906 C912 0.950 . S
H907 C913 0.950 . S
H908 C914 0.949 . S
C909 H904 0.950 . S
C909 C911 1.327 . S
C909 C915 1.429 . S
C910 C902 1.574 . S
C910 H905 0.949 . S
C910 C916 1.368 . S
C911 C895 1.349 . S
C911 H903 0.950 . S
C911 C909 1.327 . S
C912 C900 1.349 . S
C912 H906 0.950 . S
C912 C913 1.327 . S
C913 H907 0.950 . S
C913 C912 1.327 . S
C913 C917 1.429 . S
C914 C897 1.574 . S
C914 H908 0.949 . S
C914 C918 1.368 . S
C915 C896 1.429 . S
C915 C909 1.429 . S
C915 C916 1.523 . S
C916 C897 1.368 . S
C916 C910 1.368 . S
C916 C915 1.523 . S
C917 C901 1.429 . S
C917 C913 1.429 . S
C917 C918 1.523 . S
C918 C902 1.368 . S
C918 C914 1.368 . S
C918 C917 1.523 . S
H919 C894 0.950 . S
H920 C896 0.950 . S
H921 C897 0.949 . S
H922 C899 0.950 . S
H923 C901 0.950 . S
C924 C925 1.349 . S
C924 C926 1.327 . S
C924 H949 0.950 . S
C925 C924 1.349 . S
C925 C941 1.349 . S
C926 C924 1.327 . S
C926 C945 1.429 . S
C926 H950 0.950 . S
C927 C944 1.603 . S
C927 C946 1.340 1_655 S
C927 H951 0.949 1_655 S
H928 C932 0.949 . S
C929 C930 1.349 . S
C929 C931 1.327 . S
C929 H952 0.950 . S
C930 C929 1.349 . S
C930 C942 1.349 . S
C931 C929 1.327 . S
C931 C947 1.429 . S
C931 H953 0.950 . S
C932 H928 0.949 . S
C932 C940 1.574 1_655 S
C932 C948 1.368 . S
H933 C941 0.950 . S
H934 C939 0.950 . S
H935 C940 0.949 . S
H936 C942 0.950 . S
H937 C943 0.950 . S
H938 C944 0.949 . S
C939 H934 0.950 . S
C939 C941 1.327 . S
C939 C945 1.429 . S
C940 C932 1.574 1_455 S
C940 H935 0.949 . S
C940 C946 1.368 . S
C941 C925 1.349 . S
C941 H933 0.950 . S
C941 C939 1.327 . S
C942 C930 1.349 . S
C942 H936 0.950 . S
C942 C943 1.327 . S
C943 H937 0.950 . S
C943 C942 1.327 . S
C943 C947 1.429 . S
C944 C927 1.603 . S
C944 H938 0.949 . S
C944 C948 1.368 . S
C945 C926 1.429 . S
C945 C939 1.429 . S
C945 C946 1.523 . S
C946 C927 1.340 1_455 S
C946 C940 1.368 . S
C946 C945 1.523 . S
C947 C931 1.429 . S
C947 C943 1.429 . S
C947 C948 1.523 . S
C948 C932 1.368 . S
C948 C944 1.368 . S
C948 C947 1.523 . S
H949 C924 0.950 . S
H950 C926 0.950 . S
H951 C927 0.949 1_455 S
H952 C929 0.950 . S
H953 C931 0.950 . S
C954 C955 1.349 . S
C954 C956 1.327 . S
C954 H979 0.950 . S
C955 C954 1.349 . S
C955 C971 1.349 . S
C956 C954 1.327 . S
C956 C975 1.429 . S
C956 H980 0.950 . S
C957 C974 1.574 1_545 S
C957 C976 1.368 . S
C957 H981 0.949 . S
H958 C962 0.949 . S
C959 C960 1.349 . S
C959 C961 1.327 . S
C959 H982 0.950 . S
C960 C959 1.349 . S
C960 C972 1.349 . S
C961 C959 1.327 . S
C961 C977 1.429 . S
C961 H983 0.950 . S
C962 H958 0.949 . S
C962 C970 1.575 1_565 S
C962 C978 1.368 . S
H963 C971 0.950 . S
H964 C969 0.950 . S
H965 C970 0.949 . S
H966 C972 0.950 . S
H967 C973 0.950 . S
H968 C974 0.949 . S
C969 H964 0.950 . S
C969 C971 1.327 . S
C969 C975 1.429 . S
C970 C962 1.575 1_545 S
C970 H965 0.949 . S
C970 C976 1.368 . S
C971 C955 1.349 . S
C971 H963 0.950 . S
C971 C969 1.327 . S
C972 C960 1.349 . S
C972 H966 0.950 . S
C972 C973 1.327 . S
C973 H967 0.950 . S
C973 C972 1.327 . S
C973 C977 1.429 . S
C974 C957 1.574 1_565 S
C974 H968 0.949 . S
C974 C978 1.368 . S
C975 C956 1.429 . S
C975 C969 1.429 . S
C975 C976 1.523 . S
C976 C957 1.368 . S
C976 C970 1.368 . S
C976 C975 1.523 . S
C977 C961 1.429 . S
C977 C973 1.429 . S
C977 C978 1.523 . S
C978 C962 1.368 . S
C978 C974 1.368 . S
C978 C977 1.523 . S
H979 C954 0.950 . S
H980 C956 0.950 . S
H981 C957 0.949 . S
H982 C959 0.950 . S
H983 C961 0.950 . S
C984 C985 1.349 . S
C984 C986 1.327 . S
C984 H1009 0.950 . S
C985 C984 1.349 . S
C985 C1001 1.349 . S
C986 C984 1.327 . S
C986 C1005 1.429 . S
C986 H1010 0.950 . S
C987 C1004 1.574 . S
C987 C1006 1.368 . S
C987 H1011 0.949 . S
H988 C992 0.949 . S
C989 C990 1.349 . S
C989 C991 1.327 . S
C989 H1012 0.950 . S
C990 C989 1.349 . S
C990 C1002 1.349 . S
C991 C989 1.327 . S
C991 C1007 1.429 . S
C991 H1013 0.950 . S
C992 H988 0.949 . S
C992 C1000 1.574 . S
C992 C1008 1.368 . S
H993 C1001 0.950 . S
H994 C999 0.950 . S
H995 C1000 0.949 . S
H996 C1002 0.950 . S
H997 C1003 0.950 . S
H998 C1004 0.949 . S
C999 H994 0.950 . S
C999 C1001 1.327 . S
C999 C1005 1.429 . S
C1000 C992 1.574 . S
C1000 H995 0.949 . S
C1000 C1006 1.368 . S
C1001 C985 1.349 . S
C1001 H993 0.950 . S
C1001 C999 1.327 . S
C1002 C990 1.349 . S
C1002 H996 0.950 . S
C1002 C1003 1.327 . S
C1003 H997 0.950 . S
C1003 C1002 1.327 . S
C1003 C1007 1.429 . S
C1004 C987 1.574 . S
C1004 H998 0.949 . S
C1004 C1008 1.368 . S
C1005 C986 1.429 . S
C1005 C999 1.429 . S
C1005 C1006 1.523 . S
C1006 C987 1.368 . S
C1006 C1000 1.368 . S
C1006 C1005 1.523 . S
C1007 C991 1.429 . S
C1007 C1003 1.429 . S
C1007 C1008 1.523 . S
C1008 C992 1.368 . S
C1008 C1004 1.368 . S
C1008 C1007 1.523 . S
H1009 C984 0.950 . S
H1010 C986 0.950 . S
H1011 C987 0.949 . S
H1012 C989 0.950 . S
H1013 C991 0.950 . S
C1014 C1015 1.349 . S
C1014 C1016 1.327 . S
C1014 H1039 0.950 . S
C1015 C1014 1.349 . S
C1015 C1031 1.349 . S
C1016 C1014 1.327 . S
C1016 C1035 1.429 . S
C1016 H1040 0.950 . S
C1017 C1034 1.589 . S
C1017 C1036 1.368 . S
C1017 H1041 0.949 . S
H1018 C1022 0.949 . S
C1019 C1020 1.349 . S
C1019 C1021 1.327 . S
C1019 H1042 0.950 1_554 S
C1020 C1019 1.349 . S
C1020 C1032 1.349 . S
C1021 C1019 1.327 . S
C1021 C1037 1.429 . S
C1021 H1043 0.950 . S
C1022 H1018 0.949 . S
C1022 C1030 1.574 1_655 S
C1022 C1038 1.368 . S
H1023 C1031 0.950 . S
H1024 C1029 0.950 . S
H1025 C1030 0.949 . S
H1026 C1032 0.950 . S
H1027 C1033 0.950 . S
H1028 C1034 0.943 1_655 S
C1029 H1024 0.950 . S
C1029 C1031 1.327 . S
C1029 C1035 1.429 . S
C1030 C1022 1.574 1_455 S
C1030 H1025 0.949 . S
C1030 C1036 1.368 . S
C1031 C1015 1.349 . S
C1031 H1023 0.950 . S
C1031 C1029 1.327 . S
C1032 C1020 1.349 . S
C1032 H1026 0.950 . S
C1032 C1033 1.327 . S
C1033 H1027 0.950 . S
C1033 C1032 1.327 . S
C1033 C1037 1.429 . S
C1034 C1017 1.589 . S
C1034 H1028 0.943 1_455 S
C1034 C1038 1.360 1_455 S
C1035 C1016 1.429 . S
C1035 C1029 1.429 . S
C1035 C1036 1.523 . S
C1036 C1017 1.368 . S
C1036 C1030 1.368 . S
C1036 C1035 1.523 . S
C1037 C1021 1.429 . S
C1037 C1033 1.429 . S
C1037 C1038 1.523 . S
C1038 C1022 1.368 . S
C1038 C1034 1.360 1_655 S
C1038 C1037 1.523 . S
H1039 C1014 0.950 . S
H1040 C1016 0.950 . S
H1041 C1017 0.949 . S
H1042 C1019 0.950 1_556 S
H1043 C1021 0.950 . S
C1044 C1045 1.349 . S
C1044 C1046 1.327 . S
C1044 H1069 0.950 . S
C1045 C1044 1.349 . S
C1045 C1061 1.349 . S
C1046 C1044 1.327 . S
C1046 C1065 1.429 . S
C1046 H1070 0.950 . S
C1047 C1064 1.574 1_545 S
C1047 C1066 1.368 . S
C1047 H1071 0.949 . S
H1048 C1052 0.949 . S
C1049 C1050 1.349 . S
C1049 C1051 1.327 . S
C1049 H1072 0.950 . S
C1050 C1049 1.349 . S
C1050 C1062 1.349 . S
C1051 C1049 1.327 . S
C1051 C1067 1.429 . S
C1051 H1073 0.950 . S
C1052 H1048 0.949 . S
C1052 C1060 1.574 1_565 S
C1052 C1068 1.368 . S
H1053 C1061 0.950 . S
H1054 C1059 0.950 . S
H1055 C1060 0.949 . S
H1056 C1062 0.950 . S
H1057 C1063 0.950 . S
H1058 C1064 0.949 . S
C1059 H1054 0.950 . S
C1059 C1061 1.327 . S
C1059 C1065 1.429 . S
C1060 C1052 1.574 1_545 S
C1060 H1055 0.949 . S
C1060 C1066 1.368 . S
C1061 C1045 1.349 . S
C1061 H1053 0.950 . S
C1061 C1059 1.327 . S
C1062 C1050 1.349 . S
C1062 H1056 0.950 . S
C1062 C1063 1.327 . S
C1063 H1057 0.950 . S
C1063 C1062 1.327 . S
C1063 C1067 1.429 . S
C1064 C1047 1.574 1_565 S
C1064 H1058 0.949 . S
C1064 C1068 1.368 . S
C1065 C1046 1.429 . S
C1065 C1059 1.429 . S
C1065 C1066 1.523 . S
C1066 C1047 1.368 . S
C1066 C1060 1.368 . S
C1066 C1065 1.523 . S
C1067 C1051 1.429 . S
C1067 C1063 1.429 . S
C1067 C1068 1.523 . S
C1068 C1052 1.368 . S
C1068 C1064 1.368 . S
C1068 C1067 1.523 . S
H1069 C1044 0.950 . S
H1070 C1046 0.950 . S
H1071 C1047 0.949 . S
H1072 C1049 0.950 . S
H1073 C1051 0.950 . S
C1074 C1075 1.349 . S
C1074 C1076 1.327 . S
C1074 H1099 0.950 . S
C1075 C1074 1.349 . S
C1075 C1091 1.349 . S
C1076 C1074 1.327 . S
C1076 C1095 1.429 . S
C1076 H1100 0.950 . S
C1077 C1094 1.574 . S
C1077 C1096 1.368 . S
C1077 H1101 0.949 . S
H1078 C1082 0.949 . S
C1079 C1080 1.349 . S
C1079 C1081 1.327 . S
C1079 H1102 0.950 . S
C1080 C1079 1.349 . S
C1080 C1092 1.349 . S
C1081 C1079 1.327 . S
C1081 C1097 1.429 . S
C1081 H1103 0.950 . S
C1082 H1078 0.949 . S
C1082 C1090 1.574 . S
C1082 C1098 1.368 . S
H1083 C1091 0.950 . S
H1084 C1089 0.950 . S
H1085 C1090 0.949 . S
H1086 C1092 0.950 . S
H1087 C1093 0.950 . S
H1088 C1094 0.949 . S
C1089 H1084 0.950 . S
C1089 C1091 1.327 . S
C1089 C1095 1.429 . S
C1090 C1082 1.574 . S
C1090 H1085 0.949 . S
C1090 C1096 1.368 . S
C1091 C1075 1.349 . S
C1091 H1083 0.950 . S
C1091 C1089 1.327 . S
C1092 C1080 1.349 . S
C1092 H1086 0.950 . S
C1092 C1093 1.327 . S
C1093 H1087 0.950 . S
C1093 C1092 1.327 . S
C1093 C1097 1.429 . S
C1094 C1077 1.574 . S
C1094 H1088 0.949 . S
C1094 C1098 1.368 . S
C1095 C1076 1.429 . S
C1095 C1089 1.429 . S
C1095 C1096 1.523 . S
C1096 C1077 1.368 . S
C1096 C1090 1.368 . S
C1096 C1095 1.523 . S
C1097 C1081 1.429 . S
C1097 C1093 1.429 . S
C1097 C1098 1.523 . S
C1098 C1082 1.368 . S
C1098 C1094 1.368 . S
C1098 C1097 1.523 . S
H1099 C1074 0.950 . S
H1100 C1076 0.950 . S
H1101 C1077 0.949 . S
H1102 C1079 0.950 . S
H1103 C1081 0.950 . S
C1104 C1105 1.349 . S
C1104 C1106 1.327 . S
C1104 H1129 0.950 . S
C1105 C1104 1.349 . S
C1105 C1121 1.349 . S
C1106 C1104 1.327 . S
C1106 C1125 1.429 . S
C1106 H1130 0.950 . S
C1107 C1124 1.574 1_455 S
C1107 C1126 1.368 . S
C1107 H1131 0.949 . S
H1108 C1112 0.949 . S
C1109 C1110 1.349 . S
C1109 C1111 1.327 . S
C1109 H1132 0.950 . S
C1110 C1109 1.349 . S
C1110 C1122 1.349 . S
C1111 C1109 1.327 . S
C1111 C1127 1.429 . S
C1111 H1133 0.950 . S
C1112 H1108 0.949 . S
C1112 C1120 1.574 1_655 S
C1112 C1128 1.368 . S
H1113 C1121 0.950 . S
H1114 C1119 0.950 . S
H1115 C1120 0.949 . S
H1116 C1122 0.950 . S
H1117 C1123 0.950 . S
H1118 C1124 0.949 . S
C1119 H1114 0.950 . S
C1119 C1121 1.327 . S
C1119 C1125 1.429 . S
C1120 C1112 1.574 1_455 S
C1120 H1115 0.949 . S
C1120 C1126 1.368 . S
C1121 C1105 1.349 . S
C1121 H1113 0.950 . S
C1121 C1119 1.327 . S
C1122 C1110 1.349 . S
C1122 H1116 0.950 . S
C1122 C1123 1.327 . S
C1123 H1117 0.950 . S
C1123 C1122 1.327 . S
C1123 C1127 1.429 . S
C1124 C1107 1.574 1_655 S
C1124 H1118 0.949 . S
C1124 C1128 1.368 . S
C1125 C1106 1.429 . S
C1125 C1119 1.429 . S
C1125 C1126 1.523 . S
C1126 C1107 1.368 . S
C1126 C1120 1.368 . S
C1126 C1125 1.523 . S
C1127 C1111 1.429 . S
C1127 C1123 1.429 . S
C1127 C1128 1.523 . S
C1128 C1112 1.368 . S
C1128 C1124 1.368 . S
C1128 C1127 1.523 . S
H1129 C1104 0.950 . S
H1130 C1106 0.950 . S
H1131 C1107 0.949 . S
H1132 C1109 0.950 . S
H1133 C1111 0.950 . S
C1134 C1135 1.349 . S
C1134 C1136 1.327 . S
C1134 H1159 0.950 . S
C1135 C1134 1.349 . S
C1135 C1151 1.349 . S
C1136 C1134 1.327 . S
C1136 C1155 1.429 . S
C1136 H1160 0.950 . S
C1137 C1154 1.574 1_545 S
C1137 C1156 1.368 . S
C1137 H1161 0.949 . S
H1138 C1142 0.949 . S
C1139 C1140 1.349 . S
C1139 C1141 1.327 . S
C1139 H1162 0.950 . S
C1140 C1139 1.349 . S
C1140 C1152 1.349 . S
C1141 C1139 1.327 . S
C1141 C1157 1.429 . S
C1141 H1163 0.950 . S
C1142 H1138 0.949 . S
C1142 C1150 1.568 1_565 S
C1142 C1158 1.368 . S
H1143 C1151 0.950 . S
H1144 C1149 0.950 . S
H1145 C1150 0.949 . S
H1146 C1152 0.950 . S
H1147 C1153 0.950 . S
H1148 C1154 0.949 . S
C1149 H1144 0.950 . S
C1149 C1151 1.327 . S
C1149 C1155 1.429 . S
C1150 C1142 1.568 1_545 S
C1150 H1145 0.949 . S
C1150 C1156 1.374 . S
C1151 C1135 1.349 . S
C1151 H1143 0.950 . S
C1151 C1149 1.327 . S
C1152 C1140 1.349 . S
C1152 H1146 0.950 . S
C1152 C1153 1.327 . S
C1153 H1147 0.950 . S
C1153 C1152 1.327 . S
C1153 C1157 1.429 . S
C1154 C1137 1.574 1_565 S
C1154 H1148 0.949 . S
C1154 C1158 1.368 . S
C1155 C1136 1.429 . S
C1155 C1149 1.429 . S
C1155 C1156 1.523 . S
C1156 C1137 1.368 . S
C1156 C1150 1.374 . S
C1156 C1155 1.523 . S
C1157 C1141 1.429 . S
C1157 C1153 1.429 . S
C1157 C1158 1.523 . S
C1158 C1142 1.368 . S
C1158 C1154 1.368 . S
C1158 C1157 1.523 . S
H1159 C1134 0.950 . S
H1160 C1136 0.950 . S
H1161 C1137 0.949 . S
H1162 C1139 0.950 . S
H1163 C1141 0.950 . S
C1164 C1165 1.349 . S
C1164 C1166 1.327 . S
C1164 H1189 0.950 . S
C1165 C1164 1.349 . S
C1165 C1181 1.349 . S
C1166 C1164 1.327 . S
C1166 C1185 1.429 . S
C1166 H1190 0.950 . S
C1167 C1184 1.574 . S
C1167 C1186 1.368 . S
C1167 H1191 0.949 . S
H1168 C1172 0.949 . S
C1169 C1170 1.349 . S
C1169 C1171 1.327 . S
C1169 H1192 0.950 . S
C1170 C1169 1.349 . S
C1170 C1182 1.349 . S
C1171 C1169 1.327 . S
C1171 C1187 1.429 . S
C1171 H1193 0.950 . S
C1172 H1168 0.949 . S
C1172 C1180 1.574 . S
C1172 C1188 1.368 . S
H1173 C1181 0.950 . S
H1174 C1179 0.950 . S
H1175 C1180 0.949 . S
H1176 C1182 0.950 . S
H1177 C1183 0.950 . S
H1178 C1184 0.949 . S
C1179 H1174 0.950 . S
C1179 C1181 1.327 . S
C1179 C1185 1.429 . S
C1180 C1172 1.574 . S
C1180 H1175 0.949 . S
C1180 C1186 1.368 . S
C1181 C1165 1.349 . S
C1181 H1173 0.950 . S
C1181 C1179 1.327 . S
C1182 C1170 1.349 . S
C1182 H1176 0.950 . S
C1182 C1183 1.327 . S
C1183 H1177 0.950 . S
C1183 C1182 1.327 . S
C1183 C1187 1.429 . S
C1184 C1167 1.574 . S
C1184 H1178 0.949 . S
C1184 C1188 1.368 . S
C1185 C1166 1.429 . S
C1185 C1179 1.429 . S
C1185 C1186 1.523 . S
C1186 C1167 1.368 . S
C1186 C1180 1.368 . S
C1186 C1185 1.523 . S
C1187 C1171 1.429 . S
C1187 C1183 1.429 . S
C1187 C1188 1.523 . S
C1188 C1172 1.368 . S
C1188 C1184 1.368 . S
C1188 C1187 1.523 . S
H1189 C1164 0.950 . S
H1190 C1166 0.950 . S
H1191 C1167 0.949 . S
H1192 C1169 0.950 . S
H1193 C1171 0.950 . S
C1194 C1195 1.349 . S
C1194 C1196 1.327 . S
C1194 H1219 0.950 . S
C1195 C1194 1.349 . S
C1195 C1211 1.349 . S
C1196 C1194 1.327 . S
C1196 C1215 1.429 . S
C1196 H1220 0.950 . S
C1197 C1214 1.574 . S
C1197 C1216 1.368 . S
C1197 H1221 0.949 . S
H1198 C1202 0.949 . S
C1199 C1200 1.349 . S
C1199 C1201 1.327 . S
C1199 H1222 0.950 . S
C1200 C1199 1.349 . S
C1200 C1212 1.349 . S
C1201 C1199 1.327 . S
C1201 C1217 1.429 . S
C1201 H1223 0.950 . S
C1202 H1198 0.949 . S
C1202 C1210 1.574 . S
C1202 C1218 1.368 . S
H1203 C1211 0.950 . S
H1204 C1209 0.950 . S
H1205 C1210 0.949 . S
H1206 C1212 0.950 . S
H1207 C1213 0.950 . S
H1208 C1214 0.949 . S
C1209 H1204 0.950 . S
C1209 C1211 1.327 . S
C1209 C1215 1.429 . S
C1210 C1202 1.574 . S
C1210 H1205 0.949 . S
C1210 C1216 1.368 . S
C1211 C1195 1.349 . S
C1211 H1203 0.950 . S
C1211 C1209 1.327 . S
C1212 C1200 1.349 . S
C1212 H1206 0.950 . S
C1212 C1213 1.327 . S
C1213 H1207 0.950 . S
C1213 C1212 1.327 . S
C1213 C1217 1.429 . S
C1214 C1197 1.574 . S
C1214 H1208 0.949 . S
C1214 C1218 1.368 . S
C1215 C1196 1.429 . S
C1215 C1209 1.429 . S
C1215 C1216 1.523 . S
C1216 C1197 1.368 . S
C1216 C1210 1.368 . S
C1216 C1215 1.523 . S
C1217 C1201 1.429 . S
C1217 C1213 1.429 . S
C1217 C1218 1.523 . S
C1218 C1202 1.368 . S
C1218 C1214 1.368 . S
C1218 C1217 1.523 . S
H1219 C1194 0.950 . S
H1220 C1196 0.950 . S
H1221 C1197 0.949 . S
H1222 C1199 0.950 . S
H1223 C1201 0.950 . S
C1224 C1225 1.349 . S
C1224 C1226 1.327 . S
C1224 H1249 0.950 . S
C1225 C1224 1.349 . S
C1225 C1241 1.349 . S
C1226 C1224 1.327 . S
C1226 C1245 1.429 . S
C1226 H1250 0.950 . S
C1227 C1244 1.574 . S
C1227 C1246 1.368 . S
C1227 H1251 0.949 . S
H1228 C1232 0.949 . S
C1229 C1230 1.349 . S
C1229 C1231 1.327 . S
C1229 H1252 0.950 . S
C1230 C1229 1.349 . S
C1230 C1242 1.349 . S
C1231 C1229 1.327 . S
C1231 C1247 1.429 . S
C1231 H1253 0.950 . S
C1232 H1228 0.949 . S
C1232 C1240 1.574 . S
C1232 C1248 1.368 . S
H1233 C1241 0.950 . S
H1234 C1239 0.950 . S
H1235 C1240 0.949 . S
H1236 C1242 0.950 . S
H1237 C1243 0.950 . S
H1238 C1244 0.949 . S
C1239 H1234 0.950 . S
C1239 C1241 1.327 . S
C1239 C1245 1.429 . S
C1240 C1232 1.574 . S
C1240 H1235 0.949 . S
C1240 C1246 1.368 . S
C1241 C1225 1.349 . S
C1241 H1233 0.950 . S
C1241 C1239 1.327 . S
C1242 C1230 1.349 . S
C1242 H1236 0.950 . S
C1242 C1243 1.327 . S
C1243 H1237 0.950 . S
C1243 C1242 1.327 . S
C1243 C1247 1.429 . S
C1244 C1227 1.574 . S
C1244 H1238 0.949 . S
C1244 C1248 1.368 . S
C1245 C1226 1.429 . S
C1245 C1239 1.429 . S
C1245 C1246 1.523 . S
C1246 C1227 1.368 . S
C1246 C1240 1.368 . S
C1246 C1245 1.523 . S
C1247 C1231 1.429 . S
C1247 C1243 1.429 . S
C1247 C1248 1.523 . S
C1248 C1232 1.368 . S
C1248 C1244 1.368 . S
C1248 C1247 1.523 . S
H1249 C1224 0.950 . S
H1250 C1226 0.950 . S
H1251 C1227 0.949 . S
H1252 C1229 0.950 . S
H1253 C1231 0.950 . S
C1254 C1255 1.349 . S
C1254 C1256 1.327 . S
C1254 H1279 0.950 . S
C1255 C1254 1.349 . S
C1255 C1271 1.349 . S
C1256 C1254 1.327 . S
C1256 C1275 1.429 . S
C1256 H1280 0.950 . S
C1257 C1274 1.574 . S
C1257 C1276 1.368 . S
C1257 H1281 0.949 . S
H1258 C1262 0.949 . S
C1259 C1260 1.349 . S
C1259 C1261 1.327 . S
C1259 H1282 0.950 . S
C1260 C1259 1.349 . S
C1260 C1272 1.349 . S
C1261 C1259 1.327 . S
C1261 C1277 1.429 . S
C1261 H1283 0.950 . S
C1262 H1258 0.949 . S
C1262 C1270 1.574 . S
C1262 C1278 1.368 . S
H1263 C1271 0.950 . S
H1264 C1269 0.950 . S
H1265 C1270 0.949 . S
H1266 C1272 0.950 . S
H1267 C1273 0.950 . S
H1268 C1274 0.949 . S
C1269 H1264 0.950 . S
C1269 C1271 1.327 . S
C1269 C1275 1.429 . S
C1270 C1262 1.574 . S
C1270 H1265 0.949 . S
C1270 C1276 1.368 . S
C1271 C1255 1.349 . S
C1271 H1263 0.950 . S
C1271 C1269 1.327 . S
C1272 C1260 1.349 . S
C1272 H1266 0.950 . S
C1272 C1273 1.327 . S
C1273 H1267 0.950 . S
C1273 C1272 1.327 . S
C1273 C1277 1.429 . S
C1274 C1257 1.574 . S
C1274 H1268 0.949 . S
C1274 C1278 1.368 . S
C1275 C1256 1.429 . S
C1275 C1269 1.429 . S
C1275 C1276 1.523 . S
C1276 C1257 1.368 . S
C1276 C1270 1.368 . S
C1276 C1275 1.523 . S
C1277 C1261 1.429 . S
C1277 C1273 1.429 . S
C1277 C1278 1.523 . S
C1278 C1262 1.368 . S
C1278 C1274 1.368 . S
C1278 C1277 1.523 . S
H1279 C1254 0.950 . S
H1280 C1256 0.950 . S
H1281 C1257 0.949 . S
H1282 C1259 0.950 . S
H1283 C1261 0.950 . S
C1284 C1285 1.349 . S
C1284 C1286 1.327 . S
C1284 H1309 0.950 . S
C1285 C1284 1.349 . S
C1285 C1301 1.349 . S
C1286 C1284 1.327 . S
C1286 C1305 1.429 . S
C1286 H1310 0.950 . S
C1287 C1304 1.574 . S
C1287 C1306 1.368 . S
C1287 H1311 0.949 . S
H1288 C1292 0.949 . S
C1289 C1290 1.349 . S
C1289 C1291 1.302 1_554 S
C1289 H1312 0.950 . S
C1290 C1289 1.349 . S
C1290 C1302 1.349 . S
C1291 C1289 1.302 1_556 S
C1291 C1307 1.441 . S
C1291 H1313 0.962 . S
C1292 H1288 0.949 . S
C1292 C1300 1.574 . S
C1292 C1308 1.368 . S
H1293 C1301 0.950 . S
H1294 C1299 0.950 . S
H1295 C1300 0.949 . S
H1296 C1302 0.950 . S
H1297 C1303 0.950 1_556 S
H1298 C1304 0.949 . S
C1299 H1294 0.950 . S
C1299 C1301 1.327 . S
C1299 C1305 1.429 . S
C1300 C1292 1.574 . S
C1300 H1295 0.949 . S
C1300 C1306 1.368 . S
C1301 C1285 1.349 . S
C1301 H1293 0.950 . S
C1301 C1299 1.327 . S
C1302 C1290 1.349 . S
C1302 H1296 0.950 . S
C1302 C1303 1.327 . S
C1303 H1297 0.950 1_554 S
C1303 C1302 1.327 . S
C1303 C1307 1.429 1_554 S
C1304 C1287 1.574 . S
C1304 H1298 0.949 . S
C1304 C1308 1.368 . S
C1305 C1286 1.429 . S
C1305 C1299 1.429 . S
C1305 C1306 1.523 . S
C1306 C1287 1.368 . S
C1306 C1300 1.368 . S
C1306 C1305 1.523 . S
C1307 C1291 1.441 . S
C1307 C1303 1.429 1_556 S
C1307 C1308 1.523 . S
C1308 C1292 1.368 . S
C1308 C1304 1.368 . S
C1308 C1307 1.523 . S
H1309 C1284 0.950 . S
H1310 C1286 0.950 . S
H1311 C1287 0.949 . S
H1312 C1289 0.950 . S
H1313 C1291 0.962 . S
C1314 C1315 1.349 . S
C1314 C1316 1.327 1_556 S
C1314 H1339 0.950 . S
C1315 C1314 1.349 . S
C1315 C1331 1.349 . S
C1316 C1314 1.327 1_554 S
C1316 C1335 1.429 . S
C1316 H1340 0.950 . S
C1317 C1334 1.574 . S
C1317 C1336 1.368 . S
C1317 H1341 0.949 . S
H1318 C1322 0.949 . S
C1319 C1320 1.349 . S
C1319 C1321 1.327 . S
C1319 H1342 0.950 . S
C1320 C1319 1.349 . S
C1320 C1332 1.349 . S
C1321 C1319 1.327 . S
C1321 C1337 1.429 . S
C1321 H1343 0.950 . S
C1322 H1318 0.949 . S
C1322 C1330 1.574 . S
C1322 C1338 1.368 . S
H1323 C1331 0.950 . S
H1324 C1329 0.950 1_554 S
H1325 C1330 0.949 . S
H1326 C1332 0.950 . S
H1327 C1333 0.950 . S
H1328 C1334 0.949 . S
C1329 H1324 0.950 1_556 S
C1329 C1331 1.327 . S
C1329 C1335 1.429 1_556 S
C1330 C1322 1.574 . S
C1330 H1325 0.949 . S
C1330 C1336 1.368 . S
C1331 C1315 1.349 . S
C1331 H1323 0.950 . S
C1331 C1329 1.327 . S
C1332 C1320 1.349 . S
C1332 H1326 0.950 . S
C1332 C1333 1.327 . S
C1333 H1327 0.950 . S
C1333 C1332 1.327 . S
C1333 C1337 1.429 . S
C1334 C1317 1.574 . S
C1334 H1328 0.949 . S
C1334 C1338 1.368 . S
C1335 C1316 1.429 . S
C1335 C1329 1.429 1_554 S
C1335 C1336 1.523 . S
C1336 C1317 1.368 . S
C1336 C1330 1.368 . S
C1336 C1335 1.523 . S
C1337 C1321 1.429 . S
C1337 C1333 1.429 . S
C1337 C1338 1.523 . S
C1338 C1322 1.368 . S
C1338 C1334 1.368 . S
C1338 C1337 1.523 . S
H1339 C1314 0.950 . S
H1340 C1316 0.950 . S
H1341 C1317 0.949 . S
H1342 C1319 0.950 . S
H1343 C1321 0.950 . S
C265 C15 1.495 . S
C270 C183 1.495 . S
C295 C213 1.495 . S
C300 C43 1.495 . S
C325 C235 1.495 . S
C330 C59 1.495 . S
C355 C81 1.495 . S
C360 C249 1.495 . S
C385 C153 1.495 . S
C390 C103 1.495 . S
C415 C169 1.495 . S
C420 C125 1.495 . S
C445 C18 0.721 . S
C450 C216 0.721 . S
C475 C32 0.721 . S
C480 C238 0.721 . S
C505 C250 0.721 . S
C510 C62 0.721 . S
C535 C142 0.721 . S
C540 C84 0.721 . S
C565 C106 0.721 . S
C570 C172 0.721 . S
C595 C128 0.721 . S
C600 C184 0.721 . S
C625 C140 1.378 . S
C630 C10 1.378 . S
C655 C164 1.378 . S
C660 C30 1.378 . S
C685 C194 1.378 . S
C690 C54 1.378 . S
C715 C76 1.378 . S
C720 C208 1.378 . S
C745 C98 1.378 . S
C750 C230 1.378 . S
C775 C120 1.378 . S
C780 C260 1.378 . S
C805 C8 1.272 . S
C810 C131 1.310 . S
C835 C40 1.273 . S
C840 C21 1.310 . S
C865 C52 1.273 . S
C870 C29 1.310 . S
C895 C65 1.310 . S
C900 C74 1.273 . S
C925 C96 1.273 . S
C930 C87 1.310 . S
C955 C118 1.272 . S
C960 C109 1.310 . S
C985 C175 1.310 . S
C990 C150 1.273 . S
C1015 C191 1.310 . S
C1020 C162 1.273 . S
C1045 C219 1.310 . S
C1050 C186 1.273 . S
C1075 C206 1.272 . S
C1080 C241 1.310 . S
C1105 C228 1.273 . S
C1110 C257 1.310 . S
C1135 C252 1.273 . S
C1140 C139 1.310 . S
C1165 C227 0.436 . S
C1170 C7 0.436 . S
C1195 C263 0.436 . S
C1200 C37 0.436 . S
C1225 C147 0.436 . S
C1230 C51 0.436 . S
C1255 C161 0.436 . S
C1260 C73 0.436 . S
C1285 C95 0.436 . S
C1290 C197 0.436 . S
C1315 C117 0.436 . S
C1320 C205 0.436 . S
