# Generated by pormake.
# Topology lhb, (8)-cn, num edge types: 1
# Building blocks:
#     Node 0, Type 0, BuildingBlock: TAGTUT_clean_sbu_1, # of connection points: 8
#     Node 1, Type 0, BuildingBlock: TAGTUT_clean_sbu_1, # of connection points: 8
#     Node 2, Type 0, BuildingBlock: TAGTUT_clean_sbu_1, # of connection points: 8
#     Node 3, Type 0, BuildingBlock: TAGTUT_clean_sbu_1, # of connection points: 8
#     Node 4, Type 0, BuildingBlock: TAGTUT_clean_sbu_1, # of connection points: 8
#     Node 5, Type 0, BuildingBlock: TAGTUT_clean_sbu_1, # of connection points: 8
#     Node 6, Type 0, BuildingBlock: TAGTUT_clean_sbu_1, # of connection points: 8
#     Node 7, Type 0, BuildingBlock: TAGTUT_clean_sbu_1, # of connection points: 8
#     Edge 8, Type (0, 0), None
#     Edge 9, Type (0, 0), None
#     Edge 10, Type (0, 0), None
#     Edge 11, Type (0, 0), None
#     Edge 12, Type (0, 0), None
#     Edge 13, Type (0, 0), None
#     Edge 14, Type (0, 0), None
#     Edge 15, Type (0, 0), None
#     Edge 16, Type (0, 0), None
#     Edge 17, Type (0, 0), None
#     Edge 18, Type (0, 0), None
#     Edge 19, Type (0, 0), None
#     Edge 20, Type (0, 0), None
#     Edge 21, Type (0, 0), None
#     Edge 22, Type (0, 0), None
#     Edge 23, Type (0, 0), None
#     Edge 24, Type (0, 0), None
#     Edge 25, Type (0, 0), None
#     Edge 26, Type (0, 0), None
#     Edge 27, Type (0, 0), None
#     Edge 28, Type (0, 0), None
#     Edge 29, Type (0, 0), None
#     Edge 30, Type (0, 0), None
#     Edge 31, Type (0, 0), None
#     Edge 32, Type (0, 0), None
#     Edge 33, Type (0, 0), None
#     Edge 34, Type (0, 0), None
#     Edge 35, Type (0, 0), None
#     Edge 36, Type (0, 0), None
#     Edge 37, Type (0, 0), None
#     Edge 38, Type (0, 0), None
#     Edge 39, Type (0, 0), None
# Relax obj value: 0.047
# Max RMSD: 0.148
# Mean RMSD: 0.148
data_MOF--net-lhb--node1-TAGTUT_clean_sbu_1--edge1-none
_symmetry_space_group_name_H-M    P1
_symmetry_Int_Tables_number       1
_symmetry_cell_setting            triclinic
loop_
_symmetry_equiv_pos_as_xyz
'x, y, z'
_cell_length_a     19.746373
_cell_length_b     7.3629243
_cell_length_c     31.802662
_cell_angle_alpha  92.461777
_cell_angle_beta   89.512916
_cell_angle_gamma 89.81712
loop_
_atom_site_label
_atom_site_type_symbol
_atom_site_fract_x
_atom_site_fract_y
_atom_site_fract_z
_atom_type_partial_charge
C0 C 0.1251 -0.00123 0.12156 0.0
C1 C 0.16299 0.16074 0.00064 0.0
C2 C 0.93174 0.36278 -0.00299 0.0
Mg3 Mg 0.09872 0.78459 0.0313 0.0
O4 O 0.02231 0.91677 0.03956 0.0
Mg5 Mg 0.02487 0.18585 0.05868 0.0
Mg6 Mg 0.95123 0.93114 -0.00541 0.0
O7 O 0.88006 -0.03384 0.95298 0.0
Mg8 Mg 0.80741 0.11651 0.97007 0.0
Mg9 Mg 0.86293 0.72239 0.92678 0.0
C10 C 0.96285 0.52245 -0.00023 0.0
C11 C 0.01689 0.78236 0.90513 0.0
O12 O 0.08711 0.13181 0.11378 0.0
O13 O 0.13324 0.85822 0.0961 0.0
O14 O 0.11972 0.24913 0.0231 0.0
O15 O 0.16026 -0.01455 -0.00503 0.0
O16 O 0.02484 0.54156 0.01378 0.0
O17 O 0.92942 0.65464 0.98691 0.0
C18 C 0.89868 -0.0422 0.08854 0.0
O19 O 0.8821 0.90403 0.05149 0.0
O20 O 0.93469 0.0997 0.09516 0.0
O21 O 0.82355 0.92691 0.87289 0.0
O22 O 0.78682 0.17828 0.90921 0.0
O23 O 0.76176 0.68423 0.95917 0.0
C24 C 0.80396 0.09626 0.87481 0.0
O25 O 0.72833 0.93513 -0.005 0.0
O26 O 0.86779 0.35451 0.98966 0.0
C27 C 0.71981 0.76707 0.98348 0.0
O28 O -0.03419 0.22191 0.00207 0.0
O29 O 0.02707 0.89013 0.93751 0.0
O30 O 0.95947 0.71801 0.89639 0.0
C31 C 0.38836 0.34396 0.12521 0.0
C32 C 0.47059 0.00947 0.23333 0.0
C33 C 0.22786 0.76724 0.24943 0.0
Mg34 Mg 0.38334 0.35834 0.21992 0.0
O35 O 0.31123 0.20997 0.20211 0.0
Mg36 Mg 0.32889 -0.03401 0.17594 0.0
Mg37 Mg 0.23944 0.17608 0.24383 0.0
O38 O 0.16798 0.16292 0.28905 0.0
Mg39 Mg 0.09201 0.0302 0.28194 0.0
Mg40 Mg 0.16515 0.43215 0.30781 0.0
C41 C 0.25914 0.6074 0.24645 0.0
C42 C 0.29176 0.20506 0.33771 0.0
O43 O 0.36803 0.1757 0.1228 0.0
O44 O 0.40672 0.42185 0.1596 0.0
O45 O 0.42968 0.92731 0.20868 0.0
O46 O 0.46138 0.17717 0.24503 0.0
O47 O 0.3233 0.59838 0.23931 0.0
O48 O 0.22488 0.46701 0.25116 0.0
C49 C 0.17486 0.03047 0.15435 0.0
O50 O 0.16442 0.13766 0.18696 0.0
O51 O 0.23233 -0.03632 0.14542 0.0
O52 O 0.10332 0.3814 0.36332 0.0
O53 O 0.05849 0.10628 0.34713 0.0
O54 O 0.07028 0.49302 0.27243 0.0
C55 C 0.06647 0.24798 0.37212 0.0
O56 O 0.03013 0.22814 0.2455 0.0
O57 O 0.16581 0.78649 0.26398 0.0
C58 C 0.02723 0.40361 0.25057 0.0
O59 O 0.26082 0.89918 0.236 0.0
O60 O 0.3077 0.14746 0.30062 0.0
O61 O 0.25485 0.34634 0.3442 0.0
C62 C 0.88836 0.84395 0.12521 0.0
C63 C -0.02941 0.50946 0.23333 0.0
C64 C 0.72786 0.26722 0.24941 0.0
Mg65 Mg 0.88334 0.85832 0.21991 0.0
O66 O 0.81123 0.70995 0.2021 0.0
Mg67 Mg 0.82889 0.46597 0.17593 0.0
Mg68 Mg 0.73944 0.67605 0.24382 0.0
O69 O 0.66798 0.6629 0.28904 0.0
Mg70 Mg 0.59201 0.53018 0.28193 0.0
Mg71 Mg 0.66515 0.93212 0.3078 0.0
C72 C 0.75914 0.10738 0.24644 0.0
C73 C 0.79176 0.70504 0.3377 0.0
O74 O 0.86804 0.67568 0.1228 0.0
O75 O 0.90672 0.92183 0.1596 0.0
O76 O 0.92969 0.4273 0.20868 0.0
O77 O 0.96137 0.67716 0.24504 0.0
O78 O 0.8233 0.09835 0.23931 0.0
O79 O 0.72488 -0.03301 0.25115 0.0
C80 C 0.67486 0.53046 0.15434 0.0
O81 O 0.66443 0.6376 0.18695 0.0
O82 O 0.73234 0.46365 0.1454 0.0
O83 O 0.60332 0.88138 0.36331 0.0
O84 O 0.55848 0.60627 0.34711 0.0
O85 O 0.57029 -0.00699 0.27242 0.0
C86 C 0.56646 0.74797 0.37211 0.0
O87 O 0.53013 0.72814 0.24549 0.0
O88 O 0.66581 0.28647 0.26397 0.0
C89 C 0.52724 0.90361 0.25056 0.0
O90 O 0.76082 0.39916 0.23599 0.0
O91 O 0.8077 0.64744 0.30061 0.0
O92 O 0.75485 0.84632 0.34419 0.0
C93 C 0.12501 0.49859 0.62161 0.0
C94 C 0.16288 0.66036 0.5007 0.0
C95 C 0.93163 0.86246 0.49705 0.0
Mg96 Mg 0.09857 0.28436 0.53136 0.0
O97 O 0.02214 0.4165 0.53965 0.0
Mg98 Mg 0.02474 0.68565 0.55872 0.0
Mg99 Mg 0.9511 0.43086 0.49464 0.0
O100 O 0.87997 0.46583 0.45301 0.0
Mg101 Mg 0.80731 0.61608 0.47014 0.0
Mg102 Mg 0.8628 0.22196 0.42687 0.0
C103 C 0.96271 0.02216 0.49983 0.0
C104 C 0.01677 0.28177 0.40521 0.0
O105 O 0.08696 0.63157 0.61385 0.0
O106 O 0.13315 0.35806 0.59613 0.0
O107 O 0.11963 0.74875 0.52317 0.0
O108 O 0.16012 0.48509 0.495 0.0
O109 O 0.02472 0.04129 0.51382 0.0
O110 O 0.92923 0.15436 0.48702 0.0
C111 C 0.89849 0.45804 0.58855 0.0
O112 O 0.88191 0.4042 0.5515 0.0
O113 O 0.93446 0.60001 0.59515 0.0
O114 O 0.8234 0.42638 0.37297 0.0
O115 O 0.78667 0.67777 0.40929 0.0
O116 O 0.76163 0.18386 0.45924 0.0
C117 C 0.8038 0.59572 0.37489 0.0
O118 O 0.72825 0.43472 0.49509 0.0
O119 O 0.86768 0.85411 0.48974 0.0
C120 C 0.71971 0.26669 0.48356 0.0
O121 O -0.03425 0.72163 0.50207 0.0
O122 O 0.02696 0.3896 0.43758 0.0
O123 O 0.95934 0.21746 0.39648 0.0
C124 C 0.38831 0.84407 0.6252 0.0
C125 C 0.47068 0.50958 0.73325 0.0
C126 C 0.22795 0.26741 0.74938 0.0
Mg127 Mg 0.38339 0.85836 0.71988 0.0
O128 O 0.31127 0.71007 0.70204 0.0
Mg129 Mg 0.32891 0.46601 0.6759 0.0
Mg130 Mg 0.23953 0.67625 0.74379 0.0
O131 O 0.16812 0.66313 0.78904 0.0
Mg132 Mg 0.09214 0.53047 0.78189 0.0
Mg133 Mg 0.16526 0.93244 0.80774 0.0
C134 C 0.25922 0.10754 0.74639 0.0
C135 C 0.29193 0.70558 0.83764 0.0
O136 O 0.36793 0.67585 0.62278 0.0
O137 O 0.40678 0.92183 0.65958 0.0
O138 O 0.42978 0.42743 0.7086 0.0
O139 O 0.46145 0.67723 0.74498 0.0
O140 O 0.32339 0.09847 0.73928 0.0
O141 O 0.22493 -0.03282 0.75106 0.0
C142 C 0.17482 0.53036 0.65437 0.0
O143 O 0.16443 0.63761 0.68697 0.0
O144 O 0.23229 0.46356 0.64542 0.0
O145 O 0.10348 0.88186 0.86326 0.0
O146 O 0.05861 0.60675 0.84707 0.0
O147 O 0.07037 -0.00684 0.77236 0.0
C148 C 0.06664 0.74842 0.87207 0.0
O149 O 0.03026 0.72827 0.74542 0.0
O150 O 0.16589 0.28668 0.76392 0.0
C151 C 0.02734 0.90374 0.75049 0.0
O152 O 0.26096 0.39937 0.73601 0.0
O153 O 0.30786 0.64793 0.80055 0.0
O154 O 0.25502 0.84686 0.84412 0.0
C155 C 0.88832 0.34405 0.6252 0.0
C156 C -0.02933 0.00956 0.73326 0.0
C157 C 0.72795 0.76739 0.74937 0.0
Mg158 Mg 0.88339 0.35834 0.71988 0.0
O159 O 0.81127 0.21005 0.70203 0.0
Mg160 Mg 0.82892 -0.03401 0.67589 0.0
Mg161 Mg 0.73953 0.17622 0.74378 0.0
O162 O 0.66813 0.16309 0.78904 0.0
Mg163 Mg 0.59214 0.03048 0.78186 0.0
Mg164 Mg 0.66527 0.43242 0.80773 0.0
C165 C 0.75922 0.60752 0.74638 0.0
C166 C 0.79196 0.20562 0.83763 0.0
O167 O 0.86794 0.17584 0.62278 0.0
O168 O 0.9068 0.4218 0.65958 0.0
O169 O 0.92978 0.92741 0.7086 0.0
O170 O 0.96143 0.17721 0.74499 0.0
O171 O 0.82339 0.59845 0.73927 0.0
O172 O 0.72493 0.46715 0.75105 0.0
C173 C 0.67482 0.03035 0.65436 0.0
O174 O 0.66443 0.13756 0.68696 0.0
O175 O 0.73229 -0.03645 0.6454 0.0
O176 O 0.60347 0.38182 0.86325 0.0
O177 O 0.55857 0.1068 0.84703 0.0
O178 O 0.57038 0.49315 0.77235 0.0
C179 C 0.56656 0.24849 0.87203 0.0
O180 O 0.53028 0.22829 0.74539 0.0
O181 O 0.66589 0.78666 0.7639 0.0
C182 C 0.52735 0.40375 0.75047 0.0
O183 O 0.76096 0.89935 0.736 0.0
O184 O 0.80787 0.14792 0.80054 0.0
O185 O 0.75502 0.34685 0.84411 0.0
C186 C 0.62498 -0.00151 0.62161 0.0
C187 C 0.66289 0.16035 0.5007 0.0
C188 C 0.43164 0.36244 0.49705 0.0
Mg189 Mg 0.59858 0.78432 0.53135 0.0
O190 O 0.52215 0.91648 0.53964 0.0
Mg191 Mg 0.52475 0.18562 0.55871 0.0
Mg192 Mg 0.45111 0.93083 0.49463 0.0
O193 O 0.37997 -0.03419 0.45301 0.0
Mg194 Mg 0.30732 0.11606 0.47014 0.0
Mg195 Mg 0.3628 0.72194 0.42687 0.0
C196 C 0.46272 0.52214 0.49983 0.0
C197 C 0.51676 0.78175 0.4052 0.0
O198 O 0.58697 0.13154 0.61384 0.0
O199 O 0.63316 0.85799 0.59614 0.0
O200 O 0.61964 0.24874 0.52317 0.0
O201 O 0.66013 -0.01492 0.495 0.0
O202 O 0.52473 0.54127 0.51381 0.0
O203 O 0.42924 0.65433 0.48701 0.0
C204 C 0.39847 -0.04194 0.58855 0.0
O205 O 0.38192 0.90414 0.5515 0.0
O206 O 0.43448 0.09997 0.59515 0.0
O207 O 0.3234 0.92639 0.37297 0.0
O208 O 0.28667 0.17776 0.4093 0.0
O209 O 0.26163 0.68385 0.45924 0.0
C210 C 0.3038 0.09573 0.37489 0.0
O211 O 0.22825 0.93472 0.4951 0.0
O212 O 0.36768 0.3541 0.48974 0.0
C213 C 0.2197 0.76669 0.48356 0.0
O214 O 0.46575 0.2216 0.50207 0.0
O215 O 0.52696 0.88958 0.43757 0.0
O216 O 0.45934 0.71744 0.39647 0.0
C217 C 0.62508 0.49867 0.12156 0.0
C218 C 0.663 0.66072 0.00062 0.0
C219 C 0.43174 0.86276 -0.00299 0.0
Mg220 Mg 0.59874 0.28455 0.03129 0.0
O221 O 0.52233 0.41675 0.03955 0.0
Mg222 Mg 0.52489 0.68583 0.05867 0.0
Mg223 Mg 0.45124 0.43111 -0.00542 0.0
O224 O 0.38005 0.46612 0.95298 0.0
Mg225 Mg 0.30741 0.6165 0.97008 0.0
Mg226 Mg 0.36291 0.22235 0.92679 0.0
C227 C 0.46285 0.02243 -0.00024 0.0
C228 C 0.51686 0.28232 0.90512 0.0
O229 O 0.58714 0.63179 0.11376 0.0
O230 O 0.63325 0.35814 0.0961 0.0
O231 O 0.61973 0.74912 0.02308 0.0
O232 O 0.66029 0.48542 -0.00504 0.0
O233 O 0.52485 0.04153 0.01378 0.0
O234 O 0.42943 0.15461 0.9869 0.0
C235 C 0.39868 0.45781 0.08855 0.0
O236 O 0.38213 0.40396 0.05149 0.0
O237 O 0.43473 0.59965 0.09516 0.0
O238 O 0.32353 0.42688 0.87291 0.0
O239 O 0.28681 0.67827 0.90922 0.0
O240 O 0.26175 0.18423 0.95918 0.0
C241 C 0.30395 0.59624 0.87482 0.0
O242 O 0.22832 0.43514 -0.00499 0.0
O243 O 0.36779 0.85449 0.98966 0.0
C244 C 0.2198 0.26709 0.98349 0.0
O245 O 0.46581 0.72188 0.00207 0.0
O246 O 0.52705 0.39014 0.93749 0.0
O247 O 0.45944 0.21795 0.89639 0.0
loop_
_geom_bond_atom_site_label_1
_geom_bond_atom_site_label_2
_geom_bond_distance
_geom_bond_site_symmetry_2
_ccdc_geom_bond_type
C0 O12 1.241 1_565 S
C0 O13 1.280 . S
C1 O14 1.277 . S
C1 O15 1.245 . S
C2 O26 1.248 . S
C2 O28 1.288 1_656 S
Mg3 O4 1.926 . S
Mg3 O13 1.984 . S
Mg3 O15 1.988 1_565 S
Mg3 O16 2.061 . S
O4 Mg3 1.926 . S
O4 Mg5 1.986 1_565 S
O4 Mg6 1.916 1_565 S
Mg5 O4 1.986 1_545 S
Mg5 O12 2.042 . S
Mg5 O14 2.041 . S
Mg5 O20 2.038 1_455 S
Mg5 O28 2.238 . S
Mg6 O4 1.916 1_545 S
Mg6 O7 1.917 1_454 S
Mg6 O17 2.103 1_444 S
Mg6 O19 2.078 1_445 S
Mg6 O28 2.110 . S
Mg6 O29 2.079 1_554 S
O7 Mg6 1.917 1_656 S
O7 Mg8 1.926 . S
O7 Mg9 1.986 1_545 S
Mg8 O7 1.926 . S
Mg8 O22 1.984 . S
Mg8 O25 1.988 1_545 S
Mg8 O26 2.061 . S
Mg9 O7 1.986 1_565 S
Mg9 O17 2.238 . S
Mg9 O21 2.042 . S
Mg9 O23 2.041 . S
Mg9 O30 2.038 1_655 S
C10 O16 1.247 . S
C10 O17 1.289 1_454 S
C11 O29 1.245 1_565 S
C11 O30 1.274 . S
O12 C0 1.241 1_545 S
O12 Mg5 2.042 . S
O13 C0 1.280 . S
O13 Mg3 1.984 . S
O14 C1 1.277 . S
O14 Mg5 2.041 . S
O15 C1 1.245 . S
O15 Mg3 1.988 1_545 S
O16 Mg3 2.061 . S
O16 C10 1.247 . S
O17 Mg6 2.103 1_666 S
O17 Mg9 2.238 . S
O17 C10 1.289 1_656 S
C18 O19 1.245 1_545 S
C18 O20 1.274 . S
O19 Mg6 2.078 1_665 S
O19 C18 1.245 1_565 S
O20 Mg5 2.038 1_655 S
O20 C18 1.274 . S
O21 Mg9 2.042 . S
O21 C24 1.241 1_565 S
O22 Mg8 1.984 . S
O22 C24 1.280 . S
O23 Mg9 2.041 . S
O23 C27 1.277 . S
C24 O21 1.241 1_545 S
C24 O22 1.280 . S
O25 Mg8 1.988 1_565 S
O25 C27 1.245 . S
O26 C2 1.248 . S
O26 Mg8 2.061 . S
C27 O23 1.277 . S
C27 O25 1.245 . S
O28 C2 1.288 1_454 S
O28 Mg5 2.238 . S
O28 Mg6 2.110 . S
O29 Mg6 2.079 1_556 S
O29 C11 1.245 1_545 S
O30 Mg9 2.038 1_455 S
O30 C11 1.274 . S
C31 O43 1.241 . S
C31 O44 1.280 . S
C32 O45 1.277 1_545 S
C32 O46 1.245 . S
C33 O57 1.247 . S
C33 O59 1.289 . S
Mg34 O35 1.926 . S
Mg34 O44 1.984 . S
Mg34 O46 1.988 . S
Mg34 O47 2.061 . S
O35 Mg34 1.926 . S
O35 Mg36 1.983 1_545 S
O35 Mg37 1.917 . S
Mg36 O35 1.983 1_565 S
Mg36 O43 2.041 1_565 S
Mg36 O45 2.042 . S
Mg36 O51 2.038 1_565 S
Mg36 O59 2.239 . S
Mg37 O35 1.917 . S
Mg37 O38 1.917 . S
Mg37 O48 2.106 . S
Mg37 O50 2.079 . S
Mg37 O59 2.106 1_545 S
Mg37 O60 2.079 . S
O38 Mg37 1.917 . S
O38 Mg39 1.926 . S
O38 Mg40 1.986 . S
Mg39 O38 1.926 . S
Mg39 O53 1.984 . S
Mg39 O56 1.988 . S
Mg39 O57 2.061 1_545 S
Mg40 O38 1.986 . S
Mg40 O48 2.238 . S
Mg40 O52 2.042 . S
Mg40 O54 2.041 . S
Mg40 O61 2.038 . S
C41 O47 1.247 . S
C41 O48 1.289 . S
C42 O60 1.245 . S
C42 O61 1.274 . S
O43 C31 1.241 . S
O43 Mg36 2.041 1_545 S
O44 C31 1.280 . S
O44 Mg34 1.984 . S
O45 C32 1.277 1_565 S
O45 Mg36 2.042 . S
O46 C32 1.245 . S
O46 Mg34 1.988 . S
O47 Mg34 2.061 . S
O47 C41 1.247 . S
O48 Mg37 2.106 . S
O48 Mg40 2.238 . S
O48 C41 1.289 . S
C49 O50 1.245 . S
C49 O51 1.274 . S
O50 Mg37 2.079 . S
O50 C49 1.245 . S
O51 Mg36 2.038 1_545 S
O51 C49 1.274 . S
O52 Mg40 2.042 . S
O52 C55 1.241 . S
O53 Mg39 1.984 . S
O53 C55 1.280 . S
O54 Mg40 2.041 . S
O54 C58 1.277 . S
C55 O52 1.241 . S
C55 O53 1.280 . S
O56 Mg39 1.988 . S
O56 C58 1.245 . S
O57 C33 1.247 . S
O57 Mg39 2.061 1_565 S
C58 O54 1.277 . S
C58 O56 1.245 . S
O59 C33 1.289 . S
O59 Mg36 2.239 . S
O59 Mg37 2.106 1_565 S
O60 Mg37 2.079 . S
O60 C42 1.245 . S
O61 Mg40 2.038 . S
O61 C42 1.274 . S
C62 O74 1.241 . S
C62 O75 1.280 . S
C63 O76 1.277 . S
C63 O77 1.245 . S
C64 O88 1.247 . S
C64 O90 1.289 . S
Mg65 O66 1.926 . S
Mg65 O75 1.984 . S
Mg65 O77 1.988 . S
Mg65 O78 2.061 1_565 S
O66 Mg65 1.926 . S
O66 Mg67 1.986 . S
O66 Mg68 1.917 . S
Mg67 O66 1.986 . S
Mg67 O74 2.042 . S
Mg67 O76 2.041 . S
Mg67 O82 2.038 . S
Mg67 O90 2.238 . S
Mg68 O66 1.917 . S
Mg68 O69 1.917 . S
Mg68 O79 2.106 1_565 S
Mg68 O81 2.079 . S
Mg68 O90 2.106 . S
Mg68 O91 2.079 . S
O69 Mg68 1.917 . S
O69 Mg70 1.926 . S
O69 Mg71 1.986 1_565 S
Mg70 O69 1.926 . S
Mg70 O84 1.984 . S
Mg70 O87 1.988 . S
Mg70 O88 2.061 . S
Mg71 O69 1.986 1_545 S
Mg71 O79 2.238 . S
Mg71 O83 2.042 1_545 S
Mg71 O85 2.041 . S
Mg71 O92 2.038 1_545 S
C72 O78 1.247 . S
C72 O79 1.289 . S
C73 O91 1.245 . S
C73 O92 1.274 . S
O74 C62 1.241 . S
O74 Mg67 2.042 . S
O75 C62 1.280 . S
O75 Mg65 1.984 . S
O76 C63 1.277 . S
O76 Mg67 2.041 . S
O77 C63 1.245 . S
O77 Mg65 1.988 . S
O78 Mg65 2.061 1_545 S
O78 C72 1.247 . S
O79 Mg68 2.106 1_545 S
O79 Mg71 2.238 . S
O79 C72 1.289 . S
C80 O81 1.245 . S
C80 O82 1.274 . S
O81 Mg68 2.079 . S
O81 C80 1.245 . S
O82 Mg67 2.038 . S
O82 C80 1.274 . S
O83 Mg71 2.042 1_565 S
O83 C86 1.241 . S
O84 Mg70 1.984 . S
O84 C86 1.280 . S
O85 Mg71 2.041 . S
O85 C89 1.277 1_545 S
C86 O83 1.241 . S
C86 O84 1.280 . S
O87 Mg70 1.988 . S
O87 C89 1.245 . S
O88 C64 1.247 . S
O88 Mg70 2.061 . S
C89 O85 1.277 1_565 S
C89 O87 1.245 . S
O90 C64 1.289 . S
O90 Mg67 2.238 . S
O90 Mg68 2.106 . S
O91 Mg68 2.079 . S
O91 C73 1.245 . S
O92 Mg71 2.038 1_565 S
O92 C73 1.274 . S
C93 O105 1.241 . S
C93 O106 1.280 . S
C94 O107 1.277 . S
C94 O108 1.245 . S
C95 O119 1.247 . S
C95 O121 1.289 1_655 S
Mg96 O97 1.926 . S
Mg96 O106 1.984 . S
Mg96 O108 1.988 . S
Mg96 O109 2.061 . S
O97 Mg96 1.926 . S
O97 Mg98 1.986 . S
O97 Mg99 1.917 . S
Mg98 O97 1.986 . S
Mg98 O105 2.042 . S
Mg98 O107 2.041 . S
Mg98 O113 2.038 1_455 S
Mg98 O121 2.238 . S
Mg99 O97 1.917 . S
Mg99 O100 1.917 1_455 S
Mg99 O110 2.106 1_455 S
Mg99 O112 2.079 1_455 S
Mg99 O121 2.106 . S
Mg99 O122 2.079 . S
O100 Mg99 1.917 1_655 S
O100 Mg101 1.926 . S
O100 Mg102 1.986 . S
Mg101 O100 1.926 . S
Mg101 O115 1.984 . S
Mg101 O118 1.988 . S
Mg101 O119 2.061 . S
Mg102 O100 1.986 . S
Mg102 O110 2.238 . S
Mg102 O114 2.042 . S
Mg102 O116 2.041 . S
Mg102 O123 2.038 1_655 S
C103 O109 1.247 . S
C103 O110 1.289 1_455 S
C104 O122 1.245 . S
C104 O123 1.274 . S
O105 C93 1.241 . S
O105 Mg98 2.042 . S
O106 C93 1.280 . S
O106 Mg96 1.984 . S
O107 C94 1.277 . S
O107 Mg98 2.041 . S
O108 C94 1.245 . S
O108 Mg96 1.988 . S
O109 Mg96 2.061 . S
O109 C103 1.247 . S
O110 Mg99 2.106 1_655 S
O110 Mg102 2.238 . S
O110 C103 1.289 1_655 S
C111 O112 1.245 . S
C111 O113 1.274 . S
O112 Mg99 2.079 1_655 S
O112 C111 1.245 . S
O113 Mg98 2.038 1_655 S
O113 C111 1.274 . S
O114 Mg102 2.042 . S
O114 C117 1.241 . S
O115 Mg101 1.984 . S
O115 C117 1.280 . S
O116 Mg102 2.041 . S
O116 C120 1.277 . S
C117 O114 1.241 . S
C117 O115 1.280 . S
O118 Mg101 1.988 . S
O118 C120 1.245 . S
O119 C95 1.247 . S
O119 Mg101 2.061 . S
C120 O116 1.277 . S
C120 O118 1.245 . S
O121 C95 1.289 1_455 S
O121 Mg98 2.238 . S
O121 Mg99 2.106 . S
O122 Mg99 2.079 . S
O122 C104 1.245 . S
O123 Mg102 2.038 1_455 S
O123 C104 1.274 . S
C124 O136 1.241 . S
C124 O137 1.280 . S
C125 O138 1.277 . S
C125 O139 1.245 . S
C126 O150 1.247 . S
C126 O152 1.289 . S
Mg127 O128 1.926 . S
Mg127 O137 1.984 . S
Mg127 O139 1.988 . S
Mg127 O140 2.061 1_565 S
O128 Mg127 1.926 . S
O128 Mg129 1.986 . S
O128 Mg130 1.917 . S
Mg129 O128 1.986 . S
Mg129 O136 2.042 . S
Mg129 O138 2.041 . S
Mg129 O144 2.038 . S
Mg129 O152 2.238 . S
Mg130 O128 1.917 . S
Mg130 O131 1.917 . S
Mg130 O141 2.106 1_565 S
Mg130 O143 2.079 . S
Mg130 O152 2.106 . S
Mg130 O153 2.079 . S
O131 Mg130 1.917 . S
O131 Mg132 1.926 . S
O131 Mg133 1.986 1_565 S
Mg132 O131 1.926 . S
Mg132 O146 1.984 . S
Mg132 O149 1.988 . S
Mg132 O150 2.061 . S
Mg133 O131 1.986 1_545 S
Mg133 O141 2.238 . S
Mg133 O145 2.042 1_545 S
Mg133 O147 2.041 . S
Mg133 O154 2.038 1_545 S
C134 O140 1.247 . S
C134 O141 1.289 . S
C135 O153 1.245 . S
C135 O154 1.274 . S
O136 C124 1.241 . S
O136 Mg129 2.042 . S
O137 C124 1.280 . S
O137 Mg127 1.984 . S
O138 C125 1.277 . S
O138 Mg129 2.041 . S
O139 C125 1.245 . S
O139 Mg127 1.988 . S
O140 Mg127 2.061 1_545 S
O140 C134 1.247 . S
O141 Mg130 2.106 1_545 S
O141 Mg133 2.238 . S
O141 C134 1.289 . S
C142 O143 1.245 . S
C142 O144 1.274 . S
O143 Mg130 2.079 . S
O143 C142 1.245 . S
O144 Mg129 2.038 . S
O144 C142 1.274 . S
O145 Mg133 2.042 1_565 S
O145 C148 1.241 . S
O146 Mg132 1.984 . S
O146 C148 1.280 . S
O147 Mg133 2.041 . S
O147 C151 1.277 1_545 S
C148 O145 1.241 . S
C148 O146 1.280 . S
O149 Mg132 1.988 . S
O149 C151 1.245 . S
O150 C126 1.247 . S
O150 Mg132 2.061 . S
C151 O147 1.277 1_565 S
C151 O149 1.245 . S
O152 C126 1.289 . S
O152 Mg129 2.238 . S
O152 Mg130 2.106 . S
O153 Mg130 2.079 . S
O153 C135 1.245 . S
O154 Mg133 2.038 1_565 S
O154 C135 1.274 . S
C155 O167 1.241 . S
C155 O168 1.280 . S
C156 O169 1.277 1_545 S
C156 O170 1.245 . S
C157 O181 1.247 . S
C157 O183 1.289 . S
Mg158 O159 1.926 . S
Mg158 O168 1.984 . S
Mg158 O170 1.988 . S
Mg158 O171 2.061 . S
O159 Mg158 1.926 . S
O159 Mg160 1.983 1_545 S
O159 Mg161 1.917 . S
Mg160 O159 1.983 1_565 S
Mg160 O167 2.041 1_565 S
Mg160 O169 2.042 . S
Mg160 O175 2.037 1_565 S
Mg160 O183 2.239 . S
Mg161 O159 1.917 . S
Mg161 O162 1.917 . S
Mg161 O172 2.106 . S
Mg161 O174 2.079 . S
Mg161 O183 2.106 1_545 S
Mg161 O184 2.079 . S
O162 Mg161 1.917 . S
O162 Mg163 1.926 . S
O162 Mg164 1.986 . S
Mg163 O162 1.926 . S
Mg163 O177 1.984 . S
Mg163 O180 1.988 . S
Mg163 O181 2.061 1_545 S
Mg164 O162 1.986 . S
Mg164 O172 2.238 . S
Mg164 O176 2.042 . S
Mg164 O178 2.041 . S
Mg164 O185 2.038 . S
C165 O171 1.247 . S
C165 O172 1.289 . S
C166 O184 1.245 . S
C166 O185 1.274 . S
O167 C155 1.241 . S
O167 Mg160 2.041 1_545 S
O168 C155 1.280 . S
O168 Mg158 1.984 . S
O169 C156 1.277 1_565 S
O169 Mg160 2.042 . S
O170 C156 1.245 . S
O170 Mg158 1.988 . S
O171 Mg158 2.061 . S
O171 C165 1.247 . S
O172 Mg161 2.106 . S
O172 Mg164 2.238 . S
O172 C165 1.289 . S
C173 O174 1.245 . S
C173 O175 1.274 . S
O174 Mg161 2.079 . S
O174 C173 1.245 . S
O175 Mg160 2.037 1_545 S
O175 C173 1.274 . S
O176 Mg164 2.042 . S
O176 C179 1.241 . S
O177 Mg163 1.984 . S
O177 C179 1.280 . S
O178 Mg164 2.041 . S
O178 C182 1.277 . S
C179 O176 1.241 . S
C179 O177 1.280 . S
O180 Mg163 1.988 . S
O180 C182 1.245 . S
O181 C157 1.247 . S
O181 Mg163 2.061 1_565 S
C182 O178 1.277 . S
C182 O180 1.245 . S
O183 C157 1.289 . S
O183 Mg160 2.239 . S
O183 Mg161 2.106 1_565 S
O184 Mg161 2.079 . S
O184 C166 1.245 . S
O185 Mg164 2.038 . S
O185 C166 1.274 . S
C186 O198 1.241 1_565 S
C186 O199 1.280 . S
C187 O200 1.277 . S
C187 O201 1.245 . S
C188 O212 1.247 . S
C188 O214 1.289 . S
Mg189 O190 1.926 . S
Mg189 O199 1.984 . S
Mg189 O201 1.988 1_565 S
Mg189 O202 2.061 . S
O190 Mg189 1.926 . S
O190 Mg191 1.986 1_565 S
O190 Mg192 1.917 1_565 S
Mg191 O190 1.986 1_545 S
Mg191 O198 2.042 . S
Mg191 O200 2.041 . S
Mg191 O206 2.038 . S
Mg191 O214 2.238 . S
Mg192 O190 1.917 1_545 S
Mg192 O193 1.917 . S
Mg192 O203 2.105 1_545 S
Mg192 O205 2.078 1_545 S
Mg192 O214 2.108 . S
Mg192 O215 2.079 . S
O193 Mg192 1.917 . S
O193 Mg194 1.926 . S
O193 Mg195 1.986 1_545 S
Mg194 O193 1.926 . S
Mg194 O208 1.984 . S
Mg194 O211 1.988 1_545 S
Mg194 O212 2.061 . S
Mg195 O193 1.986 1_565 S
Mg195 O203 2.238 . S
Mg195 O207 2.042 . S
Mg195 O209 2.041 . S
Mg195 O216 2.038 . S
C196 O202 1.247 . S
C196 O203 1.289 . S
C197 O215 1.245 1_565 S
C197 O216 1.274 . S
O198 C186 1.241 1_545 S
O198 Mg191 2.042 . S
O199 C186 1.280 . S
O199 Mg189 1.984 . S
O200 C187 1.277 . S
O200 Mg191 2.041 . S
O201 C187 1.245 . S
O201 Mg189 1.988 1_545 S
O202 Mg189 2.061 . S
O202 C196 1.247 . S
O203 Mg192 2.105 1_565 S
O203 Mg195 2.238 . S
O203 C196 1.289 . S
C204 O205 1.245 1_545 S
C204 O206 1.274 . S
O205 Mg192 2.078 1_565 S
O205 C204 1.245 1_565 S
O206 Mg191 2.038 . S
O206 C204 1.274 . S
O207 Mg195 2.042 . S
O207 C210 1.241 1_565 S
O208 Mg194 1.984 . S
O208 C210 1.280 . S
O209 Mg195 2.041 . S
O209 C213 1.277 . S
C210 O207 1.241 1_545 S
C210 O208 1.280 . S
O211 Mg194 1.988 1_565 S
O211 C213 1.245 . S
O212 C188 1.247 . S
O212 Mg194 2.061 . S
C213 O209 1.277 . S
C213 O211 1.245 . S
O214 C188 1.289 . S
O214 Mg191 2.238 . S
O214 Mg192 2.108 . S
O215 Mg192 2.079 . S
O215 C197 1.245 1_545 S
O216 Mg195 2.038 . S
O216 C197 1.274 . S
C217 O229 1.241 . S
C217 O230 1.280 . S
C218 O231 1.277 . S
C218 O232 1.245 . S
C219 O243 1.248 . S
C219 O245 1.288 1_556 S
Mg220 O221 1.926 . S
Mg220 O230 1.984 . S
Mg220 O232 1.988 . S
Mg220 O233 2.061 . S
O221 Mg220 1.926 . S
O221 Mg222 1.986 . S
O221 Mg223 1.917 . S
Mg222 O221 1.986 . S
Mg222 O229 2.042 . S
Mg222 O231 2.041 . S
Mg222 O237 2.038 . S
Mg222 O245 2.238 . S
Mg223 O221 1.917 . S
Mg223 O224 1.917 1_554 S
Mg223 O234 2.106 1_554 S
Mg223 O236 2.079 . S
Mg223 O245 2.106 . S
Mg223 O246 2.079 1_554 S
O224 Mg223 1.917 1_556 S
O224 Mg225 1.926 . S
O224 Mg226 1.986 . S
Mg225 O224 1.926 . S
Mg225 O239 1.984 . S
Mg225 O242 1.988 . S
Mg225 O243 2.061 . S
Mg226 O224 1.986 . S
Mg226 O234 2.238 . S
Mg226 O238 2.042 . S
Mg226 O240 2.041 . S
Mg226 O247 2.038 . S
C227 O233 1.247 . S
C227 O234 1.289 1_554 S
C228 O246 1.245 . S
C228 O247 1.274 . S
O229 C217 1.241 . S
O229 Mg222 2.042 . S
O230 C217 1.280 . S
O230 Mg220 1.984 . S
O231 C218 1.277 . S
O231 Mg222 2.041 . S
O232 C218 1.245 . S
O232 Mg220 1.988 . S
O233 Mg220 2.061 . S
O233 C227 1.247 . S
O234 Mg223 2.106 1_556 S
O234 Mg226 2.238 . S
O234 C227 1.289 1_556 S
C235 O236 1.245 . S
C235 O237 1.274 . S
O236 Mg223 2.079 . S
O236 C235 1.245 . S
O237 Mg222 2.038 . S
O237 C235 1.274 . S
O238 Mg226 2.042 . S
O238 C241 1.241 . S
O239 Mg225 1.984 . S
O239 C241 1.280 . S
O240 Mg226 2.041 . S
O240 C244 1.277 . S
C241 O238 1.241 . S
C241 O239 1.280 . S
O242 Mg225 1.988 . S
O242 C244 1.245 . S
O243 C219 1.248 . S
O243 Mg225 2.061 . S
C244 O240 1.277 . S
C244 O242 1.245 . S
O245 C219 1.288 1_554 S
O245 Mg222 2.238 . S
O245 Mg223 2.106 . S
O246 Mg223 2.079 1_556 S
O246 C228 1.245 . S
O247 Mg226 2.038 . S
O247 C228 1.274 . S
C0 C49 1.917 1_565 S
C18 C62 2.327 1_545 S
C104 C55 1.917 . S
C73 C117 2.327 . S
C93 C142 1.918 . S
C155 C111 2.327 . S
C148 C11 1.918 . S
C166 C24 2.327 . S
C173 C186 1.918 1_545 S
C204 C124 2.326 1_545 S
C228 C179 1.918 . S
C241 C135 2.327 . S
C217 C80 1.917 . S
C31 C235 2.327 . S
C197 C86 1.917 . S
C210 C42 2.328 . S
C10 C2 1.214 1_454 S
C41 C33 1.214 . S
C72 C64 1.214 . S
C95 C103 1.214 1_665 S
C134 C126 1.214 . S
C165 C157 1.214 . S
C196 C188 1.214 . S
C219 C227 1.214 1_566 S
C244 C1 1.675 1_556 S
C27 C218 1.676 1_556 S
C58 C63 1.676 1_455 S
C213 C94 1.675 . S
C120 C187 1.676 . S
C156 C151 1.676 1_645 S
C182 C125 1.676 . S
C89 C32 1.676 1_565 S
