# Generated by pormake.
# Topology umh, (4)-cn, num edge types: 1
# Building blocks:
#     Node 0, Type 0, BuildingBlock: ESEHIV_clean_sbu_0, # of connection points: 4
#     Node 1, Type 0, BuildingBlock: ESEHIV_clean_sbu_0, # of connection points: 4
#     Node 2, Type 0, BuildingBlock: ESEHIV_clean_sbu_0, # of connection points: 4
#     Node 3, Type 0, BuildingBlock: ESEHIV_clean_sbu_0, # of connection points: 4
#     Node 4, Type 0, BuildingBlock: ESEHIV_clean_sbu_0, # of connection points: 4
#     Node 5, Type 0, BuildingBlock: ESEHIV_clean_sbu_0, # of connection points: 4
#     Node 6, Type 0, BuildingBlock: ESEHIV_clean_sbu_0, # of connection points: 4
#     Node 7, Type 0, BuildingBlock: ESEHIV_clean_sbu_0, # of connection points: 4
#     Node 8, Type 0, BuildingBlock: ESEHIV_clean_sbu_0, # of connection points: 4
#     Node 9, Type 0, BuildingBlock: ESEHIV_clean_sbu_0, # of connection points: 4
#     Node 10, Type 0, BuildingBlock: ESEHIV_clean_sbu_0, # of connection points: 4
#     Node 11, Type 0, BuildingBlock: ESEHIV_clean_sbu_0, # of connection points: 4
#     Node 12, Type 0, BuildingBlock: ESEHIV_clean_sbu_0, # of connection points: 4
#     Node 13, Type 0, BuildingBlock: ESEHIV_clean_sbu_0, # of connection points: 4
#     Node 14, Type 0, BuildingBlock: ESEHIV_clean_sbu_0, # of connection points: 4
#     Node 15, Type 0, BuildingBlock: ESEHIV_clean_sbu_0, # of connection points: 4
#     Edge 16, Type (0, 0), BuildingBlock: AJUNOK_clean_linker_0, # of connection points: 2
#     Edge 17, Type (0, 0), BuildingBlock: AJUNOK_clean_linker_0, # of connection points: 2
#     Edge 18, Type (0, 0), BuildingBlock: AJUNOK_clean_linker_0, # of connection points: 2
#     Edge 19, Type (0, 0), BuildingBlock: AJUNOK_clean_linker_0, # of connection points: 2
#     Edge 20, Type (0, 0), BuildingBlock: AJUNOK_clean_linker_0, # of connection points: 2
#     Edge 21, Type (0, 0), BuildingBlock: AJUNOK_clean_linker_0, # of connection points: 2
#     Edge 22, Type (0, 0), BuildingBlock: AJUNOK_clean_linker_0, # of connection points: 2
#     Edge 23, Type (0, 0), BuildingBlock: AJUNOK_clean_linker_0, # of connection points: 2
#     Edge 24, Type (0, 0), BuildingBlock: AJUNOK_clean_linker_0, # of connection points: 2
#     Edge 25, Type (0, 0), BuildingBlock: AJUNOK_clean_linker_0, # of connection points: 2
#     Edge 26, Type (0, 0), BuildingBlock: AJUNOK_clean_linker_0, # of connection points: 2
#     Edge 27, Type (0, 0), BuildingBlock: AJUNOK_clean_linker_0, # of connection points: 2
#     Edge 28, Type (0, 0), BuildingBlock: AJUNOK_clean_linker_0, # of connection points: 2
#     Edge 29, Type (0, 0), BuildingBlock: AJUNOK_clean_linker_0, # of connection points: 2
#     Edge 30, Type (0, 0), BuildingBlock: AJUNOK_clean_linker_0, # of connection points: 2
#     Edge 31, Type (0, 0), BuildingBlock: AJUNOK_clean_linker_0, # of connection points: 2
#     Edge 32, Type (0, 0), BuildingBlock: AJUNOK_clean_linker_0, # of connection points: 2
#     Edge 33, Type (0, 0), BuildingBlock: AJUNOK_clean_linker_0, # of connection points: 2
#     Edge 34, Type (0, 0), BuildingBlock: AJUNOK_clean_linker_0, # of connection points: 2
#     Edge 35, Type (0, 0), BuildingBlock: AJUNOK_clean_linker_0, # of connection points: 2
#     Edge 36, Type (0, 0), BuildingBlock: AJUNOK_clean_linker_0, # of connection points: 2
#     Edge 37, Type (0, 0), BuildingBlock: AJUNOK_clean_linker_0, # of connection points: 2
#     Edge 38, Type (0, 0), BuildingBlock: AJUNOK_clean_linker_0, # of connection points: 2
#     Edge 39, Type (0, 0), BuildingBlock: AJUNOK_clean_linker_0, # of connection points: 2
#     Edge 40, Type (0, 0), BuildingBlock: AJUNOK_clean_linker_0, # of connection points: 2
#     Edge 41, Type (0, 0), BuildingBlock: AJUNOK_clean_linker_0, # of connection points: 2
#     Edge 42, Type (0, 0), BuildingBlock: AJUNOK_clean_linker_0, # of connection points: 2
#     Edge 43, Type (0, 0), BuildingBlock: AJUNOK_clean_linker_0, # of connection points: 2
#     Edge 44, Type (0, 0), BuildingBlock: AJUNOK_clean_linker_0, # of connection points: 2
#     Edge 45, Type (0, 0), BuildingBlock: AJUNOK_clean_linker_0, # of connection points: 2
#     Edge 46, Type (0, 0), BuildingBlock: AJUNOK_clean_linker_0, # of connection points: 2
#     Edge 47, Type (0, 0), BuildingBlock: AJUNOK_clean_linker_0, # of connection points: 2
# Relax obj value: 0.061
# Max RMSD: 0.086
# Mean RMSD: 0.086
data_MOF--net-umh--node1-ESEHIV_clean_sbu_0--edge1-AJUNOK_clean_linker_0
_symmetry_space_group_name_H-M    P1
_symmetry_Int_Tables_number       1
_symmetry_cell_setting            triclinic
loop_
_symmetry_equiv_pos_as_xyz
'x, y, z'
_cell_length_a     37.021819
_cell_length_b     36.7119
_cell_length_c     36.129682
_cell_angle_alpha  89.401566
_cell_angle_beta   89.788646
_cell_angle_gamma 89.837401
loop_
_atom_site_label
_atom_site_type_symbol
_atom_site_fract_x
_atom_site_fract_y
_atom_site_fract_z
_atom_type_partial_charge
Cu0 Cu 0.37998 0.139 0.20582 0.0
N1 N 0.3673 0.1874 0.21573 0.0
N2 N 0.33207 0.23597 0.22619 0.0
C3 C 0.33342 0.19953 0.22174 0.0
C4 C 0.36662 0.24726 0.22264 0.0
C5 C 0.38827 0.21726 0.21631 0.0
O6 O 0.34888 0.1095 0.238 0.0
C7 C 0.39814 0.15113 0.13225 0.0
O8 O 0.4213 0.17217 0.14918 0.0
H9 H 0.31004 0.18202 0.22246 0.0
H10 H 0.4171 0.21738 0.21139 0.0
N11 N 0.42758 0.12896 0.22011 0.0
N12 N 0.48057 0.09995 0.22638 0.0
C13 C 0.44846 0.10105 0.20861 0.0
C14 C 0.44707 0.1461 0.24595 0.0
C15 C 0.47979 0.12845 0.2497 0.0
C16 C 0.31505 0.10473 0.23423 0.0
O17 O 0.29966 0.11481 0.20305 0.0
H18 H 0.44012 0.082 0.18768 0.0
H19 H 0.43778 0.16927 0.26163 0.0
O20 O 0.37634 0.13226 0.15214 0.0
H21 H 0.37555 0.27529 0.22286 0.0
H22 H 0.50094 0.13537 0.26899 0.0
Cu23 Cu 0.40585 0.38721 0.70428 0.0
N24 N 0.35725 0.37699 0.71335 0.0
N25 N 0.30753 0.34375 0.72228 0.0
C26 C 0.34372 0.34335 0.71847 0.0
C27 C 0.29778 0.37913 0.71972 0.0
C28 C 0.32858 0.39962 0.71415 0.0
O29 O 0.43278 0.35494 0.73758 0.0
C30 C 0.39696 0.40351 0.62931 0.0
O31 O 0.37576 0.42823 0.64404 0.0
H32 H 0.35987 0.3188 0.71788 0.0
H33 H 0.32984 0.42881 0.71008 0.0
N34 N 0.41693 0.43473 0.71803 0.0
N35 N 0.44829 0.48605 0.72537 0.0
C36 C 0.44644 0.45378 0.70784 0.0
C37 C 0.39954 0.45558 0.74282 0.0
C38 C 0.41865 0.4874 0.74716 0.0
C39 C 0.43676 0.32067 0.73441 0.0
O40 O 0.4275 0.30523 0.70321 0.0
H41 H 0.46629 0.44391 0.68827 0.0
H42 H 0.37535 0.4477 0.75767 0.0
O43 O 0.41425 0.38201 0.651 0.0
H44 H 0.27039 0.38941 0.72128 0.0
H45 H 0.41205 0.50921 0.76597 0.0
Cu46 Cu 0.17314 0.42789 0.19487 0.0
N47 N 0.17754 0.3796 0.21163 0.0
N48 N 0.20701 0.32844 0.22731 0.0
C49 C 0.20978 0.36408 0.21869 0.0
C50 C 0.17143 0.32087 0.22518 0.0
C51 C 0.15322 0.35263 0.21573 0.0
O52 O 0.20786 0.45451 0.22479 0.0
C53 C 0.15519 0.40983 0.12342 0.0
O54 O 0.12952 0.39373 0.14266 0.0
H55 H 0.23517 0.37807 0.21536 0.0
H56 H 0.12456 0.35539 0.21075 0.0
N57 N 0.12814 0.44904 0.2044 0.0
N58 N 0.08463 0.49147 0.20338 0.0
C59 C 0.11805 0.48217 0.19173 0.0
C60 C 0.10028 0.43696 0.22511 0.0
C61 C 0.07334 0.4631 0.22449 0.0
C62 C 0.24211 0.45311 0.22198 0.0
O63 O 0.25651 0.43968 0.19174 0.0
H64 H 0.13502 0.49919 0.17431 0.0
H65 H 0.09984 0.41137 0.24018 0.0
O66 O 0.17919 0.42766 0.14097 0.0
H67 H 0.15961 0.29417 0.22912 0.0
H68 H 0.04793 0.46178 0.23935 0.0
Cu69 Cu 0.13284 0.15758 0.70603 0.0
N70 N 0.18013 0.1722 0.71472 0.0
N71 N 0.22508 0.21194 0.72142 0.0
C72 C 0.18916 0.20741 0.7181 0.0
C73 C 0.23927 0.17804 0.72074 0.0
C74 C 0.2114 0.15349 0.71633 0.0
O75 O 0.10419 0.19264 0.73443 0.0
C76 C 0.14558 0.13612 0.63362 0.0
O77 O 0.16692 0.11374 0.6519 0.0
H78 H 0.16953 0.2293 0.71798 0.0
H79 H 0.21393 0.12431 0.71346 0.0
N80 N 0.12386 0.11023 0.72328 0.0
N81 N 0.09573 0.05709 0.73259 0.0
C82 C 0.09446 0.0901 0.71577 0.0
C83 C 0.14432 0.08938 0.74581 0.0
C84 C 0.127 0.05663 0.75168 0.0
C85 C 0.10591 0.1896 0.76965 0.0
O86 O 0.12224 0.16093 0.78386 0.0
H87 H 0.07258 0.0995 0.69829 0.0
H88 H 0.16963 0.09771 0.75785 0.0
O89 O 0.12636 0.1585 0.65217 0.0
H90 H 0.2678 0.1716 0.72196 0.0
H91 H 0.13619 0.03471 0.76959 0.0
Cu92 Cu 0.38618 0.40678 0.3933 0.0
N93 N 0.373 0.35849 0.38427 0.0
N94 N 0.3364 0.31079 0.37618 0.0
C95 C 0.33871 0.34722 0.38 0.0
C96 C 0.37078 0.29854 0.37825 0.0
C97 C 0.3933 0.32805 0.38321 0.0
O98 O 0.35744 0.43624 0.35895 0.0
C99 C 0.40209 0.39543 0.46706 0.0
O100 O 0.42487 0.37336 0.45059 0.0
H101 H 0.31572 0.36536 0.38023 0.0
H102 H 0.42224 0.32716 0.38705 0.0
N103 N 0.43412 0.41633 0.3802 0.0
N104 N 0.48463 0.44879 0.37176 0.0
C105 C 0.45232 0.4467 0.38917 0.0
C106 C 0.45564 0.39841 0.35643 0.0
C107 C 0.48696 0.41821 0.35143 0.0
C108 C 0.32359 0.44225 0.35942 0.0
O109 O 0.30495 0.43389 0.38933 0.0
H110 H 0.44159 0.46715 0.40758 0.0
H111 H 0.44844 0.37359 0.34244 0.0
O112 O 0.38115 0.41479 0.44671 0.0
H113 H 0.37902 0.27025 0.37801 0.0
H114 H 0.50898 0.4115 0.3329 0.0
Cu115 Cu 0.12426 0.37755 0.8922 0.0
N116 N 0.17133 0.37048 0.87494 0.0
N117 N 0.22026 0.33847 0.85893 0.0
C118 C 0.18537 0.33719 0.86938 0.0
C119 C 0.22888 0.37417 0.85833 0.0
C120 C 0.19849 0.39395 0.86802 0.0
O121 O 0.09675 0.33964 0.86742 0.0
C122 C 0.14554 0.4002 0.96182 0.0
O123 O 0.1621 0.42412 0.94052 0.0
H124 H 0.17089 0.31228 0.87511 0.0
H125 H 0.1968 0.42316 0.87113 0.0
N126 N 0.10536 0.42247 0.87719 0.0
N127 N 0.06712 0.46954 0.87221 0.0
C128 C 0.07399 0.43714 0.8889 0.0
C129 C 0.1187 0.44612 0.85201 0.0
C130 C 0.09524 0.47517 0.84894 0.0
C131 C 0.09693 0.30614 0.87677 0.0
O132 O 0.10955 0.29687 0.9095 0.0
H133 H 0.05612 0.42362 0.90837 0.0
H134 H 0.1434 0.44228 0.8365 0.0
O135 O 0.12584 0.37619 0.94643 0.0
H136 H 0.25545 0.38506 0.85242 0.0
H137 H 0.0986 0.49863 0.83087 0.0
Cu138 Cu 0.16027 0.12801 0.39712 0.0
N139 N 0.17176 0.17682 0.3875 0.0
N140 N 0.20648 0.22562 0.377 0.0
C141 C 0.20561 0.18929 0.38255 0.0
C142 C 0.17174 0.23668 0.37902 0.0
C143 C 0.15031 0.20644 0.3853 0.0
O144 O 0.19202 0.10043 0.36432 0.0
C145 C 0.14306 0.13814 0.47109 0.0
O146 O 0.1196 0.15994 0.45492 0.0
H147 H 0.22936 0.17229 0.3845 0.0
H148 H 0.12129 0.20619 0.38874 0.0
N149 N 0.11296 0.11728 0.38297 0.0
N150 N 0.06115 0.08676 0.37626 0.0
C151 C 0.09314 0.08837 0.3941 0.0
C152 C 0.09308 0.13431 0.35693 0.0
C153 C 0.06115 0.11561 0.35274 0.0
C154 C 0.22607 0.09675 0.36741 0.0
O155 O 0.24145 0.1053 0.39886 0.0
H156 H 0.10234 0.06852 0.41436 0.0
H157 H 0.1018 0.15784 0.34105 0.0
O158 O 0.16457 0.11986 0.45061 0.0
H159 H 0.16257 0.26463 0.37655 0.0
H160 H 0.04038 0.12181 0.33263 0.0
Cu161 Cu 0.40357 0.16353 0.89503 0.0
N162 N 0.35573 0.1757 0.88426 0.0
N163 N 0.30827 0.2107 0.86958 0.0
C164 C 0.34447 0.20884 0.87293 0.0
C165 C 0.29618 0.1772 0.87912 0.0
C166 C 0.32557 0.15561 0.88801 0.0
O167 O 0.43272 0.19505 0.86293 0.0
C168 C 0.39362 0.14601 0.96989 0.0
O169 O 0.37301 0.12122 0.9548 0.0
H170 H 0.3624 0.23152 0.86796 0.0
H171 H 0.32488 0.12763 0.89763 0.0
N172 N 0.41342 0.11573 0.88125 0.0
N173 N 0.44373 0.0636 0.87347 0.0
C174 C 0.44251 0.09585 0.89115 0.0
C175 C 0.39542 0.09538 0.85674 0.0
C176 C 0.41394 0.06313 0.85203 0.0
C177 C 0.4369 0.22918 0.86694 0.0
O178 O 0.42655 0.24408 0.89815 0.0
H179 H 0.46243 0.10517 0.9107 0.0
H180 H 0.3712 0.10391 0.84239 0.0
O181 O 0.41073 0.16802 0.94854 0.0
H182 H 0.26812 0.16931 0.88144 0.0
H183 H 0.4068 0.04162 0.83317 0.0
Cu184 Cu 0.65179 0.91001 0.8916 0.0
N185 N 0.66167 0.8605 0.88638 0.0
N186 N 0.69419 0.80928 0.88822 0.0
C187 C 0.69409 0.84553 0.89351 0.0
C188 C 0.66057 0.80101 0.87688 0.0
C189 C 0.64038 0.83272 0.87608 0.0
O190 O 0.68553 0.93498 0.8586 0.0
C191 C 0.63659 0.90157 0.96613 0.0
O192 O 0.61439 0.87782 0.95167 0.0
H193 H 0.71729 0.86104 0.90219 0.0
H194 H 0.61213 0.83511 0.86904 0.0
N195 N 0.60514 0.92183 0.87611 0.0
N196 N 0.55364 0.95305 0.86958 0.0
C197 C 0.58469 0.94946 0.88879 0.0
C198 C 0.58648 0.90758 0.84785 0.0
C199 C 0.55451 0.92656 0.84401 0.0
C200 C 0.71898 0.9395 0.86499 0.0
O201 O 0.73151 0.93155 0.89808 0.0
H202 H 0.59278 0.96694 0.91121 0.0
H203 H 0.59606 0.88591 0.8303 0.0
O204 O 0.65623 0.92063 0.94423 0.0
H205 H 0.65112 0.77393 0.87044 0.0
H206 H 0.53423 0.92233 0.82299 0.0
Cu207 Cu 0.62842 0.66502 0.38856 0.0
N208 N 0.67757 0.67478 0.38342 0.0
N209 N 0.7274 0.70866 0.3806 0.0
C210 C 0.69113 0.70866 0.38128 0.0
C211 C 0.73737 0.67329 0.38221 0.0
C212 C 0.70641 0.65235 0.38392 0.0
O213 O 0.60558 0.69962 0.35431 0.0
C214 C 0.63423 0.64674 0.46266 0.0
O215 O 0.6549 0.62195 0.44728 0.0
H216 H 0.67487 0.73309 0.38187 0.0
H217 H 0.7051 0.623 0.38635 0.0
N218 N 0.61762 0.61777 0.37319 0.0
N219 N 0.58871 0.56482 0.36647 0.0
C220 C 0.58909 0.59734 0.38371 0.0
C221 C 0.63589 0.59755 0.34853 0.0
C222 C 0.61826 0.56481 0.3445 0.0
C223 C 0.60296 0.73377 0.35966 0.0
O224 O 0.608 0.74616 0.39323 0.0
H225 H 0.56922 0.60612 0.40379 0.0
H226 H 0.66007 0.60622 0.33409 0.0
O227 O 0.61767 0.6693 0.44148 0.0
H228 H 0.76492 0.66337 0.3826 0.0
H229 H 0.62607 0.54301 0.32614 0.0
Cu230 Cu 0.85028 0.6092 0.91953 0.0
N231 N 0.84333 0.65911 0.91425 0.0
N232 N 0.81376 0.71178 0.90821 0.0
C233 C 0.81228 0.67538 0.90408 0.0
C234 C 0.84714 0.71873 0.92122 0.0
C235 C 0.86525 0.68607 0.92519 0.0
O236 O 0.81339 0.58756 0.88801 0.0
C237 C 0.86852 0.59462 0.99588 0.0
O238 O 0.90053 0.58524 0.98343 0.0
H239 H 0.78836 0.66065 0.89588 0.0
H240 H 0.89197 0.68208 0.93657 0.0
N241 N 0.89692 0.59773 0.9025 0.0
N242 N 0.9481 0.56883 0.88755 0.0
C243 C 0.91579 0.56626 0.90498 0.0
C244 C 0.91796 0.62056 0.88259 0.0
C245 C 0.94939 0.60286 0.87331 0.0
C246 C 0.81673 0.59159 0.85301 0.0
O247 O 0.84656 0.60628 0.84005 0.0
H248 H 0.90582 0.54188 0.91864 0.0
H249 H 0.91064 0.64806 0.87467 0.0
O250 O 0.84325 0.60121 0.97284 0.0
H251 H 0.85744 0.74535 0.92813 0.0
H252 H 0.97161 0.61412 0.85738 0.0
Cu253 Cu 0.91123 0.8758 0.40915 0.0
N254 N 0.86227 0.86965 0.39804 0.0
N255 N 0.81183 0.83845 0.38747 0.0
C256 C 0.84797 0.83901 0.38439 0.0
C257 C 0.8025 0.8706 0.40243 0.0
C258 C 0.83382 0.89004 0.40872 0.0
O259 O 0.93695 0.83515 0.38619 0.0
C260 C 0.89322 0.86888 0.48596 0.0
O261 O 0.86502 0.85098 0.47399 0.0
H262 H 0.8636 0.81616 0.37483 0.0
H263 H 0.8359 0.91559 0.42318 0.0
N264 N 0.9268 0.91951 0.38747 0.0
N265 N 0.95631 0.97162 0.3765 0.0
C266 C 0.95442 0.94109 0.39768 0.0
C267 C 0.91106 0.93676 0.35871 0.0
C268 C 0.92921 0.96884 0.35183 0.0
C269 C 0.93047 0.80173 0.39359 0.0
O270 O 0.91048 0.79349 0.42259 0.0
H271 H 0.97227 0.93492 0.42058 0.0
H272 H 0.88782 0.92675 0.34392 0.0
O273 O 0.91736 0.87924 0.46289 0.0
H274 H 0.77551 0.878 0.41127 0.0
H275 H 0.92318 0.98841 0.33009 0.0
Cu276 Cu 0.65684 0.63702 0.69738 0.0
N277 N 0.67021 0.68431 0.7095 0.0
N278 N 0.7075 0.72979 0.72363 0.0
C279 C 0.70441 0.69389 0.71696 0.0
C280 C 0.67376 0.74346 0.7201 0.0
C281 C 0.65075 0.71525 0.71138 0.0
O282 O 0.6929 0.60658 0.72241 0.0
C283 C 0.63412 0.65225 0.62492 0.0
O284 O 0.61148 0.67307 0.64317 0.0
H285 H 0.72678 0.67482 0.71701 0.0
H286 H 0.62212 0.71735 0.70592 0.0
N287 N 0.61073 0.6256 0.71508 0.0
N288 N 0.55949 0.59483 0.72466 0.0
C289 C 0.59156 0.5957 0.70671 0.0
C290 C 0.59008 0.64442 0.73894 0.0
C291 C 0.55839 0.62557 0.7448 0.0
C292 C 0.69151 0.60464 0.7577 0.0
O293 O 0.66336 0.6187 0.77462 0.0
H294 H 0.60089 0.57526 0.68752 0.0
H295 H 0.59775 0.66977 0.75165 0.0
O296 O 0.65684 0.63316 0.64336 0.0
H297 H 0.66646 0.77194 0.72204 0.0
H298 H 0.53654 0.63347 0.76305 0.0
Cu299 Cu 0.92433 0.69121 0.19383 0.0
N300 N 0.91553 0.73894 0.17761 0.0
N301 N 0.88194 0.78949 0.17272 0.0
C302 C 0.88189 0.75294 0.17651 0.0
C303 C 0.91713 0.799 0.17151 0.0
C304 C 0.93786 0.76769 0.17445 0.0
O305 O 0.92054 0.69554 0.24772 0.0
C306 C 0.89085 0.66596 0.13214 0.0
O307 O 0.91049 0.69283 0.11889 0.0
H308 H 0.85791 0.73685 0.18175 0.0
H309 H 0.96692 0.76633 0.17695 0.0
N310 N 0.96977 0.67188 0.18252 0.0
N311 N 1.01188 0.62823 0.17886 0.0
C312 C 0.97931 0.6378 0.19253 0.0
C313 C 0.99735 0.68465 0.16182 0.0
C314 C 0.02361 0.65779 0.15982 0.0
C315 C 0.94671 0.71317 0.26199 0.0
O316 O 0.97449 0.72114 0.24072 0.0
H317 H 0.9624 0.62034 0.20952 0.0
H318 H 0.99799 0.71113 0.14847 0.0
O319 O 0.89106 0.65959 0.16699 0.0
H320 H 0.92711 0.82668 0.17052 0.0
H321 H 0.04887 0.65948 0.14472 0.0
Cu322 Cu 0.88565 0.90803 0.7171 0.0
N323 N 0.87415 0.85963 0.72774 0.0
N324 N 0.839 0.8108 0.73587 0.0
C325 C 0.84034 0.84741 0.73339 0.0
C326 C 0.87343 0.79942 0.7313 0.0
C327 C 0.89511 0.82967 0.72633 0.0
O328 O 0.85257 0.93673 0.74711 0.0
C329 C 0.90626 0.90055 0.64321 0.0
O330 O 0.93552 0.88762 0.65912 0.0
H331 H 0.81681 0.86483 0.73304 0.0
H332 H 0.92374 0.82971 0.72031 0.0
N333 N 0.93273 0.91874 0.73192 0.0
N334 N 0.98554 0.94739 0.7379 0.0
C335 C 0.95272 0.9478 0.72168 0.0
C336 C 0.95337 0.89963 0.75581 0.0
C337 C 0.98597 0.9172 0.75952 0.0
C338 C 0.81906 0.94087 0.74057 0.0
O339 O 0.80649 0.93108 0.70821 0.0
H340 H 0.94342 0.96876 0.70266 0.0
H341 H 0.94506 0.87498 0.77004 0.0
O342 O 0.88105 0.91338 0.66351 0.0
H343 H 0.88209 0.77127 0.73017 0.0
H344 H 1.00785 0.90898 0.77759 0.0
Cu345 Cu 0.65003 0.90171 0.20198 0.0
N346 N 0.70069 0.90058 0.20355 0.0
N347 N 0.75758 0.88072 0.1963 0.0
C348 C 0.72222 0.87143 0.19784 0.0
C349 C 0.75817 0.91705 0.2016 0.0
C350 C 0.72317 0.92921 0.20577 0.0
O351 O 0.63082 0.86582 0.23733 0.0
C352 C 0.64959 0.91718 0.12676 0.0
O353 O 0.66883 0.94455 0.13896 0.0
H354 H 0.712 0.8441 0.19454 0.0
H355 H 0.71469 0.95723 0.20867 0.0
N356 N 0.63271 0.94722 0.21723 0.0
N357 N 0.5972 0.99611 0.2248 0.0
C358 C 0.60285 0.96513 0.20559 0.0
C359 C 0.64614 0.9674 0.2448 0.0
C360 C 0.62455 0.99764 0.2493 0.0
C361 C 0.62855 0.83149 0.23328 0.0
O362 O 0.63854 0.81723 0.20163 0.0
H363 H 0.5856 0.95548 0.18368 0.0
H364 H 0.66952 0.96011 0.26116 0.0
O365 O 0.63686 0.8944 0.15033 0.0
H366 H 0.78213 0.93388 0.20111 0.0
H367 H 0.628 1.01856 0.26988 0.0
C368 C 0.37388 0.12497 1.03331 0.0
C369 C 0.39575 0.14802 1.01116 0.0
C370 C 0.37474 0.12611 0.07219 0.0
C371 C 0.39762 0.15024 0.09084 0.0
H372 H 0.35566 0.10582 1.02057 0.0
H373 H 0.3573 0.10783 0.0877 0.0
S374 S 0.46053 0.21643 1.04602 0.0
N375 N 0.44104 0.19575 1.01106 0.0
N376 N 0.44291 0.19797 0.08378 0.0
C377 C 0.41976 0.17343 0.06903 0.0
C378 C 0.41875 0.17232 1.02939 0.0
C379 C 0.37973 0.4229 0.52668 0.0
C380 C 0.40127 0.39702 0.50845 0.0
C381 C 0.37882 0.4248 0.56554 0.0
C382 C 0.39931 0.40084 0.58808 0.0
H383 H 0.36345 0.44199 0.51085 0.0
H384 H 0.36169 0.44531 0.57796 0.0
S385 S 0.45993 0.32757 0.55436 0.0
N386 N 0.44357 0.34649 0.51631 0.0
N387 N 0.44166 0.3502 0.58896 0.0
C388 C 0.42093 0.37478 0.57025 0.0
C389 C 0.42195 0.37285 0.53064 0.0
C390 C 0.12674 0.38183 1.02637 0.0
C391 C 0.14959 0.40211 1.00291 0.0
C392 C 0.12917 0.38438 0.06506 0.0
C393 C 0.15473 0.40716 0.08219 0.0
H394 H 0.10637 0.36418 1.01484 0.0
H395 H 0.11054 0.36835 0.08165 0.0
S396 S 0.22227 0.46481 1.03341 0.0
N397 N 0.19969 0.44503 0.99985 0.0
N398 N 0.20413 0.44958 0.07237 0.0
C399 C 0.17826 0.42706 0.0591 0.0
C400 C 0.17571 0.42463 1.01961 0.0
C401 C 0.12178 0.1588 0.57228 0.0
C402 C 0.14506 0.13555 0.5922 0.0
C403 C 0.12132 0.15911 0.53337 0.0
C404 C 0.1442 0.13629 0.51244 0.0
H405 H 0.10374 0.17707 0.58679 0.0
H406 H 0.10286 0.17773 0.51965 0.0
S407 S 0.21022 0.0699 0.5509 0.0
N408 N 0.19162 0.08864 0.58768 0.0
N409 N 0.19066 0.0895 0.51485 0.0
C410 C 0.16754 0.11277 0.53194 0.0
C411 C 0.16798 0.11234 0.57164 0.0
C412 C 0.66229 0.93697 0.06129 0.0
C413 C 0.64483 0.91273 0.08606 0.0
C414 C 0.65948 0.93323 1.02276 0.0
C415 C 0.6389 0.90521 1.00717 0.0
H416 H 0.67864 0.95903 0.07163 0.0
H417 H 0.6736 0.95256 1.00512 0.0
S418 S 0.58764 0.83439 0.05966 0.0
N419 N 0.60612 0.85964 0.09198 0.0
N420 N 0.60061 0.85257 1.01982 0.0
C421 C 0.62107 0.88083 1.0316 0.0
C422 C 0.62409 0.88459 0.0709 0.0
C423 C 0.65455 0.62623 0.5642 0.0
C424 C 0.63308 0.65134 0.58357 0.0
C425 C 0.65423 0.62487 0.52538 0.0
C426 C 0.63256 0.64868 0.50393 0.0
H427 H 0.67184 0.60733 0.5791 0.0
H428 H 0.6715 0.60499 0.51215 0.0
S429 S 0.57114 0.71972 0.54083 0.0
N430 N 0.58919 0.70073 0.57805 0.0
N431 N 0.58887 0.69814 0.50523 0.0
C432 C 0.61083 0.6739 0.52286 0.0
C433 C 0.61102 0.67523 0.56253 0.0
C434 C 0.88824 0.59156 0.06223 0.0
C435 C 0.86512 0.60649 1.03506 0.0
C436 C 0.89279 0.60843 0.0967 0.0
C437 C 0.87471 0.64107 0.10501 0.0
H438 H 0.90481 0.56805 0.05587 0.0
H439 H 0.91319 0.59783 0.1154 0.0
S440 S 0.80877 0.68967 1.04535 0.0
N441 N 0.82133 0.65414 1.02069 0.0
N442 N 0.83091 0.68618 0.08484 0.0
C443 C 0.84957 0.65474 0.07937 0.0
C444 C 0.84443 0.63732 1.04456 0.0
C445 C 0.92955 0.88521 0.54195 0.0
C446 C 0.89575 0.87859 0.52574 0.0
C447 C 0.93251 0.8933 0.57973 0.0
C448 C 0.90175 0.89597 0.60267 0.0
H449 H 0.95402 0.88324 0.52555 0.0
H450 H 0.95923 0.89715 0.59116 0.0
S451 S 0.80672 0.88338 0.57336 0.0
N452 N 0.83065 0.87669 0.53536 0.0
N453 N 0.83629 0.89255 0.60604 0.0
C454 C 0.8677 0.89066 0.58656 0.0
C455 C 0.8647 0.88175 0.54824 0.0
C456 C 0.23647 0.26956 0.2139 0.0
C457 C 0.23689 0.30346 0.23155 0.0
C458 C 0.26737 0.24733 0.21306 0.0
C459 C 0.29989 0.2581 0.22991 0.0
H460 H 0.21265 0.26095 0.19911 0.0
H461 H 0.26612 0.2222 0.19774 0.0
S462 S 0.31313 0.34209 0.28454 0.0
N463 N 0.27111 0.34507 0.26965 0.0
N464 N 0.32911 0.30336 0.26827 0.0
C465 C 0.29998 0.29111 0.24938 0.0
C466 C 0.26852 0.31372 0.25019 0.0
C467 C 0.29537 0.2815 0.74542 0.0
C468 C 0.28467 0.31213 0.72436 0.0
C469 C 0.27557 0.249 0.74471 0.0
C470 C 0.24432 0.24598 0.72296 0.0
H471 H 0.31949 0.28262 0.76223 0.0
H472 H 0.28478 0.22603 0.76122 0.0
S473 S 0.20601 0.31779 0.66139 0.0
N474 N 0.24143 0.33711 0.68052 0.0
N475 N 0.2043 0.27615 0.67896 0.0
C476 C 0.23317 0.27656 0.70206 0.0
C477 C 0.25329 0.30962 0.70286 0.0
C478 C 0.27208 0.30181 0.39255 0.0
C479 C 0.30353 0.28973 0.37424 0.0
C480 C 0.24016 0.28136 0.39233 0.0
C481 C 0.2384 0.24792 0.3739 0.0
H482 H 0.27236 0.32678 0.4082 0.0
H483 H 0.21707 0.29116 0.40781 0.0
S484 S 0.31152 0.206 0.31806 0.0
N485 N 0.32975 0.24349 0.33452 0.0
N486 N 0.26974 0.20506 0.33417 0.0
C487 C 0.26914 0.23609 0.35434 0.0
C488 C 0.30169 0.25693 0.35453 0.0
C489 C 0.2998 0.27719 0.87527 0.0
C490 C 0.28727 0.24325 0.86276 0.0
C491 C 0.27862 0.30872 0.87201 0.0
C492 C 0.24407 0.30754 0.85621 0.0
H493 H 0.32549 0.27919 0.88928 0.0
H494 H 0.28857 0.33376 0.88376 0.0
S495 S 0.20079 0.22696 0.81417 0.0
N496 N 0.23963 0.21136 0.83027 0.0
N497 N 0.19984 0.27074 0.82412 0.0
C498 C 0.23205 0.27433 0.84161 0.0
C499 C 0.25359 0.24216 0.84497 0.0
C500 C 0.73082 0.75654 0.86869 0.0
C501 C 0.72409 0.78475 0.89383 0.0
C502 C 0.76046 0.73307 0.8733 0.0
C503 C 0.78427 0.73695 0.90327 0.0
H504 H 0.71335 0.75297 0.84506 0.0
H505 H 0.76499 0.71187 0.85318 0.0
S506 S 0.77578 0.8036 0.97925 0.0
N507 N 0.74189 0.81343 0.95125 0.0
N508 N 0.79741 0.76922 0.96001 0.0
C509 C 0.77734 0.76453 0.92903 0.0
C510 C 0.74726 0.78843 0.9243 0.0
C511 C 0.74075 0.77149 0.35995 0.0
C512 C 0.74978 0.74057 0.38153 0.0
C513 C 0.76078 0.8038 0.36225 0.0
C514 C 0.7903 0.80609 0.38628 0.0
H515 H 0.71809 0.77055 0.34112 0.0
H516 H 0.75351 0.82694 0.34498 0.0
S517 S 0.82232 0.73473 0.45171 0.0
N518 N 0.78854 0.71548 0.42956 0.0
N519 N 0.826 0.7762 0.43398 0.0
C520 C 0.79908 0.77577 0.40854 0.0
C521 C 0.7789 0.74294 0.40609 0.0
C522 C 0.80472 0.75776 0.71395 0.0
C523 C 0.80669 0.78897 0.73603 0.0
C524 C 0.7724 0.73839 0.71053 0.0
C525 C 0.74073 0.74942 0.72905 0.0
H526 H 0.82796 0.74903 0.69805 0.0
H527 H 0.77195 0.71523 0.69224 0.0
S528 S 0.73277 0.8268 0.79385 0.0
N529 N 0.77509 0.82826 0.77927 0.0
N530 N 0.71422 0.79185 0.77273 0.0
C531 C 0.74264 0.77983 0.7523 0.0
C532 C 0.77564 0.79955 0.75585 0.0
C533 C 0.85262 0.84366 0.1998 0.0
C534 C 0.85101 0.81314 0.17671 0.0
C535 C 0.82199 0.86539 0.20612 0.0
C536 C 0.78856 0.85759 0.18946 0.0
H537 H 0.8775 0.85019 0.2139 0.0
H538 H 0.82436 0.88816 0.22474 0.0
S539 S 0.7714 0.78273 0.12348 0.0
N540 N 0.81413 0.77737 0.13537 0.0
N541 N 0.75672 0.81851 0.14652 0.0
C542 C 0.7869 0.82759 0.16553 0.0
C543 C 0.81808 0.80535 0.15932 0.0
C544 C 0.28648 0.09536 0.33532 0.0
C545 C 0.24868 0.09151 0.33342 0.0
C546 C 0.30791 0.09733 0.30318 0.0
C547 C 0.29257 0.09572 0.26756 0.0
H548 H 0.29962 0.09861 0.36181 0.0
H549 H 0.33659 0.10203 0.30643 0.0
S550 S 0.1956 0.08044 0.24709 0.0
N551 N 0.19734 0.08206 0.29269 0.0
N552 N 0.23755 0.08608 0.23253 0.0
C553 C 0.25514 0.08947 0.26526 0.0
C554 C 0.23327 0.08727 0.29804 0.0
C555 C 0.44223 0.2595 0.76593 0.0
C556 C 0.44417 0.29773 0.76804 0.0
C557 C 0.44241 0.23741 0.79794 0.0
C558 C 0.44435 0.25252 0.83361 0.0
H559 H 0.43882 0.24643 0.73944 0.0
H560 H 0.43904 0.20833 0.79459 0.0
S561 S 0.45577 0.35065 0.85439 0.0
N562 N 0.45263 0.34939 0.80886 0.0
N563 N 0.45263 0.30794 0.86877 0.0
C564 C 0.44894 0.29048 0.83603 0.0
C565 C 0.44896 0.31302 0.80338 0.0
C566 C 0.24731 0.46019 0.29098 0.0
C567 C 0.2644 0.45733 0.25613 0.0
C568 C 0.26688 0.45726 0.32415 0.0
C569 C 0.30451 0.45166 0.32412 0.0
H570 H 0.21823 0.46291 0.29287 0.0
H571 H 0.25205 0.45799 0.35004 0.0
S572 S 0.36303 0.44686 0.24035 0.0
N573 N 0.32182 0.45191 0.2238 0.0
N574 N 0.3586 0.4468 0.28582 0.0
C575 C 0.3223 0.4512 0.28946 0.0
C576 C 0.30228 0.45392 0.25564 0.0
C577 C 0.09207 0.21259 0.83306 0.0
C578 C 0.09601 0.21996 0.79489 0.0
C579 C 0.09001 0.24068 0.85904 0.0
C580 C 0.09178 0.27753 0.84813 0.0
H581 H 0.09213 0.18473 0.84324 0.0
H582 H 0.08857 0.23331 0.88812 0.0
S583 S 0.09974 0.31174 0.75116 0.0
N584 N 0.09958 0.26698 0.74724 0.0
N585 N 0.09558 0.31986 0.79584 0.0
C586 C 0.09361 0.28539 0.80978 0.0
C587 C 0.09573 0.25663 0.78326 0.0
C588 C 0.73205 0.94312 0.79678 0.0
C589 C 0.74424 0.94671 0.83349 0.0
C590 C 0.75617 0.94362 0.76671 0.0
C591 C 0.79361 0.94785 0.7719 0.0
H592 H 0.70379 0.93805 0.7912 0.0
H593 H 0.74543 0.93887 0.73934 0.0
S594 S 0.83885 0.96414 0.8619 0.0
N595 N 0.79585 0.95882 0.87286 0.0
N596 N 0.84113 0.96004 0.8165 0.0
C597 C 0.80586 0.95414 0.80822 0.0
C598 C 0.78125 0.95346 0.8389 0.0
C599 C 0.61037 0.74585 0.2913 0.0
C600 C 0.60367 0.75934 0.3271 0.0
C601 C 0.6172 0.76932 0.26108 0.0
C602 C 0.61752 0.80745 0.26511 0.0
H603 H 0.61186 0.71678 0.28669 0.0
H604 H 0.62331 0.75727 0.23454 0.0
S605 S 0.59746 0.85708 0.35205 0.0
N606 N 0.59485 0.81366 0.36404 0.0
N607 N 0.60744 0.85765 0.30748 0.0
C608 C 0.60897 0.8214 0.30035 0.0
C609 C 0.60212 0.79745 0.33118 0.0
C610 C 0.74995 0.58639 0.84222 0.0
C611 C 0.78527 0.58719 0.82778 0.0
C612 C 0.71975 0.58966 0.81899 0.0
C613 C 0.72348 0.59363 0.78027 0.0
H614 H 0.74551 0.58534 0.87187 0.0
H615 H 0.69325 0.59071 0.83176 0.0
S616 S 0.80998 0.59194 0.72803 0.0
N617 N 0.82211 0.58813 0.77182 0.0
N618 N 0.76544 0.59428 0.72834 0.0
C619 C 0.75854 0.59169 0.76524 0.0
C620 C 0.78936 0.58851 0.78893 0.0
C621 C 0.96652 0.77858 0.34016 0.0
C622 C 0.93704 0.77425 0.36429 0.0
C623 C 0.97024 0.7571 0.30852 0.0
C624 C 0.94416 0.73081 0.29897 0.0
H625 H 0.9864 0.79955 0.34515 0.0
H626 H 0.99311 0.7625 0.29054 0.0
S627 S 0.86268 0.70727 0.35418 0.0
N628 N 0.88228 0.73996 0.37782 0.0
N629 N 0.88873 0.70038 0.31769 0.0
C630 C 0.91524 0.72513 0.32367 0.0
C631 C 0.91183 0.74661 0.35645 0.0
C632 C 0.54559 0.08451 0.22735 0.0
C633 C 0.50947 0.07357 0.22284 0.0
C634 C 0.57404 0.05919 0.22689 0.0
C635 C 0.56767 1.02181 0.2218 0.0
H636 H 0.55191 0.11294 0.23154 0.0
H637 H 0.60132 0.06891 0.23086 0.0
S638 S 0.47807 0.97858 0.20997 0.0
N639 N 0.46892 1.02244 0.21379 0.0
N640 N 0.52245 0.97497 0.2127 0.0
C641 C 0.5318 1.01046 0.21662 0.0
C642 C 0.50271 0.03629 0.2172 0.0
C643 C 0.4953 0.57672 0.72505 0.0
C644 C 0.53206 0.56703 0.72323 0.0
C645 C 0.46815 0.55016 0.72512 0.0
C646 C 0.47667 0.51286 0.72333 0.0
H647 H 0.48747 0.60511 0.72632 0.0
H648 H 0.44022 0.55886 0.72654 0.0
S649 S 0.56882 0.47294 0.72093 0.0
N650 N 0.57557 0.51737 0.7213 0.0
N651 N 0.52456 0.46749 0.72136 0.0
C652 C 0.5133 0.50274 0.72153 0.0
C653 C 0.54098 0.52981 0.7215 0.0
C654 C 0.08521 0.55853 0.19519 0.0
C655 C 0.06602 0.52544 0.19621 0.0
C656 C 0.0675 0.59194 0.18895 0.0
C657 C 0.02992 0.59354 0.1835 0.0
H658 H 0.11405 0.55865 0.20002 0.0
H659 H 0.08317 0.61679 0.18924 0.0
S660 S 0.96808 0.51432 0.17858 0.0
N661 N 1.0079 0.49618 0.18804 0.0
N662 N 0.97468 0.55875 0.17607 0.0
C663 C 1.01062 0.56054 0.18326 0.0
C664 C 0.02863 0.52658 0.1897 0.0
C665 C 1.00455 1.01179 0.73335 0.0
C666 C 1.01349 0.97453 0.73461 0.0
C667 C 0.03151 0.03862 0.73214 0.0
C668 C 0.06839 0.02915 0.73207 0.0
H669 H 0.97653 1.02026 0.73433 0.0
H670 H 0.02345 0.06698 0.73223 0.0
S671 S 0.1058 0.93535 0.72986 0.0
N672 N 0.06163 0.92954 0.73225 0.0
N673 N 0.11224 0.97984 0.7298 0.0
C674 C 0.07761 0.99196 0.73196 0.0
C675 C 0.05019 0.9647 0.73326 0.0
C676 C 0.57296 0.49943 0.36835 0.0
C677 C 0.56216 0.53619 0.36967 0.0
C678 C 0.54755 0.47113 0.36964 0.0
C679 C 0.51029 0.4784 0.37223 0.0
H680 H 0.60134 0.49252 0.36636 0.0
H681 H 0.55715 0.44327 0.36862 0.0
S682 S 0.46777 0.57011 0.3737 0.0
N683 N 0.51156 0.57837 0.37212 0.0
N684 N 0.46383 0.52533 0.37426 0.0
C685 C 0.4991 0.51508 0.37348 0.0
C686 C 0.52501 0.5439 0.37227 0.0
C687 C 0.02314 0.51348 0.84622 0.0
C688 C 0.03577 0.4927 0.87651 0.0
C689 C 0.99391 0.53749 0.84988 0.0
C690 C 0.97585 0.54153 0.88387 0.0
H691 H 0.036 0.51124 0.81939 0.0
H692 H 0.98542 0.55325 0.82593 0.0
S693 S 0.99856 0.49469 0.9721 0.0
N694 N 0.0282 0.47863 0.94208 0.0
N695 N 0.97273 0.52336 0.94855 0.0
C696 C 0.98762 0.5206 0.91428 0.0
C697 C 1.01769 0.4963 0.9107 0.0
C698 C 1.01891 0.99357 0.38472 0.0
C699 C 0.98203 1.00095 0.37904 0.0
C700 C 0.04458 1.02175 0.38458 0.0
C701 C 0.03424 0.05837 0.37893 0.0
H702 H 0.02809 0.9657 0.3881 0.0
H703 H 0.07281 1.0147 0.38778 0.0
S704 S 0.94032 0.0924 0.3685 0.0
N705 N 0.93608 0.0477 0.37136 0.0
N706 N 0.98405 0.10058 0.3715 0.0
C707 C 0.99723 0.06615 0.3749 0.0
C708 C 0.97121 0.03749 0.37486 0.0
C709 C 0.48973 0.97214 0.86937 0.0
C710 C 0.52644 0.98097 0.87308 0.0
C711 C 0.4629 0.99916 0.87041 0.0
C712 C 0.47174 0.03613 0.8749 0.0
H713 H 0.48176 0.94408 0.86556 0.0
H714 H 0.43497 0.99106 0.86751 0.0
S715 S 0.56438 0.07367 0.88323 0.0
N716 N 0.57049 0.02925 0.88017 0.0
N717 N 0.52027 0.08015 0.88151 0.0
C718 C 0.50846 0.0453 0.87866 0.0
C719 C 0.53575 1.0177 0.87787 0.0
loop_
_geom_bond_atom_site_label_1
_geom_bond_atom_site_label_2
_geom_bond_distance
_geom_bond_site_symmetry_2
_ccdc_geom_bond_type
Cu0 N1 1.999 . S
Cu0 O6 1.974 . S
Cu0 N11 1.985 . S
Cu0 O20 1.959 . S
N1 Cu0 1.999 . S
N1 C3 1.263 . S
N1 C5 1.389 . S
N2 C3 1.358 . S
N2 C4 1.400 . S
C3 N1 1.263 . S
C3 N2 1.358 . S
C3 H9 0.930 . S
C4 N2 1.400 . S
C4 C5 1.351 . S
C4 H21 0.930 . S
C5 N1 1.389 . S
C5 C4 1.351 . S
C5 H10 0.930 . S
O6 Cu0 1.974 . S
O6 C16 1.282 . S
C7 O8 1.261 . S
C7 O20 1.251 . S
O8 C7 1.261 . S
H9 C3 0.930 . S
H10 C5 0.930 . S
N11 Cu0 1.985 . S
N11 C13 1.335 . S
N11 C14 1.390 . S
N12 C13 1.345 . S
N12 C15 1.336 . S
C13 N11 1.335 . S
C13 N12 1.345 . S
C13 H18 0.930 . S
C14 N11 1.390 . S
C14 C15 1.346 . S
C14 H19 0.930 . S
C15 N12 1.336 . S
C15 C14 1.346 . S
C15 H22 0.929 1_545 S
C16 O6 1.282 . S
C16 O17 1.216 . S
O17 C16 1.216 . S
H18 C13 0.930 . S
H19 C14 0.930 . S
O20 Cu0 1.959 . S
O20 C7 1.251 . S
H21 C4 0.930 . S
H22 C15 0.929 1_565 S
Cu23 N24 1.999 . S
Cu23 O29 1.974 . S
Cu23 N34 1.985 . S
Cu23 O43 1.959 . S
N24 Cu23 1.999 . S
N24 C26 1.263 . S
N24 C28 1.389 . S
N25 C26 1.358 . S
N25 C27 1.400 . S
C26 N24 1.263 . S
C26 N25 1.358 . S
C26 H32 0.930 . S
C27 N25 1.400 . S
C27 C28 1.351 . S
C27 H44 0.930 . S
C28 N24 1.389 . S
C28 C27 1.351 . S
C28 H33 0.930 . S
O29 Cu23 1.974 . S
O29 C39 1.282 . S
C30 O31 1.261 . S
C30 O43 1.251 . S
O31 C30 1.261 . S
H32 C26 0.930 . S
H33 C28 0.930 . S
N34 Cu23 1.985 . S
N34 C36 1.335 . S
N34 C37 1.390 . S
N35 C36 1.345 . S
N35 C38 1.336 . S
C36 N34 1.335 . S
C36 N35 1.345 . S
C36 H41 0.930 . S
C37 N34 1.390 . S
C37 C38 1.346 . S
C37 H42 0.930 . S
C38 N35 1.336 . S
C38 C37 1.346 . S
C38 H45 0.929 . S
C39 O29 1.282 . S
C39 O40 1.216 . S
O40 C39 1.216 . S
H41 C36 0.930 . S
H42 C37 0.930 . S
O43 Cu23 1.959 . S
O43 C30 1.251 . S
H44 C27 0.930 . S
H45 C38 0.929 . S
Cu46 N47 1.999 . S
Cu46 O52 1.974 . S
Cu46 N57 1.985 . S
Cu46 O66 1.959 . S
N47 Cu46 1.999 . S
N47 C49 1.263 . S
N47 C51 1.389 . S
N48 C49 1.358 . S
N48 C50 1.400 . S
C49 N47 1.263 . S
C49 N48 1.358 . S
C49 H55 0.930 . S
C50 N48 1.400 . S
C50 C51 1.351 . S
C50 H67 0.930 . S
C51 N47 1.389 . S
C51 C50 1.351 . S
C51 H56 0.930 . S
O52 Cu46 1.974 . S
O52 C62 1.282 . S
C53 O54 1.261 . S
C53 O66 1.251 . S
O54 C53 1.261 . S
H55 C49 0.930 . S
H56 C51 0.930 . S
N57 Cu46 1.985 . S
N57 C59 1.335 . S
N57 C60 1.390 . S
N58 C59 1.345 . S
N58 C61 1.336 . S
C59 N57 1.335 . S
C59 N58 1.345 . S
C59 H64 0.930 . S
C60 N57 1.390 . S
C60 C61 1.346 . S
C60 H65 0.930 . S
C61 N58 1.336 . S
C61 C60 1.346 . S
C61 H68 0.929 . S
C62 O52 1.282 . S
C62 O63 1.216 . S
O63 C62 1.216 . S
H64 C59 0.930 . S
H65 C60 0.930 . S
O66 Cu46 1.959 . S
O66 C53 1.251 . S
H67 C50 0.930 . S
H68 C61 0.929 . S
Cu69 N70 1.999 . S
Cu69 O75 1.974 . S
Cu69 N80 1.985 . S
Cu69 O89 1.959 . S
N70 Cu69 1.999 . S
N70 C72 1.263 . S
N70 C74 1.389 . S
N71 C72 1.358 . S
N71 C73 1.400 . S
C72 N70 1.263 . S
C72 N71 1.358 . S
C72 H78 0.930 . S
C73 N71 1.400 . S
C73 C74 1.351 . S
C73 H90 0.930 . S
C74 N70 1.389 . S
C74 C73 1.351 . S
C74 H79 0.930 . S
O75 Cu69 1.974 . S
O75 C85 1.282 . S
C76 O77 1.261 . S
C76 O89 1.251 . S
O77 C76 1.261 . S
H78 C72 0.930 . S
H79 C74 0.930 . S
N80 Cu69 1.985 . S
N80 C82 1.335 . S
N80 C83 1.390 . S
N81 C82 1.345 . S
N81 C84 1.336 . S
C82 N80 1.335 . S
C82 N81 1.345 . S
C82 H87 0.930 . S
C83 N80 1.390 . S
C83 C84 1.346 . S
C83 H88 0.930 . S
C84 N81 1.336 . S
C84 C83 1.346 . S
C84 H91 0.929 1_455 S
C85 O75 1.282 . S
C85 O86 1.216 . S
O86 C85 1.216 . S
H87 C82 0.930 . S
H88 C83 0.930 . S
O89 Cu69 1.959 . S
O89 C76 1.251 . S
H90 C73 0.930 . S
H91 C84 0.929 1_655 S
Cu92 N93 1.999 . S
Cu92 O98 1.974 . S
Cu92 N103 1.985 . S
Cu92 O112 1.959 . S
N93 Cu92 1.999 . S
N93 C95 1.263 . S
N93 C97 1.389 . S
N94 C95 1.358 . S
N94 C96 1.400 . S
C95 N93 1.263 . S
C95 N94 1.358 . S
C95 H101 0.930 . S
C96 N94 1.400 . S
C96 C97 1.351 . S
C96 H113 0.930 . S
C97 N93 1.389 . S
C97 C96 1.351 . S
C97 H102 0.930 . S
O98 Cu92 1.974 . S
O98 C108 1.282 . S
C99 O100 1.261 . S
C99 O112 1.251 . S
O100 C99 1.261 . S
H101 C95 0.930 . S
H102 C97 0.930 . S
N103 Cu92 1.985 . S
N103 C105 1.335 . S
N103 C106 1.390 . S
N104 C105 1.345 . S
N104 C107 1.336 . S
C105 N103 1.335 . S
C105 N104 1.345 . S
C105 H110 0.930 . S
C106 N103 1.390 . S
C106 C107 1.346 . S
C106 H111 0.930 . S
C107 N104 1.336 . S
C107 C106 1.346 . S
C107 H114 0.929 . S
C108 O98 1.282 . S
C108 O109 1.216 . S
O109 C108 1.216 . S
H110 C105 0.930 . S
H111 C106 0.930 . S
O112 Cu92 1.959 . S
O112 C99 1.251 . S
H113 C96 0.930 . S
H114 C107 0.929 . S
Cu115 N116 1.999 . S
Cu115 O121 1.974 . S
Cu115 N126 1.985 . S
Cu115 O135 1.959 . S
N116 Cu115 1.999 . S
N116 C118 1.263 . S
N116 C120 1.389 . S
N117 C118 1.358 . S
N117 C119 1.400 . S
C118 N116 1.263 . S
C118 N117 1.358 . S
C118 H124 0.930 . S
C119 N117 1.400 . S
C119 C120 1.351 . S
C119 H136 0.930 . S
C120 N116 1.389 . S
C120 C119 1.351 . S
C120 H125 0.930 . S
O121 Cu115 1.974 . S
O121 C131 1.282 . S
C122 O123 1.261 . S
C122 O135 1.251 . S
O123 C122 1.261 . S
H124 C118 0.930 . S
H125 C120 0.930 . S
N126 Cu115 1.985 . S
N126 C128 1.335 . S
N126 C129 1.390 . S
N127 C128 1.345 . S
N127 C130 1.336 . S
C128 N126 1.335 . S
C128 N127 1.345 . S
C128 H133 0.930 . S
C129 N126 1.390 . S
C129 C130 1.346 . S
C129 H134 0.930 . S
C130 N127 1.336 . S
C130 C129 1.346 . S
C130 H137 0.929 1_455 S
C131 O121 1.282 . S
C131 O132 1.216 . S
O132 C131 1.216 . S
H133 C128 0.930 . S
H134 C129 0.930 . S
O135 Cu115 1.959 . S
O135 C122 1.251 . S
H136 C119 0.930 . S
H137 C130 0.929 1_655 S
Cu138 N139 1.999 . S
Cu138 O144 1.974 . S
Cu138 N149 1.985 . S
Cu138 O158 1.959 . S
N139 Cu138 1.999 . S
N139 C141 1.263 . S
N139 C143 1.389 . S
N140 C141 1.358 . S
N140 C142 1.400 . S
C141 N139 1.263 . S
C141 N140 1.358 . S
C141 H147 0.930 . S
C142 N140 1.400 . S
C142 C143 1.351 . S
C142 H159 0.930 . S
C143 N139 1.389 . S
C143 C142 1.351 . S
C143 H148 0.930 . S
O144 Cu138 1.974 . S
O144 C154 1.282 . S
C145 O146 1.261 . S
C145 O158 1.251 . S
O146 C145 1.261 . S
H147 C141 0.930 . S
H148 C143 0.930 . S
N149 Cu138 1.985 . S
N149 C151 1.335 . S
N149 C152 1.390 . S
N150 C151 1.345 . S
N150 C153 1.336 . S
C151 N149 1.335 . S
C151 N150 1.345 . S
C151 H156 0.930 . S
C152 N149 1.390 . S
C152 C153 1.346 . S
C152 H157 0.930 . S
C153 N150 1.336 . S
C153 C152 1.346 . S
C153 H160 0.929 1_545 S
C154 O144 1.282 . S
C154 O155 1.216 . S
O155 C154 1.216 . S
H156 C151 0.930 . S
H157 C152 0.930 . S
O158 Cu138 1.959 . S
O158 C145 1.251 . S
H159 C142 0.930 . S
H160 C153 0.929 1_565 S
Cu161 N162 1.999 . S
Cu161 O167 1.974 . S
Cu161 N172 1.985 . S
Cu161 O181 1.959 . S
N162 Cu161 1.999 . S
N162 C164 1.263 . S
N162 C166 1.389 . S
N163 C164 1.358 . S
N163 C165 1.400 . S
C164 N162 1.263 . S
C164 N163 1.358 . S
C164 H170 0.930 . S
C165 N163 1.400 . S
C165 C166 1.351 . S
C165 H182 0.930 . S
C166 N162 1.389 . S
C166 C165 1.351 . S
C166 H171 0.930 . S
O167 Cu161 1.974 . S
O167 C177 1.282 . S
C168 O169 1.261 . S
C168 O181 1.251 . S
O169 C168 1.261 . S
H170 C164 0.930 . S
H171 C166 0.930 . S
N172 Cu161 1.985 . S
N172 C174 1.335 . S
N172 C175 1.390 . S
N173 C174 1.345 . S
N173 C176 1.336 . S
C174 N172 1.335 . S
C174 N173 1.345 . S
C174 H179 0.930 . S
C175 N172 1.390 . S
C175 C176 1.346 . S
C175 H180 0.930 . S
C176 N173 1.336 . S
C176 C175 1.346 . S
C176 H183 0.929 . S
C177 O167 1.282 . S
C177 O178 1.216 . S
O178 C177 1.216 . S
H179 C174 0.930 . S
H180 C175 0.930 . S
O181 Cu161 1.959 . S
O181 C168 1.251 . S
H182 C165 0.930 . S
H183 C176 0.929 . S
Cu184 N185 1.999 . S
Cu184 O190 1.974 . S
Cu184 N195 1.985 . S
Cu184 O204 1.959 . S
N185 Cu184 1.999 . S
N185 C187 1.263 . S
N185 C189 1.389 . S
N186 C187 1.358 . S
N186 C188 1.400 . S
C187 N185 1.263 . S
C187 N186 1.358 . S
C187 H193 0.930 . S
C188 N186 1.400 . S
C188 C189 1.351 . S
C188 H205 0.930 . S
C189 N185 1.389 . S
C189 C188 1.351 . S
C189 H194 0.930 . S
O190 Cu184 1.974 . S
O190 C200 1.282 . S
C191 O192 1.261 . S
C191 O204 1.251 . S
O192 C191 1.261 . S
H193 C187 0.930 . S
H194 C189 0.930 . S
N195 Cu184 1.985 . S
N195 C197 1.335 . S
N195 C198 1.390 . S
N196 C197 1.345 . S
N196 C199 1.336 . S
C197 N195 1.335 . S
C197 N196 1.345 . S
C197 H202 0.930 . S
C198 N195 1.390 . S
C198 C199 1.346 . S
C198 H203 0.930 . S
C199 N196 1.336 . S
C199 C198 1.346 . S
C199 H206 0.929 1_565 S
C200 O190 1.282 . S
C200 O201 1.216 . S
O201 C200 1.216 . S
H202 C197 0.930 . S
H203 C198 0.930 . S
O204 Cu184 1.959 . S
O204 C191 1.251 . S
H205 C188 0.930 . S
H206 C199 0.929 1_545 S
Cu207 N208 1.999 . S
Cu207 O213 1.974 . S
Cu207 N218 1.985 . S
Cu207 O227 1.959 . S
N208 Cu207 1.999 . S
N208 C210 1.263 . S
N208 C212 1.389 . S
N209 C210 1.358 . S
N209 C211 1.400 . S
C210 N208 1.263 . S
C210 N209 1.358 . S
C210 H216 0.930 . S
C211 N209 1.400 . S
C211 C212 1.351 . S
C211 H228 0.930 . S
C212 N208 1.389 . S
C212 C211 1.351 . S
C212 H217 0.930 . S
O213 Cu207 1.974 . S
O213 C223 1.282 . S
C214 O215 1.261 . S
C214 O227 1.251 . S
O215 C214 1.261 . S
H216 C210 0.930 . S
H217 C212 0.930 . S
N218 Cu207 1.985 . S
N218 C220 1.335 . S
N218 C221 1.390 . S
N219 C220 1.345 . S
N219 C222 1.336 . S
C220 N218 1.335 . S
C220 N219 1.345 . S
C220 H225 0.930 . S
C221 N218 1.390 . S
C221 C222 1.346 . S
C221 H226 0.930 . S
C222 N219 1.336 . S
C222 C221 1.346 . S
C222 H229 0.929 . S
C223 O213 1.282 . S
C223 O224 1.216 . S
O224 C223 1.216 . S
H225 C220 0.930 . S
H226 C221 0.930 . S
O227 Cu207 1.959 . S
O227 C214 1.251 . S
H228 C211 0.930 . S
H229 C222 0.929 . S
Cu230 N231 1.999 . S
Cu230 O236 1.974 . S
Cu230 N241 1.985 . S
Cu230 O250 1.959 . S
N231 Cu230 1.999 . S
N231 C233 1.263 . S
N231 C235 1.389 . S
N232 C233 1.358 . S
N232 C234 1.400 . S
C233 N231 1.263 . S
C233 N232 1.358 . S
C233 H239 0.930 . S
C234 N232 1.400 . S
C234 C235 1.351 . S
C234 H251 0.930 . S
C235 N231 1.389 . S
C235 C234 1.351 . S
C235 H240 0.930 . S
O236 Cu230 1.974 . S
O236 C246 1.282 . S
C237 O238 1.261 . S
C237 O250 1.251 . S
O238 C237 1.261 . S
H239 C233 0.930 . S
H240 C235 0.930 . S
N241 Cu230 1.985 . S
N241 C243 1.335 . S
N241 C244 1.390 . S
N242 C243 1.345 . S
N242 C245 1.336 . S
C243 N241 1.335 . S
C243 N242 1.345 . S
C243 H248 0.930 . S
C244 N241 1.390 . S
C244 C245 1.346 . S
C244 H249 0.930 . S
C245 N242 1.336 . S
C245 C244 1.346 . S
C245 H252 0.929 . S
C246 O236 1.282 . S
C246 O247 1.216 . S
O247 C246 1.216 . S
H248 C243 0.930 . S
H249 C244 0.930 . S
O250 Cu230 1.959 . S
O250 C237 1.251 . S
H251 C234 0.930 . S
H252 C245 0.929 . S
Cu253 N254 1.999 . S
Cu253 O259 1.974 . S
Cu253 N264 1.985 . S
Cu253 O273 1.959 . S
N254 Cu253 1.999 . S
N254 C256 1.263 . S
N254 C258 1.389 . S
N255 C256 1.358 . S
N255 C257 1.400 . S
C256 N254 1.263 . S
C256 N255 1.358 . S
C256 H262 0.930 . S
C257 N255 1.400 . S
C257 C258 1.351 . S
C257 H274 0.930 . S
C258 N254 1.389 . S
C258 C257 1.351 . S
C258 H263 0.930 . S
O259 Cu253 1.974 . S
O259 C269 1.282 . S
C260 O261 1.261 . S
C260 O273 1.251 . S
O261 C260 1.261 . S
H262 C256 0.930 . S
H263 C258 0.930 . S
N264 Cu253 1.985 . S
N264 C266 1.335 . S
N264 C267 1.390 . S
N265 C266 1.345 . S
N265 C268 1.336 . S
C266 N264 1.335 . S
C266 N265 1.345 . S
C266 H271 0.930 . S
C267 N264 1.390 . S
C267 C268 1.346 . S
C267 H272 0.930 . S
C268 N265 1.336 . S
C268 C267 1.346 . S
C268 H275 0.929 1_655 S
C269 O259 1.282 . S
C269 O270 1.216 . S
O270 C269 1.216 . S
H271 C266 0.930 . S
H272 C267 0.930 . S
O273 Cu253 1.959 . S
O273 C260 1.251 . S
H274 C257 0.930 . S
H275 C268 0.929 1_455 S
Cu276 N277 1.999 . S
Cu276 O282 1.974 . S
Cu276 N287 1.985 . S
Cu276 O296 1.959 . S
N277 Cu276 1.999 . S
N277 C279 1.263 . S
N277 C281 1.389 . S
N278 C279 1.358 . S
N278 C280 1.400 . S
C279 N277 1.263 . S
C279 N278 1.358 . S
C279 H285 0.930 . S
C280 N278 1.400 . S
C280 C281 1.351 . S
C280 H297 0.930 . S
C281 N277 1.389 . S
C281 C280 1.351 . S
C281 H286 0.930 . S
O282 Cu276 1.974 . S
O282 C292 1.282 . S
C283 O284 1.261 . S
C283 O296 1.251 . S
O284 C283 1.261 . S
H285 C279 0.930 . S
H286 C281 0.930 . S
N287 Cu276 1.985 . S
N287 C289 1.335 . S
N287 C290 1.390 . S
N288 C289 1.345 . S
N288 C291 1.336 . S
C289 N287 1.335 . S
C289 N288 1.345 . S
C289 H294 0.930 . S
C290 N287 1.390 . S
C290 C291 1.346 . S
C290 H295 0.930 . S
C291 N288 1.336 . S
C291 C290 1.346 . S
C291 H298 0.929 . S
C292 O282 1.282 . S
C292 O293 1.216 . S
O293 C292 1.216 . S
H294 C289 0.930 . S
H295 C290 0.930 . S
O296 Cu276 1.959 . S
O296 C283 1.251 . S
H297 C280 0.930 . S
H298 C291 0.929 . S
Cu299 N300 1.999 . S
Cu299 O305 1.974 . S
Cu299 N310 1.985 . S
Cu299 O319 1.959 . S
N300 Cu299 1.999 . S
N300 C302 1.263 . S
N300 C304 1.389 . S
N301 C302 1.358 . S
N301 C303 1.400 . S
C302 N300 1.263 . S
C302 N301 1.358 . S
C302 H308 0.930 . S
C303 N301 1.400 . S
C303 C304 1.351 . S
C303 H320 0.930 . S
C304 N300 1.389 . S
C304 C303 1.351 . S
C304 H309 0.930 . S
O305 Cu299 1.974 . S
O305 C315 1.282 . S
C306 O307 1.261 . S
C306 O319 1.251 . S
O307 C306 1.261 . S
H308 C302 0.930 . S
H309 C304 0.930 . S
N310 Cu299 1.985 . S
N310 C312 1.335 . S
N310 C313 1.390 . S
N311 C312 1.345 . S
N311 C314 1.336 . S
C312 N310 1.335 . S
C312 N311 1.345 . S
C312 H317 0.930 . S
C313 N310 1.390 . S
C313 C314 1.346 . S
C313 H318 0.930 . S
C314 N311 1.336 . S
C314 C313 1.346 . S
C314 H321 0.929 1_655 S
C315 O305 1.282 . S
C315 O316 1.216 . S
O316 C315 1.216 . S
H317 C312 0.930 . S
H318 C313 0.930 . S
O319 Cu299 1.959 . S
O319 C306 1.251 . S
H320 C303 0.930 . S
H321 C314 0.929 1_455 S
Cu322 N323 1.999 . S
Cu322 O328 1.974 . S
Cu322 N333 1.985 . S
Cu322 O342 1.959 . S
N323 Cu322 1.999 . S
N323 C325 1.263 . S
N323 C327 1.389 . S
N324 C325 1.358 . S
N324 C326 1.400 . S
C325 N323 1.263 . S
C325 N324 1.358 . S
C325 H331 0.930 . S
C326 N324 1.400 . S
C326 C327 1.351 . S
C326 H343 0.930 . S
C327 N323 1.389 . S
C327 C326 1.351 . S
C327 H332 0.930 . S
O328 Cu322 1.974 . S
O328 C338 1.282 . S
C329 O330 1.261 . S
C329 O342 1.251 . S
O330 C329 1.261 . S
H331 C325 0.930 . S
H332 C327 0.930 . S
N333 Cu322 1.985 . S
N333 C335 1.335 . S
N333 C336 1.390 . S
N334 C335 1.345 . S
N334 C337 1.336 . S
C335 N333 1.335 . S
C335 N334 1.345 . S
C335 H340 0.930 . S
C336 N333 1.390 . S
C336 C337 1.346 . S
C336 H341 0.930 . S
C337 N334 1.336 . S
C337 C336 1.346 . S
C337 H344 0.929 1_565 S
C338 O328 1.282 . S
C338 O339 1.216 . S
O339 C338 1.216 . S
H340 C335 0.930 . S
H341 C336 0.930 . S
O342 Cu322 1.959 . S
O342 C329 1.251 . S
H343 C326 0.930 . S
H344 C337 0.929 1_545 S
Cu345 N346 1.999 . S
Cu345 O351 1.974 . S
Cu345 N356 1.985 . S
Cu345 O365 1.959 . S
N346 Cu345 1.999 . S
N346 C348 1.263 . S
N346 C350 1.389 . S
N347 C348 1.358 . S
N347 C349 1.400 . S
C348 N346 1.263 . S
C348 N347 1.358 . S
C348 H354 0.930 . S
C349 N347 1.400 . S
C349 C350 1.351 . S
C349 H366 0.930 . S
C350 N346 1.389 . S
C350 C349 1.351 . S
C350 H355 0.930 . S
O351 Cu345 1.974 . S
O351 C361 1.282 . S
C352 O353 1.261 . S
C352 O365 1.251 . S
O353 C352 1.261 . S
H354 C348 0.930 . S
H355 C350 0.930 . S
N356 Cu345 1.985 . S
N356 C358 1.335 . S
N356 C359 1.390 . S
N357 C358 1.345 . S
N357 C360 1.336 . S
C358 N356 1.335 . S
C358 N357 1.345 . S
C358 H363 0.930 . S
C359 N356 1.390 . S
C359 C360 1.346 . S
C359 H364 0.930 . S
C360 N357 1.336 . S
C360 C359 1.346 . S
C360 H367 0.929 . S
C361 O351 1.282 . S
C361 O362 1.216 . S
O362 C361 1.216 . S
H363 C358 0.930 . S
H364 C359 0.930 . S
O365 Cu345 1.959 . S
O365 C352 1.251 . S
H366 C349 0.930 . S
H367 C360 0.929 . S
C368 C369 1.369 . S
C368 C370 1.419 1_556 S
C368 H372 0.930 . S
C369 C368 1.369 . S
C369 C378 1.429 . S
C370 C368 1.419 1_554 S
C370 C371 1.363 . S
C370 H373 0.929 . S
C371 C370 1.363 . S
C371 C377 1.428 . S
H372 C368 0.930 . S
H373 C370 0.929 . S
S374 N375 1.613 . S
S374 N376 1.610 1_556 S
N375 S374 1.613 . S
N375 C378 1.350 . S
N376 S374 1.610 1_554 S
N376 C377 1.351 . S
C377 C371 1.428 . S
C377 N376 1.351 . S
C377 C378 1.434 1_554 S
C378 C369 1.429 . S
C378 N375 1.350 . S
C378 C377 1.434 1_556 S
C379 C380 1.369 . S
C379 C381 1.419 . S
C379 H383 0.930 . S
C380 C379 1.369 . S
C380 C389 1.429 . S
C381 C379 1.419 . S
C381 C382 1.363 . S
C381 H384 0.929 . S
C382 C381 1.363 . S
C382 C388 1.428 . S
H383 C379 0.930 . S
H384 C381 0.929 . S
S385 N386 1.613 . S
S385 N387 1.610 . S
N386 S385 1.613 . S
N386 C389 1.350 . S
N387 S385 1.610 . S
N387 C388 1.351 . S
C388 C382 1.428 . S
C388 N387 1.351 . S
C388 C389 1.434 . S
C389 C380 1.429 . S
C389 N386 1.350 . S
C389 C388 1.434 . S
C390 C391 1.369 . S
C390 C392 1.419 1_556 S
C390 H394 0.930 . S
C391 C390 1.369 . S
C391 C400 1.429 . S
C392 C390 1.419 1_554 S
C392 C393 1.363 . S
C392 H395 0.929 . S
C393 C392 1.363 . S
C393 C399 1.428 . S
H394 C390 0.930 . S
H395 C392 0.929 . S
S396 N397 1.613 1_554 S
S396 N398 1.610 . S
N397 S396 1.613 1_556 S
N397 C400 1.350 . S
N398 S396 1.610 . S
N398 C399 1.351 . S
C399 C393 1.428 . S
C399 N398 1.351 . S
C399 C400 1.434 1_554 S
C400 C391 1.429 . S
C400 N397 1.350 . S
C400 C399 1.434 1_556 S
C401 C402 1.369 . S
C401 C403 1.419 . S
C401 H405 0.930 . S
C402 C401 1.369 . S
C402 C411 1.429 . S
C403 C401 1.419 . S
C403 C404 1.363 . S
C403 H406 0.929 . S
C404 C403 1.363 . S
C404 C410 1.428 . S
H405 C401 0.930 . S
H406 C403 0.929 . S
S407 N408 1.613 . S
S407 N409 1.610 . S
N408 S407 1.613 . S
N408 C411 1.350 . S
N409 S407 1.610 . S
N409 C410 1.351 . S
C410 C404 1.428 . S
C410 N409 1.351 . S
C410 C411 1.434 . S
C411 C402 1.429 . S
C411 N408 1.350 . S
C411 C410 1.434 . S
C412 C413 1.369 . S
C412 C414 1.419 1_554 S
C412 H416 0.930 . S
C413 C412 1.369 . S
C413 C422 1.429 . S
C414 C412 1.419 1_556 S
C414 C415 1.363 . S
C414 H417 0.929 . S
C415 C414 1.363 . S
C415 C421 1.428 . S
H416 C412 0.930 . S
H417 C414 0.929 . S
S418 N419 1.613 . S
S418 N420 1.610 1_554 S
N419 S418 1.613 . S
N419 C422 1.350 . S
N420 S418 1.610 1_556 S
N420 C421 1.351 . S
C421 C415 1.428 . S
C421 N420 1.351 . S
C421 C422 1.434 1_556 S
C422 C413 1.429 . S
C422 N419 1.350 . S
C422 C421 1.434 1_554 S
C423 C424 1.369 . S
C423 C425 1.419 . S
C423 H427 0.930 . S
C424 C423 1.369 . S
C424 C433 1.429 . S
C425 C423 1.419 . S
C425 C426 1.363 . S
C425 H428 0.929 . S
C426 C425 1.363 . S
C426 C432 1.428 . S
H427 C423 0.930 . S
H428 C425 0.929 . S
S429 N430 1.613 . S
S429 N431 1.610 . S
N430 S429 1.613 . S
N430 C433 1.350 . S
N431 S429 1.610 . S
N431 C432 1.351 . S
C432 C426 1.428 . S
C432 N431 1.351 . S
C432 C433 1.434 . S
C433 C424 1.429 . S
C433 N430 1.350 . S
C433 C432 1.434 . S
C434 C435 1.369 . S
C434 C436 1.419 1_556 S
C434 H438 0.930 . S
C435 C434 1.369 . S
C435 C444 1.429 . S
C436 C434 1.419 1_554 S
C436 C437 1.363 . S
C436 H439 0.929 . S
C437 C436 1.363 . S
C437 C443 1.428 . S
H438 C434 0.930 . S
H439 C436 0.929 . S
S440 N441 1.613 . S
S440 N442 1.610 1_556 S
N441 S440 1.613 . S
N441 C444 1.350 . S
N442 S440 1.610 1_554 S
N442 C443 1.351 . S
C443 C437 1.428 . S
C443 N442 1.351 . S
C443 C444 1.434 1_554 S
C444 C435 1.429 . S
C444 N441 1.350 . S
C444 C443 1.434 1_556 S
C445 C446 1.369 . S
C445 C447 1.419 . S
C445 H449 0.930 . S
C446 C445 1.369 . S
C446 C455 1.429 . S
C447 C445 1.419 . S
C447 C448 1.363 . S
C447 H450 0.929 . S
C448 C447 1.363 . S
C448 C454 1.428 . S
H449 C445 0.930 . S
H450 C447 0.929 . S
S451 N452 1.613 . S
S451 N453 1.610 . S
N452 S451 1.613 . S
N452 C455 1.350 . S
N453 S451 1.610 . S
N453 C454 1.351 . S
C454 C448 1.428 . S
C454 N453 1.351 . S
C454 C455 1.434 . S
C455 C446 1.429 . S
C455 N452 1.350 . S
C455 C454 1.434 . S
C456 C457 1.369 . S
C456 C458 1.419 . S
C456 H460 0.930 . S
C457 C456 1.369 . S
C457 C466 1.429 . S
C458 C456 1.419 . S
C458 C459 1.363 . S
C458 H461 0.929 . S
C459 C458 1.363 . S
C459 C465 1.428 . S
H460 C456 0.930 . S
H461 C458 0.929 . S
S462 N463 1.613 . S
S462 N464 1.610 . S
N463 S462 1.613 . S
N463 C466 1.350 . S
N464 S462 1.610 . S
N464 C465 1.351 . S
C465 C459 1.428 . S
C465 N464 1.351 . S
C465 C466 1.434 . S
C466 C457 1.429 . S
C466 N463 1.350 . S
C466 C465 1.434 . S
C467 C468 1.369 . S
C467 C469 1.419 . S
C467 H471 0.930 . S
C468 C467 1.369 . S
C468 C477 1.429 . S
C469 C467 1.419 . S
C469 C470 1.363 . S
C469 H472 0.929 . S
C470 C469 1.363 . S
C470 C476 1.428 . S
H471 C467 0.930 . S
H472 C469 0.929 . S
S473 N474 1.613 . S
S473 N475 1.610 . S
N474 S473 1.613 . S
N474 C477 1.350 . S
N475 S473 1.610 . S
N475 C476 1.351 . S
C476 C470 1.428 . S
C476 N475 1.351 . S
C476 C477 1.434 . S
C477 C468 1.429 . S
C477 N474 1.350 . S
C477 C476 1.434 . S
C478 C479 1.369 . S
C478 C480 1.419 . S
C478 H482 0.930 . S
C479 C478 1.369 . S
C479 C488 1.429 . S
C480 C478 1.419 . S
C480 C481 1.363 . S
C480 H483 0.929 . S
C481 C480 1.363 . S
C481 C487 1.428 . S
H482 C478 0.930 . S
H483 C480 0.929 . S
S484 N485 1.613 . S
S484 N486 1.610 . S
N485 S484 1.613 . S
N485 C488 1.350 . S
N486 S484 1.610 . S
N486 C487 1.351 . S
C487 C481 1.428 . S
C487 N486 1.351 . S
C487 C488 1.434 . S
C488 C479 1.429 . S
C488 N485 1.350 . S
C488 C487 1.434 . S
C489 C490 1.369 . S
C489 C491 1.419 . S
C489 H493 0.930 . S
C490 C489 1.369 . S
C490 C499 1.429 . S
C491 C489 1.419 . S
C491 C492 1.363 . S
C491 H494 0.929 . S
C492 C491 1.363 . S
C492 C498 1.428 . S
H493 C489 0.930 . S
H494 C491 0.929 . S
S495 N496 1.613 . S
S495 N497 1.610 . S
N496 S495 1.613 . S
N496 C499 1.350 . S
N497 S495 1.610 . S
N497 C498 1.351 . S
C498 C492 1.428 . S
C498 N497 1.351 . S
C498 C499 1.434 . S
C499 C490 1.429 . S
C499 N496 1.350 . S
C499 C498 1.434 . S
C500 C501 1.369 . S
C500 C502 1.419 . S
C500 H504 0.930 . S
C501 C500 1.369 . S
C501 C510 1.429 . S
C502 C500 1.419 . S
C502 C503 1.363 . S
C502 H505 0.929 . S
C503 C502 1.363 . S
C503 C509 1.428 . S
H504 C500 0.930 . S
H505 C502 0.929 . S
S506 N507 1.613 . S
S506 N508 1.610 . S
N507 S506 1.613 . S
N507 C510 1.350 . S
N508 S506 1.610 . S
N508 C509 1.351 . S
C509 C503 1.428 . S
C509 N508 1.351 . S
C509 C510 1.434 . S
C510 C501 1.429 . S
C510 N507 1.350 . S
C510 C509 1.434 . S
C511 C512 1.369 . S
C511 C513 1.419 . S
C511 H515 0.930 . S
C512 C511 1.369 . S
C512 C521 1.429 . S
C513 C511 1.419 . S
C513 C514 1.363 . S
C513 H516 0.929 . S
C514 C513 1.363 . S
C514 C520 1.428 . S
H515 C511 0.930 . S
H516 C513 0.929 . S
S517 N518 1.613 . S
S517 N519 1.610 . S
N518 S517 1.613 . S
N518 C521 1.350 . S
N519 S517 1.610 . S
N519 C520 1.351 . S
C520 C514 1.428 . S
C520 N519 1.351 . S
C520 C521 1.434 . S
C521 C512 1.429 . S
C521 N518 1.350 . S
C521 C520 1.434 . S
C522 C523 1.369 . S
C522 C524 1.419 . S
C522 H526 0.930 . S
C523 C522 1.369 . S
C523 C532 1.429 . S
C524 C522 1.419 . S
C524 C525 1.363 . S
C524 H527 0.929 . S
C525 C524 1.363 . S
C525 C531 1.428 . S
H526 C522 0.930 . S
H527 C524 0.929 . S
S528 N529 1.613 . S
S528 N530 1.610 . S
N529 S528 1.613 . S
N529 C532 1.350 . S
N530 S528 1.610 . S
N530 C531 1.351 . S
C531 C525 1.428 . S
C531 N530 1.351 . S
C531 C532 1.434 . S
C532 C523 1.429 . S
C532 N529 1.350 . S
C532 C531 1.434 . S
C533 C534 1.369 . S
C533 C535 1.419 . S
C533 H537 0.930 . S
C534 C533 1.369 . S
C534 C543 1.429 . S
C535 C533 1.419 . S
C535 C536 1.363 . S
C535 H538 0.929 . S
C536 C535 1.363 . S
C536 C542 1.428 . S
H537 C533 0.930 . S
H538 C535 0.929 . S
S539 N540 1.613 . S
S539 N541 1.610 . S
N540 S539 1.613 . S
N540 C543 1.350 . S
N541 S539 1.610 . S
N541 C542 1.351 . S
C542 C536 1.428 . S
C542 N541 1.351 . S
C542 C543 1.434 . S
C543 C534 1.429 . S
C543 N540 1.350 . S
C543 C542 1.434 . S
C544 C545 1.369 . S
C544 C546 1.419 . S
C544 H548 0.930 . S
C545 C544 1.369 . S
C545 C554 1.429 . S
C546 C544 1.419 . S
C546 C547 1.363 . S
C546 H549 0.929 . S
C547 C546 1.363 . S
C547 C553 1.428 . S
H548 C544 0.930 . S
H549 C546 0.929 . S
S550 N551 1.613 . S
S550 N552 1.610 . S
N551 S550 1.613 . S
N551 C554 1.350 . S
N552 S550 1.610 . S
N552 C553 1.351 . S
C553 C547 1.428 . S
C553 N552 1.351 . S
C553 C554 1.434 . S
C554 C545 1.429 . S
C554 N551 1.350 . S
C554 C553 1.434 . S
C555 C556 1.369 . S
C555 C557 1.419 . S
C555 H559 0.930 . S
C556 C555 1.369 . S
C556 C565 1.429 . S
C557 C555 1.419 . S
C557 C558 1.363 . S
C557 H560 0.929 . S
C558 C557 1.363 . S
C558 C564 1.428 . S
H559 C555 0.930 . S
H560 C557 0.929 . S
S561 N562 1.613 . S
S561 N563 1.610 . S
N562 S561 1.613 . S
N562 C565 1.350 . S
N563 S561 1.610 . S
N563 C564 1.351 . S
C564 C558 1.428 . S
C564 N563 1.351 . S
C564 C565 1.434 . S
C565 C556 1.429 . S
C565 N562 1.350 . S
C565 C564 1.434 . S
C566 C567 1.369 . S
C566 C568 1.419 . S
C566 H570 0.930 . S
C567 C566 1.369 . S
C567 C576 1.429 . S
C568 C566 1.419 . S
C568 C569 1.363 . S
C568 H571 0.929 . S
C569 C568 1.363 . S
C569 C575 1.428 . S
H570 C566 0.930 . S
H571 C568 0.929 . S
S572 N573 1.613 . S
S572 N574 1.610 . S
N573 S572 1.613 . S
N573 C576 1.350 . S
N574 S572 1.610 . S
N574 C575 1.351 . S
C575 C569 1.428 . S
C575 N574 1.351 . S
C575 C576 1.434 . S
C576 C567 1.429 . S
C576 N573 1.350 . S
C576 C575 1.434 . S
C577 C578 1.369 . S
C577 C579 1.419 . S
C577 H581 0.930 . S
C578 C577 1.369 . S
C578 C587 1.429 . S
C579 C577 1.419 . S
C579 C580 1.363 . S
C579 H582 0.929 . S
C580 C579 1.363 . S
C580 C586 1.428 . S
H581 C577 0.930 . S
H582 C579 0.929 . S
S583 N584 1.613 . S
S583 N585 1.610 . S
N584 S583 1.613 . S
N584 C587 1.350 . S
N585 S583 1.610 . S
N585 C586 1.351 . S
C586 C580 1.428 . S
C586 N585 1.351 . S
C586 C587 1.434 . S
C587 C578 1.429 . S
C587 N584 1.350 . S
C587 C586 1.434 . S
C588 C589 1.369 . S
C588 C590 1.419 . S
C588 H592 0.930 . S
C589 C588 1.369 . S
C589 C598 1.429 . S
C590 C588 1.419 . S
C590 C591 1.363 . S
C590 H593 0.929 . S
C591 C590 1.363 . S
C591 C597 1.428 . S
H592 C588 0.930 . S
H593 C590 0.929 . S
S594 N595 1.613 . S
S594 N596 1.610 . S
N595 S594 1.613 . S
N595 C598 1.350 . S
N596 S594 1.610 . S
N596 C597 1.351 . S
C597 C591 1.428 . S
C597 N596 1.351 . S
C597 C598 1.434 . S
C598 C589 1.429 . S
C598 N595 1.350 . S
C598 C597 1.434 . S
C599 C600 1.369 . S
C599 C601 1.419 . S
C599 H603 0.930 . S
C600 C599 1.369 . S
C600 C609 1.429 . S
C601 C599 1.419 . S
C601 C602 1.363 . S
C601 H604 0.929 . S
C602 C601 1.363 . S
C602 C608 1.428 . S
H603 C599 0.930 . S
H604 C601 0.929 . S
S605 N606 1.613 . S
S605 N607 1.610 . S
N606 S605 1.613 . S
N606 C609 1.350 . S
N607 S605 1.610 . S
N607 C608 1.351 . S
C608 C602 1.428 . S
C608 N607 1.351 . S
C608 C609 1.434 . S
C609 C600 1.429 . S
C609 N606 1.350 . S
C609 C608 1.434 . S
C610 C611 1.369 . S
C610 C612 1.419 . S
C610 H614 0.930 . S
C611 C610 1.369 . S
C611 C620 1.429 . S
C612 C610 1.419 . S
C612 C613 1.363 . S
C612 H615 0.929 . S
C613 C612 1.363 . S
C613 C619 1.428 . S
H614 C610 0.930 . S
H615 C612 0.929 . S
S616 N617 1.613 . S
S616 N618 1.610 . S
N617 S616 1.613 . S
N617 C620 1.350 . S
N618 S616 1.610 . S
N618 C619 1.351 . S
C619 C613 1.428 . S
C619 N618 1.351 . S
C619 C620 1.434 . S
C620 C611 1.429 . S
C620 N617 1.350 . S
C620 C619 1.434 . S
C621 C622 1.369 . S
C621 C623 1.419 . S
C621 H625 0.930 . S
C622 C621 1.369 . S
C622 C631 1.429 . S
C623 C621 1.419 . S
C623 C624 1.363 . S
C623 H626 0.929 . S
C624 C623 1.363 . S
C624 C630 1.428 . S
H625 C621 0.930 . S
H626 C623 0.929 . S
S627 N628 1.613 . S
S627 N629 1.610 . S
N628 S627 1.613 . S
N628 C631 1.350 . S
N629 S627 1.610 . S
N629 C630 1.351 . S
C630 C624 1.428 . S
C630 N629 1.351 . S
C630 C631 1.434 . S
C631 C622 1.429 . S
C631 N628 1.350 . S
C631 C630 1.434 . S
C632 C633 1.369 . S
C632 C634 1.419 . S
C632 H636 0.930 1_565 S
C633 C632 1.369 . S
C633 C642 1.429 . S
C634 C632 1.419 . S
C634 C635 1.363 . S
C634 H637 0.929 . S
C635 C634 1.363 . S
C635 C641 1.428 . S
H636 C632 0.930 1_545 S
H637 C634 0.929 . S
S638 N639 1.613 . S
S638 N640 1.610 . S
N639 S638 1.613 . S
N639 C642 1.350 . S
N640 S638 1.610 . S
N640 C641 1.351 . S
C641 C635 1.428 . S
C641 N640 1.351 . S
C641 C642 1.434 . S
C642 C633 1.429 . S
C642 N639 1.350 . S
C642 C641 1.434 . S
C643 C644 1.369 . S
C643 C645 1.419 . S
C643 H647 0.930 . S
C644 C643 1.369 . S
C644 C653 1.429 . S
C645 C643 1.419 . S
C645 C646 1.363 . S
C645 H648 0.929 . S
C646 C645 1.363 . S
C646 C652 1.428 . S
H647 C643 0.930 . S
H648 C645 0.929 . S
S649 N650 1.613 . S
S649 N651 1.610 . S
N650 S649 1.613 . S
N650 C653 1.350 . S
N651 S649 1.610 . S
N651 C652 1.351 . S
C652 C646 1.428 . S
C652 N651 1.351 . S
C652 C653 1.434 . S
C653 C644 1.429 . S
C653 N650 1.350 . S
C653 C652 1.434 . S
C654 C655 1.369 . S
C654 C656 1.419 . S
C654 H658 0.930 . S
C655 C654 1.369 . S
C655 C664 1.429 . S
C656 C654 1.419 . S
C656 C657 1.363 . S
C656 H659 0.929 1_455 S
C657 C656 1.363 . S
C657 C663 1.428 . S
H658 C654 0.930 . S
H659 C656 0.929 1_655 S
S660 N661 1.613 . S
S660 N662 1.610 . S
N661 S660 1.613 . S
N661 C664 1.350 . S
N662 S660 1.610 . S
N662 C663 1.351 . S
C663 C657 1.428 . S
C663 N662 1.351 . S
C663 C664 1.434 . S
C664 C655 1.429 . S
C664 N661 1.350 . S
C664 C663 1.434 . S
C665 C666 1.369 . S
C665 C667 1.419 . S
C665 H669 0.930 . S
C666 C665 1.369 . S
C666 C675 1.429 . S
C667 C665 1.419 . S
C667 C668 1.363 . S
C667 H670 0.929 . S
C668 C667 1.363 . S
C668 C674 1.428 . S
H669 C665 0.930 . S
H670 C667 0.929 . S
S671 N672 1.613 1_455 S
S671 N673 1.610 1_565 S
N672 S671 1.613 1_655 S
N672 C675 1.350 1_565 S
N673 S671 1.610 1_545 S
N673 C674 1.351 1_455 S
C674 C668 1.428 . S
C674 N673 1.351 1_655 S
C674 C675 1.434 . S
C675 C666 1.429 . S
C675 N672 1.350 1_545 S
C675 C674 1.434 . S
C676 C677 1.369 . S
C676 C678 1.419 . S
C676 H680 0.930 . S
C677 C676 1.369 . S
C677 C686 1.429 . S
C678 C676 1.419 . S
C678 C679 1.363 . S
C678 H681 0.929 . S
C679 C678 1.363 . S
C679 C685 1.428 . S
H680 C676 0.930 . S
H681 C678 0.929 . S
S682 N683 1.613 . S
S682 N684 1.610 . S
N683 S682 1.613 . S
N683 C686 1.350 . S
N684 S682 1.610 . S
N684 C685 1.351 . S
C685 C679 1.428 . S
C685 N684 1.351 . S
C685 C686 1.434 . S
C686 C677 1.429 . S
C686 N683 1.350 . S
C686 C685 1.434 . S
C687 C688 1.369 . S
C687 C689 1.419 . S
C687 H691 0.930 . S
C688 C687 1.369 . S
C688 C697 1.429 . S
C689 C687 1.419 . S
C689 C690 1.363 . S
C689 H692 0.929 . S
C690 C689 1.363 . S
C690 C696 1.428 . S
H691 C687 0.930 . S
H692 C689 0.929 . S
S693 N694 1.613 . S
S693 N695 1.610 1_455 S
N694 S693 1.613 . S
N694 C697 1.350 1_455 S
N695 S693 1.610 1_655 S
N695 C696 1.351 . S
C696 C690 1.428 . S
C696 N695 1.351 . S
C696 C697 1.434 . S
C697 C688 1.429 . S
C697 N694 1.350 1_655 S
C697 C696 1.434 . S
C698 C699 1.369 . S
C698 C700 1.419 . S
C698 H702 0.930 . S
C699 C698 1.369 . S
C699 C708 1.429 . S
C700 C698 1.419 . S
C700 C701 1.363 . S
C700 H703 0.929 . S
C701 C700 1.363 . S
C701 C707 1.428 . S
H702 C698 0.930 . S
H703 C700 0.929 . S
S704 N705 1.613 1_455 S
S704 N706 1.610 1_565 S
N705 S704 1.613 1_655 S
N705 C708 1.350 1_655 S
N706 S704 1.610 1_545 S
N706 C707 1.351 1_545 S
C707 C701 1.428 . S
C707 N706 1.351 1_565 S
C707 C708 1.434 . S
C708 C699 1.429 . S
C708 N705 1.350 1_455 S
C708 C707 1.434 . S
C709 C710 1.369 . S
C709 C711 1.419 . S
C709 H713 0.930 1_545 S
C710 C709 1.369 . S
C710 C719 1.429 . S
C711 C709 1.419 . S
C711 C712 1.363 . S
C711 H714 0.929 . S
C712 C711 1.363 . S
C712 C718 1.428 . S
H713 C709 0.930 1_565 S
H714 C711 0.929 . S
S715 N716 1.613 . S
S715 N717 1.610 . S
N716 S715 1.613 . S
N716 C719 1.350 . S
N717 S715 1.610 . S
N717 C718 1.351 . S
C718 C712 1.428 . S
C718 N717 1.351 . S
C718 C719 1.434 . S
C719 C710 1.429 . S
C719 N716 1.350 . S
C719 C718 1.434 . S
C369 C168 1.648 . S
C371 C7 1.647 . S
C380 C99 1.647 . S
C382 C30 1.646 . S
C391 C122 1.646 . S
C393 C53 1.645 . S
C402 C76 1.648 . S
C404 C145 1.648 . S
C413 C352 1.648 . S
C415 C191 1.648 . S
C424 C283 1.645 . S
C426 C214 1.646 . S
C435 C237 1.646 . S
C437 C306 1.646 . S
C446 C260 1.644 . S
C448 C329 1.645 . S
C457 N48 1.332 . S
C459 N2 1.325 . S
C468 N25 1.321 . S
C470 N71 1.330 . S
C479 N94 1.322 . S
C481 N140 1.332 . S
C490 N163 1.321 . S
C492 N117 1.332 . S
C501 N186 1.333 . S
C503 N232 1.322 . S
C512 N209 1.322 . S
C514 N255 1.329 . S
C523 N324 1.329 . S
C525 N278 1.328 . S
C534 N301 1.321 . S
C536 N347 1.331 . S
C545 C154 1.617 . S
C547 C16 1.613 . S
C556 C39 1.618 . S
C558 C177 1.613 . S
C567 C62 1.612 . S
C569 C108 1.617 . S
C578 C85 1.618 . S
C580 C131 1.614 . S
C589 C200 1.612 . S
C591 C338 1.618 . S
C600 C223 1.612 . S
C602 C361 1.618 . S
C611 C246 1.615 . S
C613 C292 1.617 . S
C622 C269 1.613 . S
C624 C315 1.618 . S
C633 N12 1.465 1_565 S
C635 N357 1.466 . S
C644 N288 1.472 . S
C646 N35 1.472 . S
C655 N58 1.465 . S
C657 N311 1.466 1_455 S
C666 N334 1.469 1_545 S
C668 N81 1.469 1_655 S
C677 N219 1.467 . S
C679 N104 1.467 . S
C688 N127 1.472 1_655 S
C690 N242 1.472 . S
C699 N265 1.466 1_455 S
C701 N150 1.467 1_565 S
C710 N196 1.469 1_545 S
C712 N173 1.468 . S
