# Generated by pormake.
# Topology why, (6)-cn, num edge types: 1
# Building blocks:
#     Node 0, Type 0, BuildingBlock: GEDQOX_clean_sbu_0, # of connection points: 6
#     Node 1, Type 0, BuildingBlock: GEDQOX_clean_sbu_0, # of connection points: 6
#     Node 2, Type 0, BuildingBlock: GEDQOX_clean_sbu_0, # of connection points: 6
#     Node 3, Type 0, BuildingBlock: GEDQOX_clean_sbu_0, # of connection points: 6
#     Node 4, Type 0, BuildingBlock: GEDQOX_clean_sbu_0, # of connection points: 6
#     Node 5, Type 0, BuildingBlock: GEDQOX_clean_sbu_0, # of connection points: 6
#     Node 6, Type 0, BuildingBlock: GEDQOX_clean_sbu_0, # of connection points: 6
#     Node 7, Type 0, BuildingBlock: GEDQOX_clean_sbu_0, # of connection points: 6
#     Node 8, Type 0, BuildingBlock: GEDQOX_clean_sbu_0, # of connection points: 6
#     Node 9, Type 0, BuildingBlock: GEDQOX_clean_sbu_0, # of connection points: 6
#     Node 10, Type 0, BuildingBlock: GEDQOX_clean_sbu_0, # of connection points: 6
#     Node 11, Type 0, BuildingBlock: GEDQOX_clean_sbu_0, # of connection points: 6
#     Node 12, Type 0, BuildingBlock: GEDQOX_clean_sbu_0, # of connection points: 6
#     Node 13, Type 0, BuildingBlock: GEDQOX_clean_sbu_0, # of connection points: 6
#     Node 14, Type 0, BuildingBlock: GEDQOX_clean_sbu_0, # of connection points: 6
#     Node 15, Type 0, BuildingBlock: GEDQOX_clean_sbu_0, # of connection points: 6
#     Edge 16, Type (0, 0), BuildingBlock: EZIPEK_clean_linker_0, # of connection points: 2
#     Edge 17, Type (0, 0), BuildingBlock: EZIPEK_clean_linker_0, # of connection points: 2
#     Edge 18, Type (0, 0), BuildingBlock: EZIPEK_clean_linker_0, # of connection points: 2
#     Edge 19, Type (0, 0), BuildingBlock: EZIPEK_clean_linker_0, # of connection points: 2
#     Edge 20, Type (0, 0), BuildingBlock: EZIPEK_clean_linker_0, # of connection points: 2
#     Edge 21, Type (0, 0), BuildingBlock: EZIPEK_clean_linker_0, # of connection points: 2
#     Edge 22, Type (0, 0), BuildingBlock: EZIPEK_clean_linker_0, # of connection points: 2
#     Edge 23, Type (0, 0), BuildingBlock: EZIPEK_clean_linker_0, # of connection points: 2
#     Edge 24, Type (0, 0), BuildingBlock: EZIPEK_clean_linker_0, # of connection points: 2
#     Edge 25, Type (0, 0), BuildingBlock: EZIPEK_clean_linker_0, # of connection points: 2
#     Edge 26, Type (0, 0), BuildingBlock: EZIPEK_clean_linker_0, # of connection points: 2
#     Edge 27, Type (0, 0), BuildingBlock: EZIPEK_clean_linker_0, # of connection points: 2
#     Edge 28, Type (0, 0), BuildingBlock: EZIPEK_clean_linker_0, # of connection points: 2
#     Edge 29, Type (0, 0), BuildingBlock: EZIPEK_clean_linker_0, # of connection points: 2
#     Edge 30, Type (0, 0), BuildingBlock: EZIPEK_clean_linker_0, # of connection points: 2
#     Edge 31, Type (0, 0), BuildingBlock: EZIPEK_clean_linker_0, # of connection points: 2
#     Edge 32, Type (0, 0), BuildingBlock: EZIPEK_clean_linker_0, # of connection points: 2
#     Edge 33, Type (0, 0), BuildingBlock: EZIPEK_clean_linker_0, # of connection points: 2
#     Edge 34, Type (0, 0), BuildingBlock: EZIPEK_clean_linker_0, # of connection points: 2
#     Edge 35, Type (0, 0), BuildingBlock: EZIPEK_clean_linker_0, # of connection points: 2
#     Edge 36, Type (0, 0), BuildingBlock: EZIPEK_clean_linker_0, # of connection points: 2
#     Edge 37, Type (0, 0), BuildingBlock: EZIPEK_clean_linker_0, # of connection points: 2
#     Edge 38, Type (0, 0), BuildingBlock: EZIPEK_clean_linker_0, # of connection points: 2
#     Edge 39, Type (0, 0), BuildingBlock: EZIPEK_clean_linker_0, # of connection points: 2
#     Edge 40, Type (0, 0), BuildingBlock: EZIPEK_clean_linker_0, # of connection points: 2
#     Edge 41, Type (0, 0), BuildingBlock: EZIPEK_clean_linker_0, # of connection points: 2
#     Edge 42, Type (0, 0), BuildingBlock: EZIPEK_clean_linker_0, # of connection points: 2
#     Edge 43, Type (0, 0), BuildingBlock: EZIPEK_clean_linker_0, # of connection points: 2
#     Edge 44, Type (0, 0), BuildingBlock: EZIPEK_clean_linker_0, # of connection points: 2
#     Edge 45, Type (0, 0), BuildingBlock: EZIPEK_clean_linker_0, # of connection points: 2
#     Edge 46, Type (0, 0), BuildingBlock: EZIPEK_clean_linker_0, # of connection points: 2
#     Edge 47, Type (0, 0), BuildingBlock: EZIPEK_clean_linker_0, # of connection points: 2
#     Edge 48, Type (0, 0), BuildingBlock: EZIPEK_clean_linker_0, # of connection points: 2
#     Edge 49, Type (0, 0), BuildingBlock: EZIPEK_clean_linker_0, # of connection points: 2
#     Edge 50, Type (0, 0), BuildingBlock: EZIPEK_clean_linker_0, # of connection points: 2
#     Edge 51, Type (0, 0), BuildingBlock: EZIPEK_clean_linker_0, # of connection points: 2
#     Edge 52, Type (0, 0), BuildingBlock: EZIPEK_clean_linker_0, # of connection points: 2
#     Edge 53, Type (0, 0), BuildingBlock: EZIPEK_clean_linker_0, # of connection points: 2
#     Edge 54, Type (0, 0), BuildingBlock: EZIPEK_clean_linker_0, # of connection points: 2
#     Edge 55, Type (0, 0), BuildingBlock: EZIPEK_clean_linker_0, # of connection points: 2
#     Edge 56, Type (0, 0), BuildingBlock: EZIPEK_clean_linker_0, # of connection points: 2
#     Edge 57, Type (0, 0), BuildingBlock: EZIPEK_clean_linker_0, # of connection points: 2
#     Edge 58, Type (0, 0), BuildingBlock: EZIPEK_clean_linker_0, # of connection points: 2
#     Edge 59, Type (0, 0), BuildingBlock: EZIPEK_clean_linker_0, # of connection points: 2
#     Edge 60, Type (0, 0), BuildingBlock: EZIPEK_clean_linker_0, # of connection points: 2
#     Edge 61, Type (0, 0), BuildingBlock: EZIPEK_clean_linker_0, # of connection points: 2
#     Edge 62, Type (0, 0), BuildingBlock: EZIPEK_clean_linker_0, # of connection points: 2
#     Edge 63, Type (0, 0), BuildingBlock: EZIPEK_clean_linker_0, # of connection points: 2
# Relax obj value: 0.297
# Max RMSD: 0.271
# Mean RMSD: 0.223
data_MOF--net-why--node1-GEDQOX_clean_sbu_0--edge1-EZIPEK_clean_linker_0
_symmetry_space_group_name_H-M    P1
_symmetry_Int_Tables_number       1
_symmetry_cell_setting            triclinic
loop_
_symmetry_equiv_pos_as_xyz
'x, y, z'
_cell_length_a     45.19064
_cell_length_b     47.407262
_cell_length_c     25.377602
_cell_angle_alpha  63.114299
_cell_angle_beta   104.87767
_cell_angle_gamma 93.885099
loop_
_atom_site_label
_atom_site_type_symbol
_atom_site_fract_x
_atom_site_fract_y
_atom_site_fract_z
_atom_type_partial_charge
Nd0 Nd 0.37015 0.20351 0.00343 0.0
Nd1 Nd 0.38896 0.18808 0.92826 0.0
C2 C 0.3418 0.20965 0.07684 0.0
C3 C 0.33451 0.22509 0.1106 0.0
C4 C 0.30879 0.21551 0.13426 0.0
C5 C 0.30133 0.22842 0.16896 0.0
C6 C 0.31962 0.25102 0.18054 0.0
C7 C 0.3456 0.26059 0.15726 0.0
C8 C 0.35309 0.24759 0.12229 0.0
C9 C 0.39064 0.25867 0.91567 0.0
C10 C 0.31623 0.17656 0.92455 0.0
C11 C 0.42218 0.18072 0.86223 0.0
C12 C 0.45437 0.16907 0.87575 0.0
C13 C 0.47865 0.18963 0.87078 0.0
C14 C 0.50833 0.17892 0.87817 0.0
C15 C 0.51421 0.14747 0.89073 0.0
C16 C 0.49052 0.12646 0.89953 0.0
C17 C 0.4609 0.13716 0.89176 0.0
C18 C 0.38361 0.13202 0.02755 0.0
C19 C 0.4401 0.19486 0.0426 0.0
O20 O 0.33057 0.22213 0.01773 0.0
O21 O 0.36889 0.19554 0.09552 0.0
O22 O 0.39449 0.25082 0.97297 0.0
O23 O 0.37366 0.23826 0.90382 0.0
O24 O 0.32594 0.18082 0.97367 0.0
O25 O 0.33574 0.18352 0.88931 0.0
O26 O 0.41763 0.20785 0.86107 0.0
O27 O 0.40375 0.15997 0.88843 0.0
O28 O 0.37235 0.13813 0.97119 0.0
O29 O 0.39523 0.15663 0.03016 0.0
O30 O 0.43449 0.19882 0.98573 0.0
O31 O 0.41736 0.18762 0.06834 0.0
H32 H 0.29453 0.19782 0.12614 0.0
H33 H 0.28128 0.22085 0.18679 0.0
H34 H 0.35984 0.27812 0.16595 0.0
H35 H 0.37321 0.25494 0.10465 0.0
H36 H 0.47452 0.2143 0.85866 0.0
H37 H 0.52618 0.19566 0.86991 0.0
H38 H 0.4945 0.10227 0.90826 0.0
H39 H 0.44285 0.12062 0.8962 0.0
Nd40 Nd 0.62239 0.6371 0.35164 0.0
Nd41 Nd 0.63464 0.59753 0.30364 0.0
C42 C 0.58827 0.67972 0.35151 0.0
C43 C 0.57792 0.71131 0.33865 0.0
C44 C 0.5484 0.72223 0.30058 0.0
C45 C 0.53525 0.75015 0.29133 0.0
C46 C 0.55141 0.76795 0.31955 0.0
C47 C 0.58181 0.75829 0.35488 0.0
C48 C 0.59495 0.72964 0.36523 0.0
C49 C 0.68728 0.63028 0.38957 0.0
C50 C 0.65527 0.67383 0.23985 0.0
C51 C 0.65104 0.55273 0.27777 0.0
C52 C 0.65714 0.52746 0.26037 0.0
C53 C 0.68665 0.5131 0.27757 0.0
C54 C 0.69233 0.49106 0.25737 0.0
C55 C 0.66856 0.48199 0.22041 0.0
C56 C 0.63893 0.49591 0.20453 0.0
C57 C 0.63343 0.51844 0.22349 0.0
C58 C 0.58166 0.63332 0.23052 0.0
C59 C 0.59533 0.56788 0.42011 0.0
O60 O 0.58581 0.67441 0.30433 0.0
O61 O 0.6102 0.66256 0.39967 0.0
O62 O 0.66953 0.64334 0.40642 0.0
O63 O 0.67057 0.61766 0.35737 0.0
O64 O 0.63887 0.6771 0.27285 0.0
O65 O 0.65955 0.64429 0.24762 0.0
O66 O 0.66364 0.5533 0.32991 0.0
O67 O 0.63045 0.5757 0.24112 0.0
O68 O 0.60378 0.62931 0.21032 0.0
O69 O 0.58876 0.61918 0.28918 0.0
O70 O 0.6042 0.56416 0.37637 0.0
O71 O 0.60449 0.59361 0.42601 0.0
H72 H 0.53497 0.70854 0.27932 0.0
H73 H 0.51207 0.75763 0.26285 0.0
H74 H 0.59481 0.77232 0.37573 0.0
H75 H 0.61791 0.72165 0.39439 0.0
H76 H 0.70556 0.51944 0.30559 0.0
H77 H 0.71546 0.48106 0.27063 0.0
H78 H 0.61995 0.48959 0.17659 0.0
H79 H 0.61039 0.52887 0.20917 0.0
Nd80 Nd 0.17163 0.83262 0.62085 0.0
Nd81 Nd 0.20658 0.87155 0.54151 0.0
C82 C 0.13015 0.79632 0.6749 0.0
C83 C 0.10346 0.77959 0.6584 0.0
C84 C 0.09548 0.77973 0.60108 0.0
C85 C 0.07023 0.76379 0.58556 0.0
C86 C 1.05161 0.74872 0.62596 0.0
C87 C 0.05918 0.74905 0.68297 0.0
C88 C 0.08519 0.76408 0.69936 0.0
C89 C 0.18706 0.88549 0.64238 0.0
C90 C 0.13561 0.87751 0.4764 0.0
C91 C 0.2465 0.90956 0.48649 0.0
C92 C 0.27415 0.90539 0.469 0.0
C93 C 0.30087 0.92018 0.48227 0.0
C94 C 0.32691 0.91737 0.46424 0.0
C95 C 0.32759 0.8985 0.4342 0.0
C96 C 0.2998 0.88493 0.41891 0.0
C97 C 0.2738 0.88794 0.43661 0.0
C98 C 0.1941 0.8171 0.52653 0.0
C99 C 0.24509 0.81396 0.67287 0.0
O100 O 0.15696 0.78548 0.6796 0.0
O101 O 0.12731 0.82716 0.64623 0.0
O102 O 0.19001 0.85625 0.68368 0.0
O103 O 0.17836 0.88616 0.5898 0.0
O104 O 0.13645 0.84976 0.52457 0.0
O105 O 0.15984 0.89455 0.47643 0.0
O106 O 0.2486 0.89898 0.54475 0.0
O107 O 0.22042 0.90373 0.45749 0.0
O108 O 0.19414 0.84506 0.48237 0.0
O109 O 0.20113 0.81849 0.57651 0.0
O110 O 0.24663 0.84095 0.62482 0.0
O111 O 0.21791 0.80376 0.68155 0.0
H112 H 0.10822 0.79283 0.56759 0.0
H113 H 0.06433 0.76447 0.54082 0.0
H114 H 1.04471 0.73811 0.71422 0.0
H115 H 0.09068 0.76416 0.74344 0.0
H116 H 0.30142 0.93462 0.50557 0.0
H117 H 0.3456 0.9311 0.47316 0.0
H118 H 0.29746 0.87254 0.39139 0.0
H119 H 0.25319 0.87706 0.42367 0.0
Nd120 Nd 0.96128 0.43349 0.76659 0.0
Nd121 Nd 0.91732 0.42712 0.66117 0.0
C122 C 0.9736 0.44085 0.86465 0.0
C123 C 0.98456 0.46772 0.87453 0.0
C124 C 0.97465 0.47355 0.91657 0.0
C125 C 0.98923 0.49545 0.93483 0.0
C126 C 1.01385 0.51074 0.91142 0.0
C127 C 1.02011 0.50906 0.86177 0.0
C128 C 1.00531 0.4873 0.84312 0.0
C129 C 0.99532 0.44505 0.68445 0.0
C130 C 0.92113 0.498 0.65589 0.0
C131 C 0.88855 0.41341 0.57162 0.0
C132 C 0.89258 0.39041 0.54977 0.0
C133 C 0.92141 0.37543 0.56483 0.0
C134 C 0.92422 0.35128 0.54886 0.0
C135 C 0.89825 0.34179 0.51796 0.0
C136 C 0.86957 0.35726 0.50174 0.0
C137 C 0.86677 0.38138 0.51773 0.0
C138 C 0.89335 0.41794 0.75677 0.0
C139 C 0.96479 0.3659 0.76945 0.0
O140 O 0.94583 0.44579 0.82899 0.0
O141 O 0.99327 0.42628 0.85356 0.0
O142 O 1.00517 0.44768 0.73484 0.0
O143 O 0.96715 0.43865 0.67648 0.0
O144 O 0.9434 0.48524 0.70606 0.0
O145 O 0.90761 0.48066 0.62864 0.0
O146 O 0.90826 0.43564 0.56484 0.0
O147 O 0.88226 0.40122 0.62485 0.0
O148 O 0.87845 0.43358 0.69999 0.0
O149 O 0.91889 0.40783 0.75955 0.0
O150 O 0.94815 0.38039 0.71197 0.0
O151 O 0.97029 0.38072 0.80367 0.0
H152 H 0.95749 0.45947 0.93863 0.0
H153 H 0.98405 0.49737 0.97252 0.0
H154 H 1.03896 0.52129 0.84326 0.0
H155 H 1.01195 0.48389 0.8082 0.0
H156 H 0.94156 0.38192 0.59004 0.0
H157 H 0.94652 0.33961 0.56145 0.0
H158 H 0.84934 0.35023 0.47778 0.0
H159 H 0.84432 0.39252 0.50626 0.0
Nd160 Nd 0.71126 0.87008 0.0683 0.0
Nd161 Nd 0.73511 0.84412 0.01172 0.0
C162 C 0.68803 0.89039 0.13165 0.0
C163 C 0.65629 0.89708 0.13005 0.0
C164 C 0.63179 0.8799 0.11478 0.0
C165 C 0.60152 0.88872 0.10831 0.0
C166 C 0.59544 0.91496 0.11655 0.0
C167 C 0.61984 0.93258 0.12987 0.0
C168 C 0.64994 0.92378 0.13637 0.0
C169 C 0.70945 0.91729 0.9544 0.0
C170 C 0.66252 0.85233 0.97275 0.0
C171 C 0.74542 0.83053 0.92734 0.0
C172 C 0.76183 0.81816 0.89838 0.0
C173 C 0.78295 0.83644 0.86614 0.0
C174 C 0.79467 0.82672 0.83075 0.0
C175 C 0.7851 0.79886 0.82664 0.0
C176 C 0.76447 0.78034 0.85946 0.0
C177 C 0.75288 0.78994 0.89501 0.0
C178 C 0.72024 0.7935 0.11508 0.0
C179 C 0.78873 0.8719 0.08216 0.0
O180 O 0.69787 0.86094 0.15332 0.0
O181 O 0.69605 0.90899 0.08197 0.0
O182 O 0.6859 0.90903 0.97704 0.0
O183 O 0.73208 0.89723 0.98886 0.0
O184 O 0.66666 0.85216 0.02619 0.0
O185 O 0.68615 0.85645 0.94983 0.0
O186 O 0.75345 0.85659 0.93121 0.0
O187 O 0.73327 0.8111 0.9709 0.0
O188 O 0.74652 0.79604 0.10145 0.0
O189 O 0.7048 0.81955 0.07908 0.0
O190 O 0.78372 0.8534 0.05511 0.0
O191 O 0.76485 0.879 0.09705 0.0
H192 H 0.63605 0.85969 0.10807 0.0
H193 H 0.58303 0.87449 0.09914 0.0
H194 H 0.61564 0.95261 0.13717 0.0
H195 H 0.66836 0.93788 0.14638 0.0
H196 H 0.78975 0.85864 0.86685 0.0
H197 H 0.81066 0.84117 0.80559 0.0
H198 H 0.75701 0.75872 0.85675 0.0
H199 H 0.73613 0.77578 0.91828 0.0
Nd200 Nd 0.47004 0.45146 0.69822 0.0
Nd201 Nd 0.48234 0.41051 0.65128 0.0
C202 C 0.45412 0.49655 0.72418 0.0
C203 C 0.44771 0.52173 0.74184 0.0
C204 C 0.41891 0.53835 0.71939 0.0
C205 C 0.41292 0.56061 0.73891 0.0
C206 C 0.4357 0.56765 0.78064 0.0
C207 C 0.46465 0.55141 0.802 0.0
C208 C 0.47041 0.52871 0.78354 0.0
C209 C 0.52243 0.41457 0.77229 0.0
C210 C 0.51083 0.47988 0.58425 0.0
C211 C 0.51269 0.36565 0.64946 0.0
C212 C 0.51639 0.33321 0.6577 0.0
C213 C 0.51131 0.3065 0.70932 0.0
C214 C 0.52372 0.27648 0.72539 0.0
C215 C 0.54224 0.27336 0.69124 0.0
C216 C 0.54436 0.29951 0.63648 0.0
C217 C 0.53142 0.32909 0.61972 0.0
C218 C 0.41745 0.42015 0.60939 0.0
C219 C 0.44733 0.37613 0.75896 0.0
O220 O 0.44174 0.49616 0.67178 0.0
O221 O 0.47425 0.47316 0.76119 0.0
O222 O 0.50034 0.41918 0.79183 0.0
O223 O 0.51573 0.42857 0.7137 0.0
O224 O 0.50062 0.48449 0.62573 0.0
O225 O 0.50288 0.45339 0.58024 0.0
O226 O 0.51487 0.36919 0.69852 0.0
O227 O 0.49429 0.38695 0.59985 0.0
O228 O 0.43505 0.40658 0.59333 0.0
O229 O 0.43452 0.43201 0.64258 0.0
O230 O 0.46588 0.37124 0.73134 0.0
O231 O 0.44324 0.40571 0.75111 0.0
H232 H 0.40075 0.5337 0.6875 0.0
H233 H 0.39032 0.57241 0.7213 0.0
H234 H 0.48289 0.55608 0.83374 0.0
H235 H 0.49289 0.51659 0.802 0.0
H236 H 0.49957 0.30914 0.73922 0.0
H237 H 0.52091 0.25636 0.76675 0.0
H238 H 0.55793 0.29751 0.60866 0.0
H239 H 0.53549 0.3493 0.57971 0.0
Nd240 Nd 0.89707 0.17995 0.4571 0.0
Nd241 Nd 0.93436 0.2171 0.38168 0.0
C242 C 0.86173 0.14074 0.52292 0.0
C243 C 0.83303 0.145 0.53749 0.0
C244 C 0.80516 0.13474 0.51359 0.0
C245 C 0.77881 0.13573 0.53243 0.0
C246 C 0.78016 0.14657 0.57612 0.0
C247 C 0.80727 0.15889 0.59659 0.0
C248 C 0.83343 0.1582 0.57746 0.0
C249 C 0.90064 0.23934 0.45395 0.0
C250 C 0.86121 0.23638 0.32717 0.0
C251 C 0.97689 0.25086 0.32817 0.0
C252 C 1.00296 0.2689 0.34301 0.0
C253 C 1.00051 0.28778 0.37143 0.0
C254 C 1.02545 0.30409 0.38681 0.0
C255 C 0.05363 0.30132 0.37532 0.0
C256 C 0.05619 0.28256 0.34669 0.0
C257 C 1.03095 0.26661 0.33033 0.0
C258 C 0.91553 0.16483 0.35843 0.0
C259 C 0.96874 0.17388 0.52816 0.0
O260 O 0.85986 0.14603 0.46681 0.0
O261 O 0.88646 0.15144 0.54617 0.0
O262 O 0.87601 0.22399 0.45262 0.0
O263 O 0.92286 0.22322 0.45767 0.0
O264 O 0.85964 0.20668 0.36691 0.0
O265 O 0.88859 0.24821 0.32694 0.0
O266 O 0.94937 0.26242 0.31783 0.0
O267 O 0.97979 0.22014 0.36107 0.0
O268 O 0.91342 0.19415 0.31798 0.0
O269 O 0.92516 0.16423 0.41054 0.0
O270 O 0.97057 0.19864 0.47653 0.0
O271 O 0.94278 0.15949 0.53136 0.0
H272 H 0.80405 0.12483 0.48219 0.0
H273 H 0.75803 0.12612 0.51616 0.0
H274 H 0.80867 0.16748 0.6301 0.0
H275 H 0.85425 0.16687 0.59607 0.0
H276 H 0.97953 0.28951 0.38285 0.0
H277 H 1.02307 0.31814 0.40946 0.0
H278 H 0.07782 0.27984 0.33803 0.0
H279 H 1.03343 0.25203 0.30876 0.0
Nd280 Nd 0.18889 0.62468 0.34193 0.0
Nd281 Nd 0.13905 0.61219 0.24367 0.0
C282 C 0.21859 0.6362 0.43379 0.0
C283 C 0.21483 0.6595 0.45521 0.0
C284 C 0.18892 0.68064 0.42709 0.0
C285 C 0.18686 0.70508 0.44262 0.0
C286 C 0.21082 0.70884 0.48628 0.0
C287 C 0.23665 0.68748 0.51499 0.0
C288 C 0.23868 0.66302 0.49931 0.0
C289 C 0.21195 0.63342 0.24462 0.0
C290 C 0.13597 0.68156 0.23857 0.0
C291 C 0.11005 0.60709 0.14695 0.0
C292 C 0.10958 0.57914 0.13713 0.0
C293 C 0.12798 0.57688 0.10212 0.0
C294 C 0.12183 0.55474 0.07975 0.0
C295 C 0.09692 0.53587 0.09154 0.0
C296 C 0.0833 0.53326 0.13699 0.0
C297 C 0.08943 0.55526 0.15957 0.0
C298 C 0.11993 0.60116 0.34617 0.0
C299 C 0.18532 0.55313 0.34552 0.0
O300 O 0.19824 0.61453 0.43943 0.0
O301 O 0.2252 0.64839 0.38084 0.0
O302 O 0.22841 0.63622 0.29171 0.0
O303 O 0.18604 0.626 0.25324 0.0
O304 O 0.15904 0.67197 0.28852 0.0
O305 O 0.12674 0.66432 0.20941 0.0
O306 O 0.1363 0.62057 0.1499 0.0
O307 O 0.09611 0.60507 0.18762 0.0
O308 O 0.11496 0.5827 0.31957 0.0
O309 O 0.13687 0.62272 0.32063 0.0
O310 O 0.16664 0.56546 0.29053 0.0
O311 O 0.19429 0.56967 0.37724 0.0
H312 H 0.17068 0.67871 0.3921 0.0
H313 H 0.16678 0.72133 0.41999 0.0
H314 H 0.25535 0.69007 0.54877 0.0
H315 H 0.25911 0.64728 0.52063 0.0
H316 H 0.1447 0.59418 0.08675 0.0
H317 H 0.13284 0.55611 0.04549 0.0
H318 H 0.06446 0.51799 0.14716 0.0
H319 H 0.07607 0.55547 0.18926 0.0
Nd320 Nd 0.86581 0.70479 0.49592 0.0
Nd321 Nd 0.89265 0.679 0.4362 0.0
C322 C 0.84237 0.70724 0.5787 0.0
C323 C 0.83708 0.72251 0.61434 0.0
C324 C 0.81653 0.70898 0.65093 0.0
C325 C 0.81 0.72292 0.68481 0.0
C326 C 0.82412 0.75049 0.68271 0.0
C327 C 0.845 0.76399 0.64655 0.0
C328 C 0.85147 0.75002 0.61223 0.0
C329 C 0.88321 0.75961 0.40091 0.0
C330 C 0.81561 0.67543 0.41955 0.0
C331 C 0.91902 0.65923 0.37619 0.0
C332 C 0.95133 0.65018 0.38511 0.0
C333 C 0.97533 0.67002 0.3907 0.0
C334 C 1.00557 0.66103 0.39761 0.0
C335 C 1.01224 0.63203 0.39937 0.0
C336 C 0.98861 0.61139 0.39795 0.0
C337 C 0.95847 0.62038 0.39087 0.0
C338 C 0.89491 0.63367 0.55194 0.0
C339 C 0.9387 0.70192 0.5304 0.0
O340 O 0.82823 0.71975 0.52055 0.0
O341 O 0.8698 0.69464 0.59169 0.0
O342 O 0.86862 0.75926 0.43907 0.0
O343 O 0.88719 0.73082 0.41228 0.0
O344 O 0.81962 0.69268 0.44896 0.0
O345 O 0.83978 0.6689 0.40467 0.0
O346 O 0.91151 0.6891 0.35681 0.0
O347 O 0.90635 0.64042 0.41933 0.0
O348 O 0.91869 0.64278 0.53022 0.0
O349 O 0.87183 0.65264 0.51531 0.0
O350 O 0.9356 0.69838 0.48051 0.0
O351 O 0.91509 0.69944 0.55293 0.0
H352 H 0.80535 0.68768 0.65295 0.0
H353 H 0.79387 0.7123 0.71258 0.0
H354 H 0.85599 0.78535 0.6446 0.0
H355 H 0.8674 0.76066 0.58403 0.0
H356 H 0.97066 0.69277 0.38815 0.0
H357 H 1.02341 0.67739 0.39822 0.0
H358 H 0.99322 0.58911 0.39851 0.0
H359 H 0.94052 0.60437 0.38819 0.0
Nd360 Nd 0.12128 0.13922 0.8528 0.0
Nd361 Nd 0.13367 0.09938 0.80496 0.0
C362 C 0.09046 0.18067 0.86429 0.0
C363 C 0.0846 0.21337 0.85275 0.0
C364 C 0.08301 0.2389 0.79518 0.0
C365 C 0.06988 0.26839 0.77965 0.0
C366 C 0.05649 0.27279 0.8202 0.0
C367 C 0.06009 0.24722 0.87937 0.0
C368 C 0.07449 0.21824 0.89571 0.0
C369 C 0.18652 0.13219 0.89097 0.0
C370 C 0.1537 0.17507 0.73987 0.0
C371 C 0.14965 0.05468 0.77805 0.0
C372 C 0.15708 0.03028 0.75929 0.0
C373 C 0.18024 1.00607 0.79611 0.0
C374 C 0.18578 0.98265 0.77899 0.0
C375 C 0.16693 0.98073 0.72624 0.0
C376 C 0.14644 1.00767 0.68631 0.0
C377 C 0.14104 0.0312 0.70301 0.0
C378 C 0.08111 0.13663 0.72973 0.0
C379 C 0.09372 0.06924 0.92003 0.0
O380 O 0.08426 0.1754 0.81656 0.0
O381 O 0.11366 0.16289 0.90795 0.0
O382 O 0.16868 0.14543 0.9071 0.0
O383 O 0.16971 0.11954 0.85885 0.0
O384 O 0.13576 0.17887 0.77007 0.0
O385 O 0.15952 0.1453 0.7509 0.0
O386 O 0.16096 0.05411 0.83159 0.0
O387 O 0.13072 0.07902 0.74019 0.0
O388 O 0.10354 0.13189 0.71117 0.0
O389 O 0.08761 0.12217 0.78841 0.0
O390 O 0.10406 0.0651 0.87828 0.0
O391 O 0.10134 0.09577 0.92394 0.0
H392 H 0.09078 0.23576 0.76112 0.0
H393 H 0.07065 0.28691 0.73576 0.0
H394 H 1.05035 0.24884 0.91274 0.0
H395 H 0.0755 0.19885 0.94053 0.0
H396 H 0.19453 1.00539 0.83813 0.0
H397 H 0.20568 0.96697 0.80746 0.0
H398 H 0.13423 1.01112 0.64106 0.0
H399 H 0.12406 0.05028 0.6713 0.0
Nd400 Nd 0.67146 0.33153 0.1204 0.0
Nd401 Nd 0.70696 0.37073 0.04199 0.0
C402 C 0.63222 0.29199 0.17554 0.0
C403 C 0.60586 0.27485 0.15972 0.0
C404 C 0.59575 0.27753 0.10048 0.0
C405 C 0.57019 0.26175 0.08537 0.0
C406 C 0.5546 0.2428 0.12961 0.0
C407 C 0.56517 0.23958 0.1893 0.0
C408 C 0.59059 0.25562 0.20417 0.0
C409 C 0.68612 0.38468 0.14147 0.0
C410 C 0.63533 0.37522 0.97448 0.0
C411 C 0.74901 0.40814 0.99449 0.0
C412 C 0.77656 0.40319 0.97753 0.0
C413 C 0.80486 0.41394 0.99798 0.0
C414 C 0.83001 0.41302 0.97581 0.0
C415 C 0.827 0.40154 0.93256 0.0
C416 C 0.79953 0.38855 0.91581 0.0
C417 C 0.77455 0.38922 0.93824 0.0
C418 C 0.69454 0.31803 0.02245 0.0
C419 C 0.74462 0.31328 0.17556 0.0
O420 O 0.65874 0.28287 0.17526 0.0
O421 O 0.62826 0.32278 0.15042 0.0
O422 O 0.68709 0.35563 0.18281 0.0
O423 O 0.67815 0.38505 0.08917 0.0
O424 O 0.63514 0.34977 0.02616 0.0
O425 O 0.66041 0.39129 0.97107 0.0
O426 O 0.75014 0.39564 0.05266 0.0
O427 O 0.72254 0.40534 0.96189 0.0
O428 O 0.69649 0.34618 0.98047 0.0
O429 O 0.70078 0.31793 0.07416 0.0
O430 O 0.74629 0.33771 0.12354 0.0
O431 O 0.71758 0.30566 0.18718 0.0
H432 H 0.60749 0.29206 0.06598 0.0
H433 H 0.56223 0.26474 0.03898 0.0
H434 H 0.55326 0.22529 0.22387 0.0
H435 H 0.59814 0.25325 0.25017 0.0
H436 H 0.80712 0.42431 0.02898 0.0
H437 H 0.85112 0.42309 0.98929 0.0
H438 H 0.79686 0.37951 0.88261 0.0
H439 H 0.75328 0.38005 0.92263 0.0
Nd440 Nd 0.46445 0.93819 0.2571 0.0
Nd441 Nd 0.41451 0.9267 0.15883 0.0
C442 C 0.49452 0.9418 0.35483 0.0
C443 C 0.49611 0.96953 0.36532 0.0
C444 C 0.47856 0.97198 0.40147 0.0
C445 C 0.48532 0.99436 0.42303 0.0
C446 C 0.5101 1.01314 0.40952 0.0
C447 C 0.52301 1.01539 0.3635 0.0
C448 C 0.5162 0.99322 0.34158 0.0
C449 C 0.48482 0.94855 0.15665 0.0
C450 C 0.41954 0.99844 0.15236 0.0
C451 C 0.38511 0.91624 0.06574 0.0
C452 C 0.38958 0.89345 0.04341 0.0
C453 C 0.41913 0.88312 0.04883 0.0
C454 C 0.42307 0.85839 0.03504 0.0
C455 C 0.3975 0.84377 0.01537 0.0
C456 C 0.36796 0.85459 0.00859 0.0
C457 C 0.36405 0.87917 0.02276 0.0
C458 C 0.39147 0.91838 0.25725 0.0
C459 C 0.46612 0.86874 0.26055 0.0
O460 O 0.46783 0.92925 0.35148 0.0
O461 O 0.50803 0.94367 0.31375 0.0
O462 O 0.48974 0.96691 0.18336 0.0
O463 O 0.46698 0.92743 0.1805 0.0
O464 O 0.43834 0.98635 0.2074 0.0
O465 O 0.40995 0.98158 0.12172 0.0
O466 O 0.40481 0.93848 0.06058 0.0
O467 O 0.37821 0.90347 0.11848 0.0
O468 O 0.37543 0.91425 0.21124 0.0
O469 O 0.41689 0.92669 0.24646 0.0
O470 O 0.44358 0.87909 0.20982 0.0
O471 O 0.47464 0.88532 0.29132 0.0
H472 H 0.46203 0.95472 0.41807 0.0
H473 H 0.47493 0.99329 0.45789 0.0
H474 H 0.54182 0.03054 0.35227 0.0
H475 H 0.52898 0.9928 0.31117 0.0
H476 H 0.43913 0.89372 0.06487 0.0
H477 H 0.44603 0.85038 0.04041 0.0
H478 H 0.34799 0.84359 0.99346 0.0
H479 H 0.34111 0.8865 0.01908 0.0
Nd480 Nd 0.21608 0.36788 0.57476 0.0
Nd481 Nd 0.23354 0.34626 0.50618 0.0
C482 C 0.18652 0.38641 0.63328 0.0
C483 C 0.15453 0.39848 0.61925 0.0
C484 C 0.12934 0.38031 0.61201 0.0
C485 C 0.09948 0.39156 0.60168 0.0
C486 C 0.09448 0.42064 0.60118 0.0
C487 C 0.11931 0.43984 0.60393 0.0
C488 C 0.14905 0.42889 0.61268 0.0
C489 C 0.22121 0.41943 0.4682 0.0
C490 C 0.16219 0.35233 0.4731 0.0
C491 C 0.26232 0.33832 0.43533 0.0
C492 C 0.26665 0.32669 0.39339 0.0
C493 C 0.29004 0.33924 0.36363 0.0
C494 C 0.29667 0.32766 0.32621 0.0
C495 C 0.27974 0.30356 0.31766 0.0
C496 C 0.25556 0.29159 0.34582 0.0
C497 C 0.24905 0.3031 0.38387 0.0
C498 C 0.21246 0.29408 0.5957 0.0
C499 C 0.28904 0.37411 0.58255 0.0
O500 O 0.19159 0.35685 0.64756 0.0
O501 O 0.20279 0.40471 0.59719 0.0
O502 O 0.23584 0.41501 0.52228 0.0
O503 O 0.20834 0.39422 0.47166 0.0
O504 O 0.16869 0.35832 0.52101 0.0
O505 O 0.18466 0.34945 0.45171 0.0
O506 O 0.2418 0.36138 0.41505 0.0
O507 O 0.266 0.31843 0.49307 0.0
O508 O 0.20901 0.29985 0.53948 0.0
O509 O 0.22923 0.31515 0.6066 0.0
O510 O 0.27992 0.36574 0.53838 0.0
O511 O 0.26882 0.37196 0.61383 0.0
H512 H 0.13284 0.35666 0.61815 0.0
H513 H 0.08079 0.37605 0.60101 0.0
H514 H 0.11605 0.46213 0.60445 0.0
H515 H 0.16798 0.44362 0.61712 0.0
H516 H 0.30368 0.35759 0.37048 0.0
H517 H 0.31539 0.33704 0.30481 0.0
H518 H 0.2424 0.27287 0.33958 0.0
H519 H 0.23084 0.29332 0.40654 0.0
Nd520 Nd 0.96666 0.95427 0.19542 0.0
Nd521 Nd 0.98164 0.91032 0.15102 0.0
C522 C 0.93856 0.99622 0.21344 0.0
C523 C 0.93918 1.0222 0.23281 0.0
C524 C 0.91704 0.04756 0.1997 0.0
C525 C 0.91462 0.07051 0.21971 0.0
C526 C 0.93553 0.07079 0.2721 0.0
C527 C 0.9557 0.04313 0.30815 0.0
C528 C 0.958 1.01994 0.28835 0.0
C529 C 1.02397 0.92716 0.27159 0.0
C530 C 1.00778 0.98246 0.0828 0.0
C531 C 1.01382 0.86977 0.1405 0.0
C532 C 1.02177 0.8364 0.1602 0.0
C533 C 1.04765 0.82181 0.20892 0.0
C534 C 0.06079 0.79368 0.21917 0.0
C535 C 1.04818 0.77939 0.18143 0.0
C536 C 1.02048 0.79195 0.13667 0.0
C537 C 1.00752 0.82076 0.12538 0.0
C538 C 0.91704 0.91909 0.10865 0.0
C539 C 0.94779 0.87637 0.26214 0.0
O540 O 0.94307 1.00221 0.16032 0.0
O541 O 0.94844 0.96752 0.25522 0.0
O542 O 1.0084 0.94804 0.27449 0.0
O543 O 1.00879 0.92109 0.2283 0.0
O544 O 0.99518 0.98831 0.12018 0.0
O545 O 1.00263 0.95457 0.08295 0.0
O546 O 1.02288 0.87995 0.18171 0.0
O547 O 0.98748 0.8829 0.10205 0.0
O548 O 0.93491 0.904 0.09613 0.0
O549 O 0.93416 0.93202 0.14012 0.0
O550 O 0.96494 0.87129 0.23179 0.0
O551 O 0.94395 0.90628 0.25301 0.0
H552 H 0.90051 0.04902 0.15904 0.0
H553 H 0.8951 0.08721 0.19425 0.0
H554 H 0.96915 0.03793 0.35352 0.0
H555 H 0.97397 0.99962 0.3178 0.0
H556 H 0.05914 0.83314 0.23675 0.0
H557 H 0.08183 0.78387 0.25477 0.0
H558 H 1.01016 0.78062 0.10818 0.0
H559 H 0.98749 0.83153 0.08762 0.0
Nd560 Nd 0.3967 0.68167 0.95594 0.0
Nd561 Nd 0.43477 0.71743 0.88172 0.0
C562 C 0.36102 0.6423 0.0206 0.0
C563 C 0.33236 0.64654 0.03509 0.0
C564 C 0.30464 0.63584 0.01181 0.0
C565 C 0.27835 0.63661 0.03096 0.0
C566 C 0.27969 0.64771 0.07424 0.0
C567 C 0.30659 0.66061 0.0938 0.0
C568 C 0.33267 0.66013 0.07437 0.0
C569 C 0.40157 0.74092 0.95314 0.0
C570 C 0.36153 0.73753 0.8254 0.0
C571 C 0.4763 0.75277 0.82735 0.0
C572 C 0.5017 0.77089 0.84313 0.0
C573 C 0.50552 0.7758 0.89498 0.0
C574 C 0.53075 0.79144 0.91186 0.0
C575 C 0.55232 0.80252 0.87686 0.0
C576 C 0.548 0.79843 0.82396 0.0
C577 C 0.52286 0.78257 0.80734 0.0
C578 C 0.41578 0.66546 0.85781 0.0
C579 C 0.4686 0.6742 0.02938 0.0
O580 O 0.3592 0.64814 0.96427 0.0
O581 O 0.38583 0.65256 0.04457 0.0
O582 O 0.3765 0.72618 0.9512 0.0
O583 O 0.42347 0.72433 0.95705 0.0
O584 O 0.35927 0.70826 0.86586 0.0
O585 O 0.38912 0.74885 0.82586 0.0
O586 O 0.44879 0.76361 0.81865 0.0
O587 O 0.47985 0.72204 0.85962 0.0
O588 O 0.41559 0.69459 0.81761 0.0
O589 O 0.42439 0.66488 0.91011 0.0
O590 O 0.47195 0.6954 0.97521 0.0
O591 O 0.44119 0.66361 0.03429 0.0
H592 H 0.30365 0.62566 0.98087 0.0
H593 H 0.25774 0.6265 0.01552 0.0
H594 H 0.30796 0.66933 0.1271 0.0
H595 H 0.35339 0.66919 0.09236 0.0
H596 H 0.48927 0.76705 0.92288 0.0
H597 H 0.53385 0.79425 0.95296 0.0
H598 H 0.56459 0.80663 0.79675 0.0
H599 H 0.52022 0.77894 0.76723 0.0
Nd600 Nd 0.68842 0.12573 0.84044 0.0
Nd601 Nd 0.63816 0.11267 0.74449 0.0
C602 C 0.71868 0.13639 0.93248 0.0
C603 C 0.71505 0.15747 0.95894 0.0
C604 C 0.68645 0.16368 0.96496 0.0
C605 C 0.6829 0.18739 0.98172 0.0
C606 C 0.70776 0.20545 0.99163 0.0
C607 C 0.73647 0.19854 0.9872 0.0
C608 C 0.7401 0.17465 0.9713 0.0
C609 C 0.71052 0.13437 0.7421 0.0
C610 C 0.63497 0.18275 0.73597 0.0
C611 C 0.61172 0.10907 0.64513 0.0
C612 C 0.60841 0.08109 0.63561 0.0
C613 C 0.6231 0.0788 0.59527 0.0
C614 C 0.61452 0.05615 0.57495 0.0
C615 C 0.59076 0.03696 0.59402 0.0
C616 C 0.58089 0.03474 0.64346 0.0
C617 C 0.58973 0.05709 0.66444 0.0
C618 C 0.6182 0.1052 0.84398 0.0
C619 C 0.68464 0.05277 0.84752 0.0
O620 O 0.70021 0.11296 0.93932 0.0
O621 O 0.72328 0.15112 0.87765 0.0
O622 O 0.72709 0.13864 0.78743 0.0
O623 O 0.68501 0.12648 0.75248 0.0
O624 O 0.65535 0.17118 0.79024 0.0
O625 O 0.62803 0.16564 0.70616 0.0
O626 O 0.63997 0.11751 0.65534 0.0
O627 O 0.59582 0.11079 0.68018 0.0
O628 O 0.61171 0.0865 0.81787 0.0
O629 O 0.63645 0.12517 0.81909 0.0
O630 O 0.66148 0.06345 0.79853 0.0
O631 O 0.69724 0.07135 0.87317 0.0
H632 H 0.66666 0.15112 0.9545 0.0
H633 H 0.66049 0.19264 0.98426 0.0
H634 H 0.7558 0.21247 0.99383 0.0
H635 H 0.76221 0.17053 0.96595 0.0
H636 H 0.63878 0.09629 0.57506 0.0
H637 H 0.6226 0.05716 0.53748 0.0
H638 H 0.5629 1.01927 0.6589 0.0
H639 H 0.57949 0.05741 0.69837 0.0
C640 C 0.49838 0.19212 0.07361 0.0
C641 C 0.4699 0.20367 0.07294 0.0
C642 C 0.49744 0.24102 0.10872 0.0
C643 C 0.52573 0.22843 0.11212 0.0
N644 N 0.55405 0.18821 0.10924 0.0
N645 N 0.44381 0.23502 0.10393 0.0
C646 C 0.52646 0.20286 0.09781 0.0
C647 C 0.46994 0.22632 0.0959 0.0
N648 N 0.49866 0.17081 0.05126 0.0
N649 N 0.49641 0.26861 0.11333 0.0
H650 H 0.42188 0.22907 0.08899 0.0
H651 H 0.44416 0.24723 0.12944 0.0
H652 H 0.51583 0.28068 0.12157 0.0
H653 H 0.47607 0.28138 0.10275 0.0
H654 H 0.51802 0.16482 0.04257 0.0
H655 H 0.47913 0.1599 0.03915 0.0
H656 H 0.55624 0.16741 0.10587 0.0
H657 H 0.57491 0.19542 0.12714 0.0
C658 C 0.52764 0.82171 0.24972 0.0
C659 C 0.53523 0.79676 0.30958 0.0
C660 C 0.49763 0.81872 0.33786 0.0
C661 C 0.48792 0.84229 0.27601 0.0
N662 N 0.49288 0.86498 0.17137 0.0
N663 N 0.53233 0.77344 0.41403 0.0
C664 C 0.50268 0.84348 0.23146 0.0
C665 C 0.52185 0.79602 0.35492 0.0
N666 N 0.54537 0.8251 0.21102 0.0
N667 N 0.48238 0.81712 0.37922 0.0
H668 H 0.54958 0.75628 0.42744 0.0
H669 H 0.52545 0.7723 0.45094 0.0
H670 H 0.46326 0.83195 0.36728 0.0
H671 H 0.48713 0.80023 0.42466 0.0
H672 H 0.54352 0.84457 0.16862 0.0
H673 H 0.56435 0.80983 0.22418 0.0
H674 H 0.49916 0.86331 0.13614 0.0
H675 H 0.47753 0.88407 0.15496 0.0
C676 C 1.01979 0.70285 0.62504 0.0
C677 C 1.02233 0.73596 0.60507 0.0
C678 C 0.96905 0.74565 0.54394 0.0
C679 C 0.96763 0.71314 0.55716 0.0
N680 N 0.9915 0.66041 0.60992 0.0
N681 N 1.00035 0.78941 0.5418 0.0
C682 C 0.99299 0.69157 0.59778 0.0
C683 C 0.99725 0.75747 0.56334 0.0
N684 N 1.04282 0.68226 0.67051 0.0
N685 N 0.94303 0.76512 0.51532 0.0
H686 H 1.0195 0.79928 0.55863 0.0
H687 H 0.98466 0.80624 0.50448 0.0
H688 H 0.92169 0.75728 0.50245 0.0
H689 H 0.94185 0.78811 0.51021 0.0
H690 H 1.04117 0.65784 0.69215 0.0
H691 H 0.06309 0.68979 0.68975 0.0
H692 H 1.01003 0.64389 0.63434 0.0
H693 H 0.97187 0.65132 0.59256 0.0
C694 C 1.00804 0.32543 0.84503 0.0
C695 C 0.98381 0.33608 0.79083 0.0
C696 C 1.0117 0.313 0.74828 0.0
C697 C 1.03617 0.30159 0.80228 0.0
N698 N 0.06168 0.30777 0.89169 0.0
N699 N 0.95714 0.32416 0.70894 0.0
C700 C 1.03536 0.31078 0.84807 0.0
C701 C 0.9838 0.32451 0.7486 0.0
N702 N 1.00407 0.32714 0.89505 0.0
N703 N 1.01624 0.3185 0.69354 0.0
H704 H 0.93592 0.33017 0.71148 0.0
H705 H 0.9561 0.31374 0.68008 0.0
H706 H 1.03789 0.32235 0.68558 0.0
H707 H 0.99878 0.32765 0.6532 0.0
H708 H 1.02009 0.31767 0.9373 0.0
H709 H 0.9829 0.33391 0.89647 0.0
H710 H 0.06364 0.31691 0.92275 0.0
H711 H 0.08244 0.29932 0.89171 0.0
C712 C 0.60751 0.86056 0.91074 0.0
C713 C 0.63433 0.8403 0.94596 0.0
C714 C 0.60786 0.796 0.93218 0.0
C715 C 0.58078 0.81599 0.89875 0.0
N716 N 0.55526 0.86784 0.84719 0.0
N717 N 0.66065 0.78886 0.99134 0.0
C718 C 0.58071 0.84848 0.88557 0.0
C719 C 0.63474 0.80813 0.95637 0.0
N720 N 0.60772 0.89119 0.90224 0.0
N721 N 0.60797 0.76558 0.9393 0.0
H722 H 0.68142 0.79714 0.00603 0.0
H723 H 0.66176 0.76439 0.00804 0.0
H724 H 0.58839 0.75526 0.92517 0.0
H725 H 0.62752 0.75064 0.95644 0.0
H726 H 0.5885 0.90682 0.8816 0.0
H727 H 0.62729 0.90088 0.91822 0.0
H728 H 0.55408 0.89228 0.83093 0.0
H729 H 0.53539 0.85961 0.82834 0.0
C730 C 0.59041 0.23987 0.75745 0.0
C731 C 0.56236 0.24461 0.71294 0.0
C732 C 0.58452 0.21518 0.67269 0.0
C733 C 0.61258 0.2096 0.71844 0.0
N734 N 0.64504 0.22975 0.78318 0.0
N735 N 0.52999 0.22981 0.63971 0.0
C736 C 0.61627 0.22524 0.75561 0.0
C737 C 0.55859 0.22974 0.67458 0.0
N738 N 0.59251 0.24891 0.80224 0.0
N739 N 0.5836 0.21029 0.62324 0.0
H740 H 0.51076 0.24019 0.64127 0.0
H741 H 0.52495 0.21678 0.61497 0.0
H742 H 0.60342 0.20583 0.61375 0.0
H743 H 0.56432 0.21582 0.58669 0.0
H744 H 0.61141 0.24246 0.83987 0.0
H745 H 0.57431 0.25974 0.80563 0.0
H746 H 0.64895 0.245 0.80308 0.0
H747 H 0.66475 0.22315 0.77633 0.0
C748 C 0.09385 0.34239 0.35763 0.0
C749 C 0.08085 0.31606 0.39838 0.0
C750 C 0.11328 0.32298 0.48452 0.0
C751 C 0.13043 0.34533 0.44599 0.0
N752 N 0.13539 0.3783 0.34359 0.0
N753 N 0.08305 0.27716 0.50187 0.0
C754 C 0.12018 0.35559 0.38169 0.0
C755 C 0.09203 0.30516 0.46213 0.0
N756 N 0.08045 0.35538 0.29628 0.0
N757 N 0.1157 0.3197 0.54154 0.0
H758 H 0.06808 0.2628 0.48757 0.0
H759 H 0.09307 0.26667 0.54878 0.0
H760 H 0.12815 0.33459 0.5575 0.0
H761 H 0.10132 0.30591 0.56856 0.0
H762 H 0.08682 0.37643 0.26441 0.0
H763 H 0.0613 0.34627 0.27742 0.0
H764 H 0.13204 0.38378 0.29777 0.0
H765 H 0.15193 0.39137 0.35847 0.0
C766 C 0.09766 0.70501 0.26613 0.0
C767 C 0.11422 0.7078 0.22316 0.0
C768 C 0.08276 0.75598 0.14643 0.0
C769 C 0.0658 0.75215 0.18894 0.0
N770 N 1.05085 0.71881 0.28106 0.0
N771 N 0.11838 0.73246 0.11876 0.0
C772 C 0.07127 0.72518 0.24611 0.0
C773 C 0.10527 0.73208 0.16199 0.0
N774 N 0.10694 0.68349 0.32626 0.0
N775 N 0.07871 0.78321 0.09273 0.0
H776 H 0.13697 0.71732 0.12919 0.0
H777 H 0.10974 0.74671 0.07211 0.0
H778 H 0.0623 0.80122 0.07899 0.0
H779 H 0.09295 0.78894 0.06333 0.0
H780 H 0.09817 0.68386 0.36013 0.0
H781 H 0.12468 0.66645 0.34415 0.0
H782 H 1.05198 0.69796 0.32104 0.0
H783 H 1.03089 0.73303 0.26656 0.0
C784 C 0.23813 0.14646 0.85556 0.0
C785 C 0.22188 0.13729 0.902 0.0
C786 C 0.27121 0.14422 0.96658 0.0
C787 C 0.28432 0.16143 0.91536 0.0
N788 N 0.27515 0.18112 0.80603 0.0
N789 N 0.22582 0.12812 0.00525 0.0
C790 C 0.26633 0.1631 0.85844 0.0
C791 C 0.23921 0.13698 0.95801 0.0
N792 N 0.22816 0.13747 0.81043 0.0
N793 N 0.28985 0.1316 0.02452 0.0
H794 H 0.20461 0.11803 0.00551 0.0
H795 H 0.23566 0.13174 0.04349 0.0
H796 H 0.31364 0.1306 0.03338 0.0
H797 H 0.28211 0.11731 0.06317 0.0
H798 H 0.24062 0.14092 0.77884 0.0
H799 H 0.21072 0.12188 0.81157 0.0
H800 H 0.26151 0.18498 0.7632 0.0
H801 H 0.2942 0.19478 0.80444 0.0
C802 C 0.69775 0.40753 0.21792 0.0
C803 C 0.68416 0.41235 0.15676 0.0
C804 C 0.66628 0.46605 0.1348 0.0
C805 C 0.67452 0.45824 0.19819 0.0
N806 N 0.69244 0.41697 0.30126 0.0
N807 N 0.65079 0.44731 0.05809 0.0
C808 C 0.68866 0.42767 0.24003 0.0
C809 C 0.66719 0.44196 0.11533 0.0
N810 N 0.72055 0.38446 0.25486 0.0
N811 N 0.65869 0.49687 0.09246 0.0
H812 H 0.65023 0.43152 0.04003 0.0
H813 H 0.63533 0.4668 0.02985 0.0
H814 H 0.65896 0.51527 0.10437 0.0
H815 H 0.6556 0.50456 0.0458 0.0
H816 H 0.73263 0.38158 0.29809 0.0
H817 H 0.73026 0.37129 0.23929 0.0
H818 H 0.69997 0.39372 0.33307 0.0
H819 H 0.68481 0.43005 0.31946 0.0
C820 C 0.38824 0.92763 0.34736 0.0
C821 C 0.38327 0.90823 0.31671 0.0
C822 C 0.3567 0.87176 0.39303 0.0
C823 C 0.35491 0.89553 0.41159 0.0
N824 N 0.39218 0.92663 0.44461 0.0
N825 N 0.36993 0.85704 0.32148 0.0
C826 C 0.37725 0.91839 0.40011 0.0
C827 C 0.36992 0.87857 0.3434 0.0
N828 N 0.40286 0.95508 0.32632 0.0
N829 N 0.34837 0.84205 0.42688 0.0
H830 H 0.38274 0.85939 0.29103 0.0
H831 H 0.35724 0.83693 0.33323 0.0
H832 H 0.34147 0.83649 0.46659 0.0
H833 H 0.35108 0.82256 0.41966 0.0
H834 H 0.4038 0.97137 0.34375 0.0
H835 H 0.4127 0.96213 0.28996 0.0
H836 H 0.4102 0.94179 0.44001 0.0
H837 H 0.39028 0.91361 0.48943 0.0
C838 C 0.9146 0.58168 0.64452 0.0
C839 C 0.89353 0.59836 0.58696 0.0
C840 C 0.8918 0.55051 0.57205 0.0
C841 C 0.91046 0.53244 0.63244 0.0
N842 N 0.92759 0.53112 0.7332 0.0
N843 N 0.85268 0.59291 0.51007 0.0
C844 C 0.91842 0.548 0.67107 0.0
C845 C 0.87883 0.58084 0.55567 0.0
N846 N 0.93105 0.5978 0.67429 0.0
N847 N 0.88797 0.54051 0.52816 0.0
H848 H 0.84105 0.61343 0.5009 0.0
H849 H 0.84031 0.57995 0.48857 0.0
H850 H 0.9006 0.52148 0.53341 0.0
H851 H 0.87583 0.55428 0.48305 0.0
H852 H 0.94922 0.58703 0.713 0.0
H853 H 0.92758 0.62217 0.65807 0.0
H854 H 0.93229 0.54188 0.76213 0.0
H855 H 0.92556 0.50685 0.75639 0.0
C856 C 0.83338 0.89875 0.13203 0.0
C857 C 0.82027 0.88813 0.08657 0.0
C858 C 0.86739 0.90678 0.04681 0.0
C859 C 0.88166 0.91423 0.09591 0.0
N860 N 0.8709 0.93082 0.16579 0.0
N861 N 0.82391 0.88918 0.99227 0.0
C862 C 0.86246 0.91422 0.1328 0.0
C863 C 0.83724 0.89412 0.04196 0.0
N864 N 0.81893 0.89284 0.17678 0.0
N865 N 0.88132 0.91547 1.00014 0.0
H866 H 0.80024 0.891 0.97447 0.0
H867 H 0.83615 0.88453 0.96722 0.0
H868 H 0.9005 0.92908 0.99702 0.0
H869 H 0.87256 0.91256 0.96096 0.0
H870 H 0.82743 0.89861 0.21257 0.0
H871 H 0.79963 0.87961 0.18167 0.0
H872 H 0.85661 0.93537 0.18768 0.0
H873 H 0.89064 0.94348 0.16489 0.0
C874 C 0.4319 0.60693 0.88519 0.0
C875 C 0.41797 0.63788 0.84194 0.0
C876 C 0.41814 0.62322 0.75933 0.0
C877 C 0.42935 0.59171 0.80204 0.0
N878 N 0.43852 0.5519 0.9068 0.0
N879 N 0.38722 0.66841 0.73856 0.0
C880 C 0.43387 0.58315 0.86528 0.0
C881 C 0.40795 0.64385 0.77931 0.0
N882 N 0.4439 0.59963 0.9453 0.0
N883 N 0.41809 0.63425 0.69943 0.0
H884 H 0.37628 0.68188 0.75171 0.0
H885 H 0.37761 0.6723 0.69367 0.0
H886 H 0.42652 0.62066 0.68312 0.0
H887 H 0.41291 0.65796 0.66768 0.0
H888 H 0.45824 0.57949 0.97555 0.0
H889 H 0.44113 0.6138 0.96523 0.0
H890 H 0.43861 0.54374 0.95248 0.0
H891 H 0.43881 0.53378 0.89433 0.0
C892 C 0.7412 0.10854 0.70506 0.0
C893 C 0.72172 0.13434 0.69202 0.0
C894 C 0.7338 0.16498 0.59286 0.0
C895 C 0.75561 0.14041 0.60885 0.0
N896 N 0.77493 0.0861 0.6713 0.0
N897 N 0.69293 0.18319 0.61891 0.0
C898 C 0.75737 0.11116 0.66194 0.0
C899 C 0.71571 0.16127 0.634 0.0
N900 N 0.745 0.08202 0.75989 0.0
N901 N 0.73131 0.19207 0.5394 0.0
H902 H 0.67956 0.18079 0.64851 0.0
H903 H 0.68578 0.2025 0.57616 0.0
H904 H 0.74341 0.19455 0.50774 0.0
H905 H 0.71794 0.21224 0.52663 0.0
H906 H 0.76109 0.06345 0.7759 0.0
H907 H 0.73238 0.07886 0.79103 0.0
H908 H 0.77537 0.06325 0.70599 0.0
H909 H 0.78781 0.08742 0.64167 0.0
C910 C 0.18431 0.46381 0.4421 0.0
C911 C 0.20654 0.45189 0.42551 0.0
C912 C 0.20978 0.50589 0.34674 0.0
C913 C 0.19337 0.51833 0.37361 0.0
N914 N 0.1642 0.50822 0.44741 0.0
N915 N 0.23953 0.46125 0.35946 0.0
C916 C 0.18047 0.49699 0.42159 0.0
C917 C 0.21887 0.47286 0.3767 0.0
N918 N 0.16566 0.44342 0.47491 0.0
N919 N 0.21598 0.52525 0.29196 0.0
H920 H 0.24481 0.43701 0.37791 0.0
H921 H 0.25216 0.47559 0.32899 0.0
H922 H 0.20968 0.54935 0.26824 0.0
H923 H 0.22493 0.51694 0.26731 0.0
H924 H 0.14678 0.45089 0.48275 0.0
H925 H 0.16683 0.41927 0.48761 0.0
H926 H 0.1575 0.49365 0.48721 0.0
H927 H 0.15896 0.53222 0.43153 0.0
C928 C 0.73935 0.6355 0.45653 0.0
C929 C 0.72262 0.63503 0.40083 0.0
C930 C 0.76782 0.65847 0.3581 0.0
C931 C 0.78431 0.65969 0.41306 0.0
N932 N 0.78762 0.64168 0.52009 0.0
N933 N 0.7285 0.6337 0.31024 0.0
C934 C 0.77041 0.64608 0.46371 0.0
C935 C 0.73906 0.64292 0.35501 0.0
N936 N 0.72594 0.62398 0.50433 0.0
N937 N 0.77879 0.67337 0.30735 0.0
H938 H 0.71044 0.61884 0.31111 0.0
H939 H 0.74057 0.63631 0.27856 0.0
H940 H 0.7992 0.68502 0.30733 0.0
H941 H 0.76624 0.67664 0.26416 0.0
H942 H 0.73417 0.6264 0.54416 0.0
H943 H 0.70603 0.61149 0.50433 0.0
H944 H 0.7799 0.63223 0.55954 0.0
H945 H 0.81107 0.64491 0.52949 0.0
C946 C 0.19388 0.929 0.74108 0.0
C947 C 0.16979 0.95323 0.70913 0.0
C948 C 0.15425 0.93148 0.63323 0.0
C949 C 0.18193 0.91178 0.65923 0.0
N950 N 0.23061 0.89676 0.73453 0.0
N951 N 0.11727 0.95817 0.65197 0.0
C952 C 0.20249 0.91239 0.71168 0.0
C953 C 0.1472 0.94965 0.66167 0.0
N954 N 0.20393 0.91652 0.80302 0.0
N955 N 0.13394 0.93269 0.58206 0.0
H956 H 0.1102 0.96496 0.6808 0.0
H957 H 0.09904 0.95357 0.62273 0.0
H958 H 0.13575 0.9179 0.56281 0.0
H959 H 0.11604 0.94998 0.55644 0.0
H960 H 0.22004 0.89743 0.8291 0.0
H961 H 0.19142 0.92059 0.82848 0.0
H962 H 0.24721 0.89845 0.76998 0.0
H963 H 0.23828 0.88513 0.71374 0.0
C964 C 0.8713 0.38323 0.91025 0.0
C965 C 0.85012 0.40777 0.89664 0.0
C966 C 0.86647 0.44163 0.80371 0.0
C967 C 0.88261 0.41511 0.81008 0.0
N968 N 0.90357 0.3609 0.87375 0.0
N969 N 0.82794 0.46099 0.83215 0.0
C970 C 0.88661 0.38612 0.86532 0.0
C971 C 0.84821 0.43733 0.84438 0.0
N972 N 0.87648 0.35724 0.96608 0.0
N973 N 0.86957 0.47126 0.76007 0.0
H974 H 0.81499 0.45947 0.86182 0.0
H975 H 0.82252 0.48154 0.7909 0.0
H976 H 0.88391 0.47553 0.73145 0.0
H977 H 0.86095 0.49198 0.75673 0.0
H978 H 0.89344 0.33945 0.98209 0.0
H979 H 0.8652 0.35474 0.99893 0.0
H980 H 0.90513 0.33843 0.91019 0.0
H981 H 0.91529 0.3615 0.84307 0.0
C982 C 0.42665 0.05451 0.08009 0.0
C983 C 0.41105 0.0331 0.12306 0.0
C984 C 0.3833 0.07832 0.1164 0.0
C985 C 0.39742 0.09929 0.07045 0.0
N986 N 0.4397 0.10868 0.02442 0.0
N987 N 0.37722 1.02396 0.18807 0.0
C988 C 0.42131 0.08772 0.05718 0.0
C989 C 0.39039 0.04489 0.14354 0.0
N990 N 0.44612 0.04311 0.05995 0.0
N991 N 0.36296 0.09063 0.1332 0.0
H992 H 0.37952 0.99955 0.20398 0.0
H993 H 0.3641 0.03036 0.20954 0.0
H994 H 0.35946 0.11501 0.11678 0.0
H995 H 0.34989 0.07726 0.16339 0.0
H996 H 0.45531 0.05733 0.02334 0.0
H997 H 0.45156 1.01903 0.07707 0.0
H998 H 0.4599 0.10193 0.01961 0.0
H999 H 0.43652 0.13308 0.00761 0.0
C1000 C 0.33306 0.40622 0.53705 0.0
C1001 C 0.32063 0.38964 0.58921 0.0
C1002 C 0.36637 0.40652 0.64604 0.0
C1003 C 0.38214 0.41528 0.59899 0.0
N1004 N 0.37779 0.42315 0.4964 0.0
N1005 N 0.32998 0.37181 0.69788 0.0
C1006 C 0.36472 0.41455 0.54399 0.0
C1007 C 0.33855 0.3893 0.64494 0.0
N1008 N 0.31403 0.41696 0.47961 0.0
N1009 N 0.37685 0.41586 0.69062 0.0
H1010 H 0.31116 0.35778 0.70035 0.0
H1011 H 0.34368 0.36846 0.74038 0.0
H1012 H 0.39359 0.43232 0.68734 0.0
H1013 H 0.36556 0.41163 0.7243 0.0
H1014 H 0.32114 0.4312 0.44015 0.0
H1015 H 0.29028 0.41607 0.47136 0.0
H1016 H 0.36802 0.41878 0.45902 0.0
H1017 H 0.3987 0.43382 0.49504 0.0
C1018 C 0.9028 0.14168 0.28259 0.0
C1019 C 0.91941 0.1383 0.34124 0.0
C1020 C 0.95284 0.09699 0.34669 0.0
C1021 C 0.93363 0.09745 0.29186 0.0
N1022 N 0.90725 0.13817 0.19336 0.0
N1023 N 0.95683 0.10561 0.4351 0.0
C1024 C 0.91284 0.12463 0.25541 0.0
C1025 C 0.94327 0.11376 0.3752 0.0
N1026 N 0.87667 0.16088 0.25247 0.0
N1027 N 0.98271 0.08615 0.36512 0.0
H1028 H 0.94918 0.11471 0.45988 0.0
H1029 H 0.97282 0.08646 0.46217 0.0
H1030 H 0.99273 0.08138 0.33703 0.0
H1031 H 0.99858 0.08771 0.40151 0.0
H1032 H 0.86236 0.16207 0.21198 0.0
H1033 H 0.86756 0.17247 0.2717 0.0
H1034 H 0.89435 0.15948 0.1646 0.0
H1035 H 0.91992 0.1311 0.17186 0.0
C1036 C 0.21502 0.65923 0.13507 0.0
C1037 C 0.22374 0.63378 0.19498 0.0
C1038 C 0.26008 0.61222 0.16387 0.0
C1039 C 0.25583 0.6406 0.10861 0.0
N1040 N 0.22889 0.691 0.03907 0.0
N1041 N 0.25538 0.58645 0.26783 0.0
C1042 C 0.23279 0.66393 0.09294 0.0
C1043 C 0.24621 0.61016 0.20951 0.0
N1044 N 0.19023 0.67905 0.11911 0.0
N1045 N 0.27762 0.58727 0.17289 0.0
H1046 H 0.24479 0.58299 0.30213 0.0
H1047 H 0.2744 0.57098 0.2831 0.0
H1048 H 0.2887 0.58809 0.14096 0.0
H1049 H 0.27879 0.56478 0.20927 0.0
H1050 H 0.1811 0.69648 0.07485 0.0
H1051 H 0.17729 0.67641 0.14951 0.0
H1052 H 0.21492 0.71057 0.02747 0.0
H1053 H 0.24081 0.69425 0.00671 0.0
C1054 C 0.68952 1.0031 0.83368 0.0
C1055 C 0.69667 1.01869 0.87216 0.0
C1056 C 0.72654 0.96965 0.95147 0.0
C1057 C 0.71207 0.95236 0.91948 0.0
N1058 N 0.67605 0.95357 0.82999 0.0
N1059 N 0.71812 1.01127 0.97634 0.0
C1060 C 0.69233 0.96939 0.86055 0.0
C1061 C 0.71442 1.00062 0.9334 0.0
N1062 N 0.68188 1.02009 0.77149 0.0
N1063 N 0.75164 0.95665 0.99939 0.0
H1064 H 0.7066 0.03139 0.96933 0.0
H1065 H 0.72923 0.99744 0.0221 0.0
H1066 H 0.76254 0.93541 0.01023 0.0
H1067 H 0.76406 0.96925 0.02164 0.0
H1068 H 0.6777 1.00936 0.74254 0.0
H1069 H 0.68455 0.04436 0.74916 0.0
H1070 H 0.65881 0.96483 0.78977 0.0
H1071 H 0.67864 0.92905 0.84693 0.0
C1072 C 0.56936 0.12555 0.92711 0.0
C1073 C 0.54214 0.1386 0.87944 0.0
C1074 C 0.56578 0.13252 0.80819 0.0
C1075 C 0.5924 0.11722 0.85675 0.0
N1076 N 0.62076 0.10042 0.96105 0.0
N1077 N 0.51574 0.15973 0.77272 0.0
C1078 C 0.59464 0.11436 0.91583 0.0
C1079 C 0.54071 0.1434 0.81952 0.0
N1080 N 0.57098 0.12454 0.98248 0.0
N1081 N 0.56441 0.13661 0.7508 0.0
H1082 H 0.49644 0.16749 0.77886 0.0
H1083 H 0.51432 0.16752 0.7267 0.0
H1084 H 0.58365 0.13448 0.7377 0.0
H1085 H 0.54445 0.14199 0.71587 0.0
H1086 H 0.5904 0.11709 0.01891 0.0
H1087 H 0.55279 0.13259 0.99141 0.0
H1088 H 0.62398 0.09594 0.00623 0.0
H1089 H 0.63954 0.0925 0.95352 0.0
C1090 C 0.69496 0.70392 0.17299 0.0
C1091 C 0.6704 0.70422 0.19928 0.0
C1092 C 0.67946 0.76157 0.17068 0.0
C1093 C 0.70443 0.76169 0.14574 0.0
N1094 N 0.73522 0.73091 0.12278 0.0
N1095 N 0.63123 0.74012 0.18937 0.0
C1096 C 0.71195 0.73222 0.14701 0.0
C1097 C 0.66045 0.73496 0.18849 0.0
N1098 N 0.69992 0.67784 0.166 0.0
N1099 N 0.67427 0.78664 0.18042 0.0
H1100 H 0.61472 0.72343 0.19359 0.0
H1101 H 0.6218 0.76256 0.17582 0.0
H1102 H 0.68839 0.80559 0.17219 0.0
H1103 H 0.6585 0.78662 0.20407 0.0
H1104 H 0.71547 0.67611 0.14359 0.0
H1105 H 0.68595 0.65881 0.17579 0.0
H1106 H 0.74662 0.70996 0.1333 0.0
H1107 H 0.74372 0.75072 0.09228 0.0
C1108 C 0.06407 0.88048 0.34815 0.0
C1109 C 0.0553 0.9135 0.31597 0.0
C1110 C 0.0978 0.92217 0.39005 0.0
C1111 C 0.10779 0.8895 0.42102 0.0
N1112 N 0.10425 0.83929 0.41716 0.0
N1113 N 0.07186 0.966 0.29498 0.0
C1114 C 0.09197 0.86909 0.39657 0.0
C1115 C 0.07476 0.93428 0.33352 0.0
N1116 N 1.04555 0.85972 0.33384 0.0
N1117 N 0.10884 0.94178 0.41593 0.0
H1118 H 0.05636 0.97561 0.25207 0.0
H1119 H 0.08733 0.98198 0.30234 0.0
H1120 H 0.12417 0.93409 0.45867 0.0
H1121 H 0.09997 0.96491 0.39814 0.0
H1122 H 1.04847 0.83524 0.36023 0.0
H1123 H 1.0262 0.86714 0.29726 0.0
H1124 H 0.09551 0.82442 0.3974 0.0
H1125 H 0.12514 0.83057 0.44954 0.0
C1126 C 0.89654 0.25873 0.52916 0.0
C1127 C 0.90398 0.26475 0.47405 0.0
C1128 C 0.90998 0.32091 0.45015 0.0
C1129 C 0.90099 0.31511 0.50362 0.0
N1130 N 0.88308 0.27986 0.59164 0.0
N1131 N 0.92337 0.29956 0.38803 0.0
C1132 C 0.89366 0.28434 0.54263 0.0
C1133 C 0.91252 0.29528 0.43646 0.0
N1134 N 0.89404 0.22816 0.57031 0.0
N1135 N 0.91452 0.3513 0.41098 0.0
H1136 H 0.92503 0.28133 0.37665 0.0
H1137 H 0.93239 0.32032 0.36118 0.0
H1138 H 0.91321 0.37052 0.41996 0.0
H1139 H 0.91776 0.35814 0.36783 0.0
H1140 H 0.89128 0.22156 0.61373 0.0
H1141 H 0.89778 0.20871 0.56353 0.0
H1142 H 0.87348 0.25921 0.61733 0.0
H1143 H 0.88214 0.29761 0.60481 0.0
C1144 C 0.56042 0.90659 0.18259 0.0
C1145 C 0.56493 0.92076 0.12316 0.0
C1146 C 0.51508 0.95095 0.08322 0.0
C1147 C 0.5121 0.93892 0.1439 0.0
N1148 N 0.53503 0.90914 0.25244 0.0
N1149 N 0.54735 0.95574 0.01594 0.0
C1150 C 0.53556 0.9177 0.19372 0.0
C1151 C 0.54235 0.9427 0.07296 0.0
N1152 N 0.57989 0.88206 0.2288 0.0
N1153 N 0.49193 0.97036 0.03589 0.0
H1154 H 0.56651 0.94911 0.00743 0.0
H1155 H 0.5332 0.97344 0.97731 0.0
H1156 H 0.47226 0.97715 0.04262 0.0
H1157 H 0.49141 0.97894 0.99002 0.0
H1158 H 0.57553 0.86795 0.27122 0.0
H1159 H 0.59899 0.87355 0.22334 0.0
H1160 H 0.55343 0.89773 0.29016 0.0
H1161 H 0.51709 0.91574 0.26333 0.0
C1162 C 0.44163 0.33202 0.8626 0.0
C1163 C 0.43103 0.34734 0.79798 0.0
C1164 C 0.39247 0.30557 0.80816 0.0
C1165 C 0.40482 0.28864 0.87266 0.0
N1166 N 0.45046 0.28172 0.95289 0.0
N1167 N 0.40281 0.34036 0.71028 0.0
C1168 C 0.43182 0.301 0.89763 0.0
C1169 C 0.40836 0.33164 0.77112 0.0
N1170 N 0.46241 0.34622 0.89112 0.0
N1171 N 0.36525 0.29753 0.78145 0.0
H1172 H 0.41473 0.35775 0.6824 0.0
H1173 H 0.3889 0.32802 0.68915 0.0
H1174 H 0.35239 0.27975 0.80604 0.0
H1175 H 0.35399 0.31064 0.73556 0.0
H1176 H 0.46892 0.33758 0.93845 0.0
H1177 H 0.47118 0.36794 0.86734 0.0
H1178 H 0.47172 0.28798 0.97132 0.0
H1179 H 0.44706 0.25779 0.97473 0.0
C1180 C 1.03687 0.12298 0.66173 0.0
C1181 C 1.04919 0.14422 0.68644 0.0
C1182 C 1.00563 0.18255 0.614 0.0
C1183 C 0.99583 0.16309 0.5841 0.0
N1184 N 1.00516 0.11621 0.57537 0.0
N1185 N 1.04766 0.19701 0.67698 0.0
C1186 C 1.01218 0.13356 0.60722 0.0
C1187 C 1.03403 0.17469 0.66037 0.0
N1188 N 1.0487 0.0924 0.69077 0.0
N1189 N 0.98753 0.20838 0.59892 0.0
H1190 H 0.06892 0.19258 0.70812 0.0
H1191 H 1.03944 0.22058 0.65559 0.0
H1192 H 0.96678 0.21484 0.56549 0.0
H1193 H 0.99166 0.22151 0.62346 0.0
H1194 H 1.0392 0.07489 0.67861 0.0
H1195 H 0.06626 0.08376 0.73097 0.0
H1196 H 1.01844 0.0965 0.5852 0.0
H1197 H 0.98748 0.12318 0.53562 0.0
C1198 C 0.22467 0.78665 0.49688 0.0
C1199 C 0.20052 0.7878 0.52235 0.0
C1200 C 0.18824 0.73381 0.537 0.0
C1201 C 0.20863 0.73528 0.50173 0.0
N1202 N 0.24457 0.7643 0.44313 0.0
N1203 N 0.16011 0.76197 0.56991 0.0
C1204 C 0.22651 0.76198 0.4805 0.0
C1205 C 0.1827 0.76105 0.54387 0.0
N1206 N 0.24697 0.808 0.49187 0.0
N1207 N 0.17488 0.70605 0.56525 0.0
H1208 H 0.15704 0.78067 0.57914 0.0
H1209 H 0.14372 0.74512 0.57983 0.0
H1210 H 0.1786 0.68567 0.56137 0.0
H1211 H 0.16216 0.70227 0.59649 0.0
H1212 H 0.26668 0.80656 0.47888 0.0
H1213 H 0.24769 0.82478 0.50804 0.0
H1214 H 0.25546 0.7848 0.421 0.0
H1215 H 0.24669 0.74671 0.43018 0.0
C1216 C 0.06851 0.61329 0.43468 0.0
C1217 C 1.0413 0.62657 0.38706 0.0
C1218 C 0.0664 0.62559 0.3132 0.0
C1219 C 0.09326 0.61038 0.36108 0.0
N1220 N 0.12133 0.59182 0.46599 0.0
N1221 N 1.01651 0.65256 0.27944 0.0
C1222 C 0.09482 0.60507 0.42152 0.0
C1223 C 1.04086 0.63458 0.32597 0.0
N1224 N 0.06904 0.60906 0.49189 0.0
N1225 N 0.06519 0.63149 0.25488 0.0
H1226 H 0.99712 0.65971 0.28635 0.0
H1227 H 1.0163 0.66299 0.23341 0.0
H1228 H 0.0846 0.63094 0.24092 0.0
H1229 H 1.04501 0.6364 0.22051 0.0
H1230 H 0.08806 0.60052 0.52912 0.0
H1231 H 1.05015 0.6151 0.50198 0.0
H1232 H 0.1245 0.58637 0.51164 0.0
H1233 H 0.14069 0.58586 0.4571 0.0
C1234 C 0.1571 0.23607 0.68325 0.0
C1235 C 0.16858 0.20518 0.69818 0.0
C1236 C 0.21098 0.23282 0.64891 0.0
C1237 C 0.20089 0.26293 0.64026 0.0
N1238 N 0.16595 0.29108 0.65863 0.0
N1239 N 0.20058 0.17802 0.67037 0.0
C1240 C 0.1747 0.26358 0.66109 0.0
C1241 C 0.19416 0.20452 0.67464 0.0
N1242 N 0.1272 0.24019 0.6817 0.0
N1243 N 0.23754 0.23109 0.63398 0.0
H1244 H 0.18707 0.1586 0.68066 0.0
H1245 H 0.21682 0.17655 0.64907 0.0
H1246 H 0.25022 0.25086 0.61606 0.0
H1247 H 0.24868 0.20999 0.64457 0.0
H1248 H 0.1166 0.26201 0.66847 0.0
H1249 H 0.11147 0.22292 0.68325 0.0
H1250 H 0.15 0.29265 0.68059 0.0
H1251 H 0.17633 0.31187 0.63731 0.0
C1252 C 0.5746 0.42679 0.82317 0.0
C1253 C 0.55408 0.40404 0.81563 0.0
C1254 C 0.58863 0.36205 0.90665 0.0
C1255 C 0.60725 0.38515 0.91924 0.0
N1256 N 0.61182 0.44069 0.89413 0.0
N1257 N 0.53944 0.35006 0.85662 0.0
C1258 C 0.59877 0.41786 0.87827 0.0
C1259 C 0.56056 0.37174 0.85932 0.0
N1260 N 0.57066 0.45732 0.77823 0.0
N1261 N 0.59806 0.3307 0.93777 0.0
H1262 H 0.51963 0.35563 0.82105 0.0
H1263 H 0.54053 0.32715 0.89173 0.0
H1264 H 0.61853 0.32192 0.97108 0.0
H1265 H 0.58723 0.31356 0.9258 0.0
H1266 H 0.58662 0.47429 0.77781 0.0
H1267 H 0.55294 0.46488 0.73842 0.0
H1268 H 0.60451 0.46455 0.86924 0.0
H1269 H 0.62714 0.43561 0.93606 0.0
C1270 C 0.41224 0.79716 0.93433 0.0
C1271 C 0.40554 0.76622 0.97371 0.0
C1272 C 0.39809 0.78532 0.04526 0.0
C1273 C 0.40163 0.81679 0.00243 0.0
N1274 N 0.40849 0.85351 0.90347 0.0
N1275 N 0.39834 0.72901 0.07187 0.0
C1276 C 0.4081 0.82291 0.94653 0.0
C1277 C 0.40014 0.75978 0.03078 0.0
N1278 N 0.42306 0.80181 0.88567 0.0
N1279 N 0.39235 0.78015 0.09924 0.0
H1280 H 0.40164 0.70987 0.06386 0.0
H1281 H 0.39538 0.72181 0.1153 0.0
H1282 H 0.39221 0.79808 0.11229 0.0
H1283 H 0.38721 0.75848 0.13123 0.0
H1284 H 0.4315 0.82301 0.85872 0.0
H1285 H 0.42603 0.78341 0.87558 0.0
H1286 H 0.40918 0.85974 0.85887 0.0
H1287 H 0.40569 0.87306 0.91063 0.0
C1288 C 0.06577 0.40794 0.67995 0.0
C1289 C 0.06683 0.4258 0.61823 0.0
C1290 C 1.01917 0.45603 0.59668 0.0
C1291 C 1.01757 0.43702 0.65801 0.0
N1292 N 1.03633 0.39082 0.75437 0.0
N1293 N 1.04371 0.46469 0.51571 0.0
C1294 C 1.03986 0.41171 0.69815 0.0
C1295 C 1.04316 0.44921 0.57575 0.0
N1296 N 0.09054 0.38865 0.72262 0.0
N1297 N 0.9986 0.4813 0.55959 0.0
H1298 H 0.0612 0.46032 0.49989 0.0
H1299 H 1.02615 0.48032 0.48113 0.0
H1300 H 0.98062 0.48624 0.57355 0.0
H1301 H 1.00012 0.49821 0.51647 0.0
H1302 H 0.09297 0.37849 0.76953 0.0
H1303 H 0.11047 0.38499 0.71264 0.0
H1304 H 1.04968 0.36988 0.78223 0.0
H1305 H 1.01878 0.39302 0.7719 0.0
C1306 C 0.90208 0.84927 0.31348 0.0
C1307 C 0.93173 0.84728 0.30379 0.0
C1308 C 0.92787 0.78816 0.34997 0.0
C1309 C 0.89863 0.78969 0.36102 0.0
N1310 N 0.85688 0.82328 0.34707 0.0
N1311 N 0.97637 0.81234 0.33951 0.0
C1312 C 0.88572 0.82083 0.34117 0.0
C1313 C 0.94541 0.81597 0.32946 0.0
N1314 N 0.88934 0.8783 0.29693 0.0
N1315 N 0.93908 0.7604 0.35673 0.0
H1316 H 0.99041 0.83135 0.33209 0.0
H1317 H 0.98851 0.7904 0.36382 0.0
H1318 H 0.92682 0.74016 0.36684 0.0
H1319 H 0.95872 0.75869 0.34377 0.0
H1320 H 0.86742 0.88258 0.29819 0.0
H1321 H 0.90113 0.89885 0.28481 0.0
H1322 H 0.84682 0.84335 0.34343 0.0
H1323 H 0.84202 0.80487 0.35424 0.0
C1324 C 0.51742 0.68651 0.09148 0.0
C1325 C 0.49573 0.66412 0.08597 0.0
C1326 C 0.52555 0.62459 0.18826 0.0
C1327 C 0.55004 0.64527 0.18698 0.0
N1328 N 0.57024 0.69521 0.12945 0.0
N1329 N 0.48271 0.6092 0.12834 0.0
C1330 C 0.54619 0.67596 0.13618 0.0
C1331 C 0.50051 0.6325 0.13464 0.0
N1332 N 0.51008 0.7182 0.05638 0.0
N1333 N 0.52631 0.597 0.23992 0.0
H1334 H 0.46593 0.6129 0.08875 0.0
H1335 H 0.48698 0.58535 0.15959 0.0
H1336 H 0.54426 0.58998 0.27919 0.0
H1337 H 0.50769 0.5827 0.24579 0.0
H1338 H 0.52417 0.73552 0.06193 0.0
H1339 H 0.48829 0.72714 0.02788 0.0
H1340 H 0.56973 0.71624 0.08991 0.0
H1341 H 0.59146 0.68887 0.16115 0.0
C1342 C 0.6801 0.28718 0.96067 0.0
C1343 C 0.69816 0.28948 0.0134 0.0
C1344 C 0.71993 0.2355 0.05398 0.0
C1345 C 0.70334 0.23382 1.00017 0.0
N1346 N 0.67544 0.26206 0.89473 0.0
N1347 N 0.74556 0.27102 0.09231 0.0
C1348 C 0.6854 0.26072 0.95138 0.0
C1349 C 0.72086 0.26501 0.05565 0.0
N1350 N 0.65822 0.31028 0.9187 0.0
N1351 N 0.73515 0.20913 0.10338 0.0
H1352 H 0.74948 0.29359 0.0889 0.0
H1353 H 0.76433 0.25484 0.11864 0.0
H1354 H 0.7348 0.18694 0.10405 0.0
H1355 H 0.74563 0.20898 0.14524 0.0
H1356 H 0.64179 0.30752 0.88434 0.0
H1357 H 0.65522 0.33151 0.91992 0.0
H1358 H 0.66486 0.28226 0.85581 0.0
H1359 H 0.68112 0.24417 0.88542 0.0
C1360 C 0.31765 0.24811 0.28039 0.0
C1361 C 0.31062 0.26518 0.21576 0.0
C1362 C 0.28192 0.30666 0.21758 0.0
C1363 C 0.28902 0.28961 0.28227 0.0
N1364 N 0.31711 0.24711 0.37655 0.0
N1365 N 0.28357 0.30822 0.12137 0.0
C1366 C 0.30766 0.26099 0.31408 0.0
C1367 C 0.29228 0.29396 0.18391 0.0
N1368 N 0.33313 0.21909 0.30925 0.0
N1369 N 0.26596 0.33541 0.18871 0.0
H1370 H 0.29125 0.30001 0.09511 0.0
H1371 H 0.26745 0.32717 0.09494 0.0
H1372 H 0.25638 0.34451 0.2115 0.0
H1373 H 0.26327 0.35109 0.14279 0.0
H1374 H 0.33553 0.20343 0.35511 0.0
H1375 H 0.34233 0.20969 0.28645 0.0
H1376 H 0.33354 0.2284 0.4025 0.0
H1377 H 0.31007 0.25559 0.40306 0.0
C1378 C 0.57691 0.5108 0.49122 0.0
C1379 C 0.57331 0.54485 0.46139 0.0
C1380 C 0.52912 0.53714 0.51285 0.0
C1381 C 0.53281 0.50305 0.54291 0.0
N1382 N 0.56719 0.45926 0.56937 0.0
N1383 N 0.53957 0.58887 0.43599 0.0
C1384 C 0.55836 0.49062 0.53332 0.0
C1385 C 0.54791 0.55735 0.47125 0.0
N1386 N 0.59829 0.4971 0.47923 0.0
N1387 N 0.50746 0.55083 0.52421 0.0
H1388 H 0.55036 0.6039 0.40256 0.0
H1389 H 0.51989 0.5997 0.4344 0.0
H1390 H 0.4915 0.53793 0.54775 0.0
H1391 H 0.50638 0.57471 0.5137 0.0
H1392 H 0.59929 0.47319 0.48989 0.0
H1393 H 0.61391 0.51005 0.45472 0.0
H1394 H 0.58701 0.44866 0.57095 0.0
H1395 H 0.55683 0.44431 0.60362 0.0
C1396 C 0.2808 0.76505 0.71191 0.0
C1397 C 0.27441 0.79375 0.7134 0.0
C1398 C 0.32559 0.7868 0.78476 0.0
C1399 C 0.33238 0.75817 0.78323 0.0
N1400 N 0.31613 0.71987 0.74546 0.0
N1401 N 0.29229 0.83397 0.74499 0.0
C1402 C 0.30976 0.74732 0.74674 0.0
C1403 C 0.29734 0.80509 0.74802 0.0
N1404 N 0.25968 0.75564 0.67447 0.0
N1405 N 0.34535 0.79568 0.82447 0.0
H1406 H 0.27132 0.84691 0.72264 0.0
H1407 H 0.30922 0.84611 0.76135 0.0
H1408 H 0.36656 0.78418 0.85002 0.0
H1409 H 0.34013 0.81311 0.83541 0.0
H1410 H 0.26314 0.73685 0.66583 0.0
H1411 H 0.23839 0.76751 0.64938 0.0
H1412 H 0.30037 0.70823 0.72563 0.0
H1413 H 0.3377 0.70804 0.76547 0.0
C1414 C 0.05547 0.55467 0.99624 0.0
C1415 C 0.07779 0.53039 0.04192 0.0
C1416 C 0.06072 0.49533 0.99578 0.0
C1417 C 1.03792 0.51928 0.951 0.0
N1418 N 1.01118 0.56991 0.90942 0.0
N1419 N 0.10554 0.48051 0.08152 0.0
C1420 C 1.03489 0.54868 0.95086 0.0
C1421 C 0.08164 0.50155 0.04055 0.0
N1422 N 0.05444 0.58364 0.99564 0.0
N1423 N 0.06087 0.46592 0.99798 0.0
H1424 H 0.12068 0.48411 0.11636 0.0
H1425 H 0.11182 0.46057 0.07887 0.0
H1426 H 1.04641 0.46012 0.96555 0.0
H1427 H 0.07403 0.44631 0.03405 0.0
H1428 H 1.0414 0.6034 0.95983 0.0
H1429 H 0.06794 0.58903 0.02934 0.0
H1430 H 1.00474 0.58986 0.91184 0.0
H1431 H 0.99666 0.56678 0.87342 0.0
C1432 C 0.82084 0.76457 0.81707 0.0
C1433 C 0.79688 0.78855 0.78851 0.0
C1434 C 0.79296 0.78988 0.68922 0.0
C1435 C 0.81636 0.76522 0.7182 0.0
N1436 N 0.85071 0.72664 0.8092 0.0
N1437 N 0.76232 0.82709 0.6978 0.0
C1438 C 0.82996 0.75203 0.78198 0.0
C1439 C 0.78359 0.80217 0.72456 0.0
N1440 N 0.83553 0.75465 0.87739 0.0
N1441 N 0.77855 0.80014 0.62865 0.0
H1442 H 0.7539 0.83571 0.72264 0.0
H1443 H 0.75404 0.8405 0.65087 0.0
H1444 H 0.78514 0.79206 0.60113 0.0
H1445 H 0.75905 0.8154 0.60578 0.0
H1446 H 0.85521 0.73963 0.89989 0.0
H1447 H 0.82936 0.76324 0.90458 0.0
H1448 H 0.85845 0.71307 0.85621 0.0
H1449 H 0.85919 0.71788 0.7846 0.0
C1450 C 0.77631 0.26013 0.23534 0.0
C1451 C 0.77369 0.29313 0.21845 0.0
C1452 C 0.82758 0.28849 0.27825 0.0
C1453 C 0.83156 0.25679 0.2872 0.0
N1454 N 0.80991 0.21583 0.25992 0.0
N1455 N 0.79864 0.33923 0.22132 0.0
C1456 C 0.80588 0.24354 0.26208 0.0
C1457 C 0.80002 0.30746 0.23852 0.0
N1458 N 0.75079 0.24416 0.22587 0.0
N1459 N 0.84892 0.29994 0.31144 0.0
H1460 H 0.7783 0.35337 0.19905 0.0
H1461 H 0.81803 0.35183 0.22682 0.0
H1462 H 0.86792 0.28635 0.34438 0.0
H1463 H 0.84593 0.3214 0.31195 0.0
H1464 H 0.75114 0.21952 0.24452 0.0
H1465 H 0.72892 0.25493 0.20298 0.0
H1466 H 0.79286 0.20669 0.23654 0.0
H1467 H 0.83126 0.204 0.27486 0.0
C1468 C 1.0476 0.02895 0.94144 0.0
C1469 C 0.07226 0.0455 0.96229 0.0
C1470 C 0.05334 1.02314 0.06032 0.0
C1471 C 1.02894 1.00627 0.03994 0.0
N1472 N 1.0006 0.99979 0.95237 0.0
N1473 N 0.1015 0.04996 0.05165 0.0
C1474 C 1.02606 1.01073 0.97844 0.0
C1475 C 0.07539 0.0405 0.02419 0.0
N1476 N 1.04452 0.03024 0.88545 0.0
N1477 N 0.05564 1.02313 0.115 0.0
H1478 H 0.11908 0.05995 0.03037 0.0
H1479 H 0.10777 0.04445 0.09778 0.0
H1480 H 1.04238 1.00953 0.14456 0.0
H1481 H 0.06895 0.03845 0.12911 0.0
H1482 H 1.03148 1.01503 0.87067 0.0
H1483 H 0.05638 0.04544 0.85436 0.0
H1484 H 0.9943 1.00441 0.90673 0.0
H1485 H 0.9836 0.9888 0.97467 0.0
C1486 C 0.57288 1.00097 0.54837 0.0
C1487 C 0.56916 0.02995 0.54912 0.0
C1488 C 0.52589 0.04797 0.4588 0.0
C1489 C 0.52979 1.01906 0.45785 0.0
N1490 N 0.5531 0.96572 0.50464 0.0
N1491 N 0.54509 0.08281 0.50404 0.0
C1492 C 0.55224 0.99486 0.50336 0.0
C1493 C 0.54629 0.05393 0.50438 0.0
N1494 N 0.597 0.98008 0.58899 0.0
N1495 N 0.50211 0.06907 0.41727 0.0
H1496 H 0.55846 0.08807 0.53808 0.0
H1497 H 0.53193 0.10254 0.46839 0.0
H1498 H 0.48729 0.06559 0.38197 0.0
H1499 H 0.49566 0.08912 0.41934 0.0
H1500 H 0.60358 0.9604 0.58586 0.0
H1501 H 0.61194 0.98345 0.62431 0.0
H1502 H 0.56601 0.94602 0.54097 0.0
H1503 H 0.53948 0.96014 0.4713 0.0
loop_
_geom_bond_atom_site_label_1
_geom_bond_atom_site_label_2
_geom_bond_distance
_geom_bond_site_symmetry_2
_ccdc_geom_bond_type
Nd0 C2 2.836 . S
Nd0 O20 2.500 . S
Nd0 O21 2.492 . S
Nd0 O22 2.487 1_554 S
Nd0 O23 2.682 1_554 S
Nd0 O24 2.410 . S
Nd0 O29 2.414 . S
Nd0 O31 2.424 . S
Nd1 C11 2.836 . S
Nd1 O23 2.414 . S
Nd1 O25 2.424 . S
Nd1 O26 2.500 . S
Nd1 O27 2.492 . S
Nd1 O28 2.487 1_556 S
Nd1 O29 2.682 1_556 S
Nd1 O30 2.410 1_556 S
C2 Nd0 2.836 . S
C2 C3 1.498 . S
C2 O20 1.258 . S
C2 O21 1.239 . S
C3 C2 1.498 . S
C3 C4 1.366 . S
C3 C8 1.407 . S
C4 C3 1.366 . S
C4 C5 1.392 . S
C4 H32 0.930 . S
C5 C4 1.392 . S
C5 C6 1.398 . S
C5 H33 0.929 . S
C6 C5 1.398 . S
C6 C7 1.352 . S
C7 C6 1.352 . S
C7 C8 1.384 . S
C7 H34 0.930 . S
C8 C3 1.407 . S
C8 C7 1.384 . S
C8 H35 0.929 . S
C9 O22 1.241 . S
C9 O23 1.273 . S
C10 O24 1.251 1_556 S
C10 O25 1.268 . S
C11 Nd1 2.836 . S
C11 C12 1.498 . S
C11 O26 1.258 . S
C11 O27 1.239 . S
C12 C11 1.498 . S
C12 C13 1.366 . S
C12 C17 1.407 . S
C13 C12 1.366 . S
C13 C14 1.392 . S
C13 H36 0.930 . S
C14 C13 1.392 . S
C14 C15 1.398 . S
C14 H37 0.929 . S
C15 C14 1.398 . S
C15 C16 1.352 . S
C16 C15 1.352 . S
C16 C17 1.384 . S
C16 H38 0.930 . S
C17 C12 1.407 . S
C17 C16 1.384 . S
C17 H39 0.929 . S
C18 O28 1.241 . S
C18 O29 1.273 . S
C19 O30 1.251 . S
C19 O31 1.268 . S
O20 Nd0 2.500 . S
O20 C2 1.258 . S
O21 Nd0 2.492 . S
O21 C2 1.239 . S
O22 Nd0 2.487 1_556 S
O22 C9 1.241 . S
O23 Nd0 2.682 1_556 S
O23 Nd1 2.414 . S
O23 C9 1.273 . S
O24 Nd0 2.410 . S
O24 C10 1.251 1_554 S
O25 Nd1 2.424 . S
O25 C10 1.268 . S
O26 Nd1 2.500 . S
O26 C11 1.258 . S
O27 Nd1 2.492 . S
O27 C11 1.239 . S
O28 Nd1 2.487 1_554 S
O28 C18 1.241 . S
O29 Nd0 2.414 . S
O29 Nd1 2.682 1_554 S
O29 C18 1.273 . S
O30 Nd1 2.410 1_554 S
O30 C19 1.251 . S
O31 Nd0 2.424 . S
O31 C19 1.268 . S
H32 C4 0.930 . S
H33 C5 0.929 . S
H34 C7 0.930 . S
H35 C8 0.929 . S
H36 C13 0.930 . S
H37 C14 0.929 . S
H38 C16 0.930 . S
H39 C17 0.929 . S
Nd40 C42 2.836 . S
Nd40 O60 2.500 . S
Nd40 O61 2.492 . S
Nd40 O62 2.487 . S
Nd40 O63 2.682 . S
Nd40 O64 2.410 . S
Nd40 O69 2.414 . S
Nd40 O71 2.424 . S
Nd41 C51 2.836 . S
Nd41 O63 2.414 . S
Nd41 O65 2.424 . S
Nd41 O66 2.500 . S
Nd41 O67 2.492 . S
Nd41 O68 2.487 . S
Nd41 O69 2.682 . S
Nd41 O70 2.410 . S
C42 Nd40 2.836 . S
C42 C43 1.498 . S
C42 O60 1.258 . S
C42 O61 1.239 . S
C43 C42 1.498 . S
C43 C44 1.366 . S
C43 C48 1.407 . S
C44 C43 1.366 . S
C44 C45 1.392 . S
C44 H72 0.930 . S
C45 C44 1.392 . S
C45 C46 1.398 . S
C45 H73 0.929 . S
C46 C45 1.398 . S
C46 C47 1.352 . S
C47 C46 1.352 . S
C47 C48 1.384 . S
C47 H74 0.930 . S
C48 C43 1.407 . S
C48 C47 1.384 . S
C48 H75 0.929 . S
C49 O62 1.241 . S
C49 O63 1.273 . S
C50 O64 1.251 . S
C50 O65 1.268 . S
C51 Nd41 2.836 . S
C51 C52 1.498 . S
C51 O66 1.258 . S
C51 O67 1.239 . S
C52 C51 1.498 . S
C52 C53 1.366 . S
C52 C57 1.407 . S
C53 C52 1.366 . S
C53 C54 1.392 . S
C53 H76 0.930 . S
C54 C53 1.392 . S
C54 C55 1.398 . S
C54 H77 0.929 . S
C55 C54 1.398 . S
C55 C56 1.352 . S
C56 C55 1.352 . S
C56 C57 1.384 . S
C56 H78 0.930 . S
C57 C52 1.407 . S
C57 C56 1.384 . S
C57 H79 0.929 . S
C58 O68 1.241 . S
C58 O69 1.273 . S
C59 O70 1.251 . S
C59 O71 1.268 . S
O60 Nd40 2.500 . S
O60 C42 1.258 . S
O61 Nd40 2.492 . S
O61 C42 1.239 . S
O62 Nd40 2.487 . S
O62 C49 1.241 . S
O63 Nd40 2.682 . S
O63 Nd41 2.414 . S
O63 C49 1.273 . S
O64 Nd40 2.410 . S
O64 C50 1.251 . S
O65 Nd41 2.424 . S
O65 C50 1.268 . S
O66 Nd41 2.500 . S
O66 C51 1.258 . S
O67 Nd41 2.492 . S
O67 C51 1.239 . S
O68 Nd41 2.487 . S
O68 C58 1.241 . S
O69 Nd40 2.414 . S
O69 Nd41 2.682 . S
O69 C58 1.273 . S
O70 Nd41 2.410 . S
O70 C59 1.251 . S
O71 Nd40 2.424 . S
O71 C59 1.268 . S
H72 C44 0.930 . S
H73 C45 0.929 . S
H74 C47 0.930 . S
H75 C48 0.929 . S
H76 C53 0.930 . S
H77 C54 0.929 . S
H78 C56 0.930 . S
H79 C57 0.929 . S
Nd80 C82 2.836 . S
Nd80 O100 2.500 . S
Nd80 O101 2.492 . S
Nd80 O102 2.487 . S
Nd80 O103 2.682 . S
Nd80 O104 2.410 . S
Nd80 O109 2.414 . S
Nd80 O111 2.424 . S
Nd81 C91 2.836 . S
Nd81 O103 2.414 . S
Nd81 O105 2.424 . S
Nd81 O106 2.500 . S
Nd81 O107 2.492 . S
Nd81 O108 2.487 . S
Nd81 O109 2.682 . S
Nd81 O110 2.410 . S
C82 Nd80 2.836 . S
C82 C83 1.498 . S
C82 O100 1.258 . S
C82 O101 1.239 . S
C83 C82 1.498 . S
C83 C84 1.366 . S
C83 C88 1.407 . S
C84 C83 1.366 . S
C84 C85 1.392 . S
C84 H112 0.930 . S
C85 C84 1.392 . S
C85 C86 1.398 1_455 S
C85 H113 0.929 1_455 S
C86 C85 1.398 1_655 S
C86 C87 1.352 1_655 S
C87 C86 1.352 1_455 S
C87 C88 1.384 . S
C87 H114 0.930 1_455 S
C88 C83 1.407 . S
C88 C87 1.384 . S
C88 H115 0.929 . S
C89 O102 1.241 . S
C89 O103 1.273 . S
C90 O104 1.251 . S
C90 O105 1.268 . S
C91 Nd81 2.836 . S
C91 C92 1.498 . S
C91 O106 1.258 . S
C91 O107 1.239 . S
C92 C91 1.498 . S
C92 C93 1.366 . S
C92 C97 1.407 . S
C93 C92 1.366 . S
C93 C94 1.392 . S
C93 H116 0.930 . S
C94 C93 1.392 . S
C94 C95 1.398 . S
C94 H117 0.929 . S
C95 C94 1.398 . S
C95 C96 1.352 . S
C96 C95 1.352 . S
C96 C97 1.384 . S
C96 H118 0.930 . S
C97 C92 1.407 . S
C97 C96 1.384 . S
C97 H119 0.929 . S
C98 O108 1.241 . S
C98 O109 1.273 . S
C99 O110 1.251 . S
C99 O111 1.268 . S
O100 Nd80 2.500 . S
O100 C82 1.258 . S
O101 Nd80 2.492 . S
O101 C82 1.239 . S
O102 Nd80 2.487 . S
O102 C89 1.241 . S
O103 Nd80 2.682 . S
O103 Nd81 2.414 . S
O103 C89 1.273 . S
O104 Nd80 2.410 . S
O104 C90 1.251 . S
O105 Nd81 2.424 . S
O105 C90 1.268 . S
O106 Nd81 2.500 . S
O106 C91 1.258 . S
O107 Nd81 2.492 . S
O107 C91 1.239 . S
O108 Nd81 2.487 . S
O108 C98 1.241 . S
O109 Nd80 2.414 . S
O109 Nd81 2.682 . S
O109 C98 1.273 . S
O110 Nd81 2.410 . S
O110 C99 1.251 . S
O111 Nd80 2.424 . S
O111 C99 1.268 . S
H112 C84 0.930 . S
H113 C85 0.929 1_655 S
H114 C87 0.930 1_655 S
H115 C88 0.929 . S
H116 C93 0.930 . S
H117 C94 0.929 . S
H118 C96 0.930 . S
H119 C97 0.929 . S
Nd120 C122 2.836 . S
Nd120 O140 2.500 . S
Nd120 O141 2.492 . S
Nd120 O142 2.487 . S
Nd120 O143 2.682 . S
Nd120 O144 2.410 . S
Nd120 O149 2.414 . S
Nd120 O151 2.424 . S
Nd121 C131 2.836 . S
Nd121 O143 2.414 . S
Nd121 O145 2.424 . S
Nd121 O146 2.500 . S
Nd121 O147 2.492 . S
Nd121 O148 2.487 . S
Nd121 O149 2.682 . S
Nd121 O150 2.410 . S
C122 Nd120 2.836 . S
C122 C123 1.498 . S
C122 O140 1.258 . S
C122 O141 1.239 . S
C123 C122 1.498 . S
C123 C124 1.366 . S
C123 C128 1.407 . S
C124 C123 1.366 . S
C124 C125 1.392 . S
C124 H152 0.930 . S
C125 C124 1.392 . S
C125 C126 1.398 . S
C125 H153 0.929 . S
C126 C125 1.398 . S
C126 C127 1.352 . S
C127 C126 1.352 . S
C127 C128 1.384 . S
C127 H154 0.944 . S
C128 C123 1.407 . S
C128 C127 1.384 . S
C128 H155 0.929 . S
C129 O142 1.241 . S
C129 O143 1.273 . S
C130 O144 1.251 . S
C130 O145 1.268 . S
C131 Nd121 2.836 . S
C131 C132 1.498 . S
C131 O146 1.258 . S
C131 O147 1.239 . S
C132 C131 1.498 . S
C132 C133 1.366 . S
C132 C137 1.407 . S
C133 C132 1.366 . S
C133 C134 1.392 . S
C133 H156 0.930 . S
C134 C133 1.392 . S
C134 C135 1.398 . S
C134 H157 0.929 . S
C135 C134 1.398 . S
C135 C136 1.352 . S
C136 C135 1.352 . S
C136 C137 1.384 . S
C136 H158 0.930 . S
C137 C132 1.407 . S
C137 C136 1.384 . S
C137 H159 0.929 . S
C138 O148 1.241 . S
C138 O149 1.273 . S
C139 O150 1.251 . S
C139 O151 1.268 . S
O140 Nd120 2.500 . S
O140 C122 1.258 . S
O141 Nd120 2.492 . S
O141 C122 1.239 . S
O142 Nd120 2.487 . S
O142 C129 1.241 . S
O143 Nd120 2.682 . S
O143 Nd121 2.414 . S
O143 C129 1.273 . S
O144 Nd120 2.410 . S
O144 C130 1.251 . S
O145 Nd121 2.424 . S
O145 C130 1.268 . S
O146 Nd121 2.500 . S
O146 C131 1.258 . S
O147 Nd121 2.492 . S
O147 C131 1.239 . S
O148 Nd121 2.487 . S
O148 C138 1.241 . S
O149 Nd120 2.414 . S
O149 Nd121 2.682 . S
O149 C138 1.273 . S
O150 Nd121 2.410 . S
O150 C139 1.251 . S
O151 Nd120 2.424 . S
O151 C139 1.268 . S
H152 C124 0.930 . S
H153 C125 0.929 . S
H154 C127 0.944 . S
H155 C128 0.929 . S
H156 C133 0.930 . S
H157 C134 0.929 . S
H158 C136 0.930 . S
H159 C137 0.929 . S
Nd160 C162 2.836 . S
Nd160 O180 2.500 . S
Nd160 O181 2.492 . S
Nd160 O182 2.487 1_554 S
Nd160 O183 2.682 1_554 S
Nd160 O184 2.410 1_554 S
Nd160 O189 2.414 . S
Nd160 O191 2.424 . S
Nd161 C171 2.836 . S
Nd161 O183 2.414 . S
Nd161 O185 2.424 . S
Nd161 O186 2.500 . S
Nd161 O187 2.492 . S
Nd161 O188 2.487 1_556 S
Nd161 O189 2.682 1_556 S
Nd161 O190 2.410 . S
C162 Nd160 2.836 . S
C162 C163 1.498 . S
C162 O180 1.258 . S
C162 O181 1.239 . S
C163 C162 1.498 . S
C163 C164 1.366 . S
C163 C168 1.407 . S
C164 C163 1.366 . S
C164 C165 1.392 . S
C164 H192 0.930 . S
C165 C164 1.392 . S
C165 C166 1.398 . S
C165 H193 0.929 . S
C166 C165 1.398 . S
C166 C167 1.352 . S
C167 C166 1.352 . S
C167 C168 1.384 . S
C167 H194 0.930 . S
C168 C163 1.407 . S
C168 C167 1.384 . S
C168 H195 0.929 . S
C169 O182 1.241 . S
C169 O183 1.273 . S
C170 O184 1.251 . S
C170 O185 1.268 . S
C171 Nd161 2.836 . S
C171 C172 1.498 . S
C171 O186 1.258 . S
C171 O187 1.239 . S
C172 C171 1.498 . S
C172 C173 1.366 . S
C172 C177 1.407 . S
C173 C172 1.366 . S
C173 C174 1.392 . S
C173 H196 0.930 . S
C174 C173 1.392 . S
C174 C175 1.398 . S
C174 H197 0.929 . S
C175 C174 1.398 . S
C175 C176 1.352 . S
C176 C175 1.352 . S
C176 C177 1.384 . S
C176 H198 0.930 . S
C177 C172 1.407 . S
C177 C176 1.384 . S
C177 H199 0.929 . S
C178 O188 1.241 . S
C178 O189 1.273 . S
C179 O190 1.251 1_554 S
C179 O191 1.268 . S
O180 Nd160 2.500 . S
O180 C162 1.258 . S
O181 Nd160 2.492 . S
O181 C162 1.239 . S
O182 Nd160 2.487 1_556 S
O182 C169 1.241 . S
O183 Nd160 2.682 1_556 S
O183 Nd161 2.414 . S
O183 C169 1.273 . S
O184 Nd160 2.410 1_556 S
O184 C170 1.251 . S
O185 Nd161 2.424 . S
O185 C170 1.268 . S
O186 Nd161 2.500 . S
O186 C171 1.258 . S
O187 Nd161 2.492 . S
O187 C171 1.239 . S
O188 Nd161 2.487 1_554 S
O188 C178 1.241 . S
O189 Nd160 2.414 . S
O189 Nd161 2.682 1_554 S
O189 C178 1.273 . S
O190 Nd161 2.410 . S
O190 C179 1.251 1_556 S
O191 Nd160 2.424 . S
O191 C179 1.268 . S
H192 C164 0.930 . S
H193 C165 0.929 . S
H194 C167 0.930 . S
H195 C168 0.929 . S
H196 C173 0.930 . S
H197 C174 0.929 . S
H198 C176 0.930 . S
H199 C177 0.929 . S
Nd200 C202 2.836 . S
Nd200 O220 2.500 . S
Nd200 O221 2.492 . S
Nd200 O222 2.487 . S
Nd200 O223 2.682 . S
Nd200 O224 2.410 . S
Nd200 O229 2.414 . S
Nd200 O231 2.424 . S
Nd201 C211 2.836 . S
Nd201 O223 2.414 . S
Nd201 O225 2.424 . S
Nd201 O226 2.500 . S
Nd201 O227 2.492 . S
Nd201 O228 2.487 . S
Nd201 O229 2.682 . S
Nd201 O230 2.410 . S
C202 Nd200 2.836 . S
C202 C203 1.498 . S
C202 O220 1.258 . S
C202 O221 1.239 . S
C203 C202 1.498 . S
C203 C204 1.366 . S
C203 C208 1.407 . S
C204 C203 1.366 . S
C204 C205 1.392 . S
C204 H232 0.930 . S
C205 C204 1.392 . S
C205 C206 1.398 . S
C205 H233 0.929 . S
C206 C205 1.398 . S
C206 C207 1.352 . S
C207 C206 1.352 . S
C207 C208 1.384 . S
C207 H234 0.930 . S
C208 C203 1.407 . S
C208 C207 1.384 . S
C208 H235 0.929 . S
C209 O222 1.241 . S
C209 O223 1.273 . S
C210 O224 1.251 . S
C210 O225 1.268 . S
C211 Nd201 2.836 . S
C211 C212 1.498 . S
C211 O226 1.258 . S
C211 O227 1.239 . S
C212 C211 1.498 . S
C212 C213 1.366 . S
C212 C217 1.407 . S
C213 C212 1.366 . S
C213 C214 1.392 . S
C213 H236 0.930 . S
C214 C213 1.392 . S
C214 C215 1.398 . S
C214 H237 0.929 . S
C215 C214 1.398 . S
C215 C216 1.352 . S
C216 C215 1.352 . S
C216 C217 1.384 . S
C216 H238 0.930 . S
C217 C212 1.407 . S
C217 C216 1.384 . S
C217 H239 0.929 . S
C218 O228 1.241 . S
C218 O229 1.273 . S
C219 O230 1.251 . S
C219 O231 1.268 . S
O220 Nd200 2.500 . S
O220 C202 1.258 . S
O221 Nd200 2.492 . S
O221 C202 1.239 . S
O222 Nd200 2.487 . S
O222 C209 1.241 . S
O223 Nd200 2.682 . S
O223 Nd201 2.414 . S
O223 C209 1.273 . S
O224 Nd200 2.410 . S
O224 C210 1.251 . S
O225 Nd201 2.424 . S
O225 C210 1.268 . S
O226 Nd201 2.500 . S
O226 C211 1.258 . S
O227 Nd201 2.492 . S
O227 C211 1.239 . S
O228 Nd201 2.487 . S
O228 C218 1.241 . S
O229 Nd200 2.414 . S
O229 Nd201 2.682 . S
O229 C218 1.273 . S
O230 Nd201 2.410 . S
O230 C219 1.251 . S
O231 Nd200 2.424 . S
O231 C219 1.268 . S
H232 C204 0.930 . S
H233 C205 0.929 . S
H234 C207 0.930 . S
H235 C208 0.929 . S
H236 C213 0.930 . S
H237 C214 0.929 . S
H238 C216 0.930 . S
H239 C217 0.929 . S
Nd240 C242 2.836 . S
Nd240 O260 2.500 . S
Nd240 O261 2.492 . S
Nd240 O262 2.487 . S
Nd240 O263 2.682 . S
Nd240 O264 2.410 . S
Nd240 O269 2.414 . S
Nd240 O271 2.424 . S
Nd241 C251 2.836 . S
Nd241 O263 2.414 . S
Nd241 O265 2.424 . S
Nd241 O266 2.500 . S
Nd241 O267 2.492 . S
Nd241 O268 2.487 . S
Nd241 O269 2.682 . S
Nd241 O270 2.410 . S
C242 Nd240 2.836 . S
C242 C243 1.498 . S
C242 O260 1.258 . S
C242 O261 1.239 . S
C243 C242 1.498 . S
C243 C244 1.366 . S
C243 C248 1.407 . S
C244 C243 1.366 . S
C244 C245 1.392 . S
C244 H272 0.930 . S
C245 C244 1.392 . S
C245 C246 1.398 . S
C245 H273 0.929 . S
C246 C245 1.398 . S
C246 C247 1.352 . S
C247 C246 1.352 . S
C247 C248 1.384 . S
C247 H274 0.930 . S
C248 C243 1.407 . S
C248 C247 1.384 . S
C248 H275 0.929 . S
C249 O262 1.241 . S
C249 O263 1.273 . S
C250 O264 1.251 . S
C250 O265 1.268 . S
C251 Nd241 2.836 . S
C251 C252 1.498 . S
C251 O266 1.258 . S
C251 O267 1.239 . S
C252 C251 1.498 . S
C252 C253 1.366 . S
C252 C257 1.407 . S
C253 C252 1.366 . S
C253 C254 1.392 . S
C253 H276 0.930 . S
C254 C253 1.392 . S
C254 C255 1.398 1_655 S
C254 H277 0.929 1_655 S
C255 C254 1.398 1_455 S
C255 C256 1.352 1_455 S
C256 C255 1.352 1_655 S
C256 C257 1.384 . S
C256 H278 0.930 1_655 S
C257 C252 1.407 . S
C257 C256 1.384 . S
C257 H279 0.929 . S
C258 O268 1.241 . S
C258 O269 1.273 . S
C259 O270 1.251 . S
C259 O271 1.268 . S
O260 Nd240 2.500 . S
O260 C242 1.258 . S
O261 Nd240 2.492 . S
O261 C242 1.239 . S
O262 Nd240 2.487 . S
O262 C249 1.241 . S
O263 Nd240 2.682 . S
O263 Nd241 2.414 . S
O263 C249 1.273 . S
O264 Nd240 2.410 . S
O264 C250 1.251 . S
O265 Nd241 2.424 . S
O265 C250 1.268 . S
O266 Nd241 2.500 . S
O266 C251 1.258 . S
O267 Nd241 2.492 . S
O267 C251 1.239 . S
O268 Nd241 2.487 . S
O268 C258 1.241 . S
O269 Nd240 2.414 . S
O269 Nd241 2.682 . S
O269 C258 1.273 . S
O270 Nd241 2.410 . S
O270 C259 1.251 . S
O271 Nd240 2.424 . S
O271 C259 1.268 . S
H272 C244 0.930 . S
H273 C245 0.929 . S
H274 C247 0.930 . S
H275 C248 0.929 . S
H276 C253 0.930 . S
H277 C254 0.929 1_455 S
H278 C256 0.930 1_455 S
H279 C257 0.929 . S
Nd280 C282 2.836 . S
Nd280 O300 2.500 . S
Nd280 O301 2.492 . S
Nd280 O302 2.487 . S
Nd280 O303 2.682 . S
Nd280 O304 2.410 . S
Nd280 O309 2.414 . S
Nd280 O311 2.424 . S
Nd281 C291 2.836 . S
Nd281 O303 2.414 . S
Nd281 O305 2.424 . S
Nd281 O306 2.500 . S
Nd281 O307 2.492 . S
Nd281 O308 2.487 . S
Nd281 O309 2.682 . S
Nd281 O310 2.410 . S
C282 Nd280 2.836 . S
C282 C283 1.498 . S
C282 O300 1.258 . S
C282 O301 1.239 . S
C283 C282 1.498 . S
C283 C284 1.366 . S
C283 C288 1.407 . S
C284 C283 1.366 . S
C284 C285 1.392 . S
C284 H312 0.930 . S
C285 C284 1.392 . S
C285 C286 1.398 . S
C285 H313 0.929 . S
C286 C285 1.398 . S
C286 C287 1.352 . S
C287 C286 1.352 . S
C287 C288 1.384 . S
C287 H314 0.930 . S
C288 C283 1.407 . S
C288 C287 1.384 . S
C288 H315 0.929 . S
C289 O302 1.241 . S
C289 O303 1.273 . S
C290 O304 1.251 . S
C290 O305 1.268 . S
C291 Nd281 2.836 . S
C291 C292 1.498 . S
C291 O306 1.258 . S
C291 O307 1.239 . S
C292 C291 1.498 . S
C292 C293 1.366 . S
C292 C297 1.407 . S
C293 C292 1.366 . S
C293 C294 1.392 . S
C293 H316 0.930 . S
C294 C293 1.392 . S
C294 C295 1.398 . S
C294 H317 0.929 . S
C295 C294 1.398 . S
C295 C296 1.352 . S
C296 C295 1.352 . S
C296 C297 1.384 . S
C296 H318 0.944 . S
C297 C292 1.407 . S
C297 C296 1.384 . S
C297 H319 0.929 . S
C298 O308 1.241 . S
C298 O309 1.273 . S
C299 O310 1.251 . S
C299 O311 1.268 . S
O300 Nd280 2.500 . S
O300 C282 1.258 . S
O301 Nd280 2.492 . S
O301 C282 1.239 . S
O302 Nd280 2.487 . S
O302 C289 1.241 . S
O303 Nd280 2.682 . S
O303 Nd281 2.414 . S
O303 C289 1.273 . S
O304 Nd280 2.410 . S
O304 C290 1.251 . S
O305 Nd281 2.424 . S
O305 C290 1.268 . S
O306 Nd281 2.500 . S
O306 C291 1.258 . S
O307 Nd281 2.492 . S
O307 C291 1.239 . S
O308 Nd281 2.487 . S
O308 C298 1.241 . S
O309 Nd280 2.414 . S
O309 Nd281 2.682 . S
O309 C298 1.273 . S
O310 Nd281 2.410 . S
O310 C299 1.251 . S
O311 Nd280 2.424 . S
O311 C299 1.268 . S
H312 C284 0.930 . S
H313 C285 0.929 . S
H314 C287 0.930 . S
H315 C288 0.929 . S
H316 C293 0.930 . S
H317 C294 0.929 . S
H318 C296 0.944 . S
H319 C297 0.929 . S
Nd320 C322 2.836 . S
Nd320 O340 2.500 . S
Nd320 O341 2.492 . S
Nd320 O342 2.487 . S
Nd320 O343 2.682 . S
Nd320 O344 2.410 . S
Nd320 O349 2.414 . S
Nd320 O351 2.424 . S
Nd321 C331 2.836 . S
Nd321 O343 2.414 . S
Nd321 O345 2.424 . S
Nd321 O346 2.500 . S
Nd321 O347 2.492 . S
Nd321 O348 2.487 . S
Nd321 O349 2.682 . S
Nd321 O350 2.410 . S
C322 Nd320 2.836 . S
C322 C323 1.498 . S
C322 O340 1.258 . S
C322 O341 1.239 . S
C323 C322 1.498 . S
C323 C324 1.366 . S
C323 C328 1.407 . S
C324 C323 1.366 . S
C324 C325 1.392 . S
C324 H352 0.930 . S
C325 C324 1.392 . S
C325 C326 1.398 . S
C325 H353 0.929 . S
C326 C325 1.398 . S
C326 C327 1.352 . S
C327 C326 1.352 . S
C327 C328 1.384 . S
C327 H354 0.930 . S
C328 C323 1.407 . S
C328 C327 1.384 . S
C328 H355 0.929 . S
C329 O342 1.241 . S
C329 O343 1.273 . S
C330 O344 1.251 . S
C330 O345 1.268 . S
C331 Nd321 2.836 . S
C331 C332 1.498 . S
C331 O346 1.258 . S
C331 O347 1.239 . S
C332 C331 1.498 . S
C332 C333 1.366 . S
C332 C337 1.407 . S
C333 C332 1.366 . S
C333 C334 1.392 . S
C333 H356 0.930 . S
C334 C333 1.392 . S
C334 C335 1.398 . S
C334 H357 0.929 . S
C335 C334 1.398 . S
C335 C336 1.352 . S
C336 C335 1.352 . S
C336 C337 1.384 . S
C336 H358 0.930 . S
C337 C332 1.407 . S
C337 C336 1.384 . S
C337 H359 0.929 . S
C338 O348 1.241 . S
C338 O349 1.273 . S
C339 O350 1.251 . S
C339 O351 1.268 . S
O340 Nd320 2.500 . S
O340 C322 1.258 . S
O341 Nd320 2.492 . S
O341 C322 1.239 . S
O342 Nd320 2.487 . S
O342 C329 1.241 . S
O343 Nd320 2.682 . S
O343 Nd321 2.414 . S
O343 C329 1.273 . S
O344 Nd320 2.410 . S
O344 C330 1.251 . S
O345 Nd321 2.424 . S
O345 C330 1.268 . S
O346 Nd321 2.500 . S
O346 C331 1.258 . S
O347 Nd321 2.492 . S
O347 C331 1.239 . S
O348 Nd321 2.487 . S
O348 C338 1.241 . S
O349 Nd320 2.414 . S
O349 Nd321 2.682 . S
O349 C338 1.273 . S
O350 Nd321 2.410 . S
O350 C339 1.251 . S
O351 Nd320 2.424 . S
O351 C339 1.268 . S
H352 C324 0.930 . S
H353 C325 0.929 . S
H354 C327 0.930 . S
H355 C328 0.929 . S
H356 C333 0.930 . S
H357 C334 0.929 . S
H358 C336 0.930 . S
H359 C337 0.929 . S
Nd360 C362 2.836 . S
Nd360 O380 2.500 . S
Nd360 O381 2.492 . S
Nd360 O382 2.487 . S
Nd360 O383 2.682 . S
Nd360 O384 2.410 . S
Nd360 O389 2.414 . S
Nd360 O391 2.424 . S
Nd361 C371 2.836 . S
Nd361 O383 2.414 . S
Nd361 O385 2.424 . S
Nd361 O386 2.500 . S
Nd361 O387 2.492 . S
Nd361 O388 2.487 . S
Nd361 O389 2.682 . S
Nd361 O390 2.410 . S
C362 Nd360 2.836 . S
C362 C363 1.498 . S
C362 O380 1.258 . S
C362 O381 1.239 . S
C363 C362 1.498 . S
C363 C364 1.366 . S
C363 C368 1.407 . S
C364 C363 1.366 . S
C364 C365 1.392 . S
C364 H392 0.930 . S
C365 C364 1.392 . S
C365 C366 1.398 . S
C365 H393 0.929 . S
C366 C365 1.398 . S
C366 C367 1.352 . S
C367 C366 1.352 . S
C367 C368 1.384 . S
C367 H394 0.930 . S
C368 C363 1.407 . S
C368 C367 1.384 . S
C368 H395 0.929 . S
C369 O382 1.241 . S
C369 O383 1.273 . S
C370 O384 1.251 . S
C370 O385 1.268 . S
C371 Nd361 2.836 . S
C371 C372 1.473 1_545 S
C371 O386 1.258 . S
C371 O387 1.239 . S
C372 C371 1.473 1_565 S
C372 C373 1.375 . S
C372 C377 1.425 . S
C373 C372 1.375 . S
C373 C374 1.392 . S
C373 H396 0.930 . S
C374 C373 1.392 . S
C374 C375 1.398 . S
C374 H397 0.929 . S
C375 C374 1.398 . S
C375 C376 1.352 . S
C376 C375 1.352 . S
C376 C377 1.384 . S
C376 H398 0.930 . S
C377 C372 1.425 . S
C377 C376 1.384 . S
C377 H399 0.929 1_565 S
C378 O388 1.241 . S
C378 O389 1.273 . S
C379 O390 1.251 . S
C379 O391 1.268 . S
O380 Nd360 2.500 . S
O380 C362 1.258 . S
O381 Nd360 2.492 . S
O381 C362 1.239 . S
O382 Nd360 2.487 . S
O382 C369 1.241 . S
O383 Nd360 2.682 . S
O383 Nd361 2.414 . S
O383 C369 1.273 . S
O384 Nd360 2.410 . S
O384 C370 1.251 . S
O385 Nd361 2.424 . S
O385 C370 1.268 . S
O386 Nd361 2.500 . S
O386 C371 1.258 . S
O387 Nd361 2.492 . S
O387 C371 1.239 . S
O388 Nd361 2.487 . S
O388 C378 1.241 . S
O389 Nd360 2.414 . S
O389 Nd361 2.682 . S
O389 C378 1.273 . S
O390 Nd361 2.410 . S
O390 C379 1.251 . S
O391 Nd360 2.424 . S
O391 C379 1.268 . S
H392 C364 0.930 . S
H393 C365 0.929 . S
H394 C367 0.930 . S
H395 C368 0.929 . S
H396 C373 0.930 . S
H397 C374 0.929 . S
H398 C376 0.930 . S
H399 C377 0.929 1_545 S
Nd400 C402 2.836 . S
Nd400 O420 2.500 . S
Nd400 O421 2.492 . S
Nd400 O422 2.487 . S
Nd400 O423 2.682 . S
Nd400 O424 2.410 . S
Nd400 O429 2.414 . S
Nd400 O431 2.424 . S
Nd401 C411 2.836 . S
Nd401 O423 2.414 . S
Nd401 O425 2.424 1_554 S
Nd401 O426 2.500 . S
Nd401 O427 2.492 1_554 S
Nd401 O428 2.478 1_554 S
Nd401 O429 2.682 . S
Nd401 O430 2.410 . S
C402 Nd400 2.836 . S
C402 C403 1.498 . S
C402 O420 1.258 . S
C402 O421 1.239 . S
C403 C402 1.498 . S
C403 C404 1.366 . S
C403 C408 1.407 . S
C404 C403 1.366 . S
C404 C405 1.392 . S
C404 H432 0.930 . S
C405 C404 1.392 . S
C405 C406 1.398 . S
C405 H433 0.929 . S
C406 C405 1.398 . S
C406 C407 1.352 . S
C407 C406 1.352 . S
C407 C408 1.384 . S
C407 H434 0.930 . S
C408 C403 1.407 . S
C408 C407 1.384 . S
C408 H435 0.929 . S
C409 O422 1.241 . S
C409 O423 1.273 . S
C410 O424 1.251 1_556 S
C410 O425 1.268 . S
C411 Nd401 2.836 . S
C411 C412 1.498 . S
C411 O426 1.258 . S
C411 O427 1.239 1_554 S
C412 C411 1.498 . S
C412 C413 1.366 . S
C412 C417 1.407 1_554 S
C413 C412 1.366 . S
C413 C414 1.392 . S
C413 H436 0.930 . S
C414 C413 1.392 . S
C414 C415 1.398 . S
C414 H437 0.929 . S
C415 C414 1.398 . S
C415 C416 1.352 1_554 S
C416 C415 1.352 1_556 S
C416 C417 1.384 . S
C416 H438 0.930 . S
C417 C412 1.407 1_556 S
C417 C416 1.384 . S
C417 H439 0.929 . S
C418 O428 1.233 1_554 S
C418 O429 1.273 . S
C419 O430 1.251 . S
C419 O431 1.268 . S
O420 Nd400 2.500 . S
O420 C402 1.258 . S
O421 Nd400 2.492 . S
O421 C402 1.239 . S
O422 Nd400 2.487 . S
O422 C409 1.241 . S
O423 Nd400 2.682 . S
O423 Nd401 2.414 . S
O423 C409 1.273 . S
O424 Nd400 2.410 . S
O424 C410 1.251 1_554 S
O425 Nd401 2.424 1_556 S
O425 C410 1.268 . S
O426 Nd401 2.500 . S
O426 C411 1.258 . S
O427 Nd401 2.492 1_556 S
O427 C411 1.239 1_556 S
O428 Nd401 2.478 1_556 S
O428 C418 1.233 1_556 S
O429 Nd400 2.414 . S
O429 Nd401 2.682 . S
O429 C418 1.273 . S
O430 Nd401 2.410 . S
O430 C419 1.251 . S
O431 Nd400 2.424 . S
O431 C419 1.268 . S
H432 C404 0.930 . S
H433 C405 0.929 . S
H434 C407 0.930 . S
H435 C408 0.929 . S
H436 C413 0.930 . S
H437 C414 0.929 . S
H438 C416 0.930 . S
H439 C417 0.929 . S
Nd440 C442 2.836 . S
Nd440 O460 2.500 . S
Nd440 O461 2.492 . S
Nd440 O462 2.487 . S
Nd440 O463 2.682 . S
Nd440 O464 2.410 . S
Nd440 O469 2.414 . S
Nd440 O471 2.424 . S
Nd441 C451 2.836 . S
Nd441 O463 2.414 . S
Nd441 O465 2.424 . S
Nd441 O466 2.500 . S
Nd441 O467 2.492 . S
Nd441 O468 2.487 . S
Nd441 O469 2.682 . S
Nd441 O470 2.410 . S
C442 Nd440 2.836 . S
C442 C443 1.498 . S
C442 O460 1.258 . S
C442 O461 1.239 . S
C443 C442 1.498 . S
C443 C444 1.366 . S
C443 C448 1.407 . S
C444 C443 1.366 . S
C444 C445 1.392 . S
C444 H472 0.930 . S
C445 C444 1.392 . S
C445 C446 1.398 1_565 S
C445 H473 0.929 1_565 S
C446 C445 1.398 1_545 S
C446 C447 1.352 1_545 S
C447 C446 1.352 1_565 S
C447 C448 1.384 . S
C447 H474 0.930 1_565 S
C448 C443 1.407 . S
C448 C447 1.384 . S
C448 H475 0.929 . S
C449 O462 1.241 . S
C449 O463 1.273 . S
C450 O464 1.251 . S
C450 O465 1.268 . S
C451 Nd441 2.836 . S
C451 C452 1.498 . S
C451 O466 1.258 . S
C451 O467 1.239 . S
C452 C451 1.498 . S
C452 C453 1.366 . S
C452 C457 1.407 . S
C453 C452 1.366 . S
C453 C454 1.392 . S
C453 H476 0.930 . S
C454 C453 1.392 . S
C454 C455 1.398 1_554 S
C454 H477 0.929 1_554 S
C455 C454 1.398 1_556 S
C455 C456 1.352 1_556 S
C456 C455 1.352 1_554 S
C456 C457 1.384 . S
C456 H478 0.930 . S
C457 C452 1.407 . S
C457 C456 1.384 . S
C457 H479 0.929 . S
C458 O468 1.241 . S
C458 O469 1.273 . S
C459 O470 1.251 . S
C459 O471 1.268 . S
O460 Nd440 2.500 . S
O460 C442 1.258 . S
O461 Nd440 2.492 . S
O461 C442 1.239 . S
O462 Nd440 2.487 . S
O462 C449 1.241 . S
O463 Nd440 2.682 . S
O463 Nd441 2.414 . S
O463 C449 1.273 . S
O464 Nd440 2.410 . S
O464 C450 1.251 . S
O465 Nd441 2.424 . S
O465 C450 1.268 . S
O466 Nd441 2.500 . S
O466 C451 1.258 . S
O467 Nd441 2.492 . S
O467 C451 1.239 . S
O468 Nd441 2.487 . S
O468 C458 1.241 . S
O469 Nd440 2.414 . S
O469 Nd441 2.682 . S
O469 C458 1.273 . S
O470 Nd441 2.410 . S
O470 C459 1.251 . S
O471 Nd440 2.424 . S
O471 C459 1.268 . S
H472 C444 0.930 . S
H473 C445 0.929 1_545 S
H474 C447 0.930 1_545 S
H475 C448 0.929 . S
H476 C453 0.930 . S
H477 C454 0.929 1_556 S
H478 C456 0.930 . S
H479 C457 0.929 . S
Nd480 C482 2.836 . S
Nd480 O500 2.500 . S
Nd480 O501 2.492 . S
Nd480 O502 2.487 . S
Nd480 O503 2.682 . S
Nd480 O504 2.410 . S
Nd480 O509 2.414 . S
Nd480 O511 2.424 . S
Nd481 C491 2.836 . S
Nd481 O503 2.414 . S
Nd481 O505 2.424 . S
Nd481 O506 2.500 . S
Nd481 O507 2.492 . S
Nd481 O508 2.487 . S
Nd481 O509 2.682 . S
Nd481 O510 2.410 . S
C482 Nd480 2.836 . S
C482 C483 1.498 . S
C482 O500 1.258 . S
C482 O501 1.239 . S
C483 C482 1.498 . S
C483 C484 1.366 . S
C483 C488 1.407 . S
C484 C483 1.366 . S
C484 C485 1.392 . S
C484 H512 0.930 . S
C485 C484 1.392 . S
C485 C486 1.398 . S
C485 H513 0.929 . S
C486 C485 1.398 . S
C486 C487 1.352 . S
C487 C486 1.352 . S
C487 C488 1.384 . S
C487 H514 0.930 . S
C488 C483 1.407 . S
C488 C487 1.384 . S
C488 H515 0.929 . S
C489 O502 1.241 . S
C489 O503 1.273 . S
C490 O504 1.251 . S
C490 O505 1.268 . S
C491 Nd481 2.836 . S
C491 C492 1.498 . S
C491 O506 1.258 . S
C491 O507 1.239 . S
C492 C491 1.498 . S
C492 C493 1.366 . S
C492 C497 1.407 . S
C493 C492 1.366 . S
C493 C494 1.392 . S
C493 H516 0.930 . S
C494 C493 1.392 . S
C494 C495 1.398 . S
C494 H517 0.929 . S
C495 C494 1.398 . S
C495 C496 1.352 . S
C496 C495 1.352 . S
C496 C497 1.384 . S
C496 H518 0.930 . S
C497 C492 1.407 . S
C497 C496 1.384 . S
C497 H519 0.929 . S
C498 O508 1.241 . S
C498 O509 1.273 . S
C499 O510 1.251 . S
C499 O511 1.268 . S
O500 Nd480 2.500 . S
O500 C482 1.258 . S
O501 Nd480 2.492 . S
O501 C482 1.239 . S
O502 Nd480 2.487 . S
O502 C489 1.241 . S
O503 Nd480 2.682 . S
O503 Nd481 2.414 . S
O503 C489 1.273 . S
O504 Nd480 2.410 . S
O504 C490 1.251 . S
O505 Nd481 2.424 . S
O505 C490 1.268 . S
O506 Nd481 2.500 . S
O506 C491 1.258 . S
O507 Nd481 2.492 . S
O507 C491 1.239 . S
O508 Nd481 2.487 . S
O508 C498 1.241 . S
O509 Nd480 2.414 . S
O509 Nd481 2.682 . S
O509 C498 1.273 . S
O510 Nd481 2.410 . S
O510 C499 1.251 . S
O511 Nd480 2.424 . S
O511 C499 1.268 . S
H512 C484 0.930 . S
H513 C485 0.929 . S
H514 C487 0.930 . S
H515 C488 0.929 . S
H516 C493 0.930 . S
H517 C494 0.929 . S
H518 C496 0.930 . S
H519 C497 0.929 . S
Nd520 C522 2.836 . S
Nd520 O540 2.500 . S
Nd520 O541 2.492 . S
Nd520 O542 2.487 . S
Nd520 O543 2.682 . S
Nd520 O544 2.410 . S
Nd520 O549 2.414 . S
Nd520 O551 2.424 . S
Nd521 C531 2.836 . S
Nd521 O543 2.414 . S
Nd521 O545 2.424 . S
Nd521 O546 2.500 . S
Nd521 O547 2.492 . S
Nd521 O548 2.487 . S
Nd521 O549 2.682 . S
Nd521 O550 2.410 . S
C522 Nd520 2.836 . S
C522 C523 1.473 1_565 S
C522 O540 1.258 . S
C522 O541 1.239 . S
C523 C522 1.473 1_545 S
C523 C524 1.375 . S
C523 C528 1.425 . S
C524 C523 1.375 . S
C524 C525 1.392 . S
C524 H552 0.930 . S
C525 C524 1.392 . S
C525 C526 1.398 . S
C525 H553 0.929 . S
C526 C525 1.398 . S
C526 C527 1.352 . S
C527 C526 1.352 . S
C527 C528 1.384 . S
C527 H554 0.930 . S
C528 C523 1.425 . S
C528 C527 1.384 . S
C528 H555 0.929 1_545 S
C529 O542 1.241 . S
C529 O543 1.273 . S
C530 O544 1.251 . S
C530 O545 1.268 . S
C531 Nd521 2.836 . S
C531 C532 1.498 . S
C531 O546 1.258 . S
C531 O547 1.239 . S
C532 C531 1.498 . S
C532 C533 1.366 . S
C532 C537 1.407 . S
C533 C532 1.366 . S
C533 C534 1.392 . S
C533 H556 0.930 . S
C534 C533 1.392 . S
C534 C535 1.398 . S
C534 H557 0.929 . S
C535 C534 1.398 . S
C535 C536 1.352 . S
C536 C535 1.352 . S
C536 C537 1.384 . S
C536 H558 0.930 . S
C537 C532 1.407 . S
C537 C536 1.384 . S
C537 H559 0.929 . S
C538 O548 1.241 . S
C538 O549 1.273 . S
C539 O550 1.251 . S
C539 O551 1.268 . S
O540 Nd520 2.500 . S
O540 C522 1.258 . S
O541 Nd520 2.492 . S
O541 C522 1.239 . S
O542 Nd520 2.487 . S
O542 C529 1.241 . S
O543 Nd520 2.682 . S
O543 Nd521 2.414 . S
O543 C529 1.273 . S
O544 Nd520 2.410 . S
O544 C530 1.251 . S
O545 Nd521 2.424 . S
O545 C530 1.268 . S
O546 Nd521 2.500 . S
O546 C531 1.258 . S
O547 Nd521 2.492 . S
O547 C531 1.239 . S
O548 Nd521 2.487 . S
O548 C538 1.241 . S
O549 Nd520 2.414 . S
O549 Nd521 2.682 . S
O549 C538 1.273 . S
O550 Nd521 2.410 . S
O550 C539 1.251 . S
O551 Nd520 2.424 . S
O551 C539 1.268 . S
H552 C524 0.930 . S
H553 C525 0.929 . S
H554 C527 0.930 . S
H555 C528 0.929 1_565 S
H556 C533 0.930 . S
H557 C534 0.929 . S
H558 C536 0.930 . S
H559 C537 0.929 . S
Nd560 C562 2.836 . S
Nd560 O580 2.500 . S
Nd560 O581 2.492 1_556 S
Nd560 O582 2.478 1_556 S
Nd560 O583 2.682 . S
Nd560 O584 2.410 . S
Nd560 O589 2.414 . S
Nd560 O591 2.424 1_556 S
Nd561 C571 2.836 . S
Nd561 O583 2.414 . S
Nd561 O585 2.424 . S
Nd561 O586 2.500 . S
Nd561 O587 2.492 . S
Nd561 O588 2.487 . S
Nd561 O589 2.682 . S
Nd561 O590 2.410 . S
C562 Nd560 2.836 . S
C562 C563 1.498 . S
C562 O580 1.258 . S
C562 O581 1.239 1_556 S
C563 C562 1.498 . S
C563 C564 1.366 . S
C563 C568 1.407 1_556 S
C564 C563 1.366 . S
C564 C565 1.392 . S
C564 H592 0.930 . S
C565 C564 1.392 . S
C565 C566 1.398 . S
C565 H593 0.929 . S
C566 C565 1.398 . S
C566 C567 1.352 1_556 S
C567 C566 1.352 1_554 S
C567 C568 1.384 . S
C567 H594 0.930 . S
C568 C563 1.407 1_554 S
C568 C567 1.384 . S
C568 H595 0.929 . S
C569 O582 1.233 1_556 S
C569 O583 1.273 . S
C570 O584 1.251 . S
C570 O585 1.268 . S
C571 Nd561 2.836 . S
C571 C572 1.498 . S
C571 O586 1.258 . S
C571 O587 1.239 . S
C572 C571 1.498 . S
C572 C573 1.366 . S
C572 C577 1.407 . S
C573 C572 1.366 . S
C573 C574 1.392 . S
C573 H596 0.930 . S
C574 C573 1.392 . S
C574 C575 1.398 . S
C574 H597 0.929 . S
C575 C574 1.398 . S
C575 C576 1.352 . S
C576 C575 1.352 . S
C576 C577 1.384 . S
C576 H598 0.930 . S
C577 C572 1.407 . S
C577 C576 1.384 . S
C577 H599 0.929 . S
C578 O588 1.241 . S
C578 O589 1.273 . S
C579 O590 1.251 1_554 S
C579 O591 1.268 . S
O580 Nd560 2.500 . S
O580 C562 1.258 . S
O581 Nd560 2.492 1_554 S
O581 C562 1.239 1_554 S
O582 Nd560 2.478 1_554 S
O582 C569 1.233 1_554 S
O583 Nd560 2.682 . S
O583 Nd561 2.414 . S
O583 C569 1.273 . S
O584 Nd560 2.410 . S
O584 C570 1.251 . S
O585 Nd561 2.424 . S
O585 C570 1.268 . S
O586 Nd561 2.500 . S
O586 C571 1.258 . S
O587 Nd561 2.492 . S
O587 C571 1.239 . S
O588 Nd561 2.487 . S
O588 C578 1.241 . S
O589 Nd560 2.414 . S
O589 Nd561 2.682 . S
O589 C578 1.273 . S
O590 Nd561 2.410 . S
O590 C579 1.251 1_556 S
O591 Nd560 2.424 1_554 S
O591 C579 1.268 . S
H592 C564 0.930 . S
H593 C565 0.929 . S
H594 C567 0.930 . S
H595 C568 0.929 . S
H596 C573 0.930 . S
H597 C574 0.929 . S
H598 C576 0.930 . S
H599 C577 0.929 . S
Nd600 C602 2.836 . S
Nd600 O620 2.500 . S
Nd600 O621 2.492 . S
Nd600 O622 2.487 . S
Nd600 O623 2.682 . S
Nd600 O624 2.410 . S
Nd600 O629 2.414 . S
Nd600 O631 2.424 . S
Nd601 C611 2.836 . S
Nd601 O623 2.414 . S
Nd601 O625 2.424 . S
Nd601 O626 2.500 . S
Nd601 O627 2.492 . S
Nd601 O628 2.487 . S
Nd601 O629 2.682 . S
Nd601 O630 2.410 . S
C602 Nd600 2.836 . S
C602 C603 1.498 . S
C602 O620 1.258 . S
C602 O621 1.239 . S
C603 C602 1.498 . S
C603 C604 1.366 . S
C603 C608 1.407 . S
C604 C603 1.366 . S
C604 C605 1.392 . S
C604 H632 0.930 . S
C605 C604 1.392 . S
C605 C606 1.398 1_556 S
C605 H633 0.929 1_556 S
C606 C605 1.398 1_554 S
C606 C607 1.352 1_554 S
C607 C606 1.352 1_556 S
C607 C608 1.384 . S
C607 H634 0.930 . S
C608 C603 1.407 . S
C608 C607 1.384 . S
C608 H635 0.929 . S
C609 O622 1.241 . S
C609 O623 1.273 . S
C610 O624 1.251 . S
C610 O625 1.268 . S
C611 Nd601 2.836 . S
C611 C612 1.498 . S
C611 O626 1.258 . S
C611 O627 1.239 . S
C612 C611 1.498 . S
C612 C613 1.366 . S
C612 C617 1.407 . S
C613 C612 1.366 . S
C613 C614 1.392 . S
C613 H636 0.930 . S
C614 C613 1.392 . S
C614 C615 1.398 1_545 S
C614 H637 0.929 1_545 S
C615 C614 1.398 1_565 S
C615 C616 1.352 1_565 S
C616 C615 1.352 1_545 S
C616 C617 1.384 . S
C616 H638 0.930 1_545 S
C617 C612 1.407 . S
C617 C616 1.384 . S
C617 H639 0.929 . S
C618 O628 1.241 . S
C618 O629 1.273 . S
C619 O630 1.251 . S
C619 O631 1.268 . S
O620 Nd600 2.500 . S
O620 C602 1.258 . S
O621 Nd600 2.492 . S
O621 C602 1.239 . S
O622 Nd600 2.487 . S
O622 C609 1.241 . S
O623 Nd600 2.682 . S
O623 Nd601 2.414 . S
O623 C609 1.273 . S
O624 Nd600 2.410 . S
O624 C610 1.251 . S
O625 Nd601 2.424 . S
O625 C610 1.268 . S
O626 Nd601 2.500 . S
O626 C611 1.258 . S
O627 Nd601 2.492 . S
O627 C611 1.239 . S
O628 Nd601 2.487 . S
O628 C618 1.241 . S
O629 Nd600 2.414 . S
O629 Nd601 2.682 . S
O629 C618 1.273 . S
O630 Nd601 2.410 . S
O630 C619 1.251 . S
O631 Nd600 2.424 . S
O631 C619 1.268 . S
H632 C604 0.930 . S
H633 C605 0.929 1_554 S
H634 C607 0.930 . S
H635 C608 0.929 . S
H636 C613 0.930 . S
H637 C614 0.929 1_565 S
H638 C616 0.930 1_565 S
H639 C617 0.929 . S
C640 C641 1.363 . S
C640 C646 1.379 . S
C640 N648 1.356 . S
C641 C640 1.363 . S
C641 C647 1.363 . S
C642 C643 1.363 . S
C642 C647 1.379 . S
C642 N649 1.356 . S
C643 C642 1.363 . S
C643 C646 1.363 . S
N644 C646 1.356 . S
N644 H656 0.984 . S
N644 H657 0.985 . S
N645 C647 1.356 . S
N645 H650 0.984 . S
N645 H651 0.985 . S
C646 C640 1.379 . S
C646 C643 1.363 . S
C646 N644 1.356 . S
C647 C641 1.363 . S
C647 C642 1.379 . S
C647 N645 1.356 . S
N648 C640 1.356 . S
N648 H654 0.984 . S
N648 H655 0.984 . S
N649 C642 1.356 . S
N649 H652 0.984 . S
N649 H653 0.985 . S
H650 N645 0.984 . S
H651 N645 0.985 . S
H652 N649 0.984 . S
H653 N649 0.985 . S
H654 N648 0.984 . S
H655 N648 0.984 . S
H656 N644 0.984 . S
H657 N644 0.985 . S
C658 C659 1.363 . S
C658 C664 1.379 . S
C658 N666 1.356 . S
C659 C658 1.363 . S
C659 C665 1.363 . S
C660 C661 1.363 . S
C660 C665 1.379 . S
C660 N667 1.356 . S
C661 C660 1.363 . S
C661 C664 1.363 . S
N662 C664 1.356 . S
N662 H674 0.984 . S
N662 H675 0.985 . S
N663 C665 1.356 . S
N663 H668 0.984 . S
N663 H669 0.985 . S
C664 C658 1.379 . S
C664 C661 1.363 . S
C664 N662 1.356 . S
C665 C659 1.363 . S
C665 C660 1.379 . S
C665 N663 1.356 . S
N666 C658 1.356 . S
N666 H672 0.984 . S
N666 H673 0.984 . S
N667 C660 1.356 . S
N667 H670 0.984 . S
N667 H671 0.985 . S
H668 N663 0.984 . S
H669 N663 0.985 . S
H670 N667 0.984 . S
H671 N667 0.985 . S
H672 N666 0.984 . S
H673 N666 0.984 . S
H674 N662 0.984 . S
H675 N662 0.985 . S
C676 C677 1.363 . S
C676 C682 1.379 . S
C676 N684 1.356 1_655 S
C677 C676 1.363 . S
C677 C683 1.363 . S
C678 C679 1.363 . S
C678 C683 1.379 . S
C678 N685 1.356 . S
C679 C678 1.363 . S
C679 C682 1.363 . S
N680 C682 1.356 . S
N680 H692 0.984 . S
N680 H693 0.985 . S
N681 C683 1.356 . S
N681 H686 0.984 . S
N681 H687 0.985 . S
C682 C676 1.379 . S
C682 C679 1.363 . S
C682 N680 1.356 . S
C683 C677 1.363 . S
C683 C678 1.379 . S
C683 N681 1.356 . S
N684 C676 1.356 1_455 S
N684 H690 0.984 . S
N684 H691 0.984 . S
N685 C678 1.356 . S
N685 H688 0.984 . S
N685 H689 0.985 . S
H686 N681 0.984 . S
H687 N681 0.985 . S
H688 N685 0.984 . S
H689 N685 0.985 . S
H690 N684 0.984 . S
H691 N684 0.984 . S
H692 N680 0.984 . S
H693 N680 0.985 . S
C694 C695 1.363 . S
C694 C700 1.379 . S
C694 N702 1.356 . S
C695 C694 1.363 . S
C695 C701 1.363 . S
C696 C697 1.363 1_655 S
C696 C701 1.379 . S
C696 N703 1.356 . S
C697 C696 1.363 1_455 S
C697 C700 1.363 1_455 S
N698 C700 1.356 1_455 S
N698 H710 0.984 . S
N698 H711 0.985 . S
N699 C701 1.356 . S
N699 H704 0.984 . S
N699 H705 0.985 . S
C700 C694 1.379 . S
C700 C697 1.363 1_655 S
C700 N698 1.356 1_655 S
C701 C695 1.363 . S
C701 C696 1.379 . S
C701 N699 1.356 . S
N702 C694 1.356 . S
N702 H708 0.984 . S
N702 H709 0.984 . S
N703 C696 1.356 . S
N703 H706 0.984 1_655 S
N703 H707 0.985 . S
H704 N699 0.984 . S
H705 N699 0.985 . S
H706 N703 0.984 1_455 S
H707 N703 0.985 . S
H708 N702 0.984 . S
H709 N702 0.984 . S
H710 N698 0.984 . S
H711 N698 0.985 . S
C712 C713 1.363 . S
C712 C718 1.379 . S
C712 N720 1.356 . S
C713 C712 1.363 . S
C713 C719 1.363 . S
C714 C715 1.363 . S
C714 C719 1.379 . S
C714 N721 1.356 . S
C715 C714 1.363 . S
C715 C718 1.363 . S
N716 C718 1.356 . S
N716 H728 0.984 . S
N716 H729 0.985 . S
N717 C719 1.356 . S
N717 H722 0.984 . S
N717 H723 0.985 . S
C718 C712 1.379 . S
C718 C715 1.363 . S
C718 N716 1.356 . S
C719 C713 1.363 . S
C719 C714 1.379 . S
C719 N717 1.356 . S
N720 C712 1.356 . S
N720 H726 0.984 . S
N720 H727 0.984 . S
N721 C714 1.356 . S
N721 H724 0.984 . S
N721 H725 0.985 . S
H722 N717 0.984 . S
H723 N717 0.985 . S
H724 N721 0.984 . S
H725 N721 0.985 . S
H726 N720 0.984 . S
H727 N720 0.984 . S
H728 N716 0.984 . S
H729 N716 0.985 . S
C730 C731 1.363 . S
C730 C736 1.379 . S
C730 N738 1.356 . S
C731 C730 1.363 . S
C731 C737 1.363 . S
C732 C733 1.363 . S
C732 C737 1.379 . S
C732 N739 1.356 . S
C733 C732 1.363 . S
C733 C736 1.363 . S
N734 C736 1.356 . S
N734 H746 0.984 . S
N734 H747 0.985 . S
N735 C737 1.356 . S
N735 H740 0.984 . S
N735 H741 0.985 . S
C736 C730 1.379 . S
C736 C733 1.363 . S
C736 N734 1.356 . S
C737 C731 1.363 . S
C737 C732 1.379 . S
C737 N735 1.356 . S
N738 C730 1.356 . S
N738 H744 0.984 . S
N738 H745 0.984 . S
N739 C732 1.356 . S
N739 H742 0.984 . S
N739 H743 0.985 . S
H740 N735 0.984 . S
H741 N735 0.985 . S
H742 N739 0.984 . S
H743 N739 0.985 . S
H744 N738 0.984 . S
H745 N738 0.984 . S
H746 N734 0.984 . S
H747 N734 0.985 . S
C748 C749 1.363 . S
C748 C754 1.379 . S
C748 N756 1.356 . S
C749 C748 1.363 . S
C749 C755 1.363 . S
C750 C751 1.363 . S
C750 C755 1.379 . S
C750 N757 1.356 . S
C751 C750 1.363 . S
C751 C754 1.363 . S
N752 C754 1.356 . S
N752 H764 0.984 . S
N752 H765 0.985 . S
N753 C755 1.356 . S
N753 H758 0.984 . S
N753 H759 0.985 . S
C754 C748 1.379 . S
C754 C751 1.363 . S
C754 N752 1.356 . S
C755 C749 1.363 . S
C755 C750 1.379 . S
C755 N753 1.356 . S
N756 C748 1.356 . S
N756 H762 0.984 . S
N756 H763 0.984 . S
N757 C750 1.356 . S
N757 H760 0.984 . S
N757 H761 0.985 . S
H758 N753 0.984 . S
H759 N753 0.985 . S
H760 N757 0.984 . S
H761 N757 0.985 . S
H762 N756 0.984 . S
H763 N756 0.984 . S
H764 N752 0.984 . S
H765 N752 0.985 . S
C766 C767 1.363 . S
C766 C772 1.379 . S
C766 N774 1.356 . S
C767 C766 1.363 . S
C767 C773 1.363 . S
C768 C769 1.363 1_455 S
C768 C773 1.379 . S
C768 N775 1.356 1_455 S
C769 C768 1.363 1_655 S
C769 C772 1.363 1_655 S
N770 C772 1.356 1_655 S
N770 H782 0.984 . S
N770 H783 0.985 . S
N771 C773 1.356 . S
N771 H776 0.984 . S
N771 H777 0.985 . S
C772 C766 1.379 . S
C772 C769 1.363 1_455 S
C772 N770 1.356 1_455 S
C773 C767 1.363 . S
C773 C768 1.379 . S
C773 N771 1.356 . S
N774 C766 1.356 . S
N774 H780 0.984 . S
N774 H781 0.984 . S
N775 C768 1.356 1_655 S
N775 H778 0.984 . S
N775 H779 0.985 . S
H776 N771 0.984 . S
H777 N771 0.985 . S
H778 N775 0.984 . S
H779 N775 0.985 . S
H780 N774 0.984 . S
H781 N774 0.984 . S
H782 N770 0.984 . S
H783 N770 0.985 . S
C784 C785 1.363 . S
C784 C790 1.379 . S
C784 N792 1.356 . S
C785 C784 1.363 . S
C785 C791 1.363 . S
C786 C787 1.363 . S
C786 C791 1.379 . S
C786 N793 1.356 1_556 S
C787 C786 1.363 . S
C787 C790 1.363 . S
N788 C790 1.356 . S
N788 H800 0.984 . S
N788 H801 0.985 . S
N789 C791 1.356 1_554 S
N789 H794 0.984 1_554 S
N789 H795 0.985 . S
C790 C784 1.379 . S
C790 C787 1.363 . S
C790 N788 1.356 . S
C791 C785 1.363 . S
C791 C786 1.379 . S
C791 N789 1.356 1_556 S
N792 C784 1.356 . S
N792 H798 0.984 . S
N792 H799 0.984 . S
N793 C786 1.356 1_554 S
N793 H796 0.984 . S
N793 H797 0.985 . S
H794 N789 0.984 1_556 S
H795 N789 0.985 . S
H796 N793 0.984 . S
H797 N793 0.985 . S
H798 N792 0.984 . S
H799 N792 0.984 . S
H800 N788 0.984 . S
H801 N788 0.985 . S
C802 C803 1.363 . S
C802 C808 1.379 . S
C802 N810 1.356 . S
C803 C802 1.363 . S
C803 C809 1.363 . S
C804 C805 1.363 . S
C804 C809 1.379 . S
C804 N811 1.356 . S
C805 C804 1.363 . S
C805 C808 1.363 . S
N806 C808 1.356 . S
N806 H818 0.984 . S
N806 H819 0.985 . S
N807 C809 1.356 . S
N807 H812 0.984 . S
N807 H813 0.985 . S
C808 C802 1.379 . S
C808 C805 1.363 . S
C808 N806 1.356 . S
C809 C803 1.363 . S
C809 C804 1.379 . S
C809 N807 1.356 . S
N810 C802 1.356 . S
N810 H816 0.984 . S
N810 H817 0.984 . S
N811 C804 1.356 . S
N811 H814 0.984 . S
N811 H815 0.985 . S
H812 N807 0.984 . S
H813 N807 0.985 . S
H814 N811 0.984 . S
H815 N811 0.985 . S
H816 N810 0.984 . S
H817 N810 0.984 . S
H818 N806 0.984 . S
H819 N806 0.985 . S
C820 C821 1.363 . S
C820 C826 1.379 . S
C820 N828 1.356 . S
C821 C820 1.363 . S
C821 C827 1.363 . S
C822 C823 1.363 . S
C822 C827 1.379 . S
C822 N829 1.356 . S
C823 C822 1.363 . S
C823 C826 1.363 . S
N824 C826 1.356 . S
N824 H836 0.984 . S
N824 H837 0.985 . S
N825 C827 1.356 . S
N825 H830 0.984 . S
N825 H831 0.985 . S
C826 C820 1.379 . S
C826 C823 1.363 . S
C826 N824 1.356 . S
C827 C821 1.363 . S
C827 C822 1.379 . S
C827 N825 1.356 . S
N828 C820 1.356 . S
N828 H834 0.984 . S
N828 H835 0.984 . S
N829 C822 1.356 . S
N829 H832 0.984 . S
N829 H833 0.985 . S
H830 N825 0.984 . S
H831 N825 0.985 . S
H832 N829 0.984 . S
H833 N829 0.985 . S
H834 N828 0.984 . S
H835 N828 0.984 . S
H836 N824 0.984 . S
H837 N824 0.985 . S
C838 C839 1.363 . S
C838 C844 1.379 . S
C838 N846 1.356 . S
C839 C838 1.363 . S
C839 C845 1.363 . S
C840 C841 1.363 . S
C840 C845 1.379 . S
C840 N847 1.356 . S
C841 C840 1.363 . S
C841 C844 1.363 . S
N842 C844 1.356 . S
N842 H854 0.984 . S
N842 H855 0.985 . S
N843 C845 1.356 . S
N843 H848 0.984 . S
N843 H849 0.985 . S
C844 C838 1.379 . S
C844 C841 1.363 . S
C844 N842 1.356 . S
C845 C839 1.363 . S
C845 C840 1.379 . S
C845 N843 1.356 . S
N846 C838 1.356 . S
N846 H852 0.984 . S
N846 H853 0.984 . S
N847 C840 1.356 . S
N847 H850 0.984 . S
N847 H851 0.985 . S
H848 N843 0.984 . S
H849 N843 0.985 . S
H850 N847 0.984 . S
H851 N847 0.985 . S
H852 N846 0.984 . S
H853 N846 0.984 . S
H854 N842 0.984 . S
H855 N842 0.985 . S
C856 C857 1.363 . S
C856 C862 1.379 . S
C856 N864 1.356 . S
C857 C856 1.363 . S
C857 C863 1.363 . S
C858 C859 1.363 . S
C858 C863 1.379 . S
C858 N865 1.356 . S
C859 C858 1.363 . S
C859 C862 1.363 . S
N860 C862 1.356 . S
N860 H872 0.984 . S
N860 H873 0.985 . S
N861 C863 1.356 1_556 S
N861 H866 0.984 . S
N861 H867 0.985 . S
C862 C856 1.379 . S
C862 C859 1.363 . S
C862 N860 1.356 . S
C863 C857 1.363 . S
C863 C858 1.379 . S
C863 N861 1.356 1_554 S
N864 C856 1.356 . S
N864 H870 0.984 . S
N864 H871 0.984 . S
N865 C858 1.356 . S
N865 H868 0.984 . S
N865 H869 0.985 1_554 S
H866 N861 0.984 . S
H867 N861 0.985 . S
H868 N865 0.984 . S
H869 N865 0.985 1_556 S
H870 N864 0.984 . S
H871 N864 0.984 . S
H872 N860 0.984 . S
H873 N860 0.985 . S
C874 C875 1.363 . S
C874 C880 1.379 . S
C874 N882 1.356 . S
C875 C874 1.363 . S
C875 C881 1.363 . S
C876 C877 1.363 . S
C876 C881 1.379 . S
C876 N883 1.356 . S
C877 C876 1.363 . S
C877 C880 1.363 . S
N878 C880 1.356 . S
N878 H890 0.984 . S
N878 H891 0.985 . S
N879 C881 1.356 . S
N879 H884 0.984 . S
N879 H885 0.985 . S
C880 C874 1.379 . S
C880 C877 1.363 . S
C880 N878 1.356 . S
C881 C875 1.363 . S
C881 C876 1.379 . S
C881 N879 1.356 . S
N882 C874 1.356 . S
N882 H888 0.984 . S
N882 H889 0.984 . S
N883 C876 1.356 . S
N883 H886 0.984 . S
N883 H887 0.985 . S
H884 N879 0.984 . S
H885 N879 0.985 . S
H886 N883 0.984 . S
H887 N883 0.985 . S
H888 N882 0.984 . S
H889 N882 0.984 . S
H890 N878 0.984 . S
H891 N878 0.985 . S
C892 C893 1.363 . S
C892 C898 1.379 . S
C892 N900 1.356 . S
C893 C892 1.363 . S
C893 C899 1.363 . S
C894 C895 1.363 . S
C894 C899 1.379 . S
C894 N901 1.356 . S
C895 C894 1.363 . S
C895 C898 1.363 . S
N896 C898 1.356 . S
N896 H908 0.984 . S
N896 H909 0.985 . S
N897 C899 1.356 . S
N897 H902 0.984 . S
N897 H903 0.985 . S
C898 C892 1.379 . S
C898 C895 1.363 . S
C898 N896 1.356 . S
C899 C893 1.363 . S
C899 C894 1.379 . S
C899 N897 1.356 . S
N900 C892 1.356 . S
N900 H906 0.984 . S
N900 H907 0.984 . S
N901 C894 1.356 . S
N901 H904 0.984 . S
N901 H905 0.985 . S
H902 N897 0.984 . S
H903 N897 0.985 . S
H904 N901 0.984 . S
H905 N901 0.985 . S
H906 N900 0.984 . S
H907 N900 0.984 . S
H908 N896 0.984 . S
H909 N896 0.985 . S
C910 C911 1.363 . S
C910 C916 1.379 . S
C910 N918 1.356 . S
C911 C910 1.363 . S
C911 C917 1.363 . S
C912 C913 1.363 . S
C912 C917 1.379 . S
C912 N919 1.356 . S
C913 C912 1.363 . S
C913 C916 1.363 . S
N914 C916 1.356 . S
N914 H926 0.984 . S
N914 H927 0.985 . S
N915 C917 1.356 . S
N915 H920 0.984 . S
N915 H921 0.985 . S
C916 C910 1.379 . S
C916 C913 1.363 . S
C916 N914 1.356 . S
C917 C911 1.363 . S
C917 C912 1.379 . S
C917 N915 1.356 . S
N918 C910 1.356 . S
N918 H924 0.984 . S
N918 H925 0.984 . S
N919 C912 1.356 . S
N919 H922 0.984 . S
N919 H923 0.985 . S
H920 N915 0.984 . S
H921 N915 0.985 . S
H922 N919 0.984 . S
H923 N919 0.985 . S
H924 N918 0.984 . S
H925 N918 0.984 . S
H926 N914 0.984 . S
H927 N914 0.985 . S
C928 C929 1.363 . S
C928 C934 1.379 . S
C928 N936 1.356 . S
C929 C928 1.363 . S
C929 C935 1.363 . S
C930 C931 1.363 . S
C930 C935 1.379 . S
C930 N937 1.356 . S
C931 C930 1.363 . S
C931 C934 1.363 . S
N932 C934 1.356 . S
N932 H944 0.984 . S
N932 H945 0.985 . S
N933 C935 1.356 . S
N933 H938 0.984 . S
N933 H939 0.985 . S
C934 C928 1.379 . S
C934 C931 1.363 . S
C934 N932 1.356 . S
C935 C929 1.363 . S
C935 C930 1.379 . S
C935 N933 1.356 . S
N936 C928 1.356 . S
N936 H942 0.984 . S
N936 H943 0.984 . S
N937 C930 1.356 . S
N937 H940 0.984 . S
N937 H941 0.985 . S
H938 N933 0.984 . S
H939 N933 0.985 . S
H940 N937 0.984 . S
H941 N937 0.985 . S
H942 N936 0.984 . S
H943 N936 0.984 . S
H944 N932 0.984 . S
H945 N932 0.985 . S
C946 C947 1.363 . S
C946 C952 1.379 . S
C946 N954 1.356 . S
C947 C946 1.363 . S
C947 C953 1.363 . S
C948 C949 1.363 . S
C948 C953 1.379 . S
C948 N955 1.356 . S
C949 C948 1.363 . S
C949 C952 1.363 . S
N950 C952 1.356 . S
N950 H962 0.984 . S
N950 H963 0.985 . S
N951 C953 1.356 . S
N951 H956 0.984 . S
N951 H957 0.985 . S
C952 C946 1.379 . S
C952 C949 1.363 . S
C952 N950 1.356 . S
C953 C947 1.363 . S
C953 C948 1.379 . S
C953 N951 1.356 . S
N954 C946 1.356 . S
N954 H960 0.984 . S
N954 H961 0.984 . S
N955 C948 1.356 . S
N955 H958 0.984 . S
N955 H959 0.985 . S
H956 N951 0.984 . S
H957 N951 0.985 . S
H958 N955 0.984 . S
H959 N955 0.985 . S
H960 N954 0.984 . S
H961 N954 0.984 . S
H962 N950 0.984 . S
H963 N950 0.985 . S
C964 C965 1.363 . S
C964 C970 1.379 . S
C964 N972 1.368 . S
C965 C964 1.363 . S
C965 C971 1.363 . S
C966 C967 1.363 . S
C966 C971 1.379 . S
C966 N973 1.356 . S
C967 C966 1.363 . S
C967 C970 1.363 . S
N968 C970 1.356 . S
N968 H980 0.984 . S
N968 H981 0.985 . S
N969 C971 1.356 . S
N969 H974 0.984 . S
N969 H975 0.985 . S
C970 C964 1.379 . S
C970 C967 1.363 . S
C970 N968 1.356 . S
C971 C965 1.363 . S
C971 C966 1.379 . S
C971 N969 1.356 . S
N972 C964 1.368 . S
N972 H978 0.989 1_556 S
N972 H979 0.969 1_556 S
N973 C966 1.356 . S
N973 H976 0.984 . S
N973 H977 0.985 . S
H974 N969 0.984 . S
H975 N969 0.985 . S
H976 N973 0.984 . S
H977 N973 0.985 . S
H978 N972 0.989 1_554 S
H979 N972 0.969 1_554 S
H980 N968 0.984 . S
H981 N968 0.985 . S
C982 C983 1.363 . S
C982 C988 1.379 . S
C982 N990 1.356 . S
C983 C982 1.363 . S
C983 C989 1.363 . S
C984 C985 1.363 . S
C984 C989 1.379 . S
C984 N991 1.356 . S
C985 C984 1.363 . S
C985 C988 1.363 . S
N986 C988 1.356 . S
N986 H998 0.984 . S
N986 H999 0.985 . S
N987 C989 1.356 1_565 S
N987 H992 0.984 . S
N987 H993 0.985 . S
C988 C982 1.379 . S
C988 C985 1.363 . S
C988 N986 1.356 . S
C989 C983 1.363 . S
C989 C984 1.379 . S
C989 N987 1.356 1_545 S
N990 C982 1.356 . S
N990 H996 0.984 . S
N990 H997 0.984 1_545 S
N991 C984 1.356 . S
N991 H994 0.984 . S
N991 H995 0.985 . S
H992 N987 0.984 . S
H993 N987 0.985 . S
H994 N991 0.984 . S
H995 N991 0.985 . S
H996 N990 0.984 . S
H997 N990 0.984 1_565 S
H998 N986 0.984 . S
H999 N986 0.985 . S
C1000 C1001 1.363 . S
C1000 C1006 1.379 . S
C1000 N1008 1.356 . S
C1001 C1000 1.363 . S
C1001 C1007 1.363 . S
C1002 C1003 1.363 . S
C1002 C1007 1.379 . S
C1002 N1009 1.356 . S
C1003 C1002 1.363 . S
C1003 C1006 1.363 . S
N1004 C1006 1.356 . S
N1004 H1016 0.984 . S
N1004 H1017 0.985 . S
N1005 C1007 1.356 . S
N1005 H1010 0.984 . S
N1005 H1011 0.985 . S
C1006 C1000 1.379 . S
C1006 C1003 1.363 . S
C1006 N1004 1.356 . S
C1007 C1001 1.363 . S
C1007 C1002 1.379 . S
C1007 N1005 1.356 . S
N1008 C1000 1.356 . S
N1008 H1014 0.984 . S
N1008 H1015 0.984 . S
N1009 C1002 1.356 . S
N1009 H1012 0.984 . S
N1009 H1013 0.985 . S
H1010 N1005 0.984 . S
H1011 N1005 0.985 . S
H1012 N1009 0.984 . S
H1013 N1009 0.985 . S
H1014 N1008 0.984 . S
H1015 N1008 0.984 . S
H1016 N1004 0.984 . S
H1017 N1004 0.985 . S
C1018 C1019 1.363 . S
C1018 C1024 1.379 . S
C1018 N1026 1.356 . S
C1019 C1018 1.363 . S
C1019 C1025 1.363 . S
C1020 C1021 1.363 . S
C1020 C1025 1.379 . S
C1020 N1027 1.356 . S
C1021 C1020 1.363 . S
C1021 C1024 1.363 . S
N1022 C1024 1.356 . S
N1022 H1034 0.984 . S
N1022 H1035 0.985 . S
N1023 C1025 1.356 . S
N1023 H1028 0.984 . S
N1023 H1029 0.985 . S
C1024 C1018 1.379 . S
C1024 C1021 1.363 . S
C1024 N1022 1.356 . S
C1025 C1019 1.363 . S
C1025 C1020 1.379 . S
C1025 N1023 1.356 . S
N1026 C1018 1.356 . S
N1026 H1032 0.984 . S
N1026 H1033 0.984 . S
N1027 C1020 1.356 . S
N1027 H1030 0.984 . S
N1027 H1031 0.985 . S
H1028 N1023 0.984 . S
H1029 N1023 0.985 . S
H1030 N1027 0.984 . S
H1031 N1027 0.985 . S
H1032 N1026 0.984 . S
H1033 N1026 0.984 . S
H1034 N1022 0.984 . S
H1035 N1022 0.985 . S
C1036 C1037 1.363 . S
C1036 C1042 1.379 . S
C1036 N1044 1.356 . S
C1037 C1036 1.363 . S
C1037 C1043 1.363 . S
C1038 C1039 1.363 . S
C1038 C1043 1.379 . S
C1038 N1045 1.356 . S
C1039 C1038 1.363 . S
C1039 C1042 1.363 . S
N1040 C1042 1.342 1_556 S
N1040 H1052 0.980 . S
N1040 H1053 1.004 . S
N1041 C1043 1.356 . S
N1041 H1046 0.984 . S
N1041 H1047 0.985 . S
C1042 C1036 1.379 . S
C1042 C1039 1.363 . S
C1042 N1040 1.342 1_554 S
C1043 C1037 1.363 . S
C1043 C1038 1.379 . S
C1043 N1041 1.356 . S
N1044 C1036 1.356 . S
N1044 H1050 0.984 . S
N1044 H1051 0.984 . S
N1045 C1038 1.356 . S
N1045 H1048 0.984 . S
N1045 H1049 0.985 . S
H1046 N1041 0.984 . S
H1047 N1041 0.985 . S
H1048 N1045 0.984 . S
H1049 N1045 0.985 . S
H1050 N1044 0.984 . S
H1051 N1044 0.984 . S
H1052 N1040 0.980 . S
H1053 N1040 1.004 . S
C1054 C1055 1.363 . S
C1054 C1060 1.379 . S
C1054 N1062 1.356 1_565 S
C1055 C1054 1.363 . S
C1055 C1061 1.363 . S
C1056 C1057 1.363 . S
C1056 C1061 1.379 . S
C1056 N1063 1.356 . S
C1057 C1056 1.363 . S
C1057 C1060 1.363 . S
N1058 C1060 1.356 . S
N1058 H1070 0.984 . S
N1058 H1071 0.985 . S
N1059 C1061 1.356 . S
N1059 H1064 0.984 1_565 S
N1059 H1065 0.985 . S
C1060 C1054 1.379 . S
C1060 C1057 1.363 . S
C1060 N1058 1.356 . S
C1061 C1055 1.363 . S
C1061 C1056 1.379 . S
C1061 N1059 1.356 . S
N1062 C1054 1.356 1_545 S
N1062 H1068 0.984 . S
N1062 H1069 0.984 . S
N1063 C1056 1.356 . S
N1063 H1066 0.984 . S
N1063 H1067 0.985 . S
H1064 N1059 0.984 1_545 S
H1065 N1059 0.985 . S
H1066 N1063 0.984 . S
H1067 N1063 0.985 . S
H1068 N1062 0.984 . S
H1069 N1062 0.984 . S
H1070 N1058 0.984 . S
H1071 N1058 0.985 . S
C1072 C1073 1.363 . S
C1072 C1078 1.379 . S
C1072 N1080 1.356 . S
C1073 C1072 1.363 . S
C1073 C1079 1.363 . S
C1074 C1075 1.363 . S
C1074 C1079 1.379 . S
C1074 N1081 1.356 . S
C1075 C1074 1.363 . S
C1075 C1078 1.363 . S
N1076 C1078 1.356 . S
N1076 H1088 0.984 . S
N1076 H1089 0.985 . S
N1077 C1079 1.356 . S
N1077 H1082 0.984 . S
N1077 H1083 0.985 . S
C1078 C1072 1.379 . S
C1078 C1075 1.363 . S
C1078 N1076 1.356 . S
C1079 C1073 1.363 . S
C1079 C1074 1.379 . S
C1079 N1077 1.356 . S
N1080 C1072 1.356 . S
N1080 H1086 0.984 . S
N1080 H1087 0.984 . S
N1081 C1074 1.356 . S
N1081 H1084 0.984 . S
N1081 H1085 0.985 . S
H1082 N1077 0.984 . S
H1083 N1077 0.985 . S
H1084 N1081 0.984 . S
H1085 N1081 0.985 . S
H1086 N1080 0.984 . S
H1087 N1080 0.984 . S
H1088 N1076 0.984 . S
H1089 N1076 0.985 . S
C1090 C1091 1.363 . S
C1090 C1096 1.379 . S
C1090 N1098 1.356 . S
C1091 C1090 1.363 . S
C1091 C1097 1.363 . S
C1092 C1093 1.363 . S
C1092 C1097 1.379 . S
C1092 N1099 1.356 . S
C1093 C1092 1.363 . S
C1093 C1096 1.363 . S
N1094 C1096 1.356 . S
N1094 H1106 0.984 . S
N1094 H1107 0.985 . S
N1095 C1097 1.356 . S
N1095 H1100 0.984 . S
N1095 H1101 0.985 . S
C1096 C1090 1.379 . S
C1096 C1093 1.363 . S
C1096 N1094 1.356 . S
C1097 C1091 1.363 . S
C1097 C1092 1.379 . S
C1097 N1095 1.356 . S
N1098 C1090 1.356 . S
N1098 H1104 0.984 . S
N1098 H1105 0.984 . S
N1099 C1092 1.356 . S
N1099 H1102 0.984 . S
N1099 H1103 0.985 . S
H1100 N1095 0.984 . S
H1101 N1095 0.985 . S
H1102 N1099 0.984 . S
H1103 N1099 0.985 . S
H1104 N1098 0.984 . S
H1105 N1098 0.984 . S
H1106 N1094 0.984 . S
H1107 N1094 0.985 . S
C1108 C1109 1.363 . S
C1108 C1114 1.379 . S
C1108 N1116 1.356 1_455 S
C1109 C1108 1.363 . S
C1109 C1115 1.363 . S
C1110 C1111 1.363 . S
C1110 C1115 1.379 . S
C1110 N1117 1.356 . S
C1111 C1110 1.363 . S
C1111 C1114 1.363 . S
N1112 C1114 1.356 . S
N1112 H1124 0.984 . S
N1112 H1125 0.985 . S
N1113 C1115 1.356 . S
N1113 H1118 0.984 1_455 S
N1113 H1119 0.985 . S
C1114 C1108 1.379 . S
C1114 C1111 1.363 . S
C1114 N1112 1.356 . S
C1115 C1109 1.363 . S
C1115 C1110 1.379 . S
C1115 N1113 1.356 . S
N1116 C1108 1.356 1_655 S
N1116 H1122 0.984 . S
N1116 H1123 0.984 . S
N1117 C1110 1.356 . S
N1117 H1120 0.984 . S
N1117 H1121 0.985 . S
H1118 N1113 0.984 1_655 S
H1119 N1113 0.985 . S
H1120 N1117 0.984 . S
H1121 N1117 0.985 . S
H1122 N1116 0.984 . S
H1123 N1116 0.984 . S
H1124 N1112 0.984 . S
H1125 N1112 0.985 . S
C1126 C1127 1.363 . S
C1126 C1132 1.379 . S
C1126 N1134 1.356 . S
C1127 C1126 1.363 . S
C1127 C1133 1.363 . S
C1128 C1129 1.363 . S
C1128 C1133 1.379 . S
C1128 N1135 1.356 . S
C1129 C1128 1.363 . S
C1129 C1132 1.363 . S
N1130 C1132 1.356 . S
N1130 H1142 0.984 . S
N1130 H1143 0.985 . S
N1131 C1133 1.356 . S
N1131 H1136 0.984 . S
N1131 H1137 0.985 . S
C1132 C1126 1.379 . S
C1132 C1129 1.363 . S
C1132 N1130 1.356 . S
C1133 C1127 1.363 . S
C1133 C1128 1.379 . S
C1133 N1131 1.356 . S
N1134 C1126 1.356 . S
N1134 H1140 0.984 . S
N1134 H1141 0.984 . S
N1135 C1128 1.356 . S
N1135 H1138 0.984 . S
N1135 H1139 0.985 . S
H1136 N1131 0.984 . S
H1137 N1131 0.985 . S
H1138 N1135 0.984 . S
H1139 N1135 0.985 . S
H1140 N1134 0.984 . S
H1141 N1134 0.984 . S
H1142 N1130 0.984 . S
H1143 N1130 0.985 . S
C1144 C1145 1.363 . S
C1144 C1150 1.379 . S
C1144 N1152 1.356 . S
C1145 C1144 1.363 . S
C1145 C1151 1.363 . S
C1146 C1147 1.363 . S
C1146 C1151 1.379 . S
C1146 N1153 1.356 . S
C1147 C1146 1.363 . S
C1147 C1150 1.363 . S
N1148 C1150 1.356 . S
N1148 H1160 0.984 . S
N1148 H1161 0.985 . S
N1149 C1151 1.356 . S
N1149 H1154 0.984 . S
N1149 H1155 0.985 . S
C1150 C1144 1.379 . S
C1150 C1147 1.363 . S
C1150 N1148 1.356 . S
C1151 C1145 1.363 . S
C1151 C1146 1.379 . S
C1151 N1149 1.356 . S
N1152 C1144 1.356 . S
N1152 H1158 0.984 . S
N1152 H1159 0.984 . S
N1153 C1146 1.356 . S
N1153 H1156 0.984 . S
N1153 H1157 0.985 . S
H1154 N1149 0.984 . S
H1155 N1149 0.985 . S
H1156 N1153 0.984 . S
H1157 N1153 0.985 . S
H1158 N1152 0.984 . S
H1159 N1152 0.984 . S
H1160 N1148 0.984 . S
H1161 N1148 0.985 . S
C1162 C1163 1.363 . S
C1162 C1168 1.379 . S
C1162 N1170 1.356 . S
C1163 C1162 1.363 . S
C1163 C1169 1.363 . S
C1164 C1165 1.363 . S
C1164 C1169 1.379 . S
C1164 N1171 1.356 . S
C1165 C1164 1.363 . S
C1165 C1168 1.363 . S
N1166 C1168 1.356 . S
N1166 H1178 0.984 1_556 S
N1166 H1179 0.985 . S
N1167 C1169 1.356 . S
N1167 H1172 0.984 . S
N1167 H1173 0.985 . S
C1168 C1162 1.379 . S
C1168 C1165 1.363 . S
C1168 N1166 1.356 . S
C1169 C1163 1.363 . S
C1169 C1164 1.379 . S
C1169 N1167 1.356 . S
N1170 C1162 1.356 . S
N1170 H1176 0.984 . S
N1170 H1177 0.984 . S
N1171 C1164 1.356 . S
N1171 H1174 0.984 . S
N1171 H1175 0.985 . S
H1172 N1167 0.984 . S
H1173 N1167 0.985 . S
H1174 N1171 0.984 . S
H1175 N1171 0.985 . S
H1176 N1170 0.984 . S
H1177 N1170 0.984 . S
H1178 N1166 0.984 1_554 S
H1179 N1166 0.985 . S
C1180 C1181 1.363 . S
C1180 C1186 1.379 . S
C1180 N1188 1.375 . S
C1181 C1180 1.363 . S
C1181 C1187 1.363 . S
C1182 C1183 1.363 . S
C1182 C1187 1.379 . S
C1182 N1189 1.356 . S
C1183 C1182 1.363 . S
C1183 C1186 1.363 . S
N1184 C1186 1.356 . S
N1184 H1196 0.984 . S
N1184 H1197 0.985 . S
N1185 C1187 1.356 . S
N1185 H1190 0.984 1_655 S
N1185 H1191 0.985 . S
C1186 C1180 1.379 . S
C1186 C1183 1.363 . S
C1186 N1184 1.356 . S
C1187 C1181 1.363 . S
C1187 C1182 1.379 . S
C1187 N1185 1.356 . S
N1188 C1180 1.375 . S
N1188 H1194 0.984 . S
N1188 H1195 0.967 1_655 S
N1189 C1182 1.356 . S
N1189 H1192 0.984 . S
N1189 H1193 0.985 . S
H1190 N1185 0.984 1_455 S
H1191 N1185 0.985 . S
H1192 N1189 0.984 . S
H1193 N1189 0.985 . S
H1194 N1188 0.984 . S
H1195 N1188 0.967 1_455 S
H1196 N1184 0.984 . S
H1197 N1184 0.985 . S
C1198 C1199 1.363 . S
C1198 C1204 1.379 . S
C1198 N1206 1.356 . S
C1199 C1198 1.363 . S
C1199 C1205 1.363 . S
C1200 C1201 1.363 . S
C1200 C1205 1.379 . S
C1200 N1207 1.356 . S
C1201 C1200 1.363 . S
C1201 C1204 1.363 . S
N1202 C1204 1.356 . S
N1202 H1214 0.984 . S
N1202 H1215 0.985 . S
N1203 C1205 1.356 . S
N1203 H1208 0.984 . S
N1203 H1209 0.985 . S
C1204 C1198 1.379 . S
C1204 C1201 1.363 . S
C1204 N1202 1.356 . S
C1205 C1199 1.363 . S
C1205 C1200 1.379 . S
C1205 N1203 1.356 . S
N1206 C1198 1.356 . S
N1206 H1212 0.984 . S
N1206 H1213 0.984 . S
N1207 C1200 1.356 . S
N1207 H1210 0.984 . S
N1207 H1211 0.985 . S
H1208 N1203 0.984 . S
H1209 N1203 0.985 . S
H1210 N1207 0.984 . S
H1211 N1207 0.985 . S
H1212 N1206 0.984 . S
H1213 N1206 0.984 . S
H1214 N1202 0.984 . S
H1215 N1202 0.985 . S
C1216 C1217 1.363 . S
C1216 C1222 1.379 . S
C1216 N1224 1.356 . S
C1217 C1216 1.363 . S
C1217 C1223 1.363 . S
C1218 C1219 1.363 . S
C1218 C1223 1.379 . S
C1218 N1225 1.356 . S
C1219 C1218 1.363 . S
C1219 C1222 1.363 . S
N1220 C1222 1.356 . S
N1220 H1232 0.984 . S
N1220 H1233 0.985 . S
N1221 C1223 1.356 1_655 S
N1221 H1226 0.984 . S
N1221 H1227 0.985 . S
C1222 C1216 1.379 . S
C1222 C1219 1.363 . S
C1222 N1220 1.356 . S
C1223 C1217 1.363 . S
C1223 C1218 1.379 . S
C1223 N1221 1.356 1_455 S
N1224 C1216 1.356 . S
N1224 H1230 0.984 . S
N1224 H1231 0.984 . S
N1225 C1218 1.356 . S
N1225 H1228 0.984 . S
N1225 H1229 0.985 . S
H1226 N1221 0.984 . S
H1227 N1221 0.985 . S
H1228 N1225 0.984 . S
H1229 N1225 0.985 . S
H1230 N1224 0.984 . S
H1231 N1224 0.984 . S
H1232 N1220 0.984 . S
H1233 N1220 0.985 . S
C1234 C1235 1.363 . S
C1234 C1240 1.379 . S
C1234 N1242 1.356 . S
C1235 C1234 1.363 . S
C1235 C1241 1.363 . S
C1236 C1237 1.363 . S
C1236 C1241 1.379 . S
C1236 N1243 1.356 . S
C1237 C1236 1.363 . S
C1237 C1240 1.363 . S
N1238 C1240 1.356 . S
N1238 H1250 0.984 . S
N1238 H1251 0.985 . S
N1239 C1241 1.356 . S
N1239 H1244 0.984 . S
N1239 H1245 0.985 . S
C1240 C1234 1.379 . S
C1240 C1237 1.363 . S
C1240 N1238 1.356 . S
C1241 C1235 1.363 . S
C1241 C1236 1.379 . S
C1241 N1239 1.356 . S
N1242 C1234 1.356 . S
N1242 H1248 0.984 . S
N1242 H1249 0.984 . S
N1243 C1236 1.356 . S
N1243 H1246 0.984 . S
N1243 H1247 0.985 . S
H1244 N1239 0.984 . S
H1245 N1239 0.985 . S
H1246 N1243 0.984 . S
H1247 N1243 0.985 . S
H1248 N1242 0.984 . S
H1249 N1242 0.984 . S
H1250 N1238 0.984 . S
H1251 N1238 0.985 . S
C1252 C1253 1.363 . S
C1252 C1258 1.379 . S
C1252 N1260 1.356 . S
C1253 C1252 1.363 . S
C1253 C1259 1.363 . S
C1254 C1255 1.363 . S
C1254 C1259 1.379 . S
C1254 N1261 1.356 . S
C1255 C1254 1.363 . S
C1255 C1258 1.363 . S
N1256 C1258 1.356 . S
N1256 H1268 0.984 . S
N1256 H1269 0.985 . S
N1257 C1259 1.356 . S
N1257 H1262 0.984 . S
N1257 H1263 0.985 . S
C1258 C1252 1.379 . S
C1258 C1255 1.363 . S
C1258 N1256 1.356 . S
C1259 C1253 1.363 . S
C1259 C1254 1.379 . S
C1259 N1257 1.356 . S
N1260 C1252 1.356 . S
N1260 H1266 0.984 . S
N1260 H1267 0.984 . S
N1261 C1254 1.356 . S
N1261 H1264 0.995 . S
N1261 H1265 0.985 . S
H1262 N1257 0.984 . S
H1263 N1257 0.985 . S
H1264 N1261 0.995 . S
H1265 N1261 0.985 . S
H1266 N1260 0.984 . S
H1267 N1260 0.984 . S
H1268 N1256 0.984 . S
H1269 N1256 0.985 . S
C1270 C1271 1.363 . S
C1270 C1276 1.379 . S
C1270 N1278 1.356 . S
C1271 C1270 1.363 . S
C1271 C1277 1.363 1_556 S
C1272 C1273 1.363 1_554 S
C1272 C1277 1.379 . S
C1272 N1279 1.356 . S
C1273 C1272 1.363 1_556 S
C1273 C1276 1.363 . S
N1274 C1276 1.356 . S
N1274 H1286 0.984 . S
N1274 H1287 0.985 . S
N1275 C1277 1.356 . S
N1275 H1280 0.984 . S
N1275 H1281 0.985 . S
C1276 C1270 1.379 . S
C1276 C1273 1.363 . S
C1276 N1274 1.356 . S
C1277 C1271 1.363 1_554 S
C1277 C1272 1.379 . S
C1277 N1275 1.356 . S
N1278 C1270 1.356 . S
N1278 H1284 0.984 . S
N1278 H1285 0.984 . S
N1279 C1272 1.356 . S
N1279 H1282 0.984 . S
N1279 H1283 0.985 . S
H1280 N1275 0.984 . S
H1281 N1275 0.985 . S
H1282 N1279 0.984 . S
H1283 N1279 0.985 . S
H1284 N1278 0.984 . S
H1285 N1278 0.984 . S
H1286 N1274 0.984 . S
H1287 N1274 0.985 . S
C1288 C1289 1.363 . S
C1288 C1294 1.379 . S
C1288 N1296 1.356 . S
C1289 C1288 1.363 . S
C1289 C1295 1.363 . S
C1290 C1291 1.363 . S
C1290 C1295 1.379 . S
C1290 N1297 1.356 . S
C1291 C1290 1.363 . S
C1291 C1294 1.363 . S
N1292 C1294 1.356 . S
N1292 H1304 0.984 . S
N1292 H1305 0.985 . S
N1293 C1295 1.356 1_455 S
N1293 H1298 0.984 . S
N1293 H1299 0.985 . S
C1294 C1288 1.379 . S
C1294 C1291 1.363 . S
C1294 N1292 1.356 . S
C1295 C1289 1.363 . S
C1295 C1290 1.379 . S
C1295 N1293 1.356 1_655 S
N1296 C1288 1.356 . S
N1296 H1302 0.984 . S
N1296 H1303 0.984 1_655 S
N1297 C1290 1.356 . S
N1297 H1300 0.984 . S
N1297 H1301 0.985 . S
H1298 N1293 0.984 . S
H1299 N1293 0.985 . S
H1300 N1297 0.984 . S
H1301 N1297 0.985 . S
H1302 N1296 0.984 . S
H1303 N1296 0.984 1_455 S
H1304 N1292 0.984 . S
H1305 N1292 0.985 . S
C1306 C1307 1.363 . S
C1306 C1312 1.379 . S
C1306 N1314 1.356 . S
C1307 C1306 1.363 . S
C1307 C1313 1.363 . S
C1308 C1309 1.363 . S
C1308 C1313 1.379 . S
C1308 N1315 1.356 . S
C1309 C1308 1.363 . S
C1309 C1312 1.363 . S
N1310 C1312 1.356 . S
N1310 H1322 0.984 . S
N1310 H1323 0.985 . S
N1311 C1313 1.356 . S
N1311 H1316 0.984 . S
N1311 H1317 0.985 . S
C1312 C1306 1.379 . S
C1312 C1309 1.363 . S
C1312 N1310 1.356 . S
C1313 C1307 1.363 . S
C1313 C1308 1.379 . S
C1313 N1311 1.356 . S
N1314 C1306 1.356 . S
N1314 H1320 0.984 . S
N1314 H1321 0.984 . S
N1315 C1308 1.356 . S
N1315 H1318 0.984 . S
N1315 H1319 0.985 . S
H1316 N1311 0.984 . S
H1317 N1311 0.985 . S
H1318 N1315 0.984 . S
H1319 N1315 0.985 . S
H1320 N1314 0.984 . S
H1321 N1314 0.984 . S
H1322 N1310 0.984 . S
H1323 N1310 0.985 . S
C1324 C1325 1.363 . S
C1324 C1330 1.379 . S
C1324 N1332 1.356 . S
C1325 C1324 1.363 . S
C1325 C1331 1.363 . S
C1326 C1327 1.363 . S
C1326 C1331 1.379 . S
C1326 N1333 1.356 . S
C1327 C1326 1.363 . S
C1327 C1330 1.363 . S
N1328 C1330 1.356 . S
N1328 H1340 0.984 . S
N1328 H1341 0.985 . S
N1329 C1331 1.356 . S
N1329 H1334 0.984 . S
N1329 H1335 0.985 . S
C1330 C1324 1.379 . S
C1330 C1327 1.363 . S
C1330 N1328 1.356 . S
C1331 C1325 1.363 . S
C1331 C1326 1.379 . S
C1331 N1329 1.356 . S
N1332 C1324 1.356 . S
N1332 H1338 0.984 1_554 S
N1332 H1339 0.984 1_554 S
N1333 C1326 1.356 . S
N1333 H1336 0.984 . S
N1333 H1337 0.985 . S
H1334 N1329 0.984 . S
H1335 N1329 0.985 . S
H1336 N1333 0.984 . S
H1337 N1333 0.985 . S
H1338 N1332 0.984 1_556 S
H1339 N1332 0.984 1_556 S
H1340 N1328 0.984 . S
H1341 N1328 0.985 . S
C1342 C1343 1.363 1_556 S
C1342 C1348 1.379 . S
C1342 N1350 1.356 . S
C1343 C1342 1.363 1_554 S
C1343 C1349 1.363 . S
C1344 C1345 1.363 . S
C1344 C1349 1.379 . S
C1344 N1351 1.356 . S
C1345 C1344 1.363 . S
C1345 C1348 1.363 1_554 S
N1346 C1348 1.356 . S
N1346 H1358 0.984 . S
N1346 H1359 0.985 . S
N1347 C1349 1.356 . S
N1347 H1352 0.984 . S
N1347 H1353 0.985 . S
C1348 C1342 1.379 . S
C1348 C1345 1.363 1_556 S
C1348 N1346 1.356 . S
C1349 C1343 1.363 . S
C1349 C1344 1.379 . S
C1349 N1347 1.356 . S
N1350 C1342 1.356 . S
N1350 H1356 0.984 . S
N1350 H1357 0.984 . S
N1351 C1344 1.356 . S
N1351 H1354 0.984 . S
N1351 H1355 0.985 . S
H1352 N1347 0.984 . S
H1353 N1347 0.985 . S
H1354 N1351 0.984 . S
H1355 N1351 0.985 . S
H1356 N1350 0.984 . S
H1357 N1350 0.984 . S
H1358 N1346 0.984 . S
H1359 N1346 0.985 . S
C1360 C1361 1.363 . S
C1360 C1366 1.379 . S
C1360 N1368 1.356 . S
C1361 C1360 1.363 . S
C1361 C1367 1.363 . S
C1362 C1363 1.363 . S
C1362 C1367 1.379 . S
C1362 N1369 1.356 . S
C1363 C1362 1.363 . S
C1363 C1366 1.363 . S
N1364 C1366 1.356 . S
N1364 H1376 0.984 . S
N1364 H1377 0.985 . S
N1365 C1367 1.356 . S
N1365 H1370 0.984 . S
N1365 H1371 0.985 . S
C1366 C1360 1.379 . S
C1366 C1363 1.363 . S
C1366 N1364 1.356 . S
C1367 C1361 1.363 . S
C1367 C1362 1.379 . S
C1367 N1365 1.356 . S
N1368 C1360 1.356 . S
N1368 H1374 0.984 . S
N1368 H1375 0.984 . S
N1369 C1362 1.356 . S
N1369 H1372 0.984 . S
N1369 H1373 0.985 . S
H1370 N1365 0.984 . S
H1371 N1365 0.985 . S
H1372 N1369 0.984 . S
H1373 N1369 0.985 . S
H1374 N1368 0.984 . S
H1375 N1368 0.984 . S
H1376 N1364 0.984 . S
H1377 N1364 0.985 . S
C1378 C1379 1.363 . S
C1378 C1384 1.379 . S
C1378 N1386 1.356 . S
C1379 C1378 1.363 . S
C1379 C1385 1.363 . S
C1380 C1381 1.363 . S
C1380 C1385 1.379 . S
C1380 N1387 1.356 . S
C1381 C1380 1.363 . S
C1381 C1384 1.363 . S
N1382 C1384 1.356 . S
N1382 H1394 0.984 . S
N1382 H1395 0.985 . S
N1383 C1385 1.356 . S
N1383 H1388 0.984 . S
N1383 H1389 0.985 . S
C1384 C1378 1.379 . S
C1384 C1381 1.363 . S
C1384 N1382 1.356 . S
C1385 C1379 1.363 . S
C1385 C1380 1.379 . S
C1385 N1383 1.356 . S
N1386 C1378 1.356 . S
N1386 H1392 0.984 . S
N1386 H1393 0.984 . S
N1387 C1380 1.356 . S
N1387 H1390 0.984 . S
N1387 H1391 0.985 . S
H1388 N1383 0.984 . S
H1389 N1383 0.985 . S
H1390 N1387 0.984 . S
H1391 N1387 0.985 . S
H1392 N1386 0.984 . S
H1393 N1386 0.984 . S
H1394 N1382 0.984 . S
H1395 N1382 0.985 . S
C1396 C1397 1.363 . S
C1396 C1402 1.379 . S
C1396 N1404 1.356 . S
C1397 C1396 1.363 . S
C1397 C1403 1.363 . S
C1398 C1399 1.363 . S
C1398 C1403 1.379 . S
C1398 N1405 1.356 . S
C1399 C1398 1.363 . S
C1399 C1402 1.363 . S
N1400 C1402 1.356 . S
N1400 H1412 0.984 . S
N1400 H1413 0.985 . S
N1401 C1403 1.356 . S
N1401 H1406 0.984 . S
N1401 H1407 0.985 . S
C1402 C1396 1.379 . S
C1402 C1399 1.363 . S
C1402 N1400 1.356 . S
C1403 C1397 1.363 . S
C1403 C1398 1.379 . S
C1403 N1401 1.356 . S
N1404 C1396 1.356 . S
N1404 H1410 0.984 . S
N1404 H1411 0.984 . S
N1405 C1398 1.356 . S
N1405 H1408 0.984 . S
N1405 H1409 0.985 . S
H1406 N1401 0.984 . S
H1407 N1401 0.985 . S
H1408 N1405 0.984 . S
H1409 N1405 0.985 . S
H1410 N1404 0.984 . S
H1411 N1404 0.984 . S
H1412 N1400 0.984 . S
H1413 N1400 0.985 . S
C1414 C1415 1.363 . S
C1414 C1420 1.379 1_454 S
C1414 N1422 1.356 . S
C1415 C1414 1.363 . S
C1415 C1421 1.363 . S
C1416 C1417 1.363 . S
C1416 C1421 1.379 1_656 S
C1416 N1423 1.356 . S
C1417 C1416 1.363 . S
C1417 C1420 1.363 . S
N1418 C1420 1.356 . S
N1418 H1430 0.984 . S
N1418 H1431 0.985 . S
N1419 C1421 1.356 . S
N1419 H1424 0.984 . S
N1419 H1425 0.985 . S
C1420 C1414 1.379 1_656 S
C1420 C1417 1.363 . S
C1420 N1418 1.356 . S
C1421 C1415 1.363 . S
C1421 C1416 1.379 1_454 S
C1421 N1419 1.356 . S
N1422 C1414 1.356 . S
N1422 H1428 0.984 . S
N1422 H1429 0.984 . S
N1423 C1416 1.356 . S
N1423 H1426 0.984 . S
N1423 H1427 0.985 . S
H1424 N1419 0.984 . S
H1425 N1419 0.985 . S
H1426 N1423 0.984 . S
H1427 N1423 0.985 . S
H1428 N1422 0.984 . S
H1429 N1422 0.984 . S
H1430 N1418 0.984 . S
H1431 N1418 0.985 . S
C1432 C1433 1.363 . S
C1432 C1438 1.379 . S
C1432 N1440 1.356 . S
C1433 C1432 1.363 . S
C1433 C1439 1.363 . S
C1434 C1435 1.363 . S
C1434 C1439 1.379 . S
C1434 N1441 1.356 . S
C1435 C1434 1.363 . S
C1435 C1438 1.363 . S
N1436 C1438 1.356 . S
N1436 H1448 0.984 . S
N1436 H1449 0.985 . S
N1437 C1439 1.356 . S
N1437 H1442 0.984 . S
N1437 H1443 0.985 . S
C1438 C1432 1.379 . S
C1438 C1435 1.363 . S
C1438 N1436 1.356 . S
C1439 C1433 1.363 . S
C1439 C1434 1.379 . S
C1439 N1437 1.356 . S
N1440 C1432 1.356 . S
N1440 H1446 0.984 . S
N1440 H1447 0.984 . S
N1441 C1434 1.356 . S
N1441 H1444 0.984 . S
N1441 H1445 0.985 . S
H1442 N1437 0.984 . S
H1443 N1437 0.985 . S
H1444 N1441 0.984 . S
H1445 N1441 0.985 . S
H1446 N1440 0.984 . S
H1447 N1440 0.984 . S
H1448 N1436 0.984 . S
H1449 N1436 0.985 . S
C1450 C1451 1.363 . S
C1450 C1456 1.379 . S
C1450 N1458 1.356 . S
C1451 C1450 1.363 . S
C1451 C1457 1.363 . S
C1452 C1453 1.363 . S
C1452 C1457 1.379 . S
C1452 N1459 1.356 . S
C1453 C1452 1.363 . S
C1453 C1456 1.363 . S
N1454 C1456 1.356 . S
N1454 H1466 0.984 . S
N1454 H1467 0.985 . S
N1455 C1457 1.356 . S
N1455 H1460 0.984 . S
N1455 H1461 0.985 . S
C1456 C1450 1.379 . S
C1456 C1453 1.363 . S
C1456 N1454 1.356 . S
C1457 C1451 1.363 . S
C1457 C1452 1.379 . S
C1457 N1455 1.356 . S
N1458 C1450 1.356 . S
N1458 H1464 0.984 . S
N1458 H1465 0.984 . S
N1459 C1452 1.356 . S
N1459 H1462 0.984 . S
N1459 H1463 0.985 . S
H1460 N1455 0.984 . S
H1461 N1455 0.985 . S
H1462 N1459 0.984 . S
H1463 N1459 0.985 . S
H1464 N1458 0.984 . S
H1465 N1458 0.984 . S
H1466 N1454 0.984 . S
H1467 N1454 0.985 . S
C1468 C1469 1.368 1_655 S
C1468 C1474 1.377 1_545 S
C1468 N1476 1.354 1_655 S
C1469 C1468 1.368 1_455 S
C1469 C1475 1.363 1_556 S
C1470 C1471 1.368 1_455 S
C1470 C1475 1.377 1_565 S
C1470 N1477 1.354 1_455 S
C1471 C1470 1.368 1_655 S
C1471 C1474 1.363 1_554 S
N1472 C1474 1.356 . S
N1472 H1484 0.984 . S
N1472 H1485 0.984 1_556 S
N1473 C1475 1.356 . S
N1473 H1478 0.984 1_554 S
N1473 H1479 0.985 . S
C1474 C1468 1.377 1_565 S
C1474 C1471 1.363 1_556 S
C1474 N1472 1.356 . S
C1475 C1469 1.363 1_554 S
C1475 C1470 1.377 1_545 S
C1475 N1473 1.356 . S
N1476 C1468 1.354 1_455 S
N1476 H1482 0.984 1_445 S
N1476 H1483 0.984 . S
N1477 C1470 1.354 1_655 S
N1477 H1480 0.984 . S
N1477 H1481 0.985 1_665 S
H1478 N1473 0.984 1_556 S
H1479 N1473 0.985 . S
H1480 N1477 0.984 . S
H1481 N1477 0.985 1_445 S
H1482 N1476 0.984 1_665 S
H1483 N1476 0.984 . S
H1484 N1472 0.984 . S
H1485 N1472 0.984 1_554 S
C1486 C1487 1.363 . S
C1486 C1492 1.379 . S
C1486 N1494 1.356 . S
C1487 C1486 1.363 . S
C1487 C1493 1.363 1_565 S
C1488 C1489 1.363 . S
C1488 C1493 1.379 . S
C1488 N1495 1.356 . S
C1489 C1488 1.363 . S
C1489 C1492 1.363 1_545 S
N1490 C1492 1.356 . S
N1490 H1502 0.984 . S
N1490 H1503 0.985 . S
N1491 C1493 1.356 . S
N1491 H1496 0.984 . S
N1491 H1497 0.985 . S
C1492 C1486 1.379 . S
C1492 C1489 1.363 1_565 S
C1492 N1490 1.356 . S
C1493 C1487 1.363 1_545 S
C1493 C1488 1.379 . S
C1493 N1491 1.356 . S
N1494 C1486 1.356 . S
N1494 H1500 0.984 . S
N1494 H1501 0.984 . S
N1495 C1488 1.356 . S
N1495 H1498 0.984 . S
N1495 H1499 0.985 . S
H1496 N1491 0.984 . S
H1497 N1491 0.985 . S
H1498 N1495 0.984 . S
H1499 N1495 0.985 . S
H1500 N1494 0.984 . S
H1501 N1494 0.984 . S
H1502 N1490 0.984 . S
H1503 N1490 0.985 . S
C641 C19 1.666 . S
C643 C406 1.647 . S
C659 C46 1.678 . S
C661 C459 1.734 . S
C677 C86 1.646 . S
C679 C339 1.666 . S
C695 C139 1.734 . S
C697 C366 1.678 . S
C713 C170 1.666 . S
C715 C575 1.647 . S
C731 C215 1.678 . S
C733 C610 1.734 . S
C749 C255 1.646 . S
C751 C490 1.666 . S
C767 C290 1.734 . S
C769 C535 1.678 . S
C785 C369 3.357 . S
C787 C10 3.515 . S
C803 C409 2.725 . S
C805 C55 2.786 . S
C821 C458 2.543 . S
C823 C95 2.263 . S
C839 C338 1.471 . S
C841 C130 1.674 . S
C857 C179 3.515 . S
C859 C538 3.357 . S
C875 C578 2.725 . S
C877 C206 2.786 . S
C893 C609 2.543 . S
C895 C246 2.263 . S
C911 C489 1.471 . S
C913 C299 1.674 . S
C929 C49 3.357 . S
C931 C330 3.515 . S
C947 C375 2.786 . S
C949 C89 2.725 . S
C965 C415 2.263 1_556 S
C967 C138 2.543 . S
C983 C450 1.674 1_545 S
C985 C18 1.471 . S
C1001 C499 3.515 . S
C1003 C218 3.357 . S
C1019 C258 2.725 . S
C1021 C526 2.786 . S
C1037 C289 2.543 . S
C1039 C566 2.263 1_554 S
C1055 C619 1.674 1_565 S
C1057 C169 1.471 . S
C1073 C15 0.946 . S
C1075 C618 0.897 . S
C1091 C50 2.074 . S
C1093 C178 2.083 . S
C1109 C529 1.770 1_455 S
C1111 C90 1.797 . S
C1127 C249 0.803 . S
C1129 C135 0.803 . S
C1145 C166 0.946 . S
C1147 C449 0.897 . S
C1163 C219 2.074 . S
C1165 C9 2.083 . S
C1181 C378 1.770 1_655 S
C1183 C259 1.797 . S
C1199 C98 0.803 . S
C1201 C286 0.803 . S
C1217 C335 0.946 1_455 S
C1219 C298 0.897 . S
C1235 C370 2.074 . S
C1237 C498 2.083 . S
C1253 C209 1.770 . S
C1255 C410 1.797 . S
C1271 C569 0.803 . S
C1273 C455 0.803 . S
C1289 C486 0.946 1_655 S
C1291 C129 0.897 . S
C1307 C539 2.074 . S
C1309 C329 2.083 . S
C1325 C579 1.797 . S
C1327 C58 1.770 . S
C1343 C418 0.803 . S
C1345 C606 0.803 . S
C1361 C6 2.733 . S
C1363 C495 2.733 . S
C1379 C59 3.649 . S
C1381 C210 3.649 . S
C1397 C99 1.310 . S
C1399 C570 1.310 . S
C1415 C295 1.124 . S
C1417 C126 1.124 . S
C1433 C175 2.733 . S
C1435 C326 2.733 . S
C1451 C419 1.310 . S
C1453 C250 1.310 . S
C1469 C379 3.649 . S
C1471 C530 3.649 . S
C1487 C615 1.124 . S
C1489 C446 1.124 . S
