# Generated by pormake.
# Topology unv, (4)-cn, num edge types: 1
# Building blocks:
#     Node 0, Type 0, BuildingBlock: GALJAG_clean_sbu_0, # of connection points: 4
#     Node 1, Type 0, BuildingBlock: GALJAG_clean_sbu_0, # of connection points: 4
#     Node 2, Type 0, BuildingBlock: GALJAG_clean_sbu_0, # of connection points: 4
#     Node 3, Type 0, BuildingBlock: GALJAG_clean_sbu_0, # of connection points: 4
#     Node 4, Type 0, BuildingBlock: GALJAG_clean_sbu_0, # of connection points: 4
#     Node 5, Type 0, BuildingBlock: GALJAG_clean_sbu_0, # of connection points: 4
#     Node 6, Type 0, BuildingBlock: GALJAG_clean_sbu_0, # of connection points: 4
#     Node 7, Type 0, BuildingBlock: GALJAG_clean_sbu_0, # of connection points: 4
#     Node 8, Type 0, BuildingBlock: GALJAG_clean_sbu_0, # of connection points: 4
#     Node 9, Type 0, BuildingBlock: GALJAG_clean_sbu_0, # of connection points: 4
#     Node 10, Type 0, BuildingBlock: GALJAG_clean_sbu_0, # of connection points: 4
#     Node 11, Type 0, BuildingBlock: GALJAG_clean_sbu_0, # of connection points: 4
#     Node 12, Type 0, BuildingBlock: GALJAG_clean_sbu_0, # of connection points: 4
#     Node 13, Type 0, BuildingBlock: GALJAG_clean_sbu_0, # of connection points: 4
#     Node 14, Type 0, BuildingBlock: GALJAG_clean_sbu_0, # of connection points: 4
#     Node 15, Type 0, BuildingBlock: GALJAG_clean_sbu_0, # of connection points: 4
#     Node 16, Type 0, BuildingBlock: GALJAG_clean_sbu_0, # of connection points: 4
#     Node 17, Type 0, BuildingBlock: GALJAG_clean_sbu_0, # of connection points: 4
#     Node 18, Type 0, BuildingBlock: GALJAG_clean_sbu_0, # of connection points: 4
#     Node 19, Type 0, BuildingBlock: GALJAG_clean_sbu_0, # of connection points: 4
#     Node 20, Type 0, BuildingBlock: GALJAG_clean_sbu_0, # of connection points: 4
#     Node 21, Type 0, BuildingBlock: GALJAG_clean_sbu_0, # of connection points: 4
#     Node 22, Type 0, BuildingBlock: GALJAG_clean_sbu_0, # of connection points: 4
#     Node 23, Type 0, BuildingBlock: GALJAG_clean_sbu_0, # of connection points: 4
#     Edge 24, Type (0, 0), BuildingBlock: MIFKUJ_clean_linker_0, # of connection points: 2
#     Edge 25, Type (0, 0), BuildingBlock: MIFKUJ_clean_linker_0, # of connection points: 2
#     Edge 26, Type (0, 0), BuildingBlock: MIFKUJ_clean_linker_0, # of connection points: 2
#     Edge 27, Type (0, 0), BuildingBlock: MIFKUJ_clean_linker_0, # of connection points: 2
#     Edge 28, Type (0, 0), BuildingBlock: MIFKUJ_clean_linker_0, # of connection points: 2
#     Edge 29, Type (0, 0), BuildingBlock: MIFKUJ_clean_linker_0, # of connection points: 2
#     Edge 30, Type (0, 0), BuildingBlock: MIFKUJ_clean_linker_0, # of connection points: 2
#     Edge 31, Type (0, 0), BuildingBlock: MIFKUJ_clean_linker_0, # of connection points: 2
#     Edge 32, Type (0, 0), BuildingBlock: MIFKUJ_clean_linker_0, # of connection points: 2
#     Edge 33, Type (0, 0), BuildingBlock: MIFKUJ_clean_linker_0, # of connection points: 2
#     Edge 34, Type (0, 0), BuildingBlock: MIFKUJ_clean_linker_0, # of connection points: 2
#     Edge 35, Type (0, 0), BuildingBlock: MIFKUJ_clean_linker_0, # of connection points: 2
#     Edge 36, Type (0, 0), BuildingBlock: MIFKUJ_clean_linker_0, # of connection points: 2
#     Edge 37, Type (0, 0), BuildingBlock: MIFKUJ_clean_linker_0, # of connection points: 2
#     Edge 38, Type (0, 0), BuildingBlock: MIFKUJ_clean_linker_0, # of connection points: 2
#     Edge 39, Type (0, 0), BuildingBlock: MIFKUJ_clean_linker_0, # of connection points: 2
#     Edge 40, Type (0, 0), BuildingBlock: MIFKUJ_clean_linker_0, # of connection points: 2
#     Edge 41, Type (0, 0), BuildingBlock: MIFKUJ_clean_linker_0, # of connection points: 2
#     Edge 42, Type (0, 0), BuildingBlock: MIFKUJ_clean_linker_0, # of connection points: 2
#     Edge 43, Type (0, 0), BuildingBlock: MIFKUJ_clean_linker_0, # of connection points: 2
#     Edge 44, Type (0, 0), BuildingBlock: MIFKUJ_clean_linker_0, # of connection points: 2
#     Edge 45, Type (0, 0), BuildingBlock: MIFKUJ_clean_linker_0, # of connection points: 2
#     Edge 46, Type (0, 0), BuildingBlock: MIFKUJ_clean_linker_0, # of connection points: 2
#     Edge 47, Type (0, 0), BuildingBlock: MIFKUJ_clean_linker_0, # of connection points: 2
#     Edge 48, Type (0, 0), BuildingBlock: MIFKUJ_clean_linker_0, # of connection points: 2
#     Edge 49, Type (0, 0), BuildingBlock: MIFKUJ_clean_linker_0, # of connection points: 2
#     Edge 50, Type (0, 0), BuildingBlock: MIFKUJ_clean_linker_0, # of connection points: 2
#     Edge 51, Type (0, 0), BuildingBlock: MIFKUJ_clean_linker_0, # of connection points: 2
#     Edge 52, Type (0, 0), BuildingBlock: MIFKUJ_clean_linker_0, # of connection points: 2
#     Edge 53, Type (0, 0), BuildingBlock: MIFKUJ_clean_linker_0, # of connection points: 2
#     Edge 54, Type (0, 0), BuildingBlock: MIFKUJ_clean_linker_0, # of connection points: 2
#     Edge 55, Type (0, 0), BuildingBlock: MIFKUJ_clean_linker_0, # of connection points: 2
#     Edge 56, Type (0, 0), BuildingBlock: MIFKUJ_clean_linker_0, # of connection points: 2
#     Edge 57, Type (0, 0), BuildingBlock: MIFKUJ_clean_linker_0, # of connection points: 2
#     Edge 58, Type (0, 0), BuildingBlock: MIFKUJ_clean_linker_0, # of connection points: 2
#     Edge 59, Type (0, 0), BuildingBlock: MIFKUJ_clean_linker_0, # of connection points: 2
#     Edge 60, Type (0, 0), BuildingBlock: MIFKUJ_clean_linker_0, # of connection points: 2
#     Edge 61, Type (0, 0), BuildingBlock: MIFKUJ_clean_linker_0, # of connection points: 2
#     Edge 62, Type (0, 0), BuildingBlock: MIFKUJ_clean_linker_0, # of connection points: 2
#     Edge 63, Type (0, 0), BuildingBlock: MIFKUJ_clean_linker_0, # of connection points: 2
#     Edge 64, Type (0, 0), BuildingBlock: MIFKUJ_clean_linker_0, # of connection points: 2
#     Edge 65, Type (0, 0), BuildingBlock: MIFKUJ_clean_linker_0, # of connection points: 2
#     Edge 66, Type (0, 0), BuildingBlock: MIFKUJ_clean_linker_0, # of connection points: 2
#     Edge 67, Type (0, 0), BuildingBlock: MIFKUJ_clean_linker_0, # of connection points: 2
#     Edge 68, Type (0, 0), BuildingBlock: MIFKUJ_clean_linker_0, # of connection points: 2
#     Edge 69, Type (0, 0), BuildingBlock: MIFKUJ_clean_linker_0, # of connection points: 2
#     Edge 70, Type (0, 0), BuildingBlock: MIFKUJ_clean_linker_0, # of connection points: 2
#     Edge 71, Type (0, 0), BuildingBlock: MIFKUJ_clean_linker_0, # of connection points: 2
# Relax obj value: 0.404
# Max RMSD: 0.239
# Mean RMSD: 0.210
data_MOF--net-unv--node1-GALJAG_clean_sbu_0--edge1-MIFKUJ_clean_linker_0
_symmetry_space_group_name_H-M    P1
_symmetry_Int_Tables_number       1
_symmetry_cell_setting            triclinic
loop_
_symmetry_equiv_pos_as_xyz
'x, y, z'
_cell_length_a     62.801117
_cell_length_b     62.826883
_cell_length_c     62.844429
_cell_angle_alpha  90.056325
_cell_angle_beta   90.056478
_cell_angle_gamma 90.025997
loop_
_atom_site_label
_atom_site_type_symbol
_atom_site_fract_x
_atom_site_fract_y
_atom_site_fract_z
_atom_type_partial_charge
In0 In 0.00809 0.09089 0.3656 0.0
O1 O 0.03452 0.07456 0.34712 0.0
O2 O 0.00501 0.08022 0.3313 0.0
C3 C 0.02916 0.09725 0.40242 0.0
C4 C 0.00062 0.13043 0.35125 0.0
C5 C 0.98091 0.06 0.3776 0.0
O6 O 0.03821 0.0906 0.38578 0.0
O7 O 0.00952 0.10091 0.40042 0.0
O8 O 0.97548 0.07937 0.37763 0.0
O9 O -0.00033 0.05651 0.37149 0.0
C10 C 0.02357 0.07251 0.33036 0.0
O11 O 0.98565 0.11764 0.35538 0.0
O12 O 0.01907 0.12318 0.35436 0.0
In13 In 0.96184 0.39074 0.37003 0.0
O14 O 0.98332 0.36352 0.35978 0.0
O15 O 0.95006 0.36041 0.35414 0.0
C16 C 0.98945 0.41453 0.39258 0.0
C17 C 0.95543 0.41591 0.33592 0.0
C18 C 0.93517 0.38098 0.40203 0.0
O19 O 0.99479 0.39708 0.38414 0.0
O20 O 0.97036 0.41992 0.38945 0.0
O21 O 0.92916 0.39122 0.38579 0.0
O22 O 0.95448 0.37543 0.40187 0.0
C23 C 0.96832 0.35219 0.35268 0.0
O24 O 0.94078 0.41188 0.34905 0.0
O25 O 0.97295 0.40699 0.33988 0.0
In26 In 0.0084 0.89833 0.13762 0.0
O27 O 0.98241 0.8744 0.14619 0.0
O28 O 0.01474 0.86541 0.15074 0.0
C29 C 0.98329 0.93142 0.12714 0.0
C30 C 0.02557 0.91629 0.17242 0.0
C31 C 0.02925 0.88948 0.10113 0.0
O32 O 0.97652 0.91248 0.12669 0.0
O33 O 0.0025 0.93344 0.13257 0.0
O34 O 0.0387 0.89119 0.11877 0.0
O35 O 0.00938 0.89199 0.10199 0.0
C36 C 0.99539 0.86034 0.15231 0.0
O37 O 0.03543 0.91527 0.15493 0.0
O38 O 0.00738 0.90772 0.1724 0.0
In39 In 0.97268 0.60556 0.14561 0.0
O40 O 0.94938 0.58397 0.16367 0.0
O41 O 0.98238 0.58199 0.17093 0.0
C42 C 0.94766 0.61791 0.11315 0.0
C43 C 0.97652 0.64258 0.16678 0.0
C44 C 0.0042 0.58614 0.12414 0.0
O45 O 0.9422 0.60327 0.12584 0.0
O46 O 0.9655 0.62626 0.11705 0.0
O47 O 0.98489 0.58467 0.11879 0.0
O48 O 0.00772 0.59746 0.14038 0.0
C49 C 0.96386 0.57524 0.17455 0.0
O50 O 0.9909 0.63537 0.15479 0.0
O51 O 0.96046 0.63071 0.16871 0.0
In52 In 0.37486 0.01028 0.09611 0.0
O53 O 0.3761 0.99009 0.12626 0.0
O54 O 0.35342 0.01517 0.1247 0.0
C55 C 0.39542 0.98598 0.06727 0.0
C56 C 0.3385 0.01505 0.07425 0.0
C57 C 0.40323 0.04168 0.10335 0.0
O58 O 0.3895 0.97858 0.08499 0.0
O59 O 0.39099 0.00531 0.06438 0.0
O60 O 0.38505 0.04502 0.09552 0.0
O61 O 0.40677 0.02257 0.10832 0.0
C62 C 0.36124 0.0001 0.13535 0.0
O63 O 0.35107 0.03033 0.07786 0.0
O64 O 0.34415 0.99736 0.08195 0.0
In65 In 0.63916 0.51826 0.08508 0.0
O66 O 0.6656 0.49858 0.07022 0.0
O67 O 0.67171 0.53135 0.07661 0.0
C68 C 0.60684 0.49015 0.08529 0.0
C69 C 0.64845 0.52058 0.12659 0.0
C70 C 0.62219 0.54625 0.05755 0.0
O71 O 0.62435 0.48639 0.07615 0.0
O72 O 0.60574 0.50799 0.09443 0.0
O73 O 0.62323 0.55019 0.07727 0.0
O74 O 0.62995 0.52859 0.05203 0.0
C75 C 0.67861 0.5139 0.06938 0.0
O76 O 0.64195 0.53664 0.11635 0.0
O77 O 0.65037 0.50379 0.11578 0.0
In78 In 0.37432 0.96309 0.39048 0.0
O79 O 0.36783 0.98676 0.36395 0.0
O80 O 0.351 0.95729 0.36358 0.0
C81 C 0.39975 0.98422 0.41765 0.0
C82 C 0.34198 0.95769 0.41775 0.0
C83 C 0.40369 0.9368 0.374 0.0
O84 O 0.38964 0.99368 0.40302 0.0
O85 O 0.39717 0.96432 0.4182 0.0
O86 O 0.38911 0.93008 0.38617 0.0
O87 O 0.40294 0.95644 0.36994 0.0
C88 C 0.35459 0.97486 0.35454 0.0
O89 O 0.35186 0.94197 0.40993 0.0
O90 O 0.34807 0.97568 0.41125 0.0
In91 In 0.61842 0.50217 0.39168 0.0
O92 O 0.62847 0.52128 0.42101 0.0
O93 O 0.65272 0.50907 0.40097 0.0
C94 C 0.58165 0.52438 0.39287 0.0
C95 C 0.6319 0.50412 0.35134 0.0
C96 C 0.61119 0.46215 0.40565 0.0
O97 O 0.59256 0.52242 0.37618 0.0
O98 O 0.58945 0.51545 0.40907 0.0
O99 O 0.5973 0.47285 0.39589 0.0
O100 O 0.62903 0.47118 0.40716 0.0
C101 C 0.64814 0.51907 0.41773 0.0
O102 O 0.62558 0.48691 0.35962 0.0
O103 O 0.63155 0.52012 0.36349 0.0
In104 In 0.10261 0.38262 0.99572 0.0
O105 O 0.0755 0.37338 0.0179 0.0
O106 O 0.09239 0.34853 0.00236 0.0
C107 C 0.10346 0.42061 0.01572 0.0
C108 C 0.14258 0.36712 0.99399 0.0
C109 C 0.08227 0.39113 0.95892 0.0
O110 O 0.10568 0.40324 0.02552 0.0
O111 O 0.1011 0.41881 0.9959 0.0
O112 O 0.10108 0.39738 0.96248 0.0
O113 O 0.07425 0.37997 0.97353 0.0
C114 C 0.07752 0.35364 0.01484 0.0
O115 O 0.1299 0.36564 0.9785 0.0
O116 O 0.13519 0.37665 0.00998 0.0
In117 In 0.09057 0.60818 0.53844 0.0
O118 O 0.06814 0.62618 0.51664 0.0
O119 O 0.07802 0.64121 0.54553 0.0
C120 C 0.08702 0.5738 0.5132 0.0
C121 C 0.13057 0.62322 0.53501 0.0
C122 C 0.07027 0.5918 0.57257 0.0
O123 O 0.07815 0.5913 0.50888 0.0
O124 O 0.09778 0.57372 0.53014 0.0
O125 O 0.08831 0.58514 0.56675 0.0
O126 O 0.06339 0.60736 0.56206 0.0
C127 C 0.06696 0.64224 0.52872 0.0
O128 O 0.12179 0.62102 0.55294 0.0
O129 O 0.11929 0.61772 0.51943 0.0
In130 In 0.90096 0.85109 0.52133 0.0
O131 O 0.86992 0.84597 0.53975 0.0
O132 O 0.87022 0.84036 0.50634 0.0
C133 C 0.92784 0.8676 0.55027 0.0
C134 C 0.91788 0.81215 0.51744 0.0
C135 C 0.9026 0.88306 0.49293 0.0
O136 O 0.90789 0.86961 0.55218 0.0
O137 O 0.93382 0.85741 0.53408 0.0
O138 O 0.91087 0.86507 0.48946 0.0
O139 O 0.89328 0.8848 0.51062 0.0
C140 C 0.85966 0.84034 0.52336 0.0
O141 O 0.9165 0.82482 0.50189 0.0
O142 O 0.91027 0.819 0.53474 0.0
In143 In 0.38345 0.63674 0.47904 0.0
O144 O 0.35012 0.64596 0.4677 0.0
O145 O 0.35972 0.65603 0.49839 0.0
C146 C 0.39232 0.62097 0.44015 0.0
C147 C 0.41402 0.66562 0.48751 0.0
C148 C 0.38827 0.60171 0.50329 0.0
O149 O 0.38649 0.60944 0.45548 0.0
O150 O 0.39245 0.64067 0.44411 0.0
O151 O 0.40362 0.61368 0.4983 0.0
O152 O 0.37038 0.60757 0.49628 0.0
C153 C 0.34521 0.65554 0.48461 0.0
O154 O 0.40404 0.65606 0.50207 0.0
O155 O 0.40851 0.66066 0.46888 0.0
In156 In 0.46046 0.60546 0.85773 0.0
O157 O 0.44626 0.63713 0.84585 0.0
O158 O 0.47956 0.63213 0.84334 0.0
C159 C 0.42439 0.58731 0.87304 0.0
C160 C 0.47333 0.57946 0.82648 0.0
C161 C 0.48635 0.60495 0.89188 0.0
O162 O 0.43402 0.602 0.88271 0.0
O163 O 0.43222 0.58276 0.85521 0.0
O164 O 0.48719 0.59107 0.87737 0.0
O165 O 0.47227 0.61903 0.88929 0.0
C166 C 0.46412 0.64447 0.84026 0.0
O167 O 0.48288 0.58065 0.84415 0.0
O168 O 0.45733 0.59151 0.82454 0.0
In169 In 0.54081 0.89429 0.86109 0.0
O170 O 0.54642 0.85894 0.85327 0.0
O171 O 0.51726 0.87305 0.84396 0.0
C172 C 0.58044 0.90336 0.87533 0.0
C173 C 0.53507 0.92392 0.8308 0.0
C174 C 0.51724 0.90297 0.8957 0.0
O175 O 0.56517 0.89913 0.88759 0.0
O176 O 0.57612 0.90131 0.85585 0.0
O177 O 0.52081 0.91645 0.88125 0.0
O178 O 0.52564 0.88492 0.89274 0.0
C179 C 0.52854 0.85656 0.84443 0.0
O180 O 0.52122 0.92003 0.8448 0.0
O181 O 0.55162 0.91262 0.83188 0.0
In182 In 0.49634 0.40324 0.62921 0.0
O183 O 0.48131 0.37086 0.63665 0.0
O184 O 0.51502 0.37408 0.6382 0.0
C185 C 0.46254 0.42685 0.61795 0.0
C186 C 0.50494 0.42312 0.66595 0.0
C187 C 0.51906 0.40392 0.59291 0.0
O188 O 0.46226 0.40676 0.61646 0.0
O189 O 0.47959 0.43464 0.62514 0.0
O190 O 0.52731 0.40813 0.61076 0.0
O191 O 0.49946 0.39968 0.59342 0.0
C192 C 0.49909 0.36206 0.6401 0.0
O193 O 0.5158 0.42621 0.64929 0.0
O194 O 0.49018 0.40957 0.66411 0.0
In195 In 0.52958 0.09585 0.62562 0.0
O196 O 0.54392 0.129 0.63011 0.0
O197 O 0.51088 0.12487 0.63598 0.0
C198 C 0.56344 0.08201 0.60319 0.0
C199 C 0.52719 0.07693 0.66383 0.0
C200 C 0.50089 0.08075 0.59757 0.0
O201 O 0.5503 0.09522 0.59571 0.0
O202 O 0.56029 0.07713 0.62237 0.0
O203 O 0.50941 0.06917 0.61159 0.0
O204 O 0.50615 0.10012 0.59833 0.0
C205 C 0.52652 0.13739 0.63558 0.0
O206 O 0.51099 0.07965 0.65222 0.0
O207 O 0.54437 0.0841 0.65631 0.0
In208 In 0.83651 0.47251 0.59879 0.0
O209 O 0.82687 0.48749 0.56725 0.0
O210 O 0.80314 0.48409 0.59125 0.0
C211 C 0.87639 0.4878 0.59344 0.0
C212 C 0.82729 0.48079 0.63988 0.0
C213 C 0.83661 0.43173 0.58518 0.0
O214 O 0.86013 0.49953 0.59253 0.0
O215 O 0.87248 0.46837 0.59632 0.0
O216 O 0.85022 0.43884 0.59815 0.0
O217 O 0.8223 0.44487 0.58015 0.0
C218 C 0.80768 0.49026 0.57268 0.0
O219 O 0.82621 0.4622 0.63235 0.0
O220 O 0.83268 0.49481 0.62672 0.0
In221 In 0.15129 0.99358 0.6001 0.0
O222 O 0.16475 0.01115 0.62896 0.0
O223 O 0.16394 0.97734 0.62963 0.0
C224 C 0.13773 0.02688 0.57684 0.0
C225 C 0.18463 0.97992 0.57722 0.0
C226 C 0.11399 0.9727 0.60449 0.0
O227 O 0.13779 0.02731 0.59692 0.0
O228 O 0.14464 0.00991 0.5687 0.0
O229 O 0.12941 0.96513 0.59409 0.0
O230 O 0.11745 0.99065 0.61271 0.0
C231 C 0.16863 0.99433 0.63921 0.0
O232 O 0.16833 0.96853 0.58027 0.0
O233 O 0.18415 0.99805 0.58593 0.0
In234 In 0.88002 0.53859 0.89545 0.0
O235 O 0.87259 0.54986 0.8615 0.0
O236 O 0.86292 0.51884 0.87091 0.0
C237 C 0.89127 0.57651 0.9125 0.0
C238 C 0.85072 0.52749 0.92462 0.0
C239 C 0.91449 0.51366 0.89151 0.0
O240 O 0.90335 0.56052 0.9122 0.0
O241 O 0.87371 0.5738 0.90314 0.0
O242 O 0.89836 0.50831 0.90225 0.0
O243 O 0.9133 0.53174 0.88278 0.0
C244 C 0.86359 0.53259 0.85639 0.0
O245 O 0.87002 0.52214 0.92629 0.0
O246 O 0.84634 0.53827 0.9083 0.0
In247 In 0.13398 0.99791 0.90154 0.0
O248 O 0.14695 0.00747 0.93391 0.0
O249 O 0.16834 0.00786 0.90769 0.0
C250 C 0.10163 0.02602 0.90399 0.0
C251 C 0.14772 0.99559 0.86108 0.0
C252 C 0.12194 0.96028 0.91849 0.0
O253 O 0.11893 0.0283 0.91392 0.0
O254 O 0.10074 0.00972 0.89228 0.0
O255 O 0.10885 0.97322 0.91051 0.0
O256 O 0.14113 0.96595 0.91715 0.0
C257 C 0.16564 0.01077 0.92738 0.0
O258 O 0.1436 0.97927 0.87198 0.0
O259 O 0.14462 0.01303 0.87048 0.0
In260 In 0.60045 0.852 0.47819 0.0
O261 O 0.63362 0.83982 0.46964 0.0
O262 O 0.62537 0.84286 0.50238 0.0
C263 C 0.58754 0.85391 0.43703 0.0
C264 C 0.57432 0.82397 0.49712 0.0
C265 C 0.5983 0.89198 0.49368 0.0
O266 O 0.59912 0.86799 0.44538 0.0
O267 O 0.58369 0.83838 0.44899 0.0
O268 O 0.58221 0.87995 0.49271 0.0
O269 O 0.61535 0.88376 0.48705 0.0
C270 C 0.63928 0.83778 0.48885 0.0
O271 O 0.57071 0.84376 0.49738 0.0
O272 O 0.59127 0.81857 0.48782 0.0
In273 In 0.60327 0.14007 0.96473 0.0
O274 O 0.5825 0.15521 0.93898 0.0
O275 O 0.59515 0.17512 0.96332 0.0
C276 C 0.61293 0.1022 0.9469 0.0
C277 C 0.64191 0.1558 0.97377 0.0
C278 C 0.57315 0.13053 0.99365 0.0
O279 O 0.60786 0.11821 0.93588 0.0
O280 O 0.61297 0.10535 0.9667 0.0
O281 O 0.59249 0.13266 -0.00127 0.0
O282 O 0.56922 0.13287 0.97413 0.0
C283 C 0.58353 0.17364 0.947 0.0
O284 O 0.6281 0.15233 0.98793 0.0
O285 O 0.63616 0.1514 0.95502 0.0
In286 In 0.40178 0.35835 0.99215 0.0
O287 O 0.41986 0.3429 0.9649 0.0
O288 O 0.41561 0.32512 0.99352 0.0
C289 C 0.39354 0.39667 0.97445 0.0
C290 C 0.3629 0.34101 0.99659 0.0
C291 C 0.43095 0.36871 0.02175 0.0
O292 O 0.40035 0.38112 0.96373 0.0
O293 O 0.39094 0.39287 0.99394 0.0
O294 O 0.41148 0.36676 0.02644 0.0
O295 O 0.43539 0.36555 0.00246 0.0
C296 C 0.42337 0.32584 0.97497 0.0
O297 O 0.37356 0.3474 0.0124 0.0
O298 O 0.37196 0.34322 0.97886 0.0
In299 In 0.90187 0.15621 0.0246 0.0
O300 O 0.87435 0.16282 0.00211 0.0
O301 O 0.86961 0.16822 0.03526 0.0
C302 C 0.93055 0.13851 0.99805 0.0
C303 C 0.92105 0.19342 0.03349 0.0
C304 C 0.8957 0.12271 0.05046 0.0
O305 O 0.91162 0.14214 0.99229 0.0
O306 O 0.93486 0.14416 0.01679 0.0
O307 O 0.90341 0.1401 0.05702 0.0
O308 O 0.89052 0.12256 0.03107 0.0
C309 C 0.86183 0.16861 0.01673 0.0
O310 O 0.92097 0.17806 0.04641 0.0
O311 O 0.91116 0.19011 0.01632 0.0
H312 H 0.14736 0.03567 0.53585 0.0
H313 H 0.12862 0.05991 0.512 0.0
H314 H 0.08834 0.08014 0.56377 0.0
H315 H 0.10747 0.05606 0.58797 0.0
H316 H 0.06655 0.06353 0.52824 0.0
H317 H 0.11755 0.11693 0.54244 0.0
H318 H 0.15321 0.13232 0.54811 0.0
H319 H 0.17052 0.1167 0.48389 0.0
H320 H 0.13508 0.10091 0.4779 0.0
H321 H 0.0128 0.11043 0.4405 0.0
H322 H 0.03052 0.10979 0.47523 0.0
H323 H 0.08816 0.08731 0.44541 0.0
H324 H 0.07072 0.08829 0.41072 0.0
H325 H 0.09721 0.11492 0.4768 0.0
H326 H 0.05148 0.05311 0.46673 0.0
H327 H 0.01725 0.03478 0.46073 0.0
H328 H 0.99157 0.06373 0.51706 0.0
H329 H 0.02559 0.08249 0.5232 0.0
C330 C 0.13487 0.04568 0.54227 0.0
C331 C 0.12875 0.04399 0.56366 0.0
C332 C 0.12427 0.05961 0.52868 0.0
C333 C 0.1072 0.07189 0.53619 0.0
C334 C 0.1016 0.07091 0.55778 0.0
C335 C 0.11253 0.05721 0.57153 0.0
C336 C 0.09362 0.08313 0.52062 0.0
C337 C 0.07295 0.07533 0.51739 0.0
C338 C 0.10222 0.09816 0.5063 0.0
C339 C 0.12362 0.10767 0.50974 0.0
C340 C 0.129 0.11664 0.52956 0.0
C341 C 0.14918 0.12546 0.53283 0.0
C342 C 0.16412 0.12548 0.51638 0.0
C343 C 0.15891 0.11669 0.49662 0.0
C344 C 0.13875 0.10784 0.49326 0.0
C345 C 0.02935 0.10568 0.44134 0.0
C346 C 0.04034 0.09918 0.42297 0.0
C347 C 0.03943 0.10531 0.46118 0.0
C348 C 0.06057 0.09826 0.46292 0.0
C349 C 0.07185 0.09284 0.44442 0.0
C350 C 0.06183 0.09329 0.42462 0.0
C351 C 0.07054 0.0946 0.48395 0.0
C352 C 0.0905 0.10376 0.48813 0.0
C353 C 0.06143 0.08057 0.49904 0.0
C354 C 0.04093 0.06946 0.49522 0.0
C355 C 0.03845 0.05573 0.4777 0.0
C356 C 0.01911 0.04524 0.4743 0.0
C357 C 0.00221 0.04816 0.48846 0.0
C358 C 0.00464 0.06154 0.50607 0.0
C359 C 0.02394 0.07213 0.5095 0.0
H360 H 0.98726 0.03999 0.48581 0.0
H361 H 0.17974 0.13232 0.51894 0.0
H362 H 0.94606 0.3631 0.44001 0.0
H363 H 0.92451 0.36148 0.47229 0.0
H364 H 0.87143 0.38888 0.43835 0.0
H365 H 0.89308 0.39095 0.40608 0.0
H366 H 0.88018 0.41068 0.47334 0.0
H367 H 0.87078 0.33665 0.45655 0.0
H368 H 0.88261 0.3004 0.44726 0.0
H369 H 0.91804 0.29664 0.5056 0.0
H370 H 0.90667 0.333 0.51512 0.0
H371 H 0.81087 0.41485 0.55466 0.0
H372 H 0.82331 0.39337 0.52486 0.0
H373 H 0.88337 0.3837 0.55661 0.0
H374 H 0.87109 0.40524 0.58656 0.0
H375 H 0.86891 0.35005 0.52274 0.0
H376 H 0.88631 0.42498 0.53473 0.0
H377 H 0.87621 0.46125 0.54591 0.0
H378 H 0.82809 0.46306 0.49734 0.0
H379 H 0.83767 0.42656 0.48617 0.0
C380 C 0.92967 0.36842 0.43932 0.0
C381 C 0.92128 0.37731 0.42059 0.0
C382 C 0.91732 0.36735 0.45776 0.0
C383 C 0.8963 0.37493 0.45771 0.0
C384 C 0.88761 0.38292 0.43873 0.0
C385 C 0.89998 0.3841 0.42031 0.0
C386 C 0.8843 0.37689 0.47791 0.0
C387 C 0.87735 0.39726 0.48383 0.0
C388 C 0.88129 0.35957 0.49206 0.0
C389 C 0.88798 0.33762 0.48647 0.0
C390 C 0.88122 0.32815 0.46733 0.0
C391 C 0.88782 0.30757 0.46204 0.0
C392 C 0.9011 0.29624 0.47581 0.0
C393 C 0.90776 0.30544 0.49494 0.0
C394 C 0.90121 0.32603 0.50031 0.0
C395 C 0.82632 0.40726 0.55583 0.0
C396 C 0.84028 0.41226 0.57259 0.0
C397 C 0.83335 0.39488 0.53882 0.0
C398 C 0.85438 0.38737 0.53843 0.0
C399 C 0.86709 0.38939 0.55667 0.0
C400 C 0.86007 0.40184 0.57373 0.0
C401 C 0.86466 0.38362 0.51765 0.0
C402 C 0.87147 0.36319 0.51187 0.0
C403 C 0.86793 0.40088 0.50362 0.0
C404 C 0.86257 0.42303 0.50976 0.0
C405 C 0.8735 0.43308 0.52652 0.0
C406 C 0.86787 0.45366 0.53286 0.0
C407 C 0.85152 0.46444 0.52233 0.0
C408 C 0.84076 0.45467 0.50546 0.0
C409 C 0.84627 0.43404 0.49913 0.0
H410 H 0.84728 0.48041 0.52719 0.0
H411 H 0.9062 0.28031 0.47168 0.0
H412 H 0.07131 0.88003 0.09525 0.0
H413 H 0.09091 0.88032 0.06158 0.0
H414 H 0.0326 0.89383 0.02778 0.0
H415 H 0.0129 0.89278 0.06119 0.0
H416 H 0.05747 0.86955 0.00388 0.0
H417 H 0.06587 0.93397 0.04566 0.0
H418 H 0.07584 0.95462 0.07756 0.0
H419 H 0.14005 0.93164 0.07285 0.0
H420 H 0.13037 0.91063 0.04105 0.0
H421 H 0.08149 0.94592 0.92499 0.0
H422 H 0.06982 0.92172 0.95301 0.0
H423 H 0.13528 0.90951 0.96993 0.0
H424 H 0.14708 0.9338 0.94194 0.0
H425 H 0.11271 0.92598 0.00241 0.0
H426 H 0.10403 0.86868 0.95386 0.0
H427 H 0.09237 0.85073 0.92095 0.0
H428 H 0.02705 0.86294 0.93689 0.0
H429 H 0.03829 0.88126 0.96974 0.0
C430 C 0.06265 0.88264 0.08057 0.0
C431 C 0.04066 0.8867 0.08083 0.0
C432 C 0.07384 0.88282 0.06136 0.0
C433 C 0.06328 0.88752 0.04222 0.0
C434 C 0.0411 0.89019 0.04234 0.0
C435 C 0.02987 0.88972 0.06148 0.0
C436 C 0.07538 0.89214 0.02251 0.0
C437 C 0.06959 0.88185 0.0035 0.0
C438 C 0.09149 0.90789 0.0221 0.0
C439 C 0.09734 0.92052 0.04118 0.0
C440 C 0.08207 0.93321 0.05153 0.0
C441 C 0.08767 0.94499 0.06957 0.0
C442 C 0.10855 0.94438 0.07727 0.0
C443 C 0.12388 0.93204 0.0669 0.0
C444 C 0.11834 0.9202 0.04888 0.0
C445 C 0.09341 0.93756 0.93422 0.0
C446 C 0.11517 0.94196 0.9315 0.0
C447 C 0.08673 0.92362 0.95016 0.0
C448 C 0.1017 0.91384 0.96357 0.0
C449 C 0.12349 0.9169 0.95973 0.0
C450 C 0.13019 0.93078 0.94374 0.0
C451 C 0.09451 0.90376 0.98361 0.0
C452 C 0.10112 0.91316 0.00275 0.0
C453 C 0.07893 0.88751 0.98399 0.0
C454 C 0.07204 0.87645 0.96425 0.0
C455 C 0.08718 0.86768 0.95028 0.0
C456 C 0.08064 0.85741 0.93164 0.0
C457 C 0.05899 0.85571 0.92682 0.0
C458 C 0.04382 0.86426 0.94065 0.0
C459 C 0.05027 0.87456 0.95931 0.0
H460 H 0.05396 0.84776 0.91238 0.0
H461 H 0.11286 0.95352 0.09124 0.0
H462 H 0.96029 0.64306 0.08036 0.0
H463 H 0.94331 0.64666 0.04577 0.0
H464 H 0.89009 0.60911 0.06772 0.0
H465 H 0.90765 0.6046 0.10222 0.0
H466 H 0.90408 0.59283 0.03387 0.0
H467 H 0.88552 0.66338 0.05194 0.0
H468 H 0.89095 0.69946 0.06638 0.0
H469 H 0.93725 0.71233 0.01784 0.0
H470 H 0.93242 0.67618 0.00333 0.0
H471 H 0.863 0.60634 0.92699 0.0
H472 H 0.86698 0.62641 0.9602 0.0
H473 H 0.9326 0.6068 0.96427 0.0
H474 H 0.92883 0.58684 0.93123 0.0
H475 H 0.90249 0.65535 0.9856 0.0
H476 H 0.92702 0.57012 0.00488 0.0
H477 H 0.92205 0.53389 0.99045 0.0
H478 H 0.86054 0.5516 0.96638 0.0
H479 H 0.86503 0.58765 0.98095 0.0
C480 C 0.94476 0.63593 0.07798 0.0
C481 C 0.93542 0.62328 0.09385 0.0
C482 C 0.93493 0.6382 0.05821 0.0
C483 C 0.9153 0.62829 0.05409 0.0
C484 C 0.90524 0.61688 0.07049 0.0
C485 C 0.91527 0.6143 0.09019 0.0
C486 C 0.90718 0.627 0.03191 0.0
C487 C 0.90327 0.60666 0.02357 0.0
C488 C 0.90604 0.64497 0.01827 0.0
C489 C 0.90864 0.66698 0.02658 0.0
C490 C 0.89693 0.67385 0.04439 0.0
C491 C 0.89991 0.69433 0.0526 0.0
C492 C 0.91445 0.70817 0.04305 0.0
C493 C 0.92598 0.70159 0.02522 0.0
C494 C 0.9231 0.68111 0.01697 0.0
C495 C 0.87857 0.60723 0.93438 0.0
C496 C 0.89548 0.5946 0.92688 0.0
C497 C 0.88083 0.61881 0.9533 0.0
C498 C 0.89997 0.61774 0.96477 0.0
C499 C 0.91769 0.60773 0.95562 0.0
C500 C 0.91546 0.59621 0.9368 0.0
C501 C 0.90004 0.62131 0.988 0.0
C502 C 0.90263 0.64184 0.99632 0.0
C503 C 0.8996 0.60362 0.00187 0.0
C504 C 0.89644 0.58163 0.99382 0.0
C505 C 0.91238 0.56619 0.99663 0.0
C506 C 0.90966 0.54568 0.9884 0.0
C507 C 0.89103 0.54042 0.97741 0.0
C508 C 0.87502 0.55563 0.97477 0.0
C509 C 0.87766 0.57611 0.983 0.0
H510 H 0.88901 0.52457 0.97098 0.0
H511 H 0.91677 0.724 0.04946 0.0
H512 H 0.40109 0.08148 0.08644 0.0
H513 H 0.43139 0.10294 0.07505 0.0
H514 H 0.47432 0.05968 0.10654 0.0
H515 H 0.44407 0.03788 0.11784 0.0
H516 H 0.48657 0.10871 0.10265 0.0
H517 H 0.46661 0.04352 0.06338 0.0
H518 H 0.43931 0.02052 0.04691 0.0
H519 H 0.41961 0.07213 0.00671 0.0
H520 H 0.44652 0.09555 0.02329 0.0
H521 H 0.57759 0.11577 0.03437 0.0
H522 H 0.54905 0.10575 0.05895 0.0
H523 H 0.50223 0.12562 0.01266 0.0
H524 H 0.53061 0.13438 0.98775 0.0
H525 H 0.49183 0.08938 0.02621 0.0
H526 H 0.51343 0.15373 0.06082 0.0
H527 H 0.53829 0.17907 0.07764 0.0
H528 H 0.55307 0.13312 0.12597 0.0
H529 H 0.5285 0.10738 0.10927 0.0
C530 C 0.4169 0.07696 0.09168 0.0
C531 C 0.4203 0.05776 0.1026 0.0
C532 C 0.43417 0.08932 0.08524 0.0
C533 C 0.455 0.0827 0.0898 0.0
C534 C 0.45831 0.06502 0.10297 0.0
C535 C 0.44102 0.05253 0.10928 0.0
C536 C 0.47272 0.09095 0.07686 0.0
C537 C 0.48797 0.10444 0.08598 0.0
C538 C 0.47412 0.08559 0.05508 0.0
C539 C 0.4584 0.07132 0.04471 0.0
C540 C 0.45634 0.04999 0.05115 0.0
C541 C 0.44096 0.03688 0.04179 0.0
C542 C 0.42771 0.04488 0.02581 0.0
C543 C 0.42987 0.06597 0.01911 0.0
C544 C 0.44517 0.07917 0.02848 0.0
C545 C 0.56119 0.11809 0.02956 0.0
C546 C 0.55625 0.12575 0.00916 0.0
C547 C 0.54489 0.11255 0.04368 0.0
C548 C 0.52344 0.11512 0.03777 0.0
C549 C 0.51862 0.12341 0.01759 0.0
C550 C 0.53484 0.12846 0.00336 0.0
C551 C 0.50595 0.1076 0.05175 0.0
C552 C 0.49065 0.09394 0.04283 0.0
C553 C 0.50448 0.11313 0.0736 0.0
C554 C 0.51928 0.12855 0.08366 0.0
C555 C 0.52212 0.14896 0.07493 0.0
C556 C 0.53613 0.16341 0.08446 0.0
C557 C 0.54729 0.15769 0.10283 0.0
C558 C 0.54443 0.13752 0.11173 0.0
C559 C 0.53045 0.123 0.10225 0.0
H560 H 0.55813 0.1689 0.11019 0.0
H561 H 0.41581 0.03475 0.01855 0.0
H562 H 0.56811 0.49449 0.10452 0.0
H563 H 0.53691 0.47144 0.10028 0.0
H564 H 0.57325 0.42963 0.05972 0.0
H565 H 0.60444 0.45257 0.06383 0.0
H566 H 0.53538 0.44321 0.04182 0.0
H567 H 0.56023 0.41459 0.109 0.0
H568 H 0.57094 0.41767 0.14664 0.0
H569 H 0.50892 0.44152 0.16264 0.0
H570 H 0.49795 0.43891 0.12501 0.0
H571 H 0.47262 0.35849 0.02091 0.0
H572 H 0.50137 0.37636 0.03997 0.0
H573 H 0.45542 0.41353 0.07489 0.0
H574 H 0.42635 0.39507 0.05616 0.0
H575 H 0.49529 0.40476 0.09801 0.0
H576 H 0.46977 0.43361 0.03248 0.0
H577 H 0.45767 0.43068 0.99532 0.0
H578 H 0.51989 0.40963 0.9764 0.0
H579 H 0.53212 0.41154 0.01368 0.0
C580 C 0.5695 0.48024 0.09491 0.0
C581 C 0.58864 0.47536 0.08439 0.0
C582 C 0.5517 0.46707 0.09259 0.0
C583 C 0.55284 0.44885 0.07973 0.0
C584 C 0.57211 0.44365 0.06971 0.0
C585 C 0.58989 0.45674 0.07209 0.0
C586 C 0.53361 0.43601 0.07528 0.0
C587 C 0.52678 0.43464 0.05409 0.0
C588 C 0.52188 0.42561 0.09146 0.0
C589 C 0.52834 0.42676 0.11414 0.0
C590 C 0.54893 0.42064 0.12051 0.0
C591 C 0.55504 0.42228 0.14185 0.0
C592 C 0.54064 0.42984 0.15701 0.0
C593 C 0.52007 0.43569 0.15087 0.0
C594 C 0.51389 0.43412 0.12954 0.0
C595 C 0.46863 0.36996 0.03316 0.0
C596 C 0.44739 0.37572 0.03687 0.0
C597 C 0.48503 0.38008 0.0441 0.0
C598 C 0.48047 0.39652 0.0585 0.0
C599 C 0.4592 0.40087 0.06381 0.0
C600 C 0.44266 0.39041 0.05307 0.0
C601 C 0.49768 0.41144 0.06449 0.0
C602 C 0.50393 0.41341 0.08583 0.0
C603 C 0.50879 0.42279 0.04853 0.0
C604 C 0.50181 0.42253 0.02593 0.0
C605 C 0.48084 0.42821 0.02043 0.0
C606 C 0.47395 0.4267 -0.00066 0.0
C607 C 0.48802 0.42003 0.98348 0.0
C608 C 0.50901 0.41481 0.9887 0.0
C609 C 0.51592 0.41603 0.00983 0.0
H610 H 0.48265 0.41892 0.96714 0.0
H611 H 0.54541 0.43113 0.17352 0.0
H612 H 0.55598 0.82923 0.42056 0.0
H613 H 0.52847 0.84095 0.39603 0.0
H614 H 0.56343 0.89896 0.38443 0.0
H615 H 0.59076 0.88755 0.40969 0.0
H616 H 0.52644 0.90788 0.39951 0.0
H617 H 0.54946 0.86389 0.34306 0.0
H618 H 0.56222 0.83143 0.3251 0.0
H619 H 0.50415 0.79918 0.34122 0.0
H620 H 0.49114 0.83134 0.35956 0.0
H621 H 0.43725 0.94915 0.34971 0.0
H622 H 0.47167 0.93139 0.34711 0.0
H623 H 0.44669 0.87751 0.38141 0.0
H624 H 0.4121 0.89531 0.38434 0.0
H625 H 0.48119 0.86897 0.34764 0.0
H626 H 0.46407 0.91052 0.4115 0.0
H627 H 0.4508 0.94307 0.42896 0.0
H628 H 0.49913 0.97993 0.39773 0.0
H629 H 0.51241 0.94758 0.37974 0.0
C630 C 0.55825 0.84412 0.41219 0.0
C631 C 0.57531 0.85767 0.41734 0.0
C632 C 0.54251 0.85078 0.398 0.0
C633 C 0.54377 0.87093 0.38843 0.0
C634 C 0.56206 0.88341 0.39173 0.0
C635 C 0.57771 0.87685 0.40612 0.0
C636 C 0.52441 0.88047 0.37882 0.0
C637 C 0.51696 0.89961 0.38766 0.0
C638 C 0.51164 0.8695 0.36377 0.0
C639 C 0.51936 0.85004 0.3528 0.0
C640 C 0.53946 0.84983 0.34293 0.0
C641 C 0.54673 0.83149 0.33264 0.0
C642 C 0.53401 0.81325 0.33204 0.0
C643 C 0.51398 0.81333 0.34169 0.0
C644 C 0.50663 0.83163 0.352 0.0
C645 C 0.43883 0.93322 0.35611 0.0
C646 C 0.42214 0.92377 0.36764 0.0
C647 C 0.45848 0.92307 0.35447 0.0
C648 C 0.46168 0.90328 0.36422 0.0
C649 C 0.44442 0.89276 0.37371 0.0
C650 C 0.42473 0.903 0.37549 0.0
C651 C 0.48356 0.89596 0.36857 0.0
C652 C 0.49121 0.87734 0.35896 0.0
C653 C 0.49666 0.90735 0.38289 0.0
C654 C 0.48904 0.92671 0.39407 0.0
C655 C 0.47175 0.9256 0.40822 0.0
C656 C 0.46423 0.944 0.41823 0.0
C657 C 0.47407 0.96358 0.41441 0.0
C658 C 0.49149 0.96476 0.40063 0.0
C659 C 0.49901 0.9464 0.39052 0.0
H660 H 0.46822 0.97781 0.42217 0.0
H661 H 0.53966 0.79906 0.32407 0.0
H662 H 0.39406 0.57932 0.4281 0.0
H663 H 0.42367 0.56337 0.4087 0.0
H664 H 0.44655 0.62586 0.39207 0.0
H665 H 0.41693 0.64196 0.4113 0.0
H666 H 0.45095 0.56641 0.36901 0.0
H667 H 0.49076 0.62912 0.41982 0.0
H668 H 0.48209 0.65265 0.45017 0.0
H669 H 0.44086 0.60462 0.47591 0.0
H670 H 0.44946 0.58083 0.44588 0.0
H671 H 0.56302 0.54683 0.36067 0.0
H672 H 0.52824 0.56442 0.36107 0.0
H673 H 0.51872 0.54403 0.42593 0.0
H674 H 0.55362 0.52689 0.42579 0.0
H675 H 0.50728 0.58389 0.42179 0.0
H676 H 0.49451 0.51872 0.38335 0.0
H677 H 0.50038 0.49234 0.35487 0.0
H678 H 0.48517 0.53936 0.30771 0.0
H679 H 0.47947 0.56611 0.33592 0.0
C680 C 0.40474 0.58964 0.41936 0.0
C681 C 0.40361 0.61186 0.42172 0.0
C682 C 0.4216 0.58048 0.40816 0.0
C683 C 0.43746 0.59349 0.3994 0.0
C684 C 0.43446 0.61561 0.39886 0.0
C685 C 0.41753 0.62478 0.40992 0.0
C686 C 0.45908 0.58473 0.39678 0.0
C687 C 0.46343 0.57039 0.38028 0.0
C688 C 0.47502 0.58948 0.41196 0.0
C689 C 0.47064 0.60331 0.43058 0.0
C690 C 0.47997 0.62358 0.43205 0.0
C691 C 0.47503 0.63696 0.44917 0.0
C692 C 0.46089 0.63015 0.46493 0.0
C693 C 0.45175 0.60991 0.46368 0.0
C694 C 0.45665 0.59648 0.44663 0.0
C695 C 0.55352 0.54619 0.37503 0.0
C696 C 0.56099 0.53551 0.39321 0.0
C697 C 0.53362 0.55614 0.37519 0.0
C698 C 0.52079 0.55534 0.39345 0.0
C699 C 0.52837 0.54487 0.41168 0.0
C700 C 0.54829 0.53506 0.41157 0.0
C701 C 0.49951 0.56552 0.3938 0.0
C702 C 0.49511 0.58013 0.4101 0.0
C703 C 0.48346 0.56054 0.37868 0.0
C704 C 0.48679 0.54446 0.36173 0.0
C705 C 0.49257 0.52347 0.3669 0.0
C706 C 0.49584 0.50845 0.35081 0.0
C707 C 0.49321 0.51418 0.32949 0.0
C708 C 0.48724 0.53495 0.32423 0.0
C709 C 0.48397 0.55004 0.34026 0.0
H710 H 0.49575 0.50253 0.31706 0.0
H711 H 0.45708 0.64053 0.47814 0.0
H712 H 0.11584 0.43036 0.05622 0.0
H713 H 0.10822 0.46318 0.07579 0.0
H714 H 0.07794 0.48936 0.01991 0.0
H715 H 0.08681 0.45721 3e-05 0.0
H716 H 0.0953 0.52009 0.04025 0.0
H717 H 0.04984 0.46166 0.0603 0.0
H718 H 0.04166 0.42564 0.07356 0.0
H719 H 0.07253 0.44018 0.13283 0.0
H720 H 0.08113 0.47622 0.11978 0.0
H721 H 0.00346 0.57189 0.08336 0.0
H722 H 0.02959 0.54882 0.06596 0.0
H723 H 0.06852 0.54994 0.12251 0.0
H724 H 0.04268 0.57362 0.13985 0.0
H725 H 0.05302 0.50786 0.10577 0.0
H726 H 0.09052 0.57089 0.08487 0.0
H727 H 0.09402 0.60678 0.06944 0.0
H728 H 0.07219 0.58329 0.00906 0.0
H729 H 0.06824 0.54731 0.0242 0.0
C730 C 0.10794 0.44333 0.04805 0.0
C731 C 0.10156 0.44119 0.02675 0.0
C732 C 0.10352 0.46202 0.05925 0.0
C733 C 0.09196 0.47852 0.04951 0.0
C734 C 0.08678 0.47686 0.02783 0.0
C735 C 0.09172 0.45842 0.0165 0.0
C736 C 0.08346 0.49654 0.06221 0.0
C737 C 0.08606 0.5174 0.05458 0.0
C738 C 0.07158 0.49313 0.08107 0.0
C739 C 0.06637 0.47151 0.08897 0.0
C740 C 0.05501 0.45711 0.0761 0.0
C741 C 0.05028 0.43671 0.08358 0.0
C742 C 0.05663 0.4306 0.104 0.0
C743 C 0.06767 0.44491 0.117 0.0
C744 C 0.07247 0.46533 0.10957 0.0
C745 C 0.0178 0.56755 0.09192 0.0
C746 C 0.02107 0.57439 0.11294 0.0
C747 C 0.03273 0.55451 0.08194 0.0
C748 C 0.05095 0.54784 0.09297 0.0
C749 C 0.05459 0.55513 0.11375 0.0
C750 C 0.03987 0.5686 0.12359 0.0
C751 C 0.06459 0.5312 0.08358 0.0
C752 C 0.06278 0.51057 0.09178 0.0
C753 C 0.07656 0.53479 0.06492 0.0
C754 C 0.07895 0.55641 0.05573 0.0
C755 C 0.08628 0.5734 0.06835 0.0
C756 C 0.08839 0.59376 0.05964 0.0
C757 C 0.0833 0.59732 0.03829 0.0
C758 C 0.07613 0.58051 0.02559 0.0
C759 C 0.07398 0.56012 0.03423 0.0
H760 H 0.08494 0.6131 0.03158 0.0
H761 H 0.05296 0.41479 0.10977 0.0
H762 H 0.03244 0.4094 0.3977 0.0
H763 H 0.05649 0.43143 0.41936 0.0
H764 H 0.00345 0.4708 0.43808 0.0
H765 H 0.97949 0.44909 0.41653 0.0
H766 H 0.06458 0.47537 0.41625 0.0
H767 H 0.01 0.48367 0.49067 0.0
H768 H 0.98384 0.46231 0.51058 0.0
H769 H 0.01234 0.40479 0.48711 0.0
H770 H 0.03897 0.42578 0.4674 0.0
H771 H 0.06868 0.57122 0.47403 0.0
H772 H 0.06101 0.53898 0.45362 0.0
H773 H 0.09082 0.50086 0.50231 0.0
H774 H 0.09867 0.53312 0.52281 0.0
H775 H 0.05025 0.48807 0.49284 0.0
H776 H 0.11395 0.50201 0.45564 0.0
H777 H 0.14063 0.52339 0.43642 0.0
H778 H 0.09539 0.53562 0.38665 0.0
H779 H 0.06832 0.51458 0.40571 0.0
C780 C 0.02596 0.42274 0.40648 0.0
C781 C 0.00412 0.42755 0.40547 0.0
C782 C 0.03969 0.43528 0.41878 0.0
C783 C 0.03166 0.45254 0.43046 0.0
C784 C 0.00988 0.45735 0.4294 0.0
C785 C 0.99624 0.445 0.417 0.0
C786 C 0.04588 0.46609 0.44342 0.0
C787 C 0.06163 0.47804 0.43305 0.0
C788 C 0.04227 0.46915 0.46543 0.0
C789 C 0.02641 0.45634 0.47739 0.0
C790 C 0.01078 0.46646 0.48983 0.0
C791 C 0.99585 0.45441 0.50109 0.0
C792 C 0.99638 0.43221 0.50006 0.0
C793 C 0.0119 0.422 0.48783 0.0
C794 C 0.02691 0.43397 0.4766 0.0
C795 C 0.0739 0.556 0.48022 0.0
C796 C 0.08418 0.55463 0.50001 0.0
C797 C 0.06967 0.53763 0.46848 0.0
C798 C 0.07556 0.5176 0.47639 0.0
C799 C 0.08634 0.51622 0.49589 0.0
C800 C 0.09077 0.53463 0.50756 0.0
C801 C 0.06807 0.49818 0.46543 0.0
C802 C 0.05353 0.48513 0.47616 0.0
C803 C 0.07282 0.49414 0.44382 0.0
C804 C 0.08905 0.50677 0.43218 0.0
C805 C 0.10963 0.50938 0.44067 0.0
C806 C 0.12484 0.52142 0.42978 0.0
C807 C 0.1197 0.53088 0.41033 0.0
C808 C 0.09935 0.52827 0.40171 0.0
C809 C 0.08408 0.51625 0.41254 0.0
H810 H 0.1315 0.5402 0.40193 0.0
H811 H 0.98479 0.42291 0.50876 0.0
H812 H 0.92409 0.88363 0.45532 0.0
H813 H 0.93209 0.91465 0.4333 0.0
H814 H 0.8951 0.95438 0.4753 0.0
H815 H 0.88691 0.92335 0.49743 0.0
H816 H 0.89075 0.96523 0.43141 0.0
H817 H 0.94524 0.95355 0.48365 0.0
H818 H 0.97153 0.93232 0.50362 0.0
H819 H 0.00537 0.91912 0.44575 0.0
H820 H 0.97907 0.94002 0.42538 0.0
H821 H 0.94561 0.06281 0.40308 0.0
H822 H 0.92693 0.03313 0.42032 0.0
H823 H 0.9669 0.98851 0.38669 0.0
H824 H 0.98581 0.01792 0.36996 0.0
H825 H 0.968 0.98149 0.42806 0.0
H826 H 0.91316 0.99411 0.37573 0.0
H827 H 0.88657 0.01553 0.35637 0.0
H828 H 0.85339 0.02787 0.4148 0.0
H829 H 0.87995 0.00675 0.43456 0.0
C830 C 0.91737 0.89889 0.45969 0.0
C831 C 0.9051 0.90115 0.47822 0.0
C832 C 0.92194 0.91658 0.44709 0.0
C833 C 0.91437 0.93679 0.45286 0.0
C834 C 0.90106 0.93889 0.47063 0.0
C835 C 0.89651 0.92119 0.48328 0.0
C836 C 0.92214 0.95587 0.44152 0.0
C837 C 0.9076 0.96899 0.43079 0.0
C838 C 0.94412 0.96061 0.44074 0.0
C839 C 0.96007 0.94818 0.45297 0.0
C840 C 0.95819 0.94598 0.47516 0.0
C841 C 0.97311 0.93403 0.48655 0.0
C842 C 0.99008 0.92433 0.47595 0.0
C843 C 0.9922 0.92662 0.45394 0.0
C844 C 0.9773 0.93853 0.44246 0.0
C845 C 0.95006 0.04664 0.3991 0.0
C846 C 0.96726 0.04261 0.3854 0.0
C847 C 0.93937 0.02971 0.40889 0.0
C848 C 0.94558 0.00861 0.40482 0.0
C849 C 0.96195 0.00466 0.39017 0.0
C850 C 0.97273 0.02148 0.38062 0.0
C851 C 0.93672 0.99064 0.41725 0.0
C852 C 0.95112 0.97779 0.42849 0.0
C853 C 0.91463 0.98632 0.41852 0.0
C854 C 0.89868 -0.00096 0.40665 0.0
C855 C 0.9003 0.00155 0.38448 0.0
C856 C 0.88521 0.0136 0.37343 0.0
C857 C 0.86833 0.0231 0.38435 0.0
C858 C 0.86649 0.02053 0.40636 0.0
C859 C 0.88154 0.0085 0.41749 0.0
H860 H 0.85666 0.03242 0.37577 0.0
H861 H 0.00161 0.91509 0.4848 0.0
H862 H 0.35783 0.57308 0.51552 0.0
H863 H 0.36326 0.53962 0.53484 0.0
H864 H 0.43076 0.5522 0.53765 0.0
H865 H 0.4255 0.5854 0.51818 0.0
H866 H 0.42307 0.51158 0.52648 0.0
H867 H 0.39858 0.56143 0.58031 0.0
H868 H 0.37304 0.58684 0.59592 0.0
H869 H 0.32496 0.53823 0.5972 0.0
H870 H 0.35018 0.5126 0.58135 0.0
H871 H 0.4541 0.46725 0.63016 0.0
H872 H 0.43218 0.49312 0.61127 0.0
H873 H 0.41134 0.44408 0.56789 0.0
H874 H 0.43324 0.41792 0.58698 0.0
H875 H 0.38998 0.4991 0.59708 0.0
H876 H 0.41988 0.4661 0.51809 0.0
H877 H 0.44783 0.44207 0.50442 0.0
H878 H 0.48893 0.4599 0.55611 0.0
H879 H 0.46137 0.48429 0.56983 0.0
C880 C 0.37381 0.56869 0.52031 0.0
C881 C 0.39125 0.58186 0.51545 0.0
C882 C 0.37687 0.5496 0.53133 0.0
C883 C 0.3974 0.54347 0.53771 0.0
C884 C 0.4148 0.55659 0.53277 0.0
C885 C 0.41176 0.57562 0.52178 0.0
C886 C 0.401 0.52359 0.54984 0.0
C887 C 0.41559 0.50872 0.54177 0.0
C888 C 0.39125 0.51984 0.56979 0.0
C889 C 0.37617 0.53519 0.57942 0.0
C890 C 0.38251 0.55622 0.58378 0.0
C891 C 0.36811 0.57064 0.59269 0.0
C892 C 0.34737 0.56417 0.59749 0.0
C893 C 0.34102 0.54323 0.59344 0.0
C894 C 0.35536 0.52875 0.5845 0.0
C895 C 0.44432 0.46184 0.617 0.0
C896 C 0.44552 0.44071 0.6098 0.0
C897 C 0.4317 0.4766 0.60632 0.0
C898 C 0.42035 0.47053 0.58808 0.0
C899 C 0.42005 0.44902 0.58193 0.0
C900 C 0.43252 0.43413 0.59283 0.0
C901 C 0.41219 0.48734 0.57379 0.0
C902 C 0.39686 0.50164 0.58146 0.0
C903 C 0.42151 0.49081 0.55361 0.0
C904 C 0.43847 0.47677 0.54511 0.0
C905 C 0.43492 0.46495 0.52646 0.0
C906 C 0.4507 0.45128 0.51871 0.0
C907 C 0.47011 0.4494 0.52944 0.0
C908 C 0.47386 0.46132 0.54785 0.0
C909 C 0.45818 0.47506 0.55561 0.0
H910 H 0.48227 0.43875 0.52347 0.0
H911 H 0.33624 0.57536 0.60439 0.0
H912 H 0.59817 0.58194 0.06536 0.0
H913 H 0.57669 0.60178 0.03939 0.0
H914 H 0.60006 0.56115 0.98917 0.0
H915 H 0.62163 0.5417 0.01473 0.0
H916 H 0.59678 0.60108 0.97547 0.0
H917 H 0.55284 0.55089 0.0155 0.0
H918 H 0.53684 0.53661 0.04837 0.0
H919 H 0.50738 0.59706 0.06067 0.0
H920 H 0.52344 0.61174 0.02797 0.0
H921 H 0.52065 0.5793 0.89787 0.0
H922 H 0.545 0.57888 0.92815 0.0
H923 H 0.50955 0.62967 0.95777 0.0
H924 H 0.48501 0.63025 0.92732 0.0
H925 H 0.51856 0.59554 0.98514 0.0
H926 H 0.5563 0.64181 0.93873 0.0
H927 H 0.57154 0.65376 0.90464 0.0
H928 H 0.61238 0.59899 0.90323 0.0
H929 H 0.59716 0.58652 0.93716 0.0
C930 C 0.59898 0.57756 0.0487 0.0
C931 C 0.61138 0.56016 0.04207 0.0
C932 C 0.58667 0.58884 0.03393 0.0
C933 C 0.58659 0.58276 0.01239 0.0
C934 C 0.59988 0.56614 0.00568 0.0
C935 C 0.61212 0.55495 0.02035 0.0
C936 C 0.57154 0.59219 0.99688 0.0
C937 C 0.57968 0.59999 0.97761 0.0
C938 C 0.54922 0.59132 -0.0001 0.0
C939 C 0.53955 0.58248 0.01949 0.0
C940 C 0.54308 0.56116 0.02531 0.0
C941 C 0.53398 0.553 0.04388 0.0
C942 C 0.52116 0.56595 0.05664 0.0
C943 C 0.51736 0.58707 0.0508 0.0
C944 C 0.52645 0.59532 0.03226 0.0
C945 C 0.51805 0.59043 0.91078 0.0
C946 C 0.50097 0.60482 0.91025 0.0
C947 C 0.53204 0.59026 0.92801 0.0
C948 C 0.52921 0.60445 0.94503 0.0
C949 C 0.51205 0.61872 0.94469 0.0
C950 C 0.4981 0.61902 0.92732 0.0
C951 C 0.54386 0.60351 0.96344 0.0
C952 C 0.53564 0.59732 0.98323 0.0
C953 C 0.56611 0.60565 0.96081 0.0
C954 C 0.57551 0.61319 0.94048 0.0
C955 C 0.56844 0.63224 0.9311 0.0
C956 C 0.57709 0.63912 0.9118 0.0
C957 C 0.5929 0.62714 0.90177 0.0
C958 C 0.60013 0.60827 0.91103 0.0
C959 C 0.59153 0.6013 0.93032 0.0
H960 H 0.59957 0.63248 0.88682 0.0
H961 H 0.51412 0.55959 0.07101 0.0
H962 H 0.40451 0.99811 0.02699 0.0
H963 H 0.42376 0.97833 -0.00014 0.0
H964 H 0.43084 0.92542 0.043 0.0
H965 H 0.41165 0.94549 0.07062 0.0
H966 H 0.4682 0.93494 0.02213 0.0
H967 H 0.39672 0.92028 0.00253 0.0
H968 H 0.35902 0.92723 0.99435 0.0
H969 H 0.37731 0.96799 0.94268 0.0
H970 H 0.4152 0.96141 0.95067 0.0
H971 H 0.50989 0.87811 0.9307 0.0
H972 H 0.48815 0.8871 0.9619 0.0
H973 H 0.47386 0.94831 0.93432 0.0
H974 H 0.49551 0.93953 0.9033 0.0
H975 H 0.43813 0.9271 0.94949 0.0
H976 H 0.50978 0.94476 0.97268 0.0
H977 H 0.54741 0.93652 0.98029 0.0
H978 H 0.52822 0.88877 0.0252 0.0
H979 H 0.49044 0.89653 0.01762 0.0
C980 C 0.41015 0.98228 0.03077 0.0
C981 C 0.40662 0.97336 0.05094 0.0
C982 C 0.42102 0.97091 0.01517 0.0
C983 C 0.42848 0.95029 0.01931 0.0
C984 C 0.4251 0.94128 0.03948 0.0
C985 C 0.41411 0.95271 0.05518 0.0
C986 C 0.44028 0.9387 0.00251 0.0
C987 C 0.46148 0.93275 0.00637 0.0
C988 C 0.43157 0.93603 0.98191 0.0
C989 C 0.40881 0.94042 0.97728 0.0
C990 C 0.39272 0.93088 0.98954 0.0
C991 C 0.3713 0.93472 0.9849 0.0
C992 C 0.36575 0.94806 0.968 0.0
C993 C 0.38163 0.95764 0.95575 0.0
C994 C 0.40308 0.95382 0.9603 0.0
C995 C 0.5021 0.89347 0.93134 0.0
C996 C 0.50433 0.90812 0.91459 0.0
C997 C 0.48976 0.89859 0.94916 0.0
C998 C 0.47946 0.91836 0.95037 0.0
C999 C 0.48164 0.93293 0.93362 0.0
C1000 C 0.49405 0.92791 0.91595 0.0
C1001 C 0.46618 0.9241 0.96893 0.0
C1002 C 0.44469 0.92891 0.96537 0.0
C1003 C 0.47461 0.9256 0.98975 0.0
C1004 C 0.4973 0.92103 0.99439 0.0
C1005 C 0.51359 0.93237 0.98404 0.0
C1006 C 0.53494 0.92782 0.98837 0.0
C1007 C 0.54021 0.91208 0.00317 0.0
C1008 C 0.52412 0.90092 0.01371 0.0
C1009 C 0.50274 0.90539 0.00941 0.0
H1010 H 0.55675 0.90858 0.00651 0.0
H1011 H 0.34916 0.95092 0.96433 0.0
H1012 H 0.56211 0.40069 0.58818 0.0
H1013 H 0.58222 0.40014 0.55481 0.0
H1014 H 0.52361 0.40665 0.51943 0.0
H1015 H 0.50346 0.40627 0.55266 0.0
H1016 H 0.54884 0.38008 0.49946 0.0
H1017 H 0.55725 0.44998 0.53154 0.0
H1018 H 0.5676 0.47525 0.5598 0.0
H1019 H 0.63183 0.45193 0.55767 0.0
H1020 H 0.6218 0.42641 0.5295 0.0
H1021 H 0.57212 0.44395 0.41068 0.0
H1022 H 0.56125 0.42202 0.44068 0.0
H1023 H 0.62682 0.41636 0.4605 0.0
H1024 H 0.63776 0.43868 0.43067 0.0
H1025 H 0.60407 0.43559 0.48957 0.0
H1026 H 0.59595 0.37155 0.4505 0.0
H1027 H 0.5847 0.34828 0.42096 0.0
H1028 H 0.51913 0.36201 0.4345 0.0
H1029 H 0.52996 0.38562 0.46393 0.0
C1030 C 0.55357 0.40194 0.57325 0.0
C1031 C 0.53129 0.40368 0.57294 0.0
C1032 C 0.56505 0.40161 0.55422 0.0
C1033 C 0.55445 0.4036 0.53461 0.0
C1034 C 0.53214 0.40499 0.53434 0.0
C1035 C 0.52065 0.40492 0.55332 0.0
C1036 C 0.56649 0.40544 0.5144 0.0
C1037 C 0.5609 0.39224 0.49721 0.0
C1038 C 0.58272 0.42083 0.51168 0.0
C1039 C 0.58871 0.4361 0.52866 0.0
C1040 C 0.57354 0.45014 0.53723 0.0
C1041 C 0.57936 0.46453 0.55319 0.0
C1042 C 0.60035 0.46514 0.56057 0.0
C1043 C 0.61557 0.4514 0.55198 0.0
C1044 C 0.60984 0.43698 0.53601 0.0
C1045 C 0.58432 0.43731 0.4209 0.0
C1046 C 0.60572 0.44338 0.41862 0.0
C1047 C 0.57809 0.42464 0.43803 0.0
C1048 C 0.59321 0.41767 0.45297 0.0
C1049 C 0.61488 0.42164 0.44922 0.0
C1050 C 0.62111 0.43439 0.43214 0.0
C1051 C 0.58603 0.41065 0.4743 0.0
C1052 C 0.59248 0.42297 0.49181 0.0
C1053 C 0.57044 0.39465 0.47713 0.0
C1054 C 0.5638 0.38046 0.45941 0.0
C1055 C 0.57913 0.36975 0.4471 0.0
C1056 C 0.57282 0.35646 0.43038 0.0
C1057 C 0.55122 0.35368 0.42584 0.0
C1058 C 0.53587 0.36416 0.43804 0.0
C1059 C 0.54208 0.37747 0.45478 0.0
H1060 H 0.54637 0.34339 0.41289 0.0
H1061 H 0.60483 0.47631 0.57292 0.0
H1062 H 0.49228 0.03899 0.58952 0.0
H1063 H 0.47523 0.02414 0.55781 0.0
H1064 H 0.46399 0.08752 0.53399 0.0
H1065 H 0.48098 0.10253 0.56572 0.0
H1066 H 0.42966 0.06065 0.52773 0.0
H1067 H 0.50496 0.06063 0.51514 0.0
H1068 H 0.54256 0.05303 0.5232 0.0
H1069 H 0.52924 0.98599 0.52396 0.0
H1070 H 0.49139 0.99324 0.51608 0.0
H1071 H 0.40498 0.0272 0.4227 0.0
H1072 H 0.42315 0.04541 0.45209 0.0
H1073 H 0.44069 0.98467 0.47888 0.0
H1074 H 0.42294 0.96648 0.44952 0.0
H1075 H 0.47271 0.01227 0.48247 0.0
H1076 H 0.39737 0.012 0.49696 0.0
H1077 H 0.35952 0.01926 0.4894 0.0
H1078 H 0.37277 0.08623 0.48589 0.0
H1079 H 0.41078 0.07932 0.49314 0.0
C1080 C 0.48589 0.04977 0.57769 0.0
C1081 C 0.48803 0.07191 0.58002 0.0
C1082 C 0.47629 0.04126 0.55954 0.0
C1083 C 0.4687 0.05475 0.54344 0.0
C1084 C 0.46986 0.07687 0.54621 0.0
C1085 C 0.47955 0.0854 0.56433 0.0
C1086 C 0.46021 0.04572 0.52341 0.0
C1087 C 0.43914 0.05033 0.51764 0.0
C1088 C 0.47254 0.03198 0.51052 0.0
C1089 C 0.49529 0.0275 0.51521 0.0
C1090 C 0.51 0.04428 0.5172 0.0
C1091 C 0.53137 0.04002 0.52171 0.0
C1092 C 0.5383 0.01903 0.52418 0.0
C1093 C 0.52384 0.00224 0.52208 0.0
C1094 C 0.50243 0.00642 0.51755 0.0
C1095 C 0.41296 0.01778 0.43473 0.0
C1096 C 0.41241 0.99545 0.43394 0.0
C1097 C 0.42323 0.02817 0.45154 0.0
C1098 C 0.43296 0.01636 0.46785 0.0
C1099 C 0.43323 0.99409 0.46652 0.0
C1100 C 0.42302 0.98372 0.44975 0.0
C1101 C 0.44204 0.02701 0.48684 0.0
C1102 C 0.46325 0.02271 0.49246 0.0
C1103 C 0.4298 0.04094 0.49966 0.0
C1104 C 0.40695 0.04512 0.49535 0.0
C1105 C 0.39224 0.02826 0.49441 0.0
C1106 C 0.37075 0.03231 0.49021 0.0
C1107 C 0.36376 0.05319 0.4871 0.0
C1108 C 0.37822 0.07006 0.48825 0.0
C1109 C 0.39973 0.06609 0.49242 0.0
H1110 H 0.34712 0.0563 0.48386 0.0
H1111 H 0.55486 0.01577 0.5276 0.0
H1112 H 0.07306 0.54974 0.58301 0.0
H1113 H 0.04314 0.52746 0.59428 0.0
H1114 H 0.00465 0.58361 0.60323 0.0
H1115 H 0.03442 0.60588 0.59205 0.0
H1116 H 0.99327 0.55134 0.63084 0.0
H1117 H 0.00781 0.56182 0.55583 0.0
H1118 H 0.0293 0.55987 0.52306 0.0
H1119 H 0.03293 0.49189 0.52905 0.0
H1120 H 0.0119 0.49349 0.56215 0.0
H1121 H 0.88874 0.52925 0.59662 0.0
H1122 H 0.92513 0.54293 0.59943 0.0
H1123 H 0.94981 0.47923 0.59273 0.0
H1124 H 0.9134 0.46537 0.59007 0.0
H1125 H 0.97075 0.50968 0.56751 0.0
H1126 H 0.95067 0.49952 0.63992 0.0
H1127 H 0.92732 0.50251 0.67129 0.0
H1128 H 0.93241 0.57063 0.66907 0.0
H1129 H 0.95553 0.56807 0.63746 0.0
C1130 C 0.05854 0.55737 0.58833 0.0
C1131 C 0.05589 0.57948 0.58636 0.0
C1132 C 0.04142 0.54461 0.59463 0.0
C1133 C 0.02157 0.55389 0.59907 0.0
C1134 C 0.0198 0.57613 0.59973 0.0
C1135 C 0.03682 0.58885 0.59332 0.0
C1136 C 0.00193 0.54088 0.59938 0.0
C1137 C 0.98836 0.54216 0.61705 0.0
C1138 C 0.99566 0.52872 0.58142 0.0
C1139 C 0.00857 0.5278 0.56166 0.0
C1140 C 0.01343 0.54648 0.55032 0.0
C1141 C 0.02549 0.54544 0.53166 0.0
C1142 C 0.03248 0.52578 0.52399 0.0
C1143 C 0.02754 0.50712 0.53502 0.0
C1144 C 0.01559 0.50808 0.55376 0.0
C1145 C 0.90192 0.51818 0.59557 0.0
C1146 C 0.89828 0.49626 0.59316 0.0
C1147 C 0.92266 0.52599 0.59735 0.0
C1148 C 0.94008 0.51202 0.59661 0.0
C1149 C 0.93654 0.49021 0.59349 0.0
C1150 C 0.91577 0.48235 0.59195 0.0
C1151 C 0.96199 0.52039 0.59884 0.0
C1152 C 0.9759 0.51835 0.58155 0.0
C1153 C 0.96847 0.53196 0.61706 0.0
C1154 C 0.95473 0.5336 0.63621 0.0
C1155 C 0.94669 0.51515 0.64601 0.0
C1156 C 0.93351 0.51676 0.66386 0.0
C1157 C 0.92835 0.53675 0.67214 0.0
C1158 C 0.93641 0.55516 0.66263 0.0
C1159 C 0.94958 0.55363 0.64476 0.0
H1160 H 0.91813 0.53796 0.68595 0.0
H1161 H 0.04161 0.52501 0.50944 0.0
H1162 H 0.96914 0.85655 0.55464 0.0
H1163 H 0.99666 0.87512 0.57457 0.0
H1164 H 0.94985 0.91928 0.59859 0.0
H1165 H 0.92193 0.90052 0.57842 0.0
H1166 H 0.98362 0.93923 0.58008 0.0
H1167 H 0.97487 0.88715 0.63339 0.0
H1168 H 0.96996 0.85134 0.64859 0.0
H1169 H 0.03088 0.83222 0.62425 0.0
H1170 H 0.03605 0.86781 0.60861 0.0
H1171 H 0.07754 0.98793 0.62254 0.0
H1172 H 0.04245 0.97091 0.62303 0.0
H1173 H 0.0685 0.91616 0.5908 0.0
H1174 H 0.10359 0.93304 0.59026 0.0
H1175 H 0.04041 0.90521 0.62318 0.0
H1176 H 0.04394 0.95388 0.56294 0.0
H1177 H 0.04861 0.98907 0.54619 0.0
H1178 H 0.99689 0.01399 0.58325 0.0
H1179 H 0.99211 0.97898 0.60044 0.0
C1180 C 0.9646 0.86997 0.56448 0.0
C1181 C 0.94346 0.8772 0.56492 0.0
C1182 C 0.98033 0.88048 0.57601 0.0
C1183 C 0.97528 0.89846 0.58824 0.0
C1184 C 0.95401 0.90532 0.58936 0.0
C1185 C 0.93812 0.8946 0.57791 0.0
C1186 C 0.99282 0.91119 0.59754 0.0
C1187 C 0.99571 0.93204 0.5901 0.0
C1188 C 0.00875 0.90167 0.61032 0.0
C1189 C 0.00582 0.88019 0.61977 0.0
C1190 C 0.98718 0.87528 0.63116 0.0
C1191 C 0.98435 0.85502 0.63987 0.0
C1192 C 0.0001 0.83951 0.63738 0.0
C1193 C 0.01871 0.84425 0.62619 0.0
C1194 C 0.02161 0.8645 0.61743 0.0
C1195 C 0.07582 0.97218 0.61575 0.0
C1196 C 0.09323 0.96185 0.6062 0.0
C1197 C 0.05578 0.9625 0.61605 0.0
C1198 C 0.0529 0.94236 0.60684 0.0
C1199 C 0.07044 0.9317 0.59804 0.0
C1200 C 0.09043 0.9414 0.59763 0.0
C1201 C 0.03144 0.93281 0.605 0.0
C1202 C 0.02792 0.91261 0.61381 0.0
C1203 C 0.01494 0.94289 0.59345 0.0
C1204 C 0.01787 0.96392 0.58319 0.0
C1205 C 0.03371 0.96692 0.56767 0.0
C1206 C 0.03634 0.98682 0.55806 0.0
C1207 C 0.02311 0.00377 0.56371 0.0
C1208 C 0.00717 0.00085 0.57894 0.0
C1209 C 0.00449 0.981 0.58861 0.0
H1210 H 0.02515 0.01916 0.55623 0.0
H1211 H 0.99788 0.82383 0.64413 0.0
H1212 H 0.09291 0.42174 0.92989 0.0
H1213 H 0.06816 0.44129 0.90699 0.0
H1214 H 0.01726 0.39923 0.9259 0.0
H1215 H 0.0419 0.37947 0.94844 0.0
H1216 H 0.01143 0.41282 0.88544 0.0
H1217 H 0.02695 0.44359 0.95452 0.0
H1218 H 0.05029 0.45808 0.98259 0.0
H1219 H 0.07284 0.50613 0.93956 0.0
H1220 H 0.04967 0.49178 0.91118 0.0
H1221 H 0.91831 0.47238 0.90388 0.0
H1222 H 0.95051 0.45061 0.90414 0.0
H1223 H 0.98602 0.50239 0.87639 0.0
H1224 H 0.9537 0.52431 0.87597 0.0
H1225 H 0.00401 0.48642 0.91323 0.0
H1226 H 0.97862 0.45897 0.84732 0.0
H1227 H 0.95216 0.44403 0.82245 0.0
H1228 H 0.94528 0.38893 0.86222 0.0
H1229 H 0.97146 0.40367 0.88752 0.0
C1230 C 0.07661 0.41624 0.9286 0.0
C1231 C 0.06922 0.39934 0.94122 0.0
C1232 C 0.06248 0.42746 0.91557 0.0
C1233 C 0.04079 0.42198 0.91513 0.0
C1234 C 0.03391 0.40379 0.92607 0.0
C1235 C 0.048 0.39256 0.93903 0.0
C1236 C 0.02473 0.43672 0.90614 0.0
C1237 C 0.00983 0.42896 0.89139 0.0
C1238 C 0.02283 0.45787 0.91372 0.0
C1239 C 0.03683 0.46646 0.93068 0.0
C1240 C 0.03702 0.45714 0.95101 0.0
C1241 C 0.05019 0.46534 0.96698 0.0
C1242 C 0.06313 0.48296 0.96284 0.0
C1243 C 0.06286 0.49244 0.94273 0.0
C1244 C 0.0497 0.4843 0.9267 0.0
C1245 C 0.93291 0.47904 0.89757 0.0
C1246 C 0.93356 0.50006 0.89001 0.0
C1247 C 0.95125 0.46653 0.89757 0.0
C1248 C 0.97058 0.47483 0.89008 0.0
C1249 C 0.9712 0.49567 0.88208 0.0
C1250 C 0.95276 0.50814 0.88187 0.0
C1251 C 0.99042 0.46242 0.89283 0.0
C1252 C 0.00597 0.47058 0.90661 0.0
C1253 C 0.99262 0.44155 0.88464 0.0
C1254 C 0.97697 0.4325 0.86938 0.0
C1255 C 0.97137 0.44373 0.85085 0.0
C1256 C 0.95643 0.43528 0.83665 0.0
C1257 C 0.94703 0.41555 0.84076 0.0
C1258 C 0.95258 0.40421 0.85905 0.0
C1259 C 0.96751 0.41259 0.87331 0.0
H1260 H 0.93546 0.40904 0.82976 0.0
H1261 H 0.07331 0.48931 0.97523 0.0
H1262 H 0.06276 0.02536 0.88411 0.0
H1263 H 0.0308 0.04544 0.89449 0.0
H1264 H 0.06689 0.07757 0.94327 0.0
H1265 H 0.0988 0.05803 0.93286 0.0
H1266 H 0.02774 0.05132 0.95525 0.0
H1267 H 0.05457 0.1067 0.90775 0.0
H1268 H 0.06581 0.12017 0.87267 0.0
H1269 H 0.00443 0.10477 0.8467 0.0
H1270 H 0.99294 0.09091 0.88159 0.0
H1271 H 0.97146 0.12931 0.00823 0.0
H1272 H 0.99735 0.10965 0.98722 0.0
H1273 H 0.95144 0.10271 0.93656 0.0
H1274 H 0.92528 0.12283 0.95758 0.0
H1275 H 0.99073 0.11209 0.92102 0.0
H1276 H 0.96169 0.0607 0.96757 0.0
H1277 H 0.94944 0.04366 0.00071 0.0
H1278 H 0.01256 0.0478 0.02665 0.0
H1279 H 0.02517 0.06512 0.9938 0.0
C1280 C 0.06394 0.03705 0.89673 0.0
C1281 C 0.0832 0.04004 0.90779 0.0
C1282 C 0.04573 0.04849 0.90258 0.0
C1283 C 0.04661 0.06287 0.91963 0.0
C1284 C 0.06601 0.06653 0.93004 0.0
C1285 C 0.08419 0.05536 0.92406 0.0
C1286 C 0.02706 0.07244 0.92836 0.0
C1287 C 0.01967 0.0647 0.94789 0.0
C1288 C 0.01608 0.08914 0.91811 0.0
C1289 C 0.023 0.0975 0.89719 0.0
C1290 C 0.04356 0.10595 0.8945 0.0
C1291 C 0.04995 0.11372 0.87467 0.0
C1292 C 0.03587 0.11325 0.85744 0.0
C1293 C 0.01534 0.10508 0.86004 0.0
C1294 C 0.00887 0.09728 0.87984 0.0
C1295 C 0.96685 0.12373 0.99258 0.0
C1296 C 0.94632 0.12754 0.98456 0.0
C1297 C 0.98164 0.11237 0.98063 0.0
C1298 C 0.97619 0.10439 0.96049 0.0
C1299 C 0.95589 0.10864 0.95212 0.0
C1300 C 0.941 0.1201 0.96413 0.0
C1301 C 0.99193 0.09159 0.94851 0.0
C1302 C 0.99855 0.09855 0.92832 0.0
C1303 C 0.00206 0.07384 0.95799 0.0
C1304 C 0.99437 0.06426 0.97819 0.0
C1305 C 0.97293 0.05817 0.98041 0.0
C1306 C 0.96594 0.04837 -0.00089 0.0
C1307 C 0.98026 0.04448 0.01568 0.0
C1308 C 0.00153 0.05068 0.01373 0.0
C1309 C 0.00861 0.06047 0.99507 0.0
H1310 H 0.97486 0.03673 0.03008 0.0
H1311 H 0.04084 0.11928 0.8421 0.0
H1312 H 0.59302 0.05305 0.61581 0.0
H1313 H 0.60656 0.02374 0.59425 0.0
H1314 H 0.57839 0.05169 0.53826 0.0
H1315 H 0.56476 0.0811 0.55974 0.0
H1316 H 0.57712 0.99842 0.57728 0.0
H1317 H 0.60029 0.02899 0.49371 0.0
H1318 H 0.61897 0.05941 0.47739 0.0
H1319 H 0.65533 0.06836 0.5346 0.0
H1320 H 0.63709 0.03782 0.55116 0.0
H1321 H 0.56298 0.91523 0.50375 0.0
H1322 H 0.56187 0.95104 0.51913 0.0
H1323 H 0.63053 0.95366 0.51839 0.0
H1324 H 0.63171 0.91818 0.50243 0.0
H1325 H 0.61396 0.99167 0.50783 0.0
H1326 H 0.60317 0.93942 0.56372 0.0
H1327 H 0.58504 0.90898 0.58063 0.0
H1328 H 0.52613 0.94367 0.58076 0.0
H1329 H 0.54388 0.97422 0.56362 0.0
C1330 C 0.59039 0.05339 0.59877 0.0
C1331 C 0.5775 0.06912 0.58951 0.0
C1332 C 0.59809 0.03659 0.58648 0.0
C1333 C 0.59309 0.03533 0.56475 0.0
C1334 C 0.58235 0.05232 0.55502 0.0
C1335 C 0.57462 0.06917 0.56732 0.0
C1336 C 0.59552 0.0148 0.55341 0.0
C1337 C 0.58538 0.99695 0.56218 0.0
C1338 C 0.60597 0.01294 0.53358 0.0
C1339 C 0.6172 0.03121 0.52371 0.0
C1340 C 0.61234 0.03739 0.50277 0.0
C1341 C 0.62284 0.05466 0.49349 0.0
C1342 C 0.63829 0.06584 0.50497 0.0
C1343 C 0.64331 0.05973 0.52575 0.0
C1344 C 0.63287 0.04246 0.5351 0.0
C1345 C 0.57781 0.92352 0.50675 0.0
C1346 C 0.59744 0.91386 0.50214 0.0
C1347 C 0.57717 0.94395 0.51552 0.0
C1348 C 0.59614 0.95487 0.52019 0.0
C1349 C 0.61571 0.94552 0.51492 0.0
C1350 C 0.61636 0.92521 0.50593 0.0
C1351 C 0.59569 0.97538 0.53184 0.0
C1352 C 0.60593 0.9932 0.52303 0.0
C1353 C 0.58542 0.97729 0.55176 0.0
C1354 C 0.57481 0.95901 0.56225 0.0
C1355 C 0.58633 0.9405 0.56726 0.0
C1356 C 0.57612 0.92324 0.57689 0.0
C1357 C 0.55444 0.92437 0.58172 0.0
C1358 C 0.54292 0.9428 0.57699 0.0
C1359 C 0.55304 0.9601 0.56734 0.0
H1360 H 0.54657 0.91099 0.58917 0.0
H1361 H 0.64639 0.07922 0.49775 0.0
H1362 H 0.62494 0.06633 0.96798 0.0
H1363 H 0.63059 0.03087 0.95317 0.0
H1364 H 0.61797 0.05498 0.89014 0.0
H1365 H 0.61202 0.09059 0.90495 0.0
H1366 H 0.59439 0.0208 0.89865 0.0
H1367 H 0.66813 0.03839 0.9044 0.0
H1368 H 0.70071 0.05136 0.92207 0.0
H1369 H 0.69622 0.00107 0.96807 0.0
H1370 H 0.66342 0.98797 0.95086 0.0
H1371 H 0.61015 0.9236 0.85103 0.0
H1372 H 0.62932 0.95552 0.86212 0.0
H1373 H 0.61096 0.94427 0.92717 0.0
H1374 H 0.59166 0.91235 0.91628 0.0
H1375 H 0.65502 0.9722 0.91338 0.0
H1376 H 0.57241 0.97289 0.91667 0.0
H1377 H 0.53915 0.95883 0.90094 0.0
H1378 H 0.56256 0.97292 0.83833 0.0
H1379 H 0.59594 0.98692 0.85376 0.0
C1380 C 0.62361 0.06415 0.95092 0.0
C1381 C 0.61791 0.08119 0.93761 0.0
C1382 C 0.62704 0.0439 0.94246 0.0
C1383 C 0.62496 0.04032 0.92052 0.0
C1384 C 0.61977 0.05744 0.90711 0.0
C1385 C 0.61635 0.07774 0.91558 0.0
C1386 C 0.62598 0.01834 0.91199 0.0
C1387 C 0.60793 0.01045 0.90146 0.0
C1388 C 0.6434 0.00454 0.91607 0.0
C1389 C 0.66322 0.01227 0.9264 0.0
C1390 C 0.67399 0.03018 0.91837 0.0
C1391 C 0.69252 0.03754 0.92829 0.0
C1392 C 0.70051 0.02706 0.9462 0.0
C1393 C 0.69001 0.00917 0.95419 0.0
C1394 C 0.67147 0.00175 0.94434 0.0
C1395 C 0.61118 0.9272 0.86786 0.0
C1396 C 0.59894 0.91583 0.88273 0.0
C1397 C 0.62225 0.94544 0.87417 0.0
C1398 C 0.62131 0.95229 0.89539 0.0
C1399 C 0.61193 0.93912 0.91073 0.0
C1400 C 0.60079 0.92093 0.90444 0.0
C1401 C 0.6236 0.97515 0.90013 0.0
C1402 C 0.64193 0.98297 0.91013 0.0
C1403 C 0.60653 0.98905 0.89568 0.0
C1404 C 0.58643 0.98111 0.88632 0.0
C1405 C 0.57033 0.97307 0.89956 0.0
C1406 C 0.55153 0.96505 0.89071 0.0
C1407 C 0.54869 0.9651 0.86865 0.0
C1408 C 0.56473 0.97296 0.8554 0.0
C1409 C 0.58356 0.98098 0.86418 0.0
H1410 H 0.53404 0.95912 0.86186 0.0
H1411 H 0.71486 0.03279 0.95386 0.0
H1412 H 0.40516 0.55222 0.85644 0.0
H1413 H 0.38874 0.52357 0.87656 0.0
H1414 H 0.3918 0.56174 0.93363 0.0
H1415 H 0.4089 0.59036 0.91357 0.0
H1416 H 0.41265 0.52668 0.93901 0.0
H1417 H 0.34339 0.54194 0.91374 0.0
H1418 H 0.31528 0.55081 0.88782 0.0
H1419 H 0.32655 0.49202 0.85482 0.0
H1420 H 0.35495 0.48291 0.88034 0.0
H1421 H 0.38414 0.43334 0.99558 0.0
H1422 H 0.37974 0.46896 0.9805 0.0
H1423 H 0.3893 0.44354 0.91746 0.0
H1424 H 0.39384 0.40782 0.93244 0.0
H1425 H 0.35611 0.47485 0.92009 0.0
H1426 H 0.43059 0.46561 0.93923 0.0
H1427 H 0.46025 0.45711 0.96349 0.0
H1428 H 0.4387 0.50502 0.00724 0.0
H1429 H 0.40894 0.51389 0.98308 0.0
C1430 C 0.40166 0.55484 0.87312 0.0
C1431 C 0.40866 0.57337 0.88352 0.0
C1432 C 0.3921 0.53845 0.88462 0.0
C1433 C 0.38909 0.54041 0.90668 0.0
C1434 C 0.39405 0.55983 0.91665 0.0
C1435 C 0.40377 0.57621 0.90515 0.0
C1436 C 0.38483 0.5211 0.91959 0.0
C1437 C 0.39982 0.51572 0.93529 0.0
C1438 C 0.3685 0.50642 0.91438 0.0
C1439 C 0.3514 0.51179 0.89894 0.0
C1440 C 0.34 0.53096 0.90087 0.0
C1441 C 0.32398 0.53602 0.88626 0.0
C1442 C 0.31915 0.522 0.86968 0.0
C1443 C 0.3303 0.50287 0.86769 0.0
C1444 C 0.34634 0.49773 0.88225 0.0
C1445 C 0.3851 0.4353 0.97849 0.0
C1446 C 0.3895 0.41786 0.96518 0.0
C1447 C 0.38255 0.45563 0.96992 0.0
C1448 C 0.38424 0.45884 0.9479 0.0
C1449 C 0.38783 0.44133 0.93449 0.0
C1450 C 0.39056 0.421 0.94307 0.0
C1451 C 0.38409 0.48062 0.93901 0.0
C1452 C 0.36843 0.48627 0.92412 0.0
C1453 C 0.39979 0.49564 0.94486 0.0
C1454 C 0.41744 0.49021 0.95952 0.0
C1455 C 0.4321 0.4742 0.95411 0.0
C1456 C 0.44895 0.46936 0.96781 0.0
C1457 C 0.45129 0.48041 0.98698 0.0
C1458 C 0.43683 0.49643 0.99242 0.0
C1459 C 0.42001 0.50141 0.9787 0.0
H1460 H 0.46433 0.47661 0.99759 0.0
H1461 H 0.30675 0.52595 0.85838 0.0
H1462 H 0.9134 0.11716 0.08966 0.0
H1463 H 0.92206 0.08312 0.10632 0.0
H1464 H 0.88796 0.04991 0.05681 0.0
H1465 H 0.87928 0.08391 0.03994 0.0
H1466 H 0.88662 0.02988 0.09929 0.0
H1467 H 0.9348 0.05897 0.04712 0.0
H1468 H 0.95687 0.08756 0.03187 0.0
H1469 H 0.99564 0.08825 0.08817 0.0
H1470 H 0.97326 0.06022 0.10413 0.0
H1471 H 0.94648 0.93249 0.10373 0.0
H1472 H 0.92641 0.96421 0.09301 0.0
H1473 H 0.97001 0.00371 0.12871 0.0
H1474 H 0.99054 0.97229 0.13844 0.0
H1475 H 0.96469 0.02005 0.09198 0.0
H1476 H 0.91647 0.99181 0.14486 0.0
H1477 H 0.89349 0.96448 0.16116 0.0
H1478 H 0.8554 0.96202 0.10443 0.0
H1479 H 0.87832 0.98916 0.08769 0.0
C1480 C 0.90715 0.10267 0.0827 0.0
C1481 C 0.89603 0.10311 0.0633 0.0
C1482 C 0.91208 0.08325 0.09225 0.0
C1483 C 0.9059 0.06409 0.08256 0.0
C1484 C 0.89286 0.06457 0.06446 0.0
C1485 C 0.88804 0.08399 0.05481 0.0
C1486 C 0.9161 0.04395 0.08902 0.0
C1487 C 0.90366 0.02757 0.09762 0.0
C1488 C 0.93833 0.04115 0.0868 0.0
C1489 C 0.95213 0.05767 0.07697 0.0
C1490 C 0.94782 0.06543 0.05641 0.0
C1491 C 0.96038 0.08156 0.04763 0.0
C1492 C 0.97762 0.08975 0.05906 0.0
C1493 C 0.98227 0.0819 0.07933 0.0
C1494 C 0.9696 0.06593 0.08828 0.0
C1495 C 0.95161 0.94796 0.10936 0.0
C1496 C 0.97007 0.95002 0.12182 0.0
C1497 C 0.94009 0.96606 0.10335 0.0
C1498 C 0.94657 0.98638 0.11019 0.0
C1499 C 0.96471 0.98826 0.12313 0.0
C1500 C 0.97642 0.97029 0.12873 0.0
C1501 C 0.93539 0.00593 0.10303 0.0
C1502 C 0.94766 0.02224 0.09392 0.0
C1503 C 0.91305 0.00861 0.10487 0.0
C1504 C 0.89923 0.99236 0.11496 0.0
C1505 C 0.90329 0.98533 0.13581 0.0
C1506 C 0.89025 0.9699 0.14513 0.0
C1507 C 0.87303 0.96148 0.13381 0.0
C1508 C 0.86876 0.96853 0.11316 0.0
C1509 C 0.88175 0.98395 0.10376 0.0
H1510 H 0.86296 0.94953 0.14106 0.0
H1511 H 0.9874 0.10214 0.05217 0.0
H1512 H 0.96267 0.15141 0.34713 0.0
H1513 H 0.95761 0.18941 0.33992 0.0
H1514 H 0.02551 0.19719 0.3329 0.0
H1515 H 0.03069 0.15943 0.34026 0.0
H1516 H 0.00886 0.22412 0.36184 0.0
H1517 H 0.9931 0.2023 0.29039 0.0
H1518 H 0.97471 0.18167 0.26249 0.0
H1519 H 0.91475 0.20815 0.28185 0.0
H1520 H 0.93274 0.22872 0.31008 0.0
H1521 H 0.00599 0.33326 0.34266 0.0
H1522 H 0.01194 0.29561 0.33481 0.0
H1523 H 0.9443 0.28402 0.33849 0.0
H1524 H 0.9382 0.3218 0.34561 0.0
H1525 H 0.962 0.25909 0.30876 0.0
H1526 H 0.97602 0.27726 0.3819 0.0
H1527 H 0.99299 0.29728 0.41114 0.0
H1528 H 0.05462 0.27652 0.39012 0.0
H1529 H 0.03802 0.25661 0.36056 0.0
C1530 C 0.97646 0.16119 0.3437 0.0
C1531 C 0.99708 0.15257 0.34446 0.0
C1532 C 0.97354 0.18283 0.33947 0.0
C1533 C 0.9912 0.19605 0.33584 0.0
C1534 C 0.0117 0.18723 0.33568 0.0
C1535 C 0.01462 0.16568 0.33992 0.0
C1536 C 0.98861 0.21938 0.33455 0.0
C1537 C -0.00104 0.2318 0.34995 0.0
C1538 C 0.97512 0.22924 0.31948 0.0
C1539 C 0.96426 0.21692 0.30248 0.0
C1540 C 0.97597 0.20359 0.28883 0.0
C1541 C 0.96562 0.19193 0.27292 0.0
C1542 C 0.94357 0.19356 0.27043 0.0
C1543 C 0.93183 0.20689 0.28381 0.0
C1544 C 0.9421 0.21857 0.29975 0.0
C1545 C 0.99238 0.32274 0.3414 0.0
C1546 C 0.97168 0.33031 0.34504 0.0
C1547 C 0.99579 0.30126 0.33694 0.0
C1548 C 0.97859 0.28698 0.33655 0.0
C1549 C 0.95778 0.29478 0.3388 0.0
C1550 C 0.95434 0.31633 0.34296 0.0
C1551 C 0.98239 0.26376 0.33595 0.0
C1552 C 0.97215 0.25138 0.3204 0.0
C1553 C 0.9958 0.25378 0.35106 0.0
C1554 C 0.0058 0.26565 0.36889 0.0
C1555 C 0.9932 0.2771 0.38343 0.0
C1556 C 0.00275 0.28841 0.40006 0.0
C1557 C 0.02487 0.28823 0.40244 0.0
C1558 C 0.03749 0.27668 0.38823 0.0
C1559 C 0.02802 0.26538 0.37154 0.0
H1560 H 0.03223 0.29699 0.41534 0.0
H1561 H 0.93559 0.18452 0.25811 0.0
H1562 H 0.94708 0.66225 0.19209 0.0
H1563 H 0.94415 0.70067 0.1986 0.0
H1564 H 0.0033 0.71083 0.16538 0.0
H1565 H 0.0066 0.67264 0.15913 0.0
H1566 H 0.98032 0.73604 0.21391 0.0
H1567 H 0.98146 0.74121 0.12333 0.0
H1568 H 0.97097 0.71967 0.09216 0.0
H1569 H 0.9201 0.69163 0.12812 0.0
H1570 H 0.93003 0.71331 0.15935 0.0
H1571 H 0.02039 0.83018 0.17048 0.0
H1572 H 0.01007 0.79451 0.18168 0.0
H1573 H 0.945 0.80741 0.16375 0.0
H1574 H 0.95529 0.84333 0.15241 0.0
H1575 H 0.9601 0.7711 0.14605 0.0
H1576 H 0.95636 0.80039 0.21546 0.0
H1577 H 0.96807 0.82155 0.24639 0.0
H1578 H 0.02297 0.78149 0.25355 0.0
H1579 H 0.01179 0.76027 0.22247 0.0
C1580 C 0.95977 0.67263 0.18676 0.0
C1581 C 0.97695 0.66455 0.17489 0.0
C1582 C 0.95808 0.69449 0.19053 0.0
C1583 C 0.97341 0.70838 0.18225 0.0
C1584 C 0.99133 0.70021 0.17182 0.0
C1585 C 0.99317 0.67842 0.16826 0.0
C1586 C 0.96966 0.73146 0.18172 0.0
C1587 C 0.97559 0.74385 0.19927 0.0
C1588 C 0.96311 0.74136 0.16264 0.0
C1589 C 0.95662 0.72873 0.14373 0.0
C1590 C 0.96796 0.73054 0.12454 0.0
C1591 C 0.96212 0.7183 0.10686 0.0
C1592 C 0.94492 0.70424 0.10817 0.0
C1593 C 0.93346 0.70247 0.12714 0.0
C1594 C 0.93921 0.71471 0.14484 0.0
C1595 C 0.00383 0.82553 0.16915 0.0
C1596 C 0.98866 0.83943 0.16044 0.0
C1597 C 0.99792 0.80522 0.17575 0.0
C1598 C 0.97672 0.79844 0.17378 0.0
C1599 C 0.9614 0.81245 0.16554 0.0
C1600 C 0.9673 0.83289 0.15904 0.0
C1601 C 0.97136 0.77596 0.17812 0.0
C1602 C 0.96402 0.76355 0.16107 0.0
C1603 C 0.97646 0.76613 0.19774 0.0
C1604 C 0.98324 0.77876 0.21656 0.0
C1605 C 0.97101 0.79616 0.22354 0.0
C1606 C 0.97754 0.80816 0.24112 0.0
C1607 C 0.99626 0.80288 0.25192 0.0
C1608 C 0.00847 0.78556 0.24518 0.0
C1609 C 0.00201 0.77351 0.22761 0.0
H1610 H 0.00129 0.8122 0.26552 0.0
H1611 H 0.94044 0.69475 0.09449 0.0
H1612 H 0.38217 0.97725 0.1656 0.0
H1613 H 0.3715 0.97189 0.20255 0.0
H1614 H 0.31292 0.00589 0.1907 0.0
H1615 H 0.32409 0.01217 0.15397 0.0
H1616 H 0.32836 0.0197 0.225 0.0
H1617 H 0.31421 0.95031 0.20006 0.0
H1618 H 0.32035 0.91646 0.18117 0.0
H1619 H 0.37346 0.90291 0.22204 0.0
H1620 H 0.36784 0.93682 0.24099 0.0
H1621 H 0.32349 0.95365 0.33289 0.0
H1622 H 0.31362 0.9583 0.29552 0.0
H1623 H 0.35749 0.01101 0.29073 0.0
H1624 H 0.36678 0.00691 0.32813 0.0
H1625 H 0.33799 0.9518 0.26398 0.0
H1626 H 0.34606 0.04405 0.25182 0.0
H1627 H 0.33556 0.07699 0.27037 0.0
H1628 H 0.28605 0.04318 0.30313 0.0
H1629 H 0.29603 0.01009 0.28455 0.0
C1630 C 0.36692 0.98336 0.17085 0.0
C1631 C 0.35398 0.99517 0.15703 0.0
C1632 C 0.36073 0.98016 0.19192 0.0
C1633 C 0.34123 0.98822 0.19937 0.0
C1634 C 0.32802 -0.00047 0.18534 0.0
C1635 C 0.3344 0.00308 0.16438 0.0
C1636 C 0.33553 0.98625 0.22219 0.0
C1637 C 0.33023 0.0048 0.23349 0.0
C1638 C 0.33718 0.96668 0.2332 0.0
C1639 C 0.34064 0.94619 0.2219 0.0
C1640 C 0.32728 0.94018 0.20494 0.0
C1641 C 0.33066 0.92097 0.19423 0.0
C1642 C 0.3473 0.90755 0.20039 0.0
C1643 C 0.36057 0.91331 0.2173 0.0
C1644 C 0.35727 0.93252 0.22806 0.0
C1645 C 0.33059 0.96657 0.32396 0.0
C1646 C 0.34599 0.97985 0.33332 0.0
C1647 C 0.32498 0.96918 0.30262 0.0
C1648 C 0.33475 0.98503 0.29029 0.0
C1649 C 0.34937 -0.00106 0.29997 0.0
C1650 C 0.35479 0.99651 0.32135 0.0
C1651 C 0.33186 0.98544 0.26688 0.0
C1652 C 0.33559 0.9666 0.25544 0.0
C1653 C 0.32807 0.0046 0.2557 0.0
C1654 C 0.32189 0.02453 0.26684 0.0
C1655 C 0.33285 0.04365 0.26287 0.0
C1656 C 0.327 0.06236 0.27343 0.0
C1657 C 0.31017 0.06217 0.28795 0.0
C1658 C 0.29913 0.04329 0.29192 0.0
C1659 C 0.30489 0.02454 0.28141 0.0
H1660 H 0.30568 0.07667 0.2961 0.0
H1661 H 0.34989 0.89269 0.19207 0.0
H1662 H 0.66061 0.48721 0.15103 0.0
H1663 H 0.66206 0.48567 0.18976 0.0
H1664 H 0.64574 0.55225 0.19334 0.0
H1665 H 0.6441 0.55395 0.15433 0.0
H1666 H 0.67871 0.53693 0.22357 0.0
H1667 H 0.6074 0.52151 0.19874 0.0
H1668 H 0.58119 0.5029 0.17615 0.0
H1669 H 0.60092 0.44286 0.2021 0.0
H1670 H 0.62752 0.4611 0.2246 0.0
H1671 H 0.63872 0.54036 0.32883 0.0
H1672 H 0.64581 0.54353 0.29084 0.0
H1673 H 0.64632 0.47505 0.28505 0.0
H1674 H 0.63845 0.4718 0.32306 0.0
H1675 H 0.62257 0.49142 0.2555 0.0
H1676 H 0.69269 0.50573 0.28135 0.0
H1677 H 0.72008 0.52323 0.3034 0.0
H1678 H 0.70432 0.58365 0.27568 0.0
H1679 H 0.67662 0.56656 0.25366 0.0
C1680 C 0.65762 0.50163 0.16001 0.0
C1681 C 0.65199 0.52066 0.14972 0.0
C1682 C 0.6585 0.5007 0.1821 0.0
C1683 C 0.65381 0.51878 0.19426 0.0
C1684 C 0.6494 0.53816 0.1841 0.0
C1685 C 0.64839 0.53908 0.16189 0.0
C1686 C 0.65166 0.5168 0.21749 0.0
C1687 C 0.66632 0.52723 0.23068 0.0
C1688 C 0.63581 0.50363 0.22648 0.0
C1689 C 0.6196 0.49266 0.2132 0.0
C1690 C 0.60627 0.50432 0.1995 0.0
C1691 C 0.59133 0.49384 0.18673 0.0
C1692 C 0.58943 0.4717 0.18764 0.0
C1693 C 0.60243 0.46001 0.20139 0.0
C1694 C 0.61743 0.47041 0.21416 0.0
C1695 C 0.64057 0.52597 0.31951 0.0
C1696 C 0.638 0.50583 0.32883 0.0
C1697 C 0.64476 0.52781 0.29782 0.0
C1698 C 0.64685 0.50953 0.28516 0.0
C1699 C 0.64478 0.48936 0.29456 0.0
C1700 C 0.64033 0.48752 0.31623 0.0
C1701 C 0.64972 0.5115 0.26188 0.0
C1702 C 0.63509 0.50109 0.24857 0.0
C1703 C 0.66573 0.52454 0.25283 0.0
C1704 C 0.68245 0.53488 0.26598 0.0
C1705 C 0.69495 0.52278 0.28007 0.0
C1706 C 0.71055 0.53262 0.29254 0.0
C1707 C 0.71391 0.55455 0.29098 0.0
C1708 C 0.7017 0.56667 0.27689 0.0
C1709 C 0.68606 0.55691 0.26439 0.0
H1710 H 0.72599 0.56214 0.30065 0.0
H1711 H 0.57786 0.46361 0.17773 0.0
H1712 H 0.34005 0.32001 0.96646 0.0
H1713 H 0.30152 0.31466 0.9659 0.0
H1714 H 0.29693 0.34125 0.02907 0.0
H1715 H 0.3356 0.34609 0.02995 0.0
H1716 H 0.26688 0.31026 0.02232 0.0
H1717 H 0.29334 0.37324 0.98636 0.0
H1718 H 0.31559 0.39215 0.96014 0.0
H1719 H 0.28591 0.35724 0.90936 0.0
H1720 H 0.26369 0.33789 0.93534 0.0
H1721 H 0.17163 0.36841 0.02597 0.0
H1722 H 0.20797 0.35485 0.02559 0.0
H1723 H 0.19898 0.33208 0.9614 0.0
H1724 H 0.16247 0.34594 0.96157 0.0
H1725 H 0.23488 0.35475 0.96542 0.0
H1726 H 0.20318 0.29681 0.00238 0.0
H1727 H 0.18078 0.27939 0.02944 0.0
H1728 H 0.21958 0.30592 0.07912 0.0
H1729 H 0.24205 0.32377 0.05237 0.0
C1730 C 0.33088 0.3242 0.98044 0.0
C1731 C 0.34067 0.33381 0.99811 0.0
C1732 C 0.3089 0.32113 0.9801 0.0
C1733 C 0.29639 0.32802 0.99724 0.0
C1734 C 0.30634 0.3359 0.01564 0.0
C1735 C 0.3284 0.33873 0.01611 0.0
C1736 C 0.27304 0.32981 0.99491 0.0
C1737 C 0.25981 0.31997 0.00992 0.0
C1738 C 0.2639 0.34215 0.97842 0.0
C1739 C 0.27705 0.35396 0.96278 0.0
C1740 C 0.29166 0.36951 0.96961 0.0
C1741 C 0.30426 0.38031 0.9548 0.0
C1742 C 0.30221 0.37585 0.9331 0.0
C1743 C 0.28751 0.36064 0.92617 0.0
C1744 C 0.27491 0.34975 0.94093 0.0
C1745 C 0.17732 0.36039 0.01181 0.0
C1746 C 0.16428 0.35829 0.99376 0.0
C1747 C 0.19803 0.35247 0.01169 0.0
C1748 C 0.20604 0.34215 0.9936 0.0
C1749 C 0.193 0.33986 0.97558 0.0
C1750 C 0.17222 0.34781 0.97568 0.0
C1751 C 0.2286 0.33548 0.99306 0.0
C1752 C 0.24178 0.34454 0.97753 0.0
C1753 C 0.23763 0.32258 0.00917 0.0
C1754 C 0.22425 0.31173 0.02534 0.0
C1755 C 0.20686 0.29905 0.01907 0.0
C1756 C 0.19416 0.28908 0.03436 0.0
C1757 C 0.19873 0.29157 0.05598 0.0
C1758 C 0.21606 0.304 0.06236 0.0
C1759 C 0.22881 0.31402 0.04714 0.0
H1760 H 0.18887 0.28384 0.06779 0.0
H1761 H 0.31197 0.38423 0.92166 0.0
H1762 H 0.15818 0.63934 0.56501 0.0
H1763 H 0.19501 0.65143 0.55893 0.0
H1764 H 0.18849 0.63712 0.4921 0.0
H1765 H 0.15211 0.62527 0.4979 0.0
H1766 H 0.22402 0.61826 0.51227 0.0
H1767 H 0.1878 0.68629 0.50618 0.0
H1768 H 0.16546 0.71573 0.51938 0.0
H1769 H 0.20936 0.72652 0.57069 0.0
H1770 H 0.23182 0.69691 0.55796 0.0
H1771 H 0.31079 0.65404 0.45828 0.0
H1772 H 0.27352 0.65621 0.46913 0.0
H1773 H 0.29281 0.67382 0.53263 0.0
H1774 H 0.33018 0.67195 0.52186 0.0
H1775 H 0.25221 0.69181 0.51913 0.0
H1776 H 0.28873 0.62496 0.52563 0.0
H1777 H 0.31186 0.59594 0.51284 0.0
H1778 H 0.26752 0.58235 0.46256 0.0
H1779 H 0.24433 0.61159 0.47482 0.0
C1780 C 0.16465 0.63892 0.54905 0.0
C1781 C 0.15239 0.63125 0.53196 0.0
C1782 C 0.18555 0.6459 0.5456 0.0
C1783 C 0.19432 0.64513 0.52507 0.0
C1784 C 0.18195 0.63779 0.50804 0.0
C1785 C 0.16118 0.63102 0.51141 0.0
C1786 C 0.21679 0.65059 0.52111 0.0
C1787 C 0.23015 0.63435 0.51369 0.0
C1788 C 0.22485 0.67147 0.52362 0.0
C1789 C 0.21133 0.6892 0.53128 0.0
C1790 C 0.19257 0.69478 0.52041 0.0
C1791 C 0.17991 0.71154 0.52777 0.0
C1792 C 0.18594 0.72294 0.54591 0.0
C1793 C 0.20468 0.71764 0.55668 0.0
C1794 C 0.21738 0.70088 0.54939 0.0
C1795 C 0.30709 0.65908 0.47435 0.0
C1796 C 0.32331 0.66235 0.48937 0.0
C1797 C 0.28582 0.66036 0.48051 0.0
C1798 C 0.28056 0.66476 0.50176 0.0
C1799 C 0.29663 0.67035 0.51618 0.0
C1800 C 0.31795 0.66914 0.51001 0.0
C1801 C 0.25906 0.65959 0.50959 0.0
C1802 C 0.24606 0.67572 0.51791 0.0
C1803 C 0.25125 0.63852 0.50816 0.0
C1804 C 0.2649 0.62058 0.50103 0.0
C1805 C 0.28399 0.61587 0.51176 0.0
C1806 C 0.29711 0.59938 0.50461 0.0
C1807 C 0.29118 0.58733 0.48687 0.0
C1808 C 0.2721 0.59171 0.47628 0.0
C1809 C 0.25896 0.60824 0.48333 0.0
H1810 H 0.30136 0.57458 0.48135 0.0
H1811 H 0.17613 0.73592 0.55158 0.0
H1812 H 0.67312 0.82873 0.46311 0.0
H1813 H 0.70978 0.82165 0.4742 0.0
H1814 H 0.6907 0.82488 0.54007 0.0
H1815 H 0.6541 0.83219 0.52911 0.0
H1816 H 0.72356 0.85063 0.53202 0.0
H1817 H 0.70682 0.77791 0.51907 0.0
H1818 H 0.6928 0.74716 0.49909 0.0
H1819 H 0.7383 0.75826 0.44937 0.0
H1820 H 0.75241 0.78927 0.4689 0.0
H1821 H 0.83312 0.83712 0.55784 0.0
H1822 H 0.79483 0.82929 0.55733 0.0
H1823 H 0.79693 0.8233 0.48893 0.0
H1824 H 0.83498 0.83049 0.48939 0.0
H1825 H 0.77145 0.79391 0.50515 0.0
H1826 H 0.78222 0.8702 0.51391 0.0
H1827 H 0.79577 0.90215 0.53234 0.0
H1828 H 0.76088 0.88498 0.5885 0.0
H1829 H 0.74732 0.85278 0.57045 0.0
C1830 C 0.6767 0.82759 0.47994 0.0
C1831 C 0.66084 0.83117 0.49525 0.0
C1832 C 0.6976 0.82341 0.48626 0.0
C1833 C 0.70289 0.82261 0.50797 0.0
C1834 C 0.6869 0.82541 0.52325 0.0
C1835 C 0.66603 0.82959 0.51695 0.0
C1836 C 0.72543 0.82112 0.51459 0.0
C1837 C 0.73394 0.83793 0.5266 0.0
C1838 C 0.73897 0.80474 0.50721 0.0
C1839 C 0.7306 0.78601 0.49543 0.0
C1840 C 0.71375 0.77389 0.50381 0.0
C1841 C 0.7058 0.75639 0.49257 0.0
C1842 C 0.71463 0.75077 0.47296 0.0
C1843 C 0.73147 0.76262 0.46457 0.0
C1844 C 0.73948 0.78015 0.47573 0.0
C1845 C 0.82538 0.83393 0.54276 0.0
C1846 C 0.83693 0.83461 0.52364 0.0
C1847 C 0.80356 0.82947 0.54248 0.0
C1848 C 0.79302 0.82593 0.52306 0.0
C1849 C 0.80474 0.8259 0.50409 0.0
C1850 C 0.82648 0.83017 0.50437 0.0
C1851 C 0.76959 0.82375 0.52197 0.0
C1852 C 0.76093 0.80628 0.51102 0.0
C1853 C 0.75588 0.83962 0.53013 0.0
C1854 C 0.76399 0.85897 0.54095 0.0
C1855 C 0.77757 0.87317 0.53024 0.0
C1856 C 0.78523 0.89133 0.54061 0.0
C1857 C 0.77925 0.89555 0.5616 0.0
C1858 C 0.76554 0.88166 0.57226 0.0
C1859 C 0.75786 0.86346 0.56197 0.0
H1860 H 0.78519 0.90962 0.56959 0.0
H1861 H 0.70845 0.73722 0.46429 0.0
H1862 H 0.55018 0.81889 0.84131 0.0
H1863 H 0.53543 0.78413 0.83133 0.0
H1864 H 0.47418 0.81308 0.82013 0.0
H1865 H 0.48878 0.8478 0.82983 0.0
H1866 H 0.47348 0.77903 0.84875 0.0
H1867 H 0.49911 0.79456 0.77897 0.0
H1868 H 0.52551 0.80565 0.75217 0.0
H1869 H 0.56547 0.75285 0.76907 0.0
H1870 H 0.53946 0.74161 0.79621 0.0
H1871 H 0.43403 0.67507 0.83191 0.0
H1872 H 0.44074 0.71255 0.82315 0.0
H1873 H 0.50841 0.70038 0.82319 0.0
H1874 H 0.50181 0.66314 0.83099 0.0
H1875 H 0.50015 0.7285 0.79425 0.0
H1876 H 0.48071 0.7183 0.86839 0.0
H1877 H 0.45701 0.70715 0.89762 0.0
H1878 H 0.40856 0.74979 0.87509 0.0
H1879 H 0.43193 0.761 0.84557 0.0
C1880 C 0.53368 0.81786 0.83639 0.0
C1881 C 0.52059 0.83597 0.83648 0.0
C1882 C 0.52531 0.79807 0.83059 0.0
C1883 C 0.50376 0.79615 0.82492 0.0
C1884 C 0.49086 0.81431 0.82439 0.0
C1885 C 0.49924 0.8341 0.82995 0.0
C1886 C 0.49422 0.7749 0.82179 0.0
C1887 C 0.47891 0.76811 0.83651 0.0
C1888 C 0.50169 0.76065 0.80609 0.0
C1889 C 0.51737 0.76732 0.78973 0.0
C1890 C 0.5136 0.7854 0.7771 0.0
C1891 C 0.52849 0.7917 0.76182 0.0
C1892 C 0.54717 0.77998 0.75894 0.0
C1893 C 0.55099 0.76192 0.77132 0.0
C1894 C 0.53616 0.75556 0.78663 0.0
C1895 C 0.45028 0.68039 0.82962 0.0
C1896 C 0.46741 0.66631 0.83242 0.0
C1897 C 0.45411 0.70177 0.82468 0.0
C1898 C 0.47511 0.70935 0.82291 0.0
C1899 C 0.49208 0.69495 0.82446 0.0
C1900 C 0.48827 0.67365 0.82909 0.0
C1901 C 0.47986 0.73241 0.82163 0.0
C1902 C 0.4943 0.73958 0.80614 0.0
C1903 C 0.47195 0.74696 0.83692 0.0
C1904 C 0.45793 0.74026 0.85465 0.0
C1905 C 0.46495 0.72518 0.8696 0.0
C1906 C 0.45159 0.71886 0.88622 0.0
C1907 C 0.43126 0.7277 0.88817 0.0
C1908 C 0.42429 0.74292 0.87353 0.0
C1909 C 0.43757 0.74925 0.85685 0.0
H1910 H 0.42094 0.7228 0.90105 0.0
H1911 H 0.55867 0.78488 0.7471 0.0
H1912 H 0.46777 0.33195 0.64428 0.0
H1913 H 0.47277 0.29342 0.64848 0.0
H1914 H 0.54085 0.3024 0.65027 0.0
H1915 H 0.53605 0.34067 0.64617 0.0
H1916 H 0.52761 0.27328 0.62004 0.0
H1917 H 0.5164 0.28849 0.69413 0.0
H1918 H 0.49709 0.30301 0.72504 0.0
H1919 H 0.44371 0.26259 0.71109 0.0
H1920 H 0.46259 0.24804 0.67989 0.0
H1921 H 0.55802 0.16724 0.63821 0.0
H1922 H 0.55371 0.20557 0.64372 0.0
H1923 H 0.48566 0.19731 0.6486 0.0
H1924 H 0.4899 0.15899 0.64367 0.0
H1925 H 0.49915 0.22624 0.67667 0.0
H1926 H 0.50834 0.21267 0.60201 0.0
H1927 H 0.52625 0.19832 0.57018 0.0
H1928 H 0.58159 0.2361 0.58393 0.0
H1929 H 0.5641 0.25045 0.61603 0.0
C1930 C 0.48376 0.32569 0.64588 0.0
C1931 C 0.50152 0.33923 0.64475 0.0
C1932 C 0.48659 0.30375 0.64835 0.0
C1933 C 0.50718 0.29518 0.64967 0.0
C1934 C 0.52485 0.30877 0.64924 0.0
C1935 C 0.52206 0.33061 0.6469 0.0
C1936 C 0.51053 0.27194 0.64972 0.0
C1937 C 0.52169 0.26301 0.63259 0.0
C1938 C 0.50221 0.25862 0.66578 0.0
C1939 C 0.49083 0.26734 0.68454 0.0
C1940 C 0.50046 0.28284 0.69753 0.0
C1941 C 0.48961 0.29105 0.71513 0.0
C1942 C 0.46916 0.28377 0.71999 0.0
C1943 C 0.45954 0.26823 0.70729 0.0
C1944 C 0.47032 0.25999 0.68965 0.0
C1945 C 0.54218 0.1736 0.64066 0.0
C1946 C 0.52427 0.16023 0.64029 0.0
C1947 C 0.53973 0.19546 0.64377 0.0
C1948 C 0.51933 0.20428 0.64623 0.0
C1949 C 0.50153 0.19082 0.64671 0.0
C1950 C 0.50398 0.16896 0.64378 0.0
C1951 C 0.51638 0.2276 0.64705 0.0
C1952 C 0.5052 0.23654 0.66421 0.0
C1953 C 0.52447 0.241 0.63088 0.0
C1954 C 0.535 0.23245 0.61154 0.0
C1955 C 0.52439 0.21779 0.59834 0.0
C1956 C 0.53446 0.20968 0.58023 0.0
C1957 C 0.55507 0.21625 0.57507 0.0
C1958 C 0.56564 0.23099 0.58797 0.0
C1959 C 0.55566 0.23913 0.60611 0.0
H1960 H 0.56284 0.20995 0.56104 0.0
H1961 H 0.46079 0.29014 0.73363 0.0
H1962 H 0.86011 0.55993 0.82259 0.0
H1963 H 0.84821 0.55108 0.78639 0.0
H1964 H 0.83685 0.48624 0.80581 0.0
H1965 H 0.84844 0.49491 0.84183 0.0
H1966 H 0.86304 0.4906 0.76976 0.0
H1967 H 0.79577 0.51562 0.79659 0.0
H1968 H 0.77162 0.54145 0.8136 0.0
H1969 H 0.78458 0.58673 0.76414 0.0
H1970 H 0.80907 0.56127 0.74699 0.0
H1971 H 0.82163 0.45305 0.67294 0.0
H1972 H 0.8221 0.46176 0.71097 0.0
H1973 H 0.82738 0.52852 0.69581 0.0
H1974 H 0.82664 0.52 0.65795 0.0
H1975 H 0.8024 0.52247 0.7304 0.0
H1976 H 0.87132 0.50094 0.70547 0.0
H1977 H 0.89722 0.47725 0.68793 0.0
H1978 H 0.88349 0.42807 0.73332 0.0
H1979 H 0.85726 0.45141 0.75095 0.0
C1980 C 0.85485 0.54387 0.81914 0.0
C1981 C 0.85528 0.52809 0.83494 0.0
C1982 C 0.848 0.53887 0.79855 0.0
C1983 C 0.84164 0.51803 0.79356 0.0
C1984 C 0.84169 0.5024 0.80942 0.0
C1985 C 0.84831 0.50741 0.82997 0.0
C1986 C 0.83634 0.51203 0.7715 0.0
C1987 C 0.84956 0.49727 0.76125 0.0
C1988 C 0.81914 0.52128 0.76033 0.0
C1989 C 0.80442 0.53661 0.77062 0.0
C1990 C 0.79363 0.53116 0.78944 0.0
C1991 C 0.77984 0.54572 0.79909 0.0
C1992 C 0.77661 0.56574 0.78999 0.0
C1993 C 0.78712 0.57123 0.77119 0.0
C1994 C 0.80094 0.55673 0.76149 0.0
C1995 C 0.82246 0.46959 0.67775 0.0
C1996 C 0.82437 0.48583 0.66256 0.0
C1997 C 0.82277 0.47453 0.69943 0.0
C1998 C 0.82509 0.49576 0.70612 0.0
C1999 C 0.82561 0.51206 0.69095 0.0
C2000 C 0.82531 0.50714 0.66934 0.0
C2001 C 0.82902 0.5009 0.72873 0.0
C2002 C 0.8157 0.51559 0.73901 0.0
C2003 C 0.84637 0.49188 0.73989 0.0
C2004 C 0.86214 0.47782 0.72936 0.0
C2005 C 0.87369 0.48501 0.71159 0.0
C2006 C 0.88846 0.47166 0.70166 0.0
C2007 C 0.89195 0.45114 0.70947 0.0
C2008 C 0.88073 0.44395 0.72726 0.0
C2009 C 0.86591 0.45723 0.73724 0.0
H2010 H 0.9034 0.44083 0.70176 0.0
H2011 H 0.76592 0.57699 0.79748 0.0
H2012 H 0.1805 0.96017 0.6629 0.0
H2013 H 0.18546 0.95915 0.70143 0.0
H2014 H 0.17735 0.02726 0.7045 0.0
H2015 H 0.17266 0.02847 0.66583 0.0
H2016 H 0.20654 0.01143 0.73495 0.0
H2017 H 0.13507 0.99784 0.7092 0.0
H2018 H 0.10851 0.97924 0.687 0.0
H2019 H 0.12519 0.91979 0.71625 0.0
H2020 H 0.15211 0.93801 0.73839 0.0
H2021 H 0.15643 0.02861 0.83444 0.0
H2022 H 0.16781 0.02662 0.79734 0.0
H2023 H 0.16847 0.95803 0.80102 0.0
H2024 H 0.15672 0.9599 0.83808 0.0
H2025 H 0.14674 0.97132 0.76746 0.0
H2026 H 0.21495 0.98627 0.79722 0.0
H2027 H 0.24128 0.00532 0.81927 0.0
H2028 H 0.23074 0.06238 0.78323 0.0
H2029 H 0.20411 0.04376 0.76114 0.0
C2030 C 0.1803 0.975 0.67171 0.0
C2031 C 0.17579 0.99436 0.6615 0.0
C2032 C 0.18319 0.97438 0.69369 0.0
C2033 C 0.18138 0.99308 0.70575 0.0
C2034 C 0.17875 0.01267 0.6954 0.0
C2035 C 0.17597 0.01332 0.67336 0.0
C2036 C 0.17905 0.99182 0.72907 0.0
C2037 C 0.19347 0.00275 0.74215 0.0
C2038 C 0.16216 0.98016 0.73832 0.0
C2039 C 0.14576 0.96924 0.72526 0.0
C2040 C 0.13317 0.98078 0.71078 0.0
C2041 C 0.11805 0.97031 0.69822 0.0
C2042 C 0.1152 0.94834 0.70017 0.0
C2043 C 0.12744 0.9368 0.71473 0.0
C2044 C 0.14263 0.94719 0.72729 0.0
C2045 C 0.15916 0.01311 0.82738 0.0
C2046 C 0.15557 0.9944 0.83905 0.0
C2047 C 0.16585 0.01201 0.80626 0.0
C2048 C 0.16923 0.99218 0.79653 0.0
C2049 C 0.16603 0.97348 0.80829 0.0
C2050 C 0.15928 0.97457 0.82941 0.0
C2051 C 0.17421 0.99099 0.77357 0.0
C2052 C 0.16012 0.97969 0.76045 0.0
C2053 C 0.19136 0.00237 0.76439 0.0
C2054 C 0.2074 0.01364 0.77762 0.0
C2055 C 0.21812 0.00292 0.79409 0.0
C2056 C 0.23312 0.01364 0.80658 0.0
C2057 C 0.23765 0.03506 0.80268 0.0
C2058 C 0.22721 0.04579 0.78624 0.0
C2059 C 0.21218 0.03516 0.77371 0.0
H2060 H 0.24928 0.04332 0.81236 0.0
H2061 H 0.10349 0.94026 0.69044 0.0
H2062 H 0.83178 0.17972 0.04588 0.0
H2063 H 0.79366 0.1846 0.03972 0.0
H2064 H 0.80308 0.1745 0.97247 0.0
H2065 H 0.8413 0.16974 0.97848 0.0
H2066 H 0.77278 0.20608 0.98133 0.0
H2067 H 0.78942 0.13379 0.00158 0.0
H2068 H 0.80499 0.10615 0.02468 0.0
H2069 H 0.76574 0.127 0.07658 0.0
H2070 H 0.75017 0.15499 0.05385 0.0
H2071 H 0.67476 0.16237 0.94629 0.0
H2072 H 0.71145 0.17171 0.95518 0.0
H2073 H 0.69443 0.17596 0.02157 0.0
H2074 H 0.65771 0.16627 0.01281 0.0
H2075 H 0.72799 0.15092 0.0158 0.0
H2076 H 0.70778 0.22053 0.99351 0.0
H2077 H 0.69216 0.24758 0.96977 0.0
H2078 H 0.7375 0.2316 0.92122 0.0
H2079 H 0.7532 0.20424 0.94455 0.0
C2080 C 0.82579 0.17886 0.02976 0.0
C2081 C 0.83941 0.17407 0.01269 0.0
C2082 C 0.80405 0.18168 0.02626 0.0
C2083 C 0.79562 0.17965 0.00568 0.0
C2084 C 0.80935 0.17612 0.98845 0.0
C2085 C 0.83111 0.17329 0.99194 0.0
C2086 C 0.77236 0.17908 0.00239 0.0
C2087 C 0.76293 0.19401 0.98875 0.0
C2088 C 0.75959 0.16354 0.01246 0.0
C2089 C 0.76883 0.14663 0.0261 0.0
C2090 C 0.78424 0.13259 0.01797 0.0
C2091 C 0.79305 0.11684 0.03099 0.0
C2092 C 0.78641 0.11486 0.05211 0.0
C2093 C 0.7709 0.12858 0.06023 0.0
C2094 C 0.76208 0.14438 0.04729 0.0
C2095 C 0.67877 0.16558 0.96272 0.0
C2096 C 0.66347 0.16346 0.97887 0.0
C2097 C 0.6997 0.17106 0.96779 0.0
C2098 C 0.70559 0.17469 0.98902 0.0
C2099 C 0.69016 0.17326 0.00509 0.0
C2100 C 0.66924 0.16772 4e-05 0.0
C2101 C 0.72823 0.17789 0.99463 0.0
C2102 C 0.73766 0.16331 0.00864 0.0
C2103 C 0.74092 0.19371 0.98483 0.0
C2104 C 0.73157 0.21021 0.97074 0.0
C2105 C 0.71432 0.22266 0.97771 0.0
C2106 C 0.70547 0.23808 0.96433 0.0
C2107 C 0.71381 0.24128 0.94398 0.0
C2108 C 0.73105 0.2291 0.93698 0.0
C2109 C 0.73995 0.21365 0.95029 0.0
H2110 H 0.70693 0.25322 0.93365 0.0
H2111 H 0.79324 0.10266 0.06216 0.0
H2112 H 0.0069 0.92058 0.21118 0.0
H2113 H 0.01538 0.94694 0.23839 0.0
H2114 H 0.06979 0.9675 0.20191 0.0
H2115 H 0.06118 0.94126 0.17435 0.0
H2116 H 0.04742 0.95766 0.26429 0.0
H2117 H 0.07041 0.02148 0.20312 0.0
H2118 H 0.06487 0.0299 0.16513 0.0
H2119 H 0.00512 0.99665 0.16605 0.0
H2120 H 0.01031 0.98808 0.20399 0.0
H2121 H 0.06097 0.05067 0.32633 0.0
H2122 H 0.07005 0.02487 0.29855 0.0
H2123 H 0.01138 0.03936 0.26585 0.0
H2124 H 0.00237 0.0653 0.2933 0.0
H2125 H 0.04268 0.03197 0.23792 0.0
H2126 H 0.01347 -0.00098 0.30089 0.0
H2127 H 0.01222 0.99068 0.33922 0.0
H2128 H 0.07407 0.96181 0.33529 0.0
H2129 H 0.07579 0.97028 0.29697 0.0
C2130 C 0.02094 0.93039 0.20915 0.0
C2131 C 0.03322 0.92909 0.19053 0.0
C2132 C 0.02582 0.9454 0.22476 0.0
C2133 C 0.04302 0.95937 0.222 0.0
C2134 C 0.05629 0.95702 0.20418 0.0
C2135 C 0.05139 0.94199 0.18851 0.0
C2136 C 0.04541 0.97771 0.23658 0.0
C2137 C 0.04679 0.97392 0.25853 0.0
C2138 C 0.04412 -0.00109 0.22907 0.0
C2139 C 0.0409 0.00393 0.20626 0.0
C2140 C 0.05612 0.01596 0.19517 0.0
C2141 C 0.05304 0.02073 0.17365 0.0
C2142 C 0.03472 0.0137 0.16314 0.0
C2143 C 0.01939 0.00193 0.17414 0.0
C2144 C 0.02241 0.99708 0.19563 0.0
C2145 C 0.05025 0.04868 0.31296 0.0
C2146 C 0.03084 0.05978 0.31207 0.0
C2147 C 0.05544 0.03392 0.29716 0.0
C2148 C 0.04124 0.03001 0.28035 0.0
C2149 C 0.02256 0.04214 0.2787 0.0
C2150 C 0.01739 0.05689 0.29445 0.0
C2151 C 0.04451 0.01192 0.26564 0.0
C2152 C 0.04412 0.01575 0.24368 0.0
C2153 C 0.04593 0.99073 0.27318 0.0
C2154 C 0.04488 0.98552 0.29616 0.0
C2155 C 0.02687 0.99104 0.30825 0.0
C2156 C 0.02606 0.98627 0.32996 0.0
C2157 C 0.04309 0.97578 0.3397 0.0
C2158 C 0.06092 0.96998 0.32773 0.0
C2159 C 0.06182 0.97477 0.30602 0.0
H2160 H 0.04244 0.97209 0.3565 0.0
H2161 H 0.03235 0.01743 0.14649 0.0
H2162 H 0.91953 0.43757 0.3238 0.0
H2163 H 0.91677 0.46473 0.29584 0.0
H2164 H 0.983 0.45539 0.28029 0.0
H2165 H 0.98587 0.42838 0.30797 0.0
H2166 H 0.97231 0.49764 0.28741 0.0
H2167 H 0.94583 0.43677 0.24794 0.0
H2168 H 0.92144 0.40668 0.24148 0.0
H2169 H 0.86824 0.44957 0.24024 0.0
H2170 H 0.89231 0.47991 0.24698 0.0
H2171 H 0.99297 0.54896 0.19232 0.0
H2172 H 0.9872 0.522 0.2195 0.0
H2173 H 0.92008 0.53671 0.22022 0.0
H2174 H 0.92572 0.56346 0.19224 0.0
H2175 H 0.92644 0.49449 0.22314 0.0
H2176 H 0.9528 0.55576 0.25932 0.0
H2177 H 0.97683 0.58612 0.2659 0.0
H2178 H 0.02934 0.54324 0.27447 0.0
H2179 H 0.0057 0.51262 0.26765 0.0
C2180 C 0.93341 0.44118 0.31423 0.0
C2181 C 0.95294 0.43094 0.31809 0.0
C2182 C 0.9318 0.45664 0.29829 0.0
C2183 C 0.9497 0.46204 0.28608 0.0
C2184 C 0.96903 0.45147 0.28962 0.0
C2185 C 0.97062 0.43601 0.3054 0.0
C2186 C 0.94885 0.47942 0.27027 0.0
C2187 C 0.96239 0.49691 0.27328 0.0
C2188 C 0.93528 0.47878 0.25232 0.0
C2189 C 0.92083 0.46056 0.24822 0.0
C2190 C 0.92891 0.43976 0.24649 0.0
C2191 C 0.91515 0.42267 0.24273 0.0
C2192 C 0.89329 0.4262 0.24053 0.0
C2193 C 0.88516 0.44685 0.242 0.0
C2194 C 0.89886 0.464 0.24577 0.0
C2195 C 0.97696 0.54644 0.19821 0.0
C2196 C 0.95981 0.55844 0.19038 0.0
C2197 C 0.97369 0.53108 0.2138 0.0
C2198 C 0.9533 0.52771 0.22226 0.0
C2199 C 0.93597 0.53919 0.21401 0.0
C2200 C 0.93921 0.55446 0.1981 0.0
C2201 C 0.95045 0.5124 0.23994 0.0
C2202 C 0.93616 0.49539 0.23739 0.0
C2203 C 0.96322 0.51352 0.25848 0.0
C2204 C 0.97748 0.5319 0.26285 0.0
C2205 C 0.96949 0.55281 0.2625 0.0
C2206 C 0.98305 0.57006 0.26628 0.0
C2207 C 0.0046 0.56661 0.27057 0.0
C2208 C 0.01264 0.54589 0.27114 0.0
C2209 C -0.00084 0.52857 0.26735 0.0
H2210 H 0.01507 0.57999 0.27349 0.0
H2211 H 0.88266 0.41295 0.23761 0.0
H2212 H 0.16342 0.01718 0.97019 0.0
H2213 H 0.19309 0.02232 0.99485 0.0
H2214 H 0.23717 0.02152 0.94223 0.0
H2215 H 0.20756 0.01614 0.91746 0.0
H2216 H 0.24882 0.99436 0.97291 0.0
H2217 H 0.22775 0.0673 0.96892 0.0
H2218 H 0.20282 0.09758 0.97024 0.0
H2219 H 0.18899 0.08383 0.03569 0.0
H2220 H 0.21362 0.05327 0.03469 0.0
H2221 H 0.32714 0.0494 0.05043 0.0
H2222 H 0.29735 0.05199 0.0255 0.0
H2223 H 0.2766 0.98905 0.04353 0.0
H2224 H 0.30676 0.9861 0.068 0.0
H2225 H 0.25505 0.05054 0.02814 0.0
H2226 H 0.25816 0.96317 7e-05 0.0
H2227 H 0.28384 0.93355 0.99823 0.0
H2228 H 0.33554 0.97813 0.99436 0.0
H2229 H 0.31013 0.00801 0.99572 0.0
C2230 C 0.17941 0.01839 0.96385 0.0
C2231 C 0.18323 0.01616 0.94193 0.0
C2232 C 0.19632 0.02143 0.97794 0.0
C2233 C 0.21729 0.02239 0.97033 0.0
C2234 C 0.22108 0.02081 0.94839 0.0
C2235 C 0.20417 0.01779 0.93427 0.0
C2236 C 0.23534 0.02331 0.98542 0.0
C2237 C 0.25025 0.00672 0.98491 0.0
C2238 C 0.2372 0.03948 0.00098 0.0
C2239 C 0.22241 0.05788 0.00167 0.0
C2240 C 0.21927 0.07063 0.98355 0.0
C2241 C 0.20522 0.08786 0.98425 0.0
C2242 C 0.1943 0.0926 0.00302 0.0
C2243 C 0.19745 0.08013 0.02116 0.0
C2244 C 0.21147 0.06287 0.02053 0.0
C2245 C 0.31612 0.03619 0.04919 0.0
C2246 C 0.31936 0.01745 0.06093 0.0
C2247 C 0.29909 0.03772 0.035 0.0
C2248 C 0.285 0.02058 0.03241 0.0
C2249 C 0.28757 0.00229 0.04498 0.0
C2250 C 0.30474 0.00065 0.05899 0.0
C2251 C 0.26832 0.02142 0.0158 0.0
C2252 C 0.25366 0.03828 0.01605 0.0
C2253 C 0.2668 0.00562 -0.0002 0.0
C2254 C 0.28224 0.98782 0.9982 0.0
C2255 C 0.27499 0.96665 -0.00134 0.0
C2256 C 0.2895 0.94981 0.99771 0.0
C2257 C 0.3113 0.95395 0.99625 0.0
C2258 C 0.31865 0.97494 0.99554 0.0
C2259 C 0.3042 0.99184 0.99639 0.0
H2260 H 0.32246 0.94088 0.99564 0.0
H2261 H 0.18342 0.10595 0.00353 0.0
H2262 H 0.70653 0.54582 0.06061 0.0
H2263 H 0.73902 0.54345 0.03948 0.0
H2264 H 0.73102 0.47539 0.03451 0.0
H2265 H 0.69809 0.47775 0.05518 0.0
H2266 H 0.77672 0.52454 0.04096 0.0
H2267 H 0.74389 0.46048 0.98419 0.0
H2268 H 0.70935 0.44591 0.97229 0.0
H2269 H 0.67928 0.50597 0.98501 0.0
H2270 H 0.71368 0.52094 0.99671 0.0
H2271 H 0.8559 0.5044 0.96118 0.0
H2272 H 0.8292 0.49786 0.98886 0.0
H2273 H 0.78255 0.53231 0.95208 0.0
H2274 H 0.80905 0.53898 0.92452 0.0
H2275 H 0.76628 0.49571 0.96811 0.0
H2276 H 0.8035 0.55825 0.99467 0.0
H2277 H 0.83532 0.57884 0.00499 0.0
H2278 H 0.85345 0.52963 0.04877 0.0
H2279 H 0.82135 0.50899 0.03905 0.0
C2280 C 0.71185 0.53031 0.05527 0.0
C2281 C 0.69965 0.51201 0.05924 0.0
C2282 C 0.73048 0.52896 0.0433 0.0
C2283 C 0.73726 0.50929 0.03518 0.0
C2284 C 0.72587 0.49077 0.04036 0.0
C2285 C 0.70709 0.49214 0.05216 0.0
C2286 C 0.75495 0.50865 0.01964 0.0
C2287 C 0.77453 0.51794 0.02514 0.0
C2288 C 0.75198 0.50044 -0.00115 0.0
C2289 C 0.73128 0.49171 0.99157 0.0
C2290 C 0.7299 0.47057 0.98439 0.0
C2291 C 0.71036 0.46225 0.97768 0.0
C2292 C 0.69212 0.47498 0.97798 0.0
C2293 C 0.6934 0.4961 0.98487 0.0
C2294 C 0.71291 0.5045 0.99155 0.0
C2295 C 0.83993 0.51052 0.95901 0.0
C2296 C 0.83456 0.52232 0.94079 0.0
C2297 C 0.82474 0.5068 0.97482 0.0
C2298 C 0.80398 0.51472 0.97252 0.0
C2299 C 0.79849 0.52603 0.9541 0.0
C2300 C 0.81365 0.52985 0.9384 0.0
C2301 C 0.78791 0.51171 0.9894 0.0
C2302 C 0.76864 0.50173 0.98413 0.0
C2303 C 0.79092 0.51985 0.01015 0.0
C2304 C 0.81021 0.53204 0.01601 0.0
C2305 C 0.81434 0.55182 0.00644 0.0
C2306 C 0.83237 0.56351 0.01222 0.0
C2307 C 0.84654 0.55546 0.02737 0.0
C2308 C 0.84251 0.53581 0.03698 0.0
C2309 C 0.82433 0.52418 0.03146 0.0
H2310 H 0.86058 0.56449 0.03171 0.0
H2311 H 0.677 0.4685 0.97281 0.0
H2312 H 0.32288 0.9213 0.43269 0.0
H2313 H 0.29692 0.91871 0.46191 0.0
H2314 H 0.29892 0.9869 0.4697 0.0
H2315 H 0.32439 0.98965 0.44066 0.0
H2316 H 0.30425 0.96339 0.50801 0.0
H2317 H 0.25849 0.96631 0.44513 0.0
H2318 H 0.24532 0.95286 0.41066 0.0
H2319 H 0.22892 0.89323 0.43971 0.0
H2320 H 0.24227 0.90626 0.47432 0.0
H2321 H 0.21736 0.00424 0.56287 0.0
H2322 H 0.24533 0.994 0.53809 0.0
H2323 H 0.22033 0.93001 0.5359 0.0
H2324 H 0.19169 0.94046 0.56024 0.0
H2325 H 0.22871 0.94277 0.49746 0.0
H2326 H 0.26828 0.94178 0.56166 0.0
H2327 H 0.28139 0.95463 0.59637 0.0
H2328 H 0.31026 0.0086 0.56601 0.0
H2329 H 0.29707 0.99626 0.53116 0.0
C2330 C 0.31762 0.9357 0.44058 0.0
C2331 C 0.32559 0.95567 0.4344 0.0
C2332 C 0.30287 0.93419 0.45722 0.0
C2333 C 0.29615 0.95262 0.46794 0.0
C2334 C 0.30403 0.9725 0.46168 0.0
C2335 C 0.31849 0.97404 0.44499 0.0
C2336 C 0.28095 0.9516 0.48581 0.0
C2337 C 0.28771 0.95889 0.5058 0.0
C2338 C 0.25965 0.94492 0.483 0.0
C2339 C 0.25163 0.93714 0.46222 0.0
C2340 C 0.25227 0.95026 0.44411 0.0
C2341 C 0.24473 0.94273 0.42456 0.0
C2342 C 0.23636 0.92218 0.42297 0.0
C2343 C 0.23546 0.90913 0.44095 0.0
C2344 C 0.243 0.91658 0.46053 0.0
C2345 C 0.21794 0.98792 0.5573 0.0
C2346 C 0.2024 0.97313 0.5635 0.0
C2347 C 0.23402 0.98203 0.54323 0.0
C2348 C 0.23519 0.96111 0.53542 0.0
C2349 C 0.21981 0.9462 0.5418 0.0
C2350 C 0.20351 0.95218 0.55572 0.0
C2351 C 0.25176 0.95539 0.51962 0.0
C2352 C 0.24532 0.94679 0.5 0.0
C2353 C 0.27345 0.96067 0.52284 0.0
C2354 C 0.28158 0.96812 0.54378 0.0
C2355 C 0.27732 0.95646 0.56239 0.0
C2356 C 0.28477 0.96365 0.5821 0.0
C2357 C 0.29662 0.98243 0.5834 0.0
C2358 C 0.30108 0.99404 0.56498 0.0
C2359 C 0.29365 0.98694 0.54524 0.0
H2360 H 0.30238 0.98797 0.59867 0.0
H2361 H 0.23053 0.91638 0.40783 0.0
H2362 H 0.8114 0.49711 0.53 0.0
H2363 H 0.7836 0.50867 0.50544 0.0
H2364 H 0.73964 0.51482 0.55786 0.0
H2365 H 0.76726 0.50254 0.5824 0.0
H2366 H 0.72151 0.49424 0.52698 0.0
H2367 H 0.76064 0.55914 0.53142 0.0
H2368 H 0.79241 0.5822 0.53067 0.0
H2369 H 0.80335 0.56548 0.46532 0.0
H2370 H 0.77181 0.54208 0.46576 0.0
H2371 H 0.64184 0.53335 0.45828 0.0
H2372 H 0.66863 0.53581 0.48652 0.0
H2373 H 0.71777 0.51943 0.44149 0.0
H2374 H 0.69117 0.51704 0.41321 0.0
H2375 H 0.73117 0.5494 0.47134 0.0
H2376 H 0.69474 0.48102 0.46921 0.0
H2377 H 0.66281 0.45813 0.46999 0.0
H2378 H 0.64662 0.48244 0.53177 0.0
H2379 H 0.67834 0.50563 0.53125 0.0
C2380 C 0.79589 0.50114 0.53631 0.0
C2381 C 0.79147 0.49891 0.55809 0.0
C2382 C 0.78003 0.50788 0.52228 0.0
C2383 C 0.75958 0.5129 0.52983 0.0
C2384 C 0.7553 0.51107 0.55167 0.0
C2385 C 0.77109 0.50409 0.56567 0.0
C2386 C 0.74234 0.51865 0.51476 0.0
C2387 C 0.72347 0.50665 0.51514 0.0
C2388 C 0.74499 0.53458 0.49905 0.0
C2389 C 0.76392 0.54874 0.49868 0.0
C2390 C 0.7699 0.56026 0.51693 0.0
C2391 C 0.78785 0.57342 0.51655 0.0
C2392 C 0.79991 0.57527 0.49797 0.0
C2393 C 0.794 0.56402 0.47971 0.0
C2394 C 0.77606 0.55083 0.48 0.0
C2395 C 0.65842 0.53081 0.4543 0.0
C2396 C 0.66443 0.52477 0.43363 0.0
C2397 C 0.67367 0.53215 0.47045 0.0
C2398 C 0.69508 0.52747 0.4661 0.0
C2399 C 0.70131 0.52305 0.44514 0.0
C2400 C 0.68609 0.52163 0.42903 0.0
C2401 C 0.71064 0.52487 0.48356 0.0
C2402 C 0.72915 0.53734 0.48352 0.0
C2403 C 0.70767 0.50942 0.49965 0.0
C2404 C 0.68878 0.49522 0.50009 0.0
C2405 C 0.6843 0.48156 0.48291 0.0
C2406 C 0.66626 0.46851 0.48331 0.0
C2407 C 0.65267 0.46884 0.50091 0.0
C2408 C 0.65715 0.48218 0.51816 0.0
C2409 C 0.67516 0.49527 0.51782 0.0
H2410 H 0.6387 0.45875 0.50119 0.0
H2411 H 0.81381 0.58546 0.49771 0.0
H2412 H 0.07849 0.31061 0.00985 0.0
H2413 H 0.05021 0.28537 0.01856 0.0
H2414 H 0.0134 0.33603 0.04673 0.0
H2415 H 0.04179 0.36139 0.0383 0.0
H2416 H 0.00887 0.29788 0.06855 0.0
H2417 H 0.00366 0.32418 0.99741 0.0
H2418 H 0.01691 0.33295 0.96155 0.0
H2419 H 0.03035 0.26694 0.94997 0.0
H2420 H 0.01751 0.25782 0.98592 0.0
H2421 H 0.91696 0.23128 0.01301 0.0
H2422 H 0.94071 0.262 0.01545 0.0
H2423 H 0.97778 0.22963 0.06343 0.0
H2424 H 0.95348 0.19931 0.06169 0.0
H2425 H 0.97948 0.26244 0.00431 0.0
H2426 H 0.00642 0.26415 0.09298 0.0
H2427 H 0.99105 0.25812 0.12857 0.0
H2428 H 0.92877 0.27301 0.1046 0.0
H2429 H 0.9438 0.27941 0.06895 0.0
C2430 C 0.06457 0.3163 0.01827 0.0
C2431 C 0.06217 0.33799 0.02314 0.0
C2432 C 0.04844 0.30189 0.02322 0.0
C2433 C 0.02962 0.30896 0.03295 0.0
C2434 C 0.02781 0.33031 0.03917 0.0
C2435 C 0.04399 0.34476 0.03427 0.0
C2436 C 0.0111 0.29453 0.03454 0.0
C2437 C 0.00237 0.29008 0.05458 0.0
C2438 C 0.00227 0.28497 0.01617 0.0
C2439 C 0.00979 0.29035 0.99443 0.0
C2440 C 0.00958 0.31155 0.98727 0.0
C2441 C 0.017 0.31659 0.96692 0.0
C2442 C 0.0245 0.30052 0.9535 0.0
C2443 C 0.02455 0.27937 0.96039 0.0
C2444 C 0.01719 0.27426 0.98075 0.0
C2445 C 0.9299 0.23096 0.02442 0.0
C2446 C 0.93348 0.21294 0.0371 0.0
C2447 C 0.94349 0.24848 0.02577 0.0
C2448 C 0.96104 0.24817 0.03963 0.0
C2449 C 0.96413 0.23046 0.05291 0.0
C2450 C 0.95031 0.21308 0.05183 0.0
C2451 C 0.97731 0.26525 0.03847 0.0
C2452 C 0.98574 0.27024 0.0184 0.0
C2453 C 0.9854 0.27566 0.05678 0.0
C2454 C 0.97624 0.27209 0.07824 0.0
C2455 C 0.98947 0.26624 0.09533 0.0
C2456 C 0.98081 0.26273 0.11551 0.0
C2457 C 0.95894 0.26512 0.11883 0.0
C2458 C 0.9457 0.27109 0.10199 0.0
C2459 C 0.95427 0.27463 0.08178 0.0
H2460 H 0.95227 0.26238 0.13447 0.0
H2461 H 0.03024 0.30444 0.93775 0.0
H2462 H 0.05403 0.67269 0.55659 0.0
H2463 H 0.02668 0.69979 0.55087 0.0
H2464 H 0.0192 0.67892 0.4859 0.0
H2465 H 0.04634 0.65139 0.4916 0.0
H2466 H 0.02191 0.72632 0.49449 0.0
H2467 H 0.9841 0.66239 0.51445 0.0
H2468 H 0.97776 0.63101 0.53712 0.0
H2469 H 0.96737 0.67169 0.59106 0.0
H2470 H 0.974 0.70332 0.56878 0.0
H2471 H 0.9308 0.79105 0.48169 0.0
H2472 H 0.95368 0.75954 0.48 0.0
H2473 H 0.95505 0.75695 0.54865 0.0
H2474 H 0.9315 0.78773 0.55036 0.0
H2475 H 0.95403 0.71869 0.53418 0.0
H2476 H 0.99527 0.78132 0.51817 0.0
H2477 H 0.00436 0.81407 0.49857 0.0
H2478 H 0.01101 0.77801 0.44087 0.0
H2479 H 0.00169 0.74507 0.46011 0.0
C2480 C 0.04675 0.67402 0.54101 0.0
C2481 C 0.05221 0.65993 0.52454 0.0
C2482 C 0.03112 0.68943 0.53781 0.0
C2483 C 0.02092 0.69113 0.51804 0.0
C2484 C 0.02695 0.67772 0.50126 0.0
C2485 C 0.04238 0.66205 0.50456 0.0
C2486 C 0.0034 0.70646 0.51531 0.0
C2487 C 0.00686 0.72453 0.50278 0.0
C2488 C 0.98411 0.7042 0.52663 0.0
C2489 C 0.97972 0.68522 0.53997 0.0
C2490 C 0.98062 0.66464 0.53118 0.0
C2491 C 0.97695 0.64681 0.54395 0.0
C2492 C 0.97221 0.64935 0.56553 0.0
C2493 C 0.97106 0.66975 0.57435 0.0
C2494 C 0.97475 0.68763 0.56165 0.0
C2495 C 0.93574 0.78351 0.49637 0.0
C2496 C 0.92954 0.79188 0.51615 0.0
C2497 C 0.94889 0.76561 0.49541 0.0
C2498 C 0.95646 0.75617 0.51421 0.0
C2499 C 0.94945 0.76397 0.53393 0.0
C2500 C 0.93603 0.7816 0.53489 0.0
C2501 C 0.97255 0.73893 0.51357 0.0
C2502 C 0.96887 0.72043 0.52553 0.0
C2503 C 0.99186 0.74103 0.50209 0.0
C2504 C 0.99753 0.76079 0.49051 0.0
C2505 C 0.99852 0.78041 0.50127 0.0
C2506 C 0.00374 0.79899 0.49023 0.0
C2507 C 0.0082 0.79813 0.46847 0.0
C2508 C 0.00751 0.77866 0.45772 0.0
C2509 C 0.00227 0.76003 0.46868 0.0
H2510 H 0.01223 0.81254 0.45995 0.0
H2511 H 0.96939 0.63553 0.57539 0.0
H2512 H 0.5797 0.7811 0.49936 0.0
H2513 H 0.55191 0.75433 0.50388 0.0
H2514 H 0.50584 0.80391 0.51548 0.0
H2515 H 0.5336 0.83088 0.51075 0.0
H2516 H 0.52215 0.74174 0.53287 0.0
H2517 H 0.46253 0.79226 0.48449 0.0
H2518 H 0.46292 0.8218 0.45859 0.0
H2519 H 0.5253 0.80315 0.43779 0.0
H2520 H 0.52512 0.77334 0.4633 0.0
H2521 H 0.42391 0.68454 0.52543 0.0
H2522 H 0.451 0.7119 0.53184 0.0
H2523 H 0.4692 0.70925 0.46566 0.0
H2524 H 0.44183 0.68245 0.45909 0.0
H2525 H 0.46613 0.74877 0.47755 0.0
H2526 H 0.49927 0.68591 0.50519 0.0
H2527 H 0.50218 0.65384 0.5276 0.0
H2528 H 0.49814 0.69242 0.58389 0.0
H2529 H 0.49491 0.72471 0.5618 0.0
C2530 C 0.56375 0.7863 0.50337 0.0
C2531 C 0.5587 0.80806 0.50437 0.0
C2532 C 0.54792 0.77097 0.50606 0.0
C2533 C 0.5268 0.77719 0.50967 0.0
C2534 C 0.52205 0.79885 0.51246 0.0
C2535 C 0.5379 0.81421 0.50979 0.0
C2536 C 0.50957 0.76127 0.50769 0.0
C2537 C 0.50973 0.74334 0.52096 0.0
C2538 C 0.49381 0.76312 0.49169 0.0
C2539 C 0.4939 0.78076 0.47601 0.0
C2540 C 0.47629 0.79444 0.47434 0.0
C2541 C 0.47648 0.81122 0.45972 0.0
C2542 C 0.49417 0.8144 0.44661 0.0
C2543 C 0.51165 0.80073 0.44801 0.0
C2544 C 0.51151 0.7839 0.46255 0.0
C2545 C 0.43375 0.6898 0.5123 0.0
C2546 C 0.43075 0.68149 0.49176 0.0
C2547 C 0.44924 0.70536 0.51598 0.0
C2548 C 0.46218 0.71255 0.49924 0.0
C2549 C 0.4593 0.70405 0.47878 0.0
C2550 C 0.4437 0.68871 0.47505 0.0
C2551 C 0.47855 0.72916 0.50282 0.0
C2552 C 0.47827 0.74726 0.48976 0.0
C2553 C 0.49459 0.72707 0.51853 0.0
C2554 C 0.49661 0.7077 0.53185 0.0
C2555 C 0.49883 0.68754 0.52235 0.0
C2556 C 0.50057 0.66932 0.53499 0.0
C2557 C 0.50028 0.67108 0.55715 0.0
C2558 C 0.49832 0.69108 0.56672 0.0
C2559 C 0.49655 0.70934 0.55415 0.0
H2560 H 0.50164 0.65697 0.56692 0.0
H2561 H 0.4943 0.82742 0.43534 0.0
H2562 H 0.45156 0.56911 0.79044 0.0
H2563 H 0.4609 0.542 0.76416 0.0
H2564 H 0.51917 0.52896 0.79823 0.0
H2565 H 0.50955 0.5556 0.82495 0.0
H2566 H 0.49166 0.53672 0.73705 0.0
H2567 H 0.53068 0.47624 0.79466 0.0
H2568 H 0.52877 0.4658 0.83246 0.0
H2569 H 0.4644 0.48858 0.83582 0.0
H2570 H 0.46584 0.49888 0.79799 0.0
H2571 H 0.5332 0.45548 0.67264 0.0
H2572 H 0.5326 0.48134 0.70178 0.0
H2573 H 0.4809 0.44702 0.73117 0.0
H2574 H 0.48166 0.42096 0.70237 0.0
H2575 H 0.50698 0.46296 0.76079 0.0
H2576 H 0.47041 0.48777 0.69855 0.0
H2577 H 0.46672 0.49666 0.66051 0.0
H2578 H 0.51652 0.54318 0.66631 0.0
H2579 H 0.52072 0.53431 0.70435 0.0
C2580 C 0.46641 0.56053 0.79225 0.0
C2581 C 0.47976 0.5643 0.80979 0.0
C2582 C 0.47177 0.5451 0.77721 0.0
C2583 C 0.4906 0.53327 0.77938 0.0
C2584 C 0.50436 0.53761 0.79646 0.0
C2585 C 0.4989 0.55288 0.81165 0.0
C2586 C 0.49542 0.51598 0.76409 0.0
C2587 C 0.49517 0.52064 0.74226 0.0
C2588 C 0.49959 0.49489 0.77087 0.0
C2589 C 0.49848 0.48856 0.79358 0.0
C2590 C 0.51611 0.47897 0.80346 0.0
C2591 C 0.5151 0.47308 0.82489 0.0
C2592 C 0.4965 0.4766 0.83656 0.0
C2593 C 0.47883 0.48594 0.8268 0.0
C2594 C 0.47974 0.49183 0.80537 0.0
C2595 C 0.52205 0.45319 0.68557 0.0
C2596 C 0.5073 0.43638 0.68514 0.0
C2597 C 0.52168 0.468 0.70215 0.0
C2598 C 0.50645 0.46628 0.71839 0.0
C2599 C 0.49274 0.44866 0.71875 0.0
C2600 C 0.49315 0.43382 0.70225 0.0
C2601 C 0.50332 0.48377 0.73383 0.0
C2602 C 0.50385 0.47914 0.75565 0.0
C2603 C 0.49863 0.50472 0.72704 0.0
C2604 C 0.49605 0.51021 0.70422 0.0
C2605 C 0.48068 0.49978 0.69167 0.0
C2606 C 0.47849 0.50482 0.67012 0.0
C2607 C 0.49142 0.52043 0.66099 0.0
C2608 C 0.50654 0.53106 0.6734 0.0
C2609 C 0.50884 0.52604 0.69496 0.0
H2610 H 0.4897 0.52432 0.6443 0.0
H2611 H 0.49576 0.47205 0.85314 0.0
H2612 H 0.56493 0.93872 0.80317 0.0
H2613 H 0.56128 0.9681 0.77793 0.0
H2614 H 0.49616 0.97727 0.79763 0.0
H2615 H 0.49976 0.94803 0.8232 0.0
H2616 H 0.50282 0.97502 0.7525 0.0
H2617 H 0.529 0.01318 0.81362 0.0
H2618 H 0.55325 0.0204 0.84367 0.0
H2619 H 0.60605 0.02484 0.80054 0.0
H2620 H 0.58209 0.01768 0.77021 0.0
H2621 H 0.4922 0.06597 0.68716 0.0
H2622 H 0.49124 0.04326 0.7188 0.0
H2623 H 0.55966 0.03696 0.71636 0.0
H2624 H 0.56074 0.06038 0.68546 0.0
H2625 H 0.54818 0.03965 0.75561 0.0
H2626 H 0.52429 0.99858 0.69522 0.0
H2627 H 0.50148 0.99046 0.66428 0.0
H2628 H 0.44642 0.98906 0.70472 0.0
H2629 H 0.46889 0.99743 0.73587 0.0
C2630 C 0.54982 0.94695 0.80209 0.0
C2631 C 0.53259 0.94109 0.81507 0.0
C2632 C 0.54782 0.9638 0.7878 0.0
C2633 C 0.52852 0.97489 0.78612 0.0
C2634 C 0.51119 0.9689 0.79882 0.0
C2635 C 0.51327 0.95222 0.81335 0.0
C2636 C 0.52634 0.99227 0.77051 0.0
C2637 C 0.5124 0.98938 0.75334 0.0
C2638 C 0.53928 0.01064 0.77146 0.0
C2639 C 0.55377 0.01477 0.78967 0.0
C2640 C 0.5458 0.01558 0.81055 0.0
C2641 C 0.55948 0.01976 0.82762 0.0
C2642 C 0.58118 0.02306 0.82402 0.0
C2643 C 0.58923 0.02229 0.80331 0.0
C2644 C 0.5756 0.01825 0.78617 0.0
C2645 C 0.50702 0.05992 0.69358 0.0
C2646 C 0.52653 0.06478 0.68383 0.0
C2647 C 0.50646 0.04687 0.71156 0.0
C2648 C 0.52534 0.03804 0.7197 0.0
C2649 C 0.54488 0.04355 0.71038 0.0
C2650 C 0.54548 0.05689 0.69268 0.0
C2651 C 0.52485 0.02233 0.73728 0.0
C2652 C 0.53835 0.02547 0.75484 0.0
C2653 C 0.51173 0.00398 0.73651 0.0
C2654 C 0.49822 -0.00113 0.71782 0.0
C2655 C 0.5073 0.99668 0.69748 0.0
C2656 C 0.49443 0.99202 0.67992 0.0
C2657 C 0.4725 0.98931 0.68252 0.0
C2658 C 0.4634 0.9912 0.70272 0.0
C2659 C 0.47619 0.9959 0.72034 0.0
H2660 H 0.46257 0.9857 0.6689 0.0
H2661 H 0.59174 0.02623 0.83727 0.0
H2662 H 0.43918 0.29191 0.99654 0.0
H2663 H 0.46535 0.26615 0.9841 0.0
H2664 H 0.46458 0.29516 0.92185 0.0
H2665 H 0.43886 0.32159 0.93454 0.0
H2666 H 0.46744 0.23657 0.95616 0.0
H2667 H 0.51462 0.29265 0.90065 0.0
H2668 H 0.52155 0.33105 0.89604 0.0
H2669 H 0.51024 0.34152 0.96261 0.0
H2670 H 0.50352 0.30317 0.96765 0.0
H2671 H 0.55025 0.17212 0.91897 0.0
H2672 H 0.52227 0.19896 0.91492 0.0
H2673 H 0.5568 0.24126 0.95665 0.0
H2674 H 0.58482 0.2147 0.96057 0.0
H2675 H 0.53567 0.26361 0.9269 0.0
H2676 H 0.52102 0.20895 0.97818 0.0
H2677 H 0.51679 0.17216 0.99105 0.0
H2678 H 0.46737 0.16133 0.94498 0.0
H2679 H 0.47138 0.19816 0.93183 0.0
C2680 C 0.44441 0.29268 0.98014 0.0
C2681 C 0.43715 0.30884 0.96655 0.0
C2682 C 0.45933 0.2779 0.97301 0.0
C2683 C 0.46715 0.27887 0.95211 0.0
C2684 C 0.45906 0.29434 0.93815 0.0
C2685 C 0.44432 0.30936 0.94538 0.0
C2686 C 0.48457 0.26435 0.94557 0.0
C2687 C 0.48222 0.24248 0.94944 0.0
C2688 C 0.50407 0.27206 0.93725 0.0
C2689 C 0.50829 0.29511 0.93444 0.0
C2690 C 0.51365 0.30316 0.9143 0.0
C2691 C 0.51755 0.32491 0.91161 0.0
C2692 C 0.51625 0.33873 0.929 0.0
C2693 C 0.51115 0.33081 0.94914 0.0
C2694 C 0.50728 0.30908 0.95191 0.0
C2695 C 0.55218 0.1874 0.92672 0.0
C2696 C 0.56953 0.19124 0.94033 0.0
C2697 C 0.53616 0.20268 0.92445 0.0
C2698 C 0.53732 0.22193 0.93578 0.0
C2699 C 0.55559 0.22651 0.94779 0.0
C2700 C 0.57155 0.21126 0.95009 0.0
C2701 C 0.5185 0.23597 0.93765 0.0
C2702 C 0.52061 0.25768 0.93294 0.0
C2703 C 0.4991 0.22833 0.94617 0.0
C2704 C 0.4967 0.20616 0.95384 0.0
C2705 C 0.50938 0.19865 0.97069 0.0
C2706 C 0.507 0.17781 0.97805 0.0
C2707 C 0.49191 0.16434 0.96875 0.0
C2708 C 0.4791 0.17175 0.95213 0.0
C2709 C 0.4814 0.19262 0.94473 0.0
H2710 H 0.49009 0.1482 0.97448 0.0
H2711 H 0.51925 0.35556 0.92689 0.0
loop_
_geom_bond_atom_site_label_1
_geom_bond_atom_site_label_2
_geom_bond_distance
_geom_bond_site_symmetry_2
_ccdc_geom_bond_type
In0 O1 2.294 . S
In0 O2 2.326 1_455 S
In0 O6 2.266 . S
In0 O7 2.325 . S
In0 O8 2.266 1_455 S
In0 O9 2.326 1_455 S
In0 O11 2.294 1_455 S
In0 O12 2.326 . S
O1 In0 2.294 . S
O1 C10 1.199 1_455 S
O2 In0 2.326 1_655 S
O2 C10 1.293 . S
C3 O6 1.252 . S
C3 O7 1.260 . S
C4 O11 1.240 . S
C4 O12 1.252 1_655 S
C5 O8 1.252 . S
C5 O9 1.260 . S
O6 In0 2.266 . S
O6 C3 1.252 . S
O7 In0 2.325 . S
O7 C3 1.260 . S
O8 In0 2.266 1_655 S
O8 C5 1.252 . S
O9 In0 2.326 1_655 S
O9 C5 1.260 . S
C10 O1 1.199 1_655 S
C10 O2 1.293 . S
O11 In0 2.294 1_655 S
O11 C4 1.240 . S
O12 In0 2.326 . S
O12 C4 1.252 1_455 S
In13 O14 2.294 1_655 S
In13 O15 2.326 . S
In13 O19 2.267 1_655 S
In13 O20 2.326 1_655 S
In13 O21 2.266 . S
In13 O22 2.325 . S
In13 O24 2.294 . S
In13 O25 2.326 1_655 S
O14 In13 2.294 1_455 S
O14 C23 1.240 . S
O15 In13 2.326 . S
O15 C23 1.252 1_655 S
C16 O19 1.252 . S
C16 O20 1.260 . S
C17 O24 1.229 1_455 S
C17 O25 1.263 . S
C18 O21 1.252 . S
C18 O22 1.260 . S
O19 In13 2.267 1_455 S
O19 C16 1.252 . S
O20 In13 2.326 1_455 S
O20 C16 1.260 . S
O21 In13 2.266 . S
O21 C18 1.252 . S
O22 In13 2.325 . S
O22 C18 1.260 . S
C23 O14 1.240 . S
C23 O15 1.252 1_455 S
O24 In13 2.294 . S
O24 C17 1.229 1_655 S
O25 In13 2.326 1_455 S
O25 C17 1.263 . S
In26 O27 2.294 1_455 S
In26 O28 2.326 . S
In26 O32 2.266 1_455 S
In26 O33 2.326 1_455 S
In26 O34 2.266 . S
In26 O35 2.325 . S
In26 O37 2.294 . S
In26 O38 2.326 1_455 S
O27 In26 2.294 1_655 S
O27 C36 1.240 . S
O28 In26 2.326 . S
O28 C36 1.252 1_455 S
C29 O32 1.252 . S
C29 O33 1.260 . S
C30 O37 1.255 . S
C30 O38 1.237 1_455 S
C31 O34 1.252 . S
C31 O35 1.260 . S
O32 In26 2.266 1_655 S
O32 C29 1.252 . S
O33 In26 2.326 1_655 S
O33 C29 1.260 . S
O34 In26 2.266 . S
O34 C31 1.252 . S
O35 In26 2.325 . S
O35 C31 1.260 . S
C36 O27 1.240 . S
C36 O28 1.252 1_655 S
O37 In26 2.294 . S
O37 C30 1.255 . S
O38 In26 2.326 1_655 S
O38 C30 1.237 1_655 S
In39 O40 2.294 . S
In39 O41 2.326 1_655 S
In39 O45 2.266 . S
In39 O46 2.325 . S
In39 O47 2.266 1_655 S
In39 O48 2.326 1_655 S
In39 O50 2.294 1_655 S
In39 O51 2.326 . S
O40 In39 2.294 . S
O40 C49 1.286 . S
O41 In39 2.326 1_455 S
O41 C49 1.206 1_455 S
C42 O45 1.252 . S
C42 O46 1.260 . S
C43 O50 1.240 . S
C43 O51 1.252 1_455 S
C44 O47 1.252 . S
C44 O48 1.260 . S
O45 In39 2.266 . S
O45 C42 1.252 . S
O46 In39 2.325 . S
O46 C42 1.260 . S
O47 In39 2.266 1_455 S
O47 C44 1.252 . S
O48 In39 2.326 1_455 S
O48 C44 1.260 . S
C49 O40 1.286 . S
C49 O41 1.206 1_655 S
O50 In39 2.294 1_455 S
O50 C43 1.240 . S
O51 In39 2.326 . S
O51 C43 1.252 1_655 S
In52 O53 2.294 1_545 S
In52 O54 2.326 . S
In52 O58 2.266 1_545 S
In52 O59 2.326 1_545 S
In52 O60 2.266 . S
In52 O61 2.325 . S
In52 O63 2.294 . S
In52 O64 2.326 1_545 S
O53 In52 2.294 1_565 S
O53 C62 1.240 . S
O54 In52 2.326 . S
O54 C62 1.252 1_545 S
C55 O58 1.252 . S
C55 O59 1.260 . S
C56 O63 1.199 1_565 S
C56 O64 1.293 . S
C57 O60 1.252 . S
C57 O61 1.260 . S
O58 In52 2.266 1_565 S
O58 C55 1.252 . S
O59 In52 2.326 1_565 S
O59 C55 1.260 . S
O60 In52 2.266 . S
O60 C57 1.252 . S
O61 In52 2.325 . S
O61 C57 1.260 . S
C62 O53 1.240 . S
C62 O54 1.252 1_565 S
O63 In52 2.294 . S
O63 C56 1.199 1_545 S
O64 In52 2.326 1_565 S
O64 C56 1.293 . S
In65 O66 2.294 . S
In65 O67 2.326 . S
In65 O71 2.266 . S
In65 O72 2.326 . S
In65 O73 2.266 . S
In65 O74 2.326 . S
In65 O76 2.294 . S
In65 O77 2.326 . S
O66 In65 2.294 . S
O66 C75 1.240 . S
O67 In65 2.326 . S
O67 C75 1.252 . S
C68 O71 1.252 . S
C68 O72 1.260 . S
C69 O76 1.240 . S
C69 O77 1.252 . S
C70 O73 1.252 . S
C70 O74 1.260 . S
O71 In65 2.266 . S
O71 C68 1.252 . S
O72 In65 2.326 . S
O72 C68 1.260 . S
O73 In65 2.266 . S
O73 C70 1.252 . S
O74 In65 2.326 . S
O74 C70 1.260 . S
C75 O66 1.240 . S
C75 O67 1.252 . S
O76 In65 2.294 . S
O76 C69 1.240 . S
O77 In65 2.326 . S
O77 C69 1.252 . S
In78 O79 2.294 1_565 S
In78 O80 2.326 . S
In78 O84 2.267 1_565 S
In78 O85 2.326 1_565 S
In78 O86 2.266 . S
In78 O87 2.325 . S
In78 O89 2.294 . S
In78 O90 2.326 1_565 S
O79 In78 2.294 1_545 S
O79 C88 1.240 . S
O80 In78 2.326 . S
O80 C88 1.252 1_565 S
C81 O84 1.252 . S
C81 O85 1.260 . S
C82 O89 1.229 1_545 S
C82 O90 1.263 . S
C83 O86 1.252 . S
C83 O87 1.260 . S
O84 In78 2.267 1_545 S
O84 C81 1.252 . S
O85 In78 2.326 1_545 S
O85 C81 1.260 . S
O86 In78 2.266 . S
O86 C83 1.252 . S
O87 In78 2.325 . S
O87 C83 1.260 . S
C88 O79 1.240 . S
C88 O80 1.252 1_545 S
O89 In78 2.294 . S
O89 C82 1.229 1_565 S
O90 In78 2.326 1_545 S
O90 C82 1.263 . S
In91 O92 2.294 . S
In91 O93 2.326 . S
In91 O97 2.266 . S
In91 O98 2.326 . S
In91 O99 2.266 . S
In91 O100 2.326 . S
In91 O102 2.294 . S
In91 O103 2.326 . S
O92 In91 2.294 . S
O92 C101 1.240 . S
O93 In91 2.326 . S
O93 C101 1.252 . S
C94 O97 1.252 . S
C94 O98 1.260 . S
C95 O102 1.240 . S
C95 O103 1.252 . S
C96 O99 1.252 . S
C96 O100 1.260 . S
O97 In91 2.266 . S
O97 C94 1.252 . S
O98 In91 2.326 . S
O98 C94 1.260 . S
O99 In91 2.266 . S
O99 C96 1.252 . S
O100 In91 2.326 . S
O100 C96 1.260 . S
C101 O92 1.240 . S
C101 O93 1.252 . S
O102 In91 2.294 . S
O102 C95 1.240 . S
O103 In91 2.326 . S
O103 C95 1.252 . S
In104 O105 2.294 . S
In104 O106 2.326 1_554 S
In104 O110 2.266 . S
In104 O111 2.325 . S
In104 O112 2.266 1_554 S
In104 O113 2.326 1_554 S
In104 O115 2.294 1_554 S
In104 O116 2.326 . S
O105 In104 2.294 . S
O105 C114 1.199 1_554 S
O106 In104 2.326 1_556 S
O106 C114 1.293 . S
C107 O110 1.252 . S
C107 O111 1.260 . S
C108 O115 1.240 . S
C108 O116 1.252 1_556 S
C109 O112 1.252 . S
C109 O113 1.260 . S
O110 In104 2.266 . S
O110 C107 1.252 . S
O111 In104 2.325 . S
O111 C107 1.260 . S
O112 In104 2.266 1_556 S
O112 C109 1.252 . S
O113 In104 2.326 1_556 S
O113 C109 1.260 . S
C114 O105 1.199 1_556 S
C114 O106 1.293 . S
O115 In104 2.294 1_556 S
O115 C108 1.240 . S
O116 In104 2.326 . S
O116 C108 1.252 1_554 S
In117 O118 2.294 . S
In117 O119 2.326 . S
In117 O123 2.266 . S
In117 O124 2.326 . S
In117 O125 2.266 . S
In117 O126 2.326 . S
In117 O128 2.294 . S
In117 O129 2.326 . S
O118 In117 2.294 . S
O118 C127 1.240 . S
O119 In117 2.326 . S
O119 C127 1.252 . S
C120 O123 1.252 . S
C120 O124 1.260 . S
C121 O128 1.240 . S
C121 O129 1.252 . S
C122 O125 1.252 . S
C122 O126 1.260 . S
O123 In117 2.266 . S
O123 C120 1.252 . S
O124 In117 2.326 . S
O124 C120 1.260 . S
O125 In117 2.266 . S
O125 C122 1.252 . S
O126 In117 2.326 . S
O126 C122 1.260 . S
C127 O118 1.240 . S
C127 O119 1.252 . S
O128 In117 2.294 . S
O128 C121 1.240 . S
O129 In117 2.326 . S
O129 C121 1.252 . S
In130 O131 2.294 . S
In130 O132 2.326 . S
In130 O136 2.266 . S
In130 O137 2.326 . S
In130 O138 2.266 . S
In130 O139 2.326 . S
In130 O141 2.294 . S
In130 O142 2.326 . S
O131 In130 2.294 . S
O131 C140 1.240 . S
O132 In130 2.326 . S
O132 C140 1.252 . S
C133 O136 1.252 . S
C133 O137 1.260 . S
C134 O141 1.240 . S
C134 O142 1.252 . S
C135 O138 1.252 . S
C135 O139 1.260 . S
O136 In130 2.266 . S
O136 C133 1.252 . S
O137 In130 2.326 . S
O137 C133 1.260 . S
O138 In130 2.266 . S
O138 C135 1.252 . S
O139 In130 2.326 . S
O139 C135 1.260 . S
C140 O131 1.240 . S
C140 O132 1.252 . S
O141 In130 2.294 . S
O141 C134 1.240 . S
O142 In130 2.326 . S
O142 C134 1.252 . S
In143 O144 2.294 . S
In143 O145 2.326 . S
In143 O149 2.266 . S
In143 O150 2.326 . S
In143 O151 2.266 . S
In143 O152 2.326 . S
In143 O154 2.294 . S
In143 O155 2.326 . S
O144 In143 2.294 . S
O144 C153 1.240 . S
O145 In143 2.326 . S
O145 C153 1.252 . S
C146 O149 1.252 . S
C146 O150 1.260 . S
C147 O154 1.240 . S
C147 O155 1.252 . S
C148 O151 1.252 . S
C148 O152 1.260 . S
O149 In143 2.266 . S
O149 C146 1.252 . S
O150 In143 2.326 . S
O150 C146 1.260 . S
O151 In143 2.266 . S
O151 C148 1.252 . S
O152 In143 2.326 . S
O152 C148 1.260 . S
C153 O144 1.240 . S
C153 O145 1.252 . S
O154 In143 2.294 . S
O154 C147 1.240 . S
O155 In143 2.326 . S
O155 C147 1.252 . S
In156 O157 2.294 . S
In156 O158 2.326 . S
In156 O162 2.266 . S
In156 O163 2.326 . S
In156 O164 2.266 . S
In156 O165 2.326 . S
In156 O167 2.294 . S
In156 O168 2.326 . S
O157 In156 2.294 . S
O157 C166 1.240 . S
O158 In156 2.326 . S
O158 C166 1.252 . S
C159 O162 1.252 . S
C159 O163 1.260 . S
C160 O167 1.240 . S
C160 O168 1.252 . S
C161 O164 1.252 . S
C161 O165 1.260 . S
O162 In156 2.266 . S
O162 C159 1.252 . S
O163 In156 2.326 . S
O163 C159 1.260 . S
O164 In156 2.266 . S
O164 C161 1.252 . S
O165 In156 2.326 . S
O165 C161 1.260 . S
C166 O157 1.240 . S
C166 O158 1.252 . S
O167 In156 2.294 . S
O167 C160 1.240 . S
O168 In156 2.326 . S
O168 C160 1.252 . S
In169 O170 2.294 . S
In169 O171 2.326 . S
In169 O175 2.266 . S
In169 O176 2.326 . S
In169 O177 2.266 . S
In169 O178 2.326 . S
In169 O180 2.294 . S
In169 O181 2.326 . S
O170 In169 2.294 . S
O170 C179 1.240 . S
O171 In169 2.326 . S
O171 C179 1.252 . S
C172 O175 1.252 . S
C172 O176 1.260 . S
C173 O180 1.240 . S
C173 O181 1.252 . S
C174 O177 1.252 . S
C174 O178 1.260 . S
O175 In169 2.266 . S
O175 C172 1.252 . S
O176 In169 2.326 . S
O176 C172 1.260 . S
O177 In169 2.266 . S
O177 C174 1.252 . S
O178 In169 2.326 . S
O178 C174 1.260 . S
C179 O170 1.240 . S
C179 O171 1.252 . S
O180 In169 2.294 . S
O180 C173 1.240 . S
O181 In169 2.326 . S
O181 C173 1.252 . S
In182 O183 2.294 . S
In182 O184 2.326 . S
In182 O188 2.266 . S
In182 O189 2.326 . S
In182 O190 2.266 . S
In182 O191 2.326 . S
In182 O193 2.294 . S
In182 O194 2.326 . S
O183 In182 2.294 . S
O183 C192 1.240 . S
O184 In182 2.326 . S
O184 C192 1.252 . S
C185 O188 1.252 . S
C185 O189 1.260 . S
C186 O193 1.240 . S
C186 O194 1.252 . S
C187 O190 1.252 . S
C187 O191 1.260 . S
O188 In182 2.266 . S
O188 C185 1.252 . S
O189 In182 2.326 . S
O189 C185 1.260 . S
O190 In182 2.266 . S
O190 C187 1.252 . S
O191 In182 2.326 . S
O191 C187 1.260 . S
C192 O183 1.240 . S
C192 O184 1.252 . S
O193 In182 2.294 . S
O193 C186 1.240 . S
O194 In182 2.326 . S
O194 C186 1.252 . S
In195 O196 2.294 . S
In195 O197 2.326 . S
In195 O201 2.266 . S
In195 O202 2.326 . S
In195 O203 2.266 . S
In195 O204 2.326 . S
In195 O206 2.294 . S
In195 O207 2.326 . S
O196 In195 2.294 . S
O196 C205 1.240 . S
O197 In195 2.326 . S
O197 C205 1.252 . S
C198 O201 1.252 . S
C198 O202 1.260 . S
C199 O206 1.240 . S
C199 O207 1.252 . S
C200 O203 1.252 . S
C200 O204 1.260 . S
O201 In195 2.266 . S
O201 C198 1.252 . S
O202 In195 2.326 . S
O202 C198 1.260 . S
O203 In195 2.266 . S
O203 C200 1.252 . S
O204 In195 2.326 . S
O204 C200 1.260 . S
C205 O196 1.240 . S
C205 O197 1.252 . S
O206 In195 2.294 . S
O206 C199 1.240 . S
O207 In195 2.326 . S
O207 C199 1.252 . S
In208 O209 2.294 . S
In208 O210 2.326 . S
In208 O214 2.266 . S
In208 O215 2.326 . S
In208 O216 2.266 . S
In208 O217 2.326 . S
In208 O219 2.294 . S
In208 O220 2.326 . S
O209 In208 2.294 . S
O209 C218 1.240 . S
O210 In208 2.326 . S
O210 C218 1.252 . S
C211 O214 1.252 . S
C211 O215 1.260 . S
C212 O219 1.240 . S
C212 O220 1.252 . S
C213 O216 1.252 . S
C213 O217 1.260 . S
O214 In208 2.266 . S
O214 C211 1.252 . S
O215 In208 2.326 . S
O215 C211 1.260 . S
O216 In208 2.266 . S
O216 C213 1.252 . S
O217 In208 2.326 . S
O217 C213 1.260 . S
C218 O209 1.240 . S
C218 O210 1.252 . S
O219 In208 2.294 . S
O219 C212 1.240 . S
O220 In208 2.326 . S
O220 C212 1.252 . S
In221 O222 2.294 1_565 S
In221 O223 2.326 . S
In221 O227 2.266 1_565 S
In221 O228 2.326 1_565 S
In221 O229 2.266 . S
In221 O230 2.325 . S
In221 O232 2.294 . S
In221 O233 2.326 1_565 S
O222 In221 2.294 1_545 S
O222 C231 1.240 . S
O223 In221 2.326 . S
O223 C231 1.252 1_565 S
C224 O227 1.252 . S
C224 O228 1.260 . S
C225 O232 1.286 . S
C225 O233 1.206 1_565 S
C226 O229 1.252 . S
C226 O230 1.260 . S
O227 In221 2.266 1_545 S
O227 C224 1.252 . S
O228 In221 2.326 1_545 S
O228 C224 1.260 . S
O229 In221 2.266 . S
O229 C226 1.252 . S
O230 In221 2.325 . S
O230 C226 1.260 . S
C231 O222 1.240 . S
C231 O223 1.252 1_545 S
O232 In221 2.294 . S
O232 C225 1.286 . S
O233 In221 2.326 1_545 S
O233 C225 1.206 1_545 S
In234 O235 2.294 . S
In234 O236 2.326 . S
In234 O240 2.266 . S
In234 O241 2.326 . S
In234 O242 2.266 . S
In234 O243 2.326 . S
In234 O245 2.294 . S
In234 O246 2.326 . S
O235 In234 2.294 . S
O235 C244 1.240 . S
O236 In234 2.326 . S
O236 C244 1.252 . S
C237 O240 1.252 . S
C237 O241 1.260 . S
C238 O245 1.240 . S
C238 O246 1.252 . S
C239 O242 1.252 . S
C239 O243 1.260 . S
O240 In234 2.266 . S
O240 C237 1.252 . S
O241 In234 2.326 . S
O241 C237 1.260 . S
O242 In234 2.266 . S
O242 C239 1.252 . S
O243 In234 2.326 . S
O243 C239 1.260 . S
C244 O235 1.240 . S
C244 O236 1.252 . S
O245 In234 2.294 . S
O245 C238 1.240 . S
O246 In234 2.326 . S
O246 C238 1.252 . S
In247 O248 2.294 . S
In247 O249 2.326 1_545 S
In247 O253 2.266 . S
In247 O254 2.325 . S
In247 O255 2.266 1_545 S
In247 O256 2.326 1_545 S
In247 O258 2.294 1_545 S
In247 O259 2.326 . S
O248 In247 2.294 . S
O248 C257 1.255 . S
O249 In247 2.326 1_565 S
O249 C257 1.237 1_565 S
C250 O253 1.252 . S
C250 O254 1.260 . S
C251 O258 1.240 . S
C251 O259 1.252 1_565 S
C252 O255 1.252 . S
C252 O256 1.260 . S
O253 In247 2.266 . S
O253 C250 1.252 . S
O254 In247 2.325 . S
O254 C250 1.260 . S
O255 In247 2.266 1_565 S
O255 C252 1.252 . S
O256 In247 2.326 1_565 S
O256 C252 1.260 . S
C257 O248 1.255 . S
C257 O249 1.237 1_545 S
O258 In247 2.294 1_565 S
O258 C251 1.240 . S
O259 In247 2.326 . S
O259 C251 1.252 1_545 S
In260 O261 2.294 . S
In260 O262 2.326 . S
In260 O266 2.266 . S
In260 O267 2.326 . S
In260 O268 2.266 . S
In260 O269 2.326 . S
In260 O271 2.294 . S
In260 O272 2.326 . S
O261 In260 2.294 . S
O261 C270 1.240 . S
O262 In260 2.326 . S
O262 C270 1.252 . S
C263 O266 1.252 . S
C263 O267 1.260 . S
C264 O271 1.240 . S
C264 O272 1.252 . S
C265 O268 1.252 . S
C265 O269 1.260 . S
O266 In260 2.266 . S
O266 C263 1.252 . S
O267 In260 2.326 . S
O267 C263 1.260 . S
O268 In260 2.266 . S
O268 C265 1.252 . S
O269 In260 2.326 . S
O269 C265 1.260 . S
C270 O261 1.240 . S
C270 O262 1.252 . S
O271 In260 2.294 . S
O271 C264 1.240 . S
O272 In260 2.326 . S
O272 C264 1.252 . S
In273 O274 2.294 . S
In273 O275 2.326 1_556 S
In273 O279 2.266 . S
In273 O280 2.325 . S
In273 O281 2.266 1_556 S
In273 O282 2.326 1_556 S
In273 O284 2.294 1_556 S
In273 O285 2.326 . S
O274 In273 2.294 . S
O274 C283 1.286 . S
O275 In273 2.326 1_554 S
O275 C283 1.206 1_554 S
C276 O279 1.252 . S
C276 O280 1.260 . S
C277 O284 1.240 . S
C277 O285 1.252 1_554 S
C278 O281 1.252 . S
C278 O282 1.260 . S
O279 In273 2.266 . S
O279 C276 1.252 . S
O280 In273 2.325 . S
O280 C276 1.260 . S
O281 In273 2.266 1_554 S
O281 C278 1.252 . S
O282 In273 2.326 1_554 S
O282 C278 1.260 . S
C283 O274 1.286 . S
C283 O275 1.206 1_556 S
O284 In273 2.294 1_554 S
O284 C277 1.240 . S
O285 In273 2.326 . S
O285 C277 1.252 1_556 S
In286 O287 2.294 . S
In286 O288 2.326 1_556 S
In286 O292 2.266 . S
In286 O293 2.325 . S
In286 O294 2.267 1_556 S
In286 O295 2.326 1_556 S
In286 O297 2.294 1_556 S
In286 O298 2.326 . S
O287 In286 2.294 . S
O287 C296 1.229 1_556 S
O288 In286 2.326 1_554 S
O288 C296 1.263 . S
C289 O292 1.252 . S
C289 O293 1.260 . S
C290 O297 1.240 . S
C290 O298 1.252 1_554 S
C291 O294 1.252 . S
C291 O295 1.260 . S
O292 In286 2.266 . S
O292 C289 1.252 . S
O293 In286 2.325 . S
O293 C289 1.260 . S
O294 In286 2.267 1_554 S
O294 C291 1.252 . S
O295 In286 2.326 1_554 S
O295 C291 1.260 . S
C296 O287 1.229 1_554 S
C296 O288 1.263 . S
O297 In286 2.294 1_554 S
O297 C290 1.240 . S
O298 In286 2.326 . S
O298 C290 1.252 1_556 S
In299 O300 2.294 1_554 S
In299 O301 2.326 . S
In299 O305 2.266 1_554 S
In299 O306 2.326 1_554 S
In299 O307 2.266 . S
In299 O308 2.325 . S
In299 O310 2.294 . S
In299 O311 2.326 1_554 S
O300 In299 2.294 1_556 S
O300 C309 1.240 . S
O301 In299 2.326 . S
O301 C309 1.252 1_554 S
C302 O305 1.252 . S
C302 O306 1.260 . S
C303 O310 1.255 . S
C303 O311 1.237 1_554 S
C304 O307 1.252 . S
C304 O308 1.260 . S
O305 In299 2.266 1_556 S
O305 C302 1.252 . S
O306 In299 2.326 1_556 S
O306 C302 1.260 . S
O307 In299 2.266 . S
O307 C304 1.252 . S
O308 In299 2.325 . S
O308 C304 1.260 . S
C309 O300 1.240 . S
C309 O301 1.252 1_556 S
O310 In299 2.294 . S
O310 C303 1.255 . S
O311 In299 2.326 1_556 S
O311 C303 1.237 1_556 S
H312 C330 0.951 . S
H313 C332 0.951 . S
H314 C334 0.950 . S
H315 C335 0.950 . S
H316 C337 0.950 . S
H317 C340 0.950 . S
H318 C341 0.950 . S
H319 C343 0.950 . S
H320 C344 0.950 . S
H321 C345 0.951 . S
H322 C347 0.951 . S
H323 C349 0.950 . S
H324 C350 0.950 . S
H325 C352 0.950 . S
H326 C355 0.950 . S
H327 C356 0.958 . S
H328 C358 0.950 . S
H329 C359 0.950 . S
C330 H312 0.951 . S
C330 C331 1.366 . S
C330 C332 1.388 . S
C331 C330 1.366 . S
C331 C335 1.385 . S
C332 H313 0.951 . S
C332 C330 1.388 . S
C332 C333 1.366 . S
C333 C332 1.366 . S
C333 C334 1.414 . S
C333 C336 1.499 . S
C334 H314 0.950 . S
C334 C333 1.414 . S
C334 C335 1.374 . S
C335 H315 0.950 . S
C335 C331 1.385 . S
C335 C334 1.374 . S
C336 C333 1.499 . S
C336 C337 1.373 . S
C336 C338 1.389 . S
C337 H316 0.950 . S
C337 C336 1.373 . S
C337 C353 1.377 . S
C338 C336 1.389 . S
C338 C339 1.524 . S
C338 C352 1.377 . S
C339 C338 1.524 . S
C339 C340 1.397 . S
C339 C344 1.363 . S
C340 H317 0.950 . S
C340 C339 1.397 . S
C340 C341 1.334 . S
C341 H318 0.950 . S
C341 C340 1.334 . S
C341 C342 1.287 . S
C342 C341 1.287 . S
C342 C343 1.524 . S
C342 H361 0.913 . S
C343 H319 0.950 . S
C343 C342 1.524 . S
C343 C344 1.415 . S
C344 H320 0.950 . S
C344 C339 1.363 . S
C344 C343 1.415 . S
C345 H321 0.951 . S
C345 C346 1.366 . S
C345 C347 1.388 . S
C346 C345 1.366 . S
C346 C350 1.385 . S
C347 H322 0.951 . S
C347 C345 1.388 . S
C347 C348 1.366 . S
C348 C347 1.366 . S
C348 C349 1.414 . S
C348 C351 1.499 . S
C349 H323 0.950 . S
C349 C348 1.414 . S
C349 C350 1.374 . S
C350 H324 0.950 . S
C350 C346 1.385 . S
C350 C349 1.374 . S
C351 C348 1.499 . S
C351 C352 1.373 . S
C351 C353 1.389 . S
C352 H325 0.950 . S
C352 C338 1.377 . S
C352 C351 1.373 . S
C353 C337 1.377 . S
C353 C351 1.389 . S
C353 C354 1.524 . S
C354 C353 1.524 . S
C354 C355 1.397 . S
C354 C359 1.363 . S
C355 H326 0.950 . S
C355 C354 1.397 . S
C355 C356 1.295 1_545 S
C356 H327 0.958 . S
C356 C355 1.295 1_565 S
C356 C357 1.320 . S
C357 C356 1.320 . S
C357 C358 1.524 . S
C357 H360 0.999 . S
C358 H328 0.950 . S
C358 C357 1.524 . S
C358 C359 1.415 1_565 S
C359 H329 0.950 . S
C359 C354 1.363 . S
C359 C358 1.415 1_545 S
H360 C357 0.999 . S
H361 C342 0.913 . S
H362 C380 0.951 . S
H363 C382 0.951 . S
H364 C384 0.950 . S
H365 C385 0.950 . S
H366 C387 0.950 . S
H367 C390 0.950 . S
H368 C391 0.950 . S
H369 C393 0.950 . S
H370 C394 0.950 . S
H371 C395 0.951 . S
H372 C397 0.951 . S
H373 C399 0.950 . S
H374 C400 0.950 . S
H375 C402 0.950 . S
H376 C405 0.950 . S
H377 C406 0.950 . S
H378 C408 0.950 . S
H379 C409 0.950 . S
C380 H362 0.951 . S
C380 C381 1.366 . S
C380 C382 1.388 . S
C381 C380 1.366 . S
C381 C385 1.385 . S
C382 H363 0.951 . S
C382 C380 1.388 . S
C382 C383 1.366 . S
C383 C382 1.366 . S
C383 C384 1.414 . S
C383 C386 1.499 . S
C384 H364 0.950 . S
C384 C383 1.414 . S
C384 C385 1.374 . S
C385 H365 0.950 . S
C385 C381 1.385 . S
C385 C384 1.374 . S
C386 C383 1.499 . S
C386 C387 1.373 . S
C386 C388 1.389 . S
C387 H366 0.950 . S
C387 C386 1.373 . S
C387 C403 1.377 . S
C388 C386 1.389 . S
C388 C389 1.524 . S
C388 C402 1.377 . S
C389 C388 1.524 . S
C389 C390 1.397 . S
C389 C394 1.363 . S
C390 H367 0.950 . S
C390 C389 1.397 . S
C390 C391 1.334 . S
C391 H368 0.950 . S
C391 C390 1.334 . S
C391 C392 1.287 . S
C392 C391 1.287 . S
C392 C393 1.524 . S
C392 H411 0.913 . S
C393 H369 0.950 . S
C393 C392 1.524 . S
C393 C394 1.415 . S
C394 H370 0.950 . S
C394 C389 1.363 . S
C394 C393 1.415 . S
C395 H371 0.951 . S
C395 C396 1.366 . S
C395 C397 1.388 . S
C396 C395 1.366 . S
C396 C400 1.385 . S
C397 H372 0.951 . S
C397 C395 1.388 . S
C397 C398 1.366 . S
C398 C397 1.366 . S
C398 C399 1.414 . S
C398 C401 1.499 . S
C399 H373 0.950 . S
C399 C398 1.414 . S
C399 C400 1.374 . S
C400 H374 0.950 . S
C400 C396 1.385 . S
C400 C399 1.374 . S
C401 C398 1.499 . S
C401 C402 1.373 . S
C401 C403 1.389 . S
C402 H375 0.950 . S
C402 C388 1.377 . S
C402 C401 1.373 . S
C403 C387 1.377 . S
C403 C401 1.389 . S
C403 C404 1.524 . S
C404 C403 1.524 . S
C404 C405 1.397 . S
C404 C409 1.363 . S
C405 H376 0.950 . S
C405 C404 1.397 . S
C405 C406 1.334 . S
C406 H377 0.950 . S
C406 C405 1.334 . S
C406 C407 1.287 . S
C407 C406 1.287 . S
C407 C408 1.524 . S
C407 H410 0.999 . S
C408 H378 0.950 . S
C408 C407 1.524 . S
C408 C409 1.415 . S
C409 H379 0.950 . S
C409 C404 1.363 . S
C409 C408 1.415 . S
H410 C407 0.999 . S
H411 C392 0.913 . S
H412 C430 0.951 . S
H413 C432 0.951 . S
H414 C434 0.950 . S
H415 C435 0.950 . S
H416 C437 0.950 . S
H417 C440 0.950 . S
H418 C441 0.950 . S
H419 C443 0.950 . S
H420 C444 0.950 . S
H421 C445 0.951 . S
H422 C447 0.951 . S
H423 C449 0.950 . S
H424 C450 0.950 . S
H425 C452 0.950 . S
H426 C455 0.950 . S
H427 C456 0.950 . S
H428 C458 0.950 . S
H429 C459 0.950 . S
C430 H412 0.951 . S
C430 C431 1.366 . S
C430 C432 1.388 . S
C431 C430 1.366 . S
C431 C435 1.385 . S
C432 H413 0.951 . S
C432 C430 1.388 . S
C432 C433 1.366 . S
C433 C432 1.366 . S
C433 C434 1.414 . S
C433 C436 1.499 . S
C434 H414 0.950 . S
C434 C433 1.414 . S
C434 C435 1.374 . S
C435 H415 0.950 . S
C435 C431 1.385 . S
C435 C434 1.374 . S
C436 C433 1.499 . S
C436 C437 1.373 . S
C436 C438 1.389 . S
C437 H416 0.950 . S
C437 C436 1.373 . S
C437 C453 1.377 . S
C438 C436 1.389 . S
C438 C439 1.524 . S
C438 C452 1.377 . S
C439 C438 1.524 . S
C439 C440 1.397 . S
C439 C444 1.363 . S
C440 H417 0.950 . S
C440 C439 1.397 . S
C440 C441 1.334 . S
C441 H418 0.950 . S
C441 C440 1.334 . S
C441 C442 1.287 . S
C442 C441 1.287 . S
C442 C443 1.524 . S
C442 H461 0.913 . S
C443 H419 0.950 . S
C443 C442 1.524 . S
C443 C444 1.415 . S
C444 H420 0.950 . S
C444 C439 1.363 . S
C444 C443 1.415 . S
C445 H421 0.951 . S
C445 C446 1.366 . S
C445 C447 1.388 . S
C446 C445 1.366 . S
C446 C450 1.385 . S
C447 H422 0.951 . S
C447 C445 1.388 . S
C447 C448 1.366 . S
C448 C447 1.366 . S
C448 C449 1.414 . S
C448 C451 1.499 1_556 S
C449 H423 0.950 . S
C449 C448 1.414 . S
C449 C450 1.374 . S
C450 H424 0.950 . S
C450 C446 1.385 . S
C450 C449 1.374 . S
C451 C448 1.499 1_554 S
C451 C452 1.373 . S
C451 C453 1.389 . S
C452 H425 0.950 . S
C452 C438 1.377 . S
C452 C451 1.373 . S
C453 C437 1.377 . S
C453 C451 1.389 . S
C453 C454 1.524 1_554 S
C454 C453 1.524 1_556 S
C454 C455 1.397 . S
C454 C459 1.363 . S
C455 H426 0.950 . S
C455 C454 1.397 . S
C455 C456 1.334 . S
C456 H427 0.950 . S
C456 C455 1.334 . S
C456 C457 1.287 . S
C457 C456 1.287 . S
C457 C458 1.524 . S
C457 H460 0.999 . S
C458 H428 0.950 . S
C458 C457 1.524 . S
C458 C459 1.415 . S
C459 H429 0.950 . S
C459 C454 1.363 . S
C459 C458 1.415 . S
H460 C457 0.999 . S
H461 C442 0.913 . S
H462 C480 0.951 . S
H463 C482 0.951 . S
H464 C484 0.950 . S
H465 C485 0.950 . S
H466 C487 0.950 . S
H467 C490 0.950 . S
H468 C491 0.950 . S
H469 C493 0.950 . S
H470 C494 0.950 . S
H471 C495 0.951 . S
H472 C497 0.951 . S
H473 C499 0.950 . S
H474 C500 0.950 . S
H475 C502 0.950 . S
H476 C505 0.950 . S
H477 C506 0.950 . S
H478 C508 0.950 . S
H479 C509 0.950 . S
C480 H462 0.951 . S
C480 C481 1.366 . S
C480 C482 1.388 . S
C481 C480 1.366 . S
C481 C485 1.385 . S
C482 H463 0.951 . S
C482 C480 1.388 . S
C482 C483 1.366 . S
C483 C482 1.366 . S
C483 C484 1.414 . S
C483 C486 1.499 . S
C484 H464 0.950 . S
C484 C483 1.414 . S
C484 C485 1.374 . S
C485 H465 0.950 . S
C485 C481 1.385 . S
C485 C484 1.374 . S
C486 C483 1.499 . S
C486 C487 1.373 . S
C486 C488 1.389 . S
C487 H466 0.950 . S
C487 C486 1.373 . S
C487 C503 1.377 . S
C488 C486 1.389 . S
C488 C489 1.524 . S
C488 C502 1.377 . S
C489 C488 1.524 . S
C489 C490 1.397 . S
C489 C494 1.363 . S
C490 H467 0.950 . S
C490 C489 1.397 . S
C490 C491 1.334 . S
C491 H468 0.950 . S
C491 C490 1.334 . S
C491 C492 1.287 . S
C492 C491 1.287 . S
C492 C493 1.524 . S
C492 H511 0.913 . S
C493 H469 0.950 . S
C493 C492 1.524 . S
C493 C494 1.415 . S
C494 H470 0.950 . S
C494 C489 1.363 . S
C494 C493 1.415 . S
C495 H471 0.951 . S
C495 C496 1.366 . S
C495 C497 1.388 . S
C496 C495 1.366 . S
C496 C500 1.385 . S
C497 H472 0.951 . S
C497 C495 1.388 . S
C497 C498 1.366 . S
C498 C497 1.366 . S
C498 C499 1.414 . S
C498 C501 1.499 1_556 S
C499 H473 0.950 . S
C499 C498 1.414 . S
C499 C500 1.374 . S
C500 H474 0.950 . S
C500 C496 1.385 . S
C500 C499 1.374 . S
C501 C498 1.499 1_554 S
C501 C502 1.373 . S
C501 C503 1.389 . S
C502 H475 0.950 . S
C502 C488 1.377 . S
C502 C501 1.373 . S
C503 C487 1.377 . S
C503 C501 1.389 . S
C503 C504 1.524 1_554 S
C504 C503 1.524 1_556 S
C504 C505 1.397 . S
C504 C509 1.363 1_556 S
C505 H476 0.950 . S
C505 C504 1.397 . S
C505 C506 1.334 . S
C506 H477 0.950 . S
C506 C505 1.334 . S
C506 C507 1.287 . S
C507 C506 1.287 . S
C507 C508 1.524 . S
C507 H510 0.999 . S
C508 H478 0.950 . S
C508 C507 1.524 . S
C508 C509 1.415 1_556 S
C509 H479 0.950 . S
C509 C504 1.363 1_554 S
C509 C508 1.415 1_554 S
H510 C507 0.999 . S
H511 C492 0.913 . S
H512 C530 0.951 . S
H513 C532 0.951 . S
H514 C534 0.950 . S
H515 C535 0.950 . S
H516 C537 0.950 . S
H517 C540 0.950 . S
H518 C541 0.950 . S
H519 C543 0.950 . S
H520 C544 0.950 . S
H521 C545 0.951 . S
H522 C547 0.951 . S
H523 C549 0.950 . S
H524 C550 0.950 . S
H525 C552 0.950 . S
H526 C555 0.950 . S
H527 C556 0.950 . S
H528 C558 0.950 . S
H529 C559 0.950 . S
C530 H512 0.951 . S
C530 C531 1.366 . S
C530 C532 1.388 . S
C531 C530 1.366 . S
C531 C535 1.385 . S
C532 H513 0.951 . S
C532 C530 1.388 . S
C532 C533 1.366 . S
C533 C532 1.366 . S
C533 C534 1.414 . S
C533 C536 1.499 . S
C534 H514 0.950 . S
C534 C533 1.414 . S
C534 C535 1.374 . S
C535 H515 0.950 . S
C535 C531 1.385 . S
C535 C534 1.374 . S
C536 C533 1.499 . S
C536 C537 1.373 . S
C536 C538 1.389 . S
C537 H516 0.950 . S
C537 C536 1.373 . S
C537 C553 1.377 . S
C538 C536 1.389 . S
C538 C539 1.524 . S
C538 C552 1.377 . S
C539 C538 1.524 . S
C539 C540 1.397 . S
C539 C544 1.363 . S
C540 H517 0.950 . S
C540 C539 1.397 . S
C540 C541 1.334 . S
C541 H518 0.950 . S
C541 C540 1.334 . S
C541 C542 1.287 1_554 S
C542 C541 1.287 1_556 S
C542 C543 1.524 . S
C542 H561 0.913 . S
C543 H519 0.950 . S
C543 C542 1.524 . S
C543 C544 1.415 1_556 S
C544 H520 0.950 . S
C544 C539 1.363 . S
C544 C543 1.415 1_554 S
C545 H521 0.951 . S
C545 C546 1.366 . S
C545 C547 1.388 . S
C546 C545 1.366 . S
C546 C550 1.385 . S
C547 H522 0.951 . S
C547 C545 1.388 . S
C547 C548 1.366 . S
C548 C547 1.366 . S
C548 C549 1.414 . S
C548 C551 1.499 . S
C549 H523 0.950 . S
C549 C548 1.414 . S
C549 C550 1.374 . S
C550 H524 0.950 . S
C550 C546 1.385 . S
C550 C549 1.374 . S
C551 C548 1.499 . S
C551 C552 1.373 . S
C551 C553 1.389 . S
C552 H525 0.950 . S
C552 C538 1.377 . S
C552 C551 1.373 . S
C553 C537 1.377 . S
C553 C551 1.389 . S
C553 C554 1.524 . S
C554 C553 1.524 . S
C554 C555 1.397 . S
C554 C559 1.363 . S
C555 H526 0.950 . S
C555 C554 1.397 . S
C555 C556 1.334 . S
C556 H527 0.950 . S
C556 C555 1.334 . S
C556 C557 1.287 . S
C557 C556 1.287 . S
C557 C558 1.524 . S
C557 H560 0.999 . S
C558 H528 0.950 . S
C558 C557 1.524 . S
C558 C559 1.415 . S
C559 H529 0.950 . S
C559 C554 1.363 . S
C559 C558 1.415 . S
H560 C557 0.999 . S
H561 C542 0.913 . S
H562 C580 0.951 . S
H563 C582 0.951 . S
H564 C584 0.950 . S
H565 C585 0.950 . S
H566 C587 0.950 . S
H567 C590 0.950 . S
H568 C591 0.950 . S
H569 C593 0.950 . S
H570 C594 0.950 . S
H571 C595 0.951 . S
H572 C597 0.951 . S
H573 C599 0.950 . S
H574 C600 0.950 . S
H575 C602 0.950 . S
H576 C605 0.952 . S
H577 C606 0.950 . S
H578 C608 0.950 . S
H579 C609 0.950 . S
C580 H562 0.951 . S
C580 C581 1.366 . S
C580 C582 1.388 . S
C581 C580 1.366 . S
C581 C585 1.385 . S
C582 H563 0.951 . S
C582 C580 1.388 . S
C582 C583 1.366 . S
C583 C582 1.366 . S
C583 C584 1.414 . S
C583 C586 1.499 . S
C584 H564 0.950 . S
C584 C583 1.414 . S
C584 C585 1.374 . S
C585 H565 0.950 . S
C585 C581 1.385 . S
C585 C584 1.374 . S
C586 C583 1.499 . S
C586 C587 1.373 . S
C586 C588 1.389 . S
C587 H566 0.950 . S
C587 C586 1.373 . S
C587 C603 1.377 . S
C588 C586 1.389 . S
C588 C589 1.524 . S
C588 C602 1.377 . S
C589 C588 1.524 . S
C589 C590 1.397 . S
C589 C594 1.363 . S
C590 H567 0.950 . S
C590 C589 1.397 . S
C590 C591 1.334 . S
C591 H568 0.950 . S
C591 C590 1.334 . S
C591 C592 1.287 . S
C592 C591 1.287 . S
C592 C593 1.524 . S
C592 H611 0.913 . S
C593 H569 0.950 . S
C593 C592 1.524 . S
C593 C594 1.415 . S
C594 H570 0.950 . S
C594 C589 1.363 . S
C594 C593 1.415 . S
C595 H571 0.951 . S
C595 C596 1.366 . S
C595 C597 1.388 . S
C596 C595 1.366 . S
C596 C600 1.385 . S
C597 H572 0.951 . S
C597 C595 1.388 . S
C597 C598 1.366 . S
C598 C597 1.366 . S
C598 C599 1.414 . S
C598 C601 1.499 . S
C599 H573 0.950 . S
C599 C598 1.414 . S
C599 C600 1.374 . S
C600 H574 0.950 . S
C600 C596 1.385 . S
C600 C599 1.374 . S
C601 C598 1.499 . S
C601 C602 1.373 . S
C601 C603 1.389 . S
C602 H575 0.950 . S
C602 C588 1.377 . S
C602 C601 1.373 . S
C603 C587 1.377 . S
C603 C601 1.389 . S
C603 C604 1.524 . S
C604 C603 1.524 . S
C604 C605 1.397 1_554 S
C604 C609 1.363 . S
C605 H576 0.952 . S
C605 C604 1.397 1_556 S
C605 C606 1.334 . S
C606 H577 0.950 . S
C606 C605 1.334 . S
C606 C607 1.287 . S
C607 C606 1.287 . S
C607 C608 1.524 . S
C607 H610 0.999 . S
C608 H578 0.950 . S
C608 C607 1.524 . S
C608 C609 1.415 1_556 S
C609 H579 0.950 . S
C609 C604 1.363 . S
C609 C608 1.415 1_554 S
H610 C607 0.999 . S
H611 C592 0.913 . S
H612 C630 0.951 . S
H613 C632 0.951 . S
H614 C634 0.950 . S
H615 C635 0.950 . S
H616 C637 0.950 . S
H617 C640 0.950 . S
H618 C641 0.950 . S
H619 C643 0.950 . S
H620 C644 0.950 . S
H621 C645 0.951 . S
H622 C647 0.951 . S
H623 C649 0.950 . S
H624 C650 0.950 . S
H625 C652 0.950 . S
H626 C655 0.950 . S
H627 C656 0.950 . S
H628 C658 0.950 . S
H629 C659 0.950 . S
C630 H612 0.951 . S
C630 C631 1.366 . S
C630 C632 1.388 . S
C631 C630 1.366 . S
C631 C635 1.385 . S
C632 H613 0.951 . S
C632 C630 1.388 . S
C632 C633 1.366 . S
C633 C632 1.366 . S
C633 C634 1.414 . S
C633 C636 1.499 . S
C634 H614 0.950 . S
C634 C633 1.414 . S
C634 C635 1.374 . S
C635 H615 0.950 . S
C635 C631 1.385 . S
C635 C634 1.374 . S
C636 C633 1.499 . S
C636 C637 1.373 . S
C636 C638 1.389 . S
C637 H616 0.950 . S
C637 C636 1.373 . S
C637 C653 1.377 . S
C638 C636 1.389 . S
C638 C639 1.524 . S
C638 C652 1.377 . S
C639 C638 1.524 . S
C639 C640 1.397 . S
C639 C644 1.363 . S
C640 H617 0.950 . S
C640 C639 1.397 . S
C640 C641 1.334 . S
C641 H618 0.950 . S
C641 C640 1.334 . S
C641 C642 1.287 . S
C642 C641 1.287 . S
C642 C643 1.524 . S
C642 H661 0.913 . S
C643 H619 0.950 . S
C643 C642 1.524 . S
C643 C644 1.415 . S
C644 H620 0.950 . S
C644 C639 1.363 . S
C644 C643 1.415 . S
C645 H621 0.951 . S
C645 C646 1.366 . S
C645 C647 1.388 . S
C646 C645 1.366 . S
C646 C650 1.385 . S
C647 H622 0.951 . S
C647 C645 1.388 . S
C647 C648 1.366 . S
C648 C647 1.366 . S
C648 C649 1.414 . S
C648 C651 1.499 . S
C649 H623 0.950 . S
C649 C648 1.414 . S
C649 C650 1.374 . S
C650 H624 0.950 . S
C650 C646 1.385 . S
C650 C649 1.374 . S
C651 C648 1.499 . S
C651 C652 1.373 . S
C651 C653 1.389 . S
C652 H625 0.950 . S
C652 C638 1.377 . S
C652 C651 1.373 . S
C653 C637 1.377 . S
C653 C651 1.389 . S
C653 C654 1.524 . S
C654 C653 1.524 . S
C654 C655 1.397 . S
C654 C659 1.363 . S
C655 H626 0.950 . S
C655 C654 1.397 . S
C655 C656 1.334 . S
C656 H627 0.950 . S
C656 C655 1.334 . S
C656 C657 1.287 . S
C657 C656 1.287 . S
C657 C658 1.524 . S
C657 H660 0.999 . S
C658 H628 0.950 . S
C658 C657 1.524 . S
C658 C659 1.415 . S
C659 H629 0.950 . S
C659 C654 1.363 . S
C659 C658 1.415 . S
H660 C657 0.999 . S
H661 C642 0.913 . S
H662 C680 0.951 . S
H663 C682 0.951 . S
H664 C684 0.950 . S
H665 C685 0.950 . S
H666 C687 0.950 . S
H667 C690 0.950 . S
H668 C691 0.950 . S
H669 C693 0.950 . S
H670 C694 0.950 . S
H671 C695 0.951 . S
H672 C697 0.951 . S
H673 C699 0.950 . S
H674 C700 0.950 . S
H675 C702 0.950 . S
H676 C705 0.950 . S
H677 C706 0.950 . S
H678 C708 0.950 . S
H679 C709 0.950 . S
C680 H662 0.951 . S
C680 C681 1.366 . S
C680 C682 1.388 . S
C681 C680 1.366 . S
C681 C685 1.385 . S
C682 H663 0.951 . S
C682 C680 1.388 . S
C682 C683 1.366 . S
C683 C682 1.366 . S
C683 C684 1.414 . S
C683 C686 1.499 . S
C684 H664 0.950 . S
C684 C683 1.414 . S
C684 C685 1.374 . S
C685 H665 0.950 . S
C685 C681 1.385 . S
C685 C684 1.374 . S
C686 C683 1.499 . S
C686 C687 1.373 . S
C686 C688 1.389 . S
C687 H666 0.950 . S
C687 C686 1.373 . S
C687 C703 1.377 . S
C688 C686 1.389 . S
C688 C689 1.524 . S
C688 C702 1.377 . S
C689 C688 1.524 . S
C689 C690 1.397 . S
C689 C694 1.363 . S
C690 H667 0.950 . S
C690 C689 1.397 . S
C690 C691 1.334 . S
C691 H668 0.950 . S
C691 C690 1.334 . S
C691 C692 1.287 . S
C692 C691 1.287 . S
C692 C693 1.524 . S
C692 H711 0.913 . S
C693 H669 0.950 . S
C693 C692 1.524 . S
C693 C694 1.415 . S
C694 H670 0.950 . S
C694 C689 1.363 . S
C694 C693 1.415 . S
C695 H671 0.951 . S
C695 C696 1.366 . S
C695 C697 1.388 . S
C696 C695 1.366 . S
C696 C700 1.385 . S
C697 H672 0.951 . S
C697 C695 1.388 . S
C697 C698 1.366 . S
C698 C697 1.366 . S
C698 C699 1.414 . S
C698 C701 1.499 . S
C699 H673 0.950 . S
C699 C698 1.414 . S
C699 C700 1.374 . S
C700 H674 0.950 . S
C700 C696 1.385 . S
C700 C699 1.374 . S
C701 C698 1.499 . S
C701 C702 1.373 . S
C701 C703 1.389 . S
C702 H675 0.950 . S
C702 C688 1.377 . S
C702 C701 1.373 . S
C703 C687 1.377 . S
C703 C701 1.389 . S
C703 C704 1.524 . S
C704 C703 1.524 . S
C704 C705 1.397 . S
C704 C709 1.363 . S
C705 H676 0.950 . S
C705 C704 1.397 . S
C705 C706 1.334 . S
C706 H677 0.950 . S
C706 C705 1.334 . S
C706 C707 1.287 . S
C707 C706 1.287 . S
C707 C708 1.524 . S
C707 H710 0.999 . S
C708 H678 0.950 . S
C708 C707 1.524 . S
C708 C709 1.415 . S
C709 H679 0.950 . S
C709 C704 1.363 . S
C709 C708 1.415 . S
H710 C707 0.999 . S
H711 C692 0.913 . S
H712 C730 0.951 . S
H713 C732 0.951 . S
H714 C734 0.950 . S
H715 C735 0.950 . S
H716 C737 0.950 . S
H717 C740 0.950 . S
H718 C741 0.950 . S
H719 C743 0.950 . S
H720 C744 0.950 . S
H721 C745 0.951 . S
H722 C747 0.951 . S
H723 C749 0.950 . S
H724 C750 0.950 . S
H725 C752 0.950 . S
H726 C755 0.950 . S
H727 C756 0.950 . S
H728 C758 0.950 . S
H729 C759 0.950 . S
C730 H712 0.951 . S
C730 C731 1.366 . S
C730 C732 1.388 . S
C731 C730 1.366 . S
C731 C735 1.385 . S
C732 H713 0.951 . S
C732 C730 1.388 . S
C732 C733 1.366 . S
C733 C732 1.366 . S
C733 C734 1.414 . S
C733 C736 1.499 . S
C734 H714 0.950 . S
C734 C733 1.414 . S
C734 C735 1.374 . S
C735 H715 0.950 . S
C735 C731 1.385 . S
C735 C734 1.374 . S
C736 C733 1.499 . S
C736 C737 1.373 . S
C736 C738 1.389 . S
C737 H716 0.950 . S
C737 C736 1.373 . S
C737 C753 1.377 . S
C738 C736 1.389 . S
C738 C739 1.524 . S
C738 C752 1.377 . S
C739 C738 1.524 . S
C739 C740 1.397 . S
C739 C744 1.363 . S
C740 H717 0.950 . S
C740 C739 1.397 . S
C740 C741 1.334 . S
C741 H718 0.950 . S
C741 C740 1.334 . S
C741 C742 1.287 . S
C742 C741 1.287 . S
C742 C743 1.524 . S
C742 H761 0.913 . S
C743 H719 0.950 . S
C743 C742 1.524 . S
C743 C744 1.415 . S
C744 H720 0.950 . S
C744 C739 1.363 . S
C744 C743 1.415 . S
C745 H721 0.951 . S
C745 C746 1.366 . S
C745 C747 1.388 . S
C746 C745 1.366 . S
C746 C750 1.385 . S
C747 H722 0.951 . S
C747 C745 1.388 . S
C747 C748 1.366 . S
C748 C747 1.366 . S
C748 C749 1.414 . S
C748 C751 1.499 . S
C749 H723 0.950 . S
C749 C748 1.414 . S
C749 C750 1.374 . S
C750 H724 0.950 . S
C750 C746 1.385 . S
C750 C749 1.374 . S
C751 C748 1.499 . S
C751 C752 1.373 . S
C751 C753 1.389 . S
C752 H725 0.950 . S
C752 C738 1.377 . S
C752 C751 1.373 . S
C753 C737 1.377 . S
C753 C751 1.389 . S
C753 C754 1.524 . S
C754 C753 1.524 . S
C754 C755 1.397 . S
C754 C759 1.363 . S
C755 H726 0.950 . S
C755 C754 1.397 . S
C755 C756 1.334 . S
C756 H727 0.950 . S
C756 C755 1.334 . S
C756 C757 1.287 . S
C757 C756 1.287 . S
C757 C758 1.524 . S
C757 H760 0.999 . S
C758 H728 0.950 . S
C758 C757 1.524 . S
C758 C759 1.415 . S
C759 H729 0.950 . S
C759 C754 1.363 . S
C759 C758 1.415 . S
H760 C757 0.999 . S
H761 C742 0.913 . S
H762 C780 0.951 . S
H763 C782 0.951 . S
H764 C784 0.950 . S
H765 C785 0.950 . S
H766 C787 0.950 . S
H767 C790 0.950 . S
H768 C791 0.950 . S
H769 C793 0.950 . S
H770 C794 0.950 . S
H771 C795 0.951 . S
H772 C797 0.951 . S
H773 C799 0.950 . S
H774 C800 0.950 . S
H775 C802 0.950 . S
H776 C805 0.950 . S
H777 C806 0.950 . S
H778 C808 0.950 . S
H779 C809 0.950 . S
C780 H762 0.951 . S
C780 C781 1.366 . S
C780 C782 1.388 . S
C781 C780 1.366 . S
C781 C785 1.385 . S
C782 H763 0.951 . S
C782 C780 1.388 . S
C782 C783 1.366 . S
C783 C782 1.366 . S
C783 C784 1.414 . S
C783 C786 1.499 . S
C784 H764 0.950 . S
C784 C783 1.414 . S
C784 C785 1.374 . S
C785 H765 0.950 . S
C785 C781 1.385 . S
C785 C784 1.374 . S
C786 C783 1.499 . S
C786 C787 1.373 . S
C786 C788 1.389 . S
C787 H766 0.950 . S
C787 C786 1.373 . S
C787 C803 1.377 . S
C788 C786 1.389 . S
C788 C789 1.524 . S
C788 C802 1.377 . S
C789 C788 1.524 . S
C789 C790 1.397 . S
C789 C794 1.363 1_455 S
C790 H767 0.950 . S
C790 C789 1.397 . S
C790 C791 1.334 1_455 S
C791 H768 0.950 . S
C791 C790 1.334 1_655 S
C791 C792 1.287 . S
C792 C791 1.287 . S
C792 C793 1.524 . S
C792 H811 0.913 . S
C793 H769 0.950 . S
C793 C792 1.524 . S
C793 C794 1.415 . S
C794 H770 0.950 . S
C794 C789 1.363 1_655 S
C794 C793 1.415 . S
C795 H771 0.951 . S
C795 C796 1.366 . S
C795 C797 1.388 . S
C796 C795 1.366 . S
C796 C800 1.385 . S
C797 H772 0.951 . S
C797 C795 1.388 . S
C797 C798 1.366 . S
C798 C797 1.366 . S
C798 C799 1.414 . S
C798 C801 1.499 . S
C799 H773 0.950 . S
C799 C798 1.414 . S
C799 C800 1.374 . S
C800 H774 0.950 . S
C800 C796 1.385 . S
C800 C799 1.374 . S
C801 C798 1.499 . S
C801 C802 1.373 . S
C801 C803 1.389 . S
C802 H775 0.950 . S
C802 C788 1.377 . S
C802 C801 1.373 . S
C803 C787 1.377 . S
C803 C801 1.389 . S
C803 C804 1.524 . S
C804 C803 1.524 . S
C804 C805 1.397 . S
C804 C809 1.363 . S
C805 H776 0.950 . S
C805 C804 1.397 . S
C805 C806 1.334 . S
C806 H777 0.950 . S
C806 C805 1.334 . S
C806 C807 1.287 . S
C807 C806 1.287 . S
C807 C808 1.524 . S
C807 H810 0.999 . S
C808 H778 0.950 . S
C808 C807 1.524 . S
C808 C809 1.415 . S
C809 H779 0.950 . S
C809 C804 1.363 . S
C809 C808 1.415 . S
H810 C807 0.999 . S
H811 C792 0.913 . S
H812 C830 0.951 . S
H813 C832 0.951 . S
H814 C834 0.950 . S
H815 C835 0.950 . S
H816 C837 0.950 . S
H817 C840 0.950 . S
H818 C841 0.953 . S
H819 C843 0.950 . S
H820 C844 0.950 . S
H821 C845 0.951 . S
H822 C847 0.951 . S
H823 C849 0.950 1_565 S
H824 C850 0.950 . S
H825 C852 0.950 . S
H826 C855 0.931 1_565 S
H827 C856 0.950 . S
H828 C858 0.950 . S
H829 C859 0.950 . S
C830 H812 0.951 . S
C830 C831 1.366 . S
C830 C832 1.388 . S
C831 C830 1.366 . S
C831 C835 1.385 . S
C832 H813 0.951 . S
C832 C830 1.388 . S
C832 C833 1.366 . S
C833 C832 1.366 . S
C833 C834 1.414 . S
C833 C836 1.499 . S
C834 H814 0.950 . S
C834 C833 1.414 . S
C834 C835 1.374 . S
C835 H815 0.950 . S
C835 C831 1.385 . S
C835 C834 1.374 . S
C836 C833 1.499 . S
C836 C837 1.373 . S
C836 C838 1.389 . S
C837 H816 0.950 . S
C837 C836 1.373 . S
C837 C853 1.377 . S
C838 C836 1.389 . S
C838 C839 1.524 . S
C838 C852 1.377 . S
C839 C838 1.524 . S
C839 C840 1.397 . S
C839 C844 1.363 . S
C840 H817 0.950 . S
C840 C839 1.397 . S
C840 C841 1.322 1_655 S
C841 H818 0.953 . S
C841 C840 1.322 1_455 S
C841 C842 1.296 . S
C842 C841 1.296 . S
C842 C843 1.524 . S
C842 H861 0.913 . S
C843 H819 0.950 . S
C843 C842 1.524 . S
C843 C844 1.415 1_455 S
C844 H820 0.950 . S
C844 C839 1.363 . S
C844 C843 1.415 1_655 S
C845 H821 0.951 . S
C845 C846 1.366 . S
C845 C847 1.388 . S
C846 C845 1.366 . S
C846 C850 1.385 . S
C847 H822 0.951 . S
C847 C845 1.388 . S
C847 C848 1.366 . S
C848 C847 1.366 . S
C848 C849 1.414 . S
C848 C851 1.499 1_545 S
C849 H823 0.950 1_545 S
C849 C848 1.414 . S
C849 C850 1.374 . S
C850 H824 0.950 . S
C850 C846 1.385 . S
C850 C849 1.374 . S
C851 C848 1.499 1_565 S
C851 C852 1.373 . S
C851 C853 1.389 . S
C852 H825 0.950 . S
C852 C838 1.377 . S
C852 C851 1.373 . S
C853 C837 1.377 . S
C853 C851 1.389 . S
C853 C854 1.524 1_565 S
C854 C853 1.524 1_545 S
C854 C855 1.397 . S
C854 C859 1.363 . S
C855 H826 0.931 1_545 S
C855 C854 1.397 . S
C855 C856 1.334 . S
C856 H827 0.950 . S
C856 C855 1.334 . S
C856 C857 1.287 . S
C857 C856 1.287 . S
C857 C858 1.524 . S
C857 H860 0.999 . S
C858 H828 0.950 . S
C858 C857 1.524 . S
C858 C859 1.415 . S
C859 H829 0.950 . S
C859 C854 1.363 . S
C859 C858 1.415 . S
H860 C857 0.999 . S
H861 C842 0.913 . S
H862 C880 0.951 . S
H863 C882 0.951 . S
H864 C884 0.950 . S
H865 C885 0.950 . S
H866 C887 0.950 . S
H867 C890 0.950 . S
H868 C891 0.950 . S
H869 C893 0.950 . S
H870 C894 0.950 . S
H871 C895 0.951 . S
H872 C897 0.951 . S
H873 C899 0.950 . S
H874 C900 0.950 . S
H875 C902 0.950 . S
H876 C905 0.950 . S
H877 C906 0.950 . S
H878 C908 0.950 . S
H879 C909 0.950 . S
C880 H862 0.951 . S
C880 C881 1.366 . S
C880 C882 1.388 . S
C881 C880 1.366 . S
C881 C885 1.385 . S
C882 H863 0.951 . S
C882 C880 1.388 . S
C882 C883 1.366 . S
C883 C882 1.366 . S
C883 C884 1.414 . S
C883 C886 1.499 . S
C884 H864 0.950 . S
C884 C883 1.414 . S
C884 C885 1.374 . S
C885 H865 0.950 . S
C885 C881 1.385 . S
C885 C884 1.374 . S
C886 C883 1.499 . S
C886 C887 1.373 . S
C886 C888 1.389 . S
C887 H866 0.950 . S
C887 C886 1.373 . S
C887 C903 1.377 . S
C888 C886 1.389 . S
C888 C889 1.524 . S
C888 C902 1.377 . S
C889 C888 1.524 . S
C889 C890 1.397 . S
C889 C894 1.363 . S
C890 H867 0.950 . S
C890 C889 1.397 . S
C890 C891 1.334 . S
C891 H868 0.950 . S
C891 C890 1.334 . S
C891 C892 1.287 . S
C892 C891 1.287 . S
C892 C893 1.524 . S
C892 H911 0.913 . S
C893 H869 0.950 . S
C893 C892 1.524 . S
C893 C894 1.415 . S
C894 H870 0.950 . S
C894 C889 1.363 . S
C894 C893 1.415 . S
C895 H871 0.951 . S
C895 C896 1.366 . S
C895 C897 1.388 . S
C896 C895 1.366 . S
C896 C900 1.385 . S
C897 H872 0.951 . S
C897 C895 1.388 . S
C897 C898 1.366 . S
C898 C897 1.366 . S
C898 C899 1.414 . S
C898 C901 1.499 . S
C899 H873 0.950 . S
C899 C898 1.414 . S
C899 C900 1.374 . S
C900 H874 0.950 . S
C900 C896 1.385 . S
C900 C899 1.374 . S
C901 C898 1.499 . S
C901 C902 1.373 . S
C901 C903 1.389 . S
C902 H875 0.950 . S
C902 C888 1.377 . S
C902 C901 1.373 . S
C903 C887 1.377 . S
C903 C901 1.389 . S
C903 C904 1.524 . S
C904 C903 1.524 . S
C904 C905 1.397 . S
C904 C909 1.363 . S
C905 H876 0.950 . S
C905 C904 1.397 . S
C905 C906 1.334 . S
C906 H877 0.950 . S
C906 C905 1.334 . S
C906 C907 1.287 . S
C907 C906 1.287 . S
C907 C908 1.524 . S
C907 H910 0.999 . S
C908 H878 0.950 . S
C908 C907 1.524 . S
C908 C909 1.415 . S
C909 H879 0.950 . S
C909 C904 1.363 . S
C909 C908 1.415 . S
H910 C907 0.999 . S
H911 C892 0.913 . S
H912 C930 0.951 . S
H913 C932 0.951 . S
H914 C934 0.950 . S
H915 C935 0.950 . S
H916 C937 0.950 . S
H917 C940 0.950 . S
H918 C941 0.950 . S
H919 C943 0.950 . S
H920 C944 0.950 1_556 S
H921 C945 0.951 . S
H922 C947 0.951 . S
H923 C949 0.950 . S
H924 C950 0.950 . S
H925 C952 0.950 . S
H926 C955 0.950 . S
H927 C956 0.950 . S
H928 C958 0.950 . S
H929 C959 0.950 . S
C930 H912 0.951 . S
C930 C931 1.366 . S
C930 C932 1.388 . S
C931 C930 1.366 . S
C931 C935 1.385 . S
C932 H913 0.951 . S
C932 C930 1.388 . S
C932 C933 1.366 . S
C933 C932 1.366 . S
C933 C934 1.414 . S
C933 C936 1.499 1_554 S
C934 H914 0.950 . S
C934 C933 1.414 . S
C934 C935 1.374 . S
C935 H915 0.950 . S
C935 C931 1.385 . S
C935 C934 1.374 . S
C936 C933 1.499 1_556 S
C936 C937 1.373 . S
C936 C938 1.389 . S
C937 H916 0.950 . S
C937 C936 1.373 . S
C937 C953 1.377 . S
C938 C936 1.389 . S
C938 C939 1.524 1_556 S
C938 C952 1.377 . S
C939 C938 1.524 1_554 S
C939 C940 1.397 . S
C939 C944 1.363 . S
C940 H917 0.950 . S
C940 C939 1.397 . S
C940 C941 1.334 . S
C941 H918 0.950 . S
C941 C940 1.334 . S
C941 C942 1.287 . S
C942 C941 1.287 . S
C942 C943 1.524 . S
C942 H961 0.913 . S
C943 H919 0.950 . S
C943 C942 1.524 . S
C943 C944 1.415 . S
C944 H920 0.950 1_554 S
C944 C939 1.363 . S
C944 C943 1.415 . S
C945 H921 0.951 . S
C945 C946 1.366 . S
C945 C947 1.388 . S
C946 C945 1.366 . S
C946 C950 1.385 . S
C947 H922 0.951 . S
C947 C945 1.388 . S
C947 C948 1.366 . S
C948 C947 1.366 . S
C948 C949 1.414 . S
C948 C951 1.499 . S
C949 H923 0.950 . S
C949 C948 1.414 . S
C949 C950 1.374 . S
C950 H924 0.950 . S
C950 C946 1.385 . S
C950 C949 1.374 . S
C951 C948 1.499 . S
C951 C952 1.373 . S
C951 C953 1.389 . S
C952 H925 0.950 . S
C952 C938 1.377 . S
C952 C951 1.373 . S
C953 C937 1.377 . S
C953 C951 1.389 . S
C953 C954 1.524 . S
C954 C953 1.524 . S
C954 C955 1.397 . S
C954 C959 1.363 . S
C955 H926 0.950 . S
C955 C954 1.397 . S
C955 C956 1.334 . S
C956 H927 0.950 . S
C956 C955 1.334 . S
C956 C957 1.287 . S
C957 C956 1.287 . S
C957 C958 1.524 . S
C957 H960 0.999 . S
C958 H928 0.950 . S
C958 C957 1.524 . S
C958 C959 1.415 . S
C959 H929 0.950 . S
C959 C954 1.363 . S
C959 C958 1.415 . S
H960 C957 0.999 . S
H961 C942 0.913 . S
H962 C980 0.942 1_545 S
H963 C982 0.951 . S
H964 C984 0.950 . S
H965 C985 0.950 . S
H966 C987 0.950 1_554 S
H967 C990 0.950 . S
H968 C991 0.950 . S
H969 C993 0.950 1_545 S
H970 C994 0.950 . S
H971 C995 0.951 . S
H972 C997 0.951 . S
H973 C999 0.950 . S
H974 C1000 0.950 . S
H975 C1002 0.950 . S
H976 C1005 0.950 . S
H977 C1006 0.950 . S
H978 C1008 0.950 1_554 S
H979 C1009 0.950 . S
C980 H962 0.942 1_565 S
C980 C981 1.366 . S
C980 C982 1.388 . S
C981 C980 1.366 . S
C981 C985 1.385 . S
C982 H963 0.951 . S
C982 C980 1.388 . S
C982 C983 1.366 . S
C983 C982 1.366 . S
C983 C984 1.414 . S
C983 C986 1.499 1_554 S
C984 H964 0.950 . S
C984 C983 1.414 . S
C984 C985 1.374 . S
C985 H965 0.950 . S
C985 C981 1.385 . S
C985 C984 1.374 . S
C986 C983 1.499 1_556 S
C986 C987 1.373 . S
C986 C988 1.389 . S
C987 H966 0.950 1_556 S
C987 C986 1.373 . S
C987 C1003 1.377 . S
C988 C986 1.389 . S
C988 C989 1.524 . S
C988 C1002 1.377 . S
C989 C988 1.524 . S
C989 C990 1.397 . S
C989 C994 1.363 . S
C990 H967 0.950 . S
C990 C989 1.397 . S
C990 C991 1.334 . S
C991 H968 0.950 . S
C991 C990 1.334 . S
C991 C992 1.287 . S
C992 C991 1.287 . S
C992 C993 1.524 . S
C992 H1011 0.913 . S
C993 H969 0.950 1_565 S
C993 C992 1.524 . S
C993 C994 1.415 . S
C994 H970 0.950 . S
C994 C989 1.363 . S
C994 C993 1.415 . S
C995 H971 0.951 . S
C995 C996 1.366 . S
C995 C997 1.388 . S
C996 C995 1.366 . S
C996 C1000 1.385 . S
C997 H972 0.951 . S
C997 C995 1.388 . S
C997 C998 1.366 . S
C998 C997 1.366 . S
C998 C999 1.414 . S
C998 C1001 1.499 . S
C999 H973 0.950 . S
C999 C998 1.414 . S
C999 C1000 1.374 . S
C1000 H974 0.950 . S
C1000 C996 1.385 . S
C1000 C999 1.374 . S
C1001 C998 1.499 . S
C1001 C1002 1.373 . S
C1001 C1003 1.389 . S
C1002 H975 0.950 . S
C1002 C988 1.377 . S
C1002 C1001 1.373 . S
C1003 C987 1.377 . S
C1003 C1001 1.389 . S
C1003 C1004 1.524 . S
C1004 C1003 1.524 . S
C1004 C1005 1.397 . S
C1004 C1009 1.363 . S
C1005 H976 0.950 . S
C1005 C1004 1.397 . S
C1005 C1006 1.334 . S
C1006 H977 0.950 . S
C1006 C1005 1.334 . S
C1006 C1007 1.287 . S
C1007 C1006 1.287 . S
C1007 C1008 1.524 . S
C1007 H1010 0.999 . S
C1008 H978 0.950 1_556 S
C1008 C1007 1.524 . S
C1008 C1009 1.415 . S
C1009 H979 0.950 . S
C1009 C1004 1.363 . S
C1009 C1008 1.415 . S
H1010 C1007 0.999 . S
H1011 C992 0.913 . S
H1012 C1030 0.951 . S
H1013 C1032 0.951 . S
H1014 C1034 0.950 . S
H1015 C1035 0.950 . S
H1016 C1037 0.950 . S
H1017 C1040 0.950 . S
H1018 C1041 0.950 . S
H1019 C1043 0.950 . S
H1020 C1044 0.950 . S
H1021 C1045 0.951 . S
H1022 C1047 0.951 . S
H1023 C1049 0.950 . S
H1024 C1050 0.950 . S
H1025 C1052 0.950 . S
H1026 C1055 0.950 . S
H1027 C1056 0.950 . S
H1028 C1058 0.950 . S
H1029 C1059 0.950 . S
C1030 H1012 0.951 . S
C1030 C1031 1.366 . S
C1030 C1032 1.388 . S
C1031 C1030 1.366 . S
C1031 C1035 1.385 . S
C1032 H1013 0.951 . S
C1032 C1030 1.388 . S
C1032 C1033 1.366 . S
C1033 C1032 1.366 . S
C1033 C1034 1.414 . S
C1033 C1036 1.499 . S
C1034 H1014 0.950 . S
C1034 C1033 1.414 . S
C1034 C1035 1.374 . S
C1035 H1015 0.950 . S
C1035 C1031 1.385 . S
C1035 C1034 1.374 . S
C1036 C1033 1.499 . S
C1036 C1037 1.373 . S
C1036 C1038 1.389 . S
C1037 H1016 0.950 . S
C1037 C1036 1.373 . S
C1037 C1053 1.377 . S
C1038 C1036 1.389 . S
C1038 C1039 1.524 . S
C1038 C1052 1.377 . S
C1039 C1038 1.524 . S
C1039 C1040 1.397 . S
C1039 C1044 1.363 . S
C1040 H1017 0.950 . S
C1040 C1039 1.397 . S
C1040 C1041 1.334 . S
C1041 H1018 0.950 . S
C1041 C1040 1.334 . S
C1041 C1042 1.287 . S
C1042 C1041 1.287 . S
C1042 C1043 1.524 . S
C1042 H1061 0.913 . S
C1043 H1019 0.950 . S
C1043 C1042 1.524 . S
C1043 C1044 1.415 . S
C1044 H1020 0.950 . S
C1044 C1039 1.363 . S
C1044 C1043 1.415 . S
C1045 H1021 0.951 . S
C1045 C1046 1.366 . S
C1045 C1047 1.388 . S
C1046 C1045 1.366 . S
C1046 C1050 1.385 . S
C1047 H1022 0.951 . S
C1047 C1045 1.388 . S
C1047 C1048 1.366 . S
C1048 C1047 1.366 . S
C1048 C1049 1.414 . S
C1048 C1051 1.499 . S
C1049 H1023 0.950 . S
C1049 C1048 1.414 . S
C1049 C1050 1.374 . S
C1050 H1024 0.950 . S
C1050 C1046 1.385 . S
C1050 C1049 1.374 . S
C1051 C1048 1.499 . S
C1051 C1052 1.373 . S
C1051 C1053 1.389 . S
C1052 H1025 0.950 . S
C1052 C1038 1.377 . S
C1052 C1051 1.373 . S
C1053 C1037 1.377 . S
C1053 C1051 1.389 . S
C1053 C1054 1.524 . S
C1054 C1053 1.524 . S
C1054 C1055 1.397 . S
C1054 C1059 1.363 . S
C1055 H1026 0.950 . S
C1055 C1054 1.397 . S
C1055 C1056 1.334 . S
C1056 H1027 0.950 . S
C1056 C1055 1.334 . S
C1056 C1057 1.287 . S
C1057 C1056 1.287 . S
C1057 C1058 1.524 . S
C1057 H1060 0.999 . S
C1058 H1028 0.950 . S
C1058 C1057 1.524 . S
C1058 C1059 1.415 . S
C1059 H1029 0.950 . S
C1059 C1054 1.363 . S
C1059 C1058 1.415 . S
H1060 C1057 0.999 . S
H1061 C1042 0.913 . S
H1062 C1080 0.951 . S
H1063 C1082 0.951 . S
H1064 C1084 0.950 . S
H1065 C1085 0.950 . S
H1066 C1087 0.950 . S
H1067 C1090 0.950 . S
H1068 C1091 0.950 . S
H1069 C1093 0.950 . S
H1070 C1094 0.933 1_565 S
H1071 C1095 0.951 . S
H1072 C1097 0.951 . S
H1073 C1099 0.950 . S
H1074 C1100 0.950 1_565 S
H1075 C1102 0.950 . S
H1076 C1105 0.950 . S
H1077 C1106 0.950 . S
H1078 C1108 0.950 . S
H1079 C1109 0.950 . S
C1080 H1062 0.951 . S
C1080 C1081 1.366 . S
C1080 C1082 1.388 . S
C1081 C1080 1.366 . S
C1081 C1085 1.385 . S
C1082 H1063 0.951 . S
C1082 C1080 1.388 . S
C1082 C1083 1.366 . S
C1083 C1082 1.366 . S
C1083 C1084 1.414 . S
C1083 C1086 1.499 . S
C1084 H1064 0.950 . S
C1084 C1083 1.414 . S
C1084 C1085 1.374 . S
C1085 H1065 0.950 . S
C1085 C1081 1.385 . S
C1085 C1084 1.374 . S
C1086 C1083 1.499 . S
C1086 C1087 1.373 . S
C1086 C1088 1.389 . S
C1087 H1066 0.950 . S
C1087 C1086 1.373 . S
C1087 C1103 1.377 . S
C1088 C1086 1.389 . S
C1088 C1089 1.524 . S
C1088 C1102 1.377 . S
C1089 C1088 1.524 . S
C1089 C1090 1.397 . S
C1089 C1094 1.363 . S
C1090 H1067 0.950 . S
C1090 C1089 1.397 . S
C1090 C1091 1.334 . S
C1091 H1068 0.950 . S
C1091 C1090 1.334 . S
C1091 C1092 1.287 . S
C1092 C1091 1.287 . S
C1092 C1093 1.524 1_545 S
C1092 H1111 0.913 . S
C1093 H1069 0.950 . S
C1093 C1092 1.524 1_565 S
C1093 C1094 1.415 1_565 S
C1094 H1070 0.933 1_545 S
C1094 C1089 1.363 . S
C1094 C1093 1.415 1_545 S
C1095 H1071 0.951 . S
C1095 C1096 1.366 . S
C1095 C1097 1.388 . S
C1096 C1095 1.366 . S
C1096 C1100 1.385 . S
C1097 H1072 0.951 . S
C1097 C1095 1.388 . S
C1097 C1098 1.366 . S
C1098 C1097 1.366 . S
C1098 C1099 1.414 . S
C1098 C1101 1.499 . S
C1099 H1073 0.950 . S
C1099 C1098 1.414 . S
C1099 C1100 1.374 . S
C1100 H1074 0.950 1_545 S
C1100 C1096 1.385 . S
C1100 C1099 1.374 . S
C1101 C1098 1.499 . S
C1101 C1102 1.373 . S
C1101 C1103 1.389 . S
C1102 H1075 0.950 . S
C1102 C1088 1.377 . S
C1102 C1101 1.373 . S
C1103 C1087 1.377 . S
C1103 C1101 1.389 . S
C1103 C1104 1.524 . S
C1104 C1103 1.524 . S
C1104 C1105 1.397 . S
C1104 C1109 1.363 . S
C1105 H1076 0.950 . S
C1105 C1104 1.397 . S
C1105 C1106 1.334 . S
C1106 H1077 0.950 . S
C1106 C1105 1.334 . S
C1106 C1107 1.287 . S
C1107 C1106 1.287 . S
C1107 C1108 1.524 . S
C1107 H1110 0.999 . S
C1108 H1078 0.950 . S
C1108 C1107 1.524 . S
C1108 C1109 1.415 . S
C1109 H1079 0.950 . S
C1109 C1104 1.363 . S
C1109 C1108 1.415 . S
H1110 C1107 0.999 . S
H1111 C1092 0.913 . S
H1112 C1130 0.951 . S
H1113 C1132 0.951 . S
H1114 C1134 0.950 . S
H1115 C1135 0.950 . S
H1116 C1137 0.950 . S
H1117 C1140 0.950 . S
H1118 C1141 0.950 . S
H1119 C1143 0.950 . S
H1120 C1144 0.950 . S
H1121 C1145 0.951 . S
H1122 C1147 0.951 . S
H1123 C1149 0.950 . S
H1124 C1150 0.950 . S
H1125 C1152 0.950 . S
H1126 C1155 0.950 . S
H1127 C1156 0.950 . S
H1128 C1158 0.950 . S
H1129 C1159 0.950 . S
C1130 H1112 0.951 . S
C1130 C1131 1.366 . S
C1130 C1132 1.388 . S
C1131 C1130 1.366 . S
C1131 C1135 1.385 . S
C1132 H1113 0.951 . S
C1132 C1130 1.388 . S
C1132 C1133 1.366 . S
C1133 C1132 1.366 . S
C1133 C1134 1.414 . S
C1133 C1136 1.499 1_455 S
C1134 H1114 0.950 . S
C1134 C1133 1.414 . S
C1134 C1135 1.374 . S
C1135 H1115 0.950 . S
C1135 C1131 1.385 . S
C1135 C1134 1.374 . S
C1136 C1133 1.499 1_655 S
C1136 C1137 1.373 . S
C1136 C1138 1.389 . S
C1137 H1116 0.950 . S
C1137 C1136 1.373 . S
C1137 C1153 1.377 . S
C1138 C1136 1.389 . S
C1138 C1139 1.524 . S
C1138 C1152 1.377 . S
C1139 C1138 1.524 . S
C1139 C1140 1.397 . S
C1139 C1144 1.363 . S
C1140 H1117 0.950 . S
C1140 C1139 1.397 . S
C1140 C1141 1.334 1_655 S
C1141 H1118 0.950 . S
C1141 C1140 1.334 1_455 S
C1141 C1142 1.287 . S
C1142 C1141 1.287 . S
C1142 C1143 1.524 . S
C1142 H1161 0.913 . S
C1143 H1119 0.950 . S
C1143 C1142 1.524 . S
C1143 C1144 1.415 1_455 S
C1144 H1120 0.950 . S
C1144 C1139 1.363 . S
C1144 C1143 1.415 1_655 S
C1145 H1121 0.951 . S
C1145 C1146 1.366 . S
C1145 C1147 1.388 . S
C1146 C1145 1.366 . S
C1146 C1150 1.385 . S
C1147 H1122 0.951 . S
C1147 C1145 1.388 . S
C1147 C1148 1.366 . S
C1148 C1147 1.366 . S
C1148 C1149 1.414 . S
C1148 C1151 1.499 . S
C1149 H1123 0.950 . S
C1149 C1148 1.414 . S
C1149 C1150 1.374 . S
C1150 H1124 0.950 . S
C1150 C1146 1.385 . S
C1150 C1149 1.374 . S
C1151 C1148 1.499 . S
C1151 C1152 1.373 . S
C1151 C1153 1.389 . S
C1152 H1125 0.950 . S
C1152 C1138 1.377 . S
C1152 C1151 1.373 . S
C1153 C1137 1.377 . S
C1153 C1151 1.389 . S
C1153 C1154 1.524 . S
C1154 C1153 1.524 . S
C1154 C1155 1.397 . S
C1154 C1159 1.363 . S
C1155 H1126 0.950 . S
C1155 C1154 1.397 . S
C1155 C1156 1.334 . S
C1156 H1127 0.950 . S
C1156 C1155 1.334 . S
C1156 C1157 1.287 . S
C1157 C1156 1.287 . S
C1157 C1158 1.524 . S
C1157 H1160 0.999 . S
C1158 H1128 0.950 . S
C1158 C1157 1.524 . S
C1158 C1159 1.415 . S
C1159 H1129 0.950 . S
C1159 C1154 1.363 . S
C1159 C1158 1.415 . S
H1160 C1157 0.999 . S
H1161 C1142 0.913 . S
H1162 C1180 0.951 . S
H1163 C1182 0.951 . S
H1164 C1184 0.950 . S
H1165 C1185 0.950 . S
H1166 C1187 0.950 1_655 S
H1167 C1190 0.950 . S
H1168 C1191 0.950 . S
H1169 C1193 0.950 . S
H1170 C1194 0.950 . S
H1171 C1195 0.951 . S
H1172 C1197 0.951 . S
H1173 C1199 0.950 . S
H1174 C1200 0.950 . S
H1175 C1202 0.950 . S
H1176 C1205 0.950 . S
H1177 C1206 0.950 . S
H1178 C1208 0.982 . S
H1179 C1209 0.950 . S
C1180 H1162 0.951 . S
C1180 C1181 1.366 . S
C1180 C1182 1.388 . S
C1181 C1180 1.366 . S
C1181 C1185 1.385 . S
C1182 H1163 0.951 . S
C1182 C1180 1.388 . S
C1182 C1183 1.366 . S
C1183 C1182 1.366 . S
C1183 C1184 1.414 . S
C1183 C1186 1.499 1_655 S
C1184 H1164 0.950 . S
C1184 C1183 1.414 . S
C1184 C1185 1.374 . S
C1185 H1165 0.950 . S
C1185 C1181 1.385 . S
C1185 C1184 1.374 . S
C1186 C1183 1.499 1_455 S
C1186 C1187 1.373 . S
C1186 C1188 1.389 . S
C1187 H1166 0.950 1_455 S
C1187 C1186 1.373 . S
C1187 C1203 1.377 . S
C1188 C1186 1.389 . S
C1188 C1189 1.524 . S
C1188 C1202 1.377 . S
C1189 C1188 1.524 . S
C1189 C1190 1.397 . S
C1189 C1194 1.363 . S
C1190 H1167 0.950 . S
C1190 C1189 1.397 . S
C1190 C1191 1.334 . S
C1191 H1168 0.950 . S
C1191 C1190 1.334 . S
C1191 C1192 1.287 . S
C1192 C1191 1.287 . S
C1192 C1193 1.524 . S
C1192 H1211 0.913 . S
C1193 H1169 0.950 . S
C1193 C1192 1.524 . S
C1193 C1194 1.415 . S
C1194 H1170 0.950 . S
C1194 C1189 1.363 . S
C1194 C1193 1.415 . S
C1195 H1171 0.951 . S
C1195 C1196 1.366 . S
C1195 C1197 1.388 . S
C1196 C1195 1.366 . S
C1196 C1200 1.385 . S
C1197 H1172 0.951 . S
C1197 C1195 1.388 . S
C1197 C1198 1.366 . S
C1198 C1197 1.366 . S
C1198 C1199 1.414 . S
C1198 C1201 1.499 . S
C1199 H1173 0.950 . S
C1199 C1198 1.414 . S
C1199 C1200 1.374 . S
C1200 H1174 0.950 . S
C1200 C1196 1.385 . S
C1200 C1199 1.374 . S
C1201 C1198 1.499 . S
C1201 C1202 1.373 . S
C1201 C1203 1.389 . S
C1202 H1175 0.950 . S
C1202 C1188 1.377 . S
C1202 C1201 1.373 . S
C1203 C1187 1.377 . S
C1203 C1201 1.389 . S
C1203 C1204 1.524 . S
C1204 C1203 1.524 . S
C1204 C1205 1.397 . S
C1204 C1209 1.363 . S
C1205 H1176 0.950 . S
C1205 C1204 1.397 . S
C1205 C1206 1.334 1_565 S
C1206 H1177 0.950 . S
C1206 C1205 1.334 1_545 S
C1206 C1207 1.287 . S
C1207 C1206 1.287 . S
C1207 C1208 1.524 . S
C1207 H1210 0.999 . S
C1208 H1178 0.982 . S
C1208 C1207 1.524 . S
C1208 C1209 1.415 1_545 S
C1209 H1179 0.950 . S
C1209 C1204 1.363 . S
C1209 C1208 1.415 1_565 S
H1210 C1207 0.999 . S
H1211 C1192 0.913 . S
H1212 C1230 0.951 . S
H1213 C1232 0.951 . S
H1214 C1234 0.950 1_655 S
H1215 C1235 0.950 . S
H1216 C1237 0.950 . S
H1217 C1240 0.950 . S
H1218 C1241 0.950 . S
H1219 C1243 0.950 . S
H1220 C1244 0.950 . S
H1221 C1245 0.951 . S
H1222 C1247 0.951 . S
H1223 C1249 0.950 . S
H1224 C1250 0.950 . S
H1225 C1252 0.950 . S
H1226 C1255 0.950 . S
H1227 C1256 0.950 . S
H1228 C1258 0.950 . S
H1229 C1259 0.950 . S
C1230 H1212 0.951 . S
C1230 C1231 1.366 . S
C1230 C1232 1.388 . S
C1231 C1230 1.366 . S
C1231 C1235 1.385 . S
C1232 H1213 0.951 . S
C1232 C1230 1.388 . S
C1232 C1233 1.366 . S
C1233 C1232 1.366 . S
C1233 C1234 1.414 . S
C1233 C1236 1.499 1_455 S
C1234 H1214 0.950 1_455 S
C1234 C1233 1.414 . S
C1234 C1235 1.374 . S
C1235 H1215 0.950 . S
C1235 C1231 1.385 . S
C1235 C1234 1.374 . S
C1236 C1233 1.499 1_655 S
C1236 C1237 1.373 . S
C1236 C1238 1.389 . S
C1237 H1216 0.950 . S
C1237 C1236 1.373 . S
C1237 C1253 1.377 . S
C1238 C1236 1.389 . S
C1238 C1239 1.524 1_655 S
C1238 C1252 1.377 . S
C1239 C1238 1.524 1_455 S
C1239 C1240 1.397 . S
C1239 C1244 1.363 . S
C1240 H1217 0.950 . S
C1240 C1239 1.397 . S
C1240 C1241 1.334 1_556 S
C1241 H1218 0.950 . S
C1241 C1240 1.334 1_554 S
C1241 C1242 1.287 1_554 S
C1242 C1241 1.287 1_556 S
C1242 C1243 1.524 . S
C1242 H1261 0.913 1_556 S
C1243 H1219 0.950 . S
C1243 C1242 1.524 . S
C1243 C1244 1.415 . S
C1244 H1220 0.950 . S
C1244 C1239 1.363 . S
C1244 C1243 1.415 . S
C1245 H1221 0.951 . S
C1245 C1246 1.366 . S
C1245 C1247 1.388 . S
C1246 C1245 1.366 . S
C1246 C1250 1.385 . S
C1247 H1222 0.951 . S
C1247 C1245 1.388 . S
C1247 C1248 1.366 . S
C1248 C1247 1.366 . S
C1248 C1249 1.414 . S
C1248 C1251 1.499 . S
C1249 H1223 0.950 . S
C1249 C1248 1.414 . S
C1249 C1250 1.374 . S
C1250 H1224 0.950 . S
C1250 C1246 1.385 . S
C1250 C1249 1.374 . S
C1251 C1248 1.499 . S
C1251 C1252 1.373 . S
C1251 C1253 1.389 . S
C1252 H1225 0.950 . S
C1252 C1238 1.377 . S
C1252 C1251 1.373 . S
C1253 C1237 1.377 . S
C1253 C1251 1.389 . S
C1253 C1254 1.524 . S
C1254 C1253 1.524 . S
C1254 C1255 1.397 . S
C1254 C1259 1.363 . S
C1255 H1226 0.950 . S
C1255 C1254 1.397 . S
C1255 C1256 1.334 . S
C1256 H1227 0.950 . S
C1256 C1255 1.334 . S
C1256 C1257 1.287 . S
C1257 C1256 1.287 . S
C1257 C1258 1.524 . S
C1257 H1260 0.999 . S
C1258 H1228 0.950 . S
C1258 C1257 1.524 . S
C1258 C1259 1.415 . S
C1259 H1229 0.950 . S
C1259 C1254 1.363 . S
C1259 C1258 1.415 . S
H1260 C1257 0.999 . S
H1261 C1242 0.913 1_554 S
H1262 C1280 0.951 . S
H1263 C1282 0.951 . S
H1264 C1284 0.950 . S
H1265 C1285 0.950 . S
H1266 C1287 0.950 . S
H1267 C1290 0.950 . S
H1268 C1291 0.950 . S
H1269 C1293 0.950 . S
H1270 C1294 0.950 . S
H1271 C1295 0.951 . S
H1272 C1297 0.951 . S
H1273 C1299 0.950 . S
H1274 C1300 0.950 . S
H1275 C1302 0.950 . S
H1276 C1305 0.950 . S
H1277 C1306 0.950 . S
H1278 C1308 0.950 . S
H1279 C1309 0.950 . S
C1280 H1262 0.951 . S
C1280 C1281 1.366 . S
C1280 C1282 1.388 . S
C1281 C1280 1.366 . S
C1281 C1285 1.385 . S
C1282 H1263 0.951 . S
C1282 C1280 1.388 . S
C1282 C1283 1.366 . S
C1283 C1282 1.366 . S
C1283 C1284 1.414 . S
C1283 C1286 1.499 . S
C1284 H1264 0.950 . S
C1284 C1283 1.414 . S
C1284 C1285 1.374 . S
C1285 H1265 0.950 . S
C1285 C1281 1.385 . S
C1285 C1284 1.374 . S
C1286 C1283 1.499 . S
C1286 C1287 1.373 . S
C1286 C1288 1.389 . S
C1287 H1266 0.950 . S
C1287 C1286 1.373 . S
C1287 C1303 1.377 . S
C1288 C1286 1.389 . S
C1288 C1289 1.524 . S
C1288 C1302 1.377 . S
C1289 C1288 1.524 . S
C1289 C1290 1.397 . S
C1289 C1294 1.363 . S
C1290 H1267 0.950 . S
C1290 C1289 1.397 . S
C1290 C1291 1.334 . S
C1291 H1268 0.950 . S
C1291 C1290 1.334 . S
C1291 C1292 1.287 . S
C1292 C1291 1.287 . S
C1292 C1293 1.524 . S
C1292 H1311 0.913 . S
C1293 H1269 0.950 . S
C1293 C1292 1.524 . S
C1293 C1294 1.415 . S
C1294 H1270 0.950 . S
C1294 C1289 1.363 . S
C1294 C1293 1.415 . S
C1295 H1271 0.951 . S
C1295 C1296 1.366 . S
C1295 C1297 1.388 . S
C1296 C1295 1.366 . S
C1296 C1300 1.385 . S
C1297 H1272 0.951 . S
C1297 C1295 1.388 . S
C1297 C1298 1.366 . S
C1298 C1297 1.366 . S
C1298 C1299 1.414 . S
C1298 C1301 1.499 1_655 S
C1299 H1273 0.950 . S
C1299 C1298 1.414 . S
C1299 C1300 1.374 . S
C1300 H1274 0.950 . S
C1300 C1296 1.385 . S
C1300 C1299 1.374 . S
C1301 C1298 1.499 1_455 S
C1301 C1302 1.373 . S
C1301 C1303 1.389 . S
C1302 H1275 0.950 . S
C1302 C1288 1.377 . S
C1302 C1301 1.373 . S
C1303 C1287 1.377 . S
C1303 C1301 1.389 . S
C1303 C1304 1.524 . S
C1304 C1303 1.524 . S
C1304 C1305 1.397 1_455 S
C1304 C1309 1.363 1_556 S
C1305 H1276 0.950 . S
C1305 C1304 1.397 1_655 S
C1305 C1306 1.334 1_556 S
C1306 H1277 0.950 . S
C1306 C1305 1.334 1_554 S
C1306 C1307 1.287 . S
C1307 C1306 1.287 . S
C1307 C1308 1.524 1_655 S
C1307 H1310 0.999 . S
C1308 H1278 0.950 . S
C1308 C1307 1.524 1_455 S
C1308 C1309 1.415 . S
C1309 H1279 0.950 . S
C1309 C1304 1.363 1_554 S
C1309 C1308 1.415 . S
H1310 C1307 0.999 . S
H1311 C1292 0.913 . S
H1312 C1330 0.951 . S
H1313 C1332 0.951 . S
H1314 C1334 0.950 . S
H1315 C1335 0.950 . S
H1316 C1337 0.950 . S
H1317 C1340 0.950 . S
H1318 C1341 0.950 . S
H1319 C1343 0.950 . S
H1320 C1344 0.970 . S
H1321 C1345 0.951 . S
H1322 C1347 0.951 . S
H1323 C1349 0.950 . S
H1324 C1350 0.950 . S
H1325 C1352 0.950 . S
H1326 C1355 0.950 . S
H1327 C1356 0.950 . S
H1328 C1358 0.950 . S
H1329 C1359 0.950 . S
C1330 H1312 0.951 . S
C1330 C1331 1.366 . S
C1330 C1332 1.388 . S
C1331 C1330 1.366 . S
C1331 C1335 1.385 . S
C1332 H1313 0.951 . S
C1332 C1330 1.388 . S
C1332 C1333 1.366 . S
C1333 C1332 1.366 . S
C1333 C1334 1.414 . S
C1333 C1336 1.499 1_545 S
C1334 H1314 0.950 . S
C1334 C1333 1.414 . S
C1334 C1335 1.374 . S
C1335 H1315 0.950 . S
C1335 C1331 1.385 . S
C1335 C1334 1.374 . S
C1336 C1333 1.499 1_565 S
C1336 C1337 1.373 . S
C1336 C1338 1.389 . S
C1337 H1316 0.950 . S
C1337 C1336 1.373 . S
C1337 C1353 1.377 . S
C1338 C1336 1.389 . S
C1338 C1339 1.524 1_565 S
C1338 C1352 1.377 . S
C1339 C1338 1.524 1_545 S
C1339 C1340 1.397 . S
C1339 C1344 1.357 1_545 S
C1340 H1317 0.950 . S
C1340 C1339 1.397 . S
C1340 C1341 1.334 . S
C1341 H1318 0.950 . S
C1341 C1340 1.334 . S
C1341 C1342 1.287 . S
C1342 C1341 1.287 . S
C1342 C1343 1.524 . S
C1342 H1361 0.913 . S
C1343 H1319 0.950 . S
C1343 C1342 1.524 . S
C1343 C1344 1.401 1_545 S
C1344 H1320 0.970 . S
C1344 C1339 1.357 1_565 S
C1344 C1343 1.401 1_565 S
C1345 H1321 0.951 . S
C1345 C1346 1.366 . S
C1345 C1347 1.388 . S
C1346 C1345 1.366 . S
C1346 C1350 1.385 . S
C1347 H1322 0.951 . S
C1347 C1345 1.388 . S
C1347 C1348 1.366 . S
C1348 C1347 1.366 . S
C1348 C1349 1.414 . S
C1348 C1351 1.499 . S
C1349 H1323 0.950 . S
C1349 C1348 1.414 . S
C1349 C1350 1.374 . S
C1350 H1324 0.950 . S
C1350 C1346 1.385 . S
C1350 C1349 1.374 . S
C1351 C1348 1.499 . S
C1351 C1352 1.373 . S
C1351 C1353 1.389 . S
C1352 H1325 0.950 . S
C1352 C1338 1.377 . S
C1352 C1351 1.373 . S
C1353 C1337 1.377 . S
C1353 C1351 1.389 . S
C1353 C1354 1.524 . S
C1354 C1353 1.524 . S
C1354 C1355 1.397 . S
C1354 C1359 1.363 . S
C1355 H1326 0.950 . S
C1355 C1354 1.397 . S
C1355 C1356 1.334 . S
C1356 H1327 0.950 . S
C1356 C1355 1.334 . S
C1356 C1357 1.287 . S
C1357 C1356 1.287 . S
C1357 C1358 1.524 . S
C1357 H1360 0.999 . S
C1358 H1328 0.950 . S
C1358 C1357 1.524 . S
C1358 C1359 1.415 . S
C1359 H1329 0.950 . S
C1359 C1354 1.363 . S
C1359 C1358 1.415 . S
H1360 C1357 0.999 . S
H1361 C1342 0.913 . S
H1362 C1380 0.951 . S
H1363 C1382 0.951 . S
H1364 C1384 0.950 . S
H1365 C1385 0.950 . S
H1366 C1387 0.950 . S
H1367 C1390 0.950 . S
H1368 C1391 0.950 . S
H1369 C1393 0.950 . S
H1370 C1394 0.950 . S
H1371 C1395 0.951 . S
H1372 C1397 0.951 . S
H1373 C1399 0.950 . S
H1374 C1400 0.950 . S
H1375 C1402 0.974 . S
H1376 C1405 0.950 . S
H1377 C1406 0.950 . S
H1378 C1408 0.950 . S
H1379 C1409 0.950 . S
C1380 H1362 0.951 . S
C1380 C1381 1.366 . S
C1380 C1382 1.388 . S
C1381 C1380 1.366 . S
C1381 C1385 1.385 . S
C1382 H1363 0.951 . S
C1382 C1380 1.388 . S
C1382 C1383 1.366 . S
C1383 C1382 1.366 . S
C1383 C1384 1.414 . S
C1383 C1386 1.499 . S
C1384 H1364 0.950 . S
C1384 C1383 1.414 . S
C1384 C1385 1.374 . S
C1385 H1365 0.950 . S
C1385 C1381 1.385 . S
C1385 C1384 1.374 . S
C1386 C1383 1.499 . S
C1386 C1387 1.373 . S
C1386 C1388 1.389 . S
C1387 H1366 0.950 . S
C1387 C1386 1.373 . S
C1387 C1403 1.377 . S
C1388 C1386 1.389 . S
C1388 C1389 1.524 . S
C1388 C1402 1.377 . S
C1389 C1388 1.524 . S
C1389 C1390 1.397 . S
C1389 C1394 1.363 . S
C1390 H1367 0.950 . S
C1390 C1389 1.397 . S
C1390 C1391 1.334 . S
C1391 H1368 0.950 . S
C1391 C1390 1.334 . S
C1391 C1392 1.287 . S
C1392 C1391 1.287 . S
C1392 C1393 1.524 . S
C1392 H1411 0.913 . S
C1393 H1369 0.950 . S
C1393 C1392 1.524 . S
C1393 C1394 1.415 . S
C1394 H1370 0.950 . S
C1394 C1389 1.363 . S
C1394 C1393 1.415 . S
C1395 H1371 0.951 . S
C1395 C1396 1.366 . S
C1395 C1397 1.388 . S
C1396 C1395 1.366 . S
C1396 C1400 1.385 . S
C1397 H1372 0.951 . S
C1397 C1395 1.388 . S
C1397 C1398 1.366 . S
C1398 C1397 1.366 . S
C1398 C1399 1.414 . S
C1398 C1401 1.499 1_565 S
C1399 H1373 0.950 . S
C1399 C1398 1.414 . S
C1399 C1400 1.374 . S
C1400 H1374 0.950 . S
C1400 C1396 1.385 . S
C1400 C1399 1.374 . S
C1401 C1398 1.499 1_545 S
C1401 C1402 1.373 . S
C1401 C1403 1.389 . S
C1402 H1375 0.974 . S
C1402 C1388 1.377 . S
C1402 C1401 1.373 . S
C1403 C1387 1.377 . S
C1403 C1401 1.389 . S
C1403 C1404 1.524 . S
C1404 C1403 1.524 . S
C1404 C1405 1.397 1_545 S
C1404 C1409 1.363 . S
C1405 H1376 0.950 . S
C1405 C1404 1.397 1_565 S
C1405 C1406 1.334 . S
C1406 H1377 0.950 . S
C1406 C1405 1.334 . S
C1406 C1407 1.287 1_565 S
C1407 C1406 1.287 1_545 S
C1407 C1408 1.524 . S
C1407 H1410 0.999 . S
C1408 H1378 0.950 . S
C1408 C1407 1.524 . S
C1408 C1409 1.415 . S
C1409 H1379 0.950 . S
C1409 C1404 1.363 . S
C1409 C1408 1.415 . S
H1410 C1407 0.999 . S
H1411 C1392 0.913 . S
H1412 C1430 0.951 . S
H1413 C1432 0.951 . S
H1414 C1434 0.950 . S
H1415 C1435 0.950 . S
H1416 C1437 0.950 . S
H1417 C1440 0.950 . S
H1418 C1441 0.950 . S
H1419 C1443 0.950 . S
H1420 C1444 0.950 . S
H1421 C1445 0.951 . S
H1422 C1447 0.951 . S
H1423 C1449 0.950 . S
H1424 C1450 0.950 . S
H1425 C1452 0.950 . S
H1426 C1455 0.950 . S
H1427 C1456 0.950 . S
H1428 C1458 0.950 . S
H1429 C1459 0.950 . S
C1430 H1412 0.951 . S
C1430 C1431 1.366 . S
C1430 C1432 1.388 . S
C1431 C1430 1.366 . S
C1431 C1435 1.385 . S
C1432 H1413 0.951 . S
C1432 C1430 1.388 . S
C1432 C1433 1.366 . S
C1433 C1432 1.366 . S
C1433 C1434 1.414 . S
C1433 C1436 1.499 . S
C1434 H1414 0.950 . S
C1434 C1433 1.414 . S
C1434 C1435 1.374 . S
C1435 H1415 0.950 . S
C1435 C1431 1.385 . S
C1435 C1434 1.374 . S
C1436 C1433 1.499 . S
C1436 C1437 1.373 . S
C1436 C1438 1.389 . S
C1437 H1416 0.950 . S
C1437 C1436 1.373 . S
C1437 C1453 1.377 . S
C1438 C1436 1.389 . S
C1438 C1439 1.524 . S
C1438 C1452 1.377 . S
C1439 C1438 1.524 . S
C1439 C1440 1.397 . S
C1439 C1444 1.363 . S
C1440 H1417 0.950 . S
C1440 C1439 1.397 . S
C1440 C1441 1.334 . S
C1441 H1418 0.950 . S
C1441 C1440 1.334 . S
C1441 C1442 1.287 . S
C1442 C1441 1.287 . S
C1442 C1443 1.524 . S
C1442 H1461 0.913 . S
C1443 H1419 0.950 . S
C1443 C1442 1.524 . S
C1443 C1444 1.415 . S
C1444 H1420 0.950 . S
C1444 C1439 1.363 . S
C1444 C1443 1.415 . S
C1445 H1421 0.951 . S
C1445 C1446 1.366 . S
C1445 C1447 1.388 . S
C1446 C1445 1.366 . S
C1446 C1450 1.385 . S
C1447 H1422 0.951 . S
C1447 C1445 1.388 . S
C1447 C1448 1.366 . S
C1448 C1447 1.366 . S
C1448 C1449 1.414 . S
C1448 C1451 1.499 . S
C1449 H1423 0.950 . S
C1449 C1448 1.414 . S
C1449 C1450 1.374 . S
C1450 H1424 0.950 . S
C1450 C1446 1.385 . S
C1450 C1449 1.374 . S
C1451 C1448 1.499 . S
C1451 C1452 1.373 . S
C1451 C1453 1.389 . S
C1452 H1425 0.950 . S
C1452 C1438 1.377 . S
C1452 C1451 1.373 . S
C1453 C1437 1.377 . S
C1453 C1451 1.389 . S
C1453 C1454 1.524 . S
C1454 C1453 1.524 . S
C1454 C1455 1.397 . S
C1454 C1459 1.363 . S
C1455 H1426 0.950 . S
C1455 C1454 1.397 . S
C1455 C1456 1.334 . S
C1456 H1427 0.950 . S
C1456 C1455 1.334 . S
C1456 C1457 1.287 . S
C1457 C1456 1.287 . S
C1457 C1458 1.524 . S
C1457 H1460 0.999 . S
C1458 H1428 0.950 . S
C1458 C1457 1.524 . S
C1458 C1459 1.415 . S
C1459 H1429 0.950 . S
C1459 C1454 1.363 . S
C1459 C1458 1.415 . S
H1460 C1457 0.999 . S
H1461 C1442 0.913 . S
H1462 C1480 0.951 . S
H1463 C1482 0.951 . S
H1464 C1484 0.950 . S
H1465 C1485 0.950 . S
H1466 C1487 0.950 . S
H1467 C1490 0.950 . S
H1468 C1491 0.953 . S
H1469 C1493 0.950 . S
H1470 C1494 0.950 . S
H1471 C1495 0.951 . S
H1472 C1497 0.951 . S
H1473 C1499 0.950 1_545 S
H1474 C1500 0.950 . S
H1475 C1502 0.950 . S
H1476 C1505 0.950 . S
H1477 C1506 0.950 . S
H1478 C1508 0.950 . S
H1479 C1509 0.950 . S
C1480 H1462 0.951 . S
C1480 C1481 1.366 . S
C1480 C1482 1.388 . S
C1481 C1480 1.366 . S
C1481 C1485 1.385 . S
C1482 H1463 0.951 . S
C1482 C1480 1.388 . S
C1482 C1483 1.366 . S
C1483 C1482 1.366 . S
C1483 C1484 1.414 . S
C1483 C1486 1.499 . S
C1484 H1464 0.950 . S
C1484 C1483 1.414 . S
C1484 C1485 1.374 . S
C1485 H1465 0.950 . S
C1485 C1481 1.385 . S
C1485 C1484 1.374 . S
C1486 C1483 1.499 . S
C1486 C1487 1.373 . S
C1486 C1488 1.389 . S
C1487 H1466 0.950 . S
C1487 C1486 1.373 . S
C1487 C1503 1.377 . S
C1488 C1486 1.389 . S
C1488 C1489 1.524 . S
C1488 C1502 1.377 . S
C1489 C1488 1.524 . S
C1489 C1490 1.397 . S
C1489 C1494 1.363 . S
C1490 H1467 0.950 . S
C1490 C1489 1.397 . S
C1490 C1491 1.323 1_655 S
C1491 H1468 0.953 . S
C1491 C1490 1.323 1_455 S
C1491 C1492 1.295 . S
C1492 C1491 1.295 . S
C1492 C1493 1.524 . S
C1492 H1511 0.913 . S
C1493 H1469 0.950 . S
C1493 C1492 1.524 . S
C1493 C1494 1.415 1_455 S
C1494 H1470 0.950 . S
C1494 C1489 1.363 . S
C1494 C1493 1.415 1_655 S
C1495 H1471 0.951 . S
C1495 C1496 1.366 . S
C1495 C1497 1.388 . S
C1496 C1495 1.366 . S
C1496 C1500 1.385 . S
C1497 H1472 0.951 . S
C1497 C1495 1.388 . S
C1497 C1498 1.366 . S
C1498 C1497 1.366 . S
C1498 C1499 1.414 . S
C1498 C1501 1.499 1_565 S
C1499 H1473 0.950 1_565 S
C1499 C1498 1.414 . S
C1499 C1500 1.374 . S
C1500 H1474 0.950 . S
C1500 C1496 1.385 . S
C1500 C1499 1.374 . S
C1501 C1498 1.499 1_545 S
C1501 C1502 1.373 . S
C1501 C1503 1.389 . S
C1502 H1475 0.950 . S
C1502 C1488 1.377 . S
C1502 C1501 1.373 . S
C1503 C1487 1.377 . S
C1503 C1501 1.389 . S
C1503 C1504 1.524 1_545 S
C1504 C1503 1.524 1_565 S
C1504 C1505 1.397 . S
C1504 C1509 1.363 . S
C1505 H1476 0.950 . S
C1505 C1504 1.397 . S
C1505 C1506 1.334 . S
C1506 H1477 0.950 . S
C1506 C1505 1.334 . S
C1506 C1507 1.287 . S
C1507 C1506 1.287 . S
C1507 C1508 1.524 . S
C1507 H1510 0.999 . S
C1508 H1478 0.950 . S
C1508 C1507 1.524 . S
C1508 C1509 1.415 . S
C1509 H1479 0.950 . S
C1509 C1504 1.363 . S
C1509 C1508 1.415 . S
H1510 C1507 0.999 . S
H1511 C1492 0.913 . S
H1512 C1530 0.951 . S
H1513 C1532 0.951 . S
H1514 C1534 0.950 . S
H1515 C1535 0.950 . S
H1516 C1537 0.950 . S
H1517 C1540 0.950 . S
H1518 C1541 0.950 . S
H1519 C1543 0.950 . S
H1520 C1544 0.950 . S
H1521 C1545 0.951 . S
H1522 C1547 0.951 . S
H1523 C1549 0.950 . S
H1524 C1550 0.950 . S
H1525 C1552 0.950 . S
H1526 C1555 0.950 . S
H1527 C1556 0.950 . S
H1528 C1558 0.950 . S
H1529 C1559 0.950 . S
C1530 H1512 0.951 . S
C1530 C1531 1.366 . S
C1530 C1532 1.388 . S
C1531 C1530 1.366 . S
C1531 C1535 1.385 1_655 S
C1532 H1513 0.951 . S
C1532 C1530 1.388 . S
C1532 C1533 1.366 . S
C1533 C1532 1.366 . S
C1533 C1534 1.414 1_655 S
C1533 C1536 1.501 . S
C1534 H1514 0.950 . S
C1534 C1533 1.414 1_455 S
C1534 C1535 1.374 . S
C1535 H1515 0.950 . S
C1535 C1531 1.385 1_455 S
C1535 C1534 1.374 . S
C1536 C1533 1.501 . S
C1536 C1537 1.351 1_655 S
C1536 C1538 1.411 . S
C1537 H1516 0.950 . S
C1537 C1536 1.351 1_455 S
C1537 C1553 1.377 . S
C1538 C1536 1.411 . S
C1538 C1539 1.524 . S
C1538 C1552 1.377 . S
C1539 C1538 1.524 . S
C1539 C1540 1.397 . S
C1539 C1544 1.363 . S
C1540 H1517 0.950 . S
C1540 C1539 1.397 . S
C1540 C1541 1.334 . S
C1541 H1518 0.950 . S
C1541 C1540 1.334 . S
C1541 C1542 1.287 . S
C1542 C1541 1.287 . S
C1542 C1543 1.524 . S
C1542 H1561 0.913 . S
C1543 H1519 0.950 . S
C1543 C1542 1.524 . S
C1543 C1544 1.415 . S
C1544 H1520 0.950 . S
C1544 C1539 1.363 . S
C1544 C1543 1.415 . S
C1545 H1521 0.951 . S
C1545 C1546 1.366 . S
C1545 C1547 1.388 . S
C1546 C1545 1.366 . S
C1546 C1550 1.385 1_455 S
C1547 H1522 0.951 . S
C1547 C1545 1.388 . S
C1547 C1548 1.366 . S
C1548 C1547 1.366 . S
C1548 C1549 1.414 1_455 S
C1548 C1551 1.499 . S
C1549 H1523 0.950 . S
C1549 C1548 1.414 1_655 S
C1549 C1550 1.374 . S
C1550 H1524 0.950 . S
C1550 C1546 1.385 1_655 S
C1550 C1549 1.374 . S
C1551 C1548 1.499 . S
C1551 C1552 1.373 1_455 S
C1551 C1553 1.389 . S
C1552 H1525 0.950 . S
C1552 C1538 1.377 . S
C1552 C1551 1.373 1_655 S
C1553 C1537 1.377 . S
C1553 C1551 1.389 . S
C1553 C1554 1.524 . S
C1554 C1553 1.524 . S
C1554 C1555 1.397 . S
C1554 C1559 1.363 . S
C1555 H1526 0.950 . S
C1555 C1554 1.397 . S
C1555 C1556 1.334 . S
C1556 H1527 0.950 . S
C1556 C1555 1.334 . S
C1556 C1557 1.287 . S
C1557 C1556 1.287 . S
C1557 C1558 1.524 . S
C1557 H1560 0.999 . S
C1558 H1528 0.950 . S
C1558 C1557 1.524 . S
C1558 C1559 1.415 . S
C1559 H1529 0.950 . S
C1559 C1554 1.363 . S
C1559 C1558 1.415 . S
H1560 C1557 0.999 . S
H1561 C1542 0.913 . S
H1562 C1580 0.951 . S
H1563 C1582 0.951 . S
H1564 C1584 0.950 . S
H1565 C1585 0.950 . S
H1566 C1587 0.950 . S
H1567 C1590 0.950 . S
H1568 C1591 0.950 . S
H1569 C1593 0.950 . S
H1570 C1594 0.950 . S
H1571 C1595 0.951 . S
H1572 C1597 0.951 . S
H1573 C1599 0.950 . S
H1574 C1600 0.950 . S
H1575 C1602 0.954 . S
H1576 C1605 0.950 . S
H1577 C1606 0.950 . S
H1578 C1608 0.950 . S
H1579 C1609 0.950 . S
C1580 H1562 0.951 . S
C1580 C1581 1.366 1_655 S
C1580 C1582 1.388 . S
C1581 C1580 1.366 1_455 S
C1581 C1585 1.385 . S
C1582 H1563 0.951 . S
C1582 C1580 1.388 . S
C1582 C1583 1.366 1_655 S
C1583 C1582 1.366 1_455 S
C1583 C1584 1.414 . S
C1583 C1586 1.499 . S
C1584 H1564 0.950 . S
C1584 C1583 1.414 . S
C1584 C1585 1.374 . S
C1585 H1565 0.950 . S
C1585 C1581 1.385 . S
C1585 C1584 1.374 . S
C1586 C1583 1.499 . S
C1586 C1587 1.373 . S
C1586 C1588 1.389 . S
C1587 H1566 0.950 . S
C1587 C1586 1.373 . S
C1587 C1603 1.377 1_455 S
C1588 C1586 1.389 . S
C1588 C1589 1.524 . S
C1588 C1602 1.372 1_455 S
C1589 C1588 1.524 . S
C1589 C1590 1.397 . S
C1589 C1594 1.363 1_455 S
C1590 H1567 0.950 . S
C1590 C1589 1.397 . S
C1590 C1591 1.334 . S
C1591 H1568 0.950 . S
C1591 C1590 1.334 . S
C1591 C1592 1.287 . S
C1592 C1591 1.287 . S
C1592 C1593 1.524 1_455 S
C1592 H1611 0.913 . S
C1593 H1569 0.950 . S
C1593 C1592 1.524 1_655 S
C1593 C1594 1.415 . S
C1594 H1570 0.950 . S
C1594 C1589 1.363 1_655 S
C1594 C1593 1.415 . S
C1595 H1571 0.951 . S
C1595 C1596 1.366 1_455 S
C1595 C1597 1.388 . S
C1596 C1595 1.366 1_655 S
C1596 C1600 1.385 . S
C1597 H1572 0.951 . S
C1597 C1595 1.388 . S
C1597 C1598 1.366 1_455 S
C1598 C1597 1.366 1_655 S
C1598 C1599 1.414 . S
C1598 C1601 1.499 . S
C1599 H1573 0.950 . S
C1599 C1598 1.414 . S
C1599 C1600 1.374 . S
C1600 H1574 0.950 . S
C1600 C1596 1.385 . S
C1600 C1599 1.374 . S
C1601 C1598 1.499 . S
C1601 C1602 1.377 . S
C1601 C1603 1.389 . S
C1602 H1575 0.954 . S
C1602 C1588 1.372 1_655 S
C1602 C1601 1.377 . S
C1603 C1587 1.377 1_655 S
C1603 C1601 1.389 . S
C1603 C1604 1.524 . S
C1604 C1603 1.524 . S
C1604 C1605 1.397 . S
C1604 C1609 1.363 1_655 S
C1605 H1576 0.950 . S
C1605 C1604 1.397 . S
C1605 C1606 1.334 . S
C1606 H1577 0.950 . S
C1606 C1605 1.334 . S
C1606 C1607 1.287 . S
C1607 C1606 1.287 . S
C1607 C1608 1.524 1_655 S
C1607 H1610 0.999 . S
C1608 H1578 0.950 . S
C1608 C1607 1.524 1_455 S
C1608 C1609 1.415 . S
C1609 H1579 0.950 . S
C1609 C1604 1.363 1_455 S
C1609 C1608 1.415 . S
H1610 C1607 0.999 . S
H1611 C1592 0.913 . S
H1612 C1630 0.951 . S
H1613 C1632 0.951 . S
H1614 C1634 0.950 . S
H1615 C1635 0.950 . S
H1616 C1637 0.950 . S
H1617 C1640 0.950 . S
H1618 C1641 0.950 . S
H1619 C1643 0.950 . S
H1620 C1644 0.950 . S
H1621 C1645 0.951 . S
H1622 C1647 0.951 . S
H1623 C1649 0.950 . S
H1624 C1650 0.950 . S
H1625 C1652 0.950 . S
H1626 C1655 0.950 . S
H1627 C1656 0.950 . S
H1628 C1658 0.950 . S
H1629 C1659 0.950 . S
C1630 H1612 0.951 . S
C1630 C1631 1.366 . S
C1630 C1632 1.388 . S
C1631 C1630 1.366 . S
C1631 C1635 1.385 . S
C1632 H1613 0.951 . S
C1632 C1630 1.388 . S
C1632 C1633 1.366 . S
C1633 C1632 1.366 . S
C1633 C1634 1.414 . S
C1633 C1636 1.499 . S
C1634 H1614 0.950 . S
C1634 C1633 1.414 . S
C1634 C1635 1.374 . S
C1635 H1615 0.950 . S
C1635 C1631 1.385 . S
C1635 C1634 1.374 . S
C1636 C1633 1.499 . S
C1636 C1637 1.373 1_565 S
C1636 C1638 1.389 . S
C1637 H1616 0.950 . S
C1637 C1636 1.373 1_545 S
C1637 C1653 1.377 . S
C1638 C1636 1.389 . S
C1638 C1639 1.524 . S
C1638 C1652 1.377 . S
C1639 C1638 1.524 . S
C1639 C1640 1.397 . S
C1639 C1644 1.363 . S
C1640 H1617 0.950 . S
C1640 C1639 1.397 . S
C1640 C1641 1.334 . S
C1641 H1618 0.950 . S
C1641 C1640 1.334 . S
C1641 C1642 1.287 . S
C1642 C1641 1.287 . S
C1642 C1643 1.524 . S
C1642 H1661 0.913 . S
C1643 H1619 0.950 . S
C1643 C1642 1.524 . S
C1643 C1644 1.415 . S
C1644 H1620 0.950 . S
C1644 C1639 1.363 . S
C1644 C1643 1.415 . S
C1645 H1621 0.951 . S
C1645 C1646 1.366 . S
C1645 C1647 1.388 . S
C1646 C1645 1.366 . S
C1646 C1650 1.385 . S
C1647 H1622 0.951 . S
C1647 C1645 1.388 . S
C1647 C1648 1.366 . S
C1648 C1647 1.366 . S
C1648 C1649 1.414 . S
C1648 C1651 1.499 . S
C1649 H1623 0.950 . S
C1649 C1648 1.414 . S
C1649 C1650 1.374 . S
C1650 H1624 0.950 . S
C1650 C1646 1.385 . S
C1650 C1649 1.374 . S
C1651 C1648 1.499 . S
C1651 C1652 1.373 1_545 S
C1651 C1653 1.389 . S
C1652 H1625 0.950 . S
C1652 C1638 1.377 . S
C1652 C1651 1.373 1_565 S
C1653 C1637 1.377 . S
C1653 C1651 1.389 . S
C1653 C1654 1.524 . S
C1654 C1653 1.524 . S
C1654 C1655 1.397 . S
C1654 C1659 1.363 . S
C1655 H1626 0.950 . S
C1655 C1654 1.397 . S
C1655 C1656 1.334 . S
C1656 H1627 0.950 . S
C1656 C1655 1.334 . S
C1656 C1657 1.287 . S
C1657 C1656 1.287 . S
C1657 C1658 1.524 . S
C1657 H1660 0.999 . S
C1658 H1628 0.950 . S
C1658 C1657 1.524 . S
C1658 C1659 1.415 . S
C1659 H1629 0.950 . S
C1659 C1654 1.363 . S
C1659 C1658 1.415 . S
H1660 C1657 0.999 . S
H1661 C1642 0.913 . S
H1662 C1680 0.951 . S
H1663 C1682 0.951 . S
H1664 C1684 0.950 . S
H1665 C1685 0.950 . S
H1666 C1687 0.950 . S
H1667 C1690 0.950 . S
H1668 C1691 0.950 . S
H1669 C1693 0.950 . S
H1670 C1694 0.950 . S
H1671 C1695 0.951 . S
H1672 C1697 0.951 . S
H1673 C1699 0.950 . S
H1674 C1700 0.950 . S
H1675 C1702 0.950 . S
H1676 C1705 0.950 . S
H1677 C1706 0.950 . S
H1678 C1708 0.950 . S
H1679 C1709 0.950 . S
C1680 H1662 0.951 . S
C1680 C1681 1.366 . S
C1680 C1682 1.388 . S
C1681 C1680 1.366 . S
C1681 C1685 1.385 . S
C1682 H1663 0.951 . S
C1682 C1680 1.388 . S
C1682 C1683 1.366 . S
C1683 C1682 1.366 . S
C1683 C1684 1.414 . S
C1683 C1686 1.499 . S
C1684 H1664 0.950 . S
C1684 C1683 1.414 . S
C1684 C1685 1.374 . S
C1685 H1665 0.950 . S
C1685 C1681 1.385 . S
C1685 C1684 1.374 . S
C1686 C1683 1.499 . S
C1686 C1687 1.373 . S
C1686 C1688 1.389 . S
C1687 H1666 0.950 . S
C1687 C1686 1.373 . S
C1687 C1703 1.377 . S
C1688 C1686 1.389 . S
C1688 C1689 1.524 . S
C1688 C1702 1.377 . S
C1689 C1688 1.524 . S
C1689 C1690 1.397 . S
C1689 C1694 1.363 . S
C1690 H1667 0.950 . S
C1690 C1689 1.397 . S
C1690 C1691 1.334 . S
C1691 H1668 0.950 . S
C1691 C1690 1.334 . S
C1691 C1692 1.287 . S
C1692 C1691 1.287 . S
C1692 C1693 1.524 . S
C1692 H1711 0.913 . S
C1693 H1669 0.950 . S
C1693 C1692 1.524 . S
C1693 C1694 1.415 . S
C1694 H1670 0.950 . S
C1694 C1689 1.363 . S
C1694 C1693 1.415 . S
C1695 H1671 0.951 . S
C1695 C1696 1.366 . S
C1695 C1697 1.388 . S
C1696 C1695 1.366 . S
C1696 C1700 1.385 . S
C1697 H1672 0.951 . S
C1697 C1695 1.388 . S
C1697 C1698 1.366 . S
C1698 C1697 1.366 . S
C1698 C1699 1.414 . S
C1698 C1701 1.499 . S
C1699 H1673 0.950 . S
C1699 C1698 1.414 . S
C1699 C1700 1.374 . S
C1700 H1674 0.950 . S
C1700 C1696 1.385 . S
C1700 C1699 1.374 . S
C1701 C1698 1.499 . S
C1701 C1702 1.373 . S
C1701 C1703 1.389 . S
C1702 H1675 0.950 . S
C1702 C1688 1.377 . S
C1702 C1701 1.373 . S
C1703 C1687 1.377 . S
C1703 C1701 1.389 . S
C1703 C1704 1.524 . S
C1704 C1703 1.524 . S
C1704 C1705 1.397 . S
C1704 C1709 1.363 . S
C1705 H1676 0.950 . S
C1705 C1704 1.397 . S
C1705 C1706 1.334 . S
C1706 H1677 0.950 . S
C1706 C1705 1.334 . S
C1706 C1707 1.287 . S
C1707 C1706 1.287 . S
C1707 C1708 1.524 . S
C1707 H1710 0.999 . S
C1708 H1678 0.950 . S
C1708 C1707 1.524 . S
C1708 C1709 1.415 . S
C1709 H1679 0.950 . S
C1709 C1704 1.363 . S
C1709 C1708 1.415 . S
H1710 C1707 0.999 . S
H1711 C1692 0.913 . S
H1712 C1730 0.951 . S
H1713 C1732 0.951 . S
H1714 C1734 0.950 . S
H1715 C1735 0.950 . S
H1716 C1737 0.950 . S
H1717 C1740 0.950 . S
H1718 C1741 0.950 . S
H1719 C1743 0.950 . S
H1720 C1744 0.950 . S
H1721 C1745 0.951 . S
H1722 C1747 0.951 . S
H1723 C1749 0.950 . S
H1724 C1750 0.950 . S
H1725 C1752 0.950 . S
H1726 C1755 0.950 . S
H1727 C1756 0.950 . S
H1728 C1758 0.950 . S
H1729 C1759 0.950 . S
C1730 H1712 0.951 . S
C1730 C1731 1.366 1_556 S
C1730 C1732 1.388 . S
C1731 C1730 1.366 1_554 S
C1731 C1735 1.385 . S
C1732 H1713 0.951 . S
C1732 C1730 1.388 . S
C1732 C1733 1.366 1_556 S
C1733 C1732 1.366 1_554 S
C1733 C1734 1.414 . S
C1733 C1736 1.501 . S
C1734 H1714 0.950 . S
C1734 C1733 1.414 . S
C1734 C1735 1.374 . S
C1735 H1715 0.950 . S
C1735 C1731 1.385 . S
C1735 C1734 1.374 . S
C1736 C1733 1.501 . S
C1736 C1737 1.411 . S
C1736 C1738 1.352 1_554 S
C1737 H1716 0.950 . S
C1737 C1736 1.411 . S
C1737 C1753 1.377 . S
C1738 C1736 1.352 1_556 S
C1738 C1739 1.524 . S
C1738 C1752 1.377 . S
C1739 C1738 1.524 . S
C1739 C1740 1.397 . S
C1739 C1744 1.363 . S
C1740 H1717 0.950 . S
C1740 C1739 1.397 . S
C1740 C1741 1.334 . S
C1741 H1718 0.950 . S
C1741 C1740 1.334 . S
C1741 C1742 1.287 . S
C1742 C1741 1.287 . S
C1742 C1743 1.524 . S
C1742 H1761 0.913 . S
C1743 H1719 0.950 . S
C1743 C1742 1.524 . S
C1743 C1744 1.415 . S
C1744 H1720 0.950 . S
C1744 C1739 1.363 . S
C1744 C1743 1.415 . S
C1745 H1721 0.951 . S
C1745 C1746 1.366 1_554 S
C1745 C1747 1.388 . S
C1746 C1745 1.366 1_556 S
C1746 C1750 1.385 . S
C1747 H1722 0.951 . S
C1747 C1745 1.388 . S
C1747 C1748 1.346 1_554 S
C1748 C1747 1.346 1_556 S
C1748 C1749 1.439 . S
C1748 C1751 1.498 1_556 S
C1749 H1723 0.950 . S
C1749 C1748 1.439 . S
C1749 C1750 1.374 . S
C1750 H1724 0.950 . S
C1750 C1746 1.385 . S
C1750 C1749 1.374 . S
C1751 C1748 1.498 1_554 S
C1751 C1752 1.377 1_554 S
C1751 C1753 1.385 . S
C1752 H1725 0.950 . S
C1752 C1738 1.377 . S
C1752 C1751 1.377 1_556 S
C1753 C1737 1.377 . S
C1753 C1751 1.385 . S
C1753 C1754 1.524 . S
C1754 C1753 1.524 . S
C1754 C1755 1.397 . S
C1754 C1759 1.363 . S
C1755 H1726 0.950 . S
C1755 C1754 1.397 . S
C1755 C1756 1.334 . S
C1756 H1727 0.950 . S
C1756 C1755 1.334 . S
C1756 C1757 1.287 . S
C1757 C1756 1.287 . S
C1757 C1758 1.524 . S
C1757 H1760 0.999 . S
C1758 H1728 0.950 . S
C1758 C1757 1.524 . S
C1758 C1759 1.415 . S
C1759 H1729 0.950 . S
C1759 C1754 1.363 . S
C1759 C1758 1.415 . S
H1760 C1757 0.999 . S
H1761 C1742 0.913 . S
H1762 C1780 0.951 . S
H1763 C1782 0.951 . S
H1764 C1784 0.950 . S
H1765 C1785 0.950 . S
H1766 C1787 0.950 . S
H1767 C1790 0.950 . S
H1768 C1791 0.950 . S
H1769 C1793 0.950 . S
H1770 C1794 0.950 . S
H1771 C1795 0.951 . S
H1772 C1797 0.951 . S
H1773 C1799 0.950 . S
H1774 C1800 0.950 . S
H1775 C1802 0.950 . S
H1776 C1805 0.950 . S
H1777 C1806 0.950 . S
H1778 C1808 0.950 . S
H1779 C1809 0.950 . S
C1780 H1762 0.951 . S
C1780 C1781 1.366 . S
C1780 C1782 1.388 . S
C1781 C1780 1.366 . S
C1781 C1785 1.385 . S
C1782 H1763 0.951 . S
C1782 C1780 1.388 . S
C1782 C1783 1.366 . S
C1783 C1782 1.366 . S
C1783 C1784 1.414 . S
C1783 C1786 1.499 . S
C1784 H1764 0.950 . S
C1784 C1783 1.414 . S
C1784 C1785 1.374 . S
C1785 H1765 0.950 . S
C1785 C1781 1.385 . S
C1785 C1784 1.374 . S
C1786 C1783 1.499 . S
C1786 C1787 1.373 . S
C1786 C1788 1.389 . S
C1787 H1766 0.950 . S
C1787 C1786 1.373 . S
C1787 C1803 1.377 . S
C1788 C1786 1.389 . S
C1788 C1789 1.524 . S
C1788 C1802 1.377 . S
C1789 C1788 1.524 . S
C1789 C1790 1.397 . S
C1789 C1794 1.363 . S
C1790 H1767 0.950 . S
C1790 C1789 1.397 . S
C1790 C1791 1.334 . S
C1791 H1768 0.950 . S
C1791 C1790 1.334 . S
C1791 C1792 1.287 . S
C1792 C1791 1.287 . S
C1792 C1793 1.524 . S
C1792 H1811 0.913 . S
C1793 H1769 0.950 . S
C1793 C1792 1.524 . S
C1793 C1794 1.415 . S
C1794 H1770 0.950 . S
C1794 C1789 1.363 . S
C1794 C1793 1.415 . S
C1795 H1771 0.951 . S
C1795 C1796 1.366 . S
C1795 C1797 1.388 . S
C1796 C1795 1.366 . S
C1796 C1800 1.385 . S
C1797 H1772 0.951 . S
C1797 C1795 1.388 . S
C1797 C1798 1.366 . S
C1798 C1797 1.366 . S
C1798 C1799 1.414 . S
C1798 C1801 1.499 . S
C1799 H1773 0.950 . S
C1799 C1798 1.414 . S
C1799 C1800 1.374 . S
C1800 H1774 0.950 . S
C1800 C1796 1.385 . S
C1800 C1799 1.374 . S
C1801 C1798 1.499 . S
C1801 C1802 1.373 . S
C1801 C1803 1.389 . S
C1802 H1775 0.950 . S
C1802 C1788 1.377 . S
C1802 C1801 1.373 . S
C1803 C1787 1.377 . S
C1803 C1801 1.389 . S
C1803 C1804 1.524 . S
C1804 C1803 1.524 . S
C1804 C1805 1.397 . S
C1804 C1809 1.363 . S
C1805 H1776 0.950 . S
C1805 C1804 1.397 . S
C1805 C1806 1.334 . S
C1806 H1777 0.950 . S
C1806 C1805 1.334 . S
C1806 C1807 1.287 . S
C1807 C1806 1.287 . S
C1807 C1808 1.524 . S
C1807 H1810 0.999 . S
C1808 H1778 0.950 . S
C1808 C1807 1.524 . S
C1808 C1809 1.415 . S
C1809 H1779 0.950 . S
C1809 C1804 1.363 . S
C1809 C1808 1.415 . S
H1810 C1807 0.999 . S
H1811 C1792 0.913 . S
H1812 C1830 0.951 . S
H1813 C1832 0.951 . S
H1814 C1834 0.950 . S
H1815 C1835 0.950 . S
H1816 C1837 0.950 . S
H1817 C1840 0.950 . S
H1818 C1841 0.950 . S
H1819 C1843 0.950 . S
H1820 C1844 0.950 . S
H1821 C1845 0.951 . S
H1822 C1847 0.951 . S
H1823 C1849 0.950 . S
H1824 C1850 0.950 . S
H1825 C1852 0.950 . S
H1826 C1855 0.950 . S
H1827 C1856 0.950 . S
H1828 C1858 0.950 . S
H1829 C1859 0.950 . S
C1830 H1812 0.951 . S
C1830 C1831 1.366 . S
C1830 C1832 1.388 . S
C1831 C1830 1.366 . S
C1831 C1835 1.385 . S
C1832 H1813 0.951 . S
C1832 C1830 1.388 . S
C1832 C1833 1.366 . S
C1833 C1832 1.366 . S
C1833 C1834 1.414 . S
C1833 C1836 1.499 . S
C1834 H1814 0.950 . S
C1834 C1833 1.414 . S
C1834 C1835 1.374 . S
C1835 H1815 0.950 . S
C1835 C1831 1.385 . S
C1835 C1834 1.374 . S
C1836 C1833 1.499 . S
C1836 C1837 1.373 . S
C1836 C1838 1.389 . S
C1837 H1816 0.950 . S
C1837 C1836 1.373 . S
C1837 C1853 1.377 . S
C1838 C1836 1.389 . S
C1838 C1839 1.524 . S
C1838 C1852 1.377 . S
C1839 C1838 1.524 . S
C1839 C1840 1.397 . S
C1839 C1844 1.363 . S
C1840 H1817 0.950 . S
C1840 C1839 1.397 . S
C1840 C1841 1.334 . S
C1841 H1818 0.950 . S
C1841 C1840 1.334 . S
C1841 C1842 1.287 . S
C1842 C1841 1.287 . S
C1842 C1843 1.524 . S
C1842 H1861 0.913 . S
C1843 H1819 0.950 . S
C1843 C1842 1.524 . S
C1843 C1844 1.415 . S
C1844 H1820 0.950 . S
C1844 C1839 1.363 . S
C1844 C1843 1.415 . S
C1845 H1821 0.951 . S
C1845 C1846 1.366 . S
C1845 C1847 1.388 . S
C1846 C1845 1.366 . S
C1846 C1850 1.385 . S
C1847 H1822 0.951 . S
C1847 C1845 1.388 . S
C1847 C1848 1.366 . S
C1848 C1847 1.366 . S
C1848 C1849 1.414 . S
C1848 C1851 1.499 . S
C1849 H1823 0.950 . S
C1849 C1848 1.414 . S
C1849 C1850 1.374 . S
C1850 H1824 0.950 . S
C1850 C1846 1.385 . S
C1850 C1849 1.374 . S
C1851 C1848 1.499 . S
C1851 C1852 1.373 . S
C1851 C1853 1.389 . S
C1852 H1825 0.950 . S
C1852 C1838 1.377 . S
C1852 C1851 1.373 . S
C1853 C1837 1.377 . S
C1853 C1851 1.389 . S
C1853 C1854 1.524 . S
C1854 C1853 1.524 . S
C1854 C1855 1.397 . S
C1854 C1859 1.363 . S
C1855 H1826 0.950 . S
C1855 C1854 1.397 . S
C1855 C1856 1.334 . S
C1856 H1827 0.950 . S
C1856 C1855 1.334 . S
C1856 C1857 1.287 . S
C1857 C1856 1.287 . S
C1857 C1858 1.524 . S
C1857 H1860 0.999 . S
C1858 H1828 0.950 . S
C1858 C1857 1.524 . S
C1858 C1859 1.415 . S
C1859 H1829 0.950 . S
C1859 C1854 1.363 . S
C1859 C1858 1.415 . S
H1860 C1857 0.999 . S
H1861 C1842 0.913 . S
H1862 C1880 0.951 . S
H1863 C1882 0.951 . S
H1864 C1884 0.950 . S
H1865 C1885 0.950 . S
H1866 C1887 0.950 . S
H1867 C1890 0.950 . S
H1868 C1891 0.950 . S
H1869 C1893 0.950 . S
H1870 C1894 0.950 . S
H1871 C1895 0.951 . S
H1872 C1897 0.951 . S
H1873 C1899 0.950 . S
H1874 C1900 0.950 . S
H1875 C1902 0.950 . S
H1876 C1905 0.950 . S
H1877 C1906 0.950 . S
H1878 C1908 0.950 . S
H1879 C1909 0.950 . S
C1880 H1862 0.951 . S
C1880 C1881 1.366 . S
C1880 C1882 1.388 . S
C1881 C1880 1.366 . S
C1881 C1885 1.385 . S
C1882 H1863 0.951 . S
C1882 C1880 1.388 . S
C1882 C1883 1.366 . S
C1883 C1882 1.366 . S
C1883 C1884 1.414 . S
C1883 C1886 1.499 . S
C1884 H1864 0.950 . S
C1884 C1883 1.414 . S
C1884 C1885 1.374 . S
C1885 H1865 0.950 . S
C1885 C1881 1.385 . S
C1885 C1884 1.374 . S
C1886 C1883 1.499 . S
C1886 C1887 1.373 . S
C1886 C1888 1.389 . S
C1887 H1866 0.950 . S
C1887 C1886 1.373 . S
C1887 C1903 1.377 . S
C1888 C1886 1.389 . S
C1888 C1889 1.524 . S
C1888 C1902 1.377 . S
C1889 C1888 1.524 . S
C1889 C1890 1.397 . S
C1889 C1894 1.363 . S
C1890 H1867 0.950 . S
C1890 C1889 1.397 . S
C1890 C1891 1.334 . S
C1891 H1868 0.950 . S
C1891 C1890 1.334 . S
C1891 C1892 1.287 . S
C1892 C1891 1.287 . S
C1892 C1893 1.524 . S
C1892 H1911 0.913 . S
C1893 H1869 0.950 . S
C1893 C1892 1.524 . S
C1893 C1894 1.415 . S
C1894 H1870 0.950 . S
C1894 C1889 1.363 . S
C1894 C1893 1.415 . S
C1895 H1871 0.951 . S
C1895 C1896 1.366 . S
C1895 C1897 1.388 . S
C1896 C1895 1.366 . S
C1896 C1900 1.385 . S
C1897 H1872 0.951 . S
C1897 C1895 1.388 . S
C1897 C1898 1.366 . S
C1898 C1897 1.366 . S
C1898 C1899 1.414 . S
C1898 C1901 1.499 . S
C1899 H1873 0.950 . S
C1899 C1898 1.414 . S
C1899 C1900 1.374 . S
C1900 H1874 0.950 . S
C1900 C1896 1.385 . S
C1900 C1899 1.374 . S
C1901 C1898 1.499 . S
C1901 C1902 1.373 . S
C1901 C1903 1.389 . S
C1902 H1875 0.950 . S
C1902 C1888 1.377 . S
C1902 C1901 1.373 . S
C1903 C1887 1.377 . S
C1903 C1901 1.389 . S
C1903 C1904 1.524 . S
C1904 C1903 1.524 . S
C1904 C1905 1.397 . S
C1904 C1909 1.363 . S
C1905 H1876 0.950 . S
C1905 C1904 1.397 . S
C1905 C1906 1.334 . S
C1906 H1877 0.950 . S
C1906 C1905 1.334 . S
C1906 C1907 1.287 . S
C1907 C1906 1.287 . S
C1907 C1908 1.524 . S
C1907 H1910 0.999 . S
C1908 H1878 0.950 . S
C1908 C1907 1.524 . S
C1908 C1909 1.415 . S
C1909 H1879 0.950 . S
C1909 C1904 1.363 . S
C1909 C1908 1.415 . S
H1910 C1907 0.999 . S
H1911 C1892 0.913 . S
H1912 C1930 0.951 . S
H1913 C1932 0.951 . S
H1914 C1934 0.950 . S
H1915 C1935 0.950 . S
H1916 C1937 0.950 . S
H1917 C1940 0.950 . S
H1918 C1941 0.950 . S
H1919 C1943 0.950 . S
H1920 C1944 0.950 . S
H1921 C1945 0.951 . S
H1922 C1947 0.951 . S
H1923 C1949 0.950 . S
H1924 C1950 0.950 . S
H1925 C1952 0.950 . S
H1926 C1955 0.950 . S
H1927 C1956 0.950 . S
H1928 C1958 0.950 . S
H1929 C1959 0.950 . S
C1930 H1912 0.951 . S
C1930 C1931 1.366 . S
C1930 C1932 1.388 . S
C1931 C1930 1.366 . S
C1931 C1935 1.385 . S
C1932 H1913 0.951 . S
C1932 C1930 1.388 . S
C1932 C1933 1.366 . S
C1933 C1932 1.366 . S
C1933 C1934 1.414 . S
C1933 C1936 1.499 . S
C1934 H1914 0.950 . S
C1934 C1933 1.414 . S
C1934 C1935 1.374 . S
C1935 H1915 0.950 . S
C1935 C1931 1.385 . S
C1935 C1934 1.374 . S
C1936 C1933 1.499 . S
C1936 C1937 1.373 . S
C1936 C1938 1.389 . S
C1937 H1916 0.950 . S
C1937 C1936 1.373 . S
C1937 C1953 1.377 . S
C1938 C1936 1.389 . S
C1938 C1939 1.524 . S
C1938 C1952 1.377 . S
C1939 C1938 1.524 . S
C1939 C1940 1.397 . S
C1939 C1944 1.363 . S
C1940 H1917 0.950 . S
C1940 C1939 1.397 . S
C1940 C1941 1.334 . S
C1941 H1918 0.950 . S
C1941 C1940 1.334 . S
C1941 C1942 1.287 . S
C1942 C1941 1.287 . S
C1942 C1943 1.524 . S
C1942 H1961 0.913 . S
C1943 H1919 0.950 . S
C1943 C1942 1.524 . S
C1943 C1944 1.415 . S
C1944 H1920 0.950 . S
C1944 C1939 1.363 . S
C1944 C1943 1.415 . S
C1945 H1921 0.951 . S
C1945 C1946 1.366 . S
C1945 C1947 1.388 . S
C1946 C1945 1.366 . S
C1946 C1950 1.385 . S
C1947 H1922 0.951 . S
C1947 C1945 1.388 . S
C1947 C1948 1.366 . S
C1948 C1947 1.366 . S
C1948 C1949 1.414 . S
C1948 C1951 1.499 . S
C1949 H1923 0.950 . S
C1949 C1948 1.414 . S
C1949 C1950 1.374 . S
C1950 H1924 0.950 . S
C1950 C1946 1.385 . S
C1950 C1949 1.374 . S
C1951 C1948 1.499 . S
C1951 C1952 1.373 . S
C1951 C1953 1.389 . S
C1952 H1925 0.950 . S
C1952 C1938 1.377 . S
C1952 C1951 1.373 . S
C1953 C1937 1.377 . S
C1953 C1951 1.389 . S
C1953 C1954 1.524 . S
C1954 C1953 1.524 . S
C1954 C1955 1.397 . S
C1954 C1959 1.363 . S
C1955 H1926 0.950 . S
C1955 C1954 1.397 . S
C1955 C1956 1.334 . S
C1956 H1927 0.950 . S
C1956 C1955 1.334 . S
C1956 C1957 1.287 . S
C1957 C1956 1.287 . S
C1957 C1958 1.524 . S
C1957 H1960 0.999 . S
C1958 H1928 0.950 . S
C1958 C1957 1.524 . S
C1958 C1959 1.415 . S
C1959 H1929 0.950 . S
C1959 C1954 1.363 . S
C1959 C1958 1.415 . S
H1960 C1957 0.999 . S
H1961 C1942 0.913 . S
H1962 C1980 0.951 . S
H1963 C1982 0.951 . S
H1964 C1984 0.950 . S
H1965 C1985 0.950 . S
H1966 C1987 0.950 . S
H1967 C1990 0.950 . S
H1968 C1991 0.950 . S
H1969 C1993 0.950 . S
H1970 C1994 0.950 . S
H1971 C1995 0.951 . S
H1972 C1997 0.951 . S
H1973 C1999 0.950 . S
H1974 C2000 0.950 . S
H1975 C2002 0.950 . S
H1976 C2005 0.950 . S
H1977 C2006 0.950 . S
H1978 C2008 0.950 . S
H1979 C2009 0.950 . S
C1980 H1962 0.951 . S
C1980 C1981 1.366 . S
C1980 C1982 1.388 . S
C1981 C1980 1.366 . S
C1981 C1985 1.385 . S
C1982 H1963 0.951 . S
C1982 C1980 1.388 . S
C1982 C1983 1.366 . S
C1983 C1982 1.366 . S
C1983 C1984 1.414 . S
C1983 C1986 1.499 . S
C1984 H1964 0.950 . S
C1984 C1983 1.414 . S
C1984 C1985 1.374 . S
C1985 H1965 0.950 . S
C1985 C1981 1.385 . S
C1985 C1984 1.374 . S
C1986 C1983 1.499 . S
C1986 C1987 1.373 . S
C1986 C1988 1.389 . S
C1987 H1966 0.950 . S
C1987 C1986 1.373 . S
C1987 C2003 1.377 . S
C1988 C1986 1.389 . S
C1988 C1989 1.524 . S
C1988 C2002 1.377 . S
C1989 C1988 1.524 . S
C1989 C1990 1.397 . S
C1989 C1994 1.363 . S
C1990 H1967 0.950 . S
C1990 C1989 1.397 . S
C1990 C1991 1.334 . S
C1991 H1968 0.950 . S
C1991 C1990 1.334 . S
C1991 C1992 1.287 . S
C1992 C1991 1.287 . S
C1992 C1993 1.524 . S
C1992 H2011 0.913 . S
C1993 H1969 0.950 . S
C1993 C1992 1.524 . S
C1993 C1994 1.415 . S
C1994 H1970 0.950 . S
C1994 C1989 1.363 . S
C1994 C1993 1.415 . S
C1995 H1971 0.951 . S
C1995 C1996 1.366 . S
C1995 C1997 1.388 . S
C1996 C1995 1.366 . S
C1996 C2000 1.385 . S
C1997 H1972 0.951 . S
C1997 C1995 1.388 . S
C1997 C1998 1.366 . S
C1998 C1997 1.366 . S
C1998 C1999 1.414 . S
C1998 C2001 1.499 . S
C1999 H1973 0.950 . S
C1999 C1998 1.414 . S
C1999 C2000 1.374 . S
C2000 H1974 0.950 . S
C2000 C1996 1.385 . S
C2000 C1999 1.374 . S
C2001 C1998 1.499 . S
C2001 C2002 1.373 . S
C2001 C2003 1.389 . S
C2002 H1975 0.950 . S
C2002 C1988 1.377 . S
C2002 C2001 1.373 . S
C2003 C1987 1.377 . S
C2003 C2001 1.389 . S
C2003 C2004 1.524 . S
C2004 C2003 1.524 . S
C2004 C2005 1.397 . S
C2004 C2009 1.363 . S
C2005 H1976 0.950 . S
C2005 C2004 1.397 . S
C2005 C2006 1.334 . S
C2006 H1977 0.950 . S
C2006 C2005 1.334 . S
C2006 C2007 1.287 . S
C2007 C2006 1.287 . S
C2007 C2008 1.524 . S
C2007 H2010 0.999 . S
C2008 H1978 0.950 . S
C2008 C2007 1.524 . S
C2008 C2009 1.415 . S
C2009 H1979 0.950 . S
C2009 C2004 1.363 . S
C2009 C2008 1.415 . S
H2010 C2007 0.999 . S
H2011 C1992 0.913 . S
H2012 C2030 0.951 . S
H2013 C2032 0.951 . S
H2014 C2034 0.950 . S
H2015 C2035 0.950 . S
H2016 C2037 0.950 . S
H2017 C2040 0.950 . S
H2018 C2041 0.950 . S
H2019 C2043 0.950 . S
H2020 C2044 0.950 . S
H2021 C2045 0.951 . S
H2022 C2047 0.951 . S
H2023 C2049 0.950 . S
H2024 C2050 0.950 . S
H2025 C2052 0.950 . S
H2026 C2055 0.950 . S
H2027 C2056 0.950 . S
H2028 C2058 0.950 . S
H2029 C2059 0.950 . S
C2030 H2012 0.951 . S
C2030 C2031 1.366 1_565 S
C2030 C2032 1.388 . S
C2031 C2030 1.366 1_545 S
C2031 C2035 1.385 . S
C2032 H2013 0.951 . S
C2032 C2030 1.388 . S
C2032 C2033 1.366 1_565 S
C2033 C2032 1.366 1_545 S
C2033 C2034 1.414 . S
C2033 C2036 1.499 . S
C2034 H2014 0.950 . S
C2034 C2033 1.414 . S
C2034 C2035 1.374 . S
C2035 H2015 0.950 . S
C2035 C2031 1.385 . S
C2035 C2034 1.374 . S
C2036 C2033 1.499 . S
C2036 C2037 1.373 . S
C2036 C2038 1.389 1_545 S
C2037 H2016 0.950 . S
C2037 C2036 1.373 . S
C2037 C2053 1.377 . S
C2038 C2036 1.389 1_565 S
C2038 C2039 1.524 . S
C2038 C2052 1.377 . S
C2039 C2038 1.524 . S
C2039 C2040 1.397 1_565 S
C2039 C2044 1.363 . S
C2040 H2017 0.950 . S
C2040 C2039 1.397 1_545 S
C2040 C2041 1.334 . S
C2041 H2018 0.950 . S
C2041 C2040 1.334 . S
C2041 C2042 1.287 . S
C2042 C2041 1.287 . S
C2042 C2043 1.524 1_545 S
C2042 H2061 0.913 . S
C2043 H2019 0.950 . S
C2043 C2042 1.524 1_565 S
C2043 C2044 1.415 . S
C2044 H2020 0.950 . S
C2044 C2039 1.363 . S
C2044 C2043 1.415 . S
C2045 H2021 0.951 . S
C2045 C2046 1.366 1_545 S
C2045 C2047 1.388 . S
C2046 C2045 1.366 1_565 S
C2046 C2050 1.385 . S
C2047 H2022 0.951 . S
C2047 C2045 1.388 . S
C2047 C2048 1.366 1_545 S
C2048 C2047 1.366 1_565 S
C2048 C2049 1.414 . S
C2048 C2051 1.499 . S
C2049 H2023 0.950 . S
C2049 C2048 1.414 . S
C2049 C2050 1.374 . S
C2050 H2024 0.950 . S
C2050 C2046 1.385 . S
C2050 C2049 1.374 . S
C2051 C2048 1.499 . S
C2051 C2052 1.373 . S
C2051 C2053 1.389 1_565 S
C2052 H2025 0.950 . S
C2052 C2038 1.377 . S
C2052 C2051 1.373 . S
C2053 C2037 1.377 . S
C2053 C2051 1.389 1_545 S
C2053 C2054 1.524 . S
C2054 C2053 1.524 . S
C2054 C2055 1.397 1_545 S
C2054 C2059 1.363 . S
C2055 H2026 0.950 . S
C2055 C2054 1.397 1_565 S
C2055 C2056 1.334 . S
C2056 H2027 0.950 . S
C2056 C2055 1.334 . S
C2056 C2057 1.287 . S
C2057 C2056 1.287 . S
C2057 C2058 1.524 1_565 S
C2057 H2060 1.001 . S
C2058 H2028 0.950 . S
C2058 C2057 1.524 1_545 S
C2058 C2059 1.415 . S
C2059 H2029 0.950 . S
C2059 C2054 1.363 . S
C2059 C2058 1.415 . S
H2060 C2057 1.001 . S
H2061 C2042 0.913 . S
H2062 C2080 0.951 . S
H2063 C2082 0.951 . S
H2064 C2084 0.950 . S
H2065 C2085 0.950 . S
H2066 C2087 0.950 . S
H2067 C2090 0.950 . S
H2068 C2091 0.950 1_556 S
H2069 C2093 0.950 . S
H2070 C2094 0.950 . S
H2071 C2095 0.951 . S
H2072 C2097 0.951 . S
H2073 C2099 0.950 . S
H2074 C2100 0.950 . S
H2075 C2102 0.950 . S
H2076 C2105 0.950 . S
H2077 C2106 0.938 1_554 S
H2078 C2108 0.950 . S
H2079 C2109 0.950 . S
C2080 H2062 0.951 . S
C2080 C2081 1.366 1_554 S
C2080 C2082 1.388 . S
C2081 C2080 1.366 1_556 S
C2081 C2085 1.385 . S
C2082 H2063 0.951 . S
C2082 C2080 1.388 . S
C2082 C2083 1.366 1_554 S
C2083 C2082 1.366 1_556 S
C2083 C2084 1.414 . S
C2083 C2086 1.499 . S
C2084 H2064 0.950 . S
C2084 C2083 1.414 . S
C2084 C2085 1.374 . S
C2085 H2065 0.950 . S
C2085 C2081 1.385 . S
C2085 C2084 1.374 . S
C2086 C2083 1.499 . S
C2086 C2087 1.373 . S
C2086 C2088 1.389 1_556 S
C2087 H2066 0.950 . S
C2087 C2086 1.373 . S
C2087 C2103 1.377 . S
C2088 C2086 1.389 1_554 S
C2088 C2089 1.524 . S
C2088 C2102 1.377 . S
C2089 C2088 1.524 . S
C2089 C2090 1.397 1_554 S
C2089 C2094 1.363 . S
C2090 H2067 0.950 . S
C2090 C2089 1.397 1_556 S
C2090 C2091 1.334 1_556 S
C2091 H2068 0.950 1_554 S
C2091 C2090 1.334 1_554 S
C2091 C2092 1.287 . S
C2092 C2091 1.287 . S
C2092 C2093 1.524 . S
C2092 H2111 0.913 . S
C2093 H2069 0.950 . S
C2093 C2092 1.524 . S
C2093 C2094 1.415 . S
C2094 H2070 0.950 . S
C2094 C2089 1.363 . S
C2094 C2093 1.415 . S
C2095 H2071 0.951 . S
C2095 C2096 1.366 1_556 S
C2095 C2097 1.388 . S
C2096 C2095 1.366 1_554 S
C2096 C2100 1.385 . S
C2097 H2072 0.951 . S
C2097 C2095 1.388 . S
C2097 C2098 1.366 1_556 S
C2098 C2097 1.366 1_554 S
C2098 C2099 1.414 . S
C2098 C2101 1.499 . S
C2099 H2073 0.950 . S
C2099 C2098 1.414 . S
C2099 C2100 1.374 . S
C2100 H2074 0.950 . S
C2100 C2096 1.385 . S
C2100 C2099 1.374 . S
C2101 C2098 1.499 . S
C2101 C2102 1.373 . S
C2101 C2103 1.389 1_554 S
C2102 H2075 0.950 . S
C2102 C2088 1.377 . S
C2102 C2101 1.373 . S
C2103 C2087 1.377 . S
C2103 C2101 1.389 1_556 S
C2103 C2104 1.524 . S
C2104 C2103 1.524 . S
C2104 C2105 1.397 1_556 S
C2104 C2109 1.363 . S
C2105 H2076 0.950 . S
C2105 C2104 1.397 1_554 S
C2105 C2106 1.331 1_554 S
C2106 H2077 0.938 1_556 S
C2106 C2105 1.331 1_556 S
C2106 C2107 1.303 . S
C2107 C2106 1.303 . S
C2107 C2108 1.524 . S
C2107 H2110 0.999 . S
C2108 H2078 0.950 . S
C2108 C2107 1.524 . S
C2108 C2109 1.415 . S
C2109 H2079 0.950 . S
C2109 C2104 1.363 . S
C2109 C2108 1.415 . S
H2110 C2107 0.999 . S
H2111 C2092 0.913 . S
H2112 C2130 0.951 . S
H2113 C2132 0.951 . S
H2114 C2134 0.950 . S
H2115 C2135 0.950 . S
H2116 C2137 0.950 . S
H2117 C2140 0.950 1_565 S
H2118 C2141 0.937 1_565 S
H2119 C2143 0.950 . S
H2120 C2144 0.950 1_655 S
H2121 C2145 0.951 . S
H2122 C2147 0.951 . S
H2123 C2149 0.950 . S
H2124 C2150 0.950 . S
H2125 C2152 0.950 . S
H2126 C2155 0.950 1_545 S
H2127 C2156 0.950 . S
H2128 C2158 0.950 . S
H2129 C2159 0.950 1_455 S
C2130 H2112 0.951 . S
C2130 C2131 1.357 1_655 S
C2130 C2132 1.388 . S
C2131 C2130 1.357 1_455 S
C2131 C2135 1.394 . S
C2132 H2113 0.951 . S
C2132 C2130 1.388 . S
C2132 C2133 1.366 1_655 S
C2133 C2132 1.366 1_455 S
C2133 C2134 1.414 . S
C2133 C2136 1.499 . S
C2134 H2114 0.950 . S
C2134 C2133 1.414 . S
C2134 C2135 1.374 . S
C2135 H2115 0.950 . S
C2135 C2131 1.394 . S
C2135 C2134 1.374 . S
C2136 C2133 1.499 . S
C2136 C2137 1.373 1_455 S
C2136 C2138 1.389 1_565 S
C2137 H2116 0.950 . S
C2137 C2136 1.373 1_655 S
C2137 C2153 1.377 . S
C2138 C2136 1.389 1_545 S
C2138 C2139 1.524 . S
C2138 C2152 1.377 . S
C2139 C2138 1.524 . S
C2139 C2140 1.397 . S
C2139 C2144 1.363 . S
C2140 H2117 0.950 1_545 S
C2140 C2139 1.397 . S
C2140 C2141 1.334 . S
C2141 H2118 0.937 1_545 S
C2141 C2140 1.334 . S
C2141 C2142 1.287 . S
C2142 C2141 1.287 . S
C2142 C2143 1.524 . S
C2142 H2161 0.913 . S
C2143 H2119 0.950 . S
C2143 C2142 1.524 . S
C2143 C2144 1.415 . S
C2144 H2120 0.950 1_455 S
C2144 C2139 1.363 . S
C2144 C2143 1.415 . S
C2145 H2121 0.951 . S
C2145 C2146 1.366 1_455 S
C2145 C2147 1.388 . S
C2146 C2145 1.366 1_655 S
C2146 C2150 1.385 . S
C2147 H2122 0.951 . S
C2147 C2145 1.388 . S
C2147 C2148 1.366 1_455 S
C2148 C2147 1.366 1_655 S
C2148 C2149 1.414 . S
C2148 C2151 1.499 . S
C2149 H2123 0.950 . S
C2149 C2148 1.414 . S
C2149 C2150 1.374 . S
C2150 H2124 0.950 . S
C2150 C2146 1.385 . S
C2150 C2149 1.374 . S
C2151 C2148 1.499 . S
C2151 C2152 1.373 1_655 S
C2151 C2153 1.389 1_545 S
C2152 H2125 0.950 . S
C2152 C2138 1.377 . S
C2152 C2151 1.373 1_455 S
C2153 C2137 1.377 . S
C2153 C2151 1.389 1_565 S
C2153 C2154 1.524 . S
C2154 C2153 1.524 . S
C2154 C2155 1.397 . S
C2154 C2159 1.363 . S
C2155 H2126 0.950 1_565 S
C2155 C2154 1.397 . S
C2155 C2156 1.334 . S
C2156 H2127 0.950 . S
C2156 C2155 1.334 . S
C2156 C2157 1.287 . S
C2157 C2156 1.287 . S
C2157 C2158 1.524 . S
C2157 H2160 0.999 . S
C2158 H2128 0.950 . S
C2158 C2157 1.524 . S
C2158 C2159 1.415 . S
C2159 H2129 0.950 1_655 S
C2159 C2154 1.363 . S
C2159 C2158 1.415 . S
H2160 C2157 0.999 . S
H2161 C2142 0.913 . S
H2162 C2180 0.951 . S
H2163 C2182 0.951 . S
H2164 C2184 0.950 . S
H2165 C2185 0.950 . S
H2166 C2187 0.950 . S
H2167 C2190 0.950 . S
H2168 C2191 0.950 . S
H2169 C2193 0.950 . S
H2170 C2194 0.950 . S
H2171 C2195 0.951 . S
H2172 C2197 0.951 . S
H2173 C2199 0.950 . S
H2174 C2200 0.950 . S
H2175 C2202 0.950 . S
H2176 C2205 0.950 . S
H2177 C2206 0.950 . S
H2178 C2208 0.950 . S
H2179 C2209 0.950 . S
C2180 H2162 0.951 . S
C2180 C2181 1.356 1_655 S
C2180 C2182 1.388 . S
C2181 C2180 1.356 1_455 S
C2181 C2185 1.395 . S
C2182 H2163 0.951 . S
C2182 C2180 1.388 . S
C2182 C2183 1.388 . S
C2183 C2182 1.388 . S
C2183 C2184 1.391 1_655 S
C2183 C2186 1.498 . S
C2184 H2164 0.950 . S
C2184 C2183 1.391 1_455 S
C2184 C2185 1.374 . S
C2185 H2165 0.950 . S
C2185 C2181 1.395 . S
C2185 C2184 1.374 . S
C2186 C2183 1.498 . S
C2186 C2187 1.365 1_655 S
C2186 C2188 1.398 . S
C2187 H2166 0.950 . S
C2187 C2186 1.365 1_455 S
C2187 C2203 1.377 . S
C2188 C2186 1.398 . S
C2188 C2189 1.524 . S
C2188 C2202 1.377 . S
C2189 C2188 1.524 . S
C2189 C2190 1.397 . S
C2189 C2194 1.363 . S
C2190 H2167 0.950 . S
C2190 C2189 1.397 . S
C2190 C2191 1.334 . S
C2191 H2168 0.950 . S
C2191 C2190 1.334 . S
C2191 C2192 1.287 . S
C2192 C2191 1.287 . S
C2192 C2193 1.524 . S
C2192 H2211 0.913 . S
C2193 H2169 0.950 . S
C2193 C2192 1.524 . S
C2193 C2194 1.415 . S
C2194 H2170 0.950 . S
C2194 C2189 1.363 . S
C2194 C2193 1.415 . S
C2195 H2171 0.951 . S
C2195 C2196 1.366 1_455 S
C2195 C2197 1.388 . S
C2196 C2195 1.366 1_655 S
C2196 C2200 1.385 . S
C2197 H2172 0.951 . S
C2197 C2195 1.388 . S
C2197 C2198 1.357 1_455 S
C2198 C2197 1.357 1_655 S
C2198 C2199 1.422 . S
C2198 C2201 1.498 . S
C2199 H2173 0.950 . S
C2199 C2198 1.422 . S
C2199 C2200 1.374 . S
C2200 H2174 0.950 . S
C2200 C2196 1.385 . S
C2200 C2199 1.374 . S
C2201 C2198 1.498 . S
C2201 C2202 1.399 . S
C2201 C2203 1.364 1_655 S
C2202 H2175 0.950 . S
C2202 C2188 1.377 . S
C2202 C2201 1.399 . S
C2203 C2187 1.377 . S
C2203 C2201 1.364 1_455 S
C2203 C2204 1.524 . S
C2204 C2203 1.524 . S
C2204 C2205 1.397 . S
C2204 C2209 1.363 . S
C2205 H2176 0.950 . S
C2205 C2204 1.397 . S
C2205 C2206 1.334 . S
C2206 H2177 0.950 . S
C2206 C2205 1.334 . S
C2206 C2207 1.287 . S
C2207 C2206 1.287 . S
C2207 C2208 1.524 . S
C2207 H2210 0.999 . S
C2208 H2178 0.950 . S
C2208 C2207 1.524 . S
C2208 C2209 1.415 . S
C2209 H2179 0.950 . S
C2209 C2204 1.363 . S
C2209 C2208 1.415 . S
H2210 C2207 0.999 . S
H2211 C2192 0.913 . S
H2212 C2230 0.952 . S
H2213 C2232 0.950 1_565 S
H2214 C2234 0.950 . S
H2215 C2235 0.950 . S
H2216 C2237 0.950 . S
H2217 C2240 0.950 . S
H2218 C2241 0.950 . S
H2219 C2243 0.950 . S
H2220 C2244 0.950 . S
H2221 C2245 0.950 1_545 S
H2222 C2247 0.950 . S
H2223 C2249 0.950 . S
H2224 C2250 0.950 . S
H2225 C2252 0.950 . S
H2226 C2255 0.950 . S
H2227 C2256 0.950 . S
H2228 C2258 0.950 . S
H2229 C2259 0.950 . S
C2230 H2212 0.952 . S
C2230 C2231 1.365 1_565 S
C2230 C2232 1.388 1_565 S
C2231 C2230 1.365 1_545 S
C2231 C2235 1.385 . S
C2232 H2213 0.950 1_545 S
C2232 C2230 1.388 1_545 S
C2232 C2233 1.365 . S
C2233 C2232 1.365 . S
C2233 C2234 1.414 . S
C2233 C2236 1.499 . S
C2234 H2214 0.950 . S
C2234 C2233 1.414 . S
C2234 C2235 1.374 . S
C2235 H2215 0.950 . S
C2235 C2231 1.385 . S
C2235 C2234 1.374 . S
C2236 C2233 1.499 . S
C2236 C2237 1.373 1_545 S
C2236 C2238 1.385 1_556 S
C2237 H2216 0.950 . S
C2237 C2236 1.373 1_565 S
C2237 C2253 1.377 . S
C2238 C2236 1.385 1_554 S
C2238 C2239 1.525 . S
C2238 C2252 1.381 . S
C2239 C2238 1.525 . S
C2239 C2240 1.397 1_554 S
C2239 C2244 1.363 . S
C2240 H2217 0.950 . S
C2240 C2239 1.397 1_556 S
C2240 C2241 1.334 . S
C2241 H2218 0.950 . S
C2241 C2240 1.334 . S
C2241 C2242 1.287 1_556 S
C2242 C2241 1.287 1_554 S
C2242 C2243 1.524 . S
C2242 H2261 0.913 . S
C2243 H2219 0.950 . S
C2243 C2242 1.524 . S
C2243 C2244 1.415 . S
C2244 H2220 0.950 . S
C2244 C2239 1.363 . S
C2244 C2243 1.415 . S
C2245 H2221 0.950 1_565 S
C2245 C2246 1.366 . S
C2245 C2247 1.388 . S
C2246 C2245 1.366 . S
C2246 C2250 1.385 . S
C2247 H2222 0.950 . S
C2247 C2245 1.388 . S
C2247 C2248 1.368 . S
C2248 C2247 1.368 . S
C2248 C2249 1.414 . S
C2248 C2251 1.499 . S
C2249 H2223 0.950 . S
C2249 C2248 1.414 . S
C2249 C2250 1.374 . S
C2250 H2224 0.950 . S
C2250 C2246 1.385 . S
C2250 C2249 1.374 . S
C2251 C2248 1.499 . S
C2251 C2252 1.373 1_565 S
C2251 C2253 1.389 1_554 S
C2252 H2225 0.950 . S
C2252 C2238 1.381 . S
C2252 C2251 1.373 1_545 S
C2253 C2237 1.377 . S
C2253 C2251 1.389 1_556 S
C2253 C2254 1.524 . S
C2254 C2253 1.524 . S
C2254 C2255 1.397 1_556 S
C2254 C2259 1.363 . S
C2255 H2226 0.950 . S
C2255 C2254 1.397 1_554 S
C2255 C2256 1.334 . S
C2256 H2227 0.950 . S
C2256 C2255 1.334 . S
C2256 C2257 1.287 1_554 S
C2257 C2256 1.287 1_556 S
C2257 C2258 1.524 . S
C2257 H2260 0.999 . S
C2258 H2228 0.950 . S
C2258 C2257 1.524 . S
C2258 C2259 1.415 . S
C2259 H2229 0.950 . S
C2259 C2254 1.363 . S
C2259 C2258 1.415 . S
H2260 C2257 0.999 . S
H2261 C2242 0.913 . S
H2262 C2280 0.951 . S
H2263 C2282 0.951 . S
H2264 C2284 0.950 . S
H2265 C2285 0.950 . S
H2266 C2287 0.950 . S
H2267 C2290 0.950 . S
H2268 C2291 0.950 . S
H2269 C2293 0.950 . S
H2270 C2294 0.950 . S
H2271 C2295 0.951 . S
H2272 C2297 0.951 . S
H2273 C2299 0.950 . S
H2274 C2300 0.950 . S
H2275 C2302 0.950 . S
H2276 C2305 0.950 . S
H2277 C2306 0.950 . S
H2278 C2308 0.950 . S
H2279 C2309 0.950 . S
C2280 H2262 0.951 . S
C2280 C2281 1.366 . S
C2280 C2282 1.388 . S
C2281 C2280 1.366 . S
C2281 C2285 1.385 . S
C2282 H2263 0.951 . S
C2282 C2280 1.388 . S
C2282 C2283 1.366 . S
C2283 C2282 1.366 . S
C2283 C2284 1.414 . S
C2283 C2286 1.499 . S
C2284 H2264 0.950 . S
C2284 C2283 1.414 . S
C2284 C2285 1.374 . S
C2285 H2265 0.950 . S
C2285 C2281 1.385 . S
C2285 C2284 1.374 . S
C2286 C2283 1.499 . S
C2286 C2287 1.373 . S
C2286 C2288 1.389 1_554 S
C2287 H2266 0.950 . S
C2287 C2286 1.373 . S
C2287 C2303 1.387 . S
C2288 C2286 1.389 1_556 S
C2288 C2289 1.524 . S
C2288 C2302 1.377 . S
C2289 C2288 1.524 . S
C2289 C2290 1.397 1_556 S
C2289 C2294 1.363 . S
C2290 H2267 0.950 . S
C2290 C2289 1.397 1_554 S
C2290 C2291 1.334 . S
C2291 H2268 0.950 . S
C2291 C2290 1.334 . S
C2291 C2292 1.287 1_554 S
C2292 C2291 1.287 1_556 S
C2292 C2293 1.524 . S
C2292 H2311 0.913 . S
C2293 H2269 0.950 . S
C2293 C2292 1.524 . S
C2293 C2294 1.415 . S
C2294 H2270 0.950 . S
C2294 C2289 1.363 . S
C2294 C2293 1.415 . S
C2295 H2271 0.951 . S
C2295 C2296 1.366 . S
C2295 C2297 1.388 . S
C2296 C2295 1.366 . S
C2296 C2300 1.385 . S
C2297 H2272 0.951 . S
C2297 C2295 1.388 . S
C2297 C2298 1.366 . S
C2298 C2297 1.366 . S
C2298 C2299 1.414 . S
C2298 C2301 1.499 . S
C2299 H2273 0.950 . S
C2299 C2298 1.414 . S
C2299 C2300 1.374 . S
C2300 H2274 0.950 . S
C2300 C2296 1.385 . S
C2300 C2299 1.374 . S
C2301 C2298 1.499 . S
C2301 C2302 1.373 . S
C2301 C2303 1.379 1_556 S
C2302 H2275 0.950 . S
C2302 C2288 1.377 . S
C2302 C2301 1.373 . S
C2303 C2287 1.387 . S
C2303 C2301 1.379 1_554 S
C2303 C2304 1.526 . S
C2304 C2303 1.526 . S
C2304 C2305 1.397 1_554 S
C2304 C2309 1.363 . S
C2305 H2276 0.950 . S
C2305 C2304 1.397 1_556 S
C2305 C2306 1.334 . S
C2306 H2277 0.950 . S
C2306 C2305 1.334 . S
C2306 C2307 1.287 1_556 S
C2307 C2306 1.287 1_554 S
C2307 C2308 1.524 . S
C2307 H2310 0.999 . S
C2308 H2278 0.950 . S
C2308 C2307 1.524 . S
C2308 C2309 1.415 . S
C2309 H2279 0.950 . S
C2309 C2304 1.363 . S
C2309 C2308 1.415 . S
H2310 C2307 0.999 . S
H2311 C2292 0.913 . S
H2312 C2330 0.951 . S
H2313 C2332 0.951 . S
H2314 C2334 0.950 . S
H2315 C2335 0.950 . S
H2316 C2337 0.950 . S
H2317 C2340 0.950 . S
H2318 C2341 0.950 . S
H2319 C2343 0.950 . S
H2320 C2344 0.950 . S
H2321 C2345 0.951 . S
H2322 C2347 0.951 . S
H2323 C2349 0.950 . S
H2324 C2350 0.950 . S
H2325 C2352 0.950 . S
H2326 C2355 0.950 . S
H2327 C2356 0.950 . S
H2328 C2358 0.950 . S
H2329 C2359 0.950 . S
C2330 H2312 0.951 . S
C2330 C2331 1.358 1_565 S
C2330 C2332 1.388 . S
C2331 C2330 1.358 1_545 S
C2331 C2335 1.392 . S
C2332 H2313 0.951 . S
C2332 C2330 1.388 . S
C2332 C2333 1.393 . S
C2333 C2332 1.393 . S
C2333 C2334 1.386 1_565 S
C2333 C2336 1.499 . S
C2334 H2314 0.950 . S
C2334 C2333 1.386 1_545 S
C2334 C2335 1.374 . S
C2335 H2315 0.950 . S
C2335 C2331 1.392 . S
C2335 C2334 1.374 . S
C2336 C2333 1.499 . S
C2336 C2337 1.337 1_565 S
C2336 C2338 1.425 . S
C2337 H2316 0.950 . S
C2337 C2336 1.337 1_545 S
C2337 C2353 1.377 . S
C2338 C2336 1.425 . S
C2338 C2339 1.524 . S
C2338 C2352 1.377 . S
C2339 C2338 1.524 . S
C2339 C2340 1.397 . S
C2339 C2344 1.363 . S
C2340 H2317 0.950 . S
C2340 C2339 1.397 . S
C2340 C2341 1.334 . S
C2341 H2318 0.950 . S
C2341 C2340 1.334 . S
C2341 C2342 1.287 . S
C2342 C2341 1.287 . S
C2342 C2343 1.524 . S
C2342 H2361 0.913 . S
C2343 H2319 0.950 . S
C2343 C2342 1.524 . S
C2343 C2344 1.415 . S
C2344 H2320 0.950 . S
C2344 C2339 1.363 . S
C2344 C2343 1.415 . S
C2345 H2321 0.951 . S
C2345 C2346 1.366 1_545 S
C2345 C2347 1.388 . S
C2346 C2345 1.366 1_565 S
C2346 C2350 1.385 . S
C2347 H2322 0.951 . S
C2347 C2345 1.388 . S
C2347 C2348 1.364 . S
C2348 C2347 1.364 . S
C2348 C2349 1.416 1_545 S
C2348 C2351 1.499 1_545 S
C2349 H2323 0.950 . S
C2349 C2348 1.416 1_565 S
C2349 C2350 1.374 . S
C2350 H2324 0.950 . S
C2350 C2346 1.385 . S
C2350 C2349 1.374 . S
C2351 C2348 1.499 1_565 S
C2351 C2352 1.373 . S
C2351 C2353 1.390 1_565 S
C2352 H2325 0.950 . S
C2352 C2338 1.377 . S
C2352 C2351 1.373 . S
C2353 C2337 1.377 . S
C2353 C2351 1.390 1_545 S
C2353 C2354 1.524 . S
C2354 C2353 1.524 . S
C2354 C2355 1.397 . S
C2354 C2359 1.363 . S
C2355 H2326 0.950 . S
C2355 C2354 1.397 . S
C2355 C2356 1.334 . S
C2356 H2327 0.950 . S
C2356 C2355 1.334 . S
C2356 C2357 1.287 . S
C2357 C2356 1.287 . S
C2357 C2358 1.524 . S
C2357 H2360 0.999 . S
C2358 H2328 0.950 . S
C2358 C2357 1.524 . S
C2358 C2359 1.415 . S
C2359 H2329 0.950 . S
C2359 C2354 1.363 . S
C2359 C2358 1.415 . S
H2360 C2357 0.999 . S
H2361 C2342 0.913 . S
H2362 C2380 0.951 . S
H2363 C2382 0.951 . S
H2364 C2384 0.950 . S
H2365 C2385 0.950 . S
H2366 C2387 0.950 . S
H2367 C2390 0.950 . S
H2368 C2391 0.950 . S
H2369 C2393 0.950 . S
H2370 C2394 0.950 . S
H2371 C2395 0.951 . S
H2372 C2397 0.951 . S
H2373 C2399 0.950 . S
H2374 C2400 0.950 . S
H2375 C2402 0.950 . S
H2376 C2405 0.950 . S
H2377 C2406 0.950 . S
H2378 C2408 0.950 . S
H2379 C2409 0.950 . S
C2380 H2362 0.951 . S
C2380 C2381 1.366 . S
C2380 C2382 1.388 . S
C2381 C2380 1.366 . S
C2381 C2385 1.385 . S
C2382 H2363 0.951 . S
C2382 C2380 1.388 . S
C2382 C2383 1.366 . S
C2383 C2382 1.366 . S
C2383 C2384 1.414 . S
C2383 C2386 1.499 . S
C2384 H2364 0.950 . S
C2384 C2383 1.414 . S
C2384 C2385 1.374 . S
C2385 H2365 0.950 . S
C2385 C2381 1.385 . S
C2385 C2384 1.374 . S
C2386 C2383 1.499 . S
C2386 C2387 1.373 . S
C2386 C2388 1.389 . S
C2387 H2366 0.950 . S
C2387 C2386 1.373 . S
C2387 C2403 1.377 . S
C2388 C2386 1.389 . S
C2388 C2389 1.524 . S
C2388 C2402 1.377 . S
C2389 C2388 1.524 . S
C2389 C2390 1.397 . S
C2389 C2394 1.363 . S
C2390 H2367 0.950 . S
C2390 C2389 1.397 . S
C2390 C2391 1.334 . S
C2391 H2368 0.950 . S
C2391 C2390 1.334 . S
C2391 C2392 1.287 . S
C2392 C2391 1.287 . S
C2392 C2393 1.524 . S
C2392 H2411 0.913 . S
C2393 H2369 0.950 . S
C2393 C2392 1.524 . S
C2393 C2394 1.415 . S
C2394 H2370 0.950 . S
C2394 C2389 1.363 . S
C2394 C2393 1.415 . S
C2395 H2371 0.951 . S
C2395 C2396 1.366 . S
C2395 C2397 1.388 . S
C2396 C2395 1.366 . S
C2396 C2400 1.385 . S
C2397 H2372 0.951 . S
C2397 C2395 1.388 . S
C2397 C2398 1.366 . S
C2398 C2397 1.366 . S
C2398 C2399 1.414 . S
C2398 C2401 1.499 . S
C2399 H2373 0.950 . S
C2399 C2398 1.414 . S
C2399 C2400 1.374 . S
C2400 H2374 0.950 . S
C2400 C2396 1.385 . S
C2400 C2399 1.374 . S
C2401 C2398 1.499 . S
C2401 C2402 1.373 . S
C2401 C2403 1.389 . S
C2402 H2375 0.950 . S
C2402 C2388 1.377 . S
C2402 C2401 1.373 . S
C2403 C2387 1.377 . S
C2403 C2401 1.389 . S
C2403 C2404 1.524 . S
C2404 C2403 1.524 . S
C2404 C2405 1.397 . S
C2404 C2409 1.363 . S
C2405 H2376 0.950 . S
C2405 C2404 1.397 . S
C2405 C2406 1.334 . S
C2406 H2377 0.950 . S
C2406 C2405 1.334 . S
C2406 C2407 1.287 . S
C2407 C2406 1.287 . S
C2407 C2408 1.524 . S
C2407 H2410 0.999 . S
C2408 H2378 0.950 . S
C2408 C2407 1.524 . S
C2408 C2409 1.415 . S
C2409 H2379 0.950 . S
C2409 C2404 1.363 . S
C2409 C2408 1.415 . S
H2410 C2407 0.999 . S
H2411 C2392 0.913 . S
H2412 C2430 0.951 . S
H2413 C2432 0.951 . S
H2414 C2434 0.949 1_554 S
H2415 C2435 0.949 1_554 S
H2416 C2437 0.950 . S
H2417 C2440 0.950 . S
H2418 C2441 0.950 . S
H2419 C2443 0.950 . S
H2420 C2444 0.950 . S
H2421 C2445 0.951 . S
H2422 C2447 0.951 . S
H2423 C2449 0.951 . S
H2424 C2450 0.949 . S
H2425 C2452 0.953 . S
H2426 C2455 0.950 . S
H2427 C2456 0.950 . S
H2428 C2458 0.950 . S
H2429 C2459 0.950 . S
C2430 H2412 0.951 . S
C2430 C2431 1.366 . S
C2430 C2432 1.388 . S
C2431 C2430 1.366 . S
C2431 C2435 1.385 . S
C2432 H2413 0.951 . S
C2432 C2430 1.388 . S
C2432 C2433 1.366 . S
C2433 C2432 1.366 . S
C2433 C2434 1.415 . S
C2433 C2436 1.499 . S
C2434 H2414 0.949 1_556 S
C2434 C2433 1.415 . S
C2434 C2435 1.374 . S
C2435 H2415 0.949 1_556 S
C2435 C2431 1.385 . S
C2435 C2434 1.374 . S
C2436 C2433 1.499 . S
C2436 C2437 1.373 1_456 S
C2436 C2438 1.389 . S
C2437 H2416 0.950 . S
C2437 C2436 1.373 1_654 S
C2437 C2453 1.377 . S
C2438 C2436 1.389 . S
C2438 C2439 1.524 . S
C2438 C2452 1.377 1_455 S
C2439 C2438 1.524 . S
C2439 C2440 1.397 . S
C2439 C2444 1.363 . S
C2440 H2417 0.950 . S
C2440 C2439 1.397 . S
C2440 C2441 1.334 . S
C2441 H2418 0.950 . S
C2441 C2440 1.334 . S
C2441 C2442 1.287 . S
C2442 C2441 1.287 . S
C2442 C2443 1.524 . S
C2442 H2461 0.913 . S
C2443 H2419 0.950 . S
C2443 C2442 1.524 . S
C2443 C2444 1.415 . S
C2444 H2420 0.950 . S
C2444 C2439 1.363 . S
C2444 C2443 1.415 . S
C2445 H2421 0.951 . S
C2445 C2446 1.367 . S
C2445 C2447 1.388 . S
C2446 C2445 1.367 . S
C2446 C2450 1.384 1_554 S
C2447 H2422 0.951 . S
C2447 C2445 1.388 . S
C2447 C2448 1.366 . S
C2448 C2447 1.366 . S
C2448 C2449 1.413 1_554 S
C2448 C2451 1.499 . S
C2449 H2423 0.951 . S
C2449 C2448 1.413 1_556 S
C2449 C2450 1.374 . S
C2450 H2424 0.949 . S
C2450 C2446 1.384 1_556 S
C2450 C2449 1.374 . S
C2451 C2448 1.499 . S
C2451 C2452 1.373 1_554 S
C2451 C2453 1.389 . S
C2452 H2425 0.953 . S
C2452 C2438 1.377 1_655 S
C2452 C2451 1.373 1_556 S
C2453 C2437 1.377 . S
C2453 C2451 1.389 . S
C2453 C2454 1.524 . S
C2454 C2453 1.524 . S
C2454 C2455 1.397 . S
C2454 C2459 1.363 . S
C2455 H2426 0.950 . S
C2455 C2454 1.397 . S
C2455 C2456 1.334 . S
C2456 H2427 0.950 . S
C2456 C2455 1.334 . S
C2456 C2457 1.287 . S
C2457 C2456 1.287 . S
C2457 C2458 1.524 . S
C2457 H2460 0.999 . S
C2458 H2428 0.950 . S
C2458 C2457 1.524 . S
C2458 C2459 1.415 . S
C2459 H2429 0.950 . S
C2459 C2454 1.363 . S
C2459 C2458 1.415 . S
H2460 C2457 0.999 . S
H2461 C2442 0.913 . S
H2462 C2480 0.951 . S
H2463 C2482 0.951 . S
H2464 C2484 0.950 . S
H2465 C2485 0.950 . S
H2466 C2487 0.950 . S
H2467 C2490 0.950 . S
H2468 C2491 0.950 . S
H2469 C2493 0.950 . S
H2470 C2494 0.950 . S
H2471 C2495 0.951 . S
H2472 C2497 0.951 . S
H2473 C2499 0.950 . S
H2474 C2500 0.950 . S
H2475 C2502 0.950 . S
H2476 C2505 0.950 . S
H2477 C2506 0.950 . S
H2478 C2508 0.950 . S
H2479 C2509 0.950 . S
C2480 H2462 0.951 . S
C2480 C2481 1.366 . S
C2480 C2482 1.388 . S
C2481 C2480 1.366 . S
C2481 C2485 1.385 . S
C2482 H2463 0.951 . S
C2482 C2480 1.388 . S
C2482 C2483 1.366 . S
C2483 C2482 1.366 . S
C2483 C2484 1.414 . S
C2483 C2486 1.499 . S
C2484 H2464 0.950 . S
C2484 C2483 1.414 . S
C2484 C2485 1.374 . S
C2485 H2465 0.950 . S
C2485 C2481 1.385 . S
C2485 C2484 1.374 . S
C2486 C2483 1.499 . S
C2486 C2487 1.373 . S
C2486 C2488 1.389 . S
C2487 H2466 0.950 . S
C2487 C2486 1.373 . S
C2487 C2503 1.377 1_455 S
C2488 C2486 1.389 . S
C2488 C2489 1.524 . S
C2488 C2502 1.377 1_455 S
C2489 C2488 1.524 . S
C2489 C2490 1.397 . S
C2489 C2494 1.363 . S
C2490 H2467 0.950 . S
C2490 C2489 1.397 . S
C2490 C2491 1.334 . S
C2491 H2468 0.950 . S
C2491 C2490 1.334 . S
C2491 C2492 1.287 . S
C2492 C2491 1.287 . S
C2492 C2493 1.524 . S
C2492 H2511 0.913 . S
C2493 H2469 0.950 . S
C2493 C2492 1.524 . S
C2493 C2494 1.415 . S
C2494 H2470 0.950 . S
C2494 C2489 1.363 . S
C2494 C2493 1.415 . S
C2495 H2471 0.951 . S
C2495 C2496 1.366 . S
C2495 C2497 1.388 . S
C2496 C2495 1.366 . S
C2496 C2500 1.385 . S
C2497 H2472 0.951 . S
C2497 C2495 1.388 . S
C2497 C2498 1.366 . S
C2498 C2497 1.366 . S
C2498 C2499 1.414 . S
C2498 C2501 1.499 . S
C2499 H2473 0.950 . S
C2499 C2498 1.414 . S
C2499 C2500 1.374 . S
C2500 H2474 0.950 . S
C2500 C2496 1.385 . S
C2500 C2499 1.374 . S
C2501 C2498 1.499 . S
C2501 C2502 1.373 . S
C2501 C2503 1.389 . S
C2502 H2475 0.950 . S
C2502 C2488 1.377 1_655 S
C2502 C2501 1.373 . S
C2503 C2487 1.377 1_655 S
C2503 C2501 1.389 . S
C2503 C2504 1.524 . S
C2504 C2503 1.524 . S
C2504 C2505 1.397 . S
C2504 C2509 1.363 . S
C2505 H2476 0.950 . S
C2505 C2504 1.397 . S
C2505 C2506 1.334 . S
C2506 H2477 0.950 . S
C2506 C2505 1.334 . S
C2506 C2507 1.287 . S
C2507 C2506 1.287 . S
C2507 C2508 1.524 . S
C2507 H2510 0.999 . S
C2508 H2478 0.950 . S
C2508 C2507 1.524 . S
C2508 C2509 1.415 . S
C2509 H2479 0.950 . S
C2509 C2504 1.363 . S
C2509 C2508 1.415 . S
H2510 C2507 0.999 . S
H2511 C2492 0.913 . S
H2512 C2530 0.951 . S
H2513 C2532 0.951 . S
H2514 C2534 0.950 . S
H2515 C2535 0.950 . S
H2516 C2537 0.950 . S
H2517 C2540 0.950 . S
H2518 C2541 0.950 . S
H2519 C2543 0.950 . S
H2520 C2544 0.950 . S
H2521 C2545 0.951 . S
H2522 C2547 0.951 . S
H2523 C2549 0.950 . S
H2524 C2550 0.950 . S
H2525 C2552 0.950 . S
H2526 C2555 0.950 . S
H2527 C2556 0.950 . S
H2528 C2558 0.950 . S
H2529 C2559 0.950 . S
C2530 H2512 0.951 . S
C2530 C2531 1.366 . S
C2530 C2532 1.388 . S
C2531 C2530 1.366 . S
C2531 C2535 1.385 . S
C2532 H2513 0.951 . S
C2532 C2530 1.388 . S
C2532 C2533 1.366 . S
C2533 C2532 1.366 . S
C2533 C2534 1.414 . S
C2533 C2536 1.499 . S
C2534 H2514 0.950 . S
C2534 C2533 1.414 . S
C2534 C2535 1.374 . S
C2535 H2515 0.950 . S
C2535 C2531 1.385 . S
C2535 C2534 1.374 . S
C2536 C2533 1.499 . S
C2536 C2537 1.373 . S
C2536 C2538 1.389 . S
C2537 H2516 0.950 . S
C2537 C2536 1.373 . S
C2537 C2553 1.377 . S
C2538 C2536 1.389 . S
C2538 C2539 1.524 . S
C2538 C2552 1.377 . S
C2539 C2538 1.524 . S
C2539 C2540 1.397 . S
C2539 C2544 1.363 . S
C2540 H2517 0.950 . S
C2540 C2539 1.397 . S
C2540 C2541 1.334 . S
C2541 H2518 0.950 . S
C2541 C2540 1.334 . S
C2541 C2542 1.287 . S
C2542 C2541 1.287 . S
C2542 C2543 1.524 . S
C2542 H2561 0.913 . S
C2543 H2519 0.950 . S
C2543 C2542 1.524 . S
C2543 C2544 1.415 . S
C2544 H2520 0.950 . S
C2544 C2539 1.363 . S
C2544 C2543 1.415 . S
C2545 H2521 0.951 . S
C2545 C2546 1.366 . S
C2545 C2547 1.388 . S
C2546 C2545 1.366 . S
C2546 C2550 1.385 . S
C2547 H2522 0.951 . S
C2547 C2545 1.388 . S
C2547 C2548 1.366 . S
C2548 C2547 1.366 . S
C2548 C2549 1.414 . S
C2548 C2551 1.499 . S
C2549 H2523 0.950 . S
C2549 C2548 1.414 . S
C2549 C2550 1.374 . S
C2550 H2524 0.950 . S
C2550 C2546 1.385 . S
C2550 C2549 1.374 . S
C2551 C2548 1.499 . S
C2551 C2552 1.373 . S
C2551 C2553 1.389 . S
C2552 H2525 0.950 . S
C2552 C2538 1.377 . S
C2552 C2551 1.373 . S
C2553 C2537 1.377 . S
C2553 C2551 1.389 . S
C2553 C2554 1.524 . S
C2554 C2553 1.524 . S
C2554 C2555 1.397 . S
C2554 C2559 1.363 . S
C2555 H2526 0.950 . S
C2555 C2554 1.397 . S
C2555 C2556 1.334 . S
C2556 H2527 0.950 . S
C2556 C2555 1.334 . S
C2556 C2557 1.287 . S
C2557 C2556 1.287 . S
C2557 C2558 1.524 . S
C2557 H2560 0.999 . S
C2558 H2528 0.950 . S
C2558 C2557 1.524 . S
C2558 C2559 1.415 . S
C2559 H2529 0.950 . S
C2559 C2554 1.363 . S
C2559 C2558 1.415 . S
H2560 C2557 0.999 . S
H2561 C2542 0.913 . S
H2562 C2580 0.951 . S
H2563 C2582 0.951 . S
H2564 C2584 0.950 . S
H2565 C2585 0.950 . S
H2566 C2587 0.950 . S
H2567 C2590 0.950 . S
H2568 C2591 0.950 . S
H2569 C2593 0.950 . S
H2570 C2594 0.950 . S
H2571 C2595 0.951 . S
H2572 C2597 0.951 . S
H2573 C2599 0.950 . S
H2574 C2600 0.950 . S
H2575 C2602 0.950 . S
H2576 C2605 0.950 . S
H2577 C2606 0.950 . S
H2578 C2608 0.950 . S
H2579 C2609 0.950 . S
C2580 H2562 0.951 . S
C2580 C2581 1.366 . S
C2580 C2582 1.388 . S
C2581 C2580 1.366 . S
C2581 C2585 1.385 . S
C2582 H2563 0.951 . S
C2582 C2580 1.388 . S
C2582 C2583 1.366 . S
C2583 C2582 1.366 . S
C2583 C2584 1.414 . S
C2583 C2586 1.499 . S
C2584 H2564 0.950 . S
C2584 C2583 1.414 . S
C2584 C2585 1.374 . S
C2585 H2565 0.950 . S
C2585 C2581 1.385 . S
C2585 C2584 1.374 . S
C2586 C2583 1.499 . S
C2586 C2587 1.373 . S
C2586 C2588 1.389 . S
C2587 H2566 0.950 . S
C2587 C2586 1.373 . S
C2587 C2603 1.377 . S
C2588 C2586 1.389 . S
C2588 C2589 1.524 . S
C2588 C2602 1.377 . S
C2589 C2588 1.524 . S
C2589 C2590 1.397 . S
C2589 C2594 1.363 . S
C2590 H2567 0.950 . S
C2590 C2589 1.397 . S
C2590 C2591 1.334 . S
C2591 H2568 0.950 . S
C2591 C2590 1.334 . S
C2591 C2592 1.287 . S
C2592 C2591 1.287 . S
C2592 C2593 1.524 . S
C2592 H2611 0.913 . S
C2593 H2569 0.950 . S
C2593 C2592 1.524 . S
C2593 C2594 1.415 . S
C2594 H2570 0.950 . S
C2594 C2589 1.363 . S
C2594 C2593 1.415 . S
C2595 H2571 0.951 . S
C2595 C2596 1.366 . S
C2595 C2597 1.388 . S
C2596 C2595 1.366 . S
C2596 C2600 1.385 . S
C2597 H2572 0.951 . S
C2597 C2595 1.388 . S
C2597 C2598 1.366 . S
C2598 C2597 1.366 . S
C2598 C2599 1.414 . S
C2598 C2601 1.499 . S
C2599 H2573 0.950 . S
C2599 C2598 1.414 . S
C2599 C2600 1.374 . S
C2600 H2574 0.950 . S
C2600 C2596 1.385 . S
C2600 C2599 1.374 . S
C2601 C2598 1.499 . S
C2601 C2602 1.373 . S
C2601 C2603 1.389 . S
C2602 H2575 0.950 . S
C2602 C2588 1.377 . S
C2602 C2601 1.373 . S
C2603 C2587 1.377 . S
C2603 C2601 1.389 . S
C2603 C2604 1.524 . S
C2604 C2603 1.524 . S
C2604 C2605 1.397 . S
C2604 C2609 1.363 . S
C2605 H2576 0.950 . S
C2605 C2604 1.397 . S
C2605 C2606 1.334 . S
C2606 H2577 0.950 . S
C2606 C2605 1.334 . S
C2606 C2607 1.287 . S
C2607 C2606 1.287 . S
C2607 C2608 1.524 . S
C2607 H2610 0.999 . S
C2608 H2578 0.950 . S
C2608 C2607 1.524 . S
C2608 C2609 1.415 . S
C2609 H2579 0.950 . S
C2609 C2604 1.363 . S
C2609 C2608 1.415 . S
H2610 C2607 0.999 . S
H2611 C2592 0.913 . S
H2612 C2630 0.951 . S
H2613 C2632 0.951 . S
H2614 C2634 0.950 . S
H2615 C2635 0.950 . S
H2616 C2637 0.950 . S
H2617 C2640 0.950 . S
H2618 C2641 0.950 . S
H2619 C2643 0.950 . S
H2620 C2644 0.950 . S
H2621 C2645 0.951 . S
H2622 C2647 0.951 . S
H2623 C2649 0.950 . S
H2624 C2650 0.950 . S
H2625 C2652 0.950 . S
H2626 C2655 0.950 . S
H2627 C2656 0.950 . S
H2628 C2658 0.950 . S
H2629 C2659 0.950 . S
C2630 H2612 0.951 . S
C2630 C2631 1.366 . S
C2630 C2632 1.388 . S
C2631 C2630 1.366 . S
C2631 C2635 1.385 . S
C2632 H2613 0.951 . S
C2632 C2630 1.388 . S
C2632 C2633 1.366 . S
C2633 C2632 1.366 . S
C2633 C2634 1.414 . S
C2633 C2636 1.499 . S
C2634 H2614 0.950 . S
C2634 C2633 1.414 . S
C2634 C2635 1.374 . S
C2635 H2615 0.950 . S
C2635 C2631 1.385 . S
C2635 C2634 1.374 . S
C2636 C2633 1.499 . S
C2636 C2637 1.373 . S
C2636 C2638 1.389 . S
C2637 H2616 0.950 . S
C2637 C2636 1.373 . S
C2637 C2653 1.377 1_565 S
C2638 C2636 1.389 . S
C2638 C2639 1.524 . S
C2638 C2652 1.377 1_565 S
C2639 C2638 1.524 . S
C2639 C2640 1.397 . S
C2639 C2644 1.363 . S
C2640 H2617 0.950 . S
C2640 C2639 1.397 . S
C2640 C2641 1.334 . S
C2641 H2618 0.950 . S
C2641 C2640 1.334 . S
C2641 C2642 1.287 . S
C2642 C2641 1.287 . S
C2642 C2643 1.524 . S
C2642 H2661 0.913 . S
C2643 H2619 0.950 . S
C2643 C2642 1.524 . S
C2643 C2644 1.415 . S
C2644 H2620 0.950 . S
C2644 C2639 1.363 . S
C2644 C2643 1.415 . S
C2645 H2621 0.951 . S
C2645 C2646 1.366 . S
C2645 C2647 1.388 . S
C2646 C2645 1.366 . S
C2646 C2650 1.385 . S
C2647 H2622 0.951 . S
C2647 C2645 1.388 . S
C2647 C2648 1.366 . S
C2648 C2647 1.366 . S
C2648 C2649 1.414 . S
C2648 C2651 1.499 . S
C2649 H2623 0.950 . S
C2649 C2648 1.414 . S
C2649 C2650 1.374 . S
C2650 H2624 0.950 . S
C2650 C2646 1.385 . S
C2650 C2649 1.374 . S
C2651 C2648 1.499 . S
C2651 C2652 1.373 . S
C2651 C2653 1.389 . S
C2652 H2625 0.950 . S
C2652 C2638 1.377 1_545 S
C2652 C2651 1.373 . S
C2653 C2637 1.377 1_545 S
C2653 C2651 1.389 . S
C2653 C2654 1.524 . S
C2654 C2653 1.524 . S
C2654 C2655 1.397 . S
C2654 C2659 1.363 . S
C2655 H2626 0.950 . S
C2655 C2654 1.397 . S
C2655 C2656 1.334 . S
C2656 H2627 0.950 . S
C2656 C2655 1.334 . S
C2656 C2657 1.287 . S
C2657 C2656 1.287 . S
C2657 C2658 1.524 . S
C2657 H2660 0.999 . S
C2658 H2628 0.950 . S
C2658 C2657 1.524 . S
C2658 C2659 1.415 . S
C2659 H2629 0.950 . S
C2659 C2654 1.363 . S
C2659 C2658 1.415 . S
H2660 C2657 0.999 . S
H2661 C2642 0.913 . S
H2662 C2680 0.951 . S
H2663 C2682 0.951 . S
H2664 C2684 0.950 . S
H2665 C2685 0.950 . S
H2666 C2687 0.950 . S
H2667 C2690 0.950 . S
H2668 C2691 0.950 . S
H2669 C2693 0.950 . S
H2670 C2694 0.950 . S
H2671 C2695 0.951 . S
H2672 C2697 0.951 . S
H2673 C2699 0.950 . S
H2674 C2700 0.950 . S
H2675 C2702 0.950 . S
H2676 C2705 0.950 . S
H2677 C2706 0.950 . S
H2678 C2708 0.950 . S
H2679 C2709 0.950 . S
C2680 H2662 0.951 . S
C2680 C2681 1.369 . S
C2680 C2682 1.388 . S
C2681 C2680 1.369 . S
C2681 C2685 1.381 1_554 S
C2682 H2663 0.951 . S
C2682 C2680 1.388 . S
C2682 C2683 1.366 1_554 S
C2683 C2682 1.366 1_556 S
C2683 C2684 1.414 . S
C2683 C2686 1.499 . S
C2684 H2664 0.950 . S
C2684 C2683 1.414 . S
C2684 C2685 1.374 . S
C2685 H2665 0.950 . S
C2685 C2681 1.381 1_556 S
C2685 C2684 1.374 . S
C2686 C2683 1.499 . S
C2686 C2687 1.373 1_556 S
C2686 C2688 1.389 . S
C2687 H2666 0.950 . S
C2687 C2686 1.373 1_554 S
C2687 C2703 1.377 . S
C2688 C2686 1.389 . S
C2688 C2689 1.524 . S
C2688 C2702 1.377 . S
C2689 C2688 1.524 . S
C2689 C2690 1.397 . S
C2689 C2694 1.363 . S
C2690 H2667 0.950 . S
C2690 C2689 1.397 . S
C2690 C2691 1.334 . S
C2691 H2668 0.950 . S
C2691 C2690 1.334 . S
C2691 C2692 1.287 . S
C2692 C2691 1.287 . S
C2692 C2693 1.524 . S
C2692 H2711 0.913 . S
C2693 H2669 0.950 . S
C2693 C2692 1.524 . S
C2693 C2694 1.415 . S
C2694 H2670 0.950 . S
C2694 C2689 1.363 . S
C2694 C2693 1.415 . S
C2695 H2671 0.951 . S
C2695 C2696 1.366 . S
C2695 C2697 1.388 . S
C2696 C2695 1.366 . S
C2696 C2700 1.385 1_556 S
C2697 H2672 0.951 . S
C2697 C2695 1.388 . S
C2697 C2698 1.362 1_556 S
C2698 C2697 1.362 1_554 S
C2698 C2699 1.417 . S
C2698 C2701 1.498 . S
C2699 H2673 0.950 . S
C2699 C2698 1.417 . S
C2699 C2700 1.374 . S
C2700 H2674 0.950 . S
C2700 C2696 1.385 1_554 S
C2700 C2699 1.374 . S
C2701 C2698 1.498 . S
C2701 C2702 1.353 1_554 S
C2701 C2703 1.408 . S
C2702 H2675 0.950 . S
C2702 C2688 1.377 . S
C2702 C2701 1.353 1_556 S
C2703 C2687 1.377 . S
C2703 C2701 1.408 . S
C2703 C2704 1.524 . S
C2704 C2703 1.524 . S
C2704 C2705 1.397 . S
C2704 C2709 1.363 . S
C2705 H2676 0.950 . S
C2705 C2704 1.397 . S
C2705 C2706 1.334 . S
C2706 H2677 0.950 . S
C2706 C2705 1.334 . S
C2706 C2707 1.287 . S
C2707 C2706 1.287 . S
C2707 C2708 1.524 . S
C2707 H2710 0.999 . S
C2708 H2678 0.950 . S
C2708 C2707 1.524 . S
C2708 C2709 1.415 . S
C2709 H2679 0.950 . S
C2709 C2704 1.363 . S
C2709 C2708 1.415 . S
H2710 C2707 0.999 . S
H2711 C2692 0.913 . S
C331 C224 0.263 . S
C346 C3 0.236 . S
C381 C18 0.228 . S
C396 C213 0.405 . S
C431 C31 0.402 . S
C446 C252 0.417 . S
C481 C42 0.405 . S
C496 C237 0.482 . S
C531 C57 0.245 . S
C546 C278 0.269 . S
C581 C68 0.345 . S
C596 C291 0.383 . S
C631 C263 0.402 . S
C646 C83 0.223 . S
C681 C146 0.454 . S
C696 C94 0.344 . S
C731 C107 0.242 . S
C746 C44 0.269 . S
C781 C16 0.378 . S
C796 C120 0.345 . S
C831 C135 0.567 . S
C846 C5 0.579 . S
C881 C148 0.343 . S
C896 C185 0.452 . S
C931 C70 0.603 . S
C946 C161 0.570 . S
C981 C55 0.576 . S
C996 C174 0.567 . S
C1031 C187 0.343 . S
C1046 C96 0.451 . S
C1081 C200 0.347 . S
C1096 C81 0.381 . S
C1131 C122 0.605 . S
C1146 C211 0.571 . S
C1181 C133 0.483 . S
C1196 C226 0.402 . S
C1231 C109 0.576 . S
C1246 C239 0.566 . S
C1281 C250 0.401 . S
C1296 C302 0.419 . S
C1331 C198 0.602 . S
C1346 C265 0.570 . S
C1381 C276 0.406 . S
C1396 C172 0.483 . S
C1431 C159 0.402 . S
C1446 C289 0.222 . S
C1481 C304 0.403 . S
C1496 C29 0.417 . S
C1531 C4 2.105 . S
C1546 C23 2.096 . S
C1581 C43 1.995 . S
C1596 C36 2.004 . S
C1631 C62 2.105 . S
C1646 C88 2.096 . S
C1681 C69 2.291 . S
C1696 C95 2.278 . S
C1731 C290 2.096 . S
C1746 C108 2.105 . S
C1781 C121 2.291 . S
C1796 C153 2.278 . S
C1831 C270 2.176 . S
C1846 C140 2.189 . S
C1881 C179 2.189 . S
C1896 C166 2.177 . S
C1931 C192 2.278 . S
C1946 C205 2.291 . S
C1981 C244 2.189 . S
C1996 C212 2.177 . S
C2031 C231 1.995 . S
C2046 C251 2.004 . S
C2081 C309 2.004 . S
C2096 C277 1.995 . S
C2131 C30 1.134 . S
C2146 C10 1.137 . S
C2181 C17 1.437 . S
C2196 C49 1.435 . S
C2231 C257 1.134 . S
C2246 C56 1.137 . S
C2281 C75 1.332 . S
C2296 C238 1.331 . S
C2331 C82 1.437 . S
C2346 C225 1.435 . S
C2381 C218 1.634 . S
C2396 C101 1.636 . S
C2431 C114 1.136 . S
C2446 C303 1.133 . S
C2481 C127 1.332 . S
C2496 C134 1.331 . S
C2531 C264 1.634 . S
C2546 C147 1.637 . S
C2581 C160 1.634 . S
C2596 C186 1.637 . S
C2631 C173 1.331 . S
C2646 C199 1.332 . S
C2681 C296 1.437 . S
C2696 C283 1.436 . S
