# Generated by pormake.
# Topology yfz, (5)-cn, num edge types: 1
# Building blocks:
#     Node 0, Type 0, BuildingBlock: XOMCOT_clean_sbu_0, # of connection points: 5
#     Node 1, Type 0, BuildingBlock: XOMCOT_clean_sbu_0, # of connection points: 5
#     Node 2, Type 0, BuildingBlock: XOMCOT_clean_sbu_0, # of connection points: 5
#     Node 3, Type 0, BuildingBlock: XOMCOT_clean_sbu_0, # of connection points: 5
#     Node 4, Type 0, BuildingBlock: XOMCOT_clean_sbu_0, # of connection points: 5
#     Node 5, Type 0, BuildingBlock: XOMCOT_clean_sbu_0, # of connection points: 5
#     Node 6, Type 0, BuildingBlock: XOMCOT_clean_sbu_0, # of connection points: 5
#     Node 7, Type 0, BuildingBlock: XOMCOT_clean_sbu_0, # of connection points: 5
#     Edge 8, Type (0, 0), BuildingBlock: EZIPEK_clean_linker_0, # of connection points: 2
#     Edge 9, Type (0, 0), BuildingBlock: EZIPEK_clean_linker_0, # of connection points: 2
#     Edge 10, Type (0, 0), BuildingBlock: EZIPEK_clean_linker_0, # of connection points: 2
#     Edge 11, Type (0, 0), BuildingBlock: EZIPEK_clean_linker_0, # of connection points: 2
#     Edge 12, Type (0, 0), BuildingBlock: EZIPEK_clean_linker_0, # of connection points: 2
#     Edge 13, Type (0, 0), BuildingBlock: EZIPEK_clean_linker_0, # of connection points: 2
#     Edge 14, Type (0, 0), BuildingBlock: EZIPEK_clean_linker_0, # of connection points: 2
#     Edge 15, Type (0, 0), BuildingBlock: EZIPEK_clean_linker_0, # of connection points: 2
#     Edge 16, Type (0, 0), BuildingBlock: EZIPEK_clean_linker_0, # of connection points: 2
#     Edge 17, Type (0, 0), BuildingBlock: EZIPEK_clean_linker_0, # of connection points: 2
#     Edge 18, Type (0, 0), BuildingBlock: EZIPEK_clean_linker_0, # of connection points: 2
#     Edge 19, Type (0, 0), BuildingBlock: EZIPEK_clean_linker_0, # of connection points: 2
#     Edge 20, Type (0, 0), BuildingBlock: EZIPEK_clean_linker_0, # of connection points: 2
#     Edge 21, Type (0, 0), BuildingBlock: EZIPEK_clean_linker_0, # of connection points: 2
#     Edge 22, Type (0, 0), BuildingBlock: EZIPEK_clean_linker_0, # of connection points: 2
#     Edge 23, Type (0, 0), BuildingBlock: EZIPEK_clean_linker_0, # of connection points: 2
#     Edge 24, Type (0, 0), BuildingBlock: EZIPEK_clean_linker_0, # of connection points: 2
#     Edge 25, Type (0, 0), BuildingBlock: EZIPEK_clean_linker_0, # of connection points: 2
#     Edge 26, Type (0, 0), BuildingBlock: EZIPEK_clean_linker_0, # of connection points: 2
#     Edge 27, Type (0, 0), BuildingBlock: EZIPEK_clean_linker_0, # of connection points: 2
# Relax obj value: 0.171
# Max RMSD: 0.156
# Mean RMSD: 0.156
data_MOF--net-yfz--node1-XOMCOT_clean_sbu_0--edge1-EZIPEK_clean_linker_0
_symmetry_space_group_name_H-M    P1
_symmetry_Int_Tables_number       1
_symmetry_cell_setting            triclinic
loop_
_symmetry_equiv_pos_as_xyz
'x, y, z'
_cell_length_a     38.458046
_cell_length_b     38.232393
_cell_length_c     13.47285
_cell_angle_alpha  89.862684
_cell_angle_beta   90.127484
_cell_angle_gamma 89.629348
loop_
_atom_site_label
_atom_site_type_symbol
_atom_site_fract_x
_atom_site_fract_y
_atom_site_fract_z
_atom_type_partial_charge
Co0 Co 0.56143 0.11639 0.35546 0.0
C1 C 0.56318 0.10646 0.13437 0.0
C2 C 0.51429 0.09251 0.1985 0.0
C3 C 0.51119 0.0909 0.09658 0.0
N4 N 0.54695 0.10215 0.22266 0.0
N5 N 0.54185 0.1002 0.05684 0.0
H6 H 0.58892 0.11682 0.12516 0.0
H7 H 0.49345 0.08912 0.25131 0.0
C8 C 0.53344 0.04319 0.39269 0.0
O9 O 0.55075 0.0313 0.3157 0.0
N10 N 0.57459 0.13041 0.48811 0.0
C11 C 0.60498 0.14441 0.51773 0.0
C12 C 0.6055 0.14552 0.62027 0.0
C13 C 0.55689 0.12369 0.57236 0.0
N14 N 0.57537 0.13216 0.65383 0.0
C15 C 0.63043 0.10582 0.28355 0.0
C16 C 0.64838 0.04824 0.39688 0.0
C17 C 0.67322 0.06304 0.33401 0.0
C18 C 0.66387 0.09198 0.27668 0.0
C19 C 0.61494 0.0631 0.40165 0.0
N20 N 0.60581 0.09106 0.34328 0.0
H21 H 0.62513 0.12958 0.24325 0.0
H22 H 0.59722 0.05274 0.45493 0.0
H23 H 0.62591 0.15173 0.46856 0.0
H24 H 0.53162 0.11145 0.57459 0.0
O25 O 0.57671 0.16111 0.30446 0.0
O26 O 0.52342 0.1506 0.3562 0.0
O27 O 0.53545 0.07545 0.41645 0.0
C28 C 0.54541 0.17278 0.31861 0.0
H29 H 0.48772 0.08568 0.05483 0.0
H30 H 0.62691 0.15383 0.66667 0.0
H31 H 0.65514 0.02631 0.44432 0.0
H32 H 0.68276 0.10464 0.22927 0.0
Co33 Co 0.36333 0.56062 0.84364 0.0
C34 C 0.36453 0.55976 0.62504 0.0
C35 C 0.39492 0.51748 0.6859 0.0
C36 C 0.39623 0.51551 0.58373 0.0
N37 N 0.37515 0.5453 0.71142 0.0
N38 N 0.37679 0.54186 0.54633 0.0
H39 H 0.34792 0.58265 0.61967 0.0
H40 H 0.40721 0.49958 0.73757 0.0
C41 C 0.42716 0.54422 0.96769 0.0
O42 O 0.42447 0.57522 1.00901 0.0
N43 N 0.35083 0.5755 0.97762 0.0
C44 C 0.33506 0.60542 1.00724 0.0
C45 C 0.33261 0.60549 0.10924 0.0
C46 C 0.35587 0.55707 0.0623 0.0
N47 N 0.34618 0.57527 0.14319 0.0
C48 C 0.36751 0.63343 0.80107 0.0
C49 C 0.4384 0.63756 0.7714 0.0
C50 C 0.41782 0.66774 0.76055 0.0
C51 C 0.38206 0.66529 0.77515 0.0
C52 C 0.42264 0.60587 0.79874 0.0
N53 N 0.38764 0.60439 0.81697 0.0
H54 H 0.33963 0.63219 0.80483 0.0
H55 H 0.43847 0.5825 0.80161 0.0
H56 H 0.32574 0.62609 0.95972 0.0
H57 H 0.36752 0.53133 0.06566 0.0
O58 O 0.31768 0.57442 0.79708 0.0
O59 O 0.33076 0.52189 0.85623 0.0
O60 O 0.4068 0.53609 0.89626 0.0
C61 C 0.3075 0.54314 0.81898 0.0
H62 H 0.40977 0.49598 0.54017 0.0
H63 H 0.3227 0.62648 0.1552 0.0
H64 H 0.46607 0.63835 0.75699 0.0
H65 H 0.36524 0.68783 0.76393 0.0
Co66 Co 0.91864 0.36891 0.34799 0.0
C67 C 0.91552 0.37878 0.13161 0.0
C68 C 0.96773 0.38353 0.18628 0.0
C69 C 0.96864 0.38366 0.08398 0.0
N70 N 0.93439 0.38077 0.21604 0.0
N71 N 0.93582 0.38063 0.05037 0.0
H72 H 0.88799 0.37322 0.12922 0.0
H73 H 0.98999 0.38298 0.23542 0.0
C74 C 0.95572 0.43972 0.38001 0.0
O75 O 0.95553 0.44857 0.28578 0.0
N76 N 0.90309 0.35667 0.48046 0.0
C77 C 0.87502 0.33795 0.50796 0.0
C78 C 0.87324 0.33729 0.61019 0.0
C79 C 0.91841 0.36632 0.56639 0.0
N80 N 0.90051 0.35519 0.64612 0.0
C81 C 0.84617 0.3714 0.30251 0.0
C82 C 0.83714 0.44306 0.29579 0.0
C83 C 0.80842 0.42141 0.27987 0.0
C84 C 0.81334 0.38526 0.28259 0.0
C85 C 0.8698 0.42799 0.31661 0.0
N86 N 0.87399 0.39244 0.32181 0.0
H87 H 0.84899 0.3434 0.30109 0.0
H88 H 0.89137 0.44518 0.32639 0.0
H89 H 0.85719 0.32515 0.45822 0.0
H90 H 0.94211 0.38131 0.57128 0.0
O91 O 0.90699 0.3227 0.29968 0.0
O92 O 0.95799 0.33658 0.36365 0.0
O93 O 0.94086 0.41182 0.40999 0.0
C94 C 0.93813 0.31285 0.32439 0.0
H95 H 0.99166 0.38374 0.03788 0.0
H96 H 0.85367 0.32452 0.65482 0.0
H97 H 0.83434 0.47123 0.29204 0.0
H98 H 0.79185 0.36772 0.26868 0.0
Co99 Co 0.11247 0.92426 0.8058 0.0
C100 C 0.11004 0.92334 0.58733 0.0
C101 C 0.07795 0.96457 0.64576 0.0
C102 C 0.07639 0.96591 0.54355 0.0
N103 N 0.09903 0.93784 0.6729 0.0
N104 N 0.09698 0.94031 0.50763 0.0
H105 H 0.12789 0.90139 0.58315 0.0
H106 H 0.06514 0.98239 0.69622 0.0
C107 C 0.04893 0.94303 0.92985 0.0
O108 O 0.05015 0.91221 0.97325 0.0
N109 N 0.12661 0.91088 0.9402 0.0
C110 C 0.1457 0.88276 0.96907 0.0
C111 C 0.14839 0.88244 0.07102 0.0
C112 C 0.12003 0.92833 0.02536 0.0
N113 N 0.13177 0.91088 0.10568 0.0
C114 C 0.10826 0.8507 0.77487 0.0
C115 C 0.03728 0.84556 0.7486 0.0
C116 C 0.05793 0.81521 0.7426 0.0
C117 C 0.09376 0.81824 0.75539 0.0
C118 C 0.05302 0.87789 0.76985 0.0
N119 N 0.08811 0.87995 0.78642 0.0
H120 H 0.13613 0.85217 0.77677 0.0
H121 H 0.03709 0.90123 0.76968 0.0
H122 H 0.15737 0.86367 0.92079 0.0
H123 H 0.10627 0.95291 0.02984 0.0
O124 O 0.15773 0.91013 0.75712 0.0
O125 O 0.14493 0.96324 0.81145 0.0
O126 O 0.06974 0.94985 0.85862 0.0
C127 C 0.16795 0.94173 0.77493 0.0
H128 H 0.06223 0.98482 0.49892 0.0
H129 H 0.16072 0.8625 0.1164 0.0
H130 H 0.00953 0.84435 0.7355 0.0
H131 H 0.11067 0.79562 0.74774 0.0
Co132 Co 0.55168 0.37623 0.20977 0.0
C133 C 0.55416 0.38726 0.42926 0.0
C134 C 0.50237 0.38978 0.37116 0.0
C135 C 0.50052 0.3903 0.47318 0.0
N136 N 0.53602 0.38787 0.34307 0.0
N137 N 0.53312 0.38866 0.50891 0.0
H138 H 0.58171 0.38307 0.43589 0.0
H139 H 0.48047 0.38749 0.3217 0.0
C140 C 0.51907 0.4485 0.18439 0.0
O141 O 0.53141 0.4586 0.27059 0.0
N142 N 0.56669 0.36446 0.07769 0.0
C143 C 0.59774 0.35098 0.0506 0.0
C144 C 0.5994 0.35051 0.94837 0.0
C145 C 0.54973 0.37165 0.99238 0.0
N146 N 0.56924 0.36359 0.91272 0.0
C147 C 0.62073 0.38552 0.28165 0.0
C148 C 0.63722 0.44442 0.173 0.0
C149 C 0.66316 0.42784 0.22977 0.0
C150 C 0.6544 0.3984 0.28527 0.0
C151 C 0.60349 0.4304 0.17102 0.0
N152 N 0.59527 0.40172 0.22711 0.0
H153 H 0.6158 0.36131 0.31994 0.0
H154 H 0.58493 0.44128 0.1194 0.0
H155 H 0.61811 0.34306 0.10147 0.0
H156 H 0.52414 0.3835 0.98825 0.0
O157 O 0.56715 0.33092 0.25692 0.0
O158 O 0.5143 0.34202 0.19934 0.0
O159 O 0.52572 0.41787 0.15154 0.0
C160 C 0.53632 0.3195 0.2364 0.0
H161 H 0.47714 0.3894 0.51768 0.0
H162 H 0.6212 0.34204 0.9036 0.0
H163 H 0.64341 0.46677 0.12696 0.0
H164 H 0.67396 0.38447 0.32819 0.0
Co165 Co 0.10541 0.55669 0.70205 0.0
C166 C 0.09981 0.55802 0.92297 0.0
C167 C 0.0747 0.5132 0.86154 0.0
C168 C 0.07249 0.51128 0.96354 0.0
N169 N 0.09105 0.54304 0.83553 0.0
N170 N 0.08867 0.53931 1.00152 0.0
H171 H 0.11622 0.5806 0.9306 0.0
H172 H 0.06657 0.49303 0.8107 0.0
C173 C 0.03398 0.52457 0.66024 0.0
O174 O 0.01885 0.54544 0.72445 0.0
N175 N 0.11967 0.5696 0.5695 0.0
C176 C 0.13695 0.59862 0.54188 0.0
C177 C 0.13824 0.59983 0.43946 0.0
C178 C 0.11079 0.55355 0.48414 0.0
N179 N 0.12164 0.57153 0.40413 0.0
C180 C 0.09093 0.62556 0.77153 0.0
C181 C 0.03947 0.64304 0.63666 0.0
C182 C 0.05239 0.66894 0.70033 0.0
C183 C 0.07791 0.65958 0.76933 0.0
C184 C 0.05355 0.60898 0.64083 0.0
N185 N 0.07874 0.6004 0.7089 0.0
H186 H 0.11277 0.62048 0.81921 0.0
H187 H 0.04552 0.59024 0.58567 0.0
H188 H 0.1467 0.61819 0.59246 0.0
H189 H 0.09583 0.52977 0.47967 0.0
O190 O 0.14926 0.57348 0.75448 0.0
O191 O 0.14008 0.51933 0.70335 0.0
O192 O 0.06616 0.52891 0.64131 0.0
C193 C 0.16149 0.54219 0.73987 0.0
H194 H 0.06168 0.49004 1.00663 0.0
H195 H 0.14926 0.62043 0.39439 0.0
H196 H 0.02011 0.64955 0.58101 0.0
H197 H 0.08904 0.67902 0.81825 0.0
Co198 Co 0.92619 0.10963 0.1997 0.0
C199 C 0.92074 0.09802 0.416 0.0
C200 C 0.9721 0.08717 0.3623 0.0
C201 C 0.97268 0.08526 0.46419 0.0
N202 N 0.9394 0.09436 0.3318 0.0
N203 N 0.94062 0.09312 0.49783 0.0
H204 H 0.89412 0.10739 0.41763 0.0
H205 H 0.9945 0.0858 0.31419 0.0
C206 C 0.96435 0.03886 0.16074 0.0
O207 O 0.96122 0.02708 0.25168 0.0
N208 N 0.91379 0.12553 0.06605 0.0
C209 C 0.90081 0.15705 0.03805 0.0
C210 C 0.89834 0.15823 0.93607 0.0
C211 C 0.91886 0.10806 0.97995 0.0
N212 N 0.90981 0.12745 0.90029 0.0
C213 C 0.85308 0.10378 0.1896 0.0
C214 C 0.84637 0.03765 0.26997 0.0
C215 C 0.81658 0.05817 0.25413 0.0
C216 C 0.82013 0.09116 0.21126 0.0
C217 C 0.87916 0.05139 0.24696 0.0
N218 N 0.88231 0.08433 0.20826 0.0
H219 H 0.85506 0.13033 0.16352 0.0
H220 H 0.90161 0.0363 0.26677 0.0
H221 H 0.8942 0.17825 0.08754 0.0
H222 H 0.92996 0.08212 0.97408 0.0
O223 O 0.90951 0.1531 0.25608 0.0
O224 O 0.96333 0.1444 0.20463 0.0
O225 O 0.95238 0.06893 0.13491 0.0
C226 C 0.94048 0.16565 0.24399 0.0
H227 H 0.99556 0.08193 0.51034 0.0
H228 H 0.89025 0.1804 0.89134 0.0
H229 H 0.84442 0.01211 0.3044 0.0
H230 H 0.7976 0.10781 0.19905 0.0
Co231 Co 0.36887 0.92497 0.6603 0.0
C232 C 0.37245 0.9257 0.88197 0.0
C233 C 0.40038 0.96839 0.81802 0.0
C234 C 0.40243 0.97101 0.92 0.0
N235 N 0.38249 0.93932 0.79377 0.0
N236 N 0.38453 0.94429 0.95947 0.0
H237 H 0.35493 0.90405 0.89078 0.0
H238 H 0.40993 0.98742 0.76558 0.0
C239 C 0.44275 0.94992 0.61911 0.0
O240 O 0.45514 0.9296 0.68977 0.0
N241 N 0.35526 0.91158 0.52775 0.0
C242 C 0.34111 0.88108 0.49866 0.0
C243 C 0.34007 0.88045 0.39618 0.0
C244 C 0.36208 0.92927 0.4434 0.0
N245 N 0.35351 0.91068 0.36229 0.0
C246 C 0.38051 0.85659 0.74047 0.0
C247 C 0.43338 0.83574 0.61513 0.0
C248 C 0.42008 0.81173 0.68371 0.0
C249 C 0.39359 0.82264 0.74729 0.0
C250 C 0.41907 0.86957 0.60987 0.0
N251 N 0.39364 0.88018 0.6743 0.0
H252 H 0.35817 0.86287 0.78462 0.0
H253 H 0.42753 0.88648 0.55125 0.0
H254 H 0.33365 0.86016 0.54823 0.0
H255 H 0.3744 0.95462 0.4409 0.0
O256 O 0.32414 0.9102 0.71012 0.0
O257 O 0.33559 0.9636 0.65562 0.0
O258 O 0.41016 0.95042 0.6002 0.0
C259 C 0.31318 0.94176 0.69256 0.0
H260 H 0.41471 0.99168 0.96192 0.0
H261 H 0.33165 0.85896 0.35006 0.0
H262 H 0.45336 0.82787 0.56308 0.0
H263 H 0.38201 0.8045 0.79936 0.0
C264 C 0.48972 0.99595 0.61172 0.0
C265 C 0.46655 0.97326 0.5614 0.0
C266 C 0.48519 0.99872 0.40174 0.0
C267 C 0.51063 0.0191 0.45138 0.0
N268 N 0.53816 0.03393 0.60906 0.0
N269 N 0.44852 0.94774 0.40569 0.0
C270 C 0.51322 0.01683 0.55693 0.0
C271 C 0.46595 0.97325 0.45564 0.0
N272 N 0.48965 0.99809 0.71305 0.0
N273 N 0.47787 1.00479 0.3038 0.0
H274 H 0.43507 0.92792 0.44127 0.0
H275 H 0.45047 0.94403 0.32931 0.0
H276 H 0.4905 0.0236 0.26136 0.0
H277 H 0.45674 0.99372 0.26721 0.0
H278 H 0.50628 0.0146 0.7522 0.0
H279 H 0.47226 0.98473 0.75813 0.0
H280 H 0.55766 0.04895 0.57734 0.0
H281 H 0.55766 0.04895 0.57734 0.0
C282 C 0.46178 0.46227 0.101 0.0
C283 C 0.4963 0.47249 0.12428 0.0
C284 C 0.4867 0.52811 0.03459 0.0
C285 C 0.45206 0.51781 1.0112 0.0
N286 N 0.40934 0.47114 1.0056 0.0
N287 N 0.5436 0.51268 0.10163 0.0
C288 C 0.44053 0.4837 0.03864 0.0
C289 C 0.50925 0.50484 0.08821 0.0
N290 N 0.44824 0.43292 0.14392 0.0
N291 N 0.49822 0.56018 1.00431 0.0
H292 H 0.56062 0.49691 0.14229 0.0
H293 H 0.55606 0.53362 0.06796 0.0
H294 H 0.48475 0.57572 0.95322 0.0
H295 H 0.52077 0.57186 0.03061 0.0
H296 H 0.42188 0.42687 0.14337 0.0
H297 H 0.46276 0.41586 0.1877 0.0
H298 H 0.40273 0.44479 1.00915 0.0
H299 H 0.39058 0.48569 0.96833 0.0
C300 C 0.95766 0.47728 0.5344 0.0
C301 C 0.97534 0.461 0.45396 0.0
C302 C 0.03117 0.47631 0.53052 0.0
C303 C 0.01373 0.49761 0.60154 0.0
N304 N 0.96157 0.50129 0.70037 0.0
N305 N 0.02948 0.44741 0.37138 0.0
C306 C 0.97713 0.49356 0.61196 0.0
C307 C 0.01221 0.46143 0.45058 0.0
N308 N 0.92213 0.47824 0.53511 0.0
N309 N 0.06492 0.46632 0.54646 0.0
H310 H 0.01713 0.43429 0.3137 0.0
H311 H 0.05595 0.4512 0.35934 0.0
H312 H 0.0777 0.47073 0.61355 0.0
H313 H 0.07823 0.44871 0.50127 0.0
H314 H 0.90763 0.49329 0.58446 0.0
H315 H 0.90701 0.46624 0.481 0.0
H316 H 0.93549 0.49661 0.71546 0.0
H317 H 0.97571 0.50684 0.76433 0.0
C318 C 0.01948 0.02565 0.06778 0.0
C319 C 0.98434 0.01743 0.08803 0.0
C320 C 0.98997 0.96332 0.9904 0.0
C321 C 0.02559 0.971 0.97188 0.0
N322 N 0.07139 0.0147 0.97202 0.0
N323 N 0.93376 0.98301 0.05311 0.0
C324 C 0.03941 1.00383 1.00337 0.0
C325 C 0.96888 0.98758 0.04454 0.0
N326 N 0.03451 0.05351 0.11442 0.0
N327 N 0.9763 0.93272 0.95596 0.0
H328 H 0.91781 1.00039 0.09192 0.0
H329 H 0.91988 0.96378 0.01602 0.0
H330 H 0.98952 0.91634 0.90686 0.0
H331 H 0.95223 0.92302 0.97734 0.0
H332 H 0.0612 0.05789 0.11575 0.0
H333 H 0.02055 0.07117 0.15792 0.0
H334 H 0.08033 0.04011 0.9817 0.0
H335 H 0.08831 0.99999 0.92898 0.0
C336 C 0.54535 0.2226 0.19489 0.0
C337 C 0.53583 0.20954 0.2905 0.0
C338 C 0.51499 0.26839 0.336 0.0
C339 C 0.52872 0.28167 0.24645 0.0
N340 N 0.54645 0.27144 0.07879 0.0
N341 N 0.51444 0.22114 0.4561 0.0
C342 C 0.54079 0.25869 0.17227 0.0
C343 C 0.52061 0.23256 0.36152 0.0
N344 N 0.55992 0.20067 0.12666 0.0
N345 N 0.49582 0.29002 0.39524 0.0
H346 H 0.51914 0.19559 0.47966 0.0
H347 H 0.5074 0.23769 0.51403 0.0
H348 H 0.49101 0.31608 0.37632 0.0
H349 H 0.48209 0.28153 0.4572 0.0
H350 H 0.57229 0.20887 0.06219 0.0
H351 H 0.56033 0.17377 0.13544 0.0
H352 H 0.55246 0.25611 0.01746 0.0
H353 H 0.54165 0.29751 0.06015 0.0
C354 C 0.21041 0.53339 0.86115 0.0
C355 C 0.1986 0.53387 0.76131 0.0
C356 C 0.25884 0.52734 0.7046 0.0
C357 C 0.27067 0.53328 0.80276 0.0
N358 N 0.25829 0.54201 0.97595 0.0
N359 N 0.21133 0.53177 0.58627 0.0
C360 C 0.2466 0.53589 0.88179 0.0
C361 C 0.22273 0.53043 0.68239 0.0
N362 N 0.18693 0.52953 0.93597 0.0
N363 N 0.28225 0.51817 0.63319 0.0
H364 H 0.18507 0.53282 0.56722 0.0
H365 H 0.22787 0.53382 0.52548 0.0
H366 H 0.30854 0.51448 0.64933 0.0
H367 H 0.27521 0.51062 0.5618 0.0
H368 H 0.19379 0.52636 1.01023 0.0
H369 H 0.16068 0.52556 0.92161 0.0
H370 H 0.2421 0.54866 0.03488 0.0
H371 H 0.28464 0.54203 0.99415 0.0
C372 C 0.96172 0.22683 0.20181 0.0
C373 C 0.94805 0.20278 0.27263 0.0
C374 C 0.93832 0.25166 0.38939 0.0
C375 C 0.94858 0.27546 0.31502 0.0
N376 N 0.98127 0.28602 0.16708 0.0
N377 N 0.92382 0.19242 0.43549 0.0
C378 C 0.96384 0.26308 0.22633 0.0
C379 C 0.93696 0.21527 0.36747 0.0
N380 N 0.9698 0.21579 0.10814 0.0
N381 N 0.93124 0.26402 0.4824 0.0
H382 H 0.92539 0.16554 0.4268 0.0
H383 H 0.91059 0.19977 0.49944 0.0
H384 H 0.93373 0.29037 0.5006 0.0
H385 H 0.92637 0.24831 0.54387 0.0
H386 H 0.97533 0.23275 0.0498 0.0
H387 H 0.96853 0.18983 0.08563 0.0
H388 H 0.99603 0.27856 0.10593 0.0
H389 H 0.98368 0.31237 0.1854 0.0
C390 C 0.25189 0.95139 0.63309 0.0
C391 C 0.27634 0.9514 0.71188 0.0
C392 C 0.22895 0.9529 0.83372 0.0
C393 C 0.20452 0.95176 0.75497 0.0
N394 N 0.19202 0.9609 0.58222 0.0
N395 N 0.28874 0.96281 0.88344 0.0
C396 C 0.21585 0.9545 0.65523 0.0
C397 C 0.26499 0.95555 0.81122 0.0
N398 N 0.26299 0.94702 0.53761 0.0
N399 N 0.21785 0.94998 0.92964 0.0
H400 H 0.31488 0.96669 0.86698 0.0
H401 H 0.28208 0.9688 0.95629 0.0
H402 H 0.19159 0.94966 0.94871 0.0
H403 H 0.23452 0.94619 0.98975 0.0
H404 H 0.24632 0.94238 0.47815 0.0
H405 H 0.28923 0.94627 0.51848 0.0
H406 H 0.19857 0.96574 0.50856 0.0
H407 H 0.16591 0.96534 0.59843 0.0
C408 C 0.41955 0.75055 0.61378 0.0
C409 C 0.43133 0.77437 0.68715 0.0
C410 C 0.44574 0.72551 0.79861 0.0
C411 C 0.43188 0.70204 0.7278 0.0
N412 N 0.41685 0.69019 0.55827 0.0
N413 N 0.46523 0.78454 0.83429 0.0
C414 C 0.42297 0.71402 0.63151 0.0
C415 C 0.44794 0.7617 0.77436 0.0
N416 N 0.40261 0.7626 0.53109 0.0
N417 N 0.45464 0.71356 0.8909 0.0
H418 H 0.46715 0.81112 0.81726 0.0
H419 H 0.4802 0.7768 0.89505 0.0
H420 H 0.45431 0.68707 0.90955 0.0
H421 H 0.46086 0.72988 0.94998 0.0
H422 H 0.38973 0.74637 0.48135 0.0
H423 H 0.39944 0.78909 0.51493 0.0
H424 H 0.413 0.69698 0.48413 0.0
H425 H 0.41908 0.66331 0.57074 0.0
C426 C 0.75893 0.42974 0.16156 0.0
C427 C 0.77295 0.43534 0.25753 0.0
C428 C 0.71499 0.45192 0.31738 0.0
C429 C 0.70032 0.43868 0.2286 0.0
N430 N 0.70808 0.41485 0.06433 0.0
N431 N 0.76483 0.45253 0.42802 0.0
C432 C 0.72222 0.42836 0.149 0.0
C433 C 0.75125 0.4475 0.33539 0.0
N434 N 0.78092 0.42517 0.08309 0.0
N435 N 0.69391 0.46808 0.38487 0.0
H436 H 0.79131 0.45016 0.44351 0.0
H437 H 0.74971 0.45723 0.49065 0.0
H438 H 0.66728 0.47149 0.3725 0.0
H439 H 0.70313 0.48087 0.44767 0.0
H440 H 0.77255 0.42389 1.00964 0.0
H441 H 0.80791 0.42612 0.09104 0.0
H442 H 0.72271 0.40281 1.00903 0.0
H443 H 0.68137 0.41386 0.05153 0.0
C444 C 0.05341 0.76506 0.62512 0.0
C445 C 0.04382 0.78003 0.71729 0.0
C446 C 0.02502 0.72229 0.77527 0.0
C447 C 0.04208 0.70663 0.69315 0.0
N448 N 0.07312 0.71318 0.53856 0.0
N449 N 0.01925 0.77346 0.88047 0.0
C450 C 0.05567 0.72802 0.6162 0.0
C451 C 0.02844 0.75893 0.79174 0.0
N452 N 0.06112 0.78652 0.54711 0.0
N453 N 1.00612 0.7018 0.83807 0.0
H454 H 0.02061 0.80027 0.89391 0.0
H455 H 0.01187 0.75888 0.94219 0.0
H456 H 1.00333 0.67495 0.82674 0.0
H457 H 0.99072 0.71172 0.89502 0.0
H458 H 0.06554 0.7775 0.47534 0.0
H459 H 0.05963 0.81373 0.55266 0.0
H460 H 0.08731 0.72754 0.48708 0.0
H461 H 0.0753 0.68624 0.52861 0.0
C462 C 0.75767 0.03271 0.2215 0.0
C463 C 0.7816 0.04754 0.2893 0.0
C464 C 0.7341 0.0632 0.40201 0.0
C465 C 0.70994 0.05065 0.33089 0.0
N466 N 0.69808 0.0152 0.18794 0.0
N467 N 0.79442 0.06742 0.45458 0.0
C468 C 0.72166 0.03237 0.24574 0.0
C469 C 0.77033 0.05931 0.38366 0.0
N470 N 0.76934 0.02065 0.13209 0.0
N471 N 0.72243 0.08099 0.48344 0.0
H472 H 0.82112 0.06525 0.44229 0.0
H473 H 0.78815 0.07324 0.52783 0.0
H474 H 0.69612 0.08361 0.50059 0.0
H475 H 0.73858 0.09466 0.53154 0.0
H476 H 0.75307 0.01324 0.07412 0.0
H477 H 0.79574 0.01924 0.1147 0.0
H478 H 0.70486 0.99917 0.12865 0.0
H479 H 0.67162 0.0147 0.205 0.0
C480 C 0.58056 0.09337 0.80057 0.0
C481 C 0.56656 0.12391 0.75525 0.0
C482 C 0.53556 0.13857 0.90891 0.0
C483 C 0.54902 0.10763 0.95373 0.0
N484 N 0.58046 0.05351 0.94193 0.0
N485 N 0.52874 0.17395 0.75939 0.0
C486 C 0.57057 0.08448 0.8993 0.0
C487 C 0.54336 0.146 0.80762 0.0
N488 N 0.60358 0.07312 0.74872 0.0
N489 N 0.51625 0.16128 0.96463 0.0
H490 H 0.5353 0.18064 0.68669 0.0
H491 H 0.50907 0.18957 0.7887 0.0
H492 H 0.50959 0.15626 0.03818 0.0
H493 H 0.50836 0.18598 0.94076 0.0
H494 H 0.61744 0.05223 0.77904 0.0
H495 H 0.61 0.07814 0.67492 0.0
H496 H 0.59385 0.03373 0.90508 0.0
H497 H 0.57323 0.04659 1.01394 0.0
C498 C 0.3877 0.57724 0.39657 0.0
C499 C 0.37007 0.54934 0.44332 0.0
C500 C 0.3355 0.53973 0.29284 0.0
C501 C 0.35418 0.56657 0.2447 0.0
N502 N 0.40198 0.60681 0.2425 0.0
N503 N 0.33165 0.50009 0.43317 0.0
C504 C 0.38137 0.58431 0.29444 0.0
C505 C 0.3453 0.52932 0.3904 0.0
N506 N 0.41047 0.59689 0.4504 0.0
N507 N 0.30762 0.52515 0.24599 0.0
H508 H 0.338 0.49214 0.50498 0.0
H509 H 0.31603 0.48237 0.39549 0.0
H510 H 0.29999 0.53254 0.17458 0.0
H511 H 0.29055 0.50788 0.28008 0.0
H512 H 0.42148 0.61996 0.42447 0.0
H513 H 0.41706 0.59099 0.52374 0.0
H514 H 0.42439 0.61809 0.27123 0.0
H515 H 0.3982 0.61217 0.16735 0.0
C516 C 0.92471 0.33938 0.91346 0.0
C517 C 0.92553 0.37415 0.94937 0.0
C518 C 0.90656 0.39608 0.78695 0.0
C519 C 0.90874 0.36159 0.7488 0.0
N520 N 0.92492 0.3012 0.76988 0.0
N521 N 0.92075 0.43594 0.92124 0.0
C522 C 0.91907 0.33337 0.81066 0.0
C523 C 0.91747 0.40265 0.88614 0.0
N524 N 0.9288 0.31219 0.97837 0.0
N525 N 0.89281 0.42214 0.7292 0.0
H526 H 0.92764 0.44118 0.99467 0.0
H527 H 0.91877 0.45817 0.87676 0.0
H528 H 0.8839 0.4178 0.65713 0.0
H529 H 0.88761 0.44728 0.75486 0.0
H530 H 0.92531 0.28608 0.95917 0.0
H531 H 0.93292 0.31603 0.05397 0.0
H532 H 0.93571 0.28021 0.8088 0.0
H533 H 0.92172 0.29631 0.69432 0.0
C534 C 0.09757 0.89788 0.25595 0.0
C535 C 0.12308 0.91826 0.20726 0.0
C536 C 0.12823 0.95575 0.35349 0.0
C537 C 0.10506 0.93349 0.40523 0.0
N538 N 0.06947 0.88212 0.41081 0.0
N539 N 0.16567 0.96374 0.21019 0.0
C540 C 0.09035 0.90406 0.35786 0.0
C541 C 0.13915 0.94655 0.25617 0.0
N542 N 0.07921 0.87376 0.20308 0.0
N543 N 0.13939 0.98586 0.39715 0.0
H544 H 0.17403 0.95729 0.13886 0.0
H545 H 0.18106 0.98241 0.24481 0.0
H546 H 0.13273 0.99283 0.46935 0.0
H547 H 0.15343 1.00504 0.36009 0.0
H548 H 0.05793 0.86031 0.23114 0.0
H549 H 0.08349 0.86915 0.12784 0.0
H550 H 0.06105 0.858 0.38465 0.0
H551 H 0.062 0.88724 0.48376 0.0
C552 C 0.54807 0.41102 0.67478 0.0
C553 C 0.54298 0.38235 0.61041 0.0
C554 C 0.55332 0.34136 0.74751 0.0
C555 C 0.56056 0.36996 0.81044 0.0
N556 N 0.57004 0.4315 0.83342 0.0
N557 N 0.54556 0.3205 0.57917 0.0
C558 C 0.55928 0.40475 0.77396 0.0
C559 C 0.54707 0.34752 0.64501 0.0
N560 N 0.54183 0.44413 0.6406 0.0
N561 N 0.55122 0.30851 0.78704 0.0
H562 H 0.54091 0.32439 0.5038 0.0
H563 H 0.55151 0.29466 0.59734 0.0
H564 H 0.55544 0.30345 0.86223 0.0
H565 H 0.54271 0.2868 0.74756 0.0
H566 H 0.54163 0.46618 0.68572 0.0
H567 H 0.53474 0.44923 0.56713 0.0
H568 H 0.57267 0.45721 0.80922 0.0
H569 H 0.579 0.42744 0.9057 0.0
C570 C 0.12098 0.52628 0.15659 0.0
C571 C 0.09582 0.54649 0.10458 0.0
C572 C 0.08675 0.58276 0.25286 0.0
C573 C 0.11345 0.56375 0.30227 0.0
N574 N 0.15644 0.51732 0.30007 0.0
N575 N 0.05576 0.5949 0.0988 0.0
C576 C 0.13051 0.53563 0.25425 0.0
C577 C 0.07902 0.57511 0.15164 0.0
N578 N 0.13665 0.49827 0.11229 0.0
N579 N 0.06778 0.60689 0.3047 0.0
H580 H 0.04792 0.58839 0.02704 0.0
H581 H 0.04527 0.61842 0.12383 0.0
H582 H 0.07259 0.61251 0.37917 0.0
H583 H 0.04585 0.61963 0.27681 0.0
H584 H 0.15535 0.48291 0.14839 0.0
H585 H 0.13092 0.49034 0.04024 0.0
H586 H 0.16564 0.52289 0.37122 0.0
H587 H 0.16564 0.52289 0.37122 0.0
C588 C 0.90551 0.08401 0.64966 0.0
C589 C 0.93181 0.10255 0.59845 0.0
C590 C 0.94491 0.13568 0.74946 0.0
C591 C 0.91691 0.11918 0.79813 0.0
N592 N 0.86751 0.08123 0.79357 0.0
N593 N 0.97135 0.15139 0.59333 0.0
C594 C 0.89627 0.09434 0.74776 0.0
C595 C 0.95008 0.12993 0.6466 0.0
N596 N 0.89044 0.05574 0.60571 0.0
N597 N 0.96742 0.15583 0.80275 0.0
H598 H 0.97534 0.14875 0.51732 0.0
H599 H 0.98226 0.17405 0.62232 0.0
H600 H 0.9647 0.16008 0.87878 0.0
H601 H 0.99052 0.16557 0.7738 0.0
H602 H 0.87333 0.03908 0.64202 0.0
H603 H 0.89717 0.04732 0.53468 0.0
H604 H 0.84933 0.0655 0.75815 0.0
H605 H 0.86053 0.08836 0.86559 0.0
C606 C 0.38952 0.90211 0.21238 0.0
C607 C 0.36176 0.91951 0.26105 0.0
C608 C 0.35289 0.9571 0.11539 0.0
C609 C 0.37816 0.93728 0.06307 0.0
N610 N 0.41943 0.88991 0.05751 0.0
N611 N 0.31439 0.9606 0.25788 0.0
C612 C 0.39612 0.9094 0.11051 0.0
C613 C 0.34282 0.94636 0.21233 0.0
N614 N 0.41042 0.87977 0.26514 0.0
N615 N 0.33891 0.9864 0.07274 0.0
H616 H 0.30648 0.95295 0.32867 0.0
H617 H 0.29715 0.9778 0.22309 0.0
H618 H 0.34526 0.99455 1.00127 0.0
H619 H 0.32294 1.00399 0.11031 0.0
H620 H 0.43317 0.86871 0.23724 0.0
H621 H 0.40655 0.87452 0.34029 0.0
H622 H 0.43061 0.86678 0.08358 0.0
H623 H 0.42632 0.89606 0.9847 0.0
loop_
_geom_bond_atom_site_label_1
_geom_bond_atom_site_label_2
_geom_bond_distance
_geom_bond_site_symmetry_2
_ccdc_geom_bond_type
Co0 N4 2.148 . S
Co0 N10 2.128 . S
Co0 N20 2.194 . S
Co0 O25 2.351 . S
Co0 O26 2.155 . S
Co0 O27 2.096 . S
C1 N4 1.301 . S
C1 N5 1.328 . S
C1 H6 0.930 . S
C2 C3 1.333 . S
C2 N4 1.317 . S
C2 H7 0.930 . S
C3 C2 1.333 . S
C3 N5 1.350 . S
C3 H29 0.931 1_554 S
N4 Co0 2.148 . S
N4 C1 1.301 . S
N4 C2 1.317 . S
N5 C1 1.328 . S
N5 C3 1.350 . S
H6 C1 0.930 . S
H7 C2 0.930 . S
C8 O9 1.224 . S
C8 O27 1.247 . S
O9 C8 1.224 . S
N10 Co0 2.128 . S
N10 C11 1.355 . S
N10 C13 1.311 . S
C11 N10 1.355 . S
C11 C12 1.363 . S
C11 H23 0.929 . S
C12 C11 1.363 . S
C12 N14 1.375 . S
C12 H30 0.931 . S
C13 N10 1.311 . S
C13 N14 1.347 . S
C13 H24 0.929 . S
N14 C12 1.375 . S
N14 C13 1.347 . S
C15 C18 1.365 . S
C15 N20 1.328 . S
C15 H21 0.929 . S
C16 C17 1.362 . S
C16 C19 1.378 . S
C16 H31 0.929 . S
C17 C16 1.362 . S
C17 C18 1.366 . S
C18 C15 1.365 . S
C18 C17 1.366 . S
C18 H32 0.930 . S
C19 C16 1.378 . S
C19 N20 1.315 . S
C19 H22 0.930 . S
N20 Co0 2.194 . S
N20 C15 1.328 . S
N20 C19 1.315 . S
H21 C15 0.929 . S
H22 C19 0.930 . S
H23 C11 0.929 . S
H24 C13 0.929 . S
O25 Co0 2.351 . S
O25 C28 1.244 . S
O26 Co0 2.155 . S
O26 C28 1.240 . S
O27 Co0 2.096 . S
O27 C8 1.247 . S
C28 O25 1.244 . S
C28 O26 1.240 . S
H29 C3 0.931 1_556 S
H30 C12 0.931 . S
H31 C16 0.929 . S
H32 C18 0.930 . S
Co33 N37 2.148 . S
Co33 N43 2.128 . S
Co33 N53 2.194 . S
Co33 O58 2.351 . S
Co33 O59 2.155 . S
Co33 O60 2.096 . S
C34 N37 1.301 . S
C34 N38 1.328 . S
C34 H39 0.930 . S
C35 C36 1.333 . S
C35 N37 1.317 . S
C35 H40 0.930 . S
C36 C35 1.333 . S
C36 N38 1.350 . S
C36 H62 0.931 . S
N37 Co33 2.148 . S
N37 C34 1.301 . S
N37 C35 1.317 . S
N38 C34 1.328 . S
N38 C36 1.350 . S
H39 C34 0.930 . S
H40 C35 0.930 . S
C41 O42 1.224 . S
C41 O60 1.247 . S
O42 C41 1.224 . S
N43 Co33 2.128 . S
N43 C44 1.355 . S
N43 C46 1.311 1_556 S
C44 N43 1.355 . S
C44 C45 1.363 1_556 S
C44 H56 0.929 . S
C45 C44 1.363 1_554 S
C45 N47 1.375 . S
C45 H63 0.931 . S
C46 N43 1.311 1_554 S
C46 N47 1.347 . S
C46 H57 0.929 . S
N47 C45 1.375 . S
N47 C46 1.347 . S
C48 C51 1.365 . S
C48 N53 1.328 . S
C48 H54 0.929 . S
C49 C50 1.362 . S
C49 C52 1.378 . S
C49 H64 0.929 . S
C50 C49 1.362 . S
C50 C51 1.366 . S
C51 C48 1.365 . S
C51 C50 1.366 . S
C51 H65 0.930 . S
C52 C49 1.378 . S
C52 N53 1.315 . S
C52 H55 0.930 . S
N53 Co33 2.194 . S
N53 C48 1.328 . S
N53 C52 1.315 . S
H54 C48 0.929 . S
H55 C52 0.930 . S
H56 C44 0.929 . S
H57 C46 0.929 . S
O58 Co33 2.351 . S
O58 C61 1.244 . S
O59 Co33 2.155 . S
O59 C61 1.240 . S
O60 Co33 2.096 . S
O60 C41 1.247 . S
C61 O58 1.244 . S
C61 O59 1.240 . S
H62 C36 0.931 . S
H63 C45 0.931 . S
H64 C49 0.929 . S
H65 C51 0.930 . S
Co66 N70 2.148 . S
Co66 N76 2.128 . S
Co66 N86 2.194 . S
Co66 O91 2.351 . S
Co66 O92 2.155 . S
Co66 O93 2.096 . S
C67 N70 1.301 . S
C67 N71 1.328 . S
C67 H72 0.930 . S
C68 C69 1.333 . S
C68 N70 1.317 . S
C68 H73 0.930 . S
C69 C68 1.333 . S
C69 N71 1.350 . S
C69 H95 0.931 1_554 S
N70 Co66 2.148 . S
N70 C67 1.301 . S
N70 C68 1.317 . S
N71 C67 1.328 . S
N71 C69 1.350 . S
H72 C67 0.930 . S
H73 C68 0.930 . S
C74 O75 1.224 . S
C74 O93 1.247 . S
O75 C74 1.224 . S
N76 Co66 2.128 . S
N76 C77 1.355 . S
N76 C79 1.311 . S
C77 N76 1.355 . S
C77 C78 1.363 . S
C77 H89 0.929 . S
C78 C77 1.363 . S
C78 N80 1.375 . S
C78 H96 0.931 . S
C79 N76 1.311 . S
C79 N80 1.347 . S
C79 H90 0.929 . S
N80 C78 1.375 . S
N80 C79 1.347 . S
C81 C84 1.365 . S
C81 N86 1.328 . S
C81 H87 0.929 . S
C82 C83 1.362 . S
C82 C85 1.378 . S
C82 H97 0.929 . S
C83 C82 1.362 . S
C83 C84 1.366 . S
C84 C81 1.365 . S
C84 C83 1.366 . S
C84 H98 0.930 . S
C85 C82 1.378 . S
C85 N86 1.315 . S
C85 H88 0.930 . S
N86 Co66 2.194 . S
N86 C81 1.328 . S
N86 C85 1.315 . S
H87 C81 0.929 . S
H88 C85 0.930 . S
H89 C77 0.929 . S
H90 C79 0.929 . S
O91 Co66 2.351 . S
O91 C94 1.244 . S
O92 Co66 2.155 . S
O92 C94 1.240 . S
O93 Co66 2.096 . S
O93 C74 1.247 . S
C94 O91 1.244 . S
C94 O92 1.240 . S
H95 C69 0.931 1_556 S
H96 C78 0.931 . S
H97 C82 0.929 . S
H98 C84 0.930 . S
Co99 N103 2.148 . S
Co99 N109 2.128 . S
Co99 N119 2.194 . S
Co99 O124 2.351 . S
Co99 O125 2.155 . S
Co99 O126 2.096 . S
C100 N103 1.301 . S
C100 N104 1.328 . S
C100 H105 0.930 . S
C101 C102 1.333 . S
C101 N103 1.317 . S
C101 H106 0.930 . S
C102 C101 1.333 . S
C102 N104 1.350 . S
C102 H128 0.931 . S
N103 Co99 2.148 . S
N103 C100 1.301 . S
N103 C101 1.317 . S
N104 C100 1.328 . S
N104 C102 1.350 . S
H105 C100 0.930 . S
H106 C101 0.930 . S
C107 O108 1.224 . S
C107 O126 1.247 . S
O108 C107 1.224 . S
N109 Co99 2.128 . S
N109 C110 1.355 . S
N109 C112 1.311 1_556 S
C110 N109 1.355 . S
C110 C111 1.363 1_556 S
C110 H122 0.929 . S
C111 C110 1.363 1_554 S
C111 N113 1.375 . S
C111 H129 0.931 . S
C112 N109 1.311 1_554 S
C112 N113 1.347 . S
C112 H123 0.929 . S
N113 C111 1.375 . S
N113 C112 1.347 . S
C114 C117 1.365 . S
C114 N119 1.328 . S
C114 H120 0.929 . S
C115 C116 1.362 . S
C115 C118 1.378 . S
C115 H130 0.929 . S
C116 C115 1.362 . S
C116 C117 1.366 . S
C117 C114 1.365 . S
C117 C116 1.366 . S
C117 H131 0.930 . S
C118 C115 1.378 . S
C118 N119 1.315 . S
C118 H121 0.930 . S
N119 Co99 2.194 . S
N119 C114 1.328 . S
N119 C118 1.315 . S
H120 C114 0.929 . S
H121 C118 0.930 . S
H122 C110 0.929 . S
H123 C112 0.929 . S
O124 Co99 2.351 . S
O124 C127 1.244 . S
O125 Co99 2.155 . S
O125 C127 1.240 . S
O126 Co99 2.096 . S
O126 C107 1.247 . S
C127 O124 1.244 . S
C127 O125 1.240 . S
H128 C102 0.931 . S
H129 C111 0.931 . S
H130 C115 0.929 . S
H131 C117 0.930 . S
Co132 N136 2.148 . S
Co132 N142 2.128 . S
Co132 N152 2.194 . S
Co132 O157 2.351 . S
Co132 O158 2.155 . S
Co132 O159 2.096 . S
C133 N136 1.301 . S
C133 N137 1.328 . S
C133 H138 0.930 . S
C134 C135 1.333 . S
C134 N136 1.317 . S
C134 H139 0.930 . S
C135 C134 1.333 . S
C135 N137 1.350 . S
C135 H161 0.931 . S
N136 Co132 2.148 . S
N136 C133 1.301 . S
N136 C134 1.317 . S
N137 C133 1.328 . S
N137 C135 1.350 . S
H138 C133 0.930 . S
H139 C134 0.930 . S
C140 O141 1.224 . S
C140 O159 1.247 . S
O141 C140 1.224 . S
N142 Co132 2.128 . S
N142 C143 1.355 . S
N142 C145 1.311 1_554 S
C143 N142 1.355 . S
C143 C144 1.363 1_554 S
C143 H155 0.929 . S
C144 C143 1.363 1_556 S
C144 N146 1.375 . S
C144 H162 0.931 . S
C145 N142 1.311 1_556 S
C145 N146 1.347 . S
C145 H156 0.929 . S
N146 C144 1.375 . S
N146 C145 1.347 . S
C147 C150 1.365 . S
C147 N152 1.328 . S
C147 H153 0.929 . S
C148 C149 1.362 . S
C148 C151 1.378 . S
C148 H163 0.929 . S
C149 C148 1.362 . S
C149 C150 1.366 . S
C150 C147 1.365 . S
C150 C149 1.366 . S
C150 H164 0.930 . S
C151 C148 1.378 . S
C151 N152 1.315 . S
C151 H154 0.930 . S
N152 Co132 2.194 . S
N152 C147 1.328 . S
N152 C151 1.315 . S
H153 C147 0.929 . S
H154 C151 0.930 . S
H155 C143 0.929 . S
H156 C145 0.929 . S
O157 Co132 2.351 . S
O157 C160 1.244 . S
O158 Co132 2.155 . S
O158 C160 1.240 . S
O159 Co132 2.096 . S
O159 C140 1.247 . S
C160 O157 1.244 . S
C160 O158 1.240 . S
H161 C135 0.931 . S
H162 C144 0.931 . S
H163 C148 0.929 . S
H164 C150 0.930 . S
Co165 N169 2.148 . S
Co165 N175 2.128 . S
Co165 N185 2.194 . S
Co165 O190 2.351 . S
Co165 O191 2.155 . S
Co165 O192 2.096 . S
C166 N169 1.301 . S
C166 N170 1.328 . S
C166 H171 0.930 . S
C167 C168 1.333 . S
C167 N169 1.317 . S
C167 H172 0.930 . S
C168 C167 1.333 . S
C168 N170 1.350 . S
C168 H194 0.931 1_556 S
N169 Co165 2.148 . S
N169 C166 1.301 . S
N169 C167 1.317 . S
N170 C166 1.328 . S
N170 C168 1.350 . S
H171 C166 0.930 . S
H172 C167 0.930 . S
C173 O174 1.224 . S
C173 O192 1.247 . S
O174 C173 1.224 . S
N175 Co165 2.128 . S
N175 C176 1.355 . S
N175 C178 1.311 . S
C176 N175 1.355 . S
C176 C177 1.363 . S
C176 H188 0.929 . S
C177 C176 1.363 . S
C177 N179 1.375 . S
C177 H195 0.931 . S
C178 N175 1.311 . S
C178 N179 1.347 . S
C178 H189 0.929 . S
N179 C177 1.375 . S
N179 C178 1.347 . S
C180 C183 1.365 . S
C180 N185 1.328 . S
C180 H186 0.929 . S
C181 C182 1.362 . S
C181 C184 1.378 . S
C181 H196 0.929 . S
C182 C181 1.362 . S
C182 C183 1.366 . S
C183 C180 1.365 . S
C183 C182 1.366 . S
C183 H197 0.930 . S
C184 C181 1.378 . S
C184 N185 1.315 . S
C184 H187 0.930 . S
N185 Co165 2.194 . S
N185 C180 1.328 . S
N185 C184 1.315 . S
H186 C180 0.929 . S
H187 C184 0.930 . S
H188 C176 0.929 . S
H189 C178 0.929 . S
O190 Co165 2.351 . S
O190 C193 1.244 . S
O191 Co165 2.155 . S
O191 C193 1.240 . S
O192 Co165 2.096 . S
O192 C173 1.247 . S
C193 O190 1.244 . S
C193 O191 1.240 . S
H194 C168 0.931 1_554 S
H195 C177 0.931 . S
H196 C181 0.929 . S
H197 C183 0.930 . S
Co198 N202 2.148 . S
Co198 N208 2.128 . S
Co198 N218 2.194 . S
Co198 O223 2.351 . S
Co198 O224 2.155 . S
Co198 O225 2.096 . S
C199 N202 1.301 . S
C199 N203 1.328 . S
C199 H204 0.930 . S
C200 C201 1.333 . S
C200 N202 1.317 . S
C200 H205 0.930 . S
C201 C200 1.333 . S
C201 N203 1.350 . S
C201 H227 0.931 . S
N202 Co198 2.148 . S
N202 C199 1.301 . S
N202 C200 1.317 . S
N203 C199 1.328 . S
N203 C201 1.350 . S
H204 C199 0.930 . S
H205 C200 0.930 . S
C206 O207 1.224 . S
C206 O225 1.247 . S
O207 C206 1.224 . S
N208 Co198 2.128 . S
N208 C209 1.355 . S
N208 C211 1.311 1_554 S
C209 N208 1.355 . S
C209 C210 1.363 1_554 S
C209 H221 0.929 . S
C210 C209 1.363 1_556 S
C210 N212 1.375 . S
C210 H228 0.931 . S
C211 N208 1.311 1_556 S
C211 N212 1.347 . S
C211 H222 0.929 . S
N212 C210 1.375 . S
N212 C211 1.347 . S
C213 C216 1.365 . S
C213 N218 1.328 . S
C213 H219 0.929 . S
C214 C215 1.362 . S
C214 C217 1.378 . S
C214 H229 0.929 . S
C215 C214 1.362 . S
C215 C216 1.366 . S
C216 C213 1.365 . S
C216 C215 1.366 . S
C216 H230 0.930 . S
C217 C214 1.378 . S
C217 N218 1.315 . S
C217 H220 0.930 . S
N218 Co198 2.194 . S
N218 C213 1.328 . S
N218 C217 1.315 . S
H219 C213 0.929 . S
H220 C217 0.930 . S
H221 C209 0.929 . S
H222 C211 0.929 . S
O223 Co198 2.351 . S
O223 C226 1.244 . S
O224 Co198 2.155 . S
O224 C226 1.240 . S
O225 Co198 2.096 . S
O225 C206 1.247 . S
C226 O223 1.244 . S
C226 O224 1.240 . S
H227 C201 0.931 . S
H228 C210 0.931 . S
H229 C214 0.929 . S
H230 C216 0.930 . S
Co231 N235 2.148 . S
Co231 N241 2.128 . S
Co231 N251 2.194 . S
Co231 O256 2.351 . S
Co231 O257 2.155 . S
Co231 O258 2.096 . S
C232 N235 1.301 . S
C232 N236 1.328 . S
C232 H237 0.930 . S
C233 C234 1.333 . S
C233 N235 1.317 . S
C233 H238 0.930 . S
C234 C233 1.333 . S
C234 N236 1.350 . S
C234 H260 0.931 1_556 S
N235 Co231 2.148 . S
N235 C232 1.301 . S
N235 C233 1.317 . S
N236 C232 1.328 . S
N236 C234 1.350 . S
H237 C232 0.930 . S
H238 C233 0.930 . S
C239 O240 1.224 . S
C239 O258 1.247 . S
O240 C239 1.224 . S
N241 Co231 2.128 . S
N241 C242 1.355 . S
N241 C244 1.311 . S
C242 N241 1.355 . S
C242 C243 1.363 . S
C242 H254 0.929 . S
C243 C242 1.363 . S
C243 N245 1.375 . S
C243 H261 0.931 . S
C244 N241 1.311 . S
C244 N245 1.347 . S
C244 H255 0.929 . S
N245 C243 1.375 . S
N245 C244 1.347 . S
C246 C249 1.365 . S
C246 N251 1.328 . S
C246 H252 0.929 . S
C247 C248 1.362 . S
C247 C250 1.378 . S
C247 H262 0.929 . S
C248 C247 1.362 . S
C248 C249 1.366 . S
C249 C246 1.365 . S
C249 C248 1.366 . S
C249 H263 0.930 . S
C250 C247 1.378 . S
C250 N251 1.315 . S
C250 H253 0.930 . S
N251 Co231 2.194 . S
N251 C246 1.328 . S
N251 C250 1.315 . S
H252 C246 0.929 . S
H253 C250 0.930 . S
H254 C242 0.929 . S
H255 C244 0.929 . S
O256 Co231 2.351 . S
O256 C259 1.244 . S
O257 Co231 2.155 . S
O257 C259 1.240 . S
O258 Co231 2.096 . S
O258 C239 1.247 . S
C259 O256 1.244 . S
C259 O257 1.240 . S
H260 C234 0.931 1_554 S
H261 C243 0.931 . S
H262 C247 0.929 . S
H263 C249 0.930 . S
C264 C265 1.363 1_545 S
C264 C270 1.379 . S
C264 N272 1.356 . S
C265 C264 1.363 1_565 S
C265 C271 1.363 . S
C266 C267 1.363 1_565 S
C266 C271 1.379 . S
C266 N273 1.356 . S
C267 C266 1.363 1_545 S
C267 C270 1.363 . S
N268 C270 1.356 . S
N268 H280 0.984 . S
N268 H281 0.985 . S
N269 C271 1.356 . S
N269 H274 0.984 . S
N269 H275 0.985 . S
C270 C264 1.379 . S
C270 C267 1.363 . S
C270 N268 1.356 . S
C271 C265 1.363 . S
C271 C266 1.379 . S
C271 N269 1.356 . S
N272 C264 1.356 . S
N272 H278 0.984 . S
N272 H279 0.984 1_545 S
N273 C266 1.356 . S
N273 H276 0.984 1_565 S
N273 H277 0.985 . S
H274 N269 0.984 . S
H275 N269 0.985 . S
H276 N273 0.984 1_545 S
H277 N273 0.985 . S
H278 N272 0.984 . S
H279 N272 0.984 1_565 S
H280 N268 0.984 . S
H281 N268 0.985 . S
C282 C283 1.363 . S
C282 C288 1.379 . S
C282 N290 1.356 . S
C283 C282 1.363 . S
C283 C289 1.363 1_554 S
C284 C285 1.363 . S
C284 C289 1.379 . S
C284 N291 1.356 . S
C285 C284 1.363 . S
C285 C288 1.363 1_556 S
N286 C288 1.356 1_556 S
N286 H298 0.984 1_556 S
N286 H299 0.985 . S
N287 C289 1.356 1_554 S
N287 H292 0.984 . S
N287 H293 0.985 1_554 S
C288 C282 1.379 . S
C288 C285 1.363 1_554 S
C288 N286 1.356 1_554 S
C289 C283 1.363 1_556 S
C289 C284 1.379 . S
C289 N287 1.356 1_556 S
N290 C282 1.356 . S
N290 H296 0.984 . S
N290 H297 0.984 . S
N291 C284 1.356 . S
N291 H294 0.984 . S
N291 H295 0.985 . S
H292 N287 0.984 . S
H293 N287 0.985 1_556 S
H294 N291 0.984 . S
H295 N291 0.985 . S
H296 N290 0.984 . S
H297 N290 0.984 . S
H298 N286 0.984 1_554 S
H299 N286 0.985 . S
C300 C301 1.363 . S
C300 C306 1.379 . S
C300 N308 1.356 . S
C301 C300 1.363 . S
C301 C307 1.363 1_655 S
C302 C303 1.363 . S
C302 C307 1.379 . S
C302 N309 1.356 . S
C303 C302 1.363 . S
C303 C306 1.363 1_455 S
N304 C306 1.356 . S
N304 H316 0.984 . S
N304 H317 0.985 . S
N305 C307 1.356 . S
N305 H310 0.984 . S
N305 H311 0.985 . S
C306 C300 1.379 . S
C306 C303 1.363 1_655 S
C306 N304 1.356 . S
C307 C301 1.363 1_455 S
C307 C302 1.379 . S
C307 N305 1.356 . S
N308 C300 1.356 . S
N308 H314 0.984 . S
N308 H315 0.984 . S
N309 C302 1.356 . S
N309 H312 0.984 . S
N309 H313 0.985 . S
H310 N305 0.984 . S
H311 N305 0.985 . S
H312 N309 0.984 . S
H313 N309 0.985 . S
H314 N308 0.984 . S
H315 N308 0.984 . S
H316 N304 0.984 . S
H317 N304 0.985 . S
C318 C319 1.363 1_455 S
C318 C324 1.379 1_544 S
C318 N326 1.356 . S
C319 C318 1.363 1_655 S
C319 C325 1.363 . S
C320 C321 1.363 1_655 S
C320 C325 1.379 1_566 S
C320 N327 1.356 . S
C321 C320 1.363 1_455 S
C321 C324 1.363 . S
N322 C324 1.356 . S
N322 H334 0.984 1_556 S
N322 H335 0.985 . S
N323 C325 1.356 . S
N323 H328 0.984 . S
N323 H329 0.985 1_554 S
C324 C318 1.379 1_566 S
C324 C321 1.363 . S
C324 N322 1.356 . S
C325 C319 1.363 . S
C325 C320 1.379 1_544 S
C325 N323 1.356 . S
N326 C318 1.356 . S
N326 H332 0.984 . S
N326 H333 0.984 . S
N327 C320 1.356 . S
N327 H330 0.984 . S
N327 H331 0.985 . S
H328 N323 0.984 . S
H329 N323 0.985 1_556 S
H330 N327 0.984 . S
H331 N327 0.985 . S
H332 N326 0.984 . S
H333 N326 0.984 . S
H334 N322 0.984 1_554 S
H335 N322 0.985 . S
C336 C337 1.363 . S
C336 C342 1.379 . S
C336 N344 1.356 . S
C337 C336 1.363 . S
C337 C343 1.363 . S
C338 C339 1.363 . S
C338 C343 1.379 . S
C338 N345 1.356 . S
C339 C338 1.363 . S
C339 C342 1.363 . S
N340 C342 1.356 . S
N340 H352 0.984 . S
N340 H353 0.985 . S
N341 C343 1.356 . S
N341 H346 0.984 . S
N341 H347 0.985 . S
C342 C336 1.379 . S
C342 C339 1.363 . S
C342 N340 1.356 . S
C343 C337 1.363 . S
C343 C338 1.379 . S
C343 N341 1.356 . S
N344 C336 1.356 . S
N344 H350 0.984 . S
N344 H351 0.984 . S
N345 C338 1.356 . S
N345 H348 0.984 . S
N345 H349 0.985 . S
H346 N341 0.984 . S
H347 N341 0.985 . S
H348 N345 0.984 . S
H349 N345 0.985 . S
H350 N344 0.984 . S
H351 N344 0.984 . S
H352 N340 0.984 . S
H353 N340 0.985 . S
C354 C355 1.363 . S
C354 C360 1.379 . S
C354 N362 1.356 . S
C355 C354 1.363 . S
C355 C361 1.363 . S
C356 C357 1.363 . S
C356 C361 1.379 . S
C356 N363 1.356 . S
C357 C356 1.363 . S
C357 C360 1.363 . S
N358 C360 1.356 . S
N358 H370 0.984 . S
N358 H371 0.985 . S
N359 C361 1.356 . S
N359 H364 0.984 . S
N359 H365 0.985 . S
C360 C354 1.379 . S
C360 C357 1.363 . S
C360 N358 1.356 . S
C361 C355 1.363 . S
C361 C356 1.379 . S
C361 N359 1.356 . S
N362 C354 1.356 . S
N362 H368 0.984 . S
N362 H369 0.984 . S
N363 C356 1.356 . S
N363 H366 0.984 . S
N363 H367 0.985 . S
H364 N359 0.984 . S
H365 N359 0.985 . S
H366 N363 0.984 . S
H367 N363 0.985 . S
H368 N362 0.984 . S
H369 N362 0.984 . S
H370 N358 0.984 . S
H371 N358 0.985 . S
C372 C373 1.363 . S
C372 C378 1.379 . S
C372 N380 1.356 . S
C373 C372 1.363 . S
C373 C379 1.363 . S
C374 C375 1.363 . S
C374 C379 1.379 . S
C374 N381 1.356 . S
C375 C374 1.363 . S
C375 C378 1.363 . S
N376 C378 1.356 . S
N376 H388 0.984 . S
N376 H389 0.985 . S
N377 C379 1.356 . S
N377 H382 0.984 . S
N377 H383 0.985 . S
C378 C372 1.379 . S
C378 C375 1.363 . S
C378 N376 1.356 . S
C379 C373 1.363 . S
C379 C374 1.379 . S
C379 N377 1.356 . S
N380 C372 1.356 . S
N380 H386 0.984 . S
N380 H387 0.984 . S
N381 C374 1.356 . S
N381 H384 0.984 . S
N381 H385 0.985 . S
H382 N377 0.984 . S
H383 N377 0.985 . S
H384 N381 0.984 . S
H385 N381 0.985 . S
H386 N380 0.984 . S
H387 N380 0.984 . S
H388 N376 0.984 . S
H389 N376 0.985 . S
C390 C391 1.363 . S
C390 C396 1.379 . S
C390 N398 1.356 . S
C391 C390 1.363 . S
C391 C397 1.363 . S
C392 C393 1.363 . S
C392 C397 1.379 . S
C392 N399 1.356 . S
C393 C392 1.363 . S
C393 C396 1.363 . S
N394 C396 1.356 . S
N394 H406 0.984 . S
N394 H407 0.985 . S
N395 C397 1.356 . S
N395 H400 0.984 . S
N395 H401 0.985 1_565 S
C396 C390 1.379 . S
C396 C393 1.363 . S
C396 N394 1.356 . S
C397 C391 1.363 . S
C397 C392 1.379 . S
C397 N395 1.356 . S
N398 C390 1.356 . S
N398 H404 0.984 . S
N398 H405 0.984 . S
N399 C392 1.356 . S
N399 H402 0.984 . S
N399 H403 0.985 1_565 S
H400 N395 0.984 . S
H401 N395 0.985 1_545 S
H402 N399 0.984 . S
H403 N399 0.985 1_545 S
H404 N398 0.984 . S
H405 N398 0.984 . S
H406 N394 0.984 . S
H407 N394 0.985 . S
C408 C409 1.363 . S
C408 C414 1.379 . S
C408 N416 1.356 . S
C409 C408 1.363 . S
C409 C415 1.363 . S
C410 C411 1.363 . S
C410 C415 1.379 . S
C410 N417 1.356 . S
C411 C410 1.363 . S
C411 C414 1.363 . S
N412 C414 1.356 . S
N412 H424 0.984 . S
N412 H425 0.985 . S
N413 C415 1.356 . S
N413 H418 0.984 . S
N413 H419 0.985 . S
C414 C408 1.379 . S
C414 C411 1.363 . S
C414 N412 1.356 . S
C415 C409 1.363 . S
C415 C410 1.379 . S
C415 N413 1.356 . S
N416 C408 1.356 . S
N416 H422 0.984 . S
N416 H423 0.984 . S
N417 C410 1.356 . S
N417 H420 0.984 . S
N417 H421 0.985 . S
H418 N413 0.984 . S
H419 N413 0.985 . S
H420 N417 0.984 . S
H421 N417 0.985 . S
H422 N416 0.984 . S
H423 N416 0.984 . S
H424 N412 0.984 . S
H425 N412 0.985 . S
C426 C427 1.363 . S
C426 C432 1.379 . S
C426 N434 1.356 . S
C427 C426 1.363 . S
C427 C433 1.363 . S
C428 C429 1.363 . S
C428 C433 1.379 . S
C428 N435 1.356 . S
C429 C428 1.363 . S
C429 C432 1.363 . S
N430 C432 1.356 . S
N430 H442 0.984 . S
N430 H443 0.985 . S
N431 C433 1.356 . S
N431 H436 0.984 . S
N431 H437 0.985 . S
C432 C426 1.379 . S
C432 C429 1.363 . S
C432 N430 1.356 . S
C433 C427 1.363 . S
C433 C428 1.379 . S
C433 N431 1.356 . S
N434 C426 1.356 . S
N434 H440 0.984 . S
N434 H441 0.984 . S
N435 C428 1.356 . S
N435 H438 0.984 . S
N435 H439 0.985 . S
H436 N431 0.984 . S
H437 N431 0.985 . S
H438 N435 0.984 . S
H439 N435 0.985 . S
H440 N434 0.984 . S
H441 N434 0.984 . S
H442 N430 0.984 . S
H443 N430 0.985 . S
C444 C445 1.363 . S
C444 C450 1.379 . S
C444 N452 1.356 . S
C445 C444 1.363 . S
C445 C451 1.363 . S
C446 C447 1.363 . S
C446 C451 1.379 . S
C446 N453 1.356 . S
C447 C446 1.363 . S
C447 C450 1.363 . S
N448 C450 1.356 . S
N448 H460 0.984 . S
N448 H461 0.985 . S
N449 C451 1.356 . S
N449 H454 0.984 . S
N449 H455 0.985 . S
C450 C444 1.379 . S
C450 C447 1.363 . S
C450 N448 1.356 . S
C451 C445 1.363 . S
C451 C446 1.379 . S
C451 N449 1.356 . S
N452 C444 1.356 . S
N452 H458 0.984 . S
N452 H459 0.984 . S
N453 C446 1.356 . S
N453 H456 0.984 . S
N453 H457 0.985 . S
H454 N449 0.984 . S
H455 N449 0.985 . S
H456 N453 0.984 . S
H457 N453 0.985 . S
H458 N452 0.984 . S
H459 N452 0.984 . S
H460 N448 0.984 . S
H461 N448 0.985 . S
C462 C463 1.363 . S
C462 C468 1.379 . S
C462 N470 1.356 . S
C463 C462 1.363 . S
C463 C469 1.363 . S
C464 C465 1.363 . S
C464 C469 1.379 . S
C464 N471 1.356 . S
C465 C464 1.363 . S
C465 C468 1.363 . S
N466 C468 1.356 . S
N466 H478 0.984 1_545 S
N466 H479 0.985 . S
N467 C469 1.356 . S
N467 H472 0.984 . S
N467 H473 0.985 . S
C468 C462 1.379 . S
C468 C465 1.363 . S
C468 N466 1.356 . S
C469 C463 1.363 . S
C469 C464 1.379 . S
C469 N467 1.356 . S
N470 C462 1.356 . S
N470 H476 0.984 1_545 S
N470 H477 0.984 . S
N471 C464 1.356 . S
N471 H474 0.984 . S
N471 H475 0.985 . S
H472 N467 0.984 . S
H473 N467 0.985 . S
H474 N471 0.984 . S
H475 N471 0.985 . S
H476 N470 0.984 1_565 S
H477 N470 0.984 . S
H478 N466 0.984 1_565 S
H479 N466 0.985 . S
C480 C481 1.363 . S
C480 C486 1.379 . S
C480 N488 1.356 . S
C481 C480 1.363 . S
C481 C487 1.363 . S
C482 C483 1.363 . S
C482 C487 1.379 . S
C482 N489 1.356 . S
C483 C482 1.363 . S
C483 C486 1.363 . S
N484 C486 1.356 . S
N484 H496 0.984 . S
N484 H497 0.985 . S
N485 C487 1.356 . S
N485 H490 0.984 . S
N485 H491 0.985 . S
C486 C480 1.379 . S
C486 C483 1.363 . S
C486 N484 1.356 . S
C487 C481 1.363 . S
C487 C482 1.379 . S
C487 N485 1.356 . S
N488 C480 1.356 . S
N488 H494 0.984 . S
N488 H495 0.984 . S
N489 C482 1.356 . S
N489 H492 0.984 1_556 S
N489 H493 0.985 . S
H490 N485 0.984 . S
H491 N485 0.985 . S
H492 N489 0.984 1_554 S
H493 N489 0.985 . S
H494 N488 0.984 . S
H495 N488 0.984 . S
H496 N484 0.984 . S
H497 N484 0.985 . S
C498 C499 1.363 . S
C498 C504 1.379 . S
C498 N506 1.356 . S
C499 C498 1.363 . S
C499 C505 1.363 . S
C500 C501 1.363 . S
C500 C505 1.379 . S
C500 N507 1.356 . S
C501 C500 1.363 . S
C501 C504 1.363 . S
N502 C504 1.356 . S
N502 H514 0.984 . S
N502 H515 0.985 . S
N503 C505 1.356 . S
N503 H508 0.984 . S
N503 H509 0.985 . S
C504 C498 1.379 . S
C504 C501 1.363 . S
C504 N502 1.356 . S
C505 C499 1.363 . S
C505 C500 1.379 . S
C505 N503 1.356 . S
N506 C498 1.356 . S
N506 H512 0.984 . S
N506 H513 0.984 . S
N507 C500 1.356 . S
N507 H510 0.984 . S
N507 H511 0.985 . S
H508 N503 0.984 . S
H509 N503 0.985 . S
H510 N507 0.984 . S
H511 N507 0.985 . S
H512 N506 0.984 . S
H513 N506 0.984 . S
H514 N502 0.984 . S
H515 N502 0.985 . S
C516 C517 1.363 . S
C516 C522 1.379 . S
C516 N524 1.356 . S
C517 C516 1.363 . S
C517 C523 1.363 . S
C518 C519 1.363 . S
C518 C523 1.379 . S
C518 N525 1.356 . S
C519 C518 1.363 . S
C519 C522 1.363 . S
N520 C522 1.356 . S
N520 H532 0.984 . S
N520 H533 0.985 . S
N521 C523 1.356 . S
N521 H526 0.981 1_556 S
N521 H527 0.985 . S
C522 C516 1.379 . S
C522 C519 1.363 . S
C522 N520 1.356 . S
C523 C517 1.363 . S
C523 C518 1.379 . S
C523 N521 1.356 . S
N524 C516 1.356 . S
N524 H530 0.984 . S
N524 H531 0.984 . S
N525 C518 1.356 . S
N525 H528 0.984 . S
N525 H529 0.985 . S
H526 N521 0.981 1_554 S
H527 N521 0.985 . S
H528 N525 0.984 . S
H529 N525 0.985 . S
H530 N524 0.984 . S
H531 N524 0.984 . S
H532 N520 0.984 . S
H533 N520 0.985 . S
C534 C535 1.363 . S
C534 C540 1.379 . S
C534 N542 1.356 . S
C535 C534 1.363 . S
C535 C541 1.363 . S
C536 C537 1.363 . S
C536 C541 1.379 . S
C536 N543 1.356 . S
C537 C536 1.363 . S
C537 C540 1.363 . S
N538 C540 1.356 . S
N538 H550 0.984 . S
N538 H551 0.985 . S
N539 C541 1.356 . S
N539 H544 0.984 . S
N539 H545 0.985 . S
C540 C534 1.379 . S
C540 C537 1.363 . S
C540 N538 1.356 . S
C541 C535 1.363 . S
C541 C536 1.379 . S
C541 N539 1.356 . S
N542 C534 1.356 . S
N542 H548 0.984 . S
N542 H549 0.984 . S
N543 C536 1.356 . S
N543 H546 0.984 . S
N543 H547 0.985 . S
H544 N539 0.984 . S
H545 N539 0.985 . S
H546 N543 0.984 . S
H547 N543 0.985 . S
H548 N542 0.984 . S
H549 N542 0.984 . S
H550 N538 0.984 . S
H551 N538 0.985 . S
C552 C553 1.363 . S
C552 C558 1.379 . S
C552 N560 1.356 . S
C553 C552 1.363 . S
C553 C559 1.363 . S
C554 C555 1.363 . S
C554 C559 1.379 . S
C554 N561 1.356 . S
C555 C554 1.363 . S
C555 C558 1.363 . S
N556 C558 1.356 . S
N556 H568 0.984 . S
N556 H569 0.985 . S
N557 C559 1.356 . S
N557 H562 0.984 . S
N557 H563 0.985 . S
C558 C552 1.379 . S
C558 C555 1.363 . S
C558 N556 1.356 . S
C559 C553 1.363 . S
C559 C554 1.379 . S
C559 N557 1.356 . S
N560 C552 1.356 . S
N560 H566 0.984 . S
N560 H567 0.984 . S
N561 C554 1.356 . S
N561 H564 0.984 . S
N561 H565 0.985 . S
H562 N557 0.984 . S
H563 N557 0.985 . S
H564 N561 0.984 . S
H565 N561 0.985 . S
H566 N560 0.984 . S
H567 N560 0.984 . S
H568 N556 0.984 . S
H569 N556 0.985 . S
C570 C571 1.363 . S
C570 C576 1.379 . S
C570 N578 1.356 . S
C571 C570 1.363 . S
C571 C577 1.363 . S
C572 C573 1.363 . S
C572 C577 1.379 . S
C572 N579 1.356 . S
C573 C572 1.363 . S
C573 C576 1.363 . S
N574 C576 1.356 . S
N574 H586 0.984 . S
N574 H587 0.985 . S
N575 C577 1.356 . S
N575 H580 0.984 1_554 S
N575 H581 0.985 . S
C576 C570 1.379 . S
C576 C573 1.363 . S
C576 N574 1.356 . S
C577 C571 1.363 . S
C577 C572 1.379 . S
C577 N575 1.356 . S
N578 C570 1.356 . S
N578 H584 0.984 . S
N578 H585 0.984 . S
N579 C572 1.356 . S
N579 H582 0.984 . S
N579 H583 0.985 . S
H580 N575 0.984 1_556 S
H581 N575 0.985 . S
H582 N579 0.984 . S
H583 N579 0.985 . S
H584 N578 0.984 . S
H585 N578 0.984 . S
H586 N574 0.984 . S
H587 N574 0.985 . S
C588 C589 1.363 . S
C588 C594 1.379 . S
C588 N596 1.356 . S
C589 C588 1.363 . S
C589 C595 1.363 . S
C590 C591 1.363 . S
C590 C595 1.379 . S
C590 N597 1.356 . S
C591 C590 1.363 . S
C591 C594 1.363 . S
N592 C594 1.356 . S
N592 H604 0.984 . S
N592 H605 0.985 . S
N593 C595 1.356 . S
N593 H598 0.984 . S
N593 H599 0.985 . S
C594 C588 1.379 . S
C594 C591 1.363 . S
C594 N592 1.356 . S
C595 C589 1.363 . S
C595 C590 1.379 . S
C595 N593 1.356 . S
N596 C588 1.356 . S
N596 H602 0.984 . S
N596 H603 0.984 . S
N597 C590 1.356 . S
N597 H600 0.984 . S
N597 H601 0.985 . S
H598 N593 0.984 . S
H599 N593 0.985 . S
H600 N597 0.984 . S
H601 N597 0.985 . S
H602 N596 0.984 . S
H603 N596 0.984 . S
H604 N592 0.984 . S
H605 N592 0.985 . S
C606 C607 1.363 . S
C606 C612 1.379 . S
C606 N614 1.356 . S
C607 C606 1.363 . S
C607 C613 1.363 . S
C608 C609 1.363 . S
C608 C613 1.379 . S
C608 N615 1.356 . S
C609 C608 1.363 . S
C609 C612 1.363 . S
N610 C612 1.356 . S
N610 H622 0.984 . S
N610 H623 0.985 1_554 S
N611 C613 1.356 . S
N611 H616 0.984 . S
N611 H617 0.985 . S
C612 C606 1.379 . S
C612 C609 1.363 . S
C612 N610 1.356 . S
C613 C607 1.363 . S
C613 C608 1.379 . S
C613 N611 1.356 . S
N614 C606 1.356 . S
N614 H620 0.984 . S
N614 H621 0.984 . S
N615 C608 1.356 . S
N615 H618 0.984 . S
N615 H619 0.985 . S
H616 N611 0.984 . S
H617 N611 0.985 . S
H618 N615 0.984 . S
H619 N615 0.985 . S
H620 N614 0.984 . S
H621 N614 0.984 . S
H622 N610 0.984 . S
H623 N610 0.985 1_556 S
C265 C239 1.258 . S
C267 C8 1.258 . S
C283 C140 1.258 . S
C285 C41 1.258 . S
C301 C74 1.258 . S
C303 C173 1.258 . S
C319 C206 1.258 . S
C321 C107 1.258 . S
C337 C28 1.544 . S
C339 C160 1.544 . S
C355 C193 1.544 . S
C357 C61 1.544 . S
C373 C226 1.544 . S
C375 C94 1.544 . S
C391 C259 1.544 . S
C393 C127 1.544 . S
C409 C248 1.585 . S
C411 C50 1.585 . S
C427 C83 1.585 . S
C429 C149 1.585 . S
C445 C116 1.585 . S
C447 C182 1.585 . S
C463 C215 1.585 . S
C465 C17 1.585 . S
C481 N14 1.349 . S
C483 N5 1.350 1_556 S
C499 N38 1.350 . S
C501 N47 1.349 . S
C517 N71 1.350 1_556 S
C519 N80 1.349 . S
C535 N113 1.349 . S
C537 N104 1.350 . S
C553 N137 1.350 . S
C555 N146 1.349 . S
C571 N170 1.350 1_554 S
C573 N179 1.349 . S
C589 N203 1.350 . S
C591 N212 1.349 . S
C607 N245 1.349 . S
C609 N236 1.350 1_554 S
