# Generated by pormake.
# Topology vby, (6)-cn, num edge types: 1
# Building blocks:
#     Node 0, Type 0, BuildingBlock: CUWYAW_clean_sbu_0, # of connection points: 6
#     Node 1, Type 0, BuildingBlock: CUWYAW_clean_sbu_0, # of connection points: 6
#     Node 2, Type 0, BuildingBlock: CUWYAW_clean_sbu_0, # of connection points: 6
#     Node 3, Type 0, BuildingBlock: CUWYAW_clean_sbu_0, # of connection points: 6
#     Node 4, Type 0, BuildingBlock: CUWYAW_clean_sbu_0, # of connection points: 6
#     Node 5, Type 0, BuildingBlock: CUWYAW_clean_sbu_0, # of connection points: 6
#     Node 6, Type 0, BuildingBlock: CUWYAW_clean_sbu_0, # of connection points: 6
#     Node 7, Type 0, BuildingBlock: CUWYAW_clean_sbu_0, # of connection points: 6
#     Edge 8, Type (0, 0), BuildingBlock: MIFKUJ_clean_linker_0, # of connection points: 2
#     Edge 9, Type (0, 0), BuildingBlock: MIFKUJ_clean_linker_0, # of connection points: 2
#     Edge 10, Type (0, 0), BuildingBlock: MIFKUJ_clean_linker_0, # of connection points: 2
#     Edge 11, Type (0, 0), BuildingBlock: MIFKUJ_clean_linker_0, # of connection points: 2
#     Edge 12, Type (0, 0), BuildingBlock: MIFKUJ_clean_linker_0, # of connection points: 2
#     Edge 13, Type (0, 0), BuildingBlock: MIFKUJ_clean_linker_0, # of connection points: 2
#     Edge 14, Type (0, 0), BuildingBlock: MIFKUJ_clean_linker_0, # of connection points: 2
#     Edge 15, Type (0, 0), BuildingBlock: MIFKUJ_clean_linker_0, # of connection points: 2
#     Edge 16, Type (0, 0), BuildingBlock: MIFKUJ_clean_linker_0, # of connection points: 2
#     Edge 17, Type (0, 0), BuildingBlock: MIFKUJ_clean_linker_0, # of connection points: 2
#     Edge 18, Type (0, 0), BuildingBlock: MIFKUJ_clean_linker_0, # of connection points: 2
#     Edge 19, Type (0, 0), BuildingBlock: MIFKUJ_clean_linker_0, # of connection points: 2
#     Edge 20, Type (0, 0), BuildingBlock: MIFKUJ_clean_linker_0, # of connection points: 2
#     Edge 21, Type (0, 0), BuildingBlock: MIFKUJ_clean_linker_0, # of connection points: 2
#     Edge 22, Type (0, 0), BuildingBlock: MIFKUJ_clean_linker_0, # of connection points: 2
#     Edge 23, Type (0, 0), BuildingBlock: MIFKUJ_clean_linker_0, # of connection points: 2
#     Edge 24, Type (0, 0), BuildingBlock: MIFKUJ_clean_linker_0, # of connection points: 2
#     Edge 25, Type (0, 0), BuildingBlock: MIFKUJ_clean_linker_0, # of connection points: 2
#     Edge 26, Type (0, 0), BuildingBlock: MIFKUJ_clean_linker_0, # of connection points: 2
#     Edge 27, Type (0, 0), BuildingBlock: MIFKUJ_clean_linker_0, # of connection points: 2
#     Edge 28, Type (0, 0), BuildingBlock: MIFKUJ_clean_linker_0, # of connection points: 2
#     Edge 29, Type (0, 0), BuildingBlock: MIFKUJ_clean_linker_0, # of connection points: 2
#     Edge 30, Type (0, 0), BuildingBlock: MIFKUJ_clean_linker_0, # of connection points: 2
#     Edge 31, Type (0, 0), BuildingBlock: MIFKUJ_clean_linker_0, # of connection points: 2
# Relax obj value: 0.464
# Max RMSD: 0.237
# Mean RMSD: 0.196
data_MOF--net-vby--node1-CUWYAW_clean_sbu_0--edge1-MIFKUJ_clean_linker_0
_symmetry_space_group_name_H-M    P1
_symmetry_Int_Tables_number       1
_symmetry_cell_setting            triclinic
loop_
_symmetry_equiv_pos_as_xyz
'x, y, z'
_cell_length_a     23.62055
_cell_length_b     93.758184
_cell_length_c     39.465138
_cell_angle_alpha  85.867629
_cell_angle_beta   89.321228
_cell_angle_gamma 79.415314
loop_
_atom_site_label
_atom_site_type_symbol
_atom_site_fract_x
_atom_site_fract_y
_atom_site_fract_z
_atom_type_partial_charge
C0 C 1.00457 0.41626 -0.0145 0.0
Eu1 Eu 0.1042 0.42349 -0.00631 0.0
C2 C 0.98233 0.40434 0.00425 0.0
C3 C 0.99899 0.40035 0.03824 0.0
C4 C 0.97762 0.38921 0.05652 0.0
C5 C 0.94023 0.38167 0.04091 0.0
C6 C 0.92593 0.38515 0.00642 0.0
C7 C 0.94675 0.39647 -0.01178 0.0
C8 C 0.13485 0.42305 0.06084 0.0
C9 C 0.1207 0.45897 -0.00831 0.0
C10 C 0.31132 0.42683 0.01522 0.0
Eu11 Eu 0.20909 0.42419 -0.00398 0.0
C12 C 0.35732 0.41612 0.0327 0.0
C13 C 0.3844 0.40373 0.01683 0.0
C14 C 0.42434 0.39307 0.03452 0.0
C15 C 0.43793 0.39448 0.06859 0.0
C16 C 0.41079 0.40689 0.08445 0.0
C17 C 0.37106 0.41762 0.06664 0.0
C18 C 0.18102 0.42245 0.9292 0.0
C19 C 0.19373 0.38883 -0.00378 0.0
O20 O 1.01191 0.42691 0.00344 0.0
O21 O 0.04831 0.41224 0.96572 0.0
O22 O 0.09324 0.43213 0.04619 0.0
O23 O 0.16124 0.41507 0.03895 0.0
O24 O 0.08297 0.45014 -0.01394 0.0
O25 O 0.17426 0.45091 -0.00251 0.0
O26 O 0.26508 0.43072 0.03322 0.0
O27 O 0.29919 0.42462 0.98406 0.0
O28 O 0.2248 0.41461 0.94506 0.0
O29 O 0.15232 0.43106 0.94929 0.0
O30 O 0.23154 0.39763 0.00139 0.0
O31 O 0.13992 0.39685 -0.00874 0.0
H32 H 1.02776 0.40603 0.0509 0.0
H33 H 0.98909 0.38672 0.08307 0.0
H34 H 0.89649 0.37959 -0.00598 0.0
H35 H 0.93435 0.39922 0.96187 0.0
H36 H 0.3746 0.40216 -0.00923 0.0
H37 H 0.44545 0.38387 0.02117 0.0
H38 H 0.42007 0.4083 0.11068 0.0
H39 H 0.35036 0.427 0.07957 0.0
C40 C 0.07017 0.67508 0.96327 0.0
Eu41 Eu 0.96706 0.6759 -0.01176 0.0
C42 C 0.09591 0.68421 0.93813 0.0
C43 C 0.15549 0.68155 0.9337 0.0
C44 C 0.1808 0.69024 0.91018 0.0
C45 C 0.14687 0.70171 0.89025 0.0
C46 C 0.08673 0.70419 0.89449 0.0
C47 C 0.06148 0.69552 0.91837 0.0
C48 C 0.94402 0.67601 0.05638 0.0
C49 C 0.94739 0.63928 -0.00566 0.0
C50 C 0.75447 0.67596 0.0098 0.0
Eu51 Eu 0.86328 0.67302 -0.00538 0.0
C52 C 0.70567 0.687 -0.00285 0.0
C53 C 0.7084 0.69425 0.96493 0.0
C54 C 0.66135 0.70437 0.95219 0.0
C55 C 0.61095 0.70755 0.97162 0.0
C56 C 0.60968 0.7008 0.00464 0.0
C57 C 0.65663 0.69055 0.01723 0.0
C58 C 0.89014 0.67519 0.92647 0.0
C59 C 0.88111 0.70949 -0.01025 0.0
O60 O 0.05354 0.68084 -0.00834 0.0
O61 O 1.03244 0.6682 0.95127 0.0
O62 O 0.97311 0.68451 0.03945 0.0
O63 O 0.92809 0.66723 0.03677 0.0
O64 O 0.98383 0.64884 -0.01215 0.0
O65 O 0.89387 0.64654 0.00077 0.0
O66 O 0.79166 0.68067 0.02825 0.0
O67 O 0.77928 0.66728 -0.01255 0.0
O68 O 0.86617 0.66508 0.94119 0.0
O69 O 0.90104 0.68345 0.9485 0.0
O70 O 0.84487 0.6999 -0.0042 0.0
O71 O 0.935 0.70237 0.98354 0.0
H72 H 0.1826 0.6729 0.94888 0.0
H73 H 0.22735 0.68826 0.90866 0.0
H74 H 0.05935 0.71292 0.87976 0.0
H75 H 1.01523 0.69772 0.92176 0.0
H76 H 0.7465 0.69184 0.94928 0.0
H77 H 0.66371 0.70923 0.92659 0.0
H78 H 0.57193 0.70322 0.02053 0.0
H79 H 0.65436 0.68526 0.04242 0.0
C80 C 0.97322 0.6497 0.4745 0.0
Eu81 Eu 0.93793 0.67648 0.48979 0.0
C82 C 0.96295 0.64012 0.44818 0.0
C83 C 0.95633 0.62588 0.45795 0.0
C84 C 0.95442 0.61597 0.43349 0.0
C85 C 0.95935 0.62011 0.39875 0.0
C86 C 0.96341 0.63457 0.38886 0.0
C87 C 0.9649 0.64454 0.41338 0.0
C88 C 0.92501 0.68381 0.55561 0.0
C89 C 0.79086 0.69019 0.48727 0.0
C90 C 0.90463 0.73153 0.4933 0.0
Eu91 Eu 0.92315 0.70361 0.48605 0.0
C92 C 0.94648 0.74096 0.49969 0.0
C93 C 0.94269 0.75454 0.4816 0.0
C94 C 0.98706 0.76253 0.48364 0.0
C95 C 0.0362 0.75702 0.5037 0.0
C96 C 0.03873 0.74365 0.52275 0.0
C97 C 0.99451 0.73569 0.52069 0.0
C98 C 0.93425 0.69381 0.42158 0.0
C99 C 0.07002 0.69035 0.48927 0.0
O100 O 0.99861 0.66049 0.46451 0.0
O101 O 0.93215 0.65335 0.49634 0.0
O102 O 0.90225 0.67401 0.54236 0.0
O103 O 0.955 0.68963 0.53338 0.0
O104 O 0.83206 0.67808 0.48479 0.0
O105 O 0.8175 0.70194 0.48956 0.0
O106 O 0.8973 0.72189 0.51774 0.0
O107 O 0.90941 0.72602 0.46383 0.0
O108 O 0.96596 0.70213 0.4337 0.0
O109 O 0.9012 0.69019 0.4447 0.0
O110 O 1.02869 0.70248 0.48916 0.0
O111 O 0.04351 0.6785 0.48931 0.0
H112 H 0.95507 0.62225 0.4846 0.0
H113 H 0.95235 0.60482 0.44193 0.0
H114 H 0.9671 0.63803 0.36229 0.0
H115 H 0.96981 0.65551 0.40511 0.0
H116 H 0.90643 0.75872 0.4649 0.0
H117 H 0.98394 0.77272 0.46841 0.0
H118 H 0.07543 0.73918 0.53888 0.0
H119 H 0.99888 0.72519 0.53474 0.0
C120 C 0.14042 0.36554 0.49444 0.0
Eu121 Eu 0.13763 0.39322 0.50148 0.0
C122 C 0.09581 0.35642 0.49532 0.0
C123 C 0.0448 0.36028 0.51381 0.0
C124 C 1.00023 0.35244 0.51193 0.0
C125 C 1.00606 0.34047 0.49186 0.0
C126 C 0.05789 0.33633 0.47421 0.0
C127 C 0.10228 0.34432 0.47576 0.0
C128 C 0.14098 0.40264 0.56586 0.0
C129 C 0.98583 0.4069 0.50059 0.0
C130 C 0.1045 0.4483 0.50165 0.0
Eu131 Eu 0.11337 0.42026 0.49698 0.0
C132 C 0.11051 0.4607 0.47807 0.0
C133 C 0.13531 0.45862 0.44585 0.0
C134 C 0.13263 0.47041 0.42172 0.0
C135 C 0.10424 0.48431 0.42944 0.0
C136 C 0.08168 0.48639 0.46222 0.0
C137 C 0.08482 0.47466 0.48634 0.0
C138 C 0.1159 0.41161 0.43158 0.0
C139 C 0.26544 0.40625 0.4987 0.0
O140 O 0.13701 0.37533 0.46899 0.0
O141 O 0.15102 0.37073 0.52298 0.0
O142 O 0.18124 0.39348 0.55244 0.0
O143 O 0.101 0.40703 0.54435 0.0
O144 O 1.02957 0.39525 0.49781 0.0
O145 O 1.00966 0.41888 0.50333 0.0
O146 O 0.15099 0.4389 0.50952 0.0
O147 O 0.06165 0.44203 0.49513 0.0
O148 O 0.07547 0.42084 0.44416 0.0
O149 O 0.15323 0.40688 0.4544 0.0
O150 O 0.22178 0.41806 0.50072 0.0
O151 O 0.24168 0.39418 0.49666 0.0
H152 H 0.03902 0.36949 0.52936 0.0
H153 H 0.96109 0.35574 0.52617 0.0
H154 H 0.0634 0.32719 0.45842 0.0
H155 H 0.1412 0.34122 0.4612 0.0
H156 H 0.15474 0.44782 0.439 0.0
H157 H 0.1504 0.46858 0.39666 0.0
H158 H 0.0604 0.49705 0.46895 0.0
H159 H 0.06524 0.47641 0.51103 0.0
C160 C 0.4932 0.91991 -0.00911 0.0
Eu161 Eu 0.60118 0.92177 -0.00506 0.0
C162 C 0.46483 0.90776 0.00326 0.0
C163 C 0.46992 0.90234 0.03752 0.0
C164 C 0.44639 0.89024 0.04869 0.0
C165 C 0.41784 0.88321 0.02583 0.0
C166 C 0.41328 0.8885 -0.00848 0.0
C167 C 0.43647 0.9007 0.98035 0.0
C168 C 0.64606 0.91622 0.05931 0.0
C169 C 0.62095 0.95856 -0.00921 0.0
C170 C 0.81643 0.92151 0.00251 0.0
Eu171 Eu 0.70655 0.92494 -0.0093 0.0
C172 C 0.85718 0.90837 0.01543 0.0
C173 C 0.89276 0.89998 -0.00729 0.0
C174 C 0.92866 0.88708 0.00433 0.0
C175 C 0.93014 0.88232 0.03898 0.0
C176 C 0.8945 0.89068 0.06175 0.0
C177 C 0.8583 0.90356 0.05011 0.0
C178 C 0.66283 0.92684 0.9257 0.0
C179 C 0.68912 0.88841 -0.0067 0.0
O180 O 0.5135 0.92683 0.01408 0.0
O181 O 0.52901 0.91733 0.96568 0.0
O182 O 0.61664 0.90812 0.04456 0.0
O183 O 0.65352 0.92676 0.03854 0.0
O184 O 0.58371 0.94903 -0.01043 0.0
O185 O 0.676 0.9513 -0.00791 0.0
O186 O 0.77725 0.92707 0.02377 0.0
O187 O 0.79525 0.92117 0.97227 0.0
O188 O 0.69151 0.93607 0.9371 0.0
O189 O 0.65612 0.91755 0.94956 0.0
O190 O 0.7259 0.89793 -0.00505 0.0
O191 O 0.6339 0.89555 -0.0081 0.0
H192 H 0.49237 0.90736 0.05579 0.0
H193 H 0.45041 0.88638 0.07525 0.0
H194 H 0.39049 0.88342 0.9735 0.0
H195 H 0.43254 0.90458 0.9538 0.0
H196 H 0.89284 0.90339 0.9659 0.0
H197 H 0.95671 0.88106 -0.01371 0.0
H198 H 0.89499 0.8873 0.08861 0.0
H199 H 0.83114 0.9097 0.06833 0.0
C200 C 0.56651 0.17512 0.96255 0.0
Eu201 Eu 0.46445 0.17592 -0.01236 0.0
C202 C 0.62457 0.17464 0.94862 0.0
C203 C 0.6716 0.17274 0.9708 0.0
C204 C 0.72379 0.17611 0.95936 0.0
C205 C 0.72961 0.18153 0.92555 0.0
C206 C 0.68463 0.18171 0.90245 0.0
C207 C 0.63229 0.17826 0.91394 0.0
C208 C 0.44448 0.17753 0.05581 0.0
C209 C 0.4441 0.13916 -0.00669 0.0
C210 C 0.2579 0.17518 0.02512 0.0
Eu211 Eu 0.36016 0.17278 -0.00148 0.0
C212 C 0.21767 0.18797 0.03569 0.0
C213 C 0.20917 0.20107 0.01533 0.0
C214 C 0.16847 0.21287 0.02437 0.0
C215 C 0.13437 0.21175 0.05361 0.0
C216 C 0.14797 0.1992 0.07599 0.0
C217 C 0.18907 0.18735 0.06693 0.0
C218 C 0.3804 0.17451 0.92949 0.0
C219 C 0.37884 0.20938 -0.0077 0.0
O220 O 0.52243 0.17408 0.94386 0.0
O221 O 0.55524 0.1766 -0.00533 0.0
O222 O 0.47017 0.18629 0.03709 0.0
O223 O 0.42984 0.16806 0.03768 0.0
O224 O 0.4805 0.1488 -0.01288 0.0
O225 O 0.39039 0.1463 -0.00016 0.0
O226 O 0.30504 0.17173 0.04296 0.0
O227 O 0.26742 0.17443 -0.00743 0.0
O228 O 0.35839 0.16424 0.9456 0.0
O229 O 0.39312 0.18294 0.95072 0.0
O230 O 0.34395 0.19967 0.00111 0.0
O231 O 0.43158 0.20237 0.98325 0.0
H232 H 0.66681 0.16977 -0.00241 0.0
H233 H 0.7573 0.17593 0.97797 0.0
H234 H 0.68825 0.1857 0.87621 0.0
H235 H 0.59659 0.17963 0.8963 0.0
H236 H 0.23201 0.20201 -0.00844 0.0
H237 H 0.16038 0.22235 0.00661 0.0
H238 H 0.12399 0.19812 0.0993 0.0
H239 H 0.19686 0.17751 0.08369 0.0
C240 C 0.42989 0.15731 0.47526 0.0
Eu241 Eu 0.42474 0.18426 0.48885 0.0
C242 C 0.40583 0.1442 0.4846 0.0
C243 C 0.41769 0.13662 0.51645 0.0
C244 C 0.41171 0.12211 0.52121 0.0
C245 C 0.39375 0.115 0.49419 0.0
C246 C 0.37345 0.12328 0.4642 0.0
C247 C 0.38013 0.13776 0.45929 0.0
C248 C 0.41947 0.19092 0.55569 0.0
C249 C 0.27264 0.19797 0.48841 0.0
C250 C 0.39714 0.23857 0.4921 0.0
Eu251 Eu 0.40075 0.21084 0.48557 0.0
C252 C 0.44032 0.248 0.48698 0.0
C253 C 0.48846 0.24395 0.46626 0.0
C254 C 0.53251 0.25207 0.46424 0.0
C255 C 0.52905 0.26447 0.48272 0.0
C256 C 0.47985 0.26879 0.50256 0.0
C257 C 0.43596 0.26056 0.50481 0.0
C258 C 0.40602 0.20155 0.42054 0.0
C259 C 0.55266 0.19744 0.48688 0.0
O260 O 0.39709 0.16817 0.45845 0.0
O261 O 0.46277 0.16147 0.49748 0.0
O262 O 0.45852 0.18142 0.54256 0.0
O263 O 0.38389 0.19704 0.53262 0.0
O264 O 0.3164 0.18616 0.48723 0.0
O265 O 0.2964 0.21006 0.48962 0.0
O266 O 0.40768 0.22863 0.51719 0.0
O267 O 0.38001 0.23344 0.46497 0.0
O268 O 0.36143 0.20956 0.43325 0.0
O269 O 0.44398 0.19791 0.44347 0.0
O270 O 0.50873 0.20908 0.48922 0.0
O271 O 0.52894 0.18541 0.48445 0.0
H272 H 0.43664 0.14141 0.53668 0.0
H273 H 0.42755 0.11613 0.54474 0.0
H274 H 0.35799 0.11818 0.44326 0.0
H275 H 0.36993 0.14349 0.43466 0.0
H276 H 0.49256 0.23434 0.4521 0.0
H277 H 0.56953 0.24858 0.4484 0.0
H278 H 0.47622 0.27824 0.51726 0.0
H279 H 0.39928 0.2638 0.52109 0.0
C280 C 0.6546 0.8567 0.49477 0.0
Eu281 Eu 0.65351 0.88428 0.5019 0.0
C282 C 0.61001 0.84759 0.49902 0.0
C283 C 0.56347 0.85126 0.52117 0.0
C284 C 0.51856 0.84339 0.52284 0.0
C285 C 0.51926 0.83166 0.50242 0.0
C286 C 0.56663 0.82782 0.48081 0.0
C287 C 0.61149 0.83575 0.47907 0.0
C288 C 0.652 0.89385 0.56637 0.0
C289 C 0.50126 0.8981 0.50011 0.0
C290 C 0.623 0.93865 0.50665 0.0
Eu291 Eu 0.62907 0.9112 0.49728 0.0
C292 C 0.65891 0.94996 0.50464 0.0
C293 C 0.65483 0.95987 0.47605 0.0
C294 C 0.67703 0.97259 0.47701 0.0
C295 C 0.70328 0.97572 0.50675 0.0
C296 C 0.71327 0.965 0.53387 0.0
C297 C 0.69085 0.95226 0.53295 0.0
C298 C 0.63241 0.90255 0.43231 0.0
C299 C 0.78137 0.89723 0.49866 0.0
O300 O 0.64613 0.8667 0.46969 0.0
O301 O 0.67157 0.86162 0.52226 0.0
O302 O 0.69414 0.88497 0.55373 0.0
O303 O 0.61319 0.89785 0.54393 0.0
O304 O 0.54514 0.88633 0.4991 0.0
O305 O 0.52486 0.91022 0.50112 0.0
O306 O 0.63456 0.9283 0.53081 0.0
O307 O 0.60878 0.93395 0.47823 0.0
O308 O 0.58916 0.91088 0.44543 0.0
O309 O 0.67054 0.89805 0.45508 0.0
O310 O 0.73761 0.90908 0.49967 0.0
O311 O 0.75769 0.88511 0.49762 0.0
H312 H 0.56135 0.86037 0.53683 0.0
H313 H 0.48317 0.84652 0.54008 0.0
H314 H 0.56823 0.81895 0.46449 0.0
H315 H 0.64676 0.83283 0.4616 0.0
H316 H 0.63058 0.95837 0.45386 0.0
H317 H 0.66795 0.9806 0.45568 0.0
H318 H 0.73402 0.96702 0.55693 0.0
H319 H 0.69511 0.94475 0.55534 0.0
H320 H 0.45935 0.36478 0.06554 0.0
H321 H 0.54886 0.34821 0.08189 0.0
H322 H 0.60919 0.383 0.12802 0.0
H323 H 0.52131 0.3996 0.1111 0.0
H324 H 0.64121 0.35549 0.05081 0.0
H325 H 0.71313 0.37148 0.18261 0.0
H326 H 0.67334 0.37362 0.24035 0.0
H327 H 0.56015 0.34416 0.22098 0.0
H328 H 0.59983 0.34163 0.16325 0.0
H329 H 0.87965 0.38789 0.098 0.0
H330 H 0.80474 0.37563 0.12169 0.0
H331 H 0.85623 0.34078 0.05555 0.0
H332 H 0.92937 0.35372 0.02999 0.0
H333 H 0.77142 0.35296 0.1495 0.0
H334 H 0.74309 0.33258 0.02161 0.0
H335 H 0.77547 0.33494 0.96201 0.0
H336 H 0.78829 0.3795 0.97286 0.0
H337 H 0.7558 0.37736 0.03241 0.0
C338 C 0.49119 0.3688 0.07988 0.0
C339 C 0.48389 0.38362 0.08617 0.0
C340 C 0.54192 0.35925 0.08964 0.0
C341 C 0.58575 0.36434 0.10618 0.0
C342 C 0.57566 0.37871 0.11582 0.0
C343 C 0.52526 0.38828 0.10588 0.0
C344 C 0.64602 0.35644 0.10506 0.0
C345 C 0.66961 0.3543 0.07267 0.0
C346 C 0.68306 0.35501 0.13347 0.0
C347 C 0.65971 0.35632 0.16849 0.0
C348 C 0.68022 0.36531 0.19071 0.0
C349 C 0.65752 0.36664 0.22345 0.0
C350 C 0.61427 0.35902 0.23434 0.0
C351 C 0.59363 0.35006 0.21251 0.0
C352 C 0.61617 0.34869 0.17974 0.0
C353 C 0.87626 0.37738 0.08925 0.0
C354 C 0.90892 0.37191 0.06158 0.0
C355 C 0.83356 0.37028 0.10301 0.0
C356 C 0.82336 0.3575 0.08959 0.0
C357 C 0.86209 0.35087 0.06555 0.0
C358 C 0.9038 0.35823 0.05097 0.0
C359 C 0.76567 0.35355 0.09499 0.0
C360 C 0.74282 0.35329 0.12805 0.0
C361 C 0.72862 0.35336 0.06709 0.0
C362 C 0.74783 0.35474 0.03139 0.0
C363 C 0.75286 0.34285 0.01118 0.0
C364 C 0.77122 0.34416 0.97747 0.0
C365 C 0.78417 0.35734 0.96371 0.0
C366 C 0.77846 0.36928 0.98357 0.0
C367 C 0.76007 0.36804 0.01727 0.0
H368 H 0.79846 0.35832 0.93763 0.0
H369 H 0.59673 0.36008 0.25969 0.0
H370 H 0.24355 0.69519 0.85123 0.0
H371 H 0.3126 0.71113 0.84167 0.0
H372 H 0.18341 0.74784 0.86594 0.0
H373 H 0.11575 0.73155 0.87949 0.0
H374 H 0.35272 0.7336 0.82254 0.0
H375 H 0.22941 0.76519 0.92045 0.0
H376 H 0.14315 0.76602 0.9569 0.0
H377 H 0.17587 0.71935 0.97035 0.0
H378 H 0.26259 0.71831 0.93433 0.0
H379 H 0.60132 0.73248 0.92863 0.0
H380 H 0.51465 0.74525 0.89795 0.0
H381 H 0.41588 0.71569 0.94884 0.0
H382 H 0.50115 0.7029 0.97872 0.0
H383 H 0.35598 0.74303 0.94447 0.0
H384 H 0.47863 0.70941 0.86972 0.0
H385 H 0.56822 0.70226 0.83736 0.0
H386 H 0.54194 0.74446 0.78373 0.0
H387 H 0.45243 0.75188 0.81608 0.0
C388 C 0.22931 0.70671 0.85391 0.0
C389 C 0.17582 0.7119 0.86872 0.0
C390 C 0.26872 0.71595 0.84776 0.0
C391 C 0.25442 0.73058 0.85553 0.0
C392 C 0.19634 0.73642 0.86167 0.0
C393 C 0.15736 0.72705 0.86921 0.0
C394 C 0.30167 0.73747 0.86775 0.0
C395 C 0.35304 0.73622 0.84887 0.0
C396 C 0.30258 0.74108 0.90208 0.0
C397 C 0.25186 0.74169 0.9246 0.0
C398 C 0.21822 0.75514 0.93138 0.0
C399 C 0.16929 0.75564 0.9519 0.0
C400 C 0.15394 0.74275 0.96584 0.0
C401 C 0.1878 0.72933 0.95957 0.0
C402 C 0.23691 0.72878 0.93923 0.0
C403 C 0.56088 0.72883 0.93346 0.0
C404 C 0.55817 0.71666 0.9562 0.0
C405 C 0.51148 0.73619 0.91604 0.0
C406 C 0.45883 0.73145 0.92119 0.0
C407 C 0.45584 0.71969 0.94483 0.0
C408 C 0.5048 0.71238 0.96206 0.0
C409 C 0.40714 0.73746 0.9003 0.0
C410 C 0.35512 0.74151 0.91747 0.0
C411 C 0.40609 0.7357 0.86503 0.0
C412 C 0.45947 0.73124 0.84553 0.0
C413 C 0.49221 0.71717 0.85113 0.0
C414 C 0.5429 0.71307 0.83281 0.0
C415 C 0.56088 0.72292 0.80859 0.0
C416 C 0.52806 0.73687 0.80257 0.0
C417 C 0.47739 0.74103 0.8209 0.0
H418 H 0.60015 0.71973 0.79444 0.0
H419 H 0.11586 0.74316 0.98153 0.0
H420 H 0.68263 0.71365 0.48701 0.0
H421 H 0.57869 0.71403 0.4863 0.0
H422 H 0.60936 0.66769 0.48801 0.0
H423 H 0.71405 0.6674 0.48749 0.0
H424 H 0.50123 0.66899 0.47483 0.0
H425 H 0.50881 0.707 0.55297 0.0
H426 H 0.53286 0.7301 0.56955 0.0
H427 H 0.45107 0.75241 0.47915 0.0
H428 H 0.42688 0.72942 0.46198 0.0
H429 H 0.17876 0.66703 0.49123 0.0
H430 H 0.28261 0.66686 0.49186 0.0
H431 H 0.25052 0.71327 0.4873 0.0
H432 H 0.14595 0.71336 0.48767 0.0
H433 H 0.35909 0.71206 0.5018 0.0
H434 H 0.35026 0.67476 0.42367 0.0
H435 H 0.3261 0.65191 0.40562 0.0
H436 H 0.40954 0.62858 0.4945 0.0
H437 H 0.43394 0.65132 0.51308 0.0
C438 C 0.6696 0.70316 0.48742 0.0
C439 C 0.71646 0.69047 0.48746 0.0
C440 C 0.60528 0.70334 0.48747 0.0
C441 C 0.57514 0.69086 0.4881 0.0
C442 C 0.62225 0.67818 0.48784 0.0
C443 C 0.68664 0.678 0.48756 0.0
C444 C 0.50048 0.69089 0.48856 0.0
C445 C 0.47217 0.67876 0.48128 0.0
C446 C 0.45223 0.70278 0.49595 0.0
C447 C 0.46687 0.7165 0.50599 0.0
C448 C 0.49622 0.71683 0.53661 0.0
C449 C 0.50987 0.72989 0.54608 0.0
C450 C 0.49394 0.74268 0.52525 0.0
C451 C 0.46378 0.74247 0.49509 0.0
C452 C 0.45009 0.72944 0.48548 0.0
C453 C 0.19146 0.67757 0.49015 0.0
C454 C 0.14431 0.6902 0.48923 0.0
C455 C 0.25568 0.67751 0.49007 0.0
C456 C 0.28537 0.69008 0.48866 0.0
C457 C 0.23797 0.70272 0.48811 0.0
C458 C 0.17366 0.70278 0.4883 0.0
C459 C 0.35993 0.69014 0.48823 0.0
C460 C 0.38819 0.70229 0.49546 0.0
C461 C 0.40813 0.67829 0.48068 0.0
C462 C 0.39327 0.66471 0.46991 0.0
C463 C 0.36323 0.66475 0.43937 0.0
C464 C 0.34954 0.65183 0.42905 0.0
C465 C 0.36611 0.63881 0.44896 0.0
C466 C 0.39659 0.63868 0.47916 0.0
C467 C 0.41037 0.65157 0.4896 0.0
H468 H 0.35545 0.62883 0.44094 0.0
H469 H 0.50473 0.75276 0.53255 0.0
H470 H 0.87707 0.42921 0.50897 0.0
H471 H 0.77351 0.4292 0.50973 0.0
H472 H 0.80579 0.38403 0.49216 0.0
H473 H 0.91041 0.38401 0.4925 0.0
H474 H 0.69709 0.38356 0.50567 0.0
H475 H 0.62465 0.44185 0.53641 0.0
H476 H 0.64821 0.46635 0.52508 0.0
H477 H 0.72514 0.45395 0.42993 0.0
H478 H 0.70181 0.4294 0.44071 0.0
H479 H 0.37368 0.38365 0.49174 0.0
H480 H 0.47726 0.38344 0.49105 0.0
H481 H 0.4463 0.42886 0.50591 0.0
H482 H 0.34156 0.42908 0.50559 0.0
H483 H 0.5544 0.42909 0.4933 0.0
H484 H 0.6172 0.37264 0.45769 0.0
H485 H 0.59078 0.34832 0.46571 0.0
H486 H 0.53284 0.3571 0.56695 0.0
H487 H 0.55823 0.38156 0.55926 0.0
C488 C 0.8645 0.41893 0.50495 0.0
C489 C 0.9118 0.40666 0.50051 0.0
C490 C 0.80037 0.41893 0.50493 0.0
C491 C 0.77074 0.4067 0.5 0.0
C492 C 0.81827 0.39435 0.49591 0.0
C493 C 0.88262 0.39433 0.49609 0.0
C494 C 0.6961 0.40669 0.49957 0.0
C495 C 0.66795 0.39393 0.50271 0.0
C496 C 0.64767 0.41923 0.49596 0.0
C497 C 0.66216 0.4338 0.48956 0.0
C498 C 0.64664 0.44437 0.51311 0.0
C499 C 0.65994 0.45825 0.50679 0.0
C500 C 0.68834 0.46168 0.47686 0.0
C501 C 0.70332 0.45126 0.45314 0.0
C502 C 0.69011 0.43737 0.45934 0.0
C503 C 0.38656 0.39395 0.49513 0.0
C504 C 0.33955 0.40636 0.49885 0.0
C505 C 0.45076 0.39382 0.49516 0.0
C506 C 0.48078 0.40606 0.4993 0.0
C507 C 0.43352 0.41853 0.50274 0.0
C508 C 0.3691 0.41867 0.50257 0.0
C509 C 0.55545 0.406 0.49967 0.0
C510 C 0.58362 0.41874 0.49646 0.0
C511 C 0.60388 0.39346 0.50295 0.0
C512 C 0.58916 0.37887 0.50782 0.0
C513 C 0.59877 0.36936 0.48161 0.0
C514 C 0.58369 0.3556 0.48603 0.0
C515 C 0.55998 0.35119 0.51678 0.0
C516 C 0.55107 0.36055 0.54313 0.0
C517 C 0.56557 0.37437 0.53872 0.0
H518 H 0.54872 0.3405 0.52022 0.0
H519 H 0.69862 0.47243 0.47202 0.0
H520 H 0.95896 0.85572 0.01244 0.0
H521 H 0.0497 0.83858 0.02216 0.0
H522 H 0.09173 0.86392 0.10228 0.0
H523 H 1.00153 0.88069 0.09311 0.0
H524 H 0.13677 0.84954 0.0049 0.0
H525 H 0.19849 0.8498 0.1493 0.0
H526 H 0.15921 0.84297 0.20493 0.0
H527 H 0.06382 0.81484 0.15814 0.0
H528 H 0.10321 0.82129 0.1022 0.0
H529 H 0.34684 0.88293 0.0802 0.0
H530 H 0.27956 0.86654 0.09262 0.0
H531 H 0.35405 0.84002 0.01261 0.0
H532 H 0.42071 0.85685 -0.00072 0.0
H533 H 0.26359 0.83904 0.10621 0.0
H534 H 0.24729 0.83367 0.96645 0.0
H535 H 0.27944 0.84357 0.91126 0.0
H536 H 0.27047 0.88532 0.95137 0.0
H537 H 0.23772 0.87567 0.00658 0.0
C538 C 0.98673 0.85724 0.03301 0.0
C539 C 0.97406 0.86972 0.05144 0.0
C540 C 0.03831 0.84738 0.03875 0.0
C541 C 0.07809 0.84997 0.06272 0.0
C542 C 0.06179 0.86143 0.08399 0.0
C543 C 1.01009 0.87118 0.07849 0.0
C544 C 0.14041 0.844 0.05899 0.0
C545 C 0.16457 0.84654 0.02695 0.0
C546 C 0.17714 0.8401 0.08755 0.0
C547 C 0.15414 0.836 0.1214 0.0
C548 C 0.16973 0.84201 0.15082 0.0
C549 C 0.14723 0.83825 0.18245 0.0
C550 C 0.10909 0.82847 0.18508 0.0
C551 C 0.09336 0.82243 0.15607 0.0
C552 C 0.11571 0.82615 0.12437 0.0
C553 C 0.35023 0.87335 0.06597 0.0
C554 C 0.38784 0.87134 0.03823 0.0
C555 C 0.31199 0.86388 0.07328 0.0
C556 C 0.31089 0.85221 0.05306 0.0
C557 C 0.35351 0.84911 0.02815 0.0
C558 C 0.39121 0.85876 0.02039 0.0
C559 C 0.25758 0.84598 0.05302 0.0
C560 C 0.23571 0.84106 0.08409 0.0
C561 C 0.22219 0.84797 0.02375 0.0
C562 C 0.24086 0.85391 -0.00943 0.0
C563 C 0.25212 0.84496 0.96337 0.0
C564 C 0.2704 0.85053 0.93213 0.0
C565 C 0.27718 0.86505 0.92785 0.0
C566 C 0.26532 0.87407 0.95473 0.0
C567 C 0.24684 0.86857 -0.01405 0.0
H568 H 0.29149 0.86932 0.90369 0.0
H569 H 0.09169 0.82559 0.20959 0.0
H570 H 1.0329 0.20421 0.07532 0.0
H571 H 0.9432 0.21383 0.04729 0.0
H572 H 1.01147 0.25091 0.0054 0.0
H573 H 0.10331 0.24119 0.03382 0.0
H574 H 0.85762 0.23467 0.02579 0.0
H575 H 1.00435 0.25266 0.93678 0.0
H576 H 0.10626 0.25175 0.9204 0.0
H577 H 0.14202 0.20568 0.94618 0.0
H578 H 0.04076 0.20646 0.96359 0.0
H579 H 0.71696 0.20839 0.8924 0.0
H580 H 0.77682 0.22628 0.90213 0.0
H581 H 0.90251 0.19277 0.95334 0.0
H582 H 0.84384 0.17466 0.94278 0.0
H583 H 0.93977 0.22061 0.91408 0.0
H584 H 0.82732 0.20554 0.0275 0.0
H585 H 0.73622 0.19791 0.04546 0.0
H586 H 0.64272 0.23006 0.97376 0.0
H587 H 0.73331 0.23798 0.95576 0.0
C588 C 1.02869 0.21482 0.06188 0.0
C589 C 0.07689 0.22138 0.05477 0.0
C590 C 0.97662 0.22037 0.0456 0.0
C591 C 0.97205 0.23258 0.02235 0.0
C592 C 1.01534 0.24102 0.02181 0.0
C593 C 0.06779 0.23545 0.03818 0.0
C594 C 0.9321 0.23333 -0.00666 0.0
C595 C 0.87455 0.2324 0.00067 0.0
C596 C 0.95437 0.23001 0.96065 0.0
C597 C 1.01551 0.22966 0.95173 0.0
C598 C 0.03423 0.24239 0.93919 0.0
C599 C 0.09181 0.24189 0.92981 0.0
C600 C 0.13063 0.22867 0.93235 0.0
C601 C 0.11198 0.21592 0.94434 0.0
C602 C 0.05467 0.2164 0.9542 0.0
C603 C 0.75894 0.20462 0.90389 0.0
C604 C 0.77512 0.19018 0.91769 0.0
C605 C 0.79283 0.21493 0.90965 0.0
C606 C 0.84291 0.21084 0.92921 0.0
C607 C 0.86352 0.19608 0.93837 0.0
C608 C 0.82994 0.18576 0.93242 0.0
C609 C 0.86645 0.22171 0.94705 0.0
C610 C 0.92087 0.2244 0.93776 0.0
C611 C 0.84189 0.22629 0.9782 0.0
C612 C 0.78686 0.22232 -0.00969 0.0
C613 C 0.78718 0.21107 0.01586 0.0
C614 C 0.73572 0.20667 0.02597 0.0
C615 C 0.68372 0.21348 0.01072 0.0
C616 C 0.68303 0.22479 -0.01446 0.0
C617 C 0.73438 0.22926 0.97543 0.0
H618 H 0.64397 0.21 0.01842 0.0
H619 H 0.17514 0.2283 0.92499 0.0
H620 H 0.19823 0.17475 0.48473 0.0
H621 H 0.0945 0.17448 0.485 0.0
H622 H 0.05864 0.22048 0.49184 0.0
H623 H 0.163 0.22067 0.4921 0.0
H624 H 0.95302 0.2178 0.5096 0.0
H625 H 1.01778 0.18707 0.41807 0.0
H626 H 0.07543 0.16606 0.39167 0.0
H627 H 1.02144 0.137 0.46942 0.0
H628 H 0.96373 0.15786 0.49634 0.0
H629 H 0.62665 0.22082 0.48998 0.0
H630 H 0.73037 0.22122 0.48947 0.0
H631 H 0.76697 0.17516 0.4837 0.0
H632 H 0.66272 0.17485 0.48346 0.0
H633 H 0.87269 0.17783 0.46577 0.0
H634 H 0.80036 0.20847 0.55416 0.0
H635 H 0.74661 0.22937 0.58265 0.0
H636 H 0.81938 0.25876 0.51408 0.0
H637 H 0.87117 0.2381 0.48403 0.0
C638 C 0.17006 0.18519 0.48618 0.0
C639 C 0.19863 0.19775 0.48829 0.0
C640 C 0.10597 0.18507 0.48596 0.0
C641 C 0.05794 0.19751 0.48763 0.0
C642 C 0.08671 0.21005 0.49014 0.0
C643 C 0.15085 0.21017 0.49028 0.0
C644 C 0.98339 0.19754 0.48721 0.0
C645 C 0.93769 0.20882 0.49922 0.0
C646 C 0.95241 0.18649 0.47518 0.0
C647 C 0.98706 0.174 0.45936 0.0
C648 C 1.01844 0.17619 0.42956 0.0
C649 C 0.05107 0.16432 0.41451 0.0
C650 C 0.05223 0.15021 0.42892 0.0
C651 C 1.02061 0.14793 0.45834 0.0
C652 C 0.98793 0.15977 0.47349 0.0
C653 C 0.65498 0.21039 0.48877 0.0
C654 C 0.62665 0.19776 0.48698 0.0
C655 C 0.71906 0.21058 0.48887 0.0
C656 C 0.76731 0.19817 0.48748 0.0
C657 C 0.73874 0.18558 0.48523 0.0
C658 C 0.67465 0.18538 0.48511 0.0
C659 C 0.84188 0.1982 0.48792 0.0
C660 C 0.88769 0.1869 0.47597 0.0
C661 C 0.8729 0.20926 0.50005 0.0
C662 C 0.83883 0.22174 0.51647 0.0
C663 C 0.804 0.21941 0.54473 0.0
C664 C 0.77376 0.23122 0.5611 0.0
C665 C 0.77908 0.24539 0.54994 0.0
C666 C 0.81463 0.24778 0.52237 0.0
C667 C 0.84404 0.23604 0.50548 0.0
H668 H 0.75596 0.25452 0.56277 0.0
H669 H 0.07753 0.14103 0.41724 0.0
H670 H 0.89001 0.87434 0.4966 0.0
H671 H 0.99386 0.8742 0.49614 0.0
H672 H 0.9617 0.92032 0.5008 0.0
H673 H 0.857 0.92043 0.50058 0.0
H674 H 0.07058 0.91975 0.48414 0.0
H675 H 0.05947 0.87933 0.56539 0.0
H676 H 1.03376 0.85587 0.58609 0.0
H677 H 0.1188 0.83565 0.50047 0.0
H678 H 0.1451 0.85902 0.47918 0.0
H679 H 0.39227 0.92086 0.50234 0.0
H680 H 0.28857 0.92088 0.50293 0.0
H681 H 0.32146 0.87478 0.49791 0.0
H682 H 0.42608 0.87478 0.49814 0.0
H683 H 0.21212 0.87526 0.51475 0.0
H684 H 0.22319 0.91636 0.43391 0.0
H685 H 0.24769 0.94012 0.41451 0.0
H686 H 0.16142 0.95926 0.50117 0.0
H687 H 0.13667 0.93558 0.5211 0.0
C688 C 0.90268 0.88482 0.49774 0.0
C689 C 0.85545 0.89738 0.49876 0.0
C690 C 0.96686 0.88474 0.49787 0.0
C691 C 0.9965 0.89721 0.49929 0.0
C692 C 0.94909 0.90982 0.49993 0.0
C693 C 0.88473 0.9099 0.49982 0.0
C694 C 0.07109 0.89719 0.49966 0.0
C695 C 0.09954 0.90965 0.49136 0.0
C696 C 0.11906 0.88492 0.5082 0.0
C697 C 0.10366 0.87092 0.52057 0.0
C698 C 0.07256 0.86987 0.55096 0.0
C699 C 0.05797 0.8566 0.56278 0.0
C700 C 0.07459 0.84429 0.54452 0.0
C701 C 0.10603 0.84521 0.51448 0.0
C702 C 0.12083 0.85846 0.50255 0.0
C703 C 0.37981 0.91037 0.50113 0.0
C704 C 0.42723 0.89786 0.50001 0.0
C705 C 0.31568 0.91037 0.50105 0.0
C706 C 0.28624 0.89786 0.49954 0.0
C707 C 0.33386 0.88529 0.49883 0.0
C708 C 0.39819 0.88528 0.49893 0.0
C709 C 0.21166 0.89783 0.49914 0.0
C710 C 0.18319 0.88535 0.50745 0.0
C711 C 0.16362 0.9101 0.49074 0.0
C712 C 0.1787 0.92422 0.47914 0.0
C713 C 0.20968 0.92564 0.44884 0.0
C714 C 0.22356 0.93908 0.43776 0.0
C715 C 0.20628 0.95118 0.45666 0.0
C716 C 0.17491 0.94987 0.48662 0.0
C717 C 0.16093 0.93645 0.49781 0.0
H718 H 0.21708 0.96157 0.44805 0.0
H719 H 0.06319 0.83403 0.55367 0.0
H720 H 0.0538 0.61869 0.9757 0.0
H721 H 0.07991 0.59225 0.974 0.0
H722 H 0.91311 0.58769 0.01159 0.0
H723 H 0.8863 0.61438 0.01189 0.0
H724 H 0.93405 0.56184 -0.00384 0.0
H725 H 0.16145 0.55887 0.94558 0.0
H726 H 0.24597 0.57077 0.94934 0.0
H727 H 0.19151 0.58434 0.04806 0.0
H728 H 0.10686 0.57246 0.04489 0.0
H729 H 1.01361 0.48082 0.97613 0.0
H730 H 0.98781 0.50736 0.97538 0.0
H731 H 0.15825 0.50943 0.00749 0.0
H732 H 0.18457 0.48271 0.00696 0.0
H733 H 0.13591 0.53639 -0.00833 0.0
H734 H 0.97109 0.52206 0.04792 0.0
H735 H 0.88707 0.50988 0.05529 0.0
H736 H 0.8176 0.53037 0.96008 0.0
H737 H 0.90142 0.54259 0.95212 0.0
C738 C 1.02129 0.61246 0.98408 0.0
C739 C 0.9661 0.62073 -0.00577 0.0
C740 C 0.03741 0.59625 0.98354 0.0
C741 C 1.00141 0.58551 -0.00636 0.0
C742 C 0.94592 0.59385 0.00347 0.0
C743 C 0.92961 0.6101 0.00374 0.0
C744 C 1.0196 0.56681 -0.00646 0.0
C745 C 0.97902 0.55681 -0.00528 0.0
C746 C 0.07746 0.55775 -0.00712 0.0
C747 C 0.12766 0.56496 -0.00521 0.0
C748 C 0.16759 0.56441 0.96805 0.0
C749 C 0.21546 0.57114 0.97008 0.0
C750 C 0.22398 0.57835 -0.00113 0.0
C751 C 0.18476 0.5788 0.02574 0.0
C752 C 0.13684 0.57207 0.02384 0.0
C753 C 0.04709 0.48649 0.98338 0.0
C754 C 0.10308 0.47755 -0.0083 0.0
C755 C 1.03119 0.50272 0.98344 0.0
C756 C 0.06831 0.51278 -0.0076 0.0
C757 C 0.1246 0.50379 0.00039 0.0
C758 C 0.14065 0.48754 0.00011 0.0
C759 C 0.05026 0.53146 -0.00701 0.0
C760 C 0.09087 0.54144 -0.00775 0.0
C761 C 0.99248 0.54048 -0.00512 0.0
C762 C 0.9427 0.53307 -0.00076 0.0
C763 C 0.93797 0.5239 0.02852 0.0
C764 C 0.89041 0.517 0.0328 0.0
C765 C 0.84713 0.51931 0.0081 0.0
C766 C 0.85124 0.52855 0.97912 0.0
C767 C 0.89874 0.53547 0.97471 0.0
H768 H 0.81034 0.51397 0.01146 0.0
H769 H 0.26104 0.58357 0.00038 0.0
H770 H 1.00368 0.50238 0.41348 0.0
H771 H 0.98949 0.52483 0.37732 0.0
H772 H 0.16932 0.51654 0.34958 0.0
H773 H 0.18388 0.49392 0.38666 0.0
H774 H 0.14005 0.54209 0.37483 0.0
H775 H 0.06501 0.52032 0.28667 0.0
H776 H 1.00968 0.50441 0.2594 0.0
H777 H 0.85173 0.5293 0.2945 0.0
H778 H 0.906 0.54523 0.32246 0.0
H779 H 0.04117 0.61591 0.3492 0.0
H780 H 0.07301 0.59331 0.32149 0.0
H781 H 0.9298 0.57599 0.36587 0.0
H782 H 0.89715 0.59862 0.39292 0.0
H783 H 0.96676 0.56336 0.30587 0.0
H784 H 0.04892 0.57496 0.4135 0.0
H785 H 0.10001 0.59032 0.44578 0.0
H786 H 0.242 0.58353 0.37616 0.0
H787 H 0.19118 0.56829 0.34321 0.0
C788 C 0.04001 0.50521 0.39922 0.0
C789 C 0.09505 0.4966 0.40327 0.0
C790 C 1.0317 0.51794 0.37807 0.0
C791 C 0.07819 0.52232 0.36033 0.0
C792 C 0.13275 0.51329 0.36279 0.0
C793 C 0.14105 0.50043 0.38396 0.0
C794 C 0.07082 0.53743 0.34484 0.0
C795 C 0.10366 0.54667 0.35847 0.0
C796 C 1.02308 0.54346 0.32372 0.0
C797 C 0.98976 0.53403 0.30661 0.0
C798 C 1.01849 0.52239 0.28869 0.0
C799 C 0.98728 0.51335 0.27311 0.0
C800 C 0.92723 0.51586 0.27518 0.0
C801 C 0.89825 0.52741 0.29282 0.0
C802 C 0.92924 0.53647 0.30847 0.0
C803 C 1.01494 0.60755 0.3517 0.0
C804 C 0.96751 0.60882 0.3739 0.0
C805 C 1.03326 0.59463 0.33586 0.0
C806 C 1.00453 0.58287 0.34229 0.0
C807 C 0.9528 0.5849 0.3607 0.0
C808 C 0.93448 0.59778 0.37646 0.0
C809 C 1.03394 0.56779 0.3376 0.0
C810 C 1.00518 0.55864 0.32039 0.0
C811 C 0.08519 0.56175 0.35568 0.0
C812 C 0.11612 0.57066 0.37574 0.0
C813 C 0.09096 0.5768 0.40506 0.0
C814 C 0.11981 0.58548 0.42344 0.0
C815 C 0.17417 0.58793 0.41298 0.0
C816 C 0.19984 0.58166 0.38417 0.0
C817 C 0.17102 0.57301 0.36562 0.0
H818 H 0.19647 0.59465 0.42724 0.0
H819 H 0.90315 0.50884 0.26312 0.0
H820 H 0.50892 0.97958 -0.00511 0.0
H821 H 0.48205 1.00602 -0.00362 0.0
H822 H 0.65927 1.00991 -0.01257 0.0
H823 H 0.68621 0.98321 -0.01262 0.0
H824 H 0.63117 1.03576 0.0034 0.0
H825 H 0.48401 1.02659 0.9271 0.0
H826 H 0.40331 1.01536 0.90949 0.0
H827 H 0.31041 1.02818 -0.00013 0.0
H828 H 0.39072 1.03944 0.01802 0.0
H829 H 0.55424 0.11832 0.98183 0.0
H830 H 0.58085 0.09179 0.98066 0.0
H831 H 0.40671 0.08768 0.00278 0.0
H832 H 0.37999 0.11438 0.00333 0.0
H833 H 0.43331 0.0621 0.98006 0.0
H834 H 0.58007 0.07274 0.05391 0.0
H835 H 0.66053 0.08447 0.06961 0.0
H836 H 0.75479 0.06915 0.9816 0.0
H837 H 0.67469 0.05743 0.9653 0.0
C838 C 0.54377 0.98565 -0.00707 0.0
C839 C 0.60178 0.97716 -0.0093 0.0
C840 C 0.52739 1.00188 -0.00665 0.0
C841 C 0.56611 1.01248 -0.00901 0.0
C842 C 0.62424 1.0039 -0.01091 0.0
C843 C 0.64068 0.98764 -0.01102 0.0
C844 C 0.54787 1.03122 -0.00896 0.0
C845 C 0.58718 1.041 -0.00223 0.0
C846 C 0.49118 1.04054 0.9845 0.0
C847 C 0.44348 1.03366 0.97407 0.0
C848 C 0.44642 1.02694 0.94324 0.0
C849 C 0.40078 1.02059 0.93317 0.0
C850 C 0.35186 1.02101 0.95361 0.0
C851 C 0.3484 1.02783 0.98412 0.0
C852 C 0.39393 1.03419 -0.00569 0.0
C853 C 0.52009 0.11219 -0.01319 0.0
C854 C 0.46297 0.12058 -0.00708 0.0
C855 C 0.53636 0.09595 -0.0135 0.0
C856 C 0.49836 0.08531 -0.00757 0.0
C857 C 0.44105 0.09377 -0.00192 0.0
C858 C 0.42478 0.11002 -0.00153 0.0
C859 C 0.51659 0.0666 -0.00762 0.0
C860 C 0.47729 0.05684 -0.01431 0.0
C861 C 0.57338 0.05733 -0.00131 0.0
C862 C 0.62127 0.06436 0.00824 0.0
C863 C 0.61791 0.07194 0.03788 0.0
C864 C 0.66342 0.07857 0.04687 0.0
C865 C 0.71266 0.07759 0.02656 0.0
C866 C 0.71657 0.06993 -0.00274 0.0
C867 C 0.67116 0.06329 -0.01186 0.0
H868 H 0.74784 0.08274 0.03355 0.0
H869 H 0.31657 1.01609 0.94577 0.0
H870 H 0.44225 0.09967 0.44208 0.0
H871 H 0.49904 0.07541 0.44664 0.0
H872 H 0.44641 0.0697 0.55104 0.0
H873 H 0.38829 0.09426 0.54664 0.0
H874 H 0.56158 0.06564 0.54523 0.0
H875 H 0.41044 0.0483 0.49134 0.0
H876 H 0.33576 0.04804 0.44839 0.0
H877 H 0.46468 1.04316 0.37036 0.0
H878 H 0.54011 1.04359 0.41277 0.0
H879 H 0.67202 0.98993 0.56376 0.0
H880 H 0.63266 1.01561 0.56387 0.0
H881 H 0.69424 1.02243 0.46176 0.0
H882 H 0.73541 0.99654 0.46163 0.0
H883 H 0.57635 1.02623 0.46656 0.0
H884 H 0.72825 1.04264 0.52225 0.0
H885 H 0.80162 1.04235 0.56631 0.0
H886 H 0.66968 0.04815 0.64247 0.0
H887 H 0.59551 0.04827 0.59895 0.0
C888 C 0.44017 0.0931 0.46561 0.0
C889 C 0.41103 0.099 0.49416 0.0
C890 C 0.47323 0.07918 0.46822 0.0
C891 C 0.47733 0.07082 0.49926 0.0
C892 C 0.44413 0.07609 0.52695 0.0
C893 C 0.41084 0.09007 0.52436 0.0
C894 C 0.5217 0.05751 0.50357 0.0
C895 C 0.56432 0.05687 0.52846 0.0
C896 C 0.5262 1.04639 0.48085 0.0
C897 C 0.48092 1.04609 0.45523 0.0
C898 C 0.42285 0.04729 0.46499 0.0
C899 C 0.38038 1.04709 0.44074 0.0
C900 C 0.39545 1.04561 0.40666 0.0
C901 C 0.45306 1.0443 0.39677 0.0
C902 C 0.49571 1.04451 0.42091 0.0
C903 C 0.68056 0.99693 0.542 0.0
C904 C 0.70515 0.9911 0.51217 0.0
C905 C 0.65763 1.0117 0.54211 0.0
C906 C 0.65936 1.02081 0.51253 0.0
C907 C 0.69189 1.01547 0.48467 0.0
C908 C 0.7153 1.00069 0.48463 0.0
C909 C 0.61648 1.03438 0.5081 0.0
C910 C 0.57386 1.03504 0.48323 0.0
C911 C 0.6118 1.04541 0.53103 0.0
C912 C 0.65631 1.04536 0.55732 0.0
C913 C 0.71488 1.04373 0.54843 0.0
C914 C 0.75663 1.04362 0.57331 0.0
C915 C 0.74034 1.0452 0.60718 0.0
C916 C 0.68224 1.04692 0.61622 0.0
C917 C 0.64031 1.04703 0.59145 0.0
H918 H 0.77273 1.04511 0.6264 0.0
H919 H 0.3625 1.04546 0.38793 0.0
H920 H 0.12959 0.36529 0.98156 0.0
H921 H 0.15588 0.33882 0.9798 0.0
H922 H 0.32836 0.34047 0.00889 0.0
H923 H 0.30214 0.36717 0.00937 0.0
H924 H 0.35684 0.31508 -0.00948 0.0
H925 H 0.1788 0.31983 0.05245 0.0
H926 H 0.07537 0.32863 0.06272 0.0
H927 H 1.03309 0.31194 0.9696 0.0
H928 H 0.13635 0.30315 0.95869 0.0
H929 H 0.4354 0.23434 0.96983 0.0
H930 H 0.40768 0.26081 0.96906 0.0
H931 H 0.2467 0.25636 0.01556 0.0
H932 H 0.27397 0.22966 0.01492 0.0
H933 H 0.21248 0.28308 -0.00013 0.0
H934 H 0.41819 0.29772 0.94255 0.0
H935 H 0.52338 0.28893 0.94247 0.0
H936 H 0.51268 0.26669 0.0407 0.0
H937 H 0.40751 0.27544 0.0414 0.0
C938 C 0.17368 0.36044 -0.01202 0.0
C939 C 0.21164 0.37034 -0.00411 0.0
C940 C 0.18969 0.34425 -0.0126 0.0
C941 C 0.2461 0.33525 -0.00483 0.0
C942 C 0.28413 0.34525 0.00271 0.0
C943 C 0.26821 0.36146 0.00308 0.0
C944 C 0.26495 0.31663 -0.00498 0.0
C945 C 0.32342 0.30856 -0.00777 0.0
C946 C 0.22696 0.30582 -0.00182 0.0
C947 C 0.16517 0.311 0.00459 0.0
C948 C 0.14739 0.31808 0.03415 0.0
C949 C 0.08884 0.32307 0.04007 0.0
C950 C 0.0477 0.32089 0.01677 0.0
C951 C 0.06502 0.31366 -0.01243 0.0
C952 C 0.12353 0.30867 0.9815 0.0
C953 C 0.39366 0.23853 0.98037 0.0
C954 C 0.35924 0.22785 -0.00739 0.0
C955 C 0.37694 0.25471 0.98043 0.0
C956 C 0.32338 0.26295 -0.00665 0.0
C957 C 0.28863 0.2522 0.00524 0.0
C958 C 0.30519 0.23598 0.00491 0.0
C959 C 0.30425 0.28156 -0.00595 0.0
C960 C 0.24578 0.28963 -0.00269 0.0
C961 C 0.34235 0.29235 -0.00789 0.0
C962 C 0.40511 0.28707 -0.0082 0.0
C963 C 0.43838 0.29096 0.9641 0.0
C964 C 0.49793 0.28599 0.96395 0.0
C965 C 0.52465 0.27721 -0.0085 0.0
C966 C 0.49191 0.27345 0.01933 0.0
C967 C 0.43236 0.2784 0.01962 0.0
H968 H 0.57074 0.27336 -0.00869 0.0
H969 H 1.00241 0.32478 0.02137 0.0
H970 H 0.62508 0.86411 -0.01071 0.0
H971 H 0.65291 0.83765 -0.01211 0.0
H972 H 0.83045 0.84104 -0.00456 0.0
H973 H 0.80223 0.86774 -0.00396 0.0
H974 H 0.8513 0.81561 0.97163 0.0
H975 H 0.70617 0.82024 0.05986 0.0
H976 H 0.60976 0.82865 0.08379 0.0
H977 H 0.53231 0.80979 0.00428 0.0
H978 H 0.62829 0.80136 0.97978 0.0
H979 H 0.94601 0.73391 -0.01356 0.0
H980 H 0.91927 0.7603 -0.01178 0.0
H981 H 0.74122 0.75683 -0.00565 0.0
H982 H 0.76878 0.73013 -0.00578 0.0
H983 H 0.72053 0.78247 0.01118 0.0
H984 H 0.86234 0.77917 0.92069 0.0
H985 H 0.95748 0.77116 0.89474 0.0
H986 H 0.03959 0.78765 0.97615 0.0
H987 H 0.94486 0.79573 0.0026 0.0
C988 C 0.67068 0.85966 -0.00907 0.0
C989 C 0.70924 0.87 -0.00696 0.0
C990 C 0.68773 0.84351 -0.00949 0.0
C991 C 0.74616 0.83504 -0.00757 0.0
C992 C 0.78481 0.84546 -0.00592 0.0
C993 C 0.76773 0.86164 -0.00549 0.0
C994 C 0.76601 0.81649 -0.0077 0.0
C995 C 0.82128 0.80879 0.98091 0.0
C996 C 0.73162 0.80542 0.00312 0.0
C997 C 0.67421 0.81031 0.01785 0.0
C998 C 0.66852 0.81793 0.04748 0.0
C999 C 0.61398 0.82269 0.06112 0.0
C1000 C 0.56492 0.81979 0.0455 0.0
C1001 C 0.57033 0.81205 0.0163 0.0
C1002 C 0.62477 0.80727 0.00254 0.0
C1003 C 0.90046 0.73833 -0.01201 0.0
C1004 C 0.86163 0.72793 -0.01009 0.0
C1005 C 0.88388 0.75448 -0.01147 0.0
C1006 C 0.82556 0.76296 -0.00967 0.0
C1007 C 0.78676 0.75247 -0.00743 0.0
C1008 C 0.80342 0.73626 -0.00758 0.0
C1009 C 0.80589 0.78154 -0.00955 0.0
C1010 C 0.75063 0.78927 0.00191 0.0
C1011 C 0.84009 0.79265 0.97942 0.0
C1012 C 0.89677 0.78788 0.96376 0.0
C1013 C 0.90075 0.78105 0.93304 0.0
C1014 C 0.95455 0.7765 0.91827 0.0
C1015 C 1.00455 0.77885 0.93385 0.0
C1016 C 1.00083 0.78581 0.96417 0.0
C1017 C 0.94713 0.79038 0.97905 0.0
H1018 H 0.04614 0.77531 0.92238 0.0
H1019 H 0.52274 0.82352 0.05605 0.0
H1020 H 0.03416 0.7864 0.50486 0.0
H1021 H 0.11647 0.79895 0.504 0.0
H1022 H 0.23276 0.75778 0.50145 0.0
H1023 H 0.15098 0.7452 0.50202 0.0
H1024 H 0.26846 0.7742 0.54632 0.0
H1025 H 0.20193 0.78068 0.4316 0.0
H1026 H 0.1324 0.78809 0.38472 0.0
H1027 H 0.11223 0.83263 0.40917 0.0
H1028 H 0.18127 0.82547 0.4564 0.0
H1029 H 0.52263 0.80226 0.50162 0.0
H1030 H 0.44113 0.78946 0.50168 0.0
H1031 H 0.32313 0.83033 0.50515 0.0
H1032 H 0.40421 0.84322 0.50412 0.0
H1033 H 0.28922 0.81379 0.45933 0.0
H1034 H 0.35372 0.80695 0.57531 0.0
H1035 H 0.42312 0.79933 0.62222 0.0
H1036 H 0.44808 0.75518 0.59434 0.0
H1037 H 0.37974 0.76259 0.54676 0.0
C1038 C 0.07724 0.78003 0.50387 0.0
C1039 C 0.08589 0.76478 0.50361 0.0
C1040 C 0.12426 0.78722 0.50342 0.0
C1041 C 0.18084 0.77932 0.50241 0.0
C1042 C 0.18956 0.7641 0.50236 0.0
C1043 C 0.14268 0.75692 0.50284 0.0
C1044 C 0.2311 0.78684 0.50168 0.0
C1045 C 0.27336 0.78274 0.52703 0.0
C1046 C 0.23699 0.79816 0.47684 0.0
C1047 C 0.1958 0.80248 0.44814 0.0
C1048 C 0.18213 0.79203 0.4273 0.0
C1049 C 0.14296 0.79619 0.40054 0.0
C1050 C 0.1176 0.8108 0.3941 0.0
C1051 C 0.13164 0.8213 0.41429 0.0
C1052 C 0.17076 0.81719 0.44108 0.0
C1053 C 0.47932 0.80853 0.50219 0.0
C1054 C 0.46998 0.82376 0.50301 0.0
C1055 C 0.43278 0.80119 0.50252 0.0
C1056 C 0.37599 0.80892 0.50378 0.0
C1057 C 0.36656 0.82413 0.5043 0.0
C1058 C 0.413 0.83147 0.50402 0.0
C1059 C 0.32624 0.80123 0.5041 0.0
C1060 C 0.2842 0.80527 0.47862 0.0
C1061 C 0.32065 0.78981 0.52871 0.0
C1062 C 0.36217 0.78537 0.55715 0.0
C1063 C 0.37452 0.79564 0.57891 0.0
C1064 C 0.41362 0.79136 0.60566 0.0
C1065 C 0.44021 0.77679 0.61115 0.0
C1066 C 0.42764 0.76647 0.58996 0.0
C1067 C 0.38876 0.77071 0.56307 0.0
H1068 H 0.47039 0.77349 0.63191 0.0
H1069 H 0.0873 0.814 0.37337 0.0
H1070 H 0.89308 0.3521 0.47971 0.0
H1071 H 0.81259 0.33922 0.47592 0.0
H1072 H 0.92877 0.29816 0.49401 0.0
H1073 H 1.00984 0.31104 0.49689 0.0
H1074 H 0.85325 0.29618 0.44634 0.0
H1075 H 0.83896 0.31351 0.55922 0.0
H1076 H 0.83561 0.33245 0.59989 0.0
H1077 H 0.68497 0.35742 0.55021 0.0
H1078 H 0.68775 0.33859 0.5092 0.0
H1079 H 0.64348 0.25304 0.4889 0.0
H1080 H 0.72373 0.26604 0.48846 0.0
H1081 H 0.6057 0.30699 0.47535 0.0
H1082 H 0.52463 0.29397 0.47612 0.0
H1083 H 0.68244 0.30919 0.51993 0.0
H1084 H 0.69402 0.29064 0.40889 0.0
H1085 H 0.69886 0.27159 0.36844 0.0
H1086 H 0.85696 0.24874 0.41407 0.0
H1087 H 0.85291 0.26761 0.45488 0.0
C1088 C 0.90139 0.34032 0.48298 0.0
C1089 C 0.95761 0.33256 0.48891 0.0
C1090 C 0.85537 0.33297 0.48087 0.0
C1091 C 0.86438 0.31772 0.48537 0.0
C1092 C 0.92072 0.30993 0.49056 0.0
C1093 C 0.96696 0.31728 0.49222 0.0
C1094 C 0.81496 0.30994 0.48503 0.0
C1095 C 0.8162 0.29889 0.46272 0.0
C1096 C 0.76608 0.31365 0.5059 0.0
C1097 C 0.76345 0.32469 0.5312 0.0
C1098 C 0.80509 0.32304 0.55704 0.0
C1099 C 0.80332 0.33374 0.58013 0.0
C1100 C 0.76001 0.34612 0.57766 0.0
C1101 C 0.71826 0.3478 0.55218 0.0
C1102 C 0.71978 0.3371 0.52911 0.0
C1103 C 0.63459 0.26481 0.48561 0.0
C1104 C 0.57774 0.27249 0.48227 0.0
C1105 C 0.68064 0.27225 0.48543 0.0
C1106 C 0.67116 0.2875 0.48143 0.0
C1107 C 0.61428 0.29521 0.47841 0.0
C1108 C 0.56798 0.28778 0.47888 0.0
C1109 C 0.72048 0.29538 0.48114 0.0
C1110 C 0.71933 0.30646 0.50344 0.0
C1111 C 0.76956 0.29163 0.46031 0.0
C1112 C 0.77283 0.28047 0.43517 0.0
C1113 C 0.7297 0.28152 0.41037 0.0
C1114 C 0.73234 0.27076 0.38735 0.0
C1115 C 0.77811 0.25894 0.38874 0.0
C1116 C 0.82151 0.25789 0.41302 0.0
C1117 C 0.81913 0.26864 0.43606 0.0
H1118 H 0.78001 0.2506 0.37094 0.0
H1119 H 0.75883 0.35443 0.59547 0.0
H1120 H 0.18734 0.39858 0.10049 0.0
H1121 H 0.19012 0.39509 0.16308 0.0
H1122 H 0.1002 0.43914 0.16974 0.0
H1123 H 0.096 0.44251 0.10764 0.0
H1124 H 0.19215 0.43168 0.2168 0.0
H1125 H 1.02698 0.41322 0.18143 0.0
H1126 H 0.97741 0.39766 0.14888 0.0
H1127 H 0.08032 0.35949 0.19832 0.0
H1128 H 0.13125 0.37484 0.23075 0.0
H1129 H 1.03188 0.4166 0.38326 0.0
H1130 H 0.04134 0.41671 0.32134 0.0
H1131 H 0.2257 0.40499 0.33156 0.0
H1132 H 0.21619 0.40447 0.39396 0.0
H1133 H 0.08992 0.3954 0.27607 0.0
H1134 H 0.28035 0.4258 0.26531 0.0
H1135 H 0.32321 0.44305 0.29671 0.0
H1136 H 0.1577 0.45974 0.33863 0.0
H1137 H 0.11396 0.44265 0.30741 0.0
C1138 C 0.16855 0.40754 0.11531 0.0
C1139 C 0.14136 0.42083 0.09884 0.0
C1140 C 0.17 0.40553 0.1512 0.0
C1141 C 0.14532 0.41684 0.17156 0.0
C1142 C 0.11978 0.43022 0.15499 0.0
C1143 C 0.11726 0.43212 0.1193 0.0
C1144 C 0.14391 0.41473 0.20993 0.0
C1145 C 0.1704 0.4236 0.22963 0.0
C1146 C 0.1146 0.40443 0.22722 0.0
C1147 C 0.08339 0.39518 0.20823 0.0
C1148 C 0.03936 0.40151 0.18516 0.0
C1149 C 1.01097 0.39273 0.16676 0.0
C1150 C 1.02582 0.3776 0.17145 0.0
C1151 C 0.06894 0.37121 0.19466 0.0
C1152 C 0.09758 0.37995 0.21307 0.0
C1153 C 0.07452 0.41385 0.37243 0.0
C1154 C 0.12322 0.41049 0.39384 0.0
C1155 C 0.07985 0.41388 0.33684 0.0
C1156 C 0.13422 0.41089 0.32129 0.0
C1157 C 0.18313 0.40736 0.34263 0.0
C1158 C 0.17768 0.40701 0.37842 0.0
C1159 C 0.13932 0.41214 0.28294 0.0
C1160 C 0.11294 0.40322 0.26324 0.0
C1161 C 0.16821 0.4225 0.26559 0.0
C1162 C 0.19411 0.43283 0.28436 0.0
C1163 C 0.25318 0.43316 0.28124 0.0
C1164 C 0.27762 0.4429 0.29904 0.0
C1165 C 0.24327 0.45243 0.31982 0.0
C1166 C 0.18437 0.45228 0.32277 0.0
C1167 C 0.15977 0.44255 0.30508 0.0
H1168 H 0.26224 0.45997 0.33355 0.0
H1169 H 1.00382 0.37082 0.15715 0.0
H1170 H 0.87327 0.66281 0.10121 0.0
H1171 H 0.86792 0.66371 0.16364 0.0
H1172 H 1.00399 0.68873 0.1605 0.0
H1173 H 1.0089 0.68801 0.09891 0.0
H1174 H 1.02129 0.66791 0.21308 0.0
H1175 H 0.86273 0.70474 0.16969 0.0
H1176 H 0.77253 0.71361 0.13773 0.0
H1177 H 0.68692 0.68476 0.20035 0.0
H1178 H 0.7769 0.67557 0.23239 0.0
H1179 H 1.00474 0.70091 0.36983 0.0
H1180 H 1.00323 0.6958 0.30992 0.0
H1181 H 0.85961 0.67392 0.32934 0.0
H1182 H 0.861 0.67909 0.3896 0.0
H1183 H 0.84211 0.69048 0.26993 0.0
H1184 H 0.99376 0.65442 0.3153 0.0
H1185 H 0.08199 0.64426 0.34806 0.0
H1186 H 0.17866 0.66952 0.28268 0.0
H1187 H 0.0907 0.67997 0.24981 0.0
C1188 C 0.9023 0.66839 0.11389 0.0
C1189 C 0.9416 0.6753 0.0947 0.0
C1190 C 0.89905 0.66899 0.1497 0.0
C1191 C 0.93543 0.67637 0.1673 0.0
C1192 C 0.97541 0.68293 0.14806 0.0
C1193 C 0.97806 0.68252 0.11253 0.0
C1194 C 0.93207 0.67762 0.20544 0.0
C1195 C 0.9821 0.67297 0.22533 0.0
C1196 C 0.88079 0.68377 0.22224 0.0
C1197 C 0.82668 0.68935 0.20316 0.0
C1198 C 0.82478 0.70021 0.17646 0.0
C1199 C 0.77369 0.70531 0.15836 0.0
C1200 C 0.72407 0.69972 0.16693 0.0
C1201 C 0.72541 0.68906 0.19369 0.0
C1202 C 0.77644 0.6839 0.21184 0.0
C1203 C 0.97279 0.69499 0.36147 0.0
C1204 C 0.93302 0.69044 0.38483 0.0
C1205 C 0.97207 0.692 0.327 0.0
C1206 C 0.93156 0.68432 0.31455 0.0
C1207 C 0.89137 0.67987 0.33784 0.0
C1208 C 0.89229 0.6828 0.37248 0.0
C1209 C 0.93167 0.68103 0.27742 0.0
C1210 C 0.88118 0.68532 0.25775 0.0
C1211 C 0.98233 0.67434 0.26084 0.0
C1212 C 0.03552 0.66808 0.28032 0.0
C1213 C 1.03376 0.65788 0.30809 0.0
C1214 C 0.08372 0.65206 0.32664 0.0
C1215 C 0.13589 0.65627 0.31751 0.0
C1216 C 0.13819 0.66628 0.28974 0.0
C1217 C 0.08829 0.67215 0.27112 0.0
H1218 H 0.17456 0.65176 0.3319 0.0
H1219 H 0.68455 0.70368 0.15289 0.0
H1220 H 0.93011 0.69753 0.88903 0.0
H1221 H 0.94278 0.70053 0.82717 0.0
H1222 H 0.87626 0.66126 0.81589 0.0
H1223 H 0.86563 0.65803 0.8775 0.0
H1224 H 0.96177 0.66083 0.77531 0.0
H1225 H 0.79724 0.69793 0.79551 0.0
H1226 H 0.74419 0.71957 0.82161 0.0
H1227 H 0.8664 0.74486 0.78049 0.0
H1228 H 0.92049 0.72332 0.7544 0.0
H1229 H 0.87845 0.66718 0.6036 0.0
H1230 H 0.8793 0.66751 0.66516 0.0
H1231 H 0.97418 0.70269 0.65714 0.0
H1232 H 0.97378 0.70236 0.59448 0.0
H1233 H 0.88468 0.70664 0.70704 0.0
H1234 H 0.04366 0.66944 0.6824 0.0
H1235 H 0.09357 0.64763 0.65569 0.0
H1236 H 0.97869 0.62226 0.70536 0.0
H1237 H 0.92752 0.64398 0.732 0.0
C1238 C 0.91853 0.68949 0.87338 0.0
C1239 C 0.89708 0.67749 0.88855 0.0
C1240 C 0.92524 0.69129 0.83775 0.0
C1241 C 0.90999 0.68123 0.8161 0.0
C1242 C 0.88864 0.66924 0.83146 0.0
C1243 C 0.88227 0.66742 0.86695 0.0
C1244 C 0.91669 0.68289 0.77773 0.0
C1245 C 0.94427 0.67085 0.76057 0.0
C1246 C 0.89573 0.69602 0.75779 0.0
C1247 C 0.86323 0.70898 0.77333 0.0
C1248 C 0.813 0.70808 0.79223 0.0
C1249 C 0.78271 0.72033 0.80699 0.0
C1250 C 0.80203 0.73357 0.80281 0.0
C1251 C 0.85156 0.7346 0.78376 0.0
C1252 C 0.88201 0.72238 0.76895 0.0
C1253 C 0.8998 0.67503 0.61465 0.0
C1254 C 0.92653 0.68467 0.59364 0.0
C1255 C 0.90028 0.67517 0.65019 0.0
C1256 C 0.92729 0.685 0.66638 0.0
C1257 C 0.95308 0.69493 0.64558 0.0
C1258 C 0.95308 0.69471 0.60965 0.0
C1259 C 0.92863 0.6845 0.70486 0.0
C1260 C 0.90258 0.69669 0.72194 0.0
C1261 C 0.95066 0.67148 0.72482 0.0
C1262 C 0.98148 0.65837 0.70899 0.0
C1263 C 1.02876 0.65924 0.68743 0.0
C1264 C 0.05733 0.64689 0.67234 0.0
C1265 C 0.03925 0.63358 0.67877 0.0
C1266 C 0.99263 0.63258 0.70038 0.0
C1267 C 0.96387 0.64491 0.71552 0.0
H1268 H 0.06142 0.62402 0.66706 0.0
H1269 H 0.77854 0.74304 0.81426 0.0
H1270 H 0.05869 0.42095 0.6012 0.0
H1271 H 0.05798 0.42536 0.66198 0.0
H1272 H 0.21935 0.39547 0.67547 0.0
H1273 H 0.2199 0.391 0.61518 0.0
H1274 H 0.15119 0.3906 0.7267 0.0
H1275 H 0.20617 0.43388 0.67291 0.0
H1276 H 0.1939 0.45587 0.6335 0.0
H1277 H 0.03569 0.47311 0.68289 0.0
H1278 H 0.04665 0.45112 0.72232 0.0
H1279 H 0.24932 0.40612 0.88496 0.0
H1280 H 0.23555 0.40404 0.82459 0.0
H1281 H 0.07678 0.43512 0.82656 0.0
H1282 H 0.09126 0.43746 0.88766 0.0
H1283 H 0.13268 0.43994 0.76813 0.0
H1284 H 0.07911 0.39774 0.82383 0.0
H1285 H 0.0894 0.37585 0.86345 0.0
H1286 H 0.24073 0.3565 0.81042 0.0
H1287 H 0.23187 0.37837 0.77076 0.0
C1288 C 0.09403 0.41532 0.61712 0.0
C1289 C 0.13934 0.4056 0.60299 0.0
C1290 C 0.09379 0.41791 0.65203 0.0
C1291 C 0.13891 0.41087 0.6739 0.0
C1292 C 0.18382 0.40109 0.65967 0.0
C1293 C 0.18417 0.39856 0.62491 0.0
C1294 C 0.13975 0.41345 0.71146 0.0
C1295 C 0.14773 0.40142 0.73555 0.0
C1296 C 0.13333 0.42754 0.72383 0.0
C1297 C 0.12691 0.44079 0.70032 0.0
C1298 C 0.16855 0.44231 0.67521 0.0
C1299 C 0.16187 0.45478 0.65289 0.0
C1300 C 0.11396 0.46586 0.65562 0.0
C1301 C 0.07273 0.46451 0.68076 0.0
C1302 C 0.07917 0.45205 0.70311 0.0
C1303 C 0.21138 0.41259 0.87273 0.0
C1304 C 0.17137 0.42194 0.89159 0.0
C1305 C 0.20331 0.41131 0.83792 0.0
C1306 C 0.15444 0.41917 0.82048 0.0
C1307 C 0.11482 0.42882 0.83904 0.0
C1308 C 0.12305 0.43016 0.87414 0.0
C1309 C 0.14533 0.41706 0.78324 0.0
C1310 C 0.13577 0.42915 0.75927 0.0
C1311 C 0.14986 0.40301 0.77091 0.0
C1312 C 0.15507 0.38976 0.79447 0.0
C1313 C 0.1148 0.38886 0.82074 0.0
C1314 C 0.12035 0.37645 0.84319 0.0
C1315 C 0.16576 0.36481 0.8395 0.0
C1316 C 0.20561 0.36553 0.81326 0.0
C1317 C 0.2003 0.37793 0.79076 0.0
H1318 H 0.17 0.35521 0.85692 0.0
H1319 H 0.10886 0.47551 0.63832 0.0
H1320 H 0.72251 0.92658 0.10071 0.0
H1321 H 0.72737 0.92448 0.16354 0.0
H1322 H 0.58103 0.90298 0.16742 0.0
H1323 H 0.5773 0.90455 0.1054 0.0
H1324 H 0.5764 0.92702 0.21364 0.0
H1325 H 0.70142 0.8828 0.18131 0.0
H1326 H 0.78515 0.86992 0.15092 0.0
H1327 H 0.89776 0.89133 0.20536 0.0
H1328 H 0.81449 0.90453 0.23567 0.0
H1329 H 0.55078 0.90233 0.38433 0.0
H1330 H 0.55888 0.90434 0.32255 0.0
H1331 H 0.73935 0.90602 0.33138 0.0
H1332 H 0.73181 0.90282 0.39368 0.0
H1333 H 0.73328 0.89402 0.27776 0.0
H1334 H 0.61938 0.93786 0.3107 0.0
H1335 H 0.54118 0.95385 0.339 0.0
H1336 H 0.41539 0.93758 0.28252 0.0
H1337 H 0.49284 0.92134 0.25419 0.0
C1338 C 0.69134 0.92144 0.11498 0.0
C1339 C 0.64948 0.91577 0.09763 0.0
C1340 C 0.69422 0.92019 0.15102 0.0
C1341 C 0.65449 0.91355 0.1707 0.0
C1342 C 0.61223 0.90816 0.15327 0.0
C1343 C 0.61027 0.90907 0.11752 0.0
C1344 C 0.65621 0.91207 0.20925 0.0
C1345 C 0.6105 0.91971 0.22763 0.0
C1346 C 0.70157 0.90299 0.22803 0.0
C1347 C 0.75167 0.89477 0.21048 0.0
C1348 C 0.74398 0.88484 0.18662 0.0
C1349 C 0.79136 0.87748 0.16943 0.0
C1350 C 0.84673 0.87984 0.17612 0.0
C1351 C 0.85484 0.88953 0.20015 0.0
C1352 C 0.80757 0.89695 0.21736 0.0
C1353 C 0.59247 0.90293 0.37316 0.0
C1354 C 0.64055 0.90239 0.3943 0.0
C1355 C 0.59702 0.90433 0.33747 0.0
C1356 C 0.64934 0.90596 0.32126 0.0
C1357 C 0.69807 0.90495 0.34247 0.0
C1358 C 0.69383 0.90308 0.37837 0.0
C1359 C 0.65249 0.90881 0.28265 0.0
C1360 C 0.69911 0.90144 0.26411 0.0
C1361 C 0.60871 0.91854 0.26364 0.0
C1362 C 0.56193 0.92829 0.28055 0.0
C1363 C 0.57503 0.93763 0.30447 0.0
C1364 C 0.53084 0.94674 0.3205 0.0
C1365 C 0.47335 0.9467 0.31262 0.0
C1366 C 0.45994 0.93758 0.28863 0.0
C1367 C 0.50397 0.92843 0.27255 0.0
H1368 H 0.4392 0.95376 0.32507 0.0
H1369 H 0.88334 0.87416 0.16273 0.0
H1370 H 0.36975 0.16673 0.10215 0.0
H1371 H 0.36316 0.1695 0.16392 0.0
H1372 H 0.50887 0.19122 0.15827 0.0
H1373 H 0.51416 0.18901 0.09682 0.0
H1374 H 0.509 0.1684 0.21689 0.0
H1375 H 0.39005 0.21193 0.16247 0.0
H1376 H 0.3115 0.22349 0.12337 0.0
H1377 H 0.19169 0.20266 0.18223 0.0
H1378 H 0.2698 0.19081 0.22142 0.0
H1379 H 0.50391 0.19648 0.38056 0.0
H1380 H 0.51107 0.19192 0.32019 0.0
H1381 H 0.3279 0.19274 0.31706 0.0
H1382 H 0.3205 0.19868 0.37649 0.0
H1383 H 0.34522 0.20284 0.26153 0.0
H1384 H 0.4527 0.15939 0.31592 0.0
H1385 H 0.52639 0.144 0.353 0.0
H1386 H 0.66006 0.15975 0.295 0.0
H1387 H 0.5871 0.17536 0.25781 0.0
C1388 C 0.40066 0.17199 0.11407 0.0
C1389 C 0.4425 0.17763 0.09413 0.0
C1390 C 0.39683 0.1736 0.14954 0.0
C1391 C 0.4356 0.18058 0.16626 0.0
C1392 C 0.47848 0.18575 0.14646 0.0
C1393 C 0.48135 0.18448 0.11107 0.0
C1394 C 0.43033 0.18315 0.20382 0.0
C1395 C 0.47343 0.17602 0.22665 0.0
C1396 C 0.38319 0.1927 0.21721 0.0
C1397 C 0.3358 0.20041 0.19472 0.0
C1398 C 0.34697 0.20979 0.16702 0.0
C1399 C 0.30255 0.21639 0.14484 0.0
C1400 C 0.24666 0.21379 0.15026 0.0
C1401 C 0.23501 0.20466 0.17804 0.0
C1402 C 0.27932 0.19802 0.20028 0.0
C1403 C 0.46519 0.19566 0.36699 0.0
C1404 C 0.41164 0.19791 0.38376 0.0
C1405 C 0.46927 0.19285 0.33217 0.0
C1406 C 0.42033 0.19147 0.31307 0.0
C1407 C 0.36686 0.19369 0.3302 0.0
C1408 C 0.36255 0.19702 0.36462 0.0
C1409 C 0.42427 0.18806 0.27553 0.0
C1410 C 0.38091 0.1951 0.25237 0.0
C1411 C 0.47039 0.178 0.26204 0.0
C1412 C 0.5144 0.16865 0.28431 0.0
C1413 C 0.4978 0.15963 0.31121 0.0
C1414 C 0.53943 0.15087 0.33223 0.0
C1415 C 0.59786 0.15093 0.32641 0.0
C1416 C 0.61478 0.15973 0.29951 0.0
C1417 C 0.57331 0.16853 0.27843 0.0
H1418 H 0.63003 0.14414 0.34271 0.0
H1419 H 0.21237 0.21885 0.13297 0.0
H1420 H 0.37382 0.1552 0.8809 0.0
H1421 H 0.37833 0.15908 0.81872 0.0
H1422 H 0.39454 0.20361 0.82813 0.0
H1423 H 0.39194 0.19963 0.89051 0.0
H1424 H 0.31046 0.19895 0.77469 0.0
H1425 H 0.50878 0.18275 0.80915 0.0
H1426 H 0.58795 0.16595 0.83917 0.0
H1427 H 0.55481 0.131 0.78227 0.0
H1428 H 0.47487 0.14755 0.75224 0.0
H1429 H 0.37491 0.21323 0.59709 0.0
H1430 H 0.36765 0.21191 0.65941 0.0
H1431 H 0.43011 0.16559 0.66265 0.0
H1432 H 0.4415 0.1672 0.60114 0.0
H1433 H 0.47462 0.17236 0.71167 0.0
H1434 H 0.2757 0.18624 0.67932 0.0
H1435 H 0.19071 0.20127 0.65057 0.0
H1436 H 0.21603 0.23809 0.70335 0.0
H1437 H 0.30157 0.22331 0.73214 0.0
C1438 C 0.37839 0.16584 0.86984 0.0
C1439 C 0.3826 0.17706 0.89113 0.0
C1440 C 0.38094 0.16806 0.83405 0.0
C1441 C 0.38661 0.18169 0.81811 0.0
C1442 C 0.38988 0.193 0.83933 0.0
C1443 C 0.38865 0.19068 0.8752 0.0
C1444 C 0.39081 0.18391 0.7796 0.0
C1445 C 0.34673 0.19326 0.76093 0.0
C1446 C 0.437 0.17626 0.761 0.0
C1447 C 0.48553 0.16636 0.77867 0.0
C1448 C 0.5181 0.17146 0.80322 0.0
C1449 C 0.56316 0.16198 0.82021 0.0
C1450 C 0.5763 0.14741 0.81269 0.0
C1451 C 0.54454 0.14229 0.78809 0.0
C1452 C 0.49939 0.15171 0.77105 0.0
C1453 C 0.38661 0.20276 0.61113 0.0
C1454 C 0.40857 0.19033 0.59366 0.0
C1455 C 0.38208 0.20194 0.64714 0.0
C1456 C 0.39732 0.18855 0.66696 0.0
C1457 C 0.41823 0.17615 0.64905 0.0
C1458 C 0.42437 0.17706 0.61339 0.0
C1459 C 0.39347 0.18729 0.70594 0.0
C1460 C 0.43791 0.17809 0.72497 0.0
C1461 C 0.34677 0.19483 0.72476 0.0
C1462 C 0.29537 0.20372 0.70759 0.0
C1463 C 0.26332 0.19757 0.68463 0.0
C1464 C 0.21504 0.20603 0.66836 0.0
C1465 C 0.19809 0.22063 0.67506 0.0
C1466 C 0.22928 0.22679 0.69814 0.0
C1467 C 0.27763 0.21837 0.71446 0.0
H1468 H 0.16071 0.22717 0.66242 0.0
H1469 H 0.61118 0.14009 0.82588 0.0
H1470 H 0.56244 0.9101 0.60142 0.0
H1471 H 0.56053 0.9161 0.66114 0.0
H1472 H 0.73521 0.89296 0.67387 0.0
H1473 H 0.73634 0.88661 0.61485 0.0
H1474 H 0.68469 0.8871 0.72804 0.0
H1475 H 0.69065 0.93255 0.6661 0.0
H1476 H 0.65827 0.95302 0.6238 0.0
H1477 H 0.49643 0.96297 0.6756 0.0
H1478 H 0.52754 0.94241 0.71792 0.0
H1479 H 0.69717 0.94237 0.86915 0.0
H1480 H 0.69262 0.93744 0.80902 0.0
H1481 H 0.60893 0.90117 0.83711 0.0
H1482 H 0.61466 0.90589 0.89712 0.0
H1483 H 0.61603 0.93717 0.76238 0.0
H1484 H 0.64041 0.87452 0.78306 0.0
H1485 H 0.68494 0.85462 0.82408 0.0
H1486 H 0.8075 0.88024 0.85259 0.0
H1487 H 0.76421 0.9002 0.81145 0.0
C1488 C 0.60042 0.90628 0.61696 0.0
C1489 C 0.64952 0.89782 0.60295 0.0
C1490 C 0.59953 0.90981 0.65132 0.0
C1491 C 0.64804 0.90521 0.67277 0.0
C1492 C 0.69687 0.89671 0.6586 0.0
C1493 C 0.69757 0.8931 0.62448 0.0
C1494 C 0.64842 0.90904 0.70976 0.0
C1495 C 0.66928 0.89808 0.7353 0.0
C1496 C 0.62978 0.92339 0.72015 0.0
C1497 C 0.61122 0.93585 0.69499 0.0
C1498 C 0.64803 0.93905 0.66836 0.0
C1499 C 0.62992 0.95067 0.64438 0.0
C1500 C 0.57528 0.95927 0.64697 0.0
C1501 C 0.53871 0.95629 0.6736 0.0
C1502 C 0.55657 0.94466 0.6976 0.0
C1503 C 0.67762 0.93336 0.86257 0.0
C1504 C 0.65669 0.9245 0.88842 0.0
C1505 C 0.67486 0.93054 0.82791 0.0
C1506 C 0.65125 0.91872 0.81776 0.0
C1507 C 0.62868 0.91016 0.84362 0.0
C1508 C 0.63164 0.91294 0.87822 0.0
C1509 C 0.65134 0.91517 0.78059 0.0
C1510 C 0.63087 0.92618 0.75506 0.0
C1511 C 0.67175 0.90094 0.77002 0.0
C1512 C 0.69863 0.88891 0.79444 0.0
C1513 C 0.67699 0.87588 0.79799 0.0
C1514 C 0.702 0.8646 0.82128 0.0
C1515 C 0.74888 0.86619 0.84101 0.0
C1516 C 0.77104 0.87904 0.83739 0.0
C1517 C 0.74627 0.89035 0.81411 0.0
H1518 H 0.7681 0.85745 0.85906 0.0
H1519 H 0.56132 0.96826 0.62838 0.0
loop_
_geom_bond_atom_site_label_1
_geom_bond_atom_site_label_2
_geom_bond_distance
_geom_bond_site_symmetry_2
_ccdc_geom_bond_type
C0 Eu1 2.835 1_655 S
C0 C2 1.500 . S
C0 O20 1.257 1_554 S
C0 O21 1.260 . S
Eu1 C0 2.835 1_455 S
Eu1 O20 2.473 1_454 S
Eu1 O21 2.480 1_455 S
Eu1 O22 2.430 . S
Eu1 O23 2.670 . S
Eu1 O24 2.392 . S
Eu1 O29 2.355 1_554 S
Eu1 O31 2.374 . S
C2 C0 1.500 . S
C2 C3 1.377 . S
C2 C7 1.377 1_554 S
C3 C2 1.377 . S
C3 C4 1.395 . S
C3 H32 0.931 . S
C4 C3 1.395 . S
C4 C5 1.383 1_554 S
C4 H33 0.931 . S
C5 C4 1.383 1_556 S
C5 C6 1.394 . S
C6 C5 1.394 . S
C6 C7 1.378 . S
C6 H34 0.931 . S
C7 C2 1.377 1_556 S
C7 C6 1.378 . S
C7 H35 0.931 . S
C8 O22 1.259 . S
C8 O23 1.270 . S
C9 O24 1.263 . S
C9 O25 1.251 . S
C10 Eu11 2.835 1_554 S
C10 C12 1.500 . S
C10 O26 1.257 . S
C10 O27 1.260 1_554 S
Eu11 C10 2.835 1_556 S
Eu11 O23 2.355 1_556 S
Eu11 O25 2.374 1_556 S
Eu11 O26 2.473 1_556 S
Eu11 O27 2.480 . S
Eu11 O28 2.430 . S
Eu11 O29 2.670 . S
Eu11 O30 2.394 . S
C12 C10 1.500 . S
C12 C13 1.377 1_554 S
C12 C17 1.377 . S
C13 C12 1.377 1_556 S
C13 C14 1.395 . S
C13 H36 0.931 . S
C14 C13 1.395 . S
C14 C15 1.383 1_556 S
C14 H37 0.931 . S
C15 C14 1.383 1_554 S
C15 C16 1.394 . S
C16 C15 1.394 . S
C16 C17 1.378 . S
C16 H38 0.931 . S
C17 C12 1.377 . S
C17 C16 1.378 . S
C17 H39 0.931 . S
C18 O28 1.259 . S
C18 O29 1.270 . S
C19 O30 1.251 1_554 S
C19 O31 1.251 . S
O20 C0 1.257 1_556 S
O20 Eu1 2.473 1_656 S
O21 C0 1.260 . S
O21 Eu1 2.480 1_655 S
O22 Eu1 2.430 . S
O22 C8 1.259 . S
O23 Eu1 2.670 . S
O23 C8 1.270 . S
O23 Eu11 2.355 1_554 S
O24 Eu1 2.392 . S
O24 C9 1.263 . S
O25 C9 1.251 . S
O25 Eu11 2.374 1_554 S
O26 C10 1.257 . S
O26 Eu11 2.473 1_554 S
O27 C10 1.260 1_556 S
O27 Eu11 2.480 . S
O28 Eu11 2.430 . S
O28 C18 1.259 . S
O29 Eu1 2.355 1_556 S
O29 Eu11 2.670 . S
O29 C18 1.270 . S
O30 Eu11 2.394 . S
O30 C19 1.251 1_556 S
O31 Eu1 2.374 . S
O31 C19 1.251 . S
H32 C3 0.931 . S
H33 C4 0.931 . S
H34 C6 0.931 . S
H35 C7 0.931 . S
H36 C13 0.931 . S
H37 C14 0.931 . S
H38 C16 0.931 . S
H39 C17 0.931 . S
C40 Eu41 2.835 1_455 S
C40 C42 1.500 1_554 S
C40 O60 1.257 1_554 S
C40 O61 1.260 . S
Eu41 C40 2.835 1_655 S
Eu41 O60 2.473 1_654 S
Eu41 O61 2.480 1_655 S
Eu41 O62 2.430 . S
Eu41 O63 2.670 . S
Eu41 O64 2.393 . S
Eu41 O69 2.355 1_554 S
Eu41 O71 2.374 . S
C42 C40 1.500 1_556 S
C42 C43 1.377 1_556 S
C42 C47 1.377 . S
C43 C42 1.377 1_554 S
C43 C44 1.395 . S
C43 H72 0.931 . S
C44 C43 1.395 . S
C44 C45 1.383 1_554 S
C44 H73 0.931 . S
C45 C44 1.383 1_556 S
C45 C46 1.394 . S
C46 C45 1.394 . S
C46 C47 1.378 . S
C46 H74 0.931 . S
C47 C42 1.377 . S
C47 C46 1.378 . S
C47 H75 0.931 . S
C48 O62 1.259 . S
C48 O63 1.270 . S
C49 O64 1.260 . S
C49 O65 1.251 . S
C50 Eu51 2.833 1_554 S
C50 C52 1.500 . S
C50 O66 1.257 . S
C50 O67 1.260 1_554 S
Eu51 C50 2.833 1_556 S
Eu51 O63 2.345 1_556 S
Eu51 O65 2.373 1_556 S
Eu51 O66 2.465 1_556 S
Eu51 O67 2.484 . S
Eu51 O68 2.443 . S
Eu51 O69 2.676 . S
Eu51 O70 2.396 . S
C52 C50 1.500 . S
C52 C53 1.377 1_554 S
C52 C57 1.377 . S
C53 C52 1.377 1_556 S
C53 C54 1.395 . S
C53 H76 0.931 . S
C54 C53 1.395 . S
C54 C55 1.383 1_556 S
C54 H77 0.931 . S
C55 C54 1.383 1_554 S
C55 C56 1.394 . S
C56 C55 1.394 . S
C56 C57 1.378 . S
C56 H78 0.931 . S
C57 C52 1.377 . S
C57 C56 1.378 . S
C57 H79 0.931 . S
C58 O68 1.259 . S
C58 O69 1.270 . S
C59 O70 1.251 . S
C59 O71 1.251 1_556 S
O60 C40 1.257 1_556 S
O60 Eu41 2.473 1_456 S
O61 C40 1.260 . S
O61 Eu41 2.480 1_455 S
O62 Eu41 2.430 . S
O62 C48 1.259 . S
O63 Eu41 2.670 . S
O63 C48 1.270 . S
O63 Eu51 2.345 1_554 S
O64 Eu41 2.393 . S
O64 C49 1.260 . S
O65 C49 1.251 . S
O65 Eu51 2.373 1_554 S
O66 C50 1.257 . S
O66 Eu51 2.465 1_554 S
O67 C50 1.260 1_556 S
O67 Eu51 2.484 . S
O68 Eu51 2.443 . S
O68 C58 1.259 . S
O69 Eu41 2.355 1_556 S
O69 Eu51 2.676 . S
O69 C58 1.270 . S
O70 Eu51 2.396 . S
O70 C59 1.251 . S
O71 Eu41 2.374 . S
O71 C59 1.251 1_554 S
H72 C43 0.931 . S
H73 C44 0.931 . S
H74 C46 0.931 . S
H75 C47 0.931 . S
H76 C53 0.931 . S
H77 C54 0.931 . S
H78 C56 0.931 . S
H79 C57 0.931 . S
C80 Eu81 2.835 . S
C80 C82 1.500 1_455 S
C80 O100 1.257 . S
C80 O101 1.260 . S
Eu81 C80 2.835 . S
Eu81 O100 2.473 . S
Eu81 O101 2.480 . S
Eu81 O102 2.430 . S
Eu81 O103 2.670 . S
Eu81 O104 2.394 1_455 S
Eu81 O109 2.355 . S
Eu81 O111 2.374 . S
C82 C80 1.500 1_655 S
C82 C83 1.377 . S
C82 C87 1.377 . S
C83 C82 1.377 . S
C83 C84 1.395 . S
C83 H112 0.931 . S
C84 C83 1.395 . S
C84 C85 1.383 . S
C84 H113 0.931 . S
C85 C84 1.383 . S
C85 C86 1.394 . S
C86 C85 1.394 . S
C86 C87 1.378 . S
C86 H114 0.931 . S
C87 C82 1.377 . S
C87 C86 1.378 . S
C87 H115 0.931 . S
C88 O102 1.259 . S
C88 O103 1.270 . S
C89 O104 1.251 . S
C89 O105 1.251 . S
C90 Eu91 2.835 . S
C90 C92 1.500 . S
C90 O106 1.257 . S
C90 O107 1.260 . S
Eu91 C90 2.835 . S
Eu91 O103 2.355 . S
Eu91 O105 2.374 1_455 S
Eu91 O106 2.473 . S
Eu91 O107 2.480 . S
Eu91 O108 2.430 . S
Eu91 O109 2.670 . S
Eu91 O110 2.394 . S
C92 C90 1.500 . S
C92 C93 1.377 . S
C92 C97 1.377 . S
C93 C92 1.377 . S
C93 C94 1.395 . S
C93 H116 0.931 . S
C94 C93 1.395 . S
C94 C95 1.383 . S
C94 H117 0.931 . S
C95 C94 1.383 . S
C95 C96 1.394 . S
C96 C95 1.394 . S
C96 C97 1.378 . S
C96 H118 0.931 . S
C97 C92 1.377 . S
C97 C96 1.378 . S
C97 H119 0.931 . S
C98 O108 1.259 . S
C98 O109 1.270 . S
C99 O110 1.251 . S
C99 O111 1.251 . S
O100 C80 1.257 . S
O100 Eu81 2.473 . S
O101 C80 1.260 . S
O101 Eu81 2.480 . S
O102 Eu81 2.430 . S
O102 C88 1.259 . S
O103 Eu81 2.670 . S
O103 C88 1.270 . S
O103 Eu91 2.355 . S
O104 Eu81 2.394 1_655 S
O104 C89 1.251 . S
O105 C89 1.251 . S
O105 Eu91 2.374 1_655 S
O106 C90 1.257 . S
O106 Eu91 2.473 . S
O107 C90 1.260 . S
O107 Eu91 2.480 . S
O108 Eu91 2.430 . S
O108 C98 1.259 . S
O109 Eu81 2.355 . S
O109 Eu91 2.670 . S
O109 C98 1.270 . S
O110 Eu91 2.394 . S
O110 C99 1.251 . S
O111 Eu81 2.374 . S
O111 C99 1.251 . S
H112 C83 0.931 . S
H113 C84 0.931 . S
H114 C86 0.931 . S
H115 C87 0.931 . S
H116 C93 0.931 . S
H117 C94 0.931 . S
H118 C96 0.931 . S
H119 C97 0.931 . S
C120 Eu121 2.835 . S
C120 C122 1.500 . S
C120 O140 1.257 . S
C120 O141 1.260 . S
Eu121 C120 2.835 . S
Eu121 O140 2.473 . S
Eu121 O141 2.480 . S
Eu121 O142 2.430 . S
Eu121 O143 2.670 . S
Eu121 O144 2.394 . S
Eu121 O149 2.355 . S
Eu121 O151 2.374 1_655 S
C122 C120 1.500 . S
C122 C123 1.377 . S
C122 C127 1.377 . S
C123 C122 1.377 . S
C123 C124 1.395 . S
C123 H152 0.931 . S
C124 C123 1.395 . S
C124 C125 1.383 . S
C124 H153 0.931 . S
C125 C124 1.383 . S
C125 C126 1.394 . S
C126 C125 1.394 . S
C126 C127 1.378 . S
C126 H154 0.931 . S
C127 C122 1.377 . S
C127 C126 1.378 . S
C127 H155 0.931 . S
C128 O142 1.259 . S
C128 O143 1.270 . S
C129 O144 1.251 . S
C129 O145 1.251 . S
C130 Eu131 2.835 . S
C130 C132 1.500 1_655 S
C130 O146 1.257 . S
C130 O147 1.260 . S
Eu131 C130 2.835 . S
Eu131 O143 2.355 . S
Eu131 O145 2.374 . S
Eu131 O146 2.473 . S
Eu131 O147 2.480 . S
Eu131 O148 2.430 . S
Eu131 O149 2.670 . S
Eu131 O150 2.394 1_655 S
C132 C130 1.500 1_455 S
C132 C133 1.377 . S
C132 C137 1.377 . S
C133 C132 1.377 . S
C133 C134 1.395 . S
C133 H156 0.931 . S
C134 C133 1.395 . S
C134 C135 1.383 . S
C134 H157 0.931 . S
C135 C134 1.383 . S
C135 C136 1.394 . S
C136 C135 1.394 . S
C136 C137 1.378 . S
C136 H158 0.931 . S
C137 C132 1.377 . S
C137 C136 1.378 . S
C137 H159 0.931 . S
C138 O148 1.259 . S
C138 O149 1.270 . S
C139 O150 1.251 . S
C139 O151 1.251 . S
O140 C120 1.257 . S
O140 Eu121 2.473 . S
O141 C120 1.260 . S
O141 Eu121 2.480 . S
O142 Eu121 2.430 . S
O142 C128 1.259 . S
O143 Eu121 2.670 . S
O143 C128 1.270 . S
O143 Eu131 2.355 . S
O144 Eu121 2.394 . S
O144 C129 1.251 . S
O145 C129 1.251 . S
O145 Eu131 2.374 . S
O146 C130 1.257 . S
O146 Eu131 2.473 . S
O147 C130 1.260 . S
O147 Eu131 2.480 . S
O148 Eu131 2.430 . S
O148 C138 1.259 . S
O149 Eu121 2.355 . S
O149 Eu131 2.670 . S
O149 C138 1.270 . S
O150 Eu131 2.394 1_455 S
O150 C139 1.251 . S
O151 Eu121 2.374 1_455 S
O151 C139 1.251 . S
H152 C123 0.931 . S
H153 C124 0.931 . S
H154 C126 0.931 . S
H155 C127 0.931 . S
H156 C133 0.931 . S
H157 C134 0.931 . S
H158 C136 0.931 . S
H159 C137 0.931 . S
C160 Eu161 2.835 . S
C160 C162 1.500 . S
C160 O180 1.257 1_554 S
C160 O181 1.260 . S
Eu161 C160 2.835 . S
Eu161 O180 2.473 1_554 S
Eu161 O181 2.480 . S
Eu161 O182 2.430 . S
Eu161 O183 2.670 . S
Eu161 O184 2.394 . S
Eu161 O189 2.355 1_554 S
Eu161 O191 2.374 . S
C162 C160 1.500 . S
C162 C163 1.377 . S
C162 C167 1.377 1_554 S
C163 C162 1.377 . S
C163 C164 1.395 . S
C163 H192 0.931 . S
C164 C163 1.395 . S
C164 C165 1.383 1_554 S
C164 H193 0.931 . S
C165 C164 1.383 1_556 S
C165 C166 1.394 . S
C166 C165 1.394 . S
C166 C167 1.378 . S
C166 H194 0.931 . S
C167 C162 1.377 1_556 S
C167 C166 1.378 . S
C167 H195 0.931 . S
C168 O182 1.259 . S
C168 O183 1.270 . S
C169 O184 1.251 . S
C169 O185 1.251 . S
C170 Eu171 2.835 1_554 S
C170 C172 1.500 . S
C170 O186 1.257 . S
C170 O187 1.260 1_554 S
Eu171 C170 2.835 1_556 S
Eu171 O183 2.355 1_556 S
Eu171 O185 2.374 1_556 S
Eu171 O186 2.473 1_556 S
Eu171 O187 2.480 . S
Eu171 O188 2.430 . S
Eu171 O189 2.670 . S
Eu171 O190 2.394 . S
C172 C170 1.500 . S
C172 C173 1.377 1_554 S
C172 C177 1.377 . S
C173 C172 1.377 1_556 S
C173 C174 1.395 . S
C173 H196 0.931 . S
C174 C173 1.395 . S
C174 C175 1.383 1_556 S
C174 H197 0.931 . S
C175 C174 1.383 1_554 S
C175 C176 1.394 . S
C176 C175 1.394 . S
C176 C177 1.378 . S
C176 H198 0.931 . S
C177 C172 1.377 . S
C177 C176 1.378 . S
C177 H199 0.931 . S
C178 O188 1.259 . S
C178 O189 1.270 . S
C179 O190 1.251 1_554 S
C179 O191 1.251 . S
O180 C160 1.257 1_556 S
O180 Eu161 2.473 1_556 S
O181 C160 1.260 . S
O181 Eu161 2.480 . S
O182 Eu161 2.430 . S
O182 C168 1.259 . S
O183 Eu161 2.670 . S
O183 C168 1.270 . S
O183 Eu171 2.355 1_554 S
O184 Eu161 2.394 . S
O184 C169 1.251 . S
O185 C169 1.251 . S
O185 Eu171 2.374 1_554 S
O186 C170 1.257 . S
O186 Eu171 2.473 1_554 S
O187 C170 1.260 1_556 S
O187 Eu171 2.480 . S
O188 Eu171 2.430 . S
O188 C178 1.259 . S
O189 Eu161 2.355 1_556 S
O189 Eu171 2.670 . S
O189 C178 1.270 . S
O190 Eu171 2.394 . S
O190 C179 1.251 1_556 S
O191 Eu161 2.374 . S
O191 C179 1.251 . S
H192 C163 0.931 . S
H193 C164 0.931 . S
H194 C166 0.931 . S
H195 C167 0.931 . S
H196 C173 0.931 . S
H197 C174 0.931 . S
H198 C176 0.931 . S
H199 C177 0.931 . S
C200 Eu201 2.835 . S
C200 C202 1.500 1_554 S
C200 O220 1.257 1_554 S
C200 O221 1.260 . S
Eu201 C200 2.835 . S
Eu201 O220 2.473 1_554 S
Eu201 O221 2.480 . S
Eu201 O222 2.430 . S
Eu201 O223 2.670 . S
Eu201 O224 2.394 . S
Eu201 O229 2.355 1_554 S
Eu201 O231 2.374 . S
C202 C200 1.500 1_556 S
C202 C203 1.377 1_556 S
C202 C207 1.377 . S
C203 C202 1.377 1_554 S
C203 C204 1.395 . S
C203 H232 0.931 . S
C204 C203 1.395 . S
C204 C205 1.383 1_554 S
C204 H233 0.931 . S
C205 C204 1.383 1_556 S
C205 C206 1.394 . S
C206 C205 1.394 . S
C206 C207 1.378 . S
C206 H234 0.931 . S
C207 C202 1.377 . S
C207 C206 1.378 . S
C207 H235 0.931 . S
C208 O222 1.259 . S
C208 O223 1.270 . S
C209 O224 1.251 . S
C209 O225 1.251 . S
C210 Eu211 2.833 1_554 S
C210 C212 1.500 . S
C210 O226 1.257 . S
C210 O227 1.260 1_554 S
Eu211 C210 2.833 1_556 S
Eu211 O223 2.345 1_556 S
Eu211 O225 2.373 1_556 S
Eu211 O226 2.465 1_556 S
Eu211 O227 2.484 . S
Eu211 O228 2.443 . S
Eu211 O229 2.676 . S
Eu211 O230 2.396 . S
C212 C210 1.500 . S
C212 C213 1.377 1_554 S
C212 C217 1.377 . S
C213 C212 1.377 1_556 S
C213 C214 1.395 . S
C213 H236 0.931 . S
C214 C213 1.395 . S
C214 C215 1.383 1_556 S
C214 H237 0.931 . S
C215 C214 1.383 1_554 S
C215 C216 1.394 . S
C216 C215 1.394 . S
C216 C217 1.378 . S
C216 H238 0.931 . S
C217 C212 1.377 . S
C217 C216 1.378 . S
C217 H239 0.931 . S
C218 O228 1.259 . S
C218 O229 1.270 . S
C219 O230 1.251 . S
C219 O231 1.251 1_556 S
O220 C200 1.257 1_556 S
O220 Eu201 2.473 1_556 S
O221 C200 1.260 . S
O221 Eu201 2.480 . S
O222 Eu201 2.430 . S
O222 C208 1.259 . S
O223 Eu201 2.670 . S
O223 C208 1.270 . S
O223 Eu211 2.345 1_554 S
O224 Eu201 2.394 . S
O224 C209 1.251 . S
O225 C209 1.251 . S
O225 Eu211 2.373 1_554 S
O226 C210 1.257 . S
O226 Eu211 2.465 1_554 S
O227 C210 1.260 1_556 S
O227 Eu211 2.484 . S
O228 Eu211 2.443 . S
O228 C218 1.259 . S
O229 Eu201 2.355 1_556 S
O229 Eu211 2.676 . S
O229 C218 1.270 . S
O230 Eu211 2.396 . S
O230 C219 1.251 . S
O231 Eu201 2.374 . S
O231 C219 1.251 1_554 S
H232 C203 0.931 . S
H233 C204 0.931 . S
H234 C206 0.931 . S
H235 C207 0.931 . S
H236 C213 0.931 . S
H237 C214 0.931 . S
H238 C216 0.931 . S
H239 C217 0.931 . S
C240 Eu241 2.835 . S
C240 C242 1.500 . S
C240 O260 1.257 . S
C240 O261 1.260 . S
Eu241 C240 2.835 . S
Eu241 O260 2.473 . S
Eu241 O261 2.480 . S
Eu241 O262 2.430 . S
Eu241 O263 2.670 . S
Eu241 O264 2.394 . S
Eu241 O269 2.355 . S
Eu241 O271 2.374 . S
C242 C240 1.500 . S
C242 C243 1.377 . S
C242 C247 1.377 . S
C243 C242 1.377 . S
C243 C244 1.395 . S
C243 H272 0.931 . S
C244 C243 1.395 . S
C244 C245 1.383 . S
C244 H273 0.931 . S
C245 C244 1.383 . S
C245 C246 1.394 . S
C246 C245 1.394 . S
C246 C247 1.378 . S
C246 H274 0.931 . S
C247 C242 1.377 . S
C247 C246 1.378 . S
C247 H275 0.931 . S
C248 O262 1.259 . S
C248 O263 1.270 . S
C249 O264 1.251 . S
C249 O265 1.251 . S
C250 Eu251 2.835 . S
C250 C252 1.500 . S
C250 O266 1.257 . S
C250 O267 1.260 . S
Eu251 C250 2.835 . S
Eu251 O263 2.355 . S
Eu251 O265 2.374 . S
Eu251 O266 2.473 . S
Eu251 O267 2.480 . S
Eu251 O268 2.430 . S
Eu251 O269 2.670 . S
Eu251 O270 2.394 . S
C252 C250 1.500 . S
C252 C253 1.377 . S
C252 C257 1.377 . S
C253 C252 1.377 . S
C253 C254 1.395 . S
C253 H276 0.931 . S
C254 C253 1.395 . S
C254 C255 1.383 . S
C254 H277 0.931 . S
C255 C254 1.383 . S
C255 C256 1.394 . S
C256 C255 1.394 . S
C256 C257 1.378 . S
C256 H278 0.931 . S
C257 C252 1.377 . S
C257 C256 1.378 . S
C257 H279 0.931 . S
C258 O268 1.259 . S
C258 O269 1.270 . S
C259 O270 1.251 . S
C259 O271 1.251 . S
O260 C240 1.257 . S
O260 Eu241 2.473 . S
O261 C240 1.260 . S
O261 Eu241 2.480 . S
O262 Eu241 2.430 . S
O262 C248 1.259 . S
O263 Eu241 2.670 . S
O263 C248 1.270 . S
O263 Eu251 2.355 . S
O264 Eu241 2.394 . S
O264 C249 1.251 . S
O265 C249 1.251 . S
O265 Eu251 2.374 . S
O266 C250 1.257 . S
O266 Eu251 2.473 . S
O267 C250 1.260 . S
O267 Eu251 2.480 . S
O268 Eu251 2.430 . S
O268 C258 1.259 . S
O269 Eu241 2.355 . S
O269 Eu251 2.670 . S
O269 C258 1.270 . S
O270 Eu251 2.394 . S
O270 C259 1.251 . S
O271 Eu241 2.374 . S
O271 C259 1.251 . S
H272 C243 0.931 . S
H273 C244 0.931 . S
H274 C246 0.931 . S
H275 C247 0.931 . S
H276 C253 0.931 . S
H277 C254 0.931 . S
H278 C256 0.931 . S
H279 C257 0.931 . S
C280 Eu281 2.835 . S
C280 C282 1.500 . S
C280 O300 1.257 . S
C280 O301 1.260 . S
Eu281 C280 2.835 . S
Eu281 O300 2.473 . S
Eu281 O301 2.480 . S
Eu281 O302 2.430 . S
Eu281 O303 2.670 . S
Eu281 O304 2.394 . S
Eu281 O309 2.355 . S
Eu281 O311 2.374 . S
C282 C280 1.500 . S
C282 C283 1.377 . S
C282 C287 1.377 . S
C283 C282 1.377 . S
C283 C284 1.395 . S
C283 H312 0.931 . S
C284 C283 1.395 . S
C284 C285 1.383 . S
C284 H313 0.931 . S
C285 C284 1.383 . S
C285 C286 1.394 . S
C286 C285 1.394 . S
C286 C287 1.378 . S
C286 H314 0.931 . S
C287 C282 1.377 . S
C287 C286 1.378 . S
C287 H315 0.931 . S
C288 O302 1.259 . S
C288 O303 1.270 . S
C289 O304 1.251 . S
C289 O305 1.251 . S
C290 Eu291 2.835 . S
C290 C292 1.500 . S
C290 O306 1.257 . S
C290 O307 1.260 . S
Eu291 C290 2.835 . S
Eu291 O303 2.355 . S
Eu291 O305 2.374 . S
Eu291 O306 2.473 . S
Eu291 O307 2.480 . S
Eu291 O308 2.430 . S
Eu291 O309 2.670 . S
Eu291 O310 2.394 . S
C292 C290 1.500 . S
C292 C293 1.377 . S
C292 C297 1.377 . S
C293 C292 1.377 . S
C293 C294 1.395 . S
C293 H316 0.931 . S
C294 C293 1.395 . S
C294 C295 1.383 . S
C294 H317 0.931 . S
C295 C294 1.383 . S
C295 C296 1.394 . S
C296 C295 1.394 . S
C296 C297 1.378 . S
C296 H318 0.931 . S
C297 C292 1.377 . S
C297 C296 1.378 . S
C297 H319 0.931 . S
C298 O308 1.259 . S
C298 O309 1.270 . S
C299 O310 1.251 . S
C299 O311 1.251 . S
O300 C280 1.257 . S
O300 Eu281 2.473 . S
O301 C280 1.260 . S
O301 Eu281 2.480 . S
O302 Eu281 2.430 . S
O302 C288 1.259 . S
O303 Eu281 2.670 . S
O303 C288 1.270 . S
O303 Eu291 2.355 . S
O304 Eu281 2.394 . S
O304 C289 1.251 . S
O305 C289 1.251 . S
O305 Eu291 2.374 . S
O306 C290 1.257 . S
O306 Eu291 2.473 . S
O307 C290 1.260 . S
O307 Eu291 2.480 . S
O308 Eu291 2.430 . S
O308 C298 1.259 . S
O309 Eu281 2.355 . S
O309 Eu291 2.670 . S
O309 C298 1.270 . S
O310 Eu291 2.394 . S
O310 C299 1.251 . S
O311 Eu281 2.374 . S
O311 C299 1.251 . S
H312 C283 0.931 . S
H313 C284 0.931 . S
H314 C286 0.931 . S
H315 C287 0.931 . S
H316 C293 0.931 . S
H317 C294 0.931 . S
H318 C296 0.931 . S
H319 C297 0.931 . S
H320 C338 0.951 . S
H321 C340 0.951 . S
H322 C342 0.950 1_556 S
H323 C343 0.950 . S
H324 C345 0.950 . S
H325 C348 0.950 . S
H326 C349 0.950 . S
H327 C351 0.950 . S
H328 C352 0.950 . S
H329 C353 0.951 . S
H330 C355 0.951 . S
H331 C357 0.950 . S
H332 C358 0.950 . S
H333 C360 0.950 . S
H334 C363 0.950 . S
H335 C364 0.950 . S
H336 C366 0.950 . S
H337 C367 0.950 . S
C338 H320 0.951 . S
C338 C339 1.366 . S
C338 C340 1.388 . S
C339 C338 1.366 . S
C339 C343 1.385 . S
C340 H321 0.951 . S
C340 C338 1.388 . S
C340 C341 1.366 . S
C341 C340 1.366 . S
C341 C342 1.414 . S
C341 C344 1.499 . S
C342 H322 0.950 1_554 S
C342 C341 1.414 . S
C342 C343 1.374 . S
C343 H323 0.950 . S
C343 C339 1.385 . S
C343 C342 1.374 . S
C344 C341 1.499 . S
C344 C345 1.373 1_554 S
C344 C346 1.389 . S
C345 H324 0.950 . S
C345 C344 1.373 1_556 S
C345 C361 1.377 . S
C346 C344 1.389 . S
C346 C347 1.524 . S
C346 C360 1.377 . S
C347 C346 1.524 . S
C347 C348 1.397 . S
C347 C352 1.363 . S
C348 H325 0.950 . S
C348 C347 1.397 . S
C348 C349 1.334 . S
C349 H326 0.950 . S
C349 C348 1.334 . S
C349 C350 1.287 . S
C350 C349 1.287 . S
C350 C351 1.524 . S
C350 H369 0.913 . S
C351 H327 0.950 . S
C351 C350 1.524 . S
C351 C352 1.415 . S
C352 H328 0.950 . S
C352 C347 1.363 . S
C352 C351 1.415 . S
C353 H329 0.951 . S
C353 C354 1.366 . S
C353 C355 1.388 . S
C354 C353 1.366 . S
C354 C358 1.384 1_556 S
C355 H330 0.951 . S
C355 C353 1.388 . S
C355 C356 1.366 . S
C356 C355 1.366 . S
C356 C357 1.414 1_556 S
C356 C359 1.499 . S
C357 H331 0.950 . S
C357 C356 1.414 1_554 S
C357 C358 1.374 . S
C358 H332 0.950 . S
C358 C354 1.384 1_554 S
C358 C357 1.374 . S
C359 C356 1.499 . S
C359 C360 1.367 1_556 S
C359 C361 1.395 . S
C360 H333 0.950 . S
C360 C346 1.377 . S
C360 C359 1.367 1_554 S
C361 C345 1.377 . S
C361 C359 1.395 . S
C361 C362 1.524 . S
C362 C361 1.524 . S
C362 C363 1.397 . S
C362 C367 1.363 . S
C363 H334 0.950 . S
C363 C362 1.397 . S
C363 C364 1.334 . S
C364 H335 0.950 . S
C364 C363 1.334 . S
C364 C365 1.287 . S
C365 C364 1.287 . S
C365 C366 1.524 . S
C365 H368 0.999 . S
C366 H336 0.950 . S
C366 C365 1.524 . S
C366 C367 1.415 . S
C367 H337 0.950 . S
C367 C362 1.363 . S
C367 C366 1.415 . S
H368 C365 0.999 . S
H369 C350 0.913 . S
H370 C388 0.951 . S
H371 C390 0.951 . S
H372 C392 0.950 . S
H373 C393 0.950 . S
H374 C395 0.950 . S
H375 C398 0.950 1_556 S
H376 C399 0.950 . S
H377 C401 0.950 . S
H378 C402 0.950 . S
H379 C403 0.951 . S
H380 C405 0.951 . S
H381 C407 0.950 . S
H382 C408 0.950 . S
H383 C410 0.950 . S
H384 C413 0.950 1_554 S
H385 C414 0.950 . S
H386 C416 0.950 . S
H387 C417 0.950 . S
C388 H370 0.951 . S
C388 C389 1.366 1_554 S
C388 C390 1.388 . S
C389 C388 1.366 1_556 S
C389 C393 1.385 . S
C390 H371 0.951 . S
C390 C388 1.388 . S
C390 C391 1.366 1_554 S
C391 C390 1.366 1_556 S
C391 C392 1.414 . S
C391 C394 1.499 . S
C392 H372 0.950 . S
C392 C391 1.414 . S
C392 C393 1.374 . S
C393 H373 0.950 . S
C393 C389 1.385 . S
C393 C392 1.374 . S
C394 C391 1.499 . S
C394 C395 1.373 . S
C394 C396 1.389 1_556 S
C395 H374 0.950 . S
C395 C394 1.373 . S
C395 C411 1.377 . S
C396 C394 1.389 1_554 S
C396 C397 1.524 . S
C396 C410 1.377 . S
C397 C396 1.524 . S
C397 C398 1.397 . S
C397 C402 1.363 . S
C398 H375 0.950 1_554 S
C398 C397 1.397 . S
C398 C399 1.334 . S
C399 H376 0.950 . S
C399 C398 1.334 . S
C399 C400 1.287 . S
C400 C399 1.287 . S
C400 C401 1.524 . S
C400 H419 0.913 . S
C401 H377 0.950 . S
C401 C400 1.524 . S
C401 C402 1.415 . S
C402 H378 0.950 . S
C402 C397 1.363 . S
C402 C401 1.415 . S
C403 H379 0.951 . S
C403 C404 1.366 1_556 S
C403 C405 1.388 . S
C404 C403 1.366 1_554 S
C404 C408 1.385 . S
C405 H380 0.951 . S
C405 C403 1.388 . S
C405 C406 1.366 1_556 S
C406 C405 1.366 1_554 S
C406 C407 1.414 . S
C406 C409 1.499 . S
C407 H381 0.950 . S
C407 C406 1.414 . S
C407 C408 1.374 . S
C408 H382 0.950 . S
C408 C404 1.385 . S
C408 C407 1.374 . S
C409 C406 1.499 . S
C409 C410 1.373 . S
C409 C411 1.389 1_554 S
C410 H383 0.950 . S
C410 C396 1.377 . S
C410 C409 1.373 . S
C411 C395 1.377 . S
C411 C409 1.389 1_556 S
C411 C412 1.524 . S
C412 C411 1.524 . S
C412 C413 1.397 . S
C412 C417 1.363 . S
C413 H384 0.950 1_556 S
C413 C412 1.397 . S
C413 C414 1.334 . S
C414 H385 0.950 . S
C414 C413 1.334 . S
C414 C415 1.287 . S
C415 C414 1.287 . S
C415 C416 1.524 . S
C415 H418 0.999 . S
C416 H386 0.950 . S
C416 C415 1.524 . S
C416 C417 1.415 . S
C417 H387 0.950 . S
C417 C412 1.363 . S
C417 C416 1.415 . S
H418 C415 0.999 . S
H419 C400 0.913 . S
H420 C438 0.951 . S
H421 C440 0.951 . S
H422 C442 0.950 . S
H423 C443 0.950 . S
H424 C445 0.950 . S
H425 C448 0.950 . S
H426 C449 0.950 . S
H427 C451 0.950 . S
H428 C452 0.950 . S
H429 C453 0.951 . S
H430 C455 0.951 . S
H431 C457 0.950 . S
H432 C458 0.950 . S
H433 C460 0.950 . S
H434 C463 0.950 . S
H435 C464 0.950 . S
H436 C466 0.950 . S
H437 C467 0.950 . S
C438 H420 0.951 . S
C438 C439 1.366 . S
C438 C440 1.388 . S
C439 C438 1.366 . S
C439 C443 1.385 . S
C440 H421 0.951 . S
C440 C438 1.388 . S
C440 C441 1.366 . S
C441 C440 1.366 . S
C441 C442 1.414 . S
C441 C444 1.499 . S
C442 H422 0.950 . S
C442 C441 1.414 . S
C442 C443 1.374 . S
C443 H423 0.950 . S
C443 C439 1.385 . S
C443 C442 1.374 . S
C444 C441 1.499 . S
C444 C445 1.373 . S
C444 C446 1.389 . S
C445 H424 0.950 . S
C445 C444 1.373 . S
C445 C461 1.377 . S
C446 C444 1.389 . S
C446 C447 1.524 . S
C446 C460 1.377 . S
C447 C446 1.524 . S
C447 C448 1.397 . S
C447 C452 1.363 . S
C448 H425 0.950 . S
C448 C447 1.397 . S
C448 C449 1.334 . S
C449 H426 0.950 . S
C449 C448 1.334 . S
C449 C450 1.287 . S
C450 C449 1.287 . S
C450 C451 1.524 . S
C450 H469 0.913 . S
C451 H427 0.950 . S
C451 C450 1.524 . S
C451 C452 1.415 . S
C452 H428 0.950 . S
C452 C447 1.363 . S
C452 C451 1.415 . S
C453 H429 0.951 . S
C453 C454 1.366 . S
C453 C455 1.388 . S
C454 C453 1.366 . S
C454 C458 1.385 . S
C455 H430 0.951 . S
C455 C453 1.388 . S
C455 C456 1.366 . S
C456 C455 1.366 . S
C456 C457 1.414 . S
C456 C459 1.499 . S
C457 H431 0.950 . S
C457 C456 1.414 . S
C457 C458 1.374 . S
C458 H432 0.950 . S
C458 C454 1.385 . S
C458 C457 1.374 . S
C459 C456 1.499 . S
C459 C460 1.373 . S
C459 C461 1.389 . S
C460 H433 0.950 . S
C460 C446 1.377 . S
C460 C459 1.373 . S
C461 C445 1.377 . S
C461 C459 1.389 . S
C461 C462 1.524 . S
C462 C461 1.524 . S
C462 C463 1.397 . S
C462 C467 1.363 . S
C463 H434 0.950 . S
C463 C462 1.397 . S
C463 C464 1.334 . S
C464 H435 0.950 . S
C464 C463 1.334 . S
C464 C465 1.287 . S
C465 C464 1.287 . S
C465 C466 1.524 . S
C465 H468 0.999 . S
C466 H436 0.950 . S
C466 C465 1.524 . S
C466 C467 1.415 . S
C467 H437 0.950 . S
C467 C462 1.363 . S
C467 C466 1.415 . S
H468 C465 0.999 . S
H469 C450 0.913 . S
H470 C488 0.951 . S
H471 C490 0.951 . S
H472 C492 0.950 . S
H473 C493 0.950 . S
H474 C495 0.950 . S
H475 C498 0.950 . S
H476 C499 0.950 . S
H477 C501 0.950 . S
H478 C502 0.950 . S
H479 C503 0.951 . S
H480 C505 0.951 . S
H481 C507 0.950 . S
H482 C508 0.950 . S
H483 C510 0.950 . S
H484 C513 0.950 . S
H485 C514 0.950 . S
H486 C516 0.950 . S
H487 C517 0.950 . S
C488 H470 0.951 . S
C488 C489 1.366 . S
C488 C490 1.388 . S
C489 C488 1.366 . S
C489 C493 1.385 . S
C490 H471 0.951 . S
C490 C488 1.388 . S
C490 C491 1.366 . S
C491 C490 1.366 . S
C491 C492 1.414 . S
C491 C494 1.499 . S
C492 H472 0.950 . S
C492 C491 1.414 . S
C492 C493 1.374 . S
C493 H473 0.950 . S
C493 C489 1.385 . S
C493 C492 1.374 . S
C494 C491 1.499 . S
C494 C495 1.373 . S
C494 C496 1.389 . S
C495 H474 0.950 . S
C495 C494 1.373 . S
C495 C511 1.377 . S
C496 C494 1.389 . S
C496 C497 1.524 . S
C496 C510 1.377 . S
C497 C496 1.524 . S
C497 C498 1.397 . S
C497 C502 1.363 . S
C498 H475 0.950 . S
C498 C497 1.397 . S
C498 C499 1.334 . S
C499 H476 0.950 . S
C499 C498 1.334 . S
C499 C500 1.287 . S
C500 C499 1.287 . S
C500 C501 1.524 . S
C500 H519 0.913 . S
C501 H477 0.950 . S
C501 C500 1.524 . S
C501 C502 1.415 . S
C502 H478 0.950 . S
C502 C497 1.363 . S
C502 C501 1.415 . S
C503 H479 0.951 . S
C503 C504 1.366 . S
C503 C505 1.388 . S
C504 C503 1.366 . S
C504 C508 1.385 . S
C505 H480 0.951 . S
C505 C503 1.388 . S
C505 C506 1.366 . S
C506 C505 1.366 . S
C506 C507 1.414 . S
C506 C509 1.499 . S
C507 H481 0.950 . S
C507 C506 1.414 . S
C507 C508 1.374 . S
C508 H482 0.950 . S
C508 C504 1.385 . S
C508 C507 1.374 . S
C509 C506 1.499 . S
C509 C510 1.373 . S
C509 C511 1.389 . S
C510 H483 0.950 . S
C510 C496 1.377 . S
C510 C509 1.373 . S
C511 C495 1.377 . S
C511 C509 1.389 . S
C511 C512 1.524 . S
C512 C511 1.524 . S
C512 C513 1.397 . S
C512 C517 1.363 . S
C513 H484 0.950 . S
C513 C512 1.397 . S
C513 C514 1.334 . S
C514 H485 0.950 . S
C514 C513 1.334 . S
C514 C515 1.287 . S
C515 C514 1.287 . S
C515 C516 1.524 . S
C515 H518 0.999 . S
C516 H486 0.950 . S
C516 C515 1.524 . S
C516 C517 1.415 . S
C517 H487 0.950 . S
C517 C512 1.363 . S
C517 C516 1.415 . S
H518 C515 0.999 . S
H519 C500 0.913 . S
H520 C538 0.951 . S
H521 C540 0.951 1_455 S
H522 C542 0.950 . S
H523 C543 0.950 . S
H524 C545 0.950 1_655 S
H525 C548 0.950 . S
H526 C549 0.950 . S
H527 C551 0.950 . S
H528 C552 0.950 . S
H529 C553 0.951 . S
H530 C555 0.951 . S
H531 C557 0.950 . S
H532 C558 0.950 . S
H533 C560 0.950 . S
H534 C563 0.950 . S
H535 C564 0.950 . S
H536 C566 0.950 1_655 S
H537 C567 0.950 . S
C538 H520 0.951 . S
C538 C539 1.366 . S
C538 C540 1.388 . S
C539 C538 1.366 . S
C539 C543 1.385 . S
C540 H521 0.951 1_655 S
C540 C538 1.388 . S
C540 C541 1.366 . S
C541 C540 1.366 . S
C541 C542 1.414 . S
C541 C544 1.499 1_655 S
C542 H522 0.950 . S
C542 C541 1.414 . S
C542 C543 1.374 . S
C543 H523 0.950 . S
C543 C539 1.385 . S
C543 C542 1.374 . S
C544 C541 1.499 1_455 S
C544 C545 1.373 1_554 S
C544 C546 1.389 . S
C545 H524 0.950 1_455 S
C545 C544 1.373 1_556 S
C545 C561 1.377 . S
C546 C544 1.389 . S
C546 C547 1.524 . S
C546 C560 1.377 . S
C547 C546 1.524 . S
C547 C548 1.397 . S
C547 C552 1.363 . S
C548 H525 0.950 . S
C548 C547 1.397 . S
C548 C549 1.334 . S
C549 H526 0.950 . S
C549 C548 1.334 . S
C549 C550 1.287 . S
C550 C549 1.287 . S
C550 C551 1.524 . S
C550 H569 0.913 . S
C551 H527 0.950 . S
C551 C550 1.524 . S
C551 C552 1.415 . S
C552 H528 0.950 . S
C552 C547 1.363 . S
C552 C551 1.415 . S
C553 H529 0.951 . S
C553 C554 1.366 . S
C553 C555 1.388 . S
C554 C553 1.366 . S
C554 C558 1.385 . S
C555 H530 0.951 . S
C555 C553 1.388 . S
C555 C556 1.366 . S
C556 C555 1.366 . S
C556 C557 1.414 . S
C556 C559 1.499 . S
C557 H531 0.950 . S
C557 C556 1.414 . S
C557 C558 1.374 . S
C558 H532 0.950 . S
C558 C554 1.385 . S
C558 C557 1.374 . S
C559 C556 1.499 . S
C559 C560 1.373 1_556 S
C559 C561 1.389 . S
C560 H533 0.950 . S
C560 C546 1.377 . S
C560 C559 1.373 1_554 S
C561 C545 1.377 . S
C561 C559 1.389 . S
C561 C562 1.524 . S
C562 C561 1.524 . S
C562 C563 1.397 . S
C562 C567 1.363 . S
C563 H534 0.950 . S
C563 C562 1.397 . S
C563 C564 1.334 . S
C564 H535 0.950 . S
C564 C563 1.334 . S
C564 C565 1.287 . S
C565 C564 1.287 . S
C565 C566 1.524 . S
C565 H568 0.999 . S
C566 H536 0.950 1_455 S
C566 C565 1.524 . S
C566 C567 1.415 . S
C567 H537 0.950 . S
C567 C562 1.363 . S
C567 C566 1.415 . S
H568 C565 0.999 . S
H569 C550 0.913 . S
H570 C588 0.951 . S
H571 C590 0.951 . S
H572 C592 0.950 1_655 S
H573 C593 0.950 . S
H574 C595 0.950 . S
H575 C598 0.950 . S
H576 C599 0.950 . S
H577 C601 0.950 . S
H578 C602 0.950 . S
H579 C603 0.951 . S
H580 C605 0.951 . S
H581 C607 0.950 . S
H582 C608 0.950 . S
H583 C610 0.950 . S
H584 C613 0.950 . S
H585 C614 0.950 . S
H586 C616 0.950 . S
H587 C617 0.950 . S
C588 H570 0.951 . S
C588 C589 1.366 . S
C588 C590 1.388 . S
C589 C588 1.366 . S
C589 C593 1.385 . S
C590 H571 0.951 . S
C590 C588 1.388 . S
C590 C591 1.366 . S
C591 C590 1.366 . S
C591 C592 1.414 . S
C591 C594 1.499 1_455 S
C592 H572 0.950 1_455 S
C592 C591 1.414 . S
C592 C593 1.374 . S
C593 H573 0.950 . S
C593 C589 1.385 . S
C593 C592 1.374 . S
C594 C591 1.499 1_655 S
C594 C595 1.373 . S
C594 C596 1.389 1_554 S
C595 H574 0.950 . S
C595 C594 1.373 . S
C595 C611 1.377 . S
C596 C594 1.389 1_556 S
C596 C597 1.524 1_655 S
C596 C610 1.377 . S
C597 C596 1.524 1_455 S
C597 C598 1.397 . S
C597 C602 1.363 . S
C598 H575 0.950 . S
C598 C597 1.397 . S
C598 C599 1.334 . S
C599 H576 0.950 . S
C599 C598 1.334 . S
C599 C600 1.287 . S
C600 C599 1.287 . S
C600 C601 1.524 . S
C600 H619 0.913 . S
C601 H577 0.950 . S
C601 C600 1.524 . S
C601 C602 1.415 . S
C602 H578 0.950 . S
C602 C597 1.363 . S
C602 C601 1.415 . S
C603 H579 0.951 . S
C603 C604 1.366 . S
C603 C605 1.388 . S
C604 C603 1.366 . S
C604 C608 1.385 . S
C605 H580 0.951 . S
C605 C603 1.388 . S
C605 C606 1.366 . S
C606 C605 1.366 . S
C606 C607 1.414 . S
C606 C609 1.499 1_556 S
C607 H581 0.950 . S
C607 C606 1.414 . S
C607 C608 1.374 . S
C608 H582 0.950 . S
C608 C604 1.385 . S
C608 C607 1.374 . S
C609 C606 1.499 1_554 S
C609 C610 1.373 1_554 S
C609 C611 1.389 . S
C610 H583 0.950 . S
C610 C596 1.377 . S
C610 C609 1.373 1_556 S
C611 C595 1.377 . S
C611 C609 1.389 . S
C611 C612 1.524 . S
C612 C611 1.524 . S
C612 C613 1.397 . S
C612 C617 1.363 . S
C613 H584 0.950 . S
C613 C612 1.397 . S
C613 C614 1.334 . S
C614 H585 0.950 . S
C614 C613 1.334 . S
C614 C615 1.287 . S
C615 C614 1.287 . S
C615 C616 1.524 . S
C615 H618 0.999 . S
C616 H586 0.950 . S
C616 C615 1.524 . S
C616 C617 1.415 . S
C617 H587 0.950 . S
C617 C612 1.363 . S
C617 C616 1.415 . S
H618 C615 0.999 . S
H619 C600 0.913 . S
H620 C638 0.951 . S
H621 C640 0.951 . S
H622 C642 0.950 . S
H623 C643 0.950 . S
H624 C645 0.950 . S
H625 C648 0.950 . S
H626 C649 0.950 . S
H627 C651 0.950 . S
H628 C652 0.950 . S
H629 C653 0.951 . S
H630 C655 0.951 . S
H631 C657 0.950 . S
H632 C658 0.950 . S
H633 C660 0.950 . S
H634 C663 0.950 . S
H635 C664 0.950 . S
H636 C666 0.950 . S
H637 C667 0.950 1_455 S
C638 H620 0.951 . S
C638 C639 1.366 . S
C638 C640 1.388 . S
C639 C638 1.366 . S
C639 C643 1.385 . S
C640 H621 0.951 . S
C640 C638 1.388 . S
C640 C641 1.366 . S
C641 C640 1.366 . S
C641 C642 1.414 . S
C641 C644 1.499 . S
C642 H622 0.950 . S
C642 C641 1.414 . S
C642 C643 1.374 . S
C643 H623 0.950 . S
C643 C639 1.385 . S
C643 C642 1.374 . S
C644 C641 1.499 . S
C644 C645 1.373 . S
C644 C646 1.389 . S
C645 H624 0.950 . S
C645 C644 1.373 . S
C645 C661 1.377 . S
C646 C644 1.389 . S
C646 C647 1.524 . S
C646 C660 1.377 . S
C647 C646 1.524 . S
C647 C648 1.397 . S
C647 C652 1.363 . S
C648 H625 0.950 . S
C648 C647 1.397 . S
C648 C649 1.334 . S
C649 H626 0.950 . S
C649 C648 1.334 . S
C649 C650 1.287 . S
C650 C649 1.287 . S
C650 C651 1.524 . S
C650 H669 0.913 . S
C651 H627 0.950 . S
C651 C650 1.524 . S
C651 C652 1.415 . S
C652 H628 0.950 . S
C652 C647 1.363 . S
C652 C651 1.415 . S
C653 H629 0.951 . S
C653 C654 1.366 . S
C653 C655 1.388 . S
C654 C653 1.366 . S
C654 C658 1.385 . S
C655 H630 0.951 . S
C655 C653 1.388 . S
C655 C656 1.366 . S
C656 C655 1.366 . S
C656 C657 1.414 . S
C656 C659 1.499 . S
C657 H631 0.950 . S
C657 C656 1.414 . S
C657 C658 1.374 . S
C658 H632 0.950 . S
C658 C654 1.385 . S
C658 C657 1.374 . S
C659 C656 1.499 . S
C659 C660 1.373 1_655 S
C659 C661 1.389 1_655 S
C660 H633 0.950 . S
C660 C646 1.377 . S
C660 C659 1.373 1_455 S
C661 C645 1.377 . S
C661 C659 1.389 1_455 S
C661 C662 1.524 1_455 S
C662 C661 1.524 1_655 S
C662 C663 1.397 . S
C662 C667 1.363 . S
C663 H634 0.950 . S
C663 C662 1.397 . S
C663 C664 1.334 . S
C664 H635 0.950 . S
C664 C663 1.334 . S
C664 C665 1.287 . S
C665 C664 1.287 . S
C665 C666 1.524 . S
C665 H668 0.999 . S
C666 H636 0.950 . S
C666 C665 1.524 . S
C666 C667 1.415 . S
C667 H637 0.950 1_655 S
C667 C662 1.363 . S
C667 C666 1.415 . S
H668 C665 0.999 . S
H669 C650 0.913 . S
H670 C688 0.951 . S
H671 C690 0.951 . S
H672 C692 0.950 . S
H673 C693 0.950 . S
H674 C695 0.950 . S
H675 C698 0.950 . S
H676 C699 0.950 . S
H677 C701 0.950 . S
H678 C702 0.950 . S
H679 C703 0.951 . S
H680 C705 0.951 . S
H681 C707 0.950 . S
H682 C708 0.950 . S
H683 C710 0.950 1_455 S
H684 C713 0.950 . S
H685 C714 0.950 . S
H686 C716 0.950 . S
H687 C717 0.950 . S
C688 H670 0.951 . S
C688 C689 1.366 . S
C688 C690 1.388 . S
C689 C688 1.366 . S
C689 C693 1.385 . S
C690 H671 0.951 . S
C690 C688 1.388 . S
C690 C691 1.366 . S
C691 C690 1.366 . S
C691 C692 1.414 . S
C691 C694 1.499 . S
C692 H672 0.950 . S
C692 C691 1.414 . S
C692 C693 1.374 . S
C693 H673 0.950 . S
C693 C689 1.385 . S
C693 C692 1.374 . S
C694 C691 1.499 . S
C694 C695 1.373 . S
C694 C696 1.389 . S
C695 H674 0.950 . S
C695 C694 1.373 . S
C695 C711 1.377 . S
C696 C694 1.389 . S
C696 C697 1.524 . S
C696 C710 1.377 . S
C697 C696 1.524 . S
C697 C698 1.397 . S
C697 C702 1.363 . S
C698 H675 0.950 . S
C698 C697 1.397 . S
C698 C699 1.334 . S
C699 H676 0.950 . S
C699 C698 1.334 . S
C699 C700 1.287 . S
C700 C699 1.287 . S
C700 C701 1.524 . S
C700 H719 0.913 . S
C701 H677 0.950 . S
C701 C700 1.524 . S
C701 C702 1.415 . S
C702 H678 0.950 . S
C702 C697 1.363 . S
C702 C701 1.415 . S
C703 H679 0.951 . S
C703 C704 1.366 . S
C703 C705 1.388 . S
C704 C703 1.366 . S
C704 C708 1.385 . S
C705 H680 0.951 . S
C705 C703 1.388 . S
C705 C706 1.366 . S
C706 C705 1.366 . S
C706 C707 1.414 . S
C706 C709 1.499 . S
C707 H681 0.950 . S
C707 C706 1.414 . S
C707 C708 1.374 . S
C708 H682 0.950 . S
C708 C704 1.385 . S
C708 C707 1.374 . S
C709 C706 1.499 . S
C709 C710 1.373 1_455 S
C709 C711 1.389 1_455 S
C710 H683 0.950 1_655 S
C710 C696 1.377 . S
C710 C709 1.373 1_655 S
C711 C695 1.377 . S
C711 C709 1.389 1_655 S
C711 C712 1.524 . S
C712 C711 1.524 . S
C712 C713 1.397 1_655 S
C712 C717 1.363 . S
C713 H684 0.950 . S
C713 C712 1.397 1_455 S
C713 C714 1.334 . S
C714 H685 0.950 . S
C714 C713 1.334 . S
C714 C715 1.287 . S
C715 C714 1.287 . S
C715 C716 1.524 1_455 S
C715 H718 0.999 . S
C716 H686 0.950 . S
C716 C715 1.524 1_655 S
C716 C717 1.415 . S
C717 H687 0.950 . S
C717 C712 1.363 . S
C717 C716 1.415 . S
H718 C715 0.999 . S
H719 C700 0.913 . S
H720 C738 0.951 . S
H721 C740 0.951 . S
H722 C742 0.950 . S
H723 C743 0.950 . S
H724 C745 0.950 . S
H725 C748 0.950 . S
H726 C749 0.950 . S
H727 C751 0.950 . S
H728 C752 0.950 . S
H729 C753 0.951 . S
H730 C755 0.951 . S
H731 C757 0.950 . S
H732 C758 0.950 . S
H733 C760 0.950 . S
H734 C763 0.950 . S
H735 C764 0.950 . S
H736 C766 0.950 . S
H737 C767 0.950 . S
C738 H720 0.951 . S
C738 C739 1.366 1_455 S
C738 C740 1.388 . S
C739 C738 1.366 1_655 S
C739 C743 1.385 1_554 S
C740 H721 0.951 . S
C740 C738 1.388 . S
C740 C741 1.361 1_455 S
C741 C740 1.361 1_655 S
C741 C742 1.418 1_554 S
C741 C744 1.500 1_655 S
C742 H722 0.950 . S
C742 C741 1.418 1_556 S
C742 C743 1.374 . S
C743 H723 0.950 . S
C743 C739 1.385 1_556 S
C743 C742 1.374 . S
C744 C741 1.500 1_455 S
C744 C745 1.374 1_455 S
C744 C746 1.389 . S
C745 H724 0.950 . S
C745 C744 1.374 1_655 S
C745 C761 1.377 . S
C746 C744 1.389 . S
C746 C747 1.524 . S
C746 C760 1.377 . S
C747 C746 1.524 . S
C747 C748 1.397 1_554 S
C747 C752 1.363 . S
C748 H725 0.950 . S
C748 C747 1.397 1_556 S
C748 C749 1.334 . S
C749 H726 0.950 . S
C749 C748 1.334 . S
C749 C750 1.287 . S
C750 C749 1.287 . S
C750 C751 1.524 1_556 S
C750 H769 0.913 . S
C751 H727 0.950 . S
C751 C750 1.524 1_554 S
C751 C752 1.415 . S
C752 H728 0.950 . S
C752 C747 1.363 . S
C752 C751 1.415 . S
C753 H729 0.951 . S
C753 C754 1.366 1_656 S
C753 C755 1.388 . S
C754 C753 1.366 1_454 S
C754 C758 1.385 . S
C755 H730 0.951 . S
C755 C753 1.388 . S
C755 C756 1.365 1_656 S
C756 C755 1.365 1_454 S
C756 C757 1.414 . S
C756 C759 1.500 1_455 S
C757 H731 0.950 . S
C757 C756 1.414 . S
C757 C758 1.374 . S
C758 H732 0.950 . S
C758 C754 1.385 . S
C758 C757 1.374 . S
C759 C756 1.500 1_655 S
C759 C760 1.366 1_655 S
C759 C761 1.395 . S
C760 H733 0.950 . S
C760 C746 1.377 . S
C760 C759 1.366 1_455 S
C761 C745 1.377 . S
C761 C759 1.395 . S
C761 C762 1.524 . S
C762 C761 1.524 . S
C762 C763 1.397 . S
C762 C767 1.363 1_554 S
C763 H734 0.950 . S
C763 C762 1.397 . S
C763 C764 1.334 . S
C764 H735 0.950 . S
C764 C763 1.334 . S
C764 C765 1.287 . S
C765 C764 1.287 . S
C765 C766 1.524 1_554 S
C765 H768 0.999 . S
C766 H736 0.950 . S
C766 C765 1.524 1_556 S
C766 C767 1.415 . S
C767 H737 0.950 . S
C767 C762 1.363 1_556 S
C767 C766 1.415 . S
H768 C765 0.999 . S
H769 C750 0.913 . S
H770 C788 0.951 . S
H771 C790 0.951 . S
H772 C792 0.950 . S
H773 C793 0.950 . S
H774 C795 0.950 . S
H775 C798 0.950 . S
H776 C799 0.950 . S
H777 C801 0.950 . S
H778 C802 0.950 . S
H779 C803 0.951 . S
H780 C805 0.951 . S
H781 C807 0.950 . S
H782 C808 0.950 . S
H783 C810 0.950 . S
H784 C813 0.950 . S
H785 C814 0.950 . S
H786 C816 0.950 . S
H787 C817 0.950 . S
C788 H770 0.951 . S
C788 C789 1.366 . S
C788 C790 1.388 . S
C789 C788 1.366 . S
C789 C793 1.385 . S
C790 H771 0.951 . S
C790 C788 1.388 . S
C790 C791 1.366 . S
C791 C790 1.366 . S
C791 C792 1.414 . S
C791 C794 1.499 . S
C792 H772 0.950 . S
C792 C791 1.414 . S
C792 C793 1.374 . S
C793 H773 0.950 . S
C793 C789 1.385 . S
C793 C792 1.374 . S
C794 C791 1.499 . S
C794 C795 1.373 . S
C794 C796 1.389 1_455 S
C795 H774 0.950 . S
C795 C794 1.373 . S
C795 C811 1.377 . S
C796 C794 1.389 1_655 S
C796 C797 1.524 . S
C796 C810 1.377 . S
C797 C796 1.524 . S
C797 C798 1.397 . S
C797 C802 1.363 . S
C798 H775 0.950 . S
C798 C797 1.397 . S
C798 C799 1.334 . S
C799 H776 0.950 . S
C799 C798 1.334 . S
C799 C800 1.287 . S
C800 C799 1.287 . S
C800 C801 1.524 . S
C800 H819 0.913 . S
C801 H777 0.950 . S
C801 C800 1.524 . S
C801 C802 1.415 . S
C802 H778 0.950 . S
C802 C797 1.363 . S
C802 C801 1.415 . S
C803 H779 0.951 . S
C803 C804 1.366 . S
C803 C805 1.388 . S
C804 C803 1.366 . S
C804 C808 1.385 . S
C805 H780 0.951 . S
C805 C803 1.388 . S
C805 C806 1.366 . S
C806 C805 1.366 . S
C806 C807 1.414 . S
C806 C809 1.499 . S
C807 H781 0.950 . S
C807 C806 1.414 . S
C807 C808 1.374 . S
C808 H782 0.950 . S
C808 C804 1.385 . S
C808 C807 1.374 . S
C809 C806 1.499 . S
C809 C810 1.373 . S
C809 C811 1.389 1_655 S
C810 H783 0.950 . S
C810 C796 1.377 . S
C810 C809 1.373 . S
C811 C795 1.377 . S
C811 C809 1.389 1_455 S
C811 C812 1.524 . S
C812 C811 1.524 . S
C812 C813 1.397 . S
C812 C817 1.363 . S
C813 H784 0.950 . S
C813 C812 1.397 . S
C813 C814 1.334 . S
C814 H785 0.950 . S
C814 C813 1.334 . S
C814 C815 1.287 . S
C815 C814 1.287 . S
C815 C816 1.524 . S
C815 H818 0.999 . S
C816 H786 0.950 . S
C816 C815 1.524 . S
C816 C817 1.415 . S
C817 H787 0.950 . S
C817 C812 1.363 . S
C817 C816 1.415 . S
H818 C815 0.999 . S
H819 C800 0.913 . S
H820 C838 0.951 . S
H821 C840 0.951 . S
H822 C842 0.950 . S
H823 C843 0.950 . S
H824 C845 0.950 . S
H825 C848 0.950 . S
H826 C849 0.950 . S
H827 C851 0.950 . S
H828 C852 0.913 1_545 S
H829 C853 0.951 . S
H830 C855 0.951 . S
H831 C857 0.950 . S
H832 C858 0.950 . S
H833 C860 0.950 . S
H834 C863 0.950 . S
H835 C864 0.950 . S
H836 C866 0.950 . S
H837 C867 0.907 1_565 S
C838 H820 0.951 . S
C838 C839 1.366 1_556 S
C838 C840 1.388 . S
C839 C838 1.366 1_554 S
C839 C843 1.385 . S
C840 H821 0.951 . S
C840 C838 1.388 . S
C840 C841 1.366 1_556 S
C841 C840 1.366 1_554 S
C841 C842 1.414 . S
C841 C844 1.499 . S
C842 H822 0.950 . S
C842 C841 1.414 . S
C842 C843 1.374 . S
C843 H823 0.950 . S
C843 C839 1.385 . S
C843 C842 1.374 . S
C844 C841 1.499 . S
C844 C845 1.373 . S
C844 C846 1.389 1_554 S
C845 H824 0.950 . S
C845 C844 1.373 . S
C845 C861 1.377 1_565 S
C846 C844 1.389 1_556 S
C846 C847 1.524 . S
C846 C860 1.377 1_565 S
C847 C846 1.524 . S
C847 C848 1.397 . S
C847 C852 1.363 . S
C848 H825 0.950 . S
C848 C847 1.397 . S
C848 C849 1.334 . S
C849 H826 0.950 . S
C849 C848 1.334 . S
C849 C850 1.287 . S
C850 C849 1.287 . S
C850 C851 1.524 . S
C850 H869 0.913 . S
C851 H827 0.950 . S
C851 C850 1.524 . S
C851 C852 1.415 . S
C852 H828 0.913 1_565 S
C852 C847 1.363 . S
C852 C851 1.415 . S
C853 H829 0.951 . S
C853 C854 1.366 . S
C853 C855 1.388 . S
C854 C853 1.366 . S
C854 C858 1.385 1_554 S
C855 H830 0.951 . S
C855 C853 1.388 . S
C855 C856 1.366 . S
C856 C855 1.366 . S
C856 C857 1.414 1_554 S
C856 C859 1.499 . S
C857 H831 0.950 . S
C857 C856 1.414 1_556 S
C857 C858 1.374 . S
C858 H832 0.950 . S
C858 C854 1.385 1_556 S
C858 C857 1.374 . S
C859 C856 1.499 . S
C859 C860 1.373 1_554 S
C859 C861 1.389 . S
C860 H833 0.950 . S
C860 C846 1.377 1_545 S
C860 C859 1.373 1_556 S
C861 C845 1.377 1_545 S
C861 C859 1.389 . S
C861 C862 1.524 . S
C862 C861 1.524 . S
C862 C863 1.397 . S
C862 C867 1.363 . S
C863 H834 0.950 . S
C863 C862 1.397 . S
C863 C864 1.334 . S
C864 H835 0.950 . S
C864 C863 1.334 . S
C864 C865 1.287 . S
C865 C864 1.287 . S
C865 C866 1.524 . S
C865 H868 0.999 . S
C866 H836 0.950 . S
C866 C865 1.524 . S
C866 C867 1.415 . S
C867 H837 0.907 1_545 S
C867 C862 1.363 . S
C867 C866 1.415 . S
H868 C865 0.999 . S
H869 C850 0.913 . S
H870 C888 0.951 . S
H871 C890 0.951 . S
H872 C892 0.950 . S
H873 C893 0.950 . S
H874 C895 0.950 . S
H875 C898 0.950 . S
H876 C899 0.950 . S
H877 C901 0.950 . S
H878 C902 0.950 1_565 S
H879 C903 0.951 . S
H880 C905 0.951 . S
H881 C907 0.950 . S
H882 C908 0.950 . S
H883 C910 0.950 . S
H884 C913 0.950 . S
H885 C914 0.950 . S
H886 C916 0.950 . S
H887 C917 0.950 1_545 S
C888 H870 0.951 . S
C888 C889 1.366 . S
C888 C890 1.388 . S
C889 C888 1.366 . S
C889 C893 1.385 . S
C890 H871 0.951 . S
C890 C888 1.388 . S
C890 C891 1.366 . S
C891 C890 1.366 . S
C891 C892 1.414 . S
C891 C894 1.499 . S
C892 H872 0.950 . S
C892 C891 1.414 . S
C892 C893 1.374 . S
C893 H873 0.950 . S
C893 C889 1.385 . S
C893 C892 1.374 . S
C894 C891 1.499 . S
C894 C895 1.373 . S
C894 C896 1.389 . S
C895 H874 0.950 . S
C895 C894 1.373 . S
C895 C911 1.377 1_545 S
C896 C894 1.389 . S
C896 C897 1.524 . S
C896 C910 1.377 1_545 S
C897 C896 1.524 . S
C897 C898 1.397 . S
C897 C902 1.363 . S
C898 H875 0.950 . S
C898 C897 1.397 . S
C898 C899 1.334 . S
C899 H876 0.950 . S
C899 C898 1.334 . S
C899 C900 1.287 . S
C900 C899 1.287 . S
C900 C901 1.524 . S
C900 H919 0.913 . S
C901 H877 0.950 . S
C901 C900 1.524 . S
C901 C902 1.415 . S
C902 H878 0.950 1_545 S
C902 C897 1.363 . S
C902 C901 1.415 . S
C903 H879 0.951 . S
C903 C904 1.366 . S
C903 C905 1.388 . S
C904 C903 1.366 . S
C904 C908 1.385 . S
C905 H880 0.951 . S
C905 C903 1.388 . S
C905 C906 1.366 . S
C906 C905 1.366 . S
C906 C907 1.414 . S
C906 C909 1.499 . S
C907 H881 0.950 . S
C907 C906 1.414 . S
C907 C908 1.374 . S
C908 H882 0.950 . S
C908 C904 1.385 . S
C908 C907 1.374 . S
C909 C906 1.499 . S
C909 C910 1.373 . S
C909 C911 1.389 . S
C910 H883 0.950 . S
C910 C896 1.377 1_565 S
C910 C909 1.373 . S
C911 C895 1.377 1_565 S
C911 C909 1.389 . S
C911 C912 1.524 . S
C912 C911 1.524 . S
C912 C913 1.397 . S
C912 C917 1.363 . S
C913 H884 0.950 . S
C913 C912 1.397 . S
C913 C914 1.334 . S
C914 H885 0.950 . S
C914 C913 1.334 . S
C914 C915 1.287 . S
C915 C914 1.287 . S
C915 C916 1.524 . S
C915 H918 0.999 . S
C916 H886 0.950 . S
C916 C915 1.524 . S
C916 C917 1.415 . S
C917 H887 0.950 1_565 S
C917 C912 1.363 . S
C917 C916 1.415 . S
H918 C915 0.999 . S
H919 C900 0.913 . S
H920 C938 0.951 . S
H921 C940 0.951 . S
H922 C942 0.950 . S
H923 C943 0.950 . S
H924 C945 0.950 . S
H925 C948 0.950 . S
H926 C949 0.950 . S
H927 C951 0.950 . S
H928 C952 0.950 . S
H929 C953 0.951 . S
H930 C955 0.951 . S
H931 C957 0.950 . S
H932 C958 0.950 . S
H933 C960 0.950 . S
H934 C963 0.950 . S
H935 C964 0.950 . S
H936 C966 0.950 . S
H937 C967 0.950 . S
C938 H920 0.951 . S
C938 C939 1.366 1_556 S
C938 C940 1.388 . S
C939 C938 1.366 1_554 S
C939 C943 1.385 . S
C940 H921 0.951 . S
C940 C938 1.388 . S
C940 C941 1.366 1_556 S
C941 C940 1.366 1_554 S
C941 C942 1.414 . S
C941 C944 1.499 . S
C942 H922 0.950 . S
C942 C941 1.414 . S
C942 C943 1.374 . S
C943 H923 0.950 . S
C943 C939 1.385 . S
C943 C942 1.374 . S
C944 C941 1.499 . S
C944 C945 1.373 . S
C944 C946 1.389 . S
C945 H924 0.950 . S
C945 C944 1.373 . S
C945 C961 1.377 . S
C946 C944 1.389 . S
C946 C947 1.524 . S
C946 C960 1.377 . S
C947 C946 1.524 . S
C947 C948 1.397 . S
C947 C952 1.363 1_554 S
C948 H925 0.950 . S
C948 C947 1.397 . S
C948 C949 1.334 . S
C949 H926 0.950 . S
C949 C948 1.334 . S
C949 C950 1.287 . S
C950 C949 1.287 . S
C950 C951 1.524 1_554 S
C950 H969 0.913 . S
C951 H927 0.950 . S
C951 C950 1.524 1_556 S
C951 C952 1.415 . S
C952 H928 0.950 . S
C952 C947 1.363 1_556 S
C952 C951 1.415 . S
C953 H929 0.951 . S
C953 C954 1.387 . S
C953 C955 1.388 . S
C954 C953 1.387 . S
C954 C958 1.366 1_554 S
C955 H930 0.951 . S
C955 C953 1.388 . S
C955 C956 1.381 . S
C956 C955 1.381 . S
C956 C957 1.397 1_554 S
C956 C959 1.499 . S
C957 H931 0.950 . S
C957 C956 1.397 1_556 S
C957 C958 1.374 . S
C958 H932 0.950 . S
C958 C954 1.366 1_556 S
C958 C957 1.374 . S
C959 C956 1.499 . S
C959 C960 1.374 . S
C959 C961 1.391 . S
C960 H933 0.950 . S
C960 C946 1.377 . S
C960 C959 1.374 . S
C961 C945 1.377 . S
C961 C959 1.391 . S
C961 C962 1.524 1_554 S
C962 C961 1.524 1_556 S
C962 C963 1.397 . S
C962 C967 1.363 1_556 S
C963 H934 0.950 . S
C963 C962 1.397 . S
C963 C964 1.334 . S
C964 H935 0.950 . S
C964 C963 1.334 . S
C964 C965 1.287 . S
C965 C964 1.287 . S
C965 C966 1.524 1_556 S
C965 H968 0.999 . S
C966 H936 0.950 . S
C966 C965 1.524 1_554 S
C966 C967 1.415 . S
C967 H937 0.950 . S
C967 C962 1.363 1_554 S
C967 C966 1.415 . S
H968 C965 0.999 . S
H969 C950 0.913 . S
H970 C988 0.951 . S
H971 C990 0.951 . S
H972 C992 0.950 . S
H973 C993 0.950 . S
H974 C995 0.950 . S
H975 C998 0.950 . S
H976 C999 0.950 . S
H977 C1001 0.950 . S
H978 C1002 0.950 . S
H979 C1003 0.951 . S
H980 C1005 0.951 . S
H981 C1007 0.950 . S
H982 C1008 0.950 . S
H983 C1010 0.950 . S
H984 C1013 0.950 . S
H985 C1014 0.950 . S
H986 C1016 0.950 . S
H987 C1017 0.950 . S
C988 H970 0.951 . S
C988 C989 1.366 . S
C988 C990 1.388 . S
C989 C988 1.366 . S
C989 C993 1.385 1_554 S
C990 H971 0.951 . S
C990 C988 1.388 . S
C990 C991 1.366 . S
C991 C990 1.366 . S
C991 C992 1.414 1_554 S
C991 C994 1.499 . S
C992 H972 0.950 . S
C992 C991 1.414 1_556 S
C992 C993 1.374 . S
C993 H973 0.950 . S
C993 C989 1.385 1_556 S
C993 C992 1.374 . S
C994 C991 1.499 . S
C994 C995 1.373 1_554 S
C994 C996 1.389 . S
C995 H974 0.950 . S
C995 C994 1.373 1_556 S
C995 C1011 1.377 . S
C996 C994 1.389 . S
C996 C997 1.524 . S
C996 C1010 1.377 . S
C997 C996 1.524 . S
C997 C998 1.397 . S
C997 C1002 1.363 . S
C998 H975 0.950 . S
C998 C997 1.397 . S
C998 C999 1.334 . S
C999 H976 0.950 . S
C999 C998 1.334 . S
C999 C1000 1.287 . S
C1000 C999 1.287 . S
C1000 C1001 1.524 . S
C1000 H1019 0.913 . S
C1001 H977 0.950 . S
C1001 C1000 1.524 . S
C1001 C1002 1.415 . S
C1002 H978 0.950 . S
C1002 C997 1.363 . S
C1002 C1001 1.415 . S
C1003 H979 0.951 . S
C1003 C1004 1.350 1_556 S
C1003 C1005 1.388 . S
C1004 C1003 1.350 1_554 S
C1004 C1008 1.403 . S
C1005 H980 0.951 . S
C1005 C1003 1.388 . S
C1005 C1006 1.351 1_556 S
C1006 C1005 1.351 1_554 S
C1006 C1007 1.427 . S
C1006 C1009 1.502 . S
C1007 H981 0.950 . S
C1007 C1006 1.427 . S
C1007 C1008 1.374 . S
C1008 H982 0.950 . S
C1008 C1004 1.403 . S
C1008 C1007 1.374 . S
C1009 C1006 1.502 . S
C1009 C1010 1.373 . S
C1009 C1011 1.389 1_554 S
C1010 H983 0.950 . S
C1010 C996 1.377 . S
C1010 C1009 1.373 . S
C1011 C995 1.377 . S
C1011 C1009 1.389 1_556 S
C1011 C1012 1.524 . S
C1012 C1011 1.524 . S
C1012 C1013 1.397 . S
C1012 C1017 1.363 . S
C1013 H984 0.950 . S
C1013 C1012 1.397 . S
C1013 C1014 1.334 . S
C1014 H985 0.950 . S
C1014 C1013 1.334 . S
C1014 C1015 1.287 . S
C1015 C1014 1.287 . S
C1015 C1016 1.524 . S
C1015 H1018 0.999 . S
C1016 H986 0.950 . S
C1016 C1015 1.524 . S
C1016 C1017 1.415 . S
C1017 H987 0.950 . S
C1017 C1012 1.363 . S
C1017 C1016 1.415 . S
H1018 C1015 0.999 . S
H1019 C1000 0.913 . S
H1020 C1038 0.951 . S
H1021 C1040 0.951 . S
H1022 C1042 0.950 . S
H1023 C1043 0.950 . S
H1024 C1045 0.950 . S
H1025 C1048 0.950 . S
H1026 C1049 0.950 . S
H1027 C1051 0.950 . S
H1028 C1052 0.950 . S
H1029 C1053 0.951 . S
H1030 C1055 0.951 . S
H1031 C1057 0.950 . S
H1032 C1058 0.950 . S
H1033 C1060 0.950 . S
H1034 C1063 0.950 . S
H1035 C1064 0.950 . S
H1036 C1066 0.950 . S
H1037 C1067 0.950 . S
C1038 H1020 0.951 . S
C1038 C1039 1.366 . S
C1038 C1040 1.388 . S
C1039 C1038 1.366 . S
C1039 C1043 1.385 . S
C1040 H1021 0.951 . S
C1040 C1038 1.388 . S
C1040 C1041 1.366 . S
C1041 C1040 1.366 . S
C1041 C1042 1.414 . S
C1041 C1044 1.499 . S
C1042 H1022 0.950 . S
C1042 C1041 1.414 . S
C1042 C1043 1.374 . S
C1043 H1023 0.950 . S
C1043 C1039 1.385 . S
C1043 C1042 1.374 . S
C1044 C1041 1.499 . S
C1044 C1045 1.373 . S
C1044 C1046 1.389 . S
C1045 H1024 0.950 . S
C1045 C1044 1.373 . S
C1045 C1061 1.377 . S
C1046 C1044 1.389 . S
C1046 C1047 1.524 . S
C1046 C1060 1.377 . S
C1047 C1046 1.524 . S
C1047 C1048 1.397 . S
C1047 C1052 1.363 . S
C1048 H1025 0.950 . S
C1048 C1047 1.397 . S
C1048 C1049 1.334 . S
C1049 H1026 0.950 . S
C1049 C1048 1.334 . S
C1049 C1050 1.287 . S
C1050 C1049 1.287 . S
C1050 C1051 1.524 . S
C1050 H1069 0.913 . S
C1051 H1027 0.950 . S
C1051 C1050 1.524 . S
C1051 C1052 1.415 . S
C1052 H1028 0.950 . S
C1052 C1047 1.363 . S
C1052 C1051 1.415 . S
C1053 H1029 0.951 . S
C1053 C1054 1.366 . S
C1053 C1055 1.388 . S
C1054 C1053 1.366 . S
C1054 C1058 1.385 . S
C1055 H1030 0.951 . S
C1055 C1053 1.388 . S
C1055 C1056 1.366 . S
C1056 C1055 1.366 . S
C1056 C1057 1.414 . S
C1056 C1059 1.499 . S
C1057 H1031 0.950 . S
C1057 C1056 1.414 . S
C1057 C1058 1.374 . S
C1058 H1032 0.950 . S
C1058 C1054 1.385 . S
C1058 C1057 1.374 . S
C1059 C1056 1.499 . S
C1059 C1060 1.373 . S
C1059 C1061 1.389 . S
C1060 H1033 0.950 . S
C1060 C1046 1.377 . S
C1060 C1059 1.373 . S
C1061 C1045 1.377 . S
C1061 C1059 1.389 . S
C1061 C1062 1.524 . S
C1062 C1061 1.524 . S
C1062 C1063 1.397 . S
C1062 C1067 1.363 . S
C1063 H1034 0.950 . S
C1063 C1062 1.397 . S
C1063 C1064 1.334 . S
C1064 H1035 0.950 . S
C1064 C1063 1.334 . S
C1064 C1065 1.287 . S
C1065 C1064 1.287 . S
C1065 C1066 1.524 . S
C1065 H1068 0.999 . S
C1066 H1036 0.950 . S
C1066 C1065 1.524 . S
C1066 C1067 1.415 . S
C1067 H1037 0.950 . S
C1067 C1062 1.363 . S
C1067 C1066 1.415 . S
H1068 C1065 0.999 . S
H1069 C1050 0.913 . S
H1070 C1088 0.951 . S
H1071 C1090 0.951 . S
H1072 C1092 0.950 . S
H1073 C1093 0.950 . S
H1074 C1095 0.950 . S
H1075 C1098 0.950 . S
H1076 C1099 0.950 . S
H1077 C1101 0.950 . S
H1078 C1102 0.950 . S
H1079 C1103 0.951 . S
H1080 C1105 0.951 . S
H1081 C1107 0.950 . S
H1082 C1108 0.950 . S
H1083 C1110 0.950 . S
H1084 C1113 0.950 . S
H1085 C1114 0.950 . S
H1086 C1116 0.950 . S
H1087 C1117 0.950 . S
C1088 H1070 0.951 . S
C1088 C1089 1.366 . S
C1088 C1090 1.388 . S
C1089 C1088 1.366 . S
C1089 C1093 1.385 . S
C1090 H1071 0.951 . S
C1090 C1088 1.388 . S
C1090 C1091 1.366 . S
C1091 C1090 1.366 . S
C1091 C1092 1.414 . S
C1091 C1094 1.499 . S
C1092 H1072 0.950 . S
C1092 C1091 1.414 . S
C1092 C1093 1.374 . S
C1093 H1073 0.950 . S
C1093 C1089 1.385 . S
C1093 C1092 1.374 . S
C1094 C1091 1.499 . S
C1094 C1095 1.373 . S
C1094 C1096 1.389 . S
C1095 H1074 0.950 . S
C1095 C1094 1.373 . S
C1095 C1111 1.377 . S
C1096 C1094 1.389 . S
C1096 C1097 1.524 . S
C1096 C1110 1.377 . S
C1097 C1096 1.524 . S
C1097 C1098 1.397 . S
C1097 C1102 1.363 . S
C1098 H1075 0.950 . S
C1098 C1097 1.397 . S
C1098 C1099 1.334 . S
C1099 H1076 0.950 . S
C1099 C1098 1.334 . S
C1099 C1100 1.287 . S
C1100 C1099 1.287 . S
C1100 C1101 1.524 . S
C1100 H1119 0.913 . S
C1101 H1077 0.950 . S
C1101 C1100 1.524 . S
C1101 C1102 1.415 . S
C1102 H1078 0.950 . S
C1102 C1097 1.363 . S
C1102 C1101 1.415 . S
C1103 H1079 0.951 . S
C1103 C1104 1.366 . S
C1103 C1105 1.388 . S
C1104 C1103 1.366 . S
C1104 C1108 1.385 . S
C1105 H1080 0.951 . S
C1105 C1103 1.388 . S
C1105 C1106 1.366 . S
C1106 C1105 1.366 . S
C1106 C1107 1.414 . S
C1106 C1109 1.499 . S
C1107 H1081 0.950 . S
C1107 C1106 1.414 . S
C1107 C1108 1.374 . S
C1108 H1082 0.950 . S
C1108 C1104 1.385 . S
C1108 C1107 1.374 . S
C1109 C1106 1.499 . S
C1109 C1110 1.373 . S
C1109 C1111 1.389 . S
C1110 H1083 0.950 . S
C1110 C1096 1.377 . S
C1110 C1109 1.373 . S
C1111 C1095 1.377 . S
C1111 C1109 1.389 . S
C1111 C1112 1.524 . S
C1112 C1111 1.524 . S
C1112 C1113 1.397 . S
C1112 C1117 1.363 . S
C1113 H1084 0.950 . S
C1113 C1112 1.397 . S
C1113 C1114 1.334 . S
C1114 H1085 0.950 . S
C1114 C1113 1.334 . S
C1114 C1115 1.287 . S
C1115 C1114 1.287 . S
C1115 C1116 1.524 . S
C1115 H1118 0.999 . S
C1116 H1086 0.950 . S
C1116 C1115 1.524 . S
C1116 C1117 1.415 . S
C1117 H1087 0.950 . S
C1117 C1112 1.363 . S
C1117 C1116 1.415 . S
H1118 C1115 0.999 . S
H1119 C1100 0.913 . S
H1120 C1138 0.951 . S
H1121 C1140 0.951 . S
H1122 C1142 0.950 . S
H1123 C1143 0.950 . S
H1124 C1145 0.950 . S
H1125 C1148 0.950 . S
H1126 C1149 0.950 . S
H1127 C1151 0.950 . S
H1128 C1152 0.950 . S
H1129 C1153 0.951 . S
H1130 C1155 0.951 . S
H1131 C1157 0.950 . S
H1132 C1158 0.950 . S
H1133 C1160 0.950 . S
H1134 C1163 0.950 . S
H1135 C1164 0.950 . S
H1136 C1166 0.950 . S
H1137 C1167 0.950 . S
C1138 H1120 0.951 . S
C1138 C1139 1.366 . S
C1138 C1140 1.388 . S
C1139 C1138 1.366 . S
C1139 C1143 1.385 . S
C1140 H1121 0.951 . S
C1140 C1138 1.388 . S
C1140 C1141 1.366 . S
C1141 C1140 1.366 . S
C1141 C1142 1.414 . S
C1141 C1144 1.499 . S
C1142 H1122 0.950 . S
C1142 C1141 1.414 . S
C1142 C1143 1.374 . S
C1143 H1123 0.950 . S
C1143 C1139 1.385 . S
C1143 C1142 1.374 . S
C1144 C1141 1.499 . S
C1144 C1145 1.373 . S
C1144 C1146 1.389 1_455 S
C1145 H1124 0.950 . S
C1145 C1144 1.373 . S
C1145 C1161 1.377 . S
C1146 C1144 1.389 1_655 S
C1146 C1147 1.524 . S
C1146 C1160 1.377 . S
C1147 C1146 1.524 . S
C1147 C1148 1.397 . S
C1147 C1152 1.363 . S
C1148 H1125 0.950 . S
C1148 C1147 1.397 . S
C1148 C1149 1.334 . S
C1149 H1126 0.950 . S
C1149 C1148 1.334 . S
C1149 C1150 1.287 . S
C1150 C1149 1.287 . S
C1150 C1151 1.524 . S
C1150 H1169 0.913 . S
C1151 H1127 0.950 . S
C1151 C1150 1.524 . S
C1151 C1152 1.415 . S
C1152 H1128 0.950 . S
C1152 C1147 1.363 . S
C1152 C1151 1.415 . S
C1153 H1129 0.951 . S
C1153 C1154 1.366 . S
C1153 C1155 1.388 . S
C1154 C1153 1.366 . S
C1154 C1158 1.385 . S
C1155 H1130 0.951 . S
C1155 C1153 1.388 . S
C1155 C1156 1.366 . S
C1156 C1155 1.366 . S
C1156 C1157 1.414 . S
C1156 C1159 1.499 1_655 S
C1157 H1131 0.950 . S
C1157 C1156 1.414 . S
C1157 C1158 1.374 . S
C1158 H1132 0.950 . S
C1158 C1154 1.385 . S
C1158 C1157 1.374 . S
C1159 C1156 1.499 1_455 S
C1159 C1160 1.373 1_455 S
C1159 C1161 1.389 . S
C1160 H1133 0.950 . S
C1160 C1146 1.377 . S
C1160 C1159 1.373 1_655 S
C1161 C1145 1.377 . S
C1161 C1159 1.389 . S
C1161 C1162 1.524 . S
C1162 C1161 1.524 . S
C1162 C1163 1.397 . S
C1162 C1167 1.363 . S
C1163 H1134 0.950 . S
C1163 C1162 1.397 . S
C1163 C1164 1.334 . S
C1164 H1135 0.950 . S
C1164 C1163 1.334 . S
C1164 C1165 1.287 . S
C1165 C1164 1.287 . S
C1165 C1166 1.524 . S
C1165 H1168 0.999 . S
C1166 H1136 0.950 . S
C1166 C1165 1.524 . S
C1166 C1167 1.415 . S
C1167 H1137 0.950 . S
C1167 C1162 1.363 . S
C1167 C1166 1.415 . S
H1168 C1165 0.999 . S
H1169 C1150 0.913 . S
H1170 C1188 0.951 . S
H1171 C1190 0.951 . S
H1172 C1192 0.950 1_455 S
H1173 C1193 0.950 1_455 S
H1174 C1195 0.950 . S
H1175 C1198 0.950 . S
H1176 C1199 0.950 . S
H1177 C1201 0.950 . S
H1178 C1202 0.950 . S
H1179 C1203 0.951 . S
H1180 C1205 0.951 . S
H1181 C1207 0.950 . S
H1182 C1208 0.950 . S
H1183 C1210 0.950 . S
H1184 C1213 0.950 . S
H1185 C1214 0.950 . S
H1186 C1216 0.950 . S
H1187 C1217 0.950 . S
C1188 H1170 0.951 . S
C1188 C1189 1.366 . S
C1188 C1190 1.388 . S
C1189 C1188 1.366 . S
C1189 C1193 1.385 . S
C1190 H1171 0.951 . S
C1190 C1188 1.388 . S
C1190 C1191 1.366 . S
C1191 C1190 1.366 . S
C1191 C1192 1.414 . S
C1191 C1194 1.499 . S
C1192 H1172 0.950 1_655 S
C1192 C1191 1.414 . S
C1192 C1193 1.374 . S
C1193 H1173 0.950 1_655 S
C1193 C1189 1.385 . S
C1193 C1192 1.374 . S
C1194 C1191 1.499 . S
C1194 C1195 1.373 1_655 S
C1194 C1196 1.389 . S
C1195 H1174 0.950 . S
C1195 C1194 1.373 1_455 S
C1195 C1211 1.377 . S
C1196 C1194 1.389 . S
C1196 C1197 1.524 . S
C1196 C1210 1.377 . S
C1197 C1196 1.524 . S
C1197 C1198 1.397 . S
C1197 C1202 1.363 . S
C1198 H1175 0.950 . S
C1198 C1197 1.397 . S
C1198 C1199 1.334 . S
C1199 H1176 0.950 . S
C1199 C1198 1.334 . S
C1199 C1200 1.287 . S
C1200 C1199 1.287 . S
C1200 C1201 1.524 . S
C1200 H1219 0.913 . S
C1201 H1177 0.950 . S
C1201 C1200 1.524 . S
C1201 C1202 1.415 . S
C1202 H1178 0.950 . S
C1202 C1197 1.363 . S
C1202 C1201 1.415 . S
C1203 H1179 0.951 . S
C1203 C1204 1.366 . S
C1203 C1205 1.388 . S
C1204 C1203 1.366 . S
C1204 C1208 1.385 1_455 S
C1205 H1180 0.951 . S
C1205 C1203 1.388 . S
C1205 C1206 1.366 . S
C1206 C1205 1.366 . S
C1206 C1207 1.414 1_455 S
C1206 C1209 1.499 1_455 S
C1207 H1181 0.950 . S
C1207 C1206 1.414 1_655 S
C1207 C1208 1.374 . S
C1208 H1182 0.950 . S
C1208 C1204 1.385 1_655 S
C1208 C1207 1.374 . S
C1209 C1206 1.499 1_655 S
C1209 C1210 1.373 . S
C1209 C1211 1.389 1_655 S
C1210 H1183 0.950 . S
C1210 C1196 1.377 . S
C1210 C1209 1.373 . S
C1211 C1195 1.377 . S
C1211 C1209 1.389 1_455 S
C1211 C1212 1.524 . S
C1212 C1211 1.524 . S
C1212 C1213 1.397 . S
C1212 C1217 1.363 . S
C1213 H1184 0.950 . S
C1213 C1212 1.397 . S
C1213 C1214 1.334 . S
C1214 H1185 0.950 . S
C1214 C1213 1.334 . S
C1214 C1215 1.287 . S
C1215 C1214 1.287 . S
C1215 C1216 1.524 . S
C1215 H1218 0.999 . S
C1216 H1186 0.950 . S
C1216 C1215 1.524 . S
C1216 C1217 1.415 . S
C1217 H1187 0.950 . S
C1217 C1212 1.363 . S
C1217 C1216 1.415 . S
H1218 C1215 0.999 . S
H1219 C1200 0.913 . S
H1220 C1238 0.951 . S
H1221 C1240 0.951 1_455 S
H1222 C1242 0.950 . S
H1223 C1243 0.950 . S
H1224 C1245 0.950 . S
H1225 C1248 0.950 . S
H1226 C1249 0.950 . S
H1227 C1251 0.950 . S
H1228 C1252 0.950 1_455 S
H1229 C1253 0.951 1_655 S
H1230 C1255 0.951 . S
H1231 C1257 0.950 . S
H1232 C1258 0.950 . S
H1233 C1260 0.950 . S
H1234 C1263 0.950 . S
H1235 C1264 0.950 . S
H1236 C1266 0.950 . S
H1237 C1267 0.950 1_655 S
C1238 H1220 0.951 . S
C1238 C1239 1.366 . S
C1238 C1240 1.388 . S
C1239 C1238 1.366 . S
C1239 C1243 1.385 . S
C1240 H1221 0.951 1_655 S
C1240 C1238 1.388 . S
C1240 C1241 1.366 . S
C1241 C1240 1.366 . S
C1241 C1242 1.414 . S
C1241 C1244 1.499 . S
C1242 H1222 0.950 . S
C1242 C1241 1.414 . S
C1242 C1243 1.374 . S
C1243 H1223 0.950 . S
C1243 C1239 1.385 . S
C1243 C1242 1.374 . S
C1244 C1241 1.499 . S
C1244 C1245 1.373 . S
C1244 C1246 1.389 . S
C1245 H1224 0.950 . S
C1245 C1244 1.373 . S
C1245 C1261 1.377 1_655 S
C1246 C1244 1.389 . S
C1246 C1247 1.524 . S
C1246 C1260 1.377 . S
C1247 C1246 1.524 . S
C1247 C1248 1.397 . S
C1247 C1252 1.363 . S
C1248 H1225 0.950 . S
C1248 C1247 1.397 . S
C1248 C1249 1.334 . S
C1249 H1226 0.950 . S
C1249 C1248 1.334 . S
C1249 C1250 1.287 . S
C1250 C1249 1.287 . S
C1250 C1251 1.524 . S
C1250 H1269 0.913 . S
C1251 H1227 0.950 . S
C1251 C1250 1.524 . S
C1251 C1252 1.415 . S
C1252 H1228 0.950 1_655 S
C1252 C1247 1.363 . S
C1252 C1251 1.415 . S
C1253 H1229 0.951 1_455 S
C1253 C1254 1.366 . S
C1253 C1255 1.388 1_455 S
C1254 C1253 1.366 . S
C1254 C1258 1.385 . S
C1255 H1230 0.951 . S
C1255 C1253 1.388 1_655 S
C1255 C1256 1.366 1_655 S
C1256 C1255 1.366 1_455 S
C1256 C1257 1.414 . S
C1256 C1259 1.499 . S
C1257 H1231 0.950 . S
C1257 C1256 1.414 . S
C1257 C1258 1.374 . S
C1258 H1232 0.950 . S
C1258 C1254 1.385 . S
C1258 C1257 1.374 . S
C1259 C1256 1.499 . S
C1259 C1260 1.373 1_455 S
C1259 C1261 1.389 . S
C1260 H1233 0.950 . S
C1260 C1246 1.377 . S
C1260 C1259 1.373 1_655 S
C1261 C1245 1.377 1_455 S
C1261 C1259 1.389 . S
C1261 C1262 1.524 . S
C1262 C1261 1.524 . S
C1262 C1263 1.397 . S
C1262 C1267 1.363 . S
C1263 H1234 0.950 . S
C1263 C1262 1.397 . S
C1263 C1264 1.334 . S
C1264 H1235 0.950 . S
C1264 C1263 1.334 . S
C1264 C1265 1.287 . S
C1265 C1264 1.287 . S
C1265 C1266 1.524 . S
C1265 H1268 0.999 . S
C1266 H1236 0.950 . S
C1266 C1265 1.524 . S
C1266 C1267 1.415 . S
C1267 H1237 0.950 1_455 S
C1267 C1262 1.363 . S
C1267 C1266 1.415 . S
H1268 C1265 0.999 . S
H1269 C1250 0.913 . S
H1270 C1288 0.951 . S
H1271 C1290 0.951 . S
H1272 C1292 0.948 1_455 S
H1273 C1293 0.950 . S
H1274 C1295 0.950 . S
H1275 C1298 0.950 . S
H1276 C1299 0.950 . S
H1277 C1301 0.950 . S
H1278 C1302 0.950 . S
H1279 C1303 0.951 . S
H1280 C1305 0.951 . S
H1281 C1307 0.950 . S
H1282 C1308 0.950 . S
H1283 C1310 0.950 . S
H1284 C1313 0.950 . S
H1285 C1314 0.950 . S
H1286 C1316 0.950 . S
H1287 C1317 0.950 . S
C1288 H1270 0.951 . S
C1288 C1289 1.366 . S
C1288 C1290 1.388 . S
C1289 C1288 1.366 . S
C1289 C1293 1.385 . S
C1290 H1271 0.951 . S
C1290 C1288 1.388 . S
C1290 C1291 1.366 . S
C1291 C1290 1.366 . S
C1291 C1292 1.414 . S
C1291 C1294 1.499 . S
C1292 H1272 0.948 1_655 S
C1292 C1291 1.414 . S
C1292 C1293 1.374 . S
C1293 H1273 0.950 . S
C1293 C1289 1.385 . S
C1293 C1292 1.374 . S
C1294 C1291 1.499 . S
C1294 C1295 1.373 . S
C1294 C1296 1.389 1_655 S
C1295 H1274 0.950 . S
C1295 C1294 1.373 . S
C1295 C1311 1.377 . S
C1296 C1294 1.389 1_455 S
C1296 C1297 1.524 . S
C1296 C1310 1.377 . S
C1297 C1296 1.524 . S
C1297 C1298 1.397 . S
C1297 C1302 1.363 . S
C1298 H1275 0.950 . S
C1298 C1297 1.397 . S
C1298 C1299 1.334 . S
C1299 H1276 0.950 . S
C1299 C1298 1.334 . S
C1299 C1300 1.287 . S
C1300 C1299 1.287 . S
C1300 C1301 1.524 . S
C1300 H1319 0.913 . S
C1301 H1277 0.950 . S
C1301 C1300 1.524 . S
C1301 C1302 1.415 . S
C1302 H1278 0.950 . S
C1302 C1297 1.363 . S
C1302 C1301 1.415 . S
C1303 H1279 0.951 . S
C1303 C1304 1.366 . S
C1303 C1305 1.388 . S
C1304 C1303 1.366 . S
C1304 C1308 1.385 . S
C1305 H1280 0.951 . S
C1305 C1303 1.388 . S
C1305 C1306 1.366 . S
C1306 C1305 1.366 . S
C1306 C1307 1.414 . S
C1306 C1309 1.499 . S
C1307 H1281 0.950 . S
C1307 C1306 1.414 . S
C1307 C1308 1.374 . S
C1308 H1282 0.950 . S
C1308 C1304 1.385 . S
C1308 C1307 1.374 . S
C1309 C1306 1.499 . S
C1309 C1310 1.373 . S
C1309 C1311 1.389 1_455 S
C1310 H1283 0.950 . S
C1310 C1296 1.377 . S
C1310 C1309 1.373 . S
C1311 C1295 1.377 . S
C1311 C1309 1.389 1_655 S
C1311 C1312 1.524 . S
C1312 C1311 1.524 . S
C1312 C1313 1.397 . S
C1312 C1317 1.363 . S
C1313 H1284 0.950 . S
C1313 C1312 1.397 . S
C1313 C1314 1.334 . S
C1314 H1285 0.950 . S
C1314 C1313 1.334 . S
C1314 C1315 1.287 . S
C1315 C1314 1.287 . S
C1315 C1316 1.524 . S
C1315 H1318 0.999 . S
C1316 H1286 0.950 . S
C1316 C1315 1.524 . S
C1316 C1317 1.415 . S
C1317 H1287 0.950 . S
C1317 C1312 1.363 . S
C1317 C1316 1.415 . S
H1318 C1315 0.999 . S
H1319 C1300 0.913 . S
H1320 C1338 0.951 . S
H1321 C1340 0.951 . S
H1322 C1342 0.950 . S
H1323 C1343 0.950 . S
H1324 C1345 0.950 . S
H1325 C1348 0.950 . S
H1326 C1349 0.950 . S
H1327 C1351 0.950 . S
H1328 C1352 0.950 . S
H1329 C1353 0.951 . S
H1330 C1355 0.951 . S
H1331 C1357 0.950 . S
H1332 C1358 0.950 . S
H1333 C1360 0.950 . S
H1334 C1363 0.950 . S
H1335 C1364 0.950 . S
H1336 C1366 0.950 . S
H1337 C1367 0.950 . S
C1338 H1320 0.951 . S
C1338 C1339 1.366 . S
C1338 C1340 1.388 . S
C1339 C1338 1.366 . S
C1339 C1343 1.385 . S
C1340 H1321 0.951 . S
C1340 C1338 1.388 . S
C1340 C1341 1.366 . S
C1341 C1340 1.366 . S
C1341 C1342 1.414 . S
C1341 C1344 1.499 . S
C1342 H1322 0.950 . S
C1342 C1341 1.414 . S
C1342 C1343 1.374 . S
C1343 H1323 0.950 . S
C1343 C1339 1.385 . S
C1343 C1342 1.374 . S
C1344 C1341 1.499 . S
C1344 C1345 1.373 . S
C1344 C1346 1.389 . S
C1345 H1324 0.950 . S
C1345 C1344 1.373 . S
C1345 C1361 1.377 . S
C1346 C1344 1.389 . S
C1346 C1347 1.524 . S
C1346 C1360 1.377 . S
C1347 C1346 1.524 . S
C1347 C1348 1.397 . S
C1347 C1352 1.363 . S
C1348 H1325 0.950 . S
C1348 C1347 1.397 . S
C1348 C1349 1.334 . S
C1349 H1326 0.950 . S
C1349 C1348 1.334 . S
C1349 C1350 1.287 . S
C1350 C1349 1.287 . S
C1350 C1351 1.524 . S
C1350 H1369 0.913 . S
C1351 H1327 0.950 . S
C1351 C1350 1.524 . S
C1351 C1352 1.415 . S
C1352 H1328 0.950 . S
C1352 C1347 1.363 . S
C1352 C1351 1.415 . S
C1353 H1329 0.951 . S
C1353 C1354 1.366 . S
C1353 C1355 1.388 . S
C1354 C1353 1.366 . S
C1354 C1358 1.385 . S
C1355 H1330 0.951 . S
C1355 C1353 1.388 . S
C1355 C1356 1.366 . S
C1356 C1355 1.366 . S
C1356 C1357 1.414 . S
C1356 C1359 1.499 . S
C1357 H1331 0.950 . S
C1357 C1356 1.414 . S
C1357 C1358 1.374 . S
C1358 H1332 0.950 . S
C1358 C1354 1.385 . S
C1358 C1357 1.374 . S
C1359 C1356 1.499 . S
C1359 C1360 1.373 . S
C1359 C1361 1.389 . S
C1360 H1333 0.950 . S
C1360 C1346 1.377 . S
C1360 C1359 1.373 . S
C1361 C1345 1.377 . S
C1361 C1359 1.389 . S
C1361 C1362 1.524 . S
C1362 C1361 1.524 . S
C1362 C1363 1.397 . S
C1362 C1367 1.363 . S
C1363 H1334 0.950 . S
C1363 C1362 1.397 . S
C1363 C1364 1.334 . S
C1364 H1335 0.950 . S
C1364 C1363 1.334 . S
C1364 C1365 1.287 . S
C1365 C1364 1.287 . S
C1365 C1366 1.524 . S
C1365 H1368 0.999 . S
C1366 H1336 0.950 . S
C1366 C1365 1.524 . S
C1366 C1367 1.415 . S
C1367 H1337 0.950 . S
C1367 C1362 1.363 . S
C1367 C1366 1.415 . S
H1368 C1365 0.999 . S
H1369 C1350 0.913 . S
H1370 C1388 0.951 . S
H1371 C1390 0.951 . S
H1372 C1392 0.950 . S
H1373 C1393 0.950 . S
H1374 C1395 0.950 . S
H1375 C1398 0.950 . S
H1376 C1399 0.950 . S
H1377 C1401 0.950 . S
H1378 C1402 0.950 . S
H1379 C1403 0.951 . S
H1380 C1405 0.951 . S
H1381 C1407 0.950 . S
H1382 C1408 0.950 . S
H1383 C1410 0.950 . S
H1384 C1413 0.950 . S
H1385 C1414 0.950 . S
H1386 C1416 0.950 . S
H1387 C1417 0.950 . S
C1388 H1370 0.951 . S
C1388 C1389 1.366 . S
C1388 C1390 1.388 . S
C1389 C1388 1.366 . S
C1389 C1393 1.385 . S
C1390 H1371 0.951 . S
C1390 C1388 1.388 . S
C1390 C1391 1.366 . S
C1391 C1390 1.366 . S
C1391 C1392 1.414 . S
C1391 C1394 1.499 . S
C1392 H1372 0.950 . S
C1392 C1391 1.414 . S
C1392 C1393 1.374 . S
C1393 H1373 0.950 . S
C1393 C1389 1.385 . S
C1393 C1392 1.374 . S
C1394 C1391 1.499 . S
C1394 C1395 1.373 . S
C1394 C1396 1.389 . S
C1395 H1374 0.950 . S
C1395 C1394 1.373 . S
C1395 C1411 1.377 . S
C1396 C1394 1.389 . S
C1396 C1397 1.524 . S
C1396 C1410 1.377 . S
C1397 C1396 1.524 . S
C1397 C1398 1.397 . S
C1397 C1402 1.363 . S
C1398 H1375 0.950 . S
C1398 C1397 1.397 . S
C1398 C1399 1.334 . S
C1399 H1376 0.950 . S
C1399 C1398 1.334 . S
C1399 C1400 1.287 . S
C1400 C1399 1.287 . S
C1400 C1401 1.524 . S
C1400 H1419 0.913 . S
C1401 H1377 0.950 . S
C1401 C1400 1.524 . S
C1401 C1402 1.415 . S
C1402 H1378 0.950 . S
C1402 C1397 1.363 . S
C1402 C1401 1.415 . S
C1403 H1379 0.951 . S
C1403 C1404 1.366 . S
C1403 C1405 1.388 . S
C1404 C1403 1.366 . S
C1404 C1408 1.385 . S
C1405 H1380 0.951 . S
C1405 C1403 1.388 . S
C1405 C1406 1.366 . S
C1406 C1405 1.366 . S
C1406 C1407 1.414 . S
C1406 C1409 1.499 . S
C1407 H1381 0.950 . S
C1407 C1406 1.414 . S
C1407 C1408 1.374 . S
C1408 H1382 0.950 . S
C1408 C1404 1.385 . S
C1408 C1407 1.374 . S
C1409 C1406 1.499 . S
C1409 C1410 1.373 . S
C1409 C1411 1.389 . S
C1410 H1383 0.950 . S
C1410 C1396 1.377 . S
C1410 C1409 1.373 . S
C1411 C1395 1.377 . S
C1411 C1409 1.389 . S
C1411 C1412 1.524 . S
C1412 C1411 1.524 . S
C1412 C1413 1.397 . S
C1412 C1417 1.363 . S
C1413 H1384 0.950 . S
C1413 C1412 1.397 . S
C1413 C1414 1.334 . S
C1414 H1385 0.950 . S
C1414 C1413 1.334 . S
C1414 C1415 1.287 . S
C1415 C1414 1.287 . S
C1415 C1416 1.524 . S
C1415 H1418 0.999 . S
C1416 H1386 0.950 . S
C1416 C1415 1.524 . S
C1416 C1417 1.415 . S
C1417 H1387 0.950 . S
C1417 C1412 1.363 . S
C1417 C1416 1.415 . S
H1418 C1415 0.999 . S
H1419 C1400 0.913 . S
H1420 C1438 0.951 . S
H1421 C1440 0.951 . S
H1422 C1442 0.950 . S
H1423 C1443 0.950 . S
H1424 C1445 0.950 . S
H1425 C1448 0.950 . S
H1426 C1449 0.950 . S
H1427 C1451 0.950 . S
H1428 C1452 0.950 . S
H1429 C1453 0.951 . S
H1430 C1455 0.951 . S
H1431 C1457 0.950 . S
H1432 C1458 0.950 . S
H1433 C1460 0.950 . S
H1434 C1463 0.950 . S
H1435 C1464 0.950 . S
H1436 C1466 0.950 . S
H1437 C1467 0.950 . S
C1438 H1420 0.951 . S
C1438 C1439 1.366 . S
C1438 C1440 1.388 . S
C1439 C1438 1.366 . S
C1439 C1443 1.385 . S
C1440 H1421 0.951 . S
C1440 C1438 1.388 . S
C1440 C1441 1.366 . S
C1441 C1440 1.366 . S
C1441 C1442 1.414 . S
C1441 C1444 1.499 . S
C1442 H1422 0.950 . S
C1442 C1441 1.414 . S
C1442 C1443 1.374 . S
C1443 H1423 0.950 . S
C1443 C1439 1.385 . S
C1443 C1442 1.374 . S
C1444 C1441 1.499 . S
C1444 C1445 1.373 . S
C1444 C1446 1.389 . S
C1445 H1424 0.950 . S
C1445 C1444 1.373 . S
C1445 C1461 1.377 . S
C1446 C1444 1.389 . S
C1446 C1447 1.524 . S
C1446 C1460 1.377 . S
C1447 C1446 1.524 . S
C1447 C1448 1.397 . S
C1447 C1452 1.363 . S
C1448 H1425 0.950 . S
C1448 C1447 1.397 . S
C1448 C1449 1.334 . S
C1449 H1426 0.950 . S
C1449 C1448 1.334 . S
C1449 C1450 1.287 . S
C1450 C1449 1.287 . S
C1450 C1451 1.524 . S
C1450 H1469 0.913 . S
C1451 H1427 0.950 . S
C1451 C1450 1.524 . S
C1451 C1452 1.415 . S
C1452 H1428 0.950 . S
C1452 C1447 1.363 . S
C1452 C1451 1.415 . S
C1453 H1429 0.951 . S
C1453 C1454 1.366 . S
C1453 C1455 1.388 . S
C1454 C1453 1.366 . S
C1454 C1458 1.385 . S
C1455 H1430 0.951 . S
C1455 C1453 1.388 . S
C1455 C1456 1.366 . S
C1456 C1455 1.366 . S
C1456 C1457 1.414 . S
C1456 C1459 1.499 . S
C1457 H1431 0.950 . S
C1457 C1456 1.414 . S
C1457 C1458 1.374 . S
C1458 H1432 0.950 . S
C1458 C1454 1.385 . S
C1458 C1457 1.374 . S
C1459 C1456 1.499 . S
C1459 C1460 1.373 . S
C1459 C1461 1.389 . S
C1460 H1433 0.950 . S
C1460 C1446 1.377 . S
C1460 C1459 1.373 . S
C1461 C1445 1.377 . S
C1461 C1459 1.389 . S
C1461 C1462 1.524 . S
C1462 C1461 1.524 . S
C1462 C1463 1.397 . S
C1462 C1467 1.363 . S
C1463 H1434 0.950 . S
C1463 C1462 1.397 . S
C1463 C1464 1.334 . S
C1464 H1435 0.950 . S
C1464 C1463 1.334 . S
C1464 C1465 1.287 . S
C1465 C1464 1.287 . S
C1465 C1466 1.524 . S
C1465 H1468 0.999 . S
C1466 H1436 0.950 . S
C1466 C1465 1.524 . S
C1466 C1467 1.415 . S
C1467 H1437 0.950 . S
C1467 C1462 1.363 . S
C1467 C1466 1.415 . S
H1468 C1465 0.999 . S
H1469 C1450 0.913 . S
H1470 C1488 0.951 . S
H1471 C1490 0.951 . S
H1472 C1492 0.950 . S
H1473 C1493 0.950 . S
H1474 C1495 0.950 . S
H1475 C1498 0.950 . S
H1476 C1499 0.950 . S
H1477 C1501 0.950 . S
H1478 C1502 0.950 . S
H1479 C1503 0.951 . S
H1480 C1505 0.951 . S
H1481 C1507 0.950 . S
H1482 C1508 0.950 . S
H1483 C1510 0.950 . S
H1484 C1513 0.950 . S
H1485 C1514 0.950 . S
H1486 C1516 0.950 . S
H1487 C1517 0.950 . S
C1488 H1470 0.951 . S
C1488 C1489 1.366 . S
C1488 C1490 1.388 . S
C1489 C1488 1.366 . S
C1489 C1493 1.385 . S
C1490 H1471 0.951 . S
C1490 C1488 1.388 . S
C1490 C1491 1.366 . S
C1491 C1490 1.366 . S
C1491 C1492 1.414 . S
C1491 C1494 1.499 . S
C1492 H1472 0.950 . S
C1492 C1491 1.414 . S
C1492 C1493 1.374 . S
C1493 H1473 0.950 . S
C1493 C1489 1.385 . S
C1493 C1492 1.374 . S
C1494 C1491 1.499 . S
C1494 C1495 1.373 . S
C1494 C1496 1.389 . S
C1495 H1474 0.950 . S
C1495 C1494 1.373 . S
C1495 C1511 1.377 . S
C1496 C1494 1.389 . S
C1496 C1497 1.524 . S
C1496 C1510 1.377 . S
C1497 C1496 1.524 . S
C1497 C1498 1.397 . S
C1497 C1502 1.363 . S
C1498 H1475 0.950 . S
C1498 C1497 1.397 . S
C1498 C1499 1.334 . S
C1499 H1476 0.950 . S
C1499 C1498 1.334 . S
C1499 C1500 1.287 . S
C1500 C1499 1.287 . S
C1500 C1501 1.524 . S
C1500 H1519 0.913 . S
C1501 H1477 0.950 . S
C1501 C1500 1.524 . S
C1501 C1502 1.415 . S
C1502 H1478 0.950 . S
C1502 C1497 1.363 . S
C1502 C1501 1.415 . S
C1503 H1479 0.951 . S
C1503 C1504 1.366 . S
C1503 C1505 1.388 . S
C1504 C1503 1.366 . S
C1504 C1508 1.385 . S
C1505 H1480 0.951 . S
C1505 C1503 1.388 . S
C1505 C1506 1.366 . S
C1506 C1505 1.366 . S
C1506 C1507 1.414 . S
C1506 C1509 1.499 . S
C1507 H1481 0.950 . S
C1507 C1506 1.414 . S
C1507 C1508 1.374 . S
C1508 H1482 0.950 . S
C1508 C1504 1.385 . S
C1508 C1507 1.374 . S
C1509 C1506 1.499 . S
C1509 C1510 1.373 . S
C1509 C1511 1.389 . S
C1510 H1483 0.950 . S
C1510 C1496 1.377 . S
C1510 C1509 1.373 . S
C1511 C1495 1.377 . S
C1511 C1509 1.389 . S
C1511 C1512 1.524 . S
C1512 C1511 1.524 . S
C1512 C1513 1.397 . S
C1512 C1517 1.363 . S
C1513 H1484 0.950 . S
C1513 C1512 1.397 . S
C1513 C1514 1.334 . S
C1514 H1485 0.950 . S
C1514 C1513 1.334 . S
C1514 C1515 1.287 . S
C1515 C1514 1.287 . S
C1515 C1516 1.524 . S
C1515 H1518 0.999 . S
C1516 H1486 0.950 . S
C1516 C1515 1.524 . S
C1516 C1517 1.415 . S
C1517 H1487 0.950 . S
C1517 C1512 1.363 . S
C1517 C1516 1.415 . S
H1518 C1515 0.999 . S
H1519 C1500 0.913 . S
C339 C15 0.586 . S
C354 C5 0.586 . S
C389 C45 0.579 . S
C404 C55 0.579 . S
C439 C89 5.033 . S
C454 C99 5.033 . S
C489 C129 5.033 . S
C504 C139 5.033 . S
C539 C175 0.585 . S
C554 C165 0.585 . S
C589 C215 0.578 . S
C604 C205 0.578 . S
C639 C249 5.032 . S
C654 C259 5.032 . S
C689 C299 5.033 . S
C704 C289 5.033 . S
C739 C49 4.743 . S
C754 C9 4.727 . S
C789 C135 0.522 . S
C804 C85 0.522 . S
C839 C169 4.727 . S
C854 C209 4.743 . S
C889 C245 0.518 . S
C904 C295 0.518 . S
C939 C19 4.257 . S
C954 C219 4.269 1_554 S
C989 C179 4.257 . S
C1004 C59 4.269 1_554 S
C1039 C95 0.456 . S
C1054 C285 0.456 . S
C1089 C125 0.456 . S
C1104 C255 0.456 . S
C1139 C8 1.543 . S
C1154 C138 1.615 . S
C1189 C48 1.559 . S
C1204 C98 1.621 . S
C1239 C58 1.590 . S
C1254 C88 1.566 . S
C1289 C128 1.567 . S
C1304 C18 1.620 . S
C1339 C168 1.542 . S
C1354 C298 1.615 . S
C1389 C208 1.558 . S
C1404 C258 1.621 . S
C1439 C218 1.590 . S
C1454 C248 1.565 . S
C1489 C288 1.566 . S
C1504 C178 1.621 . S
