# Generated by pormake.
# Topology vcj, (7)-cn, num edge types: 1
# Building blocks:
#     Node 0, Type 0, BuildingBlock: HICVOG_clean_sbu_0, # of connection points: 7
#     Node 1, Type 0, BuildingBlock: HICVOG_clean_sbu_0, # of connection points: 7
#     Node 2, Type 0, BuildingBlock: HICVOG_clean_sbu_0, # of connection points: 7
#     Node 3, Type 0, BuildingBlock: HICVOG_clean_sbu_0, # of connection points: 7
#     Node 4, Type 0, BuildingBlock: HICVOG_clean_sbu_0, # of connection points: 7
#     Node 5, Type 0, BuildingBlock: HICVOG_clean_sbu_0, # of connection points: 7
#     Node 6, Type 0, BuildingBlock: HICVOG_clean_sbu_0, # of connection points: 7
#     Node 7, Type 0, BuildingBlock: HICVOG_clean_sbu_0, # of connection points: 7
#     Edge 8, Type (0, 0), BuildingBlock: KIFKEQ_clean_linker_1, # of connection points: 2
#     Edge 9, Type (0, 0), BuildingBlock: KIFKEQ_clean_linker_1, # of connection points: 2
#     Edge 10, Type (0, 0), BuildingBlock: KIFKEQ_clean_linker_1, # of connection points: 2
#     Edge 11, Type (0, 0), BuildingBlock: KIFKEQ_clean_linker_1, # of connection points: 2
#     Edge 12, Type (0, 0), BuildingBlock: KIFKEQ_clean_linker_1, # of connection points: 2
#     Edge 13, Type (0, 0), BuildingBlock: KIFKEQ_clean_linker_1, # of connection points: 2
#     Edge 14, Type (0, 0), BuildingBlock: KIFKEQ_clean_linker_1, # of connection points: 2
#     Edge 15, Type (0, 0), BuildingBlock: KIFKEQ_clean_linker_1, # of connection points: 2
#     Edge 16, Type (0, 0), BuildingBlock: KIFKEQ_clean_linker_1, # of connection points: 2
#     Edge 17, Type (0, 0), BuildingBlock: KIFKEQ_clean_linker_1, # of connection points: 2
#     Edge 18, Type (0, 0), BuildingBlock: KIFKEQ_clean_linker_1, # of connection points: 2
#     Edge 19, Type (0, 0), BuildingBlock: KIFKEQ_clean_linker_1, # of connection points: 2
#     Edge 20, Type (0, 0), BuildingBlock: KIFKEQ_clean_linker_1, # of connection points: 2
#     Edge 21, Type (0, 0), BuildingBlock: KIFKEQ_clean_linker_1, # of connection points: 2
#     Edge 22, Type (0, 0), BuildingBlock: KIFKEQ_clean_linker_1, # of connection points: 2
#     Edge 23, Type (0, 0), BuildingBlock: KIFKEQ_clean_linker_1, # of connection points: 2
#     Edge 24, Type (0, 0), BuildingBlock: KIFKEQ_clean_linker_1, # of connection points: 2
#     Edge 25, Type (0, 0), BuildingBlock: KIFKEQ_clean_linker_1, # of connection points: 2
#     Edge 26, Type (0, 0), BuildingBlock: KIFKEQ_clean_linker_1, # of connection points: 2
#     Edge 27, Type (0, 0), BuildingBlock: KIFKEQ_clean_linker_1, # of connection points: 2
#     Edge 28, Type (0, 0), BuildingBlock: KIFKEQ_clean_linker_1, # of connection points: 2
#     Edge 29, Type (0, 0), BuildingBlock: KIFKEQ_clean_linker_1, # of connection points: 2
#     Edge 30, Type (0, 0), BuildingBlock: KIFKEQ_clean_linker_1, # of connection points: 2
#     Edge 31, Type (0, 0), BuildingBlock: KIFKEQ_clean_linker_1, # of connection points: 2
#     Edge 32, Type (0, 0), BuildingBlock: KIFKEQ_clean_linker_1, # of connection points: 2
#     Edge 33, Type (0, 0), BuildingBlock: KIFKEQ_clean_linker_1, # of connection points: 2
#     Edge 34, Type (0, 0), BuildingBlock: KIFKEQ_clean_linker_1, # of connection points: 2
#     Edge 35, Type (0, 0), BuildingBlock: KIFKEQ_clean_linker_1, # of connection points: 2
# Relax obj value: 0.121
# Max RMSD: 0.193
# Mean RMSD: 0.193
data_MOF--net-vcj--node1-HICVOG_clean_sbu_0--edge1-KIFKEQ_clean_linker_1
_symmetry_space_group_name_H-M    P1
_symmetry_Int_Tables_number       1
_symmetry_cell_setting            triclinic
loop_
_symmetry_equiv_pos_as_xyz
'x, y, z'
_cell_length_a     35.921199
_cell_length_b     45.663917
_cell_length_c     22.166052
_cell_angle_alpha  90.015297
_cell_angle_beta   90.036475
_cell_angle_gamma 90.050192
loop_
_atom_site_label
_atom_site_type_symbol
_atom_site_fract_x
_atom_site_fract_y
_atom_site_fract_z
_atom_type_partial_charge
Zn0 Zn 0.34114 0.43021 0.26184 0.0
C1 C 0.40746 0.47068 0.14933 0.0
N2 N 0.38028 0.49082 0.15154 0.0
C3 C 0.35205 0.47616 0.17722 0.0
N4 N 0.36168 0.44841 0.19067 0.0
N5 N 0.39627 0.44447 0.17156 0.0
C6 C 0.48827 0.4083 0.21262 0.0
O7 O 0.46575 0.40497 0.25875 0.0
O8 O 0.28498 0.43347 0.26618 0.0
Zn9 Zn 0.41789 0.4057 0.15578 0.0
N10 N 0.36115 0.45123 0.33066 0.0
C11 C 0.41441 0.46306 0.38978 0.0
C12 C 0.39858 0.45013 0.33887 0.0
C13 C 0.33879 0.46534 0.37086 0.0
N14 N 0.39212 0.47665 0.43053 0.0
C15 C 0.35462 0.47839 0.42244 0.0
O16 O 0.4034 0.37386 0.21694 0.0
C17 C 0.37985 0.36899 0.25886 0.0
O18 O 0.35622 0.38824 0.27482 0.0
H19 H 0.41583 0.43892 0.3064 0.0
H20 H 0.309 0.46562 0.36363 0.0
C21 C 0.40868 0.36605 0.04995 0.0
C22 C 0.39501 0.3593 0.99155 0.0
C23 C 0.36641 0.40613 0.98733 0.0
C24 C 0.37948 0.41252 0.04483 0.0
N25 N 0.40102 0.39284 0.07495 0.0
N26 N 0.37449 0.37989 0.96219 0.0
H27 H 0.42534 0.35044 0.07482 0.0
C28 C 0.26341 0.4137 0.24595 0.0
O29 O 0.27782 0.39111 0.21764 0.0
O30 O 0.47434 0.40942 0.15982 0.0
H31 H 0.37244 0.43326 0.06497 0.0
H32 H 0.44416 0.46209 0.39713 0.0
H33 H 0.3497 0.42186 0.96289 0.0
Zn34 Zn 0.1654 0.60707 0.75857 0.0
C35 C 0.10446 0.56706 0.63397 0.0
N36 N 0.13282 0.54794 0.63618 0.0
C37 C 0.15832 0.56196 0.66964 0.0
N38 N 0.14609 0.58854 0.68703 0.0
N39 N 0.1125 0.59231 0.66355 0.0
C40 C 0.01848 0.62275 0.69845 0.0
O41 O 0.03915 0.6225 0.74736 0.0
O42 O 0.22187 0.60696 0.75956 0.0
Zn43 Zn 0.09023 0.63096 0.64882 0.0
N44 N 0.14763 0.58391 0.82621 0.0
C45 C 0.09593 0.56241 0.87653 0.0
C46 C 0.11048 0.57854 0.82868 0.0
C47 C 0.17099 0.57368 0.86976 0.0
N48 N 0.1191 0.5525 0.92039 0.0
C49 C 0.15643 0.55777 0.91895 0.0
O50 O 0.10121 0.66267 0.71289 0.0
C51 C 0.12322 0.66717 0.7572 0.0
O52 O 0.14694 0.64804 0.77341 0.0
H53 H 0.09238 0.58671 0.79357 0.0
H54 H 0.20049 0.57761 0.86543 0.0
C55 C 0.09954 0.6715 0.54531 0.0
C56 C 0.11324 0.67898 0.48742 0.0
C57 C 0.14365 0.63292 0.48205 0.0
C58 C 0.1305 0.62579 0.53909 0.0
N59 N 0.10815 0.64477 0.56956 0.0
N60 N 0.13471 0.65915 0.45768 0.0
H61 H 0.08202 0.68645 0.57031 0.0
C62 C 0.23856 0.62173 0.80006 0.0
O63 O 0.21862 0.63695 0.83857 0.0
O64 O 0.03429 0.62604 0.64754 0.0
H65 H 0.13833 0.60513 0.55862 0.0
H66 H 0.0664 0.5579 0.87897 0.0
H67 H 0.16109 0.61778 0.45738 0.0
Zn68 Zn 0.91347 0.12983 0.88704 0.0
C69 C 0.84556 0.06057 0.86529 0.0
N70 N 0.87079 0.0467 0.89944 0.0
C71 C 0.89918 0.06582 0.90209 0.0
N72 N 0.89142 0.09096 0.872 0.0
N73 N 0.85803 0.08708 0.84771 0.0
C74 C 0.76273 0.12285 0.78824 0.0
O75 O 0.77762 0.14512 0.81706 0.0
O76 O 0.96964 0.12557 0.88777 0.0
Zn77 Zn 0.83987 0.10523 0.7749 0.0
N78 N 0.89589 0.14337 0.96685 0.0
C79 C 0.86114 0.13109 0.05491 0.0
C80 C 0.87406 0.12412 0.99765 0.0
C81 C 0.90428 0.17017 0.99113 0.0
N82 N 0.86985 0.15738 0.07928 0.0
C83 C 0.89086 0.17747 0.04933 0.0
O84 O 0.85605 0.14698 0.76236 0.0
C85 C 0.87922 0.16632 0.77975 0.0
O86 O 0.90139 0.16166 0.8238 0.0
H87 H 0.86644 0.10338 0.97821 0.0
H88 H 0.92143 0.18532 0.96593 0.0
C89 C 0.83854 0.0694 0.66691 0.0
C90 C 0.85479 0.05607 0.61602 0.0
C91 C 0.91433 0.07153 0.64993 0.0
C92 C 0.89809 0.08476 0.70011 0.0
N93 N 0.86058 0.08369 0.70739 0.0
N94 N 0.89237 0.05773 0.60891 0.0
H95 H 0.80869 0.06923 0.67333 0.0
C96 C 0.98627 0.12546 0.83709 0.0
O97 O 0.96643 0.12818 0.78764 0.0
O98 O 0.78383 0.10276 0.76824 0.0
H99 H 0.91508 0.09623 0.73268 0.0
H100 H 0.84407 0.11575 0.0798 0.0
H101 H 0.94414 0.07245 0.64331 0.0
Zn102 Zn 0.66329 0.92917 0.27747 0.0
C103 C 0.60546 0.97195 0.40225 0.0
N104 N 0.63464 0.99021 0.39728 0.0
C105 C 0.6591 0.97493 0.36444 0.0
N106 N 0.6454 0.94844 0.34948 0.0
N107 N 0.612 0.94585 0.37461 0.0
C108 C 0.51772 0.90939 0.33224 0.0
O109 O 0.54028 0.90468 0.28671 0.0
O110 O 0.7195 0.93123 0.27054 0.0
Zn111 Zn 0.58807 0.90748 0.39108 0.0
N112 N 0.6433 0.95029 0.20867 0.0
C113 C 0.59022 0.96226 0.14934 0.0
C114 C 0.60587 0.94934 0.20037 0.0
C115 C 0.66583 0.96424 0.16841 0.0
N116 N 0.61267 0.97568 0.10855 0.0
C117 C 0.65018 0.97727 0.11666 0.0
O118 O 0.60159 0.87471 0.33099 0.0
C119 C 0.62309 0.86885 0.28673 0.0
O120 O 0.64634 0.88753 0.26684 0.0
H121 H 0.58847 0.93823 0.23283 0.0
H122 H 0.69561 0.96439 0.17568 0.0
C123 C 0.59974 0.86602 0.49332 0.0
C124 C 0.61461 0.85842 0.55045 0.0
C125 C 0.63408 0.90765 0.56406 0.0
C126 C 0.62019 0.9149 0.50752 0.0
N127 N 0.60319 0.89424 0.47282 0.0
N128 N 0.63128 0.87972 0.58383 0.0
H129 H 0.58699 0.84958 0.46482 0.0
C130 C 0.74138 0.91199 0.29192 0.0
O131 O 0.72744 0.89006 0.32294 0.0
O132 O 0.53156 0.91181 0.38496 0.0
H133 H 0.6239 0.93684 0.49127 0.0
H134 H 0.56047 0.9614 0.1419 0.0
H135 H 0.6477 0.92402 0.59165 0.0
Zn136 Zn 0.59083 0.63144 0.8916 0.0
C137 C 0.65657 0.56089 0.86752 0.0
N138 N 0.63094 0.54742 0.90157 0.0
C139 C 0.60369 0.56741 0.90568 0.0
N140 N 0.61249 0.59259 0.87656 0.0
N141 N 0.64553 0.58803 0.85158 0.0
C142 C 0.73814 0.62109 0.73882 0.0
O143 O 0.71825 0.63633 0.70023 0.0
O144 O 0.53478 0.62697 0.89238 0.0
Zn145 Zn 0.66499 0.60667 0.7802 0.0
N146 N 0.60866 0.64485 0.97137 0.0
C147 C 0.64404 0.63229 0.05864 0.0
C148 C 0.6311 0.62568 1.00117 0.0
C149 C 0.59973 0.67127 0.99678 0.0
N150 N 0.63481 0.65821 0.08414 0.0
C151 C 0.61323 0.67823 0.05513 0.0
O152 O 0.64686 0.64785 0.76565 0.0
C153 C 0.62375 0.66728 0.78265 0.0
O154 O 0.60219 0.66305 0.82763 0.0
H155 H 0.63913 0.60525 0.98079 0.0
H156 H 0.5821 0.68637 0.97234 0.0
C157 C 0.67067 0.57305 0.66922 0.0
C158 C 0.65615 0.55707 0.62004 0.0
C159 C 0.59552 0.5623 0.66156 0.0
C160 C 0.61004 0.57849 0.7094 0.0
N161 N 0.64724 0.58361 0.71231 0.0
N162 N 0.61877 0.55206 0.61816 0.0
H163 H 0.70021 0.57676 0.6739 0.0
C164 C 0.51898 0.62382 0.84138 0.0
O165 O 0.53969 0.62344 0.79256 0.0
O166 O 0.72141 0.60641 0.77935 0.0
H167 H 0.59189 0.58689 0.74419 0.0
H168 H 0.66154 0.61698 0.08279 0.0
H169 H 0.56595 0.55798 0.65878 0.0
Zn170 Zn 0.91775 0.40525 0.38763 0.0
C171 C 0.85164 0.47498 0.36203 0.0
N172 N 0.87979 0.49021 0.38665 0.0
C173 C 0.90711 0.47026 0.39045 0.0
N174 N 0.89605 0.44365 0.37013 0.0
N175 N 0.86149 0.44705 0.35043 0.0
C176 C 0.76573 0.4099 0.29168 0.0
O177 O 0.78103 0.38712 0.31805 0.0
O178 O 0.97402 0.40961 0.38599 0.0
Zn179 Zn 0.8428 0.42911 0.27733 0.0
N180 N 0.89886 0.39226 0.46716 0.0
C181 C 0.86093 0.40551 0.55108 0.0
C182 C 0.87778 0.41248 0.49659 0.0
C183 C 0.90329 0.36469 0.49063 0.0
N184 N 0.86488 0.37821 0.57386 0.0
C185 C 0.88542 0.35729 0.54556 0.0
O186 O 0.86061 0.38775 0.26173 0.0
C187 C 0.88402 0.36874 0.2799 0.0
O188 O 0.90533 0.37365 0.32492 0.0
H189 H 0.87348 0.43396 0.47776 0.0
H190 H 0.91919 0.34855 0.46589 0.0
C191 C 0.83841 0.46176 0.16565 0.0
C192 C 0.8529 0.47861 0.11764 0.0
C193 C 0.91267 0.47635 0.16365 0.0
C194 C 0.89816 0.45958 0.21057 0.0
N195 N 0.86142 0.45258 0.2107 0.0
N196 N 0.88984 0.48544 0.11859 0.0
H197 H 0.80919 0.45632 0.16821 0.0
C198 C 0.98713 0.41245 0.33294 0.0
O199 O 0.96384 0.41258 0.28724 0.0
O200 O 0.78651 0.43051 0.27299 0.0
H201 H 0.91596 0.4523 0.24684 0.0
H202 H 0.84421 0.42153 0.57467 0.0
H203 H 0.94187 0.48215 0.16306 0.0
Zn204 Zn 0.1632 0.93033 0.26015 0.0
C205 C 0.09975 0.97092 0.14297 0.0
N206 N 0.12785 0.99032 0.14448 0.0
C207 C 0.15511 0.97532 0.17213 0.0
N208 N 0.14404 0.94809 0.18718 0.0
N209 N 0.10952 0.94482 0.16724 0.0
C210 C 0.01784 0.91392 0.20523 0.0
O211 O 0.04105 0.91448 0.25103 0.0
O212 O 0.21969 0.93179 0.26403 0.0
Zn213 Zn 0.08737 0.90648 0.15046 0.0
N214 N 0.14498 0.95401 0.32673 0.0
C215 C 0.09406 0.97808 0.37393 0.0
C216 C 0.10828 0.96109 0.32714 0.0
C217 C 0.16822 0.96333 0.37139 0.0
N218 N 0.11712 0.98731 0.4186 0.0
C219 C 0.15402 0.98041 0.41927 0.0
O220 O 0.09987 0.87525 0.21354 0.0
C221 C 0.1213 0.87024 0.25832 0.0
O222 O 0.14509 0.88906 0.27621 0.0
H223 H 0.09029 0.95368 0.29117 0.0
H224 H 0.19741 0.95783 0.36864 0.0
C225 C 0.10065 0.86549 0.04761 0.0
C226 C 0.11839 0.85771 0.99278 0.0
C227 C 0.14437 0.90546 0.98715 0.0
C228 C 0.12773 0.91277 0.0416 0.0
N229 N 0.10595 0.89299 0.07102 0.0
N230 N 0.13959 0.87822 0.96445 0.0
H231 H 0.08423 0.84966 0.07233 0.0
C232 C 0.24043 0.91045 0.24903 0.0
O233 O 0.22506 0.88674 0.22646 0.0
O234 O 0.03107 0.91084 0.15232 0.0
H235 H 0.13292 0.9341 0.06051 0.0
H236 H 0.06489 0.98394 0.37474 0.0
H237 H 0.16165 0.92114 0.9636 0.0
Zn238 Zn 0.41599 0.13141 0.65123 0.0
C239 C 0.34987 0.06168 0.67662 0.0
N240 N 0.37699 0.04725 0.64747 0.0
C241 C 0.40449 0.06712 0.64474 0.0
N242 N 0.39447 0.09301 0.66969 0.0
N243 N 0.3604 0.08918 0.69116 0.0
C244 C 0.26702 0.12103 0.80454 0.0
O245 O 0.28691 0.13488 0.84534 0.0
O246 O 0.47234 0.12711 0.6516 0.0
Zn247 Zn 0.34014 0.1089 0.76107 0.0
N248 N 0.3968 0.14369 0.57165 0.0
C249 C 0.35883 0.13004 0.48796 0.0
C250 C 0.37557 0.12336 0.5427 0.0
C251 C 0.40137 0.1711 0.54761 0.0
N252 N 0.36294 0.15719 0.46456 0.0
C253 C 0.38354 0.17822 0.49253 0.0
O254 O 0.35795 0.15055 0.77417 0.0
C255 C 0.38203 0.16917 0.75656 0.0
O256 O 0.40401 0.16364 0.71279 0.0
H257 H 0.37081 0.10214 0.56225 0.0
H258 H 0.41734 0.18733 0.57206 0.0
C259 C 0.33578 0.0728 0.86974 0.0
C260 C 0.35107 0.0603 0.9223 0.0
C261 C 0.41077 0.07747 0.8932 0.0
C262 C 0.39544 0.09004 0.84162 0.0
N263 N 0.35831 0.08776 0.8311 0.0
N264 N 0.38826 0.06318 0.93255 0.0
H265 H 0.30622 0.07153 0.86071 0.0
C266 C 0.48613 0.126 0.70447 0.0
O267 O 0.46349 0.12762 0.75077 0.0
O268 O 0.28376 0.10798 0.76171 0.0
H269 H 0.41278 0.102 0.8105 0.0
H270 H 0.34198 0.11393 0.46475 0.0
H271 H 0.44026 0.07938 0.90232 0.0
H272 H 0.32544 0.531 0.19452 0.0
H273 H 0.29346 0.44477 0.1344 0.0
H274 H 0.27142 0.55184 0.1435 0.0
H275 H 0.24007 0.46546 0.08185 0.0
H276 H 0.1429 0.51105 0.99285 0.0
H277 H 0.18211 0.49163 0.07333 0.0
H278 H 0.26343 0.55923 0.03781 0.0
H279 H 0.22382 0.57938 0.95996 0.0
C280 C 0.30593 0.51638 0.17245 0.0
C281 C 0.31349 0.48631 0.16857 0.0
C282 C 0.27532 0.52833 0.14234 0.0
C283 C 0.25202 0.51047 0.10691 0.0
C284 C 0.25735 0.47993 0.10861 0.0
C285 C 0.28783 0.46796 0.13928 0.0
C286 C 0.16901 0.52195 1.00259 0.0
C287 C 0.1804 0.54644 0.96866 0.0
C288 C 0.19155 0.51071 0.04867 0.0
C289 C 0.22597 0.52381 0.06228 0.0
C290 C 0.23688 0.54875 0.02938 0.0
C291 C 0.21438 0.55999 0.98349 0.0
H292 H 0.18957 0.50881 0.68933 0.0
H293 H 0.21409 0.59642 0.62854 0.0
H294 H 0.24523 0.49073 0.63775 0.0
H295 H 0.26911 0.57822 0.5755 0.0
H296 H 0.29679 0.5163 0.40422 0.0
H297 H 0.25821 0.5401 0.48081 0.0
H298 H 0.32137 0.49767 0.62137 0.0
H299 H 0.36078 0.47435 0.54462 0.0
C300 C 0.20798 0.5244 0.66767 0.0
C301 C 0.19782 0.55401 0.66342 0.0
C302 C 0.23962 0.51404 0.63775 0.0
C303 C 0.26101 0.53306 0.60204 0.0
C304 C 0.25292 0.56315 0.60263 0.0
C305 C 0.22174 0.57361 0.63369 0.0
C306 C 0.30253 0.51214 0.45142 0.0
C307 C 0.3315 0.49325 0.46852 0.0
C308 C 0.28079 0.52602 0.49521 0.0
C309 C 0.28712 0.52087 0.55689 0.0
C310 C 0.31618 0.50212 0.57411 0.0
C311 C 0.33856 0.48879 0.53027 0.0
H312 H 0.8131 1.0079 0.84448 0.0
H313 H 0.79101 0.0951 0.90982 0.0
H314 H 0.75809 0.98977 0.89791 0.0
H315 H 0.73663 0.07687 0.96459 0.0
H316 H 0.70894 1.01455 0.13441 0.0
H317 H 0.7474 0.03828 0.05751 0.0
H318 H 0.68276 0.99676 0.91743 0.0
H319 H 0.64349 0.97351 0.99447 0.0
C320 C 0.79529 0.02343 0.86753 0.0
C321 C 0.80597 0.05293 0.87237 0.0
C322 C 0.76405 1.01303 0.89858 0.0
C323 C 0.74357 0.03188 0.93603 0.0
C324 C 0.75213 0.06191 0.93618 0.0
C325 C 0.78289 0.07241 0.90403 0.0
C326 C 0.70286 1.01054 0.08725 0.0
C327 C 0.67347 0.99195 0.07041 0.0
C328 C 0.72456 0.02439 0.04328 0.0
C329 C 0.71776 0.01951 0.98161 0.0
C330 C 0.68835 1.001 0.96466 0.0
C331 C 0.66603 0.98771 1.00868 0.0
H332 H 0.7118 0.93928 0.41098 0.0
H333 H 0.69428 0.02626 0.3409 0.0
H334 H 0.76692 0.95644 0.46518 0.0
H335 H 0.74994 0.04333 0.39412 0.0
H336 H 0.86279 0.05895 0.49394 0.0
H337 H 0.8239 0.03559 0.41646 0.0
H338 H 0.75767 0.99523 0.55589 0.0
H339 H 0.79582 0.019 0.63314 0.0
C340 C 0.72108 0.96161 0.40405 0.0
C341 C 0.69904 0.98141 0.37124 0.0
C342 C 0.75228 0.97153 0.43587 0.0
C343 C 0.76226 1.00127 0.43446 0.0
C344 C 0.74288 0.02027 0.39579 0.0
C345 C 0.71124 1.01047 0.3649 0.0
C346 C 0.84003 0.04494 0.5079 0.0
C347 C 0.832 0.04108 0.56952 0.0
C348 C 0.81791 0.03159 0.46363 0.0
C349 C 0.78811 1.01342 0.48027 0.0
C350 C 0.78082 1.00884 0.54188 0.0
C351 C 0.80233 0.02272 0.58605 0.0
H352 H 0.71637 0.59229 0.90475 0.0
H353 H 0.68287 0.50656 0.84408 0.0
H354 H 0.77039 0.57113 0.95457 0.0
H355 H 0.73768 0.48523 0.89192 0.0
H356 H 0.78606 0.4565 0.07435 0.0
H357 H 0.74672 0.47682 0.99645 0.0
H358 H 0.82773 0.54493 0.9633 0.0
H359 H 0.86655 0.52543 0.04399 0.0
C360 C 0.72187 0.56913 0.89885 0.0
C361 C 0.69553 0.55104 0.87048 0.0
C362 C 0.75272 0.55686 0.92804 0.0
C363 C 0.75782 0.52627 0.92901 0.0
C364 C 0.73398 0.50875 0.89378 0.0
C365 C 0.70297 0.52099 0.86526 0.0
C366 C 0.79552 0.47601 0.05135 0.0
C367 C 0.82926 0.4897 0.06712 0.0
C368 C 0.77317 0.48737 1.00534 0.0
C369 C 0.78398 0.51257 0.97314 0.0
C370 C 0.81828 0.52569 0.98742 0.0
C371 C 0.84063 0.51438 0.03367 0.0
H372 H 0.82461 0.52965 0.3444 0.0
H373 H 0.79313 0.44339 0.40493 0.0
H374 H 0.77074 0.55042 0.39579 0.0
H375 H 0.73988 0.46405 0.45793 0.0
H376 H 0.6426 0.51004 0.54687 0.0
H377 H 0.6818 0.49029 0.46673 0.0
H378 H 0.76331 0.55783 0.50174 0.0
H379 H 0.72375 0.57826 0.57933 0.0
C380 C 0.80525 0.515 0.36668 0.0
C381 C 0.81299 0.48496 0.37069 0.0
C382 C 0.77473 0.52692 0.39701 0.0
C383 C 0.75165 0.50906 0.43273 0.0
C384 C 0.75704 0.47852 0.43102 0.0
C385 C 0.78745 0.46657 0.40011 0.0
C386 C 0.66876 0.52084 0.53711 0.0
C387 C 0.6802 0.54543 0.57077 0.0
C388 C 0.69129 0.50941 0.49123 0.0
C389 C 0.72573 0.52243 0.4775 0.0
C390 C 0.73673 0.54741 0.51024 0.0
C391 C 0.71426 0.55883 0.55597 0.0
H392 H 0.35588 0.06467 0.04437 0.0
H393 H 0.29404 0.02158 0.90269 0.0
H394 H 0.31623 0.04106 0.12024 0.0
H395 H 0.25509 0.99754 0.97859 0.0
H396 H 0.21057 0.94141 0.12776 0.0
H397 H 0.26499 0.9599 0.07341 0.0
H398 H 0.24087 0.04734 0.13576 0.0
H399 H 0.18583 0.02898 0.1887 0.0
C400 C 0.33408 0.04991 0.02955 0.0
C401 C 0.3277 0.04521 0.96768 0.0
C402 C 0.31155 0.03643 0.07291 0.0
C403 C 0.28297 1.01732 0.05515 0.0
C404 C 0.2773 1.01192 0.99338 0.0
C405 C 0.29924 0.02592 0.95 0.0
C406 C 0.21797 0.96431 0.13239 0.0
C407 C 0.1942 0.98381 0.16265 0.0
C408 C 0.2488 0.97492 0.10063 0.0
C409 C 0.25669 1.00504 0.09991 0.0
C410 C 0.23537 0.024 0.13581 0.0
C411 C 0.20408 1.0135 0.16642 0.0
H412 H 0.29117 0.09343 0.63565 0.0
H413 H 0.3226 1.00723 0.69617 0.0
H414 H 0.23775 0.07278 0.58299 0.0
H415 H 0.26841 0.98644 0.64542 0.0
H416 H 0.22077 0.95819 0.46245 0.0
H417 H 0.26023 0.97839 0.54045 0.0
H418 H 0.17997 0.04701 0.57294 0.0
H419 H 0.14102 0.02761 0.49222 0.0
C420 C 0.28538 0.07027 0.64068 0.0
C421 C 0.31098 0.0519 0.66996 0.0
C422 C 0.25487 0.0583 0.60992 0.0
C423 C 0.24936 0.02775 0.60827 0.0
C424 C 0.27246 1.00993 0.64406 0.0
C425 C 0.30313 0.02187 0.67416 0.0
C426 C 0.21151 0.9778 0.4853 0.0
C427 C 0.1779 0.9916 0.46945 0.0
C428 C 0.23394 0.9891 0.53134 0.0
C429 C 0.22333 1.01436 0.56347 0.0
C430 C 0.18924 0.0277 0.54891 0.0
C431 C 0.16681 1.01644 0.50265 0.0
H432 H 0.43054 0.45792 0.03496 0.0
H433 H 0.46166 0.50361 0.1973 0.0
H434 H 0.4771 0.48548 0.97832 0.0
H435 H 0.50743 0.53195 0.14098 0.0
H436 H 0.60869 0.55882 0.02512 0.0
H437 H 0.56423 0.53238 0.08723 0.0
H438 H 0.48454 0.5348 0.94111 0.0
H439 H 0.53014 0.56059 0.87825 0.0
C440 C 0.44845 0.47293 0.05906 0.0
C441 C 0.44331 0.47793 0.12093 0.0
C442 C 0.47446 0.48941 0.0263 0.0
C443 C 0.49558 0.51149 0.05467 0.0
C444 C 0.49191 0.51513 0.11744 0.0
C445 C 0.466 0.4986 0.15003 0.0
C446 C 0.58106 0.55481 1.00724 0.0
C447 C 0.57247 0.56242 0.94745 0.0
C448 C 0.55563 0.53932 0.04265 0.0
C449 C 0.52093 0.53088 1.01901 0.0
C450 C 0.51135 0.54032 0.96039 0.0
C451 C 0.53699 0.55583 0.92482 0.0
H452 H 0.95822 0.50656 0.34441 0.0
H453 H 0.93359 0.45504 0.50215 0.0
H454 H 0.00431 0.53438 0.40132 0.0
H455 H 0.98015 0.4825 0.55949 0.0
H456 H 0.0316 0.55819 0.66364 0.0
H457 H 0.98582 0.53222 0.60105 0.0
H458 H 0.06322 0.5332 0.4519 0.0
H459 H 0.10806 0.55942 0.514 0.0
C460 C 0.96393 0.50033 0.39068 0.0
C461 C 0.94296 0.47816 0.4184 0.0
C462 C 0.99003 0.51652 0.4236 0.0
C463 C 0.99551 0.51112 0.48544 0.0
C464 C 0.97606 0.4877 0.51229 0.0
C465 C 0.94999 0.47141 0.47908 0.0
C466 C 0.03793 0.55401 0.61664 0.0
C467 C 0.07288 0.56152 0.59309 0.0
C468 C 0.01219 0.53848 0.58118 0.0
C469 C 0.02108 0.53008 0.52164 0.0
C470 C 0.05523 0.53934 0.49727 0.0
C471 C 0.08082 0.55471 0.53266 0.0
H472 H 0.08226 0.96351 0.02444 0.0
H473 H 0.04136 0.99901 0.19167 0.0
H474 H 0.03459 0.99029 0.96899 0.0
H475 H 0.99462 0.02704 0.13665 0.0
H476 H 0.8939 0.05242 1.01956 0.0
H477 H 0.93995 0.02682 0.07983 0.0
H478 H 0.02105 0.03892 0.93787 0.0
H479 H 0.97366 0.06335 0.87625 0.0
C480 C 0.0621 0.97615 0.04955 0.0
C481 C 0.06458 0.97832 0.11255 0.0
C482 C 0.03539 0.99227 1.01764 0.0
C483 C 0.01102 1.01142 0.04797 0.0
C484 C 0.01256 1.01244 0.11148 0.0
C485 C 0.03906 0.99611 0.14327 0.0
C486 C 0.92198 0.05047 1.00214 0.0
C487 C 0.93045 0.06037 0.94373 0.0
C488 C 0.94844 0.03561 0.03662 0.0
C489 C 0.98424 0.03022 1.01362 0.0
C490 C 0.99351 0.04199 0.95661 0.0
C491 C 0.96674 0.05675 0.92181 0.0
H492 H 0.41281 0.0664 0.52326 0.0
H493 H 0.47032 0.04912 0.68993 0.0
H494 H 0.4611 0.04085 0.46731 0.0
H495 H 0.51751 0.02159 0.63523 0.0
H496 H 0.61319 0.9941 0.51342 0.0
H497 H 0.56724 0.02037 0.57163 0.0
H498 H 0.48214 0.99415 0.44424 0.0
H499 H 0.52967 0.96979 0.38304 0.0
C500 C 0.43662 0.05803 0.54769 0.0
C501 C 0.43865 0.06075 0.61067 0.0
C502 C 0.46381 0.04248 0.51582 0.0
C503 C 0.49315 0.02842 0.54641 0.0
C504 C 0.49581 0.03225 0.6095 0.0
C505 C 0.46894 0.04832 0.64111 0.0
C506 C 0.58445 0.99336 0.49858 0.0
C507 C 0.5749 0.97936 0.44422 0.0
C508 C 0.5579 1.00849 0.53217 0.0
C509 C 0.52069 1.00989 0.51282 0.0
C510 C 0.51063 0.99425 0.46013 0.0
C511 C 0.53759 0.97941 0.42579 0.0
H512 H 0.42952 0.21526 0.73409 0.0
H513 H 0.34483 0.1862 0.85886 0.0
H514 H 0.43801 0.2598 0.79355 0.0
H515 H 0.35309 0.23079 0.91771 0.0
H516 H 0.39683 0.30338 0.04005 0.0
H517 H 0.39673 0.25695 0.9844 0.0
H518 H 0.40428 0.30446 0.81645 0.0
H519 H 0.40493 0.35044 0.87171 0.0
C520 C 0.41255 0.21837 0.77395 0.0
C521 C 0.3863 0.19706 0.7912 0.0
C522 C 0.41743 0.24397 0.80814 0.0
C523 C 0.39636 0.24894 0.86076 0.0
C524 C 0.37025 0.22757 0.87811 0.0
C525 C 0.36522 0.20207 0.8438 0.0
C526 C 0.39942 0.30385 0.9914 0.0
C527 C 0.401 0.3307 0.96044 0.0
C528 C 0.39885 0.27724 0.95936 0.0
C529 C 0.40023 0.27687 0.89573 0.0
C530 C 0.40349 0.30373 0.86527 0.0
C531 C 0.4037 0.33019 0.89708 0.0
H532 H 0.1582 0.85352 0.36112 0.0
H533 H 0.07447 0.82393 0.23491 0.0
H534 H 0.15074 0.80851 0.41888 0.0
H535 H 0.06676 0.77903 0.29329 0.0
H536 H 0.10332 0.68851 0.36788 0.0
H537 H 0.10231 0.73495 0.3144 0.0
H538 H 0.10737 0.78117 0.48421 0.0
H539 H 0.10897 0.73429 0.53808 0.0
C540 C 0.13813 0.83747 0.34562 0.0
C541 C 0.11713 0.8424 0.2929 0.0
C542 C 0.13358 0.81174 0.37925 0.0
C543 C 0.10803 0.79012 0.36103 0.0
C544 C 0.08692 0.79508 0.30846 0.0
C545 C 0.09134 0.82088 0.27493 0.0
C546 C 0.10364 0.70856 0.39402 0.0
C547 C 0.10618 0.70761 0.45734 0.0
C548 C 0.10288 0.73526 0.36325 0.0
C549 C 0.10497 0.76189 0.39483 0.0
C550 C 0.10612 0.76105 0.45841 0.0
C551 C 0.10654 0.73419 0.48939 0.0
H552 H 0.89506 0.23296 0.9992 0.0
H553 H 0.9007 0.18689 0.169 0.0
H554 H 0.89686 0.27974 0.05347 0.0
H555 H 0.90186 0.23322 0.22288 0.0
H556 H 0.93018 0.32203 0.30336 0.0
H557 H 0.93741 0.27713 0.24475 0.0
H558 H 0.8541 0.30732 0.11887 0.0
H559 H 0.84713 0.3523 0.17684 0.0
C560 C 0.8975 0.23277 0.04789 0.0
C561 C 0.89782 0.20611 0.07967 0.0
C562 C 0.89803 0.25958 0.07912 0.0
C563 C 0.89925 0.26033 0.14273 0.0
C564 C 0.90124 0.23363 0.17404 0.0
C565 C 0.90038 0.20698 0.14302 0.0
C566 C 0.91335 0.31913 0.26324 0.0
C567 C 0.88789 0.34086 0.24526 0.0
C568 C 0.91749 0.29332 0.22957 0.0
C569 C 0.89644 0.28855 0.17682 0.0
C570 C 0.87122 0.31037 0.15862 0.0
C571 C 0.86694 0.33611 0.19238 0.0
H572 H 0.56853 0.70939 0.78397 0.0
H573 H 0.67295 0.68759 0.69852 0.0
H574 H 0.56454 0.7538 0.72186 0.0
H575 H 0.66884 0.73155 0.63706 0.0
H576 H 0.67249 0.83125 0.60387 0.0
H577 H 0.67311 0.78485 0.65771 0.0
H578 H 0.55781 0.77083 0.61084 0.0
H579 H 0.55731 0.81781 0.55603 0.0
C580 C 0.59065 0.71405 0.7522 0.0
C581 C 0.6212 0.69489 0.74674 0.0
C582 C 0.58814 0.73933 0.71614 0.0
C583 C 0.61635 0.74625 0.67439 0.0
C584 C 0.64674 0.72705 0.66899 0.0
C585 C 0.64905 0.70175 0.70436 0.0
C586 C 0.64736 0.8181 0.60419 0.0
C587 C 0.61495 0.82812 0.57524 0.0
C588 C 0.64774 0.79144 0.63506 0.0
C589 C 0.61552 0.77408 0.6388 0.0
C590 C 0.58305 0.7838 0.60912 0.0
C591 C 0.58285 0.81047 0.57712 0.0
H592 H 0.60343 0.68674 0.17517 0.0
H593 H 0.60849 0.73393 1.00664 0.0
H594 H 0.60272 0.73277 0.2304 0.0
H595 H 0.60722 0.78032 0.0622 0.0
H596 H 0.65993 0.85125 0.18489 0.0
H597 H 0.65173 0.80636 0.12741 0.0
H598 H 0.56809 0.77742 0.25387 0.0
H599 H 0.57645 0.82246 0.31211 0.0
C600 C 0.60366 0.70701 0.14978 0.0
C601 C 0.60603 0.70657 0.08638 0.0
C602 C 0.60307 0.73346 0.18156 0.0
C603 C 0.60521 0.76033 0.15094 0.0
C604 C 0.60599 0.76 0.0873 0.0
C605 C 0.60623 0.73341 0.05533 0.0
C606 C 0.63981 0.83536 0.2008 0.0
C607 C 0.619 0.84057 0.25359 0.0
C608 C 0.63482 0.80968 0.16725 0.0
C609 C 0.60902 0.7883 0.18555 0.0
C610 C 0.58834 0.79334 0.23855 0.0
C611 C 0.59316 0.81919 0.27202 0.0
H612 H 0.94403 0.31784 0.555 0.0
H613 H 0.82822 0.32978 0.60058 0.0
H614 H 0.94421 0.27122 0.611 0.0
H615 H 0.82843 0.28392 0.65592 0.0
H616 H 0.82954 0.18684 0.69669 0.0
H617 H 0.83326 0.23103 0.63597 0.0
H618 H 0.93752 0.25361 0.72095 0.0
H619 H 0.934 0.20888 0.78218 0.0
C620 C 0.91855 0.31034 0.57604 0.0
C621 C 0.88605 0.32748 0.57301 0.0
C622 C 0.91875 0.28386 0.60872 0.0
C623 C 0.88631 0.27381 0.63803 0.0
C624 C 0.8538 0.29074 0.63356 0.0
C625 C 0.85374 0.31716 0.60189 0.0
C626 C 0.85333 0.20114 0.70278 0.0
C627 C 0.88135 0.19425 0.74488 0.0
C628 C 0.85541 0.22658 0.66784 0.0
C629 C 0.88568 0.24594 0.67348 0.0
C630 C 0.914 0.23903 0.71507 0.0
C631 C 0.91175 0.21357 0.75064 0.0
H632 H 0.06913 0.71028 0.75358 0.0
H633 H 0.17128 0.68646 0.84405 0.0
H634 H 0.06555 0.75483 0.81546 0.0
H635 H 0.16748 0.73039 0.90533 0.0
H636 H 0.17538 0.82899 0.94027 0.0
H637 H 0.17442 0.78311 0.88505 0.0
H638 H 0.05762 0.77272 0.92549 0.0
H639 H 0.05859 0.81939 0.98144 0.0
C640 C 0.09081 0.71449 0.78643 0.0
C641 C 0.12067 0.69476 0.79325 0.0
C642 C 0.08853 0.73987 0.82233 0.0
C643 C 0.11626 0.74624 0.86536 0.0
C644 C 0.14582 0.72638 0.87231 0.0
C645 C 0.14796 0.70106 0.83701 0.0
C646 C 0.14947 0.81687 0.93804 0.0
C647 C 0.11711 0.82785 0.96564 0.0
C648 C 0.14897 0.79044 0.90643 0.0
C649 C 0.11597 0.77414 0.90074 0.0
C650 C 0.08346 0.78485 0.92876 0.0
C651 C 0.08409 0.81136 0.9614 0.0
H652 H 0.43479 0.32682 0.25903 0.0
H653 H 0.32837 0.34805 0.33855 0.0
H654 H 0.43744 0.28208 0.32006 0.0
H655 H 0.33125 0.30379 0.39928 0.0
H656 H 0.32696 0.20505 0.43451 0.0
H657 H 0.32751 0.25091 0.37926 0.0
H658 H 0.44229 0.26472 0.42974 0.0
H659 H 0.44183 0.21809 0.48545 0.0
C660 C 0.41191 0.32193 0.2892 0.0
C661 C 0.38123 0.34101 0.29339 0.0
C662 C 0.41366 0.29647 0.32468 0.0
C663 C 0.38458 0.28936 0.36462 0.0
C664 C 0.35399 0.30844 0.36865 0.0
C665 C 0.35237 0.3339 0.33374 0.0
C666 C 0.35234 0.21788 0.43436 0.0
C667 C 0.38431 0.20789 0.46468 0.0
C668 C 0.35257 0.24431 0.4028 0.0
C669 C 0.38491 0.26154 0.40001 0.0
C670 C 0.41698 0.25183 0.43075 0.0
C671 C 0.41661 0.22533 0.46324 0.0
H672 H 0.71294 0.37166 0.33262 0.0
H673 H 0.72625 0.45008 0.22569 0.0
H674 H 0.6463 0.37202 0.31196 0.0
H675 H 0.65935 0.4505 0.20538 0.0
H676 H 0.54393 0.42008 0.13067 0.0
H677 H 0.61117 0.42136 0.14968 0.0
H678 H 0.5915 0.40172 0.33753 0.0
H679 H 0.5249 0.4002 0.31874 0.0
C680 C 0.70165 0.38906 0.30494 0.0
C681 C 0.72497 0.41084 0.28092 0.0
C682 C 0.66339 0.38933 0.29325 0.0
C683 C 0.6475 0.4113 0.257 0.0
C684 C 0.67079 0.43312 0.23295 0.0
C685 C 0.70908 0.43298 0.24501 0.0
C686 C 0.55404 0.41604 0.17596 0.0
C687 C 0.52903 0.40986 0.22306 0.0
C688 C 0.5925 0.41694 0.18693 0.0
C689 C 0.60669 0.41145 0.24508 0.0
C690 C 0.58157 0.40561 0.29208 0.0
C691 C 0.5433 0.4049 0.28127 0.0
H692 H 0.9671 0.6196 0.60703 0.0
H693 H 0.97697 0.62009 0.8013 0.0
H694 H 0.8994 0.61726 0.61627 0.0
H695 H 0.90954 0.61841 0.8105 0.0
H696 H 0.78795 0.58967 0.80679 0.0
H697 H 0.85552 0.58778 0.79546 0.0
H698 H 0.84874 0.64871 0.64674 0.0
H699 H 0.78136 0.6501 0.65717 0.0
C700 C 0.95485 0.61924 0.65166 0.0
C701 C 0.97745 0.62022 0.70339 0.0
C702 C 0.91604 0.61803 0.657 0.0
C703 C 0.89895 0.61779 0.71417 0.0
C704 C 0.92169 0.61821 0.7658 0.0
C705 C 0.96042 0.61936 0.76047 0.0
C706 C 0.8009 0.60264 0.77167 0.0
C707 C 0.77923 0.62009 0.73299 0.0
C708 C 0.83966 0.60164 0.76528 0.0
C709 C 0.85763 0.61807 0.72009 0.0
C710 C 0.83585 0.63542 0.68139 0.0
C711 C 0.79717 0.6364 0.68773 0.0
H712 H 0.21706 0.09338 0.73001 0.0
H713 H 0.22378 0.14655 0.89097 0.0
H714 H 0.14933 0.0922 0.73924 0.0
H715 H 0.15626 0.14583 0.89948 0.0
H716 H 0.03625 0.11699 0.92922 0.0
H717 H 0.10401 0.11388 0.92186 0.0
H718 H 0.09676 0.12503 0.72867 0.0
H719 H 0.02929 0.1276 0.73584 0.0
C720 C 0.20412 0.10488 0.76724 0.0
C721 C 0.22587 0.12015 0.80962 0.0
C722 C 0.16527 0.10429 0.77244 0.0
C723 C 0.14729 0.11892 0.82015 0.0
C724 C 0.16914 0.13396 0.8627 0.0
C725 C 0.20791 0.13457 0.8575 0.0
C726 C 0.04915 0.11871 0.8852 0.0
C727 C 0.02734 0.12274 0.8332 0.0
C728 C 0.08799 0.11703 0.88097 0.0
C729 C 0.10589 0.1193 0.82465 0.0
C730 C 0.08395 0.12283 0.77265 0.0
C731 C 0.0452 0.12451 0.77687 0.0
H732 H 0.48125 0.898 0.22727 0.0
H733 H 0.4619 0.92469 0.41163 0.0
H734 H 0.41479 0.89953 0.2075 0.0
H735 H 0.39472 0.92597 0.39166 0.0
H736 H 0.28008 0.95264 0.30969 0.0
H737 H 0.34689 0.95332 0.33119 0.0
H738 H 0.35952 0.87126 0.23657 0.0
H739 H 0.29305 0.87063 0.21478 0.0
C740 C 0.46281 0.90421 0.26373 0.0
C741 C 0.47697 0.91104 0.32123 0.0
C742 C 0.42459 0.90492 0.25238 0.0
C743 C 0.39936 0.91264 0.29806 0.0
C744 C 0.41345 0.92005 0.3554 0.0
C745 C 0.45188 0.91914 0.36696 0.0
C746 C 0.29716 0.93481 0.29323 0.0
C747 C 0.28118 0.9116 0.26032 0.0
C748 C 0.33539 0.9351 0.306 0.0
C749 C 0.35856 0.91235 0.28563 0.0
C750 C 0.34256 0.88929 0.25239 0.0
C751 C 0.30438 0.88888 0.24004 0.0
H752 H 0.47753 0.62123 0.73835 0.0
H753 H 0.46749 0.62077 0.93257 0.0
H754 H 0.4101 0.6195 0.72886 0.0
H755 H 0.39981 0.61839 0.92305 0.0
H756 H 0.28166 0.65088 0.88179 0.0
H757 H 0.34903 0.6497 0.89239 0.0
H758 H 0.35613 0.58878 0.74365 0.0
H759 H 0.28854 0.59046 0.73215 0.0
C760 C 0.46094 0.62051 0.77911 0.0
C761 C 0.47793 0.62138 0.83626 0.0
C762 C 0.42221 0.61933 0.77362 0.0
C763 C 0.39943 0.61889 0.82514 0.0
C764 C 0.41647 0.61917 0.88238 0.0
C765 C 0.45528 0.62041 0.88789 0.0
C766 C 0.29753 0.63723 0.85125 0.0
C767 C 0.27967 0.62086 0.80595 0.0
C768 C 0.33622 0.63636 0.8577 0.0
C769 C 0.35809 0.61907 0.81906 0.0
C770 C 0.3402 0.60259 0.77379 0.0
C771 C 0.30143 0.60348 0.7673 0.0
H772 H 0.20897 0.37862 0.19912 0.0
H773 H 0.22592 0.45185 0.31958 0.0
H774 H 0.14255 0.3794 0.22156 0.0
H775 H 0.15924 0.4526 0.34192 0.0
H776 H 0.04413 0.41914 0.41502 0.0
H777 H 0.11114 0.42076 0.39385 0.0
H778 H 0.08841 0.41197 0.20342 0.0
H779 H 0.02203 0.41026 0.22422 0.0
C780 C 0.19853 0.39498 0.23017 0.0
C781 C 0.22278 0.41517 0.25748 0.0
C782 C 0.16042 0.39548 0.24289 0.0
C783 C 0.14564 0.41605 0.28359 0.0
C784 C 0.16985 0.43632 0.31084 0.0
C785 C 0.20798 0.43601 0.29764 0.0
C786 C 0.05352 0.4176 0.36869 0.0
C787 C 0.02773 0.41438 0.3214 0.0
C788 C 0.09183 0.41869 0.35654 0.0
C789 C 0.10505 0.41629 0.29696 0.0
C790 C 0.07917 0.41346 0.24983 0.0
C791 C 0.04105 0.41264 0.26185 0.0
H792 H 0.79661 0.87831 0.34059 0.0
H793 H 0.77798 0.94925 0.2152 0.0
H794 H 0.86303 0.87982 0.31813 0.0
H795 H 0.84463 0.95075 0.19288 0.0
H796 H 0.96082 0.91867 0.12263 0.0
H797 H 0.89376 0.91932 0.14337 0.0
H798 H 0.9163 0.91344 0.33433 0.0
H799 H 0.98276 0.91269 0.31393 0.0
C800 C 0.80667 0.8943 0.30839 0.0
C801 C 0.78194 0.91365 0.27975 0.0
C802 C 0.84479 0.89523 0.29567 0.0
C803 C 0.8591 0.9154 0.25367 0.0
C804 C 0.8344 0.93478 0.22499 0.0
C805 C 0.79627 0.93404 0.23815 0.0
C806 C 0.95139 0.91758 0.16898 0.0
C807 C 0.97717 0.91544 0.21654 0.0
C808 C 0.91303 0.91811 0.18089 0.0
C809 C 0.89973 0.91621 0.24051 0.0
C810 C 0.92559 0.91449 0.28789 0.0
C811 C 0.96376 0.91423 0.2761 0.0
H812 H 0.54215 0.11663 0.62176 0.0
H813 H 0.52214 0.1305 0.81187 0.0
H814 H 0.60934 0.11478 0.64158 0.0
H815 H 0.58858 0.12844 0.83136 0.0
H816 H 0.70943 0.15977 0.83187 0.0
H817 H 0.64301 0.15963 0.80961 0.0
H818 H 0.65741 0.08396 0.69513 0.0
H819 H 0.72415 0.08414 0.71712 0.0
C820 C 0.55203 0.11923 0.66763 0.0
C821 C 0.5268 0.12394 0.71511 0.0
C822 C 0.59043 0.118 0.67904 0.0
C823 C 0.60426 0.12171 0.73801 0.0
C824 C 0.5789 0.12597 0.78534 0.0
C825 C 0.54072 0.12699 0.77409 0.0
C826 C 0.69849 0.14303 0.8021 0.0
C827 C 0.72212 0.12196 0.77639 0.0
C828 C 0.66038 0.14289 0.78948 0.0
C829 C 0.64494 0.12177 0.75059 0.0
C830 C 0.66853 0.10068 0.72478 0.0
C831 C 0.7067 0.10067 0.73778 0.0
loop_
_geom_bond_atom_site_label_1
_geom_bond_atom_site_label_2
_geom_bond_distance
_geom_bond_site_symmetry_2
_ccdc_geom_bond_type
Zn0 N4 2.020 . S
Zn0 O8 2.019 . S
Zn0 N10 2.119 . S
Zn0 O18 1.975 . S
C1 N2 1.334 . S
C1 N5 1.336 . S
N2 C1 1.334 . S
N2 C3 1.334 . S
C3 N2 1.334 . S
C3 N4 1.336 . S
N4 Zn0 2.020 . S
N4 C3 1.336 . S
N4 N5 1.354 . S
N5 C1 1.336 . S
N5 N4 1.354 . S
N5 Zn9 2.020 . S
C6 O7 1.244 . S
C6 O30 1.257 . S
O7 C6 1.244 . S
O8 Zn0 2.019 . S
O8 C28 1.257 . S
Zn9 N5 2.020 . S
Zn9 O16 1.975 . S
Zn9 N25 2.119 . S
Zn9 O30 2.019 . S
N10 Zn0 2.119 . S
N10 C12 1.334 . S
N10 C13 1.328 . S
C11 C12 1.391 . S
C11 N14 1.329 . S
C11 H32 0.930 . S
C12 N10 1.334 . S
C12 C11 1.391 . S
C12 H19 0.930 . S
C13 N10 1.328 . S
C13 C15 1.392 . S
C13 H20 0.930 . S
N14 C11 1.329 . S
N14 C15 1.331 . S
C15 C13 1.392 . S
C15 N14 1.331 . S
O16 Zn9 1.975 . S
O16 C17 1.252 . S
C17 O16 1.252 . S
C17 O18 1.252 . S
O18 Zn0 1.975 . S
O18 C17 1.252 . S
H19 C12 0.930 . S
H20 C13 0.930 . S
C21 C22 1.392 . S
C21 N25 1.328 . S
C21 H27 0.930 . S
C22 C21 1.392 . S
C22 N26 1.331 . S
C23 C24 1.391 . S
C23 N26 1.329 . S
C23 H33 0.930 . S
C24 C23 1.391 . S
C24 N25 1.334 . S
C24 H31 0.930 . S
N25 Zn9 2.119 . S
N25 C21 1.328 . S
N25 C24 1.334 . S
N26 C22 1.331 . S
N26 C23 1.329 . S
H27 C21 0.930 . S
C28 O8 1.257 . S
C28 O29 1.244 . S
O29 C28 1.244 . S
O30 C6 1.257 . S
O30 Zn9 2.019 . S
H31 C24 0.930 . S
H32 C11 0.930 . S
H33 C23 0.930 . S
Zn34 N38 2.020 . S
Zn34 O42 2.019 . S
Zn34 N44 2.119 . S
Zn34 O52 1.975 . S
C35 N36 1.334 . S
C35 N39 1.336 . S
N36 C35 1.334 . S
N36 C37 1.334 . S
C37 N36 1.334 . S
C37 N38 1.336 . S
N38 Zn34 2.020 . S
N38 C37 1.336 . S
N38 N39 1.354 . S
N39 C35 1.336 . S
N39 N38 1.354 . S
N39 Zn43 2.020 . S
C40 O41 1.244 1_655 S
C40 O64 1.257 1_655 S
O41 C40 1.244 1_455 S
O42 Zn34 2.019 . S
O42 C62 1.257 . S
Zn43 N39 2.020 . S
Zn43 O50 1.975 . S
Zn43 N59 2.119 . S
Zn43 O64 2.019 . S
N44 Zn34 2.119 . S
N44 C46 1.334 . S
N44 C47 1.328 . S
C45 C46 1.391 . S
C45 N48 1.329 . S
C45 H66 0.930 . S
C46 N44 1.334 . S
C46 C45 1.391 . S
C46 H53 0.930 . S
C47 N44 1.328 . S
C47 C49 1.392 . S
C47 H54 0.930 . S
N48 C45 1.329 . S
N48 C49 1.331 . S
C49 C47 1.392 . S
C49 N48 1.331 . S
O50 Zn43 1.975 . S
O50 C51 1.252 . S
C51 O50 1.252 . S
C51 O52 1.252 . S
O52 Zn34 1.975 . S
O52 C51 1.252 . S
H53 C46 0.930 . S
H54 C47 0.930 . S
C55 C56 1.392 . S
C55 N59 1.328 . S
C55 H61 0.930 . S
C56 C55 1.392 . S
C56 N60 1.331 . S
C57 C58 1.391 . S
C57 N60 1.329 . S
C57 H67 0.930 . S
C58 C57 1.391 . S
C58 N59 1.334 . S
C58 H65 0.930 . S
N59 Zn43 2.119 . S
N59 C55 1.328 . S
N59 C58 1.334 . S
N60 C56 1.331 . S
N60 C57 1.329 . S
H61 C55 0.930 . S
C62 O42 1.257 . S
C62 O63 1.244 . S
O63 C62 1.244 . S
O64 C40 1.257 1_455 S
O64 Zn43 2.019 . S
H65 C58 0.930 . S
H66 C45 0.930 . S
H67 C57 0.930 . S
Zn68 N72 2.020 . S
Zn68 O76 2.019 . S
Zn68 N78 2.119 . S
Zn68 O86 1.975 . S
C69 N70 1.334 . S
C69 N73 1.336 . S
N70 C69 1.334 . S
N70 C71 1.334 . S
C71 N70 1.334 . S
C71 N72 1.336 . S
N72 Zn68 2.020 . S
N72 C71 1.336 . S
N72 N73 1.354 . S
N73 C69 1.336 . S
N73 N72 1.354 . S
N73 Zn77 2.020 . S
C74 O75 1.244 . S
C74 O98 1.257 . S
O75 C74 1.244 . S
O76 Zn68 2.019 . S
O76 C96 1.257 1_655 S
Zn77 N73 2.020 . S
Zn77 O84 1.975 . S
Zn77 N93 2.119 . S
Zn77 O98 2.019 . S
N78 Zn68 2.119 . S
N78 C80 1.334 . S
N78 C81 1.328 . S
C79 C80 1.391 . S
C79 N82 1.329 . S
C79 H100 0.930 . S
C80 N78 1.334 . S
C80 C79 1.391 . S
C80 H87 0.930 . S
C81 N78 1.328 . S
C81 C83 1.392 . S
C81 H88 0.930 . S
N82 C79 1.329 . S
N82 C83 1.331 . S
C83 C81 1.392 . S
C83 N82 1.331 . S
O84 Zn77 1.975 . S
O84 C85 1.252 . S
C85 O84 1.252 . S
C85 O86 1.252 . S
O86 Zn68 1.975 . S
O86 C85 1.252 . S
H87 C80 0.930 . S
H88 C81 0.930 . S
C89 C90 1.392 . S
C89 N93 1.328 . S
C89 H95 0.930 . S
C90 C89 1.392 . S
C90 N94 1.331 . S
C91 C92 1.391 . S
C91 N94 1.329 . S
C91 H101 0.930 . S
C92 C91 1.391 . S
C92 N93 1.334 . S
C92 H99 0.930 . S
N93 Zn77 2.119 . S
N93 C89 1.328 . S
N93 C92 1.334 . S
N94 C90 1.331 . S
N94 C91 1.329 . S
H95 C89 0.930 . S
C96 O76 1.257 1_455 S
C96 O97 1.244 1_455 S
O97 C96 1.244 1_655 S
O98 C74 1.257 . S
O98 Zn77 2.019 . S
H99 C92 0.930 . S
H100 C79 0.930 . S
H101 C91 0.930 . S
Zn102 N106 2.020 . S
Zn102 O110 2.019 . S
Zn102 N112 2.119 . S
Zn102 O120 1.975 . S
C103 N104 1.334 . S
C103 N107 1.336 . S
N104 C103 1.334 . S
N104 C105 1.334 . S
C105 N104 1.334 . S
C105 N106 1.336 . S
N106 Zn102 2.020 . S
N106 C105 1.336 . S
N106 N107 1.354 . S
N107 C103 1.336 . S
N107 N106 1.354 . S
N107 Zn111 2.020 . S
C108 O109 1.244 . S
C108 O132 1.257 . S
O109 C108 1.244 . S
O110 Zn102 2.019 . S
O110 C130 1.257 . S
Zn111 N107 2.020 . S
Zn111 O118 1.975 . S
Zn111 N127 2.119 . S
Zn111 O132 2.019 . S
N112 Zn102 2.119 . S
N112 C114 1.334 . S
N112 C115 1.328 . S
C113 C114 1.391 . S
C113 N116 1.329 . S
C113 H134 0.930 . S
C114 N112 1.334 . S
C114 C113 1.391 . S
C114 H121 0.930 . S
C115 N112 1.328 . S
C115 C117 1.392 . S
C115 H122 0.930 . S
N116 C113 1.329 . S
N116 C117 1.331 . S
C117 C115 1.392 . S
C117 N116 1.331 . S
O118 Zn111 1.975 . S
O118 C119 1.252 . S
C119 O118 1.252 . S
C119 O120 1.252 . S
O120 Zn102 1.975 . S
O120 C119 1.252 . S
H121 C114 0.930 . S
H122 C115 0.930 . S
C123 C124 1.392 . S
C123 N127 1.328 . S
C123 H129 0.930 . S
C124 C123 1.392 . S
C124 N128 1.331 . S
C125 C126 1.391 . S
C125 N128 1.329 . S
C125 H135 0.930 . S
C126 C125 1.391 . S
C126 N127 1.334 . S
C126 H133 0.930 . S
N127 Zn111 2.119 . S
N127 C123 1.328 . S
N127 C126 1.334 . S
N128 C124 1.331 . S
N128 C125 1.329 . S
H129 C123 0.930 . S
C130 O110 1.257 . S
C130 O131 1.244 . S
O131 C130 1.244 . S
O132 C108 1.257 . S
O132 Zn111 2.019 . S
H133 C126 0.930 . S
H134 C113 0.930 . S
H135 C125 0.930 . S
Zn136 N140 2.020 . S
Zn136 O144 2.019 . S
Zn136 N146 2.119 . S
Zn136 O154 1.975 . S
C137 N138 1.334 . S
C137 N141 1.336 . S
N138 C137 1.334 . S
N138 C139 1.334 . S
C139 N138 1.334 . S
C139 N140 1.336 . S
N140 Zn136 2.020 . S
N140 C139 1.336 . S
N140 N141 1.354 . S
N141 C137 1.336 . S
N141 N140 1.354 . S
N141 Zn145 2.020 . S
C142 O143 1.244 . S
C142 O166 1.257 . S
O143 C142 1.244 . S
O144 Zn136 2.019 . S
O144 C164 1.257 . S
Zn145 N141 2.020 . S
Zn145 O152 1.975 . S
Zn145 N161 2.119 . S
Zn145 O166 2.019 . S
N146 Zn136 2.119 . S
N146 C148 1.334 . S
N146 C149 1.328 . S
C147 C148 1.391 . S
C147 N150 1.329 . S
C147 H168 0.930 . S
C148 N146 1.334 . S
C148 C147 1.391 . S
C148 H155 0.930 . S
C149 N146 1.328 . S
C149 C151 1.392 . S
C149 H156 0.930 . S
N150 C147 1.329 . S
N150 C151 1.331 . S
C151 C149 1.392 . S
C151 N150 1.331 . S
O152 Zn145 1.975 . S
O152 C153 1.252 . S
C153 O152 1.252 . S
C153 O154 1.252 . S
O154 Zn136 1.975 . S
O154 C153 1.252 . S
H155 C148 0.930 . S
H156 C149 0.930 . S
C157 C158 1.392 . S
C157 N161 1.328 . S
C157 H163 0.930 . S
C158 C157 1.392 . S
C158 N162 1.331 . S
C159 C160 1.391 . S
C159 N162 1.329 . S
C159 H169 0.930 . S
C160 C159 1.391 . S
C160 N161 1.334 . S
C160 H167 0.930 . S
N161 Zn145 2.119 . S
N161 C157 1.328 . S
N161 C160 1.334 . S
N162 C158 1.331 . S
N162 C159 1.329 . S
H163 C157 0.930 . S
C164 O144 1.257 . S
C164 O165 1.244 . S
O165 C164 1.244 . S
O166 C142 1.257 . S
O166 Zn145 2.019 . S
H167 C160 0.930 . S
H168 C147 0.930 . S
H169 C159 0.930 . S
Zn170 N174 2.020 . S
Zn170 O178 2.019 . S
Zn170 N180 2.119 . S
Zn170 O188 1.975 . S
C171 N172 1.334 . S
C171 N175 1.336 . S
N172 C171 1.334 . S
N172 C173 1.334 . S
C173 N172 1.334 . S
C173 N174 1.336 . S
N174 Zn170 2.020 . S
N174 C173 1.336 . S
N174 N175 1.354 . S
N175 C171 1.336 . S
N175 N174 1.354 . S
N175 Zn179 2.020 . S
C176 O177 1.244 . S
C176 O200 1.257 . S
O177 C176 1.244 . S
O178 Zn170 2.019 . S
O178 C198 1.257 1_655 S
Zn179 N175 2.020 . S
Zn179 O186 1.975 . S
Zn179 N195 2.119 . S
Zn179 O200 2.019 . S
N180 Zn170 2.119 . S
N180 C182 1.334 . S
N180 C183 1.328 . S
C181 C182 1.391 . S
C181 N184 1.329 . S
C181 H202 0.930 . S
C182 N180 1.334 . S
C182 C181 1.391 . S
C182 H189 0.930 . S
C183 N180 1.328 . S
C183 C185 1.392 . S
C183 H190 0.930 . S
N184 C181 1.329 . S
N184 C185 1.331 . S
C185 C183 1.392 . S
C185 N184 1.331 . S
O186 Zn179 1.975 . S
O186 C187 1.252 . S
C187 O186 1.252 . S
C187 O188 1.252 . S
O188 Zn170 1.975 . S
O188 C187 1.252 . S
H189 C182 0.930 . S
H190 C183 0.930 . S
C191 C192 1.392 . S
C191 N195 1.328 . S
C191 H197 0.930 . S
C192 C191 1.392 . S
C192 N196 1.331 . S
C193 C194 1.391 . S
C193 N196 1.329 . S
C193 H203 0.930 . S
C194 C193 1.391 . S
C194 N195 1.334 . S
C194 H201 0.930 . S
N195 Zn179 2.119 . S
N195 C191 1.328 . S
N195 C194 1.334 . S
N196 C192 1.331 . S
N196 C193 1.329 . S
H197 C191 0.930 . S
C198 O178 1.257 1_455 S
C198 O199 1.244 1_455 S
O199 C198 1.244 1_655 S
O200 C176 1.257 . S
O200 Zn179 2.019 . S
H201 C194 0.930 . S
H202 C181 0.930 . S
H203 C193 0.930 . S
Zn204 N208 2.020 . S
Zn204 O212 2.019 . S
Zn204 N214 2.119 . S
Zn204 O222 1.975 . S
C205 N206 1.334 . S
C205 N209 1.336 . S
N206 C205 1.334 . S
N206 C207 1.334 . S
C207 N206 1.334 . S
C207 N208 1.336 . S
N208 Zn204 2.020 . S
N208 C207 1.336 . S
N208 N209 1.354 . S
N209 C205 1.336 . S
N209 N208 1.354 . S
N209 Zn213 2.020 . S
C210 O211 1.244 1_655 S
C210 O234 1.257 1_655 S
O211 C210 1.244 1_455 S
O212 Zn204 2.019 . S
O212 C232 1.257 . S
Zn213 N209 2.020 . S
Zn213 O220 1.975 . S
Zn213 N229 2.119 . S
Zn213 O234 2.019 . S
N214 Zn204 2.119 . S
N214 C216 1.334 . S
N214 C217 1.328 . S
C215 C216 1.391 . S
C215 N218 1.329 . S
C215 H236 0.930 . S
C216 N214 1.334 . S
C216 C215 1.391 . S
C216 H223 0.930 . S
C217 N214 1.328 . S
C217 C219 1.392 . S
C217 H224 0.930 . S
N218 C215 1.329 . S
N218 C219 1.331 . S
C219 C217 1.392 . S
C219 N218 1.331 . S
O220 Zn213 1.975 . S
O220 C221 1.252 . S
C221 O220 1.252 . S
C221 O222 1.252 . S
O222 Zn204 1.975 . S
O222 C221 1.252 . S
H223 C216 0.930 . S
H224 C217 0.930 . S
C225 C226 1.392 . S
C225 N229 1.328 . S
C225 H231 0.930 . S
C226 C225 1.392 . S
C226 N230 1.331 . S
C227 C228 1.391 . S
C227 N230 1.329 . S
C227 H237 0.930 . S
C228 C227 1.391 . S
C228 N229 1.334 . S
C228 H235 0.930 . S
N229 Zn213 2.119 . S
N229 C225 1.328 . S
N229 C228 1.334 . S
N230 C226 1.331 . S
N230 C227 1.329 . S
H231 C225 0.930 . S
C232 O212 1.257 . S
C232 O233 1.244 . S
O233 C232 1.244 . S
O234 C210 1.257 1_455 S
O234 Zn213 2.019 . S
H235 C228 0.930 . S
H236 C215 0.930 . S
H237 C227 0.930 . S
Zn238 N242 2.020 . S
Zn238 O246 2.019 . S
Zn238 N248 2.119 . S
Zn238 O256 1.975 . S
C239 N240 1.334 . S
C239 N243 1.336 . S
N240 C239 1.334 . S
N240 C241 1.334 . S
C241 N240 1.334 . S
C241 N242 1.336 . S
N242 Zn238 2.020 . S
N242 C241 1.336 . S
N242 N243 1.354 . S
N243 C239 1.336 . S
N243 N242 1.354 . S
N243 Zn247 2.020 . S
C244 O245 1.244 . S
C244 O268 1.257 . S
O245 C244 1.244 . S
O246 Zn238 2.019 . S
O246 C266 1.257 . S
Zn247 N243 2.020 . S
Zn247 O254 1.975 . S
Zn247 N263 2.119 . S
Zn247 O268 2.019 . S
N248 Zn238 2.119 . S
N248 C250 1.334 . S
N248 C251 1.328 . S
C249 C250 1.391 . S
C249 N252 1.329 . S
C249 H270 0.930 . S
C250 N248 1.334 . S
C250 C249 1.391 . S
C250 H257 0.930 . S
C251 N248 1.328 . S
C251 C253 1.392 . S
C251 H258 0.930 . S
N252 C249 1.329 . S
N252 C253 1.331 . S
C253 C251 1.392 . S
C253 N252 1.331 . S
O254 Zn247 1.975 . S
O254 C255 1.252 . S
C255 O254 1.252 . S
C255 O256 1.252 . S
O256 Zn238 1.975 . S
O256 C255 1.252 . S
H257 C250 0.930 . S
H258 C251 0.930 . S
C259 C260 1.392 . S
C259 N263 1.328 . S
C259 H265 0.930 . S
C260 C259 1.392 . S
C260 N264 1.331 . S
C261 C262 1.391 . S
C261 N264 1.329 . S
C261 H271 0.930 . S
C262 C261 1.391 . S
C262 N263 1.334 . S
C262 H269 0.930 . S
N263 Zn247 2.119 . S
N263 C259 1.328 . S
N263 C262 1.334 . S
N264 C260 1.331 . S
N264 C261 1.329 . S
H265 C259 0.930 . S
C266 O246 1.257 . S
C266 O267 1.244 . S
O267 C266 1.244 . S
O268 C244 1.257 . S
O268 Zn247 2.019 . S
H269 C262 0.930 . S
H270 C249 0.930 . S
H271 C261 0.930 . S
H272 C280 0.950 . S
H273 C285 0.950 . S
H274 C282 0.950 . S
H275 C284 0.950 . S
H276 C286 0.950 . S
H277 C288 0.950 . S
H278 C290 0.950 . S
H279 C291 0.950 . S
C280 H272 0.950 . S
C280 C281 1.386 . S
C280 C282 1.391 . S
C281 C280 1.386 . S
C281 C285 1.393 . S
C282 H274 0.950 . S
C282 C280 1.391 . S
C282 C283 1.400 . S
C283 C282 1.400 . S
C283 C284 1.398 . S
C283 C289 1.491 . S
C284 H275 0.950 . S
C284 C283 1.398 . S
C284 C285 1.391 . S
C285 H273 0.950 . S
C285 C281 1.393 . S
C285 C284 1.391 . S
C286 H276 0.950 . S
C286 C287 1.386 . S
C286 C288 1.391 . S
C287 C286 1.386 . S
C287 C291 1.393 . S
C288 H277 0.950 . S
C288 C286 1.391 . S
C288 C289 1.400 1_556 S
C289 C283 1.491 . S
C289 C288 1.400 1_554 S
C289 C290 1.398 . S
C290 H278 0.950 . S
C290 C289 1.398 . S
C290 C291 1.391 1_554 S
C291 H279 0.950 . S
C291 C287 1.393 . S
C291 C290 1.391 1_556 S
H292 C300 0.950 . S
H293 C305 0.950 . S
H294 C302 0.950 . S
H295 C304 0.950 . S
H296 C306 0.950 . S
H297 C308 0.950 . S
H298 C310 0.950 . S
H299 C311 0.950 . S
C300 H292 0.950 . S
C300 C301 1.386 . S
C300 C302 1.391 . S
C301 C300 1.386 . S
C301 C305 1.393 . S
C302 H294 0.950 . S
C302 C300 1.391 . S
C302 C303 1.400 . S
C303 C302 1.400 . S
C303 C304 1.398 . S
C303 C309 1.491 . S
C304 H295 0.950 . S
C304 C303 1.398 . S
C304 C305 1.391 . S
C305 H293 0.950 . S
C305 C301 1.393 . S
C305 C304 1.391 . S
C306 H296 0.950 . S
C306 C307 1.386 . S
C306 C308 1.391 . S
C307 C306 1.386 . S
C307 C311 1.393 . S
C308 H297 0.950 . S
C308 C306 1.391 . S
C308 C309 1.400 . S
C309 C303 1.491 . S
C309 C308 1.400 . S
C309 C310 1.398 . S
C310 H298 0.950 . S
C310 C309 1.398 . S
C310 C311 1.391 . S
C311 H299 0.950 . S
C311 C307 1.393 . S
C311 C310 1.391 . S
H312 C320 0.950 . S
H313 C325 0.950 . S
H314 C322 0.950 . S
H315 C324 0.950 1_554 S
H316 C326 0.950 . S
H317 C328 0.939 1_545 S
H318 C330 0.950 . S
H319 C331 0.950 1_556 S
C320 H312 0.950 . S
C320 C321 1.386 . S
C320 C322 1.391 . S
C321 C320 1.386 . S
C321 C325 1.393 . S
C322 H314 0.950 . S
C322 C320 1.391 . S
C322 C323 1.400 . S
C323 C322 1.400 . S
C323 C324 1.398 . S
C323 C329 1.491 . S
C324 H315 0.950 1_556 S
C324 C323 1.398 . S
C324 C325 1.391 . S
C325 H313 0.950 . S
C325 C321 1.393 . S
C325 C324 1.391 . S
C326 H316 0.950 . S
C326 C327 1.386 . S
C326 C328 1.408 . S
C327 C326 1.386 . S
C327 C331 1.393 . S
C328 H317 0.939 1_565 S
C328 C326 1.408 . S
C328 C329 1.395 1_564 S
C329 C323 1.491 . S
C329 C328 1.395 1_546 S
C329 C330 1.398 1_545 S
C330 H318 0.950 . S
C330 C329 1.398 1_565 S
C330 C331 1.391 1_556 S
C331 H319 0.950 1_554 S
C331 C327 1.393 . S
C331 C330 1.391 1_554 S
H332 C340 0.950 . S
H333 C345 0.950 . S
H334 C342 0.950 . S
H335 C344 0.950 1_545 S
H336 C346 0.950 . S
H337 C348 0.950 . S
H338 C350 0.950 . S
H339 C351 0.945 1_565 S
C340 H332 0.950 . S
C340 C341 1.386 . S
C340 C342 1.391 . S
C341 C340 1.386 . S
C341 C345 1.393 . S
C342 H334 0.950 . S
C342 C340 1.391 . S
C342 C343 1.400 . S
C343 C342 1.400 . S
C343 C344 1.398 . S
C343 C349 1.491 . S
C344 H335 0.950 1_565 S
C344 C343 1.398 . S
C344 C345 1.391 . S
C345 H333 0.950 . S
C345 C341 1.393 . S
C345 C344 1.391 . S
C346 H336 0.950 . S
C346 C347 1.386 . S
C346 C348 1.391 . S
C347 C346 1.386 . S
C347 C351 1.402 . S
C348 H337 0.950 . S
C348 C346 1.391 . S
C348 C349 1.400 1_545 S
C349 C343 1.491 . S
C349 C348 1.400 1_565 S
C349 C350 1.398 . S
C350 H338 0.950 . S
C350 C349 1.398 . S
C350 C351 1.386 1_565 S
C351 H339 0.945 1_545 S
C351 C347 1.402 . S
C351 C350 1.386 1_545 S
H352 C360 0.950 . S
H353 C365 0.950 . S
H354 C362 0.950 . S
H355 C364 0.950 . S
H356 C366 0.950 . S
H357 C368 0.950 . S
H358 C370 0.950 . S
H359 C371 0.950 . S
C360 H352 0.950 . S
C360 C361 1.386 . S
C360 C362 1.391 . S
C361 C360 1.386 . S
C361 C365 1.393 . S
C362 H354 0.950 . S
C362 C360 1.391 . S
C362 C363 1.400 . S
C363 C362 1.400 . S
C363 C364 1.398 . S
C363 C369 1.491 . S
C364 H355 0.950 . S
C364 C363 1.398 . S
C364 C365 1.391 . S
C365 H353 0.950 . S
C365 C361 1.393 . S
C365 C364 1.391 . S
C366 H356 0.950 . S
C366 C367 1.386 . S
C366 C368 1.391 . S
C367 C366 1.386 . S
C367 C371 1.393 . S
C368 H357 0.950 . S
C368 C366 1.391 . S
C368 C369 1.400 1_554 S
C369 C363 1.491 . S
C369 C368 1.400 1_556 S
C369 C370 1.398 . S
C370 H358 0.950 . S
C370 C369 1.398 . S
C370 C371 1.391 1_556 S
C371 H359 0.950 . S
C371 C367 1.393 . S
C371 C370 1.391 1_554 S
H372 C380 0.950 . S
H373 C385 0.950 . S
H374 C382 0.950 . S
H375 C384 0.950 . S
H376 C386 0.950 . S
H377 C388 0.950 . S
H378 C390 0.950 . S
H379 C391 0.950 . S
C380 H372 0.950 . S
C380 C381 1.386 . S
C380 C382 1.391 . S
C381 C380 1.386 . S
C381 C385 1.393 . S
C382 H374 0.950 . S
C382 C380 1.391 . S
C382 C383 1.400 . S
C383 C382 1.400 . S
C383 C384 1.398 . S
C383 C389 1.491 . S
C384 H375 0.950 . S
C384 C383 1.398 . S
C384 C385 1.391 . S
C385 H373 0.950 . S
C385 C381 1.393 . S
C385 C384 1.391 . S
C386 H376 0.950 . S
C386 C387 1.386 . S
C386 C388 1.391 . S
C387 C386 1.386 . S
C387 C391 1.393 . S
C388 H377 0.950 . S
C388 C386 1.391 . S
C388 C389 1.400 . S
C389 C383 1.491 . S
C389 C388 1.400 . S
C389 C390 1.398 . S
C390 H378 0.950 . S
C390 C389 1.398 . S
C390 C391 1.391 . S
C391 H379 0.950 . S
C391 C387 1.393 . S
C391 C390 1.391 . S
H392 C400 0.950 1_554 S
H393 C405 0.941 1_565 S
H394 C402 0.950 . S
H395 C404 0.950 . S
H396 C406 0.950 . S
H397 C408 0.950 1_556 S
H398 C410 0.950 1_545 S
H399 C411 0.950 . S
C400 H392 0.950 1_556 S
C400 C401 1.386 . S
C400 C402 1.391 1_556 S
C401 C400 1.386 . S
C401 C405 1.393 . S
C402 H394 0.950 . S
C402 C400 1.391 1_554 S
C402 C403 1.400 1_545 S
C403 C402 1.400 1_565 S
C403 C404 1.398 1_554 S
C403 C409 1.491 . S
C404 H395 0.950 . S
C404 C403 1.398 1_556 S
C404 C405 1.391 1_565 S
C405 H393 0.941 1_545 S
C405 C401 1.393 . S
C405 C404 1.391 1_545 S
C406 H396 0.950 . S
C406 C407 1.386 . S
C406 C408 1.391 . S
C407 C406 1.386 . S
C407 C411 1.393 . S
C408 H397 0.950 1_554 S
C408 C406 1.391 . S
C408 C409 1.400 . S
C409 C403 1.491 . S
C409 C408 1.400 . S
C409 C410 1.398 . S
C410 H398 0.950 1_565 S
C410 C409 1.398 . S
C410 C411 1.391 . S
C411 H399 0.950 . S
C411 C407 1.393 . S
C411 C410 1.391 . S
H412 C420 0.950 . S
H413 C425 0.950 . S
H414 C422 0.950 . S
H415 C424 0.950 1_565 S
H416 C426 0.950 . S
H417 C428 0.950 . S
H418 C430 0.950 . S
H419 C431 0.950 . S
C420 H412 0.950 . S
C420 C421 1.386 . S
C420 C422 1.391 . S
C421 C420 1.386 . S
C421 C425 1.393 . S
C422 H414 0.950 . S
C422 C420 1.391 . S
C422 C423 1.400 . S
C423 C422 1.400 . S
C423 C424 1.398 . S
C423 C429 1.491 . S
C424 H415 0.950 1_545 S
C424 C423 1.398 . S
C424 C425 1.391 . S
C425 H413 0.950 . S
C425 C421 1.393 . S
C425 C424 1.391 . S
C426 H416 0.950 . S
C426 C427 1.386 . S
C426 C428 1.391 . S
C427 C426 1.386 . S
C427 C431 1.393 1_565 S
C428 H417 0.950 . S
C428 C426 1.391 . S
C428 C429 1.400 1_565 S
C429 C423 1.491 . S
C429 C428 1.400 1_545 S
C429 C430 1.398 . S
C430 H418 0.950 . S
C430 C429 1.398 . S
C430 C431 1.391 . S
C431 H419 0.950 . S
C431 C427 1.393 1_545 S
C431 C430 1.391 . S
H432 C440 0.950 . S
H433 C445 0.950 . S
H434 C442 0.950 1_556 S
H435 C444 0.950 . S
H436 C446 0.950 . S
H437 C448 0.950 1_554 S
H438 C450 0.950 . S
H439 C451 0.950 . S
C440 H432 0.950 . S
C440 C441 1.386 . S
C440 C442 1.391 . S
C441 C440 1.386 . S
C441 C445 1.393 . S
C442 H434 0.950 1_554 S
C442 C440 1.391 . S
C442 C443 1.400 . S
C443 C442 1.400 . S
C443 C444 1.398 . S
C443 C449 1.491 1_554 S
C444 H435 0.950 . S
C444 C443 1.398 . S
C444 C445 1.391 . S
C445 H433 0.950 . S
C445 C441 1.393 . S
C445 C444 1.391 . S
C446 H436 0.950 . S
C446 C447 1.386 . S
C446 C448 1.391 . S
C447 C446 1.386 . S
C447 C451 1.393 . S
C448 H437 0.950 1_556 S
C448 C446 1.391 . S
C448 C449 1.400 . S
C449 C443 1.491 1_556 S
C449 C448 1.400 . S
C449 C450 1.398 . S
C450 H438 0.950 . S
C450 C449 1.398 . S
C450 C451 1.391 . S
C451 H439 0.950 . S
C451 C447 1.393 . S
C451 C450 1.391 . S
H452 C460 0.950 . S
H453 C465 0.950 . S
H454 C462 0.950 . S
H455 C464 0.950 . S
H456 C466 0.950 . S
H457 C468 0.950 . S
H458 C470 0.950 . S
H459 C471 0.950 . S
C460 H452 0.950 . S
C460 C461 1.386 . S
C460 C462 1.391 . S
C461 C460 1.386 . S
C461 C465 1.393 . S
C462 H454 0.950 . S
C462 C460 1.391 . S
C462 C463 1.400 . S
C463 C462 1.400 . S
C463 C464 1.398 . S
C463 C469 1.491 1_655 S
C464 H455 0.950 . S
C464 C463 1.398 . S
C464 C465 1.391 . S
C465 H453 0.950 . S
C465 C461 1.393 . S
C465 C464 1.391 . S
C466 H456 0.950 . S
C466 C467 1.386 . S
C466 C468 1.391 . S
C467 C466 1.386 . S
C467 C471 1.393 . S
C468 H457 0.950 . S
C468 C466 1.391 . S
C468 C469 1.400 . S
C469 C463 1.491 1_455 S
C469 C468 1.400 . S
C469 C470 1.398 . S
C470 H458 0.950 . S
C470 C469 1.398 . S
C470 C471 1.391 . S
C471 H459 0.950 . S
C471 C467 1.393 . S
C471 C470 1.391 . S
H472 C480 0.950 . S
H473 C485 0.950 . S
H474 C482 0.950 . S
H475 C484 0.950 1_545 S
H476 C486 0.950 . S
H477 C488 0.950 . S
H478 C490 0.950 1_565 S
H479 C491 0.950 . S
C480 H472 0.950 . S
C480 C481 1.386 . S
C480 C482 1.391 1_554 S
C481 C480 1.386 . S
C481 C485 1.393 . S
C482 H474 0.950 . S
C482 C480 1.391 1_556 S
C482 C483 1.400 1_556 S
C483 C482 1.400 1_554 S
C483 C484 1.398 . S
C483 C489 1.491 1_464 S
C484 H475 0.950 1_565 S
C484 C483 1.398 . S
C484 C485 1.391 . S
C485 H473 0.950 . S
C485 C481 1.393 . S
C485 C484 1.391 . S
C486 H476 0.950 . S
C486 C487 1.386 . S
C486 C488 1.391 1_556 S
C487 C486 1.386 . S
C487 C491 1.393 . S
C488 H477 0.950 . S
C488 C486 1.391 1_554 S
C488 C489 1.400 1_554 S
C489 C483 1.491 1_646 S
C489 C488 1.400 1_556 S
C489 C490 1.398 . S
C490 H478 0.950 1_545 S
C490 C489 1.398 . S
C490 C491 1.391 . S
C491 H479 0.950 . S
C491 C487 1.393 . S
C491 C490 1.391 . S
H492 C500 0.950 . S
H493 C505 0.950 . S
H494 C502 0.950 . S
H495 C504 0.950 1_565 S
H496 C506 0.950 . S
H497 C508 0.950 . S
H498 C510 0.950 1_545 S
H499 C511 0.950 . S
C500 H492 0.950 . S
C500 C501 1.386 . S
C500 C502 1.391 . S
C501 C500 1.386 . S
C501 C505 1.393 . S
C502 H494 0.950 . S
C502 C500 1.391 . S
C502 C503 1.400 . S
C503 C502 1.400 . S
C503 C504 1.398 . S
C503 C509 1.491 1_545 S
C504 H495 0.950 1_545 S
C504 C503 1.398 . S
C504 C505 1.391 . S
C505 H493 0.950 . S
C505 C501 1.393 . S
C505 C504 1.391 . S
C506 H496 0.950 . S
C506 C507 1.386 . S
C506 C508 1.391 . S
C507 C506 1.386 . S
C507 C511 1.393 . S
C508 H497 0.950 . S
C508 C506 1.391 . S
C508 C509 1.400 . S
C509 C503 1.491 1_565 S
C509 C508 1.400 . S
C509 C510 1.398 . S
C510 H498 0.950 1_565 S
C510 C509 1.398 . S
C510 C511 1.391 . S
C511 H499 0.950 . S
C511 C507 1.393 . S
C511 C510 1.391 . S
H512 C520 0.950 . S
H513 C525 0.950 . S
H514 C522 0.950 . S
H515 C524 0.950 . S
H516 C526 0.950 . S
H517 C528 0.950 . S
H518 C530 0.950 . S
H519 C531 0.950 . S
C520 H512 0.950 . S
C520 C521 1.386 . S
C520 C522 1.391 . S
C521 C520 1.386 . S
C521 C525 1.393 . S
C522 H514 0.950 . S
C522 C520 1.391 . S
C522 C523 1.400 . S
C523 C522 1.400 . S
C523 C524 1.398 . S
C523 C529 1.491 . S
C524 H515 0.950 . S
C524 C523 1.398 . S
C524 C525 1.391 . S
C525 H513 0.950 . S
C525 C521 1.393 . S
C525 C524 1.391 . S
C526 H516 0.950 . S
C526 C527 1.386 . S
C526 C528 1.391 . S
C527 C526 1.386 . S
C527 C531 1.393 1_554 S
C528 H517 0.950 . S
C528 C526 1.391 . S
C528 C529 1.400 1_554 S
C529 C523 1.491 . S
C529 C528 1.400 1_556 S
C529 C530 1.398 . S
C530 H518 0.950 . S
C530 C529 1.398 . S
C530 C531 1.391 . S
C531 H519 0.950 . S
C531 C527 1.393 1_556 S
C531 C530 1.391 . S
H532 C540 0.950 . S
H533 C545 0.950 . S
H534 C542 0.950 . S
H535 C544 0.950 . S
H536 C546 0.950 . S
H537 C548 0.950 . S
H538 C550 0.950 . S
H539 C551 0.950 . S
C540 H532 0.950 . S
C540 C541 1.386 . S
C540 C542 1.391 . S
C541 C540 1.386 . S
C541 C545 1.393 . S
C542 H534 0.950 . S
C542 C540 1.391 . S
C542 C543 1.400 . S
C543 C542 1.400 . S
C543 C544 1.398 . S
C543 C549 1.491 . S
C544 H535 0.950 . S
C544 C543 1.398 . S
C544 C545 1.391 . S
C545 H533 0.950 . S
C545 C541 1.393 . S
C545 C544 1.391 . S
C546 H536 0.950 . S
C546 C547 1.386 . S
C546 C548 1.391 . S
C547 C546 1.386 . S
C547 C551 1.393 . S
C548 H537 0.950 . S
C548 C546 1.391 . S
C548 C549 1.400 . S
C549 C543 1.491 . S
C549 C548 1.400 . S
C549 C550 1.398 . S
C550 H538 0.950 . S
C550 C549 1.398 . S
C550 C551 1.391 . S
C551 H539 0.950 . S
C551 C547 1.393 . S
C551 C550 1.391 . S
H552 C560 0.950 . S
H553 C565 0.950 . S
H554 C562 0.950 . S
H555 C564 0.950 . S
H556 C566 0.950 . S
H557 C568 0.950 . S
H558 C570 0.950 . S
H559 C571 0.950 . S
C560 H552 0.950 . S
C560 C561 1.386 . S
C560 C562 1.391 . S
C561 C560 1.386 . S
C561 C565 1.393 1_556 S
C562 H554 0.950 . S
C562 C560 1.391 . S
C562 C563 1.400 1_556 S
C563 C562 1.400 1_554 S
C563 C564 1.398 . S
C563 C569 1.491 . S
C564 H555 0.950 . S
C564 C563 1.398 . S
C564 C565 1.391 . S
C565 H553 0.950 . S
C565 C561 1.393 1_554 S
C565 C564 1.391 . S
C566 H556 0.950 . S
C566 C567 1.386 . S
C566 C568 1.391 . S
C567 C566 1.386 . S
C567 C571 1.393 . S
C568 H557 0.950 . S
C568 C566 1.391 . S
C568 C569 1.400 . S
C569 C563 1.491 . S
C569 C568 1.400 . S
C569 C570 1.398 . S
C570 H558 0.950 . S
C570 C569 1.398 . S
C570 C571 1.391 . S
C571 H559 0.950 . S
C571 C567 1.393 . S
C571 C570 1.391 . S
H572 C580 0.950 . S
H573 C585 0.950 . S
H574 C582 0.950 . S
H575 C584 0.950 . S
H576 C586 0.950 . S
H577 C588 0.950 . S
H578 C590 0.950 . S
H579 C591 0.950 . S
C580 H572 0.950 . S
C580 C581 1.386 . S
C580 C582 1.391 . S
C581 C580 1.386 . S
C581 C585 1.393 . S
C582 H574 0.950 . S
C582 C580 1.391 . S
C582 C583 1.400 . S
C583 C582 1.400 . S
C583 C584 1.398 . S
C583 C589 1.491 . S
C584 H575 0.950 . S
C584 C583 1.398 . S
C584 C585 1.391 . S
C585 H573 0.950 . S
C585 C581 1.393 . S
C585 C584 1.391 . S
C586 H576 0.950 . S
C586 C587 1.386 . S
C586 C588 1.391 . S
C587 C586 1.386 . S
C587 C591 1.393 . S
C588 H577 0.950 . S
C588 C586 1.391 . S
C588 C589 1.400 . S
C589 C583 1.491 . S
C589 C588 1.400 . S
C589 C590 1.398 . S
C590 H578 0.950 . S
C590 C589 1.398 . S
C590 C591 1.391 . S
C591 H579 0.950 . S
C591 C587 1.393 . S
C591 C590 1.391 . S
H592 C600 0.950 . S
H593 C605 0.950 . S
H594 C602 0.950 . S
H595 C604 0.950 . S
H596 C606 0.950 . S
H597 C608 0.950 . S
H598 C610 0.950 . S
H599 C611 0.950 . S
C600 H592 0.950 . S
C600 C601 1.386 1_554 S
C600 C602 1.391 . S
C601 C600 1.386 1_556 S
C601 C605 1.393 . S
C602 H594 0.950 . S
C602 C600 1.391 . S
C602 C603 1.400 . S
C603 C602 1.400 . S
C603 C604 1.398 1_554 S
C603 C609 1.491 . S
C604 H595 0.950 . S
C604 C603 1.398 1_556 S
C604 C605 1.391 . S
C605 H593 0.950 . S
C605 C601 1.393 . S
C605 C604 1.391 . S
C606 H596 0.950 . S
C606 C607 1.386 . S
C606 C608 1.391 . S
C607 C606 1.386 . S
C607 C611 1.393 . S
C608 H597 0.950 . S
C608 C606 1.391 . S
C608 C609 1.400 . S
C609 C603 1.491 . S
C609 C608 1.400 . S
C609 C610 1.398 . S
C610 H598 0.950 . S
C610 C609 1.398 . S
C610 C611 1.391 . S
C611 H599 0.950 . S
C611 C607 1.393 . S
C611 C610 1.391 . S
H612 C620 0.950 . S
H613 C625 0.950 . S
H614 C622 0.950 . S
H615 C624 0.950 . S
H616 C626 0.950 . S
H617 C628 0.950 . S
H618 C630 0.950 . S
H619 C631 0.950 . S
C620 H612 0.950 . S
C620 C621 1.386 . S
C620 C622 1.391 . S
C621 C620 1.386 . S
C621 C625 1.393 . S
C622 H614 0.950 . S
C622 C620 1.391 . S
C622 C623 1.400 . S
C623 C622 1.400 . S
C623 C624 1.398 . S
C623 C629 1.491 . S
C624 H615 0.950 . S
C624 C623 1.398 . S
C624 C625 1.391 . S
C625 H613 0.950 . S
C625 C621 1.393 . S
C625 C624 1.391 . S
C626 H616 0.950 . S
C626 C627 1.386 . S
C626 C628 1.391 . S
C627 C626 1.386 . S
C627 C631 1.393 . S
C628 H617 0.950 . S
C628 C626 1.391 . S
C628 C629 1.400 . S
C629 C623 1.491 . S
C629 C628 1.400 . S
C629 C630 1.398 . S
C630 H618 0.950 . S
C630 C629 1.398 . S
C630 C631 1.391 . S
C631 H619 0.950 . S
C631 C627 1.393 . S
C631 C630 1.391 . S
H632 C640 0.950 . S
H633 C645 0.950 . S
H634 C642 0.950 . S
H635 C644 0.950 . S
H636 C646 0.950 . S
H637 C648 0.950 . S
H638 C650 0.950 . S
H639 C651 0.950 . S
C640 H632 0.950 . S
C640 C641 1.386 . S
C640 C642 1.391 . S
C641 C640 1.386 . S
C641 C645 1.393 . S
C642 H634 0.950 . S
C642 C640 1.391 . S
C642 C643 1.400 . S
C643 C642 1.400 . S
C643 C644 1.398 . S
C643 C649 1.491 . S
C644 H635 0.950 . S
C644 C643 1.398 . S
C644 C645 1.391 . S
C645 H633 0.950 . S
C645 C641 1.393 . S
C645 C644 1.391 . S
C646 H636 0.950 . S
C646 C647 1.386 1_556 S
C646 C648 1.391 . S
C647 C646 1.386 1_554 S
C647 C651 1.393 . S
C648 H637 0.950 . S
C648 C646 1.391 . S
C648 C649 1.400 . S
C649 C643 1.491 . S
C649 C648 1.400 . S
C649 C650 1.398 1_556 S
C650 H638 0.950 . S
C650 C649 1.398 1_554 S
C650 C651 1.391 . S
C651 H639 0.950 . S
C651 C647 1.393 . S
C651 C650 1.391 . S
H652 C660 0.950 . S
H653 C665 0.950 . S
H654 C662 0.950 . S
H655 C664 0.950 . S
H656 C666 0.950 . S
H657 C668 0.950 . S
H658 C670 0.950 . S
H659 C671 0.950 . S
C660 H652 0.950 . S
C660 C661 1.386 . S
C660 C662 1.391 . S
C661 C660 1.386 . S
C661 C665 1.393 . S
C662 H654 0.950 . S
C662 C660 1.391 . S
C662 C663 1.400 . S
C663 C662 1.400 . S
C663 C664 1.398 . S
C663 C669 1.491 . S
C664 H655 0.950 . S
C664 C663 1.398 . S
C664 C665 1.391 . S
C665 H653 0.950 . S
C665 C661 1.393 . S
C665 C664 1.391 . S
C666 H656 0.950 . S
C666 C667 1.386 . S
C666 C668 1.391 . S
C667 C666 1.386 . S
C667 C671 1.393 . S
C668 H657 0.950 . S
C668 C666 1.391 . S
C668 C669 1.400 . S
C669 C663 1.491 . S
C669 C668 1.400 . S
C669 C670 1.398 . S
C670 H658 0.950 . S
C670 C669 1.398 . S
C670 C671 1.391 . S
C671 H659 0.950 . S
C671 C667 1.393 . S
C671 C670 1.391 . S
H672 C680 0.950 . S
H673 C685 0.950 . S
H674 C682 0.950 . S
H675 C684 0.950 . S
H676 C686 0.950 . S
H677 C688 0.950 . S
H678 C690 0.950 . S
H679 C691 0.950 . S
C680 H672 0.950 . S
C680 C681 1.386 . S
C680 C682 1.391 . S
C681 C680 1.386 . S
C681 C685 1.393 . S
C682 H674 0.950 . S
C682 C680 1.391 . S
C682 C683 1.400 . S
C683 C682 1.400 . S
C683 C684 1.398 . S
C683 C689 1.491 . S
C684 H675 0.950 . S
C684 C683 1.398 . S
C684 C685 1.391 . S
C685 H673 0.950 . S
C685 C681 1.393 . S
C685 C684 1.391 . S
C686 H676 0.950 . S
C686 C687 1.386 . S
C686 C688 1.391 . S
C687 C686 1.386 . S
C687 C691 1.393 . S
C688 H677 0.950 . S
C688 C686 1.391 . S
C688 C689 1.400 . S
C689 C683 1.491 . S
C689 C688 1.400 . S
C689 C690 1.398 . S
C690 H678 0.950 . S
C690 C689 1.398 . S
C690 C691 1.391 . S
C691 H679 0.950 . S
C691 C687 1.393 . S
C691 C690 1.391 . S
H692 C700 0.950 . S
H693 C705 0.950 . S
H694 C702 0.950 . S
H695 C704 0.950 . S
H696 C706 0.950 . S
H697 C708 0.950 . S
H698 C710 0.950 . S
H699 C711 0.950 . S
C700 H692 0.950 . S
C700 C701 1.386 . S
C700 C702 1.391 . S
C701 C700 1.386 . S
C701 C705 1.393 . S
C702 H694 0.950 . S
C702 C700 1.391 . S
C702 C703 1.400 . S
C703 C702 1.400 . S
C703 C704 1.398 . S
C703 C709 1.491 . S
C704 H695 0.950 . S
C704 C703 1.398 . S
C704 C705 1.391 . S
C705 H693 0.950 . S
C705 C701 1.393 . S
C705 C704 1.391 . S
C706 H696 0.950 . S
C706 C707 1.386 . S
C706 C708 1.391 . S
C707 C706 1.386 . S
C707 C711 1.393 . S
C708 H697 0.950 . S
C708 C706 1.391 . S
C708 C709 1.400 . S
C709 C703 1.491 . S
C709 C708 1.400 . S
C709 C710 1.398 . S
C710 H698 0.950 . S
C710 C709 1.398 . S
C710 C711 1.391 . S
C711 H699 0.950 . S
C711 C707 1.393 . S
C711 C710 1.391 . S
H712 C720 0.950 . S
H713 C725 0.950 . S
H714 C722 0.950 . S
H715 C724 0.950 . S
H716 C726 0.950 . S
H717 C728 0.950 . S
H718 C730 0.950 . S
H719 C731 0.950 . S
C720 H712 0.950 . S
C720 C721 1.386 . S
C720 C722 1.391 . S
C721 C720 1.386 . S
C721 C725 1.393 . S
C722 H714 0.950 . S
C722 C720 1.391 . S
C722 C723 1.400 . S
C723 C722 1.400 . S
C723 C724 1.398 . S
C723 C729 1.491 . S
C724 H715 0.950 . S
C724 C723 1.398 . S
C724 C725 1.391 . S
C725 H713 0.950 . S
C725 C721 1.393 . S
C725 C724 1.391 . S
C726 H716 0.950 . S
C726 C727 1.386 . S
C726 C728 1.391 . S
C727 C726 1.386 . S
C727 C731 1.393 . S
C728 H717 0.950 . S
C728 C726 1.391 . S
C728 C729 1.400 . S
C729 C723 1.491 . S
C729 C728 1.400 . S
C729 C730 1.398 . S
C730 H718 0.950 . S
C730 C729 1.398 . S
C730 C731 1.391 . S
C731 H719 0.950 . S
C731 C727 1.393 . S
C731 C730 1.391 . S
H732 C740 0.950 . S
H733 C745 0.950 . S
H734 C742 0.950 . S
H735 C744 0.950 . S
H736 C746 0.950 . S
H737 C748 0.950 . S
H738 C750 0.950 . S
H739 C751 0.950 . S
C740 H732 0.950 . S
C740 C741 1.386 . S
C740 C742 1.391 . S
C741 C740 1.386 . S
C741 C745 1.393 . S
C742 H734 0.950 . S
C742 C740 1.391 . S
C742 C743 1.400 . S
C743 C742 1.400 . S
C743 C744 1.398 . S
C743 C749 1.491 . S
C744 H735 0.950 . S
C744 C743 1.398 . S
C744 C745 1.391 . S
C745 H733 0.950 . S
C745 C741 1.393 . S
C745 C744 1.391 . S
C746 H736 0.950 . S
C746 C747 1.386 . S
C746 C748 1.391 . S
C747 C746 1.386 . S
C747 C751 1.393 . S
C748 H737 0.950 . S
C748 C746 1.391 . S
C748 C749 1.400 . S
C749 C743 1.491 . S
C749 C748 1.400 . S
C749 C750 1.398 . S
C750 H738 0.950 . S
C750 C749 1.398 . S
C750 C751 1.391 . S
C751 H739 0.950 . S
C751 C747 1.393 . S
C751 C750 1.391 . S
H752 C760 0.950 . S
H753 C765 0.950 . S
H754 C762 0.950 . S
H755 C764 0.950 . S
H756 C766 0.950 . S
H757 C768 0.950 . S
H758 C770 0.950 . S
H759 C771 0.950 . S
C760 H752 0.950 . S
C760 C761 1.386 . S
C760 C762 1.391 . S
C761 C760 1.386 . S
C761 C765 1.393 . S
C762 H754 0.950 . S
C762 C760 1.391 . S
C762 C763 1.400 . S
C763 C762 1.400 . S
C763 C764 1.398 . S
C763 C769 1.491 . S
C764 H755 0.950 . S
C764 C763 1.398 . S
C764 C765 1.391 . S
C765 H753 0.950 . S
C765 C761 1.393 . S
C765 C764 1.391 . S
C766 H756 0.950 . S
C766 C767 1.386 . S
C766 C768 1.391 . S
C767 C766 1.386 . S
C767 C771 1.393 . S
C768 H757 0.950 . S
C768 C766 1.391 . S
C768 C769 1.400 . S
C769 C763 1.491 . S
C769 C768 1.400 . S
C769 C770 1.398 . S
C770 H758 0.950 . S
C770 C769 1.398 . S
C770 C771 1.391 . S
C771 H759 0.950 . S
C771 C767 1.393 . S
C771 C770 1.391 . S
H772 C780 0.950 . S
H773 C785 0.950 . S
H774 C782 0.950 . S
H775 C784 0.950 . S
H776 C786 0.950 . S
H777 C788 0.950 . S
H778 C790 0.950 . S
H779 C791 0.950 . S
C780 H772 0.950 . S
C780 C781 1.386 . S
C780 C782 1.391 . S
C781 C780 1.386 . S
C781 C785 1.393 . S
C782 H774 0.950 . S
C782 C780 1.391 . S
C782 C783 1.400 . S
C783 C782 1.400 . S
C783 C784 1.398 . S
C783 C789 1.491 . S
C784 H775 0.950 . S
C784 C783 1.398 . S
C784 C785 1.391 . S
C785 H773 0.950 . S
C785 C781 1.393 . S
C785 C784 1.391 . S
C786 H776 0.950 . S
C786 C787 1.386 . S
C786 C788 1.391 . S
C787 C786 1.386 . S
C787 C791 1.393 . S
C788 H777 0.950 . S
C788 C786 1.391 . S
C788 C789 1.400 . S
C789 C783 1.491 . S
C789 C788 1.400 . S
C789 C790 1.398 . S
C790 H778 0.950 . S
C790 C789 1.398 . S
C790 C791 1.391 . S
C791 H779 0.950 . S
C791 C787 1.393 . S
C791 C790 1.391 . S
H792 C800 0.950 . S
H793 C805 0.950 . S
H794 C802 0.950 . S
H795 C804 0.950 . S
H796 C806 0.950 . S
H797 C808 0.950 . S
H798 C810 0.950 . S
H799 C811 0.950 . S
C800 H792 0.950 . S
C800 C801 1.386 . S
C800 C802 1.391 . S
C801 C800 1.386 . S
C801 C805 1.393 . S
C802 H794 0.950 . S
C802 C800 1.391 . S
C802 C803 1.400 . S
C803 C802 1.400 . S
C803 C804 1.398 . S
C803 C809 1.491 . S
C804 H795 0.950 . S
C804 C803 1.398 . S
C804 C805 1.391 . S
C805 H793 0.950 . S
C805 C801 1.393 . S
C805 C804 1.391 . S
C806 H796 0.950 . S
C806 C807 1.386 . S
C806 C808 1.391 . S
C807 C806 1.386 . S
C807 C811 1.393 . S
C808 H797 0.950 . S
C808 C806 1.391 . S
C808 C809 1.400 . S
C809 C803 1.491 . S
C809 C808 1.400 . S
C809 C810 1.398 . S
C810 H798 0.950 . S
C810 C809 1.398 . S
C810 C811 1.391 . S
C811 H799 0.950 . S
C811 C807 1.393 . S
C811 C810 1.391 . S
H812 C820 0.950 . S
H813 C825 0.950 . S
H814 C822 0.950 . S
H815 C824 0.950 . S
H816 C826 0.950 . S
H817 C828 0.950 . S
H818 C830 0.950 . S
H819 C831 0.950 . S
C820 H812 0.950 . S
C820 C821 1.386 . S
C820 C822 1.391 . S
C821 C820 1.386 . S
C821 C825 1.393 . S
C822 H814 0.950 . S
C822 C820 1.391 . S
C822 C823 1.400 . S
C823 C822 1.400 . S
C823 C824 1.398 . S
C823 C829 1.491 . S
C824 H815 0.950 . S
C824 C823 1.398 . S
C824 C825 1.391 . S
C825 H813 0.950 . S
C825 C821 1.393 . S
C825 C824 1.391 . S
C826 H816 0.950 . S
C826 C827 1.386 . S
C826 C828 1.391 . S
C827 C826 1.386 . S
C827 C831 1.393 . S
C828 H817 0.950 . S
C828 C826 1.391 . S
C828 C829 1.400 . S
C829 C823 1.491 . S
C829 C828 1.400 . S
C829 C830 1.398 . S
C830 H818 0.950 . S
C830 C829 1.398 . S
C830 C831 1.391 . S
C831 H819 0.950 . S
C831 C827 1.393 . S
C831 C830 1.391 . S
C281 C3 1.472 . S
C287 C49 1.587 . S
C301 C37 1.481 . S
C307 C15 1.589 . S
C321 C69 1.489 . S
C327 C117 1.591 . S
C341 C105 1.500 . S
C347 C90 1.594 . S
C361 C137 1.477 . S
C367 C192 1.589 . S
C381 C171 1.501 . S
C387 C158 1.594 . S
C401 C260 1.594 . S
C407 C207 1.497 . S
C421 C239 1.472 . S
C427 C219 1.587 . S
C441 C1 1.980 . S
C447 C139 1.980 . S
C461 C173 1.975 . S
C467 C35 1.975 . S
C481 C205 1.998 . S
C487 C71 1.998 . S
C501 C241 1.999 . S
C507 C103 1.999 . S
C521 C255 1.929 . S
C527 C22 1.689 . S
C541 C221 1.922 . S
C547 C56 1.656 . S
C561 C83 1.662 . S
C567 C187 1.924 . S
C581 C153 1.925 . S
C587 C124 1.675 . S
C601 C151 1.664 . S
C607 C119 1.925 . S
C621 C185 1.655 . S
C627 C85 1.920 . S
C641 C51 1.931 . S
C647 C226 1.690 . S
C661 C17 1.931 . S
C667 C253 1.688 . S
C681 C176 1.245 . S
C687 C6 1.251 . S
C701 C40 1.247 . S
C707 C142 1.252 . S
C721 C244 1.246 . S
C727 C96 1.252 . S
C741 C108 1.249 . S
C747 C232 1.246 . S
C761 C164 1.248 . S
C767 C62 1.248 . S
C781 C28 1.248 . S
C787 C198 1.251 . S
C801 C130 1.250 . S
C807 C210 1.249 . S
C821 C266 1.251 . S
C827 C74 1.244 . S
