# Generated by pormake.
# Topology vbm, (6)-cn, num edge types: 1
# Building blocks:
#     Node 0, Type 0, BuildingBlock: GEDQOX_clean_sbu_0, # of connection points: 6
#     Node 1, Type 0, BuildingBlock: GEDQOX_clean_sbu_0, # of connection points: 6
#     Node 2, Type 0, BuildingBlock: GEDQOX_clean_sbu_0, # of connection points: 6
#     Node 3, Type 0, BuildingBlock: GEDQOX_clean_sbu_0, # of connection points: 6
#     Node 4, Type 0, BuildingBlock: GEDQOX_clean_sbu_0, # of connection points: 6
#     Node 5, Type 0, BuildingBlock: GEDQOX_clean_sbu_0, # of connection points: 6
#     Node 6, Type 0, BuildingBlock: GEDQOX_clean_sbu_0, # of connection points: 6
#     Node 7, Type 0, BuildingBlock: GEDQOX_clean_sbu_0, # of connection points: 6
#     Node 8, Type 0, BuildingBlock: GEDQOX_clean_sbu_0, # of connection points: 6
#     Node 9, Type 0, BuildingBlock: GEDQOX_clean_sbu_0, # of connection points: 6
#     Node 10, Type 0, BuildingBlock: GEDQOX_clean_sbu_0, # of connection points: 6
#     Node 11, Type 0, BuildingBlock: GEDQOX_clean_sbu_0, # of connection points: 6
#     Node 12, Type 0, BuildingBlock: GEDQOX_clean_sbu_0, # of connection points: 6
#     Node 13, Type 0, BuildingBlock: GEDQOX_clean_sbu_0, # of connection points: 6
#     Node 14, Type 0, BuildingBlock: GEDQOX_clean_sbu_0, # of connection points: 6
#     Node 15, Type 0, BuildingBlock: GEDQOX_clean_sbu_0, # of connection points: 6
#     Edge 16, Type (0, 0), BuildingBlock: ZUJKAS_clean_linker_0, # of connection points: 2
#     Edge 17, Type (0, 0), BuildingBlock: ZUJKAS_clean_linker_0, # of connection points: 2
#     Edge 18, Type (0, 0), BuildingBlock: ZUJKAS_clean_linker_0, # of connection points: 2
#     Edge 19, Type (0, 0), BuildingBlock: ZUJKAS_clean_linker_0, # of connection points: 2
#     Edge 20, Type (0, 0), BuildingBlock: ZUJKAS_clean_linker_0, # of connection points: 2
#     Edge 21, Type (0, 0), BuildingBlock: ZUJKAS_clean_linker_0, # of connection points: 2
#     Edge 22, Type (0, 0), BuildingBlock: ZUJKAS_clean_linker_0, # of connection points: 2
#     Edge 23, Type (0, 0), BuildingBlock: ZUJKAS_clean_linker_0, # of connection points: 2
#     Edge 24, Type (0, 0), BuildingBlock: ZUJKAS_clean_linker_0, # of connection points: 2
#     Edge 25, Type (0, 0), BuildingBlock: ZUJKAS_clean_linker_0, # of connection points: 2
#     Edge 26, Type (0, 0), BuildingBlock: ZUJKAS_clean_linker_0, # of connection points: 2
#     Edge 27, Type (0, 0), BuildingBlock: ZUJKAS_clean_linker_0, # of connection points: 2
#     Edge 28, Type (0, 0), BuildingBlock: ZUJKAS_clean_linker_0, # of connection points: 2
#     Edge 29, Type (0, 0), BuildingBlock: ZUJKAS_clean_linker_0, # of connection points: 2
#     Edge 30, Type (0, 0), BuildingBlock: ZUJKAS_clean_linker_0, # of connection points: 2
#     Edge 31, Type (0, 0), BuildingBlock: ZUJKAS_clean_linker_0, # of connection points: 2
#     Edge 32, Type (0, 0), BuildingBlock: ZUJKAS_clean_linker_0, # of connection points: 2
#     Edge 33, Type (0, 0), BuildingBlock: ZUJKAS_clean_linker_0, # of connection points: 2
#     Edge 34, Type (0, 0), BuildingBlock: ZUJKAS_clean_linker_0, # of connection points: 2
#     Edge 35, Type (0, 0), BuildingBlock: ZUJKAS_clean_linker_0, # of connection points: 2
#     Edge 36, Type (0, 0), BuildingBlock: ZUJKAS_clean_linker_0, # of connection points: 2
#     Edge 37, Type (0, 0), BuildingBlock: ZUJKAS_clean_linker_0, # of connection points: 2
#     Edge 38, Type (0, 0), BuildingBlock: ZUJKAS_clean_linker_0, # of connection points: 2
#     Edge 39, Type (0, 0), BuildingBlock: ZUJKAS_clean_linker_0, # of connection points: 2
#     Edge 40, Type (0, 0), BuildingBlock: ZUJKAS_clean_linker_0, # of connection points: 2
#     Edge 41, Type (0, 0), BuildingBlock: ZUJKAS_clean_linker_0, # of connection points: 2
#     Edge 42, Type (0, 0), BuildingBlock: ZUJKAS_clean_linker_0, # of connection points: 2
#     Edge 43, Type (0, 0), BuildingBlock: ZUJKAS_clean_linker_0, # of connection points: 2
#     Edge 44, Type (0, 0), BuildingBlock: ZUJKAS_clean_linker_0, # of connection points: 2
#     Edge 45, Type (0, 0), BuildingBlock: ZUJKAS_clean_linker_0, # of connection points: 2
#     Edge 46, Type (0, 0), BuildingBlock: ZUJKAS_clean_linker_0, # of connection points: 2
#     Edge 47, Type (0, 0), BuildingBlock: ZUJKAS_clean_linker_0, # of connection points: 2
#     Edge 48, Type (0, 0), BuildingBlock: ZUJKAS_clean_linker_0, # of connection points: 2
#     Edge 49, Type (0, 0), BuildingBlock: ZUJKAS_clean_linker_0, # of connection points: 2
#     Edge 50, Type (0, 0), BuildingBlock: ZUJKAS_clean_linker_0, # of connection points: 2
#     Edge 51, Type (0, 0), BuildingBlock: ZUJKAS_clean_linker_0, # of connection points: 2
#     Edge 52, Type (0, 0), BuildingBlock: ZUJKAS_clean_linker_0, # of connection points: 2
#     Edge 53, Type (0, 0), BuildingBlock: ZUJKAS_clean_linker_0, # of connection points: 2
#     Edge 54, Type (0, 0), BuildingBlock: ZUJKAS_clean_linker_0, # of connection points: 2
#     Edge 55, Type (0, 0), BuildingBlock: ZUJKAS_clean_linker_0, # of connection points: 2
#     Edge 56, Type (0, 0), BuildingBlock: ZUJKAS_clean_linker_0, # of connection points: 2
#     Edge 57, Type (0, 0), BuildingBlock: ZUJKAS_clean_linker_0, # of connection points: 2
#     Edge 58, Type (0, 0), BuildingBlock: ZUJKAS_clean_linker_0, # of connection points: 2
#     Edge 59, Type (0, 0), BuildingBlock: ZUJKAS_clean_linker_0, # of connection points: 2
#     Edge 60, Type (0, 0), BuildingBlock: ZUJKAS_clean_linker_0, # of connection points: 2
#     Edge 61, Type (0, 0), BuildingBlock: ZUJKAS_clean_linker_0, # of connection points: 2
#     Edge 62, Type (0, 0), BuildingBlock: ZUJKAS_clean_linker_0, # of connection points: 2
#     Edge 63, Type (0, 0), BuildingBlock: ZUJKAS_clean_linker_0, # of connection points: 2
# Relax obj value: 0.182
# Max RMSD: 0.201
# Mean RMSD: 0.201
data_MOF--net-vbm--node1-GEDQOX_clean_sbu_0--edge1-ZUJKAS_clean_linker_0
_symmetry_space_group_name_H-M    P1
_symmetry_Int_Tables_number       1
_symmetry_cell_setting            triclinic
loop_
_symmetry_equiv_pos_as_xyz
'x, y, z'
_cell_length_a     122.91307
_cell_length_b     20.337743
_cell_length_c     76.605549
_cell_angle_alpha  89.967345
_cell_angle_beta   89.981032
_cell_angle_gamma 90.052263
loop_
_atom_site_label
_atom_site_type_symbol
_atom_site_fract_x
_atom_site_fract_y
_atom_site_fract_z
_atom_type_partial_charge
Nd0 Nd 0.12032 0.12907 0.12956 0.0
Nd1 Nd 0.14531 0.12762 0.12813 0.0
C2 C 0.09991 0.12509 0.1407 0.0
C3 C 0.08852 0.10467 0.13704 0.0
C4 C 0.0838 0.05365 0.14681 0.0
C5 C 0.07266 0.03984 0.14544 0.0
C6 C 0.06591 0.07717 0.13437 0.0
C7 C 0.07074 0.12706 0.1242 0.0
C8 C 0.08189 0.1406 0.12551 0.0
C9 C 0.12606 0.12825 0.09449 0.0
C10 C 0.13306 0.98709 0.12526 0.0
C11 C 0.16674 0.13729 0.12528 0.0
C12 C 0.17735 0.17195 0.12394 0.0
C13 C 0.18342 0.16935 0.10841 0.0
C14 C 0.19429 0.19034 0.10809 0.0
C15 C 0.19938 0.21382 0.12335 0.0
C16 C 0.19315 0.21876 0.13869 0.0
C17 C 0.1823 0.19811 0.13899 0.0
C18 C 0.13647 0.09555 0.16006 0.0
C19 C 0.13283 0.27115 0.12972 0.0
O20 O 0.1071 0.07969 0.14449 0.0
O21 O 0.104 0.17404 0.13174 0.0
O22 O 0.11616 0.12749 0.10028 0.0
O23 O 0.13261 0.12802 0.10719 0.0
O24 O 0.12424 1.01801 0.13083 0.0
O25 O 0.14194 1.01985 0.12071 0.0
O26 O 0.16044 0.12847 0.11166 0.0
O27 O 0.1614 0.14159 0.13998 0.0
O28 O 0.14447 0.06497 0.15271 0.0
O29 O 0.13319 0.14245 0.15046 0.0
O30 O 0.14198 0.23924 0.12651 0.0
O31 O 0.12366 0.23958 0.13295 0.0
H32 H 0.08865 1.02551 0.15594 0.0
H33 H 0.06935 1.00026 0.15326 0.0
H34 H 0.06585 0.15762 0.11571 0.0
H35 H 0.08522 0.18081 0.11792 0.0
H36 H 0.17992 0.14839 0.09669 0.0
H37 H 0.19885 0.18527 0.09607 0.0
H38 H 0.19671 0.23753 0.15062 0.0
H39 H 0.17794 0.20022 0.15126 0.0
Nd40 Nd 0.89317 0.93614 0.12822 0.0
Nd41 Nd 0.86802 0.9376 0.12705 0.0
C42 C 0.91432 0.95527 0.13033 0.0
C43 C 0.92619 0.96602 0.13154 0.0
C44 C 0.93122 0.97828 0.14768 0.0
C45 C 0.94241 0.99192 0.14852 0.0
C46 C 0.94883 0.99263 0.13323 0.0
C47 C 0.94368 0.97964 0.11717 0.0
C48 C 0.93252 0.96698 0.11634 0.0
C49 C 0.88409 0.91444 0.09585 0.0
C50 C 0.88047 0.07834 0.12786 0.0
C51 C 0.84758 0.93171 0.11614 0.0
C52 C 0.8365 0.90506 0.11904 0.0
C53 C 0.83057 0.88312 0.10455 0.0
C54 C 0.8197 0.86383 0.10626 0.0
C55 C 0.81444 0.86535 0.1226 0.0
C56 C 0.82051 0.88606 0.13725 0.0
C57 C 0.83142 0.90588 0.13548 0.0
C58 C 0.8741 0.94193 0.16198 0.0
C59 C 0.88113 0.79559 0.13051 0.0
O60 O 0.90865 0.92985 0.14314 0.0
O61 O 0.90874 0.97002 0.11631 0.0
O62 O 0.89202 0.88039 0.10236 0.0
O63 O 0.88093 0.95738 0.10667 0.0
O64 O 0.88916 0.04575 0.13316 0.0
O65 O 0.87168 0.04734 0.12225 0.0
O66 O 0.85516 0.89132 0.11069 0.0
O67 O 0.85122 0.97678 0.12687 0.0
O68 O 0.86414 0.93902 0.15653 0.0
O69 O 0.88045 0.93932 0.14904 0.0
O70 O 0.87234 0.82679 0.1249 0.0
O71 O 0.88999 0.82776 0.13539 0.0
H72 H 0.92648 0.97867 0.15961 0.0
H73 H 0.94597 1.00276 0.16112 0.0
H74 H 0.94826 0.97816 0.10513 0.0
H75 H 0.92885 0.9576 0.10374 0.0
H76 H 0.83428 0.88266 0.09172 0.0
H77 H 0.81536 0.84965 0.09457 0.0
H78 H 0.81686 0.88708 0.1501 0.0
H79 H 0.8358 0.92266 0.14691 0.0
Nd80 Nd 0.12053 0.93797 0.376 0.0
Nd81 Nd 0.14572 0.93942 0.37614 0.0
C82 C 0.09915 0.94717 0.37379 0.0
C83 C 0.08786 0.97107 0.3716 0.0
C84 C 0.08265 0.96974 0.35529 0.0
C85 C 0.0715 0.98345 0.35397 0.0
C86 C 0.06528 0.99794 0.36896 0.0
C87 C 0.07062 1.0003 0.3852 0.0
C88 C 0.08174 0.98728 0.38647 0.0
C89 C 0.13013 0.91691 0.40812 0.0
C90 C 0.13319 0.08081 0.37611 0.0
C91 C 0.16631 0.93272 0.38624 0.0
C92 C 0.17724 0.9047 0.38258 0.0
C93 C 0.18143 0.85517 0.39346 0.0
C94 C 0.19224 0.83435 0.39182 0.0
C95 C 0.19921 0.86287 0.37933 0.0
C96 C 0.1949 0.91114 0.36809 0.0
C97 C 0.18407 0.93181 0.3697 0.0
C98 C 0.13904 0.94311 0.34154 0.0
C99 C 0.13268 0.79719 0.37322 0.0
O100 O 0.10517 0.92826 0.36057 0.0
O101 O 0.1047 0.9638 0.38767 0.0
O102 O 0.12207 0.88291 0.40204 0.0
O103 O 0.13312 0.95949 0.39706 0.0
O104 O 0.12414 0.04863 0.37223 0.0
O105 O 0.14226 0.04951 0.38024 0.0
O106 O 0.15871 0.89313 0.3921 0.0
O107 O 0.16254 0.97856 0.37584 0.0
O108 O 0.1491 0.94007 0.34647 0.0
O109 O 0.13294 0.94074 0.35478 0.0
O110 O 0.14166 0.82838 0.37795 0.0
O111 O 0.12368 0.82954 0.36927 0.0
H112 H 0.08711 0.95666 0.34361 0.0
H113 H 0.06774 0.98204 0.34119 0.0
H114 H 0.06616 1.00974 0.39712 0.0
H115 H 0.08546 0.98734 0.39929 0.0
H116 H 0.17643 0.83368 0.40362 0.0
H117 H 0.19516 0.79631 0.40053 0.0
H118 H 0.20001 0.93497 0.35845 0.0
H119 H 0.18117 0.97059 0.3612 0.0
Nd120 Nd 0.89272 0.13033 0.37543 0.0
Nd121 Nd 0.86754 0.13084 0.37681 0.0
C122 C 0.91377 0.11079 0.37193 0.0
C123 C 0.92564 0.09934 0.37102 0.0
C124 C 0.93127 0.10267 0.35509 0.0
C125 C 0.94254 0.09184 0.35452 0.0
C126 C 0.9484 0.07813 0.36991 0.0
C127 C 0.9427 0.07466 0.38579 0.0
C128 C 0.93147 0.08501 0.38633 0.0
C129 C 0.88397 0.15267 0.40812 0.0
C130 C 0.8797 0.98862 0.37622 0.0
C131 C 0.84719 0.13836 0.38802 0.0
C132 C 0.83618 0.1657 0.38507 0.0
C133 C 0.83019 0.18689 0.39956 0.0
C134 C 0.81936 0.20671 0.39776 0.0
C135 C 0.81422 0.20646 0.38132 0.0
C136 C 0.82038 0.18666 0.36667 0.0
C137 C 0.83124 0.16633 0.36853 0.0
C138 C 0.87349 0.12496 0.34189 0.0
C139 C 0.88089 0.27261 0.37348 0.0
O140 O 0.90808 0.14026 0.35972 0.0
O141 O 0.90819 0.09159 0.38553 0.0
O142 O 0.8924 0.18272 0.40186 0.0
O143 O 0.88045 0.11117 0.39717 0.0
O144 O 0.8886 1.02059 0.3715 0.0
O145 O 0.87082 1.02039 0.38108 0.0
O146 O 0.85487 0.17851 0.39324 0.0
O147 O 0.85068 0.09261 0.37738 0.0
O148 O 0.86356 0.12874 0.34746 0.0
O149 O 0.87992 0.12748 0.35474 0.0
O150 O 0.87184 0.24166 0.37808 0.0
O151 O 0.88988 0.24001 0.36953 0.0
H152 H 0.92698 0.11356 0.34309 0.0
H153 H 0.94668 0.09538 0.34208 0.0
H154 H 0.9469 0.06337 0.39785 0.0
H155 H 0.92736 0.08217 0.39882 0.0
H156 H 0.8338 0.18628 0.41246 0.0
H157 H 0.81494 0.22024 0.40943 0.0
H158 H 0.81682 0.18666 0.35375 0.0
H159 H 0.83569 0.15022 0.3571 0.0
Nd160 Nd 0.86893 0.94116 0.87634 0.0
Nd161 Nd 0.89281 0.93693 0.87383 0.0
C162 C 0.8478 0.93253 0.8835 0.0
C163 C 0.8371 0.89865 0.88279 0.0
C164 C 0.83136 0.88777 0.89837 0.0
C165 C 0.82049 0.86711 0.89807 0.0
C166 C 0.81501 0.85706 0.88214 0.0
C167 C 0.82092 0.86553 0.86652 0.0
C168 C 0.83181 0.88614 0.86683 0.0
C169 C 0.87632 0.96279 0.84283 0.0
C170 C 0.88073 0.7969 0.87191 0.0
C171 C 0.9139 0.94431 0.86629 0.0
C172 C 0.92511 0.96983 0.8689 0.0
C173 C 0.93033 1.00324 0.85522 0.0
C174 C 0.94149 1.01715 0.85602 0.0
C175 C 0.94777 0.99745 0.87049 0.0
C176 C 0.94243 0.96602 0.88448 0.0
C177 C 0.93125 0.9524 0.8837 0.0
C178 C 0.88533 0.92394 0.90778 0.0
C179 C 0.88098 0.08174 0.8778 0.0
O180 O 0.85534 0.91247 0.89433 0.0
O181 O 0.85175 0.95718 0.8691 0.0
O182 O 0.86835 0.99354 0.85019 0.0
O183 O 0.88014 0.91893 0.85292 0.0
O184 O 0.87207 0.82892 0.87751 0.0
O185 O 0.88944 0.82931 0.86674 0.0
O186 O 0.90656 0.97991 0.85831 0.0
O187 O 0.90977 0.90545 0.87813 0.0
O188 O 0.89333 0.89121 0.90113 0.0
O189 O 0.88164 0.9644 0.89674 0.0
O190 O 0.88976 0.04938 0.87275 0.0
O191 O 0.87212 0.04976 0.88261 0.0
H192 H 0.83518 0.89769 0.91085 0.0
H193 H 0.81632 0.86003 0.91039 0.0
H194 H 0.817 0.859 0.85398 0.0
H195 H 0.83595 0.89472 0.85455 0.0
H196 H 0.92586 1.01651 0.84355 0.0
H197 H 0.94521 0.0425 0.84511 0.0
H198 H 0.94694 0.94923 0.89576 0.0
H199 H 0.92754 0.92575 0.8944 0.0
Nd200 Nd 0.14598 0.13262 0.87738 0.0
Nd201 Nd 0.11919 0.12933 0.87288 0.0
C202 C 0.16608 0.13924 0.88968 0.0
C203 C 0.17713 0.16629 0.88666 0.0
C204 C 0.18288 0.19218 0.90088 0.0
C205 C 0.19373 0.21208 0.89908 0.0
C206 C 0.19914 0.20704 0.88292 0.0
C207 C 0.19324 0.18258 0.86851 0.0
C208 C 0.18236 0.16235 0.87036 0.0
C209 C 0.13978 0.12981 0.84235 0.0
C210 C 0.13244 0.27226 0.87347 0.0
C211 C 0.09908 0.12557 0.86047 0.0
C212 C 0.08764 0.10632 0.86419 0.0
C213 C 0.08248 0.06038 0.85331 0.0
C214 C 0.07135 0.04713 0.85506 0.0
C215 C 0.06503 0.07988 0.86769 0.0
C216 C 0.0703 0.1246 0.87893 0.0
C217 C 0.08146 0.13763 0.87721 0.0
C218 C 0.12516 0.12577 0.90795 0.0
C219 C 0.13286 0.99015 0.8763 0.0
O220 O 0.15838 0.18023 0.89435 0.0
O221 O 0.16265 0.0923 0.87933 0.0
O222 O 0.14982 0.1332 0.84758 0.0
O223 O 0.1338 0.13185 0.85567 0.0
O224 O 0.14151 0.24242 0.87846 0.0
O225 O 0.12354 0.23949 0.86874 0.0
O226 O 0.10621 0.07882 0.85768 0.0
O227 O 0.10314 0.1761 0.86887 0.0
O228 O 0.11517 0.12403 0.90244 0.0
O229 O 0.13132 0.12807 0.8948 0.0
O230 O 0.12395 1.02016 0.87063 0.0
O231 O 0.14159 1.02285 0.88184 0.0
H232 H 0.17906 0.19528 0.9136 0.0
H233 H 0.19795 0.22943 0.91059 0.0
H234 H 0.19702 0.17882 0.85578 0.0
H235 H 0.17812 0.14269 0.85912 0.0
H236 H 0.08702 0.03578 0.84309 0.0
H237 H 0.0677 1.01148 0.84636 0.0
H238 H 0.06574 0.15146 0.88869 0.0
H239 H 0.08515 0.17366 0.88577 0.0
Nd240 Nd 0.86794 0.13021 0.62729 0.0
Nd241 Nd 0.89337 0.12915 0.6279 0.0
C242 C 0.84746 0.1371 0.61664 0.0
C243 C 0.83642 0.16426 0.61955 0.0
C244 C 0.83068 0.1892 0.60519 0.0
C245 C 0.81979 0.20808 0.60679 0.0
C246 C 0.8143 0.20297 0.6229 0.0
C247 C 0.82019 0.17961 0.63745 0.0
C248 C 0.83112 0.16031 0.63579 0.0
C249 C 0.87453 0.12544 0.66191 0.0
C250 C 0.88144 0.27161 0.63007 0.0
C251 C 0.9145 0.11047 0.63092 0.0
C252 C 0.92641 0.0991 0.63168 0.0
C253 C 0.93233 0.10979 0.6471 0.0
C254 C 0.94363 0.09991 0.64745 0.0
C255 C 0.94926 0.07953 0.63236 0.0
C256 C 0.94325 0.06856 0.617 0.0
C257 C 0.932 0.07818 0.61667 0.0
C258 C 0.88402 0.15117 0.59555 0.0
C259 C 0.88017 0.98782 0.62795 0.0
O260 O 0.8551 0.17682 0.61097 0.0
O261 O 0.85107 0.09218 0.62745 0.0
O262 O 0.86449 0.12962 0.6569 0.0
O263 O 0.88066 0.12752 0.64871 0.0
O264 O 0.87232 0.24083 0.6258 0.0
O265 O 0.89049 0.23896 0.63371 0.0
O266 O 0.9089 0.14095 0.64307 0.0
O267 O 0.90877 0.08958 0.61765 0.0
O268 O 0.89269 0.1804 0.60126 0.0
O269 O 0.88075 0.10998 0.60677 0.0
O270 O 0.88917 1.01967 0.63227 0.0
O271 O 0.87124 1.0196 0.6233 0.0
H272 H 0.83455 0.1921 0.59249 0.0
H273 H 0.81558 0.22457 0.59518 0.0
H274 H 0.81637 0.17588 0.65014 0.0
H275 H 0.83534 0.14122 0.64711 0.0
H276 H 0.92824 0.126 0.65886 0.0
H277 H 0.94797 0.10948 0.65948 0.0
H278 H 0.94724 0.05194 0.60519 0.0
H279 H 0.92768 0.06958 0.60456 0.0
Nd280 Nd 0.14512 0.94481 0.62793 0.0
Nd281 Nd 0.12139 0.93906 0.62946 0.0
C282 C 0.16633 0.93598 0.62136 0.0
C283 C 0.17696 0.902 0.62329 0.0
C284 C 0.18236 0.87877 0.60837 0.0
C285 C 0.19319 0.85747 0.6093 0.0
C286 C 0.19893 0.85893 0.62521 0.0
C287 C 0.19336 0.87993 0.64029 0.0
C288 C 0.18254 0.90131 0.63934 0.0
C289 C 0.13739 0.96631 0.66122 0.0
C290 C 0.13341 0.79942 0.63185 0.0
C291 C 0.10017 0.94496 0.63589 0.0
C292 C 0.08903 0.97235 0.63434 0.0
C293 C 0.08351 0.99225 0.64948 0.0
C294 C 0.07237 1.00662 0.64901 0.0
C295 C 0.06642 1.00096 0.63337 0.0
C296 C 0.07207 0.98333 0.61805 0.0
C297 C 0.08322 0.96916 0.61853 0.0
C298 C 0.12946 0.9256 0.59589 0.0
C299 C 0.13298 0.08459 0.62569 0.0
O300 O 0.1589 0.91204 0.6109 0.0
O301 O 0.16221 0.96529 0.63499 0.0
O302 O 0.14538 0.99736 0.654 0.0
O303 O 0.1337 0.92205 0.65108 0.0
O304 O 0.14224 0.83214 0.62722 0.0
O305 O 0.12444 0.83094 0.63604 0.0
O306 O 0.10741 0.97276 0.646 0.0
O307 O 0.10443 0.91529 0.62244 0.0
O308 O 0.12172 0.89032 0.60247 0.0
O309 O 0.13277 0.96731 0.60692 0.0
O310 O 0.12415 0.05176 0.63032 0.0
O311 O 0.14198 0.05315 0.6214 0.0
H312 H 0.17836 0.87974 0.59577 0.0
H313 H 0.19718 0.84255 0.59734 0.0
H314 H 0.1974 0.88076 0.65284 0.0
H315 H 0.17867 0.91933 0.65111 0.0
H316 H 0.08773 0.99429 0.66189 0.0
H317 H 0.0684 1.02113 0.66101 0.0
H318 H 0.06779 0.97764 0.60579 0.0
H319 H 0.08718 0.9531 0.60664 0.0
Nd320 Nd 0.62073 0.63353 0.12857 0.0
Nd321 Nd 0.64601 0.63201 0.12806 0.0
C322 C 0.59967 0.61367 0.13216 0.0
C323 C 0.58784 0.60005 0.13276 0.0
C324 C 0.58181 0.60817 0.14816 0.0
C325 C 0.57066 0.59337 0.1485 0.0
C326 C 0.56531 0.57047 0.13342 0.0
C327 C 0.57147 0.5605 0.11818 0.0
C328 C 0.58257 0.575 0.11787 0.0
C329 C 0.63006 0.65339 0.0962 0.0
C330 C 0.63347 0.49008 0.12779 0.0
C331 C 0.66642 0.63869 0.11709 0.0
C332 C 0.67741 0.66724 0.11963 0.0
C333 C 0.68303 0.69084 0.10498 0.0
C334 C 0.69388 0.71106 0.1063 0.0
C335 C 0.69941 0.70821 0.12236 0.0
C336 C 0.69365 0.68656 0.13721 0.0
C337 C 0.68276 0.66612 0.13586 0.0
C338 C 0.63956 0.62788 0.16269 0.0
C339 C 0.63285 0.77446 0.13115 0.0
O340 O 0.60564 0.63234 0.14549 0.0
O341 O 0.60487 0.60942 0.11736 0.0
O342 O 0.6217 0.68525 0.10212 0.0
O343 O 0.63328 0.61195 0.10742 0.0
O344 O 0.6243 0.52232 0.13061 0.0
O345 O 0.64275 0.52117 0.12487 0.0
O346 O 0.6587 0.67702 0.11111 0.0
O347 O 0.66294 0.59505 0.12837 0.0
O348 O 0.64958 0.63079 0.15751 0.0
O349 O 0.63333 0.63054 0.14959 0.0
O350 O 0.64198 0.74313 0.12725 0.0
O351 O 0.62366 0.74265 0.13431 0.0
H352 H 0.58569 0.62614 0.15992 0.0
H353 H 0.56619 0.6016 0.16048 0.0
H354 H 0.56771 0.54141 0.10644 0.0
H355 H 0.58703 0.56648 0.10588 0.0
H356 H 0.6791 0.69204 0.09233 0.0
H357 H 0.69796 0.72847 0.09465 0.0
H358 H 0.69765 0.68322 0.14977 0.0
H359 H 0.67863 0.64793 0.14739 0.0
Nd360 Nd 0.39444 0.43602 0.13096 0.0
Nd361 Nd 0.36772 0.43424 0.1269 0.0
C362 C 0.41447 0.43844 0.14363 0.0
C363 C 0.42586 0.45908 0.1406 0.0
C364 C 0.43172 0.48616 0.15455 0.0
C365 C 0.44285 0.49916 0.15296 0.0
C366 C 0.44843 0.48525 0.13735 0.0
C367 C 0.44245 0.46012 0.12313 0.0
C368 C 0.43127 0.44709 0.12474 0.0
C369 C 0.3884 0.43955 0.09597 0.0
C370 C 0.38103 0.57652 0.12741 0.0
C371 C 0.34768 0.42806 0.11441 0.0
C372 C 0.33666 0.40034 0.11717 0.0
C373 C 0.33126 0.37171 0.10296 0.0
C374 C 0.32041 0.3517 0.10439 0.0
C375 C 0.31464 0.35995 0.12012 0.0
C376 C 0.32019 0.3866 0.13458 0.0
C377 C 0.33109 0.40665 0.13313 0.0
C378 C 0.37397 0.43718 0.16186 0.0
C379 C 0.38101 0.2934 0.13079 0.0
O380 O 0.40724 0.48401 0.1471 0.0
O381 O 0.41061 0.39016 0.13414 0.0
O382 O 0.3984 0.44076 0.10142 0.0
O383 O 0.38223 0.43794 0.10915 0.0
O384 O 0.39012 0.54611 0.13213 0.0
O385 O 0.37203 0.5443 0.12293 0.0
O386 O 0.35543 0.38781 0.10953 0.0
O387 O 0.35103 0.4742 0.12509 0.0
O388 O 0.36392 0.43477 0.15666 0.0
O389 O 0.37996 0.43449 0.14852 0.0
O390 O 0.37182 0.32381 0.12672 0.0
O391 O 0.39014 0.32562 0.13451 0.0
H392 H 0.42773 0.49571 0.16691 0.0
H393 H 0.4471 0.51964 0.16408 0.0
H394 H 0.44646 0.44832 0.11095 0.0
H395 H 0.42695 0.42604 0.11376 0.0
H396 H 0.33538 0.36632 0.09053 0.0
H397 H 0.31651 0.33027 0.09307 0.0
H398 H 0.31601 0.39417 0.14686 0.0
H399 H 0.33504 0.42862 0.14434 0.0
Nd400 Nd 0.62068 0.43862 0.37533 0.0
Nd401 Nd 0.64598 0.43984 0.37625 0.0
C402 C 0.59964 0.45899 0.37211 0.0
C403 C 0.58779 0.47145 0.37123 0.0
C404 C 0.58199 0.46416 0.35556 0.0
C405 C 0.57081 0.47758 0.35494 0.0
C406 C 0.5652 0.49803 0.37003 0.0
C407 C 0.57109 0.50612 0.38561 0.0
C408 C 0.58223 0.49297 0.3862 0.0
C409 C 0.62988 0.41755 0.40768 0.0
C410 C 0.63354 0.58161 0.37586 0.0
C411 C 0.66641 0.43375 0.38706 0.0
C412 C 0.67741 0.40592 0.38429 0.0
C413 C 0.68289 0.37871 0.39863 0.0
C414 C 0.69375 0.35909 0.39724 0.0
C415 C 0.69946 0.36624 0.38142 0.0
C416 C 0.69384 0.39153 0.36684 0.0
C417 C 0.68294 0.41133 0.36827 0.0
C418 C 0.6395 0.44346 0.34153 0.0
C419 C 0.63275 0.29727 0.3731 0.0
O420 O 0.60542 0.43478 0.35922 0.0
O421 O 0.60507 0.47063 0.38644 0.0
O422 O 0.62172 0.38444 0.40153 0.0
O423 O 0.63307 0.45984 0.39667 0.0
O424 O 0.62461 0.54911 0.37151 0.0
O425 O 0.64254 0.55034 0.38042 0.0
O426 O 0.65875 0.39462 0.39293 0.0
O427 O 0.66284 0.47795 0.37601 0.0
O428 O 0.64954 0.4403 0.34655 0.0
O429 O 0.63341 0.44113 0.35474 0.0
O430 O 0.6417 0.32866 0.37807 0.0
O431 O 0.62376 0.3295 0.36884 0.0
H432 H 0.58609 0.44812 0.34378 0.0
H433 H 0.56651 0.47053 0.34275 0.0
H434 H 0.56709 0.52293 0.39739 0.0
H435 H 0.58647 0.49976 0.39846 0.0
H436 H 0.67882 0.37421 0.41113 0.0
H437 H 0.69772 0.3388 0.40865 0.0
H438 H 0.69798 0.39819 0.35448 0.0
H439 H 0.67894 0.43239 0.35698 0.0
Nd440 Nd 0.3928 0.6308 0.37621 0.0
Nd441 Nd 0.36779 0.6293 0.37489 0.0
C442 C 0.41423 0.62247 0.37484 0.0
C443 C 0.42558 0.59915 0.37298 0.0
C444 C 0.4307 0.5951 0.35662 0.0
C445 C 0.44187 0.58157 0.35546 0.0
C446 C 0.4482 0.57262 0.37064 0.0
C447 C 0.44294 0.57581 0.38695 0.0
C448 C 0.43181 0.58865 0.38808 0.0
C449 C 0.38242 0.65193 0.40772 0.0
C450 C 0.38024 0.48744 0.37559 0.0
C451 C 0.34716 0.63542 0.3848 0.0
C452 C 0.33621 0.66401 0.38172 0.0
C453 C 0.3316 0.70494 0.39449 0.0
C454 C 0.32076 0.72534 0.39324 0.0
C455 C 0.31417 0.70497 0.3792 0.0
C456 C 0.3189 0.6656 0.36611 0.0
C457 C 0.32978 0.64532 0.36735 0.0
C458 C 0.37484 0.62589 0.34061 0.0
C459 C 0.38077 0.77201 0.37271 0.0
O460 O 0.40835 0.64021 0.36135 0.0
O461 O 0.40853 0.60635 0.38861 0.0
O462 O 0.39067 0.68575 0.40222 0.0
O463 O 0.37984 0.60898 0.39654 0.0
O464 O 0.38951 0.51954 0.37331 0.0
O465 O 0.37094 0.51864 0.3781 0.0
O466 O 0.35477 0.67365 0.39119 0.0
O467 O 0.35089 0.59171 0.37375 0.0
O468 O 0.36474 0.62937 0.34537 0.0
O469 O 0.38098 0.62795 0.35388 0.0
O470 O 0.37155 0.74077 0.37599 0.0
O471 O 0.38997 0.73987 0.37017 0.0
H472 H 0.42614 0.60369 0.34474 0.0
H473 H 0.44555 0.57863 0.34264 0.0
H474 H 0.44748 0.57079 0.39899 0.0
H475 H 0.42815 0.59284 0.4009 0.0
H476 H 0.33631 0.71973 0.40578 0.0
H477 H 0.31752 0.75656 0.40343 0.0
H478 H 0.3141 0.64827 0.3552 0.0
H479 H 0.33303 0.61331 0.35734 0.0
Nd480 Nd 0.36896 0.43945 0.87582 0.0
Nd481 Nd 0.39414 0.43816 0.87423 0.0
C482 C 0.3475 0.42998 0.87884 0.0
C483 C 0.33681 0.39603 0.88028 0.0
C484 C 0.33094 0.39724 0.89601 0.0
C485 C 0.32006 0.37629 0.89657 0.0
C486 C 0.31471 0.35431 0.88136 0.0
C487 C 0.32075 0.35139 0.86575 0.0
C488 C 0.33162 0.37177 0.86523 0.0
C489 C 0.37781 0.47042 0.8438 0.0
C490 C 0.38152 0.29589 0.87417 0.0
C491 C 0.41463 0.44224 0.86329 0.0
C492 C 0.42603 0.46244 0.86687 0.0
C493 C 0.43167 0.49887 0.8542 0.0
C494 C 0.44283 0.51145 0.85594 0.0
C495 C 0.44869 0.48792 0.87046 0.0
C496 C 0.44294 0.45295 0.88342 0.0
C497 C 0.43176 0.44028 0.88165 0.0
C498 C 0.38825 0.43953 0.90931 0.0
C499 C 0.38126 0.57991 0.87827 0.0
O500 O 0.35387 0.43845 0.89241 0.0
O501 O 0.35279 0.42576 0.8641 0.0
O502 O 0.36976 0.50104 0.851 0.0
O503 O 0.38115 0.42414 0.85356 0.0
O504 O 0.37237 0.32756 0.87753 0.0
O505 O 0.39072 0.32721 0.87083 0.0
O506 O 0.40746 0.48766 0.85943 0.0
O507 O 0.41051 0.39355 0.87234 0.0
O508 O 0.39817 0.4404 0.9036 0.0
O509 O 0.3818 0.43954 0.89648 0.0
O510 O 0.38992 0.54918 0.87203 0.0
O511 O 0.37254 0.54712 0.88356 0.0
H512 H 0.33463 0.4165 0.90778 0.0
H513 H 0.3158 0.37833 0.90893 0.0
H514 H 0.31696 0.33603 0.85366 0.0
H515 H 0.33579 0.37122 0.85277 0.0
H516 H 0.42751 0.5158 0.84257 0.0
H517 H 0.44692 0.53765 0.84553 0.0
H518 H 0.44709 0.43485 0.89492 0.0
H519 H 0.42766 0.41189 0.89166 0.0
Nd520 Nd 0.64531 0.62492 0.87546 0.0
Nd521 Nd 0.62118 0.62953 0.87496 0.0
C522 C 0.66668 0.63271 0.88055 0.0
C523 C 0.67733 0.66744 0.87975 0.0
C524 C 0.68284 0.68309 0.89527 0.0
C525 C 0.69369 0.70436 0.89493 0.0
C526 C 0.69937 0.71035 0.87902 0.0
C527 C 0.6937 0.697 0.86343 0.0
C528 C 0.68285 0.6757 0.86379 0.0
C529 C 0.6366 0.602 0.843 0.0
C530 C 0.63336 0.7697 0.87251 0.0
C531 C 0.59996 0.62321 0.86851 0.0
C532 C 0.58864 0.59807 0.8698 0.0
C533 C 0.58279 0.58577 0.85442 0.0
C534 C 0.57159 0.57297 0.85495 0.0
C535 C 0.56589 0.57251 0.87092 0.0
C536 C 0.57186 0.58276 0.8864 0.0
C537 C 0.58308 0.59546 0.88585 0.0
C538 C 0.62969 0.64285 0.90821 0.0
C539 C 0.63316 0.48452 0.8781 0.0
O540 O 0.65957 0.6474 0.89267 0.0
O541 O 0.66218 0.6138 0.86597 0.0
O542 O 0.64463 0.56975 0.84969 0.0
O543 O 0.63335 0.64705 0.85323 0.0
O544 O 0.64232 0.73725 0.8765 0.0
O545 O 0.62426 0.73822 0.86888 0.0
O546 O 0.60718 0.59471 0.8585 0.0
O547 O 0.60421 0.65315 0.88194 0.0
O548 O 0.6213 0.67405 0.90231 0.0
O549 O 0.63317 0.60285 0.89685 0.0
O550 O 0.62412 0.51695 0.8744 0.0
O551 O 0.64232 0.51597 0.88147 0.0
H552 H 0.67889 0.67612 0.90779 0.0
H553 H 0.69776 0.71326 0.90723 0.0
H554 H 0.69769 0.70204 0.8509 0.0
H555 H 0.67893 0.66353 0.85155 0.0
H556 H 0.58682 0.58833 0.84185 0.0
H557 H 0.56738 0.56419 0.84276 0.0
H558 H 0.5678 0.58359 0.89895 0.0
H559 H 0.58732 0.60556 0.89795 0.0
Nd560 Nd 0.36776 0.6287 0.6284 0.0
Nd561 Nd 0.39314 0.62838 0.62746 0.0
C562 C 0.3472 0.6351 0.61819 0.0
C563 C 0.33618 0.66323 0.62042 0.0
C564 C 0.32995 0.67524 0.60543 0.0
C565 C 0.31907 0.69453 0.60676 0.0
C566 C 0.3141 0.7025 0.62317 0.0
C567 C 0.32047 0.69264 0.63826 0.0
C568 C 0.3314 0.67291 0.6369 0.0
C569 C 0.37503 0.62465 0.66262 0.0
C570 C 0.38121 0.77071 0.6305 0.0
C571 C 0.41432 0.61018 0.62989 0.0
C572 C 0.42624 0.59912 0.6306 0.0
C573 C 0.43224 0.61287 0.64577 0.0
C574 C 0.44353 0.60278 0.64617 0.0
C575 C 0.44909 0.57887 0.63137 0.0
C576 C 0.44301 0.5648 0.61626 0.0
C577 C 0.43176 0.5748 0.61588 0.0
C578 C 0.38294 0.64958 0.59584 0.0
C579 C 0.38001 0.4862 0.62823 0.0
O580 O 0.35488 0.67242 0.6116 0.0
O581 O 0.35075 0.59347 0.62994 0.0
O582 O 0.36488 0.62871 0.65812 0.0
O583 O 0.38095 0.62658 0.64912 0.0
O584 O 0.3719 0.73978 0.62742 0.0
O585 O 0.39044 0.73839 0.63288 0.0
O586 O 0.40874 0.63853 0.6424 0.0
O587 O 0.40857 0.59168 0.61639 0.0
O588 O 0.39152 0.68106 0.60103 0.0
O589 O 0.38014 0.60768 0.6072 0.0
O590 O 0.38924 0.51804 0.63102 0.0
O591 O 0.37079 0.51771 0.62516 0.0
H592 H 0.33344 0.66798 0.59258 0.0
H593 H 0.31451 0.70275 0.59486 0.0
H594 H 0.31691 0.698 0.65111 0.0
H595 H 0.33602 0.66375 0.64869 0.0
H596 H 0.42822 0.63167 0.65732 0.0
H597 H 0.44792 0.61489 0.65798 0.0
H598 H 0.44693 0.54536 0.6047 0.0
H599 H 0.42738 0.56357 0.60398 0.0
Nd600 Nd 0.64507 0.44053 0.62766 0.0
Nd601 Nd 0.62121 0.43414 0.6285 0.0
C602 C 0.66646 0.43336 0.62278 0.0
C603 C 0.67702 0.39785 0.62309 0.0
C604 C 0.6827 0.38766 0.60741 0.0
C605 C 0.6935 0.36574 0.60755 0.0
C606 C 0.69896 0.35382 0.62341 0.0
C607 C 0.69312 0.36165 0.63909 0.0
C608 C 0.6823 0.38344 0.63894 0.0
C609 C 0.63652 0.4635 0.66026 0.0
C610 C 0.63335 0.29507 0.63087 0.0
C611 C 0.59995 0.44003 0.63462 0.0
C612 C 0.58883 0.46781 0.63298 0.0
C613 C 0.58353 0.49193 0.64789 0.0
C614 C 0.57241 0.50693 0.64748 0.0
C615 C 0.56626 0.49767 0.63216 0.0
C616 C 0.57169 0.47569 0.61705 0.0
C617 C 0.58282 0.46093 0.61745 0.0
C618 C 0.62965 0.41998 0.59524 0.0
C619 C 0.63292 0.58015 0.62514 0.0
O620 O 0.65941 0.42226 0.61031 0.0
O621 O 0.66188 0.4485 0.63762 0.0
O622 O 0.64427 0.49737 0.65322 0.0
O623 O 0.63337 0.41765 0.65022 0.0
O624 O 0.64208 0.32806 0.62589 0.0
O625 O 0.62444 0.32649 0.63546 0.0
O626 O 0.60716 0.46753 0.64486 0.0
O627 O 0.60428 0.41051 0.62119 0.0
O628 O 0.62176 0.38531 0.60159 0.0
O629 O 0.63287 0.46183 0.6063 0.0
O630 O 0.62402 0.54703 0.62935 0.0
O631 O 0.64203 0.54902 0.62131 0.0
H632 H 0.67891 0.39908 0.595 0.0
H633 H 0.69764 0.35926 0.59519 0.0
H634 H 0.69704 0.35377 0.65157 0.0
H635 H 0.67824 0.39157 0.6513 0.0
H636 H 0.58789 0.49687 0.6601 0.0
H637 H 0.56861 0.52481 0.65931 0.0
H638 H 0.56726 0.46705 0.60505 0.0
H639 H 0.5866 0.44152 0.60577 0.0
H640 H 0.21434 0.18733 0.149 0.0
H641 H 0.23375 0.21338 0.14927 0.0
H642 H 0.23091 0.30039 0.09815 0.0
H643 H 0.21139 0.27665 0.09802 0.0
H644 H 0.25005 0.17262 0.12713 0.0
H645 H 0.24635 0.44402 0.12534 0.0
H646 H 0.23499 0.39074 0.1302 0.0
H647 H 0.23919 0.40363 0.10795 0.0
C648 C 0.21778 0.21301 0.13791 0.0
C649 C 0.21123 0.23033 0.12353 0.0
C650 C 0.22893 0.2273 0.13803 0.0
C651 C 0.2338 0.25952 0.12383 0.0
C652 C 0.22732 0.27649 0.1094 0.0
H653 H 0.29896 0.37937 0.09517 0.0
H654 H 0.27962 0.35267 0.09668 0.0
C655 C 0.21616 0.26224 0.10926 0.0
C656 C 0.24568 0.27444 0.12402 0.0
H657 H 0.26406 0.40016 0.12063 0.0
C658 C 0.25311 0.22242 0.12582 0.0
C659 C 0.24969 0.33943 0.12243 0.0
C660 C 0.24215 0.39778 0.12154 0.0
C661 C 0.26442 0.23346 0.12553 0.0
C662 C 0.26842 0.29833 0.12364 0.0
C663 C 0.26099 0.35039 0.12202 0.0
C664 C 0.28029 0.31311 0.12285 0.0
C665 C 0.27201 0.17542 0.12674 0.0
C666 C 0.28715 0.29987 0.1371 0.0
C667 C 0.29829 0.31463 0.13624 0.0
C668 C 0.3028 0.34311 0.12112 0.0
C669 C 0.29586 0.35644 0.10692 0.0
C670 C 0.28475 0.34175 0.1078 0.0
H671 H 0.26774 0.12822 0.12422 0.0
H672 H 0.27882 0.18048 0.1173 0.0
H673 H 0.27553 0.17327 0.14007 0.0
H674 H 0.28388 0.27859 0.14895 0.0
H675 H 0.30337 0.30324 0.14738 0.0
H676 H 0.79878 0.91718 0.14454 0.0
H677 H 0.7795 0.88866 0.14625 0.0
H678 H 0.78375 0.74734 0.10489 0.0
H679 H 0.80311 0.77173 0.10397 0.0
H680 H 0.76359 0.90094 0.12331 0.0
H681 H 0.76762 0.63663 0.13876 0.0
H682 H 0.77903 0.69228 0.13952 0.0
H683 H 0.77468 0.65744 0.11905 0.0
C684 C 0.79571 0.87884 0.13607 0.0
C685 C 0.80264 0.84683 0.12413 0.0
C686 C 0.7846 0.86311 0.13694 0.0
C687 C 0.78011 0.8151 0.12588 0.0
C688 C 0.78698 0.78341 0.11389 0.0
H689 H 0.71553 0.67951 0.09877 0.0
H690 H 0.73484 0.70755 0.10032 0.0
C691 C 0.7981 0.79839 0.11317 0.0
C692 C 0.76822 0.79948 0.1265 0.0
H693 H 0.75004 0.67214 0.12913 0.0
C694 C 0.76065 0.85095 0.12478 0.0
C695 C 0.76429 0.73431 0.1285 0.0
C696 C 0.77183 0.67715 0.13175 0.0
C697 C 0.74937 0.83878 0.12447 0.0
C698 C 0.7455 0.77353 0.12596 0.0
C699 C 0.75301 0.72216 0.12789 0.0
C700 C 0.73368 0.75749 0.12515 0.0
C701 C 0.74162 0.89551 0.12208 0.0
C702 C 0.72657 0.77617 0.13862 0.0
C703 C 0.71547 0.76034 0.13777 0.0
C704 C 0.71123 0.72565 0.12339 0.0
C705 C 0.71842 0.70708 0.10993 0.0
C706 C 0.72951 0.72261 0.11085 0.0
H707 H 0.7459 0.94156 0.11837 0.0
H708 H 0.7355 0.88368 0.1119 0.0
H709 H 0.7372 0.90429 0.13449 0.0
H710 H 0.72963 0.80274 0.14985 0.0
H711 H 0.71019 0.7759 0.1483 0.0
H712 H 0.30158 0.73559 0.35052 0.0
H713 H 0.28218 0.76266 0.34983 0.0
H714 H 0.28051 0.74057 0.40574 0.0
H715 H 0.2998 0.71326 0.40658 0.0
H716 H 0.2643 0.69265 0.35972 0.0
H717 H 0.26695 0.9187 0.39977 0.0
H718 H 0.27882 0.87882 0.39086 0.0
H719 H 0.27256 0.84807 0.41049 0.0
C720 C 0.29709 0.73629 0.36269 0.0
C721 C 0.30236 0.72271 0.37863 0.0
C722 C 0.28599 0.75204 0.36227 0.0
C723 C 0.27989 0.75496 0.37776 0.0
C724 C 0.28507 0.74055 0.39364 0.0
H725 H 0.21292 0.83336 0.40658 0.0
H726 H 0.23217 0.80491 0.40543 0.0
C727 C 0.29615 0.72494 0.39409 0.0
C728 C 0.26808 0.77182 0.37735 0.0
H729 H 0.24917 0.87683 0.39448 0.0
C730 C 0.261 0.73325 0.36721 0.0
C731 C 0.26374 0.82477 0.38712 0.0
C732 C 0.27092 0.87038 0.39754 0.0
C733 C 0.24971 0.7449 0.367 0.0
C734 C 0.24536 0.79747 0.37692 0.0
C735 C 0.25246 0.83639 0.38692 0.0
C736 C 0.23348 0.81259 0.37733 0.0
C737 C 0.24251 0.69936 0.3566 0.0
C738 C 0.22772 0.82662 0.36193 0.0
C739 C 0.2166 0.84187 0.36251 0.0
C740 C 0.21099 0.84434 0.37854 0.0
C741 C 0.21684 0.83068 0.39395 0.0
C742 C 0.22792 0.81502 0.39334 0.0
H743 H 0.24658 0.65164 0.35393 0.0
H744 H 0.23474 0.68958 0.36353 0.0
H745 H 0.2406 0.72257 0.34385 0.0
H746 H 0.23184 0.82657 0.34944 0.0
H747 H 0.21241 0.85156 0.35035 0.0
H748 H 0.80286 0.29979 0.39995 0.0
H749 H 0.78347 0.32398 0.39892 0.0
H750 H 0.77944 0.18395 0.35719 0.0
H751 H 0.79871 0.15597 0.35891 0.0
H752 H 0.7707 0.37337 0.3745 0.0
H753 H 0.75616 0.12185 0.38969 0.0
H754 H 0.77026 0.14518 0.39163 0.0
H755 H 0.76461 0.12478 0.37062 0.0
C756 C 0.79787 0.27308 0.39073 0.0
C757 C 0.80245 0.225 0.37971 0.0
C758 C 0.78674 0.28757 0.39004 0.0
C759 C 0.77987 0.25477 0.37826 0.0
C760 C 0.78447 0.20864 0.36676 0.0
H761 H 0.71052 0.30533 0.35464 0.0
H762 H 0.72998 0.27878 0.35322 0.0
C763 C 0.79558 0.19349 0.36757 0.0
C764 C 0.76796 0.26955 0.37796 0.0
H765 H 0.7427 0.19931 0.38126 0.0
C766 C 0.7646 0.3352 0.37602 0.0
C767 C 0.75993 0.21997 0.38002 0.0
C768 C 0.76291 0.14911 0.38329 0.0
C769 C 0.75352 0.35236 0.37595 0.0
C770 C 0.74554 0.30278 0.37786 0.0
C771 C 0.74884 0.23717 0.37966 0.0
C772 C 0.73375 0.31865 0.37867 0.0
C773 C 0.75036 0.42345 0.37376 0.0
C774 C 0.7294 0.34939 0.3935 0.0
C775 C 0.71831 0.36459 0.39436 0.0
C776 C 0.71129 0.34939 0.3804 0.0
C777 C 0.71569 0.31837 0.36556 0.0
C778 C 0.7268 0.30281 0.36476 0.0
H779 H 0.75735 0.4545 0.36968 0.0
H780 H 0.74377 0.42816 0.36392 0.0
H781 H 0.7472 0.4425 0.38635 0.0
H782 H 0.73461 0.36169 0.40442 0.0
H783 H 0.71528 0.38921 0.40591 0.0
H784 H 0.71051 0.79641 0.90037 0.0
H785 H 0.72997 0.82115 0.90045 0.0
H786 H 0.73474 0.68797 0.85738 0.0
H787 H 0.71535 0.66262 0.85724 0.0
H788 H 0.74731 0.74219 0.90588 0.0
H789 H 0.75039 0.84711 0.83929 0.0
H790 H 0.73749 0.83271 0.84986 0.0
H791 H 0.74469 0.76594 0.83967 0.0
C792 C 0.71567 0.77222 0.8909 0.0
C793 C 0.71124 0.72771 0.87873 0.0
C794 C 0.72683 0.78671 0.89092 0.0
C795 C 0.73386 0.75748 0.87871 0.0
C796 C 0.72949 0.71277 0.86662 0.0
H797 H 0.80399 0.77476 0.85959 0.0
H798 H 0.78451 0.75007 0.85899 0.0
C799 C 0.71834 0.69829 0.86657 0.0
C800 C 0.74579 0.77197 0.87903 0.0
H801 H 0.76705 0.8258 0.85393 0.0
C802 C 0.75161 0.76084 0.89454 0.0
C803 C 0.75146 0.79595 0.86422 0.0
C804 C 0.74568 0.81174 0.84737 0.0
C805 C 0.7629 0.77177 0.89557 0.0
C806 C 0.76858 0.79606 0.88079 0.0
C807 C 0.76276 0.80708 0.86526 0.0
C808 C 0.78049 0.81113 0.88121 0.0
C809 C 0.76867 0.75533 0.9124 0.0
C810 C 0.78479 0.85459 0.89368 0.0
C811 C 0.79594 0.86878 0.89407 0.0
C812 C 0.80312 0.84054 0.88185 0.0
C813 C 0.79876 0.79782 0.86917 0.0
C814 C 0.78759 0.78343 0.86884 0.0
H815 H 0.76403 0.71885 0.92023 0.0
H816 H 0.77693 0.73538 0.9099 0.0
H817 H 0.76948 0.8006 0.92037 0.0
H818 H 0.7795 0.87845 0.90303 0.0
H819 H 0.79889 0.9032 0.90376 0.0
H820 H 0.29826 0.41089 0.90067 0.0
H821 H 0.27887 0.38468 0.90033 0.0
H822 H 0.28453 0.23639 0.86121 0.0
H823 H 0.304 0.2594 0.86217 0.0
H824 H 0.26416 0.39304 0.87366 0.0
H825 H 0.26686 0.13454 0.89625 0.0
H826 H 0.27818 0.19079 0.89763 0.0
H827 H 0.27491 0.1516 0.87724 0.0
C828 C 0.29547 0.37164 0.89225 0.0
C829 C 0.30283 0.33712 0.88153 0.0
C830 C 0.28431 0.35724 0.89193 0.0
C831 C 0.2802 0.30802 0.8809 0.0
C832 C 0.28748 0.27374 0.8701 0.0
H833 H 0.21505 0.1489 0.86273 0.0
H834 H 0.23439 0.17625 0.86126 0.0
C835 C 0.29865 0.28769 0.87051 0.0
C836 C 0.26828 0.29346 0.8805 0.0
H837 H 0.24958 0.17068 0.8864 0.0
C838 C 0.26098 0.34444 0.87651 0.0
C839 C 0.26407 0.23003 0.88413 0.0
C840 C 0.27139 0.1737 0.88921 0.0
C841 C 0.24967 0.33358 0.87579 0.0
C842 C 0.24545 0.27028 0.87959 0.0
C843 C 0.25276 0.21922 0.88348 0.0
C844 C 0.23351 0.25609 0.87985 0.0
C845 C 0.24237 0.38979 0.87054 0.0
C846 C 0.22647 0.2919 0.89072 0.0
C847 C 0.21533 0.2772 0.89135 0.0
C848 C 0.21094 0.2254 0.88136 0.0
C849 C 0.21802 0.18975 0.87043 0.0
C850 C 0.22915 0.2049 0.8697 0.0
H851 H 0.24687 0.42743 0.86288 0.0
H852 H 0.23537 0.37228 0.86266 0.0
H853 H 0.23918 0.41401 0.88246 0.0
H854 H 0.2296 0.33075 0.89897 0.0
H855 H 0.21019 0.30655 0.89976 0.0
H856 H 0.70969 0.26803 0.64533 0.0
H857 H 0.72919 0.24331 0.64622 0.0
H858 H 0.73458 0.37356 0.60268 0.0
H859 H 0.71522 0.40019 0.602 0.0
H860 H 0.74279 0.19046 0.61924 0.0
H861 H 0.75647 0.43886 0.63966 0.0
H862 H 0.74252 0.41198 0.64166 0.0
H863 H 0.74776 0.43747 0.62082 0.0
C864 C 0.71502 0.29197 0.63603 0.0
C865 C 0.7108 0.33633 0.62362 0.0
C866 C 0.72617 0.27742 0.6365 0.0
C867 C 0.73339 0.30728 0.62468 0.0
C868 C 0.72921 0.35071 0.61212 0.0
H869 H 0.80305 0.30039 0.60556 0.0
H870 H 0.78357 0.32289 0.60617 0.0
C871 C 0.71808 0.36523 0.61162 0.0
C872 C 0.74527 0.29256 0.62533 0.0
H873 H 0.77022 0.36356 0.63142 0.0
C874 C 0.7488 0.22817 0.62201 0.0
C875 C 0.75311 0.3418 0.62887 0.0
C876 C 0.74981 0.41135 0.63311 0.0
C877 C 0.75994 0.21208 0.62167 0.0
C878 C 0.76781 0.26132 0.62525 0.0
C879 C 0.76424 0.32566 0.62869 0.0
C880 C 0.77976 0.24753 0.62517 0.0
C881 C 0.76315 0.14286 0.61689 0.0
C882 C 0.78425 0.19847 0.63589 0.0
C883 C 0.79542 0.18451 0.63534 0.0
C884 C 0.80244 0.22002 0.62423 0.0
C885 C 0.79794 0.27074 0.61397 0.0
C886 C 0.78677 0.2842 0.61442 0.0
H887 H 0.75657 0.11727 0.60962 0.0
H888 H 0.77064 0.1424 0.60878 0.0
H889 H 0.76474 0.11455 0.629 0.0
H890 H 0.77911 0.17061 0.64468 0.0
H891 H 0.79848 0.14482 0.64337 0.0
H892 H 0.21514 0.91514 0.64511 0.0
H893 H 0.23452 0.88855 0.64541 0.0
H894 H 0.2291 0.73651 0.60722 0.0
H895 H 0.2097 0.76218 0.60692 0.0
H896 H 0.24561 0.77615 0.65343 0.0
H897 H 0.25306 0.84078 0.58413 0.0
H898 H 0.24066 0.86268 0.59533 0.0
H899 H 0.24254 0.78061 0.58711 0.0
C900 C 0.21801 0.87551 0.63688 0.0
C901 C 0.21076 0.84113 0.62591 0.0
C902 C 0.22914 0.86064 0.637 0.0
C903 C 0.23336 0.81144 0.62607 0.0
C904 C 0.22613 0.77596 0.61542 0.0
H905 H 0.29738 0.65405 0.60331 0.0
H906 H 0.27809 0.68122 0.60485 0.0
C907 C 0.215 0.79075 0.61528 0.0
C908 C 0.24527 0.79706 0.62591 0.0
H909 H 0.2675 0.78882 0.59917 0.0
C910 C 0.25041 0.77917 0.64158 0.0
C911 C 0.25158 0.80105 0.61046 0.0
C912 C 0.24672 0.82291 0.59333 0.0
C913 C 0.26157 0.7633 0.64216 0.0
C914 C 0.26788 0.76703 0.62668 0.0
C915 C 0.26273 0.78564 0.61105 0.0
C916 C 0.27974 0.7503 0.62618 0.0
C917 C 0.26633 0.74048 0.65927 0.0
C918 C 0.28726 0.78034 0.63752 0.0
C919 C 0.29836 0.76435 0.63676 0.0
C920 C 0.30226 0.71901 0.62437 0.0
C921 C 0.29473 0.68971 0.6129 0.0
C922 C 0.28365 0.70511 0.61381 0.0
H923 H 0.25995 0.72146 0.66821 0.0
H924 H 0.27248 0.70126 0.65723 0.0
H925 H 0.27033 0.78267 0.66583 0.0
H926 H 0.28459 0.81697 0.64682 0.0
H927 H 0.30393 0.78863 0.64561 0.0
H928 H 0.15138 0.92468 0.31279 0.0
H929 H 0.14731 0.95459 0.2826 0.0
H930 H 0.11553 1.022 0.29814 0.0
H931 H 0.11955 0.99138 0.3287 0.0
H932 H 0.12258 0.91815 0.26223 0.0
H933 H 0.13843 0.17308 0.27005 0.0
H934 H 0.14456 0.10669 0.28224 0.0
H935 H 0.13097 0.13219 0.28727 0.0
C936 C 0.14345 0.94502 0.30981 0.0
C937 C 0.13576 0.95519 0.32313 0.0
C938 C 0.14115 0.96217 0.29252 0.0
C939 C 0.13113 0.99046 0.28811 0.0
C940 C 0.1233 0.99984 0.30128 0.0
H941 H 0.12333 0.16804 0.18263 0.0
H942 H 0.12014 0.14558 0.21395 0.0
C943 C 0.12558 0.98209 0.31868 0.0
C944 C 0.12922 1.01177 0.26976 0.0
H945 H 0.13504 0.1366 0.24127 0.0
C946 C 0.12511 0.96631 0.25768 0.0
C947 C 0.13249 0.07459 0.26383 0.0
C948 C 0.13685 0.12495 0.27643 0.0
C949 C 0.12452 0.98136 0.23976 0.0
C950 C 0.12842 0.04288 0.23362 0.0
C951 C 0.13206 0.08944 0.24585 0.0
C952 C 0.12981 0.05663 0.21455 0.0
C953 C 0.11982 0.93071 0.22751 0.0
C954 C 0.13632 1.01464 0.20447 0.0
C955 C 0.13806 1.02706 0.18678 0.0
C956 C 0.1335 0.08245 0.17858 0.0
C957 C 0.12691 0.12476 0.18854 0.0
C958 C 0.12513 0.11209 0.20644 0.0
H959 H 0.11386 0.89858 0.23433 0.0
H960 H 0.11574 0.95417 0.21619 0.0
H961 H 0.12648 0.8989 0.22258 0.0
H962 H 0.14026 0.97254 0.21038 0.0
H963 H 0.14321 0.99344 0.17958 0.0
H964 H 0.89376 0.10906 0.32606 0.0
H965 H 0.89727 0.08273 0.29505 0.0
H966 H 0.86272 0.07893 0.2854 0.0
H967 H 0.85924 0.10706 0.31563 0.0
H968 H 0.89164 0.9784 0.27443 0.0
H969 H 0.87204 0.19941 0.24726 0.0
H970 H 0.87529 0.19234 0.27014 0.0
H971 H 0.86286 0.15764 0.26165 0.0
C972 C 0.88696 0.10352 0.3172 0.0
C973 C 0.87622 0.11124 0.32329 0.0
C974 C 0.88896 0.08816 0.29951 0.0
C975 C 0.88026 0.08045 0.28766 0.0
C976 C 0.8696 0.08678 0.29397 0.0
H977 H 0.8604 0.94157 0.1895 0.0
H978 H 0.86394 0.97476 0.2195 0.0
C979 C 0.86762 0.10257 0.31141 0.0
C980 C 0.88203 0.06429 0.26879 0.0
H981 H 0.87311 0.10582 0.22793 0.0
C982 C 0.88781 1.0071 0.26422 0.0
C983 C 0.87713 0.1018 0.25529 0.0
C984 C 0.87159 0.16657 0.25884 0.0
C985 C 0.88816 0.98444 0.24679 0.0
C986 C 0.88258 1.01963 0.23361 0.0
C987 C 0.87731 0.07841 0.23804 0.0
C988 C 0.88107 0.99354 0.21555 0.0
C989 C 0.89399 0.92126 0.24265 0.0
C990 C 0.88958 0.99235 0.20322 0.0
C991 C 0.88755 0.97324 0.18581 0.0
C992 C 0.87699 0.9552 0.18053 0.0
C993 C 0.86863 0.95497 0.19308 0.0
C994 C 0.87064 0.97401 0.2103 0.0
H995 H 0.89744 0.89765 0.2545 0.0
H996 H 0.88831 0.88632 0.23625 0.0
H997 H 0.90071 0.93135 0.23335 0.0
H998 H 0.89767 1.00807 0.20691 0.0
H999 H 0.89414 0.97457 0.17642 0.0
H1000 H 0.8942 0.08052 0.67522 0.0
H1001 H 0.89777 0.04502 0.70556 0.0
H1002 H 0.86535 0.10423 0.72015 0.0
H1003 H 0.86173 0.1382 0.69025 0.0
H1004 H 0.89631 0.10962 0.73945 0.0
H1005 H 0.86598 0.90975 0.73326 0.0
H1006 H 0.87143 0.95269 0.71456 0.0
H1007 H 0.86058 0.98839 0.72717 0.0
C1008 C 0.88793 0.08675 0.68501 0.0
C1009 C 0.87766 0.11193 0.68032 0.0
C1010 C 0.88995 0.06635 0.70232 0.0
C1011 C 0.88174 0.07074 0.7151 0.0
C1012 C 0.87174 0.099 0.71051 0.0
H1013 H 0.86553 0.04163 0.82049 0.0
H1014 H 0.86874 0.06038 0.78961 0.0
C1015 C 0.8697 0.1188 0.69337 0.0
C1016 C 0.88319 0.04361 0.73309 0.0
H1017 H 0.87084 0.9411 0.7625 0.0
C1018 C 0.89093 0.07163 0.74439 0.0
C1019 C 0.87621 0.99379 0.73961 0.0
C1020 C 0.86815 0.95891 0.72797 0.0
C1021 C 0.89137 0.05386 0.7622 0.0
C1022 C 0.88394 1.007 0.76885 0.0
C1023 C 0.87657 0.97687 0.75739 0.0
C1024 C 0.88259 0.99546 0.78794 0.0
C1025 C 0.89936 0.08761 0.77412 0.0
C1026 C 0.88935 0.95232 0.79741 0.0
C1027 C 0.88746 0.94078 0.81534 0.0
C1028 C 0.87882 0.97251 0.82397 0.0
C1029 C 0.87224 1.01605 0.81435 0.0
C1030 C 0.87406 1.02706 0.79662 0.0
H1031 H 0.90485 0.12159 0.76695 0.0
H1032 H 0.89486 0.11592 0.7842 0.0
H1033 H 0.90435 0.05025 0.78101 0.0
H1034 H 0.89598 0.92727 0.79091 0.0
H1035 H 0.89272 0.90732 0.82239 0.0
H1036 H 0.12044 0.07892 0.82928 0.0
H1037 H 0.11703 0.04208 0.79904 0.0
H1038 H 0.14878 0.11223 0.78396 0.0
H1039 H 0.15228 0.1469 0.81384 0.0
H1040 H 0.11702 0.10231 0.76582 0.0
H1041 H 0.15053 0.92196 0.76978 0.0
H1042 H 0.14517 0.96276 0.78884 0.0
H1043 H 0.15507 1.00319 0.77518 0.0
C1044 C 0.1266 0.08717 0.81941 0.0
C1045 C 0.13665 0.11562 0.82397 0.0
C1046 C 0.12466 0.06593 0.80215 0.0
C1047 C 0.13276 0.07281 0.78923 0.0
C1048 C 0.14251 0.10456 0.79369 0.0
H1049 H 0.14686 0.05375 0.68277 0.0
H1050 H 0.14392 0.07142 0.71374 0.0
C1051 C 0.14447 0.12494 0.81081 0.0
C1052 C 0.1314 0.04539 0.77122 0.0
H1053 H 0.14465 0.95152 0.74083 0.0
C1054 C 0.12291 0.06815 0.76048 0.0
C1055 C 0.13902 1.00029 0.76415 0.0
C1056 C 0.14789 0.9701 0.77515 0.0
C1057 C 0.12229 0.05019 0.74268 0.0
C1058 C 0.13032 1.0085 0.73546 0.0
C1059 C 0.13847 0.98338 0.74637 0.0
C1060 C 0.13134 0.99787 0.71626 0.0
C1061 C 0.11341 0.07834 0.73139 0.0
C1062 C 0.12519 0.95037 0.7072 0.0
C1063 C 0.12691 0.93949 0.68919 0.0
C1064 C 0.13482 0.97611 0.68008 0.0
C1065 C 0.14075 1.02419 0.68928 0.0
C1066 C 0.13908 0.03465 0.70707 0.0
H1067 H 0.10754 0.10834 0.739 0.0
H1068 H 0.11707 0.10955 0.72104 0.0
H1069 H 0.10894 0.03784 0.72482 0.0
H1070 H 0.11918 0.92125 0.71409 0.0
H1071 H 0.12218 0.90235 0.68249 0.0
H1072 H 0.62036 0.49648 0.32874 0.0
H1073 H 0.61649 0.52737 0.29818 0.0
H1074 H 0.64761 0.44966 0.28253 0.0
H1075 H 0.65153 0.41982 0.31274 0.0
H1076 H 0.63042 0.61447 0.2765 0.0
H1077 H 0.62546 0.36675 0.24747 0.0
H1078 H 0.62385 0.38221 0.27056 0.0
H1079 H 0.63722 0.37508 0.26123 0.0
C1080 C 0.62626 0.48493 0.31869 0.0
C1081 C 0.63622 0.45518 0.32311 0.0
C1082 C 0.62407 0.50291 0.30127 0.0
C1083 C 0.6317 0.49011 0.28799 0.0
C1084 C 0.64151 0.45912 0.29243 0.0
H1085 H 0.65341 0.60781 0.18942 0.0
H1086 H 0.64939 0.57726 0.21946 0.0
C1087 C 0.64376 0.44216 0.30975 0.0
C1088 C 0.6299 0.51196 0.26961 0.0
H1089 H 0.62942 0.45464 0.2276 0.0
C1090 C 0.62992 0.57955 0.26583 0.0
C1091 C 0.6293 0.46655 0.25563 0.0
C1092 C 0.62886 0.39354 0.25887 0.0
C1093 C 0.62997 0.60255 0.24847 0.0
C1094 C 0.62992 0.55702 0.23453 0.0
C1095 C 0.62938 0.4896 0.23828 0.0
C1096 C 0.63194 0.57809 0.21619 0.0
C1097 C 0.63057 0.67534 0.24501 0.0
C1098 C 0.62342 0.58873 0.20423 0.0
C1099 C 0.62571 0.60634 0.18678 0.0
C1100 C 0.63655 0.61354 0.18114 0.0
C1101 C 0.64497 0.60331 0.19329 0.0
C1102 C 0.6427 0.58568 0.21053 0.0
H1103 H 0.62946 0.70474 0.2571 0.0
H1104 H 0.63861 0.68747 0.23926 0.0
H1105 H 0.62424 0.68963 0.23538 0.0
H1106 H 0.61505 0.58291 0.20835 0.0
H1107 H 0.61905 0.61354 0.17774 0.0
H1108 H 0.39435 0.57873 0.32717 0.0
H1109 H 0.39809 0.54895 0.29646 0.0
H1110 H 0.36597 0.61427 0.28203 0.0
H1111 H 0.36228 0.644 0.31219 0.0
H1112 H 0.38659 0.45804 0.27528 0.0
H1113 H 0.38475 0.70541 0.24559 0.0
H1114 H 0.38643 0.69314 0.26879 0.0
H1115 H 0.37312 0.68879 0.25903 0.0
C1116 C 0.38821 0.58795 0.31733 0.0
C1117 C 0.37806 0.61442 0.32211 0.0
C1118 C 0.39032 0.57054 0.29982 0.0
C1119 C 0.38238 0.58035 0.28679 0.0
C1120 C 0.37234 0.60755 0.29164 0.0
H1121 H 0.36049 0.44572 0.18956 0.0
H1122 H 0.36463 0.47824 0.21945 0.0
C1123 C 0.37022 0.62436 0.30899 0.0
C1124 C 0.38412 0.55944 0.26826 0.0
H1125 H 0.38149 0.61417 0.22616 0.0
C1126 C 0.38575 0.49247 0.26455 0.0
C1127 C 0.38303 0.60407 0.25413 0.0
C1128 C 0.38184 0.67697 0.25707 0.0
C1129 C 0.38567 0.46882 0.24723 0.0
C1130 C 0.38395 0.513 0.23325 0.0
C1131 C 0.38284 0.58023 0.23687 0.0
C1132 C 0.38189 0.48954 0.2151 0.0
C1133 C 0.38695 0.39629 0.24391 0.0
C1134 C 0.39026 0.48475 0.20261 0.0
C1135 C 0.38791 0.46581 0.18529 0.0
C1136 C 0.37714 0.45172 0.18025 0.0
C1137 C 0.36888 0.45582 0.19295 0.0
C1138 C 0.37122 0.47451 0.2101 0.0
H1139 H 0.3892 0.36889 0.25593 0.0
H1140 H 0.37917 0.37619 0.23881 0.0
H1141 H 0.39328 0.38805 0.23381 0.0
H1142 H 0.39856 0.49646 0.20619 0.0
H1143 H 0.39443 0.46347 0.17583 0.0
H1144 H 0.38975 0.39296 0.8208 0.0
H1145 H 0.39294 0.41488 0.78946 0.0
H1146 H 0.37573 0.59867 0.7941 0.0
H1147 H 0.3727 0.57777 0.82496 0.0
H1148 H 0.37732 0.43404 0.763 0.0
H1149 H 0.4031 0.65567 0.76883 0.0
H1150 H 0.40073 0.60047 0.78691 0.0
H1151 H 0.39085 0.66245 0.78143 0.0
C1152 C 0.38684 0.43846 0.81513 0.0
C1153 C 0.381 0.48367 0.82539 0.0
C1154 C 0.3886 0.45082 0.79723 0.0
C1155 C 0.3847 0.50896 0.78939 0.0
C1156 C 0.37904 0.5542 0.79979 0.0
H1157 H 0.36314 0.6459 0.69167 0.0
H1158 H 0.3673 0.61497 0.72172 0.0
C1159 C 0.37725 0.54188 0.81749 0.0
C1160 C 0.38595 0.52201 0.77026 0.0
H1161 H 0.39378 0.6415 0.74127 0.0
C1162 C 0.38114 0.47865 0.75824 0.0
C1163 C 0.39095 0.5802 0.7639 0.0
C1164 C 0.3968 0.62704 0.77593 0.0
C1165 C 0.38068 0.49378 0.74029 0.0
C1166 C 0.38512 0.55365 0.73414 0.0
C1167 C 0.39037 0.59558 0.74598 0.0
C1168 C 0.38324 0.57626 0.71587 0.0
C1169 C 0.37507 0.44705 0.72796 0.0
C1170 C 0.39093 0.5658 0.70254 0.0
C1171 C 0.3886 0.58402 0.68517 0.0
C1172 C 0.3785 0.61261 0.68095 0.0
C1173 C 0.371 0.62419 0.69446 0.0
C1174 C 0.37334 0.60646 0.71168 0.0
H1175 H 0.37301 0.39953 0.73431 0.0
H1176 H 0.36745 0.46994 0.72309 0.0
H1177 H 0.38035 0.4374 0.71648 0.0
H1178 H 0.39861 0.54216 0.70549 0.0
H1179 H 0.39448 0.57362 0.67501 0.0
H1180 H 0.63748 0.48697 0.82584 0.0
H1181 H 0.63455 0.46621 0.7948 0.0
H1182 H 0.62534 0.66873 0.78738 0.0
H1183 H 0.62814 0.68977 0.81883 0.0
H1184 H 0.61486 0.49507 0.77131 0.0
H1185 H 0.65328 0.62713 0.75517 0.0
H1186 H 0.65058 0.59558 0.77679 0.0
H1187 H 0.64361 0.66752 0.7692 0.0
C1188 C 0.63463 0.52696 0.81767 0.0
C1189 C 0.63305 0.59005 0.82476 0.0
C1190 C 0.63295 0.5149 0.79993 0.0
C1191 C 0.62979 0.56588 0.78873 0.0
C1192 C 0.6278 0.62866 0.79581 0.0
H1193 H 0.63497 0.58133 0.67581 0.0
H1194 H 0.63188 0.6056 0.70655 0.0
C1195 C 0.62933 0.6406 0.81376 0.0
C1196 C 0.6294 0.55356 0.76956 0.0
H1197 H 0.64394 0.57735 0.7321 0.0
C1198 C 0.62114 0.51355 0.76264 0.0
C1199 C 0.63765 0.57708 0.75833 0.0
C1200 C 0.64685 0.61897 0.76514 0.0
C1201 C 0.62082 0.49739 0.74473 0.0
C1202 C 0.62921 0.51994 0.73348 0.0
C1203 C 0.63746 0.55997 0.74054 0.0
C1204 C 0.62965 0.5041 0.71436 0.0
C1205 C 0.61135 0.4575 0.73808 0.0
C1206 C 0.62916 0.43886 0.70811 0.0
C1207 C 0.63063 0.42502 0.69024 0.0
C1208 C 0.63293 0.47605 0.67843 0.0
C1209 C 0.63318 0.54101 0.68462 0.0
C1210 C 0.63147 0.55491 0.70226 0.0
H1211 H 0.60411 0.46282 0.74668 0.0
H1212 H 0.60904 0.47232 0.72464 0.0
H1213 H 0.61363 0.40474 0.73797 0.0
H1214 H 0.62809 0.3983 0.71709 0.0
H1215 H 0.63059 0.37439 0.68586 0.0
H1216 H 0.14551 0.13825 0.92383 0.0
H1217 H 0.14931 0.13907 0.95557 0.0
H1218 H 0.11507 0.116 0.96607 0.0
H1219 H 0.11128 0.11501 0.93495 0.0
H1220 H 0.13951 0.22555 0.98403 0.0
H1221 H 0.13011 0.96093 0.99221 0.0
H1222 H 0.13369 0.99653 0.97137 0.0
H1223 H 0.12011 1.00518 0.97981 0.0
C1224 C 0.13884 0.13326 0.93296 0.0
C1225 C 0.1281 0.12611 0.92683 0.0
C1226 C 0.141 0.13403 0.95108 0.0
C1227 C 0.13247 0.12702 0.96326 0.0
C1228 C 0.1218 0.12077 0.95702 0.0
H1229 H 0.11184 0.11737 0.06782 0.0
H1230 H 0.11536 0.1179 0.03656 0.0
C1231 C 0.11966 0.12023 0.93914 0.0
C1232 C 0.13442 0.12449 0.98252 0.0
H1233 H 0.12943 1.02691 0.01803 0.0
C1234 C 0.13759 0.1817 0.99148 0.0
C1235 C 0.13185 0.06745 0.9923 0.0
C1236 C 0.12884 1.00378 0.98345 0.0
C1237 C 0.13765 0.18413 0.00993 0.0
C1238 C 0.13453 0.12792 0.01966 0.0
C1239 C 0.13184 0.07007 0.01065 0.0
C1240 C 0.13277 0.12979 0.03897 0.0
C1241 C 0.14042 0.24776 0.01895 0.0
C1242 C 0.14141 0.13614 0.05095 0.0
C1243 C 0.13941 0.13542 0.0691 0.0
C1244 C 0.12873 0.12858 0.07551 0.0
C1245 C 0.12017 0.12262 0.06341 0.0
C1246 C 0.12217 0.12294 0.04546 0.0
H1247 H 0.14172 0.28869 0.00957 0.0
H1248 H 0.13379 0.26157 0.02811 0.0
H1249 H 0.14795 0.2412 0.02674 0.0
H1250 H 0.14969 0.14086 0.04628 0.0
H1251 H 0.14618 0.14026 0.07807 0.0
H1252 H 0.89391 0.84249 0.93207 0.0
H1253 H 0.89169 0.84534 0.96365 0.0
H1254 H 0.86999 1.01086 0.9588 0.0
H1255 H 0.87206 1.0074 0.92683 0.0
H1256 H 0.8974 0.94226 0.98547 0.0
H1257 H 0.85309 0.89554 0.99242 0.0
H1258 H 0.86031 0.8814 0.97224 0.0
H1259 H 0.85658 0.96349 0.97851 0.0
C1260 C 0.88856 0.87918 0.93765 0.0
C1261 C 0.88317 0.92478 0.9269 0.0
C1262 C 0.88731 0.88079 0.95578 0.0
C1263 C 0.8806 0.92788 0.96375 0.0
C1264 C 0.87505 0.97314 0.95303 0.0
H1265 H 0.87193 1.00349 0.07674 0.0
H1266 H 0.87042 1.00965 0.04468 0.0
C1267 C 0.87628 0.97142 0.93475 0.0
C1268 C 0.88004 0.93096 0.98326 0.0
H1269 H 0.86285 0.91857 0.01836 0.0
C1270 C 0.88982 0.93723 0.99261 0.0
C1271 C 0.87017 0.92463 0.99271 0.0
C1272 C 0.85944 0.91531 0.98351 0.0
C1273 C 0.89004 0.93698 0.01096 0.0
C1274 C 0.88022 0.92928 0.02042 0.0
C1275 C 0.87038 0.92451 0.01114 0.0
C1276 C 0.88019 0.92303 0.03986 0.0
C1277 C 0.90084 0.94532 0.02007 0.0
C1278 C 0.88585 0.87124 0.04786 0.0
C1279 C 0.88672 0.86769 0.06604 0.0
C1280 C 0.88188 0.91556 0.07676 0.0
C1281 C 0.87576 0.96588 0.06884 0.0
C1282 C 0.8749 0.96946 0.05053 0.0
H1283 H 0.90698 0.96872 0.01142 0.0
H1284 H 0.89997 0.97562 0.03205 0.0
H1285 H 0.90399 0.89629 0.02392 0.0
H1286 H 0.8898 0.83403 0.04 0.0
H1287 H 0.89142 0.82801 0.07169 0.0
H1288 H 0.13941 1.01722 0.42726 0.0
H1289 H 0.14128 1.02299 0.45925 0.0
H1290 H 0.12801 0.8275 0.46378 0.0
H1291 H 0.126 0.82183 0.43204 0.0
H1292 H 0.123 1.0043 0.48453 0.0
H1293 H 0.1566 0.82542 0.49388 0.0
H1294 H 0.15417 0.86671 0.47335 0.0
H1295 H 0.14574 0.79877 0.47981 0.0
C1296 C 0.13706 0.97513 0.43508 0.0
C1297 C 0.13261 0.91889 0.42712 0.0
C1298 C 0.13808 0.97861 0.45336 0.0
C1299 C 0.13486 0.92548 0.46395 0.0
C1300 C 0.13067 0.86882 0.45593 0.0
H1301 H 0.1247 0.83074 0.57228 0.0
H1302 H 0.12684 0.83404 0.54053 0.0
C1303 C 0.12952 0.86567 0.43776 0.0
C1304 C 0.13538 0.92973 0.4834 0.0
H1305 H 0.14697 0.85833 0.51936 0.0
C1306 C 0.12836 0.97315 0.49214 0.0
C1307 C 0.14228 0.8886 0.49337 0.0
C1308 C 0.1502 0.8425 0.48469 0.0
C1309 C 0.12786 0.97514 0.51053 0.0
C1310 C 0.13468 0.93345 0.52049 0.0
C1311 C 0.14179 0.89062 0.51175 0.0
C1312 C 0.13404 0.93102 0.53996 0.0
C1313 C 0.11975 1.01998 0.51923 0.0
C1314 C 0.13757 0.98402 0.55033 0.0
C1315 C 0.13647 0.98193 0.56862 0.0
C1316 C 0.1317 0.92707 0.57681 0.0
C1317 C 0.12838 0.87378 0.56638 0.0
C1318 C 0.12961 0.87553 0.54821 0.0
H1319 H 0.11401 0.04225 0.50972 0.0
H1320 H 0.11501 0.99246 0.52919 0.0
H1321 H 0.12415 0.06016 0.52601 0.0
H1322 H 0.14108 1.02722 0.54427 0.0
H1323 H 0.13908 1.02385 0.57628 0.0
H1324 H 0.86522 0.17296 0.57705 0.0
H1325 H 0.86299 0.17018 0.54502 0.0
H1326 H 0.89652 0.11171 0.53945 0.0
H1327 H 0.89879 0.11567 0.5712 0.0
H1328 H 0.87636 0.24443 0.51885 0.0
H1329 H 0.87858 0.97379 0.51065 0.0
H1330 H 0.87522 1.01225 0.53121 0.0
H1331 H 0.88913 1.00866 0.52404 0.0
C1332 C 0.87204 0.15879 0.56894 0.0
C1333 C 0.88215 0.14414 0.57654 0.0
C1334 C 0.87079 0.15758 0.55067 0.0
C1335 C 0.87958 0.14026 0.53981 0.0
C1336 C 0.88961 0.12463 0.54751 0.0
H1337 H 0.89951 0.1449 0.43302 0.0
H1338 H 0.89722 0.14078 0.46474 0.0
C1339 C 0.89089 0.12695 0.56565 0.0
C1340 C 0.87848 0.13957 0.5204 0.0
H1341 H 0.8807 0.03842 0.48486 0.0
C1342 C 0.87711 0.19928 0.51143 0.0
C1343 C 0.87951 0.08074 0.51066 0.0
C1344 C 0.8806 1.01503 0.51959 0.0
C1345 C 0.87717 0.20175 0.49303 0.0
C1346 C 0.87851 0.14315 0.48334 0.0
C1347 C 0.87961 0.08332 0.49229 0.0
C1348 C 0.87965 0.14387 0.46398 0.0
C1349 C 0.8762 0.26716 0.48393 0.0
C1350 C 0.87051 0.14606 0.45294 0.0
C1351 C 0.8718 0.14717 0.43467 0.0
C1352 C 0.88226 0.14752 0.42725 0.0
C1353 C 0.89135 0.14517 0.43837 0.0
C1354 C 0.89006 0.14272 0.45651 0.0
H1355 H 0.87556 0.30873 0.49327 0.0
H1356 H 0.8834 0.27518 0.47543 0.0
H1357 H 0.8689 0.26698 0.47541 0.0
H1358 H 0.8624 0.14715 0.45845 0.0
H1359 H 0.86467 0.1494 0.4264 0.0
H1360 H 0.64923 0.6507 0.07744 0.0
H1361 H 0.65114 0.64901 0.04536 0.0
H1362 H 0.61629 0.63259 0.0403 0.0
H1363 H 0.61438 0.63824 0.07192 0.0
H1364 H 0.64617 0.56553 0.01968 0.0
H1365 H 0.62101 0.78724 0.01006 0.0
H1366 H 0.62554 0.7617 0.03138 0.0
H1367 H 0.61359 0.72534 0.02166 0.0
C1368 C 0.64202 0.64676 0.06939 0.0
C1369 C 0.63165 0.64567 0.07712 0.0
C1370 C 0.6431 0.64579 0.05108 0.0
C1371 C 0.63383 0.64283 0.04026 0.0
C1372 C 0.62355 0.63772 0.04818 0.0
H1373 H 0.61423 0.6333 0.93309 0.0
H1374 H 0.6165 0.63117 0.96468 0.0
C1375 C 0.62247 0.64034 0.06631 0.0
C1376 C 0.63473 0.6454 0.02077 0.0
H1377 H 0.62393 0.72075 0.98483 0.0
C1378 C 0.6414 0.5999 0.01204 0.0
C1379 C 0.62861 0.69071 0.01068 0.0
C1380 C 0.62189 0.7444 0.01895 0.0
C1381 C 0.64162 0.59592 0.99363 0.0
C1382 C 0.63511 0.63938 0.98358 0.0
C1383 C 0.62881 0.6866 0.99237 0.0
C1384 C 0.63411 0.63517 0.96409 0.0
C1385 C 0.64848 0.5433 0.98522 0.0
C1386 C 0.64324 0.637 0.95292 0.0
C1387 C 0.64193 0.63626 0.93465 0.0
C1388 C 0.63146 0.63584 0.92727 0.0
C1389 C 0.6224 0.63376 0.93841 0.0
C1390 C 0.6237 0.63279 0.95652 0.0
H1391 H 0.65057 0.50356 0.99459 0.0
H1392 H 0.64424 0.5211 0.97387 0.0
H1393 H 0.6562 0.56552 0.98059 0.0
H1394 H 0.65136 0.6409 0.95826 0.0
H1395 H 0.64904 0.63886 0.92635 0.0
H1396 H 0.36795 0.44003 0.9256 0.0
H1397 H 0.36437 0.44066 0.9574 0.0
H1398 H 0.39888 0.4354 0.96727 0.0
H1399 H 0.40246 0.43549 0.93607 0.0
H1400 H 0.37153 0.34973 0.98577 0.0
H1401 H 0.38839 0.60038 0.99357 0.0
H1402 H 0.3842 0.56814 0.97266 0.0
H1403 H 0.39723 0.54641 0.98165 0.0
C1404 C 0.37474 0.439 0.93461 0.0
C1405 C 0.3855 0.43839 0.92827 0.0
C1406 C 0.37269 0.43908 0.95277 0.0
C1407 C 0.38137 0.43892 0.96479 0.0
C1408 C 0.39204 0.43657 0.95835 0.0
H1409 H 0.40238 0.43854 0.06898 0.0
H1410 H 0.39863 0.43817 0.03788 0.0
C1411 C 0.39407 0.43657 0.94042 0.0
C1412 C 0.3796 0.44344 0.9841 0.0
H1413 H 0.38731 0.5349 0.01946 0.0
C1414 C 0.37475 0.39084 0.99315 0.0
C1415 C 0.38378 0.49704 0.99381 0.0
C1416 C 0.3886 0.55653 0.98493 0.0
C1417 C 0.37461 0.38881 0.01162 0.0
C1418 C 0.37934 0.44091 0.02128 0.0
C1419 C 0.38369 0.49479 0.01215 0.0
C1420 C 0.38113 0.43766 0.04061 0.0
C1421 C 0.36996 0.32936 0.0207 0.0
C1422 C 0.37252 0.43726 0.05279 0.0
C1423 C 0.37466 0.43752 0.07092 0.0
C1424 C 0.38545 0.43839 0.07708 0.0
C1425 C 0.39396 0.43816 0.06479 0.0
C1426 C 0.39184 0.4379 0.0469 0.0
H1427 H 0.3678 0.28961 0.01139 0.0
H1428 H 0.37589 0.30983 0.03034 0.0
H1429 H 0.36251 0.34377 0.02793 0.0
H1430 H 0.36416 0.43797 0.04831 0.0
H1431 H 0.36793 0.4377 0.08004 0.0
H1432 H 0.62422 0.32614 0.43181 0.0
H1433 H 0.62648 0.331 0.46349 0.0
H1434 H 0.64345 0.51566 0.45844 0.0
H1435 H 0.64117 0.51106 0.42653 0.0
H1436 H 0.64531 0.34023 0.48479 0.0
H1437 H 0.61825 0.55701 0.49262 0.0
H1438 H 0.61868 0.50901 0.47282 0.0
H1439 H 0.62934 0.56681 0.47752 0.0
C1440 C 0.62852 0.36757 0.43741 0.0
C1441 C 0.63247 0.41833 0.42665 0.0
C1442 C 0.62981 0.37026 0.45555 0.0
C1443 C 0.63499 0.42411 0.46345 0.0
C1444 C 0.63927 0.47405 0.4527 0.0
H1445 H 0.64055 0.51456 0.57607 0.0
H1446 H 0.64299 0.51752 0.54413 0.0
C1447 C 0.63805 0.47114 0.43446 0.0
C1448 C 0.63562 0.42802 0.48291 0.0
H1449 H 0.6262 0.51427 0.51819 0.0
C1450 C 0.6412 0.37859 0.49207 0.0
C1451 C 0.63022 0.4778 0.49249 0.0
C1452 C 0.62369 0.5305 0.48344 0.0
C1453 C 0.64151 0.37764 0.51046 0.0
C1454 C 0.63594 0.42673 0.52004 0.0
C1455 C 0.63053 0.47685 0.51089 0.0
C1456 C 0.635 0.42426 0.53948 0.0
C1457 C 0.64783 0.32398 0.51949 0.0
C1458 C 0.62969 0.37112 0.54752 0.0
C1459 C 0.62827 0.36954 0.56564 0.0
C1460 C 0.6321 0.42103 0.57623 0.0
C1461 C 0.63757 0.47394 0.56827 0.0
C1462 C 0.63893 0.47577 0.55003 0.0
H1463 H 0.65411 0.30246 0.51076 0.0
H1464 H 0.65187 0.34279 0.53145 0.0
H1465 H 0.64216 0.28407 0.52335 0.0
H1466 H 0.62642 0.33134 0.53973 0.0
H1467 H 0.62399 0.32817 0.57134 0.0
H1468 H 0.37421 0.74342 0.57488 0.0
H1469 H 0.37213 0.74024 0.54301 0.0
H1470 H 0.38542 0.54389 0.54237 0.0
H1471 H 0.38679 0.54586 0.57428 0.0
H1472 H 0.38665 0.7339 0.51898 0.0
H1473 H 0.36106 0.51279 0.5102 0.0
H1474 H 0.36328 0.5492 0.53136 0.0
H1475 H 0.37327 0.49471 0.522 0.0
C1476 C 0.37635 0.69894 0.5679 0.0
C1477 C 0.38037 0.64428 0.57702 0.0
C1478 C 0.37526 0.69723 0.54967 0.0
C1479 C 0.37839 0.64127 0.54008 0.0
C1480 C 0.38251 0.58673 0.54931 0.0
H1481 H 0.38671 0.54924 0.42951 0.0
H1482 H 0.38544 0.54814 0.46151 0.0
C1483 C 0.38334 0.58788 0.56759 0.0
C1484 C 0.37803 0.64188 0.52047 0.0
H1485 H 0.36978 0.5542 0.48465 0.0
C1486 C 0.38285 0.69481 0.51152 0.0
C1487 C 0.37315 0.59092 0.51053 0.0
C1488 C 0.36731 0.53408 0.51903 0.0
C1489 C 0.38319 0.69747 0.49314 0.0
C1490 C 0.37837 0.6463 0.48319 0.0
C1491 C 0.37349 0.59352 0.49213 0.0
C1492 C 0.37851 0.64577 0.46358 0.0
C1493 C 0.38907 0.7543 0.48466 0.0
C1494 C 0.37478 0.70004 0.45386 0.0
C1495 C 0.37573 0.70112 0.4356 0.0
C1496 C 0.38 0.64693 0.4266 0.0
C1497 C 0.38321 0.59125 0.43615 0.0
C1498 C 0.38252 0.59079 0.45445 0.0
H1499 H 0.39501 0.77736 0.49372 0.0
H1500 H 0.39348 0.73844 0.47274 0.0
H1501 H 0.38306 0.79254 0.48098 0.0
H1502 H 0.37128 0.7422 0.46038 0.0
H1503 H 0.37324 0.74469 0.42851 0.0
H1504 H 0.96344 0.95969 0.15915 0.0
H1505 H 0.98307 0.97736 0.15955 0.0
H1506 H 0.98136 0.06656 0.10855 0.0
H1507 H 0.96169 0.0545 0.10866 0.0
H1508 H 0.9985 0.92941 0.1398 0.0
H1509 H 0.99949 0.19975 0.1321 0.0
H1510 H 0.98707 0.1557 0.13659 0.0
H1511 H 0.99227 0.16091 0.11462 0.0
C1512 C 0.96715 0.98471 0.14819 0.0
C1513 C 0.96084 1.00551 0.13388 0.0
C1514 C 0.97845 0.99407 0.14836 0.0
C1515 C 0.98376 1.02416 0.13419 0.0
C1516 C 0.9775 0.04474 0.11986 0.0
H1517 H 0.05185 0.0877 0.10641 0.0
H1518 H 0.03207 0.07412 0.10634 0.0
C1519 C 0.9662 0.03654 0.11982 0.0
C1520 C 0.99585 1.03197 0.13416 0.0
H1521 H 0.01634 0.14367 0.12789 0.0
C1522 C 1.00237 0.97645 0.13733 0.0
C1523 C 1.00099 0.09325 0.13092 0.0
C1524 C 0.99459 0.15586 0.12855 0.0
C1525 C 0.0138 0.98034 0.13708 0.0
C1526 C 0.0189 0.04135 0.13365 0.0
C1527 C 0.01242 0.09681 0.13042 0.0
C1528 C 0.03094 0.04884 0.13369 0.0
C1529 C 0.02037 0.91886 0.14018 0.0
C1530 C 0.03689 0.03963 0.14912 0.0
C1531 C 0.0482 0.04817 0.14929 0.0
C1532 C 0.05386 0.066 0.13399 0.0
C1533 C 0.04783 0.07487 0.11851 0.0
C1534 C 0.0365 0.06677 0.1184 0.0
H1535 H 0.01536 0.87369 0.1388 0.0
H1536 H 0.02731 0.91612 0.13093 0.0
H1537 H 0.02372 0.91994 0.15363 0.0
H1538 H 0.03276 1.0269 0.16115 0.0
H1539 H 0.05244 0.04228 0.16157 0.0
H1540 H 0.96049 1.00933 0.34594 0.0
H1541 H 0.98021 0.99276 0.34558 0.0
H1542 H 0.98328 0.10889 0.39242 0.0
H1543 H 0.96358 0.1252 0.39291 0.0
H1544 H 0.99651 0.07571 0.34241 0.0
H1545 H 1.00042 0.94633 0.40489 0.0
H1546 H 0.98744 0.97909 0.39844 0.0
H1547 H 0.99719 1.02973 0.40998 0.0
C1548 C 0.96537 1.03144 0.35615 0.0
C1549 C 0.96043 0.06822 0.36952 0.0
C1550 C 0.97666 1.02165 0.35599 0.0
C1551 C 0.98328 0.04815 0.36922 0.0
C1552 C 0.97837 0.08611 0.38237 0.0
H1553 H 0.0525 0.08094 0.38864 0.0
H1554 H 0.03274 0.09185 0.38812 0.0
C1555 C 0.96708 0.09553 0.3826 0.0
C1556 C 0.99534 0.03877 0.36876 0.0
H1557 H 0.01732 0.9921 0.39324 0.0
C1558 C 1.00101 0.05668 0.3535 0.0
C1559 C 1.00136 1.01403 0.38319 0.0
C1560 C 0.99618 0.99088 0.39993 0.0
C1561 C 0.01242 0.05213 0.35248 0.0
C1562 C 0.01833 1.02876 0.36703 0.0
C1563 C 0.01273 1.01024 0.38213 0.0
C1564 C 0.03036 1.02285 0.36698 0.0
C1565 C 0.01811 0.07365 0.33601 0.0
C1566 C 0.03557 0.97942 0.35551 0.0
C1567 C 0.04689 0.97218 0.35593 0.0
C1568 C 0.05325 1.00806 0.36791 0.0
C1569 C 0.04793 0.05167 0.37938 0.0
C1570 C 0.03662 0.05847 0.37903 0.0
H1571 H 0.01278 0.10454 0.32765 0.0
H1572 H 0.02562 0.1017 0.33912 0.0
H1573 H 0.02048 1.02947 0.32842 0.0
H1574 H 0.03086 0.95011 0.34645 0.0
H1575 H 0.05059 0.93705 0.34714 0.0
H1576 H 0.05064 0.05837 0.84074 0.0
H1577 H 0.03098 0.0428 0.84233 0.0
H1578 H 0.03219 0.0623 0.89831 0.0
H1579 H 0.05191 0.07688 0.89693 0.0
H1580 H 0.01857 0.94872 0.85931 0.0
H1581 H 0.00913 0.197 0.88523 0.0
H1582 H 0.02225 0.17629 0.87619 0.0
H1583 H 0.01875 0.15101 0.89798 0.0
C1584 C 0.04679 0.05864 0.85346 0.0
C1585 C 0.05297 0.06912 0.86872 0.0
C1586 C 0.0355 0.05013 0.85431 0.0
C1587 C 0.03003 0.05251 0.87039 0.0
C1588 C 0.03615 0.06187 0.88568 0.0
H1589 H 0.96111 1.02642 0.89846 0.0
H1590 H 0.98093 0.03692 0.89872 0.0
C1591 C 0.04747 0.07025 0.88486 0.0
C1592 C 0.01796 0.04465 0.87109 0.0
H1593 H 0.99444 0.12243 0.88305 0.0
C1594 C 0.01329 0.98677 0.86447 0.0
C1595 C 0.01105 0.09409 0.87789 0.0
C1596 C 0.01551 0.15839 0.8846 0.0
C1597 C 1.00197 0.97666 0.86466 0.0
C1598 C 0.99503 1.02653 0.87122 0.0
C1599 C 0.99971 0.08418 0.87799 0.0
C1600 C 0.98291 1.02015 0.87101 0.0
C1601 C 0.99758 0.91178 0.85822 0.0
C1602 C 0.97733 1.00823 0.85533 0.0
C1603 C 0.96599 1.00116 0.85517 0.0
C1604 C 0.95988 1.00697 0.87066 0.0
C1605 C 0.96549 1.02047 0.8863 0.0
C1606 C 0.97685 1.02704 0.88646 0.0
H1607 H 1.00385 0.87251 0.85888 0.0
H1608 H 0.9904 0.89592 0.86595 0.0
H1609 H 0.99508 0.91702 0.84438 0.0
H1610 H 0.98174 1.00433 0.84314 0.0
H1611 H 0.96207 0.99 0.84287 0.0
H1612 H 0.96392 0.11212 0.60672 0.0
H1613 H 0.98363 0.09639 0.60676 0.0
H1614 H 0.98182 1.01316 0.65845 0.0
H1615 H 0.96203 1.0266 0.65829 0.0
H1616 H 0.99902 0.14856 0.62916 0.0
H1617 H 0.99962 0.87617 0.63227 0.0
H1618 H 0.98752 0.92213 0.62688 0.0
H1619 H 0.99177 0.9143 0.64925 0.0
C1620 C 0.96767 0.08957 0.61802 0.0
C1621 C 0.96133 0.07038 0.63248 0.0
C1622 C 0.97897 0.08107 0.61807 0.0
C1623 C 0.98423 0.05288 0.63251 0.0
C1624 C 0.97795 1.03402 0.64702 0.0
H1625 H 0.05157 0.96578 0.65855 0.0
H1626 H 0.03186 0.98058 0.65822 0.0
C1627 C 0.96663 0.04251 0.64699 0.0
C1628 C 0.99628 0.0448 0.63251 0.0
H1629 H 0.01657 0.9305 0.63593 0.0
C1630 C 1.00286 0.10083 0.63056 0.0
C1631 C 1.00131 0.98256 0.63433 0.0
C1632 C 0.99471 0.92022 0.63564 0.0
C1633 C 0.01429 0.09654 0.63078 0.0
C1634 C 0.01932 0.03432 0.63261 0.0
C1635 C 0.01274 0.97823 0.63452 0.0
C1636 C 0.03139 1.02644 0.63275 0.0
C1637 C 0.02086 0.15903 0.62953 0.0
C1638 C 0.03776 0.04701 0.61851 0.0
C1639 C 0.04909 0.03955 0.61876 0.0
C1640 C 0.05434 1.01067 0.6332 0.0
C1641 C 0.0479 0.9895 0.64736 0.0
C1642 C 0.03658 0.99727 0.64712 0.0
H1643 H 0.01594 0.20286 0.63308 0.0
H1644 H 0.02809 0.157 0.63819 0.0
H1645 H 0.02371 0.1655 0.61589 0.0
H1646 H 0.03395 0.06852 0.60712 0.0
H1647 H 0.05374 0.05686 0.60766 0.0
H1648 H 0.46375 0.46007 0.16251 0.0
H1649 H 0.48341 0.47565 0.16086 0.0
H1650 H 0.48031 0.54442 0.10786 0.0
H1651 H 0.46053 0.5311 0.10957 0.0
H1652 H 0.49827 0.41711 0.13786 0.0
H1653 H 0.49854 0.68898 0.13089 0.0
H1654 H 0.48669 0.64397 0.13807 0.0
H1655 H 0.49026 0.64579 0.11532 0.0
C1656 C 0.46719 0.47951 0.15056 0.0
C1657 C 0.46048 0.4948 0.13621 0.0
C1658 C 0.47847 0.48782 0.1496 0.0
C1659 C 0.48335 0.51185 0.13431 0.0
C1660 C 0.47673 0.52674 0.1199 0.0
H1661 H 0.55079 0.60002 0.10742 0.0
H1662 H 0.53112 0.58315 0.10724 0.0
C1663 C 0.46541 0.51843 0.12084 0.0
C1664 C 0.49539 0.52017 0.13348 0.0
H1665 H 0.5155 0.63497 0.12854 0.0
C1666 C 0.50204 0.46477 0.13585 0.0
C1667 C 0.50032 0.58228 0.13079 0.0
C1668 C 0.49361 0.64386 0.12876 0.0
C1669 C 0.51345 0.46966 0.13541 0.0
C1670 C 0.51839 0.53192 0.13301 0.0
C1671 C 0.51174 0.58725 0.13046 0.0
C1672 C 0.53043 0.54071 0.13311 0.0
C1673 C 0.52012 0.40777 0.13713 0.0
C1674 C 0.53665 0.52275 0.14775 0.0
C1675 C 0.54796 0.53171 0.14783 0.0
C1676 C 0.5533 0.5593 0.13331 0.0
C1677 C 0.54702 0.57756 0.11872 0.0
C1678 C 0.53573 0.56851 0.11864 0.0
H1679 H 0.51529 0.36334 0.13378 0.0
H1680 H 0.5274 0.40952 0.12857 0.0
H1681 H 0.52289 0.40263 0.15085 0.0
H1682 H 0.53275 0.5023 0.15921 0.0
H1683 H 0.55252 0.51666 0.15925 0.0
H1684 H 0.46278 0.62492 0.34703 0.0
H1685 H 0.48248 0.61031 0.3461 0.0
H1686 H 0.48086 0.48728 0.39187 0.0
H1687 H 0.46114 0.49756 0.3922 0.0
H1688 H 0.49777 0.64497 0.36907 0.0
H1689 H 0.49914 0.37464 0.36105 0.0
H1690 H 0.48673 0.42101 0.35862 0.0
H1691 H 0.4916 0.39893 0.38002 0.0
C1692 C 0.46654 0.59335 0.35667 0.0
C1693 C 0.46025 0.56223 0.36965 0.0
C1694 C 0.47787 0.5857 0.35623 0.0
C1695 C 0.4832 0.54694 0.36876 0.0
C1696 C 0.47697 0.51621 0.3818 0.0
H1697 H 0.55035 0.46079 0.39472 0.0
H1698 H 0.53063 0.47541 0.39421 0.0
C1699 C 0.46565 0.52309 0.38212 0.0
C1700 C 0.49528 0.54014 0.36849 0.0
H1701 H 0.51588 0.4271 0.3684 0.0
C1702 C 0.50172 0.5973 0.36877 0.0
C1703 C 0.50048 0.47798 0.36811 0.0
C1704 C 0.49413 0.4147 0.36675 0.0
C1705 C 0.51315 0.59393 0.36907 0.0
C1706 C 0.51831 0.53183 0.36889 0.0
C1707 C 0.51191 0.47471 0.36857 0.0
C1708 C 0.53035 0.52499 0.36924 0.0
C1709 C 0.51963 0.6568 0.37 0.0
C1710 C 0.53677 0.54799 0.35534 0.0
C1711 C 0.54809 0.53987 0.35561 0.0
C1712 C 0.5532 0.50854 0.36978 0.0
C1713 C 0.54672 0.48591 0.3837 0.0
C1714 C 0.53542 0.49378 0.38339 0.0
H1715 H 0.51452 0.69924 0.37398 0.0
H1716 H 0.52648 0.65184 0.37936 0.0
H1717 H 0.52311 0.66761 0.35694 0.0
H1718 H 0.53302 0.57156 0.34419 0.0
H1719 H 0.55284 0.55835 0.34475 0.0
H1720 H 0.46073 0.59608 0.86048 0.0
H1721 H 0.4805 0.60949 0.86091 0.0
H1722 H 0.48391 0.41759 0.88414 0.0
H1723 H 0.46419 0.40259 0.88318 0.0
H1724 H 0.49539 0.60742 0.88864 0.0
H1725 H 0.50405 0.40638 0.84171 0.0
H1726 H 0.49058 0.43979 0.84475 0.0
H1727 H 0.49601 0.38184 0.86019 0.0
C1728 C 0.46566 0.55631 0.86554 0.0
C1729 C 0.46077 0.49795 0.87167 0.0
C1730 C 0.47699 0.56434 0.8659 0.0
C1731 C 0.48375 0.51416 0.87229 0.0
C1732 C 0.47891 0.45658 0.87883 0.0
H1733 H 0.5534 0.50755 0.89548 0.0
H1734 H 0.53358 0.49501 0.89618 0.0
C1735 C 0.46758 0.44845 0.87847 0.0
C1736 C 0.49585 0.52199 0.87207 0.0
H1737 H 0.51929 0.455 0.85569 0.0
C1738 C 0.5006 0.57406 0.88143 0.0
C1739 C 0.50269 0.47891 0.86253 0.0
C1740 C 0.4981 0.42391 0.85158 0.0
C1741 C 0.51196 0.58332 0.88173 0.0
C1742 C 0.51876 0.53966 0.87244 0.0
C1743 C 0.51405 0.48808 0.86294 0.0
C1744 C 0.5308 0.54791 0.87212 0.0
C1745 C 0.5167 0.63995 0.89187 0.0
C1746 C 0.53582 0.58187 0.85837 0.0
C1747 C 0.54714 0.58982 0.85799 0.0
C1748 C 0.55376 0.56349 0.87132 0.0
C1749 C 0.54864 0.52927 0.88508 0.0
C1750 C 0.53729 0.52164 0.88547 0.0
H1751 H 0.51033 0.67056 0.89815 0.0
H1752 H 0.52224 0.62083 0.90212 0.0
H1753 H 0.52161 0.67146 0.88302 0.0
H1754 H 0.53095 0.60272 0.84796 0.0
H1755 H 0.55068 0.61759 0.84735 0.0
H1756 H 0.46371 0.60326 0.605 0.0
H1757 H 0.48339 0.58706 0.60521 0.0
H1758 H 0.48171 0.51967 0.65851 0.0
H1759 H 0.46194 0.53315 0.6582 0.0
H1760 H 0.49886 0.64531 0.62588 0.0
H1761 H 0.49947 0.37528 0.63578 0.0
H1762 H 0.4873 0.4192 0.62963 0.0
H1763 H 0.49179 0.41908 0.65197 0.0
C1764 C 0.46747 0.58396 0.61671 0.0
C1765 C 0.46116 0.56926 0.63157 0.0
C1766 C 0.47877 0.57524 0.61684 0.0
C1767 C 0.48406 0.55136 0.63179 0.0
C1768 C 0.47782 0.53702 0.64669 0.0
H1769 H 0.55163 0.4711 0.65844 0.0
H1770 H 0.53194 0.48665 0.6583 0.0
C1771 C 0.4665 0.54561 0.64657 0.0
C1772 C 0.49612 0.54323 0.63188 0.0
H1773 H 0.51643 0.43057 0.63788 0.0
C1774 C 0.50269 0.59828 0.62843 0.0
C1775 C 0.50117 0.48192 0.63521 0.0
C1776 C 0.49458 0.42031 0.6382 0.0
C1777 C 0.51412 0.59403 0.62859 0.0
C1778 C 0.51917 0.5327 0.6319 0.0
C1779 C 0.5126 0.47762 0.63534 0.0
C1780 C 0.53125 0.52471 0.63195 0.0
C1781 C 0.52067 0.6558 0.62568 0.0
C1782 C 0.53749 0.54069 0.61717 0.0
C1783 C 0.54882 0.53291 0.61729 0.0
C1784 C 0.55419 0.50814 0.63214 0.0
C1785 C 0.54787 0.49161 0.64687 0.0
C1786 C 0.53656 0.49978 0.64676 0.0
H1787 H 0.5158 0.70067 0.62837 0.0
H1788 H 0.52802 0.65661 0.63411 0.0
H1789 H 0.52333 0.65779 0.61185 0.0
H1790 H 0.53359 0.55875 0.60543 0.0
H1791 H 0.55336 0.54667 0.60574 0.0
H1792 H 0.11644 0.90314 0.13413 0.0
H1793 H 0.11665 0.78319 0.13507 0.0
H1794 H 0.14979 0.78341 0.11652 0.0
H1795 H 0.14976 0.90355 0.1162 0.0
H1796 H 0.11865 0.69237 0.11184 0.0
H1797 H 0.15386 0.66305 0.15615 0.0
H1798 H 0.14766 0.74192 0.15217 0.0
H1799 H 0.15726 0.7081 0.13682 0.0
C1800 C 0.12381 0.87784 0.13032 0.0
C1801 C 0.1331 0.91353 0.12512 0.0
C1802 C 0.12392 0.80887 0.13086 0.0
C1803 C 0.13333 0.7734 0.1263 0.0
C1804 C 0.14253 0.80897 0.12071 0.0
H1805 H 0.14971 0.35476 0.12166 0.0
H1806 H 0.14952 0.47478 0.12044 0.0
C1807 C 0.14246 0.87804 0.1203 0.0
C1808 C 0.13334 0.69951 0.12698 0.0
H1809 H 0.14732 0.56624 0.14259 0.0
C1810 C 0.1249 0.66491 0.11865 0.0
C1811 C 0.14149 0.66291 0.13581 0.0
C1812 C 0.15051 0.6959 0.14589 0.0
C1813 C 0.12449 0.5956 0.11853 0.0
C1814 C 0.13263 0.55892 0.12739 0.0
C1815 C 0.14107 0.5936 0.13573 0.0
C1816 C 0.13264 0.48494 0.12814 0.0
C1817 C 0.11549 0.56287 0.10834 0.0
C1818 C 0.12332 0.44946 0.13322 0.0
C1819 C 0.12336 0.38044 0.13367 0.0
C1820 C 0.13283 0.34474 0.1295 0.0
C1821 C 0.14225 0.38025 0.1249 0.0
C1822 C 0.14215 0.44926 0.12422 0.0
H1823 H 0.11232 0.59561 0.0979 0.0
H1824 H 0.11829 0.51641 0.10222 0.0
H1825 H 0.10862 0.55172 0.11727 0.0
H1826 H 0.11597 0.47502 0.13701 0.0
H1827 H 0.11596 0.35513 0.1374 0.0
H1828 H 0.87242 0.16404 0.10352 0.0
H1829 H 0.87324 0.28427 0.10379 0.0
H1830 H 0.88837 0.27788 0.15465 0.0
H1831 H 0.88866 0.15803 0.15332 0.0
H1832 H 0.86498 0.37295 0.11965 0.0
H1833 H 0.90816 0.40663 0.13778 0.0
H1834 H 0.90278 0.32676 0.13258 0.0
H1835 H 0.90101 0.36141 0.15414 0.0
C1836 C 0.87609 0.18857 0.1146 0.0
C1837 C 0.88061 0.15156 0.12828 0.0
C1838 C 0.87653 0.25764 0.11483 0.0
C1839 C 0.88123 0.29186 0.12899 0.0
C1840 C 0.88528 0.25424 0.14303 0.0
H1841 H 0.88937 0.71055 0.15497 0.0
H1842 H 0.88877 0.59013 0.15472 0.0
C1843 C 0.88528 0.1852 0.14243 0.0
C1844 C 0.88141 0.36626 0.12926 0.0
H1845 H 0.89708 0.50093 0.13892 0.0
C1846 C 0.87208 0.40062 0.12374 0.0
C1847 C 0.89056 0.40388 0.13473 0.0
C1848 C 0.90121 0.37267 0.13997 0.0
C1849 C 0.87151 0.46994 0.12381 0.0
C1850 C 0.88066 0.50756 0.12928 0.0
C1851 C 0.88999 0.47322 0.13482 0.0
C1852 C 0.88083 0.58196 0.12949 0.0
C1853 C 0.86086 0.50109 0.11856 0.0
C1854 C 0.87678 0.61925 0.1154 0.0
C1855 C 0.87665 0.68825 0.11598 0.0
C1856 C 0.88118 0.72231 0.1302 0.0
C1857 C 0.88577 0.68569 0.14388 0.0
C1858 C 0.88545 0.61655 0.14366 0.0
H1859 H 0.85391 0.46717 0.12077 0.0
H1860 H 0.85929 0.54708 0.12591 0.0
H1861 H 0.86106 0.5122 0.10437 0.0
H1862 H 0.87377 0.59535 0.10376 0.0
H1863 H 0.87327 0.7151 0.10504 0.0
H1864 H 0.11779 0.16326 0.36215 0.0
H1865 H 0.11795 0.28329 0.36113 0.0
H1866 H 0.14818 0.2851 0.38977 0.0
H1867 H 0.1484 0.16526 0.38975 0.0
H1868 H 0.11654 0.37394 0.38281 0.0
H1869 H 0.15751 0.40832 0.35439 0.0
H1870 H 0.15133 0.32828 0.35605 0.0
H1871 H 0.15812 0.36452 0.37461 0.0
C1872 C 0.12455 0.1892 0.36806 0.0
C1873 C 0.13315 0.15424 0.37585 0.0
C1874 C 0.12463 0.2582 0.3675 0.0
C1875 C 0.13326 0.29441 0.37489 0.0
C1876 C 0.14166 0.25931 0.38322 0.0
H1877 H 0.14794 0.71305 0.38681 0.0
H1878 H 0.14761 0.59312 0.38749 0.0
C1879 C 0.14171 0.1903 0.38342 0.0
C1880 C 0.13322 0.36846 0.37432 0.0
H1881 H 0.14894 0.50362 0.36552 0.0
C1882 C 0.12363 0.4021 0.37889 0.0
C1883 C 0.14243 0.40624 0.36929 0.0
C1884 C 0.15288 0.37491 0.36315 0.0
C1885 C 0.12305 0.47138 0.37901 0.0
C1886 C 0.13227 0.50918 0.37404 0.0
C1887 C 0.14185 0.4755 0.36943 0.0
C1888 C 0.1323 0.58329 0.37368 0.0
C1889 C 0.11258 0.5027 0.38508 0.0
C1890 C 0.12394 0.6192 0.36545 0.0
C1891 C 0.124 0.68828 0.36542 0.0
C1892 C 0.13262 0.72363 0.37306 0.0
C1893 C 0.14115 0.6878 0.38079 0.0
C1894 C 0.14097 0.61879 0.38116 0.0
H1895 H 0.10789 0.46913 0.3937 0.0
H1896 H 0.11413 0.54909 0.39229 0.0
H1897 H 0.10741 0.51353 0.37357 0.0
H1898 H 0.11738 0.594 0.35885 0.0
H1899 H 0.11733 0.71397 0.3592 0.0
H1900 H 0.86516 0.35633 0.38589 0.0
H1901 H 0.86519 0.47645 0.38608 0.0
H1902 H 0.89684 0.47722 0.36184 0.0
H1903 H 0.8968 0.35685 0.36134 0.0
H1904 H 0.87797 0.56432 0.40161 0.0
H1905 H 0.8815 0.60284 0.33024 0.0
H1906 H 0.87849 0.52346 0.33959 0.0
H1907 H 0.89227 0.55361 0.33908 0.0
C1908 C 0.8721 0.38185 0.38041 0.0
C1909 C 0.88093 0.34633 0.3734 0.0
C1910 C 0.87212 0.4509 0.3806 0.0
C1911 C 0.8809 0.48669 0.37364 0.0
C1912 C 0.8898 0.45136 0.36686 0.0
H1913 H 0.89567 0.90655 0.36383 0.0
H1914 H 0.89594 0.78639 0.36368 0.0
C1915 C 0.88981 0.38219 0.36671 0.0
C1916 C 0.88082 0.56064 0.3739 0.0
H1917 H 0.88332 0.69739 0.34804 0.0
C1918 C 0.87908 0.59328 0.38985 0.0
C1919 C 0.8823 0.59914 0.35863 0.0
C1920 C 0.88364 0.56807 0.34089 0.0
C1921 C 0.879 0.66254 0.39101 0.0
C1922 C 0.88044 0.70099 0.37573 0.0
C1923 C 0.88221 0.6684 0.35979 0.0
C1924 C 0.88019 0.77486 0.37596 0.0
C1925 C 0.87772 0.69373 0.40876 0.0
C1926 C 0.87118 0.80936 0.38265 0.0
C1927 C 0.871 0.87846 0.38276 0.0
C1928 C 0.8798 0.91503 0.37608 0.0
C1929 C 0.88876 0.88038 0.3692 0.0
C1930 C 0.88892 0.81136 0.36906 0.0
H1931 H 0.8799 0.65904 0.4194 0.0
H1932 H 0.88286 0.73838 0.40999 0.0
H1933 H 0.86909 0.70818 0.41064 0.0
H1934 H 0.8642 0.78288 0.38763 0.0
H1935 H 0.86395 0.90316 0.38811 0.0
H1936 H 0.89811 0.16508 0.87118 0.0
H1937 H 0.89804 0.28525 0.87062 0.0
H1938 H 0.8637 0.28505 0.88227 0.0
H1939 H 0.86384 0.16527 0.88368 0.0
H1940 H 0.88895 0.37106 0.85126 0.0
H1941 H 0.87222 0.41477 0.91727 0.0
H1942 H 0.87639 0.33421 0.91016 0.0
H1943 H 0.86322 0.36625 0.90418 0.0
C1944 C 0.89057 0.1906 0.8739 0.0
C1945 C 0.88102 0.15516 0.87777 0.0
C1946 C 0.89052 0.25962 0.87351 0.0
C1947 C 0.88093 0.29521 0.8769 0.0
C1948 C 0.87133 0.25964 0.88031 0.0
H1949 H 0.86375 0.71275 0.87882 0.0
H1950 H 0.86394 0.5926 0.87934 0.0
C1951 C 0.8714 0.1907 0.88096 0.0
C1952 C 0.88093 0.36908 0.87624 0.0
H1953 H 0.87309 0.50723 0.89845 0.0
C1954 C 0.88554 0.40071 0.86167 0.0
C1955 C 0.87645 0.40858 0.88972 0.0
C1956 C 0.8719 0.3792 0.90628 0.0
C1957 C 0.88558 0.46976 0.85998 0.0
C1958 C 0.88109 0.50929 0.87345 0.0
C1959 C 0.8765 0.47762 0.88804 0.0
C1960 C 0.88102 0.58322 0.87277 0.0
C1961 C 0.89015 0.49904 0.84342 0.0
C1962 C 0.89055 0.6192 0.86918 0.0
C1963 C 0.89041 0.68817 0.86853 0.0
C1964 C 0.88077 0.72338 0.8719 0.0
C1965 C 0.8713 0.68753 0.87595 0.0
C1966 C 0.87141 0.6185 0.87632 0.0
H1967 H 0.88983 0.46341 0.83244 0.0
H1968 H 0.88566 0.54402 0.83951 0.0
H1969 H 0.89882 0.51194 0.84552 0.0
H1970 H 0.8982 0.59411 0.86711 0.0
H1971 H 0.89792 0.7139 0.86568 0.0
H1972 H 0.14692 0.35647 0.88905 0.0
H1973 H 0.1466 0.47619 0.88981 0.0
H1974 H 0.11787 0.47599 0.85744 0.0
H1975 H 0.11773 0.35592 0.85774 0.0
H1976 H 0.14919 0.56609 0.86877 0.0
H1977 H 0.10667 0.60182 0.89036 0.0
H1978 H 0.11283 0.52157 0.88982 0.0
H1979 H 0.10732 0.55787 0.87019 0.0
C1980 C 0.14044 0.38176 0.88223 0.0
C1981 C 0.13229 0.34597 0.87345 0.0
C1982 C 0.14027 0.45077 0.88264 0.0
C1983 C 0.13202 0.48656 0.87412 0.0
C1984 C 0.12407 0.4507 0.86486 0.0
H1985 H 0.11856 0.90626 0.86017 0.0
H1986 H 0.11885 0.7865 0.85943 0.0
C1987 C 0.12408 0.38151 0.86481 0.0
C1988 C 0.13206 0.56084 0.87453 0.0
H1989 H 0.11605 0.69669 0.88086 0.0
C1990 C 0.14192 0.59437 0.87155 0.0
C1991 C 0.12263 0.59904 0.87806 0.0
C1992 C 0.11181 0.56816 0.88246 0.0
C1993 C 0.14261 0.66366 0.87162 0.0
C1994 C 0.13318 0.7018 0.87513 0.0
C1995 C 0.12332 0.66834 0.8781 0.0
C1996 C 0.13323 0.77602 0.87555 0.0
C1997 C 0.15344 0.69468 0.86731 0.0
C1998 C 0.14109 0.8117 0.88505 0.0
C1999 C 0.1411 0.88086 0.88514 0.0
C2000 C 0.133 0.91651 0.87624 0.0
C2001 C 0.12495 0.88087 0.86718 0.0
C2002 C 0.1251 0.81188 0.86678 0.0
H2003 H 0.15862 0.66105 0.85947 0.0
H2004 H 0.15242 0.74121 0.85992 0.0
H2005 H 0.15788 0.7052 0.87961 0.0
H2006 H 0.1472 0.78626 0.89263 0.0
H2007 H 0.14736 0.90634 0.89243 0.0
H2008 H 0.89625 0.90547 0.63988 0.0
H2009 H 0.89648 0.78532 0.64003 0.0
H2010 H 0.86439 0.78234 0.61733 0.0
H2011 H 0.8642 0.90257 0.61679 0.0
H2012 H 0.88439 0.69589 0.65594 0.0
H2013 H 0.87926 0.65894 0.58483 0.0
H2014 H 0.88227 0.73835 0.59412 0.0
H2015 H 0.86856 0.70704 0.59425 0.0
C2016 C 0.88925 0.87942 0.63478 0.0
C2017 C 0.88023 0.91421 0.6282 0.0
C2018 C 0.88939 0.81038 0.63492 0.0
C2019 C 0.88056 0.77399 0.62833 0.0
C2020 C 0.87146 0.80867 0.62203 0.0
H2021 H 0.86544 0.35548 0.61868 0.0
H2022 H 0.86542 0.47556 0.6187 0.0
C2023 C 0.87131 0.87777 0.62189 0.0
C2024 C 0.88081 0.70008 0.62846 0.0
H2025 H 0.87771 0.56389 0.60262 0.0
C2026 C 0.88299 0.66715 0.64423 0.0
C2027 C 0.879 0.66189 0.61324 0.0
C2028 C 0.87725 0.6933 0.59562 0.0
C2029 C 0.88314 0.59786 0.6453 0.0
C2030 C 0.88128 0.55965 0.6301 0.0
C2031 C 0.87913 0.59261 0.61432 0.0
C2032 C 0.8814 0.4857 0.63025 0.0
C2033 C 0.88495 0.56645 0.6629 0.0
C2034 C 0.89046 0.45029 0.63644 0.0
C2035 C 0.89049 0.38111 0.63648 0.0
C2036 C 0.88148 0.34533 0.63023 0.0
C2037 C 0.8725 0.38092 0.6238 0.0
C2038 C 0.87248 0.44997 0.62374 0.0
H2039 H 0.88305 0.60093 0.67373 0.0
H2040 H 0.87988 0.52165 0.66449 0.0
H2041 H 0.89363 0.55226 0.66413 0.0
H2042 H 0.8976 0.4761 0.64108 0.0
H2043 H 0.8976 0.35573 0.6414 0.0
H2044 H 0.15038 0.16895 0.62445 0.0
H2045 H 0.15022 0.28887 0.62604 0.0
H2046 H 0.11512 0.28655 0.62745 0.0
H2047 H 0.1153 0.16661 0.62702 0.0
H2048 H 0.14383 0.38017 0.60677 0.0
H2049 H 0.11874 0.40623 0.66634 0.0
H2050 H 0.12365 0.32741 0.65912 0.0
H2051 H 0.11164 0.36326 0.64947 0.0
C2052 C 0.14262 0.19396 0.62521 0.0
C2053 C 0.13285 0.15789 0.6257 0.0
C2054 C 0.14253 0.26284 0.62613 0.0
C2055 C 0.13267 0.29775 0.62742 0.0
C2056 C 0.12289 0.26161 0.62727 0.0
H2057 H 0.11593 0.71548 0.63305 0.0
H2058 H 0.11596 0.59559 0.63135 0.0
C2059 C 0.12298 0.19266 0.62675 0.0
C2060 C 0.13269 0.37161 0.62835 0.0
H2061 H 0.12225 0.5036 0.65044 0.0
C2062 C 0.13915 0.40697 0.61643 0.0
C2063 C 0.12656 0.40752 0.64084 0.0
C2064 C 0.11985 0.37408 0.65476 0.0
C2065 C 0.13951 0.47624 0.61637 0.0
C2066 C 0.13341 0.51217 0.62888 0.0
C2067 C 0.12693 0.47681 0.64079 0.0
C2068 C 0.1335 0.58606 0.62988 0.0
C2069 C 0.14619 0.50962 0.6024 0.0
C2070 C 0.14332 0.62187 0.63 0.0
C2071 C 0.1433 0.69085 0.63059 0.0
C2072 C 0.13347 0.72601 0.63174 0.0
C2073 C 0.12367 0.69023 0.63223 0.0
C2074 C 0.12368 0.62133 0.63124 0.0
H2075 H 0.14723 0.47753 0.59078 0.0
H2076 H 0.1424 0.55642 0.5981 0.0
H2077 H 0.15443 0.52017 0.6076 0.0
H2078 H 0.15106 0.59664 0.62975 0.0
H2079 H 0.15101 0.71661 0.6303 0.0
H2080 H 0.61535 0.85865 0.13233 0.0
H2081 H 0.61551 0.97877 0.13123 0.0
H2082 H 0.6506 0.97709 0.13029 0.0
H2083 H 0.65047 0.85732 0.13033 0.0
H2084 H 0.62187 0.06978 0.15094 0.0
H2085 H 0.64703 0.09828 0.09158 0.0
H2086 H 0.64205 1.01922 0.09854 0.0
H2087 H 0.65415 0.05401 0.1082 0.0
C2088 C 0.62312 0.88382 0.13176 0.0
C2089 C 0.6329 0.84791 0.1313 0.0
C2090 C 0.6232 0.95284 0.13113 0.0
C2091 C 0.63306 0.98801 0.13012 0.0
C2092 C 0.64284 0.95201 0.13027 0.0
H2093 H 0.65082 0.40477 0.12749 0.0
H2094 H 0.65046 0.28467 0.12857 0.0
C2095 C 0.64276 0.88305 0.13056 0.0
C2096 C 0.63309 0.06196 0.12945 0.0
H2097 H 0.64395 0.19484 0.10814 0.0
C2098 C 0.62665 0.09693 0.14147 0.0
C2099 C 0.63932 0.09836 0.11716 0.0
C2100 C 0.64593 0.06547 0.10305 0.0
C2101 C 0.62647 0.16624 0.14186 0.0
C2102 C 0.63275 0.20259 0.12964 0.0
C2103 C 0.63916 0.16765 0.1176 0.0
C2104 C 0.63288 0.2765 0.12907 0.0
C2105 C 0.61977 0.19931 0.15583 0.0
C2106 C 0.62316 0.31302 0.12861 0.0
C2107 C 0.62336 0.382 0.12832 0.0
C2108 C 0.63329 0.41658 0.12794 0.0
C2109 C 0.64301 0.38007 0.12784 0.0
C2110 C 0.64281 0.31107 0.12844 0.0
H2111 H 0.61848 0.16641 0.16723 0.0
H2112 H 0.62368 0.24526 0.16048 0.0
H2113 H 0.61163 0.21145 0.15046 0.0
H2114 H 0.61537 0.28832 0.12833 0.0
H2115 H 0.61569 0.40816 0.1282 0.0
H2116 H 0.36372 0.66093 0.12236 0.0
H2117 H 0.36385 0.7814 0.12272 0.0
H2118 H 0.39825 0.77987 0.13366 0.0
H2119 H 0.39825 0.66013 0.13283 0.0
H2120 H 0.36822 0.86873 0.14703 0.0
H2121 H 0.39853 0.90682 0.09456 0.0
H2122 H 0.39258 0.82743 0.09893 0.0
H2123 H 0.40372 0.85731 0.11201 0.0
C2124 C 0.37135 0.68617 0.12462 0.0
C2125 C 0.381 0.65023 0.12735 0.0
C2126 C 0.37141 0.75535 0.12489 0.0
C2127 C 0.38111 0.7906 0.12778 0.0
C2128 C 0.3907 0.75465 0.13082 0.0
H2129 H 0.39837 0.20881 0.13538 0.0
H2130 H 0.39823 0.08836 0.13507 0.0
C2131 C 0.39066 0.68566 0.1305 0.0
C2132 C 0.38115 0.86459 0.12811 0.0
H2133 H 0.39379 1.00086 0.11124 0.0
C2134 C 0.37378 0.8975 0.13909 0.0
C2135 C 0.38841 0.9029 0.11788 0.0
C2136 C 0.39618 0.87185 0.10506 0.0
C2137 C 0.37361 0.96672 0.14042 0.0
C2138 C 0.38087 1.00509 0.13017 0.0
C2139 C 0.38824 0.97213 0.11919 0.0
C2140 C 0.38091 0.07913 0.13051 0.0
C2141 C 0.36586 0.99763 0.1533 0.0
C2142 C 0.37129 0.11515 0.12773 0.0
C2143 C 0.37134 0.18416 0.12805 0.0
C2144 C 0.38103 0.21962 0.13091 0.0
C2145 C 0.39071 0.18361 0.13336 0.0
C2146 C 0.39064 0.11441 0.13311 0.0
H2147 H 0.3636 0.96268 0.16384 0.0
H2148 H 0.36943 0.04226 0.15936 0.0
H2149 H 0.35827 1.01173 0.14641 0.0
H2150 H 0.36371 0.08998 0.12507 0.0
H2151 H 0.36373 0.20968 0.12591 0.0
H2152 H 0.61963 0.21287 0.35442 0.0
H2153 H 0.6197 0.09194 0.35469 0.0
H2154 H 0.64568 0.09342 0.3924 0.0
H2155 H 0.64585 0.21403 0.39189 0.0
H2156 H 0.64026 1.0014 0.3489 0.0
H2157 H 0.619 0.9745 0.41265 0.0
H2158 H 0.61729 0.04608 0.39893 0.0
H2159 H 0.62964 0.03533 0.41104 0.0
C2160 C 0.62537 0.18751 0.36276 0.0
C2161 C 0.63275 0.22353 0.37309 0.0
C2162 C 0.62542 0.11825 0.36288 0.0
C2163 C 0.63266 0.08326 0.37364 0.0
C2164 C 0.64 0.11906 0.38402 0.0
H2165 H 0.64733 0.66764 0.39257 0.0
H2166 H 0.64702 0.78841 0.392 0.0
C2167 C 0.6401 0.1882 0.38365 0.0
C2168 C 0.63258 1.00949 0.37403 0.0
H2169 H 0.62538 0.87725 0.39935 0.0
C2170 C 0.63697 0.97432 0.3599 0.0
C2171 C 0.62831 0.97381 0.38837 0.0
C2172 C 0.62322 1.00893 0.40364 0.0
C2173 C 0.63731 0.90485 0.35987 0.0
C2174 C 0.63308 0.86922 0.37423 0.0
C2175 C 0.62866 0.90435 0.38834 0.0
C2176 C 0.63316 0.7955 0.37474 0.0
C2177 C 0.64236 0.8696 0.34459 0.0
C2178 C 0.6254 0.75888 0.36539 0.0
C2179 C 0.62547 0.68973 0.36589 0.0
C2180 C 0.6334 0.65531 0.37556 0.0
C2181 C 0.64116 0.69223 0.38489 0.0
C2182 C 0.64098 0.76142 0.38461 0.0
H2183 H 0.64615 0.90412 0.33513 0.0
H2184 H 0.64864 0.83458 0.34928 0.0
H2185 H 0.63601 0.84063 0.33772 0.0
H2186 H 0.61927 0.78387 0.35771 0.0
H2187 H 0.61938 0.6632 0.35848 0.0
H2188 H 0.36331 0.85625 0.37212 0.0
H2189 H 0.36348 0.97636 0.37209 0.0
H2190 H 0.39854 0.97464 0.37472 0.0
H2191 H 0.39842 0.85485 0.37365 0.0
H2192 H 0.36896 0.06323 0.39352 0.0
H2193 H 0.39659 0.10319 0.33749 0.0
H2194 H 0.39141 1.02282 0.34286 0.0
H2195 H 0.40298 0.0563 0.35436 0.0
C2196 C 0.37108 0.88142 0.3724 0.0
C2197 C 0.38086 0.84549 0.37256 0.0
C2198 C 0.37117 0.95045 0.37245 0.0
C2199 C 0.38104 0.98569 0.37286 0.0
C2200 C 0.3908 0.94963 0.37359 0.0
H2201 H 0.39784 0.40423 0.37631 0.0
H2202 H 0.39783 0.28409 0.3763 0.0
C2203 C 0.39073 0.88064 0.37316 0.0
C2204 C 0.38103 0.05968 0.37316 0.0
H2205 H 0.39247 0.19664 0.35465 0.0
C2206 C 0.37406 0.09221 0.3849 0.0
C2207 C 0.38771 0.09847 0.36205 0.0
C2208 C 0.395 0.06836 0.34838 0.0
C2209 C 0.37372 0.16134 0.38611 0.0
C2210 C 0.38038 0.20008 0.37497 0.0
C2211 C 0.38736 0.16761 0.36326 0.0
C2212 C 0.38029 0.27401 0.37518 0.0
C2213 C 0.36644 0.19155 0.39979 0.0
C2214 C 0.37048 0.30953 0.37425 0.0
C2215 C 0.37047 0.37848 0.37463 0.0
C2216 C 0.38028 0.41406 0.3754 0.0
C2217 C 0.39011 0.37867 0.37581 0.0
C2218 C 0.39011 0.30966 0.37576 0.0
H2219 H 0.36488 0.15681 0.4107 0.0
H2220 H 0.37004 0.23716 0.40527 0.0
H2221 H 0.35846 0.20359 0.39383 0.0
H2222 H 0.36279 0.28411 0.37302 0.0
H2223 H 0.36273 0.40387 0.37406 0.0
H2224 H 0.37821 0.6646 0.90568 0.0
H2225 H 0.37836 0.78577 0.90505 0.0
H2226 H 0.38381 0.78157 0.84948 0.0
H2227 H 0.384 0.66068 0.8502 0.0
H2228 H 0.39554 0.87388 0.89216 0.0
H2229 H 0.35687 0.90454 0.85565 0.0
H2230 H 0.36037 0.82906 0.86674 0.0
H2231 H 0.36657 0.84888 0.84617 0.0
C2232 C 0.3794 0.68968 0.89335 0.0
C2233 C 0.38107 0.65322 0.878 0.0
C2234 C 0.37951 0.75894 0.89299 0.0
C2235 C 0.38095 0.79329 0.87718 0.0
C2236 C 0.38256 0.75664 0.86182 0.0
H2237 H 0.37906 0.21034 0.8469 0.0
H2238 H 0.37922 0.08949 0.84776 0.0
C2239 C 0.38272 0.68749 0.86225 0.0
C2240 C 0.38097 0.8672 0.87678 0.0
H2241 H 0.36714 1.00055 0.86086 0.0
C2242 C 0.3893 0.90162 0.88538 0.0
C2243 C 0.37291 0.90378 0.86781 0.0
C2244 C 0.36361 0.86997 0.85865 0.0
C2245 C 0.38995 0.97102 0.88495 0.0
C2246 C 0.38178 1.00801 0.8762 0.0
C2247 C 0.37343 0.97321 0.86762 0.0
C2248 C 0.38172 0.08234 0.87571 0.0
C2249 C 0.39967 1.00338 0.89334 0.0
C2250 C 0.38284 0.11991 0.89108 0.0
C2251 C 0.38284 0.18906 0.89052 0.0
C2252 C 0.38154 0.22266 0.87463 0.0
C2253 C 0.38018 0.18567 0.85931 0.0
C2254 C 0.38023 0.11644 0.85984 0.0
H2255 H 0.40673 0.96934 0.89396 0.0
H2256 H 0.40219 0.04823 0.88613 0.0
H2257 H 0.39759 1.01724 0.90694 0.0
H2258 H 0.38359 0.09591 0.90363 0.0
H2259 H 0.38382 0.21638 0.90255 0.0
H2260 H 0.65056 0.40093 0.87563 0.0
H2261 H 0.65037 0.28102 0.87406 0.0
H2262 H 0.61546 0.28201 0.88014 0.0
H2263 H 0.61557 0.40196 0.88043 0.0
H2264 H 0.64584 0.18973 0.89432 0.0
H2265 H 0.61574 0.16168 0.84117 0.0
H2266 H 0.62113 0.24087 0.84716 0.0
H2267 H 0.61012 0.20439 0.85945 0.0
C2268 C 0.64283 0.37559 0.87651 0.0
C2269 C 0.63307 0.41126 0.87806 0.0
C2270 C 0.64271 0.30672 0.8756 0.0
C2271 C 0.63286 0.27142 0.87643 0.0
C2272 C 0.62315 0.3072 0.87863 0.0
H2273 H 0.61594 0.85343 0.87474 0.0
H2274 H 0.61612 0.97335 0.8763 0.0
C2275 C 0.62323 0.37616 0.87908 0.0
C2276 C 0.63287 0.19753 0.87555 0.0
H2277 H 0.62066 0.06481 0.85625 0.0
C2278 C 0.64036 0.16261 0.88588 0.0
C2279 C 0.62572 0.16116 0.86465 0.0
C2280 C 0.61781 0.19404 0.85237 0.0
C2281 C 0.64078 0.09335 0.88594 0.0
C2282 C 0.63363 0.05695 0.87503 0.0
C2283 C 0.62614 0.0919 0.8647 0.0
C2284 C 0.63364 0.983 0.87415 0.0
C2285 C 0.64868 0.06057 0.89825 0.0
C2286 C 0.64336 0.94717 0.87208 0.0
C2287 C 0.64328 0.87818 0.87166 0.0
C2288 C 0.63344 0.84304 0.87256 0.0
C2289 C 0.62368 0.87876 0.87396 0.0
C2290 C 0.62379 0.94767 0.87486 0.0
H2291 H 0.65072 0.09295 0.90946 0.0
H2292 H 0.64538 1.0137 0.90344 0.0
H2293 H 0.65639 0.05037 0.8912 0.0
H2294 H 0.65106 0.97234 0.87064 0.0
H2295 H 0.65095 0.85238 0.8704 0.0
H2296 H 0.36367 0.85449 0.63073 0.0
H2297 H 0.36369 0.97468 0.63021 0.0
H2298 H 0.39877 0.97491 0.63048 0.0
H2299 H 0.39882 0.85464 0.63066 0.0
H2300 H 0.37099 0.06486 0.65235 0.0
H2301 H 0.39366 0.09604 0.59039 0.0
H2302 H 0.3884 1.01743 0.59734 0.0
H2303 H 0.40095 0.0486 0.60626 0.0
C2304 C 0.37142 0.87994 0.6306 0.0
C2305 C 0.38125 0.84435 0.6307 0.0
C2306 C 0.37141 0.94899 0.63032 0.0
C2307 C 0.38123 0.98457 0.62992 0.0
C2308 C 0.39106 0.94915 0.6303 0.0
H2309 H 0.39766 0.40351 0.62836 0.0
H2310 H 0.3978 0.28331 0.62905 0.0
C2311 C 0.39108 0.88005 0.63061 0.0
C2312 C 0.38112 0.05845 0.6295 0.0
H2313 H 0.3906 0.19249 0.60701 0.0
C2314 C 0.37524 0.09263 0.64236 0.0
C2315 C 0.38667 0.09537 0.61653 0.0
C2316 C 0.39269 0.06255 0.60175 0.0
C2317 C 0.37493 0.16195 0.64284 0.0
C2318 C 0.38045 0.19884 0.62985 0.0
C2319 C 0.38635 0.16469 0.617 0.0
C2320 C 0.38027 0.27265 0.62936 0.0
C2321 C 0.36895 0.19484 0.65765 0.0
C2322 C 0.37039 0.30757 0.62893 0.0
C2323 C 0.37029 0.37661 0.62855 0.0
C2324 C 0.38007 0.41269 0.62846 0.0
C2325 C 0.38995 0.37766 0.62858 0.0
C2326 C 0.39005 0.30864 0.62893 0.0
H2327 H 0.36803 0.16143 0.66903 0.0
H2328 H 0.37323 0.24005 0.66199 0.0
H2329 H 0.36067 0.20864 0.6532 0.0
H2330 H 0.36272 0.28145 0.62875 0.0
H2331 H 0.36252 0.40167 0.62839 0.0
H2332 H 0.65004 0.66498 0.6202 0.0
H2333 H 0.64995 0.78493 0.62167 0.0
H2334 H 0.61533 0.78217 0.63097 0.0
H2335 H 0.61547 0.66219 0.63033 0.0
H2336 H 0.64132 0.876 0.60339 0.0
H2337 H 0.62309 0.90123 0.66911 0.0
H2338 H 0.62741 0.82283 0.66065 0.0
H2339 H 0.61443 0.85695 0.65446 0.0
C2340 C 0.6424 0.6898 0.62265 0.0
C2341 C 0.63277 0.65354 0.62522 0.0
C2342 C 0.64236 0.75871 0.6235 0.0
C2343 C 0.63268 0.79342 0.62692 0.0
C2344 C 0.623 0.75722 0.62899 0.0
H2345 H 0.61622 0.21049 0.6362 0.0
H2346 H 0.61621 0.09053 0.63468 0.0
C2347 C 0.62306 0.68825 0.62837 0.0
C2348 C 0.63275 0.86723 0.62779 0.0
H2349 H 0.62473 0.99888 0.65249 0.0
C2350 C 0.63774 0.90272 0.61421 0.0
C2351 C 0.62805 0.90288 0.64182 0.0
C2352 C 0.62304 0.86899 0.65741 0.0
C2353 C 0.63798 0.97202 0.61403 0.0
C2354 C 0.63331 1.00773 0.62808 0.0
C2355 C 0.62831 0.97219 0.64166 0.0
C2356 C 0.63342 0.08159 0.62899 0.0
C2357 C 0.64293 1.00578 0.59839 0.0
C2358 C 0.6431 0.11764 0.6267 0.0
C2359 C 0.64309 0.18662 0.62731 0.0
C2360 C 0.63344 0.22159 0.63073 0.0
C2361 C 0.62381 0.1855 0.63355 0.0
C2362 C 0.62381 0.11656 0.63267 0.0
H2363 H 0.64278 0.97358 0.58668 0.0
H2364 H 0.6386 0.05213 0.59521 0.0
H2365 H 0.65158 1.01737 0.60121 0.0
H2366 H 0.65074 0.09254 0.62454 0.0
H2367 H 0.65067 0.21252 0.62517 0.0
loop_
_geom_bond_atom_site_label_1
_geom_bond_atom_site_label_2
_geom_bond_distance
_geom_bond_site_symmetry_2
_ccdc_geom_bond_type
Nd0 C2 2.836 . S
Nd0 O20 2.500 . S
Nd0 O21 2.492 . S
Nd0 O22 2.487 . S
Nd0 O23 2.682 . S
Nd0 O24 2.410 . S
Nd0 O29 2.414 . S
Nd0 O31 2.424 . S
Nd1 C11 2.836 . S
Nd1 O23 2.414 . S
Nd1 O25 2.424 1_545 S
Nd1 O26 2.500 . S
Nd1 O27 2.492 . S
Nd1 O28 2.487 . S
Nd1 O29 2.682 . S
Nd1 O30 2.410 . S
C2 Nd0 2.836 . S
C2 C3 1.498 . S
C2 O20 1.258 . S
C2 O21 1.239 . S
C3 C2 1.498 . S
C3 C4 1.366 1_545 S
C3 C8 1.407 . S
C4 C3 1.366 1_565 S
C4 C5 1.392 . S
C4 H32 0.930 . S
C5 C4 1.392 . S
C5 C6 1.398 . S
C5 H33 0.929 . S
C6 C5 1.398 . S
C6 C7 1.352 . S
C7 C6 1.352 . S
C7 C8 1.384 1_565 S
C7 H34 0.930 . S
C8 C3 1.407 . S
C8 C7 1.384 1_545 S
C8 H35 0.929 . S
C9 O22 1.241 . S
C9 O23 1.273 . S
C10 O24 1.251 1_565 S
C10 O25 1.268 . S
C11 Nd1 2.836 . S
C11 C12 1.498 . S
C11 O26 1.258 . S
C11 O27 1.239 . S
C12 C11 1.498 . S
C12 C13 1.366 . S
C12 C17 1.407 . S
C13 C12 1.366 . S
C13 C14 1.392 . S
C13 H36 0.930 . S
C14 C13 1.392 . S
C14 C15 1.398 . S
C14 H37 0.929 . S
C15 C14 1.398 . S
C15 C16 1.352 . S
C16 C15 1.352 . S
C16 C17 1.384 . S
C16 H38 0.930 . S
C17 C12 1.407 . S
C17 C16 1.384 . S
C17 H39 0.929 . S
C18 O28 1.241 . S
C18 O29 1.273 . S
C19 O30 1.251 . S
C19 O31 1.268 . S
O20 Nd0 2.500 . S
O20 C2 1.258 . S
O21 Nd0 2.492 . S
O21 C2 1.239 . S
O22 Nd0 2.487 . S
O22 C9 1.241 . S
O23 Nd0 2.682 . S
O23 Nd1 2.414 . S
O23 C9 1.273 . S
O24 Nd0 2.410 . S
O24 C10 1.251 1_545 S
O25 Nd1 2.424 1_565 S
O25 C10 1.268 . S
O26 Nd1 2.500 . S
O26 C11 1.258 . S
O27 Nd1 2.492 . S
O27 C11 1.239 . S
O28 Nd1 2.487 . S
O28 C18 1.241 . S
O29 Nd0 2.414 . S
O29 Nd1 2.682 . S
O29 C18 1.273 . S
O30 Nd1 2.410 . S
O30 C19 1.251 . S
O31 Nd0 2.424 . S
O31 C19 1.268 . S
H32 C4 0.930 . S
H33 C5 0.929 . S
H34 C7 0.930 . S
H35 C8 0.929 . S
H36 C13 0.930 . S
H37 C14 0.929 . S
H38 C16 0.930 . S
H39 C17 0.929 . S
Nd40 C42 2.836 . S
Nd40 O60 2.500 . S
Nd40 O61 2.492 . S
Nd40 O62 2.487 . S
Nd40 O63 2.682 . S
Nd40 O64 2.410 . S
Nd40 O69 2.414 . S
Nd40 O71 2.424 . S
Nd41 C51 2.836 . S
Nd41 O63 2.414 . S
Nd41 O65 2.424 1_565 S
Nd41 O66 2.500 . S
Nd41 O67 2.492 . S
Nd41 O68 2.487 . S
Nd41 O69 2.682 . S
Nd41 O70 2.410 . S
C42 Nd40 2.836 . S
C42 C43 1.498 . S
C42 O60 1.258 . S
C42 O61 1.239 . S
C43 C42 1.498 . S
C43 C44 1.366 1_565 S
C43 C48 1.407 . S
C44 C43 1.366 1_545 S
C44 C45 1.392 . S
C44 H72 0.930 . S
C45 C44 1.392 . S
C45 C46 1.398 . S
C45 H73 0.929 . S
C46 C45 1.398 . S
C46 C47 1.352 . S
C47 C46 1.352 . S
C47 C48 1.384 1_545 S
C47 H74 0.930 . S
C48 C43 1.407 . S
C48 C47 1.384 1_565 S
C48 H75 0.929 . S
C49 O62 1.241 . S
C49 O63 1.273 . S
C50 O64 1.251 1_545 S
C50 O65 1.268 . S
C51 Nd41 2.836 . S
C51 C52 1.498 . S
C51 O66 1.258 . S
C51 O67 1.239 . S
C52 C51 1.498 . S
C52 C53 1.366 . S
C52 C57 1.407 . S
C53 C52 1.366 . S
C53 C54 1.392 . S
C53 H76 0.930 . S
C54 C53 1.392 . S
C54 C55 1.398 . S
C54 H77 0.929 . S
C55 C54 1.398 . S
C55 C56 1.352 . S
C56 C55 1.352 . S
C56 C57 1.384 . S
C56 H78 0.930 . S
C57 C52 1.407 . S
C57 C56 1.384 . S
C57 H79 0.929 . S
C58 O68 1.241 . S
C58 O69 1.273 . S
C59 O70 1.251 . S
C59 O71 1.268 . S
O60 Nd40 2.500 . S
O60 C42 1.258 . S
O61 Nd40 2.492 . S
O61 C42 1.239 . S
O62 Nd40 2.487 . S
O62 C49 1.241 . S
O63 Nd40 2.682 . S
O63 Nd41 2.414 . S
O63 C49 1.273 . S
O64 Nd40 2.410 . S
O64 C50 1.251 1_565 S
O65 Nd41 2.424 1_545 S
O65 C50 1.268 . S
O66 Nd41 2.500 . S
O66 C51 1.258 . S
O67 Nd41 2.492 . S
O67 C51 1.239 . S
O68 Nd41 2.487 . S
O68 C58 1.241 . S
O69 Nd40 2.414 . S
O69 Nd41 2.682 . S
O69 C58 1.273 . S
O70 Nd41 2.410 . S
O70 C59 1.251 . S
O71 Nd40 2.424 . S
O71 C59 1.268 . S
H72 C44 0.930 . S
H73 C45 0.929 . S
H74 C47 0.930 . S
H75 C48 0.929 . S
H76 C53 0.930 . S
H77 C54 0.929 . S
H78 C56 0.930 . S
H79 C57 0.929 . S
Nd80 C82 2.836 . S
Nd80 O100 2.500 . S
Nd80 O101 2.492 . S
Nd80 O102 2.487 . S
Nd80 O103 2.682 . S
Nd80 O104 2.410 . S
Nd80 O109 2.414 . S
Nd80 O111 2.424 . S
Nd81 C91 2.836 . S
Nd81 O103 2.414 . S
Nd81 O105 2.424 1_565 S
Nd81 O106 2.500 . S
Nd81 O107 2.492 . S
Nd81 O108 2.487 . S
Nd81 O109 2.682 . S
Nd81 O110 2.410 . S
C82 Nd80 2.836 . S
C82 C83 1.498 . S
C82 O100 1.258 . S
C82 O101 1.239 . S
C83 C82 1.498 . S
C83 C84 1.366 1_565 S
C83 C88 1.407 . S
C84 C83 1.366 1_545 S
C84 C85 1.392 . S
C84 H112 0.930 . S
C85 C84 1.392 . S
C85 C86 1.398 . S
C85 H113 0.929 . S
C86 C85 1.398 . S
C86 C87 1.352 . S
C87 C86 1.352 . S
C87 C88 1.384 1_545 S
C87 H114 0.930 . S
C88 C83 1.407 . S
C88 C87 1.384 1_565 S
C88 H115 0.929 . S
C89 O102 1.241 . S
C89 O103 1.273 . S
C90 O104 1.251 1_545 S
C90 O105 1.268 . S
C91 Nd81 2.836 . S
C91 C92 1.498 . S
C91 O106 1.258 . S
C91 O107 1.239 . S
C92 C91 1.498 . S
C92 C93 1.366 . S
C92 C97 1.407 . S
C93 C92 1.366 . S
C93 C94 1.392 . S
C93 H116 0.930 . S
C94 C93 1.392 . S
C94 C95 1.398 . S
C94 H117 0.929 . S
C95 C94 1.398 . S
C95 C96 1.352 . S
C96 C95 1.352 . S
C96 C97 1.384 . S
C96 H118 0.930 . S
C97 C92 1.407 . S
C97 C96 1.384 . S
C97 H119 0.929 . S
C98 O108 1.241 . S
C98 O109 1.273 . S
C99 O110 1.251 . S
C99 O111 1.268 . S
O100 Nd80 2.500 . S
O100 C82 1.258 . S
O101 Nd80 2.492 . S
O101 C82 1.239 . S
O102 Nd80 2.487 . S
O102 C89 1.241 . S
O103 Nd80 2.682 . S
O103 Nd81 2.414 . S
O103 C89 1.273 . S
O104 Nd80 2.410 . S
O104 C90 1.251 1_565 S
O105 Nd81 2.424 1_545 S
O105 C90 1.268 . S
O106 Nd81 2.500 . S
O106 C91 1.258 . S
O107 Nd81 2.492 . S
O107 C91 1.239 . S
O108 Nd81 2.487 . S
O108 C98 1.241 . S
O109 Nd80 2.414 . S
O109 Nd81 2.682 . S
O109 C98 1.273 . S
O110 Nd81 2.410 . S
O110 C99 1.251 . S
O111 Nd80 2.424 . S
O111 C99 1.268 . S
H112 C84 0.930 . S
H113 C85 0.929 . S
H114 C87 0.930 . S
H115 C88 0.929 . S
H116 C93 0.930 . S
H117 C94 0.929 . S
H118 C96 0.930 . S
H119 C97 0.929 . S
Nd120 C122 2.836 . S
Nd120 O140 2.500 . S
Nd120 O141 2.492 . S
Nd120 O142 2.487 . S
Nd120 O143 2.682 . S
Nd120 O144 2.410 . S
Nd120 O149 2.414 . S
Nd120 O151 2.424 . S
Nd121 C131 2.836 . S
Nd121 O143 2.414 . S
Nd121 O145 2.424 1_545 S
Nd121 O146 2.500 . S
Nd121 O147 2.492 . S
Nd121 O148 2.487 . S
Nd121 O149 2.682 . S
Nd121 O150 2.410 . S
C122 Nd120 2.836 . S
C122 C123 1.498 . S
C122 O140 1.258 . S
C122 O141 1.239 . S
C123 C122 1.498 . S
C123 C124 1.366 1_545 S
C123 C128 1.407 . S
C124 C123 1.366 1_565 S
C124 C125 1.392 . S
C124 H152 0.930 . S
C125 C124 1.392 . S
C125 C126 1.398 . S
C125 H153 0.929 . S
C126 C125 1.398 . S
C126 C127 1.352 . S
C127 C126 1.352 . S
C127 C128 1.384 1_565 S
C127 H154 0.930 . S
C128 C123 1.407 . S
C128 C127 1.384 1_545 S
C128 H155 0.929 . S
C129 O142 1.241 . S
C129 O143 1.273 . S
C130 O144 1.251 1_565 S
C130 O145 1.268 . S
C131 Nd121 2.836 . S
C131 C132 1.498 . S
C131 O146 1.258 . S
C131 O147 1.239 . S
C132 C131 1.498 . S
C132 C133 1.366 . S
C132 C137 1.407 . S
C133 C132 1.366 . S
C133 C134 1.392 . S
C133 H156 0.930 . S
C134 C133 1.392 . S
C134 C135 1.398 . S
C134 H157 0.929 . S
C135 C134 1.398 . S
C135 C136 1.352 . S
C136 C135 1.352 . S
C136 C137 1.384 . S
C136 H158 0.930 . S
C137 C132 1.407 . S
C137 C136 1.384 . S
C137 H159 0.929 . S
C138 O148 1.241 . S
C138 O149 1.273 . S
C139 O150 1.251 . S
C139 O151 1.268 . S
O140 Nd120 2.500 . S
O140 C122 1.258 . S
O141 Nd120 2.492 . S
O141 C122 1.239 . S
O142 Nd120 2.487 . S
O142 C129 1.241 . S
O143 Nd120 2.682 . S
O143 Nd121 2.414 . S
O143 C129 1.273 . S
O144 Nd120 2.410 . S
O144 C130 1.251 1_545 S
O145 Nd121 2.424 1_565 S
O145 C130 1.268 . S
O146 Nd121 2.500 . S
O146 C131 1.258 . S
O147 Nd121 2.492 . S
O147 C131 1.239 . S
O148 Nd121 2.487 . S
O148 C138 1.241 . S
O149 Nd120 2.414 . S
O149 Nd121 2.682 . S
O149 C138 1.273 . S
O150 Nd121 2.410 . S
O150 C139 1.251 . S
O151 Nd120 2.424 . S
O151 C139 1.268 . S
H152 C124 0.930 . S
H153 C125 0.929 . S
H154 C127 0.930 . S
H155 C128 0.929 . S
H156 C133 0.930 . S
H157 C134 0.929 . S
H158 C136 0.930 . S
H159 C137 0.929 . S
Nd160 C162 2.836 . S
Nd160 O180 2.500 . S
Nd160 O181 2.492 . S
Nd160 O182 2.487 . S
Nd160 O183 2.682 . S
Nd160 O184 2.410 . S
Nd160 O189 2.414 . S
Nd160 O191 2.424 1_565 S
Nd161 C171 2.836 . S
Nd161 O183 2.414 . S
Nd161 O185 2.424 . S
Nd161 O186 2.500 . S
Nd161 O187 2.492 . S
Nd161 O188 2.487 . S
Nd161 O189 2.682 . S
Nd161 O190 2.410 . S
C162 Nd160 2.836 . S
C162 C163 1.498 . S
C162 O180 1.258 . S
C162 O181 1.239 . S
C163 C162 1.498 . S
C163 C164 1.366 . S
C163 C168 1.407 . S
C164 C163 1.366 . S
C164 C165 1.392 . S
C164 H192 0.930 . S
C165 C164 1.392 . S
C165 C166 1.398 . S
C165 H193 0.929 . S
C166 C165 1.398 . S
C166 C167 1.352 . S
C167 C166 1.352 . S
C167 C168 1.384 . S
C167 H194 0.930 . S
C168 C163 1.407 . S
C168 C167 1.384 . S
C168 H195 0.929 . S
C169 O182 1.241 . S
C169 O183 1.273 . S
C170 O184 1.251 . S
C170 O185 1.268 . S
C171 Nd161 2.836 . S
C171 C172 1.498 . S
C171 O186 1.258 . S
C171 O187 1.239 . S
C172 C171 1.498 . S
C172 C173 1.366 1_565 S
C172 C177 1.407 . S
C173 C172 1.366 1_545 S
C173 C174 1.392 . S
C173 H196 0.930 . S
C174 C173 1.392 . S
C174 C175 1.398 . S
C174 H197 0.929 . S
C175 C174 1.398 . S
C175 C176 1.352 . S
C176 C175 1.352 . S
C176 C177 1.384 1_545 S
C176 H198 0.930 . S
C177 C172 1.407 . S
C177 C176 1.384 1_565 S
C177 H199 0.929 . S
C178 O188 1.241 . S
C178 O189 1.273 . S
C179 O190 1.251 1_545 S
C179 O191 1.268 . S
O180 Nd160 2.500 . S
O180 C162 1.258 . S
O181 Nd160 2.492 . S
O181 C162 1.239 . S
O182 Nd160 2.487 . S
O182 C169 1.241 . S
O183 Nd160 2.682 . S
O183 Nd161 2.414 . S
O183 C169 1.273 . S
O184 Nd160 2.410 . S
O184 C170 1.251 . S
O185 Nd161 2.424 . S
O185 C170 1.268 . S
O186 Nd161 2.500 . S
O186 C171 1.258 . S
O187 Nd161 2.492 . S
O187 C171 1.239 . S
O188 Nd161 2.487 . S
O188 C178 1.241 . S
O189 Nd160 2.414 . S
O189 Nd161 2.682 . S
O189 C178 1.273 . S
O190 Nd161 2.410 . S
O190 C179 1.251 1_565 S
O191 Nd160 2.424 1_545 S
O191 C179 1.268 . S
H192 C164 0.930 . S
H193 C165 0.929 . S
H194 C167 0.930 . S
H195 C168 0.929 . S
H196 C173 0.930 . S
H197 C174 0.929 . S
H198 C176 0.930 . S
H199 C177 0.929 . S
Nd200 C202 2.836 . S
Nd200 O220 2.500 . S
Nd200 O221 2.492 . S
Nd200 O222 2.487 . S
Nd200 O223 2.682 . S
Nd200 O224 2.410 . S
Nd200 O229 2.414 . S
Nd200 O231 2.424 1_545 S
Nd201 C211 2.836 . S
Nd201 O223 2.414 . S
Nd201 O225 2.424 . S
Nd201 O226 2.500 . S
Nd201 O227 2.492 . S
Nd201 O228 2.487 . S
Nd201 O229 2.682 . S
Nd201 O230 2.410 . S
C202 Nd200 2.836 . S
C202 C203 1.498 . S
C202 O220 1.258 . S
C202 O221 1.239 . S
C203 C202 1.498 . S
C203 C204 1.366 . S
C203 C208 1.407 . S
C204 C203 1.366 . S
C204 C205 1.392 . S
C204 H232 0.930 . S
C205 C204 1.392 . S
C205 C206 1.398 . S
C205 H233 0.929 . S
C206 C205 1.398 . S
C206 C207 1.352 . S
C207 C206 1.352 . S
C207 C208 1.384 . S
C207 H234 0.930 . S
C208 C203 1.407 . S
C208 C207 1.384 . S
C208 H235 0.929 . S
C209 O222 1.241 . S
C209 O223 1.273 . S
C210 O224 1.251 . S
C210 O225 1.268 . S
C211 Nd201 2.836 . S
C211 C212 1.498 . S
C211 O226 1.258 . S
C211 O227 1.239 . S
C212 C211 1.498 . S
C212 C213 1.366 1_545 S
C212 C217 1.407 . S
C213 C212 1.366 1_565 S
C213 C214 1.392 . S
C213 H236 0.930 . S
C214 C213 1.392 . S
C214 C215 1.398 . S
C214 H237 0.929 . S
C215 C214 1.398 . S
C215 C216 1.352 . S
C216 C215 1.352 . S
C216 C217 1.384 1_565 S
C216 H238 0.930 . S
C217 C212 1.407 . S
C217 C216 1.384 1_545 S
C217 H239 0.929 . S
C218 O228 1.241 . S
C218 O229 1.273 . S
C219 O230 1.251 1_565 S
C219 O231 1.268 . S
O220 Nd200 2.500 . S
O220 C202 1.258 . S
O221 Nd200 2.492 . S
O221 C202 1.239 . S
O222 Nd200 2.487 . S
O222 C209 1.241 . S
O223 Nd200 2.682 . S
O223 Nd201 2.414 . S
O223 C209 1.273 . S
O224 Nd200 2.410 . S
O224 C210 1.251 . S
O225 Nd201 2.424 . S
O225 C210 1.268 . S
O226 Nd201 2.500 . S
O226 C211 1.258 . S
O227 Nd201 2.492 . S
O227 C211 1.239 . S
O228 Nd201 2.487 . S
O228 C218 1.241 . S
O229 Nd200 2.414 . S
O229 Nd201 2.682 . S
O229 C218 1.273 . S
O230 Nd201 2.410 . S
O230 C219 1.251 1_545 S
O231 Nd200 2.424 1_565 S
O231 C219 1.268 . S
H232 C204 0.930 . S
H233 C205 0.929 . S
H234 C207 0.930 . S
H235 C208 0.929 . S
H236 C213 0.930 . S
H237 C214 0.929 . S
H238 C216 0.930 . S
H239 C217 0.929 . S
Nd240 C242 2.836 . S
Nd240 O260 2.500 . S
Nd240 O261 2.492 . S
Nd240 O262 2.487 . S
Nd240 O263 2.682 . S
Nd240 O264 2.410 . S
Nd240 O269 2.414 . S
Nd240 O271 2.424 1_545 S
Nd241 C251 2.836 . S
Nd241 O263 2.414 . S
Nd241 O265 2.424 . S
Nd241 O266 2.500 . S
Nd241 O267 2.492 . S
Nd241 O268 2.487 . S
Nd241 O269 2.682 . S
Nd241 O270 2.410 . S
C242 Nd240 2.836 . S
C242 C243 1.498 . S
C242 O260 1.258 . S
C242 O261 1.239 . S
C243 C242 1.498 . S
C243 C244 1.366 . S
C243 C248 1.407 . S
C244 C243 1.366 . S
C244 C245 1.392 . S
C244 H272 0.930 . S
C245 C244 1.392 . S
C245 C246 1.398 . S
C245 H273 0.929 . S
C246 C245 1.398 . S
C246 C247 1.352 . S
C247 C246 1.352 . S
C247 C248 1.384 . S
C247 H274 0.930 . S
C248 C243 1.407 . S
C248 C247 1.384 . S
C248 H275 0.929 . S
C249 O262 1.241 . S
C249 O263 1.273 . S
C250 O264 1.251 . S
C250 O265 1.268 . S
C251 Nd241 2.836 . S
C251 C252 1.498 . S
C251 O266 1.258 . S
C251 O267 1.239 . S
C252 C251 1.498 . S
C252 C253 1.366 1_545 S
C252 C257 1.407 . S
C253 C252 1.366 1_565 S
C253 C254 1.392 . S
C253 H276 0.930 . S
C254 C253 1.392 . S
C254 C255 1.398 . S
C254 H277 0.929 . S
C255 C254 1.398 . S
C255 C256 1.352 . S
C256 C255 1.352 . S
C256 C257 1.384 1_565 S
C256 H278 0.930 . S
C257 C252 1.407 . S
C257 C256 1.384 1_545 S
C257 H279 0.929 . S
C258 O268 1.241 . S
C258 O269 1.273 . S
C259 O270 1.251 1_565 S
C259 O271 1.268 . S
O260 Nd240 2.500 . S
O260 C242 1.258 . S
O261 Nd240 2.492 . S
O261 C242 1.239 . S
O262 Nd240 2.487 . S
O262 C249 1.241 . S
O263 Nd240 2.682 . S
O263 Nd241 2.414 . S
O263 C249 1.273 . S
O264 Nd240 2.410 . S
O264 C250 1.251 . S
O265 Nd241 2.424 . S
O265 C250 1.268 . S
O266 Nd241 2.500 . S
O266 C251 1.258 . S
O267 Nd241 2.492 . S
O267 C251 1.239 . S
O268 Nd241 2.487 . S
O268 C258 1.241 . S
O269 Nd240 2.414 . S
O269 Nd241 2.682 . S
O269 C258 1.273 . S
O270 Nd241 2.410 . S
O270 C259 1.251 1_545 S
O271 Nd240 2.424 1_565 S
O271 C259 1.268 . S
H272 C244 0.930 . S
H273 C245 0.929 . S
H274 C247 0.930 . S
H275 C248 0.929 . S
H276 C253 0.930 . S
H277 C254 0.929 . S
H278 C256 0.930 . S
H279 C257 0.929 . S
Nd280 C282 2.836 . S
Nd280 O300 2.500 . S
Nd280 O301 2.492 . S
Nd280 O302 2.487 . S
Nd280 O303 2.682 . S
Nd280 O304 2.410 . S
Nd280 O309 2.414 . S
Nd280 O311 2.424 1_565 S
Nd281 C291 2.836 . S
Nd281 O303 2.414 . S
Nd281 O305 2.424 . S
Nd281 O306 2.500 . S
Nd281 O307 2.492 . S
Nd281 O308 2.487 . S
Nd281 O309 2.682 . S
Nd281 O310 2.410 . S
C282 Nd280 2.836 . S
C282 C283 1.498 . S
C282 O300 1.258 . S
C282 O301 1.239 . S
C283 C282 1.498 . S
C283 C284 1.366 . S
C283 C288 1.407 . S
C284 C283 1.366 . S
C284 C285 1.392 . S
C284 H312 0.930 . S
C285 C284 1.392 . S
C285 C286 1.398 . S
C285 H313 0.929 . S
C286 C285 1.398 . S
C286 C287 1.352 . S
C287 C286 1.352 . S
C287 C288 1.384 . S
C287 H314 0.930 . S
C288 C283 1.407 . S
C288 C287 1.384 . S
C288 H315 0.929 . S
C289 O302 1.241 . S
C289 O303 1.273 . S
C290 O304 1.251 . S
C290 O305 1.268 . S
C291 Nd281 2.836 . S
C291 C292 1.498 . S
C291 O306 1.258 . S
C291 O307 1.239 . S
C292 C291 1.498 . S
C292 C293 1.366 1_565 S
C292 C297 1.407 . S
C293 C292 1.366 1_545 S
C293 C294 1.392 . S
C293 H316 0.930 . S
C294 C293 1.392 . S
C294 C295 1.398 . S
C294 H317 0.929 . S
C295 C294 1.398 . S
C295 C296 1.352 . S
C296 C295 1.352 . S
C296 C297 1.384 1_545 S
C296 H318 0.930 . S
C297 C292 1.407 . S
C297 C296 1.384 1_565 S
C297 H319 0.929 . S
C298 O308 1.241 . S
C298 O309 1.273 . S
C299 O310 1.251 1_545 S
C299 O311 1.268 . S
O300 Nd280 2.500 . S
O300 C282 1.258 . S
O301 Nd280 2.492 . S
O301 C282 1.239 . S
O302 Nd280 2.487 . S
O302 C289 1.241 . S
O303 Nd280 2.682 . S
O303 Nd281 2.414 . S
O303 C289 1.273 . S
O304 Nd280 2.410 . S
O304 C290 1.251 . S
O305 Nd281 2.424 . S
O305 C290 1.268 . S
O306 Nd281 2.500 . S
O306 C291 1.258 . S
O307 Nd281 2.492 . S
O307 C291 1.239 . S
O308 Nd281 2.487 . S
O308 C298 1.241 . S
O309 Nd280 2.414 . S
O309 Nd281 2.682 . S
O309 C298 1.273 . S
O310 Nd281 2.410 . S
O310 C299 1.251 1_565 S
O311 Nd280 2.424 1_545 S
O311 C299 1.268 . S
H312 C284 0.930 . S
H313 C285 0.929 . S
H314 C287 0.930 . S
H315 C288 0.929 . S
H316 C293 0.930 . S
H317 C294 0.929 . S
H318 C296 0.930 . S
H319 C297 0.929 . S
Nd320 C322 2.836 . S
Nd320 O340 2.500 . S
Nd320 O341 2.492 . S
Nd320 O342 2.487 . S
Nd320 O343 2.682 . S
Nd320 O344 2.410 . S
Nd320 O349 2.414 . S
Nd320 O351 2.424 . S
Nd321 C331 2.836 . S
Nd321 O343 2.414 . S
Nd321 O345 2.424 . S
Nd321 O346 2.500 . S
Nd321 O347 2.492 . S
Nd321 O348 2.487 . S
Nd321 O349 2.682 . S
Nd321 O350 2.410 . S
C322 Nd320 2.836 . S
C322 C323 1.498 . S
C322 O340 1.258 . S
C322 O341 1.239 . S
C323 C322 1.498 . S
C323 C324 1.366 . S
C323 C328 1.407 . S
C324 C323 1.366 . S
C324 C325 1.392 . S
C324 H352 0.930 . S
C325 C324 1.392 . S
C325 C326 1.398 . S
C325 H353 0.929 . S
C326 C325 1.398 . S
C326 C327 1.352 . S
C327 C326 1.352 . S
C327 C328 1.384 . S
C327 H354 0.930 . S
C328 C323 1.407 . S
C328 C327 1.384 . S
C328 H355 0.929 . S
C329 O342 1.241 . S
C329 O343 1.273 . S
C330 O344 1.251 . S
C330 O345 1.268 . S
C331 Nd321 2.836 . S
C331 C332 1.498 . S
C331 O346 1.258 . S
C331 O347 1.239 . S
C332 C331 1.498 . S
C332 C333 1.366 . S
C332 C337 1.407 . S
C333 C332 1.366 . S
C333 C334 1.392 . S
C333 H356 0.930 . S
C334 C333 1.392 . S
C334 C335 1.398 . S
C334 H357 0.929 . S
C335 C334 1.398 . S
C335 C336 1.352 . S
C336 C335 1.352 . S
C336 C337 1.384 . S
C336 H358 0.930 . S
C337 C332 1.407 . S
C337 C336 1.384 . S
C337 H359 0.929 . S
C338 O348 1.241 . S
C338 O349 1.273 . S
C339 O350 1.251 . S
C339 O351 1.268 . S
O340 Nd320 2.500 . S
O340 C322 1.258 . S
O341 Nd320 2.492 . S
O341 C322 1.239 . S
O342 Nd320 2.487 . S
O342 C329 1.241 . S
O343 Nd320 2.682 . S
O343 Nd321 2.414 . S
O343 C329 1.273 . S
O344 Nd320 2.410 . S
O344 C330 1.251 . S
O345 Nd321 2.424 . S
O345 C330 1.268 . S
O346 Nd321 2.500 . S
O346 C331 1.258 . S
O347 Nd321 2.492 . S
O347 C331 1.239 . S
O348 Nd321 2.487 . S
O348 C338 1.241 . S
O349 Nd320 2.414 . S
O349 Nd321 2.682 . S
O349 C338 1.273 . S
O350 Nd321 2.410 . S
O350 C339 1.251 . S
O351 Nd320 2.424 . S
O351 C339 1.268 . S
H352 C324 0.930 . S
H353 C325 0.929 . S
H354 C327 0.930 . S
H355 C328 0.929 . S
H356 C333 0.930 . S
H357 C334 0.929 . S
H358 C336 0.930 . S
H359 C337 0.929 . S
Nd360 C362 2.836 . S
Nd360 O380 2.500 . S
Nd360 O381 2.492 . S
Nd360 O382 2.487 . S
Nd360 O383 2.682 . S
Nd360 O384 2.410 . S
Nd360 O389 2.414 . S
Nd360 O391 2.424 . S
Nd361 C371 2.836 . S
Nd361 O383 2.414 . S
Nd361 O385 2.424 . S
Nd361 O386 2.500 . S
Nd361 O387 2.492 . S
Nd361 O388 2.487 . S
Nd361 O389 2.682 . S
Nd361 O390 2.410 . S
C362 Nd360 2.836 . S
C362 C363 1.498 . S
C362 O380 1.258 . S
C362 O381 1.239 . S
C363 C362 1.498 . S
C363 C364 1.366 . S
C363 C368 1.407 . S
C364 C363 1.366 . S
C364 C365 1.392 . S
C364 H392 0.930 . S
C365 C364 1.392 . S
C365 C366 1.398 . S
C365 H393 0.929 . S
C366 C365 1.398 . S
C366 C367 1.352 . S
C367 C366 1.352 . S
C367 C368 1.384 . S
C367 H394 0.930 . S
C368 C363 1.407 . S
C368 C367 1.384 . S
C368 H395 0.929 . S
C369 O382 1.241 . S
C369 O383 1.273 . S
C370 O384 1.251 . S
C370 O385 1.268 . S
C371 Nd361 2.836 . S
C371 C372 1.498 . S
C371 O386 1.258 . S
C371 O387 1.239 . S
C372 C371 1.498 . S
C372 C373 1.366 . S
C372 C377 1.407 . S
C373 C372 1.366 . S
C373 C374 1.392 . S
C373 H396 0.930 . S
C374 C373 1.392 . S
C374 C375 1.398 . S
C374 H397 0.929 . S
C375 C374 1.398 . S
C375 C376 1.352 . S
C376 C375 1.352 . S
C376 C377 1.384 . S
C376 H398 0.930 . S
C377 C372 1.407 . S
C377 C376 1.384 . S
C377 H399 0.929 . S
C378 O388 1.241 . S
C378 O389 1.273 . S
C379 O390 1.251 . S
C379 O391 1.268 . S
O380 Nd360 2.500 . S
O380 C362 1.258 . S
O381 Nd360 2.492 . S
O381 C362 1.239 . S
O382 Nd360 2.487 . S
O382 C369 1.241 . S
O383 Nd360 2.682 . S
O383 Nd361 2.414 . S
O383 C369 1.273 . S
O384 Nd360 2.410 . S
O384 C370 1.251 . S
O385 Nd361 2.424 . S
O385 C370 1.268 . S
O386 Nd361 2.500 . S
O386 C371 1.258 . S
O387 Nd361 2.492 . S
O387 C371 1.239 . S
O388 Nd361 2.487 . S
O388 C378 1.241 . S
O389 Nd360 2.414 . S
O389 Nd361 2.682 . S
O389 C378 1.273 . S
O390 Nd361 2.410 . S
O390 C379 1.251 . S
O391 Nd360 2.424 . S
O391 C379 1.268 . S
H392 C364 0.930 . S
H393 C365 0.929 . S
H394 C367 0.930 . S
H395 C368 0.929 . S
H396 C373 0.930 . S
H397 C374 0.929 . S
H398 C376 0.930 . S
H399 C377 0.929 . S
Nd400 C402 2.836 . S
Nd400 O420 2.500 . S
Nd400 O421 2.492 . S
Nd400 O422 2.487 . S
Nd400 O423 2.682 . S
Nd400 O424 2.410 . S
Nd400 O429 2.414 . S
Nd400 O431 2.424 . S
Nd401 C411 2.836 . S
Nd401 O423 2.414 . S
Nd401 O425 2.424 . S
Nd401 O426 2.500 . S
Nd401 O427 2.492 . S
Nd401 O428 2.487 . S
Nd401 O429 2.682 . S
Nd401 O430 2.410 . S
C402 Nd400 2.836 . S
C402 C403 1.498 . S
C402 O420 1.258 . S
C402 O421 1.239 . S
C403 C402 1.498 . S
C403 C404 1.366 . S
C403 C408 1.407 . S
C404 C403 1.366 . S
C404 C405 1.392 . S
C404 H432 0.930 . S
C405 C404 1.392 . S
C405 C406 1.398 . S
C405 H433 0.929 . S
C406 C405 1.398 . S
C406 C407 1.352 . S
C407 C406 1.352 . S
C407 C408 1.384 . S
C407 H434 0.930 . S
C408 C403 1.407 . S
C408 C407 1.384 . S
C408 H435 0.929 . S
C409 O422 1.241 . S
C409 O423 1.273 . S
C410 O424 1.251 . S
C410 O425 1.268 . S
C411 Nd401 2.836 . S
C411 C412 1.498 . S
C411 O426 1.258 . S
C411 O427 1.239 . S
C412 C411 1.498 . S
C412 C413 1.366 . S
C412 C417 1.407 . S
C413 C412 1.366 . S
C413 C414 1.392 . S
C413 H436 0.930 . S
C414 C413 1.392 . S
C414 C415 1.398 . S
C414 H437 0.929 . S
C415 C414 1.398 . S
C415 C416 1.352 . S
C416 C415 1.352 . S
C416 C417 1.384 . S
C416 H438 0.930 . S
C417 C412 1.407 . S
C417 C416 1.384 . S
C417 H439 0.929 . S
C418 O428 1.241 . S
C418 O429 1.273 . S
C419 O430 1.251 . S
C419 O431 1.268 . S
O420 Nd400 2.500 . S
O420 C402 1.258 . S
O421 Nd400 2.492 . S
O421 C402 1.239 . S
O422 Nd400 2.487 . S
O422 C409 1.241 . S
O423 Nd400 2.682 . S
O423 Nd401 2.414 . S
O423 C409 1.273 . S
O424 Nd400 2.410 . S
O424 C410 1.251 . S
O425 Nd401 2.424 . S
O425 C410 1.268 . S
O426 Nd401 2.500 . S
O426 C411 1.258 . S
O427 Nd401 2.492 . S
O427 C411 1.239 . S
O428 Nd401 2.487 . S
O428 C418 1.241 . S
O429 Nd400 2.414 . S
O429 Nd401 2.682 . S
O429 C418 1.273 . S
O430 Nd401 2.410 . S
O430 C419 1.251 . S
O431 Nd400 2.424 . S
O431 C419 1.268 . S
H432 C404 0.930 . S
H433 C405 0.929 . S
H434 C407 0.930 . S
H435 C408 0.929 . S
H436 C413 0.930 . S
H437 C414 0.929 . S
H438 C416 0.930 . S
H439 C417 0.929 . S
Nd440 C442 2.836 . S
Nd440 O460 2.500 . S
Nd440 O461 2.492 . S
Nd440 O462 2.487 . S
Nd440 O463 2.682 . S
Nd440 O464 2.410 . S
Nd440 O469 2.414 . S
Nd440 O471 2.424 . S
Nd441 C451 2.836 . S
Nd441 O463 2.414 . S
Nd441 O465 2.424 . S
Nd441 O466 2.500 . S
Nd441 O467 2.492 . S
Nd441 O468 2.487 . S
Nd441 O469 2.682 . S
Nd441 O470 2.410 . S
C442 Nd440 2.836 . S
C442 C443 1.498 . S
C442 O460 1.258 . S
C442 O461 1.239 . S
C443 C442 1.498 . S
C443 C444 1.366 . S
C443 C448 1.407 . S
C444 C443 1.366 . S
C444 C445 1.392 . S
C444 H472 0.930 . S
C445 C444 1.392 . S
C445 C446 1.398 . S
C445 H473 0.929 . S
C446 C445 1.398 . S
C446 C447 1.352 . S
C447 C446 1.352 . S
C447 C448 1.384 . S
C447 H474 0.930 . S
C448 C443 1.407 . S
C448 C447 1.384 . S
C448 H475 0.929 . S
C449 O462 1.241 . S
C449 O463 1.273 . S
C450 O464 1.251 . S
C450 O465 1.268 . S
C451 Nd441 2.836 . S
C451 C452 1.498 . S
C451 O466 1.258 . S
C451 O467 1.239 . S
C452 C451 1.498 . S
C452 C453 1.366 . S
C452 C457 1.407 . S
C453 C452 1.366 . S
C453 C454 1.392 . S
C453 H476 0.930 . S
C454 C453 1.392 . S
C454 C455 1.398 . S
C454 H477 0.929 . S
C455 C454 1.398 . S
C455 C456 1.352 . S
C456 C455 1.352 . S
C456 C457 1.384 . S
C456 H478 0.930 . S
C457 C452 1.407 . S
C457 C456 1.384 . S
C457 H479 0.929 . S
C458 O468 1.241 . S
C458 O469 1.273 . S
C459 O470 1.251 . S
C459 O471 1.268 . S
O460 Nd440 2.500 . S
O460 C442 1.258 . S
O461 Nd440 2.492 . S
O461 C442 1.239 . S
O462 Nd440 2.487 . S
O462 C449 1.241 . S
O463 Nd440 2.682 . S
O463 Nd441 2.414 . S
O463 C449 1.273 . S
O464 Nd440 2.410 . S
O464 C450 1.251 . S
O465 Nd441 2.424 . S
O465 C450 1.268 . S
O466 Nd441 2.500 . S
O466 C451 1.258 . S
O467 Nd441 2.492 . S
O467 C451 1.239 . S
O468 Nd441 2.487 . S
O468 C458 1.241 . S
O469 Nd440 2.414 . S
O469 Nd441 2.682 . S
O469 C458 1.273 . S
O470 Nd441 2.410 . S
O470 C459 1.251 . S
O471 Nd440 2.424 . S
O471 C459 1.268 . S
H472 C444 0.930 . S
H473 C445 0.929 . S
H474 C447 0.930 . S
H475 C448 0.929 . S
H476 C453 0.930 . S
H477 C454 0.929 . S
H478 C456 0.930 . S
H479 C457 0.929 . S
Nd480 C482 2.836 . S
Nd480 O500 2.500 . S
Nd480 O501 2.492 . S
Nd480 O502 2.487 . S
Nd480 O503 2.682 . S
Nd480 O504 2.410 . S
Nd480 O509 2.414 . S
Nd480 O511 2.424 . S
Nd481 C491 2.836 . S
Nd481 O503 2.414 . S
Nd481 O505 2.424 . S
Nd481 O506 2.500 . S
Nd481 O507 2.492 . S
Nd481 O508 2.487 . S
Nd481 O509 2.682 . S
Nd481 O510 2.410 . S
C482 Nd480 2.836 . S
C482 C483 1.498 . S
C482 O500 1.258 . S
C482 O501 1.239 . S
C483 C482 1.498 . S
C483 C484 1.366 . S
C483 C488 1.407 . S
C484 C483 1.366 . S
C484 C485 1.392 . S
C484 H512 0.930 . S
C485 C484 1.392 . S
C485 C486 1.398 . S
C485 H513 0.929 . S
C486 C485 1.398 . S
C486 C487 1.352 . S
C487 C486 1.352 . S
C487 C488 1.384 . S
C487 H514 0.930 . S
C488 C483 1.407 . S
C488 C487 1.384 . S
C488 H515 0.929 . S
C489 O502 1.241 . S
C489 O503 1.273 . S
C490 O504 1.251 . S
C490 O505 1.268 . S
C491 Nd481 2.836 . S
C491 C492 1.498 . S
C491 O506 1.258 . S
C491 O507 1.239 . S
C492 C491 1.498 . S
C492 C493 1.366 . S
C492 C497 1.407 . S
C493 C492 1.366 . S
C493 C494 1.392 . S
C493 H516 0.930 . S
C494 C493 1.392 . S
C494 C495 1.398 . S
C494 H517 0.929 . S
C495 C494 1.398 . S
C495 C496 1.352 . S
C496 C495 1.352 . S
C496 C497 1.384 . S
C496 H518 0.930 . S
C497 C492 1.407 . S
C497 C496 1.384 . S
C497 H519 0.929 . S
C498 O508 1.241 . S
C498 O509 1.273 . S
C499 O510 1.251 . S
C499 O511 1.268 . S
O500 Nd480 2.500 . S
O500 C482 1.258 . S
O501 Nd480 2.492 . S
O501 C482 1.239 . S
O502 Nd480 2.487 . S
O502 C489 1.241 . S
O503 Nd480 2.682 . S
O503 Nd481 2.414 . S
O503 C489 1.273 . S
O504 Nd480 2.410 . S
O504 C490 1.251 . S
O505 Nd481 2.424 . S
O505 C490 1.268 . S
O506 Nd481 2.500 . S
O506 C491 1.258 . S
O507 Nd481 2.492 . S
O507 C491 1.239 . S
O508 Nd481 2.487 . S
O508 C498 1.241 . S
O509 Nd480 2.414 . S
O509 Nd481 2.682 . S
O509 C498 1.273 . S
O510 Nd481 2.410 . S
O510 C499 1.251 . S
O511 Nd480 2.424 . S
O511 C499 1.268 . S
H512 C484 0.930 . S
H513 C485 0.929 . S
H514 C487 0.930 . S
H515 C488 0.929 . S
H516 C493 0.930 . S
H517 C494 0.929 . S
H518 C496 0.930 . S
H519 C497 0.929 . S
Nd520 C522 2.836 . S
Nd520 O540 2.500 . S
Nd520 O541 2.492 . S
Nd520 O542 2.487 . S
Nd520 O543 2.682 . S
Nd520 O544 2.410 . S
Nd520 O549 2.414 . S
Nd520 O551 2.424 . S
Nd521 C531 2.836 . S
Nd521 O543 2.414 . S
Nd521 O545 2.424 . S
Nd521 O546 2.500 . S
Nd521 O547 2.492 . S
Nd521 O548 2.487 . S
Nd521 O549 2.682 . S
Nd521 O550 2.410 . S
C522 Nd520 2.836 . S
C522 C523 1.498 . S
C522 O540 1.258 . S
C522 O541 1.239 . S
C523 C522 1.498 . S
C523 C524 1.366 . S
C523 C528 1.407 . S
C524 C523 1.366 . S
C524 C525 1.392 . S
C524 H552 0.930 . S
C525 C524 1.392 . S
C525 C526 1.398 . S
C525 H553 0.929 . S
C526 C525 1.398 . S
C526 C527 1.352 . S
C527 C526 1.352 . S
C527 C528 1.384 . S
C527 H554 0.930 . S
C528 C523 1.407 . S
C528 C527 1.384 . S
C528 H555 0.929 . S
C529 O542 1.241 . S
C529 O543 1.273 . S
C530 O544 1.251 . S
C530 O545 1.268 . S
C531 Nd521 2.836 . S
C531 C532 1.498 . S
C531 O546 1.258 . S
C531 O547 1.239 . S
C532 C531 1.498 . S
C532 C533 1.366 . S
C532 C537 1.407 . S
C533 C532 1.366 . S
C533 C534 1.392 . S
C533 H556 0.930 . S
C534 C533 1.392 . S
C534 C535 1.398 . S
C534 H557 0.929 . S
C535 C534 1.398 . S
C535 C536 1.352 . S
C536 C535 1.352 . S
C536 C537 1.384 . S
C536 H558 0.930 . S
C537 C532 1.407 . S
C537 C536 1.384 . S
C537 H559 0.929 . S
C538 O548 1.241 . S
C538 O549 1.273 . S
C539 O550 1.251 . S
C539 O551 1.268 . S
O540 Nd520 2.500 . S
O540 C522 1.258 . S
O541 Nd520 2.492 . S
O541 C522 1.239 . S
O542 Nd520 2.487 . S
O542 C529 1.241 . S
O543 Nd520 2.682 . S
O543 Nd521 2.414 . S
O543 C529 1.273 . S
O544 Nd520 2.410 . S
O544 C530 1.251 . S
O545 Nd521 2.424 . S
O545 C530 1.268 . S
O546 Nd521 2.500 . S
O546 C531 1.258 . S
O547 Nd521 2.492 . S
O547 C531 1.239 . S
O548 Nd521 2.487 . S
O548 C538 1.241 . S
O549 Nd520 2.414 . S
O549 Nd521 2.682 . S
O549 C538 1.273 . S
O550 Nd521 2.410 . S
O550 C539 1.251 . S
O551 Nd520 2.424 . S
O551 C539 1.268 . S
H552 C524 0.930 . S
H553 C525 0.929 . S
H554 C527 0.930 . S
H555 C528 0.929 . S
H556 C533 0.930 . S
H557 C534 0.929 . S
H558 C536 0.930 . S
H559 C537 0.929 . S
Nd560 C562 2.836 . S
Nd560 O580 2.500 . S
Nd560 O581 2.492 . S
Nd560 O582 2.487 . S
Nd560 O583 2.682 . S
Nd560 O584 2.410 . S
Nd560 O589 2.414 . S
Nd560 O591 2.424 . S
Nd561 C571 2.836 . S
Nd561 O583 2.414 . S
Nd561 O585 2.424 . S
Nd561 O586 2.500 . S
Nd561 O587 2.492 . S
Nd561 O588 2.487 . S
Nd561 O589 2.682 . S
Nd561 O590 2.410 . S
C562 Nd560 2.836 . S
C562 C563 1.498 . S
C562 O580 1.258 . S
C562 O581 1.239 . S
C563 C562 1.498 . S
C563 C564 1.366 . S
C563 C568 1.407 . S
C564 C563 1.366 . S
C564 C565 1.392 . S
C564 H592 0.930 . S
C565 C564 1.392 . S
C565 C566 1.398 . S
C565 H593 0.929 . S
C566 C565 1.398 . S
C566 C567 1.352 . S
C567 C566 1.352 . S
C567 C568 1.384 . S
C567 H594 0.930 . S
C568 C563 1.407 . S
C568 C567 1.384 . S
C568 H595 0.929 . S
C569 O582 1.241 . S
C569 O583 1.273 . S
C570 O584 1.251 . S
C570 O585 1.268 . S
C571 Nd561 2.836 . S
C571 C572 1.498 . S
C571 O586 1.258 . S
C571 O587 1.239 . S
C572 C571 1.498 . S
C572 C573 1.366 . S
C572 C577 1.407 . S
C573 C572 1.366 . S
C573 C574 1.392 . S
C573 H596 0.930 . S
C574 C573 1.392 . S
C574 C575 1.398 . S
C574 H597 0.929 . S
C575 C574 1.398 . S
C575 C576 1.352 . S
C576 C575 1.352 . S
C576 C577 1.384 . S
C576 H598 0.930 . S
C577 C572 1.407 . S
C577 C576 1.384 . S
C577 H599 0.929 . S
C578 O588 1.241 . S
C578 O589 1.273 . S
C579 O590 1.251 . S
C579 O591 1.268 . S
O580 Nd560 2.500 . S
O580 C562 1.258 . S
O581 Nd560 2.492 . S
O581 C562 1.239 . S
O582 Nd560 2.487 . S
O582 C569 1.241 . S
O583 Nd560 2.682 . S
O583 Nd561 2.414 . S
O583 C569 1.273 . S
O584 Nd560 2.410 . S
O584 C570 1.251 . S
O585 Nd561 2.424 . S
O585 C570 1.268 . S
O586 Nd561 2.500 . S
O586 C571 1.258 . S
O587 Nd561 2.492 . S
O587 C571 1.239 . S
O588 Nd561 2.487 . S
O588 C578 1.241 . S
O589 Nd560 2.414 . S
O589 Nd561 2.682 . S
O589 C578 1.273 . S
O590 Nd561 2.410 . S
O590 C579 1.251 . S
O591 Nd560 2.424 . S
O591 C579 1.268 . S
H592 C564 0.930 . S
H593 C565 0.929 . S
H594 C567 0.930 . S
H595 C568 0.929 . S
H596 C573 0.930 . S
H597 C574 0.929 . S
H598 C576 0.930 . S
H599 C577 0.929 . S
Nd600 C602 2.836 . S
Nd600 O620 2.500 . S
Nd600 O621 2.492 . S
Nd600 O622 2.487 . S
Nd600 O623 2.682 . S
Nd600 O624 2.410 . S
Nd600 O629 2.414 . S
Nd600 O631 2.424 . S
Nd601 C611 2.836 . S
Nd601 O623 2.414 . S
Nd601 O625 2.424 . S
Nd601 O626 2.500 . S
Nd601 O627 2.492 . S
Nd601 O628 2.487 . S
Nd601 O629 2.682 . S
Nd601 O630 2.410 . S
C602 Nd600 2.836 . S
C602 C603 1.498 . S
C602 O620 1.258 . S
C602 O621 1.239 . S
C603 C602 1.498 . S
C603 C604 1.366 . S
C603 C608 1.407 . S
C604 C603 1.366 . S
C604 C605 1.392 . S
C604 H632 0.930 . S
C605 C604 1.392 . S
C605 C606 1.398 . S
C605 H633 0.929 . S
C606 C605 1.398 . S
C606 C607 1.352 . S
C607 C606 1.352 . S
C607 C608 1.384 . S
C607 H634 0.930 . S
C608 C603 1.407 . S
C608 C607 1.384 . S
C608 H635 0.929 . S
C609 O622 1.241 . S
C609 O623 1.273 . S
C610 O624 1.251 . S
C610 O625 1.268 . S
C611 Nd601 2.836 . S
C611 C612 1.498 . S
C611 O626 1.258 . S
C611 O627 1.239 . S
C612 C611 1.498 . S
C612 C613 1.366 . S
C612 C617 1.407 . S
C613 C612 1.366 . S
C613 C614 1.392 . S
C613 H636 0.930 . S
C614 C613 1.392 . S
C614 C615 1.398 . S
C614 H637 0.929 . S
C615 C614 1.398 . S
C615 C616 1.352 . S
C616 C615 1.352 . S
C616 C617 1.384 . S
C616 H638 0.930 . S
C617 C612 1.407 . S
C617 C616 1.384 . S
C617 H639 0.929 . S
C618 O628 1.241 . S
C618 O629 1.273 . S
C619 O630 1.251 . S
C619 O631 1.268 . S
O620 Nd600 2.500 . S
O620 C602 1.258 . S
O621 Nd600 2.492 . S
O621 C602 1.239 . S
O622 Nd600 2.487 . S
O622 C609 1.241 . S
O623 Nd600 2.682 . S
O623 Nd601 2.414 . S
O623 C609 1.273 . S
O624 Nd600 2.410 . S
O624 C610 1.251 . S
O625 Nd601 2.424 . S
O625 C610 1.268 . S
O626 Nd601 2.500 . S
O626 C611 1.258 . S
O627 Nd601 2.492 . S
O627 C611 1.239 . S
O628 Nd601 2.487 . S
O628 C618 1.241 . S
O629 Nd600 2.414 . S
O629 Nd601 2.682 . S
O629 C618 1.273 . S
O630 Nd601 2.410 . S
O630 C619 1.251 . S
O631 Nd600 2.424 . S
O631 C619 1.268 . S
H632 C604 0.930 . S
H633 C605 0.929 . S
H634 C607 0.930 . S
H635 C608 0.929 . S
H636 C613 0.930 . S
H637 C614 0.929 . S
H638 C616 0.930 . S
H639 C617 0.929 . S
H640 C648 0.929 . S
H641 C650 0.930 . S
H642 C652 0.930 . S
H643 C655 0.929 . S
H644 C658 0.930 . S
H645 C660 0.960 . S
H646 C660 0.960 . S
H647 C660 0.960 . S
C648 H640 0.929 . S
C648 C649 1.377 . S
C648 C650 1.384 . S
C649 C648 1.377 . S
C649 C655 1.390 . S
C650 H641 0.930 . S
C650 C648 1.384 . S
C650 C651 1.372 . S
C651 C650 1.372 . S
C651 C652 1.400 . S
C651 C656 1.490 . S
C652 H642 0.930 . S
C652 C651 1.400 . S
C652 C655 1.386 . S
H653 C669 0.930 . S
H654 C670 0.931 . S
C655 H643 0.929 . S
C655 C649 1.390 . S
C655 C652 1.386 . S
C656 C651 1.490 . S
C656 C658 1.395 . S
C656 C659 1.403 . S
H657 C663 0.930 . S
C658 H644 0.930 . S
C658 C656 1.395 . S
C658 C661 1.403 . S
C659 C656 1.403 . S
C659 C660 1.524 . S
C659 C663 1.400 . S
C660 H645 0.960 . S
C660 H646 0.960 . S
C660 H647 0.960 . S
C660 C659 1.524 . S
C661 C658 1.403 . S
C661 C662 1.392 . S
C661 C665 1.495 . S
C662 C661 1.392 . S
C662 C663 1.385 . S
C662 C664 1.478 . S
C663 H657 0.930 . S
C663 C659 1.400 . S
C663 C662 1.385 . S
C664 C662 1.478 . S
C664 C666 1.381 . S
C664 C670 1.383 . S
C665 C661 1.495 . S
C665 H671 0.959 . S
C665 H672 0.961 . S
C665 H673 0.960 . S
C666 C664 1.381 . S
C666 C667 1.394 . S
C666 H674 0.930 . S
C667 C666 1.394 . S
C667 C668 1.383 . S
C667 H675 0.929 . S
C668 C667 1.383 . S
C668 C669 1.377 . S
C669 H653 0.930 . S
C669 C668 1.377 . S
C669 C670 1.379 . S
C670 H654 0.931 . S
C670 C664 1.383 . S
C670 C669 1.379 . S
H671 C665 0.959 . S
H672 C665 0.961 . S
H673 C665 0.960 . S
H674 C666 0.930 . S
H675 C667 0.929 . S
H676 C684 0.929 . S
H677 C686 0.930 . S
H678 C688 0.930 . S
H679 C691 0.929 . S
H680 C694 0.930 . S
H681 C696 0.960 . S
H682 C696 0.960 . S
H683 C696 0.960 . S
C684 H676 0.929 . S
C684 C685 1.377 . S
C684 C686 1.384 . S
C685 C684 1.377 . S
C685 C691 1.390 . S
C686 H677 0.930 . S
C686 C684 1.384 . S
C686 C687 1.372 . S
C687 C686 1.372 . S
C687 C688 1.400 . S
C687 C692 1.490 . S
C688 H678 0.930 . S
C688 C687 1.400 . S
C688 C691 1.386 . S
H689 C705 0.930 . S
H690 C706 0.931 . S
C691 H679 0.929 . S
C691 C685 1.390 . S
C691 C688 1.386 . S
C692 C687 1.490 . S
C692 C694 1.395 . S
C692 C695 1.403 . S
H693 C699 0.930 . S
C694 H680 0.930 . S
C694 C692 1.395 . S
C694 C697 1.403 . S
C695 C692 1.403 . S
C695 C696 1.524 . S
C695 C699 1.400 . S
C696 H681 0.960 . S
C696 H682 0.960 . S
C696 H683 0.960 . S
C696 C695 1.524 . S
C697 C694 1.403 . S
C697 C698 1.392 . S
C697 C701 1.495 . S
C698 C697 1.392 . S
C698 C699 1.385 . S
C698 C700 1.478 . S
C699 H693 0.930 . S
C699 C695 1.400 . S
C699 C698 1.385 . S
C700 C698 1.478 . S
C700 C702 1.381 . S
C700 C706 1.383 . S
C701 C697 1.495 . S
C701 H707 0.959 . S
C701 H708 0.961 . S
C701 H709 0.960 . S
C702 C700 1.381 . S
C702 C703 1.394 . S
C702 H710 0.930 . S
C703 C702 1.394 . S
C703 C704 1.383 . S
C703 H711 0.929 . S
C704 C703 1.383 . S
C704 C705 1.377 . S
C705 H689 0.930 . S
C705 C704 1.377 . S
C705 C706 1.379 . S
C706 H690 0.931 . S
C706 C700 1.383 . S
C706 C705 1.379 . S
H707 C701 0.959 . S
H708 C701 0.961 . S
H709 C701 0.960 . S
H710 C702 0.930 . S
H711 C703 0.929 . S
H712 C720 0.929 . S
H713 C722 0.930 . S
H714 C724 0.930 . S
H715 C727 0.929 . S
H716 C730 0.930 . S
H717 C732 0.960 . S
H718 C732 0.960 . S
H719 C732 0.960 . S
C720 H712 0.929 . S
C720 C721 1.377 . S
C720 C722 1.384 . S
C721 C720 1.377 . S
C721 C727 1.390 . S
C722 H713 0.930 . S
C722 C720 1.384 . S
C722 C723 1.372 . S
C723 C722 1.372 . S
C723 C724 1.400 . S
C723 C728 1.490 . S
C724 H714 0.930 . S
C724 C723 1.400 . S
C724 C727 1.386 . S
H725 C741 0.930 . S
H726 C742 0.931 . S
C727 H715 0.929 . S
C727 C721 1.390 . S
C727 C724 1.386 . S
C728 C723 1.490 . S
C728 C730 1.395 . S
C728 C731 1.403 . S
H729 C735 0.930 . S
C730 H716 0.930 . S
C730 C728 1.395 . S
C730 C733 1.403 . S
C731 C728 1.403 . S
C731 C732 1.524 . S
C731 C735 1.400 . S
C732 H717 0.960 . S
C732 H718 0.960 . S
C732 H719 0.960 . S
C732 C731 1.524 . S
C733 C730 1.403 . S
C733 C734 1.392 . S
C733 C737 1.495 . S
C734 C733 1.392 . S
C734 C735 1.385 . S
C734 C736 1.478 . S
C735 H729 0.930 . S
C735 C731 1.400 . S
C735 C734 1.385 . S
C736 C734 1.478 . S
C736 C738 1.381 . S
C736 C742 1.383 . S
C737 C733 1.495 . S
C737 H743 0.959 . S
C737 H744 0.961 . S
C737 H745 0.960 . S
C738 C736 1.381 . S
C738 C739 1.394 . S
C738 H746 0.930 . S
C739 C738 1.394 . S
C739 C740 1.383 . S
C739 H747 0.929 . S
C740 C739 1.383 . S
C740 C741 1.377 . S
C741 H725 0.930 . S
C741 C740 1.377 . S
C741 C742 1.379 . S
C742 H726 0.931 . S
C742 C736 1.383 . S
C742 C741 1.379 . S
H743 C737 0.959 . S
H744 C737 0.961 . S
H745 C737 0.960 . S
H746 C738 0.930 . S
H747 C739 0.929 . S
H748 C756 0.929 . S
H749 C758 0.930 . S
H750 C760 0.930 . S
H751 C763 0.929 . S
H752 C766 0.930 . S
H753 C768 0.960 . S
H754 C768 0.960 . S
H755 C768 0.960 . S
C756 H748 0.929 . S
C756 C757 1.377 . S
C756 C758 1.384 . S
C757 C756 1.377 . S
C757 C763 1.390 . S
C758 H749 0.930 . S
C758 C756 1.384 . S
C758 C759 1.372 . S
C759 C758 1.372 . S
C759 C760 1.400 . S
C759 C764 1.490 . S
C760 H750 0.930 . S
C760 C759 1.400 . S
C760 C763 1.386 . S
H761 C777 0.930 . S
H762 C778 0.931 . S
C763 H751 0.929 . S
C763 C757 1.390 . S
C763 C760 1.386 . S
C764 C759 1.490 . S
C764 C766 1.395 . S
C764 C767 1.403 . S
H765 C771 0.930 . S
C766 H752 0.930 . S
C766 C764 1.395 . S
C766 C769 1.403 . S
C767 C764 1.403 . S
C767 C768 1.524 . S
C767 C771 1.400 . S
C768 H753 0.960 . S
C768 H754 0.960 . S
C768 H755 0.960 . S
C768 C767 1.524 . S
C769 C766 1.403 . S
C769 C770 1.392 . S
C769 C773 1.495 . S
C770 C769 1.392 . S
C770 C771 1.385 . S
C770 C772 1.478 . S
C771 H765 0.930 . S
C771 C767 1.400 . S
C771 C770 1.385 . S
C772 C770 1.478 . S
C772 C774 1.381 . S
C772 C778 1.383 . S
C773 C769 1.495 . S
C773 H779 0.959 . S
C773 H780 0.961 . S
C773 H781 0.960 . S
C774 C772 1.381 . S
C774 C775 1.394 . S
C774 H782 0.930 . S
C775 C774 1.394 . S
C775 C776 1.383 . S
C775 H783 0.929 . S
C776 C775 1.383 . S
C776 C777 1.377 . S
C777 H761 0.930 . S
C777 C776 1.377 . S
C777 C778 1.379 . S
C778 H762 0.931 . S
C778 C772 1.383 . S
C778 C777 1.379 . S
H779 C773 0.959 . S
H780 C773 0.961 . S
H781 C773 0.960 . S
H782 C774 0.930 . S
H783 C775 0.929 . S
H784 C792 0.929 . S
H785 C794 0.930 . S
H786 C796 0.930 . S
H787 C799 0.929 . S
H788 C802 0.930 . S
H789 C804 0.960 . S
H790 C804 0.960 . S
H791 C804 0.960 . S
C792 H784 0.929 . S
C792 C793 1.377 . S
C792 C794 1.384 . S
C793 C792 1.377 . S
C793 C799 1.390 . S
C794 H785 0.930 . S
C794 C792 1.384 . S
C794 C795 1.372 . S
C795 C794 1.372 . S
C795 C796 1.400 . S
C795 C800 1.490 . S
C796 H786 0.930 . S
C796 C795 1.400 . S
C796 C799 1.386 . S
H797 C813 0.930 . S
H798 C814 0.931 . S
C799 H787 0.929 . S
C799 C793 1.390 . S
C799 C796 1.386 . S
C800 C795 1.490 . S
C800 C802 1.395 . S
C800 C803 1.403 . S
H801 C807 0.930 . S
C802 H788 0.930 . S
C802 C800 1.395 . S
C802 C805 1.403 . S
C803 C800 1.403 . S
C803 C804 1.524 . S
C803 C807 1.400 . S
C804 H789 0.960 . S
C804 H790 0.960 . S
C804 H791 0.960 . S
C804 C803 1.524 . S
C805 C802 1.403 . S
C805 C806 1.392 . S
C805 C809 1.495 . S
C806 C805 1.392 . S
C806 C807 1.385 . S
C806 C808 1.478 . S
C807 H801 0.930 . S
C807 C803 1.400 . S
C807 C806 1.385 . S
C808 C806 1.478 . S
C808 C810 1.381 . S
C808 C814 1.383 . S
C809 C805 1.495 . S
C809 H815 0.959 . S
C809 H816 0.961 . S
C809 H817 0.960 . S
C810 C808 1.381 . S
C810 C811 1.394 . S
C810 H818 0.930 . S
C811 C810 1.394 . S
C811 C812 1.383 . S
C811 H819 0.929 . S
C812 C811 1.383 . S
C812 C813 1.377 . S
C813 H797 0.930 . S
C813 C812 1.377 . S
C813 C814 1.379 . S
C814 H798 0.931 . S
C814 C808 1.383 . S
C814 C813 1.379 . S
H815 C809 0.959 . S
H816 C809 0.961 . S
H817 C809 0.960 . S
H818 C810 0.930 . S
H819 C811 0.929 . S
H820 C828 0.929 . S
H821 C830 0.930 . S
H822 C832 0.930 . S
H823 C835 0.929 . S
H824 C838 0.930 . S
H825 C840 0.960 . S
H826 C840 0.960 . S
H827 C840 0.960 . S
C828 H820 0.929 . S
C828 C829 1.377 . S
C828 C830 1.384 . S
C829 C828 1.377 . S
C829 C835 1.390 . S
C830 H821 0.930 . S
C830 C828 1.384 . S
C830 C831 1.372 . S
C831 C830 1.372 . S
C831 C832 1.400 . S
C831 C836 1.490 . S
C832 H822 0.930 . S
C832 C831 1.400 . S
C832 C835 1.386 . S
H833 C849 0.930 . S
H834 C850 0.931 . S
C835 H823 0.929 . S
C835 C829 1.390 . S
C835 C832 1.386 . S
C836 C831 1.490 . S
C836 C838 1.395 . S
C836 C839 1.403 . S
H837 C843 0.930 . S
C838 H824 0.930 . S
C838 C836 1.395 . S
C838 C841 1.403 . S
C839 C836 1.403 . S
C839 C840 1.524 . S
C839 C843 1.400 . S
C840 H825 0.960 . S
C840 H826 0.960 . S
C840 H827 0.960 . S
C840 C839 1.524 . S
C841 C838 1.403 . S
C841 C842 1.392 . S
C841 C845 1.495 . S
C842 C841 1.392 . S
C842 C843 1.385 . S
C842 C844 1.478 . S
C843 H837 0.930 . S
C843 C839 1.400 . S
C843 C842 1.385 . S
C844 C842 1.478 . S
C844 C846 1.381 . S
C844 C850 1.383 . S
C845 C841 1.495 . S
C845 H851 0.959 . S
C845 H852 0.961 . S
C845 H853 0.960 . S
C846 C844 1.381 . S
C846 C847 1.394 . S
C846 H854 0.930 . S
C847 C846 1.394 . S
C847 C848 1.383 . S
C847 H855 0.929 . S
C848 C847 1.383 . S
C848 C849 1.377 . S
C849 H833 0.930 . S
C849 C848 1.377 . S
C849 C850 1.379 . S
C850 H834 0.931 . S
C850 C844 1.383 . S
C850 C849 1.379 . S
H851 C845 0.959 . S
H852 C845 0.961 . S
H853 C845 0.960 . S
H854 C846 0.930 . S
H855 C847 0.929 . S
H856 C864 0.929 . S
H857 C866 0.930 . S
H858 C868 0.930 . S
H859 C871 0.929 . S
H860 C874 0.930 . S
H861 C876 0.960 . S
H862 C876 0.960 . S
H863 C876 0.960 . S
C864 H856 0.929 . S
C864 C865 1.377 . S
C864 C866 1.384 . S
C865 C864 1.377 . S
C865 C871 1.390 . S
C866 H857 0.930 . S
C866 C864 1.384 . S
C866 C867 1.372 . S
C867 C866 1.372 . S
C867 C868 1.400 . S
C867 C872 1.490 . S
C868 H858 0.930 . S
C868 C867 1.400 . S
C868 C871 1.386 . S
H869 C885 0.930 . S
H870 C886 0.931 . S
C871 H859 0.929 . S
C871 C865 1.390 . S
C871 C868 1.386 . S
C872 C867 1.490 . S
C872 C874 1.395 . S
C872 C875 1.403 . S
H873 C879 0.930 . S
C874 H860 0.930 . S
C874 C872 1.395 . S
C874 C877 1.403 . S
C875 C872 1.403 . S
C875 C876 1.524 . S
C875 C879 1.400 . S
C876 H861 0.960 . S
C876 H862 0.960 . S
C876 H863 0.960 . S
C876 C875 1.524 . S
C877 C874 1.403 . S
C877 C878 1.392 . S
C877 C881 1.495 . S
C878 C877 1.392 . S
C878 C879 1.385 . S
C878 C880 1.478 . S
C879 H873 0.930 . S
C879 C875 1.400 . S
C879 C878 1.385 . S
C880 C878 1.478 . S
C880 C882 1.381 . S
C880 C886 1.383 . S
C881 C877 1.495 . S
C881 H887 0.959 . S
C881 H888 0.961 . S
C881 H889 0.960 . S
C882 C880 1.381 . S
C882 C883 1.394 . S
C882 H890 0.930 . S
C883 C882 1.394 . S
C883 C884 1.383 . S
C883 H891 0.929 . S
C884 C883 1.383 . S
C884 C885 1.377 . S
C885 H869 0.930 . S
C885 C884 1.377 . S
C885 C886 1.379 . S
C886 H870 0.931 . S
C886 C880 1.383 . S
C886 C885 1.379 . S
H887 C881 0.959 . S
H888 C881 0.961 . S
H889 C881 0.960 . S
H890 C882 0.930 . S
H891 C883 0.929 . S
H892 C900 0.929 . S
H893 C902 0.930 . S
H894 C904 0.930 . S
H895 C907 0.929 . S
H896 C910 0.930 . S
H897 C912 0.960 . S
H898 C912 0.960 . S
H899 C912 0.960 . S
C900 H892 0.929 . S
C900 C901 1.377 . S
C900 C902 1.384 . S
C901 C900 1.377 . S
C901 C907 1.390 . S
C902 H893 0.930 . S
C902 C900 1.384 . S
C902 C903 1.372 . S
C903 C902 1.372 . S
C903 C904 1.400 . S
C903 C908 1.490 . S
C904 H894 0.930 . S
C904 C903 1.400 . S
C904 C907 1.386 . S
H905 C921 0.930 . S
H906 C922 0.931 . S
C907 H895 0.929 . S
C907 C901 1.390 . S
C907 C904 1.386 . S
C908 C903 1.490 . S
C908 C910 1.395 . S
C908 C911 1.403 . S
H909 C915 0.930 . S
C910 H896 0.930 . S
C910 C908 1.395 . S
C910 C913 1.403 . S
C911 C908 1.403 . S
C911 C912 1.524 . S
C911 C915 1.400 . S
C912 H897 0.960 . S
C912 H898 0.960 . S
C912 H899 0.960 . S
C912 C911 1.524 . S
C913 C910 1.403 . S
C913 C914 1.392 . S
C913 C917 1.495 . S
C914 C913 1.392 . S
C914 C915 1.385 . S
C914 C916 1.478 . S
C915 H909 0.930 . S
C915 C911 1.400 . S
C915 C914 1.385 . S
C916 C914 1.478 . S
C916 C918 1.381 . S
C916 C922 1.383 . S
C917 C913 1.495 . S
C917 H923 0.959 . S
C917 H924 0.961 . S
C917 H925 0.960 . S
C918 C916 1.381 . S
C918 C919 1.394 . S
C918 H926 0.930 . S
C919 C918 1.394 . S
C919 C920 1.383 . S
C919 H927 0.929 . S
C920 C919 1.383 . S
C920 C921 1.377 . S
C921 H905 0.930 . S
C921 C920 1.377 . S
C921 C922 1.379 . S
C922 H906 0.931 . S
C922 C916 1.383 . S
C922 C921 1.379 . S
H923 C917 0.959 . S
H924 C917 0.961 . S
H925 C917 0.960 . S
H926 C918 0.930 . S
H927 C919 0.929 . S
H928 C936 0.929 . S
H929 C938 0.930 . S
H930 C940 0.930 1_545 S
H931 C943 0.929 . S
H932 C946 0.930 . S
H933 C948 0.960 . S
H934 C948 0.960 . S
H935 C948 0.960 . S
C936 H928 0.929 . S
C936 C937 1.377 . S
C936 C938 1.384 . S
C937 C936 1.377 . S
C937 C943 1.390 . S
C938 H929 0.930 . S
C938 C936 1.384 . S
C938 C939 1.372 . S
C939 C938 1.372 . S
C939 C940 1.400 . S
C939 C944 1.490 . S
C940 H930 0.930 1_565 S
C940 C939 1.400 . S
C940 C943 1.386 . S
H941 C957 0.930 . S
H942 C958 0.931 . S
C943 H931 0.929 . S
C943 C937 1.390 . S
C943 C940 1.386 . S
C944 C939 1.490 . S
C944 C946 1.395 . S
C944 C947 1.403 1_565 S
H945 C951 0.930 . S
C946 H932 0.930 . S
C946 C944 1.395 . S
C946 C949 1.403 . S
C947 C944 1.403 1_545 S
C947 C948 1.524 . S
C947 C951 1.400 . S
C948 H933 0.960 . S
C948 H934 0.960 . S
C948 H935 0.960 . S
C948 C947 1.524 . S
C949 C946 1.403 . S
C949 C950 1.392 1_565 S
C949 C953 1.495 . S
C950 C949 1.392 1_545 S
C950 C951 1.385 . S
C950 C952 1.478 . S
C951 H945 0.930 . S
C951 C947 1.400 . S
C951 C950 1.385 . S
C952 C950 1.478 . S
C952 C954 1.389 . S
C952 C958 1.383 . S
C953 C949 1.495 . S
C953 H959 0.959 . S
C953 H960 0.961 . S
C953 H961 0.960 . S
C954 C952 1.389 . S
C954 C955 1.401 . S
C954 H962 0.916 1_545 S
C955 C954 1.401 . S
C955 C956 1.383 . S
C955 H963 0.929 . S
C956 C955 1.383 . S
C956 C957 1.377 . S
C957 H941 0.930 . S
C957 C956 1.377 . S
C957 C958 1.379 . S
C958 H942 0.931 . S
C958 C952 1.383 . S
C958 C957 1.379 . S
H959 C953 0.959 . S
H960 C953 0.961 . S
H961 C953 0.960 . S
H962 C954 0.916 1_565 S
H963 C955 0.929 . S
H964 C972 0.929 . S
H965 C974 0.930 . S
H966 C976 0.930 . S
H967 C979 0.929 . S
H968 C982 0.930 . S
H969 C984 0.960 . S
H970 C984 0.960 . S
H971 C984 0.960 . S
C972 H964 0.929 . S
C972 C973 1.377 . S
C972 C974 1.384 . S
C973 C972 1.377 . S
C973 C979 1.390 . S
C974 H965 0.930 . S
C974 C972 1.384 . S
C974 C975 1.372 . S
C975 C974 1.372 . S
C975 C976 1.400 . S
C975 C980 1.490 . S
C976 H966 0.930 . S
C976 C975 1.400 . S
C976 C979 1.386 . S
H977 C993 0.930 . S
H978 C994 0.931 . S
C979 H967 0.929 . S
C979 C973 1.390 . S
C979 C976 1.386 . S
C980 C975 1.490 . S
C980 C982 1.395 1_545 S
C980 C983 1.403 . S
H981 C987 0.930 . S
C982 H968 0.930 . S
C982 C980 1.395 1_565 S
C982 C985 1.403 . S
C983 C980 1.403 . S
C983 C984 1.524 . S
C983 C987 1.400 . S
C984 H969 0.960 . S
C984 H970 0.960 . S
C984 H971 0.960 . S
C984 C983 1.524 . S
C985 C982 1.403 . S
C985 C986 1.392 . S
C985 C989 1.495 . S
C986 C985 1.392 . S
C986 C987 1.385 1_565 S
C986 C988 1.478 . S
C987 H981 0.930 . S
C987 C983 1.400 . S
C987 C986 1.385 1_545 S
C988 C986 1.478 . S
C988 C990 1.381 . S
C988 C994 1.383 . S
C989 C985 1.495 . S
C989 H995 0.959 . S
C989 H996 0.961 . S
C989 H997 0.960 . S
C990 C988 1.381 . S
C990 C991 1.394 . S
C990 H998 0.930 . S
C991 C990 1.394 . S
C991 C992 1.383 . S
C991 H999 0.929 . S
C992 C991 1.383 . S
C992 C993 1.377 . S
C993 H977 0.930 . S
C993 C992 1.377 . S
C993 C994 1.379 . S
C994 H978 0.931 . S
C994 C988 1.383 . S
C994 C993 1.379 . S
H995 C989 0.959 . S
H996 C989 0.961 . S
H997 C989 0.960 . S
H998 C990 0.930 . S
H999 C991 0.929 . S
H1000 C1008 0.929 . S
H1001 C1010 0.930 . S
H1002 C1012 0.930 . S
H1003 C1015 0.929 . S
H1004 C1018 0.930 . S
H1005 C1020 0.960 . S
H1006 C1020 0.960 . S
H1007 C1020 0.960 . S
C1008 H1000 0.929 . S
C1008 C1009 1.377 . S
C1008 C1010 1.384 . S
C1009 C1008 1.377 . S
C1009 C1015 1.390 . S
C1010 H1001 0.930 . S
C1010 C1008 1.384 . S
C1010 C1011 1.372 . S
C1011 C1010 1.372 . S
C1011 C1012 1.400 . S
C1011 C1016 1.490 . S
C1012 H1002 0.930 . S
C1012 C1011 1.400 . S
C1012 C1015 1.386 . S
H1013 C1029 0.930 . S
H1014 C1030 0.931 1_545 S
C1015 H1003 0.929 . S
C1015 C1009 1.390 . S
C1015 C1012 1.386 . S
C1016 C1011 1.490 . S
C1016 C1018 1.395 . S
C1016 C1019 1.403 1_545 S
H1017 C1023 0.930 . S
C1018 H1004 0.930 . S
C1018 C1016 1.395 . S
C1018 C1021 1.403 . S
C1019 C1016 1.403 1_565 S
C1019 C1020 1.524 . S
C1019 C1023 1.400 . S
C1020 H1005 0.960 . S
C1020 H1006 0.960 . S
C1020 H1007 0.960 . S
C1020 C1019 1.524 . S
C1021 C1018 1.403 . S
C1021 C1022 1.392 1_545 S
C1021 C1025 1.495 . S
C1022 C1021 1.392 1_565 S
C1022 C1023 1.385 . S
C1022 C1024 1.478 . S
C1023 H1017 0.930 . S
C1023 C1019 1.400 . S
C1023 C1022 1.385 . S
C1024 C1022 1.478 . S
C1024 C1026 1.381 . S
C1024 C1030 1.383 . S
C1025 C1021 1.495 . S
C1025 H1031 0.959 . S
C1025 H1032 0.961 . S
C1025 H1033 0.960 . S
C1026 C1024 1.381 . S
C1026 C1027 1.394 . S
C1026 H1034 0.930 . S
C1027 C1026 1.394 . S
C1027 C1028 1.383 . S
C1027 H1035 0.929 . S
C1028 C1027 1.383 . S
C1028 C1029 1.377 . S
C1029 H1013 0.930 . S
C1029 C1028 1.377 . S
C1029 C1030 1.379 . S
C1030 H1014 0.931 1_565 S
C1030 C1024 1.383 . S
C1030 C1029 1.379 . S
H1031 C1025 0.959 . S
H1032 C1025 0.961 . S
H1033 C1025 0.960 . S
H1034 C1026 0.930 . S
H1035 C1027 0.929 . S
H1036 C1044 0.929 . S
H1037 C1046 0.923 1_565 S
H1038 C1048 0.930 . S
H1039 C1051 0.929 . S
H1040 C1054 0.930 . S
H1041 C1056 0.960 . S
H1042 C1056 0.960 . S
H1043 C1056 0.960 . S
C1044 H1036 0.929 . S
C1044 C1045 1.377 . S
C1044 C1046 1.384 . S
C1045 C1044 1.377 . S
C1045 C1051 1.390 . S
C1046 H1037 0.923 1_545 S
C1046 C1044 1.384 . S
C1046 C1047 1.372 . S
C1047 C1046 1.372 . S
C1047 C1048 1.400 . S
C1047 C1052 1.490 . S
C1048 H1038 0.930 . S
C1048 C1047 1.400 . S
C1048 C1051 1.386 . S
H1049 C1065 0.930 . S
H1050 C1066 0.931 1_545 S
C1051 H1039 0.929 . S
C1051 C1045 1.390 . S
C1051 C1048 1.386 . S
C1052 C1047 1.490 . S
C1052 C1054 1.395 . S
C1052 C1055 1.403 1_545 S
H1053 C1059 0.930 . S
C1054 H1040 0.930 . S
C1054 C1052 1.395 . S
C1054 C1057 1.403 . S
C1055 C1052 1.403 1_565 S
C1055 C1056 1.524 . S
C1055 C1059 1.400 . S
C1056 H1041 0.960 . S
C1056 H1042 0.960 . S
C1056 H1043 0.960 . S
C1056 C1055 1.524 . S
C1057 C1054 1.403 . S
C1057 C1058 1.392 1_545 S
C1057 C1061 1.495 . S
C1058 C1057 1.392 1_565 S
C1058 C1059 1.385 . S
C1058 C1060 1.478 . S
C1059 H1053 0.930 . S
C1059 C1055 1.400 . S
C1059 C1058 1.385 . S
C1060 C1058 1.478 . S
C1060 C1062 1.381 . S
C1060 C1066 1.383 . S
C1061 C1057 1.495 . S
C1061 H1067 0.959 . S
C1061 H1068 0.961 . S
C1061 H1069 0.960 . S
C1062 C1060 1.381 . S
C1062 C1063 1.394 . S
C1062 H1070 0.930 . S
C1063 C1062 1.394 . S
C1063 C1064 1.383 . S
C1063 H1071 0.929 . S
C1064 C1063 1.383 . S
C1064 C1065 1.377 . S
C1065 H1049 0.930 . S
C1065 C1064 1.377 . S
C1065 C1066 1.379 . S
C1066 H1050 0.931 1_565 S
C1066 C1060 1.383 . S
C1066 C1065 1.379 . S
H1067 C1061 0.959 . S
H1068 C1061 0.961 . S
H1069 C1061 0.960 . S
H1070 C1062 0.930 . S
H1071 C1063 0.929 . S
H1072 C1080 0.929 . S
H1073 C1082 0.930 . S
H1074 C1084 0.930 . S
H1075 C1087 0.929 . S
H1076 C1090 0.930 . S
H1077 C1092 0.960 . S
H1078 C1092 0.960 . S
H1079 C1092 0.960 . S
C1080 H1072 0.929 . S
C1080 C1081 1.377 . S
C1080 C1082 1.384 . S
C1081 C1080 1.377 . S
C1081 C1087 1.390 . S
C1082 H1073 0.930 . S
C1082 C1080 1.384 . S
C1082 C1083 1.372 . S
C1083 C1082 1.372 . S
C1083 C1084 1.400 . S
C1083 C1088 1.490 . S
C1084 H1074 0.930 . S
C1084 C1083 1.400 . S
C1084 C1087 1.386 . S
H1085 C1101 0.930 . S
H1086 C1102 0.931 . S
C1087 H1075 0.929 . S
C1087 C1081 1.390 . S
C1087 C1084 1.386 . S
C1088 C1083 1.490 . S
C1088 C1090 1.395 . S
C1088 C1091 1.403 . S
H1089 C1095 0.930 . S
C1090 H1076 0.930 . S
C1090 C1088 1.395 . S
C1090 C1093 1.403 . S
C1091 C1088 1.403 . S
C1091 C1092 1.524 . S
C1091 C1095 1.400 . S
C1092 H1077 0.960 . S
C1092 H1078 0.960 . S
C1092 H1079 0.960 . S
C1092 C1091 1.524 . S
C1093 C1090 1.403 . S
C1093 C1094 1.392 . S
C1093 C1097 1.495 . S
C1094 C1093 1.392 . S
C1094 C1095 1.385 . S
C1094 C1096 1.478 . S
C1095 H1089 0.930 . S
C1095 C1091 1.400 . S
C1095 C1094 1.385 . S
C1096 C1094 1.478 . S
C1096 C1098 1.381 . S
C1096 C1102 1.383 . S
C1097 C1093 1.495 . S
C1097 H1103 0.959 . S
C1097 H1104 0.961 . S
C1097 H1105 0.960 . S
C1098 C1096 1.381 . S
C1098 C1099 1.394 . S
C1098 H1106 0.930 . S
C1099 C1098 1.394 . S
C1099 C1100 1.383 . S
C1099 H1107 0.929 . S
C1100 C1099 1.383 . S
C1100 C1101 1.377 . S
C1101 H1085 0.930 . S
C1101 C1100 1.377 . S
C1101 C1102 1.379 . S
C1102 H1086 0.931 . S
C1102 C1096 1.383 . S
C1102 C1101 1.379 . S
H1103 C1097 0.959 . S
H1104 C1097 0.961 . S
H1105 C1097 0.960 . S
H1106 C1098 0.930 . S
H1107 C1099 0.929 . S
H1108 C1116 0.929 . S
H1109 C1118 0.930 . S
H1110 C1120 0.930 . S
H1111 C1123 0.929 . S
H1112 C1126 0.930 . S
H1113 C1128 0.960 . S
H1114 C1128 0.960 . S
H1115 C1128 0.960 . S
C1116 H1108 0.929 . S
C1116 C1117 1.377 . S
C1116 C1118 1.384 . S
C1117 C1116 1.377 . S
C1117 C1123 1.390 . S
C1118 H1109 0.930 . S
C1118 C1116 1.384 . S
C1118 C1119 1.372 . S
C1119 C1118 1.372 . S
C1119 C1120 1.400 . S
C1119 C1124 1.490 . S
C1120 H1110 0.930 . S
C1120 C1119 1.400 . S
C1120 C1123 1.386 . S
H1121 C1137 0.930 . S
H1122 C1138 0.931 . S
C1123 H1111 0.929 . S
C1123 C1117 1.390 . S
C1123 C1120 1.386 . S
C1124 C1119 1.490 . S
C1124 C1126 1.395 . S
C1124 C1127 1.403 . S
H1125 C1131 0.930 . S
C1126 H1112 0.930 . S
C1126 C1124 1.395 . S
C1126 C1129 1.403 . S
C1127 C1124 1.403 . S
C1127 C1128 1.524 . S
C1127 C1131 1.400 . S
C1128 H1113 0.960 . S
C1128 H1114 0.960 . S
C1128 H1115 0.960 . S
C1128 C1127 1.524 . S
C1129 C1126 1.403 . S
C1129 C1130 1.392 . S
C1129 C1133 1.495 . S
C1130 C1129 1.392 . S
C1130 C1131 1.385 . S
C1130 C1132 1.478 . S
C1131 H1125 0.930 . S
C1131 C1127 1.400 . S
C1131 C1130 1.385 . S
C1132 C1130 1.478 . S
C1132 C1134 1.381 . S
C1132 C1138 1.383 . S
C1133 C1129 1.495 . S
C1133 H1139 0.959 . S
C1133 H1140 0.961 . S
C1133 H1141 0.960 . S
C1134 C1132 1.381 . S
C1134 C1135 1.394 . S
C1134 H1142 0.930 . S
C1135 C1134 1.394 . S
C1135 C1136 1.383 . S
C1135 H1143 0.929 . S
C1136 C1135 1.383 . S
C1136 C1137 1.377 . S
C1137 H1121 0.930 . S
C1137 C1136 1.377 . S
C1137 C1138 1.379 . S
C1138 H1122 0.931 . S
C1138 C1132 1.383 . S
C1138 C1137 1.379 . S
H1139 C1133 0.959 . S
H1140 C1133 0.961 . S
H1141 C1133 0.960 . S
H1142 C1134 0.930 . S
H1143 C1135 0.929 . S
H1144 C1152 0.929 . S
H1145 C1154 0.930 . S
H1146 C1156 0.930 . S
H1147 C1159 0.929 . S
H1148 C1162 0.930 . S
H1149 C1164 0.960 . S
H1150 C1164 0.960 . S
H1151 C1164 0.960 . S
C1152 H1144 0.929 . S
C1152 C1153 1.377 . S
C1152 C1154 1.384 . S
C1153 C1152 1.377 . S
C1153 C1159 1.390 . S
C1154 H1145 0.930 . S
C1154 C1152 1.384 . S
C1154 C1155 1.372 . S
C1155 C1154 1.372 . S
C1155 C1156 1.400 . S
C1155 C1160 1.490 . S
C1156 H1146 0.930 . S
C1156 C1155 1.400 . S
C1156 C1159 1.386 . S
H1157 C1173 0.930 . S
H1158 C1174 0.931 . S
C1159 H1147 0.929 . S
C1159 C1153 1.390 . S
C1159 C1156 1.386 . S
C1160 C1155 1.490 . S
C1160 C1162 1.395 . S
C1160 C1163 1.403 . S
H1161 C1167 0.930 . S
C1162 H1148 0.930 . S
C1162 C1160 1.395 . S
C1162 C1165 1.403 . S
C1163 C1160 1.403 . S
C1163 C1164 1.524 . S
C1163 C1167 1.400 . S
C1164 H1149 0.960 . S
C1164 H1150 0.960 . S
C1164 H1151 0.960 . S
C1164 C1163 1.524 . S
C1165 C1162 1.403 . S
C1165 C1166 1.392 . S
C1165 C1169 1.495 . S
C1166 C1165 1.392 . S
C1166 C1167 1.385 . S
C1166 C1168 1.478 . S
C1167 H1161 0.930 . S
C1167 C1163 1.400 . S
C1167 C1166 1.385 . S
C1168 C1166 1.478 . S
C1168 C1170 1.381 . S
C1168 C1174 1.383 . S
C1169 C1165 1.495 . S
C1169 H1175 0.959 . S
C1169 H1176 0.961 . S
C1169 H1177 0.960 . S
C1170 C1168 1.381 . S
C1170 C1171 1.394 . S
C1170 H1178 0.930 . S
C1171 C1170 1.394 . S
C1171 C1172 1.383 . S
C1171 H1179 0.929 . S
C1172 C1171 1.383 . S
C1172 C1173 1.377 . S
C1173 H1157 0.930 . S
C1173 C1172 1.377 . S
C1173 C1174 1.379 . S
C1174 H1158 0.931 . S
C1174 C1168 1.383 . S
C1174 C1173 1.379 . S
H1175 C1169 0.959 . S
H1176 C1169 0.961 . S
H1177 C1169 0.960 . S
H1178 C1170 0.930 . S
H1179 C1171 0.929 . S
H1180 C1188 0.929 . S
H1181 C1190 0.930 . S
H1182 C1192 0.930 . S
H1183 C1195 0.929 . S
H1184 C1198 0.930 . S
H1185 C1200 0.960 . S
H1186 C1200 0.960 . S
H1187 C1200 0.960 . S
C1188 H1180 0.929 . S
C1188 C1189 1.377 . S
C1188 C1190 1.384 . S
C1189 C1188 1.377 . S
C1189 C1195 1.390 . S
C1190 H1181 0.930 . S
C1190 C1188 1.384 . S
C1190 C1191 1.372 . S
C1191 C1190 1.372 . S
C1191 C1192 1.400 . S
C1191 C1196 1.490 . S
C1192 H1182 0.930 . S
C1192 C1191 1.400 . S
C1192 C1195 1.386 . S
H1193 C1209 0.930 . S
H1194 C1210 0.931 . S
C1195 H1183 0.929 . S
C1195 C1189 1.390 . S
C1195 C1192 1.386 . S
C1196 C1191 1.490 . S
C1196 C1198 1.395 . S
C1196 C1199 1.403 . S
H1197 C1203 0.930 . S
C1198 H1184 0.930 . S
C1198 C1196 1.395 . S
C1198 C1201 1.403 . S
C1199 C1196 1.403 . S
C1199 C1200 1.524 . S
C1199 C1203 1.400 . S
C1200 H1185 0.960 . S
C1200 H1186 0.960 . S
C1200 H1187 0.960 . S
C1200 C1199 1.524 . S
C1201 C1198 1.403 . S
C1201 C1202 1.392 . S
C1201 C1205 1.495 . S
C1202 C1201 1.392 . S
C1202 C1203 1.385 . S
C1202 C1204 1.478 . S
C1203 H1197 0.930 . S
C1203 C1199 1.400 . S
C1203 C1202 1.385 . S
C1204 C1202 1.478 . S
C1204 C1206 1.381 . S
C1204 C1210 1.383 . S
C1205 C1201 1.495 . S
C1205 H1211 0.959 . S
C1205 H1212 0.961 . S
C1205 H1213 0.960 . S
C1206 C1204 1.381 . S
C1206 C1207 1.394 . S
C1206 H1214 0.930 . S
C1207 C1206 1.394 . S
C1207 C1208 1.383 . S
C1207 H1215 0.929 . S
C1208 C1207 1.383 . S
C1208 C1209 1.377 . S
C1209 H1193 0.930 . S
C1209 C1208 1.377 . S
C1209 C1210 1.379 . S
C1210 H1194 0.931 . S
C1210 C1204 1.383 . S
C1210 C1209 1.379 . S
H1211 C1205 0.959 . S
H1212 C1205 0.961 . S
H1213 C1205 0.960 . S
H1214 C1206 0.930 . S
H1215 C1207 0.929 . S
H1216 C1224 0.929 . S
H1217 C1226 0.930 . S
H1218 C1228 0.930 . S
H1219 C1231 0.929 . S
H1220 C1234 0.930 . S
H1221 C1236 0.960 1_565 S
H1222 C1236 0.960 1_565 S
H1223 C1236 0.960 . S
C1224 H1216 0.929 . S
C1224 C1225 1.377 . S
C1224 C1226 1.384 . S
C1225 C1224 1.377 . S
C1225 C1231 1.390 . S
C1226 H1217 0.930 . S
C1226 C1224 1.384 . S
C1226 C1227 1.372 . S
C1227 C1226 1.372 . S
C1227 C1228 1.400 . S
C1227 C1232 1.490 . S
C1228 H1218 0.930 . S
C1228 C1227 1.400 . S
C1228 C1231 1.386 . S
H1229 C1245 0.930 . S
H1230 C1246 0.931 . S
C1231 H1219 0.929 . S
C1231 C1225 1.390 . S
C1231 C1228 1.386 . S
C1232 C1227 1.490 . S
C1232 C1234 1.395 . S
C1232 C1235 1.403 . S
H1233 C1239 0.930 . S
C1234 H1220 0.930 . S
C1234 C1232 1.395 . S
C1234 C1237 1.403 1_556 S
C1235 C1232 1.403 . S
C1235 C1236 1.524 . S
C1235 C1239 1.400 1_556 S
C1236 H1221 0.960 1_545 S
C1236 H1222 0.960 1_545 S
C1236 H1223 0.960 . S
C1236 C1235 1.524 . S
C1237 C1234 1.403 1_554 S
C1237 C1238 1.392 . S
C1237 C1241 1.495 . S
C1238 C1237 1.392 . S
C1238 C1239 1.385 . S
C1238 C1240 1.478 . S
C1239 H1233 0.930 . S
C1239 C1235 1.400 1_554 S
C1239 C1238 1.385 . S
C1240 C1238 1.478 . S
C1240 C1242 1.381 . S
C1240 C1246 1.383 . S
C1241 C1237 1.495 . S
C1241 H1247 0.959 . S
C1241 H1248 0.961 . S
C1241 H1249 0.960 . S
C1242 C1240 1.381 . S
C1242 C1243 1.394 . S
C1242 H1250 0.930 . S
C1243 C1242 1.394 . S
C1243 C1244 1.383 . S
C1243 H1251 0.929 . S
C1244 C1243 1.383 . S
C1244 C1245 1.377 . S
C1245 H1229 0.930 . S
C1245 C1244 1.377 . S
C1245 C1246 1.379 . S
C1246 H1230 0.931 . S
C1246 C1240 1.383 . S
C1246 C1245 1.379 . S
H1247 C1241 0.959 . S
H1248 C1241 0.961 . S
H1249 C1241 0.960 . S
H1250 C1242 0.930 . S
H1251 C1243 0.929 . S
H1252 C1260 0.929 . S
H1253 C1262 0.930 . S
H1254 C1264 0.930 . S
H1255 C1267 0.929 . S
H1256 C1270 0.930 . S
H1257 C1272 0.960 . S
H1258 C1272 0.960 . S
H1259 C1272 0.960 . S
C1260 H1252 0.929 . S
C1260 C1261 1.377 . S
C1260 C1262 1.384 . S
C1261 C1260 1.377 . S
C1261 C1267 1.390 . S
C1262 H1253 0.930 . S
C1262 C1260 1.384 . S
C1262 C1263 1.372 . S
C1263 C1262 1.372 . S
C1263 C1264 1.400 . S
C1263 C1268 1.490 . S
C1264 H1254 0.930 . S
C1264 C1263 1.400 . S
C1264 C1267 1.386 . S
H1265 C1281 0.930 . S
H1266 C1282 0.931 . S
C1267 H1255 0.929 . S
C1267 C1261 1.390 . S
C1267 C1264 1.386 . S
C1268 C1263 1.490 . S
C1268 C1270 1.395 . S
C1268 C1271 1.403 . S
H1269 C1275 0.930 . S
C1270 H1256 0.930 . S
C1270 C1268 1.395 . S
C1270 C1273 1.403 1_556 S
C1271 C1268 1.403 . S
C1271 C1272 1.524 . S
C1271 C1275 1.400 1_556 S
C1272 H1257 0.960 . S
C1272 H1258 0.960 . S
C1272 H1259 0.960 . S
C1272 C1271 1.524 . S
C1273 C1270 1.403 1_554 S
C1273 C1274 1.392 . S
C1273 C1277 1.495 . S
C1274 C1273 1.392 . S
C1274 C1275 1.385 . S
C1274 C1276 1.478 . S
C1275 H1269 0.930 . S
C1275 C1271 1.400 1_554 S
C1275 C1274 1.385 . S
C1276 C1274 1.478 . S
C1276 C1278 1.381 . S
C1276 C1282 1.383 . S
C1277 C1273 1.495 . S
C1277 H1283 0.959 . S
C1277 H1284 0.961 . S
C1277 H1285 0.960 . S
C1278 C1276 1.381 . S
C1278 C1279 1.394 . S
C1278 H1286 0.930 . S
C1279 C1278 1.394 . S
C1279 C1280 1.383 . S
C1279 H1287 0.929 . S
C1280 C1279 1.383 . S
C1280 C1281 1.377 . S
C1281 H1265 0.930 . S
C1281 C1280 1.377 . S
C1281 C1282 1.379 . S
C1282 H1266 0.931 . S
C1282 C1276 1.383 . S
C1282 C1281 1.379 . S
H1283 C1277 0.959 . S
H1284 C1277 0.961 . S
H1285 C1277 0.960 . S
H1286 C1278 0.930 . S
H1287 C1279 0.929 . S
H1288 C1296 0.929 . S
H1289 C1298 0.930 . S
H1290 C1300 0.930 . S
H1291 C1303 0.929 . S
H1292 C1306 0.930 . S
H1293 C1308 0.960 . S
H1294 C1308 0.960 . S
H1295 C1308 0.960 . S
C1296 H1288 0.929 . S
C1296 C1297 1.377 . S
C1296 C1298 1.384 . S
C1297 C1296 1.377 . S
C1297 C1303 1.390 . S
C1298 H1289 0.930 . S
C1298 C1296 1.384 . S
C1298 C1299 1.372 . S
C1299 C1298 1.372 . S
C1299 C1300 1.400 . S
C1299 C1304 1.490 . S
C1300 H1290 0.930 . S
C1300 C1299 1.400 . S
C1300 C1303 1.386 . S
H1301 C1317 0.930 . S
H1302 C1318 0.931 . S
C1303 H1291 0.929 . S
C1303 C1297 1.390 . S
C1303 C1300 1.386 . S
C1304 C1299 1.490 . S
C1304 C1306 1.395 . S
C1304 C1307 1.403 . S
H1305 C1311 0.930 . S
C1306 H1292 0.930 . S
C1306 C1304 1.395 . S
C1306 C1309 1.403 . S
C1307 C1304 1.403 . S
C1307 C1308 1.524 . S
C1307 C1311 1.400 . S
C1308 H1293 0.960 . S
C1308 H1294 0.960 . S
C1308 H1295 0.960 . S
C1308 C1307 1.524 . S
C1309 C1306 1.403 . S
C1309 C1310 1.392 . S
C1309 C1313 1.495 . S
C1310 C1309 1.392 . S
C1310 C1311 1.385 . S
C1310 C1312 1.478 . S
C1311 H1305 0.930 . S
C1311 C1307 1.400 . S
C1311 C1310 1.385 . S
C1312 C1310 1.478 . S
C1312 C1314 1.381 . S
C1312 C1318 1.383 . S
C1313 C1309 1.495 . S
C1313 H1319 0.959 . S
C1313 H1320 0.961 . S
C1313 H1321 0.960 . S
C1314 C1312 1.381 . S
C1314 C1315 1.394 . S
C1314 H1322 0.930 . S
C1315 C1314 1.394 . S
C1315 C1316 1.383 . S
C1315 H1323 0.929 . S
C1316 C1315 1.383 . S
C1316 C1317 1.377 . S
C1317 H1301 0.930 . S
C1317 C1316 1.377 . S
C1317 C1318 1.379 . S
C1318 H1302 0.931 . S
C1318 C1312 1.383 . S
C1318 C1317 1.379 . S
H1319 C1313 0.959 . S
H1320 C1313 0.961 . S
H1321 C1313 0.960 . S
H1322 C1314 0.930 . S
H1323 C1315 0.929 . S
H1324 C1332 0.929 . S
H1325 C1334 0.930 . S
H1326 C1336 0.930 . S
H1327 C1339 0.929 . S
H1328 C1342 0.930 . S
H1329 C1344 0.960 1_565 S
H1330 C1344 0.960 . S
H1331 C1344 0.960 1_565 S
C1332 H1324 0.929 . S
C1332 C1333 1.377 . S
C1332 C1334 1.384 . S
C1333 C1332 1.377 . S
C1333 C1339 1.390 . S
C1334 H1325 0.930 . S
C1334 C1332 1.384 . S
C1334 C1335 1.372 . S
C1335 C1334 1.372 . S
C1335 C1336 1.400 . S
C1335 C1340 1.490 . S
C1336 H1326 0.930 . S
C1336 C1335 1.400 . S
C1336 C1339 1.386 . S
H1337 C1353 0.930 . S
H1338 C1354 0.931 . S
C1339 H1327 0.929 . S
C1339 C1333 1.390 . S
C1339 C1336 1.386 . S
C1340 C1335 1.490 . S
C1340 C1342 1.395 . S
C1340 C1343 1.403 . S
H1341 C1347 0.930 . S
C1342 H1328 0.930 . S
C1342 C1340 1.395 . S
C1342 C1345 1.403 . S
C1343 C1340 1.403 . S
C1343 C1344 1.524 . S
C1343 C1347 1.400 . S
C1344 H1329 0.960 1_545 S
C1344 H1330 0.960 . S
C1344 H1331 0.960 1_545 S
C1344 C1343 1.524 . S
C1345 C1342 1.403 . S
C1345 C1346 1.392 . S
C1345 C1349 1.495 . S
C1346 C1345 1.392 . S
C1346 C1347 1.385 . S
C1346 C1348 1.478 . S
C1347 H1341 0.930 . S
C1347 C1343 1.400 . S
C1347 C1346 1.385 . S
C1348 C1346 1.478 . S
C1348 C1350 1.381 . S
C1348 C1354 1.383 . S
C1349 C1345 1.495 . S
C1349 H1355 0.959 . S
C1349 H1356 0.961 . S
C1349 H1357 0.960 . S
C1350 C1348 1.381 . S
C1350 C1351 1.394 . S
C1350 H1358 0.930 . S
C1351 C1350 1.394 . S
C1351 C1352 1.383 . S
C1351 H1359 0.929 . S
C1352 C1351 1.383 . S
C1352 C1353 1.377 . S
C1353 H1337 0.930 . S
C1353 C1352 1.377 . S
C1353 C1354 1.379 . S
C1354 H1338 0.931 . S
C1354 C1348 1.383 . S
C1354 C1353 1.379 . S
H1355 C1349 0.959 . S
H1356 C1349 0.961 . S
H1357 C1349 0.960 . S
H1358 C1350 0.930 . S
H1359 C1351 0.929 . S
H1360 C1368 0.929 . S
H1361 C1370 0.930 . S
H1362 C1372 0.930 . S
H1363 C1375 0.929 . S
H1364 C1378 0.930 . S
H1365 C1380 0.960 . S
H1366 C1380 0.960 . S
H1367 C1380 0.960 . S
C1368 H1360 0.929 . S
C1368 C1369 1.377 . S
C1368 C1370 1.384 . S
C1369 C1368 1.377 . S
C1369 C1375 1.390 . S
C1370 H1361 0.930 . S
C1370 C1368 1.384 . S
C1370 C1371 1.372 . S
C1371 C1370 1.372 . S
C1371 C1372 1.400 . S
C1371 C1376 1.490 . S
C1372 H1362 0.930 . S
C1372 C1371 1.400 . S
C1372 C1375 1.386 . S
H1373 C1389 0.930 . S
H1374 C1390 0.931 . S
C1375 H1363 0.929 . S
C1375 C1369 1.390 . S
C1375 C1372 1.386 . S
C1376 C1371 1.490 . S
C1376 C1378 1.395 . S
C1376 C1379 1.403 . S
H1377 C1383 0.930 . S
C1378 H1364 0.930 . S
C1378 C1376 1.395 . S
C1378 C1381 1.403 1_554 S
C1379 C1376 1.403 . S
C1379 C1380 1.524 . S
C1379 C1383 1.400 1_554 S
C1380 H1365 0.960 . S
C1380 H1366 0.960 . S
C1380 H1367 0.960 . S
C1380 C1379 1.524 . S
C1381 C1378 1.403 1_556 S
C1381 C1382 1.392 . S
C1381 C1385 1.495 . S
C1382 C1381 1.392 . S
C1382 C1383 1.385 . S
C1382 C1384 1.478 . S
C1383 H1377 0.930 . S
C1383 C1379 1.400 1_556 S
C1383 C1382 1.385 . S
C1384 C1382 1.478 . S
C1384 C1386 1.381 . S
C1384 C1390 1.383 . S
C1385 C1381 1.495 . S
C1385 H1391 0.959 . S
C1385 H1392 0.961 . S
C1385 H1393 0.960 . S
C1386 C1384 1.381 . S
C1386 C1387 1.394 . S
C1386 H1394 0.930 . S
C1387 C1386 1.394 . S
C1387 C1388 1.383 . S
C1387 H1395 0.929 . S
C1388 C1387 1.383 . S
C1388 C1389 1.377 . S
C1389 H1373 0.930 . S
C1389 C1388 1.377 . S
C1389 C1390 1.379 . S
C1390 H1374 0.931 . S
C1390 C1384 1.383 . S
C1390 C1389 1.379 . S
H1391 C1385 0.959 . S
H1392 C1385 0.961 . S
H1393 C1385 0.960 . S
H1394 C1386 0.930 . S
H1395 C1387 0.929 . S
H1396 C1404 0.929 . S
H1397 C1406 0.930 . S
H1398 C1408 0.930 . S
H1399 C1411 0.929 . S
H1400 C1414 0.930 . S
H1401 C1416 0.960 . S
H1402 C1416 0.960 . S
H1403 C1416 0.960 . S
C1404 H1396 0.929 . S
C1404 C1405 1.377 . S
C1404 C1406 1.384 . S
C1405 C1404 1.377 . S
C1405 C1411 1.390 . S
C1406 H1397 0.930 . S
C1406 C1404 1.384 . S
C1406 C1407 1.372 . S
C1407 C1406 1.372 . S
C1407 C1408 1.400 . S
C1407 C1412 1.490 . S
C1408 H1398 0.930 . S
C1408 C1407 1.400 . S
C1408 C1411 1.386 . S
H1409 C1425 0.930 . S
H1410 C1426 0.931 . S
C1411 H1399 0.929 . S
C1411 C1405 1.390 . S
C1411 C1408 1.386 . S
C1412 C1407 1.490 . S
C1412 C1414 1.395 . S
C1412 C1415 1.403 . S
H1413 C1419 0.930 . S
C1414 H1400 0.930 . S
C1414 C1412 1.395 . S
C1414 C1417 1.403 1_556 S
C1415 C1412 1.403 . S
C1415 C1416 1.524 . S
C1415 C1419 1.400 1_556 S
C1416 H1401 0.960 . S
C1416 H1402 0.960 . S
C1416 H1403 0.960 . S
C1416 C1415 1.524 . S
C1417 C1414 1.403 1_554 S
C1417 C1418 1.392 . S
C1417 C1421 1.495 . S
C1418 C1417 1.392 . S
C1418 C1419 1.385 . S
C1418 C1420 1.478 . S
C1419 H1413 0.930 . S
C1419 C1415 1.400 1_554 S
C1419 C1418 1.385 . S
C1420 C1418 1.478 . S
C1420 C1422 1.381 . S
C1420 C1426 1.383 . S
C1421 C1417 1.495 . S
C1421 H1427 0.959 . S
C1421 H1428 0.961 . S
C1421 H1429 0.960 . S
C1422 C1420 1.381 . S
C1422 C1423 1.394 . S
C1422 H1430 0.930 . S
C1423 C1422 1.394 . S
C1423 C1424 1.383 . S
C1423 H1431 0.929 . S
C1424 C1423 1.383 . S
C1424 C1425 1.377 . S
C1425 H1409 0.930 . S
C1425 C1424 1.377 . S
C1425 C1426 1.379 . S
C1426 H1410 0.931 . S
C1426 C1420 1.383 . S
C1426 C1425 1.379 . S
H1427 C1421 0.959 . S
H1428 C1421 0.961 . S
H1429 C1421 0.960 . S
H1430 C1422 0.930 . S
H1431 C1423 0.929 . S
H1432 C1440 0.929 . S
H1433 C1442 0.930 . S
H1434 C1444 0.930 . S
H1435 C1447 0.929 . S
H1436 C1450 0.930 . S
H1437 C1452 0.960 . S
H1438 C1452 0.960 . S
H1439 C1452 0.960 . S
C1440 H1432 0.929 . S
C1440 C1441 1.377 . S
C1440 C1442 1.384 . S
C1441 C1440 1.377 . S
C1441 C1447 1.390 . S
C1442 H1433 0.930 . S
C1442 C1440 1.384 . S
C1442 C1443 1.372 . S
C1443 C1442 1.372 . S
C1443 C1444 1.400 . S
C1443 C1448 1.490 . S
C1444 H1434 0.930 . S
C1444 C1443 1.400 . S
C1444 C1447 1.386 . S
H1445 C1461 0.930 . S
H1446 C1462 0.931 . S
C1447 H1435 0.929 . S
C1447 C1441 1.390 . S
C1447 C1444 1.386 . S
C1448 C1443 1.490 . S
C1448 C1450 1.395 . S
C1448 C1451 1.403 . S
H1449 C1455 0.930 . S
C1450 H1436 0.930 . S
C1450 C1448 1.395 . S
C1450 C1453 1.403 . S
C1451 C1448 1.403 . S
C1451 C1452 1.524 . S
C1451 C1455 1.400 . S
C1452 H1437 0.960 . S
C1452 H1438 0.960 . S
C1452 H1439 0.960 . S
C1452 C1451 1.524 . S
C1453 C1450 1.403 . S
C1453 C1454 1.392 . S
C1453 C1457 1.495 . S
C1454 C1453 1.392 . S
C1454 C1455 1.385 . S
C1454 C1456 1.478 . S
C1455 H1449 0.930 . S
C1455 C1451 1.400 . S
C1455 C1454 1.385 . S
C1456 C1454 1.478 . S
C1456 C1458 1.381 . S
C1456 C1462 1.383 . S
C1457 C1453 1.495 . S
C1457 H1463 0.959 . S
C1457 H1464 0.961 . S
C1457 H1465 0.960 . S
C1458 C1456 1.381 . S
C1458 C1459 1.394 . S
C1458 H1466 0.930 . S
C1459 C1458 1.394 . S
C1459 C1460 1.383 . S
C1459 H1467 0.929 . S
C1460 C1459 1.383 . S
C1460 C1461 1.377 . S
C1461 H1445 0.930 . S
C1461 C1460 1.377 . S
C1461 C1462 1.379 . S
C1462 H1446 0.931 . S
C1462 C1456 1.383 . S
C1462 C1461 1.379 . S
H1463 C1457 0.959 . S
H1464 C1457 0.961 . S
H1465 C1457 0.960 . S
H1466 C1458 0.930 . S
H1467 C1459 0.929 . S
H1468 C1476 0.929 . S
H1469 C1478 0.930 . S
H1470 C1480 0.930 . S
H1471 C1483 0.929 . S
H1472 C1486 0.930 . S
H1473 C1488 0.960 . S
H1474 C1488 0.960 . S
H1475 C1488 0.960 . S
C1476 H1468 0.929 . S
C1476 C1477 1.377 . S
C1476 C1478 1.384 . S
C1477 C1476 1.377 . S
C1477 C1483 1.390 . S
C1478 H1469 0.930 . S
C1478 C1476 1.384 . S
C1478 C1479 1.372 . S
C1479 C1478 1.372 . S
C1479 C1480 1.400 . S
C1479 C1484 1.490 . S
C1480 H1470 0.930 . S
C1480 C1479 1.400 . S
C1480 C1483 1.386 . S
H1481 C1497 0.930 . S
H1482 C1498 0.931 . S
C1483 H1471 0.929 . S
C1483 C1477 1.390 . S
C1483 C1480 1.386 . S
C1484 C1479 1.490 . S
C1484 C1486 1.395 . S
C1484 C1487 1.403 . S
H1485 C1491 0.930 . S
C1486 H1472 0.930 . S
C1486 C1484 1.395 . S
C1486 C1489 1.403 . S
C1487 C1484 1.403 . S
C1487 C1488 1.524 . S
C1487 C1491 1.400 . S
C1488 H1473 0.960 . S
C1488 H1474 0.960 . S
C1488 H1475 0.960 . S
C1488 C1487 1.524 . S
C1489 C1486 1.403 . S
C1489 C1490 1.392 . S
C1489 C1493 1.495 . S
C1490 C1489 1.392 . S
C1490 C1491 1.385 . S
C1490 C1492 1.478 . S
C1491 H1485 0.930 . S
C1491 C1487 1.400 . S
C1491 C1490 1.385 . S
C1492 C1490 1.478 . S
C1492 C1494 1.381 . S
C1492 C1498 1.383 . S
C1493 C1489 1.495 . S
C1493 H1499 0.959 . S
C1493 H1500 0.961 . S
C1493 H1501 0.960 . S
C1494 C1492 1.381 . S
C1494 C1495 1.394 . S
C1494 H1502 0.930 . S
C1495 C1494 1.394 . S
C1495 C1496 1.383 . S
C1495 H1503 0.929 . S
C1496 C1495 1.383 . S
C1496 C1497 1.377 . S
C1497 H1481 0.930 . S
C1497 C1496 1.377 . S
C1497 C1498 1.379 . S
C1498 H1482 0.931 . S
C1498 C1492 1.383 . S
C1498 C1497 1.379 . S
H1499 C1493 0.959 . S
H1500 C1493 0.961 . S
H1501 C1493 0.960 . S
H1502 C1494 0.930 . S
H1503 C1495 0.929 . S
H1504 C1512 0.929 . S
H1505 C1514 0.930 1_565 S
H1506 C1516 0.930 . S
H1507 C1519 0.929 . S
H1508 C1522 0.930 . S
H1509 C1524 0.960 1_455 S
H1510 C1524 0.960 . S
H1511 C1524 0.960 . S
C1512 H1504 0.929 . S
C1512 C1513 1.377 . S
C1512 C1514 1.384 . S
C1513 C1512 1.377 . S
C1513 C1519 1.390 . S
C1514 H1505 0.930 1_545 S
C1514 C1512 1.384 . S
C1514 C1515 1.372 . S
C1515 C1514 1.372 . S
C1515 C1516 1.400 . S
C1515 C1520 1.490 . S
C1516 H1506 0.930 . S
C1516 C1515 1.400 . S
C1516 C1519 1.386 . S
H1517 C1533 0.930 . S
H1518 C1534 0.931 . S
C1519 H1507 0.929 . S
C1519 C1513 1.390 . S
C1519 C1516 1.386 . S
C1520 C1515 1.490 . S
C1520 C1522 1.395 1_545 S
C1520 C1523 1.403 . S
H1521 C1527 0.930 . S
C1522 H1508 0.930 . S
C1522 C1520 1.395 1_565 S
C1522 C1525 1.403 1_655 S
C1523 C1520 1.403 . S
C1523 C1524 1.524 . S
C1523 C1527 1.400 1_655 S
C1524 H1509 0.960 1_655 S
C1524 H1510 0.960 . S
C1524 H1511 0.960 . S
C1524 C1523 1.524 . S
C1525 C1522 1.403 1_455 S
C1525 C1526 1.392 . S
C1525 C1529 1.495 . S
C1526 C1525 1.392 . S
C1526 C1527 1.385 1_565 S
C1526 C1528 1.478 . S
C1527 H1521 0.930 . S
C1527 C1523 1.400 1_455 S
C1527 C1526 1.385 1_545 S
C1528 C1526 1.478 . S
C1528 C1530 1.381 . S
C1528 C1534 1.383 . S
C1529 C1525 1.495 . S
C1529 H1535 0.959 1_455 S
C1529 H1536 0.961 . S
C1529 H1537 0.960 . S
C1530 C1528 1.381 . S
C1530 C1531 1.394 . S
C1530 H1538 0.930 . S
C1531 C1530 1.394 . S
C1531 C1532 1.383 . S
C1531 H1539 0.929 . S
C1532 C1531 1.383 . S
C1532 C1533 1.377 . S
C1533 H1517 0.930 . S
C1533 C1532 1.377 . S
C1533 C1534 1.379 . S
C1534 H1518 0.931 . S
C1534 C1528 1.383 . S
C1534 C1533 1.379 . S
H1535 C1529 0.959 1_655 S
H1536 C1529 0.961 . S
H1537 C1529 0.960 . S
H1538 C1530 0.930 . S
H1539 C1531 0.929 . S
H1540 C1548 0.929 . S
H1541 C1550 0.930 . S
H1542 C1552 0.930 . S
H1543 C1555 0.929 1_545 S
H1544 C1558 0.930 . S
H1545 C1560 0.960 . S
H1546 C1560 0.960 . S
H1547 C1560 0.960 . S
C1548 H1540 0.929 . S
C1548 C1549 1.377 . S
C1548 C1550 1.384 . S
C1549 C1548 1.377 . S
C1549 C1555 1.390 . S
C1550 H1541 0.930 . S
C1550 C1548 1.384 . S
C1550 C1551 1.372 . S
C1551 C1550 1.372 . S
C1551 C1552 1.400 1_565 S
C1551 C1556 1.490 . S
C1552 H1542 0.930 . S
C1552 C1551 1.400 1_545 S
C1552 C1555 1.386 1_545 S
H1553 C1569 0.930 . S
H1554 C1570 0.931 . S
C1555 H1543 0.929 1_565 S
C1555 C1549 1.390 . S
C1555 C1552 1.386 1_565 S
C1556 C1551 1.490 . S
C1556 C1558 1.395 1_565 S
C1556 C1559 1.403 . S
H1557 C1563 0.930 . S
C1558 H1544 0.930 . S
C1558 C1556 1.395 1_545 S
C1558 C1561 1.403 1_655 S
C1559 C1556 1.403 . S
C1559 C1560 1.524 . S
C1559 C1563 1.400 1_655 S
C1560 H1545 0.960 . S
C1560 H1546 0.960 . S
C1560 H1547 0.960 . S
C1560 C1559 1.524 . S
C1561 C1558 1.403 1_455 S
C1561 C1562 1.392 . S
C1561 C1565 1.495 . S
C1562 C1561 1.392 . S
C1562 C1563 1.385 1_545 S
C1562 C1564 1.478 . S
C1563 H1557 0.930 . S
C1563 C1559 1.400 1_455 S
C1563 C1562 1.385 1_565 S
C1564 C1562 1.478 . S
C1564 C1566 1.381 1_545 S
C1564 C1570 1.383 . S
C1565 C1561 1.495 . S
C1565 H1571 0.959 . S
C1565 H1572 0.961 . S
C1565 H1573 0.960 . S
C1566 C1564 1.381 1_565 S
C1566 C1567 1.394 1_565 S
C1566 H1574 0.930 . S
C1567 C1566 1.394 1_545 S
C1567 C1568 1.383 . S
C1567 H1575 0.929 1_545 S
C1568 C1567 1.383 . S
C1568 C1569 1.377 . S
C1569 H1553 0.930 . S
C1569 C1568 1.377 . S
C1569 C1570 1.379 . S
C1570 H1554 0.931 . S
C1570 C1564 1.383 . S
C1570 C1569 1.379 . S
H1571 C1565 0.959 . S
H1572 C1565 0.961 . S
H1573 C1565 0.960 . S
H1574 C1566 0.930 . S
H1575 C1567 0.929 1_565 S
H1576 C1584 0.929 . S
H1577 C1586 0.930 . S
H1578 C1588 0.930 . S
H1579 C1591 0.929 . S
H1580 C1594 0.930 . S
H1581 C1596 0.960 . S
H1582 C1596 0.960 . S
H1583 C1596 0.960 . S
C1584 H1576 0.929 . S
C1584 C1585 1.377 . S
C1584 C1586 1.384 . S
C1585 C1584 1.377 . S
C1585 C1591 1.390 . S
C1586 H1577 0.930 . S
C1586 C1584 1.384 . S
C1586 C1587 1.372 . S
C1587 C1586 1.372 . S
C1587 C1588 1.400 . S
C1587 C1592 1.490 . S
C1588 H1578 0.930 . S
C1588 C1587 1.400 . S
C1588 C1591 1.386 . S
H1589 C1605 0.930 . S
H1590 C1606 0.931 . S
C1591 H1579 0.929 . S
C1591 C1585 1.390 . S
C1591 C1588 1.386 . S
C1592 C1587 1.490 . S
C1592 C1594 1.395 . S
C1592 C1595 1.403 1_565 S
H1593 C1599 0.930 . S
C1594 H1580 0.930 . S
C1594 C1592 1.395 . S
C1594 C1597 1.403 1_455 S
C1595 C1592 1.403 1_545 S
C1595 C1596 1.524 . S
C1595 C1599 1.400 1_455 S
C1596 H1581 0.960 . S
C1596 H1582 0.960 . S
C1596 H1583 0.960 . S
C1596 C1595 1.524 . S
C1597 C1594 1.403 1_655 S
C1597 C1598 1.392 1_565 S
C1597 C1601 1.495 . S
C1598 C1597 1.392 1_545 S
C1598 C1599 1.385 . S
C1598 C1600 1.478 . S
C1599 H1593 0.930 . S
C1599 C1595 1.400 1_655 S
C1599 C1598 1.385 . S
C1600 C1598 1.478 . S
C1600 C1602 1.381 . S
C1600 C1606 1.383 . S
C1601 C1597 1.495 . S
C1601 H1607 0.959 . S
C1601 H1608 0.961 . S
C1601 H1609 0.960 . S
C1602 C1600 1.381 . S
C1602 C1603 1.394 . S
C1602 H1610 0.930 . S
C1603 C1602 1.394 . S
C1603 C1604 1.383 . S
C1603 H1611 0.929 . S
C1604 C1603 1.383 . S
C1604 C1605 1.377 . S
C1605 H1589 0.930 . S
C1605 C1604 1.377 . S
C1605 C1606 1.379 . S
C1606 H1590 0.931 . S
C1606 C1600 1.383 . S
C1606 C1605 1.379 . S
H1607 C1601 0.959 . S
H1608 C1601 0.961 . S
H1609 C1601 0.960 . S
H1610 C1602 0.930 . S
H1611 C1603 0.929 . S
H1612 C1620 0.929 . S
H1613 C1622 0.930 1_545 S
H1614 C1624 0.930 . S
H1615 C1627 0.929 . S
H1616 C1630 0.930 . S
H1617 C1632 0.960 1_455 S
H1618 C1632 0.960 . S
H1619 C1632 0.960 . S
C1620 H1612 0.929 . S
C1620 C1621 1.377 . S
C1620 C1622 1.384 . S
C1621 C1620 1.377 . S
C1621 C1627 1.390 . S
C1622 H1613 0.930 1_565 S
C1622 C1620 1.384 . S
C1622 C1623 1.372 . S
C1623 C1622 1.372 . S
C1623 C1624 1.400 . S
C1623 C1628 1.490 . S
C1624 H1614 0.930 . S
C1624 C1623 1.400 . S
C1624 C1627 1.386 . S
H1625 C1641 0.930 . S
H1626 C1642 0.931 . S
C1627 H1615 0.929 . S
C1627 C1621 1.390 . S
C1627 C1624 1.386 . S
C1628 C1623 1.490 . S
C1628 C1630 1.395 1_565 S
C1628 C1631 1.403 . S
H1629 C1635 0.930 . S
C1630 H1616 0.930 . S
C1630 C1628 1.395 1_545 S
C1630 C1633 1.403 1_655 S
C1631 C1628 1.403 . S
C1631 C1632 1.524 . S
C1631 C1635 1.400 1_655 S
C1632 H1617 0.960 1_655 S
C1632 H1618 0.960 . S
C1632 H1619 0.960 . S
C1632 C1631 1.524 . S
C1633 C1630 1.403 1_455 S
C1633 C1634 1.392 . S
C1633 C1637 1.495 . S
C1634 C1633 1.392 . S
C1634 C1635 1.385 1_545 S
C1634 C1636 1.478 . S
C1635 H1629 0.930 . S
C1635 C1631 1.400 1_455 S
C1635 C1634 1.385 1_565 S
C1636 C1634 1.478 . S
C1636 C1638 1.381 . S
C1636 C1642 1.383 . S
C1637 C1633 1.495 . S
C1637 H1643 0.959 1_455 S
C1637 H1644 0.961 . S
C1637 H1645 0.960 . S
C1638 C1636 1.381 . S
C1638 C1639 1.394 . S
C1638 H1646 0.930 . S
C1639 C1638 1.394 . S
C1639 C1640 1.383 . S
C1639 H1647 0.929 . S
C1640 C1639 1.383 . S
C1640 C1641 1.377 . S
C1641 H1625 0.930 . S
C1641 C1640 1.377 . S
C1641 C1642 1.379 . S
C1642 H1626 0.931 . S
C1642 C1636 1.383 . S
C1642 C1641 1.379 . S
H1643 C1637 0.959 1_655 S
H1644 C1637 0.961 . S
H1645 C1637 0.960 . S
H1646 C1638 0.930 . S
H1647 C1639 0.929 . S
H1648 C1656 0.929 . S
H1649 C1658 0.930 . S
H1650 C1660 0.930 . S
H1651 C1663 0.929 . S
H1652 C1666 0.930 . S
H1653 C1668 0.960 . S
H1654 C1668 0.960 . S
H1655 C1668 0.960 . S
C1656 H1648 0.929 . S
C1656 C1657 1.377 . S
C1656 C1658 1.384 . S
C1657 C1656 1.377 . S
C1657 C1663 1.390 . S
C1658 H1649 0.930 . S
C1658 C1656 1.384 . S
C1658 C1659 1.372 . S
C1659 C1658 1.372 . S
C1659 C1660 1.400 . S
C1659 C1664 1.490 . S
C1660 H1650 0.930 . S
C1660 C1659 1.400 . S
C1660 C1663 1.386 . S
H1661 C1677 0.930 . S
H1662 C1678 0.931 . S
C1663 H1651 0.929 . S
C1663 C1657 1.390 . S
C1663 C1660 1.386 . S
C1664 C1659 1.490 . S
C1664 C1666 1.395 . S
C1664 C1667 1.403 . S
H1665 C1671 0.930 . S
C1666 H1652 0.930 . S
C1666 C1664 1.395 . S
C1666 C1669 1.403 . S
C1667 C1664 1.403 . S
C1667 C1668 1.524 . S
C1667 C1671 1.400 . S
C1668 H1653 0.960 . S
C1668 H1654 0.960 . S
C1668 H1655 0.960 . S
C1668 C1667 1.524 . S
C1669 C1666 1.403 . S
C1669 C1670 1.392 . S
C1669 C1673 1.495 . S
C1670 C1669 1.392 . S
C1670 C1671 1.385 . S
C1670 C1672 1.478 . S
C1671 H1665 0.930 . S
C1671 C1667 1.400 . S
C1671 C1670 1.385 . S
C1672 C1670 1.478 . S
C1672 C1674 1.381 . S
C1672 C1678 1.383 . S
C1673 C1669 1.495 . S
C1673 H1679 0.959 . S
C1673 H1680 0.961 . S
C1673 H1681 0.960 . S
C1674 C1672 1.381 . S
C1674 C1675 1.394 . S
C1674 H1682 0.930 . S
C1675 C1674 1.394 . S
C1675 C1676 1.383 . S
C1675 H1683 0.929 . S
C1676 C1675 1.383 . S
C1676 C1677 1.377 . S
C1677 H1661 0.930 . S
C1677 C1676 1.377 . S
C1677 C1678 1.379 . S
C1678 H1662 0.931 . S
C1678 C1672 1.383 . S
C1678 C1677 1.379 . S
H1679 C1673 0.959 . S
H1680 C1673 0.961 . S
H1681 C1673 0.960 . S
H1682 C1674 0.930 . S
H1683 C1675 0.929 . S
H1684 C1692 0.929 . S
H1685 C1694 0.930 . S
H1686 C1696 0.930 . S
H1687 C1699 0.929 . S
H1688 C1702 0.930 . S
H1689 C1704 0.960 . S
H1690 C1704 0.960 . S
H1691 C1704 0.960 . S
C1692 H1684 0.929 . S
C1692 C1693 1.377 . S
C1692 C1694 1.384 . S
C1693 C1692 1.377 . S
C1693 C1699 1.390 . S
C1694 H1685 0.930 . S
C1694 C1692 1.384 . S
C1694 C1695 1.372 . S
C1695 C1694 1.372 . S
C1695 C1696 1.400 . S
C1695 C1700 1.490 . S
C1696 H1686 0.930 . S
C1696 C1695 1.400 . S
C1696 C1699 1.386 . S
H1697 C1713 0.930 . S
H1698 C1714 0.931 . S
C1699 H1687 0.929 . S
C1699 C1693 1.390 . S
C1699 C1696 1.386 . S
C1700 C1695 1.490 . S
C1700 C1702 1.395 . S
C1700 C1703 1.403 . S
H1701 C1707 0.930 . S
C1702 H1688 0.930 . S
C1702 C1700 1.395 . S
C1702 C1705 1.403 . S
C1703 C1700 1.403 . S
C1703 C1704 1.524 . S
C1703 C1707 1.400 . S
C1704 H1689 0.960 . S
C1704 H1690 0.960 . S
C1704 H1691 0.960 . S
C1704 C1703 1.524 . S
C1705 C1702 1.403 . S
C1705 C1706 1.392 . S
C1705 C1709 1.495 . S
C1706 C1705 1.392 . S
C1706 C1707 1.385 . S
C1706 C1708 1.478 . S
C1707 H1701 0.930 . S
C1707 C1703 1.400 . S
C1707 C1706 1.385 . S
C1708 C1706 1.478 . S
C1708 C1710 1.381 . S
C1708 C1714 1.383 . S
C1709 C1705 1.495 . S
C1709 H1715 0.959 . S
C1709 H1716 0.961 . S
C1709 H1717 0.960 . S
C1710 C1708 1.381 . S
C1710 C1711 1.394 . S
C1710 H1718 0.930 . S
C1711 C1710 1.394 . S
C1711 C1712 1.383 . S
C1711 H1719 0.929 . S
C1712 C1711 1.383 . S
C1712 C1713 1.377 . S
C1713 H1697 0.930 . S
C1713 C1712 1.377 . S
C1713 C1714 1.379 . S
C1714 H1698 0.931 . S
C1714 C1708 1.383 . S
C1714 C1713 1.379 . S
H1715 C1709 0.959 . S
H1716 C1709 0.961 . S
H1717 C1709 0.960 . S
H1718 C1710 0.930 . S
H1719 C1711 0.929 . S
H1720 C1728 0.929 . S
H1721 C1730 0.930 . S
H1722 C1732 0.930 . S
H1723 C1735 0.929 . S
H1724 C1738 0.930 . S
H1725 C1740 0.960 . S
H1726 C1740 0.960 . S
H1727 C1740 0.960 . S
C1728 H1720 0.929 . S
C1728 C1729 1.377 . S
C1728 C1730 1.384 . S
C1729 C1728 1.377 . S
C1729 C1735 1.390 . S
C1730 H1721 0.930 . S
C1730 C1728 1.384 . S
C1730 C1731 1.372 . S
C1731 C1730 1.372 . S
C1731 C1732 1.400 . S
C1731 C1736 1.490 . S
C1732 H1722 0.930 . S
C1732 C1731 1.400 . S
C1732 C1735 1.386 . S
H1733 C1749 0.930 . S
H1734 C1750 0.931 . S
C1735 H1723 0.929 . S
C1735 C1729 1.390 . S
C1735 C1732 1.386 . S
C1736 C1731 1.490 . S
C1736 C1738 1.395 . S
C1736 C1739 1.403 . S
H1737 C1743 0.930 . S
C1738 H1724 0.930 . S
C1738 C1736 1.395 . S
C1738 C1741 1.403 . S
C1739 C1736 1.403 . S
C1739 C1740 1.524 . S
C1739 C1743 1.400 . S
C1740 H1725 0.960 . S
C1740 H1726 0.960 . S
C1740 H1727 0.960 . S
C1740 C1739 1.524 . S
C1741 C1738 1.403 . S
C1741 C1742 1.392 . S
C1741 C1745 1.495 . S
C1742 C1741 1.392 . S
C1742 C1743 1.385 . S
C1742 C1744 1.478 . S
C1743 H1737 0.930 . S
C1743 C1739 1.400 . S
C1743 C1742 1.385 . S
C1744 C1742 1.478 . S
C1744 C1746 1.381 . S
C1744 C1750 1.383 . S
C1745 C1741 1.495 . S
C1745 H1751 0.959 . S
C1745 H1752 0.961 . S
C1745 H1753 0.960 . S
C1746 C1744 1.381 . S
C1746 C1747 1.394 . S
C1746 H1754 0.930 . S
C1747 C1746 1.394 . S
C1747 C1748 1.383 . S
C1747 H1755 0.929 . S
C1748 C1747 1.383 . S
C1748 C1749 1.377 . S
C1749 H1733 0.930 . S
C1749 C1748 1.377 . S
C1749 C1750 1.379 . S
C1750 H1734 0.931 . S
C1750 C1744 1.383 . S
C1750 C1749 1.379 . S
H1751 C1745 0.959 . S
H1752 C1745 0.961 . S
H1753 C1745 0.960 . S
H1754 C1746 0.930 . S
H1755 C1747 0.929 . S
H1756 C1764 0.929 . S
H1757 C1766 0.930 . S
H1758 C1768 0.930 . S
H1759 C1771 0.929 . S
H1760 C1774 0.930 . S
H1761 C1776 0.960 . S
H1762 C1776 0.960 . S
H1763 C1776 0.960 . S
C1764 H1756 0.929 . S
C1764 C1765 1.377 . S
C1764 C1766 1.384 . S
C1765 C1764 1.377 . S
C1765 C1771 1.390 . S
C1766 H1757 0.930 . S
C1766 C1764 1.384 . S
C1766 C1767 1.372 . S
C1767 C1766 1.372 . S
C1767 C1768 1.400 . S
C1767 C1772 1.490 . S
C1768 H1758 0.930 . S
C1768 C1767 1.400 . S
C1768 C1771 1.386 . S
H1769 C1785 0.930 . S
H1770 C1786 0.931 . S
C1771 H1759 0.929 . S
C1771 C1765 1.390 . S
C1771 C1768 1.386 . S
C1772 C1767 1.490 . S
C1772 C1774 1.395 . S
C1772 C1775 1.403 . S
H1773 C1779 0.930 . S
C1774 H1760 0.930 . S
C1774 C1772 1.395 . S
C1774 C1777 1.403 . S
C1775 C1772 1.403 . S
C1775 C1776 1.524 . S
C1775 C1779 1.400 . S
C1776 H1761 0.960 . S
C1776 H1762 0.960 . S
C1776 H1763 0.960 . S
C1776 C1775 1.524 . S
C1777 C1774 1.403 . S
C1777 C1778 1.392 . S
C1777 C1781 1.495 . S
C1778 C1777 1.392 . S
C1778 C1779 1.385 . S
C1778 C1780 1.478 . S
C1779 H1773 0.930 . S
C1779 C1775 1.400 . S
C1779 C1778 1.385 . S
C1780 C1778 1.478 . S
C1780 C1782 1.381 . S
C1780 C1786 1.383 . S
C1781 C1777 1.495 . S
C1781 H1787 0.959 . S
C1781 H1788 0.961 . S
C1781 H1789 0.960 . S
C1782 C1780 1.381 . S
C1782 C1783 1.394 . S
C1782 H1790 0.930 . S
C1783 C1782 1.394 . S
C1783 C1784 1.383 . S
C1783 H1791 0.929 . S
C1784 C1783 1.383 . S
C1784 C1785 1.377 . S
C1785 H1769 0.930 . S
C1785 C1784 1.377 . S
C1785 C1786 1.379 . S
C1786 H1770 0.931 . S
C1786 C1780 1.383 . S
C1786 C1785 1.379 . S
H1787 C1781 0.959 . S
H1788 C1781 0.961 . S
H1789 C1781 0.960 . S
H1790 C1782 0.930 . S
H1791 C1783 0.929 . S
H1792 C1800 0.929 . S
H1793 C1802 0.930 . S
H1794 C1804 0.930 . S
H1795 C1807 0.929 . S
H1796 C1810 0.930 . S
H1797 C1812 0.960 . S
H1798 C1812 0.960 . S
H1799 C1812 0.960 . S
C1800 H1792 0.929 . S
C1800 C1801 1.377 . S
C1800 C1802 1.384 . S
C1801 C1800 1.377 . S
C1801 C1807 1.390 . S
C1802 H1793 0.930 . S
C1802 C1800 1.384 . S
C1802 C1803 1.372 . S
C1803 C1802 1.372 . S
C1803 C1804 1.400 . S
C1803 C1808 1.490 . S
C1804 H1794 0.930 . S
C1804 C1803 1.400 . S
C1804 C1807 1.386 . S
H1805 C1821 0.930 . S
H1806 C1822 0.931 . S
C1807 H1795 0.929 . S
C1807 C1801 1.390 . S
C1807 C1804 1.386 . S
C1808 C1803 1.490 . S
C1808 C1810 1.395 . S
C1808 C1811 1.403 . S
H1809 C1815 0.930 . S
C1810 H1796 0.930 . S
C1810 C1808 1.395 . S
C1810 C1813 1.403 . S
C1811 C1808 1.403 . S
C1811 C1812 1.524 . S
C1811 C1815 1.400 . S
C1812 H1797 0.960 . S
C1812 H1798 0.960 . S
C1812 H1799 0.960 . S
C1812 C1811 1.524 . S
C1813 C1810 1.403 . S
C1813 C1814 1.392 . S
C1813 C1817 1.495 . S
C1814 C1813 1.392 . S
C1814 C1815 1.385 . S
C1814 C1816 1.478 . S
C1815 H1809 0.930 . S
C1815 C1811 1.400 . S
C1815 C1814 1.385 . S
C1816 C1814 1.478 . S
C1816 C1818 1.381 . S
C1816 C1822 1.383 . S
C1817 C1813 1.495 . S
C1817 H1823 0.959 . S
C1817 H1824 0.961 . S
C1817 H1825 0.960 . S
C1818 C1816 1.381 . S
C1818 C1819 1.394 . S
C1818 H1826 0.930 . S
C1819 C1818 1.394 . S
C1819 C1820 1.383 . S
C1819 H1827 0.929 . S
C1820 C1819 1.383 . S
C1820 C1821 1.377 . S
C1821 H1805 0.930 . S
C1821 C1820 1.377 . S
C1821 C1822 1.379 . S
C1822 H1806 0.931 . S
C1822 C1816 1.383 . S
C1822 C1821 1.379 . S
H1823 C1817 0.959 . S
H1824 C1817 0.961 . S
H1825 C1817 0.960 . S
H1826 C1818 0.930 . S
H1827 C1819 0.929 . S
H1828 C1836 0.929 . S
H1829 C1838 0.930 . S
H1830 C1840 0.930 . S
H1831 C1843 0.929 . S
H1832 C1846 0.930 . S
H1833 C1848 0.960 . S
H1834 C1848 0.960 . S
H1835 C1848 0.960 . S
C1836 H1828 0.929 . S
C1836 C1837 1.377 . S
C1836 C1838 1.384 . S
C1837 C1836 1.377 . S
C1837 C1843 1.390 . S
C1838 H1829 0.930 . S
C1838 C1836 1.384 . S
C1838 C1839 1.372 . S
C1839 C1838 1.372 . S
C1839 C1840 1.400 . S
C1839 C1844 1.490 . S
C1840 H1830 0.930 . S
C1840 C1839 1.400 . S
C1840 C1843 1.386 . S
H1841 C1857 0.930 . S
H1842 C1858 0.931 . S
C1843 H1831 0.929 . S
C1843 C1837 1.390 . S
C1843 C1840 1.386 . S
C1844 C1839 1.490 . S
C1844 C1846 1.395 . S
C1844 C1847 1.403 . S
H1845 C1851 0.930 . S
C1846 H1832 0.930 . S
C1846 C1844 1.395 . S
C1846 C1849 1.403 . S
C1847 C1844 1.403 . S
C1847 C1848 1.524 . S
C1847 C1851 1.400 . S
C1848 H1833 0.960 . S
C1848 H1834 0.960 . S
C1848 H1835 0.960 . S
C1848 C1847 1.524 . S
C1849 C1846 1.403 . S
C1849 C1850 1.392 . S
C1849 C1853 1.495 . S
C1850 C1849 1.392 . S
C1850 C1851 1.385 . S
C1850 C1852 1.478 . S
C1851 H1845 0.930 . S
C1851 C1847 1.400 . S
C1851 C1850 1.385 . S
C1852 C1850 1.478 . S
C1852 C1854 1.381 . S
C1852 C1858 1.383 . S
C1853 C1849 1.495 . S
C1853 H1859 0.959 . S
C1853 H1860 0.961 . S
C1853 H1861 0.960 . S
C1854 C1852 1.381 . S
C1854 C1855 1.394 . S
C1854 H1862 0.930 . S
C1855 C1854 1.394 . S
C1855 C1856 1.383 . S
C1855 H1863 0.929 . S
C1856 C1855 1.383 . S
C1856 C1857 1.377 . S
C1857 H1841 0.930 . S
C1857 C1856 1.377 . S
C1857 C1858 1.379 . S
C1858 H1842 0.931 . S
C1858 C1852 1.383 . S
C1858 C1857 1.379 . S
H1859 C1853 0.959 . S
H1860 C1853 0.961 . S
H1861 C1853 0.960 . S
H1862 C1854 0.930 . S
H1863 C1855 0.929 . S
H1864 C1872 0.929 . S
H1865 C1874 0.930 . S
H1866 C1876 0.930 . S
H1867 C1879 0.929 . S
H1868 C1882 0.930 . S
H1869 C1884 0.960 . S
H1870 C1884 0.960 . S
H1871 C1884 0.960 . S
C1872 H1864 0.929 . S
C1872 C1873 1.377 . S
C1872 C1874 1.384 . S
C1873 C1872 1.377 . S
C1873 C1879 1.390 . S
C1874 H1865 0.930 . S
C1874 C1872 1.384 . S
C1874 C1875 1.372 . S
C1875 C1874 1.372 . S
C1875 C1876 1.400 . S
C1875 C1880 1.490 . S
C1876 H1866 0.930 . S
C1876 C1875 1.400 . S
C1876 C1879 1.386 . S
H1877 C1893 0.930 . S
H1878 C1894 0.931 . S
C1879 H1867 0.929 . S
C1879 C1873 1.390 . S
C1879 C1876 1.386 . S
C1880 C1875 1.490 . S
C1880 C1882 1.395 . S
C1880 C1883 1.403 . S
H1881 C1887 0.930 . S
C1882 H1868 0.930 . S
C1882 C1880 1.395 . S
C1882 C1885 1.403 . S
C1883 C1880 1.403 . S
C1883 C1884 1.524 . S
C1883 C1887 1.400 . S
C1884 H1869 0.960 . S
C1884 H1870 0.960 . S
C1884 H1871 0.960 . S
C1884 C1883 1.524 . S
C1885 C1882 1.403 . S
C1885 C1886 1.392 . S
C1885 C1889 1.495 . S
C1886 C1885 1.392 . S
C1886 C1887 1.385 . S
C1886 C1888 1.478 . S
C1887 H1881 0.930 . S
C1887 C1883 1.400 . S
C1887 C1886 1.385 . S
C1888 C1886 1.478 . S
C1888 C1890 1.381 . S
C1888 C1894 1.383 . S
C1889 C1885 1.495 . S
C1889 H1895 0.959 . S
C1889 H1896 0.961 . S
C1889 H1897 0.960 . S
C1890 C1888 1.381 . S
C1890 C1891 1.394 . S
C1890 H1898 0.930 . S
C1891 C1890 1.394 . S
C1891 C1892 1.383 . S
C1891 H1899 0.929 . S
C1892 C1891 1.383 . S
C1892 C1893 1.377 . S
C1893 H1877 0.930 . S
C1893 C1892 1.377 . S
C1893 C1894 1.379 . S
C1894 H1878 0.931 . S
C1894 C1888 1.383 . S
C1894 C1893 1.379 . S
H1895 C1889 0.959 . S
H1896 C1889 0.961 . S
H1897 C1889 0.960 . S
H1898 C1890 0.930 . S
H1899 C1891 0.929 . S
H1900 C1908 0.929 . S
H1901 C1910 0.930 . S
H1902 C1912 0.930 . S
H1903 C1915 0.929 . S
H1904 C1918 0.930 . S
H1905 C1920 0.960 . S
H1906 C1920 0.960 . S
H1907 C1920 0.960 . S
C1908 H1900 0.929 . S
C1908 C1909 1.377 . S
C1908 C1910 1.384 . S
C1909 C1908 1.377 . S
C1909 C1915 1.390 . S
C1910 H1901 0.930 . S
C1910 C1908 1.384 . S
C1910 C1911 1.372 . S
C1911 C1910 1.372 . S
C1911 C1912 1.400 . S
C1911 C1916 1.490 . S
C1912 H1902 0.930 . S
C1912 C1911 1.400 . S
C1912 C1915 1.386 . S
H1913 C1929 0.930 . S
H1914 C1930 0.931 . S
C1915 H1903 0.929 . S
C1915 C1909 1.390 . S
C1915 C1912 1.386 . S
C1916 C1911 1.490 . S
C1916 C1918 1.395 . S
C1916 C1919 1.403 . S
H1917 C1923 0.930 . S
C1918 H1904 0.930 . S
C1918 C1916 1.395 . S
C1918 C1921 1.403 . S
C1919 C1916 1.403 . S
C1919 C1920 1.524 . S
C1919 C1923 1.400 . S
C1920 H1905 0.960 . S
C1920 H1906 0.960 . S
C1920 H1907 0.960 . S
C1920 C1919 1.524 . S
C1921 C1918 1.403 . S
C1921 C1922 1.392 . S
C1921 C1925 1.495 . S
C1922 C1921 1.392 . S
C1922 C1923 1.385 . S
C1922 C1924 1.478 . S
C1923 H1917 0.930 . S
C1923 C1919 1.400 . S
C1923 C1922 1.385 . S
C1924 C1922 1.478 . S
C1924 C1926 1.381 . S
C1924 C1930 1.383 . S
C1925 C1921 1.495 . S
C1925 H1931 0.959 . S
C1925 H1932 0.961 . S
C1925 H1933 0.960 . S
C1926 C1924 1.381 . S
C1926 C1927 1.394 . S
C1926 H1934 0.930 . S
C1927 C1926 1.394 . S
C1927 C1928 1.383 . S
C1927 H1935 0.929 . S
C1928 C1927 1.383 . S
C1928 C1929 1.377 . S
C1929 H1913 0.930 . S
C1929 C1928 1.377 . S
C1929 C1930 1.379 . S
C1930 H1914 0.931 . S
C1930 C1924 1.383 . S
C1930 C1929 1.379 . S
H1931 C1925 0.959 . S
H1932 C1925 0.961 . S
H1933 C1925 0.960 . S
H1934 C1926 0.930 . S
H1935 C1927 0.929 . S
H1936 C1944 0.929 . S
H1937 C1946 0.930 . S
H1938 C1948 0.930 . S
H1939 C1951 0.929 . S
H1940 C1954 0.930 . S
H1941 C1956 0.960 . S
H1942 C1956 0.960 . S
H1943 C1956 0.960 . S
C1944 H1936 0.929 . S
C1944 C1945 1.377 . S
C1944 C1946 1.384 . S
C1945 C1944 1.377 . S
C1945 C1951 1.390 . S
C1946 H1937 0.930 . S
C1946 C1944 1.384 . S
C1946 C1947 1.372 . S
C1947 C1946 1.372 . S
C1947 C1948 1.400 . S
C1947 C1952 1.490 . S
C1948 H1938 0.930 . S
C1948 C1947 1.400 . S
C1948 C1951 1.386 . S
H1949 C1965 0.930 . S
H1950 C1966 0.931 . S
C1951 H1939 0.929 . S
C1951 C1945 1.390 . S
C1951 C1948 1.386 . S
C1952 C1947 1.490 . S
C1952 C1954 1.395 . S
C1952 C1955 1.403 . S
H1953 C1959 0.930 . S
C1954 H1940 0.930 . S
C1954 C1952 1.395 . S
C1954 C1957 1.403 . S
C1955 C1952 1.403 . S
C1955 C1956 1.524 . S
C1955 C1959 1.400 . S
C1956 H1941 0.960 . S
C1956 H1942 0.960 . S
C1956 H1943 0.960 . S
C1956 C1955 1.524 . S
C1957 C1954 1.403 . S
C1957 C1958 1.392 . S
C1957 C1961 1.495 . S
C1958 C1957 1.392 . S
C1958 C1959 1.385 . S
C1958 C1960 1.478 . S
C1959 H1953 0.930 . S
C1959 C1955 1.400 . S
C1959 C1958 1.385 . S
C1960 C1958 1.478 . S
C1960 C1962 1.381 . S
C1960 C1966 1.383 . S
C1961 C1957 1.495 . S
C1961 H1967 0.959 . S
C1961 H1968 0.961 . S
C1961 H1969 0.960 . S
C1962 C1960 1.381 . S
C1962 C1963 1.394 . S
C1962 H1970 0.930 . S
C1963 C1962 1.394 . S
C1963 C1964 1.383 . S
C1963 H1971 0.929 . S
C1964 C1963 1.383 . S
C1964 C1965 1.377 . S
C1965 H1949 0.930 . S
C1965 C1964 1.377 . S
C1965 C1966 1.379 . S
C1966 H1950 0.931 . S
C1966 C1960 1.383 . S
C1966 C1965 1.379 . S
H1967 C1961 0.959 . S
H1968 C1961 0.961 . S
H1969 C1961 0.960 . S
H1970 C1962 0.930 . S
H1971 C1963 0.929 . S
H1972 C1980 0.929 . S
H1973 C1982 0.930 . S
H1974 C1984 0.930 . S
H1975 C1987 0.929 . S
H1976 C1990 0.930 . S
H1977 C1992 0.960 . S
H1978 C1992 0.960 . S
H1979 C1992 0.960 . S
C1980 H1972 0.929 . S
C1980 C1981 1.377 . S
C1980 C1982 1.384 . S
C1981 C1980 1.377 . S
C1981 C1987 1.390 . S
C1982 H1973 0.930 . S
C1982 C1980 1.384 . S
C1982 C1983 1.372 . S
C1983 C1982 1.372 . S
C1983 C1984 1.400 . S
C1983 C1988 1.490 . S
C1984 H1974 0.930 . S
C1984 C1983 1.400 . S
C1984 C1987 1.386 . S
H1985 C2001 0.930 . S
H1986 C2002 0.931 . S
C1987 H1975 0.929 . S
C1987 C1981 1.390 . S
C1987 C1984 1.386 . S
C1988 C1983 1.490 . S
C1988 C1990 1.395 . S
C1988 C1991 1.403 . S
H1989 C1995 0.930 . S
C1990 H1976 0.930 . S
C1990 C1988 1.395 . S
C1990 C1993 1.403 . S
C1991 C1988 1.403 . S
C1991 C1992 1.524 . S
C1991 C1995 1.400 . S
C1992 H1977 0.960 . S
C1992 H1978 0.960 . S
C1992 H1979 0.960 . S
C1992 C1991 1.524 . S
C1993 C1990 1.403 . S
C1993 C1994 1.392 . S
C1993 C1997 1.495 . S
C1994 C1993 1.392 . S
C1994 C1995 1.385 . S
C1994 C1996 1.478 . S
C1995 H1989 0.930 . S
C1995 C1991 1.400 . S
C1995 C1994 1.385 . S
C1996 C1994 1.478 . S
C1996 C1998 1.381 . S
C1996 C2002 1.383 . S
C1997 C1993 1.495 . S
C1997 H2003 0.959 . S
C1997 H2004 0.961 . S
C1997 H2005 0.960 . S
C1998 C1996 1.381 . S
C1998 C1999 1.394 . S
C1998 H2006 0.930 . S
C1999 C1998 1.394 . S
C1999 C2000 1.383 . S
C1999 H2007 0.929 . S
C2000 C1999 1.383 . S
C2000 C2001 1.377 . S
C2001 H1985 0.930 . S
C2001 C2000 1.377 . S
C2001 C2002 1.379 . S
C2002 H1986 0.931 . S
C2002 C1996 1.383 . S
C2002 C2001 1.379 . S
H2003 C1997 0.959 . S
H2004 C1997 0.961 . S
H2005 C1997 0.960 . S
H2006 C1998 0.930 . S
H2007 C1999 0.929 . S
H2008 C2016 0.929 . S
H2009 C2018 0.930 . S
H2010 C2020 0.930 . S
H2011 C2023 0.929 . S
H2012 C2026 0.930 . S
H2013 C2028 0.960 . S
H2014 C2028 0.960 . S
H2015 C2028 0.960 . S
C2016 H2008 0.929 . S
C2016 C2017 1.377 . S
C2016 C2018 1.384 . S
C2017 C2016 1.377 . S
C2017 C2023 1.390 . S
C2018 H2009 0.930 . S
C2018 C2016 1.384 . S
C2018 C2019 1.372 . S
C2019 C2018 1.372 . S
C2019 C2020 1.400 . S
C2019 C2024 1.490 . S
C2020 H2010 0.930 . S
C2020 C2019 1.400 . S
C2020 C2023 1.386 . S
H2021 C2037 0.930 . S
H2022 C2038 0.931 . S
C2023 H2011 0.929 . S
C2023 C2017 1.390 . S
C2023 C2020 1.386 . S
C2024 C2019 1.490 . S
C2024 C2026 1.395 . S
C2024 C2027 1.403 . S
H2025 C2031 0.930 . S
C2026 H2012 0.930 . S
C2026 C2024 1.395 . S
C2026 C2029 1.403 . S
C2027 C2024 1.403 . S
C2027 C2028 1.524 . S
C2027 C2031 1.400 . S
C2028 H2013 0.960 . S
C2028 H2014 0.960 . S
C2028 H2015 0.960 . S
C2028 C2027 1.524 . S
C2029 C2026 1.403 . S
C2029 C2030 1.392 . S
C2029 C2033 1.495 . S
C2030 C2029 1.392 . S
C2030 C2031 1.385 . S
C2030 C2032 1.478 . S
C2031 H2025 0.930 . S
C2031 C2027 1.400 . S
C2031 C2030 1.385 . S
C2032 C2030 1.478 . S
C2032 C2034 1.381 . S
C2032 C2038 1.383 . S
C2033 C2029 1.495 . S
C2033 H2039 0.959 . S
C2033 H2040 0.961 . S
C2033 H2041 0.960 . S
C2034 C2032 1.381 . S
C2034 C2035 1.394 . S
C2034 H2042 0.930 . S
C2035 C2034 1.394 . S
C2035 C2036 1.383 . S
C2035 H2043 0.929 . S
C2036 C2035 1.383 . S
C2036 C2037 1.377 . S
C2037 H2021 0.930 . S
C2037 C2036 1.377 . S
C2037 C2038 1.379 . S
C2038 H2022 0.931 . S
C2038 C2032 1.383 . S
C2038 C2037 1.379 . S
H2039 C2033 0.959 . S
H2040 C2033 0.961 . S
H2041 C2033 0.960 . S
H2042 C2034 0.930 . S
H2043 C2035 0.929 . S
H2044 C2052 0.929 . S
H2045 C2054 0.930 . S
H2046 C2056 0.930 . S
H2047 C2059 0.929 . S
H2048 C2062 0.930 . S
H2049 C2064 0.960 . S
H2050 C2064 0.960 . S
H2051 C2064 0.960 . S
C2052 H2044 0.929 . S
C2052 C2053 1.377 . S
C2052 C2054 1.384 . S
C2053 C2052 1.377 . S
C2053 C2059 1.390 . S
C2054 H2045 0.930 . S
C2054 C2052 1.384 . S
C2054 C2055 1.372 . S
C2055 C2054 1.372 . S
C2055 C2056 1.400 . S
C2055 C2060 1.490 . S
C2056 H2046 0.930 . S
C2056 C2055 1.400 . S
C2056 C2059 1.386 . S
H2057 C2073 0.930 . S
H2058 C2074 0.931 . S
C2059 H2047 0.929 . S
C2059 C2053 1.390 . S
C2059 C2056 1.386 . S
C2060 C2055 1.490 . S
C2060 C2062 1.395 . S
C2060 C2063 1.403 . S
H2061 C2067 0.930 . S
C2062 H2048 0.930 . S
C2062 C2060 1.395 . S
C2062 C2065 1.403 . S
C2063 C2060 1.403 . S
C2063 C2064 1.524 . S
C2063 C2067 1.400 . S
C2064 H2049 0.960 . S
C2064 H2050 0.960 . S
C2064 H2051 0.960 . S
C2064 C2063 1.524 . S
C2065 C2062 1.403 . S
C2065 C2066 1.392 . S
C2065 C2069 1.495 . S
C2066 C2065 1.392 . S
C2066 C2067 1.385 . S
C2066 C2068 1.478 . S
C2067 H2061 0.930 . S
C2067 C2063 1.400 . S
C2067 C2066 1.385 . S
C2068 C2066 1.478 . S
C2068 C2070 1.381 . S
C2068 C2074 1.383 . S
C2069 C2065 1.495 . S
C2069 H2075 0.959 . S
C2069 H2076 0.961 . S
C2069 H2077 0.960 . S
C2070 C2068 1.381 . S
C2070 C2071 1.394 . S
C2070 H2078 0.930 . S
C2071 C2070 1.394 . S
C2071 C2072 1.383 . S
C2071 H2079 0.929 . S
C2072 C2071 1.383 . S
C2072 C2073 1.377 . S
C2073 H2057 0.930 . S
C2073 C2072 1.377 . S
C2073 C2074 1.379 . S
C2074 H2058 0.931 . S
C2074 C2068 1.383 . S
C2074 C2073 1.379 . S
H2075 C2069 0.959 . S
H2076 C2069 0.961 . S
H2077 C2069 0.960 . S
H2078 C2070 0.930 . S
H2079 C2071 0.929 . S
H2080 C2088 0.929 . S
H2081 C2090 0.930 . S
H2082 C2092 0.930 . S
H2083 C2095 0.929 . S
H2084 C2098 0.930 . S
H2085 C2100 0.960 . S
H2086 C2100 0.960 . S
H2087 C2100 0.960 . S
C2088 H2080 0.929 . S
C2088 C2089 1.377 . S
C2088 C2090 1.384 . S
C2089 C2088 1.377 . S
C2089 C2095 1.390 . S
C2090 H2081 0.930 . S
C2090 C2088 1.384 . S
C2090 C2091 1.372 . S
C2091 C2090 1.372 . S
C2091 C2092 1.400 . S
C2091 C2096 1.490 1_565 S
C2092 H2082 0.930 . S
C2092 C2091 1.400 . S
C2092 C2095 1.386 . S
H2093 C2109 0.930 . S
H2094 C2110 0.931 . S
C2095 H2083 0.929 . S
C2095 C2089 1.390 . S
C2095 C2092 1.386 . S
C2096 C2091 1.490 1_545 S
C2096 C2098 1.395 . S
C2096 C2099 1.403 . S
H2097 C2103 0.930 . S
C2098 H2084 0.930 . S
C2098 C2096 1.395 . S
C2098 C2101 1.403 . S
C2099 C2096 1.403 . S
C2099 C2100 1.524 . S
C2099 C2103 1.400 . S
C2100 H2085 0.960 . S
C2100 H2086 0.960 . S
C2100 H2087 0.960 . S
C2100 C2099 1.524 . S
C2101 C2098 1.403 . S
C2101 C2102 1.392 . S
C2101 C2105 1.495 . S
C2102 C2101 1.392 . S
C2102 C2103 1.385 . S
C2102 C2104 1.478 . S
C2103 H2097 0.930 . S
C2103 C2099 1.400 . S
C2103 C2102 1.385 . S
C2104 C2102 1.478 . S
C2104 C2106 1.381 . S
C2104 C2110 1.383 . S
C2105 C2101 1.495 . S
C2105 H2111 0.959 . S
C2105 H2112 0.961 . S
C2105 H2113 0.960 . S
C2106 C2104 1.381 . S
C2106 C2107 1.394 . S
C2106 H2114 0.930 . S
C2107 C2106 1.394 . S
C2107 C2108 1.383 . S
C2107 H2115 0.929 . S
C2108 C2107 1.383 . S
C2108 C2109 1.377 . S
C2109 H2093 0.930 . S
C2109 C2108 1.377 . S
C2109 C2110 1.379 . S
C2110 H2094 0.931 . S
C2110 C2104 1.383 . S
C2110 C2109 1.379 . S
H2111 C2105 0.959 . S
H2112 C2105 0.961 . S
H2113 C2105 0.960 . S
H2114 C2106 0.930 . S
H2115 C2107 0.929 . S
H2116 C2124 0.929 . S
H2117 C2126 0.930 . S
H2118 C2128 0.930 . S
H2119 C2131 0.929 . S
H2120 C2134 0.930 . S
H2121 C2136 0.960 . S
H2122 C2136 0.960 . S
H2123 C2136 0.960 . S
C2124 H2116 0.929 . S
C2124 C2125 1.377 . S
C2124 C2126 1.384 . S
C2125 C2124 1.377 . S
C2125 C2131 1.390 . S
C2126 H2117 0.930 . S
C2126 C2124 1.384 . S
C2126 C2127 1.372 . S
C2127 C2126 1.372 . S
C2127 C2128 1.400 . S
C2127 C2132 1.490 . S
C2128 H2118 0.930 . S
C2128 C2127 1.400 . S
C2128 C2131 1.386 . S
H2129 C2145 0.930 . S
H2130 C2146 0.931 . S
C2131 H2119 0.929 . S
C2131 C2125 1.390 . S
C2131 C2128 1.386 . S
C2132 C2127 1.490 . S
C2132 C2134 1.395 . S
C2132 C2135 1.403 . S
H2133 C2139 0.930 . S
C2134 H2120 0.930 . S
C2134 C2132 1.395 . S
C2134 C2137 1.403 . S
C2135 C2132 1.403 . S
C2135 C2136 1.524 . S
C2135 C2139 1.400 . S
C2136 H2121 0.960 . S
C2136 H2122 0.960 . S
C2136 H2123 0.960 . S
C2136 C2135 1.524 . S
C2137 C2134 1.403 . S
C2137 C2138 1.392 . S
C2137 C2141 1.495 . S
C2138 C2137 1.392 . S
C2138 C2139 1.385 . S
C2138 C2140 1.478 1_565 S
C2139 H2133 0.930 . S
C2139 C2135 1.400 . S
C2139 C2138 1.385 . S
C2140 C2138 1.478 1_545 S
C2140 C2142 1.381 . S
C2140 C2146 1.383 . S
C2141 C2137 1.495 . S
C2141 H2147 0.959 . S
C2141 H2148 0.961 . S
C2141 H2149 0.960 . S
C2142 C2140 1.381 . S
C2142 C2143 1.394 . S
C2142 H2150 0.930 . S
C2143 C2142 1.394 . S
C2143 C2144 1.383 . S
C2143 H2151 0.929 . S
C2144 C2143 1.383 . S
C2144 C2145 1.377 . S
C2145 H2129 0.930 . S
C2145 C2144 1.377 . S
C2145 C2146 1.379 . S
C2146 H2130 0.931 . S
C2146 C2140 1.383 . S
C2146 C2145 1.379 . S
H2147 C2141 0.959 . S
H2148 C2141 0.961 . S
H2149 C2141 0.960 . S
H2150 C2142 0.930 . S
H2151 C2143 0.929 . S
H2152 C2160 0.929 . S
H2153 C2162 0.930 . S
H2154 C2164 0.930 . S
H2155 C2167 0.929 . S
H2156 C2170 0.930 . S
H2157 C2172 0.960 . S
H2158 C2172 0.960 . S
H2159 C2172 0.960 . S
C2160 H2152 0.929 . S
C2160 C2161 1.377 . S
C2160 C2162 1.384 . S
C2161 C2160 1.377 . S
C2161 C2167 1.390 . S
C2162 H2153 0.930 . S
C2162 C2160 1.384 . S
C2162 C2163 1.372 . S
C2163 C2162 1.372 . S
C2163 C2164 1.400 . S
C2163 C2168 1.490 1_545 S
C2164 H2154 0.930 . S
C2164 C2163 1.400 . S
C2164 C2167 1.386 . S
H2165 C2181 0.930 . S
H2166 C2182 0.931 . S
C2167 H2155 0.929 . S
C2167 C2161 1.390 . S
C2167 C2164 1.386 . S
C2168 C2163 1.490 1_565 S
C2168 C2170 1.395 . S
C2168 C2171 1.403 . S
H2169 C2175 0.930 . S
C2170 H2156 0.930 . S
C2170 C2168 1.395 . S
C2170 C2173 1.403 . S
C2171 C2168 1.403 . S
C2171 C2172 1.524 . S
C2171 C2175 1.400 . S
C2172 H2157 0.960 . S
C2172 H2158 0.960 . S
C2172 H2159 0.960 . S
C2172 C2171 1.524 . S
C2173 C2170 1.403 . S
C2173 C2174 1.392 . S
C2173 C2177 1.495 . S
C2174 C2173 1.392 . S
C2174 C2175 1.385 . S
C2174 C2176 1.478 . S
C2175 H2169 0.930 . S
C2175 C2171 1.400 . S
C2175 C2174 1.385 . S
C2176 C2174 1.478 . S
C2176 C2178 1.381 . S
C2176 C2182 1.383 . S
C2177 C2173 1.495 . S
C2177 H2183 0.959 . S
C2177 H2184 0.961 . S
C2177 H2185 0.960 . S
C2178 C2176 1.381 . S
C2178 C2179 1.394 . S
C2178 H2186 0.930 . S
C2179 C2178 1.394 . S
C2179 C2180 1.383 . S
C2179 H2187 0.929 . S
C2180 C2179 1.383 . S
C2180 C2181 1.377 . S
C2181 H2165 0.930 . S
C2181 C2180 1.377 . S
C2181 C2182 1.379 . S
C2182 H2166 0.931 . S
C2182 C2176 1.383 . S
C2182 C2181 1.379 . S
H2183 C2177 0.959 . S
H2184 C2177 0.961 . S
H2185 C2177 0.960 . S
H2186 C2178 0.930 . S
H2187 C2179 0.929 . S
H2188 C2196 0.929 . S
H2189 C2198 0.930 . S
H2190 C2200 0.930 . S
H2191 C2203 0.929 . S
H2192 C2206 0.930 . S
H2193 C2208 0.960 . S
H2194 C2208 0.960 . S
H2195 C2208 0.960 . S
C2196 H2188 0.929 . S
C2196 C2197 1.377 . S
C2196 C2198 1.384 . S
C2197 C2196 1.377 . S
C2197 C2203 1.390 . S
C2198 H2189 0.930 . S
C2198 C2196 1.384 . S
C2198 C2199 1.372 . S
C2199 C2198 1.372 . S
C2199 C2200 1.400 . S
C2199 C2204 1.490 1_565 S
C2200 H2190 0.930 . S
C2200 C2199 1.400 . S
C2200 C2203 1.386 . S
H2201 C2217 0.930 . S
H2202 C2218 0.931 . S
C2203 H2191 0.929 . S
C2203 C2197 1.390 . S
C2203 C2200 1.386 . S
C2204 C2199 1.490 1_545 S
C2204 C2206 1.395 . S
C2204 C2207 1.403 . S
H2205 C2211 0.930 . S
C2206 H2192 0.930 . S
C2206 C2204 1.395 . S
C2206 C2209 1.403 . S
C2207 C2204 1.403 . S
C2207 C2208 1.524 . S
C2207 C2211 1.400 . S
C2208 H2193 0.960 . S
C2208 H2194 0.960 . S
C2208 H2195 0.960 . S
C2208 C2207 1.524 . S
C2209 C2206 1.403 . S
C2209 C2210 1.392 . S
C2209 C2213 1.495 . S
C2210 C2209 1.392 . S
C2210 C2211 1.385 . S
C2210 C2212 1.478 . S
C2211 H2205 0.930 . S
C2211 C2207 1.400 . S
C2211 C2210 1.385 . S
C2212 C2210 1.478 . S
C2212 C2214 1.381 . S
C2212 C2218 1.383 . S
C2213 C2209 1.495 . S
C2213 H2219 0.959 . S
C2213 H2220 0.961 . S
C2213 H2221 0.960 . S
C2214 C2212 1.381 . S
C2214 C2215 1.394 . S
C2214 H2222 0.930 . S
C2215 C2214 1.394 . S
C2215 C2216 1.383 . S
C2215 H2223 0.929 . S
C2216 C2215 1.383 . S
C2216 C2217 1.377 . S
C2217 H2201 0.930 . S
C2217 C2216 1.377 . S
C2217 C2218 1.379 . S
C2218 H2202 0.931 . S
C2218 C2212 1.383 . S
C2218 C2217 1.379 . S
H2219 C2213 0.959 . S
H2220 C2213 0.961 . S
H2221 C2213 0.960 . S
H2222 C2214 0.930 . S
H2223 C2215 0.929 . S
H2224 C2232 0.929 . S
H2225 C2234 0.930 . S
H2226 C2236 0.930 . S
H2227 C2239 0.929 . S
H2228 C2242 0.930 . S
H2229 C2244 0.960 . S
H2230 C2244 0.960 . S
H2231 C2244 0.960 . S
C2232 H2224 0.929 . S
C2232 C2233 1.377 . S
C2232 C2234 1.384 . S
C2233 C2232 1.377 . S
C2233 C2239 1.390 . S
C2234 H2225 0.930 . S
C2234 C2232 1.384 . S
C2234 C2235 1.372 . S
C2235 C2234 1.372 . S
C2235 C2236 1.400 . S
C2235 C2240 1.490 . S
C2236 H2226 0.930 . S
C2236 C2235 1.400 . S
C2236 C2239 1.386 . S
H2237 C2253 0.930 . S
H2238 C2254 0.931 . S
C2239 H2227 0.929 . S
C2239 C2233 1.390 . S
C2239 C2236 1.386 . S
C2240 C2235 1.490 . S
C2240 C2242 1.395 . S
C2240 C2243 1.403 . S
H2241 C2247 0.930 . S
C2242 H2228 0.930 . S
C2242 C2240 1.395 . S
C2242 C2245 1.403 . S
C2243 C2240 1.403 . S
C2243 C2244 1.524 . S
C2243 C2247 1.400 . S
C2244 H2229 0.960 . S
C2244 H2230 0.960 . S
C2244 H2231 0.960 . S
C2244 C2243 1.524 . S
C2245 C2242 1.403 . S
C2245 C2246 1.392 . S
C2245 C2249 1.495 . S
C2246 C2245 1.392 . S
C2246 C2247 1.385 . S
C2246 C2248 1.478 1_565 S
C2247 H2241 0.930 . S
C2247 C2243 1.400 . S
C2247 C2246 1.385 . S
C2248 C2246 1.478 1_545 S
C2248 C2250 1.381 . S
C2248 C2254 1.383 . S
C2249 C2245 1.495 . S
C2249 H2255 0.959 . S
C2249 H2256 0.961 . S
C2249 H2257 0.960 . S
C2250 C2248 1.381 . S
C2250 C2251 1.394 . S
C2250 H2258 0.930 . S
C2251 C2250 1.394 . S
C2251 C2252 1.383 . S
C2251 H2259 0.929 . S
C2252 C2251 1.383 . S
C2252 C2253 1.377 . S
C2253 H2237 0.930 . S
C2253 C2252 1.377 . S
C2253 C2254 1.379 . S
C2254 H2238 0.931 . S
C2254 C2248 1.383 . S
C2254 C2253 1.379 . S
H2255 C2249 0.959 . S
H2256 C2249 0.961 . S
H2257 C2249 0.960 . S
H2258 C2250 0.930 . S
H2259 C2251 0.929 . S
H2260 C2268 0.929 . S
H2261 C2270 0.930 . S
H2262 C2272 0.930 . S
H2263 C2275 0.929 . S
H2264 C2278 0.930 . S
H2265 C2280 0.960 . S
H2266 C2280 0.960 . S
H2267 C2280 0.960 . S
C2268 H2260 0.929 . S
C2268 C2269 1.377 . S
C2268 C2270 1.384 . S
C2269 C2268 1.377 . S
C2269 C2275 1.390 . S
C2270 H2261 0.930 . S
C2270 C2268 1.384 . S
C2270 C2271 1.372 . S
C2271 C2270 1.372 . S
C2271 C2272 1.400 . S
C2271 C2276 1.490 . S
C2272 H2262 0.930 . S
C2272 C2271 1.400 . S
C2272 C2275 1.386 . S
H2273 C2289 0.930 . S
H2274 C2290 0.931 . S
C2275 H2263 0.929 . S
C2275 C2269 1.390 . S
C2275 C2272 1.386 . S
C2276 C2271 1.490 . S
C2276 C2278 1.395 . S
C2276 C2279 1.403 . S
H2277 C2283 0.930 . S
C2278 H2264 0.930 . S
C2278 C2276 1.395 . S
C2278 C2281 1.403 . S
C2279 C2276 1.403 . S
C2279 C2280 1.524 . S
C2279 C2283 1.400 . S
C2280 H2265 0.960 . S
C2280 H2266 0.960 . S
C2280 H2267 0.960 . S
C2280 C2279 1.524 . S
C2281 C2278 1.403 . S
C2281 C2282 1.392 . S
C2281 C2285 1.495 . S
C2282 C2281 1.392 . S
C2282 C2283 1.385 . S
C2282 C2284 1.478 1_545 S
C2283 H2277 0.930 . S
C2283 C2279 1.400 . S
C2283 C2282 1.385 . S
C2284 C2282 1.478 1_565 S
C2284 C2286 1.381 . S
C2284 C2290 1.383 . S
C2285 C2281 1.495 . S
C2285 H2291 0.959 . S
C2285 H2292 0.961 . S
C2285 H2293 0.960 . S
C2286 C2284 1.381 . S
C2286 C2287 1.394 . S
C2286 H2294 0.930 . S
C2287 C2286 1.394 . S
C2287 C2288 1.383 . S
C2287 H2295 0.929 . S
C2288 C2287 1.383 . S
C2288 C2289 1.377 . S
C2289 H2273 0.930 . S
C2289 C2288 1.377 . S
C2289 C2290 1.379 . S
C2290 H2274 0.931 . S
C2290 C2284 1.383 . S
C2290 C2289 1.379 . S
H2291 C2285 0.959 . S
H2292 C2285 0.961 . S
H2293 C2285 0.960 . S
H2294 C2286 0.930 . S
H2295 C2287 0.929 . S
H2296 C2304 0.929 . S
H2297 C2306 0.930 . S
H2298 C2308 0.930 . S
H2299 C2311 0.929 . S
H2300 C2314 0.930 . S
H2301 C2316 0.960 . S
H2302 C2316 0.960 . S
H2303 C2316 0.960 . S
C2304 H2296 0.929 . S
C2304 C2305 1.377 . S
C2304 C2306 1.384 . S
C2305 C2304 1.377 . S
C2305 C2311 1.390 . S
C2306 H2297 0.930 . S
C2306 C2304 1.384 . S
C2306 C2307 1.372 . S
C2307 C2306 1.372 . S
C2307 C2308 1.400 . S
C2307 C2312 1.490 1_565 S
C2308 H2298 0.930 . S
C2308 C2307 1.400 . S
C2308 C2311 1.386 . S
H2309 C2325 0.930 . S
H2310 C2326 0.931 . S
C2311 H2299 0.929 . S
C2311 C2305 1.390 . S
C2311 C2308 1.386 . S
C2312 C2307 1.490 1_545 S
C2312 C2314 1.395 . S
C2312 C2315 1.403 . S
H2313 C2319 0.930 . S
C2314 H2300 0.930 . S
C2314 C2312 1.395 . S
C2314 C2317 1.403 . S
C2315 C2312 1.403 . S
C2315 C2316 1.524 . S
C2315 C2319 1.400 . S
C2316 H2301 0.960 . S
C2316 H2302 0.960 . S
C2316 H2303 0.960 . S
C2316 C2315 1.524 . S
C2317 C2314 1.403 . S
C2317 C2318 1.392 . S
C2317 C2321 1.495 . S
C2318 C2317 1.392 . S
C2318 C2319 1.385 . S
C2318 C2320 1.478 . S
C2319 H2313 0.930 . S
C2319 C2315 1.400 . S
C2319 C2318 1.385 . S
C2320 C2318 1.478 . S
C2320 C2322 1.381 . S
C2320 C2326 1.383 . S
C2321 C2317 1.495 . S
C2321 H2327 0.959 . S
C2321 H2328 0.961 . S
C2321 H2329 0.960 . S
C2322 C2320 1.381 . S
C2322 C2323 1.394 . S
C2322 H2330 0.930 . S
C2323 C2322 1.394 . S
C2323 C2324 1.383 . S
C2323 H2331 0.929 . S
C2324 C2323 1.383 . S
C2324 C2325 1.377 . S
C2325 H2309 0.930 . S
C2325 C2324 1.377 . S
C2325 C2326 1.379 . S
C2326 H2310 0.931 . S
C2326 C2320 1.383 . S
C2326 C2325 1.379 . S
H2327 C2321 0.959 . S
H2328 C2321 0.961 . S
H2329 C2321 0.960 . S
H2330 C2322 0.930 . S
H2331 C2323 0.929 . S
H2332 C2340 0.929 . S
H2333 C2342 0.930 . S
H2334 C2344 0.930 . S
H2335 C2347 0.929 . S
H2336 C2350 0.930 . S
H2337 C2352 0.960 . S
H2338 C2352 0.960 . S
H2339 C2352 0.960 . S
C2340 H2332 0.929 . S
C2340 C2341 1.377 . S
C2340 C2342 1.384 . S
C2341 C2340 1.377 . S
C2341 C2347 1.390 . S
C2342 H2333 0.930 . S
C2342 C2340 1.384 . S
C2342 C2343 1.372 . S
C2343 C2342 1.372 . S
C2343 C2344 1.400 . S
C2343 C2348 1.490 . S
C2344 H2334 0.930 . S
C2344 C2343 1.400 . S
C2344 C2347 1.386 . S
H2345 C2361 0.930 . S
H2346 C2362 0.931 . S
C2347 H2335 0.929 . S
C2347 C2341 1.390 . S
C2347 C2344 1.386 . S
C2348 C2343 1.490 . S
C2348 C2350 1.395 . S
C2348 C2351 1.403 . S
H2349 C2355 0.930 . S
C2350 H2336 0.930 . S
C2350 C2348 1.395 . S
C2350 C2353 1.403 . S
C2351 C2348 1.403 . S
C2351 C2352 1.524 . S
C2351 C2355 1.400 . S
C2352 H2337 0.960 . S
C2352 H2338 0.960 . S
C2352 H2339 0.960 . S
C2352 C2351 1.524 . S
C2353 C2350 1.403 . S
C2353 C2354 1.392 . S
C2353 C2357 1.495 . S
C2354 C2353 1.392 . S
C2354 C2355 1.385 . S
C2354 C2356 1.478 1_565 S
C2355 H2349 0.930 . S
C2355 C2351 1.400 . S
C2355 C2354 1.385 . S
C2356 C2354 1.478 1_545 S
C2356 C2358 1.381 . S
C2356 C2362 1.383 . S
C2357 C2353 1.495 . S
C2357 H2363 0.959 . S
C2357 H2364 0.961 . S
C2357 H2365 0.960 . S
C2358 C2356 1.381 . S
C2358 C2359 1.394 . S
C2358 H2366 0.930 . S
C2359 C2358 1.394 . S
C2359 C2360 1.383 . S
C2359 H2367 0.929 . S
C2360 C2359 1.383 . S
C2360 C2361 1.377 . S
C2361 H2345 0.930 . S
C2361 C2360 1.377 . S
C2361 C2362 1.379 . S
C2362 H2346 0.931 . S
C2362 C2356 1.383 . S
C2362 C2361 1.379 . S
H2363 C2357 0.959 . S
H2364 C2357 0.961 . S
H2365 C2357 0.960 . S
H2366 C2358 0.930 . S
H2367 C2359 0.929 . S
C649 C15 1.897 . S
C668 C375 1.914 . S
C685 C55 1.897 . S
C704 C335 1.914 . S
C721 C455 1.900 . S
C740 C95 1.909 . S
C757 C135 1.895 . S
C776 C415 1.870 . S
C793 C526 1.900 . S
C812 C166 1.900 . S
C829 C486 1.897 . S
C848 C206 1.911 . S
C865 C606 1.895 . S
C884 C246 1.873 . S
C901 C286 1.892 . S
C920 C566 1.885 . S
C937 C98 1.507 . S
C956 C18 1.512 . S
C973 C138 1.517 . S
C992 C58 1.532 . S
C1009 C249 1.512 . S
C1028 C169 1.520 . S
C1045 C209 1.512 . S
C1064 C289 1.523 . S
C1081 C418 1.518 . S
C1100 C338 1.513 . S
C1117 C458 1.518 . S
C1136 C378 1.521 . S
C1153 C489 1.518 . S
C1172 C569 1.487 . S
C1189 C529 1.507 . S
C1208 C609 1.536 . S
C1225 C218 1.516 . S
C1244 C9 1.517 . S
C1261 C178 1.514 . S
C1280 C49 1.483 . S
C1297 C89 1.516 . S
C1316 C298 1.485 . S
C1333 C258 1.517 . S
C1352 C129 1.507 . S
C1369 C329 1.514 . S
C1388 C538 1.526 . S
C1405 C498 1.515 . S
C1424 C369 1.522 . S
C1441 C409 1.507 . S
C1460 C618 1.529 . S
C1477 C578 1.517 . S
C1496 C449 1.501 . S
C1513 C46 2.151 . S
C1532 C6 2.167 . S
C1549 C126 2.153 . S
C1568 C86 2.154 . S
C1585 C215 2.145 . S
C1604 C175 2.122 . S
C1621 C255 2.150 . S
C1640 C295 2.167 . S
C1657 C366 2.151 . S
C1676 C326 2.167 . S
C1693 C446 2.150 . S
C1712 C406 2.166 . S
C1729 C495 2.150 . S
C1748 C535 2.125 . S
C1765 C575 2.150 . S
C1784 C615 2.167 . S
C1801 C10 2.524 . S
C1820 C19 2.511 . S
C1837 C50 2.524 . S
C1856 C59 2.531 . S
C1873 C90 2.522 . S
C1892 C99 2.506 . S
C1909 C139 2.524 . S
C1928 C130 2.516 . S
C1945 C179 2.523 . S
C1964 C170 2.507 . S
C1981 C210 2.522 . S
C2000 C219 2.505 . S
C2017 C259 2.524 . S
C2036 C250 2.515 . S
C2053 C299 2.522 . S
C2072 C290 2.530 . S
C2089 C339 2.522 . S
C2108 C330 2.530 . S
C2125 C370 2.520 . S
C2144 C379 2.520 . S
C2161 C419 2.519 . S
C2180 C410 2.509 . S
C2197 C459 2.522 . S
C2216 C450 2.504 . S
C2233 C499 2.519 . S
C2252 C490 2.507 . S
C2269 C539 2.523 . S
C2288 C530 2.531 . S
C2305 C570 2.525 . S
C2324 C579 2.519 . S
C2341 C619 2.521 . S
C2360 C610 2.528 . S
