# Generated by pormake.
# Topology ukm, (4)-cn, num edge types: 1
# Building blocks:
#     Node 0, Type 0, BuildingBlock: TATPOV_clean_sbu_0, # of connection points: 4
#     Node 1, Type 0, BuildingBlock: TATPOV_clean_sbu_0, # of connection points: 4
#     Node 2, Type 0, BuildingBlock: TATPOV_clean_sbu_0, # of connection points: 4
#     Node 3, Type 0, BuildingBlock: TATPOV_clean_sbu_0, # of connection points: 4
#     Node 4, Type 0, BuildingBlock: TATPOV_clean_sbu_0, # of connection points: 4
#     Node 5, Type 0, BuildingBlock: TATPOV_clean_sbu_0, # of connection points: 4
#     Node 6, Type 0, BuildingBlock: TATPOV_clean_sbu_0, # of connection points: 4
#     Node 7, Type 0, BuildingBlock: TATPOV_clean_sbu_0, # of connection points: 4
#     Node 8, Type 0, BuildingBlock: TATPOV_clean_sbu_0, # of connection points: 4
#     Node 9, Type 0, BuildingBlock: TATPOV_clean_sbu_0, # of connection points: 4
#     Node 10, Type 0, BuildingBlock: TATPOV_clean_sbu_0, # of connection points: 4
#     Node 11, Type 0, BuildingBlock: TATPOV_clean_sbu_0, # of connection points: 4
#     Node 12, Type 0, BuildingBlock: TATPOV_clean_sbu_0, # of connection points: 4
#     Node 13, Type 0, BuildingBlock: TATPOV_clean_sbu_0, # of connection points: 4
#     Node 14, Type 0, BuildingBlock: TATPOV_clean_sbu_0, # of connection points: 4
#     Node 15, Type 0, BuildingBlock: TATPOV_clean_sbu_0, # of connection points: 4
#     Node 16, Type 0, BuildingBlock: TATPOV_clean_sbu_0, # of connection points: 4
#     Node 17, Type 0, BuildingBlock: TATPOV_clean_sbu_0, # of connection points: 4
#     Node 18, Type 0, BuildingBlock: TATPOV_clean_sbu_0, # of connection points: 4
#     Node 19, Type 0, BuildingBlock: TATPOV_clean_sbu_0, # of connection points: 4
#     Node 20, Type 0, BuildingBlock: TATPOV_clean_sbu_0, # of connection points: 4
#     Node 21, Type 0, BuildingBlock: TATPOV_clean_sbu_0, # of connection points: 4
#     Node 22, Type 0, BuildingBlock: TATPOV_clean_sbu_0, # of connection points: 4
#     Node 23, Type 0, BuildingBlock: TATPOV_clean_sbu_0, # of connection points: 4
#     Node 24, Type 0, BuildingBlock: TATPOV_clean_sbu_0, # of connection points: 4
#     Node 25, Type 0, BuildingBlock: TATPOV_clean_sbu_0, # of connection points: 4
#     Node 26, Type 0, BuildingBlock: TATPOV_clean_sbu_0, # of connection points: 4
#     Node 27, Type 0, BuildingBlock: TATPOV_clean_sbu_0, # of connection points: 4
#     Node 28, Type 0, BuildingBlock: TATPOV_clean_sbu_0, # of connection points: 4
#     Node 29, Type 0, BuildingBlock: TATPOV_clean_sbu_0, # of connection points: 4
#     Node 30, Type 0, BuildingBlock: TATPOV_clean_sbu_0, # of connection points: 4
#     Node 31, Type 0, BuildingBlock: TATPOV_clean_sbu_0, # of connection points: 4
#     Edge 32, Type (0, 0), None
#     Edge 33, Type (0, 0), None
#     Edge 34, Type (0, 0), None
#     Edge 35, Type (0, 0), None
#     Edge 36, Type (0, 0), None
#     Edge 37, Type (0, 0), None
#     Edge 38, Type (0, 0), None
#     Edge 39, Type (0, 0), None
#     Edge 40, Type (0, 0), None
#     Edge 41, Type (0, 0), None
#     Edge 42, Type (0, 0), None
#     Edge 43, Type (0, 0), None
#     Edge 44, Type (0, 0), None
#     Edge 45, Type (0, 0), None
#     Edge 46, Type (0, 0), None
#     Edge 47, Type (0, 0), None
#     Edge 48, Type (0, 0), None
#     Edge 49, Type (0, 0), None
#     Edge 50, Type (0, 0), None
#     Edge 51, Type (0, 0), None
#     Edge 52, Type (0, 0), None
#     Edge 53, Type (0, 0), None
#     Edge 54, Type (0, 0), None
#     Edge 55, Type (0, 0), None
#     Edge 56, Type (0, 0), None
#     Edge 57, Type (0, 0), None
#     Edge 58, Type (0, 0), None
#     Edge 59, Type (0, 0), None
#     Edge 60, Type (0, 0), None
#     Edge 61, Type (0, 0), None
#     Edge 62, Type (0, 0), None
#     Edge 63, Type (0, 0), None
#     Edge 64, Type (0, 0), None
#     Edge 65, Type (0, 0), None
#     Edge 66, Type (0, 0), None
#     Edge 67, Type (0, 0), None
#     Edge 68, Type (0, 0), None
#     Edge 69, Type (0, 0), None
#     Edge 70, Type (0, 0), None
#     Edge 71, Type (0, 0), None
#     Edge 72, Type (0, 0), None
#     Edge 73, Type (0, 0), None
#     Edge 74, Type (0, 0), None
#     Edge 75, Type (0, 0), None
#     Edge 76, Type (0, 0), None
#     Edge 77, Type (0, 0), None
#     Edge 78, Type (0, 0), None
#     Edge 79, Type (0, 0), None
#     Edge 80, Type (0, 0), None
#     Edge 81, Type (0, 0), None
#     Edge 82, Type (0, 0), None
#     Edge 83, Type (0, 0), None
#     Edge 84, Type (0, 0), None
#     Edge 85, Type (0, 0), None
#     Edge 86, Type (0, 0), None
#     Edge 87, Type (0, 0), None
#     Edge 88, Type (0, 0), None
#     Edge 89, Type (0, 0), None
#     Edge 90, Type (0, 0), None
#     Edge 91, Type (0, 0), None
#     Edge 92, Type (0, 0), None
#     Edge 93, Type (0, 0), None
#     Edge 94, Type (0, 0), None
#     Edge 95, Type (0, 0), None
# Relax obj value: 0.251
# Max RMSD: 0.201
# Mean RMSD: 0.201
data_MOF--net-ukm--node1-TATPOV_clean_sbu_0--edge1-none
_symmetry_space_group_name_H-M    P1
_symmetry_Int_Tables_number       1
_symmetry_cell_setting            triclinic
loop_
_symmetry_equiv_pos_as_xyz
'x, y, z'
_cell_length_a     13.39111
_cell_length_b     42.446734
_cell_length_c     19.058079
_cell_angle_alpha  88.672879
_cell_angle_beta   89.656753
_cell_angle_gamma 86.163369
loop_
_atom_site_label
_atom_site_type_symbol
_atom_site_fract_x
_atom_site_fract_y
_atom_site_fract_z
_atom_type_partial_charge
Zn0 Zn 0.06447 0.37092 0.08261 0.0
Zn1 Zn 0.24856 0.35684 0.15903 0.0
O2 O 0.18457 0.31442 0.15646 0.0
O3 O 0.04081 0.32466 0.10116 0.0
O4 O 0.38367 0.34826 0.20875 0.0
O5 O 0.0278 0.40553 0.15111 0.0
O6 O 0.17181 0.39371 0.20513 0.0
C7 C 0.10377 0.30528 0.13124 0.0
C8 C 0.2477 0.3808 0.00789 0.0
O9 O 0.29093 0.37117 0.0642 0.0
O10 O 0.1534 0.38221 0.002 0.0
C11 C 0.41002 0.35031 0.27259 0.0
O12 O 0.34317 0.35831 0.32075 0.0
C13 C 0.09058 0.41095 0.19768 0.0
Zn14 Zn 0.23584 0.91613 0.12881 0.0
Zn15 Zn 0.04849 0.9341 0.20469 0.0
O16 O 0.11191 0.97566 0.18746 0.0
O17 O 0.25578 0.96299 0.13386 0.0
O18 O 0.91935 0.94377 0.26214 0.0
O19 O 0.27747 0.88436 0.2056 0.0
O20 O 0.13176 0.89964 0.25355 0.0
C21 C 0.19289 0.98349 0.1587 0.0
C22 C 0.04544 0.90368 0.06423 0.0
O23 O 1.00156 0.91637 0.11671 0.0
O24 O 0.13984 0.90162 0.05793 0.0
C25 C 0.88815 0.93092 0.31872 0.0
O26 O 0.94411 0.90858 0.35097 0.0
C27 C 0.21207 0.88181 0.25289 0.0
Zn28 Zn 0.86771 0.93715 -0.04799 0.0
Zn29 Zn 0.09845 0.93604 -0.07847 0.0
O30 O 0.08433 0.97311 -0.01256 0.0
O31 O 0.91819 0.97861 -0.00733 0.0
O32 O 0.24597 0.92442 0.8948 0.0
O33 O 0.89016 0.92813 0.84755 0.0
O34 O 0.03307 0.95091 0.83308 0.0
C35 C 1.00387 0.9885 0.00623 0.0
C36 C 0.98561 0.89376 0.00723 0.0
O37 O 0.01901 0.89868 -0.05389 0.0
O38 O 0.89189 0.8976 0.01549 0.0
C39 C 0.28636 0.93998 0.8452 0.0
O40 O 0.2343 0.96363 0.81437 0.0
C41 C 0.96027 0.93709 0.80835 0.0
Zn42 Zn 0.43247 0.34088 0.90821 0.0
Zn43 Zn 0.19859 0.34147 0.87711 0.0
O44 O 0.21298 0.30847 -0.04341 0.0
O45 O 0.37902 0.30299 -0.03678 0.0
O46 O 0.05006 0.35113 0.85063 0.0
O47 O 0.41446 0.34366 0.80184 0.0
O48 O 0.27012 0.32189 0.79594 0.0
C49 C 0.29292 0.2942 -0.01927 0.0
C50 C 0.30863 0.38758 -0.05271 0.0
O51 O 0.27543 0.38005 0.88854 0.0
O52 O 0.40216 0.38337 -0.04387 0.0
C53 C 0.01634 0.34358 0.7912 0.0
O54 O 0.07751 0.32992 0.74536 0.0
C55 C 0.3398 0.33629 0.76642 0.0
Zn56 Zn 0.03872 0.73083 0.61343 0.0
Zn57 Zn 0.83207 0.74383 0.57979 0.0
O58 O 0.88339 0.78855 0.5866 0.0
O59 O 0.04404 0.77822 0.61026 0.0
O60 O 0.68607 0.74759 0.54978 0.0
O61 O 0.04695 0.70195 0.5312 0.0
O62 O 0.88697 0.71325 0.50915 0.0
C63 C 0.96951 0.79785 0.60092 0.0
C64 C 0.90172 0.70844 0.71397 0.0
O65 O 0.83543 0.7206 0.67212 0.0
O66 O 0.99416 0.71074 0.70293 0.0
C67 C 0.64647 0.72158 0.53964 0.0
O68 O 0.6979 0.69483 0.55435 0.0
C69 C 0.96883 0.69775 0.49669 0.0
Zn70 Zn 0.69727 0.08146 0.69805 0.0
Zn71 Zn 0.88895 0.06094 0.65453 0.0
O72 O 0.80787 0.02271 0.64605 0.0
O73 O 0.65459 0.03741 0.68084 0.0
O74 O 0.02432 0.04634 0.61938 0.0
O75 O 0.70604 0.11625 0.62479 0.0
O76 O 0.85946 0.10015 0.59519 0.0
C77 C 0.71845 1.0163 0.65994 0.0
C78 C 0.85092 0.0838 0.80175 0.0
O79 O 0.90885 0.07253 0.75421 0.0
O80 O 0.75802 0.08922 0.7915 0.0
C81 C 0.08706 0.06741 0.61891 0.0
O82 O 0.06133 0.0952 0.64485 0.0
C83 C 0.78475 0.1199 0.5895 0.0
Zn84 Zn 0.05415 0.08073 -0.0263 0.0
Zn85 Zn 0.86693 0.08381 0.02322 0.0
O86 O 0.92436 0.03795 0.03127 0.0
O87 O 0.08641 0.03593 0.0115 0.0
O88 O 0.738 0.08512 0.07545 0.0
O89 O 0.08019 0.12204 0.01922 0.0
O90 O 0.92651 0.12288 0.05951 0.0
C91 C 1.00756 0.02193 0.02481 0.0
C92 C 0.8908 0.08694 0.87129 0.0
O93 O 0.83095 0.09028 -0.07714 0.0
O94 O 0.98441 0.08242 0.88011 0.0
C95 C 0.6835 0.06205 0.08382 0.0
O96 O 0.71017 0.03465 0.0564 0.0
C97 C 1.00875 0.13577 0.0526 0.0
Zn98 Zn 0.71119 0.67914 0.87232 0.0
Zn99 Zn 0.88873 0.68838 -0.06525 0.0
O100 O 0.79543 0.7261 -0.03937 0.0
O101 O 0.64877 0.71967 -0.08669 0.0
O102 O 0.01729 0.6942 -0.012 0.0
O103 O 0.7103 0.63435 -0.08896 0.0
O104 O 0.85263 0.64349 -0.03919 0.0
C105 C 0.70595 0.73637 -0.05301 0.0
C106 C 0.8683 0.69463 0.7789 0.0
O107 O 0.92348 0.69462 0.83293 0.0
O108 O 0.77828 0.68756 0.78254 0.0
C109 C 0.04917 0.72062 0.00489 0.0
O110 O 0.9977 0.74704 -0.01237 0.0
C111 C 0.78433 0.62495 -0.05213 0.0
Zn112 Zn 0.92648 0.90136 0.59978 0.0
Zn113 Zn 0.13094 0.87755 0.66938 0.0
O114 O 0.06672 0.83834 0.63856 0.0
O115 O 0.9151 0.85254 0.597 0.0
O116 O 0.27307 0.86503 0.70671 0.0
O117 O 0.92406 0.9245 0.69273 0.0
O118 O 0.05608 0.89969 0.74593 0.0
C119 C 0.98389 0.83136 0.61228 0.0
C120 C 0.09216 0.90722 0.53492 0.0
O121 O 0.12553 0.9116 0.5956 0.0
O122 O 1.00711 0.92028 0.52018 0.0
C123 C 0.28984 0.85027 0.76526 0.0
O124 O 0.21408 0.84242 0.8045 0.0
C125 C 0.98065 0.91966 0.74545 0.0
Zn126 Zn 0.33022 0.40589 0.6137 0.0
Zn127 Zn 0.154 0.41669 0.67808 0.0
O128 O 0.21573 0.45939 0.67593 0.0
O129 O 0.36525 0.4508 0.6281 0.0
O130 O 0.02443 0.42295 0.73502 0.0
O131 O 0.37644 0.36808 0.66969 0.0
O132 O 0.22931 0.3767 0.72047 0.0
C133 C 0.29668 0.46962 0.65187 0.0
C134 C 0.16329 0.4086 0.52347 0.0
O135 O 0.11063 0.41291 0.57851 0.0
O136 O 0.25598 0.40099 0.52678 0.0
C137 C 0.9896 0.44802 0.76475 0.0
O138 O 0.03935 0.47364 0.76146 0.0
C139 C 0.31103 0.35981 0.71276 0.0
Zn140 Zn 0.99031 0.46135 0.3712 0.0
Zn141 Zn 0.19996 0.47193 0.34889 0.0
O142 O 0.14014 0.51628 0.37305 0.0
O143 O 0.98067 0.50837 0.39264 0.0
O144 O 0.34669 0.47442 0.31963 0.0
O145 O 0.98694 0.44148 0.27479 0.0
O146 O 0.1485 0.44827 0.27029 0.0
C147 C 0.05259 0.52641 0.39219 0.0
C148 C 0.13102 0.4261 0.46114 0.0
O149 O 0.19682 0.4414 0.42917 0.0
O150 O 0.03863 0.43128 0.44871 0.0
C151 C 0.38971 0.44887 0.29711 0.0
O152 O 0.3407 0.42315 0.29879 0.0
C153 C 0.07178 0.43671 0.24587 0.0
Zn154 Zn 0.26865 0.83377 0.43676 0.0
Zn155 Zn 0.05238 0.82948 0.39959 0.0
O156 O 0.09988 0.78354 0.42662 0.0
O157 O 0.25661 0.7877 0.46006 0.0
O158 O 0.91138 0.83262 0.35299 0.0
O159 O 0.30132 0.85003 0.33831 0.0
O160 O 0.13773 0.8492 0.33081 0.0
C161 C 0.18276 0.77113 0.45057 0.0
C162 C 0.11702 0.87686 0.50352 0.0
O163 O 0.04858 0.86265 0.47344 0.0
O164 O 0.20867 0.8679 0.49813 0.0
C165 C 0.89391 0.84399 0.29102 0.0
O166 O 0.96863 0.85222 0.25132 0.0
C167 C 0.22032 0.8571 0.30615 0.0
Zn168 Zn 0.10589 0.20711 0.18602 0.0
Zn169 Zn 0.91333 0.22574 0.14258 0.0
O170 O 0.99169 0.26475 0.12766 0.0
O171 O 0.14574 0.25174 0.16309 0.0
O172 O 0.77718 0.23964 0.10672 0.0
O173 O 0.09916 0.17112 0.11822 0.0
O174 O 0.944 0.18559 0.08965 0.0
C175 C 0.08018 0.2722 0.13996 0.0
C176 C 0.95375 0.20351 0.29199 0.0
O177 O 0.89485 0.21444 0.24396 0.0
O178 O 0.04691 0.19893 0.28134 0.0
C179 C 0.71448 0.21856 0.10815 0.0
O180 O 0.74001 0.19066 0.13632 0.0
C181 C 0.01963 0.16612 0.08607 0.0
Zn182 Zn 0.7143 0.56797 0.1159 0.0
Zn183 Zn 0.92325 0.55823 0.09026 0.0
O184 O 0.88271 0.51379 0.11415 0.0
O185 O 0.72189 0.52087 0.13997 0.0
O186 O 0.07001 0.55427 0.06405 0.0
O187 O 0.70289 0.58896 0.01914 0.0
O188 O 0.86702 0.58374 0.00958 0.0
C189 C 0.80162 0.50309 0.13656 0.0
C190 C 0.83877 0.602 0.20345 0.0
O191 O 0.90964 0.58714 0.17068 0.0
O192 O 0.748 0.59742 0.19189 0.0
C193 C 0.10583 0.57969 0.04197 0.0
O194 O 0.04976 0.60627 0.04347 0.0
C195 C 0.78317 0.59547 -0.0118 0.0
Zn196 Zn 0.02951 0.62378 0.35985 0.0
Zn197 Zn 0.85414 0.61121 0.41906 0.0
O198 O 0.94041 0.56949 0.42109 0.0
O199 O 0.09149 0.58 0.38446 0.0
O200 O 0.72814 0.60425 0.47399 0.0
O201 O 0.03821 0.66404 0.41118 0.0
O202 O 0.89668 0.6521 0.4602 0.0
C203 C 0.0296 0.56023 0.40401 0.0
C204 C 0.86569 0.6181 0.2655 0.0
O205 O 0.8104 0.61558 0.3194 0.0
O206 O 0.95675 0.62385 0.2704 0.0
C207 C 0.70392 0.57964 0.50748 0.0
O208 O 0.764 0.5539 0.50808 0.0
C209 C 0.9669 0.67059 0.45237 0.0
Zn210 Zn 0.74866 0.20329 0.46387 0.0
Zn211 Zn 0.93615 0.20146 0.51394 0.0
O212 O 0.87394 0.24651 0.51738 0.0
O213 O 0.71207 0.24734 0.4985 0.0
O214 O 0.06469 0.20082 0.56602 0.0
O215 O 0.72541 0.16204 0.51362 0.0
O216 O 0.87736 0.1627 0.55551 0.0
C217 C 0.78985 0.26195 0.50907 0.0
C218 C 0.91388 0.19931 0.36195 0.0
O219 O 0.97334 0.19562 0.41359 0.0
O220 O 0.82004 0.20301 0.37075 0.0
C221 C 0.11855 0.22399 0.57258 0.0
O222 O 0.09158 0.2515 0.54313 0.0
C223 C 0.79619 0.14931 0.54996 0.0
Zn224 Zn 0.56517 0.37111 0.58191 0.0
Zn225 Zn 0.74918 0.35703 0.65836 0.0
O226 O 0.685 0.31463 0.65593 0.0
O227 O 0.5412 0.32489 0.60071 0.0
O228 O 0.88417 0.34844 0.70824 0.0
O229 O 0.52859 0.40579 0.65023 0.0
O230 O 0.67247 0.39392 0.70437 0.0
C231 C 0.60409 0.3055 0.63084 0.0
C232 C 0.74851 0.38091 0.50721 0.0
O233 O 0.79176 0.3713 0.56353 0.0
O234 O 0.65422 0.38231 0.50133 0.0
C235 C 0.91021 0.35034 0.77218 0.0
O236 O 0.8431 0.35815 0.8203 0.0
C237 C 0.59132 0.41119 0.69684 0.0
Zn238 Zn 0.73535 0.91612 0.62854 0.0
Zn239 Zn 0.54817 0.93404 0.70453 0.0
O240 O 0.61181 0.97562 0.68747 0.0
O241 O 0.75562 0.96296 0.63378 0.0
O242 O 0.41904 0.94368 0.76206 0.0
O243 O 0.77688 0.88422 0.70509 0.0
O244 O 0.63126 0.89946 0.75323 0.0
C245 C 0.69279 0.98346 0.6587 0.0
C246 C 0.54492 0.90387 0.56378 0.0
O247 O 0.5011 0.91648 0.61638 0.0
O248 O 0.63932 0.90178 0.5575 0.0
C249 C 0.38789 0.93076 0.81858 0.0
O250 O 0.44389 0.90837 0.85065 0.0
C251 C 0.71152 0.88161 0.75238 0.0
Zn252 Zn 0.36758 0.93761 0.45117 0.0
Zn253 Zn 0.59846 0.93637 0.4212 0.0
O254 O 0.58428 0.97341 0.48716 0.0
O255 O 0.41813 0.979 0.49204 0.0
O256 O 0.74603 0.92466 0.39479 0.0
O257 O 0.39046 0.92861 0.34673 0.0
O258 O 0.5336 0.95128 0.33258 0.0
C259 C 0.50381 0.98883 0.50584 0.0
C260 C 0.48505 0.89413 0.50662 0.0
O261 O 0.51867 0.89907 0.44556 0.0
O262 O 0.39134 0.89809 0.51476 0.0
C263 C 0.7866 0.94019 0.34523 0.0
O264 O 0.73471 0.96385 0.31431 0.0
C265 C 0.46082 0.93751 0.30768 0.0
Zn266 Zn 0.93287 0.3409 0.40756 0.0
Zn267 Zn 0.69887 0.34151 0.3769 0.0
O268 O 0.7134 0.3086 0.45652 0.0
O269 O 0.87948 0.30307 0.46286 0.0
O270 O 0.55027 0.35122 0.35066 0.0
O271 O 0.91427 0.34358 0.30121 0.0
O272 O 0.76994 0.32177 0.29575 0.0
C273 C 0.7934 0.29432 0.48056 0.0
C274 C 0.80939 0.38764 0.44655 0.0
O275 O 0.77611 0.38004 0.38787 0.0
O276 O 0.90294 0.38347 0.45531 0.0
C277 C 0.5162 0.34352 0.29145 0.0
O278 O 0.57704 0.32966 0.24568 0.0
C279 C 0.83952 0.33612 0.26598 0.0
Zn280 Zn 0.53847 0.7308 0.11529 0.0
Zn281 Zn 0.3321 0.74364 0.08104 0.0
O282 O 0.38359 0.78839 0.08771 0.0
O283 O 0.54406 0.77813 0.11204 0.0
O284 O 0.18661 0.74734 0.04959 0.0
O285 O 0.5489 0.70198 0.0331 0.0
O286 O 0.38848 0.71272 0.01167 0.0
C287 C 0.46958 0.79773 0.10226 0.0
C288 C 0.40007 0.70846 0.21546 0.0
O289 O 0.33387 0.72067 0.1736 0.0
O290 O 0.49255 0.71069 0.20446 0.0
C291 C 0.14712 0.72133 0.03916 0.0
O292 O 0.19821 0.69458 0.05436 0.0
C293 C 0.47063 0.6974 -0.00089 0.0
Zn294 Zn 0.19722 0.08148 0.198 0.0
Zn295 Zn 0.38898 0.06095 0.15459 0.0
O296 O 0.30793 0.02274 0.14611 0.0
O297 O 0.15461 0.03744 0.18083 0.0
O298 O 0.52437 0.04626 0.1197 0.0
O299 O 0.20626 0.11618 0.1246 0.0
O300 O 0.35963 0.10006 0.09492 0.0
C301 C 0.2185 1.01634 0.15993 0.0
C302 C 0.35068 0.08398 0.30172 0.0
O303 O 0.40865 0.07269 0.25422 0.0
O304 O 0.25776 0.08934 0.29146 0.0
C305 C 0.58715 0.06731 0.11907 0.0
O306 O 0.56143 0.09517 0.1447 0.0
C307 C 0.28488 0.11979 0.08919 0.0
Zn308 Zn 0.55403 0.08102 0.47362 0.0
Zn309 Zn 0.36677 0.0841 0.52314 0.0
O310 O 0.42436 0.03826 0.53103 0.0
O311 O 0.58645 0.03623 0.51139 0.0
O312 O 0.23788 0.08532 0.57546 0.0
O313 O 0.58012 0.12229 0.51919 0.0
O314 O 0.42639 0.12317 0.5594 0.0
C315 C 0.50755 0.02223 0.5246 0.0
C316 C 0.39054 0.08719 0.37123 0.0
O317 O 0.33068 0.09057 0.4228 0.0
O318 O 0.48415 0.08269 0.38008 0.0
C319 C 0.18338 0.06224 0.58355 0.0
O320 O 0.21001 0.03491 0.55577 0.0
C321 C 0.50867 0.13604 0.55253 0.0
Zn322 Zn 0.21018 0.67952 0.37429 0.0
Zn323 Zn 0.38719 0.68875 0.43642 0.0
O324 O 0.29441 0.72652 0.4627 0.0
O325 O 0.14845 0.72032 0.4141 0.0
O326 O 0.51612 0.69445 0.48921 0.0
O327 O 0.20754 0.63496 0.4141 0.0
O328 O 0.35103 0.64388 0.46248 0.0
C329 C 0.20529 0.73691 0.44833 0.0
C330 C 0.36663 0.69471 0.28044 0.0
O331 O 0.4215 0.69501 0.33456 0.0
O332 O 0.27684 0.68739 0.28403 0.0
C333 C 0.54811 0.72086 0.506 0.0
O334 O 0.49648 0.74729 0.48898 0.0
C335 C 0.28213 0.62545 0.45026 0.0
Zn336 Zn 0.42676 0.90123 0.09965 0.0
Zn337 Zn 0.63143 0.8776 0.16922 0.0
O338 O 0.56685 0.83833 0.1392 0.0
O339 O 0.41516 0.85241 0.09761 0.0
O340 O 0.77355 0.86512 0.2066 0.0
O341 O 0.42449 0.92466 0.19223 0.0
O342 O 0.5569 0.9001 0.24545 0.0
C343 C 0.48395 0.83127 0.11315 0.0
C344 C 0.59243 0.90674 0.03425 0.0
O345 O 0.62623 0.91131 0.09472 0.0
O346 O 0.50731 0.91978 0.01958 0.0
C347 C 0.79021 0.85051 0.26533 0.0
O348 O 0.71438 0.84279 0.30465 0.0
C349 C 0.48138 0.92004 0.24486 0.0
Zn350 Zn 0.82925 0.40522 0.1121 0.0
Zn351 Zn 0.65338 0.41636 0.17729 0.0
O352 O 0.71547 0.45899 0.1744 0.0
O353 O 0.86428 0.45023 0.12557 0.0
O354 O 0.5242 0.42284 0.23464 0.0
O355 O 0.87573 0.36765 0.16874 0.0
O356 O 0.72888 0.37643 0.21984 0.0
C357 C 0.79617 0.46913 0.14967 0.0
C358 C 0.66139 0.40777 0.02277 0.0
O359 O 0.60931 0.41239 0.07796 0.0
O360 O 0.75392 0.39987 0.02582 0.0
C361 C 0.48924 0.4481 0.26356 0.0
O362 O 0.53857 0.47378 0.25902 0.0
C363 C 0.81053 0.35951 0.21212 0.0
Zn364 Zn 0.48975 0.46114 0.87088 0.0
Zn365 Zn 0.69977 0.47159 0.84932 0.0
O366 O 0.64012 0.51586 0.87402 0.0
O367 O 0.48037 0.5081 0.89288 0.0
O368 O 0.84681 0.47411 0.82096 0.0
O369 O 0.4875 0.44148 0.77422 0.0
O370 O 0.649 0.44838 0.76983 0.0
C371 C 0.55254 0.52603 0.89297 0.0
C372 C 0.62948 0.42546 -0.03938 0.0
O373 O 0.69562 0.44073 -0.07107 0.0
O374 O 0.53717 0.43089 -0.05177 0.0
C375 C 0.88978 0.44868 0.79782 0.0
O376 O 0.84049 0.42302 0.79839 0.0
C377 C 0.57233 0.43687 0.7452 0.0
Zn378 Zn 0.76858 0.8333 -0.06413 0.0
Zn379 Zn 0.55238 0.82899 0.89905 0.0
O380 O 0.60009 0.78297 -0.07433 0.0
O381 O 0.75683 0.7872 -0.04101 0.0
O382 O 0.41121 0.8322 0.85265 0.0
O383 O 0.80098 0.84968 0.83747 0.0
O384 O 0.63736 0.84888 0.83021 0.0
C385 C 0.68308 0.77059 -0.05053 0.0
C386 C 0.61722 0.87632 0.00308 0.0
O387 O 0.54871 0.86207 -0.02684 0.0
O388 O 0.70888 0.86741 -0.00256 0.0
C389 C 0.39358 0.84371 0.79082 0.0
O390 O 0.4682 0.85204 0.75113 0.0
C391 C 0.71987 0.85682 0.80549 0.0
Zn392 Zn 0.60601 0.20735 0.68599 0.0
Zn393 Zn 0.41343 0.22601 0.64249 0.0
O394 O 0.49181 0.26502 0.62749 0.0
O395 O 0.64587 0.25197 0.66288 0.0
O396 O 0.27718 0.23987 0.60672 0.0
O397 O 0.59908 0.17132 0.61832 0.0
O398 O 0.44408 0.18589 0.58948 0.0
C399 C 0.58035 0.27245 0.63972 0.0
C400 C 0.45389 0.20374 0.79192 0.0
O401 O 0.39501 0.21465 0.74386 0.0
O402 O 0.54708 0.1992 0.78132 0.0
C403 C 0.21464 0.21874 0.60813 0.0
O404 O 0.24036 0.19085 0.63625 0.0
C405 C 0.51962 0.16638 0.58603 0.0
Zn406 Zn 0.21478 0.56839 0.61806 0.0
Zn407 Zn 0.42344 0.55873 0.59188 0.0
O408 O 0.38285 0.51432 0.6162 0.0
O409 O 0.22216 0.52135 0.64245 0.0
O410 O 0.56973 0.55468 0.56423 0.0
O411 O 0.20127 0.58917 0.52122 0.0
O412 O 0.36547 0.58443 0.51206 0.0
C413 C 0.30195 0.5036 0.6389 0.0
C414 C 0.3406 0.60248 0.70515 0.0
O415 O 0.41143 0.58754 0.67248 0.0
O416 O 0.24979 0.59795 0.69353 0.0
C417 C 0.60537 0.58002 0.54145 0.0
O418 O 0.5495 0.60664 0.54301 0.0
C419 C 0.28145 0.59595 0.49052 0.0
Zn420 Zn 0.53062 0.62342 0.86242 0.0
Zn421 Zn 0.35537 0.61106 -0.07917 0.0
O422 O 0.441 0.56919 -0.07747 0.0
O423 O 0.59213 0.57952 0.88573 0.0
O424 O 0.22909 0.60411 -0.02461 0.0
O425 O 0.54108 0.66331 -0.08526 0.0
O426 O 0.398 0.65191 -0.03786 0.0
C427 C 0.53 0.55983 0.90518 0.0
C428 C 0.3674 0.61844 0.76741 0.0
O429 O 0.31202 0.6157 0.82119 0.0
O430 O 0.45844 0.62417 0.77257 0.0
C431 C 0.20471 0.57943 0.00853 0.0
O432 O 0.26479 0.55369 0.00899 0.0
C433 C 0.46905 0.67012 -0.04489 0.0
Zn434 Zn 0.24841 0.20319 -0.03642 0.0
Zn435 Zn 0.43595 0.20142 0.01386 0.0
O436 O 0.37354 0.24644 0.0176 0.0
O437 O 0.21171 0.2472 -0.00163 0.0
O438 O 0.56441 0.20074 0.06604 0.0
O439 O 0.22535 0.1619 0.01327 0.0
O440 O 0.37729 0.16261 0.05517 0.0
C441 C 0.28938 0.26182 0.00921 0.0
C442 C 0.41392 0.19944 0.86183 0.0
O443 O 0.47331 0.19574 -0.0865 0.0
O444 O 0.32005 0.20304 0.87054 0.0
C445 C 0.61845 0.22386 0.07254 0.0
O446 O 0.59173 0.25136 0.04297 0.0
C447 C 0.29621 0.14918 0.04958 0.0
loop_
_geom_bond_atom_site_label_1
_geom_bond_atom_site_label_2
_geom_bond_distance
_geom_bond_site_symmetry_2
_ccdc_geom_bond_type
Zn0 O3 2.031 . S
Zn0 O5 2.049 . S
Zn0 O10 2.067 1_655 S
Zn1 O2 1.962 . S
Zn1 O4 1.986 . S
Zn1 O6 1.996 . S
Zn1 O9 1.943 . S
O2 Zn1 1.962 . S
O2 C7 1.254 1_455 S
O3 Zn0 2.031 . S
O3 C7 1.269 . S
O4 Zn1 1.986 . S
O4 C11 1.262 . S
O5 Zn0 2.049 . S
O5 C13 1.260 1_655 S
O6 Zn1 1.996 . S
O6 C13 1.257 . S
C7 O2 1.254 1_655 S
C7 O3 1.269 . S
C8 O9 1.249 . S
C8 O10 1.270 . S
O9 Zn1 1.943 . S
O9 C8 1.249 . S
O10 Zn0 2.067 1_455 S
O10 C8 1.270 . S
C11 O4 1.262 . S
C11 O12 1.232 . S
O12 C11 1.232 . S
C13 O5 1.260 1_455 S
C13 O6 1.257 . S
Zn14 O17 2.031 . S
Zn14 O19 2.049 . S
Zn14 O24 2.067 . S
Zn15 O16 1.962 . S
Zn15 O18 1.986 1_455 S
Zn15 O20 1.996 . S
Zn15 O23 1.943 . S
O16 Zn15 1.962 . S
O16 C21 1.254 . S
O17 Zn14 2.031 . S
O17 C21 1.269 . S
O18 Zn15 1.986 1_655 S
O18 C25 1.262 . S
O19 Zn14 2.049 . S
O19 C27 1.260 . S
O20 Zn15 1.996 . S
O20 C27 1.257 . S
C21 O16 1.254 . S
C21 O17 1.269 . S
C22 O23 1.249 . S
C22 O24 1.270 . S
O23 Zn15 1.943 . S
O23 C22 1.249 . S
O24 Zn14 2.067 . S
O24 C22 1.270 . S
C25 O18 1.262 . S
C25 O26 1.232 . S
O26 C25 1.232 . S
C27 O19 1.260 . S
C27 O20 1.257 . S
Zn28 O31 2.031 . S
Zn28 O33 2.049 . S
Zn28 O38 2.067 1_656 S
Zn29 O30 1.962 . S
Zn29 O32 1.986 . S
Zn29 O34 1.996 . S
Zn29 O37 1.943 1_556 S
O30 Zn29 1.962 . S
O30 C35 1.254 1_455 S
O31 Zn28 2.031 . S
O31 C35 1.269 . S
O32 Zn29 1.986 . S
O32 C39 1.262 . S
O33 Zn28 2.049 . S
O33 C41 1.260 1_655 S
O34 Zn29 1.996 . S
O34 C41 1.257 . S
C35 O30 1.254 1_655 S
C35 O31 1.269 . S
C36 O37 1.249 . S
C36 O38 1.270 . S
O37 Zn29 1.943 1_554 S
O37 C36 1.249 . S
O38 Zn28 2.067 1_454 S
O38 C36 1.270 . S
C39 O32 1.262 . S
C39 O40 1.232 . S
O40 C39 1.232 . S
C41 O33 1.260 1_455 S
C41 O34 1.257 . S
Zn42 O45 2.031 . S
Zn42 O47 2.049 . S
Zn42 O52 2.067 1_556 S
Zn43 O44 1.962 . S
Zn43 O46 1.986 1_455 S
Zn43 O48 1.996 . S
Zn43 O51 1.943 1_556 S
O44 Zn43 1.962 . S
O44 C49 1.254 . S
O45 Zn42 2.031 . S
O45 C49 1.269 . S
O46 Zn43 1.986 1_655 S
O46 C53 1.262 . S
O47 Zn42 2.049 . S
O47 C55 1.260 . S
O48 Zn43 1.996 . S
O48 C55 1.257 . S
C49 O44 1.254 . S
C49 O45 1.269 . S
C50 O51 1.249 . S
C50 O52 1.270 . S
O51 Zn43 1.943 1_554 S
O51 C50 1.249 . S
O52 Zn42 2.067 1_554 S
O52 C50 1.270 . S
C53 O46 1.262 . S
C53 O54 1.232 . S
O54 C53 1.232 . S
C55 O47 1.260 . S
C55 O48 1.257 . S
Zn56 O59 2.031 . S
Zn56 O61 2.049 . S
Zn56 O66 2.067 1_455 S
Zn57 O58 1.962 . S
Zn57 O60 1.986 . S
Zn57 O62 1.996 . S
Zn57 O65 1.943 . S
O58 Zn57 1.962 . S
O58 C63 1.254 1_655 S
O59 Zn56 2.031 . S
O59 C63 1.269 . S
O60 Zn57 1.986 . S
O60 C67 1.262 . S
O61 Zn56 2.049 . S
O61 C69 1.260 1_455 S
O62 Zn57 1.996 . S
O62 C69 1.257 . S
C63 O58 1.254 1_455 S
C63 O59 1.269 . S
C64 O65 1.249 . S
C64 O66 1.270 . S
O65 Zn57 1.943 . S
O65 C64 1.249 . S
O66 Zn56 2.067 1_655 S
O66 C64 1.270 . S
C67 O60 1.262 . S
C67 O68 1.232 . S
O68 C67 1.232 . S
C69 O61 1.260 1_655 S
C69 O62 1.257 . S
Zn70 O73 2.031 . S
Zn70 O75 2.049 . S
Zn70 O80 2.067 . S
Zn71 O72 1.962 . S
Zn71 O74 1.986 1_655 S
Zn71 O76 1.996 . S
Zn71 O79 1.943 . S
O72 Zn71 1.962 . S
O72 C77 1.254 . S
O73 Zn70 2.031 . S
O73 C77 1.269 . S
O74 Zn71 1.986 1_455 S
O74 C81 1.262 . S
O75 Zn70 2.049 . S
O75 C83 1.260 . S
O76 Zn71 1.996 . S
O76 C83 1.257 . S
C77 O72 1.254 . S
C77 O73 1.269 . S
C78 O79 1.249 . S
C78 O80 1.270 . S
O79 Zn71 1.943 . S
O79 C78 1.249 . S
O80 Zn70 2.067 . S
O80 C78 1.270 . S
C81 O74 1.262 . S
C81 O82 1.232 . S
O82 C81 1.232 . S
C83 O75 1.260 . S
C83 O76 1.257 . S
Zn84 O87 2.031 . S
Zn84 O89 2.049 . S
Zn84 O94 2.067 1_454 S
Zn85 O86 1.962 . S
Zn85 O88 1.986 . S
Zn85 O90 1.996 . S
Zn85 O93 1.943 1_554 S
O86 Zn85 1.962 . S
O86 C91 1.254 1_655 S
O87 Zn84 2.031 . S
O87 C91 1.269 . S
O88 Zn85 1.986 . S
O88 C95 1.262 . S
O89 Zn84 2.049 . S
O89 C97 1.260 1_455 S
O90 Zn85 1.996 . S
O90 C97 1.257 . S
C91 O86 1.254 1_455 S
C91 O87 1.269 . S
C92 O93 1.249 . S
C92 O94 1.270 . S
O93 Zn85 1.943 1_556 S
O93 C92 1.249 . S
O94 Zn84 2.067 1_656 S
O94 C92 1.270 . S
C95 O88 1.262 . S
C95 O96 1.232 . S
O96 C95 1.232 . S
C97 O89 1.260 1_655 S
C97 O90 1.257 . S
Zn98 O101 2.031 . S
Zn98 O103 2.049 . S
Zn98 O108 2.067 1_554 S
Zn99 O100 1.962 . S
Zn99 O102 1.986 1_655 S
Zn99 O104 1.996 . S
Zn99 O107 1.943 1_554 S
O100 Zn99 1.962 . S
O100 C105 1.254 . S
O101 Zn98 2.031 . S
O101 C105 1.269 . S
O102 Zn99 1.986 1_455 S
O102 C109 1.262 . S
O103 Zn98 2.049 . S
O103 C111 1.260 . S
O104 Zn99 1.996 . S
O104 C111 1.257 . S
C105 O100 1.254 . S
C105 O101 1.269 . S
C106 O107 1.249 . S
C106 O108 1.270 . S
O107 Zn99 1.943 1_556 S
O107 C106 1.249 . S
O108 Zn98 2.067 1_556 S
O108 C106 1.270 . S
C109 O102 1.262 . S
C109 O110 1.232 . S
O110 C109 1.232 . S
C111 O103 1.260 . S
C111 O104 1.257 . S
Zn112 O115 2.031 . S
Zn112 O117 2.049 . S
Zn112 O122 2.067 1_655 S
Zn113 O114 1.962 . S
Zn113 O116 1.986 . S
Zn113 O118 1.996 . S
Zn113 O121 1.943 . S
O114 Zn113 1.962 . S
O114 C119 1.254 1_455 S
O115 Zn112 2.031 . S
O115 C119 1.269 . S
O116 Zn113 1.986 . S
O116 C123 1.262 . S
O117 Zn112 2.049 . S
O117 C125 1.260 1_655 S
O118 Zn113 1.996 . S
O118 C125 1.257 . S
C119 O114 1.254 1_655 S
C119 O115 1.269 . S
C120 O121 1.249 . S
C120 O122 1.270 . S
O121 Zn113 1.943 . S
O121 C120 1.249 . S
O122 Zn112 2.067 1_455 S
O122 C120 1.270 . S
C123 O116 1.262 . S
C123 O124 1.232 . S
O124 C123 1.232 . S
C125 O117 1.260 1_455 S
C125 O118 1.257 . S
Zn126 O129 2.031 . S
Zn126 O131 2.049 . S
Zn126 O136 2.067 . S
Zn127 O128 1.962 . S
Zn127 O130 1.986 1_455 S
Zn127 O132 1.996 . S
Zn127 O135 1.943 . S
O128 Zn127 1.962 . S
O128 C133 1.254 . S
O129 Zn126 2.031 . S
O129 C133 1.269 . S
O130 Zn127 1.986 1_655 S
O130 C137 1.262 . S
O131 Zn126 2.049 . S
O131 C139 1.260 . S
O132 Zn127 1.996 . S
O132 C139 1.257 . S
C133 O128 1.254 . S
C133 O129 1.269 . S
C134 O135 1.249 . S
C134 O136 1.270 . S
O135 Zn127 1.943 . S
O135 C134 1.249 . S
O136 Zn126 2.067 . S
O136 C134 1.270 . S
C137 O130 1.262 . S
C137 O138 1.232 . S
O138 C137 1.232 . S
C139 O131 1.260 . S
C139 O132 1.257 . S
Zn140 O143 2.031 . S
Zn140 O145 2.049 . S
Zn140 O150 2.067 1_655 S
Zn141 O142 1.962 . S
Zn141 O144 1.986 . S
Zn141 O146 1.996 . S
Zn141 O149 1.943 . S
O142 Zn141 1.962 . S
O142 C147 1.254 1_455 S
O143 Zn140 2.031 . S
O143 C147 1.269 . S
O144 Zn141 1.986 . S
O144 C151 1.262 . S
O145 Zn140 2.049 . S
O145 C153 1.260 1_655 S
O146 Zn141 1.996 . S
O146 C153 1.257 . S
C147 O142 1.254 1_655 S
C147 O143 1.269 . S
C148 O149 1.249 . S
C148 O150 1.270 . S
O149 Zn141 1.943 . S
O149 C148 1.249 . S
O150 Zn140 2.067 1_455 S
O150 C148 1.270 . S
C151 O144 1.262 . S
C151 O152 1.232 . S
O152 C151 1.232 . S
C153 O145 1.260 1_455 S
C153 O146 1.257 . S
Zn154 O157 2.031 . S
Zn154 O159 2.049 . S
Zn154 O164 2.067 . S
Zn155 O156 1.962 . S
Zn155 O158 1.986 1_455 S
Zn155 O160 1.996 . S
Zn155 O163 1.943 . S
O156 Zn155 1.962 . S
O156 C161 1.254 . S
O157 Zn154 2.031 . S
O157 C161 1.269 . S
O158 Zn155 1.986 1_655 S
O158 C165 1.262 . S
O159 Zn154 2.049 . S
O159 C167 1.260 . S
O160 Zn155 1.996 . S
O160 C167 1.257 . S
C161 O156 1.254 . S
C161 O157 1.269 . S
C162 O163 1.249 . S
C162 O164 1.270 . S
O163 Zn155 1.943 . S
O163 C162 1.249 . S
O164 Zn154 2.067 . S
O164 C162 1.270 . S
C165 O158 1.262 . S
C165 O166 1.232 . S
O166 C165 1.232 . S
C167 O159 1.260 . S
C167 O160 1.257 . S
Zn168 O171 2.031 . S
Zn168 O173 2.049 . S
Zn168 O178 2.067 1_455 S
Zn169 O170 1.962 . S
Zn169 O172 1.986 . S
Zn169 O174 1.996 . S
Zn169 O177 1.943 . S
O170 Zn169 1.962 . S
O170 C175 1.254 1_655 S
O171 Zn168 2.031 . S
O171 C175 1.269 . S
O172 Zn169 1.986 . S
O172 C179 1.262 . S
O173 Zn168 2.049 . S
O173 C181 1.260 1_455 S
O174 Zn169 1.996 . S
O174 C181 1.257 . S
C175 O170 1.254 1_455 S
C175 O171 1.269 . S
C176 O177 1.249 . S
C176 O178 1.270 . S
O177 Zn169 1.943 . S
O177 C176 1.249 . S
O178 Zn168 2.067 1_655 S
O178 C176 1.270 . S
C179 O172 1.262 . S
C179 O180 1.232 . S
O180 C179 1.232 . S
C181 O173 1.260 1_655 S
C181 O174 1.257 . S
Zn182 O185 2.031 . S
Zn182 O187 2.049 . S
Zn182 O192 2.067 . S
Zn183 O184 1.962 . S
Zn183 O186 1.986 1_655 S
Zn183 O188 1.996 . S
Zn183 O191 1.943 . S
O184 Zn183 1.962 . S
O184 C189 1.254 . S
O185 Zn182 2.031 . S
O185 C189 1.269 . S
O186 Zn183 1.986 1_455 S
O186 C193 1.262 . S
O187 Zn182 2.049 . S
O187 C195 1.260 . S
O188 Zn183 1.996 . S
O188 C195 1.257 . S
C189 O184 1.254 . S
C189 O185 1.269 . S
C190 O191 1.249 . S
C190 O192 1.270 . S
O191 Zn183 1.943 . S
O191 C190 1.249 . S
O192 Zn182 2.067 . S
O192 C190 1.270 . S
C193 O186 1.262 . S
C193 O194 1.232 . S
O194 C193 1.232 . S
C195 O187 1.260 . S
C195 O188 1.257 . S
Zn196 O199 2.031 . S
Zn196 O201 2.049 . S
Zn196 O206 2.067 1_455 S
Zn197 O198 1.962 . S
Zn197 O200 1.986 . S
Zn197 O202 1.996 . S
Zn197 O205 1.943 . S
O198 Zn197 1.962 . S
O198 C203 1.254 1_655 S
O199 Zn196 2.031 . S
O199 C203 1.269 . S
O200 Zn197 1.986 . S
O200 C207 1.262 . S
O201 Zn196 2.049 . S
O201 C209 1.260 1_455 S
O202 Zn197 1.996 . S
O202 C209 1.257 . S
C203 O198 1.254 1_455 S
C203 O199 1.269 . S
C204 O205 1.249 . S
C204 O206 1.270 . S
O205 Zn197 1.943 . S
O205 C204 1.249 . S
O206 Zn196 2.067 1_655 S
O206 C204 1.270 . S
C207 O200 1.262 . S
C207 O208 1.232 . S
O208 C207 1.232 . S
C209 O201 1.260 1_655 S
C209 O202 1.257 . S
Zn210 O213 2.031 . S
Zn210 O215 2.049 . S
Zn210 O220 2.067 . S
Zn211 O212 1.962 . S
Zn211 O214 1.986 1_655 S
Zn211 O216 1.996 . S
Zn211 O219 1.943 . S
O212 Zn211 1.962 . S
O212 C217 1.254 . S
O213 Zn210 2.031 . S
O213 C217 1.269 . S
O214 Zn211 1.986 1_455 S
O214 C221 1.262 . S
O215 Zn210 2.049 . S
O215 C223 1.260 . S
O216 Zn211 1.996 . S
O216 C223 1.257 . S
C217 O212 1.254 . S
C217 O213 1.269 . S
C218 O219 1.249 . S
C218 O220 1.270 . S
O219 Zn211 1.943 . S
O219 C218 1.249 . S
O220 Zn210 2.067 . S
O220 C218 1.270 . S
C221 O214 1.262 . S
C221 O222 1.232 . S
O222 C221 1.232 . S
C223 O215 1.260 . S
C223 O216 1.257 . S
Zn224 O227 2.031 . S
Zn224 O229 2.049 . S
Zn224 O234 2.067 . S
Zn225 O226 1.962 . S
Zn225 O228 1.986 . S
Zn225 O230 1.996 . S
Zn225 O233 1.943 . S
O226 Zn225 1.962 . S
O226 C231 1.254 . S
O227 Zn224 2.031 . S
O227 C231 1.269 . S
O228 Zn225 1.986 . S
O228 C235 1.262 . S
O229 Zn224 2.049 . S
O229 C237 1.260 . S
O230 Zn225 1.996 . S
O230 C237 1.257 . S
C231 O226 1.254 . S
C231 O227 1.269 . S
C232 O233 1.249 . S
C232 O234 1.270 . S
O233 Zn225 1.943 . S
O233 C232 1.249 . S
O234 Zn224 2.067 . S
O234 C232 1.270 . S
C235 O228 1.262 . S
C235 O236 1.232 . S
O236 C235 1.232 . S
C237 O229 1.260 . S
C237 O230 1.257 . S
Zn238 O241 2.031 . S
Zn238 O243 2.049 . S
Zn238 O248 2.067 . S
Zn239 O240 1.962 . S
Zn239 O242 1.986 . S
Zn239 O244 1.996 . S
Zn239 O247 1.943 . S
O240 Zn239 1.962 . S
O240 C245 1.254 . S
O241 Zn238 2.031 . S
O241 C245 1.269 . S
O242 Zn239 1.986 . S
O242 C249 1.262 . S
O243 Zn238 2.049 . S
O243 C251 1.260 . S
O244 Zn239 1.996 . S
O244 C251 1.257 . S
C245 O240 1.254 . S
C245 O241 1.269 . S
C246 O247 1.249 . S
C246 O248 1.270 . S
O247 Zn239 1.943 . S
O247 C246 1.249 . S
O248 Zn238 2.067 . S
O248 C246 1.270 . S
C249 O242 1.262 . S
C249 O250 1.232 . S
O250 C249 1.232 . S
C251 O243 1.260 . S
C251 O244 1.257 . S
Zn252 O255 2.031 . S
Zn252 O257 2.049 . S
Zn252 O262 2.067 . S
Zn253 O254 1.962 . S
Zn253 O256 1.986 . S
Zn253 O258 1.996 . S
Zn253 O261 1.943 . S
O254 Zn253 1.962 . S
O254 C259 1.254 . S
O255 Zn252 2.031 . S
O255 C259 1.269 . S
O256 Zn253 1.986 . S
O256 C263 1.262 . S
O257 Zn252 2.049 . S
O257 C265 1.260 . S
O258 Zn253 1.996 . S
O258 C265 1.257 . S
C259 O254 1.254 . S
C259 O255 1.269 . S
C260 O261 1.249 . S
C260 O262 1.270 . S
O261 Zn253 1.943 . S
O261 C260 1.249 . S
O262 Zn252 2.067 . S
O262 C260 1.270 . S
C263 O256 1.262 . S
C263 O264 1.232 . S
O264 C263 1.232 . S
C265 O257 1.260 . S
C265 O258 1.257 . S
Zn266 O269 2.031 . S
Zn266 O271 2.049 . S
Zn266 O276 2.067 . S
Zn267 O268 1.962 . S
Zn267 O270 1.986 . S
Zn267 O272 1.996 . S
Zn267 O275 1.943 . S
O268 Zn267 1.962 . S
O268 C273 1.254 . S
O269 Zn266 2.031 . S
O269 C273 1.269 . S
O270 Zn267 1.986 . S
O270 C277 1.262 . S
O271 Zn266 2.049 . S
O271 C279 1.260 . S
O272 Zn267 1.996 . S
O272 C279 1.257 . S
C273 O268 1.254 . S
C273 O269 1.269 . S
C274 O275 1.249 . S
C274 O276 1.270 . S
O275 Zn267 1.943 . S
O275 C274 1.249 . S
O276 Zn266 2.067 . S
O276 C274 1.270 . S
C277 O270 1.262 . S
C277 O278 1.232 . S
O278 C277 1.232 . S
C279 O271 1.260 . S
C279 O272 1.257 . S
Zn280 O283 2.031 . S
Zn280 O285 2.049 . S
Zn280 O290 2.067 . S
Zn281 O282 1.962 . S
Zn281 O284 1.986 . S
Zn281 O286 1.996 . S
Zn281 O289 1.943 . S
O282 Zn281 1.962 . S
O282 C287 1.254 . S
O283 Zn280 2.031 . S
O283 C287 1.269 . S
O284 Zn281 1.986 . S
O284 C291 1.262 . S
O285 Zn280 2.049 . S
O285 C293 1.260 . S
O286 Zn281 1.996 . S
O286 C293 1.257 . S
C287 O282 1.254 . S
C287 O283 1.269 . S
C288 O289 1.249 . S
C288 O290 1.270 . S
O289 Zn281 1.943 . S
O289 C288 1.249 . S
O290 Zn280 2.067 . S
O290 C288 1.270 . S
C291 O284 1.262 . S
C291 O292 1.232 . S
O292 C291 1.232 . S
C293 O285 1.260 . S
C293 O286 1.257 . S
Zn294 O297 2.031 . S
Zn294 O299 2.049 . S
Zn294 O304 2.067 . S
Zn295 O296 1.962 . S
Zn295 O298 1.986 . S
Zn295 O300 1.996 . S
Zn295 O303 1.943 . S
O296 Zn295 1.962 . S
O296 C301 1.254 . S
O297 Zn294 2.031 . S
O297 C301 1.269 . S
O298 Zn295 1.986 . S
O298 C305 1.262 . S
O299 Zn294 2.049 . S
O299 C307 1.260 . S
O300 Zn295 1.996 . S
O300 C307 1.257 . S
C301 O296 1.254 . S
C301 O297 1.269 . S
C302 O303 1.249 . S
C302 O304 1.270 . S
O303 Zn295 1.943 . S
O303 C302 1.249 . S
O304 Zn294 2.067 . S
O304 C302 1.270 . S
C305 O298 1.262 . S
C305 O306 1.232 . S
O306 C305 1.232 . S
C307 O299 1.260 . S
C307 O300 1.257 . S
Zn308 O311 2.031 . S
Zn308 O313 2.049 . S
Zn308 O318 2.067 . S
Zn309 O310 1.962 . S
Zn309 O312 1.986 . S
Zn309 O314 1.996 . S
Zn309 O317 1.943 . S
O310 Zn309 1.962 . S
O310 C315 1.254 . S
O311 Zn308 2.031 . S
O311 C315 1.269 . S
O312 Zn309 1.986 . S
O312 C319 1.262 . S
O313 Zn308 2.049 . S
O313 C321 1.260 . S
O314 Zn309 1.996 . S
O314 C321 1.257 . S
C315 O310 1.254 . S
C315 O311 1.269 . S
C316 O317 1.249 . S
C316 O318 1.270 . S
O317 Zn309 1.943 . S
O317 C316 1.249 . S
O318 Zn308 2.067 . S
O318 C316 1.270 . S
C319 O312 1.262 . S
C319 O320 1.232 . S
O320 C319 1.232 . S
C321 O313 1.260 . S
C321 O314 1.257 . S
Zn322 O325 2.031 . S
Zn322 O327 2.049 . S
Zn322 O332 2.067 . S
Zn323 O324 1.962 . S
Zn323 O326 1.986 . S
Zn323 O328 1.996 . S
Zn323 O331 1.943 . S
O324 Zn323 1.962 . S
O324 C329 1.254 . S
O325 Zn322 2.031 . S
O325 C329 1.269 . S
O326 Zn323 1.986 . S
O326 C333 1.262 . S
O327 Zn322 2.049 . S
O327 C335 1.260 . S
O328 Zn323 1.996 . S
O328 C335 1.257 . S
C329 O324 1.254 . S
C329 O325 1.269 . S
C330 O331 1.249 . S
C330 O332 1.270 . S
O331 Zn323 1.943 . S
O331 C330 1.249 . S
O332 Zn322 2.067 . S
O332 C330 1.270 . S
C333 O326 1.262 . S
C333 O334 1.232 . S
O334 C333 1.232 . S
C335 O327 1.260 . S
C335 O328 1.257 . S
Zn336 O339 2.031 . S
Zn336 O341 2.049 . S
Zn336 O346 2.067 . S
Zn337 O338 1.962 . S
Zn337 O340 1.986 . S
Zn337 O342 1.996 . S
Zn337 O345 1.943 . S
O338 Zn337 1.962 . S
O338 C343 1.254 . S
O339 Zn336 2.031 . S
O339 C343 1.269 . S
O340 Zn337 1.986 . S
O340 C347 1.262 . S
O341 Zn336 2.049 . S
O341 C349 1.260 . S
O342 Zn337 1.996 . S
O342 C349 1.257 . S
C343 O338 1.254 . S
C343 O339 1.269 . S
C344 O345 1.249 . S
C344 O346 1.270 . S
O345 Zn337 1.943 . S
O345 C344 1.249 . S
O346 Zn336 2.067 . S
O346 C344 1.270 . S
C347 O340 1.262 . S
C347 O348 1.232 . S
O348 C347 1.232 . S
C349 O341 1.260 . S
C349 O342 1.257 . S
Zn350 O353 2.031 . S
Zn350 O355 2.049 . S
Zn350 O360 2.067 . S
Zn351 O352 1.962 . S
Zn351 O354 1.986 . S
Zn351 O356 1.996 . S
Zn351 O359 1.943 . S
O352 Zn351 1.962 . S
O352 C357 1.254 . S
O353 Zn350 2.031 . S
O353 C357 1.269 . S
O354 Zn351 1.986 . S
O354 C361 1.262 . S
O355 Zn350 2.049 . S
O355 C363 1.260 . S
O356 Zn351 1.996 . S
O356 C363 1.257 . S
C357 O352 1.254 . S
C357 O353 1.269 . S
C358 O359 1.249 . S
C358 O360 1.270 . S
O359 Zn351 1.943 . S
O359 C358 1.249 . S
O360 Zn350 2.067 . S
O360 C358 1.270 . S
C361 O354 1.262 . S
C361 O362 1.232 . S
O362 C361 1.232 . S
C363 O355 1.260 . S
C363 O356 1.257 . S
Zn364 O367 2.031 . S
Zn364 O369 2.049 . S
Zn364 O374 2.067 1_556 S
Zn365 O366 1.962 . S
Zn365 O368 1.986 . S
Zn365 O370 1.996 . S
Zn365 O373 1.943 1_556 S
O366 Zn365 1.962 . S
O366 C371 1.254 . S
O367 Zn364 2.031 . S
O367 C371 1.269 . S
O368 Zn365 1.986 . S
O368 C375 1.262 . S
O369 Zn364 2.049 . S
O369 C377 1.260 . S
O370 Zn365 1.996 . S
O370 C377 1.257 . S
C371 O366 1.254 . S
C371 O367 1.269 . S
C372 O373 1.249 . S
C372 O374 1.270 . S
O373 Zn365 1.943 1_554 S
O373 C372 1.249 . S
O374 Zn364 2.067 1_554 S
O374 C372 1.270 . S
C375 O368 1.262 . S
C375 O376 1.232 . S
O376 C375 1.232 . S
C377 O369 1.260 . S
C377 O370 1.257 . S
Zn378 O381 2.031 . S
Zn378 O383 2.049 . S
Zn378 O388 2.067 1_556 S
Zn379 O380 1.962 . S
Zn379 O382 1.986 . S
Zn379 O384 1.996 . S
Zn379 O387 1.943 1_556 S
O380 Zn379 1.962 . S
O380 C385 1.254 . S
O381 Zn378 2.031 . S
O381 C385 1.269 . S
O382 Zn379 1.986 . S
O382 C389 1.262 . S
O383 Zn378 2.049 . S
O383 C391 1.260 . S
O384 Zn379 1.996 . S
O384 C391 1.257 . S
C385 O380 1.254 . S
C385 O381 1.269 . S
C386 O387 1.249 . S
C386 O388 1.270 . S
O387 Zn379 1.943 1_554 S
O387 C386 1.249 . S
O388 Zn378 2.067 1_554 S
O388 C386 1.270 . S
C389 O382 1.262 . S
C389 O390 1.232 . S
O390 C389 1.232 . S
C391 O383 1.260 . S
C391 O384 1.257 . S
Zn392 O395 2.031 . S
Zn392 O397 2.049 . S
Zn392 O402 2.067 . S
Zn393 O394 1.962 . S
Zn393 O396 1.986 . S
Zn393 O398 1.996 . S
Zn393 O401 1.943 . S
O394 Zn393 1.962 . S
O394 C399 1.254 . S
O395 Zn392 2.031 . S
O395 C399 1.269 . S
O396 Zn393 1.986 . S
O396 C403 1.262 . S
O397 Zn392 2.049 . S
O397 C405 1.260 . S
O398 Zn393 1.996 . S
O398 C405 1.257 . S
C399 O394 1.254 . S
C399 O395 1.269 . S
C400 O401 1.249 . S
C400 O402 1.270 . S
O401 Zn393 1.943 . S
O401 C400 1.249 . S
O402 Zn392 2.067 . S
O402 C400 1.270 . S
C403 O396 1.262 . S
C403 O404 1.232 . S
O404 C403 1.232 . S
C405 O397 1.260 . S
C405 O398 1.257 . S
Zn406 O409 2.031 . S
Zn406 O411 2.049 . S
Zn406 O416 2.067 . S
Zn407 O408 1.962 . S
Zn407 O410 1.986 . S
Zn407 O412 1.996 . S
Zn407 O415 1.943 . S
O408 Zn407 1.962 . S
O408 C413 1.254 . S
O409 Zn406 2.031 . S
O409 C413 1.269 . S
O410 Zn407 1.986 . S
O410 C417 1.262 . S
O411 Zn406 2.049 . S
O411 C419 1.260 . S
O412 Zn407 1.996 . S
O412 C419 1.257 . S
C413 O408 1.254 . S
C413 O409 1.269 . S
C414 O415 1.249 . S
C414 O416 1.270 . S
O415 Zn407 1.943 . S
O415 C414 1.249 . S
O416 Zn406 2.067 . S
O416 C414 1.270 . S
C417 O410 1.262 . S
C417 O418 1.232 . S
O418 C417 1.232 . S
C419 O411 1.260 . S
C419 O412 1.257 . S
Zn420 O423 2.031 . S
Zn420 O425 2.049 . S
Zn420 O430 2.067 1_554 S
Zn421 O422 1.962 . S
Zn421 O424 1.986 . S
Zn421 O426 1.996 . S
Zn421 O429 1.943 1_554 S
O422 Zn421 1.962 . S
O422 C427 1.254 . S
O423 Zn420 2.031 . S
O423 C427 1.269 . S
O424 Zn421 1.986 . S
O424 C431 1.262 . S
O425 Zn420 2.049 . S
O425 C433 1.260 . S
O426 Zn421 1.996 . S
O426 C433 1.257 . S
C427 O422 1.254 . S
C427 O423 1.269 . S
C428 O429 1.249 . S
C428 O430 1.270 . S
O429 Zn421 1.943 1_556 S
O429 C428 1.249 . S
O430 Zn420 2.067 1_556 S
O430 C428 1.270 . S
C431 O424 1.262 . S
C431 O432 1.232 . S
O432 C431 1.232 . S
C433 O425 1.260 . S
C433 O426 1.257 . S
Zn434 O437 2.031 . S
Zn434 O439 2.049 . S
Zn434 O444 2.067 1_554 S
Zn435 O436 1.962 . S
Zn435 O438 1.986 . S
Zn435 O440 1.996 . S
Zn435 O443 1.943 1_554 S
O436 Zn435 1.962 . S
O436 C441 1.254 . S
O437 Zn434 2.031 . S
O437 C441 1.269 . S
O438 Zn435 1.986 . S
O438 C445 1.262 . S
O439 Zn434 2.049 . S
O439 C447 1.260 . S
O440 Zn435 1.996 . S
O440 C447 1.257 . S
C441 O436 1.254 . S
C441 O437 1.269 . S
C442 O443 1.249 . S
C442 O444 1.270 . S
O443 Zn435 1.943 1_556 S
O443 C442 1.249 . S
O444 Zn434 2.067 1_556 S
O444 C442 1.270 . S
C445 O438 1.262 . S
C445 O446 1.232 . S
O446 C445 1.232 . S
C447 O439 1.260 . S
C447 O440 1.257 . S
C153 C13 1.333 . S
C27 C167 1.333 . S
C41 C125 1.334 . S
C139 C55 1.333 . S
C209 C69 1.334 . S
C83 C223 1.333 . S
C181 C97 1.333 . S
C195 C111 1.333 . S
C377 C237 1.333 . S
C391 C251 1.333 . S
C349 C265 1.334 . S
C279 C363 1.333 . S
C433 C293 1.334 . S
C447 C307 1.333 . S
C321 C405 1.333 . S
C335 C419 1.333 . S
C277 C11 1.670 . S
C25 C263 1.670 . S
C249 C39 1.670 . S
C235 C53 1.670 . S
C67 C333 1.670 . S
C81 C319 1.670 . S
C305 C95 1.670 . S
C109 C291 1.670 . S
C389 C123 1.670 . S
C375 C137 1.670 . S
C361 C151 1.670 . S
C347 C165 1.670 . S
C179 C445 1.670 . S
C431 C193 1.670 . S
C207 C417 1.670 . S
C221 C403 1.670 . S
C175 C7 2.446 1_455 S
C21 C301 2.443 1_565 S
C91 C35 2.445 1_444 S
C441 C49 2.443 1_554 S
C63 C119 2.445 1_455 S
C245 C77 2.443 1_565 S
C385 C105 2.443 1_556 S
C413 C133 2.443 . S
C147 C203 2.445 1_655 S
C329 C161 2.443 . S
C357 C189 2.443 . S
C217 C273 2.443 . S
C231 C399 2.446 . S
C315 C259 2.445 1_545 S
C343 C287 2.445 . S
C371 C427 2.445 1_556 S
C8 C50 1.179 . S
C36 C22 1.179 . S
C64 C106 1.179 . S
C78 C92 1.179 . S
C120 C162 1.179 . S
C134 C148 1.179 . S
C176 C218 1.179 . S
C204 C190 1.179 . S
C274 C232 1.179 . S
C260 C246 1.179 . S
C330 C288 1.179 . S
C316 C302 1.179 . S
C386 C344 1.179 . S
C372 C358 1.179 . S
C400 C442 1.179 . S
C428 C414 1.179 . S
