# Generated by pormake.
# Topology wio, (6)-cn, num edge types: 1
# Building blocks:
#     Node 0, Type 0, BuildingBlock: GEDQOX_clean_sbu_0, # of connection points: 6
#     Node 1, Type 0, BuildingBlock: GEDQOX_clean_sbu_0, # of connection points: 6
#     Node 2, Type 0, BuildingBlock: GEDQOX_clean_sbu_0, # of connection points: 6
#     Node 3, Type 0, BuildingBlock: GEDQOX_clean_sbu_0, # of connection points: 6
#     Node 4, Type 0, BuildingBlock: GEDQOX_clean_sbu_0, # of connection points: 6
#     Node 5, Type 0, BuildingBlock: GEDQOX_clean_sbu_0, # of connection points: 6
#     Node 6, Type 0, BuildingBlock: GEDQOX_clean_sbu_0, # of connection points: 6
#     Node 7, Type 0, BuildingBlock: GEDQOX_clean_sbu_0, # of connection points: 6
#     Node 8, Type 0, BuildingBlock: GEDQOX_clean_sbu_0, # of connection points: 6
#     Node 9, Type 0, BuildingBlock: GEDQOX_clean_sbu_0, # of connection points: 6
#     Node 10, Type 0, BuildingBlock: GEDQOX_clean_sbu_0, # of connection points: 6
#     Node 11, Type 0, BuildingBlock: GEDQOX_clean_sbu_0, # of connection points: 6
#     Node 12, Type 0, BuildingBlock: GEDQOX_clean_sbu_0, # of connection points: 6
#     Node 13, Type 0, BuildingBlock: GEDQOX_clean_sbu_0, # of connection points: 6
#     Node 14, Type 0, BuildingBlock: GEDQOX_clean_sbu_0, # of connection points: 6
#     Node 15, Type 0, BuildingBlock: GEDQOX_clean_sbu_0, # of connection points: 6
#     Node 16, Type 0, BuildingBlock: GEDQOX_clean_sbu_0, # of connection points: 6
#     Node 17, Type 0, BuildingBlock: GEDQOX_clean_sbu_0, # of connection points: 6
#     Node 18, Type 0, BuildingBlock: GEDQOX_clean_sbu_0, # of connection points: 6
#     Node 19, Type 0, BuildingBlock: GEDQOX_clean_sbu_0, # of connection points: 6
#     Node 20, Type 0, BuildingBlock: GEDQOX_clean_sbu_0, # of connection points: 6
#     Node 21, Type 0, BuildingBlock: GEDQOX_clean_sbu_0, # of connection points: 6
#     Node 22, Type 0, BuildingBlock: GEDQOX_clean_sbu_0, # of connection points: 6
#     Node 23, Type 0, BuildingBlock: GEDQOX_clean_sbu_0, # of connection points: 6
#     Node 24, Type 0, BuildingBlock: GEDQOX_clean_sbu_0, # of connection points: 6
#     Node 25, Type 0, BuildingBlock: GEDQOX_clean_sbu_0, # of connection points: 6
#     Node 26, Type 0, BuildingBlock: GEDQOX_clean_sbu_0, # of connection points: 6
#     Node 27, Type 0, BuildingBlock: GEDQOX_clean_sbu_0, # of connection points: 6
#     Node 28, Type 0, BuildingBlock: GEDQOX_clean_sbu_0, # of connection points: 6
#     Node 29, Type 0, BuildingBlock: GEDQOX_clean_sbu_0, # of connection points: 6
#     Node 30, Type 0, BuildingBlock: GEDQOX_clean_sbu_0, # of connection points: 6
#     Node 31, Type 0, BuildingBlock: GEDQOX_clean_sbu_0, # of connection points: 6
#     Edge 32, Type (0, 0), BuildingBlock: XUDNAN_clean_linker_2, # of connection points: 2
#     Edge 33, Type (0, 0), BuildingBlock: XUDNAN_clean_linker_2, # of connection points: 2
#     Edge 34, Type (0, 0), BuildingBlock: XUDNAN_clean_linker_2, # of connection points: 2
#     Edge 35, Type (0, 0), BuildingBlock: XUDNAN_clean_linker_2, # of connection points: 2
#     Edge 36, Type (0, 0), BuildingBlock: XUDNAN_clean_linker_2, # of connection points: 2
#     Edge 37, Type (0, 0), BuildingBlock: XUDNAN_clean_linker_2, # of connection points: 2
#     Edge 38, Type (0, 0), BuildingBlock: XUDNAN_clean_linker_2, # of connection points: 2
#     Edge 39, Type (0, 0), BuildingBlock: XUDNAN_clean_linker_2, # of connection points: 2
#     Edge 40, Type (0, 0), BuildingBlock: XUDNAN_clean_linker_2, # of connection points: 2
#     Edge 41, Type (0, 0), BuildingBlock: XUDNAN_clean_linker_2, # of connection points: 2
#     Edge 42, Type (0, 0), BuildingBlock: XUDNAN_clean_linker_2, # of connection points: 2
#     Edge 43, Type (0, 0), BuildingBlock: XUDNAN_clean_linker_2, # of connection points: 2
#     Edge 44, Type (0, 0), BuildingBlock: XUDNAN_clean_linker_2, # of connection points: 2
#     Edge 45, Type (0, 0), BuildingBlock: XUDNAN_clean_linker_2, # of connection points: 2
#     Edge 46, Type (0, 0), BuildingBlock: XUDNAN_clean_linker_2, # of connection points: 2
#     Edge 47, Type (0, 0), BuildingBlock: XUDNAN_clean_linker_2, # of connection points: 2
#     Edge 48, Type (0, 0), BuildingBlock: XUDNAN_clean_linker_2, # of connection points: 2
#     Edge 49, Type (0, 0), BuildingBlock: XUDNAN_clean_linker_2, # of connection points: 2
#     Edge 50, Type (0, 0), BuildingBlock: XUDNAN_clean_linker_2, # of connection points: 2
#     Edge 51, Type (0, 0), BuildingBlock: XUDNAN_clean_linker_2, # of connection points: 2
#     Edge 52, Type (0, 0), BuildingBlock: XUDNAN_clean_linker_2, # of connection points: 2
#     Edge 53, Type (0, 0), BuildingBlock: XUDNAN_clean_linker_2, # of connection points: 2
#     Edge 54, Type (0, 0), BuildingBlock: XUDNAN_clean_linker_2, # of connection points: 2
#     Edge 55, Type (0, 0), BuildingBlock: XUDNAN_clean_linker_2, # of connection points: 2
#     Edge 56, Type (0, 0), BuildingBlock: XUDNAN_clean_linker_2, # of connection points: 2
#     Edge 57, Type (0, 0), BuildingBlock: XUDNAN_clean_linker_2, # of connection points: 2
#     Edge 58, Type (0, 0), BuildingBlock: XUDNAN_clean_linker_2, # of connection points: 2
#     Edge 59, Type (0, 0), BuildingBlock: XUDNAN_clean_linker_2, # of connection points: 2
#     Edge 60, Type (0, 0), BuildingBlock: XUDNAN_clean_linker_2, # of connection points: 2
#     Edge 61, Type (0, 0), BuildingBlock: XUDNAN_clean_linker_2, # of connection points: 2
#     Edge 62, Type (0, 0), BuildingBlock: XUDNAN_clean_linker_2, # of connection points: 2
#     Edge 63, Type (0, 0), BuildingBlock: XUDNAN_clean_linker_2, # of connection points: 2
#     Edge 64, Type (0, 0), BuildingBlock: XUDNAN_clean_linker_2, # of connection points: 2
#     Edge 65, Type (0, 0), BuildingBlock: XUDNAN_clean_linker_2, # of connection points: 2
#     Edge 66, Type (0, 0), BuildingBlock: XUDNAN_clean_linker_2, # of connection points: 2
#     Edge 67, Type (0, 0), BuildingBlock: XUDNAN_clean_linker_2, # of connection points: 2
#     Edge 68, Type (0, 0), BuildingBlock: XUDNAN_clean_linker_2, # of connection points: 2
#     Edge 69, Type (0, 0), BuildingBlock: XUDNAN_clean_linker_2, # of connection points: 2
#     Edge 70, Type (0, 0), BuildingBlock: XUDNAN_clean_linker_2, # of connection points: 2
#     Edge 71, Type (0, 0), BuildingBlock: XUDNAN_clean_linker_2, # of connection points: 2
#     Edge 72, Type (0, 0), BuildingBlock: XUDNAN_clean_linker_2, # of connection points: 2
#     Edge 73, Type (0, 0), BuildingBlock: XUDNAN_clean_linker_2, # of connection points: 2
#     Edge 74, Type (0, 0), BuildingBlock: XUDNAN_clean_linker_2, # of connection points: 2
#     Edge 75, Type (0, 0), BuildingBlock: XUDNAN_clean_linker_2, # of connection points: 2
#     Edge 76, Type (0, 0), BuildingBlock: XUDNAN_clean_linker_2, # of connection points: 2
#     Edge 77, Type (0, 0), BuildingBlock: XUDNAN_clean_linker_2, # of connection points: 2
#     Edge 78, Type (0, 0), BuildingBlock: XUDNAN_clean_linker_2, # of connection points: 2
#     Edge 79, Type (0, 0), BuildingBlock: XUDNAN_clean_linker_2, # of connection points: 2
#     Edge 80, Type (0, 0), BuildingBlock: XUDNAN_clean_linker_2, # of connection points: 2
#     Edge 81, Type (0, 0), BuildingBlock: XUDNAN_clean_linker_2, # of connection points: 2
#     Edge 82, Type (0, 0), BuildingBlock: XUDNAN_clean_linker_2, # of connection points: 2
#     Edge 83, Type (0, 0), BuildingBlock: XUDNAN_clean_linker_2, # of connection points: 2
#     Edge 84, Type (0, 0), BuildingBlock: XUDNAN_clean_linker_2, # of connection points: 2
#     Edge 85, Type (0, 0), BuildingBlock: XUDNAN_clean_linker_2, # of connection points: 2
#     Edge 86, Type (0, 0), BuildingBlock: XUDNAN_clean_linker_2, # of connection points: 2
#     Edge 87, Type (0, 0), BuildingBlock: XUDNAN_clean_linker_2, # of connection points: 2
#     Edge 88, Type (0, 0), BuildingBlock: XUDNAN_clean_linker_2, # of connection points: 2
#     Edge 89, Type (0, 0), BuildingBlock: XUDNAN_clean_linker_2, # of connection points: 2
#     Edge 90, Type (0, 0), BuildingBlock: XUDNAN_clean_linker_2, # of connection points: 2
#     Edge 91, Type (0, 0), BuildingBlock: XUDNAN_clean_linker_2, # of connection points: 2
#     Edge 92, Type (0, 0), BuildingBlock: XUDNAN_clean_linker_2, # of connection points: 2
#     Edge 93, Type (0, 0), BuildingBlock: XUDNAN_clean_linker_2, # of connection points: 2
#     Edge 94, Type (0, 0), BuildingBlock: XUDNAN_clean_linker_2, # of connection points: 2
#     Edge 95, Type (0, 0), BuildingBlock: XUDNAN_clean_linker_2, # of connection points: 2
#     Edge 96, Type (0, 0), BuildingBlock: XUDNAN_clean_linker_2, # of connection points: 2
#     Edge 97, Type (0, 0), BuildingBlock: XUDNAN_clean_linker_2, # of connection points: 2
#     Edge 98, Type (0, 0), BuildingBlock: XUDNAN_clean_linker_2, # of connection points: 2
#     Edge 99, Type (0, 0), BuildingBlock: XUDNAN_clean_linker_2, # of connection points: 2
#     Edge 100, Type (0, 0), BuildingBlock: XUDNAN_clean_linker_2, # of connection points: 2
#     Edge 101, Type (0, 0), BuildingBlock: XUDNAN_clean_linker_2, # of connection points: 2
#     Edge 102, Type (0, 0), BuildingBlock: XUDNAN_clean_linker_2, # of connection points: 2
#     Edge 103, Type (0, 0), BuildingBlock: XUDNAN_clean_linker_2, # of connection points: 2
#     Edge 104, Type (0, 0), BuildingBlock: XUDNAN_clean_linker_2, # of connection points: 2
#     Edge 105, Type (0, 0), BuildingBlock: XUDNAN_clean_linker_2, # of connection points: 2
#     Edge 106, Type (0, 0), BuildingBlock: XUDNAN_clean_linker_2, # of connection points: 2
#     Edge 107, Type (0, 0), BuildingBlock: XUDNAN_clean_linker_2, # of connection points: 2
#     Edge 108, Type (0, 0), BuildingBlock: XUDNAN_clean_linker_2, # of connection points: 2
#     Edge 109, Type (0, 0), BuildingBlock: XUDNAN_clean_linker_2, # of connection points: 2
#     Edge 110, Type (0, 0), BuildingBlock: XUDNAN_clean_linker_2, # of connection points: 2
#     Edge 111, Type (0, 0), BuildingBlock: XUDNAN_clean_linker_2, # of connection points: 2
#     Edge 112, Type (0, 0), BuildingBlock: XUDNAN_clean_linker_2, # of connection points: 2
#     Edge 113, Type (0, 0), BuildingBlock: XUDNAN_clean_linker_2, # of connection points: 2
#     Edge 114, Type (0, 0), BuildingBlock: XUDNAN_clean_linker_2, # of connection points: 2
#     Edge 115, Type (0, 0), BuildingBlock: XUDNAN_clean_linker_2, # of connection points: 2
#     Edge 116, Type (0, 0), BuildingBlock: XUDNAN_clean_linker_2, # of connection points: 2
#     Edge 117, Type (0, 0), BuildingBlock: XUDNAN_clean_linker_2, # of connection points: 2
#     Edge 118, Type (0, 0), BuildingBlock: XUDNAN_clean_linker_2, # of connection points: 2
#     Edge 119, Type (0, 0), BuildingBlock: XUDNAN_clean_linker_2, # of connection points: 2
#     Edge 120, Type (0, 0), BuildingBlock: XUDNAN_clean_linker_2, # of connection points: 2
#     Edge 121, Type (0, 0), BuildingBlock: XUDNAN_clean_linker_2, # of connection points: 2
#     Edge 122, Type (0, 0), BuildingBlock: XUDNAN_clean_linker_2, # of connection points: 2
#     Edge 123, Type (0, 0), BuildingBlock: XUDNAN_clean_linker_2, # of connection points: 2
#     Edge 124, Type (0, 0), BuildingBlock: XUDNAN_clean_linker_2, # of connection points: 2
#     Edge 125, Type (0, 0), BuildingBlock: XUDNAN_clean_linker_2, # of connection points: 2
#     Edge 126, Type (0, 0), BuildingBlock: XUDNAN_clean_linker_2, # of connection points: 2
#     Edge 127, Type (0, 0), BuildingBlock: XUDNAN_clean_linker_2, # of connection points: 2
# Relax obj value: 0.152
# Max RMSD: 0.209
# Mean RMSD: 0.209
data_MOF--net-wio--node1-GEDQOX_clean_sbu_0--edge1-XUDNAN_clean_linker_2
_symmetry_space_group_name_H-M    P1
_symmetry_Int_Tables_number       1
_symmetry_cell_setting            triclinic
loop_
_symmetry_equiv_pos_as_xyz
'x, y, z'
_cell_length_a     50.365297
_cell_length_b     50.435096
_cell_length_c     65.045639
_cell_angle_alpha  90.003535
_cell_angle_beta   89.968497
_cell_angle_gamma 89.966394
loop_
_atom_site_label
_atom_site_type_symbol
_atom_site_fract_x
_atom_site_fract_y
_atom_site_fract_z
_atom_type_partial_charge
Nd0 Nd 0.10842 0.12909 0.3193 0.0
Nd1 Nd 0.13883 0.10148 0.3536 0.0
C2 C 0.08945 0.14669 0.28387 0.0
C3 C 0.09412 0.14158 0.26192 0.0
C4 C 0.11019 0.12042 0.25546 0.0
C5 C 0.11544 0.1166 0.23453 0.0
C6 C 0.10467 0.1339 0.21971 0.0
C7 C 0.08828 0.15485 0.22636 0.0
C8 C 0.08314 0.15867 0.24726 0.0
C9 C 0.1251 0.16274 0.34979 0.0
C10 C 0.17028 0.11327 0.31197 0.0
C11 C 0.16032 0.08699 0.38921 0.0
C12 C 0.15527 0.07092 0.40803 0.0
C13 C 0.13655 0.07875 0.42291 0.0
C14 C 0.13374 0.06449 0.44131 0.0
C15 C 0.14955 0.04203 0.44534 0.0
C16 C 0.16789 0.03395 0.43024 0.0
C17 C 0.17077 0.04826 0.4119 0.0
C18 C 0.12057 0.06747 0.32392 0.0
C19 C 0.07368 0.11218 0.35853 0.0
O20 O 0.07835 0.12761 0.29441 0.0
O21 O 0.10896 0.15808 0.29373 0.0
O22 O 0.10266 0.16477 0.34023 0.0
O23 O 0.13896 0.14394 0.34257 0.0
O24 O 0.14633 0.1136 0.30388 0.0
O25 O 0.17337 0.11351 0.33218 0.0
O26 O 0.14683 0.10897 0.38667 0.0
O27 O 0.16423 0.07426 0.37196 0.0
O28 O 0.14249 0.06374 0.33397 0.0
O29 O 0.10807 0.08719 0.33087 0.0
O30 O 0.09622 0.10418 0.367 0.0
O31 O 0.07241 0.12141 0.33959 0.0
H32 H 0.11885 0.10701 0.2666 0.0
H33 H 0.12831 0.10042 0.23001 0.0
H34 H 0.0792 0.16823 0.2154 0.0
H35 H 0.07066 0.17508 0.252 0.0
H36 H 0.12429 0.09613 0.42051 0.0
H37 H 0.11916 0.07113 0.45243 0.0
H38 H 0.18066 0.017 0.43285 0.0
H39 H 0.18559 0.04189 0.40087 0.0
Nd40 Nd 0.12892 0.85396 0.56858 0.0
Nd41 Nd 0.15562 0.88458 0.60343 0.0
C42 C 0.11259 0.83533 0.53267 0.0
C43 C 0.11773 0.84114 0.51087 0.0
C44 C 0.13891 0.85751 0.50493 0.0
C45 C 0.14272 0.86392 0.4842 0.0
C46 C 0.12541 0.85404 0.46901 0.0
C47 C 0.10442 0.83735 0.47512 0.0
C48 C 0.10059 0.83106 0.49585 0.0
C49 C 0.09453 0.87094 0.59852 0.0
C50 C 0.14394 0.91619 0.56188 0.0
C51 C 0.16857 0.90611 0.63936 0.0
C52 C 0.18407 0.90153 0.65848 0.0
C53 C 0.20252 0.92072 0.66483 0.0
C54 C 0.21634 0.91791 0.68338 0.0
C55 C 0.21202 0.89583 0.6962 0.0
C56 C 0.19367 0.87645 0.68973 0.0
C57 C 0.17988 0.87924 0.67108 0.0
C58 C 0.19042 0.86709 0.57395 0.0
C59 C 0.14503 0.81943 0.6082 0.0
O60 O 0.1321 0.82481 0.54313 0.0
O61 O 0.10006 0.85381 0.54288 0.0
O62 O 0.09248 0.84849 0.58897 0.0
O63 O 0.11362 0.88453 0.59151 0.0
O64 O 0.14393 0.89235 0.55359 0.0
O65 O 0.14345 0.91908 0.5821 0.0
O66 O 0.14706 0.89204 0.63641 0.0
O67 O 0.18186 0.91031 0.62239 0.0
O68 O 0.19374 0.88884 0.5843 0.0
O69 O 0.17071 0.85425 0.58062 0.0
O70 O 0.153 0.84197 0.61661 0.0
O71 O 0.13596 0.81802 0.5892 0.0
H72 H 0.15233 0.86552 0.51635 0.0
H73 H 0.15894 0.87699 0.48013 0.0
H74 H 0.09103 0.8289 0.46388 0.0
H75 H 0.08415 0.81838 0.50016 0.0
H76 H 0.20596 0.93822 0.65554 0.0
H77 H 0.22999 0.93343 0.68791 0.0
H78 H 0.19004 0.85903 0.69904 0.0
H79 H 0.16581 0.86405 0.66664 0.0
Nd80 Nd 0.40225 0.88972 0.81823 0.0
Nd81 Nd 0.36882 0.90667 0.85539 0.0
C82 C 0.42393 0.88416 0.78133 0.0
C83 C 0.41494 0.87764 0.76041 0.0
C84 C 0.43165 0.88263 0.74363 0.0
C85 C 0.42331 0.87678 0.72362 0.0
C86 C 0.39801 0.86583 0.71999 0.0
C87 C 0.3814 0.86077 0.73699 0.0
C88 C 0.38971 0.86677 0.75698 0.0
C89 C 0.387 0.84886 0.84377 0.0
C90 C 0.33765 0.89545 0.81293 0.0
C91 C 0.34605 0.91399 0.89189 0.0
C92 C 0.34979 0.9283 0.91156 0.0
C93 C 0.33604 0.91972 0.92908 0.0
C94 C 0.33809 0.93361 0.94767 0.0
C95 C 0.35399 0.95649 0.94923 0.0
C96 C 0.36799 0.96491 0.9316 0.0
C97 C 0.36593 0.95094 0.91298 0.0
C98 C 0.38414 0.94725 0.82986 0.0
C99 C 0.43467 0.90223 0.85915 0.0
O100 O 0.41586 0.90691 0.78865 0.0
O101 O 0.42282 0.86507 0.79491 0.0
O102 O 0.40986 0.84991 0.83456 0.0
O103 O 0.37244 0.8681 0.83853 0.0
O104 O 0.3612 0.89774 0.80426 0.0
O105 O 0.33525 0.89357 0.8332 0.0
O106 O 0.36212 0.89426 0.88789 0.0
O107 O 0.3409 0.92839 0.87566 0.0
O108 O 0.3613 0.94641 0.839 0.0
O109 O 0.39844 0.92808 0.83537 0.0
O110 O 0.4115 0.90089 0.86881 0.0
O111 O 0.43629 0.90246 0.83893 0.0
H112 H 0.45122 0.891 0.74602 0.0
H113 H 0.43692 0.88045 0.71106 0.0
H114 H 0.3618 0.85245 0.73488 0.0
H115 H 0.37644 0.86294 0.76975 0.0
H116 H 0.32334 0.90241 0.92832 0.0
H117 H 0.3267 0.92668 0.96073 0.0
H118 H 0.38069 0.9822 0.93222 0.0
H119 H 0.37678 0.95793 0.89965 0.0
Nd120 Nd 0.38205 0.14909 0.0664 0.0
Nd121 Nd 0.3544 0.12349 0.10354 0.0
C122 C 0.39777 0.16442 0.02963 0.0
C123 C 0.39358 0.15569 1.00813 0.0
C124 C 0.4144 0.14334 0.99741 0.0
C125 C 0.41112 0.13543 0.977 0.0
C126 C 0.38699 0.13994 0.9667 0.0
C127 C 0.366 0.15195 0.97751 0.0
C128 C 0.36922 0.1597 0.99802 0.0
C129 C 0.41545 0.13801 0.09875 0.0
C130 C 0.36556 0.08644 0.06263 0.0
C131 C 0.33812 0.09861 0.13724 0.0
C132 C 0.32249 0.10303 0.15638 0.0
C133 C 0.30015 0.08718 0.16044 0.0
C134 C 0.28614 0.08969 0.17898 0.0
C135 C 0.29424 0.108 0.19406 0.0
C136 C 0.31638 0.12417 0.18983 0.0
C137 C 0.33031 0.12176 0.17123 0.0
C138 C 0.32142 0.14835 0.07579 0.0
C139 C 0.36517 0.18709 0.10369 0.0
O140 O 0.37758 0.17523 0.03927 0.0
O141 O 0.41172 0.14849 0.04132 0.0
O142 O 0.41735 0.15892 0.08728 0.0
O143 O 0.39692 0.12313 0.09259 0.0
O144 O 0.3732 0.10828 0.05327 0.0
O145 O 0.35935 0.08626 0.08249 0.0
O146 O 0.36123 0.11038 0.13563 0.0
O147 O 0.32511 0.09793 0.11982 0.0
O148 O 0.3177 0.14966 0.09553 0.0
O149 O 0.34108 0.13405 0.07187 0.0
O150 O 0.36511 0.16543 0.11521 0.0
O151 O 0.36648 0.18562 0.08344 0.0
H152 H 0.43337 0.13992 1.00481 0.0
H153 H 0.42757 0.12587 0.96923 0.0
H154 H 0.3473 0.15607 0.96995 0.0
H155 H 0.35271 0.16911 1.00581 0.0
H156 H 0.29378 0.07244 0.14938 0.0
H157 H 0.2694 0.0767 0.18174 0.0
H158 H 0.32299 0.13875 0.20093 0.0
H159 H 0.34739 0.13436 0.16863 0.0
Nd160 Nd 0.10772 0.88252 0.21926 0.0
Nd161 Nd 0.13726 0.90934 0.18306 0.0
C162 C 0.0891 0.86858 0.2556 0.0
C163 C 0.09778 0.87109 0.27732 0.0
C164 C 0.08418 0.88812 0.29083 0.0
C165 C 0.09176 0.89006 0.3115 0.0
C166 C 0.11306 0.87492 0.31913 0.0
C167 C 0.12674 0.85805 0.30556 0.0
C168 C 0.11928 0.85621 0.28492 0.0
C169 C 0.12073 0.84931 0.18729 0.0
C170 C 0.17125 0.89602 0.2252 0.0
C171 C 0.16486 0.92403 0.15022 0.0
C172 C 0.16146 0.93875 0.1305 0.0
C173 C 0.15078 0.92628 0.113 0.0
C174 C 0.14907 0.93977 0.09419 0.0
C175 C 0.15807 0.96609 0.09231 0.0
C176 C 0.16854 0.97862 0.10987 0.0
C177 C 0.17031 0.9651 0.12867 0.0
C178 C 0.11147 0.94291 0.20983 0.0
C179 C 0.07349 0.89961 0.1798 0.0
O180 O 0.08183 0.89044 0.24622 0.0
O181 O 0.10286 0.8526 0.24377 0.0
O182 O 0.09854 0.84788 0.19739 0.0
O183 O 0.13545 0.86723 0.19454 0.0
O184 O 0.14881 0.8878 0.23348 0.0
O185 O 0.17262 0.90386 0.20572 0.0
O186 O 0.15324 0.90086 0.15197 0.0
O187 O 0.16422 0.93773 0.16733 0.0
O188 O 0.11194 0.94693 0.19009 0.0
O189 O 0.12469 0.9227 0.21421 0.0
O190 O 0.09606 0.89975 0.16939 0.0
O191 O 0.07286 0.89807 0.20006 0.0
H192 H 0.06756 0.89984 0.28543 0.0
H193 H 0.08095 0.90342 0.3215 0.0
H194 H 0.14282 0.84567 0.31102 0.0
H195 H 0.13021 0.84284 0.27501 0.0
H196 H 0.14392 0.90595 0.11372 0.0
H197 H 0.14059 0.92955 0.08111 0.0
H198 H 0.17602 0.99872 0.10899 0.0
H199 H 0.17901 0.9752 0.14172 0.0
Nd200 Nd 0.37584 0.85695 0.47013 0.0
Nd201 Nd 0.35101 0.88622 0.43296 0.0
C202 C 0.38858 0.83534 0.50581 0.0
C203 C 0.38349 0.83778 0.52804 0.0
C204 C 0.37754 0.86225 0.53726 0.0
C205 C 0.37361 0.86393 0.55856 0.0
C206 C 0.3755 0.84112 0.57096 0.0
C207 C 0.38115 0.81665 0.56153 0.0
C208 C 0.38507 0.81503 0.54031 0.0
C209 C 0.41117 0.86868 0.43902 0.0
C210 C 0.36298 0.92033 0.47527 0.0
C211 C 0.33779 0.91445 0.40002 0.0
C212 C 0.32307 0.91241 0.38038 0.0
C213 C 0.32787 0.93113 0.36489 0.0
C214 C 0.31444 0.92973 0.34607 0.0
C215 C 0.29582 0.90949 0.34223 0.0
C216 C 0.29097 0.89075 0.35789 0.0
C217 C 0.30451 0.89215 0.37676 0.0
C218 C 0.31574 0.86187 0.4594 0.0
C219 C 0.3593 0.82279 0.43048 0.0
O220 O 0.36883 0.82692 0.49443 0.0
O221 O 0.40255 0.85415 0.49704 0.0
O222 O 0.4122 0.84729 0.45002 0.0
O223 O 0.3928 0.88367 0.44525 0.0
O224 O 0.36838 0.8976 0.48441 0.0
O225 O 0.35804 0.92174 0.45522 0.0
O226 O 0.35985 0.90085 0.40147 0.0
O227 O 0.3239 0.91423 0.41704 0.0
O228 O 0.31251 0.86191 0.43957 0.0
O229 O 0.33611 0.87468 0.46404 0.0
O230 O 0.36136 0.84503 0.41985 0.0
O231 O 0.35885 0.82289 0.45077 0.0
H232 H 0.37614 0.88003 0.52802 0.0
H233 H 0.369 0.88301 0.56532 0.0
H234 H 0.38315 0.79876 0.57061 0.0
H235 H 0.38969 0.79597 0.53349 0.0
H236 H 0.34206 0.94695 0.36736 0.0
H237 H 0.31845 0.94477 0.3346 0.0
H238 H 0.27703 0.87472 0.35547 0.0
H239 H 0.30058 0.8774 0.38847 0.0
Nd240 Nd 0.40307 0.12292 0.71685 0.0
Nd241 Nd 0.36829 0.10183 0.68193 0.0
C242 C 0.42511 0.13186 0.75301 0.0
C243 C 0.41715 0.12916 0.7747 0.0
C244 C 0.42495 0.14863 0.78877 0.0
C245 C 0.41741 0.14685 0.80938 0.0
C246 C 0.40201 0.12539 0.81641 0.0
C247 C 0.3939 0.106 0.80216 0.0
C248 C 0.40134 0.1079 0.78146 0.0
C249 C 0.38757 0.16084 0.68909 0.0
C250 C 0.33903 0.11575 0.72428 0.0
C251 C 0.34421 0.09173 0.64642 0.0
C252 C 0.34814 0.07756 0.62673 0.0
C253 C 0.36448 0.05505 0.62526 0.0
C254 C 0.36677 0.04126 0.60658 0.0
C255 C 0.35287 0.04978 0.58897 0.0
C256 C 0.33683 0.07258 0.59053 0.0
C257 C 0.3345 0.08626 0.60919 0.0
C258 C 0.38374 0.06458 0.71012 0.0
C259 C 0.43418 0.10753 0.67554 0.0
O260 O 0.42865 0.10991 0.74261 0.0
O261 O 0.41274 0.15019 0.7425 0.0
O262 O 0.41063 0.16056 0.69801 0.0
O263 O 0.37286 0.1424 0.69573 0.0
O264 O 0.36299 0.11375 0.73231 0.0
O265 O 0.33569 0.11645 0.70409 0.0
O266 O 0.35858 0.11293 0.64964 0.0
O267 O 0.34133 0.07724 0.66294 0.0
O268 O 0.36059 0.06461 0.7014 0.0
O269 O 0.39822 0.08265 0.70289 0.0
O270 O 0.41042 0.10311 0.66743 0.0
O271 O 0.4373 0.11393 0.69505 0.0
H272 H 0.43684 0.16535 0.78379 0.0
H273 H 0.42349 0.16248 0.81977 0.0
H274 H 0.38221 0.08912 0.80704 0.0
H275 H 0.39481 0.09274 0.77079 0.0
H276 H 0.37531 0.04802 0.63858 0.0
H277 H 0.37957 0.02402 0.60591 0.0
H278 H 0.32557 0.07957 0.57744 0.0
H279 H 0.32171 0.10351 0.60999 0.0
Nd280 Nd 0.13385 0.15433 0.96969 0.0
Nd281 Nd 0.15905 0.12344 0.93406 0.0
C282 C 0.11985 0.17292 1.0062 0.0
C283 C 0.12131 0.16394 0.02787 0.0
C284 C 0.13787 0.17721 0.04187 0.0
C285 C 0.1389 0.16937 0.0625 0.0
C286 C 0.12329 0.14814 0.06961 0.0
C287 C 0.10681 0.13483 0.05556 0.0
C288 C 0.1059 0.14254 0.03493 0.0
C289 C 0.09837 0.13757 0.94059 0.0
C290 C 0.14781 0.09123 0.97568 0.0
C291 C 0.17065 0.10201 0.89783 0.0
C292 C 0.18483 0.10712 0.87827 0.0
C293 C 0.20795 0.12269 0.87741 0.0
C294 C 0.2217 0.1259 0.85876 0.0
C295 C 0.21256 0.1137 0.84059 0.0
C296 C 0.18922 0.09837 0.84161 0.0
C297 C 0.17557 0.09516 0.8602 0.0
C298 C 0.19481 0.14113 0.9626 0.0
C299 C 0.14909 0.18884 0.9299 0.0
O300 O 0.14225 0.17907 0.99722 0.0
O301 O 0.10365 0.16016 0.994 0.0
O302 O 0.09687 0.16019 0.95001 0.0
O303 O 0.11763 0.12382 0.94718 0.0
O304 O 0.14663 0.11489 0.98425 0.0
O305 O 0.14838 0.08854 0.95544 0.0
O306 O 0.14883 0.1154 0.90132 0.0
O307 O 0.18507 0.09874 0.91435 0.0
O308 O 0.19762 0.11909 0.95253 0.0
O309 O 0.17492 0.15392 0.95626 0.0
O310 O 0.15615 0.1662 0.92109 0.0
O311 O 0.14103 0.19027 0.94918 0.0
H312 H 0.14995 0.19377 0.03686 0.0
H313 H 0.15198 0.17991 0.07288 0.0
H314 H 0.09408 0.11881 0.0606 0.0
H315 H 0.09285 0.13187 0.02462 0.0
H316 H 0.21548 0.13219 0.89115 0.0
H317 H 0.23941 0.13807 0.85856 0.0
H318 H 0.18174 0.0883 0.8281 0.0
H319 H 0.15789 0.08292 0.86051 0.0
Nd320 Nd 0.8707 0.91003 0.68316 0.0
Nd321 Nd 0.90027 0.88245 0.72241 0.0
C322 C 0.84399 0.92626 0.65032 0.0
C323 C 0.84828 0.94156 0.63101 0.0
C324 C 0.86674 0.9334 0.61604 0.0
C325 C 0.86952 0.94752 0.59756 0.0
C326 C 0.85401 0.97022 0.59357 0.0
C327 C 0.83591 0.97859 0.60874 0.0
C328 C 0.83303 0.96439 0.62716 0.0
C329 C 0.89394 0.94234 0.71175 0.0
C330 C 0.9346 0.8994 0.68155 0.0
C331 C 0.92386 0.87465 0.75821 0.0
C332 C 0.91774 0.87705 0.78026 0.0
C333 C 0.8938 0.88839 0.78702 0.0
C334 C 0.88634 0.88657 0.80775 0.0
C335 C 0.90276 0.87335 0.82187 0.0
C336 C 0.92716 0.86302 0.81521 0.0
C337 C 0.93462 0.86491 0.79456 0.0
C338 C 0.8865 0.84502 0.69304 0.0
C339 C 0.83601 0.89285 0.72484 0.0
O340 O 0.85489 0.90271 0.65181 0.0
O341 O 0.84476 0.93955 0.66761 0.0
O342 O 0.8943 0.94766 0.69218 0.0
O343 O 0.88116 0.9215 0.71527 0.0
O344 O 0.91249 0.90134 0.67058 0.0
O345 O 0.93481 0.89604 0.70176 0.0
O346 O 0.92655 0.89662 0.74758 0.0
O347 O 0.91045 0.85634 0.74844 0.0
O348 O 0.89854 0.83913 0.71007 0.0
O349 O 0.88259 0.86959 0.69264 0.0
O350 O 0.8584 0.8878 0.73468 0.0
O351 O 0.83526 0.89883 0.70486 0.0
H352 H 0.87893 0.91599 0.6185 0.0
H353 H 0.88394 0.94066 0.58641 0.0
H354 H 0.82341 0.99575 0.60617 0.0
H355 H 0.81856 0.97109 0.63835 0.0
H356 H 0.88046 0.89762 0.77612 0.0
H357 H 0.8673 0.89437 0.81258 0.0
H358 H 0.93991 0.85244 0.82584 0.0
H359 H 0.95303 0.8558 0.78959 0.0
Nd360 Nd 0.8523 0.1254 0.43403 0.0
Nd361 Nd 0.87701 0.15737 0.46857 0.0
C362 C 0.84143 0.1037 0.3978 0.0
C363 C 0.82751 0.10946 0.37813 0.0
C364 C 0.84183 0.10929 0.35957 0.0
C365 C 0.82886 0.11282 0.3407 0.0
C366 C 0.80116 0.11638 0.33989 0.0
C367 C 0.78691 0.11702 0.35852 0.0
C368 C 0.79991 0.11363 0.3774 0.0
C369 C 0.81623 0.14231 0.46261 0.0
C370 C 0.86156 0.19091 0.4286 0.0
C371 C 0.89216 0.17611 0.50466 0.0
C372 C 0.88908 0.16802 0.52635 0.0
C373 C 0.8645 0.15967 0.5343 0.0
C374 C 0.86222 0.15205 0.55494 0.0
C375 C 0.88454 0.15235 0.568 0.0
C376 C 0.90921 0.16005 0.55972 0.0
C377 C 0.91139 0.16792 0.5392 0.0
C378 C 0.91201 0.1399 0.43921 0.0
C379 C 0.86316 0.09475 0.47613 0.0
O380 O 0.86341 0.11667 0.40158 0.0
O381 O 0.82691 0.10015 0.41427 0.0
O382 O 0.81407 0.12012 0.45263 0.0
O383 O 0.83556 0.15582 0.45604 0.0
O384 O 0.85453 0.16794 0.42034 0.0
O385 O 0.86972 0.19298 0.44779 0.0
O386 O 0.87093 0.18445 0.49501 0.0
O387 O 0.9071 0.16075 0.49331 0.0
O388 O 0.91272 0.16344 0.4472 0.0
O389 O 0.89366 0.12615 0.44702 0.0
O390 O 0.86315 0.1188 0.48406 0.0
O391 O 0.86382 0.09136 0.45596 0.0
H392 H 0.86308 0.10591 0.35964 0.0
H393 H 0.84045 0.11194 0.32668 0.0
H394 H 0.76563 0.1201 0.35853 0.0
H395 H 0.78822 0.11394 0.39138 0.0
H396 H 0.84703 0.15913 0.52463 0.0
H397 H 0.84287 0.14641 0.5607 0.0
H398 H 0.927 0.15988 0.56906 0.0
H399 H 0.93062 0.17387 0.53331 0.0
Nd400 Nd 0.64278 0.10303 0.18306 0.0
Nd401 Nd 0.61197 0.12388 0.21941 0.0
C402 C 0.66387 0.09131 0.1467 0.0
C403 C 0.65838 0.07581 0.12771 0.0
C404 C 0.67358 0.05312 0.12333 0.0
C405 C 0.66992 0.03906 0.10497 0.0
C406 C 0.65108 0.04746 0.09039 0.0
C407 C 0.63565 0.07004 0.09487 0.0
C408 C 0.63924 0.08405 0.11329 0.0
C409 C 0.62762 0.06488 0.21083 0.0
C410 C 0.57714 0.11014 0.17998 0.0
C411 C 0.59174 0.13449 0.25607 0.0
C412 C 0.59935 0.13196 0.27779 0.0
C413 C 0.61657 0.11181 0.28447 0.0
C414 C 0.62334 0.10981 0.30528 0.0
C415 C 0.61329 0.12807 0.31968 0.0
C416 C 0.59612 0.14822 0.31281 0.0
C417 C 0.58923 0.15011 0.29207 0.0
C418 C 0.6258 0.16201 0.19103 0.0
C419 C 0.67567 0.11493 0.22381 0.0
O420 O 0.6498 0.11268 0.15016 0.0
O421 O 0.6688 0.07794 0.16348 0.0
O422 O 0.6506 0.06513 0.20192 0.0
O423 O 0.61339 0.08372 0.20463 0.0
O424 O 0.59999 0.10841 0.16994 0.0
O425 O 0.57615 0.11309 0.20006 0.0
O426 O 0.58716 0.11247 0.24607 0.0
O427 O 0.60503 0.15181 0.24523 0.0
O428 O 0.60316 0.16147 0.20056 0.0
O429 O 0.6408 0.14354 0.19716 0.0
O430 O 0.65245 0.11175 0.23284 0.0
O431 O 0.67718 0.11765 0.20361 0.0
H432 H 0.6887 0.04645 0.13398 0.0
H433 H 0.68241 0.02202 0.10196 0.0
H434 H 0.62076 0.07692 0.08412 0.0
H435 H 0.6272 0.10147 0.11611 0.0
H436 H 0.62473 0.09765 0.27365 0.0
H437 H 0.63661 0.09414 0.31009 0.0
H438 H 0.58761 0.16232 0.32352 0.0
H439 H 0.57588 0.16574 0.28718 0.0
Nd440 Nd 0.65618 0.89158 0.93166 0.0
Nd441 Nd 0.6351 0.85862 0.96754 0.0
C442 C 0.6646 0.91419 0.89535 0.0
C443 C 0.67808 0.90947 0.87548 0.0
C444 C 0.66994 0.9237 0.85807 0.0
C445 C 0.6832 0.92067 0.83928 0.0
C446 C 0.70499 0.90332 0.83747 0.0
C447 C 0.71283 0.88874 0.85495 0.0
C448 C 0.69948 0.89175 0.87375 0.0
C449 C 0.69407 0.87677 0.95946 0.0
C450 C 0.65007 0.82558 0.92713 0.0
C451 C 0.62575 0.83887 1.00444 0.0
C452 C 0.62847 0.84798 0.02592 0.0
C453 C 0.65231 0.85881 0.03344 0.0
C454 C 0.65425 0.86698 0.05398 0.0
C455 C 0.63236 0.86465 0.06735 0.0
C456 C 0.60836 0.85456 0.05949 0.0
C457 C 0.60652 0.84618 0.03908 0.0
C458 C 0.59694 0.87428 0.93993 0.0
C459 C 0.64463 0.9223 0.97377 0.0
O460 O 0.64365 0.89976 0.89945 0.0
O461 O 0.67977 0.91789 0.91141 0.0
O462 O 0.69433 0.89937 0.94991 0.0
O463 O 0.67541 0.86224 0.95313 0.0
O464 O 0.6556 0.84871 0.9184 0.0
O465 O 0.64281 0.82348 0.94653 0.0
O466 O 0.6476 0.83414 0.99413 0.0
O467 O 0.60761 0.85085 0.99346 0.0
O468 O 0.59697 0.85139 0.94907 0.0
O469 O 0.61584 0.88861 0.94624 0.0
O470 O 0.64622 0.89853 0.98205 0.0
O471 O 0.64335 0.92524 0.95357 0.0
H472 H 0.65353 0.93754 0.85908 0.0
H473 H 0.67677 0.93247 0.82629 0.0
H474 H 0.72927 0.87494 0.85409 0.0
H475 H 0.70603 0.88045 0.88698 0.0
H476 H 0.6695 0.86078 0.02353 0.0
H477 H 0.67308 0.87454 0.05945 0.0
H478 H 0.59085 0.85312 0.06909 0.0
H479 H 0.58785 0.83826 0.03355 0.0
Nd480 Nd 0.87255 0.10228 0.85433 0.0
Nd481 Nd 0.90348 0.12524 0.81854 0.0
C482 C 0.85098 0.09126 0.89063 0.0
C483 C 0.85591 0.07578 0.90973 0.0
C484 C 0.87542 0.08332 0.92406 0.0
C485 C 0.8785 0.06932 0.94256 0.0
C486 C 0.86219 0.04743 0.94718 0.0
C487 C 0.84294 0.03976 0.93269 0.0
C488 C 0.83979 0.0538 0.91427 0.0
C489 C 0.89029 0.06475 0.82713 0.0
C490 C 0.93827 0.11061 0.85772 0.0
C491 C 0.92146 0.14038 0.78215 0.0
C492 C 0.91305 0.13796 0.76047 0.0
C493 C 0.90588 0.11342 0.75182 0.0
C494 C 0.89845 0.11177 0.73111 0.0
C495 C 0.89786 0.13463 0.71866 0.0
C496 C 0.90429 0.15921 0.72764 0.0
C497 C 0.91193 0.1608 0.74824 0.0
C498 C 0.88723 0.16135 0.84757 0.0
C499 C 0.84114 0.11124 0.81227 0.0
O500 O 0.86547 0.11235 0.88715 0.0
O501 O 0.84596 0.07784 0.87388 0.0
O502 O 0.86814 0.06264 0.83713 0.0
O503 O 0.90303 0.08486 0.83284 0.0
O504 O 0.91529 0.10816 0.86756 0.0
O505 O 0.93952 0.11429 0.83769 0.0
O506 O 0.92951 0.11887 0.79148 0.0
O507 O 0.9067 0.15543 0.79385 0.0
O508 O 0.91076 0.16116 0.83945 0.0
O509 O 0.87297 0.14301 0.84034 0.0
O510 O 0.865 0.10982 0.80408 0.0
O511 O 0.83827 0.11359 0.83242 0.0
H512 H 0.88817 0.10019 0.92112 0.0
H513 H 0.89373 0.07564 0.95324 0.0
H514 H 0.82976 0.02328 0.9358 0.0
H515 H 0.82437 0.04769 0.90368 0.0
H516 H 0.90625 0.09549 0.76098 0.0
H517 H 0.89378 0.09248 0.72476 0.0
H518 H 0.90342 0.17734 0.71876 0.0
H519 H 0.91703 0.17996 0.75465 0.0
Nd520 Nd 0.65808 0.12079 0.6059 0.0
Nd521 Nd 0.63341 0.15149 0.56668 0.0
C522 C 0.6718 0.09303 0.63883 0.0
C523 C 0.68681 0.09684 0.65832 0.0
C524 C 0.67906 0.11575 0.67306 0.0
C525 C 0.6931 0.1184 0.69157 0.0
C526 C 0.71533 0.10232 0.6958 0.0
C527 C 0.72323 0.08367 0.68091 0.0
C528 C 0.70909 0.08091 0.66246 0.0
C529 C 0.69285 0.14399 0.57879 0.0
C530 C 0.64776 0.1846 0.60862 0.0
C531 C 0.62804 0.17612 0.53112 0.0
C532 C 0.63326 0.16972 0.50948 0.0
C533 C 0.64877 0.14767 0.50414 0.0
C534 C 0.65086 0.1398 0.48358 0.0
C535 C 0.63737 0.15376 0.46803 0.0
C536 C 0.62235 0.17624 0.4735 0.0
C537 C 0.62033 0.18412 0.49405 0.0
C538 C 0.59346 0.13587 0.59339 0.0
C539 C 0.64293 0.08749 0.56319 0.0
O540 O 0.64881 0.10504 0.63694 0.0
O541 O 0.68563 0.09311 0.62177 0.0
O542 O 0.69674 0.14397 0.59856 0.0
O543 O 0.67199 0.13167 0.57437 0.0
O544 O 0.64928 0.1622 0.61921 0.0
O545 O 0.64534 0.18538 0.58837 0.0
O546 O 0.64873 0.17942 0.54312 0.0
O547 O 0.60917 0.16209 0.53965 0.0
O548 O 0.58911 0.14803 0.57618 0.0
O549 O 0.61804 0.13279 0.59548 0.0
O550 O 0.63993 0.11028 0.55346 0.0
O551 O 0.64692 0.08615 0.58345 0.0
H552 H 0.66208 0.12847 0.67036 0.0
H553 H 0.68663 0.13322 0.70253 0.0
H554 H 0.74002 0.07073 0.68369 0.0
H555 H 0.71547 0.06609 0.65145 0.0
H556 H 0.6587 0.13618 0.51593 0.0
H557 H 0.6628 0.12264 0.47987 0.0
H558 H 0.61128 0.1872 0.46205 0.0
H559 H 0.60795 0.20096 0.49795 0.0
Nd560 Nd 0.63886 0.90602 0.35594 0.0
Nd561 Nd 0.60887 0.88541 0.31824 0.0
C562 C 0.65969 0.91462 0.39294 0.0
C563 C 0.65479 0.9285 0.41265 0.0
C564 C 0.66759 0.91953 0.43049 0.0
C565 C 0.6647 0.93313 0.44914 0.0
C566 C 0.64889 0.95612 0.45043 0.0
C567 C 0.63573 0.96484 0.43252 0.0
C568 C 0.63863 0.95116 0.41383 0.0
C569 C 0.62301 0.94481 0.32899 0.0
C570 C 0.57306 0.89711 0.35765 0.0
C571 C 0.59163 0.87525 0.28066 0.0
C572 C 0.60154 0.87801 0.25933 0.0
C573 C 0.6061 0.90299 0.25035 0.0
C574 C 0.61436 0.90494 0.22983 0.0
C575 C 0.6183 0.88197 0.21789 0.0
C576 C 0.61458 0.85706 0.2272 0.0
C577 C 0.60614 0.85514 0.24759 0.0
C578 C 0.62417 0.84699 0.34585 0.0
C579 C 0.67198 0.89798 0.31431 0.0
O580 O 0.64483 0.89409 0.38864 0.0
O581 O 0.66456 0.92935 0.37684 0.0
O582 O 0.64478 0.94603 0.33957 0.0
O583 O 0.6096 0.92482 0.33411 0.0
O584 O 0.59566 0.89939 0.368 0.0
O585 O 0.57241 0.89455 0.33749 0.0
O586 O 0.58562 0.89693 0.29071 0.0
O587 O 0.60357 0.85764 0.29215 0.0
O588 O 0.60165 0.8468 0.33615 0.0
O589 O 0.63833 0.8664 0.34028 0.0
O590 O 0.64857 0.89991 0.30547 0.0
O591 O 0.67393 0.895 0.3345 0.0
H592 H 0.68027 0.90218 0.42991 0.0
H593 H 0.67546 0.92597 0.46243 0.0
H594 H 0.62311 0.98222 0.43293 0.0
H595 H 0.62849 0.95843 0.40028 0.0
H596 H 0.6029 0.92105 0.25902 0.0
H597 H 0.61685 0.92446 0.22318 0.0
H598 H 0.61801 0.83893 0.21868 0.0
H599 H 0.60296 0.83565 0.25416 0.0
Nd600 Nd 0.8522 0.89171 0.10584 0.0
Nd601 Nd 0.8729 0.85813 0.07049 0.0
C602 C 0.84186 0.91501 0.14165 0.0
C603 C 0.8277 0.9104 0.16133 0.0
C604 C 0.80319 0.89709 0.16209 0.0
C605 C 0.78944 0.89446 0.18077 0.0
C606 C 0.79995 0.90496 0.19913 0.0
C607 C 0.82469 0.91792 0.19827 0.0
C608 C 0.83835 0.92062 0.17961 0.0
C609 C 0.81419 0.8773 0.07783 0.0
C610 C 0.85655 0.82603 0.11077 0.0
C611 C 0.88451 0.83468 0.03509 0.0
C612 C 0.8832 0.83871 1.01271 0.0
C613 C 0.87058 0.86089 1.00403 0.0
C614 C 0.86916 0.86373 0.98258 0.0
C615 C 0.87997 0.84417 0.96961 0.0
C616 C 0.8928 0.82219 0.97847 0.0
C617 C 0.89445 0.81955 0.9998 0.0
C618 C 0.91056 0.87278 0.09912 0.0
C619 C 0.86502 0.92177 0.06366 0.0
O620 O 0.86346 0.90127 0.13818 0.0
O621 O 0.82733 0.91803 0.12517 0.0
O622 O 0.81458 0.90012 0.08698 0.0
O623 O 0.8324 0.86247 0.08445 0.0
O624 O 0.85537 0.84937 0.12012 0.0
O625 O 0.86009 0.82389 0.09081 0.0
O626 O 0.86193 0.83155 0.04472 0.0
O627 O 0.90135 0.84932 0.04531 0.0
O628 O 0.90928 0.84935 0.09091 0.0
O629 O 0.89277 0.88774 0.09188 0.0
O630 O 0.86257 0.89799 0.05541 0.0
O631 O 0.86653 0.92468 0.08387 0.0
H632 H 0.79454 0.88892 0.14823 0.0
H633 H 0.77065 0.88404 0.18085 0.0
H634 H 0.83329 0.92657 0.21197 0.0
H635 H 0.85712 0.9311 0.1794 0.0
H636 H 0.86156 0.87571 1.01381 0.0
H637 H 0.85901 0.88076 0.97616 0.0
H638 H 0.90157 0.80698 0.96887 0.0
H639 H 0.90431 0.80234 1.00622 0.0
Nd640 Nd 0.61343 0.62913 0.81717 0.0
Nd641 Nd 0.64434 0.60081 0.8514 0.0
C642 C 0.59261 0.64816 0.78277 0.0
C643 C 0.6014 0.65047 0.76123 0.0
C644 C 0.58301 0.64872 0.74511 0.0
C645 C 0.59135 0.6515 0.72465 0.0
C646 C 0.61831 0.65596 0.72 0.0
C647 C 0.63661 0.65713 0.73628 0.0
C648 C 0.62826 0.65458 0.75663 0.0
C649 C 0.62891 0.66084 0.84932 0.0
C650 C 0.67736 0.617 0.8109 0.0
C651 C 0.66604 0.58504 0.88666 0.0
C652 C 0.66073 0.57202 0.90674 0.0
C653 C 0.64484 0.54919 0.9084 0.0
C654 C 0.64214 0.53604 0.92734 0.0
C655 C 0.65521 0.54543 0.94507 0.0
C656 C 0.67073 0.56856 0.94332 0.0
C657 C 0.67343 0.58163 0.92442 0.0
C658 C 0.62862 0.56837 0.81984 0.0
C659 C 0.57899 0.60914 0.85537 0.0
O660 O 0.58788 0.6242 0.78948 0.0
O661 O 0.60539 0.66266 0.79616 0.0
O662 O 0.60562 0.66177 0.84087 0.0
O663 O 0.64337 0.64347 0.84085 0.0
O664 O 0.6539 0.61996 0.80207 0.0
O665 O 0.67954 0.61348 0.83101 0.0
O666 O 0.6569 0.60904 0.88371 0.0
O667 O 0.66488 0.57037 0.87012 0.0
O668 O 0.6503 0.56464 0.83017 0.0
O669 O 0.6151 0.58695 0.82747 0.0
O670 O 0.60182 0.60541 0.86507 0.0
O671 O 0.57784 0.61511 0.83569 0.0
H672 H 0.56215 0.64554 0.74835 0.0
H673 H 0.5766 0.65079 0.71257 0.0
H674 H 0.65747 0.66007 0.7333 0.0
H675 H 0.64276 0.65616 0.76883 0.0
H676 H 0.63479 0.54129 0.89502 0.0
H677 H 0.62974 0.51854 0.92809 0.0
H678 H 0.68144 0.57625 0.95646 0.0
H679 H 0.686 0.59902 0.92353 0.0
Nd680 Nd 0.63113 0.35677 0.06773 0.0
Nd681 Nd 0.65681 0.38589 0.10389 0.0
C682 C 0.61589 0.3388 0.03156 0.0
C683 C 0.61957 0.34672 1.00981 0.0
C684 C 0.64404 0.34336 0.9997 0.0
C685 C 0.64691 0.35057 0.97905 0.0
C686 C 0.62544 0.36141 0.96806 0.0
C687 C 0.60114 0.36518 0.97832 0.0
C688 C 0.59821 0.35778 0.99889 0.0
C689 C 0.59695 0.36914 0.09943 0.0
C690 C 0.645 0.41999 0.06176 0.0
C691 C 0.67026 0.41221 0.13762 0.0
C692 C 0.68458 0.40759 0.15734 0.0
C693 C 0.67066 0.40906 0.17605 0.0
C694 C 0.68379 0.40549 0.19485 0.0
C695 C 0.71129 0.40056 0.19547 0.0
C696 C 0.7252 0.399 0.17671 0.0
C697 C 0.71203 0.40243 0.15789 0.0
C698 C 0.69176 0.36146 0.07719 0.0
C699 C 0.64876 0.32207 0.10633 0.0
O700 O 0.63664 0.32947 0.0414 0.0
O701 O 0.60126 0.35459 0.04286 0.0
O702 O 0.5964 0.34687 0.08948 0.0
O703 O 0.61475 0.38411 0.09233 0.0
O704 O 0.63867 0.39721 0.05313 0.0
O705 O 0.65072 0.42168 0.08166 0.0
O706 O 0.64736 0.40024 0.13535 0.0
O707 O 0.6842 0.4128 0.1206 0.0
O708 O 0.69513 0.36149 0.09699 0.0
O709 O 0.67128 0.37424 0.07268 0.0
O710 O 0.64693 0.34437 0.11693 0.0
O711 O 0.64857 0.32213 0.08605 0.0
H712 H 0.66096 0.33494 1.00764 0.0
H713 H 0.66579 0.34704 0.97156 0.0
H714 H 0.5843 0.37385 0.97045 0.0
H715 H 0.57914 0.36067 1.00627 0.0
H716 H 0.64955 0.41322 0.17615 0.0
H717 H 0.67246 0.40719 0.20894 0.0
H718 H 0.74632 0.39493 0.17654 0.0
H719 H 0.72343 0.40112 0.1438 0.0
Nd720 Nd 0.90047 0.39027 0.31715 0.0
Nd721 Nd 0.86818 0.4081 0.35386 0.0
C722 C 0.92126 0.38352 0.28009 0.0
C723 C 0.9123 0.38302 0.25849 0.0
C724 C 0.92855 0.39401 0.24322 0.0
C725 C 0.92094 0.39313 0.22255 0.0
C726 C 0.89691 0.38105 0.21666 0.0
C727 C 0.88036 0.37056 0.23214 0.0
C728 C 0.88792 0.37165 0.25284 0.0
C729 C 0.88551 0.35024 0.34347 0.0
C730 C 0.83621 0.39778 0.31225 0.0
C731 C 0.84578 0.41711 0.39025 0.0
C732 C 0.8504 0.43135 0.40984 0.0
C733 C 0.83725 0.42286 0.42767 0.0
C734 C 0.83997 0.43683 0.44617 0.0
C735 C 0.85594 0.45971 0.44731 0.0
C736 C 0.86938 0.46798 0.4294 0.0
C737 C 0.86668 0.45393 0.41087 0.0
C738 C 0.88483 0.44819 0.32825 0.0
C739 C 0.93388 0.40106 0.35771 0.0
O740 O 0.92037 0.40648 0.28938 0.0
O741 O 0.91374 0.36391 0.2919 0.0
O742 O 0.90889 0.3518 0.3351 0.0
O743 O 0.87067 0.36894 0.33757 0.0
O744 O 0.85965 0.40103 0.30355 0.0
O745 O 0.8342 0.3947 0.3324 0.0
O746 O 0.86052 0.39632 0.38639 0.0
O747 O 0.84156 0.43163 0.37394 0.0
O748 O 0.86133 0.44729 0.3363 0.0
O749 O 0.89852 0.42884 0.3341 0.0
O750 O 0.91069 0.40121 0.36741 0.0
O751 O 0.93547 0.40062 0.33751 0.0
H752 H 0.94729 0.40317 0.24727 0.0
H753 H 0.93392 0.40199 0.2112 0.0
H754 H 0.86183 0.36091 0.22827 0.0
H755 H 0.87487 0.3633 0.26439 0.0
H756 H 0.82446 0.4056 0.42721 0.0
H757 H 0.82901 0.43001 0.45948 0.0
H758 H 0.88212 0.48527 0.42971 0.0
H759 H 0.87708 0.46084 0.39731 0.0
Nd760 Nd 0.88099 0.65266 0.56466 0.0
Nd761 Nd 0.85683 0.62413 0.60184 0.0
C762 C 0.89515 0.67163 0.52833 0.0
C763 C 0.88772 0.66966 0.50646 0.0
C764 C 0.884 0.64503 0.49679 0.0
C765 C 0.87847 0.64378 0.47574 0.0
C766 C 0.87659 0.66712 0.46399 0.0
C767 C 0.8797 0.69173 0.47386 0.0
C768 C 0.88521 0.69296 0.49488 0.0
C769 C 0.91742 0.63626 0.59347 0.0
C770 C 0.86436 0.59101 0.56008 0.0
C771 C 0.84686 0.60237 0.6383 0.0
C772 C 0.83326 0.60593 0.65827 0.0
C773 C 0.81645 0.62757 0.66222 0.0
C774 C 0.80314 0.62965 0.68118 0.0
C775 C 0.80644 0.61015 0.69654 0.0
C776 C 0.82346 0.58863 0.69238 0.0
C777 C 0.83668 0.5866 0.67352 0.0
C778 C 0.81993 0.64158 0.57382 0.0
C779 C 0.86747 0.68935 0.60373 0.0
O780 O 0.87838 0.68367 0.54048 0.0
O781 O 0.90618 0.65085 0.53682 0.0
O782 O 0.91909 0.65835 0.5834 0.0
O783 O 0.89759 0.62291 0.58763 0.0
O784 O 0.86356 0.61447 0.55118 0.0
O785 O 0.86685 0.58902 0.5803 0.0
O786 O 0.86778 0.61697 0.63454 0.0
O787 O 0.83194 0.59891 0.62209 0.0
O788 O 0.81669 0.62046 0.58492 0.0
O789 O 0.84061 0.65375 0.57916 0.0
O790 O 0.86311 0.66712 0.61414 0.0
O791 O 0.87225 0.68926 0.5838 0.0
H792 H 0.88578 0.62676 0.5054 0.0
H793 H 0.87584 0.62456 0.4686 0.0
H794 H 0.87873 0.71006 0.46523 0.0
H795 H 0.88807 0.71215 0.50203 0.0
H796 H 0.81353 0.64272 0.65064 0.0
H797 H 0.79044 0.64663 0.68384 0.0
H798 H 0.82619 0.57296 0.70356 0.0
H799 H 0.84942 0.56965 0.67074 0.0
Nd800 Nd 0.60748 0.38577 0.71724 0.0
Nd801 Nd 0.63952 0.40476 0.68008 0.0
C802 C 0.587 0.37536 0.75391 0.0
C803 C 0.59527 0.37616 0.77564 0.0
C804 C 0.61277 0.39563 0.78289 0.0
C805 C 0.6197 0.39663 0.80369 0.0
C806 C 0.60998 0.37756 0.81759 0.0
C807 C 0.5931 0.35751 0.81002 0.0
C808 C 0.58567 0.35699 0.78931 0.0
C809 C 0.62241 0.34659 0.69019 0.0
C810 C 0.671 0.39528 0.72256 0.0
C811 C 0.66113 0.41245 0.64324 0.0
C812 C 0.6575 0.42853 0.62419 0.0
C813 C 0.63962 0.42074 0.6087 0.0
C814 C 0.63758 0.43521 0.59034 0.0
C815 C 0.65338 0.45783 0.58693 0.0
C816 C 0.67112 0.46567 0.6025 0.0
C817 C 0.67322 0.45117 0.62081 0.0
C818 C 0.62459 0.44488 0.70589 0.0
C819 C 0.5736 0.39838 0.67693 0.0
O820 O 0.58406 0.39811 0.74448 0.0
O821 O 0.59853 0.35748 0.74245 0.0
O822 O 0.59942 0.34745 0.69917 0.0
O823 O 0.63705 0.36549 0.69596 0.0
O824 O 0.64741 0.39789 0.73105 0.0
O825 O 0.67344 0.39266 0.70234 0.0
O826 O 0.64397 0.39361 0.64715 0.0
O827 O 0.6687 0.42494 0.65984 0.0
O828 O 0.64595 0.44552 0.69487 0.0
O829 O 0.61033 0.42523 0.70129 0.0
O830 O 0.59666 0.39919 0.66708 0.0
O831 O 0.57219 0.39653 0.69711 0.0
H832 H 0.62089 0.4102 0.7725 0.0
H833 H 0.63234 0.41262 0.80887 0.0
H834 H 0.58572 0.34203 0.82003 0.0
H835 H 0.57246 0.34151 0.78395 0.0
H836 H 0.62733 0.40331 0.61065 0.0
H837 H 0.62349 0.42871 0.57883 0.0
H838 H 0.68391 0.48269 0.60036 0.0
H839 H 0.6875 0.45752 0.63225 0.0
Nd840 Nd 0.87956 0.35829 0.96692 0.0
Nd841 Nd 0.85215 0.38889 0.93302 0.0
C842 C 0.89707 0.33902 1.00234 0.0
C843 C 0.89216 0.34403 0.0243 0.0
C844 C 0.87226 0.36171 0.03065 0.0
C845 C 0.8685 0.36709 0.05157 0.0
C846 C 0.88445 0.3547 0.06656 0.0
C847 C 0.90406 0.33662 0.06002 0.0
C848 C 0.90793 0.33146 0.0391 0.0
C849 C 0.91306 0.37552 0.93633 0.0
C850 C 0.86496 0.4206 0.97408 0.0
C851 C 0.83801 0.41027 0.89728 0.0
C852 C 0.82288 0.40497 0.87802 0.0
C853 C 0.79955 0.41936 0.87394 0.0
C854 C 0.78603 0.41631 0.85525 0.0
C855 C 0.79555 0.3989 0.84001 0.0
C856 C 0.81876 0.38425 0.8442 0.0
C857 C 0.83225 0.38723 0.86296 0.0
C858 C 0.81812 0.37178 0.96319 0.0
C859 C 0.86219 0.32375 0.92789 0.0
O860 O 0.87753 0.32849 0.99196 0.0
O861 O 0.90899 0.35802 0.99227 0.0
O862 O 0.91441 0.35232 0.94481 0.0
O863 O 0.89465 0.38919 0.94424 0.0
O864 O 0.86522 0.39675 0.98236 0.0
O865 O 0.86485 0.42347 0.95388 0.0
O866 O 0.86049 0.39773 0.90018 0.0
O867 O 0.82446 0.41333 0.91428 0.0
O868 O 0.81493 0.39379 0.95314 0.0
O869 O 0.83732 0.35861 0.956 0.0
O870 O 0.8543 0.34636 0.91952 0.0
O871 O 0.87162 0.32237 0.94674 0.0
H872 H 0.85977 0.37146 0.01943 0.0
H873 H 0.8534 0.3813 0.05593 0.0
H874 H 0.91634 0.32623 0.07105 0.0
H875 H 0.9233 0.31764 0.03447 0.0
H876 H 0.792 0.43345 0.88508 0.0
H877 H 0.76849 0.42823 0.85254 0.0
H878 H 0.82654 0.37043 0.83297 0.0
H879 H 0.8502 0.37588 0.8655 0.0
Nd880 Nd 0.90437 0.62585 0.21696 0.0
Nd881 Nd 0.87168 0.60323 0.18173 0.0
C882 C 0.92567 0.6381 0.25293 0.0
C883 C 0.91595 0.64154 0.27407 0.0
C884 C 0.93347 0.6386 0.29061 0.0
C885 C 0.92456 0.64239 0.31076 0.0
C886 C 0.89791 0.64921 0.31473 0.0
C887 C 0.88045 0.65208 0.29798 0.0
C888 C 0.88932 0.64809 0.27787 0.0
C889 C 0.88698 0.66305 0.18922 0.0
C890 C 0.84086 0.6148 0.22392 0.0
C891 C 0.84899 0.59218 0.1459 0.0
C892 C 0.85348 0.57655 0.12681 0.0
C893 C 0.83767 0.55417 0.12281 0.0
C894 C 0.84053 0.53987 0.10448 0.0
C895 C 0.85915 0.54769 0.08954 0.0
C896 C 0.87514 0.56999 0.09361 0.0
C897 C 0.87237 0.58424 0.11202 0.0
C898 C 0.88865 0.56598 0.20935 0.0
C899 C 0.93727 0.61072 0.17648 0.0
O900 O 0.9252 0.61397 0.24563 0.0
O901 O 0.91763 0.65574 0.2396 0.0
O902 O 0.91021 0.66343 0.19779 0.0
O903 O 0.87317 0.64391 0.19581 0.0
O904 O 0.86474 0.61485 0.2322 0.0
O905 O 0.83781 0.61543 0.20371 0.0
O906 O 0.86357 0.61331 0.14906 0.0
O907 O 0.84442 0.57883 0.16277 0.0
O908 O 0.86607 0.56476 0.19985 0.0
O909 O 0.90233 0.58524 0.20295 0.0
O910 O 0.91407 0.60569 0.16771 0.0
O911 O 0.93946 0.61705 0.19606 0.0
H912 H 0.95411 0.63362 0.28793 0.0
H913 H 0.93874 0.64053 0.32319 0.0
H914 H 0.85984 0.65728 0.30038 0.0
H915 H 0.87542 0.65033 0.26528 0.0
H916 H 0.82273 0.54792 0.13377 0.0
H917 H 0.82762 0.52306 0.10179 0.0
H918 H 0.88989 0.57643 0.08257 0.0
H919 H 0.88486 0.6014 0.11453 0.0
Nd920 Nd 0.6345 0.653 0.471 0.0
Nd921 Nd 0.66116 0.62279 0.43188 0.0
C922 C 0.62812 0.67797 0.50623 0.0
C923 C 0.63556 0.67522 0.52802 0.0
C924 C 0.63678 0.65026 0.53759 0.0
C925 C 0.64134 0.64836 0.55877 0.0
C926 C 0.64495 0.67137 0.57067 0.0
C927 C 0.64463 0.69621 0.56084 0.0
C928 C 0.63995 0.69809 0.53972 0.0
C929 C 0.59631 0.63859 0.4424 0.0
C930 C 0.6458 0.58916 0.47437 0.0
C931 C 0.67567 0.59491 0.39916 0.0
C932 C 0.68968 0.59866 0.37925 0.0
C933 C 0.67751 0.59029 0.36096 0.0
C934 C 0.69055 0.59291 0.34202 0.0
C935 C 0.71622 0.60388 0.34092 0.0
C936 C 0.72836 0.61235 0.35928 0.0
C937 C 0.71523 0.60985 0.37821 0.0
C938 C 0.69446 0.64649 0.45979 0.0
C939 C 0.65015 0.68645 0.42927 0.0
O940 O 0.64711 0.68402 0.4932 0.0
O941 O 0.61122 0.66048 0.49907 0.0
O942 O 0.59069 0.65086 0.45939 0.0
O943 O 0.6209 0.6348 0.44177 0.0
O944 O 0.64188 0.61183 0.48411 0.0
O945 O 0.65026 0.58795 0.45416 0.0
O946 O 0.65222 0.60589 0.40105 0.0
O947 O 0.6898 0.59639 0.41603 0.0
O948 O 0.69928 0.64629 0.44013 0.0
O949 O 0.67359 0.6339 0.4637 0.0
O950 O 0.65216 0.66414 0.41859 0.0
O951 O 0.64729 0.68702 0.44952 0.0
H952 H 0.63365 0.6323 0.5288 0.0
H953 H 0.64185 0.62893 0.56585 0.0
H954 H 0.64702 0.71433 0.56958 0.0
H955 H 0.63902 0.71751 0.53263 0.0
H956 H 0.65789 0.58148 0.36132 0.0
H957 H 0.68069 0.58589 0.32827 0.0
H958 H 0.74794 0.62121 0.35902 0.0
H959 H 0.72514 0.61663 0.39202 0.0
Nd960 Nd 0.36924 0.41107 0.18085 0.0
Nd961 Nd 0.39963 0.38308 0.21922 0.0
C962 C 0.3412 0.42616 0.14831 0.0
C963 C 0.34491 0.43972 0.12823 0.0
C964 C 0.3624 0.46124 0.12594 0.0
C965 C 0.36485 0.47426 0.10693 0.0
C966 C 0.34999 0.46597 0.08973 0.0
C967 C 0.3327 0.44423 0.09211 0.0
C968 C 0.3302 0.43132 0.11111 0.0
C969 C 0.39423 0.44332 0.20877 0.0
C970 C 0.43283 0.39878 0.17742 0.0
C971 C 0.4248 0.37679 0.25438 0.0
C972 C 0.4223 0.38428 0.27634 0.0
C973 C 0.40357 0.37188 0.28918 0.0
C974 C 0.40358 0.37656 0.31036 0.0
C975 C 0.42227 0.39382 0.31926 0.0
C976 C 0.44006 0.40729 0.30623 0.0
C977 C 0.44016 0.40247 0.28504 0.0
C978 C 0.38431 0.34545 0.19053 0.0
C979 C 0.33613 0.39624 0.22383 0.0
O980 O 0.35139 0.40238 0.15025 0.0
O981 O 0.34378 0.44053 0.16497 0.0
O982 O 0.39357 0.44861 0.18919 0.0
O983 O 0.38135 0.42263 0.21262 0.0
O984 O 0.41052 0.40296 0.16714 0.0
O985 O 0.43378 0.39409 0.19743 0.0
O986 O 0.43095 0.39556 0.2412 0.0
O987 O 0.40753 0.35968 0.24717 0.0
O988 O 0.39666 0.33968 0.20747 0.0
O989 O 0.3806 0.37011 0.1899 0.0
O990 O 0.35887 0.3906 0.23292 0.0
O991 O 0.33445 0.40176 0.2038 0.0
H992 H 0.37413 0.46807 0.13885 0.0
H993 H 0.37862 0.49066 0.10567 0.0
H994 H 0.32067 0.43744 0.07936 0.0
H995 H 0.31651 0.41485 0.11249 0.0
H996 H 0.38945 0.35777 0.28303 0.0
H997 H 0.38973 0.36558 0.31982 0.0
H998 H 0.45436 0.42116 0.31244 0.0
H999 H 0.45475 0.41242 0.27554 0.0
Nd1000 Nd 0.35562 0.62407 0.93016 0.0
Nd1001 Nd 0.38196 0.65299 0.96609 0.0
C1002 C 0.34128 0.59664 0.89714 0.0
C1003 C 0.32667 0.60005 0.8775 0.0
C1004 C 0.33711 0.58891 0.85945 0.0
C1005 C 0.32369 0.59145 0.84069 0.0
C1006 C 0.29939 0.60518 0.83948 0.0
C1007 C 0.28896 0.61639 0.85763 0.0
C1008 C 0.30249 0.61393 0.87642 0.0
C1009 C 0.32107 0.64927 0.95672 0.0
C1010 C 0.36447 0.68752 0.92714 0.0
C1011 C 0.39792 0.67314 1.00148 0.0
C1012 C 0.39385 0.6675 0.02339 0.0
C1013 C 0.37482 0.64895 0.02974 0.0
C1014 C 0.3715 0.6433 0.05063 0.0
C1015 C 0.387 0.65628 0.06552 0.0
C1016 C 0.40605 0.6749 0.05901 0.0
C1017 C 0.40946 0.6804 0.03811 0.0
C1018 C 0.416 0.6402 0.93435 0.0
C1019 C 0.36689 0.59017 0.97263 0.0
O1020 O 0.36412 0.60884 0.89876 0.0
O1021 O 0.32756 0.59707 0.91424 0.0
O1022 O 0.31777 0.64915 0.93691 0.0
O1023 O 0.3414 0.6363 0.96139 0.0
O1024 O 0.36594 0.66515 0.91661 0.0
O1025 O 0.36477 0.68753 0.94742 0.0
O1026 O 0.3772 0.68198 0.99138 0.0
O1027 O 0.41146 0.65535 0.99123 0.0
O1028 O 0.41699 0.66222 0.94456 0.0
O1029 O 0.39795 0.62542 0.94137 0.0
O1030 O 0.37387 0.61285 0.98115 0.0
O1031 O 0.36106 0.58852 0.95274 0.0
H1032 H 0.35567 0.57805 0.85988 0.0
H1033 H 0.33219 0.58224 0.82716 0.0
H1034 H 0.27048 0.62736 0.85729 0.0
H1035 H 0.29403 0.62288 0.89007 0.0
H1036 H 0.3626 0.63884 0.01852 0.0
H1037 H 0.35701 0.62859 0.05515 0.0
H1038 H 0.41807 0.68552 0.07009 0.0
H1039 H 0.42425 0.69479 0.03344 0.0
Nd1040 Nd 0.14359 0.60171 0.68008 0.0
Nd1041 Nd 0.109 0.61696 0.71652 0.0
C1042 C 0.16686 0.59617 0.64365 0.0
C1043 C 0.16235 0.5825 0.62387 0.0
C1044 C 0.14445 0.56127 0.62227 0.0
C1045 C 0.14162 0.54754 0.60364 0.0
C1046 C 0.15658 0.55482 0.58621 0.0
C1047 C 0.17414 0.57644 0.58787 0.0
C1048 C 0.17699 0.59008 0.60651 0.0
C1049 C 0.12889 0.56007 0.70463 0.0
C1050 C 0.07764 0.60419 0.67542 0.0
C1051 C 0.08677 0.62264 0.75316 0.0
C1052 C 0.09539 0.62763 0.77453 0.0
C1053 C 0.08558 0.61156 0.7904 0.0
C1054 C 0.09336 0.61586 0.81077 0.0
C1055 C 0.11105 0.63649 0.81577 0.0
C1056 C 0.12099 0.65247 0.79975 0.0
C1057 C 0.11335 0.64801 0.77935 0.0
C1058 C 0.12361 0.65812 0.69115 0.0
C1059 C 0.1736 0.61189 0.7229 0.0
O1060 O 0.15108 0.61596 0.64817 0.0
O1061 O 0.17184 0.58103 0.65949 0.0
O1062 O 0.15196 0.56183 0.69593 0.0
O1063 O 0.11413 0.57893 0.69924 0.0
O1064 O 0.101 0.60642 0.66613 0.0
O1065 O 0.0756 0.60355 0.6956 0.0
O1066 O 0.09313 0.59959 0.74539 0.0
O1067 O 0.08929 0.64206 0.73997 0.0
O1068 O 0.09989 0.65542 0.69869 0.0
O1069 O 0.13881 0.63992 0.69732 0.0
O1070 O 0.14982 0.60918 0.73113 0.0
O1071 O 0.17654 0.61429 0.70275 0.0
H1072 H 0.13287 0.55514 0.63549 0.0
H1073 H 0.12765 0.53125 0.60288 0.0
H1074 H 0.18621 0.58244 0.57491 0.0
H1075 H 0.191 0.60634 0.60744 0.0
H1076 H 0.07189 0.59558 0.78702 0.0
H1077 H 0.08571 0.60278 0.82256 0.0
H1078 H 0.1344 0.66871 0.80295 0.0
H1079 H 0.12142 0.66059 0.76739 0.0
Nd1080 Nd 0.15662 0.38734 0.43325 0.0
Nd1081 Nd 0.13022 0.35977 0.47002 0.0
C1082 C 0.17112 0.41345 0.39963 0.0
C1083 C 0.18584 0.40973 0.37997 0.0
C1084 C 0.20834 0.4253 0.37582 0.0
C1085 C 0.22157 0.42335 0.35691 0.0
C1086 C 0.21253 0.40588 0.34154 0.0
C1087 C 0.19014 0.39009 0.3458 0.0
C1088 C 0.17698 0.39195 0.36477 0.0
C1089 C 0.19087 0.3637 0.46078 0.0
C1090 C 0.1488 0.32378 0.43212 0.0
C1091 C 0.1147 0.341 0.50598 0.0
C1092 C 0.11846 0.34742 0.5278 0.0
C1093 C 0.13709 0.36648 0.534 0.0
C1094 C 0.14011 0.37261 0.55486 0.0
C1095 C 0.12461 0.3597 0.56983 0.0
C1096 C 0.10604 0.34055 0.56344 0.0
C1097 C 0.10297 0.33453 0.54261 0.0
C1098 C 0.09636 0.37055 0.43774 0.0
C1099 C 0.14374 0.42319 0.47434 0.0
O1100 O 0.14822 0.40141 0.40166 0.0
O1101 O 0.18491 0.41374 0.4167 0.0
O1102 O 0.1945 0.36278 0.44102 0.0
O1103 O 0.17051 0.37688 0.46495 0.0
O1104 O 0.14703 0.3456 0.42095 0.0
O1105 O 0.1481 0.32466 0.45239 0.0
O1106 O 0.13562 0.33216 0.49613 0.0
O1107 O 0.10081 0.35809 0.49529 0.0
O1108 O 0.09535 0.34911 0.44868 0.0
O1109 O 0.11424 0.38579 0.44439 0.0
O1110 O 0.13715 0.4009 0.48363 0.0
O1111 O 0.14998 0.42384 0.45451 0.0
H1112 H 0.21548 0.43936 0.38713 0.0
H1113 H 0.23854 0.43604 0.35414 0.0
H1114 H 0.1828 0.37616 0.33448 0.0
H1115 H 0.15971 0.37962 0.3674 0.0
H1116 H 0.14924 0.37659 0.52272 0.0
H1117 H 0.15434 0.38764 0.55925 0.0
H1118 H 0.0941 0.32991 0.57456 0.0
H1119 H 0.08854 0.31973 0.53807 0.0
Nd1120 Nd 0.37506 0.60305 0.35235 0.0
Nd1121 Nd 0.40311 0.62877 0.31595 0.0
C1122 C 0.35508 0.59091 0.38904 0.0
C1123 C 0.36037 0.57661 0.40852 0.0
C1124 C 0.37438 0.55251 0.40905 0.0
C1125 C 0.37736 0.53858 0.42762 0.0
C1126 C 0.36644 0.54848 0.44607 0.0
C1127 C 0.35281 0.57286 0.44541 0.0
C1128 C 0.34984 0.5867 0.42689 0.0
C1129 C 0.39232 0.56727 0.32348 0.0
C1130 C 0.44051 0.61422 0.35395 0.0
C1131 C 0.41984 0.64498 0.27945 0.0
C1132 C 0.41152 0.64266 0.25768 0.0
C1133 C 0.42573 0.62619 0.24415 0.0
C1134 C 0.41865 0.62461 0.22339 0.0
C1135 C 0.39727 0.63955 0.21572 0.0
C1136 C 0.38304 0.65596 0.22927 0.0
C1137 C 0.39001 0.65746 0.25001 0.0
C1138 C 0.38736 0.66358 0.34611 0.0
C1139 C 0.34094 0.61317 0.31135 0.0
O1140 O 0.36848 0.61264 0.38544 0.0
O1141 O 0.35127 0.57672 0.37248 0.0
O1142 O 0.37105 0.56392 0.33441 0.0
O1143 O 0.40477 0.58767 0.32918 0.0
O1144 O 0.41831 0.60942 0.36435 0.0
O1145 O 0.4403 0.61953 0.33412 0.0
O1146 O 0.42867 0.62352 0.2884 0.0
O1147 O 0.40494 0.65934 0.29159 0.0
O1148 O 0.40971 0.66519 0.33629 0.0
O1149 O 0.37352 0.64444 0.33953 0.0
O1150 O 0.36431 0.61341 0.30232 0.0
O1151 O 0.33905 0.6135 0.33167 0.0
H1152 H 0.38276 0.54429 0.39509 0.0
H1153 H 0.38827 0.52007 0.42752 0.0
H1154 H 0.34376 0.58099 0.45913 0.0
H1155 H 0.3388 0.60515 0.42685 0.0
H1156 H 0.44246 0.61465 0.24959 0.0
H1157 H 0.4299 0.61168 0.21334 0.0
H1158 H 0.3669 0.66819 0.2237 0.0
H1159 H 0.37872 0.67051 0.25994 0.0
Nd1160 Nd 0.1605 0.62385 0.10091 0.0
Nd1161 Nd 0.13342 0.65392 0.0663 0.0
C1162 C 0.17382 0.60221 0.13675 0.0
C1163 C 0.18865 0.60666 0.1563 0.0
C1164 C 0.17593 0.61741 0.17369 0.0
C1165 C 0.18914 0.61903 0.19264 0.0
C1166 C 0.21541 0.60983 0.19478 0.0
C1167 C 0.22822 0.59943 0.1773 0.0
C1168 C 0.21501 0.59778 0.15837 0.0
C1169 C 0.19491 0.64102 0.07103 0.0
C1170 C 0.1496 0.68888 0.10536 0.0
C1171 C 0.11646 0.6726 0.03061 0.0
C1172 C 0.12118 0.66782 1.00841 0.0
C1173 C 0.11006 0.64579 0.99832 0.0
C1174 C 0.11369 0.64222 0.97717 0.0
C1175 C 0.1286 0.6605 0.96563 0.0
C1176 C 0.14 0.68232 0.9758 0.0
C1177 C 0.13625 0.68598 0.99691 0.0
C1178 C 0.09999 0.63698 0.09697 0.0
C1179 C 0.14838 0.59171 0.05984 0.0
O1180 O 0.15168 0.61531 0.13376 0.0
O1181 O 0.18753 0.59908 0.11983 0.0
O1182 O 0.19826 0.61928 0.08138 0.0
O1183 O 0.17536 0.654 0.07781 0.0
O1184 O 0.15709 0.66644 0.11421 0.0
O1185 O 0.1412 0.69005 0.08622 0.0
O1186 O 0.13581 0.68343 0.04106 0.0
O1187 O 0.10404 0.65414 0.04098 0.0
O1188 O 0.09836 0.66002 0.08825 0.0
O1189 O 0.11838 0.62329 0.08911 0.0
O1190 O 0.1482 0.6154 0.05128 0.0
O1191 O 0.1481 0.58918 0.08006 0.0
H1192 H 0.15555 0.62416 0.17277 0.0
H1193 H 0.1787 0.62746 0.20565 0.0
H1194 H 0.24825 0.59175 0.17834 0.0
H1195 H 0.22531 0.58893 0.14546 0.0
H1196 H 0.09834 0.63137 1.00667 0.0
H1197 H 0.10486 0.62507 0.96986 0.0
H1198 H 0.15129 0.69698 0.96734 0.0
H1199 H 0.1449 0.70324 1.00421 0.0
Nd1200 Nd 0.14469 0.40899 0.85418 0.0
Nd1201 Nd 0.1104 0.38718 0.81952 0.0
C1202 C 0.16841 0.41924 0.88972 0.0
C1203 C 0.16361 0.43341 0.90927 0.0
C1204 C 0.14668 0.45553 0.9103 0.0
C1205 C 0.14363 0.46951 0.9288 0.0
C1206 C 0.15733 0.46156 0.94666 0.0
C1207 C 0.17392 0.43912 0.94554 0.0
C1208 C 0.17702 0.42525 0.92705 0.0
C1209 C 0.12924 0.44587 0.82588 0.0
C1210 C 0.07883 0.40328 0.86037 0.0
C1211 C 0.08791 0.37709 0.78366 0.0
C1212 C 0.09591 0.3775 0.76179 0.0
C1213 C 0.08132 0.3927 0.74768 0.0
C1214 C 0.08852 0.39328 0.7269 0.0
C1215 C 0.11043 0.37858 0.71983 0.0
C1216 C 0.12493 0.3633 0.73398 0.0
C1217 C 0.1179 0.3629 0.75476 0.0
C1218 C 0.12617 0.35037 0.84808 0.0
C1219 C 0.17461 0.39508 0.81196 0.0
O1220 O 0.15465 0.39765 0.88636 0.0
O1221 O 0.17118 0.43385 0.87325 0.0
O1222 O 0.1523 0.44611 0.83474 0.0
O1223 O 0.11474 0.42773 0.83303 0.0
O1224 O 0.10232 0.40844 0.86868 0.0
O1225 O 0.0761 0.39626 0.84099 0.0
O1226 O 0.08615 0.40012 0.79283 0.0
O1227 O 0.09848 0.35876 0.79533 0.0
O1228 O 0.1026 0.35096 0.84001 0.0
O1229 O 0.14087 0.36818 0.84055 0.0
O1230 O 0.1506 0.39546 0.80383 0.0
O1231 O 0.17791 0.39552 0.83215 0.0
H1232 H 0.13602 0.46212 0.89677 0.0
H1233 H 0.13044 0.48647 0.92915 0.0
H1234 H 0.18504 0.4326 0.95886 0.0
H1235 H 0.19026 0.40832 0.92657 0.0
H1236 H 0.06434 0.40417 0.75274 0.0
H1237 H 0.07705 0.40539 0.7164 0.0
H1238 H 0.14139 0.35118 0.72888 0.0
H1239 H 0.1296 0.351 0.76525 0.0
Nd1240 Nd 0.35531 0.38571 0.60159 0.0
Nd1241 Nd 0.37647 0.35465 0.56452 0.0
C1242 C 0.34486 0.40659 0.6383 0.0
C1243 C 0.32905 0.40225 0.65743 0.0
C1244 C 0.33994 0.3886 0.67431 0.0
C1245 C 0.32596 0.38662 0.69292 0.0
C1246 C 0.30073 0.39836 0.69524 0.0
C1247 C 0.2897 0.41166 0.67823 0.0
C1248 C 0.30369 0.41366 0.65964 0.0
C1249 C 0.31672 0.36793 0.57506 0.0
C1250 C 0.3637 0.32035 0.60449 0.0
C1251 C 0.38577 0.33548 0.5273 0.0
C1252 C 0.39307 0.34606 0.50695 0.0
C1253 C 0.38117 0.33534 0.48935 0.0
C1254 C 0.38728 0.34534 0.46987 0.0
C1255 C 0.40554 0.36623 0.46762 0.0
C1256 C 0.41733 0.37707 0.48533 0.0
C1257 C 0.411 0.36722 0.50485 0.0
C1258 C 0.4149 0.37141 0.59161 0.0
C1259 C 0.36705 0.41876 0.56007 0.0
O1260 O 0.36518 0.39105 0.63471 0.0
O1261 O 0.33197 0.4128 0.62153 0.0
O1262 O 0.31512 0.39014 0.58497 0.0
O1263 O 0.33706 0.35524 0.58047 0.0
O1264 O 0.36323 0.34326 0.6145 0.0
O1265 O 0.36458 0.31926 0.58424 0.0
O1266 O 0.36215 0.3419 0.53387 0.0
O1267 O 0.40377 0.33636 0.54178 0.0
O1268 O 0.41569 0.3489 0.58197 0.0
O1269 O 0.39512 0.38504 0.58599 0.0
O1270 O 0.36673 0.39543 0.55099 0.0
O1271 O 0.36734 0.42068 0.58041 0.0
H1272 H 0.35951 0.37978 0.67329 0.0
H1273 H 0.335 0.37593 0.70554 0.0
H1274 H 0.27054 0.42129 0.67944 0.0
H1275 H 0.29481 0.42469 0.64713 0.0
H1276 H 0.36712 0.31916 0.49067 0.0
H1277 H 0.37811 0.33632 0.45654 0.0
H1278 H 0.43123 0.39338 0.48411 0.0
H1279 H 0.42008 0.37614 0.51826 0.0
H1280 H 0.16911 0.10852 0.27004 0.0
H1281 H 0.22382 0.1162 0.32123 0.0
H1282 H 0.26156 0.1159 0.29671 0.0
H1283 H 0.20892 0.06434 0.23967 0.0
H1284 H 0.19914 0.07915 0.21561 0.0
H1285 H 0.17687 0.07997 0.23727 0.0
H1286 H 0.17398 0.13118 0.23447 0.0
H1287 H 0.19613 0.13036 0.21275 0.0
H1288 H 0.20407 0.15049 0.2348 0.0
H1289 H 0.29332 0.11549 0.26603 0.0
H1290 H 0.31628 0.1135 0.23248 0.0
H1291 H 0.24026 0.10604 0.20165 0.0
C1292 C 0.18898 0.11013 0.27623 0.0
C1293 C 0.19341 0.11244 0.29768 0.0
C1294 C 0.21985 0.11438 0.30493 0.0
C1295 C 0.2414 0.11428 0.29109 0.0
C1296 C 0.23621 0.11214 0.27003 0.0
C1297 C 0.21059 0.11 0.26269 0.0
C1298 C 0.21014 0.10782 0.23943 0.0
C1299 C 0.19806 0.08123 0.2326 0.0
C1300 C 0.1952 0.13136 0.2298 0.0
C1301 C 0.2396 0.10906 0.23471 0.0
C1302 C 0.25432 0.11166 0.25255 0.0
C1303 C 0.28193 0.11347 0.25201 0.0
C1304 C 0.29481 0.1125 0.23282 0.0
C1305 C 0.28017 0.10965 0.21432 0.0
C1306 C 0.25213 0.10794 0.21544 0.0
H1307 H 0.15126 0.98798 0.45232 0.0
H1308 H 0.14369 0.06334 0.48399 0.0
H1309 H 0.14143 0.0398 0.51725 0.0
H1310 H 0.1067 0.95128 0.48478 0.0
H1311 H 0.12607 0.92126 0.48413 0.0
H1312 H 0.12709 0.94386 0.46272 0.0
H1313 H 0.17814 0.94692 0.46575 0.0
H1314 H 0.17757 0.92429 0.48715 0.0
H1315 H 0.19292 0.95635 0.48991 0.0
H1316 H 0.14088 0.00755 0.54755 0.0
H1317 H 0.14068 0.96946 0.57166 0.0
H1318 H 0.14873 0.91571 0.5199 0.0
C1319 C 0.14926 0.99959 0.46623 0.0
C1320 C 0.14759 0.02761 0.46542 0.0
C1321 C 0.14463 0.04189 0.48408 0.0
C1322 C 0.14351 0.02868 0.50311 0.0
C1323 C 0.14531 1.00109 0.50334 0.0
C1324 C 0.14803 0.98671 0.48535 0.0
C1325 C 0.14937 0.95721 0.48975 0.0
C1326 C 0.12591 0.94255 0.47975 0.0
C1327 C 0.17609 0.94552 0.48272 0.0
C1328 C 0.14708 0.95726 0.513 0.0
C1329 C 0.14482 0.98271 0.52062 0.0
C1330 C 0.14259 0.98753 0.54172 0.0
C1331 C 0.14254 0.96577 0.55532 0.0
C1332 C 0.14463 0.9395 0.54779 0.0
C1333 C 0.14701 0.93544 0.5263 0.0
H1334 H 0.33608 0.90851 0.77215 0.0
H1335 H 0.28606 0.88024 0.82188 0.0
H1336 H 0.24822 0.87692 0.79756 0.0
H1337 H 0.28636 0.94827 0.7474 0.0
H1338 H 0.29749 0.94077 0.72168 0.0
H1339 H 0.3208 0.94068 0.7426 0.0
H1340 H 0.33505 0.89376 0.73404 0.0
H1341 H 0.31206 0.89212 0.71296 0.0
H1342 H 0.31086 0.86739 0.73296 0.0
H1343 H 0.21602 0.87555 0.76674 0.0
H1344 H 0.19241 0.87844 0.73345 0.0
H1345 H 0.26428 0.90772 0.70455 0.0
C1346 C 0.3172 0.90162 0.77806 0.0
C1347 C 0.31414 0.89449 0.79902 0.0
C1348 C 0.28893 0.88585 0.80597 0.0
C1349 C 0.26735 0.88383 0.79222 0.0
C1350 C 0.27123 0.89074 0.7716 0.0
C1351 C 0.29555 0.89967 0.76466 0.0
C1352 C 0.29472 0.90614 0.7419 0.0
C1353 C 0.30012 0.93575 0.73819 0.0
C1354 C 0.31431 0.88877 0.72975 0.0
C1355 C 0.26624 0.89912 0.73693 0.0
C1356 C 0.25292 0.89026 0.75421 0.0
C1357 C 0.22636 0.8825 0.75319 0.0
C1358 C 0.21313 0.88404 0.73414 0.0
C1359 C 0.22638 0.89335 0.71627 0.0
C1360 C 0.25337 0.90084 0.71787 0.0
H1361 H 0.35564 0.01079 0.95505 0.0
H1362 H 0.35615 0.93638 0.98857 0.0
H1363 H 0.35771 0.96101 0.02135 0.0
H1364 H 0.40137 0.04539 0.98786 0.0
H1365 H 0.38426 0.07668 0.98579 0.0
H1366 H 0.38257 0.05313 0.96505 0.0
H1367 H 0.33113 0.05411 0.9669 0.0
H1368 H 0.33295 0.07773 0.98759 0.0
H1369 H 0.31483 0.04726 0.99101 0.0
H1370 H 0.35919 0.99447 0.05105 0.0
H1371 H 0.36228 0.03357 0.07421 0.0
H1372 H 0.36177 0.08522 0.02083 0.0
C1373 C 0.35633 0.9996 0.96924 0.0
C1374 C 0.35567 0.97152 0.96908 0.0
C1375 C 0.35622 0.95784 0.98816 0.0
C1376 C 0.35722 0.97168 1.00692 0.0
C1377 C 0.35769 0.99931 1.0065 0.0
C1378 C 0.35733 0.0131 0.98811 0.0
C1379 C 0.35818 0.04277 0.9918 0.0
C1380 C 0.38308 0.05521 0.98206 0.0
C1381 C 0.33275 0.05624 0.98386 0.0
C1382 C 0.35949 0.04347 1.01508 0.0
C1383 C 0.35893 0.0183 0.02339 0.0
C1384 C 0.35971 0.01428 0.04468 0.0
C1385 C 0.36141 0.03656 0.05774 0.0
C1386 C 0.36257 0.06248 0.04945 0.0
C1387 C 0.36132 0.06572 0.0278 0.0
H1388 H 0.24334 0.89663 0.33467 0.0
H1389 H 0.31628 0.91904 0.30367 0.0
H1390 H 0.29297 0.91784 0.2703 0.0
H1391 H 0.2211 0.85088 0.29594 0.0
H1392 H 0.18655 0.85938 0.29848 0.0
H1393 H 0.20843 0.86248 0.32026 0.0
H1394 H 0.19586 0.91216 0.32445 0.0
H1395 H 0.17313 0.90885 0.30324 0.0
H1396 H 0.19852 0.934 0.30261 0.0
H1397 H 0.26085 0.91476 0.23982 0.0
H1398 H 0.22315 0.90955 0.21561 0.0
H1399 H 0.17221 0.88797 0.26684 0.0
C1400 C 0.25453 0.90106 0.32088 0.0
C1401 C 0.28173 0.90805 0.32196 0.0
C1402 C 0.29539 0.91403 0.30342 0.0
C1403 C 0.28233 0.91326 0.28431 0.0
C1404 C 0.25552 0.90645 0.28385 0.0
C1405 C 0.2418 0.90043 0.30168 0.0
C1406 C 0.21313 0.89361 0.29703 0.0
C1407 C 0.20694 0.86489 0.30332 0.0
C1408 C 0.19404 0.91333 0.30745 0.0
C1409 C 0.21282 0.8968 0.27386 0.0
C1410 C 0.23739 0.90425 0.26646 0.0
C1411 C 0.24156 0.9088 0.24549 0.0
C1412 C 0.22003 0.90577 0.23182 0.0
C1413 C 0.19467 0.89814 0.23915 0.0
C1414 C 0.1913 0.89355 0.26051 0.0
H1415 H 0.35885 0.92142 0.51708 0.0
H1416 H 0.36223 0.97331 0.46396 0.0
H1417 H 0.35993 0.01234 0.48719 0.0
H1418 H 0.31303 0.95993 0.54655 0.0
H1419 H 0.3288 0.95252 0.57075 0.0
H1420 H 0.33063 0.9291 0.5499 0.0
H1421 H 0.38202 0.92939 0.55194 0.0
H1422 H 0.3803 0.95248 0.57301 0.0
H1423 H 0.39954 0.96047 0.55047 0.0
H1424 H 0.3582 0.04568 0.51692 0.0
H1425 H 0.35622 0.07017 0.54979 0.0
H1426 H 0.3537 0.99559 0.58302 0.0
C1427 C 0.35938 0.94092 0.51021 0.0
C1428 C 0.3611 0.94423 0.48862 0.0
C1429 C 0.36103 0.97023 0.48041 0.0
C1430 C 0.35977 0.99249 0.49351 0.0
C1431 C 0.35842 0.98839 0.51476 0.0
C1432 C 0.35812 0.96317 0.52298 0.0
C1433 C 0.35644 0.96379 0.54624 0.0
C1434 C 0.33069 0.95056 0.5538 0.0
C1435 C 0.38104 0.95077 0.55598 0.0
C1436 C 0.35609 0.99343 0.54999 0.0
C1437 C 0.35719 0.00732 0.53166 0.0
C1438 C 0.35721 0.03495 0.53131 0.0
C1439 C 0.35596 0.04871 0.5501 0.0
C1440 C 0.35475 0.03491 0.5691 0.0
C1441 C 0.35491 0.00684 0.56887 0.0
H1442 H 0.26686 0.11358 0.83408 0.0
H1443 H 0.19169 0.11997 0.80184 0.0
H1444 H 0.21558 0.1218 0.76875 0.0
H1445 H 0.30412 0.15845 0.80035 0.0
H1446 H 0.33409 0.139 0.80196 0.0
H1447 H 0.31104 0.13933 0.82314 0.0
H1448 H 0.30829 0.08819 0.82167 0.0
H1449 H 0.33101 0.08777 0.80032 0.0
H1450 H 0.2989 0.07221 0.79799 0.0
H1451 H 0.24784 0.12162 0.73875 0.0
H1452 H 0.28587 0.11998 0.71465 0.0
H1453 H 0.3398 0.11397 0.76651 0.0
C1454 C 0.2554 0.11582 0.82011 0.0
C1455 C 0.22728 0.11651 0.82069 0.0
C1456 C 0.21316 0.11899 0.8019 0.0
C1457 C 0.22658 0.12022 0.78298 0.0
C1458 C 0.25423 0.1191 0.78296 0.0
C1459 C 0.26849 0.11713 0.80106 0.0
C1460 C 0.29807 0.11562 0.79676 0.0
C1461 C 0.31268 0.13953 0.8061 0.0
C1462 C 0.30975 0.08937 0.80465 0.0
C1463 C 0.29817 0.11677 0.77344 0.0
C1464 C 0.27272 0.11891 0.76575 0.0
C1465 C 0.26788 0.12006 0.74463 0.0
C1466 C 0.28961 0.11909 0.73102 0.0
C1467 C 0.3159 0.11691 0.73856 0.0
C1468 C 0.32003 0.11573 0.76012 0.0
H1469 H 0.14512 0.01842 0.08476 0.0
H1470 H 0.16878 0.94589 0.05385 0.0
H1471 H 0.16742 0.96919 0.02045 0.0
H1472 H 0.10027 0.04084 0.04526 0.0
H1473 H 0.10858 0.07532 0.04823 0.0
H1474 H 0.11101 0.05316 0.06989 0.0
H1475 H 0.16054 0.0658 0.07517 0.0
H1476 H 0.15786 0.08875 0.05407 0.0
H1477 H 0.18316 0.06343 0.05377 0.0
H1478 H 0.16412 1.00129 0.99001 0.0
H1479 H 0.15983 0.03921 0.96594 0.0
H1480 H 0.13896 0.09027 1.0172 0.0
C1481 C 0.15021 0.00742 0.07102 0.0
C1482 C 0.15702 0.98021 0.07206 0.0
C1483 C 0.16312 0.9666 0.05354 0.0
C1484 C 0.16255 0.97973 0.03445 0.0
C1485 C 0.15578 0.00653 0.03401 0.0
C1486 C 0.14972 0.02019 0.05185 0.0
C1487 C 0.14299 0.04887 0.04727 0.0
C1488 C 0.114 0.0549 0.05302 0.0
C1489 C 0.16229 0.06783 0.05821 0.0
C1490 C 0.14687 0.04942 0.02417 0.0
C1491 C 0.15398 0.0248 1.0167 0.0
C1492 C 0.15854 0.02065 0.99574 0.0
C1493 C 0.156 0.04229 0.98215 0.0
C1494 C 0.14914 0.06779 0.98958 0.0
C1495 C 0.14437 0.07113 1.0109 0.0
H1496 H 0.83372 0.89309 0.7667 0.0
H1497 H 0.78307 0.89554 0.71276 0.0
H1498 H 0.74352 0.89786 0.7356 0.0
H1499 H 0.79247 0.85304 0.79864 0.0
H1500 H 0.80083 0.87114 0.82164 0.0
H1501 H 0.82428 0.86914 0.8008 0.0
H1502 H 0.82672 0.92053 0.7996 0.0
H1503 H 0.80324 0.92254 0.8204 0.0
H1504 H 0.79665 0.93945 0.79652 0.0
H1505 H 0.70949 0.89986 0.7653 0.0
H1506 H 0.6847 0.90221 0.79809 0.0
H1507 H 0.75903 0.89954 0.83174 0.0
C1508 C 0.8144 0.89387 0.75947 0.0
C1509 C 0.8116 0.89382 0.73779 0.0
C1510 C 0.78578 0.89539 0.72927 0.0
C1511 C 0.76323 0.89671 0.74216 0.0
C1512 C 0.7669 0.89666 0.76349 0.0
C1513 C 0.79195 0.89539 0.77199 0.0
C1514 C 0.79104 0.8963 0.79525 0.0
C1515 C 0.80285 0.87089 0.80463 0.0
C1516 C 0.80524 0.92119 0.80342 0.0
C1517 C 0.76139 0.89789 0.79872 0.0
C1518 C 0.74772 0.89815 0.78027 0.0
C1519 C 0.72008 0.89973 0.77977 0.0
C1520 C 0.70617 0.90118 0.79851 0.0
C1521 C 0.71983 0.90103 0.81761 0.0
C1522 C 0.74786 0.89929 0.81752 0.0
H1523 H 0.85839 0.09611 0.51817 0.0
H1524 H 0.86535 0.04135 0.46694 0.0
H1525 H 0.86394 1.00366 0.49134 0.0
H1526 H 0.89918 0.05983 0.55361 0.0
H1527 H 0.87902 0.06796 0.57563 0.0
H1528 H 0.88054 0.09035 0.5541 0.0
H1529 H 0.82939 0.08889 0.55093 0.0
H1530 H 0.82764 0.06642 0.5724 0.0
H1531 H 0.81288 0.05739 0.54814 0.0
H1532 H 0.86223 0.97189 0.52168 0.0
H1533 H 0.85922 0.94865 0.555 0.0
H1534 H 0.85335 0.02438 0.58638 0.0
C1535 C 0.85963 0.07622 0.51197 0.0
C1536 C 0.86204 0.07176 0.49051 0.0
C1537 C 0.8635 0.04533 0.48323 0.0
C1538 C 0.86274 0.0238 0.49701 0.0
C1539 C 0.86044 0.02896 0.51805 0.0
C1540 C 0.85884 0.05456 0.52547 0.0
C1541 C 0.85637 0.05487 0.54874 0.0
C1542 C 0.8802 0.06909 0.5586 0.0
C1543 C 0.82999 0.06764 0.55544 0.0
C1544 C 0.85678 0.02536 0.55332 0.0
C1545 C 0.85926 0.01077 0.53542 0.0
C1546 C 0.86033 0.98316 0.53577 0.0
C1547 C 0.85879 0.97011 0.55484 0.0
C1548 C 0.85612 0.98456 0.57344 0.0
C1549 C 0.85511 0.01264 0.57251 0.0
H1550 H 0.68217 0.09152 0.26118 0.0
H1551 H 0.72316 0.1406 0.21666 0.0
H1552 H 0.7608 0.14564 0.24101 0.0
H1553 H 0.69905 0.12525 0.3056 0.0
H1554 H 0.70396 0.09612 0.32122 0.0
H1555 H 0.68184 0.09497 0.29956 0.0
H1556 H 0.70916 0.05504 0.28346 0.0
H1557 H 0.72917 0.05614 0.30637 0.0
H1558 H 0.74446 0.05844 0.28137 0.0
H1559 H 0.79279 0.14743 0.27198 0.0
H1560 H 0.81636 0.14427 0.30531 0.0
H1561 H 0.75406 0.09313 0.32867 0.0
C1562 C 0.69922 0.10305 0.25642 0.0
C1563 C 0.69971 0.11575 0.23704 0.0
C1564 C 0.72243 0.13057 0.23137 0.0
C1565 C 0.74384 0.13359 0.24515 0.0
C1566 C 0.74243 0.12123 0.26436 0.0
C1567 C 0.72085 0.10581 0.26977 0.0
C1568 C 0.72391 0.09465 0.29127 0.0
C1569 C 0.70083 0.10328 0.30525 0.0
C1570 C 0.72681 0.06429 0.2906 0.0
C1571 C 0.74975 0.10741 0.29767 0.0
C1572 C 0.7605 0.12226 0.28188 0.0
C1573 C 0.78453 0.13566 0.28434 0.0
C1574 C 0.79784 0.13369 0.30333 0.0
C1575 C 0.78705 0.11857 0.31973 0.0
C1576 C 0.76268 0.10525 0.31666 0.0
H1577 H 0.64867 0.92154 1.01574 0.0
H1578 H 0.64054 0.97554 0.96411 0.0
H1579 H 0.64031 0.01349 0.98835 0.0
H1580 H 0.60603 0.9568 0.05069 0.0
H1581 H 0.62618 0.94942 0.07286 0.0
H1582 H 0.62551 0.92681 0.05145 0.0
H1583 H 0.67646 0.92962 0.04859 0.0
H1584 H 0.67752 0.95236 0.0699 0.0
H1585 H 0.69226 0.96153 0.04568 0.0
H1586 H 0.64128 0.04559 0.01866 0.0
H1587 H 0.64446 0.06903 0.05193 0.0
H1588 H 0.65147 0.99349 0.08341 0.0
C1589 C 0.64677 0.94131 1.0094 0.0
C1590 C 0.64455 0.94551 0.98791 0.0
C1591 C 0.64223 0.97178 0.98045 0.0
C1592 C 0.64205 0.99345 0.99413 0.0
C1593 C 0.64418 0.98851 1.01521 0.0
C1594 C 0.64652 0.96303 0.02276 0.0
C1595 C 0.64875 0.96289 0.04602 0.0
C1596 C 0.62521 0.94812 0.05582 0.0
C1597 C 0.67535 0.9509 0.05294 0.0
C1598 C 0.64754 0.99236 0.05044 0.0
C1599 C 0.64476 0.00682 0.0325 0.0
C1600 C 0.64336 0.03443 0.03277 0.0
C1601 C 0.64502 0.04757 0.05179 0.0
C1602 C 0.64817 0.03318 0.07037 0.0
C1603 C 0.64931 0.00515 0.06954 0.0
H1604 H 0.84186 0.10557 0.77036 0.0
H1605 H 0.78779 0.11471 0.8219 0.0
H1606 H 0.74973 0.11365 0.79775 0.0
H1607 H 0.80612 0.14653 0.73481 0.0
H1608 H 0.81364 0.12589 0.71294 0.0
H1609 H 0.83629 0.12728 0.73432 0.0
H1610 H 0.83382 0.07632 0.738 0.0
H1611 H 0.81109 0.07469 0.71668 0.0
H1612 H 0.80197 0.0605 0.74113 0.0
H1613 H 0.71757 0.11196 0.76756 0.0
H1614 H 0.694 0.10876 0.73436 0.0
H1615 H 0.76948 0.1008 0.70274 0.0
C1616 C 0.82205 0.10732 0.7767 0.0
C1617 C 0.81787 0.11022 0.79816 0.0
C1618 C 0.79154 0.11244 0.80561 0.0
C1619 C 0.76981 0.11189 0.79197 0.0
C1620 C 0.77472 0.10909 0.77093 0.0
C1621 C 0.80024 0.10679 0.76337 0.0
C1622 C 0.80032 0.10396 0.74013 0.0
C1623 C 0.81495 0.12731 0.72996 0.0
C1624 C 0.81251 0.07727 0.73361 0.0
C1625 C 0.77076 0.10489 0.73573 0.0
C1626 C 0.75634 0.10798 0.75367 0.0
C1627 C 0.72871 0.10958 0.75344 0.0
C1628 C 0.71548 0.1079 0.73446 0.0
C1629 C 0.72979 0.10456 0.71584 0.0
C1630 C 0.75786 0.10306 0.71664 0.0
H1631 H 0.64457 0.08545 0.52122 0.0
H1632 H 0.64253 0.03455 0.57503 0.0
H1633 H 0.64313 0.99509 0.55216 0.0
H1634 H 0.60245 0.04649 0.48903 0.0
H1635 H 0.62115 0.05362 0.46605 0.0
H1636 H 0.62043 0.07725 0.48681 0.0
H1637 H 0.67188 0.07666 0.48829 0.0
H1638 H 0.67263 0.05322 0.46747 0.0
H1639 H 0.68904 0.0456 0.49139 0.0
H1640 H 0.6438 0.9611 0.52256 0.0
H1641 H 0.6454 0.93619 0.48986 0.0
H1642 H 0.6478 0.01036 0.45608 0.0
C1643 C 0.64409 0.06608 0.52838 0.0
C1644 C 0.64328 0.06321 0.55007 0.0
C1645 C 0.64306 0.03733 0.55853 0.0
C1646 C 0.64338 0.01482 0.54562 0.0
C1647 C 0.64405 0.01851 0.5243 0.0
C1648 C 0.64452 0.04359 0.51583 0.0
C1649 C 0.64559 0.04256 0.49255 0.0
C1650 C 0.62093 0.05576 0.48306 0.0
C1651 C 0.67132 0.05524 0.48445 0.0
C1652 C 0.64549 0.01289 0.48908 0.0
C1653 C 0.64462 0.99929 0.50753 0.0
C1654 C 0.64458 0.97165 0.50808 0.0
C1655 C 0.64563 0.95764 0.48937 0.0
C1656 C 0.64676 0.97119 0.47024 0.0
C1657 C 0.64656 0.99925 0.47029 0.0
H1658 H 0.74603 0.91032 0.20599 0.0
H1659 H 0.82028 0.89452 0.23755 0.0
H1660 H 0.79622 0.89192 0.27059 0.0
H1661 H 0.71673 0.95089 0.24555 0.0
H1662 H 0.68372 0.93805 0.24164 0.0
H1663 H 0.70689 0.9389 0.22057 0.0
H1664 H 0.7001 0.88851 0.21497 0.0
H1665 H 0.67704 0.88762 0.2361 0.0
H1666 H 0.70552 0.86596 0.23607 0.0
H1667 H 0.7635 0.8909 0.30066 0.0
H1668 H 0.72495 0.89085 0.32446 0.0
H1669 H 0.67272 0.90702 0.27285 0.0
C1670 C 0.75726 0.90605 0.21979 0.0
C1671 C 0.78517 0.90269 0.21906 0.0
C1672 C 0.799 0.89754 0.23764 0.0
C1673 C 0.78547 0.8959 0.25652 0.0
C1674 C 0.75802 0.89947 0.2567 0.0
C1675 C 0.74407 0.90441 0.23878 0.0
C1676 C 0.71464 0.90753 0.24311 0.0
C1677 C 0.70495 0.93551 0.23738 0.0
C1678 C 0.69838 0.88612 0.2319 0.0
C1679 C 0.71423 0.90338 0.2662 0.0
C1680 C 0.73938 0.89884 0.27384 0.0
C1681 C 0.7437 0.89444 0.29481 0.0
C1682 C 0.72171 0.89449 0.30825 0.0
C1683 C 0.69574 0.89887 0.30066 0.0
C1684 C 0.69223 0.90352 0.27932 0.0
H1685 H 0.8595 0.99356 0.95421 0.0
H1686 H 0.87021 0.0687 0.98563 0.0
H1687 H 0.87279 0.04512 0.01889 0.0
H1688 H 0.8179 0.96327 0.9921 0.0
H1689 H 0.83237 0.93079 0.98896 0.0
H1690 H 0.83208 0.95369 0.96775 0.0
H1691 H 0.88304 0.9487 0.96442 0.0
H1692 H 0.88347 0.92608 0.98583 0.0
H1693 H 0.90386 0.95541 0.98635 0.0
H1694 H 0.87287 0.01283 0.04924 0.0
H1695 H 0.87149 0.97478 0.07338 0.0
H1696 H 0.86014 0.92152 0.02174 0.0
C1697 C 0.8623 1.00512 0.96807 0.0
C1698 C 0.86467 0.03307 0.96721 0.0
C1699 C 0.86869 0.04729 0.98578 0.0
C1700 C 0.87001 0.03406 1.00479 0.0
C1701 C 0.8674 0.00654 1.00508 0.0
C1702 C 0.86375 0.99224 0.98715 0.0
C1703 C 0.86145 0.96283 0.99157 0.0
C1704 C 0.83432 0.95203 0.9847 0.0
C1705 C 0.88432 0.94736 0.98144 0.0
C1706 C 0.86398 0.96285 1.01479 0.0
C1707 C 0.8675 0.98817 0.02236 0.0
C1708 C 0.87019 0.9929 0.04344 0.0
C1709 C 0.86935 0.97118 0.05706 0.0
C1710 C 0.86581 0.94504 0.04956 0.0
C1711 C 0.86303 0.9411 0.0281 0.0
H1712 H 0.68073 0.63053 0.77009 0.0
H1713 H 0.72851 0.60209 0.82096 0.0
H1714 H 0.76735 0.59886 0.79768 0.0
H1715 H 0.70671 0.59079 0.73113 0.0
H1716 H 0.70602 0.6163 0.71172 0.0
H1717 H 0.68294 0.61738 0.73282 0.0
H1718 H 0.70048 0.66549 0.74324 0.0
H1719 H 0.72113 0.66335 0.72064 0.0
H1720 H 0.73564 0.6702 0.7454 0.0
H1721 H 0.80056 0.59693 0.76792 0.0
H1722 H 0.82504 0.59694 0.73504 0.0
H1723 H 0.75498 0.62692 0.70388 0.0
C1724 C 0.69937 0.624 0.77651 0.0
C1725 C 0.70143 0.61667 0.79748 0.0
C1726 C 0.72635 0.60798 0.80504 0.0
C1727 C 0.74854 0.60607 0.7919 0.0
C1728 C 0.74565 0.61328 0.77127 0.0
C1729 C 0.72172 0.6224 0.76373 0.0
C1730 C 0.72362 0.62878 0.74098 0.0
C1731 C 0.70364 0.61234 0.72843 0.0
C1732 C 0.71997 0.6587 0.73731 0.0
C1733 C 0.75198 0.62056 0.73657 0.0
C1734 C 0.76454 0.6121 0.7543 0.0
C1735 C 0.79085 0.60354 0.754 0.0
C1736 C 0.80456 0.60347 0.73515 0.0
C1737 C 0.79201 0.61176 0.71668 0.0
C1738 C 0.76537 0.62067 0.71762 0.0
H1739 H 0.6543 0.49129 0.95217 0.0
H1740 H 0.65139 0.56698 0.98388 0.0
H1741 H 0.64957 0.54363 1.0172 0.0
H1742 H 0.60855 0.45689 0.98546 0.0
H1743 H 0.62644 0.42595 0.98432 0.0
H1744 H 0.62791 0.44867 0.96301 0.0
H1745 H 0.67929 0.44896 0.96531 0.0
H1746 H 0.67773 0.42621 0.98659 0.0
H1747 H 0.69505 0.45726 0.98935 0.0
H1748 H 0.64848 0.51147 0.04763 0.0
H1749 H 0.64633 0.47339 0.07179 0.0
H1750 H 0.6488 0.41937 0.01986 0.0
C1751 C 0.65299 0.50303 0.96607 0.0
C1752 C 0.65311 0.53111 0.96524 0.0
C1753 C 0.65177 0.54552 0.98397 0.0
C1754 C 0.6506 0.5324 1.00304 0.0
C1755 C 0.65073 0.50476 1.00328 0.0
C1756 C 0.6518 0.49024 0.98525 0.0
C1757 C 0.6516 0.46071 0.98969 0.0
C1758 C 0.62716 0.44728 0.98006 0.0
C1759 C 0.67746 0.44753 0.9823 0.0
C1760 C 0.64992 0.46093 1.01298 0.0
C1761 C 0.64968 0.48646 0.02062 0.0
C1762 C 0.64855 0.49139 0.04177 0.0
C1763 C 0.64739 0.46967 0.05541 0.0
C1764 C 0.64711 0.44336 0.04783 0.0
C1765 C 0.6486 0.43918 0.02629 0.0
H1766 H 0.75998 0.4208 0.2064 0.0
H1767 H 0.69469 0.37391 0.23024 0.0
H1768 H 0.71813 0.36966 0.26353 0.0
H1769 H 0.81286 0.38555 0.22986 0.0
H1770 H 0.83211 0.41477 0.23539 0.0
H1771 H 0.80968 0.4146 0.21388 0.0
H1772 H 0.78668 0.45618 0.22806 0.0
H1773 H 0.80718 0.45676 0.25067 0.0
H1774 H 0.77179 0.45551 0.25328 0.0
H1775 H 0.75003 0.37021 0.2946 0.0
H1776 H 0.78752 0.37415 0.31923 0.0
H1777 H 0.83145 0.41982 0.27423 0.0
C1778 C 0.75067 0.40935 0.2185 0.0
C1779 C 0.72546 0.39762 0.21557 0.0
C1780 C 0.71385 0.38333 0.23209 0.0
C1781 C 0.72708 0.38072 0.25107 0.0
C1782 C 0.75191 0.39261 0.25341 0.0
C1783 C 0.76352 0.4066 0.23749 0.0
C1784 C 0.79007 0.41791 0.24385 0.0
C1785 C 0.8125 0.4076 0.22993 0.0
C1786 C 0.78887 0.44838 0.24394 0.0
C1787 C 0.79235 0.40702 0.26549 0.0
C1788 C 0.76994 0.39292 0.27098 0.0
C1789 C 0.76765 0.38122 0.2904 0.0
C1790 C 0.78899 0.38362 0.30433 0.0
C1791 C 0.81246 0.39722 0.29865 0.0
C1792 C 0.81384 0.40922 0.27902 0.0
H1793 H 0.8609 0.58947 0.51807 0.0
H1794 H 0.86467 0.53818 0.57155 0.0
H1795 H 0.86323 0.49891 0.54864 0.0
H1796 H 0.81665 0.55057 0.48802 0.0
H1797 H 0.8332 0.55747 0.46403 0.0
H1798 H 0.8345 0.58125 0.48465 0.0
H1799 H 0.88609 0.58053 0.48372 0.0
H1800 H 0.88463 0.55734 0.46269 0.0
H1801 H 0.90321 0.54927 0.48553 0.0
H1802 H 0.86152 0.46513 0.5193 0.0
H1803 H 0.85953 0.44006 0.48672 0.0
H1804 H 0.85723 0.51406 0.45269 0.0
C1805 C 0.86152 0.57004 0.52508 0.0
C1806 C 0.86297 0.56702 0.54671 0.0
C1807 C 0.86356 0.54109 0.55508 0.0
C1808 C 0.86279 0.51866 0.54215 0.0
C1809 C 0.86158 0.52246 0.52088 0.0
C1810 C 0.86101 0.54757 0.51245 0.0
C1811 C 0.85999 0.5465 0.48916 0.0
C1812 C 0.83457 0.55972 0.48099 0.0
C1813 C 0.88496 0.55916 0.47972 0.0
C1814 C 0.85966 0.51679 0.4857 0.0
C1815 C 0.86069 0.50323 0.50417 0.0
C1816 C 0.86064 0.4756 0.5048 0.0
C1817 C 0.85936 0.46151 0.48616 0.0
C1818 C 0.85813 0.47496 0.46701 0.0
C1819 C 0.85844 0.50305 0.46695 0.0
H1820 H 0.67042 0.39716 0.76458 0.0
H1821 H 0.72459 0.39255 0.71277 0.0
H1822 H 0.76263 0.39207 0.73705 0.0
H1823 H 0.70902 0.43999 0.79602 0.0
H1824 H 0.70001 0.4236 0.81966 0.0
H1825 H 0.67759 0.4232 0.79817 0.0
H1826 H 0.67616 0.37208 0.79944 0.0
H1827 H 0.69896 0.37193 0.82078 0.0
H1828 H 0.70668 0.35353 0.79781 0.0
H1829 H 0.79488 0.39266 0.76785 0.0
H1830 H 0.81786 0.39479 0.80141 0.0
H1831 H 0.74165 0.39814 0.83244 0.0
C1832 C 0.69022 0.39606 0.75816 0.0
C1833 C 0.69442 0.39493 0.73662 0.0
C1834 C 0.7208 0.39343 0.72914 0.0
C1835 C 0.74252 0.39313 0.74285 0.0
C1836 C 0.73754 0.39425 0.764 0.0
C1837 C 0.71195 0.39565 0.77155 0.0
C1838 C 0.71162 0.39658 0.79484 0.0
C1839 C 0.69882 0.42239 0.80263 0.0
C1840 C 0.69751 0.37208 0.80374 0.0
C1841 C 0.74108 0.39594 0.79938 0.0
C1842 C 0.75578 0.39444 0.78145 0.0
C1843 C 0.78347 0.39374 0.78192 0.0
C1844 C 0.79636 0.39479 0.80112 0.0
C1845 C 0.78166 0.39663 0.8197 0.0
C1846 C 0.7536 0.39705 0.81862 0.0
H1847 H 0.85768 0.49363 0.08305 0.0
H1848 H 0.86527 0.56857 0.0508 0.0
H1849 H 0.86773 0.54457 1.01773 0.0
H1850 H 0.90251 0.45651 0.0509 0.0
H1851 H 0.88316 0.4265 0.05185 0.0
H1852 H 0.88215 0.44944 0.07304 0.0
H1853 H 0.83103 0.45243 0.06997 0.0
H1854 H 0.83175 0.42941 0.04881 0.0
H1855 H 0.81627 0.46138 0.04569 0.0
H1856 H 0.86827 0.51201 0.98776 0.0
H1857 H 0.86837 0.47365 0.96394 0.0
H1858 H 0.86041 0.42049 1.01606 0.0
C1859 C 0.85974 0.50505 0.06904 0.0
C1860 C 0.86132 0.53307 0.06961 0.0
C1861 C 0.86437 0.54712 0.05086 0.0
C1862 C 0.86561 0.53366 0.03196 0.0
C1863 C 0.86386 0.50607 0.03196 0.0
C1864 C 0.8611 0.49192 0.05005 0.0
C1865 C 0.85983 0.46237 0.0459 0.0
C1866 C 0.88331 0.44786 0.05602 0.0
C1867 C 0.83313 0.45072 0.05301 0.0
C1868 C 0.86214 0.46212 0.02267 0.0
C1869 C 0.8644 0.48747 1.01486 0.0
C1870 C 0.86658 0.49206 0.99374 0.0
C1871 C 0.86657 0.47015 0.9803 0.0
C1872 C 0.86447 0.44398 0.98804 0.0
C1873 C 0.86217 0.44014 1.00954 0.0
H1874 H 0.84083 0.60076 0.26455 0.0
H1875 H 0.78835 0.62607 0.21542 0.0
H1876 H 0.75045 0.62546 0.2398 0.0
H1877 H 0.79359 0.55601 0.28854 0.0
H1878 H 0.80475 0.56328 0.31426 0.0
H1879 H 0.82761 0.56549 0.29303 0.0
H1880 H 0.8387 0.61313 0.30304 0.0
H1881 H 0.81566 0.61235 0.32413 0.0
H1882 H 0.81271 0.63773 0.30475 0.0
H1883 H 0.71853 0.6235 0.27034 0.0
H1884 H 0.69535 0.61931 0.30369 0.0
H1885 H 0.76895 0.5941 0.33232 0.0
C1886 C 0.82139 0.60619 0.25883 0.0
C1887 C 0.81761 0.61366 0.23803 0.0
C1888 C 0.79174 0.62029 0.23124 0.0
C1889 C 0.77012 0.62002 0.245 0.0
C1890 C 0.77464 0.61277 0.26545 0.0
C1891 C 0.79964 0.60574 0.27225 0.0
C1892 C 0.7993 0.59838 0.29487 0.0
C1893 C 0.80673 0.56904 0.29784 0.0
C1894 C 0.81766 0.61653 0.30743 0.0
C1895 C 0.77036 0.60325 0.29998 0.0
C1896 C 0.75637 0.6113 0.28279 0.0
C1897 C 0.72932 0.61705 0.28383 0.0
C1898 C 0.71628 0.61451 0.30286 0.0
C1899 C 0.73025 0.60638 0.32073 0.0
C1900 C 0.75769 0.60067 0.31909 0.0
H1901 H 0.65493 0.51203 0.58125 0.0
H1902 H 0.64824 0.438 0.54766 0.0
H1903 H 0.6459 0.46296 0.51499 0.0
H1904 H 0.61015 0.54953 0.55014 0.0
H1905 H 0.62919 0.57972 0.55164 0.0
H1906 H 0.63064 0.55601 0.5723 0.0
H1907 H 0.6819 0.55366 0.56876 0.0
H1908 H 0.68044 0.57762 0.54828 0.0
H1909 H 0.69639 0.54608 0.5441 0.0
H1910 H 0.6449 0.49684 0.48543 0.0
H1911 H 0.64364 0.5363 0.46256 0.0
H1912 H 0.65108 0.58717 0.51609 0.0
C1913 C 0.65321 0.50099 0.56704 0.0
C1914 C 0.65176 0.47295 0.56714 0.0
C1915 C 0.64905 0.45945 0.54811 0.0
C1916 C 0.6479 0.47346 0.52942 0.0
C1917 C 0.64945 0.50107 0.5299 0.0
C1918 C 0.652 0.51465 0.54828 0.0
C1919 C 0.65285 0.54433 0.54474 0.0
C1920 C 0.6293 0.5582 0.55533 0.0
C1921 C 0.67948 0.5561 0.55189 0.0
C1922 C 0.65028 0.54534 0.52156 0.0
C1923 C 0.6485 0.52027 0.51315 0.0
C1924 C 0.6462 0.51656 0.4919 0.0
C1925 C 0.64554 0.53906 0.479 0.0
C1926 C 0.64694 0.56492 0.48743 0.0
C1927 C 0.64952 0.5678 0.50901 0.0
H1928 H 0.26629 0.40655 0.33358 0.0
H1929 H 0.18983 0.40188 0.30314 0.0
H1930 H 0.21245 0.39963 0.26941 0.0
H1931 H 0.29881 0.44768 0.29538 0.0
H1932 H 0.33019 0.43089 0.29823 0.0
H1933 H 0.30758 0.43271 0.31962 0.0
H1934 H 0.3089 0.38139 0.32265 0.0
H1935 H 0.33128 0.37972 0.30111 0.0
H1936 H 0.30055 0.36142 0.30059 0.0
H1937 H 0.24439 0.39831 0.23837 0.0
H1938 H 0.28237 0.3961 0.21395 0.0
H1939 H 0.33683 0.40154 0.26549 0.0
C1940 C 0.25424 0.4053 0.31984 0.0
C1941 C 0.2262 0.40441 0.32112 0.0
C1942 C 0.21131 0.4023 0.30266 0.0
C1943 C 0.224 0.40119 0.28339 0.0
C1944 C 0.25166 0.40216 0.28271 0.0
C1945 C 0.26656 0.40409 0.30052 0.0
C1946 C 0.296 0.40425 0.29578 0.0
C1947 C 0.30888 0.43045 0.30266 0.0
C1948 C 0.30999 0.38026 0.30561 0.0
C1949 C 0.29536 0.40199 0.27257 0.0
C1950 C 0.26971 0.40098 0.26516 0.0
C1951 C 0.26456 0.39901 0.24406 0.0
C1952 C 0.28622 0.39781 0.23027 0.0
C1953 C 0.31263 0.39831 0.23768 0.0
C1954 C 0.31696 0.40067 0.25915 0.0
H1955 H 0.35441 0.51976 0.08236 0.0
H1956 H 0.35083 0.44394 0.05095 0.0
H1957 H 0.35399 0.46693 1.01748 0.0
H1958 H 0.31546 0.55597 0.04533 0.0
H1959 H 0.33469 0.58587 0.04767 0.0
H1960 H 0.33197 0.56365 0.0692 0.0
H1961 H 0.38313 0.56037 0.07137 0.0
H1962 H 0.38618 0.58277 0.04996 0.0
H1963 H 0.40182 0.55064 0.04895 0.0
H1964 H 0.35759 0.49902 0.98684 0.0
H1965 H 0.36218 0.53689 0.96267 0.0
H1966 H 0.3642 0.59082 1.01462 0.0
C1967 C 0.35455 0.5079 0.06848 0.0
C1968 C 0.35235 0.47993 0.06943 0.0
C1969 C 0.35215 0.46537 0.05075 0.0
C1970 C 0.35407 0.47826 0.0316 0.0
C1971 C 0.35613 0.50583 0.03125 0.0
C1972 C 0.35639 0.52045 0.04925 0.0
C1973 C 0.35861 0.54985 0.04476 0.0
C1974 C 0.3337 0.56469 0.05219 0.0
C1975 C 0.38395 0.56159 0.05433 0.0
C1976 C 0.36017 0.54948 0.02148 0.0
C1977 C 0.35844 0.524 1.01386 0.0
C1978 C 0.35906 0.51904 0.9927 0.0
C1979 C 0.36165 0.54066 0.97905 0.0
C1980 C 0.36387 0.5669 0.98662 0.0
C1981 C 0.36296 0.57109 1.00817 0.0
H1982 H 0.17328 0.60498 0.76468 0.0
H1983 H 0.22668 0.61903 0.7134 0.0
H1984 H 0.26479 0.61907 0.73754 0.0
H1985 H 0.2066 0.64636 0.80112 0.0
H1986 H 0.20035 0.62444 0.82248 0.0
H1987 H 0.17764 0.62536 0.80108 0.0
H1988 H 0.18297 0.57504 0.79643 0.0
H1989 H 0.20604 0.57356 0.81751 0.0
H1990 H 0.21557 0.56103 0.79262 0.0
H1991 H 0.29717 0.61754 0.76789 0.0
H1992 H 0.32065 0.61458 0.80116 0.0
H1993 H 0.24553 0.60124 0.83217 0.0
C1994 C 0.19295 0.60812 0.75839 0.0
C1995 C 0.1969 0.61208 0.73703 0.0
C1996 C 0.22308 0.61599 0.72965 0.0
C1997 C 0.24485 0.61604 0.74327 0.0
C1998 C 0.24015 0.61211 0.76423 0.0
C1999 C 0.21479 0.60819 0.7717 0.0
C2000 C 0.21486 0.60443 0.79482 0.0
C2001 C 0.19893 0.62648 0.8055 0.0
C2002 C 0.20425 0.57686 0.80068 0.0
C2003 C 0.24425 0.60686 0.79934 0.0
C2004 C 0.25856 0.61125 0.78151 0.0
C2005 C 0.2861 0.61403 0.78189 0.0
C2006 C 0.29929 0.61218 0.8009 0.0
C2007 C 0.28504 0.60762 0.8194 0.0
C2008 C 0.25708 0.60504 0.81844 0.0
H2009 H 0.15241 0.50077 0.58104 0.0
H2010 H 0.1559 0.57444 0.54669 0.0
H2011 H 0.15345 0.54924 0.51415 0.0
H2012 H 0.19218 0.46231 0.54607 0.0
H2013 H 0.17297 0.43256 0.54961 0.0
H2014 H 0.17521 0.45646 0.57007 0.0
H2015 H 0.12383 0.4594 0.57137 0.0
H2016 H 0.12162 0.43544 0.55092 0.0
H2017 H 0.1057 0.46728 0.54826 0.0
H2018 H 0.151 0.5152 0.48491 0.0
H2019 H 0.14774 0.4757 0.46225 0.0
H2020 H 0.1449 0.42526 0.51627 0.0
C2021 C 0.15234 0.51169 0.56671 0.0
C2022 C 0.15434 0.53967 0.56652 0.0
C2023 C 0.1547 0.55303 0.54731 0.0
C2024 C 0.15319 0.53887 0.52871 0.0
C2025 C 0.15135 0.51131 0.52948 0.0
C2026 C 0.15089 0.49789 0.54803 0.0
C2027 C 0.14902 0.46823 0.54474 0.0
C2028 C 0.17383 0.45408 0.55312 0.0
C2029 C 0.12352 0.45694 0.55439 0.0
C2030 C 0.14806 0.46706 0.52149 0.0
C2031 C 0.14965 0.49201 0.51286 0.0
C2032 C 0.14962 0.49558 0.49154 0.0
C2033 C 0.14779 0.47305 0.47877 0.0
C2034 C 0.14578 0.44734 0.48739 0.0
C2035 C 0.14602 0.44456 0.50906 0.0
H2036 H 0.26793 0.62131 0.20284 0.0
H2037 H 0.19435 0.59944 0.23313 0.0
H2038 H 0.21749 0.59926 0.26664 0.0
H2039 H 0.3113 0.58073 0.23325 0.0
H2040 H 0.33755 0.60503 0.2331 0.0
H2041 H 0.31431 0.60359 0.2121 0.0
H2042 H 0.30435 0.65341 0.21813 0.0
H2043 H 0.32591 0.65461 0.24022 0.0
H2044 H 0.29165 0.66413 0.24269 0.0
H2045 H 0.25 0.60047 0.29738 0.0
H2046 H 0.28836 0.60264 0.32138 0.0
H2047 H 0.33974 0.62284 0.27014 0.0
C2048 C 0.25662 0.6163 0.21646 0.0
C2049 C 0.22921 0.61041 0.2152 0.0
C2050 C 0.21524 0.60442 0.2336 0.0
C2051 C 0.22828 0.6041 0.25275 0.0
C2052 C 0.25536 0.60984 0.25337 0.0
C2053 C 0.2693 0.61584 0.23565 0.0
C2054 C 0.29823 0.62123 0.24029 0.0
C2055 C 0.31642 0.60147 0.22902 0.0
C2056 C 0.30545 0.65005 0.235 0.0
C2057 C 0.29861 0.61672 0.2633 0.0
C2058 C 0.27373 0.61041 0.27073 0.0
C2059 C 0.26956 0.60542 0.29166 0.0
C2060 C 0.29143 0.60673 0.30521 0.0
C2061 C 0.31715 0.61275 0.29774 0.0
C2062 C 0.32047 0.61796 0.27648 0.0
H2063 H 0.15573 0.5158 0.95203 0.0
H2064 H 0.15316 0.44168 0.98586 0.0
H2065 H 0.15058 0.4666 0.01849 0.0
H2066 H 0.19603 0.55139 0.9879 0.0
H2067 H 0.17878 0.5824 0.98446 0.0
H2068 H 0.18004 0.55872 0.96376 0.0
H2069 H 0.12869 0.55898 0.96174 0.0
H2070 H 0.1273 0.58254 0.98252 0.0
H2071 H 0.10951 0.55165 0.98446 0.0
H2072 H 0.14887 0.49995 0.04775 0.0
H2073 H 0.1477 0.53893 0.07088 0.0
H2074 H 0.15089 0.59093 1.01773 0.0
C2075 C 0.15429 0.50477 0.96627 0.0
C2076 C 0.1547 0.4767 0.96631 0.0
C2077 C 0.15322 0.46314 0.98538 0.0
C2078 C 0.15162 0.47713 1.00402 0.0
C2079 C 0.15149 0.50476 1.00342 0.0
C2080 C 0.15273 0.51843 0.98502 0.0
C2081 C 0.15259 0.54813 0.9886 0.0
C2082 C 0.1784 0.5609 0.98071 0.0
C2083 C 0.12805 0.56107 0.97874 0.0
C2084 C 0.15107 0.54902 1.01187 0.0
C2085 C 0.15046 0.52383 0.02017 0.0
C2086 C 0.14928 0.51977 0.04139 0.0
C2087 C 0.14864 0.54204 0.05443 0.0
C2088 C 0.14918 0.56804 0.04621 0.0
C2089 C 0.15041 0.57138 0.02461 0.0
H2090 H 0.24693 0.39197 0.70232 0.0
H2091 H 0.32185 0.4031 0.73412 0.0
H2092 H 0.29827 0.40246 0.76741 0.0
H2093 H 0.20769 0.4335 0.73482 0.0
H2094 H 0.17877 0.41244 0.73414 0.0
H2095 H 0.20149 0.41284 0.71275 0.0
H2096 H 0.20715 0.36232 0.71565 0.0
H2097 H 0.18536 0.36096 0.73761 0.0
H2098 H 0.21849 0.34792 0.73946 0.0
H2099 H 0.26588 0.40124 0.79765 0.0
H2100 H 0.22774 0.39982 0.82168 0.0
H2101 H 0.17426 0.39033 0.76988 0.0
C2102 C 0.25843 0.39445 0.71624 0.0
C2103 C 0.28638 0.3975 0.71544 0.0
C2104 C 0.30054 0.40029 0.73419 0.0
C2105 C 0.28728 0.40014 0.75324 0.0
C2106 C 0.25975 0.39716 0.75342 0.0
C2107 C 0.24552 0.39436 0.73539 0.0
C2108 C 0.21611 0.39134 0.73976 0.0
C2109 C 0.20006 0.41387 0.72978 0.0
C2110 C 0.2062 0.36401 0.73267 0.0
C2111 C 0.2159 0.39345 0.76301 0.0
C2112 C 0.24127 0.39657 0.77068 0.0
C2113 C 0.24594 0.39878 0.79178 0.0
C2114 C 0.22413 0.3979 0.80534 0.0
C2115 C 0.19791 0.39496 0.79779 0.0
C2116 C 0.19397 0.39263 0.77628 0.0
H2117 H 0.36276 0.41996 0.51814 0.0
H2118 H 0.3729 0.47154 0.57101 0.0
H2119 H 0.37487 0.51037 0.54761 0.0
H2120 H 0.40652 0.45378 0.48399 0.0
H2121 H 0.38601 0.44873 0.46162 0.0
H2122 H 0.38513 0.42521 0.4824 0.0
H2123 H 0.33445 0.43094 0.48585 0.0
H2124 H 0.33479 0.45422 0.46487 0.0
H2125 H 0.3207 0.46365 0.48928 0.0
H2126 H 0.37596 0.54359 0.51785 0.0
H2127 H 0.37475 0.56821 0.48505 0.0
H2128 H 0.36291 0.49433 0.45208 0.0
C2129 C 0.36542 0.43938 0.52495 0.0
C2130 C 0.36774 0.44262 0.54654 0.0
C2131 C 0.37106 0.46849 0.55459 0.0
C2132 C 0.37226 0.49065 0.54139 0.0
C2133 C 0.37004 0.48662 0.52018 0.0
C2134 C 0.36656 0.46157 0.51207 0.0
C2135 C 0.36425 0.46238 0.48882 0.0
C2136 C 0.38684 0.44661 0.47861 0.0
C2137 C 0.33692 0.4522 0.4818 0.0
C2138 C 0.36711 0.49187 0.48498 0.0
C2139 C 0.37044 0.50554 0.50324 0.0
C2140 C 0.37326 0.53303 0.50352 0.0
C2141 C 0.37239 0.54688 0.48476 0.0
C2142 C 0.36864 0.53334 0.46583 0.0
C2143 C 0.36617 0.50537 0.46612 0.0
H2144 H 0.12344 0.30815 0.39718 0.0
H2145 H 0.1779 0.28071 0.44413 0.0
H2146 H 0.18039 0.23681 0.42701 0.0
H2147 H 0.08666 0.24803 0.39472 0.0
H2148 H 0.0805 0.25032 0.36749 0.0
H2149 H 0.08519 0.28001 0.3824 0.0
H2150 H 0.12339 0.29436 0.35809 0.0
H2151 H 0.11884 0.26466 0.34312 0.0
H2152 H 0.15096 0.27222 0.35383 0.0
H2153 H 0.17701 0.19565 0.4039 0.0
H2154 H 0.16387 0.15992 0.37962 0.0
H2155 H 0.10845 0.21383 0.35043 0.0
C2156 C 0.13617 0.29299 0.40367 0.0
C2157 C 0.15079 0.2978 0.42176 0.0
C2158 C 0.16666 0.27733 0.43018 0.0
C2159 C 0.16827 0.25243 0.42052 0.0
C2160 C 0.15348 0.24822 0.40268 0.0
C2161 C 0.13742 0.26788 0.39455 0.0
C2162 C 0.12182 0.25783 0.37629 0.0
C2163 C 0.09177 0.25912 0.38049 0.0
C2164 C 0.12921 0.27318 0.35667 0.0
C2165 C 0.13158 0.22947 0.37535 0.0
C2166 C 0.1502 0.22432 0.39042 0.0
C2167 C 0.16229 0.19945 0.39215 0.0
C2168 C 0.15478 0.17929 0.37833 0.0
C2169 C 0.13497 0.18405 0.36337 0.0
C2170 C 0.12348 0.20953 0.36187 0.0
H2171 H 0.04321 0.85456 0.59985 0.0
H2172 H 0.09793 0.91034 0.62762 0.0
H2173 H 0.06258 0.92462 0.65184 0.0
H2174 H 0.98547 0.89814 0.60259 0.0
H2175 H 0.96286 0.87115 0.60739 0.0
H2176 H 0.99253 0.86558 0.59252 0.0
H2177 H 0.00637 0.82796 0.61746 0.0
H2178 H 0.97682 0.83346 0.63245 0.0
H2179 H 0.00895 0.83486 0.64458 0.0
H2180 H 0.02194 0.92926 0.67509 0.0
H2181 H 0.97818 0.92804 0.6926 0.0
H2182 H 0.94912 0.87285 0.64682 0.0
C2183 C 0.04775 0.86987 0.61098 0.0
C2184 C 0.07338 0.88112 0.61214 0.0
C2185 C 0.07847 0.90136 0.62666 0.0
C2186 C 0.05851 0.90955 0.64043 0.0
C2187 C 0.03348 0.89776 0.63904 0.0
C2188 C 0.02794 0.87875 0.62437 0.0
C2189 C 0.99936 0.86957 0.62564 0.0
C2190 C 0.98416 0.87654 0.60586 0.0
C2191 C 0.9978 0.8397 0.63032 0.0
C2192 C 0.98971 0.88594 0.64364 0.0
C2193 C 0.00974 0.90187 0.65134 0.0
C2194 C 0.00601 0.91727 0.66893 0.0
C2195 C 0.98119 0.9164 0.67879 0.0
C2196 C 0.96033 0.9007 0.6708 0.0
C2197 C 0.96462 0.88548 0.65292 0.0
H2198 H 0.40956 0.79962 0.84744 0.0
H2199 H 0.34515 0.84829 0.87058 0.0
H2200 H 0.33229 0.81232 0.8945 0.0
H2201 H 0.37229 0.73789 0.84835 0.0
H2202 H 0.40065 0.71811 0.85548 0.0
H2203 H 0.40518 0.74796 0.84068 0.0
H2204 H 0.4379 0.76572 0.86813 0.0
H2205 H 0.43344 0.73596 0.88303 0.0
H2206 H 0.42736 0.76789 0.89457 0.0
H2207 H 0.32863 0.77201 0.91765 0.0
H2208 H 0.33115 0.72862 0.93545 0.0
H2209 H 0.39463 0.70431 0.89459 0.0
C2210 C 0.39273 0.80267 0.85755 0.0
C2211 C 0.37856 0.82689 0.85742 0.0
C2212 C 0.35644 0.83001 0.87062 0.0
C2213 C 0.34899 0.80968 0.88423 0.0
C2214 C 0.3635 0.7861 0.8841 0.0
C2215 C 0.38461 0.78232 0.87084 0.0
C2216 C 0.39631 0.75475 0.87324 0.0
C2217 C 0.39342 0.73873 0.85325 0.0
C2218 C 0.42548 0.75618 0.88016 0.0
C2219 C 0.37871 0.7437 0.89011 0.0
C2220 C 0.36014 0.76224 0.89637 0.0
C2221 C 0.34278 0.7572 0.91263 0.0
C2222 C 0.34438 0.73259 0.92267 0.0
C2223 C 0.36276 0.7131 0.91614 0.0
C2224 C 0.38001 0.71871 0.89957 0.0
H2225 H 0.46624 0.15686 0.10046 0.0
H2226 H 0.41328 0.09925 0.12814 0.0
H2227 H 0.44943 0.08486 0.15143 0.0
H2228 H 0.52435 0.11452 0.10107 0.0
H2229 H 0.54699 0.14135 0.1063 0.0
H2230 H 0.51678 0.14757 0.09228 0.0
H2231 H 0.50342 0.18359 0.11875 0.0
H2232 H 0.53363 0.17759 0.13279 0.0
H2233 H 0.50202 0.1752 0.14567 0.0
H2234 H 0.49065 0.07896 0.17305 0.0
H2235 H 0.53475 0.07962 0.18984 0.0
H2236 H 0.56216 0.13781 0.14568 0.0
C2237 C 0.46222 0.14129 0.11149 0.0
C2238 C 0.43687 0.12937 0.11276 0.0
C2239 C 0.43249 0.10877 0.12711 0.0
C2240 C 0.45291 0.10046 0.14033 0.0
C2241 C 0.47772 0.11259 0.13866 0.0
C2242 C 0.48254 0.13233 0.12442 0.0
C2243 C 0.51114 0.14166 0.12536 0.0
C2244 C 0.52567 0.13593 0.10504 0.0
C2245 C 0.51263 0.17126 0.13099 0.0
C2246 C 0.5216 0.12439 0.1426 0.0
C2247 C 0.50193 0.10792 0.15017 0.0
C2248 C 0.5063 0.09142 0.16702 0.0
C2249 C 0.53134 0.09192 0.17645 0.0
C2250 C 0.55181 0.10837 0.16875 0.0
C2251 C 0.54698 0.12456 0.15147 0.0
H2252 H 0.09091 0.81178 0.16765 0.0
H2253 H 0.1719 0.83899 0.17588 0.0
H2254 H 0.1882 0.80093 0.15547 0.0
H2255 H 0.10355 0.74294 0.17139 0.0
H2256 H 0.08026 0.73344 0.15169 0.0
H2257 H 0.07482 0.76326 0.16633 0.0
H2258 H 0.07268 0.79074 0.13273 0.0
H2259 H 0.07785 0.76096 0.11796 0.0
H2260 H 0.09974 0.78889 0.11463 0.0
H2261 H 0.19585 0.75764 0.13694 0.0
H2262 H 0.19384 0.71505 0.11787 0.0
H2263 H 0.10792 0.71784 0.11954 0.0
C2264 C 0.11205 0.80983 0.16496 0.0
C2265 C 0.1302 0.82816 0.17341 0.0
C2266 C 0.15769 0.82513 0.16952 0.0
C2267 C 0.16713 0.80354 0.15802 0.0
C2268 C 0.14876 0.78546 0.15025 0.0
C2269 C 0.12176 0.78864 0.15324 0.0
C2270 C 0.10621 0.7665 0.1431 0.0
C2271 C 0.09027 0.7506 0.15908 0.0
C2272 C 0.08805 0.77743 0.12609 0.0
C2273 C 0.1287 0.75014 0.13422 0.0
C2274 C 0.15311 0.76127 0.1387 0.0
C2275 C 0.17686 0.74896 0.13307 0.0
C2276 C 0.17558 0.72481 0.12238 0.0
C2277 C 0.15078 0.71358 0.11723 0.0
C2278 C 0.12709 0.72637 0.12318 0.0
H2279 H 0.55723 0.86678 0.39035 0.0
H2280 H 0.53118 0.92895 0.34906 0.0
H2281 H 0.48715 0.92947 0.36603 0.0
H2282 H 0.4958 0.83115 0.38906 0.0
H2283 H 0.49735 0.82069 0.41553 0.0
H2284 H 0.52753 0.82686 0.40146 0.0
H2285 H 0.54245 0.86053 0.42924 0.0
H2286 H 0.51237 0.85436 0.44345 0.0
H2287 H 0.52084 0.88771 0.43595 0.0
H2288 H 0.44625 0.92368 0.38798 0.0
H2289 H 0.41017 0.90941 0.41132 0.0
H2290 H 0.46114 0.84766 0.43572 0.0
C2291 C 0.54232 0.88076 0.38519 0.0
C2292 C 0.54755 0.89819 0.36871 0.0
C2293 C 0.52746 0.91567 0.36183 0.0
C2294 C 0.50248 0.9161 0.37137 0.0
C2295 C 0.49774 0.89849 0.38747 0.0
C2296 C 0.51698 0.8809 0.39417 0.0
C2297 C 0.50614 0.86278 0.41078 0.0
C2298 C 0.50674 0.83365 0.40378 0.0
C2299 C 0.52135 0.86659 0.43105 0.0
C2300 C 0.4779 0.87302 0.41243 0.0
C2301 C 0.47358 0.89387 0.39907 0.0
C2302 C 0.4493 0.90717 0.39834 0.0
C2303 C 0.4289 0.89889 0.41158 0.0
C2304 C 0.43269 0.87717 0.42502 0.0
C2305 C 0.45753 0.86409 0.42537 0.0
H2306 H 0.39399 0.3045 0.63719 0.0
H2307 H 0.3299 0.27953 0.59724 0.0
H2308 H 0.32728 0.23668 0.61575 0.0
H2309 H 0.42642 0.24145 0.63758 0.0
H2310 H 0.43745 0.24394 0.66386 0.0
H2311 H 0.43249 0.27353 0.64886 0.0
H2312 H 0.40011 0.29161 0.67649 0.0
H2313 H 0.40499 0.26206 0.6916 0.0
H2314 H 0.37195 0.27187 0.68414 0.0
H2315 H 0.33119 0.19682 0.63925 0.0
H2316 H 0.34479 0.16104 0.66313 0.0
H2317 H 0.40969 0.21 0.68489 0.0
C2318 C 0.37919 0.29009 0.6326 0.0
C2319 C 0.36183 0.29529 0.61607 0.0
C2320 C 0.3432 0.27583 0.61001 0.0
C2321 C 0.34153 0.25153 0.62046 0.0
C2322 C 0.35905 0.24682 0.63664 0.0
C2323 C 0.37781 0.26539 0.64248 0.0
C2324 C 0.39569 0.25456 0.65923 0.0
C2325 C 0.42473 0.2533 0.65194 0.0
C2326 C 0.39302 0.27101 0.67904 0.0
C2327 C 0.38406 0.22706 0.66191 0.0
C2328 C 0.36262 0.22315 0.64903 0.0
C2329 C 0.34815 0.19955 0.64924 0.0
C2330 C 0.35602 0.17932 0.66279 0.0
C2331 C 0.37853 0.18258 0.67553 0.0
C2332 C 0.3926 0.20682 0.6751 0.0
H2333 H 0.04771 0.1561 0.93848 0.0
H2334 H 0.10025 0.09645 0.91294 0.0
H2335 H 0.06431 0.08188 0.88943 0.0
H2336 H 0.98822 0.11478 0.9375 0.0
H2337 H 0.96666 0.14225 0.93149 0.0
H2338 H 0.9965 0.14771 0.94616 0.0
H2339 H 0.01184 0.1829 0.91965 0.0
H2340 H 0.98208 0.17751 0.90492 0.0
H2341 H 0.01412 0.17397 0.89287 0.0
H2342 H 0.0237 0.07707 0.8666 0.0
H2343 H 0.98031 0.07902 0.84869 0.0
H2344 H 0.953 0.1385 0.89185 0.0
C2345 C 0.05164 0.13989 0.92798 0.0
C2346 C 0.07684 0.12758 0.92727 0.0
C2347 C 0.08113 0.10623 0.91357 0.0
C2348 C 0.06084 0.09785 0.90021 0.0
C2349 C 0.03625 0.11063 0.90118 0.0
C2350 C 0.03146 0.13088 0.91499 0.0
C2351 C 1.00323 0.14108 0.91328 0.0
C2352 C 0.98774 0.13615 0.9333 0.0
C2353 C 1.00281 0.17061 0.90732 0.0
C2354 C 0.99296 0.12382 0.89599 0.0
C2355 C 0.01239 0.10655 0.88908 0.0
C2356 C 0.00821 0.0901 0.87217 0.0
C2357 C 0.9836 0.09136 0.86209 0.0
C2358 C 0.96335 0.10852 0.86921 0.0
C2359 C 0.968 0.12473 0.88649 0.0
H2360 H 0.886 0.7913 0.69669 0.0
H2361 H 0.87284 0.85476 0.65296 0.0
H2362 H 0.86409 0.82161 0.6257 0.0
H2363 H 0.92014 0.74811 0.66303 0.0
H2364 H 0.90566 0.71817 0.6732 0.0
H2365 H 0.90924 0.74686 0.68942 0.0
H2366 H 0.85886 0.7458 0.69748 0.0
H2367 H 0.85512 0.71705 0.68129 0.0
H2368 H 0.83531 0.74621 0.67662 0.0
H2369 H 0.85993 0.78156 0.60292 0.0
H2370 H 0.85924 0.73774 0.58619 0.0
H2371 H 0.87407 0.69994 0.64504 0.0
C2372 C 0.88098 0.7982 0.68141 0.0
C2373 C 0.8798 0.82559 0.67689 0.0
C2374 C 0.87337 0.8339 0.65675 0.0
C2375 C 0.86851 0.8152 0.6412 0.0
C2376 C 0.86997 0.7883 0.64615 0.0
C2377 C 0.87587 0.7798 0.6658 0.0
C2378 C 0.8769 0.74978 0.66699 0.0
C2379 C 0.90463 0.74017 0.67354 0.0
C2380 C 0.85526 0.73908 0.68145 0.0
C2381 C 0.87112 0.74265 0.64482 0.0
C2382 C 0.86717 0.76519 0.63308 0.0
C2383 C 0.86273 0.76379 0.61199 0.0
C2384 C 0.86247 0.73877 0.60263 0.0
C2385 C 0.8665 0.71536 0.61431 0.0
C2386 C 0.87058 0.71741 0.63574 0.0
H2387 H 0.03598 0.15041 0.36349 0.0
H2388 H 0.05645 0.07016 0.3812 0.0
H2389 H 0.01493 0.06707 0.40158 0.0
H2390 H 0.01199 0.16894 0.41301 0.0
H2391 H 0.98622 0.19034 0.40328 0.0
H2392 H 0.01595 0.18506 0.38846 0.0
H2393 H 0.98747 0.16957 0.35753 0.0
H2394 H 0.95766 0.17469 0.37234 0.0
H2395 H 0.96418 0.14278 0.3609 0.0
H2396 H 0.97064 0.0728 0.41961 0.0
H2397 H 0.93082 0.08904 0.43819 0.0
H2398 H 0.94217 0.16706 0.41167 0.0
C2399 C 0.03145 0.1321 0.37146 0.0
C2400 C 0.049 0.11033 0.3706 0.0
C2401 C 0.04302 0.08694 0.38165 0.0
C2402 C 0.01948 0.08498 0.39313 0.0
C2403 C 1.00249 0.10683 0.39371 0.0
C2404 C 0.00846 0.13013 0.38348 0.0
C2405 C 0.98824 0.15155 0.38817 0.0
C2406 C 1.00139 0.17537 0.39887 0.0
C2407 C 0.97352 0.16014 0.36856 0.0
C2408 C 0.96999 0.1367 0.40266 0.0
C2409 C 0.97817 0.11076 0.40529 0.0
C2410 C 0.96415 0.09312 0.41775 0.0
C2411 C 0.94154 0.10244 0.42816 0.0
C2412 C 0.93367 0.12927 0.42639 0.0
C2413 C 0.94793 0.14647 0.41333 0.0
H2414 H 0.61901 0.3059 0.13923 0.0
H2415 H 0.68113 0.28029 0.09762 0.0
H2416 H 0.68323 0.23692 0.11548 0.0
H2417 H 0.64191 0.27244 0.18512 0.0
H2418 H 0.60903 0.26315 0.19338 0.0
H2419 H 0.61376 0.29267 0.17823 0.0
H2420 H 0.58004 0.2753 0.15137 0.0
H2421 H 0.5752 0.24572 0.16642 0.0
H2422 H 0.58513 0.24317 0.13987 0.0
H2423 H 0.67944 0.19682 0.13889 0.0
H2424 H 0.6667 0.16138 0.16334 0.0
H2425 H 0.6037 0.21137 0.1871 0.0
C2426 C 0.63324 0.29122 0.13409 0.0
C2427 C 0.65024 0.29645 0.11729 0.0
C2428 C 0.6681 0.2766 0.11056 0.0
C2429 C 0.66945 0.252 0.12064 0.0
C2430 C 0.65236 0.24735 0.13714 0.0
C2431 C 0.63429 0.26626 0.1436 0.0
C2432 C 0.61692 0.25564 0.16078 0.0
C2433 C 0.62064 0.27195 0.18055 0.0
C2434 C 0.58759 0.25491 0.15421 0.0
C2435 C 0.62818 0.2279 0.16311 0.0
C2436 C 0.64889 0.22364 0.14955 0.0
C2437 C 0.66304 0.19984 0.14939 0.0
C2438 C 0.65569 0.17982 0.16331 0.0
C2439 C 0.63401 0.18349 0.17687 0.0
C2440 C 0.62015 0.20788 0.17671 0.0
H2441 H 0.45117 0.87069 0.89099 0.0
H2442 H 0.47467 0.93734 0.85311 0.0
H2443 H 0.51808 0.93904 0.87091 0.0
H2444 H 0.48566 0.88999 0.93829 0.0
H2445 H 0.49569 0.85653 0.94418 0.0
H2446 H 0.4655 0.86245 0.93005 0.0
H2447 H 0.48237 0.83189 0.90081 0.0
H2448 H 0.51264 0.82599 0.91478 0.0
H2449 H 0.51398 0.83869 0.8889 0.0
H2450 H 0.55914 0.9332 0.89276 0.0
H2451 H 0.59604 0.91797 0.91499 0.0
H2452 H 0.5475 0.85238 0.93608 0.0
C2453 C 0.46531 0.88595 0.88682 0.0
C2454 C 0.45955 0.90424 0.87101 0.0
C2455 C 0.47875 0.92338 0.86538 0.0
C2456 C 0.50339 0.9245 0.8754 0.0
C2457 C 0.50871 0.90597 0.89076 0.0
C2458 C 0.49033 0.88687 0.8963 0.0
C2459 C 0.50186 0.86794 0.91206 0.0
C2460 C 0.48625 0.86932 0.93235 0.0
C2461 C 0.50277 0.83944 0.90363 0.0
C2462 C 0.52955 0.87934 0.91447 0.0
C2463 C 0.53296 0.90153 0.90231 0.0
C2464 C 0.55674 0.91574 0.90225 0.0
C2465 C 0.5776 0.90695 0.91487 0.0
C2466 C 0.57474 0.88386 0.92702 0.0
C2467 C 0.55035 0.86996 0.92678 0.0
H2468 H 0.9006 0.28645 0.9219 0.0
H2469 H 0.81942 0.30634 0.90616 0.0
H2470 H 0.8158 0.26485 0.88588 0.0
H2471 H 0.91725 0.26229 0.87183 0.0
H2472 H 0.93923 0.23675 0.88114 0.0
H2473 H 0.93442 0.26655 0.89592 0.0
H2474 H 0.92044 0.23831 0.9274 0.0
H2475 H 0.92508 0.20843 0.91264 0.0
H2476 H 0.89361 0.21488 0.92488 0.0
H2477 H 0.82099 0.22052 0.86798 0.0
H2478 H 0.83649 0.18041 0.84949 0.0
H2479 H 0.91568 0.19224 0.87389 0.0
C2480 C 0.882 0.28182 0.91435 0.0
C2481 C 0.8601 0.29918 0.91577 0.0
C2482 C 0.8363 0.29306 0.90528 0.0
C2483 C 0.83406 0.26954 0.89386 0.0
C2484 C 0.85602 0.25272 0.89274 0.0
C2485 C 0.87971 0.25884 0.90239 0.0
C2486 C 0.90105 0.2387 0.89726 0.0
C2487 C 0.92435 0.25186 0.88586 0.0
C2488 C 0.9106 0.22422 0.91671 0.0
C2489 C 0.88567 0.22027 0.88327 0.0
C2490 C 0.85958 0.22835 0.88121 0.0
C2491 C 0.84142 0.21411 0.86936 0.0
C2492 C 0.85033 0.19133 0.85901 0.0
C2493 C 0.87725 0.18348 0.86021 0.0
C2494 C 0.89502 0.19801 0.87263 0.0
H2495 H 0.48385 0.1293 0.68136 0.0
H2496 H 0.438 0.08087 0.63915 0.0
H2497 H 0.47648 0.07841 0.61581 0.0
H2498 H 0.51509 0.1677 0.64325 0.0
H2499 H 0.54656 0.17031 0.65629 0.0
H2500 H 0.51656 0.16578 0.67091 0.0
H2501 H 0.53684 0.12408 0.68807 0.0
H2502 H 0.56689 0.12843 0.67337 0.0
H2503 H 0.54912 0.09745 0.67219 0.0
H2504 H 0.5177 0.08437 0.59562 0.0
H2505 H 0.55882 0.10011 0.57896 0.0
H2506 H 0.57914 0.14457 0.6337 0.0
C2507 C 0.48211 0.11774 0.6674 0.0
C2508 C 0.45793 0.10509 0.66217 0.0
C2509 C 0.45626 0.0907 0.64352 0.0
C2510 C 0.47809 0.08905 0.6302 0.0
C2511 C 0.50151 0.10194 0.63569 0.0
C2512 C 0.50371 0.1161 0.65379 0.0
C2513 C 0.53046 0.12996 0.65509 0.0
C2514 C 0.52695 0.16023 0.65646 0.0
C2515 C 0.54679 0.11934 0.67326 0.0
C2516 C 0.54269 0.12181 0.63469 0.0
C2517 C 0.52567 0.10537 0.62391 0.0
C2518 C 0.53141 0.0968 0.60405 0.0
C2519 C 0.5548 0.10576 0.59473 0.0
C2520 C 0.57228 0.12291 0.60529 0.0
C2521 C 0.56647 0.13068 0.62565 0.0
H2522 H 0.60367 0.79696 0.34896 0.0
H2523 H 0.66508 0.84811 0.37356 0.0
H2524 H 0.67866 0.8125 0.3976 0.0
H2525 H 0.58554 0.76424 0.39551 0.0
H2526 H 0.58121 0.73219 0.38371 0.0
H2527 H 0.57606 0.76187 0.36885 0.0
H2528 H 0.61049 0.74565 0.34203 0.0
H2529 H 0.61572 0.71589 0.3568 0.0
H2530 H 0.64348 0.73686 0.35035 0.0
H2531 H 0.68315 0.77214 0.42066 0.0
H2532 H 0.68163 0.7286 0.43831 0.0
H2533 H 0.62074 0.7021 0.39603 0.0
C2534 C 0.61998 0.80065 0.35942 0.0
C2535 C 0.6331 0.82543 0.35967 0.0
C2536 C 0.65461 0.82938 0.37331 0.0
C2537 C 0.66245 0.80926 0.38698 0.0
C2538 C 0.64897 0.78508 0.38645 0.0
C2539 C 0.6285 0.78055 0.37276 0.0
C2540 C 0.61787 0.75253 0.37479 0.0
C2541 C 0.58843 0.75273 0.38109 0.0
C2542 C 0.62216 0.73681 0.3548 0.0
C2543 C 0.63529 0.74207 0.39197 0.0
C2544 C 0.65287 0.76128 0.39868 0.0
C2545 C 0.6698 0.75683 0.41529 0.0
C2546 C 0.66878 0.73213 0.42524 0.0
C2547 C 0.65141 0.71202 0.41826 0.0
C2548 C 0.6346 0.71701 0.40134 0.0
H2549 H 0.94971 0.84263 0.11684 0.0
H2550 H 0.92159 0.92359 0.11107 0.0
H2551 H 0.95993 0.93923 0.1315 0.0
H2552 H 0.97378 0.84935 0.16963 0.0
H2553 H 1.0019 0.82789 0.16545 0.0
H2554 H 0.97185 0.8231 0.15089 0.0
H2555 H 0.99867 0.82695 0.11703 0.0
H2556 H 0.02874 0.83187 0.13149 0.0
H2557 H 0.01876 0.85596 0.11252 0.0
H2558 H 1.0024 0.94624 0.15154 0.0
H2559 H 0.04501 0.94374 0.17061 0.0
H2560 H 0.04535 0.85835 0.16363 0.0
C2561 C 0.95158 0.86364 0.11997 0.0
C2562 C 0.93275 0.88194 0.1123 0.0
C2563 C 0.93578 0.90924 0.1168 0.0
C2564 C 0.95752 0.9183 0.12837 0.0
C2565 C 0.97592 0.89979 0.13551 0.0
C2566 C 0.97307 0.87299 0.13163 0.0
C2567 C 0.99565 0.85722 0.14109 0.0
C2568 C 0.98517 0.83827 0.15775 0.0
C2569 C 0.01139 0.84212 0.12454 0.0
C2570 C 0.01202 0.87938 0.15044 0.0
C2571 C 1.00021 0.90379 0.14717 0.0
C2572 C 0.01173 0.92723 0.15427 0.0
C2573 C 0.03588 0.92568 0.16502 0.0
C2574 C 0.04822 0.90092 0.16846 0.0
C2575 C 0.03617 0.87751 0.16111 0.0
H2576 H 0.60149 0.68922 0.87785 0.0
H2577 H 0.67866 0.68254 0.84879 0.0
H2578 H 0.69307 0.72385 0.86614 0.0
H2579 H 0.59444 0.75798 0.87509 0.0
H2580 H 0.57937 0.76199 0.90004 0.0
H2581 H 0.57562 0.73123 0.88631 0.0
H2582 H 0.59511 0.70537 0.91718 0.0
H2583 H 0.59861 0.736 0.93118 0.0
H2584 H 0.627 0.71476 0.92744 0.0
H2585 H 0.69652 0.76917 0.88298 0.0
H2586 H 0.69162 0.81097 0.90274 0.0
H2587 H 0.61409 0.78547 0.92374 0.0
C2588 C 0.62159 0.69625 0.87549 0.0
C2589 C 0.63901 0.68286 0.86202 0.0
C2590 C 0.66514 0.69248 0.85921 0.0
C2591 C 0.6734 0.71599 0.86889 0.0
C2592 C 0.65549 0.72917 0.8817 0.0
C2593 C 0.63037 0.71924 0.88546 0.0
C2594 C 0.61499 0.73702 0.9 0.0
C2595 C 0.58961 0.74768 0.88974 0.0
C2596 C 0.60856 0.72242 0.92015 0.0
C2597 C 0.63509 0.75891 0.90341 0.0
C2598 C 0.65821 0.75422 0.89251 0.0
C2599 C 0.67877 0.77274 0.89195 0.0
C2600 C 0.67579 0.79645 0.90307 0.0
C2601 C 0.65269 0.8011 0.9149 0.0
C2602 C 0.63217 0.78206 0.9151 0.0
H2603 H 0.55557 0.33989 0.11465 0.0
H2604 H 0.58916 0.41907 0.11459 0.0
H2605 H 0.55081 0.43529 0.13477 0.0
H2606 H 0.48829 0.3585 0.10874 0.0
H2607 H 0.47532 0.33344 0.12575 0.0
H2608 H 0.50597 0.32772 0.11219 0.0
H2609 H 0.53011 0.31864 0.14665 0.0
H2610 H 0.49944 0.32405 0.16031 0.0
H2611 H 0.52856 0.343 0.16689 0.0
H2612 H 0.50756 0.44334 0.15339 0.0
H2613 H 0.46378 0.44191 0.17091 0.0
H2614 H 0.45871 0.35753 0.15926 0.0
C2615 C 0.55495 0.36059 0.11906 0.0
C2616 C 0.57525 0.37828 0.11301 0.0
C2617 C 0.5738 0.4052 0.11909 0.0
C2618 C 0.55208 0.41459 0.13051 0.0
C2619 C 0.53211 0.39675 0.13588 0.0
C2620 C 0.5335 0.37024 0.13056 0.0
C2621 C 0.50933 0.35522 0.13815 0.0
C2622 C 0.49382 0.34301 0.12013 0.0
C2623 C 0.51734 0.33397 0.15394 0.0
C2624 C 0.49387 0.37752 0.1482 0.0
C2625 C 0.50738 0.40132 0.14676 0.0
C2626 C 0.49688 0.42481 0.15469 0.0
C2627 C 0.47206 0.42387 0.1645 0.0
C2628 C 0.45812 0.39969 0.1662 0.0
C2629 C 0.4691 0.37626 0.15797 0.0
H2630 H 0.91573 0.31792 0.36795 0.0
H2631 H 0.83492 0.33179 0.34766 0.0
H2632 H 0.81991 0.29263 0.36743 0.0
H2633 H 0.91451 0.24714 0.36744 0.0
H2634 H 0.93372 0.24331 0.39062 0.0
H2635 H 0.93819 0.27222 0.37475 0.0
H2636 H 0.92815 0.30256 0.4059 0.0
H2637 H 0.92373 0.27376 0.42193 0.0
H2638 H 0.89766 0.29815 0.42003 0.0
H2639 H 0.81449 0.24972 0.387 0.0
H2640 H 0.81797 0.20943 0.40867 0.0
H2641 H 0.90117 0.22609 0.41943 0.0
C2642 C 0.89488 0.31267 0.36773 0.0
C2643 C 0.87647 0.32763 0.35614 0.0
C2644 C 0.8493 0.32051 0.35642 0.0
C2645 C 0.84063 0.29828 0.36755 0.0
C2646 C 0.8593 0.28374 0.3787 0.0
C2647 C 0.88578 0.29092 0.3792 0.0
C2648 C 0.90158 0.27246 0.39299 0.0
C2649 C 0.92328 0.25792 0.38071 0.0
C2650 C 0.91347 0.28764 0.4113 0.0
C2651 C 0.87993 0.25352 0.39988 0.0
C2652 C 0.85576 0.26017 0.39121 0.0
C2653 C 0.83319 0.24461 0.39418 0.0
C2654 C 0.83532 0.22177 0.40643 0.0
C2655 C 0.85966 0.21508 0.41591 0.0
C2656 C 0.8822 0.2312 0.41266 0.0
H2657 H 0.96793 0.65548 0.59665 0.0
H2658 H 0.9158 0.59391 0.61981 0.0
H2659 H 0.952 0.57761 0.64231 0.0
H2660 H 0.02763 0.61479 0.59544 0.0
H2661 H 0.04912 0.6417 0.60287 0.0
H2662 H 0.01916 0.6484 0.58866 0.0
H2663 H 1.00379 0.68098 0.6171 0.0
H2664 H 0.03373 0.67442 0.63132 0.0
H2665 H 1.00183 0.66963 0.64334 0.0
H2666 H 0.9929 0.57036 0.66405 0.0
H2667 H 0.03624 0.57085 0.68197 0.0
H2668 H 0.06299 0.63464 0.64244 0.0
C2669 C 0.96414 0.63853 0.60644 0.0
C2670 C 0.93902 0.62603 0.60666 0.0
C2671 C 0.93488 0.60379 0.61951 0.0
C2672 C 0.95533 0.5944 0.63229 0.0
C2673 C 0.97989 0.60721 0.63172 0.0
C2674 C 0.98447 0.62862 0.61896 0.0
C2675 C 0.0127 0.63873 0.62111 0.0
C2676 C 0.02806 0.63571 0.60081 0.0
C2677 C 0.01301 0.66765 0.62867 0.0
C2678 C 0.02321 0.61998 0.63738 0.0
C2679 C 1.0039 0.60205 0.64338 0.0
C2680 C 0.00829 0.58397 0.65922 0.0
C2681 C 0.03291 0.58439 0.6693 0.0
C2682 C 0.05299 0.60241 0.66326 0.0
C2683 C 0.04819 0.62017 0.64692 0.0
H2684 H 0.60093 0.29694 0.68727 0.0
H2685 H 0.66386 0.34659 0.66306 0.0
H2686 H 0.67761 0.31025 0.63975 0.0
H2687 H 0.63974 0.23612 0.68725 0.0
H2688 H 0.61187 0.21547 0.68052 0.0
H2689 H 0.60665 0.24558 0.69488 0.0
H2690 H 0.57334 0.26186 0.66728 0.0
H2691 H 0.57845 0.23181 0.65286 0.0
H2692 H 0.58367 0.26355 0.64077 0.0
H2693 H 0.68226 0.26952 0.61742 0.0
H2694 H 0.68048 0.22582 0.60007 0.0
H2695 H 0.61772 0.20098 0.64137 0.0
C2696 C 0.6176 0.30013 0.67704 0.0
C2697 C 0.63117 0.32465 0.67671 0.0
C2698 C 0.65311 0.32801 0.66339 0.0
C2699 C 0.66104 0.30749 0.65013 0.0
C2700 C 0.64717 0.28355 0.65075 0.0
C2701 C 0.62619 0.27962 0.6641 0.0
C2702 C 0.61516 0.25174 0.66219 0.0
C2703 C 0.61857 0.23632 0.68241 0.0
C2704 C 0.58592 0.25229 0.65536 0.0
C2705 C 0.63295 0.2407 0.64545 0.0
C2706 C 0.65108 0.25949 0.63889 0.0
C2707 C 0.66847 0.25453 0.62266 0.0
C2708 C 0.66731 0.22974 0.61289 0.0
C2709 C 0.64931 0.21008 0.61967 0.0
C2710 C 0.63207 0.21555 0.63625 0.0
H2711 H 0.94409 0.34921 0.90894 0.0
H2712 H 0.93307 0.42606 0.9375 0.0
H2713 H 0.97471 0.44196 0.92124 0.0
H2714 H 0.0135 0.34507 0.91338 0.0
H2715 H 0.01883 0.32997 0.88861 0.0
H2716 H 0.98787 0.32501 0.9019 0.0
H2717 H 0.96194 0.34302 0.87048 0.0
H2718 H 0.99279 0.34769 0.85694 0.0
H2719 H 0.97023 0.37514 0.86015 0.0
H2720 H 0.02064 0.44732 0.90485 0.0
H2721 H 0.06273 0.44426 0.88502 0.0
H2722 H 0.04082 0.36555 0.86452 0.0
C2723 C 0.95028 0.36952 0.91148 0.0
C2724 C 0.93552 0.38645 0.92445 0.0
C2725 C 0.94407 0.41289 0.92746 0.0
C2726 C 0.96776 0.42199 0.91842 0.0
C2727 C 0.98226 0.40456 0.90606 0.0
C2728 C 0.97343 0.37908 0.90217 0.0
C2729 C 0.99226 0.36439 0.88802 0.0
C2730 C 1.00379 0.33965 0.89862 0.0
C2731 C 0.97848 0.35714 0.86769 0.0
C2732 C 0.01336 0.38536 0.88481 0.0
C2733 C 0.00752 0.40827 0.89559 0.0
C2734 C 0.02511 0.42967 0.89604 0.0
C2735 C 0.04899 0.42774 0.88488 0.0
C2736 C 0.05467 0.40484 0.87313 0.0
C2737 C 0.03663 0.38345 0.87315 0.0
H2738 H 0.88753 0.80974 0.14281 0.0
H2739 H 0.82128 0.78625 0.10453 0.0
H2740 H 0.81986 0.74258 0.12196 0.0
H2741 H 0.92027 0.74806 0.13995 0.0
H2742 H 0.93299 0.74882 0.16584 0.0
H2743 H 0.92653 0.77936 0.15243 0.0
H2744 H 0.89561 0.79478 0.18194 0.0
H2745 H 0.90214 0.76435 0.19556 0.0
H2746 H 0.86844 0.77389 0.18987 0.0
H2747 H 0.82663 0.70088 0.14306 0.0
H2748 H 0.84304 0.66353 0.16438 0.0
H2749 H 0.90743 0.713 0.18638 0.0
C2750 C 0.87231 0.79559 0.13856 0.0
C2751 C 0.85405 0.80139 0.12276 0.0
C2752 C 0.83509 0.78215 0.11689 0.0
C2753 C 0.83417 0.75737 0.12669 0.0
C2754 C 0.85272 0.75198 0.14204 0.0
C2755 C 0.87158 0.77048 0.14783 0.0
C2756 C 0.89078 0.75889 0.16335 0.0
C2757 C 0.91932 0.75878 0.15488 0.0
C2758 C 0.88913 0.77387 0.1839 0.0
C2759 C 0.87988 0.73099 0.16529 0.0
C2760 C 0.85765 0.7275 0.15316 0.0
C2761 C 0.84405 0.70339 0.15259 0.0
C2762 C 0.85348 0.68229 0.16471 0.0
C2763 C 0.87656 0.68534 0.17685 0.0
C2764 C 0.88983 0.71004 0.17711 0.0
H2765 H 0.54244 0.63691 0.44645 0.0
H2766 H 0.60588 0.62507 0.4024 0.0
H2767 H 0.57282 0.61466 0.37549 0.0
H2768 H 0.49858 0.58463 0.42719 0.0
H2769 H 0.46883 0.60364 0.43171 0.0
H2770 H 0.49757 0.6086 0.44774 0.0
H2771 H 0.49712 0.65873 0.43902 0.0
H2772 H 0.46841 0.65393 0.42298 0.0
H2773 H 0.49788 0.66903 0.41248 0.0
H2774 H 0.5329 0.60855 0.35305 0.0
H2775 H 0.48901 0.60643 0.33643 0.0
H2776 H 0.45096 0.62146 0.39519 0.0
C2777 C 0.54934 0.63183 0.43118 0.0
C2778 C 0.57674 0.63135 0.42649 0.0
C2779 C 0.58506 0.6249 0.40635 0.0
C2780 C 0.56638 0.61913 0.39098 0.0
C2781 C 0.53949 0.61978 0.39609 0.0
C2782 C 0.53095 0.62586 0.41572 0.0
C2783 C 0.50087 0.62602 0.417 0.0
C2784 C 0.49088 0.60443 0.43179 0.0
C2785 C 0.49047 0.65356 0.42323 0.0
C2786 C 0.49379 0.61952 0.39493 0.0
C2787 C 0.5164 0.61597 0.38316 0.0
C2788 C 0.51507 0.61104 0.36214 0.0
C2789 C 0.49002 0.60995 0.35284 0.0
C2790 C 0.46653 0.61365 0.36453 0.0
C2791 C 0.46852 0.61816 0.38592 0.0
H2792 H 0.37351 0.19941 0.1444 0.0
H2793 H 0.35576 0.23503 0.08524 0.0
H2794 H 0.35641 0.27944 0.1012 0.0
H2795 H 0.33487 0.24524 0.17577 0.0
H2796 H 0.35898 0.2457 0.19624 0.0
H2797 H 0.35551 0.21664 0.18035 0.0
H2798 H 0.40561 0.21868 0.17138 0.0
H2799 H 0.40923 0.24772 0.18722 0.0
H2800 H 0.41921 0.24869 0.16061 0.0
H2801 H 0.36056 0.3205 0.12362 0.0
H2802 H 0.36923 0.3543 0.15047 0.0
H2803 H 0.38485 0.29182 0.19454 0.0
C2804 C 0.36944 0.21651 0.13483 0.0
C2805 C 0.36447 0.21366 0.11356 0.0
C2806 C 0.35963 0.23664 0.10157 0.0
C2807 C 0.35988 0.26199 0.11051 0.0
C2808 C 0.36508 0.26413 0.13148 0.0
C2809 C 0.36983 0.24198 0.14348 0.0
C2810 C 0.3761 0.24972 0.16544 0.0
C2811 C 0.35511 0.23867 0.18033 0.0
C2812 C 0.40421 0.24067 0.17151 0.0
C2813 C 0.37436 0.27966 0.1639 0.0
C2814 C 0.36777 0.28764 0.14424 0.0
C2815 C 0.36553 0.31444 0.13911 0.0
C2816 C 0.37033 0.33353 0.15444 0.0
C2817 C 0.37742 0.3257 0.17457 0.0
C2818 C 0.37932 0.29841 0.17928 0.0
H2819 H 0.56244 0.64079 0.88679 0.0
H2820 H 0.5385 0.57482 0.84845 0.0
H2821 H 0.49429 0.57447 0.86527 0.0
H2822 H 0.52589 0.62256 0.93329 0.0
H2823 H 0.51674 0.65631 0.93903 0.0
H2824 H 0.54716 0.64947 0.92545 0.0
H2825 H 0.53219 0.68057 0.89598 0.0
H2826 H 0.50162 0.68735 0.90935 0.0
H2827 H 0.50082 0.67473 0.88343 0.0
H2828 H 0.45262 0.58165 0.88633 0.0
H2829 H 0.41579 0.59749 0.90842 0.0
H2830 H 0.46564 0.66155 0.93044 0.0
C2831 C 0.54801 0.62593 0.88235 0.0
C2832 C 0.55384 0.60737 0.86677 0.0
C2833 C 0.53434 0.58884 0.86066 0.0
C2834 C 0.50926 0.58855 0.87009 0.0
C2835 C 0.50389 0.60733 0.88528 0.0
C2836 C 0.52265 0.62583 0.89125 0.0
C2837 C 0.51123 0.64511 0.90679 0.0
C2838 C 0.52614 0.64323 0.92736 0.0
C2839 C 0.51148 0.67362 0.89838 0.0
C2840 C 0.48315 0.63455 0.90866 0.0
C2841 C 0.47941 0.61254 0.89634 0.0
C2842 C 0.45527 0.59898 0.89592 0.0
C2843 C 0.43445 0.60813 0.90845 0.0
C2844 C 0.43776 0.6309 0.92088 0.0
C2845 C 0.46242 0.64427 0.92087 0.0
H2846 H 0.10676 0.78187 0.61509 0.0
H2847 H 0.18818 0.80248 0.62941 0.0
H2848 H 0.19232 0.76194 0.65065 0.0
H2849 H 0.0911 0.7596 0.66593 0.0
H2850 H 0.06921 0.73345 0.65761 0.0
H2851 H 0.07343 0.76258 0.64194 0.0
H2852 H 0.08714 0.73308 0.61109 0.0
H2853 H 0.08298 0.70386 0.62671 0.0
H2854 H 0.11418 0.70994 0.61398 0.0
H2855 H 0.18784 0.7187 0.66968 0.0
H2856 H 0.17344 0.67885 0.68889 0.0
H2857 H 0.09348 0.68888 0.66546 0.0
C2858 C 0.12552 0.77754 0.6225 0.0
C2859 C 0.14735 0.7949 0.62042 0.0
C2860 C 0.17137 0.7892 0.63076 0.0
C2861 C 0.1739 0.76622 0.64277 0.0
C2862 C 0.15201 0.74948 0.64462 0.0
C2863 C 0.12813 0.75506 0.63506 0.0
C2864 C 0.10704 0.73497 0.641 0.0
C2865 C 0.08383 0.74846 0.65229 0.0
C2866 C 0.09727 0.71955 0.62207 0.0
C2867 C 0.12281 0.71725 0.65535 0.0
C2868 C 0.14885 0.72567 0.65688 0.0
C2869 C 0.16745 0.71205 0.66875 0.0
C2870 C 0.15914 0.68944 0.67955 0.0
C2871 C 0.13235 0.68107 0.6788 0.0
C2872 C 0.11402 0.69511 0.66648 0.0
H2873 H 0.95038 0.36822 0.3888 0.0
H2874 H 0.97415 0.43565 0.35187 0.0
H2875 H 0.01813 0.4358 0.36881 0.0
H2876 H 0.98629 0.38553 0.43577 0.0
H2877 H 0.99589 0.35178 0.44106 0.0
H2878 H 0.96554 0.3585 0.42737 0.0
H2879 H 0.98134 0.32839 0.39755 0.0
H2880 H 0.01186 0.32174 0.41102 0.0
H2881 H 0.01278 0.33503 0.38531 0.0
H2882 H 0.0595 0.42851 0.38958 0.0
H2883 H 0.09626 0.41306 0.41177 0.0
H2884 H 0.04723 0.34793 0.43307 0.0
C2885 C 0.96472 0.38331 0.38469 0.0
C2886 C 0.95889 0.40229 0.36939 0.0
C2887 C 0.9783 0.4212 0.36377 0.0
C2888 C 1.00328 0.4214 0.37327 0.0
C2889 C 0.00869 0.4022 0.38809 0.0
C2890 C 0.99006 0.38337 0.39369 0.0
C2891 C 1.00163 0.36389 0.40903 0.0
C2892 C 0.98643 0.36501 0.42953 0.0
C2893 C 1.00192 0.33559 0.40019 0.0
C2894 C 0.02955 0.37481 0.41125 0.0
C2895 C 0.03311 0.39706 0.39918 0.0
C2896 C 0.05702 0.41101 0.399 0.0
C2897 C 0.07781 0.40207 0.41159 0.0
C2898 C 0.0747 0.37918 0.42393 0.0
C2899 C 0.05028 0.36533 0.42361 0.0
H2900 H 0.38781 0.80783 0.39666 0.0
H2901 H 0.32905 0.77968 0.44016 0.0
H2902 H 0.32806 0.73617 0.42243 0.0
H2903 H 0.36418 0.77295 0.3515 0.0
H2904 H 0.39711 0.76531 0.34238 0.0
H2905 H 0.39148 0.79471 0.3575 0.0
H2906 H 0.42734 0.77942 0.38349 0.0
H2907 H 0.43307 0.74999 0.36846 0.0
H2908 H 0.42453 0.74719 0.39529 0.0
H2909 H 0.33305 0.69575 0.39906 0.0
H2910 H 0.34715 0.66066 0.37461 0.0
H2911 H 0.40588 0.71415 0.34905 0.0
C2912 C 0.37448 0.79258 0.40224 0.0
C2913 C 0.35819 0.79712 0.41954 0.0
C2914 C 0.34155 0.77654 0.42682 0.0
C2915 C 0.34081 0.75184 0.41682 0.0
C2916 C 0.35725 0.74788 0.39982 0.0
C2917 C 0.37406 0.7676 0.39279 0.0
C2918 C 0.39116 0.75776 0.37521 0.0
C2919 C 0.38564 0.77363 0.35548 0.0
C2920 C 0.42078 0.75864 0.38097 0.0
C2921 C 0.3813 0.72949 0.37336 0.0
C2922 C 0.36142 0.72424 0.38743 0.0
C2923 C 0.34878 0.6996 0.38812 0.0
C2924 C 0.35689 0.67979 0.37421 0.0
C2925 C 0.37782 0.68458 0.36018 0.0
C2926 C 0.39003 0.7098 0.35979 0.0
H2927 H 0.07058 0.66379 0.1251 0.0
H2928 H 0.08028 0.58644 0.09707 0.0
H2929 H 0.03975 0.57067 0.11497 0.0
H2930 H 0.04706 0.63844 0.17519 0.0
H2931 H 0.02462 0.66591 0.17881 0.0
H2932 H 0.05483 0.67043 0.16438 0.0
H2933 H 0.02751 0.68799 0.13355 0.0
H2934 H 0.99718 0.68324 0.14772 0.0
H2935 H 1.00136 0.66778 0.12295 0.0
H2936 H 0.99484 0.56566 0.13239 0.0
H2937 H 0.95317 0.56924 0.1526 0.0
H2938 H 0.97573 0.64816 0.17219 0.0
C2939 C 0.06436 0.6434 0.12304 0.0
C2940 C 0.07834 0.62628 0.10973 0.0
C2941 C 0.06982 0.59974 0.10735 0.0
C2942 C 0.04679 0.59071 0.11735 0.0
C2943 C 0.03301 0.60831 0.13003 0.0
C2944 C 0.0419 0.6339 0.13334 0.0
C2945 C 0.02373 0.6488 0.14787 0.0
C2946 C 0.03844 0.65633 0.16774 0.0
C2947 C 0.01174 0.6734 0.13739 0.0
C2948 C 1.00281 0.62787 0.15183 0.0
C2949 C 0.0083 0.60476 0.14119 0.0
C2950 C 0.99066 0.58342 0.14116 0.0
C2951 C 0.96704 0.58565 0.15253 0.0
C2952 C 0.96164 0.60878 0.16408 0.0
C2953 C 0.97978 0.63007 0.16376 0.0
H2954 H 0.09694 0.31982 0.87422 0.0
H2955 H 0.17674 0.33106 0.85079 0.0
H2956 H 0.1917 0.29129 0.86992 0.0
H2957 H 0.11774 0.29811 0.92572 0.0
H2958 H 0.09075 0.27486 0.92812 0.0
H2959 H 0.08664 0.30444 0.91291 0.0
H2960 H 0.07321 0.27577 0.88159 0.0
H2961 H 0.07744 0.24609 0.89661 0.0
H2962 H 0.09528 0.25 0.87277 0.0
H2963 H 0.19645 0.24744 0.88839 0.0
H2964 H 0.19232 0.20622 0.9089 0.0
H2965 H 0.11076 0.22622 0.92336 0.0
C2966 C 0.11761 0.314 0.87331 0.0
C2967 C 0.13571 0.32827 0.86097 0.0
C2968 C 0.16264 0.32033 0.86022 0.0
C2969 C 0.17125 0.29775 0.87096 0.0
C2970 C 0.1528 0.28379 0.88274 0.0
C2971 C 0.12667 0.29194 0.88436 0.0
C2972 C 0.11094 0.2737 0.89832 0.0
C2973 C 0.10093 0.28867 0.9174 0.0
C2974 C 0.08786 0.26062 0.88661 0.0
C2975 C 0.13213 0.25362 0.90392 0.0
C2976 C 0.15606 0.25962 0.89457 0.0
C2977 C 0.178 0.24286 0.89614 0.0
C2978 C 0.17547 0.2195 0.90771 0.0
C2979 C 0.1514 0.21347 0.91788 0.0
C2980 C 0.12954 0.2308 0.91605 0.0
H2981 H 0.55952 0.37017 0.6426 0.0
H2982 H 0.53087 0.42935 0.68552 0.0
H2983 H 0.4878 0.43084 0.66719 0.0
H2984 H 0.52516 0.39383 0.59672 0.0
H2985 H 0.51737 0.36092 0.58777 0.0
H2986 H 0.54672 0.36647 0.603 0.0
H2987 H 0.53093 0.33101 0.62912 0.0
H2988 H 0.50154 0.3254 0.614 0.0
H2989 H 0.49859 0.33421 0.64076 0.0
H2990 H 0.44779 0.42595 0.64389 0.0
H2991 H 0.41252 0.41177 0.61972 0.0
H2992 H 0.46565 0.35248 0.59439 0.0
C2993 C 0.54428 0.38374 0.64786 0.0
C2994 C 0.54854 0.40001 0.66521 0.0
C2995 C 0.52796 0.41693 0.67212 0.0
C2996 C 0.5035 0.41794 0.66179 0.0
C2997 C 0.49974 0.40148 0.64482 0.0
C2998 C 0.51945 0.38443 0.63806 0.0
C2999 C 0.50957 0.36725 0.62053 0.0
C3000 C 0.52566 0.37244 0.60084 0.0
C3001 C 0.51019 0.33772 0.62646 0.0
C3002 C 0.48131 0.3773 0.61847 0.0
C3003 C 0.47616 0.39737 0.63237 0.0
C3004 C 0.45155 0.41012 0.63304 0.0
C3005 C 0.43164 0.40196 0.61928 0.0
C3006 C 0.43627 0.38088 0.60539 0.0
C3007 C 0.46147 0.36851 0.605 0.0
H3008 H 0.13764 0.01768 0.31461 0.0
H3009 H 0.08366 0.07921 0.29449 0.0
H3010 H 0.07321 0.0533 0.26326 0.0
H3011 H 0.16381 0.99996 0.26719 0.0
H3012 H 0.16465 0.96478 0.27209 0.0
H3013 H 0.16677 0.98776 0.29315 0.0
H3014 H 0.12617 0.96535 0.31049 0.0
H3015 H 0.12415 0.94222 0.28944 0.0
H3016 H 0.09562 0.96191 0.29631 0.0
H3017 H 0.0733 0.02258 0.23215 0.0
H3018 H 0.08021 0.98748 0.20582 0.0
H3019 H 0.12995 0.94435 0.24878 0.0
C3020 C 0.12333 0.0255 0.30376 0.0
C3021 C 0.11179 0.0507 0.30666 0.0
C3022 C 0.09299 0.06019 0.29231 0.0
C3023 C 0.08686 0.04552 0.2746 0.0
C3024 C 0.09904 0.02094 0.27194 0.0
C3025 C 0.11637 0.0107 0.28643 0.0
C3026 C 0.12684 0.98385 0.28001 0.0
C3027 C 0.15731 0.98413 0.27798 0.0
C3028 C 0.11763 0.96205 0.29495 0.0
C3029 C 0.11352 0.98108 0.25931 0.0
C3030 C 0.09762 1.00262 0.2548 0.0
C3031 C 0.0852 0.0053 0.2357 0.0
C3032 C 0.08925 0.98541 0.22084 0.0
C3033 C 0.1053 0.96318 0.22539 0.0
C3034 C 0.11716 0.96092 0.24497 0.0
H3035 H 0.23874 0.8873 0.56373 0.0
H3036 H 0.18066 0.82894 0.54491 0.0
H3037 H 0.2065 0.82008 0.51328 0.0
H3038 H 0.25393 0.9139 0.51564 0.0
H3039 H 0.28909 0.91705 0.52021 0.0
H3040 H 0.26624 0.91821 0.54145 0.0
H3041 H 0.29138 0.87961 0.55915 0.0
H3042 H 0.31442 0.8785 0.53798 0.0
H3043 H 0.29661 0.84902 0.54537 0.0
H3044 H 0.23704 0.82147 0.48179 0.0
H3045 H 0.27222 0.82906 0.45556 0.0
H3046 H 0.31213 0.88256 0.4976 0.0
C3047 C 0.23162 0.87243 0.55306 0.0
C3048 C 0.20733 0.85923 0.55643 0.0
C3049 C 0.19885 0.83968 0.54231 0.0
C3050 C 0.21351 0.83443 0.52439 0.0
C3051 C 0.23711 0.84829 0.52125 0.0
C3052 C 0.24645 0.86639 0.53551 0.0
C3053 C 0.27256 0.87838 0.52879 0.0
C3054 C 0.27029 0.90867 0.52637 0.0
C3055 C 0.29506 0.87091 0.54371 0.0
C3056 C 0.27602 0.86483 0.50823 0.0
C3057 C 0.25538 0.84766 0.50399 0.0
C3058 C 0.25359 0.83446 0.48514 0.0
C3059 C 0.2735 0.8389 0.47032 0.0
C3060 C 0.29493 0.85609 0.47468 0.0
C3061 C 0.2962 0.86893 0.49395 0.0
H3062 H 0.34928 0.97627 0.80745 0.0
H3063 H 0.43319 0.95918 0.81398 0.0
H3064 H 0.44307 0.98952 0.78489 0.0
H3065 H 0.34926 0.97605 0.75302 0.0
H3066 H 0.32449 1.00172 0.75093 0.0
H3067 H 0.325 0.98045 0.77315 0.0
H3068 H 0.32812 0.02217 0.79656 0.0
H3069 H 0.32837 0.04344 0.77429 0.0
H3070 H 0.35497 0.0453 0.79277 0.0
H3071 H 0.44313 0.02234 0.75471 0.0
H3072 H 0.43306 0.05078 0.7245 0.0
H3073 H 0.34891 0.04274 0.73695 0.0
C3074 C 0.36978 0.97922 0.80296 0.0
C3075 C 0.39055 0.96576 0.81305 0.0
C3076 C 0.41706 0.96955 0.80646 0.0
C3077 C 0.42282 0.98676 0.79002 0.0
C3078 C 0.40177 0.9997 0.7803 0.0
C3079 C 0.37577 0.99586 0.78645 0.0
C3080 C 0.35652 0.01045 0.7727 0.0
C3081 C 0.33768 0.99101 0.76182 0.0
C3082 C 0.34108 0.03159 0.78481 0.0
C3083 C 0.37563 0.02302 0.75771 0.0
C3084 C 0.4017 0.01706 0.76247 0.0
C3085 C 0.42276 0.02695 0.7508 0.0
C3086 C 0.41691 0.04304 0.73372 0.0
C3087 C 0.39025 0.04849 0.72833 0.0
C3088 C 0.36947 0.03848 0.74057 0.0
H3089 H 0.24105 0.11772 0.9742 0.0
H3090 H 0.18966 0.18425 0.98806 0.0
H3091 H 0.21666 0.19445 0.01888 0.0
H3092 H 0.25474 0.09602 0.02382 0.0
H3093 H 0.28937 0.08908 0.01922 0.0
H3094 H 0.26604 0.08748 0.99835 0.0
H3095 H 0.29443 0.12101 0.97784 0.0
H3096 H 0.31775 0.12321 0.99876 0.0
H3097 H 0.30216 0.1528 0.989 0.0
H3098 H 0.24698 0.19355 0.05054 0.0
H3099 H 0.28143 0.1856 0.07725 0.0
H3100 H 0.31556 0.12366 0.03927 0.0
C3101 C 0.23559 0.13458 0.98362 0.0
C3102 C 0.21265 0.1496 0.97932 0.0
C3103 C 0.2065 0.17185 0.99168 0.0
C3104 C 0.2219 0.17794 1.00905 0.0
C3105 C 0.24398 0.16216 1.01327 0.0
C3106 C 0.25123 0.14142 1.00052 0.0
C3107 C 0.27621 0.12791 1.00798 0.0
C3108 C 0.27126 0.09839 1.01263 0.0
C3109 C 0.29898 0.13145 0.99246 0.0
C3110 C 0.28126 0.14354 0.02738 0.0
C3111 C 0.26248 0.16315 0.03034 0.0
C3112 C 0.26214 0.17866 0.04815 0.0
C3113 C 0.28162 0.17399 0.06325 0.0
C3114 C 0.30121 0.15431 0.06014 0.0
C3115 C 0.30108 0.1392 0.04189 0.0
H3116 H 0.8667 0.01855 0.8157 0.0
H3117 H 0.93247 0.07057 0.80106 0.0
H3118 H 0.94227 0.04388 0.77005 0.0
H3119 H 0.90077 0.9568 0.7991 0.0
H3120 H 0.87007 0.9428 0.78994 0.0
H3121 H 0.86977 0.96553 0.81125 0.0
H3122 H 0.83578 0.99467 0.79142 0.0
H3123 H 0.83675 0.97206 0.77006 0.0
H3124 H 0.84413 0.00667 0.76611 0.0
H3125 H 0.9407 0.0146 0.73831 0.0
H3126 H 0.93157 0.98161 0.71083 0.0
H3127 H 0.87066 0.94604 0.74902 0.0
C3128 C 0.8834 0.02409 0.80612 0.0
C3129 C 0.89842 0.04699 0.81033 0.0
C3130 C 0.9203 0.05349 0.79766 0.0
C3131 C 0.92612 0.03833 0.78015 0.0
C3132 C 0.9104 0.01624 0.77605 0.0
C3133 C 0.88993 0.00874 0.78899 0.0
C3134 C 0.87598 0.98421 0.78122 0.0
C3135 C 0.87939 0.96097 0.79629 0.0
C3136 C 0.84642 0.98976 0.77694 0.0
C3137 C 0.89126 0.97955 0.76155 0.0
C3138 C 0.91091 0.9983 0.75869 0.0
C3139 C 0.92584 0.99939 0.74061 0.0
C3140 C 0.9205 0.98076 0.72509 0.0
C3141 C 0.90078 0.96123 0.72805 0.0
C3142 C 0.88629 0.96046 0.74659 0.0
H3143 H 0.7019 0.11637 0.54397 0.0
H3144 H 0.73047 0.1835 0.57915 0.0
H3145 H 0.76465 0.19213 0.55231 0.0
H3146 H 0.76695 0.09377 0.52913 0.0
H3147 H 0.75585 0.08199 0.50443 0.0
H3148 H 0.73324 0.08248 0.52587 0.0
H3149 H 0.70037 0.11083 0.50478 0.0
H3150 H 0.72275 0.11056 0.4832 0.0
H3151 H 0.71129 0.14169 0.49358 0.0
H3152 H 0.79459 0.19378 0.52018 0.0
H3153 H 0.82048 0.1854 0.48837 0.0
H3154 H 0.77407 0.11457 0.47705 0.0
C3155 C 0.71524 0.13303 0.54597 0.0
C3156 C 0.71348 0.14957 0.56338 0.0
C3157 C 0.73158 0.17076 0.56577 0.0
C3158 C 0.75092 0.17579 0.55062 0.0
C3159 C 0.75209 0.15902 0.53353 0.0
C3160 C 0.73499 0.13778 0.53141 0.0
C3161 C 0.7412 0.12158 0.51248 0.0
C3162 C 0.74983 0.09329 0.51834 0.0
C3163 C 0.7175 0.12118 0.49762 0.0
C3164 C 0.76409 0.13735 0.50386 0.0
C3165 C 0.77007 0.159 0.51604 0.0
C3166 C 0.79024 0.17669 0.51071 0.0
C3167 C 0.80488 0.17177 0.49268 0.0
C3168 C 0.79957 0.14912 0.48051 0.0
C3169 C 0.77872 0.13196 0.48613 0.0
H3170 H 0.65903 0.05007 0.24256 0.0
H3171 H 0.58008 0.04011 0.21742 0.0
H3172 H 0.5693 0.00819 0.24534 0.0
H3173 H 0.67215 0.9859 0.2596 0.0
H3174 H 0.68745 0.99584 0.28342 0.0
H3175 H 0.68823 0.01773 0.26159 0.0
H3176 H 0.6635 0.05592 0.28283 0.0
H3177 H 0.66711 0.03375 0.30446 0.0
H3178 H 0.63495 0.04673 0.29764 0.0
H3179 H 0.56877 0.97516 0.27546 0.0
H3180 H 0.57721 0.94711 0.30612 0.0
H3181 H 0.65561 0.98173 0.31204 0.0
C3182 C 0.63951 0.04107 0.24296 0.0
C3183 C 0.62049 0.04697 0.22779 0.0
C3184 C 0.5949 0.03554 0.22896 0.0
C3185 C 0.58867 0.01744 0.2447 0.0
C3186 C 0.60805 0.01174 0.2594 0.0
C3187 C 0.63272 0.02374 0.25887 0.0
C3188 C 0.64956 0.01558 0.277 0.0
C3189 C 0.6759 1.00302 0.26997 0.0
C3190 C 0.65412 0.03937 0.29136 0.0
C3191 C 0.63144 0.99555 0.28701 0.0
C3192 C 0.60736 0.99384 0.27691 0.0
C3193 C 0.5875 0.97653 0.28353 0.0
C3194 C 0.59247 0.96065 0.3009 0.0
C3195 C 0.61706 0.96224 0.31136 0.0
C3196 C 0.6366 0.9801 0.30437 0.0
H3197 H 0.72029 0.91192 0.98355 0.0
H3198 H 0.70626 0.82782 0.97529 0.0
H3199 H 0.73615 0.81812 1.00472 0.0
H3200 H 0.78845 0.90859 0.9979 0.0
H3201 H 0.78601 0.93438 1.01699 0.0
H3202 H 0.76407 0.93453 0.99514 0.0
H3203 H 0.72291 0.93499 0.01927 0.0
H3204 H 0.74478 0.93557 0.04117 0.0
H3205 H 0.72 0.90996 0.03894 0.0
H3206 H 0.76996 0.8182 0.03423 0.0
H3207 H 0.80043 0.82814 0.06325 0.0
H3208 H 0.78861 0.91227 0.05315 0.0
C3209 C 0.72365 0.89144 0.98785 0.0
C3210 C 0.71141 0.87054 0.97704 0.0
C3211 C 0.71571 0.84405 0.98337 0.0
C3212 C 0.73265 0.8384 1.0 0.0
C3213 C 0.74465 0.85954 1.01027 0.0
C3214 C 0.73998 0.88554 1.00458 0.0
C3215 C 0.75422 0.90481 0.01853 0.0
C3216 C 0.77438 0.92157 1.00641 0.0
C3217 C 0.73429 0.92238 0.03016 0.0
C3218 C 0.76799 0.88567 0.03285 0.0
C3219 C 0.76255 0.85961 0.02778 0.0
C3220 C 0.77405 0.83853 0.03847 0.0
C3221 C 0.79133 0.84432 0.05486 0.0
C3222 C 0.79645 0.87092 0.06053 0.0
C3223 C 0.78464 0.89174 0.04934 0.0
H3224 H 0.62482 0.51493 0.81455 0.0
H3225 H 0.62052 0.58958 0.78201 0.0
H3226 H 0.6126 0.56588 0.74944 0.0
H3227 H 0.66078 0.48157 0.77736 0.0
H3228 H 0.6447 0.44994 0.77985 0.0
H3229 H 0.64599 0.47203 0.80151 0.0
H3230 H 0.59533 0.47104 0.80521 0.0
H3231 H 0.59235 0.44878 0.78367 0.0
H3232 H 0.57454 0.47968 0.78366 0.0
H3233 H 0.61144 0.53408 0.72001 0.0
H3234 H 0.6161 0.49632 0.69591 0.0
H3235 H 0.61911 0.44197 0.74721 0.0
C3236 C 0.62153 0.52617 0.80059 0.0
C3237 C 0.62211 0.55411 0.8008 0.0
C3238 C 0.61863 0.5683 0.78228 0.0
C3239 C 0.61446 0.55493 0.76367 0.0
C3240 C 0.61374 0.52732 0.76393 0.0
C3241 C 0.61704 0.51307 0.78192 0.0
C3242 C 0.61724 0.48352 0.77777 0.0
C3243 C 0.64373 0.47105 0.78453 0.0
C3244 C 0.59347 0.46996 0.7882 0.0
C3245 C 0.61436 0.48339 0.75458 0.0
C3246 C 0.61229 0.50889 0.74691 0.0
C3247 C 0.61228 0.514 0.72584 0.0
C3248 C 0.61488 0.49253 0.71228 0.0
C3249 C 0.61699 0.46638 0.71988 0.0
C3250 C 0.6163 0.46173 0.7412 0.0
H3251 H 0.76977 0.3917 0.97389 0.0
H3252 H 0.82861 0.33367 0.99208 0.0
H3253 H 0.80275 0.32375 0.02351 0.0
H3254 H 0.75379 0.41684 0.02275 0.0
H3255 H 0.71865 0.41963 1.0179 0.0
H3256 H 0.74183 0.42189 0.99692 0.0
H3257 H 0.71745 0.38375 0.9782 0.0
H3258 H 0.69425 0.38118 0.99919 0.0
H3259 H 0.71281 0.35245 0.99112 0.0
H3260 H 0.77165 0.32346 0.0547 0.0
H3261 H 0.73581 0.32929 0.08065 0.0
H3262 H 0.69565 0.38377 0.03948 0.0
C3263 C 0.7771 0.37675 0.98441 0.0
C3264 C 0.80149 0.36377 0.98083 0.0
C3265 C 0.81025 0.34411 0.99477 0.0
C3266 C 0.79561 0.33831 1.0126 0.0
C3267 C 0.77182 0.35181 1.01589 0.0
C3268 C 0.76235 0.3702 1.0019 0.0
C3269 C 0.73595 0.38155 1.00866 0.0
C3270 C 0.73769 0.41176 1.01175 0.0
C3271 C 0.71382 0.37429 0.99337 0.0
C3272 C 0.73238 0.36722 0.02888 0.0
C3273 C 0.75329 0.35028 0.03296 0.0
C3274 C 0.75494 0.3363 0.05148 0.0
C3275 C 0.73462 0.33974 0.06613 0.0
C3276 C 0.71292 0.35668 0.06194 0.0
C3277 C 0.7118 0.37031 0.043 0.0
H3278 H 0.85819 0.52695 0.22528 0.0
H3279 H 0.93479 0.56505 0.23223 0.0
H3280 H 0.9437 0.53741 0.26309 0.0
H3281 H 0.83992 0.5227 0.27576 0.0
H3282 H 0.82562 0.49004 0.27451 0.0
H3283 H 0.82633 0.51058 0.25191 0.0
H3284 H 0.85043 0.47389 0.23213 0.0
H3285 H 0.85287 0.45238 0.25423 0.0
H3286 H 0.88232 0.46212 0.2408 0.0
H3287 H 0.9429 0.50556 0.29419 0.0
H3288 H 0.93164 0.47468 0.32273 0.0
H3289 H 0.85484 0.46013 0.2951 0.0
C3290 C 0.87698 0.52938 0.23315 0.0
C3291 C 0.89568 0.54834 0.2266 0.0
C3292 C 0.92007 0.55081 0.23723 0.0
C3293 C 0.92532 0.53511 0.25467 0.0
C3294 C 0.90609 0.5169 0.26099 0.0
C3295 C 0.88252 0.51392 0.25038 0.0
C3296 C 0.86488 0.49331 0.26016 0.0
C3297 C 0.83757 0.50485 0.26591 0.0
C3298 C 0.86242 0.46904 0.24597 0.0
C3299 C 0.88108 0.48663 0.27893 0.0
C3300 C 0.90529 0.49956 0.27884 0.0
C3301 C 0.92393 0.4955 0.29441 0.0
C3302 C 0.9174 0.47804 0.31052 0.0
C3303 C 0.89222 0.46567 0.31114 0.0
C3304 C 0.874 0.46989 0.29511 0.0
H3305 H 0.69668 0.62666 0.49851 0.0
H3306 H 0.73692 0.68024 0.45671 0.0
H3307 H 0.77151 0.68833 0.48315 0.0
H3308 H 0.71226 0.66038 0.5468 0.0
H3309 H 0.71771 0.62975 0.56045 0.0
H3310 H 0.69451 0.63086 0.53941 0.0
H3311 H 0.71931 0.59274 0.52114 0.0
H3312 H 0.74246 0.59108 0.54214 0.0
H3313 H 0.75443 0.59576 0.51627 0.0
H3314 H 0.8023 0.68916 0.51387 0.0
H3315 H 0.82919 0.67944 0.54473 0.0
H3316 H 0.77097 0.62159 0.56445 0.0
C3317 C 0.71247 0.64055 0.49507 0.0
C3318 C 0.71408 0.65317 0.47573 0.0
C3319 C 0.73535 0.67061 0.47154 0.0
C3320 C 0.75496 0.67535 0.48647 0.0
C3321 C 0.75303 0.6622 0.50531 0.0
C3322 C 0.73243 0.64495 0.50954 0.0
C3323 C 0.73625 0.63116 0.53 0.0
C3324 C 0.71386 0.6385 0.54506 0.0
C3325 C 0.73825 0.6009 0.5272 0.0
C3326 C 0.76252 0.643 0.53653 0.0
C3327 C 0.77157 0.66131 0.52232 0.0
C3328 C 0.79545 0.67478 0.52503 0.0
C3329 C 0.81069 0.66904 0.54252 0.0
C3330 C 0.80242 0.64946 0.55669 0.0
C3331 C 0.77785 0.63656 0.55377 0.0
H3332 H 0.37186 0.51864 0.31403 0.0
H3333 H 0.43174 0.57526 0.2952 0.0
H3334 H 0.44106 0.54845 0.26418 0.0
H3335 H 0.41041 0.45961 0.29638 0.0
H3336 H 0.38095 0.44191 0.28878 0.0
H3337 H 0.37968 0.46487 0.30999 0.0
H3338 H 0.34147 0.49041 0.29241 0.0
H3339 H 0.34234 0.46786 0.271 0.0
H3340 H 0.34595 0.50297 0.26668 0.0
H3341 H 0.43881 0.5185 0.23282 0.0
H3342 H 0.42921 0.48488 0.20593 0.0
H3343 H 0.37529 0.44512 0.24775 0.0
C3344 C 0.38722 0.52518 0.30353 0.0
C3345 C 0.40054 0.54948 0.30659 0.0
C3346 C 0.42075 0.55718 0.29272 0.0
C3347 C 0.42634 0.54192 0.2752 0.0
C3348 C 0.41227 0.51843 0.27226 0.0
C3349 C 0.39368 0.50968 0.28639 0.0
C3350 C 0.38128 0.48375 0.27967 0.0
C3351 C 0.38851 0.46121 0.29459 0.0
C3352 C 0.35097 0.48643 0.2773 0.0
C3353 C 0.39478 0.48002 0.25909 0.0
C3354 C 0.4126 0.50018 0.25503 0.0
C3355 C 0.42544 0.50222 0.23605 0.0
C3356 C 0.41984 0.48319 0.22086 0.0
C3357 C 0.40185 0.46234 0.22492 0.0
C3358 C 0.38959 0.46057 0.24439 0.0
H3359 H 0.31604 0.62605 0.99397 0.0
H3360 H 0.27786 0.68268 0.95343 0.0
H3361 H 0.24201 0.68899 0.97935 0.0
H3362 H 0.2569 0.59449 1.01016 0.0
H3363 H 0.26872 0.58852 0.0359 0.0
H3364 H 0.29196 0.59055 1.01494 0.0
H3365 H 0.31746 0.62783 0.03369 0.0
H3366 H 0.29466 0.62552 0.05495 0.0
H3367 H 0.30006 0.65695 0.04239 0.0
H3368 H 0.21088 0.68921 1.01079 0.0
H3369 H 0.18516 0.67985 0.04243 0.0
H3370 H 0.24226 0.61961 0.05966 0.0
C3371 C 0.30031 0.64005 0.99057 0.0
C3372 C 0.29978 0.65418 0.97184 0.0
C3373 C 0.2786 0.67184 0.96779 0.0
C3374 C 0.25827 0.67554 0.98242 0.0
C3375 C 0.25937 0.6611 1.00075 0.0
C3376 C 0.27974 0.64345 1.00465 0.0
C3377 C 0.27575 0.62892 0.02473 0.0
C3378 C 0.27316 0.59885 0.02121 0.0
C3379 C 0.2983 0.63521 0.03987 0.0
C3380 C 0.24983 0.64102 0.03166 0.0
C3381 C 0.24086 0.6599 1.01788 0.0
C3382 C 0.21762 0.67423 0.0215 0.0
C3383 C 0.20306 0.66874 0.03945 0.0
C3384 C 0.21139 0.64865 0.0532 0.0
C3385 C 0.23523 0.63488 0.04929 0.0
H3386 H 0.16437 0.46798 0.79944 0.0
H3387 H 0.08008 0.45852 0.81077 0.0
H3388 H 0.07019 0.48579 0.77992 0.0
H3389 H 0.16297 0.53427 0.78201 0.0
H3390 H 0.18792 0.52954 0.76248 0.0
H3391 H 0.18808 0.50912 0.78517 0.0
H3392 H 0.1861 0.46668 0.76266 0.0
H3393 H 0.18621 0.48688 0.73982 0.0
H3394 H 0.15998 0.46315 0.74393 0.0
H3395 H 0.0702 0.51724 0.74923 0.0
H3396 H 0.07993 0.54694 0.71977 0.0
H3397 H 0.16413 0.53223 0.72764 0.0
C3398 C 0.14382 0.47173 0.79545 0.0
C3399 C 0.12292 0.4616 0.80751 0.0
C3400 C 0.0963 0.46636 0.80167 0.0
C3401 C 0.09055 0.48176 0.78423 0.0
C3402 C 0.1117 0.49167 0.77268 0.0
C3403 C 0.13779 0.48649 0.77793 0.0
C3404 C 0.15697 0.49898 0.76294 0.0
C3405 C 0.17506 0.51917 0.7738 0.0
C3406 C 0.17327 0.47765 0.75167 0.0
C3407 C 0.13768 0.51255 0.74861 0.0
C3408 C 0.11164 0.50829 0.7545 0.0
C3409 C 0.09048 0.52033 0.74428 0.0
C3410 C 0.09616 0.53715 0.72764 0.0
C3411 C 0.12271 0.54145 0.72135 0.0
C3412 C 0.14361 0.52881 0.73188 0.0
H3413 H 0.19831 0.39006 0.49645 0.0
H3414 H 0.22949 0.32505 0.46012 0.0
H3415 H 0.26328 0.31632 0.48721 0.0
H3416 H 0.26079 0.41471 0.51205 0.0
H3417 H 0.24944 0.42485 0.53714 0.0
H3418 H 0.22653 0.42385 0.51596 0.0
H3419 H 0.19574 0.39251 0.5365 0.0
H3420 H 0.21838 0.39366 0.55791 0.0
H3421 H 0.20881 0.36218 0.54706 0.0
H3422 H 0.2928 0.31455 0.51933 0.0
H3423 H 0.31977 0.32395 0.55033 0.0
H3424 H 0.27193 0.39365 0.56257 0.0
C3425 C 0.21209 0.37379 0.49426 0.0
C3426 C 0.21126 0.35796 0.47638 0.0
C3427 C 0.22989 0.33727 0.47381 0.0
C3428 C 0.24896 0.33214 0.48914 0.0
C3429 C 0.24923 0.34822 0.50665 0.0
C3430 C 0.23152 0.36891 0.50904 0.0
C3431 C 0.23712 0.38476 0.52828 0.0
C3432 C 0.24389 0.41375 0.52303 0.0
C3433 C 0.21363 0.38316 0.54335 0.0
C3434 C 0.26103 0.36998 0.53637 0.0
C3435 C 0.26735 0.34855 0.52402 0.0
C3436 C 0.2883 0.33157 0.52885 0.0
C3437 C 0.30363 0.33716 0.54637 0.0
C3438 C 0.29853 0.36005 0.55833 0.0
C3439 C 0.27657 0.37625 0.55349 0.0
H3440 H 0.12384 0.18077 0.10347 0.0
H3441 H 0.12262 0.09786 0.08575 0.0
H3442 H 0.12014 0.08491 0.1223 0.0
H3443 H 0.16391 0.1722 0.15017 0.0
H3444 H 0.14559 0.1971 0.16411 0.0
H3445 H 0.14904 0.19961 0.13661 0.0
H3446 H 0.09784 0.20186 0.13293 0.0
H3447 H 0.09423 0.1992 0.16038 0.0
H3448 H 0.07774 0.1758 0.14378 0.0
H3449 H 0.11521 0.0812 0.16087 0.0
H3450 H 0.10799 0.08705 0.19816 0.0
H3451 H 0.11379 0.1724 0.1906 0.0
C3452 C 0.12361 0.15987 0.10726 0.0
C3453 C 0.12351 0.14032 0.09169 0.0
C3454 C 0.12254 0.1132 0.09737 0.0
C3455 C 0.12127 0.10564 0.11811 0.0
C3456 C 0.12107 0.12545 0.13305 0.0
C3457 C 0.12232 0.15201 0.12788 0.0
C3458 C 0.12067 0.16944 0.1468 0.0
C3459 C 0.14633 0.18553 0.14958 0.0
C3460 C 0.09616 0.18764 0.14591 0.0
C3461 C 0.1178 0.14857 0.16338 0.0
C3462 C 0.11827 0.12331 0.15518 0.0
C3463 C 0.1151 0.10089 0.16748 0.0
C3464 C 0.11114 0.10442 0.18869 0.0
C3465 C 0.11029 0.13018 0.1974 0.0
C3466 C 0.114 0.15244 0.18447 0.0
H3467 H 0.08707 0.864 0.43981 0.0
H3468 H 0.17251 0.85886 0.44786 0.0
H3469 H 0.17873 0.86753 0.41084 0.0
H3470 H 0.08478 0.82939 0.39282 0.0
H3471 H 0.05853 0.84924 0.38195 0.0
H3472 H 0.06094 0.84539 0.40938 0.0
H3473 H 0.06237 0.89646 0.41369 0.0
H3474 H 0.06003 0.90047 0.38622 0.0
H3475 H 0.08716 0.91536 0.40009 0.0
H3476 H 0.17554 0.87327 0.37239 0.0
H3477 H 0.16311 0.87555 0.33572 0.0
H3478 H 0.0798 0.87562 0.35268 0.0
C3479 C 0.10713 0.86473 0.43385 0.0
C3480 C 0.12929 0.86073 0.44687 0.0
C3481 C 0.15519 0.86223 0.43836 0.0
C3482 C 0.15894 0.86704 0.4173 0.0
C3483 C 0.13662 0.87042 0.4049 0.0
C3484 C 0.11122 0.8694 0.41288 0.0
C3485 C 0.09054 0.8723 0.39612 0.0
C3486 C 0.07266 0.84761 0.39501 0.0
C3487 C 0.07405 0.89766 0.39922 0.0
C3488 C 0.10825 0.87449 0.37737 0.0
C3489 C 0.13477 0.87361 0.38277 0.0
C3490 C 0.15483 0.87417 0.36801 0.0
C3491 C 0.14758 0.87533 0.34721 0.0
C3492 C 0.1205 0.87584 0.34127 0.0
C3493 C 0.10067 0.87576 0.35667 0.0
H3494 H 0.40856 0.89323 0.68408 0.0
H3495 H 0.36789 0.82339 0.70725 0.0
H3496 H 0.35441 0.81192 0.67197 0.0
H3497 H 0.36238 0.90866 0.64254 0.0
H3498 H 0.38835 0.91836 0.62501 0.0
H3499 H 0.39282 0.92262 0.6523 0.0
H3500 H 0.43614 0.89494 0.65078 0.0
H3501 H 0.43188 0.89074 0.6235 0.0
H3502 H 0.43534 0.8621 0.63986 0.0
H3503 H 0.34751 0.80642 0.63404 0.0
H3504 H 0.34885 0.8066 0.59611 0.0
H3505 H 0.39567 0.87881 0.59733 0.0
C3506 C 0.39684 0.8755 0.68181 0.0
C3507 C 0.38921 0.85935 0.69864 0.0
C3508 C 0.37359 0.83647 0.69482 0.0
C3509 C 0.36592 0.82967 0.67476 0.0
C3510 C 0.374 0.84589 0.6586 0.0
C3511 C 0.38915 0.86831 0.66188 0.0
C3512 C 0.39643 0.88155 0.6417 0.0
C3513 C 0.38426 0.90945 0.64031 0.0
C3514 C 0.42674 0.88236 0.6388 0.0
C3515 C 0.38345 0.86276 0.62655 0.0
C3516 C 0.37037 0.84249 0.63665 0.0
C3517 C 0.35762 0.82223 0.62597 0.0
C3518 C 0.35862 0.82243 0.60442 0.0
C3519 C 0.37244 0.84265 0.59371 0.0
C3520 C 0.38462 0.86329 0.60502 0.0
H3521 H 0.43305 0.13763 0.84969 0.0
H3522 H 0.35473 0.10862 0.83341 0.0
H3523 H 0.34273 0.10687 0.87026 0.0
H3524 H 0.44137 0.09975 0.89627 0.0
H3525 H 0.45788 0.12637 0.9096 0.0
H3526 H 0.4606 0.12369 0.88207 0.0
H3527 H 0.44287 0.1717 0.87808 0.0
H3528 H 0.44019 0.17456 0.90558 0.0
H3529 H 0.41156 0.18056 0.88963 0.0
H3530 H 0.33904 0.1101 0.90934 0.0
H3531 H 0.34384 0.11843 0.94667 0.0
H3532 H 0.42394 0.14724 0.93635 0.0
C3533 C 0.41331 0.131 0.85378 0.0
C3534 C 0.39482 0.12333 0.83857 0.0
C3535 C 0.36936 0.11432 0.84474 0.0
C3536 C 0.36233 0.11337 0.86565 0.0
C3537 C 0.381 0.12143 0.8802 0.0
C3538 C 0.40596 0.13007 0.87447 0.0
C3539 C 0.42217 0.13856 0.89289 0.0
C3540 C 0.44697 0.12104 0.89535 0.0
C3541 C 0.42962 0.16809 0.89145 0.0
C3542 C 0.40238 0.1336 0.90993 0.0
C3543 C 0.37879 0.12357 0.9024 0.0
C3544 C 0.35745 0.11793 0.91537 0.0
C3545 C 0.36031 0.12287 0.93653 0.0
C3546 C 0.38428 0.13345 0.94448 0.0
C3547 C 0.40553 0.13869 0.93089 0.0
H3548 H 0.90541 0.90369 0.85704 0.0
H3549 H 0.87956 0.82768 0.8334 0.0
H3550 H 0.8672 0.81353 0.86852 0.0
H3551 H 0.93514 0.87967 0.902 0.0
H3552 H 0.92498 0.9066 0.91846 0.0
H3553 H 0.92901 0.91208 0.8913 0.0
H3554 H 0.88072 0.92951 0.88899 0.0
H3555 H 0.87657 0.92414 0.91621 0.0
H3556 H 0.85384 0.90915 0.89825 0.0
H3557 H 0.86182 0.80593 0.90591 0.0
H3558 H 0.86289 0.80537 0.94381 0.0
H3559 H 0.89166 0.88643 0.94416 0.0
C3560 C 0.89657 0.88435 0.85935 0.0
C3561 C 0.89307 0.86676 0.84267 0.0
C3562 C 0.88204 0.84139 0.84608 0.0
C3563 C 0.87498 0.83325 0.86592 0.0
C3564 C 0.87898 0.85079 0.88217 0.0
C3565 C 0.88932 0.8759 0.87917 0.0
C3566 C 0.89298 0.89014 0.89956 0.0
C3567 C 0.92227 0.89755 0.90303 0.0
C3568 C 0.87495 0.91469 0.90083 0.0
C3569 C 0.88395 0.86878 0.91446 0.0
C3570 C 0.87573 0.84638 0.90401 0.0
C3571 C 0.86789 0.82346 0.91428 0.0
C3572 C 0.8687 0.82327 0.93579 0.0
C3573 C 0.87732 0.84583 0.9469 0.0
C3574 C 0.88463 0.86904 0.93606 0.0
H3575 H 0.92017 0.16303 0.68707 0.0
H3576 H 0.86113 0.10235 0.69939 0.0
H3577 H 0.85143 0.09954 0.66218 0.0
H3578 H 0.88273 0.19676 0.64782 0.0
H3579 H 0.91182 0.20473 0.6329 0.0
H3580 H 0.91432 0.2012 0.66038 0.0
H3581 H 0.95115 0.16579 0.6556 0.0
H3582 H 0.94864 0.16907 0.62811 0.0
H3583 H 0.94463 0.13702 0.63995 0.0
H3584 H 0.84884 0.10332 0.62294 0.0
H3585 H 0.85261 0.11423 0.58602 0.0
H3586 H 0.91104 0.17467 0.60062 0.0
C3587 C 0.90491 0.14936 0.6821 0.0
C3588 C 0.89144 0.13293 0.6963 0.0
C3589 C 0.87204 0.11492 0.68887 0.0
C3590 C 0.86627 0.11329 0.66774 0.0
C3591 C 0.87995 0.12987 0.65423 0.0
C3592 C 0.89875 0.14767 0.6612 0.0
C3593 C 0.91048 0.16362 0.64373 0.0
C3594 C 0.90447 0.19333 0.64637 0.0
C3595 C 0.9405 0.15856 0.64174 0.0
C3596 C 0.89544 0.15201 0.62575 0.0
C3597 C 0.878 0.13248 0.63202 0.0
C3598 C 0.86231 0.11873 0.61793 0.0
C3599 C 0.86449 0.1252 0.59696 0.0
C3600 C 0.88216 0.14533 0.59023 0.0
C3601 C 0.89766 0.15886 0.60502 0.0
H3602 H 0.63877 0.18363 0.4326 0.0
H3603 H 0.63623 0.10223 0.45427 0.0
H3604 H 0.63339 0.08652 0.41846 0.0
H3605 H 0.59084 0.17598 0.39392 0.0
H3606 H 0.60678 0.19792 0.37586 0.0
H3607 H 0.61157 0.20264 0.40303 0.0
H3608 H 0.66257 0.19966 0.39809 0.0
H3609 H 0.65793 0.19503 0.37086 0.0
H3610 H 0.67667 0.17111 0.38546 0.0
H3611 H 0.62705 0.07988 0.38032 0.0
H3612 H 0.61783 0.08292 0.3431 0.0
H3613 H 0.6243 0.16865 0.34652 0.0
C3614 C 0.63775 0.16248 0.42987 0.0
C3615 C 0.63777 0.14421 0.44636 0.0
C3616 C 0.63667 0.11667 0.44197 0.0
C3617 C 0.63492 0.10753 0.42165 0.0
C3618 C 0.6344 0.12614 0.40582 0.0
C3619 C 0.63591 0.15303 0.40971 0.0
C3620 C 0.63358 0.169 0.39008 0.0
C3621 C 0.60925 0.18746 0.39077 0.0
C3622 C 0.65922 0.18462 0.38588 0.0
C3623 C 0.62986 0.14692 0.37461 0.0
C3624 C 0.63065 0.12232 0.38393 0.0
C3625 C 0.62671 0.09902 0.37282 0.0
C3626 C 0.62159 0.10095 0.35165 0.0
C3627 C 0.62033 0.12602 0.34184 0.0
C3628 C 0.62487 0.1492 0.35355 0.0
H3629 H 0.60933 0.83949 0.10024 0.0
H3630 H 0.66033 0.90602 0.08495 0.0
H3631 H 0.66362 0.91732 0.12187 0.0
H3632 H 0.57244 0.87318 0.13954 0.0
H3633 H 0.56923 0.84394 0.15527 0.0
H3634 H 0.57203 0.84081 0.12778 0.0
H3635 H 0.61253 0.80961 0.13239 0.0
H3636 H 0.60998 0.81279 0.15989 0.0
H3637 H 0.64072 0.82076 0.14711 0.0
H3638 H 0.66104 0.921 0.16118 0.0
H3639 H 0.65164 0.9176 0.19846 0.0
H3640 H 0.59979 0.85057 0.18663 0.0
C3641 C 0.62098 0.85666 0.1045 0.0
C3642 C 0.63454 0.87186 0.08954 0.0
C3643 C 0.65001 0.89381 0.09605 0.0
C3644 C 0.65189 0.90047 0.11701 0.0
C3645 C 0.6381 0.88507 0.13128 0.0
C3646 C 0.62284 0.86371 0.12521 0.0
C3647 C 0.60937 0.8506 0.14333 0.0
C3648 C 0.57897 0.85225 0.14136 0.0
C3649 C 0.61872 0.82174 0.14582 0.0
C3650 C 0.61943 0.86786 0.16064 0.0
C3651 C 0.63611 0.88756 0.1535 0.0
C3652 C 0.64787 0.90573 0.16688 0.0
C3653 C 0.64228 0.90374 0.18802 0.0
C3654 C 0.62495 0.88382 0.19558 0.0
C3655 C 0.61348 0.86576 0.18154 0.0
H3656 H 0.60038 0.63166 0.68446 0.0
H3657 H 0.65663 0.69049 0.70644 0.0
H3658 H 0.67205 0.69777 0.67103 0.0
H3659 H 0.64138 0.60481 0.64333 0.0
H3660 H 0.61393 0.60103 0.62581 0.0
H3661 H 0.60845 0.59876 0.65314 0.0
H3662 H 0.57298 0.6359 0.65094 0.0
H3663 H 0.5782 0.63813 0.62362 0.0
H3664 H 0.58161 0.66726 0.63945 0.0
H3665 H 0.68019 0.70037 0.63321 0.0
H3666 H 0.67904 0.69935 0.59527 0.0
H3667 H 0.61641 0.64033 0.59748 0.0
C3668 C 0.6159 0.64612 0.68187 0.0
C3669 C 0.62743 0.66024 0.69842 0.0
C3670 C 0.64784 0.67888 0.69422 0.0
C3671 C 0.65669 0.68329 0.67409 0.0
C3672 C 0.64494 0.66903 0.65821 0.0
C3673 C 0.62491 0.65091 0.66182 0.0
C3674 C 0.61477 0.63919 0.64184 0.0
C3675 C 0.61995 0.60917 0.64099 0.0
C3676 C 0.58514 0.64551 0.63879 0.0
C3677 C 0.63192 0.65392 0.62647 0.0
C3678 C 0.64937 0.67083 0.63627 0.0
C3679 C 0.66667 0.68715 0.62535 0.0
C3680 C 0.66579 0.68652 0.60381 0.0
C3681 C 0.64763 0.6698 0.5934 0.0
C3682 C 0.63081 0.65301 0.60497 0.0
H3683 H 0.57915 0.36371 0.85094 0.0
H3684 H 0.65733 0.39372 0.83497 0.0
H3685 H 0.66922 0.39489 0.8717 0.0
H3686 H 0.5704 0.40037 0.89772 0.0
H3687 H 0.55436 0.37336 0.91095 0.0
H3688 H 0.55155 0.37621 0.88343 0.0
H3689 H 0.57013 0.32857 0.87915 0.0
H3690 H 0.57283 0.32552 0.90664 0.0
H3691 H 0.60158 0.32013 0.89066 0.0
H3692 H 0.67277 0.39195 0.91061 0.0
H3693 H 0.66805 0.38378 0.94793 0.0
H3694 H 0.58865 0.35306 0.93765 0.0
C3695 C 0.5989 0.3703 0.85501 0.0
C3696 C 0.61726 0.37856 0.83984 0.0
C3697 C 0.64269 0.38757 0.84615 0.0
C3698 C 0.64971 0.38821 0.86704 0.0
C3699 C 0.63115 0.37971 0.8815 0.0
C3700 C 0.60631 0.37083 0.87572 0.0
C3701 C 0.59025 0.36191 0.89413 0.0
C3702 C 0.56516 0.37899 0.8967 0.0
C3703 C 0.5833 0.33228 0.89255 0.0
C3704 C 0.60996 0.36705 0.9112 0.0
C3705 C 0.63338 0.3775 0.90368 0.0
C3706 C 0.65454 0.38368 0.91664 0.0
C3707 C 0.65173 0.37882 0.93781 0.0
C3708 C 0.628 0.36771 0.94578 0.0
C3709 C 0.60689 0.36194 0.93218 0.0
H3710 H 0.92285 0.35856 0.09661 0.0
H3711 H 0.8376 0.36382 0.08735 0.0
H3712 H 0.83157 0.37273 0.12436 0.0
H3713 H 0.91953 0.32382 0.14451 0.0
H3714 H 0.94788 0.34054 0.15534 0.0
H3715 H 0.9455 0.33602 0.12795 0.0
H3716 H 0.95074 0.38668 0.12261 0.0
H3717 H 0.95304 0.39137 0.15001 0.0
H3718 H 0.92829 0.40909 0.13545 0.0
H3719 H 0.83484 0.38011 0.16281 0.0
H3720 H 0.8471 0.38484 0.19932 0.0
H3721 H 0.92989 0.37214 0.18349 0.0
C3722 C 0.90284 0.36137 0.1023 0.0
C3723 C 0.88072 0.36049 0.0889 0.0
C3724 C 0.85497 0.3648 0.09712 0.0
C3725 C 0.8513 0.36972 0.11819 0.0
C3726 C 0.87355 0.37022 0.13092 0.0
C3727 C 0.89881 0.36611 0.12328 0.0
C3728 C 0.91937 0.36697 0.14026 0.0
C3729 C 0.93392 0.34025 0.14212 0.0
C3730 C 0.93901 0.38989 0.13687 0.0
C3731 C 0.90172 0.37206 0.1587 0.0
C3732 C 0.87538 0.37402 0.153 0.0
C3733 C 0.85543 0.37855 0.16743 0.0
C3734 C 0.86259 0.38106 0.1882 0.0
C3735 C 0.88948 0.37893 0.19447 0.0
C3736 C 0.90919 0.37437 0.17935 0.0
H3737 H 0.9126 0.62247 0.34988 0.0
H3738 H 0.86238 0.68675 0.32832 0.0
H3739 H 0.84823 0.69551 0.36394 0.0
H3740 H 0.86989 0.60007 0.39185 0.0
H3741 H 0.89746 0.59354 0.40877 0.0
H3742 H 0.90161 0.59046 0.38135 0.0
H3743 H 0.94092 0.62358 0.38252 0.0
H3744 H 0.93697 0.62665 0.40991 0.0
H3745 H 0.93607 0.65582 0.39391 0.0
H3746 H 0.84195 0.69945 0.40214 0.0
H3747 H 0.84476 0.69872 0.44005 0.0
H3748 H 0.9005 0.63319 0.43669 0.0
C3749 C 0.8986 0.63838 0.35258 0.0
C3750 C 0.88855 0.65381 0.33616 0.0
C3751 C 0.87003 0.67427 0.34049 0.0
C3752 C 0.86193 0.6795 0.36072 0.0
C3753 C 0.8725 0.66413 0.37651 0.0
C3754 C 0.89044 0.64399 0.37268 0.0
C3755 C 0.90005 0.63143 0.39247 0.0
C3756 C 0.89175 0.60214 0.39368 0.0
C3757 C 0.93029 0.63457 0.39484 0.0
C3758 C 0.88514 0.64804 0.40806 0.0
C3759 C 0.86914 0.6666 0.39854 0.0
C3760 C 0.85429 0.68489 0.40976 0.0
C3761 C 0.85613 0.68443 0.43128 0.0
C3762 C 0.87282 0.6659 0.44135 0.0
C3763 C 0.88718 0.64727 0.4295 0.0
H3764 H 0.38213 0.39333 0.34829 0.0
H3765 H 0.4679 0.39775 0.34211 0.0
H3766 H 0.47242 0.39629 0.37975 0.0
H3767 H 0.37684 0.43111 0.39711 0.0
H3768 H 0.35092 0.4099 0.40682 0.0
H3769 H 0.35406 0.41541 0.37954 0.0
H3770 H 0.35698 0.36469 0.37358 0.0
H3771 H 0.35397 0.35903 0.40078 0.0
H3772 H 0.38198 0.34574 0.38692 0.0
H3773 H 0.46816 0.38965 0.41777 0.0
H3774 H 0.45531 0.37756 0.45318 0.0
H3775 H 0.37252 0.37598 0.4348 0.0
C3776 C 0.40187 0.39431 0.35481 0.0
C3777 C 0.42462 0.3959 0.34208 0.0
C3778 C 0.45006 0.39719 0.35139 0.0
C3779 C 0.45288 0.39622 0.37283 0.0
C3780 C 0.4301 0.394 0.38484 0.0
C3781 C 0.40506 0.39317 0.37619 0.0
C3782 C 0.38396 0.38862 0.39244 0.0
C3783 C 0.36535 0.4127 0.39407 0.0
C3784 C 0.36832 0.36299 0.38817 0.0
C3785 C 0.40115 0.38599 0.41145 0.0
C3786 C 0.42766 0.38966 0.40679 0.0
C3787 C 0.44742 0.38711 0.42166 0.0
C3788 C 0.43993 0.38032 0.44175 0.0
C3789 C 0.41292 0.37587 0.44678 0.0
C3790 C 0.39333 0.37914 0.43141 0.0
H3791 H 0.43113 0.64106 0.18271 0.0
H3792 H 0.34759 0.63711 0.19866 0.0
H3793 H 0.33582 0.63847 0.1618 0.0
H3794 H 0.42429 0.68685 0.14229 0.0
H3795 H 0.44946 0.67214 0.12622 0.0
H3796 H 0.45137 0.6687 0.15371 0.0
H3797 H 0.45301 0.61755 0.14999 0.0
H3798 H 0.45126 0.62084 0.12244 0.0
H3799 H 0.42723 0.60078 0.13585 0.0
H3800 H 0.3332 0.6424 0.12322 0.0
H3801 H 0.33985 0.64962 0.08602 0.0
H3802 H 0.42518 0.65082 0.09538 0.0
C3803 C 0.41038 0.63993 0.17843 0.0
C3804 C 0.39026 0.63878 0.19355 0.0
C3805 C 0.3633 0.63804 0.18733 0.0
C3806 C 0.35644 0.63869 0.16644 0.0
C3807 C 0.37678 0.64012 0.15195 0.0
C3808 C 0.4032 0.64071 0.15767 0.0
C3809 C 0.42118 0.64365 0.13915 0.0
C3810 C 0.43753 0.66936 0.14043 0.0
C3811 C 0.43923 0.61925 0.13672 0.0
C3812 C 0.40075 0.64502 0.12213 0.0
C3813 C 0.37526 0.6427 0.12979 0.0
C3814 C 0.35308 0.64402 0.11703 0.0
C3815 C 0.35707 0.64802 0.09591 0.0
C3816 C 0.38304 0.6508 0.08776 0.0
C3817 C 0.40508 0.64903 0.10113 0.0
H3818 H 0.08033 0.63194 0.85074 0.0
H3819 H 0.15982 0.65244 0.83037 0.0
H3820 H 0.17323 0.65974 0.86632 0.0
H3821 H 0.07645 0.67987 0.89105 0.0
H3822 H 0.05826 0.65853 0.90824 0.0
H3823 H 0.05507 0.65441 0.88085 0.0
H3824 H 0.06894 0.60511 0.88427 0.0
H3825 H 0.07221 0.60909 0.91167 0.0
H3826 H 0.09981 0.59687 0.89676 0.0
H3827 H 0.17803 0.66491 0.9047 0.0
H3828 H 0.17341 0.66861 0.94241 0.0
H3829 H 0.09071 0.64522 0.93762 0.0
C3830 C 0.10069 0.6376 0.85377 0.0
C3831 C 0.11909 0.64123 0.83756 0.0
C3832 C 0.1453 0.64942 0.84237 0.0
C3833 C 0.15317 0.65356 0.86281 0.0
C3834 C 0.13457 0.64959 0.87835 0.0
C3835 C 0.10884 0.64189 0.87408 0.0
C3836 C 0.09253 0.63956 0.89358 0.0
C3837 C 0.0692 0.65927 0.89341 0.0
C3838 C 0.08281 0.61095 0.89675 0.0
C3839 C 0.11311 0.64715 0.90949 0.0
C3840 C 0.13725 0.65282 0.9004 0.0
C3841 C 0.1592 0.66056 0.91197 0.0
C3842 C 0.15635 0.66274 0.93337 0.0
C3843 C 0.13171 0.65724 0.94301 0.0
C3844 C 0.10991 0.64921 0.9308 0.0
H3845 H 0.07746 0.37498 0.68637 0.0
H3846 H 0.16041 0.38208 0.70337 0.0
H3847 H 0.17313 0.38028 0.6667 0.0
H3848 H 0.08677 0.3288 0.64626 0.0
H3849 H 0.06148 0.34258 0.62982 0.0
H3850 H 0.05886 0.34614 0.65728 0.0
H3851 H 0.0556 0.39718 0.65329 0.0
H3852 H 0.05811 0.39377 0.62578 0.0
H3853 H 0.08115 0.41469 0.63941 0.0
H3854 H 0.17677 0.3759 0.6281 0.0
H3855 H 0.17115 0.36819 0.59084 0.0
H3856 H 0.0857 0.36459 0.59922 0.0
C3857 C 0.09826 0.37662 0.68236 0.0
C3858 C 0.11796 0.37875 0.69773 0.0
C3859 C 0.14502 0.38026 0.69186 0.0
C3860 C 0.15241 0.37941 0.67107 0.0
C3861 C 0.13249 0.37706 0.65632 0.0
C3862 C 0.10597 0.3757 0.66171 0.0
C3863 C 0.08852 0.37207 0.64297 0.0
C3864 C 0.073 0.34584 0.64416 0.0
C3865 C 0.06974 0.39585 0.6402 0.0
C3866 C 0.10938 0.37124 0.62622 0.0
C3867 C 0.1346 0.37436 0.63418 0.0
C3868 C 0.15708 0.37365 0.62168 0.0
C3869 C 0.15368 0.36938 0.60051 0.0
C3870 C 0.12799 0.36575 0.59207 0.0
C3871 C 0.10562 0.367 0.60518 0.0
loop_
_geom_bond_atom_site_label_1
_geom_bond_atom_site_label_2
_geom_bond_distance
_geom_bond_site_symmetry_2
_ccdc_geom_bond_type
Nd0 C2 2.836 . S
Nd0 O20 2.500 . S
Nd0 O21 2.492 . S
Nd0 O22 2.487 . S
Nd0 O23 2.682 . S
Nd0 O24 2.410 . S
Nd0 O29 2.414 . S
Nd0 O31 2.424 . S
Nd1 C11 2.836 . S
Nd1 O23 2.414 . S
Nd1 O25 2.424 . S
Nd1 O26 2.500 . S
Nd1 O27 2.492 . S
Nd1 O28 2.487 . S
Nd1 O29 2.682 . S
Nd1 O30 2.410 . S
C2 Nd0 2.836 . S
C2 C3 1.498 . S
C2 O20 1.258 . S
C2 O21 1.239 . S
C3 C2 1.498 . S
C3 C4 1.366 . S
C3 C8 1.407 . S
C4 C3 1.366 . S
C4 C5 1.392 . S
C4 H32 0.930 . S
C5 C4 1.392 . S
C5 C6 1.398 . S
C5 H33 0.929 . S
C6 C5 1.398 . S
C6 C7 1.352 . S
C7 C6 1.352 . S
C7 C8 1.384 . S
C7 H34 0.930 . S
C8 C3 1.407 . S
C8 C7 1.384 . S
C8 H35 0.929 . S
C9 O22 1.241 . S
C9 O23 1.273 . S
C10 O24 1.251 . S
C10 O25 1.268 . S
C11 Nd1 2.836 . S
C11 C12 1.498 . S
C11 O26 1.258 . S
C11 O27 1.239 . S
C12 C11 1.498 . S
C12 C13 1.366 . S
C12 C17 1.407 . S
C13 C12 1.366 . S
C13 C14 1.392 . S
C13 H36 0.930 . S
C14 C13 1.392 . S
C14 C15 1.398 . S
C14 H37 0.929 . S
C15 C14 1.398 . S
C15 C16 1.352 . S
C16 C15 1.352 . S
C16 C17 1.384 . S
C16 H38 0.930 1_545 S
C17 C12 1.407 . S
C17 C16 1.384 . S
C17 H39 0.929 . S
C18 O28 1.241 . S
C18 O29 1.273 . S
C19 O30 1.251 . S
C19 O31 1.268 . S
O20 Nd0 2.500 . S
O20 C2 1.258 . S
O21 Nd0 2.492 . S
O21 C2 1.239 . S
O22 Nd0 2.487 . S
O22 C9 1.241 . S
O23 Nd0 2.682 . S
O23 Nd1 2.414 . S
O23 C9 1.273 . S
O24 Nd0 2.410 . S
O24 C10 1.251 . S
O25 Nd1 2.424 . S
O25 C10 1.268 . S
O26 Nd1 2.500 . S
O26 C11 1.258 . S
O27 Nd1 2.492 . S
O27 C11 1.239 . S
O28 Nd1 2.487 . S
O28 C18 1.241 . S
O29 Nd0 2.414 . S
O29 Nd1 2.682 . S
O29 C18 1.273 . S
O30 Nd1 2.410 . S
O30 C19 1.251 . S
O31 Nd0 2.424 . S
O31 C19 1.268 . S
H32 C4 0.930 . S
H33 C5 0.929 . S
H34 C7 0.930 . S
H35 C8 0.929 . S
H36 C13 0.930 . S
H37 C14 0.929 . S
H38 C16 0.930 1_565 S
H39 C17 0.929 . S
Nd40 C42 2.836 . S
Nd40 O60 2.500 . S
Nd40 O61 2.492 . S
Nd40 O62 2.487 . S
Nd40 O63 2.682 . S
Nd40 O64 2.410 . S
Nd40 O69 2.414 . S
Nd40 O71 2.424 . S
Nd41 C51 2.836 . S
Nd41 O63 2.414 . S
Nd41 O65 2.424 . S
Nd41 O66 2.500 . S
Nd41 O67 2.492 . S
Nd41 O68 2.487 . S
Nd41 O69 2.682 . S
Nd41 O70 2.410 . S
C42 Nd40 2.836 . S
C42 C43 1.498 . S
C42 O60 1.258 . S
C42 O61 1.239 . S
C43 C42 1.498 . S
C43 C44 1.366 . S
C43 C48 1.407 . S
C44 C43 1.366 . S
C44 C45 1.392 . S
C44 H72 0.930 . S
C45 C44 1.392 . S
C45 C46 1.398 . S
C45 H73 0.929 . S
C46 C45 1.398 . S
C46 C47 1.352 . S
C47 C46 1.352 . S
C47 C48 1.384 . S
C47 H74 0.930 . S
C48 C43 1.407 . S
C48 C47 1.384 . S
C48 H75 0.929 . S
C49 O62 1.241 . S
C49 O63 1.273 . S
C50 O64 1.251 . S
C50 O65 1.268 . S
C51 Nd41 2.836 . S
C51 C52 1.498 . S
C51 O66 1.258 . S
C51 O67 1.239 . S
C52 C51 1.498 . S
C52 C53 1.366 . S
C52 C57 1.407 . S
C53 C52 1.366 . S
C53 C54 1.392 . S
C53 H76 0.930 . S
C54 C53 1.392 . S
C54 C55 1.398 . S
C54 H77 0.929 . S
C55 C54 1.398 . S
C55 C56 1.352 . S
C56 C55 1.352 . S
C56 C57 1.384 . S
C56 H78 0.930 . S
C57 C52 1.407 . S
C57 C56 1.384 . S
C57 H79 0.929 . S
C58 O68 1.241 . S
C58 O69 1.273 . S
C59 O70 1.251 . S
C59 O71 1.268 . S
O60 Nd40 2.500 . S
O60 C42 1.258 . S
O61 Nd40 2.492 . S
O61 C42 1.239 . S
O62 Nd40 2.487 . S
O62 C49 1.241 . S
O63 Nd40 2.682 . S
O63 Nd41 2.414 . S
O63 C49 1.273 . S
O64 Nd40 2.410 . S
O64 C50 1.251 . S
O65 Nd41 2.424 . S
O65 C50 1.268 . S
O66 Nd41 2.500 . S
O66 C51 1.258 . S
O67 Nd41 2.492 . S
O67 C51 1.239 . S
O68 Nd41 2.487 . S
O68 C58 1.241 . S
O69 Nd40 2.414 . S
O69 Nd41 2.682 . S
O69 C58 1.273 . S
O70 Nd41 2.410 . S
O70 C59 1.251 . S
O71 Nd40 2.424 . S
O71 C59 1.268 . S
H72 C44 0.930 . S
H73 C45 0.929 . S
H74 C47 0.930 . S
H75 C48 0.929 . S
H76 C53 0.930 . S
H77 C54 0.929 . S
H78 C56 0.930 . S
H79 C57 0.929 . S
Nd80 C82 2.836 . S
Nd80 O100 2.500 . S
Nd80 O101 2.492 . S
Nd80 O102 2.487 . S
Nd80 O103 2.682 . S
Nd80 O104 2.410 . S
Nd80 O109 2.414 . S
Nd80 O111 2.424 . S
Nd81 C91 2.836 . S
Nd81 O103 2.414 . S
Nd81 O105 2.424 . S
Nd81 O106 2.500 . S
Nd81 O107 2.492 . S
Nd81 O108 2.487 . S
Nd81 O109 2.682 . S
Nd81 O110 2.410 . S
C82 Nd80 2.836 . S
C82 C83 1.498 . S
C82 O100 1.258 . S
C82 O101 1.239 . S
C83 C82 1.498 . S
C83 C84 1.366 . S
C83 C88 1.407 . S
C84 C83 1.366 . S
C84 C85 1.392 . S
C84 H112 0.930 . S
C85 C84 1.392 . S
C85 C86 1.398 . S
C85 H113 0.929 . S
C86 C85 1.398 . S
C86 C87 1.352 . S
C87 C86 1.352 . S
C87 C88 1.384 . S
C87 H114 0.930 . S
C88 C83 1.407 . S
C88 C87 1.384 . S
C88 H115 0.929 . S
C89 O102 1.241 . S
C89 O103 1.273 . S
C90 O104 1.251 . S
C90 O105 1.268 . S
C91 Nd81 2.836 . S
C91 C92 1.498 . S
C91 O106 1.258 . S
C91 O107 1.239 . S
C92 C91 1.498 . S
C92 C93 1.366 . S
C92 C97 1.407 . S
C93 C92 1.366 . S
C93 C94 1.392 . S
C93 H116 0.930 . S
C94 C93 1.392 . S
C94 C95 1.398 . S
C94 H117 0.929 . S
C95 C94 1.398 . S
C95 C96 1.352 . S
C96 C95 1.352 . S
C96 C97 1.384 . S
C96 H118 0.930 1_565 S
C97 C92 1.407 . S
C97 C96 1.384 . S
C97 H119 0.929 . S
C98 O108 1.241 . S
C98 O109 1.273 . S
C99 O110 1.251 . S
C99 O111 1.268 . S
O100 Nd80 2.500 . S
O100 C82 1.258 . S
O101 Nd80 2.492 . S
O101 C82 1.239 . S
O102 Nd80 2.487 . S
O102 C89 1.241 . S
O103 Nd80 2.682 . S
O103 Nd81 2.414 . S
O103 C89 1.273 . S
O104 Nd80 2.410 . S
O104 C90 1.251 . S
O105 Nd81 2.424 . S
O105 C90 1.268 . S
O106 Nd81 2.500 . S
O106 C91 1.258 . S
O107 Nd81 2.492 . S
O107 C91 1.239 . S
O108 Nd81 2.487 . S
O108 C98 1.241 . S
O109 Nd80 2.414 . S
O109 Nd81 2.682 . S
O109 C98 1.273 . S
O110 Nd81 2.410 . S
O110 C99 1.251 . S
O111 Nd80 2.424 . S
O111 C99 1.268 . S
H112 C84 0.930 . S
H113 C85 0.929 . S
H114 C87 0.930 . S
H115 C88 0.929 . S
H116 C93 0.930 . S
H117 C94 0.929 . S
H118 C96 0.930 1_545 S
H119 C97 0.929 . S
Nd120 C122 2.836 . S
Nd120 O140 2.500 . S
Nd120 O141 2.492 . S
Nd120 O142 2.487 . S
Nd120 O143 2.682 . S
Nd120 O144 2.410 . S
Nd120 O149 2.414 . S
Nd120 O151 2.424 . S
Nd121 C131 2.836 . S
Nd121 O143 2.414 . S
Nd121 O145 2.424 . S
Nd121 O146 2.500 . S
Nd121 O147 2.492 . S
Nd121 O148 2.487 . S
Nd121 O149 2.682 . S
Nd121 O150 2.410 . S
C122 Nd120 2.836 . S
C122 C123 1.498 1_554 S
C122 O140 1.258 . S
C122 O141 1.239 . S
C123 C122 1.498 1_556 S
C123 C124 1.366 . S
C123 C128 1.407 . S
C124 C123 1.366 . S
C124 C125 1.392 . S
C124 H152 0.930 . S
C125 C124 1.392 . S
C125 C126 1.398 . S
C125 H153 0.929 . S
C126 C125 1.398 . S
C126 C127 1.352 . S
C127 C126 1.352 . S
C127 C128 1.384 . S
C127 H154 0.930 . S
C128 C123 1.407 . S
C128 C127 1.384 . S
C128 H155 0.929 . S
C129 O142 1.241 . S
C129 O143 1.273 . S
C130 O144 1.251 . S
C130 O145 1.268 . S
C131 Nd121 2.836 . S
C131 C132 1.498 . S
C131 O146 1.258 . S
C131 O147 1.239 . S
C132 C131 1.498 . S
C132 C133 1.366 . S
C132 C137 1.407 . S
C133 C132 1.366 . S
C133 C134 1.392 . S
C133 H156 0.930 . S
C134 C133 1.392 . S
C134 C135 1.398 . S
C134 H157 0.929 . S
C135 C134 1.398 . S
C135 C136 1.352 . S
C136 C135 1.352 . S
C136 C137 1.384 . S
C136 H158 0.930 . S
C137 C132 1.407 . S
C137 C136 1.384 . S
C137 H159 0.929 . S
C138 O148 1.241 . S
C138 O149 1.273 . S
C139 O150 1.251 . S
C139 O151 1.268 . S
O140 Nd120 2.500 . S
O140 C122 1.258 . S
O141 Nd120 2.492 . S
O141 C122 1.239 . S
O142 Nd120 2.487 . S
O142 C129 1.241 . S
O143 Nd120 2.682 . S
O143 Nd121 2.414 . S
O143 C129 1.273 . S
O144 Nd120 2.410 . S
O144 C130 1.251 . S
O145 Nd121 2.424 . S
O145 C130 1.268 . S
O146 Nd121 2.500 . S
O146 C131 1.258 . S
O147 Nd121 2.492 . S
O147 C131 1.239 . S
O148 Nd121 2.487 . S
O148 C138 1.241 . S
O149 Nd120 2.414 . S
O149 Nd121 2.682 . S
O149 C138 1.273 . S
O150 Nd121 2.410 . S
O150 C139 1.251 . S
O151 Nd120 2.424 . S
O151 C139 1.268 . S
H152 C124 0.930 . S
H153 C125 0.929 . S
H154 C127 0.930 . S
H155 C128 0.929 . S
H156 C133 0.930 . S
H157 C134 0.929 . S
H158 C136 0.930 . S
H159 C137 0.929 . S
Nd160 C162 2.836 . S
Nd160 O180 2.500 . S
Nd160 O181 2.492 . S
Nd160 O182 2.487 . S
Nd160 O183 2.682 . S
Nd160 O184 2.410 . S
Nd160 O189 2.414 . S
Nd160 O191 2.424 . S
Nd161 C171 2.836 . S
Nd161 O183 2.414 . S
Nd161 O185 2.424 . S
Nd161 O186 2.500 . S
Nd161 O187 2.492 . S
Nd161 O188 2.487 . S
Nd161 O189 2.682 . S
Nd161 O190 2.410 . S
C162 Nd160 2.836 . S
C162 C163 1.498 . S
C162 O180 1.258 . S
C162 O181 1.239 . S
C163 C162 1.498 . S
C163 C164 1.366 . S
C163 C168 1.407 . S
C164 C163 1.366 . S
C164 C165 1.392 . S
C164 H192 0.930 . S
C165 C164 1.392 . S
C165 C166 1.398 . S
C165 H193 0.929 . S
C166 C165 1.398 . S
C166 C167 1.352 . S
C167 C166 1.352 . S
C167 C168 1.384 . S
C167 H194 0.930 . S
C168 C163 1.407 . S
C168 C167 1.384 . S
C168 H195 0.929 . S
C169 O182 1.241 . S
C169 O183 1.273 . S
C170 O184 1.251 . S
C170 O185 1.268 . S
C171 Nd161 2.836 . S
C171 C172 1.498 . S
C171 O186 1.258 . S
C171 O187 1.239 . S
C172 C171 1.498 . S
C172 C173 1.366 . S
C172 C177 1.407 . S
C173 C172 1.366 . S
C173 C174 1.392 . S
C173 H196 0.930 . S
C174 C173 1.392 . S
C174 C175 1.398 . S
C174 H197 0.929 . S
C175 C174 1.398 . S
C175 C176 1.352 . S
C176 C175 1.352 . S
C176 C177 1.384 . S
C176 H198 0.930 1_565 S
C177 C172 1.407 . S
C177 C176 1.384 . S
C177 H199 0.929 . S
C178 O188 1.241 . S
C178 O189 1.273 . S
C179 O190 1.251 . S
C179 O191 1.268 . S
O180 Nd160 2.500 . S
O180 C162 1.258 . S
O181 Nd160 2.492 . S
O181 C162 1.239 . S
O182 Nd160 2.487 . S
O182 C169 1.241 . S
O183 Nd160 2.682 . S
O183 Nd161 2.414 . S
O183 C169 1.273 . S
O184 Nd160 2.410 . S
O184 C170 1.251 . S
O185 Nd161 2.424 . S
O185 C170 1.268 . S
O186 Nd161 2.500 . S
O186 C171 1.258 . S
O187 Nd161 2.492 . S
O187 C171 1.239 . S
O188 Nd161 2.487 . S
O188 C178 1.241 . S
O189 Nd160 2.414 . S
O189 Nd161 2.682 . S
O189 C178 1.273 . S
O190 Nd161 2.410 . S
O190 C179 1.251 . S
O191 Nd160 2.424 . S
O191 C179 1.268 . S
H192 C164 0.930 . S
H193 C165 0.929 . S
H194 C167 0.930 . S
H195 C168 0.929 . S
H196 C173 0.930 . S
H197 C174 0.929 . S
H198 C176 0.930 1_545 S
H199 C177 0.929 . S
Nd200 C202 2.836 . S
Nd200 O220 2.500 . S
Nd200 O221 2.492 . S
Nd200 O222 2.487 . S
Nd200 O223 2.682 . S
Nd200 O224 2.410 . S
Nd200 O229 2.414 . S
Nd200 O231 2.424 . S
Nd201 C211 2.836 . S
Nd201 O223 2.414 . S
Nd201 O225 2.424 . S
Nd201 O226 2.500 . S
Nd201 O227 2.492 . S
Nd201 O228 2.487 . S
Nd201 O229 2.682 . S
Nd201 O230 2.410 . S
C202 Nd200 2.836 . S
C202 C203 1.498 . S
C202 O220 1.258 . S
C202 O221 1.239 . S
C203 C202 1.498 . S
C203 C204 1.366 . S
C203 C208 1.407 . S
C204 C203 1.366 . S
C204 C205 1.392 . S
C204 H232 0.930 . S
C205 C204 1.392 . S
C205 C206 1.398 . S
C205 H233 0.929 . S
C206 C205 1.398 . S
C206 C207 1.352 . S
C207 C206 1.352 . S
C207 C208 1.384 . S
C207 H234 0.930 . S
C208 C203 1.407 . S
C208 C207 1.384 . S
C208 H235 0.929 . S
C209 O222 1.241 . S
C209 O223 1.273 . S
C210 O224 1.251 . S
C210 O225 1.268 . S
C211 Nd201 2.836 . S
C211 C212 1.498 . S
C211 O226 1.258 . S
C211 O227 1.239 . S
C212 C211 1.498 . S
C212 C213 1.366 . S
C212 C217 1.407 . S
C213 C212 1.366 . S
C213 C214 1.392 . S
C213 H236 0.930 . S
C214 C213 1.392 . S
C214 C215 1.398 . S
C214 H237 0.929 . S
C215 C214 1.398 . S
C215 C216 1.352 . S
C216 C215 1.352 . S
C216 C217 1.384 . S
C216 H238 0.930 . S
C217 C212 1.407 . S
C217 C216 1.384 . S
C217 H239 0.929 . S
C218 O228 1.241 . S
C218 O229 1.273 . S
C219 O230 1.251 . S
C219 O231 1.268 . S
O220 Nd200 2.500 . S
O220 C202 1.258 . S
O221 Nd200 2.492 . S
O221 C202 1.239 . S
O222 Nd200 2.487 . S
O222 C209 1.241 . S
O223 Nd200 2.682 . S
O223 Nd201 2.414 . S
O223 C209 1.273 . S
O224 Nd200 2.410 . S
O224 C210 1.251 . S
O225 Nd201 2.424 . S
O225 C210 1.268 . S
O226 Nd201 2.500 . S
O226 C211 1.258 . S
O227 Nd201 2.492 . S
O227 C211 1.239 . S
O228 Nd201 2.487 . S
O228 C218 1.241 . S
O229 Nd200 2.414 . S
O229 Nd201 2.682 . S
O229 C218 1.273 . S
O230 Nd201 2.410 . S
O230 C219 1.251 . S
O231 Nd200 2.424 . S
O231 C219 1.268 . S
H232 C204 0.930 . S
H233 C205 0.929 . S
H234 C207 0.930 . S
H235 C208 0.929 . S
H236 C213 0.930 . S
H237 C214 0.929 . S
H238 C216 0.930 . S
H239 C217 0.929 . S
Nd240 C242 2.836 . S
Nd240 O260 2.500 . S
Nd240 O261 2.492 . S
Nd240 O262 2.487 . S
Nd240 O263 2.682 . S
Nd240 O264 2.410 . S
Nd240 O269 2.414 . S
Nd240 O271 2.424 . S
Nd241 C251 2.836 . S
Nd241 O263 2.414 . S
Nd241 O265 2.424 . S
Nd241 O266 2.500 . S
Nd241 O267 2.492 . S
Nd241 O268 2.487 . S
Nd241 O269 2.682 . S
Nd241 O270 2.410 . S
C242 Nd240 2.836 . S
C242 C243 1.498 . S
C242 O260 1.258 . S
C242 O261 1.239 . S
C243 C242 1.498 . S
C243 C244 1.366 . S
C243 C248 1.407 . S
C244 C243 1.366 . S
C244 C245 1.392 . S
C244 H272 0.930 . S
C245 C244 1.392 . S
C245 C246 1.398 . S
C245 H273 0.929 . S
C246 C245 1.398 . S
C246 C247 1.352 . S
C247 C246 1.352 . S
C247 C248 1.384 . S
C247 H274 0.930 . S
C248 C243 1.407 . S
C248 C247 1.384 . S
C248 H275 0.929 . S
C249 O262 1.241 . S
C249 O263 1.273 . S
C250 O264 1.251 . S
C250 O265 1.268 . S
C251 Nd241 2.836 . S
C251 C252 1.498 . S
C251 O266 1.258 . S
C251 O267 1.239 . S
C252 C251 1.498 . S
C252 C253 1.366 . S
C252 C257 1.407 . S
C253 C252 1.366 . S
C253 C254 1.392 . S
C253 H276 0.930 . S
C254 C253 1.392 . S
C254 C255 1.398 . S
C254 H277 0.929 . S
C255 C254 1.398 . S
C255 C256 1.352 . S
C256 C255 1.352 . S
C256 C257 1.384 . S
C256 H278 0.930 1_545 S
C257 C252 1.407 . S
C257 C256 1.384 . S
C257 H279 0.929 . S
C258 O268 1.241 . S
C258 O269 1.273 . S
C259 O270 1.251 . S
C259 O271 1.268 . S
O260 Nd240 2.500 . S
O260 C242 1.258 . S
O261 Nd240 2.492 . S
O261 C242 1.239 . S
O262 Nd240 2.487 . S
O262 C249 1.241 . S
O263 Nd240 2.682 . S
O263 Nd241 2.414 . S
O263 C249 1.273 . S
O264 Nd240 2.410 . S
O264 C250 1.251 . S
O265 Nd241 2.424 . S
O265 C250 1.268 . S
O266 Nd241 2.500 . S
O266 C251 1.258 . S
O267 Nd241 2.492 . S
O267 C251 1.239 . S
O268 Nd241 2.487 . S
O268 C258 1.241 . S
O269 Nd240 2.414 . S
O269 Nd241 2.682 . S
O269 C258 1.273 . S
O270 Nd241 2.410 . S
O270 C259 1.251 . S
O271 Nd240 2.424 . S
O271 C259 1.268 . S
H272 C244 0.930 . S
H273 C245 0.929 . S
H274 C247 0.930 . S
H275 C248 0.929 . S
H276 C253 0.930 . S
H277 C254 0.929 . S
H278 C256 0.930 1_565 S
H279 C257 0.929 . S
Nd280 C282 2.836 . S
Nd280 O300 2.500 . S
Nd280 O301 2.492 . S
Nd280 O302 2.487 . S
Nd280 O303 2.682 . S
Nd280 O304 2.410 . S
Nd280 O309 2.414 . S
Nd280 O311 2.424 . S
Nd281 C291 2.836 . S
Nd281 O303 2.414 . S
Nd281 O305 2.424 . S
Nd281 O306 2.500 . S
Nd281 O307 2.492 . S
Nd281 O308 2.487 . S
Nd281 O309 2.682 . S
Nd281 O310 2.410 . S
C282 Nd280 2.836 . S
C282 C283 1.498 1_556 S
C282 O300 1.258 . S
C282 O301 1.239 . S
C283 C282 1.498 1_554 S
C283 C284 1.366 . S
C283 C288 1.407 . S
C284 C283 1.366 . S
C284 C285 1.392 . S
C284 H312 0.930 . S
C285 C284 1.392 . S
C285 C286 1.398 . S
C285 H313 0.929 . S
C286 C285 1.398 . S
C286 C287 1.352 . S
C287 C286 1.352 . S
C287 C288 1.384 . S
C287 H314 0.930 . S
C288 C283 1.407 . S
C288 C287 1.384 . S
C288 H315 0.929 . S
C289 O302 1.241 . S
C289 O303 1.273 . S
C290 O304 1.251 . S
C290 O305 1.268 . S
C291 Nd281 2.836 . S
C291 C292 1.498 . S
C291 O306 1.258 . S
C291 O307 1.239 . S
C292 C291 1.498 . S
C292 C293 1.366 . S
C292 C297 1.407 . S
C293 C292 1.366 . S
C293 C294 1.392 . S
C293 H316 0.930 . S
C294 C293 1.392 . S
C294 C295 1.398 . S
C294 H317 0.929 . S
C295 C294 1.398 . S
C295 C296 1.352 . S
C296 C295 1.352 . S
C296 C297 1.384 . S
C296 H318 0.930 . S
C297 C292 1.407 . S
C297 C296 1.384 . S
C297 H319 0.929 . S
C298 O308 1.241 . S
C298 O309 1.273 . S
C299 O310 1.251 . S
C299 O311 1.268 . S
O300 Nd280 2.500 . S
O300 C282 1.258 . S
O301 Nd280 2.492 . S
O301 C282 1.239 . S
O302 Nd280 2.487 . S
O302 C289 1.241 . S
O303 Nd280 2.682 . S
O303 Nd281 2.414 . S
O303 C289 1.273 . S
O304 Nd280 2.410 . S
O304 C290 1.251 . S
O305 Nd281 2.424 . S
O305 C290 1.268 . S
O306 Nd281 2.500 . S
O306 C291 1.258 . S
O307 Nd281 2.492 . S
O307 C291 1.239 . S
O308 Nd281 2.487 . S
O308 C298 1.241 . S
O309 Nd280 2.414 . S
O309 Nd281 2.682 . S
O309 C298 1.273 . S
O310 Nd281 2.410 . S
O310 C299 1.251 . S
O311 Nd280 2.424 . S
O311 C299 1.268 . S
H312 C284 0.930 . S
H313 C285 0.929 . S
H314 C287 0.930 . S
H315 C288 0.929 . S
H316 C293 0.930 . S
H317 C294 0.929 . S
H318 C296 0.930 . S
H319 C297 0.929 . S
Nd320 C322 2.836 . S
Nd320 O340 2.500 . S
Nd320 O341 2.492 . S
Nd320 O342 2.487 . S
Nd320 O343 2.682 . S
Nd320 O344 2.410 . S
Nd320 O349 2.414 . S
Nd320 O351 2.424 . S
Nd321 C331 2.836 . S
Nd321 O343 2.414 . S
Nd321 O345 2.424 . S
Nd321 O346 2.500 . S
Nd321 O347 2.492 . S
Nd321 O348 2.487 . S
Nd321 O349 2.682 . S
Nd321 O350 2.410 . S
C322 Nd320 2.836 . S
C322 C323 1.498 . S
C322 O340 1.258 . S
C322 O341 1.239 . S
C323 C322 1.498 . S
C323 C324 1.366 . S
C323 C328 1.407 . S
C324 C323 1.366 . S
C324 C325 1.392 . S
C324 H352 0.930 . S
C325 C324 1.392 . S
C325 C326 1.398 . S
C325 H353 0.929 . S
C326 C325 1.398 . S
C326 C327 1.352 . S
C327 C326 1.352 . S
C327 C328 1.384 . S
C327 H354 0.930 1_565 S
C328 C323 1.407 . S
C328 C327 1.384 . S
C328 H355 0.929 . S
C329 O342 1.241 . S
C329 O343 1.273 . S
C330 O344 1.251 . S
C330 O345 1.268 . S
C331 Nd321 2.836 . S
C331 C332 1.498 . S
C331 O346 1.258 . S
C331 O347 1.239 . S
C332 C331 1.498 . S
C332 C333 1.366 . S
C332 C337 1.407 . S
C333 C332 1.366 . S
C333 C334 1.392 . S
C333 H356 0.930 . S
C334 C333 1.392 . S
C334 C335 1.398 . S
C334 H357 0.929 . S
C335 C334 1.398 . S
C335 C336 1.352 . S
C336 C335 1.352 . S
C336 C337 1.384 . S
C336 H358 0.930 . S
C337 C332 1.407 . S
C337 C336 1.384 . S
C337 H359 0.929 . S
C338 O348 1.241 . S
C338 O349 1.273 . S
C339 O350 1.251 . S
C339 O351 1.268 . S
O340 Nd320 2.500 . S
O340 C322 1.258 . S
O341 Nd320 2.492 . S
O341 C322 1.239 . S
O342 Nd320 2.487 . S
O342 C329 1.241 . S
O343 Nd320 2.682 . S
O343 Nd321 2.414 . S
O343 C329 1.273 . S
O344 Nd320 2.410 . S
O344 C330 1.251 . S
O345 Nd321 2.424 . S
O345 C330 1.268 . S
O346 Nd321 2.500 . S
O346 C331 1.258 . S
O347 Nd321 2.492 . S
O347 C331 1.239 . S
O348 Nd321 2.487 . S
O348 C338 1.241 . S
O349 Nd320 2.414 . S
O349 Nd321 2.682 . S
O349 C338 1.273 . S
O350 Nd321 2.410 . S
O350 C339 1.251 . S
O351 Nd320 2.424 . S
O351 C339 1.268 . S
H352 C324 0.930 . S
H353 C325 0.929 . S
H354 C327 0.930 1_545 S
H355 C328 0.929 . S
H356 C333 0.930 . S
H357 C334 0.929 . S
H358 C336 0.930 . S
H359 C337 0.929 . S
Nd360 C362 2.836 . S
Nd360 O380 2.500 . S
Nd360 O381 2.492 . S
Nd360 O382 2.487 . S
Nd360 O383 2.682 . S
Nd360 O384 2.410 . S
Nd360 O389 2.414 . S
Nd360 O391 2.424 . S
Nd361 C371 2.836 . S
Nd361 O383 2.414 . S
Nd361 O385 2.424 . S
Nd361 O386 2.500 . S
Nd361 O387 2.492 . S
Nd361 O388 2.487 . S
Nd361 O389 2.682 . S
Nd361 O390 2.410 . S
C362 Nd360 2.836 . S
C362 C363 1.498 . S
C362 O380 1.258 . S
C362 O381 1.239 . S
C363 C362 1.498 . S
C363 C364 1.366 . S
C363 C368 1.407 . S
C364 C363 1.366 . S
C364 C365 1.392 . S
C364 H392 0.930 . S
C365 C364 1.392 . S
C365 C366 1.398 . S
C365 H393 0.929 . S
C366 C365 1.398 . S
C366 C367 1.352 . S
C367 C366 1.352 . S
C367 C368 1.384 . S
C367 H394 0.930 . S
C368 C363 1.407 . S
C368 C367 1.384 . S
C368 H395 0.929 . S
C369 O382 1.241 . S
C369 O383 1.273 . S
C370 O384 1.251 . S
C370 O385 1.268 . S
C371 Nd361 2.836 . S
C371 C372 1.498 . S
C371 O386 1.258 . S
C371 O387 1.239 . S
C372 C371 1.498 . S
C372 C373 1.366 . S
C372 C377 1.407 . S
C373 C372 1.366 . S
C373 C374 1.392 . S
C373 H396 0.930 . S
C374 C373 1.392 . S
C374 C375 1.398 . S
C374 H397 0.929 . S
C375 C374 1.398 . S
C375 C376 1.352 . S
C376 C375 1.352 . S
C376 C377 1.384 . S
C376 H398 0.930 . S
C377 C372 1.407 . S
C377 C376 1.384 . S
C377 H399 0.929 . S
C378 O388 1.241 . S
C378 O389 1.273 . S
C379 O390 1.251 . S
C379 O391 1.268 . S
O380 Nd360 2.500 . S
O380 C362 1.258 . S
O381 Nd360 2.492 . S
O381 C362 1.239 . S
O382 Nd360 2.487 . S
O382 C369 1.241 . S
O383 Nd360 2.682 . S
O383 Nd361 2.414 . S
O383 C369 1.273 . S
O384 Nd360 2.410 . S
O384 C370 1.251 . S
O385 Nd361 2.424 . S
O385 C370 1.268 . S
O386 Nd361 2.500 . S
O386 C371 1.258 . S
O387 Nd361 2.492 . S
O387 C371 1.239 . S
O388 Nd361 2.487 . S
O388 C378 1.241 . S
O389 Nd360 2.414 . S
O389 Nd361 2.682 . S
O389 C378 1.273 . S
O390 Nd361 2.410 . S
O390 C379 1.251 . S
O391 Nd360 2.424 . S
O391 C379 1.268 . S
H392 C364 0.930 . S
H393 C365 0.929 . S
H394 C367 0.930 . S
H395 C368 0.929 . S
H396 C373 0.930 . S
H397 C374 0.929 . S
H398 C376 0.930 . S
H399 C377 0.929 . S
Nd400 C402 2.836 . S
Nd400 O420 2.500 . S
Nd400 O421 2.492 . S
Nd400 O422 2.487 . S
Nd400 O423 2.682 . S
Nd400 O424 2.410 . S
Nd400 O429 2.414 . S
Nd400 O431 2.424 . S
Nd401 C411 2.836 . S
Nd401 O423 2.414 . S
Nd401 O425 2.424 . S
Nd401 O426 2.500 . S
Nd401 O427 2.492 . S
Nd401 O428 2.487 . S
Nd401 O429 2.682 . S
Nd401 O430 2.410 . S
C402 Nd400 2.836 . S
C402 C403 1.498 . S
C402 O420 1.258 . S
C402 O421 1.239 . S
C403 C402 1.498 . S
C403 C404 1.366 . S
C403 C408 1.407 . S
C404 C403 1.366 . S
C404 C405 1.392 . S
C404 H432 0.930 . S
C405 C404 1.392 . S
C405 C406 1.398 . S
C405 H433 0.929 . S
C406 C405 1.398 . S
C406 C407 1.352 . S
C407 C406 1.352 . S
C407 C408 1.384 . S
C407 H434 0.930 1_545 S
C408 C403 1.407 . S
C408 C407 1.384 . S
C408 H435 0.929 . S
C409 O422 1.241 . S
C409 O423 1.273 . S
C410 O424 1.251 . S
C410 O425 1.268 . S
C411 Nd401 2.836 . S
C411 C412 1.498 . S
C411 O426 1.258 . S
C411 O427 1.239 . S
C412 C411 1.498 . S
C412 C413 1.366 . S
C412 C417 1.407 . S
C413 C412 1.366 . S
C413 C414 1.392 . S
C413 H436 0.930 . S
C414 C413 1.392 . S
C414 C415 1.398 . S
C414 H437 0.929 . S
C415 C414 1.398 . S
C415 C416 1.352 . S
C416 C415 1.352 . S
C416 C417 1.384 . S
C416 H438 0.930 . S
C417 C412 1.407 . S
C417 C416 1.384 . S
C417 H439 0.929 . S
C418 O428 1.241 . S
C418 O429 1.273 . S
C419 O430 1.251 . S
C419 O431 1.268 . S
O420 Nd400 2.500 . S
O420 C402 1.258 . S
O421 Nd400 2.492 . S
O421 C402 1.239 . S
O422 Nd400 2.487 . S
O422 C409 1.241 . S
O423 Nd400 2.682 . S
O423 Nd401 2.414 . S
O423 C409 1.273 . S
O424 Nd400 2.410 . S
O424 C410 1.251 . S
O425 Nd401 2.424 . S
O425 C410 1.268 . S
O426 Nd401 2.500 . S
O426 C411 1.258 . S
O427 Nd401 2.492 . S
O427 C411 1.239 . S
O428 Nd401 2.487 . S
O428 C418 1.241 . S
O429 Nd400 2.414 . S
O429 Nd401 2.682 . S
O429 C418 1.273 . S
O430 Nd401 2.410 . S
O430 C419 1.251 . S
O431 Nd400 2.424 . S
O431 C419 1.268 . S
H432 C404 0.930 . S
H433 C405 0.929 . S
H434 C407 0.930 1_565 S
H435 C408 0.929 . S
H436 C413 0.930 . S
H437 C414 0.929 . S
H438 C416 0.930 . S
H439 C417 0.929 . S
Nd440 C442 2.836 . S
Nd440 O460 2.500 . S
Nd440 O461 2.492 . S
Nd440 O462 2.487 . S
Nd440 O463 2.682 . S
Nd440 O464 2.410 . S
Nd440 O469 2.414 . S
Nd440 O471 2.424 . S
Nd441 C451 2.836 . S
Nd441 O463 2.414 . S
Nd441 O465 2.424 . S
Nd441 O466 2.500 . S
Nd441 O467 2.492 . S
Nd441 O468 2.487 . S
Nd441 O469 2.682 . S
Nd441 O470 2.410 . S
C442 Nd440 2.836 . S
C442 C443 1.498 . S
C442 O460 1.258 . S
C442 O461 1.239 . S
C443 C442 1.498 . S
C443 C444 1.366 . S
C443 C448 1.407 . S
C444 C443 1.366 . S
C444 C445 1.392 . S
C444 H472 0.930 . S
C445 C444 1.392 . S
C445 C446 1.398 . S
C445 H473 0.929 . S
C446 C445 1.398 . S
C446 C447 1.352 . S
C447 C446 1.352 . S
C447 C448 1.384 . S
C447 H474 0.930 . S
C448 C443 1.407 . S
C448 C447 1.384 . S
C448 H475 0.929 . S
C449 O462 1.241 . S
C449 O463 1.273 . S
C450 O464 1.251 . S
C450 O465 1.268 . S
C451 Nd441 2.836 . S
C451 C452 1.498 1_556 S
C451 O466 1.258 . S
C451 O467 1.239 . S
C452 C451 1.498 1_554 S
C452 C453 1.366 . S
C452 C457 1.407 . S
C453 C452 1.366 . S
C453 C454 1.392 . S
C453 H476 0.930 . S
C454 C453 1.392 . S
C454 C455 1.398 . S
C454 H477 0.929 . S
C455 C454 1.398 . S
C455 C456 1.352 . S
C456 C455 1.352 . S
C456 C457 1.384 . S
C456 H478 0.930 . S
C457 C452 1.407 . S
C457 C456 1.384 . S
C457 H479 0.929 . S
C458 O468 1.241 . S
C458 O469 1.273 . S
C459 O470 1.251 . S
C459 O471 1.268 . S
O460 Nd440 2.500 . S
O460 C442 1.258 . S
O461 Nd440 2.492 . S
O461 C442 1.239 . S
O462 Nd440 2.487 . S
O462 C449 1.241 . S
O463 Nd440 2.682 . S
O463 Nd441 2.414 . S
O463 C449 1.273 . S
O464 Nd440 2.410 . S
O464 C450 1.251 . S
O465 Nd441 2.424 . S
O465 C450 1.268 . S
O466 Nd441 2.500 . S
O466 C451 1.258 . S
O467 Nd441 2.492 . S
O467 C451 1.239 . S
O468 Nd441 2.487 . S
O468 C458 1.241 . S
O469 Nd440 2.414 . S
O469 Nd441 2.682 . S
O469 C458 1.273 . S
O470 Nd441 2.410 . S
O470 C459 1.251 . S
O471 Nd440 2.424 . S
O471 C459 1.268 . S
H472 C444 0.930 . S
H473 C445 0.929 . S
H474 C447 0.930 . S
H475 C448 0.929 . S
H476 C453 0.930 . S
H477 C454 0.929 . S
H478 C456 0.930 . S
H479 C457 0.929 . S
Nd480 C482 2.836 . S
Nd480 O500 2.500 . S
Nd480 O501 2.492 . S
Nd480 O502 2.487 . S
Nd480 O503 2.682 . S
Nd480 O504 2.410 . S
Nd480 O509 2.414 . S
Nd480 O511 2.424 . S
Nd481 C491 2.836 . S
Nd481 O503 2.414 . S
Nd481 O505 2.424 . S
Nd481 O506 2.500 . S
Nd481 O507 2.492 . S
Nd481 O508 2.487 . S
Nd481 O509 2.682 . S
Nd481 O510 2.410 . S
C482 Nd480 2.836 . S
C482 C483 1.498 . S
C482 O500 1.258 . S
C482 O501 1.239 . S
C483 C482 1.498 . S
C483 C484 1.366 . S
C483 C488 1.407 . S
C484 C483 1.366 . S
C484 C485 1.392 . S
C484 H512 0.930 . S
C485 C484 1.392 . S
C485 C486 1.398 . S
C485 H513 0.929 . S
C486 C485 1.398 . S
C486 C487 1.352 . S
C487 C486 1.352 . S
C487 C488 1.384 . S
C487 H514 0.930 1_545 S
C488 C483 1.407 . S
C488 C487 1.384 . S
C488 H515 0.929 . S
C489 O502 1.241 . S
C489 O503 1.273 . S
C490 O504 1.251 . S
C490 O505 1.268 . S
C491 Nd481 2.836 . S
C491 C492 1.498 . S
C491 O506 1.258 . S
C491 O507 1.239 . S
C492 C491 1.498 . S
C492 C493 1.366 . S
C492 C497 1.407 . S
C493 C492 1.366 . S
C493 C494 1.392 . S
C493 H516 0.930 . S
C494 C493 1.392 . S
C494 C495 1.398 . S
C494 H517 0.929 . S
C495 C494 1.398 . S
C495 C496 1.352 . S
C496 C495 1.352 . S
C496 C497 1.384 . S
C496 H518 0.930 . S
C497 C492 1.407 . S
C497 C496 1.384 . S
C497 H519 0.929 . S
C498 O508 1.241 . S
C498 O509 1.273 . S
C499 O510 1.251 . S
C499 O511 1.268 . S
O500 Nd480 2.500 . S
O500 C482 1.258 . S
O501 Nd480 2.492 . S
O501 C482 1.239 . S
O502 Nd480 2.487 . S
O502 C489 1.241 . S
O503 Nd480 2.682 . S
O503 Nd481 2.414 . S
O503 C489 1.273 . S
O504 Nd480 2.410 . S
O504 C490 1.251 . S
O505 Nd481 2.424 . S
O505 C490 1.268 . S
O506 Nd481 2.500 . S
O506 C491 1.258 . S
O507 Nd481 2.492 . S
O507 C491 1.239 . S
O508 Nd481 2.487 . S
O508 C498 1.241 . S
O509 Nd480 2.414 . S
O509 Nd481 2.682 . S
O509 C498 1.273 . S
O510 Nd481 2.410 . S
O510 C499 1.251 . S
O511 Nd480 2.424 . S
O511 C499 1.268 . S
H512 C484 0.930 . S
H513 C485 0.929 . S
H514 C487 0.930 1_565 S
H515 C488 0.929 . S
H516 C493 0.930 . S
H517 C494 0.929 . S
H518 C496 0.930 . S
H519 C497 0.929 . S
Nd520 C522 2.836 . S
Nd520 O540 2.500 . S
Nd520 O541 2.492 . S
Nd520 O542 2.487 . S
Nd520 O543 2.682 . S
Nd520 O544 2.410 . S
Nd520 O549 2.414 . S
Nd520 O551 2.424 . S
Nd521 C531 2.836 . S
Nd521 O543 2.414 . S
Nd521 O545 2.424 . S
Nd521 O546 2.500 . S
Nd521 O547 2.492 . S
Nd521 O548 2.487 . S
Nd521 O549 2.682 . S
Nd521 O550 2.410 . S
C522 Nd520 2.836 . S
C522 C523 1.498 . S
C522 O540 1.258 . S
C522 O541 1.239 . S
C523 C522 1.498 . S
C523 C524 1.366 . S
C523 C528 1.407 . S
C524 C523 1.366 . S
C524 C525 1.392 . S
C524 H552 0.930 . S
C525 C524 1.392 . S
C525 C526 1.398 . S
C525 H553 0.929 . S
C526 C525 1.398 . S
C526 C527 1.352 . S
C527 C526 1.352 . S
C527 C528 1.384 . S
C527 H554 0.930 . S
C528 C523 1.407 . S
C528 C527 1.384 . S
C528 H555 0.929 . S
C529 O542 1.241 . S
C529 O543 1.273 . S
C530 O544 1.251 . S
C530 O545 1.268 . S
C531 Nd521 2.836 . S
C531 C532 1.498 . S
C531 O546 1.258 . S
C531 O547 1.239 . S
C532 C531 1.498 . S
C532 C533 1.366 . S
C532 C537 1.407 . S
C533 C532 1.366 . S
C533 C534 1.392 . S
C533 H556 0.930 . S
C534 C533 1.392 . S
C534 C535 1.398 . S
C534 H557 0.929 . S
C535 C534 1.398 . S
C535 C536 1.352 . S
C536 C535 1.352 . S
C536 C537 1.384 . S
C536 H558 0.930 . S
C537 C532 1.407 . S
C537 C536 1.384 . S
C537 H559 0.929 . S
C538 O548 1.241 . S
C538 O549 1.273 . S
C539 O550 1.251 . S
C539 O551 1.268 . S
O540 Nd520 2.500 . S
O540 C522 1.258 . S
O541 Nd520 2.492 . S
O541 C522 1.239 . S
O542 Nd520 2.487 . S
O542 C529 1.241 . S
O543 Nd520 2.682 . S
O543 Nd521 2.414 . S
O543 C529 1.273 . S
O544 Nd520 2.410 . S
O544 C530 1.251 . S
O545 Nd521 2.424 . S
O545 C530 1.268 . S
O546 Nd521 2.500 . S
O546 C531 1.258 . S
O547 Nd521 2.492 . S
O547 C531 1.239 . S
O548 Nd521 2.487 . S
O548 C538 1.241 . S
O549 Nd520 2.414 . S
O549 Nd521 2.682 . S
O549 C538 1.273 . S
O550 Nd521 2.410 . S
O550 C539 1.251 . S
O551 Nd520 2.424 . S
O551 C539 1.268 . S
H552 C524 0.930 . S
H553 C525 0.929 . S
H554 C527 0.930 . S
H555 C528 0.929 . S
H556 C533 0.930 . S
H557 C534 0.929 . S
H558 C536 0.930 . S
H559 C537 0.929 . S
Nd560 C562 2.836 . S
Nd560 O580 2.500 . S
Nd560 O581 2.492 . S
Nd560 O582 2.487 . S
Nd560 O583 2.682 . S
Nd560 O584 2.410 . S
Nd560 O589 2.414 . S
Nd560 O591 2.424 . S
Nd561 C571 2.836 . S
Nd561 O583 2.414 . S
Nd561 O585 2.424 . S
Nd561 O586 2.500 . S
Nd561 O587 2.492 . S
Nd561 O588 2.487 . S
Nd561 O589 2.682 . S
Nd561 O590 2.410 . S
C562 Nd560 2.836 . S
C562 C563 1.498 . S
C562 O580 1.258 . S
C562 O581 1.239 . S
C563 C562 1.498 . S
C563 C564 1.366 . S
C563 C568 1.407 . S
C564 C563 1.366 . S
C564 C565 1.392 . S
C564 H592 0.930 . S
C565 C564 1.392 . S
C565 C566 1.398 . S
C565 H593 0.929 . S
C566 C565 1.398 . S
C566 C567 1.352 . S
C567 C566 1.352 . S
C567 C568 1.384 . S
C567 H594 0.930 1_565 S
C568 C563 1.407 . S
C568 C567 1.384 . S
C568 H595 0.929 . S
C569 O582 1.241 . S
C569 O583 1.273 . S
C570 O584 1.251 . S
C570 O585 1.268 . S
C571 Nd561 2.836 . S
C571 C572 1.498 . S
C571 O586 1.258 . S
C571 O587 1.239 . S
C572 C571 1.498 . S
C572 C573 1.366 . S
C572 C577 1.407 . S
C573 C572 1.366 . S
C573 C574 1.392 . S
C573 H596 0.930 . S
C574 C573 1.392 . S
C574 C575 1.398 . S
C574 H597 0.929 . S
C575 C574 1.398 . S
C575 C576 1.352 . S
C576 C575 1.352 . S
C576 C577 1.384 . S
C576 H598 0.930 . S
C577 C572 1.407 . S
C577 C576 1.384 . S
C577 H599 0.929 . S
C578 O588 1.241 . S
C578 O589 1.273 . S
C579 O590 1.251 . S
C579 O591 1.268 . S
O580 Nd560 2.500 . S
O580 C562 1.258 . S
O581 Nd560 2.492 . S
O581 C562 1.239 . S
O582 Nd560 2.487 . S
O582 C569 1.241 . S
O583 Nd560 2.682 . S
O583 Nd561 2.414 . S
O583 C569 1.273 . S
O584 Nd560 2.410 . S
O584 C570 1.251 . S
O585 Nd561 2.424 . S
O585 C570 1.268 . S
O586 Nd561 2.500 . S
O586 C571 1.258 . S
O587 Nd561 2.492 . S
O587 C571 1.239 . S
O588 Nd561 2.487 . S
O588 C578 1.241 . S
O589 Nd560 2.414 . S
O589 Nd561 2.682 . S
O589 C578 1.273 . S
O590 Nd561 2.410 . S
O590 C579 1.251 . S
O591 Nd560 2.424 . S
O591 C579 1.268 . S
H592 C564 0.930 . S
H593 C565 0.929 . S
H594 C567 0.930 1_545 S
H595 C568 0.929 . S
H596 C573 0.930 . S
H597 C574 0.929 . S
H598 C576 0.930 . S
H599 C577 0.929 . S
Nd600 C602 2.836 . S
Nd600 O620 2.500 . S
Nd600 O621 2.492 . S
Nd600 O622 2.487 . S
Nd600 O623 2.682 . S
Nd600 O624 2.410 . S
Nd600 O629 2.414 . S
Nd600 O631 2.424 . S
Nd601 C611 2.836 . S
Nd601 O623 2.414 . S
Nd601 O625 2.424 . S
Nd601 O626 2.500 . S
Nd601 O627 2.492 . S
Nd601 O628 2.487 . S
Nd601 O629 2.682 . S
Nd601 O630 2.410 . S
C602 Nd600 2.836 . S
C602 C603 1.498 . S
C602 O620 1.258 . S
C602 O621 1.239 . S
C603 C602 1.498 . S
C603 C604 1.366 . S
C603 C608 1.407 . S
C604 C603 1.366 . S
C604 C605 1.392 . S
C604 H632 0.930 . S
C605 C604 1.392 . S
C605 C606 1.398 . S
C605 H633 0.929 . S
C606 C605 1.398 . S
C606 C607 1.352 . S
C607 C606 1.352 . S
C607 C608 1.384 . S
C607 H634 0.930 . S
C608 C603 1.407 . S
C608 C607 1.384 . S
C608 H635 0.929 . S
C609 O622 1.241 . S
C609 O623 1.273 . S
C610 O624 1.251 . S
C610 O625 1.268 . S
C611 Nd601 2.836 . S
C611 C612 1.498 1_554 S
C611 O626 1.258 . S
C611 O627 1.239 . S
C612 C611 1.498 1_556 S
C612 C613 1.366 . S
C612 C617 1.407 . S
C613 C612 1.366 . S
C613 C614 1.392 . S
C613 H636 0.930 . S
C614 C613 1.392 . S
C614 C615 1.398 . S
C614 H637 0.929 . S
C615 C614 1.398 . S
C615 C616 1.352 . S
C616 C615 1.352 . S
C616 C617 1.384 . S
C616 H638 0.930 . S
C617 C612 1.407 . S
C617 C616 1.384 . S
C617 H639 0.929 . S
C618 O628 1.241 . S
C618 O629 1.273 . S
C619 O630 1.251 . S
C619 O631 1.268 . S
O620 Nd600 2.500 . S
O620 C602 1.258 . S
O621 Nd600 2.492 . S
O621 C602 1.239 . S
O622 Nd600 2.487 . S
O622 C609 1.241 . S
O623 Nd600 2.682 . S
O623 Nd601 2.414 . S
O623 C609 1.273 . S
O624 Nd600 2.410 . S
O624 C610 1.251 . S
O625 Nd601 2.424 . S
O625 C610 1.268 . S
O626 Nd601 2.500 . S
O626 C611 1.258 . S
O627 Nd601 2.492 . S
O627 C611 1.239 . S
O628 Nd601 2.487 . S
O628 C618 1.241 . S
O629 Nd600 2.414 . S
O629 Nd601 2.682 . S
O629 C618 1.273 . S
O630 Nd601 2.410 . S
O630 C619 1.251 . S
O631 Nd600 2.424 . S
O631 C619 1.268 . S
H632 C604 0.930 . S
H633 C605 0.929 . S
H634 C607 0.930 . S
H635 C608 0.929 . S
H636 C613 0.930 . S
H637 C614 0.929 . S
H638 C616 0.930 . S
H639 C617 0.929 . S
Nd640 C642 2.836 . S
Nd640 O660 2.500 . S
Nd640 O661 2.492 . S
Nd640 O662 2.487 . S
Nd640 O663 2.682 . S
Nd640 O664 2.410 . S
Nd640 O669 2.414 . S
Nd640 O671 2.424 . S
Nd641 C651 2.836 . S
Nd641 O663 2.414 . S
Nd641 O665 2.424 . S
Nd641 O666 2.500 . S
Nd641 O667 2.492 . S
Nd641 O668 2.487 . S
Nd641 O669 2.682 . S
Nd641 O670 2.410 . S
C642 Nd640 2.836 . S
C642 C643 1.498 . S
C642 O660 1.258 . S
C642 O661 1.239 . S
C643 C642 1.498 . S
C643 C644 1.366 . S
C643 C648 1.407 . S
C644 C643 1.366 . S
C644 C645 1.392 . S
C644 H672 0.930 . S
C645 C644 1.392 . S
C645 C646 1.398 . S
C645 H673 0.929 . S
C646 C645 1.398 . S
C646 C647 1.352 . S
C647 C646 1.352 . S
C647 C648 1.384 . S
C647 H674 0.930 . S
C648 C643 1.407 . S
C648 C647 1.384 . S
C648 H675 0.929 . S
C649 O662 1.241 . S
C649 O663 1.273 . S
C650 O664 1.251 . S
C650 O665 1.268 . S
C651 Nd641 2.836 . S
C651 C652 1.498 . S
C651 O666 1.258 . S
C651 O667 1.239 . S
C652 C651 1.498 . S
C652 C653 1.366 . S
C652 C657 1.407 . S
C653 C652 1.366 . S
C653 C654 1.392 . S
C653 H676 0.930 . S
C654 C653 1.392 . S
C654 C655 1.398 . S
C654 H677 0.929 . S
C655 C654 1.398 . S
C655 C656 1.352 . S
C656 C655 1.352 . S
C656 C657 1.384 . S
C656 H678 0.930 . S
C657 C652 1.407 . S
C657 C656 1.384 . S
C657 H679 0.929 . S
C658 O668 1.241 . S
C658 O669 1.273 . S
C659 O670 1.251 . S
C659 O671 1.268 . S
O660 Nd640 2.500 . S
O660 C642 1.258 . S
O661 Nd640 2.492 . S
O661 C642 1.239 . S
O662 Nd640 2.487 . S
O662 C649 1.241 . S
O663 Nd640 2.682 . S
O663 Nd641 2.414 . S
O663 C649 1.273 . S
O664 Nd640 2.410 . S
O664 C650 1.251 . S
O665 Nd641 2.424 . S
O665 C650 1.268 . S
O666 Nd641 2.500 . S
O666 C651 1.258 . S
O667 Nd641 2.492 . S
O667 C651 1.239 . S
O668 Nd641 2.487 . S
O668 C658 1.241 . S
O669 Nd640 2.414 . S
O669 Nd641 2.682 . S
O669 C658 1.273 . S
O670 Nd641 2.410 . S
O670 C659 1.251 . S
O671 Nd640 2.424 . S
O671 C659 1.268 . S
H672 C644 0.930 . S
H673 C645 0.929 . S
H674 C647 0.930 . S
H675 C648 0.929 . S
H676 C653 0.930 . S
H677 C654 0.929 . S
H678 C656 0.930 . S
H679 C657 0.929 . S
Nd680 C682 2.836 . S
Nd680 O700 2.500 . S
Nd680 O701 2.492 . S
Nd680 O702 2.487 . S
Nd680 O703 2.682 . S
Nd680 O704 2.410 . S
Nd680 O709 2.414 . S
Nd680 O711 2.424 . S
Nd681 C691 2.836 . S
Nd681 O703 2.414 . S
Nd681 O705 2.424 . S
Nd681 O706 2.500 . S
Nd681 O707 2.492 . S
Nd681 O708 2.487 . S
Nd681 O709 2.682 . S
Nd681 O710 2.410 . S
C682 Nd680 2.836 . S
C682 C683 1.498 1_554 S
C682 O700 1.258 . S
C682 O701 1.239 . S
C683 C682 1.498 1_556 S
C683 C684 1.366 . S
C683 C688 1.407 . S
C684 C683 1.366 . S
C684 C685 1.392 . S
C684 H712 0.930 . S
C685 C684 1.392 . S
C685 C686 1.398 . S
C685 H713 0.929 . S
C686 C685 1.398 . S
C686 C687 1.352 . S
C687 C686 1.352 . S
C687 C688 1.384 . S
C687 H714 0.930 . S
C688 C683 1.407 . S
C688 C687 1.384 . S
C688 H715 0.929 . S
C689 O702 1.241 . S
C689 O703 1.273 . S
C690 O704 1.251 . S
C690 O705 1.268 . S
C691 Nd681 2.836 . S
C691 C692 1.498 . S
C691 O706 1.258 . S
C691 O707 1.239 . S
C692 C691 1.498 . S
C692 C693 1.366 . S
C692 C697 1.407 . S
C693 C692 1.366 . S
C693 C694 1.392 . S
C693 H716 0.930 . S
C694 C693 1.392 . S
C694 C695 1.398 . S
C694 H717 0.929 . S
C695 C694 1.398 . S
C695 C696 1.352 . S
C696 C695 1.352 . S
C696 C697 1.384 . S
C696 H718 0.930 . S
C697 C692 1.407 . S
C697 C696 1.384 . S
C697 H719 0.929 . S
C698 O708 1.241 . S
C698 O709 1.273 . S
C699 O710 1.251 . S
C699 O711 1.268 . S
O700 Nd680 2.500 . S
O700 C682 1.258 . S
O701 Nd680 2.492 . S
O701 C682 1.239 . S
O702 Nd680 2.487 . S
O702 C689 1.241 . S
O703 Nd680 2.682 . S
O703 Nd681 2.414 . S
O703 C689 1.273 . S
O704 Nd680 2.410 . S
O704 C690 1.251 . S
O705 Nd681 2.424 . S
O705 C690 1.268 . S
O706 Nd681 2.500 . S
O706 C691 1.258 . S
O707 Nd681 2.492 . S
O707 C691 1.239 . S
O708 Nd681 2.487 . S
O708 C698 1.241 . S
O709 Nd680 2.414 . S
O709 Nd681 2.682 . S
O709 C698 1.273 . S
O710 Nd681 2.410 . S
O710 C699 1.251 . S
O711 Nd680 2.424 . S
O711 C699 1.268 . S
H712 C684 0.930 . S
H713 C685 0.929 . S
H714 C687 0.930 . S
H715 C688 0.929 . S
H716 C693 0.930 . S
H717 C694 0.929 . S
H718 C696 0.930 . S
H719 C697 0.929 . S
Nd720 C722 2.836 . S
Nd720 O740 2.500 . S
Nd720 O741 2.492 . S
Nd720 O742 2.487 . S
Nd720 O743 2.682 . S
Nd720 O744 2.410 . S
Nd720 O749 2.414 . S
Nd720 O751 2.424 . S
Nd721 C731 2.836 . S
Nd721 O743 2.414 . S
Nd721 O745 2.424 . S
Nd721 O746 2.500 . S
Nd721 O747 2.492 . S
Nd721 O748 2.487 . S
Nd721 O749 2.682 . S
Nd721 O750 2.410 . S
C722 Nd720 2.836 . S
C722 C723 1.498 . S
C722 O740 1.258 . S
C722 O741 1.239 . S
C723 C722 1.498 . S
C723 C724 1.366 . S
C723 C728 1.407 . S
C724 C723 1.366 . S
C724 C725 1.392 . S
C724 H752 0.930 . S
C725 C724 1.392 . S
C725 C726 1.398 . S
C725 H753 0.929 . S
C726 C725 1.398 . S
C726 C727 1.352 . S
C727 C726 1.352 . S
C727 C728 1.384 . S
C727 H754 0.930 . S
C728 C723 1.407 . S
C728 C727 1.384 . S
C728 H755 0.929 . S
C729 O742 1.241 . S
C729 O743 1.273 . S
C730 O744 1.251 . S
C730 O745 1.268 . S
C731 Nd721 2.836 . S
C731 C732 1.498 . S
C731 O746 1.258 . S
C731 O747 1.239 . S
C732 C731 1.498 . S
C732 C733 1.366 . S
C732 C737 1.407 . S
C733 C732 1.366 . S
C733 C734 1.392 . S
C733 H756 0.930 . S
C734 C733 1.392 . S
C734 C735 1.398 . S
C734 H757 0.929 . S
C735 C734 1.398 . S
C735 C736 1.352 . S
C736 C735 1.352 . S
C736 C737 1.384 . S
C736 H758 0.930 . S
C737 C732 1.407 . S
C737 C736 1.384 . S
C737 H759 0.929 . S
C738 O748 1.241 . S
C738 O749 1.273 . S
C739 O750 1.251 . S
C739 O751 1.268 . S
O740 Nd720 2.500 . S
O740 C722 1.258 . S
O741 Nd720 2.492 . S
O741 C722 1.239 . S
O742 Nd720 2.487 . S
O742 C729 1.241 . S
O743 Nd720 2.682 . S
O743 Nd721 2.414 . S
O743 C729 1.273 . S
O744 Nd720 2.410 . S
O744 C730 1.251 . S
O745 Nd721 2.424 . S
O745 C730 1.268 . S
O746 Nd721 2.500 . S
O746 C731 1.258 . S
O747 Nd721 2.492 . S
O747 C731 1.239 . S
O748 Nd721 2.487 . S
O748 C738 1.241 . S
O749 Nd720 2.414 . S
O749 Nd721 2.682 . S
O749 C738 1.273 . S
O750 Nd721 2.410 . S
O750 C739 1.251 . S
O751 Nd720 2.424 . S
O751 C739 1.268 . S
H752 C724 0.930 . S
H753 C725 0.929 . S
H754 C727 0.930 . S
H755 C728 0.929 . S
H756 C733 0.930 . S
H757 C734 0.929 . S
H758 C736 0.930 . S
H759 C737 0.929 . S
Nd760 C762 2.836 . S
Nd760 O780 2.500 . S
Nd760 O781 2.492 . S
Nd760 O782 2.487 . S
Nd760 O783 2.682 . S
Nd760 O784 2.410 . S
Nd760 O789 2.414 . S
Nd760 O791 2.424 . S
Nd761 C771 2.836 . S
Nd761 O783 2.414 . S
Nd761 O785 2.424 . S
Nd761 O786 2.500 . S
Nd761 O787 2.492 . S
Nd761 O788 2.487 . S
Nd761 O789 2.682 . S
Nd761 O790 2.410 . S
C762 Nd760 2.836 . S
C762 C763 1.498 . S
C762 O780 1.258 . S
C762 O781 1.239 . S
C763 C762 1.498 . S
C763 C764 1.366 . S
C763 C768 1.407 . S
C764 C763 1.366 . S
C764 C765 1.392 . S
C764 H792 0.930 . S
C765 C764 1.392 . S
C765 C766 1.398 . S
C765 H793 0.929 . S
C766 C765 1.398 . S
C766 C767 1.352 . S
C767 C766 1.352 . S
C767 C768 1.384 . S
C767 H794 0.930 . S
C768 C763 1.407 . S
C768 C767 1.384 . S
C768 H795 0.929 . S
C769 O782 1.241 . S
C769 O783 1.273 . S
C770 O784 1.251 . S
C770 O785 1.268 . S
C771 Nd761 2.836 . S
C771 C772 1.498 . S
C771 O786 1.258 . S
C771 O787 1.239 . S
C772 C771 1.498 . S
C772 C773 1.366 . S
C772 C777 1.407 . S
C773 C772 1.366 . S
C773 C774 1.392 . S
C773 H796 0.930 . S
C774 C773 1.392 . S
C774 C775 1.398 . S
C774 H797 0.929 . S
C775 C774 1.398 . S
C775 C776 1.352 . S
C776 C775 1.352 . S
C776 C777 1.384 . S
C776 H798 0.930 . S
C777 C772 1.407 . S
C777 C776 1.384 . S
C777 H799 0.929 . S
C778 O788 1.241 . S
C778 O789 1.273 . S
C779 O790 1.251 . S
C779 O791 1.268 . S
O780 Nd760 2.500 . S
O780 C762 1.258 . S
O781 Nd760 2.492 . S
O781 C762 1.239 . S
O782 Nd760 2.487 . S
O782 C769 1.241 . S
O783 Nd760 2.682 . S
O783 Nd761 2.414 . S
O783 C769 1.273 . S
O784 Nd760 2.410 . S
O784 C770 1.251 . S
O785 Nd761 2.424 . S
O785 C770 1.268 . S
O786 Nd761 2.500 . S
O786 C771 1.258 . S
O787 Nd761 2.492 . S
O787 C771 1.239 . S
O788 Nd761 2.487 . S
O788 C778 1.241 . S
O789 Nd760 2.414 . S
O789 Nd761 2.682 . S
O789 C778 1.273 . S
O790 Nd761 2.410 . S
O790 C779 1.251 . S
O791 Nd760 2.424 . S
O791 C779 1.268 . S
H792 C764 0.930 . S
H793 C765 0.929 . S
H794 C767 0.930 . S
H795 C768 0.929 . S
H796 C773 0.930 . S
H797 C774 0.929 . S
H798 C776 0.930 . S
H799 C777 0.929 . S
Nd800 C802 2.836 . S
Nd800 O820 2.500 . S
Nd800 O821 2.492 . S
Nd800 O822 2.487 . S
Nd800 O823 2.682 . S
Nd800 O824 2.410 . S
Nd800 O829 2.414 . S
Nd800 O831 2.424 . S
Nd801 C811 2.836 . S
Nd801 O823 2.414 . S
Nd801 O825 2.424 . S
Nd801 O826 2.500 . S
Nd801 O827 2.492 . S
Nd801 O828 2.487 . S
Nd801 O829 2.682 . S
Nd801 O830 2.410 . S
C802 Nd800 2.836 . S
C802 C803 1.498 . S
C802 O820 1.258 . S
C802 O821 1.239 . S
C803 C802 1.498 . S
C803 C804 1.366 . S
C803 C808 1.407 . S
C804 C803 1.366 . S
C804 C805 1.392 . S
C804 H832 0.930 . S
C805 C804 1.392 . S
C805 C806 1.398 . S
C805 H833 0.929 . S
C806 C805 1.398 . S
C806 C807 1.352 . S
C807 C806 1.352 . S
C807 C808 1.384 . S
C807 H834 0.930 . S
C808 C803 1.407 . S
C808 C807 1.384 . S
C808 H835 0.929 . S
C809 O822 1.241 . S
C809 O823 1.273 . S
C810 O824 1.251 . S
C810 O825 1.268 . S
C811 Nd801 2.836 . S
C811 C812 1.498 . S
C811 O826 1.258 . S
C811 O827 1.239 . S
C812 C811 1.498 . S
C812 C813 1.366 . S
C812 C817 1.407 . S
C813 C812 1.366 . S
C813 C814 1.392 . S
C813 H836 0.930 . S
C814 C813 1.392 . S
C814 C815 1.398 . S
C814 H837 0.929 . S
C815 C814 1.398 . S
C815 C816 1.352 . S
C816 C815 1.352 . S
C816 C817 1.384 . S
C816 H838 0.930 . S
C817 C812 1.407 . S
C817 C816 1.384 . S
C817 H839 0.929 . S
C818 O828 1.241 . S
C818 O829 1.273 . S
C819 O830 1.251 . S
C819 O831 1.268 . S
O820 Nd800 2.500 . S
O820 C802 1.258 . S
O821 Nd800 2.492 . S
O821 C802 1.239 . S
O822 Nd800 2.487 . S
O822 C809 1.241 . S
O823 Nd800 2.682 . S
O823 Nd801 2.414 . S
O823 C809 1.273 . S
O824 Nd800 2.410 . S
O824 C810 1.251 . S
O825 Nd801 2.424 . S
O825 C810 1.268 . S
O826 Nd801 2.500 . S
O826 C811 1.258 . S
O827 Nd801 2.492 . S
O827 C811 1.239 . S
O828 Nd801 2.487 . S
O828 C818 1.241 . S
O829 Nd800 2.414 . S
O829 Nd801 2.682 . S
O829 C818 1.273 . S
O830 Nd801 2.410 . S
O830 C819 1.251 . S
O831 Nd800 2.424 . S
O831 C819 1.268 . S
H832 C804 0.930 . S
H833 C805 0.929 . S
H834 C807 0.930 . S
H835 C808 0.929 . S
H836 C813 0.930 . S
H837 C814 0.929 . S
H838 C816 0.930 . S
H839 C817 0.929 . S
Nd840 C842 2.836 . S
Nd840 O860 2.500 . S
Nd840 O861 2.492 . S
Nd840 O862 2.487 . S
Nd840 O863 2.682 . S
Nd840 O864 2.410 . S
Nd840 O869 2.414 . S
Nd840 O871 2.424 . S
Nd841 C851 2.836 . S
Nd841 O863 2.414 . S
Nd841 O865 2.424 . S
Nd841 O866 2.500 . S
Nd841 O867 2.492 . S
Nd841 O868 2.487 . S
Nd841 O869 2.682 . S
Nd841 O870 2.410 . S
C842 Nd840 2.836 . S
C842 C843 1.498 1_556 S
C842 O860 1.258 . S
C842 O861 1.239 . S
C843 C842 1.498 1_554 S
C843 C844 1.366 . S
C843 C848 1.407 . S
C844 C843 1.366 . S
C844 C845 1.392 . S
C844 H872 0.930 . S
C845 C844 1.392 . S
C845 C846 1.398 . S
C845 H873 0.929 . S
C846 C845 1.398 . S
C846 C847 1.352 . S
C847 C846 1.352 . S
C847 C848 1.384 . S
C847 H874 0.930 . S
C848 C843 1.407 . S
C848 C847 1.384 . S
C848 H875 0.929 . S
C849 O862 1.241 . S
C849 O863 1.273 . S
C850 O864 1.251 . S
C850 O865 1.268 . S
C851 Nd841 2.836 . S
C851 C852 1.498 . S
C851 O866 1.258 . S
C851 O867 1.239 . S
C852 C851 1.498 . S
C852 C853 1.366 . S
C852 C857 1.407 . S
C853 C852 1.366 . S
C853 C854 1.392 . S
C853 H876 0.930 . S
C854 C853 1.392 . S
C854 C855 1.398 . S
C854 H877 0.929 . S
C855 C854 1.398 . S
C855 C856 1.352 . S
C856 C855 1.352 . S
C856 C857 1.384 . S
C856 H878 0.930 . S
C857 C852 1.407 . S
C857 C856 1.384 . S
C857 H879 0.929 . S
C858 O868 1.241 . S
C858 O869 1.273 . S
C859 O870 1.251 . S
C859 O871 1.268 . S
O860 Nd840 2.500 . S
O860 C842 1.258 . S
O861 Nd840 2.492 . S
O861 C842 1.239 . S
O862 Nd840 2.487 . S
O862 C849 1.241 . S
O863 Nd840 2.682 . S
O863 Nd841 2.414 . S
O863 C849 1.273 . S
O864 Nd840 2.410 . S
O864 C850 1.251 . S
O865 Nd841 2.424 . S
O865 C850 1.268 . S
O866 Nd841 2.500 . S
O866 C851 1.258 . S
O867 Nd841 2.492 . S
O867 C851 1.239 . S
O868 Nd841 2.487 . S
O868 C858 1.241 . S
O869 Nd840 2.414 . S
O869 Nd841 2.682 . S
O869 C858 1.273 . S
O870 Nd841 2.410 . S
O870 C859 1.251 . S
O871 Nd840 2.424 . S
O871 C859 1.268 . S
H872 C844 0.930 . S
H873 C845 0.929 . S
H874 C847 0.930 . S
H875 C848 0.929 . S
H876 C853 0.930 . S
H877 C854 0.929 . S
H878 C856 0.930 . S
H879 C857 0.929 . S
Nd880 C882 2.836 . S
Nd880 O900 2.500 . S
Nd880 O901 2.492 . S
Nd880 O902 2.487 . S
Nd880 O903 2.682 . S
Nd880 O904 2.410 . S
Nd880 O909 2.414 . S
Nd880 O911 2.424 . S
Nd881 C891 2.836 . S
Nd881 O903 2.414 . S
Nd881 O905 2.424 . S
Nd881 O906 2.500 . S
Nd881 O907 2.492 . S
Nd881 O908 2.487 . S
Nd881 O909 2.682 . S
Nd881 O910 2.410 . S
C882 Nd880 2.836 . S
C882 C883 1.498 . S
C882 O900 1.258 . S
C882 O901 1.239 . S
C883 C882 1.498 . S
C883 C884 1.366 . S
C883 C888 1.407 . S
C884 C883 1.366 . S
C884 C885 1.392 . S
C884 H912 0.930 . S
C885 C884 1.392 . S
C885 C886 1.398 . S
C885 H913 0.929 . S
C886 C885 1.398 . S
C886 C887 1.352 . S
C887 C886 1.352 . S
C887 C888 1.384 . S
C887 H914 0.930 . S
C888 C883 1.407 . S
C888 C887 1.384 . S
C888 H915 0.929 . S
C889 O902 1.241 . S
C889 O903 1.273 . S
C890 O904 1.251 . S
C890 O905 1.268 . S
C891 Nd881 2.836 . S
C891 C892 1.498 . S
C891 O906 1.258 . S
C891 O907 1.239 . S
C892 C891 1.498 . S
C892 C893 1.366 . S
C892 C897 1.407 . S
C893 C892 1.366 . S
C893 C894 1.392 . S
C893 H916 0.930 . S
C894 C893 1.392 . S
C894 C895 1.398 . S
C894 H917 0.929 . S
C895 C894 1.398 . S
C895 C896 1.352 . S
C896 C895 1.352 . S
C896 C897 1.384 . S
C896 H918 0.930 . S
C897 C892 1.407 . S
C897 C896 1.384 . S
C897 H919 0.929 . S
C898 O908 1.241 . S
C898 O909 1.273 . S
C899 O910 1.251 . S
C899 O911 1.268 . S
O900 Nd880 2.500 . S
O900 C882 1.258 . S
O901 Nd880 2.492 . S
O901 C882 1.239 . S
O902 Nd880 2.487 . S
O902 C889 1.241 . S
O903 Nd880 2.682 . S
O903 Nd881 2.414 . S
O903 C889 1.273 . S
O904 Nd880 2.410 . S
O904 C890 1.251 . S
O905 Nd881 2.424 . S
O905 C890 1.268 . S
O906 Nd881 2.500 . S
O906 C891 1.258 . S
O907 Nd881 2.492 . S
O907 C891 1.239 . S
O908 Nd881 2.487 . S
O908 C898 1.241 . S
O909 Nd880 2.414 . S
O909 Nd881 2.682 . S
O909 C898 1.273 . S
O910 Nd881 2.410 . S
O910 C899 1.251 . S
O911 Nd880 2.424 . S
O911 C899 1.268 . S
H912 C884 0.930 . S
H913 C885 0.929 . S
H914 C887 0.930 . S
H915 C888 0.929 . S
H916 C893 0.930 . S
H917 C894 0.929 . S
H918 C896 0.930 . S
H919 C897 0.929 . S
Nd920 C922 2.836 . S
Nd920 O940 2.500 . S
Nd920 O941 2.492 . S
Nd920 O942 2.487 . S
Nd920 O943 2.682 . S
Nd920 O944 2.410 . S
Nd920 O949 2.414 . S
Nd920 O951 2.424 . S
Nd921 C931 2.836 . S
Nd921 O943 2.414 . S
Nd921 O945 2.424 . S
Nd921 O946 2.500 . S
Nd921 O947 2.492 . S
Nd921 O948 2.487 . S
Nd921 O949 2.682 . S
Nd921 O950 2.410 . S
C922 Nd920 2.836 . S
C922 C923 1.498 . S
C922 O940 1.258 . S
C922 O941 1.239 . S
C923 C922 1.498 . S
C923 C924 1.366 . S
C923 C928 1.407 . S
C924 C923 1.366 . S
C924 C925 1.392 . S
C924 H952 0.930 . S
C925 C924 1.392 . S
C925 C926 1.398 . S
C925 H953 0.929 . S
C926 C925 1.398 . S
C926 C927 1.352 . S
C927 C926 1.352 . S
C927 C928 1.384 . S
C927 H954 0.930 . S
C928 C923 1.407 . S
C928 C927 1.384 . S
C928 H955 0.929 . S
C929 O942 1.241 . S
C929 O943 1.273 . S
C930 O944 1.251 . S
C930 O945 1.268 . S
C931 Nd921 2.836 . S
C931 C932 1.498 . S
C931 O946 1.258 . S
C931 O947 1.239 . S
C932 C931 1.498 . S
C932 C933 1.366 . S
C932 C937 1.407 . S
C933 C932 1.366 . S
C933 C934 1.392 . S
C933 H956 0.930 . S
C934 C933 1.392 . S
C934 C935 1.398 . S
C934 H957 0.929 . S
C935 C934 1.398 . S
C935 C936 1.352 . S
C936 C935 1.352 . S
C936 C937 1.384 . S
C936 H958 0.930 . S
C937 C932 1.407 . S
C937 C936 1.384 . S
C937 H959 0.929 . S
C938 O948 1.241 . S
C938 O949 1.273 . S
C939 O950 1.251 . S
C939 O951 1.268 . S
O940 Nd920 2.500 . S
O940 C922 1.258 . S
O941 Nd920 2.492 . S
O941 C922 1.239 . S
O942 Nd920 2.487 . S
O942 C929 1.241 . S
O943 Nd920 2.682 . S
O943 Nd921 2.414 . S
O943 C929 1.273 . S
O944 Nd920 2.410 . S
O944 C930 1.251 . S
O945 Nd921 2.424 . S
O945 C930 1.268 . S
O946 Nd921 2.500 . S
O946 C931 1.258 . S
O947 Nd921 2.492 . S
O947 C931 1.239 . S
O948 Nd921 2.487 . S
O948 C938 1.241 . S
O949 Nd920 2.414 . S
O949 Nd921 2.682 . S
O949 C938 1.273 . S
O950 Nd921 2.410 . S
O950 C939 1.251 . S
O951 Nd920 2.424 . S
O951 C939 1.268 . S
H952 C924 0.930 . S
H953 C925 0.929 . S
H954 C927 0.930 . S
H955 C928 0.929 . S
H956 C933 0.930 . S
H957 C934 0.929 . S
H958 C936 0.930 . S
H959 C937 0.929 . S
Nd960 C962 2.836 . S
Nd960 O980 2.500 . S
Nd960 O981 2.492 . S
Nd960 O982 2.487 . S
Nd960 O983 2.682 . S
Nd960 O984 2.410 . S
Nd960 O989 2.414 . S
Nd960 O991 2.424 . S
Nd961 C971 2.836 . S
Nd961 O983 2.414 . S
Nd961 O985 2.424 . S
Nd961 O986 2.500 . S
Nd961 O987 2.492 . S
Nd961 O988 2.487 . S
Nd961 O989 2.682 . S
Nd961 O990 2.410 . S
C962 Nd960 2.836 . S
C962 C963 1.498 . S
C962 O980 1.258 . S
C962 O981 1.239 . S
C963 C962 1.498 . S
C963 C964 1.366 . S
C963 C968 1.407 . S
C964 C963 1.366 . S
C964 C965 1.392 . S
C964 H992 0.930 . S
C965 C964 1.392 . S
C965 C966 1.398 . S
C965 H993 0.929 . S
C966 C965 1.398 . S
C966 C967 1.352 . S
C967 C966 1.352 . S
C967 C968 1.384 . S
C967 H994 0.930 . S
C968 C963 1.407 . S
C968 C967 1.384 . S
C968 H995 0.929 . S
C969 O982 1.241 . S
C969 O983 1.273 . S
C970 O984 1.251 . S
C970 O985 1.268 . S
C971 Nd961 2.836 . S
C971 C972 1.498 . S
C971 O986 1.258 . S
C971 O987 1.239 . S
C972 C971 1.498 . S
C972 C973 1.366 . S
C972 C977 1.407 . S
C973 C972 1.366 . S
C973 C974 1.392 . S
C973 H996 0.930 . S
C974 C973 1.392 . S
C974 C975 1.398 . S
C974 H997 0.929 . S
C975 C974 1.398 . S
C975 C976 1.352 . S
C976 C975 1.352 . S
C976 C977 1.384 . S
C976 H998 0.930 . S
C977 C972 1.407 . S
C977 C976 1.384 . S
C977 H999 0.929 . S
C978 O988 1.241 . S
C978 O989 1.273 . S
C979 O990 1.251 . S
C979 O991 1.268 . S
O980 Nd960 2.500 . S
O980 C962 1.258 . S
O981 Nd960 2.492 . S
O981 C962 1.239 . S
O982 Nd960 2.487 . S
O982 C969 1.241 . S
O983 Nd960 2.682 . S
O983 Nd961 2.414 . S
O983 C969 1.273 . S
O984 Nd960 2.410 . S
O984 C970 1.251 . S
O985 Nd961 2.424 . S
O985 C970 1.268 . S
O986 Nd961 2.500 . S
O986 C971 1.258 . S
O987 Nd961 2.492 . S
O987 C971 1.239 . S
O988 Nd961 2.487 . S
O988 C978 1.241 . S
O989 Nd960 2.414 . S
O989 Nd961 2.682 . S
O989 C978 1.273 . S
O990 Nd961 2.410 . S
O990 C979 1.251 . S
O991 Nd960 2.424 . S
O991 C979 1.268 . S
H992 C964 0.930 . S
H993 C965 0.929 . S
H994 C967 0.930 . S
H995 C968 0.929 . S
H996 C973 0.930 . S
H997 C974 0.929 . S
H998 C976 0.930 . S
H999 C977 0.929 . S
Nd1000 C1002 2.836 . S
Nd1000 O1020 2.500 . S
Nd1000 O1021 2.492 . S
Nd1000 O1022 2.487 . S
Nd1000 O1023 2.682 . S
Nd1000 O1024 2.410 . S
Nd1000 O1029 2.414 . S
Nd1000 O1031 2.424 . S
Nd1001 C1011 2.836 . S
Nd1001 O1023 2.414 . S
Nd1001 O1025 2.424 . S
Nd1001 O1026 2.500 . S
Nd1001 O1027 2.492 . S
Nd1001 O1028 2.487 . S
Nd1001 O1029 2.682 . S
Nd1001 O1030 2.410 . S
C1002 Nd1000 2.836 . S
C1002 C1003 1.498 . S
C1002 O1020 1.258 . S
C1002 O1021 1.239 . S
C1003 C1002 1.498 . S
C1003 C1004 1.366 . S
C1003 C1008 1.407 . S
C1004 C1003 1.366 . S
C1004 C1005 1.392 . S
C1004 H1032 0.930 . S
C1005 C1004 1.392 . S
C1005 C1006 1.398 . S
C1005 H1033 0.929 . S
C1006 C1005 1.398 . S
C1006 C1007 1.352 . S
C1007 C1006 1.352 . S
C1007 C1008 1.384 . S
C1007 H1034 0.930 . S
C1008 C1003 1.407 . S
C1008 C1007 1.384 . S
C1008 H1035 0.929 . S
C1009 O1022 1.241 . S
C1009 O1023 1.273 . S
C1010 O1024 1.251 . S
C1010 O1025 1.268 . S
C1011 Nd1001 2.836 . S
C1011 C1012 1.498 1_556 S
C1011 O1026 1.258 . S
C1011 O1027 1.239 . S
C1012 C1011 1.498 1_554 S
C1012 C1013 1.366 . S
C1012 C1017 1.407 . S
C1013 C1012 1.366 . S
C1013 C1014 1.392 . S
C1013 H1036 0.930 . S
C1014 C1013 1.392 . S
C1014 C1015 1.398 . S
C1014 H1037 0.929 . S
C1015 C1014 1.398 . S
C1015 C1016 1.352 . S
C1016 C1015 1.352 . S
C1016 C1017 1.384 . S
C1016 H1038 0.930 . S
C1017 C1012 1.407 . S
C1017 C1016 1.384 . S
C1017 H1039 0.929 . S
C1018 O1028 1.241 . S
C1018 O1029 1.273 . S
C1019 O1030 1.251 . S
C1019 O1031 1.268 . S
O1020 Nd1000 2.500 . S
O1020 C1002 1.258 . S
O1021 Nd1000 2.492 . S
O1021 C1002 1.239 . S
O1022 Nd1000 2.487 . S
O1022 C1009 1.241 . S
O1023 Nd1000 2.682 . S
O1023 Nd1001 2.414 . S
O1023 C1009 1.273 . S
O1024 Nd1000 2.410 . S
O1024 C1010 1.251 . S
O1025 Nd1001 2.424 . S
O1025 C1010 1.268 . S
O1026 Nd1001 2.500 . S
O1026 C1011 1.258 . S
O1027 Nd1001 2.492 . S
O1027 C1011 1.239 . S
O1028 Nd1001 2.487 . S
O1028 C1018 1.241 . S
O1029 Nd1000 2.414 . S
O1029 Nd1001 2.682 . S
O1029 C1018 1.273 . S
O1030 Nd1001 2.410 . S
O1030 C1019 1.251 . S
O1031 Nd1000 2.424 . S
O1031 C1019 1.268 . S
H1032 C1004 0.930 . S
H1033 C1005 0.929 . S
H1034 C1007 0.930 . S
H1035 C1008 0.929 . S
H1036 C1013 0.930 . S
H1037 C1014 0.929 . S
H1038 C1016 0.930 . S
H1039 C1017 0.929 . S
Nd1040 C1042 2.836 . S
Nd1040 O1060 2.500 . S
Nd1040 O1061 2.492 . S
Nd1040 O1062 2.487 . S
Nd1040 O1063 2.682 . S
Nd1040 O1064 2.410 . S
Nd1040 O1069 2.414 . S
Nd1040 O1071 2.424 . S
Nd1041 C1051 2.836 . S
Nd1041 O1063 2.414 . S
Nd1041 O1065 2.424 . S
Nd1041 O1066 2.500 . S
Nd1041 O1067 2.492 . S
Nd1041 O1068 2.487 . S
Nd1041 O1069 2.682 . S
Nd1041 O1070 2.410 . S
C1042 Nd1040 2.836 . S
C1042 C1043 1.498 . S
C1042 O1060 1.258 . S
C1042 O1061 1.239 . S
C1043 C1042 1.498 . S
C1043 C1044 1.366 . S
C1043 C1048 1.407 . S
C1044 C1043 1.366 . S
C1044 C1045 1.392 . S
C1044 H1072 0.930 . S
C1045 C1044 1.392 . S
C1045 C1046 1.398 . S
C1045 H1073 0.929 . S
C1046 C1045 1.398 . S
C1046 C1047 1.352 . S
C1047 C1046 1.352 . S
C1047 C1048 1.384 . S
C1047 H1074 0.930 . S
C1048 C1043 1.407 . S
C1048 C1047 1.384 . S
C1048 H1075 0.929 . S
C1049 O1062 1.241 . S
C1049 O1063 1.273 . S
C1050 O1064 1.251 . S
C1050 O1065 1.268 . S
C1051 Nd1041 2.836 . S
C1051 C1052 1.498 . S
C1051 O1066 1.258 . S
C1051 O1067 1.239 . S
C1052 C1051 1.498 . S
C1052 C1053 1.366 . S
C1052 C1057 1.407 . S
C1053 C1052 1.366 . S
C1053 C1054 1.392 . S
C1053 H1076 0.930 . S
C1054 C1053 1.392 . S
C1054 C1055 1.398 . S
C1054 H1077 0.929 . S
C1055 C1054 1.398 . S
C1055 C1056 1.352 . S
C1056 C1055 1.352 . S
C1056 C1057 1.384 . S
C1056 H1078 0.930 . S
C1057 C1052 1.407 . S
C1057 C1056 1.384 . S
C1057 H1079 0.929 . S
C1058 O1068 1.241 . S
C1058 O1069 1.273 . S
C1059 O1070 1.251 . S
C1059 O1071 1.268 . S
O1060 Nd1040 2.500 . S
O1060 C1042 1.258 . S
O1061 Nd1040 2.492 . S
O1061 C1042 1.239 . S
O1062 Nd1040 2.487 . S
O1062 C1049 1.241 . S
O1063 Nd1040 2.682 . S
O1063 Nd1041 2.414 . S
O1063 C1049 1.273 . S
O1064 Nd1040 2.410 . S
O1064 C1050 1.251 . S
O1065 Nd1041 2.424 . S
O1065 C1050 1.268 . S
O1066 Nd1041 2.500 . S
O1066 C1051 1.258 . S
O1067 Nd1041 2.492 . S
O1067 C1051 1.239 . S
O1068 Nd1041 2.487 . S
O1068 C1058 1.241 . S
O1069 Nd1040 2.414 . S
O1069 Nd1041 2.682 . S
O1069 C1058 1.273 . S
O1070 Nd1041 2.410 . S
O1070 C1059 1.251 . S
O1071 Nd1040 2.424 . S
O1071 C1059 1.268 . S
H1072 C1044 0.930 . S
H1073 C1045 0.929 . S
H1074 C1047 0.930 . S
H1075 C1048 0.929 . S
H1076 C1053 0.930 . S
H1077 C1054 0.929 . S
H1078 C1056 0.930 . S
H1079 C1057 0.929 . S
Nd1080 C1082 2.836 . S
Nd1080 O1100 2.500 . S
Nd1080 O1101 2.492 . S
Nd1080 O1102 2.487 . S
Nd1080 O1103 2.682 . S
Nd1080 O1104 2.410 . S
Nd1080 O1109 2.414 . S
Nd1080 O1111 2.424 . S
Nd1081 C1091 2.836 . S
Nd1081 O1103 2.414 . S
Nd1081 O1105 2.424 . S
Nd1081 O1106 2.500 . S
Nd1081 O1107 2.492 . S
Nd1081 O1108 2.487 . S
Nd1081 O1109 2.682 . S
Nd1081 O1110 2.410 . S
C1082 Nd1080 2.836 . S
C1082 C1083 1.498 . S
C1082 O1100 1.258 . S
C1082 O1101 1.239 . S
C1083 C1082 1.498 . S
C1083 C1084 1.366 . S
C1083 C1088 1.407 . S
C1084 C1083 1.366 . S
C1084 C1085 1.392 . S
C1084 H1112 0.930 . S
C1085 C1084 1.392 . S
C1085 C1086 1.398 . S
C1085 H1113 0.929 . S
C1086 C1085 1.398 . S
C1086 C1087 1.352 . S
C1087 C1086 1.352 . S
C1087 C1088 1.384 . S
C1087 H1114 0.930 . S
C1088 C1083 1.407 . S
C1088 C1087 1.384 . S
C1088 H1115 0.929 . S
C1089 O1102 1.241 . S
C1089 O1103 1.273 . S
C1090 O1104 1.251 . S
C1090 O1105 1.268 . S
C1091 Nd1081 2.836 . S
C1091 C1092 1.498 . S
C1091 O1106 1.258 . S
C1091 O1107 1.239 . S
C1092 C1091 1.498 . S
C1092 C1093 1.366 . S
C1092 C1097 1.407 . S
C1093 C1092 1.366 . S
C1093 C1094 1.392 . S
C1093 H1116 0.930 . S
C1094 C1093 1.392 . S
C1094 C1095 1.398 . S
C1094 H1117 0.929 . S
C1095 C1094 1.398 . S
C1095 C1096 1.352 . S
C1096 C1095 1.352 . S
C1096 C1097 1.384 . S
C1096 H1118 0.930 . S
C1097 C1092 1.407 . S
C1097 C1096 1.384 . S
C1097 H1119 0.929 . S
C1098 O1108 1.241 . S
C1098 O1109 1.273 . S
C1099 O1110 1.251 . S
C1099 O1111 1.268 . S
O1100 Nd1080 2.500 . S
O1100 C1082 1.258 . S
O1101 Nd1080 2.492 . S
O1101 C1082 1.239 . S
O1102 Nd1080 2.487 . S
O1102 C1089 1.241 . S
O1103 Nd1080 2.682 . S
O1103 Nd1081 2.414 . S
O1103 C1089 1.273 . S
O1104 Nd1080 2.410 . S
O1104 C1090 1.251 . S
O1105 Nd1081 2.424 . S
O1105 C1090 1.268 . S
O1106 Nd1081 2.500 . S
O1106 C1091 1.258 . S
O1107 Nd1081 2.492 . S
O1107 C1091 1.239 . S
O1108 Nd1081 2.487 . S
O1108 C1098 1.241 . S
O1109 Nd1080 2.414 . S
O1109 Nd1081 2.682 . S
O1109 C1098 1.273 . S
O1110 Nd1081 2.410 . S
O1110 C1099 1.251 . S
O1111 Nd1080 2.424 . S
O1111 C1099 1.268 . S
H1112 C1084 0.930 . S
H1113 C1085 0.929 . S
H1114 C1087 0.930 . S
H1115 C1088 0.929 . S
H1116 C1093 0.930 . S
H1117 C1094 0.929 . S
H1118 C1096 0.930 . S
H1119 C1097 0.929 . S
Nd1120 C1122 2.836 . S
Nd1120 O1140 2.500 . S
Nd1120 O1141 2.492 . S
Nd1120 O1142 2.487 . S
Nd1120 O1143 2.682 . S
Nd1120 O1144 2.410 . S
Nd1120 O1149 2.414 . S
Nd1120 O1151 2.424 . S
Nd1121 C1131 2.836 . S
Nd1121 O1143 2.414 . S
Nd1121 O1145 2.424 . S
Nd1121 O1146 2.500 . S
Nd1121 O1147 2.492 . S
Nd1121 O1148 2.487 . S
Nd1121 O1149 2.682 . S
Nd1121 O1150 2.410 . S
C1122 Nd1120 2.836 . S
C1122 C1123 1.498 . S
C1122 O1140 1.258 . S
C1122 O1141 1.239 . S
C1123 C1122 1.498 . S
C1123 C1124 1.366 . S
C1123 C1128 1.407 . S
C1124 C1123 1.366 . S
C1124 C1125 1.392 . S
C1124 H1152 0.930 . S
C1125 C1124 1.392 . S
C1125 C1126 1.398 . S
C1125 H1153 0.929 . S
C1126 C1125 1.398 . S
C1126 C1127 1.352 . S
C1127 C1126 1.352 . S
C1127 C1128 1.384 . S
C1127 H1154 0.930 . S
C1128 C1123 1.407 . S
C1128 C1127 1.384 . S
C1128 H1155 0.929 . S
C1129 O1142 1.241 . S
C1129 O1143 1.273 . S
C1130 O1144 1.251 . S
C1130 O1145 1.268 . S
C1131 Nd1121 2.836 . S
C1131 C1132 1.498 . S
C1131 O1146 1.258 . S
C1131 O1147 1.239 . S
C1132 C1131 1.498 . S
C1132 C1133 1.366 . S
C1132 C1137 1.407 . S
C1133 C1132 1.366 . S
C1133 C1134 1.392 . S
C1133 H1156 0.930 . S
C1134 C1133 1.392 . S
C1134 C1135 1.398 . S
C1134 H1157 0.929 . S
C1135 C1134 1.398 . S
C1135 C1136 1.352 . S
C1136 C1135 1.352 . S
C1136 C1137 1.384 . S
C1136 H1158 0.930 . S
C1137 C1132 1.407 . S
C1137 C1136 1.384 . S
C1137 H1159 0.929 . S
C1138 O1148 1.241 . S
C1138 O1149 1.273 . S
C1139 O1150 1.251 . S
C1139 O1151 1.268 . S
O1140 Nd1120 2.500 . S
O1140 C1122 1.258 . S
O1141 Nd1120 2.492 . S
O1141 C1122 1.239 . S
O1142 Nd1120 2.487 . S
O1142 C1129 1.241 . S
O1143 Nd1120 2.682 . S
O1143 Nd1121 2.414 . S
O1143 C1129 1.273 . S
O1144 Nd1120 2.410 . S
O1144 C1130 1.251 . S
O1145 Nd1121 2.424 . S
O1145 C1130 1.268 . S
O1146 Nd1121 2.500 . S
O1146 C1131 1.258 . S
O1147 Nd1121 2.492 . S
O1147 C1131 1.239 . S
O1148 Nd1121 2.487 . S
O1148 C1138 1.241 . S
O1149 Nd1120 2.414 . S
O1149 Nd1121 2.682 . S
O1149 C1138 1.273 . S
O1150 Nd1121 2.410 . S
O1150 C1139 1.251 . S
O1151 Nd1120 2.424 . S
O1151 C1139 1.268 . S
H1152 C1124 0.930 . S
H1153 C1125 0.929 . S
H1154 C1127 0.930 . S
H1155 C1128 0.929 . S
H1156 C1133 0.930 . S
H1157 C1134 0.929 . S
H1158 C1136 0.930 . S
H1159 C1137 0.929 . S
Nd1160 C1162 2.836 . S
Nd1160 O1180 2.500 . S
Nd1160 O1181 2.492 . S
Nd1160 O1182 2.487 . S
Nd1160 O1183 2.682 . S
Nd1160 O1184 2.410 . S
Nd1160 O1189 2.414 . S
Nd1160 O1191 2.424 . S
Nd1161 C1171 2.836 . S
Nd1161 O1183 2.414 . S
Nd1161 O1185 2.424 . S
Nd1161 O1186 2.500 . S
Nd1161 O1187 2.492 . S
Nd1161 O1188 2.487 . S
Nd1161 O1189 2.682 . S
Nd1161 O1190 2.410 . S
C1162 Nd1160 2.836 . S
C1162 C1163 1.498 . S
C1162 O1180 1.258 . S
C1162 O1181 1.239 . S
C1163 C1162 1.498 . S
C1163 C1164 1.366 . S
C1163 C1168 1.407 . S
C1164 C1163 1.366 . S
C1164 C1165 1.392 . S
C1164 H1192 0.930 . S
C1165 C1164 1.392 . S
C1165 C1166 1.398 . S
C1165 H1193 0.929 . S
C1166 C1165 1.398 . S
C1166 C1167 1.352 . S
C1167 C1166 1.352 . S
C1167 C1168 1.384 . S
C1167 H1194 0.930 . S
C1168 C1163 1.407 . S
C1168 C1167 1.384 . S
C1168 H1195 0.929 . S
C1169 O1182 1.241 . S
C1169 O1183 1.273 . S
C1170 O1184 1.251 . S
C1170 O1185 1.268 . S
C1171 Nd1161 2.836 . S
C1171 C1172 1.498 1_554 S
C1171 O1186 1.258 . S
C1171 O1187 1.239 . S
C1172 C1171 1.498 1_556 S
C1172 C1173 1.366 . S
C1172 C1177 1.407 . S
C1173 C1172 1.366 . S
C1173 C1174 1.392 . S
C1173 H1196 0.930 . S
C1174 C1173 1.392 . S
C1174 C1175 1.398 . S
C1174 H1197 0.929 . S
C1175 C1174 1.398 . S
C1175 C1176 1.352 . S
C1176 C1175 1.352 . S
C1176 C1177 1.384 . S
C1176 H1198 0.930 . S
C1177 C1172 1.407 . S
C1177 C1176 1.384 . S
C1177 H1199 0.929 . S
C1178 O1188 1.241 . S
C1178 O1189 1.273 . S
C1179 O1190 1.251 . S
C1179 O1191 1.268 . S
O1180 Nd1160 2.500 . S
O1180 C1162 1.258 . S
O1181 Nd1160 2.492 . S
O1181 C1162 1.239 . S
O1182 Nd1160 2.487 . S
O1182 C1169 1.241 . S
O1183 Nd1160 2.682 . S
O1183 Nd1161 2.414 . S
O1183 C1169 1.273 . S
O1184 Nd1160 2.410 . S
O1184 C1170 1.251 . S
O1185 Nd1161 2.424 . S
O1185 C1170 1.268 . S
O1186 Nd1161 2.500 . S
O1186 C1171 1.258 . S
O1187 Nd1161 2.492 . S
O1187 C1171 1.239 . S
O1188 Nd1161 2.487 . S
O1188 C1178 1.241 . S
O1189 Nd1160 2.414 . S
O1189 Nd1161 2.682 . S
O1189 C1178 1.273 . S
O1190 Nd1161 2.410 . S
O1190 C1179 1.251 . S
O1191 Nd1160 2.424 . S
O1191 C1179 1.268 . S
H1192 C1164 0.930 . S
H1193 C1165 0.929 . S
H1194 C1167 0.930 . S
H1195 C1168 0.929 . S
H1196 C1173 0.930 . S
H1197 C1174 0.929 . S
H1198 C1176 0.930 . S
H1199 C1177 0.929 . S
Nd1200 C1202 2.836 . S
Nd1200 O1220 2.500 . S
Nd1200 O1221 2.492 . S
Nd1200 O1222 2.487 . S
Nd1200 O1223 2.682 . S
Nd1200 O1224 2.410 . S
Nd1200 O1229 2.414 . S
Nd1200 O1231 2.424 . S
Nd1201 C1211 2.836 . S
Nd1201 O1223 2.414 . S
Nd1201 O1225 2.424 . S
Nd1201 O1226 2.500 . S
Nd1201 O1227 2.492 . S
Nd1201 O1228 2.487 . S
Nd1201 O1229 2.682 . S
Nd1201 O1230 2.410 . S
C1202 Nd1200 2.836 . S
C1202 C1203 1.498 . S
C1202 O1220 1.258 . S
C1202 O1221 1.239 . S
C1203 C1202 1.498 . S
C1203 C1204 1.366 . S
C1203 C1208 1.407 . S
C1204 C1203 1.366 . S
C1204 C1205 1.392 . S
C1204 H1232 0.930 . S
C1205 C1204 1.392 . S
C1205 C1206 1.398 . S
C1205 H1233 0.929 . S
C1206 C1205 1.398 . S
C1206 C1207 1.352 . S
C1207 C1206 1.352 . S
C1207 C1208 1.384 . S
C1207 H1234 0.930 . S
C1208 C1203 1.407 . S
C1208 C1207 1.384 . S
C1208 H1235 0.929 . S
C1209 O1222 1.241 . S
C1209 O1223 1.273 . S
C1210 O1224 1.251 . S
C1210 O1225 1.268 . S
C1211 Nd1201 2.836 . S
C1211 C1212 1.498 . S
C1211 O1226 1.258 . S
C1211 O1227 1.239 . S
C1212 C1211 1.498 . S
C1212 C1213 1.366 . S
C1212 C1217 1.407 . S
C1213 C1212 1.366 . S
C1213 C1214 1.392 . S
C1213 H1236 0.930 . S
C1214 C1213 1.392 . S
C1214 C1215 1.398 . S
C1214 H1237 0.929 . S
C1215 C1214 1.398 . S
C1215 C1216 1.352 . S
C1216 C1215 1.352 . S
C1216 C1217 1.384 . S
C1216 H1238 0.930 . S
C1217 C1212 1.407 . S
C1217 C1216 1.384 . S
C1217 H1239 0.929 . S
C1218 O1228 1.241 . S
C1218 O1229 1.273 . S
C1219 O1230 1.251 . S
C1219 O1231 1.268 . S
O1220 Nd1200 2.500 . S
O1220 C1202 1.258 . S
O1221 Nd1200 2.492 . S
O1221 C1202 1.239 . S
O1222 Nd1200 2.487 . S
O1222 C1209 1.241 . S
O1223 Nd1200 2.682 . S
O1223 Nd1201 2.414 . S
O1223 C1209 1.273 . S
O1224 Nd1200 2.410 . S
O1224 C1210 1.251 . S
O1225 Nd1201 2.424 . S
O1225 C1210 1.268 . S
O1226 Nd1201 2.500 . S
O1226 C1211 1.258 . S
O1227 Nd1201 2.492 . S
O1227 C1211 1.239 . S
O1228 Nd1201 2.487 . S
O1228 C1218 1.241 . S
O1229 Nd1200 2.414 . S
O1229 Nd1201 2.682 . S
O1229 C1218 1.273 . S
O1230 Nd1201 2.410 . S
O1230 C1219 1.251 . S
O1231 Nd1200 2.424 . S
O1231 C1219 1.268 . S
H1232 C1204 0.930 . S
H1233 C1205 0.929 . S
H1234 C1207 0.930 . S
H1235 C1208 0.929 . S
H1236 C1213 0.930 . S
H1237 C1214 0.929 . S
H1238 C1216 0.930 . S
H1239 C1217 0.929 . S
Nd1240 C1242 2.836 . S
Nd1240 O1260 2.500 . S
Nd1240 O1261 2.492 . S
Nd1240 O1262 2.487 . S
Nd1240 O1263 2.682 . S
Nd1240 O1264 2.410 . S
Nd1240 O1269 2.414 . S
Nd1240 O1271 2.424 . S
Nd1241 C1251 2.836 . S
Nd1241 O1263 2.414 . S
Nd1241 O1265 2.424 . S
Nd1241 O1266 2.500 . S
Nd1241 O1267 2.492 . S
Nd1241 O1268 2.487 . S
Nd1241 O1269 2.682 . S
Nd1241 O1270 2.410 . S
C1242 Nd1240 2.836 . S
C1242 C1243 1.498 . S
C1242 O1260 1.258 . S
C1242 O1261 1.239 . S
C1243 C1242 1.498 . S
C1243 C1244 1.366 . S
C1243 C1248 1.407 . S
C1244 C1243 1.366 . S
C1244 C1245 1.392 . S
C1244 H1272 0.930 . S
C1245 C1244 1.392 . S
C1245 C1246 1.398 . S
C1245 H1273 0.929 . S
C1246 C1245 1.398 . S
C1246 C1247 1.352 . S
C1247 C1246 1.352 . S
C1247 C1248 1.384 . S
C1247 H1274 0.930 . S
C1248 C1243 1.407 . S
C1248 C1247 1.384 . S
C1248 H1275 0.929 . S
C1249 O1262 1.241 . S
C1249 O1263 1.273 . S
C1250 O1264 1.251 . S
C1250 O1265 1.268 . S
C1251 Nd1241 2.836 . S
C1251 C1252 1.498 . S
C1251 O1266 1.258 . S
C1251 O1267 1.239 . S
C1252 C1251 1.498 . S
C1252 C1253 1.366 . S
C1252 C1257 1.407 . S
C1253 C1252 1.366 . S
C1253 C1254 1.392 . S
C1253 H1276 0.930 . S
C1254 C1253 1.392 . S
C1254 C1255 1.398 . S
C1254 H1277 0.929 . S
C1255 C1254 1.398 . S
C1255 C1256 1.352 . S
C1256 C1255 1.352 . S
C1256 C1257 1.384 . S
C1256 H1278 0.930 . S
C1257 C1252 1.407 . S
C1257 C1256 1.384 . S
C1257 H1279 0.929 . S
C1258 O1268 1.241 . S
C1258 O1269 1.273 . S
C1259 O1270 1.251 . S
C1259 O1271 1.268 . S
O1260 Nd1240 2.500 . S
O1260 C1242 1.258 . S
O1261 Nd1240 2.492 . S
O1261 C1242 1.239 . S
O1262 Nd1240 2.487 . S
O1262 C1249 1.241 . S
O1263 Nd1240 2.682 . S
O1263 Nd1241 2.414 . S
O1263 C1249 1.273 . S
O1264 Nd1240 2.410 . S
O1264 C1250 1.251 . S
O1265 Nd1241 2.424 . S
O1265 C1250 1.268 . S
O1266 Nd1241 2.500 . S
O1266 C1251 1.258 . S
O1267 Nd1241 2.492 . S
O1267 C1251 1.239 . S
O1268 Nd1241 2.487 . S
O1268 C1258 1.241 . S
O1269 Nd1240 2.414 . S
O1269 Nd1241 2.682 . S
O1269 C1258 1.273 . S
O1270 Nd1241 2.410 . S
O1270 C1259 1.251 . S
O1271 Nd1240 2.424 . S
O1271 C1259 1.268 . S
H1272 C1244 0.930 . S
H1273 C1245 0.929 . S
H1274 C1247 0.930 . S
H1275 C1248 0.929 . S
H1276 C1253 0.930 . S
H1277 C1254 0.929 . S
H1278 C1256 0.930 . S
H1279 C1257 0.929 . S
H1280 C1292 0.930 . S
H1281 C1294 0.930 . S
H1282 C1295 0.930 . S
H1283 C1299 0.959 . S
H1284 C1299 0.959 . S
H1285 C1299 0.961 . S
H1286 C1300 0.960 . S
H1287 C1300 0.961 . S
H1288 C1300 0.959 . S
H1289 C1303 0.929 . S
H1290 C1304 0.931 . S
H1291 C1306 0.930 . S
C1292 H1280 0.930 . S
C1292 C1293 1.399 . S
C1292 C1297 1.399 . S
C1293 C1292 1.399 . S
C1293 C1294 1.376 . S
C1294 H1281 0.930 . S
C1294 C1293 1.376 . S
C1294 C1295 1.388 . S
C1295 H1282 0.930 . S
C1295 C1294 1.388 . S
C1295 C1296 1.390 . S
C1296 C1295 1.390 . S
C1296 C1297 1.394 . S
C1296 C1302 1.465 . S
C1297 C1292 1.399 . S
C1297 C1296 1.394 . S
C1297 C1298 1.516 . S
C1298 C1297 1.516 . S
C1298 C1299 1.502 . S
C1298 C1300 1.561 . S
C1298 C1301 1.526 . S
C1299 H1283 0.959 . S
C1299 H1284 0.959 . S
C1299 H1285 0.961 . S
C1299 C1298 1.502 . S
C1300 H1286 0.960 . S
C1300 H1287 0.961 . S
C1300 H1288 0.959 . S
C1300 C1298 1.561 . S
C1301 C1298 1.526 . S
C1301 C1302 1.396 . S
C1301 C1306 1.390 . S
C1302 C1296 1.465 . S
C1302 C1301 1.396 . S
C1302 C1303 1.399 . S
C1303 H1289 0.929 . S
C1303 C1302 1.399 . S
C1303 C1304 1.385 . S
C1304 H1290 0.931 . S
C1304 C1303 1.385 . S
C1304 C1305 1.389 . S
C1305 C1304 1.389 . S
C1305 C1306 1.387 . S
C1306 H1291 0.930 . S
C1306 C1301 1.390 . S
C1306 C1305 1.387 . S
H1307 C1319 0.930 . S
H1308 C1321 0.930 . S
H1309 C1322 0.930 . S
H1310 C1326 0.959 . S
H1311 C1326 0.959 . S
H1312 C1326 0.961 . S
H1313 C1327 0.960 . S
H1314 C1327 0.961 . S
H1315 C1327 0.959 . S
H1316 C1330 0.929 . S
H1317 C1331 0.931 . S
H1318 C1333 0.930 . S
C1319 H1307 0.930 . S
C1319 C1320 1.399 1_565 S
C1319 C1324 1.399 . S
C1320 C1319 1.399 1_545 S
C1320 C1321 1.376 . S
C1321 H1308 0.930 . S
C1321 C1320 1.376 . S
C1321 C1322 1.388 . S
C1322 H1309 0.930 . S
C1322 C1321 1.388 . S
C1322 C1323 1.390 1_545 S
C1323 C1322 1.390 1_565 S
C1323 C1324 1.394 . S
C1323 C1329 1.465 . S
C1324 C1319 1.399 . S
C1324 C1323 1.394 . S
C1324 C1325 1.516 . S
C1325 C1324 1.516 . S
C1325 C1326 1.502 . S
C1325 C1327 1.561 . S
C1325 C1328 1.526 . S
C1326 H1310 0.959 . S
C1326 H1311 0.959 . S
C1326 H1312 0.961 . S
C1326 C1325 1.502 . S
C1327 H1313 0.960 . S
C1327 H1314 0.961 . S
C1327 H1315 0.959 . S
C1327 C1325 1.561 . S
C1328 C1325 1.526 . S
C1328 C1329 1.396 . S
C1328 C1333 1.390 . S
C1329 C1323 1.465 . S
C1329 C1328 1.396 . S
C1329 C1330 1.399 . S
C1330 H1316 0.929 . S
C1330 C1329 1.399 . S
C1330 C1331 1.385 . S
C1331 H1317 0.931 . S
C1331 C1330 1.385 . S
C1331 C1332 1.389 . S
C1332 C1331 1.389 . S
C1332 C1333 1.387 . S
C1333 H1318 0.930 . S
C1333 C1328 1.390 . S
C1333 C1332 1.387 . S
H1334 C1346 0.930 . S
H1335 C1348 0.930 . S
H1336 C1349 0.930 . S
H1337 C1353 0.959 . S
H1338 C1353 0.959 . S
H1339 C1353 0.961 . S
H1340 C1354 0.960 . S
H1341 C1354 0.961 . S
H1342 C1354 0.959 . S
H1343 C1357 0.929 . S
H1344 C1358 0.931 . S
H1345 C1360 0.930 . S
C1346 H1334 0.930 . S
C1346 C1347 1.399 . S
C1346 C1351 1.399 . S
C1347 C1346 1.399 . S
C1347 C1348 1.376 . S
C1348 H1335 0.930 . S
C1348 C1347 1.376 . S
C1348 C1349 1.388 . S
C1349 H1336 0.930 . S
C1349 C1348 1.388 . S
C1349 C1350 1.390 . S
C1350 C1349 1.390 . S
C1350 C1351 1.394 . S
C1350 C1356 1.465 . S
C1351 C1346 1.399 . S
C1351 C1350 1.394 . S
C1351 C1352 1.516 . S
C1352 C1351 1.516 . S
C1352 C1353 1.502 . S
C1352 C1354 1.561 . S
C1352 C1355 1.526 . S
C1353 H1337 0.959 . S
C1353 H1338 0.959 . S
C1353 H1339 0.961 . S
C1353 C1352 1.502 . S
C1354 H1340 0.960 . S
C1354 H1341 0.961 . S
C1354 H1342 0.959 . S
C1354 C1352 1.561 . S
C1355 C1352 1.526 . S
C1355 C1356 1.396 . S
C1355 C1360 1.390 . S
C1356 C1350 1.465 . S
C1356 C1355 1.396 . S
C1356 C1357 1.399 . S
C1357 H1343 0.929 . S
C1357 C1356 1.399 . S
C1357 C1358 1.385 . S
C1358 H1344 0.931 . S
C1358 C1357 1.385 . S
C1358 C1359 1.389 . S
C1359 C1358 1.389 . S
C1359 C1360 1.387 . S
C1360 H1345 0.930 . S
C1360 C1355 1.390 . S
C1360 C1359 1.387 . S
H1361 C1373 0.930 . S
H1362 C1375 0.926 1_565 S
H1363 C1376 0.930 . S
H1364 C1380 0.959 . S
H1365 C1380 0.959 . S
H1366 C1380 0.961 . S
H1367 C1381 0.960 1_565 S
H1368 C1381 0.961 1_554 S
H1369 C1381 0.959 1_554 S
H1370 C1384 0.929 . S
H1371 C1385 0.931 . S
H1372 C1387 0.930 . S
C1373 H1361 0.930 . S
C1373 C1374 1.399 . S
C1373 C1378 1.399 1_565 S
C1374 C1373 1.399 . S
C1374 C1375 1.370 1_565 S
C1375 H1362 0.926 1_545 S
C1375 C1374 1.370 1_545 S
C1375 C1376 1.400 . S
C1376 H1363 0.930 . S
C1376 C1375 1.400 . S
C1376 C1377 1.390 . S
C1377 C1376 1.390 . S
C1377 C1378 1.394 . S
C1377 C1383 1.465 . S
C1378 C1373 1.399 1_545 S
C1378 C1377 1.394 . S
C1378 C1379 1.516 . S
C1379 C1378 1.516 . S
C1379 C1380 1.502 . S
C1379 C1381 1.561 . S
C1379 C1382 1.526 . S
C1380 H1364 0.959 . S
C1380 H1365 0.959 . S
C1380 H1366 0.961 . S
C1380 C1379 1.502 . S
C1381 H1367 0.960 1_545 S
C1381 H1368 0.961 1_556 S
C1381 H1369 0.959 1_556 S
C1381 C1379 1.561 . S
C1382 C1379 1.526 . S
C1382 C1383 1.396 . S
C1382 C1387 1.390 1_556 S
C1383 C1377 1.465 . S
C1383 C1382 1.396 . S
C1383 C1384 1.399 1_556 S
C1384 H1370 0.929 . S
C1384 C1383 1.399 1_554 S
C1384 C1385 1.385 . S
C1385 H1371 0.931 . S
C1385 C1384 1.385 . S
C1385 C1386 1.389 . S
C1386 C1385 1.389 . S
C1386 C1387 1.387 . S
C1387 H1372 0.930 . S
C1387 C1382 1.390 1_554 S
C1387 C1386 1.387 . S
H1388 C1400 0.930 . S
H1389 C1402 0.930 . S
H1390 C1403 0.930 . S
H1391 C1407 0.959 . S
H1392 C1407 0.959 . S
H1393 C1407 0.961 . S
H1394 C1408 0.960 . S
H1395 C1408 0.961 . S
H1396 C1408 0.959 . S
H1397 C1411 0.929 . S
H1398 C1412 0.931 . S
H1399 C1414 0.930 . S
C1400 H1388 0.930 . S
C1400 C1401 1.399 . S
C1400 C1405 1.399 . S
C1401 C1400 1.399 . S
C1401 C1402 1.376 . S
C1402 H1389 0.930 . S
C1402 C1401 1.376 . S
C1402 C1403 1.388 . S
C1403 H1390 0.930 . S
C1403 C1402 1.388 . S
C1403 C1404 1.390 . S
C1404 C1403 1.390 . S
C1404 C1405 1.394 . S
C1404 C1410 1.465 . S
C1405 C1400 1.399 . S
C1405 C1404 1.394 . S
C1405 C1406 1.516 . S
C1406 C1405 1.516 . S
C1406 C1407 1.502 . S
C1406 C1408 1.561 . S
C1406 C1409 1.526 . S
C1407 H1391 0.959 . S
C1407 H1392 0.959 . S
C1407 H1393 0.961 . S
C1407 C1406 1.502 . S
C1408 H1394 0.960 . S
C1408 H1395 0.961 . S
C1408 H1396 0.959 . S
C1408 C1406 1.561 . S
C1409 C1406 1.526 . S
C1409 C1410 1.396 . S
C1409 C1414 1.390 . S
C1410 C1404 1.465 . S
C1410 C1409 1.396 . S
C1410 C1411 1.399 . S
C1411 H1397 0.929 . S
C1411 C1410 1.399 . S
C1411 C1412 1.385 . S
C1412 H1398 0.931 . S
C1412 C1411 1.385 . S
C1412 C1413 1.389 . S
C1413 C1412 1.389 . S
C1413 C1414 1.387 . S
C1414 H1399 0.930 . S
C1414 C1409 1.390 . S
C1414 C1413 1.387 . S
H1415 C1427 0.930 . S
H1416 C1429 0.930 . S
H1417 C1430 0.930 . S
H1418 C1434 0.959 . S
H1419 C1434 0.959 1_545 S
H1420 C1434 0.961 . S
H1421 C1435 0.955 1_565 S
H1422 C1435 0.979 . S
H1423 C1435 0.958 1_565 S
H1424 C1438 0.929 . S
H1425 C1439 0.931 . S
H1426 C1441 0.930 . S
C1427 H1415 0.930 . S
C1427 C1428 1.399 . S
C1427 C1432 1.399 . S
C1428 C1427 1.399 . S
C1428 C1429 1.376 . S
C1429 H1416 0.930 . S
C1429 C1428 1.376 . S
C1429 C1430 1.388 . S
C1430 H1417 0.930 . S
C1430 C1429 1.388 . S
C1430 C1431 1.390 . S
C1431 C1430 1.390 . S
C1431 C1432 1.394 . S
C1431 C1437 1.465 . S
C1432 C1427 1.399 . S
C1432 C1431 1.394 . S
C1432 C1433 1.516 . S
C1433 C1432 1.516 . S
C1433 C1434 1.502 . S
C1433 C1435 1.549 1_565 S
C1433 C1436 1.526 . S
C1434 H1418 0.959 . S
C1434 H1419 0.959 1_565 S
C1434 H1420 0.961 . S
C1434 C1433 1.502 . S
C1435 H1421 0.955 1_545 S
C1435 H1422 0.979 . S
C1435 H1423 0.958 1_545 S
C1435 C1433 1.549 1_545 S
C1436 C1433 1.526 . S
C1436 C1437 1.396 . S
C1436 C1441 1.390 1_565 S
C1437 C1431 1.465 . S
C1437 C1436 1.396 . S
C1437 C1438 1.399 . S
C1438 H1424 0.929 . S
C1438 C1437 1.399 . S
C1438 C1439 1.385 . S
C1439 H1425 0.931 . S
C1439 C1438 1.385 . S
C1439 C1440 1.389 1_565 S
C1440 C1439 1.389 1_545 S
C1440 C1441 1.387 . S
C1441 H1426 0.930 . S
C1441 C1436 1.390 1_545 S
C1441 C1440 1.387 . S
H1442 C1454 0.930 . S
H1443 C1456 0.930 . S
H1444 C1457 0.930 . S
H1445 C1461 0.959 . S
H1446 C1461 0.959 . S
H1447 C1461 0.961 . S
H1448 C1462 0.960 . S
H1449 C1462 0.961 . S
H1450 C1462 0.959 . S
H1451 C1465 0.929 . S
H1452 C1466 0.931 . S
H1453 C1468 0.930 . S
C1454 H1442 0.930 . S
C1454 C1455 1.399 . S
C1454 C1459 1.399 . S
C1455 C1454 1.399 . S
C1455 C1456 1.376 . S
C1456 H1443 0.930 . S
C1456 C1455 1.376 . S
C1456 C1457 1.388 . S
C1457 H1444 0.930 . S
C1457 C1456 1.388 . S
C1457 C1458 1.390 . S
C1458 C1457 1.390 . S
C1458 C1459 1.394 . S
C1458 C1464 1.465 . S
C1459 C1454 1.399 . S
C1459 C1458 1.394 . S
C1459 C1460 1.516 . S
C1460 C1459 1.516 . S
C1460 C1461 1.502 . S
C1460 C1462 1.561 . S
C1460 C1463 1.526 . S
C1461 H1445 0.959 . S
C1461 H1446 0.959 . S
C1461 H1447 0.961 . S
C1461 C1460 1.502 . S
C1462 H1448 0.960 . S
C1462 H1449 0.961 . S
C1462 H1450 0.959 . S
C1462 C1460 1.561 . S
C1463 C1460 1.526 . S
C1463 C1464 1.396 . S
C1463 C1468 1.390 . S
C1464 C1458 1.465 . S
C1464 C1463 1.396 . S
C1464 C1465 1.399 . S
C1465 H1451 0.929 . S
C1465 C1464 1.399 . S
C1465 C1466 1.385 . S
C1466 H1452 0.931 . S
C1466 C1465 1.385 . S
C1466 C1467 1.389 . S
C1467 C1466 1.389 . S
C1467 C1468 1.387 . S
C1468 H1453 0.930 . S
C1468 C1463 1.390 . S
C1468 C1467 1.387 . S
H1469 C1481 0.930 . S
H1470 C1483 0.930 . S
H1471 C1484 0.930 . S
H1472 C1488 0.959 . S
H1473 C1488 0.959 . S
H1474 C1488 0.961 . S
H1475 C1489 0.960 . S
H1476 C1489 0.961 . S
H1477 C1489 0.959 . S
H1478 C1492 0.929 . S
H1479 C1493 0.931 . S
H1480 C1495 0.930 . S
C1481 H1469 0.930 . S
C1481 C1482 1.399 1_545 S
C1481 C1486 1.399 . S
C1482 C1481 1.399 1_565 S
C1482 C1483 1.376 . S
C1483 H1470 0.930 . S
C1483 C1482 1.376 . S
C1483 C1484 1.388 . S
C1484 H1471 0.930 . S
C1484 C1483 1.388 . S
C1484 C1485 1.390 1_565 S
C1485 C1484 1.390 1_545 S
C1485 C1486 1.394 . S
C1485 C1491 1.465 . S
C1486 C1481 1.399 . S
C1486 C1485 1.394 . S
C1486 C1487 1.516 . S
C1487 C1486 1.516 . S
C1487 C1488 1.502 . S
C1487 C1489 1.561 . S
C1487 C1490 1.526 . S
C1488 H1472 0.959 . S
C1488 H1473 0.959 . S
C1488 H1474 0.961 . S
C1488 C1487 1.502 . S
C1489 H1475 0.960 . S
C1489 H1476 0.961 . S
C1489 H1477 0.959 . S
C1489 C1487 1.561 . S
C1490 C1487 1.526 . S
C1490 C1491 1.396 . S
C1490 C1495 1.390 1_554 S
C1491 C1485 1.465 . S
C1491 C1490 1.396 . S
C1491 C1492 1.399 1_554 S
C1492 H1478 0.929 . S
C1492 C1491 1.399 1_556 S
C1492 C1493 1.385 . S
C1493 H1479 0.931 . S
C1493 C1492 1.385 . S
C1493 C1494 1.389 . S
C1494 C1493 1.389 . S
C1494 C1495 1.387 . S
C1495 H1480 0.930 . S
C1495 C1490 1.390 1_556 S
C1495 C1494 1.387 . S
H1496 C1508 0.930 . S
H1497 C1510 0.930 . S
H1498 C1511 0.930 . S
H1499 C1515 0.959 . S
H1500 C1515 0.959 . S
H1501 C1515 0.961 . S
H1502 C1516 0.960 . S
H1503 C1516 0.961 . S
H1504 C1516 0.959 . S
H1505 C1519 0.929 . S
H1506 C1520 0.931 . S
H1507 C1522 0.930 . S
C1508 H1496 0.930 . S
C1508 C1509 1.399 . S
C1508 C1513 1.399 . S
C1509 C1508 1.399 . S
C1509 C1510 1.376 . S
C1510 H1497 0.930 . S
C1510 C1509 1.376 . S
C1510 C1511 1.388 . S
C1511 H1498 0.930 . S
C1511 C1510 1.388 . S
C1511 C1512 1.390 . S
C1512 C1511 1.390 . S
C1512 C1513 1.394 . S
C1512 C1518 1.465 . S
C1513 C1508 1.399 . S
C1513 C1512 1.394 . S
C1513 C1514 1.516 . S
C1514 C1513 1.516 . S
C1514 C1515 1.502 . S
C1514 C1516 1.561 . S
C1514 C1517 1.526 . S
C1515 H1499 0.959 . S
C1515 H1500 0.959 . S
C1515 H1501 0.961 . S
C1515 C1514 1.502 . S
C1516 H1502 0.960 . S
C1516 H1503 0.961 . S
C1516 H1504 0.959 . S
C1516 C1514 1.561 . S
C1517 C1514 1.526 . S
C1517 C1518 1.396 . S
C1517 C1522 1.390 . S
C1518 C1512 1.465 . S
C1518 C1517 1.396 . S
C1518 C1519 1.399 . S
C1519 H1505 0.929 . S
C1519 C1518 1.399 . S
C1519 C1520 1.385 . S
C1520 H1506 0.931 . S
C1520 C1519 1.385 . S
C1520 C1521 1.389 . S
C1521 C1520 1.389 . S
C1521 C1522 1.387 . S
C1522 H1507 0.930 . S
C1522 C1517 1.390 . S
C1522 C1521 1.387 . S
H1523 C1535 0.930 . S
H1524 C1537 0.930 . S
H1525 C1538 0.930 . S
H1526 C1542 0.959 . S
H1527 C1542 0.959 . S
H1528 C1542 0.961 . S
H1529 C1543 0.960 . S
H1530 C1543 0.961 . S
H1531 C1543 0.959 . S
H1532 C1546 0.929 . S
H1533 C1547 0.931 . S
H1534 C1549 0.930 . S
C1535 H1523 0.930 . S
C1535 C1536 1.399 . S
C1535 C1540 1.399 . S
C1536 C1535 1.399 . S
C1536 C1537 1.376 . S
C1537 H1524 0.930 . S
C1537 C1536 1.376 . S
C1537 C1538 1.388 . S
C1538 H1525 0.930 . S
C1538 C1537 1.388 . S
C1538 C1539 1.390 . S
C1539 C1538 1.390 . S
C1539 C1540 1.394 . S
C1539 C1545 1.465 . S
C1540 C1535 1.399 . S
C1540 C1539 1.394 . S
C1540 C1541 1.516 . S
C1541 C1540 1.516 . S
C1541 C1542 1.502 . S
C1541 C1543 1.561 . S
C1541 C1544 1.526 . S
C1542 H1526 0.959 . S
C1542 H1527 0.959 . S
C1542 H1528 0.961 . S
C1542 C1541 1.502 . S
C1543 H1529 0.960 . S
C1543 H1530 0.961 . S
C1543 H1531 0.959 . S
C1543 C1541 1.561 . S
C1544 C1541 1.526 . S
C1544 C1545 1.396 . S
C1544 C1549 1.390 . S
C1545 C1539 1.465 . S
C1545 C1544 1.396 . S
C1545 C1546 1.399 1_545 S
C1546 H1532 0.929 . S
C1546 C1545 1.399 1_565 S
C1546 C1547 1.385 . S
C1547 H1533 0.931 . S
C1547 C1546 1.385 . S
C1547 C1548 1.389 . S
C1548 C1547 1.389 . S
C1548 C1549 1.387 1_565 S
C1549 H1534 0.930 . S
C1549 C1544 1.390 . S
C1549 C1548 1.387 1_545 S
H1550 C1562 0.930 . S
H1551 C1564 0.930 . S
H1552 C1565 0.930 . S
H1553 C1569 0.959 . S
H1554 C1569 0.959 . S
H1555 C1569 0.961 . S
H1556 C1570 0.960 . S
H1557 C1570 0.961 . S
H1558 C1570 0.959 . S
H1559 C1573 0.929 . S
H1560 C1574 0.931 . S
H1561 C1576 0.930 . S
C1562 H1550 0.930 . S
C1562 C1563 1.399 . S
C1562 C1567 1.399 . S
C1563 C1562 1.399 . S
C1563 C1564 1.376 . S
C1564 H1551 0.930 . S
C1564 C1563 1.376 . S
C1564 C1565 1.388 . S
C1565 H1552 0.930 . S
C1565 C1564 1.388 . S
C1565 C1566 1.390 . S
C1566 C1565 1.390 . S
C1566 C1567 1.394 . S
C1566 C1572 1.465 . S
C1567 C1562 1.399 . S
C1567 C1566 1.394 . S
C1567 C1568 1.516 . S
C1568 C1567 1.516 . S
C1568 C1569 1.502 . S
C1568 C1570 1.561 . S
C1568 C1571 1.526 . S
C1569 H1553 0.959 . S
C1569 H1554 0.959 . S
C1569 H1555 0.961 . S
C1569 C1568 1.502 . S
C1570 H1556 0.960 . S
C1570 H1557 0.961 . S
C1570 H1558 0.959 . S
C1570 C1568 1.561 . S
C1571 C1568 1.526 . S
C1571 C1572 1.396 . S
C1571 C1576 1.390 . S
C1572 C1566 1.465 . S
C1572 C1571 1.396 . S
C1572 C1573 1.399 . S
C1573 H1559 0.929 . S
C1573 C1572 1.399 . S
C1573 C1574 1.385 . S
C1574 H1560 0.931 . S
C1574 C1573 1.385 . S
C1574 C1575 1.389 . S
C1575 C1574 1.389 . S
C1575 C1576 1.387 . S
C1576 H1561 0.930 . S
C1576 C1571 1.390 . S
C1576 C1575 1.387 . S
H1577 C1589 0.930 . S
H1578 C1591 0.930 . S
H1579 C1592 0.930 . S
H1580 C1596 0.956 1_565 S
H1581 C1596 0.988 . S
H1582 C1596 0.953 1_565 S
H1583 C1597 0.960 . S
H1584 C1597 0.961 1_545 S
H1585 C1597 0.959 . S
H1586 C1600 0.929 . S
H1587 C1601 0.931 . S
H1588 C1603 0.930 . S
C1589 H1577 0.930 . S
C1589 C1590 1.399 . S
C1589 C1594 1.399 . S
C1590 C1589 1.399 . S
C1590 C1591 1.376 1_556 S
C1591 H1578 0.930 . S
C1591 C1590 1.376 1_554 S
C1591 C1592 1.388 . S
C1592 H1579 0.930 . S
C1592 C1591 1.388 . S
C1592 C1593 1.390 . S
C1593 C1592 1.390 . S
C1593 C1594 1.394 1_554 S
C1593 C1599 1.465 . S
C1594 C1589 1.399 . S
C1594 C1593 1.394 1_556 S
C1594 C1595 1.516 . S
C1595 C1594 1.516 . S
C1595 C1596 1.483 1_565 S
C1595 C1597 1.561 . S
C1595 C1598 1.526 1_556 S
C1596 H1580 0.956 1_545 S
C1596 H1581 0.988 . S
C1596 H1582 0.953 1_545 S
C1596 C1595 1.483 1_545 S
C1597 H1583 0.960 . S
C1597 H1584 0.961 1_565 S
C1597 H1585 0.959 . S
C1597 C1595 1.561 . S
C1598 C1595 1.526 1_554 S
C1598 C1599 1.396 . S
C1598 C1603 1.390 1_565 S
C1599 C1593 1.465 . S
C1599 C1598 1.396 . S
C1599 C1600 1.399 . S
C1600 H1586 0.929 . S
C1600 C1599 1.399 . S
C1600 C1601 1.385 . S
C1601 H1587 0.931 . S
C1601 C1600 1.385 . S
C1601 C1602 1.389 1_565 S
C1602 C1601 1.389 1_545 S
C1602 C1603 1.387 . S
C1603 H1588 0.930 . S
C1603 C1598 1.390 1_545 S
C1603 C1602 1.387 . S
H1604 C1616 0.930 . S
H1605 C1618 0.930 . S
H1606 C1619 0.930 . S
H1607 C1623 0.959 . S
H1608 C1623 0.959 . S
H1609 C1623 0.961 . S
H1610 C1624 0.960 . S
H1611 C1624 0.961 . S
H1612 C1624 0.959 . S
H1613 C1627 0.929 . S
H1614 C1628 0.931 . S
H1615 C1630 0.930 . S
C1616 H1604 0.930 . S
C1616 C1617 1.399 . S
C1616 C1621 1.399 . S
C1617 C1616 1.399 . S
C1617 C1618 1.376 . S
C1618 H1605 0.930 . S
C1618 C1617 1.376 . S
C1618 C1619 1.388 . S
C1619 H1606 0.930 . S
C1619 C1618 1.388 . S
C1619 C1620 1.390 . S
C1620 C1619 1.390 . S
C1620 C1621 1.394 . S
C1620 C1626 1.465 . S
C1621 C1616 1.399 . S
C1621 C1620 1.394 . S
C1621 C1622 1.516 . S
C1622 C1621 1.516 . S
C1622 C1623 1.502 . S
C1622 C1624 1.561 . S
C1622 C1625 1.526 . S
C1623 H1607 0.959 . S
C1623 H1608 0.959 . S
C1623 H1609 0.961 . S
C1623 C1622 1.502 . S
C1624 H1610 0.960 . S
C1624 H1611 0.961 . S
C1624 H1612 0.959 . S
C1624 C1622 1.561 . S
C1625 C1622 1.526 . S
C1625 C1626 1.396 . S
C1625 C1630 1.390 . S
C1626 C1620 1.465 . S
C1626 C1625 1.396 . S
C1626 C1627 1.399 . S
C1627 H1613 0.929 . S
C1627 C1626 1.399 . S
C1627 C1628 1.385 . S
C1628 H1614 0.931 . S
C1628 C1627 1.385 . S
C1628 C1629 1.389 . S
C1629 C1628 1.389 . S
C1629 C1630 1.387 . S
C1630 H1615 0.930 . S
C1630 C1625 1.390 . S
C1630 C1629 1.387 . S
H1631 C1643 0.930 . S
H1632 C1645 0.930 . S
H1633 C1646 0.930 . S
H1634 C1650 0.959 . S
H1635 C1650 0.959 . S
H1636 C1650 0.961 . S
H1637 C1651 0.960 . S
H1638 C1651 0.961 . S
H1639 C1651 0.959 . S
H1640 C1654 0.929 . S
H1641 C1655 0.931 . S
H1642 C1657 0.930 . S
C1643 H1631 0.930 . S
C1643 C1644 1.399 . S
C1643 C1648 1.399 . S
C1644 C1643 1.399 . S
C1644 C1645 1.376 . S
C1645 H1632 0.930 . S
C1645 C1644 1.376 . S
C1645 C1646 1.388 . S
C1646 H1633 0.930 . S
C1646 C1645 1.388 . S
C1646 C1647 1.390 . S
C1647 C1646 1.390 . S
C1647 C1648 1.394 . S
C1647 C1653 1.465 . S
C1648 C1643 1.399 . S
C1648 C1647 1.394 . S
C1648 C1649 1.516 . S
C1649 C1648 1.516 . S
C1649 C1650 1.502 . S
C1649 C1651 1.561 . S
C1649 C1652 1.526 . S
C1650 H1634 0.959 . S
C1650 H1635 0.959 . S
C1650 H1636 0.961 . S
C1650 C1649 1.502 . S
C1651 H1637 0.960 . S
C1651 H1638 0.961 . S
C1651 H1639 0.959 . S
C1651 C1649 1.561 . S
C1652 C1649 1.526 . S
C1652 C1653 1.396 . S
C1652 C1657 1.390 . S
C1653 C1647 1.465 . S
C1653 C1652 1.396 . S
C1653 C1654 1.399 1_545 S
C1654 H1640 0.929 . S
C1654 C1653 1.399 1_565 S
C1654 C1655 1.385 . S
C1655 H1641 0.931 . S
C1655 C1654 1.385 . S
C1655 C1656 1.389 . S
C1656 C1655 1.389 . S
C1656 C1657 1.387 1_565 S
C1657 H1642 0.930 . S
C1657 C1652 1.390 . S
C1657 C1656 1.387 1_545 S
H1658 C1670 0.930 . S
H1659 C1672 0.930 . S
H1660 C1673 0.930 . S
H1661 C1677 0.959 . S
H1662 C1677 0.959 . S
H1663 C1677 0.961 . S
H1664 C1678 0.960 . S
H1665 C1678 0.961 . S
H1666 C1678 0.959 . S
H1667 C1681 0.929 . S
H1668 C1682 0.931 . S
H1669 C1684 0.930 . S
C1670 H1658 0.930 . S
C1670 C1671 1.399 . S
C1670 C1675 1.399 . S
C1671 C1670 1.399 . S
C1671 C1672 1.376 . S
C1672 H1659 0.930 . S
C1672 C1671 1.376 . S
C1672 C1673 1.388 . S
C1673 H1660 0.930 . S
C1673 C1672 1.388 . S
C1673 C1674 1.390 . S
C1674 C1673 1.390 . S
C1674 C1675 1.394 . S
C1674 C1680 1.465 . S
C1675 C1670 1.399 . S
C1675 C1674 1.394 . S
C1675 C1676 1.516 . S
C1676 C1675 1.516 . S
C1676 C1677 1.502 . S
C1676 C1678 1.561 . S
C1676 C1679 1.526 . S
C1677 H1661 0.959 . S
C1677 H1662 0.959 . S
C1677 H1663 0.961 . S
C1677 C1676 1.502 . S
C1678 H1664 0.960 . S
C1678 H1665 0.961 . S
C1678 H1666 0.959 . S
C1678 C1676 1.561 . S
C1679 C1676 1.526 . S
C1679 C1680 1.396 . S
C1679 C1684 1.390 . S
C1680 C1674 1.465 . S
C1680 C1679 1.396 . S
C1680 C1681 1.399 . S
C1681 H1667 0.929 . S
C1681 C1680 1.399 . S
C1681 C1682 1.385 . S
C1682 H1668 0.931 . S
C1682 C1681 1.385 . S
C1682 C1683 1.389 . S
C1683 C1682 1.389 . S
C1683 C1684 1.387 . S
C1684 H1669 0.930 . S
C1684 C1679 1.390 . S
C1684 C1683 1.387 . S
H1685 C1697 0.930 . S
H1686 C1699 0.930 . S
H1687 C1700 0.930 . S
H1688 C1704 0.959 . S
H1689 C1704 0.959 . S
H1690 C1704 0.961 . S
H1691 C1705 0.960 . S
H1692 C1705 0.961 . S
H1693 C1705 0.959 . S
H1694 C1708 0.929 . S
H1695 C1709 0.931 . S
H1696 C1711 0.930 . S
C1697 H1685 0.930 . S
C1697 C1698 1.399 1_565 S
C1697 C1702 1.399 . S
C1698 C1697 1.399 1_545 S
C1698 C1699 1.376 . S
C1699 H1686 0.930 . S
C1699 C1698 1.376 . S
C1699 C1700 1.388 1_545 S
C1700 H1687 0.930 . S
C1700 C1699 1.388 1_565 S
C1700 C1701 1.390 . S
C1701 C1700 1.390 . S
C1701 C1702 1.394 . S
C1701 C1707 1.465 . S
C1702 C1697 1.399 . S
C1702 C1701 1.394 . S
C1702 C1703 1.516 . S
C1703 C1702 1.516 . S
C1703 C1704 1.502 . S
C1703 C1705 1.561 1_556 S
C1703 C1706 1.526 . S
C1704 H1688 0.959 . S
C1704 H1689 0.959 . S
C1704 H1690 0.961 . S
C1704 C1703 1.502 . S
C1705 H1691 0.960 . S
C1705 H1692 0.961 . S
C1705 H1693 0.959 . S
C1705 C1703 1.561 1_554 S
C1706 C1703 1.526 . S
C1706 C1707 1.396 . S
C1706 C1711 1.390 1_556 S
C1707 C1701 1.465 . S
C1707 C1706 1.396 . S
C1707 C1708 1.399 . S
C1708 H1694 0.929 . S
C1708 C1707 1.399 . S
C1708 C1709 1.385 1_556 S
C1709 H1695 0.931 . S
C1709 C1708 1.385 1_554 S
C1709 C1710 1.389 . S
C1710 C1709 1.389 . S
C1710 C1711 1.387 . S
C1711 H1696 0.930 . S
C1711 C1706 1.390 1_554 S
C1711 C1710 1.387 . S
H1712 C1724 0.930 . S
H1713 C1726 0.930 . S
H1714 C1727 0.930 . S
H1715 C1731 0.959 . S
H1716 C1731 0.959 . S
H1717 C1731 0.961 . S
H1718 C1732 0.960 . S
H1719 C1732 0.961 . S
H1720 C1732 0.959 . S
H1721 C1735 0.929 . S
H1722 C1736 0.931 . S
H1723 C1738 0.930 . S
C1724 H1712 0.930 . S
C1724 C1725 1.399 . S
C1724 C1729 1.399 . S
C1725 C1724 1.399 . S
C1725 C1726 1.376 . S
C1726 H1713 0.930 . S
C1726 C1725 1.376 . S
C1726 C1727 1.388 . S
C1727 H1714 0.930 . S
C1727 C1726 1.388 . S
C1727 C1728 1.390 . S
C1728 C1727 1.390 . S
C1728 C1729 1.394 . S
C1728 C1734 1.465 . S
C1729 C1724 1.399 . S
C1729 C1728 1.394 . S
C1729 C1730 1.516 . S
C1730 C1729 1.516 . S
C1730 C1731 1.502 . S
C1730 C1732 1.561 . S
C1730 C1733 1.526 . S
C1731 H1715 0.959 . S
C1731 H1716 0.959 . S
C1731 H1717 0.961 . S
C1731 C1730 1.502 . S
C1732 H1718 0.960 . S
C1732 H1719 0.961 . S
C1732 H1720 0.959 . S
C1732 C1730 1.561 . S
C1733 C1730 1.526 . S
C1733 C1734 1.396 . S
C1733 C1738 1.390 . S
C1734 C1728 1.465 . S
C1734 C1733 1.396 . S
C1734 C1735 1.399 . S
C1735 H1721 0.929 . S
C1735 C1734 1.399 . S
C1735 C1736 1.385 . S
C1736 H1722 0.931 . S
C1736 C1735 1.385 . S
C1736 C1737 1.389 . S
C1737 C1736 1.389 . S
C1737 C1738 1.387 . S
C1738 H1723 0.930 . S
C1738 C1733 1.390 . S
C1738 C1737 1.387 . S
H1739 C1751 0.930 . S
H1740 C1753 0.930 . S
H1741 C1754 0.930 . S
H1742 C1758 0.959 . S
H1743 C1758 0.959 . S
H1744 C1758 0.961 . S
H1745 C1759 0.960 . S
H1746 C1759 0.961 . S
H1747 C1759 0.959 . S
H1748 C1762 0.929 . S
H1749 C1763 0.931 . S
H1750 C1765 0.930 . S
C1751 H1739 0.930 . S
C1751 C1752 1.399 . S
C1751 C1756 1.399 . S
C1752 C1751 1.399 . S
C1752 C1753 1.376 . S
C1753 H1740 0.930 . S
C1753 C1752 1.376 . S
C1753 C1754 1.388 . S
C1754 H1741 0.930 . S
C1754 C1753 1.388 . S
C1754 C1755 1.390 . S
C1755 C1754 1.390 . S
C1755 C1756 1.394 . S
C1755 C1761 1.465 . S
C1756 C1751 1.399 . S
C1756 C1755 1.394 . S
C1756 C1757 1.516 1_556 S
C1757 C1756 1.516 1_554 S
C1757 C1758 1.502 . S
C1757 C1759 1.561 . S
C1757 C1760 1.526 . S
C1758 H1742 0.959 . S
C1758 H1743 0.959 . S
C1758 H1744 0.961 . S
C1758 C1757 1.502 . S
C1759 H1745 0.960 . S
C1759 H1746 0.961 . S
C1759 H1747 0.959 . S
C1759 C1757 1.561 . S
C1760 C1757 1.526 . S
C1760 C1761 1.396 1_554 S
C1760 C1765 1.390 . S
C1761 C1755 1.465 . S
C1761 C1760 1.396 1_556 S
C1761 C1762 1.399 . S
C1762 H1748 0.929 . S
C1762 C1761 1.399 . S
C1762 C1763 1.385 . S
C1763 H1749 0.931 . S
C1763 C1762 1.385 . S
C1763 C1764 1.389 1_556 S
C1764 C1763 1.389 1_554 S
C1764 C1765 1.387 . S
C1765 H1750 0.930 . S
C1765 C1760 1.390 . S
C1765 C1764 1.387 . S
H1766 C1778 0.930 . S
H1767 C1780 0.930 . S
H1768 C1781 0.930 . S
H1769 C1785 0.959 . S
H1770 C1785 0.959 . S
H1771 C1785 0.961 . S
H1772 C1786 0.960 . S
H1773 C1786 0.961 . S
H1774 C1786 0.959 . S
H1775 C1789 0.929 . S
H1776 C1790 0.931 . S
H1777 C1792 0.930 . S
C1778 H1766 0.930 . S
C1778 C1779 1.399 . S
C1778 C1783 1.399 . S
C1779 C1778 1.399 . S
C1779 C1780 1.376 . S
C1780 H1767 0.930 . S
C1780 C1779 1.376 . S
C1780 C1781 1.388 . S
C1781 H1768 0.930 . S
C1781 C1780 1.388 . S
C1781 C1782 1.390 . S
C1782 C1781 1.390 . S
C1782 C1783 1.394 . S
C1782 C1788 1.465 . S
C1783 C1778 1.399 . S
C1783 C1782 1.394 . S
C1783 C1784 1.516 . S
C1784 C1783 1.516 . S
C1784 C1785 1.502 . S
C1784 C1786 1.561 . S
C1784 C1787 1.526 . S
C1785 H1769 0.959 . S
C1785 H1770 0.959 . S
C1785 H1771 0.961 . S
C1785 C1784 1.502 . S
C1786 H1772 0.960 . S
C1786 H1773 0.961 . S
C1786 H1774 0.959 . S
C1786 C1784 1.561 . S
C1787 C1784 1.526 . S
C1787 C1788 1.396 . S
C1787 C1792 1.390 . S
C1788 C1782 1.465 . S
C1788 C1787 1.396 . S
C1788 C1789 1.399 . S
C1789 H1775 0.929 . S
C1789 C1788 1.399 . S
C1789 C1790 1.385 . S
C1790 H1776 0.931 . S
C1790 C1789 1.385 . S
C1790 C1791 1.389 . S
C1791 C1790 1.389 . S
C1791 C1792 1.387 . S
C1792 H1777 0.930 . S
C1792 C1787 1.390 . S
C1792 C1791 1.387 . S
H1793 C1805 0.930 . S
H1794 C1807 0.930 . S
H1795 C1808 0.930 . S
H1796 C1812 0.959 . S
H1797 C1812 0.959 . S
H1798 C1812 0.961 . S
H1799 C1813 0.960 . S
H1800 C1813 0.961 . S
H1801 C1813 0.959 . S
H1802 C1816 0.929 . S
H1803 C1817 0.931 . S
H1804 C1819 0.930 . S
C1805 H1793 0.930 . S
C1805 C1806 1.399 . S
C1805 C1810 1.399 . S
C1806 C1805 1.399 . S
C1806 C1807 1.376 . S
C1807 H1794 0.930 . S
C1807 C1806 1.376 . S
C1807 C1808 1.388 . S
C1808 H1795 0.930 . S
C1808 C1807 1.388 . S
C1808 C1809 1.390 . S
C1809 C1808 1.390 . S
C1809 C1810 1.394 . S
C1809 C1815 1.465 . S
C1810 C1805 1.399 . S
C1810 C1809 1.394 . S
C1810 C1811 1.516 . S
C1811 C1810 1.516 . S
C1811 C1812 1.502 . S
C1811 C1813 1.561 . S
C1811 C1814 1.526 . S
C1812 H1796 0.959 . S
C1812 H1797 0.959 . S
C1812 H1798 0.961 . S
C1812 C1811 1.502 . S
C1813 H1799 0.960 . S
C1813 H1800 0.961 . S
C1813 H1801 0.959 . S
C1813 C1811 1.561 . S
C1814 C1811 1.526 . S
C1814 C1815 1.396 . S
C1814 C1819 1.390 . S
C1815 C1809 1.465 . S
C1815 C1814 1.396 . S
C1815 C1816 1.399 . S
C1816 H1802 0.929 . S
C1816 C1815 1.399 . S
C1816 C1817 1.385 . S
C1817 H1803 0.931 . S
C1817 C1816 1.385 . S
C1817 C1818 1.389 . S
C1818 C1817 1.389 . S
C1818 C1819 1.387 . S
C1819 H1804 0.930 . S
C1819 C1814 1.390 . S
C1819 C1818 1.387 . S
H1820 C1832 0.930 . S
H1821 C1834 0.930 . S
H1822 C1835 0.930 . S
H1823 C1839 0.959 . S
H1824 C1839 0.959 . S
H1825 C1839 0.961 . S
H1826 C1840 0.960 . S
H1827 C1840 0.961 . S
H1828 C1840 0.959 . S
H1829 C1843 0.929 . S
H1830 C1844 0.931 . S
H1831 C1846 0.930 . S
C1832 H1820 0.930 . S
C1832 C1833 1.399 . S
C1832 C1837 1.399 . S
C1833 C1832 1.399 . S
C1833 C1834 1.376 . S
C1834 H1821 0.930 . S
C1834 C1833 1.376 . S
C1834 C1835 1.388 . S
C1835 H1822 0.930 . S
C1835 C1834 1.388 . S
C1835 C1836 1.390 . S
C1836 C1835 1.390 . S
C1836 C1837 1.394 . S
C1836 C1842 1.465 . S
C1837 C1832 1.399 . S
C1837 C1836 1.394 . S
C1837 C1838 1.516 . S
C1838 C1837 1.516 . S
C1838 C1839 1.502 . S
C1838 C1840 1.561 . S
C1838 C1841 1.526 . S
C1839 H1823 0.959 . S
C1839 H1824 0.959 . S
C1839 H1825 0.961 . S
C1839 C1838 1.502 . S
C1840 H1826 0.960 . S
C1840 H1827 0.961 . S
C1840 H1828 0.959 . S
C1840 C1838 1.561 . S
C1841 C1838 1.526 . S
C1841 C1842 1.396 . S
C1841 C1846 1.390 . S
C1842 C1836 1.465 . S
C1842 C1841 1.396 . S
C1842 C1843 1.399 . S
C1843 H1829 0.929 . S
C1843 C1842 1.399 . S
C1843 C1844 1.385 . S
C1844 H1830 0.931 . S
C1844 C1843 1.385 . S
C1844 C1845 1.389 . S
C1845 C1844 1.389 . S
C1845 C1846 1.387 . S
C1846 H1831 0.930 . S
C1846 C1841 1.390 . S
C1846 C1845 1.387 . S
H1847 C1859 0.930 . S
H1848 C1861 0.930 . S
H1849 C1862 0.930 . S
H1850 C1866 0.959 . S
H1851 C1866 0.959 1_556 S
H1852 C1866 0.961 . S
H1853 C1867 0.960 . S
H1854 C1867 0.961 . S
H1855 C1867 0.959 . S
H1856 C1870 0.929 . S
H1857 C1871 0.931 . S
H1858 C1873 0.930 . S
C1859 H1847 0.930 . S
C1859 C1860 1.399 . S
C1859 C1864 1.399 . S
C1860 C1859 1.399 . S
C1860 C1861 1.376 . S
C1861 H1848 0.930 . S
C1861 C1860 1.376 . S
C1861 C1862 1.388 . S
C1862 H1849 0.930 . S
C1862 C1861 1.388 . S
C1862 C1863 1.390 . S
C1863 C1862 1.390 . S
C1863 C1864 1.394 . S
C1863 C1869 1.465 . S
C1864 C1859 1.399 . S
C1864 C1863 1.394 . S
C1864 C1865 1.516 . S
C1865 C1864 1.516 . S
C1865 C1866 1.502 . S
C1865 C1867 1.561 1_554 S
C1865 C1868 1.525 1_554 S
C1866 H1850 0.959 . S
C1866 H1851 0.959 1_554 S
C1866 H1852 0.961 . S
C1866 C1865 1.502 . S
C1867 H1853 0.960 . S
C1867 H1854 0.961 . S
C1867 H1855 0.959 . S
C1867 C1865 1.561 1_556 S
C1868 C1865 1.525 1_556 S
C1868 C1869 1.393 1_556 S
C1868 C1873 1.393 . S
C1869 C1863 1.465 . S
C1869 C1868 1.393 1_554 S
C1869 C1870 1.399 . S
C1870 H1856 0.929 . S
C1870 C1869 1.399 . S
C1870 C1871 1.385 1_554 S
C1871 H1857 0.931 . S
C1871 C1870 1.385 1_556 S
C1871 C1872 1.389 . S
C1872 C1871 1.389 . S
C1872 C1873 1.387 . S
C1873 H1858 0.930 . S
C1873 C1868 1.393 . S
C1873 C1872 1.387 . S
H1874 C1886 0.930 . S
H1875 C1888 0.930 . S
H1876 C1889 0.930 . S
H1877 C1893 0.959 . S
H1878 C1893 0.959 . S
H1879 C1893 0.961 . S
H1880 C1894 0.960 . S
H1881 C1894 0.961 . S
H1882 C1894 0.959 . S
H1883 C1897 0.929 . S
H1884 C1898 0.931 . S
H1885 C1900 0.930 . S
C1886 H1874 0.930 . S
C1886 C1887 1.399 . S
C1886 C1891 1.399 . S
C1887 C1886 1.399 . S
C1887 C1888 1.376 . S
C1888 H1875 0.930 . S
C1888 C1887 1.376 . S
C1888 C1889 1.388 . S
C1889 H1876 0.930 . S
C1889 C1888 1.388 . S
C1889 C1890 1.390 . S
C1890 C1889 1.390 . S
C1890 C1891 1.394 . S
C1890 C1896 1.465 . S
C1891 C1886 1.399 . S
C1891 C1890 1.394 . S
C1891 C1892 1.516 . S
C1892 C1891 1.516 . S
C1892 C1893 1.502 . S
C1892 C1894 1.561 . S
C1892 C1895 1.526 . S
C1893 H1877 0.959 . S
C1893 H1878 0.959 . S
C1893 H1879 0.961 . S
C1893 C1892 1.502 . S
C1894 H1880 0.960 . S
C1894 H1881 0.961 . S
C1894 H1882 0.959 . S
C1894 C1892 1.561 . S
C1895 C1892 1.526 . S
C1895 C1896 1.396 . S
C1895 C1900 1.390 . S
C1896 C1890 1.465 . S
C1896 C1895 1.396 . S
C1896 C1897 1.399 . S
C1897 H1883 0.929 . S
C1897 C1896 1.399 . S
C1897 C1898 1.385 . S
C1898 H1884 0.931 . S
C1898 C1897 1.385 . S
C1898 C1899 1.389 . S
C1899 C1898 1.389 . S
C1899 C1900 1.387 . S
C1900 H1885 0.930 . S
C1900 C1895 1.390 . S
C1900 C1899 1.387 . S
H1901 C1913 0.930 . S
H1902 C1915 0.930 . S
H1903 C1916 0.930 . S
H1904 C1920 0.959 . S
H1905 C1920 0.959 . S
H1906 C1920 0.961 . S
H1907 C1921 0.960 . S
H1908 C1921 0.961 . S
H1909 C1921 0.959 . S
H1910 C1924 0.929 . S
H1911 C1925 0.931 . S
H1912 C1927 0.930 . S
C1913 H1901 0.930 . S
C1913 C1914 1.399 . S
C1913 C1918 1.399 . S
C1914 C1913 1.399 . S
C1914 C1915 1.376 . S
C1915 H1902 0.930 . S
C1915 C1914 1.376 . S
C1915 C1916 1.388 . S
C1916 H1903 0.930 . S
C1916 C1915 1.388 . S
C1916 C1917 1.390 . S
C1917 C1916 1.390 . S
C1917 C1918 1.394 . S
C1917 C1923 1.465 . S
C1918 C1913 1.399 . S
C1918 C1917 1.394 . S
C1918 C1919 1.516 . S
C1919 C1918 1.516 . S
C1919 C1920 1.502 . S
C1919 C1921 1.561 . S
C1919 C1922 1.526 . S
C1920 H1904 0.959 . S
C1920 H1905 0.959 . S
C1920 H1906 0.961 . S
C1920 C1919 1.502 . S
C1921 H1907 0.960 . S
C1921 H1908 0.961 . S
C1921 H1909 0.959 . S
C1921 C1919 1.561 . S
C1922 C1919 1.526 . S
C1922 C1923 1.396 . S
C1922 C1927 1.390 . S
C1923 C1917 1.465 . S
C1923 C1922 1.396 . S
C1923 C1924 1.399 . S
C1924 H1910 0.929 . S
C1924 C1923 1.399 . S
C1924 C1925 1.385 . S
C1925 H1911 0.931 . S
C1925 C1924 1.385 . S
C1925 C1926 1.389 . S
C1926 C1925 1.389 . S
C1926 C1927 1.387 . S
C1927 H1912 0.930 . S
C1927 C1922 1.390 . S
C1927 C1926 1.387 . S
H1928 C1940 0.930 . S
H1929 C1942 0.930 . S
H1930 C1943 0.930 . S
H1931 C1947 0.959 . S
H1932 C1947 0.959 . S
H1933 C1947 0.961 . S
H1934 C1948 0.960 . S
H1935 C1948 0.961 . S
H1936 C1948 0.959 . S
H1937 C1951 0.929 . S
H1938 C1952 0.931 . S
H1939 C1954 0.930 . S
C1940 H1928 0.930 . S
C1940 C1941 1.399 . S
C1940 C1945 1.399 . S
C1941 C1940 1.399 . S
C1941 C1942 1.376 . S
C1942 H1929 0.930 . S
C1942 C1941 1.376 . S
C1942 C1943 1.388 . S
C1943 H1930 0.930 . S
C1943 C1942 1.388 . S
C1943 C1944 1.390 . S
C1944 C1943 1.390 . S
C1944 C1945 1.394 . S
C1944 C1950 1.465 . S
C1945 C1940 1.399 . S
C1945 C1944 1.394 . S
C1945 C1946 1.516 . S
C1946 C1945 1.516 . S
C1946 C1947 1.502 . S
C1946 C1948 1.561 . S
C1946 C1949 1.526 . S
C1947 H1931 0.959 . S
C1947 H1932 0.959 . S
C1947 H1933 0.961 . S
C1947 C1946 1.502 . S
C1948 H1934 0.960 . S
C1948 H1935 0.961 . S
C1948 H1936 0.959 . S
C1948 C1946 1.561 . S
C1949 C1946 1.526 . S
C1949 C1950 1.396 . S
C1949 C1954 1.390 . S
C1950 C1944 1.465 . S
C1950 C1949 1.396 . S
C1950 C1951 1.399 . S
C1951 H1937 0.929 . S
C1951 C1950 1.399 . S
C1951 C1952 1.385 . S
C1952 H1938 0.931 . S
C1952 C1951 1.385 . S
C1952 C1953 1.389 . S
C1953 C1952 1.389 . S
C1953 C1954 1.387 . S
C1954 H1939 0.930 . S
C1954 C1949 1.390 . S
C1954 C1953 1.387 . S
H1955 C1967 0.930 . S
H1956 C1969 0.930 . S
H1957 C1970 0.930 . S
H1958 C1974 0.959 1_554 S
H1959 C1974 0.959 . S
H1960 C1974 0.959 1_554 S
H1961 C1975 0.960 . S
H1962 C1975 0.961 . S
H1963 C1975 0.959 . S
H1964 C1978 0.929 . S
H1965 C1979 0.930 . S
H1966 C1981 0.930 . S
C1967 H1955 0.930 . S
C1967 C1968 1.399 . S
C1967 C1972 1.399 . S
C1968 C1967 1.399 . S
C1968 C1969 1.376 . S
C1969 H1956 0.930 . S
C1969 C1968 1.376 . S
C1969 C1970 1.388 . S
C1970 H1957 0.930 . S
C1970 C1969 1.388 . S
C1970 C1971 1.390 . S
C1971 C1970 1.390 . S
C1971 C1972 1.394 . S
C1971 C1977 1.465 . S
C1972 C1967 1.399 . S
C1972 C1971 1.394 . S
C1972 C1973 1.522 1_554 S
C1973 C1972 1.522 1_556 S
C1973 C1974 1.501 . S
C1973 C1975 1.557 . S
C1973 C1976 1.525 . S
C1974 H1958 0.959 1_556 S
C1974 H1959 0.959 . S
C1974 H1960 0.959 1_556 S
C1974 C1973 1.501 . S
C1975 H1961 0.960 . S
C1975 H1962 0.961 . S
C1975 H1963 0.959 . S
C1975 C1973 1.557 . S
C1976 C1973 1.525 . S
C1976 C1977 1.396 1_556 S
C1976 C1981 1.390 . S
C1977 C1971 1.465 . S
C1977 C1976 1.396 1_554 S
C1977 C1978 1.399 . S
C1978 H1964 0.929 . S
C1978 C1977 1.399 . S
C1978 C1979 1.389 . S
C1979 H1965 0.930 . S
C1979 C1978 1.389 . S
C1979 C1980 1.386 1_554 S
C1980 C1979 1.386 1_556 S
C1980 C1981 1.387 . S
C1981 H1966 0.930 . S
C1981 C1976 1.390 . S
C1981 C1980 1.387 . S
H1982 C1994 0.930 . S
H1983 C1996 0.930 . S
H1984 C1997 0.930 . S
H1985 C2001 0.959 . S
H1986 C2001 0.959 . S
H1987 C2001 0.961 . S
H1988 C2002 0.960 . S
H1989 C2002 0.961 . S
H1990 C2002 0.959 . S
H1991 C2005 0.929 . S
H1992 C2006 0.931 . S
H1993 C2008 0.930 . S
C1994 H1982 0.930 . S
C1994 C1995 1.399 . S
C1994 C1999 1.399 . S
C1995 C1994 1.399 . S
C1995 C1996 1.376 . S
C1996 H1983 0.930 . S
C1996 C1995 1.376 . S
C1996 C1997 1.388 . S
C1997 H1984 0.930 . S
C1997 C1996 1.388 . S
C1997 C1998 1.390 . S
C1998 C1997 1.390 . S
C1998 C1999 1.394 . S
C1998 C2004 1.465 . S
C1999 C1994 1.399 . S
C1999 C1998 1.394 . S
C1999 C2000 1.516 . S
C2000 C1999 1.516 . S
C2000 C2001 1.502 . S
C2000 C2002 1.561 . S
C2000 C2003 1.526 . S
C2001 H1985 0.959 . S
C2001 H1986 0.959 . S
C2001 H1987 0.961 . S
C2001 C2000 1.502 . S
C2002 H1988 0.960 . S
C2002 H1989 0.961 . S
C2002 H1990 0.959 . S
C2002 C2000 1.561 . S
C2003 C2000 1.526 . S
C2003 C2004 1.396 . S
C2003 C2008 1.390 . S
C2004 C1998 1.465 . S
C2004 C2003 1.396 . S
C2004 C2005 1.399 . S
C2005 H1991 0.929 . S
C2005 C2004 1.399 . S
C2005 C2006 1.385 . S
C2006 H1992 0.931 . S
C2006 C2005 1.385 . S
C2006 C2007 1.389 . S
C2007 C2006 1.389 . S
C2007 C2008 1.387 . S
C2008 H1993 0.930 . S
C2008 C2003 1.390 . S
C2008 C2007 1.387 . S
H2009 C2021 0.930 . S
H2010 C2023 0.930 . S
H2011 C2024 0.930 . S
H2012 C2028 0.959 . S
H2013 C2028 0.959 . S
H2014 C2028 0.961 . S
H2015 C2029 0.960 . S
H2016 C2029 0.961 . S
H2017 C2029 0.959 . S
H2018 C2032 0.929 . S
H2019 C2033 0.931 . S
H2020 C2035 0.930 . S
C2021 H2009 0.930 . S
C2021 C2022 1.399 . S
C2021 C2026 1.399 . S
C2022 C2021 1.399 . S
C2022 C2023 1.376 . S
C2023 H2010 0.930 . S
C2023 C2022 1.376 . S
C2023 C2024 1.388 . S
C2024 H2011 0.930 . S
C2024 C2023 1.388 . S
C2024 C2025 1.390 . S
C2025 C2024 1.390 . S
C2025 C2026 1.394 . S
C2025 C2031 1.465 . S
C2026 C2021 1.399 . S
C2026 C2025 1.394 . S
C2026 C2027 1.516 . S
C2027 C2026 1.516 . S
C2027 C2028 1.502 . S
C2027 C2029 1.561 . S
C2027 C2030 1.526 . S
C2028 H2012 0.959 . S
C2028 H2013 0.959 . S
C2028 H2014 0.961 . S
C2028 C2027 1.502 . S
C2029 H2015 0.960 . S
C2029 H2016 0.961 . S
C2029 H2017 0.959 . S
C2029 C2027 1.561 . S
C2030 C2027 1.526 . S
C2030 C2031 1.396 . S
C2030 C2035 1.390 . S
C2031 C2025 1.465 . S
C2031 C2030 1.396 . S
C2031 C2032 1.399 . S
C2032 H2018 0.929 . S
C2032 C2031 1.399 . S
C2032 C2033 1.385 . S
C2033 H2019 0.931 . S
C2033 C2032 1.385 . S
C2033 C2034 1.389 . S
C2034 C2033 1.389 . S
C2034 C2035 1.387 . S
C2035 H2020 0.930 . S
C2035 C2030 1.390 . S
C2035 C2034 1.387 . S
H2036 C2048 0.930 . S
H2037 C2050 0.930 . S
H2038 C2051 0.930 . S
H2039 C2055 0.959 . S
H2040 C2055 0.959 . S
H2041 C2055 0.961 . S
H2042 C2056 0.960 . S
H2043 C2056 0.961 . S
H2044 C2056 0.959 . S
H2045 C2059 0.929 . S
H2046 C2060 0.931 . S
H2047 C2062 0.930 . S
C2048 H2036 0.930 . S
C2048 C2049 1.399 . S
C2048 C2053 1.399 . S
C2049 C2048 1.399 . S
C2049 C2050 1.376 . S
C2050 H2037 0.930 . S
C2050 C2049 1.376 . S
C2050 C2051 1.388 . S
C2051 H2038 0.930 . S
C2051 C2050 1.388 . S
C2051 C2052 1.390 . S
C2052 C2051 1.390 . S
C2052 C2053 1.394 . S
C2052 C2058 1.465 . S
C2053 C2048 1.399 . S
C2053 C2052 1.394 . S
C2053 C2054 1.516 . S
C2054 C2053 1.516 . S
C2054 C2055 1.502 . S
C2054 C2056 1.561 . S
C2054 C2057 1.526 . S
C2055 H2039 0.959 . S
C2055 H2040 0.959 . S
C2055 H2041 0.961 . S
C2055 C2054 1.502 . S
C2056 H2042 0.960 . S
C2056 H2043 0.961 . S
C2056 H2044 0.959 . S
C2056 C2054 1.561 . S
C2057 C2054 1.526 . S
C2057 C2058 1.396 . S
C2057 C2062 1.390 . S
C2058 C2052 1.465 . S
C2058 C2057 1.396 . S
C2058 C2059 1.399 . S
C2059 H2045 0.929 . S
C2059 C2058 1.399 . S
C2059 C2060 1.385 . S
C2060 H2046 0.931 . S
C2060 C2059 1.385 . S
C2060 C2061 1.389 . S
C2061 C2060 1.389 . S
C2061 C2062 1.387 . S
C2062 H2047 0.930 . S
C2062 C2057 1.390 . S
C2062 C2061 1.387 . S
H2063 C2075 0.930 . S
H2064 C2077 0.930 . S
H2065 C2078 0.930 . S
H2066 C2082 0.959 1_556 S
H2067 C2082 0.959 . S
H2068 C2082 0.961 . S
H2069 C2083 0.960 . S
H2070 C2083 0.961 . S
H2071 C2083 0.959 . S
H2072 C2086 0.929 . S
H2073 C2087 0.931 . S
H2074 C2089 0.930 . S
C2075 H2063 0.930 . S
C2075 C2076 1.399 . S
C2075 C2080 1.399 . S
C2076 C2075 1.399 . S
C2076 C2077 1.376 . S
C2077 H2064 0.930 . S
C2077 C2076 1.376 . S
C2077 C2078 1.388 . S
C2078 H2065 0.930 . S
C2078 C2077 1.388 . S
C2078 C2079 1.390 . S
C2079 C2078 1.390 . S
C2079 C2080 1.394 . S
C2079 C2085 1.465 . S
C2080 C2075 1.399 . S
C2080 C2079 1.394 . S
C2080 C2081 1.516 1_556 S
C2081 C2080 1.516 1_554 S
C2081 C2082 1.502 . S
C2081 C2083 1.561 . S
C2081 C2084 1.526 . S
C2082 H2066 0.959 1_554 S
C2082 H2067 0.959 . S
C2082 H2068 0.961 . S
C2082 C2081 1.502 . S
C2083 H2069 0.960 . S
C2083 H2070 0.961 . S
C2083 H2071 0.959 . S
C2083 C2081 1.561 . S
C2084 C2081 1.526 . S
C2084 C2085 1.396 1_554 S
C2084 C2089 1.390 . S
C2085 C2079 1.465 . S
C2085 C2084 1.396 1_556 S
C2085 C2086 1.399 . S
C2086 H2072 0.929 . S
C2086 C2085 1.399 . S
C2086 C2087 1.385 . S
C2087 H2073 0.931 . S
C2087 C2086 1.385 . S
C2087 C2088 1.389 1_556 S
C2088 C2087 1.389 1_554 S
C2088 C2089 1.387 . S
C2089 H2074 0.930 . S
C2089 C2084 1.390 . S
C2089 C2088 1.387 . S
H2090 C2102 0.930 . S
H2091 C2104 0.930 . S
H2092 C2105 0.930 . S
H2093 C2109 0.959 . S
H2094 C2109 0.959 . S
H2095 C2109 0.961 . S
H2096 C2110 0.960 . S
H2097 C2110 0.961 . S
H2098 C2110 0.959 . S
H2099 C2113 0.929 . S
H2100 C2114 0.931 . S
H2101 C2116 0.930 . S
C2102 H2090 0.930 . S
C2102 C2103 1.399 . S
C2102 C2107 1.399 . S
C2103 C2102 1.399 . S
C2103 C2104 1.376 . S
C2104 H2091 0.930 . S
C2104 C2103 1.376 . S
C2104 C2105 1.388 . S
C2105 H2092 0.930 . S
C2105 C2104 1.388 . S
C2105 C2106 1.390 . S
C2106 C2105 1.390 . S
C2106 C2107 1.394 . S
C2106 C2112 1.465 . S
C2107 C2102 1.399 . S
C2107 C2106 1.394 . S
C2107 C2108 1.516 . S
C2108 C2107 1.516 . S
C2108 C2109 1.502 . S
C2108 C2110 1.561 . S
C2108 C2111 1.526 . S
C2109 H2093 0.959 . S
C2109 H2094 0.959 . S
C2109 H2095 0.961 . S
C2109 C2108 1.502 . S
C2110 H2096 0.960 . S
C2110 H2097 0.961 . S
C2110 H2098 0.959 . S
C2110 C2108 1.561 . S
C2111 C2108 1.526 . S
C2111 C2112 1.396 . S
C2111 C2116 1.390 . S
C2112 C2106 1.465 . S
C2112 C2111 1.396 . S
C2112 C2113 1.399 . S
C2113 H2099 0.929 . S
C2113 C2112 1.399 . S
C2113 C2114 1.385 . S
C2114 H2100 0.931 . S
C2114 C2113 1.385 . S
C2114 C2115 1.389 . S
C2115 C2114 1.389 . S
C2115 C2116 1.387 . S
C2116 H2101 0.930 . S
C2116 C2111 1.390 . S
C2116 C2115 1.387 . S
H2117 C2129 0.930 . S
H2118 C2131 0.930 . S
H2119 C2132 0.930 . S
H2120 C2136 0.959 . S
H2121 C2136 0.959 . S
H2122 C2136 0.961 . S
H2123 C2137 0.960 . S
H2124 C2137 0.961 . S
H2125 C2137 0.959 . S
H2126 C2140 0.929 . S
H2127 C2141 0.931 . S
H2128 C2143 0.930 . S
C2129 H2117 0.930 . S
C2129 C2130 1.399 . S
C2129 C2134 1.399 . S
C2130 C2129 1.399 . S
C2130 C2131 1.376 . S
C2131 H2118 0.930 . S
C2131 C2130 1.376 . S
C2131 C2132 1.388 . S
C2132 H2119 0.930 . S
C2132 C2131 1.388 . S
C2132 C2133 1.390 . S
C2133 C2132 1.390 . S
C2133 C2134 1.394 . S
C2133 C2139 1.465 . S
C2134 C2129 1.399 . S
C2134 C2133 1.394 . S
C2134 C2135 1.516 . S
C2135 C2134 1.516 . S
C2135 C2136 1.502 . S
C2135 C2137 1.561 . S
C2135 C2138 1.526 . S
C2136 H2120 0.959 . S
C2136 H2121 0.959 . S
C2136 H2122 0.961 . S
C2136 C2135 1.502 . S
C2137 H2123 0.960 . S
C2137 H2124 0.961 . S
C2137 H2125 0.959 . S
C2137 C2135 1.561 . S
C2138 C2135 1.526 . S
C2138 C2139 1.396 . S
C2138 C2143 1.390 . S
C2139 C2133 1.465 . S
C2139 C2138 1.396 . S
C2139 C2140 1.399 . S
C2140 H2126 0.929 . S
C2140 C2139 1.399 . S
C2140 C2141 1.385 . S
C2141 H2127 0.931 . S
C2141 C2140 1.385 . S
C2141 C2142 1.389 . S
C2142 C2141 1.389 . S
C2142 C2143 1.387 . S
C2143 H2128 0.930 . S
C2143 C2138 1.390 . S
C2143 C2142 1.387 . S
H2144 C2156 0.930 . S
H2145 C2158 0.930 . S
H2146 C2159 0.930 . S
H2147 C2163 0.959 . S
H2148 C2163 0.959 . S
H2149 C2163 0.961 . S
H2150 C2164 0.960 . S
H2151 C2164 0.961 . S
H2152 C2164 0.959 . S
H2153 C2167 0.929 . S
H2154 C2168 0.931 . S
H2155 C2170 0.930 . S
C2156 H2144 0.930 . S
C2156 C2157 1.399 . S
C2156 C2161 1.399 . S
C2157 C2156 1.399 . S
C2157 C2158 1.376 . S
C2158 H2145 0.930 . S
C2158 C2157 1.376 . S
C2158 C2159 1.388 . S
C2159 H2146 0.930 . S
C2159 C2158 1.388 . S
C2159 C2160 1.390 . S
C2160 C2159 1.390 . S
C2160 C2161 1.394 . S
C2160 C2166 1.465 . S
C2161 C2156 1.399 . S
C2161 C2160 1.394 . S
C2161 C2162 1.516 . S
C2162 C2161 1.516 . S
C2162 C2163 1.502 . S
C2162 C2164 1.561 . S
C2162 C2165 1.526 . S
C2163 H2147 0.959 . S
C2163 H2148 0.959 . S
C2163 H2149 0.961 . S
C2163 C2162 1.502 . S
C2164 H2150 0.960 . S
C2164 H2151 0.961 . S
C2164 H2152 0.959 . S
C2164 C2162 1.561 . S
C2165 C2162 1.526 . S
C2165 C2166 1.396 . S
C2165 C2170 1.390 . S
C2166 C2160 1.465 . S
C2166 C2165 1.396 . S
C2166 C2167 1.399 . S
C2167 H2153 0.929 . S
C2167 C2166 1.399 . S
C2167 C2168 1.385 . S
C2168 H2154 0.931 . S
C2168 C2167 1.385 . S
C2168 C2169 1.389 . S
C2169 C2168 1.389 . S
C2169 C2170 1.387 . S
C2170 H2155 0.930 . S
C2170 C2165 1.390 . S
C2170 C2169 1.387 . S
H2171 C2183 0.930 . S
H2172 C2185 0.930 . S
H2173 C2186 0.930 . S
H2174 C2190 0.959 . S
H2175 C2190 0.959 . S
H2176 C2190 0.961 . S
H2177 C2191 0.960 . S
H2178 C2191 0.961 1_655 S
H2179 C2191 0.959 1_655 S
H2180 C2194 0.929 . S
H2181 C2195 0.931 . S
H2182 C2197 0.930 . S
C2183 H2171 0.930 . S
C2183 C2184 1.399 . S
C2183 C2188 1.399 . S
C2184 C2183 1.399 . S
C2184 C2185 1.376 . S
C2185 H2172 0.930 . S
C2185 C2184 1.376 . S
C2185 C2186 1.388 . S
C2186 H2173 0.930 . S
C2186 C2185 1.388 . S
C2186 C2187 1.390 . S
C2187 C2186 1.390 . S
C2187 C2188 1.394 . S
C2187 C2193 1.465 . S
C2188 C2183 1.399 . S
C2188 C2187 1.394 . S
C2188 C2189 1.516 . S
C2189 C2188 1.516 . S
C2189 C2190 1.502 . S
C2189 C2191 1.561 . S
C2189 C2192 1.526 . S
C2190 H2174 0.959 . S
C2190 H2175 0.959 . S
C2190 H2176 0.961 . S
C2190 C2189 1.502 . S
C2191 H2177 0.960 . S
C2191 H2178 0.961 1_455 S
C2191 H2179 0.959 1_455 S
C2191 C2189 1.561 . S
C2192 C2189 1.526 . S
C2192 C2193 1.396 . S
C2192 C2197 1.390 1_455 S
C2193 C2187 1.465 . S
C2193 C2192 1.396 . S
C2193 C2194 1.399 . S
C2194 H2180 0.929 . S
C2194 C2193 1.399 . S
C2194 C2195 1.385 1_455 S
C2195 H2181 0.931 . S
C2195 C2194 1.385 1_655 S
C2195 C2196 1.389 . S
C2196 C2195 1.389 . S
C2196 C2197 1.387 . S
C2197 H2182 0.930 . S
C2197 C2192 1.390 1_655 S
C2197 C2196 1.387 . S
H2198 C2210 0.930 . S
H2199 C2212 0.930 . S
H2200 C2213 0.930 . S
H2201 C2217 0.959 . S
H2202 C2217 0.959 . S
H2203 C2217 0.961 . S
H2204 C2218 0.960 . S
H2205 C2218 0.961 . S
H2206 C2218 0.959 . S
H2207 C2221 0.929 . S
H2208 C2222 0.931 . S
H2209 C2224 0.930 . S
C2210 H2198 0.930 . S
C2210 C2211 1.399 . S
C2210 C2215 1.399 . S
C2211 C2210 1.399 . S
C2211 C2212 1.376 . S
C2212 H2199 0.930 . S
C2212 C2211 1.376 . S
C2212 C2213 1.388 . S
C2213 H2200 0.930 . S
C2213 C2212 1.388 . S
C2213 C2214 1.390 . S
C2214 C2213 1.390 . S
C2214 C2215 1.394 . S
C2214 C2220 1.465 . S
C2215 C2210 1.399 . S
C2215 C2214 1.394 . S
C2215 C2216 1.516 . S
C2216 C2215 1.516 . S
C2216 C2217 1.502 . S
C2216 C2218 1.561 . S
C2216 C2219 1.526 . S
C2217 H2201 0.959 . S
C2217 H2202 0.959 . S
C2217 H2203 0.961 . S
C2217 C2216 1.502 . S
C2218 H2204 0.960 . S
C2218 H2205 0.961 . S
C2218 H2206 0.959 . S
C2218 C2216 1.561 . S
C2219 C2216 1.526 . S
C2219 C2220 1.396 . S
C2219 C2224 1.390 . S
C2220 C2214 1.465 . S
C2220 C2219 1.396 . S
C2220 C2221 1.399 . S
C2221 H2207 0.929 . S
C2221 C2220 1.399 . S
C2221 C2222 1.385 . S
C2222 H2208 0.931 . S
C2222 C2221 1.385 . S
C2222 C2223 1.389 . S
C2223 C2222 1.389 . S
C2223 C2224 1.387 . S
C2224 H2209 0.930 . S
C2224 C2219 1.390 . S
C2224 C2223 1.387 . S
H2225 C2237 0.930 . S
H2226 C2239 0.930 . S
H2227 C2240 0.930 . S
H2228 C2244 0.959 . S
H2229 C2244 0.959 . S
H2230 C2244 0.961 . S
H2231 C2245 0.960 . S
H2232 C2245 0.961 . S
H2233 C2245 0.959 . S
H2234 C2248 0.929 . S
H2235 C2249 0.931 . S
H2236 C2251 0.930 . S
C2237 H2225 0.930 . S
C2237 C2238 1.399 . S
C2237 C2242 1.399 . S
C2238 C2237 1.399 . S
C2238 C2239 1.376 . S
C2239 H2226 0.930 . S
C2239 C2238 1.376 . S
C2239 C2240 1.388 . S
C2240 H2227 0.930 . S
C2240 C2239 1.388 . S
C2240 C2241 1.390 . S
C2241 C2240 1.390 . S
C2241 C2242 1.394 . S
C2241 C2247 1.465 . S
C2242 C2237 1.399 . S
C2242 C2241 1.394 . S
C2242 C2243 1.516 . S
C2243 C2242 1.516 . S
C2243 C2244 1.502 . S
C2243 C2245 1.561 . S
C2243 C2246 1.526 . S
C2244 H2228 0.959 . S
C2244 H2229 0.959 . S
C2244 H2230 0.961 . S
C2244 C2243 1.502 . S
C2245 H2231 0.960 . S
C2245 H2232 0.961 . S
C2245 H2233 0.959 . S
C2245 C2243 1.561 . S
C2246 C2243 1.526 . S
C2246 C2247 1.396 . S
C2246 C2251 1.390 . S
C2247 C2241 1.465 . S
C2247 C2246 1.396 . S
C2247 C2248 1.399 . S
C2248 H2234 0.929 . S
C2248 C2247 1.399 . S
C2248 C2249 1.385 . S
C2249 H2235 0.931 . S
C2249 C2248 1.385 . S
C2249 C2250 1.389 . S
C2250 C2249 1.389 . S
C2250 C2251 1.387 . S
C2251 H2236 0.930 . S
C2251 C2246 1.390 . S
C2251 C2250 1.387 . S
H2252 C2264 0.930 . S
H2253 C2266 0.930 . S
H2254 C2267 0.930 . S
H2255 C2271 0.959 . S
H2256 C2271 0.959 . S
H2257 C2271 0.961 . S
H2258 C2272 0.960 . S
H2259 C2272 0.961 . S
H2260 C2272 0.959 . S
H2261 C2275 0.929 . S
H2262 C2276 0.931 . S
H2263 C2278 0.930 . S
C2264 H2252 0.930 . S
C2264 C2265 1.399 . S
C2264 C2269 1.399 . S
C2265 C2264 1.399 . S
C2265 C2266 1.376 . S
C2266 H2253 0.930 . S
C2266 C2265 1.376 . S
C2266 C2267 1.388 . S
C2267 H2254 0.930 . S
C2267 C2266 1.388 . S
C2267 C2268 1.390 . S
C2268 C2267 1.390 . S
C2268 C2269 1.394 . S
C2268 C2274 1.465 . S
C2269 C2264 1.399 . S
C2269 C2268 1.394 . S
C2269 C2270 1.516 . S
C2270 C2269 1.516 . S
C2270 C2271 1.502 . S
C2270 C2272 1.561 . S
C2270 C2273 1.526 . S
C2271 H2255 0.959 . S
C2271 H2256 0.959 . S
C2271 H2257 0.961 . S
C2271 C2270 1.502 . S
C2272 H2258 0.960 . S
C2272 H2259 0.961 . S
C2272 H2260 0.959 . S
C2272 C2270 1.561 . S
C2273 C2270 1.526 . S
C2273 C2274 1.396 . S
C2273 C2278 1.390 . S
C2274 C2268 1.465 . S
C2274 C2273 1.396 . S
C2274 C2275 1.399 . S
C2275 H2261 0.929 . S
C2275 C2274 1.399 . S
C2275 C2276 1.385 . S
C2276 H2262 0.931 . S
C2276 C2275 1.385 . S
C2276 C2277 1.389 . S
C2277 C2276 1.389 . S
C2277 C2278 1.387 . S
C2278 H2263 0.930 . S
C2278 C2273 1.390 . S
C2278 C2277 1.387 . S
H2279 C2291 0.930 . S
H2280 C2293 0.930 . S
H2281 C2294 0.930 . S
H2282 C2298 0.959 . S
H2283 C2298 0.959 . S
H2284 C2298 0.961 . S
H2285 C2299 0.960 . S
H2286 C2299 0.961 . S
H2287 C2299 0.959 . S
H2288 C2302 0.929 . S
H2289 C2303 0.931 . S
H2290 C2305 0.930 . S
C2291 H2279 0.930 . S
C2291 C2292 1.399 . S
C2291 C2296 1.399 . S
C2292 C2291 1.399 . S
C2292 C2293 1.376 . S
C2293 H2280 0.930 . S
C2293 C2292 1.376 . S
C2293 C2294 1.388 . S
C2294 H2281 0.930 . S
C2294 C2293 1.388 . S
C2294 C2295 1.390 . S
C2295 C2294 1.390 . S
C2295 C2296 1.394 . S
C2295 C2301 1.465 . S
C2296 C2291 1.399 . S
C2296 C2295 1.394 . S
C2296 C2297 1.516 . S
C2297 C2296 1.516 . S
C2297 C2298 1.502 . S
C2297 C2299 1.561 . S
C2297 C2300 1.526 . S
C2298 H2282 0.959 . S
C2298 H2283 0.959 . S
C2298 H2284 0.961 . S
C2298 C2297 1.502 . S
C2299 H2285 0.960 . S
C2299 H2286 0.961 . S
C2299 H2287 0.959 . S
C2299 C2297 1.561 . S
C2300 C2297 1.526 . S
C2300 C2301 1.396 . S
C2300 C2305 1.390 . S
C2301 C2295 1.465 . S
C2301 C2300 1.396 . S
C2301 C2302 1.399 . S
C2302 H2288 0.929 . S
C2302 C2301 1.399 . S
C2302 C2303 1.385 . S
C2303 H2289 0.931 . S
C2303 C2302 1.385 . S
C2303 C2304 1.389 . S
C2304 C2303 1.389 . S
C2304 C2305 1.387 . S
C2305 H2290 0.930 . S
C2305 C2300 1.390 . S
C2305 C2304 1.387 . S
H2306 C2318 0.930 . S
H2307 C2320 0.930 . S
H2308 C2321 0.930 . S
H2309 C2325 0.959 . S
H2310 C2325 0.959 . S
H2311 C2325 0.961 . S
H2312 C2326 0.960 . S
H2313 C2326 0.961 . S
H2314 C2326 0.959 . S
H2315 C2329 0.929 . S
H2316 C2330 0.931 . S
H2317 C2332 0.930 . S
C2318 H2306 0.930 . S
C2318 C2319 1.399 . S
C2318 C2323 1.399 . S
C2319 C2318 1.399 . S
C2319 C2320 1.376 . S
C2320 H2307 0.930 . S
C2320 C2319 1.376 . S
C2320 C2321 1.388 . S
C2321 H2308 0.930 . S
C2321 C2320 1.388 . S
C2321 C2322 1.390 . S
C2322 C2321 1.390 . S
C2322 C2323 1.394 . S
C2322 C2328 1.465 . S
C2323 C2318 1.399 . S
C2323 C2322 1.394 . S
C2323 C2324 1.516 . S
C2324 C2323 1.516 . S
C2324 C2325 1.502 . S
C2324 C2326 1.561 . S
C2324 C2327 1.526 . S
C2325 H2309 0.959 . S
C2325 H2310 0.959 . S
C2325 H2311 0.961 . S
C2325 C2324 1.502 . S
C2326 H2312 0.960 . S
C2326 H2313 0.961 . S
C2326 H2314 0.959 . S
C2326 C2324 1.561 . S
C2327 C2324 1.526 . S
C2327 C2328 1.396 . S
C2327 C2332 1.390 . S
C2328 C2322 1.465 . S
C2328 C2327 1.396 . S
C2328 C2329 1.399 . S
C2329 H2315 0.929 . S
C2329 C2328 1.399 . S
C2329 C2330 1.385 . S
C2330 H2316 0.931 . S
C2330 C2329 1.385 . S
C2330 C2331 1.389 . S
C2331 C2330 1.389 . S
C2331 C2332 1.387 . S
C2332 H2317 0.930 . S
C2332 C2327 1.390 . S
C2332 C2331 1.387 . S
H2333 C2345 0.930 . S
H2334 C2347 0.930 . S
H2335 C2348 0.930 . S
H2336 C2352 0.959 . S
H2337 C2352 0.959 . S
H2338 C2352 0.979 . S
H2339 C2353 0.960 . S
H2340 C2353 0.961 1_655 S
H2341 C2353 0.959 . S
H2342 C2356 0.929 . S
H2343 C2357 0.931 . S
H2344 C2359 0.930 . S
C2345 H2333 0.930 . S
C2345 C2346 1.399 . S
C2345 C2350 1.399 . S
C2346 C2345 1.399 . S
C2346 C2347 1.376 . S
C2347 H2334 0.930 . S
C2347 C2346 1.376 . S
C2347 C2348 1.388 . S
C2348 H2335 0.930 . S
C2348 C2347 1.388 . S
C2348 C2349 1.390 . S
C2349 C2348 1.390 . S
C2349 C2350 1.394 . S
C2349 C2355 1.465 . S
C2350 C2345 1.399 . S
C2350 C2349 1.394 . S
C2350 C2351 1.516 . S
C2351 C2350 1.516 . S
C2351 C2352 1.502 1_455 S
C2351 C2353 1.561 . S
C2351 C2354 1.530 . S
C2352 H2336 0.959 . S
C2352 H2337 0.959 . S
C2352 H2338 0.979 . S
C2352 C2351 1.502 1_655 S
C2353 H2339 0.960 . S
C2353 H2340 0.961 1_455 S
C2353 H2341 0.959 . S
C2353 C2351 1.561 . S
C2354 C2351 1.530 . S
C2354 C2355 1.407 . S
C2354 C2359 1.377 1_455 S
C2355 C2349 1.465 . S
C2355 C2354 1.407 . S
C2355 C2356 1.399 . S
C2356 H2342 0.929 . S
C2356 C2355 1.399 . S
C2356 C2357 1.385 1_455 S
C2357 H2343 0.931 . S
C2357 C2356 1.385 1_655 S
C2357 C2358 1.389 . S
C2358 C2357 1.389 . S
C2358 C2359 1.387 . S
C2359 H2344 0.930 . S
C2359 C2354 1.377 1_655 S
C2359 C2358 1.387 . S
H2360 C2372 0.930 . S
H2361 C2374 0.930 . S
H2362 C2375 0.930 . S
H2363 C2379 0.959 . S
H2364 C2379 0.959 . S
H2365 C2379 0.961 . S
H2366 C2380 0.960 . S
H2367 C2380 0.961 . S
H2368 C2380 0.959 . S
H2369 C2383 0.929 . S
H2370 C2384 0.931 . S
H2371 C2386 0.930 . S
C2372 H2360 0.930 . S
C2372 C2373 1.399 . S
C2372 C2377 1.399 . S
C2373 C2372 1.399 . S
C2373 C2374 1.376 . S
C2374 H2361 0.930 . S
C2374 C2373 1.376 . S
C2374 C2375 1.388 . S
C2375 H2362 0.930 . S
C2375 C2374 1.388 . S
C2375 C2376 1.390 . S
C2376 C2375 1.390 . S
C2376 C2377 1.394 . S
C2376 C2382 1.465 . S
C2377 C2372 1.399 . S
C2377 C2376 1.394 . S
C2377 C2378 1.516 . S
C2378 C2377 1.516 . S
C2378 C2379 1.502 . S
C2378 C2380 1.561 . S
C2378 C2381 1.526 . S
C2379 H2363 0.959 . S
C2379 H2364 0.959 . S
C2379 H2365 0.961 . S
C2379 C2378 1.502 . S
C2380 H2366 0.960 . S
C2380 H2367 0.961 . S
C2380 H2368 0.959 . S
C2380 C2378 1.561 . S
C2381 C2378 1.526 . S
C2381 C2382 1.396 . S
C2381 C2386 1.390 . S
C2382 C2376 1.465 . S
C2382 C2381 1.396 . S
C2382 C2383 1.399 . S
C2383 H2369 0.929 . S
C2383 C2382 1.399 . S
C2383 C2384 1.385 . S
C2384 H2370 0.931 . S
C2384 C2383 1.385 . S
C2384 C2385 1.389 . S
C2385 C2384 1.389 . S
C2385 C2386 1.387 . S
C2386 H2371 0.930 . S
C2386 C2381 1.390 . S
C2386 C2385 1.387 . S
H2387 C2399 0.930 . S
H2388 C2401 0.930 . S
H2389 C2402 0.930 . S
H2390 C2406 0.965 . S
H2391 C2406 0.947 1_655 S
H2392 C2406 0.984 . S
H2393 C2407 0.960 . S
H2394 C2407 0.961 . S
H2395 C2407 0.959 . S
H2396 C2410 0.929 . S
H2397 C2411 0.931 . S
H2398 C2413 0.930 . S
C2399 H2387 0.930 . S
C2399 C2400 1.399 . S
C2399 C2404 1.399 1_455 S
C2400 C2399 1.399 . S
C2400 C2401 1.376 . S
C2401 H2388 0.930 . S
C2401 C2400 1.376 . S
C2401 C2402 1.388 1_455 S
C2402 H2389 0.930 . S
C2402 C2401 1.388 1_655 S
C2402 C2403 1.390 . S
C2403 C2402 1.390 . S
C2403 C2404 1.394 . S
C2403 C2409 1.465 . S
C2404 C2399 1.399 1_655 S
C2404 C2403 1.394 . S
C2404 C2405 1.516 . S
C2405 C2404 1.516 . S
C2405 C2406 1.486 1_655 S
C2405 C2407 1.561 . S
C2405 C2408 1.526 . S
C2406 H2390 0.965 . S
C2406 H2391 0.947 1_455 S
C2406 H2392 0.984 . S
C2406 C2405 1.486 1_455 S
C2407 H2393 0.960 . S
C2407 H2394 0.961 . S
C2407 H2395 0.959 . S
C2407 C2405 1.561 . S
C2408 C2405 1.526 . S
C2408 C2409 1.396 . S
C2408 C2413 1.390 . S
C2409 C2403 1.465 . S
C2409 C2408 1.396 . S
C2409 C2410 1.399 . S
C2410 H2396 0.929 . S
C2410 C2409 1.399 . S
C2410 C2411 1.385 . S
C2411 H2397 0.931 . S
C2411 C2410 1.385 . S
C2411 C2412 1.389 . S
C2412 C2411 1.389 . S
C2412 C2413 1.387 . S
C2413 H2398 0.930 . S
C2413 C2408 1.390 . S
C2413 C2412 1.387 . S
H2414 C2426 0.930 . S
H2415 C2428 0.930 . S
H2416 C2429 0.930 . S
H2417 C2433 0.959 . S
H2418 C2433 0.959 . S
H2419 C2433 0.961 . S
H2420 C2434 0.960 . S
H2421 C2434 0.961 . S
H2422 C2434 0.959 . S
H2423 C2437 0.929 . S
H2424 C2438 0.931 . S
H2425 C2440 0.930 . S
C2426 H2414 0.930 . S
C2426 C2427 1.399 . S
C2426 C2431 1.399 . S
C2427 C2426 1.399 . S
C2427 C2428 1.376 . S
C2428 H2415 0.930 . S
C2428 C2427 1.376 . S
C2428 C2429 1.388 . S
C2429 H2416 0.930 . S
C2429 C2428 1.388 . S
C2429 C2430 1.390 . S
C2430 C2429 1.390 . S
C2430 C2431 1.394 . S
C2430 C2436 1.465 . S
C2431 C2426 1.399 . S
C2431 C2430 1.394 . S
C2431 C2432 1.516 . S
C2432 C2431 1.516 . S
C2432 C2433 1.502 . S
C2432 C2434 1.561 . S
C2432 C2435 1.526 . S
C2433 H2417 0.959 . S
C2433 H2418 0.959 . S
C2433 H2419 0.961 . S
C2433 C2432 1.502 . S
C2434 H2420 0.960 . S
C2434 H2421 0.961 . S
C2434 H2422 0.959 . S
C2434 C2432 1.561 . S
C2435 C2432 1.526 . S
C2435 C2436 1.396 . S
C2435 C2440 1.390 . S
C2436 C2430 1.465 . S
C2436 C2435 1.396 . S
C2436 C2437 1.399 . S
C2437 H2423 0.929 . S
C2437 C2436 1.399 . S
C2437 C2438 1.385 . S
C2438 H2424 0.931 . S
C2438 C2437 1.385 . S
C2438 C2439 1.389 . S
C2439 C2438 1.389 . S
C2439 C2440 1.387 . S
C2440 H2425 0.930 . S
C2440 C2435 1.390 . S
C2440 C2439 1.387 . S
H2441 C2453 0.930 . S
H2442 C2455 0.930 . S
H2443 C2456 0.930 . S
H2444 C2460 0.959 . S
H2445 C2460 0.959 . S
H2446 C2460 0.961 . S
H2447 C2461 0.960 . S
H2448 C2461 0.961 . S
H2449 C2461 0.959 . S
H2450 C2464 0.929 . S
H2451 C2465 0.931 . S
H2452 C2467 0.930 . S
C2453 H2441 0.930 . S
C2453 C2454 1.399 . S
C2453 C2458 1.399 . S
C2454 C2453 1.399 . S
C2454 C2455 1.376 . S
C2455 H2442 0.930 . S
C2455 C2454 1.376 . S
C2455 C2456 1.388 . S
C2456 H2443 0.930 . S
C2456 C2455 1.388 . S
C2456 C2457 1.390 . S
C2457 C2456 1.390 . S
C2457 C2458 1.394 . S
C2457 C2463 1.465 . S
C2458 C2453 1.399 . S
C2458 C2457 1.394 . S
C2458 C2459 1.516 . S
C2459 C2458 1.516 . S
C2459 C2460 1.502 . S
C2459 C2461 1.561 . S
C2459 C2462 1.526 . S
C2460 H2444 0.959 . S
C2460 H2445 0.959 . S
C2460 H2446 0.961 . S
C2460 C2459 1.502 . S
C2461 H2447 0.960 . S
C2461 H2448 0.961 . S
C2461 H2449 0.959 . S
C2461 C2459 1.561 . S
C2462 C2459 1.526 . S
C2462 C2463 1.396 . S
C2462 C2467 1.390 . S
C2463 C2457 1.465 . S
C2463 C2462 1.396 . S
C2463 C2464 1.399 . S
C2464 H2450 0.929 . S
C2464 C2463 1.399 . S
C2464 C2465 1.385 . S
C2465 H2451 0.931 . S
C2465 C2464 1.385 . S
C2465 C2466 1.389 . S
C2466 C2465 1.389 . S
C2466 C2467 1.387 . S
C2467 H2452 0.930 . S
C2467 C2462 1.390 . S
C2467 C2466 1.387 . S
H2468 C2480 0.930 . S
H2469 C2482 0.930 . S
H2470 C2483 0.930 . S
H2471 C2487 0.959 . S
H2472 C2487 0.959 . S
H2473 C2487 0.961 . S
H2474 C2488 0.960 . S
H2475 C2488 0.961 . S
H2476 C2488 0.959 . S
H2477 C2491 0.929 . S
H2478 C2492 0.931 . S
H2479 C2494 0.930 . S
C2480 H2468 0.930 . S
C2480 C2481 1.399 . S
C2480 C2485 1.399 . S
C2481 C2480 1.399 . S
C2481 C2482 1.376 . S
C2482 H2469 0.930 . S
C2482 C2481 1.376 . S
C2482 C2483 1.388 . S
C2483 H2470 0.930 . S
C2483 C2482 1.388 . S
C2483 C2484 1.390 . S
C2484 C2483 1.390 . S
C2484 C2485 1.394 . S
C2484 C2490 1.465 . S
C2485 C2480 1.399 . S
C2485 C2484 1.394 . S
C2485 C2486 1.516 . S
C2486 C2485 1.516 . S
C2486 C2487 1.502 . S
C2486 C2488 1.561 . S
C2486 C2489 1.526 . S
C2487 H2471 0.959 . S
C2487 H2472 0.959 . S
C2487 H2473 0.961 . S
C2487 C2486 1.502 . S
C2488 H2474 0.960 . S
C2488 H2475 0.961 . S
C2488 H2476 0.959 . S
C2488 C2486 1.561 . S
C2489 C2486 1.526 . S
C2489 C2490 1.396 . S
C2489 C2494 1.390 . S
C2490 C2484 1.465 . S
C2490 C2489 1.396 . S
C2490 C2491 1.399 . S
C2491 H2477 0.929 . S
C2491 C2490 1.399 . S
C2491 C2492 1.385 . S
C2492 H2478 0.931 . S
C2492 C2491 1.385 . S
C2492 C2493 1.389 . S
C2493 C2492 1.389 . S
C2493 C2494 1.387 . S
C2494 H2479 0.930 . S
C2494 C2489 1.390 . S
C2494 C2493 1.387 . S
H2495 C2507 0.930 . S
H2496 C2509 0.930 . S
H2497 C2510 0.930 . S
H2498 C2514 0.959 . S
H2499 C2514 0.959 . S
H2500 C2514 0.961 . S
H2501 C2515 0.960 . S
H2502 C2515 0.961 . S
H2503 C2515 0.959 . S
H2504 C2518 0.929 . S
H2505 C2519 0.931 . S
H2506 C2521 0.930 . S
C2507 H2495 0.930 . S
C2507 C2508 1.399 . S
C2507 C2512 1.399 . S
C2508 C2507 1.399 . S
C2508 C2509 1.376 . S
C2509 H2496 0.930 . S
C2509 C2508 1.376 . S
C2509 C2510 1.388 . S
C2510 H2497 0.930 . S
C2510 C2509 1.388 . S
C2510 C2511 1.390 . S
C2511 C2510 1.390 . S
C2511 C2512 1.394 . S
C2511 C2517 1.465 . S
C2512 C2507 1.399 . S
C2512 C2511 1.394 . S
C2512 C2513 1.516 . S
C2513 C2512 1.516 . S
C2513 C2514 1.502 . S
C2513 C2515 1.561 . S
C2513 C2516 1.526 . S
C2514 H2498 0.959 . S
C2514 H2499 0.959 . S
C2514 H2500 0.961 . S
C2514 C2513 1.502 . S
C2515 H2501 0.960 . S
C2515 H2502 0.961 . S
C2515 H2503 0.959 . S
C2515 C2513 1.561 . S
C2516 C2513 1.526 . S
C2516 C2517 1.396 . S
C2516 C2521 1.390 . S
C2517 C2511 1.465 . S
C2517 C2516 1.396 . S
C2517 C2518 1.399 . S
C2518 H2504 0.929 . S
C2518 C2517 1.399 . S
C2518 C2519 1.385 . S
C2519 H2505 0.931 . S
C2519 C2518 1.385 . S
C2519 C2520 1.389 . S
C2520 C2519 1.389 . S
C2520 C2521 1.387 . S
C2521 H2506 0.930 . S
C2521 C2516 1.390 . S
C2521 C2520 1.387 . S
H2522 C2534 0.930 . S
H2523 C2536 0.930 . S
H2524 C2537 0.930 . S
H2525 C2541 0.959 . S
H2526 C2541 0.959 . S
H2527 C2541 0.961 . S
H2528 C2542 0.960 . S
H2529 C2542 0.961 . S
H2530 C2542 0.959 . S
H2531 C2545 0.929 . S
H2532 C2546 0.931 . S
H2533 C2548 0.930 . S
C2534 H2522 0.930 . S
C2534 C2535 1.399 . S
C2534 C2539 1.399 . S
C2535 C2534 1.399 . S
C2535 C2536 1.376 . S
C2536 H2523 0.930 . S
C2536 C2535 1.376 . S
C2536 C2537 1.388 . S
C2537 H2524 0.930 . S
C2537 C2536 1.388 . S
C2537 C2538 1.390 . S
C2538 C2537 1.390 . S
C2538 C2539 1.394 . S
C2538 C2544 1.465 . S
C2539 C2534 1.399 . S
C2539 C2538 1.394 . S
C2539 C2540 1.516 . S
C2540 C2539 1.516 . S
C2540 C2541 1.502 . S
C2540 C2542 1.561 . S
C2540 C2543 1.526 . S
C2541 H2525 0.959 . S
C2541 H2526 0.959 . S
C2541 H2527 0.961 . S
C2541 C2540 1.502 . S
C2542 H2528 0.960 . S
C2542 H2529 0.961 . S
C2542 H2530 0.959 . S
C2542 C2540 1.561 . S
C2543 C2540 1.526 . S
C2543 C2544 1.396 . S
C2543 C2548 1.390 . S
C2544 C2538 1.465 . S
C2544 C2543 1.396 . S
C2544 C2545 1.399 . S
C2545 H2531 0.929 . S
C2545 C2544 1.399 . S
C2545 C2546 1.385 . S
C2546 H2532 0.931 . S
C2546 C2545 1.385 . S
C2546 C2547 1.389 . S
C2547 C2546 1.389 . S
C2547 C2548 1.387 . S
C2548 H2533 0.930 . S
C2548 C2543 1.390 . S
C2548 C2547 1.387 . S
H2549 C2561 0.930 . S
H2550 C2563 0.930 . S
H2551 C2564 0.930 . S
H2552 C2568 0.959 . S
H2553 C2568 0.959 . S
H2554 C2568 0.961 . S
H2555 C2569 0.960 . S
H2556 C2569 0.961 . S
H2557 C2569 0.959 . S
H2558 C2572 0.929 . S
H2559 C2573 0.931 . S
H2560 C2575 0.930 . S
C2561 H2549 0.930 . S
C2561 C2562 1.399 . S
C2561 C2566 1.399 . S
C2562 C2561 1.399 . S
C2562 C2563 1.376 . S
C2563 H2550 0.930 . S
C2563 C2562 1.376 . S
C2563 C2564 1.388 . S
C2564 H2551 0.930 . S
C2564 C2563 1.388 . S
C2564 C2565 1.390 . S
C2565 C2564 1.390 . S
C2565 C2566 1.394 . S
C2565 C2571 1.465 . S
C2566 C2561 1.399 . S
C2566 C2565 1.394 . S
C2566 C2567 1.516 . S
C2567 C2566 1.516 . S
C2567 C2568 1.502 . S
C2567 C2569 1.561 . S
C2567 C2570 1.526 . S
C2568 H2552 0.959 . S
C2568 H2553 0.959 . S
C2568 H2554 0.961 . S
C2568 C2567 1.502 . S
C2569 H2555 0.960 . S
C2569 H2556 0.961 . S
C2569 H2557 0.959 . S
C2569 C2567 1.561 . S
C2570 C2567 1.526 . S
C2570 C2571 1.396 . S
C2570 C2575 1.390 1_655 S
C2571 C2565 1.465 . S
C2571 C2570 1.396 . S
C2571 C2572 1.399 1_655 S
C2572 H2558 0.929 . S
C2572 C2571 1.399 1_455 S
C2572 C2573 1.385 . S
C2573 H2559 0.931 . S
C2573 C2572 1.385 . S
C2573 C2574 1.389 . S
C2574 C2573 1.389 . S
C2574 C2575 1.387 . S
C2575 H2560 0.930 . S
C2575 C2570 1.390 1_455 S
C2575 C2574 1.387 . S
H2576 C2588 0.930 . S
H2577 C2590 0.930 . S
H2578 C2591 0.930 . S
H2579 C2595 0.959 . S
H2580 C2595 0.959 . S
H2581 C2595 0.961 . S
H2582 C2596 0.960 . S
H2583 C2596 0.961 . S
H2584 C2596 0.959 . S
H2585 C2599 0.929 . S
H2586 C2600 0.931 . S
H2587 C2602 0.930 . S
C2588 H2576 0.930 . S
C2588 C2589 1.399 . S
C2588 C2593 1.399 . S
C2589 C2588 1.399 . S
C2589 C2590 1.376 . S
C2590 H2577 0.930 . S
C2590 C2589 1.376 . S
C2590 C2591 1.388 . S
C2591 H2578 0.930 . S
C2591 C2590 1.388 . S
C2591 C2592 1.390 . S
C2592 C2591 1.390 . S
C2592 C2593 1.394 . S
C2592 C2598 1.465 . S
C2593 C2588 1.399 . S
C2593 C2592 1.394 . S
C2593 C2594 1.516 . S
C2594 C2593 1.516 . S
C2594 C2595 1.502 . S
C2594 C2596 1.561 . S
C2594 C2597 1.526 . S
C2595 H2579 0.959 . S
C2595 H2580 0.959 . S
C2595 H2581 0.961 . S
C2595 C2594 1.502 . S
C2596 H2582 0.960 . S
C2596 H2583 0.961 . S
C2596 H2584 0.959 . S
C2596 C2594 1.561 . S
C2597 C2594 1.526 . S
C2597 C2598 1.396 . S
C2597 C2602 1.390 . S
C2598 C2592 1.465 . S
C2598 C2597 1.396 . S
C2598 C2599 1.399 . S
C2599 H2585 0.929 . S
C2599 C2598 1.399 . S
C2599 C2600 1.385 . S
C2600 H2586 0.931 . S
C2600 C2599 1.385 . S
C2600 C2601 1.389 . S
C2601 C2600 1.389 . S
C2601 C2602 1.387 . S
C2602 H2587 0.930 . S
C2602 C2597 1.390 . S
C2602 C2601 1.387 . S
H2603 C2615 0.930 . S
H2604 C2617 0.930 . S
H2605 C2618 0.930 . S
H2606 C2622 0.959 . S
H2607 C2622 0.959 . S
H2608 C2622 0.961 . S
H2609 C2623 0.960 . S
H2610 C2623 0.961 . S
H2611 C2623 0.959 . S
H2612 C2626 0.929 . S
H2613 C2627 0.931 . S
H2614 C2629 0.930 . S
C2615 H2603 0.930 . S
C2615 C2616 1.399 . S
C2615 C2620 1.399 . S
C2616 C2615 1.399 . S
C2616 C2617 1.376 . S
C2617 H2604 0.930 . S
C2617 C2616 1.376 . S
C2617 C2618 1.388 . S
C2618 H2605 0.930 . S
C2618 C2617 1.388 . S
C2618 C2619 1.390 . S
C2619 C2618 1.390 . S
C2619 C2620 1.394 . S
C2619 C2625 1.465 . S
C2620 C2615 1.399 . S
C2620 C2619 1.394 . S
C2620 C2621 1.516 . S
C2621 C2620 1.516 . S
C2621 C2622 1.502 . S
C2621 C2623 1.561 . S
C2621 C2624 1.526 . S
C2622 H2606 0.959 . S
C2622 H2607 0.959 . S
C2622 H2608 0.961 . S
C2622 C2621 1.502 . S
C2623 H2609 0.960 . S
C2623 H2610 0.961 . S
C2623 H2611 0.959 . S
C2623 C2621 1.561 . S
C2624 C2621 1.526 . S
C2624 C2625 1.396 . S
C2624 C2629 1.390 . S
C2625 C2619 1.465 . S
C2625 C2624 1.396 . S
C2625 C2626 1.399 . S
C2626 H2612 0.929 . S
C2626 C2625 1.399 . S
C2626 C2627 1.385 . S
C2627 H2613 0.931 . S
C2627 C2626 1.385 . S
C2627 C2628 1.389 . S
C2628 C2627 1.389 . S
C2628 C2629 1.387 . S
C2629 H2614 0.930 . S
C2629 C2624 1.390 . S
C2629 C2628 1.387 . S
H2630 C2642 0.930 . S
H2631 C2644 0.930 . S
H2632 C2645 0.930 . S
H2633 C2649 0.959 . S
H2634 C2649 0.959 . S
H2635 C2649 0.961 . S
H2636 C2650 0.960 . S
H2637 C2650 0.961 . S
H2638 C2650 0.959 . S
H2639 C2653 0.929 . S
H2640 C2654 0.931 . S
H2641 C2656 0.930 . S
C2642 H2630 0.930 . S
C2642 C2643 1.399 . S
C2642 C2647 1.399 . S
C2643 C2642 1.399 . S
C2643 C2644 1.376 . S
C2644 H2631 0.930 . S
C2644 C2643 1.376 . S
C2644 C2645 1.388 . S
C2645 H2632 0.930 . S
C2645 C2644 1.388 . S
C2645 C2646 1.390 . S
C2646 C2645 1.390 . S
C2646 C2647 1.394 . S
C2646 C2652 1.465 . S
C2647 C2642 1.399 . S
C2647 C2646 1.394 . S
C2647 C2648 1.516 . S
C2648 C2647 1.516 . S
C2648 C2649 1.502 . S
C2648 C2650 1.561 . S
C2648 C2651 1.526 . S
C2649 H2633 0.959 . S
C2649 H2634 0.959 . S
C2649 H2635 0.961 . S
C2649 C2648 1.502 . S
C2650 H2636 0.960 . S
C2650 H2637 0.961 . S
C2650 H2638 0.959 . S
C2650 C2648 1.561 . S
C2651 C2648 1.526 . S
C2651 C2652 1.396 . S
C2651 C2656 1.390 . S
C2652 C2646 1.465 . S
C2652 C2651 1.396 . S
C2652 C2653 1.399 . S
C2653 H2639 0.929 . S
C2653 C2652 1.399 . S
C2653 C2654 1.385 . S
C2654 H2640 0.931 . S
C2654 C2653 1.385 . S
C2654 C2655 1.389 . S
C2655 C2654 1.389 . S
C2655 C2656 1.387 . S
C2656 H2641 0.930 . S
C2656 C2651 1.390 . S
C2656 C2655 1.387 . S
H2657 C2669 0.930 . S
H2658 C2671 0.930 . S
H2659 C2672 0.930 . S
H2660 C2676 0.959 . S
H2661 C2676 0.959 . S
H2662 C2676 0.961 . S
H2663 C2677 0.960 . S
H2664 C2677 0.961 . S
H2665 C2677 0.959 . S
H2666 C2680 0.929 . S
H2667 C2681 0.931 . S
H2668 C2683 0.930 . S
C2669 H2657 0.930 . S
C2669 C2670 1.399 . S
C2669 C2674 1.399 . S
C2670 C2669 1.399 . S
C2670 C2671 1.376 . S
C2671 H2658 0.930 . S
C2671 C2670 1.376 . S
C2671 C2672 1.388 . S
C2672 H2659 0.930 . S
C2672 C2671 1.388 . S
C2672 C2673 1.390 . S
C2673 C2672 1.390 . S
C2673 C2674 1.394 . S
C2673 C2679 1.465 . S
C2674 C2669 1.399 . S
C2674 C2673 1.394 . S
C2674 C2675 1.516 . S
C2675 C2674 1.516 . S
C2675 C2676 1.502 . S
C2675 C2677 1.561 . S
C2675 C2678 1.526 . S
C2676 H2660 0.959 . S
C2676 H2661 0.959 . S
C2676 H2662 0.961 . S
C2676 C2675 1.502 . S
C2677 H2663 0.960 . S
C2677 H2664 0.961 . S
C2677 H2665 0.959 . S
C2677 C2675 1.561 . S
C2678 C2675 1.526 . S
C2678 C2679 1.396 . S
C2678 C2683 1.390 1_655 S
C2679 C2673 1.465 . S
C2679 C2678 1.396 . S
C2679 C2680 1.399 1_655 S
C2680 H2666 0.929 . S
C2680 C2679 1.399 1_455 S
C2680 C2681 1.385 . S
C2681 H2667 0.931 . S
C2681 C2680 1.385 . S
C2681 C2682 1.389 . S
C2682 C2681 1.389 . S
C2682 C2683 1.387 . S
C2683 H2668 0.930 . S
C2683 C2678 1.390 1_455 S
C2683 C2682 1.387 . S
H2684 C2696 0.930 . S
H2685 C2698 0.930 . S
H2686 C2699 0.930 . S
H2687 C2703 0.959 . S
H2688 C2703 0.959 . S
H2689 C2703 0.961 . S
H2690 C2704 0.960 . S
H2691 C2704 0.961 . S
H2692 C2704 0.959 . S
H2693 C2707 0.929 . S
H2694 C2708 0.931 . S
H2695 C2710 0.930 . S
C2696 H2684 0.930 . S
C2696 C2697 1.399 . S
C2696 C2701 1.399 . S
C2697 C2696 1.399 . S
C2697 C2698 1.376 . S
C2698 H2685 0.930 . S
C2698 C2697 1.376 . S
C2698 C2699 1.388 . S
C2699 H2686 0.930 . S
C2699 C2698 1.388 . S
C2699 C2700 1.390 . S
C2700 C2699 1.390 . S
C2700 C2701 1.394 . S
C2700 C2706 1.465 . S
C2701 C2696 1.399 . S
C2701 C2700 1.394 . S
C2701 C2702 1.516 . S
C2702 C2701 1.516 . S
C2702 C2703 1.502 . S
C2702 C2704 1.561 . S
C2702 C2705 1.526 . S
C2703 H2687 0.959 . S
C2703 H2688 0.959 . S
C2703 H2689 0.961 . S
C2703 C2702 1.502 . S
C2704 H2690 0.960 . S
C2704 H2691 0.961 . S
C2704 H2692 0.959 . S
C2704 C2702 1.561 . S
C2705 C2702 1.526 . S
C2705 C2706 1.396 . S
C2705 C2710 1.390 . S
C2706 C2700 1.465 . S
C2706 C2705 1.396 . S
C2706 C2707 1.399 . S
C2707 H2693 0.929 . S
C2707 C2706 1.399 . S
C2707 C2708 1.385 . S
C2708 H2694 0.931 . S
C2708 C2707 1.385 . S
C2708 C2709 1.389 . S
C2709 C2708 1.389 . S
C2709 C2710 1.387 . S
C2710 H2695 0.930 . S
C2710 C2705 1.390 . S
C2710 C2709 1.387 . S
H2711 C2723 0.930 . S
H2712 C2725 0.930 . S
H2713 C2726 0.930 . S
H2714 C2730 0.959 . S
H2715 C2730 0.959 . S
H2716 C2730 0.961 . S
H2717 C2731 0.960 . S
H2718 C2731 0.961 . S
H2719 C2731 0.959 . S
H2720 C2734 0.929 . S
H2721 C2735 0.931 . S
H2722 C2737 0.930 1_655 S
C2723 H2711 0.930 . S
C2723 C2724 1.399 . S
C2723 C2728 1.399 . S
C2724 C2723 1.399 . S
C2724 C2725 1.376 . S
C2725 H2712 0.930 . S
C2725 C2724 1.376 . S
C2725 C2726 1.388 . S
C2726 H2713 0.930 . S
C2726 C2725 1.388 . S
C2726 C2727 1.390 . S
C2727 C2726 1.390 . S
C2727 C2728 1.394 . S
C2727 C2733 1.465 . S
C2728 C2723 1.399 . S
C2728 C2727 1.394 . S
C2728 C2729 1.516 . S
C2729 C2728 1.516 . S
C2729 C2730 1.502 . S
C2729 C2731 1.561 . S
C2729 C2732 1.526 . S
C2730 H2714 0.959 . S
C2730 H2715 0.959 . S
C2730 H2716 0.961 . S
C2730 C2729 1.502 . S
C2731 H2717 0.960 . S
C2731 H2718 0.961 . S
C2731 H2719 0.959 . S
C2731 C2729 1.561 . S
C2732 C2729 1.526 . S
C2732 C2733 1.396 . S
C2732 C2737 1.390 1_655 S
C2733 C2727 1.465 . S
C2733 C2732 1.396 . S
C2733 C2734 1.399 1_655 S
C2734 H2720 0.929 . S
C2734 C2733 1.399 1_455 S
C2734 C2735 1.385 . S
C2735 H2721 0.931 . S
C2735 C2734 1.385 . S
C2735 C2736 1.389 . S
C2736 C2735 1.389 . S
C2736 C2737 1.387 . S
C2737 H2722 0.930 1_455 S
C2737 C2732 1.390 1_455 S
C2737 C2736 1.387 . S
H2738 C2750 0.930 . S
H2739 C2752 0.930 . S
H2740 C2753 0.930 . S
H2741 C2757 0.959 . S
H2742 C2757 0.959 . S
H2743 C2757 0.961 . S
H2744 C2758 0.960 . S
H2745 C2758 0.961 . S
H2746 C2758 0.959 . S
H2747 C2761 0.929 . S
H2748 C2762 0.931 . S
H2749 C2764 0.930 . S
C2750 H2738 0.930 . S
C2750 C2751 1.399 . S
C2750 C2755 1.399 . S
C2751 C2750 1.399 . S
C2751 C2752 1.376 . S
C2752 H2739 0.930 . S
C2752 C2751 1.376 . S
C2752 C2753 1.388 . S
C2753 H2740 0.930 . S
C2753 C2752 1.388 . S
C2753 C2754 1.390 . S
C2754 C2753 1.390 . S
C2754 C2755 1.394 . S
C2754 C2760 1.465 . S
C2755 C2750 1.399 . S
C2755 C2754 1.394 . S
C2755 C2756 1.516 . S
C2756 C2755 1.516 . S
C2756 C2757 1.502 . S
C2756 C2758 1.561 . S
C2756 C2759 1.526 . S
C2757 H2741 0.959 . S
C2757 H2742 0.959 . S
C2757 H2743 0.961 . S
C2757 C2756 1.502 . S
C2758 H2744 0.960 . S
C2758 H2745 0.961 . S
C2758 H2746 0.959 . S
C2758 C2756 1.561 . S
C2759 C2756 1.526 . S
C2759 C2760 1.396 . S
C2759 C2764 1.390 . S
C2760 C2754 1.465 . S
C2760 C2759 1.396 . S
C2760 C2761 1.399 . S
C2761 H2747 0.929 . S
C2761 C2760 1.399 . S
C2761 C2762 1.385 . S
C2762 H2748 0.931 . S
C2762 C2761 1.385 . S
C2762 C2763 1.389 . S
C2763 C2762 1.389 . S
C2763 C2764 1.387 . S
C2764 H2749 0.930 . S
C2764 C2759 1.390 . S
C2764 C2763 1.387 . S
H2765 C2777 0.930 . S
H2766 C2779 0.930 . S
H2767 C2780 0.930 . S
H2768 C2784 0.959 . S
H2769 C2784 0.959 . S
H2770 C2784 0.961 . S
H2771 C2785 0.960 . S
H2772 C2785 0.961 . S
H2773 C2785 0.959 . S
H2774 C2788 0.929 . S
H2775 C2789 0.931 . S
H2776 C2791 0.930 . S
C2777 H2765 0.930 . S
C2777 C2778 1.399 . S
C2777 C2782 1.399 . S
C2778 C2777 1.399 . S
C2778 C2779 1.376 . S
C2779 H2766 0.930 . S
C2779 C2778 1.376 . S
C2779 C2780 1.388 . S
C2780 H2767 0.930 . S
C2780 C2779 1.388 . S
C2780 C2781 1.390 . S
C2781 C2780 1.390 . S
C2781 C2782 1.394 . S
C2781 C2787 1.465 . S
C2782 C2777 1.399 . S
C2782 C2781 1.394 . S
C2782 C2783 1.516 . S
C2783 C2782 1.516 . S
C2783 C2784 1.502 . S
C2783 C2785 1.561 . S
C2783 C2786 1.526 . S
C2784 H2768 0.959 . S
C2784 H2769 0.959 . S
C2784 H2770 0.961 . S
C2784 C2783 1.502 . S
C2785 H2771 0.960 . S
C2785 H2772 0.961 . S
C2785 H2773 0.959 . S
C2785 C2783 1.561 . S
C2786 C2783 1.526 . S
C2786 C2787 1.396 . S
C2786 C2791 1.390 . S
C2787 C2781 1.465 . S
C2787 C2786 1.396 . S
C2787 C2788 1.399 . S
C2788 H2774 0.929 . S
C2788 C2787 1.399 . S
C2788 C2789 1.385 . S
C2789 H2775 0.931 . S
C2789 C2788 1.385 . S
C2789 C2790 1.389 . S
C2790 C2789 1.389 . S
C2790 C2791 1.387 . S
C2791 H2776 0.930 . S
C2791 C2786 1.390 . S
C2791 C2790 1.387 . S
H2792 C2804 0.930 . S
H2793 C2806 0.930 . S
H2794 C2807 0.930 . S
H2795 C2811 0.959 . S
H2796 C2811 0.959 . S
H2797 C2811 0.961 . S
H2798 C2812 0.960 . S
H2799 C2812 0.961 . S
H2800 C2812 0.959 . S
H2801 C2815 0.929 . S
H2802 C2816 0.931 . S
H2803 C2818 0.930 . S
C2804 H2792 0.930 . S
C2804 C2805 1.399 . S
C2804 C2809 1.399 . S
C2805 C2804 1.399 . S
C2805 C2806 1.376 . S
C2806 H2793 0.930 . S
C2806 C2805 1.376 . S
C2806 C2807 1.388 . S
C2807 H2794 0.930 . S
C2807 C2806 1.388 . S
C2807 C2808 1.390 . S
C2808 C2807 1.390 . S
C2808 C2809 1.394 . S
C2808 C2814 1.465 . S
C2809 C2804 1.399 . S
C2809 C2808 1.394 . S
C2809 C2810 1.516 . S
C2810 C2809 1.516 . S
C2810 C2811 1.502 . S
C2810 C2812 1.561 . S
C2810 C2813 1.526 . S
C2811 H2795 0.959 . S
C2811 H2796 0.959 . S
C2811 H2797 0.961 . S
C2811 C2810 1.502 . S
C2812 H2798 0.960 . S
C2812 H2799 0.961 . S
C2812 H2800 0.959 . S
C2812 C2810 1.561 . S
C2813 C2810 1.526 . S
C2813 C2814 1.396 . S
C2813 C2818 1.390 . S
C2814 C2808 1.465 . S
C2814 C2813 1.396 . S
C2814 C2815 1.399 . S
C2815 H2801 0.929 . S
C2815 C2814 1.399 . S
C2815 C2816 1.385 . S
C2816 H2802 0.931 . S
C2816 C2815 1.385 . S
C2816 C2817 1.389 . S
C2817 C2816 1.389 . S
C2817 C2818 1.387 . S
C2818 H2803 0.930 . S
C2818 C2813 1.390 . S
C2818 C2817 1.387 . S
H2819 C2831 0.930 . S
H2820 C2833 0.930 . S
H2821 C2834 0.930 . S
H2822 C2838 0.959 . S
H2823 C2838 0.959 . S
H2824 C2838 0.961 . S
H2825 C2839 0.960 . S
H2826 C2839 0.961 . S
H2827 C2839 0.959 . S
H2828 C2842 0.929 . S
H2829 C2843 0.931 . S
H2830 C2845 0.930 . S
C2831 H2819 0.930 . S
C2831 C2832 1.399 . S
C2831 C2836 1.399 . S
C2832 C2831 1.399 . S
C2832 C2833 1.376 . S
C2833 H2820 0.930 . S
C2833 C2832 1.376 . S
C2833 C2834 1.388 . S
C2834 H2821 0.930 . S
C2834 C2833 1.388 . S
C2834 C2835 1.390 . S
C2835 C2834 1.390 . S
C2835 C2836 1.394 . S
C2835 C2841 1.465 . S
C2836 C2831 1.399 . S
C2836 C2835 1.394 . S
C2836 C2837 1.516 . S
C2837 C2836 1.516 . S
C2837 C2838 1.502 . S
C2837 C2839 1.561 . S
C2837 C2840 1.526 . S
C2838 H2822 0.959 . S
C2838 H2823 0.959 . S
C2838 H2824 0.961 . S
C2838 C2837 1.502 . S
C2839 H2825 0.960 . S
C2839 H2826 0.961 . S
C2839 H2827 0.959 . S
C2839 C2837 1.561 . S
C2840 C2837 1.526 . S
C2840 C2841 1.396 . S
C2840 C2845 1.390 . S
C2841 C2835 1.465 . S
C2841 C2840 1.396 . S
C2841 C2842 1.399 . S
C2842 H2828 0.929 . S
C2842 C2841 1.399 . S
C2842 C2843 1.385 . S
C2843 H2829 0.931 . S
C2843 C2842 1.385 . S
C2843 C2844 1.389 . S
C2844 C2843 1.389 . S
C2844 C2845 1.387 . S
C2845 H2830 0.930 . S
C2845 C2840 1.390 . S
C2845 C2844 1.387 . S
H2846 C2858 0.930 . S
H2847 C2860 0.930 . S
H2848 C2861 0.930 . S
H2849 C2865 0.959 . S
H2850 C2865 0.959 . S
H2851 C2865 0.961 . S
H2852 C2866 0.960 . S
H2853 C2866 0.961 . S
H2854 C2866 0.959 . S
H2855 C2869 0.929 . S
H2856 C2870 0.931 . S
H2857 C2872 0.930 . S
C2858 H2846 0.930 . S
C2858 C2859 1.399 . S
C2858 C2863 1.399 . S
C2859 C2858 1.399 . S
C2859 C2860 1.376 . S
C2860 H2847 0.930 . S
C2860 C2859 1.376 . S
C2860 C2861 1.388 . S
C2861 H2848 0.930 . S
C2861 C2860 1.388 . S
C2861 C2862 1.390 . S
C2862 C2861 1.390 . S
C2862 C2863 1.394 . S
C2862 C2868 1.465 . S
C2863 C2858 1.399 . S
C2863 C2862 1.394 . S
C2863 C2864 1.516 . S
C2864 C2863 1.516 . S
C2864 C2865 1.502 . S
C2864 C2866 1.561 . S
C2864 C2867 1.526 . S
C2865 H2849 0.959 . S
C2865 H2850 0.959 . S
C2865 H2851 0.961 . S
C2865 C2864 1.502 . S
C2866 H2852 0.960 . S
C2866 H2853 0.961 . S
C2866 H2854 0.959 . S
C2866 C2864 1.561 . S
C2867 C2864 1.526 . S
C2867 C2868 1.396 . S
C2867 C2872 1.390 . S
C2868 C2862 1.465 . S
C2868 C2867 1.396 . S
C2868 C2869 1.399 . S
C2869 H2855 0.929 . S
C2869 C2868 1.399 . S
C2869 C2870 1.385 . S
C2870 H2856 0.931 . S
C2870 C2869 1.385 . S
C2870 C2871 1.389 . S
C2871 C2870 1.389 . S
C2871 C2872 1.387 . S
C2872 H2857 0.930 . S
C2872 C2867 1.390 . S
C2872 C2871 1.387 . S
H2873 C2885 0.930 . S
H2874 C2887 0.930 . S
H2875 C2888 0.930 . S
H2876 C2892 0.956 1_655 S
H2877 C2892 0.959 . S
H2878 C2892 0.961 1_655 S
H2879 C2893 0.960 . S
H2880 C2893 0.961 . S
H2881 C2893 0.959 . S
H2882 C2896 0.929 . S
H2883 C2897 0.931 . S
H2884 C2899 0.930 . S
C2885 H2873 0.930 . S
C2885 C2886 1.399 . S
C2885 C2890 1.399 1_655 S
C2886 C2885 1.399 . S
C2886 C2887 1.376 . S
C2887 H2874 0.930 . S
C2887 C2886 1.376 . S
C2887 C2888 1.388 1_655 S
C2888 H2875 0.930 . S
C2888 C2887 1.388 1_455 S
C2888 C2889 1.390 . S
C2889 C2888 1.390 . S
C2889 C2890 1.394 . S
C2889 C2895 1.465 . S
C2890 C2885 1.399 1_455 S
C2890 C2889 1.394 . S
C2890 C2891 1.516 . S
C2891 C2890 1.516 . S
C2891 C2892 1.502 . S
C2891 C2893 1.561 . S
C2891 C2894 1.526 . S
C2892 H2876 0.956 1_455 S
C2892 H2877 0.959 . S
C2892 H2878 0.961 1_455 S
C2892 C2891 1.502 . S
C2893 H2879 0.960 . S
C2893 H2880 0.961 . S
C2893 H2881 0.959 . S
C2893 C2891 1.561 . S
C2894 C2891 1.526 . S
C2894 C2895 1.396 . S
C2894 C2899 1.390 . S
C2895 C2889 1.465 . S
C2895 C2894 1.396 . S
C2895 C2896 1.399 . S
C2896 H2882 0.929 . S
C2896 C2895 1.399 . S
C2896 C2897 1.385 . S
C2897 H2883 0.931 . S
C2897 C2896 1.385 . S
C2897 C2898 1.389 . S
C2898 C2897 1.389 . S
C2898 C2899 1.387 . S
C2899 H2884 0.930 . S
C2899 C2894 1.390 . S
C2899 C2898 1.387 . S
H2900 C2912 0.930 . S
H2901 C2914 0.930 . S
H2902 C2915 0.930 . S
H2903 C2919 0.959 . S
H2904 C2919 0.959 . S
H2905 C2919 0.961 . S
H2906 C2920 0.960 . S
H2907 C2920 0.961 . S
H2908 C2920 0.959 . S
H2909 C2923 0.929 . S
H2910 C2924 0.931 . S
H2911 C2926 0.930 . S
C2912 H2900 0.930 . S
C2912 C2913 1.399 . S
C2912 C2917 1.399 . S
C2913 C2912 1.399 . S
C2913 C2914 1.376 . S
C2914 H2901 0.930 . S
C2914 C2913 1.376 . S
C2914 C2915 1.388 . S
C2915 H2902 0.930 . S
C2915 C2914 1.388 . S
C2915 C2916 1.390 . S
C2916 C2915 1.390 . S
C2916 C2917 1.394 . S
C2916 C2922 1.465 . S
C2917 C2912 1.399 . S
C2917 C2916 1.394 . S
C2917 C2918 1.516 . S
C2918 C2917 1.516 . S
C2918 C2919 1.502 . S
C2918 C2920 1.561 . S
C2918 C2921 1.526 . S
C2919 H2903 0.959 . S
C2919 H2904 0.959 . S
C2919 H2905 0.961 . S
C2919 C2918 1.502 . S
C2920 H2906 0.960 . S
C2920 H2907 0.961 . S
C2920 H2908 0.959 . S
C2920 C2918 1.561 . S
C2921 C2918 1.526 . S
C2921 C2922 1.396 . S
C2921 C2926 1.390 . S
C2922 C2916 1.465 . S
C2922 C2921 1.396 . S
C2922 C2923 1.399 . S
C2923 H2909 0.929 . S
C2923 C2922 1.399 . S
C2923 C2924 1.385 . S
C2924 H2910 0.931 . S
C2924 C2923 1.385 . S
C2924 C2925 1.389 . S
C2925 C2924 1.389 . S
C2925 C2926 1.387 . S
C2926 H2911 0.930 . S
C2926 C2921 1.390 . S
C2926 C2925 1.387 . S
H2927 C2939 0.930 . S
H2928 C2941 0.930 . S
H2929 C2942 0.930 . S
H2930 C2946 0.959 . S
H2931 C2946 0.959 . S
H2932 C2946 0.961 . S
H2933 C2947 0.960 . S
H2934 C2947 0.945 1_655 S
H2935 C2947 0.961 1_655 S
H2936 C2950 0.929 . S
H2937 C2951 0.931 . S
H2938 C2953 0.930 . S
C2939 H2927 0.930 . S
C2939 C2940 1.399 . S
C2939 C2944 1.399 . S
C2940 C2939 1.399 . S
C2940 C2941 1.376 . S
C2941 H2928 0.930 . S
C2941 C2940 1.376 . S
C2941 C2942 1.388 . S
C2942 H2929 0.930 . S
C2942 C2941 1.388 . S
C2942 C2943 1.390 . S
C2943 C2942 1.390 . S
C2943 C2944 1.394 . S
C2943 C2949 1.465 . S
C2944 C2939 1.399 . S
C2944 C2943 1.394 . S
C2944 C2945 1.516 . S
C2945 C2944 1.516 . S
C2945 C2946 1.502 . S
C2945 C2947 1.561 . S
C2945 C2948 1.526 . S
C2946 H2930 0.959 . S
C2946 H2931 0.959 . S
C2946 H2932 0.961 . S
C2946 C2945 1.502 . S
C2947 H2933 0.960 . S
C2947 H2934 0.945 1_455 S
C2947 H2935 0.961 1_455 S
C2947 C2945 1.561 . S
C2948 C2945 1.526 . S
C2948 C2949 1.396 . S
C2948 C2953 1.390 1_455 S
C2949 C2943 1.465 . S
C2949 C2948 1.396 . S
C2949 C2950 1.399 1_455 S
C2950 H2936 0.929 . S
C2950 C2949 1.399 1_655 S
C2950 C2951 1.385 . S
C2951 H2937 0.931 . S
C2951 C2950 1.385 . S
C2951 C2952 1.389 . S
C2952 C2951 1.389 . S
C2952 C2953 1.387 . S
C2953 H2938 0.930 . S
C2953 C2948 1.390 1_655 S
C2953 C2952 1.387 . S
H2954 C2966 0.930 . S
H2955 C2968 0.930 . S
H2956 C2969 0.930 . S
H2957 C2973 0.959 . S
H2958 C2973 0.959 . S
H2959 C2973 0.961 . S
H2960 C2974 0.960 . S
H2961 C2974 0.961 . S
H2962 C2974 0.959 . S
H2963 C2977 0.929 . S
H2964 C2978 0.931 . S
H2965 C2980 0.930 . S
C2966 H2954 0.930 . S
C2966 C2967 1.399 . S
C2966 C2971 1.399 . S
C2967 C2966 1.399 . S
C2967 C2968 1.376 . S
C2968 H2955 0.930 . S
C2968 C2967 1.376 . S
C2968 C2969 1.388 . S
C2969 H2956 0.930 . S
C2969 C2968 1.388 . S
C2969 C2970 1.390 . S
C2970 C2969 1.390 . S
C2970 C2971 1.394 . S
C2970 C2976 1.465 . S
C2971 C2966 1.399 . S
C2971 C2970 1.394 . S
C2971 C2972 1.516 . S
C2972 C2971 1.516 . S
C2972 C2973 1.502 . S
C2972 C2974 1.561 . S
C2972 C2975 1.526 . S
C2973 H2957 0.959 . S
C2973 H2958 0.959 . S
C2973 H2959 0.961 . S
C2973 C2972 1.502 . S
C2974 H2960 0.960 . S
C2974 H2961 0.961 . S
C2974 H2962 0.959 . S
C2974 C2972 1.561 . S
C2975 C2972 1.526 . S
C2975 C2976 1.396 . S
C2975 C2980 1.390 . S
C2976 C2970 1.465 . S
C2976 C2975 1.396 . S
C2976 C2977 1.399 . S
C2977 H2963 0.929 . S
C2977 C2976 1.399 . S
C2977 C2978 1.385 . S
C2978 H2964 0.931 . S
C2978 C2977 1.385 . S
C2978 C2979 1.389 . S
C2979 C2978 1.389 . S
C2979 C2980 1.387 . S
C2980 H2965 0.930 . S
C2980 C2975 1.390 . S
C2980 C2979 1.387 . S
H2981 C2993 0.930 . S
H2982 C2995 0.930 . S
H2983 C2996 0.930 . S
H2984 C3000 0.959 . S
H2985 C3000 0.959 . S
H2986 C3000 0.961 . S
H2987 C3001 0.960 . S
H2988 C3001 0.961 . S
H2989 C3001 0.959 . S
H2990 C3004 0.929 . S
H2991 C3005 0.931 . S
H2992 C3007 0.930 . S
C2993 H2981 0.930 . S
C2993 C2994 1.399 . S
C2993 C2998 1.399 . S
C2994 C2993 1.399 . S
C2994 C2995 1.376 . S
C2995 H2982 0.930 . S
C2995 C2994 1.376 . S
C2995 C2996 1.388 . S
C2996 H2983 0.930 . S
C2996 C2995 1.388 . S
C2996 C2997 1.390 . S
C2997 C2996 1.390 . S
C2997 C2998 1.394 . S
C2997 C3003 1.465 . S
C2998 C2993 1.399 . S
C2998 C2997 1.394 . S
C2998 C2999 1.516 . S
C2999 C2998 1.516 . S
C2999 C3000 1.502 . S
C2999 C3001 1.561 . S
C2999 C3002 1.526 . S
C3000 H2984 0.959 . S
C3000 H2985 0.959 . S
C3000 H2986 0.961 . S
C3000 C2999 1.502 . S
C3001 H2987 0.960 . S
C3001 H2988 0.961 . S
C3001 H2989 0.959 . S
C3001 C2999 1.561 . S
C3002 C2999 1.526 . S
C3002 C3003 1.396 . S
C3002 C3007 1.390 . S
C3003 C2997 1.465 . S
C3003 C3002 1.396 . S
C3003 C3004 1.399 . S
C3004 H2990 0.929 . S
C3004 C3003 1.399 . S
C3004 C3005 1.385 . S
C3005 H2991 0.931 . S
C3005 C3004 1.385 . S
C3005 C3006 1.389 . S
C3006 C3005 1.389 . S
C3006 C3007 1.387 . S
C3007 H2992 0.930 . S
C3007 C3002 1.390 . S
C3007 C3006 1.387 . S
H3008 C3020 0.930 . S
H3009 C3022 0.930 . S
H3010 C3023 0.930 . S
H3011 C3027 0.959 . S
H3012 C3027 0.959 . S
H3013 C3027 0.961 . S
H3014 C3028 0.960 . S
H3015 C3028 0.961 . S
H3016 C3028 0.959 1_545 S
H3017 C3031 0.929 1_545 S
H3018 C3032 0.931 . S
H3019 C3034 0.930 . S
C3020 H3008 0.930 . S
C3020 C3021 1.399 . S
C3020 C3025 1.399 . S
C3021 C3020 1.399 . S
C3021 C3022 1.376 . S
C3022 H3009 0.930 . S
C3022 C3021 1.376 . S
C3022 C3023 1.388 . S
C3023 H3010 0.930 . S
C3023 C3022 1.388 . S
C3023 C3024 1.390 . S
C3024 C3023 1.390 . S
C3024 C3025 1.394 . S
C3024 C3030 1.465 1_545 S
C3025 C3020 1.399 . S
C3025 C3024 1.394 . S
C3025 C3026 1.516 1_545 S
C3026 C3025 1.516 1_565 S
C3026 C3027 1.502 . S
C3026 C3028 1.561 . S
C3026 C3029 1.526 . S
C3027 H3011 0.959 . S
C3027 H3012 0.959 . S
C3027 H3013 0.961 . S
C3027 C3026 1.502 . S
C3028 H3014 0.960 . S
C3028 H3015 0.961 . S
C3028 H3016 0.959 1_565 S
C3028 C3026 1.561 . S
C3029 C3026 1.526 . S
C3029 C3030 1.396 . S
C3029 C3034 1.390 . S
C3030 C3024 1.465 1_565 S
C3030 C3029 1.396 . S
C3030 C3031 1.399 . S
C3031 H3017 0.929 1_565 S
C3031 C3030 1.399 . S
C3031 C3032 1.385 . S
C3032 H3018 0.931 . S
C3032 C3031 1.385 . S
C3032 C3033 1.389 . S
C3033 C3032 1.389 . S
C3033 C3034 1.387 . S
C3034 H3019 0.930 . S
C3034 C3029 1.390 . S
C3034 C3033 1.387 . S
H3035 C3047 0.930 . S
H3036 C3049 0.930 . S
H3037 C3050 0.930 . S
H3038 C3054 0.959 . S
H3039 C3054 0.959 . S
H3040 C3054 0.961 . S
H3041 C3055 0.960 . S
H3042 C3055 0.961 . S
H3043 C3055 0.959 . S
H3044 C3058 0.929 . S
H3045 C3059 0.931 . S
H3046 C3061 0.930 . S
C3047 H3035 0.930 . S
C3047 C3048 1.399 . S
C3047 C3052 1.399 . S
C3048 C3047 1.399 . S
C3048 C3049 1.376 . S
C3049 H3036 0.930 . S
C3049 C3048 1.376 . S
C3049 C3050 1.388 . S
C3050 H3037 0.930 . S
C3050 C3049 1.388 . S
C3050 C3051 1.390 . S
C3051 C3050 1.390 . S
C3051 C3052 1.394 . S
C3051 C3057 1.465 . S
C3052 C3047 1.399 . S
C3052 C3051 1.394 . S
C3052 C3053 1.516 . S
C3053 C3052 1.516 . S
C3053 C3054 1.502 . S
C3053 C3055 1.561 . S
C3053 C3056 1.526 . S
C3054 H3038 0.959 . S
C3054 H3039 0.959 . S
C3054 H3040 0.961 . S
C3054 C3053 1.502 . S
C3055 H3041 0.960 . S
C3055 H3042 0.961 . S
C3055 H3043 0.959 . S
C3055 C3053 1.561 . S
C3056 C3053 1.526 . S
C3056 C3057 1.396 . S
C3056 C3061 1.390 . S
C3057 C3051 1.465 . S
C3057 C3056 1.396 . S
C3057 C3058 1.399 . S
C3058 H3044 0.929 . S
C3058 C3057 1.399 . S
C3058 C3059 1.385 . S
C3059 H3045 0.931 . S
C3059 C3058 1.385 . S
C3059 C3060 1.389 . S
C3060 C3059 1.389 . S
C3060 C3061 1.387 . S
C3061 H3046 0.930 . S
C3061 C3056 1.390 . S
C3061 C3060 1.387 . S
H3062 C3074 0.930 . S
H3063 C3076 0.930 . S
H3064 C3077 0.930 . S
H3065 C3081 0.959 1_565 S
H3066 C3081 0.959 . S
H3067 C3081 0.961 1_565 S
H3068 C3082 0.960 . S
H3069 C3082 0.961 . S
H3070 C3082 0.959 . S
H3071 C3085 0.929 . S
H3072 C3086 0.931 . S
H3073 C3088 0.930 . S
C3074 H3062 0.930 . S
C3074 C3075 1.399 . S
C3074 C3079 1.399 . S
C3075 C3074 1.399 . S
C3075 C3076 1.376 . S
C3076 H3063 0.930 . S
C3076 C3075 1.376 . S
C3076 C3077 1.388 . S
C3077 H3064 0.930 . S
C3077 C3076 1.388 . S
C3077 C3078 1.390 . S
C3078 C3077 1.390 . S
C3078 C3079 1.394 . S
C3078 C3084 1.465 1_565 S
C3079 C3074 1.399 . S
C3079 C3078 1.394 . S
C3079 C3080 1.516 1_565 S
C3080 C3079 1.516 1_545 S
C3080 C3081 1.502 . S
C3080 C3082 1.561 . S
C3080 C3083 1.526 . S
C3081 H3065 0.959 1_545 S
C3081 H3066 0.959 . S
C3081 H3067 0.961 1_545 S
C3081 C3080 1.502 . S
C3082 H3068 0.960 . S
C3082 H3069 0.961 . S
C3082 H3070 0.959 . S
C3082 C3080 1.561 . S
C3083 C3080 1.526 . S
C3083 C3084 1.396 . S
C3083 C3088 1.390 . S
C3084 C3078 1.465 1_545 S
C3084 C3083 1.396 . S
C3084 C3085 1.399 . S
C3085 H3071 0.929 . S
C3085 C3084 1.399 . S
C3085 C3086 1.385 . S
C3086 H3072 0.931 . S
C3086 C3085 1.385 . S
C3086 C3087 1.389 . S
C3087 C3086 1.389 . S
C3087 C3088 1.387 . S
C3088 H3073 0.930 . S
C3088 C3083 1.390 . S
C3088 C3087 1.387 . S
H3089 C3101 0.930 . S
H3090 C3103 0.930 . S
H3091 C3104 0.930 . S
H3092 C3108 0.959 . S
H3093 C3108 0.959 . S
H3094 C3108 0.961 . S
H3095 C3109 0.960 1_556 S
H3096 C3109 0.961 . S
H3097 C3109 0.959 . S
H3098 C3112 0.929 . S
H3099 C3113 0.931 . S
H3100 C3115 0.930 . S
C3101 H3089 0.930 . S
C3101 C3102 1.399 . S
C3101 C3106 1.399 . S
C3102 C3101 1.399 . S
C3102 C3103 1.376 . S
C3103 H3090 0.930 . S
C3103 C3102 1.376 . S
C3103 C3104 1.388 . S
C3104 H3091 0.930 . S
C3104 C3103 1.388 . S
C3104 C3105 1.390 . S
C3105 C3104 1.390 . S
C3105 C3106 1.394 . S
C3105 C3111 1.465 1_556 S
C3106 C3101 1.399 . S
C3106 C3105 1.394 . S
C3106 C3107 1.516 . S
C3107 C3106 1.516 . S
C3107 C3108 1.502 . S
C3107 C3109 1.561 1_556 S
C3107 C3110 1.526 1_556 S
C3108 H3092 0.959 . S
C3108 H3093 0.959 . S
C3108 H3094 0.961 . S
C3108 C3107 1.502 . S
C3109 H3095 0.960 1_554 S
C3109 H3096 0.961 . S
C3109 H3097 0.959 . S
C3109 C3107 1.561 1_554 S
C3110 C3107 1.526 1_554 S
C3110 C3111 1.396 . S
C3110 C3115 1.390 . S
C3111 C3105 1.465 1_554 S
C3111 C3110 1.396 . S
C3111 C3112 1.399 . S
C3112 H3098 0.929 . S
C3112 C3111 1.399 . S
C3112 C3113 1.385 . S
C3113 H3099 0.931 . S
C3113 C3112 1.385 . S
C3113 C3114 1.389 . S
C3114 C3113 1.389 . S
C3114 C3115 1.387 . S
C3115 H3100 0.930 . S
C3115 C3110 1.390 . S
C3115 C3114 1.387 . S
H3116 C3128 0.930 . S
H3117 C3130 0.930 . S
H3118 C3131 0.930 . S
H3119 C3135 0.970 . S
H3120 C3135 0.947 1_565 S
H3121 C3135 0.968 . S
H3122 C3136 0.960 . S
H3123 C3136 0.961 . S
H3124 C3136 0.959 . S
H3125 C3139 0.929 . S
H3126 C3140 0.931 . S
H3127 C3142 0.930 . S
C3128 H3116 0.930 . S
C3128 C3129 1.399 . S
C3128 C3133 1.399 . S
C3129 C3128 1.399 . S
C3129 C3130 1.376 . S
C3130 H3117 0.930 . S
C3130 C3129 1.376 . S
C3130 C3131 1.388 . S
C3131 H3118 0.930 . S
C3131 C3130 1.388 . S
C3131 C3132 1.390 . S
C3132 C3131 1.390 . S
C3132 C3133 1.394 . S
C3132 C3138 1.465 1_545 S
C3133 C3128 1.399 . S
C3133 C3132 1.394 . S
C3133 C3134 1.516 1_545 S
C3134 C3133 1.516 1_565 S
C3134 C3135 1.496 1_565 S
C3134 C3136 1.561 . S
C3134 C3137 1.526 . S
C3135 H3119 0.970 . S
C3135 H3120 0.947 1_545 S
C3135 H3121 0.968 . S
C3135 C3134 1.496 1_545 S
C3136 H3122 0.960 . S
C3136 H3123 0.961 . S
C3136 H3124 0.959 . S
C3136 C3134 1.561 . S
C3137 C3134 1.526 . S
C3137 C3138 1.396 . S
C3137 C3142 1.390 . S
C3138 C3132 1.465 1_565 S
C3138 C3137 1.396 . S
C3138 C3139 1.399 . S
C3139 H3125 0.929 . S
C3139 C3138 1.399 . S
C3139 C3140 1.385 . S
C3140 H3126 0.931 . S
C3140 C3139 1.385 . S
C3140 C3141 1.389 . S
C3141 C3140 1.389 . S
C3141 C3142 1.387 . S
C3142 H3127 0.930 . S
C3142 C3137 1.390 . S
C3142 C3141 1.387 . S
H3143 C3155 0.930 . S
H3144 C3157 0.930 . S
H3145 C3158 0.930 . S
H3146 C3162 0.959 . S
H3147 C3162 0.959 . S
H3148 C3162 0.961 . S
H3149 C3163 0.960 . S
H3150 C3163 0.961 . S
H3151 C3163 0.959 . S
H3152 C3166 0.929 . S
H3153 C3167 0.931 . S
H3154 C3169 0.930 . S
C3155 H3143 0.930 . S
C3155 C3156 1.399 . S
C3155 C3160 1.399 . S
C3156 C3155 1.399 . S
C3156 C3157 1.376 . S
C3157 H3144 0.930 . S
C3157 C3156 1.376 . S
C3157 C3158 1.388 . S
C3158 H3145 0.930 . S
C3158 C3157 1.388 . S
C3158 C3159 1.390 . S
C3159 C3158 1.390 . S
C3159 C3160 1.394 . S
C3159 C3165 1.465 . S
C3160 C3155 1.399 . S
C3160 C3159 1.394 . S
C3160 C3161 1.516 . S
C3161 C3160 1.516 . S
C3161 C3162 1.502 . S
C3161 C3163 1.561 . S
C3161 C3164 1.526 . S
C3162 H3146 0.959 . S
C3162 H3147 0.959 . S
C3162 H3148 0.961 . S
C3162 C3161 1.502 . S
C3163 H3149 0.960 . S
C3163 H3150 0.961 . S
C3163 H3151 0.959 . S
C3163 C3161 1.561 . S
C3164 C3161 1.526 . S
C3164 C3165 1.396 . S
C3164 C3169 1.390 . S
C3165 C3159 1.465 . S
C3165 C3164 1.396 . S
C3165 C3166 1.399 . S
C3166 H3152 0.929 . S
C3166 C3165 1.399 . S
C3166 C3167 1.385 . S
C3167 H3153 0.931 . S
C3167 C3166 1.385 . S
C3167 C3168 1.389 . S
C3168 C3167 1.389 . S
C3168 C3169 1.387 . S
C3169 H3154 0.930 . S
C3169 C3164 1.390 . S
C3169 C3168 1.387 . S
H3170 C3182 0.930 . S
H3171 C3184 0.930 . S
H3172 C3185 0.930 . S
H3173 C3189 0.959 . S
H3174 C3189 0.959 . S
H3175 C3189 0.961 . S
H3176 C3190 0.960 . S
H3177 C3190 0.961 . S
H3178 C3190 0.959 . S
H3179 C3193 0.929 . S
H3180 C3194 0.931 . S
H3181 C3196 0.930 . S
C3182 H3170 0.930 . S
C3182 C3183 1.399 . S
C3182 C3187 1.399 . S
C3183 C3182 1.399 . S
C3183 C3184 1.376 . S
C3184 H3171 0.930 . S
C3184 C3183 1.376 . S
C3184 C3185 1.388 1_545 S
C3185 H3172 0.930 . S
C3185 C3184 1.388 1_565 S
C3185 C3186 1.390 1_565 S
C3186 C3185 1.390 1_545 S
C3186 C3187 1.394 . S
C3186 C3192 1.465 1_545 S
C3187 C3182 1.399 . S
C3187 C3186 1.394 . S
C3187 C3188 1.516 . S
C3188 C3187 1.516 . S
C3188 C3189 1.502 . S
C3188 C3190 1.561 . S
C3188 C3191 1.526 1_545 S
C3189 H3173 0.959 . S
C3189 H3174 0.959 . S
C3189 H3175 0.961 . S
C3189 C3188 1.502 . S
C3190 H3176 0.960 . S
C3190 H3177 0.961 . S
C3190 H3178 0.959 . S
C3190 C3188 1.561 . S
C3191 C3188 1.526 1_565 S
C3191 C3192 1.396 . S
C3191 C3196 1.390 . S
C3192 C3186 1.465 1_565 S
C3192 C3191 1.396 . S
C3192 C3193 1.399 . S
C3193 H3179 0.929 . S
C3193 C3192 1.399 . S
C3193 C3194 1.385 . S
C3194 H3180 0.931 . S
C3194 C3193 1.385 . S
C3194 C3195 1.389 . S
C3195 C3194 1.389 . S
C3195 C3196 1.387 . S
C3196 H3181 0.930 . S
C3196 C3191 1.390 . S
C3196 C3195 1.387 . S
H3197 C3209 0.930 . S
H3198 C3211 0.930 . S
H3199 C3212 0.930 1_554 S
H3200 C3216 0.959 . S
H3201 C3216 0.959 . S
H3202 C3216 0.961 . S
H3203 C3217 0.958 . S
H3204 C3217 0.962 1_554 S
H3205 C3217 0.961 1_554 S
H3206 C3220 0.929 . S
H3207 C3221 0.931 . S
H3208 C3223 0.930 . S
C3209 H3197 0.930 . S
C3209 C3210 1.399 . S
C3209 C3214 1.399 . S
C3210 C3209 1.399 . S
C3210 C3211 1.376 . S
C3211 H3198 0.930 . S
C3211 C3210 1.376 . S
C3211 C3212 1.388 . S
C3212 H3199 0.930 1_556 S
C3212 C3211 1.388 . S
C3212 C3213 1.390 . S
C3213 C3212 1.390 . S
C3213 C3214 1.394 . S
C3213 C3219 1.465 1_556 S
C3214 C3209 1.399 . S
C3214 C3213 1.394 . S
C3214 C3215 1.516 . S
C3215 C3214 1.516 . S
C3215 C3216 1.502 . S
C3215 C3217 1.560 . S
C3215 C3218 1.526 1_556 S
C3216 H3200 0.959 . S
C3216 H3201 0.959 . S
C3216 H3202 0.961 . S
C3216 C3215 1.502 . S
C3217 H3203 0.958 . S
C3217 H3204 0.962 1_556 S
C3217 H3205 0.961 1_556 S
C3217 C3215 1.560 . S
C3218 C3215 1.526 1_554 S
C3218 C3219 1.396 . S
C3218 C3223 1.390 . S
C3219 C3213 1.465 1_554 S
C3219 C3218 1.396 . S
C3219 C3220 1.399 . S
C3220 H3206 0.929 . S
C3220 C3219 1.399 . S
C3220 C3221 1.385 . S
C3221 H3207 0.931 . S
C3221 C3220 1.385 . S
C3221 C3222 1.389 . S
C3222 C3221 1.389 . S
C3222 C3223 1.387 . S
C3223 H3208 0.930 . S
C3223 C3218 1.390 . S
C3223 C3222 1.387 . S
H3224 C3236 0.930 . S
H3225 C3238 0.930 . S
H3226 C3239 0.930 . S
H3227 C3243 0.959 . S
H3228 C3243 0.959 . S
H3229 C3243 0.961 . S
H3230 C3244 0.960 . S
H3231 C3244 0.961 . S
H3232 C3244 0.959 . S
H3233 C3247 0.929 . S
H3234 C3248 0.931 . S
H3235 C3250 0.930 . S
C3236 H3224 0.930 . S
C3236 C3237 1.399 . S
C3236 C3241 1.399 . S
C3237 C3236 1.399 . S
C3237 C3238 1.376 . S
C3238 H3225 0.930 . S
C3238 C3237 1.376 . S
C3238 C3239 1.388 . S
C3239 H3226 0.930 . S
C3239 C3238 1.388 . S
C3239 C3240 1.390 . S
C3240 C3239 1.390 . S
C3240 C3241 1.394 . S
C3240 C3246 1.465 . S
C3241 C3236 1.399 . S
C3241 C3240 1.394 . S
C3241 C3242 1.516 . S
C3242 C3241 1.516 . S
C3242 C3243 1.502 . S
C3242 C3244 1.561 . S
C3242 C3245 1.526 . S
C3243 H3227 0.959 . S
C3243 H3228 0.959 . S
C3243 H3229 0.961 . S
C3243 C3242 1.502 . S
C3244 H3230 0.960 . S
C3244 H3231 0.961 . S
C3244 H3232 0.959 . S
C3244 C3242 1.561 . S
C3245 C3242 1.526 . S
C3245 C3246 1.396 . S
C3245 C3250 1.390 . S
C3246 C3240 1.465 . S
C3246 C3245 1.396 . S
C3246 C3247 1.399 . S
C3247 H3233 0.929 . S
C3247 C3246 1.399 . S
C3247 C3248 1.385 . S
C3248 H3234 0.931 . S
C3248 C3247 1.385 . S
C3248 C3249 1.389 . S
C3249 C3248 1.389 . S
C3249 C3250 1.387 . S
C3250 H3235 0.930 . S
C3250 C3245 1.390 . S
C3250 C3249 1.387 . S
H3251 C3263 0.930 . S
H3252 C3265 0.930 . S
H3253 C3266 0.930 . S
H3254 C3270 0.959 . S
H3255 C3270 0.959 . S
H3256 C3270 0.961 . S
H3257 C3271 0.960 1_556 S
H3258 C3271 0.961 . S
H3259 C3271 0.959 . S
H3260 C3274 0.929 . S
H3261 C3275 0.931 . S
H3262 C3277 0.930 . S
C3263 H3251 0.930 . S
C3263 C3264 1.399 . S
C3263 C3268 1.399 . S
C3264 C3263 1.399 . S
C3264 C3265 1.376 . S
C3265 H3252 0.930 . S
C3265 C3264 1.376 . S
C3265 C3266 1.388 . S
C3266 H3253 0.930 . S
C3266 C3265 1.388 . S
C3266 C3267 1.390 . S
C3267 C3266 1.390 . S
C3267 C3268 1.394 . S
C3267 C3273 1.465 1_556 S
C3268 C3263 1.399 . S
C3268 C3267 1.394 . S
C3268 C3269 1.516 . S
C3269 C3268 1.516 . S
C3269 C3270 1.502 . S
C3269 C3271 1.561 1_556 S
C3269 C3272 1.526 1_556 S
C3270 H3254 0.959 . S
C3270 H3255 0.959 . S
C3270 H3256 0.961 . S
C3270 C3269 1.502 . S
C3271 H3257 0.960 1_554 S
C3271 H3258 0.961 . S
C3271 H3259 0.959 . S
C3271 C3269 1.561 1_554 S
C3272 C3269 1.526 1_554 S
C3272 C3273 1.396 . S
C3272 C3277 1.390 . S
C3273 C3267 1.465 1_554 S
C3273 C3272 1.396 . S
C3273 C3274 1.399 . S
C3274 H3260 0.929 . S
C3274 C3273 1.399 . S
C3274 C3275 1.385 . S
C3275 H3261 0.931 . S
C3275 C3274 1.385 . S
C3275 C3276 1.389 . S
C3276 C3275 1.389 . S
C3276 C3277 1.387 . S
C3277 H3262 0.930 . S
C3277 C3272 1.390 . S
C3277 C3276 1.387 . S
H3278 C3290 0.930 . S
H3279 C3292 0.930 . S
H3280 C3293 0.930 . S
H3281 C3297 0.959 . S
H3282 C3297 0.959 . S
H3283 C3297 0.961 . S
H3284 C3298 0.960 . S
H3285 C3298 0.961 . S
H3286 C3298 0.959 . S
H3287 C3301 0.929 . S
H3288 C3302 0.931 . S
H3289 C3304 0.930 . S
C3290 H3278 0.930 . S
C3290 C3291 1.399 . S
C3290 C3295 1.399 . S
C3291 C3290 1.399 . S
C3291 C3292 1.376 . S
C3292 H3279 0.930 . S
C3292 C3291 1.376 . S
C3292 C3293 1.388 . S
C3293 H3280 0.930 . S
C3293 C3292 1.388 . S
C3293 C3294 1.390 . S
C3294 C3293 1.390 . S
C3294 C3295 1.394 . S
C3294 C3300 1.465 . S
C3295 C3290 1.399 . S
C3295 C3294 1.394 . S
C3295 C3296 1.516 . S
C3296 C3295 1.516 . S
C3296 C3297 1.502 . S
C3296 C3298 1.561 . S
C3296 C3299 1.526 . S
C3297 H3281 0.959 . S
C3297 H3282 0.959 . S
C3297 H3283 0.961 . S
C3297 C3296 1.502 . S
C3298 H3284 0.960 . S
C3298 H3285 0.961 . S
C3298 H3286 0.959 . S
C3298 C3296 1.561 . S
C3299 C3296 1.526 . S
C3299 C3300 1.396 . S
C3299 C3304 1.390 . S
C3300 C3294 1.465 . S
C3300 C3299 1.396 . S
C3300 C3301 1.399 . S
C3301 H3287 0.929 . S
C3301 C3300 1.399 . S
C3301 C3302 1.385 . S
C3302 H3288 0.931 . S
C3302 C3301 1.385 . S
C3302 C3303 1.389 . S
C3303 C3302 1.389 . S
C3303 C3304 1.387 . S
C3304 H3289 0.930 . S
C3304 C3299 1.390 . S
C3304 C3303 1.387 . S
H3305 C3317 0.930 . S
H3306 C3319 0.930 . S
H3307 C3320 0.930 . S
H3308 C3324 0.959 . S
H3309 C3324 0.959 . S
H3310 C3324 0.961 . S
H3311 C3325 0.960 . S
H3312 C3325 0.961 . S
H3313 C3325 0.959 . S
H3314 C3328 0.929 . S
H3315 C3329 0.931 . S
H3316 C3331 0.930 . S
C3317 H3305 0.930 . S
C3317 C3318 1.399 . S
C3317 C3322 1.399 . S
C3318 C3317 1.399 . S
C3318 C3319 1.376 . S
C3319 H3306 0.930 . S
C3319 C3318 1.376 . S
C3319 C3320 1.388 . S
C3320 H3307 0.930 . S
C3320 C3319 1.388 . S
C3320 C3321 1.390 . S
C3321 C3320 1.390 . S
C3321 C3322 1.394 . S
C3321 C3327 1.465 . S
C3322 C3317 1.399 . S
C3322 C3321 1.394 . S
C3322 C3323 1.516 . S
C3323 C3322 1.516 . S
C3323 C3324 1.502 . S
C3323 C3325 1.561 . S
C3323 C3326 1.526 . S
C3324 H3308 0.959 . S
C3324 H3309 0.959 . S
C3324 H3310 0.961 . S
C3324 C3323 1.502 . S
C3325 H3311 0.960 . S
C3325 H3312 0.961 . S
C3325 H3313 0.959 . S
C3325 C3323 1.561 . S
C3326 C3323 1.526 . S
C3326 C3327 1.396 . S
C3326 C3331 1.390 . S
C3327 C3321 1.465 . S
C3327 C3326 1.396 . S
C3327 C3328 1.399 . S
C3328 H3314 0.929 . S
C3328 C3327 1.399 . S
C3328 C3329 1.385 . S
C3329 H3315 0.931 . S
C3329 C3328 1.385 . S
C3329 C3330 1.389 . S
C3330 C3329 1.389 . S
C3330 C3331 1.387 . S
C3331 H3316 0.930 . S
C3331 C3326 1.390 . S
C3331 C3330 1.387 . S
H3332 C3344 0.930 . S
H3333 C3346 0.930 . S
H3334 C3347 0.930 . S
H3335 C3351 0.959 . S
H3336 C3351 0.959 . S
H3337 C3351 0.961 . S
H3338 C3352 0.960 . S
H3339 C3352 0.961 . S
H3340 C3352 0.959 . S
H3341 C3355 0.929 . S
H3342 C3356 0.931 . S
H3343 C3358 0.930 . S
C3344 H3332 0.930 . S
C3344 C3345 1.399 . S
C3344 C3349 1.399 . S
C3345 C3344 1.399 . S
C3345 C3346 1.376 . S
C3346 H3333 0.930 . S
C3346 C3345 1.376 . S
C3346 C3347 1.388 . S
C3347 H3334 0.930 . S
C3347 C3346 1.388 . S
C3347 C3348 1.390 . S
C3348 C3347 1.390 . S
C3348 C3349 1.394 . S
C3348 C3354 1.465 . S
C3349 C3344 1.399 . S
C3349 C3348 1.394 . S
C3349 C3350 1.516 . S
C3350 C3349 1.516 . S
C3350 C3351 1.502 . S
C3350 C3352 1.561 . S
C3350 C3353 1.526 . S
C3351 H3335 0.959 . S
C3351 H3336 0.959 . S
C3351 H3337 0.961 . S
C3351 C3350 1.502 . S
C3352 H3338 0.960 . S
C3352 H3339 0.961 . S
C3352 H3340 0.959 . S
C3352 C3350 1.561 . S
C3353 C3350 1.526 . S
C3353 C3354 1.396 . S
C3353 C3358 1.390 . S
C3354 C3348 1.465 . S
C3354 C3353 1.396 . S
C3354 C3355 1.399 . S
C3355 H3341 0.929 . S
C3355 C3354 1.399 . S
C3355 C3356 1.385 . S
C3356 H3342 0.931 . S
C3356 C3355 1.385 . S
C3356 C3357 1.389 . S
C3357 C3356 1.389 . S
C3357 C3358 1.387 . S
C3358 H3343 0.930 . S
C3358 C3353 1.390 . S
C3358 C3357 1.387 . S
H3359 C3371 0.930 . S
H3360 C3373 0.930 . S
H3361 C3374 0.930 . S
H3362 C3378 0.959 . S
H3363 C3378 0.959 . S
H3364 C3378 0.961 . S
H3365 C3379 0.960 . S
H3366 C3379 0.961 1_554 S
H3367 C3379 0.959 . S
H3368 C3382 0.929 . S
H3369 C3383 0.931 . S
H3370 C3385 0.930 . S
C3371 H3359 0.930 . S
C3371 C3372 1.399 . S
C3371 C3376 1.399 . S
C3372 C3371 1.399 . S
C3372 C3373 1.376 . S
C3373 H3360 0.930 . S
C3373 C3372 1.376 . S
C3373 C3374 1.388 . S
C3374 H3361 0.930 . S
C3374 C3373 1.388 . S
C3374 C3375 1.390 . S
C3375 C3374 1.390 . S
C3375 C3376 1.394 . S
C3375 C3381 1.465 1_556 S
C3376 C3371 1.399 . S
C3376 C3375 1.394 . S
C3376 C3377 1.516 1_556 S
C3377 C3376 1.516 1_554 S
C3377 C3378 1.502 . S
C3377 C3379 1.561 1_554 S
C3377 C3380 1.526 . S
C3378 H3362 0.959 . S
C3378 H3363 0.959 . S
C3378 H3364 0.961 . S
C3378 C3377 1.502 . S
C3379 H3365 0.960 . S
C3379 H3366 0.961 1_556 S
C3379 H3367 0.959 . S
C3379 C3377 1.561 1_556 S
C3380 C3377 1.526 . S
C3380 C3381 1.396 . S
C3380 C3385 1.390 . S
C3381 C3375 1.465 1_554 S
C3381 C3380 1.396 . S
C3381 C3382 1.399 . S
C3382 H3368 0.929 . S
C3382 C3381 1.399 . S
C3382 C3383 1.385 . S
C3383 H3369 0.931 . S
C3383 C3382 1.385 . S
C3383 C3384 1.389 . S
C3384 C3383 1.389 . S
C3384 C3385 1.387 . S
C3385 H3370 0.930 . S
C3385 C3380 1.390 . S
C3385 C3384 1.387 . S
H3386 C3398 0.930 . S
H3387 C3400 0.930 . S
H3388 C3401 0.930 . S
H3389 C3405 0.959 . S
H3390 C3405 0.959 . S
H3391 C3405 0.961 . S
H3392 C3406 0.960 . S
H3393 C3406 0.961 . S
H3394 C3406 0.959 . S
H3395 C3409 0.929 . S
H3396 C3410 0.931 . S
H3397 C3412 0.930 . S
C3398 H3386 0.930 . S
C3398 C3399 1.399 . S
C3398 C3403 1.399 . S
C3399 C3398 1.399 . S
C3399 C3400 1.376 . S
C3400 H3387 0.930 . S
C3400 C3399 1.376 . S
C3400 C3401 1.388 . S
C3401 H3388 0.930 . S
C3401 C3400 1.388 . S
C3401 C3402 1.390 . S
C3402 C3401 1.390 . S
C3402 C3403 1.394 . S
C3402 C3408 1.465 . S
C3403 C3398 1.399 . S
C3403 C3402 1.394 . S
C3403 C3404 1.516 . S
C3404 C3403 1.516 . S
C3404 C3405 1.502 . S
C3404 C3406 1.561 . S
C3404 C3407 1.526 . S
C3405 H3389 0.959 . S
C3405 H3390 0.959 . S
C3405 H3391 0.961 . S
C3405 C3404 1.502 . S
C3406 H3392 0.960 . S
C3406 H3393 0.961 . S
C3406 H3394 0.959 . S
C3406 C3404 1.561 . S
C3407 C3404 1.526 . S
C3407 C3408 1.396 . S
C3407 C3412 1.390 . S
C3408 C3402 1.465 . S
C3408 C3407 1.396 . S
C3408 C3409 1.399 . S
C3409 H3395 0.929 . S
C3409 C3408 1.399 . S
C3409 C3410 1.385 . S
C3410 H3396 0.931 . S
C3410 C3409 1.385 . S
C3410 C3411 1.389 . S
C3411 C3410 1.389 . S
C3411 C3412 1.387 . S
C3412 H3397 0.930 . S
C3412 C3407 1.390 . S
C3412 C3411 1.387 . S
H3413 C3425 0.930 . S
H3414 C3427 0.930 . S
H3415 C3428 0.930 . S
H3416 C3432 0.959 . S
H3417 C3432 0.959 . S
H3418 C3432 0.961 . S
H3419 C3433 0.960 . S
H3420 C3433 0.961 . S
H3421 C3433 0.959 . S
H3422 C3436 0.929 . S
H3423 C3437 0.931 . S
H3424 C3439 0.930 . S
C3425 H3413 0.930 . S
C3425 C3426 1.399 . S
C3425 C3430 1.399 . S
C3426 C3425 1.399 . S
C3426 C3427 1.376 . S
C3427 H3414 0.930 . S
C3427 C3426 1.376 . S
C3427 C3428 1.388 . S
C3428 H3415 0.930 . S
C3428 C3427 1.388 . S
C3428 C3429 1.390 . S
C3429 C3428 1.390 . S
C3429 C3430 1.394 . S
C3429 C3435 1.465 . S
C3430 C3425 1.399 . S
C3430 C3429 1.394 . S
C3430 C3431 1.516 . S
C3431 C3430 1.516 . S
C3431 C3432 1.502 . S
C3431 C3433 1.561 . S
C3431 C3434 1.526 . S
C3432 H3416 0.959 . S
C3432 H3417 0.959 . S
C3432 H3418 0.961 . S
C3432 C3431 1.502 . S
C3433 H3419 0.960 . S
C3433 H3420 0.961 . S
C3433 H3421 0.959 . S
C3433 C3431 1.561 . S
C3434 C3431 1.526 . S
C3434 C3435 1.396 . S
C3434 C3439 1.390 . S
C3435 C3429 1.465 . S
C3435 C3434 1.396 . S
C3435 C3436 1.399 . S
C3436 H3422 0.929 . S
C3436 C3435 1.399 . S
C3436 C3437 1.385 . S
C3437 H3423 0.931 . S
C3437 C3436 1.385 . S
C3437 C3438 1.389 . S
C3438 C3437 1.389 . S
C3438 C3439 1.387 . S
C3439 H3424 0.930 . S
C3439 C3434 1.390 . S
C3439 C3438 1.387 . S
H3440 C3452 0.930 . S
H3441 C3454 0.930 . S
H3442 C3455 0.930 . S
H3443 C3459 0.959 . S
H3444 C3459 0.959 . S
H3445 C3459 0.961 . S
H3446 C3460 0.960 . S
H3447 C3460 0.961 . S
H3448 C3460 0.959 . S
H3449 C3463 0.929 . S
H3450 C3464 0.931 . S
H3451 C3466 0.930 . S
C3452 H3440 0.930 . S
C3452 C3453 1.399 . S
C3452 C3457 1.399 . S
C3453 C3452 1.399 . S
C3453 C3454 1.376 . S
C3454 H3441 0.930 . S
C3454 C3453 1.376 . S
C3454 C3455 1.388 . S
C3455 H3442 0.930 . S
C3455 C3454 1.388 . S
C3455 C3456 1.390 . S
C3456 C3455 1.390 . S
C3456 C3457 1.394 . S
C3456 C3462 1.465 . S
C3457 C3452 1.399 . S
C3457 C3456 1.394 . S
C3457 C3458 1.516 . S
C3458 C3457 1.516 . S
C3458 C3459 1.502 . S
C3458 C3460 1.561 . S
C3458 C3461 1.526 . S
C3459 H3443 0.959 . S
C3459 H3444 0.959 . S
C3459 H3445 0.961 . S
C3459 C3458 1.502 . S
C3460 H3446 0.960 . S
C3460 H3447 0.961 . S
C3460 H3448 0.959 . S
C3460 C3458 1.561 . S
C3461 C3458 1.526 . S
C3461 C3462 1.396 . S
C3461 C3466 1.390 . S
C3462 C3456 1.465 . S
C3462 C3461 1.396 . S
C3462 C3463 1.399 . S
C3463 H3449 0.929 . S
C3463 C3462 1.399 . S
C3463 C3464 1.385 . S
C3464 H3450 0.931 . S
C3464 C3463 1.385 . S
C3464 C3465 1.389 . S
C3465 C3464 1.389 . S
C3465 C3466 1.387 . S
C3466 H3451 0.930 . S
C3466 C3461 1.390 . S
C3466 C3465 1.387 . S
H3467 C3479 0.930 . S
H3468 C3481 0.930 . S
H3469 C3482 0.930 . S
H3470 C3486 0.959 . S
H3471 C3486 0.959 . S
H3472 C3486 0.961 . S
H3473 C3487 0.960 . S
H3474 C3487 0.961 . S
H3475 C3487 0.959 . S
H3476 C3490 0.929 . S
H3477 C3491 0.931 . S
H3478 C3493 0.930 . S
C3479 H3467 0.930 . S
C3479 C3480 1.399 . S
C3479 C3484 1.399 . S
C3480 C3479 1.399 . S
C3480 C3481 1.376 . S
C3481 H3468 0.930 . S
C3481 C3480 1.376 . S
C3481 C3482 1.388 . S
C3482 H3469 0.930 . S
C3482 C3481 1.388 . S
C3482 C3483 1.390 . S
C3483 C3482 1.390 . S
C3483 C3484 1.394 . S
C3483 C3489 1.465 . S
C3484 C3479 1.399 . S
C3484 C3483 1.394 . S
C3484 C3485 1.516 . S
C3485 C3484 1.516 . S
C3485 C3486 1.502 . S
C3485 C3487 1.561 . S
C3485 C3488 1.526 . S
C3486 H3470 0.959 . S
C3486 H3471 0.959 . S
C3486 H3472 0.961 . S
C3486 C3485 1.502 . S
C3487 H3473 0.960 . S
C3487 H3474 0.961 . S
C3487 H3475 0.959 . S
C3487 C3485 1.561 . S
C3488 C3485 1.526 . S
C3488 C3489 1.396 . S
C3488 C3493 1.390 . S
C3489 C3483 1.465 . S
C3489 C3488 1.396 . S
C3489 C3490 1.399 . S
C3490 H3476 0.929 . S
C3490 C3489 1.399 . S
C3490 C3491 1.385 . S
C3491 H3477 0.931 . S
C3491 C3490 1.385 . S
C3491 C3492 1.389 . S
C3492 C3491 1.389 . S
C3492 C3493 1.387 . S
C3493 H3478 0.930 . S
C3493 C3488 1.390 . S
C3493 C3492 1.387 . S
H3494 C3506 0.930 . S
H3495 C3508 0.930 . S
H3496 C3509 0.930 . S
H3497 C3513 0.959 . S
H3498 C3513 0.959 . S
H3499 C3513 0.961 . S
H3500 C3514 0.960 . S
H3501 C3514 0.961 . S
H3502 C3514 0.959 . S
H3503 C3517 0.929 . S
H3504 C3518 0.931 . S
H3505 C3520 0.930 . S
C3506 H3494 0.930 . S
C3506 C3507 1.399 . S
C3506 C3511 1.399 . S
C3507 C3506 1.399 . S
C3507 C3508 1.376 . S
C3508 H3495 0.930 . S
C3508 C3507 1.376 . S
C3508 C3509 1.388 . S
C3509 H3496 0.930 . S
C3509 C3508 1.388 . S
C3509 C3510 1.390 . S
C3510 C3509 1.390 . S
C3510 C3511 1.394 . S
C3510 C3516 1.465 . S
C3511 C3506 1.399 . S
C3511 C3510 1.394 . S
C3511 C3512 1.516 . S
C3512 C3511 1.516 . S
C3512 C3513 1.502 . S
C3512 C3514 1.561 . S
C3512 C3515 1.526 . S
C3513 H3497 0.959 . S
C3513 H3498 0.959 . S
C3513 H3499 0.961 . S
C3513 C3512 1.502 . S
C3514 H3500 0.960 . S
C3514 H3501 0.961 . S
C3514 H3502 0.959 . S
C3514 C3512 1.561 . S
C3515 C3512 1.526 . S
C3515 C3516 1.396 . S
C3515 C3520 1.390 . S
C3516 C3510 1.465 . S
C3516 C3515 1.396 . S
C3516 C3517 1.399 . S
C3517 H3503 0.929 . S
C3517 C3516 1.399 . S
C3517 C3518 1.385 . S
C3518 H3504 0.931 . S
C3518 C3517 1.385 . S
C3518 C3519 1.389 . S
C3519 C3518 1.389 . S
C3519 C3520 1.387 . S
C3520 H3505 0.930 . S
C3520 C3515 1.390 . S
C3520 C3519 1.387 . S
H3521 C3533 0.930 . S
H3522 C3535 0.930 . S
H3523 C3536 0.930 . S
H3524 C3540 0.959 . S
H3525 C3540 0.959 . S
H3526 C3540 0.961 . S
H3527 C3541 0.960 . S
H3528 C3541 0.961 . S
H3529 C3541 0.959 . S
H3530 C3544 0.929 . S
H3531 C3545 0.931 . S
H3532 C3547 0.930 . S
C3533 H3521 0.930 . S
C3533 C3534 1.399 . S
C3533 C3538 1.399 . S
C3534 C3533 1.399 . S
C3534 C3535 1.376 . S
C3535 H3522 0.930 . S
C3535 C3534 1.376 . S
C3535 C3536 1.388 . S
C3536 H3523 0.930 . S
C3536 C3535 1.388 . S
C3536 C3537 1.390 . S
C3537 C3536 1.390 . S
C3537 C3538 1.394 . S
C3537 C3543 1.465 . S
C3538 C3533 1.399 . S
C3538 C3537 1.394 . S
C3538 C3539 1.516 . S
C3539 C3538 1.516 . S
C3539 C3540 1.502 . S
C3539 C3541 1.561 . S
C3539 C3542 1.526 . S
C3540 H3524 0.959 . S
C3540 H3525 0.959 . S
C3540 H3526 0.961 . S
C3540 C3539 1.502 . S
C3541 H3527 0.960 . S
C3541 H3528 0.961 . S
C3541 H3529 0.959 . S
C3541 C3539 1.561 . S
C3542 C3539 1.526 . S
C3542 C3543 1.396 . S
C3542 C3547 1.390 . S
C3543 C3537 1.465 . S
C3543 C3542 1.396 . S
C3543 C3544 1.399 . S
C3544 H3530 0.929 . S
C3544 C3543 1.399 . S
C3544 C3545 1.385 . S
C3545 H3531 0.931 . S
C3545 C3544 1.385 . S
C3545 C3546 1.389 . S
C3546 C3545 1.389 . S
C3546 C3547 1.387 . S
C3547 H3532 0.930 . S
C3547 C3542 1.390 . S
C3547 C3546 1.387 . S
H3548 C3560 0.930 . S
H3549 C3562 0.930 . S
H3550 C3563 0.930 . S
H3551 C3567 0.959 . S
H3552 C3567 0.959 . S
H3553 C3567 0.961 . S
H3554 C3568 0.960 . S
H3555 C3568 0.961 . S
H3556 C3568 0.959 . S
H3557 C3571 0.929 . S
H3558 C3572 0.931 . S
H3559 C3574 0.930 . S
C3560 H3548 0.930 . S
C3560 C3561 1.399 . S
C3560 C3565 1.399 . S
C3561 C3560 1.399 . S
C3561 C3562 1.376 . S
C3562 H3549 0.930 . S
C3562 C3561 1.376 . S
C3562 C3563 1.388 . S
C3563 H3550 0.930 . S
C3563 C3562 1.388 . S
C3563 C3564 1.390 . S
C3564 C3563 1.390 . S
C3564 C3565 1.394 . S
C3564 C3570 1.465 . S
C3565 C3560 1.399 . S
C3565 C3564 1.394 . S
C3565 C3566 1.516 . S
C3566 C3565 1.516 . S
C3566 C3567 1.502 . S
C3566 C3568 1.561 . S
C3566 C3569 1.526 . S
C3567 H3551 0.959 . S
C3567 H3552 0.959 . S
C3567 H3553 0.961 . S
C3567 C3566 1.502 . S
C3568 H3554 0.960 . S
C3568 H3555 0.961 . S
C3568 H3556 0.959 . S
C3568 C3566 1.561 . S
C3569 C3566 1.526 . S
C3569 C3570 1.396 . S
C3569 C3574 1.390 . S
C3570 C3564 1.465 . S
C3570 C3569 1.396 . S
C3570 C3571 1.399 . S
C3571 H3557 0.929 . S
C3571 C3570 1.399 . S
C3571 C3572 1.385 . S
C3572 H3558 0.931 . S
C3572 C3571 1.385 . S
C3572 C3573 1.389 . S
C3573 C3572 1.389 . S
C3573 C3574 1.387 . S
C3574 H3559 0.930 . S
C3574 C3569 1.390 . S
C3574 C3573 1.387 . S
H3575 C3587 0.930 . S
H3576 C3589 0.930 . S
H3577 C3590 0.930 . S
H3578 C3594 0.959 . S
H3579 C3594 0.959 . S
H3580 C3594 0.961 . S
H3581 C3595 0.960 . S
H3582 C3595 0.961 . S
H3583 C3595 0.959 . S
H3584 C3598 0.929 . S
H3585 C3599 0.931 . S
H3586 C3601 0.930 . S
C3587 H3575 0.930 . S
C3587 C3588 1.399 . S
C3587 C3592 1.399 . S
C3588 C3587 1.399 . S
C3588 C3589 1.376 . S
C3589 H3576 0.930 . S
C3589 C3588 1.376 . S
C3589 C3590 1.388 . S
C3590 H3577 0.930 . S
C3590 C3589 1.388 . S
C3590 C3591 1.390 . S
C3591 C3590 1.390 . S
C3591 C3592 1.394 . S
C3591 C3597 1.465 . S
C3592 C3587 1.399 . S
C3592 C3591 1.394 . S
C3592 C3593 1.516 . S
C3593 C3592 1.516 . S
C3593 C3594 1.502 . S
C3593 C3595 1.561 . S
C3593 C3596 1.526 . S
C3594 H3578 0.959 . S
C3594 H3579 0.959 . S
C3594 H3580 0.961 . S
C3594 C3593 1.502 . S
C3595 H3581 0.960 . S
C3595 H3582 0.961 . S
C3595 H3583 0.959 . S
C3595 C3593 1.561 . S
C3596 C3593 1.526 . S
C3596 C3597 1.396 . S
C3596 C3601 1.390 . S
C3597 C3591 1.465 . S
C3597 C3596 1.396 . S
C3597 C3598 1.399 . S
C3598 H3584 0.929 . S
C3598 C3597 1.399 . S
C3598 C3599 1.385 . S
C3599 H3585 0.931 . S
C3599 C3598 1.385 . S
C3599 C3600 1.389 . S
C3600 C3599 1.389 . S
C3600 C3601 1.387 . S
C3601 H3586 0.930 . S
C3601 C3596 1.390 . S
C3601 C3600 1.387 . S
H3602 C3614 0.930 . S
H3603 C3616 0.930 . S
H3604 C3617 0.930 . S
H3605 C3621 0.959 . S
H3606 C3621 0.959 . S
H3607 C3621 0.961 . S
H3608 C3622 0.960 . S
H3609 C3622 0.961 . S
H3610 C3622 0.959 . S
H3611 C3625 0.929 . S
H3612 C3626 0.931 . S
H3613 C3628 0.930 . S
C3614 H3602 0.930 . S
C3614 C3615 1.399 . S
C3614 C3619 1.399 . S
C3615 C3614 1.399 . S
C3615 C3616 1.376 . S
C3616 H3603 0.930 . S
C3616 C3615 1.376 . S
C3616 C3617 1.388 . S
C3617 H3604 0.930 . S
C3617 C3616 1.388 . S
C3617 C3618 1.390 . S
C3618 C3617 1.390 . S
C3618 C3619 1.394 . S
C3618 C3624 1.465 . S
C3619 C3614 1.399 . S
C3619 C3618 1.394 . S
C3619 C3620 1.516 . S
C3620 C3619 1.516 . S
C3620 C3621 1.502 . S
C3620 C3622 1.561 . S
C3620 C3623 1.526 . S
C3621 H3605 0.959 . S
C3621 H3606 0.959 . S
C3621 H3607 0.961 . S
C3621 C3620 1.502 . S
C3622 H3608 0.960 . S
C3622 H3609 0.961 . S
C3622 H3610 0.959 . S
C3622 C3620 1.561 . S
C3623 C3620 1.526 . S
C3623 C3624 1.396 . S
C3623 C3628 1.390 . S
C3624 C3618 1.465 . S
C3624 C3623 1.396 . S
C3624 C3625 1.399 . S
C3625 H3611 0.929 . S
C3625 C3624 1.399 . S
C3625 C3626 1.385 . S
C3626 H3612 0.931 . S
C3626 C3625 1.385 . S
C3626 C3627 1.389 . S
C3627 C3626 1.389 . S
C3627 C3628 1.387 . S
C3628 H3613 0.930 . S
C3628 C3623 1.390 . S
C3628 C3627 1.387 . S
H3629 C3641 0.930 . S
H3630 C3643 0.930 . S
H3631 C3644 0.930 . S
H3632 C3648 0.959 . S
H3633 C3648 0.959 . S
H3634 C3648 0.961 . S
H3635 C3649 0.960 . S
H3636 C3649 0.961 . S
H3637 C3649 0.959 . S
H3638 C3652 0.929 . S
H3639 C3653 0.931 . S
H3640 C3655 0.930 . S
C3641 H3629 0.930 . S
C3641 C3642 1.399 . S
C3641 C3646 1.399 . S
C3642 C3641 1.399 . S
C3642 C3643 1.376 . S
C3643 H3630 0.930 . S
C3643 C3642 1.376 . S
C3643 C3644 1.388 . S
C3644 H3631 0.930 . S
C3644 C3643 1.388 . S
C3644 C3645 1.390 . S
C3645 C3644 1.390 . S
C3645 C3646 1.394 . S
C3645 C3651 1.465 . S
C3646 C3641 1.399 . S
C3646 C3645 1.394 . S
C3646 C3647 1.516 . S
C3647 C3646 1.516 . S
C3647 C3648 1.502 . S
C3647 C3649 1.561 . S
C3647 C3650 1.526 . S
C3648 H3632 0.959 . S
C3648 H3633 0.959 . S
C3648 H3634 0.961 . S
C3648 C3647 1.502 . S
C3649 H3635 0.960 . S
C3649 H3636 0.961 . S
C3649 H3637 0.959 . S
C3649 C3647 1.561 . S
C3650 C3647 1.526 . S
C3650 C3651 1.396 . S
C3650 C3655 1.390 . S
C3651 C3645 1.465 . S
C3651 C3650 1.396 . S
C3651 C3652 1.399 . S
C3652 H3638 0.929 . S
C3652 C3651 1.399 . S
C3652 C3653 1.385 . S
C3653 H3639 0.931 . S
C3653 C3652 1.385 . S
C3653 C3654 1.389 . S
C3654 C3653 1.389 . S
C3654 C3655 1.387 . S
C3655 H3640 0.930 . S
C3655 C3650 1.390 . S
C3655 C3654 1.387 . S
H3656 C3668 0.930 . S
H3657 C3670 0.930 . S
H3658 C3671 0.930 . S
H3659 C3675 0.959 . S
H3660 C3675 0.959 . S
H3661 C3675 0.961 . S
H3662 C3676 0.960 . S
H3663 C3676 0.961 . S
H3664 C3676 0.959 . S
H3665 C3679 0.929 . S
H3666 C3680 0.931 . S
H3667 C3682 0.930 . S
C3668 H3656 0.930 . S
C3668 C3669 1.399 . S
C3668 C3673 1.399 . S
C3669 C3668 1.399 . S
C3669 C3670 1.376 . S
C3670 H3657 0.930 . S
C3670 C3669 1.376 . S
C3670 C3671 1.388 . S
C3671 H3658 0.930 . S
C3671 C3670 1.388 . S
C3671 C3672 1.390 . S
C3672 C3671 1.390 . S
C3672 C3673 1.394 . S
C3672 C3678 1.465 . S
C3673 C3668 1.399 . S
C3673 C3672 1.394 . S
C3673 C3674 1.516 . S
C3674 C3673 1.516 . S
C3674 C3675 1.502 . S
C3674 C3676 1.561 . S
C3674 C3677 1.526 . S
C3675 H3659 0.959 . S
C3675 H3660 0.959 . S
C3675 H3661 0.961 . S
C3675 C3674 1.502 . S
C3676 H3662 0.960 . S
C3676 H3663 0.961 . S
C3676 H3664 0.959 . S
C3676 C3674 1.561 . S
C3677 C3674 1.526 . S
C3677 C3678 1.396 . S
C3677 C3682 1.390 . S
C3678 C3672 1.465 . S
C3678 C3677 1.396 . S
C3678 C3679 1.399 . S
C3679 H3665 0.929 . S
C3679 C3678 1.399 . S
C3679 C3680 1.385 . S
C3680 H3666 0.931 . S
C3680 C3679 1.385 . S
C3680 C3681 1.389 . S
C3681 C3680 1.389 . S
C3681 C3682 1.387 . S
C3682 H3667 0.930 . S
C3682 C3677 1.390 . S
C3682 C3681 1.387 . S
H3683 C3695 0.930 . S
H3684 C3697 0.930 . S
H3685 C3698 0.930 . S
H3686 C3702 0.959 . S
H3687 C3702 0.959 . S
H3688 C3702 0.961 . S
H3689 C3703 0.960 . S
H3690 C3703 0.961 . S
H3691 C3703 0.959 . S
H3692 C3706 0.929 . S
H3693 C3707 0.931 . S
H3694 C3709 0.930 . S
C3695 H3683 0.930 . S
C3695 C3696 1.399 . S
C3695 C3700 1.399 . S
C3696 C3695 1.399 . S
C3696 C3697 1.376 . S
C3697 H3684 0.930 . S
C3697 C3696 1.376 . S
C3697 C3698 1.388 . S
C3698 H3685 0.930 . S
C3698 C3697 1.388 . S
C3698 C3699 1.390 . S
C3699 C3698 1.390 . S
C3699 C3700 1.394 . S
C3699 C3705 1.465 . S
C3700 C3695 1.399 . S
C3700 C3699 1.394 . S
C3700 C3701 1.516 . S
C3701 C3700 1.516 . S
C3701 C3702 1.502 . S
C3701 C3703 1.561 . S
C3701 C3704 1.526 . S
C3702 H3686 0.959 . S
C3702 H3687 0.959 . S
C3702 H3688 0.961 . S
C3702 C3701 1.502 . S
C3703 H3689 0.960 . S
C3703 H3690 0.961 . S
C3703 H3691 0.959 . S
C3703 C3701 1.561 . S
C3704 C3701 1.526 . S
C3704 C3705 1.396 . S
C3704 C3709 1.390 . S
C3705 C3699 1.465 . S
C3705 C3704 1.396 . S
C3705 C3706 1.399 . S
C3706 H3692 0.929 . S
C3706 C3705 1.399 . S
C3706 C3707 1.385 . S
C3707 H3693 0.931 . S
C3707 C3706 1.385 . S
C3707 C3708 1.389 . S
C3708 C3707 1.389 . S
C3708 C3709 1.387 . S
C3709 H3694 0.930 . S
C3709 C3704 1.390 . S
C3709 C3708 1.387 . S
H3710 C3722 0.930 . S
H3711 C3724 0.930 . S
H3712 C3725 0.930 . S
H3713 C3729 0.959 . S
H3714 C3729 0.959 . S
H3715 C3729 0.961 . S
H3716 C3730 0.960 . S
H3717 C3730 0.961 . S
H3718 C3730 0.959 . S
H3719 C3733 0.929 . S
H3720 C3734 0.931 . S
H3721 C3736 0.930 . S
C3722 H3710 0.930 . S
C3722 C3723 1.399 . S
C3722 C3727 1.399 . S
C3723 C3722 1.399 . S
C3723 C3724 1.376 . S
C3724 H3711 0.930 . S
C3724 C3723 1.376 . S
C3724 C3725 1.388 . S
C3725 H3712 0.930 . S
C3725 C3724 1.388 . S
C3725 C3726 1.390 . S
C3726 C3725 1.390 . S
C3726 C3727 1.394 . S
C3726 C3732 1.465 . S
C3727 C3722 1.399 . S
C3727 C3726 1.394 . S
C3727 C3728 1.516 . S
C3728 C3727 1.516 . S
C3728 C3729 1.502 . S
C3728 C3730 1.561 . S
C3728 C3731 1.526 . S
C3729 H3713 0.959 . S
C3729 H3714 0.959 . S
C3729 H3715 0.961 . S
C3729 C3728 1.502 . S
C3730 H3716 0.960 . S
C3730 H3717 0.961 . S
C3730 H3718 0.959 . S
C3730 C3728 1.561 . S
C3731 C3728 1.526 . S
C3731 C3732 1.396 . S
C3731 C3736 1.390 . S
C3732 C3726 1.465 . S
C3732 C3731 1.396 . S
C3732 C3733 1.399 . S
C3733 H3719 0.929 . S
C3733 C3732 1.399 . S
C3733 C3734 1.385 . S
C3734 H3720 0.931 . S
C3734 C3733 1.385 . S
C3734 C3735 1.389 . S
C3735 C3734 1.389 . S
C3735 C3736 1.387 . S
C3736 H3721 0.930 . S
C3736 C3731 1.390 . S
C3736 C3735 1.387 . S
H3737 C3749 0.930 . S
H3738 C3751 0.930 . S
H3739 C3752 0.930 . S
H3740 C3756 0.959 . S
H3741 C3756 0.959 . S
H3742 C3756 0.961 . S
H3743 C3757 0.960 . S
H3744 C3757 0.961 . S
H3745 C3757 0.959 . S
H3746 C3760 0.929 . S
H3747 C3761 0.931 . S
H3748 C3763 0.930 . S
C3749 H3737 0.930 . S
C3749 C3750 1.399 . S
C3749 C3754 1.399 . S
C3750 C3749 1.399 . S
C3750 C3751 1.376 . S
C3751 H3738 0.930 . S
C3751 C3750 1.376 . S
C3751 C3752 1.388 . S
C3752 H3739 0.930 . S
C3752 C3751 1.388 . S
C3752 C3753 1.390 . S
C3753 C3752 1.390 . S
C3753 C3754 1.394 . S
C3753 C3759 1.465 . S
C3754 C3749 1.399 . S
C3754 C3753 1.394 . S
C3754 C3755 1.516 . S
C3755 C3754 1.516 . S
C3755 C3756 1.502 . S
C3755 C3757 1.561 . S
C3755 C3758 1.526 . S
C3756 H3740 0.959 . S
C3756 H3741 0.959 . S
C3756 H3742 0.961 . S
C3756 C3755 1.502 . S
C3757 H3743 0.960 . S
C3757 H3744 0.961 . S
C3757 H3745 0.959 . S
C3757 C3755 1.561 . S
C3758 C3755 1.526 . S
C3758 C3759 1.396 . S
C3758 C3763 1.390 . S
C3759 C3753 1.465 . S
C3759 C3758 1.396 . S
C3759 C3760 1.399 . S
C3760 H3746 0.929 . S
C3760 C3759 1.399 . S
C3760 C3761 1.385 . S
C3761 H3747 0.931 . S
C3761 C3760 1.385 . S
C3761 C3762 1.389 . S
C3762 C3761 1.389 . S
C3762 C3763 1.387 . S
C3763 H3748 0.930 . S
C3763 C3758 1.390 . S
C3763 C3762 1.387 . S
H3764 C3776 0.930 . S
H3765 C3778 0.930 . S
H3766 C3779 0.930 . S
H3767 C3783 0.959 . S
H3768 C3783 0.959 . S
H3769 C3783 0.961 . S
H3770 C3784 0.960 . S
H3771 C3784 0.961 . S
H3772 C3784 0.959 . S
H3773 C3787 0.929 . S
H3774 C3788 0.931 . S
H3775 C3790 0.930 . S
C3776 H3764 0.930 . S
C3776 C3777 1.399 . S
C3776 C3781 1.399 . S
C3777 C3776 1.399 . S
C3777 C3778 1.376 . S
C3778 H3765 0.930 . S
C3778 C3777 1.376 . S
C3778 C3779 1.388 . S
C3779 H3766 0.930 . S
C3779 C3778 1.388 . S
C3779 C3780 1.390 . S
C3780 C3779 1.390 . S
C3780 C3781 1.394 . S
C3780 C3786 1.465 . S
C3781 C3776 1.399 . S
C3781 C3780 1.394 . S
C3781 C3782 1.516 . S
C3782 C3781 1.516 . S
C3782 C3783 1.502 . S
C3782 C3784 1.561 . S
C3782 C3785 1.526 . S
C3783 H3767 0.959 . S
C3783 H3768 0.959 . S
C3783 H3769 0.961 . S
C3783 C3782 1.502 . S
C3784 H3770 0.960 . S
C3784 H3771 0.961 . S
C3784 H3772 0.959 . S
C3784 C3782 1.561 . S
C3785 C3782 1.526 . S
C3785 C3786 1.396 . S
C3785 C3790 1.390 . S
C3786 C3780 1.465 . S
C3786 C3785 1.396 . S
C3786 C3787 1.399 . S
C3787 H3773 0.929 . S
C3787 C3786 1.399 . S
C3787 C3788 1.385 . S
C3788 H3774 0.931 . S
C3788 C3787 1.385 . S
C3788 C3789 1.389 . S
C3789 C3788 1.389 . S
C3789 C3790 1.387 . S
C3790 H3775 0.930 . S
C3790 C3785 1.390 . S
C3790 C3789 1.387 . S
H3791 C3803 0.930 . S
H3792 C3805 0.930 . S
H3793 C3806 0.930 . S
H3794 C3810 0.959 . S
H3795 C3810 0.959 . S
H3796 C3810 0.961 . S
H3797 C3811 0.960 . S
H3798 C3811 0.961 . S
H3799 C3811 0.959 . S
H3800 C3814 0.929 . S
H3801 C3815 0.931 . S
H3802 C3817 0.930 . S
C3803 H3791 0.930 . S
C3803 C3804 1.399 . S
C3803 C3808 1.399 . S
C3804 C3803 1.399 . S
C3804 C3805 1.376 . S
C3805 H3792 0.930 . S
C3805 C3804 1.376 . S
C3805 C3806 1.388 . S
C3806 H3793 0.930 . S
C3806 C3805 1.388 . S
C3806 C3807 1.390 . S
C3807 C3806 1.390 . S
C3807 C3808 1.394 . S
C3807 C3813 1.465 . S
C3808 C3803 1.399 . S
C3808 C3807 1.394 . S
C3808 C3809 1.516 . S
C3809 C3808 1.516 . S
C3809 C3810 1.502 . S
C3809 C3811 1.561 . S
C3809 C3812 1.526 . S
C3810 H3794 0.959 . S
C3810 H3795 0.959 . S
C3810 H3796 0.961 . S
C3810 C3809 1.502 . S
C3811 H3797 0.960 . S
C3811 H3798 0.961 . S
C3811 H3799 0.959 . S
C3811 C3809 1.561 . S
C3812 C3809 1.526 . S
C3812 C3813 1.396 . S
C3812 C3817 1.390 . S
C3813 C3807 1.465 . S
C3813 C3812 1.396 . S
C3813 C3814 1.399 . S
C3814 H3800 0.929 . S
C3814 C3813 1.399 . S
C3814 C3815 1.385 . S
C3815 H3801 0.931 . S
C3815 C3814 1.385 . S
C3815 C3816 1.389 . S
C3816 C3815 1.389 . S
C3816 C3817 1.387 . S
C3817 H3802 0.930 . S
C3817 C3812 1.390 . S
C3817 C3816 1.387 . S
H3818 C3830 0.930 . S
H3819 C3832 0.930 . S
H3820 C3833 0.930 . S
H3821 C3837 0.959 . S
H3822 C3837 0.959 . S
H3823 C3837 0.961 . S
H3824 C3838 0.960 . S
H3825 C3838 0.961 . S
H3826 C3838 0.959 . S
H3827 C3841 0.929 . S
H3828 C3842 0.931 . S
H3829 C3844 0.930 . S
C3830 H3818 0.930 . S
C3830 C3831 1.399 . S
C3830 C3835 1.399 . S
C3831 C3830 1.399 . S
C3831 C3832 1.376 . S
C3832 H3819 0.930 . S
C3832 C3831 1.376 . S
C3832 C3833 1.388 . S
C3833 H3820 0.930 . S
C3833 C3832 1.388 . S
C3833 C3834 1.390 . S
C3834 C3833 1.390 . S
C3834 C3835 1.394 . S
C3834 C3840 1.465 . S
C3835 C3830 1.399 . S
C3835 C3834 1.394 . S
C3835 C3836 1.516 . S
C3836 C3835 1.516 . S
C3836 C3837 1.502 . S
C3836 C3838 1.561 . S
C3836 C3839 1.526 . S
C3837 H3821 0.959 . S
C3837 H3822 0.959 . S
C3837 H3823 0.961 . S
C3837 C3836 1.502 . S
C3838 H3824 0.960 . S
C3838 H3825 0.961 . S
C3838 H3826 0.959 . S
C3838 C3836 1.561 . S
C3839 C3836 1.526 . S
C3839 C3840 1.396 . S
C3839 C3844 1.390 . S
C3840 C3834 1.465 . S
C3840 C3839 1.396 . S
C3840 C3841 1.399 . S
C3841 H3827 0.929 . S
C3841 C3840 1.399 . S
C3841 C3842 1.385 . S
C3842 H3828 0.931 . S
C3842 C3841 1.385 . S
C3842 C3843 1.389 . S
C3843 C3842 1.389 . S
C3843 C3844 1.387 . S
C3844 H3829 0.930 . S
C3844 C3839 1.390 . S
C3844 C3843 1.387 . S
H3845 C3857 0.930 . S
H3846 C3859 0.930 . S
H3847 C3860 0.930 . S
H3848 C3864 0.959 . S
H3849 C3864 0.959 . S
H3850 C3864 0.961 . S
H3851 C3865 0.960 . S
H3852 C3865 0.961 . S
H3853 C3865 0.959 . S
H3854 C3868 0.929 . S
H3855 C3869 0.931 . S
H3856 C3871 0.930 . S
C3857 H3845 0.930 . S
C3857 C3858 1.399 . S
C3857 C3862 1.399 . S
C3858 C3857 1.399 . S
C3858 C3859 1.376 . S
C3859 H3846 0.930 . S
C3859 C3858 1.376 . S
C3859 C3860 1.388 . S
C3860 H3847 0.930 . S
C3860 C3859 1.388 . S
C3860 C3861 1.390 . S
C3861 C3860 1.390 . S
C3861 C3862 1.394 . S
C3861 C3867 1.465 . S
C3862 C3857 1.399 . S
C3862 C3861 1.394 . S
C3862 C3863 1.516 . S
C3863 C3862 1.516 . S
C3863 C3864 1.502 . S
C3863 C3865 1.561 . S
C3863 C3866 1.526 . S
C3864 H3848 0.959 . S
C3864 H3849 0.959 . S
C3864 H3850 0.961 . S
C3864 C3863 1.502 . S
C3865 H3851 0.960 . S
C3865 H3852 0.961 . S
C3865 H3853 0.959 . S
C3865 C3863 1.561 . S
C3866 C3863 1.526 . S
C3866 C3867 1.396 . S
C3866 C3871 1.390 . S
C3867 C3861 1.465 . S
C3867 C3866 1.396 . S
C3867 C3868 1.399 . S
C3868 H3854 0.929 . S
C3868 C3867 1.399 . S
C3868 C3869 1.385 . S
C3869 H3855 0.931 . S
C3869 C3868 1.385 . S
C3869 C3870 1.389 . S
C3870 C3869 1.389 . S
C3870 C3871 1.387 . S
C3871 H3856 0.930 . S
C3871 C3866 1.390 . S
C3871 C3870 1.387 . S
C1293 C10 1.914 . S
C1305 C135 1.826 . S
C1320 C15 1.850 . S
C1332 C50 1.907 . S
C1347 C90 1.900 . S
C1359 C55 1.846 . S
C1374 C95 1.878 . S
C1386 C130 1.884 . S
C1401 C215 1.882 . S
C1413 C170 1.886 . S
C1428 C210 1.918 . S
C1440 C255 1.822 . S
C1455 C295 1.826 . S
C1467 C250 1.914 . S
C1482 C175 1.844 . S
C1494 C290 1.910 . S
C1509 C339 1.889 . S
C1521 C446 1.884 . S
C1536 C379 1.911 . S
C1548 C326 1.861 . S
C1563 C419 1.883 . S
C1575 C366 1.881 . S
C1590 C459 1.902 . S
C1602 C406 1.829 . S
C1617 C499 1.903 . S
C1629 C526 1.874 . S
C1644 C539 1.898 . S
C1656 C566 1.879 . S
C1671 C606 1.822 . S
C1683 C579 1.916 . S
C1698 C486 1.852 . S
C1710 C619 1.915 . S
C1725 C650 1.919 . S
C1737 C775 1.823 . S
C1752 C655 1.830 . S
C1764 C690 1.910 . S
C1779 C695 1.883 . S
C1791 C730 1.883 . S
C1806 C770 1.882 . S
C1818 C735 1.881 . S
C1833 C810 1.902 . S
C1845 C855 1.844 . S
C1860 C895 1.860 . S
C1872 C850 1.892 . S
C1887 C890 1.884 . S
C1899 C935 1.875 . S
C1914 C815 1.826 . S
C1926 C930 1.918 . S
C1941 C1086 1.832 . S
C1953 C979 1.898 . S
C1968 C966 1.830 . S
C1980 C1019 1.919 . S
C1995 C1059 1.887 . S
C2007 C1006 1.884 . S
C2022 C1046 1.823 . S
C2034 C1099 1.916 . S
C2049 C1166 1.858 . S
C2061 C1139 1.913 . S
C2076 C1206 1.826 . S
C2088 C1179 1.918 . S
C2103 C1246 1.860 . S
C2115 C1219 1.912 . S
C2130 C1259 1.907 . S
C2142 C1126 1.824 . S
C2157 C1090 1.629 . S
C2169 C9 1.587 . S
C2184 C49 1.598 . S
C2196 C330 1.587 . S
C2211 C89 1.596 . S
C2223 C1010 1.632 . S
C2238 C129 1.581 . S
C2250 C410 1.605 . S
C2265 C169 1.580 . S
C2277 C1170 1.622 . S
C2292 C570 1.584 . S
C2304 C209 1.607 . S
C2319 C1250 1.604 . S
C2331 C249 1.630 . S
C2346 C289 1.631 . S
C2358 C490 1.603 . S
C2373 C338 1.627 . S
C2385 C779 1.585 . S
C2400 C19 1.608 . S
C2412 C378 1.622 . S
C2427 C699 1.632 . S
C2439 C418 1.584 . S
C2454 C99 1.586 . S
C2466 C458 1.615 . S
C2481 C859 1.632 . S
C2493 C498 1.584 . S
C2508 C259 1.628 . S
C2520 C538 1.579 . S
C2535 C578 1.629 . S
C2547 C939 1.597 . S
C2562 C618 1.587 . S
C2574 C179 1.633 . S
C2589 C649 1.596 . S
C2601 C450 1.632 . S
C2616 C689 1.619 . S
C2628 C970 1.625 . S
C2643 C729 1.624 . S
C2655 C370 1.620 . S
C2670 C769 1.588 . S
C2682 C1050 1.593 . S
C2697 C809 1.613 . S
C2709 C530 1.585 . S
C2724 C849 1.585 . S
C2736 C1210 1.628 . S
C2751 C610 1.608 . S
C2763 C889 1.630 . S
C2778 C929 1.595 . S
C2790 C1130 1.588 . S
C2805 C139 1.585 . S
C2817 C978 1.616 . S
C2832 C659 1.597 . S
C2844 C1018 1.629 . S
C2859 C59 1.629 . S
C2871 C1058 1.580 . S
C2886 C739 1.615 . S
C2898 C1098 1.615 . S
C2913 C219 1.586 . S
C2925 C1138 1.629 . S
C2940 C1178 1.591 . S
C2952 C899 1.632 . S
C2967 C1218 1.579 . S
C2979 C299 1.627 . S
C2994 C819 1.593 . S
C3006 C1258 1.603 . S
C3021 C18 0.832 . S
C3033 C178 0.785 . S
C3048 C58 0.805 . S
C3060 C218 0.776 . S
C3075 C98 0.879 . S
C3087 C258 0.875 . S
C3102 C298 0.814 . S
C3114 C138 0.777 . S
C3129 C489 0.775 . S
C3141 C329 0.776 . S
C3156 C529 0.778 . S
C3168 C369 0.790 . S
C3183 C409 0.854 . S
C3195 C569 0.869 . S
C3210 C449 0.873 . S
C3222 C609 0.856 . S
C3237 C658 0.848 . S
C3249 C818 0.796 . S
C3264 C858 0.813 . S
C3276 C698 0.777 . S
C3291 C898 0.879 . S
C3303 C738 0.838 . S
C3318 C938 0.774 . S
C3330 C778 0.797 . S
C3345 C1129 0.800 . S
C3357 C969 0.785 . S
C3372 C1009 0.783 . S
C3384 C1169 0.799 . S
C3399 C1209 0.871 . S
C3411 C1049 0.880 . S
C3426 C1089 0.779 . S
C3438 C1249 0.792 . S
C3453 C286 1.361 . S
C3465 C6 1.287 . S
C3480 C46 1.284 . S
C3492 C166 1.351 . S
C3507 C86 1.337 . S
C3519 C206 1.332 . S
C3534 C246 1.334 . S
C3546 C126 1.335 . S
C3561 C335 1.357 . S
C3573 C615 1.295 . S
C3588 C495 1.309 . S
C3600 C375 1.293 . S
C3615 C535 1.316 . S
C3627 C415 1.289 . S
C3642 C455 1.298 . S
C3654 C575 1.303 . S
C3669 C646 1.337 . S
C3681 C926 1.332 . S
C3696 C806 1.309 . S
C3708 C686 1.314 . S
C3723 C846 1.287 . S
C3735 C726 1.361 . S
C3750 C886 1.338 . S
C3762 C766 1.331 . S
C3777 C975 1.357 . S
C3789 C1255 1.295 . S
C3804 C1135 1.357 . S
C3816 C1015 1.294 . S
C3831 C1055 1.356 . S
C3843 C1175 1.294 . S
C3858 C1215 1.357 . S
C3870 C1095 1.294 . S
