# Generated by pormake.
# Topology zfy, (5)-cn, num edge types: 1
# Building blocks:
#     Node 0, Type 0, BuildingBlock: XOMCOT_clean_sbu_0, # of connection points: 5
#     Node 1, Type 0, BuildingBlock: XOMCOT_clean_sbu_0, # of connection points: 5
#     Node 2, Type 0, BuildingBlock: XOMCOT_clean_sbu_0, # of connection points: 5
#     Node 3, Type 0, BuildingBlock: XOMCOT_clean_sbu_0, # of connection points: 5
#     Node 4, Type 0, BuildingBlock: XOMCOT_clean_sbu_0, # of connection points: 5
#     Node 5, Type 0, BuildingBlock: XOMCOT_clean_sbu_0, # of connection points: 5
#     Node 6, Type 0, BuildingBlock: XOMCOT_clean_sbu_0, # of connection points: 5
#     Node 7, Type 0, BuildingBlock: XOMCOT_clean_sbu_0, # of connection points: 5
#     Node 8, Type 0, BuildingBlock: XOMCOT_clean_sbu_0, # of connection points: 5
#     Node 9, Type 0, BuildingBlock: XOMCOT_clean_sbu_0, # of connection points: 5
#     Node 10, Type 0, BuildingBlock: XOMCOT_clean_sbu_0, # of connection points: 5
#     Node 11, Type 0, BuildingBlock: XOMCOT_clean_sbu_0, # of connection points: 5
#     Node 12, Type 0, BuildingBlock: XOMCOT_clean_sbu_0, # of connection points: 5
#     Node 13, Type 0, BuildingBlock: XOMCOT_clean_sbu_0, # of connection points: 5
#     Node 14, Type 0, BuildingBlock: XOMCOT_clean_sbu_0, # of connection points: 5
#     Node 15, Type 0, BuildingBlock: XOMCOT_clean_sbu_0, # of connection points: 5
#     Edge 16, Type (0, 0), BuildingBlock: UVAHIK_clean_linker_0, # of connection points: 2
#     Edge 17, Type (0, 0), BuildingBlock: UVAHIK_clean_linker_0, # of connection points: 2
#     Edge 18, Type (0, 0), BuildingBlock: UVAHIK_clean_linker_0, # of connection points: 2
#     Edge 19, Type (0, 0), BuildingBlock: UVAHIK_clean_linker_0, # of connection points: 2
#     Edge 20, Type (0, 0), BuildingBlock: UVAHIK_clean_linker_0, # of connection points: 2
#     Edge 21, Type (0, 0), BuildingBlock: UVAHIK_clean_linker_0, # of connection points: 2
#     Edge 22, Type (0, 0), BuildingBlock: UVAHIK_clean_linker_0, # of connection points: 2
#     Edge 23, Type (0, 0), BuildingBlock: UVAHIK_clean_linker_0, # of connection points: 2
#     Edge 24, Type (0, 0), BuildingBlock: UVAHIK_clean_linker_0, # of connection points: 2
#     Edge 25, Type (0, 0), BuildingBlock: UVAHIK_clean_linker_0, # of connection points: 2
#     Edge 26, Type (0, 0), BuildingBlock: UVAHIK_clean_linker_0, # of connection points: 2
#     Edge 27, Type (0, 0), BuildingBlock: UVAHIK_clean_linker_0, # of connection points: 2
#     Edge 28, Type (0, 0), BuildingBlock: UVAHIK_clean_linker_0, # of connection points: 2
#     Edge 29, Type (0, 0), BuildingBlock: UVAHIK_clean_linker_0, # of connection points: 2
#     Edge 30, Type (0, 0), BuildingBlock: UVAHIK_clean_linker_0, # of connection points: 2
#     Edge 31, Type (0, 0), BuildingBlock: UVAHIK_clean_linker_0, # of connection points: 2
#     Edge 32, Type (0, 0), BuildingBlock: UVAHIK_clean_linker_0, # of connection points: 2
#     Edge 33, Type (0, 0), BuildingBlock: UVAHIK_clean_linker_0, # of connection points: 2
#     Edge 34, Type (0, 0), BuildingBlock: UVAHIK_clean_linker_0, # of connection points: 2
#     Edge 35, Type (0, 0), BuildingBlock: UVAHIK_clean_linker_0, # of connection points: 2
#     Edge 36, Type (0, 0), BuildingBlock: UVAHIK_clean_linker_0, # of connection points: 2
#     Edge 37, Type (0, 0), BuildingBlock: UVAHIK_clean_linker_0, # of connection points: 2
#     Edge 38, Type (0, 0), BuildingBlock: UVAHIK_clean_linker_0, # of connection points: 2
#     Edge 39, Type (0, 0), BuildingBlock: UVAHIK_clean_linker_0, # of connection points: 2
#     Edge 40, Type (0, 0), BuildingBlock: UVAHIK_clean_linker_0, # of connection points: 2
#     Edge 41, Type (0, 0), BuildingBlock: UVAHIK_clean_linker_0, # of connection points: 2
#     Edge 42, Type (0, 0), BuildingBlock: UVAHIK_clean_linker_0, # of connection points: 2
#     Edge 43, Type (0, 0), BuildingBlock: UVAHIK_clean_linker_0, # of connection points: 2
#     Edge 44, Type (0, 0), BuildingBlock: UVAHIK_clean_linker_0, # of connection points: 2
#     Edge 45, Type (0, 0), BuildingBlock: UVAHIK_clean_linker_0, # of connection points: 2
#     Edge 46, Type (0, 0), BuildingBlock: UVAHIK_clean_linker_0, # of connection points: 2
#     Edge 47, Type (0, 0), BuildingBlock: UVAHIK_clean_linker_0, # of connection points: 2
#     Edge 48, Type (0, 0), BuildingBlock: UVAHIK_clean_linker_0, # of connection points: 2
#     Edge 49, Type (0, 0), BuildingBlock: UVAHIK_clean_linker_0, # of connection points: 2
#     Edge 50, Type (0, 0), BuildingBlock: UVAHIK_clean_linker_0, # of connection points: 2
#     Edge 51, Type (0, 0), BuildingBlock: UVAHIK_clean_linker_0, # of connection points: 2
#     Edge 52, Type (0, 0), BuildingBlock: UVAHIK_clean_linker_0, # of connection points: 2
#     Edge 53, Type (0, 0), BuildingBlock: UVAHIK_clean_linker_0, # of connection points: 2
#     Edge 54, Type (0, 0), BuildingBlock: UVAHIK_clean_linker_0, # of connection points: 2
#     Edge 55, Type (0, 0), BuildingBlock: UVAHIK_clean_linker_0, # of connection points: 2
# Relax obj value: 0.185
# Max RMSD: 0.232
# Mean RMSD: 0.229
data_MOF--net-zfy--node1-XOMCOT_clean_sbu_0--edge1-UVAHIK_clean_linker_0
_symmetry_space_group_name_H-M    P1
_symmetry_Int_Tables_number       1
_symmetry_cell_setting            triclinic
loop_
_symmetry_equiv_pos_as_xyz
'x, y, z'
_cell_length_a     66.5248
_cell_length_b     66.531191
_cell_length_c     38.147697
_cell_angle_alpha  89.980852
_cell_angle_beta   90.059482
_cell_angle_gamma 90.015961
loop_
_atom_site_label
_atom_site_type_symbol
_atom_site_fract_x
_atom_site_fract_y
_atom_site_fract_z
_atom_type_partial_charge
Co0 Co 0.3307 0.19763 0.01628 0.0
C1 C 0.30415 0.21786 0.07083 0.0
C2 C 0.33561 0.21777 0.08299 0.0
C3 C 0.3257 0.22766 0.1093 0.0
N4 N 0.32225 0.2117 0.05857 0.0
N5 N 0.30594 0.22775 0.10166 0.0
H6 H 0.28992 0.21526 0.05818 0.0
H7 H 0.35161 0.21498 0.08192 0.0
C8 C 0.33286 0.16712 0.07291 0.0
O9 O 0.31478 0.17307 0.08205 0.0
N10 N 0.34036 0.18391 0.97514 0.0
C11 C 0.33125 0.18161 0.94384 0.0
C12 C 0.34427 0.17168 0.92165 0.0
C13 C 0.35873 0.1757 0.97156 0.0
N14 N 0.36155 0.1681 0.93915 0.0
C15 C 0.28892 0.196 0.99949 0.0
C16 C 0.28611 0.1547 0.9938 0.0
C17 C 0.2699 0.16655 0.98248 0.0
C18 C 0.2713 0.18743 0.98651 0.0
C19 C 0.30347 0.16391 0.00702 0.0
N20 N 0.30475 0.18437 0.00992 0.0
H21 H 0.29016 0.21217 0.9994 0.0
H22 H 0.31641 0.15458 0.01223 0.0
H23 H 0.31637 0.18705 0.93744 0.0
H24 H 0.36986 0.17547 0.99229 0.0
O25 O 0.32536 0.22122 0.98863 0.0
O26 O 0.35443 0.21481 0.01452 0.0
O27 O 0.34156 0.17513 0.04647 0.0
C28 C 0.34367 0.2268 0.99507 0.0
H29 H 0.33246 0.23387 0.13274 0.0
H30 H 0.34148 0.16797 0.89445 0.0
H31 H 0.28597 0.13855 0.99028 0.0
H32 H 0.25919 0.19723 0.97827 0.0
Co33 Co 0.56303 0.58112 0.26229 0.0
C34 C 0.54207 0.55984 0.32106 0.0
C35 C 0.55545 0.58798 0.33593 0.0
C36 C 0.54594 0.58006 0.36461 0.0
N37 N 0.55311 0.57537 0.3087 0.0
N38 N 0.53741 0.56242 0.35538 0.0
H39 H 0.53726 0.54724 0.3052 0.0
H40 H 0.56339 0.60216 0.33488 0.0
C41 C 0.60652 0.59059 0.27398 0.0
O42 O 0.61075 0.58056 0.24524 0.0
N43 N 0.5732 0.58848 0.21616 0.0
C44 C 0.57467 0.57818 0.18575 0.0
C45 C 0.58273 0.59065 0.1605 0.0
C46 C 0.57998 0.60711 0.20854 0.0
N47 N 0.58603 0.60885 0.17493 0.0
C48 C 0.56483 0.54098 0.23631 0.0
C49 C 0.59692 0.52751 0.27569 0.0
C50 C 0.58889 0.51485 0.24972 0.0
C51 C 0.57228 0.52174 0.23062 0.0
C52 C 0.58888 0.54683 0.28059 0.0
N53 N 0.57393 0.55386 0.25918 0.0
H54 H 0.55198 0.54568 0.22117 0.0
H55 H 0.59474 0.55602 0.30154 0.0
H56 H 0.57014 0.56287 0.18131 0.0
H57 H 0.58081 0.6191 0.22766 0.0
O58 O 0.53698 0.57565 0.24289 0.0
O59 O 0.54687 0.60559 0.26139 0.0
O60 O 0.58833 0.59214 0.28432 0.0
C61 C 0.53286 0.5945 0.24729 0.0
H62 H 0.54554 0.58675 0.39045 0.0
H63 H 0.58559 0.58671 0.13344 0.0
H64 H 0.60924 0.52255 0.29212 0.0
H65 H 0.56535 0.51262 0.21044 0.0
Co66 Co 0.17984 0.8126 0.51469 0.0
C67 C 0.20647 0.79132 0.56802 0.0
C68 C 0.17516 0.79232 0.58128 0.0
C69 C 0.18506 0.78184 0.60694 0.0
N70 N 0.18842 0.79821 0.55661 0.0
N71 N 0.20471 0.78117 0.59863 0.0
H72 H 0.22058 0.79347 0.55475 0.0
H73 H 0.15924 0.79556 0.58073 0.0
C74 C 0.1779 0.8423 0.57231 0.0
O75 O 0.19603 0.83624 0.58097 0.0
N76 N 0.17013 0.82654 0.47366 0.0
C77 C 0.17893 0.82779 0.44198 0.0
C78 C 0.1657 0.8369 0.41911 0.0
C79 C 0.15174 0.83472 0.4697 0.0
N80 N 0.14853 0.84117 0.43651 0.0
C81 C 0.2214 0.81439 0.49678 0.0
C82 C 0.22429 0.8558 0.49365 0.0
C83 C 0.24008 0.84408 0.48075 0.0
C84 C 0.23869 0.82317 0.48301 0.0
C85 C 0.20704 0.84639 0.50673 0.0
N86 N 0.20575 0.82586 0.50846 0.0
H87 H 0.22013 0.79823 0.49588 0.0
H88 H 0.1942 0.85566 0.51279 0.0
H89 H 0.1936 0.82182 0.43563 0.0
H90 H 0.1408 0.83538 0.49062 0.0
O91 O 0.18509 0.78918 0.48672 0.0
O92 O 0.15609 0.79555 0.51293 0.0
O93 O 0.16912 0.83482 0.54547 0.0
C94 C 0.16681 0.78361 0.49337 0.0
H95 H 0.17838 0.77556 0.63038 0.0
H96 H 0.16825 0.8393 0.39142 0.0
H97 H 0.22465 0.87202 0.49125 0.0
H98 H 0.2505 0.81366 0.47265 0.0
Co99 Co 0.94634 0.42982 0.76748 0.0
C100 C 0.96937 0.4524 0.82403 0.0
C101 C 0.96698 0.4206 0.8323 0.0
C102 C 0.97839 0.42855 0.85881 0.0
N103 N 0.9614 0.43541 0.81016 0.0
N104 N 0.97989 0.44849 0.85358 0.0
H105 H 0.96778 0.46727 0.8133 0.0
H106 H 0.96298 0.40494 0.82933 0.0
C107 C 0.9167 0.42643 0.82527 0.0
O108 O 0.92435 0.44323 0.83753 0.0
N109 N 0.93168 0.42293 0.72565 0.0
C110 C 0.93154 0.43237 0.69446 0.0
C111 C 0.92171 0.42026 0.67056 0.0
C112 C 0.92209 0.40539 0.72048 0.0
N113 N 0.91589 0.40319 0.68694 0.0
C114 C 0.94683 0.47225 0.75684 0.0
C115 C 0.90567 0.47766 0.75535 0.0
C116 C 0.91821 0.49381 0.74637 0.0
C117 C 0.93904 0.491 0.74795 0.0
C118 C 0.91413 0.4591 0.7643 0.0
N119 N 0.93453 0.45659 0.76548 0.0
H120 H 0.96289 0.47013 0.7552 0.0
H121 H 0.90418 0.44645 0.76788 0.0
H122 H 0.93887 0.44656 0.68911 0.0
H123 H 0.92042 0.39422 0.74084 0.0
O124 O 0.9699 0.4352 0.73988 0.0
O125 O 0.96208 0.40536 0.76165 0.0
O126 O 0.92353 0.41889 0.79684 0.0
C127 C 0.97449 0.41637 0.7435 0.0
H128 H 0.98481 0.42036 0.88065 0.0
H129 H 0.91997 0.42342 0.64291 0.0
H130 H 0.88948 0.47896 0.75339 0.0
H131 H 0.94932 0.50301 0.74116 0.0
Co132 Co 0.67298 0.82516 0.985 0.0
C133 C 0.69122 0.80706 0.91916 0.0
C134 C 0.66068 0.79846 0.92903 0.0
C135 C 0.66657 0.78994 0.89796 0.0
N136 N 0.676 0.80932 0.94242 0.0
N137 N 0.68573 0.79535 0.8918 0.0
H138 H 0.70584 0.81388 0.92136 0.0
H139 H 0.64605 0.79692 0.94107 0.0
C140 C 0.67345 0.78248 0.00817 0.0
O141 O 0.68908 0.77998 0.98761 0.0
N142 N 0.6687 0.84057 0.02704 0.0
C143 C 0.67925 0.85645 0.03888 0.0
C144 C 0.66964 0.86402 0.06804 0.0
C145 C 0.65289 0.83871 0.04879 0.0
N146 N 0.65304 0.85286 0.07416 0.0
C147 C 0.71477 0.83406 0.97826 0.0
C148 C 0.72665 0.81884 0.04241 0.0
C149 C 0.74023 0.83067 0.02329 0.0
C150 C 0.73423 0.83773 0.9903 0.0
C151 C 0.70724 0.81542 0.02928 0.0
N152 N 0.70141 0.82305 0.99751 0.0
H153 H 0.71008 0.8413 0.95431 0.0
H154 H 0.69648 0.80807 0.04612 0.0
H155 H 0.69266 0.86241 0.02666 0.0
H156 H 0.64102 0.82781 0.04496 0.0
O157 O 0.67437 0.84968 0.95812 0.0
O158 O 0.64629 0.83299 0.9689 0.0
O159 O 0.66552 0.79989 0.01136 0.0
C160 C 0.65502 0.84839 0.95428 0.0
H161 H 0.65751 0.78041 0.88125 0.0
H162 H 0.67436 0.87695 0.08316 0.0
H163 H 0.73044 0.81349 0.0684 0.0
H164 H 0.74417 0.84692 0.97455 0.0
Co165 Co 0.43891 0.43081 0.736 0.0
C166 C 0.45571 0.44985 0.67007 0.0
C167 C 0.47134 0.42336 0.68681 0.0
C168 C 0.48005 0.43005 0.6564 0.0
N169 N 0.45638 0.43597 0.69606 0.0
N170 N 0.47023 0.44668 0.64585 0.0
H171 H 0.44485 0.4618 0.66821 0.0
H172 H 0.47544 0.4099 0.70103 0.0
C173 C 0.4802 0.43245 0.76598 0.0
O174 O 0.48278 0.44906 0.74787 0.0
N175 N 0.42181 0.42447 0.77522 0.0
C176 C 0.40508 0.43414 0.78562 0.0
C177 C 0.39589 0.42285 0.81134 0.0
C178 C 0.4226 0.40751 0.79449 0.0
N179 N 0.4069 0.40607 0.81676 0.0
C180 C 0.42934 0.4729 0.73265 0.0
C181 C 0.44238 0.48249 0.79933 0.0
C182 C 0.43191 0.49708 0.78003 0.0
C183 C 0.4257 0.49213 0.74597 0.0
C184 C 0.44568 0.46342 0.78504 0.0
N185 N 0.43947 0.4588 0.75179 0.0
H186 H 0.42256 0.46897 0.70794 0.0
H187 H 0.45202 0.45202 0.80185 0.0
H188 H 0.39952 0.44799 0.77434 0.0
H189 H 0.43378 0.3959 0.79064 0.0
O190 O 0.41563 0.43223 0.70591 0.0
O191 O 0.43309 0.40452 0.71651 0.0
O192 O 0.46323 0.42341 0.7652 0.0
C193 C 0.41791 0.41304 0.70089 0.0
H194 H 0.49227 0.42287 0.64248 0.0
H195 H 0.38189 0.42646 0.8243 0.0
H196 H 0.44731 0.48547 0.82589 0.0
H197 H 0.41688 0.50256 0.73051 0.0
Co198 Co 0.83125 0.18857 0.48738 0.0
C199 C 0.81884 0.20346 0.41649 0.0
C200 C 0.81792 0.22653 0.45573 0.0
C201 C 0.81187 0.2347 0.42442 0.0
N202 N 0.82262 0.20701 0.45082 0.0
N203 N 0.81242 0.22021 0.39981 0.0
H204 H 0.82046 0.18898 0.40393 0.0
H205 H 0.81809 0.23428 0.48059 0.0
C206 C 0.84654 0.21542 0.5472 0.0
O207 O 0.84651 0.2005 0.56969 0.0
N208 N 0.83988 0.17 0.52355 0.0
C209 C 0.82871 0.15639 0.54102 0.0
C210 C 0.84104 0.14602 0.5638 0.0
C211 C 0.85891 0.16713 0.53479 0.0
N212 N 0.85997 0.15298 0.56008 0.0
C213 C 0.78921 0.18101 0.48588 0.0
C214 C 0.77998 0.19436 0.55247 0.0
C215 C 0.76485 0.18511 0.53252 0.0
C216 C 0.76964 0.17876 0.49848 0.0
C217 C 0.79941 0.19622 0.53892 0.0
N218 N 0.804 0.18914 0.50628 0.0
H219 H 0.79262 0.17569 0.45982 0.0
H220 H 0.81061 0.2028 0.55542 0.0
H221 H 0.81272 0.15416 0.53771 0.0
H222 H 0.87161 0.17575 0.52541 0.0
O223 O 0.82838 0.16578 0.4564 0.0
O224 O 0.85625 0.18365 0.46277 0.0
O225 O 0.84027 0.21289 0.51575 0.0
C226 C 0.84718 0.1684 0.44833 0.0
H227 H 0.8066 0.24992 0.42035 0.0
H228 H 0.8363 0.13468 0.58239 0.0
H229 H 0.77695 0.19989 0.57863 0.0
H230 H 0.75858 0.17141 0.48205 0.0
Co231 Co 0.06941 0.57621 0.24103 0.0
C232 C 0.05201 0.56249 0.17274 0.0
C233 C 0.03102 0.56061 0.21529 0.0
C234 C 0.02215 0.5527 0.18594 0.0
N235 N 0.04972 0.56689 0.20716 0.0
N236 N 0.03536 0.55372 0.15926 0.0
H237 H 0.06587 0.56447 0.15836 0.0
H238 H 0.02451 0.56065 0.2412 0.0
C239 C 0.04457 0.59005 0.30458 0.0
O240 O 0.06026 0.59019 0.32546 0.0
N241 N 0.08911 0.58554 0.27459 0.0
C242 C 0.10445 0.57523 0.28912 0.0
C243 C 0.11521 0.5881 0.31041 0.0
C244 C 0.09124 0.6046 0.28597 0.0
N245 N 0.10668 0.60647 0.30862 0.0
C246 C 0.07832 0.53466 0.23713 0.0
C247 C 0.07079 0.52449 0.30608 0.0
C248 C 0.07951 0.51013 0.28389 0.0
C249 C 0.08273 0.51528 0.24876 0.0
C250 C 0.06663 0.54381 0.29335 0.0
N251 N 0.07098 0.54889 0.25948 0.0
H252 H 0.08144 0.53841 0.21015 0.0
H253 H 0.06077 0.55465 0.31135 0.0
H254 H 0.10763 0.55951 0.28467 0.0
H255 H 0.08128 0.61674 0.27849 0.0
O256 O 0.09084 0.57435 0.20707 0.0
O257 O 0.07228 0.6015 0.21602 0.0
O258 O 0.04611 0.58417 0.27271 0.0
C259 C 0.08725 0.59307 0.19964 0.0
H260 H 0.0073 0.54607 0.18469 0.0
H261 H 0.12796 0.58412 0.32663 0.0
H262 H 0.06809 0.52116 0.33347 0.0
H263 H 0.08905 0.50455 0.23049 0.0
Co264 Co 0.82761 0.69537 0.52004 0.0
C265 C 0.80235 0.71572 0.57648 0.0
C266 C 0.83393 0.72185 0.57976 0.0
C267 C 0.82448 0.73218 0.60606 0.0
N268 N 0.82016 0.71171 0.56062 0.0
N269 N 0.8047 0.72829 0.60403 0.0
H270 H 0.78804 0.70941 0.56905 0.0
H271 H 0.84997 0.72157 0.57541 0.0
C272 C 0.83188 0.66805 0.58091 0.0
O273 O 0.81419 0.67456 0.5911 0.0
N274 N 0.83626 0.67964 0.48038 0.0
C275 C 0.82714 0.67747 0.44912 0.0
C276 C 0.84009 0.66752 0.42686 0.0
C277 C 0.85451 0.67115 0.47681 0.0
N278 N 0.85739 0.66364 0.44425 0.0
C279 C 0.78537 0.69245 0.50838 0.0
C280 C 0.78381 0.65097 0.50606 0.0
C281 C 0.76705 0.66203 0.49483 0.0
C282 C 0.76777 0.68302 0.49719 0.0
C283 C 0.80108 0.66101 0.51745 0.0
N284 N 0.80181 0.68155 0.51828 0.0
H285 H 0.78614 0.70866 0.50719 0.0
H286 H 0.81439 0.65222 0.52272 0.0
H287 H 0.81249 0.68344 0.44255 0.0
H288 H 0.86561 0.67115 0.49752 0.0
O289 O 0.82095 0.71724 0.48923 0.0
O290 O 0.85095 0.71254 0.51304 0.0
O291 O 0.83962 0.67468 0.55252 0.0
C292 C 0.83936 0.72331 0.49286 0.0
H293 H 0.83164 0.74136 0.62589 0.0
H294 H 0.83726 0.66433 0.39949 0.0
H295 H 0.78394 0.63472 0.50437 0.0
H296 H 0.75538 0.69219 0.48801 0.0
Co297 Co 0.06238 0.07557 0.76761 0.0
C298 C 0.04147 0.05214 0.82324 0.0
C299 C 0.05448 0.0797 0.84198 0.0
C300 C 0.04473 0.07053 0.86932 0.0
N301 N 0.05246 0.0682 0.81321 0.0
N302 N 0.03649 0.05325 0.85758 0.0
H303 H 0.03687 0.04021 0.80569 0.0
H304 H 0.06231 0.09394 0.84287 0.0
C305 C 0.106 0.08407 0.77964 0.0
O306 O 0.10982 0.07466 0.75011 0.0
N307 N 0.0724 0.08433 0.72221 0.0
C308 C 0.07102 0.0761 0.68994 0.0
C309 C 0.07847 0.08959 0.66573 0.0
C310 C 0.08017 0.10281 0.71685 0.0
N311 N 0.08417 0.10642 0.68276 0.0
C312 C 0.06421 0.0364 0.7373 0.0
C313 C 0.09553 0.02143 0.77695 0.0
C314 C 0.08776 0.00965 0.74955 0.0
C315 C 0.07154 0.01726 0.73025 0.0
C316 C 0.08764 0.04065 0.78313 0.0
N317 N 0.0731 0.04846 0.76171 0.0
H318 H 0.05134 0.04153 0.72268 0.0
H319 H 0.09326 0.04914 0.80516 0.0
H320 H 0.06439 0.06182 0.68353 0.0
H321 H 0.08263 0.11347 0.73782 0.0
O322 O 0.03618 0.07107 0.74781 0.0
O323 O 0.04657 0.10017 0.76941 0.0
O324 O 0.0879 0.08562 0.79054 0.0
C325 C 0.03239 0.08983 0.75419 0.0
H326 H 0.04391 0.07611 0.89593 0.0
H327 H 0.07885 0.08744 0.63762 0.0
H328 H 0.1075 0.01583 0.79355 0.0
H329 H 0.06476 0.00874 0.70914 0.0
Co330 Co 0.67822 0.31379 0.02085 0.0
C331 C 0.70263 0.2918 0.07649 0.0
C332 C 0.67084 0.29218 0.08564 0.0
C333 C 0.67973 0.28115 0.11175 0.0
N334 N 0.68504 0.29871 0.06309 0.0
N335 N 0.69966 0.28093 0.10598 0.0
H336 H 0.71729 0.29444 0.06551 0.0
H337 H 0.65494 0.29526 0.08329 0.0
C338 C 0.67635 0.34346 0.07868 0.0
O339 O 0.69396 0.33651 0.08854 0.0
N340 N 0.67023 0.32847 0.9795 0.0
C341 C 0.68041 0.33063 0.94924 0.0
C342 C 0.66844 0.34095 0.92583 0.0
C343 C 0.6522 0.33716 0.97406 0.0
N344 N 0.65068 0.34493 0.94145 0.0
C345 C 0.7204 0.31356 0.00708 0.0
C346 C 0.7255 0.35473 1.00428 0.0
C347 C 0.7414 0.34227 0.99379 0.0
C348 C 0.73878 0.32142 0.99614 0.0
C349 C 0.70731 0.34622 0.01525 0.0
N350 N 0.70493 0.3258 0.01691 0.0
H351 H 0.71836 0.29747 0.00611 0.0
H352 H 0.69473 0.35611 0.01989 0.0
H353 H 0.69528 0.32472 0.94425 0.0
H354 H 0.64035 0.3375 0.99347 0.0
O355 O 0.68303 0.29031 0.99266 0.0
O356 O 0.65374 0.29787 0.01673 0.0
O357 O 0.66781 0.33637 0.05128 0.0
C358 C 0.66435 0.28554 0.99771 0.0
H359 H 0.67218 0.2741 0.13368 0.0
H360 H 0.67224 0.34457 0.89897 0.0
H361 H 0.72662 0.37092 1.00193 0.0
H362 H 0.75061 0.31117 0.98837 0.0
Co363 Co 0.44715 0.92883 0.26296 0.0
C364 C 0.46787 0.95125 0.32083 0.0
C365 C 0.45227 0.92463 0.33766 0.0
C366 C 0.46214 0.93257 0.36591 0.0
N367 N 0.45579 0.93625 0.30944 0.0
N368 N 0.47204 0.9492 0.35543 0.0
H369 H 0.47405 0.96284 0.30409 0.0
H370 H 0.44361 0.91087 0.33744 0.0
C371 C 0.40322 0.91974 0.27175 0.0
O372 O 0.39965 0.92756 0.24074 0.0
N373 N 0.43832 0.91972 0.21696 0.0
C374 C 0.4396 0.92806 0.18477 0.0
C375 C 0.43244 0.91449 0.16038 0.0
C376 C 0.43094 0.90109 0.21136 0.0
N377 N 0.42701 0.89751 0.17721 0.0
C378 C 0.4462 0.96787 0.23168 0.0
C379 C 0.4134 0.9828 0.26741 0.0
C380 C 0.42189 0.99446 0.24048 0.0
C381 C 0.43884 0.98685 0.22319 0.0
C382 C 0.42126 0.96372 0.27495 0.0
N383 N 0.43665 0.95592 0.2555 0.0
H384 H 0.45951 0.96266 0.2184 0.0
H385 H 0.41495 0.95535 0.29653 0.0
H386 H 0.44573 0.9426 0.17859 0.0
H387 H 0.4284 0.89041 0.23228 0.0
O388 O 0.4739 0.93303 0.24538 0.0
O389 O 0.46275 0.90419 0.2669 0.0
O390 O 0.42108 0.91919 0.28404 0.0
C391 C 0.47745 0.91434 0.25288 0.0
H392 H 0.46218 0.92648 0.39224 0.0
H393 H 0.43187 0.9168 0.13231 0.0
H394 H 0.40087 0.98838 0.28266 0.0
H395 H 0.44618 0.99521 0.20248 0.0
Co396 Co 0.18047 0.31678 0.48758 0.0
C397 C 0.19349 0.2983 0.41956 0.0
C398 C 0.19616 0.27822 0.46331 0.0
C399 C 0.20296 0.26853 0.43395 0.0
N400 N 0.19002 0.29683 0.45443 0.0
N401 N 0.20145 0.28115 0.40636 0.0
H402 H 0.19094 0.31179 0.4044 0.0
H403 H 0.1963 0.27215 0.48959 0.0
C404 C 0.16444 0.29218 0.54981 0.0
O405 O 0.16419 0.30775 0.5709 0.0
N406 N 0.17086 0.33671 0.5205 0.0
C407 C 0.18122 0.35175 0.5358 0.0
C408 C 0.1682 0.36272 0.5564 0.0
C409 C 0.15163 0.33925 0.53071 0.0
N410 N 0.14966 0.35465 0.55341 0.0
C411 C 0.22234 0.32432 0.4867 0.0
C412 C 0.23052 0.31696 0.55654 0.0
C413 C 0.24568 0.3251 0.53533 0.0
C414 C 0.24152 0.32825 0.49976 0.0
C415 C 0.21142 0.3133 0.5424 0.0
N416 N 0.20734 0.31756 0.50807 0.0
H417 H 0.21935 0.32731 0.45936 0.0
H418 H 0.19995 0.30792 0.55965 0.0
H419 H 0.19711 0.35456 0.5324 0.0
H420 H 0.13943 0.32958 0.52244 0.0
O421 O 0.18381 0.33813 0.45387 0.0
O422 O 0.1559 0.32037 0.46081 0.0
O423 O 0.17112 0.2937 0.51846 0.0
C424 C 0.16516 0.3351 0.44514 0.0
H425 H 0.20872 0.25334 0.43326 0.0
H426 H 0.17218 0.37528 0.57304 0.0
H427 H 0.23308 0.31433 0.58421 0.0
H428 H 0.2529 0.33412 0.48224 0.0
Co429 Co 0.93507 0.92896 0.23411 0.0
C430 C 0.9527 0.93897 0.16392 0.0
C431 C 0.97268 0.94514 0.20679 0.0
C432 C 0.982 0.95069 0.17622 0.0
N433 N 0.95436 0.93767 0.1992 0.0
N434 N 0.96949 0.9468 0.1492 0.0
H435 H 0.93952 0.93451 0.14929 0.0
H436 H 0.97867 0.94705 0.23294 0.0
C437 C 0.96064 0.91206 0.2944 0.0
O438 O 0.94525 0.91183 0.31587 0.0
N439 N 0.91565 0.92035 0.26877 0.0
C440 C 0.90196 0.93165 0.28575 0.0
C441 C 0.89071 0.91931 0.3071 0.0
C442 C 0.91191 0.90125 0.27867 0.0
N443 N 0.89712 0.90022 0.30279 0.0
C444 C 0.92858 0.97115 0.23417 0.0
C445 C 0.9395 0.97884 0.30272 0.0
C446 C 0.93082 0.99439 0.28296 0.0
C447 C 0.9258 0.99041 0.24791 0.0
C448 C 0.9419 0.95973 0.288 0.0
N449 N 0.9359 0.95589 0.2544 0.0
H450 H 0.92417 0.96832 0.20736 0.0
H451 H 0.94784 0.94809 0.30436 0.0
H452 H 0.90012 0.9477 0.28281 0.0
H453 H 0.92063 0.88853 0.26972 0.0
O454 O 0.91289 0.93293 0.20214 0.0
O455 O 0.92975 0.90443 0.20797 0.0
O456 O 0.95883 0.91901 0.26321 0.0
C457 C 0.91488 0.91414 0.19349 0.0
H458 H 0.99659 0.95778 0.17426 0.0
H459 H 0.87873 0.92405 0.32439 0.0
H460 H 0.94406 0.98124 0.32965 0.0
H461 H 0.91896 1.00179 0.23149 0.0
Co462 Co 0.32555 0.68752 0.98678 0.0
C463 C 0.31261 0.70558 0.91809 0.0
C464 C 0.30921 0.72558 0.96178 0.0
C465 C 0.3025 0.73517 0.93224 0.0
N466 N 0.31574 0.70708 0.95308 0.0
N467 N 0.30446 0.72261 0.90468 0.0
H468 H 0.31562 0.69218 0.90296 0.0
H469 H 0.30884 0.73165 0.98804 0.0
C470 C 0.34152 0.71286 0.04824 0.0
O471 O 0.34148 0.69753 0.0699 0.0
N472 N 0.33543 0.66805 0.02037 0.0
C473 C 0.32516 0.65335 0.0368 0.0
C474 C 0.33825 0.64296 0.05821 0.0
C475 C 0.3547 0.66583 0.03076 0.0
N476 N 0.35677 0.65101 0.05464 0.0
C477 C 0.28377 0.67956 0.9862 0.0
C478 C 0.27537 0.68767 0.05565 0.0
C479 C 0.26034 0.67905 0.03466 0.0
C480 C 0.26462 0.67553 0.99926 0.0
C481 C 0.29447 0.69141 0.04151 0.0
N482 N 0.29868 0.68674 0.0074 0.0
H483 H 0.28681 0.67631 0.95899 0.0
H484 H 0.30582 0.69725 0.05859 0.0
H485 H 0.30926 0.65045 0.03376 0.0
H486 H 0.36682 0.67539 0.02181 0.0
O487 O 0.32224 0.66575 0.95383 0.0
O488 O 0.35004 0.68373 0.95976 0.0
O489 O 0.33494 0.71102 0.01683 0.0
C490 C 0.34082 0.66874 0.94472 0.0
H491 H 0.29656 0.75029 0.93141 0.0
H492 H 0.33429 0.63083 0.07582 0.0
H493 H 0.27271 0.69066 0.08316 0.0
H494 H 0.25334 0.66934 0.98183 0.0
Co495 Co 0.57108 0.08358 0.73047 0.0
C496 C 0.55437 0.06417 0.66668 0.0
C497 C 0.53479 0.08684 0.68776 0.0
C498 C 0.52584 0.07873 0.65855 0.0
N499 N 0.55254 0.07759 0.69304 0.0
N500 N 0.53814 0.06454 0.64531 0.0
H501 H 0.56713 0.05426 0.66344 0.0
H502 H 0.52883 0.09881 0.70381 0.0
C503 C 0.54481 0.08888 0.79407 0.0
O504 O 0.55808 0.07917 0.81317 0.0
N505 N 0.5895 0.09055 0.76808 0.0
C506 C 0.60638 0.08129 0.77925 0.0
C507 C 0.61543 0.09311 0.80439 0.0
C508 C 0.58882 0.108 0.78609 0.0
N509 N 0.60433 0.10988 0.80867 0.0
C510 C 0.58677 0.04373 0.73754 0.0
C511 C 0.55462 0.02683 0.77254 0.0
C512 C 0.57218 0.01546 0.76812 0.0
C513 C 0.58809 0.02394 0.74928 0.0
C514 C 0.55379 0.04656 0.75962 0.0
N515 N 0.57035 0.05532 0.74481 0.0
H516 H 0.59937 0.04986 0.72336 0.0
H517 H 0.53982 0.05466 0.76176 0.0
H518 H 0.61233 0.06735 0.76944 0.0
H519 H 0.57745 0.11938 0.78186 0.0
O520 O 0.59329 0.08228 0.69805 0.0
O521 O 0.57602 0.10985 0.71009 0.0
O522 O 0.54759 0.09119 0.76117 0.0
C523 C 0.59074 0.10142 0.69311 0.0
H524 H 0.51151 0.08317 0.64749 0.0
H525 H 0.62923 0.08965 0.81816 0.0
H526 H 0.54166 0.02052 0.78574 0.0
H527 H 0.60182 0.01559 0.74469 0.0
C528 C 0.52016 0.09025 0.84386 0.0
C529 C 0.52595 0.09633 0.81007 0.0
C530 C 0.5021 0.09707 0.85845 0.0
C531 C 0.45324 0.12058 0.83384 0.0
H532 H 0.45048 0.13293 0.93298 0.0
C533 C 0.37867 0.14413 0.89966 0.0
C534 C 0.37964 0.15907 0.92561 0.0
C535 C 0.39626 0.13548 0.88641 0.0
C536 C 0.45101 0.12973 0.90517 0.0
H537 H 0.51753 0.11468 0.7654 0.0
H538 H 0.48649 0.12699 0.79108 0.0
H539 H 0.48174 0.12042 0.90818 0.0
H540 H 0.39982 0.17691 0.95755 0.0
H541 H 0.43047 0.16225 0.93401 0.0
H542 H 0.42282 0.13071 0.83048 0.0
C543 C 0.49551 0.11651 0.80605 0.0
C544 C 0.4689 0.12225 0.89101 0.0
C545 C 0.51343 0.10954 0.79137 0.0
C546 C 0.39857 0.1652 0.93799 0.0
C547 C 0.41615 0.15673 0.92451 0.0
C548 C 0.43542 0.12821 0.84792 0.0
C549 C 0.48952 0.11029 0.8397 0.0
C550 C 0.4703 0.11768 0.8551 0.0
C551 C 0.41526 0.14174 0.89853 0.0
C552 C 0.43408 0.13299 0.88376 0.0
H553 H 0.52942 0.07999 0.85888 0.0
H554 H 0.49789 0.09174 0.88423 0.0
H555 H 0.4536 0.11693 0.80619 0.0
H556 H 0.36428 0.13894 0.88995 0.0
H557 H 0.39493 0.12375 0.86688 0.0
C558 C 0.60827 0.62447 0.13063 0.0
C559 C 0.59444 0.62641 0.15824 0.0
C560 C 0.61671 0.64149 0.11489 0.0
C561 C 0.62538 0.69618 0.12934 0.0
H562 H 0.63554 0.69618 0.02929 0.0
C563 C 0.64944 0.76749 0.0519 0.0
C564 C 0.66479 0.76497 0.02695 0.0
C565 C 0.6409 0.7508 0.06862 0.0
C566 C 0.63296 0.69635 0.05732 0.0
H567 H 0.57831 0.64784 0.1904 0.0
H568 H 0.59271 0.67753 0.16264 0.0
H569 H 0.62031 0.6668 0.05662 0.0
H570 H 0.68328 0.7429 1.00028 0.0
H571 H 0.66836 0.71389 0.02931 0.0
H572 H 0.63782 0.72592 0.12976 0.0
C573 C 0.59746 0.66284 0.15365 0.0
C574 C 0.62426 0.67947 0.07305 0.0
C575 C 0.58914 0.64581 0.16956 0.0
C576 C 0.67149 0.74541 0.01933 0.0
C577 C 0.66284 0.72875 0.03581 0.0
C578 C 0.63394 0.71313 0.11353 0.0
C579 C 0.61142 0.66093 0.12615 0.0
C580 C 0.62043 0.67909 0.10932 0.0
C581 C 0.64738 0.73122 0.06051 0.0
C582 C 0.63794 0.71337 0.07736 0.0
H583 H 0.6129 0.60975 0.12164 0.0
H584 H 0.62767 0.63936 0.09425 0.0
H585 H 0.62297 0.69637 0.1574 0.0
H586 H 0.64393 0.78235 0.0584 0.0
H587 H 0.62892 0.75319 0.08736 0.0
C588 C 0.1303 0.86016 0.39031 0.0
C589 C 0.13012 0.84921 0.4219 0.0
C590 C 0.11239 0.86721 0.37543 0.0
C591 C 0.05726 0.85847 0.37711 0.0
H592 H 0.05455 0.91071 0.33225 0.0
C593 C 0.98197 0.8955 0.34015 0.0
C594 C 0.98049 0.90507 0.30737 0.0
C595 C 1.0005 0.88872 0.35269 0.0
C596 C 0.05513 0.89599 0.34433 0.0
H597 H 0.11063 0.83732 0.46256 0.0
H598 H 0.07968 0.85007 0.43732 0.0
H599 H 0.0863 0.89915 0.3574 0.0
H600 H 0.9975 0.91508 0.26211 0.0
H601 H 0.02998 0.90327 0.28421 0.0
H602 H 0.02605 0.85542 0.3645 0.0
C603 C 0.09365 0.85291 0.42364 0.0
C604 C 0.07334 0.88934 0.35875 0.0
C605 C 0.11153 0.84581 0.43845 0.0
C606 C 0.99809 0.90778 0.28747 0.0
C607 C 0.01671 0.9011 0.30019 0.0
C608 C 0.03908 0.86515 0.36289 0.0
C609 C 0.0938 0.86355 0.39177 0.0
C610 C 0.0746 0.87055 0.37559 0.0
C611 C 0.0181 0.89141 0.33289 0.0
C612 C 0.03774 0.88405 0.34658 0.0
H613 H 0.14429 0.86331 0.37696 0.0
H614 H 0.1131 0.87522 0.35074 0.0
H615 H 0.05773 0.84372 0.3891 0.0
H616 H 0.96877 0.89314 0.35622 0.0
H617 H 1.00107 0.88156 0.37817 0.0
C618 C 0.9076 0.36687 0.68891 0.0
C619 C 0.90687 0.3855 0.67141 0.0
C620 C 0.89924 0.34968 0.67388 0.0
C621 C 0.88595 0.32677 0.59007 0.0
H622 H 0.85483 0.29054 0.64834 0.0
C623 C 0.85135 0.25251 0.53706 0.0
C624 C 0.85242 0.23574 0.55945 0.0
C625 C 0.85658 0.27167 0.54921 0.0
C626 C 0.86365 0.30038 0.63177 0.0
H627 H 0.89645 0.40037 0.62407 0.0
H628 H 0.88221 0.37013 0.59756 0.0
H629 H 0.86628 0.32249 0.67224 0.0
H630 H 0.86035 0.22596 0.61197 0.0
H631 H 0.86979 0.2591 0.6328 0.0
H632 H 0.88379 0.3044 0.54987 0.0
C633 C 0.88933 0.36902 0.62304 0.0
C634 C 0.87013 0.31873 0.64544 0.0
C635 C 0.89754 0.38635 0.63827 0.0
C636 C 0.85912 0.23853 0.59405 0.0
C637 C 0.86442 0.25761 0.60612 0.0
C638 C 0.87955 0.30831 0.57641 0.0
C639 C 0.89005 0.35054 0.64079 0.0
C640 C 0.88164 0.33197 0.62497 0.0
C641 C 0.86308 0.27446 0.58398 0.0
C642 C 0.86863 0.29474 0.59733 0.0
H643 H 0.91495 0.36527 0.71401 0.0
H644 H 0.90037 0.33557 0.68792 0.0
H645 H 0.89492 0.33663 0.57377 0.0
H646 H 0.84638 0.2509 0.51018 0.0
H647 H 0.85526 0.28433 0.53151 0.0
C648 C 0.63417 0.87585 0.11305 0.0
C649 C 0.63755 0.85642 0.09988 0.0
C650 C 0.61822 0.87959 0.13594 0.0
C651 C 0.56863 0.8596 0.16069 0.0
H652 H 0.57259 0.89948 0.23447 0.0
C653 C 0.49947 0.88425 0.24232 0.0
C654 C 0.49705 0.9052 0.24415 0.0
C655 C 0.51762 0.87599 0.2305 0.0
C656 C 0.57125 0.88829 0.21398 0.0
H657 H 0.62733 0.82549 0.10191 0.0
H658 H 0.59948 0.83201 0.14188 0.0
H659 H 0.60278 0.88921 0.20296 0.0
H660 H 0.51193 0.93388 0.23652 0.0
H661 H 0.5434 0.91956 0.21617 0.0
H662 H 0.53701 0.85908 0.17118 0.0
C663 C 0.60898 0.84443 0.13397 0.0
C664 C 0.58853 0.88244 0.19586 0.0
C665 C 0.62494 0.8407 0.11104 0.0
C666 C 0.51331 0.91767 0.23531 0.0
C667 C 0.53143 0.90945 0.22389 0.0
C668 C 0.55135 0.86542 0.17889 0.0
C669 C 0.60526 0.86398 0.14634 0.0
C670 C 0.58736 0.8684 0.1684 0.0
C671 C 0.53371 0.88854 0.22077 0.0
C672 C 0.55239 0.88021 0.20513 0.0
H673 H 0.64338 0.88837 0.10471 0.0
H674 H 0.61562 0.89489 0.14447 0.0
H675 H 0.56713 0.8489 0.13947 0.0
H676 H 0.48715 0.87429 0.24891 0.0
H677 H 0.51899 0.8598 0.22857 0.0
C678 C 0.37224 0.25019 0.98035 0.0
C679 C 0.35159 0.24575 0.98019 0.0
C680 C 0.37942 0.26771 0.96413 0.0
C681 C 0.3642 0.30529 0.89715 0.0
H682 H 0.40711 0.33774 0.93633 0.0
C683 C 0.38144 0.38428 0.84475 0.0
C684 C 0.40169 0.38897 0.83817 0.0
C685 C 0.37629 0.36694 0.86336 0.0
C686 C 0.39522 0.32872 0.92497 0.0
H687 H 0.32221 0.25656 0.96423 0.0
H688 H 0.33454 0.28707 0.93694 0.0
H689 H 0.39647 0.30707 0.9666 0.0
H690 H 0.43243 0.37948 0.84718 0.0
H691 H 0.4234 0.34909 0.87979 0.0
H692 H 0.36272 0.32698 0.85586 0.0
C693 C 0.34535 0.27687 0.94855 0.0
C694 C 0.38915 0.31113 0.94223 0.0
C695 C 0.33825 0.2594 0.96445 0.0
C696 C 0.41669 0.37617 0.85152 0.0
C697 C 0.41154 0.35887 0.87043 0.0
C698 C 0.37015 0.32287 0.88011 0.0
C699 C 0.36604 0.28113 0.9476 0.0
C700 C 0.37338 0.29933 0.92873 0.0
C701 C 0.39126 0.35391 0.87605 0.0
C702 C 0.38556 0.33491 0.89398 0.0
H703 H 0.38288 0.23992 0.99226 0.0
H704 H 0.39546 0.27047 0.96374 0.0
H705 H 0.35238 0.29633 0.88544 0.0
H706 H 0.3695 0.39366 0.83461 0.0
H707 H 0.36054 0.36365 0.86763 0.0
C708 C 0.01172 0.1196 0.73575 0.0
C709 C 0.01333 0.09887 0.74214 0.0
C710 C 0.99443 0.12745 0.71978 0.0
C711 C 0.94122 0.11593 0.69908 0.0
H712 H 0.94975 0.14969 0.61759 0.0
C713 C 0.879 0.12873 0.59636 0.0
C714 C 0.87722 0.1479 0.58122 0.0
C715 C 0.89534 0.12407 0.61796 0.0
C716 C 0.94703 0.14054 0.64058 0.0
H717 H 0.99785 0.07027 0.73844 0.0
H718 H 0.96775 0.08392 0.71115 0.0
H719 H 0.9783 0.14009 0.65408 0.0
H720 H 0.8911 0.17731 0.57739 0.0
H721 H 0.91952 0.16926 0.61516 0.0
H722 H 0.91001 0.11621 0.68558 0.0
C723 C 0.97974 0.09415 0.71832 0.0
C724 C 0.96342 0.13507 0.66153 0.0
C725 C 0.99704 0.08631 0.7338 0.0
C726 C 0.89221 0.16228 0.58808 0.0
C727 C 0.9085 0.15767 0.60982 0.0
C728 C 0.92484 0.12148 0.67828 0.0
C729 C 0.97838 0.11473 0.71046 0.0
C730 C 0.96074 0.12242 0.69066 0.0
C731 C 0.91025 0.13852 0.62515 0.0
C732 C 0.92757 0.13357 0.64841 0.0
H733 H 0.02411 0.1296 0.74174 0.0
H734 H 0.99372 0.14341 0.71424 0.0
H735 H 0.93865 0.10637 0.72164 0.0
H736 H 0.86782 0.11727 0.59126 0.0
H737 H 0.89639 0.10905 0.62872 0.0
C738 C 0.09667 0.63748 0.33945 0.0
C739 C 0.11174 0.62397 0.32897 0.0
C740 C 0.10141 0.65424 0.35987 0.0
C741 C 0.14117 0.67471 0.41804 0.0
H742 H 0.11515 0.72571 0.39881 0.0
C743 C 0.17243 0.75037 0.46534 0.0
C744 C 0.15895 0.76459 0.47901 0.0
C745 C 0.16538 0.73264 0.4503 0.0
C746 C 0.12231 0.7115 0.40482 0.0
H747 H 0.1436 0.61751 0.33129 0.0
H748 H 0.15204 0.64702 0.36636 0.0
H749 H 0.10569 0.696 0.36514 0.0
H750 H 0.12752 0.77137 0.48801 0.0
H751 H 0.11507 0.74025 0.46102 0.0
H752 H 0.15823 0.69043 0.45696 0.0
C753 C 0.13646 0.64444 0.35949 0.0
C754 C 0.11691 0.69446 0.38554 0.0
C755 C 0.13167 0.62758 0.33928 0.0
C756 C 0.13822 0.76063 0.47771 0.0
C757 C 0.13112 0.74291 0.46216 0.0
C758 C 0.14666 0.69176 0.43709 0.0
C759 C 0.12136 0.65795 0.37013 0.0
C760 C 0.12645 0.6759 0.39164 0.0
C761 C 0.14467 0.72879 0.44825 0.0
C762 C 0.13747 0.71038 0.43037 0.0
H763 H 0.08111 0.63487 0.33251 0.0
H764 H 0.08935 0.66411 0.36808 0.0
H765 H 0.14851 0.66058 0.424 0.0
H766 H 0.1885 0.75298 0.46604 0.0
H767 H 0.17615 0.72215 0.43943 0.0
C768 C 0.8756 0.6443 0.39844 0.0
C769 C 0.87573 0.65514 0.43014 0.0
C770 C 0.89347 0.6368 0.38416 0.0
C771 C 0.94888 0.6438 0.38871 0.0
H772 H 0.95047 0.59208 0.34197 0.0
C773 C 0.02336 0.60498 0.35218 0.0
C774 C 0.02479 0.59661 0.31842 0.0
C775 C 0.00492 0.61179 0.36503 0.0
C776 C 0.9502 0.60663 0.35469 0.0
H777 H 0.89521 0.66628 0.47163 0.0
H778 H 0.92591 0.65266 0.4476 0.0
H779 H 0.91878 0.60436 0.36614 0.0
H780 H 0.00777 0.58878 0.2718 0.0
H781 H 0.97551 0.60048 0.29452 0.0
H782 H 0.98036 0.6459 0.37776 0.0
C783 C 0.91204 0.65032 0.43328 0.0
C784 C 0.93203 0.61371 0.36848 0.0
C785 C 0.89424 0.65793 0.4474 0.0
C786 C 0.00724 0.59503 0.29798 0.0
C787 C 0.98873 0.60168 0.31101 0.0
C788 C 0.96703 0.63666 0.3752 0.0
C789 C 0.91196 0.63984 0.40129 0.0
C790 C 0.93116 0.63235 0.38586 0.0
C791 C 0.98741 0.61028 0.34458 0.0
C792 C 0.96793 0.61796 0.3582 0.0
H793 H 0.86171 0.64158 0.38448 0.0
H794 H 0.89281 0.62893 0.35935 0.0
H795 H 0.94873 0.65843 0.40114 0.0
H796 H 0.03654 0.60648 0.36867 0.0
H797 H 0.00435 0.61814 0.39116 0.0
C798 C 0.09004 0.14313 0.68572 0.0
C799 C 0.092 0.12476 0.66779 0.0
C800 C 0.0978 0.16086 0.67158 0.0
C801 C 0.13463 0.18 0.60703 0.0
H802 H 0.10489 0.22967 0.61862 0.0
C803 C 0.15801 0.25525 0.54152 0.0
C804 C 0.15687 0.27255 0.56262 0.0
C805 C 0.15025 0.23691 0.55335 0.0
C806 C 0.11346 0.21595 0.61543 0.0
H807 H 0.10374 0.1108 0.62071 0.0
H808 H 0.11686 0.14187 0.59559 0.0
H809 H 0.09073 0.19829 0.64033 0.0
H810 H 0.14675 0.28404 0.61285 0.0
H811 H 0.13328 0.25212 0.63337 0.0
H812 H 0.15731 0.19778 0.58189 0.0
C813 C 0.10954 0.14245 0.62091 0.0
C814 C 0.10536 0.19795 0.62791 0.0
C815 C 0.10181 0.12466 0.63514 0.0
C816 C 0.1479 0.27105 0.59588 0.0
C817 C 0.14005 0.25277 0.60758 0.0
C818 C 0.14269 0.19802 0.59436 0.0
C819 C 0.10764 0.16078 0.63899 0.0
C820 C 0.11593 0.17977 0.62421 0.0
C821 C 0.14104 0.23552 0.58641 0.0
C822 C 0.13228 0.21623 0.59875 0.0
H823 H 0.08235 0.14394 0.71064 0.0
H824 H 0.09627 0.17463 0.68648 0.0
H825 H 0.1433 0.16633 0.6041 0.0
H826 H 0.16473 0.25586 0.5157 0.0
H827 H 0.15109 0.22392 0.53632 0.0
C828 C 0.51672 0.43168 0.7818 0.0
C829 C 0.49722 0.42394 0.78624 0.0
C830 C 0.53301 0.42323 0.79962 0.0
C831 C 0.5469 0.39302 0.87656 0.0
H832 H 0.59537 0.38195 0.82361 0.0
C833 C 0.61381 0.34868 0.93568 0.0
C834 C 0.63334 0.35434 0.92572 0.0
C835 C 0.59701 0.35726 0.91943 0.0
C836 C 0.58209 0.38521 0.83899 0.0
H837 H 0.4795 0.40146 0.81348 0.0
H838 H 0.50804 0.38681 0.84494 0.0
H839 H 0.56646 0.39684 0.79429 0.0
H840 H 0.65055 0.37389 0.89171 0.0
H841 H 0.62135 0.38923 0.8639 0.0
H842 H 0.5626 0.38173 0.92143 0.0
C843 C 0.51065 0.39943 0.82758 0.0
C844 C 0.56548 0.39368 0.8221 0.0
C845 C 0.49434 0.40776 0.80944 0.0
C846 C 0.6357 0.36901 0.89957 0.0
C847 C 0.61892 0.37774 0.88355 0.0
C848 C 0.5636 0.3847 0.89358 0.0
C849 C 0.5302 0.40695 0.82257 0.0
C850 C 0.54771 0.39772 0.84068 0.0
C851 C 0.59933 0.37186 0.89301 0.0
C852 C 0.58145 0.38071 0.87503 0.0
H853 H 0.51949 0.44412 0.76414 0.0
H854 H 0.54785 0.42951 0.79554 0.0
H855 H 0.53347 0.39615 0.89164 0.0
H856 H 0.61149 0.33721 0.95539 0.0
H857 H 0.58221 0.3521 0.92706 0.0
C858 C 0.40895 0.8795 0.12965 0.0
C859 C 0.41894 0.87925 0.16218 0.0
C860 C 0.40076 0.86184 0.1156 0.0
C861 C 0.40353 0.80618 0.12311 0.0
H862 H 0.35138 0.80758 0.07765 0.0
C863 C 0.35881 0.73406 0.09342 0.0
C864 C 0.34954 0.73248 0.06039 0.0
C865 C 0.36722 0.75223 0.10448 0.0
C866 C 0.36605 0.80698 0.08995 0.0
H867 H 0.42844 0.85991 0.20495 0.0
H868 H 0.41377 0.82948 0.18111 0.0
H869 H 0.3664 0.83874 0.09913 0.0
H870 H 0.34163 0.74898 0.01327 0.0
H871 H 0.35626 0.78078 0.03276 0.0
H872 H 0.40304 0.7744 0.11442 0.0
C873 C 0.41245 0.84325 0.16615 0.0
C874 C 0.3747 0.82485 0.10221 0.0
C875 C 0.42065 0.86084 0.18012 0.0
C876 C 0.34862 0.74965 0.0389 0.0
C877 C 0.35693 0.7679 0.0501 0.0
C878 C 0.39485 0.78834 0.11104 0.0
C879 C 0.40237 0.84349 0.13373 0.0
C880 C 0.39348 0.82465 0.11924 0.0
C881 C 0.3665 0.76934 0.0829 0.0
C882 C 0.37594 0.78849 0.09459 0.0
H883 H 0.40718 0.89338 0.1152 0.0
H884 H 0.3933 0.86257 0.0904 0.0
H885 H 0.4182 0.80547 0.13539 0.0
H886 H 0.35981 0.72117 0.1107 0.0
H887 H 0.37422 0.7529 0.1301 0.0
C888 C 0.12883 0.37985 0.58411 0.0
C889 C 0.13195 0.35998 0.57301 0.0
C890 C 0.11194 0.38484 0.60407 0.0
C891 C 0.06117 0.3665 0.62881 0.0
H892 H 0.0667 0.40595 0.70298 0.0
C893 C 0.99609 0.38751 0.72375 0.0
C894 C 0.99297 0.40828 0.72741 0.0
C895 C 0.01336 0.3803 0.70689 0.0
C896 C 0.06493 0.39493 0.6823 0.0
H897 H 0.11996 0.32968 0.57468 0.0
H898 H 0.09065 0.33829 0.60973 0.0
H899 H 0.09613 0.39608 0.66913 0.0
H900 H 0.00562 0.43776 0.71705 0.0
H901 H 0.03563 0.42523 0.68814 0.0
H902 H 0.02989 0.36541 0.64222 0.0
C903 C 0.10098 0.35015 0.60239 0.0
C904 C 0.08176 0.38936 0.66275 0.0
C905 C 0.11779 0.34521 0.58224 0.0
C906 C 0.00756 0.42165 0.71459 0.0
C907 C 0.02484 0.41448 0.69821 0.0
C908 C 0.04434 0.37199 0.64857 0.0
C909 C 0.09786 0.37002 0.61366 0.0
C910 C 0.08005 0.37529 0.63541 0.0
C911 C 0.02789 0.39376 0.69396 0.0
C912 C 0.046 0.38649 0.67516 0.0
H913 H 0.13937 0.39157 0.57707 0.0
H914 H 0.10983 0.40037 0.6117 0.0
H915 H 0.05924 0.35578 0.60772 0.0
H916 H 0.98505 0.37687 0.73333 0.0
H917 H 0.0154 0.36423 0.70408 0.0
C918 C 0.89366 0.86332 0.30824 0.0
C919 C 0.89098 0.88268 0.32225 0.0
C920 C 0.88874 0.84629 0.32789 0.0
C921 C 0.85796 0.82966 0.40261 0.0
H922 H 0.89309 0.78313 0.40145 0.0
C923 C 0.83274 0.75291 0.45469 0.0
C924 C 0.84638 0.74164 0.47482 0.0
C925 C 0.83893 0.77031 0.4375 0.0
C926 C 0.88324 0.79608 0.4023 0.0
H927 H 0.88109 0.89924 0.36807 0.0
H928 H 0.87237 0.86959 0.40218 0.0
H929 H 0.90241 0.81326 0.36857 0.0
H930 H 0.87727 0.73971 0.49261 0.0
H931 H 0.88817 0.77037 0.46237 0.0
H932 H 0.83885 0.8126 0.43644 0.0
C933 C 0.87809 0.86759 0.37584 0.0
C934 C 0.88845 0.81324 0.38315 0.0
C935 C 0.88302 0.88461 0.35621 0.0
C936 C 0.86643 0.74811 0.47728 0.0
C937 C 0.87268 0.76558 0.45987 0.0
C938 C 0.85274 0.81253 0.42163 0.0
C939 C 0.88099 0.84824 0.36198 0.0
C940 C 0.87578 0.83016 0.38291 0.0
C941 C 0.85892 0.7769 0.43994 0.0
C942 C 0.86522 0.79547 0.42142 0.0
H943 H 0.89946 0.86131 0.28198 0.0
H944 H 0.89081 0.8316 0.31623 0.0
H945 H 0.84781 0.84239 0.40278 0.0
H946 H 0.81719 0.7483 0.45213 0.0
H947 H 0.82805 0.77849 0.42188 0.0
C948 C 0.4976 0.58928 0.22813 0.0
C949 C 0.51357 0.60261 0.23438 0.0
C950 C 0.48027 0.59576 0.21101 0.0
C951 C 0.45128 0.64022 0.18223 0.0
H952 H 0.432 0.60313 0.11126 0.0
C953 C 0.38919 0.66088 0.08149 0.0
C954 C 0.37455 0.64613 0.07457 0.0
C955 C 0.40615 0.65633 0.10167 0.0
C956 C 0.43703 0.61357 0.13121 0.0
H957 H 0.5236 0.63343 0.22914 0.0
H958 H 0.49316 0.64486 0.19861 0.0
H959 H 0.46122 0.59434 0.14634 0.0
H960 H 0.36635 0.61502 0.08332 0.0
H961 H 0.39584 0.60709 0.11877 0.0
H962 H 0.427 0.65948 0.16675 0.0
C963 C 0.49405 0.62938 0.20728 0.0
C964 C 0.45379 0.60853 0.15138 0.0
C965 C 0.51145 0.62288 0.22476 0.0
C966 C 0.37729 0.62673 0.08828 0.0
C967 C 0.39428 0.62216 0.10834 0.0
C968 C 0.43446 0.64528 0.16193 0.0
C969 C 0.47852 0.61571 0.19934 0.0
C970 C 0.461 0.62167 0.17741 0.0
C971 C 0.40891 0.6369 0.11529 0.0
C972 C 0.42705 0.63191 0.1364 0.0
H973 H 0.4987 0.57361 0.23565 0.0
H974 H 0.46839 0.58497 0.2062 0.0
H975 H 0.45639 0.65061 0.20217 0.0
H976 H 0.3874 0.67607 0.07184 0.0
H977 H 0.41721 0.66799 0.1063 0.0
C978 C 0.593 0.13905 0.84381 0.0
C979 C 0.60861 0.12674 0.83128 0.0
C980 C 0.59721 0.15559 0.86527 0.0
C981 C 0.63716 0.17709 0.92214 0.0
H982 H 0.60979 0.22765 0.9052 0.0
C983 C 0.66908 0.25262 0.96788 0.0
C984 C 0.65599 0.26688 0.98255 0.0
C985 C 0.66162 0.23503 0.95289 0.0
C986 C 0.61734 0.21356 0.91061 0.0
H987 H 0.64089 0.12234 0.83123 0.0
H988 H 0.64826 0.15115 0.86827 0.0
H989 H 0.59998 0.19774 0.87217 0.0
H990 H 0.62477 0.27389 0.99306 0.0
H991 H 0.6116 0.24299 0.96627 0.0
H992 H 0.65491 0.19304 0.95979 0.0
C993 C 0.6327 0.14783 0.86218 0.0
C994 C 0.61172 0.19641 0.8917 0.0
C995 C 0.62849 0.13129 0.84085 0.0
C996 C 0.6352 0.26314 0.98199 0.0
C997 C 0.62768 0.24553 0.96656 0.0
C998 C 0.64282 0.19422 0.94085 0.0
C999 C 0.61713 0.16021 0.87467 0.0
C1000 C 0.62185 0.17805 0.89676 0.0
C1001 C 0.64086 0.23128 0.95193 0.0
C1002 C 0.63325 0.21272 0.93482 0.0
H1003 H 0.5775 0.13579 0.83734 0.0
H1004 H 0.58484 0.16464 0.87477 0.0
H1005 H 0.64496 0.16311 0.92733 0.0
H1006 H 0.68519 0.25503 0.9679 0.0
H1007 H 0.67214 0.2245 0.9414 0.0
C1008 C 0.27143 0.2265 0.12586 0.0
C1009 C 0.29026 0.23595 0.1234 0.0
C1010 C 0.25727 0.23307 0.15047 0.0
C1011 C 0.23999 0.23923 0.22358 0.0
H1012 H 0.23402 0.29495 0.25172 0.0
C1013 C 0.22194 0.26166 0.36433 0.0
C1014 C 0.20806 0.27716 0.37093 0.0
C1015 C 0.22819 0.25736 0.33031 0.0
C1016 C 0.23526 0.27935 0.24388 0.0
H1017 H 0.30844 0.26056 0.14285 0.0
H1018 H 0.28398 0.27187 0.18587 0.0
H1019 H 0.25104 0.28684 0.19669 0.0
H1020 H 0.19006 0.30043 0.34631 0.0
H1021 H 0.20145 0.29314 0.2866 0.0
H1022 H 0.22475 0.2317 0.27118 0.0
C1023 C 0.28003 0.25943 0.1689 0.0
C1024 C 0.24514 0.27469 0.21254 0.0
C1025 C 0.29417 0.25279 0.14454 0.0
C1026 C 0.20085 0.28848 0.34236 0.0
C1027 C 0.20729 0.28427 0.30813 0.0
C1028 C 0.23021 0.24388 0.25491 0.0
C1029 C 0.26161 0.24934 0.17283 0.0
C1030 C 0.24814 0.25454 0.20256 0.0
C1031 C 0.22091 0.26853 0.30179 0.0
C1032 C 0.2283 0.26395 0.26595 0.0
H1033 H 0.26803 0.21346 0.10996 0.0
H1034 H 0.24313 0.22509 0.15265 0.0
H1035 H 0.24214 0.22356 0.21687 0.0
H1036 H 0.22833 0.25291 0.38546 0.0
H1037 H 0.2391 0.24549 0.32642 0.0
C1038 C 0.45881 0.46665 0.5947 0.0
C1039 C 0.47439 0.45801 0.61448 0.0
C1040 C 0.46301 0.47656 0.56308 0.0
C1041 C 0.50359 0.48221 0.49584 0.0
H1042 H 0.47434 0.53045 0.47078 0.0
C1043 C 0.5255 0.52855 0.37333 0.0
C1044 C 0.52601 0.54947 0.37835 0.0
C1045 C 0.51622 0.51602 0.39813 0.0
C1046 C 0.48275 0.51704 0.47741 0.0
H1047 H 0.50659 0.45367 0.61749 0.0
H1048 H 0.51404 0.4714 0.56335 0.0
H1049 H 0.46479 0.51181 0.52298 0.0
H1050 H 0.51586 0.57366 0.4121 0.0
H1051 H 0.50057 0.55208 0.4555 0.0
H1052 H 0.52234 0.48811 0.45156 0.0
C1053 C 0.49848 0.46995 0.57124 0.0
C1054 C 0.47707 0.50616 0.5072 0.0
C1055 C 0.49425 0.45989 0.60248 0.0
C1056 C 0.51618 0.55759 0.40773 0.0
C1057 C 0.50706 0.54516 0.43247 0.0
C1058 C 0.50941 0.49321 0.4663 0.0
C1059 C 0.48292 0.47823 0.5508 0.0
C1060 C 0.4877 0.48883 0.51729 0.0
C1061 C 0.50725 0.52416 0.42844 0.0
C1062 C 0.49936 0.51103 0.45709 0.0
H1063 H 0.44334 0.46524 0.60317 0.0
H1064 H 0.4506 0.48256 0.54799 0.0
H1065 H 0.51184 0.46866 0.50219 0.0
H1066 H 0.5329 0.52181 0.35098 0.0
H1067 H 0.5164 0.49994 0.39381 0.0
C1068 C 0.21604 0.75493 0.63966 0.0
C1069 C 0.22027 0.77216 0.61968 0.0
C1070 C 0.22992 0.74764 0.66397 0.0
C1071 C 0.26411 0.73137 0.7084 0.0
H1072 H 0.28371 0.77329 0.77014 0.0
C1073 C 0.30608 0.71574 0.84053 0.0
C1074 C 0.29825 0.7267 0.86901 0.0
C1075 C 0.30023 0.7203 0.80605 0.0
C1076 C 0.27849 0.7614 0.753 0.0
H1077 H 0.24283 0.79462 0.60806 0.0
H1078 H 0.26729 0.78189 0.65079 0.0
H1079 H 0.26741 0.78239 0.7152 0.0
H1080 H 0.27738 0.75051 0.88307 0.0
H1081 H 0.2677 0.75855 0.82367 0.0
H1082 H 0.27436 0.71043 0.74732 0.0
C1083 C 0.25311 0.77409 0.6477 0.0
C1084 C 0.26933 0.7666 0.7213 0.0
C1085 C 0.2392 0.7813 0.62308 0.0
C1086 C 0.28427 0.74208 0.86207 0.0
C1087 C 0.27864 0.74672 0.82784 0.0
C1088 C 0.27339 0.72615 0.7401 0.0
C1089 C 0.24839 0.75747 0.66906 0.0
C1090 C 0.26143 0.75169 0.69915 0.0
C1091 C 0.28662 0.73602 0.7994 0.0
C1092 C 0.28003 0.74116 0.76327 0.0
H1093 H 0.20166 0.74742 0.63722 0.0
H1094 H 0.22568 0.73495 0.68013 0.0
H1095 H 0.25839 0.71951 0.69169 0.0
H1096 H 0.31693 0.70388 0.84475 0.0
H1097 H 0.30658 0.71176 0.78457 0.0
C1098 C 0.00814 0.45667 0.89259 0.0
C1099 C 0.99015 0.46241 0.87618 0.0
C1100 C 0.01675 0.46873 0.91844 0.0
C1101 C 0.01431 0.51859 0.9628 0.0
H1102 H 0.02954 0.48702 0.04409 0.0
C1103 C 0.04234 0.55296 0.0954 0.0
C1104 C 0.03289 0.54479 0.12513 0.0
C1105 C 0.03955 0.54418 0.06232 0.0
C1106 C 0.02541 0.49607 0.02159 0.0
H1107 H 0.96761 0.48573 0.87234 0.0
H1108 H 0.98236 0.50676 0.91839 0.0
H1109 H 0.02049 0.47011 0.99004 0.0
H1110 H 0.01354 0.52076 0.14355 0.0
H1111 H 0.0086 0.50568 0.08635 0.0
H1112 H 0.01849 0.54457 0.99543 0.0
C1113 C 0.99003 0.49307 0.91087 0.0
C1114 C 0.02043 0.48639 0.9904 0.0
C1115 C 0.98153 0.48105 0.88459 0.0
C1116 C 0.0208 0.52762 0.12117 0.0
C1117 C 0.01816 0.51882 0.0884 0.0
C1118 C 0.01936 0.52833 0.99418 0.0
C1119 C 0.00739 0.4867 0.92888 0.0
C1120 C 0.0145 0.49747 0.96074 0.0
C1121 C 0.02752 0.52692 0.05861 0.0
C1122 C 0.02452 0.5171 0.02409 0.0
H1123 H 0.01526 0.44253 0.88602 0.0
H1124 H 0.0304 0.46362 0.9311 0.0
H1125 H 0.00998 0.52756 0.94034 0.0
H1126 H 0.05166 0.56624 0.0977 0.0
H1127 H 0.04699 0.5507 0.03977 0.0
C1128 C 0.79043 0.75547 0.63972 0.0
C1129 C 0.78979 0.73544 0.62821 0.0
C1130 C 0.77762 0.76209 0.66626 0.0
C1131 C 0.75222 0.7445 0.74412 0.0
H1132 H 0.722 0.79425 0.73806 0.0
C1133 C 0.71789 0.78496 0.86491 0.0
C1134 C 0.69744 0.78987 0.8616 0.0
C1135 C 0.72879 0.77832 0.83573 0.0
C1136 C 0.73035 0.78032 0.74007 0.0
H1137 H 0.77517 0.70666 0.6348 0.0
H1138 H 0.75283 0.71816 0.68211 0.0
H1139 H 0.7406 0.78213 0.68688 0.0
H1140 H 0.67256 0.79242 0.82523 0.0
H1141 H 0.6917 0.78127 0.77414 0.0
H1142 H 0.74232 0.74292 0.79757 0.0
C1143 C 0.76316 0.72874 0.67024 0.0
C1144 C 0.74099 0.77343 0.71088 0.0
C1145 C 0.77575 0.72221 0.64309 0.0
C1146 C 0.68826 0.78856 0.82849 0.0
C1147 C 0.69922 0.7823 0.79928 0.0
C1148 C 0.74186 0.75158 0.77353 0.0
C1149 C 0.76417 0.7487 0.6823 0.0
C1150 C 0.75201 0.75544 0.71262 0.0
C1151 C 0.71952 0.77689 0.80267 0.0
C1152 C 0.73083 0.76956 0.77176 0.0
H1153 H 0.80116 0.7659 0.62854 0.0
H1154 H 0.77879 0.77751 0.67518 0.0
H1155 H 0.76078 0.7307 0.74624 0.0
H1156 H 0.72524 0.78574 0.8902 0.0
H1157 H 0.74448 0.77436 0.83895 0.0
C1158 C 0.7103 0.25241 0.14255 0.0
C1159 C 0.71441 0.27129 0.12785 0.0
C1160 C 0.72345 0.24384 0.16687 0.0
C1161 C 0.77435 0.2493 0.20789 0.0
H1162 H 0.74813 0.22268 0.28593 0.0
C1163 C 0.8089 0.24037 0.34601 0.0
C1164 C 0.80567 0.22228 0.36414 0.0
C1165 C 0.80026 0.24356 0.3131 0.0
C1166 C 0.75574 0.22975 0.26406 0.0
H1167 H 0.73568 0.29583 0.12604 0.0
H1168 H 0.75843 0.28132 0.16965 0.0
H1169 H 0.72824 0.23381 0.23622 0.0
H1170 H 0.79148 0.19304 0.3616 0.0
H1171 H 0.77604 0.19869 0.304 0.0
H1172 H 0.80175 0.24608 0.23713 0.0
C1173 C 0.74533 0.27278 0.1618 0.0
C1174 C 0.74434 0.23613 0.23539 0.0
C1175 C 0.7323 0.28117 0.1369 0.0
C1176 C 0.79429 0.20707 0.34807 0.0
C1177 C 0.78537 0.21037 0.3153 0.0
C1178 C 0.78573 0.24313 0.23687 0.0
C1179 C 0.74084 0.25417 0.1777 0.0
C1180 C 0.75342 0.24618 0.20701 0.0
C1181 C 0.78796 0.22881 0.29781 0.0
C1182 C 0.77649 0.23348 0.26541 0.0
H1183 H 0.69672 0.24438 0.13551 0.0
H1184 H 0.71973 0.22925 0.17765 0.0
H1185 H 0.78196 0.25665 0.18634 0.0
H1186 H 0.81775 0.25226 0.35775 0.0
H1187 H 0.80241 0.25797 0.30041 0.0
C1188 C 0.95713 0.95571 0.08975 0.0
C1189 C 0.97311 0.95156 0.11281 0.0
C1190 C 0.96092 0.96241 0.05556 0.0
C1191 C 1.00208 0.96927 0.9895 0.0
H1192 H 0.97022 0.01516 0.96078 0.0
C1193 C 0.02537 0.01853 0.87126 0.0
C1194 C 0.0249 0.03927 0.8782 0.0
C1195 C 0.01576 0.00495 0.89385 0.0
C1196 C 0.97926 1.00234 0.96834 0.0
H1197 H 0.00558 0.94987 0.11702 0.0
H1198 H 0.01218 0.96214 0.05839 0.0
H1199 H 0.96025 0.99592 0.01203 0.0
H1200 H 0.01286 0.06209 0.91286 0.0
H1201 H 0.99666 0.03867 0.9524 0.0
H1202 H 0.02188 0.97662 0.94725 0.0
C1203 C 0.99669 0.96007 0.0663 0.0
C1204 C 0.97338 0.9911 0.99754 0.0
C1205 C 0.9929 0.95331 0.10029 0.0
C1206 C 0.01383 0.04619 0.90712 0.0
C1207 C 0.00425 0.03272 0.92955 0.0
C1208 C 0.00805 0.98063 0.96045 0.0
C1209 C 0.98078 0.96512 0.04367 0.0
C1210 C 0.98508 0.97481 0.00922 0.0
C1211 C 0.00537 0.01189 0.92365 0.0
C1212 C 0.99709 0.99773 0.95025 0.0
H1213 H 0.9417 0.95455 0.09846 0.0
H1214 H 0.94829 0.96588 0.0387 0.0
H1215 H 0.01122 0.95656 0.99725 0.0
H1216 H 0.03381 0.01276 0.8492 0.0
H1217 H 0.01676 0.98902 0.88833 0.0
C1218 C 0.48413 0.98246 0.37576 0.0
C1219 C 0.4846 0.96137 0.37766 0.0
C1220 C 0.4934 0.99406 0.40195 0.0
C1221 C 0.50433 0.98969 0.49505 0.0
H1222 H 0.53564 0.03853 0.48504 0.0
C1223 C 0.5146 0.04609 0.60732 0.0
C1224 C 0.53428 0.05246 0.61474 0.0
C1225 C 0.51046 0.035 0.57715 0.0
C1226 C 0.52702 0.02483 0.48811 0.0
H1227 H 0.49677 0.93595 0.40611 0.0
H1228 H 0.51282 0.95604 0.45152 0.0
H1229 H 0.52574 0.01941 0.43255 0.0
H1230 H 0.56504 0.0524 0.59632 0.0
H1231 H 0.55772 0.03305 0.54282 0.0
H1232 H 0.50514 0.99519 0.55028 0.0
C1233 C 0.50498 0.96366 0.43046 0.0
C1234 C 0.52125 0.01401 0.45816 0.0
C1235 C 0.49579 0.95217 0.40448 0.0
C1236 C 0.54979 0.0475 0.5913 0.0
C1237 C 0.54557 0.03664 0.56064 0.0
C1238 C 0.50981 1.00059 0.52476 0.0
C1239 C 0.50324 0.98468 0.43027 0.0
C1240 C 0.50986 0.99631 0.46142 0.0
C1241 C 0.52586 0.03024 0.55341 0.0
C1242 C 0.52113 0.0183 0.52164 0.0
H1243 H 0.47558 0.98988 0.35537 0.0
H1244 H 0.49184 0.01026 0.40119 0.0
H1245 H 0.49535 0.97624 0.49838 0.0
H1246 H 0.50241 0.04959 0.62506 0.0
H1247 H 0.49512 0.03033 0.57215 0.0
C1248 C 0.11903 0.10191 0.83308 0.0
C1249 C 0.1228 0.09192 0.80126 0.0
C1250 C 0.13493 0.10919 0.85351 0.0
C1251 C 0.18842 0.12401 0.84746 0.0
H1252 H 0.18674 0.12064 0.94892 0.0
C1253 C 0.24457 0.1672 0.93373 0.0
C1254 C 0.25254 0.15751 0.96344 0.0
C1255 C 0.22874 0.15866 0.91488 0.0
C1256 C 0.18752 0.12154 0.92061 0.0
H1257 H 0.14629 0.0816 0.76621 0.0
H1258 H 0.17394 0.09409 0.80193 0.0
H1259 H 0.15933 0.10638 0.91427 0.0
H1260 H 0.24993 0.13119 0.99664 0.0
H1261 H 0.22237 0.11606 0.96325 0.0
H1262 H 0.2167 0.13885 0.85364 0.0
C1263 C 0.1587 0.09657 0.81088 0.0
C1264 C 0.1717 0.11358 0.90075 0.0
C1265 C 0.14282 0.08932 0.79045 0.0
C1266 C 0.2442 0.13901 0.97382 0.0
C1267 C 0.22829 0.13044 0.95488 0.0
C1268 C 0.2042 0.13195 0.86727 0.0
C1269 C 0.15497 0.10666 0.84263 0.0
C1270 C 0.17191 0.11479 0.86392 0.0
C1271 C 0.22047 0.14012 0.92501 0.0
C1272 C 0.20391 0.13096 0.9041 0.0
H1273 H 0.10379 0.10419 0.8422 0.0
H1274 H 0.13149 0.11711 0.87756 0.0
H1275 H 0.18902 0.1254 0.8192 0.0
H1276 H 0.25081 0.18127 0.92451 0.0
H1277 H 0.22294 0.16668 0.89232 0.0
C1278 C 0.5857 0.47885 0.23041 0.0
C1279 C 0.59799 0.49499 0.241 0.0
C1280 C 0.59411 0.46142 0.21629 0.0
C1281 C 0.63963 0.43095 0.20864 0.0
H1282 H 0.6188 0.41719 0.11674 0.0
C1283 C 0.67886 0.37211 0.1209 0.0
C1284 C 0.66708 0.36021 0.09844 0.0
C1285 C 0.67029 0.38798 0.13966 0.0
C1286 C 0.62459 0.42048 0.14263 0.0
H1287 H 0.62892 0.50473 0.24717 0.0
H1288 H 0.64362 0.47387 0.22349 0.0
H1289 H 0.60412 0.44504 0.14913 0.0
H1290 H 0.63697 0.35541 0.07846 0.0
H1291 H 0.62178 0.38254 0.11222 0.0
H1292 H 0.65976 0.40614 0.20278 0.0
C1293 C 0.62743 0.47497 0.22577 0.0
C1294 C 0.61621 0.43656 0.16111 0.0
C1295 C 0.61899 0.49259 0.2395 0.0
C1296 C 0.64648 0.36442 0.09535 0.0
C1297 C 0.63781 0.38009 0.11461 0.0
C1298 C 0.64781 0.41462 0.19043 0.0
C1299 C 0.61502 0.4595 0.213 0.0
C1300 C 0.6237 0.44202 0.1942 0.0
C1301 C 0.64961 0.39218 0.13697 0.0
C1302 C 0.64051 0.40922 0.15699 0.0
H1303 H 0.56948 0.4799 0.23205 0.0
H1304 H 0.58422 0.44955 0.20726 0.0
H1305 H 0.64558 0.43477 0.23423 0.0
H1306 H 0.69484 0.36937 0.12362 0.0
H1307 H 0.68003 0.39713 0.15586 0.0
C1308 C 0.26997 0.86696 0.47674 0.0
C1309 C 0.25669 0.85334 0.46083 0.0
C1310 C 0.28585 0.87526 0.45744 0.0
C1311 C 0.30117 0.88893 0.36944 0.0
H1312 H 0.35605 0.88009 0.39994 0.0
C1313 C 0.36823 0.90649 0.27871 0.0
C1314 C 0.38636 0.91287 0.29388 0.0
C1315 C 0.35236 0.89993 0.29983 0.0
C1316 C 0.34085 0.88311 0.39127 0.0
H1317 H 0.24901 0.83807 0.41252 0.0
H1318 H 0.27638 0.85305 0.37852 0.0
H1319 H 0.32827 0.86844 0.43631 0.0
H1320 H 0.40198 0.91789 0.34299 0.0
H1321 H 0.37411 0.9074 0.37985 0.0
H1322 H 0.31344 0.90408 0.32499 0.0
C1323 C 0.27473 0.85707 0.40589 0.0
C1324 C 0.32496 0.87632 0.41212 0.0
C1325 C 0.2592 0.84846 0.42531 0.0
C1326 C 0.38824 0.91281 0.33054 0.0
C1327 C 0.37225 0.90666 0.35168 0.0
C1328 C 0.31702 0.8961 0.34892 0.0
C1329 C 0.28827 0.87043 0.42181 0.0
C1330 C 0.30502 0.87896 0.40115 0.0
C1331 C 0.35409 0.9 0.33667 0.0
C1332 C 0.33713 0.89305 0.35927 0.0
H1333 H 0.26824 0.87091 0.50411 0.0
H1334 H 0.29612 0.88558 0.47018 0.0
H1335 H 0.28586 0.89125 0.3606 0.0
H1336 H 0.36644 0.90625 0.25049 0.0
H1337 H 0.33884 0.89453 0.28712 0.0
C1338 C 0.83303 0.64424 0.63163 0.0
C1339 C 0.84181 0.65171 0.60075 0.0
C1340 C 0.84171 0.62813 0.64957 0.0
C1341 C 0.88899 0.59962 0.65995 0.0
H1342 H 0.85369 0.55719 0.69277 0.0
C1343 C 0.91873 0.52227 0.70334 0.0
C1344 C 0.90974 0.51289 0.73242 0.0
C1345 C 0.91067 0.53991 0.68939 0.0
C1346 C 0.86373 0.56904 0.68426 0.0
H1347 H 0.86684 0.64831 0.56483 0.0
H1348 H 0.88195 0.62008 0.59609 0.0
H1349 H 0.83943 0.58676 0.66439 0.0
H1350 H 0.88529 0.51478 0.76976 0.0
H1351 H 0.87118 0.54573 0.74537 0.0
H1352 H 0.91331 0.58181 0.67959 0.0
C1353 C 0.86842 0.62682 0.60658 0.0
C1354 C 0.85556 0.58598 0.66794 0.0
C1355 C 0.85972 0.64295 0.58858 0.0
C1356 C 0.89247 0.52158 0.74721 0.0
C1357 C 0.88439 0.53928 0.73321 0.0
C1358 C 0.89716 0.58268 0.67631 0.0
C1359 C 0.8594 0.61911 0.63709 0.0
C1360 C 0.8681 0.6014 0.65538 0.0
C1361 C 0.8934 0.54862 0.70409 0.0
C1362 C 0.88464 0.56711 0.6884 0.0
H1363 H 0.8193 0.6507 0.64188 0.0
H1364 H 0.83456 0.62275 0.67328 0.0
H1365 H 0.89903 0.61137 0.65107 0.0
H1366 H 0.93176 0.51574 0.69076 0.0
H1367 H 0.91775 0.54646 0.66652 0.0
C1368 C 0.76545 0.85782 0.03547 0.0
C1369 C 0.75957 0.8376 0.03902 0.0
C1370 C 0.78306 0.86486 0.05114 0.0
C1371 C 0.83208 0.84952 0.08738 0.0
H1372 H 0.82884 0.9009 0.13495 0.0
C1373 C 0.89748 0.88312 0.17119 0.0
C1374 C 0.89975 0.90413 0.17096 0.0
C1375 C 0.88127 0.87405 0.15372 0.0
C1376 C 0.83016 0.88668 0.12134 0.0
H1377 H 0.76785 0.8089 0.06168 0.0
H1378 H 0.79883 0.82129 0.08922 0.0
H1379 H 0.79895 0.88675 0.10792 0.0
H1380 H 0.88753 0.93198 0.15062 0.0
H1381 H 0.85978 0.91624 0.11941 0.0
H1382 H 0.86344 0.8496 0.10063 0.0
C1383 C 0.78973 0.83161 0.07405 0.0
C1384 C 0.81295 0.87852 0.10594 0.0
C1385 C 0.77192 0.82455 0.05851 0.0
C1386 C 0.88609 0.91577 0.15156 0.0
C1387 C 0.87005 0.90673 0.13391 0.0
C1388 C 0.84942 0.85777 0.10269 0.0
C1389 C 0.79537 0.85192 0.07083 0.0
C1390 C 0.8137 0.85994 0.08846 0.0
C1391 C 0.86707 0.8858 0.13551 0.0
C1392 C 0.84872 0.87658 0.11958 0.0
H1393 H 0.75617 0.8684 0.02117 0.0
H1394 H 0.78705 0.88053 0.04781 0.0
H1395 H 0.83318 0.83523 0.07393 0.0
H1396 H 0.90769 0.87377 0.18614 0.0
H1397 H 0.87943 0.85792 0.15572 0.0
C1398 C 0.425 0.53439 0.77692 0.0
C1399 C 0.4256 0.51644 0.79646 0.0
C1400 C 0.41733 0.5521 0.79164 0.0
C1401 C 0.40816 0.58987 0.83531 0.0
H1402 H 0.35987 0.58353 0.89105 0.0
C1403 C 0.37236 0.65393 0.91916 0.0
C1404 C 0.35127 0.65436 0.92135 0.0
C1405 C 0.38213 0.63833 0.90123 0.0
C1406 C 0.37324 0.58565 0.87529 0.0
H1407 H 0.41879 0.50329 0.84716 0.0
H1408 H 0.40593 0.53411 0.87291 0.0
H1409 H 0.37591 0.5541 0.8659 0.0
H1410 H 0.32388 0.63948 0.90467 0.0
H1411 H 0.34081 0.61263 0.87304 0.0
H1412 H 0.4052 0.62157 0.84449 0.0
C1413 C 0.41118 0.53448 0.84605 0.0
C1414 C 0.38263 0.56869 0.86125 0.0
C1415 C 0.41884 0.51682 0.83138 0.0
C1416 C 0.34016 0.6395 0.90375 0.0
C1417 C 0.34988 0.624 0.88581 0.0
C1418 C 0.39877 0.6069 0.84952 0.0
C1419 C 0.40998 0.55226 0.82621 0.0
C1420 C 0.40022 0.57054 0.84114 0.0
C1421 C 0.37098 0.62288 0.88514 0.0
C1422 C 0.38114 0.60499 0.86959 0.0
H1423 H 0.43024 0.5347 0.75005 0.0
H1424 H 0.41656 0.56549 0.77555 0.0
H1425 H 0.42176 0.59182 0.82011 0.0
H1426 H 0.38133 0.66512 0.9326 0.0
H1427 H 0.3984 0.6379 0.90136 0.0
C1428 C 0.74271 0.17507 0.58297 0.0
C1429 C 0.74462 0.18105 0.54774 0.0
C1430 C 0.72398 0.16977 0.59671 0.0
C1431 C 0.67527 0.14957 0.56956 0.0
H1432 H 0.65947 0.16297 0.66457 0.0
C1433 C 0.61856 0.103 0.6494 0.0
C1434 C 0.60493 0.11307 0.67132 0.0
C1435 C 0.63339 0.11364 0.63134 0.0
C1436 C 0.66352 0.15931 0.63783 0.0
H1437 H 0.72801 0.1869 0.49982 0.0
H1438 H 0.69535 0.17731 0.52375 0.0
H1439 H 0.68967 0.1781 0.63944 0.0
H1440 H 0.59579 0.14225 0.69086 0.0
H1441 H 0.6219 0.16092 0.65938 0.0
H1442 H 0.64936 0.13044 0.56821 0.0
C1443 C 0.70845 0.1766 0.54058 0.0
C1444 C 0.68092 0.16782 0.62357 0.0
C1445 C 0.72718 0.18204 0.52687 0.0
C1446 C 0.60606 0.1341 0.67405 0.0
C1447 C 0.62107 0.14476 0.65624 0.0
C1448 C 0.65796 0.14094 0.58391 0.0
C1449 C 0.70668 0.17018 0.57555 0.0
C1450 C 0.68717 0.16278 0.58949 0.0
C1451 C 0.63505 0.1346 0.63502 0.0
C1452 C 0.65209 0.14545 0.61841 0.0
H1453 H 0.7558 0.17376 0.59971 0.0
H1454 H 0.72319 0.1646 0.6236 0.0
H1455 H 0.67974 0.14526 0.54333 0.0
H1456 H 0.61807 0.08679 0.64676 0.0
H1457 H 0.64405 0.10534 0.61552 0.0
C1458 C 0.10569 0.48321 0.28804 0.0
C1459 C 0.08662 0.49046 0.29766 0.0
C1460 C 0.11301 0.46522 0.30185 0.0
C1461 C 0.09851 0.41756 0.34336 0.0
H1462 H 0.15309 0.41866 0.37903 0.0
C1463 C 0.13385 0.35242 0.42467 0.0
C1464 C 0.15467 0.34933 0.42171 0.0
C1465 C 0.1246 0.36842 0.407 0.0
C1466 C 0.13796 0.41789 0.36863 0.0
H1467 H 0.06013 0.48424 0.32886 0.0
H1468 H 0.07299 0.45257 0.35305 0.0
H1469 H 0.13866 0.44886 0.35367 0.0
H1470 H 0.18187 0.35952 0.39615 0.0
H1471 H 0.16571 0.38677 0.36421 0.0
H1472 H 0.09791 0.38645 0.35802 0.0
C1473 C 0.0822 0.46091 0.3347 0.0
C1474 C 0.12965 0.4353 0.35425 0.0
C1475 C 0.07491 0.47909 0.32109 0.0
C1476 C 0.16582 0.36169 0.39915 0.0
C1477 C 0.15656 0.37744 0.38114 0.0
C1478 C 0.10692 0.40001 0.3575 0.0
C1479 C 0.10144 0.45393 0.32552 0.0
C1480 C 0.10988 0.43534 0.34133 0.0
C1481 C 0.13596 0.38148 0.38575 0.0
C1482 C 0.12681 0.39993 0.37019 0.0
H1483 H 0.1152 0.49171 0.27039 0.0
H1484 H 0.12782 0.46015 0.29405 0.0
H1485 H 0.08327 0.41713 0.33339 0.0
H1486 H 0.12492 0.34322 0.44216 0.0
H1487 H 0.10874 0.37109 0.41139 0.0
C1488 C 0.61866 0.61016 0.32601 0.0
C1489 C 0.62297 0.59825 0.29653 0.0
C1490 C 0.63408 0.61662 0.34826 0.0
C1491 C 0.68949 0.62331 0.35258 0.0
H1492 H 0.68011 0.62472 0.4529 0.0
C1493 C 0.75367 0.63753 0.45074 0.0
C1494 C 0.74996 0.65209 0.47664 0.0
C1495 C 0.73797 0.63 0.43025 0.0
C1496 C 0.6829 0.62452 0.42493 0.0
H1497 H 0.64689 0.58383 0.26728 0.0
H1498 H 0.6737 0.59474 0.30637 0.0
H1499 H 0.65324 0.61387 0.41359 0.0
H1500 H 0.72674 0.66951 0.50236 0.0
H1501 H 0.69923 0.65626 0.46659 0.0
H1502 H 0.71921 0.63375 0.36402 0.0
C1503 C 0.65846 0.59944 0.31201 0.0
C1504 C 0.66749 0.61838 0.40235 0.0
C1505 C 0.64306 0.5931 0.28963 0.0
C1506 C 0.73007 0.65837 0.4825 0.0
C1507 C 0.71432 0.6507 0.46216 0.0
C1508 C 0.70492 0.62929 0.37516 0.0
C1509 C 0.65417 0.61122 0.34172 0.0
C1510 C 0.67057 0.61773 0.36585 0.0
C1511 C 0.71817 0.63676 0.43531 0.0
C1512 C 0.7018 0.62998 0.41158 0.0
H1513 H 0.60335 0.61448 0.33202 0.0
H1514 H 0.63023 0.62597 0.37049 0.0
H1515 H 0.69232 0.62337 0.32463 0.0
H1516 H 0.76885 0.63256 0.44524 0.0
H1517 H 0.74137 0.61909 0.41003 0.0
C1518 C 0.11771 0.98731 0.7393 0.0
C1519 C 0.09672 0.98992 0.73986 0.0
C1520 C 0.12616 0.96985 0.72512 0.0
C1521 C 0.11546 0.93247 0.65833 0.0
H1522 H 0.15909 0.90196 0.69963 0.0
C1523 C 0.1474 0.86192 0.59017 0.0
C1524 C 0.16815 0.8584 0.5929 0.0
C1525 C 0.13826 0.87699 0.61015 0.0
C1526 C 0.1471 0.91047 0.68745 0.0
H1527 H 0.06819 0.9754 0.72863 0.0
H1528 H 0.08299 0.94526 0.70315 0.0
H1529 H 0.14425 0.92987 0.73212 0.0
H1530 H 0.19567 0.86813 0.61828 0.0
H1531 H 0.17998 0.89485 0.65194 0.0
H1532 H 0.11866 0.91381 0.61316 0.0
C1533 C 0.09286 0.95685 0.71326 0.0
C1534 C 0.13855 0.92638 0.70622 0.0
C1535 C 0.08441 0.97416 0.72777 0.0
C1536 C 0.1796 0.87036 0.61579 0.0
C1537 C 0.17054 0.88561 0.63534 0.0
C1538 C 0.12418 0.91679 0.63935 0.0
C1539 C 0.1138 0.95475 0.711 0.0
C1540 C 0.12264 0.93751 0.69183 0.0
C1541 C 0.14973 0.88912 0.63292 0.0
C1542 C 0.14014 0.90556 0.65359 0.0
H1543 H 0.12764 0.99918 0.74813 0.0
H1544 H 0.14238 0.96861 0.7236 0.0
H1545 H 0.1034 0.94101 0.64639 0.0
H1546 H 0.13815 0.85284 0.57296 0.0
H1547 H 0.12216 0.87897 0.60797 0.0
C1548 C 0.76902 0.36822 0.99115 0.0
C1549 C 0.75993 0.35077 0.97767 0.0
C1550 C 0.78623 0.37626 0.97527 0.0
C1551 C 0.81404 0.37643 0.89126 0.0
H1552 H 0.85834 0.3961 0.94774 0.0
C1553 C 0.89006 0.39972 0.8299 0.0
C1554 C 0.89928 0.41712 0.8433 0.0
C1555 C 0.87332 0.39135 0.84667 0.0
C1556 C 0.84602 0.39087 0.93156 0.0
H1557 H 0.76162 0.32837 0.93643 0.0
H1558 H 0.79168 0.34212 0.90931 0.0
H1559 H 0.82852 0.38246 0.97636 0.0
H1560 H 0.89813 0.43928 0.885 0.0
H1561 H 0.86891 0.42486 0.91386 0.0
H1562 H 0.83145 0.3849 0.84647 0.0
C1563 C 0.78551 0.34967 0.93202 0.0
C1564 C 0.82892 0.38306 0.948 0.0
C1565 C 0.7684 0.34163 0.94791 0.0
C1566 C 0.89146 0.42584 0.87397 0.0
C1567 C 0.87475 0.41749 0.89069 0.0
C1568 C 0.83112 0.38426 0.87483 0.0
C1569 C 0.79462 0.36711 0.94541 0.0
C1570 C 0.81273 0.37571 0.92804 0.0
C1571 C 0.86541 0.40018 0.87722 0.0
C1572 C 0.84734 0.39157 0.89476 0.0
H1573 H 0.76292 0.37559 0.0141 0.0
H1574 H 0.79277 0.38982 0.98607 0.0
H1575 H 0.80172 0.3712 0.87508 0.0
H1576 H 0.89572 0.39259 0.80637 0.0
H1577 H 0.86666 0.37786 0.83582 0.0
C1578 C 0.39201 0.01681 0.22856 0.0
C1579 C 0.41299 0.01409 0.2295 0.0
C1580 C 0.38366 0.0344 0.21458 0.0
C1581 C 0.39442 0.07333 0.14998 0.0
H1582 H 0.35141 0.10318 0.19439 0.0
C1583 C 0.36316 0.14642 0.08849 0.0
C1584 C 0.34252 0.15032 0.09209 0.0
C1585 C 0.37215 0.13054 0.10685 0.0
C1586 C 0.36321 0.09488 0.18129 0.0
H1587 H 0.44159 0.02855 0.21849 0.0
H1588 H 0.42697 0.05884 0.19322 0.0
H1589 H 0.36598 0.07417 0.22418 0.0
H1590 H 0.31506 0.14042 0.11737 0.0
H1591 H 0.33045 0.11241 0.14815 0.0
H1592 H 0.39131 0.09338 0.10656 0.0
C1593 C 0.41703 0.04723 0.20299 0.0
C1594 C 0.37161 0.07831 0.19854 0.0
C1595 C 0.42538 0.0298 0.21737 0.0
C1596 C 0.33105 0.13794 0.11424 0.0
C1597 C 0.33995 0.12192 0.13216 0.0
C1598 C 0.38583 0.08969 0.13249 0.0
C1599 C 0.3961 0.04957 0.2009 0.0
C1600 C 0.38732 0.06738 0.18307 0.0
C1601 C 0.36065 0.11799 0.12885 0.0
C1602 C 0.37008 0.10073 0.14786 0.0
H1603 H 0.38197 0.00501 0.23728 0.0
H1604 H 0.36746 0.03578 0.21315 0.0
H1605 H 0.40633 0.065 0.13721 0.0
H1606 H 0.37243 0.15576 0.0718 0.0
H1607 H 0.38818 0.12829 0.10401 0.0
C1608 C 0.27334 0.35037 0.54124 0.0
C1609 C 0.26524 0.33159 0.55043 0.0
C1610 C 0.29143 0.35696 0.55577 0.0
C1611 C 0.32575 0.34859 0.63106 0.0
H1612 H 0.36133 0.38211 0.57565 0.0
C1613 C 0.40117 0.3806 0.68437 0.0
C1614 C 0.40315 0.40149 0.68008 0.0
C1615 C 0.3859 0.37009 0.66689 0.0
C1616 C 0.35154 0.37275 0.59142 0.0
H1617 H 0.2699 0.30489 0.58192 0.0
H1618 H 0.30184 0.31621 0.60691 0.0
H1619 H 0.33188 0.36698 0.54827 0.0
H1620 H 0.39119 0.42765 0.65336 0.0
H1621 H 0.36488 0.40928 0.62235 0.0
H1622 H 0.34564 0.35442 0.67419 0.0
C1623 C 0.29399 0.32602 0.58886 0.0
C1624 C 0.33458 0.36416 0.57583 0.0
C1625 C 0.27572 0.31949 0.5745 0.0
C1626 C 0.39002 0.41156 0.65718 0.0
C1627 C 0.37502 0.40103 0.63931 0.0
C1628 C 0.34288 0.35702 0.64656 0.0
C1629 C 0.30207 0.34489 0.57972 0.0
C1630 C 0.32118 0.35235 0.59561 0.0
C1631 C 0.37261 0.38024 0.64434 0.0
C1632 C 0.35571 0.36953 0.62707 0.0
H1633 H 0.26542 0.36023 0.52334 0.0
H1634 H 0.29683 0.37177 0.54874 0.0
H1635 H 0.31572 0.33978 0.64727 0.0
H1636 H 0.41102 0.37249 0.70202 0.0
H1637 H 0.38443 0.35406 0.67111 0.0
C1638 C 0.87901 0.15218 0.42762 0.0
C1639 C 0.85796 0.15371 0.42617 0.0
C1640 C 0.88896 0.13668 0.40988 0.0
C1641 C 0.90199 0.09352 0.39252 0.0
H1642 H 0.88812 0.07819 0.29742 0.0
C1643 C 0.91884 0.01515 0.33401 0.0
C1644 C 0.92587 0.01418 0.29925 0.0
C1645 C 0.91277 0.03345 0.34859 0.0
C1646 C 0.8923 0.0824 0.32388 0.0
H1647 H 0.83089 0.14079 0.40393 0.0
H1648 H 0.84828 0.114 0.37243 0.0
H1649 H 0.87327 0.1084 0.32315 0.0
H1650 H 0.93268 0.03206 0.25314 0.0
H1651 H 0.92162 0.06389 0.27844 0.0
H1652 H 0.92063 0.06724 0.39357 0.0
C1653 C 0.85709 0.12469 0.38738 0.0
C1654 C 0.88369 0.0996 0.33867 0.0
C1655 C 0.84713 0.13998 0.40552 0.0
C1656 C 0.92702 0.03211 0.27974 0.0
C1657 C 0.92074 0.05039 0.29424 0.0
C1658 C 0.9104 0.07617 0.37789 0.0
C1659 C 0.87807 0.12263 0.38991 0.0
C1660 C 0.88831 0.10524 0.37325 0.0
C1661 C 0.91337 0.05122 0.32871 0.0
C1662 C 0.90551 0.07033 0.34351 0.0
H1663 H 0.88773 0.16249 0.4435 0.0
H1664 H 0.90515 0.13552 0.4121 0.0
H1665 H 0.9057 0.0974 0.41934 0.0
H1666 H 0.91734 1.00167 0.34969 0.0
H1667 H 0.90691 0.03355 0.37507 0.0
C1668 C 0.10302 0.62546 0.18024 0.0
C1669 C 0.10102 0.60453 0.17669 0.0
C1670 C 0.11823 0.63579 0.1623 0.0
C1671 C 0.15356 0.63216 0.08795 0.0
H1672 H 0.18867 0.66552 0.14456 0.0
C1673 C 0.23269 0.65373 0.04082 0.0
C1674 C 0.24072 0.67259 0.0497 0.0
C1675 C 0.2144 0.6473 0.05483 0.0
C1676 C 0.17886 0.65659 0.12811 0.0
H1677 H 0.11274 0.57814 0.15045 0.0
H1678 H 0.13892 0.59618 0.11857 0.0
H1679 H 0.1582 0.65142 0.1703 0.0
H1680 H 0.23574 0.69956 0.08026 0.0
H1681 H 0.2035 0.68852 0.10436 0.0
H1682 H 0.17404 0.63725 0.04574 0.0
C1683 C 0.12885 0.60463 0.13532 0.0
C1684 C 0.16139 0.64848 0.14293 0.0
C1685 C 0.11389 0.59428 0.15365 0.0
C1686 C 0.23 0.68489 0.07308 0.0
C1687 C 0.21154 0.67852 0.08693 0.0
C1688 C 0.17088 0.64043 0.07302 0.0
C1689 C 0.13149 0.62542 0.14002 0.0
C1690 C 0.14877 0.63584 0.12321 0.0
C1691 C 0.20347 0.65961 0.07796 0.0
C1692 C 0.18404 0.65239 0.09309 0.0
H1693 H 0.09342 0.63372 0.19807 0.0
H1694 H 0.11983 0.65183 0.16626 0.0
H1695 H 0.14398 0.6227 0.07196 0.0
H1696 H 0.24077 0.64369 0.02347 0.0
H1697 H 0.20904 0.63244 0.04798 0.0
C1698 C 0.57056 0.99231 0.81998 0.0
C1699 C 0.57458 0.99526 0.7842 0.0
C1700 C 0.57613 0.97436 0.83658 0.0
C1701 C 0.61308 0.93334 0.82585 0.0
H1702 H 0.58589 0.91039 0.90631 0.0
C1703 C 0.65408 0.88051 0.92055 0.0
C1704 C 0.64379 0.86383 0.93425 0.0
C1705 C 0.6439 0.89516 0.9013 0.0
C1706 C 0.59356 0.91646 0.88363 0.0
H1707 H 0.58607 0.98118 0.73713 0.0
H1708 H 0.59522 0.94969 0.76568 0.0
H1709 H 0.56994 0.9376 0.87339 0.0
H1710 H 0.61464 0.84952 0.9387 0.0
H1711 H 0.59676 0.87514 0.90456 0.0
H1712 H 0.63657 0.91219 0.83571 0.0
C1713 C 0.58841 0.96143 0.78133 0.0
C1714 C 0.58451 0.93222 0.86496 0.0
C1715 C 0.58306 0.97942 0.76487 0.0
C1716 C 0.62298 0.86221 0.92846 0.0
C1717 C 0.61274 0.87693 0.90905 0.0
C1718 C 0.62206 0.91762 0.84437 0.0
C1719 C 0.58568 0.9589 0.81766 0.0
C1720 C 0.59429 0.94105 0.83607 0.0
C1721 C 0.62313 0.89353 0.89503 0.0
C1722 C 0.61261 0.90919 0.87388 0.0
H1723 H 0.56419 0.00432 0.83558 0.0
H1724 H 0.57391 0.97307 0.8646 0.0
H1725 H 0.62126 0.93986 0.80411 0.0
H1726 H 0.67009 0.88233 0.92472 0.0
H1727 H 0.65234 0.90793 0.8916 0.0
loop_
_geom_bond_atom_site_label_1
_geom_bond_atom_site_label_2
_geom_bond_distance
_geom_bond_site_symmetry_2
_ccdc_geom_bond_type
Co0 N4 2.148 . S
Co0 N10 2.128 1_554 S
Co0 N20 2.194 1_554 S
Co0 O25 2.351 1_554 S
Co0 O26 2.155 . S
Co0 O27 2.096 . S
C1 N4 1.301 . S
C1 N5 1.328 . S
C1 H6 0.930 . S
C2 C3 1.333 . S
C2 N4 1.317 . S
C2 H7 0.930 . S
C3 C2 1.333 . S
C3 N5 1.350 . S
C3 H29 0.931 . S
N4 Co0 2.148 . S
N4 C1 1.301 . S
N4 C2 1.317 . S
N5 C1 1.328 . S
N5 C3 1.350 . S
H6 C1 0.930 . S
H7 C2 0.930 . S
C8 O9 1.224 . S
C8 O27 1.247 . S
O9 C8 1.224 . S
N10 Co0 2.128 1_556 S
N10 C11 1.355 . S
N10 C13 1.311 . S
C11 N10 1.355 . S
C11 C12 1.363 . S
C11 H23 0.929 . S
C12 C11 1.363 . S
C12 N14 1.375 . S
C12 H30 0.931 . S
C13 N10 1.311 . S
C13 N14 1.347 . S
C13 H24 0.929 . S
N14 C12 1.375 . S
N14 C13 1.347 . S
C15 C18 1.365 . S
C15 N20 1.328 . S
C15 H21 0.929 . S
C16 C17 1.362 . S
C16 C19 1.378 . S
C16 H31 0.929 . S
C17 C16 1.362 . S
C17 C18 1.366 . S
C18 C15 1.365 . S
C18 C17 1.366 . S
C18 H32 0.930 . S
C19 C16 1.378 . S
C19 N20 1.315 . S
C19 H22 0.930 1_556 S
N20 Co0 2.194 1_556 S
N20 C15 1.328 . S
N20 C19 1.315 . S
H21 C15 0.929 . S
H22 C19 0.930 1_554 S
H23 C11 0.929 . S
H24 C13 0.929 . S
O25 Co0 2.351 1_556 S
O25 C28 1.244 . S
O26 Co0 2.155 . S
O26 C28 1.240 1_554 S
O27 Co0 2.096 . S
O27 C8 1.247 . S
C28 O25 1.244 . S
C28 O26 1.240 1_556 S
H29 C3 0.931 . S
H30 C12 0.931 . S
H31 C16 0.929 . S
H32 C18 0.930 . S
Co33 N37 2.148 . S
Co33 N43 2.128 . S
Co33 N53 2.194 . S
Co33 O58 2.351 . S
Co33 O59 2.155 . S
Co33 O60 2.096 . S
C34 N37 1.301 . S
C34 N38 1.328 . S
C34 H39 0.930 . S
C35 C36 1.333 . S
C35 N37 1.317 . S
C35 H40 0.930 . S
C36 C35 1.333 . S
C36 N38 1.350 . S
C36 H62 0.931 . S
N37 Co33 2.148 . S
N37 C34 1.301 . S
N37 C35 1.317 . S
N38 C34 1.328 . S
N38 C36 1.350 . S
H39 C34 0.930 . S
H40 C35 0.930 . S
C41 O42 1.224 . S
C41 O60 1.247 . S
O42 C41 1.224 . S
N43 Co33 2.128 . S
N43 C44 1.355 . S
N43 C46 1.311 . S
C44 N43 1.355 . S
C44 C45 1.363 . S
C44 H56 0.929 . S
C45 C44 1.363 . S
C45 N47 1.375 . S
C45 H63 0.931 . S
C46 N43 1.311 . S
C46 N47 1.347 . S
C46 H57 0.929 . S
N47 C45 1.375 . S
N47 C46 1.347 . S
C48 C51 1.365 . S
C48 N53 1.328 . S
C48 H54 0.929 . S
C49 C50 1.362 . S
C49 C52 1.378 . S
C49 H64 0.929 . S
C50 C49 1.362 . S
C50 C51 1.366 . S
C51 C48 1.365 . S
C51 C50 1.366 . S
C51 H65 0.930 . S
C52 C49 1.378 . S
C52 N53 1.315 . S
C52 H55 0.930 . S
N53 Co33 2.194 . S
N53 C48 1.328 . S
N53 C52 1.315 . S
H54 C48 0.929 . S
H55 C52 0.930 . S
H56 C44 0.929 . S
H57 C46 0.929 . S
O58 Co33 2.351 . S
O58 C61 1.244 . S
O59 Co33 2.155 . S
O59 C61 1.240 . S
O60 Co33 2.096 . S
O60 C41 1.247 . S
C61 O58 1.244 . S
C61 O59 1.240 . S
H62 C36 0.931 . S
H63 C45 0.931 . S
H64 C49 0.929 . S
H65 C51 0.930 . S
Co66 N70 2.148 . S
Co66 N76 2.128 . S
Co66 N86 2.194 . S
Co66 O91 2.351 . S
Co66 O92 2.155 . S
Co66 O93 2.096 . S
C67 N70 1.301 . S
C67 N71 1.328 . S
C67 H72 0.930 . S
C68 C69 1.333 . S
C68 N70 1.317 . S
C68 H73 0.930 . S
C69 C68 1.333 . S
C69 N71 1.350 . S
C69 H95 0.931 . S
N70 Co66 2.148 . S
N70 C67 1.301 . S
N70 C68 1.317 . S
N71 C67 1.328 . S
N71 C69 1.350 . S
H72 C67 0.930 . S
H73 C68 0.930 . S
C74 O75 1.224 . S
C74 O93 1.247 . S
O75 C74 1.224 . S
N76 Co66 2.128 . S
N76 C77 1.355 . S
N76 C79 1.311 . S
C77 N76 1.355 . S
C77 C78 1.363 . S
C77 H89 0.929 . S
C78 C77 1.363 . S
C78 N80 1.375 . S
C78 H96 0.931 . S
C79 N76 1.311 . S
C79 N80 1.347 . S
C79 H90 0.929 . S
N80 C78 1.375 . S
N80 C79 1.347 . S
C81 C84 1.365 . S
C81 N86 1.328 . S
C81 H87 0.929 . S
C82 C83 1.362 . S
C82 C85 1.378 . S
C82 H97 0.929 . S
C83 C82 1.362 . S
C83 C84 1.366 . S
C84 C81 1.365 . S
C84 C83 1.366 . S
C84 H98 0.930 . S
C85 C82 1.378 . S
C85 N86 1.315 . S
C85 H88 0.930 . S
N86 Co66 2.194 . S
N86 C81 1.328 . S
N86 C85 1.315 . S
H87 C81 0.929 . S
H88 C85 0.930 . S
H89 C77 0.929 . S
H90 C79 0.929 . S
O91 Co66 2.351 . S
O91 C94 1.244 . S
O92 Co66 2.155 . S
O92 C94 1.240 . S
O93 Co66 2.096 . S
O93 C74 1.247 . S
C94 O91 1.244 . S
C94 O92 1.240 . S
H95 C69 0.931 . S
H96 C78 0.931 . S
H97 C82 0.929 . S
H98 C84 0.930 . S
Co99 N103 2.148 . S
Co99 N109 2.128 . S
Co99 N119 2.194 . S
Co99 O124 2.351 . S
Co99 O125 2.155 . S
Co99 O126 2.096 . S
C100 N103 1.301 . S
C100 N104 1.328 . S
C100 H105 0.930 . S
C101 C102 1.333 . S
C101 N103 1.317 . S
C101 H106 0.930 . S
C102 C101 1.333 . S
C102 N104 1.350 . S
C102 H128 0.931 . S
N103 Co99 2.148 . S
N103 C100 1.301 . S
N103 C101 1.317 . S
N104 C100 1.328 . S
N104 C102 1.350 . S
H105 C100 0.930 . S
H106 C101 0.930 . S
C107 O108 1.224 . S
C107 O126 1.247 . S
O108 C107 1.224 . S
N109 Co99 2.128 . S
N109 C110 1.355 . S
N109 C112 1.311 . S
C110 N109 1.355 . S
C110 C111 1.363 . S
C110 H122 0.929 . S
C111 C110 1.363 . S
C111 N113 1.375 . S
C111 H129 0.931 . S
C112 N109 1.311 . S
C112 N113 1.347 . S
C112 H123 0.929 . S
N113 C111 1.375 . S
N113 C112 1.347 . S
C114 C117 1.365 . S
C114 N119 1.328 . S
C114 H120 0.929 . S
C115 C116 1.362 . S
C115 C118 1.378 . S
C115 H130 0.929 . S
C116 C115 1.362 . S
C116 C117 1.366 . S
C117 C114 1.365 . S
C117 C116 1.366 . S
C117 H131 0.930 . S
C118 C115 1.378 . S
C118 N119 1.315 . S
C118 H121 0.930 . S
N119 Co99 2.194 . S
N119 C114 1.328 . S
N119 C118 1.315 . S
H120 C114 0.929 . S
H121 C118 0.930 . S
H122 C110 0.929 . S
H123 C112 0.929 . S
O124 Co99 2.351 . S
O124 C127 1.244 . S
O125 Co99 2.155 . S
O125 C127 1.240 . S
O126 Co99 2.096 . S
O126 C107 1.247 . S
C127 O124 1.244 . S
C127 O125 1.240 . S
H128 C102 0.931 . S
H129 C111 0.931 . S
H130 C115 0.929 . S
H131 C117 0.930 . S
Co132 N136 2.148 . S
Co132 N142 2.128 1_556 S
Co132 N152 2.194 1_556 S
Co132 O157 2.351 . S
Co132 O158 2.155 . S
Co132 O159 2.096 . S
C133 N136 1.301 . S
C133 N137 1.328 . S
C133 H138 0.930 . S
C134 C135 1.333 . S
C134 N136 1.317 . S
C134 H139 0.930 . S
C135 C134 1.333 . S
C135 N137 1.350 . S
C135 H161 0.931 . S
N136 Co132 2.148 . S
N136 C133 1.301 . S
N136 C134 1.317 . S
N137 C133 1.328 . S
N137 C135 1.350 . S
H138 C133 0.930 . S
H139 C134 0.930 . S
C140 O141 1.224 . S
C140 O159 1.247 1_554 S
O141 C140 1.224 . S
N142 Co132 2.128 1_554 S
N142 C143 1.355 . S
N142 C145 1.311 . S
C143 N142 1.355 . S
C143 C144 1.363 . S
C143 H155 0.929 . S
C144 C143 1.363 . S
C144 N146 1.375 . S
C144 H162 0.931 . S
C145 N142 1.311 . S
C145 N146 1.347 . S
C145 H156 0.929 . S
N146 C144 1.375 . S
N146 C145 1.347 . S
C147 C150 1.365 . S
C147 N152 1.328 . S
C147 H153 0.929 1_554 S
C148 C149 1.362 . S
C148 C151 1.378 . S
C148 H163 0.929 . S
C149 C148 1.362 . S
C149 C150 1.366 . S
C150 C147 1.365 . S
C150 C149 1.366 . S
C150 H164 0.930 . S
C151 C148 1.378 . S
C151 N152 1.315 . S
C151 H154 0.930 . S
N152 Co132 2.194 1_554 S
N152 C147 1.328 . S
N152 C151 1.315 . S
H153 C147 0.929 1_556 S
H154 C151 0.930 . S
H155 C143 0.929 . S
H156 C145 0.929 . S
O157 Co132 2.351 . S
O157 C160 1.244 . S
O158 Co132 2.155 . S
O158 C160 1.240 . S
O159 Co132 2.096 . S
O159 C140 1.247 1_556 S
C160 O157 1.244 . S
C160 O158 1.240 . S
H161 C135 0.931 . S
H162 C144 0.931 . S
H163 C148 0.929 . S
H164 C150 0.930 . S
Co165 N169 2.148 . S
Co165 N175 2.128 . S
Co165 N185 2.194 . S
Co165 O190 2.351 . S
Co165 O191 2.155 . S
Co165 O192 2.096 . S
C166 N169 1.301 . S
C166 N170 1.328 . S
C166 H171 0.930 . S
C167 C168 1.333 . S
C167 N169 1.317 . S
C167 H172 0.930 . S
C168 C167 1.333 . S
C168 N170 1.350 . S
C168 H194 0.931 . S
N169 Co165 2.148 . S
N169 C166 1.301 . S
N169 C167 1.317 . S
N170 C166 1.328 . S
N170 C168 1.350 . S
H171 C166 0.930 . S
H172 C167 0.930 . S
C173 O174 1.224 . S
C173 O192 1.247 . S
O174 C173 1.224 . S
N175 Co165 2.128 . S
N175 C176 1.355 . S
N175 C178 1.311 . S
C176 N175 1.355 . S
C176 C177 1.363 . S
C176 H188 0.929 . S
C177 C176 1.363 . S
C177 N179 1.375 . S
C177 H195 0.931 . S
C178 N175 1.311 . S
C178 N179 1.347 . S
C178 H189 0.929 . S
N179 C177 1.375 . S
N179 C178 1.347 . S
C180 C183 1.365 . S
C180 N185 1.328 . S
C180 H186 0.929 . S
C181 C182 1.362 . S
C181 C184 1.378 . S
C181 H196 0.929 . S
C182 C181 1.362 . S
C182 C183 1.366 . S
C183 C180 1.365 . S
C183 C182 1.366 . S
C183 H197 0.930 . S
C184 C181 1.378 . S
C184 N185 1.315 . S
C184 H187 0.930 . S
N185 Co165 2.194 . S
N185 C180 1.328 . S
N185 C184 1.315 . S
H186 C180 0.929 . S
H187 C184 0.930 . S
H188 C176 0.929 . S
H189 C178 0.929 . S
O190 Co165 2.351 . S
O190 C193 1.244 . S
O191 Co165 2.155 . S
O191 C193 1.240 . S
O192 Co165 2.096 . S
O192 C173 1.247 . S
C193 O190 1.244 . S
C193 O191 1.240 . S
H194 C168 0.931 . S
H195 C177 0.931 . S
H196 C181 0.929 . S
H197 C183 0.930 . S
Co198 N202 2.148 . S
Co198 N208 2.128 . S
Co198 N218 2.194 . S
Co198 O223 2.351 . S
Co198 O224 2.155 . S
Co198 O225 2.096 . S
C199 N202 1.301 . S
C199 N203 1.328 . S
C199 H204 0.930 . S
C200 C201 1.333 . S
C200 N202 1.317 . S
C200 H205 0.930 . S
C201 C200 1.333 . S
C201 N203 1.350 . S
C201 H227 0.931 . S
N202 Co198 2.148 . S
N202 C199 1.301 . S
N202 C200 1.317 . S
N203 C199 1.328 . S
N203 C201 1.350 . S
H204 C199 0.930 . S
H205 C200 0.930 . S
C206 O207 1.224 . S
C206 O225 1.247 . S
O207 C206 1.224 . S
N208 Co198 2.128 . S
N208 C209 1.355 . S
N208 C211 1.311 . S
C209 N208 1.355 . S
C209 C210 1.363 . S
C209 H221 0.929 . S
C210 C209 1.363 . S
C210 N212 1.375 . S
C210 H228 0.931 . S
C211 N208 1.311 . S
C211 N212 1.347 . S
C211 H222 0.929 . S
N212 C210 1.375 . S
N212 C211 1.347 . S
C213 C216 1.365 . S
C213 N218 1.328 . S
C213 H219 0.929 . S
C214 C215 1.362 . S
C214 C217 1.378 . S
C214 H229 0.929 . S
C215 C214 1.362 . S
C215 C216 1.366 . S
C216 C213 1.365 . S
C216 C215 1.366 . S
C216 H230 0.930 . S
C217 C214 1.378 . S
C217 N218 1.315 . S
C217 H220 0.930 . S
N218 Co198 2.194 . S
N218 C213 1.328 . S
N218 C217 1.315 . S
H219 C213 0.929 . S
H220 C217 0.930 . S
H221 C209 0.929 . S
H222 C211 0.929 . S
O223 Co198 2.351 . S
O223 C226 1.244 . S
O224 Co198 2.155 . S
O224 C226 1.240 . S
O225 Co198 2.096 . S
O225 C206 1.247 . S
C226 O223 1.244 . S
C226 O224 1.240 . S
H227 C201 0.931 . S
H228 C210 0.931 . S
H229 C214 0.929 . S
H230 C216 0.930 . S
Co231 N235 2.148 . S
Co231 N241 2.128 . S
Co231 N251 2.194 . S
Co231 O256 2.351 . S
Co231 O257 2.155 . S
Co231 O258 2.096 . S
C232 N235 1.301 . S
C232 N236 1.328 . S
C232 H237 0.930 . S
C233 C234 1.333 . S
C233 N235 1.317 . S
C233 H238 0.930 . S
C234 C233 1.333 . S
C234 N236 1.350 . S
C234 H260 0.931 . S
N235 Co231 2.148 . S
N235 C232 1.301 . S
N235 C233 1.317 . S
N236 C232 1.328 . S
N236 C234 1.350 . S
H237 C232 0.930 . S
H238 C233 0.930 . S
C239 O240 1.224 . S
C239 O258 1.247 . S
O240 C239 1.224 . S
N241 Co231 2.128 . S
N241 C242 1.355 . S
N241 C244 1.311 . S
C242 N241 1.355 . S
C242 C243 1.363 . S
C242 H254 0.929 . S
C243 C242 1.363 . S
C243 N245 1.375 . S
C243 H261 0.931 . S
C244 N241 1.311 . S
C244 N245 1.347 . S
C244 H255 0.929 . S
N245 C243 1.375 . S
N245 C244 1.347 . S
C246 C249 1.365 . S
C246 N251 1.328 . S
C246 H252 0.929 . S
C247 C248 1.362 . S
C247 C250 1.378 . S
C247 H262 0.929 . S
C248 C247 1.362 . S
C248 C249 1.366 . S
C249 C246 1.365 . S
C249 C248 1.366 . S
C249 H263 0.930 . S
C250 C247 1.378 . S
C250 N251 1.315 . S
C250 H253 0.930 . S
N251 Co231 2.194 . S
N251 C246 1.328 . S
N251 C250 1.315 . S
H252 C246 0.929 . S
H253 C250 0.930 . S
H254 C242 0.929 . S
H255 C244 0.929 . S
O256 Co231 2.351 . S
O256 C259 1.244 . S
O257 Co231 2.155 . S
O257 C259 1.240 . S
O258 Co231 2.096 . S
O258 C239 1.247 . S
C259 O256 1.244 . S
C259 O257 1.240 . S
H260 C234 0.931 . S
H261 C243 0.931 . S
H262 C247 0.929 . S
H263 C249 0.930 . S
Co264 N268 2.148 . S
Co264 N274 2.128 . S
Co264 N284 2.194 . S
Co264 O289 2.351 . S
Co264 O290 2.155 . S
Co264 O291 2.096 . S
C265 N268 1.301 . S
C265 N269 1.328 . S
C265 H270 0.930 . S
C266 C267 1.333 . S
C266 N268 1.317 . S
C266 H271 0.930 . S
C267 C266 1.333 . S
C267 N269 1.350 . S
C267 H293 0.931 . S
N268 Co264 2.148 . S
N268 C265 1.301 . S
N268 C266 1.317 . S
N269 C265 1.328 . S
N269 C267 1.350 . S
H270 C265 0.930 . S
H271 C266 0.930 . S
C272 O273 1.224 . S
C272 O291 1.247 . S
O273 C272 1.224 . S
N274 Co264 2.128 . S
N274 C275 1.355 . S
N274 C277 1.311 . S
C275 N274 1.355 . S
C275 C276 1.363 . S
C275 H287 0.929 . S
C276 C275 1.363 . S
C276 N278 1.375 . S
C276 H294 0.931 . S
C277 N274 1.311 . S
C277 N278 1.347 . S
C277 H288 0.929 . S
N278 C276 1.375 . S
N278 C277 1.347 . S
C279 C282 1.365 . S
C279 N284 1.328 . S
C279 H285 0.929 . S
C280 C281 1.362 . S
C280 C283 1.378 . S
C280 H295 0.929 . S
C281 C280 1.362 . S
C281 C282 1.366 . S
C282 C279 1.365 . S
C282 C281 1.366 . S
C282 H296 0.930 . S
C283 C280 1.378 . S
C283 N284 1.315 . S
C283 H286 0.930 . S
N284 Co264 2.194 . S
N284 C279 1.328 . S
N284 C283 1.315 . S
H285 C279 0.929 . S
H286 C283 0.930 . S
H287 C275 0.929 . S
H288 C277 0.929 . S
O289 Co264 2.351 . S
O289 C292 1.244 . S
O290 Co264 2.155 . S
O290 C292 1.240 . S
O291 Co264 2.096 . S
O291 C272 1.247 . S
C292 O289 1.244 . S
C292 O290 1.240 . S
H293 C267 0.931 . S
H294 C276 0.931 . S
H295 C280 0.929 . S
H296 C282 0.930 . S
Co297 N301 2.148 . S
Co297 N307 2.128 . S
Co297 N317 2.194 . S
Co297 O322 2.351 . S
Co297 O323 2.155 . S
Co297 O324 2.096 . S
C298 N301 1.301 . S
C298 N302 1.328 . S
C298 H303 0.930 . S
C299 C300 1.333 . S
C299 N301 1.317 . S
C299 H304 0.930 . S
C300 C299 1.333 . S
C300 N302 1.350 . S
C300 H326 0.931 . S
N301 Co297 2.148 . S
N301 C298 1.301 . S
N301 C299 1.317 . S
N302 C298 1.328 . S
N302 C300 1.350 . S
H303 C298 0.930 . S
H304 C299 0.930 . S
C305 O306 1.224 . S
C305 O324 1.247 . S
O306 C305 1.224 . S
N307 Co297 2.128 . S
N307 C308 1.355 . S
N307 C310 1.311 . S
C308 N307 1.355 . S
C308 C309 1.363 . S
C308 H320 0.929 . S
C309 C308 1.363 . S
C309 N311 1.375 . S
C309 H327 0.931 . S
C310 N307 1.311 . S
C310 N311 1.347 . S
C310 H321 0.929 . S
N311 C309 1.375 . S
N311 C310 1.347 . S
C312 C315 1.365 . S
C312 N317 1.328 . S
C312 H318 0.929 . S
C313 C314 1.362 . S
C313 C316 1.378 . S
C313 H328 0.929 . S
C314 C313 1.362 . S
C314 C315 1.366 . S
C315 C312 1.365 . S
C315 C314 1.366 . S
C315 H329 0.930 . S
C316 C313 1.378 . S
C316 N317 1.315 . S
C316 H319 0.930 . S
N317 Co297 2.194 . S
N317 C312 1.328 . S
N317 C316 1.315 . S
H318 C312 0.929 . S
H319 C316 0.930 . S
H320 C308 0.929 . S
H321 C310 0.929 . S
O322 Co297 2.351 . S
O322 C325 1.244 . S
O323 Co297 2.155 . S
O323 C325 1.240 . S
O324 Co297 2.096 . S
O324 C305 1.247 . S
C325 O322 1.244 . S
C325 O323 1.240 . S
H326 C300 0.931 . S
H327 C309 0.931 . S
H328 C313 0.929 . S
H329 C315 0.930 . S
Co330 N334 2.148 . S
Co330 N340 2.128 1_554 S
Co330 N350 2.194 1_554 S
Co330 O355 2.351 1_554 S
Co330 O356 2.155 . S
Co330 O357 2.096 . S
C331 N334 1.301 . S
C331 N335 1.328 . S
C331 H336 0.930 . S
C332 C333 1.333 . S
C332 N334 1.317 . S
C332 H337 0.930 . S
C333 C332 1.333 . S
C333 N335 1.350 . S
C333 H359 0.931 . S
N334 Co330 2.148 . S
N334 C331 1.301 . S
N334 C332 1.317 . S
N335 C331 1.328 . S
N335 C333 1.350 . S
H336 C331 0.930 . S
H337 C332 0.930 . S
C338 O339 1.224 . S
C338 O357 1.247 . S
O339 C338 1.224 . S
N340 Co330 2.128 1_556 S
N340 C341 1.355 . S
N340 C343 1.311 . S
C341 N340 1.355 . S
C341 C342 1.363 . S
C341 H353 0.929 . S
C342 C341 1.363 . S
C342 N344 1.375 . S
C342 H360 0.931 . S
C343 N340 1.311 . S
C343 N344 1.347 . S
C343 H354 0.929 . S
N344 C342 1.375 . S
N344 C343 1.347 . S
C345 C348 1.365 . S
C345 N350 1.328 . S
C345 H351 0.929 . S
C346 C347 1.362 . S
C346 C349 1.378 . S
C346 H361 0.929 . S
C347 C346 1.362 . S
C347 C348 1.366 . S
C348 C345 1.365 . S
C348 C347 1.366 . S
C348 H362 0.930 . S
C349 C346 1.378 . S
C349 N350 1.315 . S
C349 H352 0.930 1_556 S
N350 Co330 2.194 1_556 S
N350 C345 1.328 . S
N350 C349 1.315 . S
H351 C345 0.929 . S
H352 C349 0.930 1_554 S
H353 C341 0.929 . S
H354 C343 0.929 . S
O355 Co330 2.351 1_556 S
O355 C358 1.244 . S
O356 Co330 2.155 . S
O356 C358 1.240 1_554 S
O357 Co330 2.096 . S
O357 C338 1.247 . S
C358 O355 1.244 . S
C358 O356 1.240 1_556 S
H359 C333 0.931 . S
H360 C342 0.931 . S
H361 C346 0.929 . S
H362 C348 0.930 . S
Co363 N367 2.148 . S
Co363 N373 2.128 . S
Co363 N383 2.194 . S
Co363 O388 2.351 . S
Co363 O389 2.155 . S
Co363 O390 2.096 . S
C364 N367 1.301 . S
C364 N368 1.328 . S
C364 H369 0.930 . S
C365 C366 1.333 . S
C365 N367 1.317 . S
C365 H370 0.930 . S
C366 C365 1.333 . S
C366 N368 1.350 . S
C366 H392 0.931 . S
N367 Co363 2.148 . S
N367 C364 1.301 . S
N367 C365 1.317 . S
N368 C364 1.328 . S
N368 C366 1.350 . S
H369 C364 0.930 . S
H370 C365 0.930 . S
C371 O372 1.224 . S
C371 O390 1.247 . S
O372 C371 1.224 . S
N373 Co363 2.128 . S
N373 C374 1.355 . S
N373 C376 1.311 . S
C374 N373 1.355 . S
C374 C375 1.363 . S
C374 H386 0.929 . S
C375 C374 1.363 . S
C375 N377 1.375 . S
C375 H393 0.931 . S
C376 N373 1.311 . S
C376 N377 1.347 . S
C376 H387 0.929 . S
N377 C375 1.375 . S
N377 C376 1.347 . S
C378 C381 1.365 . S
C378 N383 1.328 . S
C378 H384 0.929 . S
C379 C380 1.362 . S
C379 C382 1.378 . S
C379 H394 0.929 . S
C380 C379 1.362 . S
C380 C381 1.366 . S
C381 C378 1.365 . S
C381 C380 1.366 . S
C381 H395 0.930 . S
C382 C379 1.378 . S
C382 N383 1.315 . S
C382 H385 0.930 . S
N383 Co363 2.194 . S
N383 C378 1.328 . S
N383 C382 1.315 . S
H384 C378 0.929 . S
H385 C382 0.930 . S
H386 C374 0.929 . S
H387 C376 0.929 . S
O388 Co363 2.351 . S
O388 C391 1.244 . S
O389 Co363 2.155 . S
O389 C391 1.240 . S
O390 Co363 2.096 . S
O390 C371 1.247 . S
C391 O388 1.244 . S
C391 O389 1.240 . S
H392 C366 0.931 . S
H393 C375 0.931 . S
H394 C379 0.929 . S
H395 C381 0.930 . S
Co396 N400 2.148 . S
Co396 N406 2.128 . S
Co396 N416 2.194 . S
Co396 O421 2.351 . S
Co396 O422 2.155 . S
Co396 O423 2.096 . S
C397 N400 1.301 . S
C397 N401 1.328 . S
C397 H402 0.930 . S
C398 C399 1.333 . S
C398 N400 1.317 . S
C398 H403 0.930 . S
C399 C398 1.333 . S
C399 N401 1.350 . S
C399 H425 0.931 . S
N400 Co396 2.148 . S
N400 C397 1.301 . S
N400 C398 1.317 . S
N401 C397 1.328 . S
N401 C399 1.350 . S
H402 C397 0.930 . S
H403 C398 0.930 . S
C404 O405 1.224 . S
C404 O423 1.247 . S
O405 C404 1.224 . S
N406 Co396 2.128 . S
N406 C407 1.355 . S
N406 C409 1.311 . S
C407 N406 1.355 . S
C407 C408 1.363 . S
C407 H419 0.929 . S
C408 C407 1.363 . S
C408 N410 1.375 . S
C408 H426 0.931 . S
C409 N406 1.311 . S
C409 N410 1.347 . S
C409 H420 0.929 . S
N410 C408 1.375 . S
N410 C409 1.347 . S
C411 C414 1.365 . S
C411 N416 1.328 . S
C411 H417 0.929 . S
C412 C413 1.362 . S
C412 C415 1.378 . S
C412 H427 0.929 . S
C413 C412 1.362 . S
C413 C414 1.366 . S
C414 C411 1.365 . S
C414 C413 1.366 . S
C414 H428 0.930 . S
C415 C412 1.378 . S
C415 N416 1.315 . S
C415 H418 0.930 . S
N416 Co396 2.194 . S
N416 C411 1.328 . S
N416 C415 1.315 . S
H417 C411 0.929 . S
H418 C415 0.930 . S
H419 C407 0.929 . S
H420 C409 0.929 . S
O421 Co396 2.351 . S
O421 C424 1.244 . S
O422 Co396 2.155 . S
O422 C424 1.240 . S
O423 Co396 2.096 . S
O423 C404 1.247 . S
C424 O421 1.244 . S
C424 O422 1.240 . S
H425 C399 0.931 . S
H426 C408 0.931 . S
H427 C412 0.929 . S
H428 C414 0.930 . S
Co429 N433 2.148 . S
Co429 N439 2.128 . S
Co429 N449 2.194 . S
Co429 O454 2.351 . S
Co429 O455 2.155 . S
Co429 O456 2.096 . S
C430 N433 1.301 . S
C430 N434 1.328 . S
C430 H435 0.930 . S
C431 C432 1.333 . S
C431 N433 1.317 . S
C431 H436 0.930 . S
C432 C431 1.333 . S
C432 N434 1.350 . S
C432 H458 0.931 . S
N433 Co429 2.148 . S
N433 C430 1.301 . S
N433 C431 1.317 . S
N434 C430 1.328 . S
N434 C432 1.350 . S
H435 C430 0.930 . S
H436 C431 0.930 . S
C437 O438 1.224 . S
C437 O456 1.247 . S
O438 C437 1.224 . S
N439 Co429 2.128 . S
N439 C440 1.355 . S
N439 C442 1.311 . S
C440 N439 1.355 . S
C440 C441 1.363 . S
C440 H452 0.929 . S
C441 C440 1.363 . S
C441 N443 1.375 . S
C441 H459 0.931 . S
C442 N439 1.311 . S
C442 N443 1.347 . S
C442 H453 0.929 . S
N443 C441 1.375 . S
N443 C442 1.347 . S
C444 C447 1.365 . S
C444 N449 1.328 . S
C444 H450 0.929 . S
C445 C446 1.362 . S
C445 C448 1.378 . S
C445 H460 0.929 . S
C446 C445 1.362 . S
C446 C447 1.366 . S
C447 C444 1.365 . S
C447 C446 1.366 . S
C447 H461 0.955 . S
C448 C445 1.378 . S
C448 N449 1.315 . S
C448 H451 0.930 . S
N449 Co429 2.194 . S
N449 C444 1.328 . S
N449 C448 1.315 . S
H450 C444 0.929 . S
H451 C448 0.930 . S
H452 C440 0.929 . S
H453 C442 0.929 . S
O454 Co429 2.351 . S
O454 C457 1.244 . S
O455 Co429 2.155 . S
O455 C457 1.240 . S
O456 Co429 2.096 . S
O456 C437 1.247 . S
C457 O454 1.244 . S
C457 O455 1.240 . S
H458 C432 0.931 . S
H459 C441 0.931 . S
H460 C445 0.929 . S
H461 C447 0.955 . S
Co462 N466 2.148 . S
Co462 N472 2.128 1_556 S
Co462 N482 2.194 1_556 S
Co462 O487 2.351 . S
Co462 O488 2.155 . S
Co462 O489 2.096 . S
C463 N466 1.301 . S
C463 N467 1.328 . S
C463 H468 0.930 . S
C464 C465 1.333 . S
C464 N466 1.317 . S
C464 H469 0.930 . S
C465 C464 1.333 . S
C465 N467 1.350 . S
C465 H491 0.931 . S
N466 Co462 2.148 . S
N466 C463 1.301 . S
N466 C464 1.317 . S
N467 C463 1.328 . S
N467 C465 1.350 . S
H468 C463 0.930 . S
H469 C464 0.930 . S
C470 O471 1.224 . S
C470 O489 1.247 1_554 S
O471 C470 1.224 . S
N472 Co462 2.128 1_554 S
N472 C473 1.355 . S
N472 C475 1.311 . S
C473 N472 1.355 . S
C473 C474 1.363 . S
C473 H485 0.929 . S
C474 C473 1.363 . S
C474 N476 1.375 . S
C474 H492 0.931 . S
C475 N472 1.311 . S
C475 N476 1.347 . S
C475 H486 0.929 . S
N476 C474 1.375 . S
N476 C475 1.347 . S
C477 C480 1.365 . S
C477 N482 1.328 . S
C477 H483 0.929 1_554 S
C478 C479 1.362 . S
C478 C481 1.378 . S
C478 H493 0.929 . S
C479 C478 1.362 . S
C479 C480 1.366 . S
C480 C477 1.365 . S
C480 C479 1.366 . S
C480 H494 0.930 . S
C481 C478 1.378 . S
C481 N482 1.315 . S
C481 H484 0.930 . S
N482 Co462 2.194 1_554 S
N482 C477 1.328 . S
N482 C481 1.315 . S
H483 C477 0.929 1_556 S
H484 C481 0.930 . S
H485 C473 0.929 . S
H486 C475 0.929 . S
O487 Co462 2.351 . S
O487 C490 1.244 . S
O488 Co462 2.155 . S
O488 C490 1.240 . S
O489 Co462 2.096 . S
O489 C470 1.247 1_556 S
C490 O487 1.244 . S
C490 O488 1.240 . S
H491 C465 0.931 . S
H492 C474 0.931 . S
H493 C478 0.929 . S
H494 C480 0.930 . S
Co495 N499 2.148 . S
Co495 N505 2.128 . S
Co495 N515 2.194 . S
Co495 O520 2.351 . S
Co495 O521 2.155 . S
Co495 O522 2.096 . S
C496 N499 1.301 . S
C496 N500 1.328 . S
C496 H501 0.930 . S
C497 C498 1.333 . S
C497 N499 1.317 . S
C497 H502 0.930 . S
C498 C497 1.333 . S
C498 N500 1.350 . S
C498 H524 0.931 . S
N499 Co495 2.148 . S
N499 C496 1.301 . S
N499 C497 1.317 . S
N500 C496 1.328 . S
N500 C498 1.350 . S
H501 C496 0.930 . S
H502 C497 0.930 . S
C503 O504 1.224 . S
C503 O522 1.247 . S
O504 C503 1.224 . S
N505 Co495 2.128 . S
N505 C506 1.355 . S
N505 C508 1.311 . S
C506 N505 1.355 . S
C506 C507 1.363 . S
C506 H518 0.929 . S
C507 C506 1.363 . S
C507 N509 1.375 . S
C507 H525 0.931 . S
C508 N505 1.311 . S
C508 N509 1.347 . S
C508 H519 0.929 . S
N509 C507 1.375 . S
N509 C508 1.347 . S
C510 C513 1.365 . S
C510 N515 1.328 . S
C510 H516 0.929 . S
C511 C512 1.362 . S
C511 C514 1.378 . S
C511 H526 0.929 . S
C512 C511 1.362 . S
C512 C513 1.366 . S
C513 C510 1.365 . S
C513 C512 1.366 . S
C513 H527 0.955 . S
C514 C511 1.378 . S
C514 N515 1.315 . S
C514 H517 0.930 . S
N515 Co495 2.194 . S
N515 C510 1.328 . S
N515 C514 1.315 . S
H516 C510 0.929 . S
H517 C514 0.930 . S
H518 C506 0.929 . S
H519 C508 0.929 . S
O520 Co495 2.351 . S
O520 C523 1.244 . S
O521 Co495 2.155 . S
O521 C523 1.240 . S
O522 Co495 2.096 . S
O522 C503 1.247 . S
C523 O520 1.244 . S
C523 O521 1.240 . S
H524 C498 0.931 . S
H525 C507 0.931 . S
H526 C511 0.929 . S
H527 C513 0.955 . S
C528 C529 1.349 . S
C528 C530 1.327 . S
C528 H553 0.950 . S
C529 C528 1.349 . S
C529 C545 1.349 . S
C530 C528 1.327 . S
C530 C549 1.429 . S
C530 H554 0.950 . S
C531 C548 1.574 . S
C531 C550 1.368 . S
C531 H555 0.949 . S
H532 C536 0.949 . S
C533 C534 1.349 . S
C533 C535 1.327 . S
C533 H556 0.950 . S
C534 C533 1.349 . S
C534 C546 1.349 . S
C535 C533 1.327 . S
C535 C551 1.429 . S
C535 H557 0.950 . S
C536 H532 0.949 . S
C536 C544 1.574 . S
C536 C552 1.368 . S
H537 C545 0.950 . S
H538 C543 0.950 . S
H539 C544 0.949 . S
H540 C546 0.950 . S
H541 C547 0.950 . S
H542 C548 0.949 . S
C543 H538 0.950 . S
C543 C545 1.327 . S
C543 C549 1.429 . S
C544 C536 1.574 . S
C544 H539 0.949 . S
C544 C550 1.368 . S
C545 C529 1.349 . S
C545 H537 0.950 . S
C545 C543 1.327 . S
C546 C534 1.349 . S
C546 H540 0.950 . S
C546 C547 1.327 . S
C547 H541 0.950 . S
C547 C546 1.327 . S
C547 C551 1.429 . S
C548 C531 1.574 . S
C548 H542 0.949 . S
C548 C552 1.368 . S
C549 C530 1.429 . S
C549 C543 1.429 . S
C549 C550 1.523 . S
C550 C531 1.368 . S
C550 C544 1.368 . S
C550 C549 1.523 . S
C551 C535 1.429 . S
C551 C547 1.429 . S
C551 C552 1.523 . S
C552 C536 1.368 . S
C552 C548 1.368 . S
C552 C551 1.523 . S
H553 C528 0.950 . S
H554 C530 0.950 . S
H555 C531 0.949 . S
H556 C533 0.950 . S
H557 C535 0.950 . S
C558 C559 1.349 . S
C558 C560 1.327 . S
C558 H583 0.950 . S
C559 C558 1.349 . S
C559 C575 1.349 . S
C560 C558 1.327 . S
C560 C579 1.429 . S
C560 H584 0.950 . S
C561 C578 1.574 . S
C561 C580 1.368 . S
C561 H585 0.949 . S
H562 C566 0.949 . S
C563 C564 1.349 . S
C563 C565 1.327 . S
C563 H586 0.950 . S
C564 C563 1.349 . S
C564 C576 1.349 . S
C565 C563 1.327 . S
C565 C581 1.429 . S
C565 H587 0.950 . S
C566 H562 0.949 . S
C566 C574 1.574 . S
C566 C582 1.368 . S
H567 C575 0.950 . S
H568 C573 0.950 . S
H569 C574 0.949 . S
H570 C576 0.950 1_556 S
H571 C577 0.950 . S
H572 C578 0.949 . S
C573 H568 0.950 . S
C573 C575 1.327 . S
C573 C579 1.429 . S
C574 C566 1.574 . S
C574 H569 0.949 . S
C574 C580 1.368 . S
C575 C559 1.349 . S
C575 H567 0.950 . S
C575 C573 1.327 . S
C576 C564 1.349 . S
C576 H570 0.950 1_554 S
C576 C577 1.327 . S
C577 H571 0.950 . S
C577 C576 1.327 . S
C577 C581 1.429 . S
C578 C561 1.574 . S
C578 H572 0.949 . S
C578 C582 1.368 . S
C579 C560 1.429 . S
C579 C573 1.429 . S
C579 C580 1.523 . S
C580 C561 1.368 . S
C580 C574 1.368 . S
C580 C579 1.523 . S
C581 C565 1.429 . S
C581 C577 1.429 . S
C581 C582 1.523 . S
C582 C566 1.368 . S
C582 C578 1.368 . S
C582 C581 1.523 . S
H583 C558 0.950 . S
H584 C560 0.950 . S
H585 C561 0.949 . S
H586 C563 0.950 . S
H587 C565 0.950 . S
C588 C589 1.349 . S
C588 C590 1.327 . S
C588 H613 0.950 . S
C589 C588 1.349 . S
C589 C605 1.349 . S
C590 C588 1.327 . S
C590 C609 1.429 . S
C590 H614 0.950 . S
C591 C608 1.574 . S
C591 C610 1.368 . S
C591 H615 0.949 . S
H592 C596 0.949 . S
C593 C594 1.349 . S
C593 C595 1.327 . S
C593 H616 0.950 . S
C594 C593 1.349 . S
C594 C606 1.349 . S
C595 C593 1.327 . S
C595 C611 1.429 1_655 S
C595 H617 0.950 . S
C596 H592 0.949 . S
C596 C604 1.574 . S
C596 C612 1.368 . S
H597 C605 0.950 . S
H598 C603 0.950 . S
H599 C604 0.949 . S
H600 C606 0.950 . S
H601 C607 0.950 . S
H602 C608 0.949 . S
C603 H598 0.950 . S
C603 C605 1.327 . S
C603 C609 1.429 . S
C604 C596 1.574 . S
C604 H599 0.949 . S
C604 C610 1.368 . S
C605 C589 1.349 . S
C605 H597 0.950 . S
C605 C603 1.327 . S
C606 C594 1.349 . S
C606 H600 0.950 . S
C606 C607 1.327 1_655 S
C607 H601 0.950 . S
C607 C606 1.327 1_455 S
C607 C611 1.429 . S
C608 C591 1.574 . S
C608 H602 0.949 . S
C608 C612 1.368 . S
C609 C590 1.429 . S
C609 C603 1.429 . S
C609 C610 1.523 . S
C610 C591 1.368 . S
C610 C604 1.368 . S
C610 C609 1.523 . S
C611 C595 1.429 1_455 S
C611 C607 1.429 . S
C611 C612 1.523 . S
C612 C596 1.368 . S
C612 C608 1.368 . S
C612 C611 1.523 . S
H613 C588 0.950 . S
H614 C590 0.950 . S
H615 C591 0.949 . S
H616 C593 0.950 . S
H617 C595 0.950 . S
C618 C619 1.349 . S
C618 C620 1.327 . S
C618 H643 0.950 . S
C619 C618 1.349 . S
C619 C635 1.349 . S
C620 C618 1.327 . S
C620 C639 1.429 . S
C620 H644 0.950 . S
C621 C638 1.574 . S
C621 C640 1.368 . S
C621 H645 0.949 . S
H622 C626 0.949 . S
C623 C624 1.349 . S
C623 C625 1.327 . S
C623 H646 0.950 . S
C624 C623 1.349 . S
C624 C636 1.349 . S
C625 C623 1.327 . S
C625 C641 1.429 . S
C625 H647 0.950 . S
C626 H622 0.949 . S
C626 C634 1.574 . S
C626 C642 1.368 . S
H627 C635 0.950 . S
H628 C633 0.950 . S
H629 C634 0.949 . S
H630 C636 0.950 . S
H631 C637 0.950 . S
H632 C638 0.949 . S
C633 H628 0.950 . S
C633 C635 1.327 . S
C633 C639 1.429 . S
C634 C626 1.574 . S
C634 H629 0.949 . S
C634 C640 1.368 . S
C635 C619 1.349 . S
C635 H627 0.950 . S
C635 C633 1.327 . S
C636 C624 1.349 . S
C636 H630 0.950 . S
C636 C637 1.327 . S
C637 H631 0.950 . S
C637 C636 1.327 . S
C637 C641 1.429 . S
C638 C621 1.574 . S
C638 H632 0.949 . S
C638 C642 1.368 . S
C639 C620 1.429 . S
C639 C633 1.429 . S
C639 C640 1.523 . S
C640 C621 1.368 . S
C640 C634 1.368 . S
C640 C639 1.523 . S
C641 C625 1.429 . S
C641 C637 1.429 . S
C641 C642 1.523 . S
C642 C626 1.368 . S
C642 C638 1.368 . S
C642 C641 1.523 . S
H643 C618 0.950 . S
H644 C620 0.950 . S
H645 C621 0.949 . S
H646 C623 0.950 . S
H647 C625 0.950 . S
C648 C649 1.349 . S
C648 C650 1.327 . S
C648 H673 0.950 . S
C649 C648 1.349 . S
C649 C665 1.349 . S
C650 C648 1.327 . S
C650 C669 1.429 . S
C650 H674 0.950 . S
C651 C668 1.574 . S
C651 C670 1.368 . S
C651 H675 0.949 . S
H652 C656 0.949 . S
C653 C654 1.349 . S
C653 C655 1.327 . S
C653 H676 0.950 . S
C654 C653 1.349 . S
C654 C666 1.349 . S
C655 C653 1.327 . S
C655 C671 1.429 . S
C655 H677 0.950 . S
C656 H652 0.949 . S
C656 C664 1.574 . S
C656 C672 1.368 . S
H657 C665 0.950 . S
H658 C663 0.950 . S
H659 C664 0.949 . S
H660 C666 0.950 . S
H661 C667 0.950 . S
H662 C668 0.949 . S
C663 H658 0.950 . S
C663 C665 1.327 . S
C663 C669 1.429 . S
C664 C656 1.574 . S
C664 H659 0.949 . S
C664 C670 1.368 . S
C665 C649 1.349 . S
C665 H657 0.950 . S
C665 C663 1.327 . S
C666 C654 1.349 . S
C666 H660 0.950 . S
C666 C667 1.327 . S
C667 H661 0.950 . S
C667 C666 1.327 . S
C667 C671 1.429 . S
C668 C651 1.574 . S
C668 H662 0.949 . S
C668 C672 1.368 . S
C669 C650 1.429 . S
C669 C663 1.429 . S
C669 C670 1.523 . S
C670 C651 1.368 . S
C670 C664 1.368 . S
C670 C669 1.523 . S
C671 C655 1.429 . S
C671 C667 1.429 . S
C671 C672 1.523 . S
C672 C656 1.368 . S
C672 C668 1.368 . S
C672 C671 1.523 . S
H673 C648 0.950 . S
H674 C650 0.950 . S
H675 C651 0.949 . S
H676 C653 0.950 . S
H677 C655 0.950 . S
C678 C679 1.349 . S
C678 C680 1.327 . S
C678 H703 0.950 1_556 S
C679 C678 1.349 . S
C679 C695 1.349 . S
C680 C678 1.327 . S
C680 C699 1.429 . S
C680 H704 0.950 . S
C681 C698 1.574 . S
C681 C700 1.368 . S
C681 H705 0.949 . S
H682 C686 0.949 . S
C683 C684 1.349 . S
C683 C685 1.327 . S
C683 H706 0.950 . S
C684 C683 1.349 . S
C684 C696 1.349 . S
C685 C683 1.327 . S
C685 C701 1.429 . S
C685 H707 0.950 . S
C686 H682 0.949 . S
C686 C694 1.574 . S
C686 C702 1.368 . S
H687 C695 0.950 . S
H688 C693 0.950 . S
H689 C694 0.949 . S
H690 C696 0.950 . S
H691 C697 0.950 . S
H692 C698 0.949 . S
C693 H688 0.950 . S
C693 C695 1.327 . S
C693 C699 1.429 . S
C694 C686 1.574 . S
C694 H689 0.949 . S
C694 C700 1.368 . S
C695 C679 1.349 . S
C695 H687 0.950 . S
C695 C693 1.327 . S
C696 C684 1.349 . S
C696 H690 0.950 . S
C696 C697 1.327 . S
C697 H691 0.950 . S
C697 C696 1.327 . S
C697 C701 1.429 . S
C698 C681 1.574 . S
C698 H692 0.949 . S
C698 C702 1.368 . S
C699 C680 1.429 . S
C699 C693 1.429 . S
C699 C700 1.523 . S
C700 C681 1.368 . S
C700 C694 1.368 . S
C700 C699 1.523 . S
C701 C685 1.429 . S
C701 C697 1.429 . S
C701 C702 1.523 . S
C702 C686 1.368 . S
C702 C698 1.368 . S
C702 C701 1.523 . S
H703 C678 0.950 1_554 S
H704 C680 0.950 . S
H705 C681 0.949 . S
H706 C683 0.950 . S
H707 C685 0.950 . S
C708 C709 1.349 . S
C708 C710 1.327 1_455 S
C708 H733 0.950 . S
C709 C708 1.349 . S
C709 C725 1.349 1_455 S
C710 C708 1.327 1_655 S
C710 C729 1.429 . S
C710 H734 0.950 . S
C711 C728 1.574 . S
C711 C730 1.368 . S
C711 H735 0.949 . S
H712 C716 0.949 . S
C713 C714 1.349 . S
C713 C715 1.327 . S
C713 H736 0.950 . S
C714 C713 1.349 . S
C714 C726 1.349 . S
C715 C713 1.327 . S
C715 C731 1.429 . S
C715 H737 0.950 . S
C716 H712 0.949 . S
C716 C724 1.574 . S
C716 C732 1.368 . S
H717 C725 0.950 . S
H718 C723 0.950 . S
H719 C724 0.949 . S
H720 C726 0.950 . S
H721 C727 0.950 . S
H722 C728 0.949 . S
C723 H718 0.950 . S
C723 C725 1.327 . S
C723 C729 1.429 . S
C724 C716 1.574 . S
C724 H719 0.949 . S
C724 C730 1.368 . S
C725 C709 1.349 1_655 S
C725 H717 0.950 . S
C725 C723 1.327 . S
C726 C714 1.349 . S
C726 H720 0.950 . S
C726 C727 1.327 . S
C727 H721 0.950 . S
C727 C726 1.327 . S
C727 C731 1.429 . S
C728 C711 1.574 . S
C728 H722 0.949 . S
C728 C732 1.368 . S
C729 C710 1.429 . S
C729 C723 1.429 . S
C729 C730 1.523 . S
C730 C711 1.368 . S
C730 C724 1.368 . S
C730 C729 1.523 . S
C731 C715 1.429 . S
C731 C727 1.429 . S
C731 C732 1.523 . S
C732 C716 1.368 . S
C732 C728 1.368 . S
C732 C731 1.523 . S
H733 C708 0.950 . S
H734 C710 0.950 . S
H735 C711 0.949 . S
H736 C713 0.950 . S
H737 C715 0.950 . S
C738 C739 1.349 . S
C738 C740 1.327 . S
C738 H763 0.950 . S
C739 C738 1.349 . S
C739 C755 1.349 . S
C740 C738 1.327 . S
C740 C759 1.429 . S
C740 H764 0.950 . S
C741 C758 1.574 . S
C741 C760 1.368 . S
C741 H765 0.949 . S
H742 C746 0.949 . S
C743 C744 1.349 . S
C743 C745 1.327 . S
C743 H766 0.950 . S
C744 C743 1.349 . S
C744 C756 1.349 . S
C745 C743 1.327 . S
C745 C761 1.429 . S
C745 H767 0.950 . S
C746 H742 0.949 . S
C746 C754 1.574 . S
C746 C762 1.368 . S
H747 C755 0.950 . S
H748 C753 0.950 . S
H749 C754 0.949 . S
H750 C756 0.950 . S
H751 C757 0.950 . S
H752 C758 0.949 . S
C753 H748 0.950 . S
C753 C755 1.327 . S
C753 C759 1.429 . S
C754 C746 1.574 . S
C754 H749 0.949 . S
C754 C760 1.368 . S
C755 C739 1.349 . S
C755 H747 0.950 . S
C755 C753 1.327 . S
C756 C744 1.349 . S
C756 H750 0.950 . S
C756 C757 1.327 . S
C757 H751 0.950 . S
C757 C756 1.327 . S
C757 C761 1.429 . S
C758 C741 1.574 . S
C758 H752 0.949 . S
C758 C762 1.368 . S
C759 C740 1.429 . S
C759 C753 1.429 . S
C759 C760 1.523 . S
C760 C741 1.368 . S
C760 C754 1.368 . S
C760 C759 1.523 . S
C761 C745 1.429 . S
C761 C757 1.429 . S
C761 C762 1.523 . S
C762 C746 1.368 . S
C762 C758 1.368 . S
C762 C761 1.523 . S
H763 C738 0.950 . S
H764 C740 0.950 . S
H765 C741 0.949 . S
H766 C743 0.950 . S
H767 C745 0.950 . S
C768 C769 1.349 . S
C768 C770 1.327 . S
C768 H793 0.950 . S
C769 C768 1.349 . S
C769 C785 1.349 . S
C770 C768 1.327 . S
C770 C789 1.429 . S
C770 H794 0.950 . S
C771 C788 1.574 . S
C771 C790 1.368 . S
C771 H795 0.949 . S
H772 C776 0.949 . S
C773 C774 1.349 . S
C773 C775 1.327 . S
C773 H796 0.950 . S
C774 C773 1.349 . S
C774 C786 1.349 . S
C775 C773 1.327 . S
C775 C791 1.429 1_455 S
C775 H797 0.950 . S
C776 H772 0.949 . S
C776 C784 1.574 . S
C776 C792 1.368 . S
H777 C785 0.950 . S
H778 C783 0.950 . S
H779 C784 0.949 . S
H780 C786 0.950 . S
H781 C787 0.950 . S
H782 C788 0.949 . S
C783 H778 0.950 . S
C783 C785 1.327 . S
C783 C789 1.429 . S
C784 C776 1.574 . S
C784 H779 0.949 . S
C784 C790 1.368 . S
C785 C769 1.349 . S
C785 H777 0.950 . S
C785 C783 1.327 . S
C786 C774 1.349 . S
C786 H780 0.950 . S
C786 C787 1.327 1_455 S
C787 H781 0.950 . S
C787 C786 1.327 1_655 S
C787 C791 1.429 . S
C788 C771 1.574 . S
C788 H782 0.949 . S
C788 C792 1.368 . S
C789 C770 1.429 . S
C789 C783 1.429 . S
C789 C790 1.523 . S
C790 C771 1.368 . S
C790 C784 1.368 . S
C790 C789 1.523 . S
C791 C775 1.429 1_655 S
C791 C787 1.429 . S
C791 C792 1.523 . S
C792 C776 1.368 . S
C792 C788 1.368 . S
C792 C791 1.523 . S
H793 C768 0.950 . S
H794 C770 0.950 . S
H795 C771 0.949 . S
H796 C773 0.950 . S
H797 C775 0.950 . S
C798 C799 1.349 . S
C798 C800 1.327 . S
C798 H823 0.950 . S
C799 C798 1.349 . S
C799 C815 1.349 . S
C800 C798 1.327 . S
C800 C819 1.429 . S
C800 H824 0.950 . S
C801 C818 1.574 . S
C801 C820 1.368 . S
C801 H825 0.949 . S
H802 C806 0.949 . S
C803 C804 1.349 . S
C803 C805 1.327 . S
C803 H826 0.950 . S
C804 C803 1.349 . S
C804 C816 1.349 . S
C805 C803 1.327 . S
C805 C821 1.429 . S
C805 H827 0.950 . S
C806 H802 0.949 . S
C806 C814 1.574 . S
C806 C822 1.368 . S
H807 C815 0.950 . S
H808 C813 0.950 . S
H809 C814 0.949 . S
H810 C816 0.950 . S
H811 C817 0.950 . S
H812 C818 0.949 . S
C813 H808 0.950 . S
C813 C815 1.327 . S
C813 C819 1.429 . S
C814 C806 1.574 . S
C814 H809 0.949 . S
C814 C820 1.368 . S
C815 C799 1.349 . S
C815 H807 0.950 . S
C815 C813 1.327 . S
C816 C804 1.349 . S
C816 H810 0.950 . S
C816 C817 1.327 . S
C817 H811 0.950 . S
C817 C816 1.327 . S
C817 C821 1.429 . S
C818 C801 1.574 . S
C818 H812 0.949 . S
C818 C822 1.368 . S
C819 C800 1.429 . S
C819 C813 1.429 . S
C819 C820 1.523 . S
C820 C801 1.368 . S
C820 C814 1.368 . S
C820 C819 1.523 . S
C821 C805 1.429 . S
C821 C817 1.429 . S
C821 C822 1.523 . S
C822 C806 1.368 . S
C822 C818 1.368 . S
C822 C821 1.523 . S
H823 C798 0.950 . S
H824 C800 0.950 . S
H825 C801 0.949 . S
H826 C803 0.950 . S
H827 C805 0.950 . S
C828 C829 1.349 . S
C828 C830 1.327 . S
C828 H853 0.950 . S
C829 C828 1.349 . S
C829 C845 1.349 . S
C830 C828 1.327 . S
C830 C849 1.429 . S
C830 H854 0.950 . S
C831 C848 1.574 . S
C831 C850 1.368 . S
C831 H855 0.949 . S
H832 C836 0.949 . S
C833 C834 1.349 . S
C833 C835 1.327 . S
C833 H856 0.950 . S
C834 C833 1.349 . S
C834 C846 1.349 . S
C835 C833 1.327 . S
C835 C851 1.429 . S
C835 H857 0.950 . S
C836 H832 0.949 . S
C836 C844 1.574 . S
C836 C852 1.368 . S
H837 C845 0.950 . S
H838 C843 0.950 . S
H839 C844 0.949 . S
H840 C846 0.950 . S
H841 C847 0.950 . S
H842 C848 0.949 . S
C843 H838 0.950 . S
C843 C845 1.327 . S
C843 C849 1.429 . S
C844 C836 1.574 . S
C844 H839 0.949 . S
C844 C850 1.368 . S
C845 C829 1.349 . S
C845 H837 0.950 . S
C845 C843 1.327 . S
C846 C834 1.349 . S
C846 H840 0.950 . S
C846 C847 1.327 . S
C847 H841 0.950 . S
C847 C846 1.327 . S
C847 C851 1.429 . S
C848 C831 1.574 . S
C848 H842 0.949 . S
C848 C852 1.368 . S
C849 C830 1.429 . S
C849 C843 1.429 . S
C849 C850 1.523 . S
C850 C831 1.368 . S
C850 C844 1.368 . S
C850 C849 1.523 . S
C851 C835 1.429 . S
C851 C847 1.429 . S
C851 C852 1.523 . S
C852 C836 1.368 . S
C852 C848 1.368 . S
C852 C851 1.523 . S
H853 C828 0.950 . S
H854 C830 0.950 . S
H855 C831 0.949 . S
H856 C833 0.950 . S
H857 C835 0.950 . S
C858 C859 1.349 . S
C858 C860 1.327 . S
C858 H883 0.950 . S
C859 C858 1.349 . S
C859 C875 1.349 . S
C860 C858 1.327 . S
C860 C879 1.429 . S
C860 H884 0.950 . S
C861 C878 1.574 . S
C861 C880 1.368 . S
C861 H885 0.949 . S
H862 C866 0.949 . S
C863 C864 1.349 . S
C863 C865 1.327 . S
C863 H886 0.950 . S
C864 C863 1.349 . S
C864 C876 1.349 . S
C865 C863 1.327 . S
C865 C881 1.429 . S
C865 H887 0.950 . S
C866 H862 0.949 . S
C866 C874 1.574 . S
C866 C882 1.368 . S
H867 C875 0.950 . S
H868 C873 0.950 . S
H869 C874 0.949 . S
H870 C876 0.950 . S
H871 C877 0.950 . S
H872 C878 0.949 . S
C873 H868 0.950 . S
C873 C875 1.327 . S
C873 C879 1.429 . S
C874 C866 1.574 . S
C874 H869 0.949 . S
C874 C880 1.368 . S
C875 C859 1.349 . S
C875 H867 0.950 . S
C875 C873 1.327 . S
C876 C864 1.349 . S
C876 H870 0.950 . S
C876 C877 1.327 . S
C877 H871 0.950 . S
C877 C876 1.327 . S
C877 C881 1.429 . S
C878 C861 1.574 . S
C878 H872 0.949 . S
C878 C882 1.368 . S
C879 C860 1.429 . S
C879 C873 1.429 . S
C879 C880 1.523 . S
C880 C861 1.368 . S
C880 C874 1.368 . S
C880 C879 1.523 . S
C881 C865 1.429 . S
C881 C877 1.429 . S
C881 C882 1.523 . S
C882 C866 1.368 . S
C882 C878 1.368 . S
C882 C881 1.523 . S
H883 C858 0.950 . S
H884 C860 0.950 . S
H885 C861 0.949 . S
H886 C863 0.950 . S
H887 C865 0.950 . S
C888 C889 1.349 . S
C888 C890 1.327 . S
C888 H913 0.950 . S
C889 C888 1.349 . S
C889 C905 1.349 . S
C890 C888 1.327 . S
C890 C909 1.429 . S
C890 H914 0.950 . S
C891 C908 1.574 . S
C891 C910 1.368 . S
C891 H915 0.949 . S
H892 C896 0.949 . S
C893 C894 1.349 . S
C893 C895 1.327 1_655 S
C893 H916 0.950 . S
C894 C893 1.349 . S
C894 C906 1.349 1_655 S
C895 C893 1.327 1_455 S
C895 C911 1.429 . S
C895 H917 0.950 . S
C896 H892 0.949 . S
C896 C904 1.574 . S
C896 C912 1.368 . S
H897 C905 0.950 . S
H898 C903 0.950 . S
H899 C904 0.949 . S
H900 C906 0.950 . S
H901 C907 0.950 . S
H902 C908 0.949 . S
C903 H898 0.950 . S
C903 C905 1.327 . S
C903 C909 1.429 . S
C904 C896 1.574 . S
C904 H899 0.949 . S
C904 C910 1.368 . S
C905 C889 1.349 . S
C905 H897 0.950 . S
C905 C903 1.327 . S
C906 C894 1.349 1_455 S
C906 H900 0.950 . S
C906 C907 1.327 . S
C907 H901 0.950 . S
C907 C906 1.327 . S
C907 C911 1.429 . S
C908 C891 1.574 . S
C908 H902 0.949 . S
C908 C912 1.368 . S
C909 C890 1.429 . S
C909 C903 1.429 . S
C909 C910 1.523 . S
C910 C891 1.368 . S
C910 C904 1.368 . S
C910 C909 1.523 . S
C911 C895 1.429 . S
C911 C907 1.429 . S
C911 C912 1.523 . S
C912 C896 1.368 . S
C912 C908 1.368 . S
C912 C911 1.523 . S
H913 C888 0.950 . S
H914 C890 0.950 . S
H915 C891 0.949 . S
H916 C893 0.950 . S
H917 C895 0.950 . S
C918 C919 1.349 . S
C918 C920 1.327 . S
C918 H943 0.950 . S
C919 C918 1.349 . S
C919 C935 1.349 . S
C920 C918 1.327 . S
C920 C939 1.429 . S
C920 H944 0.950 . S
C921 C938 1.574 . S
C921 C940 1.368 . S
C921 H945 0.949 . S
H922 C926 0.949 . S
C923 C924 1.349 . S
C923 C925 1.327 . S
C923 H946 0.950 . S
C924 C923 1.349 . S
C924 C936 1.349 . S
C925 C923 1.327 . S
C925 C941 1.429 . S
C925 H947 0.950 . S
C926 H922 0.949 . S
C926 C934 1.574 . S
C926 C942 1.368 . S
H927 C935 0.950 . S
H928 C933 0.950 . S
H929 C934 0.949 . S
H930 C936 0.950 . S
H931 C937 0.950 . S
H932 C938 0.949 . S
C933 H928 0.950 . S
C933 C935 1.327 . S
C933 C939 1.429 . S
C934 C926 1.574 . S
C934 H929 0.949 . S
C934 C940 1.368 . S
C935 C919 1.349 . S
C935 H927 0.950 . S
C935 C933 1.327 . S
C936 C924 1.349 . S
C936 H930 0.950 . S
C936 C937 1.327 . S
C937 H931 0.950 . S
C937 C936 1.327 . S
C937 C941 1.429 . S
C938 C921 1.574 . S
C938 H932 0.949 . S
C938 C942 1.368 . S
C939 C920 1.429 . S
C939 C933 1.429 . S
C939 C940 1.523 . S
C940 C921 1.368 . S
C940 C934 1.368 . S
C940 C939 1.523 . S
C941 C925 1.429 . S
C941 C937 1.429 . S
C941 C942 1.523 . S
C942 C926 1.368 . S
C942 C938 1.368 . S
C942 C941 1.523 . S
H943 C918 0.950 . S
H944 C920 0.950 . S
H945 C921 0.949 . S
H946 C923 0.950 . S
H947 C925 0.950 . S
C948 C949 1.349 . S
C948 C950 1.327 . S
C948 H973 0.950 . S
C949 C948 1.349 . S
C949 C965 1.349 . S
C950 C948 1.327 . S
C950 C969 1.429 . S
C950 H974 0.950 . S
C951 C968 1.574 . S
C951 C970 1.368 . S
C951 H975 0.949 . S
H952 C956 0.949 . S
C953 C954 1.349 . S
C953 C955 1.327 . S
C953 H976 0.950 . S
C954 C953 1.349 . S
C954 C966 1.349 . S
C955 C953 1.327 . S
C955 C971 1.429 . S
C955 H977 0.950 . S
C956 H952 0.949 . S
C956 C964 1.574 . S
C956 C972 1.368 . S
H957 C965 0.950 . S
H958 C963 0.950 . S
H959 C964 0.949 . S
H960 C966 0.950 . S
H961 C967 0.950 . S
H962 C968 0.949 . S
C963 H958 0.950 . S
C963 C965 1.327 . S
C963 C969 1.429 . S
C964 C956 1.574 . S
C964 H959 0.949 . S
C964 C970 1.368 . S
C965 C949 1.349 . S
C965 H957 0.950 . S
C965 C963 1.327 . S
C966 C954 1.349 . S
C966 H960 0.950 . S
C966 C967 1.327 . S
C967 H961 0.950 . S
C967 C966 1.327 . S
C967 C971 1.429 . S
C968 C951 1.574 . S
C968 H962 0.949 . S
C968 C972 1.368 . S
C969 C950 1.429 . S
C969 C963 1.429 . S
C969 C970 1.523 . S
C970 C951 1.368 . S
C970 C964 1.368 . S
C970 C969 1.523 . S
C971 C955 1.429 . S
C971 C967 1.429 . S
C971 C972 1.523 . S
C972 C956 1.368 . S
C972 C968 1.368 . S
C972 C971 1.523 . S
H973 C948 0.950 . S
H974 C950 0.950 . S
H975 C951 0.949 . S
H976 C953 0.950 . S
H977 C955 0.950 . S
C978 C979 1.349 . S
C978 C980 1.327 . S
C978 H1003 0.950 . S
C979 C978 1.349 . S
C979 C995 1.349 . S
C980 C978 1.327 . S
C980 C999 1.429 . S
C980 H1004 0.950 . S
C981 C998 1.574 . S
C981 C1000 1.368 . S
C981 H1005 0.949 . S
H982 C986 0.949 . S
C983 C984 1.349 . S
C983 C985 1.327 . S
C983 H1006 0.950 1_556 S
C984 C983 1.349 . S
C984 C996 1.349 . S
C985 C983 1.327 . S
C985 C1001 1.429 . S
C985 H1007 0.950 . S
C986 H982 0.949 . S
C986 C994 1.574 . S
C986 C1002 1.368 . S
H987 C995 0.950 . S
H988 C993 0.950 . S
H989 C994 0.949 . S
H990 C996 0.950 . S
H991 C997 0.950 . S
H992 C998 0.949 . S
C993 H988 0.950 . S
C993 C995 1.327 . S
C993 C999 1.429 . S
C994 C986 1.574 . S
C994 H989 0.949 . S
C994 C1000 1.368 . S
C995 C979 1.349 . S
C995 H987 0.950 . S
C995 C993 1.327 . S
C996 C984 1.349 . S
C996 H990 0.950 . S
C996 C997 1.327 . S
C997 H991 0.950 . S
C997 C996 1.327 . S
C997 C1001 1.429 . S
C998 C981 1.574 . S
C998 H992 0.949 . S
C998 C1002 1.368 . S
C999 C980 1.429 . S
C999 C993 1.429 . S
C999 C1000 1.523 . S
C1000 C981 1.368 . S
C1000 C994 1.368 . S
C1000 C999 1.523 . S
C1001 C985 1.429 . S
C1001 C997 1.429 . S
C1001 C1002 1.523 . S
C1002 C986 1.368 . S
C1002 C998 1.368 . S
C1002 C1001 1.523 . S
H1003 C978 0.950 . S
H1004 C980 0.950 . S
H1005 C981 0.949 . S
H1006 C983 0.950 1_554 S
H1007 C985 0.950 . S
C1008 C1009 1.349 . S
C1008 C1010 1.327 . S
C1008 H1033 0.950 . S
C1009 C1008 1.349 . S
C1009 C1025 1.349 . S
C1010 C1008 1.327 . S
C1010 C1029 1.429 . S
C1010 H1034 0.950 . S
C1011 C1028 1.574 . S
C1011 C1030 1.368 . S
C1011 H1035 0.949 . S
H1012 C1016 0.949 . S
C1013 C1014 1.349 . S
C1013 C1015 1.327 . S
C1013 H1036 0.950 . S
C1014 C1013 1.349 . S
C1014 C1026 1.349 . S
C1015 C1013 1.327 . S
C1015 C1031 1.429 . S
C1015 H1037 0.950 . S
C1016 H1012 0.949 . S
C1016 C1024 1.574 . S
C1016 C1032 1.368 . S
H1017 C1025 0.950 . S
H1018 C1023 0.950 . S
H1019 C1024 0.949 . S
H1020 C1026 0.950 . S
H1021 C1027 0.950 . S
H1022 C1028 0.949 . S
C1023 H1018 0.950 . S
C1023 C1025 1.327 . S
C1023 C1029 1.429 . S
C1024 C1016 1.574 . S
C1024 H1019 0.949 . S
C1024 C1030 1.368 . S
C1025 C1009 1.349 . S
C1025 H1017 0.950 . S
C1025 C1023 1.327 . S
C1026 C1014 1.349 . S
C1026 H1020 0.950 . S
C1026 C1027 1.327 . S
C1027 H1021 0.950 . S
C1027 C1026 1.327 . S
C1027 C1031 1.429 . S
C1028 C1011 1.574 . S
C1028 H1022 0.949 . S
C1028 C1032 1.368 . S
C1029 C1010 1.429 . S
C1029 C1023 1.429 . S
C1029 C1030 1.523 . S
C1030 C1011 1.368 . S
C1030 C1024 1.368 . S
C1030 C1029 1.523 . S
C1031 C1015 1.429 . S
C1031 C1027 1.429 . S
C1031 C1032 1.523 . S
C1032 C1016 1.368 . S
C1032 C1028 1.368 . S
C1032 C1031 1.523 . S
H1033 C1008 0.950 . S
H1034 C1010 0.950 . S
H1035 C1011 0.949 . S
H1036 C1013 0.950 . S
H1037 C1015 0.950 . S
C1038 C1039 1.349 . S
C1038 C1040 1.327 . S
C1038 H1063 0.950 . S
C1039 C1038 1.349 . S
C1039 C1055 1.349 . S
C1040 C1038 1.327 . S
C1040 C1059 1.429 . S
C1040 H1064 0.950 . S
C1041 C1058 1.574 . S
C1041 C1060 1.368 . S
C1041 H1065 0.949 . S
H1042 C1046 0.949 . S
C1043 C1044 1.349 . S
C1043 C1045 1.327 . S
C1043 H1066 0.950 . S
C1044 C1043 1.349 . S
C1044 C1056 1.349 . S
C1045 C1043 1.327 . S
C1045 C1061 1.429 . S
C1045 H1067 0.950 . S
C1046 H1042 0.949 . S
C1046 C1054 1.574 . S
C1046 C1062 1.368 . S
H1047 C1055 0.950 . S
H1048 C1053 0.950 . S
H1049 C1054 0.949 . S
H1050 C1056 0.950 . S
H1051 C1057 0.950 . S
H1052 C1058 0.949 . S
C1053 H1048 0.950 . S
C1053 C1055 1.327 . S
C1053 C1059 1.429 . S
C1054 C1046 1.574 . S
C1054 H1049 0.949 . S
C1054 C1060 1.368 . S
C1055 C1039 1.349 . S
C1055 H1047 0.950 . S
C1055 C1053 1.327 . S
C1056 C1044 1.349 . S
C1056 H1050 0.950 . S
C1056 C1057 1.327 . S
C1057 H1051 0.950 . S
C1057 C1056 1.327 . S
C1057 C1061 1.429 . S
C1058 C1041 1.574 . S
C1058 H1052 0.949 . S
C1058 C1062 1.368 . S
C1059 C1040 1.429 . S
C1059 C1053 1.429 . S
C1059 C1060 1.523 . S
C1060 C1041 1.368 . S
C1060 C1054 1.368 . S
C1060 C1059 1.523 . S
C1061 C1045 1.429 . S
C1061 C1057 1.429 . S
C1061 C1062 1.523 . S
C1062 C1046 1.368 . S
C1062 C1058 1.368 . S
C1062 C1061 1.523 . S
H1063 C1038 0.950 . S
H1064 C1040 0.950 . S
H1065 C1041 0.949 . S
H1066 C1043 0.950 . S
H1067 C1045 0.950 . S
C1068 C1069 1.349 . S
C1068 C1070 1.327 . S
C1068 H1093 0.950 . S
C1069 C1068 1.349 . S
C1069 C1085 1.349 . S
C1070 C1068 1.327 . S
C1070 C1089 1.429 . S
C1070 H1094 0.950 . S
C1071 C1088 1.574 . S
C1071 C1090 1.368 . S
C1071 H1095 0.949 . S
H1072 C1076 0.949 . S
C1073 C1074 1.349 . S
C1073 C1075 1.327 . S
C1073 H1096 0.950 . S
C1074 C1073 1.349 . S
C1074 C1086 1.349 . S
C1075 C1073 1.327 . S
C1075 C1091 1.429 . S
C1075 H1097 0.950 . S
C1076 H1072 0.949 . S
C1076 C1084 1.574 . S
C1076 C1092 1.368 . S
H1077 C1085 0.950 . S
H1078 C1083 0.950 . S
H1079 C1084 0.949 . S
H1080 C1086 0.950 . S
H1081 C1087 0.950 . S
H1082 C1088 0.949 . S
C1083 H1078 0.950 . S
C1083 C1085 1.327 . S
C1083 C1089 1.429 . S
C1084 C1076 1.574 . S
C1084 H1079 0.949 . S
C1084 C1090 1.368 . S
C1085 C1069 1.349 . S
C1085 H1077 0.950 . S
C1085 C1083 1.327 . S
C1086 C1074 1.349 . S
C1086 H1080 0.950 . S
C1086 C1087 1.327 . S
C1087 H1081 0.950 . S
C1087 C1086 1.327 . S
C1087 C1091 1.429 . S
C1088 C1071 1.574 . S
C1088 H1082 0.949 . S
C1088 C1092 1.368 . S
C1089 C1070 1.429 . S
C1089 C1083 1.429 . S
C1089 C1090 1.523 . S
C1090 C1071 1.368 . S
C1090 C1084 1.368 . S
C1090 C1089 1.523 . S
C1091 C1075 1.429 . S
C1091 C1087 1.429 . S
C1091 C1092 1.523 . S
C1092 C1076 1.368 . S
C1092 C1088 1.368 . S
C1092 C1091 1.523 . S
H1093 C1068 0.950 . S
H1094 C1070 0.950 . S
H1095 C1071 0.949 . S
H1096 C1073 0.950 . S
H1097 C1075 0.950 . S
C1098 C1099 1.349 . S
C1098 C1100 1.315 1_655 S
C1098 H1123 0.950 . S
C1099 C1098 1.349 . S
C1099 C1115 1.349 . S
C1100 C1098 1.315 1_455 S
C1100 C1119 1.426 1_455 S
C1100 H1124 0.966 . S
C1101 C1118 1.574 1_556 S
C1101 C1120 1.368 . S
C1101 H1125 0.949 1_455 S
H1102 C1106 0.949 . S
C1103 C1104 1.349 . S
C1103 C1105 1.327 . S
C1103 H1126 0.950 . S
C1104 C1103 1.349 . S
C1104 C1116 1.349 . S
C1105 C1103 1.327 . S
C1105 C1121 1.429 . S
C1105 H1127 0.950 . S
C1106 H1102 0.949 . S
C1106 C1114 1.574 1_554 S
C1106 C1122 1.368 . S
H1107 C1115 0.950 . S
H1108 C1113 0.950 . S
H1109 C1114 0.949 . S
H1110 C1116 0.950 . S
H1111 C1117 0.950 . S
H1112 C1118 0.949 . S
C1113 H1108 0.950 . S
C1113 C1115 1.327 . S
C1113 C1119 1.429 . S
C1114 C1106 1.574 1_556 S
C1114 H1109 0.949 . S
C1114 C1120 1.368 . S
C1115 C1099 1.349 . S
C1115 H1107 0.950 . S
C1115 C1113 1.327 . S
C1116 C1104 1.349 . S
C1116 H1110 0.950 . S
C1116 C1117 1.327 . S
C1117 H1111 0.950 . S
C1117 C1116 1.327 . S
C1117 C1121 1.429 . S
C1118 C1101 1.574 1_554 S
C1118 H1112 0.949 . S
C1118 C1122 1.368 . S
C1119 C1100 1.426 1_655 S
C1119 C1113 1.429 . S
C1119 C1120 1.523 1_655 S
C1120 C1101 1.368 . S
C1120 C1114 1.368 . S
C1120 C1119 1.523 1_455 S
C1121 C1105 1.429 . S
C1121 C1117 1.429 . S
C1121 C1122 1.523 . S
C1122 C1106 1.368 . S
C1122 C1118 1.368 . S
C1122 C1121 1.523 . S
H1123 C1098 0.950 . S
H1124 C1100 0.966 . S
H1125 C1101 0.949 1_655 S
H1126 C1103 0.950 . S
H1127 C1105 0.950 . S
C1128 C1129 1.349 . S
C1128 C1130 1.327 . S
C1128 H1153 0.950 . S
C1129 C1128 1.349 . S
C1129 C1145 1.349 . S
C1130 C1128 1.327 . S
C1130 C1149 1.429 . S
C1130 H1154 0.950 . S
C1131 C1148 1.574 . S
C1131 C1150 1.368 . S
C1131 H1155 0.949 . S
H1132 C1136 0.949 . S
C1133 C1134 1.349 . S
C1133 C1135 1.327 . S
C1133 H1156 0.950 . S
C1134 C1133 1.349 . S
C1134 C1146 1.349 . S
C1135 C1133 1.327 . S
C1135 C1151 1.429 . S
C1135 H1157 0.950 . S
C1136 H1132 0.949 . S
C1136 C1144 1.574 . S
C1136 C1152 1.368 . S
H1137 C1145 0.950 . S
H1138 C1143 0.950 . S
H1139 C1144 0.949 . S
H1140 C1146 0.950 . S
H1141 C1147 0.950 . S
H1142 C1148 0.949 . S
C1143 H1138 0.950 . S
C1143 C1145 1.327 . S
C1143 C1149 1.429 . S
C1144 C1136 1.574 . S
C1144 H1139 0.949 . S
C1144 C1150 1.368 . S
C1145 C1129 1.349 . S
C1145 H1137 0.950 . S
C1145 C1143 1.327 . S
C1146 C1134 1.349 . S
C1146 H1140 0.950 . S
C1146 C1147 1.327 . S
C1147 H1141 0.950 . S
C1147 C1146 1.327 . S
C1147 C1151 1.429 . S
C1148 C1131 1.574 . S
C1148 H1142 0.949 . S
C1148 C1152 1.368 . S
C1149 C1130 1.429 . S
C1149 C1143 1.429 . S
C1149 C1150 1.523 . S
C1150 C1131 1.368 . S
C1150 C1144 1.368 . S
C1150 C1149 1.523 . S
C1151 C1135 1.429 . S
C1151 C1147 1.429 . S
C1151 C1152 1.523 . S
C1152 C1136 1.368 . S
C1152 C1148 1.368 . S
C1152 C1151 1.523 . S
H1153 C1128 0.950 . S
H1154 C1130 0.950 . S
H1155 C1131 0.949 . S
H1156 C1133 0.950 . S
H1157 C1135 0.950 . S
C1158 C1159 1.349 . S
C1158 C1160 1.327 . S
C1158 H1183 0.950 . S
C1159 C1158 1.349 . S
C1159 C1175 1.349 . S
C1160 C1158 1.327 . S
C1160 C1179 1.429 . S
C1160 H1184 0.950 . S
C1161 C1178 1.574 . S
C1161 C1180 1.368 . S
C1161 H1185 0.949 . S
H1162 C1166 0.949 . S
C1163 C1164 1.349 . S
C1163 C1165 1.327 . S
C1163 H1186 0.950 . S
C1164 C1163 1.349 . S
C1164 C1176 1.349 . S
C1165 C1163 1.327 . S
C1165 C1181 1.429 . S
C1165 H1187 0.950 . S
C1166 H1162 0.949 . S
C1166 C1174 1.574 . S
C1166 C1182 1.368 . S
H1167 C1175 0.950 . S
H1168 C1173 0.950 . S
H1169 C1174 0.949 . S
H1170 C1176 0.950 . S
H1171 C1177 0.950 . S
H1172 C1178 0.949 . S
C1173 H1168 0.950 . S
C1173 C1175 1.327 . S
C1173 C1179 1.429 . S
C1174 C1166 1.574 . S
C1174 H1169 0.949 . S
C1174 C1180 1.368 . S
C1175 C1159 1.349 . S
C1175 H1167 0.950 . S
C1175 C1173 1.327 . S
C1176 C1164 1.349 . S
C1176 H1170 0.950 . S
C1176 C1177 1.327 . S
C1177 H1171 0.950 . S
C1177 C1176 1.327 . S
C1177 C1181 1.429 . S
C1178 C1161 1.574 . S
C1178 H1172 0.949 . S
C1178 C1182 1.368 . S
C1179 C1160 1.429 . S
C1179 C1173 1.429 . S
C1179 C1180 1.523 . S
C1180 C1161 1.368 . S
C1180 C1174 1.368 . S
C1180 C1179 1.523 . S
C1181 C1165 1.429 . S
C1181 C1177 1.429 . S
C1181 C1182 1.523 . S
C1182 C1166 1.368 . S
C1182 C1178 1.368 . S
C1182 C1181 1.523 . S
H1183 C1158 0.950 . S
H1184 C1160 0.950 . S
H1185 C1161 0.949 . S
H1186 C1163 0.950 . S
H1187 C1165 0.950 . S
C1188 C1189 1.349 . S
C1188 C1190 1.327 . S
C1188 H1213 0.950 . S
C1189 C1188 1.349 . S
C1189 C1205 1.349 . S
C1190 C1188 1.327 . S
C1190 C1209 1.456 . S
C1190 H1214 0.950 . S
C1191 C1208 1.574 1_654 S
C1191 C1210 1.368 . S
C1191 H1215 0.926 1_655 S
H1192 C1196 0.949 . S
C1193 C1194 1.349 . S
C1193 C1195 1.327 . S
C1193 H1216 0.950 . S
C1194 C1193 1.349 . S
C1194 C1206 1.368 . S
C1195 C1193 1.327 . S
C1195 C1211 1.429 . S
C1195 H1217 0.950 . S
C1196 H1192 0.949 . S
C1196 C1204 1.569 1_545 S
C1196 C1212 1.368 . S
H1197 C1205 0.950 1_545 S
H1198 C1203 0.950 . S
H1199 C1204 0.958 . S
H1200 C1206 0.940 1_655 S
H1201 C1207 0.950 . S
H1202 C1208 0.949 . S
C1203 H1198 0.950 . S
C1203 C1205 1.327 1_545 S
C1203 C1209 1.418 1_545 S
C1204 C1196 1.569 1_565 S
C1204 H1199 0.958 . S
C1204 C1210 1.363 1_566 S
C1205 C1189 1.349 . S
C1205 H1197 0.950 1_565 S
C1205 C1203 1.327 1_565 S
C1206 C1194 1.368 . S
C1206 H1200 0.940 1_455 S
C1206 C1207 1.318 1_455 S
C1207 H1201 0.950 . S
C1207 C1206 1.318 1_655 S
C1207 C1211 1.429 1_655 S
C1208 C1191 1.574 1_456 S
C1208 H1202 0.949 . S
C1208 C1212 1.368 1_455 S
C1209 C1190 1.456 . S
C1209 C1203 1.418 1_565 S
C1209 C1210 1.509 1_565 S
C1210 C1191 1.368 . S
C1210 C1204 1.363 1_544 S
C1210 C1209 1.509 1_545 S
C1211 C1195 1.429 . S
C1211 C1207 1.429 1_455 S
C1211 C1212 1.523 1_455 S
C1212 C1196 1.368 . S
C1212 C1208 1.368 1_655 S
C1212 C1211 1.523 1_655 S
H1213 C1188 0.950 . S
H1214 C1190 0.950 . S
H1215 C1191 0.926 1_455 S
H1216 C1193 0.950 . S
H1217 C1195 0.950 . S
C1218 C1219 1.349 . S
C1218 C1220 1.327 . S
C1218 H1243 0.950 . S
C1219 C1218 1.349 . S
C1219 C1235 1.349 . S
C1220 C1218 1.327 . S
C1220 C1239 1.429 . S
C1220 H1244 0.950 1_565 S
C1221 C1238 1.574 . S
C1221 C1240 1.368 . S
C1221 H1245 0.949 . S
H1222 C1226 0.949 . S
C1223 C1224 1.349 1_565 S
C1223 C1225 1.327 . S
C1223 H1246 0.950 . S
C1224 C1223 1.349 1_545 S
C1224 C1236 1.349 . S
C1225 C1223 1.327 . S
C1225 C1241 1.399 1_565 S
C1225 H1247 0.950 . S
C1226 H1222 0.949 . S
C1226 C1234 1.574 . S
C1226 C1242 1.368 1_545 S
H1227 C1235 0.950 . S
H1228 C1233 0.950 . S
H1229 C1234 0.949 . S
H1230 C1236 0.950 . S
H1231 C1237 0.950 . S
H1232 C1238 0.949 . S
C1233 H1228 0.950 . S
C1233 C1235 1.327 . S
C1233 C1239 1.429 . S
C1234 C1226 1.574 . S
C1234 H1229 0.949 . S
C1234 C1240 1.368 1_545 S
C1235 C1219 1.349 . S
C1235 H1227 0.950 . S
C1235 C1233 1.327 . S
C1236 C1224 1.349 . S
C1236 H1230 0.950 . S
C1236 C1237 1.327 . S
C1237 H1231 0.950 . S
C1237 C1236 1.327 . S
C1237 C1241 1.475 . S
C1238 C1221 1.574 . S
C1238 H1232 0.949 . S
C1238 C1242 1.368 . S
C1239 C1220 1.429 . S
C1239 C1233 1.429 . S
C1239 C1240 1.523 . S
C1240 C1221 1.368 . S
C1240 C1234 1.368 1_565 S
C1240 C1239 1.523 . S
C1241 C1225 1.399 1_545 S
C1241 C1237 1.475 . S
C1241 C1242 1.509 1_545 S
C1242 C1226 1.368 1_565 S
C1242 C1238 1.368 . S
C1242 C1241 1.509 1_565 S
H1243 C1218 0.950 . S
H1244 C1220 0.950 1_545 S
H1245 C1221 0.949 . S
H1246 C1223 0.950 . S
H1247 C1225 0.950 . S
C1248 C1249 1.349 . S
C1248 C1250 1.327 . S
C1248 H1273 0.950 . S
C1249 C1248 1.349 . S
C1249 C1265 1.349 . S
C1250 C1248 1.327 . S
C1250 C1269 1.429 . S
C1250 H1274 0.950 . S
C1251 C1268 1.574 . S
C1251 C1270 1.368 . S
C1251 H1275 0.949 . S
H1252 C1256 0.949 . S
C1253 C1254 1.349 . S
C1253 C1255 1.327 . S
C1253 H1276 0.950 . S
C1254 C1253 1.349 . S
C1254 C1266 1.349 . S
C1255 C1253 1.327 . S
C1255 C1271 1.429 . S
C1255 H1277 0.950 . S
C1256 H1252 0.949 . S
C1256 C1264 1.574 . S
C1256 C1272 1.368 . S
H1257 C1265 0.950 . S
H1258 C1263 0.950 . S
H1259 C1264 0.949 . S
H1260 C1266 0.950 . S
H1261 C1267 0.950 . S
H1262 C1268 0.949 . S
C1263 H1258 0.950 . S
C1263 C1265 1.327 . S
C1263 C1269 1.429 . S
C1264 C1256 1.574 . S
C1264 H1259 0.949 . S
C1264 C1270 1.368 . S
C1265 C1249 1.349 . S
C1265 H1257 0.950 . S
C1265 C1263 1.327 . S
C1266 C1254 1.349 . S
C1266 H1260 0.950 . S
C1266 C1267 1.327 . S
C1267 H1261 0.950 . S
C1267 C1266 1.327 . S
C1267 C1271 1.429 . S
C1268 C1251 1.574 . S
C1268 H1262 0.949 . S
C1268 C1272 1.368 . S
C1269 C1250 1.429 . S
C1269 C1263 1.429 . S
C1269 C1270 1.523 . S
C1270 C1251 1.368 . S
C1270 C1264 1.368 . S
C1270 C1269 1.523 . S
C1271 C1255 1.429 . S
C1271 C1267 1.429 . S
C1271 C1272 1.523 . S
C1272 C1256 1.368 . S
C1272 C1268 1.368 . S
C1272 C1271 1.523 . S
H1273 C1248 0.950 . S
H1274 C1250 0.950 . S
H1275 C1251 0.949 . S
H1276 C1253 0.950 . S
H1277 C1255 0.950 . S
C1278 C1279 1.349 . S
C1278 C1280 1.327 . S
C1278 H1303 0.950 . S
C1279 C1278 1.349 . S
C1279 C1295 1.349 . S
C1280 C1278 1.327 . S
C1280 C1299 1.429 . S
C1280 H1304 0.950 . S
C1281 C1298 1.574 . S
C1281 C1300 1.368 . S
C1281 H1305 0.949 . S
H1282 C1286 0.949 . S
C1283 C1284 1.349 . S
C1283 C1285 1.327 . S
C1283 H1306 0.950 . S
C1284 C1283 1.349 . S
C1284 C1296 1.349 . S
C1285 C1283 1.327 . S
C1285 C1301 1.429 . S
C1285 H1307 0.950 . S
C1286 H1282 0.949 . S
C1286 C1294 1.574 . S
C1286 C1302 1.368 . S
H1287 C1295 0.950 . S
H1288 C1293 0.950 . S
H1289 C1294 0.949 . S
H1290 C1296 0.950 . S
H1291 C1297 0.950 . S
H1292 C1298 0.949 . S
C1293 H1288 0.950 . S
C1293 C1295 1.327 . S
C1293 C1299 1.429 . S
C1294 C1286 1.574 . S
C1294 H1289 0.949 . S
C1294 C1300 1.368 . S
C1295 C1279 1.349 . S
C1295 H1287 0.950 . S
C1295 C1293 1.327 . S
C1296 C1284 1.349 . S
C1296 H1290 0.950 . S
C1296 C1297 1.327 . S
C1297 H1291 0.950 . S
C1297 C1296 1.327 . S
C1297 C1301 1.429 . S
C1298 C1281 1.574 . S
C1298 H1292 0.949 . S
C1298 C1302 1.368 . S
C1299 C1280 1.429 . S
C1299 C1293 1.429 . S
C1299 C1300 1.523 . S
C1300 C1281 1.368 . S
C1300 C1294 1.368 . S
C1300 C1299 1.523 . S
C1301 C1285 1.429 . S
C1301 C1297 1.429 . S
C1301 C1302 1.523 . S
C1302 C1286 1.368 . S
C1302 C1298 1.368 . S
C1302 C1301 1.523 . S
H1303 C1278 0.950 . S
H1304 C1280 0.950 . S
H1305 C1281 0.949 . S
H1306 C1283 0.950 . S
H1307 C1285 0.950 . S
C1308 C1309 1.349 . S
C1308 C1310 1.327 . S
C1308 H1333 0.950 . S
C1309 C1308 1.349 . S
C1309 C1325 1.349 . S
C1310 C1308 1.327 . S
C1310 C1329 1.429 . S
C1310 H1334 0.950 . S
C1311 C1328 1.574 . S
C1311 C1330 1.368 . S
C1311 H1335 0.949 . S
H1312 C1316 0.949 . S
C1313 C1314 1.349 . S
C1313 C1315 1.327 . S
C1313 H1336 0.950 . S
C1314 C1313 1.349 . S
C1314 C1326 1.349 . S
C1315 C1313 1.327 . S
C1315 C1331 1.429 . S
C1315 H1337 0.950 . S
C1316 H1312 0.949 . S
C1316 C1324 1.574 . S
C1316 C1332 1.368 . S
H1317 C1325 0.950 . S
H1318 C1323 0.950 . S
H1319 C1324 0.949 . S
H1320 C1326 0.950 . S
H1321 C1327 0.950 . S
H1322 C1328 0.949 . S
C1323 H1318 0.950 . S
C1323 C1325 1.327 . S
C1323 C1329 1.429 . S
C1324 C1316 1.574 . S
C1324 H1319 0.949 . S
C1324 C1330 1.368 . S
C1325 C1309 1.349 . S
C1325 H1317 0.950 . S
C1325 C1323 1.327 . S
C1326 C1314 1.349 . S
C1326 H1320 0.950 . S
C1326 C1327 1.327 . S
C1327 H1321 0.950 . S
C1327 C1326 1.327 . S
C1327 C1331 1.429 . S
C1328 C1311 1.574 . S
C1328 H1322 0.949 . S
C1328 C1332 1.368 . S
C1329 C1310 1.429 . S
C1329 C1323 1.429 . S
C1329 C1330 1.523 . S
C1330 C1311 1.368 . S
C1330 C1324 1.368 . S
C1330 C1329 1.523 . S
C1331 C1315 1.429 . S
C1331 C1327 1.429 . S
C1331 C1332 1.523 . S
C1332 C1316 1.368 . S
C1332 C1328 1.368 . S
C1332 C1331 1.523 . S
H1333 C1308 0.950 . S
H1334 C1310 0.950 . S
H1335 C1311 0.949 . S
H1336 C1313 0.950 . S
H1337 C1315 0.950 . S
C1338 C1339 1.349 . S
C1338 C1340 1.327 . S
C1338 H1363 0.950 . S
C1339 C1338 1.349 . S
C1339 C1355 1.349 . S
C1340 C1338 1.327 . S
C1340 C1359 1.429 . S
C1340 H1364 0.950 . S
C1341 C1358 1.574 . S
C1341 C1360 1.368 . S
C1341 H1365 0.949 . S
H1342 C1346 0.949 . S
C1343 C1344 1.349 . S
C1343 C1345 1.327 . S
C1343 H1366 0.950 . S
C1344 C1343 1.349 . S
C1344 C1356 1.349 . S
C1345 C1343 1.327 . S
C1345 C1361 1.429 . S
C1345 H1367 0.950 . S
C1346 H1342 0.949 . S
C1346 C1354 1.574 . S
C1346 C1362 1.368 . S
H1347 C1355 0.950 . S
H1348 C1353 0.950 . S
H1349 C1354 0.949 . S
H1350 C1356 0.950 . S
H1351 C1357 0.950 . S
H1352 C1358 0.949 . S
C1353 H1348 0.950 . S
C1353 C1355 1.327 . S
C1353 C1359 1.429 . S
C1354 C1346 1.574 . S
C1354 H1349 0.949 . S
C1354 C1360 1.368 . S
C1355 C1339 1.349 . S
C1355 H1347 0.950 . S
C1355 C1353 1.327 . S
C1356 C1344 1.349 . S
C1356 H1350 0.950 . S
C1356 C1357 1.327 . S
C1357 H1351 0.950 . S
C1357 C1356 1.327 . S
C1357 C1361 1.429 . S
C1358 C1341 1.574 . S
C1358 H1352 0.949 . S
C1358 C1362 1.368 . S
C1359 C1340 1.429 . S
C1359 C1353 1.429 . S
C1359 C1360 1.523 . S
C1360 C1341 1.368 . S
C1360 C1354 1.368 . S
C1360 C1359 1.523 . S
C1361 C1345 1.429 . S
C1361 C1357 1.429 . S
C1361 C1362 1.523 . S
C1362 C1346 1.368 . S
C1362 C1358 1.368 . S
C1362 C1361 1.523 . S
H1363 C1338 0.950 . S
H1364 C1340 0.950 . S
H1365 C1341 0.949 . S
H1366 C1343 0.950 . S
H1367 C1345 0.950 . S
C1368 C1369 1.349 . S
C1368 C1370 1.327 . S
C1368 H1393 0.950 . S
C1369 C1368 1.349 . S
C1369 C1385 1.349 . S
C1370 C1368 1.327 . S
C1370 C1389 1.429 . S
C1370 H1394 0.950 . S
C1371 C1388 1.574 . S
C1371 C1390 1.368 . S
C1371 H1395 0.949 . S
H1372 C1376 0.949 . S
C1373 C1374 1.349 . S
C1373 C1375 1.327 . S
C1373 H1396 0.950 . S
C1374 C1373 1.349 . S
C1374 C1386 1.349 . S
C1375 C1373 1.327 . S
C1375 C1391 1.429 . S
C1375 H1397 0.950 . S
C1376 H1372 0.949 . S
C1376 C1384 1.574 . S
C1376 C1392 1.368 . S
H1377 C1385 0.950 . S
H1378 C1383 0.950 . S
H1379 C1384 0.949 . S
H1380 C1386 0.950 . S
H1381 C1387 0.950 . S
H1382 C1388 0.949 . S
C1383 H1378 0.950 . S
C1383 C1385 1.327 . S
C1383 C1389 1.429 . S
C1384 C1376 1.574 . S
C1384 H1379 0.949 . S
C1384 C1390 1.368 . S
C1385 C1369 1.349 . S
C1385 H1377 0.950 . S
C1385 C1383 1.327 . S
C1386 C1374 1.349 . S
C1386 H1380 0.950 . S
C1386 C1387 1.327 . S
C1387 H1381 0.950 . S
C1387 C1386 1.327 . S
C1387 C1391 1.429 . S
C1388 C1371 1.574 . S
C1388 H1382 0.949 . S
C1388 C1392 1.368 . S
C1389 C1370 1.429 . S
C1389 C1383 1.429 . S
C1389 C1390 1.523 . S
C1390 C1371 1.368 . S
C1390 C1384 1.368 . S
C1390 C1389 1.523 . S
C1391 C1375 1.429 . S
C1391 C1387 1.429 . S
C1391 C1392 1.523 . S
C1392 C1376 1.368 . S
C1392 C1388 1.368 . S
C1392 C1391 1.523 . S
H1393 C1368 0.950 . S
H1394 C1370 0.950 . S
H1395 C1371 0.949 . S
H1396 C1373 0.950 . S
H1397 C1375 0.950 . S
C1398 C1399 1.349 . S
C1398 C1400 1.327 . S
C1398 H1423 0.950 . S
C1399 C1398 1.349 . S
C1399 C1415 1.349 . S
C1400 C1398 1.327 . S
C1400 C1419 1.429 . S
C1400 H1424 0.950 . S
C1401 C1418 1.574 . S
C1401 C1420 1.368 . S
C1401 H1425 0.949 . S
H1402 C1406 0.949 . S
C1403 C1404 1.349 . S
C1403 C1405 1.327 . S
C1403 H1426 0.950 . S
C1404 C1403 1.349 . S
C1404 C1416 1.349 . S
C1405 C1403 1.327 . S
C1405 C1421 1.429 . S
C1405 H1427 0.950 . S
C1406 H1402 0.949 . S
C1406 C1414 1.574 . S
C1406 C1422 1.368 . S
H1407 C1415 0.950 . S
H1408 C1413 0.950 . S
H1409 C1414 0.949 . S
H1410 C1416 0.950 . S
H1411 C1417 0.950 . S
H1412 C1418 0.949 . S
C1413 H1408 0.950 . S
C1413 C1415 1.327 . S
C1413 C1419 1.429 . S
C1414 C1406 1.574 . S
C1414 H1409 0.949 . S
C1414 C1420 1.368 . S
C1415 C1399 1.349 . S
C1415 H1407 0.950 . S
C1415 C1413 1.327 . S
C1416 C1404 1.349 . S
C1416 H1410 0.950 . S
C1416 C1417 1.327 . S
C1417 H1411 0.950 . S
C1417 C1416 1.327 . S
C1417 C1421 1.429 . S
C1418 C1401 1.574 . S
C1418 H1412 0.949 . S
C1418 C1422 1.368 . S
C1419 C1400 1.429 . S
C1419 C1413 1.429 . S
C1419 C1420 1.523 . S
C1420 C1401 1.368 . S
C1420 C1414 1.368 . S
C1420 C1419 1.523 . S
C1421 C1405 1.429 . S
C1421 C1417 1.429 . S
C1421 C1422 1.523 . S
C1422 C1406 1.368 . S
C1422 C1418 1.368 . S
C1422 C1421 1.523 . S
H1423 C1398 0.950 . S
H1424 C1400 0.950 . S
H1425 C1401 0.949 . S
H1426 C1403 0.950 . S
H1427 C1405 0.950 . S
C1428 C1429 1.349 . S
C1428 C1430 1.327 . S
C1428 H1453 0.950 . S
C1429 C1428 1.349 . S
C1429 C1445 1.349 . S
C1430 C1428 1.327 . S
C1430 C1449 1.429 . S
C1430 H1454 0.950 . S
C1431 C1448 1.574 . S
C1431 C1450 1.368 . S
C1431 H1455 0.949 . S
H1432 C1436 0.949 . S
C1433 C1434 1.349 . S
C1433 C1435 1.327 . S
C1433 H1456 0.950 . S
C1434 C1433 1.349 . S
C1434 C1446 1.349 . S
C1435 C1433 1.327 . S
C1435 C1451 1.429 . S
C1435 H1457 0.950 . S
C1436 H1432 0.949 . S
C1436 C1444 1.574 . S
C1436 C1452 1.368 . S
H1437 C1445 0.950 . S
H1438 C1443 0.950 . S
H1439 C1444 0.949 . S
H1440 C1446 0.950 . S
H1441 C1447 0.950 . S
H1442 C1448 0.949 . S
C1443 H1438 0.950 . S
C1443 C1445 1.327 . S
C1443 C1449 1.429 . S
C1444 C1436 1.574 . S
C1444 H1439 0.949 . S
C1444 C1450 1.368 . S
C1445 C1429 1.349 . S
C1445 H1437 0.950 . S
C1445 C1443 1.327 . S
C1446 C1434 1.349 . S
C1446 H1440 0.950 . S
C1446 C1447 1.327 . S
C1447 H1441 0.950 . S
C1447 C1446 1.327 . S
C1447 C1451 1.429 . S
C1448 C1431 1.574 . S
C1448 H1442 0.949 . S
C1448 C1452 1.368 . S
C1449 C1430 1.429 . S
C1449 C1443 1.429 . S
C1449 C1450 1.523 . S
C1450 C1431 1.368 . S
C1450 C1444 1.368 . S
C1450 C1449 1.523 . S
C1451 C1435 1.429 . S
C1451 C1447 1.429 . S
C1451 C1452 1.523 . S
C1452 C1436 1.368 . S
C1452 C1448 1.368 . S
C1452 C1451 1.523 . S
H1453 C1428 0.950 . S
H1454 C1430 0.950 . S
H1455 C1431 0.949 . S
H1456 C1433 0.950 . S
H1457 C1435 0.950 . S
C1458 C1459 1.349 . S
C1458 C1460 1.327 . S
C1458 H1483 0.950 . S
C1459 C1458 1.349 . S
C1459 C1475 1.349 . S
C1460 C1458 1.327 . S
C1460 C1479 1.429 . S
C1460 H1484 0.950 . S
C1461 C1478 1.574 . S
C1461 C1480 1.368 . S
C1461 H1485 0.949 . S
H1462 C1466 0.949 . S
C1463 C1464 1.349 . S
C1463 C1465 1.327 . S
C1463 H1486 0.950 . S
C1464 C1463 1.349 . S
C1464 C1476 1.349 . S
C1465 C1463 1.327 . S
C1465 C1481 1.429 . S
C1465 H1487 0.950 . S
C1466 H1462 0.949 . S
C1466 C1474 1.574 . S
C1466 C1482 1.368 . S
H1467 C1475 0.950 . S
H1468 C1473 0.950 . S
H1469 C1474 0.949 . S
H1470 C1476 0.950 . S
H1471 C1477 0.950 . S
H1472 C1478 0.949 . S
C1473 H1468 0.950 . S
C1473 C1475 1.327 . S
C1473 C1479 1.429 . S
C1474 C1466 1.574 . S
C1474 H1469 0.949 . S
C1474 C1480 1.368 . S
C1475 C1459 1.349 . S
C1475 H1467 0.950 . S
C1475 C1473 1.327 . S
C1476 C1464 1.349 . S
C1476 H1470 0.950 . S
C1476 C1477 1.327 . S
C1477 H1471 0.950 . S
C1477 C1476 1.327 . S
C1477 C1481 1.429 . S
C1478 C1461 1.574 . S
C1478 H1472 0.949 . S
C1478 C1482 1.368 . S
C1479 C1460 1.429 . S
C1479 C1473 1.429 . S
C1479 C1480 1.523 . S
C1480 C1461 1.368 . S
C1480 C1474 1.368 . S
C1480 C1479 1.523 . S
C1481 C1465 1.429 . S
C1481 C1477 1.429 . S
C1481 C1482 1.523 . S
C1482 C1466 1.368 . S
C1482 C1478 1.368 . S
C1482 C1481 1.523 . S
H1483 C1458 0.950 . S
H1484 C1460 0.950 . S
H1485 C1461 0.949 . S
H1486 C1463 0.950 . S
H1487 C1465 0.950 . S
C1488 C1489 1.349 . S
C1488 C1490 1.327 . S
C1488 H1513 0.950 . S
C1489 C1488 1.349 . S
C1489 C1505 1.349 . S
C1490 C1488 1.327 . S
C1490 C1509 1.429 . S
C1490 H1514 0.950 . S
C1491 C1508 1.574 . S
C1491 C1510 1.368 . S
C1491 H1515 0.949 . S
H1492 C1496 0.949 . S
C1493 C1494 1.349 . S
C1493 C1495 1.327 . S
C1493 H1516 0.950 . S
C1494 C1493 1.349 . S
C1494 C1506 1.349 . S
C1495 C1493 1.327 . S
C1495 C1511 1.429 . S
C1495 H1517 0.950 . S
C1496 H1492 0.949 . S
C1496 C1504 1.574 . S
C1496 C1512 1.368 . S
H1497 C1505 0.950 . S
H1498 C1503 0.950 . S
H1499 C1504 0.949 . S
H1500 C1506 0.950 . S
H1501 C1507 0.950 . S
H1502 C1508 0.949 . S
C1503 H1498 0.950 . S
C1503 C1505 1.327 . S
C1503 C1509 1.429 . S
C1504 C1496 1.574 . S
C1504 H1499 0.949 . S
C1504 C1510 1.368 . S
C1505 C1489 1.349 . S
C1505 H1497 0.950 . S
C1505 C1503 1.327 . S
C1506 C1494 1.349 . S
C1506 H1500 0.950 . S
C1506 C1507 1.327 . S
C1507 H1501 0.950 . S
C1507 C1506 1.327 . S
C1507 C1511 1.429 . S
C1508 C1491 1.574 . S
C1508 H1502 0.949 . S
C1508 C1512 1.368 . S
C1509 C1490 1.429 . S
C1509 C1503 1.429 . S
C1509 C1510 1.523 . S
C1510 C1491 1.368 . S
C1510 C1504 1.368 . S
C1510 C1509 1.523 . S
C1511 C1495 1.429 . S
C1511 C1507 1.429 . S
C1511 C1512 1.523 . S
C1512 C1496 1.368 . S
C1512 C1508 1.368 . S
C1512 C1511 1.523 . S
H1513 C1488 0.950 . S
H1514 C1490 0.950 . S
H1515 C1491 0.949 . S
H1516 C1493 0.950 . S
H1517 C1495 0.950 . S
C1518 C1519 1.349 . S
C1518 C1520 1.327 1_545 S
C1518 H1543 0.950 . S
C1519 C1518 1.349 . S
C1519 C1535 1.349 1_545 S
C1520 C1518 1.327 1_565 S
C1520 C1539 1.429 . S
C1520 H1544 0.950 . S
C1521 C1538 1.574 . S
C1521 C1540 1.368 . S
C1521 H1545 0.949 . S
H1522 C1526 0.949 . S
C1523 C1524 1.349 . S
C1523 C1525 1.327 . S
C1523 H1546 0.950 . S
C1524 C1523 1.349 . S
C1524 C1536 1.349 . S
C1525 C1523 1.327 . S
C1525 C1541 1.429 . S
C1525 H1547 0.950 . S
C1526 H1522 0.949 . S
C1526 C1534 1.574 . S
C1526 C1542 1.368 . S
H1527 C1535 0.950 . S
H1528 C1533 0.950 . S
H1529 C1534 0.949 . S
H1530 C1536 0.950 . S
H1531 C1537 0.950 . S
H1532 C1538 0.949 . S
C1533 H1528 0.950 . S
C1533 C1535 1.327 . S
C1533 C1539 1.429 . S
C1534 C1526 1.574 . S
C1534 H1529 0.949 . S
C1534 C1540 1.368 . S
C1535 C1519 1.349 1_565 S
C1535 H1527 0.950 . S
C1535 C1533 1.327 . S
C1536 C1524 1.349 . S
C1536 H1530 0.950 . S
C1536 C1537 1.327 . S
C1537 H1531 0.950 . S
C1537 C1536 1.327 . S
C1537 C1541 1.429 . S
C1538 C1521 1.574 . S
C1538 H1532 0.949 . S
C1538 C1542 1.368 . S
C1539 C1520 1.429 . S
C1539 C1533 1.429 . S
C1539 C1540 1.523 . S
C1540 C1521 1.368 . S
C1540 C1534 1.368 . S
C1540 C1539 1.523 . S
C1541 C1525 1.429 . S
C1541 C1537 1.429 . S
C1541 C1542 1.523 . S
C1542 C1526 1.368 . S
C1542 C1538 1.368 . S
C1542 C1541 1.523 . S
H1543 C1518 0.950 . S
H1544 C1520 0.950 . S
H1545 C1521 0.949 . S
H1546 C1523 0.950 . S
H1547 C1525 0.950 . S
C1548 C1549 1.349 . S
C1548 C1550 1.327 . S
C1548 H1573 0.950 . S
C1549 C1548 1.349 . S
C1549 C1565 1.349 . S
C1550 C1548 1.327 . S
C1550 C1569 1.429 . S
C1550 H1574 0.950 . S
C1551 C1568 1.574 . S
C1551 C1570 1.368 . S
C1551 H1575 0.949 . S
H1552 C1556 0.949 . S
C1553 C1554 1.349 . S
C1553 C1555 1.327 . S
C1553 H1576 0.950 . S
C1554 C1553 1.349 . S
C1554 C1566 1.349 . S
C1555 C1553 1.327 . S
C1555 C1571 1.429 . S
C1555 H1577 0.950 . S
C1556 H1552 0.949 . S
C1556 C1564 1.574 . S
C1556 C1572 1.368 . S
H1557 C1565 0.950 . S
H1558 C1563 0.950 . S
H1559 C1564 0.949 . S
H1560 C1566 0.950 . S
H1561 C1567 0.950 . S
H1562 C1568 0.949 . S
C1563 H1558 0.950 . S
C1563 C1565 1.327 . S
C1563 C1569 1.429 . S
C1564 C1556 1.574 . S
C1564 H1559 0.949 . S
C1564 C1570 1.368 . S
C1565 C1549 1.349 . S
C1565 H1557 0.950 . S
C1565 C1563 1.327 . S
C1566 C1554 1.349 . S
C1566 H1560 0.950 . S
C1566 C1567 1.327 . S
C1567 H1561 0.950 . S
C1567 C1566 1.327 . S
C1567 C1571 1.429 . S
C1568 C1551 1.574 . S
C1568 H1562 0.949 . S
C1568 C1572 1.368 . S
C1569 C1550 1.429 . S
C1569 C1563 1.429 . S
C1569 C1570 1.523 . S
C1570 C1551 1.368 . S
C1570 C1564 1.368 . S
C1570 C1569 1.523 . S
C1571 C1555 1.429 . S
C1571 C1567 1.429 . S
C1571 C1572 1.523 . S
C1572 C1556 1.368 . S
C1572 C1568 1.368 . S
C1572 C1571 1.523 . S
H1573 C1548 0.950 . S
H1574 C1550 0.950 . S
H1575 C1551 0.949 . S
H1576 C1553 0.950 . S
H1577 C1555 0.950 . S
C1578 C1579 1.349 . S
C1578 C1580 1.327 1_565 S
C1578 H1603 0.950 . S
C1579 C1578 1.349 . S
C1579 C1595 1.349 1_565 S
C1580 C1578 1.327 1_545 S
C1580 C1599 1.429 . S
C1580 H1604 0.950 . S
C1581 C1598 1.574 . S
C1581 C1600 1.368 . S
C1581 H1605 0.949 . S
H1582 C1586 0.949 . S
C1583 C1584 1.349 . S
C1583 C1585 1.327 . S
C1583 H1606 0.950 . S
C1584 C1583 1.349 . S
C1584 C1596 1.349 . S
C1585 C1583 1.327 . S
C1585 C1601 1.429 . S
C1585 H1607 0.950 . S
C1586 H1582 0.949 . S
C1586 C1594 1.574 . S
C1586 C1602 1.368 . S
H1587 C1595 0.950 . S
H1588 C1593 0.950 . S
H1589 C1594 0.949 . S
H1590 C1596 0.950 . S
H1591 C1597 0.950 . S
H1592 C1598 0.949 . S
C1593 H1588 0.950 . S
C1593 C1595 1.327 . S
C1593 C1599 1.429 . S
C1594 C1586 1.574 . S
C1594 H1589 0.949 . S
C1594 C1600 1.368 . S
C1595 C1579 1.349 1_545 S
C1595 H1587 0.950 . S
C1595 C1593 1.327 . S
C1596 C1584 1.349 . S
C1596 H1590 0.950 . S
C1596 C1597 1.327 . S
C1597 H1591 0.950 . S
C1597 C1596 1.327 . S
C1597 C1601 1.429 . S
C1598 C1581 1.574 . S
C1598 H1592 0.949 . S
C1598 C1602 1.368 . S
C1599 C1580 1.429 . S
C1599 C1593 1.429 . S
C1599 C1600 1.523 . S
C1600 C1581 1.368 . S
C1600 C1594 1.368 . S
C1600 C1599 1.523 . S
C1601 C1585 1.429 . S
C1601 C1597 1.429 . S
C1601 C1602 1.523 . S
C1602 C1586 1.368 . S
C1602 C1598 1.368 . S
C1602 C1601 1.523 . S
H1603 C1578 0.950 . S
H1604 C1580 0.950 . S
H1605 C1581 0.949 . S
H1606 C1583 0.950 . S
H1607 C1585 0.950 . S
C1608 C1609 1.349 . S
C1608 C1610 1.327 . S
C1608 H1633 0.950 . S
C1609 C1608 1.349 . S
C1609 C1625 1.349 . S
C1610 C1608 1.327 . S
C1610 C1629 1.429 . S
C1610 H1634 0.950 . S
C1611 C1628 1.574 . S
C1611 C1630 1.368 . S
C1611 H1635 0.949 . S
H1612 C1616 0.949 . S
C1613 C1614 1.349 . S
C1613 C1615 1.327 . S
C1613 H1636 0.950 . S
C1614 C1613 1.349 . S
C1614 C1626 1.349 . S
C1615 C1613 1.327 . S
C1615 C1631 1.429 . S
C1615 H1637 0.950 . S
C1616 H1612 0.949 . S
C1616 C1624 1.574 . S
C1616 C1632 1.368 . S
H1617 C1625 0.950 . S
H1618 C1623 0.950 . S
H1619 C1624 0.949 . S
H1620 C1626 0.950 . S
H1621 C1627 0.950 . S
H1622 C1628 0.949 . S
C1623 H1618 0.950 . S
C1623 C1625 1.327 . S
C1623 C1629 1.429 . S
C1624 C1616 1.574 . S
C1624 H1619 0.949 . S
C1624 C1630 1.368 . S
C1625 C1609 1.349 . S
C1625 H1617 0.950 . S
C1625 C1623 1.327 . S
C1626 C1614 1.349 . S
C1626 H1620 0.950 . S
C1626 C1627 1.327 . S
C1627 H1621 0.950 . S
C1627 C1626 1.327 . S
C1627 C1631 1.429 . S
C1628 C1611 1.574 . S
C1628 H1622 0.949 . S
C1628 C1632 1.368 . S
C1629 C1610 1.429 . S
C1629 C1623 1.429 . S
C1629 C1630 1.523 . S
C1630 C1611 1.368 . S
C1630 C1624 1.368 . S
C1630 C1629 1.523 . S
C1631 C1615 1.429 . S
C1631 C1627 1.429 . S
C1631 C1632 1.523 . S
C1632 C1616 1.368 . S
C1632 C1628 1.368 . S
C1632 C1631 1.523 . S
H1633 C1608 0.950 . S
H1634 C1610 0.950 . S
H1635 C1611 0.949 . S
H1636 C1613 0.950 . S
H1637 C1615 0.950 . S
C1638 C1639 1.349 . S
C1638 C1640 1.327 . S
C1638 H1663 0.950 . S
C1639 C1638 1.349 . S
C1639 C1655 1.349 . S
C1640 C1638 1.327 . S
C1640 C1659 1.429 . S
C1640 H1664 0.950 . S
C1641 C1658 1.574 . S
C1641 C1660 1.368 . S
C1641 H1665 0.949 . S
H1642 C1646 0.949 . S
C1643 C1644 1.349 . S
C1643 C1645 1.327 . S
C1643 H1666 0.950 1_545 S
C1644 C1643 1.349 . S
C1644 C1656 1.349 . S
C1645 C1643 1.327 . S
C1645 C1661 1.429 . S
C1645 H1667 0.950 . S
C1646 H1642 0.949 . S
C1646 C1654 1.574 . S
C1646 C1662 1.368 . S
H1647 C1655 0.950 . S
H1648 C1653 0.950 . S
H1649 C1654 0.949 . S
H1650 C1656 0.950 . S
H1651 C1657 0.950 . S
H1652 C1658 0.949 . S
C1653 H1648 0.950 . S
C1653 C1655 1.327 . S
C1653 C1659 1.429 . S
C1654 C1646 1.574 . S
C1654 H1649 0.949 . S
C1654 C1660 1.368 . S
C1655 C1639 1.349 . S
C1655 H1647 0.950 . S
C1655 C1653 1.327 . S
C1656 C1644 1.349 . S
C1656 H1650 0.950 . S
C1656 C1657 1.327 . S
C1657 H1651 0.950 . S
C1657 C1656 1.327 . S
C1657 C1661 1.429 . S
C1658 C1641 1.574 . S
C1658 H1652 0.949 . S
C1658 C1662 1.368 . S
C1659 C1640 1.429 . S
C1659 C1653 1.429 . S
C1659 C1660 1.523 . S
C1660 C1641 1.368 . S
C1660 C1654 1.368 . S
C1660 C1659 1.523 . S
C1661 C1645 1.429 . S
C1661 C1657 1.429 . S
C1661 C1662 1.523 . S
C1662 C1646 1.368 . S
C1662 C1658 1.368 . S
C1662 C1661 1.523 . S
H1663 C1638 0.950 . S
H1664 C1640 0.950 . S
H1665 C1641 0.949 . S
H1666 C1643 0.950 1_565 S
H1667 C1645 0.950 . S
C1668 C1669 1.349 . S
C1668 C1670 1.327 . S
C1668 H1693 0.950 . S
C1669 C1668 1.349 . S
C1669 C1685 1.349 . S
C1670 C1668 1.327 . S
C1670 C1689 1.429 . S
C1670 H1694 0.950 . S
C1671 C1688 1.574 . S
C1671 C1690 1.368 . S
C1671 H1695 0.949 . S
H1672 C1676 0.949 . S
C1673 C1674 1.349 . S
C1673 C1675 1.327 . S
C1673 H1696 0.950 . S
C1674 C1673 1.349 . S
C1674 C1686 1.349 . S
C1675 C1673 1.327 . S
C1675 C1691 1.429 . S
C1675 H1697 0.950 . S
C1676 H1672 0.949 . S
C1676 C1684 1.574 . S
C1676 C1692 1.368 . S
H1677 C1685 0.950 . S
H1678 C1683 0.950 . S
H1679 C1684 0.949 . S
H1680 C1686 0.950 . S
H1681 C1687 0.950 . S
H1682 C1688 0.949 . S
C1683 H1678 0.950 . S
C1683 C1685 1.327 . S
C1683 C1689 1.429 . S
C1684 C1676 1.574 . S
C1684 H1679 0.949 . S
C1684 C1690 1.368 . S
C1685 C1669 1.349 . S
C1685 H1677 0.950 . S
C1685 C1683 1.327 . S
C1686 C1674 1.349 . S
C1686 H1680 0.950 . S
C1686 C1687 1.327 . S
C1687 H1681 0.950 . S
C1687 C1686 1.327 . S
C1687 C1691 1.429 . S
C1688 C1671 1.574 . S
C1688 H1682 0.949 . S
C1688 C1692 1.368 . S
C1689 C1670 1.429 . S
C1689 C1683 1.429 . S
C1689 C1690 1.523 . S
C1690 C1671 1.368 . S
C1690 C1684 1.368 . S
C1690 C1689 1.523 . S
C1691 C1675 1.429 . S
C1691 C1687 1.429 . S
C1691 C1692 1.523 . S
C1692 C1676 1.368 . S
C1692 C1688 1.368 . S
C1692 C1691 1.523 . S
H1693 C1668 0.950 . S
H1694 C1670 0.950 . S
H1695 C1671 0.949 . S
H1696 C1673 0.950 . S
H1697 C1675 0.950 . S
C1698 C1699 1.349 . S
C1698 C1700 1.327 . S
C1698 H1723 0.950 1_565 S
C1699 C1698 1.349 . S
C1699 C1715 1.349 . S
C1700 C1698 1.327 . S
C1700 C1719 1.429 . S
C1700 H1724 0.950 . S
C1701 C1718 1.574 . S
C1701 C1720 1.368 . S
C1701 H1725 0.949 . S
H1702 C1706 0.949 . S
C1703 C1704 1.349 . S
C1703 C1705 1.327 . S
C1703 H1726 0.950 . S
C1704 C1703 1.349 . S
C1704 C1716 1.349 . S
C1705 C1703 1.327 . S
C1705 C1721 1.429 . S
C1705 H1727 0.950 . S
C1706 H1702 0.949 . S
C1706 C1714 1.574 . S
C1706 C1722 1.368 . S
H1707 C1715 0.950 . S
H1708 C1713 0.950 . S
H1709 C1714 0.949 . S
H1710 C1716 0.950 . S
H1711 C1717 0.950 . S
H1712 C1718 0.949 . S
C1713 H1708 0.950 . S
C1713 C1715 1.327 . S
C1713 C1719 1.429 . S
C1714 C1706 1.574 . S
C1714 H1709 0.949 . S
C1714 C1720 1.368 . S
C1715 C1699 1.349 . S
C1715 H1707 0.950 . S
C1715 C1713 1.327 . S
C1716 C1704 1.349 . S
C1716 H1710 0.950 . S
C1716 C1717 1.327 . S
C1717 H1711 0.950 . S
C1717 C1716 1.327 . S
C1717 C1721 1.429 . S
C1718 C1701 1.574 . S
C1718 H1712 0.949 . S
C1718 C1722 1.368 . S
C1719 C1700 1.429 . S
C1719 C1713 1.429 . S
C1719 C1720 1.523 . S
C1720 C1701 1.368 . S
C1720 C1714 1.368 . S
C1720 C1719 1.523 . S
C1721 C1705 1.429 . S
C1721 C1717 1.429 . S
C1721 C1722 1.523 . S
C1722 C1706 1.368 . S
C1722 C1718 1.368 . S
C1722 C1721 1.523 . S
H1723 C1698 0.950 1_545 S
H1724 C1700 0.950 . S
H1725 C1701 0.949 . S
H1726 C1703 0.950 . S
H1727 C1705 0.950 . S
C529 C503 1.574 . S
C534 N14 1.557 . S
C559 N47 1.557 . S
C564 C140 1.573 . S
C589 N80 1.557 . S
C594 C437 1.573 . S
C619 N113 1.557 . S
C624 C206 1.573 . S
C649 N146 1.372 . S
C654 C391 1.396 . S
C679 C28 1.395 . S
C684 N179 1.373 . S
C709 C325 1.395 . S
C714 N212 1.372 . S
C739 N245 1.372 . S
C744 C94 1.395 . S
C769 N278 1.557 . S
C774 C239 1.574 . S
C799 N311 1.557 . S
C804 C404 1.573 . S
C829 C173 1.573 . S
C834 N344 1.557 . S
C859 N377 1.557 . S
C864 C470 1.573 . S
C889 N410 1.372 . S
C894 C127 1.396 . S
C919 N443 1.372 . S
C924 C292 1.395 . S
C949 C61 1.395 . S
C954 N476 1.372 . S
C979 N509 1.372 . S
C984 C358 1.396 . S
C1009 N5 1.703 . S
C1014 N401 1.744 . S
C1039 N170 1.745 . S
C1044 N38 1.703 . S
C1069 N71 1.703 . S
C1074 N467 1.745 . S
C1099 N104 1.703 . S
C1104 N236 1.745 . S
C1129 N269 1.703 . S
C1134 N137 1.745 . S
C1159 N335 1.703 . S
C1164 N203 1.744 . S
C1189 N434 1.745 . S
C1194 N302 1.703 . S
C1219 N368 1.703 . S
C1224 N500 1.745 . S
C1249 C305 1.556 . S
C1254 C17 1.583 . S
C1279 C50 1.583 . S
C1284 C338 1.556 . S
C1309 C83 1.583 . S
C1314 C371 1.556 . S
C1339 C272 1.556 . S
C1344 C116 1.583 . S
C1369 C149 0.736 . S
C1374 C457 0.737 . S
C1399 C182 0.736 . S
C1404 C490 0.737 . S
C1429 C215 0.736 . S
C1434 C523 0.737 . S
C1459 C248 0.736 . S
C1464 C424 0.737 . S
C1489 C41 1.556 . S
C1494 C281 1.583 . S
C1519 C314 1.583 . S
C1524 C74 1.556 . S
C1549 C347 1.583 . S
C1554 C107 1.557 . S
C1579 C380 1.583 . S
C1584 C8 1.556 . S
C1609 C413 0.736 . S
C1614 C193 0.737 . S
C1639 C226 0.737 . S
C1644 C446 0.736 1_545 S
C1669 C259 0.737 . S
C1674 C479 0.736 . S
C1699 C512 0.736 1_565 S
C1704 C160 0.737 . S
