# Generated by pormake.
# Topology wjz, (5)-cn, num edge types: 1
# Building blocks:
#     Node 0, Type 0, BuildingBlock: XOMCOT_clean_sbu_1, # of connection points: 5
#     Node 1, Type 0, BuildingBlock: XOMCOT_clean_sbu_1, # of connection points: 5
#     Node 2, Type 0, BuildingBlock: XOMCOT_clean_sbu_1, # of connection points: 5
#     Node 3, Type 0, BuildingBlock: XOMCOT_clean_sbu_1, # of connection points: 5
#     Node 4, Type 0, BuildingBlock: XOMCOT_clean_sbu_1, # of connection points: 5
#     Node 5, Type 0, BuildingBlock: XOMCOT_clean_sbu_1, # of connection points: 5
#     Node 6, Type 0, BuildingBlock: XOMCOT_clean_sbu_1, # of connection points: 5
#     Node 7, Type 0, BuildingBlock: XOMCOT_clean_sbu_1, # of connection points: 5
#     Node 8, Type 0, BuildingBlock: XOMCOT_clean_sbu_1, # of connection points: 5
#     Node 9, Type 0, BuildingBlock: XOMCOT_clean_sbu_1, # of connection points: 5
#     Node 10, Type 0, BuildingBlock: XOMCOT_clean_sbu_1, # of connection points: 5
#     Node 11, Type 0, BuildingBlock: XOMCOT_clean_sbu_1, # of connection points: 5
#     Edge 12, Type (0, 0), BuildingBlock: EZIPEK_clean_linker_0, # of connection points: 2
#     Edge 13, Type (0, 0), BuildingBlock: EZIPEK_clean_linker_0, # of connection points: 2
#     Edge 14, Type (0, 0), BuildingBlock: EZIPEK_clean_linker_0, # of connection points: 2
#     Edge 15, Type (0, 0), BuildingBlock: EZIPEK_clean_linker_0, # of connection points: 2
#     Edge 16, Type (0, 0), BuildingBlock: EZIPEK_clean_linker_0, # of connection points: 2
#     Edge 17, Type (0, 0), BuildingBlock: EZIPEK_clean_linker_0, # of connection points: 2
#     Edge 18, Type (0, 0), BuildingBlock: EZIPEK_clean_linker_0, # of connection points: 2
#     Edge 19, Type (0, 0), BuildingBlock: EZIPEK_clean_linker_0, # of connection points: 2
#     Edge 20, Type (0, 0), BuildingBlock: EZIPEK_clean_linker_0, # of connection points: 2
#     Edge 21, Type (0, 0), BuildingBlock: EZIPEK_clean_linker_0, # of connection points: 2
#     Edge 22, Type (0, 0), BuildingBlock: EZIPEK_clean_linker_0, # of connection points: 2
#     Edge 23, Type (0, 0), BuildingBlock: EZIPEK_clean_linker_0, # of connection points: 2
#     Edge 24, Type (0, 0), BuildingBlock: EZIPEK_clean_linker_0, # of connection points: 2
#     Edge 25, Type (0, 0), BuildingBlock: EZIPEK_clean_linker_0, # of connection points: 2
#     Edge 26, Type (0, 0), BuildingBlock: EZIPEK_clean_linker_0, # of connection points: 2
#     Edge 27, Type (0, 0), BuildingBlock: EZIPEK_clean_linker_0, # of connection points: 2
#     Edge 28, Type (0, 0), BuildingBlock: EZIPEK_clean_linker_0, # of connection points: 2
#     Edge 29, Type (0, 0), BuildingBlock: EZIPEK_clean_linker_0, # of connection points: 2
#     Edge 30, Type (0, 0), BuildingBlock: EZIPEK_clean_linker_0, # of connection points: 2
#     Edge 31, Type (0, 0), BuildingBlock: EZIPEK_clean_linker_0, # of connection points: 2
#     Edge 32, Type (0, 0), BuildingBlock: EZIPEK_clean_linker_0, # of connection points: 2
#     Edge 33, Type (0, 0), BuildingBlock: EZIPEK_clean_linker_0, # of connection points: 2
#     Edge 34, Type (0, 0), BuildingBlock: EZIPEK_clean_linker_0, # of connection points: 2
#     Edge 35, Type (0, 0), BuildingBlock: EZIPEK_clean_linker_0, # of connection points: 2
#     Edge 36, Type (0, 0), BuildingBlock: EZIPEK_clean_linker_0, # of connection points: 2
#     Edge 37, Type (0, 0), BuildingBlock: EZIPEK_clean_linker_0, # of connection points: 2
#     Edge 38, Type (0, 0), BuildingBlock: EZIPEK_clean_linker_0, # of connection points: 2
#     Edge 39, Type (0, 0), BuildingBlock: EZIPEK_clean_linker_0, # of connection points: 2
#     Edge 40, Type (0, 0), BuildingBlock: EZIPEK_clean_linker_0, # of connection points: 2
#     Edge 41, Type (0, 0), BuildingBlock: EZIPEK_clean_linker_0, # of connection points: 2
# Relax obj value: 0.180
# Max RMSD: 0.195
# Mean RMSD: 0.195
data_MOF--net-wjz--node1-XOMCOT_clean_sbu_1--edge1-EZIPEK_clean_linker_0
_symmetry_space_group_name_H-M    P1
_symmetry_Int_Tables_number       1
_symmetry_cell_setting            triclinic
loop_
_symmetry_equiv_pos_as_xyz
'x, y, z'
_cell_length_a     55.489549
_cell_length_b     55.428028
_cell_length_c     13.353487
_cell_angle_alpha  89.926195
_cell_angle_beta   90.01913
_cell_angle_gamma 119.92748
loop_
_atom_site_label
_atom_site_type_symbol
_atom_site_fract_x
_atom_site_fract_y
_atom_site_fract_z
_atom_type_partial_charge
C0 C 0.29833 0.45942 0.96672 0.0
C1 C 0.29559 0.45602 0.86412 0.0
N2 N 0.31443 0.48015 0.82152 0.0
N3 N 0.31883 0.4855 0.98771 0.0
C4 C 0.32817 0.49755 0.89735 0.0
H5 H 0.28645 0.4438 0.02255 0.0
Co6 Co 0.3313 0.49975 0.11531 0.0
C7 C 0.38295 0.55324 0.07516 0.0
O8 O 0.39513 0.54683 0.14659 0.0
N9 N 0.34256 0.51355 0.24724 0.0
C10 C 0.35142 0.54001 0.38371 0.0
C11 C 0.35169 0.53978 0.28068 0.0
C12 C 0.33587 0.49815 0.33229 0.0
N13 N 0.3415 0.51377 0.41539 0.0
O14 O 0.30371 0.51067 0.12433 0.0
H15 H 0.35601 0.55739 0.2338 0.0
H16 H 0.3244 0.47572 0.33446 0.0
O17 O 0.35747 0.5361 0.05602 0.0
C18 C 0.28273 0.49309 0.17431 0.0
O19 O 0.28174 0.46998 0.20371 0.0
N20 N 0.35732 0.48705 0.10773 0.0
C21 C 0.39216 0.46413 0.10691 0.0
C22 C 0.39576 0.48438 0.03628 0.0
C23 C 0.37789 0.49538 0.03722 0.0
C24 C 0.3521 0.46549 0.17007 0.0
C25 C 0.3698 0.45444 0.17363 0.0
H26 H 0.3805 0.51029 0.98017 0.0
H27 H 0.33357 0.45602 0.21508 0.0
H28 H 0.34529 0.51833 0.88605 0.0
H29 H 0.2812 0.43737 0.82396 0.0
H30 H 0.35626 0.55763 0.43143 0.0
H31 H 0.41213 0.49149 0.98074 0.0
H32 H 0.36559 0.43786 0.22606 0.0
C33 C 0.85695 0.28381 0.0951 0.0
C34 C 0.85524 0.27965 0.99292 0.0
N35 N 0.83632 0.2858 0.95625 0.0
N36 N 0.8395 0.29297 0.12262 0.0
C37 C 0.82596 0.29216 0.03715 0.0
H38 H 0.87123 0.28189 0.14517 0.0
Co39 Co 0.83612 0.30497 0.25157 0.0
C40 C 0.84248 0.35353 0.11722 0.0
O41 O 0.85231 0.34744 0.038 0.0
N42 N 0.83164 0.31555 0.38262 0.0
C43 C 0.83248 0.33936 0.51829 0.0
C44 C 0.83494 0.34009 0.41533 0.0
C45 C 0.82666 0.30017 0.46718 0.0
N46 N 0.8275 0.31427 0.55048 0.0
O47 O 0.79675 0.28338 0.24055 0.0
H48 H 0.84028 0.35801 0.36859 0.0
H49 H 0.82465 0.27975 0.46901 0.0
O50 O 0.8362 0.33861 0.19706 0.0
C51 C 0.78953 0.25972 0.27914 0.0
O52 O 0.80927 0.25444 0.30554 0.0
N53 N 0.87539 0.32479 0.2687 0.0
C54 C 0.93157 0.3555 0.31997 0.0
C55 C 0.92237 0.35892 0.22605 0.0
C56 C 0.89411 0.34341 0.20213 0.0
C57 C 0.88481 0.31889 0.35459 0.0
C58 C 0.91247 0.33482 0.38395 0.0
H59 H 0.88763 0.34596 0.12943 0.0
H60 H 0.87086 0.30195 0.4021 0.0
H61 H 0.81052 0.29863 0.03272 0.0
H62 H 0.86857 0.27489 0.94797 0.0
H63 H 0.83592 0.35651 0.56633 0.0
H64 H 0.93681 0.37388 0.17267 0.0
H65 H 0.91892 0.33084 0.45574 0.0
C66 C 0.52789 0.84897 0.35688 0.0
C67 C 0.53161 0.85003 0.25441 0.0
N68 N 0.50716 0.84318 0.21124 0.0
N69 N 0.50133 0.84193 0.37803 0.0
C70 C 0.4892 0.83802 0.28689 0.0
H71 H 0.5435 0.85265 0.41261 0.0
Co72 Co 0.48532 0.83588 0.50745 0.0
C73 C 0.42461 0.82058 0.43999 0.0
O74 O 0.41157 0.81995 0.52288 0.0
N75 N 0.47047 0.82935 0.6366 0.0
C76 C 0.44635 0.80954 0.77506 0.0
C77 C 0.44568 0.80933 0.67181 0.0
C78 C 0.48597 0.84113 0.71934 0.0
N79 N 0.47178 0.82948 0.80438 0.0
O80 O 0.4778 0.79818 0.50239 0.0
H81 H 0.42908 0.79393 0.62606 0.0
H82 H 0.50781 0.85673 0.71707 0.0
O83 O 0.44988 0.82606 0.44249 0.0
C84 C 0.49669 0.7959 0.54839 0.0
O85 O 0.51783 0.81833 0.5863 0.0
N86 N 0.49403 0.87335 0.51684 0.0
C87 C 0.50864 0.92906 0.53177 0.0
C88 C 0.5285 0.9217 0.50559 0.0
C89 C 0.52085 0.89367 0.50017 0.0
C90 C 0.47493 0.88036 0.5493 0.0
C91 C 0.4817 0.90818 0.55576 0.0
H92 H 0.53664 0.88834 0.48412 0.0
H93 H 0.4543 0.8645 0.57038 0.0
H94 H 0.46743 0.83038 0.2747 0.0
H95 H 0.55052 0.85492 0.21473 0.0
H96 H 0.43017 0.79496 0.82462 0.0
H97 H 0.5498 0.93754 0.49013 0.0
H98 H 0.46615 0.91335 0.57943 0.0
C99 C 0.69255 0.53497 0.49377 0.0
C100 C 0.69403 0.53597 0.39041 0.0
N101 N 0.68213 0.50968 0.3561 0.0
N102 N 0.67941 0.50811 0.52383 0.0
C103 C 0.67387 0.4933 0.43796 0.0
H104 H 0.69897 0.55254 0.54341 0.0
Co105 Co 0.66625 0.49412 0.65311 0.0
C106 C 0.60863 0.45115 0.59513 0.0
O107 O 0.5985 0.45933 0.66795 0.0
N108 N 0.65344 0.47934 0.78349 0.0
C109 C 0.63497 0.44993 0.91282 0.0
C110 C 0.63564 0.45257 0.81005 0.0
C111 C 0.66437 0.49203 0.87208 0.0
N112 N 0.65311 0.47487 0.951 0.0
O113 O 0.68741 0.47535 0.65617 0.0
H114 H 0.62481 0.43546 0.75861 0.0
H115 H 0.68113 0.51318 0.87974 0.0
O116 O 0.635 0.46214 0.58882 0.0
C117 C 0.71392 0.48893 0.65444 0.0
O118 O 0.72668 0.51129 0.59815 0.0
N119 N 0.64674 0.51436 0.6549 0.0
C120 C 0.62081 0.54653 0.66402 0.0
C121 C 0.6174 0.52999 0.58001 0.0
C122 C 0.63039 0.51392 0.57729 0.0
C123 C 0.65209 0.53234 0.73243 0.0
C124 C 0.63844 0.54757 0.74084 0.0
H125 H 0.62744 0.50125 0.51232 0.0
H126 H 0.66761 0.53579 0.78707 0.0
H127 H 0.66259 0.47083 0.43447 0.0
H128 H 0.70177 0.55438 0.34396 0.0
H129 H 0.62284 0.4311 0.95596 0.0
H130 H 0.60458 0.52928 0.51762 0.0
H131 H 0.64238 0.56084 0.80544 0.0
C132 C 0.15041 0.70582 0.65622 0.0
C133 C 0.14916 0.70697 0.55331 0.0
N134 N 0.14461 0.68248 0.51646 0.0
N135 N 0.14721 0.68092 0.68342 0.0
C136 C 0.14309 0.66698 0.59631 0.0
H137 H 0.15469 0.72259 0.70725 0.0
Co138 Co 0.15146 0.67014 0.81168 0.0
C139 C 0.15322 0.61745 0.7703 0.0
O140 O 0.137 0.60493 0.84757 0.0
N141 N 0.15627 0.66009 0.94231 0.0
C142 C 0.17277 0.64835 0.07473 0.0
C143 C 0.17298 0.65014 0.97204 0.0
C144 C 0.14764 0.66589 0.02919 0.0
N145 N 0.1573 0.65886 0.11048 0.0
O146 O 0.1903 0.69662 0.80928 0.0
H147 H 0.18581 0.64579 0.92295 0.0
H148 H 0.13579 0.67649 0.03367 0.0
O149 O 0.15925 0.64236 0.75037 0.0
C150 C 0.19623 0.71987 0.84874 0.0
O151 O 0.17587 0.72362 0.87978 0.0
N152 N 0.11279 0.646 0.81822 0.0
C153 C 0.05575 0.61643 0.85534 0.0
C154 C 0.06833 0.6048 0.79658 0.0
C155 C 0.09682 0.62039 0.77574 0.0
C156 C 0.10044 0.65828 0.86884 0.0
C157 C 0.07199 0.64388 0.88864 0.0
H158 H 0.10566 0.61178 0.72517 0.0
H159 H 0.11292 0.67948 0.89462 0.0
H160 H 0.14026 0.64631 0.59019 0.0
H161 H 0.15285 0.72482 0.50876 0.0
H162 H 0.18463 0.64173 0.11997 0.0
H163 H 0.05615 0.58399 0.76634 0.0
H164 H 0.06282 0.65389 0.93126 0.0
C165 C 0.47268 0.1602 0.88541 0.0
C166 C 0.46927 0.15967 0.78282 0.0
N167 N 0.49318 0.16444 0.74043 0.0
N168 N 0.49847 0.16482 0.90727 0.0
C169 C 0.5105 0.16809 0.81658 0.0
H170 H 0.45736 0.15776 0.94056 0.0
Co171 Co 0.51387 0.16847 0.03675 0.0
C172 C 0.57189 0.1774 0.94272 0.0
O173 O 0.59312 0.18543 1.00339 0.0
N174 N 0.52816 0.17266 0.16625 0.0
C175 C 0.5546 0.18419 0.30291 0.0
C176 C 0.5546 0.18435 0.19974 0.0
C177 C 0.51253 0.16614 0.25015 0.0
N178 N 0.52811 0.17299 0.33409 0.0
O179 O 0.52761 0.20758 0.03171 0.0
H180 H 0.57285 0.19359 0.1532 0.0
H181 H 0.49017 0.15723 0.24965 0.0
O182 O 0.54859 0.17361 0.97633 0.0
C183 C 0.51041 0.21484 0.0621 0.0
O184 O 0.48557 0.19551 0.09132 0.0
N185 N 0.49941 0.1297 0.04587 0.0
C186 C 0.47656 0.0722 0.05733 0.0
C187 C 0.5048 0.08992 0.07697 0.0
C188 C 0.51579 0.11874 0.07213 0.0
C189 C 0.47143 0.11261 0.03493 0.0
C190 C 0.45962 0.08372 0.03849 0.0
H191 H 0.53755 0.13227 0.08893 0.0
H192 H 0.45801 0.12124 0.02403 0.0
H193 H 0.53187 0.17467 0.80497 0.0
H194 H 0.45096 0.15646 0.74261 0.0
H195 H 0.57265 0.19277 0.35134 0.0
H196 H 0.51814 0.08149 0.09522 0.0
H197 H 0.43751 0.07048 0.02613 0.0
C198 C 0.55984 0.69306 0.86636 0.0
C199 C 0.56151 0.69574 0.96942 0.0
N200 N 0.5355 0.68336 1.00659 0.0
N201 N 0.53289 0.67883 0.83816 0.0
C202 C 0.51867 0.67417 0.92542 0.0
H203 H 0.57719 0.69898 0.81612 0.0
Co204 Co 0.51997 0.66246 0.70958 0.0
C205 C 0.46225 0.61157 0.76882 0.0
O206 O 0.4578 0.59523 0.6917 0.0
N207 N 0.5079 0.64635 0.57968 0.0
C208 C 0.50111 0.61879 0.44972 0.0
C209 C 0.50268 0.62091 0.55154 0.0
C210 C 0.50905 0.6591 0.49129 0.0
N211 N 0.50401 0.64253 0.40924 0.0
O212 O 0.50458 0.68607 0.68512 0.0
H213 H 0.50234 0.60527 0.60054 0.0
H214 H 0.51551 0.68084 0.48702 0.0
O215 O 0.48454 0.63526 0.77376 0.0
C216 C 0.52149 0.71165 0.66638 0.0
O217 O 0.54831 0.72116 0.67595 0.0
N218 N 0.53716 0.64094 0.72823 0.0
C219 C 0.56613 0.61198 0.71362 0.0
C220 C 0.54205 0.60163 0.77241 0.0
C221 C 0.52738 0.61602 0.77625 0.0
C222 C 0.56139 0.65204 0.67543 0.0
C223 C 0.57587 0.63762 0.6651 0.0
H224 H 0.5073 0.6058 0.81037 0.0
H225 H 0.56864 0.67158 0.63643 0.0
H226 H 0.49628 0.66248 0.93078 0.0
H227 H 0.58023 0.70364 0.01401 0.0
H228 H 0.50054 0.60144 0.41177 0.0
H229 H 0.53372 0.58169 0.80984 0.0
H230 H 0.59428 0.64619 0.61838 0.0
C231 C 0.85264 0.54341 0.13701 0.0
C232 C 0.84916 0.54566 0.23751 0.0
N233 N 0.83245 0.51997 0.27358 0.0
N234 N 0.83886 0.51633 0.10983 0.0
C235 C 0.82545 0.5027 0.19396 0.0
H236 H 0.86565 0.56049 0.08777 0.0
Co237 Co 0.84206 0.50566 0.9797 0.0
C238 C 0.84115 0.45654 0.09449 0.0
O239 O 0.8477 0.46799 0.18269 0.0
N240 N 0.84553 0.49666 0.84758 0.0
C241 C 0.86651 0.49682 0.70637 0.0
C242 C 0.86751 0.49579 0.80832 0.0
C243 C 0.83044 0.4961 0.76722 0.0
N244 N 0.84313 0.49693 0.68012 0.0
O245 O 0.80259 0.48647 0.96502 0.0
H246 H 0.8846 0.49682 0.85023 0.0
H247 H 0.81137 0.49676 0.7718 0.0
O248 O 0.83958 0.46993 0.01905 0.0
C249 C 0.79222 0.50206 0.94977 0.0
O250 O 0.80921 0.52912 0.95345 0.0
N251 N 0.88124 0.52642 0.99072 0.0
C252 C 0.93857 0.55733 0.96245 0.0
C253 C 0.92694 0.53416 0.02642 0.0
C254 C 0.89817 0.51936 0.04167 0.0
C255 C 0.89244 0.5501 0.93424 0.0
C256 C 0.9211 0.56598 0.91954 0.0
H257 H 0.88978 0.50169 0.09069 0.0
H258 H 0.87881 0.55585 0.8962 0.0
H259 H 0.81202 0.48039 0.19874 0.0
H260 H 0.86001 0.56435 0.28232 0.0
H261 H 0.88246 0.49856 0.65531 0.0
H262 H 0.93992 0.52721 0.06231 0.0
H263 H 0.92944 0.58406 0.87101 0.0
C264 C 0.31608 0.85766 0.14348 0.0
C265 C 0.3147 0.85833 0.24679 0.0
N266 N 0.33828 0.86066 0.28418 0.0
N267 N 0.34031 0.85929 0.1166 0.0
C268 C 0.35343 0.86141 0.20451 0.0
H269 H 0.30029 0.8558 0.09159 0.0
Co270 Co 0.35351 0.85873 0.98764 0.0
C271 C 0.37279 0.82051 0.0624 0.0
O272 O 0.35519 0.7991 1.00854 0.0
N273 N 0.36688 0.85857 0.85919 0.0
C274 C 0.39046 0.85724 0.72625 0.0
C275 C 0.38894 0.85631 0.82949 0.0
C276 C 0.35564 0.86133 0.77314 0.0
N277 N 0.36932 0.86018 0.69149 0.0
O278 O 0.32348 0.82151 0.96739 0.0
H279 H 0.40306 0.8541 0.87908 0.0
H280 H 0.3377 0.86408 0.76998 0.0
O281 O 0.37552 0.8445 0.04822 0.0
C282 C 0.3012 0.8179 0.92635 0.0
O283 O 0.2991 0.83963 0.90059 0.0
N284 N 0.38165 0.8956 1.00443 0.0
C285 C 0.41738 0.95251 0.0265 0.0
C286 C 0.42526 0.93353 0.06058 0.0
C287 C 0.40701 0.90496 0.04864 0.0
C288 C 0.37392 0.91387 0.96996 0.0
C289 C 0.39154 0.9425 0.98004 0.0
H290 H 0.41323 0.89064 0.07647 0.0
H291 H 0.35374 0.90603 0.93546 0.0
H292 H 0.37379 0.86343 0.21108 0.0
H293 H 0.29767 0.85686 0.29098 0.0
H294 H 0.40557 0.85548 0.68024 0.0
H295 H 0.44518 0.94076 0.09674 0.0
H296 H 0.38494 0.95672 0.95289 0.0
C297 C 0.46981 0.33651 0.28047 0.0
C298 C 0.46762 0.33403 0.38364 0.0
N299 N 0.49344 0.34788 0.42246 0.0
N300 N 0.49687 0.35197 0.25488 0.0
C301 C 0.5107 0.35803 0.34333 0.0
H302 H 0.45275 0.32875 0.22783 0.0
Co303 Co 0.51173 0.36555 0.12653 0.0
C304 C 0.55808 0.42111 0.20447 0.0
O305 O 0.55373 0.43725 0.14397 0.0
N306 N 0.52674 0.37817 0.99673 0.0
C307 C 0.55217 0.39948 0.8612 0.0
C308 C 0.55125 0.39963 0.96456 0.0
C309 C 0.51384 0.36468 0.91142 0.0
N310 N 0.52854 0.37745 0.82847 0.0
O311 O 0.5278 0.34204 0.1261 0.0
H312 H 0.56785 0.41423 0.01192 0.0
H313 H 0.49369 0.34594 0.90986 0.0
O314 O 0.54455 0.39474 0.19336 0.0
C315 C 0.51123 0.31752 0.09485 0.0
O316 O 0.48602 0.31111 0.06706 0.0
N317 N 0.49398 0.38744 0.12516 0.0
C318 C 0.4629 0.41459 0.12215 0.0
C319 C 0.47848 0.41606 0.20681 0.0
C320 C 0.49385 0.40228 0.20679 0.0
C321 C 0.47779 0.38492 0.04435 0.0
C322 C 0.46287 0.399 0.03995 0.0
H323 H 0.50494 0.40285 0.27388 0.0
H324 H 0.47523 0.37111 0.9839 0.0
H325 H 0.533 0.37066 0.35104 0.0
H326 H 0.4486 0.3241 0.42692 0.0
H327 H 0.56886 0.41426 0.8138 0.0
H328 H 0.47838 0.42734 0.27284 0.0
H329 H 0.45039 0.39673 0.97442 0.0
C330 C 0.13881 0.44444 0.59504 0.0
C331 C 0.14071 0.44386 0.69804 0.0
N332 N 0.15191 0.47009 0.73228 0.0
N333 N 0.14853 0.47091 0.5639 0.0
C334 C 0.15719 0.48607 0.64944 0.0
H335 H 0.12868 0.42639 0.54696 0.0
Co336 Co 0.14221 0.48127 0.43441 0.0
C337 C 0.13921 0.53433 0.48472 0.0
O338 O 0.12173 0.53182 0.41386 0.0
N339 N 0.13535 0.49105 0.30298 0.0
C340 C 0.11172 0.49142 0.16939 0.0
C341 C 0.1114 0.48905 0.27101 0.0
C342 C 0.15015 0.49558 0.21691 0.0
N343 N 0.1366 0.49659 0.13296 0.0
O344 O 0.18102 0.49931 0.40384 0.0
H345 H 0.0935 0.48403 0.31675 0.0
H346 H 0.16972 0.49614 0.21571 0.0
O347 O 0.14686 0.51612 0.49373 0.0
C348 C 0.18903 0.48196 0.38232 0.0
O349 O 0.17259 0.45555 0.40396 0.0
N350 N 0.10396 0.46045 0.45767 0.0
C351 C 0.04703 0.42479 0.43722 0.0
C352 C 0.05721 0.44847 0.49844 0.0
C353 C 0.08594 0.46651 0.50588 0.0
C354 C 0.09432 0.43623 0.40567 0.0
C355 C 0.06597 0.41845 0.39237 0.0
H356 H 0.09311 0.48593 0.54347 0.0
H357 H 0.10894 0.43181 0.36801 0.0
H358 H 0.16534 0.50827 0.65245 0.0
H359 H 0.13195 0.42541 0.74469 0.0
H360 H 0.09335 0.48676 0.12717 0.0
H361 H 0.04307 0.45391 0.53428 0.0
H362 H 0.05892 0.40035 0.34476 0.0
C363 C 0.65041 0.11685 0.62996 0.0
C364 C 0.65183 0.11561 0.73309 0.0
N365 N 0.64345 0.13253 0.7726 0.0
N366 N 0.641 0.1343 0.60518 0.0
C367 C 0.63729 0.14375 0.6942 0.0
H368 H 0.65456 0.1047 0.57661 0.0
Co369 Co 0.63033 0.13934 0.47681 0.0
C370 C 0.58864 0.15753 0.53371 0.0
O371 O 0.5716 0.14582 0.45808 0.0
N372 N 0.62003 0.14488 0.34639 0.0
C373 C 0.61815 0.16823 0.21292 0.0
C374 C 0.61827 0.16725 0.31593 0.0
C375 C 0.62124 0.13282 0.25954 0.0
N376 N 0.62014 0.14659 0.17793 0.0
O377 O 0.66386 0.1745 0.46594 0.0
H378 H 0.61977 0.18347 0.36479 0.0
H379 H 0.62593 0.11618 0.25484 0.0
O380 O 0.61109 0.15659 0.53954 0.0
C381 C 0.68054 0.17245 0.40556 0.0
O382 O 0.67258 0.14802 0.36503 0.0
N383 N 0.59907 0.10366 0.486 0.0
C384 C 0.56067 0.04738 0.50978 0.0
C385 C 0.55857 0.06728 0.56762 0.0
C386 C 0.57857 0.09536 0.55647 0.0
C387 C 0.60156 0.0843 0.43127 0.0
C388 C 0.58229 0.05609 0.44049 0.0
H389 H 0.57882 0.10989 0.61009 0.0
H390 H 0.61977 0.09051 0.38583 0.0
H391 H 0.62895 0.15756 0.70294 0.0
H392 H 0.65731 0.10242 0.77573 0.0
H393 H 0.61909 0.18486 0.16767 0.0
H394 H 0.54278 0.061 0.62511 0.0
H395 H 0.58509 0.04105 0.39779 0.0
C396 C 0.35293 0.50029 0.57664 0.0
C397 C 0.33392 0.50377 0.51636 0.0
C398 C 0.3016 0.49099 0.65747 0.0
C399 C 0.32007 0.48635 0.71666 0.0
N400 N 0.36102 0.48227 0.73138 0.0
N401 N 0.28862 0.49831 0.49135 0.0
C402 C 0.34514 0.48977 0.6757 0.0
C403 C 0.30771 0.49781 0.5545 0.0
N404 N 0.37859 0.50766 0.53914 0.0
N405 N 0.27893 0.4901 0.70124 0.0
H406 H 0.29285 0.50349 0.41589 0.0
H407 H 0.2681 0.49158 0.51141 0.0
H408 H 0.27409 0.48528 0.77675 0.0
H409 H 0.26607 0.49604 0.66507 0.0
H410 H 0.39463 0.50831 0.58163 0.0
H411 H 0.38437 0.5148 0.46587 0.0
H412 H 0.37846 0.48205 0.70398 0.0
H413 H 0.35542 0.47413 0.80357 0.0
C414 C 0.80841 0.27738 0.80123 0.0
C415 C 0.83397 0.29262 0.85325 0.0
C416 C 0.85567 0.31989 0.70125 0.0
C417 C 0.82958 0.30658 0.65225 0.0
N418 N 0.78048 0.27448 0.65598 0.0
N419 N 0.88029 0.33252 0.85893 0.0
C420 C 0.80572 0.28573 0.70243 0.0
C421 C 0.85719 0.31501 0.80488 0.0
N422 N 0.78706 0.25453 0.84579 0.0
N423 N 0.87922 0.33645 0.64758 0.0
H424 H 0.88201 0.33037 0.93564 0.0
H425 H 0.8966 0.35086 0.82981 0.0
H426 H 0.87892 0.33994 0.57097 0.0
H427 H 0.89919 0.3444 0.67664 0.0
H428 H 0.76859 0.2409 0.80953 0.0
H429 H 0.78871 0.2481 0.9177 0.0
H430 H 0.76173 0.26097 0.69088 0.0
H431 H 0.77821 0.28022 0.58364 0.0
C432 C 0.49425 0.81595 0.05442 0.0
C433 C 0.50073 0.84076 0.10589 0.0
C434 C 0.48873 0.85856 0.95685 0.0
C435 C 0.48291 0.83401 0.90461 0.0
N436 N 0.48594 0.79233 0.8944 0.0
N437 N 0.50876 0.88747 0.10464 0.0
C438 C 0.48738 0.81354 0.95086 0.0
C439 C 0.49949 0.8627 0.05621 0.0
N440 N 0.49388 0.79445 0.10575 0.0
N441 N 0.48287 0.87725 0.91243 0.0
H442 H 0.51626 0.89066 0.17795 0.0
H443 H 0.5107 0.90527 0.07074 0.0
H444 H 0.47486 0.8745 0.84001 0.0
H445 H 0.48417 0.89444 0.94893 0.0
H446 H 0.48657 0.77468 0.07567 0.0
H447 H 0.49925 0.79593 0.1813 0.0
H448 H 0.49128 0.77795 0.92088 0.0
H449 H 0.48182 0.7907 0.81778 0.0
C450 C 0.68348 0.48319 0.09736 0.0
C451 C 0.65957 0.48209 0.05492 0.0
C452 C 0.64949 0.49732 0.21382 0.0
C453 C 0.67461 0.50053 0.254 0.0
N454 N 0.7165 0.49846 0.23545 0.0
N455 N 0.62046 0.48924 0.06708 0.0
C456 C 0.69186 0.49388 0.19607 0.0
C457 C 0.64262 0.48928 0.112 0.0
N458 N 0.69763 0.47331 0.04343 0.0
N459 N 0.63215 0.50166 0.27403 0.0
H460 H 0.6148 0.48297 0.99305 0.0
H461 H 0.60854 0.4967 0.10056 0.0
H462 H 0.63746 0.50904 0.34692 0.0
H463 H 0.61207 0.49673 0.25419 0.0
H464 H 0.71383 0.47106 0.07206 0.0
H465 H 0.69185 0.46561 0.97083 0.0
H466 H 0.73146 0.49647 0.19509 0.0
H467 H 0.72269 0.50588 0.30815 0.0
C468 C 0.178 0.68221 0.27205 0.0
C469 C 0.1542 0.66441 0.21391 0.0
C470 C 0.12394 0.66009 0.35512 0.0
C471 C 0.14775 0.67651 0.41413 0.0
N472 N 0.19721 0.69891 0.43724 0.0
N473 N 0.10501 0.63231 0.20479 0.0
C474 C 0.17474 0.68631 0.37495 0.0
C475 C 0.12723 0.65226 0.25677 0.0
N476 N 0.20362 0.69618 0.22813 0.0
N477 N 0.09827 0.65233 0.39338 0.0
H478 H 0.10702 0.62545 0.13426 0.0
H479 H 0.08509 0.62083 0.23462 0.0
H480 H 0.09554 0.65745 0.4661 0.0
H481 H 0.08003 0.64259 0.35152 0.0
H482 H 0.22114 0.71186 0.26371 0.0
H483 H 0.20709 0.69398 0.15308 0.0
H484 H 0.21719 0.70365 0.41649 0.0
H485 H 0.1955 0.70253 0.51279 0.0
C486 C 0.51622 0.19311 0.5916 0.0
C487 C 0.50001 0.16651 0.63552 0.0
C488 C 0.50309 0.14421 0.48103 0.0
C489 C 0.5186 0.17082 0.43599 0.0
N490 N 0.53799 0.22047 0.44236 0.0
N491 N 0.47613 0.11671 0.62418 0.0
C492 C 0.52474 0.19528 0.4899 0.0
C493 C 0.49274 0.142 0.58036 0.0
N494 N 0.5237 0.21624 0.64855 0.0
N495 N 0.49945 0.12131 0.42971 0.0
H496 H 0.46932 0.1147 0.69812 0.0
H497 H 0.46803 0.09776 0.58704 0.0
H498 H 0.5075 0.12259 0.35807 0.0
H499 H 0.49012 0.1013 0.45937 0.0
H500 H 0.53806 0.23642 0.62657 0.0
H501 H 0.51607 0.21506 0.7208 0.0
H502 H 0.54083 0.23893 0.47314 0.0
H503 H 0.5449 0.22277 0.36863 0.0
C504 C 0.51155 0.63497 0.22815 0.0
C505 C 0.50693 0.65058 0.30248 0.0
C506 C 0.51798 0.68705 0.17432 0.0
C507 C 0.52725 0.67336 0.1083 0.0
N508 N 0.5363 0.63573 0.07851 0.0
N509 N 0.49205 0.68425 0.32486 0.0
C510 C 0.52559 0.64807 0.13817 0.0
C511 C 0.50656 0.67496 0.27014 0.0
N512 N 0.49778 0.60665 0.2335 0.0
N513 N 0.52068 0.71192 0.14557 0.0
H514 H 0.47935 0.67277 0.38452 0.0
H515 H 0.48944 0.7009 0.30404 0.0
H516 H 0.5285 0.72065 0.0754 0.0
H517 H 0.51713 0.72473 0.19291 0.0
H518 H 0.50027 0.59399 0.1818 0.0
H519 H 0.47967 0.59603 0.27612 0.0
H520 H 0.53788 0.61862 0.10199 0.0
H521 H 0.54516 0.64357 1.00872 0.0
C522 C 0.84229 0.487 0.50107 0.0
C523 C 0.83559 0.49984 0.57906 0.0
C524 C 0.81999 0.52089 0.45114 0.0
C525 C 0.83212 0.5123 0.37655 0.0
N526 N 0.86689 0.4993 0.34587 0.0
N527 N 0.82477 0.53607 0.62278 0.0
C528 C 0.84654 0.49848 0.40496 0.0
C529 C 0.82576 0.51852 0.55351 0.0
N530 N 0.84529 0.46442 0.51861 0.0
N531 N 0.80404 0.5322 0.42428 0.0
H532 H 0.83303 0.53858 0.69439 0.0
H533 H 0.81937 0.55104 0.60444 0.0
H534 H 0.80013 0.53446 0.34936 0.0
H535 H 0.79297 0.5369 0.47626 0.0
H536 H 0.84956 0.45439 0.46094 0.0
H537 H 0.84034 0.45419 0.58762 0.0
H538 H 0.8791 0.49081 0.3686 0.0
H539 H 0.87361 0.5114 0.28096 0.0
C540 C 0.33765 0.8349 0.43599 0.0
C541 C 0.34552 0.86056 0.38781 0.0
C542 C 0.3689 0.88598 0.54094 0.0
C543 C 0.36172 0.86036 0.58826 0.0
N544 N 0.34174 0.81071 0.58146 0.0
N545 N 0.37057 0.91047 0.38708 0.0
C546 C 0.34679 0.83485 0.53571 0.0
C547 C 0.36169 0.88614 0.43849 0.0
N548 N 0.32099 0.81065 0.38612 0.0
N549 N 0.38246 0.91004 0.59499 0.0
H550 H 0.36492 0.91092 0.31285 0.0
H551 H 0.38447 0.93005 0.41537 0.0
H552 H 0.38893 0.91044 0.66865 0.0
H553 H 0.38636 0.92937 0.56918 0.0
H554 H 0.31225 0.79098 0.41842 0.0
H555 H 0.31466 0.81027 0.31229 0.0
H556 H 0.33342 0.79158 0.54543 0.0
H557 H 0.34713 0.81 0.65579 0.0
C558 C 0.52768 0.35316 0.67201 0.0
C559 C 0.51975 0.37007 0.72589 0.0
C560 C 0.49545 0.37344 0.57744 0.0
C561 C 0.50135 0.35456 0.52628 0.0
N562 N 0.51986 0.32362 0.52711 0.0
N563 N 0.49417 0.39441 0.73571 0.0
C564 C 0.51667 0.34368 0.57431 0.0
C565 C 0.50292 0.37954 0.68024 0.0
N566 N 0.54616 0.34667 0.71405 0.0
N567 N 0.48405 0.38663 0.52602 0.0
H568 H 0.50045 0.40026 0.80961 0.0
H569 H 0.47949 0.39952 0.71089 0.0
H570 H 0.47926 0.38334 0.45 0.0
H571 H 0.48149 0.40254 0.55597 0.0
H572 H 0.55492 0.33655 0.67592 0.0
H573 H 0.55429 0.35328 0.78569 0.0
H574 H 0.52868 0.31289 0.56062 0.0
H575 H 0.51149 0.31609 0.45645 0.0
C576 C 0.1697 0.49926 0.99599 0.0
C577 C 0.14377 0.49637 0.02671 0.0
C578 C 0.12452 0.47813 0.86043 0.0
C579 C 0.14913 0.47811 0.83299 0.0
N580 N 0.195 0.48741 0.87465 0.0
N581 N 0.10728 0.50277 0.95759 0.0
C582 C 0.17177 0.48844 0.90086 0.0
C583 C 0.12388 0.49119 0.95069 0.0
N584 N 0.19304 0.51587 0.05008 0.0
N585 N 0.10175 0.4661 0.79957 0.0
H586 H 0.11134 0.51832 0.00999 0.0
H587 H 0.09276 0.50037 0.90326 0.0
H588 H 0.1016 0.4572 0.73071 0.0
H589 H 0.08252 0.46346 0.82125 0.0
H590 H 0.21291 0.52016 0.02988 0.0
H591 H 0.19296 0.52883 0.10652 0.0
H592 H 0.21116 0.49174 0.92414 0.0
H593 H 0.19698 0.48014 0.80479 0.0
C594 C 0.65922 0.15577 0.93645 0.0
C595 C 0.63794 0.13506 0.87649 0.0
C596 C 0.60481 0.12202 0.01603 0.0
C597 C 0.62621 0.14256 0.07623 0.0
N598 N 0.67447 0.17601 0.10194 0.0
N599 N 0.59113 0.09755 0.85603 0.0
C600 C 0.65366 0.15866 0.03857 0.0
C601 C 0.61086 0.1178 0.91574 0.0
N602 N 0.68451 0.1731 0.89409 0.0
N603 N 0.57877 0.10676 0.05586 0.0
H604 H 0.59525 0.09426 0.78266 0.0
H605 H 0.57094 0.0835 0.8783 0.0
H606 H 0.57402 0.10993 0.12854 0.0
H607 H 0.56172 0.0913 0.01787 0.0
H608 H 0.70035 0.1905 0.9296 0.0
H609 H 0.68913 0.17085 0.82012 0.0
H610 H 0.69546 0.18649 0.08296 0.0
H611 H 0.67091 0.17854 0.17683 0.0
C612 C 0.44906 0.60289 0.95303 0.0
C613 C 0.44106 0.60221 0.85136 0.0
C614 C 0.39196 0.57885 0.9068 0.0
C615 C 0.40075 0.57647 1.00433 0.0
N616 N 0.43625 0.60181 0.12606 0.0
N617 N 0.40453 0.59289 0.73279 0.0
C618 C 0.42884 0.59357 0.02924 0.0
C619 C 0.4123 0.59137 0.82867 0.0
N620 N 0.47539 0.60969 0.97823 0.0
N621 N 0.36486 0.57172 0.89191 0.0
H622 H 0.41885 0.60448 0.67705 0.0
H623 H 0.38407 0.58249 0.70761 0.0
H624 H 0.35088 0.5664 0.95122 0.0
H625 H 0.35683 0.57382 0.82422 0.0
H626 H 0.47993 0.60474 0.04814 0.0
H627 H 0.49192 0.61799 0.92909 0.0
H628 H 0.45649 0.61657 0.14628 0.0
H629 H 0.42144 0.59679 0.18243 0.0
C630 C 0.86507 0.40435 0.08008 0.0
C631 C 0.84126 0.37966 0.11401 0.0
C632 C 0.81571 0.40511 0.1262 0.0
C633 C 0.83884 0.4289 0.08373 0.0
N634 N 0.88271 0.44872 0.9972 0.0
N635 N 0.79219 0.35513 0.15245 0.0
C636 C 0.86254 0.42765 0.0528 0.0
C637 C 0.81603 0.37959 0.1327 0.0
N638 N 0.89055 0.40615 0.07921 0.0
N639 N 0.79361 0.40704 0.16135 0.0
H640 H 0.7915 0.33602 0.15689 0.0
H641 H 0.77265 0.35342 0.15642 0.0
H642 H 0.79197 0.42486 0.1519 0.0
H643 H 0.77768 0.39155 0.204 0.0
H644 H 0.909 0.42458 0.06465 0.0
H645 H 0.89373 0.39021 0.10471 0.0
H646 H 0.89926 0.4477 0.96478 0.0
H647 H 0.88111 0.46575 0.97384 0.0
C648 C 0.37095 0.79716 0.22875 0.0
C649 C 0.38654 0.8169 0.15255 0.0
C650 C 0.42515 0.84085 0.26977 0.0
C651 C 0.41132 0.81914 0.34117 0.0
N652 N 0.37267 0.77364 0.37954 0.0
N653 N 0.43115 0.85299 0.0944 0.0
C654 C 0.38471 0.79631 0.31779 0.0
C655 C 0.41453 0.8372 0.17122 0.0
N656 N 0.34279 0.78053 0.22031 0.0
N657 N 0.44764 0.86559 0.29668 0.0
H658 H 0.42452 0.84963 0.02012 0.0
H659 H 0.45216 0.86734 0.10341 0.0
H660 H 0.45542 0.8697 0.36904 0.0
H661 H 0.45664 0.88298 0.24992 0.0
H662 H 0.33035 0.76795 0.27853 0.0
H663 H 0.33131 0.78128 0.15998 0.0
H664 H 0.35454 0.75533 0.36084 0.0
H665 H 0.38217 0.77213 0.44481 0.0
C666 C 0.56189 0.44145 0.37633 0.0
C667 C 0.57312 0.43166 0.30134 0.0
C668 C 0.6025 0.42692 0.42905 0.0
C669 C 0.59176 0.43749 0.50275 0.0
N670 N 0.55146 0.44037 0.55221 0.0
N671 N 0.60703 0.41905 0.25253 0.0
C672 C 0.56861 0.44063 0.47838 0.0
C673 C 0.59414 0.42529 0.32701 0.0
N674 N 0.54522 0.45213 0.35103 0.0
N675 N 0.61912 0.41653 0.45867 0.0
H676 H 0.60184 0.41861 0.17713 0.0
H677 H 0.62445 0.41695 0.2637 0.0
H678 H 0.62339 0.4153 0.53406 0.0
H679 H 0.62611 0.40647 0.41108 0.0
H680 H 0.53902 0.46211 0.40237 0.0
H681 H 0.54017 0.45411 0.27774 0.0
H682 H 0.53332 0.44099 0.53809 0.0
H683 H 0.55256 0.43461 0.6256 0.0
C684 C 0.14536 0.55218 0.66297 0.0
C685 C 0.14886 0.5578 0.55855 0.0
C686 C 0.16684 0.60763 0.5965 0.0
C687 C 0.15982 0.6005 0.69905 0.0
N688 N 0.15961 0.57055 0.82947 0.0
N689 N 0.16563 0.59174 0.4252 0.0
C690 C 0.15467 0.57425 0.732 0.0
C691 C 0.16063 0.58592 0.52505 0.0
N692 N 0.13055 0.52571 0.69792 0.0
N693 N 0.18167 0.63502 0.56943 0.0
H694 H 0.16397 0.57701 0.37299 0.0
H695 H 0.1708 0.61083 0.39311 0.0
H696 H 0.19033 0.651 0.62198 0.0
H697 H 0.18839 0.64205 0.49702 0.0
H698 H 0.12352 0.52163 0.77136 0.0
H699 H 0.12304 0.50825 0.65316 0.0
H700 H 0.15828 0.55216 0.85544 0.0
H701 H 0.16861 0.5871 0.88005 0.0
C702 C 0.59658 0.19169 0.67032 0.0
C703 C 0.5794 0.16505 0.62729 0.0
C704 C 0.55978 0.14646 0.79203 0.0
C705 C 0.57547 0.17327 0.83472 0.0
N706 N 0.60486 0.22275 0.81054 0.0
N707 N 0.53806 0.11974 0.64354 0.0
C708 C 0.59273 0.19637 0.77262 0.0
C709 C 0.55862 0.14343 0.68664 0.0
N710 N 0.61694 0.21233 0.61371 0.0
N711 N 0.54739 0.12358 0.85229 0.0
H712 H 0.53619 0.11645 0.56664 0.0
H713 H 0.52119 0.10459 0.68389 0.0
H714 H 0.55056 0.12506 0.9292 0.0
H715 H 0.53757 0.10325 0.82517 0.0
H716 H 0.63241 0.23107 0.64344 0.0
H717 H 0.61895 0.21008 0.53705 0.0
H718 H 0.61536 0.24055 0.76649 0.0
H719 H 0.6026 0.22691 0.88503 0.0
C720 C 0.26275 0.51709 0.27474 0.0
C721 C 0.25916 0.49734 0.20056 0.0
C722 C 0.20877 0.47371 0.2251 0.0
C723 C 0.21298 0.48965 0.31397 0.0
N724 N 0.24424 0.52633 0.42511 0.0
N725 N 0.22921 0.45901 0.09486 0.0
C726 C 0.23997 0.51176 0.33813 0.0
C727 C 0.23219 0.47659 0.17167 0.0
N728 N 0.28798 0.54066 0.28529 0.0
N729 N 0.18245 0.45612 0.19076 0.0
H730 H 0.24586 0.46226 0.04926 0.0
H731 H 0.21072 0.4409 0.07811 0.0
H732 H 0.1645 0.45277 0.22751 0.0
H733 H 0.17819 0.44659 0.12086 0.0
H734 H 0.29149 0.55693 0.33304 0.0
H735 H 0.30463 0.54525 0.23793 0.0
H736 H 0.2639 0.54039 0.45257 0.0
H737 H 0.22826 0.52282 0.47446 0.0
C738 C 0.75269 0.21022 0.29623 0.0
C739 C 0.76016 0.2386 0.30174 0.0
C740 C 0.71343 0.22403 0.36642 0.0
C741 C 0.70835 0.19631 0.37801 0.0
N742 N 0.72902 0.16675 0.38458 0.0
N743 N 0.74883 0.27263 0.3672 0.0
C744 C 0.72971 0.19046 0.35197 0.0
C745 C 0.74092 0.24571 0.34371 0.0
N746 N 0.76724 0.20189 0.23691 0.0
N747 N 0.69231 0.22985 0.37257 0.0
H748 H 0.76892 0.2892 0.35746 0.0
H749 H 0.73598 0.27798 0.4068 0.0
H750 H 0.67162 0.21476 0.38332 0.0
H751 H 0.69505 0.24944 0.35552 0.0
H752 H 0.76111 0.18095 0.22646 0.0
H753 H 0.78309 0.21553 0.18906 0.0
H754 H 0.74532 0.16286 0.37177 0.0
H755 H 0.71428 0.15311 0.43568 0.0
C756 C 0.51714 0.76623 0.50512 0.0
C757 C 0.49659 0.76921 0.55719 0.0
C758 C 0.49048 0.73289 0.67616 0.0
C759 C 0.51152 0.73013 0.62544 0.0
N760 N 0.54032 0.73969 0.47765 0.0
N761 N 0.4579 0.75006 0.67067 0.0
C762 C 0.52343 0.74539 0.53546 0.0
C763 C 0.48124 0.75061 0.63533 0.0
N764 N 0.53129 0.78406 0.42834 0.0
N765 N 0.48079 0.72031 0.76697 0.0
H766 H 0.45059 0.76249 0.64011 0.0
H767 H 0.44436 0.7354 0.72203 0.0
H768 H 0.48768 0.70802 0.80183 0.0
H769 H 0.4678 0.72413 0.81238 0.0
H770 H 0.54925 0.78597 0.39624 0.0
H771 H 0.52539 0.79778 0.39886 0.0
H772 H 0.54652 0.74742 0.40545 0.0
H773 H 0.54668 0.72561 0.49792 0.0
C774 C 0.75328 0.50972 0.90115 0.0
C775 C 0.76423 0.49156 0.90271 0.0
C776 C 0.73522 0.46632 0.75819 0.0
C777 C 0.72873 0.48787 0.74534 0.0
N778 N 0.73072 0.52996 0.80621 0.0
N779 N 0.75468 0.44503 0.86637 0.0
C780 C 0.73709 0.50927 0.81833 0.0
C781 C 0.75187 0.46739 0.8415 0.0
N782 N 0.75751 0.52651 0.98182 0.0
N783 N 0.72665 0.44571 0.68812 0.0
H784 H 0.76344 0.44389 0.93397 0.0
H785 H 0.74501 0.42618 0.8281 0.0
H786 H 0.71384 0.44403 0.62812 0.0
H787 H 0.73339 0.43124 0.68596 0.0
H788 H 0.74793 0.53844 0.99073 0.0
H789 H 0.76798 0.52572 0.04565 0.0
H790 H 0.73953 0.54806 0.849 0.0
H791 H 0.71729 0.52963 0.75091 0.0
C792 C 0.26064 0.7737 0.98853 0.0
C793 C 0.27744 0.78962 0.90731 0.0
C794 C 0.24402 0.75538 0.78822 0.0
C795 C 0.22541 0.74179 0.86887 0.0
N796 N 0.21522 0.73848 0.04591 0.0
N797 N 0.28627 0.79601 0.72998 0.0
C798 C 0.23363 0.75093 0.96911 0.0
C799 C 0.26958 0.78036 0.80713 0.0
N800 N 0.27048 0.78028 0.08438 0.0
N801 N 0.23704 0.74476 0.69348 0.0
H802 H 0.3059 0.81321 0.74158 0.0
H803 H 0.28052 0.79273 0.65491 0.0
H804 H 0.21786 0.72763 0.67545 0.0
H805 H 0.25074 0.75179 0.63318 0.0
H806 H 0.26054 0.76765 0.14598 0.0
H807 H 0.28988 0.79716 0.10195 0.0
H808 H 0.21819 0.74691 0.11753 0.0
H809 H 0.19619 0.72026 0.0373 0.0
C810 C 0.51953 0.28172 0.17646 0.0
C811 C 0.51944 0.29589 0.08838 0.0
C812 C 0.52325 0.2612 0.98547 0.0
C813 C 0.51824 0.24455 0.07223 0.0
N814 N 0.51223 0.2387 0.25118 0.0
N815 N 0.52227 0.30047 0.909 0.0
C816 C 0.51696 0.25495 0.16822 0.0
C817 C 0.52206 0.28622 0.99286 0.0
N818 N 0.52179 0.29378 0.26779 0.0
N819 N 0.52864 0.25288 0.89601 0.0
H820 H 0.5232 0.31969 0.91261 0.0
H821 H 0.52047 0.29296 0.8364 0.0
H822 H 0.52882 0.23431 0.88728 0.0
H823 H 0.53503 0.26523 0.83196 0.0
H824 H 0.5246 0.28584 0.33468 0.0
H825 H 0.52334 0.3132 0.27592 0.0
H826 H 0.50736 0.24325 0.32132 0.0
H827 H 0.51195 0.21977 0.24896 0.0
C828 C 0.39939 0.42301 0.09079 0.0
C829 C 0.41075 0.45192 0.10841 0.0
C830 C 0.45709 0.457 0.12646 0.0
C831 C 0.44504 0.42763 0.12109 0.0
N832 N 0.40355 0.38232 0.12249 0.0
N833 N 0.44967 0.49562 0.16264 0.0
C834 C 0.41581 0.4105 0.11036 0.0
C835 C 0.43944 0.46875 0.13175 0.0
N836 N 0.37324 0.40762 0.05195 0.0
N837 N 0.48532 0.47376 0.12293 0.0
H838 H 0.43736 0.50486 0.16963 0.0
H839 H 0.46976 0.50786 0.19035 0.0
H840 H 0.49896 0.46601 0.11733 0.0
H841 H 0.49505 0.49534 0.11612 0.0
H842 H 0.36505 0.38705 0.02878 0.0
H843 H 0.36087 0.41621 0.03286 0.0
H844 H 0.38206 0.36923 0.12492 0.0
H845 H 0.4147 0.37237 0.14094 0.0
C846 C 0.97691 0.36115 0.3839 0.0
C847 C 0.96105 0.3734 0.35163 0.0
C848 C 0.00224 0.41955 0.3683 0.0
C849 C 0.01688 0.40744 0.4137 0.0
N850 N 0.01506 0.36676 0.4876 0.0
N851 N 0.95715 0.41491 0.34037 0.0
C852 C 0.00323 0.37822 0.42878 0.0
C853 C 0.97323 0.40282 0.35205 0.0
N854 N 0.96758 0.33355 0.36766 0.0
N855 N 0.01604 0.44651 0.33552 0.0
H856 H 0.93557 0.40346 0.33337 0.0
H857 H 0.96496 0.43624 0.34901 0.0
H858 H 0.03756 0.45917 0.33972 0.0
H859 H 0.00638 0.45521 0.29382 0.0
H860 H 0.97966 0.32436 0.38216 0.0
H861 H 0.94919 0.32062 0.32936 0.0
H862 H 0.00474 0.34577 0.50751 0.0
H863 H 0.03383 0.37874 0.52519 0.0
C864 C 0.54763 0.00437 0.61072 0.0
C865 C 0.54241 0.01718 0.52779 0.0
C866 C 0.51118 0.97155 0.45429 0.0
C867 C 0.51673 0.95883 0.53657 0.0
N868 N 0.53357 0.96192 0.70487 0.0
N869 N 0.51441 0.01359 0.38477 0.0
C870 C 0.53271 0.97492 0.61895 0.0
C871 C 0.52247 0.00088 0.45425 0.0
N872 N 0.56802 0.02018 0.67816 0.0
N873 N 0.4963 0.95577 0.37426 0.0
H874 H 0.5224 0.03509 0.38352 0.0
H875 H 0.49816 0.0028 0.33448 0.0
H876 H 0.4872 0.93414 0.37271 0.0
H877 H 0.49427 0.96414 0.30709 0.0
H878 H 0.57505 0.01177 0.73295 0.0
H879 H 0.57942 0.04185 0.67552 0.0
H880 H 0.54262 0.97247 0.7711 0.0
H881 H 0.52288 0.9403 0.71272 0.0
C882 C 0.57741 0.55064 0.66335 0.0
C883 C 0.60678 0.56346 0.67122 0.0
C884 C 0.60903 0.60718 0.71889 0.0
C885 C 0.58022 0.59534 0.6984 0.0
N886 N 0.53905 0.55774 0.62182 0.0
N887 N 0.65096 0.60633 0.67776 0.0
C888 C 0.56496 0.56762 0.6618 0.0
C889 C 0.62277 0.5925 0.69026 0.0
N890 N 0.56118 0.5223 0.6618 0.0
N891 N 0.62313 0.63183 0.7692 0.0
H892 H 0.66169 0.59665 0.65113 0.0
H893 H 0.66312 0.62793 0.68275 0.0
H894 H 0.61355 0.64258 0.79644 0.0
H895 H 0.6436 0.63992 0.79331 0.0
H896 H 0.53954 0.51219 0.66518 0.0
H897 H 0.56921 0.50891 0.66826 0.0
H898 H 0.52826 0.53844 0.58652 0.0
H899 H 0.52977 0.56999 0.61344 0.0
C900 C 0.01773 0.59558 0.98501 0.0
C901 C 0.0257 0.60018 0.88251 0.0
C902 C 0.97671 0.57251 0.83422 0.0
C903 C 0.96867 0.57164 0.9358 0.0
N904 N 0.98198 0.58724 0.10616 0.0
N905 N 0.01202 0.59776 0.70928 0.0
C906 C 0.98931 0.58452 0.01094 0.0
C907 C 0.00498 0.58994 0.80683 0.0
N908 N 0.03714 0.60088 0.05755 0.0
N909 N 0.9576 0.55598 0.76429 0.0
H910 H 0.03235 0.61138 0.68625 0.0
H911 H 0.9973 0.59302 0.65305 0.0
H912 H 0.93688 0.54199 0.78183 0.0
H913 H 0.96301 0.55396 0.6913 0.0
H914 H 0.03198 0.59544 0.13243 0.0
H915 H 0.05801 0.60797 0.04142 0.0
H916 H 0.9965 0.59891 0.16107 0.0
H917 H 0.96146 0.58023 0.12757 0.0
C918 C 0.45133 0.02528 0.13995 0.0
C919 C 0.46461 0.04154 0.05389 0.0
C920 C 0.45222 -0.0008 0.95793 0.0
C921 C 0.43584 0.98297 0.03973 0.0
N922 N 0.41837 0.97985 0.20738 0.0
N923 N 0.47702 0.04472 0.87935 0.0
C924 C 0.43523 0.9958 0.13095 0.0
C925 C 0.46511 0.02871 0.96256 0.0
N926 N 0.45444 0.03809 0.23032 0.0
N927 N 0.45569 0.98631 0.87646 0.0
H928 H 0.48734 0.06643 0.88048 0.0
H929 H 0.47531 0.03662 0.80776 0.0
H930 H 0.44632 0.96471 0.87059 0.0
H931 H 0.46958 0.99686 0.81856 0.0
H932 H 0.44775 0.02742 0.29797 0.0
H933 H 0.46578 0.05966 0.23893 0.0
H934 H 0.41442 0.98805 0.27129 0.0
H935 H 0.40687 0.95817 0.20452 0.0
loop_
_geom_bond_atom_site_label_1
_geom_bond_atom_site_label_2
_geom_bond_distance
_geom_bond_site_symmetry_2
_ccdc_geom_bond_type
C0 C1 1.351 . S
C0 N3 1.368 . S
C0 H5 0.931 . S
C1 C0 1.351 . S
C1 N2 1.373 . S
C1 H29 0.930 . S
N2 C1 1.373 . S
N2 C4 1.340 . S
N3 C0 1.368 . S
N3 C4 1.321 . S
N3 Co6 2.135 1_556 S
C4 N2 1.340 . S
C4 N3 1.321 . S
C4 H28 0.930 . S
H5 C0 0.931 . S
Co6 N3 2.135 1_554 S
Co6 N9 2.121 . S
Co6 O14 2.055 . S
Co6 O17 2.039 . S
Co6 N20 2.140 . S
C7 O8 1.227 . S
C7 O17 1.265 . S
O8 C7 1.227 . S
N9 Co6 2.121 . S
N9 C11 1.375 . S
N9 C12 1.313 . S
C10 C11 1.338 . S
C10 N13 1.377 . S
C10 H30 0.930 . S
C11 N9 1.375 . S
C11 C10 1.338 . S
C11 H15 0.931 . S
C12 N9 1.313 . S
C12 N13 1.344 . S
C12 H16 0.930 . S
N13 C10 1.377 . S
N13 C12 1.344 . S
O14 Co6 2.055 . S
O14 C18 1.253 . S
H15 C11 0.931 . S
H16 C12 0.930 . S
O17 Co6 2.039 . S
O17 C7 1.265 . S
C18 O14 1.253 . S
C18 O19 1.227 . S
O19 C18 1.227 . S
N20 Co6 2.140 . S
N20 C23 1.346 . S
N20 C24 1.345 . S
C21 C22 1.387 . S
C21 C25 1.391 . S
C22 C21 1.387 . S
C22 C23 1.369 . S
C22 H31 0.929 1_554 S
C23 N20 1.346 . S
C23 C22 1.369 . S
C23 H26 0.928 1_554 S
C24 N20 1.345 . S
C24 C25 1.371 . S
C24 H27 0.931 . S
C25 C21 1.391 . S
C25 C24 1.371 . S
C25 H32 0.930 . S
H26 C23 0.928 1_556 S
H27 C24 0.931 . S
H28 C4 0.930 . S
H29 C1 0.930 . S
H30 C10 0.930 . S
H31 C22 0.929 1_556 S
H32 C25 0.930 . S
C33 C34 1.351 1_554 S
C33 N36 1.368 . S
C33 H38 0.931 . S
C34 C33 1.351 1_556 S
C34 N35 1.373 . S
C34 H62 0.930 . S
N35 C34 1.373 . S
N35 C37 1.340 1_556 S
N36 C33 1.368 . S
N36 C37 1.321 . S
N36 Co39 2.135 . S
C37 N35 1.340 1_554 S
C37 N36 1.321 . S
C37 H61 0.930 . S
H38 C33 0.931 . S
Co39 N36 2.135 . S
Co39 N42 2.121 . S
Co39 O47 2.055 . S
Co39 O50 2.039 . S
Co39 N53 2.140 . S
C40 O41 1.227 . S
C40 O50 1.265 . S
O41 C40 1.227 . S
N42 Co39 2.121 . S
N42 C44 1.375 . S
N42 C45 1.313 . S
C43 C44 1.338 . S
C43 N46 1.377 . S
C43 H63 0.930 . S
C44 N42 1.375 . S
C44 C43 1.338 . S
C44 H48 0.931 . S
C45 N42 1.313 . S
C45 N46 1.344 . S
C45 H49 0.930 . S
N46 C43 1.377 . S
N46 C45 1.344 . S
O47 Co39 2.055 . S
O47 C51 1.253 . S
H48 C44 0.931 . S
H49 C45 0.930 . S
O50 Co39 2.039 . S
O50 C40 1.265 . S
C51 O47 1.253 . S
C51 O52 1.227 . S
O52 C51 1.227 . S
N53 Co39 2.140 . S
N53 C56 1.346 . S
N53 C57 1.345 . S
C54 C55 1.387 . S
C54 C58 1.391 . S
C55 C54 1.387 . S
C55 C56 1.369 . S
C55 H64 0.929 . S
C56 N53 1.346 . S
C56 C55 1.369 . S
C56 H59 0.928 . S
C57 N53 1.345 . S
C57 C58 1.371 . S
C57 H60 0.931 . S
C58 C54 1.391 . S
C58 C57 1.371 . S
C58 H65 0.930 . S
H59 C56 0.928 . S
H60 C57 0.931 . S
H61 C37 0.930 . S
H62 C34 0.930 . S
H63 C43 0.930 . S
H64 C55 0.929 . S
H65 C58 0.930 . S
C66 C67 1.351 . S
C66 N69 1.368 . S
C66 H71 0.931 . S
C67 C66 1.351 . S
C67 N68 1.373 . S
C67 H95 0.930 . S
N68 C67 1.373 . S
N68 C70 1.340 . S
N69 C66 1.368 . S
N69 C70 1.321 . S
N69 Co72 2.135 . S
C70 N68 1.340 . S
C70 N69 1.321 . S
C70 H94 0.930 . S
H71 C66 0.931 . S
Co72 N69 2.135 . S
Co72 N75 2.121 . S
Co72 O80 2.055 . S
Co72 O83 2.039 . S
Co72 N86 2.140 . S
C73 O74 1.227 . S
C73 O83 1.265 . S
O74 C73 1.227 . S
N75 Co72 2.121 . S
N75 C77 1.375 . S
N75 C78 1.313 . S
C76 C77 1.338 . S
C76 N79 1.377 . S
C76 H96 0.930 . S
C77 N75 1.375 . S
C77 C76 1.338 . S
C77 H81 0.931 . S
C78 N75 1.313 . S
C78 N79 1.344 . S
C78 H82 0.930 . S
N79 C76 1.377 . S
N79 C78 1.344 . S
O80 Co72 2.055 . S
O80 C84 1.253 . S
H81 C77 0.931 . S
H82 C78 0.930 . S
O83 Co72 2.039 . S
O83 C73 1.265 . S
C84 O80 1.253 . S
C84 O85 1.227 . S
O85 C84 1.227 . S
N86 Co72 2.140 . S
N86 C89 1.346 . S
N86 C90 1.345 . S
C87 C88 1.387 . S
C87 C91 1.391 . S
C88 C87 1.387 . S
C88 C89 1.369 . S
C88 H97 0.929 . S
C89 N86 1.346 . S
C89 C88 1.369 . S
C89 H92 0.928 . S
C90 N86 1.345 . S
C90 C91 1.371 . S
C90 H93 0.931 . S
C91 C87 1.391 . S
C91 C90 1.371 . S
C91 H98 0.930 . S
H92 C89 0.928 . S
H93 C90 0.931 . S
H94 C70 0.930 . S
H95 C67 0.930 . S
H96 C76 0.930 . S
H97 C88 0.929 . S
H98 C91 0.930 . S
C99 C100 1.351 . S
C99 N102 1.368 . S
C99 H104 0.931 . S
C100 C99 1.351 . S
C100 N101 1.373 . S
C100 H128 0.930 . S
N101 C100 1.373 . S
N101 C103 1.340 . S
N102 C99 1.368 . S
N102 C103 1.321 . S
N102 Co105 2.135 . S
C103 N101 1.340 . S
C103 N102 1.321 . S
C103 H127 0.930 . S
H104 C99 0.931 . S
Co105 N102 2.135 . S
Co105 N108 2.121 . S
Co105 O113 2.055 . S
Co105 O116 2.039 . S
Co105 N119 2.140 . S
C106 O107 1.227 . S
C106 O116 1.265 . S
O107 C106 1.227 . S
N108 Co105 2.121 . S
N108 C110 1.375 . S
N108 C111 1.313 . S
C109 C110 1.338 . S
C109 N112 1.377 . S
C109 H129 0.930 . S
C110 N108 1.375 . S
C110 C109 1.338 . S
C110 H114 0.931 . S
C111 N108 1.313 . S
C111 N112 1.344 . S
C111 H115 0.930 . S
N112 C109 1.377 . S
N112 C111 1.344 . S
O113 Co105 2.055 . S
O113 C117 1.253 . S
H114 C110 0.931 . S
H115 C111 0.930 . S
O116 Co105 2.039 . S
O116 C106 1.265 . S
C117 O113 1.253 . S
C117 O118 1.227 . S
O118 C117 1.227 . S
N119 Co105 2.140 . S
N119 C122 1.346 . S
N119 C123 1.345 . S
C120 C121 1.387 . S
C120 C124 1.391 . S
C121 C120 1.387 . S
C121 C122 1.369 . S
C121 H130 0.929 . S
C122 N119 1.346 . S
C122 C121 1.369 . S
C122 H125 0.928 . S
C123 N119 1.345 . S
C123 C124 1.371 . S
C123 H126 0.931 . S
C124 C120 1.391 . S
C124 C123 1.371 . S
C124 H131 0.930 . S
H125 C122 0.928 . S
H126 C123 0.931 . S
H127 C103 0.930 . S
H128 C100 0.930 . S
H129 C109 0.930 . S
H130 C121 0.929 . S
H131 C124 0.930 . S
C132 C133 1.351 . S
C132 N135 1.368 . S
C132 H137 0.931 . S
C133 C132 1.351 . S
C133 N134 1.373 . S
C133 H161 0.930 . S
N134 C133 1.373 . S
N134 C136 1.340 . S
N135 C132 1.368 . S
N135 C136 1.321 . S
N135 Co138 2.135 . S
C136 N134 1.340 . S
C136 N135 1.321 . S
C136 H160 0.930 . S
H137 C132 0.931 . S
Co138 N135 2.135 . S
Co138 N141 2.121 . S
Co138 O146 2.055 . S
Co138 O149 2.039 . S
Co138 N152 2.140 . S
C139 O140 1.227 . S
C139 O149 1.265 . S
O140 C139 1.227 . S
N141 Co138 2.121 . S
N141 C143 1.375 . S
N141 C144 1.313 . S
C142 C143 1.338 1_554 S
C142 N145 1.377 . S
C142 H162 0.930 . S
C143 N141 1.375 . S
C143 C142 1.338 1_556 S
C143 H147 0.931 . S
C144 N141 1.313 . S
C144 N145 1.344 1_556 S
C144 H148 0.930 . S
N145 C142 1.377 . S
N145 C144 1.344 1_554 S
O146 Co138 2.055 . S
O146 C150 1.253 . S
H147 C143 0.931 . S
H148 C144 0.930 . S
O149 Co138 2.039 . S
O149 C139 1.265 . S
C150 O146 1.253 . S
C150 O151 1.227 . S
O151 C150 1.227 . S
N152 Co138 2.140 . S
N152 C155 1.346 . S
N152 C156 1.345 . S
C153 C154 1.387 . S
C153 C157 1.391 . S
C154 C153 1.387 . S
C154 C155 1.369 . S
C154 H163 0.929 . S
C155 N152 1.346 . S
C155 C154 1.369 . S
C155 H158 0.928 . S
C156 N152 1.345 . S
C156 C157 1.371 . S
C156 H159 0.931 . S
C157 C153 1.391 . S
C157 C156 1.371 . S
C157 H164 0.930 . S
H158 C155 0.928 . S
H159 C156 0.931 . S
H160 C136 0.930 . S
H161 C133 0.930 . S
H162 C142 0.930 . S
H163 C154 0.929 . S
H164 C157 0.930 . S
C165 C166 1.351 . S
C165 N168 1.368 . S
C165 H170 0.931 . S
C166 C165 1.351 . S
C166 N167 1.373 . S
C166 H194 0.930 . S
N167 C166 1.373 . S
N167 C169 1.340 . S
N168 C165 1.368 . S
N168 C169 1.321 . S
N168 Co171 2.135 . S
C169 N167 1.340 . S
C169 N168 1.321 . S
C169 H193 0.930 . S
H170 C165 0.931 . S
Co171 N168 2.135 . S
Co171 N174 2.121 1_556 S
Co171 O179 2.055 . S
Co171 O182 2.039 . S
Co171 N185 2.140 . S
C172 O173 1.227 . S
C172 O182 1.265 . S
O173 C172 1.227 . S
N174 Co171 2.121 1_554 S
N174 C176 1.375 . S
N174 C177 1.313 . S
C175 C176 1.338 . S
C175 N178 1.377 . S
C175 H195 0.930 . S
C176 N174 1.375 . S
C176 C175 1.338 . S
C176 H180 0.931 . S
C177 N174 1.313 . S
C177 N178 1.344 . S
C177 H181 0.930 . S
N178 C175 1.377 . S
N178 C177 1.344 . S
O179 Co171 2.055 . S
O179 C183 1.253 . S
H180 C176 0.931 . S
H181 C177 0.930 . S
O182 Co171 2.039 . S
O182 C172 1.265 . S
C183 O179 1.253 . S
C183 O184 1.227 . S
O184 C183 1.227 . S
N185 Co171 2.140 . S
N185 C188 1.346 . S
N185 C189 1.345 1_556 S
C186 C187 1.387 . S
C186 C190 1.391 1_556 S
C187 C186 1.387 . S
C187 C188 1.369 . S
C187 H196 0.929 . S
C188 N185 1.346 . S
C188 C187 1.369 . S
C188 H191 0.928 . S
C189 N185 1.345 1_554 S
C189 C190 1.371 . S
C189 H192 0.931 . S
C190 C186 1.391 1_554 S
C190 C189 1.371 . S
C190 H197 0.930 . S
H191 C188 0.928 . S
H192 C189 0.931 . S
H193 C169 0.930 . S
H194 C166 0.930 . S
H195 C175 0.930 . S
H196 C187 0.929 . S
H197 C190 0.930 . S
C198 C199 1.351 1_556 S
C198 N201 1.368 . S
C198 H203 0.931 . S
C199 C198 1.351 1_554 S
C199 N200 1.373 . S
C199 H227 0.930 . S
N200 C199 1.373 . S
N200 C202 1.340 1_554 S
N201 C198 1.368 . S
N201 C202 1.321 . S
N201 Co204 2.135 . S
C202 N200 1.340 1_556 S
C202 N201 1.321 . S
C202 H226 0.930 . S
H203 C198 0.931 . S
Co204 N201 2.135 . S
Co204 N207 2.121 . S
Co204 O212 2.055 . S
Co204 O215 2.039 . S
Co204 N218 2.140 . S
C205 O206 1.227 . S
C205 O215 1.265 . S
O206 C205 1.227 . S
N207 Co204 2.121 . S
N207 C209 1.375 . S
N207 C210 1.313 . S
C208 C209 1.338 . S
C208 N211 1.377 . S
C208 H228 0.930 . S
C209 N207 1.375 . S
C209 C208 1.338 . S
C209 H213 0.931 . S
C210 N207 1.313 . S
C210 N211 1.344 . S
C210 H214 0.930 . S
N211 C208 1.377 . S
N211 C210 1.344 . S
O212 Co204 2.055 . S
O212 C216 1.253 . S
H213 C209 0.931 . S
H214 C210 0.930 . S
O215 Co204 2.039 . S
O215 C205 1.265 . S
C216 O212 1.253 . S
C216 O217 1.227 . S
O217 C216 1.227 . S
N218 Co204 2.140 . S
N218 C221 1.346 . S
N218 C222 1.345 . S
C219 C220 1.387 . S
C219 C223 1.391 . S
C220 C219 1.387 . S
C220 C221 1.369 . S
C220 H229 0.929 . S
C221 N218 1.346 . S
C221 C220 1.369 . S
C221 H224 0.928 . S
C222 N218 1.345 . S
C222 C223 1.371 . S
C222 H225 0.931 . S
C223 C219 1.391 . S
C223 C222 1.371 . S
C223 H230 0.930 . S
H224 C221 0.928 . S
H225 C222 0.931 . S
H226 C202 0.930 . S
H227 C199 0.930 . S
H228 C208 0.930 . S
H229 C220 0.929 . S
H230 C223 0.930 . S
C231 C232 1.351 . S
C231 N234 1.368 . S
C231 H236 0.931 . S
C232 C231 1.351 . S
C232 N233 1.373 . S
C232 H260 0.930 . S
N233 C232 1.373 . S
N233 C235 1.340 . S
N234 C231 1.368 . S
N234 C235 1.321 . S
N234 Co237 2.135 1_554 S
C235 N233 1.340 . S
C235 N234 1.321 . S
C235 H259 0.930 . S
H236 C231 0.931 . S
Co237 N234 2.135 1_556 S
Co237 N240 2.121 . S
Co237 O245 2.055 . S
Co237 O248 2.039 . S
Co237 N251 2.140 . S
C238 O239 1.227 . S
C238 O248 1.265 . S
O239 C238 1.227 . S
N240 Co237 2.121 . S
N240 C242 1.375 . S
N240 C243 1.313 . S
C241 C242 1.338 . S
C241 N244 1.377 . S
C241 H261 0.930 . S
C242 N240 1.375 . S
C242 C241 1.338 . S
C242 H246 0.931 . S
C243 N240 1.313 . S
C243 N244 1.344 . S
C243 H247 0.930 . S
N244 C241 1.377 . S
N244 C243 1.344 . S
O245 Co237 2.055 . S
O245 C249 1.253 . S
H246 C242 0.931 . S
H247 C243 0.930 . S
O248 Co237 2.039 . S
O248 C238 1.265 . S
C249 O245 1.253 . S
C249 O250 1.227 . S
O250 C249 1.227 . S
N251 Co237 2.140 . S
N251 C254 1.346 . S
N251 C255 1.345 . S
C252 C253 1.387 . S
C252 C256 1.391 . S
C253 C252 1.387 . S
C253 C254 1.369 . S
C253 H262 0.929 1_556 S
C254 N251 1.346 . S
C254 C253 1.369 . S
C254 H257 0.928 1_556 S
C255 N251 1.345 . S
C255 C256 1.371 . S
C255 H258 0.931 . S
C256 C252 1.391 . S
C256 C255 1.371 . S
C256 H263 0.930 . S
H257 C254 0.928 1_554 S
H258 C255 0.931 . S
H259 C235 0.930 . S
H260 C232 0.930 . S
H261 C241 0.930 . S
H262 C253 0.929 1_554 S
H263 C256 0.930 . S
C264 C265 1.351 . S
C264 N267 1.368 . S
C264 H269 0.931 . S
C265 C264 1.351 . S
C265 N266 1.373 . S
C265 H293 0.930 . S
N266 C265 1.373 . S
N266 C268 1.340 . S
N267 C264 1.368 . S
N267 C268 1.321 . S
N267 Co270 2.135 . S
C268 N266 1.340 . S
C268 N267 1.321 . S
C268 H292 0.930 . S
H269 C264 0.931 . S
Co270 N267 2.135 . S
Co270 N273 2.121 1_554 S
Co270 O278 2.055 . S
Co270 O281 2.039 . S
Co270 N284 2.140 . S
C271 O272 1.227 . S
C271 O281 1.265 . S
O272 C271 1.227 . S
N273 Co270 2.121 1_556 S
N273 C275 1.375 . S
N273 C276 1.313 . S
C274 C275 1.338 . S
C274 N277 1.377 . S
C274 H294 0.930 . S
C275 N273 1.375 . S
C275 C274 1.338 . S
C275 H279 0.931 . S
C276 N273 1.313 . S
C276 N277 1.344 . S
C276 H280 0.930 . S
N277 C274 1.377 . S
N277 C276 1.344 . S
O278 Co270 2.055 . S
O278 C282 1.253 . S
H279 C275 0.931 . S
H280 C276 0.930 . S
O281 Co270 2.039 . S
O281 C271 1.265 . S
C282 O278 1.253 . S
C282 O283 1.227 . S
O283 C282 1.227 . S
N284 Co270 2.140 . S
N284 C287 1.346 . S
N284 C288 1.345 1_554 S
C285 C286 1.387 . S
C285 C289 1.391 1_554 S
C286 C285 1.387 . S
C286 C287 1.369 . S
C286 H295 0.929 . S
C287 N284 1.346 . S
C287 C286 1.369 . S
C287 H290 0.928 . S
C288 N284 1.345 1_556 S
C288 C289 1.371 . S
C288 H291 0.931 . S
C289 C285 1.391 1_556 S
C289 C288 1.371 . S
C289 H296 0.930 . S
H290 C287 0.928 . S
H291 C288 0.931 . S
H292 C268 0.930 . S
H293 C265 0.930 . S
H294 C274 0.930 . S
H295 C286 0.929 . S
H296 C289 0.930 . S
C297 C298 1.351 . S
C297 N300 1.368 . S
C297 H302 0.931 . S
C298 C297 1.351 . S
C298 N299 1.373 . S
C298 H326 0.930 . S
N299 C298 1.373 . S
N299 C301 1.340 . S
N300 C297 1.368 . S
N300 C301 1.321 . S
N300 Co303 2.135 . S
C301 N299 1.340 . S
C301 N300 1.321 . S
C301 H325 0.930 . S
H302 C297 0.931 . S
Co303 N300 2.135 . S
Co303 N306 2.121 . S
Co303 O311 2.055 . S
Co303 O314 2.039 . S
Co303 N317 2.140 . S
C304 O305 1.227 . S
C304 O314 1.265 . S
O305 C304 1.227 . S
N306 Co303 2.121 . S
N306 C308 1.375 . S
N306 C309 1.313 . S
C307 C308 1.338 1_556 S
C307 N310 1.377 . S
C307 H327 0.930 . S
C308 N306 1.375 . S
C308 C307 1.338 1_554 S
C308 H312 0.931 . S
C309 N306 1.313 . S
C309 N310 1.344 1_554 S
C309 H313 0.930 . S
N310 C307 1.377 . S
N310 C309 1.344 1_556 S
O311 Co303 2.055 . S
O311 C315 1.253 . S
H312 C308 0.931 . S
H313 C309 0.930 . S
O314 Co303 2.039 . S
O314 C304 1.265 . S
C315 O311 1.253 . S
C315 O316 1.227 . S
O316 C315 1.227 . S
N317 Co303 2.140 . S
N317 C320 1.346 . S
N317 C321 1.345 . S
C318 C319 1.387 . S
C318 C322 1.391 . S
C319 C318 1.387 . S
C319 C320 1.369 . S
C319 H328 0.929 . S
C320 N317 1.346 . S
C320 C319 1.369 . S
C320 H323 0.928 . S
C321 N317 1.345 . S
C321 C322 1.371 . S
C321 H324 0.931 . S
C322 C318 1.391 . S
C322 C321 1.371 . S
C322 H329 0.930 . S
H323 C320 0.928 . S
H324 C321 0.931 . S
H325 C301 0.930 . S
H326 C298 0.930 . S
H327 C307 0.930 . S
H328 C319 0.929 . S
H329 C322 0.930 . S
C330 C331 1.351 . S
C330 N333 1.368 . S
C330 H335 0.931 . S
C331 C330 1.351 . S
C331 N332 1.373 . S
C331 H359 0.930 . S
N332 C331 1.373 . S
N332 C334 1.340 . S
N333 C330 1.368 . S
N333 C334 1.321 . S
N333 Co336 2.135 . S
C334 N332 1.340 . S
C334 N333 1.321 . S
C334 H358 0.930 . S
H335 C330 0.931 . S
Co336 N333 2.135 . S
Co336 N339 2.121 . S
Co336 O344 2.055 . S
Co336 O347 2.039 . S
Co336 N350 2.140 . S
C337 O338 1.227 . S
C337 O347 1.265 . S
O338 C337 1.227 . S
N339 Co336 2.121 . S
N339 C341 1.375 . S
N339 C342 1.313 . S
C340 C341 1.338 . S
C340 N343 1.377 . S
C340 H360 0.930 . S
C341 N339 1.375 . S
C341 C340 1.338 . S
C341 H345 0.931 . S
C342 N339 1.313 . S
C342 N343 1.344 . S
C342 H346 0.930 . S
N343 C340 1.377 . S
N343 C342 1.344 . S
O344 Co336 2.055 . S
O344 C348 1.253 . S
H345 C341 0.931 . S
H346 C342 0.930 . S
O347 Co336 2.039 . S
O347 C337 1.265 . S
C348 O344 1.253 . S
C348 O349 1.227 . S
O349 C348 1.227 . S
N350 Co336 2.140 . S
N350 C353 1.346 . S
N350 C354 1.345 . S
C351 C352 1.387 . S
C351 C355 1.391 . S
C352 C351 1.387 . S
C352 C353 1.369 . S
C352 H361 0.929 . S
C353 N350 1.346 . S
C353 C352 1.369 . S
C353 H356 0.928 . S
C354 N350 1.345 . S
C354 C355 1.371 . S
C354 H357 0.931 . S
C355 C351 1.391 . S
C355 C354 1.371 . S
C355 H362 0.930 . S
H356 C353 0.928 . S
H357 C354 0.931 . S
H358 C334 0.930 . S
H359 C331 0.930 . S
H360 C340 0.930 . S
H361 C352 0.929 . S
H362 C355 0.930 . S
C363 C364 1.351 . S
C363 N366 1.368 . S
C363 H368 0.931 . S
C364 C363 1.351 . S
C364 N365 1.373 . S
C364 H392 0.930 . S
N365 C364 1.373 . S
N365 C367 1.340 . S
N366 C363 1.368 . S
N366 C367 1.321 . S
N366 Co369 2.135 . S
C367 N365 1.340 . S
C367 N366 1.321 . S
C367 H391 0.930 . S
H368 C363 0.931 . S
Co369 N366 2.135 . S
Co369 N372 2.121 . S
Co369 O377 2.055 . S
Co369 O380 2.039 . S
Co369 N383 2.140 . S
C370 O371 1.227 . S
C370 O380 1.265 . S
O371 C370 1.227 . S
N372 Co369 2.121 . S
N372 C374 1.375 . S
N372 C375 1.313 . S
C373 C374 1.338 . S
C373 N376 1.377 . S
C373 H393 0.930 . S
C374 N372 1.375 . S
C374 C373 1.338 . S
C374 H378 0.931 . S
C375 N372 1.313 . S
C375 N376 1.344 . S
C375 H379 0.930 . S
N376 C373 1.377 . S
N376 C375 1.344 . S
O377 Co369 2.055 . S
O377 C381 1.253 . S
H378 C374 0.931 . S
H379 C375 0.930 . S
O380 Co369 2.039 . S
O380 C370 1.265 . S
C381 O377 1.253 . S
C381 O382 1.227 . S
O382 C381 1.227 . S
N383 Co369 2.140 . S
N383 C386 1.346 . S
N383 C387 1.345 . S
C384 C385 1.387 . S
C384 C388 1.391 . S
C385 C384 1.387 . S
C385 C386 1.369 . S
C385 H394 0.929 . S
C386 N383 1.346 . S
C386 C385 1.369 . S
C386 H389 0.928 . S
C387 N383 1.345 . S
C387 C388 1.371 . S
C387 H390 0.931 . S
C388 C384 1.391 . S
C388 C387 1.371 . S
C388 H395 0.930 . S
H389 C386 0.928 . S
H390 C387 0.931 . S
H391 C367 0.930 . S
H392 C364 0.930 . S
H393 C373 0.930 . S
H394 C385 0.929 . S
H395 C388 0.930 . S
C396 C397 1.363 . S
C396 C402 1.379 . S
C396 N404 1.356 . S
C397 C396 1.363 . S
C397 C403 1.363 . S
C398 C399 1.363 . S
C398 C403 1.379 . S
C398 N405 1.356 . S
C399 C398 1.363 . S
C399 C402 1.363 . S
N400 C402 1.356 . S
N400 H412 0.984 . S
N400 H413 0.985 . S
N401 C403 1.356 . S
N401 H406 0.984 . S
N401 H407 0.985 . S
C402 C396 1.379 . S
C402 C399 1.363 . S
C402 N400 1.356 . S
C403 C397 1.363 . S
C403 C398 1.379 . S
C403 N401 1.356 . S
N404 C396 1.356 . S
N404 H410 0.984 . S
N404 H411 0.984 . S
N405 C398 1.356 . S
N405 H408 0.984 . S
N405 H409 0.985 . S
H406 N401 0.984 . S
H407 N401 0.985 . S
H408 N405 0.984 . S
H409 N405 0.985 . S
H410 N404 0.984 . S
H411 N404 0.984 . S
H412 N400 0.984 . S
H413 N400 0.985 . S
C414 C415 1.363 . S
C414 C420 1.379 . S
C414 N422 1.356 . S
C415 C414 1.363 . S
C415 C421 1.363 . S
C416 C417 1.363 . S
C416 C421 1.379 . S
C416 N423 1.356 . S
C417 C416 1.363 . S
C417 C420 1.363 . S
N418 C420 1.356 . S
N418 H430 0.984 . S
N418 H431 0.985 . S
N419 C421 1.356 . S
N419 H424 0.984 . S
N419 H425 0.985 . S
C420 C414 1.379 . S
C420 C417 1.363 . S
C420 N418 1.356 . S
C421 C415 1.363 . S
C421 C416 1.379 . S
C421 N419 1.356 . S
N422 C414 1.356 . S
N422 H428 0.984 . S
N422 H429 0.984 . S
N423 C416 1.356 . S
N423 H426 0.984 . S
N423 H427 0.985 . S
H424 N419 0.984 . S
H425 N419 0.985 . S
H426 N423 0.984 . S
H427 N423 0.985 . S
H428 N422 0.984 . S
H429 N422 0.984 . S
H430 N418 0.984 . S
H431 N418 0.985 . S
C432 C433 1.363 1_556 S
C432 C438 1.379 . S
C432 N440 1.356 1_556 S
C433 C432 1.363 1_554 S
C433 C439 1.363 1_554 S
C434 C435 1.363 . S
C434 C439 1.379 . S
C434 N441 1.356 . S
C435 C434 1.363 . S
C435 C438 1.363 . S
N436 C438 1.356 . S
N436 H448 0.984 . S
N436 H449 0.985 . S
N437 C439 1.356 1_554 S
N437 H442 0.984 . S
N437 H443 0.985 . S
C438 C432 1.379 . S
C438 C435 1.363 . S
C438 N436 1.356 . S
C439 C433 1.363 1_556 S
C439 C434 1.379 . S
C439 N437 1.356 1_556 S
N440 C432 1.356 1_554 S
N440 H446 0.984 1_554 S
N440 H447 0.984 . S
N441 C434 1.356 . S
N441 H444 0.984 . S
N441 H445 0.985 . S
H442 N437 0.984 . S
H443 N437 0.985 . S
H444 N441 0.984 . S
H445 N441 0.985 . S
H446 N440 0.984 1_556 S
H447 N440 0.984 . S
H448 N436 0.984 . S
H449 N436 0.985 . S
C450 C451 1.363 1_554 S
C450 C456 1.379 . S
C450 N458 1.356 . S
C451 C450 1.363 1_556 S
C451 C457 1.363 1_556 S
C452 C453 1.363 . S
C452 C457 1.379 . S
C452 N459 1.356 . S
C453 C452 1.363 . S
C453 C456 1.363 . S
N454 C456 1.356 . S
N454 H466 0.984 . S
N454 H467 0.985 . S
N455 C457 1.356 1_556 S
N455 H460 0.984 . S
N455 H461 0.985 . S
C456 C450 1.379 . S
C456 C453 1.363 . S
C456 N454 1.356 . S
C457 C451 1.363 1_554 S
C457 C452 1.379 . S
C457 N455 1.356 1_554 S
N458 C450 1.356 . S
N458 H464 0.984 . S
N458 H465 0.984 1_554 S
N459 C452 1.356 . S
N459 H462 0.984 . S
N459 H463 0.985 . S
H460 N455 0.984 . S
H461 N455 0.985 . S
H462 N459 0.984 . S
H463 N459 0.985 . S
H464 N458 0.984 . S
H465 N458 0.984 1_556 S
H466 N454 0.984 . S
H467 N454 0.985 . S
C468 C469 1.363 . S
C468 C474 1.379 . S
C468 N476 1.356 . S
C469 C468 1.363 . S
C469 C475 1.363 . S
C470 C471 1.363 . S
C470 C475 1.379 . S
C470 N477 1.356 . S
C471 C470 1.363 . S
C471 C474 1.363 . S
N472 C474 1.356 . S
N472 H484 0.984 . S
N472 H485 0.985 . S
N473 C475 1.356 . S
N473 H478 0.984 . S
N473 H479 0.985 . S
C474 C468 1.379 . S
C474 C471 1.363 . S
C474 N472 1.356 . S
C475 C469 1.363 . S
C475 C470 1.379 . S
C475 N473 1.356 . S
N476 C468 1.356 . S
N476 H482 0.984 . S
N476 H483 0.984 . S
N477 C470 1.356 . S
N477 H480 0.984 . S
N477 H481 0.985 . S
H478 N473 0.984 . S
H479 N473 0.985 . S
H480 N477 0.984 . S
H481 N477 0.985 . S
H482 N476 0.984 . S
H483 N476 0.984 . S
H484 N472 0.984 . S
H485 N472 0.985 . S
C486 C487 1.363 . S
C486 C492 1.379 . S
C486 N494 1.356 . S
C487 C486 1.363 . S
C487 C493 1.363 . S
C488 C489 1.363 . S
C488 C493 1.379 . S
C488 N495 1.356 . S
C489 C488 1.363 . S
C489 C492 1.363 . S
N490 C492 1.356 . S
N490 H502 0.984 . S
N490 H503 0.985 . S
N491 C493 1.356 . S
N491 H496 0.984 . S
N491 H497 0.985 . S
C492 C486 1.379 . S
C492 C489 1.363 . S
C492 N490 1.356 . S
C493 C487 1.363 . S
C493 C488 1.379 . S
C493 N491 1.356 . S
N494 C486 1.356 . S
N494 H500 0.984 . S
N494 H501 0.984 . S
N495 C488 1.356 . S
N495 H498 0.984 . S
N495 H499 0.985 . S
H496 N491 0.984 . S
H497 N491 0.985 . S
H498 N495 0.984 . S
H499 N495 0.985 . S
H500 N494 0.984 . S
H501 N494 0.984 . S
H502 N490 0.984 . S
H503 N490 0.985 . S
C504 C505 1.363 . S
C504 C510 1.379 . S
C504 N512 1.356 . S
C505 C504 1.363 . S
C505 C511 1.363 . S
C506 C507 1.363 . S
C506 C511 1.379 . S
C506 N513 1.356 . S
C507 C506 1.363 . S
C507 C510 1.363 . S
N508 C510 1.356 . S
N508 H520 0.984 . S
N508 H521 0.985 . S
N509 C511 1.356 . S
N509 H514 0.984 . S
N509 H515 0.985 . S
C510 C504 1.379 . S
C510 C507 1.363 . S
C510 N508 1.356 . S
C511 C505 1.363 . S
C511 C506 1.379 . S
C511 N509 1.356 . S
N512 C504 1.356 . S
N512 H518 0.984 . S
N512 H519 0.984 . S
N513 C506 1.356 . S
N513 H516 0.984 . S
N513 H517 0.985 . S
H514 N509 0.984 . S
H515 N509 0.985 . S
H516 N513 0.984 . S
H517 N513 0.985 . S
H518 N512 0.984 . S
H519 N512 0.984 . S
H520 N508 0.984 . S
H521 N508 0.985 . S
C522 C523 1.363 . S
C522 C528 1.379 . S
C522 N530 1.356 . S
C523 C522 1.363 . S
C523 C529 1.363 . S
C524 C525 1.363 . S
C524 C529 1.379 . S
C524 N531 1.356 . S
C525 C524 1.363 . S
C525 C528 1.363 . S
N526 C528 1.356 . S
N526 H538 0.984 . S
N526 H539 0.985 . S
N527 C529 1.356 . S
N527 H532 0.984 . S
N527 H533 0.985 . S
C528 C522 1.379 . S
C528 C525 1.363 . S
C528 N526 1.356 . S
C529 C523 1.363 . S
C529 C524 1.379 . S
C529 N527 1.356 . S
N530 C522 1.356 . S
N530 H536 0.984 . S
N530 H537 0.984 . S
N531 C524 1.356 . S
N531 H534 0.984 . S
N531 H535 0.985 . S
H532 N527 0.984 . S
H533 N527 0.985 . S
H534 N531 0.984 . S
H535 N531 0.985 . S
H536 N530 0.984 . S
H537 N530 0.984 . S
H538 N526 0.984 . S
H539 N526 0.985 . S
C540 C541 1.363 . S
C540 C546 1.379 . S
C540 N548 1.356 . S
C541 C540 1.363 . S
C541 C547 1.363 . S
C542 C543 1.363 . S
C542 C547 1.379 . S
C542 N549 1.356 . S
C543 C542 1.363 . S
C543 C546 1.363 . S
N544 C546 1.356 . S
N544 H556 0.984 . S
N544 H557 0.985 . S
N545 C547 1.356 . S
N545 H550 0.984 . S
N545 H551 0.985 . S
C546 C540 1.379 . S
C546 C543 1.363 . S
C546 N544 1.356 . S
C547 C541 1.363 . S
C547 C542 1.379 . S
C547 N545 1.356 . S
N548 C540 1.356 . S
N548 H554 0.984 . S
N548 H555 0.984 . S
N549 C542 1.356 . S
N549 H552 0.984 . S
N549 H553 0.985 . S
H550 N545 0.984 . S
H551 N545 0.985 . S
H552 N549 0.984 . S
H553 N549 0.985 . S
H554 N548 0.984 . S
H555 N548 0.984 . S
H556 N544 0.984 . S
H557 N544 0.985 . S
C558 C559 1.363 . S
C558 C564 1.379 . S
C558 N566 1.356 . S
C559 C558 1.363 . S
C559 C565 1.363 . S
C560 C561 1.363 . S
C560 C565 1.379 . S
C560 N567 1.356 . S
C561 C560 1.363 . S
C561 C564 1.363 . S
N562 C564 1.356 . S
N562 H574 0.984 . S
N562 H575 0.985 . S
N563 C565 1.356 . S
N563 H568 0.984 . S
N563 H569 0.985 . S
C564 C558 1.379 . S
C564 C561 1.363 . S
C564 N562 1.356 . S
C565 C559 1.363 . S
C565 C560 1.379 . S
C565 N563 1.356 . S
N566 C558 1.356 . S
N566 H572 0.984 . S
N566 H573 0.984 . S
N567 C560 1.356 . S
N567 H570 0.984 . S
N567 H571 0.985 . S
H568 N563 0.984 . S
H569 N563 0.985 . S
H570 N567 0.984 . S
H571 N567 0.985 . S
H572 N566 0.984 . S
H573 N566 0.984 . S
H574 N562 0.984 . S
H575 N562 0.985 . S
C576 C577 1.363 1_556 S
C576 C582 1.379 . S
C576 N584 1.356 1_556 S
C577 C576 1.363 1_554 S
C577 C583 1.363 1_554 S
C578 C579 1.363 . S
C578 C583 1.379 . S
C578 N585 1.356 . S
C579 C578 1.363 . S
C579 C582 1.363 . S
N580 C582 1.356 . S
N580 H592 0.984 . S
N580 H593 0.985 . S
N581 C583 1.356 . S
N581 H586 0.984 1_556 S
N581 H587 0.985 . S
C582 C576 1.379 . S
C582 C579 1.363 . S
C582 N580 1.356 . S
C583 C577 1.363 1_556 S
C583 C578 1.379 . S
C583 N581 1.356 . S
N584 C576 1.356 1_554 S
N584 H590 0.984 . S
N584 H591 0.984 . S
N585 C578 1.356 . S
N585 H588 0.984 . S
N585 H589 0.985 . S
H586 N581 0.984 1_554 S
H587 N581 0.985 . S
H588 N585 0.984 . S
H589 N585 0.985 . S
H590 N584 0.984 . S
H591 N584 0.984 . S
H592 N580 0.984 . S
H593 N580 0.985 . S
C594 C595 1.363 1_554 S
C594 C600 1.379 . S
C594 N602 1.356 1_554 S
C595 C594 1.363 1_556 S
C595 C601 1.363 1_556 S
C596 C597 1.363 . S
C596 C601 1.379 . S
C596 N603 1.356 . S
C597 C596 1.363 . S
C597 C600 1.363 . S
N598 C600 1.356 . S
N598 H610 0.984 . S
N598 H611 0.985 . S
N599 C601 1.356 1_556 S
N599 H604 0.984 . S
N599 H605 0.985 . S
C600 C594 1.379 . S
C600 C597 1.363 . S
C600 N598 1.356 . S
C601 C595 1.363 1_554 S
C601 C596 1.379 . S
C601 N599 1.356 1_554 S
N602 C594 1.356 1_556 S
N602 H608 0.984 . S
N602 H609 0.984 . S
N603 C596 1.356 . S
N603 H606 0.984 . S
N603 H607 0.985 . S
H604 N599 0.984 . S
H605 N599 0.985 . S
H606 N603 0.984 . S
H607 N603 0.985 . S
H608 N602 0.984 . S
H609 N602 0.984 . S
H610 N598 0.984 . S
H611 N598 0.985 . S
C612 C613 1.363 . S
C612 C618 1.379 . S
C612 N620 1.356 . S
C613 C612 1.363 . S
C613 C619 1.363 . S
C614 C615 1.363 . S
C614 C619 1.379 . S
C614 N621 1.356 . S
C615 C614 1.363 . S
C615 C618 1.363 . S
N616 C618 1.356 1_554 S
N616 H628 0.984 . S
N616 H629 0.985 . S
N617 C619 1.356 . S
N617 H622 0.984 . S
N617 H623 0.985 . S
C618 C612 1.379 . S
C618 C615 1.363 . S
C618 N616 1.356 1_556 S
C619 C613 1.363 . S
C619 C614 1.379 . S
C619 N617 1.356 . S
N620 C612 1.356 . S
N620 H626 0.984 . S
N620 H627 0.984 . S
N621 C614 1.356 . S
N621 H624 0.984 . S
N621 H625 0.985 . S
H622 N617 0.984 . S
H623 N617 0.985 . S
H624 N621 0.984 . S
H625 N621 0.985 . S
H626 N620 0.984 . S
H627 N620 0.984 . S
H628 N616 0.984 . S
H629 N616 0.985 . S
C630 C631 1.363 . S
C630 C636 1.379 . S
C630 N638 1.356 . S
C631 C630 1.363 . S
C631 C637 1.363 . S
C632 C633 1.363 . S
C632 C637 1.379 . S
C632 N639 1.356 . S
C633 C632 1.363 . S
C633 C636 1.363 . S
N634 C636 1.356 1_556 S
N634 H646 0.984 . S
N634 H647 0.985 . S
N635 C637 1.356 . S
N635 H640 0.984 . S
N635 H641 0.985 . S
C636 C630 1.379 . S
C636 C633 1.363 . S
C636 N634 1.356 1_554 S
C637 C631 1.363 . S
C637 C632 1.379 . S
C637 N635 1.356 . S
N638 C630 1.356 . S
N638 H644 0.984 . S
N638 H645 0.984 . S
N639 C632 1.356 . S
N639 H642 0.984 1_554 S
N639 H643 0.985 . S
H640 N635 0.984 . S
H641 N635 0.985 . S
H642 N639 0.984 1_556 S
H643 N639 0.985 . S
H644 N638 0.984 . S
H645 N638 0.984 . S
H646 N634 0.984 . S
H647 N634 0.985 . S
C648 C649 1.363 . S
C648 C654 1.379 . S
C648 N656 1.356 . S
C649 C648 1.363 . S
C649 C655 1.363 . S
C650 C651 1.363 . S
C650 C655 1.379 . S
C650 N657 1.356 . S
C651 C650 1.363 . S
C651 C654 1.363 . S
N652 C654 1.356 . S
N652 H664 0.984 . S
N652 H665 0.985 . S
N653 C655 1.356 . S
N653 H658 0.984 . S
N653 H659 0.985 . S
C654 C648 1.379 . S
C654 C651 1.363 . S
C654 N652 1.356 . S
C655 C649 1.363 . S
C655 C650 1.379 . S
C655 N653 1.356 . S
N656 C648 1.356 . S
N656 H662 0.984 . S
N656 H663 0.984 . S
N657 C650 1.356 . S
N657 H660 0.984 . S
N657 H661 0.985 . S
H658 N653 0.984 . S
H659 N653 0.985 . S
H660 N657 0.984 . S
H661 N657 0.985 . S
H662 N656 0.984 . S
H663 N656 0.984 . S
H664 N652 0.984 . S
H665 N652 0.985 . S
C666 C667 1.363 . S
C666 C672 1.379 . S
C666 N674 1.356 . S
C667 C666 1.363 . S
C667 C673 1.363 . S
C668 C669 1.363 . S
C668 C673 1.379 . S
C668 N675 1.356 . S
C669 C668 1.363 . S
C669 C672 1.363 . S
N670 C672 1.356 . S
N670 H682 0.984 . S
N670 H683 0.985 . S
N671 C673 1.356 . S
N671 H676 0.984 . S
N671 H677 0.985 . S
C672 C666 1.379 . S
C672 C669 1.363 . S
C672 N670 1.356 . S
C673 C667 1.363 . S
C673 C668 1.379 . S
C673 N671 1.356 . S
N674 C666 1.356 . S
N674 H680 0.984 . S
N674 H681 0.984 . S
N675 C668 1.356 . S
N675 H678 0.984 . S
N675 H679 0.985 . S
H676 N671 0.984 . S
H677 N671 0.985 . S
H678 N675 0.984 . S
H679 N675 0.985 . S
H680 N674 0.984 . S
H681 N674 0.984 . S
H682 N670 0.984 . S
H683 N670 0.985 . S
C684 C685 1.363 . S
C684 C690 1.379 . S
C684 N692 1.356 . S
C685 C684 1.363 . S
C685 C691 1.363 . S
C686 C687 1.363 . S
C686 C691 1.379 . S
C686 N693 1.356 . S
C687 C686 1.363 . S
C687 C690 1.363 . S
N688 C690 1.356 . S
N688 H700 0.984 . S
N688 H701 0.985 . S
N689 C691 1.356 . S
N689 H694 0.984 . S
N689 H695 0.985 . S
C690 C684 1.379 . S
C690 C687 1.363 . S
C690 N688 1.356 . S
C691 C685 1.363 . S
C691 C686 1.379 . S
C691 N689 1.356 . S
N692 C684 1.356 . S
N692 H698 0.984 . S
N692 H699 0.984 . S
N693 C686 1.356 . S
N693 H696 0.984 . S
N693 H697 0.985 . S
H694 N689 0.984 . S
H695 N689 0.985 . S
H696 N693 0.984 . S
H697 N693 0.985 . S
H698 N692 0.984 . S
H699 N692 0.984 . S
H700 N688 0.984 . S
H701 N688 0.985 . S
C702 C703 1.363 . S
C702 C708 1.379 . S
C702 N710 1.356 . S
C703 C702 1.363 . S
C703 C709 1.363 . S
C704 C705 1.363 . S
C704 C709 1.379 . S
C704 N711 1.356 . S
C705 C704 1.363 . S
C705 C708 1.363 . S
N706 C708 1.356 . S
N706 H718 0.984 . S
N706 H719 0.985 . S
N707 C709 1.356 . S
N707 H712 0.984 . S
N707 H713 0.985 . S
C708 C702 1.379 . S
C708 C705 1.363 . S
C708 N706 1.356 . S
C709 C703 1.363 . S
C709 C704 1.379 . S
C709 N707 1.356 . S
N710 C702 1.356 . S
N710 H716 0.984 . S
N710 H717 0.984 . S
N711 C704 1.356 . S
N711 H714 0.984 . S
N711 H715 0.985 . S
H712 N707 0.984 . S
H713 N707 0.985 . S
H714 N711 0.984 . S
H715 N711 0.985 . S
H716 N710 0.984 . S
H717 N710 0.984 . S
H718 N706 0.984 . S
H719 N706 0.985 . S
C720 C721 1.363 . S
C720 C726 1.379 . S
C720 N728 1.356 . S
C721 C720 1.363 . S
C721 C727 1.363 . S
C722 C723 1.363 . S
C722 C727 1.379 . S
C722 N729 1.356 . S
C723 C722 1.363 . S
C723 C726 1.363 . S
N724 C726 1.356 . S
N724 H736 0.984 . S
N724 H737 0.985 . S
N725 C727 1.356 . S
N725 H730 0.984 . S
N725 H731 0.985 . S
C726 C720 1.379 . S
C726 C723 1.363 . S
C726 N724 1.356 . S
C727 C721 1.363 . S
C727 C722 1.379 . S
C727 N725 1.356 . S
N728 C720 1.356 . S
N728 H734 0.984 . S
N728 H735 0.984 . S
N729 C722 1.356 . S
N729 H732 0.984 . S
N729 H733 0.985 . S
H730 N725 0.984 . S
H731 N725 0.985 . S
H732 N729 0.984 . S
H733 N729 0.985 . S
H734 N728 0.984 . S
H735 N728 0.984 . S
H736 N724 0.984 . S
H737 N724 0.985 . S
C738 C739 1.363 . S
C738 C744 1.379 . S
C738 N746 1.356 . S
C739 C738 1.363 . S
C739 C745 1.363 . S
C740 C741 1.363 . S
C740 C745 1.379 . S
C740 N747 1.356 . S
C741 C740 1.363 . S
C741 C744 1.363 . S
N742 C744 1.356 . S
N742 H754 0.984 . S
N742 H755 0.985 . S
N743 C745 1.356 . S
N743 H748 0.984 . S
N743 H749 0.985 . S
C744 C738 1.379 . S
C744 C741 1.363 . S
C744 N742 1.356 . S
C745 C739 1.363 . S
C745 C740 1.379 . S
C745 N743 1.356 . S
N746 C738 1.356 . S
N746 H752 0.984 . S
N746 H753 0.984 . S
N747 C740 1.356 . S
N747 H750 0.984 . S
N747 H751 0.985 . S
H748 N743 0.984 . S
H749 N743 0.985 . S
H750 N747 0.984 . S
H751 N747 0.985 . S
H752 N746 0.984 . S
H753 N746 0.984 . S
H754 N742 0.984 . S
H755 N742 0.985 . S
C756 C757 1.363 . S
C756 C762 1.379 . S
C756 N764 1.356 . S
C757 C756 1.363 . S
C757 C763 1.363 . S
C758 C759 1.363 . S
C758 C763 1.379 . S
C758 N765 1.356 . S
C759 C758 1.363 . S
C759 C762 1.363 . S
N760 C762 1.356 . S
N760 H772 0.984 . S
N760 H773 0.985 . S
N761 C763 1.356 . S
N761 H766 0.984 . S
N761 H767 0.985 . S
C762 C756 1.379 . S
C762 C759 1.363 . S
C762 N760 1.356 . S
C763 C757 1.363 . S
C763 C758 1.379 . S
C763 N761 1.356 . S
N764 C756 1.356 . S
N764 H770 0.984 . S
N764 H771 0.984 . S
N765 C758 1.356 . S
N765 H768 0.984 . S
N765 H769 0.985 . S
H766 N761 0.984 . S
H767 N761 0.985 . S
H768 N765 0.984 . S
H769 N765 0.985 . S
H770 N764 0.984 . S
H771 N764 0.984 . S
H772 N760 0.984 . S
H773 N760 0.985 . S
C774 C775 1.363 . S
C774 C780 1.379 . S
C774 N782 1.356 . S
C775 C774 1.363 . S
C775 C781 1.363 . S
C776 C777 1.363 . S
C776 C781 1.379 . S
C776 N783 1.356 . S
C777 C776 1.363 . S
C777 C780 1.363 . S
N778 C780 1.356 . S
N778 H790 0.984 . S
N778 H791 0.985 . S
N779 C781 1.356 . S
N779 H784 0.984 . S
N779 H785 0.985 . S
C780 C774 1.379 . S
C780 C777 1.363 . S
C780 N778 1.356 . S
C781 C775 1.363 . S
C781 C776 1.379 . S
C781 N779 1.356 . S
N782 C774 1.356 . S
N782 H788 0.984 . S
N782 H789 0.984 . S
N783 C776 1.356 . S
N783 H786 0.984 . S
N783 H787 0.985 . S
H784 N779 0.984 . S
H785 N779 0.985 . S
H786 N783 0.984 . S
H787 N783 0.985 . S
H788 N782 0.984 . S
H789 N782 0.984 . S
H790 N778 0.984 . S
H791 N778 0.985 . S
C792 C793 1.363 1_554 S
C792 C798 1.379 1_554 S
C792 N800 1.356 . S
C793 C792 1.363 1_556 S
C793 C799 1.363 . S
C794 C795 1.363 . S
C794 C799 1.379 . S
C794 N801 1.356 . S
C795 C794 1.363 . S
C795 C798 1.363 . S
N796 C798 1.356 . S
N796 H808 0.984 1_556 S
N796 H809 0.985 . S
N797 C799 1.356 . S
N797 H802 0.984 . S
N797 H803 0.985 . S
C798 C792 1.379 1_556 S
C798 C795 1.363 . S
C798 N796 1.356 . S
C799 C793 1.363 . S
C799 C794 1.379 . S
C799 N797 1.356 . S
N800 C792 1.356 . S
N800 H806 0.984 . S
N800 H807 0.984 . S
N801 C794 1.356 . S
N801 H804 0.984 . S
N801 H805 0.985 . S
H802 N797 0.984 . S
H803 N797 0.985 . S
H804 N801 0.984 . S
H805 N801 0.985 . S
H806 N800 0.984 . S
H807 N800 0.984 . S
H808 N796 0.984 1_554 S
H809 N796 0.985 . S
C810 C811 1.363 . S
C810 C816 1.379 . S
C810 N818 1.356 . S
C811 C810 1.363 . S
C811 C817 1.363 . S
C812 C813 1.363 1_556 S
C812 C817 1.379 1_556 S
C812 N819 1.356 . S
C813 C812 1.363 1_554 S
C813 C816 1.363 . S
N814 C816 1.356 . S
N814 H826 0.984 . S
N814 H827 0.985 . S
N815 C817 1.356 . S
N815 H820 0.984 . S
N815 H821 0.985 1_554 S
C816 C810 1.379 . S
C816 C813 1.363 . S
C816 N814 1.356 . S
C817 C811 1.363 . S
C817 C812 1.379 1_554 S
C817 N815 1.356 . S
N818 C810 1.356 . S
N818 H824 0.984 . S
N818 H825 0.984 . S
N819 C812 1.356 . S
N819 H822 0.984 . S
N819 H823 0.985 . S
H820 N815 0.984 . S
H821 N815 0.985 1_556 S
H822 N819 0.984 . S
H823 N819 0.985 . S
H824 N818 0.984 . S
H825 N818 0.984 . S
H826 N814 0.984 . S
H827 N814 0.985 . S
C828 C829 1.363 . S
C828 C834 1.379 . S
C828 N836 1.356 . S
C829 C828 1.363 . S
C829 C835 1.363 . S
C830 C831 1.363 . S
C830 C835 1.379 . S
C830 N837 1.356 . S
C831 C830 1.363 . S
C831 C834 1.363 . S
N832 C834 1.356 . S
N832 H844 0.984 . S
N832 H845 0.985 . S
N833 C835 1.356 . S
N833 H838 0.984 . S
N833 H839 0.985 . S
C834 C828 1.379 . S
C834 C831 1.363 . S
C834 N832 1.356 . S
C835 C829 1.363 . S
C835 C830 1.379 . S
C835 N833 1.356 . S
N836 C828 1.356 . S
N836 H842 0.984 1_554 S
N836 H843 0.984 . S
N837 C830 1.356 . S
N837 H840 0.984 . S
N837 H841 0.985 . S
H838 N833 0.984 . S
H839 N833 0.985 . S
H840 N837 0.984 . S
H841 N837 0.985 . S
H842 N836 0.984 1_556 S
H843 N836 0.984 . S
H844 N832 0.984 . S
H845 N832 0.985 . S
C846 C847 1.363 . S
C846 C852 1.379 1_655 S
C846 N854 1.356 . S
C847 C846 1.363 . S
C847 C853 1.363 . S
C848 C849 1.363 . S
C848 C853 1.379 1_455 S
C848 N855 1.356 . S
C849 C848 1.363 . S
C849 C852 1.363 . S
N850 C852 1.356 . S
N850 H862 0.984 . S
N850 H863 0.985 . S
N851 C853 1.356 . S
N851 H856 0.984 . S
N851 H857 0.985 . S
C852 C846 1.379 1_455 S
C852 C849 1.363 . S
C852 N850 1.356 . S
C853 C847 1.363 . S
C853 C848 1.379 1_655 S
C853 N851 1.356 . S
N854 C846 1.356 . S
N854 H860 0.984 . S
N854 H861 0.984 . S
N855 C848 1.356 . S
N855 H858 0.984 . S
N855 H859 0.985 . S
H856 N851 0.984 . S
H857 N851 0.985 . S
H858 N855 0.984 . S
H859 N855 0.985 . S
H860 N854 0.984 . S
H861 N854 0.984 . S
H862 N850 0.984 . S
H863 N850 0.985 . S
C864 C865 1.363 . S
C864 C870 1.379 1_545 S
C864 N872 1.356 . S
C865 C864 1.363 . S
C865 C871 1.363 . S
C866 C867 1.363 . S
C866 C871 1.379 1_565 S
C866 N873 1.356 . S
C867 C866 1.363 . S
C867 C870 1.363 . S
N868 C870 1.356 . S
N868 H880 0.984 . S
N868 H881 0.985 . S
N869 C871 1.356 . S
N869 H874 0.984 . S
N869 H875 0.985 . S
C870 C864 1.379 1_565 S
C870 C867 1.363 . S
C870 N868 1.356 . S
C871 C865 1.363 . S
C871 C866 1.379 1_545 S
C871 N869 1.356 . S
N872 C864 1.356 . S
N872 H878 0.984 . S
N872 H879 0.984 . S
N873 C866 1.356 . S
N873 H876 0.984 . S
N873 H877 0.985 . S
H874 N869 0.984 . S
H875 N869 0.985 . S
H876 N873 0.984 . S
H877 N873 0.985 . S
H878 N872 0.984 . S
H879 N872 0.984 . S
H880 N868 0.984 . S
H881 N868 0.985 . S
C882 C883 1.363 . S
C882 C888 1.379 . S
C882 N890 1.356 . S
C883 C882 1.363 . S
C883 C889 1.363 . S
C884 C885 1.363 . S
C884 C889 1.379 . S
C884 N891 1.356 . S
C885 C884 1.363 . S
C885 C888 1.363 . S
N886 C888 1.356 . S
N886 H898 0.984 . S
N886 H899 0.985 . S
N887 C889 1.356 . S
N887 H892 0.984 . S
N887 H893 0.985 . S
C888 C882 1.379 . S
C888 C885 1.363 . S
C888 N886 1.356 . S
C889 C883 1.363 . S
C889 C884 1.379 . S
C889 N887 1.356 . S
N890 C882 1.356 . S
N890 H896 0.984 . S
N890 H897 0.984 . S
N891 C884 1.356 . S
N891 H894 0.984 . S
N891 H895 0.985 . S
H892 N887 0.984 . S
H893 N887 0.985 . S
H894 N891 0.984 . S
H895 N891 0.985 . S
H896 N890 0.984 . S
H897 N890 0.984 . S
H898 N886 0.984 . S
H899 N886 0.985 . S
C900 C901 1.363 . S
C900 C906 1.379 1_455 S
C900 N908 1.356 . S
C901 C900 1.363 . S
C901 C907 1.363 . S
C902 C903 1.363 . S
C902 C907 1.379 1_655 S
C902 N909 1.356 . S
C903 C902 1.363 . S
C903 C906 1.363 . S
N904 C906 1.356 1_554 S
N904 H916 0.984 . S
N904 H917 0.985 . S
N905 C907 1.356 . S
N905 H910 0.984 . S
N905 H911 0.985 . S
C906 C900 1.379 1_655 S
C906 C903 1.363 . S
C906 N904 1.356 1_556 S
C907 C901 1.363 . S
C907 C902 1.379 1_455 S
C907 N905 1.356 . S
N908 C900 1.356 . S
N908 H914 0.984 1_556 S
N908 H915 0.984 . S
N909 C902 1.356 . S
N909 H912 0.984 . S
N909 H913 0.985 . S
H910 N905 0.984 . S
H911 N905 0.985 . S
H912 N909 0.984 . S
H913 N909 0.985 . S
H914 N908 0.984 1_554 S
H915 N908 0.984 . S
H916 N904 0.984 . S
H917 N904 0.985 . S
C918 C919 1.363 1_554 S
C918 C924 1.379 1_545 S
C918 N926 1.356 . S
C919 C918 1.363 1_556 S
C919 C925 1.363 . S
C920 C921 1.363 1_556 S
C920 C925 1.379 1_565 S
C920 N927 1.356 . S
C921 C920 1.363 1_554 S
C921 C924 1.363 . S
N922 C924 1.356 . S
N922 H934 0.984 . S
N922 H935 0.985 . S
N923 C925 1.356 . S
N923 H928 0.984 . S
N923 H929 0.985 . S
C924 C918 1.379 1_565 S
C924 C921 1.363 . S
C924 N922 1.356 . S
C925 C919 1.363 . S
C925 C920 1.379 1_545 S
C925 N923 1.356 . S
N926 C918 1.356 . S
N926 H932 0.984 . S
N926 H933 0.984 . S
N927 C920 1.356 . S
N927 H930 0.984 . S
N927 H931 0.985 . S
H928 N923 0.984 . S
H929 N923 0.985 . S
H930 N927 0.984 . S
H931 N927 0.985 . S
H932 N926 0.984 . S
H933 N926 0.984 . S
H934 N922 0.984 . S
H935 N922 0.985 . S
C397 N13 1.383 . S
C399 N2 1.383 . S
C415 N35 1.383 . S
C417 N46 1.383 . S
C433 N68 1.383 . S
C435 N79 1.383 . S
C451 N112 1.383 . S
C453 N101 1.383 . S
C469 N145 1.383 . S
C471 N134 1.383 . S
C487 N167 1.383 . S
C489 N178 1.383 . S
C505 N211 1.383 . S
C507 N200 1.383 . S
C523 N244 1.383 . S
C525 N233 1.383 . S
C541 N266 1.383 . S
C543 N277 1.383 . S
C559 N310 1.383 . S
C561 N299 1.383 . S
C577 N343 1.383 . S
C579 N332 1.383 . S
C595 N365 1.383 . S
C597 N376 1.383 . S
C613 C205 1.569 . S
C615 C7 1.569 1_556 S
C631 C40 1.569 . S
C633 C238 1.569 1_554 S
C649 C271 1.569 . S
C651 C73 1.569 . S
C667 C304 1.569 . S
C669 C106 1.569 . S
C685 C337 1.569 . S
C687 C139 1.569 . S
C703 C370 1.569 . S
C705 C172 1.569 . S
C721 C18 1.299 . S
C723 C348 1.299 . S
C739 C51 1.299 . S
C741 C381 1.299 . S
C757 C84 1.299 . S
C759 C216 1.299 . S
C775 C249 1.299 . S
C777 C117 1.299 . S
C793 C282 1.299 1_556 S
C795 C150 1.299 . S
C811 C315 1.298 . S
C813 C183 1.298 1_554 S
C829 C21 1.553 . S
C831 C318 1.553 . S
C847 C54 1.553 . S
C849 C351 1.553 . S
C865 C384 1.553 . S
C867 C87 1.553 . S
C883 C120 1.553 . S
C885 C219 1.553 . S
C901 C153 1.553 . S
C903 C252 1.553 . S
C919 C186 1.553 . S
C921 C285 1.553 . S
