# Generated by pormake.
# Topology lcy, (6)-cn, num edge types: 1
# Building blocks:
#     Node 0, Type 0, BuildingBlock: UKALOJ_clean_sbu_0, # of connection points: 6
#     Node 1, Type 0, BuildingBlock: UKALOJ_clean_sbu_0, # of connection points: 6
#     Node 2, Type 0, BuildingBlock: UKALOJ_clean_sbu_0, # of connection points: 6
#     Node 3, Type 0, BuildingBlock: UKALOJ_clean_sbu_0, # of connection points: 6
#     Edge 4, Type (0, 0), BuildingBlock: XIVTED_clean_linker_0, # of connection points: 2
#     Edge 5, Type (0, 0), BuildingBlock: XIVTED_clean_linker_0, # of connection points: 2
#     Edge 6, Type (0, 0), BuildingBlock: XIVTED_clean_linker_0, # of connection points: 2
#     Edge 7, Type (0, 0), BuildingBlock: XIVTED_clean_linker_0, # of connection points: 2
#     Edge 8, Type (0, 0), BuildingBlock: XIVTED_clean_linker_0, # of connection points: 2
#     Edge 9, Type (0, 0), BuildingBlock: XIVTED_clean_linker_0, # of connection points: 2
#     Edge 10, Type (0, 0), BuildingBlock: XIVTED_clean_linker_0, # of connection points: 2
#     Edge 11, Type (0, 0), BuildingBlock: XIVTED_clean_linker_0, # of connection points: 2
#     Edge 12, Type (0, 0), BuildingBlock: XIVTED_clean_linker_0, # of connection points: 2
#     Edge 13, Type (0, 0), BuildingBlock: XIVTED_clean_linker_0, # of connection points: 2
#     Edge 14, Type (0, 0), BuildingBlock: XIVTED_clean_linker_0, # of connection points: 2
#     Edge 15, Type (0, 0), BuildingBlock: XIVTED_clean_linker_0, # of connection points: 2
# Relax obj value: 0.341
# Max RMSD: 0.294
# Mean RMSD: 0.263
data_MOF--net-lcy--node1-UKALOJ_clean_sbu_0--edge1-XIVTED_clean_linker_0
_symmetry_space_group_name_H-M    P1
_symmetry_Int_Tables_number       1
_symmetry_cell_setting            triclinic
loop_
_symmetry_equiv_pos_as_xyz
'x, y, z'
_cell_length_a     26.486423
_cell_length_b     27.45046
_cell_length_c     26.841094
_cell_angle_alpha  89.564027
_cell_angle_beta   99.145079
_cell_angle_gamma 98.949406
loop_
_atom_site_label
_atom_site_type_symbol
_atom_site_fract_x
_atom_site_fract_y
_atom_site_fract_z
_atom_type_partial_charge
Zn0 Zn 0.36213 0.43511 0.32844 0.0
O1 O 0.32873 0.47416 0.37958 0.0
C2 C 0.44305 0.52282 0.33047 0.0
Zn3 Zn 0.4293 0.43087 0.38973 0.0
C4 C 0.35226 0.48328 0.42464 0.0
O5 O 0.39575 0.46914 0.43889 0.0
C6 C 0.43859 0.38138 0.29409 0.0
O7 O 0.38897 0.36378 0.4155 0.0
O8 O 0.32541 0.36868 0.35341 0.0
N9 N 0.49388 0.42674 0.44253 0.0
C10 C 0.51891 0.38815 0.45563 0.0
C11 C 0.5681 0.45286 0.4878 0.0
N12 N 0.52448 0.46686 0.46276 0.0
N13 N 0.56549 0.40361 0.48399 0.0
C14 C 0.29282 0.45974 0.22835 0.0
C15 C 0.23785 0.39386 0.21683 0.0
N16 N 0.29976 0.43339 0.27086 0.0
N17 N 0.26507 0.39268 0.26359 0.0
N18 N 0.25513 0.43528 0.19359 0.0
H19 H 0.32387 0.53227 0.25758 0.0
H20 H 0.2985 0.53015 0.1914 0.0
H21 H 0.35909 0.50851 0.21274 0.0
C22 C 0.32018 0.51071 0.22207 0.0
C23 C 0.49993 0.33586 0.43745 0.0
H24 H 0.484 0.31442 0.46817 0.0
H25 H 0.53235 0.31856 0.4277 0.0
H26 H 0.46906 0.33313 0.40437 0.0
O27 O 0.46185 0.39248 0.33847 0.0
O28 O 0.39569 0.3959 0.27916 0.0
C29 C 0.34423 0.34666 0.39195 0.0
O30 O 0.39993 0.5024 0.30628 0.0
O31 O 0.46613 0.4998 0.36616 0.0
Zn32 Zn 0.92631 0.14111 0.62007 0.0
O33 O 0.88117 0.19272 0.57862 0.0
C34 C 0.94654 0.21428 0.70226 0.0
Zn35 Zn 0.86706 0.12228 0.67027 0.0
C36 C 0.83665 0.19353 0.59088 0.0
O37 O 0.82281 0.16706 0.62671 0.0
C38 C 0.95237 0.06464 0.69819 0.0
O39 O 0.82612 0.0609 0.62325 0.0
O40 O 0.8837 0.08355 0.57365 0.0
N41 N 0.81374 0.11411 0.71875 0.0
C42 C 0.79496 0.07727 0.74765 0.0
C43 C 0.76781 0.14227 0.768 0.0
N44 N 0.79621 0.15418 0.73117 0.0
N45 N 0.76636 0.09424 0.7795 0.0
C46 C 0.01726 0.18411 0.56135 0.0
C47 C 0.02346 0.11974 0.52023 0.0
N48 N 0.97967 0.14815 0.57166 0.0
N49 N 0.98367 0.10834 0.54588 0.0
N50 N 0.04556 0.16699 0.52954 0.0
H51 H 0.98674 0.24627 0.58615 0.0
H52 H 0.04153 0.26203 0.55328 0.0
H53 H 0.05107 0.23973 0.61679 0.0
C54 C 0.02437 0.23621 0.5803 0.0
C55 C 0.80611 0.02551 0.74545 0.0
H56 H 0.83345 0.02167 0.71922 0.0
H57 H 0.76982 1.00048 0.73092 0.0
H58 H 0.82135 0.01356 0.78375 0.0
O59 O 0.9125 0.07539 0.71363 0.0
O60 O 0.96822 0.08794 0.66098 0.0
C61 C 0.84371 0.05522 0.5825 0.0
O62 O 0.96764 0.20043 0.66657 0.0
O63 O 0.90654 0.18711 0.71356 0.0
Zn64 Zn 0.06766 0.64985 0.86274 0.0
O65 O 0.12915 0.70116 0.90642 0.0
C66 C 0.04436 0.72963 0.7917 0.0
Zn67 Zn 0.11437 0.65138 0.80118 0.0
C68 C 0.16995 0.71527 0.88709 0.0
O69 O 0.17161 0.70151 0.84251 0.0
C70 C 0.01938 0.57714 0.77933 0.0
O71 O 0.15332 0.59294 0.83535 0.0
O72 O 0.10336 0.5925 0.89326 0.0
N73 N 0.15567 0.65729 0.74334 0.0
C74 C 0.17444 0.62378 0.71811 0.0
C75 C 0.19164 0.69322 0.68324 0.0
N76 N 0.16644 0.70039 0.72169 0.0
N77 N 0.19731 0.64551 0.68046 0.0
C78 C 0.0033 0.674 0.94512 0.0
C79 C 0.97436 0.6012 0.96631 0.0
N80 N 0.02453 0.64242 0.91968 0.0
N81 N 0.0069 0.59731 0.93337 0.0
N82 N 0.97155 0.64892 0.97449 0.0
H83 H 0.04534 0.74152 0.92118 0.0
H84 H 0.0119 0.74859 0.97349 0.0
H85 H 0.97559 0.73739 0.91137 0.0
C86 C 0.00976 0.72856 0.93738 0.0
C87 C 0.16777 0.56955 0.7284 0.0
H88 H 0.13251 0.55755 0.74525 0.0
H89 H 0.20167 0.5616 0.75541 0.0
H90 H 0.16545 0.54783 0.69319 0.0
O91 O 0.05777 0.598 0.76005 0.0
O92 O 0.01058 0.59487 0.82023 0.0
C93 C 0.13797 0.5748 0.87509 0.0
O94 O 0.03096 0.70917 0.83121 0.0
O95 O 0.07669 0.71153 0.76986 0.0
Zn96 Zn 0.61152 0.8733 0.15994 0.0
O97 O 0.54875 0.83541 0.10503 0.0
C98 C 0.63711 0.94893 0.08703 0.0
Zn99 Zn 0.56834 0.93513 0.16805 0.0
C100 C 0.50869 0.85645 0.09581 0.0
O101 O 0.50915 0.89804 0.11596 0.0
C102 C 0.66586 0.94992 0.23912 0.0
O103 O 0.53045 0.89977 0.22663 0.0
O104 O 0.57581 0.84063 0.21721 0.0
N105 N 0.52751 0.9923 0.16363 0.0
C106 C 0.52672 0.03049 0.19443 0.0
C107 C 0.48273 0.04365 0.12331 0.0
N108 N 0.49982 1.00041 0.11961 0.0
N109 N 0.4995 0.06356 0.16977 0.0
C110 C 0.67181 0.79444 0.12497 0.0
C111 C 0.70614 0.76922 0.19575 0.0
N112 N 0.65296 0.81637 0.16123 0.0
N113 N 0.67382 0.80011 0.20512 0.0
N114 N 0.70539 0.76483 0.14571 0.0
H115 H 0.62667 0.82368 0.06066 0.0
H116 H 0.65637 0.77191 0.04667 0.0
H117 H 0.69578 0.83089 0.06018 0.0
C118 C 0.66173 0.80599 0.06998 0.0
C119 C 0.55051 0.03411 0.2489 0.0
H120 H 0.55256 0.99686 0.26465 0.0
H121 H 0.52786 0.05414 0.27091 0.0
H122 H 0.59019 0.05498 0.2522 0.0
O123 O 0.62712 0.971 0.22305 0.0
O124 O 0.671 0.91038 0.21726 0.0
C125 C 0.54403 0.85841 0.2397 0.0
O126 O 0.64791 0.90734 0.10202 0.0
O127 O 0.60619 0.96925 0.10863 0.0
H128 H 0.08678 0.49137 0.90762 0.0
H129 H 0.32083 0.46889 0.12849 0.0
H130 H 0.24014 0.57257 0.91073 0.0
H131 H 0.15987 0.42063 0.13756 0.0
H132 H 0.29684 0.48944 0.03986 0.0
H133 H 0.1191 0.44452 0.98021 0.0
C134 C 0.1278 0.49789 0.92256 0.0
C135 C 0.16097 0.53579 0.90359 0.0
C136 C 0.26679 0.47423 0.06118 0.0
C137 C 0.19774 0.48401 0.98771 0.0
C138 C 0.28033 0.46325 0.11191 0.0
C139 C 0.24188 0.44532 0.14086 0.0
C140 C 0.21449 0.46631 0.03903 0.0
C141 C 0.1904 0.43561 0.11675 0.0
C142 C 0.14609 0.47164 0.96433 0.0
C143 C 0.21358 0.54332 0.92426 0.0
N144 N 0.17809 0.44675 0.06734 0.0
N145 N 0.23028 0.51833 0.96613 0.0
H146 H 0.65579 0.02496 0.3012 0.0
H147 H 0.88229 0.99792 0.52039 0.0
H148 H 0.74707 0.90915 0.29181 0.0
H149 H 0.74036 0.04381 0.54699 0.0
H150 H 0.83957 0.96782 0.43594 0.0
H151 H 0.69507 0.03993 0.38884 0.0
C152 C 0.68456 0.00302 0.31717 0.0
C153 C 0.69769 0.96551 0.28874 0.0
C154 C 0.81744 0.98327 0.46077 0.0
C155 C 0.74298 0.98249 0.38999 0.0
C156 C 0.84155 0.99999 0.50902 0.0
C157 C 0.81454 0.02292 0.54071 0.0
C158 C 0.76656 0.99105 0.44369 0.0
C159 C 0.76224 0.02568 0.52399 0.0
C160 C 0.70657 0.01126 0.3676 0.0
C161 C 0.73574 0.93855 0.31209 0.0
N162 N 0.74023 0.01098 0.47611 0.0
N163 N 0.75723 0.94766 0.36142 0.0
H164 H 0.26994 0.58617 0.69837 0.0
H165 H 0.26733 0.53066 0.40643 0.0
H166 H 0.17922 0.6564 0.57979 0.0
H167 H 0.385 0.49502 0.5258 0.0
H168 H 0.22996 0.57242 0.46883 0.0
H169 H 0.30841 0.54731 0.63495 0.0
C170 C 0.25804 0.593 0.6588 0.0
C171 C 0.22106 0.62365 0.64382 0.0
C172 C 0.26408 0.55557 0.48117 0.0
C173 C 0.26482 0.58015 0.5713 0.0
C174 C 0.28528 0.53164 0.44567 0.0
C175 C 0.32926 0.50932 0.46099 0.0
C176 C 0.28678 0.55659 0.53221 0.0
C177 C 0.35111 0.51179 0.51226 0.0
C178 C 0.28012 0.57124 0.62268 0.0
C179 C 0.20759 0.63268 0.59238 0.0
N180 N 0.32948 0.53479 0.54603 0.0
N181 N 0.22921 0.61065 0.55772 0.0
H182 H 0.64702 0.04606 0.05992 0.0
H183 H 0.71989 0.99864 0.79023 0.0
H184 H 0.67232 0.90319 0.01251 0.0
H185 H 0.76486 0.13953 0.86787 0.0
H186 H 0.69038 0.96315 0.8662 0.0
H187 H 0.67807 0.08167 0.98408 0.0
C188 C 0.65927 0.02226 0.03369 0.0
C189 C 0.65758 0.97168 0.04274 0.0
C190 C 0.70717 0.00176 0.86657 0.0
C191 C 0.692 0.01185 0.95576 0.0
C192 C 0.72478 0.02196 0.82332 0.0
C193 C 0.74679 0.07189 0.82297 0.0
C194 C 0.71026 0.03195 0.9093 0.0
C195 C 0.74857 0.1008 0.86646 0.0
C196 C 0.677 0.04256 0.99055 0.0
C197 C 0.67368 0.94245 0.00739 0.0
N198 N 0.73055 0.08049 0.90777 0.0
N199 N 0.68985 0.96287 0.96527 0.0
H200 H 0.12946 0.22429 0.5827 0.0
H201 H 0.26555 0.28212 0.34035 0.0
H202 H 0.06737 0.15974 0.43569 0.0
H203 H 0.3426 0.32391 0.49122 0.0
H204 H 0.1951 0.23291 0.3754 0.0
H205 H 0.20872 0.25995 0.55084 0.0
C206 C 0.13224 0.21841 0.54348 0.0
C207 C 0.09138 0.19032 0.51125 0.0
C208 C 0.22778 0.25205 0.40101 0.0
C209 C 0.18231 0.2294 0.47499 0.0
C210 C 0.26818 0.27987 0.38099 0.0
C211 C 0.30982 0.30715 0.41297 0.0
C212 C 0.22846 0.25223 0.45343 0.0
C213 C 0.31129 0.30314 0.4653 0.0
C214 C 0.17775 0.23802 0.52552 0.0
C215 C 0.09781 0.18183 0.4614 0.0
N216 N 0.27063 0.27693 0.48396 0.0
N217 N 0.14219 0.2016 0.44467 0.0
H218 H 0.9748 0.77803 0.8291 0.0
H219 H 0.02601 0.01976 0.6627 0.0
H220 H 0.07751 0.79171 0.71835 0.0
H221 H 0.92523 0.00502 0.77526 0.0
H222 H 0.04803 0.93795 0.68437 0.0
H223 H 0.95647 0.86115 0.8096 0.0
C224 C 0.9932 0.79827 0.80034 0.0
C225 C 0.02782 0.77755 0.77542 0.0
C226 C 0.02146 0.95281 0.70465 0.0
C227 C 0.00735 0.87363 0.75316 0.0
C228 C 0.00921 0.99982 0.69262 0.0
C229 C 0.97363 0.01958 0.71714 0.0
C230 C 0.99792 0.9251 0.74142 0.0
C231 C 0.9528 0.99152 0.75524 0.0
C232 C 0.98289 0.84599 0.78937 0.0
C233 C 0.05039 0.80589 0.73844 0.0
N234 N 0.96496 0.94578 0.76591 0.0
N235 N 0.03993 0.85242 0.7286 0.0
H236 H 0.26394 0.7395 0.85678 0.0
H237 H 0.41321 0.86222 0.11555 0.0
H238 H 0.18768 0.74775 0.98659 0.0
H239 H 0.49132 0.79617 0.01057 0.0
H240 H 0.32999 0.8288 0.06567 0.0
H241 H 0.34656 0.77043 0.90858 0.0
C242 C 0.2643 0.74837 0.8961 0.0
C243 C 0.21845 0.74091 0.91733 0.0
C244 C 0.3652 0.82133 0.05362 0.0
C245 C 0.31371 0.77627 0.97691 0.0
C246 C 0.41276 0.84049 0.08188 0.0
C247 C 0.45921 0.83218 0.06684 0.0
C248 C 0.36384 0.79436 0.00928 0.0
C249 C 0.45639 0.80334 0.02339 0.0
C250 C 0.31177 0.76559 0.9257 0.0
C251 C 0.22185 0.75306 0.96856 0.0
N252 N 0.40935 0.78592 0.99564 0.0
N253 N 0.26873 0.77026 0.99663 0.0
H254 H 0.38836 0.33577 0.20587 0.0
H255 H 0.57413 0.13167 0.22198 0.0
H256 H 0.52795 0.34168 0.31509 0.0
H257 H 0.41566 0.10848 0.14708 0.0
H258 H 0.5654 0.21562 0.24432 0.0
H259 H 0.40749 0.26096 0.16918 0.0
C260 C 0.42367 0.32203 0.22141 0.0
C261 C 0.4562 0.34448 0.26414 0.0
C262 C 0.53244 0.19206 0.22325 0.0
C263 C 0.47777 0.25875 0.22278 0.0
C264 C 0.53709 0.14384 0.21136 0.0
C265 C 0.49474 0.1125 0.18465 0.0
C266 C 0.48538 0.20925 0.20749 0.0
C267 C 0.44875 0.13135 0.16868 0.0
C268 C 0.43427 0.2791 0.20071 0.0
C269 C 0.5015 0.32519 0.28253 0.0
N270 N 0.44513 0.17851 0.1806 0.0
N271 N 0.51063 0.28299 0.26211 0.0
H272 H 0.85542 0.2855 0.54772 0.0
H273 H 0.55795 0.3178 0.53392 0.0
H274 H 0.73289 0.17158 0.57793 0.0
H275 H 0.66625 0.42595 0.47253 0.0
H276 H 0.62525 0.26628 0.55436 0.0
H277 H 0.78996 0.33945 0.52045 0.0
C278 C 0.81484 0.27159 0.54764 0.0
C279 C 0.7995 0.22426 0.56545 0.0
C280 C 0.63457 0.30117 0.53623 0.0
C281 C 0.7252 0.28543 0.53562 0.0
C282 C 0.59601 0.33045 0.52454 0.0
C283 C 0.60639 0.37547 0.50058 0.0
C284 C 0.68428 0.31715 0.52434 0.0
C285 C 0.6569 0.39119 0.49084 0.0
C286 C 0.77763 0.3024 0.53258 0.0
C287 C 0.74653 0.20806 0.5651 0.0
N288 N 0.6941 0.36192 0.50253 0.0
N289 N 0.71157 0.23859 0.55091 0.0
H290 H 0.95175 0.51028 0.82386 0.0
H291 H 0.02693 0.28369 0.68277 0.0
H292 H 0.03681 0.52536 0.69866 0.0
H293 H 0.89773 0.26429 0.76453 0.0
H294 H 0.03817 0.37231 0.69842 0.0
H295 H 0.93427 0.42063 0.80883 0.0
C296 C 0.9656 0.49507 0.79241 0.0
C297 C 0.996 0.52577 0.7626 0.0
C298 C 0.00748 0.34869 0.71321 0.0
C299 C 0.97775 0.42293 0.74657 0.0
C300 C 0.00132 0.29783 0.70466 0.0
C301 C 0.96101 0.26611 0.72185 0.0
C302 C 0.9735 0.36846 0.73972 0.0
C303 C 0.92941 0.28711 0.75051 0.0
C304 C 0.9561 0.44376 0.78428 0.0
C305 C 0.01337 0.50351 0.72282 0.0
N306 N 0.93617 0.33694 0.75837 0.0
N307 N 0.0047 0.45363 0.71653 0.0
H308 H 0.98939 0.71655 0.05066 0.0
H309 H 0.68765 0.69683 0.07002 0.0
H310 H 0.86895 0.61873 0.95763 0.0
H311 H 0.80868 0.78781 0.16942 0.0
H312 H 0.75343 0.66772 0.02786 0.0
H313 H 0.92384 0.74421 0.09426 0.0
C314 C 0.94897 0.70153 0.03911 0.0
C315 C 0.93405 0.66623 9e-05 0.0
C316 C 0.7657 0.69402 0.05894 0.0
C317 C 0.85922 0.69639 0.05006 0.0
C318 C 0.72819 0.71069 0.08266 0.0
C319 C 0.74313 0.74507 0.1225 0.0
C320 C 0.8184 0.71202 0.07536 0.0
C321 C 0.796 0.76123 0.13867 0.0
C322 C 0.91165 0.71681 0.06418 0.0
C323 C 0.88157 0.64633 0.98745 0.0
N324 N 0.83181 0.7448 0.11484 0.0
N325 N 0.84594 0.66181 0.01221 0.0
H326 H 0.44295 0.81885 0.23172 0.0
H327 H 0.51849 0.58634 0.39059 0.0
H328 H 0.59172 0.82123 0.32459 0.0
H329 H 0.40635 0.58092 0.25444 0.0
H330 H 0.53568 0.67655 0.38421 0.0
H331 H 0.4145 0.73694 0.26342 0.0
C332 C 0.46854 0.80327 0.26098 0.0
C333 C 0.51963 0.82633 0.27562 0.0
C334 C 0.50709 0.65531 0.35602 0.0
C335 C 0.48861 0.73245 0.31006 0.0
C336 C 0.49781 0.60388 0.35914 0.0
C337 C 0.46058 0.57582 0.32306 0.0
C338 C 0.47845 0.67863 0.31696 0.0
C339 C 0.43464 0.6007 0.28352 0.0
C340 C 0.45281 0.75613 0.2782 0.0
C341 C 0.55192 0.80424 0.31263 0.0
N342 N 0.44382 0.65055 0.2817 0.0
N343 N 0.5363 0.75786 0.32788 0.0
loop_
_geom_bond_atom_site_label_1
_geom_bond_atom_site_label_2
_geom_bond_distance
_geom_bond_site_symmetry_2
_ccdc_geom_bond_type
Zn0 O1 2.055 . S
Zn0 O8 2.046 . S
Zn0 N16 2.036 . S
Zn0 O28 2.053 . S
Zn0 O30 2.066 . S
O1 Zn0 2.055 . S
O1 C4 1.259 . S
C2 O30 1.256 . S
C2 O31 1.244 . S
Zn3 O5 2.046 . S
Zn3 O7 2.055 . S
Zn3 N9 2.036 . S
Zn3 O27 2.066 . S
Zn3 O31 2.053 . S
C4 O1 1.259 . S
C4 O5 1.254 . S
O5 Zn3 2.046 . S
O5 C4 1.254 . S
C6 O27 1.256 . S
C6 O28 1.244 . S
O7 Zn3 2.055 . S
O7 C29 1.259 . S
O8 Zn0 2.046 . S
O8 C29 1.254 . S
N9 Zn3 2.036 . S
N9 C10 1.298 . S
N9 N12 1.398 . S
C10 N9 1.298 . S
C10 N13 1.367 . S
C10 C23 1.481 . S
C11 N12 1.299 . S
C11 N13 1.379 . S
N12 N9 1.398 . S
N12 C11 1.299 . S
N13 C10 1.367 . S
N13 C11 1.379 . S
C14 N16 1.298 . S
C14 N18 1.367 . S
C14 C22 1.481 . S
C15 N17 1.299 . S
C15 N18 1.379 . S
N16 Zn0 2.036 . S
N16 C14 1.298 . S
N16 N17 1.398 . S
N17 C15 1.299 . S
N17 N16 1.398 . S
N18 C14 1.367 . S
N18 C15 1.379 . S
H19 C22 0.980 . S
H20 C22 0.981 . S
H21 C22 0.981 . S
C22 C14 1.481 . S
C22 H19 0.980 . S
C22 H20 0.981 . S
C22 H21 0.981 . S
C23 C10 1.481 . S
C23 H24 0.980 . S
C23 H25 0.981 . S
C23 H26 0.981 . S
H24 C23 0.980 . S
H25 C23 0.981 . S
H26 C23 0.981 . S
O27 Zn3 2.066 . S
O27 C6 1.256 . S
O28 Zn0 2.053 . S
O28 C6 1.244 . S
C29 O7 1.259 . S
C29 O8 1.254 . S
O30 Zn0 2.066 . S
O30 C2 1.256 . S
O31 C2 1.244 . S
O31 Zn3 2.053 . S
Zn32 O33 2.055 . S
Zn32 O40 2.046 . S
Zn32 N48 2.036 . S
Zn32 O60 2.053 . S
Zn32 O62 2.066 . S
O33 Zn32 2.055 . S
O33 C36 1.259 . S
C34 O62 1.256 . S
C34 O63 1.244 . S
Zn35 O37 2.046 . S
Zn35 O39 2.055 . S
Zn35 N41 2.036 . S
Zn35 O59 2.066 . S
Zn35 O63 2.053 . S
C36 O33 1.259 . S
C36 O37 1.254 . S
O37 Zn35 2.046 . S
O37 C36 1.254 . S
C38 O59 1.256 . S
C38 O60 1.244 . S
O39 Zn35 2.055 . S
O39 C61 1.259 . S
O40 Zn32 2.046 . S
O40 C61 1.254 . S
N41 Zn35 2.036 . S
N41 C42 1.298 . S
N41 N44 1.398 . S
C42 N41 1.298 . S
C42 N45 1.367 . S
C42 C55 1.481 1_545 S
C43 N44 1.299 . S
C43 N45 1.379 . S
N44 N41 1.398 . S
N44 C43 1.299 . S
N45 C42 1.367 . S
N45 C43 1.379 . S
C46 N48 1.298 . S
C46 N50 1.367 1_655 S
C46 C54 1.481 . S
C47 N49 1.299 . S
C47 N50 1.379 . S
N48 Zn32 2.036 . S
N48 C46 1.298 . S
N48 N49 1.398 1_655 S
N49 C47 1.299 . S
N49 N48 1.398 1_455 S
N50 C46 1.367 1_455 S
N50 C47 1.379 . S
H51 C54 0.980 . S
H52 C54 0.981 . S
H53 C54 0.981 . S
C54 C46 1.481 . S
C54 H51 0.980 . S
C54 H52 0.981 . S
C54 H53 0.981 . S
C55 C42 1.481 1_565 S
C55 H56 0.980 1_565 S
C55 H57 0.981 . S
C55 H58 0.981 . S
H56 C55 0.980 1_545 S
H57 C55 0.981 . S
H58 C55 0.981 . S
O59 Zn35 2.066 . S
O59 C38 1.256 . S
O60 Zn32 2.053 . S
O60 C38 1.244 . S
C61 O39 1.259 . S
C61 O40 1.254 . S
O62 Zn32 2.066 . S
O62 C34 1.256 . S
O63 C34 1.244 . S
O63 Zn35 2.053 . S
Zn64 O65 2.055 . S
Zn64 O72 2.046 . S
Zn64 N80 2.036 . S
Zn64 O92 2.053 . S
Zn64 O94 2.066 . S
O65 Zn64 2.055 . S
O65 C68 1.259 . S
C66 O94 1.256 . S
C66 O95 1.244 . S
Zn67 O69 2.046 . S
Zn67 O71 2.055 . S
Zn67 N73 2.036 . S
Zn67 O91 2.066 . S
Zn67 O95 2.053 . S
C68 O65 1.259 . S
C68 O69 1.254 . S
O69 Zn67 2.046 . S
O69 C68 1.254 . S
C70 O91 1.256 . S
C70 O92 1.244 . S
O71 Zn67 2.055 . S
O71 C93 1.259 . S
O72 Zn64 2.046 . S
O72 C93 1.254 . S
N73 Zn67 2.036 . S
N73 C74 1.298 . S
N73 N76 1.398 . S
C74 N73 1.298 . S
C74 N77 1.367 . S
C74 C87 1.481 . S
C75 N76 1.299 . S
C75 N77 1.379 . S
N76 N73 1.398 . S
N76 C75 1.299 . S
N77 C74 1.367 . S
N77 C75 1.379 . S
C78 N80 1.298 . S
C78 N82 1.367 1_455 S
C78 C86 1.481 . S
C79 N81 1.311 . S
C79 N82 1.379 . S
N80 Zn64 2.036 . S
N80 C78 1.298 . S
N80 N81 1.389 1_455 S
N81 C79 1.311 . S
N81 N80 1.389 1_655 S
N82 C78 1.367 1_655 S
N82 C79 1.379 . S
H83 C86 0.980 . S
H84 C86 0.981 . S
H85 C86 0.981 . S
C86 C78 1.481 . S
C86 H83 0.980 . S
C86 H84 0.981 . S
C86 H85 0.981 . S
C87 C74 1.481 . S
C87 H88 0.980 . S
C87 H89 0.981 . S
C87 H90 0.981 . S
H88 C87 0.980 . S
H89 C87 0.981 . S
H90 C87 0.981 . S
O91 Zn67 2.066 . S
O91 C70 1.256 . S
O92 Zn64 2.053 . S
O92 C70 1.244 . S
C93 O71 1.259 . S
C93 O72 1.254 . S
O94 Zn64 2.066 . S
O94 C66 1.256 . S
O95 C66 1.244 . S
O95 Zn67 2.053 . S
Zn96 O97 2.055 . S
Zn96 O104 2.046 . S
Zn96 N112 2.036 . S
Zn96 O124 2.053 . S
Zn96 O126 2.066 . S
O97 Zn96 2.055 . S
O97 C100 1.259 . S
C98 O126 1.256 . S
C98 O127 1.244 . S
Zn99 O101 2.046 . S
Zn99 O103 2.055 . S
Zn99 N105 2.036 . S
Zn99 O123 2.066 . S
Zn99 O127 2.053 . S
C100 O97 1.259 . S
C100 O101 1.254 . S
O101 Zn99 2.046 . S
O101 C100 1.254 . S
C102 O123 1.256 . S
C102 O124 1.244 . S
O103 Zn99 2.055 . S
O103 C125 1.259 . S
O104 Zn96 2.046 . S
O104 C125 1.254 . S
N105 Zn99 2.036 . S
N105 C106 1.298 . S
N105 N108 1.398 1_565 S
C106 N105 1.298 . S
C106 N109 1.367 1_565 S
C106 C119 1.481 . S
C107 N108 1.299 . S
C107 N109 1.379 . S
N108 N105 1.398 1_545 S
N108 C107 1.299 . S
N109 C106 1.367 1_545 S
N109 C107 1.379 . S
C110 N112 1.298 . S
C110 N114 1.367 . S
C110 C118 1.481 . S
C111 N113 1.299 . S
C111 N114 1.379 . S
N112 Zn96 2.036 . S
N112 C110 1.298 . S
N112 N113 1.398 . S
N113 C111 1.299 . S
N113 N112 1.398 . S
N114 C110 1.367 . S
N114 C111 1.379 . S
H115 C118 0.980 . S
H116 C118 0.981 . S
H117 C118 0.981 . S
C118 C110 1.481 . S
C118 H115 0.980 . S
C118 H116 0.981 . S
C118 H117 0.981 . S
C119 C106 1.481 . S
C119 H120 0.980 . S
C119 H121 0.981 . S
C119 H122 0.981 . S
H120 C119 0.980 . S
H121 C119 0.981 . S
H122 C119 0.981 . S
O123 Zn99 2.066 . S
O123 C102 1.256 . S
O124 Zn96 2.053 . S
O124 C102 1.244 . S
C125 O103 1.259 . S
C125 O104 1.254 . S
O126 Zn96 2.066 . S
O126 C98 1.256 . S
O127 C98 1.244 . S
O127 Zn99 2.053 . S
H128 C134 0.930 . S
H129 C138 0.930 . S
H130 C143 0.929 . S
H131 C141 0.929 . S
H132 C136 0.929 . S
H133 C142 0.929 . S
C134 H128 0.930 . S
C134 C135 1.367 . S
C134 C142 1.378 1_556 S
C135 C134 1.367 . S
C135 C143 1.433 . S
C136 H132 0.929 . S
C136 C138 1.378 . S
C136 C140 1.350 . S
C137 C140 1.463 . S
C137 C142 1.350 . S
C137 N145 1.412 1_554 S
C138 H129 0.930 . S
C138 C136 1.378 . S
C138 C139 1.367 . S
C139 C138 1.367 . S
C139 C141 1.433 . S
C140 C136 1.350 . S
C140 C137 1.463 . S
C140 N144 1.427 . S
C141 H131 0.929 . S
C141 C139 1.433 . S
C141 N144 1.384 . S
C142 H133 0.929 . S
C142 C134 1.378 1_554 S
C142 C137 1.350 . S
C143 H130 0.929 . S
C143 C135 1.433 . S
C143 N145 1.404 . S
N144 C140 1.427 . S
N144 C141 1.384 . S
N145 C137 1.412 1_556 S
N145 C143 1.404 . S
H146 C152 0.930 1_545 S
H147 C156 0.930 . S
H148 C161 0.929 . S
H149 C159 0.929 . S
H150 C154 0.929 . S
H151 C160 0.929 . S
C152 H146 0.930 1_565 S
C152 C153 1.367 . S
C152 C160 1.378 1_565 S
C153 C152 1.367 . S
C153 C161 1.433 . S
C154 H150 0.929 . S
C154 C156 1.378 . S
C154 C158 1.350 . S
C155 C158 1.463 . S
C155 C160 1.350 1_565 S
C155 N163 1.427 . S
C156 H147 0.930 . S
C156 C154 1.378 . S
C156 C157 1.367 1_565 S
C157 C156 1.367 1_545 S
C157 C159 1.433 . S
C158 C154 1.350 . S
C158 C155 1.463 . S
C158 N162 1.427 1_565 S
C159 H149 0.929 . S
C159 C157 1.433 . S
C159 N162 1.384 . S
C160 H151 0.929 . S
C160 C152 1.378 1_545 S
C160 C155 1.350 1_545 S
C161 H148 0.929 . S
C161 C153 1.433 . S
C161 N163 1.384 . S
N162 C158 1.427 1_545 S
N162 C159 1.384 . S
N163 C155 1.427 . S
N163 C161 1.384 . S
H164 C170 0.930 . S
H165 C174 0.930 . S
H166 C179 0.929 . S
H167 C177 0.929 . S
H168 C172 0.929 . S
H169 C178 0.929 . S
C170 H164 0.930 . S
C170 C171 1.367 . S
C170 C178 1.378 . S
C171 C170 1.367 . S
C171 C179 1.433 . S
C172 H168 0.929 . S
C172 C174 1.378 . S
C172 C176 1.350 . S
C173 C176 1.463 . S
C173 C178 1.350 . S
C173 N181 1.427 . S
C174 H165 0.930 . S
C174 C172 1.378 . S
C174 C175 1.367 . S
C175 C174 1.367 . S
C175 C177 1.433 . S
C176 C172 1.350 . S
C176 C173 1.463 . S
C176 N180 1.427 . S
C177 H167 0.929 . S
C177 C175 1.433 . S
C177 N180 1.384 . S
C178 H169 0.929 . S
C178 C170 1.378 . S
C178 C173 1.350 . S
C179 H166 0.929 . S
C179 C171 1.433 . S
C179 N181 1.384 . S
N180 C176 1.427 . S
N180 C177 1.384 . S
N181 C173 1.427 . S
N181 C179 1.384 . S
H182 C188 0.930 . S
H183 C192 0.930 . S
H184 C197 0.929 . S
H185 C195 0.929 . S
H186 C190 0.929 . S
H187 C196 0.929 . S
C188 H182 0.930 . S
C188 C189 1.367 1_545 S
C188 C196 1.378 1_554 S
C189 C188 1.367 1_565 S
C189 C197 1.433 . S
C190 H186 0.929 . S
C190 C192 1.378 . S
C190 C194 1.350 . S
C191 C194 1.463 . S
C191 C196 1.350 1_565 S
C191 N199 1.427 . S
C192 H183 0.930 . S
C192 C190 1.378 . S
C192 C193 1.367 1_565 S
C193 C192 1.367 1_545 S
C193 C195 1.433 . S
C194 C190 1.350 . S
C194 C191 1.463 . S
C194 N198 1.427 1_565 S
C195 H185 0.929 . S
C195 C193 1.433 . S
C195 N198 1.384 . S
C196 H187 0.929 . S
C196 C188 1.378 1_556 S
C196 C191 1.350 1_545 S
C197 H184 0.929 . S
C197 C189 1.433 . S
C197 N199 1.384 1_554 S
N198 C194 1.427 1_545 S
N198 C195 1.384 . S
N199 C191 1.427 . S
N199 C197 1.384 1_556 S
H200 C206 0.930 . S
H201 C210 0.930 . S
H202 C215 0.929 . S
H203 C213 0.929 . S
H204 C208 0.929 . S
H205 C214 0.929 . S
C206 H200 0.930 . S
C206 C207 1.367 . S
C206 C214 1.378 . S
C207 C206 1.367 . S
C207 C215 1.433 . S
C208 H204 0.929 . S
C208 C210 1.378 . S
C208 C212 1.350 . S
C209 C212 1.463 . S
C209 C214 1.350 . S
C209 N217 1.427 . S
C210 H201 0.930 . S
C210 C208 1.378 . S
C210 C211 1.367 . S
C211 C210 1.367 . S
C211 C213 1.433 . S
C212 C208 1.350 . S
C212 C209 1.463 . S
C212 N216 1.427 . S
C213 H203 0.929 . S
C213 C211 1.433 . S
C213 N216 1.384 . S
C214 H205 0.929 . S
C214 C206 1.378 . S
C214 C209 1.350 . S
C215 H202 0.929 . S
C215 C207 1.433 . S
C215 N217 1.384 . S
N216 C212 1.427 . S
N216 C213 1.384 . S
N217 C209 1.427 . S
N217 C215 1.384 . S
H218 C224 0.930 1_655 S
H219 C228 0.930 . S
H220 C233 0.929 . S
H221 C231 0.929 . S
H222 C226 0.929 . S
H223 C232 0.929 . S
C224 H218 0.930 1_455 S
C224 C225 1.367 . S
C224 C232 1.378 1_455 S
C225 C224 1.367 . S
C225 C233 1.433 . S
C226 H222 0.929 . S
C226 C228 1.378 1_565 S
C226 C230 1.350 . S
C227 C230 1.463 . S
C227 C232 1.350 1_455 S
C227 N235 1.427 . S
C228 H219 0.930 . S
C228 C226 1.378 1_545 S
C228 C229 1.367 1_455 S
C229 C228 1.367 1_655 S
C229 C231 1.433 1_545 S
C230 C226 1.350 . S
C230 C227 1.463 . S
C230 N234 1.427 1_455 S
C231 H221 0.929 . S
C231 C229 1.433 1_565 S
C231 N234 1.384 . S
C232 H223 0.929 . S
C232 C224 1.378 1_655 S
C232 C227 1.350 1_655 S
C233 H220 0.929 . S
C233 C225 1.433 . S
C233 N235 1.384 . S
N234 C230 1.427 1_655 S
N234 C231 1.384 . S
N235 C227 1.427 . S
N235 C233 1.384 . S
H236 C242 0.930 . S
H237 C246 0.930 . S
H238 C251 0.929 . S
H239 C249 0.929 . S
H240 C244 0.929 . S
H241 C250 0.929 . S
C242 H236 0.930 . S
C242 C243 1.367 . S
C242 C250 1.378 . S
C243 C242 1.367 . S
C243 C251 1.433 . S
C244 H240 0.929 . S
C244 C246 1.378 . S
C244 C248 1.350 1_554 S
C245 C248 1.463 . S
C245 C250 1.350 . S
C245 N253 1.427 . S
C246 H237 0.930 . S
C246 C244 1.378 . S
C246 C247 1.367 . S
C247 C246 1.367 . S
C247 C249 1.433 . S
C248 C244 1.350 1_556 S
C248 C245 1.463 . S
C248 N252 1.427 . S
C249 H239 0.929 . S
C249 C247 1.433 . S
C249 N252 1.384 1_554 S
C250 H241 0.929 . S
C250 C242 1.378 . S
C250 C245 1.350 . S
C251 H238 0.929 . S
C251 C243 1.433 . S
C251 N253 1.384 . S
N252 C248 1.427 . S
N252 C249 1.384 1_556 S
N253 C245 1.427 . S
N253 C251 1.384 . S
H254 C260 0.930 . S
H255 C264 0.930 . S
H256 C269 0.929 . S
H257 C267 0.929 . S
H258 C262 0.929 . S
H259 C268 0.929 . S
C260 H254 0.930 . S
C260 C261 1.367 . S
C260 C268 1.378 . S
C261 C260 1.367 . S
C261 C269 1.433 . S
C262 H258 0.929 . S
C262 C264 1.378 . S
C262 C266 1.350 . S
C263 C266 1.463 . S
C263 C268 1.350 . S
C263 N271 1.427 . S
C264 H255 0.930 . S
C264 C262 1.378 . S
C264 C265 1.367 . S
C265 C264 1.367 . S
C265 C267 1.433 . S
C266 C262 1.350 . S
C266 C263 1.463 . S
C266 N270 1.427 . S
C267 H257 0.929 . S
C267 C265 1.433 . S
C267 N270 1.384 . S
C268 H259 0.929 . S
C268 C260 1.378 . S
C268 C263 1.350 . S
C269 H256 0.929 . S
C269 C261 1.433 . S
C269 N271 1.384 . S
N270 C266 1.427 . S
N270 C267 1.384 . S
N271 C263 1.427 . S
N271 C269 1.384 . S
H272 C278 0.930 . S
H273 C282 0.930 . S
H274 C287 0.929 . S
H275 C285 0.929 . S
H276 C280 0.929 . S
H277 C286 0.929 . S
C278 H272 0.930 . S
C278 C279 1.367 . S
C278 C286 1.378 . S
C279 C278 1.367 . S
C279 C287 1.433 . S
C280 H276 0.929 . S
C280 C282 1.378 . S
C280 C284 1.350 . S
C281 C284 1.463 . S
C281 C286 1.350 . S
C281 N289 1.427 . S
C282 H273 0.930 . S
C282 C280 1.378 . S
C282 C283 1.367 . S
C283 C282 1.367 . S
C283 C285 1.433 . S
C284 C280 1.350 . S
C284 C281 1.463 . S
C284 N288 1.427 . S
C285 H275 0.929 . S
C285 C283 1.433 . S
C285 N288 1.384 . S
C286 H277 0.929 . S
C286 C278 1.378 . S
C286 C281 1.350 . S
C287 H274 0.929 . S
C287 C279 1.433 . S
C287 N289 1.384 . S
N288 C284 1.427 . S
N288 C285 1.384 . S
N289 C281 1.427 . S
N289 C287 1.384 . S
H290 C296 0.930 . S
H291 C300 0.930 . S
H292 C305 0.929 . S
H293 C303 0.929 . S
H294 C298 0.929 . S
H295 C304 0.929 . S
C296 H290 0.930 . S
C296 C297 1.367 1_655 S
C296 C304 1.378 . S
C297 C296 1.367 1_455 S
C297 C305 1.433 . S
C298 H294 0.929 . S
C298 C300 1.378 . S
C298 C302 1.350 1_455 S
C299 C302 1.463 1_455 S
C299 C304 1.350 1_455 S
C299 N307 1.427 . S
C300 H291 0.930 . S
C300 C298 1.378 . S
C300 C301 1.367 1_455 S
C301 C300 1.367 1_655 S
C301 C303 1.433 . S
C302 C298 1.350 1_655 S
C302 C299 1.463 1_655 S
C302 N306 1.427 . S
C303 H293 0.929 . S
C303 C301 1.433 . S
C303 N306 1.384 . S
C304 H295 0.929 . S
C304 C296 1.378 . S
C304 C299 1.350 1_655 S
C305 H292 0.929 . S
C305 C297 1.433 . S
C305 N307 1.384 . S
N306 C302 1.427 . S
N306 C303 1.384 . S
N307 C299 1.427 . S
N307 C305 1.384 . S
H308 C314 0.930 . S
H309 C318 0.930 . S
H310 C323 0.929 . S
H311 C321 0.929 . S
H312 C316 0.929 . S
H313 C322 0.929 . S
C314 H308 0.930 . S
C314 C315 1.367 . S
C314 C322 1.378 1_556 S
C315 C314 1.367 . S
C315 C323 1.433 . S
C316 H312 0.929 . S
C316 C318 1.378 . S
C316 C320 1.350 . S
C317 C320 1.463 . S
C317 C322 1.350 . S
C317 N325 1.427 1_554 S
C318 H309 0.930 . S
C318 C316 1.378 . S
C318 C319 1.367 . S
C319 C318 1.367 . S
C319 C321 1.433 . S
C320 C316 1.350 . S
C320 C317 1.463 . S
C320 N324 1.427 . S
C321 H311 0.929 . S
C321 C319 1.433 . S
C321 N324 1.384 . S
C322 H313 0.929 . S
C322 C314 1.378 1_554 S
C322 C317 1.350 . S
C323 H310 0.929 . S
C323 C315 1.433 . S
C323 N325 1.384 . S
N324 C320 1.427 . S
N324 C321 1.384 . S
N325 C317 1.427 1_556 S
N325 C323 1.384 . S
H326 C332 0.930 . S
H327 C336 0.930 . S
H328 C341 0.929 . S
H329 C339 0.929 . S
H330 C334 0.929 . S
H331 C340 0.929 . S
C332 H326 0.930 . S
C332 C333 1.367 . S
C332 C340 1.378 . S
C333 C332 1.367 . S
C333 C341 1.433 . S
C334 H330 0.929 . S
C334 C336 1.378 . S
C334 C338 1.350 . S
C335 C338 1.463 . S
C335 C340 1.350 . S
C335 N343 1.427 . S
C336 H327 0.930 . S
C336 C334 1.378 . S
C336 C337 1.367 . S
C337 C336 1.367 . S
C337 C339 1.433 . S
C338 C334 1.350 . S
C338 C335 1.463 . S
C338 N342 1.427 . S
C339 H329 0.929 . S
C339 C337 1.433 . S
C339 N342 1.384 . S
C340 H331 0.929 . S
C340 C332 1.378 . S
C340 C335 1.350 . S
C341 H328 0.929 . S
C341 C333 1.433 . S
C341 N343 1.384 . S
N342 C338 1.427 . S
N342 C339 1.384 . S
N343 C335 1.427 . S
N343 C341 1.384 . S
C135 C93 1.228 . S
C139 N18 1.234 . S
C153 C102 1.669 . S
C157 C61 1.585 . S
C171 N77 0.999 . S
C175 C4 0.985 . S
C189 C98 1.514 . S
C193 N45 1.471 . S
C207 N50 1.140 . S
C211 C29 1.130 . S
C225 C66 1.911 . S
C229 C38 1.949 . S
C243 C68 1.212 . S
C247 C100 1.285 . S
C261 C6 1.510 . S
C265 N109 1.439 . S
C279 C36 1.204 . S
C283 N13 1.203 . S
C297 C70 2.208 . S
C301 C34 2.193 . S
C315 N82 1.019 . S
C319 N114 1.033 . S
C333 C125 1.502 . S
C337 C2 1.547 . S
