# Generated by pormake.
# Topology fnv, (5)-cn, num edge types: 1
# Building blocks:
#     Node 0, Type 0, BuildingBlock: BEQFEK_clean_sbu_0, # of connection points: 5
#     Node 1, Type 0, BuildingBlock: BEQFEK_clean_sbu_0, # of connection points: 5
#     Node 2, Type 0, BuildingBlock: BEQFEK_clean_sbu_0, # of connection points: 5
#     Node 3, Type 0, BuildingBlock: BEQFEK_clean_sbu_0, # of connection points: 5
#     Node 4, Type 0, BuildingBlock: BEQFEK_clean_sbu_0, # of connection points: 5
#     Node 5, Type 0, BuildingBlock: BEQFEK_clean_sbu_0, # of connection points: 5
#     Edge 6, Type (0, 0), BuildingBlock: KIFKEQ_clean_linker_1, # of connection points: 2
#     Edge 7, Type (0, 0), BuildingBlock: KIFKEQ_clean_linker_1, # of connection points: 2
#     Edge 8, Type (0, 0), BuildingBlock: KIFKEQ_clean_linker_1, # of connection points: 2
#     Edge 9, Type (0, 0), BuildingBlock: KIFKEQ_clean_linker_1, # of connection points: 2
#     Edge 10, Type (0, 0), BuildingBlock: KIFKEQ_clean_linker_1, # of connection points: 2
#     Edge 11, Type (0, 0), BuildingBlock: KIFKEQ_clean_linker_1, # of connection points: 2
#     Edge 12, Type (0, 0), BuildingBlock: KIFKEQ_clean_linker_1, # of connection points: 2
#     Edge 13, Type (0, 0), BuildingBlock: KIFKEQ_clean_linker_1, # of connection points: 2
#     Edge 14, Type (0, 0), BuildingBlock: KIFKEQ_clean_linker_1, # of connection points: 2
#     Edge 15, Type (0, 0), BuildingBlock: KIFKEQ_clean_linker_1, # of connection points: 2
#     Edge 16, Type (0, 0), BuildingBlock: KIFKEQ_clean_linker_1, # of connection points: 2
#     Edge 17, Type (0, 0), BuildingBlock: KIFKEQ_clean_linker_1, # of connection points: 2
#     Edge 18, Type (0, 0), BuildingBlock: KIFKEQ_clean_linker_1, # of connection points: 2
#     Edge 19, Type (0, 0), BuildingBlock: KIFKEQ_clean_linker_1, # of connection points: 2
#     Edge 20, Type (0, 0), BuildingBlock: KIFKEQ_clean_linker_1, # of connection points: 2
# Relax obj value: 0.499
# Max RMSD: 0.269
# Mean RMSD: 0.269
data_MOF--net-fnv--node1-BEQFEK_clean_sbu_0--edge1-KIFKEQ_clean_linker_1
_symmetry_space_group_name_H-M    P1
_symmetry_Int_Tables_number       1
_symmetry_cell_setting            triclinic
loop_
_symmetry_equiv_pos_as_xyz
'x, y, z'
_cell_length_a     35.431787
_cell_length_b     35.709687
_cell_length_c     30.033365
_cell_angle_alpha  89.859782
_cell_angle_beta   90.143373
_cell_angle_gamma 120.24583
loop_
_atom_site_label
_atom_site_type_symbol
_atom_site_fract_x
_atom_site_fract_y
_atom_site_fract_z
_atom_type_partial_charge
Co0 Co 0.25005 0.3895 0.94086 0.0
Co1 Co 0.26569 0.44426 0.02671 0.0
C2 C 0.25486 0.47379 0.93537 0.0
O3 O 0.24766 0.4393 0.91569 0.0
O4 O 0.26204 0.4785 0.97706 0.0
C5 C 0.23436 0.35073 0.85339 0.0
O6 O 0.25057 0.39021 0.83758 0.0
C7 C 0.24633 0.4944 0.08849 0.0
C8 C 0.29901 0.51444 0.13838 0.0
C9 C 0.26486 0.52047 0.1255 0.0
N10 N 0.26868 0.47412 0.07976 0.0
N11 N 0.29968 0.48561 0.11008 0.0
C12 C 0.2118 0.49296 0.05846 0.0
H13 H 0.22293 0.52577 0.0447 0.0
H14 H 0.20413 0.4695 0.03102 0.0
H15 H 0.18136 0.48272 0.07741 0.0
C16 C 0.17384 0.32665 -0.00608 0.0
N17 N 0.2116 0.36455 -0.01024 0.0
N18 N 0.21894 0.38694 0.02662 0.0
C19 C 0.18676 0.36361 0.05585 0.0
C20 C 0.15707 0.32462 0.03603 0.0
C21 C 0.15286 0.29435 0.95723 0.0
H22 H 0.17399 0.28068 0.94896 0.0
H23 H 0.15004 0.31079 0.92706 0.0
H24 H 0.12008 0.26749 0.9669 0.0
O25 O 0.31268 0.41067 0.95679 0.0
O26 O 0.32132 0.44629 0.01995 0.0
H27 H 0.21394 0.39794 0.11684 0.0
H28 H 0.15817 0.35385 0.12153 0.0
C29 C 0.18186 0.38042 0.09977 0.0
H30 H 0.16996 0.40342 0.09406 0.0
H31 H 0.32281 0.47573 0.10993 0.0
O32 O 0.23228 0.34461 0.89516 0.0
C33 C 0.33648 0.43308 0.98937 0.0
Co34 Co 0.86681 0.25852 0.28996 0.0
Co35 Co 0.79619 0.24773 0.35843 0.0
C36 C 0.78665 0.26365 0.26455 0.0
O37 O 0.82278 0.26568 0.25572 0.0
O38 O 0.77087 0.25523 0.30366 0.0
C39 C 0.89494 0.22931 0.21473 0.0
O40 O 0.85454 0.19686 0.21284 0.0
C41 C 0.71576 0.22555 0.40666 0.0
C42 C 0.74145 0.24525 0.47496 0.0
C43 C 0.70385 0.23008 0.4495 0.0
N44 N 0.75846 0.23821 0.40696 0.0
N45 N 0.77354 0.24964 0.4479 0.0
C46 C 0.68731 0.20809 0.36633 0.0
H47 H 0.70046 0.1931 0.34344 0.0
H48 H 0.65339 0.18362 0.37583 0.0
H49 H 0.68687 0.23511 0.34851 0.0
C50 C 0.84655 0.17362 0.32998 0.0
N51 N 0.84075 0.20804 0.32582 0.0
N52 N 0.80931 0.20291 0.35287 0.0
C53 C 0.79301 0.16456 0.37375 0.0
C54 C 0.81594 0.14479 0.35979 0.0
C55 C 0.88128 0.16879 0.30709 0.0
H56 H 0.91012 0.20104 0.30008 0.0
H57 H 0.86815 0.15123 0.27527 0.0
H58 H 0.89133 0.14951 0.32781 0.0
O59 O 0.90071 0.31118 0.32627 0.0
O60 O 0.8484 0.304 0.37181 0.0
H61 H 0.7696 0.16951 0.43764 0.0
H62 H 0.74679 0.11455 0.41836 0.0
C63 C 0.75749 0.14826 0.40793 0.0
H64 H 0.72917 0.14978 0.39434 0.0
H65 H 0.80606 0.26162 0.45704 0.0
O66 O 0.90653 0.25735 0.24547 0.0
C67 C 0.88738 0.32552 0.35759 0.0
Co68 Co 0.62084 0.88565 0.63491 0.0
Co69 Co 0.55907 0.82017 0.70671 0.0
C70 C 0.53646 0.80429 0.6113 0.0
O71 O 0.57041 0.83992 0.60079 0.0
O72 O 0.52872 0.79144 0.65155 0.0
C73 C 0.67375 0.90575 0.55755 0.0
O74 O 0.65031 0.86383 0.55036 0.0
C75 C 0.49262 0.74742 0.75836 0.0
C76 C 0.50343 0.77662 0.82531 0.0
C77 C 0.47521 0.74013 0.80098 0.0
N78 N 0.52863 0.78686 0.75734 0.0
N79 N 0.53523 0.80395 0.79757 0.0
C80 C 0.47632 0.71731 0.7194 0.0
H81 H 0.50411 0.72247 0.69815 0.0
H82 H 0.45826 0.683 0.73051 0.0
H83 H 0.45411 0.72412 0.69935 0.0
C84 C 0.68354 0.86557 0.67976 0.0
N85 N 0.64391 0.8619 0.67591 0.0
N86 N 0.61752 0.83387 0.70562 0.0
C87 C 0.6391 0.81835 0.7289 0.0
C88 C 0.68177 0.83817 0.71345 0.0
C89 C 0.72228 0.89438 0.65158 0.0
H90 H 0.72431 0.92613 0.64669 0.0
H91 H 0.71855 0.87904 0.61856 0.0
H92 H 0.75301 0.89958 0.66711 0.0
O93 O 0.60014 0.9216 0.66488 0.0
O94 O 0.55438 0.87205 0.71233 0.0
H95 H 0.61443 0.79503 0.79409 0.0
H96 H 0.63702 0.76563 0.76697 0.0
C97 C 0.61776 0.78196 0.76179 0.0
H98 H 0.58459 0.75776 0.74999 0.0
H99 H 0.56032 0.83509 0.80555 0.0
O100 O 0.66622 0.92188 0.59172 0.0
C101 C 0.57123 0.90956 0.6952 0.0
Co102 Co 0.74901 0.61119 0.92978 0.0
Co103 Co 0.733 0.55312 0.01344 0.0
C104 C 0.74188 0.52544 0.92129 0.0
O105 O 0.74862 0.56044 0.90296 0.0
O106 O 0.7358 0.51962 0.96303 0.0
C107 C 0.76913 0.65222 0.84322 0.0
O108 O 0.7557 0.61337 0.82701 0.0
C109 C 0.74719 0.49851 0.07492 0.0
C110 C 0.69548 0.4826 0.12485 0.0
C111 C 0.72701 0.47283 0.11184 0.0
N112 N 0.72816 0.52209 0.06632 0.0
N113 N 0.69784 0.51309 0.09672 0.0
C114 C 0.78009 0.49686 0.04504 0.0
H115 H 0.76639 0.4637 0.03124 0.0
H116 H 0.78973 0.5208 0.01767 0.0
H117 H 0.80989 0.50455 0.06417 0.0
C118 C 0.82497 0.6722 0.98527 0.0
N119 N 0.78805 0.63388 0.97883 0.0
N120 N 0.7805 0.60965 0.01445 0.0
C121 C 0.8116 0.63187 0.045 0.0
C122 C 0.84069 0.67225 0.02755 0.0
C123 C 0.84512 0.70756 0.95129 0.0
H124 H 0.82234 0.7196 0.94413 0.0
H125 H 0.85021 0.69441 0.91988 0.0
H126 H 0.87675 0.73493 0.96305 0.0
O127 O 0.68701 0.59233 0.94669 0.0
O128 O 0.67865 0.55351 0.00751 0.0
H129 H 0.78309 0.59924 0.10632 0.0
H130 H 0.84085 0.63845 0.11023 0.0
C131 C 0.81488 0.61353 0.08876 0.0
H132 H 0.8223 0.58729 0.08269 0.0
H133 H 0.67704 0.52582 0.09669 0.0
O134 O 0.76814 0.65728 0.88493 0.0
C135 C 0.66366 0.56904 0.97908 0.0
Co136 Co 0.10182 0.7171 0.30679 0.0
Co137 Co 0.16607 0.71723 0.37821 0.0
C138 C 0.17966 0.70903 0.28228 0.0
O139 O 0.14535 0.71003 0.27166 0.0
O140 O 0.19213 0.71273 0.32256 0.0
C141 C 0.08071 0.74971 0.22953 0.0
O142 O 0.12255 0.7673 0.22066 0.0
C143 C 0.24589 0.73659 0.42563 0.0
C144 C 0.21943 0.70425 0.49021 0.0
C145 C 0.25781 0.72615 0.4659 0.0
N146 N 0.20257 0.72084 0.4261 0.0
N147 N 0.18696 0.70181 0.46486 0.0
C148 C 0.27471 0.76235 0.38775 0.0
H149 H 0.25906 0.77717 0.36798 0.0
H150 H 0.30691 0.78817 0.40023 0.0
H151 H 0.27984 0.74053 0.3656 0.0
C152 C 0.12608 0.80013 0.35211 0.0
N153 N 0.1287 0.76401 0.34712 0.0
N154 N 0.15627 0.76425 0.37672 0.0
C155 C 0.17252 0.80067 0.40104 0.0
C156 C 0.15396 0.82447 0.38614 0.0
C157 C 0.09813 0.81151 0.32445 0.0
H158 H 0.06491 0.78283 0.32112 0.0
H159 H 0.11255 0.82121 0.29072 0.0
H160 H 0.09589 0.83876 0.3393 0.0
O161 O 0.06403 0.66159 0.33827 0.0
O162 O 0.11146 0.6622 0.38693 0.0
H163 H 0.19172 0.78548 0.46292 0.0
H164 H 0.21197 0.84269 0.45486 0.0
C165 C 0.20481 0.81213 0.43811 0.0
H166 H 0.23556 0.81571 0.42464 0.0
H167 H 0.15398 0.68609 0.47347 0.0
O168 O 0.06532 0.72709 0.26461 0.0
C169 C 0.07362 0.64364 0.36953 0.0
Co170 Co 0.36127 0.09753 0.64713 0.0
Co171 Co 0.42996 0.16627 0.71213 0.0
C172 C 0.44401 0.17622 0.615 0.0
O173 O 0.40879 0.14049 0.60824 0.0
O174 O 0.45569 0.19142 0.65411 0.0
C175 C 0.3034 0.07393 0.57353 0.0
O176 O 0.32726 0.11525 0.56345 0.0
C177 C 0.49947 0.24273 0.75701 0.0
C178 C 0.49676 0.21651 0.8244 0.0
C179 C 0.52095 0.25262 0.79778 0.0
N180 N 0.46501 0.20231 0.75925 0.0
N181 N 0.4633 0.18698 0.79972 0.0
C182 C 0.51025 0.27129 0.71697 0.0
H183 H 0.48015 0.26257 0.69775 0.0
H184 H 0.52616 0.30589 0.72683 0.0
H185 H 0.53289 0.26666 0.69536 0.0
C186 C 0.30437 0.1232 0.69458 0.0
N187 N 0.34277 0.12466 0.68872 0.0
N188 N 0.37195 0.15381 0.71578 0.0
C189 C 0.35337 0.17212 0.73943 0.0
C190 C 0.30986 0.15315 0.72686 0.0
C191 C 0.26356 0.09476 0.66887 0.0
H192 H 0.25914 0.06187 0.66543 0.0
H193 H 0.26644 0.10863 0.63512 0.0
H194 H 0.23449 0.09237 0.68551 0.0
O195 O 0.38368 0.06258 0.67635 0.0
O196 O 0.4342 0.11417 0.71876 0.0
H197 H 0.38631 0.19946 0.80076 0.0
H198 H 0.35959 0.22673 0.77727 0.0
C199 C 0.37835 0.21042 0.76934 0.0
H200 H 0.40953 0.23407 0.75321 0.0
H201 H 0.44027 0.1557 0.80991 0.0
O202 O 0.3123 0.05944 0.60825 0.0
C203 C 0.41522 0.07572 0.70387 0.0
H204 H 0.61025 0.53237 0.05017 0.0
H205 H 0.61039 0.57201 0.91401 0.0
H206 H 0.53139 0.49754 0.05219 0.0
H207 H 0.53065 0.53786 0.91657 0.0
H208 H 0.38651 0.42802 0.9224 0.0
H209 H 0.46627 0.46395 0.91982 0.0
H210 H 0.47345 0.51325 0.05271 0.0
H211 H 0.39446 0.47664 0.05588 0.0
C212 C 0.59348 0.53435 0.02083 0.0
C213 C 0.61667 0.55492 0.98185 0.0
C214 C 0.54814 0.5144 0.02207 0.0
C215 C 0.52467 0.51463 0.98445 0.0
C216 C 0.54783 0.53654 0.94587 0.0
C217 C 0.59349 0.55664 0.94461 0.0
C218 C 0.40515 0.44588 0.95132 0.0
C219 C 0.38404 0.44931 0.98937 0.0
C220 C 0.45083 0.467 0.94959 0.0
C221 C 0.4762 0.49179 0.9859 0.0
C222 C 0.45495 0.49416 0.02428 0.0
C223 C 0.40952 0.47311 0.02605 0.0
H224 H 0.98744 0.59366 0.34583 0.0
H225 H 0.09036 0.59019 0.42024 0.0
H226 H 0.94154 0.5152 0.35481 0.0
H227 H 0.04463 0.51193 0.42831 0.0
H228 H 0.9758 0.37735 0.34782 0.0
H229 H 0.01917 0.45511 0.36254 0.0
H230 H 0.90532 0.4533 0.41602 0.0
H231 H 0.86196 0.3755 0.4022 0.0
C232 C -7e-05 0.57639 0.36483 0.0
C233 C 0.04271 0.59811 0.38182 0.0
C234 C 0.97363 0.53157 0.37009 0.0
C235 C 0.9899 0.50775 0.3919 0.0
C236 C 0.0316 0.52968 0.41111 0.0
C237 C 0.05762 0.5745 0.40652 0.0
C238 C 0.96027 0.39333 0.36366 0.0
C239 C 0.91545 0.37038 0.3735 0.0
C240 C 0.98508 0.43773 0.37222 0.0
C241 C 0.96533 0.45998 0.39011 0.0
C242 C 0.92111 0.43675 0.402 0.0
C243 C 0.89646 0.39224 0.39423 0.0
H244 H 0.59991 -0.00586 0.67174 0.0
H245 H 0.49795 0.8854 0.74422 0.0
H246 H 0.56078 0.03376 0.68227 0.0
H247 H 0.45894 0.9247 0.75355 0.0
H248 H 0.38367 0.99001 0.68352 0.0
H249 H 0.4234 0.95051 0.68942 0.0
H250 H 0.53213 0.06198 0.75057 0.0
H251 H 0.49262 0.1012 0.74587 0.0
C252 C 0.56966 0.97899 0.69042 0.0
C253 C 0.55199 0.93658 0.70685 0.0
C254 C 0.54734 0.0016 0.69644 0.0
C255 C 0.50679 0.98187 0.71833 0.0
C256 C 0.48999 0.94029 0.73626 0.0
C257 C 0.51257 0.91802 0.73101 0.0
C258 C 0.41561 0.00573 0.6991 0.0
C259 C 0.43502 0.0488 0.71389 0.0
C260 C 0.43828 0.98318 0.70245 0.0
C261 C 0.48087 0.00362 0.71998 0.0
C262 C 0.49948 0.04584 0.73656 0.0
C263 C 0.47662 0.06807 0.73401 0.0
H264 H 0.25732 0.71095 0.29036 0.0
H265 H 0.15003 0.67586 0.19915 0.0
H266 H 0.28181 0.67071 0.24562 0.0
H267 H 0.17516 0.63609 0.15387 0.0
H268 H 0.18566 0.51121 0.14602 0.0
H269 H 0.17093 0.56654 0.17377 0.0
H270 H 0.30937 0.65948 0.17474 0.0
H271 H 0.32396 0.60387 0.14617 0.0
C272 C 0.23969 0.69572 0.26007 0.0
C273 C 0.20115 0.69574 0.2489 0.0
C274 C 0.25389 0.6728 0.23427 0.0
C275 C 0.22981 0.64951 0.19682 0.0
C276 C 0.19377 0.65306 0.18318 0.0
C277 C 0.17963 0.67614 0.20892 0.0
C278 C 0.2128 0.54372 0.1509 0.0
C279 C 0.25582 0.55358 0.14311 0.0
C280 C 0.20443 0.57545 0.16685 0.0
C281 C 0.23899 0.61755 0.17571 0.0
C282 C 0.28212 0.62733 0.16809 0.0
C283 C 0.29046 0.59555 0.15201 0.0
H284 H 0.43922 0.14398 0.53107 0.0
H285 H 0.52236 0.25189 0.61666 0.0
H286 H 0.50158 0.16255 0.48264 0.0
H287 H 0.58439 0.2695 0.56865 0.0
H288 H 0.64148 0.24101 0.40485 0.0
H289 H 0.57474 0.23454 0.43605 0.0
H290 H 0.60742 0.20431 0.56446 0.0
H291 H 0.6727 0.20831 0.53324 0.0
C292 C 0.47028 0.17253 0.53875 0.0
C293 C 0.4762 0.19563 0.57857 0.0
C294 C 0.50587 0.18308 0.51096 0.0
C295 C 0.54756 0.21678 0.52273 0.0
C296 C 0.55242 0.24302 0.55941 0.0
C297 C 0.5169 0.23281 0.58689 0.0
C298 C 0.63379 0.23147 0.43929 0.0
C299 C 0.66195 0.22404 0.46631 0.0
C300 C 0.59597 0.22856 0.45719 0.0
C301 C 0.58659 0.21944 0.50252 0.0
C302 C 0.61451 0.21196 0.52943 0.0
C303 C 0.6517 0.21409 0.51151 0.0
H304 H 0.45863 0.70714 0.88449 0.0
H305 H 0.39716 0.69251 0.75627 0.0
H306 H 0.39145 0.64598 0.91286 0.0
H307 H 0.33034 0.63021 0.7843 0.0
H308 H 0.26858 0.4853 0.84549 0.0
H309 H 0.31373 0.55499 0.80929 0.0
H310 H 0.31211 0.62075 0.92906 0.0
H311 H 0.26705 0.55115 0.96554 0.0
C312 C 0.43076 0.69089 0.86238 0.0
C313 C 0.43379 0.70357 0.81771 0.0
C314 C 0.39215 0.65615 0.87871 0.0
C315 C 0.3557 0.63343 0.8507 0.0
C316 C 0.35814 0.64697 0.8064 0.0
C317 C 0.3967 0.68212 0.7902 0.0
C318 C 0.27619 0.51451 0.86355 0.0
C319 C 0.26556 0.51278 0.90887 0.0
C320 C 0.30212 0.55449 0.84275 0.0
C321 C 0.31747 0.59309 0.86697 0.0
C322 C 0.30153 0.59132 0.91011 0.0
C323 C 0.27557 0.55143 0.93086 0.0
H324 H 0.71226 0.26825 0.27266 0.0
H325 H 0.81769 0.29627 0.18158 0.0
H326 H 0.69337 0.31371 0.22884 0.0
H327 H 0.7981 0.34119 0.13731 0.0
H328 H 0.80231 0.47343 0.13232 0.0
H329 H 0.80973 0.41308 0.15902 0.0
H330 H 0.66925 0.33071 0.15867 0.0
H331 H 0.66199 0.39139 0.13127 0.0
C332 C 0.73055 0.28295 0.24254 0.0
C333 C 0.76722 0.27957 0.23131 0.0
C334 C 0.71959 0.30894 0.21731 0.0
C335 C 0.74499 0.33182 0.18033 0.0
C336 C 0.77866 0.32469 0.16635 0.0
C337 C 0.78963 0.29869 0.19156 0.0
C338 C 0.77313 0.44218 0.13675 0.0
C339 C 0.73167 0.43673 0.12892 0.0
C340 C 0.77731 0.40758 0.15207 0.0
C341 C 0.74005 0.36695 0.16019 0.0
C342 C 0.69849 0.36162 0.15259 0.0
C343 C 0.69436 0.3963 0.13717 0.0
H344 H 0.32615 0.73182 0.41575 0.0
H345 H 0.286 0.73448 0.55101 0.0
H346 H 0.39621 0.74366 0.44305 0.0
H347 H 0.3551 0.74414 0.57807 0.0
H348 H 0.46282 0.72483 0.6191 0.0
H349 H 0.39528 0.7 0.57749 0.0
H350 H 0.4618 0.80787 0.48696 0.0
H351 H 0.52947 0.83334 0.52889 0.0
C352 C 0.33236 0.73576 0.45111 0.0
C353 C 0.30085 0.73363 0.48111 0.0
C354 C 0.37226 0.74173 0.4667 0.0
C355 C 0.38074 0.74441 0.51255 0.0
C356 C 0.34902 0.74146 0.54251 0.0
C357 C 0.30959 0.73622 0.52697 0.0
C358 C 0.46342 0.74274 0.58975 0.0
C359 C 0.50111 0.78186 0.57823 0.0
C360 C 0.42474 0.72847 0.56596 0.0
C361 C 0.4233 0.75272 0.52986 0.0
C362 C 0.46214 0.78878 0.5149 0.0
C363 C 0.50087 0.8033 0.53894 0.0
H364 H 0.59346 0.30441 0.74626 0.0
H365 H 0.54323 0.28699 0.88033 0.0
H366 H 0.66024 0.36959 0.76962 0.0
H367 H 0.61046 0.35097 0.90385 0.0
H368 H 0.73672 0.44987 0.94747 0.0
H369 H 0.69165 0.37989 0.91184 0.0
H370 H 0.67504 0.44371 0.7975 0.0
H371 H 0.72031 0.51383 0.83287 0.0
C372 C 0.59626 0.31475 0.78049 0.0
C373 C 0.56228 0.29148 0.81114 0.0
C374 C 0.63489 0.35161 0.79395 0.0
C375 C 0.64059 0.3651 0.8385 0.0
C376 C 0.60729 0.34088 0.8694 0.0
C377 C 0.5686 0.30448 0.85586 0.0
C378 C 0.7249 0.44915 0.914 0.0
C379 C 0.73083 0.4872 0.89356 0.0
C380 C 0.69896 0.40906 0.89373 0.0
C381 C 0.67882 0.40648 0.85266 0.0
C382 C 0.68996 0.44483 0.82937 0.0
C383 C 0.71597 0.48505 0.84967 0.0
H384 H 0.28189 0.15655 0.80941 0.0
H385 H 0.27128 0.18434 0.67165 0.0
H386 H 0.24553 0.1959 0.83191 0.0
H387 H 0.23419 0.22364 0.69387 0.0
H388 H 0.18149 0.26488 0.87037 0.0
H389 H 0.18162 0.20516 0.83157 0.0
H390 H 0.2678 0.29467 0.73186 0.0
H391 H 0.26685 0.35422 0.7702 0.0
C392 C 0.27034 0.16997 0.78398 0.0
C393 C 0.27945 0.16798 0.73906 0.0
C394 C 0.24925 0.19222 0.79668 0.0
C395 C 0.23719 0.21307 0.76458 0.0
C396 C 0.24338 0.20811 0.71925 0.0
C397 C 0.26431 0.18553 0.70656 0.0
C398 C 0.19947 0.27157 0.83949 0.0
C399 C 0.22522 0.31426 0.82392 0.0
C400 C 0.19945 0.23738 0.81726 0.0
C401 C 0.22552 0.24542 0.77935 0.0
C402 C 0.24729 0.28741 0.76099 0.0
C403 C 0.24699 0.32163 0.78308 0.0
H404 H 0.90545 0.16665 0.17407 0.0
H405 H 0.9564 0.30481 0.17917 0.0
H406 H 0.96388 0.17852 0.12147 0.0
H407 H 0.01316 0.31631 0.12603 0.0
H408 H 0.08424 0.32002 0.00263 0.0
H409 H 0.0125 0.28663 0.03857 0.0
H410 H 0.05774 0.23258 0.1399 0.0
H411 H 0.12991 0.26677 0.10426 0.0
C412 C 0.9286 0.1993 0.16326 0.0
C413 C 0.92686 0.2349 0.18057 0.0
C414 C 0.96177 0.206 0.13341 0.0
C415 C -0.00763 0.24821 0.11969 0.0
C416 C 0.98948 0.28346 0.13585 0.0
C417 C 0.95731 0.27692 0.16638 0.0
C418 C 0.07818 0.29964 0.03163 0.0
C419 C 0.11207 0.29578 0.05102 0.0
C420 C 0.03736 0.28061 0.05204 0.0
C421 C 0.02994 0.25709 0.0917 0.0
C422 C 0.06274 0.2501 0.10894 0.0
C423 C 0.10384 0.26969 0.08881 0.0
H424 H 0.74872 0.06549 0.3401 0.0
H425 H 0.86749 0.13168 0.41685 0.0
H426 H 0.72544 -0.00011 0.38381 0.0
H427 H 0.84479 0.06572 0.46061 0.0
H428 H 0.73834 0.98885 0.57098 0.0
H429 H 0.78543 0.04041 0.5153 0.0
H430 H 0.73248 0.93968 0.41543 0.0
H431 H 0.68461 0.88774 0.47156 0.0
C432 C 0.77066 0.06512 0.36508 0.0
C433 C 0.80954 0.10316 0.37565 0.0
C434 C 0.75753 0.0276 0.39001 0.0
C435 C 0.78304 0.0279 0.42609 0.0
C436 C 0.8243 0.06481 0.43332 0.0
C437 C 0.83742 0.10236 0.40826 0.0
C438 C 0.73727 0.97746 0.53734 0.0
C439 C 0.70712 0.93458 0.52533 0.0
C440 C 0.76475 0.00689 0.50549 0.0
C441 C 0.76252 -0.00588 0.46089 0.0
C442 C 0.73464 0.95041 0.44953 0.0
C443 C 0.70727 0.92077 0.48161 0.0
H444 H 0.72398 0.81064 0.65882 0.0
H445 H 0.71281 0.83937 0.79588 0.0
H446 H 0.76575 0.77628 0.68194 0.0
H447 H 0.75328 0.80445 0.81935 0.0
H448 H 0.81837 0.73819 0.86169 0.0
H449 H 0.81705 0.79699 0.82176 0.0
H450 H 0.73715 0.70679 0.71922 0.0
H451 H 0.73985 0.64851 0.7584 0.0
C452 C 0.73177 0.81077 0.69375 0.0
C453 C 0.71501 0.82697 0.72583 0.0
C454 C 0.75537 0.79094 0.70699 0.0
C455 C 0.76243 0.78718 0.75247 0.0
C456 C 0.74894 0.80712 0.78402 0.0
C457 C 0.72539 0.8268 0.77076 0.0
C458 C 0.80168 0.7313 0.82991 0.0
C459 C 0.77812 0.68869 0.81367 0.0
C460 C 0.80094 0.76494 0.80706 0.0
C461 C 0.77602 0.75633 0.76801 0.0
C462 C 0.75673 0.71461 0.7492 0.0
C463 C 0.75798 0.68105 0.7718 0.0
H464 H 0.92081 0.68737 0.0048 0.0
H465 H 0.85332 0.72596 0.09644 0.0
H466 H 0.98584 0.72183 0.05184 0.0
H467 H 0.91877 0.76201 0.1431 0.0
H468 H 0.09845 0.78352 0.14505 0.0
H469 H 0.04615 0.78227 0.09086 0.0
H470 H 0.94393 0.72405 0.18971 0.0
H471 H -0.00413 0.72613 0.24355 0.0
C472 C 0.92081 0.70508 0.03405 0.0
C473 C 0.88251 0.70404 0.04752 0.0
C474 C 0.95799 0.72492 0.06097 0.0
C475 C 0.95715 0.74395 0.10166 0.0
C476 C 0.92008 0.74686 0.11239 0.0
C477 C 0.88283 0.72665 0.08565 0.0
C478 C 0.06496 0.77125 0.15531 0.0
C479 C 0.05106 0.75423 0.19829 0.0
C480 C 0.03505 0.77051 0.1243 0.0
C481 C 0.99089 0.75299 0.1359 0.0
C482 C 0.97779 0.73842 0.17974 0.0
C483 C 0.00751 0.73906 0.21055 0.0
H484 H 0.10507 0.8422 0.44186 0.0
H485 H 0.22574 0.9011 0.36815 0.0
H486 H 0.1302 0.90998 0.48309 0.0
H487 H 0.25116 0.96865 0.40897 0.0
H488 H 0.29147 0.08687 0.48611 0.0
H489 H 0.2432 0.03154 0.43286 0.0
H490 H 0.19016 0.93743 0.53934 0.0
H491 H 0.23791 0.99238 0.59226 0.0
C492 C 0.13628 0.87028 0.43354 0.0
C493 C 0.16378 0.86705 0.40233 0.0
C494 C 0.15069 0.90884 0.45703 0.0
C495 C 0.19271 0.94442 0.44939 0.0
C496 C 0.21843 0.94201 0.41521 0.0
C497 C 0.20413 0.90342 0.39203 0.0
C498 C 0.26865 0.05462 0.49822 0.0
C499 C 0.26904 0.04355 0.54306 0.0
C500 C 0.24109 0.02305 0.46778 0.0
C501 C 0.21322 0.9802 0.48193 0.0
C502 C 0.21097 0.97026 0.52747 0.0
C503 C 0.23873 0.00161 0.55773 0.0
loop_
_geom_bond_atom_site_label_1
_geom_bond_atom_site_label_2
_geom_bond_distance
_geom_bond_site_symmetry_2
_ccdc_geom_bond_type
Co0 O3 1.970 . S
Co0 N17 1.989 1_556 S
Co0 O25 1.959 1_556 S
Co0 O32 1.920 . S
Co1 O4 1.966 1_554 S
Co1 N10 2.022 . S
Co1 N18 1.993 . S
Co1 O26 1.941 . S
C2 O3 1.258 . S
C2 O4 1.263 . S
O3 Co0 1.970 . S
O3 C2 1.258 . S
O4 Co1 1.966 1_556 S
O4 C2 1.263 . S
C5 O6 1.235 . S
C5 O32 1.289 . S
O6 C5 1.235 . S
C7 C9 1.400 . S
C7 N10 1.351 . S
C7 C12 1.501 . S
C8 C9 1.387 . S
C8 N11 1.341 . S
C9 C7 1.400 . S
C9 C8 1.387 . S
N10 Co1 2.022 . S
N10 C7 1.351 . S
N10 N11 1.365 . S
N11 C8 1.341 . S
N11 N10 1.365 . S
N11 H31 0.862 . S
C12 C7 1.501 . S
C12 H13 0.961 . S
C12 H14 0.961 . S
C12 H15 0.960 . S
H13 C12 0.961 . S
H14 C12 0.961 . S
H15 C12 0.960 . S
C16 N17 1.342 . S
C16 C20 1.401 . S
C16 C21 1.509 . S
N17 Co0 1.989 1_554 S
N17 C16 1.342 . S
N17 N18 1.388 . S
N18 Co1 1.993 . S
N18 N17 1.388 . S
N18 C19 1.346 . S
C19 N18 1.346 . S
C19 C20 1.396 . S
C19 C29 1.510 . S
C20 C16 1.401 . S
C20 C19 1.396 . S
C21 C16 1.509 . S
C21 H22 0.943 1_554 S
C21 H23 0.949 1_554 S
C21 H24 0.977 . S
H22 C21 0.943 1_556 S
H23 C21 0.949 1_556 S
H24 C21 0.977 . S
O25 Co0 1.959 1_554 S
O25 C33 1.270 . S
O26 Co1 1.941 . S
O26 C33 1.266 . S
H27 C29 0.959 . S
H28 C29 0.961 . S
C29 C19 1.510 . S
C29 H27 0.959 . S
C29 H28 0.961 . S
C29 H30 0.960 . S
H30 C29 0.960 . S
H31 N11 0.862 . S
O32 Co0 1.920 . S
O32 C5 1.289 . S
C33 O25 1.270 . S
C33 O26 1.266 . S
Co34 O37 1.970 . S
Co34 N51 1.989 . S
Co34 O59 1.967 . S
Co34 O66 1.920 . S
Co35 O38 1.966 . S
Co35 N44 2.022 . S
Co35 N52 1.993 . S
Co35 O60 1.941 . S
C36 O37 1.258 . S
C36 O38 1.263 . S
O37 Co34 1.970 . S
O37 C36 1.258 . S
O38 Co35 1.966 . S
O38 C36 1.263 . S
C39 O40 1.235 . S
C39 O66 1.289 . S
O40 C39 1.235 . S
C41 C43 1.400 . S
C41 N44 1.351 . S
C41 C46 1.501 . S
C42 C43 1.387 . S
C42 N45 1.341 . S
C43 C41 1.400 . S
C43 C42 1.387 . S
N44 Co35 2.022 . S
N44 C41 1.351 . S
N44 N45 1.365 . S
N45 C42 1.341 . S
N45 N44 1.365 . S
N45 H65 0.862 . S
C46 C41 1.501 . S
C46 H47 0.961 . S
C46 H48 0.961 . S
C46 H49 0.960 . S
H47 C46 0.961 . S
H48 C46 0.961 . S
H49 C46 0.960 . S
C50 N51 1.342 . S
C50 C54 1.401 . S
C50 C55 1.499 . S
N51 Co34 1.989 . S
N51 C50 1.342 . S
N51 N52 1.388 . S
N52 Co35 1.993 . S
N52 N51 1.388 . S
N52 C53 1.346 . S
C53 N52 1.346 . S
C53 C54 1.396 . S
C53 C63 1.510 . S
C54 C50 1.401 . S
C54 C53 1.396 . S
C55 C50 1.499 . S
C55 H56 0.959 . S
C55 H57 0.960 . S
C55 H58 0.961 . S
H56 C55 0.959 . S
H57 C55 0.960 . S
H58 C55 0.961 . S
O59 Co34 1.967 . S
O59 C67 1.258 . S
O60 Co35 1.941 . S
O60 C67 1.266 . S
H61 C63 0.959 . S
H62 C63 0.961 . S
C63 C53 1.510 . S
C63 H61 0.959 . S
C63 H62 0.961 . S
C63 H64 0.960 . S
H64 C63 0.960 . S
H65 N45 0.862 . S
O66 Co34 1.920 . S
O66 C39 1.289 . S
C67 O59 1.258 . S
C67 O60 1.266 . S
Co68 O71 1.970 . S
Co68 N85 1.989 . S
Co68 O93 1.967 . S
Co68 O100 1.920 . S
Co69 O72 1.966 . S
Co69 N78 2.022 . S
Co69 N86 1.993 . S
Co69 O94 1.941 . S
C70 O71 1.258 . S
C70 O72 1.263 . S
O71 Co68 1.970 . S
O71 C70 1.258 . S
O72 Co69 1.966 . S
O72 C70 1.263 . S
C73 O74 1.235 . S
C73 O100 1.289 . S
O74 C73 1.235 . S
C75 C77 1.400 . S
C75 N78 1.351 . S
C75 C80 1.501 . S
C76 C77 1.387 . S
C76 N79 1.341 . S
C77 C75 1.400 . S
C77 C76 1.387 . S
N78 Co69 2.022 . S
N78 C75 1.351 . S
N78 N79 1.365 . S
N79 C76 1.341 . S
N79 N78 1.365 . S
N79 H99 0.862 . S
C80 C75 1.501 . S
C80 H81 0.961 . S
C80 H82 0.961 . S
C80 H83 0.960 . S
H81 C80 0.961 . S
H82 C80 0.961 . S
H83 C80 0.960 . S
C84 N85 1.342 . S
C84 C88 1.401 . S
C84 C89 1.499 . S
N85 Co68 1.989 . S
N85 C84 1.342 . S
N85 N86 1.388 . S
N86 Co69 1.993 . S
N86 N85 1.388 . S
N86 C87 1.346 . S
C87 N86 1.346 . S
C87 C88 1.396 . S
C87 C97 1.510 . S
C88 C84 1.401 . S
C88 C87 1.396 . S
C89 C84 1.499 . S
C89 H90 0.959 . S
C89 H91 0.960 . S
C89 H92 0.961 . S
H90 C89 0.959 . S
H91 C89 0.960 . S
H92 C89 0.961 . S
O93 Co68 1.967 . S
O93 C101 1.258 . S
O94 Co69 1.941 . S
O94 C101 1.266 . S
H95 C97 0.959 . S
H96 C97 0.961 . S
C97 C87 1.510 . S
C97 H95 0.959 . S
C97 H96 0.961 . S
C97 H98 0.960 . S
H98 C97 0.960 . S
H99 N79 0.862 . S
O100 Co68 1.920 . S
O100 C73 1.289 . S
C101 O93 1.258 . S
C101 O94 1.266 . S
Co102 O105 1.970 . S
Co102 N119 1.989 1_556 S
Co102 O127 1.959 1_556 S
Co102 O134 1.920 . S
Co103 O106 1.966 1_554 S
Co103 N112 2.022 . S
Co103 N120 1.993 . S
Co103 O128 1.941 . S
C104 O105 1.258 . S
C104 O106 1.263 . S
O105 Co102 1.970 . S
O105 C104 1.258 . S
O106 Co103 1.966 1_556 S
O106 C104 1.263 . S
C107 O108 1.235 . S
C107 O134 1.289 . S
O108 C107 1.235 . S
C109 C111 1.400 . S
C109 N112 1.351 . S
C109 C114 1.501 . S
C110 C111 1.387 . S
C110 N113 1.341 . S
C111 C109 1.400 . S
C111 C110 1.387 . S
N112 Co103 2.022 . S
N112 C109 1.351 . S
N112 N113 1.365 . S
N113 C110 1.341 . S
N113 N112 1.365 . S
N113 H133 0.862 . S
C114 C109 1.501 . S
C114 H115 0.961 . S
C114 H116 0.961 . S
C114 H117 0.960 . S
H115 C114 0.961 . S
H116 C114 0.961 . S
H117 C114 0.960 . S
C118 N119 1.342 . S
C118 C122 1.401 . S
C118 C123 1.509 . S
N119 Co102 1.989 1_554 S
N119 C118 1.342 . S
N119 N120 1.388 . S
N120 Co103 1.993 . S
N120 N119 1.388 . S
N120 C121 1.346 . S
C121 N120 1.346 . S
C121 C122 1.396 . S
C121 C131 1.510 . S
C122 C118 1.401 . S
C122 C121 1.396 . S
C123 C118 1.509 . S
C123 H124 0.943 1_554 S
C123 H125 0.949 1_554 S
C123 H126 0.977 . S
H124 C123 0.943 1_556 S
H125 C123 0.949 1_556 S
H126 C123 0.977 . S
O127 Co102 1.959 1_554 S
O127 C135 1.270 . S
O128 Co103 1.941 . S
O128 C135 1.266 . S
H129 C131 0.959 . S
H130 C131 0.961 . S
C131 C121 1.510 . S
C131 H129 0.959 . S
C131 H130 0.961 . S
C131 H132 0.960 . S
H132 C131 0.960 . S
H133 N113 0.862 . S
O134 Co102 1.920 . S
O134 C107 1.289 . S
C135 O127 1.270 . S
C135 O128 1.266 . S
Co136 O139 1.970 . S
Co136 N153 1.989 . S
Co136 O161 1.967 . S
Co136 O168 1.920 . S
Co137 O140 1.966 . S
Co137 N146 2.022 . S
Co137 N154 1.993 . S
Co137 O162 1.941 . S
C138 O139 1.258 . S
C138 O140 1.263 . S
O139 Co136 1.970 . S
O139 C138 1.258 . S
O140 Co137 1.966 . S
O140 C138 1.263 . S
C141 O142 1.235 . S
C141 O168 1.289 . S
O142 C141 1.235 . S
C143 C145 1.400 . S
C143 N146 1.351 . S
C143 C148 1.501 . S
C144 C145 1.387 . S
C144 N147 1.341 . S
C145 C143 1.400 . S
C145 C144 1.387 . S
N146 Co137 2.022 . S
N146 C143 1.351 . S
N146 N147 1.365 . S
N147 C144 1.341 . S
N147 N146 1.365 . S
N147 H167 0.862 . S
C148 C143 1.501 . S
C148 H149 0.961 . S
C148 H150 0.961 . S
C148 H151 0.960 . S
H149 C148 0.961 . S
H150 C148 0.961 . S
H151 C148 0.960 . S
C152 N153 1.342 . S
C152 C156 1.401 . S
C152 C157 1.499 . S
N153 Co136 1.989 . S
N153 C152 1.342 . S
N153 N154 1.388 . S
N154 Co137 1.993 . S
N154 N153 1.388 . S
N154 C155 1.346 . S
C155 N154 1.346 . S
C155 C156 1.396 . S
C155 C165 1.510 . S
C156 C152 1.401 . S
C156 C155 1.396 . S
C157 C152 1.499 . S
C157 H158 0.959 . S
C157 H159 0.960 . S
C157 H160 0.961 . S
H158 C157 0.959 . S
H159 C157 0.960 . S
H160 C157 0.961 . S
O161 Co136 1.967 . S
O161 C169 1.258 . S
O162 Co137 1.941 . S
O162 C169 1.266 . S
H163 C165 0.959 . S
H164 C165 0.961 . S
C165 C155 1.510 . S
C165 H163 0.959 . S
C165 H164 0.961 . S
C165 H166 0.960 . S
H166 C165 0.960 . S
H167 N147 0.862 . S
O168 Co136 1.920 . S
O168 C141 1.289 . S
C169 O161 1.258 . S
C169 O162 1.266 . S
Co170 O173 1.970 . S
Co170 N187 1.989 . S
Co170 O195 1.967 . S
Co170 O202 1.920 . S
Co171 O174 1.966 . S
Co171 N180 2.022 . S
Co171 N188 1.993 . S
Co171 O196 1.941 . S
C172 O173 1.258 . S
C172 O174 1.263 . S
O173 Co170 1.970 . S
O173 C172 1.258 . S
O174 Co171 1.966 . S
O174 C172 1.263 . S
C175 O176 1.235 . S
C175 O202 1.289 . S
O176 C175 1.235 . S
C177 C179 1.400 . S
C177 N180 1.351 . S
C177 C182 1.501 . S
C178 C179 1.387 . S
C178 N181 1.341 . S
C179 C177 1.400 . S
C179 C178 1.387 . S
N180 Co171 2.022 . S
N180 C177 1.351 . S
N180 N181 1.365 . S
N181 C178 1.341 . S
N181 N180 1.365 . S
N181 H201 0.862 . S
C182 C177 1.501 . S
C182 H183 0.961 . S
C182 H184 0.961 . S
C182 H185 0.960 . S
H183 C182 0.961 . S
H184 C182 0.961 . S
H185 C182 0.960 . S
C186 N187 1.342 . S
C186 C190 1.401 . S
C186 C191 1.499 . S
N187 Co170 1.989 . S
N187 C186 1.342 . S
N187 N188 1.388 . S
N188 Co171 1.993 . S
N188 N187 1.388 . S
N188 C189 1.346 . S
C189 N188 1.346 . S
C189 C190 1.396 . S
C189 C199 1.510 . S
C190 C186 1.401 . S
C190 C189 1.396 . S
C191 C186 1.499 . S
C191 H192 0.959 . S
C191 H193 0.960 . S
C191 H194 0.961 . S
H192 C191 0.959 . S
H193 C191 0.960 . S
H194 C191 0.961 . S
O195 Co170 1.967 . S
O195 C203 1.258 . S
O196 Co171 1.941 . S
O196 C203 1.266 . S
H197 C199 0.959 . S
H198 C199 0.961 . S
C199 C189 1.510 . S
C199 H197 0.959 . S
C199 H198 0.961 . S
C199 H200 0.960 . S
H200 C199 0.960 . S
H201 N181 0.862 . S
O202 Co170 1.920 . S
O202 C175 1.289 . S
C203 O195 1.258 . S
C203 O196 1.266 . S
H204 C212 0.950 . S
H205 C217 0.950 1_556 S
H206 C214 0.950 . S
H207 C216 0.950 1_556 S
H208 C218 0.950 1_556 S
H209 C220 0.950 1_556 S
H210 C222 0.950 . S
H211 C223 0.950 . S
C212 H204 0.950 . S
C212 C213 1.386 . S
C212 C214 1.391 . S
C213 C212 1.386 . S
C213 C217 1.393 . S
C214 H206 0.950 . S
C214 C212 1.391 . S
C214 C215 1.400 . S
C215 C214 1.400 . S
C215 C216 1.398 . S
C215 C221 1.491 . S
C216 H207 0.950 1_554 S
C216 C215 1.398 . S
C216 C217 1.391 . S
C217 H205 0.950 1_554 S
C217 C213 1.393 . S
C217 C216 1.391 . S
C218 H208 0.950 1_554 S
C218 C219 1.386 . S
C218 C220 1.391 . S
C219 C218 1.386 . S
C219 C223 1.393 . S
C220 H209 0.950 1_554 S
C220 C218 1.391 . S
C220 C221 1.400 . S
C221 C215 1.491 . S
C221 C220 1.400 . S
C221 C222 1.398 . S
C222 H210 0.950 . S
C222 C221 1.398 . S
C222 C223 1.391 . S
C223 H211 0.950 . S
C223 C219 1.393 . S
C223 C222 1.391 . S
H224 C232 0.950 . S
H225 C237 0.950 . S
H226 C234 0.950 . S
H227 C236 0.950 . S
H228 C238 0.950 . S
H229 C240 0.950 . S
H230 C242 0.950 . S
H231 C243 0.950 . S
C232 H224 0.950 . S
C232 C233 1.386 . S
C232 C234 1.391 1_455 S
C233 C232 1.386 . S
C233 C237 1.393 . S
C234 H226 0.950 . S
C234 C232 1.391 1_655 S
C234 C235 1.400 1_655 S
C235 C234 1.400 1_455 S
C235 C236 1.398 . S
C235 C241 1.491 1_455 S
C236 H227 0.950 . S
C236 C235 1.398 . S
C236 C237 1.391 . S
C237 H225 0.950 . S
C237 C233 1.393 . S
C237 C236 1.391 . S
C238 H228 0.950 . S
C238 C239 1.386 . S
C238 C240 1.391 1_655 S
C239 C238 1.386 . S
C239 C243 1.393 . S
C240 H229 0.950 . S
C240 C238 1.391 1_455 S
C240 C241 1.400 1_455 S
C241 C235 1.491 1_655 S
C241 C240 1.400 1_655 S
C241 C242 1.398 . S
C242 H230 0.950 . S
C242 C241 1.398 . S
C242 C243 1.391 . S
C243 H231 0.950 . S
C243 C239 1.393 . S
C243 C242 1.391 . S
H244 C252 0.950 . S
H245 C257 0.950 . S
H246 C254 0.950 . S
H247 C256 0.950 . S
H248 C258 0.950 . S
H249 C260 0.950 . S
H250 C262 0.950 . S
H251 C263 0.950 . S
C252 H244 0.950 . S
C252 C253 1.386 . S
C252 C254 1.391 1_565 S
C253 C252 1.386 . S
C253 C257 1.393 . S
C254 H246 0.950 . S
C254 C252 1.391 1_545 S
C254 C255 1.400 1_545 S
C255 C254 1.400 1_565 S
C255 C256 1.398 . S
C255 C261 1.491 1_565 S
C256 H247 0.950 . S
C256 C255 1.398 . S
C256 C257 1.391 . S
C257 H245 0.950 . S
C257 C253 1.393 . S
C257 C256 1.391 . S
C258 H248 0.950 . S
C258 C259 1.386 . S
C258 C260 1.391 1_545 S
C259 C258 1.386 . S
C259 C263 1.393 . S
C260 H249 0.950 . S
C260 C258 1.391 1_565 S
C260 C261 1.400 1_565 S
C261 C255 1.491 1_545 S
C261 C260 1.400 1_545 S
C261 C262 1.398 . S
C262 H250 0.950 . S
C262 C261 1.398 . S
C262 C263 1.391 . S
C263 H251 0.950 . S
C263 C259 1.393 . S
C263 C262 1.391 . S
H264 C272 0.950 . S
H265 C277 0.950 . S
H266 C274 0.950 . S
H267 C276 0.950 . S
H268 C278 0.950 . S
H269 C280 0.950 . S
H270 C282 0.950 . S
H271 C283 0.950 . S
C272 H264 0.950 . S
C272 C273 1.386 . S
C272 C274 1.391 . S
C273 C272 1.386 . S
C273 C277 1.393 . S
C274 H266 0.950 . S
C274 C272 1.391 . S
C274 C275 1.400 . S
C275 C274 1.400 . S
C275 C276 1.398 . S
C275 C281 1.491 . S
C276 H267 0.950 . S
C276 C275 1.398 . S
C276 C277 1.391 . S
C277 H265 0.950 . S
C277 C273 1.393 . S
C277 C276 1.391 . S
C278 H268 0.950 . S
C278 C279 1.386 . S
C278 C280 1.391 . S
C279 C278 1.386 . S
C279 C283 1.393 . S
C280 H269 0.950 . S
C280 C278 1.391 . S
C280 C281 1.400 . S
C281 C275 1.491 . S
C281 C280 1.400 . S
C281 C282 1.398 . S
C282 H270 0.950 . S
C282 C281 1.398 . S
C282 C283 1.391 . S
C283 H271 0.950 . S
C283 C279 1.393 . S
C283 C282 1.391 . S
H284 C292 0.950 . S
H285 C297 0.950 . S
H286 C294 0.950 . S
H287 C296 0.950 . S
H288 C298 0.950 . S
H289 C300 0.950 . S
H290 C302 0.950 . S
H291 C303 0.950 . S
C292 H284 0.950 . S
C292 C293 1.386 . S
C292 C294 1.391 . S
C293 C292 1.386 . S
C293 C297 1.393 . S
C294 H286 0.950 . S
C294 C292 1.391 . S
C294 C295 1.400 . S
C295 C294 1.400 . S
C295 C296 1.398 . S
C295 C301 1.491 . S
C296 H287 0.950 . S
C296 C295 1.398 . S
C296 C297 1.391 . S
C297 H285 0.950 . S
C297 C293 1.393 . S
C297 C296 1.391 . S
C298 H288 0.950 . S
C298 C299 1.386 . S
C298 C300 1.391 . S
C299 C298 1.386 . S
C299 C303 1.393 . S
C300 H289 0.950 . S
C300 C298 1.391 . S
C300 C301 1.400 . S
C301 C295 1.491 . S
C301 C300 1.400 . S
C301 C302 1.398 . S
C302 H290 0.950 . S
C302 C301 1.398 . S
C302 C303 1.391 . S
C303 H291 0.950 . S
C303 C299 1.393 . S
C303 C302 1.391 . S
H304 C312 0.950 . S
H305 C317 0.950 . S
H306 C314 0.950 . S
H307 C316 0.950 . S
H308 C318 0.950 . S
H309 C320 0.950 . S
H310 C322 0.950 . S
H311 C323 0.950 . S
C312 H304 0.950 . S
C312 C313 1.386 . S
C312 C314 1.391 . S
C313 C312 1.386 . S
C313 C317 1.393 . S
C314 H306 0.950 . S
C314 C312 1.391 . S
C314 C315 1.400 . S
C315 C314 1.400 . S
C315 C316 1.398 . S
C315 C321 1.491 . S
C316 H307 0.950 . S
C316 C315 1.398 . S
C316 C317 1.391 . S
C317 H305 0.950 . S
C317 C313 1.393 . S
C317 C316 1.391 . S
C318 H308 0.950 . S
C318 C319 1.386 . S
C318 C320 1.391 . S
C319 C318 1.386 . S
C319 C323 1.393 . S
C320 H309 0.950 . S
C320 C318 1.391 . S
C320 C321 1.400 . S
C321 C315 1.491 . S
C321 C320 1.400 . S
C321 C322 1.398 . S
C322 H310 0.950 . S
C322 C321 1.398 . S
C322 C323 1.391 . S
C323 H311 0.950 . S
C323 C319 1.393 . S
C323 C322 1.391 . S
H324 C332 0.950 . S
H325 C337 0.950 . S
H326 C334 0.950 . S
H327 C336 0.950 . S
H328 C338 0.950 . S
H329 C340 0.950 . S
H330 C342 0.950 . S
H331 C343 0.950 . S
C332 H324 0.950 . S
C332 C333 1.386 . S
C332 C334 1.391 . S
C333 C332 1.386 . S
C333 C337 1.393 . S
C334 H326 0.950 . S
C334 C332 1.391 . S
C334 C335 1.400 . S
C335 C334 1.400 . S
C335 C336 1.398 . S
C335 C341 1.491 . S
C336 H327 0.950 . S
C336 C335 1.398 . S
C336 C337 1.391 . S
C337 H325 0.950 . S
C337 C333 1.393 . S
C337 C336 1.391 . S
C338 H328 0.950 . S
C338 C339 1.386 . S
C338 C340 1.391 . S
C339 C338 1.386 . S
C339 C343 1.393 . S
C340 H329 0.950 . S
C340 C338 1.391 . S
C340 C341 1.400 . S
C341 C335 1.491 . S
C341 C340 1.400 . S
C341 C342 1.398 . S
C342 H330 0.950 . S
C342 C341 1.398 . S
C342 C343 1.391 . S
C343 H331 0.950 . S
C343 C339 1.393 . S
C343 C342 1.391 . S
H344 C352 0.950 . S
H345 C357 0.950 . S
H346 C354 0.950 . S
H347 C356 0.950 . S
H348 C358 0.950 . S
H349 C360 0.950 . S
H350 C362 0.950 . S
H351 C363 0.950 . S
C352 H344 0.950 . S
C352 C353 1.386 . S
C352 C354 1.391 . S
C353 C352 1.386 . S
C353 C357 1.393 . S
C354 H346 0.950 . S
C354 C352 1.391 . S
C354 C355 1.400 . S
C355 C354 1.400 . S
C355 C356 1.398 . S
C355 C361 1.491 . S
C356 H347 0.950 . S
C356 C355 1.398 . S
C356 C357 1.391 . S
C357 H345 0.950 . S
C357 C353 1.393 . S
C357 C356 1.391 . S
C358 H348 0.950 . S
C358 C359 1.386 . S
C358 C360 1.391 . S
C359 C358 1.386 . S
C359 C363 1.393 . S
C360 H349 0.950 . S
C360 C358 1.391 . S
C360 C361 1.400 . S
C361 C355 1.491 . S
C361 C360 1.400 . S
C361 C362 1.398 . S
C362 H350 0.950 . S
C362 C361 1.398 . S
C362 C363 1.391 . S
C363 H351 0.950 . S
C363 C359 1.393 . S
C363 C362 1.391 . S
H364 C372 0.950 . S
H365 C377 0.950 . S
H366 C374 0.950 . S
H367 C376 0.950 . S
H368 C378 0.950 . S
H369 C380 0.950 . S
H370 C382 0.950 . S
H371 C383 0.950 . S
C372 H364 0.950 . S
C372 C373 1.386 . S
C372 C374 1.391 . S
C373 C372 1.386 . S
C373 C377 1.393 . S
C374 H366 0.950 . S
C374 C372 1.391 . S
C374 C375 1.400 . S
C375 C374 1.400 . S
C375 C376 1.398 . S
C375 C381 1.491 . S
C376 H367 0.950 . S
C376 C375 1.398 . S
C376 C377 1.391 . S
C377 H365 0.950 . S
C377 C373 1.393 . S
C377 C376 1.391 . S
C378 H368 0.950 . S
C378 C379 1.386 . S
C378 C380 1.391 . S
C379 C378 1.386 . S
C379 C383 1.393 . S
C380 H369 0.950 . S
C380 C378 1.391 . S
C380 C381 1.400 . S
C381 C375 1.491 . S
C381 C380 1.400 . S
C381 C382 1.398 . S
C382 H370 0.950 . S
C382 C381 1.398 . S
C382 C383 1.391 . S
C383 H371 0.950 . S
C383 C379 1.393 . S
C383 C382 1.391 . S
H384 C392 0.950 . S
H385 C397 0.950 . S
H386 C394 0.950 . S
H387 C396 0.950 . S
H388 C398 0.950 . S
H389 C400 0.950 . S
H390 C402 0.950 . S
H391 C403 0.950 . S
C392 H384 0.950 . S
C392 C393 1.386 . S
C392 C394 1.391 . S
C393 C392 1.386 . S
C393 C397 1.393 . S
C394 H386 0.950 . S
C394 C392 1.391 . S
C394 C395 1.400 . S
C395 C394 1.400 . S
C395 C396 1.398 . S
C395 C401 1.491 . S
C396 H387 0.950 . S
C396 C395 1.398 . S
C396 C397 1.391 . S
C397 H385 0.950 . S
C397 C393 1.393 . S
C397 C396 1.391 . S
C398 H388 0.950 . S
C398 C399 1.386 . S
C398 C400 1.391 . S
C399 C398 1.386 . S
C399 C403 1.393 . S
C400 H389 0.950 . S
C400 C398 1.391 . S
C400 C401 1.400 . S
C401 C395 1.491 . S
C401 C400 1.400 . S
C401 C402 1.398 . S
C402 H390 0.950 . S
C402 C401 1.398 . S
C402 C403 1.391 . S
C403 H391 0.950 . S
C403 C399 1.393 . S
C403 C402 1.391 . S
H404 C412 0.950 . S
H405 C417 0.950 . S
H406 C414 0.964 . S
H407 C416 0.950 . S
H408 C418 0.950 . S
H409 C420 0.950 . S
H410 C422 0.950 . S
H411 C423 0.950 . S
C412 H404 0.950 . S
C412 C413 1.386 . S
C412 C414 1.374 1_655 S
C413 C412 1.386 . S
C413 C417 1.393 . S
C414 H406 0.964 . S
C414 C412 1.374 1_455 S
C414 C415 1.404 . S
C415 C414 1.404 . S
C415 C416 1.398 . S
C415 C421 1.491 . S
C416 H407 0.950 . S
C416 C415 1.398 . S
C416 C417 1.391 1_455 S
C417 H405 0.950 . S
C417 C413 1.393 . S
C417 C416 1.391 1_655 S
C418 H408 0.950 . S
C418 C419 1.386 . S
C418 C420 1.391 . S
C419 C418 1.386 . S
C419 C423 1.393 . S
C420 H409 0.950 . S
C420 C418 1.391 . S
C420 C421 1.400 . S
C421 C415 1.491 . S
C421 C420 1.400 . S
C421 C422 1.398 . S
C422 H410 0.950 . S
C422 C421 1.398 . S
C422 C423 1.391 . S
C423 H411 0.950 . S
C423 C419 1.393 . S
C423 C422 1.391 . S
H424 C432 0.950 . S
H425 C437 0.950 . S
H426 C434 0.950 . S
H427 C436 0.950 . S
H428 C438 0.950 1_545 S
H429 C440 0.950 . S
H430 C442 0.950 . S
H431 C443 0.950 . S
C432 H424 0.950 . S
C432 C433 1.386 . S
C432 C434 1.391 . S
C433 C432 1.386 . S
C433 C437 1.393 . S
C434 H426 0.950 . S
C434 C432 1.391 . S
C434 C435 1.400 . S
C435 C434 1.400 . S
C435 C436 1.398 . S
C435 C441 1.491 . S
C436 H427 0.950 . S
C436 C435 1.398 . S
C436 C437 1.391 . S
C437 H425 0.950 . S
C437 C433 1.393 . S
C437 C436 1.391 . S
C438 H428 0.950 1_565 S
C438 C439 1.386 . S
C438 C440 1.391 1_565 S
C439 C438 1.386 . S
C439 C443 1.393 . S
C440 H429 0.950 . S
C440 C438 1.391 1_545 S
C440 C441 1.400 . S
C441 C435 1.491 . S
C441 C440 1.400 . S
C441 C442 1.398 1_545 S
C442 H430 0.950 . S
C442 C441 1.398 1_565 S
C442 C443 1.391 . S
C443 H431 0.950 . S
C443 C439 1.393 . S
C443 C442 1.391 . S
H444 C452 0.950 . S
H445 C457 0.950 . S
H446 C454 0.950 . S
H447 C456 0.950 . S
H448 C458 0.950 . S
H449 C460 0.950 . S
H450 C462 0.950 . S
H451 C463 0.950 . S
C452 H444 0.950 . S
C452 C453 1.386 . S
C452 C454 1.391 . S
C453 C452 1.386 . S
C453 C457 1.393 . S
C454 H446 0.950 . S
C454 C452 1.391 . S
C454 C455 1.400 . S
C455 C454 1.400 . S
C455 C456 1.398 . S
C455 C461 1.491 . S
C456 H447 0.950 . S
C456 C455 1.398 . S
C456 C457 1.391 . S
C457 H445 0.950 . S
C457 C453 1.393 . S
C457 C456 1.391 . S
C458 H448 0.950 . S
C458 C459 1.386 . S
C458 C460 1.391 . S
C459 C458 1.386 . S
C459 C463 1.393 . S
C460 H449 0.950 . S
C460 C458 1.391 . S
C460 C461 1.400 . S
C461 C455 1.491 . S
C461 C460 1.400 . S
C461 C462 1.398 . S
C462 H450 0.950 . S
C462 C461 1.398 . S
C462 C463 1.391 . S
C463 H451 0.950 . S
C463 C459 1.393 . S
C463 C462 1.391 . S
H464 C472 0.950 . S
H465 C477 0.950 . S
H466 C474 0.950 . S
H467 C476 0.950 . S
H468 C478 0.950 . S
H469 C480 0.959 . S
H470 C482 0.950 . S
H471 C483 0.950 . S
C472 H464 0.950 . S
C472 C473 1.386 . S
C472 C474 1.391 . S
C473 C472 1.386 . S
C473 C477 1.393 . S
C474 H466 0.950 . S
C474 C472 1.391 . S
C474 C475 1.400 . S
C475 C474 1.400 . S
C475 C476 1.398 . S
C475 C481 1.491 . S
C476 H467 0.950 . S
C476 C475 1.398 . S
C476 C477 1.391 . S
C477 H465 0.950 . S
C477 C473 1.393 . S
C477 C476 1.391 . S
C478 H468 0.950 . S
C478 C479 1.386 . S
C478 C480 1.391 . S
C479 C478 1.386 . S
C479 C483 1.393 . S
C480 H469 0.959 . S
C480 C478 1.391 . S
C480 C481 1.400 1_455 S
C481 C475 1.491 . S
C481 C480 1.400 1_655 S
C481 C482 1.398 . S
C482 H470 0.950 . S
C482 C481 1.398 . S
C482 C483 1.391 1_655 S
C483 H471 0.950 . S
C483 C479 1.393 . S
C483 C482 1.391 1_455 S
H484 C492 0.950 . S
H485 C497 0.950 . S
H486 C494 0.950 . S
H487 C496 0.950 . S
H488 C498 0.950 . S
H489 C500 0.950 . S
H490 C502 0.950 . S
H491 C503 0.949 . S
C492 H484 0.950 . S
C492 C493 1.386 . S
C492 C494 1.391 . S
C493 C492 1.386 . S
C493 C497 1.393 . S
C494 H486 0.950 . S
C494 C492 1.391 . S
C494 C495 1.400 . S
C495 C494 1.400 . S
C495 C496 1.398 . S
C495 C501 1.491 . S
C496 H487 0.950 . S
C496 C495 1.398 . S
C496 C497 1.391 . S
C497 H485 0.950 . S
C497 C493 1.393 . S
C497 C496 1.391 . S
C498 H488 0.950 . S
C498 C499 1.386 . S
C498 C500 1.391 . S
C499 C498 1.386 . S
C499 C503 1.393 . S
C500 H489 0.950 . S
C500 C498 1.391 . S
C500 C501 1.400 1_545 S
C501 C495 1.491 . S
C501 C500 1.400 1_565 S
C501 C502 1.398 . S
C502 H490 0.950 . S
C502 C501 1.398 . S
C502 C503 1.391 1_565 S
C503 H491 0.949 . S
C503 C499 1.393 . S
C503 C502 1.391 1_545 S
C213 C135 1.211 . S
C219 C33 1.220 . S
C233 C169 1.189 . S
C239 C67 1.204 . S
C253 C101 1.189 . S
C259 C203 1.203 . S
C273 C138 1.011 . S
C279 C9 1.000 . S
C293 C172 1.028 . S
C299 C43 0.983 . S
C313 C77 0.996 . S
C319 C2 1.013 . S
C333 C36 1.012 . S
C339 C111 0.998 . S
C353 C145 1.003 . S
C359 C70 1.031 . S
C373 C179 1.014 . S
C379 C104 1.025 . S
C393 C190 0.882 . S
C399 C5 0.905 . S
C413 C39 0.891 . S
C419 C20 0.889 . S
C433 C54 0.905 . S
C439 C73 0.890 . S
C453 C88 0.898 . S
C459 C107 0.898 . S
C473 C122 0.883 . S
C479 C141 0.905 . S
C493 C156 0.874 . S
C499 C175 0.907 . S
