# Generated by pormake.
# Topology snl, (6)-cn, num edge types: 1
# Building blocks:
#     Node 0, Type 0, BuildingBlock: KUMBOL_clean_sbu_0, # of connection points: 6
#     Node 1, Type 0, BuildingBlock: KUMBOL_clean_sbu_0, # of connection points: 6
#     Node 2, Type 0, BuildingBlock: KUMBOL_clean_sbu_0, # of connection points: 6
#     Node 3, Type 0, BuildingBlock: KUMBOL_clean_sbu_0, # of connection points: 6
#     Node 4, Type 0, BuildingBlock: KUMBOL_clean_sbu_0, # of connection points: 6
#     Node 5, Type 0, BuildingBlock: KUMBOL_clean_sbu_0, # of connection points: 6
#     Node 6, Type 0, BuildingBlock: KUMBOL_clean_sbu_0, # of connection points: 6
#     Node 7, Type 0, BuildingBlock: KUMBOL_clean_sbu_0, # of connection points: 6
#     Node 8, Type 0, BuildingBlock: KUMBOL_clean_sbu_0, # of connection points: 6
#     Node 9, Type 0, BuildingBlock: KUMBOL_clean_sbu_0, # of connection points: 6
#     Node 10, Type 0, BuildingBlock: KUMBOL_clean_sbu_0, # of connection points: 6
#     Node 11, Type 0, BuildingBlock: KUMBOL_clean_sbu_0, # of connection points: 6
#     Node 12, Type 0, BuildingBlock: KUMBOL_clean_sbu_0, # of connection points: 6
#     Node 13, Type 0, BuildingBlock: KUMBOL_clean_sbu_0, # of connection points: 6
#     Node 14, Type 0, BuildingBlock: KUMBOL_clean_sbu_0, # of connection points: 6
#     Node 15, Type 0, BuildingBlock: KUMBOL_clean_sbu_0, # of connection points: 6
#     Edge 16, Type (0, 0), BuildingBlock: XIVTED_clean_linker_0, # of connection points: 2
#     Edge 17, Type (0, 0), BuildingBlock: XIVTED_clean_linker_0, # of connection points: 2
#     Edge 18, Type (0, 0), BuildingBlock: XIVTED_clean_linker_0, # of connection points: 2
#     Edge 19, Type (0, 0), BuildingBlock: XIVTED_clean_linker_0, # of connection points: 2
#     Edge 20, Type (0, 0), BuildingBlock: XIVTED_clean_linker_0, # of connection points: 2
#     Edge 21, Type (0, 0), BuildingBlock: XIVTED_clean_linker_0, # of connection points: 2
#     Edge 22, Type (0, 0), BuildingBlock: XIVTED_clean_linker_0, # of connection points: 2
#     Edge 23, Type (0, 0), BuildingBlock: XIVTED_clean_linker_0, # of connection points: 2
#     Edge 24, Type (0, 0), BuildingBlock: XIVTED_clean_linker_0, # of connection points: 2
#     Edge 25, Type (0, 0), BuildingBlock: XIVTED_clean_linker_0, # of connection points: 2
#     Edge 26, Type (0, 0), BuildingBlock: XIVTED_clean_linker_0, # of connection points: 2
#     Edge 27, Type (0, 0), BuildingBlock: XIVTED_clean_linker_0, # of connection points: 2
#     Edge 28, Type (0, 0), BuildingBlock: XIVTED_clean_linker_0, # of connection points: 2
#     Edge 29, Type (0, 0), BuildingBlock: XIVTED_clean_linker_0, # of connection points: 2
#     Edge 30, Type (0, 0), BuildingBlock: XIVTED_clean_linker_0, # of connection points: 2
#     Edge 31, Type (0, 0), BuildingBlock: XIVTED_clean_linker_0, # of connection points: 2
#     Edge 32, Type (0, 0), BuildingBlock: XIVTED_clean_linker_0, # of connection points: 2
#     Edge 33, Type (0, 0), BuildingBlock: XIVTED_clean_linker_0, # of connection points: 2
#     Edge 34, Type (0, 0), BuildingBlock: XIVTED_clean_linker_0, # of connection points: 2
#     Edge 35, Type (0, 0), BuildingBlock: XIVTED_clean_linker_0, # of connection points: 2
#     Edge 36, Type (0, 0), BuildingBlock: XIVTED_clean_linker_0, # of connection points: 2
#     Edge 37, Type (0, 0), BuildingBlock: XIVTED_clean_linker_0, # of connection points: 2
#     Edge 38, Type (0, 0), BuildingBlock: XIVTED_clean_linker_0, # of connection points: 2
#     Edge 39, Type (0, 0), BuildingBlock: XIVTED_clean_linker_0, # of connection points: 2
#     Edge 40, Type (0, 0), BuildingBlock: XIVTED_clean_linker_0, # of connection points: 2
#     Edge 41, Type (0, 0), BuildingBlock: XIVTED_clean_linker_0, # of connection points: 2
#     Edge 42, Type (0, 0), BuildingBlock: XIVTED_clean_linker_0, # of connection points: 2
#     Edge 43, Type (0, 0), BuildingBlock: XIVTED_clean_linker_0, # of connection points: 2
#     Edge 44, Type (0, 0), BuildingBlock: XIVTED_clean_linker_0, # of connection points: 2
#     Edge 45, Type (0, 0), BuildingBlock: XIVTED_clean_linker_0, # of connection points: 2
#     Edge 46, Type (0, 0), BuildingBlock: XIVTED_clean_linker_0, # of connection points: 2
#     Edge 47, Type (0, 0), BuildingBlock: XIVTED_clean_linker_0, # of connection points: 2
#     Edge 48, Type (0, 0), BuildingBlock: XIVTED_clean_linker_0, # of connection points: 2
#     Edge 49, Type (0, 0), BuildingBlock: XIVTED_clean_linker_0, # of connection points: 2
#     Edge 50, Type (0, 0), BuildingBlock: XIVTED_clean_linker_0, # of connection points: 2
#     Edge 51, Type (0, 0), BuildingBlock: XIVTED_clean_linker_0, # of connection points: 2
#     Edge 52, Type (0, 0), BuildingBlock: XIVTED_clean_linker_0, # of connection points: 2
#     Edge 53, Type (0, 0), BuildingBlock: XIVTED_clean_linker_0, # of connection points: 2
#     Edge 54, Type (0, 0), BuildingBlock: XIVTED_clean_linker_0, # of connection points: 2
#     Edge 55, Type (0, 0), BuildingBlock: XIVTED_clean_linker_0, # of connection points: 2
#     Edge 56, Type (0, 0), BuildingBlock: XIVTED_clean_linker_0, # of connection points: 2
#     Edge 57, Type (0, 0), BuildingBlock: XIVTED_clean_linker_0, # of connection points: 2
#     Edge 58, Type (0, 0), BuildingBlock: XIVTED_clean_linker_0, # of connection points: 2
#     Edge 59, Type (0, 0), BuildingBlock: XIVTED_clean_linker_0, # of connection points: 2
#     Edge 60, Type (0, 0), BuildingBlock: XIVTED_clean_linker_0, # of connection points: 2
#     Edge 61, Type (0, 0), BuildingBlock: XIVTED_clean_linker_0, # of connection points: 2
#     Edge 62, Type (0, 0), BuildingBlock: XIVTED_clean_linker_0, # of connection points: 2
#     Edge 63, Type (0, 0), BuildingBlock: XIVTED_clean_linker_0, # of connection points: 2
# Relax obj value: 0.169
# Max RMSD: 0.251
# Mean RMSD: 0.243
data_MOF--net-snl--node1-KUMBOL_clean_sbu_0--edge1-XIVTED_clean_linker_0
_symmetry_space_group_name_H-M    P1
_symmetry_Int_Tables_number       1
_symmetry_cell_setting            triclinic
loop_
_symmetry_equiv_pos_as_xyz
'x, y, z'
_cell_length_a     56.986488
_cell_length_b     56.959118
_cell_length_c     24.893127
_cell_angle_alpha  90.209442
_cell_angle_beta   90.623824
_cell_angle_gamma 90.077863
loop_
_atom_site_label
_atom_site_type_symbol
_atom_site_fract_x
_atom_site_fract_y
_atom_site_fract_z
_atom_type_partial_charge
Gd0 Gd 0.14216 0.64003 0.05782 0.0
Gd1 Gd 0.12652 0.62771 0.19405 0.0
C2 C 0.1556 0.55569 0.24446 0.0
C3 C 0.12657 0.52898 0.2066 0.0
C4 C 0.12162 0.57128 0.1976 0.0
C5 C 0.14264 0.57499 0.22448 0.0
C6 C 0.11312 0.5482 0.18934 0.0
C7 C 0.14779 0.53272 0.23407 0.0
C8 C 0.17557 0.56003 0.27602 0.0
C9 C 0.18138 0.58307 0.28964 0.0
N10 N 0.14971 0.59742 0.23386 0.0
C11 C 0.16783 0.60154 0.26951 0.0
H12 H 0.17207 0.61918 0.28255 0.0
C13 C 0.0874 0.58719 0.15815 0.0
N14 N 0.10933 0.59022 0.17997 0.0
C15 C 0.07819 0.56473 0.14946 0.0
C16 C 0.09126 0.54511 0.16433 0.0
H17 H 0.07656 0.60188 0.14785 0.0
H18 H 0.1577 0.51774 0.24844 0.0
H19 H 0.10206 0.68263 0.04999 0.0
H20 H 0.18598 0.54571 0.29203 0.0
H21 H 0.19612 0.58662 0.31624 0.0
H22 H 0.12048 0.51117 0.19983 0.0
H23 H 0.19637 0.62149 0.02227 0.0
H24 H 0.13447 0.74301 0.98214 0.0
H25 H 0.09933 0.72326 0.0173 0.0
H26 H 0.21378 0.71897 0.95519 0.0
H27 H 0.06094 0.56258 0.13145 0.0
H28 H 0.08413 0.52771 0.15731 0.0
H29 H 0.1774 0.74154 0.96061 0.0
H30 H 0.23244 0.63824 0.98507 0.0
N31 N 0.13883 0.67997 0.03741 0.0
C32 C 0.13605 0.72557 0.99868 0.0
C33 C 0.11608 0.71432 0.01777 0.0
C34 C 0.15754 0.71374 0.99853 0.0
C35 C 0.1584 0.69051 0.01798 0.0
C36 C 0.11772 0.69128 0.03643 0.0
N37 N 0.17834 0.65425 0.02594 0.0
C38 C 0.17878 0.67736 0.01263 0.0
C39 C 0.21755 0.64947 0.99289 0.0
C40 C 0.21864 0.67335 0.98124 0.0
C41 C 0.19698 0.64004 0.01392 0.0
C42 C 0.19896 0.68748 0.98968 0.0
H43 H 0.23446 0.68053 0.96391 0.0
O44 O 0.13496 0.6124 0.99909 0.0
O45 O 0.13142 0.61075 0.11277 0.0
O46 O 0.16571 0.63406 0.19462 0.0
O47 O 0.17627 0.64473 0.10774 0.0
O48 O 0.16267 0.60702 0.07174 0.0
O49 O 0.1332 0.64818 0.97411 0.0
O50 O 0.09386 0.63254 0.2369 0.0
O51 O 0.1288 0.6566 0.13267 0.0
O52 O 0.10166 0.64009 0.06364 0.0
O53 O 0.09312 0.64072 0.15496 0.0
O54 O 0.14146 0.66434 0.20863 0.0
O55 O 0.12693 0.63249 0.28175 0.0
C56 C 0.14779 0.59617 0.10151 0.0
C57 C 0.19849 0.71098 0.97313 0.0
C58 C 0.17776 0.72394 0.97672 0.0
C59 C 0.13275 0.62646 0.95862 0.0
C60 C 0.14613 0.62048 0.90977 0.0
C61 C 0.16774 0.60879 0.91402 0.0
C62 C 0.13714 0.62606 0.85834 0.0
C63 C 0.14981 0.62026 0.81158 0.0
C64 C 0.18047 0.60333 0.86817 0.0
C65 C 0.17166 0.60902 0.81738 0.0
C66 C 0.18148 0.64058 0.15914 0.0
C67 C 0.1383 0.67278 0.16102 0.0
C68 C 0.10424 0.63425 0.28349 0.0
C69 C 0.09098 0.63815 0.33366 0.0
C70 C 0.06736 0.64502 0.33012 0.0
C71 C 0.10145 0.63512 0.38494 0.0
C72 C 0.08827 0.63873 0.43215 0.0
C73 C 0.05441 0.64892 0.37642 0.0
C74 C 0.06471 0.64586 0.42693 0.0
C75 C 0.08656 0.64167 0.10396 0.0
H76 H 0.17469 0.60362 0.95277 0.0
H77 H 0.12036 0.63489 0.85481 0.0
H78 H 0.19713 0.59434 0.87198 0.0
H79 H 0.1817 0.60399 0.78249 0.0
H80 H 0.05886 0.64756 0.29143 0.0
H81 H 0.11958 0.62953 0.38804 0.0
H82 H 0.03627 0.6544 0.37315 0.0
H83 H 0.0542 0.64937 0.46204 0.0
Gd84 Gd 0.62839 0.89764 0.31632 0.0
Gd85 Gd 0.65725 0.87621 0.43895 0.0
C86 C 0.73571 0.86046 0.43805 0.0
C87 C 0.7363 0.81798 0.44739 0.0
C88 C 0.69921 0.83901 0.44624 0.0
C89 C 0.71098 0.86001 0.43939 0.0
C90 C 0.71172 0.81779 0.45129 0.0
C91 C 0.74827 0.83928 0.44082 0.0
C92 C 0.74707 0.88223 0.43588 0.0
C93 C 0.73383 0.90282 0.43728 0.0
N94 N 0.69832 0.88016 0.43789 0.0
C95 C 0.70933 0.90146 0.43915 0.0
H96 H 0.69928 0.9175 0.4401 0.0
C97 C 0.66329 0.81966 0.46318 0.0
N98 N 0.67551 0.83953 0.4506 0.0
C99 C 0.6749 0.79813 0.46802 0.0
C100 C 0.6992 0.79714 0.46148 0.0
H101 H 0.64448 0.82033 0.46785 0.0
H102 H 0.76727 0.83924 0.43935 0.0
H103 H 0.58694 0.85589 0.30082 0.0
H104 H 0.76604 0.88333 0.43467 0.0
H105 H 0.74246 0.91976 0.43681 0.0
H106 H 0.74623 0.80183 0.45077 0.0
H107 H 0.64109 0.95414 0.29212 0.0
H108 H 0.51985 0.88915 0.29576 0.0
H109 H 0.54399 0.85316 0.29321 0.0
H110 H 0.53882 0.97107 0.2962 0.0
H111 H 0.6651 0.78232 0.47669 0.0
H112 H 0.70815 0.78045 0.46548 0.0
H113 H 0.51827 0.93313 0.30092 0.0
H114 H 0.62026 0.99183 0.28199 0.0
N115 N 0.58743 0.89318 0.30806 0.0
C116 C 0.53878 0.89051 0.2986 0.0
C117 C 0.55235 0.87016 0.29714 0.0
C118 C 0.54987 0.91239 0.30245 0.0
C119 C 0.57454 0.91316 0.30618 0.0
C120 C 0.57678 0.87182 0.3016 0.0
N121 N 0.60993 0.93424 0.30402 0.0
C122 C 0.58617 0.93442 0.3043 0.0
C123 C 0.61045 0.97583 0.28856 0.0
C124 C 0.58601 0.97647 0.29181 0.0
C125 C 0.62219 0.95442 0.29418 0.0
C126 C 0.57353 0.95556 0.29889 0.0
H127 H 0.57695 0.99307 0.2874 0.0
O128 O 0.64254 0.90866 0.23955 0.0
O129 O 0.66275 0.88684 0.35345 0.0
O130 O 0.65588 0.91617 0.43687 0.0
O131 O 0.62398 0.92541 0.38185 0.0
O132 O 0.66259 0.91724 0.30937 0.0
O133 O 0.62226 0.8767 0.24425 0.0
O134 O 0.64558 0.86567 0.51823 0.0
O135 O 0.62346 0.88641 0.40036 0.0
O136 O 0.62817 0.85716 0.32177 0.0
O137 O 0.66063 0.84851 0.37547 0.0
O138 O 0.62162 0.85855 0.45189 0.0
O139 O 0.66677 0.89697 0.50921 0.0
C140 C 0.67588 0.90293 0.33543 0.0
C141 C 0.54891 0.95501 0.29912 0.0
C142 C 0.53715 0.93344 0.30129 0.0
C143 C 0.63275 0.89152 0.21273 0.0
C144 C 0.61994 0.89812 0.16324 0.0
C145 C 0.59837 0.90978 0.1664 0.0
C146 C 0.62929 0.8929 0.11242 0.0
C147 C 0.61698 0.89917 0.06502 0.0
C148 C 0.58619 0.91615 0.11989 0.0
C149 C 0.59537 0.91091 0.06956 0.0
C150 C 0.63892 0.93067 0.42154 0.0
C151 C 0.60938 0.87191 0.42083 0.0
C152 C 0.65684 0.8826 0.54279 0.0
C153 C 0.67084 0.87593 0.59051 0.0
C154 C 0.69302 0.86568 0.58474 0.0
C155 C 0.66202 0.87986 0.64238 0.0
C156 C 0.67533 0.87363 0.68837 0.0
C157 C 0.70621 0.85934 0.62986 0.0
C158 C 0.69749 0.86323 0.68129 0.0
C159 C 0.64442 0.84232 0.33994 0.0
H160 H 0.59092 0.91401 0.20475 0.0
H161 H 0.6459 0.88375 0.10988 0.0
H162 H 0.56959 0.92525 0.12286 0.0
H163 H 0.58566 0.91639 0.03413 0.0
H164 H 0.70017 0.86262 0.54547 0.0
H165 H 0.645 0.88806 0.64681 0.0
H166 H 0.72327 0.85132 0.62496 0.0
H167 H 0.70801 0.8578 0.71552 0.0
Gd168 Gd 0.38695 0.4053 0.7011 0.0
Gd169 Gd 0.35885 0.38267 0.57906 0.0
C170 C 0.27956 0.37263 0.58662 0.0
C171 C 0.27586 0.33024 0.57972 0.0
C172 C 0.31438 0.34866 0.57573 0.0
C173 C 0.3042 0.37067 0.58255 0.0
C174 C 0.30017 0.32835 0.5726 0.0
C175 C 0.26559 0.35231 0.5868 0.0
C176 C 0.26952 0.39499 0.58844 0.0
C177 C 0.2838 0.41472 0.58369 0.0
N178 N 0.31808 0.39017 0.58167 0.0
C179 C 0.30809 0.412 0.57944 0.0
H180 H 0.31848 0.42765 0.57592 0.0
C181 C 0.34802 0.32645 0.55315 0.0
N182 N 0.33794 0.34722 0.56853 0.0
C183 C 0.33466 0.30591 0.54994 0.0
C184 C 0.31069 0.30679 0.56055 0.0
H185 H 0.36667 0.32549 0.54662 0.0
H186 H 0.2467 0.35354 0.59059 0.0
H187 H 0.42909 0.36524 0.7263 0.0
H188 H 0.2507 0.3972 0.5917 0.0
H189 H 0.27613 0.43209 0.58353 0.0
H190 H 0.26474 0.3148 0.57814 0.0
H191 H 0.37309 0.46225 0.7149 0.0
H192 H 0.49536 0.40023 0.7342 0.0
H193 H 0.47181 0.36386 0.73967 0.0
H194 H 0.475 0.48136 0.71774 0.0
H195 H 0.34288 0.28939 0.53971 0.0
H196 H 0.30036 0.29083 0.5579 0.0
H197 H 0.49646 0.444 0.72397 0.0
H198 H 0.39312 0.50067 0.71974 0.0
N199 N 0.42803 0.40211 0.71212 0.0
C200 C 0.4765 0.401 0.72826 0.0
C201 C 0.46327 0.38045 0.7315 0.0
C202 C 0.46517 0.42238 0.71902 0.0
C203 C 0.44056 0.42241 0.71173 0.0
C204 C 0.43895 0.38134 0.72361 0.0
N205 N 0.40473 0.44274 0.70687 0.0
C206 C 0.42854 0.44341 0.70836 0.0
C207 C 0.40329 0.48472 0.71619 0.0
C208 C 0.42775 0.48577 0.7145 0.0
C209 C 0.39201 0.46293 0.71354 0.0
C210 C 0.44071 0.46496 0.71194 0.0
H211 H 0.43645 0.50267 0.71721 0.0
O212 O 0.37174 0.41835 0.77511 0.0
O213 O 0.3528 0.39235 0.66525 0.0
O214 O 0.3585 0.42287 0.58063 0.0
O215 O 0.39123 0.43208 0.63278 0.0
O216 O 0.35201 0.42354 0.70709 0.0
O217 O 0.39422 0.38791 0.77744 0.0
O218 O 0.37668 0.39711 0.50927 0.0
O219 O 0.39234 0.39261 0.61846 0.0
O220 O 0.38824 0.36434 0.70179 0.0
O221 O 0.36156 0.352 0.63559 0.0
O222 O 0.3935 0.36276 0.57151 0.0
O223 O 0.3462 0.37549 0.49775 0.0
C224 C 0.33915 0.40804 0.68322 0.0
C225 C 0.46532 0.46499 0.71556 0.0
C226 C 0.47753 0.44372 0.71917 0.0
C227 C 0.38268 0.40329 0.80561 0.0
C228 C 0.3949 0.41319 0.85323 0.0
C229 C 0.41119 0.43143 0.84698 0.0
C230 C 0.39026 0.40476 0.90526 0.0
C231 C 0.40225 0.41432 0.95025 0.0
C232 C 0.4229 0.44102 0.89122 0.0
C233 C 0.41854 0.43253 0.94249 0.0
C234 C 0.37549 0.43769 0.59504 0.0
C235 C 0.4059 0.37692 0.60093 0.0
C236 C 0.36336 0.38629 0.47446 0.0
C237 C 0.37539 0.3731 0.43158 0.0
C238 C 0.38675 0.35189 0.44359 0.0
C239 C 0.37562 0.38153 0.37836 0.0
C240 C 0.38756 0.36894 0.33805 0.0
C241 C 0.3983 0.33931 0.40382 0.0
C242 C 0.39878 0.34776 0.35147 0.0
C243 C 0.37555 0.34766 0.677 0.0
H244 H 0.41479 0.43845 0.80801 0.0
H245 H 0.37771 0.39066 0.91061 0.0
H246 H 0.4354 0.45512 0.88573 0.0
H247 H 0.4278 0.44037 0.97632 0.0
H248 H 0.38675 0.34491 0.48362 0.0
H249 H 0.367 0.39794 0.36864 0.0
H250 H 0.40697 0.32296 0.41367 0.0
H251 H 0.40788 0.33762 0.32124 0.0
Gd252 Gd 0.86447 0.14362 0.95212 0.0
Gd253 Gd 0.89036 0.12007 0.83001 0.0
C254 C 0.91256 0.0431 0.82775 0.0
C255 C 0.95511 0.04615 0.82553 0.0
C256 C 0.93109 0.08136 0.8255 0.0
C257 C 0.91098 0.0678 0.82812 0.0
C258 C 0.95336 0.07071 0.82307 0.0
C259 C 0.93474 0.03236 0.82784 0.0
C260 C 0.8918 0.02998 0.82518 0.0
C261 C 0.87027 0.04153 0.82076 0.0
N262 N 0.88985 0.07878 0.82678 0.0
C263 C 0.86964 0.06609 0.82085 0.0
H264 H 0.85289 0.07483 0.81775 0.0
C265 C 0.94775 0.11902 0.81319 0.0
N266 N 0.92869 0.10502 0.82225 0.0
C267 C 0.97025 0.10929 0.81108 0.0
C268 C 0.97309 0.08506 0.81668 0.0
H269 H 0.94566 0.13778 0.80932 0.0
H270 H 0.93631 0.01341 0.82808 0.0
H271 H 0.90362 0.18629 0.978 0.0
H272 H 0.89224 0.01096 0.82491 0.0
H273 H 0.85414 0.03155 0.81752 0.0
H274 H 0.97208 0.03762 0.82416 0.0
H275 H 0.80799 0.12692 0.95297 0.0
H276 H 0.86637 0.24531 0.03824 0.0
H277 H 0.90377 0.22574 0.01736 0.0
H278 H 0.78573 0.22432 0.01293 0.0
H279 H 0.98538 0.12047 0.80529 0.0
H280 H 0.99051 0.07756 0.81483 0.0
H281 H 0.82235 0.24538 0.03293 0.0
H282 H 0.76904 0.14447 0.96697 0.0
N283 N 0.86634 0.18392 0.97214 0.0
C284 C 0.86613 0.22848 0.01791 0.0
C285 C 0.88728 0.21735 1.00687 0.0
C286 C 0.84493 0.2176 1.00369 0.0
C287 C 0.84558 0.19493 0.98075 0.0
C288 C 0.88708 0.19494 0.98412 0.0
N289 N 0.82638 0.15943 0.95969 0.0
C290 C 0.82492 0.18259 0.97212 0.0
C291 C 0.78458 0.15542 0.96829 0.0
C292 C 0.78271 0.17932 0.97963 0.0
C293 C 0.80669 0.14556 0.96022 0.0
C294 C 0.80305 0.19302 0.98372 0.0
H295 H 0.76562 0.18676 0.98783 0.0
O296 O 0.85207 0.12533 0.02285 0.0
O297 O 0.87866 0.1114 0.91286 0.0
O298 O 0.85028 0.11819 0.82683 0.0
O299 O 0.83815 0.14848 0.88259 0.0
O300 O 0.8472 0.10794 0.95135 0.0
O301 O 0.88202 0.14842 0.02974 0.0
O302 O 0.90155 0.13447 0.75375 0.0
O303 O 0.87698 0.15216 0.87106 0.0
O304 O 0.90542 0.14618 0.95308 0.0
O305 O 0.91677 0.11597 0.89634 0.0
O306 O 0.90604 0.15702 0.82489 0.0
O307 O 0.87222 0.11025 0.75604 0.0
C308 C 0.86327 0.09657 0.92645 0.0
C309 C 0.80232 0.21611 1.00334 0.0
C310 C 0.82321 0.22815 0.01454 0.0
C311 C 0.86702 0.13545 0.05544 0.0
C312 C 0.85714 0.14552 0.10509 0.0
C313 C 0.8382 0.16113 0.10209 0.0
C314 C 0.86593 0.13898 0.15596 0.0
C315 C 0.85573 0.14813 0.20311 0.0
C316 C 0.8287 0.17092 0.1482 0.0
C317 C 0.83742 0.16457 0.19842 0.0
C318 C 0.83411 0.13343 0.8425 0.0
C319 C 0.89127 0.16758 0.85538 0.0
C320 C 0.88655 0.12204 0.72571 0.0
C321 C 0.89606 0.10942 0.67901 0.0
C322 C 0.91066 0.08988 0.68614 0.0
C323 C 0.89067 0.11703 0.62672 0.0
C324 C 0.89997 0.10526 0.58179 0.0
C325 C 0.92002 0.07823 0.64198 0.0
C326 C 0.91478 0.08585 0.59007 0.0
C327 C 0.92164 0.1315 0.93412 0.0
H328 H 0.8304 0.16547 0.06429 0.0
H329 H 0.88006 0.12632 0.15878 0.0
H330 H 0.81427 0.18319 0.145 0.0
H331 H 0.82965 0.1724 0.23373 0.0
H332 H 0.91481 0.08357 0.72567 0.0
H333 H 0.87941 0.13217 0.62109 0.0
H334 H 0.93126 0.06314 0.64801 0.0
H335 H 0.92192 0.07625 0.55638 0.0
Gd336 Gd 0.13064 0.39562 0.83712 0.0
Gd337 Gd 0.16081 0.37736 0.96068 0.0
C338 C 0.2397 0.36355 0.95611 0.0
C339 C 0.24167 0.32171 0.97436 0.0
C340 C 0.20398 0.34164 0.97145 0.0
C341 C 0.21502 0.36254 0.95933 0.0
C342 C 0.21721 0.32113 0.98063 0.0
C343 C 0.2529 0.34289 0.96202 0.0
C344 C 0.25043 0.38545 0.9496 0.0
C345 C 0.23667 0.4057 0.94918 0.0
N346 N 0.20178 0.38226 0.95558 0.0
C347 C 0.21227 0.40381 0.95326 0.0
H348 H 0.20189 0.41962 0.95286 0.0
C349 C 0.16909 0.32248 0.99759 0.0
N350 N 0.1804 0.34181 0.97815 0.0
C351 C 0.18145 0.30168 1.00708 0.0
C352 C 0.20558 0.30093 0.99795 0.0
H353 H 0.1504 0.323 1.00439 0.0
H354 H 0.27185 0.34328 0.95909 0.0
H355 H 0.09017 0.35301 0.8202 0.0
H356 H 0.26933 0.38698 0.94682 0.0
H357 H 0.24483 0.42279 0.94568 0.0
H358 H 0.25212 0.30607 0.98068 0.0
H359 H 0.14203 0.45211 0.81005 0.0
H360 H 0.02254 0.38456 0.80514 0.0
H361 H 0.04763 0.34919 0.80693 0.0
H362 H 0.03948 0.4668 0.80501 0.0
H363 H 0.17237 0.28629 0.02156 0.0
H364 H 0.21522 0.28492 1.00597 0.0
H365 H 0.01955 0.42847 0.80706 0.0
H366 H 0.12051 0.48924 0.7972 0.0
N367 N 0.08964 0.39028 0.82777 0.0
C368 C 0.04131 0.38638 0.81131 0.0
C369 C 0.05541 0.3664 0.81217 0.0
C370 C 0.0517 0.40853 0.81654 0.0
C371 C 0.07626 0.40993 0.824 0.0
C372 C 0.07964 0.36868 0.8201 0.0
N373 N 0.11122 0.43171 0.82256 0.0
C374 C 0.08744 0.4314 0.82175 0.0
C375 C 0.11098 0.47312 0.80435 0.0
C376 C 0.08652 0.47327 0.80623 0.0
C377 C 0.12311 0.45202 0.81151 0.0
C378 C 0.0744 0.45216 0.81365 0.0
H379 H 0.07715 0.48959 0.80001 0.0
O380 O 0.14423 0.40618 0.75942 0.0
O381 O 0.16554 0.38546 0.87319 0.0
O382 O 0.1592 0.4174 0.95435 0.0
O383 O 0.12684 0.42529 0.89985 0.0
O384 O 0.16446 0.4154 0.82708 0.0
O385 O 0.12563 0.37336 0.76664 0.0
O386 O 0.14935 0.3689 0.04151 0.0
O387 O 0.12681 0.38657 0.92221 0.0
O388 O 0.1304 0.35481 0.8478 0.0
O389 O 0.16204 0.34633 0.90455 0.0
O390 O 0.12528 0.36003 0.97745 0.0
O391 O 0.17075 0.39968 0.02811 0.0
C392 C 0.17821 0.40143 0.85282 0.0
C393 C 0.04981 0.45102 0.81062 0.0
C394 C 0.03846 0.42921 0.81183 0.0
C395 C 0.13532 0.38823 0.73392 0.0
C396 C 0.12216 0.39354 0.684 0.0
C397 C 0.09967 0.40337 0.68656 0.0
C398 C 0.1321 0.38909 0.63339 0.0
C399 C 0.11947 0.39425 0.5857 0.0
C400 C 0.08716 0.40862 0.63978 0.0
C401 C 0.09692 0.40412 0.58972 0.0
C402 C 0.14239 0.4318 0.93748 0.0
C403 C 0.11293 0.37262 0.94495 0.0
C404 C 0.16106 0.3861 0.0637 0.0
C405 C 0.17555 0.38008 0.11114 0.0
C406 C 0.19857 0.37193 0.10493 0.0
C407 C 0.16636 0.38245 0.16315 0.0
C408 C 0.18013 0.37677 0.20882 0.0
C409 C 0.2122 0.36606 0.14972 0.0
C410 C 0.20311 0.36842 0.20127 0.0
C411 C 0.14563 0.33963 0.86982 0.0
H412 H 0.09177 0.40707 0.72462 0.0
H413 H 0.14946 0.38141 0.63123 0.0
H414 H 0.06985 0.41631 0.64236 0.0
H415 H 0.08692 0.40875 0.55406 0.0
H416 H 0.20607 0.37017 0.06556 0.0
H417 H 0.14867 0.38904 0.16796 0.0
H418 H 0.2299 0.35964 0.14446 0.0
H419 H 0.21402 0.36345 0.23523 0.0
Gd420 Gd 0.88421 0.90061 0.19959 0.0
Gd421 Gd 0.8619 0.87971 0.07113 0.0
C422 C 0.78228 0.87083 0.08711 0.0
C423 C 0.7784 0.82903 0.10304 0.0
C424 C 0.81689 0.84618 0.08695 0.0
C425 C 0.80686 0.86818 0.08284 0.0
C426 C 0.80257 0.82623 0.09496 0.0
C427 C 0.76826 0.8513 0.09907 0.0
C428 C 0.77239 0.89289 0.07777 0.0
C429 C 0.78677 0.91138 0.06219 0.0
N430 N 0.82086 0.88676 0.0713 0.0
C431 C 0.81097 0.90792 0.05838 0.0
H432 H 0.82142 0.92238 0.04502 0.0
C433 C 0.84941 0.82209 0.06842 0.0
N434 N 0.84022 0.84399 0.07768 0.0
C435 C 0.83608 0.80186 0.07695 0.0
C436 C 0.81268 0.80394 0.0917 0.0
H437 H 0.86729 0.81992 0.05524 0.0
H438 H 0.74945 0.85312 0.10344 0.0
H439 H 0.92129 0.85557 0.21529 0.0
H440 H 0.75364 0.89563 0.08074 0.0
H441 H 0.77923 0.92835 0.05303 0.0
H442 H 0.76724 0.81396 0.11009 0.0
H443 H 0.87667 0.95747 0.2289 0.0
H444 H 0.99122 0.88244 0.2278 0.0
H445 H 0.9637 0.84881 0.2269 0.0
H446 H 0.98005 0.9657 0.22818 0.0
H447 H 0.84384 0.78468 0.07162 0.0
H448 H 0.8023 0.78823 0.09764 0.0
H449 H 0.99726 0.92611 0.22549 0.0
H450 H 0.9008 0.9933 0.24143 0.0
N451 N 0.92458 0.89263 0.2083 0.0
C452 C 0.97258 0.88551 0.22249 0.0
C453 C 0.95709 0.8665 0.22216 0.0
C454 C 0.96373 0.90831 0.21775 0.0
C455 C 0.93929 0.91135 0.21141 0.0
C456 C 0.93302 0.8704 0.21519 0.0
N457 N 0.90594 0.93549 0.21283 0.0
C458 C 0.92965 0.93357 0.21296 0.0
C459 C 0.90914 0.97665 0.23296 0.0
C460 C 0.93353 0.97525 0.22928 0.0
C461 C 0.89556 0.95638 0.22596 0.0
C462 C 0.94413 0.95342 0.22077 0.0
H463 H 0.94404 0.99092 0.23542 0.0
O464 O 0.8689 0.91337 0.27406 0.0
O465 O 0.85158 0.88796 0.15665 0.0
O466 O 0.86032 0.91945 0.07205 0.0
O467 O 0.88658 0.93111 0.13927 0.0
O468 O 0.8499 0.91969 0.19782 0.0
O469 O 0.88974 0.88192 0.27466 0.0
O470 O 0.87011 0.85823 1.00153 0.0
O471 O 0.89428 0.88489 0.1217 0.0
O472 O 0.87763 0.86074 0.20114 0.0
O473 O 0.88191 0.85034 0.11193 0.0
O474 O 0.89676 0.89445 0.04262 0.0
O475 O 0.85565 0.89307 0.9907 0.0
C476 C 0.8377 0.90407 0.17235 0.0
C477 C 0.96861 0.95063 0.22295 0.0
C478 C 0.97841 0.92809 0.22154 0.0
C479 C 0.87842 0.8971 0.30353 0.0
C480 C 0.89012 0.9048 0.35365 0.0
C481 C 0.91118 0.91749 0.35207 0.0
C482 C 0.88037 0.89912 0.40366 0.0
C483 C 0.89156 0.90622 0.45192 0.0
C484 C 0.92234 0.92459 0.39951 0.0
C485 C 0.91265 0.91903 0.4491 0.0
C486 C 0.87369 0.93557 0.09562 0.0
C487 C 0.90812 0.89336 0.08737 0.0
C488 C 0.86251 0.8738 0.96732 0.0
C489 C 0.84789 0.86533 0.92224 0.0
C490 C 0.8278 0.85171 0.93082 0.0
C491 C 0.85412 0.87134 0.86961 0.0
C492 C 0.84044 0.8638 0.8253 0.0
C493 C 0.81418 0.84404 0.88717 0.0
C494 C 0.82042 0.84999 0.83475 0.0
C495 C 0.88075 0.84467 0.1632 0.0
H496 H 0.91911 0.92178 0.3143 0.0
H497 H 0.86403 0.88937 0.40488 0.0
H498 H 0.93865 0.9343 0.39785 0.0
H499 H 0.92194 0.92441 0.48529 0.0
H500 H 0.82262 0.84705 0.97107 0.0
H501 H 0.86979 0.88174 0.86326 0.0
H502 H 0.79865 0.83355 0.89398 0.0
H503 H 0.80934 0.84411 0.80173 0.0
Gd504 Gd 0.37788 0.64748 0.444 0.0
Gd505 Gd 0.39683 0.62152 0.31865 0.0
C506 C 0.40505 0.54172 0.3233 0.0
C507 C 0.44695 0.53698 0.31056 0.0
C508 C 0.42966 0.576 0.31177 0.0
C509 C 0.40778 0.56633 0.32091 0.0
C510 C 0.44927 0.56135 0.30415 0.0
C511 C 0.42487 0.52718 0.32039 0.0
C512 C 0.38237 0.53237 0.32515 0.0
C513 C 0.36311 0.54738 0.32136 0.0
N514 N 0.38887 0.58081 0.32083 0.0
C515 C 0.36668 0.57164 0.31839 0.0
H516 H 0.35152 0.58287 0.31575 0.0
C517 C 0.45142 0.60941 0.28554 0.0
N518 N 0.43124 0.59957 0.30459 0.0
C519 C 0.47126 0.59554 0.27704 0.0
C520 C 0.47027 0.57146 0.28715 0.0
H521 H 0.45224 0.62809 0.27813 0.0
H522 H 0.42314 0.50827 0.32293 0.0
H523 H 0.42128 0.68781 0.45369 0.0
H524 H 0.37954 0.51358 0.32709 0.0
H525 H 0.34548 0.54029 0.32098 0.0
H526 H 0.46192 0.52548 0.30568 0.0
H527 H 0.32088 0.63547 0.46031 0.0
H528 H 0.39242 0.74967 0.52231 0.0
H529 H 0.42656 0.72734 0.49009 0.0
H530 H 0.30998 0.7342 0.52578 0.0
H531 H 0.48719 0.60337 0.26217 0.0
H532 H 0.48544 0.56059 0.27942 0.0
H533 H 0.34889 0.75252 0.53321 0.0
H534 H 0.28462 0.65601 0.48588 0.0
N535 N 0.384 0.68773 0.46117 0.0
C536 C 0.38978 0.73254 0.50419 0.0
C537 C 0.40911 0.71995 0.48637 0.0
C538 C 0.36728 0.72298 0.49829 0.0
C539 C 0.36487 0.70028 0.47604 0.0
C540 C 0.40593 0.69741 0.46534 0.0
N541 N 0.34194 0.66642 0.4612 0.0
C542 C 0.34303 0.6896 0.47377 0.0
C543 C 0.30088 0.6657 0.48239 0.0
C544 C 0.30156 0.68965 0.49404 0.0
C545 C 0.32146 0.65416 0.4677 0.0
C546 C 0.32294 0.70169 0.49184 0.0
H547 H 0.28576 0.69838 0.50731 0.0
O548 O 0.36706 0.63108 0.51849 0.0
O549 O 0.38868 0.6136 0.40493 0.0
O550 O 0.35701 0.62423 0.32009 0.0
O551 O 0.34856 0.65386 0.38112 0.0
O552 O 0.35808 0.61327 0.44817 0.0
O553 O 0.3991 0.65132 0.51695 0.0
O554 O 0.40866 0.63282 0.23995 0.0
O555 O 0.3868 0.6549 0.35996 0.0
O556 O 0.41874 0.64775 0.43615 0.0
O557 O 0.42739 0.61815 0.37522 0.0
O558 O 0.41395 0.65791 0.30793 0.0
O559 O 0.3761 0.61361 0.24716 0.0
C560 C 0.37264 0.6002 0.42273 0.0
C561 C 0.32515 0.72471 0.51142 0.0
C562 C 0.34733 0.73512 0.51576 0.0
C563 C 0.3843 0.63992 0.54677 0.0
C564 C 0.37793 0.65101 0.59836 0.0
C565 C 0.36053 0.66834 0.60006 0.0
C566 C 0.3887 0.64387 0.6467 0.0
C567 C 0.38239 0.65446 0.69583 0.0
C568 C 0.35471 0.67933 0.64807 0.0
C569 C 0.36561 0.67253 0.69574 0.0
C570 C 0.34248 0.64014 0.33971 0.0
C571 C 0.40084 0.66969 0.34025 0.0
C572 C 0.39165 0.62211 0.21443 0.0
C573 C 0.39858 0.60672 0.16951 0.0
C574 C 0.40509 0.58338 0.1791 0.0
C575 C 0.39869 0.61526 0.1166 0.0
C576 C 0.40543 0.60054 0.07368 0.0
C577 C 0.41234 0.56894 0.13725 0.0
C578 C 0.41264 0.57743 0.08491 0.0
C579 C 0.43394 0.63322 0.41264 0.0
H580 H 0.35099 0.67305 0.56469 0.0
H581 H 0.40169 0.62999 0.6462 0.0
H582 H 0.34129 0.69276 0.64847 0.0
H583 H 0.36018 0.68075 0.7329 0.0
H584 H 0.40442 0.57618 0.21875 0.0
H585 H 0.39305 0.63311 0.1089 0.0
H586 H 0.4176 0.55103 0.1454 0.0
H587 H 0.41849 0.56585 0.0532 0.0
Gd588 Gd 0.62744 0.12625 0.70952 0.0
Gd589 Gd 0.64192 0.14359 0.57513 0.0
C590 C 0.71676 0.11803 0.53976 0.0
C591 C 0.74063 0.14919 0.57861 0.0
C592 C 0.69795 0.15177 0.58004 0.0
C593 C 0.69622 0.13016 0.55492 0.0
C594 C 0.72023 0.16177 0.59099 0.0
C595 C 0.7389 0.12734 0.55309 0.0
C596 C 0.7145 0.09732 0.50992 0.0
C597 C 0.69229 0.08998 0.49305 0.0
N598 N 0.67454 0.12163 0.54264 0.0
C599 C 0.67254 0.10275 0.50838 0.0
H600 H 0.65569 0.09736 0.49223 0.0
C601 C 0.67906 0.18581 0.61172 0.0
N602 N 0.6779 0.16323 0.59297 0.0
C603 C 0.70067 0.19645 0.62312 0.0
C604 C 0.72136 0.18423 0.61363 0.0
H605 H 0.66357 0.19617 0.61685 0.0
H606 H 0.7548 0.11809 0.54246 0.0
H607 H 0.58657 0.16846 0.72534 0.0
H608 H 0.72981 0.08751 0.49758 0.0
H609 H 0.69038 0.07466 0.4675 0.0
H610 H 0.75783 0.15643 0.58759 0.0
H611 H 0.64158 0.07179 0.754 0.0
H612 H 0.51996 0.13474 0.73486 0.0
H613 H 0.54377 0.17088 0.73527 0.0
H614 H 0.53953 0.05301 0.74476 0.0
H615 H 0.70131 0.2142 0.63876 0.0
H616 H 0.73809 0.1925 0.62261 0.0
H617 H 0.51863 0.09031 0.73186 0.0
H618 H 0.62104 0.03441 0.77204 0.0
N619 N 0.5871 0.13109 0.72096 0.0
C620 C 0.53882 0.13341 0.73257 0.0
C621 C 0.55222 0.15392 0.73243 0.0
C622 C 0.55 0.11154 0.73077 0.0
C623 C 0.5746 0.11096 0.72682 0.0
C624 C 0.57653 0.15246 0.72639 0.0
N625 N 0.61032 0.09016 0.73303 0.0
C626 C 0.58652 0.08985 0.73237 0.0
C627 C 0.61114 0.04981 0.76041 0.0
C628 C 0.58675 0.04858 0.75459 0.0
C629 C 0.62269 0.07102 0.75066 0.0
C630 C 0.57408 0.06889 0.74179 0.0
H631 H 0.57782 0.03213 0.76212 0.0
O632 O 0.65239 0.13775 0.77131 0.0
O633 O 0.65724 0.13782 0.65804 0.0
O634 O 0.63549 0.10468 0.57173 0.0
O635 O 0.62784 0.09241 0.65907 0.0
O636 O 0.66106 0.10645 0.69996 0.0
O637 O 0.61776 0.12786 0.79421 0.0
O638 O 0.63545 0.17572 0.53012 0.0
O639 O 0.61185 0.14005 0.63285 0.0
O640 O 0.62787 0.16634 0.70601 0.0
O641 O 0.62701 0.17584 0.61504 0.0
O642 O 0.60632 0.12749 0.55577 0.0
O643 O 0.64022 0.1427 0.48711 0.0
C644 C 0.67192 0.12175 0.67098 0.0
C645 C 0.54947 0.06908 0.73983 0.0
C646 C 0.5375 0.09037 0.73357 0.0
C647 C 0.6384 0.13418 0.81109 0.0
C648 C 0.64808 0.1214 0.85785 0.0
C649 C 0.66191 0.10134 0.85042 0.0
C650 C 0.64365 0.12942 0.91046 0.0
C651 C 0.6529 0.1174 0.95561 0.0
C652 C 0.67083 0.08918 0.89465 0.0
C653 C 0.66633 0.09703 0.94674 0.0
C654 C 0.63095 0.08822 0.60718 0.0
C655 C 0.59664 0.1303 0.602 0.0
C656 C 0.63623 0.16508 0.48387 0.0
C657 C 0.63292 0.17759 0.43214 0.0
C658 C 0.62698 0.20152 0.43273 0.0
C659 C 0.63507 0.16592 0.38215 0.0
C660 C 0.63094 0.17804 0.33344 0.0
C661 C 0.62306 0.21356 0.38483 0.0
C662 C 0.62495 0.20197 0.33564 0.0
C663 C 0.62603 0.18171 0.66637 0.0
H664 H 0.66589 0.09512 0.81043 0.0
H665 H 0.63338 0.14522 0.91597 0.0
H666 H 0.68131 0.07358 0.88854 0.0
H667 H 0.67327 0.08696 0.98009 0.0
H668 H 0.6252 0.21096 0.47031 0.0
H669 H 0.63956 0.14744 0.38111 0.0
H670 H 0.61851 0.232 0.38583 0.0
H671 H 0.62203 0.21188 0.29913 0.0
Gd672 Gd 0.89739 0.39123 0.81743 0.0
Gd673 Gd 0.88093 0.37538 0.95155 0.0
C674 C 0.86751 0.29757 0.97256 0.0
C675 C 0.82506 0.29642 0.9806 0.0
C676 C 0.84539 0.33377 0.97473 0.0
C677 C 0.86663 0.32219 0.96911 0.0
C678 C 0.82461 0.321 0.98377 0.0
C679 C 0.84647 0.28481 0.97406 0.0
C680 C 0.88948 0.28664 0.97481 0.0
C681 C 0.90982 0.30032 0.97511 0.0
N682 N 0.88657 0.33501 0.96354 0.0
C683 C 0.90805 0.32466 0.96922 0.0
H684 H 0.92394 0.33486 0.9687 0.0
C685 C 0.82626 0.36954 0.99421 0.0
N686 N 0.84541 0.35754 0.97593 0.0
C687 C 0.80527 0.35763 1.0041 0.0
C688 C 0.80425 0.3333 0.99728 0.0
H689 H 0.82681 0.38841 0.99813 0.0
H690 H 0.84661 0.266 0.9706 0.0
H691 H 0.85123 0.41 0.73909 0.0
H692 H 0.891 0.26776 0.9771 0.0
H693 H 0.92687 0.29207 0.97826 0.0
H694 H 0.80911 0.28624 0.98469 0.0
H695 H 0.95286 0.40894 0.85188 0.0
H696 H 0.84584 0.48433 0.75473 0.0
H697 H 0.83026 0.44658 0.72047 0.0
H698 H 0.9176 0.50575 0.84301 0.0
H699 H 0.78985 0.36726 0.01634 0.0
H700 H 0.78795 0.3241 1.00464 0.0
H701 H 0.87845 0.50621 0.80071 0.0
H702 H 0.97327 0.44479 0.87819 0.0
N703 N 0.87721 0.42597 0.79013 0.0
C704 C 0.85491 0.46814 0.7643 0.0
C705 C 0.84602 0.44689 0.74512 0.0
C706 C 0.87615 0.46836 0.79281 0.0
C707 C 0.88726 0.44675 0.80435 0.0
C708 C 0.8578 0.42602 0.75702 0.0
N709 N 0.91984 0.42548 0.8368 0.0
C710 C 0.90928 0.4465 0.82809 0.0
C711 C 0.95506 0.44555 0.8654 0.0
C712 C 0.94373 0.46709 0.86109 0.0
C713 C 0.943 0.42494 0.85195 0.0
C714 C 0.92077 0.46785 0.84096 0.0
H715 H 0.95314 0.48306 0.87136 0.0
O716 O 0.92756 0.38686 0.76529 0.0
O717 O 0.89427 0.36063 0.87442 0.0
O718 O 0.92121 0.37555 0.94696 0.0
O719 O 0.92981 0.37478 0.85567 0.0
O720 O 0.88092 0.35591 0.79759 0.0
O721 O 0.89284 0.38791 0.73075 0.0
O722 O 0.89522 0.39967 1.01153 0.0
O723 O 0.89107 0.40584 0.90032 0.0
O724 O 0.85806 0.38674 0.81507 0.0
O725 O 0.84666 0.37526 0.9007 0.0
O726 O 0.85968 0.40808 0.94177 0.0
O727 O 0.88031 0.3673 0.03737 0.0
C728 C 0.88402 0.34591 0.84345 0.0
C729 C 0.9092 0.48927 0.83245 0.0
C730 C 0.88691 0.48952 0.80846 0.0
C731 C 0.91515 0.38776 0.72107 0.0
C732 C 0.92309 0.40381 0.67817 0.0
C733 C 0.93751 0.42311 0.69076 0.0
C734 C 0.91569 0.40026 0.62426 0.0
C735 C 0.9225 0.41601 0.58346 0.0
C736 C 0.94461 0.43846 0.6506 0.0
C737 C 0.93723 0.43499 0.59753 0.0
C738 C 0.93634 0.37372 0.90691 0.0
C739 C 0.87436 0.41969 0.91288 0.0
C740 C 0.8892 0.38721 0.05259 0.0
C741 C 0.877 0.39969 0.0964 0.0
C742 C 0.85747 0.41375 0.08442 0.0
C743 C 0.88499 0.39798 0.15027 0.0
C744 C 0.8736 0.41054 0.19164 0.0
C745 C 0.84583 0.42567 0.12514 0.0
C746 C 0.85376 0.42411 0.1782 0.0
C747 C 0.84185 0.3804 0.8496 0.0
H748 H 0.9433 0.4264 0.73166 0.0
H749 H 0.90423 0.38562 0.61444 0.0
H750 H 0.95583 0.45321 0.66069 0.0
H751 H 0.94319 0.4472 0.56732 0.0
H752 H 0.85128 0.41566 0.0435 0.0
H753 H 0.90033 0.38748 0.15963 0.0
H754 H 0.83068 0.43636 0.11548 0.0
H755 H 0.84432 0.43362 0.20889 0.0
Gd756 Gd 0.37006 0.13771 0.57807 0.0
Gd757 Gd 0.39331 0.11331 0.70199 0.0
C758 C 0.46661 0.09155 0.75525 0.0
C759 C 0.46362 0.04901 0.75727 0.0
C760 C 0.43075 0.07256 0.72529 0.0
C761 C 0.44384 0.09284 0.73269 0.0
C762 C 0.44049 0.05041 0.73773 0.0
C763 C 0.47644 0.06954 0.76719 0.0
C764 C 0.47831 0.11245 0.76799 0.0
C765 C 0.46788 0.13393 0.75586 0.0
N766 N 0.43358 0.11392 0.72272 0.0
C767 C 0.44535 0.13436 0.73334 0.0
H768 H 0.4372 0.15113 0.72618 0.0
C769 C 0.39324 0.05542 0.71271 0.0
N770 N 0.40768 0.0747 0.71221 0.0
C771 C 0.4024 0.03303 0.7218 0.0
C772 C 0.42619 0.03048 0.73401 0.0
H773 H 0.3747 0.05719 0.70452 0.0
H774 H 0.49371 0.06817 0.78547 0.0
H775 H 0.32497 0.09977 0.57057 0.0
H776 H 0.49515 0.11222 0.78845 0.0
H777 H 0.4769 0.15018 0.76534 0.0
H778 H 0.47131 0.0322 0.76755 0.0
H779 H 0.387 0.19262 0.54973 0.0
H780 H 0.26095 0.13878 0.57776 0.0
H781 H 0.28172 0.10074 0.57243 0.0
H782 H 0.28694 0.21872 0.56774 0.0
H783 H 0.39101 0.01782 0.72048 0.0
H784 H 0.4331 0.01319 0.74282 0.0
H785 H 0.26309 0.1829 0.57678 0.0
H786 H 0.36932 0.23216 0.54218 0.0
N787 N 0.32875 0.13686 0.57653 0.0
C788 C 0.27996 0.13847 0.57715 0.0
C789 C 0.29161 0.11697 0.57389 0.0
C790 C 0.29295 0.15934 0.57726 0.0
C791 C 0.31764 0.15793 0.57657 0.0
C792 C 0.31615 0.1165 0.57277 0.0
N793 N 0.35459 0.17575 0.56653 0.0
C794 C 0.33098 0.17806 0.57092 0.0
C795 C 0.35835 0.21709 0.55038 0.0
C796 C 0.33421 0.2199 0.55716 0.0
C797 C 0.36829 0.19471 0.55442 0.0
C798 C 0.32013 0.2002 0.56666 0.0
H799 H 0.32655 0.23725 0.55378 0.0
O800 O 0.38348 0.14831 0.50036 0.0
O801 O 0.40215 0.12466 0.62032 0.0
O802 O 0.39659 0.15439 0.70034 0.0
O803 O 0.36708 0.16571 0.64091 0.0
O804 O 0.4073 0.15289 0.57154 0.0
O805 O 0.36002 0.11849 0.50586 0.0
O806 O 0.37552 0.10186 0.77405 0.0
O807 O 0.36105 0.12768 0.6622 0.0
O808 O 0.36841 0.09748 0.57746 0.0
O809 O 0.3989 0.08638 0.63414 0.0
O810 O 0.35736 0.0966 0.70228 0.0
O811 O 0.3988 0.13186 0.77786 0.0
C812 C 0.41777 0.13849 0.60358 0.0
C813 C 0.29561 0.20184 0.57043 0.0
C814 C 0.28204 0.18144 0.57569 0.0
C815 C 0.37106 0.13277 0.47394 0.0
C816 C 0.35754 0.14156 0.42738 0.0
C817 C 0.33653 0.15382 0.43498 0.0
C818 C 0.36558 0.13773 0.3749 0.0
C819 C 0.35268 0.1462 0.33026 0.0
C820 C 0.32386 0.16251 0.39127 0.0
C821 C 0.33187 0.15884 0.33926 0.0
C822 C 0.38239 0.17074 0.67924 0.0
C823 C 0.34598 0.11273 0.67721 0.0
C824 C 0.38598 0.11722 0.80505 0.0
C825 C 0.39632 0.1081 0.85545 0.0
C826 C 0.41083 0.08825 0.85486 0.0
C827 C 0.39121 0.11882 0.90492 0.0
C828 C 0.4009 0.10993 0.95312 0.0
C829 C 0.42098 0.07979 0.90205 0.0
C830 C 0.41614 0.09057 0.95094 0.0
C831 C 0.38404 0.0817 0.59383 0.0
H832 H 0.32984 0.15665 0.47455 0.0
H833 H 0.38158 0.12785 0.36893 0.0
H834 H 0.30776 0.17213 0.39775 0.0
H835 H 0.32181 0.16606 0.30609 0.0
H836 H 0.41395 0.07892 0.81826 0.0
H837 H 0.37957 0.13385 0.90593 0.0
H838 H 0.43222 0.06449 0.90083 0.0
H839 H 0.42361 0.08316 0.98731 0.0
Gd840 Gd 0.65904 0.63548 0.43976 0.0
Gd841 Gd 0.63171 0.61118 0.31874 0.0
C842 C 0.55317 0.59598 0.30562 0.0
C843 C 0.55207 0.55339 0.31001 0.0
C844 C 0.58939 0.57408 0.31351 0.0
C845 C 0.57783 0.59534 0.31029 0.0
C846 C 0.5767 0.55282 0.31162 0.0
C847 C 0.54035 0.57497 0.30727 0.0
C848 C 0.54217 0.61769 0.29818 0.0
C849 C 0.55578 0.63794 0.2939 0.0
N850 N 0.59077 0.61534 0.30897 0.0
C851 C 0.58019 0.63642 0.29891 0.0
H852 H 0.59035 0.65229 0.29573 0.0
C853 C 0.62542 0.55369 0.30854 0.0
N854 N 0.61318 0.5742 0.31427 0.0
C855 C 0.61362 0.53215 0.30702 0.0
C856 C 0.58915 0.53168 0.30941 0.0
H857 H 0.64434 0.55393 0.30689 0.0
H858 H 0.52143 0.57523 0.30511 0.0
H859 H 0.70161 0.59316 0.44688 0.0
H860 H 0.52327 0.61899 0.2949 0.0
H861 H 0.54748 0.65478 0.28726 0.0
H862 H 0.54195 0.53727 0.30936 0.0
H863 H 0.64673 0.6927 0.46527 0.0
H864 H 0.76786 0.62754 0.4377 0.0
H865 H 0.74439 0.59119 0.4435 0.0
H866 H 0.74865 0.70902 0.44776 0.0
H867 H 0.6234 0.51593 0.30398 0.0
H868 H 0.58004 0.51498 0.30789 0.0
H869 H 0.76924 0.67139 0.43881 0.0
H870 H 0.66818 0.73014 0.47285 0.0
N871 N 0.70008 0.63054 0.44053 0.0
C872 C 0.74889 0.62862 0.43894 0.0
C873 C 0.73571 0.60807 0.44234 0.0
C874 C 0.73752 0.65036 0.43944 0.0
C875 C 0.71275 0.65085 0.44086 0.0
C876 C 0.71124 0.60935 0.44412 0.0
N877 N 0.67731 0.67232 0.45024 0.0
C878 C 0.7011 0.67225 0.44609 0.0
C879 C 0.67763 0.714 0.46535 0.0
C880 C 0.7019 0.71442 0.45868 0.0
C881 C 0.66557 0.69268 0.46175 0.0
C882 C 0.71398 0.6934 0.4497 0.0
H883 H 0.71119 0.73099 0.46157 0.0
O884 O 0.6401 0.62178 0.50871 0.0
O885 O 0.62536 0.62519 0.40055 0.0
O886 O 0.6314 0.65168 0.31569 0.0
O887 O 0.65961 0.66396 0.37829 0.0
O888 O 0.62448 0.65566 0.4452 0.0
O889 O 0.6722 0.64074 0.52149 0.0
O890 O 0.64624 0.59726 0.24481 0.0
O891 O 0.66581 0.62374 0.35512 0.0
O892 O 0.66105 0.59575 0.43773 0.0
O893 O 0.62784 0.58549 0.38855 0.0
O894 O 0.66648 0.59243 0.31394 0.0
O895 O 0.6248 0.62843 0.24209 0.0
C896 C 0.61185 0.64134 0.41667 0.0
C897 C 0.73852 0.69293 0.44561 0.0
C898 C 0.75024 0.67148 0.44045 0.0
C899 C 0.65425 0.63101 0.54418 0.0
C900 C 0.64323 0.64455 0.58794 0.0
C901 C 0.6323 0.66602 0.5765 0.0
C902 C 0.64333 0.6361 0.64121 0.0
C903 C 0.63218 0.649 0.68229 0.0
C904 C 0.62163 0.67895 0.61697 0.0
C905 C 0.62152 0.67055 0.66942 0.0
C906 C 0.64536 0.66798 0.33738 0.0
C907 C 0.67941 0.6077 0.33844 0.0
C908 C 0.63581 0.61259 0.2141 0.0
C909 C 0.62324 0.60306 0.16653 0.0
C910 C 0.60646 0.58529 0.17285 0.0
C911 C 0.62793 0.61154 0.1145 0.0
C912 C 0.61546 0.60253 0.06958 0.0
C913 C 0.5943 0.57622 0.12863 0.0
C914 C 0.59867 0.58479 0.07739 0.0
C915 C 0.64391 0.58082 0.42608 0.0
H916 H 0.63192 0.67283 0.53627 0.0
H917 H 0.65153 0.61941 0.65035 0.0
H918 H 0.6133 0.69554 0.6076 0.0
H919 H 0.6131 0.681 0.70013 0.0
H920 H 0.60277 0.57829 0.21189 0.0
H921 H 0.64083 0.62531 0.10914 0.0
H922 H 0.5814 0.56249 0.13412 0.0
H923 H 0.58898 0.57743 0.04362 0.0
Gd924 Gd 0.12563 0.89769 0.19211 0.0
Gd925 Gd 0.13928 0.88257 0.05644 0.0
C926 C 0.14456 0.80425 0.02358 0.0
C927 C 0.18616 0.79942 1.00664 0.0
C928 C 0.17026 0.83823 0.02461 0.0
C929 C 0.14809 0.82853 0.03138 0.0
C930 C 0.1893 0.82381 1.01004 0.0
C931 C 0.16386 0.7897 0.01372 0.0
C932 C 0.12167 0.79537 0.02498 0.0
C933 C 0.10292 0.81067 0.03245 0.0
N934 N 0.12977 0.8429 0.04286 0.0
C935 C 0.10729 0.83453 0.04127 0.0
H936 H 0.09254 0.84595 0.04694 0.0
C937 C 0.19315 0.8724 1.01176 0.0
N938 N 0.17285 0.86188 0.02842 0.0
C939 C 0.2125 0.85883 0.99734 0.0
C940 C 0.21072 0.83439 0.99753 0.0
H941 H 0.19487 0.89127 0.01294 0.0
H942 H 0.16161 0.77097 1.01059 0.0
H943 H 0.1751 0.91236 0.26587 0.0
H944 H 0.11818 0.77685 0.0194 0.0
H945 H 0.0851 0.80406 0.03229 0.0
H946 H 0.20071 0.78798 0.99696 0.0
H947 H 0.07099 0.91925 0.16656 0.0
H948 H 0.18516 0.98631 0.25513 0.0
H949 H 0.19897 0.94722 0.28403 0.0
H950 H 0.11281 0.01353 0.17962 0.0
H951 H 0.2288 0.86722 0.98636 0.0
H952 H 0.22574 0.8239 0.98621 0.0
H953 H 0.15296 0.01086 0.21599 0.0
H954 H 0.05236 0.95674 0.14666 0.0
N955 N 0.14892 0.9306 0.21976 0.0
C956 C 0.17476 0.97088 0.24557 0.0
C957 C 0.18265 0.94887 0.26171 0.0
C958 C 0.15287 0.97285 0.22022 0.0
C959 C 0.14002 0.95217 0.20852 0.0
C960 C 0.16916 0.92896 0.24995 0.0
N961 N 0.10529 0.93354 0.17864 0.0
C962 C 0.11746 0.95369 0.18789 0.0
C963 C 0.07085 0.95617 0.15699 0.0
C964 C 0.08369 0.97689 0.16182 0.0
C965 C 0.08183 0.93466 0.1667 0.0
C966 C 0.10713 0.9759 0.1787 0.0
H967 H 0.07513 0.99356 0.15441 0.0
O968 O 0.09558 0.89075 0.2426 0.0
O969 O 0.1264 0.86741 0.13322 0.0
O970 O 0.09929 0.8869 0.0636 0.0
O971 O 0.09205 0.88387 0.15497 0.0
O972 O 0.14065 0.86143 0.20884 0.0
O973 O 0.12949 0.89666 0.2793 0.0
O974 O 0.1306 0.9091 0.99637 0.0
O975 O 0.1308 0.91327 0.10947 0.0
O976 O 0.16424 0.88957 0.1925 0.0
O977 O 0.17412 0.88008 0.10446 0.0
O978 O 0.16204 0.91436 0.06662 0.0
O979 O 0.13405 0.87335 0.97189 0.0
C980 C 0.13624 0.85189 0.16272 0.0
C981 C 0.12033 0.99639 0.18743 0.0
C982 C 0.14319 0.99487 0.20803 0.0
C983 C 0.10727 0.89337 0.2874 0.0
C984 C 0.09636 0.90733 0.33066 0.0
C985 C 0.07734 0.92226 0.31987 0.0
C986 C 0.1044 0.90473 0.38408 0.0
C987 C 0.09323 0.91647 0.42693 0.0
C988 C 0.06622 0.93398 0.36172 0.0
C989 C 0.07388 0.93098 0.41472 0.0
C990 C 0.0847 0.88476 0.10453 0.0
C991 C 0.14794 0.9266 0.09603 0.0
C992 C 0.13102 0.89475 0.95601 0.0
C993 C 0.14458 0.90213 0.90883 0.0
C994 C 0.16727 0.91137 0.91523 0.0
C995 C 0.13493 0.89972 0.85677 0.0
C996 C 0.1482 0.90581 0.81142 0.0
C997 C 0.18059 0.91709 0.87041 0.0
C998 C 0.17122 0.91415 0.81876 0.0
C999 C 0.17967 0.88352 0.15593 0.0
H1000 H 0.07079 0.92463 0.27927 0.0
H1001 H 0.11938 0.89352 0.39191 0.0
H1002 H 0.05135 0.94522 0.35313 0.0
H1003 H 0.06425 0.93979 0.44609 0.0
H1004 H 0.17464 0.9143 0.95485 0.0
H1005 H 0.11722 0.89304 0.85151 0.0
H1006 H 0.19815 0.92403 0.87573 0.0
H1007 H 0.18172 0.91903 0.78453 0.0
Gd1008 Gd 0.86217 0.63516 0.07215 0.0
Gd1009 Gd 0.88836 0.61341 0.19476 0.0
C1010 C 0.96667 0.59857 0.21101 0.0
C1011 C 0.96745 0.55595 0.21232 0.0
C1012 C 0.93015 0.57664 0.20643 0.0
C1013 C 0.94195 0.59805 0.2058 0.0
C1014 C 0.94282 0.55545 0.21142 0.0
C1015 C 0.97934 0.57746 0.21218 0.0
C1016 C 0.97788 0.62025 0.21767 0.0
C1017 C 0.96445 0.64059 0.22174 0.0
N1018 N 0.92926 0.6183 0.20514 0.0
C1019 C 0.94004 0.63926 0.21638 0.0
H1020 H 0.9302 0.65523 0.22085 0.0
C1021 C 0.89418 0.55641 0.21746 0.0
N1022 N 0.9063 0.57662 0.20686 0.0
C1023 C 0.90599 0.53501 0.22196 0.0
C1024 C 0.93038 0.53446 0.21789 0.0
H1025 H 0.87533 0.5566 0.22079 0.0
H1026 H 0.99833 0.57759 0.21524 0.0
H1027 H 0.8186 0.5938 0.0684 0.0
H1028 H 0.9968 0.62137 0.22186 0.0
H1029 H 0.9729 0.65735 0.22899 0.0
H1030 H 0.97744 0.53983 0.2154 0.0
H1031 H 0.87572 0.69103 0.0382 0.0
H1032 H 0.75324 0.62987 0.07712 0.0
H1033 H 0.77573 0.59288 0.07302 0.0
H1034 H 0.7746 0.7107 0.061 0.0
H1035 H 0.89627 0.51897 0.22869 0.0
H1036 H 0.93949 0.51786 0.22186 0.0
H1037 H 0.75304 0.67376 0.0733 0.0
H1038 H 0.8554 0.729 0.02961 0.0
N1039 N 0.82104 0.63119 0.07229 0.0
C1040 C 0.77222 0.63048 0.07529 0.0
C1041 C 0.78485 0.60956 0.07285 0.0
C1042 C 0.78415 0.65193 0.07308 0.0
C1043 C 0.8089 0.65178 0.07094 0.0
C1044 C 0.80934 0.61022 0.0703 0.0
N1045 N 0.84481 0.67209 0.05859 0.0
C1046 C 0.82109 0.67275 0.06378 0.0
C1047 C 0.84558 0.71335 0.03945 0.0
C1048 C 0.82142 0.71462 0.04768 0.0
C1049 C 0.85702 0.69176 0.04413 0.0
C1050 C 0.8088 0.69415 0.05898 0.0
H1051 H 0.81261 0.73139 0.04383 0.0
O1052 O 0.88092 0.62054 1.00393 0.0
O1053 O 0.89597 0.6252 0.11196 0.0
O1054 O 0.8916 0.65373 0.1916 0.0
O1055 O 0.86178 0.66471 0.13225 0.0
O1056 O 0.89665 0.6553 0.06624 0.0
O1057 O 0.84891 0.63959 0.99033 0.0
O1058 O 0.86885 0.62908 0.26079 0.0
O1059 O 0.85428 0.6239 0.15644 0.0
O1060 O 0.85965 0.59542 0.07293 0.0
O1061 O 0.88982 0.58429 0.13087 0.0
O1062 O 0.8548 0.59236 0.19608 0.0
O1063 O 0.89814 0.60654 0.27804 0.0
C1064 C 0.90931 0.64126 0.09492 0.0
C1065 C 0.78429 0.69439 0.06402 0.0
C1066 C 0.77201 0.67335 0.07106 0.0
C1067 C 0.86674 0.62939 0.96818 0.0
C1068 C 0.87761 0.64188 0.92292 0.0
C1069 C 0.89246 0.66115 0.93234 0.0
C1070 C 0.87298 0.63467 0.86966 0.0
C1071 C 0.88311 0.64669 0.82609 0.0
C1072 C 0.9027 0.67295 0.88961 0.0
C1073 C 0.89813 0.66581 0.83691 0.0
C1074 C 0.87709 0.66966 0.17074 0.0
C1075 C 0.84125 0.6073 0.17245 0.0
C1076 C 0.88088 0.61843 0.298 0.0
C1077 C 0.86757 0.60692 0.34114 0.0
C1078 C 0.85171 0.58869 0.32953 0.0
C1079 C 0.87127 0.6138 0.39494 0.0
C1080 C 0.85927 0.6025 0.43692 0.0
C1081 C 0.83954 0.57767 0.37071 0.0
C1082 C 0.84327 0.58447 0.42401 0.0
C1083 C 0.87513 0.57978 0.09026 0.0
H1084 H 0.89623 0.66718 0.97256 0.0
H1085 H 0.86125 0.61999 0.86224 0.0
H1086 H 0.91426 0.6877 0.89738 0.0
H1087 H 0.90659 0.67514 0.80461 0.0
H1088 H 0.84873 0.58275 0.28893 0.0
H1089 H 0.88383 0.62759 0.40409 0.0
H1090 H 0.82723 0.56373 0.36128 0.0
H1091 H 0.83345 0.57572 0.45512 0.0
Gd1092 Gd 0.13156 0.11313 0.83811 0.0
Gd1093 Gd 0.15454 0.14034 0.96055 0.0
C1094 C 0.17325 0.21812 0.97855 0.0
C1095 C 0.21584 0.21706 0.98255 0.0
C1096 C 0.19345 0.18084 0.97362 0.0
C1097 C 0.17278 0.19348 0.97255 0.0
C1098 C 0.2152 0.19243 0.98004 0.0
C1099 C 0.19488 0.22986 0.98184 0.0
C1100 C 0.15197 0.23014 0.98283 0.0
C1101 C 0.13097 0.21752 0.98254 0.0
N1102 N 0.15217 0.18153 0.96965 0.0
C1103 C 0.1314 0.19311 0.97637 0.0
H1104 H 0.11497 0.18375 0.97634 0.0
C1105 C 0.21174 0.14379 0.98189 0.0
N1106 N 0.19212 0.15708 0.97266 0.0
C1107 C 0.23375 0.15446 0.98753 0.0
C1108 C 0.23554 0.17889 0.98586 0.0
H1109 H 0.21051 0.12488 0.98309 0.0
H1110 H 0.19553 0.24878 0.9854 0.0
H1111 H 0.16939 0.06795 0.84072 0.0
H1112 H 0.15156 0.24905 0.98741 0.0
H1113 H 0.11442 0.2266 0.98676 0.0
H1114 H 0.23238 0.22631 0.98684 0.0
H1115 H 0.07717 0.12999 0.80388 0.0
H1116 H 0.13007 1.00398 0.84346 0.0
H1117 H 0.16822 0.02476 0.84434 0.0
H1118 H 0.05064 0.02988 0.81982 0.0
H1119 H 0.2493 0.14383 0.99331 0.0
H1120 H 0.25258 0.18713 0.99079 0.0
H1121 H 0.08613 1.00608 0.83488 0.0
H1122 H 0.03785 0.11224 0.79138 0.0
N1123 N 0.13225 0.07181 0.83989 0.0
C1124 C 0.13046 0.02299 0.84214 0.0
C1125 C 0.15203 0.03465 0.84245 0.0
C1126 C 0.1097 0.03597 0.8381 0.0
C1127 C 0.1112 0.06068 0.83671 0.0
C1128 C 0.15261 0.05919 0.8404 0.0
N1129 N 0.09371 0.09761 0.82334 0.0
C1130 C 0.09128 0.074 0.82783 0.0
C1131 C 0.05272 0.1013 0.80176 0.0
C1132 C 0.04979 0.07713 0.80831 0.0
C1133 C 0.075 0.11127 0.80869 0.0
C1134 C 0.06924 0.0631 0.82073 0.0
H1135 H 0.03257 0.0694 0.80249 0.0
O1136 O 0.12267 0.12571 0.758 0.0
O1137 O 0.1442 0.1464 0.8761 0.0
O1138 O 0.11381 0.14306 0.95383 0.0
O1139 O 0.10289 0.11173 0.89891 0.0
O1140 O 0.11632 0.14989 0.8243 0.0
O1141 O 0.152 0.10209 0.76932 0.0
O1142 O 0.16558 0.126 0.03767 0.0
O1143 O 0.14118 0.10651 0.92451 0.0
O1144 O 0.17149 0.11092 0.84294 0.0
O1145 O 0.18294 0.14266 0.89564 0.0
O1146 O 0.17157 0.10475 0.96929 0.0
O1147 O 0.13425 0.14719 0.03252 0.0
C1148 C 0.13052 0.16137 0.85524 0.0
C1149 C 0.06746 0.03858 0.82474 0.0
C1150 C 0.08766 0.02503 0.8334 0.0
C1151 C 0.13872 0.11311 0.73467 0.0
C1152 C 0.13113 0.09965 0.68681 0.0
C1153 C 0.11951 0.07811 0.69241 0.0
C1154 C 0.13551 0.10833 0.63497 0.0
C1155 C 0.12835 0.0955 0.58892 0.0
C1156 C 0.1122 0.06545 0.64723 0.0
C1157 C 0.11653 0.07403 0.59587 0.0
C1158 C 0.09768 0.12823 0.9341 0.0
C1159 C 0.15625 0.09227 0.94374 0.0
C1160 C 0.1489 0.13626 0.06427 0.0
C1161 C 0.15614 0.14879 0.11376 0.0
C1162 C 0.16928 0.16954 0.11064 0.0
C1163 C 0.15015 0.13994 0.16458 0.0
C1164 C 0.15712 0.15193 0.21195 0.0
C1165 C 0.1763 0.18141 0.15712 0.0
C1166 C 0.17031 0.17272 0.20741 0.0
C1167 C 0.18739 0.12674 0.8578 0.0
H1168 H 0.11611 0.07104 0.73161 0.0
H1169 H 0.14476 0.12484 0.63063 0.0
H1170 H 0.10311 0.0489 0.65205 0.0
H1171 H 0.11036 0.06394 0.56157 0.0
H1172 H 0.1742 0.17655 0.07238 0.0
H1173 H 0.1399 0.12395 0.16713 0.0
H1174 H 0.18654 0.19737 0.15414 0.0
H1175 H 0.17635 0.18213 0.24285 0.0
Gd1176 Gd 0.62143 0.40244 0.72237 0.0
Gd1177 Gd 0.6374 0.38235 0.5893 0.0
C1178 C 0.64211 0.30314 0.56304 0.0
C1179 C 0.68389 0.29753 0.55028 0.0
C1180 C 0.66827 0.33674 0.56567 0.0
C1181 C 0.64587 0.32745 0.57086 0.0
C1182 C 0.68733 0.32191 0.55328 0.0
C1183 C 0.66131 0.28816 0.55501 0.0
C1184 C 0.61909 0.2947 0.56065 0.0
C1185 C 0.60046 0.31042 0.56447 0.0
N1186 N 0.62752 0.34234 0.57846 0.0
C1187 C 0.605 0.33429 0.57289 0.0
H1188 H 0.59024 0.34593 0.57478 0.0
C1189 C 0.69153 0.37043 0.55043 0.0
N1190 N 0.67102 0.36042 0.56724 0.0
C1191 C 0.71094 0.35646 0.53854 0.0
C1192 C 0.70899 0.33208 0.54118 0.0
H1193 H 0.69329 0.38928 0.54914 0.0
H1194 H 0.65874 0.26942 0.55008 0.0
H1195 H 0.66988 0.42476 0.78852 0.0
H1196 H 0.61551 0.27623 0.55394 0.0
H1197 H 0.58257 0.30416 0.56106 0.0
H1198 H 0.6984 0.28587 0.54169 0.0
H1199 H 0.56401 0.41803 0.70089 0.0
H1200 H 0.67291 0.49832 0.75915 0.0
H1201 H 0.69063 0.4622 0.79619 0.0
H1202 H 0.59767 0.51524 0.68224 0.0
H1203 H 0.72739 0.36451 0.52743 0.0
H1204 H 0.72401 0.32128 0.53147 0.0
H1205 H 0.63826 0.5179 0.71612 0.0
H1206 H 0.54191 0.45246 0.67257 0.0
N1207 N 0.64147 0.43838 0.74113 0.0
C1208 C 0.66384 0.4817 0.75445 0.0
C1209 C 0.67393 0.46135 0.77513 0.0
C1210 C 0.64157 0.48054 0.73059 0.0
C1211 C 0.63051 0.4584 0.72532 0.0
C1212 C 0.66221 0.43991 0.76938 0.0
N1213 N 0.59728 0.4355 0.70381 0.0
C1214 C 0.60776 0.4569 0.70594 0.0
C1215 C 0.56057 0.45393 0.68052 0.0
C1216 C 0.57167 0.47566 0.67742 0.0
C1217 C 0.57354 0.43411 0.69514 0.0
C1218 C 0.59537 0.4775 0.69177 0.0
H1219 H 0.56156 0.49104 0.6664 0.0
O1220 O 0.59262 0.39562 0.77663 0.0
O1221 O 0.62323 0.37106 0.66771 0.0
O1222 O 0.59727 0.38576 0.59321 0.0
O1223 O 0.58869 0.38649 0.68444 0.0
O1224 O 0.63672 0.36714 0.74487 0.0
O1225 O 0.62707 0.40329 0.80912 0.0
O1226 O 0.62653 0.4073 0.5274 0.0
O1227 O 0.62874 0.41409 0.63806 0.0
O1228 O 0.66063 0.39633 0.72491 0.0
O1229 O 0.67127 0.38076 0.64167 0.0
O1230 O 0.66033 0.41413 0.59677 0.0
O1231 O 0.63683 0.37281 0.50418 0.0
C1232 C 0.6328 0.35665 0.69973 0.0
C1233 C 0.60678 0.49934 0.6939 0.0
C1234 C 0.62986 0.50085 0.71323 0.0
C1235 C 0.60526 0.39888 0.81993 0.0
C1236 C 0.59469 0.4118 0.86526 0.0
C1237 C 0.57506 0.42634 0.85748 0.0
C1238 C 0.60341 0.40819 0.91787 0.0
C1239 C 0.59218 0.41838 0.96239 0.0
C1240 C 0.56402 0.43661 0.90151 0.0
C1241 C 0.57234 0.43249 0.95365 0.0
C1242 C 0.5821 0.38525 0.63333 0.0
C1243 C 0.64606 0.4269 0.62452 0.0
C1244 C 0.63075 0.39343 0.4874 0.0
C1245 C 0.64461 0.40325 0.44294 0.0
C1246 C 0.66671 0.41311 0.45353 0.0
C1247 C 0.63594 0.40263 0.38957 0.0
C1248 C 0.64956 0.4114 0.34671 0.0
C1249 C 0.68048 0.42127 0.41167 0.0
C1250 C 0.67218 0.4202 0.35881 0.0
C1251 C 0.6764 0.38754 0.69184 0.0
H1252 H 0.56804 0.42948 0.81754 0.0
H1253 H 0.61851 0.39694 0.92431 0.0
H1254 H 0.5488 0.44767 0.89524 0.0
H1255 H 0.56345 0.44059 0.98722 0.0
H1256 H 0.67337 0.41448 0.49419 0.0
H1257 H 0.61853 0.39566 0.38189 0.0
H1258 H 0.69772 0.42844 0.42021 0.0
H1259 H 0.68369 0.42623 0.32745 0.0
Gd1260 Gd 0.39607 0.89821 0.31193 0.0
Gd1261 Gd 0.37565 0.87197 0.43573 0.0
C1262 C 0.35036 0.79624 0.44386 0.0
C1263 C 0.30815 0.80074 0.45128 0.0
C1264 C 0.33357 0.83501 0.44914 0.0
C1265 C 0.35293 0.82078 0.44343 0.0
C1266 C 0.31103 0.82518 0.45506 0.0
C1267 C 0.3278 0.78628 0.4451 0.0
C1268 C 0.37059 0.7825 0.44493 0.0
C1269 C 0.39257 0.79319 0.45028 0.0
N1270 N 0.37448 0.83093 0.44211 0.0
C1271 C 0.3942 0.81766 0.44889 0.0
H1272 H 0.4113 0.82584 0.4508 0.0
C1273 C 0.3189 0.87316 0.46474 0.0
N1274 N 0.33705 0.85853 0.45176 0.0
C1275 C 0.29625 0.86422 0.4715 0.0
C1276 C 0.2922 0.84016 0.4658 0.0
H1277 H 0.32161 0.89181 0.46876 0.0
H1278 H 0.32543 0.76744 0.44338 0.0
H1279 H 0.35242 0.93874 0.31192 0.0
H1280 H 0.36935 0.76373 0.44135 0.0
H1281 H 0.40829 0.78259 0.453 0.0
H1282 H 0.29092 0.79283 0.45452 0.0
H1283 H 0.45102 0.88895 0.27323 0.0
H1284 H 0.3835 1.00685 0.31992 0.0
H1285 H 0.34829 0.9815 0.31656 0.0
H1286 H 0.46511 0.99142 0.29535 0.0
H1287 H 0.28189 0.87593 0.48073 0.0
H1288 H 0.27463 0.83329 0.47082 0.0
H1289 H 0.42723 0.01035 0.31339 0.0
H1290 H 0.48685 0.91195 0.25514 0.0
N1291 N 0.38988 0.93924 0.31448 0.0
C1292 C 0.3855 0.98795 0.31822 0.0
C1293 C 0.36559 0.97371 0.316 0.0
C1294 C 0.40772 0.97768 0.31535 0.0
C1295 C 0.40937 0.95296 0.31334 0.0
C1296 C 0.36809 0.94931 0.31335 0.0
N1297 N 0.43128 0.91866 0.29788 0.0
C1298 C 0.43075 0.94233 0.30408 0.0
C1299 C 0.47135 0.92068 0.26985 0.0
C1300 C 0.47139 0.94494 0.27846 0.0
C1301 C 0.45101 0.90774 0.27964 0.0
C1302 C 0.45093 0.95608 0.29549 0.0
H1303 H 0.48696 0.95509 0.26982 0.0
O1304 O 0.40724 0.88648 0.23292 0.0
O1305 O 0.385 0.86461 0.35096 0.0
O1306 O 0.41635 0.86911 0.4273 0.0
O1307 O 0.42617 0.89987 0.37045 0.0
O1308 O 0.41269 0.86197 0.29945 0.0
O1309 O 0.37513 0.90634 0.24104 0.0
O1310 O 0.36835 0.8865 0.51482 0.0
O1311 O 0.38829 0.90551 0.39855 0.0
O1312 O 0.35626 0.89755 0.31341 0.0
O1313 O 0.34586 0.86837 0.3734 0.0
O1314 O 0.35912 0.90769 0.44558 0.0
O1315 O 0.39729 0.86251 0.50479 0.0
C1316 C 0.39913 0.85001 0.3302 0.0
C1317 C 0.44969 0.98059 0.30103 0.0
C1318 C 0.42812 0.99137 0.31128 0.0
C1319 C 0.39011 0.89709 0.20788 0.0
C1320 C 0.39666 0.91159 0.16144 0.0
C1321 C 0.40538 0.93439 0.16901 0.0
C1322 C 0.39406 0.90267 0.10896 0.0
C1323 C 0.40018 0.91649 0.06425 0.0
C1324 C 0.4118 0.94801 0.12518 0.0
C1325 C 0.40928 0.93917 0.07315 0.0
C1326 C 0.43208 0.88384 0.40623 0.0
C1327 C 0.37365 0.9199 0.4183 0.0
C1328 C 0.38457 0.87421 0.53882 0.0
C1329 C 0.37738 0.86152 0.58752 0.0
C1330 C 0.36508 0.84026 0.58329 0.0
C1331 C 0.38275 0.87069 0.63875 0.0
C1332 C 0.37603 0.85851 0.68544 0.0
C1333 C 0.35828 0.82821 0.62916 0.0
C1334 C 0.36369 0.83721 0.67992 0.0
C1335 C 0.34086 0.88238 0.33226 0.0
H1336 H 0.40712 0.94175 0.20866 0.0
H1337 H 0.38689 0.88521 0.10306 0.0
H1338 H 0.4187 0.96553 0.13158 0.0
H1339 H 0.41462 0.95007 0.03987 0.0
H1340 H 0.36072 0.8329 0.54468 0.0
H1341 H 0.39237 0.88707 0.64219 0.0
H1342 H 0.34871 0.81184 0.62533 0.0
H1343 H 0.35791 0.82765 0.71491 0.0
H1344 H 0.10471 0.61375 0.77424 0.0
H1345 H 0.13255 0.65049 0.47009 0.0
H1346 H 0.17301 0.63685 0.72308 0.0
H1347 H 0.06748 0.61892 0.52001 0.0
H1348 H 0.14758 0.64692 0.56246 0.0
H1349 H 0.09016 0.61808 0.68198 0.0
C1350 C 0.11659 0.62001 0.74379 0.0
C1351 C 0.14016 0.62485 0.75659 0.0
C1352 C 0.13001 0.64076 0.5531 0.0
C1353 C 0.12368 0.62956 0.6503 0.0
C1354 C 0.12149 0.64264 0.50022 0.0
C1355 C 0.0986 0.63522 0.48706 0.0
C1356 C 0.11557 0.63141 0.59326 0.0
C1357 C 0.08504 0.62537 0.52822 0.0
C1358 C 0.10833 0.62227 0.69091 0.0
C1359 C 0.15479 0.63261 0.71504 0.0
N1360 N 0.09366 0.62386 0.57922 0.0
N1361 N 0.14634 0.63469 0.66389 0.0
H1362 H 0.66246 0.90319 0.02988 0.0
H1363 H 0.63039 0.86759 0.72537 0.0
H1364 H 0.59301 0.88314 0.97606 0.0
H1365 H 0.69969 0.88883 0.77787 0.0
H1366 H 0.61646 0.873 0.81714 0.0
H1367 H 0.67679 0.89681 0.93857 0.0
C1368 C 0.65026 0.89723 0.99905 0.0
C1369 C 0.62645 0.89386 1.01072 0.0
C1370 C 0.63473 0.87648 0.8086 0.0
C1371 C 0.64268 0.8868 0.9058 0.0
C1372 C 0.64266 0.87356 0.75603 0.0
C1373 C 0.66629 0.87768 0.74368 0.0
C1374 C 0.6505 0.88362 0.84934 0.0
C1375 C 0.68141 0.88508 0.7855 0.0
C1376 C 0.65842 0.89377 0.94678 0.0
C1377 C 0.61143 0.88637 0.96884 0.0
N1378 N 0.67327 0.88778 0.83632 0.0
N1379 N 0.61976 0.88316 0.91838 0.0
H1380 H 0.42689 0.37361 0.27859 0.0
H1381 H 0.3606 0.40759 1.00365 0.0
H1382 H 0.35197 0.38352 0.26994 0.0
H1383 H 0.43561 0.40147 0.02302 0.0
H1384 H 0.35605 0.39739 0.09915 0.0
H1385 H 0.42963 0.3835 0.18387 0.0
C1386 C 0.41099 0.37801 0.25661 0.0
C1387 C 0.38917 0.37764 0.28204 0.0
C1388 C 0.37347 0.3982 0.08232 0.0
C1389 C 0.39207 0.38886 0.17282 0.0
C1390 C 0.37605 0.4038 0.02782 0.0
C1391 C 0.39853 0.4055 1.0056 0.0
C1392 C 0.39353 0.39415 0.11441 0.0
C1393 C 0.41798 0.40061 0.03868 0.0
C1394 C 0.41253 0.38363 0.20241 0.0
C1395 C 0.36914 0.38372 0.25179 0.0
N1396 N 0.41502 0.39525 0.0912 0.0
N1397 N 0.37103 0.38894 0.19854 0.0
H1398 H 0.8568 0.11759 0.54209 0.0
H1399 H 0.90062 0.14088 0.2421 0.0
H1400 H 0.92899 0.10936 0.49504 0.0
H1401 H 0.82788 0.13742 0.28796 0.0
H1402 H 0.91201 0.13064 0.33452 0.0
H1403 H 0.84649 0.12749 0.4495 0.0
C1404 C 0.87052 0.11809 0.51235 0.0
C1405 C 0.89377 0.1126 0.52629 0.0
C1406 C 0.89356 0.1321 0.32418 0.0
C1407 C 0.88207 0.12363 0.41989 0.0
C1408 C 0.88707 0.13779 0.27143 0.0
C1409 C 0.86328 0.1403 0.25745 0.0
C1410 C 0.87612 0.12891 0.36305 0.0
C1411 C 0.84644 0.13621 0.29716 0.0
C1412 C 0.8646 0.12354 0.45935 0.0
C1413 C 0.91079 0.11321 0.48586 0.0
N1414 N 0.85318 0.13086 0.34805 0.0
N1415 N 0.90461 0.11863 0.43447 0.0
H1416 H 0.13591 0.36635 0.24527 0.0
H1417 H 0.1645 0.4024 0.55126 0.0
H1418 H 0.20308 0.39307 0.29916 0.0
H1419 H 0.09729 0.37618 0.49641 0.0
H1420 H 0.17947 0.39783 0.45992 0.0
H1421 H 0.12156 0.36959 0.33724 0.0
C1422 C 0.1476 0.37305 0.27629 0.0
C1423 C 0.17078 0.37937 0.26427 0.0
C1424 C 0.16146 0.39302 0.46792 0.0
C1425 C 0.15454 0.38284 0.37012 0.0
C1426 C 0.15296 0.39545 0.5202 0.0
C1427 C 0.12954 0.38984 0.53157 0.0
C1428 C 0.14646 0.38484 0.42664 0.0
C1429 C 0.11534 0.38113 0.48942 0.0
C1430 C 0.13945 0.37473 0.32896 0.0
C1431 C 0.1852 0.38764 0.30652 0.0
N1432 N 0.12398 0.37899 0.43896 0.0
N1433 N 0.17687 0.38912 0.35741 0.0
H1434 H 0.85687 0.90625 0.78974 0.0
H1435 H 0.87172 0.86452 0.48392 0.0
H1436 H 0.83875 0.83672 0.73351 0.0
H1437 H 0.88904 0.93398 0.54188 0.0
H1438 H 0.85804 0.85432 0.57383 0.0
H1439 H 0.86791 0.91681 0.69851 0.0
C1440 C 0.85531 0.89314 0.75828 0.0
C1441 C 0.84694 0.87051 0.76955 0.0
C1442 C 0.86476 0.87182 0.5668 0.0
C1443 C 0.85934 0.88262 0.66441 0.0
C1444 C 0.87243 0.87771 0.51536 0.0
C1445 C 0.8817 0.90011 0.5053 0.0
C1446 C 0.86633 0.88845 0.60857 0.0
C1447 C 0.88242 0.91637 0.54788 0.0
C1448 C 0.86148 0.89924 0.70602 0.0
C1449 C 0.84489 0.85444 0.72673 0.0
N1450 N 0.87494 0.9102 0.59752 0.0
N1451 N 0.85111 0.86077 0.67616 0.0
H1452 H 0.3855 0.60898 0.72949 0.0
H1453 H 0.41724 0.64401 0.0338 0.0
H1454 H 0.39904 0.68012 0.78125 0.0
H1455 H 0.39136 0.5759 0.98432 0.0
H1456 H 0.4154 0.65677 0.94004 0.0
H1457 H 0.39379 0.59543 0.82088 0.0
C1458 C 0.39073 0.62167 0.75985 0.0
C1459 C 0.39146 0.64569 0.74797 0.0
C1460 C 0.41025 0.639 0.94979 0.0
C1461 C 0.4005 0.63044 0.85273 0.0
C1462 C 0.41112 0.63175 1.00336 0.0
C1463 C 0.4045 0.60881 0.0171 0.0
C1464 C 0.40275 0.62318 0.90967 0.0
C1465 C 0.39704 0.59361 0.97569 0.0
C1466 C 0.3952 0.61398 0.81214 0.0
C1467 C 0.39803 0.66145 0.789 0.0
N1468 N 0.39637 0.60106 0.92399 0.0
N1469 N 0.40213 0.65358 0.83967 0.0
H1470 H 0.61317 0.13793 0.9978 0.0
H1471 H 0.66565 0.14835 0.29799 0.0
H1472 H 0.68331 0.11637 0.04243 0.0
H1473 H 0.60111 0.18121 0.24661 0.0
H1474 H 0.67051 0.13268 0.20681 0.0
H1475 H 0.607 0.15105 0.09028 0.0
C1476 C 0.62735 0.13604 0.02677 0.0
C1477 C 0.64881 0.12592 1.01181 0.0
C1478 C 0.65523 0.14324 0.21556 0.0
C1479 C 0.64164 0.14059 0.11856 0.0
C1480 C 0.65236 0.15202 0.26776 0.0
C1481 C 0.63304 0.16628 0.27997 0.0
C1482 C 0.63857 0.14856 0.17526 0.0
C1483 C 0.61646 0.1706 0.23889 0.0
C1484 C 0.62373 0.1434 0.0798 0.0
C1485 C 0.66631 0.12364 0.05186 0.0
N1486 N 0.61963 0.16186 0.18854 0.0
N1487 N 0.66233 0.13086 0.10315 0.0
H1488 H 0.87869 0.44821 0.25869 0.0
H1489 H 0.9188 0.37581 0.52056 0.0
H1490 H 0.88847 0.37316 0.25471 0.0
H1491 H 0.90701 0.45056 0.51595 0.0
H1492 H 0.9076 0.37344 0.42475 0.0
H1493 H 0.8897 0.44854 0.35329 0.0
C1494 C 0.88314 0.43172 0.27779 0.0
C1495 C 0.88237 0.41059 0.24856 0.0
C1496 C 0.90747 0.39032 0.44485 0.0
C1497 C 0.89523 0.41082 0.35813 0.0
C1498 C 0.9137 0.39167 0.49965 0.0
C1499 C 0.91413 0.41347 0.52646 0.0
C1500 C 0.9015 0.41091 0.41673 0.0
C1501 C 0.90744 0.43343 0.49703 0.0
C1502 C 0.88949 0.43192 0.33205 0.0
C1503 C 0.88886 0.38987 0.27555 0.0
N1504 N 0.90152 0.43165 0.44414 0.0
N1505 N 0.89488 0.39047 0.32889 0.0
H1506 H 0.39767 0.14711 0.29098 0.0
H1507 H 0.35684 0.12086 0.98754 0.0
H1508 H 0.32568 0.13544 0.24178 0.0
H1509 H 0.42926 0.11996 0.03983 0.0
H1510 H 0.34527 0.13126 0.07888 0.0
H1511 H 0.40979 0.14082 0.19799 0.0
C1512 C 0.38442 0.14311 0.26078 0.0
C1513 C 0.3606 0.1419 0.27434 0.0
C1514 C 0.36372 0.12896 0.07032 0.0
C1515 C 0.37432 0.13511 0.16769 0.0
C1516 C 0.37034 0.12327 0.01805 0.0
C1517 C 0.39402 0.11944 1.00619 0.0
C1518 C 0.38093 0.13092 0.11099 0.0
C1519 C 0.41077 0.12248 0.04748 0.0
C1520 C 0.39134 0.1397 0.20763 0.0
C1521 C 0.3442 0.13699 0.23321 0.0
N1522 N 0.40389 0.12794 0.0981 0.0
N1523 N 0.35136 0.13381 0.18187 0.0
H1524 H 0.5821 0.61804 0.99979 0.0
H1525 H 0.66759 0.63147 0.74743 0.0
H1526 H 0.65673 0.60704 0.01339 0.0
H1527 H 0.59356 0.64703 0.74532 0.0
H1528 H 0.66471 0.62108 0.84322 0.0
H1529 H 0.58675 0.6285 0.90576 0.0
C1530 C 0.59954 0.61799 0.98287 0.0
C1531 C 0.61904 0.61159 0.01434 0.0
C1532 C 0.64913 0.62673 0.82164 0.0
C1533 C 0.62459 0.62332 0.90588 0.0
C1534 C 0.65073 0.63245 0.76694 0.0
C1535 C 0.63081 0.64028 0.73848 0.0
C1536 C 0.62742 0.6287 0.84771 0.0
C1537 C 0.60943 0.64139 0.7658 0.0
C1538 C 0.60222 0.62392 0.92906 0.0
C1539 C 0.64127 0.61199 0.99049 0.0
N1540 N 0.60834 0.63574 0.81861 0.0
N1541 N 0.64345 0.61757 0.93746 0.0
H1542 H 0.11386 0.87764 0.47525 0.0
H1543 H 0.10914 0.92807 0.77337 0.0
H1544 H 0.09135 0.94847 0.51051 0.0
H1545 H 0.16457 0.88153 0.72449 0.0
H1546 H 0.09516 0.92974 0.67967 0.0
H1547 H 0.12647 0.87351 0.56901 0.0
C1548 C 0.11163 0.89241 0.50217 0.0
C1549 C 0.10136 0.91349 0.4841 0.0
C1550 C 0.11026 0.919 0.68962 0.0
C1551 C 0.11502 0.90833 0.59235 0.0
C1552 C 0.11809 0.9179 0.74298 0.0
C1553 C 0.13799 0.90464 0.75642 0.0
C1554 C 0.12214 0.90639 0.64969 0.0
C1555 C 0.14917 0.89198 0.71553 0.0
C1556 C 0.11869 0.88989 0.5559 0.0
C1557 C 0.09855 0.93166 0.52208 0.0
N1558 N 0.14105 0.89307 0.66395 0.0
N1559 N 0.10515 0.92858 0.57423 0.0
H1560 H 0.87992 0.60207 0.78352 0.0
H1561 H 0.86379 0.64681 0.47992 0.0
H1562 H 0.87536 0.6751 0.73902 0.0
H1563 H 0.86386 0.57366 0.52445 0.0
H1564 H 0.86906 0.65744 0.57461 0.0
H1565 H 0.87411 0.59117 0.68903 0.0
C1566 C 0.8775 0.61581 0.75403 0.0
C1567 C 0.87828 0.63956 0.76936 0.0
C1568 C 0.86792 0.63905 0.56369 0.0
C1569 C 0.87193 0.62721 0.6609 0.0
C1570 C 0.86508 0.63297 0.50954 0.0
C1571 C 0.8633 0.60931 0.49412 0.0
C1572 C 0.86909 0.62135 0.60287 0.0
C1573 C 0.8648 0.59215 0.53449 0.0
C1574 C 0.87434 0.60958 0.69999 0.0
C1575 C 0.87531 0.65659 0.7291 0.0
N1576 N 0.86761 0.5985 0.58689 0.0
N1577 N 0.87234 0.65009 0.67689 0.0
H1578 H 0.12517 0.14077 0.55112 0.0
H1579 H 0.1582 0.10633 0.24815 0.0
H1580 H 0.14196 0.07029 0.50034 0.0
H1581 H 0.14266 0.17696 0.29987 0.0
H1582 H 0.15105 0.09253 0.33959 0.0
H1583 H 0.13131 0.15433 0.4592 0.0
C1584 C 0.13031 0.12816 0.52081 0.0
C1585 C 0.13295 0.10431 0.53365 0.0
C1586 C 0.14916 0.11105 0.33089 0.0
C1587 C 0.13971 0.11969 0.42788 0.0
C1588 C 0.15306 0.11891 0.27854 0.0
C1589 C 0.15119 0.14287 0.26625 0.0
C1590 C 0.14327 0.12725 0.37134 0.0
C1591 C 0.14471 0.15838 0.30759 0.0
C1592 C 0.13365 0.13589 0.46817 0.0
C1593 C 0.13934 0.08877 0.49229 0.0
N1594 N 0.14106 0.15033 0.35816 0.0
N1595 N 0.14247 0.09671 0.44142 0.0
H1596 H 0.65935 0.44343 0.26706 0.0
H1597 H 0.56901 0.39883 0.04697 0.0
H1598 H 0.61872 0.38058 0.29492 0.0
H1599 H 0.63522 0.42982 1.00439 0.0
H1600 H 0.58296 0.3956 0.14065 0.0
H1601 H 0.64665 0.44278 0.17356 0.0
C1602 C 0.64798 0.42927 0.2538 0.0
C1603 C 0.64057 0.41174 0.28966 0.0
C1604 C 0.59447 0.40292 0.11067 0.0
C1605 C 0.62513 0.41163 0.1818 0.0
C1606 C 0.58653 0.4048 0.0574 0.0
C1607 C 0.60104 0.41457 0.01806 0.0
C1608 C 0.6168 0.41149 0.12492 0.0
C1609 C 0.62357 0.42208 0.03352 0.0
C1610 C 0.64062 0.42908 0.20015 0.0
C1611 C 0.62489 0.39459 0.2695 0.0
N1612 N 0.63065 0.42069 0.08585 0.0
N1613 N 0.61761 0.39505 0.21707 0.0
H1614 H 0.40868 0.87209 0.02522 0.0
H1615 H 0.37244 0.90395 0.72182 0.0
H1616 H 0.38443 0.94052 0.97566 0.0
H1617 H 0.39187 0.83434 0.77353 0.0
H1618 H 0.37899 0.91825 0.81362 0.0
H1619 H 0.40394 0.85822 0.93264 0.0
C1620 C 0.40223 0.88417 0.995 0.0
C1621 C 0.397 0.90754 1.00837 0.0
C1622 C 0.38188 0.89985 0.80485 0.0
C1623 C 0.39184 0.89185 0.902 0.0
C1624 C 0.37831 0.89172 0.75234 0.0
C1625 C 0.38147 0.86788 0.74 0.0
C1626 C 0.38874 0.88405 0.84533 0.0
C1627 C 0.38886 0.85279 0.78138 0.0
C1628 C 0.39968 0.87628 0.94203 0.0
C1629 C 0.38904 0.92247 0.96719 0.0
N1630 N 0.39218 0.8611 0.83212 0.0
N1631 N 0.38671 0.91438 0.91599 0.0
H1632 H 0.09974 0.70177 0.15622 0.0
H1633 H 0.17448 0.8228 0.15577 0.0
H1634 H 0.17512 0.70369 0.15065 0.0
H1635 H 0.09909 0.82077 0.15959 0.0
H1636 H 0.17516 0.77957 0.15157 0.0
H1637 H 0.09904 0.74501 0.15376 0.0
C1638 C 0.11616 0.71129 0.15346 0.0
C1639 C 0.1375 0.69892 0.15199 0.0
C1640 C 0.15841 0.78848 0.15284 0.0
C1641 C 0.13694 0.74891 0.15116 0.0
C1642 C 0.15803 0.81325 0.15497 0.0
C1643 C 0.13666 0.82561 0.15548 0.0
C1644 C 0.13724 0.77562 0.15269 0.0
C1645 C 0.11595 0.81212 0.15691 0.0
C1646 C 0.11577 0.73606 0.15248 0.0
C1647 C 0.15823 0.71237 0.1505 0.0
N1648 N 0.11674 0.78806 0.15516 0.0
N1649 N 0.15744 0.73644 0.14998 0.0
H1650 H 0.57774 0.83587 0.42645 0.0
H1651 H 0.46464 0.91889 0.40262 0.0
H1652 H 0.58136 0.91134 0.42574 0.0
H1653 H 0.45878 0.84499 0.43677 0.0
H1654 H 0.5072 0.916 0.41072 0.0
H1655 H 0.53465 0.83827 0.43079 0.0
C1656 C 0.56944 0.85297 0.42705 0.0
C1657 C 0.58318 0.87343 0.42349 0.0
C1658 C 0.49673 0.90041 0.41722 0.0
C1659 C 0.5337 0.87637 0.42969 0.0
C1660 C 0.47227 0.90202 0.41256 0.0
C1661 C 0.45784 0.88215 0.41916 0.0
C1662 C 0.50732 0.87868 0.42825 0.0
C1663 C 0.46903 0.86084 0.43191 0.0
C1664 C 0.54482 0.85433 0.42977 0.0
C1665 C 0.5715 0.8951 0.42622 0.0
N1666 N 0.49304 0.85963 0.4355 0.0
N1667 N 0.54755 0.89598 0.42858 0.0
H1668 H 0.34039 0.31556 0.67755 0.0
H1669 H 0.4208 0.1998 0.70413 0.0
H1670 H 0.41473 0.32105 0.7082 0.0
H1671 H 0.34547 0.20037 0.68787 0.0
H1672 H 0.42019 0.24323 0.71199 0.0
H1673 H 0.34295 0.27314 0.6866 0.0
C1674 C 0.3573 0.30786 0.68712 0.0
C1675 C 0.37731 0.32218 0.69246 0.0
C1676 C 0.40379 0.23377 0.70757 0.0
C1677 C 0.38058 0.27261 0.70225 0.0
C1678 C 0.40412 0.20891 0.70369 0.0
C1679 C 0.38313 0.1962 0.6957 0.0
C1680 C 0.38232 0.24604 0.7034 0.0
C1681 C 0.36213 0.20919 0.6941 0.0
C1682 C 0.35879 0.28343 0.69216 0.0
C1683 C 0.39874 0.31087 0.70455 0.0
N1684 N 0.36232 0.23307 0.6975 0.0
N1685 N 0.39986 0.28681 0.7085 0.0
H1686 H 0.95054 0.0945 0.94902 0.0
H1687 H 0.07144 0.16789 0.96058 0.0
H1688 H 0.95066 0.17009 0.95502 0.0
H1689 H 0.06547 0.09307 0.93757 0.0
H1690 H 0.02829 0.16998 0.97024 0.0
H1691 H 0.99306 0.09454 0.95739 0.0
C1692 C 0.95952 0.11119 0.95344 0.0
C1693 C 0.94682 0.1323 0.9518 0.0
C1694 C 0.03652 0.15311 0.9637 0.0
C1695 C 0.99636 0.13257 0.96022 0.0
C1696 C 0.06119 0.15187 0.95866 0.0
C1697 C 0.07225 0.13025 0.94834 0.0
C1698 C 0.02283 0.13254 0.95889 0.0
C1699 C 0.0579 0.11016 0.94534 0.0
C1700 C 0.98398 0.11122 0.95779 0.0
C1701 C 0.95964 0.15337 0.95699 0.0
N1702 N 0.0342 0.11183 0.95038 0.0
N1703 N 0.98371 0.153 0.96042 0.0
H1704 H 0.18019 0.30635 0.87931 0.0
H1705 H 0.09542 0.19403 0.84981 0.0
H1706 H 0.10679 0.31274 0.83854 0.0
H1707 H 0.17074 0.18885 0.85389 0.0
H1708 H 0.0988 0.23709 0.84739 0.0
H1709 H 0.17673 0.26364 0.87291 0.0
C1710 C 0.16331 0.29885 0.86845 0.0
C1711 C 0.14377 0.31353 0.85934 0.0
C1712 C 0.11463 0.22661 0.84884 0.0
C1713 C 0.13965 0.26384 0.85197 0.0
C1714 C 0.11271 0.20196 0.85041 0.0
C1715 C 0.13281 0.18769 0.85418 0.0
C1716 C 0.13689 0.23737 0.85035 0.0
C1717 C 0.15473 0.19906 0.85311 0.0
C1718 C 0.16139 0.2743 0.86469 0.0
C1719 C 0.12245 0.3024 0.84536 0.0
N1720 N 0.15617 0.22308 0.85187 0.0
N1721 N 0.12094 0.27837 0.84257 0.0
H1722 H 0.05282 0.8563 0.15306 0.0
H1723 H 0.93957 0.92892 0.07094 0.0
H1724 H 0.05764 0.91191 0.03688 0.0
H1725 H 0.93572 0.85472 0.10157 0.0
H1726 H 0.9828 0.92603 0.06914 0.0
H1727 H 0.00984 0.85795 0.14569 0.0
C1728 C 0.04481 0.86866 0.12545 0.0
C1729 C 0.05885 0.88373 0.09486 0.0
C1730 C 0.97247 0.91041 0.07629 0.0
C1731 C 1.00956 0.88635 0.08784 0.0
C1732 C 0.94788 0.91208 0.07774 0.0
C1733 C 0.93418 0.8922 0.08872 0.0
C1734 C 0.98341 0.88865 0.08564 0.0
C1735 C 0.94571 0.87063 0.09519 0.0
C1736 C 0.02029 0.86963 0.12137 0.0
C1737 C 0.04749 0.89966 0.06033 0.0
N1738 N 0.96962 0.86947 0.09441 0.0
N1739 N 0.02352 0.9008 0.05833 0.0
H1740 H 0.36196 0.69918 0.35206 0.0
H1741 H 0.43641 0.81986 0.33372 0.0
H1742 H 0.43649 0.7014 0.32661 0.0
H1743 H 0.36103 0.81904 0.32236 0.0
H1744 H 0.43649 0.77673 0.33399 0.0
H1745 H 0.36083 0.74247 0.3464 0.0
C1746 C 0.37815 0.7087 0.34589 0.0
C1747 C 0.39946 0.69633 0.34076 0.0
C1748 C 0.41986 0.78584 0.33132 0.0
C1749 C 0.39823 0.74643 0.333 0.0
C1750 C 0.4198 0.81062 0.3314 0.0
C1751 C 0.39865 0.82338 0.3303 0.0
C1752 C 0.39857 0.7732 0.32927 0.0
C1753 C 0.37776 0.81014 0.3254 0.0
C1754 C 0.37746 0.73353 0.3421 0.0
C1755 C 0.41968 0.70994 0.33138 0.0
N1756 N 0.37824 0.78596 0.3254 0.0
N1757 N 0.41859 0.73395 0.32825 0.0
H1758 H 0.5686 0.16947 0.60689 0.0
H1759 H 0.44548 0.09844 0.61196 0.0
H1760 H 0.56466 0.09412 0.59964 0.0
H1761 H 0.45033 0.17371 0.60169 0.0
H1762 H 0.4887 0.0962 0.61266 0.0
H1763 H 0.52543 0.17124 0.60752 0.0
C1764 C 0.55863 0.15327 0.60625 0.0
C1765 C 0.57036 0.13158 0.60588 0.0
C1766 C 0.48035 0.11324 0.61043 0.0
C1767 C 0.52053 0.13339 0.60527 0.0
C1768 C 0.4556 0.11453 0.61058 0.0
C1769 C 0.44408 0.13636 0.60798 0.0
C1770 C 0.49393 0.1339 0.60685 0.0
C1771 C 0.45831 0.15651 0.60446 0.0
C1772 C 0.53391 0.15426 0.6062 0.0
C1773 C 0.5564 0.11119 0.60207 0.0
N1774 N 0.48226 0.15481 0.6042 0.0
N1775 N 0.53239 0.11256 0.60271 0.0
H1776 H 0.92716 0.19899 0.85747 0.0
H1777 H 0.84678 0.31534 0.83938 0.0
H1778 H 0.85167 0.19617 0.85801 0.0
H1779 H 0.92214 0.31662 0.85054 0.0
H1780 H 0.84775 0.27207 0.84256 0.0
H1781 H 0.9253 0.24193 0.854 0.0
C1782 C 0.91014 0.20745 0.85742 0.0
C1783 C 0.88958 0.19383 0.85905 0.0
C1784 C 0.8641 0.28175 0.84455 0.0
C1785 C 0.88721 0.24349 0.85349 0.0
C1786 C 0.86353 0.30649 0.84297 0.0
C1787 C 0.88435 0.31968 0.84752 0.0
C1788 C 0.88572 0.26994 0.84941 0.0
C1789 C 0.90561 0.30723 0.84946 0.0
C1790 C 0.90907 0.23205 0.85522 0.0
C1791 C 0.868 0.20589 0.85799 0.0
N1792 N 0.90574 0.28322 0.85085 0.0
N1793 N 0.86739 0.22993 0.85523 0.0
H1794 H 0.68178 0.81313 0.33398 0.0
H1795 H 0.60672 0.69451 0.30761 0.0
H1796 H 0.60669 0.81401 0.3109 0.0
H1797 H 0.68175 0.69821 0.32982 0.0
H1798 H 0.6058 0.7376 0.2974 0.0
H1799 H 0.68166 0.77083 0.32176 0.0
C1800 C 0.66522 0.80441 0.32555 0.0
C1801 C 0.6442 0.81719 0.32365 0.0
C1802 C 0.62249 0.72888 0.30351 0.0
C1803 C 0.64384 0.76817 0.31002 0.0
C1804 C 0.62303 0.70428 0.30873 0.0
C1805 C 0.64436 0.69276 0.31934 0.0
C1806 C 0.64343 0.7419 0.30881 0.0
C1807 C 0.66491 0.70634 0.32167 0.0
C1808 C 0.66515 0.78013 0.31861 0.0
C1809 C 0.62332 0.80486 0.31237 0.0
N1810 N 0.6639 0.73004 0.31688 0.0
N1811 N 0.62361 0.78097 0.30662 0.0
H1812 H 0.91734 0.69591 0.18434 0.0
H1813 H 0.8515 0.81874 0.22615 0.0
H1814 H 0.84193 0.70124 0.18531 0.0
H1815 H 0.91347 0.81305 0.12951 0.0
H1816 H 0.85149 0.77572 0.23694 0.0
H1817 H 0.9199 0.73909 0.18989 0.0
C1818 C 0.90138 0.70609 0.18729 0.0
C1819 C 0.8794 0.69495 0.18486 0.0
C1820 C 0.86533 0.78398 0.21423 0.0
C1821 C 0.88219 0.7442 0.19146 0.0
C1822 C 0.86546 0.80848 0.20851 0.0
C1823 C 0.88264 0.81942 0.17734 0.0
C1824 C 0.88287 0.77039 0.18981 0.0
C1825 C 0.9 0.80527 0.15411 0.0
C1826 C 0.90284 0.7307 0.18989 0.0
C1827 C 0.85923 0.7091 0.18757 0.0
N1828 N 0.89976 0.78152 0.161 0.0
N1829 N 0.86109 0.73291 0.19089 0.0
H1830 H 0.59604 0.21361 0.62183 0.0
H1831 H 0.6686 0.3253 0.70993 0.0
H1832 H 0.65258 0.20734 0.73717 0.0
H1833 H 0.59371 0.32958 0.68763 0.0
H1834 H 0.66565 0.2821 0.70858 0.0
H1835 H 0.59666 0.25642 0.63455 0.0
C1836 C 0.60836 0.22128 0.65034 0.0
C1837 C 0.62405 0.207 0.67912 0.0
C1838 C 0.64989 0.29253 0.70398 0.0
C1839 C 0.62565 0.25586 0.69179 0.0
C1840 C 0.65159 0.31706 0.70429 0.0
C1841 C 0.63148 0.33082 0.69648 0.0
C1842 C 0.62789 0.28179 0.69608 0.0
C1843 C 0.60972 0.31947 0.69145 0.0
C1844 C 0.60878 0.24565 0.65741 0.0
C1845 C 0.63992 0.21777 0.71503 0.0
N1846 N 0.60851 0.29559 0.69045 0.0
N1847 N 0.64062 0.24162 0.71967 0.0
H1848 H 0.96808 0.34393 0.86049 0.0
H1849 H 0.08291 0.4103 0.95136 0.0
H1850 H 0.96314 0.39885 0.97915 0.0
H1851 H 0.08335 0.3349 0.93827 0.0
H1852 H 0.0396 0.40952 0.94955 0.0
H1853 H 0.01088 0.34285 0.87522 0.0
C1854 C 0.97598 0.35558 0.89006 0.0
C1855 C 0.96194 0.37123 0.91929 0.0
C1856 C 0.0492 0.39316 0.94735 0.0
C1857 C 0.01107 0.37076 0.93472 0.0
C1858 C 0.07389 0.39361 0.94783 0.0
C1859 C 0.08674 0.37267 0.94341 0.0
C1860 C 0.03725 0.37166 0.94117 0.0
C1861 C 0.07412 0.35147 0.94067 0.0
C1862 C 1.00039 0.35496 0.89843 0.0
C1863 C 0.97323 0.3862 0.95654 0.0
N1864 N 0.05015 0.35153 0.93831 0.0
N1865 N 0.99711 0.38589 0.96253 0.0
H1866 H 0.46554 0.59733 0.40767 0.0
H1867 H 0.58088 0.67807 0.41846 0.0
H1868 H 0.46206 0.6715 0.44125 0.0
H1869 H 0.58301 0.60266 0.4276 0.0
H1870 H 0.53779 0.67658 0.42486 0.0
H1871 H 0.50833 0.59934 0.41241 0.0
C1872 C 0.47374 0.61405 0.4169 0.0
C1873 C 0.45989 0.63426 0.4244 0.0
C1874 C 0.54763 0.66034 0.42549 0.0
C1875 C 0.5096 0.63674 0.42935 0.0
C1876 C 0.57226 0.66117 0.42162 0.0
C1877 C 0.5856 0.64041 0.42046 0.0
C1878 C 0.53606 0.63855 0.42877 0.0
C1879 C 0.57347 0.61907 0.4263 0.0
C1880 C 0.49831 0.61516 0.41958 0.0
C1881 C 0.47181 0.65539 0.43594 0.0
N1882 N 0.54952 0.61869 0.4296 0.0
N1883 N 0.49588 0.65612 0.43749 0.0
H1884 H 0.43584 0.33992 0.61303 0.0
H1885 H 0.55495 0.4104 0.56249 0.0
H1886 H 0.43528 0.4146 0.58657 0.0
H1887 H 0.55104 0.3547 0.6786 0.0
H1888 H 0.51194 0.40824 0.55033 0.0
H1889 H 0.47908 0.34088 0.61562 0.0
C1890 C 0.44485 0.35649 0.60756 0.0
C1891 C 0.432 0.37732 0.6014 0.0
C1892 C 0.52058 0.39632 0.57796 0.0
C1893 C 0.48139 0.37842 0.60219 0.0
C1894 C 0.54509 0.39741 0.58457 0.0
C1895 C 0.55657 0.38257 0.62128 0.0
C1896 C 0.50755 0.37978 0.60701 0.0
C1897 C 0.54288 0.3664 0.64977 0.0
C1898 C 0.46947 0.35702 0.60903 0.0
C1899 C 0.44454 0.39825 0.59308 0.0
N1900 N 0.51918 0.36528 0.6417 0.0
N1901 N 0.46852 0.39829 0.5937 0.0
H1902 H 0.0588 0.61479 0.03652 0.0
H1903 H 0.93806 0.6793 0.10275 0.0
H1904 H 0.05543 0.67177 0.15034 0.0
H1905 H 0.94012 0.60429 0.08134 0.0
H1906 H 0.98118 0.68037 0.10003 0.0
H1907 H 0.01545 0.61421 0.03197 0.0
C1908 C 0.04897 0.62759 0.05937 0.0
C1909 C 0.06079 0.64361 0.09322 0.0
C1910 C 0.97221 0.66367 0.09593 0.0
C1911 C 0.01125 0.64304 0.08821 0.0
C1912 C 0.94762 0.66304 0.09764 0.0
C1913 C 0.93551 0.64159 0.09413 0.0
C1914 C 0.98492 0.64281 0.08834 0.0
C1915 C 0.9488 0.62112 0.0858 0.0
C1916 C 0.02426 0.62704 0.05731 0.0
C1917 C 0.04709 0.65931 0.12325 0.0
N1918 N 0.97275 0.62222 0.083 0.0
N1919 N 0.02317 0.65877 0.11972 0.0
H1920 H 0.17822 0.55983 0.11649 0.0
H1921 H 0.10839 0.46696 0.92698 0.0
H1922 H 0.11002 0.57474 0.04923 0.0
H1923 H 0.17423 0.45247 1.00708 0.0
H1924 H 0.10788 0.5059 0.97072 0.0
H1925 H 0.17598 0.52006 0.07863 0.0
C1926 C 0.16251 0.55456 0.0947 0.0
C1927 C 0.14408 0.57064 0.08742 0.0
C1928 C 0.12242 0.49417 0.97874 0.0
C1929 C 0.14167 0.52488 0.04133 0.0
C1930 C 0.1228 0.47188 0.9534 0.0
C1931 C 0.14145 0.45609 0.96265 0.0
C1932 C 0.14084 0.501 0.01386 0.0
C1933 C 0.15942 0.46372 0.99817 0.0
C1934 C 0.16129 0.53181 0.07256 0.0
C1935 C 0.12443 0.56285 0.05725 0.0
N1936 N 0.15865 0.48537 0.02201 0.0
N1937 N 0.1238 0.54072 0.03522 0.0
H1938 H 0.70537 0.93862 0.31522 0.0
H1939 H 0.81478 0.86352 0.20682 0.0
H1940 H 0.70334 0.86303 0.31501 0.0
H1941 H 0.80465 0.93764 0.18259 0.0
H1942 H 0.77581 0.86149 0.24961 0.0
H1943 H 0.74389 0.93739 0.274 0.0
C1944 C 0.71323 0.92167 0.30716 0.0
C1945 C 0.70105 0.90095 0.31913 0.0
C1946 C 0.78203 0.87812 0.23434 0.0
C1947 C 0.74557 0.89929 0.27001 0.0
C1948 C 0.80418 0.87924 0.20939 0.0
C1949 C 0.81284 0.90074 0.18987 0.0
C1950 C 0.76869 0.89874 0.24099 0.0
C1951 C 0.79862 0.92065 0.19616 0.0
C1952 C 0.73526 0.92096 0.28309 0.0
C1953 C 0.71218 0.87948 0.3072 0.0
N1954 N 0.77752 0.91917 0.22105 0.0
N1955 N 0.73377 0.87919 0.28317 0.0
H1956 H 0.41182 0.47058 0.59459 0.0
H1957 H 0.33741 0.56912 0.43804 0.0
H1958 H 0.34193 0.45932 0.53169 0.0
H1959 H 0.41266 0.57385 0.45053 0.0
H1960 H 0.33898 0.52982 0.47707 0.0
H1961 H 0.41275 0.50893 0.54879 0.0
C1962 C 0.39661 0.4761 0.57147 0.0
C1963 C 0.37667 0.46142 0.56772 0.0
C1964 C 0.35526 0.53922 0.47099 0.0
C1965 C 0.37769 0.50572 0.51465 0.0
C1966 C 0.35438 0.56176 0.44842 0.0
C1967 C 0.37492 0.57487 0.43987 0.0
C1968 C 0.37686 0.52951 0.48726 0.0
C1969 C 0.39636 0.56434 0.45527 0.0
C1970 C 0.39725 0.49802 0.54493 0.0
C1971 C 0.3577 0.46974 0.53633 0.0
N1972 N 0.39675 0.54247 0.47856 0.0
N1973 N 0.35865 0.49115 0.51169 0.0
H1974 H 0.81712 0.10041 0.77122 0.0
H1975 H 0.69118 0.16114 0.71947 0.0
H1976 H 0.79697 0.16514 0.8483 0.0
H1977 H 0.70921 0.09191 0.66388 0.0
H1978 H 0.73076 0.16512 0.75926 0.0
H1979 H 0.77903 0.09908 0.7255 0.0
C1980 C 0.80475 0.11443 0.77869 0.0
C1981 C 0.81052 0.13287 0.81435 0.0
C1982 C 0.7262 0.14916 0.7378 0.0
C1983 C 0.76622 0.13143 0.76103 0.0
C1984 C 0.70364 0.14699 0.7145 0.0
C1985 C 0.69696 0.12634 0.68705 0.0
C1986 C 0.74231 0.1305 0.73416 0.0
C1987 C 0.71368 0.10829 0.68372 0.0
C1988 C 0.78284 0.11361 0.75238 0.0
C1989 C 0.79342 0.15043 0.82179 0.0
N1990 N 0.73543 0.11079 0.70672 0.0
N1991 N 0.77218 0.14928 0.7955 0.0
H1992 H 0.84333 0.5616 0.01756 0.0
H1993 H 0.91274 0.4411 0.96102 0.0
H1994 H 0.9084 0.54428 0.09813 0.0
H1995 H 0.84229 0.45482 0.90562 0.0
H1996 H 0.91386 0.48028 1.0032 0.0
H1997 H 0.84473 0.52414 0.96989 0.0
C1998 C 0.85793 0.54993 0.02553 0.0
C1999 C 0.87569 0.55629 0.06258 0.0
C2000 C 0.89826 0.47487 0.98122 0.0
C2001 C 0.87751 0.5129 1.00686 0.0
C2002 C 0.89772 0.45259 0.95656 0.0
C2003 C 0.87754 0.44483 0.92865 0.0
C2004 C 0.87841 0.48955 0.97834 0.0
C2005 C 0.85834 0.46022 0.92579 0.0
C2006 C 0.85872 0.52843 0.99804 0.0
C2007 C 0.89415 0.54019 0.07055 0.0
N2008 N 0.85926 0.48171 0.95012 0.0
N2009 N 0.8946 0.51935 0.04296 0.0
H2010 H 0.20474 0.09178 0.79384 0.0
H2011 H 0.32518 0.15513 0.70801 0.0
H2012 H 0.22379 0.15987 0.8571 0.0
H2013 H 0.31097 0.08123 0.69021 0.0
H2014 H 0.28655 0.15995 0.7514 0.0
H2015 H 0.24171 0.09029 0.74605 0.0
C2016 C 0.21667 0.10651 0.79793 0.0
C2017 C 0.21086 0.12596 0.8302 0.0
C2018 C 0.29183 0.14274 0.7375 0.0
C2019 C 0.25396 0.12437 0.77398 0.0
C2020 C 0.31378 0.14003 0.71214 0.0
C2021 C 0.32133 0.11772 0.69483 0.0
C2022 C 0.2772 0.12305 0.74526 0.0
C2023 C 0.30592 0.09875 0.70247 0.0
C2024 C 0.23795 0.10561 0.77034 0.0
C2025 C 0.22741 0.1444 0.83319 0.0
N2026 N 0.28481 0.10185 0.72675 0.0
N2027 N 0.2481 0.1432 0.80542 0.0
H2028 H 0.60864 0.54725 0.42774 0.0
H2029 H 0.67968 0.46067 0.62469 0.0
H2030 H 0.67667 0.56318 0.49655 0.0
H2031 H 0.60756 0.44866 0.57895 0.0
H2032 H 0.67837 0.49866 0.57891 0.0
H2033 H 0.6076 0.5111 0.48138 0.0
C2034 C 0.62342 0.54315 0.45376 0.0
C2035 C 0.64286 0.55836 0.45703 0.0
C2036 C 0.66268 0.48794 0.5794 0.0
C2037 C 0.64165 0.51699 0.51923 0.0
C2038 C 0.66341 0.46631 0.60593 0.0
C2039 C 0.64361 0.45168 0.60657 0.0
C2040 C 0.64214 0.49488 0.55186 0.0
C2041 C 0.62311 0.4596 0.58037 0.0
C2042 C 0.62272 0.52256 0.48473 0.0
C2043 C 0.66131 0.55212 0.49222 0.0
N2044 N 0.62296 0.48054 0.55378 0.0
N2045 N 0.66027 0.53202 0.52156 0.0
H2046 H 0.32571 0.90705 0.24355 0.0
H2047 H 0.19274 0.86368 0.25076 0.0
H2048 H 0.30206 0.85458 0.35516 0.0
H2049 H 0.22233 0.89526 0.10979 0.0
H2050 H 0.23191 0.86183 0.29166 0.0
H2051 H 0.2878 0.90495 0.19714 0.0
C2052 C 0.31259 0.89509 0.25873 0.0
C2053 C 0.31731 0.88114 0.3043 0.0
C2054 C 0.22997 0.86895 0.25158 0.0
C2055 C 0.27326 0.87883 0.25054 0.0
C2056 C 0.20756 0.87002 0.22805 0.0
C2057 C 0.20413 0.87961 0.17653 0.0
C2058 C 0.24936 0.878 0.22416 0.0
C2059 C 0.22409 0.88754 0.14929 0.0
C2060 C 0.29087 0.89388 0.23177 0.0
C2061 C 0.29933 0.86598 0.32112 0.0
N2062 N 0.24576 0.88686 0.17368 0.0
N2063 N 0.27815 0.86539 0.29467 0.0
H2064 H 0.66491 0.94661 0.50812 0.0
H2065 H 0.61082 0.07516 0.51238 0.0
H2066 H 0.60725 0.96678 0.40447 0.0
H2067 H 0.6465 0.04623 0.65048 0.0
H2068 H 0.61126 0.03649 0.46946 0.0
H2069 H 0.66073 0.98357 0.55729 0.0
C2070 C 0.65141 0.95878 0.49533 0.0
C2071 C 0.63661 0.95348 0.45119 0.0
C2072 C 0.61879 0.03846 0.50936 0.0
C2073 C 0.63187 0.99622 0.50784 0.0
C2074 C 0.61855 0.06056 0.53396 0.0
C2075 C 0.62862 0.06397 0.5852 0.0
C2076 C 0.62966 0.01951 0.53547 0.0
C2077 C 0.63838 0.04437 0.61118 0.0
C2078 C 0.64899 0.9799 0.5238 0.0
C2079 C 0.61938 0.97011 0.43729 0.0
N2080 N 0.63896 0.02306 0.58573 0.0
N2081 N 0.61765 0.99073 0.4651 0.0
H2082 H 0.20638 0.36178 0.83358 0.0
H2083 H 0.30805 0.44219 0.70501 0.0
H2084 H 0.20662 0.43733 0.82721 0.0
H2085 H 0.31421 0.36687 0.70766 0.0
H2086 H 0.27012 0.43921 0.74829 0.0
H2087 H 0.2453 0.3616 0.78978 0.0
C2088 C 0.21474 0.37829 0.82391 0.0
C2089 C 0.2032 0.39966 0.83462 0.0
C2090 C 0.2795 0.42318 0.73933 0.0
C2091 C 0.24742 0.39957 0.78316 0.0
C2092 C 0.30123 0.42491 0.71414 0.0
C2093 C 0.31438 0.4048 0.70197 0.0
C2094 C 0.27047 0.4011 0.75373 0.0
C2095 C 0.30458 0.38286 0.7155 0.0
C2096 C 0.23686 0.37818 0.7984 0.0
C2097 C 0.21476 0.42045 0.82007 0.0
N2098 N 0.28329 0.38159 0.7408 0.0
N2099 N 0.23593 0.41985 0.79532 0.0
H2100 H 0.905 0.9728 0.11193 0.0
H2101 H 0.83137 0.06162 0.92821 0.0
H2102 H 0.84393 0.95303 0.01837 0.0
H2103 H 0.90419 0.07526 0.9643 0.0
H2104 H 0.83534 0.02259 0.96756 0.0
H2105 H 0.90479 0.0113 0.06638 0.0
C2106 C 0.89142 0.9765 0.08245 0.0
C2107 C 0.87418 0.95949 0.07007 0.0
C2108 C 0.85061 0.0339 0.96648 0.0
C2109 C 0.87398 1.00355 0.01735 0.0
C2110 C 0.84835 0.05619 0.9437 0.0
C2111 C 0.86753 0.07162 0.94203 0.0
C2112 C 0.87209 0.02693 0.98971 0.0
C2113 C 0.88905 0.06376 0.96377 0.0
C2114 C 0.89147 0.99843 0.05604 0.0
C2115 C 0.85741 0.96535 0.03036 0.0
N2116 N 0.8907 0.04208 0.98728 0.0
N2117 N 0.85765 0.98672 1.00609 0.0
H2118 H 0.22405 0.62969 0.11175 0.0
H2119 H 0.30444 0.66881 0.3655 0.0
H2120 H 0.19496 0.65818 0.25703 0.0
H2121 H 0.32617 0.61703 0.24942 0.0
H2122 H 0.26592 0.67062 0.32008 0.0
H2123 H 0.26333 0.63099 0.15421 0.0
C2124 C 0.22592 0.63664 0.15208 0.0
C2125 C 0.20603 0.64387 0.18061 0.0
C2126 C 0.27917 0.65886 0.30465 0.0
C2127 C 0.25113 0.64537 0.22988 0.0
C2128 C 0.30121 0.65771 0.33088 0.0
C2129 C 0.31877 0.6424 0.3124 0.0
C2130 C 0.27462 0.64507 0.25852 0.0
C2131 C 0.31339 0.62898 0.26597 0.0
C2132 C 0.24836 0.63717 0.17661 0.0
C2133 C 0.20969 0.65232 0.23339 0.0
N2134 N 0.29204 0.63069 0.24082 0.0
N2135 N 0.23162 0.65288 0.2561 0.0
H2136 H 0.34033 0.95296 0.43179 0.0
H2137 H 0.41791 0.04629 0.59766 0.0
H2138 H 0.41511 0.9441 0.44635 0.0
H2139 H 0.35085 0.06263 0.52532 0.0
H2140 H 0.41737 1.00811 0.55011 0.0
H2141 H 0.34393 0.99212 0.47148 0.0
C2142 C 0.35764 0.95942 0.44262 0.0
C2143 C 0.37745 0.9452 0.43443 0.0
C2144 C 0.40284 0.02013 0.54452 0.0
C2145 C 0.3817 0.99032 0.48295 0.0
C2146 C 0.40305 0.04195 0.57198 0.0
C2147 C 0.38437 0.058 0.56594 0.0
C2148 C 0.38362 0.01393 0.5112 0.0
C2149 C 0.36572 0.05112 0.53163 0.0
C2150 C 0.35968 0.98186 0.46563 0.0
C2151 C 0.39938 0.95453 0.45063 0.0
N2152 N 0.36578 0.02979 0.50626 0.0
N2153 N 0.40088 0.97632 0.47456 0.0
H2154 H 0.81473 0.64773 0.19261 0.0
H2155 H 0.70997 0.57239 0.32356 0.0
H2156 H 0.81186 0.57228 0.20111 0.0
H2157 H 0.70594 0.64771 0.31296 0.0
H2158 H 0.74855 0.57349 0.28269 0.0
H2159 H 0.77599 0.6496 0.23654 0.0
C2160 C 0.80583 0.63157 0.20284 0.0
C2161 C 0.81654 0.60975 0.19236 0.0
C2162 C 0.7395 0.58992 0.28943 0.0
C2163 C 0.77248 0.61178 0.24429 0.0
C2164 C 0.71741 0.58929 0.31329 0.0
C2165 C 0.70463 0.60995 0.3223 0.0
C2166 C 0.74925 0.61143 0.27324 0.0
C2167 C 0.71523 0.63133 0.30749 0.0
C2168 C 0.7838 0.63265 0.22844 0.0
C2169 C 0.80433 0.58947 0.20781 0.0
N2170 N 0.73684 0.63151 0.28344 0.0
N2171 N 0.78323 0.591 0.23281 0.0
H2172 H 0.19019 0.06123 0.96966 0.0
H2173 H 0.10923 0.95205 0.05813 0.0
H2174 H 0.11487 0.06577 0.95943 0.0
H2175 H 0.18288 0.95908 0.09471 0.0
H2176 H 0.10953 0.992 0.01927 0.0
H2177 H 0.18677 0.02228 1.00902 0.0
C2178 C 0.17282 0.0539 0.97508 0.0
C2179 C 0.15286 0.06699 0.96046 0.0
C2180 C 0.12555 0.98493 0.03644 0.0
C2181 C 0.14866 0.02165 1.00731 0.0
C2182 C 0.12534 0.96216 0.05924 0.0
C2183 C 0.14597 0.95223 0.08123 0.0
C2184 C 0.14669 0.9978 0.03424 0.0
C2185 C 0.16645 0.96601 0.07936 0.0
C2186 C 0.17086 0.03156 0.99807 0.0
C2187 C 0.13082 0.05635 0.96919 0.0
N2188 N 0.16628 0.98776 0.05637 0.0
N2189 N 0.12932 0.03439 0.99195 0.0
H2190 H 0.68971 0.38629 0.79804 0.0
H2191 H 0.82794 0.37368 0.74505 0.0
H2192 H 0.71919 0.38179 0.63961 0.0
H2193 H 0.79909 0.3838 0.90277 0.0
H2194 H 0.78837 0.37433 0.70671 0.0
H2195 H 0.72905 0.38328 0.83691 0.0
C2196 C 0.70441 0.38471 0.77107 0.0
C2197 C 0.70078 0.38447 0.7149 0.0
C2198 C 0.79058 0.37632 0.74974 0.0
C2199 C 0.74654 0.38069 0.76016 0.0
C2200 C 0.8133 0.37604 0.77191 0.0
C2201 C 0.81717 0.37885 0.82762 0.0
C2202 C 0.77113 0.37939 0.78317 0.0
C2203 C 0.7972 0.38134 0.85989 0.0
C2204 C 0.727 0.38289 0.79362 0.0
C2205 C 0.72081 0.38189 0.68283 0.0
N2206 N 0.77517 0.38166 0.83726 0.0
N2207 N 0.74269 0.38019 0.7058 0.0
loop_
_geom_bond_atom_site_label_1
_geom_bond_atom_site_label_2
_geom_bond_distance
_geom_bond_site_symmetry_2
_ccdc_geom_bond_type
Gd0 N31 2.661 . S
Gd0 N37 2.601 . S
Gd0 O44 2.545 1_554 S
Gd0 O45 2.606 . S
Gd0 O47 2.429 . S
Gd0 O48 2.545 . S
Gd0 O49 2.412 1_554 S
Gd0 O51 2.362 . S
Gd0 O52 2.324 . S
Gd0 C59 2.828 1_554 S
Gd1 N10 2.661 . S
Gd1 N14 2.601 . S
Gd1 O45 2.362 . S
Gd1 O46 2.324 . S
Gd1 O50 2.545 . S
Gd1 O51 2.606 . S
Gd1 O53 2.429 . S
Gd1 O54 2.545 . S
Gd1 O55 2.412 . S
Gd1 C68 2.828 . S
C2 C5 1.417 . S
C2 C7 1.431 . S
C2 C8 1.412 . S
C3 C6 1.437 . S
C3 C7 1.317 . S
C3 H22 0.929 . S
C4 C5 1.426 . S
C4 C6 1.413 . S
C4 N14 1.359 . S
C5 C2 1.417 . S
C5 C4 1.426 . S
C5 N10 1.350 . S
C6 C3 1.437 . S
C6 C4 1.413 . S
C6 C16 1.391 . S
C7 C2 1.431 . S
C7 C3 1.317 . S
C7 H18 0.930 . S
C8 C2 1.412 . S
C8 C9 1.355 . S
C8 H20 0.930 . S
C9 C8 1.355 . S
C9 C11 1.402 . S
C9 H21 0.930 . S
N10 Gd1 2.661 . S
N10 C5 1.350 . S
N10 C11 1.307 . S
C11 C9 1.402 . S
C11 N10 1.307 . S
C11 H12 0.930 . S
H12 C11 0.930 . S
C13 N14 1.334 . S
C13 C15 1.394 . S
C13 H17 0.930 . S
N14 Gd1 2.601 . S
N14 C4 1.359 . S
N14 C13 1.334 . S
C15 C13 1.394 . S
C15 C16 1.359 . S
C15 H27 0.930 . S
C16 C6 1.391 . S
C16 C15 1.359 . S
C16 H28 0.929 . S
H17 C13 0.930 . S
H18 C7 0.930 . S
H19 C36 0.930 . S
H20 C8 0.930 . S
H21 C9 0.930 . S
H22 C3 0.929 . S
H23 C41 0.930 . S
H24 C32 0.930 . S
H25 C33 0.930 . S
H26 C57 0.929 . S
H27 C15 0.930 . S
H28 C16 0.929 . S
H29 C58 0.930 1_556 S
H30 C39 0.930 1_556 S
N31 Gd0 2.661 . S
N31 C35 1.350 . S
N31 C36 1.307 . S
C32 H24 0.930 . S
C32 C33 1.355 . S
C32 C34 1.412 . S
C33 H25 0.930 . S
C33 C32 1.355 . S
C33 C36 1.402 . S
C34 C32 1.412 . S
C34 C35 1.417 . S
C34 C58 1.431 . S
C35 N31 1.350 . S
C35 C34 1.417 . S
C35 C38 1.426 . S
C36 H19 0.930 . S
C36 N31 1.307 . S
C36 C33 1.402 . S
N37 Gd0 2.601 . S
N37 C38 1.359 . S
N37 C41 1.334 . S
C38 C35 1.426 . S
C38 N37 1.359 . S
C38 C42 1.413 . S
C39 H30 0.930 1_554 S
C39 C40 1.359 1_554 S
C39 C41 1.394 . S
C40 C39 1.359 1_556 S
C40 C42 1.391 1_556 S
C40 H43 0.929 . S
C41 H23 0.930 . S
C41 N37 1.334 . S
C41 C39 1.394 . S
C42 C38 1.413 . S
C42 C40 1.391 1_554 S
C42 C57 1.437 1_554 S
H43 C40 0.929 . S
O44 Gd0 2.545 1_556 S
O44 C59 1.258 . S
O45 Gd0 2.606 . S
O45 Gd1 2.362 . S
O45 C56 1.284 . S
O46 Gd1 2.324 . S
O46 C66 1.254 . S
O47 Gd0 2.429 . S
O47 C66 1.268 . S
O48 Gd0 2.545 . S
O48 C56 1.250 . S
O49 Gd0 2.412 1_556 S
O49 C59 1.252 . S
O50 Gd1 2.545 . S
O50 C68 1.258 . S
O51 Gd0 2.362 . S
O51 Gd1 2.606 . S
O51 C67 1.284 . S
O52 Gd0 2.324 . S
O52 C75 1.254 . S
O53 Gd1 2.429 . S
O53 C75 1.268 . S
O54 Gd1 2.545 . S
O54 C67 1.250 . S
O55 Gd1 2.412 . S
O55 C68 1.252 . S
C56 O45 1.284 . S
C56 O48 1.250 . S
C57 H26 0.929 . S
C57 C42 1.437 1_556 S
C57 C58 1.317 1_556 S
C58 H29 0.930 1_554 S
C58 C34 1.431 . S
C58 C57 1.317 1_554 S
C59 Gd0 2.828 1_556 S
C59 O44 1.258 . S
C59 O49 1.252 . S
C59 C60 1.497 . S
C60 C59 1.497 . S
C60 C61 1.395 . S
C60 C62 1.380 . S
C61 C60 1.395 . S
C61 C64 1.398 . S
C61 H76 0.930 . S
C62 C60 1.380 . S
C62 C63 1.391 . S
C62 H77 0.930 . S
C63 C62 1.391 . S
C63 C65 1.387 . S
C64 C61 1.398 . S
C64 C65 1.380 . S
C64 H78 0.930 . S
C65 C63 1.387 . S
C65 C64 1.380 . S
C65 H79 0.930 . S
C66 O46 1.254 . S
C66 O47 1.268 . S
C67 O51 1.284 . S
C67 O54 1.250 . S
C68 Gd1 2.828 . S
C68 O50 1.258 . S
C68 O55 1.252 . S
C68 C69 1.497 . S
C69 C68 1.497 . S
C69 C70 1.395 . S
C69 C71 1.380 . S
C70 C69 1.395 . S
C70 C73 1.398 . S
C70 H80 0.930 . S
C71 C69 1.380 . S
C71 C72 1.391 . S
C71 H81 0.930 . S
C72 C71 1.391 . S
C72 C74 1.387 . S
C73 C70 1.398 . S
C73 C74 1.380 . S
C73 H82 0.930 . S
C74 C72 1.387 . S
C74 C73 1.380 . S
C74 H83 0.930 . S
C75 O52 1.254 . S
C75 O53 1.268 . S
H76 C61 0.930 . S
H77 C62 0.930 . S
H78 C64 0.930 . S
H79 C65 0.930 . S
H80 C70 0.930 . S
H81 C71 0.930 . S
H82 C73 0.930 . S
H83 C74 0.930 . S
Gd84 N115 2.661 . S
Gd84 N121 2.601 . S
Gd84 O128 2.545 . S
Gd84 O129 2.606 . S
Gd84 O131 2.429 . S
Gd84 O132 2.545 . S
Gd84 O133 2.412 . S
Gd84 O135 2.362 . S
Gd84 O136 2.324 . S
Gd84 C143 2.828 . S
Gd85 N94 2.661 . S
Gd85 N98 2.601 . S
Gd85 O129 2.362 . S
Gd85 O130 2.324 . S
Gd85 O134 2.545 . S
Gd85 O135 2.606 . S
Gd85 O137 2.429 . S
Gd85 O138 2.545 . S
Gd85 O139 2.412 . S
Gd85 C152 2.828 . S
C86 C89 1.417 . S
C86 C91 1.431 . S
C86 C92 1.412 . S
C87 C90 1.437 . S
C87 C91 1.317 . S
C87 H106 0.929 . S
C88 C89 1.426 . S
C88 C90 1.413 . S
C88 N98 1.359 . S
C89 C86 1.417 . S
C89 C88 1.426 . S
C89 N94 1.350 . S
C90 C87 1.437 . S
C90 C88 1.413 . S
C90 C100 1.391 . S
C91 C86 1.431 . S
C91 C87 1.317 . S
C91 H102 0.930 . S
C92 C86 1.412 . S
C92 C93 1.355 . S
C92 H104 0.930 . S
C93 C92 1.355 . S
C93 C95 1.402 . S
C93 H105 0.930 . S
N94 Gd85 2.661 . S
N94 C89 1.350 . S
N94 C95 1.307 . S
C95 C93 1.402 . S
C95 N94 1.307 . S
C95 H96 0.930 . S
H96 C95 0.930 . S
C97 N98 1.334 . S
C97 C99 1.394 . S
C97 H101 0.930 . S
N98 Gd85 2.601 . S
N98 C88 1.359 . S
N98 C97 1.334 . S
C99 C97 1.394 . S
C99 C100 1.359 . S
C99 H111 0.930 . S
C100 C90 1.391 . S
C100 C99 1.359 . S
C100 H112 0.929 . S
H101 C97 0.930 . S
H102 C91 0.930 . S
H103 C120 0.930 . S
H104 C92 0.930 . S
H105 C93 0.930 . S
H106 C87 0.929 . S
H107 C125 0.930 . S
H108 C116 0.930 . S
H109 C117 0.930 . S
H110 C141 0.929 . S
H111 C99 0.930 . S
H112 C100 0.929 . S
H113 C142 0.930 . S
H114 C123 0.930 . S
N115 Gd84 2.661 . S
N115 C119 1.350 . S
N115 C120 1.307 . S
C116 H108 0.930 . S
C116 C117 1.355 . S
C116 C118 1.412 . S
C117 H109 0.930 . S
C117 C116 1.355 . S
C117 C120 1.402 . S
C118 C116 1.412 . S
C118 C119 1.417 . S
C118 C142 1.431 . S
C119 N115 1.350 . S
C119 C118 1.417 . S
C119 C122 1.426 . S
C120 H103 0.930 . S
C120 N115 1.307 . S
C120 C117 1.402 . S
N121 Gd84 2.601 . S
N121 C122 1.359 . S
N121 C125 1.334 . S
C122 C119 1.426 . S
C122 N121 1.359 . S
C122 C126 1.413 . S
C123 H114 0.930 . S
C123 C124 1.359 . S
C123 C125 1.394 . S
C124 C123 1.359 . S
C124 C126 1.391 . S
C124 H127 0.929 . S
C125 H107 0.930 . S
C125 N121 1.334 . S
C125 C123 1.394 . S
C126 C122 1.413 . S
C126 C124 1.391 . S
C126 C141 1.437 . S
H127 C124 0.929 . S
O128 Gd84 2.545 . S
O128 C143 1.258 . S
O129 Gd84 2.606 . S
O129 Gd85 2.362 . S
O129 C140 1.284 . S
O130 Gd85 2.324 . S
O130 C150 1.254 . S
O131 Gd84 2.429 . S
O131 C150 1.268 . S
O132 Gd84 2.545 . S
O132 C140 1.250 . S
O133 Gd84 2.412 . S
O133 C143 1.252 . S
O134 Gd85 2.545 . S
O134 C152 1.258 . S
O135 Gd84 2.362 . S
O135 Gd85 2.606 . S
O135 C151 1.284 . S
O136 Gd84 2.324 . S
O136 C159 1.254 . S
O137 Gd85 2.429 . S
O137 C159 1.268 . S
O138 Gd85 2.545 . S
O138 C151 1.250 . S
O139 Gd85 2.412 . S
O139 C152 1.252 . S
C140 O129 1.284 . S
C140 O132 1.250 . S
C141 H110 0.929 . S
C141 C126 1.437 . S
C141 C142 1.317 . S
C142 H113 0.930 . S
C142 C118 1.431 . S
C142 C141 1.317 . S
C143 Gd84 2.828 . S
C143 O128 1.258 . S
C143 O133 1.252 . S
C143 C144 1.497 . S
C144 C143 1.497 . S
C144 C145 1.395 . S
C144 C146 1.380 . S
C145 C144 1.395 . S
C145 C148 1.398 . S
C145 H160 0.930 . S
C146 C144 1.380 . S
C146 C147 1.391 . S
C146 H161 0.930 . S
C147 C146 1.391 . S
C147 C149 1.387 . S
C148 C145 1.398 . S
C148 C149 1.380 . S
C148 H162 0.930 . S
C149 C147 1.387 . S
C149 C148 1.380 . S
C149 H163 0.930 1_554 S
C150 O130 1.254 . S
C150 O131 1.268 . S
C151 O135 1.284 . S
C151 O138 1.250 . S
C152 Gd85 2.828 . S
C152 O134 1.258 . S
C152 O139 1.252 . S
C152 C153 1.497 . S
C153 C152 1.497 . S
C153 C154 1.395 . S
C153 C155 1.380 . S
C154 C153 1.395 . S
C154 C157 1.398 . S
C154 H164 0.930 . S
C155 C153 1.380 . S
C155 C156 1.391 . S
C155 H165 0.930 . S
C156 C155 1.391 . S
C156 C158 1.387 . S
C157 C154 1.398 . S
C157 C158 1.380 . S
C157 H166 0.930 . S
C158 C156 1.387 . S
C158 C157 1.380 . S
C158 H167 0.930 . S
C159 O136 1.254 . S
C159 O137 1.268 . S
H160 C145 0.930 . S
H161 C146 0.930 . S
H162 C148 0.930 . S
H163 C149 0.930 1_556 S
H164 C154 0.930 . S
H165 C155 0.930 . S
H166 C157 0.930 . S
H167 C158 0.930 . S
Gd168 N199 2.661 . S
Gd168 N205 2.601 . S
Gd168 O212 2.545 . S
Gd168 O213 2.606 . S
Gd168 O215 2.429 . S
Gd168 O216 2.545 . S
Gd168 O217 2.412 . S
Gd168 O219 2.362 . S
Gd168 O220 2.324 . S
Gd168 C227 2.828 . S
Gd169 N178 2.661 . S
Gd169 N182 2.601 . S
Gd169 O213 2.362 . S
Gd169 O214 2.324 . S
Gd169 O218 2.545 . S
Gd169 O219 2.606 . S
Gd169 O221 2.429 . S
Gd169 O222 2.545 . S
Gd169 O223 2.412 . S
Gd169 C236 2.828 . S
C170 C173 1.417 . S
C170 C175 1.431 . S
C170 C176 1.412 . S
C171 C174 1.437 . S
C171 C175 1.317 . S
C171 H190 0.929 . S
C172 C173 1.426 . S
C172 C174 1.413 . S
C172 N182 1.359 . S
C173 C170 1.417 . S
C173 C172 1.426 . S
C173 N178 1.350 . S
C174 C171 1.437 . S
C174 C172 1.413 . S
C174 C184 1.391 . S
C175 C170 1.431 . S
C175 C171 1.317 . S
C175 H186 0.930 . S
C176 C170 1.412 . S
C176 C177 1.355 . S
C176 H188 0.930 . S
C177 C176 1.355 . S
C177 C179 1.402 . S
C177 H189 0.930 . S
N178 Gd169 2.661 . S
N178 C173 1.350 . S
N178 C179 1.307 . S
C179 C177 1.402 . S
C179 N178 1.307 . S
C179 H180 0.930 . S
H180 C179 0.930 . S
C181 N182 1.334 . S
C181 C183 1.394 . S
C181 H185 0.930 . S
N182 Gd169 2.601 . S
N182 C172 1.359 . S
N182 C181 1.334 . S
C183 C181 1.394 . S
C183 C184 1.359 . S
C183 H195 0.930 . S
C184 C174 1.391 . S
C184 C183 1.359 . S
C184 H196 0.929 . S
H185 C181 0.930 . S
H186 C175 0.930 . S
H187 C204 0.930 . S
H188 C176 0.930 . S
H189 C177 0.930 . S
H190 C171 0.929 . S
H191 C209 0.930 . S
H192 C200 0.930 . S
H193 C201 0.930 . S
H194 C225 0.929 . S
H195 C183 0.930 . S
H196 C184 0.929 . S
H197 C226 0.930 . S
H198 C207 0.930 . S
N199 Gd168 2.661 . S
N199 C203 1.350 . S
N199 C204 1.307 . S
C200 H192 0.930 . S
C200 C201 1.355 . S
C200 C202 1.412 . S
C201 H193 0.930 . S
C201 C200 1.355 . S
C201 C204 1.402 . S
C202 C200 1.412 . S
C202 C203 1.417 . S
C202 C226 1.431 . S
C203 N199 1.350 . S
C203 C202 1.417 . S
C203 C206 1.426 . S
C204 H187 0.930 . S
C204 N199 1.307 . S
C204 C201 1.402 . S
N205 Gd168 2.601 . S
N205 C206 1.359 . S
N205 C209 1.334 . S
C206 C203 1.426 . S
C206 N205 1.359 . S
C206 C210 1.413 . S
C207 H198 0.930 . S
C207 C208 1.359 . S
C207 C209 1.394 . S
C208 C207 1.359 . S
C208 C210 1.391 . S
C208 H211 0.929 . S
C209 H191 0.930 . S
C209 N205 1.334 . S
C209 C207 1.394 . S
C210 C206 1.413 . S
C210 C208 1.391 . S
C210 C225 1.437 . S
H211 C208 0.929 . S
O212 Gd168 2.545 . S
O212 C227 1.258 . S
O213 Gd168 2.606 . S
O213 Gd169 2.362 . S
O213 C224 1.284 . S
O214 Gd169 2.324 . S
O214 C234 1.254 . S
O215 Gd168 2.429 . S
O215 C234 1.268 . S
O216 Gd168 2.545 . S
O216 C224 1.250 . S
O217 Gd168 2.412 . S
O217 C227 1.252 . S
O218 Gd169 2.545 . S
O218 C236 1.258 . S
O219 Gd168 2.362 . S
O219 Gd169 2.606 . S
O219 C235 1.284 . S
O220 Gd168 2.324 . S
O220 C243 1.254 . S
O221 Gd169 2.429 . S
O221 C243 1.268 . S
O222 Gd169 2.545 . S
O222 C235 1.250 . S
O223 Gd169 2.412 . S
O223 C236 1.252 . S
C224 O213 1.284 . S
C224 O216 1.250 . S
C225 H194 0.929 . S
C225 C210 1.437 . S
C225 C226 1.317 . S
C226 H197 0.930 . S
C226 C202 1.431 . S
C226 C225 1.317 . S
C227 Gd168 2.828 . S
C227 O212 1.258 . S
C227 O217 1.252 . S
C227 C228 1.497 . S
C228 C227 1.497 . S
C228 C229 1.395 . S
C228 C230 1.380 . S
C229 C228 1.395 . S
C229 C232 1.398 . S
C229 H244 0.930 . S
C230 C228 1.380 . S
C230 C231 1.391 . S
C230 H245 0.930 . S
C231 C230 1.391 . S
C231 C233 1.387 . S
C232 C229 1.398 . S
C232 C233 1.380 . S
C232 H246 0.930 . S
C233 C231 1.387 . S
C233 C232 1.380 . S
C233 H247 0.930 1_556 S
C234 O214 1.254 . S
C234 O215 1.268 . S
C235 O219 1.284 . S
C235 O222 1.250 . S
C236 Gd169 2.828 . S
C236 O218 1.258 . S
C236 O223 1.252 . S
C236 C237 1.497 . S
C237 C236 1.497 . S
C237 C238 1.395 . S
C237 C239 1.380 . S
C238 C237 1.395 . S
C238 C241 1.398 . S
C238 H248 0.930 . S
C239 C237 1.380 . S
C239 C240 1.391 . S
C239 H249 0.930 . S
C240 C239 1.391 . S
C240 C242 1.387 . S
C241 C238 1.398 . S
C241 C242 1.380 . S
C241 H250 0.930 . S
C242 C240 1.387 . S
C242 C241 1.380 . S
C242 H251 0.930 . S
C243 O220 1.254 . S
C243 O221 1.268 . S
H244 C229 0.930 . S
H245 C230 0.930 . S
H246 C232 0.930 . S
H247 C233 0.930 1_554 S
H248 C238 0.930 . S
H249 C239 0.930 . S
H250 C241 0.930 . S
H251 C242 0.930 . S
Gd252 N283 2.661 . S
Gd252 N289 2.601 . S
Gd252 O296 2.545 1_556 S
Gd252 O297 2.606 . S
Gd252 O299 2.429 . S
Gd252 O300 2.545 . S
Gd252 O301 2.412 1_556 S
Gd252 O303 2.362 . S
Gd252 O304 2.324 . S
Gd252 C311 2.828 1_556 S
Gd253 N262 2.661 . S
Gd253 N266 2.601 . S
Gd253 O297 2.362 . S
Gd253 O298 2.324 . S
Gd253 O302 2.545 . S
Gd253 O303 2.606 . S
Gd253 O305 2.429 . S
Gd253 O306 2.545 . S
Gd253 O307 2.412 . S
Gd253 C320 2.828 . S
C254 C257 1.417 . S
C254 C259 1.431 . S
C254 C260 1.412 . S
C255 C258 1.437 . S
C255 C259 1.317 . S
C255 H274 0.929 . S
C256 C257 1.426 . S
C256 C258 1.413 . S
C256 N266 1.359 . S
C257 C254 1.417 . S
C257 C256 1.426 . S
C257 N262 1.350 . S
C258 C255 1.437 . S
C258 C256 1.413 . S
C258 C268 1.391 . S
C259 C254 1.431 . S
C259 C255 1.317 . S
C259 H270 0.930 1_545 S
C260 C254 1.412 . S
C260 C261 1.355 . S
C260 H272 0.930 . S
C261 C260 1.355 . S
C261 C263 1.402 . S
C261 H273 0.930 . S
N262 Gd253 2.661 . S
N262 C257 1.350 . S
N262 C263 1.307 . S
C263 C261 1.402 . S
C263 N262 1.307 . S
C263 H264 0.930 . S
H264 C263 0.930 . S
C265 N266 1.334 . S
C265 C267 1.394 . S
C265 H269 0.930 . S
N266 Gd253 2.601 . S
N266 C256 1.359 . S
N266 C265 1.334 . S
C267 C265 1.394 . S
C267 C268 1.359 . S
C267 H279 0.930 . S
C268 C258 1.391 . S
C268 C267 1.359 . S
C268 H280 0.929 . S
H269 C265 0.930 . S
H270 C259 0.930 1_565 S
H271 C288 0.930 . S
H272 C260 0.930 . S
H273 C261 0.930 . S
H274 C255 0.929 . S
H275 C293 0.930 . S
H276 C284 0.930 . S
H277 C285 0.930 . S
H278 C309 0.929 . S
H279 C267 0.930 . S
H280 C268 0.929 . S
H281 C310 0.930 1_554 S
H282 C291 0.930 1_554 S
N283 Gd252 2.661 . S
N283 C287 1.350 . S
N283 C288 1.307 . S
C284 H276 0.930 . S
C284 C285 1.355 . S
C284 C286 1.412 . S
C285 H277 0.930 . S
C285 C284 1.355 . S
C285 C288 1.402 . S
C286 C284 1.412 . S
C286 C287 1.417 . S
C286 C310 1.431 . S
C287 N283 1.350 . S
C287 C286 1.417 . S
C287 C290 1.426 . S
C288 H271 0.930 . S
C288 N283 1.307 . S
C288 C285 1.402 . S
N289 Gd252 2.601 . S
N289 C290 1.359 . S
N289 C293 1.334 . S
C290 C287 1.426 . S
C290 N289 1.359 . S
C290 C294 1.413 . S
C291 H282 0.930 1_556 S
C291 C292 1.359 1_556 S
C291 C293 1.394 . S
C292 C291 1.359 1_554 S
C292 C294 1.391 1_554 S
C292 H295 0.929 . S
C293 H275 0.930 . S
C293 N289 1.334 . S
C293 C291 1.394 . S
C294 C290 1.413 . S
C294 C292 1.391 1_556 S
C294 C309 1.437 1_556 S
H295 C292 0.929 . S
O296 Gd252 2.545 1_554 S
O296 C311 1.258 . S
O297 Gd252 2.606 . S
O297 Gd253 2.362 . S
O297 C308 1.284 . S
O298 Gd253 2.324 . S
O298 C318 1.254 . S
O299 Gd252 2.429 . S
O299 C318 1.268 . S
O300 Gd252 2.545 . S
O300 C308 1.250 . S
O301 Gd252 2.412 1_554 S
O301 C311 1.252 . S
O302 Gd253 2.545 . S
O302 C320 1.258 . S
O303 Gd252 2.362 . S
O303 Gd253 2.606 . S
O303 C319 1.284 . S
O304 Gd252 2.324 . S
O304 C327 1.254 . S
O305 Gd253 2.429 . S
O305 C327 1.268 . S
O306 Gd253 2.545 . S
O306 C319 1.250 . S
O307 Gd253 2.412 . S
O307 C320 1.252 . S
C308 O297 1.284 . S
C308 O300 1.250 . S
C309 H278 0.929 . S
C309 C294 1.437 1_554 S
C309 C310 1.317 1_554 S
C310 H281 0.930 1_556 S
C310 C286 1.431 . S
C310 C309 1.317 1_556 S
C311 Gd252 2.828 1_554 S
C311 O296 1.258 . S
C311 O301 1.252 . S
C311 C312 1.497 . S
C312 C311 1.497 . S
C312 C313 1.395 . S
C312 C314 1.380 . S
C313 C312 1.395 . S
C313 C316 1.398 . S
C313 H328 0.930 . S
C314 C312 1.380 . S
C314 C315 1.391 . S
C314 H329 0.930 . S
C315 C314 1.391 . S
C315 C317 1.387 . S
C316 C313 1.398 . S
C316 C317 1.380 . S
C316 H330 0.930 . S
C317 C315 1.387 . S
C317 C316 1.380 . S
C317 H331 0.930 . S
C318 O298 1.254 . S
C318 O299 1.268 . S
C319 O303 1.284 . S
C319 O306 1.250 . S
C320 Gd253 2.828 . S
C320 O302 1.258 . S
C320 O307 1.252 . S
C320 C321 1.497 . S
C321 C320 1.497 . S
C321 C322 1.395 . S
C321 C323 1.380 . S
C322 C321 1.395 . S
C322 C325 1.398 . S
C322 H332 0.930 . S
C323 C321 1.380 . S
C323 C324 1.391 . S
C323 H333 0.930 . S
C324 C323 1.391 . S
C324 C326 1.387 . S
C325 C322 1.398 . S
C325 C326 1.380 . S
C325 H334 0.930 . S
C326 C324 1.387 . S
C326 C325 1.380 . S
C326 H335 0.930 . S
C327 O304 1.254 . S
C327 O305 1.268 . S
H328 C313 0.930 . S
H329 C314 0.930 . S
H330 C316 0.930 . S
H331 C317 0.930 . S
H332 C322 0.930 . S
H333 C323 0.930 . S
H334 C325 0.930 . S
H335 C326 0.930 . S
Gd336 N367 2.661 . S
Gd336 N373 2.601 . S
Gd336 O380 2.545 . S
Gd336 O381 2.606 . S
Gd336 O383 2.429 . S
Gd336 O384 2.545 . S
Gd336 O385 2.412 . S
Gd336 O387 2.362 . S
Gd336 O388 2.324 . S
Gd336 C395 2.828 . S
Gd337 N346 2.661 . S
Gd337 N350 2.601 . S
Gd337 O381 2.362 . S
Gd337 O382 2.324 . S
Gd337 O386 2.545 1_556 S
Gd337 O387 2.606 . S
Gd337 O389 2.429 . S
Gd337 O390 2.545 . S
Gd337 O391 2.412 1_556 S
Gd337 C404 2.828 1_556 S
C338 C341 1.417 . S
C338 C343 1.431 . S
C338 C344 1.412 . S
C339 C342 1.437 1_554 S
C339 C343 1.317 1_554 S
C339 H358 0.929 . S
C340 C341 1.426 . S
C340 C342 1.413 . S
C340 N350 1.359 . S
C341 C338 1.417 . S
C341 C340 1.426 . S
C341 N346 1.350 . S
C342 C339 1.437 1_556 S
C342 C340 1.413 . S
C342 C352 1.391 1_556 S
C343 C338 1.431 . S
C343 C339 1.317 1_556 S
C343 H354 0.933 . S
C344 C338 1.412 . S
C344 C345 1.355 . S
C344 H356 0.930 . S
C345 C344 1.355 . S
C345 C347 1.402 . S
C345 H357 0.930 . S
N346 Gd337 2.661 . S
N346 C341 1.350 . S
N346 C347 1.307 . S
C347 C345 1.402 . S
C347 N346 1.307 . S
C347 H348 0.930 . S
H348 C347 0.930 . S
C349 N350 1.334 . S
C349 C351 1.394 . S
C349 H353 0.930 . S
N350 Gd337 2.601 . S
N350 C340 1.359 . S
N350 C349 1.334 . S
C351 C349 1.394 . S
C351 C352 1.359 1_556 S
C351 H363 0.930 . S
C352 C342 1.391 1_554 S
C352 C351 1.359 1_554 S
C352 H364 0.929 . S
H353 C349 0.930 . S
H354 C343 0.933 . S
H355 C372 0.930 . S
H356 C344 0.930 . S
H357 C345 0.930 . S
H358 C339 0.929 . S
H359 C377 0.930 . S
H360 C368 0.930 . S
H361 C369 0.930 . S
H362 C393 0.929 . S
H363 C351 0.930 . S
H364 C352 0.929 . S
H365 C394 0.930 . S
H366 C375 0.930 . S
N367 Gd336 2.661 . S
N367 C371 1.350 . S
N367 C372 1.307 . S
C368 H360 0.930 . S
C368 C369 1.355 . S
C368 C370 1.412 . S
C369 H361 0.930 . S
C369 C368 1.355 . S
C369 C372 1.402 . S
C370 C368 1.412 . S
C370 C371 1.417 . S
C370 C394 1.431 . S
C371 N367 1.350 . S
C371 C370 1.417 . S
C371 C374 1.426 . S
C372 H355 0.930 . S
C372 N367 1.307 . S
C372 C369 1.402 . S
N373 Gd336 2.601 . S
N373 C374 1.359 . S
N373 C377 1.334 . S
C374 C371 1.426 . S
C374 N373 1.359 . S
C374 C378 1.413 . S
C375 H366 0.930 . S
C375 C376 1.359 . S
C375 C377 1.394 . S
C376 C375 1.359 . S
C376 C378 1.391 . S
C376 H379 0.929 . S
C377 H359 0.930 . S
C377 N373 1.334 . S
C377 C375 1.394 . S
C378 C374 1.413 . S
C378 C376 1.391 . S
C378 C393 1.437 . S
H379 C376 0.929 . S
O380 Gd336 2.545 . S
O380 C395 1.258 . S
O381 Gd336 2.606 . S
O381 Gd337 2.362 . S
O381 C392 1.284 . S
O382 Gd337 2.324 . S
O382 C402 1.254 . S
O383 Gd336 2.429 . S
O383 C402 1.268 . S
O384 Gd336 2.545 . S
O384 C392 1.250 . S
O385 Gd336 2.412 . S
O385 C395 1.252 . S
O386 Gd337 2.545 1_554 S
O386 C404 1.258 . S
O387 Gd336 2.362 . S
O387 Gd337 2.606 . S
O387 C403 1.284 . S
O388 Gd336 2.324 . S
O388 C411 1.254 . S
O389 Gd337 2.429 . S
O389 C411 1.268 . S
O390 Gd337 2.545 . S
O390 C403 1.250 . S
O391 Gd337 2.412 1_554 S
O391 C404 1.252 . S
C392 O381 1.284 . S
C392 O384 1.250 . S
C393 H362 0.929 . S
C393 C378 1.437 . S
C393 C394 1.317 . S
C394 H365 0.930 . S
C394 C370 1.431 . S
C394 C393 1.317 . S
C395 Gd336 2.828 . S
C395 O380 1.258 . S
C395 O385 1.252 . S
C395 C396 1.497 . S
C396 C395 1.497 . S
C396 C397 1.395 . S
C396 C398 1.380 . S
C397 C396 1.395 . S
C397 C400 1.398 . S
C397 H412 0.930 . S
C398 C396 1.380 . S
C398 C399 1.391 . S
C398 H413 0.930 . S
C399 C398 1.391 . S
C399 C401 1.387 . S
C400 C397 1.398 . S
C400 C401 1.380 . S
C400 H414 0.930 . S
C401 C399 1.387 . S
C401 C400 1.380 . S
C401 H415 0.930 . S
C402 O382 1.254 . S
C402 O383 1.268 . S
C403 O387 1.284 . S
C403 O390 1.250 . S
C404 Gd337 2.828 1_554 S
C404 O386 1.258 . S
C404 O391 1.252 . S
C404 C405 1.497 . S
C405 C404 1.497 . S
C405 C406 1.395 . S
C405 C407 1.380 . S
C406 C405 1.395 . S
C406 C409 1.398 . S
C406 H416 0.930 . S
C407 C405 1.380 . S
C407 C408 1.391 . S
C407 H417 0.930 . S
C408 C407 1.391 . S
C408 C410 1.387 . S
C409 C406 1.398 . S
C409 C410 1.380 . S
C409 H418 0.930 . S
C410 C408 1.387 . S
C410 C409 1.380 . S
C410 H419 0.930 . S
C411 O388 1.254 . S
C411 O389 1.268 . S
H412 C397 0.930 . S
H413 C398 0.930 . S
H414 C400 0.930 . S
H415 C401 0.930 . S
H416 C406 0.930 . S
H417 C407 0.930 . S
H418 C409 0.930 . S
H419 C410 0.930 . S
Gd420 N451 2.661 . S
Gd420 N457 2.601 . S
Gd420 O464 2.545 . S
Gd420 O465 2.606 . S
Gd420 O467 2.429 . S
Gd420 O468 2.545 . S
Gd420 O469 2.412 . S
Gd420 O471 2.362 . S
Gd420 O472 2.324 . S
Gd420 C479 2.828 . S
Gd421 N430 2.661 . S
Gd421 N434 2.601 . S
Gd421 O465 2.362 . S
Gd421 O466 2.324 . S
Gd421 O470 2.545 1_554 S
Gd421 O471 2.606 . S
Gd421 O473 2.429 . S
Gd421 O474 2.545 . S
Gd421 O475 2.412 1_554 S
Gd421 C488 2.828 1_554 S
C422 C425 1.417 . S
C422 C427 1.431 . S
C422 C428 1.412 . S
C423 C426 1.437 1_556 S
C423 C427 1.317 1_556 S
C423 H442 0.929 . S
C424 C425 1.426 . S
C424 C426 1.413 . S
C424 N434 1.359 . S
C425 C422 1.417 . S
C425 C424 1.426 . S
C425 N430 1.350 . S
C426 C423 1.437 1_554 S
C426 C424 1.413 . S
C426 C436 1.391 1_554 S
C427 C422 1.431 . S
C427 C423 1.317 1_554 S
C427 H438 0.930 1_554 S
C428 C422 1.412 . S
C428 C429 1.355 . S
C428 H440 0.930 . S
C429 C428 1.355 . S
C429 C431 1.402 . S
C429 H441 0.930 . S
N430 Gd421 2.661 . S
N430 C425 1.350 . S
N430 C431 1.307 . S
C431 C429 1.402 . S
C431 N430 1.307 . S
C431 H432 0.930 . S
H432 C431 0.930 . S
C433 N434 1.334 . S
C433 C435 1.394 . S
C433 H437 0.930 . S
N434 Gd421 2.601 . S
N434 C424 1.359 . S
N434 C433 1.334 . S
C435 C433 1.394 . S
C435 C436 1.359 1_554 S
C435 H447 0.930 1_554 S
C436 C426 1.391 1_556 S
C436 C435 1.359 1_556 S
C436 H448 0.929 . S
H437 C433 0.930 . S
H438 C427 0.930 1_556 S
H439 C456 0.930 . S
H440 C428 0.930 . S
H441 C429 0.930 . S
H442 C423 0.929 . S
H443 C461 0.930 . S
H444 C452 0.930 . S
H445 C453 0.930 . S
H446 C477 0.929 . S
H447 C435 0.930 1_556 S
H448 C436 0.929 . S
H449 C478 0.930 . S
H450 C459 0.930 . S
N451 Gd420 2.661 . S
N451 C455 1.350 . S
N451 C456 1.307 . S
C452 H444 0.930 . S
C452 C453 1.355 . S
C452 C454 1.412 . S
C453 H445 0.930 . S
C453 C452 1.355 . S
C453 C456 1.402 . S
C454 C452 1.412 . S
C454 C455 1.417 . S
C454 C478 1.431 . S
C455 N451 1.350 . S
C455 C454 1.417 . S
C455 C458 1.426 . S
C456 H439 0.930 . S
C456 N451 1.307 . S
C456 C453 1.402 . S
N457 Gd420 2.601 . S
N457 C458 1.359 . S
N457 C461 1.334 . S
C458 C455 1.426 . S
C458 N457 1.359 . S
C458 C462 1.413 . S
C459 H450 0.930 . S
C459 C460 1.359 . S
C459 C461 1.394 . S
C460 C459 1.359 . S
C460 C462 1.391 . S
C460 H463 0.929 . S
C461 H443 0.930 . S
C461 N457 1.334 . S
C461 C459 1.394 . S
C462 C458 1.413 . S
C462 C460 1.391 . S
C462 C477 1.437 . S
H463 C460 0.929 . S
O464 Gd420 2.545 . S
O464 C479 1.258 . S
O465 Gd420 2.606 . S
O465 Gd421 2.362 . S
O465 C476 1.284 . S
O466 Gd421 2.324 . S
O466 C486 1.254 . S
O467 Gd420 2.429 . S
O467 C486 1.268 . S
O468 Gd420 2.545 . S
O468 C476 1.250 . S
O469 Gd420 2.412 . S
O469 C479 1.252 . S
O470 Gd421 2.545 1_556 S
O470 C488 1.258 . S
O471 Gd420 2.362 . S
O471 Gd421 2.606 . S
O471 C487 1.284 . S
O472 Gd420 2.324 . S
O472 C495 1.254 . S
O473 Gd421 2.429 . S
O473 C495 1.268 . S
O474 Gd421 2.545 . S
O474 C487 1.250 . S
O475 Gd421 2.412 1_556 S
O475 C488 1.252 . S
C476 O465 1.284 . S
C476 O468 1.250 . S
C477 H446 0.929 . S
C477 C462 1.437 . S
C477 C478 1.317 . S
C478 H449 0.930 . S
C478 C454 1.431 . S
C478 C477 1.317 . S
C479 Gd420 2.828 . S
C479 O464 1.258 . S
C479 O469 1.252 . S
C479 C480 1.497 . S
C480 C479 1.497 . S
C480 C481 1.395 . S
C480 C482 1.380 . S
C481 C480 1.395 . S
C481 C484 1.398 . S
C481 H496 0.930 . S
C482 C480 1.380 . S
C482 C483 1.391 . S
C482 H497 0.930 . S
C483 C482 1.391 . S
C483 C485 1.387 . S
C484 C481 1.398 . S
C484 C485 1.380 . S
C484 H498 0.930 . S
C485 C483 1.387 . S
C485 C484 1.380 . S
C485 H499 0.930 . S
C486 O466 1.254 . S
C486 O467 1.268 . S
C487 O471 1.284 . S
C487 O474 1.250 . S
C488 Gd421 2.828 1_556 S
C488 O470 1.258 . S
C488 O475 1.252 . S
C488 C489 1.497 . S
C489 C488 1.497 . S
C489 C490 1.395 . S
C489 C491 1.380 . S
C490 C489 1.395 . S
C490 C493 1.398 . S
C490 H500 0.930 . S
C491 C489 1.380 . S
C491 C492 1.391 . S
C491 H501 0.930 . S
C492 C491 1.391 . S
C492 C494 1.387 . S
C493 C490 1.398 . S
C493 C494 1.380 . S
C493 H502 0.930 . S
C494 C492 1.387 . S
C494 C493 1.380 . S
C494 H503 0.930 . S
C495 O472 1.254 . S
C495 O473 1.268 . S
H496 C481 0.930 . S
H497 C482 0.930 . S
H498 C484 0.930 . S
H499 C485 0.930 . S
H500 C490 0.930 . S
H501 C491 0.930 . S
H502 C493 0.930 . S
H503 C494 0.930 . S
Gd504 N535 2.661 . S
Gd504 N541 2.601 . S
Gd504 O548 2.545 . S
Gd504 O549 2.606 . S
Gd504 O551 2.429 . S
Gd504 O552 2.545 . S
Gd504 O553 2.412 . S
Gd504 O555 2.362 . S
Gd504 O556 2.324 . S
Gd504 C563 2.828 . S
Gd505 N514 2.661 . S
Gd505 N518 2.601 . S
Gd505 O549 2.362 . S
Gd505 O550 2.324 . S
Gd505 O554 2.545 . S
Gd505 O555 2.606 . S
Gd505 O557 2.429 . S
Gd505 O558 2.545 . S
Gd505 O559 2.412 . S
Gd505 C572 2.828 . S
C506 C509 1.417 . S
C506 C511 1.431 . S
C506 C512 1.412 . S
C507 C510 1.437 . S
C507 C511 1.317 . S
C507 H526 0.929 . S
C508 C509 1.426 . S
C508 C510 1.413 . S
C508 N518 1.359 . S
C509 C506 1.417 . S
C509 C508 1.426 . S
C509 N514 1.350 . S
C510 C507 1.437 . S
C510 C508 1.413 . S
C510 C520 1.391 . S
C511 C506 1.431 . S
C511 C507 1.317 . S
C511 H522 0.930 . S
C512 C506 1.412 . S
C512 C513 1.355 . S
C512 H524 0.930 . S
C513 C512 1.355 . S
C513 C515 1.402 . S
C513 H525 0.930 . S
N514 Gd505 2.661 . S
N514 C509 1.350 . S
N514 C515 1.307 . S
C515 C513 1.402 . S
C515 N514 1.307 . S
C515 H516 0.930 . S
H516 C515 0.930 . S
C517 N518 1.334 . S
C517 C519 1.394 . S
C517 H521 0.930 . S
N518 Gd505 2.601 . S
N518 C508 1.359 . S
N518 C517 1.334 . S
C519 C517 1.394 . S
C519 C520 1.359 . S
C519 H531 0.930 . S
C520 C510 1.391 . S
C520 C519 1.359 . S
C520 H532 0.929 . S
H521 C517 0.930 . S
H522 C511 0.930 . S
H523 C540 0.930 . S
H524 C512 0.930 . S
H525 C513 0.930 . S
H526 C507 0.929 . S
H527 C545 0.930 . S
H528 C536 0.930 . S
H529 C537 0.930 . S
H530 C561 0.929 . S
H531 C519 0.930 . S
H532 C520 0.929 . S
H533 C562 0.930 . S
H534 C543 0.930 . S
N535 Gd504 2.661 . S
N535 C539 1.350 . S
N535 C540 1.307 . S
C536 H528 0.930 . S
C536 C537 1.355 . S
C536 C538 1.412 . S
C537 H529 0.930 . S
C537 C536 1.355 . S
C537 C540 1.402 . S
C538 C536 1.412 . S
C538 C539 1.417 . S
C538 C562 1.431 . S
C539 N535 1.350 . S
C539 C538 1.417 . S
C539 C542 1.426 . S
C540 H523 0.930 . S
C540 N535 1.307 . S
C540 C537 1.402 . S
N541 Gd504 2.601 . S
N541 C542 1.359 . S
N541 C545 1.334 . S
C542 C539 1.426 . S
C542 N541 1.359 . S
C542 C546 1.413 . S
C543 H534 0.930 . S
C543 C544 1.359 . S
C543 C545 1.394 . S
C544 C543 1.359 . S
C544 C546 1.391 . S
C544 H547 0.929 . S
C545 H527 0.930 . S
C545 N541 1.334 . S
C545 C543 1.394 . S
C546 C542 1.413 . S
C546 C544 1.391 . S
C546 C561 1.437 . S
H547 C544 0.929 . S
O548 Gd504 2.545 . S
O548 C563 1.258 . S
O549 Gd504 2.606 . S
O549 Gd505 2.362 . S
O549 C560 1.284 . S
O550 Gd505 2.324 . S
O550 C570 1.254 . S
O551 Gd504 2.429 . S
O551 C570 1.268 . S
O552 Gd504 2.545 . S
O552 C560 1.250 . S
O553 Gd504 2.412 . S
O553 C563 1.252 . S
O554 Gd505 2.545 . S
O554 C572 1.258 . S
O555 Gd504 2.362 . S
O555 Gd505 2.606 . S
O555 C571 1.284 . S
O556 Gd504 2.324 . S
O556 C579 1.254 . S
O557 Gd505 2.429 . S
O557 C579 1.268 . S
O558 Gd505 2.545 . S
O558 C571 1.250 . S
O559 Gd505 2.412 . S
O559 C572 1.252 . S
C560 O549 1.284 . S
C560 O552 1.250 . S
C561 H530 0.929 . S
C561 C546 1.437 . S
C561 C562 1.317 . S
C562 H533 0.930 . S
C562 C538 1.431 . S
C562 C561 1.317 . S
C563 Gd504 2.828 . S
C563 O548 1.258 . S
C563 O553 1.252 . S
C563 C564 1.497 . S
C564 C563 1.497 . S
C564 C565 1.395 . S
C564 C566 1.380 . S
C565 C564 1.395 . S
C565 C568 1.398 . S
C565 H580 0.930 . S
C566 C564 1.380 . S
C566 C567 1.391 . S
C566 H581 0.930 . S
C567 C566 1.391 . S
C567 C569 1.387 . S
C568 C565 1.398 . S
C568 C569 1.380 . S
C568 H582 0.930 . S
C569 C567 1.387 . S
C569 C568 1.380 . S
C569 H583 0.930 . S
C570 O550 1.254 . S
C570 O551 1.268 . S
C571 O555 1.284 . S
C571 O558 1.250 . S
C572 Gd505 2.828 . S
C572 O554 1.258 . S
C572 O559 1.252 . S
C572 C573 1.497 . S
C573 C572 1.497 . S
C573 C574 1.395 . S
C573 C575 1.380 . S
C574 C573 1.395 . S
C574 C577 1.398 . S
C574 H584 0.930 . S
C575 C573 1.380 . S
C575 C576 1.391 . S
C575 H585 0.930 . S
C576 C575 1.391 . S
C576 C578 1.387 . S
C577 C574 1.398 . S
C577 C578 1.380 . S
C577 H586 0.930 . S
C578 C576 1.387 . S
C578 C577 1.380 . S
C578 H587 0.930 1_554 S
C579 O556 1.254 . S
C579 O557 1.268 . S
H580 C565 0.930 . S
H581 C566 0.930 . S
H582 C568 0.930 . S
H583 C569 0.930 . S
H584 C574 0.930 . S
H585 C575 0.930 . S
H586 C577 0.930 . S
H587 C578 0.930 1_556 S
Gd588 N619 2.661 . S
Gd588 N625 2.601 . S
Gd588 O632 2.545 . S
Gd588 O633 2.606 . S
Gd588 O635 2.429 . S
Gd588 O636 2.545 . S
Gd588 O637 2.412 . S
Gd588 O639 2.362 . S
Gd588 O640 2.324 . S
Gd588 C647 2.828 . S
Gd589 N598 2.661 . S
Gd589 N602 2.601 . S
Gd589 O633 2.362 . S
Gd589 O634 2.324 . S
Gd589 O638 2.545 . S
Gd589 O639 2.606 . S
Gd589 O641 2.429 . S
Gd589 O642 2.545 . S
Gd589 O643 2.412 . S
Gd589 C656 2.828 . S
C590 C593 1.417 . S
C590 C595 1.431 . S
C590 C596 1.412 . S
C591 C594 1.437 . S
C591 C595 1.317 . S
C591 H610 0.929 . S
C592 C593 1.426 . S
C592 C594 1.413 . S
C592 N602 1.359 . S
C593 C590 1.417 . S
C593 C592 1.426 . S
C593 N598 1.350 . S
C594 C591 1.437 . S
C594 C592 1.413 . S
C594 C604 1.391 . S
C595 C590 1.431 . S
C595 C591 1.317 . S
C595 H606 0.930 . S
C596 C590 1.412 . S
C596 C597 1.355 . S
C596 H608 0.930 . S
C597 C596 1.355 . S
C597 C599 1.402 . S
C597 H609 0.930 . S
N598 Gd589 2.661 . S
N598 C593 1.350 . S
N598 C599 1.307 . S
C599 C597 1.402 . S
C599 N598 1.307 . S
C599 H600 0.930 . S
H600 C599 0.930 . S
C601 N602 1.334 . S
C601 C603 1.394 . S
C601 H605 0.930 . S
N602 Gd589 2.601 . S
N602 C592 1.359 . S
N602 C601 1.334 . S
C603 C601 1.394 . S
C603 C604 1.359 . S
C603 H615 0.930 . S
C604 C594 1.391 . S
C604 C603 1.359 . S
C604 H616 0.929 . S
H605 C601 0.930 . S
H606 C595 0.930 . S
H607 C624 0.930 . S
H608 C596 0.930 . S
H609 C597 0.930 . S
H610 C591 0.929 . S
H611 C629 0.930 . S
H612 C620 0.930 . S
H613 C621 0.930 . S
H614 C645 0.929 . S
H615 C603 0.930 . S
H616 C604 0.929 . S
H617 C646 0.930 . S
H618 C627 0.930 . S
N619 Gd588 2.661 . S
N619 C623 1.350 . S
N619 C624 1.307 . S
C620 H612 0.930 . S
C620 C621 1.355 . S
C620 C622 1.412 . S
C621 H613 0.930 . S
C621 C620 1.355 . S
C621 C624 1.402 . S
C622 C620 1.412 . S
C622 C623 1.417 . S
C622 C646 1.431 . S
C623 N619 1.350 . S
C623 C622 1.417 . S
C623 C626 1.426 . S
C624 H607 0.930 . S
C624 N619 1.307 . S
C624 C621 1.402 . S
N625 Gd588 2.601 . S
N625 C626 1.359 . S
N625 C629 1.334 . S
C626 C623 1.426 . S
C626 N625 1.359 . S
C626 C630 1.413 . S
C627 H618 0.930 . S
C627 C628 1.359 . S
C627 C629 1.394 . S
C628 C627 1.359 . S
C628 C630 1.391 . S
C628 H631 0.929 . S
C629 H611 0.930 . S
C629 N625 1.334 . S
C629 C627 1.394 . S
C630 C626 1.413 . S
C630 C628 1.391 . S
C630 C645 1.437 . S
H631 C628 0.929 . S
O632 Gd588 2.545 . S
O632 C647 1.258 . S
O633 Gd588 2.606 . S
O633 Gd589 2.362 . S
O633 C644 1.284 . S
O634 Gd589 2.324 . S
O634 C654 1.254 . S
O635 Gd588 2.429 . S
O635 C654 1.268 . S
O636 Gd588 2.545 . S
O636 C644 1.250 . S
O637 Gd588 2.412 . S
O637 C647 1.252 . S
O638 Gd589 2.545 . S
O638 C656 1.258 . S
O639 Gd588 2.362 . S
O639 Gd589 2.606 . S
O639 C655 1.284 . S
O640 Gd588 2.324 . S
O640 C663 1.254 . S
O641 Gd589 2.429 . S
O641 C663 1.268 . S
O642 Gd589 2.545 . S
O642 C655 1.250 . S
O643 Gd589 2.412 . S
O643 C656 1.252 . S
C644 O633 1.284 . S
C644 O636 1.250 . S
C645 H614 0.929 . S
C645 C630 1.437 . S
C645 C646 1.317 . S
C646 H617 0.930 . S
C646 C622 1.431 . S
C646 C645 1.317 . S
C647 Gd588 2.828 . S
C647 O632 1.258 . S
C647 O637 1.252 . S
C647 C648 1.497 . S
C648 C647 1.497 . S
C648 C649 1.395 . S
C648 C650 1.380 . S
C649 C648 1.395 . S
C649 C652 1.398 . S
C649 H664 0.930 . S
C650 C648 1.380 . S
C650 C651 1.391 . S
C650 H665 0.930 . S
C651 C650 1.391 . S
C651 C653 1.387 . S
C652 C649 1.398 . S
C652 C653 1.380 . S
C652 H666 0.930 . S
C653 C651 1.387 . S
C653 C652 1.380 . S
C653 H667 0.930 1_556 S
C654 O634 1.254 . S
C654 O635 1.268 . S
C655 O639 1.284 . S
C655 O642 1.250 . S
C656 Gd589 2.828 . S
C656 O638 1.258 . S
C656 O643 1.252 . S
C656 C657 1.497 . S
C657 C656 1.497 . S
C657 C658 1.395 . S
C657 C659 1.380 . S
C658 C657 1.395 . S
C658 C661 1.398 . S
C658 H668 0.930 . S
C659 C657 1.380 . S
C659 C660 1.391 . S
C659 H669 0.930 . S
C660 C659 1.391 . S
C660 C662 1.387 . S
C661 C658 1.398 . S
C661 C662 1.380 . S
C661 H670 0.930 . S
C662 C660 1.387 . S
C662 C661 1.380 . S
C662 H671 0.930 . S
C663 O640 1.254 . S
C663 O641 1.268 . S
H664 C649 0.930 . S
H665 C650 0.930 . S
H666 C652 0.930 . S
H667 C653 0.930 1_554 S
H668 C658 0.930 . S
H669 C659 0.930 . S
H670 C661 0.930 . S
H671 C662 0.930 . S
Gd672 N703 2.661 . S
Gd672 N709 2.601 . S
Gd672 O716 2.545 . S
Gd672 O717 2.606 . S
Gd672 O719 2.429 . S
Gd672 O720 2.545 . S
Gd672 O721 2.412 . S
Gd672 O723 2.362 . S
Gd672 O724 2.324 . S
Gd672 C731 2.828 . S
Gd673 N682 2.661 . S
Gd673 N686 2.601 . S
Gd673 O717 2.362 . S
Gd673 O718 2.324 . S
Gd673 O722 2.545 1_556 S
Gd673 O723 2.606 . S
Gd673 O725 2.429 . S
Gd673 O726 2.545 . S
Gd673 O727 2.412 1_556 S
Gd673 C740 2.828 1_556 S
C674 C677 1.417 . S
C674 C679 1.431 . S
C674 C680 1.412 . S
C675 C678 1.437 1_554 S
C675 C679 1.317 1_554 S
C675 H694 0.929 . S
C676 C677 1.426 . S
C676 C678 1.413 . S
C676 N686 1.359 . S
C677 C674 1.417 . S
C677 C676 1.426 . S
C677 N682 1.350 . S
C678 C675 1.437 1_556 S
C678 C676 1.413 . S
C678 C688 1.391 1_556 S
C679 C674 1.431 . S
C679 C675 1.317 1_556 S
C679 H690 0.933 . S
C680 C674 1.412 . S
C680 C681 1.355 . S
C680 H692 0.930 . S
C681 C680 1.355 . S
C681 C683 1.402 . S
C681 H693 0.930 . S
N682 Gd673 2.661 . S
N682 C677 1.350 . S
N682 C683 1.307 . S
C683 C681 1.402 . S
C683 N682 1.307 . S
C683 H684 0.930 . S
H684 C683 0.930 . S
C685 N686 1.334 . S
C685 C687 1.394 . S
C685 H689 0.930 . S
N686 Gd673 2.601 . S
N686 C676 1.359 . S
N686 C685 1.334 . S
C687 C685 1.394 . S
C687 C688 1.359 1_556 S
C687 H699 0.930 . S
C688 C678 1.391 1_554 S
C688 C687 1.359 1_554 S
C688 H700 0.929 . S
H689 C685 0.930 . S
H690 C679 0.933 . S
H691 C708 0.930 . S
H692 C680 0.930 . S
H693 C681 0.930 . S
H694 C675 0.929 . S
H695 C713 0.930 . S
H696 C704 0.930 . S
H697 C705 0.930 . S
H698 C729 0.929 . S
H699 C687 0.930 . S
H700 C688 0.929 . S
H701 C730 0.930 . S
H702 C711 0.930 . S
N703 Gd672 2.661 . S
N703 C707 1.350 . S
N703 C708 1.307 . S
C704 H696 0.930 . S
C704 C705 1.355 . S
C704 C706 1.412 . S
C705 H697 0.930 . S
C705 C704 1.355 . S
C705 C708 1.402 . S
C706 C704 1.412 . S
C706 C707 1.417 . S
C706 C730 1.431 . S
C707 N703 1.350 . S
C707 C706 1.417 . S
C707 C710 1.426 . S
C708 H691 0.930 . S
C708 N703 1.307 . S
C708 C705 1.402 . S
N709 Gd672 2.601 . S
N709 C710 1.359 . S
N709 C713 1.334 . S
C710 C707 1.426 . S
C710 N709 1.359 . S
C710 C714 1.413 . S
C711 H702 0.930 . S
C711 C712 1.359 . S
C711 C713 1.394 . S
C712 C711 1.359 . S
C712 C714 1.391 . S
C712 H715 0.929 . S
C713 H695 0.930 . S
C713 N709 1.334 . S
C713 C711 1.394 . S
C714 C710 1.413 . S
C714 C712 1.391 . S
C714 C729 1.437 . S
H715 C712 0.929 . S
O716 Gd672 2.545 . S
O716 C731 1.258 . S
O717 Gd672 2.606 . S
O717 Gd673 2.362 . S
O717 C728 1.284 . S
O718 Gd673 2.324 . S
O718 C738 1.254 . S
O719 Gd672 2.429 . S
O719 C738 1.268 . S
O720 Gd672 2.545 . S
O720 C728 1.250 . S
O721 Gd672 2.412 . S
O721 C731 1.252 . S
O722 Gd673 2.545 1_554 S
O722 C740 1.258 . S
O723 Gd672 2.362 . S
O723 Gd673 2.606 . S
O723 C739 1.284 . S
O724 Gd672 2.324 . S
O724 C747 1.254 . S
O725 Gd673 2.429 . S
O725 C747 1.268 . S
O726 Gd673 2.545 . S
O726 C739 1.250 . S
O727 Gd673 2.412 1_554 S
O727 C740 1.252 . S
C728 O717 1.284 . S
C728 O720 1.250 . S
C729 H698 0.929 . S
C729 C714 1.437 . S
C729 C730 1.317 . S
C730 H701 0.930 . S
C730 C706 1.431 . S
C730 C729 1.317 . S
C731 Gd672 2.828 . S
C731 O716 1.258 . S
C731 O721 1.252 . S
C731 C732 1.497 . S
C732 C731 1.497 . S
C732 C733 1.395 . S
C732 C734 1.380 . S
C733 C732 1.395 . S
C733 C736 1.398 . S
C733 H748 0.930 . S
C734 C732 1.380 . S
C734 C735 1.391 . S
C734 H749 0.930 . S
C735 C734 1.391 . S
C735 C737 1.387 . S
C736 C733 1.398 . S
C736 C737 1.380 . S
C736 H750 0.930 . S
C737 C735 1.387 . S
C737 C736 1.380 . S
C737 H751 0.930 . S
C738 O718 1.254 . S
C738 O719 1.268 . S
C739 O723 1.284 . S
C739 O726 1.250 . S
C740 Gd673 2.828 1_554 S
C740 O722 1.258 . S
C740 O727 1.252 . S
C740 C741 1.497 . S
C741 C740 1.497 . S
C741 C742 1.395 . S
C741 C743 1.380 . S
C742 C741 1.395 . S
C742 C745 1.398 . S
C742 H752 0.930 . S
C743 C741 1.380 . S
C743 C744 1.391 . S
C743 H753 0.930 . S
C744 C743 1.391 . S
C744 C746 1.387 . S
C745 C742 1.398 . S
C745 C746 1.380 . S
C745 H754 0.930 . S
C746 C744 1.387 . S
C746 C745 1.380 . S
C746 H755 0.930 . S
C747 O724 1.254 . S
C747 O725 1.268 . S
H748 C733 0.930 . S
H749 C734 0.930 . S
H750 C736 0.930 . S
H751 C737 0.930 . S
H752 C742 0.930 . S
H753 C743 0.930 . S
H754 C745 0.930 . S
H755 C746 0.930 . S
Gd756 N787 2.661 . S
Gd756 N793 2.601 . S
Gd756 O800 2.545 . S
Gd756 O801 2.606 . S
Gd756 O803 2.429 . S
Gd756 O804 2.545 . S
Gd756 O805 2.412 . S
Gd756 O807 2.362 . S
Gd756 O808 2.324 . S
Gd756 C815 2.828 . S
Gd757 N766 2.661 . S
Gd757 N770 2.601 . S
Gd757 O801 2.362 . S
Gd757 O802 2.324 . S
Gd757 O806 2.545 . S
Gd757 O807 2.606 . S
Gd757 O809 2.429 . S
Gd757 O810 2.545 . S
Gd757 O811 2.412 . S
Gd757 C824 2.828 . S
C758 C761 1.417 . S
C758 C763 1.431 . S
C758 C764 1.412 . S
C759 C762 1.437 . S
C759 C763 1.317 . S
C759 H778 0.929 . S
C760 C761 1.426 . S
C760 C762 1.413 . S
C760 N770 1.359 . S
C761 C758 1.417 . S
C761 C760 1.426 . S
C761 N766 1.350 . S
C762 C759 1.437 . S
C762 C760 1.413 . S
C762 C772 1.391 . S
C763 C758 1.431 . S
C763 C759 1.317 . S
C763 H774 0.930 . S
C764 C758 1.412 . S
C764 C765 1.355 . S
C764 H776 0.930 . S
C765 C764 1.355 . S
C765 C767 1.402 . S
C765 H777 0.930 . S
N766 Gd757 2.661 . S
N766 C761 1.350 . S
N766 C767 1.307 . S
C767 C765 1.402 . S
C767 N766 1.307 . S
C767 H768 0.930 . S
H768 C767 0.930 . S
C769 N770 1.334 . S
C769 C771 1.394 . S
C769 H773 0.930 . S
N770 Gd757 2.601 . S
N770 C760 1.359 . S
N770 C769 1.334 . S
C771 C769 1.394 . S
C771 C772 1.359 . S
C771 H783 0.930 . S
C772 C762 1.391 . S
C772 C771 1.359 . S
C772 H784 0.929 . S
H773 C769 0.930 . S
H774 C763 0.930 . S
H775 C792 0.930 . S
H776 C764 0.930 . S
H777 C765 0.930 . S
H778 C759 0.929 . S
H779 C797 0.930 . S
H780 C788 0.930 . S
H781 C789 0.930 . S
H782 C813 0.929 . S
H783 C771 0.930 . S
H784 C772 0.929 . S
H785 C814 0.930 . S
H786 C795 0.930 . S
N787 Gd756 2.661 . S
N787 C791 1.350 . S
N787 C792 1.307 . S
C788 H780 0.930 . S
C788 C789 1.355 . S
C788 C790 1.412 . S
C789 H781 0.930 . S
C789 C788 1.355 . S
C789 C792 1.402 . S
C790 C788 1.412 . S
C790 C791 1.417 . S
C790 C814 1.431 . S
C791 N787 1.350 . S
C791 C790 1.417 . S
C791 C794 1.426 . S
C792 H775 0.930 . S
C792 N787 1.307 . S
C792 C789 1.402 . S
N793 Gd756 2.601 . S
N793 C794 1.359 . S
N793 C797 1.334 . S
C794 C791 1.426 . S
C794 N793 1.359 . S
C794 C798 1.413 . S
C795 H786 0.930 . S
C795 C796 1.359 . S
C795 C797 1.394 . S
C796 C795 1.359 . S
C796 C798 1.391 . S
C796 H799 0.929 . S
C797 H779 0.930 . S
C797 N793 1.334 . S
C797 C795 1.394 . S
C798 C794 1.413 . S
C798 C796 1.391 . S
C798 C813 1.437 . S
H799 C796 0.929 . S
O800 Gd756 2.545 . S
O800 C815 1.258 . S
O801 Gd756 2.606 . S
O801 Gd757 2.362 . S
O801 C812 1.284 . S
O802 Gd757 2.324 . S
O802 C822 1.254 . S
O803 Gd756 2.429 . S
O803 C822 1.268 . S
O804 Gd756 2.545 . S
O804 C812 1.250 . S
O805 Gd756 2.412 . S
O805 C815 1.252 . S
O806 Gd757 2.545 . S
O806 C824 1.258 . S
O807 Gd756 2.362 . S
O807 Gd757 2.606 . S
O807 C823 1.284 . S
O808 Gd756 2.324 . S
O808 C831 1.254 . S
O809 Gd757 2.429 . S
O809 C831 1.268 . S
O810 Gd757 2.545 . S
O810 C823 1.250 . S
O811 Gd757 2.412 . S
O811 C824 1.252 . S
C812 O801 1.284 . S
C812 O804 1.250 . S
C813 H782 0.929 . S
C813 C798 1.437 . S
C813 C814 1.317 . S
C814 H785 0.930 . S
C814 C790 1.431 . S
C814 C813 1.317 . S
C815 Gd756 2.828 . S
C815 O800 1.258 . S
C815 O805 1.252 . S
C815 C816 1.497 . S
C816 C815 1.497 . S
C816 C817 1.395 . S
C816 C818 1.380 . S
C817 C816 1.395 . S
C817 C820 1.398 . S
C817 H832 0.930 . S
C818 C816 1.380 . S
C818 C819 1.391 . S
C818 H833 0.930 . S
C819 C818 1.391 . S
C819 C821 1.387 . S
C820 C817 1.398 . S
C820 C821 1.380 . S
C820 H834 0.930 . S
C821 C819 1.387 . S
C821 C820 1.380 . S
C821 H835 0.930 . S
C822 O802 1.254 . S
C822 O803 1.268 . S
C823 O807 1.284 . S
C823 O810 1.250 . S
C824 Gd757 2.828 . S
C824 O806 1.258 . S
C824 O811 1.252 . S
C824 C825 1.497 . S
C825 C824 1.497 . S
C825 C826 1.395 . S
C825 C827 1.380 . S
C826 C825 1.395 . S
C826 C829 1.398 . S
C826 H836 0.930 . S
C827 C825 1.380 . S
C827 C828 1.391 . S
C827 H837 0.930 . S
C828 C827 1.391 . S
C828 C830 1.387 . S
C829 C826 1.398 . S
C829 C830 1.380 . S
C829 H838 0.930 . S
C830 C828 1.387 . S
C830 C829 1.380 . S
C830 H839 0.930 1_556 S
C831 O808 1.254 . S
C831 O809 1.268 . S
H832 C817 0.930 . S
H833 C818 0.930 . S
H834 C820 0.930 . S
H835 C821 0.930 . S
H836 C826 0.930 . S
H837 C827 0.930 . S
H838 C829 0.930 . S
H839 C830 0.930 1_554 S
Gd840 N871 2.661 . S
Gd840 N877 2.601 . S
Gd840 O884 2.545 . S
Gd840 O885 2.606 . S
Gd840 O887 2.429 . S
Gd840 O888 2.545 . S
Gd840 O889 2.412 . S
Gd840 O891 2.362 . S
Gd840 O892 2.324 . S
Gd840 C899 2.828 . S
Gd841 N850 2.661 . S
Gd841 N854 2.601 . S
Gd841 O885 2.362 . S
Gd841 O886 2.324 . S
Gd841 O890 2.545 . S
Gd841 O891 2.606 . S
Gd841 O893 2.429 . S
Gd841 O894 2.545 . S
Gd841 O895 2.412 . S
Gd841 C908 2.828 . S
C842 C845 1.417 . S
C842 C847 1.431 . S
C842 C848 1.412 . S
C843 C846 1.437 . S
C843 C847 1.317 . S
C843 H862 0.929 . S
C844 C845 1.426 . S
C844 C846 1.413 . S
C844 N854 1.359 . S
C845 C842 1.417 . S
C845 C844 1.426 . S
C845 N850 1.350 . S
C846 C843 1.437 . S
C846 C844 1.413 . S
C846 C856 1.391 . S
C847 C842 1.431 . S
C847 C843 1.317 . S
C847 H858 0.930 . S
C848 C842 1.412 . S
C848 C849 1.355 . S
C848 H860 0.930 . S
C849 C848 1.355 . S
C849 C851 1.402 . S
C849 H861 0.930 . S
N850 Gd841 2.661 . S
N850 C845 1.350 . S
N850 C851 1.307 . S
C851 C849 1.402 . S
C851 N850 1.307 . S
C851 H852 0.930 . S
H852 C851 0.930 . S
C853 N854 1.334 . S
C853 C855 1.394 . S
C853 H857 0.930 . S
N854 Gd841 2.601 . S
N854 C844 1.359 . S
N854 C853 1.334 . S
C855 C853 1.394 . S
C855 C856 1.359 . S
C855 H867 0.930 . S
C856 C846 1.391 . S
C856 C855 1.359 . S
C856 H868 0.929 . S
H857 C853 0.930 . S
H858 C847 0.930 . S
H859 C876 0.930 . S
H860 C848 0.930 . S
H861 C849 0.930 . S
H862 C843 0.929 . S
H863 C881 0.930 . S
H864 C872 0.930 . S
H865 C873 0.930 . S
H866 C897 0.929 . S
H867 C855 0.930 . S
H868 C856 0.929 . S
H869 C898 0.930 . S
H870 C879 0.930 . S
N871 Gd840 2.661 . S
N871 C875 1.350 . S
N871 C876 1.307 . S
C872 H864 0.930 . S
C872 C873 1.355 . S
C872 C874 1.412 . S
C873 H865 0.930 . S
C873 C872 1.355 . S
C873 C876 1.402 . S
C874 C872 1.412 . S
C874 C875 1.417 . S
C874 C898 1.431 . S
C875 N871 1.350 . S
C875 C874 1.417 . S
C875 C878 1.426 . S
C876 H859 0.930 . S
C876 N871 1.307 . S
C876 C873 1.402 . S
N877 Gd840 2.601 . S
N877 C878 1.359 . S
N877 C881 1.334 . S
C878 C875 1.426 . S
C878 N877 1.359 . S
C878 C882 1.413 . S
C879 H870 0.930 . S
C879 C880 1.359 . S
C879 C881 1.394 . S
C880 C879 1.359 . S
C880 C882 1.391 . S
C880 H883 0.929 . S
C881 H863 0.930 . S
C881 N877 1.334 . S
C881 C879 1.394 . S
C882 C878 1.413 . S
C882 C880 1.391 . S
C882 C897 1.437 . S
H883 C880 0.929 . S
O884 Gd840 2.545 . S
O884 C899 1.258 . S
O885 Gd840 2.606 . S
O885 Gd841 2.362 . S
O885 C896 1.284 . S
O886 Gd841 2.324 . S
O886 C906 1.254 . S
O887 Gd840 2.429 . S
O887 C906 1.268 . S
O888 Gd840 2.545 . S
O888 C896 1.250 . S
O889 Gd840 2.412 . S
O889 C899 1.252 . S
O890 Gd841 2.545 . S
O890 C908 1.258 . S
O891 Gd840 2.362 . S
O891 Gd841 2.606 . S
O891 C907 1.284 . S
O892 Gd840 2.324 . S
O892 C915 1.254 . S
O893 Gd841 2.429 . S
O893 C915 1.268 . S
O894 Gd841 2.545 . S
O894 C907 1.250 . S
O895 Gd841 2.412 . S
O895 C908 1.252 . S
C896 O885 1.284 . S
C896 O888 1.250 . S
C897 H866 0.929 . S
C897 C882 1.437 . S
C897 C898 1.317 . S
C898 H869 0.930 . S
C898 C874 1.431 . S
C898 C897 1.317 . S
C899 Gd840 2.828 . S
C899 O884 1.258 . S
C899 O889 1.252 . S
C899 C900 1.497 . S
C900 C899 1.497 . S
C900 C901 1.395 . S
C900 C902 1.380 . S
C901 C900 1.395 . S
C901 C904 1.398 . S
C901 H916 0.930 . S
C902 C900 1.380 . S
C902 C903 1.391 . S
C902 H917 0.930 . S
C903 C902 1.391 . S
C903 C905 1.387 . S
C904 C901 1.398 . S
C904 C905 1.380 . S
C904 H918 0.930 . S
C905 C903 1.387 . S
C905 C904 1.380 . S
C905 H919 0.930 . S
C906 O886 1.254 . S
C906 O887 1.268 . S
C907 O891 1.284 . S
C907 O894 1.250 . S
C908 Gd841 2.828 . S
C908 O890 1.258 . S
C908 O895 1.252 . S
C908 C909 1.497 . S
C909 C908 1.497 . S
C909 C910 1.395 . S
C909 C911 1.380 . S
C910 C909 1.395 . S
C910 C913 1.398 . S
C910 H920 0.930 . S
C911 C909 1.380 . S
C911 C912 1.391 . S
C911 H921 0.930 . S
C912 C911 1.391 . S
C912 C914 1.387 . S
C913 C910 1.398 . S
C913 C914 1.380 . S
C913 H922 0.930 . S
C914 C912 1.387 . S
C914 C913 1.380 . S
C914 H923 0.930 1_554 S
C915 O892 1.254 . S
C915 O893 1.268 . S
H916 C901 0.930 . S
H917 C902 0.930 . S
H918 C904 0.930 . S
H919 C905 0.930 . S
H920 C910 0.930 . S
H921 C911 0.930 . S
H922 C913 0.930 . S
H923 C914 0.930 1_556 S
Gd924 N955 2.661 . S
Gd924 N961 2.601 . S
Gd924 O968 2.545 . S
Gd924 O969 2.606 . S
Gd924 O971 2.429 . S
Gd924 O972 2.545 . S
Gd924 O973 2.412 . S
Gd924 O975 2.362 . S
Gd924 O976 2.324 . S
Gd924 C983 2.828 . S
Gd925 N934 2.661 . S
Gd925 N938 2.601 . S
Gd925 O969 2.362 . S
Gd925 O970 2.324 . S
Gd925 O974 2.545 1_554 S
Gd925 O975 2.606 . S
Gd925 O977 2.429 . S
Gd925 O978 2.545 . S
Gd925 O979 2.412 1_554 S
Gd925 C992 2.828 1_554 S
C926 C929 1.417 . S
C926 C931 1.431 . S
C926 C932 1.412 . S
C927 C930 1.437 1_556 S
C927 C931 1.317 1_556 S
C927 H946 0.929 . S
C928 C929 1.426 . S
C928 C930 1.413 . S
C928 N938 1.359 . S
C929 C926 1.417 . S
C929 C928 1.426 . S
C929 N934 1.350 . S
C930 C927 1.437 1_554 S
C930 C928 1.413 . S
C930 C940 1.391 1_554 S
C931 C926 1.431 . S
C931 C927 1.317 1_554 S
C931 H942 0.932 . S
C932 C926 1.412 . S
C932 C933 1.355 . S
C932 H944 0.930 . S
C933 C932 1.355 . S
C933 C935 1.402 . S
C933 H945 0.930 . S
N934 Gd925 2.661 . S
N934 C929 1.350 . S
N934 C935 1.307 . S
C935 C933 1.402 . S
C935 N934 1.307 . S
C935 H936 0.930 . S
H936 C935 0.930 . S
C937 N938 1.334 . S
C937 C939 1.394 . S
C937 H941 0.930 . S
N938 Gd925 2.601 . S
N938 C928 1.359 . S
N938 C937 1.334 . S
C939 C937 1.394 . S
C939 C940 1.359 1_554 S
C939 H951 0.930 . S
C940 C930 1.391 1_556 S
C940 C939 1.359 1_556 S
C940 H952 0.929 . S
H941 C937 0.930 . S
H942 C931 0.932 . S
H943 C960 0.930 . S
H944 C932 0.930 . S
H945 C933 0.930 . S
H946 C927 0.929 . S
H947 C965 0.930 . S
H948 C956 0.930 . S
H949 C957 0.930 . S
H950 C981 0.929 . S
H951 C939 0.930 . S
H952 C940 0.929 . S
H953 C982 0.930 1_545 S
H954 C963 0.930 . S
N955 Gd924 2.661 . S
N955 C959 1.350 . S
N955 C960 1.307 . S
C956 H948 0.930 . S
C956 C957 1.355 . S
C956 C958 1.412 . S
C957 H949 0.930 . S
C957 C956 1.355 . S
C957 C960 1.402 . S
C958 C956 1.412 . S
C958 C959 1.417 . S
C958 C982 1.431 . S
C959 N955 1.350 . S
C959 C958 1.417 . S
C959 C962 1.426 . S
C960 H943 0.930 . S
C960 N955 1.307 . S
C960 C957 1.402 . S
N961 Gd924 2.601 . S
N961 C962 1.359 . S
N961 C965 1.334 . S
C962 C959 1.426 . S
C962 N961 1.359 . S
C962 C966 1.413 . S
C963 H954 0.930 . S
C963 C964 1.359 . S
C963 C965 1.394 . S
C964 C963 1.359 . S
C964 C966 1.391 . S
C964 H967 0.929 . S
C965 H947 0.930 . S
C965 N961 1.334 . S
C965 C963 1.394 . S
C966 C962 1.413 . S
C966 C964 1.391 . S
C966 C981 1.437 . S
H967 C964 0.929 . S
O968 Gd924 2.545 . S
O968 C983 1.258 . S
O969 Gd924 2.606 . S
O969 Gd925 2.362 . S
O969 C980 1.284 . S
O970 Gd925 2.324 . S
O970 C990 1.254 . S
O971 Gd924 2.429 . S
O971 C990 1.268 . S
O972 Gd924 2.545 . S
O972 C980 1.250 . S
O973 Gd924 2.412 . S
O973 C983 1.252 . S
O974 Gd925 2.545 1_556 S
O974 C992 1.258 . S
O975 Gd924 2.362 . S
O975 Gd925 2.606 . S
O975 C991 1.284 . S
O976 Gd924 2.324 . S
O976 C999 1.254 . S
O977 Gd925 2.429 . S
O977 C999 1.268 . S
O978 Gd925 2.545 . S
O978 C991 1.250 . S
O979 Gd925 2.412 1_556 S
O979 C992 1.252 . S
C980 O969 1.284 . S
C980 O972 1.250 . S
C981 H950 0.929 . S
C981 C966 1.437 . S
C981 C982 1.317 . S
C982 H953 0.930 1_565 S
C982 C958 1.431 . S
C982 C981 1.317 . S
C983 Gd924 2.828 . S
C983 O968 1.258 . S
C983 O973 1.252 . S
C983 C984 1.497 . S
C984 C983 1.497 . S
C984 C985 1.395 . S
C984 C986 1.380 . S
C985 C984 1.395 . S
C985 C988 1.398 . S
C985 H1000 0.930 . S
C986 C984 1.380 . S
C986 C987 1.391 . S
C986 H1001 0.930 . S
C987 C986 1.391 . S
C987 C989 1.387 . S
C988 C985 1.398 . S
C988 C989 1.380 . S
C988 H1002 0.930 . S
C989 C987 1.387 . S
C989 C988 1.380 . S
C989 H1003 0.930 . S
C990 O970 1.254 . S
C990 O971 1.268 . S
C991 O975 1.284 . S
C991 O978 1.250 . S
C992 Gd925 2.828 1_556 S
C992 O974 1.258 . S
C992 O979 1.252 . S
C992 C993 1.497 . S
C993 C992 1.497 . S
C993 C994 1.395 . S
C993 C995 1.380 . S
C994 C993 1.395 . S
C994 C997 1.398 . S
C994 H1004 0.930 . S
C995 C993 1.380 . S
C995 C996 1.391 . S
C995 H1005 0.930 . S
C996 C995 1.391 . S
C996 C998 1.387 . S
C997 C994 1.398 . S
C997 C998 1.380 . S
C997 H1006 0.930 . S
C998 C996 1.387 . S
C998 C997 1.380 . S
C998 H1007 0.930 . S
C999 O976 1.254 . S
C999 O977 1.268 . S
H1000 C985 0.930 . S
H1001 C986 0.930 . S
H1002 C988 0.930 . S
H1003 C989 0.930 . S
H1004 C994 0.930 . S
H1005 C995 0.930 . S
H1006 C997 0.930 . S
H1007 C998 0.930 . S
Gd1008 N1039 2.661 . S
Gd1008 N1045 2.601 . S
Gd1008 O1052 2.545 1_554 S
Gd1008 O1053 2.606 . S
Gd1008 O1055 2.429 . S
Gd1008 O1056 2.545 . S
Gd1008 O1057 2.412 1_554 S
Gd1008 O1059 2.362 . S
Gd1008 O1060 2.324 . S
Gd1008 C1067 2.828 1_554 S
Gd1009 N1018 2.661 . S
Gd1009 N1022 2.601 . S
Gd1009 O1053 2.362 . S
Gd1009 O1054 2.324 . S
Gd1009 O1058 2.545 . S
Gd1009 O1059 2.606 . S
Gd1009 O1061 2.429 . S
Gd1009 O1062 2.545 . S
Gd1009 O1063 2.412 . S
Gd1009 C1076 2.828 . S
C1010 C1013 1.417 . S
C1010 C1015 1.431 . S
C1010 C1016 1.412 . S
C1011 C1014 1.437 . S
C1011 C1015 1.317 . S
C1011 H1030 0.929 . S
C1012 C1013 1.426 . S
C1012 C1014 1.413 . S
C1012 N1022 1.359 . S
C1013 C1010 1.417 . S
C1013 C1012 1.426 . S
C1013 N1018 1.350 . S
C1014 C1011 1.437 . S
C1014 C1012 1.413 . S
C1014 C1024 1.391 . S
C1015 C1010 1.431 . S
C1015 C1011 1.317 . S
C1015 H1026 0.930 . S
C1016 C1010 1.412 . S
C1016 C1017 1.355 . S
C1016 H1028 0.930 . S
C1017 C1016 1.355 . S
C1017 C1019 1.402 . S
C1017 H1029 0.930 . S
N1018 Gd1009 2.661 . S
N1018 C1013 1.350 . S
N1018 C1019 1.307 . S
C1019 C1017 1.402 . S
C1019 N1018 1.307 . S
C1019 H1020 0.930 . S
H1020 C1019 0.930 . S
C1021 N1022 1.334 . S
C1021 C1023 1.394 . S
C1021 H1025 0.930 . S
N1022 Gd1009 2.601 . S
N1022 C1012 1.359 . S
N1022 C1021 1.334 . S
C1023 C1021 1.394 . S
C1023 C1024 1.359 . S
C1023 H1035 0.930 . S
C1024 C1014 1.391 . S
C1024 C1023 1.359 . S
C1024 H1036 0.929 . S
H1025 C1021 0.930 . S
H1026 C1015 0.930 . S
H1027 C1044 0.930 . S
H1028 C1016 0.930 . S
H1029 C1017 0.930 . S
H1030 C1011 0.929 . S
H1031 C1049 0.930 . S
H1032 C1040 0.930 . S
H1033 C1041 0.930 . S
H1034 C1065 0.929 . S
H1035 C1023 0.930 . S
H1036 C1024 0.929 . S
H1037 C1066 0.929 1_556 S
H1038 C1047 0.930 1_556 S
N1039 Gd1008 2.661 . S
N1039 C1043 1.350 . S
N1039 C1044 1.307 . S
C1040 H1032 0.930 . S
C1040 C1041 1.355 . S
C1040 C1042 1.412 . S
C1041 H1033 0.930 . S
C1041 C1040 1.355 . S
C1041 C1044 1.402 . S
C1042 C1040 1.412 . S
C1042 C1043 1.417 . S
C1042 C1066 1.434 . S
C1043 N1039 1.350 . S
C1043 C1042 1.417 . S
C1043 C1046 1.426 . S
C1044 H1027 0.930 . S
C1044 N1039 1.307 . S
C1044 C1041 1.402 . S
N1045 Gd1008 2.601 . S
N1045 C1046 1.359 . S
N1045 C1049 1.334 . S
C1046 C1043 1.426 . S
C1046 N1045 1.359 . S
C1046 C1050 1.413 . S
C1047 H1038 0.930 1_554 S
C1047 C1048 1.359 1_554 S
C1047 C1049 1.394 . S
C1048 C1047 1.359 1_556 S
C1048 C1050 1.391 1_556 S
C1048 H1051 0.929 . S
C1049 H1031 0.930 . S
C1049 N1045 1.334 . S
C1049 C1047 1.394 . S
C1050 C1046 1.413 . S
C1050 C1048 1.391 1_554 S
C1050 C1065 1.437 1_554 S
H1051 C1048 0.929 . S
O1052 Gd1008 2.545 1_556 S
O1052 C1067 1.258 . S
O1053 Gd1008 2.606 . S
O1053 Gd1009 2.362 . S
O1053 C1064 1.284 . S
O1054 Gd1009 2.324 . S
O1054 C1074 1.254 . S
O1055 Gd1008 2.429 . S
O1055 C1074 1.268 . S
O1056 Gd1008 2.545 . S
O1056 C1064 1.250 . S
O1057 Gd1008 2.412 1_556 S
O1057 C1067 1.252 . S
O1058 Gd1009 2.545 . S
O1058 C1076 1.258 . S
O1059 Gd1008 2.362 . S
O1059 Gd1009 2.606 . S
O1059 C1075 1.284 . S
O1060 Gd1008 2.324 . S
O1060 C1083 1.254 . S
O1061 Gd1009 2.429 . S
O1061 C1083 1.268 . S
O1062 Gd1009 2.545 . S
O1062 C1075 1.250 . S
O1063 Gd1009 2.412 . S
O1063 C1076 1.252 . S
C1064 O1053 1.284 . S
C1064 O1056 1.250 . S
C1065 H1034 0.929 . S
C1065 C1050 1.437 1_556 S
C1065 C1066 1.315 1_556 S
C1066 H1037 0.929 1_554 S
C1066 C1042 1.434 . S
C1066 C1065 1.315 1_554 S
C1067 Gd1008 2.828 1_556 S
C1067 O1052 1.258 . S
C1067 O1057 1.252 . S
C1067 C1068 1.497 . S
C1068 C1067 1.497 . S
C1068 C1069 1.395 . S
C1068 C1070 1.380 . S
C1069 C1068 1.395 . S
C1069 C1072 1.398 . S
C1069 H1084 0.930 . S
C1070 C1068 1.380 . S
C1070 C1071 1.391 . S
C1070 H1085 0.930 . S
C1071 C1070 1.391 . S
C1071 C1073 1.387 . S
C1072 C1069 1.398 . S
C1072 C1073 1.380 . S
C1072 H1086 0.930 . S
C1073 C1071 1.387 . S
C1073 C1072 1.380 . S
C1073 H1087 0.930 . S
C1074 O1054 1.254 . S
C1074 O1055 1.268 . S
C1075 O1059 1.284 . S
C1075 O1062 1.250 . S
C1076 Gd1009 2.828 . S
C1076 O1058 1.258 . S
C1076 O1063 1.252 . S
C1076 C1077 1.497 . S
C1077 C1076 1.497 . S
C1077 C1078 1.395 . S
C1077 C1079 1.380 . S
C1078 C1077 1.395 . S
C1078 C1081 1.398 . S
C1078 H1088 0.930 . S
C1079 C1077 1.380 . S
C1079 C1080 1.391 . S
C1079 H1089 0.930 . S
C1080 C1079 1.391 . S
C1080 C1082 1.387 . S
C1081 C1078 1.398 . S
C1081 C1082 1.380 . S
C1081 H1090 0.930 . S
C1082 C1080 1.387 . S
C1082 C1081 1.380 . S
C1082 H1091 0.930 . S
C1083 O1060 1.254 . S
C1083 O1061 1.268 . S
H1084 C1069 0.930 . S
H1085 C1070 0.930 . S
H1086 C1072 0.930 . S
H1087 C1073 0.930 . S
H1088 C1078 0.930 . S
H1089 C1079 0.930 . S
H1090 C1081 0.930 . S
H1091 C1082 0.930 . S
Gd1092 N1123 2.661 . S
Gd1092 N1129 2.601 . S
Gd1092 O1136 2.545 . S
Gd1092 O1137 2.606 . S
Gd1092 O1139 2.429 . S
Gd1092 O1140 2.545 . S
Gd1092 O1141 2.412 . S
Gd1092 O1143 2.362 . S
Gd1092 O1144 2.324 . S
Gd1092 C1151 2.828 . S
Gd1093 N1102 2.661 . S
Gd1093 N1106 2.601 . S
Gd1093 O1137 2.362 . S
Gd1093 O1138 2.324 . S
Gd1093 O1142 2.545 1_556 S
Gd1093 O1143 2.606 . S
Gd1093 O1145 2.429 . S
Gd1093 O1146 2.545 . S
Gd1093 O1147 2.412 1_556 S
Gd1093 C1160 2.828 1_556 S
C1094 C1097 1.417 . S
C1094 C1099 1.435 . S
C1094 C1100 1.412 . S
C1095 C1098 1.438 . S
C1095 C1099 1.315 1_554 S
C1095 H1114 0.929 . S
C1096 C1097 1.426 . S
C1096 C1098 1.410 1_556 S
C1096 N1106 1.359 . S
C1097 C1094 1.417 . S
C1097 C1096 1.426 . S
C1097 N1102 1.350 . S
C1098 C1095 1.438 . S
C1098 C1096 1.410 1_554 S
C1098 C1108 1.393 . S
C1099 C1094 1.435 . S
C1099 C1095 1.315 1_556 S
C1099 H1110 0.929 1_556 S
C1100 C1094 1.412 . S
C1100 C1101 1.355 . S
C1100 H1112 0.930 . S
C1101 C1100 1.355 . S
C1101 C1103 1.402 . S
C1101 H1113 0.930 . S
N1102 Gd1093 2.661 . S
N1102 C1097 1.350 . S
N1102 C1103 1.307 . S
C1103 C1101 1.402 . S
C1103 N1102 1.307 . S
C1103 H1104 0.930 . S
H1104 C1103 0.930 . S
C1105 N1106 1.334 . S
C1105 C1107 1.400 . S
C1105 H1109 0.930 . S
N1106 Gd1093 2.601 . S
N1106 C1096 1.359 . S
N1106 C1105 1.334 . S
C1107 C1105 1.400 . S
C1107 C1108 1.356 1_556 S
C1107 H1119 0.927 1_556 S
C1108 C1098 1.393 . S
C1108 C1107 1.356 1_554 S
C1108 H1120 0.929 . S
H1109 C1105 0.930 . S
H1110 C1099 0.929 1_554 S
H1111 C1128 0.930 . S
H1112 C1100 0.930 . S
H1113 C1101 0.930 . S
H1114 C1095 0.929 . S
H1115 C1133 0.930 . S
H1116 C1124 0.930 . S
H1117 C1125 0.930 . S
H1118 C1149 0.929 . S
H1119 C1107 0.927 1_554 S
H1120 C1108 0.929 . S
H1121 C1150 0.930 1_565 S
H1122 C1131 0.930 . S
N1123 Gd1092 2.661 . S
N1123 C1127 1.350 . S
N1123 C1128 1.307 . S
C1124 H1116 0.930 . S
C1124 C1125 1.355 . S
C1124 C1126 1.412 . S
C1125 H1117 0.930 . S
C1125 C1124 1.355 . S
C1125 C1128 1.402 . S
C1126 C1124 1.412 . S
C1126 C1127 1.417 . S
C1126 C1150 1.431 . S
C1127 N1123 1.350 . S
C1127 C1126 1.417 . S
C1127 C1130 1.426 . S
C1128 H1111 0.930 . S
C1128 N1123 1.307 . S
C1128 C1125 1.402 . S
N1129 Gd1092 2.601 . S
N1129 C1130 1.359 . S
N1129 C1133 1.334 . S
C1130 C1127 1.426 . S
C1130 N1129 1.359 . S
C1130 C1134 1.413 . S
C1131 H1122 0.930 . S
C1131 C1132 1.359 . S
C1131 C1133 1.394 . S
C1132 C1131 1.359 . S
C1132 C1134 1.391 . S
C1132 H1135 0.929 . S
C1133 H1115 0.930 . S
C1133 N1129 1.334 . S
C1133 C1131 1.394 . S
C1134 C1130 1.413 . S
C1134 C1132 1.391 . S
C1134 C1149 1.437 . S
H1135 C1132 0.929 . S
O1136 Gd1092 2.545 . S
O1136 C1151 1.258 . S
O1137 Gd1092 2.606 . S
O1137 Gd1093 2.362 . S
O1137 C1148 1.284 . S
O1138 Gd1093 2.324 . S
O1138 C1158 1.254 . S
O1139 Gd1092 2.429 . S
O1139 C1158 1.268 . S
O1140 Gd1092 2.545 . S
O1140 C1148 1.250 . S
O1141 Gd1092 2.412 . S
O1141 C1151 1.252 . S
O1142 Gd1093 2.545 1_554 S
O1142 C1160 1.258 . S
O1143 Gd1092 2.362 . S
O1143 Gd1093 2.606 . S
O1143 C1159 1.284 . S
O1144 Gd1092 2.324 . S
O1144 C1167 1.254 . S
O1145 Gd1093 2.429 . S
O1145 C1167 1.268 . S
O1146 Gd1093 2.545 . S
O1146 C1159 1.250 . S
O1147 Gd1093 2.412 1_554 S
O1147 C1160 1.252 . S
C1148 O1137 1.284 . S
C1148 O1140 1.250 . S
C1149 H1118 0.929 . S
C1149 C1134 1.437 . S
C1149 C1150 1.317 . S
C1150 H1121 0.930 1_545 S
C1150 C1126 1.431 . S
C1150 C1149 1.317 . S
C1151 Gd1092 2.828 . S
C1151 O1136 1.258 . S
C1151 O1141 1.252 . S
C1151 C1152 1.497 . S
C1152 C1151 1.497 . S
C1152 C1153 1.395 . S
C1152 C1154 1.380 . S
C1153 C1152 1.395 . S
C1153 C1156 1.398 . S
C1153 H1168 0.930 . S
C1154 C1152 1.380 . S
C1154 C1155 1.391 . S
C1154 H1169 0.930 . S
C1155 C1154 1.391 . S
C1155 C1157 1.387 . S
C1156 C1153 1.398 . S
C1156 C1157 1.380 . S
C1156 H1170 0.930 . S
C1157 C1155 1.387 . S
C1157 C1156 1.380 . S
C1157 H1171 0.930 . S
C1158 O1138 1.254 . S
C1158 O1139 1.268 . S
C1159 O1143 1.284 . S
C1159 O1146 1.250 . S
C1160 Gd1093 2.828 1_554 S
C1160 O1142 1.258 . S
C1160 O1147 1.252 . S
C1160 C1161 1.497 . S
C1161 C1160 1.497 . S
C1161 C1162 1.395 . S
C1161 C1163 1.380 . S
C1162 C1161 1.395 . S
C1162 C1165 1.398 . S
C1162 H1172 0.930 . S
C1163 C1161 1.380 . S
C1163 C1164 1.391 . S
C1163 H1173 0.930 . S
C1164 C1163 1.391 . S
C1164 C1166 1.387 . S
C1165 C1162 1.398 . S
C1165 C1166 1.380 . S
C1165 H1174 0.930 . S
C1166 C1164 1.387 . S
C1166 C1165 1.380 . S
C1166 H1175 0.930 . S
C1167 O1144 1.254 . S
C1167 O1145 1.268 . S
H1168 C1153 0.930 . S
H1169 C1154 0.930 . S
H1170 C1156 0.930 . S
H1171 C1157 0.930 . S
H1172 C1162 0.930 . S
H1173 C1163 0.930 . S
H1174 C1165 0.930 . S
H1175 C1166 0.930 . S
Gd1176 N1207 2.661 . S
Gd1176 N1213 2.601 . S
Gd1176 O1220 2.545 . S
Gd1176 O1221 2.606 . S
Gd1176 O1223 2.429 . S
Gd1176 O1224 2.545 . S
Gd1176 O1225 2.412 . S
Gd1176 O1227 2.362 . S
Gd1176 O1228 2.324 . S
Gd1176 C1235 2.828 . S
Gd1177 N1186 2.661 . S
Gd1177 N1190 2.601 . S
Gd1177 O1221 2.362 . S
Gd1177 O1222 2.324 . S
Gd1177 O1226 2.545 . S
Gd1177 O1227 2.606 . S
Gd1177 O1229 2.429 . S
Gd1177 O1230 2.545 . S
Gd1177 O1231 2.412 . S
Gd1177 C1244 2.828 . S
C1178 C1181 1.417 . S
C1178 C1183 1.431 . S
C1178 C1184 1.412 . S
C1179 C1182 1.437 . S
C1179 C1183 1.317 . S
C1179 H1198 0.929 . S
C1180 C1181 1.426 . S
C1180 C1182 1.413 . S
C1180 N1190 1.359 . S
C1181 C1178 1.417 . S
C1181 C1180 1.426 . S
C1181 N1186 1.350 . S
C1182 C1179 1.437 . S
C1182 C1180 1.413 . S
C1182 C1192 1.391 . S
C1183 C1178 1.431 . S
C1183 C1179 1.317 . S
C1183 H1194 0.930 . S
C1184 C1178 1.412 . S
C1184 C1185 1.355 . S
C1184 H1196 0.930 . S
C1185 C1184 1.355 . S
C1185 C1187 1.402 . S
C1185 H1197 0.930 . S
N1186 Gd1177 2.661 . S
N1186 C1181 1.350 . S
N1186 C1187 1.307 . S
C1187 C1185 1.402 . S
C1187 N1186 1.307 . S
C1187 H1188 0.930 . S
H1188 C1187 0.930 . S
C1189 N1190 1.334 . S
C1189 C1191 1.394 . S
C1189 H1193 0.930 . S
N1190 Gd1177 2.601 . S
N1190 C1180 1.359 . S
N1190 C1189 1.334 . S
C1191 C1189 1.394 . S
C1191 C1192 1.359 . S
C1191 H1203 0.930 . S
C1192 C1182 1.391 . S
C1192 C1191 1.359 . S
C1192 H1204 0.929 . S
H1193 C1189 0.930 . S
H1194 C1183 0.930 . S
H1195 C1212 0.930 . S
H1196 C1184 0.930 . S
H1197 C1185 0.930 . S
H1198 C1179 0.929 . S
H1199 C1217 0.930 . S
H1200 C1208 0.930 . S
H1201 C1209 0.930 . S
H1202 C1233 0.929 . S
H1203 C1191 0.930 . S
H1204 C1192 0.929 . S
H1205 C1234 0.930 . S
H1206 C1215 0.930 . S
N1207 Gd1176 2.661 . S
N1207 C1211 1.350 . S
N1207 C1212 1.307 . S
C1208 H1200 0.930 . S
C1208 C1209 1.355 . S
C1208 C1210 1.412 . S
C1209 H1201 0.930 . S
C1209 C1208 1.355 . S
C1209 C1212 1.402 . S
C1210 C1208 1.412 . S
C1210 C1211 1.417 . S
C1210 C1234 1.431 . S
C1211 N1207 1.350 . S
C1211 C1210 1.417 . S
C1211 C1214 1.426 . S
C1212 H1195 0.930 . S
C1212 N1207 1.307 . S
C1212 C1209 1.402 . S
N1213 Gd1176 2.601 . S
N1213 C1214 1.359 . S
N1213 C1217 1.334 . S
C1214 C1211 1.426 . S
C1214 N1213 1.359 . S
C1214 C1218 1.413 . S
C1215 H1206 0.930 . S
C1215 C1216 1.359 . S
C1215 C1217 1.394 . S
C1216 C1215 1.359 . S
C1216 C1218 1.391 . S
C1216 H1219 0.929 . S
C1217 H1199 0.930 . S
C1217 N1213 1.334 . S
C1217 C1215 1.394 . S
C1218 C1214 1.413 . S
C1218 C1216 1.391 . S
C1218 C1233 1.437 . S
H1219 C1216 0.929 . S
O1220 Gd1176 2.545 . S
O1220 C1235 1.258 . S
O1221 Gd1176 2.606 . S
O1221 Gd1177 2.362 . S
O1221 C1232 1.284 . S
O1222 Gd1177 2.324 . S
O1222 C1242 1.254 . S
O1223 Gd1176 2.429 . S
O1223 C1242 1.268 . S
O1224 Gd1176 2.545 . S
O1224 C1232 1.250 . S
O1225 Gd1176 2.412 . S
O1225 C1235 1.252 . S
O1226 Gd1177 2.545 . S
O1226 C1244 1.258 . S
O1227 Gd1176 2.362 . S
O1227 Gd1177 2.606 . S
O1227 C1243 1.284 . S
O1228 Gd1176 2.324 . S
O1228 C1251 1.254 . S
O1229 Gd1177 2.429 . S
O1229 C1251 1.268 . S
O1230 Gd1177 2.545 . S
O1230 C1243 1.250 . S
O1231 Gd1177 2.412 . S
O1231 C1244 1.252 . S
C1232 O1221 1.284 . S
C1232 O1224 1.250 . S
C1233 H1202 0.929 . S
C1233 C1218 1.437 . S
C1233 C1234 1.317 . S
C1234 H1205 0.930 . S
C1234 C1210 1.431 . S
C1234 C1233 1.317 . S
C1235 Gd1176 2.828 . S
C1235 O1220 1.258 . S
C1235 O1225 1.252 . S
C1235 C1236 1.497 . S
C1236 C1235 1.497 . S
C1236 C1237 1.395 . S
C1236 C1238 1.380 . S
C1237 C1236 1.395 . S
C1237 C1240 1.398 . S
C1237 H1252 0.930 . S
C1238 C1236 1.380 . S
C1238 C1239 1.391 . S
C1238 H1253 0.930 . S
C1239 C1238 1.391 . S
C1239 C1241 1.387 . S
C1240 C1237 1.398 . S
C1240 C1241 1.380 . S
C1240 H1254 0.930 . S
C1241 C1239 1.387 . S
C1241 C1240 1.380 . S
C1241 H1255 0.910 1_556 S
C1242 O1222 1.254 . S
C1242 O1223 1.268 . S
C1243 O1227 1.284 . S
C1243 O1230 1.250 . S
C1244 Gd1177 2.828 . S
C1244 O1226 1.258 . S
C1244 O1231 1.252 . S
C1244 C1245 1.497 . S
C1245 C1244 1.497 . S
C1245 C1246 1.395 . S
C1245 C1247 1.380 . S
C1246 C1245 1.395 . S
C1246 C1249 1.398 . S
C1246 H1256 0.930 . S
C1247 C1245 1.380 . S
C1247 C1248 1.391 . S
C1247 H1257 0.930 . S
C1248 C1247 1.391 . S
C1248 C1250 1.387 . S
C1249 C1246 1.398 . S
C1249 C1250 1.380 . S
C1249 H1258 0.930 . S
C1250 C1248 1.387 . S
C1250 C1249 1.380 . S
C1250 H1259 0.930 . S
C1251 O1228 1.254 . S
C1251 O1229 1.268 . S
H1252 C1237 0.930 . S
H1253 C1238 0.930 . S
H1254 C1240 0.930 . S
H1255 C1241 0.910 1_554 S
H1256 C1246 0.930 . S
H1257 C1247 0.930 . S
H1258 C1249 0.930 . S
H1259 C1250 0.930 . S
Gd1260 N1291 2.661 . S
Gd1260 N1297 2.601 . S
Gd1260 O1304 2.545 . S
Gd1260 O1305 2.606 . S
Gd1260 O1307 2.429 . S
Gd1260 O1308 2.545 . S
Gd1260 O1309 2.412 . S
Gd1260 O1311 2.362 . S
Gd1260 O1312 2.324 . S
Gd1260 C1319 2.828 . S
Gd1261 N1270 2.661 . S
Gd1261 N1274 2.601 . S
Gd1261 O1305 2.362 . S
Gd1261 O1306 2.324 . S
Gd1261 O1310 2.545 . S
Gd1261 O1311 2.606 . S
Gd1261 O1313 2.429 . S
Gd1261 O1314 2.545 . S
Gd1261 O1315 2.412 . S
Gd1261 C1328 2.828 . S
C1262 C1265 1.417 . S
C1262 C1267 1.431 . S
C1262 C1268 1.412 . S
C1263 C1266 1.437 . S
C1263 C1267 1.317 . S
C1263 H1282 0.929 . S
C1264 C1265 1.426 . S
C1264 C1266 1.413 . S
C1264 N1274 1.359 . S
C1265 C1262 1.417 . S
C1265 C1264 1.426 . S
C1265 N1270 1.350 . S
C1266 C1263 1.437 . S
C1266 C1264 1.413 . S
C1266 C1276 1.391 . S
C1267 C1262 1.431 . S
C1267 C1263 1.317 . S
C1267 H1278 0.930 . S
C1268 C1262 1.412 . S
C1268 C1269 1.355 . S
C1268 H1280 0.930 . S
C1269 C1268 1.355 . S
C1269 C1271 1.402 . S
C1269 H1281 0.930 . S
N1270 Gd1261 2.661 . S
N1270 C1265 1.350 . S
N1270 C1271 1.307 . S
C1271 C1269 1.402 . S
C1271 N1270 1.307 . S
C1271 H1272 0.930 . S
H1272 C1271 0.930 . S
C1273 N1274 1.334 . S
C1273 C1275 1.394 . S
C1273 H1277 0.930 . S
N1274 Gd1261 2.601 . S
N1274 C1264 1.359 . S
N1274 C1273 1.334 . S
C1275 C1273 1.394 . S
C1275 C1276 1.359 . S
C1275 H1287 0.930 . S
C1276 C1266 1.391 . S
C1276 C1275 1.359 . S
C1276 H1288 0.929 . S
H1277 C1273 0.930 . S
H1278 C1267 0.930 . S
H1279 C1296 0.930 . S
H1280 C1268 0.930 . S
H1281 C1269 0.930 . S
H1282 C1263 0.929 . S
H1283 C1301 0.930 . S
H1284 C1292 0.930 . S
H1285 C1293 0.930 . S
H1286 C1317 0.929 . S
H1287 C1275 0.930 . S
H1288 C1276 0.929 . S
H1289 C1318 0.930 1_545 S
H1290 C1299 0.930 . S
N1291 Gd1260 2.661 . S
N1291 C1295 1.350 . S
N1291 C1296 1.307 . S
C1292 H1284 0.930 . S
C1292 C1293 1.355 . S
C1292 C1294 1.412 . S
C1293 H1285 0.930 . S
C1293 C1292 1.355 . S
C1293 C1296 1.402 . S
C1294 C1292 1.412 . S
C1294 C1295 1.417 . S
C1294 C1318 1.431 . S
C1295 N1291 1.350 . S
C1295 C1294 1.417 . S
C1295 C1298 1.426 . S
C1296 H1279 0.930 . S
C1296 N1291 1.307 . S
C1296 C1293 1.402 . S
N1297 Gd1260 2.601 . S
N1297 C1298 1.359 . S
N1297 C1301 1.334 . S
C1298 C1295 1.426 . S
C1298 N1297 1.359 . S
C1298 C1302 1.413 . S
C1299 H1290 0.930 . S
C1299 C1300 1.359 . S
C1299 C1301 1.394 . S
C1300 C1299 1.359 . S
C1300 C1302 1.391 . S
C1300 H1303 0.929 . S
C1301 H1283 0.930 . S
C1301 N1297 1.334 . S
C1301 C1299 1.394 . S
C1302 C1298 1.413 . S
C1302 C1300 1.391 . S
C1302 C1317 1.437 . S
H1303 C1300 0.929 . S
O1304 Gd1260 2.545 . S
O1304 C1319 1.258 . S
O1305 Gd1260 2.606 . S
O1305 Gd1261 2.362 . S
O1305 C1316 1.284 . S
O1306 Gd1261 2.324 . S
O1306 C1326 1.254 . S
O1307 Gd1260 2.429 . S
O1307 C1326 1.268 . S
O1308 Gd1260 2.545 . S
O1308 C1316 1.250 . S
O1309 Gd1260 2.412 . S
O1309 C1319 1.252 . S
O1310 Gd1261 2.545 . S
O1310 C1328 1.258 . S
O1311 Gd1260 2.362 . S
O1311 Gd1261 2.606 . S
O1311 C1327 1.284 . S
O1312 Gd1260 2.324 . S
O1312 C1335 1.254 . S
O1313 Gd1261 2.429 . S
O1313 C1335 1.268 . S
O1314 Gd1261 2.545 . S
O1314 C1327 1.250 . S
O1315 Gd1261 2.412 . S
O1315 C1328 1.252 . S
C1316 O1305 1.284 . S
C1316 O1308 1.250 . S
C1317 H1286 0.929 . S
C1317 C1302 1.437 . S
C1317 C1318 1.317 . S
C1318 H1289 0.930 1_565 S
C1318 C1294 1.431 . S
C1318 C1317 1.317 . S
C1319 Gd1260 2.828 . S
C1319 O1304 1.258 . S
C1319 O1309 1.252 . S
C1319 C1320 1.497 . S
C1320 C1319 1.497 . S
C1320 C1321 1.395 . S
C1320 C1322 1.380 . S
C1321 C1320 1.395 . S
C1321 C1324 1.398 . S
C1321 H1336 0.930 . S
C1322 C1320 1.380 . S
C1322 C1323 1.391 . S
C1322 H1337 0.930 . S
C1323 C1322 1.391 . S
C1323 C1325 1.387 . S
C1324 C1321 1.398 . S
C1324 C1325 1.380 . S
C1324 H1338 0.930 . S
C1325 C1323 1.387 . S
C1325 C1324 1.380 . S
C1325 H1339 0.930 1_554 S
C1326 O1306 1.254 . S
C1326 O1307 1.268 . S
C1327 O1311 1.284 . S
C1327 O1314 1.250 . S
C1328 Gd1261 2.828 . S
C1328 O1310 1.258 . S
C1328 O1315 1.252 . S
C1328 C1329 1.497 . S
C1329 C1328 1.497 . S
C1329 C1330 1.395 . S
C1329 C1331 1.380 . S
C1330 C1329 1.395 . S
C1330 C1333 1.398 . S
C1330 H1340 0.930 . S
C1331 C1329 1.380 . S
C1331 C1332 1.391 . S
C1331 H1341 0.930 . S
C1332 C1331 1.391 . S
C1332 C1334 1.387 . S
C1333 C1330 1.398 . S
C1333 C1334 1.380 . S
C1333 H1342 0.930 . S
C1334 C1332 1.387 . S
C1334 C1333 1.380 . S
C1334 H1343 0.930 . S
C1335 O1312 1.254 . S
C1335 O1313 1.268 . S
H1336 C1321 0.930 . S
H1337 C1322 0.930 . S
H1338 C1324 0.930 . S
H1339 C1325 0.930 1_556 S
H1340 C1330 0.930 . S
H1341 C1331 0.930 . S
H1342 C1333 0.930 . S
H1343 C1334 0.930 . S
H1344 C1350 0.930 . S
H1345 C1354 0.930 . S
H1346 C1359 0.929 . S
H1347 C1357 0.929 . S
H1348 C1352 0.929 . S
H1349 C1358 0.929 . S
C1350 H1344 0.930 . S
C1350 C1351 1.367 . S
C1350 C1358 1.378 . S
C1351 C1350 1.367 . S
C1351 C1359 1.433 . S
C1352 H1348 0.929 . S
C1352 C1354 1.378 . S
C1352 C1356 1.350 . S
C1353 C1356 1.463 . S
C1353 C1358 1.350 . S
C1353 N1361 1.427 . S
C1354 H1345 0.930 . S
C1354 C1352 1.378 . S
C1354 C1355 1.367 . S
C1355 C1354 1.367 . S
C1355 C1357 1.433 . S
C1356 C1352 1.350 . S
C1356 C1353 1.463 . S
C1356 N1360 1.427 . S
C1357 H1347 0.929 . S
C1357 C1355 1.433 . S
C1357 N1360 1.384 . S
C1358 H1349 0.929 . S
C1358 C1350 1.378 . S
C1358 C1353 1.350 . S
C1359 H1346 0.929 . S
C1359 C1351 1.433 . S
C1359 N1361 1.384 . S
N1360 C1356 1.427 . S
N1360 C1357 1.384 . S
N1361 C1353 1.427 . S
N1361 C1359 1.384 . S
H1362 C1368 0.930 . S
H1363 C1372 0.930 . S
H1364 C1377 0.929 1_554 S
H1365 C1375 0.929 . S
H1366 C1370 0.929 . S
H1367 C1376 0.929 . S
C1368 H1362 0.930 . S
C1368 C1369 1.367 1_556 S
C1368 C1376 1.378 . S
C1369 C1368 1.367 1_554 S
C1369 C1377 1.433 1_554 S
C1370 H1366 0.929 . S
C1370 C1372 1.378 . S
C1370 C1374 1.350 . S
C1371 C1374 1.463 . S
C1371 C1376 1.350 . S
C1371 N1379 1.427 . S
C1372 H1363 0.930 . S
C1372 C1370 1.378 . S
C1372 C1373 1.367 . S
C1373 C1372 1.367 . S
C1373 C1375 1.433 . S
C1374 C1370 1.350 . S
C1374 C1371 1.463 . S
C1374 N1378 1.427 . S
C1375 H1365 0.929 . S
C1375 C1373 1.433 . S
C1375 N1378 1.384 . S
C1376 H1367 0.929 . S
C1376 C1368 1.378 . S
C1376 C1371 1.350 . S
C1377 H1364 0.929 1_556 S
C1377 C1369 1.433 1_556 S
C1377 N1379 1.384 . S
N1378 C1374 1.427 . S
N1378 C1375 1.384 . S
N1379 C1371 1.427 . S
N1379 C1377 1.384 . S
H1380 C1386 0.930 . S
H1381 C1390 0.930 . S
H1382 C1395 0.929 . S
H1383 C1393 0.929 1_556 S
H1384 C1388 0.929 . S
H1385 C1394 0.929 . S
C1386 H1380 0.930 . S
C1386 C1387 1.367 . S
C1386 C1394 1.378 . S
C1387 C1386 1.367 . S
C1387 C1395 1.433 . S
C1388 H1384 0.929 . S
C1388 C1390 1.378 . S
C1388 C1392 1.350 . S
C1389 C1392 1.463 . S
C1389 C1394 1.350 . S
C1389 N1397 1.427 . S
C1390 H1381 0.930 . S
C1390 C1388 1.378 . S
C1390 C1391 1.367 1_554 S
C1391 C1390 1.367 1_556 S
C1391 C1393 1.433 1_556 S
C1392 C1388 1.350 . S
C1392 C1389 1.463 . S
C1392 N1396 1.427 . S
C1393 H1383 0.929 1_554 S
C1393 C1391 1.433 1_554 S
C1393 N1396 1.384 . S
C1394 H1385 0.929 . S
C1394 C1386 1.378 . S
C1394 C1389 1.350 . S
C1395 H1382 0.929 . S
C1395 C1387 1.433 . S
C1395 N1397 1.384 . S
N1396 C1392 1.427 . S
N1396 C1393 1.384 . S
N1397 C1389 1.427 . S
N1397 C1395 1.384 . S
H1398 C1404 0.930 . S
H1399 C1408 0.930 . S
H1400 C1413 0.929 . S
H1401 C1411 0.929 . S
H1402 C1406 0.929 . S
H1403 C1412 0.929 . S
C1404 H1398 0.930 . S
C1404 C1405 1.367 . S
C1404 C1412 1.378 . S
C1405 C1404 1.367 . S
C1405 C1413 1.433 . S
C1406 H1402 0.929 . S
C1406 C1408 1.378 . S
C1406 C1410 1.350 . S
C1407 C1410 1.463 . S
C1407 C1412 1.350 . S
C1407 N1415 1.427 . S
C1408 H1399 0.930 . S
C1408 C1406 1.378 . S
C1408 C1409 1.367 . S
C1409 C1408 1.367 . S
C1409 C1411 1.433 . S
C1410 C1406 1.350 . S
C1410 C1407 1.463 . S
C1410 N1414 1.427 . S
C1411 H1401 0.929 . S
C1411 C1409 1.433 . S
C1411 N1414 1.384 . S
C1412 H1403 0.929 . S
C1412 C1404 1.378 . S
C1412 C1407 1.350 . S
C1413 H1400 0.929 . S
C1413 C1405 1.433 . S
C1413 N1415 1.384 . S
N1414 C1410 1.427 . S
N1414 C1411 1.384 . S
N1415 C1407 1.427 . S
N1415 C1413 1.384 . S
H1416 C1422 0.930 . S
H1417 C1426 0.930 . S
H1418 C1431 0.929 . S
H1419 C1429 0.929 . S
H1420 C1424 0.929 . S
H1421 C1430 0.929 . S
C1422 H1416 0.930 . S
C1422 C1423 1.367 . S
C1422 C1430 1.378 . S
C1423 C1422 1.367 . S
C1423 C1431 1.433 . S
C1424 H1420 0.929 . S
C1424 C1426 1.378 . S
C1424 C1428 1.350 . S
C1425 C1428 1.463 . S
C1425 C1430 1.350 . S
C1425 N1433 1.427 . S
C1426 H1417 0.930 . S
C1426 C1424 1.378 . S
C1426 C1427 1.367 . S
C1427 C1426 1.367 . S
C1427 C1429 1.433 . S
C1428 C1424 1.350 . S
C1428 C1425 1.463 . S
C1428 N1432 1.427 . S
C1429 H1419 0.929 . S
C1429 C1427 1.433 . S
C1429 N1432 1.384 . S
C1430 H1421 0.929 . S
C1430 C1422 1.378 . S
C1430 C1425 1.350 . S
C1431 H1418 0.929 . S
C1431 C1423 1.433 . S
C1431 N1433 1.384 . S
N1432 C1428 1.427 . S
N1432 C1429 1.384 . S
N1433 C1425 1.427 . S
N1433 C1431 1.384 . S
H1434 C1440 0.930 . S
H1435 C1444 0.930 . S
H1436 C1449 0.929 . S
H1437 C1447 0.929 . S
H1438 C1442 0.929 . S
H1439 C1448 0.929 . S
C1440 H1434 0.930 . S
C1440 C1441 1.367 . S
C1440 C1448 1.378 . S
C1441 C1440 1.367 . S
C1441 C1449 1.433 . S
C1442 H1438 0.929 . S
C1442 C1444 1.378 . S
C1442 C1446 1.350 . S
C1443 C1446 1.463 . S
C1443 C1448 1.350 . S
C1443 N1451 1.427 . S
C1444 H1435 0.930 . S
C1444 C1442 1.378 . S
C1444 C1445 1.367 . S
C1445 C1444 1.367 . S
C1445 C1447 1.433 . S
C1446 C1442 1.350 . S
C1446 C1443 1.463 . S
C1446 N1450 1.427 . S
C1447 H1437 0.929 . S
C1447 C1445 1.433 . S
C1447 N1450 1.384 . S
C1448 H1439 0.929 . S
C1448 C1440 1.378 . S
C1448 C1443 1.350 . S
C1449 H1436 0.929 . S
C1449 C1441 1.433 . S
C1449 N1451 1.384 . S
N1450 C1446 1.427 . S
N1450 C1447 1.384 . S
N1451 C1443 1.427 . S
N1451 C1449 1.384 . S
H1452 C1458 0.930 . S
H1453 C1462 0.930 1_554 S
H1454 C1467 0.929 . S
H1455 C1465 0.929 . S
H1456 C1460 0.929 . S
H1457 C1466 0.929 . S
C1458 H1452 0.930 . S
C1458 C1459 1.367 . S
C1458 C1466 1.378 . S
C1459 C1458 1.367 . S
C1459 C1467 1.433 . S
C1460 H1456 0.929 . S
C1460 C1462 1.378 . S
C1460 C1464 1.350 . S
C1461 C1464 1.463 . S
C1461 C1466 1.350 . S
C1461 N1469 1.427 . S
C1462 H1453 0.930 1_556 S
C1462 C1460 1.378 . S
C1462 C1463 1.367 1_556 S
C1463 C1462 1.367 1_554 S
C1463 C1465 1.433 1_554 S
C1464 C1460 1.350 . S
C1464 C1461 1.463 . S
C1464 N1468 1.427 . S
C1465 H1455 0.929 . S
C1465 C1463 1.433 1_556 S
C1465 N1468 1.384 . S
C1466 H1457 0.929 . S
C1466 C1458 1.378 . S
C1466 C1461 1.350 . S
C1467 H1454 0.929 . S
C1467 C1459 1.433 . S
C1467 N1469 1.384 . S
N1468 C1464 1.427 . S
N1468 C1465 1.384 . S
N1469 C1461 1.427 . S
N1469 C1467 1.384 . S
H1470 C1476 0.930 1_556 S
H1471 C1480 0.930 . S
H1472 C1485 0.929 . S
H1473 C1483 0.929 . S
H1474 C1478 0.929 . S
H1475 C1484 0.929 . S
C1476 H1470 0.930 1_554 S
C1476 C1477 1.364 1_554 S
C1476 C1484 1.378 . S
C1477 C1476 1.364 1_556 S
C1477 C1485 1.421 1_556 S
C1478 H1474 0.929 . S
C1478 C1480 1.378 . S
C1478 C1482 1.350 . S
C1479 C1482 1.463 . S
C1479 C1484 1.350 . S
C1479 N1487 1.427 . S
C1480 H1471 0.930 . S
C1480 C1478 1.378 . S
C1480 C1481 1.367 . S
C1481 C1480 1.367 . S
C1481 C1483 1.433 . S
C1482 C1478 1.350 . S
C1482 C1479 1.463 . S
C1482 N1486 1.427 . S
C1483 H1473 0.929 . S
C1483 C1481 1.433 . S
C1483 N1486 1.384 . S
C1484 H1475 0.929 . S
C1484 C1476 1.378 . S
C1484 C1479 1.350 . S
C1485 H1472 0.929 . S
C1485 C1477 1.421 1_554 S
C1485 N1487 1.384 . S
N1486 C1482 1.427 . S
N1486 C1483 1.384 . S
N1487 C1479 1.427 . S
N1487 C1485 1.384 . S
H1488 C1494 0.930 . S
H1489 C1498 0.930 . S
H1490 C1503 0.929 . S
H1491 C1501 0.929 . S
H1492 C1496 0.929 . S
H1493 C1502 0.929 . S
C1494 H1488 0.930 . S
C1494 C1495 1.367 . S
C1494 C1502 1.378 . S
C1495 C1494 1.367 . S
C1495 C1503 1.433 . S
C1496 H1492 0.929 . S
C1496 C1498 1.378 . S
C1496 C1500 1.350 . S
C1497 C1500 1.463 . S
C1497 C1502 1.350 . S
C1497 N1505 1.427 . S
C1498 H1489 0.930 . S
C1498 C1496 1.378 . S
C1498 C1499 1.367 . S
C1499 C1498 1.367 . S
C1499 C1501 1.433 . S
C1500 C1496 1.350 . S
C1500 C1497 1.463 . S
C1500 N1504 1.427 . S
C1501 H1491 0.929 . S
C1501 C1499 1.433 . S
C1501 N1504 1.384 . S
C1502 H1493 0.929 . S
C1502 C1494 1.378 . S
C1502 C1497 1.350 . S
C1503 H1490 0.929 . S
C1503 C1495 1.433 . S
C1503 N1505 1.384 . S
N1504 C1500 1.427 . S
N1504 C1501 1.384 . S
N1505 C1497 1.427 . S
N1505 C1503 1.384 . S
H1506 C1512 0.930 . S
H1507 C1516 0.930 . S
H1508 C1521 0.929 . S
H1509 C1519 0.929 1_556 S
H1510 C1514 0.929 . S
H1511 C1520 0.929 . S
C1512 H1506 0.930 . S
C1512 C1513 1.367 . S
C1512 C1520 1.378 . S
C1513 C1512 1.367 . S
C1513 C1521 1.433 . S
C1514 H1510 0.929 . S
C1514 C1516 1.378 . S
C1514 C1518 1.350 . S
C1515 C1518 1.463 . S
C1515 C1520 1.350 . S
C1515 N1523 1.427 . S
C1516 H1507 0.930 . S
C1516 C1514 1.378 . S
C1516 C1517 1.367 1_554 S
C1517 C1516 1.367 1_556 S
C1517 C1519 1.433 1_556 S
C1518 C1514 1.350 . S
C1518 C1515 1.463 . S
C1518 N1522 1.427 . S
C1519 H1509 0.929 1_554 S
C1519 C1517 1.433 1_554 S
C1519 N1522 1.384 . S
C1520 H1511 0.929 . S
C1520 C1512 1.378 . S
C1520 C1515 1.350 . S
C1521 H1508 0.929 . S
C1521 C1513 1.433 . S
C1521 N1523 1.384 . S
N1522 C1518 1.427 . S
N1522 C1519 1.384 . S
N1523 C1515 1.427 . S
N1523 C1521 1.384 . S
H1524 C1530 0.930 1_554 S
H1525 C1534 0.930 . S
H1526 C1539 0.929 . S
H1527 C1537 0.929 . S
H1528 C1532 0.929 . S
H1529 C1538 0.929 . S
C1530 H1524 0.930 1_556 S
C1530 C1531 1.367 1_556 S
C1530 C1538 1.378 . S
C1531 C1530 1.367 1_554 S
C1531 C1539 1.433 1_554 S
C1532 H1528 0.929 . S
C1532 C1534 1.378 . S
C1532 C1536 1.350 . S
C1533 C1536 1.463 . S
C1533 C1538 1.350 . S
C1533 N1541 1.427 . S
C1534 H1525 0.930 . S
C1534 C1532 1.378 . S
C1534 C1535 1.367 . S
C1535 C1534 1.367 . S
C1535 C1537 1.433 . S
C1536 C1532 1.350 . S
C1536 C1533 1.463 . S
C1536 N1540 1.427 . S
C1537 H1527 0.929 . S
C1537 C1535 1.433 . S
C1537 N1540 1.384 . S
C1538 H1529 0.929 . S
C1538 C1530 1.378 . S
C1538 C1533 1.350 . S
C1539 H1526 0.929 . S
C1539 C1531 1.433 1_556 S
C1539 N1541 1.384 . S
N1540 C1536 1.427 . S
N1540 C1537 1.384 . S
N1541 C1533 1.427 . S
N1541 C1539 1.384 . S
H1542 C1548 0.930 . S
H1543 C1552 0.930 . S
H1544 C1557 0.929 . S
H1545 C1555 0.929 . S
H1546 C1550 0.929 . S
H1547 C1556 0.929 . S
C1548 H1542 0.930 . S
C1548 C1549 1.367 . S
C1548 C1556 1.378 . S
C1549 C1548 1.367 . S
C1549 C1557 1.433 . S
C1550 H1546 0.929 . S
C1550 C1552 1.378 . S
C1550 C1554 1.350 . S
C1551 C1554 1.463 . S
C1551 C1556 1.350 . S
C1551 N1559 1.427 . S
C1552 H1543 0.930 . S
C1552 C1550 1.378 . S
C1552 C1553 1.367 . S
C1553 C1552 1.367 . S
C1553 C1555 1.433 . S
C1554 C1550 1.350 . S
C1554 C1551 1.463 . S
C1554 N1558 1.427 . S
C1555 H1545 0.929 . S
C1555 C1553 1.433 . S
C1555 N1558 1.384 . S
C1556 H1547 0.929 . S
C1556 C1548 1.378 . S
C1556 C1551 1.350 . S
C1557 H1544 0.929 . S
C1557 C1549 1.433 . S
C1557 N1559 1.384 . S
N1558 C1554 1.427 . S
N1558 C1555 1.384 . S
N1559 C1551 1.427 . S
N1559 C1557 1.384 . S
H1560 C1566 0.930 . S
H1561 C1570 0.930 . S
H1562 C1575 0.929 . S
H1563 C1573 0.929 . S
H1564 C1568 0.929 . S
H1565 C1574 0.929 . S
C1566 H1560 0.930 . S
C1566 C1567 1.367 . S
C1566 C1574 1.378 . S
C1567 C1566 1.367 . S
C1567 C1575 1.433 . S
C1568 H1564 0.929 . S
C1568 C1570 1.378 . S
C1568 C1572 1.350 . S
C1569 C1572 1.463 . S
C1569 C1574 1.350 . S
C1569 N1577 1.427 . S
C1570 H1561 0.930 . S
C1570 C1568 1.378 . S
C1570 C1571 1.367 . S
C1571 C1570 1.367 . S
C1571 C1573 1.433 . S
C1572 C1568 1.350 . S
C1572 C1569 1.463 . S
C1572 N1576 1.427 . S
C1573 H1563 0.929 . S
C1573 C1571 1.433 . S
C1573 N1576 1.384 . S
C1574 H1565 0.929 . S
C1574 C1566 1.378 . S
C1574 C1569 1.350 . S
C1575 H1562 0.929 . S
C1575 C1567 1.433 . S
C1575 N1577 1.384 . S
N1576 C1572 1.427 . S
N1576 C1573 1.384 . S
N1577 C1569 1.427 . S
N1577 C1575 1.384 . S
H1578 C1584 0.930 . S
H1579 C1588 0.930 . S
H1580 C1593 0.929 . S
H1581 C1591 0.929 . S
H1582 C1586 0.929 . S
H1583 C1592 0.929 . S
C1584 H1578 0.930 . S
C1584 C1585 1.367 . S
C1584 C1592 1.378 . S
C1585 C1584 1.367 . S
C1585 C1593 1.433 . S
C1586 H1582 0.929 . S
C1586 C1588 1.378 . S
C1586 C1590 1.350 . S
C1587 C1590 1.463 . S
C1587 C1592 1.350 . S
C1587 N1595 1.427 . S
C1588 H1579 0.930 . S
C1588 C1586 1.378 . S
C1588 C1589 1.367 . S
C1589 C1588 1.367 . S
C1589 C1591 1.433 . S
C1590 C1586 1.350 . S
C1590 C1587 1.463 . S
C1590 N1594 1.427 . S
C1591 H1581 0.929 . S
C1591 C1589 1.433 . S
C1591 N1594 1.384 . S
C1592 H1583 0.929 . S
C1592 C1584 1.378 . S
C1592 C1587 1.350 . S
C1593 H1580 0.929 . S
C1593 C1585 1.433 . S
C1593 N1595 1.384 . S
N1594 C1590 1.427 . S
N1594 C1591 1.384 . S
N1595 C1587 1.427 . S
N1595 C1593 1.384 . S
H1596 C1602 0.930 . S
H1597 C1606 0.930 . S
H1598 C1611 0.929 . S
H1599 C1609 0.929 1_556 S
H1600 C1604 0.929 . S
H1601 C1610 0.929 . S
C1602 H1596 0.930 . S
C1602 C1603 1.367 . S
C1602 C1610 1.378 . S
C1603 C1602 1.367 . S
C1603 C1611 1.433 . S
C1604 H1600 0.929 . S
C1604 C1606 1.378 . S
C1604 C1608 1.350 . S
C1605 C1608 1.463 . S
C1605 C1610 1.350 . S
C1605 N1613 1.427 . S
C1606 H1597 0.930 . S
C1606 C1604 1.378 . S
C1606 C1607 1.367 1_554 S
C1607 C1606 1.367 1_556 S
C1607 C1609 1.433 1_556 S
C1608 C1604 1.350 . S
C1608 C1605 1.463 . S
C1608 N1612 1.427 . S
C1609 H1599 0.929 1_554 S
C1609 C1607 1.433 1_554 S
C1609 N1612 1.384 . S
C1610 H1601 0.929 . S
C1610 C1602 1.378 . S
C1610 C1605 1.350 . S
C1611 H1598 0.929 . S
C1611 C1603 1.433 . S
C1611 N1613 1.384 . S
N1612 C1608 1.427 . S
N1612 C1609 1.384 . S
N1613 C1605 1.427 . S
N1613 C1611 1.384 . S
H1614 C1620 0.930 . S
H1615 C1624 0.930 . S
H1616 C1629 0.932 . S
H1617 C1627 0.929 . S
H1618 C1622 0.929 . S
H1619 C1628 0.929 . S
C1620 H1614 0.930 . S
C1620 C1621 1.367 1_556 S
C1620 C1628 1.378 . S
C1621 C1620 1.367 1_554 S
C1621 C1629 1.433 1_554 S
C1622 H1618 0.929 . S
C1622 C1624 1.378 . S
C1622 C1626 1.350 . S
C1623 C1626 1.463 . S
C1623 C1628 1.350 . S
C1623 N1631 1.427 . S
C1624 H1615 0.930 . S
C1624 C1622 1.378 . S
C1624 C1625 1.367 . S
C1625 C1624 1.367 . S
C1625 C1627 1.433 . S
C1626 C1622 1.350 . S
C1626 C1623 1.463 . S
C1626 N1630 1.427 . S
C1627 H1617 0.929 . S
C1627 C1625 1.433 . S
C1627 N1630 1.384 . S
C1628 H1619 0.929 . S
C1628 C1620 1.378 . S
C1628 C1623 1.350 . S
C1629 H1616 0.932 . S
C1629 C1621 1.433 1_556 S
C1629 N1631 1.384 . S
N1630 C1626 1.427 . S
N1630 C1627 1.384 . S
N1631 C1623 1.427 . S
N1631 C1629 1.384 . S
H1632 C1638 0.930 . S
H1633 C1642 0.930 . S
H1634 C1647 0.929 . S
H1635 C1645 0.929 . S
H1636 C1640 0.929 . S
H1637 C1646 0.929 . S
C1638 H1632 0.930 . S
C1638 C1639 1.367 . S
C1638 C1646 1.378 . S
C1639 C1638 1.367 . S
C1639 C1647 1.433 . S
C1640 H1636 0.929 . S
C1640 C1642 1.378 . S
C1640 C1644 1.350 . S
C1641 C1644 1.463 . S
C1641 C1646 1.350 . S
C1641 N1649 1.427 . S
C1642 H1633 0.930 . S
C1642 C1640 1.378 . S
C1642 C1643 1.367 . S
C1643 C1642 1.367 . S
C1643 C1645 1.433 . S
C1644 C1640 1.350 . S
C1644 C1641 1.463 . S
C1644 N1648 1.427 . S
C1645 H1635 0.929 . S
C1645 C1643 1.433 . S
C1645 N1648 1.384 . S
C1646 H1637 0.929 . S
C1646 C1638 1.378 . S
C1646 C1641 1.350 . S
C1647 H1634 0.929 . S
C1647 C1639 1.433 . S
C1647 N1649 1.384 . S
N1648 C1644 1.427 . S
N1648 C1645 1.384 . S
N1649 C1641 1.427 . S
N1649 C1647 1.384 . S
H1650 C1656 0.930 . S
H1651 C1660 0.930 . S
H1652 C1665 0.929 . S
H1653 C1663 0.929 . S
H1654 C1658 0.929 . S
H1655 C1664 0.929 . S
C1656 H1650 0.930 . S
C1656 C1657 1.367 . S
C1656 C1664 1.378 . S
C1657 C1656 1.367 . S
C1657 C1665 1.433 . S
C1658 H1654 0.929 . S
C1658 C1660 1.378 . S
C1658 C1662 1.350 . S
C1659 C1662 1.463 . S
C1659 C1664 1.350 . S
C1659 N1667 1.427 . S
C1660 H1651 0.930 . S
C1660 C1658 1.378 . S
C1660 C1661 1.367 . S
C1661 C1660 1.367 . S
C1661 C1663 1.433 . S
C1662 C1658 1.350 . S
C1662 C1659 1.463 . S
C1662 N1666 1.427 . S
C1663 H1653 0.929 . S
C1663 C1661 1.433 . S
C1663 N1666 1.384 . S
C1664 H1655 0.929 . S
C1664 C1656 1.378 . S
C1664 C1659 1.350 . S
C1665 H1652 0.929 . S
C1665 C1657 1.433 . S
C1665 N1667 1.384 . S
N1666 C1662 1.427 . S
N1666 C1663 1.384 . S
N1667 C1659 1.427 . S
N1667 C1665 1.384 . S
H1668 C1674 0.930 . S
H1669 C1678 0.930 . S
H1670 C1683 0.929 . S
H1671 C1681 0.929 . S
H1672 C1676 0.929 . S
H1673 C1682 0.929 . S
C1674 H1668 0.930 . S
C1674 C1675 1.367 . S
C1674 C1682 1.378 . S
C1675 C1674 1.367 . S
C1675 C1683 1.433 . S
C1676 H1672 0.929 . S
C1676 C1678 1.378 . S
C1676 C1680 1.350 . S
C1677 C1680 1.463 . S
C1677 C1682 1.350 . S
C1677 N1685 1.427 . S
C1678 H1669 0.930 . S
C1678 C1676 1.378 . S
C1678 C1679 1.367 . S
C1679 C1678 1.367 . S
C1679 C1681 1.433 . S
C1680 C1676 1.350 . S
C1680 C1677 1.463 . S
C1680 N1684 1.427 . S
C1681 H1671 0.929 . S
C1681 C1679 1.433 . S
C1681 N1684 1.384 . S
C1682 H1673 0.929 . S
C1682 C1674 1.378 . S
C1682 C1677 1.350 . S
C1683 H1670 0.929 . S
C1683 C1675 1.433 . S
C1683 N1685 1.384 . S
N1684 C1680 1.427 . S
N1684 C1681 1.384 . S
N1685 C1677 1.427 . S
N1685 C1683 1.384 . S
H1686 C1692 0.929 1_554 S
H1687 C1696 0.930 . S
H1688 C1701 0.929 . S
H1689 C1699 0.945 . S
H1690 C1694 0.929 . S
H1691 C1700 0.937 . S
C1692 H1686 0.929 1_556 S
C1692 C1693 1.367 . S
C1692 C1700 1.378 . S
C1693 C1692 1.367 . S
C1693 C1701 1.433 . S
C1694 H1690 0.929 . S
C1694 C1696 1.378 . S
C1694 C1698 1.350 . S
C1695 C1698 1.463 1_655 S
C1695 C1700 1.350 . S
C1695 N1703 1.427 . S
C1696 H1687 0.930 . S
C1696 C1694 1.378 . S
C1696 C1697 1.367 . S
C1697 C1696 1.367 . S
C1697 C1699 1.433 . S
C1698 C1694 1.350 . S
C1698 C1695 1.463 1_455 S
C1698 N1702 1.427 . S
C1699 H1689 0.945 . S
C1699 C1697 1.433 . S
C1699 N1702 1.384 . S
C1700 H1691 0.937 . S
C1700 C1692 1.378 . S
C1700 C1695 1.350 . S
C1701 H1688 0.929 . S
C1701 C1693 1.433 . S
C1701 N1703 1.384 . S
N1702 C1698 1.427 . S
N1702 C1699 1.384 . S
N1703 C1695 1.427 . S
N1703 C1701 1.384 . S
H1704 C1710 0.930 . S
H1705 C1714 0.930 . S
H1706 C1719 0.929 . S
H1707 C1717 0.929 . S
H1708 C1712 0.929 . S
H1709 C1718 0.929 . S
C1710 H1704 0.930 . S
C1710 C1711 1.367 . S
C1710 C1718 1.378 . S
C1711 C1710 1.367 . S
C1711 C1719 1.433 . S
C1712 H1708 0.929 . S
C1712 C1714 1.378 . S
C1712 C1716 1.350 . S
C1713 C1716 1.463 . S
C1713 C1718 1.350 . S
C1713 N1721 1.427 . S
C1714 H1705 0.930 . S
C1714 C1712 1.378 . S
C1714 C1715 1.367 . S
C1715 C1714 1.367 . S
C1715 C1717 1.433 . S
C1716 C1712 1.350 . S
C1716 C1713 1.463 . S
C1716 N1720 1.427 . S
C1717 H1707 0.929 . S
C1717 C1715 1.433 . S
C1717 N1720 1.384 . S
C1718 H1709 0.929 . S
C1718 C1710 1.378 . S
C1718 C1713 1.350 . S
C1719 H1706 0.929 . S
C1719 C1711 1.433 . S
C1719 N1721 1.384 . S
N1720 C1716 1.427 . S
N1720 C1717 1.384 . S
N1721 C1713 1.427 . S
N1721 C1719 1.384 . S
H1722 C1728 0.930 . S
H1723 C1732 0.930 . S
H1724 C1737 0.929 . S
H1725 C1735 0.929 . S
H1726 C1730 0.929 . S
H1727 C1736 0.929 . S
C1728 H1722 0.930 . S
C1728 C1729 1.367 . S
C1728 C1736 1.378 . S
C1729 C1728 1.367 . S
C1729 C1737 1.433 . S
C1730 H1726 0.929 . S
C1730 C1732 1.378 . S
C1730 C1734 1.350 . S
C1731 C1734 1.463 1_455 S
C1731 C1736 1.350 . S
C1731 N1739 1.427 . S
C1732 H1723 0.930 . S
C1732 C1730 1.378 . S
C1732 C1733 1.367 . S
C1733 C1732 1.367 . S
C1733 C1735 1.433 . S
C1734 C1730 1.350 . S
C1734 C1731 1.463 1_655 S
C1734 N1738 1.427 . S
C1735 H1725 0.929 . S
C1735 C1733 1.433 . S
C1735 N1738 1.384 . S
C1736 H1727 0.929 . S
C1736 C1728 1.378 . S
C1736 C1731 1.350 . S
C1737 H1724 0.929 . S
C1737 C1729 1.433 . S
C1737 N1739 1.384 . S
N1738 C1734 1.427 . S
N1738 C1735 1.384 . S
N1739 C1731 1.427 . S
N1739 C1737 1.384 . S
H1740 C1746 0.930 . S
H1741 C1750 0.930 . S
H1742 C1755 0.929 . S
H1743 C1753 0.929 . S
H1744 C1748 0.929 . S
H1745 C1754 0.929 . S
C1746 H1740 0.930 . S
C1746 C1747 1.367 . S
C1746 C1754 1.378 . S
C1747 C1746 1.367 . S
C1747 C1755 1.433 . S
C1748 H1744 0.929 . S
C1748 C1750 1.378 . S
C1748 C1752 1.350 . S
C1749 C1752 1.463 . S
C1749 C1754 1.350 . S
C1749 N1757 1.427 . S
C1750 H1741 0.930 . S
C1750 C1748 1.378 . S
C1750 C1751 1.367 . S
C1751 C1750 1.367 . S
C1751 C1753 1.433 . S
C1752 C1748 1.350 . S
C1752 C1749 1.463 . S
C1752 N1756 1.427 . S
C1753 H1743 0.929 . S
C1753 C1751 1.433 . S
C1753 N1756 1.384 . S
C1754 H1745 0.929 . S
C1754 C1746 1.378 . S
C1754 C1749 1.350 . S
C1755 H1742 0.929 . S
C1755 C1747 1.433 . S
C1755 N1757 1.384 . S
N1756 C1752 1.427 . S
N1756 C1753 1.384 . S
N1757 C1749 1.427 . S
N1757 C1755 1.384 . S
H1758 C1764 0.930 . S
H1759 C1768 0.930 . S
H1760 C1773 0.929 . S
H1761 C1771 0.929 . S
H1762 C1766 0.929 . S
H1763 C1772 0.929 . S
C1764 H1758 0.930 . S
C1764 C1765 1.367 . S
C1764 C1772 1.378 . S
C1765 C1764 1.367 . S
C1765 C1773 1.433 . S
C1766 H1762 0.929 . S
C1766 C1768 1.378 . S
C1766 C1770 1.350 . S
C1767 C1770 1.463 . S
C1767 C1772 1.350 . S
C1767 N1775 1.427 . S
C1768 H1759 0.930 . S
C1768 C1766 1.378 . S
C1768 C1769 1.367 . S
C1769 C1768 1.367 . S
C1769 C1771 1.433 . S
C1770 C1766 1.350 . S
C1770 C1767 1.463 . S
C1770 N1774 1.427 . S
C1771 H1761 0.929 . S
C1771 C1769 1.433 . S
C1771 N1774 1.384 . S
C1772 H1763 0.929 . S
C1772 C1764 1.378 . S
C1772 C1767 1.350 . S
C1773 H1760 0.929 . S
C1773 C1765 1.433 . S
C1773 N1775 1.384 . S
N1774 C1770 1.427 . S
N1774 C1771 1.384 . S
N1775 C1767 1.427 . S
N1775 C1773 1.384 . S
H1776 C1782 0.930 . S
H1777 C1786 0.930 . S
H1778 C1791 0.929 . S
H1779 C1789 0.929 . S
H1780 C1784 0.929 . S
H1781 C1790 0.929 . S
C1782 H1776 0.930 . S
C1782 C1783 1.367 . S
C1782 C1790 1.378 . S
C1783 C1782 1.367 . S
C1783 C1791 1.433 . S
C1784 H1780 0.929 . S
C1784 C1786 1.378 . S
C1784 C1788 1.350 . S
C1785 C1788 1.463 . S
C1785 C1790 1.350 . S
C1785 N1793 1.427 . S
C1786 H1777 0.930 . S
C1786 C1784 1.378 . S
C1786 C1787 1.367 . S
C1787 C1786 1.367 . S
C1787 C1789 1.433 . S
C1788 C1784 1.350 . S
C1788 C1785 1.463 . S
C1788 N1792 1.427 . S
C1789 H1779 0.929 . S
C1789 C1787 1.433 . S
C1789 N1792 1.384 . S
C1790 H1781 0.929 . S
C1790 C1782 1.378 . S
C1790 C1785 1.350 . S
C1791 H1778 0.929 . S
C1791 C1783 1.433 . S
C1791 N1793 1.384 . S
N1792 C1788 1.427 . S
N1792 C1789 1.384 . S
N1793 C1785 1.427 . S
N1793 C1791 1.384 . S
H1794 C1800 0.930 . S
H1795 C1804 0.930 . S
H1796 C1809 0.929 . S
H1797 C1807 0.929 . S
H1798 C1802 0.929 . S
H1799 C1808 0.929 . S
C1800 H1794 0.930 . S
C1800 C1801 1.367 . S
C1800 C1808 1.378 . S
C1801 C1800 1.367 . S
C1801 C1809 1.433 . S
C1802 H1798 0.929 . S
C1802 C1804 1.378 . S
C1802 C1806 1.350 . S
C1803 C1806 1.463 . S
C1803 C1808 1.350 . S
C1803 N1811 1.427 . S
C1804 H1795 0.930 . S
C1804 C1802 1.378 . S
C1804 C1805 1.367 . S
C1805 C1804 1.367 . S
C1805 C1807 1.433 . S
C1806 C1802 1.350 . S
C1806 C1803 1.463 . S
C1806 N1810 1.427 . S
C1807 H1797 0.929 . S
C1807 C1805 1.433 . S
C1807 N1810 1.384 . S
C1808 H1799 0.929 . S
C1808 C1800 1.378 . S
C1808 C1803 1.350 . S
C1809 H1796 0.929 . S
C1809 C1801 1.433 . S
C1809 N1811 1.384 . S
N1810 C1806 1.427 . S
N1810 C1807 1.384 . S
N1811 C1803 1.427 . S
N1811 C1809 1.384 . S
H1812 C1818 0.930 . S
H1813 C1822 0.930 . S
H1814 C1827 0.929 . S
H1815 C1825 0.929 . S
H1816 C1820 0.929 . S
H1817 C1826 0.929 . S
C1818 H1812 0.930 . S
C1818 C1819 1.367 . S
C1818 C1826 1.378 . S
C1819 C1818 1.367 . S
C1819 C1827 1.433 . S
C1820 H1816 0.929 . S
C1820 C1822 1.378 . S
C1820 C1824 1.350 . S
C1821 C1824 1.463 . S
C1821 C1826 1.350 . S
C1821 N1829 1.427 . S
C1822 H1813 0.930 . S
C1822 C1820 1.378 . S
C1822 C1823 1.367 . S
C1823 C1822 1.367 . S
C1823 C1825 1.433 . S
C1824 C1820 1.350 . S
C1824 C1821 1.463 . S
C1824 N1828 1.427 . S
C1825 H1815 0.929 . S
C1825 C1823 1.433 . S
C1825 N1828 1.384 . S
C1826 H1817 0.929 . S
C1826 C1818 1.378 . S
C1826 C1821 1.350 . S
C1827 H1814 0.929 . S
C1827 C1819 1.433 . S
C1827 N1829 1.384 . S
N1828 C1824 1.427 . S
N1828 C1825 1.384 . S
N1829 C1821 1.427 . S
N1829 C1827 1.384 . S
H1830 C1836 0.930 . S
H1831 C1840 0.930 . S
H1832 C1845 0.929 . S
H1833 C1843 0.929 . S
H1834 C1838 0.929 . S
H1835 C1844 0.929 . S
C1836 H1830 0.930 . S
C1836 C1837 1.367 . S
C1836 C1844 1.378 . S
C1837 C1836 1.367 . S
C1837 C1845 1.433 . S
C1838 H1834 0.929 . S
C1838 C1840 1.378 . S
C1838 C1842 1.350 . S
C1839 C1842 1.463 . S
C1839 C1844 1.350 . S
C1839 N1847 1.427 . S
C1840 H1831 0.930 . S
C1840 C1838 1.378 . S
C1840 C1841 1.367 . S
C1841 C1840 1.367 . S
C1841 C1843 1.433 . S
C1842 C1838 1.350 . S
C1842 C1839 1.463 . S
C1842 N1846 1.427 . S
C1843 H1833 0.929 . S
C1843 C1841 1.433 . S
C1843 N1846 1.384 . S
C1844 H1835 0.929 . S
C1844 C1836 1.378 . S
C1844 C1839 1.350 . S
C1845 H1832 0.929 . S
C1845 C1837 1.433 . S
C1845 N1847 1.384 . S
N1846 C1842 1.427 . S
N1846 C1843 1.384 . S
N1847 C1839 1.427 . S
N1847 C1845 1.384 . S
H1848 C1854 0.930 . S
H1849 C1858 0.930 . S
H1850 C1863 0.929 . S
H1851 C1861 0.929 . S
H1852 C1856 0.929 . S
H1853 C1862 0.929 . S
C1854 H1848 0.930 . S
C1854 C1855 1.367 . S
C1854 C1862 1.378 . S
C1855 C1854 1.367 . S
C1855 C1863 1.433 . S
C1856 H1852 0.929 . S
C1856 C1858 1.378 . S
C1856 C1860 1.350 . S
C1857 C1860 1.463 1_655 S
C1857 C1862 1.350 . S
C1857 N1865 1.427 . S
C1858 H1849 0.930 . S
C1858 C1856 1.378 . S
C1858 C1859 1.367 . S
C1859 C1858 1.367 . S
C1859 C1861 1.433 . S
C1860 C1856 1.350 . S
C1860 C1857 1.463 1_455 S
C1860 N1864 1.427 . S
C1861 H1851 0.929 . S
C1861 C1859 1.433 . S
C1861 N1864 1.384 . S
C1862 H1853 0.929 . S
C1862 C1854 1.378 . S
C1862 C1857 1.350 . S
C1863 H1850 0.929 . S
C1863 C1855 1.433 . S
C1863 N1865 1.384 . S
N1864 C1860 1.427 . S
N1864 C1861 1.384 . S
N1865 C1857 1.427 . S
N1865 C1863 1.384 . S
H1866 C1872 0.930 . S
H1867 C1876 0.930 . S
H1868 C1881 0.929 . S
H1869 C1879 0.929 . S
H1870 C1874 0.929 . S
H1871 C1880 0.929 . S
C1872 H1866 0.930 . S
C1872 C1873 1.367 . S
C1872 C1880 1.378 . S
C1873 C1872 1.367 . S
C1873 C1881 1.433 . S
C1874 H1870 0.929 . S
C1874 C1876 1.378 . S
C1874 C1878 1.350 . S
C1875 C1878 1.463 . S
C1875 C1880 1.350 . S
C1875 N1883 1.427 . S
C1876 H1867 0.930 . S
C1876 C1874 1.378 . S
C1876 C1877 1.367 . S
C1877 C1876 1.367 . S
C1877 C1879 1.433 . S
C1878 C1874 1.350 . S
C1878 C1875 1.463 . S
C1878 N1882 1.427 . S
C1879 H1869 0.929 . S
C1879 C1877 1.433 . S
C1879 N1882 1.384 . S
C1880 H1871 0.929 . S
C1880 C1872 1.378 . S
C1880 C1875 1.350 . S
C1881 H1868 0.929 . S
C1881 C1873 1.433 . S
C1881 N1883 1.384 . S
N1882 C1878 1.427 . S
N1882 C1879 1.384 . S
N1883 C1875 1.427 . S
N1883 C1881 1.384 . S
H1884 C1890 0.930 . S
H1885 C1894 0.930 . S
H1886 C1899 0.929 . S
H1887 C1897 0.929 . S
H1888 C1892 0.929 . S
H1889 C1898 0.929 . S
C1890 H1884 0.930 . S
C1890 C1891 1.367 . S
C1890 C1898 1.378 . S
C1891 C1890 1.367 . S
C1891 C1899 1.433 . S
C1892 H1888 0.929 . S
C1892 C1894 1.378 . S
C1892 C1896 1.350 . S
C1893 C1896 1.463 . S
C1893 C1898 1.350 . S
C1893 N1901 1.427 . S
C1894 H1885 0.930 . S
C1894 C1892 1.378 . S
C1894 C1895 1.367 . S
C1895 C1894 1.367 . S
C1895 C1897 1.433 . S
C1896 C1892 1.350 . S
C1896 C1893 1.463 . S
C1896 N1900 1.427 . S
C1897 H1887 0.929 . S
C1897 C1895 1.433 . S
C1897 N1900 1.384 . S
C1898 H1889 0.929 . S
C1898 C1890 1.378 . S
C1898 C1893 1.350 . S
C1899 H1886 0.929 . S
C1899 C1891 1.433 . S
C1899 N1901 1.384 . S
N1900 C1896 1.427 . S
N1900 C1897 1.384 . S
N1901 C1893 1.427 . S
N1901 C1899 1.384 . S
H1902 C1908 0.930 . S
H1903 C1912 0.930 . S
H1904 C1917 0.929 . S
H1905 C1915 0.929 . S
H1906 C1910 0.929 . S
H1907 C1916 0.929 . S
C1908 H1902 0.930 . S
C1908 C1909 1.367 . S
C1908 C1916 1.378 . S
C1909 C1908 1.367 . S
C1909 C1917 1.433 . S
C1910 H1906 0.929 . S
C1910 C1912 1.378 . S
C1910 C1914 1.350 . S
C1911 C1914 1.463 1_455 S
C1911 C1916 1.350 . S
C1911 N1919 1.427 . S
C1912 H1903 0.930 . S
C1912 C1910 1.378 . S
C1912 C1913 1.367 . S
C1913 C1912 1.367 . S
C1913 C1915 1.433 . S
C1914 C1910 1.350 . S
C1914 C1911 1.463 1_655 S
C1914 N1918 1.427 . S
C1915 H1905 0.929 . S
C1915 C1913 1.433 . S
C1915 N1918 1.384 . S
C1916 H1907 0.929 . S
C1916 C1908 1.378 . S
C1916 C1911 1.350 . S
C1917 H1904 0.929 . S
C1917 C1909 1.433 . S
C1917 N1919 1.384 . S
N1918 C1914 1.427 . S
N1918 C1915 1.384 . S
N1919 C1911 1.427 . S
N1919 C1917 1.384 . S
H1920 C1926 0.930 . S
H1921 C1930 0.930 . S
H1922 C1935 0.929 1_556 S
H1923 C1933 0.921 1_554 S
H1924 C1928 0.929 . S
H1925 C1934 0.929 . S
C1926 H1920 0.930 . S
C1926 C1927 1.367 . S
C1926 C1934 1.378 . S
C1927 C1926 1.367 . S
C1927 C1935 1.433 . S
C1928 H1924 0.929 . S
C1928 C1930 1.378 . S
C1928 C1932 1.350 . S
C1929 C1932 1.463 1_554 S
C1929 C1934 1.350 . S
C1929 N1937 1.427 1_554 S
C1930 H1921 0.930 . S
C1930 C1928 1.378 . S
C1930 C1931 1.367 . S
C1931 C1930 1.367 . S
C1931 C1933 1.433 . S
C1932 C1928 1.350 . S
C1932 C1929 1.463 1_556 S
C1932 N1936 1.427 1_556 S
C1933 H1923 0.921 1_556 S
C1933 C1931 1.433 . S
C1933 N1936 1.384 1_556 S
C1934 H1925 0.929 . S
C1934 C1926 1.378 . S
C1934 C1929 1.350 . S
C1935 H1922 0.929 1_554 S
C1935 C1927 1.433 . S
C1935 N1937 1.384 1_554 S
N1936 C1932 1.427 1_554 S
N1936 C1933 1.384 1_554 S
N1937 C1929 1.427 1_556 S
N1937 C1935 1.384 1_556 S
H1938 C1944 0.930 . S
H1939 C1948 0.930 . S
H1940 C1953 0.929 . S
H1941 C1951 0.929 . S
H1942 C1946 0.929 . S
H1943 C1952 0.929 . S
C1944 H1938 0.930 . S
C1944 C1945 1.367 . S
C1944 C1952 1.378 . S
C1945 C1944 1.367 . S
C1945 C1953 1.433 . S
C1946 H1942 0.929 . S
C1946 C1948 1.378 . S
C1946 C1950 1.350 . S
C1947 C1950 1.463 . S
C1947 C1952 1.350 . S
C1947 N1955 1.427 . S
C1948 H1939 0.930 . S
C1948 C1946 1.378 . S
C1948 C1949 1.367 . S
C1949 C1948 1.367 . S
C1949 C1951 1.433 . S
C1950 C1946 1.350 . S
C1950 C1947 1.463 . S
C1950 N1954 1.427 . S
C1951 H1941 0.929 . S
C1951 C1949 1.433 . S
C1951 N1954 1.384 . S
C1952 H1943 0.929 . S
C1952 C1944 1.378 . S
C1952 C1947 1.350 . S
C1953 H1940 0.929 . S
C1953 C1945 1.433 . S
C1953 N1955 1.384 . S
N1954 C1950 1.427 . S
N1954 C1951 1.384 . S
N1955 C1947 1.427 . S
N1955 C1953 1.384 . S
H1956 C1962 0.930 . S
H1957 C1966 0.930 . S
H1958 C1971 0.929 . S
H1959 C1969 0.929 . S
H1960 C1964 0.929 . S
H1961 C1970 0.929 . S
C1962 H1956 0.930 . S
C1962 C1963 1.367 . S
C1962 C1970 1.378 . S
C1963 C1962 1.367 . S
C1963 C1971 1.433 . S
C1964 H1960 0.929 . S
C1964 C1966 1.378 . S
C1964 C1968 1.350 . S
C1965 C1968 1.463 . S
C1965 C1970 1.350 . S
C1965 N1973 1.427 . S
C1966 H1957 0.930 . S
C1966 C1964 1.378 . S
C1966 C1967 1.367 . S
C1967 C1966 1.367 . S
C1967 C1969 1.433 . S
C1968 C1964 1.350 . S
C1968 C1965 1.463 . S
C1968 N1972 1.427 . S
C1969 H1959 0.929 . S
C1969 C1967 1.433 . S
C1969 N1972 1.384 . S
C1970 H1961 0.929 . S
C1970 C1962 1.378 . S
C1970 C1965 1.350 . S
C1971 H1958 0.929 . S
C1971 C1963 1.433 . S
C1971 N1973 1.384 . S
N1972 C1968 1.427 . S
N1972 C1969 1.384 . S
N1973 C1965 1.427 . S
N1973 C1971 1.384 . S
H1974 C1980 0.930 . S
H1975 C1984 0.930 . S
H1976 C1989 0.929 . S
H1977 C1987 0.929 . S
H1978 C1982 0.929 . S
H1979 C1988 0.929 . S
C1980 H1974 0.930 . S
C1980 C1981 1.367 . S
C1980 C1988 1.378 . S
C1981 C1980 1.367 . S
C1981 C1989 1.433 . S
C1982 H1978 0.929 . S
C1982 C1984 1.378 . S
C1982 C1986 1.350 . S
C1983 C1986 1.463 . S
C1983 C1988 1.350 . S
C1983 N1991 1.427 . S
C1984 H1975 0.930 . S
C1984 C1982 1.378 . S
C1984 C1985 1.367 . S
C1985 C1984 1.367 . S
C1985 C1987 1.433 . S
C1986 C1982 1.350 . S
C1986 C1983 1.463 . S
C1986 N1990 1.427 . S
C1987 H1977 0.929 . S
C1987 C1985 1.433 . S
C1987 N1990 1.384 . S
C1988 H1979 0.929 . S
C1988 C1980 1.378 . S
C1988 C1983 1.350 . S
C1989 H1976 0.929 . S
C1989 C1981 1.433 . S
C1989 N1991 1.384 . S
N1990 C1986 1.427 . S
N1990 C1987 1.384 . S
N1991 C1983 1.427 . S
N1991 C1989 1.384 . S
H1992 C1998 0.930 . S
H1993 C2002 0.930 . S
H1994 C2007 0.929 . S
H1995 C2005 0.929 . S
H1996 C2000 0.929 . S
H1997 C2006 0.929 . S
C1998 H1992 0.930 . S
C1998 C1999 1.367 . S
C1998 C2006 1.378 . S
C1999 C1998 1.367 . S
C1999 C2007 1.433 . S
C2000 H1996 0.929 . S
C2000 C2002 1.378 . S
C2000 C2004 1.350 . S
C2001 C2004 1.463 1_554 S
C2001 C2006 1.350 . S
C2001 N2009 1.428 1_554 S
C2002 H1993 0.930 . S
C2002 C2000 1.378 . S
C2002 C2003 1.367 . S
C2003 C2002 1.367 . S
C2003 C2005 1.433 . S
C2004 C2000 1.350 . S
C2004 C2001 1.463 1_556 S
C2004 N2008 1.425 1_556 S
C2005 H1995 0.929 . S
C2005 C2003 1.433 . S
C2005 N2008 1.380 1_556 S
C2006 H1997 0.929 . S
C2006 C1998 1.378 . S
C2006 C2001 1.350 . S
C2007 H1994 0.929 . S
C2007 C1999 1.433 . S
C2007 N2009 1.385 1_554 S
N2008 C2004 1.425 1_554 S
N2008 C2005 1.380 1_554 S
N2009 C2001 1.428 1_556 S
N2009 C2007 1.385 1_556 S
H2010 C2016 0.930 . S
H2011 C2020 0.930 . S
H2012 C2025 0.929 . S
H2013 C2023 0.929 . S
H2014 C2018 0.929 . S
H2015 C2024 0.929 . S
C2016 H2010 0.930 . S
C2016 C2017 1.367 . S
C2016 C2024 1.378 . S
C2017 C2016 1.367 . S
C2017 C2025 1.433 . S
C2018 H2014 0.929 . S
C2018 C2020 1.378 . S
C2018 C2022 1.350 . S
C2019 C2022 1.463 . S
C2019 C2024 1.350 . S
C2019 N2027 1.427 . S
C2020 H2011 0.930 . S
C2020 C2018 1.378 . S
C2020 C2021 1.367 . S
C2021 C2020 1.367 . S
C2021 C2023 1.433 . S
C2022 C2018 1.350 . S
C2022 C2019 1.463 . S
C2022 N2026 1.427 . S
C2023 H2013 0.929 . S
C2023 C2021 1.433 . S
C2023 N2026 1.384 . S
C2024 H2015 0.929 . S
C2024 C2016 1.378 . S
C2024 C2019 1.350 . S
C2025 H2012 0.929 . S
C2025 C2017 1.433 . S
C2025 N2027 1.384 . S
N2026 C2022 1.427 . S
N2026 C2023 1.384 . S
N2027 C2019 1.427 . S
N2027 C2025 1.384 . S
H2028 C2034 0.930 . S
H2029 C2038 0.930 . S
H2030 C2043 0.929 . S
H2031 C2041 0.929 . S
H2032 C2036 0.929 . S
H2033 C2042 0.929 . S
C2034 H2028 0.930 . S
C2034 C2035 1.367 . S
C2034 C2042 1.378 . S
C2035 C2034 1.367 . S
C2035 C2043 1.433 . S
C2036 H2032 0.929 . S
C2036 C2038 1.378 . S
C2036 C2040 1.350 . S
C2037 C2040 1.463 . S
C2037 C2042 1.350 . S
C2037 N2045 1.427 . S
C2038 H2029 0.930 . S
C2038 C2036 1.378 . S
C2038 C2039 1.367 . S
C2039 C2038 1.367 . S
C2039 C2041 1.433 . S
C2040 C2036 1.350 . S
C2040 C2037 1.463 . S
C2040 N2044 1.427 . S
C2041 H2031 0.929 . S
C2041 C2039 1.433 . S
C2041 N2044 1.384 . S
C2042 H2033 0.929 . S
C2042 C2034 1.378 . S
C2042 C2037 1.350 . S
C2043 H2030 0.929 . S
C2043 C2035 1.433 . S
C2043 N2045 1.384 . S
N2044 C2040 1.427 . S
N2044 C2041 1.384 . S
N2045 C2037 1.427 . S
N2045 C2043 1.384 . S
H2046 C2052 0.930 . S
H2047 C2056 0.930 . S
H2048 C2061 0.929 . S
H2049 C2059 0.929 . S
H2050 C2054 0.929 . S
H2051 C2060 0.929 . S
C2052 H2046 0.930 . S
C2052 C2053 1.367 . S
C2052 C2060 1.378 . S
C2053 C2052 1.367 . S
C2053 C2061 1.433 . S
C2054 H2050 0.929 . S
C2054 C2056 1.378 . S
C2054 C2058 1.350 . S
C2055 C2058 1.463 . S
C2055 C2060 1.350 . S
C2055 N2063 1.427 . S
C2056 H2047 0.930 . S
C2056 C2054 1.378 . S
C2056 C2057 1.367 . S
C2057 C2056 1.367 . S
C2057 C2059 1.433 . S
C2058 C2054 1.350 . S
C2058 C2055 1.463 . S
C2058 N2062 1.427 . S
C2059 H2049 0.929 . S
C2059 C2057 1.433 . S
C2059 N2062 1.384 . S
C2060 H2051 0.929 . S
C2060 C2052 1.378 . S
C2060 C2055 1.350 . S
C2061 H2048 0.929 . S
C2061 C2053 1.433 . S
C2061 N2063 1.384 . S
N2062 C2058 1.427 . S
N2062 C2059 1.384 . S
N2063 C2055 1.427 . S
N2063 C2061 1.384 . S
H2064 C2070 0.930 . S
H2065 C2074 0.930 . S
H2066 C2079 0.929 . S
H2067 C2077 0.929 . S
H2068 C2072 0.929 . S
H2069 C2078 0.929 . S
C2070 H2064 0.930 . S
C2070 C2071 1.367 . S
C2070 C2078 1.378 . S
C2071 C2070 1.367 . S
C2071 C2079 1.433 . S
C2072 H2068 0.929 . S
C2072 C2074 1.378 . S
C2072 C2076 1.350 . S
C2073 C2076 1.463 1_565 S
C2073 C2078 1.350 . S
C2073 N2081 1.427 . S
C2074 H2065 0.930 . S
C2074 C2072 1.378 . S
C2074 C2075 1.367 . S
C2075 C2074 1.367 . S
C2075 C2077 1.433 . S
C2076 C2072 1.350 . S
C2076 C2073 1.463 1_545 S
C2076 N2080 1.427 . S
C2077 H2067 0.929 . S
C2077 C2075 1.433 . S
C2077 N2080 1.384 . S
C2078 H2069 0.929 . S
C2078 C2070 1.378 . S
C2078 C2073 1.350 . S
C2079 H2066 0.929 . S
C2079 C2071 1.433 . S
C2079 N2081 1.384 . S
N2080 C2076 1.427 . S
N2080 C2077 1.384 . S
N2081 C2073 1.427 . S
N2081 C2079 1.384 . S
H2082 C2088 0.930 . S
H2083 C2092 0.930 . S
H2084 C2097 0.929 . S
H2085 C2095 0.929 . S
H2086 C2090 0.929 . S
H2087 C2096 0.929 . S
C2088 H2082 0.930 . S
C2088 C2089 1.367 . S
C2088 C2096 1.378 . S
C2089 C2088 1.367 . S
C2089 C2097 1.433 . S
C2090 H2086 0.929 . S
C2090 C2092 1.378 . S
C2090 C2094 1.350 . S
C2091 C2094 1.463 . S
C2091 C2096 1.350 . S
C2091 N2099 1.427 . S
C2092 H2083 0.930 . S
C2092 C2090 1.378 . S
C2092 C2093 1.367 . S
C2093 C2092 1.367 . S
C2093 C2095 1.433 . S
C2094 C2090 1.350 . S
C2094 C2091 1.463 . S
C2094 N2098 1.427 . S
C2095 H2085 0.929 . S
C2095 C2093 1.433 . S
C2095 N2098 1.384 . S
C2096 H2087 0.929 . S
C2096 C2088 1.378 . S
C2096 C2091 1.350 . S
C2097 H2084 0.929 . S
C2097 C2089 1.433 . S
C2097 N2099 1.384 . S
N2098 C2094 1.427 . S
N2098 C2095 1.384 . S
N2099 C2091 1.427 . S
N2099 C2097 1.384 . S
H2100 C2106 0.930 . S
H2101 C2110 0.930 . S
H2102 C2115 0.929 . S
H2103 C2113 0.929 1_554 S
H2104 C2108 0.929 . S
H2105 C2114 0.929 1_545 S
C2106 H2100 0.930 . S
C2106 C2107 1.367 . S
C2106 C2114 1.378 . S
C2107 C2106 1.367 . S
C2107 C2115 1.433 . S
C2108 H2104 0.929 . S
C2108 C2110 1.378 . S
C2108 C2112 1.350 . S
C2109 C2112 1.463 1_564 S
C2109 C2114 1.350 . S
C2109 N2117 1.427 1_554 S
C2110 H2101 0.930 . S
C2110 C2108 1.378 . S
C2110 C2111 1.367 . S
C2111 C2110 1.367 . S
C2111 C2113 1.433 . S
C2112 C2108 1.350 . S
C2112 C2109 1.463 1_546 S
C2112 N2116 1.427 1_556 S
C2113 H2103 0.929 1_556 S
C2113 C2111 1.433 . S
C2113 N2116 1.384 1_556 S
C2114 H2105 0.929 1_565 S
C2114 C2106 1.378 . S
C2114 C2109 1.350 . S
C2115 H2102 0.929 . S
C2115 C2107 1.433 . S
C2115 N2117 1.384 1_554 S
N2116 C2112 1.427 1_554 S
N2116 C2113 1.384 1_554 S
N2117 C2109 1.427 1_556 S
N2117 C2115 1.384 1_556 S
H2118 C2124 0.930 . S
H2119 C2128 0.930 . S
H2120 C2133 0.929 . S
H2121 C2131 0.929 . S
H2122 C2126 0.929 . S
H2123 C2132 0.929 . S
C2124 H2118 0.930 . S
C2124 C2125 1.367 . S
C2124 C2132 1.378 . S
C2125 C2124 1.367 . S
C2125 C2133 1.433 . S
C2126 H2122 0.929 . S
C2126 C2128 1.378 . S
C2126 C2130 1.350 . S
C2127 C2130 1.463 . S
C2127 C2132 1.350 . S
C2127 N2135 1.427 . S
C2128 H2119 0.930 . S
C2128 C2126 1.378 . S
C2128 C2129 1.367 . S
C2129 C2128 1.367 . S
C2129 C2131 1.433 . S
C2130 C2126 1.350 . S
C2130 C2127 1.463 . S
C2130 N2134 1.427 . S
C2131 H2121 0.929 . S
C2131 C2129 1.433 . S
C2131 N2134 1.384 . S
C2132 H2123 0.929 . S
C2132 C2124 1.378 . S
C2132 C2127 1.350 . S
C2133 H2120 0.929 . S
C2133 C2125 1.433 . S
C2133 N2135 1.384 . S
N2134 C2130 1.427 . S
N2134 C2131 1.384 . S
N2135 C2127 1.427 . S
N2135 C2133 1.384 . S
H2136 C2142 0.930 . S
H2137 C2146 0.930 . S
H2138 C2151 0.929 . S
H2139 C2149 0.929 . S
H2140 C2144 0.929 . S
H2141 C2150 0.929 . S
C2142 H2136 0.930 . S
C2142 C2143 1.367 . S
C2142 C2150 1.378 . S
C2143 C2142 1.367 . S
C2143 C2151 1.433 . S
C2144 H2140 0.929 . S
C2144 C2146 1.378 . S
C2144 C2148 1.350 . S
C2145 C2148 1.463 1_565 S
C2145 C2150 1.350 . S
C2145 N2153 1.427 . S
C2146 H2137 0.930 . S
C2146 C2144 1.378 . S
C2146 C2147 1.367 . S
C2147 C2146 1.367 . S
C2147 C2149 1.433 . S
C2148 C2144 1.350 . S
C2148 C2145 1.463 1_545 S
C2148 N2152 1.427 . S
C2149 H2139 0.929 . S
C2149 C2147 1.433 . S
C2149 N2152 1.384 . S
C2150 H2141 0.929 . S
C2150 C2142 1.378 . S
C2150 C2145 1.350 . S
C2151 H2138 0.929 . S
C2151 C2143 1.433 . S
C2151 N2153 1.384 . S
N2152 C2148 1.427 . S
N2152 C2149 1.384 . S
N2153 C2145 1.427 . S
N2153 C2151 1.384 . S
H2154 C2160 0.930 . S
H2155 C2164 0.930 . S
H2156 C2169 0.929 . S
H2157 C2167 0.929 . S
H2158 C2162 0.929 . S
H2159 C2168 0.929 . S
C2160 H2154 0.930 . S
C2160 C2161 1.367 . S
C2160 C2168 1.378 . S
C2161 C2160 1.367 . S
C2161 C2169 1.433 . S
C2162 H2158 0.929 . S
C2162 C2164 1.378 . S
C2162 C2166 1.350 . S
C2163 C2166 1.463 . S
C2163 C2168 1.350 . S
C2163 N2171 1.427 . S
C2164 H2155 0.930 . S
C2164 C2162 1.378 . S
C2164 C2165 1.367 . S
C2165 C2164 1.367 . S
C2165 C2167 1.433 . S
C2166 C2162 1.350 . S
C2166 C2163 1.463 . S
C2166 N2170 1.427 . S
C2167 H2157 0.929 . S
C2167 C2165 1.433 . S
C2167 N2170 1.384 . S
C2168 H2159 0.929 . S
C2168 C2160 1.378 . S
C2168 C2163 1.350 . S
C2169 H2156 0.929 . S
C2169 C2161 1.433 . S
C2169 N2171 1.384 . S
N2170 C2166 1.427 . S
N2170 C2167 1.384 . S
N2171 C2163 1.427 . S
N2171 C2169 1.384 . S
H2172 C2178 0.930 . S
H2173 C2182 0.930 . S
H2174 C2187 0.929 1_554 S
H2175 C2185 0.929 1_556 S
H2176 C2180 0.929 1_545 S
H2177 C2186 0.929 1_565 S
C2178 H2172 0.930 . S
C2178 C2179 1.367 . S
C2178 C2186 1.378 . S
C2179 C2178 1.367 . S
C2179 C2187 1.433 . S
C2180 H2176 0.929 1_565 S
C2180 C2182 1.378 . S
C2180 C2184 1.350 . S
C2181 C2184 1.463 1_546 S
C2181 C2186 1.350 . S
C2181 N2189 1.427 1_556 S
C2182 H2173 0.930 . S
C2182 C2180 1.378 . S
C2182 C2183 1.367 . S
C2183 C2182 1.367 . S
C2183 C2185 1.433 . S
C2184 C2180 1.350 . S
C2184 C2181 1.463 1_564 S
C2184 N2188 1.427 1_554 S
C2185 H2175 0.929 1_554 S
C2185 C2183 1.433 . S
C2185 N2188 1.384 1_554 S
C2186 H2177 0.929 1_545 S
C2186 C2178 1.378 . S
C2186 C2181 1.350 . S
C2187 H2174 0.929 1_556 S
C2187 C2179 1.433 . S
C2187 N2189 1.384 1_556 S
N2188 C2184 1.427 1_556 S
N2188 C2185 1.384 1_556 S
N2189 C2181 1.427 1_554 S
N2189 C2187 1.384 1_554 S
H2190 C2196 0.930 . S
H2191 C2200 0.930 . S
H2192 C2205 0.929 . S
H2193 C2203 0.929 . S
H2194 C2198 0.929 . S
H2195 C2204 0.929 . S
C2196 H2190 0.930 . S
C2196 C2197 1.367 . S
C2196 C2204 1.378 . S
C2197 C2196 1.367 . S
C2197 C2205 1.433 . S
C2198 H2194 0.929 . S
C2198 C2200 1.378 . S
C2198 C2202 1.350 . S
C2199 C2202 1.463 . S
C2199 C2204 1.350 . S
C2199 N2207 1.427 . S
C2200 H2191 0.930 . S
C2200 C2198 1.378 . S
C2200 C2201 1.367 . S
C2201 C2200 1.367 . S
C2201 C2203 1.433 . S
C2202 C2198 1.350 . S
C2202 C2199 1.463 . S
C2202 N2206 1.427 . S
C2203 H2193 0.929 . S
C2203 C2201 1.433 . S
C2203 N2206 1.384 . S
C2204 H2195 0.929 . S
C2204 C2196 1.378 . S
C2204 C2199 1.350 . S
C2205 H2192 0.929 . S
C2205 C2197 1.433 . S
C2205 N2207 1.384 . S
N2206 C2202 1.427 . S
N2206 C2203 1.384 . S
N2207 C2199 1.427 . S
N2207 C2205 1.384 . S
C1351 C63 1.489 . S
C1355 C72 1.489 . S
C1369 C147 1.461 . S
C1373 C156 1.461 . S
C1387 C240 1.460 . S
C1391 C231 1.460 . S
C1405 C324 1.462 . S
C1409 C315 1.462 . S
C1423 C408 1.452 . S
C1427 C399 1.452 . S
C1441 C492 1.441 . S
C1445 C483 1.441 . S
C1459 C567 1.467 . S
C1463 C576 1.467 . S
C1477 C651 1.495 . S
C1481 C660 1.479 . S
C1495 C744 1.483 . S
C1499 C735 1.483 . S
C1513 C819 1.463 . S
C1517 C828 1.463 . S
C1531 C912 1.439 . S
C1535 C903 1.439 . S
C1549 C987 1.486 . S
C1553 C996 1.486 . S
C1567 C1071 1.467 . S
C1571 C1080 1.467 . S
C1585 C1155 1.464 . S
C1589 C1164 1.464 . S
C1603 C1248 1.466 . S
C1607 C1239 1.466 . S
C1621 C1323 1.478 . S
C1625 C1332 1.478 . S
C1639 C67 1.871 . S
C1643 C980 1.876 . S
C1657 C151 1.783 . S
C1661 C1326 1.718 . S
C1675 C243 1.709 . S
C1679 C822 1.693 . S
C1693 C327 1.703 . S
C1697 C1158 1.695 . S
C1711 C411 1.769 . S
C1715 C1148 1.837 . S
C1729 C990 1.724 . S
C1733 C487 1.800 . S
C1747 C571 1.822 . S
C1751 C1316 1.817 . S
C1765 C655 1.822 . S
C1769 C812 1.823 . S
C1783 C319 1.817 . S
C1787 C728 1.823 . S
C1801 C159 1.659 . S
C1805 C906 1.642 . S
C1819 C1074 1.698 . S
C1823 C495 1.705 . S
C1837 C663 1.668 . S
C1841 C1232 1.747 . S
C1855 C738 1.727 . S
C1859 C403 1.807 . S
C1873 C579 1.734 . S
C1877 C896 1.794 . S
C1891 C235 1.778 . S
C1895 C1242 1.716 . S
C1909 C75 1.723 . S
C1913 C1064 1.784 . S
C1927 C56 1.597 . S
C1931 C402 1.671 . S
C1945 C140 1.581 . S
C1949 C476 1.592 . S
C1963 C234 1.630 . S
C1967 C560 1.558 . S
C1981 C318 1.580 . S
C1985 C644 1.507 . S
C1999 C1083 1.615 . S
C2003 C739 1.551 . S
C2017 C1167 1.661 . S
C2021 C823 1.586 . S
C2035 C915 1.582 . S
C2039 C1243 1.496 . S
C2053 C1335 1.571 . S
C2057 C999 1.585 . S
C2071 C150 1.548 . S
C2075 C654 1.550 . S
C2089 C392 1.602 . S
C2093 C224 1.595 . S
C2107 C486 1.653 . S
C2111 C308 1.579 . S
C2125 C66 1.566 . S
C2129 C570 1.573 . S
C2143 C1327 1.524 . S
C2147 C831 1.600 . S
C2161 C1075 1.598 . S
C2165 C907 1.592 . S
C2179 C1159 1.632 . S
C2183 C991 1.628 . S
C2197 C1251 1.576 . S
C2201 C747 1.576 . S
