# Generated by pormake.
# Topology lcy-e, (6)-cn, num edge types: 1
# Building blocks:
#     Node 0, Type 0, BuildingBlock: CUWYAW_clean_sbu_0, # of connection points: 6
#     Node 1, Type 0, BuildingBlock: CUWYAW_clean_sbu_0, # of connection points: 6
#     Node 2, Type 0, BuildingBlock: CUWYAW_clean_sbu_0, # of connection points: 6
#     Node 3, Type 0, BuildingBlock: CUWYAW_clean_sbu_0, # of connection points: 6
#     Node 4, Type 0, BuildingBlock: CUWYAW_clean_sbu_0, # of connection points: 6
#     Node 5, Type 0, BuildingBlock: CUWYAW_clean_sbu_0, # of connection points: 6
#     Node 6, Type 0, BuildingBlock: CUWYAW_clean_sbu_0, # of connection points: 6
#     Node 7, Type 0, BuildingBlock: CUWYAW_clean_sbu_0, # of connection points: 6
#     Node 8, Type 0, BuildingBlock: CUWYAW_clean_sbu_0, # of connection points: 6
#     Node 9, Type 0, BuildingBlock: CUWYAW_clean_sbu_0, # of connection points: 6
#     Node 10, Type 0, BuildingBlock: CUWYAW_clean_sbu_0, # of connection points: 6
#     Node 11, Type 0, BuildingBlock: CUWYAW_clean_sbu_0, # of connection points: 6
#     Edge 12, Type (0, 0), BuildingBlock: ZUJKAS_clean_linker_0, # of connection points: 2
#     Edge 13, Type (0, 0), BuildingBlock: ZUJKAS_clean_linker_0, # of connection points: 2
#     Edge 14, Type (0, 0), BuildingBlock: ZUJKAS_clean_linker_0, # of connection points: 2
#     Edge 15, Type (0, 0), BuildingBlock: ZUJKAS_clean_linker_0, # of connection points: 2
#     Edge 16, Type (0, 0), BuildingBlock: ZUJKAS_clean_linker_0, # of connection points: 2
#     Edge 17, Type (0, 0), BuildingBlock: ZUJKAS_clean_linker_0, # of connection points: 2
#     Edge 18, Type (0, 0), BuildingBlock: ZUJKAS_clean_linker_0, # of connection points: 2
#     Edge 19, Type (0, 0), BuildingBlock: ZUJKAS_clean_linker_0, # of connection points: 2
#     Edge 20, Type (0, 0), BuildingBlock: ZUJKAS_clean_linker_0, # of connection points: 2
#     Edge 21, Type (0, 0), BuildingBlock: ZUJKAS_clean_linker_0, # of connection points: 2
#     Edge 22, Type (0, 0), BuildingBlock: ZUJKAS_clean_linker_0, # of connection points: 2
#     Edge 23, Type (0, 0), BuildingBlock: ZUJKAS_clean_linker_0, # of connection points: 2
#     Edge 24, Type (0, 0), BuildingBlock: ZUJKAS_clean_linker_0, # of connection points: 2
#     Edge 25, Type (0, 0), BuildingBlock: ZUJKAS_clean_linker_0, # of connection points: 2
#     Edge 26, Type (0, 0), BuildingBlock: ZUJKAS_clean_linker_0, # of connection points: 2
#     Edge 27, Type (0, 0), BuildingBlock: ZUJKAS_clean_linker_0, # of connection points: 2
#     Edge 28, Type (0, 0), BuildingBlock: ZUJKAS_clean_linker_0, # of connection points: 2
#     Edge 29, Type (0, 0), BuildingBlock: ZUJKAS_clean_linker_0, # of connection points: 2
#     Edge 30, Type (0, 0), BuildingBlock: ZUJKAS_clean_linker_0, # of connection points: 2
#     Edge 31, Type (0, 0), BuildingBlock: ZUJKAS_clean_linker_0, # of connection points: 2
#     Edge 32, Type (0, 0), BuildingBlock: ZUJKAS_clean_linker_0, # of connection points: 2
#     Edge 33, Type (0, 0), BuildingBlock: ZUJKAS_clean_linker_0, # of connection points: 2
#     Edge 34, Type (0, 0), BuildingBlock: ZUJKAS_clean_linker_0, # of connection points: 2
#     Edge 35, Type (0, 0), BuildingBlock: ZUJKAS_clean_linker_0, # of connection points: 2
#     Edge 36, Type (0, 0), BuildingBlock: ZUJKAS_clean_linker_0, # of connection points: 2
#     Edge 37, Type (0, 0), BuildingBlock: ZUJKAS_clean_linker_0, # of connection points: 2
#     Edge 38, Type (0, 0), BuildingBlock: ZUJKAS_clean_linker_0, # of connection points: 2
#     Edge 39, Type (0, 0), BuildingBlock: ZUJKAS_clean_linker_0, # of connection points: 2
#     Edge 40, Type (0, 0), BuildingBlock: ZUJKAS_clean_linker_0, # of connection points: 2
#     Edge 41, Type (0, 0), BuildingBlock: ZUJKAS_clean_linker_0, # of connection points: 2
#     Edge 42, Type (0, 0), BuildingBlock: ZUJKAS_clean_linker_0, # of connection points: 2
#     Edge 43, Type (0, 0), BuildingBlock: ZUJKAS_clean_linker_0, # of connection points: 2
#     Edge 44, Type (0, 0), BuildingBlock: ZUJKAS_clean_linker_0, # of connection points: 2
#     Edge 45, Type (0, 0), BuildingBlock: ZUJKAS_clean_linker_0, # of connection points: 2
#     Edge 46, Type (0, 0), BuildingBlock: ZUJKAS_clean_linker_0, # of connection points: 2
#     Edge 47, Type (0, 0), BuildingBlock: ZUJKAS_clean_linker_0, # of connection points: 2
# Relax obj value: 0.181
# Max RMSD: 0.280
# Mean RMSD: 0.262
data_MOF--net-lcy-e--node1-CUWYAW_clean_sbu_0--edge1-ZUJKAS_clean_linker_0
_symmetry_space_group_name_H-M    P1
_symmetry_Int_Tables_number       1
_symmetry_cell_setting            triclinic
loop_
_symmetry_equiv_pos_as_xyz
'x, y, z'
_cell_length_a     52.262613
_cell_length_b     56.228109
_cell_length_c     56.247435
_cell_angle_alpha  90.907718
_cell_angle_beta   90.46173
_cell_angle_gamma 88.473207
loop_
_atom_site_label
_atom_site_type_symbol
_atom_site_fract_x
_atom_site_fract_y
_atom_site_fract_z
_atom_type_partial_charge
C0 C 0.1221 0.3006 0.46719 0.0
Eu1 Eu 0.1286 0.2745 0.50491 0.0
C2 C 0.13646 0.31306 0.44873 0.0
C3 C 0.13107 0.33726 0.44482 0.0
C4 C 0.14199 0.34883 0.4257 0.0
C5 C 0.15845 0.33639 0.40985 0.0
C6 C 0.16457 0.31233 0.41432 0.0
C7 C 0.15373 0.30079 0.43354 0.0
C8 C 0.10357 0.28041 0.54734 0.0
C9 C 0.17514 0.29336 0.53721 0.0
C10 C 0.15503 0.21714 0.58155 0.0
Eu11 Eu 0.14867 0.24383 0.54432 0.0
C12 C 0.14548 0.1945 0.59049 0.0
C13 C 0.1629 0.17784 0.60015 0.0
C14 C 0.15441 0.15643 0.60914 0.0
C15 C 0.12819 0.15123 0.60883 0.0
C16 C 0.11078 0.16789 0.59883 0.0
C17 C 0.11934 0.18927 0.58969 0.0
C18 C 0.17781 0.24087 0.50474 0.0
C19 C 0.09991 0.22605 0.5117 0.0
O20 O 0.12323 0.27734 0.46671 0.0
O21 O 0.1223 0.30946 0.48883 0.0
O22 O 0.09203 0.28138 0.52683 0.0
O23 O 0.12715 0.2777 0.54418 0.0
O24 O 0.16595 0.2917 0.5153 0.0
O25 O 0.16827 0.2782 0.55361 0.0
O26 O 0.13876 0.23521 0.58067 0.0
O27 O 0.16983 0.21565 0.56294 0.0
O28 O 0.18668 0.24064 0.52633 0.0
O29 O 0.15348 0.24154 0.50469 0.0
O30 O 0.11365 0.22351 0.53142 0.0
O31 O 0.10366 0.24364 0.49711 0.0
H32 H 0.11783 0.34713 0.45624 0.0
H33 H 0.13724 0.36748 0.42316 0.0
H34 H 0.17699 0.3021 0.40245 0.0
H35 H 0.1583 0.28209 0.43605 0.0
H36 H 0.18317 0.18143 0.60079 0.0
H37 H 0.16846 0.14388 0.61623 0.0
H38 H 0.09045 0.16465 0.59848 0.0
H39 H 0.10547 0.20177 0.5822 0.0
C40 C 0.09767 0.91137 0.79265 0.0
Eu41 Eu 0.05326 0.90747 0.77162 0.0
C42 C 0.11536 0.89876 0.80915 0.0
C43 C 0.12352 0.91061 0.82989 0.0
C44 C 0.14142 0.89986 0.84518 0.0
C45 C 0.15172 0.87701 0.84004 0.0
C46 C 0.14333 0.86501 0.81936 0.0
C47 C 0.12529 0.87575 0.80408 0.0
C48 C 0.00906 0.93176 0.7816 0.0
C49 C 0.01369 0.87013 0.78773 0.0
C50 C 0.96657 0.8927 0.71353 0.0
Eu51 Eu 0.00925 0.89801 0.73729 0.0
C52 C 0.95693 0.89989 0.68995 0.0
C53 C 0.93188 0.89467 0.68303 0.0
C54 C 0.92237 0.90173 0.66082 0.0
C55 C 0.93777 0.91419 0.64506 0.0
C56 C 0.96301 0.91924 0.65208 0.0
C57 C 0.97248 0.91218 0.67432 0.0
C58 C 0.0533 0.87252 0.72857 0.0
C59 C 0.04773 0.93841 0.72267 0.0
O60 O 0.09472 0.90235 0.7712 0.0
O61 O 0.0763 0.92015 0.80155 0.0
O62 O 0.0247 0.92365 0.79777 0.0
O63 O 0.01823 0.92808 0.76117 0.0
O64 O 0.03832 0.87465 0.78788 0.0
O65 O 0.99791 0.87974 0.77172 0.0
O66 O 0.97021 0.90996 0.72892 0.0
O67 O 0.98526 0.87679 0.71367 0.0
O68 O 0.03873 0.88158 0.71206 0.0
O69 O 0.04361 0.87681 0.74863 0.0
O70 O 0.02494 0.92953 0.71865 0.0
O71 O 0.06239 0.93123 0.74062 0.0
H72 H 0.11635 0.92843 0.83407 0.0
H73 H 0.14771 0.90976 0.86074 0.0
H74 H 0.15069 0.8473 0.815 0.0
H75 H 0.11938 0.86615 0.78822 0.0
H76 H 0.91962 0.88514 0.69483 0.0
H77 H 0.903 0.89723 0.65591 0.0
H78 H 0.97531 0.92903 0.64056 0.0
H79 H 0.99189 0.91644 0.6794 0.0
C80 C 0.39178 0.74734 0.9447 0.0
Eu81 Eu 0.39124 0.76035 0.98926 0.0
C82 C 0.38801 0.72832 0.92676 0.0
C83 C 0.40513 0.72628 0.90775 0.0
C84 C 0.40008 0.71121 0.88839 0.0
C85 C 0.3777 0.69785 0.88761 0.0
C86 C 0.3611 0.69913 0.90723 0.0
C87 C 0.36619 0.71425 0.92663 0.0
C88 C 0.41867 0.74501 0.02723 0.0
C89 C 0.35649 0.73864 0.02982 0.0
C90 C 0.39146 0.808 0.08147 0.0
Eu91 Eu 0.3837 0.78991 0.03922 0.0
C92 C 0.39688 0.83179 0.09165 0.0
C93 C 0.37963 0.85122 0.08906 0.0
C94 C 0.38579 0.87374 0.09804 0.0
C95 C 0.40939 0.87733 0.10958 0.0
C96 C 0.42647 0.85781 0.11234 0.0
C97 C 0.42022 0.83528 0.10357 0.0
C98 C 0.34873 0.80367 1.0052 0.0
C99 C 0.41981 0.8115 0.99872 0.0
O100 O 0.37141 0.75607 0.95557 0.0
O101 O 0.41223 0.74619 0.95839 0.0
O102 O 0.41095 0.73071 0.01033 0.0
O103 O 0.41302 0.76628 0.02226 0.0
O104 O 0.35994 0.74025 1.00655 0.0
O105 O 0.36618 0.75392 0.0456 0.0
O106 O 0.40964 0.79826 0.06842 0.0
O107 O 0.36855 0.80454 0.07258 0.0
O108 O 0.34902 0.81268 0.02662 0.0
O109 O 0.3667 0.78854 1.00387 0.0
O110 O 0.41021 0.81409 0.02036 0.0
O111 O 0.41457 0.79336 0.98424 0.0
H112 H 0.42193 0.73715 0.90737 0.0
H113 H 0.41313 0.71091 0.87353 0.0
H114 H 0.3439 0.68881 0.90737 0.0
H115 H 0.35267 0.71549 0.94112 0.0
H116 H 0.36152 0.84915 0.07987 0.0
H117 H 0.37232 0.88847 0.09551 0.0
H118 H 0.44464 0.85992 0.12143 0.0
H119 H 0.43379 0.82057 0.1059 0.0
C120 C 0.42983 0.12968 0.29574 0.0
Eu121 Eu 0.47189 0.12851 0.27071 0.0
C122 C 0.41209 0.1443 0.31092 0.0
C123 C 0.40882 0.13814 0.33478 0.0
C124 C 0.38964 0.14922 0.3486 0.0
C125 C 0.37303 0.16672 0.3389 0.0
C126 C 0.3768 0.1734 0.31517 0.0
C127 C 0.39608 0.16234 0.30134 0.0
C128 C 0.51466 0.10041 0.2778 0.0
C129 C 0.51207 0.16761 0.28875 0.0
C130 C 0.55982 0.13668 0.2144 0.0
Eu131 Eu 0.51814 0.13888 0.23983 0.0
C132 C 0.56842 0.12848 0.19066 0.0
C133 C 0.5941 0.13091 0.18446 0.0
C134 C 0.60284 0.12336 0.16206 0.0
C135 C 0.58605 0.11315 0.14531 0.0
C136 C 0.56019 0.11082 0.1516 0.0
C137 C 0.55146 0.11839 0.17409 0.0
C138 C 0.47815 0.16969 0.23427 0.0
C139 C 0.47804 0.09723 0.22343 0.0
O140 O 0.4306 0.13419 0.273 0.0
O141 O 0.45224 0.12328 0.30444 0.0
O142 O 0.49161 0.09237 0.27868 0.0
O143 O 0.51367 0.12235 0.2744 0.0
O144 O 0.48755 0.16242 0.28706 0.0
O145 O 0.52913 0.15752 0.27419 0.0
O146 O 0.55352 0.12022 0.22931 0.0
O147 O 0.54412 0.15518 0.21509 0.0
O148 O 0.50194 0.17546 0.23297 0.0
O149 O 0.47628 0.14744 0.23664 0.0
O150 O 0.50046 0.10723 0.22055 0.0
O151 O 0.46228 0.10391 0.24058 0.0
H152 H 0.42055 0.12407 0.34257 0.0
H153 H 0.38718 0.14333 0.36666 0.0
H154 H 0.36464 0.18701 0.30717 0.0
H155 H 0.39793 0.16748 0.28297 0.0
H156 H 0.60746 0.13875 0.19695 0.0
H157 H 0.62275 0.12582 0.15778 0.0
H158 H 0.54677 0.10285 0.13927 0.0
H159 H 0.53152 0.11634 0.17856 0.0
C160 C 0.64467 0.34256 0.50506 0.0
Eu161 Eu 0.64344 0.30072 0.52452 0.0
C162 C 0.63005 0.36071 0.49123 0.0
C163 C 0.63887 0.36686 0.46869 0.0
C164 C 0.62758 0.38591 0.45638 0.0
C165 C 0.60722 0.39945 0.46636 0.0
C166 C 0.59791 0.39287 0.4887 0.0
C167 C 0.6092 0.37373 0.50101 0.0
C168 C 0.66811 0.25961 0.51168 0.0
C169 C 0.60335 0.26233 0.51068 0.0
C170 C 0.63403 0.22066 0.58435 0.0
Eu171 Eu 0.63704 0.25953 0.55973 0.0
C172 C 0.63935 0.21292 0.60891 0.0
C173 C 0.62792 0.19248 0.61739 0.0
C174 C 0.63468 0.18354 0.63974 0.0
C175 C 0.65317 0.19478 0.65407 0.0
C176 C 0.66404 0.21571 0.64572 0.0
C177 C 0.65717 0.2247 0.6234 0.0
C178 C 0.61195 0.3011 0.57092 0.0
C179 C 0.68192 0.2958 0.57083 0.0
O180 O 0.63832 0.33926 0.52724 0.0
O181 O 0.65183 0.32281 0.49407 0.0
O182 O 0.65983 0.27521 0.49649 0.0
O183 O 0.66566 0.26761 0.53268 0.0
O184 O 0.60707 0.28546 0.51063 0.0
O185 O 0.61529 0.2482 0.52615 0.0
O186 O 0.65406 0.22623 0.57207 0.0
O187 O 0.61457 0.2354 0.58101 0.0
O188 O 0.62284 0.28731 0.58648 0.0
O189 O 0.61385 0.29183 0.55048 0.0
O190 O 0.67245 0.27497 0.57584 0.0
O191 O 0.67295 0.30892 0.55314 0.0
H192 H 0.65513 0.35739 0.46086 0.0
H193 H 0.63554 0.3906 0.43943 0.0
H194 H 0.58206 0.40269 0.49681 0.0
H195 H 0.60197 0.36954 0.5184 0.0
H196 H 0.61412 0.18314 0.6065 0.0
H197 H 0.62551 0.16768 0.64571 0.0
H198 H 0.6785 0.22475 0.65606 0.0
H199 H 0.66631 0.24049 0.61718 0.0
C200 C 0.03806 0.37004 0.86664 0.0
Eu201 Eu 0.01851 0.38044 0.82508 0.0
C202 C 0.05108 0.38082 0.88735 0.0
C203 C 0.06608 0.36618 0.90214 0.0
C204 C 0.07703 0.37537 0.92298 0.0
C205 C 0.07316 0.39945 0.92954 0.0
C206 C 0.05858 0.41427 0.91432 0.0
C207 C 0.04759 0.40501 0.89342 0.0
C208 C 0.02805 0.35807 0.78257 0.0
C209 C 0.03908 0.42098 0.79348 0.0
C210 C 0.96119 0.40721 0.7456 0.0
Eu211 Eu 0.98387 0.39613 0.78554 0.0
C212 C 0.93971 0.398 0.73112 0.0
C213 C 0.91483 0.40763 0.73414 0.0
C214 C 0.89436 0.39876 0.72095 0.0
C215 C 0.8983 0.3802 0.70425 0.0
C216 C 0.92325 0.37087 0.70084 0.0
C217 C 0.94376 0.37968 0.71413 0.0
C218 C 0.97517 0.41945 0.82775 0.0
C219 C 0.96427 0.35351 0.81624 0.0
O220 O 0.0141 0.3765 0.86318 0.0
O221 O 0.05091 0.36782 0.84682 0.0
O222 O 0.04571 0.36333 0.79795 0.0
O223 O 0.00633 0.36305 0.7911 0.0
O224 O 0.03893 0.41336 0.81551 0.0
O225 O 0.02135 0.41442 0.77796 0.0
O226 O 0.9821 0.39396 0.74679 0.0
O227 O 0.95528 0.41708 0.76609 0.0
O228 O 0.95732 0.41215 0.81348 0.0
O229 O 0.99678 0.41421 0.81904 0.0
O230 O 0.96228 0.36355 0.79524 0.0
O231 O 0.98272 0.35924 0.83132 0.0
H232 H 0.06902 0.34747 0.89776 0.0
H233 H 0.08856 0.36355 0.93398 0.0
H234 H 0.05512 0.43286 0.91886 0.0
H235 H 0.036 0.41662 0.88226 0.0
H236 H 0.91112 0.42201 0.74679 0.0
H237 H 0.87544 0.40662 0.72366 0.0
H238 H 0.92687 0.3565 0.68817 0.0
H239 H 0.96273 0.37202 0.71119 0.0
C240 C 0.88153 0.69475 0.99691 0.0
Eu241 Eu 0.88343 0.73397 0.02231 0.0
C242 C 0.89549 0.67657 0.98238 0.0
C243 C 0.8835 0.66745 0.96194 0.0
C244 C 0.89411 0.64779 0.94966 0.0
C245 C 0.91707 0.63673 0.95752 0.0
C246 C 0.9296 0.6465 0.97756 0.0
C247 C 0.9189 0.6662 0.98989 0.0
C248 C 0.85428 0.77459 0.01729 0.0
C249 C 0.92562 0.77072 1.00494 0.0
C250 C 0.89812 0.8142 0.08196 0.0
Eu251 Eu 0.8977 0.77581 0.05516 0.0
C252 C 0.88999 0.8224 0.10579 0.0
C253 C 0.87818 0.8071 0.12157 0.0
C254 C 0.87008 0.81552 0.14395 0.0
C255 C 0.87377 0.83937 0.15097 0.0
C256 C 0.88567 0.85453 0.13501 0.0
C257 C 0.89366 0.84612 0.11267 0.0
C258 C 0.92949 0.73727 0.05821 0.0
C259 C 0.85176 0.74026 0.07048 0.0
O260 O 0.88628 0.69542 0.01978 0.0
O261 O 0.87709 0.71585 0.988 0.0
O262 O 0.8452 0.75344 0.0144 0.0
O263 O 0.87793 0.77298 0.02088 0.0
O264 O 0.91935 0.74805 1.00538 0.0
O265 O 0.91637 0.78623 0.02088 0.0
O266 O 0.8798 0.80941 0.06678 0.0
O267 O 0.91712 0.7986 0.08097 0.0
O268 O 0.93683 0.75906 0.06037 0.0
O269 O 0.90537 0.73662 0.05622 0.0
O270 O 0.86421 0.7601 0.0747 0.0
O271 O 0.85691 0.72624 0.05204 0.0
H272 H 0.86529 0.67495 0.95598 0.0
H273 H 0.88365 0.64067 0.93458 0.0
H274 H 0.94749 0.63871 0.98394 0.0
H275 H 0.92856 0.67286 1.00566 0.0
H276 H 0.87523 0.7887 0.11657 0.0
H277 H 0.86121 0.80329 0.15586 0.0
H278 H 0.88846 0.87306 0.13961 0.0
H279 H 0.9026 0.85823 0.10066 0.0
C280 C 0.58961 0.62532 0.25512 0.0
Eu281 Eu 0.54831 0.63203 0.28042 0.0
C282 C 0.60667 0.63783 0.23914 0.0
C283 C 0.62331 0.62438 0.22455 0.0
C284 C 0.64113 0.63557 0.21046 0.0
C285 C 0.64267 0.66053 0.21064 0.0
C286 C 0.62557 0.67403 0.22503 0.0
C287 C 0.60767 0.66276 0.23915 0.0
C288 C 0.50483 0.60621 0.27822 0.0
C289 C 0.50917 0.67131 0.25744 0.0
C290 C 0.46573 0.6598 0.33785 0.0
Eu291 Eu 0.50462 0.65179 0.30986 0.0
C292 C 0.45514 0.64862 0.35897 0.0
C293 C 0.44359 0.66302 0.37658 0.0
C294 C 0.43415 0.65294 0.39718 0.0
C295 C 0.43601 0.62819 0.40054 0.0
C296 C 0.44766 0.61379 0.38277 0.0
C297 C 0.4572 0.62393 0.36219 0.0
C298 C 0.54558 0.68018 0.30868 0.0
C299 C 0.54051 0.60735 0.32984 0.0
O300 O 0.58973 0.63224 0.27743 0.0
O301 O 0.56666 0.62069 0.24717 0.0
O302 O 0.52766 0.59653 0.27745 0.0
O303 O 0.50635 0.6284 0.27852 0.0
O304 O 0.5332 0.66329 0.25865 0.0
O305 O 0.49263 0.66663 0.27432 0.0
O306 O 0.46424 0.64784 0.31776 0.0
O307 O 0.48785 0.66975 0.34089 0.0
O308 O 0.52198 0.68776 0.30775 0.0
O309 O 0.54681 0.65779 0.31094 0.0
O310 O 0.51827 0.61916 0.3307 0.0
O311 O 0.55731 0.61138 0.31318 0.0
H312 H 0.62292 0.60512 0.22444 0.0
H313 H 0.65423 0.62457 0.19995 0.0
H314 H 0.62605 0.69327 0.22541 0.0
H315 H 0.59492 0.67345 0.25033 0.0
H316 H 0.44209 0.68214 0.37451 0.0
H317 H 0.42577 0.66464 0.41065 0.0
H318 H 0.44921 0.59467 0.38464 0.0
H319 H 0.46621 0.61248 0.34885 0.0
C320 C 0.18227 0.53147 0.16851 0.0
Eu321 Eu 0.22456 0.50567 0.16839 0.0
C322 C 0.16457 0.54558 0.15321 0.0
C323 C 0.15972 0.56967 0.15884 0.0
C324 C 0.14089 0.58278 0.14656 0.0
C325 C 0.1263 0.57205 0.12842 0.0
C326 C 0.13162 0.54806 0.12234 0.0
C327 C 0.15058 0.53496 0.13457 0.0
C328 C 0.2674 0.51204 0.1956 0.0
C329 C 0.26413 0.52276 0.12862 0.0
C330 C 0.31154 0.44635 0.15598 0.0
Eu331 Eu 0.27042 0.47373 0.1557 0.0
C332 C 0.3187 0.42244 0.16446 0.0
C333 C 0.29997 0.40611 0.17034 0.0
C334 C 0.30716 0.38335 0.17818 0.0
C335 C 0.3332 0.37661 0.18044 0.0
C336 C 0.35181 0.39319 0.17471 0.0
C337 C 0.34461 0.41587 0.16679 0.0
C338 C 0.23038 0.46971 0.12547 0.0
C339 C 0.23162 0.45867 0.19865 0.0
O340 O 0.18311 0.50836 0.16533 0.0
O341 O 0.20473 0.54015 0.17343 0.0
O342 O 0.24436 0.51423 0.20403 0.0
O343 O 0.26633 0.50829 0.17363 0.0
O344 O 0.23976 0.52188 0.13472 0.0
O345 O 0.28138 0.50754 0.13747 0.0
O346 O 0.30647 0.46245 0.17243 0.0
O347 O 0.29535 0.44734 0.13815 0.0
O348 O 0.25417 0.46823 0.11915 0.0
O349 O 0.22851 0.4716 0.14788 0.0
O350 O 0.25359 0.45494 0.18745 0.0
O351 O 0.21578 0.47636 0.19313 0.0
H352 H 0.16999 0.57822 0.1733 0.0
H353 H 0.13711 0.60112 0.15191 0.0
H354 H 0.12095 0.53933 0.10827 0.0
H355 H 0.15382 0.51639 0.12977 0.0
H356 H 0.27983 0.41095 0.16882 0.0
H357 H 0.29237 0.37111 0.18267 0.0
H358 H 0.37201 0.3885 0.17594 0.0
H359 H 0.35931 0.42825 0.16236 0.0
C360 C 0.68063 0.99896 0.88949 0.0
Eu361 Eu 0.72299 0.02229 0.89301 0.0
C362 C 0.66399 0.98242 0.90164 0.0
C363 C 0.64944 0.96686 0.88775 0.0
C364 C 0.63169 0.95233 0.89831 0.0
C365 C 0.62812 0.95302 0.92308 0.0
C366 C 0.64324 0.96828 0.93709 0.0
C367 C 0.66107 0.98288 0.92645 0.0
C368 C 0.7651 0.01519 0.86514 0.0
C369 C 0.76238 0.99979 0.93169 0.0
C370 C 0.81133 0.0744 0.90887 0.0
Eu371 Eu 0.76948 0.05008 0.90751 0.0
C372 C 0.82033 0.09693 0.89926 0.0
C373 C 0.80343 0.11638 0.8955 0.0
C374 C 0.81249 0.13771 0.88666 0.0
C375 C 0.83855 0.13987 0.88118 0.0
C376 C 0.85528 0.12018 0.88465 0.0
C377 C 0.84624 0.09895 0.89365 0.0
C378 C 0.73026 0.05458 0.93836 0.0
C379 C 0.72996 0.07083 0.86628 0.0
O380 O 0.68193 0.02057 0.8983 0.0
O381 O 0.70262 0.99055 0.88171 0.0
O382 O 0.74193 0.01617 0.85665 0.0
O383 O 0.76457 0.01702 0.88734 0.0
O384 O 0.73807 1.0023 0.92522 0.0
O385 O 0.77977 0.01458 0.92408 0.0
O386 O 0.80722 0.05735 0.89334 0.0
O387 O 0.79365 0.07603 0.92519 0.0
O388 O 0.75422 0.05363 0.94454 0.0
O389 O 0.72783 0.05455 0.91589 0.0
O390 O 0.75284 0.07161 0.87653 0.0
O391 O 0.71351 0.05451 0.87172 0.0
H392 H 0.65132 0.96639 0.86857 0.0
H393 H 0.62014 0.94114 0.88691 0.0
H394 H 0.64116 0.96906 0.95623 0.0
H395 H 0.6722 0.99477 0.9375 0.0
H396 H 0.78326 0.11511 0.89944 0.0
H397 H 0.79908 0.15245 0.88392 0.0
H398 H 0.87549 0.12133 0.88084 0.0
H399 H 0.85956 0.08412 0.89635 0.0
C400 C 0.83902 0.03286 0.39769 0.0
Eu401 Eu 0.7977 1.00753 0.39663 0.0
C402 C 0.85559 0.04825 0.41273 0.0
C403 C 0.85408 0.07312 0.41061 0.0
C404 C 0.87203 0.08757 0.42199 0.0
C405 C 0.89215 0.07754 0.43567 0.0
C406 C 0.89312 0.05269 0.43844 0.0
C407 C 0.87513 0.03824 0.42709 0.0
C408 C 0.75555 0.01316 0.36803 0.0
C409 C 0.75561 0.02692 0.43475 0.0
C410 C 0.71257 0.94961 0.40691 0.0
Eu411 Eu 0.75242 0.97671 0.4081 0.0
C412 C 0.70517 0.92601 0.39719 0.0
C413 C 0.70044 0.9074 0.41283 0.0
C414 C 0.69242 0.88531 0.40419 0.0
C415 C 0.68867 0.8813 0.37968 0.0
C416 C 0.69358 0.89987 0.36399 0.0
C417 C 0.70178 0.92195 0.37262 0.0
C418 C 0.79151 0.97351 0.43964 0.0
C419 C 0.79344 0.95959 0.36643 0.0
O420 O 0.83881 0.01012 0.40231 0.0
O421 O 0.81657 0.04125 0.3909 0.0
O422 O 0.7788 0.01409 0.36012 0.0
O423 O 0.75603 0.01057 0.39007 0.0
O424 O 0.78026 0.02554 0.42944 0.0
O425 O 0.7394 0.0114 0.42567 0.0
O426 O 0.71615 0.9667 0.39182 0.0
O427 O 0.72931 0.94964 0.42433 0.0
O428 O 0.76754 0.97285 0.44528 0.0
O429 O 0.7941 0.97438 0.41729 0.0
O430 O 0.77092 0.95696 0.37658 0.0
O431 O 0.80871 0.97688 0.37275 0.0
H432 H 0.83946 0.08143 0.39953 0.0
H433 H 0.87035 0.10664 0.41975 0.0
H434 H 0.90842 0.04422 0.44858 0.0
H435 H 0.87714 0.01913 0.42892 0.0
H436 H 0.70264 0.91005 0.43185 0.0
H437 H 0.6885 0.87154 0.41681 0.0
H438 H 0.69113 0.89733 0.34499 0.0
H439 H 0.70524 0.93585 0.36003 0.0
C440 C 0.23773 0.59974 0.63886 0.0
Eu441 Eu 0.26667 0.56169 0.64411 0.0
C442 C 0.22276 0.61858 0.65144 0.0
C443 C 0.20108 0.62848 0.64015 0.0
C444 C 0.18799 0.64812 0.65019 0.0
C445 C 0.1963 0.65833 0.67182 0.0
C446 C 0.21767 0.64789 0.68348 0.0
C447 C 0.23079 0.62819 0.67337 0.0
C448 C 0.26281 0.51971 0.61947 0.0
C449 C 0.25227 0.5304 0.68957 0.0
C450 C 0.32985 0.48246 0.66753 0.0
Eu451 Eu 0.30427 0.52177 0.65889 0.0
C452 C 0.35545 0.47282 0.66155 0.0
C453 C 0.3647 0.45191 0.67218 0.0
C454 C 0.38804 0.44147 0.66502 0.0
C455 C 0.40245 0.45172 0.64699 0.0
C456 C 0.39334 0.47305 0.6368 0.0
C457 C 0.37008 0.48354 0.64406 0.0
C458 C 0.31636 0.56604 0.67526 0.0
C459 C 0.31744 0.55281 0.61392 0.0
O460 O 0.2627 0.60006 0.64116 0.0
O461 O 0.22876 0.57819 0.63842 0.0
O462 O 0.25938 0.54029 0.60968 0.0
O463 O 0.26677 0.52254 0.64127 0.0
O464 O 0.24741 0.55004 0.67751 0.0
O465 O 0.27233 0.51621 0.685 0.0
O466 O 0.31425 0.48517 0.64938 0.0
O467 O 0.3288 0.50053 0.68253 0.0
O468 O 0.33301 0.55015 0.66778 0.0
O469 O 0.29431 0.55761 0.67393 0.0
O470 O 0.31863 0.53109 0.62251 0.0
O471 O 0.30183 0.56932 0.62301 0.0
H472 H 0.19471 0.62146 0.62312 0.0
H473 H 0.17189 0.65582 0.64051 0.0
H474 H 0.2244 0.65508 0.7003 0.0
H475 H 0.24748 0.62083 0.68242 0.0
H476 H 0.35357 0.44335 0.68561 0.0
H477 H 0.39438 0.42492 0.67305 0.0
H478 H 0.40413 0.48155 0.6231 0.0
H479 H 0.36322 0.49973 0.63567 0.0
H480 H 0.19458 0.3053 0.58115 0.0
H481 H 0.21335 0.34308 0.59323 0.0
H482 H 0.20748 0.36751 0.52108 0.0
H483 H 0.18926 0.3297 0.50871 0.0
H484 H 0.25243 0.3812 0.54325 0.0
H485 H 0.16834 0.40303 0.5999 0.0
H486 H 0.18445 0.37553 0.60734 0.0
H487 H 0.16886 0.37847 0.57887 0.0
C488 C 0.19766 0.31854 0.56776 0.0
C489 C 0.19014 0.31451 0.544 0.0
C490 C 0.20821 0.34022 0.57474 0.0
C491 C 0.21122 0.35836 0.55817 0.0
C492 C 0.20514 0.35386 0.53421 0.0
H493 H 0.25087 0.50911 0.57278 0.0
H494 H 0.23948 0.46998 0.5561 0.0
C495 C 0.1947 0.33218 0.52719 0.0
C496 C 0.21942 0.3824 0.56595 0.0
H497 H 0.20302 0.42928 0.60262 0.0
C498 C 0.2416 0.39177 0.55615 0.0
C499 C 0.20507 0.39632 0.58256 0.0
C500 C 0.18022 0.38797 0.59262 0.0
C501 C 0.25021 0.41437 0.56312 0.0
C502 C 0.23615 0.42798 0.58012 0.0
C503 C 0.21381 0.41875 0.58963 0.0
C504 C 0.24475 0.45138 0.58927 0.0
C505 C 0.27462 0.4233 0.55277 0.0
C506 C 0.25137 0.45387 0.61335 0.0
C507 C 0.25775 0.47602 0.62282 0.0
C508 C 0.25753 0.49627 0.60846 0.0
C509 C 0.25127 0.49379 0.58422 0.0
C510 C 0.2449 0.47146 0.57468 0.0
H511 H 0.2855 0.40905 0.54299 0.0
H512 H 0.26993 0.43783 0.54022 0.0
H513 H 0.28706 0.43067 0.56704 0.0
H514 H 0.25126 0.43865 0.62494 0.0
H515 H 0.26233 0.47734 0.64161 0.0
H516 H 0.77054 1.00528 0.81723 0.0
H517 H 0.81008 0.99194 0.79668 0.0
H518 H 0.85188 0.99634 0.86288 0.0
H519 H 0.81289 0.00923 0.88339 0.0
H520 H 0.87095 0.01937 0.81058 0.0
H521 H 0.85205 0.92295 0.8205 0.0
H522 H 0.82649 0.9442 0.81403 0.0
H523 H 0.84111 0.94407 0.84293 0.0
C524 C 0.78823 1.00353 0.82729 0.0
C525 C 0.78863 0.00837 0.8519 0.0
C526 C 0.81073 0.99595 0.81557 0.0
C527 C 0.83383 0.99323 0.82832 0.0
C528 C 0.83426 0.99842 0.85274 0.0
H529 H 0.98339 0.93095 0.82339 0.0
H530 H 0.94002 0.94621 0.83166 0.0
C531 C 0.81193 1.00583 0.86441 0.0
C532 C 0.85763 0.98418 0.81679 0.0
H533 H 0.89326 0.93305 0.80802 0.0
C534 C 0.87571 1.0005 0.8095 0.0
C535 C 0.8638 0.95958 0.8158 0.0
C536 C 0.84494 0.94151 0.82366 0.0
C537 C 0.90022 0.99283 0.80192 0.0
C538 C 0.90667 0.96822 0.80157 0.0
C539 C 0.88826 0.95189 0.80824 0.0
C540 C 0.93298 0.95915 0.79612 0.0
C541 C 0.91946 0.01114 0.79548 0.0
C542 C 0.94343 0.96128 0.77334 0.0
C543 C 0.96828 0.95255 0.76857 0.0
C544 C 0.98304 0.94155 0.7865 0.0
C545 C 0.97253 0.93947 0.80926 0.0
C546 C 0.94771 0.94808 0.81397 0.0
H547 H 0.91285 0.0295 0.80038 0.0
H548 H 0.93809 1.00734 0.80446 0.0
H549 H 0.9227 0.01036 0.776 0.0
H550 H 0.93231 0.96951 0.75922 0.0
H551 H 0.97595 0.95442 0.75088 0.0
H552 H 0.34531 0.69799 1.00497 0.0
H553 H 0.32834 0.66139 0.02028 0.0
H554 H 0.32147 0.69399 0.08995 0.0
H555 H 0.33941 0.73055 0.07492 0.0
H556 H 0.3428 0.65131 0.09318 0.0
H557 H 0.25701 0.64407 0.03561 0.0
H558 H 0.28564 0.64597 0.0185 0.0
H559 H 0.27549 0.67068 0.03724 0.0
C560 C 0.33983 0.69759 0.02348 0.0
C561 C 0.34358 0.71734 0.03867 0.0
C562 C 0.32998 0.67659 0.0322 0.0
C563 C 0.32313 0.67498 0.05619 0.0
C564 C 0.32649 0.6948 0.07134 0.0
H565 H 0.23564 0.56205 0.11605 0.0
H566 H 0.25052 0.59825 0.09809 0.0
C567 C 0.33667 0.71574 0.0627 0.0
C568 C 0.31382 0.65225 0.06574 0.0
H569 H 0.26969 0.60917 0.05685 0.0
C570 C 0.32669 0.64219 0.08532 0.0
C571 C 0.29263 0.64041 0.0557 0.0
C572 C 0.27674 0.65097 0.03577 0.0
C573 C 0.31916 0.62059 0.09499 0.0
C574 C 0.2987 0.60821 0.08427 0.0
C575 C 0.28565 0.61841 0.06484 0.0
C576 C 0.28962 0.58536 0.09371 0.0
C577 C 0.33279 0.61168 0.11702 0.0
C578 C 0.3064 0.56563 0.09659 0.0
C579 C 0.29799 0.54487 0.10718 0.0
C580 C 0.27249 0.54329 0.11466 0.0
C581 C 0.25542 0.56259 0.11053 0.0
C582 C 0.26391 0.58339 0.10026 0.0
H583 H 0.34254 0.62626 0.12674 0.0
H584 H 0.31927 0.60337 0.12933 0.0
H585 H 0.34761 0.59814 0.11181 0.0
H586 H 0.32613 0.5664 0.091 0.0
H587 H 0.31159 0.53028 0.10992 0.0
H588 H 0.52496 0.05199 0.27723 0.0
H589 H 0.56604 0.03172 0.28675 0.0
H590 H 0.59925 0.09968 0.30261 0.0
H591 H 0.55914 0.11973 0.29199 0.0
H592 H 0.63192 0.07417 0.27894 0.0
H593 H 0.59497 0.01776 0.35048 0.0
H594 H 0.58062 0.01247 0.32188 0.0
H595 H 0.57554 0.04075 0.33679 0.0
C596 C 0.54109 0.06247 0.2828 0.0
C597 C 0.53879 0.08741 0.28397 0.0
C598 C 0.56454 0.0509 0.28838 0.0
C599 C 0.58583 0.06408 0.29583 0.0
C600 C 0.58332 0.089 0.29688 0.0
H601 H 0.71064 0.02881 0.38674 0.0
H602 H 0.67077 0.03879 0.36631 0.0
C603 C 0.56024 0.10049 0.29087 0.0
C604 C 0.61085 0.05249 0.30274 0.0
H605 H 0.63886 0.01406 0.34226 0.0
C606 C 0.63341 0.06094 0.29274 0.0
C607 C 0.61295 0.03522 0.32077 0.0
C608 C 0.58979 0.02614 0.33328 0.0
C609 C 0.65783 0.05365 0.30103 0.0
C610 C 0.65993 0.03655 0.31922 0.0
C611 C 0.63737 0.02715 0.32832 0.0
C612 C 0.68487 0.0301 0.33104 0.0
C613 C 0.68096 0.06549 0.29115 0.0
C614 C 0.70647 0.02183 0.31817 0.0
C615 C 0.72979 0.01663 0.32993 0.0
C616 C 0.73163 0.01899 0.35478 0.0
C617 C 0.70988 0.02675 0.36757 0.0
C618 C 0.68694 0.03239 0.35587 0.0
H619 H 0.67567 0.08225 0.28189 0.0
H620 H 0.69496 0.06968 0.30546 0.0
H621 H 0.69046 0.05331 0.27805 0.0
H622 H 0.70532 0.01924 0.2991 0.0
H623 H 0.74616 0.01039 0.31969 0.0
H624 H 0.70117 0.24668 0.47628 0.0
H625 H 0.7157 0.20617 0.46479 0.0
H626 H 0.66877 0.17755 0.5196 0.0
H627 H 0.65395 0.21775 0.53044 0.0
H628 H 0.71863 0.15772 0.51898 0.0
H629 H 0.67325 0.15606 0.42939 0.0
H630 H 0.6938 0.1807 0.43483 0.0
H631 H 0.66499 0.17828 0.45175 0.0
C632 C 0.69414 0.23169 0.48591 0.0
C633 C 0.67728 0.23535 0.50501 0.0
C634 C 0.70232 0.20858 0.47928 0.0
C635 C 0.69337 0.1888 0.4914 0.0
C636 C 0.67627 0.19252 0.51026 0.0
H637 H 0.7056 0.04124 0.44172 0.0
H638 H 0.68989 0.07965 0.4576 0.0
C639 C 0.66817 0.21556 0.51682 0.0
C640 C 0.70172 0.16419 0.48457 0.0
H641 H 0.7009 0.12339 0.43895 0.0
C642 C 0.71474 0.15018 0.50149 0.0
C643 C 0.6962 0.15424 0.46191 0.0
C644 C 0.68109 0.16797 0.44345 0.0
C645 C 0.72285 0.12667 0.4962 0.0
C646 C 0.7181 0.117 0.47326 0.0
C647 C 0.70464 0.13085 0.4565 0.0
C648 C 0.72749 0.09279 0.46599 0.0
C649 C 0.73611 0.1123 0.51532 0.0
C650 C 0.75382 0.08724 0.46578 0.0
C651 C 0.76286 0.06527 0.45683 0.0
C652 C 0.74576 0.04842 0.44772 0.0
C653 C 0.71932 0.0537 0.44872 0.0
C654 C 0.71029 0.07572 0.45767 0.0
H655 H 0.73171 0.11956 0.53336 0.0
H656 H 0.73048 0.09341 0.51439 0.0
H657 H 0.75712 0.1129 0.51284 0.0
H658 H 0.76749 0.10025 0.4717 0.0
H659 H 0.78335 0.0619 0.45625 0.0
H660 H 0.04592 0.44043 0.74976 0.0
H661 H 0.083 0.46196 0.73624 0.0
H662 H 0.11717 0.4568 0.80606 0.0
H663 H 0.08003 0.43565 0.81991 0.0
H664 H 0.1232 0.50126 0.78543 0.0
H665 H 0.15163 0.42722 0.72393 0.0
H666 H 0.11959 0.43854 0.71915 0.0
H667 H 0.12776 0.42413 0.7466 0.0
C668 C 0.06118 0.44407 0.76232 0.0
C669 C 0.06013 0.4361 0.78584 0.0
C670 C 0.08241 0.45628 0.75453 0.0
C671 C 0.10302 0.46052 0.77004 0.0
C672 C 0.10152 0.45356 0.79379 0.0
H673 H 0.25422 0.49078 0.7173 0.0
H674 H 0.21949 0.47505 0.74068 0.0
C675 C 0.08027 0.44144 0.80164 0.0
C676 C 0.1266 0.47129 0.76125 0.0
H677 H 0.17435 0.46297 0.72078 0.0
C678 C 0.13449 0.49289 0.77137 0.0
C679 C 0.14155 0.46002 0.74327 0.0
C680 C 0.1349 0.43608 0.73274 0.0
C681 C 0.15661 0.50391 0.76346 0.0
C682 C 0.17089 0.49315 0.74473 0.0
C683 C 0.16332 0.47124 0.73508 0.0
C684 C 0.19316 0.50459 0.73402 0.0
C685 C 0.16457 0.52682 0.77532 0.0
C686 C 0.19008 0.52669 0.723 0.0
C687 C 0.20992 0.53581 0.70972 0.0
C688 C 0.23313 0.52282 0.70696 0.0
C689 C 0.23659 0.50123 0.71899 0.0
C690 C 0.21675 0.49218 0.73235 0.0
H691 H 0.15671 0.52868 0.79357 0.0
H692 H 0.18574 0.5279 0.77634 0.0
H693 H 0.15705 0.54205 0.76483 0.0
H694 H 0.17188 0.53635 0.72364 0.0
H695 H 0.20655 0.55248 0.70068 0.0
H696 H 0.7319 0.96923 0.95517 0.0
H697 H 0.74445 0.93103 0.97264 0.0
H698 H 0.82321 0.94275 0.95516 0.0
H699 H 0.81091 0.98108 0.93772 0.0
H700 H 0.80018 0.8969 0.93857 0.0
H701 H 0.78801 0.91681 0.03519 0.0
H702 H 0.76279 0.92656 0.01531 0.0
H703 H 0.79357 0.93978 0.01387 0.0
C704 C 0.75197 0.96389 0.95536 0.0
C705 C 0.77041 0.97826 0.94505 0.0
C706 C 0.75909 0.94205 0.96539 0.0
C707 C 0.78474 0.9341 0.96523 0.0
C708 C 0.8033 0.94862 0.9555 0.0
H709 H 0.87392 0.81863 0.02034 0.0
H710 H 0.854 0.85638 0.00863 0.0
C711 C 0.79625 0.97058 0.94566 0.0
C712 C 0.79204 0.91006 0.97391 0.0
H713 H 0.7997 0.8773 0.02427 0.0
C714 C 0.79991 0.89254 0.95728 0.0
C715 C 0.79163 0.90448 0.99832 0.0
C716 C 0.7837 0.92285 0.01684 0.0
C717 C 0.80762 0.86961 0.96446 0.0
C718 C 0.80749 0.8641 0.98888 0.0
C719 C 0.79943 0.88154 1.00552 0.0
C720 C 0.81824 0.84113 0.99753 0.0
C721 C 0.81663 0.85154 0.94606 0.0
C722 C 0.80454 0.82001 0.99546 0.0
C723 C 0.81583 0.79824 1.00247 0.0
C724 C 0.84102 0.79738 0.01143 0.0
C725 C 0.8544 0.81868 0.01374 0.0
C726 C 0.84308 0.84031 1.00701 0.0
H727 H 0.81675 0.85897 0.92788 0.0
H728 H 0.83626 0.84492 0.95059 0.0
H729 H 0.80389 0.83605 0.94604 0.0
H730 H 0.78531 0.82034 0.98812 0.0
H731 H 0.80511 0.78211 1.0004 0.0
H732 H 0.45747 0.62671 0.27593 0.0
H733 H 0.417 0.60807 0.267 0.0
H734 H 0.45599 0.53971 0.26057 0.0
H735 H 0.49687 0.55839 0.27054 0.0
H736 H 0.40532 0.58651 0.22617 0.0
H737 H 0.39401 0.52321 0.29979 0.0
H738 H 0.41689 0.54671 0.30098 0.0
H739 H 0.42384 0.5198 0.28431 0.0
C740 C 0.45746 0.60762 0.27319 0.0
C741 C 0.48038 0.59399 0.27412 0.0
C742 C 0.43424 0.59698 0.26795 0.0
C743 C 0.43328 0.57243 0.26332 0.0
C744 C 0.4561 0.55861 0.26457 0.0
H745 H 0.3152 0.50946 0.17748 0.0
H746 H 0.3549 0.52256 0.19566 0.0
C747 C 0.47948 0.5693 0.27007 0.0
C748 C 0.40868 0.56209 0.25522 0.0
H749 H 0.36451 0.52017 0.26735 0.0
C750 C 0.39641 0.57207 0.23529 0.0
C751 C 0.39681 0.54343 0.26723 0.0
C752 C 0.4084 0.53277 0.28941 0.0
C753 C 0.37287 0.56381 0.22687 0.0
C754 C 0.36143 0.54459 0.23832 0.0
C755 C 0.37339 0.53479 0.25851 0.0
C756 C 0.33755 0.53409 0.2288 0.0
C757 C 0.36034 0.57594 0.20586 0.0
C758 C 0.31464 0.53525 0.24178 0.0
C759 C 0.2917 0.52742 0.23144 0.0
C760 C 0.29146 0.51834 0.20801 0.0
C761 C 0.31466 0.51638 0.19554 0.0
C762 C 0.33742 0.52398 0.20587 0.0
H763 H 0.36763 0.59412 0.20345 0.0
H764 H 0.36463 0.56542 0.18944 0.0
H765 H 0.33923 0.57724 0.20791 0.0
H766 H 0.31435 0.54292 0.25957 0.0
H767 H 0.27413 0.5291 0.24148 0.0
H768 H 0.56126 0.17364 0.30445 0.0
H769 H 0.57485 0.19056 0.34269 0.0
H770 H 0.49641 0.20938 0.35923 0.0
H771 H 0.48257 0.19224 0.32122 0.0
H772 H 0.56925 0.23525 0.36387 0.0
H773 H 0.51849 0.16761 0.41507 0.0
H774 H 0.52349 0.16489 0.38342 0.0
H775 H 0.49827 0.18408 0.39489 0.0
C776 C 0.54691 0.1817 0.31603 0.0
C777 C 0.52079 0.18138 0.30984 0.0
C778 C 0.55472 0.19128 0.33794 0.0
C779 C 0.53657 0.20067 0.35404 0.0
C780 C 0.51066 0.20165 0.34733 0.0
H781 H 0.57069 0.28536 0.48013 0.0
H782 H 0.55314 0.26987 0.44278 0.0
C783 C 0.50282 0.19201 0.32548 0.0
C784 C 0.5447 0.20892 0.37806 0.0
H785 H 0.53691 0.19911 0.43737 0.0
C786 C 0.56219 0.22736 0.37994 0.0
C787 C 0.53581 0.19829 0.39901 0.0
C788 C 0.51817 0.17747 0.39809 0.0
C789 C 0.57069 0.23576 0.4022 0.0
C790 C 0.56107 0.22573 0.42315 0.0
C791 C 0.54396 0.20699 0.42129 0.0
C792 C 0.56901 0.23426 0.44712 0.0
C793 C 0.59029 0.25501 0.40307 0.0
C794 C 0.58249 0.21901 0.4626 0.0
C795 C 0.59233 0.22774 0.48416 0.0
C796 C 0.5888 0.25189 0.49055 0.0
C797 C 0.57393 0.26672 0.47565 0.0
C798 C 0.56404 0.25795 0.4542 0.0
H799 H 0.60043 0.2564 0.38588 0.0
H800 H 0.58052 0.27239 0.4069 0.0
H801 H 0.60468 0.25163 0.41734 0.0
H802 H 0.58637 0.20061 0.45753 0.0
H803 H 0.60381 0.21588 0.49516 0.0
H804 H 0.12901 0.28583 0.58921 0.0
H805 H 0.1119 0.29701 0.62804 0.0
H806 H 0.0356 0.30053 0.59834 0.0
H807 H 0.05291 0.28965 0.55886 0.0
H808 H 0.04488 0.33867 0.62803 0.0
H809 H 0.07473 0.25612 0.67372 0.0
H810 H 0.10123 0.26934 0.6594 0.0
H811 H 0.07497 0.25845 0.64176 0.0
C812 C 0.10853 0.28877 0.59087 0.0
C813 C 0.0923 0.28664 0.57091 0.0
C814 C 0.09873 0.29506 0.61321 0.0
C815 C 0.07235 0.29912 0.61639 0.0
C816 C 0.05601 0.29727 0.59644 0.0
H817 H 0.99282 0.34577 0.74836 0.0
H818 H 1.00117 0.33122 0.70767 0.0
C819 C 0.06588 0.29102 0.5739 0.0
C820 C 0.06234 0.30601 0.64046 0.0
H821 H 0.06505 0.29006 0.69894 0.0
C822 C 0.04892 0.32785 0.64347 0.0
C823 C 0.06747 0.29191 0.66073 0.0
C824 C 0.08015 0.26754 0.65872 0.0
C825 C 0.04168 0.33645 0.66622 0.0
C826 C 0.04786 0.3228 0.68652 0.0
C827 C 0.06052 0.30064 0.68343 0.0
C828 C 0.04243 0.33162 0.7112 0.0
C829 C 0.02838 0.36051 0.66849 0.0
C830 C 0.06277 0.33631 0.72692 0.0
C831 C 0.05804 0.34473 0.75011 0.0
C832 C 0.03285 0.34843 0.75819 0.0
C833 C 0.01246 0.34332 0.74259 0.0
C834 C 0.0172 0.33506 0.7193 0.0
H835 H 0.02894 0.3706 0.65169 0.0
H836 H 0.00804 0.35813 0.6732 0.0
H837 H 0.03732 0.37125 0.68291 0.0
H838 H 0.08238 0.33371 0.72114 0.0
H839 H 0.07416 0.34847 0.76167 0.0
H840 H 0.96469 0.86964 0.80482 0.0
H841 H 0.9505 0.85093 0.84142 0.0
H842 H 0.02609 0.81993 0.85159 0.0
H843 H 0.04047 0.83886 0.81548 0.0
H844 H 0.94954 0.80458 0.8574 0.0
H845 H 0.01546 0.85809 0.91286 0.0
H846 H 0.009 0.86442 0.88202 0.0
H847 H 0.03146 0.84101 0.88994 0.0
C848 C 0.97814 0.85851 0.81466 0.0
C849 C 1.00375 0.8559 0.80739 0.0
C850 C 0.97005 0.84791 0.83561 0.0
C851 C 0.98743 0.83453 0.84956 0.0
C852 C 0.01255 0.83072 0.84149 0.0
H853 H 0.94714 0.74467 0.96823 0.0
H854 H 0.96323 0.75969 0.93076 0.0
C855 C 0.02068 0.84144 0.82074 0.0
C856 C 0.97965 0.82522 0.87293 0.0
H857 H 0.99434 0.82703 0.93224 0.0
C858 C 0.95929 0.80949 0.87378 0.0
C859 C 0.99213 0.83197 0.89435 0.0
C860 C 0.01305 0.84998 0.89487 0.0
C861 C 0.95132 0.80004 0.89542 0.0
C862 C 0.96445 0.80609 0.91672 0.0
C863 C 0.98455 0.8221 0.91589 0.0
C864 C 0.9569 0.79684 0.9402 0.0
C865 C 0.92852 0.78413 0.89531 0.0
C866 C 0.94936 0.81271 0.9585 0.0
C867 C 0.94054 0.8042 0.98008 0.0
C868 C 0.93904 0.77959 0.98383 0.0
C869 C 0.94786 0.76372 0.96591 0.0
C870 C 0.95682 0.77228 0.94436 0.0
H871 H 0.91667 0.78635 0.87896 0.0
H872 H 0.9353 0.76528 0.89594 0.0
H873 H 0.91623 0.78785 0.91102 0.0
H874 H 0.94948 0.83175 0.95578 0.0
H875 H 0.93391 0.81697 0.99344 0.0
H876 H 0.45978 0.68289 0.24446 0.0
H877 H 0.44453 0.69664 0.20568 0.0
H878 H 0.52243 0.69995 0.18155 0.0
H879 H 0.53788 0.68583 0.22009 0.0
H880 H 0.45282 0.73662 0.17906 0.0
H881 H 0.49024 0.65532 0.13263 0.0
H882 H 0.48835 0.65773 0.1646 0.0
H883 H 0.51421 0.67101 0.14912 0.0
C884 C 0.47372 0.68682 0.23103 0.0
C885 C 0.50007 0.68302 0.23535 0.0
C886 C 0.46494 0.69464 0.20883 0.0
C887 C 0.4823 0.69878 0.19053 0.0
C888 C 0.50865 0.69628 0.19521 0.0
H889 H 0.44933 0.76991 0.05713 0.0
H890 H 0.46422 0.75877 0.09692 0.0
C891 C 0.51746 0.68837 0.21735 0.0
C892 C 0.47281 0.70502 0.16636 0.0
H893 H 0.47402 0.68639 0.10824 0.0
C894 C 0.45741 0.72564 0.16357 0.0
C895 C 0.47839 0.69041 0.14622 0.0
C896 C 0.49348 0.66725 0.14824 0.0
C897 C 0.4479 0.73232 0.14112 0.0
C898 C 0.45435 0.7182 0.12085 0.0
C899 C 0.46931 0.69733 0.12373 0.0
C900 C 0.44575 0.72475 0.09649 0.0
C901 C 0.43063 0.75419 0.13942 0.0
C902 C 0.43128 0.70895 0.08259 0.0
C903 C 0.42294 0.71524 0.05975 0.0
C904 C 0.4289 0.73746 0.05052 0.0
C905 C 0.44398 0.75293 0.06413 0.0
C906 C 0.45243 0.7466 0.08687 0.0
H907 H 0.42169 0.75886 0.15679 0.0
H908 H 0.4421 0.7695 0.134 0.0
H909 H 0.41523 0.75162 0.12599 0.0
H910 H 0.42608 0.69191 0.08956 0.0
H911 H 0.4113 0.70302 0.04958 0.0
H912 H 0.13276 0.36802 0.38107 0.0
H913 H 0.14818 0.38699 0.34539 0.0
H914 H 0.2211 0.35022 0.35314 0.0
H915 H 0.20603 0.33142 0.38927 0.0
H916 H 0.19174 0.41632 0.34099 0.0
H917 H 0.19898 0.33495 0.28358 0.0
H918 H 0.18076 0.3361 0.31075 0.0
H919 H 0.21505 0.33355 0.31194 0.0
C920 C 0.1522 0.36413 0.37544 0.0
C921 C 0.16815 0.34818 0.3882 0.0
C922 C 0.16091 0.37488 0.35489 0.0
C923 C 0.18567 0.36981 0.34643 0.0
C924 C 0.20176 0.35405 0.3591 0.0
H925 H 0.26128 0.4236 0.21975 0.0
H926 H 0.25152 0.4015 0.25569 0.0
C927 C 0.19309 0.34332 0.37976 0.0
C928 C 0.1946 0.38152 0.3246 0.0
H929 H 0.21169 0.37093 0.26676 0.0
C930 C 0.19617 0.40639 0.32477 0.0
C931 C 0.20056 0.36852 0.30352 0.0
C932 C 0.19863 0.34181 0.30221 0.0
C933 C 0.20335 0.41865 0.30442 0.0
C934 C 0.20855 0.40575 0.2831 0.0
C935 C 0.20761 0.38081 0.28307 0.0
C936 C 0.21401 0.418 0.26052 0.0
C937 C 0.20551 0.44535 0.30602 0.0
C938 C 0.19587 0.43403 0.25086 0.0
C939 C 0.20136 0.44668 0.23043 0.0
C940 C 0.22509 0.44346 0.21899 0.0
C941 C 0.24286 0.42661 0.22812 0.0
C942 C 0.23733 0.41397 0.24868 0.0
H943 H 0.20841 0.45157 0.32467 0.0
H944 H 0.2216 0.45148 0.29511 0.0
H945 H 0.18752 0.45384 0.29929 0.0
H946 H 0.17749 0.43699 0.25933 0.0
H947 H 0.18708 0.45929 0.22383 0.0
H948 H 0.89008 0.93303 0.63517 0.0
H949 H 0.8726 0.94517 0.59669 0.0
H950 H 0.94445 0.92635 0.56333 0.0
H951 H 0.96196 0.91351 0.60176 0.0
H952 H 0.89081 0.98019 0.56551 0.0
H953 H 0.89149 0.89011 0.52281 0.0
H954 H 0.89467 0.89435 0.55457 0.0
H955 H 0.92119 0.89984 0.53552 0.0
C956 C 0.90213 0.93119 0.61964 0.0
C957 C 0.92738 0.92208 0.62159 0.0
C958 C 0.89215 0.93833 0.59766 0.0
C959 C 0.9071 0.93643 0.57706 0.0
C960 C 0.93244 0.92766 0.57891 0.0
H961 H 0.84322 0.9641 0.4328 0.0
H962 H 0.87596 0.95728 0.46405 0.0
C963 C 0.94248 0.92054 0.60095 0.0
C964 C 0.89589 0.94373 0.55382 0.0
H965 H 0.87396 0.92173 0.50064 0.0
C966 C 0.88743 0.96746 0.55121 0.0
C967 C 0.89171 0.92719 0.53504 0.0
C968 C 0.90005 0.9014 0.53702 0.0
C969 C 0.87405 0.97487 0.53075 0.0
C970 C 0.86856 0.95804 0.51258 0.0
C971 C 0.87822 0.93461 0.51457 0.0
C972 C 0.84982 0.96356 0.49329 0.0
C973 C 0.86532 1.00058 0.52902 0.0
C974 C 0.82441 0.96923 0.49936 0.0
C975 C 0.8059 0.97293 0.48175 0.0
C976 C 0.81227 0.971 0.45756 0.0
C977 C 0.83782 0.96574 0.45131 0.0
C978 C 0.85646 0.96182 0.46911 0.0
H979 H 0.87773 0.01237 0.53985 0.0
H980 H 0.8653 1.00659 0.51031 0.0
H981 H 0.84553 1.00261 0.53593 0.0
H982 H 0.8187 0.97023 0.51783 0.0
H983 H 0.7864 0.97698 0.48716 0.0
H984 H 0.36387 0.57727 0.69197 0.0
H985 H 0.37366 0.60205 0.7269 0.0
H986 H 0.29359 0.62127 0.73384 0.0
H987 H 0.28362 0.59605 0.69929 0.0
H988 H 0.36532 0.64967 0.73973 0.0
H989 H 0.31046 0.59044 0.79745 0.0
H990 H 0.31848 0.58257 0.76715 0.0
H991 H 0.2922 0.60297 0.77332 0.0
C992 C 0.34841 0.58709 0.7007 0.0
C993 C 0.32294 0.58451 0.6931 0.0
C994 C 0.35402 0.60121 0.72068 0.0
C995 C 0.33427 0.61299 0.73334 0.0
C996 C 0.30904 0.61183 0.72471 0.0
H997 H 0.33061 0.69395 0.86633 0.0
H998 H 0.32019 0.6735 0.82894 0.0
C999 C 0.3034 0.59761 0.70483 0.0
C1000 C 0.33995 0.62542 0.75619 0.0
H1001 H 0.32728 0.62489 0.81571 0.0
C1002 C 0.35703 0.64426 0.75635 0.0
C1003 C 0.3292 0.61822 0.77789 0.0
C1004 C 0.31175 0.59731 0.7791 0.0
C1005 C 0.36336 0.65634 0.77757 0.0
C1006 C 0.35261 0.64914 0.79923 0.0
C1007 C 0.33545 0.63038 0.79906 0.0
C1008 C 0.35895 0.66083 0.82228 0.0
C1009 C 0.38119 0.67697 0.77659 0.0
C1010 C 0.38408 0.65993 0.83127 0.0
C1011 C 0.39007 0.6714 0.85276 0.0
C1012 C 0.37102 0.68395 0.86576 0.0
C1013 C 0.34571 0.68422 0.85698 0.0
C1014 C 0.33974 0.67271 0.83551 0.0
H1015 H 0.38278 0.68386 0.75827 0.0
H1016 H 0.37458 0.69174 0.78857 0.0
H1017 H 0.40057 0.67101 0.78256 0.0
H1018 H 0.39908 0.65036 0.82162 0.0
H1019 H 0.40966 0.67048 0.85919 0.0
H1020 H 0.63144 0.08987 0.13504 0.0
H1021 H 0.64839 0.07836 0.09608 0.0
H1022 H 0.5794 0.10552 0.06253 0.0
H1023 H 0.56252 0.11778 0.10154 0.0
H1024 H 0.62865 0.04749 0.06109 0.0
H1025 H 0.636 0.13952 0.02712 0.0
H1026 H 0.6313 0.13359 0.0582 0.0
H1027 H 0.6051 0.13122 0.03753 0.0
C1028 C 0.61991 0.09362 0.1194 0.0
C1029 C 0.5957 0.10502 0.1215 0.0
C1030 C 0.62956 0.08685 0.09711 0.0
C1031 C 0.61536 0.09136 0.0763 0.0
C1032 C 0.59092 0.10221 0.07828 0.0
H1033 H 0.67934 0.06781 0.93134 0.0
H1034 H 0.64684 0.07512 0.96247 0.0
C1035 C 0.58118 0.10898 0.10064 0.0
C1036 C 0.6265 0.08473 0.05273 0.0
H1037 H 0.65117 0.10828 1.00236 0.0
C1038 C 0.63327 0.06077 0.04813 0.0
C1039 C 0.63236 0.102 0.03566 0.0
C1040 C 0.62602 0.12806 0.03981 0.0
C1041 C 0.64653 0.05374 0.02742 0.0
C1042 C 0.65361 0.07116 0.011 0.0
C1043 C 0.64568 0.09494 0.01493 0.0
C1044 C 0.67217 0.06554 0.99164 0.0
C1045 C 0.65339 0.02774 0.02356 0.0
C1046 C 0.69708 0.05787 0.99769 0.0
C1047 C 0.71547 0.05391 0.98015 0.0
C1048 C 0.70951 0.05754 0.95605 0.0
C1049 C 0.68443 0.06482 0.94978 0.0
C1050 C 0.66593 0.06902 0.96752 0.0
H1051 H 0.64002 0.0162 0.03303 0.0
H1052 H 0.65318 0.02286 1.00435 0.0
H1053 H 0.67294 0.02407 0.03067 0.0
H1054 H 0.70252 0.05546 0.01614 0.0
H1055 H 0.73459 0.04827 0.98559 0.0
H1056 H 0.66071 0.1476 0.66458 0.0
H1057 H 0.67464 0.13031 0.70221 0.0
H1058 H 0.68048 0.20055 0.73329 0.0
H1059 H 0.66545 0.21803 0.69597 0.0
H1060 H 0.71938 0.1354 0.7269 0.0
H1061 H 0.63744 0.16759 0.78195 0.0
H1062 H 0.63697 0.16879 0.74992 0.0
H1063 H 0.65389 0.19065 0.76709 0.0
C1064 C 0.66448 0.15943 0.6795 0.0
C1065 C 0.66166 0.18427 0.67719 0.0
C1066 C 0.67272 0.14949 0.70098 0.0
C1067 C 0.67832 0.16407 0.72073 0.0
C1068 C 0.67584 0.18888 0.71847 0.0
H1069 H 0.75947 0.10493 0.84601 0.0
H1070 H 0.74828 0.12983 0.81181 0.0
C1071 C 0.6675 0.19886 0.69698 0.0
C1072 C 0.68703 0.15317 0.74349 0.0
H1073 H 0.67128 0.14741 0.80197 0.0
C1074 C 0.70894 0.13812 0.74335 0.0
C1075 C 0.67328 0.15654 0.76493 0.0
C1076 C 0.64896 0.17158 0.76606 0.0
C1077 C 0.71728 0.12616 0.7639 0.0
C1078 C 0.70364 0.12967 0.78537 0.0
C1079 C 0.68191 0.14494 0.78559 0.0
C1080 C 0.71023 0.11608 0.80721 0.0
C1081 C 0.74003 0.10913 0.76218 0.0
C1082 C 0.69228 0.10075 0.81661 0.0
C1083 C 0.69851 0.0867 0.83619 0.0
C1084 C 0.72288 0.08763 0.84697 0.0
C1085 C 0.74058 0.10365 0.8381 0.0
C1086 C 0.73428 0.11778 0.81843 0.0
H1087 H 0.74484 0.10455 0.74342 0.0
H1088 H 0.75694 0.11749 0.77053 0.0
H1089 H 0.73638 0.09244 0.77172 0.0
H1090 H 0.67357 0.09918 0.80837 0.0
H1091 H 0.68428 0.0747 0.84252 0.0
H1092 H 0.23391 0.47083 0.07784 0.0
H1093 H 0.20148 0.46134 0.04818 0.0
H1094 H 0.14658 0.45114 0.10368 0.0
H1095 H 0.17936 0.46097 0.13388 0.0
H1096 H 0.17766 0.41636 0.0472 0.0
H1097 H 0.10746 0.49253 0.05237 0.0
H1098 H 0.13997 0.49479 0.06319 0.0
H1099 H 0.11723 0.47857 0.07971 0.0
C1100 C 0.21487 0.46682 0.08383 0.0
C1101 C 0.20924 0.46635 0.1082 0.0
C1102 C 0.19634 0.46145 0.06681 0.0
C1103 C 0.17164 0.4555 0.07367 0.0
C1104 C 0.16549 0.45589 0.098 0.0
H1105 H 0.07506 0.37793 0.97288 0.0
H1106 H 0.09616 0.39171 0.00931 0.0
C1107 C 0.18419 0.4614 0.11521 0.0
C1108 C 0.15353 0.44702 0.05511 0.0
H1109 H 0.09959 0.4625 0.02355 0.0
C1110 C 0.16042 0.4263 0.0422 0.0
C1111 C 0.13125 0.46019 0.04848 0.0
C1112 C 0.12344 0.48285 0.06149 0.0
C1113 C 0.146 0.41862 0.02253 0.0
C1114 C 0.12375 0.4318 0.01576 0.0
C1115 C 0.11658 0.45237 0.02886 0.0
C1116 C 0.10846 0.42475 0.99453 0.0
C1117 C 0.15525 0.39693 0.0086 0.0
C1118 C 0.10766 0.43909 0.97431 0.0
C1119 C 0.09568 0.4312 0.95335 0.0
C1120 C 0.08425 0.40882 0.95224 0.0
C1121 C 0.08418 0.395 0.9729 0.0
C1122 C 0.09611 0.4029 0.99381 0.0
H1123 H 0.17543 0.39191 0.013 0.0
H1124 H 0.14315 0.38166 0.01282 0.0
H1125 H 0.15375 0.40002 0.98918 0.0
H1126 H 0.11711 0.45601 0.97448 0.0
H1127 H 0.09618 0.44226 0.93778 0.0
H1128 H 0.83854 0.95907 0.34203 0.0
H1129 H 0.85028 0.93499 0.30716 0.0
H1130 H 0.77836 0.89941 0.31031 0.0
H1131 H 0.76617 0.92373 0.34515 0.0
H1132 H 0.8554 0.88586 0.3005 0.0
H1133 H 0.77886 0.92396 0.24215 0.0
H1134 H 0.78722 0.93727 0.27047 0.0
H1135 H 0.76802 0.91124 0.26926 0.0
C1136 C 0.82517 0.94608 0.33544 0.0
C1137 C 0.80129 0.9435 0.34639 0.0
C1138 C 0.83197 0.93229 0.31546 0.0
C1139 C 0.81506 0.91566 0.30585 0.0
C1140 C 0.79152 0.91246 0.31712 0.0
H1141 H 0.82918 0.83019 0.17434 0.0
H1142 H 0.81473 0.84642 0.2128 0.0
C1143 C 0.78467 0.92628 0.33716 0.0
C1144 C 0.82216 0.90202 0.28388 0.0
H1145 H 0.80582 0.89401 0.22537 0.0
C1146 C 0.84449 0.88756 0.2841 0.0
C1147 C 0.80791 0.90421 0.26247 0.0
C1148 C 0.78428 0.92014 0.26087 0.0
C1149 C 0.85303 0.87536 0.26352 0.0
C1150 C 0.83912 0.878 0.24198 0.0
C1151 C 0.81646 0.89199 0.24188 0.0
C1152 C 0.84836 0.86729 0.21914 0.0
C1153 C 0.87683 0.85965 0.26507 0.0
C1154 C 0.872 0.87371 0.20983 0.0
C1155 C 0.88035 0.8644 0.18794 0.0
C1156 C 0.86518 0.84855 0.17473 0.0
C1157 C 0.84152 0.84209 0.18415 0.0
C1158 C 0.83315 0.85147 0.20606 0.0
H1159 H 0.88072 0.85395 0.28361 0.0
H1160 H 0.87517 0.84356 0.25351 0.0
H1161 H 0.8935 0.86973 0.25908 0.0
H1162 H 0.88387 0.88623 0.21934 0.0
H1163 H 0.89877 0.86962 0.18137 0.0
H1164 H 0.35405 0.52489 0.59131 0.0
H1165 H 0.3791 0.53501 0.55636 0.0
H1166 H 0.34097 0.60394 0.55446 0.0
H1167 H 0.31638 0.59428 0.58939 0.0
H1168 H 0.36214 0.54646 0.5116 0.0
H1169 H 0.41519 0.62167 0.55046 0.0
H1170 H 0.39828 0.60109 0.56853 0.0
H1171 H 0.38134 0.62551 0.55455 0.0
C1172 C 0.35119 0.54229 0.58357 0.0
C1173 C 0.3333 0.55882 0.59326 0.0
C1174 C 0.3655 0.54803 0.5636 0.0
C1175 C 0.36226 0.5704 0.55308 0.0
C1176 C 0.34432 0.58682 0.56265 0.0
H1177 H 0.39208 0.64081 0.42436 0.0
H1178 H 0.37653 0.62477 0.46153 0.0
C1179 C 0.33013 0.58117 0.58259 0.0
C1180 C 0.37659 0.57641 0.53141 0.0
H1181 H 0.41284 0.61965 0.50767 0.0
C1182 C 0.37361 0.56222 0.51084 0.0
C1183 C 0.39168 0.59692 0.53047 0.0
C1184 C 0.39705 0.61202 0.55226 0.0
C1185 C 0.38424 0.5687 0.48909 0.0
C1186 C 0.39811 0.58984 0.48796 0.0
C1187 C 0.40196 0.60353 0.50865 0.0
C1188 C 0.4075 0.59882 0.46518 0.0
C1189 C 0.37979 0.55353 0.46718 0.0
C1190 C 0.43008 0.58946 0.45502 0.0
C1191 C 0.43924 0.59877 0.43388 0.0
C1192 C 0.42593 0.6176 0.42257 0.0
C1193 C 0.40308 0.62663 0.43276 0.0
C1194 C 0.39405 0.6174 0.45391 0.0
H1195 H 0.36776 0.53803 0.47083 0.0
H1196 H 0.37034 0.56441 0.45316 0.0
H1197 H 0.39847 0.54691 0.46008 0.0
H1198 H 0.44076 0.57519 0.46362 0.0
H1199 H 0.45705 0.59159 0.42672 0.0
H1200 H 0.16471 0.23122 0.45767 0.0
H1201 H 0.19436 0.21958 0.42522 0.0
H1202 H 0.25845 0.22785 0.47307 0.0
H1203 H 0.22942 0.23933 0.50509 0.0
H1204 H 0.24159 0.24466 0.40685 0.0
H1205 H 0.26301 0.15705 0.44751 0.0
H1206 H 0.23458 0.17468 0.45452 0.0
H1207 H 0.26482 0.18198 0.46779 0.0
C1208 C 0.18514 0.2307 0.46112 0.0
C1209 C 0.19469 0.23586 0.48403 0.0
C1210 C 0.20204 0.22408 0.44261 0.0
C1211 C 0.22862 0.22247 0.44686 0.0
C1212 C 0.23805 0.2286 0.46945 0.0
H1213 H 0.37279 0.17957 0.38625 0.0
H1214 H 0.33644 0.1935 0.41026 0.0
C1215 C 0.22135 0.23519 0.48777 0.0
C1216 C 0.24692 0.21362 0.42836 0.0
H1217 H 0.29184 0.16948 0.41792 0.0
C1218 C 0.25231 0.22805 0.40897 0.0
C1219 C 0.26099 0.19199 0.43124 0.0
C1220 C 0.25547 0.17538 0.45127 0.0
C1221 C 0.27223 0.22191 0.39303 0.0
C1222 C 0.28687 0.20062 0.39641 0.0
C1223 C 0.28082 0.18587 0.41537 0.0
C1224 C 0.30914 0.19355 0.38113 0.0
C1225 C 0.27817 0.23877 0.37336 0.0
C1226 C 0.30605 0.18896 0.35667 0.0
C1227 C 0.32687 0.18089 0.34285 0.0
C1228 C 0.35125 0.17704 0.35321 0.0
C1229 C 0.3543 0.18201 0.37767 0.0
C1230 C 0.33351 0.19009 0.39143 0.0
H1231 H 0.26925 0.2567 0.37646 0.0
H1232 H 0.29916 0.24063 0.37153 0.0
H1233 H 0.27061 0.2316 0.35629 0.0
H1234 H 0.28737 0.19097 0.34835 0.0
H1235 H 0.32364 0.17688 0.32419 0.0
H1236 H 0.08975 0.12248 0.59256 0.0
H1237 H 0.07448 0.08615 0.6105 0.0
H1238 H 0.1316 0.092 0.66588 0.0
H1239 H 0.1461 0.12884 0.64887 0.0
H1240 H 0.09894 0.04357 0.61881 0.0
H1241 H 0.06759 0.08452 0.70425 0.0
H1242 H 0.07552 0.10203 0.67888 0.0
H1243 H 0.10043 0.09017 0.69793 0.0
C1244 C 0.09883 0.11626 0.60877 0.0
C1245 C 0.1191 0.12876 0.6193 0.0
C1246 C 0.0902 0.09536 0.61889 0.0
C1247 C 0.10158 0.08655 0.63978 0.0
C1248 C 0.12211 0.09871 0.65007 0.0
H1249 H 0.09106 0.96416 0.72861 0.0
H1250 H 0.10345 0.99921 0.70685 0.0
C1251 C 0.13064 0.11965 0.64007 0.0
C1252 C 0.09233 0.06448 0.6507 0.0
H1253 H 0.071 0.04208 0.70284 0.0
C1254 C 0.09259 0.04328 0.63711 0.0
C1255 C 0.08389 0.06412 0.67455 0.0
C1256 C 0.08157 0.08648 0.68967 0.0
C1257 C 0.08548 0.02162 0.64699 0.0
C1258 C 0.07781 0.02121 0.67101 0.0
C1259 C 0.0771 0.04244 0.68446 0.0
C1260 C 0.07095 0.99889 0.68283 0.0
C1261 C 0.08691 0.9992 0.63193 0.0
C1262 C 0.04861 0.98696 0.67642 0.0
C1263 C 0.04136 0.96689 0.6889 0.0
C1264 C 0.05635 0.95839 0.70804 0.0
C1265 C 0.07904 0.97012 0.71398 0.0
C1266 C 0.08617 0.99021 0.70159 0.0
H1267 H 0.09739 1.00177 0.6151 0.0
H1268 H 0.0965 0.98454 0.64191 0.0
H1269 H 0.06723 0.99362 0.62741 0.0
H1270 H 0.03643 0.99355 0.66216 0.0
H1271 H 0.02375 0.95835 0.68385 0.0
H1272 H 0.19567 0.85235 0.82736 0.0
H1273 H 0.22939 0.83641 0.85364 0.0
H1274 H 0.18706 0.86199 0.91479 0.0
H1275 H 0.15305 0.87742 0.88875 0.0
H1276 H 0.25884 0.86235 0.88632 0.0
H1277 H 0.20496 0.79303 0.9319 0.0
H1278 H 0.19382 0.80649 0.90465 0.0
H1279 H 0.18925 0.82181 0.93267 0.0
C1280 C 0.19331 0.85419 0.84642 0.0
C1281 C 0.17161 0.86614 0.85594 0.0
C1282 C 0.21268 0.84521 0.8614 0.0
C1283 C 0.21062 0.84776 0.88619 0.0
C1284 C 0.18888 0.85945 0.89574 0.0
H1285 H 0.30174 0.82405 0.01182 0.0
H1286 H 0.26926 0.83384 0.98168 0.0
C1287 C 0.16957 0.86849 0.88081 0.0
C1288 C 0.2317 0.8393 0.90209 0.0
H1289 H 0.24482 0.80368 0.94954 0.0
C1290 C 0.2559 0.84931 0.89997 0.0
C1291 C 0.22782 0.8223 0.91989 0.0
C1292 C 0.20263 0.81009 0.92233 0.0
C1293 C 0.27601 0.8435 0.91578 0.0
C1294 C 0.27194 0.82688 0.93392 0.0
C1295 C 0.24791 0.81646 0.93568 0.0
C1296 C 0.29194 0.82083 0.95195 0.0
C1297 C 0.30111 0.85589 0.91349 0.0
C1298 C 0.31551 0.8102 0.9453 0.0
C1299 C 0.33416 0.80469 0.96255 0.0
C1300 C 0.3294 0.80942 0.98671 0.0
C1301 C 0.30587 0.82011 0.99331 0.0
C1302 C 0.28727 0.82563 0.97612 0.0
H1303 H 0.29919 0.87202 0.90239 0.0
H1304 H 0.30874 0.86114 0.93123 0.0
H1305 H 0.3153 0.84355 0.90493 0.0
H1306 H 0.31949 0.80613 0.92679 0.0
H1307 H 0.35243 0.79723 0.95695 0.0
H1308 H 0.43278 0.07392 0.22254 0.0
H1309 H 0.42221 0.03826 0.19963 0.0
H1310 H 0.49596 0.03867 0.16588 0.0
H1311 H 0.50692 0.07437 0.18893 0.0
H1312 H 0.42088 0.02907 0.14955 0.0
H1313 H 0.49344 0.97223 0.19624 0.0
H1314 H 0.48354 1.0013 0.20735 0.0
H1315 H 0.50523 0.99854 0.18281 0.0
C1316 C 0.44676 0.06659 0.21016 0.0
C1317 C 0.47082 0.07695 0.20777 0.0
C1318 C 0.44063 0.04619 0.19703 0.0
C1319 C 0.45843 0.03562 0.18134 0.0
C1320 C 0.48211 0.04635 0.17821 0.0
H1321 H 0.45507 0.89937 0.10504 0.0
H1322 H 0.46684 0.93851 0.12063 0.0
C1323 C 0.48827 0.06683 0.19131 0.0
C1324 C 0.45233 0.01296 0.16892 0.0
H1325 H 0.46905 0.95387 0.16614 0.0
C1326 C 0.43146 0.01262 0.15307 0.0
C1327 C 0.46616 0.99155 0.17358 0.0
C1328 C 0.48823 0.99073 0.19105 0.0
C1329 C 0.42408 0.99144 0.14167 0.0
C1330 C 0.43758 0.96991 0.1467 0.0
C1331 C 0.4587 0.97035 0.16229 0.0
C1332 C 0.42992 0.94661 0.13639 0.0
C1333 C 0.4021 0.99242 0.12411 0.0
C1334 C 0.4053 0.93804 0.14019 0.0
C1335 C 0.3985 0.91571 0.13121 0.0
C1336 C 0.41632 0.90134 0.11859 0.0
C1337 C 0.44099 0.90992 0.1149 0.0
C1338 C 0.44771 0.93232 0.12371 0.0
H1339 H 0.39916 0.01057 0.11688 0.0
H1340 H 0.40532 0.9797 0.10906 0.0
H1341 H 0.38425 0.98765 0.13324 0.0
H1342 H 0.39147 0.94841 0.15049 0.0
H1343 H 0.37949 0.90944 0.13465 0.0
H1344 H 0.89616 0.36893 0.65674 0.0
H1345 H 0.8594 0.35442 0.634 0.0
H1346 H 0.81432 0.35535 0.69791 0.0
H1347 H 0.8509 0.36985 0.72072 0.0
H1348 H 0.83131 0.31361 0.63924 0.0
H1349 H 0.77002 0.3948 0.65226 0.0
H1350 H 0.8039 0.3941 0.6588 0.0
H1351 H 0.78175 0.38212 0.67947 0.0
C1352 C 0.87846 0.36589 0.66596 0.0
C1353 C 0.87635 0.37072 0.69048 0.0
C1354 C 0.85747 0.3577 0.65294 0.0
C1355 C 0.83402 0.35423 0.6642 0.0
C1356 C 0.83205 0.35848 0.68877 0.0
H1357 H 0.70555 0.27462 0.609 0.0
H1358 H 0.74255 0.28861 0.63154 0.0
C1359 C 0.85297 0.36674 0.70177 0.0
C1360 C 0.81166 0.34601 0.65029 0.0
H1361 H 0.7501 0.36115 0.63492 0.0
C1362 C 0.81357 0.32401 0.63822 0.0
C1363 C 0.78867 0.35978 0.64876 0.0
C1364 C 0.78595 0.38412 0.66031 0.0
C1365 C 0.79292 0.31521 0.62494 0.0
C1366 C 0.76965 0.32862 0.62408 0.0
C1367 C 0.76788 0.35079 0.63584 0.0
C1368 C 0.74703 0.32021 0.61066 0.0
C1369 C 0.79634 0.29184 0.61163 0.0
C1370 C 0.73684 0.33369 0.5919 0.0
C1371 C 0.71557 0.32586 0.57909 0.0
C1372 C 0.70402 0.30441 0.58486 0.0
C1373 C 0.71406 0.29113 0.60395 0.0
C1374 C 0.73531 0.29902 0.61678 0.0
H1375 H 0.81689 0.28695 0.60911 0.0
H1376 H 0.78753 0.27756 0.62191 0.0
H1377 H 0.78683 0.29255 0.59392 0.0
H1378 H 0.74552 0.35018 0.587 0.0
H1379 H 0.70834 0.33658 0.56455 0.0
H1380 H 0.92964 0.44059 0.84058 0.0
H1381 H 0.92292 0.47651 0.86507 0.0
H1382 H 1.00409 0.47884 0.87909 0.0
H1383 H 0.01099 0.44327 0.85392 0.0
H1384 H 0.93241 0.48822 0.91095 0.0
H1385 H 0.98988 0.54417 0.85228 0.0
H1386 H 0.98085 0.51444 0.84394 0.0
H1387 H 0.00727 0.51898 0.86404 0.0
C1388 C 0.94605 0.44864 0.84902 0.0
C1389 C 0.97087 0.43922 0.84514 0.0
C1390 C 0.94219 0.4692 0.86304 0.0
C1391 C 0.96304 0.48077 0.87352 0.0
C1392 C 0.98775 0.47065 0.87069 0.0
H1393 H 0.93954 0.59719 0.97805 0.0
H1394 H 0.95273 0.55967 0.95868 0.0
C1395 C 0.99165 0.45016 0.85651 0.0
C1396 C 0.95879 0.50368 0.88681 0.0
H1397 H 0.9738 0.56254 0.88737 0.0
C1398 C 0.94155 0.50445 0.90586 0.0
C1399 C 0.97039 0.52499 0.87995 0.0
C1400 C 0.98794 0.52576 0.8588 0.0
C1401 C 0.9355 0.52585 0.91812 0.0
C1402 C 0.94749 0.54706 0.91156 0.0
C1403 C 0.96481 0.54627 0.89258 0.0
C1404 C 0.9413 0.57046 0.92331 0.0
C1405 C 0.91562 0.52565 0.93743 0.0
C1406 C 0.93161 0.58951 0.90979 0.0
C1407 C 0.92452 0.61119 0.92075 0.0
C1408 C 0.92692 0.61439 0.94555 0.0
C1409 C 0.93752 0.59553 0.95893 0.0
C1410 C 0.94473 0.57387 0.94791 0.0
H1411 H 0.90359 0.50968 0.93601 0.0
H1412 H 0.92535 0.52538 0.95503 0.0
H1413 H 0.90292 0.54177 0.93674 0.0
H1414 H 0.92902 0.58744 0.89075 0.0
H1415 H 0.91694 0.6254 0.90977 0.0
H1416 H 0.83588 0.76272 0.11187 0.0
H1417 H 0.80109 0.75129 0.138 0.0
H1418 H 0.78515 0.69182 0.09138 0.0
H1419 H 0.81997 0.70268 0.06556 0.0
H1420 H 0.7494 0.74706 0.12854 0.0
H1421 H 0.79134 0.66001 0.15527 0.0
H1422 H 0.8098 0.68216 0.14075 0.0
H1423 H 0.78952 0.66286 0.12359 0.0
C1424 C 0.82511 0.74709 0.10728 0.0
C1425 C 0.83096 0.7335 0.0867 0.0
C1426 C 0.80519 0.74062 0.12222 0.0
C1427 C 0.79082 0.72043 0.1169 0.0
C1428 C 0.79638 0.7071 0.0962 0.0
H1429 H 0.65888 0.64872 0.16566 0.0
H1430 H 0.69455 0.66511 0.144 0.0
C1431 C 0.81629 0.71345 0.08137 0.0
C1432 C 0.76957 0.71344 0.13251 0.0
H1433 H 0.74661 0.66635 0.16265 0.0
C1434 C 0.74891 0.72953 0.13627 0.0
C1435 C 0.769 0.69059 0.14268 0.0
C1436 C 0.79123 0.67301 0.14059 0.0
C1437 C 0.72723 0.72299 0.14907 0.0
C1438 C 0.72633 0.69985 0.15844 0.0
C1439 C 0.74726 0.68402 0.15524 0.0
C1440 C 0.70361 0.69133 0.1711 0.0
C1441 C 0.70508 0.74053 0.1518 0.0
C1442 C 0.69676 0.70078 0.19347 0.0
C1443 C 0.67647 0.69129 0.20604 0.0
C1444 C 0.66272 0.67213 0.19647 0.0
C1445 C 0.66928 0.66319 0.17374 0.0
C1446 C 0.68959 0.67262 0.16127 0.0
H1447 H 0.70689 0.7561 0.14007 0.0
H1448 H 0.68671 0.73181 0.14769 0.0
H1449 H 0.7043 0.74709 0.17049 0.0
H1450 H 0.70759 0.715 0.20152 0.0
H1451 H 0.67219 0.6984 0.2236 0.0
H1452 H 0.59794 0.4051 0.41858 0.0
H1453 H 0.58443 0.44143 0.39807 0.0
H1454 H 0.57856 0.47882 0.46538 0.0
H1455 H 0.59286 0.44279 0.486 0.0
H1456 H 0.54038 0.4704 0.40145 0.0
H1457 H 0.62682 0.52005 0.42786 0.0
H1458 H 0.62473 0.48831 0.43127 0.0
H1459 H 0.60934 0.50835 0.45222 0.0
C1460 C 0.59389 0.42106 0.42906 0.0
C1461 C 0.59675 0.42099 0.45398 0.0
C1462 C 0.58599 0.4418 0.41729 0.0
C1463 C 0.58088 0.46299 0.43013 0.0
C1464 C 0.58283 0.46281 0.45505 0.0
H1465 H 0.50976 0.59067 0.36516 0.0
H1466 H 0.51838 0.55655 0.3909 0.0
C1467 C 0.59073 0.44208 0.46684 0.0
C1468 C 0.57406 0.48532 0.41733 0.0
H1469 H 0.59469 0.54134 0.40668 0.0
C1470 C 0.55217 0.48596 0.40267 0.0
C1471 C 0.58964 0.50553 0.41868 0.0
C1472 C 0.61408 0.50558 0.43317 0.0
C1473 C 0.54548 0.5062 0.38931 0.0
C1474 C 0.56088 0.52652 0.39092 0.0
C1475 C 0.58272 0.52588 0.40564 0.0
C1476 C 0.55574 0.548 0.37623 0.0
C1477 C 0.52246 0.50533 0.37298 0.0
C1478 C 0.57418 0.55513 0.35999 0.0
C1479 C 0.56942 0.57471 0.34543 0.0
C1480 C 0.54609 0.58776 0.34677 0.0
C1481 C 0.52789 0.58101 0.36354 0.0
C1482 C 0.5327 0.56136 0.37816 0.0
H1483 H 0.51624 0.48681 0.3697 0.0
H1484 H 0.5063 0.51554 0.38124 0.0
H1485 H 0.5266 0.51348 0.35562 0.0
H1486 H 0.59214 0.54521 0.35823 0.0
H1487 H 0.58396 0.57932 0.33282 0.0
H1488 H 0.37148 0.36432 0.21172 0.0
H1489 H 0.387 0.32434 0.22195 0.0
H1490 H 0.32816 0.29387 0.17779 0.0
H1491 H 0.31281 0.3339 0.16701 0.0
H1492 H 0.36181 0.28433 0.24244 0.0
H1493 H 0.39645 0.26636 0.15025 0.0
H1494 H 0.38795 0.29598 0.16079 0.0
H1495 H 0.36336 0.27533 0.15358 0.0
C1496 C 0.36182 0.34913 0.20416 0.0
C1497 C 0.3411 0.35232 0.18831 0.0
C1498 C 0.37057 0.32629 0.2102 0.0
C1499 C 0.3589 0.30614 0.20045 0.0
C1500 C 0.33759 0.30919 0.18533 0.0
H1501 H 0.42613 0.16199 0.23119 0.0
H1502 H 0.39196 0.19223 0.2236 0.0
C1503 C 0.32875 0.33208 0.17933 0.0
C1504 C 0.37027 0.28216 0.20505 0.0
H1505 H 0.40685 0.23791 0.17898 0.0
C1506 C 0.37118 0.27389 0.22849 0.0
C1507 C 0.3826 0.26864 0.18682 0.0
C1508 C 0.38279 0.27697 0.16144 0.0
C1509 C 0.385 0.25295 0.23431 0.0
C1510 C 0.39825 0.24011 0.21626 0.0
C1511 C 0.39636 0.24772 0.19268 0.0
C1512 C 0.41783 0.22156 0.22204 0.0
C1513 C 0.38672 0.24532 0.25986 0.0
C1514 C 0.4434 0.22818 0.22381 0.0
C1515 C 0.46267 0.2112 0.22813 0.0
C1516 C 0.45684 0.18712 0.23068 0.0
C1517 C 0.43112 0.18042 0.22928 0.0
C1518 C 0.41167 0.19761 0.22495 0.0
H1519 H 0.37379 0.25615 0.27157 0.0
H1520 H 0.38178 0.2263 0.26118 0.0
H1521 H 0.4067 0.24706 0.2664 0.0
H1522 H 0.44849 0.24658 0.22163 0.0
H1523 H 0.48225 0.21698 0.22923 0.0
H1524 H 0.96028 0.33179 0.85909 0.0
H1525 H 0.93606 0.29663 0.86828 0.0
H1526 H 0.90617 0.29468 0.79663 0.0
H1527 H 0.93014 0.33022 0.78729 0.0
H1528 H 0.8694 0.28484 0.83102 0.0
H1529 H 0.9581 0.23025 0.84435 0.0
H1530 H 0.95679 0.25676 0.86255 0.0
H1531 H 0.95811 0.25909 0.83072 0.0
C1532 C 0.94843 0.32404 0.84528 0.0
C1533 C 0.9474 0.33371 0.82235 0.0
C1534 C 0.93468 0.30384 0.85055 0.0
C1535 C 0.91978 0.2927 0.833 0.0
C1536 C 0.91773 0.30289 0.8104 0.0
H1537 H 0.87214 0.14605 0.84484 0.0
H1538 H 0.89011 0.18326 0.83153 0.0
C1539 C 0.93143 0.32322 0.8051 0.0
C1540 C 0.90704 0.27004 0.83813 0.0
H1541 H 0.91925 0.21318 0.85634 0.0
C1542 C 0.88027 0.26911 0.83644 0.0
C1543 C 0.92128 0.2494 0.84478 0.0
C1544 C 0.95017 0.24877 0.84549 0.0
C1545 C 0.86731 0.24827 0.84186 0.0
C1546 C 0.8815 0.22797 0.84957 0.0
C1547 C 0.90832 0.22877 0.85066 0.0
C1548 C 0.86911 0.20565 0.85668 0.0
C1549 C 0.8386 0.24814 0.83895 0.0
C1550 C 0.8513 0.20578 0.87526 0.0
C1551 C 0.84092 0.18451 0.88284 0.0
C1552 C 0.84843 0.16262 0.87223 0.0
C1553 C 0.86615 0.16257 0.85354 0.0
C1554 C 0.87636 0.18384 0.84585 0.0
H1555 H 0.83167 0.26198 0.82637 0.0
H1556 H 0.83213 0.23053 0.83243 0.0
H1557 H 0.82956 0.252 0.85642 0.0
H1558 H 0.8459 0.22225 0.88434 0.0
H1559 H 0.82762 0.18512 0.89752 0.0
H1560 H 0.07814 0.55682 0.11746 0.0
H1561 H 0.04218 0.58003 0.10065 0.0
H1562 H 0.08972 0.64135 0.0971 0.0
H1563 H 0.12584 0.61819 0.1134 0.0
H1564 H 0.01971 0.6216 0.12055 0.0
H1565 H 0.05691 0.63859 0.03068 0.0
H1566 H 0.07032 0.61563 0.04952 0.0
H1567 H 0.07899 0.64613 0.05404 0.0
C1568 C 0.08109 0.57511 0.11265 0.0
C1569 C 0.10492 0.58562 0.11672 0.0
C1570 C 0.06046 0.58839 0.10319 0.0
C1571 C 0.06333 0.61234 0.09733 0.0
C1572 C 0.08717 0.62278 0.10108 0.0
H1573 H 0.98095 0.73814 0.06269 0.0
H1574 H 0.01083 0.70509 0.07028 0.0
C1575 C 0.10774 0.60958 0.11063 0.0
C1576 C 0.04113 0.62692 0.08864 0.0
H1577 H 0.02194 0.6638 0.04386 0.0
C1578 C 0.01994 0.63053 0.10361 0.0
C1579 C 0.04144 0.63846 0.06649 0.0
C1580 C 0.06302 0.63435 0.04913 0.0
C1581 C 0.99978 0.64646 0.09764 0.0
C1582 C 1.00064 0.6588 0.07593 0.0
C1583 C 0.02129 0.65436 0.06051 0.0
C1584 C 0.98192 0.67826 0.0701 0.0
C1585 C 0.97846 0.65097 0.11521 0.0
C1586 C 0.95564 0.67416 0.06705 0.0
C1587 C 0.93835 0.6932 0.06277 0.0
C1588 C 0.94716 0.71654 0.06141 0.0
C1589 C 0.97352 0.72039 0.0638 0.0
C1590 C 0.99067 0.70149 0.06806 0.0
H1591 H 0.98294 0.64317 0.13283 0.0
H1592 H 0.97459 0.67037 0.11766 0.0
H1593 H 0.96071 0.64288 0.10827 0.0
H1594 H 0.94851 0.65631 0.06814 0.0
H1595 H 0.91815 0.68973 0.06088 0.0
H1596 H 0.65197 0.87379 0.3455 0.0
H1597 H 0.63437 0.83593 0.33218 0.0
H1598 H 0.6857 0.79836 0.3798 0.0
H1599 H 0.7032 0.83623 0.39342 0.0
H1600 H 0.6559 0.79627 0.31094 0.0
H1601 H 0.61739 0.7732 0.39922 0.0
H1602 H 0.62904 0.80234 0.39301 0.0
H1603 H 0.65118 0.77809 0.39894 0.0
C1604 C 0.65969 0.85747 0.35301 0.0
C1605 C 0.6789 0.8581 0.37067 0.0
C1606 C 0.64954 0.83581 0.34542 0.0
C1607 C 0.65834 0.81425 0.35527 0.0
C1608 C 0.67808 0.81475 0.37237 0.0
H1609 H 0.59256 0.67225 0.33035 0.0
H1610 H 0.62438 0.70253 0.34041 0.0
C1611 C 0.68812 0.83643 0.3801 0.0
C1612 C 0.64653 0.79145 0.34774 0.0
H1613 H 0.61166 0.74538 0.36803 0.0
C1614 C 0.6464 0.78508 0.32348 0.0
C1615 C 0.63419 0.77669 0.36408 0.0
C1616 C 0.63269 0.78295 0.39023 0.0
C1617 C 0.63384 0.76475 0.31507 0.0
C1618 C 0.62085 0.75046 0.33129 0.0
C1619 C 0.6218 0.75626 0.35564 0.0
C1620 C 0.60357 0.73132 0.32314 0.0
C1621 C 0.63422 0.75889 0.28881 0.0
C1622 C 0.58153 0.73741 0.30998 0.0
C1623 C 0.56341 0.72034 0.30449 0.0
C1624 C 0.56691 0.69674 0.31194 0.0
C1625 C 0.58948 0.69029 0.32428 0.0
C1626 C 0.60757 0.70756 0.33008 0.0
H1627 H 0.65076 0.76694 0.27996 0.0
H1628 H 0.63507 0.73935 0.28559 0.0
H1629 H 0.61644 0.76614 0.28042 0.0
H1630 H 0.5778 0.75564 0.30475 0.0
H1631 H 0.5462 0.72582 0.29495 0.0
H1632 H 0.60002 0.31811 0.61513 0.0
H1633 H 0.56643 0.34744 0.62575 0.0
H1634 H 0.54947 0.35797 0.55142 0.0
H1635 H 0.58284 0.32831 0.54068 0.0
H1636 H 0.55774 0.39554 0.61394 0.0
H1637 H 0.48079 0.33794 0.57882 0.0
H1638 H 0.51319 0.32701 0.58346 0.0
H1639 H 0.50529 0.3446 0.55791 0.0
C1640 C 0.58928 0.32682 0.60105 0.0
C1641 C 0.59378 0.32073 0.5771 0.0
C1642 C 0.57012 0.34359 0.60714 0.0
C1643 C 0.55514 0.35453 0.5894 0.0
C1644 C 0.56046 0.34935 0.5654 0.0
H1645 H 0.41761 0.4453 0.60086 0.0
H1646 H 0.4558 0.42381 0.58619 0.0
C1647 C 0.57959 0.33252 0.55929 0.0
C1648 C 0.5333 0.37054 0.59619 0.0
H1649 H 0.46804 0.37555 0.59432 0.0
C1650 C 0.53813 0.39124 0.60959 0.0
C1651 C 0.50772 0.36483 0.59054 0.0
C1652 C 0.50129 0.3423 0.57707 0.0
C1653 C 0.51803 0.40641 0.61747 0.0
C1654 C 0.49247 0.40051 0.61209 0.0
C1655 C 0.48767 0.38004 0.59837 0.0
C1656 C 0.47031 0.41488 0.62113 0.0
C1657 C 0.52431 0.42871 0.63134 0.0
C1658 C 0.46578 0.41693 0.64565 0.0
C1659 C 0.44399 0.42922 0.6541 0.0
C1660 C 0.42629 0.43967 0.63817 0.0
C1661 C 0.43105 0.43777 0.61361 0.0
C1662 C 0.45278 0.42539 0.60519 0.0
H1663 H 0.54444 0.43388 0.62859 0.0
H1664 H 0.51136 0.44377 0.62621 0.0
H1665 H 0.52176 0.42554 0.65059 0.0
H1666 H 0.47883 0.40859 0.65825 0.0
H1667 H 0.44095 0.43047 0.67311 0.0
H1668 H 0.21835 0.69725 0.69279 0.0
H1669 H 0.19721 0.73438 0.7062 0.0
H1670 H 0.12409 0.70709 0.68478 0.0
H1671 H 0.14488 0.66962 0.67225 0.0
H1672 H 0.16991 0.76616 0.67978 0.0
H1673 H 0.10847 0.73252 0.7508 0.0
H1674 H 0.13445 0.71492 0.73807 0.0
H1675 H 0.10394 0.71698 0.72305 0.0
C1676 C 0.1977 0.69891 0.69143 0.0
C1677 C 0.18333 0.68035 0.68147 0.0
C1678 C 0.18567 0.72025 0.69893 0.0
C1679 C 0.15901 0.72347 0.69678 0.0
C1680 C 0.14461 0.70491 0.68707 0.0
H1681 H 0.06759 0.85272 0.68592 0.0
H1682 H 0.09564 0.81777 0.67921 0.0
C1683 C 0.15659 0.68356 0.67964 0.0
C1684 C 0.14638 0.74662 0.70348 0.0
H1685 H 0.09767 0.77142 0.73642 0.0
C1686 C 0.15429 0.76735 0.69236 0.0
C1687 C 0.12626 0.74829 0.72016 0.0
C1688 C 0.11795 0.72703 0.73389 0.0
C1689 C 0.14203 0.78952 0.69682 0.0
C1690 C 0.12093 0.79093 0.71246 0.0
C1691 C 0.11365 0.77035 0.72423 0.0
C1692 C 0.1056 0.81332 0.71636 0.0
C1693 C 0.1519 0.81121 0.6848 0.0
C1694 C 0.10161 0.82241 0.73948 0.0
C1695 C 0.08533 0.84223 0.74337 0.0
C1696 C 0.07267 0.85332 0.7242 0.0
C1697 C 0.07722 0.84464 0.70102 0.0
C1698 C 0.09338 0.82473 0.69715 0.0
H1699 H 0.17237 0.80873 0.67991 0.0
H1700 H 0.14081 0.81432 0.66818 0.0
H1701 H 0.14984 0.8273 0.69639 0.0
H1702 H 0.11074 0.81389 0.75459 0.0
H1703 H 0.08214 0.84851 0.76144 0.0
H1704 H 0.45001 0.80854 0.95923 0.0
H1705 H 0.48457 0.83453 0.9486 0.0
H1706 H 0.46757 0.87968 0.00944 0.0
H1707 H 0.4333 0.85337 0.02066 0.0
H1708 H 0.4855 0.88096 0.93751 0.0
H1709 H 0.54296 0.86526 0.01954 0.0
H1710 H 0.51571 0.84769 0.01164 0.0
H1711 H 0.51114 0.87679 0.0249 0.0
C1712 C 0.45345 0.82406 0.97033 0.0
C1713 C 0.43895 0.82872 0.99094 0.0
C1714 C 0.47329 0.8389 0.96422 0.0
C1715 C 0.47906 0.85876 0.97851 0.0
C1716 C 0.46394 0.86408 0.99852 0.0
H1717 H 0.59483 0.96617 0.95875 0.0
H1718 H 0.55879 0.94376 0.97348 0.0
C1719 C 0.44419 0.84911 1.00479 0.0
C1720 C 0.50098 0.87371 0.97233 0.0
H1721 H 0.55859 0.89344 0.99277 0.0
C1722 C 0.50144 0.8837 0.94962 0.0
C1723 C 0.52184 0.87724 0.98814 0.0
C1724 C 0.5231 0.86602 0.01233 0.0
C1725 C 0.52219 0.89703 0.94226 0.0
C1726 C 0.54306 0.90038 0.95798 0.0
C1727 C 0.54247 0.89083 0.98083 0.0
C1728 C 0.566 0.91313 0.95056 0.0
C1729 C 0.5217 0.90747 0.91771 0.0
C1730 C 0.58236 0.90296 0.93335 0.0
C1731 C 0.60309 0.91555 0.9251 0.0
C1732 C 0.60782 0.93863 0.93383 0.0
C1733 C 0.59191 0.94838 0.95178 0.0
C1734 C 0.57121 0.93569 0.96012 0.0
H1735 H 0.50225 0.90732 0.9096 0.0
H1736 H 0.5284 0.92605 0.91829 0.0
H1737 H 0.53484 0.89686 0.90604 0.0
H1738 H 0.57884 0.88539 0.92605 0.0
H1739 H 0.61525 0.90731 0.91163 0.0
H1740 H 0.91713 0.07345 0.4789 0.0
H1741 H 0.95184 0.09772 0.4947 0.0
H1742 H 0.94875 0.14016 0.43156 0.0
H1743 H 0.91443 0.11593 0.41551 0.0
H1744 H 1.00026 0.10565 0.47548 0.0
H1745 H 0.94457 0.19046 0.48473 0.0
H1746 H 0.92952 0.16215 0.4805 0.0
H1747 H 0.94244 0.17728 0.45553 0.0
C1748 C 0.92384 0.08792 0.46832 0.0
C1749 C 0.91271 0.09277 0.44595 0.0
C1750 C 0.94365 0.10184 0.47745 0.0
C1751 C 0.95267 0.12104 0.46452 0.0
C1752 C 0.94174 0.12584 0.44217 0.0
H1753 H 0.0695 0.22526 0.47194 0.0
H1754 H 0.03457 0.19881 0.46247 0.0
C1755 C 0.922 0.11194 0.43302 0.0
C1756 C 0.97396 0.13571 0.47398 0.0
H1757 H 0.98998 0.19296 0.48737 0.0
C1758 C 0.99796 0.1247 0.47835 0.0
C1759 C 0.97098 0.16057 0.47779 0.0
C1760 C 0.94543 0.17331 0.47463 0.0
C1761 C 0.01928 0.13801 0.48543 0.0
C1762 C 0.01643 0.16297 0.48862 0.0
C1763 C 0.99225 0.17385 0.48484 0.0
C1764 C 0.03845 0.1784 0.49462 0.0
C1765 C 0.04488 0.12536 0.4885 0.0
C1766 C 0.05242 0.17584 0.51595 0.0
C1767 C 0.07264 0.19101 0.52147 0.0
C1768 C 0.07918 0.20915 0.50582 0.0
C1769 C 0.06513 0.21155 0.48448 0.0
C1770 C 0.04504 0.19642 0.479 0.0
H1771 H 0.04511 0.10726 0.48029 0.0
H1772 H 0.06037 0.13569 0.48052 0.0
H1773 H 0.04914 0.12354 0.50775 0.0
H1774 H 0.04744 0.16236 0.52852 0.0
H1775 H 0.0829 0.18871 0.53812 0.0
loop_
_geom_bond_atom_site_label_1
_geom_bond_atom_site_label_2
_geom_bond_distance
_geom_bond_site_symmetry_2
_ccdc_geom_bond_type
C0 Eu1 2.835 . S
C0 C2 1.500 . S
C0 O20 1.257 . S
C0 O21 1.260 . S
Eu1 C0 2.835 . S
Eu1 O20 2.473 . S
Eu1 O21 2.480 . S
Eu1 O22 2.430 . S
Eu1 O23 2.670 . S
Eu1 O24 2.394 . S
Eu1 O29 2.355 . S
Eu1 O31 2.374 . S
C2 C0 1.500 . S
C2 C3 1.377 . S
C2 C7 1.377 . S
C3 C2 1.377 . S
C3 C4 1.395 . S
C3 H32 0.931 . S
C4 C3 1.395 . S
C4 C5 1.383 . S
C4 H33 0.931 . S
C5 C4 1.383 . S
C5 C6 1.394 . S
C6 C5 1.394 . S
C6 C7 1.378 . S
C6 H34 0.931 . S
C7 C2 1.377 . S
C7 C6 1.378 . S
C7 H35 0.931 . S
C8 O22 1.259 . S
C8 O23 1.270 . S
C9 O24 1.251 . S
C9 O25 1.251 . S
C10 Eu11 2.835 . S
C10 C12 1.500 . S
C10 O26 1.257 . S
C10 O27 1.260 . S
Eu11 C10 2.835 . S
Eu11 O23 2.355 . S
Eu11 O25 2.374 . S
Eu11 O26 2.473 . S
Eu11 O27 2.480 . S
Eu11 O28 2.430 . S
Eu11 O29 2.670 . S
Eu11 O30 2.394 . S
C12 C10 1.500 . S
C12 C13 1.377 . S
C12 C17 1.377 . S
C13 C12 1.377 . S
C13 C14 1.395 . S
C13 H36 0.931 . S
C14 C13 1.395 . S
C14 C15 1.383 . S
C14 H37 0.931 . S
C15 C14 1.383 . S
C15 C16 1.394 . S
C16 C15 1.394 . S
C16 C17 1.378 . S
C16 H38 0.931 . S
C17 C12 1.377 . S
C17 C16 1.378 . S
C17 H39 0.931 . S
C18 O28 1.259 . S
C18 O29 1.270 . S
C19 O30 1.251 . S
C19 O31 1.251 . S
O20 C0 1.257 . S
O20 Eu1 2.473 . S
O21 C0 1.260 . S
O21 Eu1 2.480 . S
O22 Eu1 2.430 . S
O22 C8 1.259 . S
O23 Eu1 2.670 . S
O23 C8 1.270 . S
O23 Eu11 2.355 . S
O24 Eu1 2.394 . S
O24 C9 1.251 . S
O25 C9 1.251 . S
O25 Eu11 2.374 . S
O26 C10 1.257 . S
O26 Eu11 2.473 . S
O27 C10 1.260 . S
O27 Eu11 2.480 . S
O28 Eu11 2.430 . S
O28 C18 1.259 . S
O29 Eu1 2.355 . S
O29 Eu11 2.670 . S
O29 C18 1.270 . S
O30 Eu11 2.394 . S
O30 C19 1.251 . S
O31 Eu1 2.374 . S
O31 C19 1.251 . S
H32 C3 0.931 . S
H33 C4 0.931 . S
H34 C6 0.931 . S
H35 C7 0.931 . S
H36 C13 0.931 . S
H37 C14 0.931 . S
H38 C16 0.931 . S
H39 C17 0.931 . S
C40 Eu41 2.835 . S
C40 C42 1.500 . S
C40 O60 1.257 . S
C40 O61 1.260 . S
Eu41 C40 2.835 . S
Eu41 O60 2.473 . S
Eu41 O61 2.480 . S
Eu41 O62 2.430 . S
Eu41 O63 2.670 1_455 S
Eu41 O64 2.394 . S
Eu41 O69 2.355 . S
Eu41 O71 2.374 . S
C42 C40 1.500 . S
C42 C43 1.377 . S
C42 C47 1.377 . S
C43 C42 1.377 . S
C43 C44 1.395 . S
C43 H72 0.931 . S
C44 C43 1.395 . S
C44 C45 1.383 . S
C44 H73 0.931 . S
C45 C44 1.383 . S
C45 C46 1.394 . S
C46 C45 1.394 . S
C46 C47 1.378 . S
C46 H74 0.931 . S
C47 C42 1.377 . S
C47 C46 1.378 . S
C47 H75 0.931 . S
C48 O62 1.259 1_655 S
C48 O63 1.270 . S
C49 O64 1.251 1_655 S
C49 O65 1.251 . S
C50 Eu51 2.835 . S
C50 C52 1.500 . S
C50 O66 1.257 . S
C50 O67 1.260 . S
Eu51 C50 2.835 . S
Eu51 O63 2.355 . S
Eu51 O65 2.374 . S
Eu51 O66 2.473 . S
Eu51 O67 2.480 . S
Eu51 O68 2.430 1_655 S
Eu51 O69 2.670 1_655 S
Eu51 O70 2.394 1_655 S
C52 C50 1.500 . S
C52 C53 1.377 . S
C52 C57 1.377 . S
C53 C52 1.377 . S
C53 C54 1.395 . S
C53 H76 0.931 . S
C54 C53 1.395 . S
C54 C55 1.383 . S
C54 H77 0.931 . S
C55 C54 1.383 . S
C55 C56 1.394 . S
C56 C55 1.394 . S
C56 C57 1.378 . S
C56 H78 0.931 . S
C57 C52 1.377 . S
C57 C56 1.378 . S
C57 H79 0.931 . S
C58 O68 1.259 . S
C58 O69 1.270 . S
C59 O70 1.251 . S
C59 O71 1.251 . S
O60 C40 1.257 . S
O60 Eu41 2.473 . S
O61 C40 1.260 . S
O61 Eu41 2.480 . S
O62 Eu41 2.430 . S
O62 C48 1.259 1_455 S
O63 Eu41 2.670 1_655 S
O63 C48 1.270 . S
O63 Eu51 2.355 . S
O64 Eu41 2.394 . S
O64 C49 1.251 1_455 S
O65 C49 1.251 . S
O65 Eu51 2.374 . S
O66 C50 1.257 . S
O66 Eu51 2.473 . S
O67 C50 1.260 . S
O67 Eu51 2.480 . S
O68 Eu51 2.430 1_455 S
O68 C58 1.259 . S
O69 Eu41 2.355 . S
O69 Eu51 2.670 1_455 S
O69 C58 1.270 . S
O70 Eu51 2.394 1_455 S
O70 C59 1.251 . S
O71 Eu41 2.374 . S
O71 C59 1.251 . S
H72 C43 0.931 . S
H73 C44 0.931 . S
H74 C46 0.931 . S
H75 C47 0.931 . S
H76 C53 0.931 . S
H77 C54 0.931 . S
H78 C56 0.931 . S
H79 C57 0.931 . S
C80 Eu81 2.835 . S
C80 C82 1.500 . S
C80 O100 1.257 . S
C80 O101 1.260 . S
Eu81 C80 2.835 . S
Eu81 O100 2.473 . S
Eu81 O101 2.480 . S
Eu81 O102 2.430 1_556 S
Eu81 O103 2.670 1_556 S
Eu81 O104 2.394 . S
Eu81 O109 2.355 . S
Eu81 O111 2.374 . S
C82 C80 1.500 . S
C82 C83 1.377 . S
C82 C87 1.377 . S
C83 C82 1.377 . S
C83 C84 1.395 . S
C83 H112 0.931 . S
C84 C83 1.395 . S
C84 C85 1.383 . S
C84 H113 0.931 . S
C85 C84 1.383 . S
C85 C86 1.394 . S
C86 C85 1.394 . S
C86 C87 1.378 . S
C86 H114 0.931 . S
C87 C82 1.377 . S
C87 C86 1.378 . S
C87 H115 0.931 . S
C88 O102 1.259 . S
C88 O103 1.270 . S
C89 O104 1.251 1_554 S
C89 O105 1.251 . S
C90 Eu91 2.835 . S
C90 C92 1.500 . S
C90 O106 1.257 . S
C90 O107 1.260 . S
Eu91 C90 2.835 . S
Eu91 O103 2.355 . S
Eu91 O105 2.374 . S
Eu91 O106 2.473 . S
Eu91 O107 2.480 . S
Eu91 O108 2.430 1_554 S
Eu91 O109 2.670 1_554 S
Eu91 O110 2.394 1_554 S
C92 C90 1.500 . S
C92 C93 1.377 . S
C92 C97 1.377 . S
C93 C92 1.377 . S
C93 C94 1.395 . S
C93 H116 0.931 . S
C94 C93 1.395 . S
C94 C95 1.383 . S
C94 H117 0.931 . S
C95 C94 1.383 . S
C95 C96 1.394 . S
C96 C95 1.394 . S
C96 C97 1.378 . S
C96 H118 0.931 . S
C97 C92 1.377 . S
C97 C96 1.378 . S
C97 H119 0.931 . S
C98 O108 1.259 . S
C98 O109 1.270 . S
C99 O110 1.251 . S
C99 O111 1.251 . S
O100 C80 1.257 . S
O100 Eu81 2.473 . S
O101 C80 1.260 . S
O101 Eu81 2.480 . S
O102 Eu81 2.430 1_554 S
O102 C88 1.259 . S
O103 Eu81 2.670 1_554 S
O103 C88 1.270 . S
O103 Eu91 2.355 . S
O104 Eu81 2.394 . S
O104 C89 1.251 1_556 S
O105 C89 1.251 . S
O105 Eu91 2.374 . S
O106 C90 1.257 . S
O106 Eu91 2.473 . S
O107 C90 1.260 . S
O107 Eu91 2.480 . S
O108 Eu91 2.430 1_556 S
O108 C98 1.259 . S
O109 Eu81 2.355 . S
O109 Eu91 2.670 1_556 S
O109 C98 1.270 . S
O110 Eu91 2.394 1_556 S
O110 C99 1.251 . S
O111 Eu81 2.374 . S
O111 C99 1.251 . S
H112 C83 0.931 . S
H113 C84 0.931 . S
H114 C86 0.931 . S
H115 C87 0.931 . S
H116 C93 0.931 . S
H117 C94 0.931 . S
H118 C96 0.931 . S
H119 C97 0.931 . S
C120 Eu121 2.835 . S
C120 C122 1.500 . S
C120 O140 1.257 . S
C120 O141 1.260 . S
Eu121 C120 2.835 . S
Eu121 O140 2.473 . S
Eu121 O141 2.480 . S
Eu121 O142 2.430 . S
Eu121 O143 2.670 . S
Eu121 O144 2.394 . S
Eu121 O149 2.355 . S
Eu121 O151 2.374 . S
C122 C120 1.500 . S
C122 C123 1.377 . S
C122 C127 1.377 . S
C123 C122 1.377 . S
C123 C124 1.395 . S
C123 H152 0.931 . S
C124 C123 1.395 . S
C124 C125 1.383 . S
C124 H153 0.931 . S
C125 C124 1.383 . S
C125 C126 1.394 . S
C126 C125 1.394 . S
C126 C127 1.378 . S
C126 H154 0.931 . S
C127 C122 1.377 . S
C127 C126 1.378 . S
C127 H155 0.931 . S
C128 O142 1.259 . S
C128 O143 1.270 . S
C129 O144 1.251 . S
C129 O145 1.251 . S
C130 Eu131 2.835 . S
C130 C132 1.500 . S
C130 O146 1.257 . S
C130 O147 1.260 . S
Eu131 C130 2.835 . S
Eu131 O143 2.355 . S
Eu131 O145 2.374 . S
Eu131 O146 2.473 . S
Eu131 O147 2.480 . S
Eu131 O148 2.430 . S
Eu131 O149 2.670 . S
Eu131 O150 2.394 . S
C132 C130 1.500 . S
C132 C133 1.377 . S
C132 C137 1.377 . S
C133 C132 1.377 . S
C133 C134 1.395 . S
C133 H156 0.931 . S
C134 C133 1.395 . S
C134 C135 1.383 . S
C134 H157 0.931 . S
C135 C134 1.383 . S
C135 C136 1.394 . S
C136 C135 1.394 . S
C136 C137 1.378 . S
C136 H158 0.931 . S
C137 C132 1.377 . S
C137 C136 1.378 . S
C137 H159 0.931 . S
C138 O148 1.259 . S
C138 O149 1.270 . S
C139 O150 1.251 . S
C139 O151 1.251 . S
O140 C120 1.257 . S
O140 Eu121 2.473 . S
O141 C120 1.260 . S
O141 Eu121 2.480 . S
O142 Eu121 2.430 . S
O142 C128 1.259 . S
O143 Eu121 2.670 . S
O143 C128 1.270 . S
O143 Eu131 2.355 . S
O144 Eu121 2.394 . S
O144 C129 1.251 . S
O145 C129 1.251 . S
O145 Eu131 2.374 . S
O146 C130 1.257 . S
O146 Eu131 2.473 . S
O147 C130 1.260 . S
O147 Eu131 2.480 . S
O148 Eu131 2.430 . S
O148 C138 1.259 . S
O149 Eu121 2.355 . S
O149 Eu131 2.670 . S
O149 C138 1.270 . S
O150 Eu131 2.394 . S
O150 C139 1.251 . S
O151 Eu121 2.374 . S
O151 C139 1.251 . S
H152 C123 0.931 . S
H153 C124 0.931 . S
H154 C126 0.931 . S
H155 C127 0.931 . S
H156 C133 0.931 . S
H157 C134 0.931 . S
H158 C136 0.931 . S
H159 C137 0.931 . S
C160 Eu161 2.835 . S
C160 C162 1.500 . S
C160 O180 1.257 . S
C160 O181 1.260 . S
Eu161 C160 2.835 . S
Eu161 O180 2.473 . S
Eu161 O181 2.480 . S
Eu161 O182 2.430 . S
Eu161 O183 2.670 . S
Eu161 O184 2.394 . S
Eu161 O189 2.355 . S
Eu161 O191 2.374 . S
C162 C160 1.500 . S
C162 C163 1.377 . S
C162 C167 1.377 . S
C163 C162 1.377 . S
C163 C164 1.395 . S
C163 H192 0.931 . S
C164 C163 1.395 . S
C164 C165 1.383 . S
C164 H193 0.931 . S
C165 C164 1.383 . S
C165 C166 1.394 . S
C166 C165 1.394 . S
C166 C167 1.378 . S
C166 H194 0.931 . S
C167 C162 1.377 . S
C167 C166 1.378 . S
C167 H195 0.931 . S
C168 O182 1.259 . S
C168 O183 1.270 . S
C169 O184 1.251 . S
C169 O185 1.251 . S
C170 Eu171 2.835 . S
C170 C172 1.500 . S
C170 O186 1.257 . S
C170 O187 1.260 . S
Eu171 C170 2.835 . S
Eu171 O183 2.355 . S
Eu171 O185 2.374 . S
Eu171 O186 2.473 . S
Eu171 O187 2.480 . S
Eu171 O188 2.430 . S
Eu171 O189 2.670 . S
Eu171 O190 2.394 . S
C172 C170 1.500 . S
C172 C173 1.377 . S
C172 C177 1.377 . S
C173 C172 1.377 . S
C173 C174 1.395 . S
C173 H196 0.931 . S
C174 C173 1.395 . S
C174 C175 1.383 . S
C174 H197 0.931 . S
C175 C174 1.383 . S
C175 C176 1.394 . S
C176 C175 1.394 . S
C176 C177 1.378 . S
C176 H198 0.931 . S
C177 C172 1.377 . S
C177 C176 1.378 . S
C177 H199 0.931 . S
C178 O188 1.259 . S
C178 O189 1.270 . S
C179 O190 1.251 . S
C179 O191 1.251 . S
O180 C160 1.257 . S
O180 Eu161 2.473 . S
O181 C160 1.260 . S
O181 Eu161 2.480 . S
O182 Eu161 2.430 . S
O182 C168 1.259 . S
O183 Eu161 2.670 . S
O183 C168 1.270 . S
O183 Eu171 2.355 . S
O184 Eu161 2.394 . S
O184 C169 1.251 . S
O185 C169 1.251 . S
O185 Eu171 2.374 . S
O186 C170 1.257 . S
O186 Eu171 2.473 . S
O187 C170 1.260 . S
O187 Eu171 2.480 . S
O188 Eu171 2.430 . S
O188 C178 1.259 . S
O189 Eu161 2.355 . S
O189 Eu171 2.670 . S
O189 C178 1.270 . S
O190 Eu171 2.394 . S
O190 C179 1.251 . S
O191 Eu161 2.374 . S
O191 C179 1.251 . S
H192 C163 0.931 . S
H193 C164 0.931 . S
H194 C166 0.931 . S
H195 C167 0.931 . S
H196 C173 0.931 . S
H197 C174 0.931 . S
H198 C176 0.931 . S
H199 C177 0.931 . S
C200 Eu201 2.835 . S
C200 C202 1.500 . S
C200 O220 1.257 . S
C200 O221 1.260 . S
Eu201 C200 2.835 . S
Eu201 O220 2.473 . S
Eu201 O221 2.480 . S
Eu201 O222 2.430 . S
Eu201 O223 2.670 . S
Eu201 O224 2.394 . S
Eu201 O229 2.355 1_455 S
Eu201 O231 2.374 1_455 S
C202 C200 1.500 . S
C202 C203 1.377 . S
C202 C207 1.377 . S
C203 C202 1.377 . S
C203 C204 1.395 . S
C203 H232 0.931 . S
C204 C203 1.395 . S
C204 C205 1.383 . S
C204 H233 0.931 . S
C205 C204 1.383 . S
C205 C206 1.394 . S
C206 C205 1.394 . S
C206 C207 1.378 . S
C206 H234 0.931 . S
C207 C202 1.377 . S
C207 C206 1.378 . S
C207 H235 0.931 . S
C208 O222 1.259 . S
C208 O223 1.270 . S
C209 O224 1.251 . S
C209 O225 1.251 . S
C210 Eu211 2.835 . S
C210 C212 1.500 . S
C210 O226 1.257 . S
C210 O227 1.260 . S
Eu211 C210 2.835 . S
Eu211 O223 2.355 1_655 S
Eu211 O225 2.374 1_655 S
Eu211 O226 2.473 . S
Eu211 O227 2.480 . S
Eu211 O228 2.430 . S
Eu211 O229 2.670 . S
Eu211 O230 2.394 . S
C212 C210 1.500 . S
C212 C213 1.377 . S
C212 C217 1.377 . S
C213 C212 1.377 . S
C213 C214 1.395 . S
C213 H236 0.931 . S
C214 C213 1.395 . S
C214 C215 1.383 . S
C214 H237 0.931 . S
C215 C214 1.383 . S
C215 C216 1.394 . S
C216 C215 1.394 . S
C216 C217 1.378 . S
C216 H238 0.931 . S
C217 C212 1.377 . S
C217 C216 1.378 . S
C217 H239 0.931 . S
C218 O228 1.259 . S
C218 O229 1.270 . S
C219 O230 1.251 . S
C219 O231 1.251 . S
O220 C200 1.257 . S
O220 Eu201 2.473 . S
O221 C200 1.260 . S
O221 Eu201 2.480 . S
O222 Eu201 2.430 . S
O222 C208 1.259 . S
O223 Eu201 2.670 . S
O223 C208 1.270 . S
O223 Eu211 2.355 1_455 S
O224 Eu201 2.394 . S
O224 C209 1.251 . S
O225 C209 1.251 . S
O225 Eu211 2.374 1_455 S
O226 C210 1.257 . S
O226 Eu211 2.473 . S
O227 C210 1.260 . S
O227 Eu211 2.480 . S
O228 Eu211 2.430 . S
O228 C218 1.259 . S
O229 Eu201 2.355 1_655 S
O229 Eu211 2.670 . S
O229 C218 1.270 . S
O230 Eu211 2.394 . S
O230 C219 1.251 . S
O231 Eu201 2.374 1_655 S
O231 C219 1.251 . S
H232 C203 0.931 . S
H233 C204 0.931 . S
H234 C206 0.931 . S
H235 C207 0.931 . S
H236 C213 0.931 . S
H237 C214 0.931 . S
H238 C216 0.931 . S
H239 C217 0.931 . S
C240 Eu241 2.835 1_556 S
C240 C242 1.500 . S
C240 O260 1.257 . S
C240 O261 1.260 . S
Eu241 C240 2.835 1_554 S
Eu241 O260 2.473 1_554 S
Eu241 O261 2.480 1_554 S
Eu241 O262 2.430 1_554 S
Eu241 O263 2.670 . S
Eu241 O264 2.394 1_554 S
Eu241 O269 2.355 . S
Eu241 O271 2.374 . S
C242 C240 1.500 . S
C242 C243 1.377 . S
C242 C247 1.377 . S
C243 C242 1.377 . S
C243 C244 1.395 . S
C243 H272 0.931 . S
C244 C243 1.395 . S
C244 C245 1.383 . S
C244 H273 0.931 . S
C245 C244 1.383 . S
C245 C246 1.394 . S
C246 C245 1.394 . S
C246 C247 1.378 . S
C246 H274 0.931 . S
C247 C242 1.377 . S
C247 C246 1.378 . S
C247 H275 0.931 . S
C248 O262 1.259 1_554 S
C248 O263 1.270 . S
C249 O264 1.251 . S
C249 O265 1.251 1_556 S
C250 Eu251 2.835 . S
C250 C252 1.500 . S
C250 O266 1.257 . S
C250 O267 1.260 . S
Eu251 C250 2.835 . S
Eu251 O263 2.355 . S
Eu251 O265 2.374 . S
Eu251 O266 2.473 . S
Eu251 O267 2.480 . S
Eu251 O268 2.430 . S
Eu251 O269 2.670 . S
Eu251 O270 2.394 . S
C252 C250 1.500 . S
C252 C253 1.377 . S
C252 C257 1.377 . S
C253 C252 1.377 . S
C253 C254 1.395 . S
C253 H276 0.931 . S
C254 C253 1.395 . S
C254 C255 1.383 . S
C254 H277 0.931 . S
C255 C254 1.383 . S
C255 C256 1.394 . S
C256 C255 1.394 . S
C256 C257 1.378 . S
C256 H278 0.931 . S
C257 C252 1.377 . S
C257 C256 1.378 . S
C257 H279 0.931 . S
C258 O268 1.259 . S
C258 O269 1.270 . S
C259 O270 1.251 . S
C259 O271 1.251 . S
O260 C240 1.257 . S
O260 Eu241 2.473 1_556 S
O261 C240 1.260 . S
O261 Eu241 2.480 1_556 S
O262 Eu241 2.430 1_556 S
O262 C248 1.259 1_556 S
O263 Eu241 2.670 . S
O263 C248 1.270 . S
O263 Eu251 2.355 . S
O264 Eu241 2.394 1_556 S
O264 C249 1.251 . S
O265 C249 1.251 1_554 S
O265 Eu251 2.374 . S
O266 C250 1.257 . S
O266 Eu251 2.473 . S
O267 C250 1.260 . S
O267 Eu251 2.480 . S
O268 Eu251 2.430 . S
O268 C258 1.259 . S
O269 Eu241 2.355 . S
O269 Eu251 2.670 . S
O269 C258 1.270 . S
O270 Eu251 2.394 . S
O270 C259 1.251 . S
O271 Eu241 2.374 . S
O271 C259 1.251 . S
H272 C243 0.931 . S
H273 C244 0.931 . S
H274 C246 0.931 . S
H275 C247 0.931 . S
H276 C253 0.931 . S
H277 C254 0.931 . S
H278 C256 0.931 . S
H279 C257 0.931 . S
C280 Eu281 2.835 . S
C280 C282 1.500 . S
C280 O300 1.257 . S
C280 O301 1.260 . S
Eu281 C280 2.835 . S
Eu281 O300 2.473 . S
Eu281 O301 2.480 . S
Eu281 O302 2.430 . S
Eu281 O303 2.670 . S
Eu281 O304 2.394 . S
Eu281 O309 2.355 . S
Eu281 O311 2.374 . S
C282 C280 1.500 . S
C282 C283 1.377 . S
C282 C287 1.377 . S
C283 C282 1.377 . S
C283 C284 1.395 . S
C283 H312 0.931 . S
C284 C283 1.395 . S
C284 C285 1.383 . S
C284 H313 0.931 . S
C285 C284 1.383 . S
C285 C286 1.394 . S
C286 C285 1.394 . S
C286 C287 1.378 . S
C286 H314 0.931 . S
C287 C282 1.377 . S
C287 C286 1.378 . S
C287 H315 0.931 . S
C288 O302 1.259 . S
C288 O303 1.270 . S
C289 O304 1.251 . S
C289 O305 1.251 . S
C290 Eu291 2.835 . S
C290 C292 1.500 . S
C290 O306 1.257 . S
C290 O307 1.260 . S
Eu291 C290 2.835 . S
Eu291 O303 2.355 . S
Eu291 O305 2.374 . S
Eu291 O306 2.473 . S
Eu291 O307 2.480 . S
Eu291 O308 2.430 . S
Eu291 O309 2.670 . S
Eu291 O310 2.394 . S
C292 C290 1.500 . S
C292 C293 1.377 . S
C292 C297 1.377 . S
C293 C292 1.377 . S
C293 C294 1.395 . S
C293 H316 0.931 . S
C294 C293 1.395 . S
C294 C295 1.383 . S
C294 H317 0.931 . S
C295 C294 1.383 . S
C295 C296 1.394 . S
C296 C295 1.394 . S
C296 C297 1.378 . S
C296 H318 0.931 . S
C297 C292 1.377 . S
C297 C296 1.378 . S
C297 H319 0.931 . S
C298 O308 1.259 . S
C298 O309 1.270 . S
C299 O310 1.251 . S
C299 O311 1.251 . S
O300 C280 1.257 . S
O300 Eu281 2.473 . S
O301 C280 1.260 . S
O301 Eu281 2.480 . S
O302 Eu281 2.430 . S
O302 C288 1.259 . S
O303 Eu281 2.670 . S
O303 C288 1.270 . S
O303 Eu291 2.355 . S
O304 Eu281 2.394 . S
O304 C289 1.251 . S
O305 C289 1.251 . S
O305 Eu291 2.374 . S
O306 C290 1.257 . S
O306 Eu291 2.473 . S
O307 C290 1.260 . S
O307 Eu291 2.480 . S
O308 Eu291 2.430 . S
O308 C298 1.259 . S
O309 Eu281 2.355 . S
O309 Eu291 2.670 . S
O309 C298 1.270 . S
O310 Eu291 2.394 . S
O310 C299 1.251 . S
O311 Eu281 2.374 . S
O311 C299 1.251 . S
H312 C283 0.931 . S
H313 C284 0.931 . S
H314 C286 0.931 . S
H315 C287 0.931 . S
H316 C293 0.931 . S
H317 C294 0.931 . S
H318 C296 0.931 . S
H319 C297 0.931 . S
C320 Eu321 2.835 . S
C320 C322 1.500 . S
C320 O340 1.257 . S
C320 O341 1.260 . S
Eu321 C320 2.835 . S
Eu321 O340 2.473 . S
Eu321 O341 2.480 . S
Eu321 O342 2.430 . S
Eu321 O343 2.670 . S
Eu321 O344 2.394 . S
Eu321 O349 2.355 . S
Eu321 O351 2.374 . S
C322 C320 1.500 . S
C322 C323 1.377 . S
C322 C327 1.377 . S
C323 C322 1.377 . S
C323 C324 1.395 . S
C323 H352 0.931 . S
C324 C323 1.395 . S
C324 C325 1.383 . S
C324 H353 0.931 . S
C325 C324 1.383 . S
C325 C326 1.394 . S
C326 C325 1.394 . S
C326 C327 1.378 . S
C326 H354 0.931 . S
C327 C322 1.377 . S
C327 C326 1.378 . S
C327 H355 0.931 . S
C328 O342 1.259 . S
C328 O343 1.270 . S
C329 O344 1.251 . S
C329 O345 1.251 . S
C330 Eu331 2.835 . S
C330 C332 1.500 . S
C330 O346 1.257 . S
C330 O347 1.260 . S
Eu331 C330 2.835 . S
Eu331 O343 2.355 . S
Eu331 O345 2.374 . S
Eu331 O346 2.473 . S
Eu331 O347 2.480 . S
Eu331 O348 2.430 . S
Eu331 O349 2.670 . S
Eu331 O350 2.394 . S
C332 C330 1.500 . S
C332 C333 1.377 . S
C332 C337 1.377 . S
C333 C332 1.377 . S
C333 C334 1.395 . S
C333 H356 0.931 . S
C334 C333 1.395 . S
C334 C335 1.383 . S
C334 H357 0.931 . S
C335 C334 1.383 . S
C335 C336 1.394 . S
C336 C335 1.394 . S
C336 C337 1.378 . S
C336 H358 0.931 . S
C337 C332 1.377 . S
C337 C336 1.378 . S
C337 H359 0.931 . S
C338 O348 1.259 . S
C338 O349 1.270 . S
C339 O350 1.251 . S
C339 O351 1.251 . S
O340 C320 1.257 . S
O340 Eu321 2.473 . S
O341 C320 1.260 . S
O341 Eu321 2.480 . S
O342 Eu321 2.430 . S
O342 C328 1.259 . S
O343 Eu321 2.670 . S
O343 C328 1.270 . S
O343 Eu331 2.355 . S
O344 Eu321 2.394 . S
O344 C329 1.251 . S
O345 C329 1.251 . S
O345 Eu331 2.374 . S
O346 C330 1.257 . S
O346 Eu331 2.473 . S
O347 C330 1.260 . S
O347 Eu331 2.480 . S
O348 Eu331 2.430 . S
O348 C338 1.259 . S
O349 Eu321 2.355 . S
O349 Eu331 2.670 . S
O349 C338 1.270 . S
O350 Eu331 2.394 . S
O350 C339 1.251 . S
O351 Eu321 2.374 . S
O351 C339 1.251 . S
H352 C323 0.931 . S
H353 C324 0.931 . S
H354 C326 0.931 . S
H355 C327 0.931 . S
H356 C333 0.931 . S
H357 C334 0.931 . S
H358 C336 0.931 . S
H359 C337 0.931 . S
C360 Eu361 2.835 1_565 S
C360 C362 1.500 . S
C360 O380 1.257 . S
C360 O381 1.260 . S
Eu361 C360 2.835 1_545 S
Eu361 O380 2.473 1_545 S
Eu361 O381 2.480 1_545 S
Eu361 O382 2.430 1_545 S
Eu361 O383 2.670 . S
Eu361 O384 2.394 1_545 S
Eu361 O389 2.355 . S
Eu361 O391 2.374 . S
C362 C360 1.500 . S
C362 C363 1.377 . S
C362 C367 1.377 . S
C363 C362 1.377 . S
C363 C364 1.395 . S
C363 H392 0.931 . S
C364 C363 1.395 . S
C364 C365 1.383 . S
C364 H393 0.931 . S
C365 C364 1.383 . S
C365 C366 1.394 . S
C366 C365 1.394 . S
C366 C367 1.378 . S
C366 H394 0.931 . S
C367 C362 1.377 . S
C367 C366 1.378 . S
C367 H395 0.931 . S
C368 O382 1.259 1_545 S
C368 O383 1.270 . S
C369 O384 1.251 . S
C369 O385 1.251 1_565 S
C370 Eu371 2.835 . S
C370 C372 1.500 . S
C370 O386 1.257 . S
C370 O387 1.260 . S
Eu371 C370 2.835 . S
Eu371 O383 2.355 . S
Eu371 O385 2.374 . S
Eu371 O386 2.473 . S
Eu371 O387 2.480 . S
Eu371 O388 2.430 . S
Eu371 O389 2.670 . S
Eu371 O390 2.394 . S
C372 C370 1.500 . S
C372 C373 1.377 . S
C372 C377 1.377 . S
C373 C372 1.377 . S
C373 C374 1.395 . S
C373 H396 0.931 . S
C374 C373 1.395 . S
C374 C375 1.383 . S
C374 H397 0.931 . S
C375 C374 1.383 . S
C375 C376 1.394 . S
C376 C375 1.394 . S
C376 C377 1.378 . S
C376 H398 0.931 . S
C377 C372 1.377 . S
C377 C376 1.378 . S
C377 H399 0.931 . S
C378 O388 1.259 . S
C378 O389 1.270 . S
C379 O390 1.251 . S
C379 O391 1.251 . S
O380 C360 1.257 . S
O380 Eu361 2.473 1_565 S
O381 C360 1.260 . S
O381 Eu361 2.480 1_565 S
O382 Eu361 2.430 1_565 S
O382 C368 1.259 1_565 S
O383 Eu361 2.670 . S
O383 C368 1.270 . S
O383 Eu371 2.355 . S
O384 Eu361 2.394 1_565 S
O384 C369 1.251 . S
O385 C369 1.251 1_545 S
O385 Eu371 2.374 . S
O386 C370 1.257 . S
O386 Eu371 2.473 . S
O387 C370 1.260 . S
O387 Eu371 2.480 . S
O388 Eu371 2.430 . S
O388 C378 1.259 . S
O389 Eu361 2.355 . S
O389 Eu371 2.670 . S
O389 C378 1.270 . S
O390 Eu371 2.394 . S
O390 C379 1.251 . S
O391 Eu361 2.374 . S
O391 C379 1.251 . S
H392 C363 0.931 . S
H393 C364 0.931 . S
H394 C366 0.931 . S
H395 C367 0.931 . S
H396 C373 0.931 . S
H397 C374 0.931 . S
H398 C376 0.931 . S
H399 C377 0.931 . S
C400 Eu401 2.835 . S
C400 C402 1.500 . S
C400 O420 1.257 . S
C400 O421 1.260 . S
Eu401 C400 2.835 . S
Eu401 O420 2.473 . S
Eu401 O421 2.480 . S
Eu401 O422 2.430 . S
Eu401 O423 2.670 1_545 S
Eu401 O424 2.394 . S
Eu401 O429 2.355 1_545 S
Eu401 O431 2.374 1_545 S
C402 C400 1.500 . S
C402 C403 1.377 . S
C402 C407 1.377 . S
C403 C402 1.377 . S
C403 C404 1.395 . S
C403 H432 0.931 . S
C404 C403 1.395 . S
C404 C405 1.383 . S
C404 H433 0.931 . S
C405 C404 1.383 . S
C405 C406 1.394 . S
C406 C405 1.394 . S
C406 C407 1.378 . S
C406 H434 0.931 . S
C407 C402 1.377 . S
C407 C406 1.378 . S
C407 H435 0.931 . S
C408 O422 1.259 . S
C408 O423 1.270 1_545 S
C409 O424 1.251 . S
C409 O425 1.295 . S
C410 Eu411 2.835 . S
C410 C412 1.500 . S
C410 O426 1.257 . S
C410 O427 1.260 . S
Eu411 C410 2.835 . S
Eu411 O423 2.355 . S
Eu411 O425 2.329 1_565 S
Eu411 O426 2.473 . S
Eu411 O427 2.480 . S
Eu411 O428 2.430 . S
Eu411 O429 2.670 . S
Eu411 O430 2.394 . S
C412 C410 1.500 . S
C412 C413 1.377 . S
C412 C417 1.377 . S
C413 C412 1.377 . S
C413 C414 1.395 . S
C413 H436 0.931 . S
C414 C413 1.395 . S
C414 C415 1.383 . S
C414 H437 0.931 . S
C415 C414 1.383 . S
C415 C416 1.394 . S
C416 C415 1.394 . S
C416 C417 1.378 . S
C416 H438 0.931 . S
C417 C412 1.377 . S
C417 C416 1.378 . S
C417 H439 0.931 . S
C418 O428 1.259 . S
C418 O429 1.270 . S
C419 O430 1.251 . S
C419 O431 1.251 . S
O420 C400 1.257 . S
O420 Eu401 2.473 . S
O421 C400 1.260 . S
O421 Eu401 2.480 . S
O422 Eu401 2.430 . S
O422 C408 1.259 . S
O423 Eu401 2.670 1_565 S
O423 C408 1.270 1_565 S
O423 Eu411 2.355 . S
O424 Eu401 2.394 . S
O424 C409 1.251 . S
O425 C409 1.295 . S
O425 Eu411 2.329 1_545 S
O426 C410 1.257 . S
O426 Eu411 2.473 . S
O427 C410 1.260 . S
O427 Eu411 2.480 . S
O428 Eu411 2.430 . S
O428 C418 1.259 . S
O429 Eu401 2.355 1_565 S
O429 Eu411 2.670 . S
O429 C418 1.270 . S
O430 Eu411 2.394 . S
O430 C419 1.251 . S
O431 Eu401 2.374 1_565 S
O431 C419 1.251 . S
H432 C403 0.931 . S
H433 C404 0.931 . S
H434 C406 0.931 . S
H435 C407 0.931 . S
H436 C413 0.931 . S
H437 C414 0.931 . S
H438 C416 0.931 . S
H439 C417 0.931 . S
C440 Eu441 2.835 . S
C440 C442 1.500 . S
C440 O460 1.257 . S
C440 O461 1.260 . S
Eu441 C440 2.835 . S
Eu441 O460 2.473 . S
Eu441 O461 2.480 . S
Eu441 O462 2.430 . S
Eu441 O463 2.670 . S
Eu441 O464 2.394 . S
Eu441 O469 2.355 . S
Eu441 O471 2.374 . S
C442 C440 1.500 . S
C442 C443 1.377 . S
C442 C447 1.377 . S
C443 C442 1.377 . S
C443 C444 1.395 . S
C443 H472 0.931 . S
C444 C443 1.395 . S
C444 C445 1.383 . S
C444 H473 0.931 . S
C445 C444 1.383 . S
C445 C446 1.394 . S
C446 C445 1.394 . S
C446 C447 1.378 . S
C446 H474 0.931 . S
C447 C442 1.377 . S
C447 C446 1.378 . S
C447 H475 0.931 . S
C448 O462 1.259 . S
C448 O463 1.270 . S
C449 O464 1.251 . S
C449 O465 1.251 . S
C450 Eu451 2.835 . S
C450 C452 1.500 . S
C450 O466 1.257 . S
C450 O467 1.260 . S
Eu451 C450 2.835 . S
Eu451 O463 2.355 . S
Eu451 O465 2.374 . S
Eu451 O466 2.473 . S
Eu451 O467 2.480 . S
Eu451 O468 2.430 . S
Eu451 O469 2.670 . S
Eu451 O470 2.394 . S
C452 C450 1.500 . S
C452 C453 1.377 . S
C452 C457 1.377 . S
C453 C452 1.377 . S
C453 C454 1.395 . S
C453 H476 0.931 . S
C454 C453 1.395 . S
C454 C455 1.383 . S
C454 H477 0.931 . S
C455 C454 1.383 . S
C455 C456 1.394 . S
C456 C455 1.394 . S
C456 C457 1.378 . S
C456 H478 0.931 . S
C457 C452 1.377 . S
C457 C456 1.378 . S
C457 H479 0.931 . S
C458 O468 1.259 . S
C458 O469 1.270 . S
C459 O470 1.251 . S
C459 O471 1.251 . S
O460 C440 1.257 . S
O460 Eu441 2.473 . S
O461 C440 1.260 . S
O461 Eu441 2.480 . S
O462 Eu441 2.430 . S
O462 C448 1.259 . S
O463 Eu441 2.670 . S
O463 C448 1.270 . S
O463 Eu451 2.355 . S
O464 Eu441 2.394 . S
O464 C449 1.251 . S
O465 C449 1.251 . S
O465 Eu451 2.374 . S
O466 C450 1.257 . S
O466 Eu451 2.473 . S
O467 C450 1.260 . S
O467 Eu451 2.480 . S
O468 Eu451 2.430 . S
O468 C458 1.259 . S
O469 Eu441 2.355 . S
O469 Eu451 2.670 . S
O469 C458 1.270 . S
O470 Eu451 2.394 . S
O470 C459 1.251 . S
O471 Eu441 2.374 . S
O471 C459 1.251 . S
H472 C443 0.931 . S
H473 C444 0.931 . S
H474 C446 0.931 . S
H475 C447 0.931 . S
H476 C453 0.931 . S
H477 C454 0.931 . S
H478 C456 0.931 . S
H479 C457 0.931 . S
H480 C488 0.929 . S
H481 C490 0.930 . S
H482 C492 0.930 . S
H483 C495 0.929 . S
H484 C498 0.930 . S
H485 C500 0.960 . S
H486 C500 0.960 . S
H487 C500 0.960 . S
C488 H480 0.929 . S
C488 C489 1.377 . S
C488 C490 1.384 . S
C489 C488 1.377 . S
C489 C495 1.390 . S
C490 H481 0.930 . S
C490 C488 1.384 . S
C490 C491 1.372 . S
C491 C490 1.372 . S
C491 C492 1.400 . S
C491 C496 1.490 . S
C492 H482 0.930 . S
C492 C491 1.400 . S
C492 C495 1.386 . S
H493 C509 0.930 . S
H494 C510 0.931 . S
C495 H483 0.929 . S
C495 C489 1.390 . S
C495 C492 1.386 . S
C496 C491 1.490 . S
C496 C498 1.395 . S
C496 C499 1.403 . S
H497 C503 0.930 . S
C498 H484 0.930 . S
C498 C496 1.395 . S
C498 C501 1.403 . S
C499 C496 1.403 . S
C499 C500 1.524 . S
C499 C503 1.400 . S
C500 H485 0.960 . S
C500 H486 0.960 . S
C500 H487 0.960 . S
C500 C499 1.524 . S
C501 C498 1.403 . S
C501 C502 1.392 . S
C501 C505 1.495 . S
C502 C501 1.392 . S
C502 C503 1.385 . S
C502 C504 1.478 . S
C503 H497 0.930 . S
C503 C499 1.400 . S
C503 C502 1.385 . S
C504 C502 1.478 . S
C504 C506 1.381 . S
C504 C510 1.383 . S
C505 C501 1.495 . S
C505 H511 0.959 . S
C505 H512 0.961 . S
C505 H513 0.960 . S
C506 C504 1.381 . S
C506 C507 1.394 . S
C506 H514 0.930 . S
C507 C506 1.394 . S
C507 C508 1.383 . S
C507 H515 0.929 . S
C508 C507 1.383 . S
C508 C509 1.377 . S
C509 H493 0.930 . S
C509 C508 1.377 . S
C509 C510 1.379 . S
C510 H494 0.931 . S
C510 C504 1.383 . S
C510 C509 1.379 . S
H511 C505 0.959 . S
H512 C505 0.961 . S
H513 C505 0.960 . S
H514 C506 0.930 . S
H515 C507 0.929 . S
H516 C524 0.929 1_545 S
H517 C526 0.930 . S
H518 C528 0.930 . S
H519 C531 0.929 . S
H520 C534 0.930 . S
H521 C536 0.960 . S
H522 C536 0.960 . S
H523 C536 0.960 . S
C524 H516 0.929 1_565 S
C524 C525 1.377 . S
C524 C526 1.384 . S
C525 C524 1.377 . S
C525 C531 1.390 . S
C526 H517 0.930 . S
C526 C524 1.384 . S
C526 C527 1.372 . S
C527 C526 1.372 . S
C527 C528 1.400 . S
C527 C532 1.490 . S
C528 H518 0.930 . S
C528 C527 1.400 . S
C528 C531 1.386 . S
H529 C545 0.930 . S
H530 C546 0.931 . S
C531 H519 0.929 . S
C531 C525 1.390 . S
C531 C528 1.386 . S
C532 C527 1.490 . S
C532 C534 1.395 . S
C532 C535 1.403 . S
H533 C539 0.930 . S
C534 H520 0.930 . S
C534 C532 1.395 . S
C534 C537 1.403 . S
C535 C532 1.403 . S
C535 C536 1.524 . S
C535 C539 1.400 . S
C536 H521 0.960 . S
C536 H522 0.960 . S
C536 H523 0.960 . S
C536 C535 1.524 . S
C537 C534 1.403 . S
C537 C538 1.392 . S
C537 C541 1.495 . S
C538 C537 1.392 . S
C538 C539 1.385 . S
C538 C540 1.478 . S
C539 H533 0.930 . S
C539 C535 1.400 . S
C539 C538 1.385 . S
C540 C538 1.478 . S
C540 C542 1.381 . S
C540 C546 1.383 . S
C541 C537 1.495 . S
C541 H547 0.959 1_565 S
C541 H548 0.961 . S
C541 H549 0.960 . S
C542 C540 1.381 . S
C542 C543 1.394 . S
C542 H550 0.930 . S
C543 C542 1.394 . S
C543 C544 1.383 . S
C543 H551 0.929 . S
C544 C543 1.383 . S
C544 C545 1.377 . S
C545 H529 0.930 . S
C545 C544 1.377 . S
C545 C546 1.379 . S
C546 H530 0.931 . S
C546 C540 1.383 . S
C546 C545 1.379 . S
H547 C541 0.959 1_545 S
H548 C541 0.961 . S
H549 C541 0.960 . S
H550 C542 0.930 . S
H551 C543 0.929 . S
H552 C560 0.929 1_556 S
H553 C562 0.930 . S
H554 C564 0.930 . S
H555 C567 0.929 . S
H556 C570 0.930 . S
H557 C572 0.960 . S
H558 C572 0.960 . S
H559 C572 0.960 . S
C560 H552 0.929 1_554 S
C560 C561 1.377 . S
C560 C562 1.384 . S
C561 C560 1.377 . S
C561 C567 1.390 . S
C562 H553 0.930 . S
C562 C560 1.384 . S
C562 C563 1.372 . S
C563 C562 1.372 . S
C563 C564 1.400 . S
C563 C568 1.490 . S
C564 H554 0.930 . S
C564 C563 1.400 . S
C564 C567 1.386 . S
H565 C581 0.930 . S
H566 C582 0.931 . S
C567 H555 0.929 . S
C567 C561 1.390 . S
C567 C564 1.386 . S
C568 C563 1.490 . S
C568 C570 1.395 . S
C568 C571 1.403 . S
H569 C575 0.930 . S
C570 H556 0.930 . S
C570 C568 1.395 . S
C570 C573 1.403 . S
C571 C568 1.403 . S
C571 C572 1.524 . S
C571 C575 1.400 . S
C572 H557 0.960 . S
C572 H558 0.960 . S
C572 H559 0.960 . S
C572 C571 1.524 . S
C573 C570 1.403 . S
C573 C574 1.392 . S
C573 C577 1.495 . S
C574 C573 1.392 . S
C574 C575 1.385 . S
C574 C576 1.478 . S
C575 H569 0.930 . S
C575 C571 1.400 . S
C575 C574 1.385 . S
C576 C574 1.478 . S
C576 C578 1.381 . S
C576 C582 1.383 . S
C577 C573 1.495 . S
C577 H583 0.959 . S
C577 H584 0.961 . S
C577 H585 0.960 . S
C578 C576 1.381 . S
C578 C579 1.394 . S
C578 H586 0.930 . S
C579 C578 1.394 . S
C579 C580 1.383 . S
C579 H587 0.929 . S
C580 C579 1.383 . S
C580 C581 1.377 . S
C581 H565 0.930 . S
C581 C580 1.377 . S
C581 C582 1.379 . S
C582 H566 0.931 . S
C582 C576 1.383 . S
C582 C581 1.379 . S
H583 C577 0.959 . S
H584 C577 0.961 . S
H585 C577 0.960 . S
H586 C578 0.930 . S
H587 C579 0.929 . S
H588 C596 0.929 . S
H589 C598 0.930 . S
H590 C600 0.930 . S
H591 C603 0.929 . S
H592 C606 0.930 . S
H593 C608 0.960 . S
H594 C608 0.960 . S
H595 C608 0.960 . S
C596 H588 0.929 . S
C596 C597 1.377 . S
C596 C598 1.384 . S
C597 C596 1.377 . S
C597 C603 1.390 . S
C598 H589 0.930 . S
C598 C596 1.384 . S
C598 C599 1.372 . S
C599 C598 1.372 . S
C599 C600 1.400 . S
C599 C604 1.490 . S
C600 H590 0.930 . S
C600 C599 1.400 . S
C600 C603 1.386 . S
H601 C617 0.930 . S
H602 C618 0.931 . S
C603 H591 0.929 . S
C603 C597 1.390 . S
C603 C600 1.386 . S
C604 C599 1.490 . S
C604 C606 1.395 . S
C604 C607 1.403 . S
H605 C611 0.930 . S
C606 H592 0.930 . S
C606 C604 1.395 . S
C606 C609 1.403 . S
C607 C604 1.403 . S
C607 C608 1.524 . S
C607 C611 1.400 . S
C608 H593 0.960 . S
C608 H594 0.960 . S
C608 H595 0.960 . S
C608 C607 1.524 . S
C609 C606 1.403 . S
C609 C610 1.392 . S
C609 C613 1.495 . S
C610 C609 1.392 . S
C610 C611 1.385 . S
C610 C612 1.478 . S
C611 H605 0.930 . S
C611 C607 1.400 . S
C611 C610 1.385 . S
C612 C610 1.478 . S
C612 C614 1.381 . S
C612 C618 1.383 . S
C613 C609 1.495 . S
C613 H619 0.959 . S
C613 H620 0.961 . S
C613 H621 0.960 . S
C614 C612 1.381 . S
C614 C615 1.394 . S
C614 H622 0.930 . S
C615 C614 1.394 . S
C615 C616 1.383 . S
C615 H623 0.929 1_545 S
C616 C615 1.383 . S
C616 C617 1.377 . S
C617 H601 0.930 . S
C617 C616 1.377 . S
C617 C618 1.379 . S
C618 H602 0.931 . S
C618 C612 1.383 . S
C618 C617 1.379 . S
H619 C613 0.959 . S
H620 C613 0.961 . S
H621 C613 0.960 . S
H622 C614 0.930 . S
H623 C615 0.929 1_565 S
H624 C632 0.929 . S
H625 C634 0.930 . S
H626 C636 0.930 . S
H627 C639 0.929 . S
H628 C642 0.930 . S
H629 C644 0.960 . S
H630 C644 0.960 . S
H631 C644 0.960 . S
C632 H624 0.929 . S
C632 C633 1.377 . S
C632 C634 1.384 . S
C633 C632 1.377 . S
C633 C639 1.390 . S
C634 H625 0.930 . S
C634 C632 1.384 . S
C634 C635 1.372 . S
C635 C634 1.372 . S
C635 C636 1.400 . S
C635 C640 1.490 . S
C636 H626 0.930 . S
C636 C635 1.400 . S
C636 C639 1.386 . S
H637 C653 0.930 . S
H638 C654 0.931 . S
C639 H627 0.929 . S
C639 C633 1.390 . S
C639 C636 1.386 . S
C640 C635 1.490 . S
C640 C642 1.395 . S
C640 C643 1.403 . S
H641 C647 0.930 . S
C642 H628 0.930 . S
C642 C640 1.395 . S
C642 C645 1.403 . S
C643 C640 1.403 . S
C643 C644 1.524 . S
C643 C647 1.400 . S
C644 H629 0.960 . S
C644 H630 0.960 . S
C644 H631 0.960 . S
C644 C643 1.524 . S
C645 C642 1.403 . S
C645 C646 1.392 . S
C645 C649 1.495 . S
C646 C645 1.392 . S
C646 C647 1.385 . S
C646 C648 1.478 . S
C647 H641 0.930 . S
C647 C643 1.400 . S
C647 C646 1.385 . S
C648 C646 1.478 . S
C648 C650 1.381 . S
C648 C654 1.383 . S
C649 C645 1.495 . S
C649 H655 0.959 . S
C649 H656 0.961 . S
C649 H657 0.960 . S
C650 C648 1.381 . S
C650 C651 1.394 . S
C650 H658 0.930 . S
C651 C650 1.394 . S
C651 C652 1.383 . S
C651 H659 0.929 . S
C652 C651 1.383 . S
C652 C653 1.377 . S
C653 H637 0.930 . S
C653 C652 1.377 . S
C653 C654 1.379 . S
C654 H638 0.931 . S
C654 C648 1.383 . S
C654 C653 1.379 . S
H655 C649 0.959 . S
H656 C649 0.961 . S
H657 C649 0.960 . S
H658 C650 0.930 . S
H659 C651 0.929 . S
H660 C668 0.929 . S
H661 C670 0.930 . S
H662 C672 0.930 . S
H663 C675 0.929 . S
H664 C678 0.930 . S
H665 C680 0.960 . S
H666 C680 0.960 . S
H667 C680 0.960 . S
C668 H660 0.929 . S
C668 C669 1.377 . S
C668 C670 1.384 . S
C669 C668 1.377 . S
C669 C675 1.390 . S
C670 H661 0.930 . S
C670 C668 1.384 . S
C670 C671 1.372 . S
C671 C670 1.372 . S
C671 C672 1.400 . S
C671 C676 1.490 . S
C672 H662 0.930 . S
C672 C671 1.400 . S
C672 C675 1.386 . S
H673 C689 0.930 . S
H674 C690 0.931 . S
C675 H663 0.929 . S
C675 C669 1.390 . S
C675 C672 1.386 . S
C676 C671 1.490 . S
C676 C678 1.395 . S
C676 C679 1.403 . S
H677 C683 0.930 . S
C678 H664 0.930 . S
C678 C676 1.395 . S
C678 C681 1.403 . S
C679 C676 1.403 . S
C679 C680 1.524 . S
C679 C683 1.400 . S
C680 H665 0.960 . S
C680 H666 0.960 . S
C680 H667 0.960 . S
C680 C679 1.524 . S
C681 C678 1.403 . S
C681 C682 1.392 . S
C681 C685 1.495 . S
C682 C681 1.392 . S
C682 C683 1.385 . S
C682 C684 1.478 . S
C683 H677 0.930 . S
C683 C679 1.400 . S
C683 C682 1.385 . S
C684 C682 1.478 . S
C684 C686 1.381 . S
C684 C690 1.383 . S
C685 C681 1.495 . S
C685 H691 0.959 . S
C685 H692 0.961 . S
C685 H693 0.960 . S
C686 C684 1.381 . S
C686 C687 1.394 . S
C686 H694 0.930 . S
C687 C686 1.394 . S
C687 C688 1.383 . S
C687 H695 0.929 . S
C688 C687 1.383 . S
C688 C689 1.377 . S
C689 H673 0.930 . S
C689 C688 1.377 . S
C689 C690 1.379 . S
C690 H674 0.931 . S
C690 C684 1.383 . S
C690 C689 1.379 . S
H691 C685 0.959 . S
H692 C685 0.961 . S
H693 C685 0.960 . S
H694 C686 0.930 . S
H695 C687 0.929 . S
H696 C704 0.929 . S
H697 C706 0.930 . S
H698 C708 0.930 . S
H699 C711 0.929 . S
H700 C714 0.930 . S
H701 C716 0.960 . S
H702 C716 0.960 . S
H703 C716 0.960 . S
C704 H696 0.929 . S
C704 C705 1.377 . S
C704 C706 1.384 . S
C705 C704 1.377 . S
C705 C711 1.390 . S
C706 H697 0.930 . S
C706 C704 1.384 . S
C706 C707 1.372 . S
C707 C706 1.372 . S
C707 C708 1.400 . S
C707 C712 1.490 . S
C708 H698 0.930 . S
C708 C707 1.400 . S
C708 C711 1.386 . S
H709 C725 0.930 1_554 S
H710 C726 0.931 . S
C711 H699 0.929 . S
C711 C705 1.390 . S
C711 C708 1.386 . S
C712 C707 1.490 . S
C712 C714 1.395 . S
C712 C715 1.403 . S
H713 C719 0.930 1_554 S
C714 H700 0.930 . S
C714 C712 1.395 . S
C714 C717 1.403 . S
C715 C712 1.403 . S
C715 C716 1.524 1_556 S
C715 C719 1.400 . S
C716 H701 0.960 . S
C716 H702 0.960 . S
C716 H703 0.960 . S
C716 C715 1.524 1_554 S
C717 C714 1.403 . S
C717 C718 1.392 . S
C717 C721 1.495 . S
C718 C717 1.392 . S
C718 C719 1.385 . S
C718 C720 1.478 . S
C719 H713 0.930 1_556 S
C719 C715 1.400 . S
C719 C718 1.385 . S
C720 C718 1.478 . S
C720 C722 1.381 . S
C720 C726 1.383 . S
C721 C717 1.495 . S
C721 H727 0.959 . S
C721 H728 0.961 . S
C721 H729 0.960 . S
C722 C720 1.381 . S
C722 C723 1.394 . S
C722 H730 0.930 . S
C723 C722 1.394 . S
C723 C724 1.383 . S
C723 H731 0.929 . S
C724 C723 1.383 . S
C724 C725 1.377 . S
C725 H709 0.930 1_556 S
C725 C724 1.377 . S
C725 C726 1.379 . S
C726 H710 0.931 . S
C726 C720 1.383 . S
C726 C725 1.379 . S
H727 C721 0.959 . S
H728 C721 0.961 . S
H729 C721 0.960 . S
H730 C722 0.930 . S
H731 C723 0.929 . S
H732 C740 0.929 . S
H733 C742 0.930 . S
H734 C744 0.930 . S
H735 C747 0.929 . S
H736 C750 0.930 . S
H737 C752 0.960 . S
H738 C752 0.960 . S
H739 C752 0.960 . S
C740 H732 0.929 . S
C740 C741 1.377 . S
C740 C742 1.384 . S
C741 C740 1.377 . S
C741 C747 1.390 . S
C742 H733 0.930 . S
C742 C740 1.384 . S
C742 C743 1.372 . S
C743 C742 1.372 . S
C743 C744 1.400 . S
C743 C748 1.490 . S
C744 H734 0.930 . S
C744 C743 1.400 . S
C744 C747 1.386 . S
H745 C761 0.930 . S
H746 C762 0.931 . S
C747 H735 0.929 . S
C747 C741 1.390 . S
C747 C744 1.386 . S
C748 C743 1.490 . S
C748 C750 1.395 . S
C748 C751 1.403 . S
H749 C755 0.930 . S
C750 H736 0.930 . S
C750 C748 1.395 . S
C750 C753 1.403 . S
C751 C748 1.403 . S
C751 C752 1.524 . S
C751 C755 1.400 . S
C752 H737 0.960 . S
C752 H738 0.960 . S
C752 H739 0.960 . S
C752 C751 1.524 . S
C753 C750 1.403 . S
C753 C754 1.392 . S
C753 C757 1.495 . S
C754 C753 1.392 . S
C754 C755 1.385 . S
C754 C756 1.478 . S
C755 H749 0.930 . S
C755 C751 1.400 . S
C755 C754 1.385 . S
C756 C754 1.478 . S
C756 C758 1.381 . S
C756 C762 1.383 . S
C757 C753 1.495 . S
C757 H763 0.959 . S
C757 H764 0.961 . S
C757 H765 0.960 . S
C758 C756 1.381 . S
C758 C759 1.394 . S
C758 H766 0.930 . S
C759 C758 1.394 . S
C759 C760 1.383 . S
C759 H767 0.929 . S
C760 C759 1.383 . S
C760 C761 1.377 . S
C761 H745 0.930 . S
C761 C760 1.377 . S
C761 C762 1.379 . S
C762 H746 0.931 . S
C762 C756 1.383 . S
C762 C761 1.379 . S
H763 C757 0.959 . S
H764 C757 0.961 . S
H765 C757 0.960 . S
H766 C758 0.930 . S
H767 C759 0.929 . S
H768 C776 0.929 . S
H769 C778 0.930 . S
H770 C780 0.930 . S
H771 C783 0.929 . S
H772 C786 0.930 . S
H773 C788 0.960 . S
H774 C788 0.960 . S
H775 C788 0.960 . S
C776 H768 0.929 . S
C776 C777 1.377 . S
C776 C778 1.384 . S
C777 C776 1.377 . S
C777 C783 1.390 . S
C778 H769 0.930 . S
C778 C776 1.384 . S
C778 C779 1.372 . S
C779 C778 1.372 . S
C779 C780 1.400 . S
C779 C784 1.490 . S
C780 H770 0.930 . S
C780 C779 1.400 . S
C780 C783 1.386 . S
H781 C797 0.930 . S
H782 C798 0.931 . S
C783 H771 0.929 . S
C783 C777 1.390 . S
C783 C780 1.386 . S
C784 C779 1.490 . S
C784 C786 1.395 . S
C784 C787 1.403 . S
H785 C791 0.930 . S
C786 H772 0.930 . S
C786 C784 1.395 . S
C786 C789 1.403 . S
C787 C784 1.403 . S
C787 C788 1.524 . S
C787 C791 1.400 . S
C788 H773 0.960 . S
C788 H774 0.960 . S
C788 H775 0.960 . S
C788 C787 1.524 . S
C789 C786 1.403 . S
C789 C790 1.392 . S
C789 C793 1.495 . S
C790 C789 1.392 . S
C790 C791 1.385 . S
C790 C792 1.478 . S
C791 H785 0.930 . S
C791 C787 1.400 . S
C791 C790 1.385 . S
C792 C790 1.478 . S
C792 C794 1.381 . S
C792 C798 1.383 . S
C793 C789 1.495 . S
C793 H799 0.959 . S
C793 H800 0.961 . S
C793 H801 0.960 . S
C794 C792 1.381 . S
C794 C795 1.394 . S
C794 H802 0.930 . S
C795 C794 1.394 . S
C795 C796 1.383 . S
C795 H803 0.929 . S
C796 C795 1.383 . S
C796 C797 1.377 . S
C797 H781 0.930 . S
C797 C796 1.377 . S
C797 C798 1.379 . S
C798 H782 0.931 . S
C798 C792 1.383 . S
C798 C797 1.379 . S
H799 C793 0.959 . S
H800 C793 0.961 . S
H801 C793 0.960 . S
H802 C794 0.930 . S
H803 C795 0.929 . S
H804 C812 0.929 . S
H805 C814 0.930 . S
H806 C816 0.930 . S
H807 C819 0.929 . S
H808 C822 0.930 . S
H809 C824 0.960 . S
H810 C824 0.960 . S
H811 C824 0.960 . S
C812 H804 0.929 . S
C812 C813 1.377 . S
C812 C814 1.384 . S
C813 C812 1.377 . S
C813 C819 1.390 . S
C814 H805 0.930 . S
C814 C812 1.384 . S
C814 C815 1.372 . S
C815 C814 1.372 . S
C815 C816 1.400 . S
C815 C820 1.490 . S
C816 H806 0.930 . S
C816 C815 1.400 . S
C816 C819 1.386 . S
H817 C833 0.930 . S
H818 C834 0.931 . S
C819 H807 0.929 . S
C819 C813 1.390 . S
C819 C816 1.386 . S
C820 C815 1.490 . S
C820 C822 1.395 . S
C820 C823 1.403 . S
H821 C827 0.930 . S
C822 H808 0.930 . S
C822 C820 1.395 . S
C822 C825 1.403 . S
C823 C820 1.403 . S
C823 C824 1.524 . S
C823 C827 1.400 . S
C824 H809 0.960 . S
C824 H810 0.960 . S
C824 H811 0.960 . S
C824 C823 1.524 . S
C825 C822 1.403 . S
C825 C826 1.392 . S
C825 C829 1.495 . S
C826 C825 1.392 . S
C826 C827 1.385 . S
C826 C828 1.478 . S
C827 H821 0.930 . S
C827 C823 1.400 . S
C827 C826 1.385 . S
C828 C826 1.478 . S
C828 C830 1.381 . S
C828 C834 1.383 . S
C829 C825 1.495 . S
C829 H835 0.959 . S
C829 H836 0.961 . S
C829 H837 0.960 . S
C830 C828 1.381 . S
C830 C831 1.394 . S
C830 H838 0.930 . S
C831 C830 1.394 . S
C831 C832 1.383 . S
C831 H839 0.929 . S
C832 C831 1.383 . S
C832 C833 1.377 . S
C833 H817 0.930 . S
C833 C832 1.377 . S
C833 C834 1.379 . S
C834 H818 0.931 . S
C834 C828 1.383 . S
C834 C833 1.379 . S
H835 C829 0.959 . S
H836 C829 0.961 . S
H837 C829 0.960 . S
H838 C830 0.930 . S
H839 C831 0.929 . S
H840 C848 0.929 . S
H841 C850 0.930 . S
H842 C852 0.930 . S
H843 C855 0.929 . S
H844 C858 0.930 . S
H845 C860 0.960 . S
H846 C860 0.960 . S
H847 C860 0.960 . S
C848 H840 0.929 . S
C848 C849 1.377 . S
C848 C850 1.384 . S
C849 C848 1.377 . S
C849 C855 1.390 1_655 S
C850 H841 0.930 . S
C850 C848 1.384 . S
C850 C851 1.372 . S
C851 C850 1.372 . S
C851 C852 1.400 . S
C851 C856 1.490 . S
C852 H842 0.930 . S
C852 C851 1.400 . S
C852 C855 1.386 1_655 S
H853 C869 0.930 . S
H854 C870 0.931 . S
C855 H843 0.929 . S
C855 C849 1.390 1_455 S
C855 C852 1.386 1_455 S
C856 C851 1.490 . S
C856 C858 1.395 . S
C856 C859 1.403 . S
H857 C863 0.930 . S
C858 H844 0.930 . S
C858 C856 1.395 . S
C858 C861 1.403 . S
C859 C856 1.403 . S
C859 C860 1.524 1_655 S
C859 C863 1.400 . S
C860 H845 0.960 . S
C860 H846 0.960 . S
C860 H847 0.960 . S
C860 C859 1.524 1_455 S
C861 C858 1.403 . S
C861 C862 1.392 . S
C861 C865 1.495 . S
C862 C861 1.392 . S
C862 C863 1.385 . S
C862 C864 1.478 . S
C863 H857 0.930 . S
C863 C859 1.400 . S
C863 C862 1.385 . S
C864 C862 1.478 . S
C864 C866 1.381 . S
C864 C870 1.383 . S
C865 C861 1.495 . S
C865 H871 0.959 . S
C865 H872 0.961 . S
C865 H873 0.960 . S
C866 C864 1.381 . S
C866 C867 1.394 . S
C866 H874 0.930 . S
C867 C866 1.394 . S
C867 C868 1.383 . S
C867 H875 0.929 . S
C868 C867 1.383 . S
C868 C869 1.377 . S
C869 H853 0.930 . S
C869 C868 1.377 . S
C869 C870 1.379 . S
C870 H854 0.931 . S
C870 C864 1.383 . S
C870 C869 1.379 . S
H871 C865 0.959 . S
H872 C865 0.961 . S
H873 C865 0.960 . S
H874 C866 0.930 . S
H875 C867 0.929 . S
H876 C884 0.929 . S
H877 C886 0.930 . S
H878 C888 0.930 . S
H879 C891 0.929 . S
H880 C894 0.930 . S
H881 C896 0.960 . S
H882 C896 0.960 . S
H883 C896 0.960 . S
C884 H876 0.929 . S
C884 C885 1.377 . S
C884 C886 1.384 . S
C885 C884 1.377 . S
C885 C891 1.390 . S
C886 H877 0.930 . S
C886 C884 1.384 . S
C886 C887 1.372 . S
C887 C886 1.372 . S
C887 C888 1.400 . S
C887 C892 1.490 . S
C888 H878 0.930 . S
C888 C887 1.400 . S
C888 C891 1.386 . S
H889 C905 0.930 . S
H890 C906 0.931 . S
C891 H879 0.929 . S
C891 C885 1.390 . S
C891 C888 1.386 . S
C892 C887 1.490 . S
C892 C894 1.395 . S
C892 C895 1.403 . S
H893 C899 0.930 . S
C894 H880 0.930 . S
C894 C892 1.395 . S
C894 C897 1.403 . S
C895 C892 1.403 . S
C895 C896 1.524 . S
C895 C899 1.400 . S
C896 H881 0.960 . S
C896 H882 0.960 . S
C896 H883 0.960 . S
C896 C895 1.524 . S
C897 C894 1.403 . S
C897 C898 1.392 . S
C897 C901 1.495 . S
C898 C897 1.392 . S
C898 C899 1.385 . S
C898 C900 1.478 . S
C899 H893 0.930 . S
C899 C895 1.400 . S
C899 C898 1.385 . S
C900 C898 1.478 . S
C900 C902 1.381 . S
C900 C906 1.383 . S
C901 C897 1.495 . S
C901 H907 0.959 . S
C901 H908 0.961 . S
C901 H909 0.960 . S
C902 C900 1.381 . S
C902 C903 1.394 . S
C902 H910 0.930 . S
C903 C902 1.394 . S
C903 C904 1.383 . S
C903 H911 0.929 . S
C904 C903 1.383 . S
C904 C905 1.377 . S
C905 H889 0.930 . S
C905 C904 1.377 . S
C905 C906 1.379 . S
C906 H890 0.931 . S
C906 C900 1.383 . S
C906 C905 1.379 . S
H907 C901 0.959 . S
H908 C901 0.961 . S
H909 C901 0.960 . S
H910 C902 0.930 . S
H911 C903 0.929 . S
H912 C920 0.929 . S
H913 C922 0.930 . S
H914 C924 0.930 . S
H915 C927 0.929 . S
H916 C930 0.930 . S
H917 C932 0.960 . S
H918 C932 0.960 . S
H919 C932 0.960 . S
C920 H912 0.929 . S
C920 C921 1.377 . S
C920 C922 1.384 . S
C921 C920 1.377 . S
C921 C927 1.390 . S
C922 H913 0.930 . S
C922 C920 1.384 . S
C922 C923 1.372 . S
C923 C922 1.372 . S
C923 C924 1.400 . S
C923 C928 1.490 . S
C924 H914 0.930 . S
C924 C923 1.400 . S
C924 C927 1.386 . S
H925 C941 0.930 . S
H926 C942 0.931 . S
C927 H915 0.929 . S
C927 C921 1.390 . S
C927 C924 1.386 . S
C928 C923 1.490 . S
C928 C930 1.395 . S
C928 C931 1.403 . S
H929 C935 0.930 . S
C930 H916 0.930 . S
C930 C928 1.395 . S
C930 C933 1.403 . S
C931 C928 1.403 . S
C931 C932 1.524 . S
C931 C935 1.400 . S
C932 H917 0.960 . S
C932 H918 0.960 . S
C932 H919 0.960 . S
C932 C931 1.524 . S
C933 C930 1.403 . S
C933 C934 1.392 . S
C933 C937 1.495 . S
C934 C933 1.392 . S
C934 C935 1.385 . S
C934 C936 1.478 . S
C935 H929 0.930 . S
C935 C931 1.400 . S
C935 C934 1.385 . S
C936 C934 1.478 . S
C936 C938 1.381 . S
C936 C942 1.383 . S
C937 C933 1.495 . S
C937 H943 0.959 . S
C937 H944 0.961 . S
C937 H945 0.960 . S
C938 C936 1.381 . S
C938 C939 1.394 . S
C938 H946 0.930 . S
C939 C938 1.394 . S
C939 C940 1.383 . S
C939 H947 0.929 . S
C940 C939 1.383 . S
C940 C941 1.377 . S
C941 H925 0.930 . S
C941 C940 1.377 . S
C941 C942 1.379 . S
C942 H926 0.931 . S
C942 C936 1.383 . S
C942 C941 1.379 . S
H943 C937 0.959 . S
H944 C937 0.961 . S
H945 C937 0.960 . S
H946 C938 0.930 . S
H947 C939 0.929 . S
H948 C956 0.929 . S
H949 C958 0.930 . S
H950 C960 0.930 . S
H951 C963 0.929 . S
H952 C966 0.930 . S
H953 C968 0.960 . S
H954 C968 0.960 . S
H955 C968 0.960 . S
C956 H948 0.929 . S
C956 C957 1.377 . S
C956 C958 1.384 . S
C957 C956 1.377 . S
C957 C963 1.390 . S
C958 H949 0.930 . S
C958 C956 1.384 . S
C958 C959 1.372 . S
C959 C958 1.372 . S
C959 C960 1.400 . S
C959 C964 1.490 . S
C960 H950 0.930 . S
C960 C959 1.400 . S
C960 C963 1.386 . S
H961 C977 0.930 . S
H962 C978 0.931 . S
C963 H951 0.929 . S
C963 C957 1.390 . S
C963 C960 1.386 . S
C964 C959 1.490 . S
C964 C966 1.395 . S
C964 C967 1.403 . S
H965 C971 0.930 . S
C966 H952 0.930 . S
C966 C964 1.395 . S
C966 C969 1.403 . S
C967 C964 1.403 . S
C967 C968 1.524 . S
C967 C971 1.400 . S
C968 H953 0.960 . S
C968 H954 0.960 . S
C968 H955 0.960 . S
C968 C967 1.524 . S
C969 C966 1.403 . S
C969 C970 1.392 . S
C969 C973 1.495 . S
C970 C969 1.392 . S
C970 C971 1.385 . S
C970 C972 1.478 . S
C971 H965 0.930 . S
C971 C967 1.400 . S
C971 C970 1.385 . S
C972 C970 1.478 . S
C972 C974 1.381 . S
C972 C978 1.383 . S
C973 C969 1.495 . S
C973 H979 0.959 . S
C973 H980 0.961 . S
C973 H981 0.960 . S
C974 C972 1.381 . S
C974 C975 1.394 . S
C974 H982 0.930 . S
C975 C974 1.394 . S
C975 C976 1.383 . S
C975 H983 0.929 . S
C976 C975 1.383 . S
C976 C977 1.377 . S
C977 H961 0.930 . S
C977 C976 1.377 . S
C977 C978 1.379 . S
C978 H962 0.931 . S
C978 C972 1.383 . S
C978 C977 1.379 . S
H979 C973 0.959 . S
H980 C973 0.961 . S
H981 C973 0.960 . S
H982 C974 0.930 . S
H983 C975 0.929 . S
H984 C992 0.929 . S
H985 C994 0.930 . S
H986 C996 0.930 . S
H987 C999 0.929 . S
H988 C1002 0.930 . S
H989 C1004 0.960 . S
H990 C1004 0.960 . S
H991 C1004 0.960 . S
C992 H984 0.929 . S
C992 C993 1.377 . S
C992 C994 1.384 . S
C993 C992 1.377 . S
C993 C999 1.390 . S
C994 H985 0.930 . S
C994 C992 1.384 . S
C994 C995 1.372 . S
C995 C994 1.372 . S
C995 C996 1.400 . S
C995 C1000 1.490 . S
C996 H986 0.930 . S
C996 C995 1.400 . S
C996 C999 1.386 . S
H997 C1013 0.930 . S
H998 C1014 0.931 . S
C999 H987 0.929 . S
C999 C993 1.390 . S
C999 C996 1.386 . S
C1000 C995 1.490 . S
C1000 C1002 1.395 . S
C1000 C1003 1.403 . S
H1001 C1007 0.930 . S
C1002 H988 0.930 . S
C1002 C1000 1.395 . S
C1002 C1005 1.403 . S
C1003 C1000 1.403 . S
C1003 C1004 1.524 . S
C1003 C1007 1.400 . S
C1004 H989 0.960 . S
C1004 H990 0.960 . S
C1004 H991 0.960 . S
C1004 C1003 1.524 . S
C1005 C1002 1.403 . S
C1005 C1006 1.392 . S
C1005 C1009 1.495 . S
C1006 C1005 1.392 . S
C1006 C1007 1.385 . S
C1006 C1008 1.478 . S
C1007 H1001 0.930 . S
C1007 C1003 1.400 . S
C1007 C1006 1.385 . S
C1008 C1006 1.478 . S
C1008 C1010 1.381 . S
C1008 C1014 1.383 . S
C1009 C1005 1.495 . S
C1009 H1015 0.959 . S
C1009 H1016 0.961 . S
C1009 H1017 0.960 . S
C1010 C1008 1.381 . S
C1010 C1011 1.394 . S
C1010 H1018 0.930 . S
C1011 C1010 1.394 . S
C1011 C1012 1.383 . S
C1011 H1019 0.929 . S
C1012 C1011 1.383 . S
C1012 C1013 1.377 . S
C1013 H997 0.930 . S
C1013 C1012 1.377 . S
C1013 C1014 1.379 . S
C1014 H998 0.931 . S
C1014 C1008 1.383 . S
C1014 C1013 1.379 . S
H1015 C1009 0.959 . S
H1016 C1009 0.961 . S
H1017 C1009 0.960 . S
H1018 C1010 0.930 . S
H1019 C1011 0.929 . S
H1020 C1028 0.929 . S
H1021 C1030 0.930 . S
H1022 C1032 0.930 . S
H1023 C1035 0.929 . S
H1024 C1038 0.930 . S
H1025 C1040 0.960 . S
H1026 C1040 0.960 . S
H1027 C1040 0.960 . S
C1028 H1020 0.929 . S
C1028 C1029 1.377 . S
C1028 C1030 1.384 . S
C1029 C1028 1.377 . S
C1029 C1035 1.390 . S
C1030 H1021 0.930 . S
C1030 C1028 1.384 . S
C1030 C1031 1.372 . S
C1031 C1030 1.372 . S
C1031 C1032 1.400 . S
C1031 C1036 1.490 . S
C1032 H1022 0.930 . S
C1032 C1031 1.400 . S
C1032 C1035 1.386 . S
H1033 C1049 0.930 . S
H1034 C1050 0.931 . S
C1035 H1023 0.929 . S
C1035 C1029 1.390 . S
C1035 C1032 1.386 . S
C1036 C1031 1.490 . S
C1036 C1038 1.395 . S
C1036 C1039 1.403 . S
H1037 C1043 0.930 1_556 S
C1038 H1024 0.930 . S
C1038 C1036 1.395 . S
C1038 C1041 1.403 . S
C1039 C1036 1.403 . S
C1039 C1040 1.524 . S
C1039 C1043 1.400 . S
C1040 H1025 0.960 . S
C1040 H1026 0.960 . S
C1040 H1027 0.960 . S
C1040 C1039 1.524 . S
C1041 C1038 1.403 . S
C1041 C1042 1.392 . S
C1041 C1045 1.495 . S
C1042 C1041 1.392 . S
C1042 C1043 1.385 . S
C1042 C1044 1.478 1_554 S
C1043 H1037 0.930 1_554 S
C1043 C1039 1.400 . S
C1043 C1042 1.385 . S
C1044 C1042 1.478 1_556 S
C1044 C1046 1.381 . S
C1044 C1050 1.383 . S
C1045 C1041 1.495 . S
C1045 H1051 0.959 . S
C1045 H1052 0.961 . S
C1045 H1053 0.960 . S
C1046 C1044 1.381 . S
C1046 C1047 1.394 . S
C1046 H1054 0.930 . S
C1047 C1046 1.394 . S
C1047 C1048 1.383 . S
C1047 H1055 0.929 . S
C1048 C1047 1.383 . S
C1048 C1049 1.377 . S
C1049 H1033 0.930 . S
C1049 C1048 1.377 . S
C1049 C1050 1.379 . S
C1050 H1034 0.931 . S
C1050 C1044 1.383 . S
C1050 C1049 1.379 . S
H1051 C1045 0.959 . S
H1052 C1045 0.961 . S
H1053 C1045 0.960 . S
H1054 C1046 0.930 . S
H1055 C1047 0.929 . S
H1056 C1064 0.929 . S
H1057 C1066 0.930 . S
H1058 C1068 0.930 . S
H1059 C1071 0.929 . S
H1060 C1074 0.930 . S
H1061 C1076 0.960 . S
H1062 C1076 0.960 . S
H1063 C1076 0.960 . S
C1064 H1056 0.929 . S
C1064 C1065 1.377 . S
C1064 C1066 1.384 . S
C1065 C1064 1.377 . S
C1065 C1071 1.390 . S
C1066 H1057 0.930 . S
C1066 C1064 1.384 . S
C1066 C1067 1.372 . S
C1067 C1066 1.372 . S
C1067 C1068 1.400 . S
C1067 C1072 1.490 . S
C1068 H1058 0.930 . S
C1068 C1067 1.400 . S
C1068 C1071 1.386 . S
H1069 C1085 0.930 . S
H1070 C1086 0.931 . S
C1071 H1059 0.929 . S
C1071 C1065 1.390 . S
C1071 C1068 1.386 . S
C1072 C1067 1.490 . S
C1072 C1074 1.395 . S
C1072 C1075 1.403 . S
H1073 C1079 0.930 . S
C1074 H1060 0.930 . S
C1074 C1072 1.395 . S
C1074 C1077 1.403 . S
C1075 C1072 1.403 . S
C1075 C1076 1.524 . S
C1075 C1079 1.400 . S
C1076 H1061 0.960 . S
C1076 H1062 0.960 . S
C1076 H1063 0.960 . S
C1076 C1075 1.524 . S
C1077 C1074 1.403 . S
C1077 C1078 1.392 . S
C1077 C1081 1.495 . S
C1078 C1077 1.392 . S
C1078 C1079 1.385 . S
C1078 C1080 1.478 . S
C1079 H1073 0.930 . S
C1079 C1075 1.400 . S
C1079 C1078 1.385 . S
C1080 C1078 1.478 . S
C1080 C1082 1.381 . S
C1080 C1086 1.383 . S
C1081 C1077 1.495 . S
C1081 H1087 0.959 . S
C1081 H1088 0.961 . S
C1081 H1089 0.960 . S
C1082 C1080 1.381 . S
C1082 C1083 1.394 . S
C1082 H1090 0.930 . S
C1083 C1082 1.394 . S
C1083 C1084 1.383 . S
C1083 H1091 0.929 . S
C1084 C1083 1.383 . S
C1084 C1085 1.377 . S
C1085 H1069 0.930 . S
C1085 C1084 1.377 . S
C1085 C1086 1.379 . S
C1086 H1070 0.931 . S
C1086 C1080 1.383 . S
C1086 C1085 1.379 . S
H1087 C1081 0.959 . S
H1088 C1081 0.961 . S
H1089 C1081 0.960 . S
H1090 C1082 0.930 . S
H1091 C1083 0.929 . S
H1092 C1100 0.929 . S
H1093 C1102 0.930 . S
H1094 C1104 0.930 . S
H1095 C1107 0.929 . S
H1096 C1110 0.930 . S
H1097 C1112 0.960 . S
H1098 C1112 0.960 . S
H1099 C1112 0.960 . S
C1100 H1092 0.929 . S
C1100 C1101 1.377 . S
C1100 C1102 1.384 . S
C1101 C1100 1.377 . S
C1101 C1107 1.390 . S
C1102 H1093 0.930 . S
C1102 C1100 1.384 . S
C1102 C1103 1.372 . S
C1103 C1102 1.372 . S
C1103 C1104 1.400 . S
C1103 C1108 1.490 . S
C1104 H1094 0.930 . S
C1104 C1103 1.400 . S
C1104 C1107 1.386 . S
H1105 C1121 0.930 . S
H1106 C1122 0.931 . S
C1107 H1095 0.929 . S
C1107 C1101 1.390 . S
C1107 C1104 1.386 . S
C1108 C1103 1.490 . S
C1108 C1110 1.395 . S
C1108 C1111 1.403 . S
H1109 C1115 0.930 . S
C1110 H1096 0.930 . S
C1110 C1108 1.395 . S
C1110 C1113 1.403 1_554 S
C1111 C1108 1.403 . S
C1111 C1112 1.524 . S
C1111 C1115 1.400 1_554 S
C1112 H1097 0.960 . S
C1112 H1098 0.960 . S
C1112 H1099 0.960 . S
C1112 C1111 1.524 . S
C1113 C1110 1.403 1_556 S
C1113 C1114 1.392 . S
C1113 C1117 1.495 . S
C1114 C1113 1.392 . S
C1114 C1115 1.385 . S
C1114 C1116 1.478 . S
C1115 H1109 0.930 . S
C1115 C1111 1.400 1_556 S
C1115 C1114 1.385 . S
C1116 C1114 1.478 . S
C1116 C1118 1.381 . S
C1116 C1122 1.383 . S
C1117 C1113 1.495 . S
C1117 H1123 0.959 . S
C1117 H1124 0.961 . S
C1117 H1125 0.960 . S
C1118 C1116 1.381 . S
C1118 C1119 1.394 . S
C1118 H1126 0.930 . S
C1119 C1118 1.394 . S
C1119 C1120 1.383 . S
C1119 H1127 0.929 . S
C1120 C1119 1.383 . S
C1120 C1121 1.377 . S
C1121 H1105 0.930 . S
C1121 C1120 1.377 . S
C1121 C1122 1.379 . S
C1122 H1106 0.931 . S
C1122 C1116 1.383 . S
C1122 C1121 1.379 . S
H1123 C1117 0.959 . S
H1124 C1117 0.961 . S
H1125 C1117 0.960 . S
H1126 C1118 0.930 . S
H1127 C1119 0.929 . S
H1128 C1136 0.929 . S
H1129 C1138 0.930 . S
H1130 C1140 0.930 . S
H1131 C1143 0.929 . S
H1132 C1146 0.930 . S
H1133 C1148 0.960 . S
H1134 C1148 0.960 . S
H1135 C1148 0.960 . S
C1136 H1128 0.929 . S
C1136 C1137 1.377 . S
C1136 C1138 1.384 . S
C1137 C1136 1.377 . S
C1137 C1143 1.390 . S
C1138 H1129 0.930 . S
C1138 C1136 1.384 . S
C1138 C1139 1.372 . S
C1139 C1138 1.372 . S
C1139 C1140 1.400 . S
C1139 C1144 1.490 . S
C1140 H1130 0.930 . S
C1140 C1139 1.400 . S
C1140 C1143 1.386 . S
H1141 C1157 0.930 . S
H1142 C1158 0.931 . S
C1143 H1131 0.929 . S
C1143 C1137 1.390 . S
C1143 C1140 1.386 . S
C1144 C1139 1.490 . S
C1144 C1146 1.395 . S
C1144 C1147 1.403 . S
H1145 C1151 0.930 . S
C1146 H1132 0.930 . S
C1146 C1144 1.395 . S
C1146 C1149 1.403 . S
C1147 C1144 1.403 . S
C1147 C1148 1.524 . S
C1147 C1151 1.400 . S
C1148 H1133 0.960 . S
C1148 H1134 0.960 . S
C1148 H1135 0.960 . S
C1148 C1147 1.524 . S
C1149 C1146 1.403 . S
C1149 C1150 1.392 . S
C1149 C1153 1.495 . S
C1150 C1149 1.392 . S
C1150 C1151 1.385 . S
C1150 C1152 1.478 . S
C1151 H1145 0.930 . S
C1151 C1147 1.400 . S
C1151 C1150 1.385 . S
C1152 C1150 1.478 . S
C1152 C1154 1.381 . S
C1152 C1158 1.383 . S
C1153 C1149 1.495 . S
C1153 H1159 0.959 . S
C1153 H1160 0.961 . S
C1153 H1161 0.960 . S
C1154 C1152 1.381 . S
C1154 C1155 1.394 . S
C1154 H1162 0.930 . S
C1155 C1154 1.394 . S
C1155 C1156 1.383 . S
C1155 H1163 0.929 . S
C1156 C1155 1.383 . S
C1156 C1157 1.377 . S
C1157 H1141 0.930 . S
C1157 C1156 1.377 . S
C1157 C1158 1.379 . S
C1158 H1142 0.931 . S
C1158 C1152 1.383 . S
C1158 C1157 1.379 . S
H1159 C1153 0.959 . S
H1160 C1153 0.961 . S
H1161 C1153 0.960 . S
H1162 C1154 0.930 . S
H1163 C1155 0.929 . S
H1164 C1172 0.929 . S
H1165 C1174 0.930 . S
H1166 C1176 0.930 . S
H1167 C1179 0.929 . S
H1168 C1182 0.930 . S
H1169 C1184 0.960 . S
H1170 C1184 0.960 . S
H1171 C1184 0.960 . S
C1172 H1164 0.929 . S
C1172 C1173 1.377 . S
C1172 C1174 1.384 . S
C1173 C1172 1.377 . S
C1173 C1179 1.390 . S
C1174 H1165 0.930 . S
C1174 C1172 1.384 . S
C1174 C1175 1.372 . S
C1175 C1174 1.372 . S
C1175 C1176 1.400 . S
C1175 C1180 1.490 . S
C1176 H1166 0.930 . S
C1176 C1175 1.400 . S
C1176 C1179 1.386 . S
H1177 C1193 0.930 . S
H1178 C1194 0.931 . S
C1179 H1167 0.929 . S
C1179 C1173 1.390 . S
C1179 C1176 1.386 . S
C1180 C1175 1.490 . S
C1180 C1182 1.395 . S
C1180 C1183 1.403 . S
H1181 C1187 0.930 . S
C1182 H1168 0.930 . S
C1182 C1180 1.395 . S
C1182 C1185 1.403 . S
C1183 C1180 1.403 . S
C1183 C1184 1.524 . S
C1183 C1187 1.400 . S
C1184 H1169 0.960 . S
C1184 H1170 0.960 . S
C1184 H1171 0.960 . S
C1184 C1183 1.524 . S
C1185 C1182 1.403 . S
C1185 C1186 1.392 . S
C1185 C1189 1.495 . S
C1186 C1185 1.392 . S
C1186 C1187 1.385 . S
C1186 C1188 1.478 . S
C1187 H1181 0.930 . S
C1187 C1183 1.400 . S
C1187 C1186 1.385 . S
C1188 C1186 1.478 . S
C1188 C1190 1.381 . S
C1188 C1194 1.383 . S
C1189 C1185 1.495 . S
C1189 H1195 0.959 . S
C1189 H1196 0.961 . S
C1189 H1197 0.960 . S
C1190 C1188 1.381 . S
C1190 C1191 1.394 . S
C1190 H1198 0.930 . S
C1191 C1190 1.394 . S
C1191 C1192 1.383 . S
C1191 H1199 0.929 . S
C1192 C1191 1.383 . S
C1192 C1193 1.377 . S
C1193 H1177 0.930 . S
C1193 C1192 1.377 . S
C1193 C1194 1.379 . S
C1194 H1178 0.931 . S
C1194 C1188 1.383 . S
C1194 C1193 1.379 . S
H1195 C1189 0.959 . S
H1196 C1189 0.961 . S
H1197 C1189 0.960 . S
H1198 C1190 0.930 . S
H1199 C1191 0.929 . S
H1200 C1208 0.929 . S
H1201 C1210 0.930 . S
H1202 C1212 0.930 . S
H1203 C1215 0.929 . S
H1204 C1218 0.930 . S
H1205 C1220 0.960 . S
H1206 C1220 0.960 . S
H1207 C1220 0.960 . S
C1208 H1200 0.929 . S
C1208 C1209 1.377 . S
C1208 C1210 1.384 . S
C1209 C1208 1.377 . S
C1209 C1215 1.390 . S
C1210 H1201 0.930 . S
C1210 C1208 1.384 . S
C1210 C1211 1.372 . S
C1211 C1210 1.372 . S
C1211 C1212 1.400 . S
C1211 C1216 1.490 . S
C1212 H1202 0.930 . S
C1212 C1211 1.400 . S
C1212 C1215 1.386 . S
H1213 C1229 0.930 . S
H1214 C1230 0.931 . S
C1215 H1203 0.929 . S
C1215 C1209 1.390 . S
C1215 C1212 1.386 . S
C1216 C1211 1.490 . S
C1216 C1218 1.395 . S
C1216 C1219 1.403 . S
H1217 C1223 0.930 . S
C1218 H1204 0.930 . S
C1218 C1216 1.395 . S
C1218 C1221 1.403 . S
C1219 C1216 1.403 . S
C1219 C1220 1.524 . S
C1219 C1223 1.400 . S
C1220 H1205 0.960 . S
C1220 H1206 0.960 . S
C1220 H1207 0.960 . S
C1220 C1219 1.524 . S
C1221 C1218 1.403 . S
C1221 C1222 1.392 . S
C1221 C1225 1.495 . S
C1222 C1221 1.392 . S
C1222 C1223 1.385 . S
C1222 C1224 1.478 . S
C1223 H1217 0.930 . S
C1223 C1219 1.400 . S
C1223 C1222 1.385 . S
C1224 C1222 1.478 . S
C1224 C1226 1.381 . S
C1224 C1230 1.383 . S
C1225 C1221 1.495 . S
C1225 H1231 0.959 . S
C1225 H1232 0.961 . S
C1225 H1233 0.960 . S
C1226 C1224 1.381 . S
C1226 C1227 1.394 . S
C1226 H1234 0.930 . S
C1227 C1226 1.394 . S
C1227 C1228 1.383 . S
C1227 H1235 0.929 . S
C1228 C1227 1.383 . S
C1228 C1229 1.377 . S
C1229 H1213 0.930 . S
C1229 C1228 1.377 . S
C1229 C1230 1.379 . S
C1230 H1214 0.931 . S
C1230 C1224 1.383 . S
C1230 C1229 1.379 . S
H1231 C1225 0.959 . S
H1232 C1225 0.961 . S
H1233 C1225 0.960 . S
H1234 C1226 0.930 . S
H1235 C1227 0.929 . S
H1236 C1244 0.929 . S
H1237 C1246 0.930 . S
H1238 C1248 0.930 . S
H1239 C1251 0.929 . S
H1240 C1254 0.930 . S
H1241 C1256 0.960 . S
H1242 C1256 0.960 . S
H1243 C1256 0.960 . S
C1244 H1236 0.929 . S
C1244 C1245 1.377 . S
C1244 C1246 1.384 . S
C1245 C1244 1.377 . S
C1245 C1251 1.390 . S
C1246 H1237 0.930 . S
C1246 C1244 1.384 . S
C1246 C1247 1.372 . S
C1247 C1246 1.372 . S
C1247 C1248 1.400 . S
C1247 C1252 1.490 . S
C1248 H1238 0.930 . S
C1248 C1247 1.400 . S
C1248 C1251 1.386 . S
H1249 C1265 0.930 . S
H1250 C1266 0.931 . S
C1251 H1239 0.929 . S
C1251 C1245 1.390 . S
C1251 C1248 1.386 . S
C1252 C1247 1.490 . S
C1252 C1254 1.395 . S
C1252 C1255 1.403 . S
H1253 C1259 0.930 1_565 S
C1254 H1240 0.930 . S
C1254 C1252 1.395 . S
C1254 C1257 1.403 1_545 S
C1255 C1252 1.403 . S
C1255 C1256 1.524 . S
C1255 C1259 1.400 . S
C1256 H1241 0.960 . S
C1256 H1242 0.960 . S
C1256 H1243 0.960 . S
C1256 C1255 1.524 . S
C1257 C1254 1.403 1_565 S
C1257 C1258 1.392 . S
C1257 C1261 1.495 . S
C1258 C1257 1.392 . S
C1258 C1259 1.385 1_565 S
C1258 C1260 1.478 . S
C1259 H1253 0.930 1_545 S
C1259 C1255 1.400 . S
C1259 C1258 1.385 1_545 S
C1260 C1258 1.478 . S
C1260 C1262 1.381 . S
C1260 C1266 1.383 . S
C1261 C1257 1.495 . S
C1261 H1267 0.959 . S
C1261 H1268 0.961 . S
C1261 H1269 0.960 . S
C1262 C1260 1.381 . S
C1262 C1263 1.394 . S
C1262 H1270 0.930 . S
C1263 C1262 1.394 . S
C1263 C1264 1.383 . S
C1263 H1271 0.944 . S
C1264 C1263 1.383 . S
C1264 C1265 1.377 . S
C1265 H1249 0.930 . S
C1265 C1264 1.377 . S
C1265 C1266 1.379 . S
C1266 H1250 0.931 . S
C1266 C1260 1.383 . S
C1266 C1265 1.379 . S
H1267 C1261 0.959 . S
H1268 C1261 0.961 . S
H1269 C1261 0.960 . S
H1270 C1262 0.930 . S
H1271 C1263 0.944 . S
H1272 C1280 0.929 . S
H1273 C1282 0.930 . S
H1274 C1284 0.930 . S
H1275 C1287 0.929 . S
H1276 C1290 0.930 . S
H1277 C1292 0.960 . S
H1278 C1292 0.960 . S
H1279 C1292 0.960 . S
C1280 H1272 0.929 . S
C1280 C1281 1.377 . S
C1280 C1282 1.384 . S
C1281 C1280 1.377 . S
C1281 C1287 1.390 . S
C1282 H1273 0.930 . S
C1282 C1280 1.384 . S
C1282 C1283 1.372 . S
C1283 C1282 1.372 . S
C1283 C1284 1.400 . S
C1283 C1288 1.490 . S
C1284 H1274 0.930 . S
C1284 C1283 1.400 . S
C1284 C1287 1.386 . S
H1285 C1301 0.930 . S
H1286 C1302 0.931 . S
C1287 H1275 0.929 . S
C1287 C1281 1.390 . S
C1287 C1284 1.386 . S
C1288 C1283 1.490 . S
C1288 C1290 1.395 . S
C1288 C1291 1.403 . S
H1289 C1295 0.930 . S
C1290 H1276 0.930 . S
C1290 C1288 1.395 . S
C1290 C1293 1.403 . S
C1291 C1288 1.403 . S
C1291 C1292 1.524 . S
C1291 C1295 1.400 . S
C1292 H1277 0.960 . S
C1292 H1278 0.960 . S
C1292 H1279 0.960 . S
C1292 C1291 1.524 . S
C1293 C1290 1.403 . S
C1293 C1294 1.392 . S
C1293 C1297 1.495 . S
C1294 C1293 1.392 . S
C1294 C1295 1.385 . S
C1294 C1296 1.478 . S
C1295 H1289 0.930 . S
C1295 C1291 1.400 . S
C1295 C1294 1.385 . S
C1296 C1294 1.478 . S
C1296 C1298 1.381 . S
C1296 C1302 1.383 . S
C1297 C1293 1.495 . S
C1297 H1303 0.959 . S
C1297 H1304 0.961 . S
C1297 H1305 0.960 . S
C1298 C1296 1.381 . S
C1298 C1299 1.394 . S
C1298 H1306 0.930 . S
C1299 C1298 1.394 . S
C1299 C1300 1.383 . S
C1299 H1307 0.929 . S
C1300 C1299 1.383 . S
C1300 C1301 1.377 . S
C1301 H1285 0.930 . S
C1301 C1300 1.377 . S
C1301 C1302 1.379 . S
C1302 H1286 0.931 . S
C1302 C1296 1.383 . S
C1302 C1301 1.379 . S
H1303 C1297 0.959 . S
H1304 C1297 0.961 . S
H1305 C1297 0.960 . S
H1306 C1298 0.930 . S
H1307 C1299 0.929 . S
H1308 C1316 0.929 . S
H1309 C1318 0.930 . S
H1310 C1320 0.930 . S
H1311 C1323 0.929 . S
H1312 C1326 0.930 . S
H1313 C1328 0.960 1_565 S
H1314 C1328 0.960 . S
H1315 C1328 0.960 . S
C1316 H1308 0.929 . S
C1316 C1317 1.377 . S
C1316 C1318 1.384 . S
C1317 C1316 1.377 . S
C1317 C1323 1.390 . S
C1318 H1309 0.930 . S
C1318 C1316 1.384 . S
C1318 C1319 1.372 . S
C1319 C1318 1.372 . S
C1319 C1320 1.400 . S
C1319 C1324 1.490 . S
C1320 H1310 0.930 . S
C1320 C1319 1.400 . S
C1320 C1323 1.386 . S
H1321 C1337 0.930 . S
H1322 C1338 0.931 . S
C1323 H1311 0.929 . S
C1323 C1317 1.390 . S
C1323 C1320 1.386 . S
C1324 C1319 1.490 . S
C1324 C1326 1.395 . S
C1324 C1327 1.403 . S
H1325 C1331 0.930 . S
C1326 H1312 0.930 . S
C1326 C1324 1.395 . S
C1326 C1329 1.403 1_545 S
C1327 C1324 1.403 . S
C1327 C1328 1.524 . S
C1327 C1331 1.400 1_545 S
C1328 H1313 0.960 1_545 S
C1328 H1314 0.960 . S
C1328 H1315 0.960 . S
C1328 C1327 1.524 . S
C1329 C1326 1.403 1_565 S
C1329 C1330 1.392 . S
C1329 C1333 1.495 . S
C1330 C1329 1.392 . S
C1330 C1331 1.385 . S
C1330 C1332 1.478 . S
C1331 H1325 0.930 . S
C1331 C1327 1.400 1_565 S
C1331 C1330 1.385 . S
C1332 C1330 1.478 . S
C1332 C1334 1.381 . S
C1332 C1338 1.383 . S
C1333 C1329 1.495 . S
C1333 H1339 0.959 1_565 S
C1333 H1340 0.961 . S
C1333 H1341 0.960 . S
C1334 C1332 1.381 . S
C1334 C1335 1.394 . S
C1334 H1342 0.930 . S
C1335 C1334 1.394 . S
C1335 C1336 1.383 . S
C1335 H1343 0.929 . S
C1336 C1335 1.383 . S
C1336 C1337 1.377 . S
C1337 H1321 0.930 . S
C1337 C1336 1.377 . S
C1337 C1338 1.379 . S
C1338 H1322 0.931 . S
C1338 C1332 1.383 . S
C1338 C1337 1.379 . S
H1339 C1333 0.959 1_545 S
H1340 C1333 0.961 . S
H1341 C1333 0.960 . S
H1342 C1334 0.930 . S
H1343 C1335 0.929 . S
H1344 C1352 0.929 . S
H1345 C1354 0.930 . S
H1346 C1356 0.930 . S
H1347 C1359 0.929 . S
H1348 C1362 0.930 . S
H1349 C1364 0.960 . S
H1350 C1364 0.960 . S
H1351 C1364 0.960 . S
C1352 H1344 0.929 . S
C1352 C1353 1.377 . S
C1352 C1354 1.384 . S
C1353 C1352 1.377 . S
C1353 C1359 1.390 . S
C1354 H1345 0.930 . S
C1354 C1352 1.384 . S
C1354 C1355 1.372 . S
C1355 C1354 1.372 . S
C1355 C1356 1.400 . S
C1355 C1360 1.490 . S
C1356 H1346 0.930 . S
C1356 C1355 1.400 . S
C1356 C1359 1.386 . S
H1357 C1373 0.930 . S
H1358 C1374 0.931 . S
C1359 H1347 0.929 . S
C1359 C1353 1.390 . S
C1359 C1356 1.386 . S
C1360 C1355 1.490 . S
C1360 C1362 1.395 . S
C1360 C1363 1.403 . S
H1361 C1367 0.930 . S
C1362 H1348 0.930 . S
C1362 C1360 1.395 . S
C1362 C1365 1.403 . S
C1363 C1360 1.403 . S
C1363 C1364 1.524 . S
C1363 C1367 1.400 . S
C1364 H1349 0.960 . S
C1364 H1350 0.960 . S
C1364 H1351 0.960 . S
C1364 C1363 1.524 . S
C1365 C1362 1.403 . S
C1365 C1366 1.392 . S
C1365 C1369 1.495 . S
C1366 C1365 1.392 . S
C1366 C1367 1.385 . S
C1366 C1368 1.478 . S
C1367 H1361 0.930 . S
C1367 C1363 1.400 . S
C1367 C1366 1.385 . S
C1368 C1366 1.478 . S
C1368 C1370 1.381 . S
C1368 C1374 1.383 . S
C1369 C1365 1.495 . S
C1369 H1375 0.959 . S
C1369 H1376 0.961 . S
C1369 H1377 0.960 . S
C1370 C1368 1.381 . S
C1370 C1371 1.394 . S
C1370 H1378 0.930 . S
C1371 C1370 1.394 . S
C1371 C1372 1.383 . S
C1371 H1379 0.929 . S
C1372 C1371 1.383 . S
C1372 C1373 1.377 . S
C1373 H1357 0.930 . S
C1373 C1372 1.377 . S
C1373 C1374 1.379 . S
C1374 H1358 0.931 . S
C1374 C1368 1.383 . S
C1374 C1373 1.379 . S
H1375 C1369 0.959 . S
H1376 C1369 0.961 . S
H1377 C1369 0.960 . S
H1378 C1370 0.930 . S
H1379 C1371 0.929 . S
H1380 C1388 0.929 . S
H1381 C1390 0.930 . S
H1382 C1392 0.930 . S
H1383 C1395 0.929 . S
H1384 C1398 0.930 . S
H1385 C1400 0.960 . S
H1386 C1400 0.960 . S
H1387 C1400 0.960 . S
C1388 H1380 0.929 . S
C1388 C1389 1.377 . S
C1388 C1390 1.384 . S
C1389 C1388 1.377 . S
C1389 C1395 1.390 . S
C1390 H1381 0.930 . S
C1390 C1388 1.384 . S
C1390 C1391 1.372 . S
C1391 C1390 1.372 . S
C1391 C1392 1.400 . S
C1391 C1396 1.490 . S
C1392 H1382 0.930 . S
C1392 C1391 1.400 . S
C1392 C1395 1.386 . S
H1393 C1409 0.930 . S
H1394 C1410 0.931 . S
C1395 H1383 0.929 . S
C1395 C1389 1.390 . S
C1395 C1392 1.386 . S
C1396 C1391 1.490 . S
C1396 C1398 1.395 . S
C1396 C1399 1.403 . S
H1397 C1403 0.930 . S
C1398 H1384 0.930 . S
C1398 C1396 1.395 . S
C1398 C1401 1.403 . S
C1399 C1396 1.403 . S
C1399 C1400 1.524 . S
C1399 C1403 1.400 . S
C1400 H1385 0.960 . S
C1400 H1386 0.960 . S
C1400 H1387 0.960 . S
C1400 C1399 1.524 . S
C1401 C1398 1.403 . S
C1401 C1402 1.392 . S
C1401 C1405 1.495 . S
C1402 C1401 1.392 . S
C1402 C1403 1.385 . S
C1402 C1404 1.478 . S
C1403 H1397 0.930 . S
C1403 C1399 1.400 . S
C1403 C1402 1.385 . S
C1404 C1402 1.478 . S
C1404 C1406 1.381 . S
C1404 C1410 1.383 . S
C1405 C1401 1.495 . S
C1405 H1411 0.959 . S
C1405 H1412 0.961 . S
C1405 H1413 0.960 . S
C1406 C1404 1.381 . S
C1406 C1407 1.394 . S
C1406 H1414 0.930 . S
C1407 C1406 1.394 . S
C1407 C1408 1.383 . S
C1407 H1415 0.929 . S
C1408 C1407 1.383 . S
C1408 C1409 1.377 . S
C1409 H1393 0.930 . S
C1409 C1408 1.377 . S
C1409 C1410 1.379 . S
C1410 H1394 0.931 . S
C1410 C1404 1.383 . S
C1410 C1409 1.379 . S
H1411 C1405 0.959 . S
H1412 C1405 0.961 . S
H1413 C1405 0.960 . S
H1414 C1406 0.930 . S
H1415 C1407 0.929 . S
H1416 C1424 0.929 . S
H1417 C1426 0.930 . S
H1418 C1428 0.930 . S
H1419 C1431 0.929 . S
H1420 C1434 0.930 . S
H1421 C1436 0.960 . S
H1422 C1436 0.960 . S
H1423 C1436 0.960 . S
C1424 H1416 0.929 . S
C1424 C1425 1.377 . S
C1424 C1426 1.384 . S
C1425 C1424 1.377 . S
C1425 C1431 1.390 . S
C1426 H1417 0.930 . S
C1426 C1424 1.384 . S
C1426 C1427 1.372 . S
C1427 C1426 1.372 . S
C1427 C1428 1.400 . S
C1427 C1432 1.490 . S
C1428 H1418 0.930 . S
C1428 C1427 1.400 . S
C1428 C1431 1.386 . S
H1429 C1445 0.930 . S
H1430 C1446 0.931 . S
C1431 H1419 0.929 . S
C1431 C1425 1.390 . S
C1431 C1428 1.386 . S
C1432 C1427 1.490 . S
C1432 C1434 1.395 . S
C1432 C1435 1.403 . S
H1433 C1439 0.930 . S
C1434 H1420 0.930 . S
C1434 C1432 1.395 . S
C1434 C1437 1.403 . S
C1435 C1432 1.403 . S
C1435 C1436 1.524 . S
C1435 C1439 1.400 . S
C1436 H1421 0.960 . S
C1436 H1422 0.960 . S
C1436 H1423 0.960 . S
C1436 C1435 1.524 . S
C1437 C1434 1.403 . S
C1437 C1438 1.392 . S
C1437 C1441 1.495 . S
C1438 C1437 1.392 . S
C1438 C1439 1.385 . S
C1438 C1440 1.478 . S
C1439 H1433 0.930 . S
C1439 C1435 1.400 . S
C1439 C1438 1.385 . S
C1440 C1438 1.478 . S
C1440 C1442 1.381 . S
C1440 C1446 1.383 . S
C1441 C1437 1.495 . S
C1441 H1447 0.959 . S
C1441 H1448 0.961 . S
C1441 H1449 0.960 . S
C1442 C1440 1.381 . S
C1442 C1443 1.394 . S
C1442 H1450 0.930 . S
C1443 C1442 1.394 . S
C1443 C1444 1.383 . S
C1443 H1451 0.929 . S
C1444 C1443 1.383 . S
C1444 C1445 1.377 . S
C1445 H1429 0.930 . S
C1445 C1444 1.377 . S
C1445 C1446 1.379 . S
C1446 H1430 0.931 . S
C1446 C1440 1.383 . S
C1446 C1445 1.379 . S
H1447 C1441 0.959 . S
H1448 C1441 0.961 . S
H1449 C1441 0.960 . S
H1450 C1442 0.930 . S
H1451 C1443 0.929 . S
H1452 C1460 0.929 . S
H1453 C1462 0.930 . S
H1454 C1464 0.930 . S
H1455 C1467 0.929 . S
H1456 C1470 0.930 . S
H1457 C1472 0.960 . S
H1458 C1472 0.960 . S
H1459 C1472 0.960 . S
C1460 H1452 0.929 . S
C1460 C1461 1.377 . S
C1460 C1462 1.384 . S
C1461 C1460 1.377 . S
C1461 C1467 1.390 . S
C1462 H1453 0.930 . S
C1462 C1460 1.384 . S
C1462 C1463 1.372 . S
C1463 C1462 1.372 . S
C1463 C1464 1.400 . S
C1463 C1468 1.490 . S
C1464 H1454 0.930 . S
C1464 C1463 1.400 . S
C1464 C1467 1.386 . S
H1465 C1481 0.930 . S
H1466 C1482 0.931 . S
C1467 H1455 0.929 . S
C1467 C1461 1.390 . S
C1467 C1464 1.386 . S
C1468 C1463 1.490 . S
C1468 C1470 1.395 . S
C1468 C1471 1.403 . S
H1469 C1475 0.930 . S
C1470 H1456 0.930 . S
C1470 C1468 1.395 . S
C1470 C1473 1.403 . S
C1471 C1468 1.403 . S
C1471 C1472 1.524 . S
C1471 C1475 1.400 . S
C1472 H1457 0.960 . S
C1472 H1458 0.960 . S
C1472 H1459 0.960 . S
C1472 C1471 1.524 . S
C1473 C1470 1.403 . S
C1473 C1474 1.392 . S
C1473 C1477 1.495 . S
C1474 C1473 1.392 . S
C1474 C1475 1.385 . S
C1474 C1476 1.478 . S
C1475 H1469 0.930 . S
C1475 C1471 1.400 . S
C1475 C1474 1.385 . S
C1476 C1474 1.478 . S
C1476 C1478 1.381 . S
C1476 C1482 1.383 . S
C1477 C1473 1.495 . S
C1477 H1483 0.959 . S
C1477 H1484 0.961 . S
C1477 H1485 0.960 . S
C1478 C1476 1.381 . S
C1478 C1479 1.394 . S
C1478 H1486 0.930 . S
C1479 C1478 1.394 . S
C1479 C1480 1.383 . S
C1479 H1487 0.929 . S
C1480 C1479 1.383 . S
C1480 C1481 1.377 . S
C1481 H1465 0.930 . S
C1481 C1480 1.377 . S
C1481 C1482 1.379 . S
C1482 H1466 0.931 . S
C1482 C1476 1.383 . S
C1482 C1481 1.379 . S
H1483 C1477 0.959 . S
H1484 C1477 0.961 . S
H1485 C1477 0.960 . S
H1486 C1478 0.930 . S
H1487 C1479 0.929 . S
H1488 C1496 0.929 . S
H1489 C1498 0.930 . S
H1490 C1500 0.930 . S
H1491 C1503 0.929 . S
H1492 C1506 0.930 . S
H1493 C1508 0.960 . S
H1494 C1508 0.960 . S
H1495 C1508 0.960 . S
C1496 H1488 0.929 . S
C1496 C1497 1.377 . S
C1496 C1498 1.384 . S
C1497 C1496 1.377 . S
C1497 C1503 1.390 . S
C1498 H1489 0.930 . S
C1498 C1496 1.384 . S
C1498 C1499 1.372 . S
C1499 C1498 1.372 . S
C1499 C1500 1.400 . S
C1499 C1504 1.490 . S
C1500 H1490 0.930 . S
C1500 C1499 1.400 . S
C1500 C1503 1.386 . S
H1501 C1517 0.930 . S
H1502 C1518 0.931 . S
C1503 H1491 0.929 . S
C1503 C1497 1.390 . S
C1503 C1500 1.386 . S
C1504 C1499 1.490 . S
C1504 C1506 1.395 . S
C1504 C1507 1.403 . S
H1505 C1511 0.930 . S
C1506 H1492 0.930 . S
C1506 C1504 1.395 . S
C1506 C1509 1.403 . S
C1507 C1504 1.403 . S
C1507 C1508 1.524 . S
C1507 C1511 1.400 . S
C1508 H1493 0.960 . S
C1508 H1494 0.960 . S
C1508 H1495 0.960 . S
C1508 C1507 1.524 . S
C1509 C1506 1.403 . S
C1509 C1510 1.392 . S
C1509 C1513 1.495 . S
C1510 C1509 1.392 . S
C1510 C1511 1.385 . S
C1510 C1512 1.478 . S
C1511 H1505 0.930 . S
C1511 C1507 1.400 . S
C1511 C1510 1.385 . S
C1512 C1510 1.478 . S
C1512 C1514 1.381 . S
C1512 C1518 1.383 . S
C1513 C1509 1.495 . S
C1513 H1519 0.959 . S
C1513 H1520 0.961 . S
C1513 H1521 0.960 . S
C1514 C1512 1.381 . S
C1514 C1515 1.394 . S
C1514 H1522 0.930 . S
C1515 C1514 1.394 . S
C1515 C1516 1.383 . S
C1515 H1523 0.929 . S
C1516 C1515 1.383 . S
C1516 C1517 1.377 . S
C1517 H1501 0.930 . S
C1517 C1516 1.377 . S
C1517 C1518 1.379 . S
C1518 H1502 0.931 . S
C1518 C1512 1.383 . S
C1518 C1517 1.379 . S
H1519 C1513 0.959 . S
H1520 C1513 0.961 . S
H1521 C1513 0.960 . S
H1522 C1514 0.930 . S
H1523 C1515 0.929 . S
H1524 C1532 0.929 . S
H1525 C1534 0.930 . S
H1526 C1536 0.930 . S
H1527 C1539 0.929 . S
H1528 C1542 0.930 . S
H1529 C1544 0.960 . S
H1530 C1544 0.960 . S
H1531 C1544 0.960 . S
C1532 H1524 0.929 . S
C1532 C1533 1.377 . S
C1532 C1534 1.384 . S
C1533 C1532 1.377 . S
C1533 C1539 1.390 . S
C1534 H1525 0.930 . S
C1534 C1532 1.384 . S
C1534 C1535 1.372 . S
C1535 C1534 1.372 . S
C1535 C1536 1.400 . S
C1535 C1540 1.490 . S
C1536 H1526 0.930 . S
C1536 C1535 1.400 . S
C1536 C1539 1.386 . S
H1537 C1553 0.930 . S
H1538 C1554 0.931 . S
C1539 H1527 0.929 . S
C1539 C1533 1.390 . S
C1539 C1536 1.386 . S
C1540 C1535 1.490 . S
C1540 C1542 1.395 . S
C1540 C1543 1.403 . S
H1541 C1547 0.930 . S
C1542 H1528 0.930 . S
C1542 C1540 1.395 . S
C1542 C1545 1.403 . S
C1543 C1540 1.403 . S
C1543 C1544 1.524 . S
C1543 C1547 1.400 . S
C1544 H1529 0.960 . S
C1544 H1530 0.960 . S
C1544 H1531 0.960 . S
C1544 C1543 1.524 . S
C1545 C1542 1.403 . S
C1545 C1546 1.392 . S
C1545 C1549 1.495 . S
C1546 C1545 1.392 . S
C1546 C1547 1.385 . S
C1546 C1548 1.478 . S
C1547 H1541 0.930 . S
C1547 C1543 1.400 . S
C1547 C1546 1.385 . S
C1548 C1546 1.478 . S
C1548 C1550 1.381 . S
C1548 C1554 1.383 . S
C1549 C1545 1.495 . S
C1549 H1555 0.959 . S
C1549 H1556 0.961 . S
C1549 H1557 0.960 . S
C1550 C1548 1.381 . S
C1550 C1551 1.394 . S
C1550 H1558 0.930 . S
C1551 C1550 1.394 . S
C1551 C1552 1.383 . S
C1551 H1559 0.929 . S
C1552 C1551 1.383 . S
C1552 C1553 1.377 . S
C1553 H1537 0.930 . S
C1553 C1552 1.377 . S
C1553 C1554 1.379 . S
C1554 H1538 0.931 . S
C1554 C1548 1.383 . S
C1554 C1553 1.379 . S
H1555 C1549 0.959 . S
H1556 C1549 0.961 . S
H1557 C1549 0.960 . S
H1558 C1550 0.930 . S
H1559 C1551 0.929 . S
H1560 C1568 0.929 . S
H1561 C1570 0.930 . S
H1562 C1572 0.930 . S
H1563 C1575 0.929 . S
H1564 C1578 0.930 . S
H1565 C1580 0.960 . S
H1566 C1580 0.960 . S
H1567 C1580 0.960 . S
C1568 H1560 0.929 . S
C1568 C1569 1.377 . S
C1568 C1570 1.384 . S
C1569 C1568 1.377 . S
C1569 C1575 1.390 . S
C1570 H1561 0.930 . S
C1570 C1568 1.384 . S
C1570 C1571 1.372 . S
C1571 C1570 1.372 . S
C1571 C1572 1.400 . S
C1571 C1576 1.490 . S
C1572 H1562 0.930 . S
C1572 C1571 1.400 . S
C1572 C1575 1.386 . S
H1573 C1589 0.930 . S
H1574 C1590 0.931 . S
C1575 H1563 0.929 . S
C1575 C1569 1.390 . S
C1575 C1572 1.386 . S
C1576 C1571 1.490 . S
C1576 C1578 1.395 . S
C1576 C1579 1.403 . S
H1577 C1583 0.930 . S
C1578 H1564 0.930 . S
C1578 C1576 1.395 . S
C1578 C1581 1.403 . S
C1579 C1576 1.403 . S
C1579 C1580 1.524 . S
C1579 C1583 1.400 . S
C1580 H1565 0.960 . S
C1580 H1566 0.960 . S
C1580 H1567 0.960 . S
C1580 C1579 1.524 . S
C1581 C1578 1.403 . S
C1581 C1582 1.392 . S
C1581 C1585 1.493 . S
C1582 C1581 1.392 . S
C1582 C1583 1.385 . S
C1582 C1584 1.478 1_455 S
C1583 H1577 0.930 . S
C1583 C1579 1.400 . S
C1583 C1582 1.385 . S
C1584 C1582 1.478 1_655 S
C1584 C1586 1.381 . S
C1584 C1590 1.383 . S
C1585 C1581 1.493 . S
C1585 H1591 0.957 . S
C1585 H1592 0.962 1_455 S
C1585 H1593 0.963 1_455 S
C1586 C1584 1.381 . S
C1586 C1587 1.394 . S
C1586 H1594 0.930 . S
C1587 C1586 1.394 . S
C1587 C1588 1.383 . S
C1587 H1595 0.929 . S
C1588 C1587 1.383 . S
C1588 C1589 1.377 . S
C1589 H1573 0.930 . S
C1589 C1588 1.377 . S
C1589 C1590 1.379 . S
C1590 H1574 0.931 . S
C1590 C1584 1.383 . S
C1590 C1589 1.379 . S
H1591 C1585 0.957 . S
H1592 C1585 0.962 1_655 S
H1593 C1585 0.963 1_655 S
H1594 C1586 0.930 . S
H1595 C1587 0.929 . S
H1596 C1604 0.929 . S
H1597 C1606 0.930 . S
H1598 C1608 0.930 . S
H1599 C1611 0.929 . S
H1600 C1614 0.930 . S
H1601 C1616 0.960 . S
H1602 C1616 0.960 . S
H1603 C1616 0.960 . S
C1604 H1596 0.929 . S
C1604 C1605 1.377 . S
C1604 C1606 1.384 . S
C1605 C1604 1.377 . S
C1605 C1611 1.390 . S
C1606 H1597 0.930 . S
C1606 C1604 1.384 . S
C1606 C1607 1.372 . S
C1607 C1606 1.372 . S
C1607 C1608 1.400 . S
C1607 C1612 1.490 . S
C1608 H1598 0.930 . S
C1608 C1607 1.400 . S
C1608 C1611 1.386 . S
H1609 C1625 0.930 . S
H1610 C1626 0.931 . S
C1611 H1599 0.929 . S
C1611 C1605 1.390 . S
C1611 C1608 1.386 . S
C1612 C1607 1.490 . S
C1612 C1614 1.395 . S
C1612 C1615 1.403 . S
H1613 C1619 0.930 . S
C1614 H1600 0.930 . S
C1614 C1612 1.395 . S
C1614 C1617 1.403 . S
C1615 C1612 1.403 . S
C1615 C1616 1.524 . S
C1615 C1619 1.400 . S
C1616 H1601 0.960 . S
C1616 H1602 0.960 . S
C1616 H1603 0.960 . S
C1616 C1615 1.524 . S
C1617 C1614 1.403 . S
C1617 C1618 1.392 . S
C1617 C1621 1.495 . S
C1618 C1617 1.392 . S
C1618 C1619 1.385 . S
C1618 C1620 1.478 . S
C1619 H1613 0.930 . S
C1619 C1615 1.400 . S
C1619 C1618 1.385 . S
C1620 C1618 1.478 . S
C1620 C1622 1.381 . S
C1620 C1626 1.383 . S
C1621 C1617 1.495 . S
C1621 H1627 0.959 . S
C1621 H1628 0.961 . S
C1621 H1629 0.960 . S
C1622 C1620 1.381 . S
C1622 C1623 1.394 . S
C1622 H1630 0.930 . S
C1623 C1622 1.394 . S
C1623 C1624 1.383 . S
C1623 H1631 0.929 . S
C1624 C1623 1.383 . S
C1624 C1625 1.377 . S
C1625 H1609 0.930 . S
C1625 C1624 1.377 . S
C1625 C1626 1.379 . S
C1626 H1610 0.931 . S
C1626 C1620 1.383 . S
C1626 C1625 1.379 . S
H1627 C1621 0.959 . S
H1628 C1621 0.961 . S
H1629 C1621 0.960 . S
H1630 C1622 0.930 . S
H1631 C1623 0.929 . S
H1632 C1640 0.929 . S
H1633 C1642 0.930 . S
H1634 C1644 0.930 . S
H1635 C1647 0.929 . S
H1636 C1650 0.930 . S
H1637 C1652 0.960 . S
H1638 C1652 0.960 . S
H1639 C1652 0.960 . S
C1640 H1632 0.929 . S
C1640 C1641 1.377 . S
C1640 C1642 1.384 . S
C1641 C1640 1.377 . S
C1641 C1647 1.390 . S
C1642 H1633 0.930 . S
C1642 C1640 1.384 . S
C1642 C1643 1.372 . S
C1643 C1642 1.372 . S
C1643 C1644 1.400 . S
C1643 C1648 1.490 . S
C1644 H1634 0.930 . S
C1644 C1643 1.400 . S
C1644 C1647 1.386 . S
H1645 C1661 0.930 . S
H1646 C1662 0.931 . S
C1647 H1635 0.929 . S
C1647 C1641 1.390 . S
C1647 C1644 1.386 . S
C1648 C1643 1.490 . S
C1648 C1650 1.395 . S
C1648 C1651 1.403 . S
H1649 C1655 0.930 . S
C1650 H1636 0.930 . S
C1650 C1648 1.395 . S
C1650 C1653 1.403 . S
C1651 C1648 1.403 . S
C1651 C1652 1.524 . S
C1651 C1655 1.400 . S
C1652 H1637 0.960 . S
C1652 H1638 0.960 . S
C1652 H1639 0.960 . S
C1652 C1651 1.524 . S
C1653 C1650 1.403 . S
C1653 C1654 1.392 . S
C1653 C1657 1.495 . S
C1654 C1653 1.392 . S
C1654 C1655 1.385 . S
C1654 C1656 1.478 . S
C1655 H1649 0.930 . S
C1655 C1651 1.400 . S
C1655 C1654 1.385 . S
C1656 C1654 1.478 . S
C1656 C1658 1.381 . S
C1656 C1662 1.383 . S
C1657 C1653 1.495 . S
C1657 H1663 0.959 . S
C1657 H1664 0.961 . S
C1657 H1665 0.960 . S
C1658 C1656 1.381 . S
C1658 C1659 1.394 . S
C1658 H1666 0.930 . S
C1659 C1658 1.394 . S
C1659 C1660 1.383 . S
C1659 H1667 0.929 . S
C1660 C1659 1.383 . S
C1660 C1661 1.377 . S
C1661 H1645 0.930 . S
C1661 C1660 1.377 . S
C1661 C1662 1.379 . S
C1662 H1646 0.931 . S
C1662 C1656 1.383 . S
C1662 C1661 1.379 . S
H1663 C1657 0.959 . S
H1664 C1657 0.961 . S
H1665 C1657 0.960 . S
H1666 C1658 0.930 . S
H1667 C1659 0.929 . S
H1668 C1676 0.929 . S
H1669 C1678 0.930 . S
H1670 C1680 0.930 . S
H1671 C1683 0.929 . S
H1672 C1686 0.930 . S
H1673 C1688 0.960 . S
H1674 C1688 0.960 . S
H1675 C1688 0.960 . S
C1676 H1668 0.929 . S
C1676 C1677 1.377 . S
C1676 C1678 1.384 . S
C1677 C1676 1.377 . S
C1677 C1683 1.390 . S
C1678 H1669 0.930 . S
C1678 C1676 1.384 . S
C1678 C1679 1.372 . S
C1679 C1678 1.372 . S
C1679 C1680 1.400 . S
C1679 C1684 1.490 . S
C1680 H1670 0.930 . S
C1680 C1679 1.400 . S
C1680 C1683 1.386 . S
H1681 C1697 0.930 . S
H1682 C1698 0.931 . S
C1683 H1671 0.929 . S
C1683 C1677 1.390 . S
C1683 C1680 1.386 . S
C1684 C1679 1.490 . S
C1684 C1686 1.395 . S
C1684 C1687 1.403 . S
H1685 C1691 0.930 . S
C1686 H1672 0.930 . S
C1686 C1684 1.395 . S
C1686 C1689 1.403 . S
C1687 C1684 1.403 . S
C1687 C1688 1.524 . S
C1687 C1691 1.400 . S
C1688 H1673 0.960 . S
C1688 H1674 0.960 . S
C1688 H1675 0.960 . S
C1688 C1687 1.524 . S
C1689 C1686 1.403 . S
C1689 C1690 1.392 . S
C1689 C1693 1.495 . S
C1690 C1689 1.392 . S
C1690 C1691 1.385 . S
C1690 C1692 1.478 . S
C1691 H1685 0.930 . S
C1691 C1687 1.400 . S
C1691 C1690 1.385 . S
C1692 C1690 1.478 . S
C1692 C1694 1.381 . S
C1692 C1698 1.383 . S
C1693 C1689 1.495 . S
C1693 H1699 0.959 . S
C1693 H1700 0.961 . S
C1693 H1701 0.960 . S
C1694 C1692 1.381 . S
C1694 C1695 1.394 . S
C1694 H1702 0.930 . S
C1695 C1694 1.394 . S
C1695 C1696 1.383 . S
C1695 H1703 0.929 . S
C1696 C1695 1.383 . S
C1696 C1697 1.377 . S
C1697 H1681 0.930 . S
C1697 C1696 1.377 . S
C1697 C1698 1.379 . S
C1698 H1682 0.931 . S
C1698 C1692 1.383 . S
C1698 C1697 1.379 . S
H1699 C1693 0.959 . S
H1700 C1693 0.961 . S
H1701 C1693 0.960 . S
H1702 C1694 0.930 . S
H1703 C1695 0.929 . S
H1704 C1712 0.929 . S
H1705 C1714 0.930 . S
H1706 C1716 0.930 . S
H1707 C1719 0.929 . S
H1708 C1722 0.930 . S
H1709 C1724 0.960 . S
H1710 C1724 0.960 . S
H1711 C1724 0.960 . S
C1712 H1704 0.929 . S
C1712 C1713 1.377 . S
C1712 C1714 1.384 . S
C1713 C1712 1.377 . S
C1713 C1719 1.390 . S
C1714 H1705 0.930 . S
C1714 C1712 1.384 . S
C1714 C1715 1.372 . S
C1715 C1714 1.372 . S
C1715 C1716 1.400 . S
C1715 C1720 1.490 . S
C1716 H1706 0.930 . S
C1716 C1715 1.400 . S
C1716 C1719 1.386 . S
H1717 C1733 0.930 . S
H1718 C1734 0.931 . S
C1719 H1707 0.929 . S
C1719 C1713 1.390 . S
C1719 C1716 1.386 . S
C1720 C1715 1.490 . S
C1720 C1722 1.395 . S
C1720 C1723 1.403 . S
H1721 C1727 0.930 . S
C1722 H1708 0.930 . S
C1722 C1720 1.395 . S
C1722 C1725 1.403 . S
C1723 C1720 1.403 . S
C1723 C1724 1.524 1_556 S
C1723 C1727 1.400 . S
C1724 H1709 0.960 . S
C1724 H1710 0.960 . S
C1724 H1711 0.960 . S
C1724 C1723 1.524 1_554 S
C1725 C1722 1.403 . S
C1725 C1726 1.392 . S
C1725 C1729 1.495 . S
C1726 C1725 1.392 . S
C1726 C1727 1.385 . S
C1726 C1728 1.478 . S
C1727 H1721 0.930 . S
C1727 C1723 1.400 . S
C1727 C1726 1.385 . S
C1728 C1726 1.478 . S
C1728 C1730 1.381 . S
C1728 C1734 1.383 . S
C1729 C1725 1.495 . S
C1729 H1735 0.959 . S
C1729 H1736 0.961 . S
C1729 H1737 0.960 . S
C1730 C1728 1.381 . S
C1730 C1731 1.394 . S
C1730 H1738 0.930 . S
C1731 C1730 1.394 . S
C1731 C1732 1.383 . S
C1731 H1739 0.929 . S
C1732 C1731 1.383 . S
C1732 C1733 1.377 . S
C1733 H1717 0.930 . S
C1733 C1732 1.377 . S
C1733 C1734 1.379 . S
C1734 H1718 0.931 . S
C1734 C1728 1.383 . S
C1734 C1733 1.379 . S
H1735 C1729 0.959 . S
H1736 C1729 0.961 . S
H1737 C1729 0.960 . S
H1738 C1730 0.930 . S
H1739 C1731 0.929 . S
H1740 C1748 0.929 . S
H1741 C1750 0.930 . S
H1742 C1752 0.930 . S
H1743 C1755 0.929 . S
H1744 C1758 0.930 . S
H1745 C1760 0.960 . S
H1746 C1760 0.960 . S
H1747 C1760 0.960 . S
C1748 H1740 0.929 . S
C1748 C1749 1.377 . S
C1748 C1750 1.384 . S
C1749 C1748 1.377 . S
C1749 C1755 1.390 . S
C1750 H1741 0.930 . S
C1750 C1748 1.384 . S
C1750 C1751 1.372 . S
C1751 C1750 1.372 . S
C1751 C1752 1.400 . S
C1751 C1756 1.490 . S
C1752 H1742 0.930 . S
C1752 C1751 1.400 . S
C1752 C1755 1.386 . S
H1753 C1769 0.930 . S
H1754 C1770 0.931 . S
C1755 H1743 0.929 . S
C1755 C1749 1.390 . S
C1755 C1752 1.386 . S
C1756 C1751 1.490 . S
C1756 C1758 1.395 . S
C1756 C1759 1.403 . S
H1757 C1763 0.930 . S
C1758 H1744 0.930 . S
C1758 C1756 1.395 . S
C1758 C1761 1.403 . S
C1759 C1756 1.403 . S
C1759 C1760 1.524 . S
C1759 C1763 1.400 . S
C1760 H1745 0.960 . S
C1760 H1746 0.960 . S
C1760 H1747 0.960 . S
C1760 C1759 1.524 . S
C1761 C1758 1.403 . S
C1761 C1762 1.392 1_655 S
C1761 C1765 1.495 1_655 S
C1762 C1761 1.392 1_455 S
C1762 C1763 1.385 1_455 S
C1762 C1764 1.478 . S
C1763 H1757 0.930 . S
C1763 C1759 1.400 . S
C1763 C1762 1.385 1_655 S
C1764 C1762 1.478 . S
C1764 C1766 1.381 . S
C1764 C1770 1.383 . S
C1765 C1761 1.495 1_455 S
C1765 H1771 0.959 1_455 S
C1765 H1772 0.961 . S
C1765 H1773 0.960 . S
C1766 C1764 1.381 . S
C1766 C1767 1.394 . S
C1766 H1774 0.930 . S
C1767 C1766 1.394 . S
C1767 C1768 1.383 . S
C1767 H1775 0.929 . S
C1768 C1767 1.383 . S
C1768 C1769 1.377 . S
C1769 H1753 0.930 . S
C1769 C1768 1.377 . S
C1769 C1770 1.379 . S
C1770 H1754 0.931 . S
C1770 C1764 1.383 . S
C1770 C1769 1.379 . S
H1771 C1765 0.959 1_655 S
H1772 C1765 0.961 . S
H1773 C1765 0.960 . S
H1774 C1766 0.930 . S
H1775 C1767 0.929 . S
C489 C9 1.540 . S
C508 C448 1.609 . S
C525 C368 1.584 1_565 S
C544 C48 1.583 . S
C561 C89 1.323 . S
C580 C329 1.302 . S
C597 C128 1.554 . S
C616 C408 1.549 . S
C633 C168 1.963 . S
C652 C409 1.893 . S
C669 C209 1.233 . S
C688 C449 1.253 . S
C705 C369 1.677 . S
C724 C248 1.736 1_556 S
C741 C288 1.227 . S
C760 C328 1.217 . S
C777 C129 1.837 . S
C796 C169 1.796 . S
C813 C8 1.658 . S
C832 C208 1.662 . S
C849 C49 1.370 . S
C868 C249 1.357 . S
C885 C289 1.625 . S
C904 C88 1.675 . S
C921 C5 2.529 . S
C940 C339 2.569 . S
C957 C55 0.985 . S
C976 C418 0.899 . S
C993 C458 1.403 . S
C1012 C85 1.471 . S
C1029 C135 1.323 . S
C1048 C378 1.220 . S
C1065 C175 1.440 . S
C1084 C379 1.428 . S
C1101 C338 1.513 . S
C1120 C205 1.610 . S
C1137 C419 1.923 . S
C1156 C255 1.934 . S
C1173 C459 1.755 . S
C1192 C295 1.763 . S
C1209 C18 1.385 . S
C1228 C125 1.436 . S
C1245 C15 2.223 . S
C1264 C59 2.211 . S
C1281 C45 1.860 . S
C1300 C98 1.795 . S
C1317 C139 1.897 . S
C1336 C95 1.901 . S
C1353 C215 0.929 . S
C1372 C179 0.930 . S
C1389 C218 1.467 . S
C1408 C245 1.551 . S
C1425 C259 1.129 . S
C1444 C285 1.127 . S
C1461 C165 1.600 . S
C1480 C299 1.629 . S
C1497 C335 1.113 . S
C1516 C138 1.082 . S
C1533 C219 1.623 . S
C1552 C375 1.627 . S
C1569 C325 1.767 . S
C1588 C258 1.675 . S
C1605 C415 1.542 . S
C1624 C298 1.465 . S
C1641 C178 0.638 . S
C1660 C455 0.593 . S
C1677 C445 1.372 . S
C1696 C58 1.338 . S
C1713 C99 1.199 . S
C1732 C365 1.191 . S
C1749 C405 1.739 . S
C1768 C19 1.766 . S
