# Generated by pormake.
# Topology uku, (4)-cn, num edge types: 1
# Building blocks:
#     Node 0, Type 0, BuildingBlock: CEKHIL_clean_sbu_0, # of connection points: 4
#     Node 1, Type 0, BuildingBlock: CEKHIL_clean_sbu_0, # of connection points: 4
#     Node 2, Type 0, BuildingBlock: CEKHIL_clean_sbu_0, # of connection points: 4
#     Node 3, Type 0, BuildingBlock: CEKHIL_clean_sbu_0, # of connection points: 4
#     Node 4, Type 0, BuildingBlock: CEKHIL_clean_sbu_0, # of connection points: 4
#     Node 5, Type 0, BuildingBlock: CEKHIL_clean_sbu_0, # of connection points: 4
#     Node 6, Type 0, BuildingBlock: CEKHIL_clean_sbu_0, # of connection points: 4
#     Node 7, Type 0, BuildingBlock: CEKHIL_clean_sbu_0, # of connection points: 4
#     Node 8, Type 0, BuildingBlock: CEKHIL_clean_sbu_0, # of connection points: 4
#     Node 9, Type 0, BuildingBlock: CEKHIL_clean_sbu_0, # of connection points: 4
#     Node 10, Type 0, BuildingBlock: CEKHIL_clean_sbu_0, # of connection points: 4
#     Node 11, Type 0, BuildingBlock: CEKHIL_clean_sbu_0, # of connection points: 4
#     Edge 12, Type (0, 0), BuildingBlock: XIVTED_clean_linker_0, # of connection points: 2
#     Edge 13, Type (0, 0), BuildingBlock: XIVTED_clean_linker_0, # of connection points: 2
#     Edge 14, Type (0, 0), BuildingBlock: XIVTED_clean_linker_0, # of connection points: 2
#     Edge 15, Type (0, 0), BuildingBlock: XIVTED_clean_linker_0, # of connection points: 2
#     Edge 16, Type (0, 0), BuildingBlock: XIVTED_clean_linker_0, # of connection points: 2
#     Edge 17, Type (0, 0), BuildingBlock: XIVTED_clean_linker_0, # of connection points: 2
#     Edge 18, Type (0, 0), BuildingBlock: XIVTED_clean_linker_0, # of connection points: 2
#     Edge 19, Type (0, 0), BuildingBlock: XIVTED_clean_linker_0, # of connection points: 2
#     Edge 20, Type (0, 0), BuildingBlock: XIVTED_clean_linker_0, # of connection points: 2
#     Edge 21, Type (0, 0), BuildingBlock: XIVTED_clean_linker_0, # of connection points: 2
#     Edge 22, Type (0, 0), BuildingBlock: XIVTED_clean_linker_0, # of connection points: 2
#     Edge 23, Type (0, 0), BuildingBlock: XIVTED_clean_linker_0, # of connection points: 2
#     Edge 24, Type (0, 0), BuildingBlock: XIVTED_clean_linker_0, # of connection points: 2
#     Edge 25, Type (0, 0), BuildingBlock: XIVTED_clean_linker_0, # of connection points: 2
#     Edge 26, Type (0, 0), BuildingBlock: XIVTED_clean_linker_0, # of connection points: 2
#     Edge 27, Type (0, 0), BuildingBlock: XIVTED_clean_linker_0, # of connection points: 2
#     Edge 28, Type (0, 0), BuildingBlock: XIVTED_clean_linker_0, # of connection points: 2
#     Edge 29, Type (0, 0), BuildingBlock: XIVTED_clean_linker_0, # of connection points: 2
#     Edge 30, Type (0, 0), BuildingBlock: XIVTED_clean_linker_0, # of connection points: 2
#     Edge 31, Type (0, 0), BuildingBlock: XIVTED_clean_linker_0, # of connection points: 2
#     Edge 32, Type (0, 0), BuildingBlock: XIVTED_clean_linker_0, # of connection points: 2
#     Edge 33, Type (0, 0), BuildingBlock: XIVTED_clean_linker_0, # of connection points: 2
#     Edge 34, Type (0, 0), BuildingBlock: XIVTED_clean_linker_0, # of connection points: 2
#     Edge 35, Type (0, 0), BuildingBlock: XIVTED_clean_linker_0, # of connection points: 2
# Relax obj value: 0.371
# Max RMSD: 0.262
# Mean RMSD: 0.262
data_MOF--net-uku--node1-CEKHIL_clean_sbu_0--edge1-XIVTED_clean_linker_0
_symmetry_space_group_name_H-M    P1
_symmetry_Int_Tables_number       1
_symmetry_cell_setting            triclinic
loop_
_symmetry_equiv_pos_as_xyz
'x, y, z'
_cell_length_a     41.058502
_cell_length_b     41.058935
_cell_length_c     41.060298
_cell_angle_alpha  89.959685
_cell_angle_beta   90.030397
_cell_angle_gamma 89.959295
loop_
_atom_site_label
_atom_site_type_symbol
_atom_site_fract_x
_atom_site_fract_y
_atom_site_fract_z
_atom_type_partial_charge
Co0 Co 0.04884 0.17526 0.65283 0.0
O1 O 0.01033 0.18383 0.62754 0.0
O2 O 0.05485 0.15865 0.60979 0.0
C3 C 0.05484 0.22471 0.67538 0.0
O4 O 0.09322 0.16291 0.6702 0.0
Co5 Co 0.04947 0.17867 0.72823 0.0
O6 O 0.09755 0.17548 0.72324 0.0
C7 C 0.02534 0.11926 0.69556 0.0
C8 C 0.02587 0.16986 0.60375 0.0
C9 C 0.10988 0.16577 0.69647 0.0
O10 O 0.03124 0.13196 0.66754 0.0
O11 O 0.02911 0.13465 0.72242 0.0
O12 O 0.06459 0.21945 0.64576 0.0
O13 O 0.0381 0.20152 0.68853 0.0
Co14 Co 0.97438 0.81801 0.6852 0.0
O15 O 0.00892 0.80369 0.65701 0.0
O16 O 0.96412 0.83008 0.64144 0.0
C17 C 0.9683 0.77286 0.71534 0.0
O18 O 0.93327 0.83542 0.70597 0.0
Co19 Co 0.9849 0.82523 0.75972 0.0
O20 O 0.93776 0.83617 0.76053 0.0
C21 C 0.00706 0.87747 0.71609 0.0
C22 C -0.00824 0.81675 0.63379 0.0
C23 C 0.92153 0.84067 0.73444 0.0
O24 O -0.00417 0.86166 0.69152 0.0
O25 O 0.00722 0.86603 0.74508 0.0
O26 O 0.95572 0.77439 0.68629 0.0
O27 O 0.98812 0.79615 0.7227 0.0
Co28 Co 0.04467 0.81868 0.34384 0.0
O29 O 0.02046 0.80125 0.37972 0.0
O30 O 0.06395 0.83333 0.3838 0.0
C31 C 0.04821 0.77278 0.31425 0.0
O32 O 0.07671 0.83994 0.31294 0.0
Co33 Co 0.01488 0.82072 0.27423 0.0
O34 O 0.05873 0.83651 0.2613 0.0
C35 C -0.00433 0.87041 0.32221 0.0
C36 C 0.04124 0.81652 0.39805 0.0
C37 C 0.08024 0.84458 0.2822 0.0
O38 O 0.01655 0.85904 0.34265 0.0
O39 O 0.98928 0.85662 0.295 0.0
O40 O 0.0678 0.77746 0.33868 0.0
O41 O 0.02483 0.79365 0.31147 0.0
Co42 Co 0.92798 0.17167 0.3236 0.0
O43 O 0.96221 0.18377 0.35281 0.0
O44 O 0.9134 0.16566 0.36764 0.0
C45 C 0.93074 0.2146 0.28971 0.0
O46 O 0.88652 0.15758 0.30079 0.0
Co47 Co 0.94312 0.15757 0.25063 0.0
O48 O 0.89515 0.15301 0.24686 0.0
C49 C 0.95716 0.10739 0.30016 0.0
C50 C 0.94226 0.17568 0.37599 0.0
C51 C 0.87652 0.15196 0.27167 0.0
O52 O 0.94449 0.1253 0.32254 0.0
O53 O 0.96119 0.11707 0.2708 0.0
O54 O 0.91538 0.21718 0.31728 0.0
O55 O 0.94733 0.18819 0.28601 0.0
Co56 Co 0.64315 0.04204 0.17084 0.0
O57 O 0.61196 0.00912 0.1824 0.0
O58 O 0.60083 0.05553 0.15677 0.0
C59 C 0.67038 0.04482 0.21829 0.0
O60 O 0.66736 0.08193 0.15547 0.0
Co61 Co 0.71773 0.02938 0.16946 0.0
O62 O 0.7212 0.07746 0.16402 0.0
C63 C 0.67652 0.00725 0.11458 0.0
C64 C 0.59052 0.02821 0.16892 0.0
C65 C 0.69622 0.09382 0.15548 0.0
O66 O 0.65125 0.0206 0.12744 0.0
O67 O 0.70427 0.00596 0.12881 0.0
O68 O 0.64268 0.05984 0.21499 0.0
O69 O 0.67817 0.02555 0.19473 0.0
Co70 Co 0.30712 0.94247 0.14136 0.0
O71 O 0.33465 0.97985 0.14794 0.0
O72 O 0.35164 0.9296 0.13722 0.0
C73 C 0.27358 0.94972 0.18402 0.0
O74 O 0.28771 0.89779 0.13444 0.0
Co75 Co 0.23305 0.9468 0.12703 0.0
O76 O 0.23319 0.89951 0.13748 0.0
C77 C 0.28056 0.95742 0.07374 0.0
C78 C 0.35876 0.95973 0.14355 0.0
C79 C 0.25987 0.88375 0.13614 0.0
O80 O 0.30446 0.95154 0.09317 0.0
O81 O 0.25079 0.95842 0.08302 0.0
O82 O 0.30221 0.93687 0.18826 0.0
O83 O 0.26797 0.96122 0.15526 0.0
Co84 Co 0.6798 0.9569 0.81015 0.0
O85 O 0.65076 0.99078 0.7961 0.0
O86 O 0.63586 0.9422 0.81491 0.0
C87 C 0.71528 0.95799 0.76855 0.0
O88 O 0.70182 0.9158 0.82608 0.0
Co89 Co 0.75226 0.97159 0.82665 0.0
O90 O 0.75543 0.92385 0.83386 0.0
C91 C 0.70119 0.98674 0.8748 0.0
C92 C 0.62756 0.97057 0.80359 0.0
C93 C 0.73033 0.90558 0.83386 0.0
O94 O 0.67931 0.97425 0.85616 0.0
O95 O 0.7309 0.99041 0.86612 0.0
O96 O 0.68753 0.94311 0.76534 0.0
O97 O 0.71818 0.97558 0.79443 0.0
Co98 Co 0.34103 0.04772 0.79024 0.0
O99 O 0.37322 0.01779 0.77453 0.0
O100 O 0.38238 0.05858 0.80895 0.0
C101 C 0.31676 0.05967 0.74284 0.0
O102 O 0.3147 0.08389 0.81104 0.0
Co103 Co 0.26748 0.03099 0.78481 0.0
O104 O 0.26118 0.07547 0.80274 0.0
C105 C 0.30638 0.00152 0.83734 0.0
C106 C 0.39367 0.03416 0.79228 0.0
C107 C 0.28474 0.09249 0.81367 0.0
O108 O 0.33119 0.0184 0.82839 0.0
O109 O 0.27954 0.00105 0.82147 0.0
O110 O 0.34401 0.07365 0.75072 0.0
O111 O 0.308 0.03567 0.76124 0.0
Co112 Co 0.15884 0.6388 0.05923 0.0
O113 O 0.17262 0.60809 0.0273 0.0
O114 O 0.14412 0.59596 0.07168 0.0
C115 C 0.2061 0.66547 0.06501 0.0
O116 O 0.14138 0.6643 0.09772 0.0
Co117 Co 0.15869 0.71243 0.04104 0.0
O118 O 0.1462 0.71802 0.08736 0.0
C119 C 0.10454 0.67081 0.01932 0.0
C120 C 0.15832 0.58623 0.04507 0.0
C121 C 0.13859 0.69436 0.106 0.0
O122 O 0.11677 0.64653 0.03494 0.0
O123 O 0.11902 0.69827 0.01651 0.0
O124 O 0.20143 0.6381 0.08017 0.0
O125 O 0.18434 0.67308 0.04363 0.0
Co126 Co 0.16162 0.30755 0.94258 0.0
O127 O 0.16669 0.33118 0.98292 0.0
O128 O 0.15398 0.35259 0.93483 0.0
C129 C 0.20643 0.27621 0.94544 0.0
O130 O 0.1551 0.29323 0.89604 0.0
Co131 Co 0.15241 0.23282 0.93785 0.0
O132 O 0.1598 0.23916 0.89035 0.0
C133 C 0.09623 0.27491 0.95457 0.0
C134 C 0.15978 0.35686 0.96558 0.0
C135 C 0.15684 0.26761 0.87833 0.0
O136 O 0.11393 0.30057 0.9515 0.0
O137 O 0.10751 0.24593 0.95201 0.0
O138 O 0.2087 0.30637 0.93599 0.0
O139 O 0.17831 0.26756 0.95652 0.0
Co140 Co 0.80491 0.66304 0.94967 0.0
O141 O 0.78869 0.63162 0.98015 0.0
O142 O 0.8139 0.62015 0.93361 0.0
C143 C 0.76155 0.69633 0.94722 0.0
O144 O 0.82431 0.68832 0.91205 0.0
Co145 Co 0.81538 0.73503 0.97084 0.0
O146 O 0.82756 0.74158 0.9245 0.0
C147 C 0.86468 0.68572 0.98791 0.0
C148 C 0.79991 0.60987 0.96007 0.0
C149 C 0.83139 0.7179 0.90478 0.0
O150 O 0.84857 0.66383 0.97234 0.0
O151 O 0.85409 0.71471 -0.00765 0.0
O152 O 0.76169 0.66924 0.93086 0.0
O153 O 0.78479 0.69942 0.96819 0.0
Co154 Co 0.80497 0.32158 0.03059 0.0
O155 O 0.78955 0.35156 -0.00187 0.0
O156 O 0.8209 0.36422 0.04046 0.0
C157 C 0.75844 0.29542 0.04137 0.0
O158 O 0.82457 0.29832 0.0694 0.0
Co159 Co 0.8045 0.24706 0.0178 0.0
O160 O 0.81923 0.24407 0.0638 0.0
C161 C 0.85661 0.28708 0.98944 0.0
C162 C 0.80508 0.37362 0.0147 0.0
C163 C 0.82773 0.2691 0.08007 0.0
O164 O 0.84529 0.31224 0.00425 0.0
O165 O 0.84229 0.2594 0.98955 0.0
O166 O 0.76394 0.3239 0.05396 0.0
O167 O 0.77845 0.2864 0.01879 0.0
H168 H 0.90454 0.16994 0.43071 0.0
H169 H 0.05738 0.15282 0.54816 0.0
H170 H 0.00406 0.18146 0.39879 0.0
H171 H 0.96358 0.18385 0.58423 0.0
H172 H 0.03591 0.15422 0.49287 0.0
H173 H 0.92382 0.16742 0.48727 0.0
C174 C 0.93038 0.17206 0.43563 0.0
C175 C 0.9528 0.17592 0.41017 0.0
C176 C 0.02003 0.16068 0.51289 0.0
C177 C 0.9748 0.17254 0.47421 0.0
C178 C 0.03217 0.1597 0.54446 0.0
C179 C 0.01222 0.16841 0.57072 0.0
C180 C 0.98762 0.17008 0.5076 0.0
C181 C 0.97976 0.17714 0.56455 0.0
C182 C 0.94128 0.17066 0.4678 0.0
C183 C 0.98597 0.17857 0.41772 0.0
N184 N 0.96836 0.17773 0.53347 0.0
N185 N -0.00401 0.17658 0.44909 0.0
H186 H 0.01966 0.7661 0.43502 0.0
H187 H 0.98456 0.86557 0.59012 0.0
H188 H 0.05657 0.86427 0.44123 0.0
H189 H 0.02486 0.76918 0.60148 0.0
H190 H 0.00184 0.86546 0.53293 0.0
H191 H 0.01247 0.76573 0.49441 0.0
C192 C 0.02635 0.78746 0.44898 0.0
C193 C 0.03862 0.81529 0.43355 0.0
C194 C 0.00709 0.84452 0.54812 0.0
C195 C 0.02993 0.81518 0.50055 0.0
C196 C -0.00289 0.84445 0.58047 0.0
C197 C 0.00333 0.81729 0.60014 0.0
C198 C 0.02235 0.81682 0.53534 0.0
C199 C 0.0198 0.79055 0.58685 0.0
C200 C 0.02247 0.78713 0.48266 0.0
C201 C 0.04713 0.84236 0.45246 0.0
N202 N 0.02829 0.79069 0.55489 0.0
N203 N 0.04203 0.84189 0.48511 0.0
H204 H 0.41241 0.92094 0.14607 0.0
H205 H 0.53942 0.0669 0.15155 0.0
H206 H 0.38259 0.02177 0.14889 0.0
H207 H 0.56334 0.9687 0.18071 0.0
H208 H 0.48247 0.05069 0.14558 0.0
H209 H 0.46883 0.9379 0.1533 0.0
C210 C 0.41776 0.94669 0.14809 0.0
C211 C 0.39286 0.97004 0.14688 0.0
C212 C 0.50018 0.03277 0.15344 0.0
C213 C 0.45729 0.98953 0.15516 0.0
C214 C 0.53264 0.04195 0.15677 0.0
C215 C 0.55603 0.01904 0.16659 0.0
C216 C 0.49121 0.00039 0.15956 0.0
C217 C 0.54601 0.9871 0.17314 0.0
C218 C 0.44994 0.95631 0.15239 0.0
C219 C 0.40113 0.00302 0.14975 0.0
N220 N 0.51431 0.97864 0.16929 0.0
N221 N 0.43276 0.01185 0.15365 0.0
H222 H 0.57514 0.93006 0.80235 0.0
H223 H 0.4443 0.07143 0.81354 0.0
H224 H 0.602 0.03159 0.79755 0.0
H225 H 0.42148 0.97693 0.77357 0.0
H226 H 0.50192 0.05613 0.815 0.0
H227 H 0.51778 0.94575 0.79868 0.0
C228 C 0.56892 0.95565 0.80047 0.0
C229 C 0.59318 0.97963 0.80023 0.0
C230 C 0.48425 0.03886 0.80582 0.0
C231 C 0.52798 -0.00239 0.79643 0.0
C232 C 0.45145 0.04746 0.80514 0.0
C233 C 0.42827 0.02536 0.79341 0.0
C234 C 0.49366 0.00778 0.79523 0.0
C235 C 0.43869 -0.00532 0.78268 0.0
C236 C 0.53629 0.96453 0.79826 0.0
C237 C 0.58395 0.0124 0.79767 0.0
N238 N 0.47071 0.98667 0.78407 0.0
N239 N 0.55194 0.0205 0.79614 0.0
H240 H 0.16134 0.37503 0.03013 0.0
H241 H 0.17506 0.56291 0.98582 0.0
H242 H 0.15615 0.41362 0.93238 0.0
H243 H 0.14139 0.53194 0.08053 0.0
H244 H 0.17529 0.5066 0.96798 0.0
H245 H 0.16028 0.43113 0.05132 0.0
C246 C 0.15999 0.39523 0.01321 0.0
C247 C 0.15891 0.38979 0.9795 0.0
C248 C 0.16774 0.51204 -0.00734 0.0
C249 C 0.15793 0.45328 0.00333 0.0
C250 C 0.16772 0.54419 0.00291 0.0
C251 C 0.15811 0.55202 0.03467 0.0
C252 C 0.15837 0.48739 0.01435 0.0
C253 C 0.1488 0.52679 0.05577 0.0
C254 C 0.15925 0.42707 0.02528 0.0
C255 C 0.15702 0.41668 0.95856 0.0
N256 N 0.14928 0.49537 0.04525 0.0
N257 N 0.15677 0.44721 0.97082 0.0
H258 H 0.7887 0.58205 0.01917 0.0
H259 H 0.78857 0.39951 0.95564 0.0
H260 H 0.80744 0.55867 0.91841 0.0
H261 H 0.8186 0.4259 0.05287 0.0
H262 H 0.78569 0.45753 0.94153 0.0
H263 H 0.78909 0.52391 0.03209 0.0
C264 C 0.79263 0.56465 -0.00026 0.0
C265 C 0.79819 0.57501 0.96772 0.0
C266 C 0.79296 0.45047 0.96588 0.0
C267 C 0.79849 0.50887 0.98227 0.0
C268 C 0.79453 0.41752 0.97396 0.0
C269 C 0.80392 0.40809 0.0054 0.0
C270 C 0.80017 0.47388 0.98968 0.0
C271 C 0.81145 0.43223 0.0283 0.0
C272 C 0.79303 0.53158 0.00717 0.0
C273 C 0.80326 0.55155 0.94344 0.0
N274 N 0.80918 0.46412 0.02003 0.0
N275 N 0.80319 0.51941 0.95121 0.0
H276 H 0.1598 0.18585 0.73561 0.0
H277 H 0.2657 0.03391 0.70948 0.0
H278 H 0.13735 0.1207 0.65636 0.0
H279 H 0.31113 0.12518 0.7347 0.0
H280 H 0.21783 0.06391 0.69008 0.0
H281 H 0.21505 0.16327 0.73764 0.0
C282 C 0.16665 0.16709 0.71846 0.0
C283 C 0.14405 0.15497 0.69598 0.0
C284 C 0.23868 0.07735 0.69905 0.0
C285 C 0.20661 0.12887 0.69836 0.0
C286 C 0.26591 0.06029 0.71001 0.0
C287 C 0.29222 0.07717 0.72361 0.0
C288 C 0.23753 0.1113 0.7028 0.0
C289 C 0.29135 0.11133 0.72415 0.0
C290 C 0.19813 0.15441 0.71943 0.0
C291 C 0.1541 0.1307 0.67409 0.0
N292 N 0.26399 0.12731 0.71468 0.0
N293 N 0.18451 0.11793 0.67625 0.0
H294 H 0.77614 0.98344 0.77194 0.0
H295 H 0.87027 0.8351 0.69204 0.0
H296 H 0.72194 0.904 0.72948 0.0
H297 H 0.90013 0.88245 0.78101 0.0
H298 H 0.81916 0.86649 0.69334 0.0
H299 H 0.82667 0.95452 0.76007 0.0
C300 C 0.77489 0.96028 0.75937 0.0
C301 C 0.74483 0.94572 0.75236 0.0
C302 C 0.83698 0.86976 0.71252 0.0
C303 C 0.80241 0.91268 0.73886 0.0
C304 C 0.86594 0.85189 0.71191 0.0
C305 C 0.88927 0.85613 0.73659 0.0
C306 C 0.83203 0.89258 0.73739 0.0
C307 C 0.88265 0.8782 0.76173 0.0
C308 C 0.80369 0.94373 0.75288 0.0
C309 C 0.74465 0.9159 0.73559 0.0
N310 N 0.85477 0.89589 0.76128 0.0
N311 N 0.77314 0.90002 0.72975 0.0
H312 H 0.211 0.97082 0.17914 0.0
H313 H 0.1394 0.84953 0.31281 0.0
H314 H 0.27347 0.9096 0.23762 0.0
H315 H 0.08778 0.87925 0.22608 0.0
H316 H 0.18723 0.88002 0.29389 0.0
H317 H 0.16366 0.94758 0.20639 0.0
C318 C 0.2148 0.95292 0.19816 0.0
C319 C 0.24616 0.94166 0.20572 0.0
C320 C 0.16535 0.87982 0.27915 0.0
C321 C 0.1921 0.91493 0.23681 0.0
C322 C 0.13813 0.86246 0.28984 0.0
C323 C 0.10968 0.86171 0.27084 0.0
C324 C 0.16375 0.89701 0.24967 0.0
C325 C 0.1093 0.87888 0.24132 0.0
C326 C 0.18776 0.93953 0.21352 0.0
C327 C 0.24967 0.91874 0.23087 0.0
N328 N 0.13588 0.89596 0.23172 0.0
N329 N 0.22285 0.90579 0.24535 0.0
H330 H 0.72769 0.01575 0.23271 0.0
H331 H 0.82224 0.16393 0.30913 0.0
H332 H 0.6732 0.10407 0.24965 0.0
H333 H 0.85547 0.11042 0.22496 0.0
H334 H 0.76876 0.13687 0.30413 0.0
H335 H 0.77711 0.0435 0.25048 0.0
C336 C 0.72593 0.04068 0.24117 0.0
C337 C 0.6965 0.05786 0.23913 0.0
C338 C 0.78789 0.13139 0.28682 0.0
C339 C 0.75281 0.08953 0.25931 0.0
C340 C 0.81819 0.14676 0.28952 0.0
C341 C 0.84318 0.13946 0.2673 0.0
C342 C 0.7833 0.10793 0.26249 0.0
C343 C 0.83684 0.11701 0.24241 0.0
C344 C 0.75414 0.05649 0.25103 0.0
C345 C 0.69552 0.09006 0.25068 0.0
N346 N 0.80767 0.10171 0.24097 0.0
N347 N 0.72357 0.10519 0.25986 0.0
H348 H 0.66005 0.12208 0.10801 0.0
H349 H 0.75204 0.29144 0.10711 0.0
H350 H 0.74224 0.13968 0.17123 0.0
H351 H 0.72625 0.24254 0.01778 0.0
H352 H 0.73306 0.24394 0.13794 0.0
H353 H 0.66953 0.17474 0.08179 0.0
C354 C 0.67979 0.13728 0.11671 0.0
C355 C 0.70055 0.12658 0.1417 0.0
C356 C 0.73096 0.24405 0.11164 0.0
C357 C 0.71095 0.18672 0.11222 0.0
C358 C 0.74134 0.27116 0.09407 0.0
C359 C 0.74043 0.27078 0.0599 0.0
C360 C 0.71886 0.21696 0.09487 0.0
C361 C 0.72715 0.24366 0.04411 0.0
C362 C 0.68517 0.16714 0.10166 0.0
C363 C 0.7259 0.14705 0.15185 0.0
N364 N 0.71678 0.2177 0.06177 0.0
N365 N 0.73038 0.17636 0.13708 0.0
H366 H 0.24205 0.71054 0.03289 0.0
H367 H 0.21447 0.84126 0.16023 0.0
H368 H 0.21342 0.6797 0.12909 0.0
H369 H 0.30284 0.84555 0.10346 0.0
H370 H 0.21046 0.78282 0.14799 0.0
H371 H 0.2632 0.7613 0.05616 0.0
C372 C 0.24121 0.71411 0.05902 0.0
C373 C 0.22635 0.69108 0.07923 0.0
C374 C 0.23104 0.79657 0.13885 0.0
C375 C 0.24882 0.74913 0.10555 0.0
C376 C 0.23317 0.8298 0.14557 0.0
C377 C 0.25885 0.84814 0.13259 0.0
C378 C 0.25418 0.78209 0.11829 0.0
C379 C 0.28264 0.83221 0.1139 0.0
C380 C 0.25314 0.74296 0.07224 0.0
C381 C 0.22518 0.69685 0.11287 0.0
N382 N 0.27934 0.80017 0.10664 0.0
N383 N 0.23544 0.72585 0.12498 0.0
H384 H 0.75975 0.75656 0.97445 0.0
H385 H 0.69186 0.85245 0.82138 0.0
H386 H 0.7285 0.70329 0.88937 0.0
H387 H 0.77411 0.8842 0.87867 0.0
H388 H 0.69265 0.80016 0.85075 0.0
H389 H 0.74928 0.80747 0.94561 0.0
C390 C 0.74992 0.75556 0.94998 0.0
C391 C 0.74573 0.72571 0.93398 0.0
C392 C 0.71053 0.81864 0.85659 0.0
C393 C 0.73379 0.78372 0.90104 0.0
C394 C 0.71024 0.84828 0.83986 0.0
C395 C 0.73308 0.87255 0.84756 0.0
C396 C 0.73316 0.81388 0.8817 0.0
C397 C 0.75629 0.86606 0.87174 0.0
C398 C 0.74425 0.78458 0.93351 0.0
C399 C 0.73241 0.72584 0.90245 0.0
N400 N 0.75547 0.83748 0.88825 0.0
N401 N 0.72726 0.75455 0.88672 0.0
H402 H 0.3216 0.14771 0.82159 0.0
H403 H 0.20879 0.21301 0.96402 0.0
H404 H 0.23102 0.10301 0.85061 0.0
H405 H 0.25349 0.28148 0.89794 0.0
H406 H 0.23249 0.16834 0.93289 0.0
H407 H 0.30946 0.19398 0.8579 0.0
C408 C 0.29919 0.14771 0.83549 0.0
C409 C 0.27713 0.12169 0.83303 0.0
C410 C 0.23759 0.19319 0.92562 0.0
C411 C 0.26396 0.17338 0.87499 0.0
C412 C 0.22435 0.21868 0.94347 0.0
C413 C 0.22869 0.25092 0.93313 0.0
C414 C 0.25559 0.2 0.89746 0.0
C415 C 0.24938 0.25691 0.90655 0.0
C416 C 0.2924 0.17395 0.85612 0.0
C417 C 0.24849 0.12273 0.85152 0.0
N418 N 0.26177 0.23153 0.88919 0.0
N419 N 0.2429 0.148 0.87197 0.0
H420 H 0.10166 0.73294 0.30854 0.0
H421 H 0.0992 0.74531 0.12005 0.0
H422 H 0.01614 0.76566 0.25669 0.0
H423 H 0.1444 0.66089 0.16355 0.0
H424 H 0.07367 0.75786 0.17222 0.0
H425 H 0.122 0.70849 0.25787 0.0
C426 C 0.08689 0.73443 0.28673 0.0
C427 C 0.0575 0.75194 0.28659 0.0
C428 C 0.08904 0.73648 0.17028 0.0
C429 C 0.08084 0.72484 0.22903 0.0
C430 C 0.10385 0.72952 0.1407 0.0
C431 C 0.12394 0.70211 0.13768 0.0
C432 C 0.09498 0.71637 0.19724 0.0
C433 C 0.12894 0.68221 0.16505 0.0
C434 C 0.09852 0.72053 0.25794 0.0
C435 C 0.03923 0.75299 0.25775 0.0
N436 N 0.11485 0.68998 0.19401 0.0
N437 N 0.05155 0.74027 0.22992 0.0
H438 H 0.03027 0.25968 0.72562 0.0
H439 H 0.17693 0.22844 0.82804 0.0
H440 H 0.11962 0.23832 0.67484 0.0
H441 H 0.12079 0.31482 0.84918 0.0
H442 H 0.15725 0.23071 0.77161 0.0
H443 H 0.06209 0.28116 0.77124 0.0
C444 C 0.05656 0.26072 0.72364 0.0
C445 C 0.07244 0.24732 0.69665 0.0
C446 C 0.14994 0.24952 0.78851 0.0
C447 C 0.10875 0.27008 0.74898 0.0
C448 C 0.16095 0.24812 0.82065 0.0
C449 C 0.15013 0.27122 0.84328 0.0
C450 C 0.12718 0.27344 0.7795 0.0
C451 C 0.12961 0.29643 0.83249 0.0
C452 C 0.07469 0.2728 0.74962 0.0
C453 C 0.10657 0.2487 0.69526 0.0
N454 N 0.11803 0.29635 0.80155 0.0
N455 N 0.12375 0.25876 0.72169 0.0
H456 H 0.82939 0.68222 0.84824 0.0
H457 H 0.9869 0.76843 0.77866 0.0
H458 H 0.87412 0.76668 0.89204 0.0
H459 H 0.91222 0.7364 0.71189 0.0
H460 H 0.95244 0.75202 0.82413 0.0
H461 H 0.86483 0.68933 0.80035 0.0
C462 C 0.84639 0.70238 0.84763 0.0
C463 C 0.8488 0.72399 0.87404 0.0
C464 C 0.94388 0.74815 0.79947 0.0
C465 C 0.88976 0.73128 0.82045 0.0
C466 C 0.96356 0.75726 0.77352 0.0
C467 C 0.95205 0.75447 0.74151 0.0
C468 C 0.91272 0.73569 0.79335 0.0
C469 C 0.92183 0.7393 0.73627 0.0
C470 C 0.86656 0.70627 0.82049 0.0
C471 C 0.87124 0.74963 0.87215 0.0
N472 N 0.90288 0.73076 0.76207 0.0
N473 N 0.89115 0.7523 0.84599 0.0
H474 H 0.87991 0.2579 0.28335 0.0
H475 H 0.86555 0.21812 0.09875 0.0
H476 H 0.95863 0.21313 0.22993 0.0
H477 H 0.82649 0.30947 0.13309 0.0
H478 H 0.89454 0.21177 0.15033 0.0
H479 H 0.85604 0.27593 0.23147 0.0
C480 C 0.89263 0.25265 0.26085 0.0
C481 C 0.92094 0.23346 0.26081 0.0
C482 C 0.8797 0.23327 0.14649 0.0
C483 C 0.89345 0.25307 0.20201 0.0
C484 C 0.8629 0.2367 0.11728 0.0
C485 C 0.84367 0.26433 0.11179 0.0
C486 C 0.87666 0.25725 0.17062 0.0
C487 C 0.84127 0.28788 0.13648 0.0
C488 C 0.87891 0.26277 0.23136 0.0
C489 C 0.93643 0.22733 0.231 0.0
N490 N 0.85736 0.28366 0.16513 0.0
N491 N 0.92208 0.23644 0.20273 0.0
H492 H 0.01744 0.07609 0.64494 0.0
H493 H 0.02666 0.92122 0.76247 0.0
H494 H 0.01867 0.08137 0.75005 0.0
H495 H 0.00528 0.91358 0.65968 0.0
H496 H 0.02956 0.98012 0.75679 0.0
H497 H 0.01571 0.01668 0.64875 0.0
C498 C 0.01686 0.06487 0.66881 0.0
C499 C 0.01837 0.0839 0.69722 0.0
C500 C 0.02441 0.96555 0.73543 0.0
C501 C 0.01714 0.01591 0.70164 0.0
C502 C 0.02307 0.93181 0.73856 0.0
C503 C 0.01541 0.91227 0.71157 0.0
C504 C 0.01818 0.98002 0.70507 0.0
C505 C 0.0111 0.92759 0.68123 0.0
C506 C 0.01611 0.03092 0.67093 0.0
C507 C 0.01761 0.06786 0.72745 0.0
N508 N 0.01231 0.9606 0.67884 0.0
N509 N 0.01735 0.03486 0.72883 0.0
H510 H 0.96594 0.05874 0.2562 0.0
H511 H 0.01079 0.9145 0.37071 0.0
H512 H 0.9625 0.07649 0.35988 0.0
H513 H 0.95112 0.90271 0.28478 0.0
H514 H -0.00044 0.97329 0.36927 0.0
H515 H 0.9703 0.0008 0.2668 0.0
C516 C 0.96651 0.05057 0.28128 0.0
C517 C 0.96377 0.07265 0.30721 0.0
C518 C 0.98848 0.95754 0.35125 0.0
C519 C 0.96856 0.00591 0.31938 0.0
C520 C -0.00528 0.92401 0.35205 0.0
C521 C 0.98247 0.90362 0.32737 0.0
C522 C 0.97037 0.97053 0.32536 0.0
C523 C 0.96169 0.9174 0.30394 0.0
C524 C 0.9686 0.01737 0.28725 0.0
C525 C 0.96446 0.06029 0.33918 0.0
N526 N 0.95691 0.95004 0.30311 0.0
N527 N 0.96699 0.02759 0.34446 0.0
H528 H 0.64121 0.98427 0.90539 0.0
H529 H 0.72402 0.97669 0.07953 0.0
H530 H 0.74339 0.0018 0.92373 0.0
H531 H 0.62651 0.01538 0.07032 0.0
H532 H 0.72687 0.97166 0.02064 0.0
H533 H 0.63144 0.98549 0.96457 0.0
C534 C 0.66146 0.98879 0.92168 0.0
C535 C 0.69322 -0.00721 0.90945 0.0
C536 C 0.70474 0.98097 0.03157 0.0
C537 C 0.68229 -0.00692 0.97664 0.0
C538 C 0.70294 0.98365 0.06524 0.0
C539 C 0.67521 -0.00287 0.07999 0.0
C540 C 0.67857 0.99152 0.01234 0.0
C541 C 0.64852 0.00519 0.05999 0.0
C542 C 0.65585 0.9893 0.95533 0.0
C543 C 0.71851 -0.0015 0.93177 0.0
N544 N 0.65095 0.00257 0.02701 0.0
N545 N 0.71255 -0.00197 0.96418 0.0
H546 H 0.33945 0.96781 0.04319 0.0
H547 H 0.25907 0.96408 0.86574 0.0
H548 H 0.23687 0.95473 0.02379 0.0
H549 H 0.35469 0.00412 0.88376 0.0
H550 H 0.2552 0.9493 0.923 0.0
H551 H 0.34912 0.97216 0.98433 0.0
C552 C 0.31899 0.96588 0.02664 0.0
C553 C 0.28725 0.96122 0.03852 0.0
C554 C 0.27718 0.96103 0.91436 0.0
C555 C 0.29825 0.9655 0.9714 0.0
C556 C 0.27953 0.9693 0.88156 0.0
C557 C 0.30702 0.98595 0.86991 0.0
C558 C 0.30246 0.9694 0.9358 0.0
C559 C 0.33287 0.99164 0.89167 0.0
C560 C 0.32456 0.96827 -0.00689 0.0
C561 C 0.2617 0.95872 0.0159 0.0
N562 N 0.32979 0.98377 0.92371 0.0
N563 N 0.26779 0.96084 0.98353 0.0
H564 H 0.89857 0.62761 0.98447 0.0
H565 H 0.06792 0.71902 0.99162 0.0
H566 H 0.90982 0.7291 0.01004 0.0
H567 H 0.0622 0.6187 0.0231 0.0
H568 H 0.00911 0.71971 0.98504 0.0
H569 H 0.95795 0.6208 0.98927 0.0
C570 C 0.91332 0.64829 0.99156 0.0
C571 C 0.89908 0.67905 -0.00336 0.0
C572 C 0.0208 0.69747 -0.00686 0.0
C573 C 0.96662 0.67154 0.00103 0.0
C574 C 0.05446 0.6969 -0.00336 0.0
C575 C 0.07015 0.66889 0.00847 0.0
C576 C 0.00252 0.66977 0.00111 0.0
C577 C 0.05114 0.64094 0.01423 0.0
C578 C 0.94712 0.64437 -0.0059 0.0
C579 C 0.91948 0.70495 0.00574 0.0
N580 N 0.01817 0.64212 0.0107 0.0
N581 N 0.95216 0.70069 0.00714 0.0
H582 H 0.06144 0.33118 0.96581 0.0
H583 H 0.88989 0.2395 0.95661 0.0
H584 H 0.04958 0.22758 0.95165 0.0
H585 H 0.9 0.33799 -0.00777 0.0
H586 H 0.94805 0.23825 0.94536 0.0
H587 H 0.00207 0.33678 0.96862 0.0
C588 C 0.04645 0.30961 0.96345 0.0
C589 C 0.06062 0.27882 0.95867 0.0
C590 C 0.9375 0.26025 0.95537 0.0
C591 C -0.00717 0.28521 0.96125 0.0
C592 C 0.90418 0.26109 0.96159 0.0
C593 C 0.89 0.28871 0.97592 0.0
C594 C 0.9569 0.28719 0.96348 0.0
C595 C 0.90987 0.31603 0.98148 0.0
C596 C 0.01259 0.31288 0.96491 0.0
C597 C 0.03991 0.25179 0.95561 0.0
N598 N 0.94242 0.31445 0.97561 0.0
N599 N 0.00715 0.25565 0.95687 0.0
loop_
_geom_bond_atom_site_label_1
_geom_bond_atom_site_label_2
_geom_bond_distance
_geom_bond_site_symmetry_2
_ccdc_geom_bond_type
Co0 O1 2.216 . S
Co0 O2 2.091 . S
Co0 O4 2.004 . S
Co0 O10 2.021 . S
Co0 O12 2.137 . S
Co0 O13 2.244 . S
O1 Co0 2.216 . S
O1 C8 1.247 . S
O2 Co0 2.091 . S
O2 C8 1.261 . S
C3 O12 1.247 . S
C3 O13 1.272 . S
O4 Co0 2.004 . S
O4 C9 1.259 . S
Co5 O6 2.061 . S
Co5 O11 2.052 . S
Co5 O13 2.135 . S
O6 Co5 2.061 . S
O6 C9 1.235 . S
C7 O10 1.238 . S
C7 O11 1.241 . S
C8 O1 1.247 . S
C8 O2 1.261 . S
C9 O4 1.259 . S
C9 O6 1.235 . S
O10 Co0 2.021 . S
O10 C7 1.238 . S
O11 Co5 2.052 . S
O11 C7 1.241 . S
O12 Co0 2.137 . S
O12 C3 1.247 . S
O13 Co0 2.244 . S
O13 C3 1.272 . S
O13 Co5 2.135 . S
Co14 O15 2.216 . S
Co14 O16 2.091 . S
Co14 O18 2.004 . S
Co14 O24 2.021 . S
Co14 O26 2.137 . S
Co14 O27 2.244 . S
O15 Co14 2.216 . S
O15 C22 1.247 . S
O16 Co14 2.091 . S
O16 C22 1.261 . S
C17 O26 1.247 . S
C17 O27 1.272 . S
O18 Co14 2.004 . S
O18 C23 1.259 . S
Co19 O20 2.061 . S
Co19 O25 2.052 . S
Co19 O27 2.135 . S
O20 Co19 2.061 . S
O20 C23 1.235 . S
C21 O24 1.238 . S
C21 O25 1.241 . S
C22 O15 1.247 . S
C22 O16 1.261 . S
C23 O18 1.259 . S
C23 O20 1.235 . S
O24 Co14 2.021 . S
O24 C21 1.238 . S
O25 Co19 2.052 . S
O25 C21 1.241 . S
O26 Co14 2.137 . S
O26 C17 1.247 . S
O27 Co14 2.244 . S
O27 C17 1.272 . S
O27 Co19 2.135 . S
Co28 O29 2.216 . S
Co28 O30 2.091 . S
Co28 O32 2.004 . S
Co28 O38 2.021 . S
Co28 O40 2.137 . S
Co28 O41 2.244 . S
O29 Co28 2.216 . S
O29 C36 1.247 . S
O30 Co28 2.091 . S
O30 C36 1.261 . S
C31 O40 1.247 . S
C31 O41 1.272 . S
O32 Co28 2.004 . S
O32 C37 1.259 . S
Co33 O34 2.061 . S
Co33 O39 2.052 . S
Co33 O41 2.135 . S
O34 Co33 2.061 . S
O34 C37 1.235 . S
C35 O38 1.238 . S
C35 O39 1.241 . S
C36 O29 1.247 . S
C36 O30 1.261 . S
C37 O32 1.259 . S
C37 O34 1.235 . S
O38 Co28 2.021 . S
O38 C35 1.238 . S
O39 Co33 2.052 . S
O39 C35 1.241 . S
O40 Co28 2.137 . S
O40 C31 1.247 . S
O41 Co28 2.244 . S
O41 C31 1.272 . S
O41 Co33 2.135 . S
Co42 O43 2.216 . S
Co42 O44 2.091 . S
Co42 O46 2.004 . S
Co42 O52 2.021 . S
Co42 O54 2.137 . S
Co42 O55 2.244 . S
O43 Co42 2.216 . S
O43 C50 1.247 . S
O44 Co42 2.091 . S
O44 C50 1.261 . S
C45 O54 1.247 . S
C45 O55 1.272 . S
O46 Co42 2.004 . S
O46 C51 1.259 . S
Co47 O48 2.061 . S
Co47 O53 2.052 . S
Co47 O55 2.135 . S
O48 Co47 2.061 . S
O48 C51 1.235 . S
C49 O52 1.238 . S
C49 O53 1.241 . S
C50 O43 1.247 . S
C50 O44 1.261 . S
C51 O46 1.259 . S
C51 O48 1.235 . S
O52 Co42 2.021 . S
O52 C49 1.238 . S
O53 Co47 2.052 . S
O53 C49 1.241 . S
O54 Co42 2.137 . S
O54 C45 1.247 . S
O55 Co42 2.244 . S
O55 C45 1.272 . S
O55 Co47 2.135 . S
Co56 O57 2.216 . S
Co56 O58 2.091 . S
Co56 O60 2.004 . S
Co56 O66 2.021 . S
Co56 O68 2.137 . S
Co56 O69 2.244 . S
O57 Co56 2.216 . S
O57 C64 1.247 . S
O58 Co56 2.091 . S
O58 C64 1.261 . S
C59 O68 1.247 . S
C59 O69 1.272 . S
O60 Co56 2.004 . S
O60 C65 1.259 . S
Co61 O62 2.061 . S
Co61 O67 2.052 . S
Co61 O69 2.135 . S
O62 Co61 2.061 . S
O62 C65 1.235 . S
C63 O66 1.238 . S
C63 O67 1.241 . S
C64 O57 1.247 . S
C64 O58 1.261 . S
C65 O60 1.259 . S
C65 O62 1.235 . S
O66 Co56 2.021 . S
O66 C63 1.238 . S
O67 Co61 2.052 . S
O67 C63 1.241 . S
O68 Co56 2.137 . S
O68 C59 1.247 . S
O69 Co56 2.244 . S
O69 C59 1.272 . S
O69 Co61 2.135 . S
Co70 O71 2.216 . S
Co70 O72 2.091 . S
Co70 O74 2.004 . S
Co70 O80 2.021 . S
Co70 O82 2.137 . S
Co70 O83 2.244 . S
O71 Co70 2.216 . S
O71 C78 1.247 . S
O72 Co70 2.091 . S
O72 C78 1.261 . S
C73 O82 1.247 . S
C73 O83 1.272 . S
O74 Co70 2.004 . S
O74 C79 1.259 . S
Co75 O76 2.061 . S
Co75 O81 2.052 . S
Co75 O83 2.135 . S
O76 Co75 2.061 . S
O76 C79 1.235 . S
C77 O80 1.238 . S
C77 O81 1.241 . S
C78 O71 1.247 . S
C78 O72 1.261 . S
C79 O74 1.259 . S
C79 O76 1.235 . S
O80 Co70 2.021 . S
O80 C77 1.238 . S
O81 Co75 2.052 . S
O81 C77 1.241 . S
O82 Co70 2.137 . S
O82 C73 1.247 . S
O83 Co70 2.244 . S
O83 C73 1.272 . S
O83 Co75 2.135 . S
Co84 O85 2.216 . S
Co84 O86 2.091 . S
Co84 O88 2.004 . S
Co84 O94 2.021 . S
Co84 O96 2.137 . S
Co84 O97 2.244 . S
O85 Co84 2.216 . S
O85 C92 1.247 . S
O86 Co84 2.091 . S
O86 C92 1.261 . S
C87 O96 1.247 . S
C87 O97 1.272 . S
O88 Co84 2.004 . S
O88 C93 1.259 . S
Co89 O90 2.061 . S
Co89 O95 2.052 . S
Co89 O97 2.135 . S
O90 Co89 2.061 . S
O90 C93 1.235 . S
C91 O94 1.238 . S
C91 O95 1.241 . S
C92 O85 1.247 . S
C92 O86 1.261 . S
C93 O88 1.259 . S
C93 O90 1.235 . S
O94 Co84 2.021 . S
O94 C91 1.238 . S
O95 Co89 2.052 . S
O95 C91 1.241 . S
O96 Co84 2.137 . S
O96 C87 1.247 . S
O97 Co84 2.244 . S
O97 C87 1.272 . S
O97 Co89 2.135 . S
Co98 O99 2.216 . S
Co98 O100 2.091 . S
Co98 O102 2.004 . S
Co98 O108 2.021 . S
Co98 O110 2.137 . S
Co98 O111 2.244 . S
O99 Co98 2.216 . S
O99 C106 1.247 . S
O100 Co98 2.091 . S
O100 C106 1.261 . S
C101 O110 1.247 . S
C101 O111 1.272 . S
O102 Co98 2.004 . S
O102 C107 1.259 . S
Co103 O104 2.061 . S
Co103 O109 2.052 . S
Co103 O111 2.135 . S
O104 Co103 2.061 . S
O104 C107 1.235 . S
C105 O108 1.238 . S
C105 O109 1.241 . S
C106 O99 1.247 . S
C106 O100 1.261 . S
C107 O102 1.259 . S
C107 O104 1.235 . S
O108 Co98 2.021 . S
O108 C105 1.238 . S
O109 Co103 2.052 . S
O109 C105 1.241 . S
O110 Co98 2.137 . S
O110 C101 1.247 . S
O111 Co98 2.244 . S
O111 C101 1.272 . S
O111 Co103 2.135 . S
Co112 O113 2.216 . S
Co112 O114 2.091 . S
Co112 O116 2.004 . S
Co112 O122 2.021 . S
Co112 O124 2.137 . S
Co112 O125 2.244 . S
O113 Co112 2.216 . S
O113 C120 1.247 . S
O114 Co112 2.091 . S
O114 C120 1.261 . S
C115 O124 1.247 . S
C115 O125 1.272 . S
O116 Co112 2.004 . S
O116 C121 1.259 . S
Co117 O118 2.061 . S
Co117 O123 2.052 . S
Co117 O125 2.135 . S
O118 Co117 2.061 . S
O118 C121 1.235 . S
C119 O122 1.238 . S
C119 O123 1.241 . S
C120 O113 1.247 . S
C120 O114 1.261 . S
C121 O116 1.259 . S
C121 O118 1.235 . S
O122 Co112 2.021 . S
O122 C119 1.238 . S
O123 Co117 2.052 . S
O123 C119 1.241 . S
O124 Co112 2.137 . S
O124 C115 1.247 . S
O125 Co112 2.244 . S
O125 C115 1.272 . S
O125 Co117 2.135 . S
Co126 O127 2.216 . S
Co126 O128 2.091 . S
Co126 O130 2.004 . S
Co126 O136 2.021 . S
Co126 O138 2.137 . S
Co126 O139 2.244 . S
O127 Co126 2.216 . S
O127 C134 1.247 . S
O128 Co126 2.091 . S
O128 C134 1.261 . S
C129 O138 1.247 . S
C129 O139 1.272 . S
O130 Co126 2.004 . S
O130 C135 1.259 . S
Co131 O132 2.061 . S
Co131 O137 2.052 . S
Co131 O139 2.135 . S
O132 Co131 2.061 . S
O132 C135 1.235 . S
C133 O136 1.238 . S
C133 O137 1.241 . S
C134 O127 1.247 . S
C134 O128 1.261 . S
C135 O130 1.259 . S
C135 O132 1.235 . S
O136 Co126 2.021 . S
O136 C133 1.238 . S
O137 Co131 2.052 . S
O137 C133 1.241 . S
O138 Co126 2.137 . S
O138 C129 1.247 . S
O139 Co126 2.244 . S
O139 C129 1.272 . S
O139 Co131 2.135 . S
Co140 O141 2.216 . S
Co140 O142 2.091 . S
Co140 O144 2.004 . S
Co140 O150 2.021 . S
Co140 O152 2.137 . S
Co140 O153 2.244 . S
O141 Co140 2.216 . S
O141 C148 1.247 . S
O142 Co140 2.091 . S
O142 C148 1.261 . S
C143 O152 1.247 . S
C143 O153 1.272 . S
O144 Co140 2.004 . S
O144 C149 1.259 . S
Co145 O146 2.061 . S
Co145 O151 2.052 . S
Co145 O153 2.135 . S
O146 Co145 2.061 . S
O146 C149 1.235 . S
C147 O150 1.238 . S
C147 O151 1.241 . S
C148 O141 1.247 . S
C148 O142 1.261 . S
C149 O144 1.259 . S
C149 O146 1.235 . S
O150 Co140 2.021 . S
O150 C147 1.238 . S
O151 Co145 2.052 . S
O151 C147 1.241 . S
O152 Co140 2.137 . S
O152 C143 1.247 . S
O153 Co140 2.244 . S
O153 C143 1.272 . S
O153 Co145 2.135 . S
Co154 O155 2.216 . S
Co154 O156 2.091 . S
Co154 O158 2.004 . S
Co154 O164 2.021 . S
Co154 O166 2.137 . S
Co154 O167 2.244 . S
O155 Co154 2.216 . S
O155 C162 1.247 . S
O156 Co154 2.091 . S
O156 C162 1.261 . S
C157 O166 1.247 . S
C157 O167 1.272 . S
O158 Co154 2.004 . S
O158 C163 1.259 . S
Co159 O160 2.061 . S
Co159 O165 2.052 . S
Co159 O167 2.135 . S
O160 Co159 2.061 . S
O160 C163 1.235 . S
C161 O164 1.238 . S
C161 O165 1.241 . S
C162 O155 1.247 . S
C162 O156 1.261 . S
C163 O158 1.259 . S
C163 O160 1.235 . S
O164 Co154 2.021 . S
O164 C161 1.238 . S
O165 Co159 2.052 . S
O165 C161 1.241 . S
O166 Co154 2.137 . S
O166 C157 1.247 . S
O167 Co154 2.244 . S
O167 C157 1.272 . S
O167 Co159 2.135 . S
H168 C174 0.930 . S
H169 C178 0.930 . S
H170 C183 0.929 . S
H171 C181 0.929 . S
H172 C176 0.929 . S
H173 C182 0.929 . S
C174 H168 0.930 . S
C174 C175 1.367 . S
C174 C182 1.378 . S
C175 C174 1.367 . S
C175 C183 1.433 . S
C176 H172 0.929 . S
C176 C178 1.378 . S
C176 C180 1.350 . S
C177 C180 1.463 1_655 S
C177 C182 1.350 . S
C177 N185 1.427 . S
C178 H169 0.930 . S
C178 C176 1.378 . S
C178 C179 1.367 . S
C179 C178 1.367 . S
C179 C181 1.433 . S
C180 C176 1.350 . S
C180 C177 1.463 1_455 S
C180 N184 1.427 . S
C181 H171 0.929 . S
C181 C179 1.433 . S
C181 N184 1.384 . S
C182 H173 0.929 . S
C182 C174 1.378 . S
C182 C177 1.350 . S
C183 H170 0.929 . S
C183 C175 1.433 . S
C183 N185 1.384 . S
N184 C180 1.427 . S
N184 C181 1.384 . S
N185 C177 1.427 . S
N185 C183 1.384 . S
H186 C192 0.930 . S
H187 C196 0.930 . S
H188 C201 0.929 . S
H189 C199 0.929 . S
H190 C194 0.929 . S
H191 C200 0.929 . S
C192 H186 0.930 . S
C192 C193 1.367 . S
C192 C200 1.378 . S
C193 C192 1.367 . S
C193 C201 1.433 . S
C194 H190 0.929 . S
C194 C196 1.378 . S
C194 C198 1.350 . S
C195 C198 1.463 1_455 S
C195 C200 1.350 . S
C195 N203 1.427 . S
C196 H187 0.930 . S
C196 C194 1.378 . S
C196 C197 1.367 . S
C197 C196 1.367 . S
C197 C199 1.433 . S
C198 C194 1.350 . S
C198 C195 1.463 1_655 S
C198 N202 1.427 . S
C199 H189 0.929 . S
C199 C197 1.433 . S
C199 N202 1.384 . S
C200 H191 0.929 . S
C200 C192 1.378 . S
C200 C195 1.350 . S
C201 H188 0.929 . S
C201 C193 1.433 . S
C201 N203 1.384 . S
N202 C198 1.427 . S
N202 C199 1.384 . S
N203 C195 1.427 . S
N203 C201 1.384 . S
H204 C210 0.930 . S
H205 C214 0.930 . S
H206 C219 0.929 . S
H207 C217 0.929 . S
H208 C212 0.929 . S
H209 C218 0.929 . S
C210 H204 0.930 . S
C210 C211 1.367 . S
C210 C218 1.378 . S
C211 C210 1.367 . S
C211 C219 1.433 . S
C212 H208 0.929 . S
C212 C214 1.378 . S
C212 C216 1.350 . S
C213 C216 1.463 1_565 S
C213 C218 1.350 . S
C213 N221 1.427 . S
C214 H205 0.930 . S
C214 C212 1.378 . S
C214 C215 1.367 . S
C215 C214 1.367 . S
C215 C217 1.433 . S
C216 C212 1.350 . S
C216 C213 1.463 1_545 S
C216 N220 1.427 . S
C217 H207 0.929 . S
C217 C215 1.433 . S
C217 N220 1.384 . S
C218 H209 0.929 . S
C218 C210 1.378 . S
C218 C213 1.350 . S
C219 H206 0.929 . S
C219 C211 1.433 . S
C219 N221 1.384 . S
N220 C216 1.427 . S
N220 C217 1.384 . S
N221 C213 1.427 . S
N221 C219 1.384 . S
H222 C228 0.930 . S
H223 C232 0.930 . S
H224 C237 0.929 . S
H225 C235 0.929 . S
H226 C230 0.929 . S
H227 C236 0.929 . S
C228 H222 0.930 . S
C228 C229 1.367 . S
C228 C236 1.378 . S
C229 C228 1.367 . S
C229 C237 1.433 . S
C230 H226 0.929 . S
C230 C232 1.378 . S
C230 C234 1.350 . S
C231 C234 1.463 1_565 S
C231 C236 1.350 . S
C231 N239 1.427 . S
C232 H223 0.930 . S
C232 C230 1.378 . S
C232 C233 1.367 . S
C233 C232 1.367 . S
C233 C235 1.433 . S
C234 C230 1.350 . S
C234 C231 1.463 1_545 S
C234 N238 1.427 . S
C235 H225 0.929 . S
C235 C233 1.433 . S
C235 N238 1.384 . S
C236 H227 0.929 . S
C236 C228 1.378 . S
C236 C231 1.350 . S
C237 H224 0.929 . S
C237 C229 1.433 . S
C237 N239 1.384 . S
N238 C234 1.427 . S
N238 C235 1.384 . S
N239 C231 1.427 . S
N239 C237 1.384 . S
H240 C246 0.930 . S
H241 C250 0.930 . S
H242 C255 0.929 . S
H243 C253 0.929 . S
H244 C248 0.950 . S
H245 C254 0.950 . S
C246 H240 0.930 . S
C246 C247 1.367 . S
C246 C254 1.364 1_556 S
C247 C246 1.367 . S
C247 C255 1.433 . S
C248 H244 0.950 . S
C248 C250 1.364 1_556 S
C248 C252 1.343 1_556 S
C249 C252 1.463 1_556 S
C249 C254 1.343 1_556 S
C249 N257 1.427 . S
C250 H241 0.930 . S
C250 C248 1.364 1_554 S
C250 C251 1.367 . S
C251 C250 1.367 . S
C251 C253 1.433 . S
C252 C248 1.343 1_554 S
C252 C249 1.463 1_554 S
C252 N256 1.427 . S
C253 H243 0.929 . S
C253 C251 1.433 . S
C253 N256 1.384 . S
C254 H245 0.950 . S
C254 C246 1.364 1_554 S
C254 C249 1.343 1_554 S
C255 H242 0.929 . S
C255 C247 1.433 . S
C255 N257 1.384 . S
N256 C252 1.427 . S
N256 C253 1.384 . S
N257 C249 1.427 . S
N257 C255 1.384 . S
H258 C264 0.930 . S
H259 C268 0.930 . S
H260 C273 0.929 . S
H261 C271 0.929 . S
H262 C266 0.929 . S
H263 C272 0.929 . S
C264 H258 0.930 . S
C264 C265 1.367 . S
C264 C272 1.378 1_556 S
C265 C264 1.367 . S
C265 C273 1.433 . S
C266 H262 0.929 . S
C266 C268 1.378 1_556 S
C266 C270 1.350 1_556 S
C267 C270 1.463 1_556 S
C267 C272 1.350 1_556 S
C267 N275 1.427 . S
C268 H259 0.930 . S
C268 C266 1.378 1_554 S
C268 C269 1.367 . S
C269 C268 1.367 . S
C269 C271 1.433 . S
C270 C266 1.350 1_554 S
C270 C267 1.463 1_554 S
C270 N274 1.427 . S
C271 H261 0.929 . S
C271 C269 1.433 . S
C271 N274 1.384 . S
C272 H263 0.929 . S
C272 C264 1.378 1_554 S
C272 C267 1.350 1_554 S
C273 H260 0.929 . S
C273 C265 1.433 . S
C273 N275 1.384 . S
N274 C270 1.427 . S
N274 C271 1.384 . S
N275 C267 1.427 . S
N275 C273 1.384 . S
H276 C282 0.930 . S
H277 C286 0.930 . S
H278 C291 0.929 . S
H279 C289 0.929 . S
H280 C284 0.929 . S
H281 C290 0.929 . S
C282 H276 0.930 . S
C282 C283 1.367 . S
C282 C290 1.378 . S
C283 C282 1.367 . S
C283 C291 1.433 . S
C284 H280 0.929 . S
C284 C286 1.378 . S
C284 C288 1.350 . S
C285 C288 1.463 . S
C285 C290 1.350 . S
C285 N293 1.427 . S
C286 H277 0.930 . S
C286 C284 1.378 . S
C286 C287 1.367 . S
C287 C286 1.367 . S
C287 C289 1.433 . S
C288 C284 1.350 . S
C288 C285 1.463 . S
C288 N292 1.427 . S
C289 H279 0.929 . S
C289 C287 1.433 . S
C289 N292 1.384 . S
C290 H281 0.929 . S
C290 C282 1.378 . S
C290 C285 1.350 . S
C291 H278 0.929 . S
C291 C283 1.433 . S
C291 N293 1.384 . S
N292 C288 1.427 . S
N292 C289 1.384 . S
N293 C285 1.427 . S
N293 C291 1.384 . S
H294 C300 0.930 . S
H295 C304 0.930 . S
H296 C309 0.929 . S
H297 C307 0.929 . S
H298 C302 0.929 . S
H299 C308 0.929 . S
C300 H294 0.930 . S
C300 C301 1.367 . S
C300 C308 1.378 . S
C301 C300 1.367 . S
C301 C309 1.433 . S
C302 H298 0.929 . S
C302 C304 1.378 . S
C302 C306 1.350 . S
C303 C306 1.463 . S
C303 C308 1.350 . S
C303 N311 1.427 . S
C304 H295 0.930 . S
C304 C302 1.378 . S
C304 C305 1.367 . S
C305 C304 1.367 . S
C305 C307 1.433 . S
C306 C302 1.350 . S
C306 C303 1.463 . S
C306 N310 1.427 . S
C307 H297 0.929 . S
C307 C305 1.433 . S
C307 N310 1.384 . S
C308 H299 0.929 . S
C308 C300 1.378 . S
C308 C303 1.350 . S
C309 H296 0.929 . S
C309 C301 1.433 . S
C309 N311 1.384 . S
N310 C306 1.427 . S
N310 C307 1.384 . S
N311 C303 1.427 . S
N311 C309 1.384 . S
H312 C318 0.930 . S
H313 C322 0.930 . S
H314 C327 0.929 . S
H315 C325 0.929 . S
H316 C320 0.929 . S
H317 C326 0.929 . S
C318 H312 0.930 . S
C318 C319 1.367 . S
C318 C326 1.378 . S
C319 C318 1.367 . S
C319 C327 1.433 . S
C320 H316 0.929 . S
C320 C322 1.378 . S
C320 C324 1.350 . S
C321 C324 1.463 . S
C321 C326 1.350 . S
C321 N329 1.427 . S
C322 H313 0.930 . S
C322 C320 1.378 . S
C322 C323 1.367 . S
C323 C322 1.367 . S
C323 C325 1.433 . S
C324 C320 1.350 . S
C324 C321 1.463 . S
C324 N328 1.427 . S
C325 H315 0.929 . S
C325 C323 1.433 . S
C325 N328 1.384 . S
C326 H317 0.929 . S
C326 C318 1.378 . S
C326 C321 1.350 . S
C327 H314 0.929 . S
C327 C319 1.433 . S
C327 N329 1.384 . S
N328 C324 1.427 . S
N328 C325 1.384 . S
N329 C321 1.427 . S
N329 C327 1.384 . S
H330 C336 0.930 . S
H331 C340 0.930 . S
H332 C345 0.929 . S
H333 C343 0.929 . S
H334 C338 0.929 . S
H335 C344 0.929 . S
C336 H330 0.930 . S
C336 C337 1.367 . S
C336 C344 1.378 . S
C337 C336 1.367 . S
C337 C345 1.433 . S
C338 H334 0.929 . S
C338 C340 1.378 . S
C338 C342 1.350 . S
C339 C342 1.463 . S
C339 C344 1.350 . S
C339 N347 1.427 . S
C340 H331 0.930 . S
C340 C338 1.378 . S
C340 C341 1.367 . S
C341 C340 1.367 . S
C341 C343 1.433 . S
C342 C338 1.350 . S
C342 C339 1.463 . S
C342 N346 1.427 . S
C343 H333 0.929 . S
C343 C341 1.433 . S
C343 N346 1.384 . S
C344 H335 0.929 . S
C344 C336 1.378 . S
C344 C339 1.350 . S
C345 H332 0.929 . S
C345 C337 1.433 . S
C345 N347 1.384 . S
N346 C342 1.427 . S
N346 C343 1.384 . S
N347 C339 1.427 . S
N347 C345 1.384 . S
H348 C354 0.930 . S
H349 C358 0.930 . S
H350 C363 0.929 . S
H351 C361 0.929 . S
H352 C356 0.929 . S
H353 C362 0.929 . S
C354 H348 0.930 . S
C354 C355 1.367 . S
C354 C362 1.378 . S
C355 C354 1.367 . S
C355 C363 1.433 . S
C356 H352 0.929 . S
C356 C358 1.378 . S
C356 C360 1.350 . S
C357 C360 1.463 . S
C357 C362 1.350 . S
C357 N365 1.427 . S
C358 H349 0.930 . S
C358 C356 1.378 . S
C358 C359 1.367 . S
C359 C358 1.367 . S
C359 C361 1.433 . S
C360 C356 1.350 . S
C360 C357 1.463 . S
C360 N364 1.427 . S
C361 H351 0.929 . S
C361 C359 1.433 . S
C361 N364 1.384 . S
C362 H353 0.929 . S
C362 C354 1.378 . S
C362 C357 1.350 . S
C363 H350 0.929 . S
C363 C355 1.433 . S
C363 N365 1.384 . S
N364 C360 1.427 . S
N364 C361 1.384 . S
N365 C357 1.427 . S
N365 C363 1.384 . S
H366 C372 0.930 . S
H367 C376 0.930 . S
H368 C381 0.929 . S
H369 C379 0.929 . S
H370 C374 0.929 . S
H371 C380 0.929 . S
C372 H366 0.930 . S
C372 C373 1.367 . S
C372 C380 1.378 . S
C373 C372 1.367 . S
C373 C381 1.433 . S
C374 H370 0.929 . S
C374 C376 1.378 . S
C374 C378 1.350 . S
C375 C378 1.463 . S
C375 C380 1.350 . S
C375 N383 1.427 . S
C376 H367 0.930 . S
C376 C374 1.378 . S
C376 C377 1.367 . S
C377 C376 1.367 . S
C377 C379 1.433 . S
C378 C374 1.350 . S
C378 C375 1.463 . S
C378 N382 1.427 . S
C379 H369 0.929 . S
C379 C377 1.433 . S
C379 N382 1.384 . S
C380 H371 0.929 . S
C380 C372 1.378 . S
C380 C375 1.350 . S
C381 H368 0.929 . S
C381 C373 1.433 . S
C381 N383 1.384 . S
N382 C378 1.427 . S
N382 C379 1.384 . S
N383 C375 1.427 . S
N383 C381 1.384 . S
H384 C390 0.930 . S
H385 C394 0.930 . S
H386 C399 0.929 . S
H387 C397 0.929 . S
H388 C392 0.929 . S
H389 C398 0.929 . S
C390 H384 0.930 . S
C390 C391 1.367 . S
C390 C398 1.378 . S
C391 C390 1.367 . S
C391 C399 1.433 . S
C392 H388 0.929 . S
C392 C394 1.378 . S
C392 C396 1.350 . S
C393 C396 1.463 . S
C393 C398 1.350 . S
C393 N401 1.427 . S
C394 H385 0.930 . S
C394 C392 1.378 . S
C394 C395 1.367 . S
C395 C394 1.367 . S
C395 C397 1.433 . S
C396 C392 1.350 . S
C396 C393 1.463 . S
C396 N400 1.427 . S
C397 H387 0.929 . S
C397 C395 1.433 . S
C397 N400 1.384 . S
C398 H389 0.929 . S
C398 C390 1.378 . S
C398 C393 1.350 . S
C399 H386 0.929 . S
C399 C391 1.433 . S
C399 N401 1.384 . S
N400 C396 1.427 . S
N400 C397 1.384 . S
N401 C393 1.427 . S
N401 C399 1.384 . S
H402 C408 0.930 . S
H403 C412 0.930 . S
H404 C417 0.929 . S
H405 C415 0.929 . S
H406 C410 0.929 . S
H407 C416 0.929 . S
C408 H402 0.930 . S
C408 C409 1.367 . S
C408 C416 1.378 . S
C409 C408 1.367 . S
C409 C417 1.433 . S
C410 H406 0.929 . S
C410 C412 1.378 . S
C410 C414 1.350 . S
C411 C414 1.463 . S
C411 C416 1.350 . S
C411 N419 1.427 . S
C412 H403 0.930 . S
C412 C410 1.378 . S
C412 C413 1.367 . S
C413 C412 1.367 . S
C413 C415 1.433 . S
C414 C410 1.350 . S
C414 C411 1.463 . S
C414 N418 1.427 . S
C415 H405 0.929 . S
C415 C413 1.433 . S
C415 N418 1.384 . S
C416 H407 0.929 . S
C416 C408 1.378 . S
C416 C411 1.350 . S
C417 H404 0.929 . S
C417 C409 1.433 . S
C417 N419 1.384 . S
N418 C414 1.427 . S
N418 C415 1.384 . S
N419 C411 1.427 . S
N419 C417 1.384 . S
H420 C426 0.930 . S
H421 C430 0.930 . S
H422 C435 0.929 . S
H423 C433 0.929 . S
H424 C428 0.929 . S
H425 C434 0.929 . S
C426 H420 0.930 . S
C426 C427 1.367 . S
C426 C434 1.378 . S
C427 C426 1.367 . S
C427 C435 1.433 . S
C428 H424 0.929 . S
C428 C430 1.378 . S
C428 C432 1.350 . S
C429 C432 1.463 . S
C429 C434 1.350 . S
C429 N437 1.427 . S
C430 H421 0.930 . S
C430 C428 1.378 . S
C430 C431 1.367 . S
C431 C430 1.367 . S
C431 C433 1.433 . S
C432 C428 1.350 . S
C432 C429 1.463 . S
C432 N436 1.427 . S
C433 H423 0.929 . S
C433 C431 1.433 . S
C433 N436 1.384 . S
C434 H425 0.929 . S
C434 C426 1.378 . S
C434 C429 1.350 . S
C435 H422 0.929 . S
C435 C427 1.433 . S
C435 N437 1.384 . S
N436 C432 1.427 . S
N436 C433 1.384 . S
N437 C429 1.427 . S
N437 C435 1.384 . S
H438 C444 0.930 . S
H439 C448 0.930 . S
H440 C453 0.929 . S
H441 C451 0.929 . S
H442 C446 0.929 . S
H443 C452 0.929 . S
C444 H438 0.930 . S
C444 C445 1.367 . S
C444 C452 1.378 . S
C445 C444 1.367 . S
C445 C453 1.433 . S
C446 H442 0.929 . S
C446 C448 1.378 . S
C446 C450 1.350 . S
C447 C450 1.463 . S
C447 C452 1.350 . S
C447 N455 1.427 . S
C448 H439 0.930 . S
C448 C446 1.378 . S
C448 C449 1.367 . S
C449 C448 1.367 . S
C449 C451 1.433 . S
C450 C446 1.350 . S
C450 C447 1.463 . S
C450 N454 1.427 . S
C451 H441 0.929 . S
C451 C449 1.433 . S
C451 N454 1.384 . S
C452 H443 0.929 . S
C452 C444 1.378 . S
C452 C447 1.350 . S
C453 H440 0.929 . S
C453 C445 1.433 . S
C453 N455 1.384 . S
N454 C450 1.427 . S
N454 C451 1.384 . S
N455 C447 1.427 . S
N455 C453 1.384 . S
H456 C462 0.930 . S
H457 C466 0.930 . S
H458 C471 0.929 . S
H459 C469 0.929 . S
H460 C464 0.929 . S
H461 C470 0.929 . S
C462 H456 0.930 . S
C462 C463 1.367 . S
C462 C470 1.378 . S
C463 C462 1.367 . S
C463 C471 1.433 . S
C464 H460 0.929 . S
C464 C466 1.378 . S
C464 C468 1.350 . S
C465 C468 1.463 . S
C465 C470 1.350 . S
C465 N473 1.427 . S
C466 H457 0.930 . S
C466 C464 1.378 . S
C466 C467 1.367 . S
C467 C466 1.367 . S
C467 C469 1.433 . S
C468 C464 1.350 . S
C468 C465 1.463 . S
C468 N472 1.427 . S
C469 H459 0.929 . S
C469 C467 1.433 . S
C469 N472 1.384 . S
C470 H461 0.929 . S
C470 C462 1.378 . S
C470 C465 1.350 . S
C471 H458 0.929 . S
C471 C463 1.433 . S
C471 N473 1.384 . S
N472 C468 1.427 . S
N472 C469 1.384 . S
N473 C465 1.427 . S
N473 C471 1.384 . S
H474 C480 0.930 . S
H475 C484 0.930 . S
H476 C489 0.929 . S
H477 C487 0.929 . S
H478 C482 0.929 . S
H479 C488 0.929 . S
C480 H474 0.930 . S
C480 C481 1.367 . S
C480 C488 1.378 . S
C481 C480 1.367 . S
C481 C489 1.433 . S
C482 H478 0.929 . S
C482 C484 1.378 . S
C482 C486 1.350 . S
C483 C486 1.463 . S
C483 C488 1.350 . S
C483 N491 1.427 . S
C484 H475 0.930 . S
C484 C482 1.378 . S
C484 C485 1.367 . S
C485 C484 1.367 . S
C485 C487 1.433 . S
C486 C482 1.350 . S
C486 C483 1.463 . S
C486 N490 1.427 . S
C487 H477 0.929 . S
C487 C485 1.433 . S
C487 N490 1.384 . S
C488 H479 0.929 . S
C488 C480 1.378 . S
C488 C483 1.350 . S
C489 H476 0.929 . S
C489 C481 1.433 . S
C489 N491 1.384 . S
N490 C486 1.427 . S
N490 C487 1.384 . S
N491 C483 1.427 . S
N491 C489 1.384 . S
H492 C498 0.930 . S
H493 C502 0.930 . S
H494 C507 0.929 . S
H495 C505 0.929 . S
H496 C500 0.929 . S
H497 C506 0.929 . S
C498 H492 0.930 . S
C498 C499 1.367 . S
C498 C506 1.378 1_455 S
C499 C498 1.367 . S
C499 C507 1.433 . S
C500 H496 0.929 . S
C500 C502 1.378 1_455 S
C500 C504 1.350 1_455 S
C501 C504 1.463 1_445 S
C501 C506 1.350 1_455 S
C501 N509 1.427 . S
C502 H493 0.930 . S
C502 C500 1.378 1_655 S
C502 C503 1.367 . S
C503 C502 1.367 . S
C503 C505 1.433 . S
C504 C500 1.350 1_655 S
C504 C501 1.463 1_665 S
C504 N508 1.427 . S
C505 H495 0.929 . S
C505 C503 1.433 . S
C505 N508 1.384 . S
C506 H497 0.929 . S
C506 C498 1.378 1_655 S
C506 C501 1.350 1_655 S
C507 H494 0.929 . S
C507 C499 1.433 . S
C507 N509 1.384 . S
N508 C504 1.427 . S
N508 C505 1.384 . S
N509 C501 1.427 . S
N509 C507 1.384 . S
H510 C516 0.930 . S
H511 C520 0.930 . S
H512 C525 0.929 . S
H513 C523 0.929 . S
H514 C518 0.929 . S
H515 C524 0.929 . S
C516 H510 0.930 . S
C516 C517 1.367 . S
C516 C524 1.378 1_655 S
C517 C516 1.367 . S
C517 C525 1.433 . S
C518 H514 0.929 . S
C518 C520 1.378 1_655 S
C518 C522 1.350 1_655 S
C519 C522 1.463 1_645 S
C519 C524 1.350 1_655 S
C519 N527 1.427 . S
C520 H511 0.930 . S
C520 C518 1.378 1_455 S
C520 C521 1.367 . S
C521 C520 1.367 . S
C521 C523 1.433 . S
C522 C518 1.350 1_455 S
C522 C519 1.463 1_465 S
C522 N526 1.427 . S
C523 H513 0.929 . S
C523 C521 1.433 . S
C523 N526 1.384 . S
C524 H515 0.929 . S
C524 C516 1.378 1_455 S
C524 C519 1.350 1_455 S
C525 H512 0.929 . S
C525 C517 1.433 . S
C525 N527 1.384 . S
N526 C522 1.427 . S
N526 C523 1.384 . S
N527 C519 1.427 . S
N527 C525 1.384 . S
H528 C534 0.931 1_545 S
H529 C538 0.931 1_565 S
H530 C543 0.929 . S
H531 C541 0.929 . S
H532 C536 0.929 . S
H533 C542 0.929 . S
C534 H528 0.931 1_565 S
C534 C535 1.367 . S
C534 C542 1.378 1_565 S
C535 C534 1.367 . S
C535 C543 1.433 . S
C536 H532 0.929 . S
C536 C538 1.378 1_565 S
C536 C540 1.350 1_565 S
C537 C540 1.463 1_566 S
C537 C542 1.350 1_565 S
C537 N545 1.427 . S
C538 H529 0.931 1_545 S
C538 C536 1.378 1_545 S
C538 C539 1.367 . S
C539 C538 1.367 . S
C539 C541 1.433 . S
C540 C536 1.350 1_545 S
C540 C537 1.463 1_544 S
C540 N544 1.427 . S
C541 H531 0.929 . S
C541 C539 1.433 . S
C541 N544 1.384 . S
C542 H533 0.929 . S
C542 C534 1.378 1_545 S
C542 C537 1.350 1_545 S
C543 H530 0.929 . S
C543 C535 1.433 . S
C543 N545 1.384 . S
N544 C540 1.427 . S
N544 C541 1.384 . S
N545 C537 1.427 . S
N545 C543 1.384 . S
H546 C552 0.930 . S
H547 C556 0.930 . S
H548 C561 0.929 . S
H549 C559 0.929 . S
H550 C554 0.929 . S
H551 C560 0.929 . S
C552 H546 0.930 . S
C552 C553 1.367 . S
C552 C560 1.378 1_565 S
C553 C552 1.367 . S
C553 C561 1.433 . S
C554 H550 0.929 . S
C554 C556 1.378 1_565 S
C554 C558 1.350 1_565 S
C555 C558 1.463 1_564 S
C555 C560 1.350 1_565 S
C555 N563 1.427 . S
C556 H547 0.930 . S
C556 C554 1.378 1_545 S
C556 C557 1.367 . S
C557 C556 1.367 . S
C557 C559 1.433 . S
C558 C554 1.350 1_545 S
C558 C555 1.463 1_546 S
C558 N562 1.427 . S
C559 H549 0.929 . S
C559 C557 1.433 . S
C559 N562 1.384 . S
C560 H551 0.929 . S
C560 C552 1.378 1_545 S
C560 C555 1.350 1_545 S
C561 H548 0.929 . S
C561 C553 1.433 . S
C561 N563 1.384 . S
N562 C558 1.427 . S
N562 C559 1.384 . S
N563 C555 1.427 . S
N563 C561 1.384 . S
H564 C570 0.930 . S
H565 C574 0.930 . S
H566 C579 0.929 . S
H567 C577 0.929 . S
H568 C572 0.929 1_556 S
H569 C578 0.929 1_554 S
C570 H564 0.930 . S
C570 C571 1.367 . S
C570 C578 1.378 . S
C571 C570 1.367 . S
C571 C579 1.433 . S
C572 H568 0.929 1_554 S
C572 C574 1.378 . S
C572 C576 1.350 . S
C573 C576 1.463 1_656 S
C573 C578 1.350 . S
C573 N581 1.427 . S
C574 H565 0.930 . S
C574 C572 1.378 . S
C574 C575 1.367 . S
C575 C574 1.367 . S
C575 C577 1.433 . S
C576 C572 1.350 . S
C576 C573 1.463 1_454 S
C576 N580 1.427 . S
C577 H567 0.929 . S
C577 C575 1.433 . S
C577 N580 1.384 . S
C578 H569 0.929 1_556 S
C578 C570 1.378 . S
C578 C573 1.350 . S
C579 H566 0.929 . S
C579 C571 1.433 . S
C579 N581 1.384 . S
N580 C576 1.427 . S
N580 C577 1.384 . S
N581 C573 1.427 . S
N581 C579 1.384 . S
H582 C588 0.930 . S
H583 C592 0.930 . S
H584 C597 0.929 . S
H585 C595 0.929 . S
H586 C590 0.929 . S
H587 C596 0.929 . S
C588 H582 0.930 . S
C588 C589 1.367 . S
C588 C596 1.378 1_556 S
C589 C588 1.367 . S
C589 C597 1.433 . S
C590 H586 0.929 . S
C590 C592 1.378 1_556 S
C590 C594 1.350 1_556 S
C591 C594 1.463 1_456 S
C591 C596 1.350 1_556 S
C591 N599 1.427 . S
C592 H583 0.930 . S
C592 C590 1.378 1_554 S
C592 C593 1.367 . S
C593 C592 1.367 . S
C593 C595 1.433 . S
C594 C590 1.350 1_554 S
C594 C591 1.463 1_654 S
C594 N598 1.427 . S
C595 H585 0.929 . S
C595 C593 1.433 . S
C595 N598 1.384 . S
C596 H587 0.929 . S
C596 C588 1.378 1_554 S
C596 C591 1.350 1_554 S
C597 H584 0.929 . S
C597 C589 1.433 . S
C597 N599 1.384 . S
N598 C594 1.427 . S
N598 C595 1.384 . S
N599 C591 1.427 . S
N599 C597 1.384 . S
C175 C50 0.955 . S
C179 C8 0.964 . S
C193 C36 0.964 . S
C197 C22 0.954 . S
C211 C78 0.964 . S
C215 C64 0.956 . S
C229 C92 0.964 . S
C233 C106 0.955 . S
C247 C134 0.956 . S
C251 C120 0.950 . S
C265 C148 0.956 . S
C269 C162 0.950 . S
C283 C9 0.935 . S
C287 C101 0.955 . S
C301 C87 0.952 . S
C305 C23 0.947 . S
C319 C73 0.947 . S
C323 C37 0.952 . S
C337 C59 0.954 . S
C341 C51 0.944 . S
C355 C65 0.947 . S
C359 C157 0.934 . S
C373 C115 0.956 . S
C377 C79 0.936 . S
C391 C143 0.949 . S
C395 C93 0.951 . S
C409 C107 0.943 . S
C413 C129 0.954 . S
C427 C31 0.955 . S
C431 C121 0.934 . S
C445 C3 0.956 . S
C449 C135 0.937 . S
C463 C149 0.953 . S
C467 C17 0.944 . S
C481 C45 0.938 . S
C485 C163 0.940 . S
C499 C7 1.242 . S
C503 C21 1.234 . S
C517 C49 1.235 . S
C521 C35 1.242 . S
C535 C91 1.242 . S
C539 C63 1.235 . S
C553 C77 1.242 . S
C557 C105 1.235 . S
C571 C147 1.242 . S
C575 C119 1.233 . S
C589 C133 1.242 . S
C593 C161 1.235 . S
