# Generated by pormake.
# Topology umf, (4)-cn, num edge types: 1
# Building blocks:
#     Node 0, Type 0, BuildingBlock: MUDLON_clean_sbu_0, # of connection points: 4
#     Node 1, Type 0, BuildingBlock: MUDLON_clean_sbu_0, # of connection points: 4
#     Node 2, Type 0, BuildingBlock: MUDLON_clean_sbu_0, # of connection points: 4
#     Node 3, Type 0, BuildingBlock: MUDLON_clean_sbu_0, # of connection points: 4
#     Node 4, Type 0, BuildingBlock: MUDLON_clean_sbu_0, # of connection points: 4
#     Node 5, Type 0, BuildingBlock: MUDLON_clean_sbu_0, # of connection points: 4
#     Node 6, Type 0, BuildingBlock: MUDLON_clean_sbu_0, # of connection points: 4
#     Node 7, Type 0, BuildingBlock: MUDLON_clean_sbu_0, # of connection points: 4
#     Edge 8, Type (0, 0), BuildingBlock: FUNLAD_clean_linker_1, # of connection points: 2
#     Edge 9, Type (0, 0), BuildingBlock: FUNLAD_clean_linker_1, # of connection points: 2
#     Edge 10, Type (0, 0), BuildingBlock: FUNLAD_clean_linker_1, # of connection points: 2
#     Edge 11, Type (0, 0), BuildingBlock: FUNLAD_clean_linker_1, # of connection points: 2
#     Edge 12, Type (0, 0), BuildingBlock: FUNLAD_clean_linker_1, # of connection points: 2
#     Edge 13, Type (0, 0), BuildingBlock: FUNLAD_clean_linker_1, # of connection points: 2
#     Edge 14, Type (0, 0), BuildingBlock: FUNLAD_clean_linker_1, # of connection points: 2
#     Edge 15, Type (0, 0), BuildingBlock: FUNLAD_clean_linker_1, # of connection points: 2
#     Edge 16, Type (0, 0), BuildingBlock: FUNLAD_clean_linker_1, # of connection points: 2
#     Edge 17, Type (0, 0), BuildingBlock: FUNLAD_clean_linker_1, # of connection points: 2
#     Edge 18, Type (0, 0), BuildingBlock: FUNLAD_clean_linker_1, # of connection points: 2
#     Edge 19, Type (0, 0), BuildingBlock: FUNLAD_clean_linker_1, # of connection points: 2
#     Edge 20, Type (0, 0), BuildingBlock: FUNLAD_clean_linker_1, # of connection points: 2
#     Edge 21, Type (0, 0), BuildingBlock: FUNLAD_clean_linker_1, # of connection points: 2
#     Edge 22, Type (0, 0), BuildingBlock: FUNLAD_clean_linker_1, # of connection points: 2
#     Edge 23, Type (0, 0), BuildingBlock: FUNLAD_clean_linker_1, # of connection points: 2
# Relax obj value: 0.092
# Max RMSD: 0.171
# Mean RMSD: 0.171
data_MOF--net-umf--node1-MUDLON_clean_sbu_0--edge1-FUNLAD_clean_linker_1
_symmetry_space_group_name_H-M    P1
_symmetry_Int_Tables_number       1
_symmetry_cell_setting            triclinic
loop_
_symmetry_equiv_pos_as_xyz
'x, y, z'
_cell_length_a     30.603177
_cell_length_b     30.392802
_cell_length_c     58.751441
_cell_angle_alpha  89.699842
_cell_angle_beta   90.336361
_cell_angle_gamma 90.092371
loop_
_atom_site_label
_atom_site_type_symbol
_atom_site_fract_x
_atom_site_fract_y
_atom_site_fract_z
_atom_type_partial_charge
Mg0 Mg 0.09167 0.25453 0.15413 0.0
C1 C 0.06794 0.24105 0.10566 0.0
O2 O 0.03247 0.22794 0.11623 0.0
C3 C 0.14397 0.2536 0.19596 0.0
O4 O 0.10786 0.27388 0.20179 0.0
C5 C 0.03942 0.33984 0.15119 0.0
O6 O 0.01922 0.31957 0.13446 0.0
O7 O 0.06875 0.31986 0.16253 0.0
O8 O 0.10087 0.25316 0.11739 0.0
O9 O 0.04719 0.20131 0.16279 0.0
C10 C 0.06559 0.16434 0.16614 0.0
O11 O 0.10835 0.16179 0.16476 0.0
O12 O 0.14899 0.24265 0.17528 0.0
Mg13 Mg 0.74795 0.08254 0.65634 0.0
C14 C 0.75382 0.05736 0.60823 0.0
O15 O 0.75255 0.01941 0.61903 0.0
C16 C 0.75183 0.13211 0.69861 0.0
O17 O 0.73556 0.0937 0.70455 0.0
C18 C 0.67156 0.01848 0.66455 0.0
O19 O 0.70106 0.98769 0.66182 0.0
O20 O 0.68268 0.05871 0.66347 0.0
O21 O 0.75261 0.09267 0.61974 0.0
O22 O 0.80038 0.03759 0.66553 0.0
C23 C 0.83691 0.05641 0.66906 0.0
O24 O 0.83926 0.09948 0.66739 0.0
O25 O 0.75897 0.13969 0.67766 0.0
Mg26 Mg 0.91069 0.75691 0.15391 0.0
C27 C 0.93752 0.77053 0.10615 0.0
O28 O 0.97371 0.77856 0.11754 0.0
C29 C 0.85843 0.7605 0.19531 0.0
O30 O 0.89311 0.73772 0.20136 0.0
C31 C 0.96351 0.6717 0.15445 0.0
O32 O 0.99243 0.69545 0.14339 0.0
O33 O 0.92858 0.68944 0.16138 0.0
O34 O 0.90285 0.76157 0.1171 0.0
O35 O 0.95847 0.80625 0.16358 0.0
C36 C 0.94277 0.84494 0.16339 0.0
O37 O 0.90136 0.85036 0.15804 0.0
O38 O 0.85425 0.77233 0.17462 0.0
Mg39 Mg 0.25489 0.94645 0.66178 0.0
C40 C 0.23595 0.97022 0.61368 0.0
O41 O 0.22055 1.00434 0.62467 0.0
C42 C 0.25652 0.89366 0.70321 0.0
O43 O 0.27052 0.93264 0.70958 0.0
C44 C 0.33264 0.00894 0.6593 0.0
O45 O 0.30742 0.02988 0.64472 0.0
O46 O 0.31814 0.97512 0.66959 0.0
O47 O 0.25176 0.93813 0.625 0.0
O48 O 0.19858 0.98535 0.67148 0.0
C49 C 0.16354 0.96298 0.67286 0.0
O50 O 0.16503 0.92049 0.66889 0.0
O51 O 0.24888 0.88709 0.68221 0.0
Mg52 Mg 0.06123 0.76294 0.88752 0.0
C53 C 0.03191 0.75477 0.93526 0.0
O54 O 0.99989 0.73586 0.92394 0.0
C55 C 0.11992 0.75994 0.84892 0.0
O56 O 0.08301 0.7433 0.84128 0.0
C57 C 0.00627 0.68324 0.86824 0.0
O58 O 0.98152 0.7121 0.85763 0.0
O59 O 0.03793 0.69628 0.88058 0.0
O60 O 0.06477 0.76927 0.92437 0.0
O61 O 0.02711 0.82126 0.87473 0.0
C62 C 0.99568 0.84024 0.88475 0.0
O63 O 0.97642 0.82051 0.90189 0.0
O64 O 0.12292 0.76969 0.86989 0.0
Mg65 Mg 0.25382 0.07056 0.39162 0.0
C66 C 0.25725 0.0522 0.44096 0.0
O67 O 0.27986 0.01972 0.43224 0.0
C68 C 0.25418 0.12105 0.34909 0.0
O69 O 0.26563 0.08118 0.34307 0.0
C70 C 0.34095 0.02521 0.37493 0.0
O71 O 0.32051 0.0129 0.3563 0.0
O72 O 0.32076 0.04614 0.39027 0.0
O73 O 0.24164 0.08151 0.42768 0.0
O74 O 0.20065 0.02935 0.37917 0.0
C75 C 0.17934 1.00336 0.39201 0.0
O76 O 0.19412 0.99464 0.41254 0.0
O77 O 0.24786 0.12879 0.37006 0.0
Mg78 Mg 0.95358 0.2573 0.88495 0.0
C79 C 0.98014 0.26615 0.93345 0.0
O80 O 0.01267 0.28559 0.92289 0.0
C81 C 0.89793 0.2558 0.84501 0.0
O82 O 0.9362 0.26943 0.83774 0.0
C83 C 0.01471 0.33772 0.87341 0.0
O84 O 0.04734 0.30975 0.8732 0.0
O85 O 0.97615 0.32395 0.87712 0.0
O86 O 0.94821 0.2514 0.9218 0.0
O87 O 0.98898 0.19922 0.87345 0.0
C88 C 0.01955 0.18038 0.88453 0.0
O89 O 0.03717 0.20021 0.90212 0.0
O90 O 0.89284 0.24938 0.86623 0.0
Mg91 Mg 0.76942 0.95374 0.38649 0.0
C92 C 0.7678 0.98128 0.43449 0.0
O93 O 0.76873 0.01883 0.4233 0.0
C94 C 0.75402 0.89444 0.34731 0.0
O95 O 0.73139 0.92944 0.34143 0.0
C96 C 0.67539 0.97326 0.38593 0.0
O97 O 0.67908 0.94197 0.40134 0.0
O98 O 0.70976 0.98778 0.37641 0.0
O99 O 0.76779 0.94555 0.42332 0.0
O100 O 0.83084 0.98676 0.37905 0.0
C101 C 0.84742 0.9864 0.35924 0.0
O102 O 0.82449 0.97105 0.34209 0.0
O103 O 0.77223 0.89328 0.36682 0.0
H104 H 0.05519 0.40363 0.16674 0.0
C105 C 0.03275 0.38715 0.15516 0.0
H106 H 0.9803 0.39468 0.13207 0.0
H107 H 1.002 0.58182 0.19277 0.0
H108 H 0.98724 0.53743 0.22627 0.0
H109 H 0.97559 0.45735 0.22311 0.0
H110 H 0.98008 0.42108 0.18654 0.0
C111 C 1.00212 0.41072 0.14411 0.0
C112 C 1.00111 0.45967 0.14571 0.0
C113 C 0.99537 0.48069 0.16701 0.0
C114 C 0.99889 0.52725 0.1686 0.0
C115 C 0.99701 0.54692 0.19038 0.0
C116 C 0.98894 0.52177 0.20979 0.0
C117 C 0.98262 0.47666 0.20803 0.0
C118 C 0.98571 0.4562 0.18694 0.0
H119 H 0.94048 0.60512 0.16306 0.0
C120 C 0.96822 0.62365 0.15658 0.0
H121 H 0.03135 0.62018 0.14255 0.0
H122 H 0.01403 0.43015 0.10215 0.0
H123 H 0.02361 0.47502 0.06839 0.0
H124 H 0.02348 0.55596 0.07069 0.0
H125 H 0.01437 0.59257 0.10683 0.0
C126 C 1.00395 0.60206 0.14965 0.0
C127 C 1.00451 0.55305 0.14861 0.0
C128 C 0.0089 0.53213 0.12721 0.0
C129 C 0.00774 0.48542 0.12579 0.0
C130 C 0.01365 0.46547 0.10426 0.0
C131 C 0.01931 0.49083 0.08468 0.0
C132 C 0.0193 0.5364 0.08598 0.0
C133 C 0.01415 0.55699 0.10691 0.0
H134 H 0.39044 0.04978 0.65164 0.0
C135 C 0.3791 0.02139 0.66128 0.0
H136 H 0.39746 0.96825 0.68269 0.0
H137 H 0.58078 0.01397 0.62755 0.0
H138 H 0.54288 0.98515 0.59453 0.0
H139 H 0.46523 0.96371 0.59669 0.0
H140 H 0.42488 0.97179 0.63176 0.0
C141 C 0.40816 0.9965 0.67276 0.0
C142 C 0.45584 1.00601 0.67189 0.0
C143 C 0.4794 0.99929 0.65146 0.0
C144 C 0.52467 0.00978 0.6505 0.0
C145 C 0.5468 1.00505 0.62953 0.0
C146 C 0.52536 0.98874 0.61037 0.0
C147 C 0.48162 0.97682 0.61156 0.0
C148 C 0.45876 0.98191 0.6318 0.0
H149 H 0.61624 0.97175 0.6666 0.0
C150 C 0.62515 1.00636 0.66722 0.0
H151 H 0.6023 0.07167 0.6705 0.0
H152 H 0.42064 0.02112 0.71381 0.0
H153 H 0.45924 0.04739 0.74732 0.0
H154 H 0.53822 0.06351 0.74597 0.0
H155 H 0.57913 0.05357 0.7111 0.0
C156 C 0.59379 0.03703 0.66926 0.0
C157 C 0.54668 0.02516 0.67024 0.0
C158 C 0.52332 0.03094 0.69077 0.0
C159 C 0.47786 0.0213 0.6916 0.0
C160 C 0.45527 0.02767 0.71229 0.0
C161 C 0.47701 0.04276 0.73164 0.0
C162 C 0.52148 0.05188 0.73087 0.0
C163 C 0.54454 0.0461 0.71074 0.0
H164 H 0.05675 0.39643 0.86849 0.0
C165 C 0.02326 0.38553 0.87093 0.0
H166 H 0.95785 0.40503 0.87604 0.0
H167 H 0.99893 0.5915 0.91646 0.0
H168 H 0.978 0.55144 0.95049 0.0
H169 H 0.96722 0.47101 0.94963 0.0
H170 H 0.97717 0.43015 0.91472 0.0
C171 C 0.99116 0.41561 0.87272 0.0
C172 C 1.00009 0.46393 0.87316 0.0
C173 C 0.99433 0.4874 0.89374 0.0
C174 C 1.00113 0.53374 0.89431 0.0
C175 C 0.99477 0.55625 0.91509 0.0
C176 C 0.98263 0.53368 0.93476 0.0
C177 C 0.9765 0.48841 0.93427 0.0
C178 C 0.98222 0.46538 0.91407 0.0
H179 H 0.96943 0.62525 0.85567 0.0
C180 C 0.9975 0.63551 0.86574 0.0
H181 H 0.05071 0.61492 0.88622 0.0
H182 H 0.01092 0.4298 0.83056 0.0
H183 H 0.03404 0.4695 0.79678 0.0
H184 H 0.04941 0.54913 0.79821 0.0
H185 H 0.0411 0.58973 0.83333 0.0
C186 C 0.02329 0.60487 0.87561 0.0
C187 C 0.01379 0.55672 0.87433 0.0
C188 C 0.01985 0.53323 0.85376 0.0
C189 C 0.01242 0.48691 0.85311 0.0
C190 C 0.01724 0.46467 0.83217 0.0
C191 C 0.03034 0.48709 0.81262 0.0
C192 C 0.03889 0.53196 0.81342 0.0
C193 C 0.03381 0.55492 0.83369 0.0
H194 H 0.40213 0.02516 0.39474 0.0
C195 C 0.38805 0.01706 0.37824 0.0
H196 H 0.40102 0.99343 0.34519 0.0
H197 H 0.59105 0.05985 0.39182 0.0
H198 H 0.56134 0.13335 0.38814 0.0
H199 H 0.48668 0.14517 0.37331 0.0
H200 H 0.44093 0.0833 0.36258 0.0
C201 C 0.41433 1.00236 0.36172 0.0
C202 C 0.46196 0.99604 0.36617 0.0
C203 C 0.4892 0.03266 0.37114 0.0
C204 C 0.53312 0.02595 0.37851 0.0
C205 C 0.55827 0.06298 0.38508 0.0
C206 C 0.54148 0.10543 0.38322 0.0
C207 C 0.49939 0.11208 0.37497 0.0
C208 C 0.47339 0.07626 0.36901 0.0
H209 H 0.62932 0.00887 0.3632 0.0
C210 C 0.63173 0.98801 0.37823 0.0
H211 H 0.5978 0.95251 0.40349 0.0
H212 H 0.4196 0.91911 0.35619 0.0
H213 H 0.4506 0.84574 0.35729 0.0
H214 H 0.52781 0.83422 0.36801 0.0
H215 H 0.57437 0.89588 0.37788 0.0
C216 C 0.59523 0.97427 0.38881 0.0
C217 C 0.55045 0.9827 0.37965 0.0
C218 C 0.52391 0.94634 0.37329 0.0
C219 C 0.47961 0.95301 0.36668 0.0
C220 C 0.45358 0.91597 0.36111 0.0
C221 C 0.47095 0.87365 0.36166 0.0
C222 C 0.5144 0.86716 0.36773 0.0
C223 C 0.54072 0.9029 0.37346 0.0
H224 H 0.95461 0.24278 0.96658 0.0
C225 C 0.98213 0.25871 0.9583 0.0
H226 H 0.04517 0.28609 0.96255 0.0
H227 H 0.02841 0.32182 0.0678 0.0
H228 H 0.02338 0.39594 0.05275 0.0
H229 H 0.01747 0.40932 1.01139 0.0
H230 H 0.0162 0.34846 0.98486 0.0
C231 C 0.01784 0.26939 0.97058 0.0
C232 C 0.02106 0.26081 0.99553 0.0
C233 C 0.02267 0.29677 1.0108 0.0
C234 C 0.02667 0.28909 0.03464 0.0
C235 C 0.02649 0.32564 0.04952 0.0
C236 C 0.02338 0.36846 0.04111 0.0
C237 C 0.02001 0.37597 1.01783 0.0
C238 C 0.01947 0.34071 1.00278 0.0
H239 H 0.09679 0.25919 0.0724 0.0
C240 C 0.06785 0.24594 0.08062 0.0
H241 H 1.00312 0.22296 0.07608 0.0
H242 H 0.02329 0.18436 0.97089 0.0
H243 H 0.02792 0.11021 0.986 0.0
H244 H 0.0332 0.09693 0.02738 0.0
H245 H 0.03428 0.15789 0.0539 0.0
C246 C 0.03195 0.237 0.06812 0.0
C247 C 0.02979 0.24541 0.04315 0.0
C248 C 0.02827 0.20946 0.02789 0.0
C249 C 0.0244 0.21712 1.00404 0.0
C250 C 0.02485 0.18056 0.98918 0.0
C251 C 0.0278 0.13774 0.99762 0.0
C252 C 0.03082 0.13026 1.02092 0.0
C253 C 0.03126 0.16556 0.03595 0.0
H254 H 0.7567 0.09058 0.57458 0.0
C255 C 0.75598 0.05876 0.5831 0.0
H256 H 0.7572 0.9897 0.57914 0.0
H257 H 0.68932 0.04747 0.47624 0.0
H258 H 0.62355 0.07285 0.49484 0.0
H259 H 0.6187 0.07426 0.53672 0.0
H260 H 0.67965 0.05068 0.56025 0.0
C261 C 0.75662 0.02161 0.57072 0.0
C262 C 0.75945 0.02203 0.5454 0.0
C263 C 0.7233 0.03567 0.5319 0.0
C264 C 0.72586 0.03424 0.50772 0.0
C265 C 0.68925 0.04801 0.49465 0.0
C266 C 0.65121 0.06252 0.50511 0.0
C267 C 0.6485 0.06335 0.52868 0.0
C268 C 0.6839 0.04994 0.542 0.0
H269 H 0.76596 0.94917 0.46843 0.0
C270 C 0.76677 0.98072 0.45965 0.0
H271 H 0.76623 0.0499 0.46309 0.0
H272 H 0.83446 0.99333 0.56624 0.0
H273 H 0.9002 0.96788 0.54764 0.0
H274 H 0.90492 0.96614 0.50575 0.0
H275 H 0.84388 0.98957 0.48222 0.0
C276 C 0.76678 0.01822 0.47175 0.0
C277 C 0.7642 0.01842 0.49708 0.0
C278 C 0.80037 1.00482 0.51058 0.0
C279 C 0.79783 1.00633 0.53476 0.0
C280 C 0.83448 0.99267 0.54783 0.0
C281 C 0.87251 0.97812 0.53737 0.0
C282 C 0.87515 0.97712 0.51379 0.0
C283 C 0.83971 0.99045 0.50047 0.0
H284 H 0.90861 0.75841 0.07207 0.0
C285 C 0.93827 0.76796 0.08105 0.0
H286 H 1.00503 0.78512 0.07808 0.0
H287 H 0.98866 0.67047 0.98422 0.0
H288 H 0.98247 0.60738 1.00944 0.0
H289 H 0.97487 0.6172 0.05088 0.0
H290 H 0.97326 0.69007 0.06734 0.0
C291 C 0.9754 0.77472 0.06935 0.0
C292 C 0.97793 0.76861 0.04428 0.0
C293 C 0.97887 0.72567 0.03494 0.0
C294 C 0.98363 0.72002 1.01105 0.0
C295 C 0.98483 0.67674 1.00221 0.0
C296 C 0.98147 0.64019 1.0165 0.0
C297 C 0.97719 0.64571 0.03983 0.0
C298 C 0.97608 0.68782 0.04905 0.0
H299 H 0.05623 0.77568 0.9691 0.0
C300 C 0.02868 0.76115 0.9601 0.0
H301 H 0.9647 0.73545 0.96274 0.0
H302 H 0.97801 0.85513 0.05677 0.0
H303 H 0.98347 0.91841 0.03157 0.0
H304 H 0.9895 0.90879 0.99004 0.0
H305 H 0.99062 0.83598 0.97348 0.0
C306 C 0.99205 0.75078 0.97154 0.0
C307 C 0.98795 0.75725 0.99656 0.0
C308 C 0.98655 0.80022 1.00589 0.0
C309 C 0.9821 0.80583 0.02981 0.0
C310 C 0.98127 0.84902 0.03873 0.0
C311 C 0.98424 0.88563 0.02446 0.0
C312 C 0.9877 0.88021 1.00108 0.0
C313 C 0.98863 0.83814 0.9918 0.0
H314 H 0.23036 0.08077 0.47258 0.0
C315 C 0.24822 0.05309 0.46563 0.0
H316 H 0.27706 0.9912 0.47238 0.0
H317 H 0.2824 0.06762 0.57692 0.0
H318 H 0.33514 0.12049 0.56276 0.0
H319 H 0.35012 0.12683 0.52167 0.0
H320 H 0.31229 0.0805 0.49449 0.0
C321 C 0.26074 0.01979 0.47938 0.0
C322 C 0.24996 0.01833 0.50404 0.0
C323 C 0.27234 0.0458 0.5197 0.0
C324 C 0.26395 0.04186 0.54342 0.0
C325 C 0.28718 0.06936 0.55871 0.0
C326 C 0.3177 0.09978 0.55082 0.0
C327 C 0.32612 0.10336 0.52769 0.0
C328 C 0.30398 0.07666 0.51225 0.0
H329 H 0.25332 0.94316 0.58001 0.0
C330 C 0.23856 0.97099 0.58858 0.0
H331 H 0.21221 0.03486 0.58494 0.0
H332 H 0.20089 0.96135 0.47856 0.0
H333 H 0.14747 0.90899 0.49266 0.0
H334 H 0.13199 0.90307 0.53372 0.0
H335 H 0.17006 0.9492 0.56095 0.0
C336 C 0.22548 1.00626 0.57639 0.0
C337 C 0.23358 0.01014 0.55148 0.0
C338 C 0.21065 0.98321 0.53579 0.0
C339 C 0.21914 0.98707 0.51207 0.0
C340 C 0.19588 0.95968 0.49676 0.0
C341 C 0.165 0.92959 0.50461 0.0
C342 C 0.15631 0.92623 0.52773 0.0
C343 C 0.17862 0.95275 0.54321 0.0
H344 H 0.19986 0.21433 0.20873 0.0
C345 C 0.174 0.23672 0.2137 0.0
H346 H 0.14095 0.26656 0.24113 0.0
H347 H 0.19712 0.08765 0.29494 0.0
H348 H 0.14145 0.05356 0.27147 0.0
H349 H 0.10636 0.09466 0.24002 0.0
H350 H 0.12687 0.16998 0.23186 0.0
C351 C 0.16652 0.24408 0.2359 0.0
C352 C 0.18931 0.21877 0.25413 0.0
C353 C 0.17686 0.17461 0.25867 0.0
C354 C 0.19693 0.15102 0.27687 0.0
C355 C 0.18344 0.1071 0.28118 0.0
C356 C 0.1513 0.08711 0.2679 0.0
C357 C 0.13156 0.11023 0.2502 0.0
C358 C 0.14387 0.15349 0.24563 0.0
H359 H 0.22478 0.18315 0.33637 0.0
C360 C 0.24268 0.1539 0.33143 0.0
H361 H 0.26733 0.11608 0.30439 0.0
H362 H 0.21954 0.30305 0.25026 0.0
H363 H 0.27534 0.3375 0.27379 0.0
H364 H 0.31135 0.29614 0.30488 0.0
H365 H 0.29156 0.22026 0.3128 0.0
C366 C 0.25025 0.14587 0.30929 0.0
C367 C 0.2291 0.17171 0.29067 0.0
C368 C 0.24151 0.21586 0.28614 0.0
C369 C 0.22126 0.23952 0.26796 0.0
C370 C 0.23395 0.28364 0.26385 0.0
C371 C 0.26598 0.30374 0.27718 0.0
C372 C 0.28622 0.28046 0.2947 0.0
C373 C 0.2744 0.23698 0.29915 0.0
H374 H 0.83423 0.22685 0.83492 0.0
C375 C 0.86406 0.24181 0.82855 0.0
H376 H 0.90215 0.25634 0.79956 0.0
H377 H 0.82731 0.09618 0.74384 0.0
H378 H 0.89271 0.0625 0.75946 0.0
H379 H 0.93638 0.10015 0.78896 0.0
H380 H 0.91472 0.17166 0.80308 0.0
C381 C 0.87166 0.243 0.80603 0.0
C382 C 0.84322 0.21948 0.78951 0.0
C383 C 0.85628 0.1776 0.78152 0.0
C384 C 0.83098 0.1558 0.76464 0.0
C385 C 0.84502 0.11411 0.75682 0.0
C386 C 0.88263 0.09442 0.76559 0.0
C387 C 0.90721 0.11561 0.78218 0.0
C388 C 0.8944 0.15671 0.79011 0.0
H389 H 0.78589 0.19193 0.71077 0.0
C390 C 0.7683 0.16261 0.71617 0.0
H391 H 0.7504 0.12194 0.74385 0.0
H392 H 0.80964 0.29954 0.80103 0.0
H393 H 0.74341 0.33289 0.78584 0.0
H394 H 0.69878 0.2945 0.75698 0.0
H395 H 0.72021 0.22265 0.74299 0.0
C396 C 0.76634 0.15216 0.73841 0.0
C397 C 0.79274 0.17598 0.75573 0.0
C398 C 0.77947 0.21768 0.76385 0.0
C399 C 0.80487 0.23955 0.78074 0.0
C400 C 0.7913 0.28141 0.78836 0.0
C401 C 0.7534 0.30088 0.77979 0.0
C402 C 0.72828 0.27928 0.76352 0.0
C403 C 0.74097 0.23812 0.75559 0.0
H404 H 0.7875 0.83488 0.33475 0.0
C405 C 0.76518 0.86123 0.33003 0.0
H406 H 0.73225 0.89378 0.30311 0.0
H407 H 0.87747 0.84278 0.23214 0.0
H408 H 0.89914 0.91738 0.24089 0.0
H409 H 0.86343 0.95845 0.27171 0.0
H410 H 0.8062 0.92469 0.29422 0.0
C411 C 0.75291 0.86632 0.30815 0.0
C412 C 0.77389 0.84102 0.28961 0.0
C413 C 0.80642 0.8617 0.27617 0.0
C414 C 0.82648 0.83833 0.25814 0.0
C415 C 0.86026 0.85921 0.24567 0.0
C416 C 0.87321 0.90208 0.25057 0.0
C417 C 0.85317 0.92515 0.26795 0.0
C418 C 0.82024 0.90536 0.28069 0.0
H419 H 0.80459 0.80234 0.20776 0.0
C420 C 0.82914 0.77838 0.21285 0.0
H421 H 0.85974 0.74527 0.24041 0.0
H422 H 0.71209 0.7923 0.31182 0.0
H423 H 0.69099 0.71696 0.30347 0.0
H424 H 0.72563 0.6764 0.27211 0.0
H425 H 0.7815 0.71096 0.24881 0.0
C426 C 0.83565 0.7695 0.23508 0.0
C427 C 0.81326 0.79457 0.25327 0.0
C428 C 0.78094 0.77384 0.26679 0.0
C429 C 0.76111 0.79714 0.28496 0.0
C430 C 0.72845 0.77591 0.29797 0.0
C431 C 0.71599 0.73274 0.29333 0.0
C432 C 0.7355 0.7099 0.27566 0.0
C433 C 0.76756 0.73007 0.26246 0.0
H434 H 0.22655 0.83113 0.71475 0.0
C435 C 0.24273 0.86102 0.72043 0.0
H436 H 0.2596 0.90079 0.74852 0.0
H437 H 0.1001 0.83886 0.80751 0.0
H438 H 0.07366 0.90933 0.79381 0.0
H439 H 0.11387 0.95074 0.76437 0.0
H440 H 0.18092 0.9219 0.74854 0.0
C441 C 0.24511 0.87009 0.74278 0.0
C442 C 0.2206 0.84387 0.75989 0.0
C443 C 0.18157 0.86139 0.76905 0.0
C444 C 0.15822 0.83744 0.78588 0.0
C445 C 0.11915 0.85558 0.79464 0.0
C446 C 0.10356 0.89606 0.78693 0.0
C447 C 0.12624 0.91938 0.77038 0.0
C448 C 0.16477 0.90244 0.76148 0.0
H449 H 0.18125 0.79366 0.83918 0.0
C450 C 0.15367 0.77478 0.83274 0.0
H451 H 0.11957 0.75282 0.80352 0.0
H452 H 0.29494 0.8018 0.7464 0.0
H453 H 0.32087 0.73065 0.7598 0.0
H454 H 0.27973 0.68867 0.78869 0.0
H455 H 0.21247 0.71771 0.80449 0.0
C456 C 0.1478 0.77039 0.81017 0.0
C457 C 0.17401 0.7961 0.79358 0.0
C458 C 0.21298 0.77859 0.78447 0.0
C459 C 0.23644 0.80259 0.76762 0.0
C460 C 0.27562 0.78467 0.75902 0.0
C461 C 0.29088 0.74394 0.7666 0.0
C462 C 0.26772 0.72031 0.78288 0.0
C463 C 0.2292 0.73729 0.7918 0.0
H464 H 1.00393 0.12639 0.16783 0.0
C465 C 0.03928 0.12411 0.16932 0.0
H466 H 0.09371 0.08204 0.17334 0.0
H467 H 0.92888 0.9523 0.20474 0.0
H468 H 0.92171 1.00049 0.23735 0.0
H469 H 0.96617 0.06798 0.24047 0.0
H470 H 0.01772 0.08799 0.21093 0.0
C471 C 0.05832 0.08468 0.17249 0.0
C472 C 0.03282 0.04306 0.17147 0.0
C473 C 1.00333 0.03161 0.18905 0.0
C474 C 0.97823 0.99231 0.18742 0.0
C475 C 0.94874 0.98177 0.20513 0.0
C476 C 0.9444 0.00906 0.22396 0.0
C477 C 0.96939 0.0471 0.22571 0.0
C478 C 0.99867 0.05834 0.20856 0.0
H479 H 0.00573 0.87829 0.1705 0.0
C480 C 0.97105 0.88346 0.16745 0.0
H481 H 0.92021 0.93004 0.16378 0.0
H482 H 0.08759 0.05475 0.13516 0.0
H483 H 0.09468 1.00678 0.10261 0.0
H484 H 0.0501 0.9394 0.09937 0.0
H485 H 0.99854 0.91945 0.12873 0.0
C486 C 0.95501 0.92459 0.16623 0.0
C487 C 0.98327 0.96419 0.16843 0.0
C488 C 0.01313 0.97544 0.15094 0.0
C489 C 0.03827 0.01469 0.15261 0.0
C490 C 0.06772 0.02529 0.13485 0.0
C491 C 0.07204 0.99811 0.116 0.0
C492 C 0.04699 0.96016 0.11419 0.0
C493 C 0.01768 0.94892 0.13131 0.0
H494 H 0.12039 0.02031 0.67837 0.0
C495 C 0.12124 0.98468 0.67692 0.0
H496 H 0.0842 0.92598 0.67521 0.0
H497 H 0.93425 0.05685 0.71836 0.0
H498 H 0.97641 0.05133 0.75339 0.0
H499 H 0.04802 0.0141 0.75412 0.0
H500 H 0.07812 0.9825 0.71972 0.0
C501 C 0.0838 0.96147 0.67738 0.0
C502 C 0.0405 0.98342 0.67735 0.0
C503 C 0.02345 1.00159 0.69759 0.0
C504 C 0.982 0.02271 0.69722 0.0
C505 C 0.96565 0.04059 0.71768 0.0
C506 C 0.98945 0.03753 0.73792 0.0
C507 C 0.02979 0.01659 0.73832 0.0
C508 C 0.04674 0.99872 0.71845 0.0
H509 H 0.87514 0.99474 0.67146 0.0
C510 C 0.87696 0.03035 0.67275 0.0
H511 H 0.91787 0.08561 0.67793 0.0
H512 H 0.06332 0.95043 0.63578 0.0
H513 H 0.02152 0.9561 0.60073 0.0
H514 H 0.95057 0.99449 0.59977 0.0
H515 H 0.9209 0.02704 0.63383 0.0
C516 C 0.91585 0.05012 0.676 0.0
C517 C 0.9576 0.02522 0.67666 0.0
C518 C 0.97461 1.00677 0.65641 0.0
C519 C 0.01588 0.98537 0.65685 0.0
C520 C 0.03214 0.96711 0.63644 0.0
C521 C 0.00854 0.97021 0.61616 0.0
C522 C 0.9686 0.99177 0.61562 0.0
C523 C 0.95178 0.01008 0.63541 0.0
H524 H 0.05803 0.11943 0.88895 0.0
C525 C 0.02927 0.1333 0.8807 0.0
H526 H 0.97111 0.11965 0.86249 0.0
H527 H 0.01471 0.92946 0.82796 0.0
H528 H 0.01401 0.97074 0.79247 0.0
H529 H 0.01004 0.05176 0.79249 0.0
H530 H 0.00594 0.09209 0.82789 0.0
C531 C 1.0002 0.10618 0.8706 0.0
C532 C 0.0051 0.05717 0.87088 0.0
C533 C 0.0078 0.03392 0.85005 0.0
C534 C 0.01095 0.98711 0.85008 0.0
C535 C 0.01288 0.96494 0.82896 0.0
C536 C 0.01243 0.98821 0.80846 0.0
C537 C 0.01006 0.03383 0.80845 0.0
C538 C 0.0077 0.05659 0.82892 0.0
H539 H 0.95732 0.90142 0.88784 0.0
C540 C 0.98652 0.88737 0.88036 0.0
H541 H 0.04592 0.90073 0.8635 0.0
H542 H 0.99234 0.08977 0.91392 0.0
H543 H 0.99824 0.04937 0.94935 0.0
H544 H 0.01374 0.96975 0.94954 0.0
H545 H 0.02192 0.93002 0.9143 0.0
C546 C 0.01641 0.91435 0.87085 0.0
C547 C 0.01191 0.96342 0.87096 0.0
C548 C 0.01049 0.98681 0.89186 0.0
C549 C 0.00514 0.03339 0.89179 0.0
C550 C 0.99941 0.05504 0.91288 0.0
C551 C 1.00226 0.03212 0.93342 0.0
C552 C 0.01072 0.98729 0.93352 0.0
C553 C 0.01487 0.96476 0.91308 0.0
H554 H 0.90697 0.99629 0.33872 0.0
C555 C 0.89423 0.99635 0.35596 0.0
H556 H 0.90989 1.00034 0.39098 0.0
H557 H 0.10013 0.93177 0.3544 0.0
H558 H 0.06248 0.86305 0.3466 0.0
H559 H 0.98238 0.85754 0.35019 0.0
H560 H 0.93939 0.92069 0.36129 0.0
C561 C 0.92202 1.00029 0.37364 0.0
C562 C 0.97015 1.00365 0.37043 0.0
C563 C 0.99486 0.96601 0.36436 0.0
C564 C 0.04123 0.96872 0.36302 0.0
C565 C 0.06499 0.93109 0.3563 0.0
C566 C 0.04378 0.89154 0.35167 0.0
C567 C 0.99867 0.88847 0.35363 0.0
C568 C 0.97434 0.9251 0.35994 0.0
H569 H 0.11674 0.96935 0.39793 0.0
C570 C 0.13397 0.99092 0.38618 0.0
H571 H 0.12781 0.03455 0.35827 0.0
H572 H 0.93247 0.08208 0.38147 0.0
H573 H 0.97019 0.15051 0.38974 0.0
H574 H 0.05064 0.15482 0.38843 0.0
H575 H 0.09385 0.09094 0.37879 0.0
C576 C 0.11154 0.01091 0.3693 0.0
C577 C 0.06289 0.00863 0.36838 0.0
C578 C 0.03809 0.0465 0.37392 0.0
C579 C 0.99172 0.04395 0.37495 0.0
C580 C 0.96779 0.08215 0.38065 0.0
C581 C 0.98901 0.12165 0.3854 0.0
C582 C 0.03429 0.12408 0.38464 0.0
C583 C 0.05872 0.08709 0.37902 0.0
loop_
_geom_bond_atom_site_label_1
_geom_bond_atom_site_label_2
_geom_bond_distance
_geom_bond_site_symmetry_2
_ccdc_geom_bond_type
Mg0 O7 2.141 . S
Mg0 O8 2.048 . S
Mg0 O9 2.048 . S
Mg0 O12 2.141 . S
C1 O2 1.313 . S
C1 O8 1.195 . S
O2 C1 1.313 . S
C3 O4 1.245 . S
C3 O12 1.289 . S
O4 C3 1.245 . S
C5 O6 1.245 . S
C5 O7 1.289 . S
O6 C5 1.245 . S
O7 Mg0 2.141 . S
O7 C5 1.289 . S
O8 Mg0 2.048 . S
O8 C1 1.195 . S
O9 Mg0 2.048 . S
O9 C10 1.195 . S
C10 O9 1.195 . S
C10 O11 1.313 . S
O11 C10 1.313 . S
O12 Mg0 2.141 . S
O12 C3 1.289 . S
Mg13 O20 2.141 . S
Mg13 O21 2.048 . S
Mg13 O22 2.048 . S
Mg13 O25 2.141 . S
C14 O15 1.313 . S
C14 O21 1.195 . S
O15 C14 1.313 . S
C16 O17 1.245 . S
C16 O25 1.289 . S
O17 C16 1.245 . S
C18 O19 1.245 . S
C18 O20 1.289 . S
O19 C18 1.245 . S
O20 Mg13 2.141 . S
O20 C18 1.289 . S
O21 Mg13 2.048 . S
O21 C14 1.195 . S
O22 Mg13 2.048 . S
O22 C23 1.195 . S
C23 O22 1.195 . S
C23 O24 1.313 . S
O24 C23 1.313 . S
O25 Mg13 2.141 . S
O25 C16 1.289 . S
Mg26 O33 2.141 . S
Mg26 O34 2.048 . S
Mg26 O35 2.048 . S
Mg26 O38 2.141 . S
C27 O28 1.313 . S
C27 O34 1.195 . S
O28 C27 1.313 . S
C29 O30 1.245 . S
C29 O38 1.289 . S
O30 C29 1.245 . S
C31 O32 1.245 . S
C31 O33 1.289 . S
O32 C31 1.245 . S
O33 Mg26 2.141 . S
O33 C31 1.289 . S
O34 Mg26 2.048 . S
O34 C27 1.195 . S
O35 Mg26 2.048 . S
O35 C36 1.195 . S
C36 O35 1.195 . S
C36 O37 1.313 . S
O37 C36 1.313 . S
O38 Mg26 2.141 . S
O38 C29 1.289 . S
Mg39 O46 2.141 . S
Mg39 O47 2.048 . S
Mg39 O48 2.048 . S
Mg39 O51 2.141 . S
C40 O41 1.313 . S
C40 O47 1.195 . S
O41 C40 1.313 . S
C42 O43 1.245 . S
C42 O51 1.289 . S
O43 C42 1.245 . S
C44 O45 1.245 . S
C44 O46 1.289 . S
O45 C44 1.245 . S
O46 Mg39 2.141 . S
O46 C44 1.289 . S
O47 Mg39 2.048 . S
O47 C40 1.195 . S
O48 Mg39 2.048 . S
O48 C49 1.195 . S
C49 O48 1.195 . S
C49 O50 1.313 . S
O50 C49 1.313 . S
O51 Mg39 2.141 . S
O51 C42 1.289 . S
Mg52 O59 2.141 . S
Mg52 O60 2.048 . S
Mg52 O61 2.048 . S
Mg52 O64 2.141 . S
C53 O54 1.313 . S
C53 O60 1.195 . S
O54 C53 1.313 . S
C55 O56 1.245 . S
C55 O64 1.289 . S
O56 C55 1.245 . S
C57 O58 1.245 . S
C57 O59 1.289 . S
O58 C57 1.245 . S
O59 Mg52 2.141 . S
O59 C57 1.289 . S
O60 Mg52 2.048 . S
O60 C53 1.195 . S
O61 Mg52 2.048 . S
O61 C62 1.195 . S
C62 O61 1.195 . S
C62 O63 1.313 . S
O63 C62 1.313 . S
O64 Mg52 2.141 . S
O64 C55 1.289 . S
Mg65 O72 2.141 . S
Mg65 O73 2.048 . S
Mg65 O74 2.048 . S
Mg65 O77 2.141 . S
C66 O67 1.313 . S
C66 O73 1.195 . S
O67 C66 1.313 . S
C68 O69 1.245 . S
C68 O77 1.289 . S
O69 C68 1.245 . S
C70 O71 1.245 . S
C70 O72 1.289 . S
O71 C70 1.245 . S
O72 Mg65 2.141 . S
O72 C70 1.289 . S
O73 Mg65 2.048 . S
O73 C66 1.195 . S
O74 Mg65 2.048 . S
O74 C75 1.195 . S
C75 O74 1.195 . S
C75 O76 1.313 . S
O76 C75 1.313 . S
O77 Mg65 2.141 . S
O77 C68 1.289 . S
Mg78 O85 2.141 . S
Mg78 O86 2.048 . S
Mg78 O87 2.048 . S
Mg78 O90 2.141 . S
C79 O80 1.313 . S
C79 O86 1.195 . S
O80 C79 1.313 . S
C81 O82 1.245 . S
C81 O90 1.289 . S
O82 C81 1.245 . S
C83 O84 1.245 . S
C83 O85 1.289 . S
O84 C83 1.245 . S
O85 Mg78 2.141 . S
O85 C83 1.289 . S
O86 Mg78 2.048 . S
O86 C79 1.195 . S
O87 Mg78 2.048 . S
O87 C88 1.195 . S
C88 O87 1.195 . S
C88 O89 1.313 . S
O89 C88 1.313 . S
O90 Mg78 2.141 . S
O90 C81 1.289 . S
Mg91 O98 2.141 . S
Mg91 O99 2.048 . S
Mg91 O100 2.048 . S
Mg91 O103 2.141 . S
C92 O93 1.313 . S
C92 O99 1.195 . S
O93 C92 1.313 . S
C94 O95 1.245 . S
C94 O103 1.289 . S
O95 C94 1.245 . S
C96 O97 1.245 . S
C96 O98 1.289 . S
O97 C96 1.245 . S
O98 Mg91 2.141 . S
O98 C96 1.289 . S
O99 Mg91 2.048 . S
O99 C92 1.195 . S
O100 Mg91 2.048 . S
O100 C101 1.195 . S
C101 O100 1.195 . S
C101 O102 1.313 . S
O102 C101 1.313 . S
O103 Mg91 2.141 . S
O103 C94 1.289 . S
H104 C105 0.951 . S
C105 H104 0.951 . S
C105 C111 1.265 . S
H106 C111 0.950 . S
H107 C115 0.949 . S
H108 C116 0.950 . S
H109 C117 0.951 . S
H110 C118 0.951 . S
C111 C105 1.265 . S
C111 H106 0.950 . S
C111 C112 1.478 . S
C112 C111 1.478 . S
C112 C113 1.397 1_455 S
C112 C129 1.394 . S
C113 C112 1.397 1_655 S
C113 C114 1.438 . S
C113 C118 1.429 . S
C114 C113 1.438 . S
C114 C115 1.428 . S
C114 C127 1.394 . S
C115 H107 0.949 . S
C115 C114 1.428 . S
C115 C116 1.345 . S
C116 H108 0.950 . S
C116 C115 1.345 . S
C116 C117 1.424 . S
C117 H109 0.951 . S
C117 C116 1.424 . S
C117 C118 1.347 . S
C118 H110 0.951 . S
C118 C113 1.429 . S
C118 C117 1.347 . S
H119 C120 0.951 . S
C120 H119 0.951 . S
C120 C126 1.265 . S
H121 C126 0.950 . S
H122 C130 0.949 . S
H123 C131 0.950 . S
H124 C132 0.951 . S
H125 C133 0.951 . S
C126 C120 1.265 . S
C126 H121 0.950 . S
C126 C127 1.478 . S
C127 C114 1.394 . S
C127 C126 1.478 . S
C127 C128 1.397 1_655 S
C128 C127 1.397 1_455 S
C128 C129 1.438 . S
C128 C133 1.429 . S
C129 C112 1.394 . S
C129 C128 1.438 . S
C129 C130 1.428 . S
C130 H122 0.949 . S
C130 C129 1.428 . S
C130 C131 1.345 . S
C131 H123 0.950 . S
C131 C130 1.345 . S
C131 C132 1.424 . S
C132 H124 0.951 . S
C132 C131 1.424 . S
C132 C133 1.347 . S
C133 H125 0.951 . S
C133 C128 1.429 . S
C133 C132 1.347 . S
H134 C135 0.951 . S
C135 H134 0.951 . S
C135 C141 1.265 . S
H136 C141 0.950 . S
H137 C145 0.949 . S
H138 C146 0.950 . S
H139 C147 0.951 . S
H140 C148 0.951 . S
C141 C135 1.265 . S
C141 H136 0.950 . S
C141 C142 1.478 . S
C142 C141 1.478 . S
C142 C143 1.397 . S
C142 C159 1.394 . S
C143 C142 1.397 . S
C143 C144 1.438 1_565 S
C143 C148 1.429 . S
C144 C143 1.438 1_545 S
C144 C145 1.428 . S
C144 C157 1.394 . S
C145 H137 0.949 . S
C145 C144 1.428 . S
C145 C146 1.345 1_545 S
C146 H138 0.950 . S
C146 C145 1.345 1_565 S
C146 C147 1.424 . S
C147 H139 0.951 . S
C147 C146 1.424 . S
C147 C148 1.347 . S
C148 H140 0.951 . S
C148 C143 1.429 . S
C148 C147 1.347 . S
H149 C150 0.951 . S
C150 H149 0.951 . S
C150 C156 1.265 . S
H151 C156 0.950 . S
H152 C160 0.949 . S
H153 C161 0.950 . S
H154 C162 0.951 . S
H155 C163 0.951 . S
C156 C150 1.265 . S
C156 H151 0.950 . S
C156 C157 1.478 . S
C157 C144 1.394 . S
C157 C156 1.478 . S
C157 C158 1.397 . S
C158 C157 1.397 . S
C158 C159 1.438 1_545 S
C158 C163 1.429 . S
C159 C142 1.394 . S
C159 C158 1.438 1_565 S
C159 C160 1.428 . S
C160 H152 0.949 . S
C160 C159 1.428 . S
C160 C161 1.345 1_565 S
C161 H153 0.950 . S
C161 C160 1.345 1_545 S
C161 C162 1.424 . S
C162 H154 0.951 . S
C162 C161 1.424 . S
C162 C163 1.347 . S
C163 H155 0.951 . S
C163 C158 1.429 . S
C163 C162 1.347 . S
H164 C165 0.951 . S
C165 H164 0.951 . S
C165 C171 1.265 . S
H166 C171 0.950 . S
H167 C175 0.949 . S
H168 C176 0.950 1_455 S
H169 C177 0.951 . S
H170 C178 0.951 . S
C171 C165 1.265 . S
C171 H166 0.950 . S
C171 C172 1.478 . S
C172 C171 1.478 . S
C172 C173 1.397 . S
C172 C189 1.394 . S
C173 C172 1.397 . S
C173 C174 1.438 1_655 S
C173 C178 1.429 . S
C174 C173 1.438 1_455 S
C174 C175 1.428 . S
C174 C187 1.394 . S
C175 H167 0.949 . S
C175 C174 1.428 . S
C175 C176 1.345 1_455 S
C176 H168 0.950 1_655 S
C176 C175 1.345 1_655 S
C176 C177 1.424 . S
C177 H169 0.951 . S
C177 C176 1.424 . S
C177 C178 1.347 . S
C178 H170 0.951 . S
C178 C173 1.429 . S
C178 C177 1.347 . S
H179 C180 0.951 . S
C180 H179 0.951 . S
C180 C186 1.265 . S
H181 C186 0.950 . S
H182 C190 0.949 . S
H183 C191 0.950 1_655 S
H184 C192 0.951 . S
H185 C193 0.951 . S
C186 C180 1.265 . S
C186 H181 0.950 . S
C186 C187 1.478 . S
C187 C174 1.394 . S
C187 C186 1.478 . S
C187 C188 1.397 . S
C188 C187 1.397 . S
C188 C189 1.438 1_455 S
C188 C193 1.429 . S
C189 C172 1.394 . S
C189 C188 1.438 1_655 S
C189 C190 1.428 . S
C190 H182 0.949 . S
C190 C189 1.428 . S
C190 C191 1.345 1_655 S
C191 H183 0.950 1_455 S
C191 C190 1.345 1_455 S
C191 C192 1.424 . S
C192 H184 0.951 . S
C192 C191 1.424 . S
C192 C193 1.347 . S
C193 H185 0.951 . S
C193 C188 1.429 . S
C193 C192 1.347 . S
H194 C195 0.951 . S
C195 H194 0.951 . S
C195 C201 1.265 . S
H196 C201 0.950 . S
H197 C205 0.949 . S
H198 C206 0.950 . S
H199 C207 0.951 . S
H200 C208 0.951 . S
C201 C195 1.265 . S
C201 H196 0.950 . S
C201 C202 1.478 . S
C202 C201 1.478 . S
C202 C203 1.397 1_545 S
C202 C219 1.394 . S
C203 C202 1.397 1_565 S
C203 C204 1.438 . S
C203 C208 1.429 . S
C204 C203 1.438 . S
C204 C205 1.428 . S
C204 C217 1.394 . S
C205 H197 0.949 . S
C205 C204 1.428 . S
C205 C206 1.345 . S
C206 H198 0.950 . S
C206 C205 1.345 . S
C206 C207 1.424 . S
C207 H199 0.951 . S
C207 C206 1.424 . S
C207 C208 1.347 . S
C208 H200 0.951 . S
C208 C203 1.429 . S
C208 C207 1.347 . S
H209 C210 0.951 . S
C210 H209 0.951 . S
C210 C216 1.265 . S
H211 C216 0.950 . S
H212 C220 0.949 . S
H213 C221 0.950 . S
H214 C222 0.951 . S
H215 C223 0.951 . S
C216 C210 1.265 . S
C216 H211 0.950 . S
C216 C217 1.478 . S
C217 C204 1.394 . S
C217 C216 1.478 . S
C217 C218 1.397 1_565 S
C218 C217 1.397 1_545 S
C218 C219 1.438 . S
C218 C223 1.429 . S
C219 C202 1.394 . S
C219 C218 1.438 . S
C219 C220 1.428 . S
C220 H212 0.949 . S
C220 C219 1.428 . S
C220 C221 1.345 . S
C221 H213 0.950 . S
C221 C220 1.345 . S
C221 C222 1.424 . S
C222 H214 0.951 . S
C222 C221 1.424 . S
C222 C223 1.347 . S
C223 H215 0.951 . S
C223 C218 1.429 . S
C223 C222 1.347 . S
H224 C225 0.951 . S
C225 H224 0.951 . S
C225 C231 1.265 . S
H226 C231 0.950 1_455 S
H227 C235 0.949 . S
H228 C236 0.950 . S
H229 C237 0.951 . S
H230 C238 0.951 . S
C231 C225 1.265 . S
C231 H226 0.950 1_655 S
C231 C232 1.478 . S
C232 C231 1.478 . S
C232 C233 1.397 1_655 S
C232 C249 1.394 . S
C233 C232 1.397 1_455 S
C233 C234 1.438 1_556 S
C233 C238 1.429 . S
C234 C233 1.438 1_554 S
C234 C235 1.428 . S
C234 C247 1.394 . S
C235 H227 0.949 . S
C235 C234 1.428 . S
C235 C236 1.345 . S
C236 H228 0.950 . S
C236 C235 1.345 . S
C236 C237 1.424 1_554 S
C237 H229 0.951 . S
C237 C236 1.424 1_556 S
C237 C238 1.347 . S
C238 H230 0.951 . S
C238 C233 1.429 . S
C238 C237 1.347 . S
H239 C240 0.951 . S
C240 H239 0.951 . S
C240 C246 1.265 . S
H241 C246 0.950 1_655 S
H242 C250 0.949 . S
H243 C251 0.950 . S
H244 C252 0.951 . S
H245 C253 0.951 . S
C246 C240 1.265 . S
C246 H241 0.950 1_455 S
C246 C247 1.478 . S
C247 C234 1.394 . S
C247 C246 1.478 . S
C247 C248 1.397 1_455 S
C248 C247 1.397 1_655 S
C248 C249 1.438 1_554 S
C248 C253 1.429 . S
C249 C232 1.394 . S
C249 C248 1.438 1_556 S
C249 C250 1.428 . S
C250 H242 0.949 . S
C250 C249 1.428 . S
C250 C251 1.345 . S
C251 H243 0.950 . S
C251 C250 1.345 . S
C251 C252 1.424 1_556 S
C252 H244 0.951 . S
C252 C251 1.424 1_554 S
C252 C253 1.347 . S
C253 H245 0.951 . S
C253 C248 1.429 . S
C253 C252 1.347 . S
H254 C255 0.951 . S
C255 H254 0.951 . S
C255 C261 1.265 . S
H256 C261 0.950 . S
H257 C265 0.949 . S
H258 C266 0.950 . S
H259 C267 0.951 . S
H260 C268 0.951 . S
C261 C255 1.265 . S
C261 H256 0.950 . S
C261 C262 1.478 . S
C262 C261 1.478 . S
C262 C263 1.397 . S
C262 C279 1.394 1_545 S
C263 C262 1.397 . S
C263 C264 1.438 . S
C263 C268 1.429 . S
C264 C263 1.438 . S
C264 C265 1.428 . S
C264 C277 1.394 1_545 S
C265 H257 0.949 . S
C265 C264 1.428 . S
C265 C266 1.345 . S
C266 H258 0.950 . S
C266 C265 1.345 . S
C266 C267 1.424 . S
C267 H259 0.951 . S
C267 C266 1.424 . S
C267 C268 1.347 . S
C268 H260 0.951 . S
C268 C263 1.429 . S
C268 C267 1.347 . S
H269 C270 0.951 . S
C270 H269 0.951 . S
C270 C276 1.265 . S
H271 C276 0.950 . S
H272 C280 0.949 . S
H273 C281 0.950 . S
H274 C282 0.951 . S
H275 C283 0.951 . S
C276 C270 1.265 . S
C276 H271 0.950 . S
C276 C277 1.478 . S
C277 C264 1.394 1_565 S
C277 C276 1.478 . S
C277 C278 1.397 . S
C278 C277 1.397 . S
C278 C279 1.438 . S
C278 C283 1.429 . S
C279 C262 1.394 1_565 S
C279 C278 1.438 . S
C279 C280 1.428 . S
C280 H272 0.949 . S
C280 C279 1.428 . S
C280 C281 1.345 . S
C281 H273 0.950 . S
C281 C280 1.345 . S
C281 C282 1.424 . S
C282 H274 0.951 . S
C282 C281 1.424 . S
C282 C283 1.347 . S
C283 H275 0.951 . S
C283 C278 1.429 . S
C283 C282 1.347 . S
H284 C285 0.951 . S
C285 H284 0.951 . S
C285 C291 1.265 . S
H286 C291 0.950 . S
H287 C295 0.949 . S
H288 C296 0.950 . S
H289 C297 0.951 1_554 S
H290 C298 0.951 . S
C291 C285 1.265 . S
C291 H286 0.950 . S
C291 C292 1.478 . S
C292 C291 1.478 . S
C292 C293 1.397 . S
C292 C309 1.394 1_655 S
C293 C292 1.397 . S
C293 C294 1.438 1_554 S
C293 C298 1.429 . S
C294 C293 1.438 1_556 S
C294 C295 1.428 . S
C294 C307 1.394 1_655 S
C295 H287 0.949 . S
C295 C294 1.428 . S
C295 C296 1.345 . S
C296 H288 0.950 . S
C296 C295 1.345 . S
C296 C297 1.424 . S
C297 H289 0.951 1_556 S
C297 C296 1.424 . S
C297 C298 1.347 1_556 S
C298 H290 0.951 . S
C298 C293 1.429 . S
C298 C297 1.347 1_554 S
H299 C300 0.951 . S
C300 H299 0.951 . S
C300 C306 1.265 . S
H301 C306 0.950 . S
H302 C310 0.949 . S
H303 C311 0.950 . S
H304 C312 0.951 1_556 S
H305 C313 0.951 . S
C306 C300 1.265 . S
C306 H301 0.950 . S
C306 C307 1.478 . S
C307 C294 1.394 1_455 S
C307 C306 1.478 . S
C307 C308 1.397 . S
C308 C307 1.397 . S
C308 C309 1.438 1_556 S
C308 C313 1.429 . S
C309 C292 1.394 1_455 S
C309 C308 1.438 1_554 S
C309 C310 1.428 . S
C310 H302 0.949 . S
C310 C309 1.428 . S
C310 C311 1.345 . S
C311 H303 0.950 . S
C311 C310 1.345 . S
C311 C312 1.424 . S
C312 H304 0.951 1_554 S
C312 C311 1.424 . S
C312 C313 1.347 1_554 S
C313 H305 0.951 . S
C313 C308 1.429 . S
C313 C312 1.347 1_556 S
H314 C315 0.951 . S
C315 H314 0.951 . S
C315 C321 1.265 . S
H316 C321 0.950 . S
H317 C325 0.949 . S
H318 C326 0.950 . S
H319 C327 0.951 . S
H320 C328 0.951 . S
C321 C315 1.265 . S
C321 H316 0.950 . S
C321 C322 1.478 . S
C322 C321 1.478 . S
C322 C323 1.397 . S
C322 C339 1.394 1_545 S
C323 C322 1.397 . S
C323 C324 1.438 . S
C323 C328 1.429 . S
C324 C323 1.438 . S
C324 C325 1.428 . S
C324 C337 1.394 1_545 S
C325 H317 0.949 . S
C325 C324 1.428 . S
C325 C326 1.345 . S
C326 H318 0.950 . S
C326 C325 1.345 . S
C326 C327 1.424 . S
C327 H319 0.951 . S
C327 C326 1.424 . S
C327 C328 1.347 . S
C328 H320 0.951 . S
C328 C323 1.429 . S
C328 C327 1.347 . S
H329 C330 0.951 . S
C330 H329 0.951 . S
C330 C336 1.265 . S
H331 C336 0.950 . S
H332 C340 0.949 . S
H333 C341 0.950 . S
H334 C342 0.951 . S
H335 C343 0.951 . S
C336 C330 1.265 . S
C336 H331 0.950 . S
C336 C337 1.478 . S
C337 C324 1.394 1_565 S
C337 C336 1.478 . S
C337 C338 1.397 . S
C338 C337 1.397 . S
C338 C339 1.438 . S
C338 C343 1.429 . S
C339 C322 1.394 1_565 S
C339 C338 1.438 . S
C339 C340 1.428 . S
C340 H332 0.949 . S
C340 C339 1.428 . S
C340 C341 1.345 . S
C341 H333 0.950 . S
C341 C340 1.345 . S
C341 C342 1.424 . S
C342 H334 0.951 . S
C342 C341 1.424 . S
C342 C343 1.347 . S
C343 H335 0.951 . S
C343 C338 1.429 . S
C343 C342 1.347 . S
H344 C345 0.951 . S
C345 H344 0.951 . S
C345 C351 1.265 . S
H346 C351 0.950 . S
H347 C355 0.949 . S
H348 C356 0.950 . S
H349 C357 0.951 . S
H350 C358 0.951 . S
C351 C345 1.265 . S
C351 H346 0.950 . S
C351 C352 1.478 . S
C352 C351 1.478 . S
C352 C353 1.397 . S
C352 C369 1.394 . S
C353 C352 1.397 . S
C353 C354 1.438 . S
C353 C358 1.429 . S
C354 C353 1.438 . S
C354 C355 1.428 . S
C354 C367 1.394 . S
C355 H347 0.949 . S
C355 C354 1.428 . S
C355 C356 1.345 . S
C356 H348 0.950 . S
C356 C355 1.345 . S
C356 C357 1.424 . S
C357 H349 0.951 . S
C357 C356 1.424 . S
C357 C358 1.347 . S
C358 H350 0.951 . S
C358 C353 1.429 . S
C358 C357 1.347 . S
H359 C360 0.951 . S
C360 H359 0.951 . S
C360 C366 1.265 . S
H361 C366 0.950 . S
H362 C370 0.949 . S
H363 C371 0.950 . S
H364 C372 0.951 . S
H365 C373 0.951 . S
C366 C360 1.265 . S
C366 H361 0.950 . S
C366 C367 1.478 . S
C367 C354 1.394 . S
C367 C366 1.478 . S
C367 C368 1.397 . S
C368 C367 1.397 . S
C368 C369 1.438 . S
C368 C373 1.429 . S
C369 C352 1.394 . S
C369 C368 1.438 . S
C369 C370 1.428 . S
C370 H362 0.949 . S
C370 C369 1.428 . S
C370 C371 1.345 . S
C371 H363 0.950 . S
C371 C370 1.345 . S
C371 C372 1.424 . S
C372 H364 0.951 . S
C372 C371 1.424 . S
C372 C373 1.347 . S
C373 H365 0.951 . S
C373 C368 1.429 . S
C373 C372 1.347 . S
H374 C375 0.951 . S
C375 H374 0.951 . S
C375 C381 1.265 . S
H376 C381 0.950 . S
H377 C385 0.949 . S
H378 C386 0.950 . S
H379 C387 0.951 . S
H380 C388 0.951 . S
C381 C375 1.265 . S
C381 H376 0.950 . S
C381 C382 1.478 . S
C382 C381 1.478 . S
C382 C383 1.397 . S
C382 C399 1.394 . S
C383 C382 1.397 . S
C383 C384 1.438 . S
C383 C388 1.429 . S
C384 C383 1.438 . S
C384 C385 1.428 . S
C384 C397 1.394 . S
C385 H377 0.949 . S
C385 C384 1.428 . S
C385 C386 1.345 . S
C386 H378 0.950 . S
C386 C385 1.345 . S
C386 C387 1.424 . S
C387 H379 0.951 . S
C387 C386 1.424 . S
C387 C388 1.347 . S
C388 H380 0.951 . S
C388 C383 1.429 . S
C388 C387 1.347 . S
H389 C390 0.951 . S
C390 H389 0.951 . S
C390 C396 1.265 . S
H391 C396 0.950 . S
H392 C400 0.949 . S
H393 C401 0.950 . S
H394 C402 0.951 . S
H395 C403 0.951 . S
C396 C390 1.265 . S
C396 H391 0.950 . S
C396 C397 1.478 . S
C397 C384 1.394 . S
C397 C396 1.478 . S
C397 C398 1.397 . S
C398 C397 1.397 . S
C398 C399 1.438 . S
C398 C403 1.429 . S
C399 C382 1.394 . S
C399 C398 1.438 . S
C399 C400 1.428 . S
C400 H392 0.949 . S
C400 C399 1.428 . S
C400 C401 1.345 . S
C401 H393 0.950 . S
C401 C400 1.345 . S
C401 C402 1.424 . S
C402 H394 0.951 . S
C402 C401 1.424 . S
C402 C403 1.347 . S
C403 H395 0.951 . S
C403 C398 1.429 . S
C403 C402 1.347 . S
H404 C405 0.951 . S
C405 H404 0.951 . S
C405 C411 1.265 . S
H406 C411 0.950 . S
H407 C415 0.949 . S
H408 C416 0.950 . S
H409 C417 0.951 . S
H410 C418 0.951 . S
C411 C405 1.265 . S
C411 H406 0.950 . S
C411 C412 1.478 . S
C412 C411 1.478 . S
C412 C413 1.397 . S
C412 C429 1.394 . S
C413 C412 1.397 . S
C413 C414 1.438 . S
C413 C418 1.429 . S
C414 C413 1.438 . S
C414 C415 1.428 . S
C414 C427 1.394 . S
C415 H407 0.949 . S
C415 C414 1.428 . S
C415 C416 1.345 . S
C416 H408 0.950 . S
C416 C415 1.345 . S
C416 C417 1.424 . S
C417 H409 0.951 . S
C417 C416 1.424 . S
C417 C418 1.347 . S
C418 H410 0.951 . S
C418 C413 1.429 . S
C418 C417 1.347 . S
H419 C420 0.951 . S
C420 H419 0.951 . S
C420 C426 1.265 . S
H421 C426 0.950 . S
H422 C430 0.949 . S
H423 C431 0.950 . S
H424 C432 0.951 . S
H425 C433 0.951 . S
C426 C420 1.265 . S
C426 H421 0.950 . S
C426 C427 1.478 . S
C427 C414 1.394 . S
C427 C426 1.478 . S
C427 C428 1.397 . S
C428 C427 1.397 . S
C428 C429 1.438 . S
C428 C433 1.429 . S
C429 C412 1.394 . S
C429 C428 1.438 . S
C429 C430 1.428 . S
C430 H422 0.949 . S
C430 C429 1.428 . S
C430 C431 1.345 . S
C431 H423 0.950 . S
C431 C430 1.345 . S
C431 C432 1.424 . S
C432 H424 0.951 . S
C432 C431 1.424 . S
C432 C433 1.347 . S
C433 H425 0.951 . S
C433 C428 1.429 . S
C433 C432 1.347 . S
H434 C435 0.951 . S
C435 H434 0.951 . S
C435 C441 1.265 . S
H436 C441 0.950 . S
H437 C445 0.949 . S
H438 C446 0.950 . S
H439 C447 0.951 . S
H440 C448 0.951 . S
C441 C435 1.265 . S
C441 H436 0.950 . S
C441 C442 1.478 . S
C442 C441 1.478 . S
C442 C443 1.397 . S
C442 C459 1.394 . S
C443 C442 1.397 . S
C443 C444 1.438 . S
C443 C448 1.429 . S
C444 C443 1.438 . S
C444 C445 1.428 . S
C444 C457 1.394 . S
C445 H437 0.949 . S
C445 C444 1.428 . S
C445 C446 1.345 . S
C446 H438 0.950 . S
C446 C445 1.345 . S
C446 C447 1.424 . S
C447 H439 0.951 . S
C447 C446 1.424 . S
C447 C448 1.347 . S
C448 H440 0.951 . S
C448 C443 1.429 . S
C448 C447 1.347 . S
H449 C450 0.951 . S
C450 H449 0.951 . S
C450 C456 1.265 . S
H451 C456 0.950 . S
H452 C460 0.949 . S
H453 C461 0.950 . S
H454 C462 0.951 . S
H455 C463 0.951 . S
C456 C450 1.265 . S
C456 H451 0.950 . S
C456 C457 1.478 . S
C457 C444 1.394 . S
C457 C456 1.478 . S
C457 C458 1.397 . S
C458 C457 1.397 . S
C458 C459 1.438 . S
C458 C463 1.429 . S
C459 C442 1.394 . S
C459 C458 1.438 . S
C459 C460 1.428 . S
C460 H452 0.949 . S
C460 C459 1.428 . S
C460 C461 1.345 . S
C461 H453 0.950 . S
C461 C460 1.345 . S
C461 C462 1.424 . S
C462 H454 0.951 . S
C462 C461 1.424 . S
C462 C463 1.347 . S
C463 H455 0.951 . S
C463 C458 1.429 . S
C463 C462 1.347 . S
H464 C465 0.951 . S
C465 H464 0.951 . S
C465 C471 1.265 . S
H466 C471 0.950 . S
H467 C475 0.949 . S
H468 C476 0.950 . S
H469 C477 0.951 . S
H470 C478 0.951 1_455 S
C471 C465 1.265 . S
C471 H466 0.950 . S
C471 C472 1.478 . S
C472 C471 1.478 . S
C472 C473 1.397 1_455 S
C472 C489 1.394 . S
C473 C472 1.397 1_655 S
C473 C474 1.438 1_545 S
C473 C478 1.429 . S
C474 C473 1.438 1_565 S
C474 C475 1.428 . S
C474 C487 1.394 . S
C475 H467 0.949 . S
C475 C474 1.428 . S
C475 C476 1.345 . S
C476 H468 0.950 . S
C476 C475 1.345 . S
C476 C477 1.424 1_565 S
C477 H469 0.951 . S
C477 C476 1.424 1_545 S
C477 C478 1.347 . S
C478 H470 0.951 1_655 S
C478 C473 1.429 . S
C478 C477 1.347 . S
H479 C480 0.951 . S
C480 H479 0.951 . S
C480 C486 1.265 . S
H481 C486 0.950 . S
H482 C490 0.949 . S
H483 C491 0.950 . S
H484 C492 0.951 . S
H485 C493 0.951 1_655 S
C486 C480 1.265 . S
C486 H481 0.950 . S
C486 C487 1.478 . S
C487 C474 1.394 . S
C487 C486 1.478 . S
C487 C488 1.397 1_655 S
C488 C487 1.397 1_455 S
C488 C489 1.438 1_565 S
C488 C493 1.429 . S
C489 C472 1.394 . S
C489 C488 1.438 1_545 S
C489 C490 1.428 . S
C490 H482 0.949 . S
C490 C489 1.428 . S
C490 C491 1.345 . S
C491 H483 0.950 . S
C491 C490 1.345 . S
C491 C492 1.424 1_545 S
C492 H484 0.951 . S
C492 C491 1.424 1_565 S
C492 C493 1.347 . S
C493 H485 0.951 1_455 S
C493 C488 1.429 . S
C493 C492 1.347 . S
H494 C495 0.951 . S
C495 H494 0.951 . S
C495 C501 1.265 . S
H496 C501 0.950 . S
H497 C505 0.949 . S
H498 C506 0.950 . S
H499 C507 0.951 . S
H500 C508 0.946 1_565 S
C501 C495 1.265 . S
C501 H496 0.950 . S
C501 C502 1.478 . S
C502 C501 1.478 . S
C502 C503 1.397 1_565 S
C502 C519 1.394 . S
C503 C502 1.397 1_545 S
C503 C504 1.438 1_455 S
C503 C508 1.429 . S
C504 C503 1.438 1_655 S
C504 C505 1.428 . S
C504 C517 1.394 . S
C505 H497 0.949 . S
C505 C504 1.428 . S
C505 C506 1.345 . S
C506 H498 0.950 . S
C506 C505 1.345 . S
C506 C507 1.424 1_655 S
C507 H499 0.951 . S
C507 C506 1.424 1_455 S
C507 C508 1.347 . S
C508 H500 0.946 1_545 S
C508 C503 1.429 . S
C508 C507 1.347 . S
H509 C510 0.951 . S
C510 H509 0.951 . S
C510 C516 1.265 . S
H511 C516 0.950 . S
H512 C520 0.949 . S
H513 C521 0.950 . S
H514 C522 0.951 . S
H515 C523 0.946 1_545 S
C516 C510 1.265 . S
C516 H511 0.950 . S
C516 C517 1.478 . S
C517 C504 1.394 . S
C517 C516 1.478 . S
C517 C518 1.397 1_545 S
C518 C517 1.397 1_565 S
C518 C519 1.438 1_655 S
C518 C523 1.429 . S
C519 C502 1.394 . S
C519 C518 1.438 1_455 S
C519 C520 1.428 . S
C520 H512 0.949 . S
C520 C519 1.428 . S
C520 C521 1.345 . S
C521 H513 0.950 . S
C521 C520 1.345 . S
C521 C522 1.424 1_455 S
C522 H514 0.951 . S
C522 C521 1.424 1_655 S
C522 C523 1.347 . S
C523 H515 0.946 1_565 S
C523 C518 1.429 . S
C523 C522 1.347 . S
H524 C525 0.951 . S
C525 H524 0.951 . S
C525 C531 1.265 . S
H526 C531 0.950 . S
H527 C535 0.949 1_455 S
H528 C536 0.950 . S
H529 C537 0.951 . S
H530 C538 0.951 . S
C531 C525 1.265 . S
C531 H526 0.950 . S
C531 C532 1.478 . S
C532 C531 1.478 . S
C532 C533 1.397 . S
C532 C549 1.389 1_655 S
C533 C532 1.397 . S
C533 C534 1.443 1_545 S
C533 C538 1.429 . S
C534 C533 1.443 1_565 S
C534 C535 1.428 . S
C534 C547 1.389 1_655 S
C535 H527 0.949 1_655 S
C535 C534 1.428 . S
C535 C536 1.345 . S
C536 H528 0.950 . S
C536 C535 1.345 . S
C536 C537 1.424 . S
C537 H529 0.951 . S
C537 C536 1.424 . S
C537 C538 1.347 1_565 S
C538 H530 0.951 . S
C538 C533 1.429 . S
C538 C537 1.347 1_545 S
H539 C540 0.951 . S
C540 H539 0.951 . S
C540 C546 1.265 . S
H541 C546 0.950 . S
H542 C550 0.949 1_655 S
H543 C551 0.950 . S
H544 C552 0.951 . S
H545 C553 0.951 . S
C546 C540 1.265 . S
C546 H541 0.950 . S
C546 C547 1.478 . S
C547 C534 1.389 1_455 S
C547 C546 1.478 . S
C547 C548 1.397 . S
C548 C547 1.397 . S
C548 C549 1.443 1_565 S
C548 C553 1.429 . S
C549 C532 1.389 1_455 S
C549 C548 1.443 1_545 S
C549 C550 1.428 . S
C550 H542 0.949 1_455 S
C550 C549 1.428 . S
C550 C551 1.345 . S
C551 H543 0.950 . S
C551 C550 1.345 . S
C551 C552 1.424 . S
C552 H544 0.951 . S
C552 C551 1.424 . S
C552 C553 1.347 1_545 S
C553 H545 0.951 . S
C553 C548 1.429 . S
C553 C552 1.347 1_565 S
H554 C555 0.951 . S
C555 H554 0.951 . S
C555 C561 1.265 . S
H556 C561 0.950 . S
H557 C565 0.949 . S
H558 C566 0.950 . S
H559 C567 0.951 . S
H560 C568 0.951 . S
C561 C555 1.265 . S
C561 H556 0.950 . S
C561 C562 1.478 . S
C562 C561 1.478 . S
C562 C563 1.397 . S
C562 C579 1.394 . S
C563 C562 1.397 . S
C563 C564 1.438 1_665 S
C563 C568 1.429 . S
C564 C563 1.438 1_445 S
C564 C565 1.428 . S
C564 C577 1.394 . S
C565 H557 0.949 . S
C565 C564 1.428 . S
C565 C566 1.345 1_545 S
C566 H558 0.950 . S
C566 C565 1.345 1_565 S
C566 C567 1.424 . S
C567 H559 0.951 . S
C567 C566 1.424 . S
C567 C568 1.347 1_455 S
C568 H560 0.951 . S
C568 C563 1.429 . S
C568 C567 1.347 1_655 S
H569 C570 0.951 . S
C570 H569 0.951 . S
C570 C576 1.265 . S
H571 C576 0.950 . S
H572 C580 0.949 . S
H573 C581 0.950 . S
H574 C582 0.951 . S
H575 C583 0.951 . S
C576 C570 1.265 . S
C576 H571 0.950 . S
C576 C577 1.478 . S
C577 C564 1.394 . S
C577 C576 1.478 . S
C577 C578 1.397 . S
C578 C577 1.397 . S
C578 C579 1.438 1_445 S
C578 C583 1.429 . S
C579 C562 1.394 . S
C579 C578 1.438 1_665 S
C579 C580 1.428 . S
C580 H572 0.949 . S
C580 C579 1.428 . S
C580 C581 1.345 1_565 S
C581 H573 0.950 . S
C581 C580 1.345 1_545 S
C581 C582 1.424 . S
C582 H574 0.951 . S
C582 C581 1.424 . S
C582 C583 1.347 1_655 S
C583 H575 0.951 . S
C583 C578 1.429 . S
C583 C582 1.347 1_455 S
C105 C5 1.924 . S
C120 C31 1.923 . S
C135 C44 1.823 . S
C150 C18 1.823 . S
C165 C83 1.823 . S
C180 C57 1.824 . S
C195 C70 1.922 . S
C210 C96 1.923 . S
C225 C79 1.561 . S
C240 C1 1.563 . S
C255 C14 1.542 . S
C270 C92 1.563 . S
C285 C27 1.547 . S
C300 C53 1.565 . S
C315 C66 1.531 . S
C330 C40 1.554 . S
C345 C3 1.642 . S
C360 C68 1.618 . S
C375 C81 1.650 . S
C390 C16 1.612 . S
C405 C94 1.613 . S
C420 C29 1.647 . S
C435 C42 1.624 . S
C450 C55 1.635 . S
C465 C10 1.476 . S
C480 C36 1.477 . S
C495 C49 1.476 . S
C510 C23 1.477 . S
C525 C88 1.354 . S
C540 C62 1.356 . S
C555 C101 1.354 . S
C570 C75 1.355 . S
