# Generated by pormake.
# Topology uni, (4)-cn, num edge types: 1
# Building blocks:
#     Node 0, Type 0, BuildingBlock: QUQFOY_clean_sbu_1, # of connection points: 4
#     Node 1, Type 0, BuildingBlock: QUQFOY_clean_sbu_1, # of connection points: 4
#     Node 2, Type 0, BuildingBlock: QUQFOY_clean_sbu_1, # of connection points: 4
#     Node 3, Type 0, BuildingBlock: QUQFOY_clean_sbu_1, # of connection points: 4
#     Node 4, Type 0, BuildingBlock: QUQFOY_clean_sbu_1, # of connection points: 4
#     Node 5, Type 0, BuildingBlock: QUQFOY_clean_sbu_1, # of connection points: 4
#     Edge 6, Type (0, 0), BuildingBlock: TEMPAE_clean_linker_10, # of connection points: 2
#     Edge 7, Type (0, 0), BuildingBlock: TEMPAE_clean_linker_10, # of connection points: 2
#     Edge 8, Type (0, 0), BuildingBlock: TEMPAE_clean_linker_10, # of connection points: 2
#     Edge 9, Type (0, 0), BuildingBlock: TEMPAE_clean_linker_10, # of connection points: 2
#     Edge 10, Type (0, 0), BuildingBlock: TEMPAE_clean_linker_10, # of connection points: 2
#     Edge 11, Type (0, 0), BuildingBlock: TEMPAE_clean_linker_10, # of connection points: 2
#     Edge 12, Type (0, 0), BuildingBlock: TEMPAE_clean_linker_10, # of connection points: 2
#     Edge 13, Type (0, 0), BuildingBlock: TEMPAE_clean_linker_10, # of connection points: 2
#     Edge 14, Type (0, 0), BuildingBlock: TEMPAE_clean_linker_10, # of connection points: 2
#     Edge 15, Type (0, 0), BuildingBlock: TEMPAE_clean_linker_10, # of connection points: 2
#     Edge 16, Type (0, 0), BuildingBlock: TEMPAE_clean_linker_10, # of connection points: 2
#     Edge 17, Type (0, 0), BuildingBlock: TEMPAE_clean_linker_10, # of connection points: 2
# Relax obj value: 0.074
# Max RMSD: 0.155
# Mean RMSD: 0.155
data_MOF--net-uni--node1-QUQFOY_clean_sbu_1--edge1-TEMPAE_clean_linker_10
_symmetry_space_group_name_H-M    P1
_symmetry_Int_Tables_number       1
_symmetry_cell_setting            triclinic
loop_
_symmetry_equiv_pos_as_xyz
'x, y, z'
_cell_length_a     42.820177
_cell_length_b     42.656708
_cell_length_c     22.490844
_cell_angle_alpha  89.943125
_cell_angle_beta   90.151377
_cell_angle_gamma 120.01756
loop_
_atom_site_label
_atom_site_type_symbol
_atom_site_fract_x
_atom_site_fract_y
_atom_site_fract_z
_atom_type_partial_charge
O0 O 0.63468 0.05939 0.00918 0.0
Cd1 Cd 0.66716 0.06105 0.07838 0.0
Cd2 Cd 0.632 0.99103 0.05712 0.0
O3 O 0.62132 1.00567 0.97538 0.0
O4 O 0.70508 0.11299 0.08601 0.0
O5 O 0.71697 0.07035 0.05794 0.0
C6 C 0.72816 0.10419 0.06775 0.0
C7 C 0.64959 0.94756 0.06876 0.0
C8 C 0.6203 0.03481 0.96984 0.0
C9 C 0.61123 0.01764 0.16475 0.0
O10 O 0.60106 0.99305 0.12545 0.0
O11 O 0.64153 0.04655 0.1597 0.0
O12 O 0.61772 0.93894 0.05047 0.0
O13 O 0.67235 0.98142 0.07798 0.0
O14 O 0.60134 0.62899 0.16385 0.0
Cd15 Cd 0.6303 0.66454 0.23144 0.0
Cd16 Cd 0.66601 0.62771 0.22025 0.0
O17 O 0.64007 0.61138 0.1393 0.0
O18 O 0.61485 0.70155 0.22962 0.0
O19 O 0.67066 0.71465 0.21004 0.0
C20 C 0.64716 0.72512 0.21395 0.0
C21 C 0.72502 0.63918 0.23432 0.0
C22 C 0.61078 0.61139 0.12986 0.0
C23 C 0.61676 0.61285 0.32617 0.0
O24 O 0.63296 0.60221 0.2916 0.0
O25 O 0.61674 0.64207 0.31528 0.0
O26 O 0.69848 0.60694 0.22576 0.0
O27 O 0.71866 0.66571 0.23167 0.0
O28 O 0.02182 0.61717 0.29435 0.0
Cd29 Cd 0.99797 0.62622 0.36645 0.0
Cd30 Cd 0.07024 0.66206 0.40661 0.0
O31 O 0.0771 0.63979 0.3295 0.0
O32 O 0.94821 0.60729 0.33463 0.0
O33 O 0.98194 0.66369 0.36551 0.0
C34 C 0.95212 0.63893 0.34231 0.0
C35 C 0.11439 0.7215 0.43073 0.0
C36 C 0.05377 0.62293 0.28922 0.0
C37 C 0.01508 0.60012 0.48044 0.0
O38 O 0.04716 0.62653 0.4763 0.0
O39 O 0.99159 0.59483 0.44094 0.0
O40 O 0.12104 0.69524 0.4321 0.0
O41 O 0.08238 0.71427 0.41543 0.0
O42 O 0.42487 0.99389 0.50779 0.0
Cd43 Cd 0.39256 0.99214 0.57706 0.0
Cd44 Cd 0.42769 0.06223 0.55623 0.0
O45 O 0.43857 0.04785 0.47458 0.0
O46 O 0.35494 0.94011 0.58494 0.0
O47 O 0.34251 0.98243 0.55686 0.0
C48 C 0.33158 0.94866 0.56689 0.0
C49 C 0.40955 0.10523 0.56814 0.0
C50 C 0.43942 0.01863 0.46878 0.0
C51 C 0.44854 0.03561 0.66394 0.0
O52 O 0.45867 0.06031 0.62485 0.0
O53 O 0.41835 1.00662 0.65843 0.0
O54 O 0.44149 0.11421 0.55002 0.0
O55 O 0.38701 0.07127 0.57691 0.0
O56 O 0.456 0.42187 0.66555 0.0
Cd57 Cd 0.42586 0.38635 0.7321 0.0
Cd58 Cd 0.38941 0.4207 0.71754 0.0
O59 O 0.41487 0.43514 0.63625 0.0
O60 O 0.44119 0.34926 0.73335 0.0
O61 O 0.38593 0.3364 0.70918 0.0
C62 C 0.40924 0.32582 0.71549 0.0
C63 C 0.32847 0.40305 0.72768 0.0
C64 C 0.44535 0.43737 0.62914 0.0
C65 C 0.43734 0.43882 0.82482 0.0
O66 O 0.42193 0.44947 0.78822 0.0
O67 O 0.43706 0.40927 0.81571 0.0
O68 O 0.35217 0.4356 0.71296 0.0
O69 O 0.33906 0.37976 0.73488 0.0
O70 O 0.04404 0.43742 0.79896 0.0
Cd71 Cd 0.0637 0.42365 0.87202 0.0
Cd72 Cd 0.99077 0.38897 0.90598 0.0
O73 O 0.98701 0.41162 0.82668 0.0
O74 O 0.11522 0.44124 0.85231 0.0
O75 O 0.07554 0.3833 0.86537 0.0
C76 C 0.10814 0.40816 0.85338 0.0
C77 C 0.94605 0.3295 0.92835 0.0
C78 C 1.01192 0.43059 0.7899 0.0
C79 C 0.04417 0.44864 0.98493 0.0
O80 O 1.01153 0.42418 0.97679 0.0
O81 O 0.0686 0.45239 0.94885 0.0
O82 O 0.93921 0.35564 0.92691 0.0
O83 O 0.97851 0.33684 0.91647 0.0
C84 C 0.54865 0.9906 0.20427 0.0
C85 C 0.58576 0.01442 0.21193 0.0
C86 C 0.52347 0.98993 0.24474 0.0
C87 C 0.53573 0.01308 0.29482 0.0
C88 C 0.57321 0.03632 0.30395 0.0
C89 C 0.5978 0.03701 0.262 0.0
C90 C 0.48372 0.96521 0.23294 0.0
C91 C 0.5873 0.06081 0.35762 0.0
C92 C 0.47304 0.03892 0.37238 0.0
C93 C 0.46118 0.01513 0.42095 0.0
C94 C 0.49668 0.03799 0.33016 0.0
C95 C 0.50928 0.01318 0.33742 0.0
C96 C 0.49693 0.98872 0.38578 0.0
C97 C 0.47277 0.98975 0.42659 0.0
C98 C 0.50865 0.06394 0.27833 0.0
C99 C 0.51012 0.96222 0.39547 0.0
H100 H 0.53908 0.97332 0.16533 0.0
H101 H 0.62643 0.05544 0.26816 0.0
H102 H 0.47092 0.94673 0.27117 0.0
H103 H 0.47024 0.98152 0.22793 0.0
H104 H 0.47865 0.94865 0.19216 0.0
H105 H 0.61724 0.07593 0.35971 0.0
H106 H 0.57769 0.0806 0.35658 0.0
H107 H 0.57674 0.04467 0.39894 0.0
H108 H 0.46415 0.05854 0.36771 0.0
H109 H 0.46401 0.97146 0.46427 0.0
H110 H 0.50309 0.04882 0.23586 0.0
H111 H 0.53818 0.08273 0.28083 0.0
H112 H 0.49491 0.08018 0.27736 0.0
H113 H 0.50422 0.94469 0.3558 0.0
H114 H 0.49753 0.94468 0.4349 0.0
H115 H 0.53982 0.97717 0.4017 0.0
C116 C 0.58201 0.60097 0.42132 0.0
C117 C 0.59394 0.58833 0.374 0.0
C118 C 0.55818 0.57685 0.46409 0.0
C119 C 0.54534 0.53926 0.45826 0.0
C120 C 0.55736 0.52644 0.41061 0.0
C121 C 0.58183 0.55115 0.36958 0.0
C122 C 0.54661 0.59153 0.51529 0.0
C123 C 0.54376 0.48651 0.40215 0.0
C124 C 0.50772 0.47641 0.59089 0.0
C125 C 0.47043 0.46173 0.58326 0.0
C126 C 0.53239 0.50227 0.55128 0.0
C127 C 0.51945 0.51309 0.50199 0.0
C128 C 0.48183 0.49787 0.49331 0.0
C129 C 0.45773 0.47266 0.53452 0.0
C130 C 0.57231 0.51833 0.56257 0.0
C131 C 0.46705 0.5081 0.44037 0.0
H132 H 0.59128 0.62965 0.42487 0.0
H133 H 0.59053 0.54107 0.33267 0.0
H134 H 0.51701 0.58038 0.51363 0.0
H135 H 0.5528 0.58284 0.55812 0.0
H136 H 0.56015 0.62156 0.51474 0.0
H137 H 0.5553 0.48096 0.36203 0.0
H138 H 0.55066 0.47548 0.44154 0.0
H139 H 0.51393 0.47162 0.398 0.0
H140 H 0.51776 0.4685 0.62898 0.0
H141 H 0.42895 0.46144 0.52854 0.0
H142 H 0.58553 0.54827 0.5653 0.0
H143 H 0.58491 0.51187 0.52507 0.0
H144 H 0.57794 0.50809 0.60432 0.0
H145 H 0.47707 0.53763 0.44076 0.0
H146 H 0.43709 0.4935 0.43971 0.0
H147 H 0.47669 0.50196 0.39862 0.0
C148 C 0.02748 0.4604 0.69025 0.0
C149 C 1.00464 0.44854 0.73979 0.0
C150 C 0.02428 0.48215 0.64659 0.0
C151 C 0.99819 0.49303 0.6534 0.0
C152 C 0.97403 0.47987 0.702 0.0
C153 C 0.9773 0.45743 0.74433 0.0
C154 C 0.04998 0.49486 0.5946 0.0
C155 C 0.94625 0.4913 0.71137 0.0
C156 C 0.02636 0.58373 0.58153 0.0
C157 C 1.00649 0.57334 0.52846 0.0
C158 C 0.02236 0.55791 0.62405 0.0
C159 C 0.99856 0.5207 0.61254 0.0
C160 C 0.97736 0.51013 0.56009 0.0
C161 C 0.9813 0.53666 0.5189 0.0
C162 C 0.04479 0.5704 0.68015 0.0
C163 C 0.95213 0.47072 0.5458 0.0
H164 H 0.04849 0.45339 0.68636 0.0
H165 H 0.95974 0.44857 0.7828 0.0
H166 H 0.03495 0.49026 0.55224 0.0
H167 H 0.06898 0.52439 0.59852 0.0
H168 H 0.06591 0.48084 0.59231 0.0
H169 H 0.9271 0.47576 0.7476 0.0
H170 H 0.96008 0.52049 0.72298 0.0
H171 H 0.93072 0.48775 0.66994 0.0
H172 H 0.04569 0.61208 0.58924 0.0
H173 H 0.96612 0.52847 0.47766 0.0
H174 H 0.0651 0.5615 0.67954 0.0
H175 H 0.0275 0.55801 0.71973 0.0
H176 H 0.05916 0.60032 0.68514 0.0
H177 H 0.96811 0.45728 0.53677 0.0
H178 H 0.93499 0.46716 0.50634 0.0
H179 H 0.9344 0.45665 0.58422 0.0
C180 C 0.58736 0.01517 0.87255 0.0
C181 C 0.5985 0.03835 0.92191 0.0
C182 C 0.56373 0.01612 0.83007 0.0
C183 C 0.55041 0.04028 0.83791 0.0
C184 C 0.56202 0.06411 0.88713 0.0
C185 C 0.58621 0.06312 0.92818 0.0
C186 C 0.55256 0.99087 0.77734 0.0
C187 C 0.54802 0.08988 0.89748 0.0
C188 C 0.51097 0.06334 0.70497 0.0
C189 C 0.47394 0.03886 0.71152 0.0
C190 C 0.53615 0.0641 0.74578 0.0
C191 C 0.52396 0.04032 0.79504 0.0
C192 C 0.48653 0.0164 0.80309 0.0
C193 C 0.46196 0.01568 0.76085 0.0
C194 C 0.57586 0.08959 0.73519 0.0
C195 C 0.47249 0.9912 0.85585 0.0
H196 H 0.59681 0.99603 0.86742 0.0
H197 H 0.5944 0.0809 0.9665 0.0
H198 H 0.52311 0.9716 0.77891 0.0
H199 H 0.55813 1.00648 0.7354 0.0
H200 H 0.56683 0.97514 0.77605 0.0
H201 H 0.5601 0.10699 0.93757 0.0
H202 H 0.55383 0.10783 0.85841 0.0
H203 H 0.51829 0.07434 0.90293 0.0
H204 H 0.52051 0.0811 0.66663 0.0
H205 H 0.43339 0.99675 0.76617 0.0
H206 H 0.5899 0.07385 0.72982 0.0
H207 H 0.58812 0.10765 0.77413 0.0
H208 H 0.58087 0.10661 0.69498 0.0
H209 H 0.48265 0.97186 0.85432 0.0
H210 H 0.44254 0.97556 0.85718 0.0
H211 H 0.48255 1.00686 0.89776 0.0
C212 C 0.59742 0.57637 0.03469 0.0
C213 C 0.58534 0.58755 0.08373 0.0
C214 C 0.57285 0.55207 -0.00722 0.0
C215 C 0.53536 0.53793 0.00122 0.0
C216 C 0.52307 0.54898 0.0509 0.0
C217 C 0.54823 0.57401 0.09108 0.0
C218 C 0.58697 0.54159 0.93946 0.0
C219 C 0.48332 0.53392 0.06216 0.0
C220 C 0.47229 0.50059 0.8687 0.0
C221 C 0.45975 0.46334 0.87317 0.0
C222 C 0.49705 0.52513 0.90987 0.0
C223 C 0.50892 0.51205 0.95757 0.0
C224 C 0.49545 0.47437 0.96357 0.0
C225 C 0.47133 0.45045 0.92082 0.0
C226 C 0.51125 0.56516 0.90138 0.0
C227 C 0.50681 0.45937 0.01478 0.0
H228 H 0.62608 0.58677 0.02894 0.0
H229 H 0.53868 0.58214 0.12944 0.0
H230 H 0.57648 0.51197 0.93961 0.0
H231 H 0.57728 0.54804 0.89794 0.0
H232 H 0.61691 0.55576 0.93856 0.0
H233 H 0.4782 0.54455 0.10386 0.0
H234 H 0.47097 0.54076 0.02459 0.0
H235 H 0.46944 0.50395 0.06503 0.0
H236 H 0.46382 0.51084 0.8316 0.0
H237 H 0.46171 0.4217 0.92447 0.0
H238 H 0.54102 0.57954 0.8966 0.0
H239 H 0.50511 0.57656 0.94101 0.0
H240 H 0.49953 0.57093 0.86158 0.0
H241 H 0.53627 0.46977 0.01272 0.0
H242 H 0.49259 0.4293 0.01457 0.0
H243 H 0.50133 0.46857 0.05762 0.0
C244 C 0.03048 0.46664 0.0828 0.0
C245 C 0.05298 0.47539 0.0331 0.0
C246 C 0.03578 0.49309 0.12496 0.0
C247 C 0.06368 0.52934 0.11638 0.0
C248 C 0.0873 0.53807 0.06742 0.0
C249 C 0.08191 0.51086 0.02667 0.0
C250 C 1.01056 0.48249 0.17745 0.0
C251 C 0.11694 0.57647 0.05617 0.0
C252 C 0.04199 0.59671 0.18714 0.0
C253 C 0.06183 0.60509 0.24015 0.0
C254 C 0.0442 0.57386 0.14465 0.0
C255 C 0.06608 0.55831 0.15619 0.0
C256 C 0.08761 0.56815 0.20825 0.0
C257 C 0.08553 0.59181 0.24938 0.0
C258 C 0.02157 0.56484 0.08889 0.0
C259 C 0.11086 0.55176 0.22258 0.0
H260 H 1.00825 0.43921 0.08813 0.0
H261 H 0.09921 0.51785 0.98803 0.0
H262 H 0.02617 0.49258 0.21938 0.0
H263 H 0.99342 0.49509 0.17318 0.0
H264 H 0.99268 0.45269 0.18091 0.0
H265 H 0.1351 0.57819 0.01956 0.0
H266 H 0.10482 0.59333 0.04421 0.0
H267 H 0.13331 0.58832 0.09693 0.0
H268 H 0.02378 0.60708 0.17977 0.0
H269 H 0.10065 0.59793 0.29061 0.0
H270 H 0.99948 0.53622 0.09065 0.0
H271 H 0.03812 0.56782 0.04913 0.0
H272 H 1.0094 0.58236 0.08334 0.0
H273 H 0.09332 0.52266 0.23341 0.0
H274 H 0.12905 0.56531 0.26101 0.0
H275 H 0.12743 0.55337 0.18364 0.0
C276 C 0.68286 0.78242 0.15573 0.0
C277 C 0.6558 0.7622 0.19735 0.0
C278 C 0.68742 0.81527 0.13321 0.0
C279 C 0.66484 0.82842 0.15377 0.0
C280 C 0.63897 0.80909 0.19844 0.0
C281 C 0.63451 0.77607 0.21915 0.0
C282 C 0.71495 0.83477 0.08509 0.0
C283 C 0.61483 0.82246 0.22257 0.0
C284 C 0.68401 0.92461 0.12706 0.0
C285 C 0.65818 0.91885 0.08348 0.0
C286 C 0.6878 0.89571 0.14869 0.0
C287 C 0.66568 0.86045 0.12536 0.0
C288 C 0.64135 0.85511 0.07846 0.0
C289 C 0.63763 0.88427 0.05857 0.0
C290 C 0.71375 0.90248 0.19912 0.0
C291 C 0.61778 0.81816 0.05139 0.0
H292 H 0.69922 0.77167 0.13846 0.0
H293 H 0.61375 0.76067 0.25169 0.0
H294 H 0.70087 0.83261 0.04249 0.0
H295 H 0.73167 0.86399 0.09573 0.0
H296 H 0.733 0.82333 0.07864 0.0
H297 H 0.59872 0.80628 0.26123 0.0
H298 H 0.63113 0.85122 0.23636 0.0
H299 H 0.59599 0.82097 0.18726 0.0
H300 H 0.69982 0.95126 0.14671 0.0
H301 H 0.61783 0.87974 0.02453 0.0
H302 H 0.73026 0.88967 0.18985 0.0
H303 H 0.69831 0.89004 0.24039 0.0
H304 H 0.73206 0.93185 0.20729 0.0
H305 H 0.63417 0.80557 0.0395 0.0
H306 H 0.60345 0.81934 0.01094 0.0
H307 H 0.59737 0.80023 0.08432 0.0
C308 C 0.91468 0.66841 0.35755 0.0
C309 C 0.92316 0.6461 0.3238 0.0
C310 C 0.88446 0.67179 0.34319 0.0
C311 C 0.86312 0.65334 0.29286 0.0
C312 C 0.87311 0.63264 0.25669 0.0
C313 C 0.90259 0.62877 0.27321 0.0
C314 C 0.87418 0.69328 0.38379 0.0
C315 C 0.85178 0.61334 0.20177 0.0
C316 C 0.76267 0.61896 0.28734 0.0
C317 C 0.76078 0.64464 0.25098 0.0
C318 C 0.79593 0.62263 0.3037 0.0
C319 C 0.8282 0.65207 0.28139 0.0
C320 C 0.82652 0.67838 0.24501 0.0
C321 C 0.79273 0.67468 0.23107 0.0
C322 C 0.79643 0.59452 0.344 0.0
C323 C 0.86022 0.70952 0.21893 0.0
H324 H 0.93054 0.6817 0.39682 0.0
H325 H 0.90944 0.61187 0.24665 0.0
H326 H 0.86902 0.71234 0.35779 0.0
H327 H 0.8488 0.67456 0.40729 0.0
H328 H 0.89537 0.70886 0.41751 0.0
H329 H 0.86573 0.60239 0.17444 0.0
H330 H 0.82508 0.5905 0.21492 0.0
H331 H 0.84693 0.63197 0.1739 0.0
H332 H 0.73795 0.59599 0.30354 0.0
H333 H 0.79122 0.69452 0.20289 0.0
H334 H 0.81538 0.60783 0.38158 0.0
H335 H 0.80608 0.57862 0.31896 0.0
H336 H 0.76933 0.57548 0.3623 0.0
H337 H 0.88026 0.7244 0.25444 0.0
H338 H 0.85459 0.72883 0.19456 0.0
H339 H 0.87275 0.6989 0.18772 0.0
C340 C 0.13481 0.78161 0.47923 0.0
C341 C 0.14289 0.75845 0.44706 0.0
C342 C 0.16255 0.81513 0.50058 0.0
C343 C 0.19898 0.82601 0.48776 0.0
C344 C 0.20695 0.80338 0.45257 0.0
C345 C 0.17888 0.76965 0.43357 0.0
C346 C 0.153 0.838 0.53919 0.0
C347 C 0.24529 0.81429 0.43634 0.0
C348 C 0.2762 0.92294 0.50348 0.0
C349 C 0.29435 0.9199 0.55314 0.0
C350 C 0.24399 0.89302 0.48302 0.0
C351 C 0.2292 0.85968 0.51405 0.0
C352 C 0.24605 0.85748 0.56693 0.0
C353 C 0.27874 0.88741 0.58523 0.0
C354 C 0.2274 0.89634 0.42578 0.0
C355 C 0.23067 0.82283 0.60238 0.0
H356 H 0.10697 0.77279 0.49008 0.0
H357 H 0.18511 0.75186 0.40826 0.0
H358 H 0.16304 0.83889 0.58505 0.0
H359 H 0.1663 0.86626 0.5226 0.0
H360 H 0.12343 0.82724 0.54106 0.0
H361 H 0.2466 0.79536 0.40391 0.0
H362 H 0.25921 0.84194 0.41703 0.0
H363 H 0.26038 0.8149 0.47689 0.0
H364 H 0.28843 0.94796 0.47827 0.0
H365 H 0.29266 0.88509 0.62386 0.0
H366 H 0.19785 0.88453 0.43066 0.0
H367 H 0.23181 0.88091 0.39031 0.0
H368 H 0.23933 0.92494 0.41116 0.0
H369 H 0.20127 0.81131 0.60915 0.0
H370 H 0.24393 0.82705 0.6465 0.0
H371 H 0.23445 0.80253 0.57751 0.0
C372 C 0.37419 0.26867 0.65649 0.0
C373 C 0.40096 0.28886 0.69877 0.0
C374 C 0.37003 0.23604 0.63377 0.0
C375 C 0.39276 0.2231 0.65468 0.0
C376 C 0.41832 0.24235 0.69999 0.0
C377 C 0.42233 0.27513 0.721 0.0
C378 C 0.34278 0.21658 0.58506 0.0
C379 C 0.44263 0.2292 0.72446 0.0
C380 C 0.37461 0.12738 0.62652 0.0
C381 C 0.40064 0.13364 0.58326 0.0
C382 C 0.37047 0.15596 0.64856 0.0
C383 C 0.39244 0.19142 0.62597 0.0
C384 C 0.41701 0.19729 0.57943 0.0
C385 C 0.42106 0.16843 0.55911 0.0
C386 C 0.34427 0.14862 0.69859 0.0
C387 C 0.44045 0.23447 0.55316 0.0
H388 H 0.35774 0.27928 0.63889 0.0
H389 H 0.44288 0.29048 0.75402 0.0
H390 H 0.3571 0.2191 0.54272 0.0
H391 H 0.32626 0.18729 0.59524 0.0
H392 H 0.32453 0.22778 0.57837 0.0
H393 H 0.45845 0.24525 0.76354 0.0
H394 H 0.4265 0.20034 0.73772 0.0
H395 H 0.46174 0.23111 0.68951 0.0
H396 H 0.3589 0.10057 0.6456 0.0
H397 H 0.44103 0.17336 0.52533 0.0
H398 H 0.32754 0.16121 0.68922 0.0
H399 H 0.3595 0.16094 0.74018 0.0
H400 H 0.32617 0.11917 0.70621 0.0
H401 H 0.42388 0.24687 0.54107 0.0
H402 H 0.45511 0.23374 0.51299 0.0
H403 H 0.46057 0.25232 0.58667 0.0
C404 C 0.12969 0.36953 0.80515 0.0
C405 C 0.13681 0.39966 0.83987 0.0
C406 C 0.15799 0.36435 0.7855 0.0
C407 C 0.19394 0.38935 0.8026 0.0
C408 C 0.2008 0.41855 0.84068 0.0
C409 C 0.17224 0.42369 0.85795 0.0
C410 C 0.14966 0.33343 0.74382 0.0
C411 C 0.23854 0.44526 0.86144 0.0
C412 C 0.27177 0.37087 0.7872 0.0
C413 C 0.29105 0.39408 0.7402 0.0
C414 C 0.23903 0.36759 0.80657 0.0
C415 C 0.22495 0.38724 0.77708 0.0
C416 C 0.24307 0.40851 0.72672 0.0
C417 C 0.27619 0.41215 0.70953 0.0
C418 C 0.22102 0.34526 0.86117 0.0
C419 C 0.22854 0.42912 0.69292 0.0
H420 H 0.10227 0.35112 0.79077 0.0
H421 H 0.1777 0.44685 0.88521 0.0
H422 H 0.16063 0.34436 0.69911 0.0
H423 H 0.16286 0.31818 0.75928 0.0
H424 H 0.12021 0.31439 0.73955 0.0
H425 H 0.23875 0.46394 0.89605 0.0
H426 H 0.25188 0.43075 0.87973 0.0
H427 H 0.25487 0.46168 0.82321 0.0
H428 H 0.28341 0.35714 0.8113 0.0
H429 H 0.29099 0.42993 0.67291 0.0
H430 H 0.19163 0.32765 0.8537 0.0
H431 H 0.2245 0.3636 0.89874 0.0
H432 H 0.23261 0.32808 0.87432 0.0
H433 H 0.19941 0.41135 0.68324 0.0
H434 H 0.24304 0.44022 0.65035 0.0
H435 H 0.2314 0.45198 0.72045 0.0
C436 C 0.92516 0.26967 0.97825 0.0
C437 C 0.91735 0.29264 0.94473 0.0
C438 C 0.89725 0.23642 -5e-05 0.0
C439 C 0.8609 0.22559 0.98624 0.0
C440 C 0.85319 0.24795 0.94967 0.0
C441 C 0.88144 0.28142 0.93022 0.0
C442 C 0.90654 0.2138 0.03991 0.0
C443 C 0.81495 0.23707 0.93254 0.0
C444 C 0.78334 0.12901 0.00434 0.0
C445 C 0.76537 0.13276 0.05343 0.0
C446 C 0.81556 0.1586 0.9833 0.0
C447 C 0.83052 0.19234 0.01313 0.0
C448 C 0.81382 0.19532 0.06544 0.0
C449 C 0.78114 0.16567 0.08436 0.0
C450 C 0.83202 0.15445 0.92671 0.0
C451 C 0.82936 0.23043 0.09962 0.0
H452 H 0.95293 0.27848 0.98991 0.0
H453 H 0.87539 0.29904 0.90389 0.0
H454 H 0.89651 0.21352 0.08547 0.0
H455 H 0.89306 0.18535 0.02418 0.0
H456 H 0.93607 0.22438 0.04226 0.0
H457 H 0.81384 0.25571 0.89915 0.0
H458 H 0.80092 0.20921 0.91406 0.0
H459 H 0.79984 0.23705 0.97255 0.0
H460 H 0.771 0.10367 0.98 0.0
H461 H 0.76737 0.16855 0.12256 0.0
H462 H 0.86154 0.16613 0.93194 0.0
H463 H 0.82773 0.16955 0.89041 0.0
H464 H 0.81989 0.12566 0.91304 0.0
H465 H 0.85872 0.24185 0.10691 0.0
H466 H 0.81607 0.2269 0.14343 0.0
H467 H 0.8258 0.25052 0.07351 0.0
loop_
_geom_bond_atom_site_label_1
_geom_bond_atom_site_label_2
_geom_bond_distance
_geom_bond_site_symmetry_2
_ccdc_geom_bond_type
O0 Cd1 2.223 . S
O0 C8 1.315 1_554 S
Cd1 O0 2.223 . S
Cd1 O4 2.297 . S
Cd1 O5 2.439 . S
Cd1 O11 2.240 . S
Cd2 O3 2.240 1_564 S
Cd2 O10 2.223 . S
Cd2 O12 2.297 . S
Cd2 O13 2.439 . S
O3 Cd2 2.240 1_546 S
O3 C8 1.279 . S
O4 Cd1 2.297 . S
O4 C6 1.247 . S
O5 Cd1 2.439 . S
O5 C6 1.208 . S
C6 O4 1.247 . S
C6 O5 1.208 . S
C7 O12 1.247 . S
C7 O13 1.208 . S
C8 O0 1.315 1_556 S
C8 O3 1.279 . S
C9 O10 1.315 . S
C9 O11 1.279 1_565 S
O10 Cd2 2.223 . S
O10 C9 1.315 . S
O11 Cd1 2.240 . S
O11 C9 1.279 1_545 S
O12 Cd2 2.297 . S
O12 C7 1.247 . S
O13 Cd2 2.439 . S
O13 C7 1.208 . S
O14 Cd15 2.223 . S
O14 C22 1.315 . S
Cd15 O14 2.223 . S
Cd15 O18 2.297 . S
Cd15 O19 2.439 . S
Cd15 O25 2.240 . S
Cd16 O17 2.240 . S
Cd16 O24 2.223 . S
Cd16 O26 2.297 . S
Cd16 O27 2.439 . S
O17 Cd16 2.240 . S
O17 C22 1.279 . S
O18 Cd15 2.297 . S
O18 C20 1.247 . S
O19 Cd15 2.439 . S
O19 C20 1.208 . S
C20 O18 1.247 . S
C20 O19 1.208 . S
C21 O26 1.247 . S
C21 O27 1.208 . S
C22 O14 1.315 . S
C22 O17 1.279 . S
C23 O24 1.315 . S
C23 O25 1.279 . S
O24 Cd16 2.223 . S
O24 C23 1.315 . S
O25 Cd15 2.240 . S
O25 C23 1.279 . S
O26 Cd16 2.297 . S
O26 C21 1.247 . S
O27 Cd16 2.439 . S
O27 C21 1.208 . S
O28 Cd29 2.223 . S
O28 C36 1.326 . S
Cd29 O28 2.223 . S
Cd29 O32 2.297 . S
Cd29 O33 2.439 . S
Cd29 O39 2.240 1_655 S
Cd30 O31 2.240 . S
Cd30 O38 2.223 . S
Cd30 O40 2.297 . S
Cd30 O41 2.439 . S
O31 Cd30 2.240 . S
O31 C36 1.279 1_455 S
O32 Cd29 2.297 . S
O32 C34 1.247 . S
O33 Cd29 2.439 . S
O33 C34 1.208 . S
C34 O32 1.247 . S
C34 O33 1.208 . S
C35 O40 1.247 . S
C35 O41 1.208 . S
C36 O28 1.326 . S
C36 O31 1.279 1_655 S
C37 O38 1.315 . S
C37 O39 1.279 . S
O38 Cd30 2.223 . S
O38 C37 1.315 . S
O39 Cd29 2.240 1_455 S
O39 C37 1.279 . S
O40 Cd30 2.297 . S
O40 C35 1.247 . S
O41 Cd30 2.439 . S
O41 C35 1.208 . S
O42 Cd43 2.223 . S
O42 C50 1.315 . S
Cd43 O42 2.223 . S
Cd43 O46 2.297 . S
Cd43 O47 2.439 . S
Cd43 O53 2.240 1_565 S
Cd44 O45 2.240 . S
Cd44 O52 2.223 . S
Cd44 O54 2.297 . S
Cd44 O55 2.439 . S
O45 Cd44 2.240 . S
O45 C50 1.279 1_545 S
O46 Cd43 2.297 . S
O46 C48 1.247 . S
O47 Cd43 2.439 . S
O47 C48 1.208 . S
C48 O46 1.247 . S
C48 O47 1.208 . S
C49 O54 1.247 . S
C49 O55 1.208 . S
C50 O42 1.315 . S
C50 O45 1.279 1_565 S
C51 O52 1.315 . S
C51 O53 1.279 . S
O52 Cd44 2.223 . S
O52 C51 1.315 . S
O53 Cd43 2.240 1_545 S
O53 C51 1.279 . S
O54 Cd44 2.297 . S
O54 C49 1.247 . S
O55 Cd44 2.439 . S
O55 C49 1.208 . S
O56 Cd57 2.223 . S
O56 C64 1.315 . S
Cd57 O56 2.223 . S
Cd57 O60 2.297 . S
Cd57 O61 2.439 . S
Cd57 O67 2.240 . S
Cd58 O59 2.240 . S
Cd58 O66 2.223 . S
Cd58 O68 2.297 . S
Cd58 O69 2.439 . S
O59 Cd58 2.240 . S
O59 C64 1.279 . S
O60 Cd57 2.297 . S
O60 C62 1.247 . S
O61 Cd57 2.439 . S
O61 C62 1.208 . S
C62 O60 1.247 . S
C62 O61 1.208 . S
C63 O68 1.247 . S
C63 O69 1.208 . S
C64 O56 1.315 . S
C64 O59 1.279 . S
C65 O66 1.315 . S
C65 O67 1.279 . S
O66 Cd58 2.223 . S
O66 C65 1.315 . S
O67 Cd57 2.240 . S
O67 C65 1.279 . S
O68 Cd58 2.297 . S
O68 C63 1.247 . S
O69 Cd58 2.439 . S
O69 C63 1.208 . S
O70 Cd71 2.223 . S
O70 C78 1.315 . S
Cd71 O70 2.223 . S
Cd71 O74 2.297 . S
Cd71 O75 2.439 . S
Cd71 O81 2.240 . S
Cd72 O73 2.240 1_655 S
Cd72 O80 2.223 . S
Cd72 O82 2.297 . S
Cd72 O83 2.439 . S
O73 Cd72 2.240 1_455 S
O73 C78 1.279 . S
O74 Cd71 2.297 . S
O74 C76 1.247 . S
O75 Cd71 2.439 . S
O75 C76 1.208 . S
C76 O74 1.247 . S
C76 O75 1.208 . S
C77 O82 1.247 . S
C77 O83 1.208 . S
C78 O70 1.315 . S
C78 O73 1.279 . S
C79 O80 1.329 . S
C79 O81 1.264 1_655 S
O80 Cd72 2.223 . S
O80 C79 1.329 . S
O81 Cd71 2.240 . S
O81 C79 1.264 1_455 S
O82 Cd72 2.297 . S
O82 C77 1.247 . S
O83 Cd72 2.439 . S
O83 C77 1.208 . S
C84 C85 1.389 . S
C84 C86 1.394 1_545 S
C84 H100 0.931 . S
C85 C84 1.389 . S
C85 C89 1.377 1_545 S
C86 C84 1.394 1_565 S
C86 C87 1.369 . S
C86 C90 1.527 1_565 S
C87 C86 1.369 . S
C87 C88 1.410 . S
C87 C95 1.503 . S
C88 C87 1.410 . S
C88 C89 1.392 . S
C88 C91 1.511 . S
C89 C85 1.377 1_565 S
C89 C88 1.392 . S
C89 H101 0.929 . S
C90 C86 1.527 1_545 S
C90 H102 0.959 1_545 S
C90 H103 0.968 . S
C90 H104 0.959 1_545 S
C91 C88 1.511 . S
C91 H105 0.961 . S
C91 H106 0.961 . S
C91 H107 0.961 . S
C92 C93 1.370 . S
C92 C94 1.363 . S
C92 H108 0.931 . S
C93 C92 1.370 . S
C93 C97 1.408 1_545 S
C94 C92 1.363 . S
C94 C95 1.370 1_545 S
C94 C98 1.524 . S
C95 C87 1.503 . S
C95 C94 1.370 1_565 S
C95 C96 1.403 . S
C96 C95 1.403 . S
C96 C97 1.404 . S
C96 C99 1.539 . S
C97 C93 1.408 1_565 S
C97 C96 1.404 . S
C97 H109 0.930 . S
C98 C94 1.524 . S
C98 H110 0.956 . S
C98 H111 0.961 . S
C98 H112 0.961 . S
C99 C96 1.539 . S
C99 H113 0.958 . S
C99 H114 0.961 . S
C99 H115 0.960 . S
H100 C84 0.931 . S
H101 C89 0.929 . S
H102 C90 0.959 1_565 S
H103 C90 0.968 . S
H104 C90 0.959 1_565 S
H105 C91 0.961 . S
H106 C91 0.961 . S
H107 C91 0.961 . S
H108 C92 0.931 . S
H109 C97 0.930 . S
H110 C98 0.956 . S
H111 C98 0.961 . S
H112 C98 0.961 . S
H113 C99 0.958 . S
H114 C99 0.961 . S
H115 C99 0.960 . S
C116 C117 1.391 . S
C116 C118 1.394 . S
C116 H132 0.931 . S
C117 C116 1.391 . S
C117 C121 1.376 . S
C118 C116 1.394 . S
C118 C119 1.369 . S
C118 C122 1.531 . S
C119 C118 1.369 . S
C119 C120 1.410 . S
C119 C127 1.503 . S
C120 C119 1.410 . S
C120 C121 1.392 . S
C120 C123 1.511 . S
C121 C117 1.376 . S
C121 C120 1.392 . S
C121 H133 0.929 . S
C122 C118 1.531 . S
C122 H134 0.960 . S
C122 H135 0.962 . S
C122 H136 0.960 . S
C123 C120 1.511 . S
C123 H137 0.961 . S
C123 H138 0.961 . S
C123 H139 0.961 . S
C124 C125 1.370 . S
C124 C126 1.363 . S
C124 H140 0.931 . S
C125 C124 1.370 . S
C125 C129 1.408 . S
C126 C124 1.363 . S
C126 C127 1.370 . S
C126 C130 1.524 . S
C127 C119 1.503 . S
C127 C126 1.370 . S
C127 C128 1.403 . S
C128 C127 1.403 . S
C128 C129 1.404 . S
C128 C131 1.539 . S
C129 C125 1.408 . S
C129 C128 1.404 . S
C129 H141 0.930 . S
C130 C126 1.524 . S
C130 H142 0.956 . S
C130 H143 0.961 . S
C130 H144 0.961 . S
C131 C128 1.539 . S
C131 H145 0.958 . S
C131 H146 0.961 . S
C131 H147 0.960 . S
H132 C116 0.931 . S
H133 C121 0.929 . S
H134 C122 0.960 . S
H135 C122 0.962 . S
H136 C122 0.960 . S
H137 C123 0.961 . S
H138 C123 0.961 . S
H139 C123 0.961 . S
H140 C124 0.931 . S
H141 C129 0.930 . S
H142 C130 0.956 . S
H143 C130 0.961 . S
H144 C130 0.961 . S
H145 C131 0.958 . S
H146 C131 0.961 . S
H147 C131 0.960 . S
C148 C149 1.391 . S
C148 C150 1.394 . S
C148 H164 0.931 . S
C149 C148 1.391 . S
C149 C153 1.376 . S
C150 C148 1.394 . S
C150 C151 1.369 . S
C150 C154 1.531 . S
C151 C150 1.369 . S
C151 C152 1.421 . S
C151 C159 1.503 . S
C152 C151 1.421 . S
C152 C153 1.400 . S
C152 C155 1.492 1_455 S
C153 C149 1.376 . S
C153 C152 1.400 . S
C153 H165 0.929 1_455 S
C154 C150 1.531 . S
C154 H166 0.960 . S
C154 H167 0.962 . S
C154 H168 0.960 . S
C155 C152 1.492 1_655 S
C155 H169 0.961 . S
C155 H170 0.961 . S
C155 H171 0.961 . S
C156 C157 1.370 . S
C156 C158 1.363 . S
C156 H172 0.931 . S
C157 C156 1.370 . S
C157 C161 1.417 . S
C158 C156 1.363 . S
C158 C159 1.370 . S
C158 C162 1.524 . S
C159 C151 1.503 . S
C159 C158 1.370 . S
C159 C160 1.397 1_455 S
C160 C159 1.397 1_655 S
C160 C161 1.419 1_655 S
C160 C163 1.542 . S
C161 C157 1.417 . S
C161 C160 1.419 1_455 S
C161 H173 0.912 1_455 S
C162 C158 1.524 . S
C162 H174 0.956 . S
C162 H175 0.961 . S
C162 H176 0.961 . S
C163 C160 1.542 . S
C163 H177 0.958 . S
C163 H178 0.961 . S
C163 H179 0.960 . S
H164 C148 0.931 . S
H165 C153 0.929 1_655 S
H166 C154 0.960 . S
H167 C154 0.962 . S
H168 C154 0.960 . S
H169 C155 0.961 . S
H170 C155 0.961 . S
H171 C155 0.961 . S
H172 C156 0.931 . S
H173 C161 0.912 1_655 S
H174 C162 0.956 . S
H175 C162 0.961 . S
H176 C162 0.961 . S
H177 C163 0.958 . S
H178 C163 0.961 . S
H179 C163 0.960 . S
C180 C181 1.391 1_565 S
C180 C182 1.394 . S
C180 H196 0.931 . S
C181 C180 1.391 1_545 S
C181 C185 1.376 . S
C182 C180 1.394 . S
C182 C183 1.369 1_565 S
C182 C186 1.531 . S
C183 C182 1.369 1_545 S
C183 C184 1.410 . S
C183 C191 1.503 . S
C184 C183 1.410 . S
C184 C185 1.392 . S
C184 C187 1.511 . S
C185 C181 1.376 . S
C185 C184 1.392 . S
C185 H197 0.929 . S
C186 C182 1.531 . S
C186 H198 0.960 . S
C186 H199 0.962 . S
C186 H200 0.960 . S
C187 C184 1.511 . S
C187 H201 0.961 . S
C187 H202 0.961 . S
C187 H203 0.961 . S
C188 C189 1.370 . S
C188 C190 1.363 . S
C188 H204 0.931 . S
C189 C188 1.370 . S
C189 C193 1.408 . S
C190 C188 1.363 . S
C190 C191 1.370 . S
C190 C194 1.524 . S
C191 C183 1.503 . S
C191 C190 1.370 . S
C191 C192 1.403 . S
C192 C191 1.403 . S
C192 C193 1.404 . S
C192 C195 1.539 1_545 S
C193 C189 1.408 . S
C193 C192 1.404 . S
C193 H205 0.930 1_545 S
C194 C190 1.524 . S
C194 H206 0.956 . S
C194 H207 0.961 . S
C194 H208 0.961 . S
C195 C192 1.539 1_565 S
C195 H209 0.958 . S
C195 H210 0.961 . S
C195 H211 0.960 . S
H196 C180 0.931 . S
H197 C185 0.929 . S
H198 C186 0.960 . S
H199 C186 0.962 . S
H200 C186 0.960 . S
H201 C187 0.961 . S
H202 C187 0.961 . S
H203 C187 0.961 . S
H204 C188 0.931 . S
H205 C193 0.930 1_565 S
H206 C194 0.956 . S
H207 C194 0.961 . S
H208 C194 0.961 . S
H209 C195 0.958 . S
H210 C195 0.961 . S
H211 C195 0.960 . S
C212 C213 1.391 . S
C212 C214 1.394 1_554 S
C212 H228 0.931 . S
C213 C212 1.391 . S
C213 C217 1.376 . S
C214 C212 1.394 1_556 S
C214 C215 1.369 1_556 S
C214 C218 1.531 . S
C215 C214 1.369 1_554 S
C215 C216 1.410 . S
C215 C223 1.503 1_554 S
C216 C215 1.410 . S
C216 C217 1.392 . S
C216 C219 1.511 . S
C217 C213 1.376 . S
C217 C216 1.392 . S
C217 H229 0.929 . S
C218 C214 1.531 . S
C218 H230 0.960 . S
C218 H231 0.962 . S
C218 H232 0.960 . S
C219 C216 1.511 . S
C219 H233 0.961 . S
C219 H234 0.961 . S
C219 H235 0.961 . S
C220 C221 1.370 . S
C220 C222 1.363 . S
C220 H236 0.931 . S
C221 C220 1.370 . S
C221 C225 1.408 . S
C222 C220 1.363 . S
C222 C223 1.370 . S
C222 C226 1.524 . S
C223 C215 1.503 1_556 S
C223 C222 1.370 . S
C223 C224 1.403 . S
C224 C223 1.403 . S
C224 C225 1.404 . S
C224 C227 1.539 . S
C225 C221 1.408 . S
C225 C224 1.404 . S
C225 H237 0.930 . S
C226 C222 1.524 . S
C226 H238 0.956 . S
C226 H239 0.961 1_556 S
C226 H240 0.961 . S
C227 C224 1.539 . S
C227 H241 0.958 . S
C227 H242 0.961 . S
C227 H243 0.960 1_556 S
H228 C212 0.931 . S
H229 C217 0.929 . S
H230 C218 0.960 . S
H231 C218 0.962 . S
H232 C218 0.960 . S
H233 C219 0.961 . S
H234 C219 0.961 . S
H235 C219 0.961 . S
H236 C220 0.931 . S
H237 C225 0.930 . S
H238 C226 0.956 . S
H239 C226 0.961 1_554 S
H240 C226 0.961 . S
H241 C227 0.958 . S
H242 C227 0.961 . S
H243 C227 0.960 1_554 S
C244 C245 1.391 1_655 S
C244 C246 1.394 . S
C244 H260 0.931 . S
C245 C244 1.391 1_455 S
C245 C249 1.376 . S
C246 C244 1.394 . S
C246 C247 1.369 1_655 S
C246 C250 1.531 . S
C247 C246 1.369 1_455 S
C247 C248 1.410 . S
C247 C255 1.503 . S
C248 C247 1.410 . S
C248 C249 1.392 . S
C248 C251 1.511 . S
C249 C245 1.376 . S
C249 C248 1.392 . S
C249 H261 0.929 1_554 S
C250 C246 1.531 . S
C250 H262 0.960 . S
C250 H263 0.962 . S
C250 H264 0.960 . S
C251 C248 1.511 . S
C251 H265 0.961 . S
C251 H266 0.961 . S
C251 H267 0.961 . S
C252 C253 1.370 1_655 S
C252 C254 1.363 . S
C252 H268 0.931 . S
C253 C252 1.370 1_455 S
C253 C257 1.408 . S
C254 C252 1.363 . S
C254 C255 1.370 1_655 S
C254 C258 1.524 . S
C255 C247 1.503 . S
C255 C254 1.370 1_455 S
C255 C256 1.403 . S
C256 C255 1.403 . S
C256 C257 1.404 . S
C256 C259 1.539 . S
C257 C253 1.408 . S
C257 C256 1.404 . S
C257 H269 0.930 . S
C258 C254 1.524 . S
C258 H270 0.956 . S
C258 H271 0.961 . S
C258 H272 0.961 . S
C259 C256 1.539 . S
C259 H273 0.958 . S
C259 H274 0.961 . S
C259 H275 0.960 . S
H260 C244 0.931 . S
H261 C249 0.929 1_556 S
H262 C250 0.960 . S
H263 C250 0.962 . S
H264 C250 0.960 . S
H265 C251 0.961 . S
H266 C251 0.961 . S
H267 C251 0.961 . S
H268 C252 0.931 . S
H269 C257 0.930 . S
H270 C258 0.956 . S
H271 C258 0.961 . S
H272 C258 0.961 . S
H273 C259 0.958 . S
H274 C259 0.961 . S
H275 C259 0.960 . S
C276 C277 1.391 . S
C276 C278 1.394 . S
C276 H292 0.931 . S
C277 C276 1.391 . S
C277 C281 1.376 . S
C278 C276 1.394 . S
C278 C279 1.369 . S
C278 C282 1.531 . S
C279 C278 1.369 . S
C279 C280 1.410 . S
C279 C287 1.503 . S
C280 C279 1.410 . S
C280 C281 1.392 . S
C280 C283 1.511 . S
C281 C277 1.376 . S
C281 C280 1.392 . S
C281 H293 0.929 . S
C282 C278 1.531 . S
C282 H294 0.960 . S
C282 H295 0.962 . S
C282 H296 0.960 . S
C283 C280 1.511 . S
C283 H297 0.961 . S
C283 H298 0.961 . S
C283 H299 0.961 . S
C284 C285 1.370 . S
C284 C286 1.363 . S
C284 H300 0.931 . S
C285 C284 1.370 . S
C285 C289 1.408 . S
C286 C284 1.363 . S
C286 C287 1.370 . S
C286 C290 1.524 . S
C287 C279 1.503 . S
C287 C286 1.370 . S
C287 C288 1.403 . S
C288 C287 1.403 . S
C288 C289 1.404 . S
C288 C291 1.539 . S
C289 C285 1.408 . S
C289 C288 1.404 . S
C289 H301 0.930 . S
C290 C286 1.524 . S
C290 H302 0.956 . S
C290 H303 0.961 . S
C290 H304 0.961 . S
C291 C288 1.539 . S
C291 H305 0.958 . S
C291 H306 0.961 . S
C291 H307 0.960 . S
H292 C276 0.931 . S
H293 C281 0.929 . S
H294 C282 0.960 . S
H295 C282 0.962 . S
H296 C282 0.960 . S
H297 C283 0.961 . S
H298 C283 0.961 . S
H299 C283 0.961 . S
H300 C284 0.931 . S
H301 C289 0.930 . S
H302 C290 0.956 . S
H303 C290 0.961 . S
H304 C290 0.961 . S
H305 C291 0.958 . S
H306 C291 0.961 . S
H307 C291 0.960 . S
C308 C309 1.391 . S
C308 C310 1.394 . S
C308 H324 0.931 . S
C309 C308 1.391 . S
C309 C313 1.376 . S
C310 C308 1.394 . S
C310 C311 1.369 . S
C310 C314 1.531 . S
C311 C310 1.369 . S
C311 C312 1.410 . S
C311 C319 1.503 . S
C312 C311 1.410 . S
C312 C313 1.392 . S
C312 C315 1.511 . S
C313 C309 1.376 . S
C313 C312 1.392 . S
C313 H325 0.929 . S
C314 C310 1.531 . S
C314 H326 0.960 . S
C314 H327 0.962 . S
C314 H328 0.960 . S
C315 C312 1.511 . S
C315 H329 0.961 . S
C315 H330 0.961 . S
C315 H331 0.961 . S
C316 C317 1.370 . S
C316 C318 1.363 . S
C316 H332 0.931 . S
C317 C316 1.370 . S
C317 C321 1.408 . S
C318 C316 1.363 . S
C318 C319 1.370 . S
C318 C322 1.524 . S
C319 C311 1.503 . S
C319 C318 1.370 . S
C319 C320 1.403 . S
C320 C319 1.403 . S
C320 C321 1.404 . S
C320 C323 1.539 . S
C321 C317 1.408 . S
C321 C320 1.404 . S
C321 H333 0.930 . S
C322 C318 1.524 . S
C322 H334 0.956 . S
C322 H335 0.961 . S
C322 H336 0.961 . S
C323 C320 1.539 . S
C323 H337 0.958 . S
C323 H338 0.961 . S
C323 H339 0.960 . S
H324 C308 0.931 . S
H325 C313 0.929 . S
H326 C314 0.960 . S
H327 C314 0.962 . S
H328 C314 0.960 . S
H329 C315 0.961 . S
H330 C315 0.961 . S
H331 C315 0.961 . S
H332 C316 0.931 . S
H333 C321 0.930 . S
H334 C322 0.956 . S
H335 C322 0.961 . S
H336 C322 0.961 . S
H337 C323 0.958 . S
H338 C323 0.961 . S
H339 C323 0.960 . S
C340 C341 1.391 . S
C340 C342 1.394 . S
C340 H356 0.931 . S
C341 C340 1.391 . S
C341 C345 1.376 . S
C342 C340 1.394 . S
C342 C343 1.369 . S
C342 C346 1.531 . S
C343 C342 1.369 . S
C343 C344 1.410 . S
C343 C351 1.503 . S
C344 C343 1.410 . S
C344 C345 1.392 . S
C344 C347 1.511 . S
C345 C341 1.376 . S
C345 C344 1.392 . S
C345 H357 0.929 . S
C346 C342 1.531 . S
C346 H358 0.960 . S
C346 H359 0.962 . S
C346 H360 0.960 . S
C347 C344 1.511 . S
C347 H361 0.961 . S
C347 H362 0.961 . S
C347 H363 0.961 . S
C348 C349 1.370 . S
C348 C350 1.363 . S
C348 H364 0.931 . S
C349 C348 1.370 . S
C349 C353 1.408 . S
C350 C348 1.363 . S
C350 C351 1.370 . S
C350 C354 1.524 . S
C351 C343 1.503 . S
C351 C350 1.370 . S
C351 C352 1.403 . S
C352 C351 1.403 . S
C352 C353 1.404 . S
C352 C355 1.539 . S
C353 C349 1.408 . S
C353 C352 1.404 . S
C353 H365 0.930 . S
C354 C350 1.524 . S
C354 H366 0.956 . S
C354 H367 0.961 . S
C354 H368 0.961 . S
C355 C352 1.539 . S
C355 H369 0.958 . S
C355 H370 0.961 . S
C355 H371 0.960 . S
H356 C340 0.931 . S
H357 C345 0.929 . S
H358 C346 0.960 . S
H359 C346 0.962 . S
H360 C346 0.960 . S
H361 C347 0.961 . S
H362 C347 0.961 . S
H363 C347 0.961 . S
H364 C348 0.931 . S
H365 C353 0.930 . S
H366 C354 0.956 . S
H367 C354 0.961 . S
H368 C354 0.961 . S
H369 C355 0.958 . S
H370 C355 0.961 . S
H371 C355 0.960 . S
C372 C373 1.391 . S
C372 C374 1.394 . S
C372 H388 0.931 . S
C373 C372 1.391 . S
C373 C377 1.376 . S
C374 C372 1.394 . S
C374 C375 1.369 . S
C374 C378 1.531 . S
C375 C374 1.369 . S
C375 C376 1.410 . S
C375 C383 1.503 . S
C376 C375 1.410 . S
C376 C377 1.392 . S
C376 C379 1.511 . S
C377 C373 1.376 . S
C377 C376 1.392 . S
C377 H389 0.929 . S
C378 C374 1.531 . S
C378 H390 0.960 . S
C378 H391 0.962 . S
C378 H392 0.960 . S
C379 C376 1.511 . S
C379 H393 0.961 . S
C379 H394 0.961 . S
C379 H395 0.961 . S
C380 C381 1.370 . S
C380 C382 1.363 . S
C380 H396 0.931 . S
C381 C380 1.370 . S
C381 C385 1.408 . S
C382 C380 1.363 . S
C382 C383 1.370 . S
C382 C386 1.524 . S
C383 C375 1.503 . S
C383 C382 1.370 . S
C383 C384 1.403 . S
C384 C383 1.403 . S
C384 C385 1.404 . S
C384 C387 1.539 . S
C385 C381 1.408 . S
C385 C384 1.404 . S
C385 H397 0.930 . S
C386 C382 1.524 . S
C386 H398 0.956 . S
C386 H399 0.961 . S
C386 H400 0.961 . S
C387 C384 1.539 . S
C387 H401 0.958 . S
C387 H402 0.961 . S
C387 H403 0.960 . S
H388 C372 0.931 . S
H389 C377 0.929 . S
H390 C378 0.960 . S
H391 C378 0.962 . S
H392 C378 0.960 . S
H393 C379 0.961 . S
H394 C379 0.961 . S
H395 C379 0.961 . S
H396 C380 0.931 . S
H397 C385 0.930 . S
H398 C386 0.956 . S
H399 C386 0.961 . S
H400 C386 0.961 . S
H401 C387 0.958 . S
H402 C387 0.961 . S
H403 C387 0.960 . S
C404 C405 1.391 . S
C404 C406 1.394 . S
C404 H420 0.931 . S
C405 C404 1.391 . S
C405 C409 1.376 . S
C406 C404 1.394 . S
C406 C407 1.369 . S
C406 C410 1.531 . S
C407 C406 1.369 . S
C407 C408 1.410 . S
C407 C415 1.503 . S
C408 C407 1.410 . S
C408 C409 1.392 . S
C408 C411 1.511 . S
C409 C405 1.376 . S
C409 C408 1.392 . S
C409 H421 0.929 . S
C410 C406 1.531 . S
C410 H422 0.960 . S
C410 H423 0.962 . S
C410 H424 0.960 . S
C411 C408 1.511 . S
C411 H425 0.961 . S
C411 H426 0.961 . S
C411 H427 0.961 . S
C412 C413 1.370 . S
C412 C414 1.363 . S
C412 H428 0.931 . S
C413 C412 1.370 . S
C413 C417 1.408 . S
C414 C412 1.363 . S
C414 C415 1.370 . S
C414 C418 1.524 . S
C415 C407 1.503 . S
C415 C414 1.370 . S
C415 C416 1.403 . S
C416 C415 1.403 . S
C416 C417 1.404 . S
C416 C419 1.539 . S
C417 C413 1.408 . S
C417 C416 1.404 . S
C417 H429 0.930 . S
C418 C414 1.524 . S
C418 H430 0.956 . S
C418 H431 0.961 . S
C418 H432 0.961 . S
C419 C416 1.539 . S
C419 H433 0.958 . S
C419 H434 0.961 . S
C419 H435 0.960 . S
H420 C404 0.931 . S
H421 C409 0.929 . S
H422 C410 0.960 . S
H423 C410 0.962 . S
H424 C410 0.960 . S
H425 C411 0.961 . S
H426 C411 0.961 . S
H427 C411 0.961 . S
H428 C412 0.931 . S
H429 C417 0.930 . S
H430 C418 0.956 . S
H431 C418 0.961 . S
H432 C418 0.961 . S
H433 C419 0.958 . S
H434 C419 0.961 . S
H435 C419 0.960 . S
C436 C437 1.391 1_554 S
C436 C438 1.394 . S
C436 H452 0.931 . S
C437 C436 1.391 1_556 S
C437 C441 1.376 . S
C438 C436 1.394 . S
C438 C439 1.369 1_554 S
C438 C442 1.531 . S
C439 C438 1.369 1_556 S
C439 C440 1.410 . S
C439 C447 1.504 . S
C440 C439 1.410 . S
C440 C441 1.392 . S
C440 C443 1.511 . S
C441 C437 1.376 . S
C441 C440 1.392 . S
C441 H453 0.929 . S
C442 C438 1.531 . S
C442 H454 0.960 . S
C442 H455 0.962 . S
C442 H456 0.960 . S
C443 C440 1.511 . S
C443 H457 0.961 . S
C443 H458 0.961 . S
C443 H459 0.961 . S
C444 C445 1.370 1_556 S
C444 C446 1.363 . S
C444 H460 0.931 . S
C445 C444 1.370 1_554 S
C445 C449 1.408 . S
C446 C444 1.363 . S
C446 C447 1.384 . S
C446 C450 1.524 . S
C447 C439 1.504 . S
C447 C446 1.384 . S
C447 C448 1.388 1_556 S
C448 C447 1.388 1_554 S
C448 C449 1.404 . S
C448 C451 1.539 . S
C449 C445 1.408 . S
C449 C448 1.404 . S
C449 H461 0.930 . S
C450 C446 1.524 . S
C450 H462 0.956 . S
C450 H463 0.961 . S
C450 H464 0.961 . S
C451 C448 1.539 . S
C451 H465 0.958 . S
C451 H466 0.961 . S
C451 H467 0.960 . S
H452 C436 0.931 . S
H453 C441 0.929 . S
H454 C442 0.960 . S
H455 C442 0.962 . S
H456 C442 0.960 . S
H457 C443 0.961 . S
H458 C443 0.961 . S
H459 C443 0.961 . S
H460 C444 0.931 . S
H461 C449 0.930 . S
H462 C450 0.956 . S
H463 C450 0.961 . S
H464 C450 0.961 . S
H465 C451 0.958 . S
H466 C451 0.961 . S
H467 C451 0.960 . S
C85 C9 1.806 1_545 S
C93 C50 1.816 1_545 S
C117 C23 1.826 . S
C125 C64 1.824 . S
C149 C78 1.823 . S
C157 C37 1.824 . S
C181 C8 1.823 . S
C189 C51 1.821 . S
C213 C22 1.826 . S
C221 C65 1.824 . S
C245 C79 1.827 1_454 S
C253 C36 1.816 1_455 S
C277 C20 1.401 . S
C285 C7 1.424 . S
C309 C34 1.462 . S
C317 C21 1.429 . S
C341 C35 1.434 . S
C349 C48 1.418 . S
C373 C62 1.428 . S
C381 C49 1.418 . S
C405 C76 1.416 . S
C413 C63 1.419 . S
C437 C77 1.436 . S
C445 C6 1.418 . S
