# Generated by pormake.
# Topology sxb, (6)-cn, num edge types: 1
# Building blocks:
#     Node 0, Type 0, BuildingBlock: GEDQOX_clean_sbu_0, # of connection points: 6
#     Node 1, Type 0, BuildingBlock: GEDQOX_clean_sbu_0, # of connection points: 6
#     Node 2, Type 0, BuildingBlock: GEDQOX_clean_sbu_0, # of connection points: 6
#     Node 3, Type 0, BuildingBlock: GEDQOX_clean_sbu_0, # of connection points: 6
#     Edge 4, Type (0, 0), BuildingBlock: FUNLAD_clean_linker_0, # of connection points: 2
#     Edge 5, Type (0, 0), BuildingBlock: FUNLAD_clean_linker_0, # of connection points: 2
#     Edge 6, Type (0, 0), BuildingBlock: FUNLAD_clean_linker_0, # of connection points: 2
#     Edge 7, Type (0, 0), BuildingBlock: FUNLAD_clean_linker_0, # of connection points: 2
#     Edge 8, Type (0, 0), BuildingBlock: FUNLAD_clean_linker_0, # of connection points: 2
#     Edge 9, Type (0, 0), BuildingBlock: FUNLAD_clean_linker_0, # of connection points: 2
#     Edge 10, Type (0, 0), BuildingBlock: FUNLAD_clean_linker_0, # of connection points: 2
#     Edge 11, Type (0, 0), BuildingBlock: FUNLAD_clean_linker_0, # of connection points: 2
#     Edge 12, Type (0, 0), BuildingBlock: FUNLAD_clean_linker_0, # of connection points: 2
#     Edge 13, Type (0, 0), BuildingBlock: FUNLAD_clean_linker_0, # of connection points: 2
#     Edge 14, Type (0, 0), BuildingBlock: FUNLAD_clean_linker_0, # of connection points: 2
#     Edge 15, Type (0, 0), BuildingBlock: FUNLAD_clean_linker_0, # of connection points: 2
# Relax obj value: 0.316
# Max RMSD: 0.123
# Mean RMSD: 0.075
data_MOF--net-sxb--node1-GEDQOX_clean_sbu_0--edge1-FUNLAD_clean_linker_0
_symmetry_space_group_name_H-M    P1
_symmetry_Int_Tables_number       1
_symmetry_cell_setting            triclinic
loop_
_symmetry_equiv_pos_as_xyz
'x, y, z'
_cell_length_a     18.579533
_cell_length_b     39.796348
_cell_length_c     34.606002
_cell_angle_alpha  85.48748
_cell_angle_beta   92.301151
_cell_angle_gamma 113.33156
loop_
_atom_site_label
_atom_site_type_symbol
_atom_site_fract_x
_atom_site_fract_y
_atom_site_fract_z
_atom_type_partial_charge
Nd0 Nd 0.28358 0.11663 0.03023 0.0
Nd1 Nd 1.20197 1.03811 0.01777 0.0
C2 C 0.32965 0.18344 0.05391 0.0
C3 C 0.28609 0.20638 0.05951 0.0
C4 C 1.2117 0.19091 0.07658 0.0
C5 C 1.16315 0.21015 0.07431 0.0
C6 C 1.18797 0.24507 0.05475 0.0
C7 C 0.26455 0.26154 0.04012 0.0
C8 C 0.31329 0.24228 0.04249 0.0
C9 C 0.27621 0.1013 0.95384 0.0
C10 C 1.08744 0.08064 0.02329 0.0
C11 C 1.14983 0.97157 0.99238 0.0
C12 C 1.1836 0.94544 0.98401 0.0
C13 C 0.26203 0.95781 0.97272 0.0
C14 C 0.29613 0.93277 0.96884 0.0
C15 C 0.25235 0.895 0.97639 0.0
C16 C 1.1729 0.88265 0.98621 0.0
C17 C 1.13877 0.90777 0.99 0.0
C18 C 1.2117 1.05352 0.09452 0.0
C19 C 0.39802 0.07394 0.02536 0.0
O20 O 0.3135 0.15424 0.07768 0.0
O21 O 0.33456 0.17692 0.0179 0.0
O22 O 0.3385 0.12407 0.9703 0.0
O23 O 0.22002 0.08771 0.97739 0.0
O24 O 1.15135 0.10761 0.03556 0.0
O25 O 1.09254 1.05139 0.01038 0.0
O26 O 1.17041 1.00151 0.96946 0.0
O27 O 1.14972 0.97768 0.02891 0.0
O28 O 1.14948 1.02994 0.07879 0.0
O29 O 0.26645 0.06718 0.07029 0.0
O30 O 0.33427 1.04707 0.01266 0.0
O31 O 0.39271 0.10311 0.03855 0.0
H32 H 1.18902 0.16312 0.08969 0.0
H33 H 1.10426 0.1966 0.08556 0.0
H34 H 0.28551 0.28868 0.02541 0.0
H35 H 0.37047 0.2546 0.02912 0.0
H36 H 0.29761 0.98686 0.9681 0.0
H37 H 0.35778 0.94312 0.96183 0.0
H38 H 1.1378 0.85367 0.99194 0.0
H39 H 1.07809 0.89786 0.99873 0.0
Nd40 Nd 1.15131 0.07998 0.52392 0.0
Nd41 Nd 0.29793 0.07372 0.52446 0.0
C42 C 1.0038 0.07222 0.5251 0.0
C43 C 0.93936 1.05274 0.49812 0.0
C44 C 0.90527 1.01414 0.49949 0.0
C45 C 0.85637 0.99603 0.46939 0.0
C46 C 0.84111 1.01612 0.43724 0.0
C47 C 0.87141 1.05454 0.43689 0.0
C48 C 0.91954 0.07266 0.46717 0.0
C49 C 1.20724 0.08368 0.44971 0.0
C50 C 1.14976 0.99783 0.52437 0.0
C51 C 0.43603 0.07619 0.5051 0.0
C52 C 0.45641 1.05739 0.47526 0.0
C53 C 0.39744 1.03534 0.4508 0.0
C54 C 0.41603 1.01844 0.42114 0.0
C55 C 0.49408 1.02328 0.41548 0.0
C56 C 0.55298 1.04516 0.4404 0.0
C57 C 0.53421 0.06215 0.47006 0.0
C58 C 0.24447 0.06718 0.59923 0.0
C59 C 0.29654 0.15563 0.53006 0.0
O60 O 1.03119 1.05205 0.54779 0.0
O61 O 1.05964 0.10162 0.50997 0.0
O62 O 1.179 0.106 0.4612 0.0
O63 O 1.20679 1.06098 0.47714 0.0
O64 O 1.11419 1.01732 0.53769 0.0
O65 O 0.22068 1.01484 0.51013 0.0
O66 O 0.3955 1.05508 0.53412 0.0
O67 O 0.40835 0.10035 0.49171 0.0
O68 O 0.28078 1.0483 0.58692 0.0
O69 O 0.24019 0.0902 0.57288 0.0
O70 O 0.33446 0.13703 0.51683 0.0
O71 O 0.22408 0.13791 0.54222 0.0
H72 H 0.91911 0.99787 0.52288 0.0
H73 H 0.83347 0.96635 0.47039 0.0
H74 H 0.85915 0.07062 0.41277 0.0
H75 H 0.94435 0.10238 0.46539 0.0
H76 H 0.33705 1.03156 0.45441 0.0
H77 H 0.36948 1.00217 0.40224 0.0
H78 H 0.61351 1.04895 0.43715 0.0
H79 H 0.58035 0.0791 0.48874 0.0
Nd80 Nd 0.77647 0.60798 0.03296 0.0
Nd81 Nd 0.69416 0.53009 0.01983 0.0
C82 C 0.82469 0.67445 0.05788 0.0
C83 C 0.78347 0.69815 0.06446 0.0
C84 C 0.7073 0.68303 0.07951 0.0
C85 C 0.66264 0.70409 0.07902 0.0
C86 C 0.69327 0.74056 0.06333 0.0
C87 C 0.7712 0.75628 0.05041 0.0
C88 C 0.81597 0.73516 0.05096 0.0
C89 C 0.7717 0.59353 0.95626 0.0
C90 C 0.58041 0.57298 0.02546 0.0
C91 C 0.63802 0.46341 0.99452 0.0
C92 C 0.66871 0.43747 0.98214 0.0
C93 C 0.747 0.44957 0.97082 0.0
C94 C 0.77796 0.42423 0.96282 0.0
C95 C 0.73104 0.38643 0.96619 0.0
C96 C 0.65161 0.37458 0.97585 0.0
C97 C 0.62068 0.40001 0.9838 0.0
C98 C 0.70264 0.54508 0.09674 0.0
C99 C 0.8899 0.56502 0.02735 0.0
O100 O 0.80725 0.64482 0.08113 0.0
O101 O 0.82854 0.66837 0.02162 0.0
O102 O 0.83343 0.61595 0.97343 0.0
O103 O 0.71453 0.57988 0.97927 0.0
O104 O 0.64455 0.59987 0.03764 0.0
O105 O 0.58511 0.54357 0.01282 0.0
O106 O 0.65295 0.49321 0.97188 0.0
O107 O 0.64748 0.46972 0.03125 0.0
O108 O 0.63964 0.52282 0.08028 0.0
O109 O 0.75822 0.55828 0.07292 0.0
O110 O 0.82619 0.5387 0.01379 0.0
O111 O 0.88459 0.59379 0.04147 0.0
H112 H 0.68072 0.65442 0.08988 0.0
H113 H 0.60253 0.6911 0.08876 0.0
H114 H 0.79651 0.78449 0.03861 0.0
H115 H 0.87459 0.74721 0.03915 0.0
H116 H 0.78481 0.47848 0.96943 0.0
H117 H 0.83967 0.43415 0.95608 0.0
H118 H 0.61416 0.34563 0.97843 0.0
H119 H 0.55997 0.39036 0.99242 0.0
Nd120 Nd 0.64617 0.57813 0.52646 0.0
Nd121 Nd 0.79523 0.57594 0.52295 0.0
C122 C 0.49613 0.565 0.53069 0.0
C123 C 0.43541 0.54379 0.50342 0.0
C124 C 0.4493 0.51858 0.48175 0.0
C125 C 0.40089 0.50338 0.45045 0.0
C126 C 0.33776 0.51326 0.43991 0.0
C127 C 0.32193 0.53736 0.46267 0.0
C128 C 0.37063 0.55261 0.49414 0.0
C129 C 0.69603 0.58522 0.45052 0.0
C130 C 0.65445 0.49804 0.524 0.0
C131 C 0.93458 0.58266 0.50055 0.0
C132 C 0.95744 0.56419 0.47109 0.0
C133 C 0.91221 0.52721 0.4649 0.0
C134 C 0.92962 0.5107 0.43451 0.0
C135 C 0.99186 0.53101 0.40946 0.0
C136 C 1.03706 0.56802 0.41569 0.0
C137 C 1.02001 0.58446 0.44634 0.0
C138 C 0.74701 0.56763 0.59915 0.0
C139 C 0.78585 0.65589 0.53109 0.0
O140 O 0.52901 0.54653 0.55239 0.0
O141 O 0.54741 0.59569 0.51527 0.0
O142 O 0.66517 0.60543 0.46459 0.0
O143 O 0.70149 0.56234 0.47656 0.0
O144 O 0.61774 0.51607 0.53925 0.0
O145 O 0.72355 0.51656 0.5084 0.0
O146 O 0.89988 0.5624 0.53136 0.0
O147 O 0.90076 0.60433 0.48679 0.0
O148 O 0.78406 0.54978 0.58525 0.0
O149 O 0.73873 0.5903 0.57354 0.0
O150 O 0.82522 0.63857 0.51665 0.0
O151 O 0.71453 0.63687 0.54428 0.0
H152 H 0.5001 0.51201 0.48773 0.0
H153 H 0.41559 0.48542 0.43327 0.0
H154 H 0.27313 0.54518 0.45553 0.0
H155 H 0.35968 0.57242 0.51013 0.0
H156 H 0.86255 0.51119 0.48313 0.0
H157 H 0.89352 0.48222 0.43016 0.0
H158 H 1.08593 0.58415 0.39703 0.0
H159 H 1.05482 0.61316 0.45035 0.0
C160 C 0.6416 0.77968 0.02078 0.0
C161 C 0.64117 0.76053 0.05669 0.0
C162 C 0.58665 0.79504 0.01251 0.0
C163 C 0.52971 0.79129 0.03997 0.0
C164 C 0.53143 0.77355 0.07645 0.0
C165 C 0.58637 0.7581 0.08471 0.0
C166 C 0.46888 0.8062 0.0319 0.0
C167 C 0.44306 0.81139 0.99592 0.0
C168 C 0.38624 0.82872 0.98866 0.0
C169 C 0.39409 0.85223 0.95529 0.0
C170 C 0.34779 0.87262 0.95015 0.0
C171 C 0.29212 0.8693 0.97808 0.0
H172 H 0.31752 0.80454 0.04055 0.0
C173 C 0.28036 0.8437 0.01001 0.0
C174 C 0.3269 0.82352 0.01523 0.0
H175 H 0.23792 0.84058 0.03202 0.0
H176 H 0.6828 0.78179 0.9985 0.0
H177 H 0.58926 0.80978 0.98463 0.0
H178 H 0.48902 0.77088 0.09833 0.0
H179 H 0.58532 0.74384 0.1128 0.0
H180 H 0.4445 0.81301 0.05671 0.0
H181 H 0.46727 0.80496 0.97086 0.0
H182 H 0.43865 0.85618 0.93412 0.0
H183 H 0.35714 0.89179 0.92499 0.0
C184 C 0.75295 0.33163 0.99417 0.0
C185 C 0.76788 0.3598 0.96465 0.0
C186 C 0.79914 0.31124 0.99791 0.0
C187 C 0.86118 0.31879 0.97226 0.0
C188 C 0.87137 0.34446 0.94065 0.0
C189 C 0.82539 0.36507 0.937 0.0
C190 C 0.91997 0.3027 0.97986 0.0
C191 C 0.94596 0.2987 0.01612 0.0
C192 C 1.01054 0.28647 0.02551 0.0
C193 C 1.01679 0.27256 0.06347 0.0
C194 C 1.07617 0.26031 0.07353 0.0
C195 C 1.13088 0.26203 0.04581 0.0
H196 H 1.06629 0.30124 0.96898 0.0
C197 C 1.12639 0.27718 0.00819 0.0
C198 C 1.06707 0.28943 0.99814 0.0
H199 H 1.1673 0.27856 0.98608 0.0
H200 H 0.70904 0.32692 0.01592 0.0
H201 H 0.78837 0.29066 0.02184 0.0
H202 H 0.91816 0.35025 0.92021 0.0
H203 H 0.83714 0.38624 0.91361 0.0
H204 H 0.9462 0.29706 0.95504 0.0
H205 H 0.91936 0.30515 0.04037 0.0
H206 H 0.97477 0.27058 0.08528 0.0
H207 H 1.07873 0.24909 0.10285 0.0
C208 C 0.41272 0.21595 0.51848 0.0
C209 C 0.33565 0.19632 0.53178 0.0
C210 C 0.44903 0.25427 0.51993 0.0
C211 C 0.40899 0.27408 0.53466 0.0
C212 C 0.33222 0.25425 0.54819 0.0
C213 C 0.29601 0.21605 0.54668 0.0
C214 C 0.44468 0.31496 0.53754 0.0
C215 C 0.51022 0.33842 0.51892 0.0
C216 C 0.54545 0.37936 0.52155 0.0
C217 C 0.62139 0.39947 0.50706 0.0
C218 C 0.65677 0.43776 0.50805 0.0
C219 C 0.61713 0.45723 0.52348 0.0
H220 H 0.44646 0.38517 0.54756 0.0
C221 C 0.54104 0.4373 0.53787 0.0
C222 C 0.50554 0.39895 0.53687 0.0
H223 H 0.50834 0.45137 0.54964 0.0
H224 H 0.44533 0.20171 0.50698 0.0
H225 H 0.50872 0.26789 0.50998 0.0
H226 H 0.29967 0.26841 0.55993 0.0
H227 H 0.23672 0.202 0.55729 0.0
H228 H 0.41422 0.32589 0.55576 0.0
H229 H 0.54058 0.32745 0.50066 0.0
H230 H 0.65382 0.38549 0.49486 0.0
H231 H 0.71531 0.45208 0.49658 0.0
C232 C 1.03289 0.93817 0.53834 0.0
C233 C 1.1094 0.9571 0.52402 0.0
C234 C 0.99515 0.89982 0.53748 0.0
C235 C 1.03317 0.87936 0.52224 0.0
C236 C 1.10947 0.8985 0.50783 0.0
C237 C 1.14707 0.93667 0.50877 0.0
C238 C 0.99599 0.83849 0.51961 0.0
C239 C 0.93032 0.81535 0.53836 0.0
C240 C 0.89482 0.77441 0.53571 0.0
C241 C 0.81779 0.75431 0.54888 0.0
C242 C 0.78234 0.71601 0.54745 0.0
C243 C 0.82309 0.69659 0.53293 0.0
H244 H 0.99584 0.76851 0.51209 0.0
C245 C 0.90035 0.71656 0.52007 0.0
C246 C 0.93584 0.75481 0.52155 0.0
H247 H 0.93396 0.7026 0.50897 0.0
H248 H 1.00178 0.95301 0.55005 0.0
H249 H 0.93596 0.88668 0.5482 0.0
H250 H 1.1405 0.88382 0.49572 0.0
H251 H 1.20582 0.95017 0.49734 0.0
H252 H 1.0255 0.82723 0.50121 0.0
H253 H 0.90018 0.82652 0.5565 0.0
H254 H 0.78456 0.76832 0.56026 0.0
H255 H 0.72287 0.70165 0.55773 0.0
C256 C 0.5457 0.10054 0.03679 0.0
C257 C 0.47721 0.0717 0.02446 0.0
C258 C 0.62008 0.09886 0.0356 0.0
C259 C 0.62881 0.06815 0.02195 0.0
C260 C 0.56008 1.03934 0.0098 0.0
C261 C 0.48584 1.04105 0.01097 0.0
C262 C 0.70693 0.06444 0.01992 0.0
C263 C 0.77866 0.09031 0.02885 0.0
C264 C 0.85677 0.08657 0.02678 0.0
C265 C 0.92585 0.11582 0.03784 0.0
C266 C 1.00003 0.11404 0.03666 0.0
C267 C 1.00826 0.0829 0.02428 0.0
H268 H 0.81486 1.03201 0.00531 0.0
C269 C 0.93943 1.05363 0.01307 0.0
C270 C 0.86511 1.05536 0.01428 0.0
H271 H 0.94273 1.02907 0.00335 0.0
H272 H 0.54207 0.12469 0.04742 0.0
H273 H 0.67004 0.12179 0.04556 0.0
H274 H 0.56366 1.01516 -0.00083 0.0
H275 H 0.43512 1.01821 0.00122 0.0
H276 H 0.70403 1.03868 0.0103 0.0
H277 H 0.78158 0.11613 0.0383 0.0
H278 H 0.92261 0.14039 0.04758 0.0
H279 H 1.05105 0.13721 0.04547 0.0
C280 C 0.58183 1.02486 0.36164 0.0
C281 C 0.51409 1.00564 0.38369 0.0
C282 C 0.60312 1.00773 0.33315 0.0
C283 C 0.55757 0.97092 0.32645 0.0
C284 C 0.48783 0.95219 0.34688 0.0
C285 C 0.46637 0.96934 0.37546 0.0
C286 C 0.5859 0.95119 0.30025 0.0
C287 C 0.65636 0.9491 0.30515 0.0
C288 C 0.70751 0.96343 0.33904 0.0
C289 C 0.6802 0.95035 0.37681 0.0
C290 C 0.72421 0.96705 0.40882 0.0
C291 C 0.79598 0.99722 0.40352 0.0
H292 H 0.80273 1.00277 0.30476 0.0
C293 C 0.82448 1.0094 0.36571 0.0
C294 C 0.78084 0.99236 0.3337 0.0
H295 H 0.88031 1.03226 0.36092 0.0
H296 H 0.61872 1.05311 0.36657 0.0
H297 H 0.65636 1.02292 0.31701 0.0
H298 H 0.4519 0.92381 0.34198 0.0
H299 H 0.4139 0.95376 0.392 0.0
H300 H 0.54823 0.93778 0.27647 0.0
H301 H 0.67652 0.93651 0.28356 0.0
H302 H 0.62377 0.92786 0.38145 0.0
H303 H 0.70105 0.9571 0.43763 0.0
C304 C 1.03713 0.59115 0.03995 0.0
C305 C 0.96916 0.56286 0.02628 0.0
C306 C 1.11167 0.58968 0.03865 0.0
C307 C 1.12117 0.55975 0.02353 0.0
C308 C 1.05296 0.53145 0.01005 0.0
C309 C 0.97849 0.53295 0.01134 0.0
C310 C 1.19958 0.55633 0.02136 0.0
C311 C 0.27098 0.58201 0.03114 0.0
C312 C 0.34937 0.57857 0.02895 0.0
C313 C 0.41824 0.6078 0.04031 0.0
C314 C 0.49264 0.6062 0.03911 0.0
C315 C 0.50123 0.57525 0.02642 0.0
H316 H 0.30809 0.52421 0.00704 0.0
C317 C 0.43259 0.54601 0.01493 0.0
C318 C 0.35814 0.54757 0.01616 0.0
H319 H 0.43613 0.52158 0.00499 0.0
H320 H 1.03298 0.61472 0.05174 0.0
H321 H 1.16116 0.61215 0.04972 0.0
H322 H 1.05714 0.50786 0.99828 0.0
H323 H 0.92818 0.51056 0.00051 0.0
H324 H 1.19721 0.531 0.0108 0.0
H325 H 0.27339 0.60748 0.04137 0.0
H326 H 0.41466 0.6322 0.05032 0.0
H327 H 0.54348 0.62934 0.04819 0.0
C328 C 0.27283 0.52516 0.37854 0.0
C329 C 0.29271 0.50059 0.40367 0.0
C330 C 0.23336 0.51393 0.3437 0.0
C331 C 1.212 0.47775 0.33344 0.0
C332 C 0.23338 0.45337 0.35784 0.0
C333 C 0.27303 0.46461 0.3928 0.0
C334 C 1.16499 0.46503 0.29782 0.0
C335 C 1.09675 0.46879 0.2902 0.0
C336 C 1.05912 0.48215 0.31883 0.0
C337 C 1.0403 0.46376 0.35567 0.0
C338 C 1.01632 0.47921 0.38479 0.0
C339 C 1.01087 0.51335 0.37755 0.0
H340 H 1.06365 0.52965 0.28246 0.0
C341 C 1.02616 0.53088 0.34008 0.0
C342 C 1.04941 0.51516 0.31077 0.0
H343 H 1.02127 0.55699 0.33367 0.0
H344 H 0.28907 0.55333 0.38543 0.0
H345 H 0.21926 0.53351 0.32477 0.0
H346 H 0.21766 0.42541 0.35032 0.0
H347 H 0.2875 0.445 0.4115 0.0
H348 H 1.18657 0.45217 0.27712 0.0
H349 H 1.0679 0.46146 0.26237 0.0
H350 H 1.04711 0.4381 0.3623 0.0
H351 H 1.00507 0.46516 0.4134 0.0
C352 C 0.21716 0.10572 0.37933 0.0
C353 C 0.21456 0.07843 0.40827 0.0
C354 C 0.21871 0.09979 0.33998 0.0
C355 C 0.217 0.06622 0.32872 0.0
C356 C 0.21512 1.03913 0.35777 0.0
C357 C 0.21465 1.04526 0.39706 0.0
C358 C 1.21144 1.05759 0.28719 0.0
C359 C 0.24194 0.08308 0.25764 0.0
C360 C 0.23416 0.07416 0.21614 0.0
C361 C 0.29377 0.09531 0.19 0.0
C362 C 0.28718 0.08826 0.15066 0.0
C363 C 0.21979 1.06048 0.13634 0.0
H364 H 1.11892 1.02985 0.22089 0.0
C365 C 1.15971 1.03954 0.16236 0.0
C366 C 1.16692 1.04613 0.20184 0.0
H367 H 1.1069 1.01802 0.15221 0.0
H368 H 0.21674 0.13149 0.38709 0.0
H369 H 0.21841 0.12103 0.31851 0.0
H370 H 1.21325 1.01294 0.35003 0.0
H371 H 1.21187 1.02353 0.41862 0.0
H372 H 1.18336 1.02889 0.28097 0.0
H373 H 0.27671 0.1113 0.26401 0.0
H374 H 0.34595 0.11723 0.2001 0.0
H375 H 0.33464 0.10477 0.13141 0.0
C376 C 1.19941 0.07895 0.89254 0.0
C377 C 0.27168 0.09443 0.91211 0.0
C378 C 1.19695 0.07379 0.85268 0.0
C379 C 0.26684 0.08346 0.83191 0.0
C380 C 0.33867 0.09815 0.85186 0.0
C381 C 0.34113 0.10399 0.8913 0.0
C382 C 0.26777 0.07723 0.78999 0.0
C383 C 0.21377 0.07932 0.76366 0.0
C384 C 0.21955 0.07503 0.7215 0.0
C385 C 1.19135 0.09463 0.6936 0.0
C386 C 1.1987 0.092 0.65382 0.0
C387 C 0.23316 0.06916 0.64113 0.0
H388 H 0.27246 1.03508 0.7292 0.0
C389 C 0.25877 1.04856 0.66903 0.0
C390 C 0.25228 1.05151 0.70867 0.0
H391 H 0.28484 1.0304 0.66025 0.0
H392 H 1.14492 0.07119 0.90793 0.0
H393 H 1.1405 0.06163 0.83842 0.0
H394 H 0.39338 0.10553 0.83677 0.0
H395 H 0.3977 0.11574 0.90561 0.0
H396 H 0.31847 0.07333 0.78004 0.0
H397 H 1.16716 0.08687 0.77268 0.0
H398 H 1.16511 0.11266 0.7026 0.0
H399 H 1.17792 0.10802 0.63304 0.0
C400 C 0.73458 0.56068 0.39295 0.0
C401 C 0.69809 0.58168 0.40814 0.0
C402 C 0.7327 0.55664 0.35279 0.0
C403 C 0.69321 0.57314 0.3272 0.0
C404 C 0.65718 0.5941 0.34261 0.0
C405 C 0.66036 0.5987 0.38237 0.0
C406 C 0.68385 0.56754 0.28477 0.0
C407 C 0.73685 0.5624 0.26298 0.0
C408 C 0.72663 0.55833 0.22021 0.0
C409 C 0.79302 0.5708 0.19643 0.0
C410 C 0.78531 0.56714 0.15628 0.0
C411 C 0.71098 0.55013 0.13906 0.0
H412 H 0.59969 0.53067 0.22024 0.0
C413 C 0.64456 0.53728 0.16282 0.0
C414 C 0.65217 0.54143 0.20286 0.0
H415 H 0.58651 0.52392 0.15046 0.0
H416 H 0.76401 0.54719 0.41211 0.0
H417 H 0.76001 0.53976 0.34206 0.0
H418 H 0.62606 0.60699 0.32376 0.0
H419 H 0.63142 0.61497 0.39302 0.0
H420 H 0.63289 0.57006 0.27048 0.0
H421 H 0.79156 0.56341 0.2763 0.0
H422 H 0.85112 0.58371 0.2089 0.0
H423 H 0.83767 0.5772 0.13879 0.0
C424 C 0.76671 0.54907 0.66854 0.0
C425 C 0.73681 0.56861 0.64143 0.0
C426 C 0.76013 0.55093 0.70847 0.0
C427 C 0.72296 0.57225 0.72239 0.0
C428 C 0.69102 0.5909 0.69524 0.0
C429 C 0.69845 0.58939 0.65523 0.0
C430 C 0.71572 0.57512 0.76486 0.0
C431 C 0.76972 0.57327 0.79137 0.0
C432 C 0.76697 0.57831 0.83359 0.0
C433 C 0.838 0.59277 0.85428 0.0
C434 C 0.83891 0.5977 0.89391 0.0
C435 C 0.76867 0.58748 0.91427 0.0
H436 H 0.64035 0.55589 0.83915 0.0
C437 C 0.69718 0.57219 0.89397 0.0
C438 C 0.69627 0.56791 0.85392 0.0
H439 H 0.64208 0.56391 0.90893 0.0
H440 H 0.79598 0.53252 0.65891 0.0
H441 H 0.78347 0.53527 0.72833 0.0
H442 H 0.6614 0.60725 0.70499 0.0
H443 H 0.67433 0.60456 0.63511 0.0
H444 H 0.66752 0.58143 0.77406 0.0
H445 H 0.82171 0.57051 0.78142 0.0
H446 H 0.89334 0.60071 0.8396 0.0
H447 H 0.89495 0.6093 0.90873 0.0
loop_
_geom_bond_atom_site_label_1
_geom_bond_atom_site_label_2
_geom_bond_distance
_geom_bond_site_symmetry_2
_ccdc_geom_bond_type
Nd0 C2 2.838 1_455 S
Nd0 O20 2.500 1_456 S
Nd0 O21 2.492 1_455 S
Nd0 O22 2.487 . S
Nd0 O23 2.682 1_545 S
Nd0 O24 2.410 1_455 S
Nd0 O29 2.414 1_456 S
Nd0 O31 2.424 . S
Nd1 C11 2.839 1_655 S
Nd1 O23 2.414 1_654 S
Nd1 O25 2.424 . S
Nd1 O26 2.500 1_654 S
Nd1 O27 2.492 1_655 S
Nd1 O28 2.487 . S
Nd1 O29 2.682 1_565 S
Nd1 O30 2.410 1_655 S
C2 Nd0 2.838 1_655 S
C2 C3 1.497 1_556 S
C2 O20 1.250 1_556 S
C2 O21 1.249 . S
C3 C2 1.497 1_554 S
C3 C4 1.366 . S
C3 C8 1.407 1_554 S
C4 C3 1.366 . S
C4 C5 1.392 . S
C4 H32 0.930 . S
C5 C4 1.392 . S
C5 C6 1.398 . S
C5 H33 0.929 . S
C6 C5 1.398 . S
C6 C7 1.352 1_554 S
C7 C6 1.352 1_556 S
C7 C8 1.384 . S
C7 H34 0.930 . S
C8 C3 1.407 1_556 S
C8 C7 1.384 . S
C8 H35 0.929 . S
C9 O22 1.242 . S
C9 O23 1.273 1_545 S
C10 O24 1.251 1_565 S
C10 O25 1.268 1_556 S
C11 Nd1 2.839 1_455 S
C11 C12 1.496 1_554 S
C11 O26 1.244 1_554 S
C11 O27 1.255 . S
C12 C11 1.496 1_556 S
C12 C13 1.366 . S
C12 C17 1.407 1_556 S
C13 C12 1.366 . S
C13 C14 1.392 . S
C13 H36 0.930 . S
C14 C13 1.392 . S
C14 C15 1.398 . S
C14 H37 0.929 . S
C15 C14 1.398 . S
C15 C16 1.352 1_556 S
C16 C15 1.352 1_554 S
C16 C17 1.384 . S
C16 H38 0.930 . S
C17 C12 1.407 1_554 S
C17 C16 1.384 . S
C17 H39 0.929 . S
C18 O28 1.241 . S
C18 O29 1.273 1_565 S
C19 O30 1.251 1_545 S
C19 O31 1.268 1_554 S
O20 Nd0 2.500 1_654 S
O20 C2 1.250 1_554 S
O21 Nd0 2.492 1_655 S
O21 C2 1.249 . S
O22 Nd0 2.487 . S
O22 C9 1.242 . S
O23 Nd0 2.682 1_565 S
O23 Nd1 2.414 1_456 S
O23 C9 1.273 1_565 S
O24 Nd0 2.410 1_655 S
O24 C10 1.251 1_545 S
O25 Nd1 2.424 . S
O25 C10 1.268 1_554 S
O26 Nd1 2.500 1_456 S
O26 C11 1.244 1_556 S
O27 Nd1 2.492 1_455 S
O27 C11 1.255 . S
O28 Nd1 2.487 . S
O28 C18 1.241 . S
O29 Nd0 2.414 1_654 S
O29 Nd1 2.682 1_545 S
O29 C18 1.273 1_545 S
O30 Nd1 2.410 1_455 S
O30 C19 1.251 1_565 S
O31 Nd0 2.424 . S
O31 C19 1.268 1_556 S
H32 C4 0.930 . S
H33 C5 0.929 . S
H34 C7 0.930 . S
H35 C8 0.929 . S
H36 C13 0.930 . S
H37 C14 0.929 . S
H38 C16 0.930 . S
H39 C17 0.929 . S
Nd40 C42 2.836 . S
Nd40 O60 2.500 . S
Nd40 O61 2.492 . S
Nd40 O62 2.487 . S
Nd40 O63 2.696 1_655 S
Nd40 O64 2.410 1_545 S
Nd40 O69 2.405 1_545 S
Nd40 O71 2.424 1_655 S
Nd41 C51 2.836 . S
Nd41 O63 2.400 1_565 S
Nd41 O65 2.424 1_455 S
Nd41 O66 2.500 . S
Nd41 O67 2.492 . S
Nd41 O68 2.487 . S
Nd41 O69 2.691 1_455 S
Nd41 O70 2.410 1_565 S
C42 Nd40 2.836 . S
C42 C43 1.498 1_545 S
C42 O60 1.258 . S
C42 O61 1.239 . S
C43 C42 1.498 1_565 S
C43 C44 1.366 . S
C43 C48 1.407 . S
C44 C43 1.366 . S
C44 C45 1.392 . S
C44 H72 0.930 . S
C45 C44 1.392 . S
C45 C46 1.398 . S
C45 H73 0.929 . S
C46 C45 1.398 . S
C46 C47 1.352 . S
C47 C46 1.352 . S
C47 C48 1.384 . S
C47 H74 0.930 . S
C48 C43 1.407 . S
C48 C47 1.384 . S
C48 H75 0.929 1_565 S
C49 O62 1.241 . S
C49 O63 1.280 1_655 S
C50 O64 1.251 . S
C50 O65 1.268 . S
C51 Nd41 2.836 . S
C51 C52 1.498 1_565 S
C51 O66 1.258 . S
C51 O67 1.239 . S
C52 C51 1.498 1_545 S
C52 C53 1.366 . S
C52 C57 1.407 . S
C53 C52 1.366 . S
C53 C54 1.392 . S
C53 H76 0.930 . S
C54 C53 1.392 . S
C54 C55 1.398 . S
C54 H77 0.929 . S
C55 C54 1.398 . S
C55 C56 1.352 . S
C56 C55 1.352 . S
C56 C57 1.384 . S
C56 H78 0.930 . S
C57 C52 1.407 . S
C57 C56 1.384 . S
C57 H79 0.929 1_545 S
C58 O68 1.241 . S
C58 O69 1.278 1_455 S
C59 O70 1.251 . S
C59 O71 1.268 . S
O60 Nd40 2.500 . S
O60 C42 1.258 . S
O61 Nd40 2.492 . S
O61 C42 1.239 . S
O62 Nd40 2.487 . S
O62 C49 1.241 . S
O63 Nd40 2.696 1_455 S
O63 Nd41 2.400 1_545 S
O63 C49 1.280 1_455 S
O64 Nd40 2.410 1_565 S
O64 C50 1.251 . S
O65 Nd41 2.424 1_655 S
O65 C50 1.268 . S
O66 Nd41 2.500 . S
O66 C51 1.258 . S
O67 Nd41 2.492 . S
O67 C51 1.239 . S
O68 Nd41 2.487 . S
O68 C58 1.241 . S
O69 Nd40 2.405 1_565 S
O69 Nd41 2.691 1_655 S
O69 C58 1.278 1_655 S
O70 Nd41 2.410 1_545 S
O70 C59 1.251 . S
O71 Nd40 2.424 1_455 S
O71 C59 1.268 . S
H72 C44 0.930 . S
H73 C45 0.929 . S
H74 C47 0.930 . S
H75 C48 0.929 1_545 S
H76 C53 0.930 . S
H77 C54 0.929 . S
H78 C56 0.930 . S
H79 C57 0.929 1_565 S
Nd80 C82 2.838 . S
Nd80 O100 2.500 1_556 S
Nd80 O101 2.492 . S
Nd80 O102 2.487 . S
Nd80 O103 2.682 . S
Nd80 O104 2.410 . S
Nd80 O109 2.414 1_556 S
Nd80 O111 2.424 . S
Nd81 C91 2.839 . S
Nd81 O103 2.414 1_554 S
Nd81 O105 2.424 . S
Nd81 O106 2.500 1_554 S
Nd81 O107 2.492 . S
Nd81 O108 2.487 . S
Nd81 O109 2.682 . S
Nd81 O110 2.410 . S
C82 Nd80 2.838 . S
C82 C83 1.497 1_556 S
C82 O100 1.250 1_556 S
C82 O101 1.249 . S
C83 C82 1.497 1_554 S
C83 C84 1.366 . S
C83 C88 1.407 1_554 S
C84 C83 1.366 . S
C84 C85 1.392 . S
C84 H112 0.930 . S
C85 C84 1.392 . S
C85 C86 1.398 . S
C85 H113 0.929 . S
C86 C85 1.398 . S
C86 C87 1.352 1_554 S
C87 C86 1.352 1_556 S
C87 C88 1.384 . S
C87 H114 0.930 . S
C88 C83 1.407 1_556 S
C88 C87 1.384 . S
C88 H115 0.929 . S
C89 O102 1.241 . S
C89 O103 1.273 . S
C90 O104 1.251 . S
C90 O105 1.268 1_556 S
C91 Nd81 2.839 . S
C91 C92 1.496 1_554 S
C91 O106 1.244 1_554 S
C91 O107 1.255 . S
C92 C91 1.496 1_556 S
C92 C93 1.366 . S
C92 C97 1.407 1_556 S
C93 C92 1.366 . S
C93 C94 1.392 . S
C93 H116 0.930 . S
C94 C93 1.392 . S
C94 C95 1.398 . S
C94 H117 0.929 . S
C95 C94 1.398 . S
C95 C96 1.352 1_556 S
C96 C95 1.352 1_554 S
C96 C97 1.384 . S
C96 H118 0.930 . S
C97 C92 1.407 1_554 S
C97 C96 1.384 . S
C97 H119 0.929 . S
C98 O108 1.241 . S
C98 O109 1.273 . S
C99 O110 1.251 . S
C99 O111 1.268 1_554 S
O100 Nd80 2.500 1_554 S
O100 C82 1.250 1_554 S
O101 Nd80 2.492 . S
O101 C82 1.249 . S
O102 Nd80 2.487 . S
O102 C89 1.241 . S
O103 Nd80 2.682 . S
O103 Nd81 2.414 1_556 S
O103 C89 1.273 . S
O104 Nd80 2.410 . S
O104 C90 1.251 . S
O105 Nd81 2.424 . S
O105 C90 1.268 1_554 S
O106 Nd81 2.500 1_556 S
O106 C91 1.244 1_556 S
O107 Nd81 2.492 . S
O107 C91 1.255 . S
O108 Nd81 2.487 . S
O108 C98 1.241 . S
O109 Nd80 2.414 1_554 S
O109 Nd81 2.682 . S
O109 C98 1.273 . S
O110 Nd81 2.410 . S
O110 C99 1.251 . S
O111 Nd80 2.424 . S
O111 C99 1.268 1_556 S
H112 C84 0.930 . S
H113 C85 0.929 . S
H114 C87 0.930 . S
H115 C88 0.929 . S
H116 C93 0.930 . S
H117 C94 0.929 . S
H118 C96 0.930 . S
H119 C97 0.929 . S
Nd120 C122 2.836 . S
Nd120 O140 2.500 . S
Nd120 O141 2.492 . S
Nd120 O142 2.487 . S
Nd120 O143 2.682 . S
Nd120 O144 2.410 . S
Nd120 O149 2.414 . S
Nd120 O151 2.424 . S
Nd121 C131 2.836 . S
Nd121 O143 2.414 . S
Nd121 O145 2.424 . S
Nd121 O146 2.500 . S
Nd121 O147 2.492 . S
Nd121 O148 2.487 . S
Nd121 O149 2.682 . S
Nd121 O150 2.410 . S
C122 Nd120 2.836 . S
C122 C123 1.498 . S
C122 O140 1.258 . S
C122 O141 1.239 . S
C123 C122 1.498 . S
C123 C124 1.366 . S
C123 C128 1.407 . S
C124 C123 1.366 . S
C124 C125 1.392 . S
C124 H152 0.930 . S
C125 C124 1.392 . S
C125 C126 1.398 . S
C125 H153 0.929 . S
C126 C125 1.398 . S
C126 C127 1.352 . S
C127 C126 1.352 . S
C127 C128 1.384 . S
C127 H154 0.930 . S
C128 C123 1.407 . S
C128 C127 1.384 . S
C128 H155 0.929 . S
C129 O142 1.241 . S
C129 O143 1.273 . S
C130 O144 1.251 . S
C130 O145 1.268 . S
C131 Nd121 2.836 . S
C131 C132 1.498 . S
C131 O146 1.258 . S
C131 O147 1.239 . S
C132 C131 1.498 . S
C132 C133 1.366 . S
C132 C137 1.407 . S
C133 C132 1.366 . S
C133 C134 1.392 . S
C133 H156 0.930 . S
C134 C133 1.392 . S
C134 C135 1.398 . S
C134 H157 0.929 . S
C135 C134 1.398 . S
C135 C136 1.352 . S
C136 C135 1.352 . S
C136 C137 1.384 . S
C136 H158 0.930 . S
C137 C132 1.407 . S
C137 C136 1.384 . S
C137 H159 0.929 . S
C138 O148 1.241 . S
C138 O149 1.273 . S
C139 O150 1.251 . S
C139 O151 1.268 . S
O140 Nd120 2.500 . S
O140 C122 1.258 . S
O141 Nd120 2.492 . S
O141 C122 1.239 . S
O142 Nd120 2.487 . S
O142 C129 1.241 . S
O143 Nd120 2.682 . S
O143 Nd121 2.414 . S
O143 C129 1.273 . S
O144 Nd120 2.410 . S
O144 C130 1.251 . S
O145 Nd121 2.424 . S
O145 C130 1.268 . S
O146 Nd121 2.500 . S
O146 C131 1.258 . S
O147 Nd121 2.492 . S
O147 C131 1.239 . S
O148 Nd121 2.487 . S
O148 C138 1.241 . S
O149 Nd120 2.414 . S
O149 Nd121 2.682 . S
O149 C138 1.273 . S
O150 Nd121 2.410 . S
O150 C139 1.251 . S
O151 Nd120 2.424 . S
O151 C139 1.268 . S
H152 C124 0.930 . S
H153 C125 0.929 . S
H154 C127 0.930 . S
H155 C128 0.929 . S
H156 C133 0.930 . S
H157 C134 0.929 . S
H158 C136 0.930 . S
H159 C137 0.929 . S
C160 C161 1.386 1_556 S
C160 C162 1.383 . S
C160 H176 0.951 . S
C161 C160 1.386 1_554 S
C161 C165 1.383 . S
C162 C160 1.383 . S
C162 C163 1.402 1_556 S
C162 H177 0.951 . S
C163 C162 1.402 1_554 S
C163 C164 1.375 . S
C163 C166 1.481 . S
C164 C163 1.375 . S
C164 C165 1.367 . S
C164 H178 0.951 . S
C165 C161 1.383 . S
C165 C164 1.367 . S
C165 H179 0.950 . S
C166 C163 1.481 . S
C166 C167 1.297 1_554 S
C166 H180 0.950 . S
C167 C166 1.297 1_556 S
C167 C168 1.479 . S
C167 H181 0.950 . S
C168 C167 1.479 . S
C168 C169 1.375 . S
C168 C174 1.404 1_556 S
C169 C168 1.375 . S
C169 C170 1.369 . S
C169 H182 0.950 . S
C170 C169 1.369 . S
C170 C171 1.392 . S
C170 H183 0.951 . S
C171 C170 1.392 . S
C171 C173 1.384 1_556 S
H172 C174 0.949 . S
C173 C171 1.384 1_554 S
C173 C174 1.385 . S
C173 H175 0.950 . S
C174 C168 1.404 1_554 S
C174 H172 0.949 . S
C174 C173 1.385 . S
H175 C173 0.950 . S
H176 C160 0.951 . S
H177 C162 0.951 . S
H178 C164 0.951 . S
H179 C165 0.950 . S
H180 C166 0.950 . S
H181 C167 0.950 . S
H182 C169 0.950 . S
H183 C170 0.951 . S
C184 C185 1.386 1_554 S
C184 C186 1.383 . S
C184 H200 0.951 . S
C185 C184 1.386 1_556 S
C185 C189 1.383 . S
C186 C184 1.383 . S
C186 C187 1.402 1_554 S
C186 H201 0.951 . S
C187 C186 1.402 1_556 S
C187 C188 1.375 . S
C187 C190 1.481 . S
C188 C187 1.375 . S
C188 C189 1.367 . S
C188 H202 0.951 . S
C189 C185 1.383 . S
C189 C188 1.367 . S
C189 H203 0.950 . S
C190 C187 1.481 . S
C190 C191 1.297 1_556 S
C190 H204 0.950 . S
C191 C190 1.297 1_554 S
C191 C192 1.479 . S
C191 H205 0.950 . S
C192 C191 1.479 . S
C192 C193 1.375 . S
C192 C198 1.404 1_554 S
C193 C192 1.375 . S
C193 C194 1.369 . S
C193 H206 0.950 . S
C194 C193 1.369 . S
C194 C195 1.392 . S
C194 H207 0.951 . S
C195 C194 1.392 . S
C195 C197 1.384 1_554 S
H196 C198 0.949 . S
C197 C195 1.384 1_556 S
C197 C198 1.385 . S
C197 H199 0.950 . S
C198 C192 1.404 1_556 S
C198 H196 0.949 . S
C198 C197 1.385 . S
H199 C197 0.950 . S
H200 C184 0.951 . S
H201 C186 0.951 . S
H202 C188 0.951 . S
H203 C189 0.950 . S
H204 C190 0.950 . S
H205 C191 0.950 . S
H206 C193 0.950 . S
H207 C194 0.951 . S
C208 C209 1.386 . S
C208 C210 1.383 . S
C208 H224 0.951 . S
C209 C208 1.386 . S
C209 C213 1.383 . S
C210 C208 1.383 . S
C210 C211 1.402 . S
C210 H225 0.951 . S
C211 C210 1.402 . S
C211 C212 1.375 . S
C211 C214 1.481 . S
C212 C211 1.375 . S
C212 C213 1.367 . S
C212 H226 0.951 . S
C213 C209 1.383 . S
C213 C212 1.367 . S
C213 H227 0.950 . S
C214 C211 1.481 . S
C214 C215 1.297 . S
C214 H228 0.950 . S
C215 C214 1.297 . S
C215 C216 1.479 . S
C215 H229 0.950 . S
C216 C215 1.479 . S
C216 C217 1.375 . S
C216 C222 1.404 . S
C217 C216 1.375 . S
C217 C218 1.369 . S
C217 H230 0.950 . S
C218 C217 1.369 . S
C218 C219 1.392 . S
C218 H231 0.951 . S
C219 C218 1.392 . S
C219 C221 1.384 . S
H220 C222 0.949 . S
C221 C219 1.384 . S
C221 C222 1.385 . S
C221 H223 0.950 . S
C222 C216 1.404 . S
C222 H220 0.949 . S
C222 C221 1.385 . S
H223 C221 0.950 . S
H224 C208 0.951 . S
H225 C210 0.951 . S
H226 C212 0.951 . S
H227 C213 0.950 . S
H228 C214 0.950 . S
H229 C215 0.950 . S
H230 C217 0.950 . S
H231 C218 0.951 . S
C232 C233 1.386 . S
C232 C234 1.383 . S
C232 H248 0.951 . S
C233 C232 1.386 . S
C233 C237 1.383 . S
C234 C232 1.383 . S
C234 C235 1.402 . S
C234 H249 0.951 . S
C235 C234 1.402 . S
C235 C236 1.375 . S
C235 C238 1.481 . S
C236 C235 1.375 . S
C236 C237 1.367 . S
C236 H250 0.951 . S
C237 C233 1.383 . S
C237 C236 1.367 . S
C237 H251 0.950 . S
C238 C235 1.481 . S
C238 C239 1.297 . S
C238 H252 0.950 . S
C239 C238 1.297 . S
C239 C240 1.479 . S
C239 H253 0.950 . S
C240 C239 1.479 . S
C240 C241 1.375 . S
C240 C246 1.404 . S
C241 C240 1.375 . S
C241 C242 1.369 . S
C241 H254 0.950 . S
C242 C241 1.369 . S
C242 C243 1.392 . S
C242 H255 0.951 . S
C243 C242 1.392 . S
C243 C245 1.384 . S
H244 C246 0.949 . S
C245 C243 1.384 . S
C245 C246 1.385 . S
C245 H247 0.950 . S
C246 C240 1.404 . S
C246 H244 0.949 . S
C246 C245 1.385 . S
H247 C245 0.950 . S
H248 C232 0.951 . S
H249 C234 0.951 . S
H250 C236 0.951 . S
H251 C237 0.950 . S
H252 C238 0.950 . S
H253 C239 0.950 . S
H254 C241 0.950 . S
H255 C242 0.951 . S
C256 C257 1.392 1_545 S
C256 C258 1.383 . S
C256 H272 0.951 . S
C257 C256 1.392 1_565 S
C257 C261 1.375 1_554 S
C258 C256 1.383 . S
C258 C259 1.405 1_545 S
C258 H273 0.951 . S
C259 C258 1.405 1_565 S
C259 C260 1.372 1_554 S
C259 C262 1.480 1_554 S
C260 C259 1.372 1_556 S
C260 C261 1.367 . S
C260 H274 0.951 . S
C261 C257 1.375 1_556 S
C261 C260 1.367 . S
C261 H275 0.950 . S
C262 C259 1.480 1_556 S
C262 C263 1.297 1_556 S
C262 H276 0.950 . S
C263 C262 1.297 1_554 S
C263 C264 1.479 . S
C263 H277 0.950 1_565 S
C264 C263 1.479 . S
C264 C265 1.375 1_565 S
C264 C270 1.404 1_554 S
C265 C264 1.375 1_545 S
C265 C266 1.369 . S
C265 H278 0.950 . S
C266 C265 1.369 . S
C266 C267 1.392 1_545 S
C266 H279 0.951 . S
C267 C266 1.392 1_565 S
C267 C269 1.384 1_554 S
H268 C270 0.949 . S
C269 C267 1.384 1_556 S
C269 C270 1.385 . S
C269 H271 0.950 . S
C270 C264 1.404 1_556 S
C270 H268 0.949 . S
C270 C269 1.385 . S
H271 C269 0.950 . S
H272 C256 0.951 . S
H273 C258 0.951 . S
H274 C260 0.951 . S
H275 C261 0.950 . S
H276 C262 0.950 . S
H277 C263 0.950 1_545 S
H278 C265 0.950 . S
H279 C266 0.951 . S
C280 C281 1.386 . S
C280 C282 1.383 . S
C280 H296 0.951 . S
C281 C280 1.386 . S
C281 C285 1.383 . S
C282 C280 1.383 . S
C282 C283 1.402 . S
C282 H297 0.951 1_545 S
C283 C282 1.402 . S
C283 C284 1.375 . S
C283 C286 1.481 . S
C284 C283 1.375 . S
C284 C285 1.367 . S
C284 H298 0.951 . S
C285 C281 1.383 . S
C285 C284 1.367 . S
C285 H299 0.950 . S
C286 C283 1.481 . S
C286 C287 1.297 1_545 S
C286 H300 0.950 . S
C287 C286 1.297 1_565 S
C287 C288 1.479 . S
C287 H301 0.950 . S
C288 C287 1.479 . S
C288 C289 1.375 . S
C288 C294 1.404 . S
C289 C288 1.375 . S
C289 C290 1.369 . S
C289 H302 0.950 . S
C290 C289 1.369 . S
C290 C291 1.392 . S
C290 H303 0.951 . S
C291 C290 1.392 . S
C291 C293 1.384 . S
H292 C294 0.949 . S
C293 C291 1.384 . S
C293 C294 1.385 . S
C293 H295 0.950 . S
C294 C288 1.404 . S
C294 H292 0.949 . S
C294 C293 1.385 . S
H295 C293 0.950 . S
H296 C280 0.951 . S
H297 C282 0.951 1_565 S
H298 C284 0.951 . S
H299 C285 0.950 . S
H300 C286 0.950 . S
H301 C287 0.950 . S
H302 C289 0.950 . S
H303 C290 0.951 . S
C304 C305 1.386 . S
C304 C306 1.383 . S
C304 H320 0.951 1_554 S
C305 C304 1.386 . S
C305 C309 1.383 . S
C306 C304 1.383 . S
C306 C307 1.402 . S
C306 H321 0.951 . S
C307 C306 1.402 . S
C307 C308 1.375 . S
C307 C310 1.481 . S
C308 C307 1.375 . S
C308 C309 1.367 . S
C308 H322 0.951 . S
C309 C305 1.383 . S
C309 C308 1.367 . S
C309 H323 0.950 . S
C310 C307 1.481 . S
C310 C311 1.297 1_655 S
C310 H324 0.950 . S
C311 C310 1.297 1_455 S
C311 C312 1.479 . S
C311 H325 0.950 . S
C312 C311 1.479 . S
C312 C313 1.375 . S
C312 C318 1.404 . S
C313 C312 1.375 . S
C313 C314 1.369 . S
C313 H326 0.950 . S
C314 C313 1.369 . S
C314 C315 1.392 . S
C314 H327 0.951 1_554 S
C315 C314 1.392 . S
C315 C317 1.384 . S
H316 C318 0.949 . S
C317 C315 1.384 . S
C317 C318 1.385 . S
C317 H319 0.950 . S
C318 C312 1.404 . S
C318 H316 0.949 . S
C318 C317 1.385 . S
H319 C317 0.950 . S
H320 C304 0.951 1_556 S
H321 C306 0.951 . S
H322 C308 0.951 . S
H323 C309 0.950 . S
H324 C310 0.950 . S
H325 C311 0.950 . S
H326 C313 0.950 . S
H327 C314 0.951 1_556 S
C328 C329 1.386 . S
C328 C330 1.383 . S
C328 H344 0.951 . S
C329 C328 1.386 . S
C329 C333 1.383 . S
C330 C328 1.383 . S
C330 C331 1.402 . S
C330 H345 0.951 . S
C331 C330 1.402 . S
C331 C332 1.375 . S
C331 C334 1.481 . S
C332 C331 1.375 . S
C332 C333 1.367 . S
C332 H346 0.951 . S
C333 C329 1.383 . S
C333 C332 1.367 . S
C333 H347 0.950 . S
C334 C331 1.481 . S
C334 C335 1.297 1_455 S
C334 H348 0.950 1_455 S
C335 C334 1.297 1_655 S
C335 C336 1.479 . S
C335 H349 0.950 . S
C336 C335 1.479 . S
C336 C337 1.375 . S
C336 C342 1.404 . S
C337 C336 1.375 . S
C337 C338 1.369 . S
C337 H350 0.950 . S
C338 C337 1.369 . S
C338 C339 1.392 . S
C338 H351 0.951 . S
C339 C338 1.392 . S
C339 C341 1.384 . S
H340 C342 0.949 . S
C341 C339 1.384 . S
C341 C342 1.385 . S
C341 H343 0.950 . S
C342 C336 1.404 . S
C342 H340 0.949 . S
C342 C341 1.385 . S
H343 C341 0.950 . S
H344 C328 0.951 . S
H345 C330 0.951 . S
H346 C332 0.951 . S
H347 C333 0.950 . S
H348 C334 0.950 1_655 S
H349 C335 0.950 . S
H350 C337 0.950 . S
H351 C338 0.951 . S
C352 C353 1.386 1_545 S
C352 C354 1.383 . S
C352 H368 0.951 . S
C353 C352 1.386 1_565 S
C353 C357 1.383 1_455 S
C354 C352 1.383 . S
C354 C355 1.402 1_545 S
C354 H369 0.951 . S
C355 C354 1.402 1_565 S
C355 C356 1.375 1_455 S
C355 C358 1.480 . S
C356 C355 1.375 1_655 S
C356 C357 1.367 . S
C356 H370 0.951 . S
C357 C353 1.383 1_655 S
C357 C356 1.367 . S
C357 H371 0.950 . S
C358 C355 1.480 . S
C358 C359 1.298 1_565 S
C358 H372 0.949 1_455 S
C359 C358 1.298 1_545 S
C359 C360 1.480 . S
C359 H373 0.950 . S
C360 C359 1.480 . S
C360 C361 1.382 . S
C360 C366 1.397 1_445 S
C361 C360 1.382 . S
C361 C362 1.369 . S
C361 H374 0.950 . S
C362 C361 1.369 . S
C362 C363 1.392 . S
C362 H375 0.951 . S
C363 C362 1.392 . S
C363 C365 1.384 1_445 S
H364 C366 0.949 . S
C365 C363 1.384 1_665 S
C365 C366 1.385 . S
C365 H367 0.950 . S
C366 C360 1.397 1_665 S
C366 H364 0.949 . S
C366 C365 1.385 . S
H367 C365 0.950 . S
H368 C352 0.951 . S
H369 C354 0.951 . S
H370 C356 0.951 . S
H371 C357 0.950 . S
H372 C358 0.949 1_655 S
H373 C359 0.950 . S
H374 C361 0.950 . S
H375 C362 0.951 . S
C376 C377 1.386 1_665 S
C376 C378 1.383 . S
C376 H392 0.951 . S
C377 C376 1.386 1_445 S
C377 C381 1.383 . S
C378 C376 1.383 . S
C378 C379 1.402 1_665 S
C378 H393 0.951 . S
C379 C378 1.402 1_445 S
C379 C380 1.375 . S
C379 C382 1.481 . S
C380 C379 1.375 . S
C380 C381 1.367 . S
C380 H394 0.951 . S
C381 C377 1.383 . S
C381 C380 1.367 . S
C381 H395 0.950 . S
C382 C379 1.481 . S
C382 C383 1.297 1_455 S
C382 H396 0.950 . S
C383 C382 1.297 1_655 S
C383 C384 1.479 . S
C383 H397 0.950 1_545 S
C384 C383 1.479 . S
C384 C385 1.375 1_545 S
C384 C390 1.404 1_655 S
C385 C384 1.375 1_565 S
C385 C386 1.369 . S
C385 H398 0.950 . S
C386 C385 1.369 . S
C386 C387 1.392 1_565 S
C386 H399 0.951 . S
C387 C386 1.392 1_545 S
C387 C389 1.384 1_655 S
H388 C390 0.949 . S
C389 C387 1.384 1_455 S
C389 C390 1.385 . S
C389 H391 0.950 . S
C390 C384 1.404 1_455 S
C390 H388 0.949 . S
C390 C389 1.385 . S
H391 C389 0.950 . S
H392 C376 0.951 . S
H393 C378 0.951 . S
H394 C380 0.951 . S
H395 C381 0.950 . S
H396 C382 0.950 . S
H397 C383 0.950 1_565 S
H398 C385 0.950 . S
H399 C386 0.951 . S
C400 C401 1.386 . S
C400 C402 1.383 . S
C400 H416 0.951 . S
C401 C400 1.386 . S
C401 C405 1.383 . S
C402 C400 1.383 . S
C402 C403 1.402 . S
C402 H417 0.951 . S
C403 C402 1.402 . S
C403 C404 1.375 . S
C403 C406 1.481 . S
C404 C403 1.375 . S
C404 C405 1.367 . S
C404 H418 0.951 . S
C405 C401 1.383 . S
C405 C404 1.367 . S
C405 H419 0.950 . S
C406 C403 1.481 . S
C406 C407 1.297 . S
C406 H420 0.950 . S
C407 C406 1.297 . S
C407 C408 1.479 . S
C407 H421 0.950 . S
C408 C407 1.479 . S
C408 C409 1.375 . S
C408 C414 1.404 . S
C409 C408 1.375 . S
C409 C410 1.369 . S
C409 H422 0.950 . S
C410 C409 1.369 . S
C410 C411 1.392 . S
C410 H423 0.951 . S
C411 C410 1.392 . S
C411 C413 1.384 . S
H412 C414 0.949 . S
C413 C411 1.384 . S
C413 C414 1.385 . S
C413 H415 0.950 . S
C414 C408 1.404 . S
C414 H412 0.949 . S
C414 C413 1.385 . S
H415 C413 0.950 . S
H416 C400 0.951 . S
H417 C402 0.951 . S
H418 C404 0.951 . S
H419 C405 0.950 . S
H420 C406 0.950 . S
H421 C407 0.950 . S
H422 C409 0.950 . S
H423 C410 0.951 . S
C424 C425 1.386 . S
C424 C426 1.383 . S
C424 H440 0.951 . S
C425 C424 1.386 . S
C425 C429 1.383 . S
C426 C424 1.383 . S
C426 C427 1.402 . S
C426 H441 0.951 . S
C427 C426 1.402 . S
C427 C428 1.375 . S
C427 C430 1.481 . S
C428 C427 1.375 . S
C428 C429 1.367 . S
C428 H442 0.951 . S
C429 C425 1.383 . S
C429 C428 1.367 . S
C429 H443 0.950 . S
C430 C427 1.481 . S
C430 C431 1.297 . S
C430 H444 0.950 . S
C431 C430 1.297 . S
C431 C432 1.479 . S
C431 H445 0.950 . S
C432 C431 1.479 . S
C432 C433 1.375 . S
C432 C438 1.404 . S
C433 C432 1.375 . S
C433 C434 1.369 . S
C433 H446 0.950 . S
C434 C433 1.369 . S
C434 C435 1.392 . S
C434 H447 0.951 . S
C435 C434 1.392 . S
C435 C437 1.384 . S
H436 C438 0.949 . S
C437 C435 1.384 . S
C437 C438 1.385 . S
C437 H439 0.950 . S
C438 C432 1.404 . S
C438 H436 0.949 . S
C438 C437 1.385 . S
H439 C437 0.950 . S
H440 C424 0.951 . S
H441 C426 0.951 . S
H442 C428 0.951 . S
H443 C429 0.950 . S
H444 C430 0.950 . S
H445 C431 0.950 . S
H446 C433 0.950 . S
H447 C434 0.951 . S
C161 C86 0.192 . S
C171 C15 0.204 . S
C185 C95 0.183 . S
C195 C6 0.225 . S
C209 C59 3.529 . S
C219 C130 3.495 . S
C233 C50 3.516 . S
C243 C139 3.524 . S
C257 C19 4.881 1_565 S
C267 C10 4.868 1_554 S
C281 C55 0.889 . S
C291 C46 1.017 . S
C305 C99 4.877 . S
C315 C90 4.870 1_554 S
C329 C126 0.952 . S
C339 C135 0.842 . S
C353 C49 1.469 1_465 S
C363 C18 1.420 1_445 S
C377 C9 1.423 . S
C387 C58 1.487 1_645 S
C401 C129 1.451 . S
C411 C98 1.395 . S
C425 C138 1.466 . S
C435 C89 1.418 . S
