# Generated by pormake.
# Topology som, (6)-cn, num edge types: 1
# Building blocks:
#     Node 0, Type 0, BuildingBlock: BETDIP_clean_sbu_0, # of connection points: 6
#     Node 1, Type 0, BuildingBlock: BETDIP_clean_sbu_0, # of connection points: 6
#     Node 2, Type 0, BuildingBlock: BETDIP_clean_sbu_0, # of connection points: 6
#     Node 3, Type 0, BuildingBlock: BETDIP_clean_sbu_0, # of connection points: 6
#     Node 4, Type 0, BuildingBlock: BETDIP_clean_sbu_0, # of connection points: 6
#     Node 5, Type 0, BuildingBlock: BETDIP_clean_sbu_0, # of connection points: 6
#     Node 6, Type 0, BuildingBlock: BETDIP_clean_sbu_0, # of connection points: 6
#     Node 7, Type 0, BuildingBlock: BETDIP_clean_sbu_0, # of connection points: 6
#     Node 8, Type 0, BuildingBlock: BETDIP_clean_sbu_0, # of connection points: 6
#     Node 9, Type 0, BuildingBlock: BETDIP_clean_sbu_0, # of connection points: 6
#     Node 10, Type 0, BuildingBlock: BETDIP_clean_sbu_0, # of connection points: 6
#     Node 11, Type 0, BuildingBlock: BETDIP_clean_sbu_0, # of connection points: 6
#     Node 12, Type 0, BuildingBlock: BETDIP_clean_sbu_0, # of connection points: 6
#     Node 13, Type 0, BuildingBlock: BETDIP_clean_sbu_0, # of connection points: 6
#     Node 14, Type 0, BuildingBlock: BETDIP_clean_sbu_0, # of connection points: 6
#     Node 15, Type 0, BuildingBlock: BETDIP_clean_sbu_0, # of connection points: 6
#     Node 16, Type 0, BuildingBlock: BETDIP_clean_sbu_0, # of connection points: 6
#     Node 17, Type 0, BuildingBlock: BETDIP_clean_sbu_0, # of connection points: 6
#     Node 18, Type 0, BuildingBlock: BETDIP_clean_sbu_0, # of connection points: 6
#     Node 19, Type 0, BuildingBlock: BETDIP_clean_sbu_0, # of connection points: 6
#     Node 20, Type 0, BuildingBlock: BETDIP_clean_sbu_0, # of connection points: 6
#     Node 21, Type 0, BuildingBlock: BETDIP_clean_sbu_0, # of connection points: 6
#     Node 22, Type 0, BuildingBlock: BETDIP_clean_sbu_0, # of connection points: 6
#     Node 23, Type 0, BuildingBlock: BETDIP_clean_sbu_0, # of connection points: 6
#     Node 24, Type 0, BuildingBlock: BETDIP_clean_sbu_0, # of connection points: 6
#     Node 25, Type 0, BuildingBlock: BETDIP_clean_sbu_0, # of connection points: 6
#     Node 26, Type 0, BuildingBlock: BETDIP_clean_sbu_0, # of connection points: 6
#     Node 27, Type 0, BuildingBlock: BETDIP_clean_sbu_0, # of connection points: 6
#     Node 28, Type 0, BuildingBlock: BETDIP_clean_sbu_0, # of connection points: 6
#     Node 29, Type 0, BuildingBlock: BETDIP_clean_sbu_0, # of connection points: 6
#     Node 30, Type 0, BuildingBlock: BETDIP_clean_sbu_0, # of connection points: 6
#     Node 31, Type 0, BuildingBlock: BETDIP_clean_sbu_0, # of connection points: 6
#     Edge 32, Type (0, 0), BuildingBlock: OJICUG_clean_linker_0, # of connection points: 2
#     Edge 33, Type (0, 0), BuildingBlock: OJICUG_clean_linker_0, # of connection points: 2
#     Edge 34, Type (0, 0), BuildingBlock: OJICUG_clean_linker_0, # of connection points: 2
#     Edge 35, Type (0, 0), BuildingBlock: OJICUG_clean_linker_0, # of connection points: 2
#     Edge 36, Type (0, 0), BuildingBlock: OJICUG_clean_linker_0, # of connection points: 2
#     Edge 37, Type (0, 0), BuildingBlock: OJICUG_clean_linker_0, # of connection points: 2
#     Edge 38, Type (0, 0), BuildingBlock: OJICUG_clean_linker_0, # of connection points: 2
#     Edge 39, Type (0, 0), BuildingBlock: OJICUG_clean_linker_0, # of connection points: 2
#     Edge 40, Type (0, 0), BuildingBlock: OJICUG_clean_linker_0, # of connection points: 2
#     Edge 41, Type (0, 0), BuildingBlock: OJICUG_clean_linker_0, # of connection points: 2
#     Edge 42, Type (0, 0), BuildingBlock: OJICUG_clean_linker_0, # of connection points: 2
#     Edge 43, Type (0, 0), BuildingBlock: OJICUG_clean_linker_0, # of connection points: 2
#     Edge 44, Type (0, 0), BuildingBlock: OJICUG_clean_linker_0, # of connection points: 2
#     Edge 45, Type (0, 0), BuildingBlock: OJICUG_clean_linker_0, # of connection points: 2
#     Edge 46, Type (0, 0), BuildingBlock: OJICUG_clean_linker_0, # of connection points: 2
#     Edge 47, Type (0, 0), BuildingBlock: OJICUG_clean_linker_0, # of connection points: 2
#     Edge 48, Type (0, 0), BuildingBlock: OJICUG_clean_linker_0, # of connection points: 2
#     Edge 49, Type (0, 0), BuildingBlock: OJICUG_clean_linker_0, # of connection points: 2
#     Edge 50, Type (0, 0), BuildingBlock: OJICUG_clean_linker_0, # of connection points: 2
#     Edge 51, Type (0, 0), BuildingBlock: OJICUG_clean_linker_0, # of connection points: 2
#     Edge 52, Type (0, 0), BuildingBlock: OJICUG_clean_linker_0, # of connection points: 2
#     Edge 53, Type (0, 0), BuildingBlock: OJICUG_clean_linker_0, # of connection points: 2
#     Edge 54, Type (0, 0), BuildingBlock: OJICUG_clean_linker_0, # of connection points: 2
#     Edge 55, Type (0, 0), BuildingBlock: OJICUG_clean_linker_0, # of connection points: 2
#     Edge 56, Type (0, 0), BuildingBlock: OJICUG_clean_linker_0, # of connection points: 2
#     Edge 57, Type (0, 0), BuildingBlock: OJICUG_clean_linker_0, # of connection points: 2
#     Edge 58, Type (0, 0), BuildingBlock: OJICUG_clean_linker_0, # of connection points: 2
#     Edge 59, Type (0, 0), BuildingBlock: OJICUG_clean_linker_0, # of connection points: 2
#     Edge 60, Type (0, 0), BuildingBlock: OJICUG_clean_linker_0, # of connection points: 2
#     Edge 61, Type (0, 0), BuildingBlock: OJICUG_clean_linker_0, # of connection points: 2
#     Edge 62, Type (0, 0), BuildingBlock: OJICUG_clean_linker_0, # of connection points: 2
#     Edge 63, Type (0, 0), BuildingBlock: OJICUG_clean_linker_0, # of connection points: 2
#     Edge 64, Type (0, 0), BuildingBlock: OJICUG_clean_linker_0, # of connection points: 2
#     Edge 65, Type (0, 0), BuildingBlock: OJICUG_clean_linker_0, # of connection points: 2
#     Edge 66, Type (0, 0), BuildingBlock: OJICUG_clean_linker_0, # of connection points: 2
#     Edge 67, Type (0, 0), BuildingBlock: OJICUG_clean_linker_0, # of connection points: 2
#     Edge 68, Type (0, 0), BuildingBlock: OJICUG_clean_linker_0, # of connection points: 2
#     Edge 69, Type (0, 0), BuildingBlock: OJICUG_clean_linker_0, # of connection points: 2
#     Edge 70, Type (0, 0), BuildingBlock: OJICUG_clean_linker_0, # of connection points: 2
#     Edge 71, Type (0, 0), BuildingBlock: OJICUG_clean_linker_0, # of connection points: 2
#     Edge 72, Type (0, 0), BuildingBlock: OJICUG_clean_linker_0, # of connection points: 2
#     Edge 73, Type (0, 0), BuildingBlock: OJICUG_clean_linker_0, # of connection points: 2
#     Edge 74, Type (0, 0), BuildingBlock: OJICUG_clean_linker_0, # of connection points: 2
#     Edge 75, Type (0, 0), BuildingBlock: OJICUG_clean_linker_0, # of connection points: 2
#     Edge 76, Type (0, 0), BuildingBlock: OJICUG_clean_linker_0, # of connection points: 2
#     Edge 77, Type (0, 0), BuildingBlock: OJICUG_clean_linker_0, # of connection points: 2
#     Edge 78, Type (0, 0), BuildingBlock: OJICUG_clean_linker_0, # of connection points: 2
#     Edge 79, Type (0, 0), BuildingBlock: OJICUG_clean_linker_0, # of connection points: 2
#     Edge 80, Type (0, 0), BuildingBlock: OJICUG_clean_linker_0, # of connection points: 2
#     Edge 81, Type (0, 0), BuildingBlock: OJICUG_clean_linker_0, # of connection points: 2
#     Edge 82, Type (0, 0), BuildingBlock: OJICUG_clean_linker_0, # of connection points: 2
#     Edge 83, Type (0, 0), BuildingBlock: OJICUG_clean_linker_0, # of connection points: 2
#     Edge 84, Type (0, 0), BuildingBlock: OJICUG_clean_linker_0, # of connection points: 2
#     Edge 85, Type (0, 0), BuildingBlock: OJICUG_clean_linker_0, # of connection points: 2
#     Edge 86, Type (0, 0), BuildingBlock: OJICUG_clean_linker_0, # of connection points: 2
#     Edge 87, Type (0, 0), BuildingBlock: OJICUG_clean_linker_0, # of connection points: 2
#     Edge 88, Type (0, 0), BuildingBlock: OJICUG_clean_linker_0, # of connection points: 2
#     Edge 89, Type (0, 0), BuildingBlock: OJICUG_clean_linker_0, # of connection points: 2
#     Edge 90, Type (0, 0), BuildingBlock: OJICUG_clean_linker_0, # of connection points: 2
#     Edge 91, Type (0, 0), BuildingBlock: OJICUG_clean_linker_0, # of connection points: 2
#     Edge 92, Type (0, 0), BuildingBlock: OJICUG_clean_linker_0, # of connection points: 2
#     Edge 93, Type (0, 0), BuildingBlock: OJICUG_clean_linker_0, # of connection points: 2
#     Edge 94, Type (0, 0), BuildingBlock: OJICUG_clean_linker_0, # of connection points: 2
#     Edge 95, Type (0, 0), BuildingBlock: OJICUG_clean_linker_0, # of connection points: 2
#     Edge 96, Type (0, 0), BuildingBlock: OJICUG_clean_linker_0, # of connection points: 2
#     Edge 97, Type (0, 0), BuildingBlock: OJICUG_clean_linker_0, # of connection points: 2
#     Edge 98, Type (0, 0), BuildingBlock: OJICUG_clean_linker_0, # of connection points: 2
#     Edge 99, Type (0, 0), BuildingBlock: OJICUG_clean_linker_0, # of connection points: 2
#     Edge 100, Type (0, 0), BuildingBlock: OJICUG_clean_linker_0, # of connection points: 2
#     Edge 101, Type (0, 0), BuildingBlock: OJICUG_clean_linker_0, # of connection points: 2
#     Edge 102, Type (0, 0), BuildingBlock: OJICUG_clean_linker_0, # of connection points: 2
#     Edge 103, Type (0, 0), BuildingBlock: OJICUG_clean_linker_0, # of connection points: 2
#     Edge 104, Type (0, 0), BuildingBlock: OJICUG_clean_linker_0, # of connection points: 2
#     Edge 105, Type (0, 0), BuildingBlock: OJICUG_clean_linker_0, # of connection points: 2
#     Edge 106, Type (0, 0), BuildingBlock: OJICUG_clean_linker_0, # of connection points: 2
#     Edge 107, Type (0, 0), BuildingBlock: OJICUG_clean_linker_0, # of connection points: 2
#     Edge 108, Type (0, 0), BuildingBlock: OJICUG_clean_linker_0, # of connection points: 2
#     Edge 109, Type (0, 0), BuildingBlock: OJICUG_clean_linker_0, # of connection points: 2
#     Edge 110, Type (0, 0), BuildingBlock: OJICUG_clean_linker_0, # of connection points: 2
#     Edge 111, Type (0, 0), BuildingBlock: OJICUG_clean_linker_0, # of connection points: 2
#     Edge 112, Type (0, 0), BuildingBlock: OJICUG_clean_linker_0, # of connection points: 2
#     Edge 113, Type (0, 0), BuildingBlock: OJICUG_clean_linker_0, # of connection points: 2
#     Edge 114, Type (0, 0), BuildingBlock: OJICUG_clean_linker_0, # of connection points: 2
#     Edge 115, Type (0, 0), BuildingBlock: OJICUG_clean_linker_0, # of connection points: 2
#     Edge 116, Type (0, 0), BuildingBlock: OJICUG_clean_linker_0, # of connection points: 2
#     Edge 117, Type (0, 0), BuildingBlock: OJICUG_clean_linker_0, # of connection points: 2
#     Edge 118, Type (0, 0), BuildingBlock: OJICUG_clean_linker_0, # of connection points: 2
#     Edge 119, Type (0, 0), BuildingBlock: OJICUG_clean_linker_0, # of connection points: 2
#     Edge 120, Type (0, 0), BuildingBlock: OJICUG_clean_linker_0, # of connection points: 2
#     Edge 121, Type (0, 0), BuildingBlock: OJICUG_clean_linker_0, # of connection points: 2
#     Edge 122, Type (0, 0), BuildingBlock: OJICUG_clean_linker_0, # of connection points: 2
#     Edge 123, Type (0, 0), BuildingBlock: OJICUG_clean_linker_0, # of connection points: 2
#     Edge 124, Type (0, 0), BuildingBlock: OJICUG_clean_linker_0, # of connection points: 2
#     Edge 125, Type (0, 0), BuildingBlock: OJICUG_clean_linker_0, # of connection points: 2
#     Edge 126, Type (0, 0), BuildingBlock: OJICUG_clean_linker_0, # of connection points: 2
#     Edge 127, Type (0, 0), BuildingBlock: OJICUG_clean_linker_0, # of connection points: 2
# Relax obj value: 0.064
# Max RMSD: 0.136
# Mean RMSD: 0.136
data_MOF--net-som--node1-BETDIP_clean_sbu_0--edge1-OJICUG_clean_linker_0
_symmetry_space_group_name_H-M    P1
_symmetry_Int_Tables_number       1
_symmetry_cell_setting            triclinic
loop_
_symmetry_equiv_pos_as_xyz
'x, y, z'
_cell_length_a     21.192963
_cell_length_b     39.601294
_cell_length_c     76.096003
_cell_angle_alpha  89.932485
_cell_angle_beta   89.946154
_cell_angle_gamma 89.960192
loop_
_atom_site_label
_atom_site_type_symbol
_atom_site_fract_x
_atom_site_fract_y
_atom_site_fract_z
_atom_type_partial_charge
Tb0 Tb 0.99362 0.49765 0.10755 0.0
Tb1 Tb 0.11324 0.46003 0.102 0.0
C2 C 0.88377 0.52218 0.1079 0.0
C3 C 0.81709 0.51167 0.1087 0.0
C4 C 0.79586 0.48169 0.10086 0.0
C5 C 0.7316 0.47336 0.10119 0.0
C6 C 0.68743 0.4949 0.10934 0.0
C7 C 0.70936 0.52458 0.11742 0.0
C8 C 0.77346 0.53283 0.11709 0.0
C9 C 0.07015 0.49362 0.13516 0.0
C10 C 0.99068 0.41784 0.10835 0.0
C11 C 0.22366 0.43615 0.10307 0.0
C12 C 0.29026 0.44642 0.10436 0.0
C13 C 0.30893 0.47602 0.11305 0.0
C14 C 0.37313 0.48432 0.1143 0.0
C15 C 0.41958 0.46312 0.10691 0.0
C16 C 0.40017 0.4337 0.09811 0.0
C17 C 0.33627 0.42547 0.09687 0.0
C18 C 0.04412 0.46547 0.0732 0.0
C19 C 0.10817 0.54121 0.09952 0.0
O20 O 0.91501 0.5151 0.09352 0.0
O21 O 0.91744 0.51713 0.12205 0.0
O22 O 0.0577 0.47059 0.12432 0.0
O23 O 1.03723 0.52003 0.13107 0.0
O24 O 0.95924 0.44617 0.10596 0.0
O25 O 0.05314 0.41729 0.10917 0.0
O26 O 0.18813 0.44061 0.11692 0.0
O27 O 0.19439 0.4439 0.08852 0.0
O28 O 0.05196 0.48793 0.08483 0.0
O29 O 0.07532 0.43882 0.0779 0.0
O30 O 0.14298 0.51395 0.10297 0.0
O31 O 0.04674 0.5392 0.09766 0.0
H32 H 0.82872 0.46499 0.09426 0.0
H33 H 0.71636 0.45045 0.0947 0.0
H34 H 0.67697 0.54145 0.12407 0.0
H35 H 0.78896 0.55603 0.12327 0.0
H36 H 0.27406 0.49254 0.11894 0.0
H37 H 0.38642 0.50704 0.12128 0.0
H38 H 0.43436 0.41712 0.09198 0.0
H39 H 0.32273 0.40257 0.09007 0.0
Tb40 Tb 0.3337 0.71654 0.10603 0.0
Tb41 Tb 0.2054 0.75564 0.10568 0.0
C42 C 0.44468 0.69499 0.10241 0.0
C43 C 0.5094 0.70868 0.10164 0.0
C44 C 0.55477 0.69245 0.09122 0.0
C45 C 0.61757 0.70336 0.0913 0.0
C46 C 0.63632 0.73082 0.10181 0.0
C47 C 0.59019 0.74757 0.1119 0.0
C48 C 0.52746 0.73654 0.11187 0.0
C49 C 0.2665 0.7189 0.13558 0.0
C50 C 0.33384 0.79658 0.10851 0.0
C51 C 0.10091 0.77763 0.11643 0.0
C52 C 1.03364 0.77436 0.11198 0.0
C53 C 0.98952 0.7952 0.12037 0.0
C54 C 0.92486 0.7902 0.1178 0.0
C55 C 0.90304 0.76414 0.10681 0.0
C56 C 0.94768 0.74396 0.09797 0.0
C57 C 1.01244 0.74899 0.10056 0.0
C58 C 0.2435 0.74528 0.07296 0.0
C59 C 0.21493 0.67511 0.09902 0.0
O60 O 0.40744 0.70185 0.08913 0.0
O61 O 0.41572 0.6974 0.11757 0.0
O62 O 0.27437 0.7422 0.12454 0.0
O63 O 0.29835 0.69276 0.13037 0.0
O64 O 0.36531 0.76842 0.10545 0.0
O65 O 0.27151 0.79731 0.11068 0.0
O66 O 0.12776 0.75004 0.1223 0.0
O67 O 0.13682 0.79409 0.10528 0.0
O68 O 0.27041 0.73664 0.08706 0.0
O69 O 0.19238 0.76126 0.07722 0.0
O70 O 0.1804 0.70126 0.10457 0.0
O71 O 0.27569 0.67745 0.09567 0.0
H72 H 0.5419 0.67078 0.08333 0.0
H73 H 0.65178 0.68956 0.08354 0.0
H74 H 0.60262 0.7691 0.11995 0.0
H75 H 0.49332 0.74939 0.12008 0.0
H76 H 1.00506 0.81486 0.12925 0.0
H77 H 0.89189 0.80652 0.1246 0.0
H78 H 0.93261 0.72346 0.08955 0.0
H79 H 0.04589 0.73249 0.09405 0.0
Tb80 Tb 0.99098 0.71335 0.21558 0.0
Tb81 Tb 0.11046 0.75251 0.21981 0.0
C82 C 0.88161 0.68833 0.21707 0.0
C83 C 0.81471 0.69879 0.21679 0.0
C84 C 0.77007 0.67895 0.22564 0.0
C85 C 0.7059 0.68716 0.22499 0.0
C86 C 0.68488 0.71552 0.21548 0.0
C87 C 0.73 0.73569 0.20681 0.0
C88 C 0.7943 0.72733 0.2074 0.0
C89 C 0.06361 0.71803 0.18718 0.0
C90 C 0.98547 0.79339 0.21468 0.0
C91 C 0.22087 0.77617 0.21752 0.0
C92 C 0.28682 0.7647 0.2155 0.0
C93 C 0.32969 0.7853 0.20643 0.0
C94 C 0.39366 0.77668 0.20556 0.0
C95 C 0.41632 0.74723 0.2138 0.0
C96 C 0.37271 0.7261 0.22248 0.0
C97 C 0.30861 0.73474 0.2233 0.0
C98 C 0.04536 0.74596 0.24927 0.0
C99 C 0.10903 0.67129 0.22192 0.0
O100 O 0.91447 0.69674 0.23095 0.0
O101 O 0.91363 0.69217 0.20249 0.0
O102 O 0.05206 0.74094 0.19821 0.0
O103 O 1.03119 0.69154 0.19144 0.0
O104 O 0.95521 0.76468 0.21707 0.0
O105 O 0.04786 0.79467 0.21345 0.0
O106 O 0.18344 0.77221 0.20404 0.0
O107 O 0.19285 0.76892 0.23235 0.0
O108 O 0.05256 0.72373 0.23749 0.0
O109 O 0.07536 0.77293 0.24444 0.0
O110 O 0.1418 0.69909 0.21824 0.0
O111 O 0.04777 0.67223 0.22453 0.0
H112 H 0.78482 0.65682 0.23296 0.0
H113 H 0.67274 0.67137 0.23205 0.0
H114 H 0.7155 0.75753 0.19924 0.0
H115 H 0.82789 0.74285 0.20034 0.0
H116 H 0.31384 0.80848 0.20026 0.0
H117 H 0.42543 0.79323 0.19847 0.0
H118 H 0.38832 0.70338 0.22911 0.0
H119 H 0.27641 0.71842 0.23039 0.0
Tb120 Tb 0.34569 0.49798 0.21465 0.0
Tb121 Tb 0.22575 0.45911 0.21808 0.0
C122 C 0.45494 0.52293 0.21673 0.0
C123 C 0.52184 0.51257 0.21662 0.0
C124 C 0.56602 0.53245 0.22557 0.0
C125 C 0.63022 0.52433 0.2251 0.0
C126 C 0.65178 0.496 0.21567 0.0
C127 C 0.6071 0.47588 0.20682 0.0
C128 C 0.54275 0.48412 0.20727 0.0
C129 C 0.27605 0.49315 0.18573 0.0
C130 C 0.35075 0.41801 0.21378 0.0
C131 C 0.11564 0.43549 0.2148 0.0
C132 C 0.04963 0.44712 0.21354 0.0
C133 C 1.00568 0.42709 0.20458 0.0
C134 C 0.9418 0.43602 0.20428 0.0
C135 C 0.92047 0.46521 0.213 0.0
C136 C 0.96506 0.48571 0.22162 0.0
C137 C 1.02907 0.47678 0.22187 0.0
C138 C 0.28778 0.46558 0.24802 0.0
C139 C 0.22742 0.54033 0.22062 0.0
O140 O 0.42137 0.51407 0.23042 0.0
O141 O 0.42378 0.5195 0.20201 0.0
O142 O 0.28647 0.47029 0.19688 0.0
O143 O 0.30766 0.51973 0.19025 0.0
O144 O 0.381 0.44659 0.21649 0.0
O145 O 0.28856 0.41696 0.21195 0.0
O146 O 0.15264 0.44238 0.20153 0.0
O147 O 0.14388 0.43989 0.22987 0.0
O148 O 0.28197 0.48782 0.23616 0.0
O149 O 0.25803 0.43868 0.24302 0.0
O150 O 0.19447 0.5126 0.21695 0.0
O151 O 0.28866 0.53928 0.22322 0.0
H152 H 0.5509 0.55465 0.23275 0.0
H153 H 0.66312 0.54072 0.23184 0.0
H154 H 0.62178 0.45366 0.19961 0.0
H155 H 0.50946 0.46849 0.2002 0.0
H156 H 1.02058 0.40405 0.19812 0.0
H157 H 0.90884 0.41946 0.19767 0.0
H158 H 0.95046 0.50862 0.22824 0.0
H159 H 0.06224 0.4927 0.22882 0.0
Tb160 Tb 0.96357 0.50274 0.96903 0.0
Tb161 Tb 0.08396 0.46434 0.9654 0.0
C162 C 0.85325 0.52615 0.96592 0.0
C163 C 0.78747 0.51445 0.9644 0.0
C164 C 0.74351 0.53491 0.95568 0.0
C165 C 0.67973 0.52592 0.9552 0.0
C166 C 0.65856 0.49624 0.96349 0.0
C167 C 0.70319 0.47528 0.97184 0.0
C168 C 0.7671 0.48428 0.97227 0.0
C169 C 1.02634 0.49672 0.99885 0.0
C170 C 0.96693 0.42163 0.97157 0.0
C171 C 0.19329 0.43934 0.96711 0.0
C172 C 0.26018 0.44951 0.96696 0.0
C173 C 0.30441 0.429 0.97553 0.0
C174 C 0.36863 0.43697 0.97504 0.0
C175 C 0.39008 0.46577 0.96597 0.0
C176 C 0.34536 0.48649 0.95749 0.0
C177 C 0.28098 0.47841 0.95796 0.0
C178 C 1.01328 0.46897 0.93663 0.0
C179 C 0.08771 0.54415 0.96439 0.0
O180 O 0.89053 0.5201 0.95262 0.0
O181 O 0.88123 0.52095 0.98098 0.0
O182 O 1.02089 0.47435 0.98707 0.0
O183 O 0.99593 0.52345 0.99386 0.0
O184 O 0.93339 0.44911 0.96774 0.0
O185 O 1.02795 0.42312 0.97437 0.0
O186 O 0.16011 0.4479 0.98092 0.0
O187 O 0.16185 0.44328 0.95246 0.0
O188 O 1.02397 0.49179 0.94774 0.0
O189 O 0.04513 0.44242 0.94113 0.0
O190 O 0.11836 0.51574 0.96731 0.0
O191 O 1.02555 0.54497 0.96256 0.0
H192 H 0.75831 0.55834 0.94957 0.0
H193 H 0.64671 0.54282 0.9488 0.0
H194 H 0.68866 0.452 0.97812 0.0
H195 H 0.80033 0.46801 0.97901 0.0
H196 H 0.28933 0.40645 0.98243 0.0
H197 H 0.4016 0.42013 0.98148 0.0
H198 H 0.36003 0.50907 0.95057 0.0
H199 H 0.24759 0.49452 0.95119 0.0
Tb200 Tb 0.85761 0.20851 0.9695 0.0
Tb201 Tb 0.73711 0.24691 0.96582 0.0
C202 C 0.9679 0.18498 0.96653 0.0
C203 C 1.03382 0.19635 0.96473 0.0
C204 C 0.07696 0.1756 0.95588 0.0
C205 C 0.14091 0.18416 0.95516 0.0
C206 C 0.16315 0.21371 0.96332 0.0
C207 C 0.11928 0.235 0.97177 0.0
C208 C 0.05519 0.2264 0.97246 0.0
C209 C 0.79455 0.21482 0.99931 0.0
C210 C 0.85426 0.28957 0.9718 0.0
C211 C 0.62774 0.27179 0.96777 0.0
C212 C 0.56094 0.26152 0.96725 0.0
C213 C 0.51595 0.28185 0.97563 0.0
C214 C 0.45185 0.27375 0.9748 0.0
C215 C 0.43131 0.24503 0.96556 0.0
C216 C 0.47678 0.22438 0.95735 0.0
C217 C 0.54105 0.23261 0.95815 0.0
C218 C 0.80786 0.24227 0.93704 0.0
C219 C 0.73362 0.167 0.96469 0.0
O220 O 0.93046 0.19046 0.95321 0.0
O221 O 0.94018 0.19092 0.98156 0.0
O222 O 0.80018 0.23704 0.98744 0.0
O223 O 0.8249 0.18803 0.99441 0.0
O224 O 0.88774 0.26211 0.96791 0.0
O225 O 0.79331 0.28804 0.97476 0.0
O226 O 0.66043 0.26215 0.98147 0.0
O227 O 0.65972 0.26901 0.95313 0.0
O228 O 0.79729 0.21948 0.9482 0.0
O229 O 0.77563 0.26874 0.94144 0.0
O230 O 0.70279 0.19542 0.96745 0.0
O231 O 0.79587 0.1662 0.96308 0.0
H232 H 0.06134 0.15235 0.94978 0.0
H233 H 0.17298 0.16751 0.94825 0.0
H234 H 0.13469 0.25781 0.97832 0.0
H235 H 1.02266 0.24282 0.97937 0.0
H236 H 0.53041 0.30424 0.98274 0.0
H237 H 0.41836 0.28989 0.98152 0.0
H238 H 0.46261 0.20225 0.95001 0.0
H239 H 0.57504 0.2167 0.95148 0.0
Tb240 Tb 0.96404 0.20886 0.85318 0.0
Tb241 Tb 0.08444 0.24697 0.85735 0.0
C242 C 0.85365 0.18547 0.85585 0.0
C243 C 0.78788 0.19712 0.85749 0.0
C244 C 0.74408 0.17644 0.86614 0.0
C245 C 0.6803 0.1854 0.86676 0.0
C246 C 0.659 0.21527 0.85868 0.0
C247 C 0.70346 0.23644 0.85041 0.0
C248 C 0.76738 0.22747 0.84984 0.0
C249 C 1.02879 0.2148 0.82364 0.0
C250 C 0.96797 0.28988 0.85072 0.0
C251 C 0.19373 0.27198 0.85608 0.0
C252 C 0.26063 0.26184 0.85607 0.0
C253 C 0.30463 0.28255 0.84754 0.0
C254 C 0.36886 0.2746 0.84787 0.0
C255 C 0.39053 0.24562 0.85674 0.0
C256 C 0.34605 0.22469 0.86517 0.0
C257 C 0.28165 0.23276 0.86486 0.0
C258 C 1.01186 0.24257 0.8858 0.0
C259 C 0.08758 0.16721 0.85831 0.0
O260 O 0.89067 0.19078 0.86927 0.0
O261 O 0.88189 0.19144 0.84089 0.0
O262 O 1.02273 0.2371 0.83543 0.0
O263 O 0.99785 0.18815 0.82847 0.0
O264 O 0.93402 0.26252 0.85446 0.0
O265 O 1.02911 0.28823 0.84816 0.0
O266 O 0.16076 0.26419 0.84213 0.0
O267 O 0.16216 0.26722 0.87065 0.0
O268 O 1.02311 0.21971 0.87474 0.0
O269 O 0.04416 0.26904 0.88144 0.0
O270 O 0.11862 0.19551 0.85547 0.0
O271 O 1.02535 0.16654 0.85989 0.0
H272 H 0.75902 0.15288 0.87209 0.0
H273 H 0.64738 0.16836 0.87308 0.0
H274 H 0.68878 0.25986 0.84428 0.0
H275 H 0.8005 0.2439 0.84317 0.0
H276 H 0.28935 0.30524 0.8408 0.0
H277 H 0.40168 0.29158 0.84147 0.0
H278 H 0.36092 0.20197 0.87194 0.0
H279 H 0.24843 0.21649 0.8716 0.0
Tb280 Tb 0.86032 0.5032 0.85258 0.0
Tb281 Tb 0.73981 0.46495 0.85631 0.0
C282 C 0.97064 0.52655 0.85555 0.0
C283 C 1.03643 0.51486 0.85706 0.0
C284 C 0.08024 0.53525 0.86584 0.0
C285 C 0.14403 0.52627 0.86635 0.0
C286 C 0.16533 0.49668 0.85802 0.0
C287 C 0.12086 0.47579 0.84962 0.0
C288 C 0.05693 0.48476 0.84917 0.0
C289 C 0.7971 0.49728 0.82281 0.0
C290 C 0.85671 0.4222 0.85008 0.0
C291 C 0.6306 0.43997 0.85449 0.0
C292 C 0.56369 0.45007 0.8547 0.0
C293 C 0.5196 0.4297 0.84604 0.0
C294 C 0.45538 0.43766 0.84651 0.0
C295 C 0.4338 0.46631 0.85565 0.0
C296 C 0.47838 0.48689 0.86424 0.0
C297 C 0.54277 0.47882 0.86378 0.0
C298 C 0.81082 0.46924 0.88502 0.0
C299 C 0.7365 0.54472 0.85764 0.0
O300 O 0.9335 0.52057 0.86889 0.0
O301 O 0.94255 0.52128 0.84052 0.0
O302 O 0.80272 0.47495 0.83463 0.0
O303 O 0.82758 0.52398 0.82775 0.0
O304 O 0.89036 0.44956 0.85397 0.0
O305 O 0.79576 0.42386 0.84721 0.0
O306 O 0.66366 0.44894 0.84072 0.0
O307 O 0.66205 0.44354 0.86916 0.0
O308 O 0.80015 0.49215 0.87393 0.0
O309 O 0.77868 0.44281 0.88056 0.0
O310 O 0.70559 0.51645 0.85465 0.0
O311 O 0.7987 0.54539 0.85931 0.0
H312 H 0.06531 0.55861 0.87198 0.0
H313 H 0.17696 0.5431 0.87278 0.0
H314 H 0.13553 0.45257 0.84331 0.0
H315 H 1.02379 0.46854 0.8424 0.0
H316 H 0.53481 0.40728 0.83906 0.0
H317 H 0.42251 0.42094 0.83998 0.0
H318 H 0.46359 0.50935 0.87123 0.0
H319 H 0.57608 0.49482 0.87062 0.0
Tb320 Tb 0.98929 -0.0017 0.60769 0.0
Tb321 Tb 0.10942 0.95961 0.60406 0.0
C322 C 0.87996 0.0233 0.60588 0.0
C323 C 0.81305 0.01306 0.60609 0.0
C324 C 0.76883 0.03314 0.59723 0.0
C325 C 0.70464 0.02509 0.59773 0.0
C326 C 0.68315 -0.00337 0.60708 0.0
C327 C 0.72786 0.97635 0.61586 0.0
C328 C 0.79221 -0.01547 0.61539 0.0
C329 C 0.05994 -0.00635 0.63645 0.0
C330 C 0.98488 0.91844 0.60885 0.0
C331 C 0.21974 0.93609 0.60704 0.0
C332 C 0.28558 0.94778 0.60857 0.0
C333 C 0.32943 0.92745 0.61743 0.0
C334 C 0.39325 0.9364 0.61791 0.0
C335 C 0.41459 0.96591 0.60948 0.0
C336 C 0.37008 -0.01327 0.60099 0.0
C337 C 0.30614 0.97778 0.60056 0.0
C338 C 0.04611 0.96554 0.5743 0.0
C339 C 0.10672 0.04078 0.60146 0.0
O340 O 0.91315 0.01451 0.5921 0.0
O341 O 0.91146 0.01967 0.62053 0.0
O342 O 0.04929 0.97078 0.62537 0.0
O343 O 1.02813 0.02021 0.63195 0.0
O344 O 0.95433 0.94692 0.60605 0.0
O345 O 0.04712 0.91747 0.61052 0.0
O346 O 0.1825 0.94194 0.62038 0.0
O347 O 0.19165 0.94148 0.59201 0.0
O348 O 0.05223 -0.01202 0.58602 0.0
O349 O 0.07627 0.93877 0.57934 0.0
O350 O 0.14 0.0132 0.60529 0.0
O351 O 0.04562 0.03946 0.59873 0.0
H352 H 0.78391 0.05542 0.59009 0.0
H353 H 0.67171 0.04161 0.59105 0.0
H354 H 0.71322 0.95404 0.62302 0.0
H355 H 0.82556 0.96877 0.6224 0.0
H356 H 0.31452 0.90415 0.62365 0.0
H357 H 0.42617 0.91962 0.62442 0.0
H358 H 0.38473 0.00988 0.59459 0.0
H359 H 0.27303 -0.00605 0.59371 0.0
Tb360 Tb 0.33841 0.21523 0.6077 0.0
Tb361 Tb 0.21846 0.25367 0.60332 0.0
C362 C 0.44798 0.19041 0.6064 0.0
C363 C 0.51482 0.20065 0.60741 0.0
C364 C 0.53594 0.23186 0.60091 0.0
C365 C 0.60019 0.24017 0.60155 0.0
C366 C 0.64454 0.21737 0.60863 0.0
C367 C 0.62279 0.18633 0.6153 0.0
C368 C 0.55866 0.17811 0.61469 0.0
C369 C 0.26615 0.22011 0.63614 0.0
C370 C 0.34221 0.29521 0.60869 0.0
C371 C 0.10835 0.27785 0.60541 0.0
C372 C 0.04166 0.2675 0.60636 0.0
C373 C 1.02306 0.23626 0.6134 0.0
C374 C 0.95887 0.22768 0.61422 0.0
C375 C 0.91231 0.25021 0.60803 0.0
C376 C 0.93166 0.28134 0.60091 0.0
C377 C 0.99555 0.28984 0.60011 0.0
C378 C 0.28343 0.24674 0.57382 0.0
C379 C 0.22129 0.17254 0.60129 0.0
O380 O 0.41607 0.20008 0.59254 0.0
O381 O 0.41502 0.19296 0.62086 0.0
O382 O 0.27717 0.24292 0.625 0.0
O383 O 0.29867 0.19363 0.63193 0.0
O384 O 0.37319 0.26673 0.60625 0.0
O385 O 0.27985 0.29605 0.60991 0.0
O386 O 0.14395 0.27134 0.61901 0.0
O387 O 0.13749 0.27208 0.59059 0.0
O388 O 0.27657 0.22476 0.58575 0.0
O389 O 0.2535 0.27377 0.57856 0.0
O390 O 0.18772 0.20015 0.60483 0.0
O391 O 0.28253 0.1739 0.59873 0.0
H392 H 0.50298 0.2496 0.59515 0.0
H393 H 0.61529 0.26415 0.59614 0.0
H394 H 0.65531 0.16839 0.62108 0.0
H395 H 0.54331 0.15393 0.61981 0.0
H396 H 0.05798 0.21864 0.61832 0.0
H397 H 0.9457 0.20362 0.61991 0.0
H398 H 0.89744 0.29905 0.59573 0.0
H399 H 1.00903 0.31401 0.59457 0.0
Tb400 Tb 0.99092 0.21511 0.71597 0.0
Tb401 Tb 0.11142 0.25337 0.71968 0.0
C402 C 0.88168 0.19019 0.71792 0.0
C403 C 0.8148 0.20036 0.71777 0.0
C404 C 0.77068 0.18005 0.7265 0.0
C405 C 0.70648 0.18805 0.72606 0.0
C406 C 0.68495 0.21668 0.71687 0.0
C407 C 0.72955 0.23722 0.70822 0.0
C408 C 0.79393 0.22911 0.70865 0.0
C409 C 0.06163 0.21976 0.68721 0.0
C410 C 0.98758 0.29491 0.71467 0.0
C411 C 0.22167 0.27682 0.71667 0.0
C412 C 0.28754 0.26519 0.71528 0.0
C413 C 0.33143 0.28551 0.70644 0.0
C414 C 0.39524 0.27656 0.706 0.0
C415 C 0.41649 0.24706 0.71445 0.0
C416 C 0.37195 0.22625 0.72294 0.0
C417 C 0.308 0.2352 0.72332 0.0
C418 C 0.04776 0.24719 0.74943 0.0
C419 C 0.10797 0.1723 0.72212 0.0
O420 O 0.91485 0.1991 0.73165 0.0
O421 O 0.91305 0.19376 0.70322 0.0
O422 O 0.05122 0.24256 0.69836 0.0
O423 O 1.02956 0.19326 0.69165 0.0
O424 O 0.95667 0.26662 0.71765 0.0
O425 O 0.04979 0.29558 0.71297 0.0
O426 O 0.18481 0.27054 0.70333 0.0
O427 O 0.19333 0.27179 0.7317 0.0
O428 O 0.05387 0.22498 0.73761 0.0
O429 O 0.07831 0.27393 0.74454 0.0
O430 O 0.14163 0.19974 0.71833 0.0
O431 O 0.04693 0.17386 0.7249 0.0
H432 H 0.78585 0.15763 0.73351 0.0
H433 H 0.67357 0.17137 0.73264 0.0
H434 H 0.71479 0.25967 0.7012 0.0
H435 H 0.82725 0.24508 0.70176 0.0
H436 H 0.31653 0.30878 0.70018 0.0
H437 H 0.42821 0.29333 0.6995 0.0
H438 H 0.38658 0.20311 0.72935 0.0
H439 H 0.2748 0.21904 0.73014 0.0
Tb440 Tb 0.33691 -0.00262 0.71583 0.0
Tb441 Tb 0.21669 0.95907 0.71999 0.0
C442 C 0.44621 0.02238 0.71717 0.0
C443 C 0.51312 0.01223 0.71712 0.0
C444 C 0.55714 0.03283 0.72566 0.0
C445 C 0.62138 0.02486 0.72529 0.0
C446 C 0.64306 -0.00403 0.71637 0.0
C447 C 0.59856 0.97516 0.70791 0.0
C448 C 0.53415 -0.01676 0.70826 0.0
C449 C 0.26467 -0.00682 0.68737 0.0
C450 C 0.34047 0.91756 0.71482 0.0
C451 C 0.10625 0.93568 0.71749 0.0
C452 C 0.04052 0.94738 0.71573 0.0
C453 C 0.99683 0.92673 0.70707 0.0
C454 C 0.93305 0.9357 0.70639 0.0
C455 C 0.91162 0.96556 0.71444 0.0
C456 C 0.95598 -0.01329 0.72271 0.0
C457 C 1.01989 0.97774 0.72333 0.0
C458 C 0.28159 0.96496 0.74951 0.0
C459 C 0.22017 0.04011 0.72235 0.0
O460 O 0.41316 0.01435 0.7311 0.0
O461 O 0.41467 0.01788 0.70259 0.0
O462 O 0.27565 0.97019 0.69841 0.0
O463 O 0.29705 0.01958 0.69174 0.0
O464 O 0.37133 0.94592 0.71761 0.0
O465 O 0.27821 0.91679 0.7133 0.0
O466 O 0.14347 0.94054 0.70404 0.0
O467 O 0.13438 0.94201 0.7324 0.0
O468 O 0.27502 -0.01271 0.73774 0.0
O469 O 0.25097 0.93824 0.74466 0.0
O470 O 0.18651 0.01269 0.71857 0.0
O471 O 0.28126 0.03855 0.725 0.0
H472 H 0.54188 0.05545 0.73246 0.0
H473 H 0.65418 0.04177 0.73171 0.0
H474 H 0.61341 0.95251 0.70109 0.0
H475 H 0.50093 0.96706 0.70151 0.0
H476 H 1.01184 0.90316 0.70116 0.0
H477 H 0.90021 0.91867 0.70006 0.0
H478 H 0.94122 0.01013 0.72881 0.0
H479 H 0.0529 -0.00583 0.73001 0.0
Tb480 Tb 0.96108 0.00075 0.47095 0.0
Tb481 Tb 0.08036 0.96271 0.46564 0.0
C482 C 0.85066 0.02461 0.46958 0.0
C483 C 0.78401 0.01421 0.46852 0.0
C484 C 0.76468 -0.01441 0.45907 0.0
C485 C 0.70043 0.97732 0.45798 0.0
C486 C 0.65452 -0.00244 0.46631 0.0
C487 C 0.67456 0.02595 0.47588 0.0
C488 C 0.73852 0.03414 0.47695 0.0
C489 C 1.02957 -0.00421 0.49984 0.0
C490 C 0.96547 0.91962 0.47412 0.0
C491 C 0.1902 0.93816 0.46517 0.0
C492 C 0.25685 0.94882 0.4645 0.0
C493 C 0.27824 0.97805 0.47306 0.0
C494 C 0.34248 -0.01353 0.4728 0.0
C495 C 0.38649 0.96581 0.46399 0.0
C496 C 0.36438 0.93693 0.45518 0.0
C497 C 0.30031 0.92856 0.45546 0.0
C498 C 1.00354 0.96617 0.43808 0.0
C499 C 0.08419 0.04249 0.46473 0.0
O500 O 0.88616 0.01942 0.45578 0.0
O501 O 0.8801 0.01778 0.48422 0.0
O502 O 1.02215 0.97308 0.48832 0.0
O503 O 0.99844 0.02236 0.49499 0.0
O504 O 0.93089 0.94689 0.47053 0.0
O505 O 1.02701 0.92146 0.47582 0.0
O506 O 0.15875 0.94469 0.4796 0.0
O507 O 0.15663 0.94361 0.45105 0.0
O508 O 1.01655 -0.01052 0.4487 0.0
O509 O 1.03614 0.93977 0.44236 0.0
O510 O 0.1152 0.01409 0.46728 0.0
O511 O 1.02176 0.04322 0.46372 0.0
H512 H 0.79906 0.96983 0.45243 0.0
H513 H 0.68665 0.95543 0.45039 0.0
H514 H 0.64082 0.04173 0.48273 0.0
H515 H 0.75252 0.05627 0.48435 0.0
H516 H 0.24552 -0.0059 0.48012 0.0
H517 H 0.35782 0.00873 0.47985 0.0
H518 H 0.39658 0.92078 0.448 0.0
H519 H 0.28472 0.90598 0.44871 0.0
Tb520 Tb 0.8676 0.70566 0.46861 0.0
Tb521 Tb 0.73906 0.74433 0.46736 0.0
C522 C 0.97219 0.6831 0.45835 0.0
C523 C 0.03931 0.68637 0.46288 0.0
C524 C 0.08318 0.6646 0.45506 0.0
C525 C 0.14784 0.6695 0.45761 0.0
C526 C 0.16985 0.6964 0.468 0.0
C527 C 0.12545 0.7175 0.47633 0.0
C528 C 0.06069 0.71255 0.47377 0.0
C529 C 0.82661 0.71599 0.50111 0.0
C530 C 0.85725 0.78612 0.47497 0.0
C531 C 0.6276 0.76584 0.46949 0.0
C532 C 0.56317 0.75203 0.47099 0.0
C533 C 0.51828 0.76912 0.48119 0.0
C534 C 0.45556 0.75811 0.48165 0.0
C535 C 0.43651 0.7297 0.47191 0.0
C536 C 0.48222 0.71204 0.4621 0.0
C537 C 0.54481 0.72318 0.46158 0.0
C538 C 0.80873 0.74198 0.43826 0.0
C539 C 0.73988 0.66438 0.46575 0.0
O540 O 0.9457 0.7105 0.4521 0.0
O541 O 0.93595 0.66717 0.46962 0.0
O542 O 0.80068 0.72431 0.4868 0.0
O543 O 0.87891 0.70076 0.4972 0.0
O544 O 0.89237 0.75996 0.46975 0.0
O545 O 0.79612 0.78382 0.47784 0.0
O546 O 0.66465 0.76225 0.48315 0.0
O547 O 0.65698 0.76027 0.45462 0.0
O548 O 0.80003 0.71871 0.44927 0.0
O549 O 0.77653 0.76811 0.44327 0.0
O550 O 0.70816 0.69241 0.46892 0.0
O551 O 0.8021 0.6639 0.46344 0.0
H552 H 0.06747 0.64429 0.4466 0.0
H553 H 0.18066 0.65248 0.45123 0.0
H554 H 0.14074 0.73863 0.48428 0.0
H555 H 1.02739 0.72974 0.47984 0.0
H556 H 0.53139 0.79155 0.48846 0.0
H557 H 0.42162 0.77258 0.48917 0.0
H558 H 0.46952 0.68978 0.45465 0.0
H559 H 0.57851 0.70964 0.45353 0.0
Tb560 Tb 0.96238 0.70835 0.35287 0.0
Tb561 Tb 0.08192 0.74678 0.35741 0.0
C562 C 0.85226 0.68429 0.355 0.0
C563 C 0.78552 0.69468 0.3558 0.0
C564 C 0.76658 0.72564 0.36307 0.0
C565 C 0.70234 0.73416 0.36383 0.0
C566 C 0.65604 0.71185 0.35735 0.0
C567 C 0.67572 0.68103 0.34997 0.0
C568 C 0.73967 0.67258 0.34923 0.0
C569 C 1.02844 0.71416 0.32355 0.0
C570 C 0.96528 0.78954 0.34988 0.0
C571 C 0.19147 0.77166 0.35669 0.0
C572 C 0.25834 0.76135 0.35747 0.0
C573 C 0.27938 0.73047 0.35056 0.0
C574 C 0.34366 0.72211 0.35101 0.0
C575 C 0.38809 0.74454 0.35831 0.0
C576 C 0.36641 0.77524 0.36539 0.0
C577 C 0.30227 0.7835 0.36497 0.0
C578 C 1.00777 0.74273 0.38552 0.0
C579 C 0.08631 0.66683 0.35855 0.0
O580 O 0.88765 0.6911 0.3686 0.0
O581 O 0.88163 0.68965 0.34018 0.0
O582 O 1.02154 0.73659 0.33523 0.0
O583 O 0.99788 0.68741 0.3284 0.0
O584 O 0.93138 0.76205 0.35348 0.0
O585 O 1.02677 0.78802 0.34784 0.0
O586 O 0.15962 0.76323 0.34262 0.0
O587 O 0.1585 0.76779 0.37108 0.0
O588 O 1.01994 0.71959 0.37469 0.0
O589 O 0.04002 0.7692 0.38117 0.0
O590 O 0.11708 0.69532 0.356 0.0
O591 O 1.02392 0.66599 0.35976 0.0
H592 H 0.80128 0.74308 0.36824 0.0
H593 H 0.68891 0.75798 0.36974 0.0
H594 H 0.64172 0.6635 0.34455 0.0
H595 H 0.7534 0.64862 0.34351 0.0
H596 H 0.24633 0.71304 0.34463 0.0
H597 H 0.35871 0.6984 0.34529 0.0
H598 H 0.399 0.79286 0.37136 0.0
H599 H 0.28696 0.80742 0.37042 0.0
Tb600 Tb 0.86222 0.00295 0.35559 0.0
Tb601 Tb 0.73426 0.96382 0.35664 0.0
C602 C 0.96679 0.02561 0.36577 0.0
C603 C 1.03389 0.02216 0.36104 0.0
C604 C 0.07761 0.04553 0.36754 0.0
C605 C 0.1423 0.04077 0.36478 0.0
C606 C 0.16456 0.01241 0.3555 0.0
C607 C 0.12023 -0.01038 0.34848 0.0
C608 C 0.05549 -0.00554 0.35123 0.0
C609 C 0.82252 -0.00752 0.32303 0.0
C610 C 0.85307 0.92226 0.34936 0.0
C611 C 0.62247 0.94272 0.35489 0.0
C612 C 0.55829 0.95669 0.35273 0.0
C613 C 0.51246 0.93773 0.34387 0.0
C614 C 0.44979 0.94885 0.34317 0.0
C615 C 0.43165 0.97924 0.35134 0.0
C616 C 0.4783 -0.00127 0.35973 0.0
C617 C 0.54089 -0.01248 0.36047 0.0
C618 C 0.80296 0.9667 0.38589 0.0
C619 C 0.73382 0.04366 0.3573 0.0
O620 O 0.94025 -0.00167 0.37212 0.0
O621 O 0.93029 0.04158 0.35458 0.0
O622 O 0.79621 -0.01604 0.33727 0.0
O623 O 0.87439 0.00792 0.32706 0.0
O624 O 0.88759 0.94867 0.35451 0.0
O625 O 0.79187 0.92417 0.34648 0.0
O626 O 0.6603 0.94415 0.34126 0.0
O627 O 0.65123 0.95017 0.36961 0.0
O628 O 0.7942 -0.01014 0.37483 0.0
O629 O 0.77144 0.94042 0.38084 0.0
O630 O 0.70338 0.01549 0.35371 0.0
O631 O 0.79552 0.04439 0.36053 0.0
H632 H 0.06181 0.06709 0.37512 0.0
H633 H 0.17495 0.05911 0.37011 0.0
H634 H 0.13559 0.96735 0.34143 0.0
H635 H 1.02242 0.97605 0.34614 0.0
H636 H 0.52478 0.91376 0.33792 0.0
H637 H 0.41515 0.93297 0.33678 0.0
H638 H 0.46633 0.02249 0.36592 0.0
H639 H 0.57533 0.00256 0.36745 0.0
Tb640 Tb 0.4941 0.49765 0.60548 0.0
Tb641 Tb 0.61456 0.4594 0.60205 0.0
C642 C 0.38467 0.52241 0.60358 0.0
C643 C 0.31789 0.51209 0.60367 0.0
C644 C 0.27364 0.53248 0.59504 0.0
C645 C 0.20949 0.52436 0.59546 0.0
C646 C 0.18816 0.49555 0.60452 0.0
C647 C 0.23291 0.47492 0.61306 0.0
C648 C 0.29722 0.48314 0.61265 0.0
C649 C 0.56473 0.49377 0.63427 0.0
C650 C 0.49056 0.41786 0.6072 0.0
C651 C 0.72475 0.43589 0.60528 0.0
C652 C 0.79073 0.44731 0.60649 0.0
C653 C 0.83475 0.42674 0.61513 0.0
C654 C 0.8986 0.43556 0.61545 0.0
C655 C 0.91977 0.46516 0.60708 0.0
C656 C 0.87513 0.48617 0.59878 0.0
C657 C 0.81112 0.47736 0.59851 0.0
C658 C 0.55104 0.46453 0.57227 0.0
C659 C 0.61077 0.54056 0.5988 0.0
O660 O 0.41809 0.51374 0.58983 0.0
O661 O 0.41591 0.51872 0.61828 0.0
O662 O 0.55428 0.47065 0.62331 0.0
O663 O 0.53293 0.52022 0.62959 0.0
O664 O 0.45986 0.44612 0.60393 0.0
O665 O 0.55275 0.41726 0.60904 0.0
O666 O 0.68797 0.44294 0.61856 0.0
O667 O 0.69646 0.44033 0.59021 0.0
O668 O 0.55701 0.48716 0.58388 0.0
O669 O 0.58174 0.43798 0.57738 0.0
O670 O 0.64468 0.51325 0.60278 0.0
O671 O 0.54968 0.53876 0.59617 0.0
H672 H 0.28864 0.55505 0.58813 0.0
H673 H 0.17648 0.54111 0.58896 0.0
H674 H 0.21831 0.45233 0.61998 0.0
H675 H 0.33066 0.4671 0.61945 0.0
H676 H 0.8199 0.40341 0.62132 0.0
H677 H 0.93165 0.41863 0.6218 0.0
H678 H 0.88971 0.50939 0.59243 0.0
H679 H 0.77781 0.49369 0.59184 0.0
Tb680 Tb 0.83686 0.71589 0.60692 0.0
Tb681 Tb 0.7086 0.75455 0.60523 0.0
C682 C 0.94835 0.6943 0.60514 0.0
C683 C 1.01282 0.70805 0.60358 0.0
C684 C 0.05751 0.69092 0.59333 0.0
C685 C 0.12024 0.70189 0.59278 0.0
C686 C 0.13951 0.73031 0.60248 0.0
C687 C 0.09402 0.74799 0.61236 0.0
C688 C 1.03142 0.73688 0.61297 0.0
C689 C 0.7665 0.71866 0.63586 0.0
C690 C 0.83629 0.79583 0.60797 0.0
C691 C 0.60387 0.77728 0.6153 0.0
C692 C 0.53674 0.77401 0.61077 0.0
C693 C 0.49296 0.79588 0.61856 0.0
C694 C 0.42827 0.79091 0.61611 0.0
C695 C 0.40615 0.76386 0.60585 0.0
C696 C 0.45045 0.74268 0.59753 0.0
C697 C 0.51525 0.74769 0.6 0.0
C698 C 0.75019 0.74385 0.57285 0.0
C699 C 0.71905 0.67402 0.59912 0.0
O700 O 0.91152 0.69737 0.59141 0.0
O701 O 0.91872 0.70041 0.61992 0.0
O702 O 0.77548 0.74182 0.62481 0.0
O703 O 0.79863 0.69242 0.63098 0.0
O704 O 0.868 0.76771 0.60505 0.0
O705 O 0.77403 0.79641 0.61019 0.0
O706 O 0.63022 0.74994 0.62164 0.0
O707 O 0.64024 0.79302 0.60398 0.0
O708 O 0.77591 0.7356 0.58721 0.0
O709 O 0.69783 0.75913 0.57665 0.0
O710 O 0.68374 0.70024 0.60416 0.0
O711 O 0.78027 0.67628 0.59643 0.0
H712 H 0.04423 0.66849 0.58608 0.0
H713 H 0.15401 0.68739 0.58522 0.0
H714 H 0.10688 0.77026 0.61978 0.0
H715 H 0.9979 0.75044 0.62106 0.0
H716 H 0.50877 0.81629 0.62694 0.0
H717 H 0.39552 0.80799 0.62247 0.0
H718 H 0.43506 0.72145 0.58968 0.0
H719 H 0.54848 0.73042 0.59396 0.0
Tb720 Tb 0.49191 0.71507 0.71623 0.0
Tb721 Tb 0.61205 0.75347 0.72044 0.0
C722 C 0.38262 0.69003 0.71754 0.0
C723 C 0.3157 0.7002 0.71753 0.0
C724 C 0.27164 0.6795 0.72605 0.0
C725 C 0.20741 0.68749 0.72572 0.0
C726 C 0.18577 0.7165 0.71687 0.0
C727 C 0.23032 0.73741 0.70845 0.0
C728 C 0.29471 0.7293 0.70875 0.0
C729 C 0.56495 0.71893 0.68788 0.0
C730 C 0.48835 0.79489 0.71504 0.0
C731 C 0.72255 0.77684 0.71803 0.0
C732 C 0.7883 0.76515 0.71626 0.0
C733 C 0.83211 0.78594 0.70768 0.0
C734 C 0.8959 0.77697 0.70702 0.0
C735 C 0.91722 0.74699 0.71499 0.0
C736 C 0.87275 0.72572 0.72318 0.0
C737 C 0.80883 0.73468 0.72379 0.0
C738 C 0.5465 0.74759 0.7499 0.0
C739 C 0.60858 0.67246 0.72293 0.0
O740 O 0.41563 0.69785 0.73148 0.0
O741 O 0.4142 0.69474 0.70296 0.0
O742 O 0.55369 0.74206 0.6988 0.0
O743 O 0.53231 0.69261 0.69228 0.0
O744 O 0.45747 0.76654 0.71788 0.0
O745 O 0.55063 0.79568 0.71359 0.0
O746 O 0.68547 0.77218 0.70455 0.0
O747 O 0.69426 0.77031 0.73291 0.0
O748 O 0.55336 0.72528 0.73816 0.0
O749 O 0.57725 0.7743 0.74506 0.0
O750 O 0.64225 0.69987 0.71909 0.0
O751 O 0.54748 0.67402 0.7256 0.0
H752 H 0.28687 0.65679 0.73279 0.0
H753 H 0.17458 0.6705 0.73211 0.0
H754 H 0.21551 0.76015 0.70169 0.0
H755 H 0.32796 0.74556 0.70202 0.0
H756 H 0.81719 0.80959 0.70183 0.0
H757 H 0.92882 0.79409 0.70076 0.0
H758 H 0.88742 0.70221 0.72922 0.0
H759 H 0.77573 0.71816 0.73041 0.0
Tb760 Tb 0.83706 0.4975 0.71499 0.0
Tb761 Tb 0.71665 0.45929 0.71892 0.0
C762 C 0.94636 0.52244 0.71651 0.0
C763 C 1.01324 0.51225 0.71646 0.0
C764 C 0.05726 0.53276 0.72506 0.0
C765 C 0.12148 0.52477 0.72468 0.0
C766 C 0.14311 0.49595 0.71569 0.0
C767 C 0.0986 0.47522 0.70718 0.0
C768 C 1.03422 0.48332 0.70755 0.0
C769 C 0.76544 0.49348 0.68642 0.0
C770 C 0.84037 0.41771 0.71392 0.0
C771 C 0.60636 0.43588 0.71606 0.0
C772 C 0.54054 0.44749 0.71454 0.0
C773 C 0.49676 0.42697 0.70583 0.0
C774 C 0.43295 0.43591 0.7053 0.0
C775 C 0.4116 0.46559 0.71353 0.0
C776 C 0.45603 0.48659 0.72188 0.0
C777 C 0.51997 0.47765 0.72236 0.0
C778 C 0.78087 0.46512 0.74857 0.0
C779 C 0.72036 0.54029 0.72161 0.0
O780 O 0.91319 0.5142 0.73038 0.0
O781 O 0.91497 0.51818 0.70189 0.0
O782 O 0.77613 0.47041 0.69743 0.0
O783 O 0.79769 0.51986 0.69088 0.0
O784 O 0.87129 0.44602 0.71678 0.0
O785 O 0.77817 0.41703 0.71227 0.0
O786 O 0.64341 0.44177 0.70268 0.0
O787 O 0.63452 0.4413 0.73106 0.0
O788 O 0.77468 0.48743 0.73677 0.0
O789 O 0.75014 0.43845 0.74369 0.0
O790 O 0.6865 0.51295 0.71781 0.0
O791 O 0.78149 0.53866 0.72418 0.0
H792 H 0.04201 0.55532 0.73191 0.0
H793 H 0.15431 0.5416 0.73115 0.0
H794 H 0.11345 0.45263 0.70031 0.0
H795 H 1.00098 0.46721 0.70075 0.0
H796 H 0.51173 0.40356 0.69975 0.0
H797 H 0.40006 0.419 0.69891 0.0
H798 H 0.44133 0.50986 0.72813 0.0
H799 H 0.55308 0.49395 0.72909 0.0
Tb800 Tb 0.46724 0.50048 0.46833 0.0
Tb801 Tb 0.58709 0.46198 0.46417 0.0
C802 C 0.35685 0.5239 0.46557 0.0
C803 C 0.291 0.51216 0.46415 0.0
C804 C 0.24868 0.53042 0.45365 0.0
C805 C 0.18474 0.52175 0.45317 0.0
C806 C 0.16175 0.49463 0.46327 0.0
C807 C 0.20474 0.47575 0.47342 0.0
C808 C 0.2688 0.48437 0.47383 0.0
C809 C 0.53162 0.49464 0.49786 0.0
C810 C 0.47019 0.41926 0.4709 0.0
C811 C 0.69676 0.43742 0.46543 0.0
C812 C 0.76334 0.44829 0.46563 0.0
C813 C 0.80653 0.43021 0.47593 0.0
C814 C 0.8706 0.43855 0.47575 0.0
C815 C 0.89296 0.46522 0.46522 0.0
C816 C 0.84931 0.48364 0.45505 0.0
C817 C 0.78506 0.47528 0.45527 0.0
C818 C 0.51485 0.46674 0.43571 0.0
C819 C 0.59143 0.54181 0.46349 0.0
O820 O 0.39374 0.5181 0.45215 0.0
O821 O 0.38541 0.5187 0.48054 0.0
O822 O 0.52549 0.47214 0.48615 0.0
O823 O 0.50091 0.52132 0.49295 0.0
O824 O 0.43655 0.44687 0.46739 0.0
O825 O 0.53157 0.4205 0.47311 0.0
O826 O 0.66312 0.44442 0.4794 0.0
O827 O 0.66529 0.44218 0.45085 0.0
O828 O 0.52632 0.48954 0.44677 0.0
O829 O 0.54676 0.44011 0.44007 0.0
O830 O 0.62204 0.5133 0.46613 0.0
O831 O 0.52918 0.54276 0.46189 0.0
H832 H 0.26486 0.55197 0.4461 0.0
H833 H 0.15298 0.53699 0.44533 0.0
H834 H 0.18878 0.45439 0.48113 0.0
H835 H 0.30067 0.46971 0.48194 0.0
H836 H 0.7908 0.4092 0.48395 0.0
H837 H 0.90284 0.42355 0.48356 0.0
H838 H 0.86476 0.50459 0.44697 0.0
H839 H 0.75256 0.48966 0.44722 0.0
Tb840 Tb 0.3579 0.20631 0.46991 0.0
Tb841 Tb 0.23778 0.24503 0.46618 0.0
C842 C 0.46827 0.18277 0.46705 0.0
C843 C 0.53418 0.19437 0.46562 0.0
C844 C 0.57837 0.17371 0.45711 0.0
C845 C 0.6422 0.18264 0.4567 0.0
C846 C 0.66322 0.21245 0.46485 0.0
C847 C 0.6184 0.23357 0.47301 0.0
C848 C 0.55443 0.22464 0.47337 0.0
C849 C 0.29487 0.21284 0.49972 0.0
C850 C 0.35534 0.28753 0.47228 0.0
C851 C 0.12843 0.27 0.46797 0.0
C852 C 0.06159 0.25967 0.468 0.0
C853 C 1.01726 0.28025 0.47649 0.0
C854 C 0.95308 0.27214 0.47612 0.0
C855 C 0.93175 0.24313 0.46727 0.0
C856 C 0.97659 0.2223 0.4589 0.0
C857 C 0.04092 0.23052 0.45925 0.0
C858 C 0.30928 0.24091 0.43754 0.0
C859 C 0.23354 0.16505 0.46504 0.0
O860 O 0.43139 0.18881 0.45367 0.0
O861 O 0.43986 0.18806 0.48204 0.0
O862 O 0.30069 0.23498 0.48782 0.0
O863 O 0.32482 0.18592 0.49481 0.0
O864 O 0.3886 0.25989 0.46855 0.0
O865 O 0.29419 0.28627 0.47501 0.0
O866 O 0.16194 0.26174 0.48177 0.0
O867 O 0.15963 0.26587 0.45328 0.0
O868 O 0.29827 0.21784 0.44854 0.0
O869 O 0.27688 0.26728 0.442 0.0
O870 O 0.20311 0.19353 0.46798 0.0
O871 O 0.29577 0.16415 0.46331 0.0
H872 H 0.56369 0.1502 0.4511 0.0
H873 H 0.67535 0.16561 0.45046 0.0
H874 H 0.63279 0.25695 0.47918 0.0
H875 H 0.52104 0.24104 0.47995 0.0
H876 H 1.03223 0.30298 0.48321 0.0
H877 H 0.92004 0.28906 0.48248 0.0
H878 H 0.96204 0.19955 0.45215 0.0
H879 H 0.07437 0.21433 0.45255 0.0
Tb880 Tb 0.45578 0.2072 0.35481 0.0
Tb881 Tb 0.58461 0.24541 0.35737 0.0
C882 C 0.34931 0.18493 0.3636 0.0
C883 C 0.28296 0.19049 0.35844 0.0
C884 C 0.26057 0.22302 0.35452 0.0
C885 C 0.19642 0.2285 0.35137 0.0
C886 C 0.15314 0.20153 0.35186 0.0
C887 C 0.17626 0.16876 0.35518 0.0
C888 C 0.24049 0.16336 0.3585 0.0
C889 C 0.50025 0.21818 0.32274 0.0
C890 C 0.46668 0.28793 0.34953 0.0
C891 C 0.69546 0.26808 0.35576 0.0
C892 C 0.76036 0.25654 0.3524 0.0
C893 C 0.77475 0.22222 0.3502 0.0
C894 C 0.83763 0.2117 0.3486 0.0
C895 C 0.88697 0.23546 0.34886 0.0
C896 C 0.87197 0.26992 0.35046 0.0
C897 C 0.80927 0.28031 0.35229 0.0
C898 C 0.51221 0.24223 0.38594 0.0
C899 C 0.58298 0.16551 0.35797 0.0
O900 O 0.37725 0.21051 0.37123 0.0
O901 O 0.38597 0.16967 0.35218 0.0
O902 O 0.52493 0.22617 0.33727 0.0
O903 O 0.44729 0.20328 0.32618 0.0
O904 O 0.43088 0.2615 0.35391 0.0
O905 O 0.5282 0.28579 0.34739 0.0
O906 O 0.65646 0.268 0.3424 0.0
O907 O 0.66914 0.2569 0.37023 0.0
O908 O 0.52154 0.21944 0.37475 0.0
O909 O 0.54561 0.26831 0.38151 0.0
O910 O 0.61522 0.19351 0.35521 0.0
O911 O 0.52053 0.16497 0.35979 0.0
H912 H 0.29235 0.24443 0.35437 0.0
H913 H 0.1806 0.25415 0.34914 0.0
H914 H 0.14471 0.14727 0.35538 0.0
H915 H 0.2568 0.13804 0.36145 0.0
H916 H 0.73756 0.20359 0.34997 0.0
H917 H 0.8477 0.18501 0.34721 0.0
H918 H 0.90891 0.2888 0.35088 0.0
H919 H 0.79906 0.30693 0.35399 0.0
Tb920 Tb 0.36049 0.50266 0.35226 0.0
Tb921 Tb 0.24027 0.46432 0.35569 0.0
C922 C 0.47072 0.52608 0.35549 0.0
C923 C 0.53665 0.5145 0.35679 0.0
C924 C 0.58052 0.53478 0.36562 0.0
C925 C 0.64437 0.52589 0.36599 0.0
C926 C 0.66571 0.49651 0.35747 0.0
C927 C 0.6212 0.47576 0.34898 0.0
C928 C 0.5572 0.48464 0.34867 0.0
C929 C 0.29793 0.49721 0.32238 0.0
C930 C 0.35732 0.42143 0.34913 0.0
C931 C 0.13096 0.43948 0.35379 0.0
C932 C 0.06411 0.44976 0.35394 0.0
C933 C 1.01994 0.42954 0.3452 0.0
C934 C 0.95575 0.43761 0.34566 0.0
C935 C 0.93427 0.4662 0.35488 0.0
C936 C 0.97892 0.48664 0.36352 0.0
C937 C 0.04329 0.47848 0.36306 0.0
C938 C 0.31108 0.46808 0.38447 0.0
C939 C 0.23609 0.54421 0.35728 0.0
O940 O 0.43376 0.51927 0.36876 0.0
O941 O 0.44252 0.52155 0.34041 0.0
O942 O 0.30337 0.47468 0.3341 0.0
O943 O 0.32805 0.52388 0.32751 0.0
O944 O 0.39099 0.44881 0.35309 0.0
O945 O 0.2962 0.42317 0.34647 0.0
O946 O 0.16427 0.44831 0.34005 0.0
O947 O 0.16228 0.44302 0.36848 0.0
O948 O 0.30028 0.49123 0.37352 0.0
O949 O 0.27923 0.44168 0.3798 0.0
O950 O 0.2056 0.51585 0.35414 0.0
O951 O 0.29834 0.54488 0.35906 0.0
H952 H 0.56555 0.55796 0.37194 0.0
H953 H 0.6773 0.54262 0.3725 0.0
H954 H 0.63589 0.4527 0.34251 0.0
H955 H 0.52403 0.46851 0.34185 0.0
H956 H 1.03505 0.40715 0.33819 0.0
H957 H 0.92282 0.421 0.33908 0.0
H958 H 0.9642 0.50906 0.37056 0.0
H959 H 0.07664 0.4944 0.36994 0.0
Tb960 Tb 0.48891 -0.00142 0.10836 0.0
Tb961 Tb 0.60828 0.95976 0.10363 0.0
C962 C 0.37921 0.02341 0.10764 0.0
C963 C 0.31236 0.013 0.10851 0.0
C964 C 0.29159 -0.01812 0.10184 0.0
C965 C 0.22735 0.97343 0.10234 0.0
C966 C 0.18262 -0.00401 0.10945 0.0
C967 C 0.20403 0.02693 0.11629 0.0
C968 C 0.26814 0.03528 0.11582 0.0
C969 C 0.56337 -0.00556 0.13639 0.0
C970 C 0.48415 0.91871 0.10963 0.0
C971 C 0.71846 0.93549 0.10532 0.0
C972 C 0.78523 0.94572 0.10649 0.0
C973 C 0.80374 0.97682 0.11367 0.0
C974 C 0.86795 -0.01466 0.11462 0.0
C975 C 0.91468 0.9629 0.10843 0.0
C976 C 0.89541 0.93188 0.10121 0.0
C977 C 0.83149 0.92343 0.10027 0.0
C978 C 0.54151 0.96576 0.07443 0.0
C979 C 0.60565 0.0409 0.10097 0.0
O980 O 0.41109 0.01482 0.09358 0.0
O981 O 0.4123 0.01982 0.12201 0.0
O982 O 0.55125 0.97132 0.12555 0.0
O983 O 0.5308 0.02089 0.13213 0.0
O984 O 0.45348 0.94725 0.10718 0.0
O985 O 0.54658 0.91762 0.1106 0.0
O986 O 0.68269 0.94103 0.11903 0.0
O987 O 0.68948 0.94233 0.09061 0.0
O988 O 0.54911 -0.01186 0.0861 0.0
O989 O 0.57162 0.93886 0.0793 0.0
O990 O 0.63919 0.01332 0.10462 0.0
O991 O 0.54425 0.03961 0.09875 0.0
H992 H 0.32483 0.96433 0.09605 0.0
H993 H 0.21257 0.94954 0.0968 0.0
H994 H 0.17126 0.04468 0.12211 0.0
H995 H 0.28319 0.05938 0.12108 0.0
H996 H 0.76871 -0.00561 0.11858 0.0
H997 H 0.881 0.0093 0.12041 0.0
H998 H 0.92971 0.91422 0.09602 0.0
H999 H 0.81812 0.89937 0.09463 0.0
Tb1000 Tb 0.83837 0.21504 0.10661 0.0
Tb1001 Tb 0.71843 0.25378 0.10366 0.0
C1002 C 0.94807 0.19117 0.10382 0.0
C1003 C 1.0144 0.20257 0.1041 0.0
C1004 C 0.05545 0.19141 0.09086 0.0
C1005 C 0.11941 0.19994 0.09127 0.0
C1006 C 0.14381 0.2197 0.10502 0.0
C1007 C 0.10237 0.23131 0.11816 0.0
C1008 C 0.03821 0.22293 0.11768 0.0
C1009 C 0.7695 0.219 0.13571 0.0
C1010 C 0.84264 0.29496 0.1086 0.0
C1011 C 0.60816 0.27676 0.10743 0.0
C1012 C 0.54214 0.26489 0.10774 0.0
C1013 C 0.50234 0.27551 0.1214 0.0
C1014 C 0.43831 0.26701 0.12135 0.0
C1015 C 0.41266 0.24778 0.10757 0.0
C1016 C 0.45306 0.23641 0.09412 0.0
C1017 C 0.51719 0.24481 0.09421 0.0
C1018 C 0.77968 0.2475 0.07352 0.0
C1019 C 0.72074 0.17253 0.10061 0.0
O1020 O 0.91401 0.20073 0.09036 0.0
O1021 O 0.91667 0.19252 0.11863 0.0
O1022 O 0.77951 0.24221 0.1247 0.0
O1023 O 0.80137 0.19261 0.13098 0.0
O1024 O 0.87301 0.26661 0.10531 0.0
O1025 O 0.78053 0.29569 0.11058 0.0
O1026 O 0.64402 0.26745 0.12051 0.0
O1027 O 0.63794 0.27563 0.09239 0.0
O1028 O 0.7741 0.22528 0.08536 0.0
O1029 O 0.74977 0.27434 0.07857 0.0
O1030 O 0.68745 0.20016 0.10435 0.0
O1031 O 0.78189 0.17378 0.0979 0.0
H1032 H 0.03817 0.17558 0.0803 0.0
H1033 H 0.15007 0.1903 0.08104 0.0
H1034 H 0.11954 0.24694 0.1288 0.0
H1035 H 1.00751 0.23206 0.12803 0.0
H1036 H 0.52056 0.29106 0.13195 0.0
H1037 H 0.40854 0.2764 0.13184 0.0
H1038 H 0.43504 0.22109 0.08347 0.0
H1039 H 0.54691 0.23604 0.08357 0.0
Tb1040 Tb 0.49865 0.21537 0.21713 0.0
Tb1041 Tb 0.62708 0.25345 0.21912 0.0
C1042 C 0.38702 0.19404 0.21848 0.0
C1043 C 0.32272 0.2079 0.22028 0.0
C1044 C 0.2783 0.19066 0.23058 0.0
C1045 C 0.21566 0.20175 0.23133 0.0
C1046 C 0.19624 0.23039 0.22179 0.0
C1047 C 0.24149 0.24821 0.2119 0.0
C1048 C 0.30398 0.23698 0.21108 0.0
C1049 C 0.57005 0.21796 0.18837 0.0
C1050 C 0.49964 0.29522 0.21612 0.0
C1051 C 0.73187 0.27617 0.20917 0.0
C1052 C 0.79892 0.27323 0.2138 0.0
C1053 C 0.84232 0.29546 0.20612 0.0
C1054 C 0.90705 0.29079 0.20862 0.0
C1055 C 0.92957 0.26368 0.21881 0.0
C1056 C 0.88564 0.24217 0.22705 0.0
C1057 C 0.82079 0.24688 0.22454 0.0
C1058 C 0.58408 0.24341 0.25139 0.0
C1059 C 0.61551 0.17289 0.22545 0.0
O1060 O 0.42381 0.19599 0.23228 0.0
O1061 O 0.41677 0.20108 0.20383 0.0
O1062 O 0.56079 0.2411 0.19937 0.0
O1063 O 0.53777 0.19176 0.19321 0.0
O1064 O 0.46776 0.26722 0.21918 0.0
O1065 O 0.56192 0.29552 0.21389 0.0
O1066 O 0.70601 0.24865 0.20293 0.0
O1067 O 0.69512 0.292 0.22035 0.0
O1068 O 0.55886 0.23504 0.23699 0.0
O1069 O 0.63694 0.25828 0.24771 0.0
O1070 O 0.65148 0.19891 0.22045 0.0
O1071 O 0.55425 0.17559 0.22793 0.0
H1072 H 0.2917 0.16805 0.23769 0.0
H1073 H 0.18204 0.18716 0.2389 0.0
H1074 H 0.22849 0.27065 0.2046 0.0
H1075 H 0.33728 0.25065 0.20296 0.0
H1076 H 0.82619 0.31591 0.19778 0.0
H1077 H 0.93954 0.3081 0.20232 0.0
H1078 H 0.90138 0.22088 0.23485 0.0
H1079 H 0.78783 0.22936 0.2305 0.0
Tb1080 Tb 0.8353 -0.00436 0.21723 0.0
Tb1081 Tb 0.70705 0.95732 0.21854 0.0
C1082 C 0.94681 0.01706 0.21912 0.0
C1083 C 1.01123 0.00319 0.22062 0.0
C1084 C 0.05586 0.02007 0.23097 0.0
C1085 C 0.11856 0.00902 0.23147 0.0
C1086 C 0.13788 0.98077 0.22161 0.0
C1087 C 0.09243 0.96333 0.21165 0.0
C1088 C 1.02986 0.97452 0.21109 0.0
C1089 C 0.76543 -0.00634 0.18819 0.0
C1090 C 0.83492 0.91576 0.21583 0.0
C1091 C 0.60252 0.93495 0.2082 0.0
C1092 C 0.53536 0.93794 0.21278 0.0
C1093 C 0.49182 0.91611 0.20491 0.0
C1094 C 0.42708 0.92082 0.20746 0.0
C1095 C 0.40468 0.94758 0.2179 0.0
C1096 C 0.44875 0.96871 0.22629 0.0
C1097 C 0.51359 0.96396 0.22373 0.0
C1098 C 0.74771 0.96693 0.25103 0.0
C1099 C 0.71797 0.03775 0.22537 0.0
O1100 O 0.90987 0.0138 0.23284 0.0
O1101 O 0.91729 0.01124 0.20431 0.0
O1102 O 0.77428 0.97024 0.19909 0.0
O1103 O 0.79724 0.0198 0.19333 0.0
O1104 O 0.86648 0.94382 0.21893 0.0
O1105 O 0.77268 0.91532 0.2135 0.0
O1106 O 0.62876 0.96258 0.20217 0.0
O1107 O 0.6389 0.91875 0.21932 0.0
O1108 O 0.77397 0.97558 0.2368 0.0
O1109 O 0.69534 0.95193 0.24703 0.0
O1110 O 0.68244 0.01183 0.22004 0.0
O1111 O 0.77905 0.03502 0.22812 0.0
H1112 H 0.04255 0.04237 0.23834 0.0
H1113 H 0.1523 0.02334 0.2391 0.0
H1114 H 0.10532 0.94119 0.20411 0.0
H1115 H 0.99639 0.96115 0.20292 0.0
H1116 H 0.50784 0.89591 0.1964 0.0
H1117 H 0.39451 0.90378 0.20103 0.0
H1118 H 0.43313 -0.01027 0.23429 0.0
H1119 H 0.54663 -0.01881 0.22984 0.0
Tb1120 Tb 0.4624 0.00286 0.97066 0.0
Tb1121 Tb 0.58202 0.9647 0.96604 0.0
C1122 C 0.35214 0.0268 0.96879 0.0
C1123 C 0.28549 0.01637 0.96782 0.0
C1124 C 0.26606 -0.01232 0.95845 0.0
C1125 C 0.20181 0.97939 0.95745 0.0
C1126 C 0.15601 -0.00032 0.96578 0.0
C1127 C 0.17615 0.02814 0.97528 0.0
C1128 C 0.24011 0.03637 0.97626 0.0
C1129 C 0.5283 -0.0029 0.99999 0.0
C1130 C 0.46621 0.92181 0.97335 0.0
C1131 C 0.69187 0.9402 0.96648 0.0
C1132 C 0.75845 0.95091 0.96539 0.0
C1133 C 0.78035 0.98029 0.97371 0.0
C1134 C 0.84454 -0.0113 0.97312 0.0
C1135 C 0.88802 0.9679 0.96419 0.0
C1136 C 0.8654 0.9389 0.9556 0.0
C1137 C 0.80137 0.93052 0.95622 0.0
C1138 C 0.50816 0.96895 0.93789 0.0
C1139 C 0.58564 0.04444 0.96482 0.0
O1140 O 0.38783 0.02081 0.95512 0.0
O1141 O 0.38135 0.02079 0.98356 0.0
O1142 O 0.52161 0.97465 0.98831 0.0
O1143 O 0.49805 0.0239 0.99505 0.0
O1144 O 0.43218 0.94918 0.9696 0.0
O1145 O 0.52745 0.92351 0.97572 0.0
O1146 O 0.66035 0.9486 0.98063 0.0
O1147 O 0.65826 0.94359 0.9522 0.0
O1148 O 0.52008 -0.00804 0.94879 0.0
O1149 O 0.54036 0.94244 0.94223 0.0
O1150 O 0.61664 0.0161 0.96757 0.0
O1151 O 0.52332 0.04516 0.96355 0.0
H1152 H 0.30036 0.97187 0.95181 0.0
H1153 H 0.18794 0.95745 0.94991 0.0
H1154 H 0.14249 0.04397 0.98213 0.0
H1155 H 0.25419 0.05855 0.9836 0.0
H1156 H 0.7481 -0.00354 0.98087 0.0
H1157 H 0.86029 0.01105 0.98002 0.0
H1158 H 0.89719 0.92265 0.94834 0.0
H1159 H 0.7854 0.90783 0.94965 0.0
Tb1160 Tb 0.35976 0.70817 0.9707 0.0
Tb1161 Tb 0.23891 0.74638 0.96633 0.0
C1162 C 0.47013 0.68481 0.96787 0.0
C1163 C 0.53581 0.69648 0.96615 0.0
C1164 C 0.57955 0.67589 0.95743 0.0
C1165 C 0.6433 0.68485 0.95677 0.0
C1166 C 0.66461 0.71462 0.9649 0.0
C1167 C 0.62021 0.7357 0.97325 0.0
C1168 C 0.55633 0.72675 0.97384 0.0
C1169 C 0.29419 0.71346 1.00006 0.0
C1170 C 0.35528 0.78925 0.97334 0.0
C1171 C 0.12954 0.77139 0.96724 0.0
C1172 C 0.06272 0.76118 0.96732 0.0
C1173 C 1.01875 0.78175 0.97595 0.0
C1174 C 0.95456 0.77376 0.97567 0.0
C1175 C 0.93293 0.74489 0.96675 0.0
C1176 C 0.97737 0.72409 0.95822 0.0
C1177 C 0.04172 0.73219 0.95849 0.0
C1178 C 0.31241 0.74228 0.93808 0.0
C1179 C 0.23588 0.66663 0.96544 0.0
O1180 O 0.43288 0.69021 0.95449 0.0
O1181 O 0.44213 0.69065 0.98287 0.0
O1182 O 0.2999 0.73593 0.98831 0.0
O1183 O 0.32715 0.68732 0.99553 0.0
O1184 O 0.38948 0.76191 0.96967 0.0
O1185 O 0.29399 0.78759 0.97569 0.0
O1186 O 0.16243 0.76417 0.9813 0.0
O1187 O 0.16127 0.7661 0.95274 0.0
O1188 O 0.30099 0.71931 0.94908 0.0
O1189 O 0.27987 0.76869 0.94238 0.0
O1190 O 0.20479 0.69495 0.96822 0.0
O1191 O 0.2982 0.6659 0.96399 0.0
H1192 H 0.5646 0.6524 0.95145 0.0
H1193 H 0.67619 0.66789 0.95039 0.0
H1194 H 0.63491 0.75905 0.9794 0.0
H1195 H 0.52324 0.74311 0.98057 0.0
H1196 H 1.03402 0.80436 0.98274 0.0
H1197 H 0.92175 0.79063 0.98215 0.0
H1198 H 0.96251 0.70146 0.95142 0.0
H1199 H 0.07491 0.71602 0.95168 0.0
Tb1200 Tb 0.46503 0.70891 0.85397 0.0
Tb1201 Tb 0.58553 0.74719 0.8576 0.0
C1202 C 0.3548 0.68548 0.85712 0.0
C1203 C 0.28896 0.69713 0.85856 0.0
C1204 C 0.24505 0.67676 0.86737 0.0
C1205 C 0.18123 0.68571 0.86781 0.0
C1206 C 0.15999 0.71525 0.85939 0.0
C1207 C 0.20455 0.73611 0.85095 0.0
C1208 C 0.2685 0.72717 0.85056 0.0
C1209 C 0.52788 0.71523 0.82413 0.0
C1210 C 0.46836 0.78996 0.85158 0.0
C1211 C 0.69478 0.77213 0.85573 0.0
C1212 C 0.76165 0.76192 0.85589 0.0
C1213 C 0.80585 0.78229 0.84721 0.0
C1214 C 0.87005 0.77428 0.84769 0.0
C1215 C 0.89151 0.7456 0.85685 0.0
C1216 C 0.84682 0.72502 0.86544 0.0
C1217 C 0.78245 0.73313 0.86497 0.0
C1218 C 0.51498 0.74243 0.88641 0.0
C1219 C 0.58898 0.66737 0.8586 0.0
O1220 O 0.39185 0.69179 0.87041 0.0
O1221 O 0.38294 0.69047 0.84205 0.0
O1222 O 0.52238 0.73744 0.83598 0.0
O1223 O 0.49735 0.68849 0.82903 0.0
O1224 O 0.43479 0.7625 0.85537 0.0
O1225 O 0.52938 0.78845 0.84875 0.0
O1226 O 0.66163 0.76336 0.84197 0.0
O1227 O 0.66336 0.76843 0.87041 0.0
O1228 O 0.52552 0.71967 0.87524 0.0
O1229 O 0.54697 0.76895 0.88196 0.0
O1230 O 0.61978 0.69573 0.8557 0.0
O1231 O 0.52683 0.66664 0.86042 0.0
H1232 H 0.25994 0.65345 0.87358 0.0
H1233 H 0.14825 0.6689 0.87428 0.0
H1234 H 0.18994 0.75929 0.84457 0.0
H1235 H 0.30171 0.74335 0.84376 0.0
H1236 H 0.79074 0.80475 0.84023 0.0
H1237 H 0.90302 0.79101 0.84116 0.0
H1238 H 0.86152 0.70253 0.87244 0.0
H1239 H 0.74906 0.71713 0.87182 0.0
Tb1240 Tb 0.35876 0.00293 0.85392 0.0
Tb1241 Tb 0.23799 0.96462 0.85692 0.0
C1242 C 0.46883 0.02628 0.8576 0.0
C1243 C 0.53473 0.01463 0.85872 0.0
C1244 C 0.57886 0.03468 0.86759 0.0
C1245 C 0.64267 0.0257 0.86781 0.0
C1246 C 0.66369 -0.00354 0.85911 0.0
C1247 C 0.61892 0.97593 0.85057 0.0
C1248 C 0.55497 -0.01509 0.85041 0.0
C1249 C 0.29788 -0.00317 0.82379 0.0
C1250 C 0.35555 0.92191 0.85132 0.0
C1251 C 0.12887 0.93977 0.85433 0.0
C1252 C 0.06198 0.94989 0.85467 0.0
C1253 C 1.01771 0.92978 0.84591 0.0
C1254 C 0.9535 0.93774 0.84653 0.0
C1255 C 0.93212 0.96613 0.85593 0.0
C1256 C 0.97688 -0.01354 0.8646 0.0
C1257 C 0.04126 0.97839 0.86399 0.0
C1258 C 0.30641 0.96924 0.88609 0.0
C1259 C 0.23465 0.04442 0.85841 0.0
O1260 O 0.43183 0.01857 0.87073 0.0
O1261 O 0.44075 0.02268 0.84244 0.0
O1262 O 0.30267 0.97453 0.83564 0.0
O1263 O 0.32811 0.02352 0.82883 0.0
O1264 O 0.38892 0.94933 0.85528 0.0
O1265 O 0.29473 0.92348 0.8482 0.0
O1266 O 0.16225 0.9499 0.84084 0.0
O1267 O 0.15998 0.94211 0.86911 0.0
O1268 O 0.29669 -0.00796 0.87486 0.0
O1269 O 0.27472 0.94275 0.88148 0.0
O1270 O 0.2039 0.01616 0.85526 0.0
O1271 O 0.29672 0.04505 0.86043 0.0
H1272 H 0.56412 0.05775 0.87405 0.0
H1273 H 0.6758 0.04227 0.87435 0.0
H1274 H 0.63336 0.95298 0.84397 0.0
H1275 H 0.52157 0.96898 0.84355 0.0
H1276 H 1.03278 0.90755 0.83874 0.0
H1277 H 0.92049 0.92122 0.83993 0.0
H1278 H 0.96223 0.00873 0.87178 0.0
H1279 H 0.07472 -0.00581 0.8709 0.0
C1280 C 0.88717 0.38759 0.1108 0.0
C1281 C 0.95356 0.38619 0.10966 0.0
H1282 H 0.80013 0.36012 0.11144 0.0
C1283 C 0.98305 0.3545 0.1091 0.0
H1284 H 0.86274 0.41157 0.11144 0.0
C1285 C 0.9469 0.32495 0.10911 0.0
C1286 C 0.88041 0.3264 0.10975 0.0
H1287 H 1.03393 0.35249 0.10825 0.0
H1288 H 0.97129 0.30094 0.10836 0.0
C1289 C 0.85105 0.35806 0.11087 0.0
C1290 C 0.47487 0.85568 0.10864 0.0
C1291 C 0.44627 0.88732 0.11063 0.0
H1292 H 0.46204 0.80262 0.10615 0.0
C1293 C 0.38012 0.88896 0.1126 0.0
H1294 H 0.52549 0.8535 0.10702 0.0
C1295 C 0.3433 0.85962 0.1122 0.0
C1296 C 0.37181 0.82801 0.10974 0.0
H1297 H 0.3565 0.91298 0.11431 0.0
H1298 H 0.29259 0.86181 0.11356 0.0
C1299 C 0.43812 0.82645 0.10812 0.0
C1300 C 0.84398 0.85247 0.2131 0.0
C1301 C 0.8727 0.88418 0.21478 0.0
H1302 H 0.85698 0.79901 0.21178 0.0
C1303 C 0.93915 0.88575 0.21578 0.0
H1304 H 0.79312 0.85025 0.2123 0.0
C1305 C 0.97589 0.85648 0.21526 0.0
C1306 C 0.9472 0.82475 0.21396 0.0
H1307 H 0.96324 0.90964 0.21719 0.0
H1308 H 1.02669 0.85874 0.2163 0.0
C1309 C 0.8808 0.82308 0.21278 0.0
C1310 C 0.35945 0.35494 0.21483 0.0
C1311 C 0.38863 0.38653 0.21338 0.0
H1312 H 0.37136 0.30177 0.2172 0.0
C1313 C 0.45507 0.38796 0.21242 0.0
H1314 H 0.30858 0.35289 0.21573 0.0
C1315 C 0.49148 0.35846 0.21306 0.0
C1316 C 0.46227 0.32688 0.21487 0.0
H1317 H 0.47922 0.41193 0.2113 0.0
H1318 H 0.54239 0.36047 0.21238 0.0
C1319 C 0.39578 0.32555 0.21569 0.0
C1320 C 0.19176 0.57405 0.9636 0.0
C1321 C 0.12528 0.5756 0.96357 0.0
H1322 H 0.2789 0.60142 0.96408 0.0
C1323 C 0.09582 0.60728 0.96344 0.0
H1324 H 0.21615 0.55004 0.96368 0.0
C1325 C 0.13199 0.63673 0.96381 0.0
C1326 C 0.19846 0.63519 0.96416 0.0
H1327 H 0.04486 0.60938 0.96344 0.0
H1328 H 0.10756 0.66073 0.96402 0.0
C1329 C 0.22795 0.60352 0.96382 0.0
C1330 C 0.6296 0.13705 0.96412 0.0
C1331 C 0.69607 0.13556 0.96363 0.0
H1332 H 0.54255 0.10963 0.96475 0.0
C1333 C 0.72551 0.10391 0.96268 0.0
H1334 H 0.60517 0.16102 0.96483 0.0
C1335 C 0.68937 0.07441 0.96269 0.0
C1336 C 0.62296 0.07591 0.96359 0.0
H1337 H 0.77646 0.10183 0.96224 0.0
H1338 H 0.71374 0.05038 0.96219 0.0
C1339 C 0.59346 0.10757 0.96404 0.0
C1340 C 0.09498 0.10411 0.85951 0.0
C1341 C 0.12476 0.13568 0.85941 0.0
H1342 H 0.10631 0.0506 0.8592 0.0
C1343 C 0.19121 0.13704 0.85976 0.0
H1344 H 0.04401 0.10217 0.85924 0.0
C1345 C 0.22711 0.10747 0.85986 0.0
C1346 C 0.19735 0.0759 0.85947 0.0
H1347 H 0.2158 0.16098 0.85973 0.0
H1348 H 0.27809 0.10942 0.85987 0.0
C1349 C 0.13089 0.07454 0.85946 0.0
C1350 C 0.69279 0.6373 0.8596 0.0
C1351 C 0.62633 0.63588 0.85947 0.0
H1352 H 0.77978 0.60977 0.85926 0.0
C1353 C 0.59668 0.60427 0.85948 0.0
H1354 H 0.71729 0.66127 0.85963 0.0
C1355 C 0.6327 0.57474 0.85914 0.0
C1356 C 0.69916 0.57617 0.85893 0.0
H1357 H 0.54571 0.60228 0.85936 0.0
H1358 H 0.60818 0.55079 0.85882 0.0
C1359 C 0.72881 0.60777 0.85941 0.0
C1360 C 0.88076 0.88852 0.61061 0.0
C1361 C 0.94718 0.88701 0.60964 0.0
H1362 H 0.79351 0.86112 0.61099 0.0
C1363 C 0.97646 0.85536 0.60863 0.0
H1364 H 0.85655 0.91254 0.61141 0.0
C1365 C 0.94018 0.82597 0.60818 0.0
C1366 C 0.87371 0.82741 0.60896 0.0
H1367 H 1.02734 0.85327 0.60776 0.0
H1368 H 0.9646 0.80211 0.607 0.0
C1369 C 0.84443 0.85904 0.61037 0.0
C1370 C 0.35027 0.35838 0.60814 0.0
C1371 C 0.37959 0.32676 0.60957 0.0
H1372 H 0.36217 0.41171 0.60614 0.0
C1373 C 0.44588 0.32536 0.611 0.0
H1374 H 0.29947 0.36038 0.60699 0.0
C1375 C 0.48212 0.35486 0.61056 0.0
C1376 C 0.4529 0.38642 0.60862 0.0
H1377 H 0.47007 0.30141 0.6123 0.0
H1378 H 0.53299 0.35283 0.61145 0.0
C1379 C 0.38649 0.38783 0.60761 0.0
C1380 C 0.98001 0.35798 0.71292 0.0
C1381 C 0.95029 0.3264 0.71343 0.0
H1382 H 0.96865 0.41148 0.71273 0.0
C1383 C 0.88382 0.32502 0.71329 0.0
H1384 H 1.03099 0.35994 0.71301 0.0
C1385 C 0.84788 0.35458 0.713 0.0
C1386 C 0.87762 0.38618 0.71299 0.0
H1387 H 0.85924 0.30109 0.71363 0.0
H1388 H 0.7969 0.35264 0.71318 0.0
C1389 C 0.94408 0.38754 0.71278 0.0
C1390 C 0.38444 0.82492 0.71375 0.0
C1391 C 0.45091 0.82637 0.71389 0.0
H1392 H 0.29737 0.85241 0.71379 0.0
C1393 C 0.48047 0.858 0.71355 0.0
H1394 H 0.35997 0.80095 0.71398 0.0
C1395 C 0.44436 0.88752 0.71356 0.0
C1396 C 0.3779 0.88607 0.71377 0.0
H1397 H 0.53143 0.86004 0.71366 0.0
H1398 H 0.46883 0.9115 0.71364 0.0
C1399 C 0.34834 0.85444 0.71362 0.0
C1400 C 0.09262 0.10578 0.46456 0.0
C1401 C 0.12172 0.07404 0.46361 0.0
H1402 H 0.10492 0.15918 0.46588 0.0
C1403 C 0.18809 0.07247 0.46239 0.0
H1404 H 0.04178 0.10792 0.46554 0.0
C1405 C 0.22454 0.10191 0.46252 0.0
C1406 C 0.19554 0.13363 0.46394 0.0
H1407 H 0.21222 0.04842 0.46152 0.0
H1408 H 0.27543 0.09973 0.4618 0.0
C1409 C 0.12908 0.1352 0.46478 0.0
C1410 C 0.63608 0.63414 0.46573 0.0
C1411 C 0.70246 0.63283 0.46446 0.0
H1412 H 0.54902 0.60676 0.46617 0.0
C1413 C 0.73164 0.60135 0.46216 0.0
H1414 H 0.61173 0.65786 0.46762 0.0
C1415 C 0.69531 0.57188 0.4615 0.0
C1416 C 0.629 0.57328 0.46297 0.0
H1417 H 0.78248 0.59937 0.4611 0.0
H1418 H 0.71941 0.54794 0.45998 0.0
C1419 C 0.5998 0.60479 0.46487 0.0
C1420 C 0.13161 0.57413 0.35778 0.0
C1421 C 0.19807 0.57564 0.35864 0.0
H1422 H 0.04425 0.60142 0.35723 0.0
C1423 C 0.22695 0.60732 0.36037 0.0
H1424 H 0.1075 0.55018 0.35648 0.0
C1425 C 0.19038 0.63677 0.36076 0.0
C1426 C 0.12403 0.63526 0.35949 0.0
H1427 H 0.27782 0.60947 0.36114 0.0
H1428 H 0.2144 0.66078 0.3619 0.0
C1429 C 0.09506 0.60354 0.35826 0.0
C1430 C 0.72142 0.10577 0.36336 0.0
C1431 C 0.69534 0.07496 0.35798 0.0
H1432 H 0.70557 0.15827 0.36812 0.0
C1433 C 0.6308 0.07394 0.35338 0.0
H1434 H 0.77056 0.10745 0.36716 0.0
C1435 C 0.59348 0.10302 0.35397 0.0
C1436 C 0.61999 0.1339 0.35894 0.0
H1437 H 0.60894 0.05074 0.34903 0.0
H1438 H 0.54446 0.10149 0.35002 0.0
C1439 C 0.6841 0.1349 0.36384 0.0
C1440 C 0.14775 0.52361 0.15457 0.0
C1441 C 0.12287 0.49317 0.14809 0.0
H1442 H 0.2159 0.54742 0.17132 0.0
C1443 C 0.14944 0.46259 0.15391 0.0
H1444 H 0.12855 0.54761 0.1503 0.0
C1445 C 0.19978 0.46248 0.16594 0.0
C1446 C 0.22441 0.49294 0.17247 0.0
H1447 H 0.13103 0.43871 0.14925 0.0
H1448 H 0.21931 0.43854 0.17018 0.0
C1449 C 0.19813 0.5235 0.16652 0.0
C1450 C 0.19223 0.74908 0.15607 0.0
C1451 C 0.21672 0.71863 0.14941 0.0
H1452 H 0.1235 0.77283 0.17279 0.0
C1453 C 0.19107 0.68804 0.15549 0.0
H1454 H 0.21096 0.77306 0.15162 0.0
C1455 C 0.14111 0.68792 0.16763 0.0
C1456 C 0.11605 0.71838 0.17413 0.0
H1457 H 0.20874 0.66417 0.15058 0.0
H1458 H 0.12224 0.66392 0.172 0.0
C1459 C 0.14218 0.74895 0.16819 0.0
C1460 C 0.88739 0.50002 0.90466 0.0
C1461 C 0.86212 0.46952 0.89837 0.0
H1462 H 0.95581 0.52384 0.92144 0.0
C1463 C 0.88716 0.43898 0.90474 0.0
H1464 H 0.86877 0.52396 0.90011 0.0
C1465 C 0.93673 0.43891 0.91695 0.0
C1466 C 0.96202 0.46939 0.92326 0.0
H1467 H 0.86889 0.41503 0.90012 0.0
H1468 H 0.95481 0.41492 0.9216 0.0
C1469 C 0.937 0.49996 0.91692 0.0
C1470 C 0.93472 0.27261 0.90537 0.0
C1471 C 0.9601 0.24214 0.89904 0.0
H1472 H 0.86646 0.29648 0.92211 0.0
C1473 C 0.93478 0.21157 0.90527 0.0
H1474 H 0.95302 0.29661 0.9008 0.0
C1475 C 0.88483 0.21149 0.91745 0.0
C1476 C 0.85947 0.24199 0.92375 0.0
H1477 H 0.95366 0.18768 0.90075 0.0
H1478 H 0.86602 0.18756 0.92193 0.0
C1479 C 0.88478 0.27254 0.91748 0.0
C1480 C 0.13663 0.96266 0.65602 0.0
C1481 C 0.11158 -0.00675 0.64971 0.0
H1482 H 0.20551 0.93858 0.67258 0.0
C1483 C 0.13738 0.0237 0.65589 0.0
H1484 H 0.11745 0.93879 0.65159 0.0
C1485 C 0.18755 0.02358 0.66792 0.0
C1486 C 0.21269 -0.00699 0.67422 0.0
H1487 H 0.1193 0.04771 0.65126 0.0
H1488 H 0.20625 0.0475 0.67243 0.0
C1489 C 0.18683 0.96254 0.66808 0.0
C1490 C 0.18799 0.25087 0.65537 0.0
C1491 C 0.21397 0.22039 0.64925 0.0
H1492 H 0.1188 0.27463 0.67198 0.0
C1493 C 0.18891 0.18982 0.65558 0.0
H1494 H 0.20652 0.27482 0.65082 0.0
C1495 C 0.13881 0.18972 0.66765 0.0
C1496 C 0.11305 0.22017 0.67387 0.0
H1497 H 0.20766 0.16589 0.65108 0.0
H1498 H 0.12082 0.16572 0.67231 0.0
C1499 C 0.13796 0.25076 0.66752 0.0
C1500 C 0.92691 0.9361 0.41838 0.0
C1501 C 0.95147 0.96657 0.42494 0.0
H1502 H 0.86036 0.91225 0.40112 0.0
C1503 C 0.92559 -0.00286 0.41888 0.0
H1504 H 0.9456 0.91211 0.42284 0.0
C1505 C 0.87647 -0.00279 0.40648 0.0
C1506 C 0.85246 0.96672 0.39977 0.0
H1507 H 0.94381 0.02103 0.42357 0.0
H1508 H 0.8579 0.02116 0.40191 0.0
C1509 C 0.87774 0.93616 0.40603 0.0
C1510 C 0.93152 0.77271 0.40542 0.0
C1511 C 0.95631 0.74226 0.39887 0.0
H1512 H 0.86505 0.7965 0.42279 0.0
C1513 C 0.93115 0.71166 0.40511 0.0
H1514 H 0.94967 0.79672 0.40083 0.0
C1515 C 0.88242 0.71154 0.41765 0.0
C1516 C 0.85805 0.74202 0.42431 0.0
H1517 H 0.94956 0.6878 0.40041 0.0
H1518 H 0.86433 0.68758 0.42232 0.0
C1519 C 0.88271 0.7726 0.41791 0.0
C1520 C 0.63998 0.46285 0.65429 0.0
C1521 C 0.61536 0.49342 0.64782 0.0
H1522 H 0.70744 0.43882 0.67131 0.0
C1523 C 0.64056 0.52389 0.65417 0.0
H1524 H 0.62126 0.43896 0.64974 0.0
C1525 C 0.68973 0.52381 0.66651 0.0
C1526 C 0.71441 0.49325 0.67298 0.0
H1527 H 0.62279 0.54788 0.64942 0.0
H1528 H 0.70803 0.54774 0.67113 0.0
C1529 C 0.68911 0.46276 0.66668 0.0
C1530 C 0.69212 0.74938 0.65614 0.0
C1531 C 0.71653 0.71879 0.64964 0.0
H1532 H 0.62421 0.77347 0.673 0.0
C1533 C 0.69115 0.68833 0.65598 0.0
H1534 H 0.7107 0.77327 0.6515 0.0
C1535 C 0.64164 0.68846 0.66827 0.0
C1536 C 0.61684 0.71905 0.67466 0.0
H1537 H 0.7088 0.66435 0.65122 0.0
H1538 H 0.62301 0.66455 0.67284 0.0
C1539 C 0.64265 0.74951 0.66845 0.0
C1540 C 0.38793 0.49843 0.40422 0.0
C1541 C 0.3626 0.46806 0.39777 0.0
H1542 H 0.45687 0.5219 0.42095 0.0
C1543 C 0.3879 0.43739 0.40389 0.0
H1544 H 0.36912 0.52246 0.39987 0.0
C1545 C 0.43779 0.43707 0.416 0.0
C1546 C 0.46321 0.46741 0.42245 0.0
H1547 H 0.36959 0.41355 0.39915 0.0
H1548 H 0.45605 0.41299 0.42046 0.0
C1549 C 0.43795 0.49811 0.41634 0.0
C1550 C 0.38665 0.27172 0.41828 0.0
C1551 C 0.36144 0.24101 0.4244 0.0
H1552 H 0.45445 0.29619 0.40156 0.0
C1553 C 0.38714 0.21068 0.418 0.0
H1554 H 0.36811 0.29555 0.42301 0.0
C1555 C 0.43698 0.21106 0.40581 0.0
C1556 C 0.46179 0.2418 0.39959 0.0
H1557 H 0.36841 0.18663 0.42234 0.0
H1558 H 0.45556 0.18728 0.40104 0.0
C1559 C 0.43648 0.27212 0.40611 0.0
C1560 C 0.69016 0.02442 0.16821 0.0
C1561 C 0.7156 -0.00616 0.17438 0.0
H1562 H 0.62179 0.04854 0.15156 0.0
C1563 C 0.69123 0.96338 0.16773 0.0
H1564 H 0.70778 0.04831 0.17308 0.0
C1565 C 0.64164 0.9635 0.15548 0.0
C1566 C 0.61565 -0.00592 0.14948 0.0
H1567 H 0.70986 0.93941 0.17223 0.0
H1568 H 0.62318 0.93963 0.15084 0.0
C1569 C 0.64054 0.02453 0.15598 0.0
C1570 C 0.69354 0.18825 0.15544 0.0
C1571 C 0.71862 0.21893 0.14923 0.0
H1572 H 0.62651 0.16388 0.17244 0.0
C1573 C 0.69375 0.24929 0.15584 0.0
H1574 H 0.71146 0.1644 0.15056 0.0
C1575 C 0.6447 0.24898 0.16827 0.0
C1576 C 0.61985 0.21829 0.17454 0.0
H1577 H 0.71234 0.27331 0.15141 0.0
H1578 H 0.62667 0.27279 0.17316 0.0
C1579 C 0.64449 0.18793 0.16787 0.0
C1580 C 0.38141 5e-05 0.90619 0.0
C1581 C 0.35696 0.96954 0.89966 0.0
H1582 H 0.44907 0.02388 0.9232 0.0
C1583 C 0.38233 0.939 0.90592 0.0
H1584 H 0.36253 0.02397 0.9017 0.0
C1585 C 0.43171 0.93895 0.91818 0.0
C1586 C 0.45644 0.96942 0.92467 0.0
H1587 H 0.36464 0.91506 0.90113 0.0
H1588 H 0.45025 0.91496 0.92269 0.0
C1589 C 0.43076 -1e-05 0.91853 0.0
C1590 C 0.43868 0.77249 0.9062 0.0
C1591 C 0.46383 0.742 0.89983 0.0
H1592 H 0.3709 0.79641 0.92308 0.0
C1593 C 0.43878 0.71144 0.90617 0.0
H1594 H 0.45679 0.79647 0.90156 0.0
C1595 C 0.38923 0.7114 0.91846 0.0
C1596 C 0.36401 0.74193 0.92479 0.0
H1597 H 0.45748 0.68755 0.9016 0.0
H1598 H 0.3705 0.68748 0.92299 0.0
C1599 C 0.38914 0.77245 0.91844 0.0
C1600 C 0.12178 0.63641 0.09885 0.0
C1601 C 0.18713 0.641 0.09806 0.0
H1602 H 0.04578 0.60131 0.09977 0.0
C1603 C 0.22679 0.61237 0.09727 0.0
H1604 H 0.09011 0.65786 0.09951 0.0
C1605 C 0.20159 0.5798 0.09763 0.0
C1606 C 0.13623 0.57525 0.09853 0.0
H1607 H 0.27763 0.615 0.0968 0.0
H1608 H 0.23322 0.55831 0.0973 0.0
C1609 C 0.09658 0.60389 0.09897 0.0
C1610 C 0.10269 0.60837 0.22234 0.0
C1611 C 0.13979 0.63792 0.22224 0.0
H1612 H 0.10111 0.55431 0.22176 0.0
C1613 C 0.20559 0.63502 0.22183 0.0
H1614 H 0.05165 0.60973 0.22252 0.0
C1615 C 0.23375 0.60319 0.22155 0.0
C1616 C 0.19664 0.57365 0.22146 0.0
H1617 H 0.23532 0.65725 0.22167 0.0
H1618 H 0.28477 0.60184 0.22113 0.0
C1619 C 0.13084 0.57655 0.22185 0.0
C1620 C 0.8452 0.35228 0.97233 0.0
C1621 C 0.88364 0.32318 0.97222 0.0
H1622 H 0.84127 0.40631 0.97209 0.0
C1623 C 0.94925 0.3268 0.9721 0.0
H1624 H 0.79423 0.35033 0.97228 0.0
C1625 C 0.97597 0.35893 0.97215 0.0
C1626 C 0.93754 0.38802 0.97211 0.0
H1627 H 0.97991 0.3049 0.97195 0.0
H1628 H 1.02695 0.36086 0.97195 0.0
C1629 C 0.87193 0.38441 0.97217 0.0
C1630 C 0.95131 0.3847 0.84997 0.0
C1631 C 0.88576 0.38853 0.84965 0.0
H1632 H 1.02864 0.35038 0.85041 0.0
C1633 C 0.84702 0.35958 0.84944 0.0
H1634 H 0.98218 0.40649 0.85019 0.0
C1635 C 0.8734 0.32736 0.84973 0.0
C1636 C 0.93895 0.32354 0.85002 0.0
H1637 H 0.79607 0.36169 0.84934 0.0
H1638 H 0.84253 0.30557 0.84975 0.0
C1639 C 0.9777 0.35249 0.85005 0.0
C1640 C 0.09861 0.10357 0.60066 0.0
C1641 C 0.1366 0.07431 0.60086 0.0
H1642 H 0.09543 0.15763 0.60076 0.0
C1643 C 0.20228 0.07769 0.60094 0.0
H1644 H 0.04761 0.10184 0.60074 0.0
C1645 C 0.22949 0.10974 0.60079 0.0
C1646 C 0.19149 0.13899 0.60077 0.0
H1647 H 0.23265 0.05568 0.60114 0.0
H1648 H 0.28049 0.11148 0.60097 0.0
C1649 C 0.12581 0.13561 0.60072 0.0
C1650 C 0.09872 0.10964 0.72273 0.0
C1651 C 0.13726 0.13867 0.7227 0.0
H1652 H 0.09459 0.05563 0.72255 0.0
C1653 C 0.20285 0.13496 0.7228 0.0
H1654 H 0.04775 0.11166 0.72251 0.0
C1655 C 0.22946 0.10279 0.72299 0.0
C1656 C 0.19092 0.07376 0.72286 0.0
H1657 H 0.23357 0.15681 0.72273 0.0
H1658 H 0.28043 0.10077 0.72295 0.0
C1659 C 0.12533 0.07747 0.72271 0.0
C1660 C 0.95066 0.82455 0.47576 0.0
C1661 C 0.88519 0.82017 0.47606 0.0
H1662 H 1.02714 0.85933 0.4751 0.0
C1663 C 0.8458 0.84893 0.47639 0.0
H1664 H 0.98214 0.80299 0.47549 0.0
C1665 C 0.87144 0.88141 0.47595 0.0
C1666 C 0.93693 0.88573 0.47543 0.0
H1667 H 0.79491 0.84646 0.47649 0.0
H1668 H 0.84004 0.90301 0.47586 0.0
C1669 C 0.97626 0.85696 0.47556 0.0
C1670 C 0.97421 0.85231 0.34866 0.0
C1671 C 0.93576 0.82325 0.34877 0.0
H1672 H 0.97846 0.90633 0.34879 0.0
C1673 C 0.87012 0.82707 0.34835 0.0
H1674 H 1.02516 0.85032 0.34905 0.0
C1675 C 0.84348 0.85935 0.348 0.0
C1676 C 0.88199 0.8884 0.34829 0.0
H1677 H 0.83937 0.80523 0.34844 0.0
H1678 H 0.79253 0.86143 0.34794 0.0
C1679 C 0.94761 0.88452 0.34854 0.0
C1680 C 0.70494 0.57876 0.59791 0.0
C1681 C 0.63944 0.57445 0.59798 0.0
H1682 H 0.78147 0.6137 0.59794 0.0
C1683 C 0.60011 0.60322 0.59779 0.0
H1684 H 0.73631 0.55716 0.59807 0.0
C1685 C 0.6257 0.63563 0.59788 0.0
C1686 C 0.69117 0.63999 0.59793 0.0
H1687 H 0.5492 0.60084 0.59794 0.0
H1688 H 0.59421 0.65719 0.59804 0.0
C1689 C 0.73059 0.61123 0.59776 0.0
C1690 C 0.62564 0.57763 0.72305 0.0
C1691 C 0.69119 0.5739 0.7225 0.0
H1692 H 0.54818 0.61184 0.72384 0.0
C1693 C 0.72981 0.60289 0.72246 0.0
H1694 H 0.59487 0.55579 0.72306 0.0
C1695 C 0.7033 0.63506 0.72277 0.0
C1696 C 0.63774 0.6388 0.72331 0.0
H1697 H 0.78074 0.60085 0.72191 0.0
H1698 H 0.73407 0.65688 0.7225 0.0
C1699 C 0.59913 0.6098 0.72356 0.0
C1700 C 0.37464 0.38241 0.47258 0.0
C1701 C 0.44028 0.38575 0.47182 0.0
H1702 H 0.29642 0.34869 0.47353 0.0
C1703 C 0.47818 0.35646 0.47159 0.0
H1704 H 0.34435 0.40446 0.47276 0.0
C1705 C 0.45092 0.32444 0.47189 0.0
C1706 C 0.38528 0.32108 0.47263 0.0
H1707 H 0.52913 0.35815 0.47088 0.0
H1708 H 0.48122 0.30241 0.47146 0.0
C1709 C 0.3474 0.35038 0.47308 0.0
C1710 C 0.37318 0.32633 0.34781 0.0
C1711 C 0.43866 0.32202 0.34835 0.0
H1712 H 0.29641 0.36102 0.34744 0.0
C1713 C 0.47782 0.35084 0.34862 0.0
H1714 H 0.34183 0.30474 0.3476 0.0
C1715 C 0.4519 0.3833 0.34872 0.0
C1716 C 0.38636 0.38755 0.34832 0.0
H1717 H 0.52869 0.34843 0.34918 0.0
H1718 H 0.48309 0.40493 0.34923 0.0
C1719 C 0.34733 0.35872 0.34768 0.0
C1720 C 0.59771 0.10371 0.09983 0.0
C1721 C 0.63559 0.0744 0.10012 0.0
H1722 H 0.59477 0.15779 0.09986 0.0
C1723 C 0.70129 0.07772 0.10018 0.0
H1724 H 0.5467 0.10203 0.09989 0.0
C1725 C 0.72861 0.10973 0.10002 0.0
C1726 C 0.69073 0.13903 0.09999 0.0
H1727 H 0.73158 0.05567 0.10045 0.0
H1728 H 0.77961 0.11141 0.10024 0.0
C1729 C 0.62504 0.13573 0.09987 0.0
C1730 C 0.7075 0.1332 0.22708 0.0
C1731 C 0.64225 0.13849 0.22676 0.0
H1732 H 0.78244 0.09729 0.22716 0.0
C1733 C 0.60164 0.11022 0.22679 0.0
H1734 H 0.73991 0.15435 0.22705 0.0
C1735 C 0.62581 0.0774 0.22664 0.0
C1736 C 0.69108 0.07212 0.22673 0.0
H1737 H 0.55088 0.11332 0.22644 0.0
H1738 H 0.59342 0.05626 0.22626 0.0
C1739 C 0.73166 0.10038 0.2272 0.0
C1740 C 0.44975 0.82687 0.9743 0.0
C1741 C 0.3842 0.82299 0.97407 0.0
H1742 H 0.52698 0.86124 0.97444 0.0
C1743 C 0.34539 0.85195 0.97401 0.0
H1744 H 0.48072 0.8051 0.97431 0.0
C1745 C 0.37168 0.8842 0.97393 0.0
C1746 C 0.43723 0.88808 0.97411 0.0
H1747 H 0.29445 0.84983 0.97371 0.0
H1748 H 0.34072 0.90598 0.97364 0.0
C1749 C 0.47603 0.85912 0.97442 0.0
C1750 C 0.47735 0.85261 0.85111 0.0
C1751 C 0.43895 0.82354 0.85107 0.0
H1752 H 0.48118 0.90662 0.85133 0.0
C1753 C 0.37334 0.82714 0.85093 0.0
H1754 H 0.52833 0.85066 0.85137 0.0
C1755 C 0.34656 0.85926 0.85075 0.0
C1756 C 0.38496 0.88833 0.85092 0.0
H1757 H 0.34273 0.80524 0.85095 0.0
H1758 H 0.29558 0.86122 0.85073 0.0
C1759 C 0.45057 0.88473 0.85114 0.0
C1760 C 0.5975 0.45355 0.11162 0.0
C1761 C 0.61869 0.48685 0.10917 0.0
H1762 H 0.51845 0.42009 0.11324 0.0
C1763 C 0.57362 0.51246 0.1064 0.0
H1764 H 0.63073 0.4333 0.11408 0.0
C1765 C 0.50914 0.5049 0.10593 0.0
C1766 C 0.48802 0.47152 0.10817 0.0
H1767 H 0.58823 0.53832 0.10421 0.0
H1768 H 0.47594 0.52511 0.10336 0.0
C1769 C 0.53304 0.44599 0.11115 0.0
C1770 C 0.731 0.75018 0.119 0.0
C1771 C 0.70407 0.74092 0.10282 0.0
H1772 H 0.81443 0.76428 0.13297 0.0
C1773 C 0.74295 0.74027 0.08781 0.0
H1774 H 0.70294 0.75035 0.1309 0.0
C1775 C 0.80721 0.74818 0.08902 0.0
C1776 C 0.83418 0.75705 0.10525 0.0
H1777 H 0.7237 0.73373 0.07509 0.0
H1778 H 0.83574 0.7475 0.07721 0.0
C1779 C 0.79511 0.75816 0.1202 0.0
C1780 C 0.57099 0.69801 0.21266 0.0
C1781 C 0.61619 0.72377 0.21461 0.0
H1782 H 0.47317 0.68512 0.21052 0.0
C1783 C 0.59511 0.75734 0.21595 0.0
H1784 H 0.58551 0.67192 0.21129 0.0
C1785 C 0.53055 0.76491 0.21557 0.0
C1786 C 0.48525 0.73913 0.21377 0.0
H1787 H 0.62847 0.77777 0.21769 0.0
H1788 H 0.51616 0.79099 0.21709 0.0
C1789 C 0.50645 0.70559 0.21223 0.0
C1790 C 0.82371 0.48519 0.22916 0.0
C1791 C 0.8518 0.47354 0.21355 0.0
H1792 H 0.73897 0.50057 0.24221 0.0
C1793 C 0.81343 0.46913 0.19864 0.0
H1794 H 0.85151 0.48827 0.24098 0.0
C1795 C 0.7487 0.47623 0.19933 0.0
C1796 C 0.72059 0.48787 0.21496 0.0
H1797 H 0.83358 0.46058 0.18634 0.0
H1798 H 0.72091 0.47312 0.18751 0.0
C1799 C 0.75902 0.4922 0.22986 0.0
C1800 C 0.55154 0.49309 0.94913 0.0
C1801 C 0.58998 0.48792 0.96396 0.0
H1802 H 0.4589 0.4898 0.93802 0.0
C1803 C 0.56202 0.47561 0.97945 0.0
H1804 H 0.57163 0.50219 0.93692 0.0
C1805 C 0.49734 0.46869 0.98012 0.0
C1806 C 0.45884 0.47379 0.9653 0.0
H1807 H 0.58991 0.47194 0.99122 0.0
H1808 H 0.47735 0.45979 0.99238 0.0
C1809 C 0.48681 0.48609 0.94978 0.0
C1810 C 0.34154 0.2034 0.96625 0.0
C1811 C 0.36274 0.23687 0.96452 0.0
H1812 H 0.26243 0.16995 0.96757 0.0
C1813 C 0.31777 0.26261 0.96207 0.0
H1814 H 0.37475 0.18301 0.9684 0.0
C1815 C 0.25326 0.25514 0.96153 0.0
C1816 C 0.23197 0.22171 0.96345 0.0
H1817 H 0.33246 0.28861 0.96039 0.0
H1818 H 0.22009 0.27556 0.95945 0.0
C1819 C 0.27703 0.19592 0.96575 0.0
C1820 C 0.55225 0.21816 0.87322 0.0
C1821 C 0.59043 0.22358 0.85835 0.0
H1822 H 0.45976 0.22123 0.88448 0.0
C1823 C 0.56224 0.2361 0.84294 0.0
H1824 H 0.57256 0.2089 0.88536 0.0
C1825 C 0.49755 0.24299 0.8424 0.0
C1826 C 0.45929 0.23763 0.85727 0.0
H1827 H 0.58998 0.23996 0.83115 0.0
H1828 H 0.47734 0.25205 0.83021 0.0
C1829 C 0.4875 0.22513 0.87269 0.0
C1830 C 0.27214 0.49328 0.87247 0.0
C1831 C 0.23391 0.48839 0.85758 0.0
H1832 H 0.36465 0.4898 0.88364 0.0
C1833 C 0.26206 0.47639 0.84206 0.0
H1834 H 0.25186 0.50214 0.88469 0.0
C1835 C 0.32675 0.46951 0.84142 0.0
C1836 C 0.36505 0.47432 0.8563 0.0
H1837 H 0.2343 0.47295 0.83025 0.0
H1838 H 0.34692 0.46086 0.82914 0.0
C1839 C 0.33688 0.48631 0.87184 0.0
C1840 C 0.51138 -0.01384 0.59348 0.0
C1841 C 0.48322 0.9742 0.60902 0.0
H1842 H 0.59615 0.00174 0.58053 0.0
C1843 C 0.52148 0.96943 0.62392 0.0
H1844 H 0.48363 -0.01049 0.58166 0.0
C1845 C 0.5862 0.97652 0.6233 0.0
C1846 C 0.61438 -0.01151 0.60774 0.0
H1847 H 0.50124 0.96061 0.63617 0.0
H1848 H 0.61393 0.97315 0.63512 0.0
C1849 C 0.57604 -0.00686 0.59283 0.0
C1850 C 0.75863 0.20078 0.60489 0.0
C1851 C 0.71324 0.22561 0.60886 0.0
H1852 H 0.85649 0.18902 0.60132 0.0
C1853 C 0.73406 0.25836 0.61296 0.0
H1854 H 0.74432 0.1754 0.60143 0.0
C1855 C 0.79847 0.26615 0.61295 0.0
C1856 C 0.84386 0.24143 0.60877 0.0
H1857 H 0.70058 0.27796 0.61638 0.0
H1858 H 0.81273 0.29157 0.61634 0.0
C1859 C 0.82307 0.20857 0.60485 0.0
C1860 C 0.57783 0.21999 0.73113 0.0
C1861 C 0.6162 0.2247 0.71622 0.0
H1862 H 0.48533 0.22353 0.7423 0.0
C1863 C 0.5881 0.23658 0.70065 0.0
H1864 H 0.59795 0.21142 0.74343 0.0
C1865 C 0.52337 0.24355 0.70001 0.0
C1866 C 0.48507 0.23877 0.71492 0.0
H1867 H 0.61593 0.23997 0.68884 0.0
H1868 H 0.50316 0.25231 0.68776 0.0
C1869 C 0.51314 0.22688 0.73048 0.0
C1870 C 0.81471 -0.01367 0.73016 0.0
C1871 C 0.84301 0.97384 0.71476 0.0
H1872 H 0.72975 0.00225 0.74289 0.0
C1873 C 0.80491 0.96847 0.6999 0.0
H1874 H 0.84237 -0.00985 0.74195 0.0
C1875 C 0.74015 0.97546 0.70042 0.0
C1876 C 0.71183 -0.01206 0.71583 0.0
H1877 H 0.82529 0.95922 0.68776 0.0
H1878 H 0.71248 0.9716 0.68863 0.0
C1879 C 0.75001 -0.00678 0.7307 0.0
C1880 C 0.54073 0.01504 0.46321 0.0
C1881 C 0.58598 -0.01074 0.46515 0.0
H1882 H 0.44288 0.02795 0.46107 0.0
C1883 C 0.56505 0.95567 0.46641 0.0
H1884 H 0.55514 0.04115 0.46189 0.0
C1885 C 0.50056 0.9481 0.46596 0.0
C1886 C 0.45526 0.97392 0.4642 0.0
H1887 H 0.59844 0.93523 0.46817 0.0
H1888 H 0.48617 0.922 0.46738 0.0
C1889 C 0.47626 0.00748 0.46275 0.0
C1890 C 0.34156 0.7091 0.45532 0.0
C1891 C 0.36879 0.7196 0.47125 0.0
H1892 H 0.25787 0.69402 0.44178 0.0
C1893 C 0.33023 0.72152 0.48629 0.0
H1894 H 0.36938 0.70796 0.44339 0.0
C1895 C 0.26593 0.71359 0.48534 0.0
C1896 C 0.2387 0.70346 0.46935 0.0
H1897 H 0.34977 0.72908 0.49882 0.0
H1898 H 0.23758 0.71528 0.49716 0.0
C1899 C 0.27745 0.70112 0.45439 0.0
C1900 C 0.5021 0.7613 0.35468 0.0
C1901 C 0.45681 0.73627 0.35837 0.0
H1902 H 0.59992 0.77327 0.35126 0.0
C1903 C 0.47777 0.70334 0.36207 0.0
H1904 H 0.48769 0.78683 0.35152 0.0
C1905 C 0.54222 0.69558 0.36197 0.0
C1906 C 0.5875 0.72052 0.3581 0.0
H1907 H 0.44436 0.68357 0.36526 0.0
H1908 H 0.55657 0.67001 0.36508 0.0
C1909 C 0.56657 0.75353 0.35455 0.0
C1910 C 0.25966 -0.00753 0.33841 0.0
C1911 C 0.23362 0.00567 0.35397 0.0
H1912 H 0.34246 0.97446 0.32521 0.0
C1913 C 0.2738 0.01124 0.36838 0.0
H1914 H 0.2303 -0.01172 0.32698 0.0
C1915 C 0.338 0.0033 0.36738 0.0
C1916 C 0.36392 -0.01043 0.35193 0.0
H1917 H 0.25529 0.02079 0.38068 0.0
H1918 H 0.36691 0.00695 0.37895 0.0
C1919 C 0.324 -0.01547 0.3374 0.0
C1920 C 0.08098 0.49242 0.59035 0.0
C1921 C 0.11946 0.48746 0.60519 0.0
H1922 H 0.98839 0.4891 0.57926 0.0
C1923 C 0.09149 0.47532 0.62074 0.0
H1924 H 0.101 0.5012 0.57807 0.0
C1925 C 1.02677 0.46835 0.62141 0.0
C1926 C 0.98836 0.4734 0.60656 0.0
H1927 H 0.1194 0.47173 0.63251 0.0
H1928 H 1.00666 0.45939 0.63365 0.0
C1929 C 1.01631 0.48553 0.59103 0.0
C1930 C 0.30975 0.74643 0.58872 0.0
C1931 C 0.33731 0.75671 0.60464 0.0
H1932 H 0.22566 0.73078 0.57542 0.0
C1933 C 0.29891 0.75913 0.61967 0.0
H1934 H 0.33784 0.74468 0.57686 0.0
C1935 C 0.23481 0.75106 0.61887 0.0
C1936 C 0.20724 0.74043 0.60301 0.0
H1937 H 0.31877 0.76634 0.63222 0.0
H1938 H 0.20727 0.75226 0.63085 0.0
C1939 C 0.24545 0.73844 0.5879 0.0
C1940 C 1.01397 0.72594 0.73067 0.0
C1941 C 0.98582 0.73868 0.71531 0.0
H1942 H 0.09882 0.7098 0.74336 0.0
C1943 C 1.02406 0.74428 0.70046 0.0
H1944 H 0.98621 0.72194 0.74244 0.0
C1945 C 0.08881 0.73727 0.70097 0.0
C1946 C 0.11699 0.72454 0.71636 0.0
H1947 H 1.0038 0.75373 0.68835 0.0
H1948 H 0.11657 0.74131 0.6892 0.0
C1949 C 0.07867 0.71902 0.7312 0.0
C1950 C 0.2401 0.47572 0.69962 0.0
C1951 C 0.21187 0.48794 0.71511 0.0
H1952 H 0.32518 0.45972 0.68686 0.0
C1953 C 0.25009 0.49299 0.72998 0.0
H1954 H 0.21238 0.47206 0.68783 0.0
C1955 C 0.31479 0.4861 0.72939 0.0
C1956 C 0.34301 0.47387 0.71393 0.0
H1957 H 0.22987 0.50182 0.74222 0.0
H1958 H 0.3425 0.48972 0.74119 0.0
C1959 C 0.30485 0.46875 0.69905 0.0
C1960 C 0.9981 0.47225 0.48013 0.0
C1961 C 0.96166 0.47328 0.4647 0.0
H1962 H 0.0892 0.47842 0.49181 0.0
C1963 C 0.9917 0.48135 0.44874 0.0
H1964 H 0.9764 0.46667 0.4927 0.0
C1965 C 0.05654 0.48808 0.44824 0.0
C1966 C 0.09296 0.48687 0.46367 0.0
H1967 H 0.96533 0.48186 0.43656 0.0
H1968 H 0.07832 0.49376 0.4357 0.0
C1969 C 0.06287 0.47892 0.47963 0.0
C1970 C 0.82423 0.24047 0.48139 0.0
C1971 C 0.86298 0.23503 0.46663 0.0
H1972 H 0.73148 0.23744 0.49246 0.0
C1973 C 0.83523 0.22234 0.4512 0.0
H1974 H 0.84403 0.24968 0.49359 0.0
C1975 C 0.77052 0.21529 0.45056 0.0
C1976 C 0.73183 0.22079 0.46532 0.0
H1977 H 0.8633 0.21837 0.43949 0.0
H1978 H 0.75063 0.20591 0.43841 0.0
C1979 C 0.75956 0.2335 0.48074 0.0
C1980 C 0.06209 0.23342 0.33839 0.0
C1981 C 0.08408 0.208 0.3498 0.0
H1982 H 0.98276 0.26183 0.32906 0.0
C1983 C 0.03966 0.1901 0.35996 0.0
H1984 H 0.0945 0.24725 0.33006 0.0
C1985 C 0.97542 0.19817 0.35915 0.0
C1986 C 0.95407 0.22453 0.3483 0.0
H1987 H 0.05464 0.1707 0.36909 0.0
H1988 H 0.94279 0.1847 0.36758 0.0
C1989 C 0.99798 0.24172 0.33774 0.0
C1990 C 0.83741 0.486 0.37117 0.0
C1991 C 0.86552 0.47425 0.35557 0.0
H1992 H 0.75244 0.5016 0.38412 0.0
C1993 C 0.82714 0.46966 0.34068 0.0
H1994 H 0.86523 0.4893 0.38297 0.0
C1995 C 0.76244 0.47653 0.34137 0.0
C1996 C 0.73434 0.48828 0.35695 0.0
H1997 H 0.84726 0.46119 0.32836 0.0
H1998 H 0.73463 0.47326 0.32956 0.0
C1999 C 0.77265 0.49295 0.37184 0.0
C2000 C 1.02864 0.94689 0.11328 0.0
C2001 C 0.98319 0.97169 0.10925 0.0
H2002 H 0.12654 0.93507 0.1167 0.0
C2003 C 1.004 0.00466 0.10555 0.0
H2004 H 1.01443 0.92136 0.1165 0.0
C2005 C 0.06843 0.01252 0.10569 0.0
C2006 C 0.11389 -0.01237 0.10953 0.0
H2007 H 0.97059 0.0243 0.10213 0.0
H2008 H 0.0827 0.03801 0.1024 0.0
C2009 C 0.09306 0.95474 0.11339 0.0
C2010 C 0.24568 0.23629 0.09043 0.0
C2011 C 0.21245 0.22749 0.10577 0.0
H2012 H 0.33438 0.24998 0.07902 0.0
C2013 C 0.2456 0.22543 0.12174 0.0
H2014 H 0.2214 0.23858 0.07797 0.0
C2015 C 0.31049 0.23184 0.12233 0.0
C2016 C 0.34377 0.24049 0.10697 0.0
H2017 H 0.22161 0.21821 0.13374 0.0
H2018 H 0.33479 0.22951 0.13479 0.0
C2019 C 0.3105 0.24272 0.09103 0.0
C2020 C 1.03657 0.25935 0.20488 0.0
C2021 C 0.99845 0.25672 0.21995 0.0
H2022 H 0.12803 0.25267 0.19357 0.0
C2023 C 1.0263 0.24631 0.23583 0.0
H2024 H 1.01646 0.26665 0.19236 0.0
C2025 C 0.09064 0.23837 0.23655 0.0
C2026 C 0.12856 0.24055 0.2214 0.0
H2027 H 0.99838 0.24439 0.24772 0.0
H2028 H 0.11069 0.23058 0.249 0.0
C2029 C 0.10071 0.25134 0.20559 0.0
C2030 C 0.29737 0.95237 0.20419 0.0
C2031 C 0.33577 0.95453 0.2192 0.0
H2032 H 0.20568 0.95938 0.1931 0.0
C2033 C 0.30816 0.96444 0.2352 0.0
H2034 H 0.31726 0.94544 0.19158 0.0
C2035 C 0.24382 0.97235 0.2361 0.0
C2036 C 0.20561 0.97064 0.221 0.0
H2037 H 0.33626 0.96598 0.24705 0.0
H2038 H 0.22399 0.97974 0.24864 0.0
C2039 C 0.23322 0.96035 0.20507 0.0
C2040 C 0.97772 0.00953 0.9625 0.0
C2041 C 0.95678 0.97599 0.96411 0.0
H2042 H 0.05656 0.04321 0.96138 0.0
C2043 C 1.00213 0.95018 0.96582 0.0
H2044 H 0.94429 0.02998 0.96085 0.0
C2045 C 0.06663 0.95776 0.96611 0.0
C2046 C 0.08749 -0.00865 0.96473 0.0
H2047 H 0.98778 0.9241 0.96736 0.0
H2048 H 0.10007 0.93734 0.96785 0.0
C2049 C 0.04219 0.0171 0.96279 0.0
C2050 C 0.82611 0.74199 0.98116 0.0
C2051 C 0.86421 0.7369 0.96625 0.0
H2052 H 0.73379 0.73877 0.99247 0.0
C2053 C 0.8359 0.72469 0.9508 0.0
H2054 H 0.84642 0.75083 0.99337 0.0
C2055 C 0.77117 0.71773 0.95029 0.0
C2056 C 0.73314 0.72289 0.96521 0.0
H2057 H 0.86355 0.721 0.93898 0.0
H2058 H 0.75076 0.70869 0.93813 0.0
C2059 C 0.76143 0.73512 0.98064 0.0
C2060 C 0.05297 0.71863 0.87377 0.0
C2061 C 0.0914 0.72352 0.8589 0.0
H2062 H 0.9603 0.72211 0.8849 0.0
C2063 C 0.06344 0.73551 0.84335 0.0
H2064 H 0.07308 0.70978 0.88602 0.0
C2065 C 0.99875 0.74239 0.84267 0.0
C2066 C 0.96025 0.73758 0.85754 0.0
H2067 H 0.09135 0.73895 0.83155 0.0
H2068 H 0.97874 0.75104 0.83037 0.0
C2069 C 0.98823 0.72559 0.87311 0.0
C2070 C 0.77087 -0.00747 0.87329 0.0
C2071 C 0.73226 -0.01185 0.85844 0.0
H2072 H 0.86367 -0.01134 0.88425 0.0
C2073 C 0.76 0.97665 0.84276 0.0
H2074 H 0.75093 0.00097 0.88564 0.0
C2075 C 0.82468 0.96977 0.84193 0.0
C2076 C 0.86337 0.9741 0.85678 0.0
H2077 H 0.73194 0.9736 0.83098 0.0
H2078 H 0.84453 0.96151 0.82954 0.0
C2079 C 0.8356 -0.01443 0.87248 0.0
C2080 C 1.02589 0.50664 0.04852 0.0
C2081 C 1.03575 0.47333 0.05425 0.0
H2082 H 1.01674 0.5402 1.02653 0.0
C2083 C 0.04409 0.44784 0.04155 0.0
H2084 H 1.01999 0.52689 0.05794 0.0
C2085 C 0.04306 0.45549 1.02356 0.0
C2086 C 1.0334 0.48881 1.01784 0.0
H2087 H 0.05223 0.42192 0.04553 0.0
H2088 H 0.04914 0.43524 1.01415 0.0
C2089 C 1.02478 0.51428 1.03052 0.0
C2090 C 0.30645 0.70092 1.03232 0.0
C2091 C 0.28134 0.7213 1.01879 0.0
H2092 H 0.31606 0.69298 0.0602 0.0
C2093 C 0.24683 0.75016 1.02338 0.0
H2094 H 0.33386 0.67862 1.02921 0.0
C2095 C 0.23632 0.75807 0.04105 0.0
C2096 C 0.26129 0.73778 0.05457 0.0
H2097 H 0.22751 0.7665 1.01331 0.0
H2098 H 0.20824 0.78015 0.04415 0.0
C2099 C 0.29705 0.70928 0.05007 0.0
C2100 C 0.04535 0.7555 0.29891 0.0
C2101 C 1.03606 0.72212 0.30459 0.0
H2102 H 0.05385 0.78925 0.27701 0.0
C2103 C 1.02786 0.69669 0.29186 0.0
H2104 H 0.05111 0.77571 0.30836 0.0
C2105 C 1.02873 0.70447 0.27388 0.0
C2106 C 0.03797 0.73787 0.26822 0.0
H2107 H 1.02012 0.67073 0.29581 0.0
H2108 H 1.02297 0.68428 0.26443 0.0
C2109 C 0.04617 0.76328 0.28094 0.0
C2110 C 0.28364 0.44827 0.27969 0.0
C2111 C 0.29345 0.47366 0.267 0.0
H2112 H 0.27584 0.43583 0.30706 0.0
C2113 C 0.30269 0.50701 0.27271 0.0
H2114 H 0.27593 0.42234 0.27572 0.0
C2115 C 0.302 0.51476 0.29069 0.0
C2116 C 0.29216 0.48935 0.30337 0.0
H2117 H 0.30968 0.52718 0.26328 0.0
H2118 H 0.30978 0.54068 0.29467 0.0
C2119 C 0.28286 0.45602 0.29765 0.0
C2120 C 0.79763 0.19795 1.03108 0.0
C2121 C 0.78755 0.22304 1.01826 0.0
H2122 H 0.80443 0.18604 0.05855 0.0
C2123 C 0.7766 0.25636 1.02379 0.0
H2124 H 0.80664 0.17206 1.02726 0.0
C2125 C 0.776 0.26441 0.04173 0.0
C2126 C 0.78617 0.23932 0.05456 0.0
H2127 H 0.76931 0.27632 1.01425 0.0
H2128 H 0.76703 0.2903 0.04557 0.0
C2129 C 0.79706 0.206 0.04902 0.0
C2130 C 1.02745 0.19777 0.79189 0.0
C2131 C 1.03681 0.22291 0.8047 0.0
H2132 H 1.02219 0.18574 0.76442 0.0
C2133 C 0.04797 0.2562 0.79913 0.0
H2134 H 1.01829 0.17189 0.79575 0.0
C2135 C 0.0495 0.26417 0.78118 0.0
C2136 C 0.04008 0.23903 0.76837 0.0
H2137 H 0.05472 0.2762 0.80865 0.0
H2138 H 0.05862 0.29005 0.77732 0.0
C2139 C 1.02898 0.20573 0.77394 0.0
C2140 C 0.77925 0.45592 0.79827 0.0
C2141 C 0.79003 0.48921 0.80385 0.0
H2142 H 0.76951 0.42213 0.77645 0.0
C2143 C 0.79981 0.5144 0.79106 0.0
H2144 H 0.7722 0.43589 0.80778 0.0
C2145 C 0.79896 0.50649 0.7731 0.0
C2146 C 0.78815 0.4732 0.76752 0.0
H2147 H 0.80871 0.54028 0.79492 0.0
H2148 H 0.80597 0.52652 0.76359 0.0
C2149 C 0.77842 0.44801 0.78032 0.0
C2150 C 1.03016 0.00656 0.54944 0.0
C2151 C 0.03925 0.97327 0.5553 0.0
H2152 H 1.02174 0.03983 0.52733 0.0
C2153 C 0.04765 0.94759 0.54272 0.0
H2154 H 1.02429 0.02695 0.55878 0.0
C2155 C 0.04694 0.95498 0.5247 0.0
C2156 C 1.03763 -0.01176 0.51883 0.0
H2157 H 0.05524 0.92169 0.54681 0.0
H2158 H 0.05267 0.93456 0.51537 0.0
C2159 C 1.02947 0.01395 0.53142 0.0
C2160 C 0.29853 0.1963 0.53156 0.0
C2161 C 0.28896 0.22132 0.51866 0.0
H2162 H 0.3057 0.18472 0.55907 0.0
C2163 C 0.27973 0.25484 0.52409 0.0
H2164 H 0.30628 0.17025 0.5278 0.0
C2165 C 0.28023 0.26316 0.54199 0.0
C2166 C 0.2897 0.23815 0.5549 0.0
H2167 H 0.27292 0.27476 0.5145 0.0
H2168 H 0.27249 0.28922 0.54573 0.0
C2169 C 0.29895 0.20462 0.54947 0.0
C2170 C 0.30097 0.01405 0.79205 0.0
C2171 C 0.29116 -0.01119 0.80481 0.0
H2172 H 0.30698 0.0263 0.76459 0.0
C2173 C 0.2804 0.95554 0.7992 0.0
H2174 H 0.30985 0.03991 0.79595 0.0
C2175 C 0.27953 0.94771 0.78124 0.0
C2176 C 0.28915 0.97296 0.76846 0.0
H2177 H 0.27333 0.93547 0.80868 0.0
H2178 H 0.2706 0.92185 0.77735 0.0
C2179 C 0.30004 0.00622 0.77408 0.0
C2180 C 0.84248 0.71096 0.53356 0.0
C2181 C 0.8061 0.72312 0.51938 0.0
H2182 H 0.85371 0.70783 0.56158 0.0
C2183 C 0.752 0.74216 0.523 0.0
H2184 H 0.88466 0.69618 0.53119 0.0
C2185 C 0.73458 0.74884 0.54042 0.0
C2186 C 0.77092 0.73668 0.55461 0.0
H2187 H 0.72337 0.75201 0.51242 0.0
H2188 H 0.6924 0.76363 0.54277 0.0
C2189 C 0.82507 0.71765 0.551 0.0
C2190 C 0.73068 0.96138 0.28339 0.0
C2191 C 0.76797 0.97345 0.26935 0.0
H2192 H 0.7183 0.95783 0.31137 0.0
C2193 C 0.82271 -0.00826 0.27318 0.0
H2194 H 0.68799 0.94717 0.28086 0.0
C2195 C 0.83979 -0.00218 0.29068 0.0
C2196 C 0.80247 -0.01422 0.30472 0.0
H2197 H 0.85211 0.00142 0.26271 0.0
H2198 H 0.88244 0.01206 0.29321 0.0
C2199 C 0.74775 0.96747 0.30089 0.0
C2200 C 0.55221 0.44643 0.54068 0.0
C2201 C 0.54325 0.47204 0.55328 0.0
H2202 H 0.55689 0.43349 0.5133 0.0
C2203 C 0.53249 0.50519 0.54744 0.0
H2204 H 0.56105 0.42065 0.54476 0.0
C2205 C 0.53091 0.51257 0.52943 0.0
C2206 C 0.53977 0.48698 0.51683 0.0
H2207 H 0.52607 0.52552 0.55678 0.0
H2208 H 0.52208 0.53837 0.52537 0.0
C2209 C 0.55055 0.45382 0.52266 0.0
C2210 C 0.54633 0.75671 0.79961 0.0
C2211 C 0.53538 0.7234 0.80518 0.0
H2212 H 0.55682 0.79055 0.77779 0.0
C2213 C 0.52599 0.69824 0.79238 0.0
H2214 H 0.55308 0.77671 0.80912 0.0
C2215 C 0.52745 0.7062 0.77442 0.0
C2216 C 0.53849 0.7395 0.76884 0.0
H2217 H 0.51699 0.67236 0.79624 0.0
H2218 H 0.52076 0.68619 0.76491 0.0
C2219 C 0.54776 0.76466 0.78165 0.0
C2220 C 0.48606 0.21393 0.29027 0.0
C2221 C 0.52283 0.22489 0.30462 0.0
H2222 H 0.47622 0.2111 0.26223 0.0
C2223 C 0.57942 0.24191 0.30126 0.0
H2224 H 0.44202 0.20068 0.29242 0.0
C2225 C 0.59876 0.24786 0.2839 0.0
C2226 C 0.56194 0.23688 0.26956 0.0
H2227 H 0.60863 0.2506 0.31198 0.0
H2228 H 0.6428 0.26108 0.28172 0.0
C2229 C 0.50541 0.21985 0.27293 0.0
C2230 C 0.54295 0.94814 0.04277 0.0
C2231 C 0.53476 0.97371 0.05543 0.0
H2232 H 0.54887 0.93547 1.01539 0.0
C2233 C 0.52652 0.00712 0.04966 0.0
H2234 H 0.5499 0.92215 0.04678 0.0
C2235 C 0.52666 0.01477 1.03166 0.0
C2236 C 0.5349 -0.0108 1.019 0.0
H2237 H 0.52083 0.02743 0.05905 0.0
H2238 H 0.51971 0.04075 1.02764 0.0
C2239 C 0.54314 0.95579 1.02478 0.0
loop_
_geom_bond_atom_site_label_1
_geom_bond_atom_site_label_2
_geom_bond_distance
_geom_bond_site_symmetry_2
_ccdc_geom_bond_type
Tb0 C2 2.809 . S
Tb0 O20 2.484 . S
Tb0 O21 2.440 . S
Tb0 O22 2.658 1_655 S
Tb0 O23 2.409 . S
Tb0 O24 2.378 . S
Tb0 O28 2.325 1_655 S
Tb0 O31 2.341 1_655 S
Tb1 C11 2.809 . S
Tb1 O22 2.325 . S
Tb1 O25 2.341 . S
Tb1 O26 2.484 . S
Tb1 O27 2.440 . S
Tb1 O28 2.658 . S
Tb1 O29 2.409 . S
Tb1 O30 2.378 . S
C2 Tb0 2.809 . S
C2 C3 1.514 . S
C2 O20 1.248 . S
C2 O21 1.266 . S
C3 C2 1.514 . S
C3 C4 1.359 . S
C3 C8 1.348 . S
C4 C3 1.359 . S
C4 C5 1.380 . S
C4 H32 0.929 . S
C5 C4 1.380 . S
C5 C6 1.347 . S
C5 H33 0.931 . S
C6 C5 1.347 . S
C6 C7 1.369 . S
C7 C6 1.369 . S
C7 C8 1.408 . S
C7 H34 0.930 . S
C8 C3 1.348 . S
C8 C7 1.408 . S
C8 H35 0.930 . S
C9 O22 1.281 . S
C9 O23 1.254 1_455 S
C10 O24 1.236 . S
C10 O25 1.266 1_655 S
C11 Tb1 2.809 . S
C11 C12 1.514 . S
C11 O26 1.248 . S
C11 O27 1.266 . S
C12 C11 1.514 . S
C12 C13 1.359 . S
C12 C17 1.348 . S
C13 C12 1.359 . S
C13 C14 1.380 . S
C13 H36 0.929 . S
C14 C13 1.380 . S
C14 C15 1.347 . S
C14 H37 0.931 . S
C15 C14 1.347 . S
C15 C16 1.369 . S
C16 C15 1.369 . S
C16 C17 1.408 . S
C16 H38 0.930 . S
C17 C12 1.348 . S
C17 C16 1.408 . S
C17 H39 0.930 . S
C18 O28 1.281 . S
C18 O29 1.254 . S
C19 O30 1.236 . S
C19 O31 1.266 . S
O20 Tb0 2.484 . S
O20 C2 1.248 . S
O21 Tb0 2.440 . S
O21 C2 1.266 . S
O22 Tb0 2.658 1_455 S
O22 Tb1 2.325 . S
O22 C9 1.281 . S
O23 Tb0 2.409 . S
O23 C9 1.254 1_655 S
O24 Tb0 2.378 . S
O24 C10 1.236 . S
O25 Tb1 2.341 . S
O25 C10 1.266 1_455 S
O26 Tb1 2.484 . S
O26 C11 1.248 . S
O27 Tb1 2.440 . S
O27 C11 1.266 . S
O28 Tb0 2.325 1_455 S
O28 Tb1 2.658 . S
O28 C18 1.281 . S
O29 Tb1 2.409 . S
O29 C18 1.254 . S
O30 Tb1 2.378 . S
O30 C19 1.236 . S
O31 Tb0 2.341 1_455 S
O31 C19 1.266 . S
H32 C4 0.929 . S
H33 C5 0.931 . S
H34 C7 0.930 . S
H35 C8 0.930 . S
H36 C13 0.929 . S
H37 C14 0.931 . S
H38 C16 0.930 . S
H39 C17 0.930 . S
Tb40 C42 2.809 . S
Tb40 O60 2.484 . S
Tb40 O61 2.440 . S
Tb40 O62 2.658 . S
Tb40 O63 2.409 . S
Tb40 O64 2.378 . S
Tb40 O68 2.325 . S
Tb40 O71 2.341 . S
Tb41 C51 2.809 . S
Tb41 O62 2.325 . S
Tb41 O65 2.341 . S
Tb41 O66 2.484 . S
Tb41 O67 2.440 . S
Tb41 O68 2.658 . S
Tb41 O69 2.409 . S
Tb41 O70 2.378 . S
C42 Tb40 2.809 . S
C42 C43 1.514 . S
C42 O60 1.248 . S
C42 O61 1.266 . S
C43 C42 1.514 . S
C43 C44 1.359 . S
C43 C48 1.348 . S
C44 C43 1.359 . S
C44 C45 1.380 . S
C44 H72 0.929 . S
C45 C44 1.380 . S
C45 C46 1.347 . S
C45 H73 0.931 . S
C46 C45 1.347 . S
C46 C47 1.369 . S
C47 C46 1.369 . S
C47 C48 1.408 . S
C47 H74 0.930 . S
C48 C43 1.348 . S
C48 C47 1.408 . S
C48 H75 0.930 . S
C49 O62 1.281 . S
C49 O63 1.254 . S
C50 O64 1.236 . S
C50 O65 1.266 . S
C51 Tb41 2.809 . S
C51 C52 1.514 1_455 S
C51 O66 1.248 . S
C51 O67 1.266 . S
C52 C51 1.514 1_655 S
C52 C53 1.359 . S
C52 C57 1.348 . S
C53 C52 1.359 . S
C53 C54 1.380 . S
C53 H76 0.929 . S
C54 C53 1.380 . S
C54 C55 1.347 . S
C54 H77 0.931 . S
C55 C54 1.347 . S
C55 C56 1.369 . S
C56 C55 1.369 . S
C56 C57 1.408 . S
C56 H78 0.930 . S
C57 C52 1.348 . S
C57 C56 1.408 . S
C57 H79 0.930 . S
C58 O68 1.281 . S
C58 O69 1.254 . S
C59 O70 1.236 . S
C59 O71 1.266 . S
O60 Tb40 2.484 . S
O60 C42 1.248 . S
O61 Tb40 2.440 . S
O61 C42 1.266 . S
O62 Tb40 2.658 . S
O62 Tb41 2.325 . S
O62 C49 1.281 . S
O63 Tb40 2.409 . S
O63 C49 1.254 . S
O64 Tb40 2.378 . S
O64 C50 1.236 . S
O65 Tb41 2.341 . S
O65 C50 1.266 . S
O66 Tb41 2.484 . S
O66 C51 1.248 . S
O67 Tb41 2.440 . S
O67 C51 1.266 . S
O68 Tb40 2.325 . S
O68 Tb41 2.658 . S
O68 C58 1.281 . S
O69 Tb41 2.409 . S
O69 C58 1.254 . S
O70 Tb41 2.378 . S
O70 C59 1.236 . S
O71 Tb40 2.341 . S
O71 C59 1.266 . S
H72 C44 0.929 . S
H73 C45 0.931 . S
H74 C47 0.930 . S
H75 C48 0.930 . S
H76 C53 0.929 . S
H77 C54 0.931 . S
H78 C56 0.930 . S
H79 C57 0.930 . S
Tb80 C82 2.809 . S
Tb80 O100 2.484 . S
Tb80 O101 2.440 . S
Tb80 O102 2.658 1_655 S
Tb80 O103 2.409 . S
Tb80 O104 2.378 . S
Tb80 O108 2.325 1_655 S
Tb80 O111 2.341 1_655 S
Tb81 C91 2.809 . S
Tb81 O102 2.325 . S
Tb81 O105 2.341 . S
Tb81 O106 2.484 . S
Tb81 O107 2.440 . S
Tb81 O108 2.658 . S
Tb81 O109 2.409 . S
Tb81 O110 2.378 . S
C82 Tb80 2.809 . S
C82 C83 1.514 . S
C82 O100 1.248 . S
C82 O101 1.266 . S
C83 C82 1.514 . S
C83 C84 1.359 . S
C83 C88 1.348 . S
C84 C83 1.359 . S
C84 C85 1.380 . S
C84 H112 0.929 . S
C85 C84 1.380 . S
C85 C86 1.347 . S
C85 H113 0.931 . S
C86 C85 1.347 . S
C86 C87 1.369 . S
C87 C86 1.369 . S
C87 C88 1.408 . S
C87 H114 0.930 . S
C88 C83 1.348 . S
C88 C87 1.408 . S
C88 H115 0.930 . S
C89 O102 1.281 . S
C89 O103 1.254 1_455 S
C90 O104 1.236 . S
C90 O105 1.266 1_655 S
C91 Tb81 2.809 . S
C91 C92 1.514 . S
C91 O106 1.248 . S
C91 O107 1.266 . S
C92 C91 1.514 . S
C92 C93 1.359 . S
C92 C97 1.348 . S
C93 C92 1.359 . S
C93 C94 1.380 . S
C93 H116 0.929 . S
C94 C93 1.380 . S
C94 C95 1.347 . S
C94 H117 0.931 . S
C95 C94 1.347 . S
C95 C96 1.369 . S
C96 C95 1.369 . S
C96 C97 1.408 . S
C96 H118 0.930 . S
C97 C92 1.348 . S
C97 C96 1.408 . S
C97 H119 0.930 . S
C98 O108 1.281 . S
C98 O109 1.254 . S
C99 O110 1.236 . S
C99 O111 1.266 . S
O100 Tb80 2.484 . S
O100 C82 1.248 . S
O101 Tb80 2.440 . S
O101 C82 1.266 . S
O102 Tb80 2.658 1_455 S
O102 Tb81 2.325 . S
O102 C89 1.281 . S
O103 Tb80 2.409 . S
O103 C89 1.254 1_655 S
O104 Tb80 2.378 . S
O104 C90 1.236 . S
O105 Tb81 2.341 . S
O105 C90 1.266 1_455 S
O106 Tb81 2.484 . S
O106 C91 1.248 . S
O107 Tb81 2.440 . S
O107 C91 1.266 . S
O108 Tb80 2.325 1_455 S
O108 Tb81 2.658 . S
O108 C98 1.281 . S
O109 Tb81 2.409 . S
O109 C98 1.254 . S
O110 Tb81 2.378 . S
O110 C99 1.236 . S
O111 Tb80 2.341 1_455 S
O111 C99 1.266 . S
H112 C84 0.929 . S
H113 C85 0.931 . S
H114 C87 0.930 . S
H115 C88 0.930 . S
H116 C93 0.929 . S
H117 C94 0.931 . S
H118 C96 0.930 . S
H119 C97 0.930 . S
Tb120 C122 2.809 . S
Tb120 O140 2.484 . S
Tb120 O141 2.440 . S
Tb120 O142 2.658 . S
Tb120 O143 2.409 . S
Tb120 O144 2.378 . S
Tb120 O148 2.325 . S
Tb120 O151 2.341 . S
Tb121 C131 2.809 . S
Tb121 O142 2.325 . S
Tb121 O145 2.341 . S
Tb121 O146 2.484 . S
Tb121 O147 2.440 . S
Tb121 O148 2.658 . S
Tb121 O149 2.409 . S
Tb121 O150 2.378 . S
C122 Tb120 2.809 . S
C122 C123 1.514 . S
C122 O140 1.248 . S
C122 O141 1.266 . S
C123 C122 1.514 . S
C123 C124 1.359 . S
C123 C128 1.348 . S
C124 C123 1.359 . S
C124 C125 1.380 . S
C124 H152 0.929 . S
C125 C124 1.380 . S
C125 C126 1.347 . S
C125 H153 0.931 . S
C126 C125 1.347 . S
C126 C127 1.369 . S
C127 C126 1.369 . S
C127 C128 1.408 . S
C127 H154 0.930 . S
C128 C123 1.348 . S
C128 C127 1.408 . S
C128 H155 0.930 . S
C129 O142 1.281 . S
C129 O143 1.254 . S
C130 O144 1.236 . S
C130 O145 1.266 . S
C131 Tb121 2.809 . S
C131 C132 1.514 1_455 S
C131 O146 1.248 . S
C131 O147 1.266 . S
C132 C131 1.514 1_655 S
C132 C133 1.359 . S
C132 C137 1.348 . S
C133 C132 1.359 . S
C133 C134 1.380 . S
C133 H156 0.929 . S
C134 C133 1.380 . S
C134 C135 1.347 . S
C134 H157 0.931 . S
C135 C134 1.347 . S
C135 C136 1.369 . S
C136 C135 1.369 . S
C136 C137 1.408 . S
C136 H158 0.930 . S
C137 C132 1.348 . S
C137 C136 1.408 . S
C137 H159 0.930 . S
C138 O148 1.281 . S
C138 O149 1.254 . S
C139 O150 1.236 . S
C139 O151 1.266 . S
O140 Tb120 2.484 . S
O140 C122 1.248 . S
O141 Tb120 2.440 . S
O141 C122 1.266 . S
O142 Tb120 2.658 . S
O142 Tb121 2.325 . S
O142 C129 1.281 . S
O143 Tb120 2.409 . S
O143 C129 1.254 . S
O144 Tb120 2.378 . S
O144 C130 1.236 . S
O145 Tb121 2.341 . S
O145 C130 1.266 . S
O146 Tb121 2.484 . S
O146 C131 1.248 . S
O147 Tb121 2.440 . S
O147 C131 1.266 . S
O148 Tb120 2.325 . S
O148 Tb121 2.658 . S
O148 C138 1.281 . S
O149 Tb121 2.409 . S
O149 C138 1.254 . S
O150 Tb121 2.378 . S
O150 C139 1.236 . S
O151 Tb120 2.341 . S
O151 C139 1.266 . S
H152 C124 0.929 . S
H153 C125 0.931 . S
H154 C127 0.930 . S
H155 C128 0.930 . S
H156 C133 0.929 . S
H157 C134 0.931 . S
H158 C136 0.930 . S
H159 C137 0.930 . S
Tb160 C162 2.809 . S
Tb160 O180 2.484 . S
Tb160 O181 2.440 . S
Tb160 O182 2.658 . S
Tb160 O183 2.409 . S
Tb160 O184 2.378 . S
Tb160 O188 2.325 . S
Tb160 O191 2.341 . S
Tb161 C171 2.809 . S
Tb161 O182 2.325 1_455 S
Tb161 O185 2.341 1_455 S
Tb161 O186 2.484 . S
Tb161 O187 2.440 . S
Tb161 O188 2.658 1_455 S
Tb161 O189 2.409 . S
Tb161 O190 2.378 . S
C162 Tb160 2.809 . S
C162 C163 1.514 . S
C162 O180 1.248 . S
C162 O181 1.266 . S
C163 C162 1.514 . S
C163 C164 1.359 . S
C163 C168 1.348 . S
C164 C163 1.359 . S
C164 C165 1.380 . S
C164 H192 0.929 . S
C165 C164 1.380 . S
C165 C166 1.347 . S
C165 H193 0.931 . S
C166 C165 1.347 . S
C166 C167 1.369 . S
C167 C166 1.369 . S
C167 C168 1.408 . S
C167 H194 0.930 . S
C168 C163 1.348 . S
C168 C167 1.408 . S
C168 H195 0.930 . S
C169 O182 1.281 . S
C169 O183 1.254 . S
C170 O184 1.236 . S
C170 O185 1.266 . S
C171 Tb161 2.809 . S
C171 C172 1.514 . S
C171 O186 1.248 . S
C171 O187 1.266 . S
C172 C171 1.514 . S
C172 C173 1.359 . S
C172 C177 1.348 . S
C173 C172 1.359 . S
C173 C174 1.380 . S
C173 H196 0.929 . S
C174 C173 1.380 . S
C174 C175 1.347 . S
C174 H197 0.931 . S
C175 C174 1.347 . S
C175 C176 1.369 . S
C176 C175 1.369 . S
C176 C177 1.408 . S
C176 H198 0.930 . S
C177 C172 1.348 . S
C177 C176 1.408 . S
C177 H199 0.930 . S
C178 O188 1.281 . S
C178 O189 1.254 1_655 S
C179 O190 1.236 . S
C179 O191 1.266 1_455 S
O180 Tb160 2.484 . S
O180 C162 1.248 . S
O181 Tb160 2.440 . S
O181 C162 1.266 . S
O182 Tb160 2.658 . S
O182 Tb161 2.325 1_655 S
O182 C169 1.281 . S
O183 Tb160 2.409 . S
O183 C169 1.254 . S
O184 Tb160 2.378 . S
O184 C170 1.236 . S
O185 Tb161 2.341 1_655 S
O185 C170 1.266 . S
O186 Tb161 2.484 . S
O186 C171 1.248 . S
O187 Tb161 2.440 . S
O187 C171 1.266 . S
O188 Tb160 2.325 . S
O188 Tb161 2.658 1_655 S
O188 C178 1.281 . S
O189 Tb161 2.409 . S
O189 C178 1.254 1_455 S
O190 Tb161 2.378 . S
O190 C179 1.236 . S
O191 Tb160 2.341 . S
O191 C179 1.266 1_655 S
H192 C164 0.929 . S
H193 C165 0.931 . S
H194 C167 0.930 . S
H195 C168 0.930 . S
H196 C173 0.929 . S
H197 C174 0.931 . S
H198 C176 0.930 . S
H199 C177 0.930 . S
Tb200 C202 2.809 . S
Tb200 O220 2.484 . S
Tb200 O221 2.440 . S
Tb200 O222 2.658 . S
Tb200 O223 2.409 . S
Tb200 O224 2.378 . S
Tb200 O228 2.325 . S
Tb200 O231 2.341 . S
Tb201 C211 2.809 . S
Tb201 O222 2.325 . S
Tb201 O225 2.341 . S
Tb201 O226 2.484 . S
Tb201 O227 2.440 . S
Tb201 O228 2.658 . S
Tb201 O229 2.409 . S
Tb201 O230 2.378 . S
C202 Tb200 2.809 . S
C202 C203 1.514 1_655 S
C202 O220 1.248 . S
C202 O221 1.266 . S
C203 C202 1.514 1_455 S
C203 C204 1.359 . S
C203 C208 1.348 . S
C204 C203 1.359 . S
C204 C205 1.380 . S
C204 H232 0.929 . S
C205 C204 1.380 . S
C205 C206 1.347 . S
C205 H233 0.931 . S
C206 C205 1.347 . S
C206 C207 1.369 . S
C207 C206 1.369 . S
C207 C208 1.408 . S
C207 H234 0.930 . S
C208 C203 1.348 . S
C208 C207 1.408 . S
C208 H235 0.930 . S
C209 O222 1.281 . S
C209 O223 1.254 . S
C210 O224 1.236 . S
C210 O225 1.266 . S
C211 Tb201 2.809 . S
C211 C212 1.514 . S
C211 O226 1.248 . S
C211 O227 1.266 . S
C212 C211 1.514 . S
C212 C213 1.359 . S
C212 C217 1.348 . S
C213 C212 1.359 . S
C213 C214 1.380 . S
C213 H236 0.929 . S
C214 C213 1.380 . S
C214 C215 1.347 . S
C214 H237 0.931 . S
C215 C214 1.347 . S
C215 C216 1.369 . S
C216 C215 1.369 . S
C216 C217 1.408 . S
C216 H238 0.930 . S
C217 C212 1.348 . S
C217 C216 1.408 . S
C217 H239 0.930 . S
C218 O228 1.281 . S
C218 O229 1.254 . S
C219 O230 1.236 . S
C219 O231 1.266 . S
O220 Tb200 2.484 . S
O220 C202 1.248 . S
O221 Tb200 2.440 . S
O221 C202 1.266 . S
O222 Tb200 2.658 . S
O222 Tb201 2.325 . S
O222 C209 1.281 . S
O223 Tb200 2.409 . S
O223 C209 1.254 . S
O224 Tb200 2.378 . S
O224 C210 1.236 . S
O225 Tb201 2.341 . S
O225 C210 1.266 . S
O226 Tb201 2.484 . S
O226 C211 1.248 . S
O227 Tb201 2.440 . S
O227 C211 1.266 . S
O228 Tb200 2.325 . S
O228 Tb201 2.658 . S
O228 C218 1.281 . S
O229 Tb201 2.409 . S
O229 C218 1.254 . S
O230 Tb201 2.378 . S
O230 C219 1.236 . S
O231 Tb200 2.341 . S
O231 C219 1.266 . S
H232 C204 0.929 . S
H233 C205 0.931 . S
H234 C207 0.930 . S
H235 C208 0.930 . S
H236 C213 0.929 . S
H237 C214 0.931 . S
H238 C216 0.930 . S
H239 C217 0.930 . S
Tb240 C242 2.809 . S
Tb240 O260 2.484 . S
Tb240 O261 2.440 . S
Tb240 O262 2.658 . S
Tb240 O263 2.409 . S
Tb240 O264 2.378 . S
Tb240 O268 2.325 . S
Tb240 O271 2.341 . S
Tb241 C251 2.809 . S
Tb241 O262 2.325 1_455 S
Tb241 O265 2.341 1_455 S
Tb241 O266 2.484 . S
Tb241 O267 2.440 . S
Tb241 O268 2.658 1_455 S
Tb241 O269 2.409 . S
Tb241 O270 2.378 . S
C242 Tb240 2.809 . S
C242 C243 1.514 . S
C242 O260 1.248 . S
C242 O261 1.266 . S
C243 C242 1.514 . S
C243 C244 1.359 . S
C243 C248 1.348 . S
C244 C243 1.359 . S
C244 C245 1.380 . S
C244 H272 0.929 . S
C245 C244 1.380 . S
C245 C246 1.347 . S
C245 H273 0.931 . S
C246 C245 1.347 . S
C246 C247 1.369 . S
C247 C246 1.369 . S
C247 C248 1.408 . S
C247 H274 0.930 . S
C248 C243 1.348 . S
C248 C247 1.408 . S
C248 H275 0.930 . S
C249 O262 1.281 . S
C249 O263 1.254 . S
C250 O264 1.236 . S
C250 O265 1.266 . S
C251 Tb241 2.809 . S
C251 C252 1.514 . S
C251 O266 1.248 . S
C251 O267 1.266 . S
C252 C251 1.514 . S
C252 C253 1.359 . S
C252 C257 1.348 . S
C253 C252 1.359 . S
C253 C254 1.380 . S
C253 H276 0.929 . S
C254 C253 1.380 . S
C254 C255 1.347 . S
C254 H277 0.931 . S
C255 C254 1.347 . S
C255 C256 1.369 . S
C256 C255 1.369 . S
C256 C257 1.408 . S
C256 H278 0.930 . S
C257 C252 1.348 . S
C257 C256 1.408 . S
C257 H279 0.930 . S
C258 O268 1.281 . S
C258 O269 1.254 1_655 S
C259 O270 1.236 . S
C259 O271 1.266 1_455 S
O260 Tb240 2.484 . S
O260 C242 1.248 . S
O261 Tb240 2.440 . S
O261 C242 1.266 . S
O262 Tb240 2.658 . S
O262 Tb241 2.325 1_655 S
O262 C249 1.281 . S
O263 Tb240 2.409 . S
O263 C249 1.254 . S
O264 Tb240 2.378 . S
O264 C250 1.236 . S
O265 Tb241 2.341 1_655 S
O265 C250 1.266 . S
O266 Tb241 2.484 . S
O266 C251 1.248 . S
O267 Tb241 2.440 . S
O267 C251 1.266 . S
O268 Tb240 2.325 . S
O268 Tb241 2.658 1_655 S
O268 C258 1.281 . S
O269 Tb241 2.409 . S
O269 C258 1.254 1_455 S
O270 Tb241 2.378 . S
O270 C259 1.236 . S
O271 Tb240 2.341 . S
O271 C259 1.266 1_655 S
H272 C244 0.929 . S
H273 C245 0.931 . S
H274 C247 0.930 . S
H275 C248 0.930 . S
H276 C253 0.929 . S
H277 C254 0.931 . S
H278 C256 0.930 . S
H279 C257 0.930 . S
Tb280 C282 2.809 . S
Tb280 O300 2.484 . S
Tb280 O301 2.440 . S
Tb280 O302 2.658 . S
Tb280 O303 2.409 . S
Tb280 O304 2.378 . S
Tb280 O308 2.325 . S
Tb280 O311 2.341 . S
Tb281 C291 2.809 . S
Tb281 O302 2.325 . S
Tb281 O305 2.341 . S
Tb281 O306 2.484 . S
Tb281 O307 2.440 . S
Tb281 O308 2.658 . S
Tb281 O309 2.409 . S
Tb281 O310 2.378 . S
C282 Tb280 2.809 . S
C282 C283 1.514 1_655 S
C282 O300 1.248 . S
C282 O301 1.266 . S
C283 C282 1.514 1_455 S
C283 C284 1.359 . S
C283 C288 1.348 . S
C284 C283 1.359 . S
C284 C285 1.380 . S
C284 H312 0.929 . S
C285 C284 1.380 . S
C285 C286 1.347 . S
C285 H313 0.931 . S
C286 C285 1.347 . S
C286 C287 1.369 . S
C287 C286 1.369 . S
C287 C288 1.408 . S
C287 H314 0.930 . S
C288 C283 1.348 . S
C288 C287 1.408 . S
C288 H315 0.930 . S
C289 O302 1.281 . S
C289 O303 1.254 . S
C290 O304 1.236 . S
C290 O305 1.266 . S
C291 Tb281 2.809 . S
C291 C292 1.514 . S
C291 O306 1.248 . S
C291 O307 1.266 . S
C292 C291 1.514 . S
C292 C293 1.359 . S
C292 C297 1.348 . S
C293 C292 1.359 . S
C293 C294 1.380 . S
C293 H316 0.929 . S
C294 C293 1.380 . S
C294 C295 1.347 . S
C294 H317 0.931 . S
C295 C294 1.347 . S
C295 C296 1.369 . S
C296 C295 1.369 . S
C296 C297 1.408 . S
C296 H318 0.930 . S
C297 C292 1.348 . S
C297 C296 1.408 . S
C297 H319 0.930 . S
C298 O308 1.281 . S
C298 O309 1.254 . S
C299 O310 1.236 . S
C299 O311 1.266 . S
O300 Tb280 2.484 . S
O300 C282 1.248 . S
O301 Tb280 2.440 . S
O301 C282 1.266 . S
O302 Tb280 2.658 . S
O302 Tb281 2.325 . S
O302 C289 1.281 . S
O303 Tb280 2.409 . S
O303 C289 1.254 . S
O304 Tb280 2.378 . S
O304 C290 1.236 . S
O305 Tb281 2.341 . S
O305 C290 1.266 . S
O306 Tb281 2.484 . S
O306 C291 1.248 . S
O307 Tb281 2.440 . S
O307 C291 1.266 . S
O308 Tb280 2.325 . S
O308 Tb281 2.658 . S
O308 C298 1.281 . S
O309 Tb281 2.409 . S
O309 C298 1.254 . S
O310 Tb281 2.378 . S
O310 C299 1.236 . S
O311 Tb280 2.341 . S
O311 C299 1.266 . S
H312 C284 0.929 . S
H313 C285 0.931 . S
H314 C287 0.930 . S
H315 C288 0.930 . S
H316 C293 0.929 . S
H317 C294 0.931 . S
H318 C296 0.930 . S
H319 C297 0.930 . S
Tb320 C322 2.805 1_545 S
Tb320 O340 2.484 1_545 S
Tb320 O341 2.440 . S
Tb320 O342 2.658 1_645 S
Tb320 O343 2.409 . S
Tb320 O344 2.378 1_545 S
Tb320 O348 2.325 1_645 S
Tb320 O351 2.341 1_655 S
Tb321 C331 2.809 . S
Tb321 O342 2.325 . S
Tb321 O345 2.341 . S
Tb321 O346 2.484 . S
Tb321 O347 2.440 . S
Tb321 O348 2.658 . S
Tb321 O349 2.409 . S
Tb321 O350 2.378 1_565 S
C322 Tb320 2.805 1_565 S
C322 C323 1.517 . S
C322 O340 1.250 . S
C322 O341 1.261 1_565 S
C323 C322 1.517 . S
C323 C324 1.359 . S
C323 C328 1.348 . S
C324 C323 1.359 . S
C324 C325 1.380 . S
C324 H352 0.929 . S
C325 C324 1.380 . S
C325 C326 1.347 . S
C325 H353 0.931 . S
C326 C325 1.347 . S
C326 C327 1.369 . S
C327 C326 1.369 . S
C327 C328 1.408 . S
C327 H354 0.930 . S
C328 C323 1.348 . S
C328 C327 1.408 . S
C328 H355 0.930 . S
C329 O342 1.281 . S
C329 O343 1.254 1_465 S
C330 O344 1.236 . S
C330 O345 1.266 1_655 S
C331 Tb321 2.809 . S
C331 C332 1.514 . S
C331 O346 1.248 . S
C331 O347 1.266 . S
C332 C331 1.514 . S
C332 C333 1.359 . S
C332 C337 1.348 . S
C333 C332 1.359 . S
C333 C334 1.380 1_565 S
C333 H356 0.929 . S
C334 C333 1.380 1_545 S
C334 C335 1.347 . S
C334 H357 0.931 . S
C335 C334 1.347 . S
C335 C336 1.366 1_545 S
C336 C335 1.366 1_565 S
C336 C337 1.408 . S
C336 H358 0.930 . S
C337 C332 1.348 . S
C337 C336 1.408 . S
C337 H359 0.930 . S
C338 O348 1.281 . S
C338 O349 1.254 . S
C339 O350 1.236 . S
C339 O351 1.266 . S
O340 Tb320 2.484 1_565 S
O340 C322 1.250 . S
O341 Tb320 2.440 . S
O341 C322 1.261 1_545 S
O342 Tb320 2.658 1_465 S
O342 Tb321 2.325 . S
O342 C329 1.281 . S
O343 Tb320 2.409 . S
O343 C329 1.254 1_645 S
O344 Tb320 2.378 1_565 S
O344 C330 1.236 . S
O345 Tb321 2.341 . S
O345 C330 1.266 1_455 S
O346 Tb321 2.484 . S
O346 C331 1.248 . S
O347 Tb321 2.440 . S
O347 C331 1.266 . S
O348 Tb320 2.325 1_465 S
O348 Tb321 2.658 . S
O348 C338 1.281 . S
O349 Tb321 2.409 . S
O349 C338 1.254 . S
O350 Tb321 2.378 1_545 S
O350 C339 1.236 . S
O351 Tb320 2.341 1_455 S
O351 C339 1.266 . S
H352 C324 0.929 . S
H353 C325 0.931 . S
H354 C327 0.930 . S
H355 C328 0.930 . S
H356 C333 0.929 . S
H357 C334 0.931 . S
H358 C336 0.930 . S
H359 C337 0.930 . S
Tb360 C362 2.809 . S
Tb360 O380 2.484 . S
Tb360 O381 2.440 . S
Tb360 O382 2.658 . S
Tb360 O383 2.409 . S
Tb360 O384 2.378 . S
Tb360 O388 2.325 . S
Tb360 O391 2.341 . S
Tb361 C371 2.809 . S
Tb361 O382 2.325 . S
Tb361 O385 2.341 . S
Tb361 O386 2.484 . S
Tb361 O387 2.440 . S
Tb361 O388 2.658 . S
Tb361 O389 2.409 . S
Tb361 O390 2.378 . S
C362 Tb360 2.809 . S
C362 C363 1.514 . S
C362 O380 1.248 . S
C362 O381 1.266 . S
C363 C362 1.514 . S
C363 C364 1.359 . S
C363 C368 1.348 . S
C364 C363 1.359 . S
C364 C365 1.380 . S
C364 H392 0.929 . S
C365 C364 1.380 . S
C365 C366 1.347 . S
C365 H393 0.931 . S
C366 C365 1.347 . S
C366 C367 1.369 . S
C367 C366 1.369 . S
C367 C368 1.408 . S
C367 H394 0.930 . S
C368 C363 1.348 . S
C368 C367 1.408 . S
C368 H395 0.930 . S
C369 O382 1.281 . S
C369 O383 1.254 . S
C370 O384 1.236 . S
C370 O385 1.266 . S
C371 Tb361 2.809 . S
C371 C372 1.514 1_455 S
C371 O386 1.248 . S
C371 O387 1.266 . S
C372 C371 1.514 1_655 S
C372 C373 1.359 . S
C372 C377 1.348 . S
C373 C372 1.359 . S
C373 C374 1.380 . S
C373 H396 0.929 . S
C374 C373 1.380 . S
C374 C375 1.347 . S
C374 H397 0.931 . S
C375 C374 1.347 . S
C375 C376 1.369 . S
C376 C375 1.369 . S
C376 C377 1.408 . S
C376 H398 0.930 . S
C377 C372 1.348 . S
C377 C376 1.408 . S
C377 H399 0.930 . S
C378 O388 1.281 . S
C378 O389 1.254 . S
C379 O390 1.236 . S
C379 O391 1.266 . S
O380 Tb360 2.484 . S
O380 C362 1.248 . S
O381 Tb360 2.440 . S
O381 C362 1.266 . S
O382 Tb360 2.658 . S
O382 Tb361 2.325 . S
O382 C369 1.281 . S
O383 Tb360 2.409 . S
O383 C369 1.254 . S
O384 Tb360 2.378 . S
O384 C370 1.236 . S
O385 Tb361 2.341 . S
O385 C370 1.266 . S
O386 Tb361 2.484 . S
O386 C371 1.248 . S
O387 Tb361 2.440 . S
O387 C371 1.266 . S
O388 Tb360 2.325 . S
O388 Tb361 2.658 . S
O388 C378 1.281 . S
O389 Tb361 2.409 . S
O389 C378 1.254 . S
O390 Tb361 2.378 . S
O390 C379 1.236 . S
O391 Tb360 2.341 . S
O391 C379 1.266 . S
H392 C364 0.929 . S
H393 C365 0.931 . S
H394 C367 0.930 . S
H395 C368 0.930 . S
H396 C373 0.929 . S
H397 C374 0.931 . S
H398 C376 0.930 . S
H399 C377 0.930 . S
Tb400 C402 2.809 . S
Tb400 O420 2.484 . S
Tb400 O421 2.440 . S
Tb400 O422 2.658 1_655 S
Tb400 O423 2.409 . S
Tb400 O424 2.378 . S
Tb400 O428 2.325 1_655 S
Tb400 O431 2.341 1_655 S
Tb401 C411 2.809 . S
Tb401 O422 2.325 . S
Tb401 O425 2.341 . S
Tb401 O426 2.484 . S
Tb401 O427 2.440 . S
Tb401 O428 2.658 . S
Tb401 O429 2.409 . S
Tb401 O430 2.378 . S
C402 Tb400 2.809 . S
C402 C403 1.514 . S
C402 O420 1.248 . S
C402 O421 1.266 . S
C403 C402 1.514 . S
C403 C404 1.359 . S
C403 C408 1.348 . S
C404 C403 1.359 . S
C404 C405 1.380 . S
C404 H432 0.929 . S
C405 C404 1.380 . S
C405 C406 1.347 . S
C405 H433 0.931 . S
C406 C405 1.347 . S
C406 C407 1.369 . S
C407 C406 1.369 . S
C407 C408 1.408 . S
C407 H434 0.930 . S
C408 C403 1.348 . S
C408 C407 1.408 . S
C408 H435 0.930 . S
C409 O422 1.281 . S
C409 O423 1.254 1_455 S
C410 O424 1.236 . S
C410 O425 1.266 1_655 S
C411 Tb401 2.809 . S
C411 C412 1.514 . S
C411 O426 1.248 . S
C411 O427 1.266 . S
C412 C411 1.514 . S
C412 C413 1.359 . S
C412 C417 1.348 . S
C413 C412 1.359 . S
C413 C414 1.380 . S
C413 H436 0.929 . S
C414 C413 1.380 . S
C414 C415 1.347 . S
C414 H437 0.931 . S
C415 C414 1.347 . S
C415 C416 1.369 . S
C416 C415 1.369 . S
C416 C417 1.408 . S
C416 H438 0.930 . S
C417 C412 1.348 . S
C417 C416 1.408 . S
C417 H439 0.930 . S
C418 O428 1.281 . S
C418 O429 1.254 . S
C419 O430 1.236 . S
C419 O431 1.266 . S
O420 Tb400 2.484 . S
O420 C402 1.248 . S
O421 Tb400 2.440 . S
O421 C402 1.266 . S
O422 Tb400 2.658 1_455 S
O422 Tb401 2.325 . S
O422 C409 1.281 . S
O423 Tb400 2.409 . S
O423 C409 1.254 1_655 S
O424 Tb400 2.378 . S
O424 C410 1.236 . S
O425 Tb401 2.341 . S
O425 C410 1.266 1_455 S
O426 Tb401 2.484 . S
O426 C411 1.248 . S
O427 Tb401 2.440 . S
O427 C411 1.266 . S
O428 Tb400 2.325 1_455 S
O428 Tb401 2.658 . S
O428 C418 1.281 . S
O429 Tb401 2.409 . S
O429 C418 1.254 . S
O430 Tb401 2.378 . S
O430 C419 1.236 . S
O431 Tb400 2.341 1_455 S
O431 C419 1.266 . S
H432 C404 0.929 . S
H433 C405 0.931 . S
H434 C407 0.930 . S
H435 C408 0.930 . S
H436 C413 0.929 . S
H437 C414 0.931 . S
H438 C416 0.930 . S
H439 C417 0.930 . S
Tb440 C442 2.805 1_545 S
Tb440 O460 2.484 1_545 S
Tb440 O461 2.440 . S
Tb440 O462 2.658 1_545 S
Tb440 O463 2.409 . S
Tb440 O464 2.378 1_545 S
Tb440 O468 2.325 1_545 S
Tb440 O471 2.341 . S
Tb441 C451 2.809 . S
Tb441 O462 2.325 . S
Tb441 O465 2.341 . S
Tb441 O466 2.484 . S
Tb441 O467 2.440 . S
Tb441 O468 2.658 . S
Tb441 O469 2.409 . S
Tb441 O470 2.378 1_565 S
C442 Tb440 2.805 1_565 S
C442 C443 1.517 . S
C442 O460 1.250 . S
C442 O461 1.261 1_565 S
C443 C442 1.517 . S
C443 C444 1.359 . S
C443 C448 1.348 . S
C444 C443 1.359 . S
C444 C445 1.380 . S
C444 H472 0.929 . S
C445 C444 1.380 . S
C445 C446 1.347 . S
C445 H473 0.931 . S
C446 C445 1.347 . S
C446 C447 1.369 . S
C447 C446 1.369 . S
C447 C448 1.408 . S
C447 H474 0.930 . S
C448 C443 1.348 . S
C448 C447 1.408 . S
C448 H475 0.930 . S
C449 O462 1.281 . S
C449 O463 1.254 1_565 S
C450 O464 1.236 . S
C450 O465 1.266 . S
C451 Tb441 2.809 . S
C451 C452 1.514 1_455 S
C451 O466 1.248 . S
C451 O467 1.266 . S
C452 C451 1.514 1_655 S
C452 C453 1.359 . S
C452 C457 1.348 . S
C453 C452 1.359 . S
C453 C454 1.380 1_565 S
C453 H476 0.929 . S
C454 C453 1.380 1_545 S
C454 C455 1.347 . S
C454 H477 0.931 . S
C455 C454 1.347 . S
C455 C456 1.366 1_545 S
C456 C455 1.366 1_565 S
C456 C457 1.408 . S
C456 H478 0.930 . S
C457 C452 1.348 . S
C457 C456 1.408 . S
C457 H479 0.930 . S
C458 O468 1.281 . S
C458 O469 1.254 . S
C459 O470 1.236 . S
C459 O471 1.266 . S
O460 Tb440 2.484 1_565 S
O460 C442 1.250 . S
O461 Tb440 2.440 . S
O461 C442 1.261 1_545 S
O462 Tb440 2.658 1_565 S
O462 Tb441 2.325 . S
O462 C449 1.281 . S
O463 Tb440 2.409 . S
O463 C449 1.254 1_545 S
O464 Tb440 2.378 1_565 S
O464 C450 1.236 . S
O465 Tb441 2.341 . S
O465 C450 1.266 . S
O466 Tb441 2.484 . S
O466 C451 1.248 . S
O467 Tb441 2.440 . S
O467 C451 1.266 . S
O468 Tb440 2.325 1_565 S
O468 Tb441 2.658 . S
O468 C458 1.281 . S
O469 Tb441 2.409 . S
O469 C458 1.254 . S
O470 Tb441 2.378 1_545 S
O470 C459 1.236 . S
O471 Tb440 2.341 . S
O471 C459 1.266 . S
H472 C444 0.929 . S
H473 C445 0.931 . S
H474 C447 0.930 . S
H475 C448 0.930 . S
H476 C453 0.929 . S
H477 C454 0.931 . S
H478 C456 0.930 . S
H479 C457 0.930 . S
Tb480 C482 2.809 . S
Tb480 O500 2.484 . S
Tb480 O501 2.440 . S
Tb480 O502 2.658 . S
Tb480 O503 2.409 . S
Tb480 O504 2.378 1_545 S
Tb480 O508 2.325 . S
Tb480 O511 2.341 . S
Tb481 C491 2.805 1_565 S
Tb481 O502 2.325 1_465 S
Tb481 O505 2.341 1_455 S
Tb481 O506 2.484 1_565 S
Tb481 O507 2.440 . S
Tb481 O508 2.658 1_465 S
Tb481 O509 2.409 . S
Tb481 O510 2.378 1_565 S
C482 Tb480 2.809 . S
C482 C483 1.514 . S
C482 O500 1.248 . S
C482 O501 1.266 . S
C483 C482 1.514 . S
C483 C484 1.359 . S
C483 C488 1.348 . S
C484 C483 1.359 . S
C484 C485 1.380 1_545 S
C484 H512 0.929 . S
C485 C484 1.380 1_565 S
C485 C486 1.347 . S
C485 H513 0.931 . S
C486 C485 1.347 . S
C486 C487 1.366 1_565 S
C487 C486 1.366 1_545 S
C487 C488 1.408 . S
C487 H514 0.930 . S
C488 C483 1.348 . S
C488 C487 1.408 . S
C488 H515 0.930 . S
C489 O502 1.281 . S
C489 O503 1.254 . S
C490 O504 1.236 . S
C490 O505 1.266 . S
C491 Tb481 2.805 1_545 S
C491 C492 1.517 . S
C491 O506 1.250 . S
C491 O507 1.261 1_545 S
C492 C491 1.517 . S
C492 C493 1.359 . S
C492 C497 1.348 . S
C493 C492 1.359 . S
C493 C494 1.380 . S
C493 H516 0.929 . S
C494 C493 1.380 . S
C494 C495 1.347 . S
C494 H517 0.931 . S
C495 C494 1.347 . S
C495 C496 1.369 . S
C496 C495 1.369 . S
C496 C497 1.408 . S
C496 H518 0.930 . S
C497 C492 1.348 . S
C497 C496 1.408 . S
C497 H519 0.930 . S
C498 O508 1.281 . S
C498 O509 1.254 1_645 S
C499 O510 1.236 . S
C499 O511 1.266 1_455 S
O500 Tb480 2.484 . S
O500 C482 1.248 . S
O501 Tb480 2.440 . S
O501 C482 1.266 . S
O502 Tb480 2.658 . S
O502 Tb481 2.325 1_645 S
O502 C489 1.281 . S
O503 Tb480 2.409 . S
O503 C489 1.254 . S
O504 Tb480 2.378 1_565 S
O504 C490 1.236 . S
O505 Tb481 2.341 1_655 S
O505 C490 1.266 . S
O506 Tb481 2.484 1_545 S
O506 C491 1.250 . S
O507 Tb481 2.440 . S
O507 C491 1.261 1_565 S
O508 Tb480 2.325 . S
O508 Tb481 2.658 1_645 S
O508 C498 1.281 . S
O509 Tb481 2.409 . S
O509 C498 1.254 1_465 S
O510 Tb481 2.378 1_545 S
O510 C499 1.236 . S
O511 Tb480 2.341 . S
O511 C499 1.266 1_655 S
H512 C484 0.929 . S
H513 C485 0.931 . S
H514 C487 0.930 . S
H515 C488 0.930 . S
H516 C493 0.929 . S
H517 C494 0.931 . S
H518 C496 0.930 . S
H519 C497 0.930 . S
Tb520 C522 2.809 . S
Tb520 O540 2.484 . S
Tb520 O541 2.440 . S
Tb520 O542 2.658 . S
Tb520 O543 2.409 . S
Tb520 O544 2.378 . S
Tb520 O548 2.325 . S
Tb520 O551 2.341 . S
Tb521 C531 2.809 . S
Tb521 O542 2.325 . S
Tb521 O545 2.341 . S
Tb521 O546 2.484 . S
Tb521 O547 2.440 . S
Tb521 O548 2.658 . S
Tb521 O549 2.409 . S
Tb521 O550 2.378 . S
C522 Tb520 2.809 . S
C522 C523 1.514 1_655 S
C522 O540 1.248 . S
C522 O541 1.266 . S
C523 C522 1.514 1_455 S
C523 C524 1.359 . S
C523 C528 1.348 . S
C524 C523 1.359 . S
C524 C525 1.380 . S
C524 H552 0.929 . S
C525 C524 1.380 . S
C525 C526 1.347 . S
C525 H553 0.931 . S
C526 C525 1.347 . S
C526 C527 1.369 . S
C527 C526 1.369 . S
C527 C528 1.408 . S
C527 H554 0.930 . S
C528 C523 1.348 . S
C528 C527 1.408 . S
C528 H555 0.930 . S
C529 O542 1.281 . S
C529 O543 1.254 . S
C530 O544 1.236 . S
C530 O545 1.266 . S
C531 Tb521 2.809 . S
C531 C532 1.514 . S
C531 O546 1.248 . S
C531 O547 1.266 . S
C532 C531 1.514 . S
C532 C533 1.359 . S
C532 C537 1.348 . S
C533 C532 1.359 . S
C533 C534 1.380 . S
C533 H556 0.929 . S
C534 C533 1.380 . S
C534 C535 1.347 . S
C534 H557 0.931 . S
C535 C534 1.347 . S
C535 C536 1.369 . S
C536 C535 1.369 . S
C536 C537 1.408 . S
C536 H558 0.930 . S
C537 C532 1.348 . S
C537 C536 1.408 . S
C537 H559 0.930 . S
C538 O548 1.281 . S
C538 O549 1.254 . S
C539 O550 1.236 . S
C539 O551 1.266 . S
O540 Tb520 2.484 . S
O540 C522 1.248 . S
O541 Tb520 2.440 . S
O541 C522 1.266 . S
O542 Tb520 2.658 . S
O542 Tb521 2.325 . S
O542 C529 1.281 . S
O543 Tb520 2.409 . S
O543 C529 1.254 . S
O544 Tb520 2.378 . S
O544 C530 1.236 . S
O545 Tb521 2.341 . S
O545 C530 1.266 . S
O546 Tb521 2.484 . S
O546 C531 1.248 . S
O547 Tb521 2.440 . S
O547 C531 1.266 . S
O548 Tb520 2.325 . S
O548 Tb521 2.658 . S
O548 C538 1.281 . S
O549 Tb521 2.409 . S
O549 C538 1.254 . S
O550 Tb521 2.378 . S
O550 C539 1.236 . S
O551 Tb520 2.341 . S
O551 C539 1.266 . S
H552 C524 0.929 . S
H553 C525 0.931 . S
H554 C527 0.930 . S
H555 C528 0.930 . S
H556 C533 0.929 . S
H557 C534 0.931 . S
H558 C536 0.930 . S
H559 C537 0.930 . S
Tb560 C562 2.809 . S
Tb560 O580 2.484 . S
Tb560 O581 2.440 . S
Tb560 O582 2.658 . S
Tb560 O583 2.409 . S
Tb560 O584 2.378 . S
Tb560 O588 2.325 . S
Tb560 O591 2.341 . S
Tb561 C571 2.809 . S
Tb561 O582 2.325 1_455 S
Tb561 O585 2.341 1_455 S
Tb561 O586 2.484 . S
Tb561 O587 2.440 . S
Tb561 O588 2.658 1_455 S
Tb561 O589 2.409 . S
Tb561 O590 2.378 . S
C562 Tb560 2.809 . S
C562 C563 1.514 . S
C562 O580 1.248 . S
C562 O581 1.266 . S
C563 C562 1.514 . S
C563 C564 1.359 . S
C563 C568 1.348 . S
C564 C563 1.359 . S
C564 C565 1.380 . S
C564 H592 0.929 . S
C565 C564 1.380 . S
C565 C566 1.347 . S
C565 H593 0.931 . S
C566 C565 1.347 . S
C566 C567 1.369 . S
C567 C566 1.369 . S
C567 C568 1.408 . S
C567 H594 0.930 . S
C568 C563 1.348 . S
C568 C567 1.408 . S
C568 H595 0.930 . S
C569 O582 1.281 . S
C569 O583 1.254 . S
C570 O584 1.236 . S
C570 O585 1.266 . S
C571 Tb561 2.809 . S
C571 C572 1.514 . S
C571 O586 1.248 . S
C571 O587 1.266 . S
C572 C571 1.514 . S
C572 C573 1.359 . S
C572 C577 1.348 . S
C573 C572 1.359 . S
C573 C574 1.380 . S
C573 H596 0.929 . S
C574 C573 1.380 . S
C574 C575 1.347 . S
C574 H597 0.931 . S
C575 C574 1.347 . S
C575 C576 1.369 . S
C576 C575 1.369 . S
C576 C577 1.408 . S
C576 H598 0.930 . S
C577 C572 1.348 . S
C577 C576 1.408 . S
C577 H599 0.930 . S
C578 O588 1.281 . S
C578 O589 1.254 1_655 S
C579 O590 1.236 . S
C579 O591 1.266 1_455 S
O580 Tb560 2.484 . S
O580 C562 1.248 . S
O581 Tb560 2.440 . S
O581 C562 1.266 . S
O582 Tb560 2.658 . S
O582 Tb561 2.325 1_655 S
O582 C569 1.281 . S
O583 Tb560 2.409 . S
O583 C569 1.254 . S
O584 Tb560 2.378 . S
O584 C570 1.236 . S
O585 Tb561 2.341 1_655 S
O585 C570 1.266 . S
O586 Tb561 2.484 . S
O586 C571 1.248 . S
O587 Tb561 2.440 . S
O587 C571 1.266 . S
O588 Tb560 2.325 . S
O588 Tb561 2.658 1_655 S
O588 C578 1.281 . S
O589 Tb561 2.409 . S
O589 C578 1.254 1_455 S
O590 Tb561 2.378 . S
O590 C579 1.236 . S
O591 Tb560 2.341 . S
O591 C579 1.266 1_655 S
H592 C564 0.929 . S
H593 C565 0.931 . S
H594 C567 0.930 . S
H595 C568 0.930 . S
H596 C573 0.929 . S
H597 C574 0.931 . S
H598 C576 0.930 . S
H599 C577 0.930 . S
Tb600 C602 2.809 . S
Tb600 O620 2.484 . S
Tb600 O621 2.440 . S
Tb600 O622 2.658 . S
Tb600 O623 2.409 . S
Tb600 O624 2.378 1_545 S
Tb600 O628 2.325 . S
Tb600 O631 2.341 . S
Tb601 C611 2.805 1_565 S
Tb601 O622 2.325 1_565 S
Tb601 O625 2.341 . S
Tb601 O626 2.484 1_565 S
Tb601 O627 2.440 . S
Tb601 O628 2.658 1_565 S
Tb601 O629 2.409 . S
Tb601 O630 2.378 1_565 S
C602 Tb600 2.809 . S
C602 C603 1.514 1_655 S
C602 O620 1.248 . S
C602 O621 1.266 . S
C603 C602 1.514 1_455 S
C603 C604 1.359 . S
C603 C608 1.348 . S
C604 C603 1.359 . S
C604 C605 1.380 1_545 S
C604 H632 0.929 . S
C605 C604 1.380 1_565 S
C605 C606 1.347 . S
C605 H633 0.931 . S
C606 C605 1.347 . S
C606 C607 1.366 1_565 S
C607 C606 1.366 1_545 S
C607 C608 1.408 . S
C607 H634 0.930 . S
C608 C603 1.348 . S
C608 C607 1.408 . S
C608 H635 0.930 . S
C609 O622 1.281 . S
C609 O623 1.254 . S
C610 O624 1.236 . S
C610 O625 1.266 . S
C611 Tb601 2.805 1_545 S
C611 C612 1.517 . S
C611 O626 1.250 . S
C611 O627 1.261 1_545 S
C612 C611 1.517 . S
C612 C613 1.359 . S
C612 C617 1.348 . S
C613 C612 1.359 . S
C613 C614 1.380 . S
C613 H636 0.929 . S
C614 C613 1.380 . S
C614 C615 1.347 . S
C614 H637 0.931 . S
C615 C614 1.347 . S
C615 C616 1.369 . S
C616 C615 1.369 . S
C616 C617 1.408 . S
C616 H638 0.930 . S
C617 C612 1.348 . S
C617 C616 1.408 . S
C617 H639 0.930 . S
C618 O628 1.281 . S
C618 O629 1.254 1_545 S
C619 O630 1.236 . S
C619 O631 1.266 . S
O620 Tb600 2.484 . S
O620 C602 1.248 . S
O621 Tb600 2.440 . S
O621 C602 1.266 . S
O622 Tb600 2.658 . S
O622 Tb601 2.325 1_545 S
O622 C609 1.281 . S
O623 Tb600 2.409 . S
O623 C609 1.254 . S
O624 Tb600 2.378 1_565 S
O624 C610 1.236 . S
O625 Tb601 2.341 . S
O625 C610 1.266 . S
O626 Tb601 2.484 1_545 S
O626 C611 1.250 . S
O627 Tb601 2.440 . S
O627 C611 1.261 1_565 S
O628 Tb600 2.325 . S
O628 Tb601 2.658 1_545 S
O628 C618 1.281 . S
O629 Tb601 2.409 . S
O629 C618 1.254 1_565 S
O630 Tb601 2.378 1_545 S
O630 C619 1.236 . S
O631 Tb600 2.341 . S
O631 C619 1.266 . S
H632 C604 0.929 . S
H633 C605 0.931 . S
H634 C607 0.930 . S
H635 C608 0.930 . S
H636 C613 0.929 . S
H637 C614 0.931 . S
H638 C616 0.930 . S
H639 C617 0.930 . S
Tb640 C642 2.809 . S
Tb640 O660 2.484 . S
Tb640 O661 2.440 . S
Tb640 O662 2.658 . S
Tb640 O663 2.409 . S
Tb640 O664 2.378 . S
Tb640 O668 2.325 . S
Tb640 O671 2.341 . S
Tb641 C651 2.809 . S
Tb641 O662 2.325 . S
Tb641 O665 2.341 . S
Tb641 O666 2.484 . S
Tb641 O667 2.440 . S
Tb641 O668 2.658 . S
Tb641 O669 2.409 . S
Tb641 O670 2.378 . S
C642 Tb640 2.809 . S
C642 C643 1.514 . S
C642 O660 1.248 . S
C642 O661 1.266 . S
C643 C642 1.514 . S
C643 C644 1.359 . S
C643 C648 1.348 . S
C644 C643 1.359 . S
C644 C645 1.380 . S
C644 H672 0.929 . S
C645 C644 1.380 . S
C645 C646 1.347 . S
C645 H673 0.931 . S
C646 C645 1.347 . S
C646 C647 1.369 . S
C647 C646 1.369 . S
C647 C648 1.408 . S
C647 H674 0.930 . S
C648 C643 1.348 . S
C648 C647 1.408 . S
C648 H675 0.930 . S
C649 O662 1.281 . S
C649 O663 1.254 . S
C650 O664 1.236 . S
C650 O665 1.266 . S
C651 Tb641 2.809 . S
C651 C652 1.514 . S
C651 O666 1.248 . S
C651 O667 1.266 . S
C652 C651 1.514 . S
C652 C653 1.359 . S
C652 C657 1.348 . S
C653 C652 1.359 . S
C653 C654 1.380 . S
C653 H676 0.929 . S
C654 C653 1.380 . S
C654 C655 1.347 . S
C654 H677 0.931 . S
C655 C654 1.347 . S
C655 C656 1.369 . S
C656 C655 1.369 . S
C656 C657 1.408 . S
C656 H678 0.930 . S
C657 C652 1.348 . S
C657 C656 1.408 . S
C657 H679 0.930 . S
C658 O668 1.281 . S
C658 O669 1.254 . S
C659 O670 1.236 . S
C659 O671 1.266 . S
O660 Tb640 2.484 . S
O660 C642 1.248 . S
O661 Tb640 2.440 . S
O661 C642 1.266 . S
O662 Tb640 2.658 . S
O662 Tb641 2.325 . S
O662 C649 1.281 . S
O663 Tb640 2.409 . S
O663 C649 1.254 . S
O664 Tb640 2.378 . S
O664 C650 1.236 . S
O665 Tb641 2.341 . S
O665 C650 1.266 . S
O666 Tb641 2.484 . S
O666 C651 1.248 . S
O667 Tb641 2.440 . S
O667 C651 1.266 . S
O668 Tb640 2.325 . S
O668 Tb641 2.658 . S
O668 C658 1.281 . S
O669 Tb641 2.409 . S
O669 C658 1.254 . S
O670 Tb641 2.378 . S
O670 C659 1.236 . S
O671 Tb640 2.341 . S
O671 C659 1.266 . S
H672 C644 0.929 . S
H673 C645 0.931 . S
H674 C647 0.930 . S
H675 C648 0.930 . S
H676 C653 0.929 . S
H677 C654 0.931 . S
H678 C656 0.930 . S
H679 C657 0.930 . S
Tb680 C682 2.809 . S
Tb680 O700 2.484 . S
Tb680 O701 2.440 . S
Tb680 O702 2.658 . S
Tb680 O703 2.409 . S
Tb680 O704 2.378 . S
Tb680 O708 2.325 . S
Tb680 O711 2.341 . S
Tb681 C691 2.809 . S
Tb681 O702 2.325 . S
Tb681 O705 2.341 . S
Tb681 O706 2.484 . S
Tb681 O707 2.440 . S
Tb681 O708 2.658 . S
Tb681 O709 2.409 . S
Tb681 O710 2.378 . S
C682 Tb680 2.809 . S
C682 C683 1.514 . S
C682 O700 1.248 . S
C682 O701 1.266 . S
C683 C682 1.514 . S
C683 C684 1.359 1_655 S
C683 C688 1.348 1_655 S
C684 C683 1.359 1_455 S
C684 C685 1.380 . S
C684 H712 0.929 1_455 S
C685 C684 1.380 . S
C685 C686 1.347 . S
C685 H713 0.931 . S
C686 C685 1.347 . S
C686 C687 1.369 . S
C687 C686 1.369 . S
C687 C688 1.408 . S
C687 H714 0.930 . S
C688 C683 1.348 1_455 S
C688 C687 1.408 . S
C688 H715 0.930 1_455 S
C689 O702 1.281 . S
C689 O703 1.254 . S
C690 O704 1.236 . S
C690 O705 1.266 . S
C691 Tb681 2.809 . S
C691 C692 1.514 . S
C691 O706 1.248 . S
C691 O707 1.266 . S
C692 C691 1.514 . S
C692 C693 1.359 . S
C692 C697 1.348 . S
C693 C692 1.359 . S
C693 C694 1.380 . S
C693 H716 0.929 . S
C694 C693 1.380 . S
C694 C695 1.347 . S
C694 H717 0.931 . S
C695 C694 1.347 . S
C695 C696 1.369 . S
C696 C695 1.369 . S
C696 C697 1.408 . S
C696 H718 0.930 . S
C697 C692 1.348 . S
C697 C696 1.408 . S
C697 H719 0.930 . S
C698 O708 1.281 . S
C698 O709 1.254 . S
C699 O710 1.236 . S
C699 O711 1.266 . S
O700 Tb680 2.484 . S
O700 C682 1.248 . S
O701 Tb680 2.440 . S
O701 C682 1.266 . S
O702 Tb680 2.658 . S
O702 Tb681 2.325 . S
O702 C689 1.281 . S
O703 Tb680 2.409 . S
O703 C689 1.254 . S
O704 Tb680 2.378 . S
O704 C690 1.236 . S
O705 Tb681 2.341 . S
O705 C690 1.266 . S
O706 Tb681 2.484 . S
O706 C691 1.248 . S
O707 Tb681 2.440 . S
O707 C691 1.266 . S
O708 Tb680 2.325 . S
O708 Tb681 2.658 . S
O708 C698 1.281 . S
O709 Tb681 2.409 . S
O709 C698 1.254 . S
O710 Tb681 2.378 . S
O710 C699 1.236 . S
O711 Tb680 2.341 . S
O711 C699 1.266 . S
H712 C684 0.929 1_655 S
H713 C685 0.931 . S
H714 C687 0.930 . S
H715 C688 0.930 1_655 S
H716 C693 0.929 . S
H717 C694 0.931 . S
H718 C696 0.930 . S
H719 C697 0.930 . S
Tb720 C722 2.809 . S
Tb720 O740 2.484 . S
Tb720 O741 2.440 . S
Tb720 O742 2.658 . S
Tb720 O743 2.409 . S
Tb720 O744 2.378 . S
Tb720 O748 2.325 . S
Tb720 O751 2.341 . S
Tb721 C731 2.809 . S
Tb721 O742 2.325 . S
Tb721 O745 2.341 . S
Tb721 O746 2.484 . S
Tb721 O747 2.440 . S
Tb721 O748 2.658 . S
Tb721 O749 2.409 . S
Tb721 O750 2.378 . S
C722 Tb720 2.809 . S
C722 C723 1.514 . S
C722 O740 1.248 . S
C722 O741 1.266 . S
C723 C722 1.514 . S
C723 C724 1.359 . S
C723 C728 1.348 . S
C724 C723 1.359 . S
C724 C725 1.380 . S
C724 H752 0.929 . S
C725 C724 1.380 . S
C725 C726 1.347 . S
C725 H753 0.931 . S
C726 C725 1.347 . S
C726 C727 1.369 . S
C727 C726 1.369 . S
C727 C728 1.408 . S
C727 H754 0.930 . S
C728 C723 1.348 . S
C728 C727 1.408 . S
C728 H755 0.930 . S
C729 O742 1.281 . S
C729 O743 1.254 . S
C730 O744 1.236 . S
C730 O745 1.266 . S
C731 Tb721 2.809 . S
C731 C732 1.514 . S
C731 O746 1.248 . S
C731 O747 1.266 . S
C732 C731 1.514 . S
C732 C733 1.359 . S
C732 C737 1.348 . S
C733 C732 1.359 . S
C733 C734 1.380 . S
C733 H756 0.929 . S
C734 C733 1.380 . S
C734 C735 1.347 . S
C734 H757 0.931 . S
C735 C734 1.347 . S
C735 C736 1.369 . S
C736 C735 1.369 . S
C736 C737 1.408 . S
C736 H758 0.930 . S
C737 C732 1.348 . S
C737 C736 1.408 . S
C737 H759 0.930 . S
C738 O748 1.281 . S
C738 O749 1.254 . S
C739 O750 1.236 . S
C739 O751 1.266 . S
O740 Tb720 2.484 . S
O740 C722 1.248 . S
O741 Tb720 2.440 . S
O741 C722 1.266 . S
O742 Tb720 2.658 . S
O742 Tb721 2.325 . S
O742 C729 1.281 . S
O743 Tb720 2.409 . S
O743 C729 1.254 . S
O744 Tb720 2.378 . S
O744 C730 1.236 . S
O745 Tb721 2.341 . S
O745 C730 1.266 . S
O746 Tb721 2.484 . S
O746 C731 1.248 . S
O747 Tb721 2.440 . S
O747 C731 1.266 . S
O748 Tb720 2.325 . S
O748 Tb721 2.658 . S
O748 C738 1.281 . S
O749 Tb721 2.409 . S
O749 C738 1.254 . S
O750 Tb721 2.378 . S
O750 C739 1.236 . S
O751 Tb720 2.341 . S
O751 C739 1.266 . S
H752 C724 0.929 . S
H753 C725 0.931 . S
H754 C727 0.930 . S
H755 C728 0.930 . S
H756 C733 0.929 . S
H757 C734 0.931 . S
H758 C736 0.930 . S
H759 C737 0.930 . S
Tb760 C762 2.809 . S
Tb760 O780 2.484 . S
Tb760 O781 2.440 . S
Tb760 O782 2.658 . S
Tb760 O783 2.409 . S
Tb760 O784 2.378 . S
Tb760 O788 2.325 . S
Tb760 O791 2.341 . S
Tb761 C771 2.809 . S
Tb761 O782 2.325 . S
Tb761 O785 2.341 . S
Tb761 O786 2.484 . S
Tb761 O787 2.440 . S
Tb761 O788 2.658 . S
Tb761 O789 2.409 . S
Tb761 O790 2.378 . S
C762 Tb760 2.809 . S
C762 C763 1.514 . S
C762 O780 1.248 . S
C762 O781 1.266 . S
C763 C762 1.514 . S
C763 C764 1.359 1_655 S
C763 C768 1.348 1_655 S
C764 C763 1.359 1_455 S
C764 C765 1.380 . S
C764 H792 0.929 1_455 S
C765 C764 1.380 . S
C765 C766 1.347 . S
C765 H793 0.931 . S
C766 C765 1.347 . S
C766 C767 1.369 . S
C767 C766 1.369 . S
C767 C768 1.408 . S
C767 H794 0.930 . S
C768 C763 1.348 1_455 S
C768 C767 1.408 . S
C768 H795 0.930 1_455 S
C769 O782 1.281 . S
C769 O783 1.254 . S
C770 O784 1.236 . S
C770 O785 1.266 . S
C771 Tb761 2.809 . S
C771 C772 1.514 . S
C771 O786 1.248 . S
C771 O787 1.266 . S
C772 C771 1.514 . S
C772 C773 1.359 . S
C772 C777 1.348 . S
C773 C772 1.359 . S
C773 C774 1.380 . S
C773 H796 0.929 . S
C774 C773 1.380 . S
C774 C775 1.347 . S
C774 H797 0.931 . S
C775 C774 1.347 . S
C775 C776 1.369 . S
C776 C775 1.369 . S
C776 C777 1.408 . S
C776 H798 0.930 . S
C777 C772 1.348 . S
C777 C776 1.408 . S
C777 H799 0.930 . S
C778 O788 1.281 . S
C778 O789 1.254 . S
C779 O790 1.236 . S
C779 O791 1.266 . S
O780 Tb760 2.484 . S
O780 C762 1.248 . S
O781 Tb760 2.440 . S
O781 C762 1.266 . S
O782 Tb760 2.658 . S
O782 Tb761 2.325 . S
O782 C769 1.281 . S
O783 Tb760 2.409 . S
O783 C769 1.254 . S
O784 Tb760 2.378 . S
O784 C770 1.236 . S
O785 Tb761 2.341 . S
O785 C770 1.266 . S
O786 Tb761 2.484 . S
O786 C771 1.248 . S
O787 Tb761 2.440 . S
O787 C771 1.266 . S
O788 Tb760 2.325 . S
O788 Tb761 2.658 . S
O788 C778 1.281 . S
O789 Tb761 2.409 . S
O789 C778 1.254 . S
O790 Tb761 2.378 . S
O790 C779 1.236 . S
O791 Tb760 2.341 . S
O791 C779 1.266 . S
H792 C764 0.929 1_655 S
H793 C765 0.931 . S
H794 C767 0.930 . S
H795 C768 0.930 1_655 S
H796 C773 0.929 . S
H797 C774 0.931 . S
H798 C776 0.930 . S
H799 C777 0.930 . S
Tb800 C802 2.809 . S
Tb800 O820 2.484 . S
Tb800 O821 2.440 . S
Tb800 O822 2.658 . S
Tb800 O823 2.409 . S
Tb800 O824 2.378 . S
Tb800 O828 2.325 . S
Tb800 O831 2.341 . S
Tb801 C811 2.809 . S
Tb801 O822 2.325 . S
Tb801 O825 2.341 . S
Tb801 O826 2.484 . S
Tb801 O827 2.440 . S
Tb801 O828 2.658 . S
Tb801 O829 2.409 . S
Tb801 O830 2.378 . S
C802 Tb800 2.809 . S
C802 C803 1.514 . S
C802 O820 1.248 . S
C802 O821 1.266 . S
C803 C802 1.514 . S
C803 C804 1.359 . S
C803 C808 1.348 . S
C804 C803 1.359 . S
C804 C805 1.380 . S
C804 H832 0.929 . S
C805 C804 1.380 . S
C805 C806 1.347 . S
C805 H833 0.931 . S
C806 C805 1.347 . S
C806 C807 1.369 . S
C807 C806 1.369 . S
C807 C808 1.408 . S
C807 H834 0.930 . S
C808 C803 1.348 . S
C808 C807 1.408 . S
C808 H835 0.930 . S
C809 O822 1.281 . S
C809 O823 1.254 . S
C810 O824 1.236 . S
C810 O825 1.266 . S
C811 Tb801 2.809 . S
C811 C812 1.514 . S
C811 O826 1.248 . S
C811 O827 1.266 . S
C812 C811 1.514 . S
C812 C813 1.359 . S
C812 C817 1.348 . S
C813 C812 1.359 . S
C813 C814 1.380 . S
C813 H836 0.929 . S
C814 C813 1.380 . S
C814 C815 1.347 . S
C814 H837 0.931 . S
C815 C814 1.347 . S
C815 C816 1.369 . S
C816 C815 1.369 . S
C816 C817 1.408 . S
C816 H838 0.930 . S
C817 C812 1.348 . S
C817 C816 1.408 . S
C817 H839 0.930 . S
C818 O828 1.281 . S
C818 O829 1.254 . S
C819 O830 1.236 . S
C819 O831 1.266 . S
O820 Tb800 2.484 . S
O820 C802 1.248 . S
O821 Tb800 2.440 . S
O821 C802 1.266 . S
O822 Tb800 2.658 . S
O822 Tb801 2.325 . S
O822 C809 1.281 . S
O823 Tb800 2.409 . S
O823 C809 1.254 . S
O824 Tb800 2.378 . S
O824 C810 1.236 . S
O825 Tb801 2.341 . S
O825 C810 1.266 . S
O826 Tb801 2.484 . S
O826 C811 1.248 . S
O827 Tb801 2.440 . S
O827 C811 1.266 . S
O828 Tb800 2.325 . S
O828 Tb801 2.658 . S
O828 C818 1.281 . S
O829 Tb801 2.409 . S
O829 C818 1.254 . S
O830 Tb801 2.378 . S
O830 C819 1.236 . S
O831 Tb800 2.341 . S
O831 C819 1.266 . S
H832 C804 0.929 . S
H833 C805 0.931 . S
H834 C807 0.930 . S
H835 C808 0.930 . S
H836 C813 0.929 . S
H837 C814 0.931 . S
H838 C816 0.930 . S
H839 C817 0.930 . S
Tb840 C842 2.809 . S
Tb840 O860 2.484 . S
Tb840 O861 2.440 . S
Tb840 O862 2.658 . S
Tb840 O863 2.409 . S
Tb840 O864 2.378 . S
Tb840 O868 2.325 . S
Tb840 O871 2.341 . S
Tb841 C851 2.809 . S
Tb841 O862 2.325 . S
Tb841 O865 2.341 . S
Tb841 O866 2.484 . S
Tb841 O867 2.440 . S
Tb841 O868 2.658 . S
Tb841 O869 2.409 . S
Tb841 O870 2.378 . S
C842 Tb840 2.809 . S
C842 C843 1.514 . S
C842 O860 1.248 . S
C842 O861 1.266 . S
C843 C842 1.514 . S
C843 C844 1.359 . S
C843 C848 1.348 . S
C844 C843 1.359 . S
C844 C845 1.380 . S
C844 H872 0.929 . S
C845 C844 1.380 . S
C845 C846 1.347 . S
C845 H873 0.931 . S
C846 C845 1.347 . S
C846 C847 1.369 . S
C847 C846 1.369 . S
C847 C848 1.408 . S
C847 H874 0.930 . S
C848 C843 1.348 . S
C848 C847 1.408 . S
C848 H875 0.930 . S
C849 O862 1.281 . S
C849 O863 1.254 . S
C850 O864 1.236 . S
C850 O865 1.266 . S
C851 Tb841 2.809 . S
C851 C852 1.514 . S
C851 O866 1.248 . S
C851 O867 1.266 . S
C852 C851 1.514 . S
C852 C853 1.359 1_455 S
C852 C857 1.348 1_455 S
C853 C852 1.359 1_655 S
C853 C854 1.380 . S
C853 H876 0.929 1_655 S
C854 C853 1.380 . S
C854 C855 1.347 . S
C854 H877 0.931 . S
C855 C854 1.347 . S
C855 C856 1.369 . S
C856 C855 1.369 . S
C856 C857 1.408 . S
C856 H878 0.930 . S
C857 C852 1.348 1_655 S
C857 C856 1.408 . S
C857 H879 0.930 1_655 S
C858 O868 1.281 . S
C858 O869 1.254 . S
C859 O870 1.236 . S
C859 O871 1.266 . S
O860 Tb840 2.484 . S
O860 C842 1.248 . S
O861 Tb840 2.440 . S
O861 C842 1.266 . S
O862 Tb840 2.658 . S
O862 Tb841 2.325 . S
O862 C849 1.281 . S
O863 Tb840 2.409 . S
O863 C849 1.254 . S
O864 Tb840 2.378 . S
O864 C850 1.236 . S
O865 Tb841 2.341 . S
O865 C850 1.266 . S
O866 Tb841 2.484 . S
O866 C851 1.248 . S
O867 Tb841 2.440 . S
O867 C851 1.266 . S
O868 Tb840 2.325 . S
O868 Tb841 2.658 . S
O868 C858 1.281 . S
O869 Tb841 2.409 . S
O869 C858 1.254 . S
O870 Tb841 2.378 . S
O870 C859 1.236 . S
O871 Tb840 2.341 . S
O871 C859 1.266 . S
H872 C844 0.929 . S
H873 C845 0.931 . S
H874 C847 0.930 . S
H875 C848 0.930 . S
H876 C853 0.929 1_455 S
H877 C854 0.931 . S
H878 C856 0.930 . S
H879 C857 0.930 1_455 S
Tb880 C882 2.809 . S
Tb880 O900 2.484 . S
Tb880 O901 2.440 . S
Tb880 O902 2.658 . S
Tb880 O903 2.409 . S
Tb880 O904 2.378 . S
Tb880 O908 2.325 . S
Tb880 O911 2.341 . S
Tb881 C891 2.809 . S
Tb881 O902 2.325 . S
Tb881 O905 2.341 . S
Tb881 O906 2.484 . S
Tb881 O907 2.440 . S
Tb881 O908 2.658 . S
Tb881 O909 2.409 . S
Tb881 O910 2.378 . S
C882 Tb880 2.809 . S
C882 C883 1.514 . S
C882 O900 1.248 . S
C882 O901 1.266 . S
C883 C882 1.514 . S
C883 C884 1.359 . S
C883 C888 1.348 . S
C884 C883 1.359 . S
C884 C885 1.380 . S
C884 H912 0.929 . S
C885 C884 1.380 . S
C885 C886 1.347 . S
C885 H913 0.931 . S
C886 C885 1.347 . S
C886 C887 1.369 . S
C887 C886 1.369 . S
C887 C888 1.408 . S
C887 H914 0.930 . S
C888 C883 1.348 . S
C888 C887 1.408 . S
C888 H915 0.930 . S
C889 O902 1.281 . S
C889 O903 1.254 . S
C890 O904 1.236 . S
C890 O905 1.266 . S
C891 Tb881 2.809 . S
C891 C892 1.514 . S
C891 O906 1.248 . S
C891 O907 1.266 . S
C892 C891 1.514 . S
C892 C893 1.359 . S
C892 C897 1.348 . S
C893 C892 1.359 . S
C893 C894 1.380 . S
C893 H916 0.929 . S
C894 C893 1.380 . S
C894 C895 1.347 . S
C894 H917 0.931 . S
C895 C894 1.347 . S
C895 C896 1.369 . S
C896 C895 1.369 . S
C896 C897 1.408 . S
C896 H918 0.930 . S
C897 C892 1.348 . S
C897 C896 1.408 . S
C897 H919 0.930 . S
C898 O908 1.281 . S
C898 O909 1.254 . S
C899 O910 1.236 . S
C899 O911 1.266 . S
O900 Tb880 2.484 . S
O900 C882 1.248 . S
O901 Tb880 2.440 . S
O901 C882 1.266 . S
O902 Tb880 2.658 . S
O902 Tb881 2.325 . S
O902 C889 1.281 . S
O903 Tb880 2.409 . S
O903 C889 1.254 . S
O904 Tb880 2.378 . S
O904 C890 1.236 . S
O905 Tb881 2.341 . S
O905 C890 1.266 . S
O906 Tb881 2.484 . S
O906 C891 1.248 . S
O907 Tb881 2.440 . S
O907 C891 1.266 . S
O908 Tb880 2.325 . S
O908 Tb881 2.658 . S
O908 C898 1.281 . S
O909 Tb881 2.409 . S
O909 C898 1.254 . S
O910 Tb881 2.378 . S
O910 C899 1.236 . S
O911 Tb880 2.341 . S
O911 C899 1.266 . S
H912 C884 0.929 . S
H913 C885 0.931 . S
H914 C887 0.930 . S
H915 C888 0.930 . S
H916 C893 0.929 . S
H917 C894 0.931 . S
H918 C896 0.930 . S
H919 C897 0.930 . S
Tb920 C922 2.809 . S
Tb920 O940 2.484 . S
Tb920 O941 2.440 . S
Tb920 O942 2.658 . S
Tb920 O943 2.409 . S
Tb920 O944 2.378 . S
Tb920 O948 2.325 . S
Tb920 O951 2.341 . S
Tb921 C931 2.809 . S
Tb921 O942 2.325 . S
Tb921 O945 2.341 . S
Tb921 O946 2.484 . S
Tb921 O947 2.440 . S
Tb921 O948 2.658 . S
Tb921 O949 2.409 . S
Tb921 O950 2.378 . S
C922 Tb920 2.809 . S
C922 C923 1.514 . S
C922 O940 1.248 . S
C922 O941 1.266 . S
C923 C922 1.514 . S
C923 C924 1.359 . S
C923 C928 1.348 . S
C924 C923 1.359 . S
C924 C925 1.380 . S
C924 H952 0.929 . S
C925 C924 1.380 . S
C925 C926 1.347 . S
C925 H953 0.931 . S
C926 C925 1.347 . S
C926 C927 1.369 . S
C927 C926 1.369 . S
C927 C928 1.408 . S
C927 H954 0.930 . S
C928 C923 1.348 . S
C928 C927 1.408 . S
C928 H955 0.930 . S
C929 O942 1.281 . S
C929 O943 1.254 . S
C930 O944 1.236 . S
C930 O945 1.266 . S
C931 Tb921 2.809 . S
C931 C932 1.514 . S
C931 O946 1.248 . S
C931 O947 1.266 . S
C932 C931 1.514 . S
C932 C933 1.359 1_455 S
C932 C937 1.348 1_455 S
C933 C932 1.359 1_655 S
C933 C934 1.380 . S
C933 H956 0.929 1_655 S
C934 C933 1.380 . S
C934 C935 1.347 . S
C934 H957 0.931 . S
C935 C934 1.347 . S
C935 C936 1.369 . S
C936 C935 1.369 . S
C936 C937 1.408 . S
C936 H958 0.930 . S
C937 C932 1.348 1_655 S
C937 C936 1.408 . S
C937 H959 0.930 1_655 S
C938 O948 1.281 . S
C938 O949 1.254 . S
C939 O950 1.236 . S
C939 O951 1.266 . S
O940 Tb920 2.484 . S
O940 C922 1.248 . S
O941 Tb920 2.440 . S
O941 C922 1.266 . S
O942 Tb920 2.658 . S
O942 Tb921 2.325 . S
O942 C929 1.281 . S
O943 Tb920 2.409 . S
O943 C929 1.254 . S
O944 Tb920 2.378 . S
O944 C930 1.236 . S
O945 Tb921 2.341 . S
O945 C930 1.266 . S
O946 Tb921 2.484 . S
O946 C931 1.248 . S
O947 Tb921 2.440 . S
O947 C931 1.266 . S
O948 Tb920 2.325 . S
O948 Tb921 2.658 . S
O948 C938 1.281 . S
O949 Tb921 2.409 . S
O949 C938 1.254 . S
O950 Tb921 2.378 . S
O950 C939 1.236 . S
O951 Tb920 2.341 . S
O951 C939 1.266 . S
H952 C924 0.929 . S
H953 C925 0.931 . S
H954 C927 0.930 . S
H955 C928 0.930 . S
H956 C933 0.929 1_455 S
H957 C934 0.931 . S
H958 C936 0.930 . S
H959 C937 0.930 1_455 S
Tb960 C962 2.805 1_545 S
Tb960 O980 2.484 1_545 S
Tb960 O981 2.440 . S
Tb960 O982 2.658 1_545 S
Tb960 O983 2.409 . S
Tb960 O984 2.378 1_545 S
Tb960 O988 2.325 1_545 S
Tb960 O991 2.341 . S
Tb961 C971 2.809 . S
Tb961 O982 2.325 . S
Tb961 O985 2.341 . S
Tb961 O986 2.484 . S
Tb961 O987 2.440 . S
Tb961 O988 2.658 . S
Tb961 O989 2.409 . S
Tb961 O990 2.378 1_565 S
C962 Tb960 2.805 1_565 S
C962 C963 1.517 . S
C962 O980 1.250 . S
C962 O981 1.261 1_565 S
C963 C962 1.517 . S
C963 C964 1.359 . S
C963 C968 1.348 . S
C964 C963 1.359 . S
C964 C965 1.380 . S
C964 H992 0.929 . S
C965 C964 1.380 . S
C965 C966 1.347 . S
C965 H993 0.931 . S
C966 C965 1.347 . S
C966 C967 1.369 . S
C967 C966 1.369 . S
C967 C968 1.408 . S
C967 H994 0.930 . S
C968 C963 1.348 . S
C968 C967 1.408 . S
C968 H995 0.930 . S
C969 O982 1.281 . S
C969 O983 1.254 1_565 S
C970 O984 1.236 . S
C970 O985 1.266 . S
C971 Tb961 2.809 . S
C971 C972 1.514 . S
C971 O986 1.248 . S
C971 O987 1.266 . S
C972 C971 1.514 . S
C972 C973 1.359 . S
C972 C977 1.348 . S
C973 C972 1.359 . S
C973 C974 1.380 1_565 S
C973 H996 0.929 . S
C974 C973 1.380 1_545 S
C974 C975 1.347 . S
C974 H997 0.931 . S
C975 C974 1.347 . S
C975 C976 1.366 1_545 S
C976 C975 1.366 1_565 S
C976 C977 1.408 . S
C976 H998 0.930 . S
C977 C972 1.348 . S
C977 C976 1.408 . S
C977 H999 0.930 . S
C978 O988 1.281 . S
C978 O989 1.254 . S
C979 O990 1.236 . S
C979 O991 1.266 . S
O980 Tb960 2.484 1_565 S
O980 C962 1.250 . S
O981 Tb960 2.440 . S
O981 C962 1.261 1_545 S
O982 Tb960 2.658 1_565 S
O982 Tb961 2.325 . S
O982 C969 1.281 . S
O983 Tb960 2.409 . S
O983 C969 1.254 1_545 S
O984 Tb960 2.378 1_565 S
O984 C970 1.236 . S
O985 Tb961 2.341 . S
O985 C970 1.266 . S
O986 Tb961 2.484 . S
O986 C971 1.248 . S
O987 Tb961 2.440 . S
O987 C971 1.266 . S
O988 Tb960 2.325 1_565 S
O988 Tb961 2.658 . S
O988 C978 1.281 . S
O989 Tb961 2.409 . S
O989 C978 1.254 . S
O990 Tb961 2.378 1_545 S
O990 C979 1.236 . S
O991 Tb960 2.341 . S
O991 C979 1.266 . S
H992 C964 0.929 . S
H993 C965 0.931 . S
H994 C967 0.930 . S
H995 C968 0.930 . S
H996 C973 0.929 . S
H997 C974 0.931 . S
H998 C976 0.930 . S
H999 C977 0.930 . S
Tb1000 C1002 2.809 . S
Tb1000 O1020 2.484 . S
Tb1000 O1021 2.440 . S
Tb1000 O1022 2.658 . S
Tb1000 O1023 2.409 . S
Tb1000 O1024 2.378 . S
Tb1000 O1028 2.325 . S
Tb1000 O1031 2.341 . S
Tb1001 C1011 2.809 . S
Tb1001 O1022 2.325 . S
Tb1001 O1025 2.341 . S
Tb1001 O1026 2.484 . S
Tb1001 O1027 2.440 . S
Tb1001 O1028 2.658 . S
Tb1001 O1029 2.409 . S
Tb1001 O1030 2.378 . S
C1002 Tb1000 2.809 . S
C1002 C1003 1.514 . S
C1002 O1020 1.248 . S
C1002 O1021 1.266 . S
C1003 C1002 1.514 . S
C1003 C1004 1.359 1_655 S
C1003 C1008 1.348 1_655 S
C1004 C1003 1.359 1_455 S
C1004 C1005 1.380 . S
C1004 H1032 0.929 1_455 S
C1005 C1004 1.380 . S
C1005 C1006 1.347 . S
C1005 H1033 0.931 . S
C1006 C1005 1.347 . S
C1006 C1007 1.369 . S
C1007 C1006 1.369 . S
C1007 C1008 1.408 . S
C1007 H1034 0.930 . S
C1008 C1003 1.348 1_455 S
C1008 C1007 1.408 . S
C1008 H1035 0.930 1_455 S
C1009 O1022 1.281 . S
C1009 O1023 1.254 . S
C1010 O1024 1.236 . S
C1010 O1025 1.266 . S
C1011 Tb1001 2.809 . S
C1011 C1012 1.514 . S
C1011 O1026 1.248 . S
C1011 O1027 1.266 . S
C1012 C1011 1.514 . S
C1012 C1013 1.359 . S
C1012 C1017 1.348 . S
C1013 C1012 1.359 . S
C1013 C1014 1.380 . S
C1013 H1036 0.929 . S
C1014 C1013 1.380 . S
C1014 C1015 1.347 . S
C1014 H1037 0.931 . S
C1015 C1014 1.347 . S
C1015 C1016 1.369 . S
C1016 C1015 1.369 . S
C1016 C1017 1.408 . S
C1016 H1038 0.930 . S
C1017 C1012 1.348 . S
C1017 C1016 1.408 . S
C1017 H1039 0.930 . S
C1018 O1028 1.281 . S
C1018 O1029 1.254 . S
C1019 O1030 1.236 . S
C1019 O1031 1.266 . S
O1020 Tb1000 2.484 . S
O1020 C1002 1.248 . S
O1021 Tb1000 2.440 . S
O1021 C1002 1.266 . S
O1022 Tb1000 2.658 . S
O1022 Tb1001 2.325 . S
O1022 C1009 1.281 . S
O1023 Tb1000 2.409 . S
O1023 C1009 1.254 . S
O1024 Tb1000 2.378 . S
O1024 C1010 1.236 . S
O1025 Tb1001 2.341 . S
O1025 C1010 1.266 . S
O1026 Tb1001 2.484 . S
O1026 C1011 1.248 . S
O1027 Tb1001 2.440 . S
O1027 C1011 1.266 . S
O1028 Tb1000 2.325 . S
O1028 Tb1001 2.658 . S
O1028 C1018 1.281 . S
O1029 Tb1001 2.409 . S
O1029 C1018 1.254 . S
O1030 Tb1001 2.378 . S
O1030 C1019 1.236 . S
O1031 Tb1000 2.341 . S
O1031 C1019 1.266 . S
H1032 C1004 0.929 1_655 S
H1033 C1005 0.931 . S
H1034 C1007 0.930 . S
H1035 C1008 0.930 1_655 S
H1036 C1013 0.929 . S
H1037 C1014 0.931 . S
H1038 C1016 0.930 . S
H1039 C1017 0.930 . S
Tb1040 C1042 2.809 . S
Tb1040 O1060 2.484 . S
Tb1040 O1061 2.440 . S
Tb1040 O1062 2.658 . S
Tb1040 O1063 2.409 . S
Tb1040 O1064 2.378 . S
Tb1040 O1068 2.325 . S
Tb1040 O1071 2.341 . S
Tb1041 C1051 2.809 . S
Tb1041 O1062 2.325 . S
Tb1041 O1065 2.341 . S
Tb1041 O1066 2.484 . S
Tb1041 O1067 2.440 . S
Tb1041 O1068 2.658 . S
Tb1041 O1069 2.409 . S
Tb1041 O1070 2.378 . S
C1042 Tb1040 2.809 . S
C1042 C1043 1.514 . S
C1042 O1060 1.248 . S
C1042 O1061 1.266 . S
C1043 C1042 1.514 . S
C1043 C1044 1.359 . S
C1043 C1048 1.348 . S
C1044 C1043 1.359 . S
C1044 C1045 1.380 . S
C1044 H1072 0.929 . S
C1045 C1044 1.380 . S
C1045 C1046 1.347 . S
C1045 H1073 0.931 . S
C1046 C1045 1.347 . S
C1046 C1047 1.369 . S
C1047 C1046 1.369 . S
C1047 C1048 1.408 . S
C1047 H1074 0.930 . S
C1048 C1043 1.348 . S
C1048 C1047 1.408 . S
C1048 H1075 0.930 . S
C1049 O1062 1.281 . S
C1049 O1063 1.254 . S
C1050 O1064 1.236 . S
C1050 O1065 1.266 . S
C1051 Tb1041 2.809 . S
C1051 C1052 1.514 . S
C1051 O1066 1.248 . S
C1051 O1067 1.266 . S
C1052 C1051 1.514 . S
C1052 C1053 1.359 . S
C1052 C1057 1.348 . S
C1053 C1052 1.359 . S
C1053 C1054 1.380 . S
C1053 H1076 0.929 . S
C1054 C1053 1.380 . S
C1054 C1055 1.347 . S
C1054 H1077 0.931 . S
C1055 C1054 1.347 . S
C1055 C1056 1.369 . S
C1056 C1055 1.369 . S
C1056 C1057 1.408 . S
C1056 H1078 0.930 . S
C1057 C1052 1.348 . S
C1057 C1056 1.408 . S
C1057 H1079 0.930 . S
C1058 O1068 1.281 . S
C1058 O1069 1.254 . S
C1059 O1070 1.236 . S
C1059 O1071 1.266 . S
O1060 Tb1040 2.484 . S
O1060 C1042 1.248 . S
O1061 Tb1040 2.440 . S
O1061 C1042 1.266 . S
O1062 Tb1040 2.658 . S
O1062 Tb1041 2.325 . S
O1062 C1049 1.281 . S
O1063 Tb1040 2.409 . S
O1063 C1049 1.254 . S
O1064 Tb1040 2.378 . S
O1064 C1050 1.236 . S
O1065 Tb1041 2.341 . S
O1065 C1050 1.266 . S
O1066 Tb1041 2.484 . S
O1066 C1051 1.248 . S
O1067 Tb1041 2.440 . S
O1067 C1051 1.266 . S
O1068 Tb1040 2.325 . S
O1068 Tb1041 2.658 . S
O1068 C1058 1.281 . S
O1069 Tb1041 2.409 . S
O1069 C1058 1.254 . S
O1070 Tb1041 2.378 . S
O1070 C1059 1.236 . S
O1071 Tb1040 2.341 . S
O1071 C1059 1.266 . S
H1072 C1044 0.929 . S
H1073 C1045 0.931 . S
H1074 C1047 0.930 . S
H1075 C1048 0.930 . S
H1076 C1053 0.929 . S
H1077 C1054 0.931 . S
H1078 C1056 0.930 . S
H1079 C1057 0.930 . S
Tb1080 C1082 2.805 1_545 S
Tb1080 O1100 2.484 1_545 S
Tb1080 O1101 2.440 . S
Tb1080 O1102 2.658 1_545 S
Tb1080 O1103 2.409 . S
Tb1080 O1104 2.378 1_545 S
Tb1080 O1108 2.325 1_545 S
Tb1080 O1111 2.341 . S
Tb1081 C1091 2.809 . S
Tb1081 O1102 2.325 . S
Tb1081 O1105 2.341 . S
Tb1081 O1106 2.484 . S
Tb1081 O1107 2.440 . S
Tb1081 O1108 2.658 . S
Tb1081 O1109 2.409 . S
Tb1081 O1110 2.378 1_565 S
C1082 Tb1080 2.805 1_565 S
C1082 C1083 1.517 . S
C1082 O1100 1.250 . S
C1082 O1101 1.261 1_565 S
C1083 C1082 1.517 . S
C1083 C1084 1.359 1_655 S
C1083 C1088 1.348 1_655 S
C1084 C1083 1.359 1_455 S
C1084 C1085 1.380 . S
C1084 H1112 0.929 1_455 S
C1085 C1084 1.380 . S
C1085 C1086 1.347 . S
C1085 H1113 0.931 . S
C1086 C1085 1.347 . S
C1086 C1087 1.369 . S
C1087 C1086 1.369 . S
C1087 C1088 1.408 . S
C1087 H1114 0.930 . S
C1088 C1083 1.348 1_455 S
C1088 C1087 1.408 . S
C1088 H1115 0.930 1_455 S
C1089 O1102 1.281 . S
C1089 O1103 1.254 1_565 S
C1090 O1104 1.236 . S
C1090 O1105 1.266 . S
C1091 Tb1081 2.809 . S
C1091 C1092 1.514 . S
C1091 O1106 1.248 . S
C1091 O1107 1.266 . S
C1092 C1091 1.514 . S
C1092 C1093 1.359 . S
C1092 C1097 1.348 . S
C1093 C1092 1.359 . S
C1093 C1094 1.380 1_565 S
C1093 H1116 0.929 . S
C1094 C1093 1.380 1_545 S
C1094 C1095 1.347 . S
C1094 H1117 0.931 . S
C1095 C1094 1.347 . S
C1095 C1096 1.366 1_545 S
C1096 C1095 1.366 1_565 S
C1096 C1097 1.408 . S
C1096 H1118 0.930 . S
C1097 C1092 1.348 . S
C1097 C1096 1.408 . S
C1097 H1119 0.930 . S
C1098 O1108 1.281 . S
C1098 O1109 1.254 . S
C1099 O1110 1.236 . S
C1099 O1111 1.266 . S
O1100 Tb1080 2.484 1_565 S
O1100 C1082 1.250 . S
O1101 Tb1080 2.440 . S
O1101 C1082 1.261 1_545 S
O1102 Tb1080 2.658 1_565 S
O1102 Tb1081 2.325 . S
O1102 C1089 1.281 . S
O1103 Tb1080 2.409 . S
O1103 C1089 1.254 1_545 S
O1104 Tb1080 2.378 1_565 S
O1104 C1090 1.236 . S
O1105 Tb1081 2.341 . S
O1105 C1090 1.266 . S
O1106 Tb1081 2.484 . S
O1106 C1091 1.248 . S
O1107 Tb1081 2.440 . S
O1107 C1091 1.266 . S
O1108 Tb1080 2.325 1_565 S
O1108 Tb1081 2.658 . S
O1108 C1098 1.281 . S
O1109 Tb1081 2.409 . S
O1109 C1098 1.254 . S
O1110 Tb1081 2.378 1_545 S
O1110 C1099 1.236 . S
O1111 Tb1080 2.341 . S
O1111 C1099 1.266 . S
H1112 C1084 0.929 1_655 S
H1113 C1085 0.931 . S
H1114 C1087 0.930 . S
H1115 C1088 0.930 1_655 S
H1116 C1093 0.929 . S
H1117 C1094 0.931 . S
H1118 C1096 0.930 . S
H1119 C1097 0.930 . S
Tb1120 C1122 2.809 . S
Tb1120 O1140 2.484 . S
Tb1120 O1141 2.440 . S
Tb1120 O1142 2.658 . S
Tb1120 O1143 2.409 . S
Tb1120 O1144 2.378 1_545 S
Tb1120 O1148 2.325 . S
Tb1120 O1151 2.341 . S
Tb1121 C1131 2.805 1_565 S
Tb1121 O1142 2.325 1_565 S
Tb1121 O1145 2.341 . S
Tb1121 O1146 2.484 1_565 S
Tb1121 O1147 2.440 . S
Tb1121 O1148 2.658 1_565 S
Tb1121 O1149 2.409 . S
Tb1121 O1150 2.378 1_565 S
C1122 Tb1120 2.809 . S
C1122 C1123 1.514 . S
C1122 O1140 1.248 . S
C1122 O1141 1.266 . S
C1123 C1122 1.514 . S
C1123 C1124 1.359 . S
C1123 C1128 1.348 . S
C1124 C1123 1.359 . S
C1124 C1125 1.380 1_545 S
C1124 H1152 0.929 . S
C1125 C1124 1.380 1_565 S
C1125 C1126 1.347 . S
C1125 H1153 0.931 . S
C1126 C1125 1.347 . S
C1126 C1127 1.366 1_565 S
C1127 C1126 1.366 1_545 S
C1127 C1128 1.408 . S
C1127 H1154 0.930 . S
C1128 C1123 1.348 . S
C1128 C1127 1.408 . S
C1128 H1155 0.930 . S
C1129 O1142 1.281 . S
C1129 O1143 1.254 . S
C1130 O1144 1.236 . S
C1130 O1145 1.266 . S
C1131 Tb1121 2.805 1_545 S
C1131 C1132 1.517 . S
C1131 O1146 1.250 . S
C1131 O1147 1.261 1_545 S
C1132 C1131 1.517 . S
C1132 C1133 1.359 . S
C1132 C1137 1.348 . S
C1133 C1132 1.359 . S
C1133 C1134 1.380 . S
C1133 H1156 0.929 . S
C1134 C1133 1.380 . S
C1134 C1135 1.347 . S
C1134 H1157 0.931 . S
C1135 C1134 1.347 . S
C1135 C1136 1.369 . S
C1136 C1135 1.369 . S
C1136 C1137 1.408 . S
C1136 H1158 0.930 . S
C1137 C1132 1.348 . S
C1137 C1136 1.408 . S
C1137 H1159 0.930 . S
C1138 O1148 1.281 . S
C1138 O1149 1.254 1_545 S
C1139 O1150 1.236 . S
C1139 O1151 1.266 . S
O1140 Tb1120 2.484 . S
O1140 C1122 1.248 . S
O1141 Tb1120 2.440 . S
O1141 C1122 1.266 . S
O1142 Tb1120 2.658 . S
O1142 Tb1121 2.325 1_545 S
O1142 C1129 1.281 . S
O1143 Tb1120 2.409 . S
O1143 C1129 1.254 . S
O1144 Tb1120 2.378 1_565 S
O1144 C1130 1.236 . S
O1145 Tb1121 2.341 . S
O1145 C1130 1.266 . S
O1146 Tb1121 2.484 1_545 S
O1146 C1131 1.250 . S
O1147 Tb1121 2.440 . S
O1147 C1131 1.261 1_565 S
O1148 Tb1120 2.325 . S
O1148 Tb1121 2.658 1_545 S
O1148 C1138 1.281 . S
O1149 Tb1121 2.409 . S
O1149 C1138 1.254 1_565 S
O1150 Tb1121 2.378 1_545 S
O1150 C1139 1.236 . S
O1151 Tb1120 2.341 . S
O1151 C1139 1.266 . S
H1152 C1124 0.929 . S
H1153 C1125 0.931 . S
H1154 C1127 0.930 . S
H1155 C1128 0.930 . S
H1156 C1133 0.929 . S
H1157 C1134 0.931 . S
H1158 C1136 0.930 . S
H1159 C1137 0.930 . S
Tb1160 C1162 2.809 . S
Tb1160 O1180 2.484 . S
Tb1160 O1181 2.440 . S
Tb1160 O1182 2.658 . S
Tb1160 O1183 2.409 . S
Tb1160 O1184 2.378 . S
Tb1160 O1188 2.325 . S
Tb1160 O1191 2.341 . S
Tb1161 C1171 2.809 . S
Tb1161 O1182 2.325 . S
Tb1161 O1185 2.341 . S
Tb1161 O1186 2.484 . S
Tb1161 O1187 2.440 . S
Tb1161 O1188 2.658 . S
Tb1161 O1189 2.409 . S
Tb1161 O1190 2.378 . S
C1162 Tb1160 2.809 . S
C1162 C1163 1.514 . S
C1162 O1180 1.248 . S
C1162 O1181 1.266 . S
C1163 C1162 1.514 . S
C1163 C1164 1.359 . S
C1163 C1168 1.348 . S
C1164 C1163 1.359 . S
C1164 C1165 1.380 . S
C1164 H1192 0.929 . S
C1165 C1164 1.380 . S
C1165 C1166 1.347 . S
C1165 H1193 0.931 . S
C1166 C1165 1.347 . S
C1166 C1167 1.369 . S
C1167 C1166 1.369 . S
C1167 C1168 1.408 . S
C1167 H1194 0.930 . S
C1168 C1163 1.348 . S
C1168 C1167 1.408 . S
C1168 H1195 0.930 . S
C1169 O1182 1.281 . S
C1169 O1183 1.254 . S
C1170 O1184 1.236 . S
C1170 O1185 1.266 . S
C1171 Tb1161 2.809 . S
C1171 C1172 1.514 . S
C1171 O1186 1.248 . S
C1171 O1187 1.266 . S
C1172 C1171 1.514 . S
C1172 C1173 1.359 1_455 S
C1172 C1177 1.348 1_455 S
C1173 C1172 1.359 1_655 S
C1173 C1174 1.380 . S
C1173 H1196 0.929 1_655 S
C1174 C1173 1.380 . S
C1174 C1175 1.347 . S
C1174 H1197 0.931 . S
C1175 C1174 1.347 . S
C1175 C1176 1.369 . S
C1176 C1175 1.369 . S
C1176 C1177 1.408 . S
C1176 H1198 0.930 . S
C1177 C1172 1.348 1_655 S
C1177 C1176 1.408 . S
C1177 H1199 0.930 1_655 S
C1178 O1188 1.281 . S
C1178 O1189 1.254 . S
C1179 O1190 1.236 . S
C1179 O1191 1.266 . S
O1180 Tb1160 2.484 . S
O1180 C1162 1.248 . S
O1181 Tb1160 2.440 . S
O1181 C1162 1.266 . S
O1182 Tb1160 2.658 . S
O1182 Tb1161 2.325 . S
O1182 C1169 1.281 . S
O1183 Tb1160 2.409 . S
O1183 C1169 1.254 . S
O1184 Tb1160 2.378 . S
O1184 C1170 1.236 . S
O1185 Tb1161 2.341 . S
O1185 C1170 1.266 . S
O1186 Tb1161 2.484 . S
O1186 C1171 1.248 . S
O1187 Tb1161 2.440 . S
O1187 C1171 1.266 . S
O1188 Tb1160 2.325 . S
O1188 Tb1161 2.658 . S
O1188 C1178 1.281 . S
O1189 Tb1161 2.409 . S
O1189 C1178 1.254 . S
O1190 Tb1161 2.378 . S
O1190 C1179 1.236 . S
O1191 Tb1160 2.341 . S
O1191 C1179 1.266 . S
H1192 C1164 0.929 . S
H1193 C1165 0.931 . S
H1194 C1167 0.930 . S
H1195 C1168 0.930 . S
H1196 C1173 0.929 1_455 S
H1197 C1174 0.931 . S
H1198 C1176 0.930 . S
H1199 C1177 0.930 1_455 S
Tb1200 C1202 2.809 . S
Tb1200 O1220 2.484 . S
Tb1200 O1221 2.440 . S
Tb1200 O1222 2.658 . S
Tb1200 O1223 2.409 . S
Tb1200 O1224 2.378 . S
Tb1200 O1228 2.325 . S
Tb1200 O1231 2.341 . S
Tb1201 C1211 2.809 . S
Tb1201 O1222 2.325 . S
Tb1201 O1225 2.341 . S
Tb1201 O1226 2.484 . S
Tb1201 O1227 2.440 . S
Tb1201 O1228 2.658 . S
Tb1201 O1229 2.409 . S
Tb1201 O1230 2.378 . S
C1202 Tb1200 2.809 . S
C1202 C1203 1.514 . S
C1202 O1220 1.248 . S
C1202 O1221 1.266 . S
C1203 C1202 1.514 . S
C1203 C1204 1.359 . S
C1203 C1208 1.348 . S
C1204 C1203 1.359 . S
C1204 C1205 1.380 . S
C1204 H1232 0.929 . S
C1205 C1204 1.380 . S
C1205 C1206 1.347 . S
C1205 H1233 0.931 . S
C1206 C1205 1.347 . S
C1206 C1207 1.369 . S
C1207 C1206 1.369 . S
C1207 C1208 1.408 . S
C1207 H1234 0.930 . S
C1208 C1203 1.348 . S
C1208 C1207 1.408 . S
C1208 H1235 0.930 . S
C1209 O1222 1.281 . S
C1209 O1223 1.254 . S
C1210 O1224 1.236 . S
C1210 O1225 1.266 . S
C1211 Tb1201 2.809 . S
C1211 C1212 1.514 . S
C1211 O1226 1.248 . S
C1211 O1227 1.266 . S
C1212 C1211 1.514 . S
C1212 C1213 1.359 . S
C1212 C1217 1.348 . S
C1213 C1212 1.359 . S
C1213 C1214 1.380 . S
C1213 H1236 0.929 . S
C1214 C1213 1.380 . S
C1214 C1215 1.347 . S
C1214 H1237 0.931 . S
C1215 C1214 1.347 . S
C1215 C1216 1.369 . S
C1216 C1215 1.369 . S
C1216 C1217 1.408 . S
C1216 H1238 0.930 . S
C1217 C1212 1.348 . S
C1217 C1216 1.408 . S
C1217 H1239 0.930 . S
C1218 O1228 1.281 . S
C1218 O1229 1.254 . S
C1219 O1230 1.236 . S
C1219 O1231 1.266 . S
O1220 Tb1200 2.484 . S
O1220 C1202 1.248 . S
O1221 Tb1200 2.440 . S
O1221 C1202 1.266 . S
O1222 Tb1200 2.658 . S
O1222 Tb1201 2.325 . S
O1222 C1209 1.281 . S
O1223 Tb1200 2.409 . S
O1223 C1209 1.254 . S
O1224 Tb1200 2.378 . S
O1224 C1210 1.236 . S
O1225 Tb1201 2.341 . S
O1225 C1210 1.266 . S
O1226 Tb1201 2.484 . S
O1226 C1211 1.248 . S
O1227 Tb1201 2.440 . S
O1227 C1211 1.266 . S
O1228 Tb1200 2.325 . S
O1228 Tb1201 2.658 . S
O1228 C1218 1.281 . S
O1229 Tb1201 2.409 . S
O1229 C1218 1.254 . S
O1230 Tb1201 2.378 . S
O1230 C1219 1.236 . S
O1231 Tb1200 2.341 . S
O1231 C1219 1.266 . S
H1232 C1204 0.929 . S
H1233 C1205 0.931 . S
H1234 C1207 0.930 . S
H1235 C1208 0.930 . S
H1236 C1213 0.929 . S
H1237 C1214 0.931 . S
H1238 C1216 0.930 . S
H1239 C1217 0.930 . S
Tb1240 C1242 2.809 . S
Tb1240 O1260 2.484 . S
Tb1240 O1261 2.440 . S
Tb1240 O1262 2.658 . S
Tb1240 O1263 2.409 . S
Tb1240 O1264 2.378 1_545 S
Tb1240 O1268 2.325 . S
Tb1240 O1271 2.341 . S
Tb1241 C1251 2.805 1_565 S
Tb1241 O1262 2.325 1_565 S
Tb1241 O1265 2.341 . S
Tb1241 O1266 2.484 1_565 S
Tb1241 O1267 2.440 . S
Tb1241 O1268 2.658 1_565 S
Tb1241 O1269 2.409 . S
Tb1241 O1270 2.378 1_565 S
C1242 Tb1240 2.809 . S
C1242 C1243 1.514 . S
C1242 O1260 1.248 . S
C1242 O1261 1.266 . S
C1243 C1242 1.514 . S
C1243 C1244 1.359 . S
C1243 C1248 1.348 . S
C1244 C1243 1.359 . S
C1244 C1245 1.380 1_545 S
C1244 H1272 0.929 . S
C1245 C1244 1.380 1_565 S
C1245 C1246 1.347 . S
C1245 H1273 0.931 . S
C1246 C1245 1.347 . S
C1246 C1247 1.366 1_565 S
C1247 C1246 1.366 1_545 S
C1247 C1248 1.408 . S
C1247 H1274 0.930 . S
C1248 C1243 1.348 . S
C1248 C1247 1.408 . S
C1248 H1275 0.930 . S
C1249 O1262 1.281 . S
C1249 O1263 1.254 . S
C1250 O1264 1.236 . S
C1250 O1265 1.266 . S
C1251 Tb1241 2.805 1_545 S
C1251 C1252 1.517 . S
C1251 O1266 1.250 . S
C1251 O1267 1.261 1_545 S
C1252 C1251 1.517 . S
C1252 C1253 1.359 1_455 S
C1252 C1257 1.348 1_455 S
C1253 C1252 1.359 1_655 S
C1253 C1254 1.380 . S
C1253 H1276 0.929 1_655 S
C1254 C1253 1.380 . S
C1254 C1255 1.347 . S
C1254 H1277 0.931 . S
C1255 C1254 1.347 . S
C1255 C1256 1.369 . S
C1256 C1255 1.369 . S
C1256 C1257 1.408 . S
C1256 H1278 0.930 . S
C1257 C1252 1.348 1_655 S
C1257 C1256 1.408 . S
C1257 H1279 0.930 1_655 S
C1258 O1268 1.281 . S
C1258 O1269 1.254 1_545 S
C1259 O1270 1.236 . S
C1259 O1271 1.266 . S
O1260 Tb1240 2.484 . S
O1260 C1242 1.248 . S
O1261 Tb1240 2.440 . S
O1261 C1242 1.266 . S
O1262 Tb1240 2.658 . S
O1262 Tb1241 2.325 1_545 S
O1262 C1249 1.281 . S
O1263 Tb1240 2.409 . S
O1263 C1249 1.254 . S
O1264 Tb1240 2.378 1_565 S
O1264 C1250 1.236 . S
O1265 Tb1241 2.341 . S
O1265 C1250 1.266 . S
O1266 Tb1241 2.484 1_545 S
O1266 C1251 1.250 . S
O1267 Tb1241 2.440 . S
O1267 C1251 1.261 1_565 S
O1268 Tb1240 2.325 . S
O1268 Tb1241 2.658 1_545 S
O1268 C1258 1.281 . S
O1269 Tb1241 2.409 . S
O1269 C1258 1.254 1_565 S
O1270 Tb1241 2.378 1_545 S
O1270 C1259 1.236 . S
O1271 Tb1240 2.341 . S
O1271 C1259 1.266 . S
H1272 C1244 0.929 . S
H1273 C1245 0.931 . S
H1274 C1247 0.930 . S
H1275 C1248 0.930 . S
H1276 C1253 0.929 1_455 S
H1277 C1254 0.931 . S
H1278 C1256 0.930 . S
H1279 C1257 0.930 1_455 S
C1280 C1281 1.387 . S
C1280 H1284 0.950 . S
C1280 C1289 1.390 . S
C1281 C1280 1.387 . S
C1281 C1283 1.387 . S
H1282 C1289 0.950 . S
C1283 C1281 1.387 . S
C1283 C1285 1.390 . S
C1283 H1287 0.950 . S
H1284 C1280 0.950 . S
C1285 C1283 1.390 . S
C1285 C1286 1.387 . S
C1285 H1288 0.950 . S
C1286 C1285 1.387 . S
C1286 C1289 1.387 . S
H1287 C1283 0.950 . S
H1288 C1285 0.950 . S
C1289 C1280 1.390 . S
C1289 H1282 0.950 . S
C1289 C1286 1.387 . S
C1290 C1291 1.387 . S
C1290 H1294 0.950 . S
C1290 C1299 1.390 . S
C1291 C1290 1.387 . S
C1291 C1293 1.387 . S
H1292 C1299 0.950 . S
C1293 C1291 1.387 . S
C1293 C1295 1.390 . S
C1293 H1297 0.950 . S
H1294 C1290 0.950 . S
C1295 C1293 1.390 . S
C1295 C1296 1.387 . S
C1295 H1298 0.950 . S
C1296 C1295 1.387 . S
C1296 C1299 1.387 . S
H1297 C1293 0.950 . S
H1298 C1295 0.950 . S
C1299 C1290 1.390 . S
C1299 H1292 0.950 . S
C1299 C1296 1.387 . S
C1300 C1301 1.387 . S
C1300 H1304 0.950 . S
C1300 C1309 1.390 . S
C1301 C1300 1.387 . S
C1301 C1303 1.387 . S
H1302 C1309 0.950 . S
C1303 C1301 1.387 . S
C1303 C1305 1.390 . S
C1303 H1307 0.950 . S
H1304 C1300 0.950 . S
C1305 C1303 1.390 . S
C1305 C1306 1.387 . S
C1305 H1308 0.950 . S
C1306 C1305 1.387 . S
C1306 C1309 1.387 . S
H1307 C1303 0.950 . S
H1308 C1305 0.950 . S
C1309 C1300 1.390 . S
C1309 H1302 0.950 . S
C1309 C1306 1.387 . S
C1310 C1311 1.387 . S
C1310 H1314 0.950 . S
C1310 C1319 1.390 . S
C1311 C1310 1.387 . S
C1311 C1313 1.387 . S
H1312 C1319 0.950 . S
C1313 C1311 1.387 . S
C1313 C1315 1.390 . S
C1313 H1317 0.950 . S
H1314 C1310 0.950 . S
C1315 C1313 1.390 . S
C1315 C1316 1.387 . S
C1315 H1318 0.950 . S
C1316 C1315 1.387 . S
C1316 C1319 1.387 . S
H1317 C1313 0.950 . S
H1318 C1315 0.950 . S
C1319 C1310 1.390 . S
C1319 H1312 0.950 . S
C1319 C1316 1.387 . S
C1320 C1321 1.387 . S
C1320 H1324 0.950 . S
C1320 C1329 1.390 . S
C1321 C1320 1.387 . S
C1321 C1323 1.387 . S
H1322 C1329 0.950 . S
C1323 C1321 1.387 . S
C1323 C1325 1.390 . S
C1323 H1327 0.950 . S
H1324 C1320 0.950 . S
C1325 C1323 1.390 . S
C1325 C1326 1.387 . S
C1325 H1328 0.950 . S
C1326 C1325 1.387 . S
C1326 C1329 1.387 . S
H1327 C1323 0.950 . S
H1328 C1325 0.950 . S
C1329 C1320 1.390 . S
C1329 H1322 0.950 . S
C1329 C1326 1.387 . S
C1330 C1331 1.387 . S
C1330 H1334 0.950 . S
C1330 C1339 1.390 . S
C1331 C1330 1.387 . S
C1331 C1333 1.387 . S
H1332 C1339 0.950 . S
C1333 C1331 1.387 . S
C1333 C1335 1.390 . S
C1333 H1337 0.950 . S
H1334 C1330 0.950 . S
C1335 C1333 1.390 . S
C1335 C1336 1.387 . S
C1335 H1338 0.950 . S
C1336 C1335 1.387 . S
C1336 C1339 1.387 . S
H1337 C1333 0.950 . S
H1338 C1335 0.950 . S
C1339 C1330 1.390 . S
C1339 H1332 0.950 . S
C1339 C1336 1.387 . S
C1340 C1341 1.387 . S
C1340 H1344 0.950 . S
C1340 C1349 1.390 . S
C1341 C1340 1.387 . S
C1341 C1343 1.387 . S
H1342 C1349 0.950 . S
C1343 C1341 1.387 . S
C1343 C1345 1.390 . S
C1343 H1347 0.950 . S
H1344 C1340 0.950 . S
C1345 C1343 1.390 . S
C1345 C1346 1.387 . S
C1345 H1348 0.950 . S
C1346 C1345 1.387 . S
C1346 C1349 1.387 . S
H1347 C1343 0.950 . S
H1348 C1345 0.950 . S
C1349 C1340 1.390 . S
C1349 H1342 0.950 . S
C1349 C1346 1.387 . S
C1350 C1351 1.387 . S
C1350 H1354 0.950 . S
C1350 C1359 1.390 . S
C1351 C1350 1.387 . S
C1351 C1353 1.387 . S
H1352 C1359 0.950 . S
C1353 C1351 1.387 . S
C1353 C1355 1.390 . S
C1353 H1357 0.950 . S
H1354 C1350 0.950 . S
C1355 C1353 1.390 . S
C1355 C1356 1.387 . S
C1355 H1358 0.950 . S
C1356 C1355 1.387 . S
C1356 C1359 1.387 . S
H1357 C1353 0.950 . S
H1358 C1355 0.950 . S
C1359 C1350 1.390 . S
C1359 H1352 0.950 . S
C1359 C1356 1.387 . S
C1360 C1361 1.387 . S
C1360 H1364 0.950 . S
C1360 C1369 1.390 . S
C1361 C1360 1.387 . S
C1361 C1363 1.387 . S
H1362 C1369 0.950 . S
C1363 C1361 1.387 . S
C1363 C1365 1.390 . S
C1363 H1367 0.950 . S
H1364 C1360 0.950 . S
C1365 C1363 1.390 . S
C1365 C1366 1.387 . S
C1365 H1368 0.950 . S
C1366 C1365 1.387 . S
C1366 C1369 1.387 . S
H1367 C1363 0.950 . S
H1368 C1365 0.950 . S
C1369 C1360 1.390 . S
C1369 H1362 0.950 . S
C1369 C1366 1.387 . S
C1370 C1371 1.387 . S
C1370 H1374 0.950 . S
C1370 C1379 1.390 . S
C1371 C1370 1.387 . S
C1371 C1373 1.387 . S
H1372 C1379 0.950 . S
C1373 C1371 1.387 . S
C1373 C1375 1.390 . S
C1373 H1377 0.950 . S
H1374 C1370 0.950 . S
C1375 C1373 1.390 . S
C1375 C1376 1.387 . S
C1375 H1378 0.950 . S
C1376 C1375 1.387 . S
C1376 C1379 1.387 . S
H1377 C1373 0.950 . S
H1378 C1375 0.950 . S
C1379 C1370 1.390 . S
C1379 H1372 0.950 . S
C1379 C1376 1.387 . S
C1380 C1381 1.387 . S
C1380 H1384 0.950 . S
C1380 C1389 1.390 . S
C1381 C1380 1.387 . S
C1381 C1383 1.387 . S
H1382 C1389 0.950 . S
C1383 C1381 1.387 . S
C1383 C1385 1.390 . S
C1383 H1387 0.950 . S
H1384 C1380 0.950 . S
C1385 C1383 1.390 . S
C1385 C1386 1.387 . S
C1385 H1388 0.950 . S
C1386 C1385 1.387 . S
C1386 C1389 1.387 . S
H1387 C1383 0.950 . S
H1388 C1385 0.950 . S
C1389 C1380 1.390 . S
C1389 H1382 0.950 . S
C1389 C1386 1.387 . S
C1390 C1391 1.387 . S
C1390 H1394 0.950 . S
C1390 C1399 1.390 . S
C1391 C1390 1.387 . S
C1391 C1393 1.387 . S
H1392 C1399 0.950 . S
C1393 C1391 1.387 . S
C1393 C1395 1.390 . S
C1393 H1397 0.950 . S
H1394 C1390 0.950 . S
C1395 C1393 1.390 . S
C1395 C1396 1.387 . S
C1395 H1398 0.950 . S
C1396 C1395 1.387 . S
C1396 C1399 1.387 . S
H1397 C1393 0.950 . S
H1398 C1395 0.950 . S
C1399 C1390 1.390 . S
C1399 H1392 0.950 . S
C1399 C1396 1.387 . S
C1400 C1401 1.387 . S
C1400 H1404 0.950 . S
C1400 C1409 1.390 . S
C1401 C1400 1.387 . S
C1401 C1403 1.387 . S
H1402 C1409 0.950 . S
C1403 C1401 1.387 . S
C1403 C1405 1.390 . S
C1403 H1407 0.950 . S
H1404 C1400 0.950 . S
C1405 C1403 1.390 . S
C1405 C1406 1.387 . S
C1405 H1408 0.950 . S
C1406 C1405 1.387 . S
C1406 C1409 1.387 . S
H1407 C1403 0.950 . S
H1408 C1405 0.950 . S
C1409 C1400 1.390 . S
C1409 H1402 0.950 . S
C1409 C1406 1.387 . S
C1410 C1411 1.387 . S
C1410 H1414 0.950 . S
C1410 C1419 1.390 . S
C1411 C1410 1.387 . S
C1411 C1413 1.387 . S
H1412 C1419 0.950 . S
C1413 C1411 1.387 . S
C1413 C1415 1.390 . S
C1413 H1417 0.950 . S
H1414 C1410 0.950 . S
C1415 C1413 1.390 . S
C1415 C1416 1.387 . S
C1415 H1418 0.950 . S
C1416 C1415 1.387 . S
C1416 C1419 1.387 . S
H1417 C1413 0.950 . S
H1418 C1415 0.950 . S
C1419 C1410 1.390 . S
C1419 H1412 0.950 . S
C1419 C1416 1.387 . S
C1420 C1421 1.387 . S
C1420 H1424 0.950 . S
C1420 C1429 1.390 . S
C1421 C1420 1.387 . S
C1421 C1423 1.387 . S
H1422 C1429 0.950 . S
C1423 C1421 1.387 . S
C1423 C1425 1.390 . S
C1423 H1427 0.950 . S
H1424 C1420 0.950 . S
C1425 C1423 1.390 . S
C1425 C1426 1.387 . S
C1425 H1428 0.950 . S
C1426 C1425 1.387 . S
C1426 C1429 1.387 . S
H1427 C1423 0.950 . S
H1428 C1425 0.950 . S
C1429 C1420 1.390 . S
C1429 H1422 0.950 . S
C1429 C1426 1.387 . S
C1430 C1431 1.387 . S
C1430 H1434 0.950 . S
C1430 C1439 1.390 . S
C1431 C1430 1.387 . S
C1431 C1433 1.387 . S
H1432 C1439 0.950 . S
C1433 C1431 1.387 . S
C1433 C1435 1.390 . S
C1433 H1437 0.950 . S
H1434 C1430 0.950 . S
C1435 C1433 1.390 . S
C1435 C1436 1.387 . S
C1435 H1438 0.950 . S
C1436 C1435 1.387 . S
C1436 C1439 1.387 . S
H1437 C1433 0.950 . S
H1438 C1435 0.950 . S
C1439 C1430 1.390 . S
C1439 H1432 0.950 . S
C1439 C1436 1.387 . S
C1440 C1441 1.387 . S
C1440 H1444 0.950 . S
C1440 C1449 1.390 . S
C1441 C1440 1.387 . S
C1441 C1443 1.387 . S
H1442 C1449 0.950 . S
C1443 C1441 1.387 . S
C1443 C1445 1.390 . S
C1443 H1447 0.950 . S
H1444 C1440 0.950 . S
C1445 C1443 1.390 . S
C1445 C1446 1.387 . S
C1445 H1448 0.950 . S
C1446 C1445 1.387 . S
C1446 C1449 1.387 . S
H1447 C1443 0.950 . S
H1448 C1445 0.950 . S
C1449 C1440 1.390 . S
C1449 H1442 0.950 . S
C1449 C1446 1.387 . S
C1450 C1451 1.387 . S
C1450 H1454 0.950 . S
C1450 C1459 1.390 . S
C1451 C1450 1.387 . S
C1451 C1453 1.387 . S
H1452 C1459 0.950 . S
C1453 C1451 1.387 . S
C1453 C1455 1.390 . S
C1453 H1457 0.950 . S
H1454 C1450 0.950 . S
C1455 C1453 1.390 . S
C1455 C1456 1.387 . S
C1455 H1458 0.950 . S
C1456 C1455 1.387 . S
C1456 C1459 1.387 . S
H1457 C1453 0.950 . S
H1458 C1455 0.950 . S
C1459 C1450 1.390 . S
C1459 H1452 0.950 . S
C1459 C1456 1.387 . S
C1460 C1461 1.387 . S
C1460 H1464 0.950 . S
C1460 C1469 1.390 . S
C1461 C1460 1.387 . S
C1461 C1463 1.387 . S
H1462 C1469 0.950 . S
C1463 C1461 1.387 . S
C1463 C1465 1.390 . S
C1463 H1467 0.950 . S
H1464 C1460 0.950 . S
C1465 C1463 1.390 . S
C1465 C1466 1.387 . S
C1465 H1468 0.950 . S
C1466 C1465 1.387 . S
C1466 C1469 1.387 . S
H1467 C1463 0.950 . S
H1468 C1465 0.950 . S
C1469 C1460 1.390 . S
C1469 H1462 0.950 . S
C1469 C1466 1.387 . S
C1470 C1471 1.387 . S
C1470 H1474 0.950 . S
C1470 C1479 1.390 . S
C1471 C1470 1.387 . S
C1471 C1473 1.387 . S
H1472 C1479 0.950 . S
C1473 C1471 1.387 . S
C1473 C1475 1.390 . S
C1473 H1477 0.950 . S
H1474 C1470 0.950 . S
C1475 C1473 1.390 . S
C1475 C1476 1.387 . S
C1475 H1478 0.950 . S
C1476 C1475 1.387 . S
C1476 C1479 1.387 . S
H1477 C1473 0.950 . S
H1478 C1475 0.950 . S
C1479 C1470 1.390 . S
C1479 H1472 0.950 . S
C1479 C1476 1.387 . S
C1480 C1481 1.387 . S
C1480 H1484 0.950 . S
C1480 C1489 1.390 . S
C1481 C1480 1.387 . S
C1481 C1483 1.387 1_565 S
H1482 C1489 0.950 . S
C1483 C1481 1.387 1_545 S
C1483 C1485 1.390 . S
C1483 H1487 0.950 . S
H1484 C1480 0.950 . S
C1485 C1483 1.390 . S
C1485 C1486 1.387 1_545 S
C1485 H1488 0.950 . S
C1486 C1485 1.387 1_565 S
C1486 C1489 1.387 . S
H1487 C1483 0.950 . S
H1488 C1485 0.950 . S
C1489 C1480 1.390 . S
C1489 H1482 0.950 . S
C1489 C1486 1.387 . S
C1490 C1491 1.387 . S
C1490 H1494 0.950 . S
C1490 C1499 1.390 . S
C1491 C1490 1.387 . S
C1491 C1493 1.387 . S
H1492 C1499 0.950 . S
C1493 C1491 1.387 . S
C1493 C1495 1.390 . S
C1493 H1497 0.950 . S
H1494 C1490 0.950 . S
C1495 C1493 1.390 . S
C1495 C1496 1.387 . S
C1495 H1498 0.950 . S
C1496 C1495 1.387 . S
C1496 C1499 1.387 . S
H1497 C1493 0.950 . S
H1498 C1495 0.950 . S
C1499 C1490 1.390 . S
C1499 H1492 0.950 . S
C1499 C1496 1.387 . S
C1500 C1501 1.387 1_565 S
C1500 H1504 0.950 . S
C1500 C1509 1.390 . S
C1501 C1500 1.387 1_545 S
C1501 C1503 1.387 . S
H1502 C1509 0.950 . S
C1503 C1501 1.387 . S
C1503 C1505 1.390 . S
C1503 H1507 0.950 . S
H1504 C1500 0.950 . S
C1505 C1503 1.390 . S
C1505 C1506 1.387 . S
C1505 H1508 0.950 . S
C1506 C1505 1.387 . S
C1506 C1509 1.387 1_545 S
H1507 C1503 0.950 . S
H1508 C1505 0.950 . S
C1509 C1500 1.390 . S
C1509 H1502 0.950 . S
C1509 C1506 1.387 1_565 S
C1510 C1511 1.387 . S
C1510 H1514 0.950 . S
C1510 C1519 1.390 . S
C1511 C1510 1.387 . S
C1511 C1513 1.387 . S
H1512 C1519 0.950 . S
C1513 C1511 1.387 . S
C1513 C1515 1.390 . S
C1513 H1517 0.950 . S
H1514 C1510 0.950 . S
C1515 C1513 1.390 . S
C1515 C1516 1.387 . S
C1515 H1518 0.950 . S
C1516 C1515 1.387 . S
C1516 C1519 1.387 . S
H1517 C1513 0.950 . S
H1518 C1515 0.950 . S
C1519 C1510 1.390 . S
C1519 H1512 0.950 . S
C1519 C1516 1.387 . S
C1520 C1521 1.387 . S
C1520 H1524 0.950 . S
C1520 C1529 1.390 . S
C1521 C1520 1.387 . S
C1521 C1523 1.387 . S
H1522 C1529 0.950 . S
C1523 C1521 1.387 . S
C1523 C1525 1.390 . S
C1523 H1527 0.950 . S
H1524 C1520 0.950 . S
C1525 C1523 1.390 . S
C1525 C1526 1.387 . S
C1525 H1528 0.950 . S
C1526 C1525 1.387 . S
C1526 C1529 1.387 . S
H1527 C1523 0.950 . S
H1528 C1525 0.950 . S
C1529 C1520 1.390 . S
C1529 H1522 0.950 . S
C1529 C1526 1.387 . S
C1530 C1531 1.387 . S
C1530 H1534 0.950 . S
C1530 C1539 1.390 . S
C1531 C1530 1.387 . S
C1531 C1533 1.387 . S
H1532 C1539 0.950 . S
C1533 C1531 1.387 . S
C1533 C1535 1.390 . S
C1533 H1537 0.950 . S
H1534 C1530 0.950 . S
C1535 C1533 1.390 . S
C1535 C1536 1.387 . S
C1535 H1538 0.950 . S
C1536 C1535 1.387 . S
C1536 C1539 1.387 . S
H1537 C1533 0.950 . S
H1538 C1535 0.950 . S
C1539 C1530 1.390 . S
C1539 H1532 0.950 . S
C1539 C1536 1.387 . S
C1540 C1541 1.387 . S
C1540 H1544 0.950 . S
C1540 C1549 1.390 . S
C1541 C1540 1.387 . S
C1541 C1543 1.387 . S
H1542 C1549 0.950 . S
C1543 C1541 1.387 . S
C1543 C1545 1.390 . S
C1543 H1547 0.950 . S
H1544 C1540 0.950 . S
C1545 C1543 1.390 . S
C1545 C1546 1.387 . S
C1545 H1548 0.950 . S
C1546 C1545 1.387 . S
C1546 C1549 1.387 . S
H1547 C1543 0.950 . S
H1548 C1545 0.950 . S
C1549 C1540 1.390 . S
C1549 H1542 0.950 . S
C1549 C1546 1.387 . S
C1550 C1551 1.387 . S
C1550 H1554 0.950 . S
C1550 C1559 1.390 . S
C1551 C1550 1.387 . S
C1551 C1553 1.387 . S
H1552 C1559 0.950 . S
C1553 C1551 1.387 . S
C1553 C1555 1.390 . S
C1553 H1557 0.950 . S
H1554 C1550 0.950 . S
C1555 C1553 1.390 . S
C1555 C1556 1.387 . S
C1555 H1558 0.950 . S
C1556 C1555 1.387 . S
C1556 C1559 1.387 . S
H1557 C1553 0.950 . S
H1558 C1555 0.950 . S
C1559 C1550 1.390 . S
C1559 H1552 0.950 . S
C1559 C1556 1.387 . S
C1560 C1561 1.387 1_545 S
C1560 H1564 0.950 . S
C1560 C1569 1.390 . S
C1561 C1560 1.387 1_565 S
C1561 C1563 1.387 . S
H1562 C1569 0.950 . S
C1563 C1561 1.387 . S
C1563 C1565 1.390 . S
C1563 H1567 0.950 . S
H1564 C1560 0.950 . S
C1565 C1563 1.390 . S
C1565 C1566 1.387 . S
C1565 H1568 0.950 . S
C1566 C1565 1.387 . S
C1566 C1569 1.387 1_565 S
H1567 C1563 0.950 . S
H1568 C1565 0.950 . S
C1569 C1560 1.390 . S
C1569 H1562 0.950 . S
C1569 C1566 1.387 1_545 S
C1570 C1571 1.387 . S
C1570 H1574 0.950 . S
C1570 C1579 1.390 . S
C1571 C1570 1.387 . S
C1571 C1573 1.387 . S
H1572 C1579 0.950 . S
C1573 C1571 1.387 . S
C1573 C1575 1.390 . S
C1573 H1577 0.950 . S
H1574 C1570 0.950 . S
C1575 C1573 1.390 . S
C1575 C1576 1.387 . S
C1575 H1578 0.950 . S
C1576 C1575 1.387 . S
C1576 C1579 1.387 . S
H1577 C1573 0.950 . S
H1578 C1575 0.950 . S
C1579 C1570 1.390 . S
C1579 H1572 0.950 . S
C1579 C1576 1.387 . S
C1580 C1581 1.387 . S
C1580 H1584 0.950 . S
C1580 C1589 1.390 . S
C1581 C1580 1.387 . S
C1581 C1583 1.387 1_545 S
H1582 C1589 0.950 . S
C1583 C1581 1.387 1_565 S
C1583 C1585 1.390 . S
C1583 H1587 0.950 . S
H1584 C1580 0.950 . S
C1585 C1583 1.390 . S
C1585 C1586 1.387 1_565 S
C1585 H1588 0.950 . S
C1586 C1585 1.387 1_545 S
C1586 C1589 1.387 . S
H1587 C1583 0.950 . S
H1588 C1585 0.950 . S
C1589 C1580 1.390 . S
C1589 H1582 0.950 . S
C1589 C1586 1.387 . S
C1590 C1591 1.387 . S
C1590 H1594 0.950 . S
C1590 C1599 1.390 . S
C1591 C1590 1.387 . S
C1591 C1593 1.387 . S
H1592 C1599 0.950 . S
C1593 C1591 1.387 . S
C1593 C1595 1.390 . S
C1593 H1597 0.950 . S
H1594 C1590 0.950 . S
C1595 C1593 1.390 . S
C1595 C1596 1.387 . S
C1595 H1598 0.950 . S
C1596 C1595 1.387 . S
C1596 C1599 1.387 . S
H1597 C1593 0.950 . S
H1598 C1595 0.950 . S
C1599 C1590 1.390 . S
C1599 H1592 0.950 . S
C1599 C1596 1.387 . S
C1600 C1601 1.387 . S
C1600 H1604 0.950 . S
C1600 C1609 1.390 . S
C1601 C1600 1.387 . S
C1601 C1603 1.387 . S
H1602 C1609 0.950 . S
C1603 C1601 1.387 . S
C1603 C1605 1.390 . S
C1603 H1607 0.950 . S
H1604 C1600 0.950 . S
C1605 C1603 1.390 . S
C1605 C1606 1.387 . S
C1605 H1608 0.950 . S
C1606 C1605 1.387 . S
C1606 C1609 1.387 . S
H1607 C1603 0.950 . S
H1608 C1605 0.950 . S
C1609 C1600 1.390 . S
C1609 H1602 0.950 . S
C1609 C1606 1.387 . S
C1610 C1611 1.387 . S
C1610 H1614 0.950 . S
C1610 C1619 1.390 . S
C1611 C1610 1.387 . S
C1611 C1613 1.387 . S
H1612 C1619 0.950 . S
C1613 C1611 1.387 . S
C1613 C1615 1.390 . S
C1613 H1617 0.950 . S
H1614 C1610 0.950 . S
C1615 C1613 1.390 . S
C1615 C1616 1.387 . S
C1615 H1618 0.950 . S
C1616 C1615 1.387 . S
C1616 C1619 1.387 . S
H1617 C1613 0.950 . S
H1618 C1615 0.950 . S
C1619 C1610 1.390 . S
C1619 H1612 0.950 . S
C1619 C1616 1.387 . S
C1620 C1621 1.387 . S
C1620 H1624 0.950 . S
C1620 C1629 1.390 . S
C1621 C1620 1.387 . S
C1621 C1623 1.387 . S
H1622 C1629 0.950 . S
C1623 C1621 1.387 . S
C1623 C1625 1.390 . S
C1623 H1627 0.950 . S
H1624 C1620 0.950 . S
C1625 C1623 1.390 . S
C1625 C1626 1.387 . S
C1625 H1628 0.950 . S
C1626 C1625 1.387 . S
C1626 C1629 1.387 . S
H1627 C1623 0.950 . S
H1628 C1625 0.950 . S
C1629 C1620 1.390 . S
C1629 H1622 0.950 . S
C1629 C1626 1.387 . S
C1630 C1631 1.387 . S
C1630 H1634 0.950 . S
C1630 C1639 1.390 . S
C1631 C1630 1.387 . S
C1631 C1633 1.387 . S
H1632 C1639 0.950 . S
C1633 C1631 1.387 . S
C1633 C1635 1.390 . S
C1633 H1637 0.950 . S
H1634 C1630 0.950 . S
C1635 C1633 1.390 . S
C1635 C1636 1.387 . S
C1635 H1638 0.950 . S
C1636 C1635 1.387 . S
C1636 C1639 1.387 . S
H1637 C1633 0.950 . S
H1638 C1635 0.950 . S
C1639 C1630 1.390 . S
C1639 H1632 0.950 . S
C1639 C1636 1.387 . S
C1640 C1641 1.387 . S
C1640 H1644 0.950 . S
C1640 C1649 1.390 . S
C1641 C1640 1.387 . S
C1641 C1643 1.387 . S
H1642 C1649 0.950 . S
C1643 C1641 1.387 . S
C1643 C1645 1.390 . S
C1643 H1647 0.950 . S
H1644 C1640 0.950 . S
C1645 C1643 1.390 . S
C1645 C1646 1.387 . S
C1645 H1648 0.950 . S
C1646 C1645 1.387 . S
C1646 C1649 1.387 . S
H1647 C1643 0.950 . S
H1648 C1645 0.950 . S
C1649 C1640 1.390 . S
C1649 H1642 0.950 . S
C1649 C1646 1.387 . S
C1650 C1651 1.387 . S
C1650 H1654 0.950 . S
C1650 C1659 1.390 . S
C1651 C1650 1.387 . S
C1651 C1653 1.387 . S
H1652 C1659 0.950 . S
C1653 C1651 1.387 . S
C1653 C1655 1.390 . S
C1653 H1657 0.950 . S
H1654 C1650 0.950 . S
C1655 C1653 1.390 . S
C1655 C1656 1.387 . S
C1655 H1658 0.950 . S
C1656 C1655 1.387 . S
C1656 C1659 1.387 . S
H1657 C1653 0.950 . S
H1658 C1655 0.950 . S
C1659 C1650 1.390 . S
C1659 H1652 0.950 . S
C1659 C1656 1.387 . S
C1660 C1661 1.387 . S
C1660 H1664 0.950 . S
C1660 C1669 1.390 . S
C1661 C1660 1.387 . S
C1661 C1663 1.387 . S
H1662 C1669 0.950 . S
C1663 C1661 1.387 . S
C1663 C1665 1.390 . S
C1663 H1667 0.950 . S
H1664 C1660 0.950 . S
C1665 C1663 1.390 . S
C1665 C1666 1.387 . S
C1665 H1668 0.950 . S
C1666 C1665 1.387 . S
C1666 C1669 1.387 . S
H1667 C1663 0.950 . S
H1668 C1665 0.950 . S
C1669 C1660 1.390 . S
C1669 H1662 0.950 . S
C1669 C1666 1.387 . S
C1670 C1671 1.387 . S
C1670 H1674 0.950 . S
C1670 C1679 1.390 . S
C1671 C1670 1.387 . S
C1671 C1673 1.387 . S
H1672 C1679 0.950 . S
C1673 C1671 1.387 . S
C1673 C1675 1.390 . S
C1673 H1677 0.950 . S
H1674 C1670 0.950 . S
C1675 C1673 1.390 . S
C1675 C1676 1.387 . S
C1675 H1678 0.950 . S
C1676 C1675 1.387 . S
C1676 C1679 1.387 . S
H1677 C1673 0.950 . S
H1678 C1675 0.950 . S
C1679 C1670 1.390 . S
C1679 H1672 0.950 . S
C1679 C1676 1.387 . S
C1680 C1681 1.387 . S
C1680 H1684 0.950 . S
C1680 C1689 1.390 . S
C1681 C1680 1.387 . S
C1681 C1683 1.387 . S
H1682 C1689 0.950 . S
C1683 C1681 1.387 . S
C1683 C1685 1.390 . S
C1683 H1687 0.950 . S
H1684 C1680 0.950 . S
C1685 C1683 1.390 . S
C1685 C1686 1.387 . S
C1685 H1688 0.950 . S
C1686 C1685 1.387 . S
C1686 C1689 1.387 . S
H1687 C1683 0.950 . S
H1688 C1685 0.950 . S
C1689 C1680 1.390 . S
C1689 H1682 0.950 . S
C1689 C1686 1.387 . S
C1690 C1691 1.387 . S
C1690 H1694 0.950 . S
C1690 C1699 1.390 . S
C1691 C1690 1.387 . S
C1691 C1693 1.387 . S
H1692 C1699 0.950 . S
C1693 C1691 1.387 . S
C1693 C1695 1.390 . S
C1693 H1697 0.950 . S
H1694 C1690 0.950 . S
C1695 C1693 1.390 . S
C1695 C1696 1.387 . S
C1695 H1698 0.950 . S
C1696 C1695 1.387 . S
C1696 C1699 1.387 . S
H1697 C1693 0.950 . S
H1698 C1695 0.950 . S
C1699 C1690 1.390 . S
C1699 H1692 0.950 . S
C1699 C1696 1.387 . S
C1700 C1701 1.387 . S
C1700 H1704 0.950 . S
C1700 C1709 1.390 . S
C1701 C1700 1.387 . S
C1701 C1703 1.387 . S
H1702 C1709 0.950 . S
C1703 C1701 1.387 . S
C1703 C1705 1.390 . S
C1703 H1707 0.950 . S
H1704 C1700 0.950 . S
C1705 C1703 1.390 . S
C1705 C1706 1.387 . S
C1705 H1708 0.950 . S
C1706 C1705 1.387 . S
C1706 C1709 1.387 . S
H1707 C1703 0.950 . S
H1708 C1705 0.950 . S
C1709 C1700 1.390 . S
C1709 H1702 0.950 . S
C1709 C1706 1.387 . S
C1710 C1711 1.387 . S
C1710 H1714 0.950 . S
C1710 C1719 1.390 . S
C1711 C1710 1.387 . S
C1711 C1713 1.387 . S
H1712 C1719 0.950 . S
C1713 C1711 1.387 . S
C1713 C1715 1.390 . S
C1713 H1717 0.950 . S
H1714 C1710 0.950 . S
C1715 C1713 1.390 . S
C1715 C1716 1.387 . S
C1715 H1718 0.950 . S
C1716 C1715 1.387 . S
C1716 C1719 1.387 . S
H1717 C1713 0.950 . S
H1718 C1715 0.950 . S
C1719 C1710 1.390 . S
C1719 H1712 0.950 . S
C1719 C1716 1.387 . S
C1720 C1721 1.387 . S
C1720 H1724 0.950 . S
C1720 C1729 1.390 . S
C1721 C1720 1.387 . S
C1721 C1723 1.387 . S
H1722 C1729 0.950 . S
C1723 C1721 1.387 . S
C1723 C1725 1.390 . S
C1723 H1727 0.950 . S
H1724 C1720 0.950 . S
C1725 C1723 1.390 . S
C1725 C1726 1.387 . S
C1725 H1728 0.950 . S
C1726 C1725 1.387 . S
C1726 C1729 1.387 . S
H1727 C1723 0.950 . S
H1728 C1725 0.950 . S
C1729 C1720 1.390 . S
C1729 H1722 0.950 . S
C1729 C1726 1.387 . S
C1730 C1731 1.387 . S
C1730 H1734 0.950 . S
C1730 C1739 1.390 . S
C1731 C1730 1.387 . S
C1731 C1733 1.387 . S
H1732 C1739 0.950 . S
C1733 C1731 1.387 . S
C1733 C1735 1.390 . S
C1733 H1737 0.950 . S
H1734 C1730 0.950 . S
C1735 C1733 1.390 . S
C1735 C1736 1.387 . S
C1735 H1738 0.950 . S
C1736 C1735 1.387 . S
C1736 C1739 1.387 . S
H1737 C1733 0.950 . S
H1738 C1735 0.950 . S
C1739 C1730 1.390 . S
C1739 H1732 0.950 . S
C1739 C1736 1.387 . S
C1740 C1741 1.387 . S
C1740 H1744 0.950 . S
C1740 C1749 1.390 . S
C1741 C1740 1.387 . S
C1741 C1743 1.387 . S
H1742 C1749 0.950 . S
C1743 C1741 1.387 . S
C1743 C1745 1.390 . S
C1743 H1747 0.950 . S
H1744 C1740 0.950 . S
C1745 C1743 1.390 . S
C1745 C1746 1.387 . S
C1745 H1748 0.950 . S
C1746 C1745 1.387 . S
C1746 C1749 1.387 . S
H1747 C1743 0.950 . S
H1748 C1745 0.950 . S
C1749 C1740 1.390 . S
C1749 H1742 0.950 . S
C1749 C1746 1.387 . S
C1750 C1751 1.387 . S
C1750 H1754 0.950 . S
C1750 C1759 1.390 . S
C1751 C1750 1.387 . S
C1751 C1753 1.387 . S
H1752 C1759 0.950 . S
C1753 C1751 1.387 . S
C1753 C1755 1.390 . S
C1753 H1757 0.950 . S
H1754 C1750 0.950 . S
C1755 C1753 1.390 . S
C1755 C1756 1.387 . S
C1755 H1758 0.950 . S
C1756 C1755 1.387 . S
C1756 C1759 1.387 . S
H1757 C1753 0.950 . S
H1758 C1755 0.950 . S
C1759 C1750 1.390 . S
C1759 H1752 0.950 . S
C1759 C1756 1.387 . S
C1760 C1761 1.387 . S
C1760 H1764 0.950 . S
C1760 C1769 1.390 . S
C1761 C1760 1.387 . S
C1761 C1763 1.387 . S
H1762 C1769 0.950 . S
C1763 C1761 1.387 . S
C1763 C1765 1.390 . S
C1763 H1767 0.950 . S
H1764 C1760 0.950 . S
C1765 C1763 1.390 . S
C1765 C1766 1.387 . S
C1765 H1768 0.950 . S
C1766 C1765 1.387 . S
C1766 C1769 1.387 . S
H1767 C1763 0.950 . S
H1768 C1765 0.950 . S
C1769 C1760 1.390 . S
C1769 H1762 0.950 . S
C1769 C1766 1.387 . S
C1770 C1771 1.387 . S
C1770 H1774 0.950 . S
C1770 C1779 1.390 . S
C1771 C1770 1.387 . S
C1771 C1773 1.387 . S
H1772 C1779 0.950 . S
C1773 C1771 1.387 . S
C1773 C1775 1.390 . S
C1773 H1777 0.950 . S
H1774 C1770 0.950 . S
C1775 C1773 1.390 . S
C1775 C1776 1.387 . S
C1775 H1778 0.950 . S
C1776 C1775 1.387 . S
C1776 C1779 1.387 . S
H1777 C1773 0.950 . S
H1778 C1775 0.950 . S
C1779 C1770 1.390 . S
C1779 H1772 0.950 . S
C1779 C1776 1.387 . S
C1780 C1781 1.387 . S
C1780 H1784 0.950 . S
C1780 C1789 1.390 . S
C1781 C1780 1.387 . S
C1781 C1783 1.387 . S
H1782 C1789 0.950 . S
C1783 C1781 1.387 . S
C1783 C1785 1.390 . S
C1783 H1787 0.950 . S
H1784 C1780 0.950 . S
C1785 C1783 1.390 . S
C1785 C1786 1.387 . S
C1785 H1788 0.950 . S
C1786 C1785 1.387 . S
C1786 C1789 1.387 . S
H1787 C1783 0.950 . S
H1788 C1785 0.950 . S
C1789 C1780 1.390 . S
C1789 H1782 0.950 . S
C1789 C1786 1.387 . S
C1790 C1791 1.387 . S
C1790 H1794 0.950 . S
C1790 C1799 1.390 . S
C1791 C1790 1.387 . S
C1791 C1793 1.387 . S
H1792 C1799 0.950 . S
C1793 C1791 1.387 . S
C1793 C1795 1.390 . S
C1793 H1797 0.950 . S
H1794 C1790 0.950 . S
C1795 C1793 1.390 . S
C1795 C1796 1.387 . S
C1795 H1798 0.950 . S
C1796 C1795 1.387 . S
C1796 C1799 1.387 . S
H1797 C1793 0.950 . S
H1798 C1795 0.950 . S
C1799 C1790 1.390 . S
C1799 H1792 0.950 . S
C1799 C1796 1.387 . S
C1800 C1801 1.387 . S
C1800 H1804 0.950 . S
C1800 C1809 1.390 . S
C1801 C1800 1.387 . S
C1801 C1803 1.387 . S
H1802 C1809 0.950 . S
C1803 C1801 1.387 . S
C1803 C1805 1.390 . S
C1803 H1807 0.950 . S
H1804 C1800 0.950 . S
C1805 C1803 1.390 . S
C1805 C1806 1.387 . S
C1805 H1808 0.950 . S
C1806 C1805 1.387 . S
C1806 C1809 1.387 . S
H1807 C1803 0.950 . S
H1808 C1805 0.950 . S
C1809 C1800 1.390 . S
C1809 H1802 0.950 . S
C1809 C1806 1.387 . S
C1810 C1811 1.387 . S
C1810 H1814 0.950 . S
C1810 C1819 1.390 . S
C1811 C1810 1.387 . S
C1811 C1813 1.387 . S
H1812 C1819 0.950 . S
C1813 C1811 1.387 . S
C1813 C1815 1.390 . S
C1813 H1817 0.950 . S
H1814 C1810 0.950 . S
C1815 C1813 1.390 . S
C1815 C1816 1.387 . S
C1815 H1818 0.950 . S
C1816 C1815 1.387 . S
C1816 C1819 1.387 . S
H1817 C1813 0.950 . S
H1818 C1815 0.950 . S
C1819 C1810 1.390 . S
C1819 H1812 0.950 . S
C1819 C1816 1.387 . S
C1820 C1821 1.387 . S
C1820 H1824 0.950 . S
C1820 C1829 1.390 . S
C1821 C1820 1.387 . S
C1821 C1823 1.387 . S
H1822 C1829 0.950 . S
C1823 C1821 1.387 . S
C1823 C1825 1.390 . S
C1823 H1827 0.950 . S
H1824 C1820 0.950 . S
C1825 C1823 1.390 . S
C1825 C1826 1.387 . S
C1825 H1828 0.950 . S
C1826 C1825 1.387 . S
C1826 C1829 1.387 . S
H1827 C1823 0.950 . S
H1828 C1825 0.950 . S
C1829 C1820 1.390 . S
C1829 H1822 0.950 . S
C1829 C1826 1.387 . S
C1830 C1831 1.387 . S
C1830 H1834 0.950 . S
C1830 C1839 1.390 . S
C1831 C1830 1.387 . S
C1831 C1833 1.387 . S
H1832 C1839 0.950 . S
C1833 C1831 1.387 . S
C1833 C1835 1.390 . S
C1833 H1837 0.950 . S
H1834 C1830 0.950 . S
C1835 C1833 1.390 . S
C1835 C1836 1.387 . S
C1835 H1838 0.950 . S
C1836 C1835 1.387 . S
C1836 C1839 1.387 . S
H1837 C1833 0.950 . S
H1838 C1835 0.950 . S
C1839 C1830 1.390 . S
C1839 H1832 0.950 . S
C1839 C1836 1.387 . S
C1840 C1841 1.387 . S
C1840 H1844 0.950 . S
C1840 C1849 1.390 . S
C1841 C1840 1.387 . S
C1841 C1843 1.387 1_565 S
H1842 C1849 0.950 . S
C1843 C1841 1.387 1_545 S
C1843 C1845 1.390 . S
C1843 H1847 0.950 . S
H1844 C1840 0.950 . S
C1845 C1843 1.390 . S
C1845 C1846 1.387 1_545 S
C1845 H1848 0.950 . S
C1846 C1845 1.387 1_565 S
C1846 C1849 1.387 . S
H1847 C1843 0.950 . S
H1848 C1845 0.950 . S
C1849 C1840 1.390 . S
C1849 H1842 0.950 . S
C1849 C1846 1.387 . S
C1850 C1851 1.387 . S
C1850 H1854 0.950 . S
C1850 C1859 1.390 . S
C1851 C1850 1.387 . S
C1851 C1853 1.387 . S
H1852 C1859 0.950 . S
C1853 C1851 1.387 . S
C1853 C1855 1.390 . S
C1853 H1857 0.950 . S
H1854 C1850 0.950 . S
C1855 C1853 1.390 . S
C1855 C1856 1.387 . S
C1855 H1858 0.950 . S
C1856 C1855 1.387 . S
C1856 C1859 1.387 . S
H1857 C1853 0.950 . S
H1858 C1855 0.950 . S
C1859 C1850 1.390 . S
C1859 H1852 0.950 . S
C1859 C1856 1.387 . S
C1860 C1861 1.387 . S
C1860 H1864 0.950 . S
C1860 C1869 1.390 . S
C1861 C1860 1.387 . S
C1861 C1863 1.387 . S
H1862 C1869 0.950 . S
C1863 C1861 1.387 . S
C1863 C1865 1.390 . S
C1863 H1867 0.950 . S
H1864 C1860 0.950 . S
C1865 C1863 1.390 . S
C1865 C1866 1.387 . S
C1865 H1868 0.950 . S
C1866 C1865 1.387 . S
C1866 C1869 1.387 . S
H1867 C1863 0.950 . S
H1868 C1865 0.950 . S
C1869 C1860 1.390 . S
C1869 H1862 0.950 . S
C1869 C1866 1.387 . S
C1870 C1871 1.387 . S
C1870 H1874 0.950 . S
C1870 C1879 1.390 . S
C1871 C1870 1.387 . S
C1871 C1873 1.387 1_565 S
H1872 C1879 0.950 . S
C1873 C1871 1.387 1_545 S
C1873 C1875 1.390 . S
C1873 H1877 0.950 . S
H1874 C1870 0.950 . S
C1875 C1873 1.390 . S
C1875 C1876 1.387 1_545 S
C1875 H1878 0.950 . S
C1876 C1875 1.387 1_565 S
C1876 C1879 1.387 . S
H1877 C1873 0.950 . S
H1878 C1875 0.950 . S
C1879 C1870 1.390 . S
C1879 H1872 0.950 . S
C1879 C1876 1.387 . S
C1880 C1881 1.387 . S
C1880 H1884 0.950 . S
C1880 C1889 1.390 . S
C1881 C1880 1.387 . S
C1881 C1883 1.387 1_545 S
H1882 C1889 0.950 . S
C1883 C1881 1.387 1_565 S
C1883 C1885 1.390 . S
C1883 H1887 0.950 . S
H1884 C1880 0.950 . S
C1885 C1883 1.390 . S
C1885 C1886 1.387 1_565 S
C1885 H1888 0.950 . S
C1886 C1885 1.387 1_545 S
C1886 C1889 1.387 . S
H1887 C1883 0.950 . S
H1888 C1885 0.950 . S
C1889 C1880 1.390 . S
C1889 H1882 0.950 . S
C1889 C1886 1.387 . S
C1890 C1891 1.387 . S
C1890 H1894 0.950 . S
C1890 C1899 1.390 . S
C1891 C1890 1.387 . S
C1891 C1893 1.387 . S
H1892 C1899 0.950 . S
C1893 C1891 1.387 . S
C1893 C1895 1.390 . S
C1893 H1897 0.950 . S
H1894 C1890 0.950 . S
C1895 C1893 1.390 . S
C1895 C1896 1.387 . S
C1895 H1898 0.950 . S
C1896 C1895 1.387 . S
C1896 C1899 1.387 . S
H1897 C1893 0.950 . S
H1898 C1895 0.950 . S
C1899 C1890 1.390 . S
C1899 H1892 0.950 . S
C1899 C1896 1.387 . S
C1900 C1901 1.387 . S
C1900 H1904 0.950 . S
C1900 C1909 1.390 . S
C1901 C1900 1.387 . S
C1901 C1903 1.387 . S
H1902 C1909 0.950 . S
C1903 C1901 1.387 . S
C1903 C1905 1.390 . S
C1903 H1907 0.950 . S
H1904 C1900 0.950 . S
C1905 C1903 1.390 . S
C1905 C1906 1.387 . S
C1905 H1908 0.950 . S
C1906 C1905 1.387 . S
C1906 C1909 1.387 . S
H1907 C1903 0.950 . S
H1908 C1905 0.950 . S
C1909 C1900 1.390 . S
C1909 H1902 0.950 . S
C1909 C1906 1.387 . S
C1910 C1911 1.387 . S
C1910 H1914 0.950 . S
C1910 C1919 1.390 . S
C1911 C1910 1.387 . S
C1911 C1913 1.387 1_545 S
H1912 C1919 0.950 . S
C1913 C1911 1.387 1_565 S
C1913 C1915 1.390 . S
C1913 H1917 0.950 . S
H1914 C1910 0.950 . S
C1915 C1913 1.390 . S
C1915 C1916 1.387 1_565 S
C1915 H1918 0.950 . S
C1916 C1915 1.387 1_545 S
C1916 C1919 1.387 . S
H1917 C1913 0.950 . S
H1918 C1915 0.950 . S
C1919 C1910 1.390 . S
C1919 H1912 0.950 . S
C1919 C1916 1.387 . S
C1920 C1921 1.387 . S
C1920 H1924 0.950 . S
C1920 C1929 1.390 . S
C1921 C1920 1.387 . S
C1921 C1923 1.387 . S
H1922 C1929 0.950 1_655 S
C1923 C1921 1.387 . S
C1923 C1925 1.390 . S
C1923 H1927 0.950 . S
H1924 C1920 0.950 . S
C1925 C1923 1.390 . S
C1925 C1926 1.387 1_455 S
C1925 H1928 0.950 1_455 S
C1926 C1925 1.387 1_655 S
C1926 C1929 1.387 1_655 S
H1927 C1923 0.950 . S
H1928 C1925 0.950 1_655 S
C1929 C1920 1.390 . S
C1929 H1922 0.950 1_455 S
C1929 C1926 1.387 1_455 S
C1930 C1931 1.387 . S
C1930 H1934 0.950 . S
C1930 C1939 1.390 . S
C1931 C1930 1.387 . S
C1931 C1933 1.387 . S
H1932 C1939 0.950 . S
C1933 C1931 1.387 . S
C1933 C1935 1.390 . S
C1933 H1937 0.950 . S
H1934 C1930 0.950 . S
C1935 C1933 1.390 . S
C1935 C1936 1.387 . S
C1935 H1938 0.950 . S
C1936 C1935 1.387 . S
C1936 C1939 1.387 . S
H1937 C1933 0.950 . S
H1938 C1935 0.950 . S
C1939 C1930 1.390 . S
C1939 H1932 0.950 . S
C1939 C1936 1.387 . S
C1940 C1941 1.387 1_455 S
C1940 H1944 0.950 . S
C1940 C1949 1.390 . S
C1941 C1940 1.387 1_655 S
C1941 C1943 1.387 . S
H1942 C1949 0.950 . S
C1943 C1941 1.387 . S
C1943 C1945 1.390 1_655 S
C1943 H1947 0.950 . S
H1944 C1940 0.950 . S
C1945 C1943 1.390 1_455 S
C1945 C1946 1.387 . S
C1945 H1948 0.950 . S
C1946 C1945 1.387 . S
C1946 C1949 1.387 . S
H1947 C1943 0.950 . S
H1948 C1945 0.950 . S
C1949 C1940 1.390 . S
C1949 H1942 0.950 . S
C1949 C1946 1.387 . S
C1950 C1951 1.387 . S
C1950 H1954 0.950 . S
C1950 C1959 1.390 . S
C1951 C1950 1.387 . S
C1951 C1953 1.387 . S
H1952 C1959 0.950 . S
C1953 C1951 1.387 . S
C1953 C1955 1.390 . S
C1953 H1957 0.950 . S
H1954 C1950 0.950 . S
C1955 C1953 1.390 . S
C1955 C1956 1.387 . S
C1955 H1958 0.950 . S
C1956 C1955 1.387 . S
C1956 C1959 1.387 . S
H1957 C1953 0.950 . S
H1958 C1955 0.950 . S
C1959 C1950 1.390 . S
C1959 H1952 0.950 . S
C1959 C1956 1.387 . S
C1960 C1961 1.387 . S
C1960 H1964 0.950 . S
C1960 C1969 1.390 . S
C1961 C1960 1.387 . S
C1961 C1963 1.387 . S
H1962 C1969 0.950 1_455 S
C1963 C1961 1.387 . S
C1963 C1965 1.390 . S
C1963 H1967 0.950 . S
H1964 C1960 0.950 . S
C1965 C1963 1.390 . S
C1965 C1966 1.387 1_655 S
C1965 H1968 0.950 1_655 S
C1966 C1965 1.387 1_455 S
C1966 C1969 1.387 1_455 S
H1967 C1963 0.950 . S
H1968 C1965 0.950 1_455 S
C1969 C1960 1.390 . S
C1969 H1962 0.950 1_655 S
C1969 C1966 1.387 1_655 S
C1970 C1971 1.387 . S
C1970 H1974 0.950 . S
C1970 C1979 1.390 . S
C1971 C1970 1.387 . S
C1971 C1973 1.387 . S
H1972 C1979 0.950 . S
C1973 C1971 1.387 . S
C1973 C1975 1.390 . S
C1973 H1977 0.950 . S
H1974 C1970 0.950 . S
C1975 C1973 1.390 . S
C1975 C1976 1.387 . S
C1975 H1978 0.950 . S
C1976 C1975 1.387 . S
C1976 C1979 1.387 . S
H1977 C1973 0.950 . S
H1978 C1975 0.950 . S
C1979 C1970 1.390 . S
C1979 H1972 0.950 . S
C1979 C1976 1.387 . S
C1980 C1981 1.387 1_655 S
C1980 H1984 0.950 1_655 S
C1980 C1989 1.390 . S
C1981 C1980 1.387 1_455 S
C1981 C1983 1.387 . S
H1982 C1989 0.950 . S
C1983 C1981 1.387 . S
C1983 C1985 1.390 1_455 S
C1983 H1987 0.950 . S
H1984 C1980 0.950 1_455 S
C1985 C1983 1.390 1_655 S
C1985 C1986 1.387 . S
C1985 H1988 0.950 . S
C1986 C1985 1.387 . S
C1986 C1989 1.387 . S
H1987 C1983 0.950 . S
H1988 C1985 0.950 . S
C1989 C1980 1.390 . S
C1989 H1982 0.950 . S
C1989 C1986 1.387 . S
C1990 C1991 1.387 . S
C1990 H1994 0.950 . S
C1990 C1999 1.390 . S
C1991 C1990 1.387 . S
C1991 C1993 1.387 . S
H1992 C1999 0.950 . S
C1993 C1991 1.387 . S
C1993 C1995 1.390 . S
C1993 H1997 0.950 . S
H1994 C1990 0.950 . S
C1995 C1993 1.390 . S
C1995 C1996 1.387 . S
C1995 H1998 0.950 . S
C1996 C1995 1.387 . S
C1996 C1999 1.387 . S
H1997 C1993 0.950 . S
H1998 C1995 0.950 . S
C1999 C1990 1.390 . S
C1999 H1992 0.950 . S
C1999 C1996 1.387 . S
C2000 C2001 1.394 . S
C2000 H2004 0.959 . S
C2000 C2009 1.374 1_655 S
C2001 C2000 1.394 . S
C2001 C2003 1.387 1_665 S
H2002 C2009 0.950 . S
C2003 C2001 1.387 1_445 S
C2003 C2005 1.390 . S
C2003 H2007 0.950 1_455 S
H2004 C2000 0.959 . S
C2005 C2003 1.390 . S
C2005 C2006 1.387 1_545 S
C2005 H2008 0.950 . S
C2006 C2005 1.387 1_565 S
C2006 C2009 1.387 . S
H2007 C2003 0.950 1_655 S
H2008 C2005 0.950 . S
C2009 C2000 1.374 1_455 S
C2009 H2002 0.950 . S
C2009 C2006 1.387 . S
C2010 C2011 1.387 . S
C2010 H2014 0.950 . S
C2010 C2019 1.390 . S
C2011 C2010 1.387 . S
C2011 C2013 1.387 . S
H2012 C2019 0.950 . S
C2013 C2011 1.387 . S
C2013 C2015 1.390 . S
C2013 H2017 0.950 . S
H2014 C2010 0.950 . S
C2015 C2013 1.390 . S
C2015 C2016 1.387 . S
C2015 H2018 0.950 . S
C2016 C2015 1.387 . S
C2016 C2019 1.387 . S
H2017 C2013 0.950 . S
H2018 C2015 0.950 . S
C2019 C2010 1.390 . S
C2019 H2012 0.950 . S
C2019 C2016 1.387 . S
C2020 C2021 1.388 . S
C2020 H2024 0.950 . S
C2020 C2029 1.389 1_655 S
C2021 C2020 1.388 . S
C2021 C2023 1.387 1_655 S
H2022 C2029 0.950 . S
C2023 C2021 1.387 1_455 S
C2023 C2025 1.390 . S
C2023 H2027 0.950 1_455 S
H2024 C2020 0.950 . S
C2025 C2023 1.390 . S
C2025 C2026 1.387 . S
C2025 H2028 0.950 . S
C2026 C2025 1.387 . S
C2026 C2029 1.387 . S
H2027 C2023 0.950 1_655 S
H2028 C2025 0.950 . S
C2029 C2020 1.389 1_455 S
C2029 H2022 0.950 . S
C2029 C2026 1.387 . S
C2030 C2031 1.387 1_545 S
C2030 H2034 0.950 . S
C2030 C2039 1.390 . S
C2031 C2030 1.387 1_565 S
C2031 C2033 1.387 . S
H2032 C2039 0.950 . S
C2033 C2031 1.387 . S
C2033 C2035 1.390 . S
C2033 H2037 0.950 . S
H2034 C2030 0.950 . S
C2035 C2033 1.390 . S
C2035 C2036 1.387 . S
C2035 H2038 0.950 . S
C2036 C2035 1.387 . S
C2036 C2039 1.387 1_565 S
H2037 C2033 0.950 . S
H2038 C2035 0.950 . S
C2039 C2030 1.390 . S
C2039 H2032 0.950 . S
C2039 C2036 1.387 1_545 S
C2040 C2041 1.387 . S
C2040 H2044 0.950 . S
C2040 C2049 1.390 . S
C2041 C2040 1.387 . S
C2041 C2043 1.387 1_545 S
H2042 C2049 0.950 1_455 S
C2043 C2041 1.387 1_565 S
C2043 C2045 1.390 . S
C2043 H2047 0.950 . S
H2044 C2040 0.950 . S
C2045 C2043 1.390 . S
C2045 C2046 1.387 1_665 S
C2045 H2048 0.950 1_655 S
C2046 C2045 1.387 1_445 S
C2046 C2049 1.387 1_455 S
H2047 C2043 0.950 . S
H2048 C2045 0.950 1_455 S
C2049 C2040 1.390 . S
C2049 H2042 0.950 1_655 S
C2049 C2046 1.387 1_655 S
C2050 C2051 1.387 . S
C2050 H2054 0.950 . S
C2050 C2059 1.390 . S
C2051 C2050 1.387 . S
C2051 C2053 1.387 . S
H2052 C2059 0.950 . S
C2053 C2051 1.387 . S
C2053 C2055 1.390 . S
C2053 H2057 0.950 . S
H2054 C2050 0.950 . S
C2055 C2053 1.390 . S
C2055 C2056 1.387 . S
C2055 H2058 0.950 . S
C2056 C2055 1.387 . S
C2056 C2059 1.387 . S
H2057 C2053 0.950 . S
H2058 C2055 0.950 . S
C2059 C2050 1.390 . S
C2059 H2052 0.950 . S
C2059 C2056 1.387 . S
C2060 C2061 1.387 1_655 S
C2060 H2064 0.950 1_655 S
C2060 C2069 1.390 . S
C2061 C2060 1.387 1_455 S
C2061 C2063 1.387 1_455 S
H2062 C2069 0.950 . S
C2063 C2061 1.387 1_655 S
C2063 C2065 1.390 . S
C2063 H2067 0.950 1_655 S
H2064 C2060 0.950 1_455 S
C2065 C2063 1.390 . S
C2065 C2066 1.387 . S
C2065 H2068 0.950 . S
C2066 C2065 1.387 . S
C2066 C2069 1.387 . S
H2067 C2063 0.950 1_455 S
H2068 C2065 0.950 . S
C2069 C2060 1.390 . S
C2069 H2062 0.950 . S
C2069 C2066 1.387 . S
C2070 C2071 1.387 1_565 S
C2070 H2074 0.950 . S
C2070 C2079 1.390 . S
C2071 C2070 1.387 1_545 S
C2071 C2073 1.387 . S
H2072 C2079 0.950 . S
C2073 C2071 1.387 . S
C2073 C2075 1.390 . S
C2073 H2077 0.950 . S
H2074 C2070 0.950 . S
C2075 C2073 1.390 . S
C2075 C2076 1.387 . S
C2075 H2078 0.950 . S
C2076 C2075 1.387 . S
C2076 C2079 1.387 1_545 S
H2077 C2073 0.950 . S
H2078 C2075 0.950 . S
C2079 C2070 1.390 . S
C2079 H2072 0.950 . S
C2079 C2076 1.387 1_565 S
C2080 C2081 1.387 . S
C2080 H2084 0.950 . S
C2080 C2089 1.390 1_554 S
C2081 C2080 1.387 . S
C2081 C2083 1.387 1_455 S
H2082 C2089 0.950 . S
C2083 C2081 1.387 1_655 S
C2083 C2085 1.390 1_554 S
C2083 H2087 0.950 . S
H2084 C2080 0.950 . S
C2085 C2083 1.390 1_556 S
C2085 C2086 1.387 . S
C2085 H2088 0.950 . S
C2086 C2085 1.387 . S
C2086 C2089 1.387 1_655 S
H2087 C2083 0.950 . S
H2088 C2085 0.950 . S
C2089 C2080 1.390 1_556 S
C2089 H2082 0.950 . S
C2089 C2086 1.387 1_455 S
C2090 C2091 1.387 . S
C2090 H2094 0.950 . S
C2090 C2099 1.390 1_556 S
C2091 C2090 1.387 . S
C2091 C2093 1.387 . S
H2092 C2099 0.950 . S
C2093 C2091 1.387 . S
C2093 C2095 1.390 1_556 S
C2093 H2097 0.950 . S
H2094 C2090 0.950 . S
C2095 C2093 1.390 1_554 S
C2095 C2096 1.387 . S
C2095 H2098 0.950 . S
C2096 C2095 1.387 . S
C2096 C2099 1.387 . S
H2097 C2093 0.950 . S
H2098 C2095 0.950 . S
C2099 C2090 1.390 1_554 S
C2099 H2092 0.950 . S
C2099 C2096 1.387 . S
C2100 C2101 1.387 . S
C2100 H2104 0.950 . S
C2100 C2109 1.390 . S
C2101 C2100 1.387 . S
C2101 C2103 1.387 1_655 S
H2102 C2109 0.950 . S
C2103 C2101 1.387 1_455 S
C2103 C2105 1.390 . S
C2103 H2107 0.950 . S
H2104 C2100 0.950 . S
C2105 C2103 1.390 . S
C2105 C2106 1.387 . S
C2105 H2108 0.950 . S
C2106 C2105 1.387 . S
C2106 C2109 1.387 1_455 S
H2107 C2103 0.950 . S
H2108 C2105 0.950 . S
C2109 C2100 1.390 . S
C2109 H2102 0.950 . S
C2109 C2106 1.387 1_655 S
C2110 C2111 1.387 . S
C2110 H2114 0.950 . S
C2110 C2119 1.390 . S
C2111 C2110 1.387 . S
C2111 C2113 1.387 . S
H2112 C2119 0.950 . S
C2113 C2111 1.387 . S
C2113 C2115 1.390 . S
C2113 H2117 0.950 . S
H2114 C2110 0.950 . S
C2115 C2113 1.390 . S
C2115 C2116 1.387 . S
C2115 H2118 0.950 . S
C2116 C2115 1.387 . S
C2116 C2119 1.387 . S
H2117 C2113 0.950 . S
H2118 C2115 0.950 . S
C2119 C2110 1.390 . S
C2119 H2112 0.950 . S
C2119 C2116 1.387 . S
C2120 C2121 1.387 . S
C2120 H2124 0.950 . S
C2120 C2129 1.390 1_556 S
C2121 C2120 1.387 . S
C2121 C2123 1.387 . S
H2122 C2129 0.950 . S
C2123 C2121 1.387 . S
C2123 C2125 1.390 1_556 S
C2123 H2127 0.950 . S
H2124 C2120 0.950 . S
C2125 C2123 1.390 1_554 S
C2125 C2126 1.387 . S
C2125 H2128 0.950 . S
C2126 C2125 1.387 . S
C2126 C2129 1.387 . S
H2127 C2123 0.950 . S
H2128 C2125 0.950 . S
C2129 C2120 1.390 1_554 S
C2129 H2122 0.950 . S
C2129 C2126 1.387 . S
C2130 C2131 1.387 . S
C2130 H2134 0.950 . S
C2130 C2139 1.390 . S
C2131 C2130 1.387 . S
C2131 C2133 1.387 1_655 S
H2132 C2139 0.950 . S
C2133 C2131 1.387 1_455 S
C2133 C2135 1.390 . S
C2133 H2137 0.950 . S
H2134 C2130 0.950 . S
C2135 C2133 1.390 . S
C2135 C2136 1.387 . S
C2135 H2138 0.950 . S
C2136 C2135 1.387 . S
C2136 C2139 1.387 1_455 S
H2137 C2133 0.950 . S
H2138 C2135 0.950 . S
C2139 C2130 1.390 . S
C2139 H2132 0.950 . S
C2139 C2136 1.387 1_655 S
C2140 C2141 1.387 . S
C2140 H2144 0.950 . S
C2140 C2149 1.390 . S
C2141 C2140 1.387 . S
C2141 C2143 1.387 . S
H2142 C2149 0.950 . S
C2143 C2141 1.387 . S
C2143 C2145 1.390 . S
C2143 H2147 0.950 . S
H2144 C2140 0.950 . S
C2145 C2143 1.390 . S
C2145 C2146 1.387 . S
C2145 H2148 0.950 . S
C2146 C2145 1.387 . S
C2146 C2149 1.387 . S
H2147 C2143 0.950 . S
H2148 C2145 0.950 . S
C2149 C2140 1.390 . S
C2149 H2142 0.950 . S
C2149 C2146 1.387 . S
C2150 C2151 1.387 1_645 S
C2150 H2154 0.950 . S
C2150 C2159 1.390 . S
C2151 C2150 1.387 1_465 S
C2151 C2153 1.387 . S
H2152 C2159 0.950 . S
C2153 C2151 1.387 . S
C2153 C2155 1.390 . S
C2153 H2157 0.950 . S
H2154 C2150 0.950 . S
C2155 C2153 1.390 . S
C2155 C2156 1.387 1_465 S
C2155 H2158 0.950 . S
C2156 C2155 1.387 1_645 S
C2156 C2159 1.387 . S
H2157 C2153 0.950 . S
H2158 C2155 0.950 . S
C2159 C2150 1.390 . S
C2159 H2152 0.950 . S
C2159 C2156 1.387 . S
C2160 C2161 1.387 . S
C2160 H2164 0.950 . S
C2160 C2169 1.390 . S
C2161 C2160 1.387 . S
C2161 C2163 1.387 . S
H2162 C2169 0.950 . S
C2163 C2161 1.387 . S
C2163 C2165 1.390 . S
C2163 H2167 0.950 . S
H2164 C2160 0.950 . S
C2165 C2163 1.390 . S
C2165 C2166 1.387 . S
C2165 H2168 0.950 . S
C2166 C2165 1.387 . S
C2166 C2169 1.387 . S
H2167 C2163 0.950 . S
H2168 C2165 0.950 . S
C2169 C2160 1.390 . S
C2169 H2162 0.950 . S
C2169 C2166 1.387 . S
C2170 C2171 1.387 . S
C2170 H2174 0.950 . S
C2170 C2179 1.390 . S
C2171 C2170 1.387 . S
C2171 C2173 1.387 1_545 S
H2172 C2179 0.950 . S
C2173 C2171 1.387 1_565 S
C2173 C2175 1.390 . S
C2173 H2177 0.950 . S
H2174 C2170 0.950 . S
C2175 C2173 1.390 . S
C2175 C2176 1.387 . S
C2175 H2178 0.950 . S
C2176 C2175 1.387 . S
C2176 C2179 1.387 1_565 S
H2177 C2173 0.950 . S
H2178 C2175 0.950 . S
C2179 C2170 1.390 . S
C2179 H2172 0.950 . S
C2179 C2176 1.387 1_545 S
C2180 C2181 1.387 . S
C2180 H2184 0.950 . S
C2180 C2189 1.390 . S
C2181 C2180 1.387 . S
C2181 C2183 1.387 . S
H2182 C2189 0.950 . S
C2183 C2181 1.387 . S
C2183 C2185 1.390 . S
C2183 H2187 0.950 . S
H2184 C2180 0.950 . S
C2185 C2183 1.390 . S
C2185 C2186 1.387 . S
C2185 H2188 0.950 . S
C2186 C2185 1.387 . S
C2186 C2189 1.387 . S
H2187 C2183 0.950 . S
H2188 C2185 0.950 . S
C2189 C2180 1.390 . S
C2189 H2182 0.950 . S
C2189 C2186 1.387 . S
C2190 C2191 1.387 . S
C2190 H2194 0.950 . S
C2190 C2199 1.390 . S
C2191 C2190 1.387 . S
C2191 C2193 1.387 1_565 S
H2192 C2199 0.950 . S
C2193 C2191 1.387 1_545 S
C2193 C2195 1.390 . S
C2193 H2197 0.950 . S
H2194 C2190 0.950 . S
C2195 C2193 1.390 . S
C2195 C2196 1.387 . S
C2195 H2198 0.950 . S
C2196 C2195 1.387 . S
C2196 C2199 1.387 1_545 S
H2197 C2193 0.950 . S
H2198 C2195 0.950 . S
C2199 C2190 1.390 . S
C2199 H2192 0.950 . S
C2199 C2196 1.387 1_565 S
C2200 C2201 1.387 . S
C2200 H2204 0.950 . S
C2200 C2209 1.390 . S
C2201 C2200 1.387 . S
C2201 C2203 1.387 . S
H2202 C2209 0.950 . S
C2203 C2201 1.387 . S
C2203 C2205 1.390 . S
C2203 H2207 0.950 . S
H2204 C2200 0.950 . S
C2205 C2203 1.390 . S
C2205 C2206 1.387 . S
C2205 H2208 0.950 . S
C2206 C2205 1.387 . S
C2206 C2209 1.387 . S
H2207 C2203 0.950 . S
H2208 C2205 0.950 . S
C2209 C2200 1.390 . S
C2209 H2202 0.950 . S
C2209 C2206 1.387 . S
C2210 C2211 1.387 . S
C2210 H2214 0.950 . S
C2210 C2219 1.390 . S
C2211 C2210 1.387 . S
C2211 C2213 1.387 . S
H2212 C2219 0.950 . S
C2213 C2211 1.387 . S
C2213 C2215 1.390 . S
C2213 H2217 0.950 . S
H2214 C2210 0.950 . S
C2215 C2213 1.390 . S
C2215 C2216 1.387 . S
C2215 H2218 0.950 . S
C2216 C2215 1.387 . S
C2216 C2219 1.387 . S
H2217 C2213 0.950 . S
H2218 C2215 0.950 . S
C2219 C2210 1.390 . S
C2219 H2212 0.950 . S
C2219 C2216 1.387 . S
C2220 C2221 1.387 . S
C2220 H2224 0.950 . S
C2220 C2229 1.390 . S
C2221 C2220 1.387 . S
C2221 C2223 1.387 . S
H2222 C2229 0.950 . S
C2223 C2221 1.387 . S
C2223 C2225 1.390 . S
C2223 H2227 0.950 . S
H2224 C2220 0.950 . S
C2225 C2223 1.390 . S
C2225 C2226 1.387 . S
C2225 H2228 0.950 . S
C2226 C2225 1.387 . S
C2226 C2229 1.387 . S
H2227 C2223 0.950 . S
H2228 C2225 0.950 . S
C2229 C2220 1.390 . S
C2229 H2222 0.950 . S
C2229 C2226 1.387 . S
C2230 C2231 1.387 . S
C2230 H2234 0.950 . S
C2230 C2239 1.390 1_554 S
C2231 C2230 1.387 . S
C2231 C2233 1.387 1_565 S
H2232 C2239 0.950 . S
C2233 C2231 1.387 1_545 S
C2233 C2235 1.390 1_554 S
C2233 H2237 0.950 . S
H2234 C2230 0.950 . S
C2235 C2233 1.390 1_556 S
C2235 C2236 1.387 . S
C2235 H2238 0.950 . S
C2236 C2235 1.387 . S
C2236 C2239 1.387 1_545 S
H2237 C2233 0.950 . S
H2238 C2235 0.950 . S
C2239 C2230 1.390 1_556 S
C2239 H2232 0.950 . S
C2239 C2236 1.387 1_565 S
C1281 C10 1.599 . S
C1286 C1010 1.599 . S
C1291 C970 1.600 . S
C1296 C50 1.600 . S
C1301 C1090 1.599 . S
C1306 C90 1.599 . S
C1311 C130 1.600 . S
C1316 C1050 1.600 . S
C1321 C179 1.599 . S
C1326 C1179 1.599 . S
C1331 C219 1.599 . S
C1336 C1139 1.599 . S
C1341 C259 1.599 . S
C1346 C1259 1.599 . S
C1351 C1219 1.599 . S
C1356 C299 1.599 . S
C1361 C330 1.599 . S
C1366 C690 1.599 . S
C1371 C370 1.600 . S
C1376 C650 1.600 . S
C1381 C410 1.600 . S
C1386 C770 1.600 . S
C1391 C730 1.600 . S
C1396 C450 1.600 . S
C1401 C499 1.599 . S
C1406 C859 1.599 . S
C1411 C539 1.599 . S
C1416 C819 1.599 . S
C1421 C939 1.600 . S
C1426 C579 1.600 . S
C1431 C619 1.599 . S
C1436 C899 1.599 . S
C1441 C9 1.699 . S
C1446 C129 1.699 . S
C1451 C49 1.699 . S
C1456 C89 1.699 . S
C1461 C298 1.699 . S
C1466 C178 1.699 . S
C1471 C258 1.699 . S
C1476 C218 1.699 . S
C1481 C329 1.699 . S
C1486 C449 1.699 . S
C1491 C369 1.699 . S
C1496 C409 1.699 . S
C1501 C498 1.699 . S
C1506 C618 1.699 . S
C1511 C578 1.699 . S
C1516 C538 1.699 . S
C1521 C649 1.699 . S
C1526 C769 1.699 . S
C1531 C689 1.699 . S
C1536 C729 1.699 . S
C1541 C938 1.699 . S
C1546 C818 1.699 . S
C1551 C858 1.699 . S
C1556 C898 1.699 . S
C1561 C1089 1.699 . S
C1566 C969 1.699 . S
C1571 C1009 1.699 . S
C1576 C1049 1.699 . S
C1581 C1258 1.699 . S
C1586 C1138 1.699 . S
C1591 C1218 1.699 . S
C1596 C1178 1.699 . S
C1601 C59 1.617 . S
C1606 C19 1.617 . S
C1611 C99 1.617 . S
C1616 C139 1.617 . S
C1621 C210 1.620 . S
C1626 C170 1.620 . S
C1631 C290 1.620 . S
C1636 C250 1.620 . S
C1641 C339 1.620 . S
C1646 C379 1.620 . S
C1651 C419 1.617 . S
C1656 C459 1.617 . S
C1661 C530 1.620 . S
C1666 C490 1.620 . S
C1671 C570 1.620 . S
C1676 C610 1.620 . S
C1681 C659 1.620 . S
C1686 C699 1.620 . S
C1691 C779 1.617 . S
C1696 C739 1.617 . S
C1701 C810 1.620 . S
C1706 C850 1.620 . S
C1711 C890 1.620 . S
C1716 C930 1.620 . S
C1721 C979 1.620 . S
C1726 C1019 1.620 . S
C1731 C1059 1.620 . S
C1736 C1099 1.620 . S
C1741 C1170 1.620 . S
C1746 C1130 1.620 . S
C1751 C1210 1.620 . S
C1756 C1250 1.620 . S
C1761 C6 1.585 . S
C1766 C15 1.585 . S
C1771 C46 1.588 . S
C1776 C55 1.588 . S
C1781 C86 1.586 . S
C1786 C95 1.586 . S
C1791 C135 1.585 . S
C1796 C126 1.585 . S
C1801 C166 1.585 . S
C1806 C175 1.585 . S
C1811 C215 1.587 . S
C1816 C206 1.587 . S
C1821 C246 1.585 . S
C1826 C255 1.585 . S
C1831 C286 1.585 . S
C1836 C295 1.585 . S
C1841 C335 1.584 1_565 S
C1846 C326 1.585 . S
C1851 C366 1.587 . S
C1856 C375 1.587 . S
C1861 C406 1.585 . S
C1866 C415 1.585 . S
C1871 C455 1.584 1_565 S
C1876 C446 1.585 . S
C1881 C486 1.587 1_545 S
C1886 C495 1.588 . S
C1891 C535 1.585 . S
C1896 C526 1.585 . S
C1901 C575 1.585 . S
C1906 C566 1.585 . S
C1911 C606 1.587 1_545 S
C1916 C615 1.588 . S
C1921 C646 1.585 . S
C1926 C655 1.585 . S
C1931 C695 1.585 . S
C1936 C686 1.585 . S
C1941 C735 1.585 . S
C1946 C726 1.585 . S
C1951 C766 1.588 . S
C1956 C775 1.588 . S
C1961 C815 1.588 . S
C1966 C806 1.588 . S
C1971 C855 1.588 . S
C1976 C846 1.588 . S
C1981 C886 1.585 . S
C1986 C895 1.585 . S
C1991 C935 1.585 . S
C1996 C926 1.585 . S
C2001 C975 1.584 1_565 S
C2006 C966 1.585 . S
C2011 C1006 1.585 . S
C2016 C1015 1.585 . S
C2021 C1055 1.588 . S
C2026 C1046 1.588 . S
C2031 C1095 1.587 1_565 S
C2036 C1086 1.588 . S
C2041 C1135 1.588 . S
C2046 C1126 1.587 1_545 S
C2051 C1175 1.588 . S
C2056 C1166 1.588 . S
C2061 C1206 1.585 . S
C2066 C1215 1.585 . S
C2071 C1246 1.584 1_545 S
C2076 C1255 1.585 . S
C2081 C18 1.475 . S
C2086 C169 1.475 . S
C2091 C1169 1.474 . S
C2096 C58 1.474 . S
C2101 C569 1.472 . S
C2106 C98 1.472 . S
C2111 C138 1.472 . S
C2116 C929 1.472 . S
C2121 C209 1.475 . S
C2126 C1018 1.475 . S
C2131 C249 1.472 . S
C2136 C418 1.472 . S
C2141 C289 1.472 . S
C2146 C778 1.472 . S
C2151 C338 1.474 . S
C2156 C489 1.474 . S
C2161 C849 1.475 . S
C2166 C378 1.475 . S
C2171 C1249 1.475 . S
C2176 C458 1.475 . S
C2181 C529 1.474 . S
C2186 C698 1.474 . S
C2191 C1098 1.473 . S
C2196 C609 1.473 . S
C2201 C658 1.472 . S
C2206 C809 1.472 . S
C2211 C1209 1.472 . S
C2216 C738 1.472 . S
C2221 C889 1.474 . S
C2226 C1058 1.474 . S
C2231 C978 1.472 . S
C2236 C1129 1.472 . S
