# Generated by pormake.
# Topology smt, (6)-cn, num edge types: 1
# Building blocks:
#     Node 0, Type 0, BuildingBlock: UKALOJ_clean_sbu_0, # of connection points: 6
#     Node 1, Type 0, BuildingBlock: UKALOJ_clean_sbu_0, # of connection points: 6
#     Node 2, Type 0, BuildingBlock: UKALOJ_clean_sbu_0, # of connection points: 6
#     Node 3, Type 0, BuildingBlock: UKALOJ_clean_sbu_0, # of connection points: 6
#     Node 4, Type 0, BuildingBlock: UKALOJ_clean_sbu_0, # of connection points: 6
#     Node 5, Type 0, BuildingBlock: UKALOJ_clean_sbu_0, # of connection points: 6
#     Edge 6, Type (0, 0), BuildingBlock: FUNLAD_clean_linker_0, # of connection points: 2
#     Edge 7, Type (0, 0), BuildingBlock: FUNLAD_clean_linker_0, # of connection points: 2
#     Edge 8, Type (0, 0), BuildingBlock: FUNLAD_clean_linker_0, # of connection points: 2
#     Edge 9, Type (0, 0), BuildingBlock: FUNLAD_clean_linker_0, # of connection points: 2
#     Edge 10, Type (0, 0), BuildingBlock: FUNLAD_clean_linker_0, # of connection points: 2
#     Edge 11, Type (0, 0), BuildingBlock: FUNLAD_clean_linker_0, # of connection points: 2
#     Edge 12, Type (0, 0), BuildingBlock: FUNLAD_clean_linker_0, # of connection points: 2
#     Edge 13, Type (0, 0), BuildingBlock: FUNLAD_clean_linker_0, # of connection points: 2
#     Edge 14, Type (0, 0), BuildingBlock: FUNLAD_clean_linker_0, # of connection points: 2
#     Edge 15, Type (0, 0), BuildingBlock: FUNLAD_clean_linker_0, # of connection points: 2
#     Edge 16, Type (0, 0), BuildingBlock: FUNLAD_clean_linker_0, # of connection points: 2
#     Edge 17, Type (0, 0), BuildingBlock: FUNLAD_clean_linker_0, # of connection points: 2
#     Edge 18, Type (0, 0), BuildingBlock: FUNLAD_clean_linker_0, # of connection points: 2
#     Edge 19, Type (0, 0), BuildingBlock: FUNLAD_clean_linker_0, # of connection points: 2
#     Edge 20, Type (0, 0), BuildingBlock: FUNLAD_clean_linker_0, # of connection points: 2
#     Edge 21, Type (0, 0), BuildingBlock: FUNLAD_clean_linker_0, # of connection points: 2
#     Edge 22, Type (0, 0), BuildingBlock: FUNLAD_clean_linker_0, # of connection points: 2
#     Edge 23, Type (0, 0), BuildingBlock: FUNLAD_clean_linker_0, # of connection points: 2
# Relax obj value: 0.349
# Max RMSD: 0.283
# Mean RMSD: 0.283
data_MOF--net-smt--node1-UKALOJ_clean_sbu_0--edge1-FUNLAD_clean_linker_0
_symmetry_space_group_name_H-M    P1
_symmetry_Int_Tables_number       1
_symmetry_cell_setting            triclinic
loop_
_symmetry_equiv_pos_as_xyz
'x, y, z'
_cell_length_a     43.580628
_cell_length_b     43.564404
_cell_length_c     28.897378
_cell_angle_alpha  89.909659
_cell_angle_beta   90.013694
_cell_angle_gamma 119.97235
loop_
_atom_site_label
_atom_site_type_symbol
_atom_site_fract_x
_atom_site_fract_y
_atom_site_fract_z
_atom_type_partial_charge
Zn0 Zn 0.48032 0.11751 0.02017 0.0
O1 O 0.45886 0.07552 0.06851 0.0
C2 C 0.40909 0.08837 0.98258 0.0
Zn3 Zn 0.45288 0.14217 0.05527 0.0
C4 C 0.44106 0.07662 0.1027 0.0
O5 O 0.43512 0.10225 0.10618 0.0
C6 C 0.49322 0.18354 0.97305 0.0
O7 O 0.49793 0.17499 0.09739 0.0
O8 O 0.52203 0.14633 0.06553 0.0
N9 N 0.42336 0.16109 0.08523 0.0
C10 C 0.42827 0.19402 0.08984 0.0
C11 C 0.37479 0.1577 0.10863 0.0
N12 N 0.39026 0.13861 0.09754 0.0
N13 N 0.39809 0.19256 0.10423 0.0
C14 C 0.50062 0.06894 0.9657 0.0
C15 C 0.55679 0.10106 0.96194 0.0
N16 N 0.50974 0.09848 0.99025 0.0
N17 N 0.54471 0.11824 0.98832 0.0
N18 N 0.52959 0.07005 0.94735 0.0
H19 H 0.4478 0.03576 0.99207 0.0
H20 H 0.46375 0.01351 0.9545 0.0
H21 H 0.45085 0.04342 0.93048 0.0
C22 C 0.46357 0.03856 0.96063 0.0
C23 C 0.46139 0.22727 0.07612 0.0
H24 H 0.48334 0.22222 0.06857 0.0
H25 H 0.4701 0.24691 0.10447 0.0
H26 H 0.45586 0.23904 0.0454 0.0
O27 O 0.47141 0.18202 0.0034 0.0
O28 O 0.50196 0.15977 0.97241 0.0
C29 C 0.52353 0.1689 0.09443 0.0
O30 O 0.43785 0.08849 0.97541 0.0
O31 O 0.40793 0.10819 0.01393 0.0
Zn32 Zn 0.36487 0.49967 0.15984 0.0
O33 O 0.39341 0.48783 0.20933 0.0
C34 C 0.32939 0.42606 0.12747 0.0
Zn35 Zn 0.31573 0.46682 0.20051 0.0
C36 C 0.37763 0.46734 0.24332 0.0
O37 O 0.34435 0.45397 0.24773 0.0
C38 C 0.30396 0.50135 0.11845 0.0
O39 O 0.32493 0.51024 0.24318 0.0
O40 O 0.37186 0.54249 0.19994 0.0
N41 N 0.26977 0.43323 0.23435 0.0
C42 C 0.24005 0.43452 0.2432 0.0
C43 C 0.22908 0.38217 0.2589 0.0
N44 N 0.26299 0.40082 0.24474 0.0
N45 N 0.21401 0.40266 0.25834 0.0
C46 C 0.43416 0.52764 0.10269 0.0
C47 C 0.44754 0.58106 0.08959 0.0
N48 N 0.41024 0.5331 0.12509 0.0
N49 N 0.41882 0.56644 0.11728 0.0
N50 N 0.45762 0.55719 0.0799 0.0
H51 H 0.42346 0.47913 0.13668 0.0
H52 H 0.46303 0.4995 0.1012 0.0
H53 H 0.42019 0.47713 0.07451 0.0
C54 C 0.4353 0.49388 0.1042 0.0
C55 C 0.23578 0.46607 0.23386 0.0
H56 H 0.26022 0.48867 0.21989 0.0
H57 H 0.22958 0.47504 0.26657 0.0
H58 H 0.21341 0.45864 0.2096 0.0
O59 O 0.28809 0.48087 0.15234 0.0
O60 O 0.33655 0.51204 0.11191 0.0
C61 C 0.3516 0.54004 0.23296 0.0
O62 O 0.3567 0.45593 0.11963 0.0
O63 O 0.30761 0.42366 0.15842 0.0
Zn64 Zn 0.87666 0.35843 0.33262 0.0
O65 O 0.92147 0.38727 0.375 0.0
C66 C 0.90846 0.31663 0.30132 0.0
Zn67 Zn 0.85774 0.31033 0.37641 0.0
C68 C 0.92408 0.37271 0.41183 0.0
O69 O 0.90077 0.34085 0.42084 0.0
C70 C 0.80952 0.29716 0.29811 0.0
O71 O 0.82546 0.32405 0.41768 0.0
O72 O 0.8485 0.37301 0.37652 0.0
N73 N 0.84472 0.26638 0.41607 0.0
C74 C 0.81393 0.23606 0.42356 0.0
C75 C 0.85518 0.22942 0.45275 0.0
N76 N 0.87021 0.26229 0.43472 0.0
N77 N 0.81985 0.21234 0.44636 0.0
C78 C 0.91593 0.42208 0.2647 0.0
C79 C 0.87782 0.43878 0.25712 0.0
N80 N 0.88879 0.40193 0.29326 0.0
N81 N 0.86529 0.41258 0.28878 0.0
N82 N 0.90951 0.44513 0.24127 0.0
H83 H 0.95458 0.41075 0.2944 0.0
H84 H 0.97207 0.44669 0.2527 0.0
H85 H 0.94631 0.40161 0.23356 0.0
C86 C 0.94927 0.42028 0.26142 0.0
C87 C 0.77898 0.22874 0.40418 0.0
H88 H 0.77818 0.25367 0.40087 0.0
H89 H 0.75653 0.21029 0.42614 0.0
H90 H 0.77534 0.21641 0.36958 0.0
O91 O 0.81513 0.28104 0.33072 0.0
O92 O 0.83119 0.3298 0.29143 0.0
C93 C 0.82901 0.35442 0.40968 0.0
O94 O 0.90577 0.34332 0.28961 0.0
O95 O 0.89099 0.29816 0.33599 0.0
Zn96 Zn 0.49936 0.86353 0.51207 0.0
O97 O 0.50476 0.8974 0.56736 0.0
C98 C 0.57501 0.90899 0.49025 0.0
Zn99 Zn 0.53178 0.84669 0.55264 0.0
C100 C 0.52312 0.90027 0.60307 0.0
O101 O 0.53873 0.88226 0.60597 0.0
C102 C 0.506 0.80848 0.46257 0.0
O103 O 0.48569 0.80709 0.58755 0.0
O104 O 0.45448 0.82259 0.54378 0.0
N105 N 0.56427 0.83184 0.58466 0.0
C106 C 0.56066 0.7994 0.58923 0.0
C107 C 0.61497 0.83714 0.60113 0.0
N108 N 0.59796 0.85525 0.5926 0.0
N109 N 0.59224 0.802 0.59871 0.0
C110 C 0.473 0.90725 0.45731 0.0
C111 C 0.42315 0.86651 0.43245 0.0
N112 N 0.46722 0.8766 0.47635 0.0
N113 N 0.43602 0.85138 0.46131 0.0
N114 N 0.44595 0.90158 0.42911 0.0
H115 H 0.51399 0.94333 0.50354 0.0
H116 H 0.4971 0.96387 0.46424 0.0
H117 H 0.52595 0.94859 0.44346 0.0
C118 C 0.50425 0.94284 0.46798 0.0
C119 C 0.52579 0.7654 0.58798 0.0
H120 H 0.50744 0.76691 0.61317 0.0
H121 H 0.52855 0.74227 0.59761 0.0
H122 H 0.5137 0.76118 0.55323 0.0
O123 O 0.52366 0.8105 0.49851 0.0
O124 O 0.4937 0.82925 0.45824 0.0
C125 C 0.45584 0.80292 0.57512 0.0
O126 O 0.54466 0.90445 0.48033 0.0
O127 O 0.57737 0.88785 0.51846 0.0
Zn128 Zn 0.62928 0.50201 0.66728 0.0
O129 O 0.60314 0.51877 0.71343 0.0
C130 C 0.67073 0.57521 0.63353 0.0
Zn131 Zn 0.67911 0.53162 0.70796 0.0
C132 C 0.6197 0.53827 0.74774 0.0
O133 O 0.6521 0.54766 0.75378 0.0
C134 C 0.6871 0.49292 0.62823 0.0
O135 O 0.66613 0.48736 0.75129 0.0
O136 O 0.61707 0.45866 0.71077 0.0
N137 N 0.72525 0.56357 0.74304 0.0
C138 C 0.75706 0.56545 0.74405 0.0
C139 C 0.76321 0.61176 0.77744 0.0
N140 N 0.72913 0.59226 0.7642 0.0
N141 N 0.78142 0.59566 0.7648 0.0
C142 C 0.56268 0.48013 0.60656 0.0
C143 C 0.54355 0.42509 0.59608 0.0
N144 N 0.5835 0.4716 0.63141 0.0
N145 N 0.57137 0.4373 0.62518 0.0
N146 N 0.53767 0.45152 0.58375 0.0
H147 H 0.57698 0.53006 0.63912 0.0
H148 H 0.53954 0.51359 0.60016 0.0
H149 H 0.58361 0.53188 0.57749 0.0
C150 C 0.56582 0.51599 0.60609 0.0
C151 C 0.76393 0.53715 0.72658 0.0
H152 H 0.73975 0.51075 0.72977 0.0
H153 H 0.78586 0.5372 0.74617 0.0
H154 H 0.7718 0.5425 0.68971 0.0
O155 O 0.70464 0.51386 0.66101 0.0
O156 O 0.65506 0.48465 0.62215 0.0
C157 C 0.63683 0.4592 0.74351 0.0
O158 O 0.64259 0.54632 0.62468 0.0
O159 O 0.69104 0.57586 0.66548 0.0
Zn160 Zn 0.11224 0.63525 0.83382 0.0
O161 O 0.06631 0.61143 0.87504 0.0
C162 C 0.08549 0.67801 0.79221 0.0
Zn163 Zn 0.13401 0.68604 0.87191 0.0
C164 C 0.06461 0.62869 0.90941 0.0
O165 O 0.08947 0.66027 0.91613 0.0
C166 C 0.18274 0.69103 0.79778 0.0
O167 O 0.16336 0.67274 0.91915 0.0
O168 O 0.13739 0.62125 0.88373 0.0
N169 N 0.14814 0.73267 0.90501 0.0
C170 C 0.17936 0.76275 0.91065 0.0
C171 C 0.1391 0.7725 0.93601 0.0
N172 N 0.12321 0.73875 0.92108 0.0
N173 N 0.17436 0.78827 0.92954 0.0
C174 C 0.07125 0.56827 0.77206 0.0
C175 C 0.10487 0.54583 0.77606 0.0
N176 N 0.09786 0.58856 0.80117 0.0
N177 N 0.11856 0.5744 0.80386 0.0
N178 N 0.07523 0.54149 0.75559 0.0
H179 H 0.03444 0.58529 0.79171 0.0
H180 H 0.01684 0.54818 0.7521 0.0
H181 H 0.0476 0.59206 0.73175 0.0
C182 C 0.04063 0.57366 0.76149 0.0
C183 C 0.21465 0.76644 0.89989 0.0
H184 H 0.2135 0.74051 0.90302 0.0
H185 H 0.23528 0.78584 0.92353 0.0
H186 H 0.22212 0.77619 0.86395 0.0
O187 O 0.17876 0.71052 0.8271 0.0
O188 O 0.1587 0.65884 0.79374 0.0
C189 C 0.15733 0.64108 0.91569 0.0
O190 O 0.08635 0.64975 0.78482 0.0
O191 O 0.10332 0.69794 0.8256 0.0
C192 C 0.34358 0.04821 0.98303 0.0
C193 C 0.37628 0.06093 0.96045 0.0
C194 C 0.31409 0.01656 0.96883 0.0
C195 C 0.31684 -0.00269 0.93159 0.0
C196 C 0.34848 0.01194 0.90621 0.0
C197 C 0.37808 0.04334 0.92073 0.0
C198 C 0.28838 0.96083 0.92063 0.0
C199 C 0.26897 0.93753 0.95406 0.0
C200 C 0.2444 0.89912 0.94601 0.0
C201 C 0.21939 0.87939 0.98037 0.0
C202 C 0.19674 0.84294 0.97519 0.0
C203 C 0.19903 0.82535 0.93589 0.0
H204 H 0.26588 0.89516 0.8796 0.0
C205 C 0.2239 0.84496 0.90141 0.0
C206 C 0.24655 0.88139 0.9065 0.0
H207 H 0.22538 0.83231 0.87001 0.0
H208 H 0.34133 0.06133 0.01358 0.0
H209 H 0.28961 0.00656 0.98807 0.0
H210 H 0.35104 -0.00212 0.87691 0.0
H211 H 0.40281 0.05289 0.90222 0.0
H212 H 0.28605 0.95234 0.88492 0.0
H213 H 0.27211 0.94659 0.98968 0.0
H214 H 0.21729 0.89223 0.01132 0.0
H215 H 0.17745 0.82836 0.00194 0.0
C216 C 0.35257 0.39559 0.07714 0.0
C217 C 0.32595 0.39354 0.10657 0.0
C218 C 0.3544 0.36528 0.06692 0.0
C219 C 0.32936 0.33234 0.08551 0.0
C220 C 0.30052 0.32958 0.11044 0.0
C221 C 0.29891 0.36 0.12121 0.0
C222 C 0.33477 0.30148 0.08316 0.0
C223 C 0.36698 0.30533 0.09087 0.0
C224 C 0.37351 0.27522 0.09521 0.0
C225 C 0.40212 0.27948 0.12234 0.0
C226 C 0.40967 0.252 0.12652 0.0
C227 C 0.38918 0.22009 0.10281 0.0
H228 H 0.33071 0.23894 0.05027 0.0
C229 C 0.36027 0.21556 0.07617 0.0
C230 C 0.3525 0.2429 0.07223 0.0
H231 H 0.34429 0.19114 0.05739 0.0
H232 H 0.37316 0.4208 0.06415 0.0
H233 H 0.37629 0.36786 0.04619 0.0
H234 H 0.28061 0.30429 0.12446 0.0
H235 H 0.27772 0.35742 0.14341 0.0
H236 H 0.31156 0.27523 0.08104 0.0
H237 H 0.38919 0.33162 0.09795 0.0
H238 H 0.41854 0.30407 0.14062 0.0
H239 H 0.43136 0.25561 0.1484 0.0
C240 C 0.95833 0.33422 0.24559 0.0
C241 C 0.93663 0.31143 0.2808 0.0
C242 C 0.99081 0.33678 0.23548 0.0
C243 C 0.00183 0.31605 0.25981 0.0
C244 C 0.97837 0.2902 0.29083 0.0
C245 C 0.94605 0.28804 0.30155 0.0
C246 C 0.03886 0.32368 0.25675 0.0
C247 C 0.06587 0.35727 0.25974 0.0
C248 C 0.10362 0.36703 0.26155 0.0
C249 C 0.12769 0.39814 0.28483 0.0
C250 C 0.1638 0.40926 0.28535 0.0
C251 C 0.17664 0.38997 0.26152 0.0
H252 H 0.09855 0.32318 0.22016 0.0
C253 C 0.15248 0.35837 0.23914 0.0
C254 C 0.11629 0.34696 0.23908 0.0
H255 H 0.1618 0.34308 0.22044 0.0
H256 H 0.95134 0.35171 0.22785 0.0
H257 H 0.00807 0.35616 0.21026 0.0
H258 H 0.98619 0.27359 0.30943 0.0
H259 H 0.92973 0.26983 0.32844 0.0
H260 H 0.04386 0.30164 0.25754 0.0
H261 H 0.05997 0.3786 0.26406 0.0
H262 H 0.1185 0.41388 0.30276 0.0
H263 H 0.18158 0.43285 0.30447 0.0
C264 C 0.76373 0.16222 0.47533 0.0
C265 C 0.79644 0.17499 0.45298 0.0
C266 C 0.74033 0.12578 0.47893 0.0
C267 C 0.74972 0.1015 0.46131 0.0
C268 C 0.78331 0.11426 0.44158 0.0
C269 C 0.80638 0.15071 0.43711 0.0
C270 C 0.7249 0.06283 0.46375 0.0
C271 C 0.69023 0.04903 0.45455 0.0
C272 C 0.66371 0.01078 0.45837 0.0
C273 C 0.63218 -0.00246 0.43303 0.0
C274 C 0.60429 0.9632 0.44069 0.0
C275 C 0.60706 0.94158 0.4746 0.0
H276 H 0.69131 -0.00228 0.51054 0.0
C277 C 0.63946 0.95394 0.49789 0.0
C278 C 0.66756 0.98827 0.48991 0.0
H279 H 0.64241 0.93795 0.52434 0.0
H280 H 0.75636 0.1804 0.49021 0.0
H281 H 0.71505 0.11658 0.49591 0.0
H282 H 0.7913 0.09603 0.42843 0.0
H283 H 0.83176 0.16003 0.42038 0.0
H284 H 0.73566 0.04555 0.47073 0.0
H285 H 0.68074 0.06662 0.44308 0.0
H286 H 0.62864 0.01423 0.40828 0.0
H287 H 0.58002 0.95418 0.42138 0.0
C288 C 0.62823 0.77591 0.62438 0.0
C289 C 0.6024 0.77536 0.59485 0.0
C290 C 0.63936 0.75103 0.61917 0.0
C291 C 0.62499 0.72534 0.58392 0.0
C292 C 0.59947 0.72514 0.55418 0.0
C293 C 0.58871 0.75021 0.55908 0.0
C294 C 0.63392 0.69681 0.57929 0.0
C295 C 0.6654 0.70052 0.5917 0.0
C296 C 0.67183 0.67009 0.59412 0.0
C297 C 0.69659 0.6714 0.62624 0.0
C298 C 0.69864 0.64108 0.63611 0.0
C299 C 0.67594 0.60885 0.61387 0.0
H300 H 0.63406 0.63739 0.54121 0.0
C301 C 0.65404 0.60858 0.57804 0.0
C302 C 0.65205 0.63894 0.56809 0.0
H303 H 0.63711 0.58446 0.55924 0.0
H304 H 0.63948 0.79541 0.65173 0.0
H305 H 0.65844 0.75144 0.64349 0.0
H306 H 0.58802 0.70567 0.52678 0.0
H307 H 0.56998 0.7502 0.53447 0.0
H308 H 0.61306 0.67157 0.56639 0.0
H309 H 0.68609 0.72592 0.60455 0.0
H310 H 0.71271 0.69525 0.64609 0.0
H311 H 0.71614 0.64235 0.6636 0.0
C312 C 0.04552 0.70358 0.79123 0.0
C313 C 0.05807 0.68317 0.76935 0.0
C314 C 0.013 0.70005 0.77843 0.0
C315 C 0.99266 0.67625 0.7433 0.0
C316 C 0.00721 0.65919 0.71782 0.0
C317 C 0.03956 0.66243 0.73091 0.0
C318 C 0.95512 0.66603 0.73547 0.0
C319 C 0.93327 0.66184 0.77103 0.0
C320 C 0.89407 0.64543 0.76738 0.0
C321 C 0.87516 0.64591 0.80655 0.0
C322 C 0.83819 0.6293 0.80585 0.0
C323 C 0.8193 0.61141 0.76614 0.0
H324 H 0.88796 0.62638 0.69629 0.0
C325 C 0.83804 0.61131 0.7267 0.0
C326 C 0.87496 0.62789 0.72729 0.0
H327 H 0.8242 0.59898 0.695 0.0
H328 H 0.05932 0.72012 0.82068 0.0
H329 H 0.00306 0.71464 0.79754 0.0
H330 H 0.99232 0.64125 0.68999 0.0
H331 H 0.04892 0.64694 0.71281 0.0
H332 H 0.94494 0.65817 0.7007 0.0
H333 H 0.94438 0.66903 0.80563 0.0
H334 H 0.88901 0.65909 0.83798 0.0
H335 H 0.82426 0.63015 0.8364 0.0
C336 C 0.43902 0.02333 0.1383 0.0
C337 C 0.42993 0.05001 0.14007 0.0
C338 C 0.43277 0.00117 0.17629 0.0
C339 C 0.41749 0.00543 0.2169 0.0
C340 C 0.40606 0.03032 0.21745 0.0
C341 C 0.41238 0.05259 0.17946 0.0
C342 C 0.41493 0.98556 0.25974 0.0
C343 C 0.44035 0.97796 0.2711 0.0
C344 C 0.44116 0.96025 0.31459 0.0
C345 C 0.47308 0.96179 0.32664 0.0
C346 C 0.47501 0.94376 0.36532 0.0
C347 C 0.4451 0.92396 0.39322 0.0
H348 H 0.38577 0.93794 0.33409 0.0
C349 C 0.41315 0.92255 0.38164 0.0
C350 C 0.41112 0.94059 0.3427 0.0
H351 H 0.38958 0.90672 0.40213 0.0
H352 H 0.45203 0.02026 0.10816 0.0
H353 H 0.44062 0.98123 0.17413 0.0
H354 H 0.39375 0.03371 0.24811 0.0
H355 H 0.40466 0.07263 0.18168 0.0
H356 H 0.39376 0.98025 0.28385 0.0
H357 H 0.46297 0.98667 0.24813 0.0
H358 H 0.49651 0.9763 0.30535 0.0
H359 H 0.49948 0.94388 0.37188 0.0
C360 C 0.38053 0.43828 0.31666 0.0
C361 C 0.39798 0.46076 0.27899 0.0
C362 C 0.39984 0.4344 0.35251 0.0
C363 C 0.43713 0.45321 0.35159 0.0
C364 C 0.45443 0.47441 0.3129 0.0
C365 C 0.43512 0.47822 0.27701 0.0
C366 C 0.45915 0.45236 0.39034 0.0
C367 C 0.44705 0.44148 0.43366 0.0
C368 C 0.47076 0.44452 0.47237 0.0
C369 C 0.50611 0.47232 0.47424 0.0
C370 C 0.52781 0.47484 0.51119 0.0
C371 C 0.51459 0.44998 0.5473 0.0
H372 H 0.43019 0.39843 0.50838 0.0
C373 C 0.47932 0.42232 0.54573 0.0
C374 C 0.45742 0.41988 0.50882 0.0
H375 H 0.4688 0.40274 0.57314 0.0
H376 H 0.35188 0.42405 0.3189 0.0
H377 H 0.38525 0.41678 0.38069 0.0
H378 H 0.48309 0.48891 0.31095 0.0
H379 H 0.44938 0.49556 0.24832 0.0
H380 H 0.48708 0.46271 0.38311 0.0
H381 H 0.41919 0.43023 0.44174 0.0
H382 H 0.51708 0.49241 0.44751 0.0
H383 H 0.5552 0.49581 0.51099 0.0
C384 C 0.04764 0.48181 0.72179 0.0
C385 C 0.05699 0.51755 0.71834 0.0
C386 C 0.032 0.45898 0.68429 0.0
C387 C 0.0264 0.47181 0.64242 0.0
C388 C 0.03558 0.50762 0.6392 0.0
C389 C 0.05086 0.53027 0.67678 0.0
C390 C 0.00946 0.44705 0.60334 0.0
C391 C 0.01644 0.45746 0.55879 0.0
C392 C -0.00373 0.4345 0.51926 0.0
C393 C 0.99502 0.45068 0.4778 0.0
C394 C 0.9729 0.43044 0.44168 0.0
C395 C 0.95169 0.39353 0.44635 0.0
H396 H 0.97845 0.3836 0.55297 0.0
C397 C 0.95485 0.37707 0.48648 0.0
C398 C 0.97704 0.3973 0.52251 0.0
H399 H 0.93934 0.34858 0.49075 0.0
H400 H 0.05249 0.47167 0.75354 0.0
H401 H 0.02477 0.4314 0.68774 0.0
H402 H 0.03069 0.5182 0.60792 0.0
H403 H 0.05869 0.55794 0.67299 0.0
H404 H 0.9903 0.41985 0.61209 0.0
H405 H 0.03608 0.48475 0.55091 0.0
H406 H 0.00998 0.47925 0.47409 0.0
H407 H 0.97128 0.4439 0.41102 0.0
C408 C 0.54363 0.92521 0.68232 0.0
C409 C 0.52431 0.92259 0.64212 0.0
C410 C 0.5423 0.94395 0.72071 0.0
C411 C 0.52166 0.96051 0.71945 0.0
C412 C 0.50285 0.95831 0.67903 0.0
C413 C 0.5043 0.93975 0.64065 0.0
C414 C 0.51743 0.97869 0.7601 0.0
C415 C 0.54173 0.99358 0.79397 0.0
C416 C 0.53739 0.01256 0.83386 0.0
C417 C 0.5581 0.01829 0.87369 0.0
C418 C 0.55518 0.03669 0.9115 0.0
C419 C 0.53124 0.04927 0.91014 0.0
H420 H 0.49888 0.02412 0.80188 0.0
C421 C 0.51096 0.04409 0.87027 0.0
C422 C 0.51409 0.02615 0.83241 0.0
H423 H 0.49357 0.05508 0.86779 0.0
H424 H 0.55912 0.91208 0.6846 0.0
H425 H 0.55646 0.94428 0.75162 0.0
H426 H 0.48668 0.97075 0.67725 0.0
H427 H 0.48905 0.9382 0.61023 0.0
H428 H 0.49326 0.98001 0.76129 0.0
H429 H 0.56578 0.99198 0.79271 0.0
H430 H 0.57664 0.00861 0.87552 0.0
H431 H 0.57154 0.04117 0.94176 0.0
C432 C 0.47084 0.53598 0.00826 0.0
C433 C 0.48206 0.56074 0.04431 0.0
C434 C 0.4937 0.54017 0.97208 0.0
C435 C 0.52821 0.56956 0.97092 0.0
C436 C 0.53961 0.59414 0.00733 0.0
C437 C 0.51649 0.59002 0.0435 0.0
C438 C 0.553 0.57393 0.93307 0.0
C439 C 0.54158 0.56317 0.88955 0.0
C440 C 0.56355 0.561 0.85175 0.0
C441 C 0.54621 0.54246 0.81143 0.0
C442 C 0.56465 0.53606 0.77688 0.0
C443 C 0.60097 0.5482 0.78184 0.0
H444 H 0.61517 0.58997 0.88526 0.0
C445 C 0.61881 0.56836 0.82097 0.0
C446 C 0.60036 0.57478 0.85556 0.0
H447 H 0.64693 0.57848 0.8255 0.0
H448 H 0.44408 0.51374 0.00755 0.0
H449 H 0.48433 0.52012 0.94536 0.0
H450 H 0.56621 0.61677 0.00742 0.0
H451 H 0.52539 0.60951 0.07093 0.0
H452 H 0.58071 0.58548 0.9421 0.0
H453 H 0.51381 0.55332 0.8817 0.0
H454 H 0.51796 0.53177 0.80726 0.0
H455 H 0.55018 0.52072 0.74693 0.0
C456 C 0.01362 0.57406 0.94275 0.0
C457 C 0.03657 0.61088 0.9446 0.0
C458 C 0.99179 0.55618 0.9803 0.0
C459 C 0.99252 0.57482 0.02037 0.0
C460 C 0.01307 0.61188 0.02059 0.0
C461 C 0.03512 0.62979 0.98316 0.0
C462 C 0.97393 0.5561 0.06324 0.0
C463 C 0.97246 0.52568 0.07622 0.0
C464 C 0.95681 0.50634 0.12016 0.0
C465 C 0.9535 0.47279 0.12572 0.0
C466 C 0.93884 0.4531 0.16589 0.0
C467 C 0.92753 0.4667 0.20181 0.0
H468 H 0.94793 0.54591 0.15418 0.0
C469 C 0.93086 0.50025 0.19665 0.0
C470 C 0.94557 0.52007 0.15637 0.0
H471 H 0.92187 0.51098 0.22383 0.0
H472 H 0.01375 0.55878 0.91329 0.0
H473 H 0.97515 0.52765 0.97844 0.0
H474 H 0.0136 0.62683 0.05082 0.0
H475 H 0.05219 0.65825 0.98538 0.0
H476 H 0.964 0.56917 0.08554 0.0
H477 H 0.98413 0.51435 0.05359 0.0
H478 H 0.96173 0.46139 0.09847 0.0
H479 H 0.93517 0.4267 0.16804 0.0
C480 C 0.50994 0.24529 0.94985 0.0
C481 C 0.50991 0.21364 0.94047 0.0
C482 C 0.52779 0.27459 0.92067 0.0
C483 C 0.54567 0.27266 0.88126 0.0
C484 C 0.54473 0.24073 0.87112 0.0
C485 C 0.5274 0.21161 0.90073 0.0
C486 C 0.56405 0.30302 0.84912 0.0
C487 C 0.58062 0.33693 0.86352 0.0
C488 C 0.59677 0.36737 0.83106 0.0
C489 C 0.62528 0.39984 0.84583 0.0
C490 C 0.63938 0.42958 0.81682 0.0
C491 C 0.62463 0.42744 0.7729 0.0
H492 H 0.55997 0.34085 0.77458 0.0
C493 C 0.59633 0.39483 0.75801 0.0
C494 C 0.58257 0.36513 0.7867 0.0
H495 H 0.58432 0.39233 0.72437 0.0
H496 H 0.49673 0.24767 0.98017 0.0
H497 H 0.52714 0.29852 0.92869 0.0
H498 H 0.55792 0.2385 0.8406 0.0
H499 H 0.52769 0.18751 0.89249 0.0
H500 H 0.56488 0.29712 0.81278 0.0
H501 H 0.58294 0.34267 0.90036 0.0
H502 H 0.63646 0.40229 0.88004 0.0
H503 H 0.66103 0.45442 0.82933 0.0
C504 C 0.20529 0.64509 0.96787 0.0
C505 C 0.17109 0.62563 0.94932 0.0
C506 C 0.21885 0.62805 -0.00464 0.0
C507 C 0.198 0.59154 0.00502 0.0
C508 C 0.16317 0.57288 0.98862 0.0
C509 C 0.14999 0.58961 0.96063 0.0
C510 C 0.21154 0.57155 0.03117 0.0
C511 C 0.24532 0.57882 0.02829 0.0
C512 C 0.25827 0.55638 0.04987 0.0
C513 C 0.29038 0.5599 0.03427 0.0
C514 C 0.30434 0.54049 0.05481 0.0
C515 C 0.28644 0.51709 0.09151 0.0
H516 H 0.21563 0.52923 0.10008 0.0
C517 C 0.25376 0.51267 0.10618 0.0
C518 C 0.23996 0.5323 0.08597 0.0
H519 H 0.23951 0.4952 0.13474 0.0
H520 H 0.22191 0.67294 0.9597 0.0
H521 H 0.24555 0.64334 0.00866 0.0
H522 H 0.14648 0.54489 -0.00396 0.0
H523 H 0.1233 0.57413 0.94721 0.0
H524 H 0.19198 0.54788 0.04899 0.0
H525 H 0.26382 0.60082 0.00677 0.0
H526 H 0.30505 0.57818 0.00654 0.0
H527 H 0.3297 0.54467 0.04284 0.0
C528 C 0.57151 0.16725 0.13777 0.0
C529 C 0.55455 0.18615 0.12503 0.0
C530 C 0.60273 0.18342 0.16319 0.0
C531 C 0.61842 0.21938 0.17553 0.0
C532 C 0.60051 0.23786 0.16459 0.0
C533 C 0.56865 0.22131 0.13969 0.0
C534 C 0.65333 0.23837 0.19935 0.0
C535 C 0.67618 0.22599 0.20135 0.0
C536 C 0.7108 0.2449 0.2251 0.0
C537 C 0.7241 0.22503 0.24658 0.0
C538 C 0.75653 0.24195 0.26972 0.0
C539 C 0.7766 0.27908 0.27085 0.0
H540 H 0.72214 0.29809 0.2079 0.0
C541 C 0.76389 0.29898 0.24788 0.0
C542 C 0.73119 0.28206 0.22538 0.0
H543 H 0.77882 0.32768 0.24817 0.0
H544 H 0.56064 0.13976 0.12782 0.0
H545 H 0.61419 0.16732 0.17271 0.0
H546 H 0.61163 0.2654 0.17431 0.0
H547 H 0.55587 0.23633 0.1304 0.0
H548 H 0.66065 0.26373 0.21518 0.0
H549 H 0.66952 0.20071 0.18614 0.0
H550 H 0.70902 0.19633 0.24622 0.0
H551 H 0.76583 0.22597 0.28679 0.0
C552 C 0.47477 0.77663 0.39074 0.0
C553 C 0.49475 0.77874 0.42997 0.0
C554 C 0.45755 0.7454 0.36517 0.0
C555 C 0.45958 0.71541 0.37872 0.0
C556 C 0.48191 0.71853 0.41565 0.0
C557 C 0.49941 0.74992 0.44102 0.0
C558 C 0.43846 0.68035 0.35612 0.0
C559 C 0.41013 0.67164 0.32908 0.0
C560 C 0.39082 0.63678 0.30639 0.0
C561 C 0.38308 0.63535 0.25915 0.0
C562 C 0.36857 0.60322 0.23559 0.0
C563 C 0.3604 0.57197 0.25939 0.0
H564 H 0.38644 0.60578 0.36742 0.0
C565 C 0.36571 0.57287 0.3073 0.0
C566 C 0.38124 0.60525 0.33069 0.0
H567 H 0.35983 0.54897 0.32603 0.0
H568 H 0.47121 0.79864 0.38081 0.0
H569 H 0.44222 0.74497 0.33554 0.0
H570 H 0.48466 0.69615 0.42619 0.0
H571 H 0.51503 0.75086 0.47068 0.0
H572 H 0.44611 0.6605 0.36285 0.0
H573 H 0.40186 0.69068 0.32077 0.0
H574 H 0.39001 0.65937 0.24 0.0
H575 H 0.36471 0.6029 0.1985 0.0
C576 C 0.78249 0.34984 0.46548 0.0
C577 C 0.8139 0.37037 0.44048 0.0
C578 C 0.76867 0.36644 0.4933 0.0
C579 C 0.7866 0.40366 0.49702 0.0
C580 C 0.81845 0.42382 0.47312 0.0
C581 C 0.83173 0.40745 0.44476 0.0
C582 C 0.77351 0.42271 0.52585 0.0
C583 C 0.73898 0.41227 0.53044 0.0
C584 C 0.72676 0.43411 0.55504 0.0
C585 C 0.69485 0.43202 0.54165 0.0
C586 C 0.68268 0.45228 0.56416 0.0
C587 C 0.7021 0.47486 0.60087 0.0
H588 H 0.77039 0.45825 0.60404 0.0
C589 C 0.73408 0.47696 0.61414 0.0
C590 C 0.74623 0.45674 0.59168 0.0
H591 H 0.74923 0.49326 0.64291 0.0
H592 H 0.76843 0.32121 0.46292 0.0
H593 H 0.74435 0.35022 0.51223 0.0
H594 H 0.83287 0.45247 0.47576 0.0
H595 H 0.85631 0.42396 0.42644 0.0
H596 H 0.7933 0.4482 0.53965 0.0
H597 H 0.71934 0.38862 0.51254 0.0
H598 H 0.67929 0.4147 0.51365 0.0
H599 H 0.65771 0.44972 0.55333 0.0
C600 C 0.42202 0.773 0.64684 0.0
C601 C 0.42281 0.77772 0.59872 0.0
C602 C 0.38953 0.75497 0.67009 0.0
C603 C 0.35753 0.74094 0.64528 0.0
C604 C 0.35855 0.74332 0.59689 0.0
C605 C 0.39087 0.76199 0.57385 0.0
C606 C 0.32271 0.72515 0.66874 0.0
C607 C 0.31785 0.73885 0.70794 0.0
C608 C 0.28244 0.72645 0.72892 0.0
C609 C 0.27734 0.74975 0.75712 0.0
C610 C 0.24457 0.73883 0.77814 0.0
C611 C 0.21629 0.70419 0.77179 0.0
H612 H 0.25702 0.67278 0.70169 0.0
C613 C 0.22131 0.68098 0.74315 0.0
C614 C 0.254 0.69189 0.72212 0.0
H615 H 0.20022 0.65395 0.73786 0.0
H616 H 0.44635 0.78501 0.66671 0.0
H617 H 0.38946 0.75271 0.70742 0.0
H618 H 0.33424 0.73237 0.57704 0.0
H619 H 0.39087 0.76519 0.53665 0.0
H620 H 0.30005 0.70465 0.65026 0.0
H621 H 0.34032 0.76182 0.72342 0.0
H622 H 0.29881 0.77651 0.763 0.0
H623 H 0.24169 0.75736 0.79998 0.0
loop_
_geom_bond_atom_site_label_1
_geom_bond_atom_site_label_2
_geom_bond_distance
_geom_bond_site_symmetry_2
_ccdc_geom_bond_type
Zn0 O1 2.055 1_556 S
Zn0 O8 2.046 1_556 S
Zn0 N16 2.036 . S
Zn0 O28 2.053 . S
Zn0 O30 2.066 . S
O1 Zn0 2.055 1_554 S
O1 C4 1.259 . S
C2 O30 1.256 . S
C2 O31 1.244 1_556 S
Zn3 O5 2.046 . S
Zn3 O7 2.055 . S
Zn3 N9 2.036 . S
Zn3 O27 2.054 1_554 S
Zn3 O31 2.053 . S
C4 O1 1.259 . S
C4 O5 1.254 . S
O5 Zn3 2.046 . S
O5 C4 1.254 . S
C6 O27 1.269 . S
C6 O28 1.244 . S
O7 Zn3 2.055 . S
O7 C29 1.259 . S
O8 Zn0 2.046 1_554 S
O8 C29 1.254 . S
N9 Zn3 2.036 . S
N9 C10 1.298 . S
N9 N12 1.398 . S
C10 N9 1.298 . S
C10 N13 1.367 . S
C10 C23 1.481 . S
C11 N12 1.299 . S
C11 N13 1.379 . S
N12 N9 1.398 . S
N12 C11 1.299 . S
N13 C10 1.367 . S
N13 C11 1.379 . S
C14 N16 1.298 . S
C14 N18 1.367 . S
C14 C22 1.481 . S
C15 N17 1.299 . S
C15 N18 1.379 . S
N16 Zn0 2.036 . S
N16 C14 1.298 . S
N16 N17 1.398 . S
N17 C15 1.299 . S
N17 N16 1.398 . S
N18 C14 1.367 . S
N18 C15 1.379 . S
H19 C22 0.980 1_554 S
H20 C22 0.981 . S
H21 C22 0.981 . S
C22 C14 1.481 . S
C22 H19 0.980 1_556 S
C22 H20 0.981 . S
C22 H21 0.981 . S
C23 C10 1.481 . S
C23 H24 0.980 . S
C23 H25 0.981 . S
C23 H26 0.981 . S
H24 C23 0.980 . S
H25 C23 0.981 . S
H26 C23 0.981 . S
O27 Zn3 2.054 1_556 S
O27 C6 1.269 . S
O28 Zn0 2.053 . S
O28 C6 1.244 . S
C29 O7 1.259 . S
C29 O8 1.254 . S
O30 Zn0 2.066 . S
O30 C2 1.256 . S
O31 C2 1.244 1_554 S
O31 Zn3 2.053 . S
Zn32 O33 2.055 . S
Zn32 O40 2.046 . S
Zn32 N48 2.036 . S
Zn32 O60 2.053 . S
Zn32 O62 2.066 . S
O33 Zn32 2.055 . S
O33 C36 1.259 . S
C34 O62 1.256 . S
C34 O63 1.244 . S
Zn35 O37 2.046 . S
Zn35 O39 2.055 . S
Zn35 N41 2.036 . S
Zn35 O59 2.066 . S
Zn35 O63 2.053 . S
C36 O33 1.259 . S
C36 O37 1.254 . S
O37 Zn35 2.046 . S
O37 C36 1.254 . S
C38 O59 1.256 . S
C38 O60 1.244 . S
O39 Zn35 2.055 . S
O39 C61 1.259 . S
O40 Zn32 2.046 . S
O40 C61 1.254 . S
N41 Zn35 2.036 . S
N41 C42 1.298 . S
N41 N44 1.398 . S
C42 N41 1.298 . S
C42 N45 1.367 . S
C42 C55 1.481 . S
C43 N44 1.299 . S
C43 N45 1.379 . S
N44 N41 1.398 . S
N44 C43 1.299 . S
N45 C42 1.367 . S
N45 C43 1.379 . S
C46 N48 1.298 . S
C46 N50 1.367 . S
C46 C54 1.481 . S
C47 N49 1.299 . S
C47 N50 1.379 . S
N48 Zn32 2.036 . S
N48 C46 1.298 . S
N48 N49 1.398 . S
N49 C47 1.299 . S
N49 N48 1.398 . S
N50 C46 1.367 . S
N50 C47 1.379 . S
H51 C54 0.980 . S
H52 C54 0.981 . S
H53 C54 0.981 . S
C54 C46 1.481 . S
C54 H51 0.980 . S
C54 H52 0.981 . S
C54 H53 0.981 . S
C55 C42 1.481 . S
C55 H56 0.980 . S
C55 H57 0.981 . S
C55 H58 0.981 . S
H56 C55 0.980 . S
H57 C55 0.981 . S
H58 C55 0.981 . S
O59 Zn35 2.066 . S
O59 C38 1.256 . S
O60 Zn32 2.053 . S
O60 C38 1.244 . S
C61 O39 1.259 . S
C61 O40 1.254 . S
O62 Zn32 2.066 . S
O62 C34 1.256 . S
O63 C34 1.244 . S
O63 Zn35 2.053 . S
Zn64 O65 2.055 . S
Zn64 O72 2.046 . S
Zn64 N80 2.036 . S
Zn64 O92 2.053 . S
Zn64 O94 2.066 . S
O65 Zn64 2.055 . S
O65 C68 1.259 . S
C66 O94 1.256 . S
C66 O95 1.244 . S
Zn67 O69 2.046 . S
Zn67 O71 2.055 . S
Zn67 N73 2.036 . S
Zn67 O91 2.066 . S
Zn67 O95 2.053 . S
C68 O65 1.259 . S
C68 O69 1.254 . S
O69 Zn67 2.046 . S
O69 C68 1.254 . S
C70 O91 1.256 . S
C70 O92 1.244 . S
O71 Zn67 2.055 . S
O71 C93 1.259 . S
O72 Zn64 2.046 . S
O72 C93 1.254 . S
N73 Zn67 2.036 . S
N73 C74 1.298 . S
N73 N76 1.398 . S
C74 N73 1.298 . S
C74 N77 1.367 . S
C74 C87 1.481 . S
C75 N76 1.299 . S
C75 N77 1.379 . S
N76 N73 1.398 . S
N76 C75 1.299 . S
N77 C74 1.367 . S
N77 C75 1.379 . S
C78 N80 1.298 . S
C78 N82 1.367 . S
C78 C86 1.481 . S
C79 N81 1.299 . S
C79 N82 1.379 . S
N80 Zn64 2.036 . S
N80 C78 1.298 . S
N80 N81 1.398 . S
N81 C79 1.299 . S
N81 N80 1.398 . S
N82 C78 1.367 . S
N82 C79 1.379 . S
H83 C86 0.980 . S
H84 C86 0.981 . S
H85 C86 0.981 . S
C86 C78 1.481 . S
C86 H83 0.980 . S
C86 H84 0.981 . S
C86 H85 0.981 . S
C87 C74 1.481 . S
C87 H88 0.980 . S
C87 H89 0.981 . S
C87 H90 0.981 . S
H88 C87 0.980 . S
H89 C87 0.981 . S
H90 C87 0.981 . S
O91 Zn67 2.066 . S
O91 C70 1.256 . S
O92 Zn64 2.053 . S
O92 C70 1.244 . S
C93 O71 1.259 . S
C93 O72 1.254 . S
O94 Zn64 2.066 . S
O94 C66 1.256 . S
O95 C66 1.244 . S
O95 Zn67 2.053 . S
Zn96 O97 2.055 . S
Zn96 O104 2.046 . S
Zn96 N112 2.036 . S
Zn96 O124 2.053 . S
Zn96 O126 2.066 . S
O97 Zn96 2.055 . S
O97 C100 1.259 . S
C98 O126 1.256 . S
C98 O127 1.244 . S
Zn99 O101 2.046 . S
Zn99 O103 2.055 . S
Zn99 N105 2.036 . S
Zn99 O123 2.066 . S
Zn99 O127 2.053 . S
C100 O97 1.259 . S
C100 O101 1.254 . S
O101 Zn99 2.046 . S
O101 C100 1.254 . S
C102 O123 1.256 . S
C102 O124 1.244 . S
O103 Zn99 2.055 . S
O103 C125 1.259 . S
O104 Zn96 2.046 . S
O104 C125 1.254 . S
N105 Zn99 2.036 . S
N105 C106 1.298 . S
N105 N108 1.398 . S
C106 N105 1.298 . S
C106 N109 1.367 . S
C106 C119 1.481 . S
C107 N108 1.299 . S
C107 N109 1.379 . S
N108 N105 1.398 . S
N108 C107 1.299 . S
N109 C106 1.367 . S
N109 C107 1.379 . S
C110 N112 1.298 . S
C110 N114 1.367 . S
C110 C118 1.481 . S
C111 N113 1.299 . S
C111 N114 1.379 . S
N112 Zn96 2.036 . S
N112 C110 1.298 . S
N112 N113 1.398 . S
N113 C111 1.299 . S
N113 N112 1.398 . S
N114 C110 1.367 . S
N114 C111 1.379 . S
H115 C118 0.980 . S
H116 C118 0.981 . S
H117 C118 0.981 . S
C118 C110 1.481 . S
C118 H115 0.980 . S
C118 H116 0.981 . S
C118 H117 0.981 . S
C119 C106 1.481 . S
C119 H120 0.980 . S
C119 H121 0.981 . S
C119 H122 0.981 . S
H120 C119 0.980 . S
H121 C119 0.981 . S
H122 C119 0.981 . S
O123 Zn99 2.066 . S
O123 C102 1.256 . S
O124 Zn96 2.053 . S
O124 C102 1.244 . S
C125 O103 1.259 . S
C125 O104 1.254 . S
O126 Zn96 2.066 . S
O126 C98 1.256 . S
O127 C98 1.244 . S
O127 Zn99 2.053 . S
Zn128 O129 2.055 . S
Zn128 O136 2.046 . S
Zn128 N144 2.036 . S
Zn128 O156 2.053 . S
Zn128 O158 2.066 . S
O129 Zn128 2.055 . S
O129 C132 1.259 . S
C130 O158 1.256 . S
C130 O159 1.244 . S
Zn131 O133 2.046 . S
Zn131 O135 2.055 . S
Zn131 N137 2.036 . S
Zn131 O155 2.066 . S
Zn131 O159 2.053 . S
C132 O129 1.259 . S
C132 O133 1.254 . S
O133 Zn131 2.046 . S
O133 C132 1.254 . S
C134 O155 1.256 . S
C134 O156 1.244 . S
O135 Zn131 2.055 . S
O135 C157 1.259 . S
O136 Zn128 2.046 . S
O136 C157 1.254 . S
N137 Zn131 2.036 . S
N137 C138 1.298 . S
N137 N140 1.398 . S
C138 N137 1.298 . S
C138 N141 1.367 . S
C138 C151 1.481 . S
C139 N140 1.299 . S
C139 N141 1.379 . S
N140 N137 1.398 . S
N140 C139 1.299 . S
N141 C138 1.367 . S
N141 C139 1.379 . S
C142 N144 1.298 . S
C142 N146 1.367 . S
C142 C150 1.481 . S
C143 N145 1.299 . S
C143 N146 1.379 . S
N144 Zn128 2.036 . S
N144 C142 1.298 . S
N144 N145 1.398 . S
N145 C143 1.299 . S
N145 N144 1.398 . S
N146 C142 1.367 . S
N146 C143 1.379 . S
H147 C150 0.980 . S
H148 C150 0.981 . S
H149 C150 0.981 . S
C150 C142 1.481 . S
C150 H147 0.980 . S
C150 H148 0.981 . S
C150 H149 0.981 . S
C151 C138 1.481 . S
C151 H152 0.980 . S
C151 H153 0.981 . S
C151 H154 0.981 . S
H152 C151 0.980 . S
H153 C151 0.981 . S
H154 C151 0.981 . S
O155 Zn131 2.066 . S
O155 C134 1.256 . S
O156 Zn128 2.053 . S
O156 C134 1.244 . S
C157 O135 1.259 . S
C157 O136 1.254 . S
O158 Zn128 2.066 . S
O158 C130 1.256 . S
O159 C130 1.244 . S
O159 Zn131 2.053 . S
Zn160 O161 2.055 . S
Zn160 O168 2.046 . S
Zn160 N176 2.036 . S
Zn160 O188 2.053 . S
Zn160 O190 2.066 . S
O161 Zn160 2.055 . S
O161 C164 1.259 . S
C162 O190 1.256 . S
C162 O191 1.244 . S
Zn163 O165 2.046 . S
Zn163 O167 2.055 . S
Zn163 N169 2.036 . S
Zn163 O187 2.066 . S
Zn163 O191 2.053 . S
C164 O161 1.259 . S
C164 O165 1.254 . S
O165 Zn163 2.046 . S
O165 C164 1.254 . S
C166 O187 1.256 . S
C166 O188 1.244 . S
O167 Zn163 2.055 . S
O167 C189 1.259 . S
O168 Zn160 2.046 . S
O168 C189 1.254 . S
N169 Zn163 2.036 . S
N169 C170 1.298 . S
N169 N172 1.398 . S
C170 N169 1.298 . S
C170 N173 1.367 . S
C170 C183 1.481 . S
C171 N172 1.299 . S
C171 N173 1.379 . S
N172 N169 1.398 . S
N172 C171 1.299 . S
N173 C170 1.367 . S
N173 C171 1.379 . S
C174 N176 1.298 . S
C174 N178 1.367 . S
C174 C182 1.481 . S
C175 N177 1.299 . S
C175 N178 1.379 . S
N176 Zn160 2.036 . S
N176 C174 1.298 . S
N176 N177 1.398 . S
N177 C175 1.299 . S
N177 N176 1.398 . S
N178 C174 1.367 . S
N178 C175 1.379 . S
H179 C182 0.980 . S
H180 C182 0.981 . S
H181 C182 0.981 . S
C182 C174 1.481 . S
C182 H179 0.980 . S
C182 H180 0.981 . S
C182 H181 0.981 . S
C183 C170 1.481 . S
C183 H184 0.980 . S
C183 H185 0.981 . S
C183 H186 0.981 . S
H184 C183 0.980 . S
H185 C183 0.981 . S
H186 C183 0.981 . S
O187 Zn163 2.066 . S
O187 C166 1.256 . S
O188 Zn160 2.053 . S
O188 C166 1.244 . S
C189 O167 1.259 . S
C189 O168 1.254 . S
O190 Zn160 2.066 . S
O190 C162 1.256 . S
O191 C162 1.244 . S
O191 Zn163 2.053 . S
C192 C193 1.386 1_554 S
C192 C194 1.383 . S
C192 H208 0.951 . S
C193 C192 1.386 1_556 S
C193 C197 1.383 . S
C194 C192 1.383 . S
C194 C195 1.402 1_544 S
C194 H209 0.951 1_545 S
C195 C194 1.402 1_566 S
C195 C196 1.375 1_565 S
C195 C198 1.481 . S
C196 C195 1.375 1_545 S
C196 C197 1.367 . S
C196 H210 0.951 . S
C197 C193 1.383 . S
C197 C196 1.367 . S
C197 H211 0.950 . S
C198 C195 1.481 . S
C198 C199 1.297 . S
C198 H212 0.950 . S
C199 C198 1.297 . S
C199 C200 1.479 . S
C199 H213 0.951 1_556 S
C200 C199 1.479 . S
C200 C201 1.375 1_556 S
C200 C206 1.404 . S
C201 C200 1.375 1_554 S
C201 C202 1.369 1_554 S
C201 H214 0.950 . S
C202 C201 1.369 1_556 S
C202 C203 1.392 . S
C202 H215 0.951 1_556 S
C203 C202 1.392 . S
C203 C205 1.384 . S
H204 C206 0.949 . S
C205 C203 1.384 . S
C205 C206 1.385 . S
C205 H207 0.950 . S
C206 C200 1.404 . S
C206 H204 0.949 . S
C206 C205 1.385 . S
H207 C205 0.950 . S
H208 C192 0.951 . S
H209 C194 0.951 1_565 S
H210 C196 0.951 . S
H211 C197 0.950 . S
H212 C198 0.950 . S
H213 C199 0.951 1_554 S
H214 C201 0.950 . S
H215 C202 0.951 1_554 S
C216 C217 1.386 . S
C216 C218 1.383 . S
C216 H232 0.951 . S
C217 C216 1.386 . S
C217 C221 1.383 . S
C218 C216 1.383 . S
C218 C219 1.402 . S
C218 H233 0.951 . S
C219 C218 1.402 . S
C219 C220 1.375 . S
C219 C222 1.481 . S
C220 C219 1.375 . S
C220 C221 1.367 . S
C220 H234 0.951 . S
C221 C217 1.383 . S
C221 C220 1.367 . S
C221 H235 0.950 . S
C222 C219 1.481 . S
C222 C223 1.297 . S
C222 H236 0.950 . S
C223 C222 1.297 . S
C223 C224 1.479 . S
C223 H237 0.950 . S
C224 C223 1.479 . S
C224 C225 1.375 . S
C224 C230 1.404 . S
C225 C224 1.375 . S
C225 C226 1.369 . S
C225 H238 0.950 . S
C226 C225 1.369 . S
C226 C227 1.392 . S
C226 H239 0.951 . S
C227 C226 1.392 . S
C227 C229 1.384 . S
H228 C230 0.949 . S
C229 C227 1.384 . S
C229 C230 1.385 . S
C229 H231 0.950 . S
C230 C224 1.404 . S
C230 H228 0.949 . S
C230 C229 1.385 . S
H231 C229 0.950 . S
H232 C216 0.951 . S
H233 C218 0.951 . S
H234 C220 0.951 . S
H235 C221 0.950 . S
H236 C222 0.950 . S
H237 C223 0.950 . S
H238 C225 0.950 . S
H239 C226 0.951 . S
C240 C241 1.386 . S
C240 C242 1.383 1_655 S
C240 H256 0.951 . S
C241 C240 1.386 . S
C241 C245 1.383 . S
C242 C240 1.383 1_455 S
C242 C243 1.402 . S
C242 H257 0.951 . S
C243 C242 1.402 . S
C243 C244 1.375 1_455 S
C243 C246 1.481 . S
C244 C243 1.375 1_655 S
C244 C245 1.367 . S
C244 H258 0.951 . S
C245 C241 1.383 . S
C245 C244 1.367 . S
C245 H259 0.950 . S
C246 C243 1.481 . S
C246 C247 1.297 . S
C246 H260 0.950 . S
C247 C246 1.297 . S
C247 C248 1.479 . S
C247 H261 0.950 . S
C248 C247 1.479 . S
C248 C249 1.375 . S
C248 C254 1.404 . S
C249 C248 1.375 . S
C249 C250 1.369 . S
C249 H262 0.950 . S
C250 C249 1.369 . S
C250 C251 1.392 . S
C250 H263 0.951 . S
C251 C250 1.392 . S
C251 C253 1.384 . S
H252 C254 0.949 . S
C253 C251 1.384 . S
C253 C254 1.385 . S
C253 H255 0.950 . S
C254 C248 1.404 . S
C254 H252 0.949 . S
C254 C253 1.385 . S
H255 C253 0.950 . S
H256 C240 0.951 . S
H257 C242 0.951 . S
H258 C244 0.951 . S
H259 C245 0.950 . S
H260 C246 0.950 . S
H261 C247 0.950 . S
H262 C249 0.950 . S
H263 C250 0.951 . S
C264 C265 1.386 . S
C264 C266 1.383 . S
C264 H280 0.951 . S
C265 C264 1.386 . S
C265 C269 1.383 . S
C266 C264 1.383 . S
C266 C267 1.402 . S
C266 H281 0.951 . S
C267 C266 1.402 . S
C267 C268 1.375 . S
C267 C270 1.481 . S
C268 C267 1.375 . S
C268 C269 1.367 . S
C268 H282 0.951 . S
C269 C265 1.383 . S
C269 C268 1.367 . S
C269 H283 0.950 . S
C270 C267 1.481 . S
C270 C271 1.297 . S
C270 H284 0.950 . S
C271 C270 1.297 . S
C271 C272 1.479 . S
C271 H285 0.950 . S
C272 C271 1.479 . S
C272 C273 1.378 1_545 S
C272 C278 1.404 1_545 S
C273 C272 1.378 1_565 S
C273 C274 1.387 . S
C273 H286 0.929 1_565 S
C274 C273 1.387 . S
C274 C275 1.392 . S
C274 H287 0.951 . S
C275 C274 1.392 . S
C275 C277 1.384 . S
H276 C278 0.949 . S
C277 C275 1.384 . S
C277 C278 1.385 . S
C277 H279 0.950 . S
C278 C272 1.404 1_565 S
C278 H276 0.949 . S
C278 C277 1.385 . S
H279 C277 0.950 . S
H280 C264 0.951 . S
H281 C266 0.951 . S
H282 C268 0.951 . S
H283 C269 0.950 . S
H284 C270 0.950 . S
H285 C271 0.950 . S
H286 C273 0.929 1_545 S
H287 C274 0.951 . S
C288 C289 1.386 . S
C288 C290 1.383 . S
C288 H304 0.951 . S
C289 C288 1.386 . S
C289 C293 1.383 . S
C290 C288 1.383 . S
C290 C291 1.402 . S
C290 H305 0.951 . S
C291 C290 1.402 . S
C291 C292 1.375 . S
C291 C294 1.481 . S
C292 C291 1.375 . S
C292 C293 1.367 . S
C292 H306 0.951 . S
C293 C289 1.383 . S
C293 C292 1.367 . S
C293 H307 0.950 . S
C294 C291 1.481 . S
C294 C295 1.297 . S
C294 H308 0.950 . S
C295 C294 1.297 . S
C295 C296 1.479 . S
C295 H309 0.950 . S
C296 C295 1.479 . S
C296 C297 1.375 . S
C296 C302 1.404 . S
C297 C296 1.375 . S
C297 C298 1.369 . S
C297 H310 0.950 . S
C298 C297 1.369 . S
C298 C299 1.392 . S
C298 H311 0.951 . S
C299 C298 1.392 . S
C299 C301 1.384 . S
H300 C302 0.949 . S
C301 C299 1.384 . S
C301 C302 1.385 . S
C301 H303 0.950 . S
C302 C296 1.404 . S
C302 H300 0.949 . S
C302 C301 1.385 . S
H303 C301 0.950 . S
H304 C288 0.951 . S
H305 C290 0.951 . S
H306 C292 0.951 . S
H307 C293 0.950 . S
H308 C294 0.950 . S
H309 C295 0.950 . S
H310 C297 0.950 . S
H311 C298 0.951 . S
C312 C313 1.386 . S
C312 C314 1.383 . S
C312 H328 0.951 . S
C313 C312 1.386 . S
C313 C317 1.383 . S
C314 C312 1.383 . S
C314 C315 1.402 1_455 S
C314 H329 0.951 1_455 S
C315 C314 1.402 1_655 S
C315 C316 1.375 1_655 S
C315 C318 1.481 . S
C316 C315 1.375 1_455 S
C316 C317 1.367 . S
C316 H330 0.951 1_455 S
C317 C313 1.383 . S
C317 C316 1.367 . S
C317 H331 0.950 . S
C318 C315 1.481 . S
C318 C319 1.297 . S
C318 H332 0.950 . S
C319 C318 1.297 . S
C319 C320 1.479 . S
C319 H333 0.950 . S
C320 C319 1.479 . S
C320 C321 1.375 . S
C320 C326 1.404 . S
C321 C320 1.375 . S
C321 C322 1.369 . S
C321 H334 0.950 . S
C322 C321 1.369 . S
C322 C323 1.392 . S
C322 H335 0.951 . S
C323 C322 1.392 . S
C323 C325 1.384 . S
H324 C326 0.949 . S
C325 C323 1.384 . S
C325 C326 1.385 . S
C325 H327 0.950 . S
C326 C320 1.404 . S
C326 H324 0.949 . S
C326 C325 1.385 . S
H327 C325 0.950 . S
H328 C312 0.951 . S
H329 C314 0.951 1_655 S
H330 C316 0.951 1_655 S
H331 C317 0.950 . S
H332 C318 0.950 . S
H333 C319 0.950 . S
H334 C321 0.950 . S
H335 C322 0.951 . S
C336 C337 1.386 . S
C336 C338 1.383 . S
C336 H352 0.951 . S
C337 C336 1.386 . S
C337 C341 1.383 . S
C338 C336 1.383 . S
C338 C339 1.402 . S
C338 H353 0.951 . S
C339 C338 1.402 . S
C339 C340 1.375 . S
C339 C342 1.481 . S
C340 C339 1.375 . S
C340 C341 1.367 . S
C340 H354 0.951 . S
C341 C337 1.383 . S
C341 C340 1.367 . S
C341 H355 0.950 . S
C342 C339 1.481 . S
C342 C343 1.297 . S
C342 H356 0.950 . S
C343 C342 1.297 . S
C343 C344 1.460 1_545 S
C343 H357 0.950 . S
C344 C343 1.460 1_565 S
C344 C345 1.411 . S
C344 C350 1.382 1_565 S
C345 C344 1.411 . S
C345 C346 1.369 . S
C345 H358 0.950 . S
C346 C345 1.369 . S
C346 C347 1.392 . S
C346 H359 0.951 . S
C347 C346 1.392 . S
C347 C349 1.384 . S
H348 C350 0.977 . S
C349 C347 1.384 . S
C349 C350 1.367 1_565 S
C349 H351 0.950 . S
C350 C344 1.382 1_545 S
C350 H348 0.977 . S
C350 C349 1.367 1_545 S
H351 C349 0.950 . S
H352 C336 0.951 . S
H353 C338 0.951 . S
H354 C340 0.951 . S
H355 C341 0.950 . S
H356 C342 0.950 . S
H357 C343 0.950 . S
H358 C345 0.950 . S
H359 C346 0.951 . S
C360 C361 1.386 . S
C360 C362 1.383 . S
C360 H376 0.951 . S
C361 C360 1.386 . S
C361 C365 1.383 . S
C362 C360 1.383 . S
C362 C363 1.402 . S
C362 H377 0.951 . S
C363 C362 1.402 . S
C363 C364 1.375 . S
C363 C366 1.481 . S
C364 C363 1.375 . S
C364 C365 1.367 . S
C364 H378 0.951 . S
C365 C361 1.383 . S
C365 C364 1.367 . S
C365 H379 0.950 . S
C366 C363 1.481 . S
C366 C367 1.297 . S
C366 H380 0.950 . S
C367 C366 1.297 . S
C367 C368 1.479 . S
C367 H381 0.950 . S
C368 C367 1.479 . S
C368 C369 1.375 . S
C368 C374 1.404 . S
C369 C368 1.375 . S
C369 C370 1.369 . S
C369 H382 0.950 . S
C370 C369 1.369 . S
C370 C371 1.392 . S
C370 H383 0.951 . S
C371 C370 1.392 . S
C371 C373 1.384 . S
H372 C374 0.949 . S
C373 C371 1.384 . S
C373 C374 1.385 . S
C373 H375 0.950 . S
C374 C368 1.404 . S
C374 H372 0.949 . S
C374 C373 1.385 . S
H375 C373 0.950 . S
H376 C360 0.951 . S
H377 C362 0.951 . S
H378 C364 0.951 . S
H379 C365 0.950 . S
H380 C366 0.950 . S
H381 C367 0.950 . S
H382 C369 0.950 . S
H383 C370 0.951 . S
C384 C385 1.386 . S
C384 C386 1.383 . S
C384 H400 0.951 . S
C385 C384 1.386 . S
C385 C389 1.383 . S
C386 C384 1.383 . S
C386 C387 1.402 . S
C386 H401 0.951 . S
C387 C386 1.402 . S
C387 C388 1.375 1_455 S
C387 C390 1.481 1_455 S
C388 C387 1.375 1_655 S
C388 C389 1.367 1_655 S
C388 H402 0.951 . S
C389 C385 1.383 . S
C389 C388 1.367 1_455 S
C389 H403 0.950 1_455 S
C390 C387 1.481 1_655 S
C390 C391 1.297 . S
C390 H404 0.950 . S
C391 C390 1.297 . S
C391 C392 1.479 . S
C391 H405 0.950 1_655 S
C392 C391 1.479 . S
C392 C393 1.375 . S
C392 C398 1.404 . S
C393 C392 1.375 . S
C393 C394 1.369 . S
C393 H406 0.950 1_655 S
C394 C393 1.369 . S
C394 C395 1.392 . S
C394 H407 0.951 . S
C395 C394 1.392 . S
C395 C397 1.384 . S
H396 C398 0.949 . S
C397 C395 1.384 . S
C397 C398 1.385 . S
C397 H399 0.950 . S
C398 C392 1.404 . S
C398 H396 0.949 . S
C398 C397 1.385 . S
H399 C397 0.950 . S
H400 C384 0.951 . S
H401 C386 0.951 . S
H402 C388 0.951 . S
H403 C389 0.950 1_655 S
H404 C390 0.950 . S
H405 C391 0.950 1_455 S
H406 C393 0.950 1_455 S
H407 C394 0.951 . S
C408 C409 1.386 . S
C408 C410 1.383 . S
C408 H424 0.951 . S
C409 C408 1.386 . S
C409 C413 1.383 . S
C410 C408 1.383 . S
C410 C411 1.402 . S
C410 H425 0.951 1_565 S
C411 C410 1.402 . S
C411 C412 1.375 . S
C411 C414 1.481 . S
C412 C411 1.375 . S
C412 C413 1.367 . S
C412 H426 0.951 . S
C413 C409 1.383 . S
C413 C412 1.367 . S
C413 H427 0.950 . S
C414 C411 1.481 . S
C414 C415 1.297 1_565 S
C414 H428 0.950 . S
C415 C414 1.297 1_545 S
C415 C416 1.479 . S
C415 H429 0.950 . S
C416 C415 1.479 . S
C416 C417 1.375 . S
C416 C422 1.404 . S
C417 C416 1.375 . S
C417 C418 1.369 . S
C417 H430 0.950 . S
C418 C417 1.369 . S
C418 C419 1.392 . S
C418 H431 0.951 . S
C419 C418 1.392 . S
C419 C421 1.384 . S
H420 C422 0.949 1_565 S
C421 C419 1.384 . S
C421 C422 1.385 . S
C421 H423 0.950 . S
C422 C416 1.404 . S
C422 H420 0.949 1_545 S
C422 C421 1.385 . S
H423 C421 0.950 . S
H424 C408 0.951 . S
H425 C410 0.951 1_545 S
H426 C412 0.951 . S
H427 C413 0.950 . S
H428 C414 0.950 . S
H429 C415 0.950 . S
H430 C417 0.950 . S
H431 C418 0.951 . S
C432 C433 1.386 . S
C432 C434 1.383 1_554 S
C432 H448 0.951 . S
C433 C432 1.386 . S
C433 C437 1.383 . S
C434 C432 1.383 1_556 S
C434 C435 1.402 . S
C434 H449 0.951 . S
C435 C434 1.402 . S
C435 C436 1.375 . S
C435 C438 1.481 . S
C436 C435 1.375 . S
C436 C437 1.367 1_556 S
C436 H450 0.951 . S
C437 C433 1.383 . S
C437 C436 1.367 1_554 S
C437 H451 0.950 . S
C438 C435 1.481 . S
C438 C439 1.297 . S
C438 H452 0.950 . S
C439 C438 1.297 . S
C439 C440 1.479 . S
C439 H453 0.950 . S
C440 C439 1.479 . S
C440 C441 1.375 . S
C440 C446 1.404 . S
C441 C440 1.375 . S
C441 C442 1.369 . S
C441 H454 0.950 . S
C442 C441 1.369 . S
C442 C443 1.392 . S
C442 H455 0.951 . S
C443 C442 1.392 . S
C443 C445 1.384 . S
H444 C446 0.949 . S
C445 C443 1.384 . S
C445 C446 1.385 . S
C445 H447 0.950 . S
C446 C440 1.404 . S
C446 H444 0.949 . S
C446 C445 1.385 . S
H447 C445 0.950 . S
H448 C432 0.951 . S
H449 C434 0.951 . S
H450 C436 0.951 . S
H451 C437 0.950 . S
H452 C438 0.950 . S
H453 C439 0.950 . S
H454 C441 0.950 . S
H455 C442 0.951 . S
C456 C457 1.386 . S
C456 C458 1.383 1_556 S
C456 H472 0.951 . S
C457 C456 1.386 . S
C457 C461 1.383 . S
C458 C456 1.383 1_554 S
C458 C459 1.402 . S
C458 H473 0.951 . S
C459 C458 1.402 . S
C459 C460 1.375 1_554 S
C459 C462 1.481 . S
C460 C459 1.375 1_556 S
C460 C461 1.367 . S
C460 H474 0.923 1_456 S
C461 C457 1.383 . S
C461 C460 1.367 . S
C461 H475 0.950 . S
C462 C459 1.481 . S
C462 C463 1.297 . S
C462 H476 0.950 1_455 S
C463 C462 1.297 . S
C463 C464 1.479 1_455 S
C463 H477 0.950 . S
C464 C463 1.479 1_655 S
C464 C465 1.375 1_655 S
C464 C470 1.404 . S
C465 C464 1.375 1_455 S
C465 C466 1.369 1_455 S
C465 H478 0.950 . S
C466 C465 1.369 1_655 S
C466 C467 1.392 . S
C466 H479 0.951 . S
C467 C466 1.392 . S
C467 C469 1.384 . S
H468 C470 0.949 . S
C469 C467 1.384 . S
C469 C470 1.385 . S
C469 H471 0.950 . S
C470 C464 1.404 . S
C470 H468 0.949 . S
C470 C469 1.385 . S
H471 C469 0.950 . S
H472 C456 0.951 . S
H473 C458 0.951 . S
H474 C460 0.923 1_654 S
H475 C461 0.950 . S
H476 C462 0.950 1_655 S
H477 C463 0.950 . S
H478 C465 0.950 . S
H479 C466 0.951 . S
C480 C481 1.386 . S
C480 C482 1.383 . S
C480 H496 0.951 . S
C481 C480 1.386 . S
C481 C485 1.383 . S
C482 C480 1.383 . S
C482 C483 1.402 . S
C482 H497 0.951 . S
C483 C482 1.402 . S
C483 C484 1.375 . S
C483 C486 1.481 . S
C484 C483 1.375 . S
C484 C485 1.367 . S
C484 H498 0.951 . S
C485 C481 1.383 . S
C485 C484 1.367 . S
C485 H499 0.950 . S
C486 C483 1.481 . S
C486 C487 1.297 . S
C486 H500 0.950 . S
C487 C486 1.297 . S
C487 C488 1.479 . S
C487 H501 0.950 . S
C488 C487 1.479 . S
C488 C489 1.375 . S
C488 C494 1.404 . S
C489 C488 1.375 . S
C489 C490 1.369 . S
C489 H502 0.950 . S
C490 C489 1.369 . S
C490 C491 1.392 . S
C490 H503 0.951 . S
C491 C490 1.392 . S
C491 C493 1.384 . S
H492 C494 0.949 . S
C493 C491 1.384 . S
C493 C494 1.385 . S
C493 H495 0.950 . S
C494 C488 1.404 . S
C494 H492 0.949 . S
C494 C493 1.385 . S
H495 C493 0.950 . S
H496 C480 0.951 . S
H497 C482 0.951 . S
H498 C484 0.951 . S
H499 C485 0.950 . S
H500 C486 0.950 . S
H501 C487 0.950 . S
H502 C489 0.950 . S
H503 C490 0.951 . S
C504 C505 1.386 . S
C504 C506 1.383 . S
C504 H520 0.951 . S
C505 C504 1.386 . S
C505 C509 1.383 . S
C506 C504 1.383 . S
C506 C507 1.402 . S
C506 H521 0.951 . S
C507 C506 1.402 . S
C507 C508 1.375 . S
C507 C510 1.481 1_556 S
C508 C507 1.375 . S
C508 C509 1.367 . S
C508 H522 0.951 . S
C509 C505 1.383 . S
C509 C508 1.367 . S
C509 H523 0.950 . S
C510 C507 1.481 1_554 S
C510 C511 1.297 . S
C510 H524 0.950 . S
C511 C510 1.297 . S
C511 C512 1.479 . S
C511 H525 0.950 . S
C512 C511 1.479 . S
C512 C513 1.375 . S
C512 C518 1.404 . S
C513 C512 1.375 . S
C513 C514 1.369 . S
C513 H526 0.950 . S
C514 C513 1.369 . S
C514 C515 1.392 . S
C514 H527 0.951 . S
C515 C514 1.392 . S
C515 C517 1.384 . S
H516 C518 0.949 . S
C517 C515 1.384 . S
C517 C518 1.385 . S
C517 H519 0.950 . S
C518 C512 1.404 . S
C518 H516 0.949 . S
C518 C517 1.385 . S
H519 C517 0.950 . S
H520 C504 0.951 . S
H521 C506 0.951 . S
H522 C508 0.951 . S
H523 C509 0.950 . S
H524 C510 0.950 . S
H525 C511 0.950 . S
H526 C513 0.950 . S
H527 C514 0.951 . S
C528 C529 1.386 . S
C528 C530 1.383 . S
C528 H544 0.951 . S
C529 C528 1.386 . S
C529 C533 1.383 . S
C530 C528 1.383 . S
C530 C531 1.402 . S
C530 H545 0.951 . S
C531 C530 1.402 . S
C531 C532 1.375 . S
C531 C534 1.481 . S
C532 C531 1.375 . S
C532 C533 1.367 . S
C532 H546 0.951 . S
C533 C529 1.383 . S
C533 C532 1.367 . S
C533 H547 0.950 . S
C534 C531 1.481 . S
C534 C535 1.297 . S
C534 H548 0.950 . S
C535 C534 1.297 . S
C535 C536 1.479 . S
C535 H549 0.950 . S
C536 C535 1.479 . S
C536 C537 1.375 . S
C536 C542 1.404 . S
C537 C536 1.375 . S
C537 C538 1.369 . S
C537 H550 0.950 . S
C538 C537 1.369 . S
C538 C539 1.392 . S
C538 H551 0.951 . S
C539 C538 1.392 . S
C539 C541 1.384 . S
H540 C542 0.949 . S
C541 C539 1.384 . S
C541 C542 1.385 . S
C541 H543 0.950 . S
C542 C536 1.404 . S
C542 H540 0.949 . S
C542 C541 1.385 . S
H543 C541 0.950 . S
H544 C528 0.951 . S
H545 C530 0.951 . S
H546 C532 0.951 . S
H547 C533 0.950 . S
H548 C534 0.950 . S
H549 C535 0.950 . S
H550 C537 0.950 . S
H551 C538 0.951 . S
C552 C553 1.386 . S
C552 C554 1.383 . S
C552 H568 0.951 . S
C553 C552 1.386 . S
C553 C557 1.383 . S
C554 C552 1.383 . S
C554 C555 1.402 . S
C554 H569 0.951 . S
C555 C554 1.402 . S
C555 C556 1.375 . S
C555 C558 1.481 . S
C556 C555 1.375 . S
C556 C557 1.367 . S
C556 H570 0.951 . S
C557 C553 1.383 . S
C557 C556 1.367 . S
C557 H571 0.950 . S
C558 C555 1.481 . S
C558 C559 1.297 . S
C558 H572 0.950 . S
C559 C558 1.297 . S
C559 C560 1.479 . S
C559 H573 0.950 . S
C560 C559 1.479 . S
C560 C561 1.375 . S
C560 C566 1.404 . S
C561 C560 1.375 . S
C561 C562 1.369 . S
C561 H574 0.950 . S
C562 C561 1.369 . S
C562 C563 1.392 . S
C562 H575 0.951 . S
C563 C562 1.392 . S
C563 C565 1.384 . S
H564 C566 0.949 . S
C565 C563 1.384 . S
C565 C566 1.385 . S
C565 H567 0.950 . S
C566 C560 1.404 . S
C566 H564 0.949 . S
C566 C565 1.385 . S
H567 C565 0.950 . S
H568 C552 0.951 . S
H569 C554 0.951 . S
H570 C556 0.951 . S
H571 C557 0.950 . S
H572 C558 0.950 . S
H573 C559 0.950 . S
H574 C561 0.950 . S
H575 C562 0.951 . S
C576 C577 1.386 . S
C576 C578 1.383 . S
C576 H592 0.951 . S
C577 C576 1.386 . S
C577 C581 1.383 . S
C578 C576 1.383 . S
C578 C579 1.402 . S
C578 H593 0.951 . S
C579 C578 1.402 . S
C579 C580 1.375 . S
C579 C582 1.481 . S
C580 C579 1.375 . S
C580 C581 1.367 . S
C580 H594 0.951 . S
C581 C577 1.383 . S
C581 C580 1.367 . S
C581 H595 0.950 . S
C582 C579 1.481 . S
C582 C583 1.297 . S
C582 H596 0.950 . S
C583 C582 1.297 . S
C583 C584 1.479 . S
C583 H597 0.950 . S
C584 C583 1.479 . S
C584 C585 1.375 . S
C584 C590 1.404 . S
C585 C584 1.375 . S
C585 C586 1.369 . S
C585 H598 0.950 . S
C586 C585 1.369 . S
C586 C587 1.392 . S
C586 H599 0.951 . S
C587 C586 1.392 . S
C587 C589 1.384 . S
H588 C590 0.949 . S
C589 C587 1.384 . S
C589 C590 1.385 . S
C589 H591 0.950 . S
C590 C584 1.404 . S
C590 H588 0.949 . S
C590 C589 1.385 . S
H591 C589 0.950 . S
H592 C576 0.951 . S
H593 C578 0.951 . S
H594 C580 0.951 . S
H595 C581 0.950 . S
H596 C582 0.950 . S
H597 C583 0.950 . S
H598 C585 0.950 . S
H599 C586 0.951 . S
C600 C601 1.386 . S
C600 C602 1.383 . S
C600 H616 0.951 . S
C601 C600 1.386 . S
C601 C605 1.383 . S
C602 C600 1.383 . S
C602 C603 1.402 . S
C602 H617 0.951 . S
C603 C602 1.402 . S
C603 C604 1.375 . S
C603 C606 1.481 . S
C604 C603 1.375 . S
C604 C605 1.367 . S
C604 H618 0.951 . S
C605 C601 1.383 . S
C605 C604 1.367 . S
C605 H619 0.950 . S
C606 C603 1.481 . S
C606 C607 1.297 . S
C606 H620 0.950 . S
C607 C606 1.297 . S
C607 C608 1.479 . S
C607 H621 0.950 . S
C608 C607 1.479 . S
C608 C609 1.375 . S
C608 C614 1.404 . S
C609 C608 1.375 . S
C609 C610 1.369 . S
C609 H622 0.950 . S
C610 C609 1.369 . S
C610 C611 1.392 . S
C610 H623 0.951 . S
C611 C610 1.392 . S
C611 C613 1.384 . S
H612 C614 0.949 . S
C613 C611 1.384 . S
C613 C614 1.385 . S
C613 H615 0.950 . S
C614 C608 1.404 . S
C614 H612 0.949 . S
C614 C613 1.385 . S
H615 C613 0.950 . S
H616 C600 0.951 . S
H617 C602 0.951 . S
H618 C604 0.951 . S
H619 C605 0.950 . S
H620 C606 0.950 . S
H621 C607 0.950 . S
H622 C609 0.950 . S
H623 C610 0.951 . S
C193 C2 1.289 . S
C203 N173 1.249 . S
C217 C34 1.297 . S
C227 N13 1.282 . S
C241 C66 1.290 . S
C251 N45 1.295 . S
C265 N77 1.270 . S
C275 C98 1.261 . S
C289 N109 1.311 . S
C299 C130 1.214 . S
C313 C162 1.280 . S
C323 N141 1.246 . S
C337 C4 0.991 . S
C347 N114 1.047 . S
C361 C36 1.040 . S
C371 N146 1.052 . S
C385 N178 1.044 . S
C395 C68 1.021 . S
C409 C100 0.990 . S
C419 N18 0.935 . S
C433 N50 0.973 . S
C443 C132 1.048 . S
C457 C164 1.033 . S
C467 N82 1.063 . S
C481 C6 1.538 . S
C491 C157 1.472 . S
C505 C189 1.458 . S
C515 C38 1.529 . S
C529 C29 1.521 . S
C539 C70 1.556 . S
C553 C102 1.541 . S
C563 C61 1.429 . S
C577 C93 1.459 . S
C587 C134 1.524 . S
C601 C125 1.520 . S
C611 C166 1.558 . S
