# Generated by pormake.
# Topology wjv, (5)-cn, num edge types: 1
# Building blocks:
#     Node 0, Type 0, BuildingBlock: XOMCOT_clean_sbu_1, # of connection points: 5
#     Node 1, Type 0, BuildingBlock: XOMCOT_clean_sbu_1, # of connection points: 5
#     Node 2, Type 0, BuildingBlock: XOMCOT_clean_sbu_1, # of connection points: 5
#     Node 3, Type 0, BuildingBlock: XOMCOT_clean_sbu_1, # of connection points: 5
#     Node 4, Type 0, BuildingBlock: XOMCOT_clean_sbu_1, # of connection points: 5
#     Node 5, Type 0, BuildingBlock: XOMCOT_clean_sbu_1, # of connection points: 5
#     Node 6, Type 0, BuildingBlock: XOMCOT_clean_sbu_1, # of connection points: 5
#     Node 7, Type 0, BuildingBlock: XOMCOT_clean_sbu_1, # of connection points: 5
#     Node 8, Type 0, BuildingBlock: XOMCOT_clean_sbu_1, # of connection points: 5
#     Node 9, Type 0, BuildingBlock: XOMCOT_clean_sbu_1, # of connection points: 5
#     Node 10, Type 0, BuildingBlock: XOMCOT_clean_sbu_1, # of connection points: 5
#     Node 11, Type 0, BuildingBlock: XOMCOT_clean_sbu_1, # of connection points: 5
#     Edge 12, Type (0, 0), BuildingBlock: XUDNAN_clean_linker_2, # of connection points: 2
#     Edge 13, Type (0, 0), BuildingBlock: XUDNAN_clean_linker_2, # of connection points: 2
#     Edge 14, Type (0, 0), BuildingBlock: XUDNAN_clean_linker_2, # of connection points: 2
#     Edge 15, Type (0, 0), BuildingBlock: XUDNAN_clean_linker_2, # of connection points: 2
#     Edge 16, Type (0, 0), BuildingBlock: XUDNAN_clean_linker_2, # of connection points: 2
#     Edge 17, Type (0, 0), BuildingBlock: XUDNAN_clean_linker_2, # of connection points: 2
#     Edge 18, Type (0, 0), BuildingBlock: XUDNAN_clean_linker_2, # of connection points: 2
#     Edge 19, Type (0, 0), BuildingBlock: XUDNAN_clean_linker_2, # of connection points: 2
#     Edge 20, Type (0, 0), BuildingBlock: XUDNAN_clean_linker_2, # of connection points: 2
#     Edge 21, Type (0, 0), BuildingBlock: XUDNAN_clean_linker_2, # of connection points: 2
#     Edge 22, Type (0, 0), BuildingBlock: XUDNAN_clean_linker_2, # of connection points: 2
#     Edge 23, Type (0, 0), BuildingBlock: XUDNAN_clean_linker_2, # of connection points: 2
#     Edge 24, Type (0, 0), BuildingBlock: XUDNAN_clean_linker_2, # of connection points: 2
#     Edge 25, Type (0, 0), BuildingBlock: XUDNAN_clean_linker_2, # of connection points: 2
#     Edge 26, Type (0, 0), BuildingBlock: XUDNAN_clean_linker_2, # of connection points: 2
#     Edge 27, Type (0, 0), BuildingBlock: XUDNAN_clean_linker_2, # of connection points: 2
#     Edge 28, Type (0, 0), BuildingBlock: XUDNAN_clean_linker_2, # of connection points: 2
#     Edge 29, Type (0, 0), BuildingBlock: XUDNAN_clean_linker_2, # of connection points: 2
#     Edge 30, Type (0, 0), BuildingBlock: XUDNAN_clean_linker_2, # of connection points: 2
#     Edge 31, Type (0, 0), BuildingBlock: XUDNAN_clean_linker_2, # of connection points: 2
#     Edge 32, Type (0, 0), BuildingBlock: XUDNAN_clean_linker_2, # of connection points: 2
#     Edge 33, Type (0, 0), BuildingBlock: XUDNAN_clean_linker_2, # of connection points: 2
#     Edge 34, Type (0, 0), BuildingBlock: XUDNAN_clean_linker_2, # of connection points: 2
#     Edge 35, Type (0, 0), BuildingBlock: XUDNAN_clean_linker_2, # of connection points: 2
#     Edge 36, Type (0, 0), BuildingBlock: XUDNAN_clean_linker_2, # of connection points: 2
#     Edge 37, Type (0, 0), BuildingBlock: XUDNAN_clean_linker_2, # of connection points: 2
#     Edge 38, Type (0, 0), BuildingBlock: XUDNAN_clean_linker_2, # of connection points: 2
#     Edge 39, Type (0, 0), BuildingBlock: XUDNAN_clean_linker_2, # of connection points: 2
#     Edge 40, Type (0, 0), BuildingBlock: XUDNAN_clean_linker_2, # of connection points: 2
#     Edge 41, Type (0, 0), BuildingBlock: XUDNAN_clean_linker_2, # of connection points: 2
# Relax obj value: 0.261
# Max RMSD: 0.170
# Mean RMSD: 0.170
data_MOF--net-wjv--node1-XOMCOT_clean_sbu_1--edge1-XUDNAN_clean_linker_2
_symmetry_space_group_name_H-M    P1
_symmetry_Int_Tables_number       1
_symmetry_cell_setting            triclinic
loop_
_symmetry_equiv_pos_as_xyz
'x, y, z'
_cell_length_a     34.197442
_cell_length_b     34.549536
_cell_length_c     49.743756
_cell_angle_alpha  89.983724
_cell_angle_beta   89.554078
_cell_angle_gamma 119.79339
loop_
_atom_site_label
_atom_site_type_symbol
_atom_site_fract_x
_atom_site_fract_y
_atom_site_fract_z
_atom_type_partial_charge
C0 C 0.2289 0.34416 0.24416 0.0
C1 C 0.23816 0.33995 0.27042 0.0
N2 N 0.28308 0.35875 0.27296 0.0
N3 N 0.2678 0.36551 0.22998 0.0
C4 C 0.30042 0.37493 0.24835 0.0
H5 H 0.19557 0.32916 0.23575 0.0
Co6 Co 0.27198 0.36801 0.19227 0.0
C7 C 0.34877 0.46602 0.18113 0.0
O8 O 0.33125 0.47269 0.15949 0.0
N9 N 0.27438 0.36866 0.15457 0.0
C10 C 0.27022 0.34385 0.11283 0.0
C11 C 0.27748 0.33798 0.13923 0.0
C12 C 0.26369 0.39179 0.13706 0.0
N13 N 0.26155 0.37773 0.11155 0.0
O14 O 0.22013 0.38012 0.19074 0.0
H15 H 0.2826 0.31153 0.14685 0.0
H16 H 0.2546 0.41642 0.14304 0.0
O17 O 0.32456 0.43113 0.19558 0.0
C18 C 0.18501 0.34271 0.1844 0.0
O19 O 0.19131 0.30854 0.18053 0.0
N20 N 0.31621 0.35054 0.19326 0.0
C21 C 0.38046 0.32363 0.19697 0.0
C22 C 0.38938 0.36142 0.18198 0.0
C23 C 0.35661 0.37385 0.18003 0.0
C24 C 0.30597 0.31232 0.20679 0.0
C25 C 0.33783 0.29858 0.20923 0.0
H26 H 0.36336 0.40142 0.16702 0.0
H27 H 0.27302 0.29261 0.21595 0.0
H28 H 0.33572 0.38886 0.24318 0.0
H29 H 0.21357 0.32145 0.28601 0.0
H30 H 0.27028 0.32406 0.09598 0.0
H31 H 0.42108 0.38084 0.17138 0.0
H32 H 0.32851 0.26782 0.21988 0.0
C33 C 0.95857 0.218 0.56772 0.0
C34 C 0.97389 0.22435 0.59367 0.0
N35 N 0.96008 0.24991 0.60643 0.0
N36 N 0.93507 0.23932 0.56401 0.0
C37 C 0.93635 0.25837 0.588 0.0
H38 H 0.96522 0.20001 0.55223 0.0
Co39 Co 0.91081 0.24114 0.53095 0.0
C40 C 0.91401 0.32989 0.52816 0.0
O41 O 0.91022 0.32444 0.50203 0.0
N42 N 0.88401 0.23978 0.49769 0.0
C43 C 0.82756 0.22893 0.47083 0.0
C44 C 0.8434 0.23753 0.49662 0.0
C45 C 0.89112 0.23064 0.47223 0.0
N46 N 0.85756 0.2244 0.4555 0.0
O47 O 0.85105 0.19116 0.54256 0.0
H48 H 0.82571 0.24068 0.51386 0.0
H49 H 0.91893 0.22646 0.46598 0.0
O50 O 0.90447 0.29538 0.54321 0.0
C51 C 0.85125 0.15557 0.53478 0.0
O52 O 0.88826 0.16066 0.52331 0.0
N53 N 0.96986 0.28335 0.51921 0.0
C54 C 0.06117 0.33811 0.50732 0.0
C55 C 0.04064 0.3496 0.52765 0.0
C56 C 0.99571 0.32097 0.53396 0.0
C57 C 0.99005 0.27081 0.50007 0.0
C58 C 0.03541 0.29835 0.4932 0.0
H59 H 0.98289 0.32804 0.55202 0.0
H60 H 0.97244 0.23767 0.49185 0.0
H61 H 0.92086 0.2786 0.59177 0.0
H62 H 0.99503 0.21243 0.60217 0.0
H63 H 0.79535 0.22406 0.46422 0.0
H64 H 0.06002 0.37885 0.53993 0.0
H65 H 0.05106 0.28678 0.4787 0.0
C66 C 0.71331 0.92726 0.89766 0.0
C67 C 0.72495 0.94676 0.92249 0.0
N68 N 0.68891 0.9471 0.93343 0.0
N69 N 0.67 0.91485 0.8928 0.0
C70 C 0.65577 0.92697 0.91508 0.0
H71 H 0.73557 0.92365 0.88364 0.0
Co72 Co 0.64391 0.89232 0.85954 0.0
C73 C 0.55033 0.88388 0.8602 0.0
O74 O 0.54283 0.86973 0.83533 0.0
N75 N 0.61908 0.86853 0.82556 0.0
C76 C 0.58022 0.81552 0.79557 0.0
C77 C 0.5874 0.82524 0.82237 0.0
C78 C 0.63128 0.88412 0.80006 0.0
N79 N 0.6079 0.85248 0.78142 0.0
O80 O 0.63699 0.83314 0.86986 0.0
H81 H 0.57073 0.80181 0.83865 0.0
H82 H 0.65762 0.91745 0.79511 0.0
O83 O 0.58231 0.88251 0.87339 0.0
C84 C 0.67118 0.83274 0.8589 0.0
O85 O 0.69812 0.86748 0.844 0.0
N86 N 0.65928 0.95101 0.8495 0.0
C87 C 0.7076 0.04385 0.8512 0.0
C88 C 0.66437 0.02042 0.86215 0.0
C89 C 0.64229 0.97436 0.86254 0.0
C90 C 0.69933 0.97366 0.83594 0.0
C91 C 0.72429 0.02034 0.83657 0.0
H92 H 0.61631 0.95929 0.87732 0.0
H93 H 0.71466 0.95551 0.82746 0.0
H94 H 0.6225 0.92301 0.9173 0.0
H95 H 0.75777 0.96006 0.93156 0.0
H96 H 0.55783 0.783 0.78723 0.0
H97 H 0.65058 0.03731 0.87394 0.0
H98 H 0.75813 0.03727 0.82823 0.0
C99 C 0.79916 0.7194 0.23339 0.0
C100 C 0.79872 0.72467 0.26066 0.0
N101 N 0.76753 0.68571 0.27167 0.0
N102 N 0.76864 0.67725 0.22678 0.0
C103 C 0.75007 0.65718 0.25066 0.0
H104 H 0.81874 0.74561 0.21905 0.0
Co105 Co 0.7566 0.66291 0.19021 0.0
C106 C 0.67557 0.56093 0.19991 0.0
O107 O 0.67571 0.52536 0.20911 0.0
N108 N 0.7466 0.6504 0.15205 0.0
C109 C 0.72828 0.64965 0.10883 0.0
C110 C 0.7209 0.65828 0.13471 0.0
C111 C 0.76889 0.63619 0.13555 0.0
N112 N 0.75889 0.63615 0.1092 0.0
O113 O 0.8125 0.65798 0.18824 0.0
H114 H 0.6974 0.66928 0.1399 0.0
H115 H 0.79336 0.62744 0.1425 0.0
O116 O 0.71439 0.59738 0.19799 0.0
C117 C 0.84639 0.69529 0.18047 0.0
O118 O 0.83769 0.72627 0.17203 0.0
N119 N 0.70884 0.67469 0.19357 0.0
C120 C 0.64992 0.70664 0.20313 0.0
C121 C 0.64407 0.66886 0.21666 0.0
C122 C 0.67462 0.65401 0.21202 0.0
C123 C 0.71694 0.71383 0.1821 0.0
C124 C 0.68694 0.72962 0.18583 0.0
H125 H 0.67161 0.62713 0.22434 0.0
H126 H 0.74698 0.73286 0.16997 0.0
H127 H 0.72298 0.62306 0.25254 0.0
H128 H 0.81775 0.75581 0.27132 0.0
H129 H 0.71217 0.65312 0.09107 0.0
H130 H 0.61726 0.65206 0.23138 0.0
H131 H 0.69362 0.76052 0.17626 0.0
C132 C 0.10677 0.78805 0.56445 0.0
C133 C 0.08812 0.78276 0.58964 0.0
N134 N 0.08023 0.74333 0.59974 0.0
N135 N 0.11116 0.75238 0.55842 0.0
C136 C 0.09455 0.7255 0.58038 0.0
H137 H 0.11483 0.81552 0.55092 0.0
Co138 Co 0.1303 0.74552 0.52413 0.0
C139 C 0.12256 0.65404 0.52289 0.0
O140 O 0.11551 0.65517 0.49707 0.0
N141 N 0.15074 0.74129 0.48954 0.0
C142 C 0.19747 0.74058 0.45833 0.0
C143 C 0.18842 0.73852 0.48539 0.0
C144 C 0.13864 0.74702 0.46461 0.0
N145 N 0.16618 0.74591 0.44538 0.0
O146 O 0.19323 0.79294 0.53248 0.0
H147 H 0.2085 0.73588 0.50121 0.0
H148 H 0.11141 0.75345 0.46052 0.0
O149 O 0.13382 0.68982 0.53695 0.0
C150 C 0.19753 0.82936 0.52227 0.0
O151 O 0.16327 0.82654 0.50887 0.0
N152 N 0.06922 0.70793 0.51546 0.0
C153 C 0.97764 0.67768 0.52068 0.0
C154 C 0.99519 0.65123 0.52935 0.0
C155 C 0.04127 0.66787 0.52771 0.0
C156 C 0.0514 0.73153 0.50399 0.0
C157 C 1.0055 0.71724 0.50666 0.0
H158 H 0.05361 0.65146 0.54034 0.0
H159 H 0.07363 0.76467 0.49624 0.0
H160 H 0.09199 0.69314 0.58192 0.0
H161 H 0.07912 0.8054 0.59923 0.0
H162 H 0.22596 0.74026 0.44891 0.0
H163 H 0.97485 0.62163 0.54143 0.0
H164 H 0.993 0.7392 0.50058 0.0
C165 C 0.29862 0.07003 0.89182 0.0
C166 C 0.28676 0.04956 0.9165 0.0
N167 N 0.32411 0.05418 0.92848 0.0
N168 N 0.34332 0.08801 0.88811 0.0
C169 C 0.3581 0.07814 0.91084 0.0
H170 H 0.27583 0.07081 0.87719 0.0
Co171 Co 0.37169 0.11538 0.85602 0.0
C172 C 0.46207 0.11831 0.85563 0.0
O173 O 0.46418 0.12536 0.82962 0.0
N174 N 0.39875 0.14445 0.82364 0.0
C175 C 0.44237 0.20206 0.797 0.0
C176 C 0.43558 0.18562 0.82274 0.0
C177 C 0.38277 0.13747 0.79828 0.0
N178 N 0.4089 0.17183 0.78169 0.0
O179 O 0.37852 0.17309 0.86888 0.0
H180 H 0.45538 0.20325 0.84005 0.0
H181 H 0.35153 0.1091 0.79214 0.0
O182 O 0.43254 0.12323 0.86964 0.0
C183 C 0.34405 0.17489 0.85998 0.0
O184 O 0.31427 0.14074 0.84607 0.0
N185 N 0.35781 0.05831 0.8429 0.0
C186 C 0.32482 0.96836 0.82951 0.0
C187 C 0.36176 0.99103 0.84649 0.0
C188 C 0.37426 0.03379 0.8548 0.0
C189 C 0.32265 0.03763 0.82562 0.0
C190 C 0.30546 0.99273 0.81874 0.0
H191 H 0.39423 0.04505 0.87258 0.0
H192 H 0.30505 0.0546 0.81905 0.0
H193 H 0.39277 0.08691 0.91392 0.0
H194 H 0.25293 0.03244 0.92474 0.0
H195 H 0.46834 0.23478 0.79039 0.0
H196 H 0.37877 0.97505 0.85551 0.0
H197 H 0.27538 0.97699 0.80667 0.0
C198 C 0.737 0.75529 0.50074 0.0
C199 C 0.75056 0.74844 0.4759 0.0
N200 N 0.7148 0.73118 0.45934 0.0
N201 N 0.69275 0.74221 0.50003 0.0
C202 C 0.68034 0.72832 0.47446 0.0
H203 H 0.75768 0.76764 0.51847 0.0
Co204 Co 0.65697 0.74168 0.52923 0.0
C205 C 0.5758 0.6514 0.52456 0.0
O206 O 0.57434 0.65243 0.55094 0.0
N207 N 0.62198 0.745 0.55781 0.0
C208 C 0.56894 0.7509 0.58084 0.0
C209 C 0.57805 0.73381 0.55813 0.0
C210 C 0.63929 0.77194 0.5794 0.0
N211 N 0.60772 0.77499 0.59421 0.0
O212 O 0.65419 0.79294 0.51286 0.0
H213 H 0.55444 0.71628 0.54224 0.0
H214 H 0.67487 0.78972 0.58392 0.0
O215 O 0.60209 0.68835 0.51183 0.0
C216 C 0.68988 0.82656 0.5226 0.0
O217 O 0.7169 0.81733 0.53639 0.0
N218 N 0.66651 0.69766 0.54731 0.0
C219 C 0.70122 0.64692 0.57009 0.0
C220 C 0.68757 0.64107 0.54312 0.0
C221 C 0.66982 0.66612 0.53236 0.0
C222 C 0.67451 0.69965 0.57429 0.0
C223 C 0.68991 0.67327 0.5862 0.0
H224 H 0.66179 0.66209 0.51126 0.0
H225 H 0.6718 0.7231 0.587 0.0
H226 H 0.64646 0.7158 0.46718 0.0
H227 H 0.78389 0.75431 0.47078 0.0
H228 H 0.53673 0.74753 0.58641 0.0
H229 H 0.69419 0.62078 0.52936 0.0
H230 H 0.69676 0.67698 0.60752 0.0
C231 C 0.91578 0.70794 0.81214 0.0
C232 C 0.92725 0.71655 0.78543 0.0
N233 N 0.92813 0.68121 0.77468 0.0
N234 N 0.90882 0.66707 0.81855 0.0
C235 C 0.91568 0.65117 0.79505 0.0
H236 H 0.91607 0.73166 0.82636 0.0
Co237 Co 0.90581 0.64862 0.85461 0.0
C238 C 0.8911 0.55443 0.85514 0.0
O239 O 0.87086 0.54325 0.8787 0.0
N240 N 0.90417 0.63206 0.89178 0.0
C241 C 0.92435 0.61455 0.93051 0.0
C242 C 0.93451 0.62344 0.90373 0.0
C243 C 0.87605 0.6286 0.91235 0.0
N244 N 0.88752 0.61772 0.93608 0.0
O245 O 0.84198 0.63529 0.85664 0.0
H246 H 0.96238 0.62294 0.8937 0.0
H247 H 0.84746 0.63359 0.91013 0.0
O248 O 0.89263 0.58752 0.84228 0.0
C249 C 0.84138 0.67084 0.86394 0.0
O250 O 0.87959 0.70519 0.87153 0.0
N251 N 0.96758 0.66747 0.8523 0.0
C252 C 0.06027 0.70566 0.84753 0.0
C253 C 0.03217 0.66744 0.8331 0.0
C254 C 0.98583 0.64889 0.83569 0.0
C255 C 0.99482 0.70512 0.86637 0.0
C256 C 0.04157 0.72455 0.86456 0.0
H257 H 0.96529 0.62084 0.8232 0.0
H258 H 0.98005 0.72035 0.87875 0.0
H259 H 0.91521 0.61977 0.79331 0.0
H260 H 0.93662 0.7476 0.77515 0.0
H261 H 0.94328 0.60704 0.94488 0.0
H262 H 0.04592 0.65295 0.81927 0.0
H263 H 0.06288 0.75495 0.87546 0.0
C264 C 0.23121 0.93838 0.14581 0.0
C265 C 0.23419 0.94454 0.1185 0.0
N266 N 0.26656 0.93669 0.10907 0.0
N267 N 0.26121 0.92624 0.1537 0.0
C268 C 0.28226 0.92529 0.13075 0.0
H269 H 0.20997 0.94459 0.15922 0.0
Co270 Co 0.2697 0.91902 0.18991 0.0
C271 C 0.35423 0.90167 0.1779 0.0
O272 O 0.35411 0.86629 0.16817 0.0
N273 N 0.2767 0.91116 0.22757 0.0
C274 C 0.29636 0.92298 0.27088 0.0
C275 C 0.30627 0.94066 0.24542 0.0
C276 C 0.24969 0.87513 0.24319 0.0
N277 N 0.26057 0.88181 0.2695 0.0
O278 O 0.21568 0.85783 0.18818 0.0
H279 H 0.33332 0.97376 0.24092 0.0
H280 H 0.22146 0.84479 0.23581 0.0
O281 O 0.31535 0.8994 0.18111 0.0
C282 C 0.17997 0.86019 0.1936 0.0
O283 O 0.1857 0.8987 0.20204 0.0
N284 N 0.31531 0.9789 0.1905 0.0
C285 C 0.37745 0.06978 0.19257 0.0
C286 C 0.38452 0.04177 0.17535 0.0
C287 C 0.35208 0.99683 0.17382 0.0
C288 C 0.30548 1.00633 0.20512 0.0
C289 C 0.33649 0.05171 0.20695 0.0
H290 H 0.35677 0.97676 0.15909 0.0
H291 H 0.27383 0.99254 0.21603 0.0
H292 H 0.30969 0.91817 0.12996 0.0
H293 H 0.21607 0.95676 0.10669 0.0
H294 H 0.31402 0.93933 0.28907 0.0
H295 H 0.41457 0.05429 0.16294 0.0
H296 H 0.32782 0.07247 0.21903 0.0
C297 C 0.32322 0.21498 0.47286 0.0
C298 C 0.31456 0.22233 0.44708 0.0
N299 N 0.35345 0.25355 0.43564 0.0
N300 N 0.36736 0.24129 0.47788 0.0
C301 C 0.38516 0.26417 0.45473 0.0
H302 H 0.29842 0.19353 0.48756 0.0
Co303 Co 0.39 0.24516 0.51222 0.0
C304 C 0.48158 0.33071 0.51472 0.0
O305 O 0.48499 0.32495 0.54045 0.0
N306 N 0.41145 0.24608 0.54711 0.0
C307 C 0.44952 0.23248 0.57831 0.0
C308 C 0.44518 0.23708 0.55135 0.0
C309 C 0.39481 0.24522 0.57204 0.0
N310 N 0.41765 0.23733 0.5913 0.0
O311 O 0.39741 0.19201 0.50446 0.0
H312 H 0.46503 0.23331 0.53562 0.0
H313 H 0.36554 0.24829 0.57624 0.0
O314 O 0.45324 0.29669 0.50047 0.0
C315 C 0.36169 0.15851 0.51469 0.0
O316 O 0.33267 0.16754 0.52654 0.0
N317 N 0.37445 0.28965 0.5198 0.0
C318 C 0.33443 0.34326 0.52111 0.0
C319 C 0.37364 0.35604 0.50618 0.0
C320 C 0.39123 0.32767 0.50455 0.0
C321 C 0.33663 0.27703 0.535 0.0
C322 C 0.31633 0.30361 0.53625 0.0
H323 H 0.41539 0.33474 0.48875 0.0
H324 H 0.31946 0.24425 0.54408 0.0
H325 H 0.42017 0.28947 0.4523 0.0
H326 H 0.28153 0.20778 0.43811 0.0
H327 H 0.47266 0.2237 0.58753 0.0
H328 H 0.38829 0.38573 0.49368 0.0
H329 H 0.28467 0.29115 0.54702 0.0
C330 C 0.06761 0.29588 0.83299 0.0
C331 C 0.04775 0.28118 0.80841 0.0
N332 N 0.06092 0.31686 0.79217 0.0
N333 N 0.09325 0.34065 0.83239 0.0
C334 C 0.08862 0.3526 0.80723 0.0
H335 H 0.06304 0.27532 0.85044 0.0
Co336 Co 0.12474 0.37407 0.86209 0.0
C337 C 0.1223 0.45994 0.85922 0.0
O338 O 0.12866 0.46212 0.88527 0.0
N339 N 0.15833 0.40707 0.8919 0.0
C340 C 0.21779 0.45955 0.91371 0.0
C341 C 0.19896 0.44441 0.88895 0.0
C342 C 0.1541 0.39937 0.91872 0.0
N343 N 0.18952 0.43104 0.93235 0.0
O344 O 0.18129 0.37858 0.84732 0.0
H345 H 0.21414 0.45948 0.86982 0.0
H346 H 0.12655 0.37083 0.92836 0.0
O347 O 0.12852 0.43118 0.8456 0.0
C348 C 0.18086 0.34452 0.85845 0.0
O349 O 0.14655 0.3198 0.87444 0.0
N350 N 0.06884 0.36118 0.87751 0.0
C351 C 0.9774 0.31714 0.89066 0.0
C352 C 0.99472 0.35101 0.87138 0.0
C353 C 0.03975 0.37065 0.86411 0.0
C354 C 0.05268 0.32961 0.89735 0.0
C355 C 1.00708 0.30762 0.90461 0.0
H356 H 0.04903 0.38864 0.84539 0.0
H357 H 0.07369 0.3172 0.90524 0.0
H358 H 0.10518 0.38674 0.8001 0.0
H359 H 0.02451 0.2469 0.80314 0.0
H360 H 0.25055 0.48812 0.91764 0.0
H361 H 0.9725 0.35795 0.85944 0.0
H362 H 0.99446 0.27998 0.91868 0.0
C363 C 0.79463 0.08719 0.14628 0.0
C364 C 0.78749 0.07327 0.12008 0.0
N365 N 0.75355 0.07822 0.1105 0.0
N366 N 0.76566 0.10131 0.15327 0.0
C367 C 0.74077 0.09533 0.13099 0.0
H368 H 0.81889 0.08619 0.15963 0.0
Co369 Co 0.76578 0.12214 0.18777 0.0
C370 C 0.67707 0.11907 0.19647 0.0
O371 O 0.6818 0.10886 0.22121 0.0
N372 N 0.7691 0.14515 0.22245 0.0
C373 C 0.77812 0.19605 0.25292 0.0
C374 C 0.76902 0.18379 0.22651 0.0
C375 C 0.77994 0.13546 0.24667 0.0
N376 N 0.7851 0.16565 0.26561 0.0
O377 O 0.81559 0.18267 0.17693 0.0
H378 H 0.76397 0.20266 0.21092 0.0
H379 H 0.7857 0.10801 0.25036 0.0
O380 O 0.71029 0.13032 0.17947 0.0
C381 C 0.85269 0.18386 0.18355 0.0
O382 O 0.84941 0.14831 0.19531 0.0
N383 N 0.72426 0.06252 0.19831 0.0
C384 C 0.66606 0.97214 0.21045 0.0
C385 C 0.65302 0.99558 0.19319 0.0
C386 C 0.68362 0.03907 0.18592 0.0
C387 C 0.73857 0.04029 0.21448 0.0
C388 C 0.71007 0.99521 0.22092 0.0
H389 H 0.67472 0.0532 0.16955 0.0
H390 H 0.77314 0.05651 0.22098 0.0
H391 H 0.71368 0.10289 0.12982 0.0
H392 H 0.80488 0.05911 0.10916 0.0
H393 H 0.7815 0.22618 0.26174 0.0
H394 H 0.62015 0.98033 0.1841 0.0
H395 H 0.72359 0.97845 0.23281 0.0
H396 H 0.29902 0.21822 0.39267 0.0
H397 H 0.41622 0.33843 0.42072 0.0
H398 H 0.41602 0.37765 0.37916 0.0
H399 H 0.3258 0.23415 0.32006 0.0
H400 H 0.26749 0.21245 0.31147 0.0
H401 H 0.28194 0.19251 0.34116 0.0
H402 H 0.23202 0.21384 0.37002 0.0
H403 H 0.21779 0.23418 0.34054 0.0
H404 H 0.2424 0.27034 0.369 0.0
H405 H 0.39788 0.4055 0.33554 0.0
H406 H 0.3622 0.41872 0.29576 0.0
H407 H 0.25496 0.28121 0.29925 0.0
C408 C 0.32507 0.25263 0.39002 0.0
C409 C 0.35762 0.2751 0.41004 0.0
C410 C 0.39129 0.32015 0.40555 0.0
C411 C 0.39131 0.3428 0.38202 0.0
C412 C 0.35759 0.31991 0.36314 0.0
C413 C 0.32524 0.27567 0.36694 0.0
C414 C 0.29021 0.25932 0.3451 0.0
C415 C 0.29146 0.22243 0.32846 0.0
C416 C 0.24283 0.24352 0.35688 0.0
C417 C 0.30689 0.3016 0.32883 0.0
C418 C 0.34629 0.3361 0.33906 0.0
C419 C 0.36714 0.37859 0.32736 0.0
C420 C 0.34678 0.38589 0.30488 0.0
C421 C 0.30563 0.35116 0.29489 0.0
C422 C 0.28605 0.3085 0.30684 0.0
H423 H 0.97528 0.20962 0.64858 0.0
H424 H 0.97165 0.3288 0.62551 0.0
H425 H 0.99686 0.35965 0.6711 0.0
H426 H 0.93597 0.20333 0.71707 0.0
H427 H 0.9722 0.18383 0.73008 0.0
H428 H 0.95224 0.17108 0.69606 0.0
H429 H 0.03466 0.20663 0.67867 0.0
H430 H 0.05488 0.21972 0.71261 0.0
H431 H 0.07461 0.26332 0.68759 0.0
H432 H 0.02649 0.37863 0.71924 0.0
H433 H 0.05295 0.38177 0.76585 0.0
H434 H 0.03734 0.2501 0.75618 0.0
C435 C 0.97973 0.2422 0.65308 0.0
C436 C 0.97157 0.26682 0.63345 0.0
C437 C 0.97721 0.30911 0.64031 0.0
C438 C 0.99182 0.32701 0.6661 0.0
C439 C 1.00032 0.30206 0.68482 0.0
C440 C 0.99405 0.26036 0.67863 0.0
C441 C 1.00568 0.24019 0.70208 0.0
C442 C 0.96404 0.19706 0.7119 0.0
C443 C 0.04478 0.232 0.69479 0.0
C444 C 0.01993 0.27715 0.72246 0.0
C445 C 0.01675 0.31267 0.71223 0.0
C446 C 0.02891 0.35089 0.72744 0.0
C447 C 0.04422 0.35254 0.75382 0.0
C448 C 0.04708 0.31613 0.76475 0.0
C449 C 0.03492 0.2782 0.74863 0.0
H450 H 0.76042 0.01182 0.9604 0.0
H451 H 0.61488 0.92876 0.96408 0.0
H452 H 0.61432 0.96104 1.00839 0.0
H453 H 0.77977 0.9971 0.02711 0.0
H454 H 0.82619 0.053 0.03116 0.0
H455 H 0.81386 0.02765 0.99849 0.0
H456 H 0.80743 0.09418 0.9795 0.0
H457 H 0.81955 0.11969 1.01223 0.0
H458 H 0.76895 0.10901 0.99506 0.0
H459 H 0.63131 0.99873 0.05467 0.0
H460 H 0.66446 0.03404 0.09843 0.0
H461 H 0.79823 0.08901 0.06389 0.0
C462 C 0.72825 1.00021 0.97033 0.0
C463 C 0.68769 0.96738 0.95863 0.0
C464 C 0.64642 0.95407 0.9724 0.0
C465 C 0.64579 0.97225 0.99763 0.0
C466 C 0.68666 1.00392 1.00876 0.0
C467 C 0.72708 0.01769 0.99542 0.0
C468 C 0.76677 0.04946 1.01224 0.0
C469 C 0.79848 0.03065 1.01756 0.0
C470 C 0.79216 0.09583 0.99896 0.0
C471 C 0.74263 0.05037 0.03758 0.0
C472 C 0.69637 0.02471 0.03515 0.0
C473 C 0.66746 0.01925 0.05663 0.0
C474 C 0.68645 0.03955 0.08134 0.0
C475 C 0.7338 0.06421 0.08436 0.0
C476 C 0.76193 0.07038 0.062 0.0
H477 H 0.81669 0.72954 0.31534 0.0
H478 H 0.68245 0.63009 0.2907 0.0
H479 H 0.65415 0.62854 0.3369 0.0
H480 H 0.81078 0.68778 0.38377 0.0
H481 H 0.84235 0.74313 0.39748 0.0
H482 H 0.85218 0.73279 0.36328 0.0
H483 H 0.83619 0.79473 0.34684 0.0
H484 H 0.82591 0.80499 0.38093 0.0
H485 H 0.78351 0.79167 0.35574 0.0
H486 H 0.63983 0.64293 0.38556 0.0
H487 H 0.64154 0.66847 0.43214 0.0
H488 H 0.78509 0.76033 0.42382 0.0
C489 C 0.7814 0.70704 0.31967 0.0
C490 C 0.75185 0.67986 0.29928 0.0
C491 C 0.70595 0.65071 0.30596 0.0
C492 C 0.68951 0.6499 0.33215 0.0
C493 C 0.71942 0.67825 0.3515 0.0
C494 C 0.76453 0.70593 0.34556 0.0
C495 C 0.78956 0.73452 0.36946 0.0
C496 C 0.82586 0.7239 0.37906 0.0
C497 C 0.80998 0.78442 0.36284 0.0
C498 C 0.75145 0.71915 0.38976 0.0
C499 C 0.71124 0.6866 0.37913 0.0
C500 C 0.67124 0.66825 0.39406 0.0
C501 C 0.67249 0.6833 0.4205 0.0
C502 C 0.71345 0.71653 0.43188 0.0
C503 C 0.7533 0.73451 0.41606 0.0
H504 H 0.08128 0.78784 0.64487 0.0
H505 H 0.02718 0.65492 0.61202 0.0
H506 H 0.98345 0.62309 0.65417 0.0
H507 H 0.08979 0.75951 0.71432 0.0
H508 H 0.07389 0.79829 0.7276 0.0
H509 H 0.10291 0.80939 0.69573 0.0
H510 H 0.03843 0.81627 0.67326 0.0
H511 H 1.00905 0.80484 0.70499 0.0
H512 H 0.98132 0.77079 0.67619 0.0
H513 H 0.94214 0.6067 0.70022 0.0
H514 H 0.9092 0.6078 0.74467 0.0
H515 H 0.99097 0.75202 0.74567 0.0
C516 C 0.0604 0.75199 0.64649 0.0
C517 C 0.0577 0.72394 0.62503 0.0
C518 C 0.03029 0.67712 0.62825 0.0
C519 C 1.00511 0.65878 0.65208 0.0
C520 C 1.00791 0.68765 0.67262 0.0
C521 C 0.03525 0.73329 0.67001 0.0
C522 C 0.03176 0.75755 0.69443 0.0
C523 C 0.07729 0.78265 0.70887 0.0
C524 C 1.01408 0.78922 0.68675 0.0
C525 C 0.99752 0.71862 0.7111 0.0
C526 C 0.98425 0.67844 0.69844 0.0
C527 C 0.95251 0.63807 0.71026 0.0
C528 C 0.93399 0.63897 0.73554 0.0
C529 C 0.94691 0.67996 0.74868 0.0
C530 C 0.97938 0.72008 0.73612 0.0
H531 H 0.25393 0.98937 0.95742 0.0
H532 H 0.39913 0.07666 0.95863 0.0
H533 H 0.40144 0.047 1.00333 0.0
H534 H 0.23513 0.00707 1.02369 0.0
H535 H 0.18985 0.95092 0.02937 0.0
H536 H 0.20094 0.97428 0.99604 0.0
H537 H 0.20916 0.90784 0.97872 0.0
H538 H 0.19841 0.88442 1.01214 0.0
H539 H 0.24906 0.89542 0.99436 0.0
H540 H 0.38653 0.01217 0.05014 0.0
H541 H 0.3551 0.98046 0.09512 0.0
H542 H 0.22016 0.9194 0.06308 0.0
C543 C 0.28644 1.00246 0.96679 0.0
C544 C 0.32632 0.03566 0.95417 0.0
C545 C 0.368 0.05098 0.96749 0.0
C546 C 0.36969 0.03426 0.99298 0.0
C547 C 0.32949 1.00211 1.0049 0.0
C548 C 0.28866 0.98654 0.99218 0.0
C549 C 0.2497 0.95509 1.01002 0.0
C550 C 0.21702 0.97293 1.01508 0.0
C551 C 0.22515 0.9079 0.99809 0.0
C552 C 0.27476 0.9565 0.0352 0.0
C553 C 0.32085 0.98293 0.03177 0.0
C554 C 0.35055 0.99095 0.0529 0.0
C555 C 0.33251 0.97262 0.0783 0.0
C556 C 0.28529 0.94734 0.08235 0.0
C557 C 0.25637 0.93834 0.06034 0.0
H558 H 0.17018 0.35992 0.96386 0.0
H559 H 0.23002 0.50369 0.96414 0.0
H560 H 0.25014 0.50532 1.01203 0.0
H561 H 0.12613 0.33913 0.03337 0.0
H562 H 0.13985 0.29564 0.03861 0.0
H563 H 0.1258 0.30568 1.00547 0.0
H564 H 0.20142 0.31575 0.98702 0.0
H565 H 0.21584 0.30602 1.02007 0.0
H566 H 0.25353 0.35652 1.00212 0.0
H567 H 0.26701 0.49119 0.05912 0.0
H568 H 0.28299 0.46289 0.10097 0.0
H569 H 0.21412 0.32876 0.06888 0.0
C570 C 0.18647 0.39155 0.97424 0.0
C571 C 0.19815 0.43166 0.96058 0.0
C572 C 0.22082 0.47268 0.97445 0.0
C573 C 0.23211 0.47385 1.00159 0.0
C574 C 0.22067 0.43369 1.01442 0.0
C575 C 0.19846 0.39331 1.00117 0.0
C576 C 0.1933 0.35533 1.01876 0.0
C577 C 0.14329 0.32198 1.02439 0.0
C578 C 0.21747 0.33206 1.00624 0.0
C579 C 0.2168 0.38071 0.04382 0.0
C580 C 0.23173 0.42576 0.04112 0.0
C581 C 0.25521 0.45595 0.06152 0.0
C582 C 0.26403 0.43964 0.08519 0.0
C583 C 0.24995 0.39378 0.08801 0.0
C584 C 0.22567 0.36405 0.06712 0.0
H585 H 0.76634 0.20446 0.30731 0.0
H586 H 0.83529 0.13163 0.28641 0.0
H587 H 0.8611 0.13804 0.33327 0.0
H588 H 0.85087 0.28247 0.35108 0.0
H589 H 0.8111 0.28404 0.37442 0.0
H590 H 0.79665 0.27202 0.33951 0.0
H591 H 0.72495 0.19816 0.35289 0.0
H592 H 0.73912 0.21 0.38785 0.0
H593 H 0.73015 0.15823 0.37368 0.0
H594 H 0.88122 0.15466 0.38237 0.0
H595 H 0.89177 0.17779 0.42993 0.0
H596 H 0.8114 0.24162 0.41777 0.0
C597 C 0.78699 0.18996 0.3125 0.0
C598 C 0.79876 0.16755 0.29313 0.0
C599 C 0.82529 0.14844 0.30092 0.0
C600 C 0.84038 0.15219 0.32747 0.0
C601 C 0.82857 0.17504 0.34593 0.0
C602 C 0.80231 0.19343 0.33879 0.0
C603 C 0.7946 0.21669 0.36228 0.0
C604 C 0.81451 0.26677 0.35647 0.0
C605 C 0.74421 0.19442 0.3696 0.0
C606 C 0.82082 0.20872 0.38378 0.0
C607 C 0.8402 0.18467 0.37401 0.0
C608 C 0.86623 0.17355 0.39022 0.0
C609 C 0.87234 0.18717 0.41718 0.0
C610 C 0.85248 0.21163 0.42762 0.0
C611 C 0.82657 0.22254 0.41052 0.0
H612 H 0.54625 0.8012 0.74414 0.0
H613 H 0.68424 0.9081 0.7531 0.0
H614 H 0.69713 0.90509 0.70438 0.0
H615 H 0.57025 0.73737 0.70042 0.0
H616 H 0.52007 0.71801 0.68061 0.0
H617 H 0.51993 0.73308 0.7152 0.0
H618 H 0.49454 0.78936 0.70099 0.0
H619 H 0.49446 0.77433 0.66629 0.0
H620 H 0.52721 0.83182 0.67636 0.0
H621 H 0.69712 0.88437 0.65549 0.0
H622 H 0.68398 0.84882 0.6109 0.0
H623 H 0.54667 0.75391 0.6347 0.0
C624 C 0.57908 0.82438 0.73589 0.0
C625 C 0.61422 0.85488 0.75258 0.0
C626 C 0.65656 0.88485 0.74078 0.0
C627 C 0.66425 0.88324 0.7131 0.0
C628 C 0.62918 0.85173 0.69744 0.0
C629 C 0.58731 0.82308 0.70843 0.0
C630 C 0.55618 0.7901 0.68783 0.0
C631 C 0.54073 0.7418 0.69654 0.0
C632 C 0.51571 0.79682 0.68256 0.0
C633 C 0.58743 0.80373 0.66366 0.0
C634 C 0.62924 0.83964 0.66948 0.0
C635 C 0.66436 0.85652 0.65068 0.0
C636 C 0.65667 0.83584 0.62546 0.0
C637 C 0.61426 0.79846 0.61926 0.0
C638 C 0.57915 0.78285 0.63859 0.0
H639 H 0.84171 0.65791 0.95624 0.0
H640 H 0.88576 0.5633 0.97588 0.0
H641 H 0.85682 0.55707 1.02208 0.0
H642 H 0.86986 0.71477 1.01877 0.0
H643 H 0.82147 0.72244 1.0203 0.0
H644 H 0.84367 0.7181 0.98821 0.0
H645 H 0.76548 0.65248 0.97527 0.0
H646 H 0.74295 0.65681 1.00729 0.0
H647 H 0.73794 0.60447 0.99713 0.0
H648 H 0.82673 0.56391 0.06718 0.0
H649 H 0.79398 0.58065 0.10699 0.0
H650 H 0.76857 0.67003 0.05839 0.0
C651 C 0.84456 0.63533 0.97012 0.0
C652 C 0.86644 0.61137 0.96233 0.0
C653 C 0.86989 0.5826 0.98135 0.0
C654 C 0.85332 0.57863 1.00769 0.0
C655 C 0.83297 0.60344 1.01492 0.0
C656 C 0.82814 0.63095 0.99666 0.0
C657 C 0.80571 0.65463 1.00989 0.0
C658 C 0.83706 0.7055 1.00925 0.0
C659 C 0.76032 0.64129 0.9966 0.0
C660 C 0.79911 0.63638 0.03838 0.0
C661 C 0.81511 0.60693 0.04086 0.0
C662 C 0.81381 0.58673 0.06543 0.0
C663 C 0.79541 0.59665 0.08802 0.0
C664 C 0.77833 0.62641 0.08597 0.0
C665 C 0.78046 0.64648 0.06068 0.0
H666 H 0.18824 0.82502 0.42279 0.0
H667 H 0.15046 0.68848 0.40506 0.0
H668 H 0.16351 0.70687 0.35637 0.0
H669 H 0.1444 0.84938 0.36034 0.0
H670 H 0.19186 0.90513 0.35785 0.0
H671 H 0.17228 0.87929 0.39036 0.0
H672 H 0.2524 0.89346 0.40094 0.0
H673 H 0.27211 0.9189 0.36844 0.0
H674 H 0.279 0.87248 0.37838 0.0
H675 H 0.18648 0.74204 0.31005 0.0
H676 H 0.22125 0.79156 0.2705 0.0
H677 H 0.24821 0.90596 0.31926 0.0
C678 C 0.18124 0.7989 0.4084 0.0
C679 C 0.16712 0.75512 0.41722 0.0
C680 C 0.16025 0.72189 0.39829 0.0
C681 C 0.16764 0.73212 0.37074 0.0
C682 C 0.18246 0.77593 0.36259 0.0
C683 C 0.18928 0.80883 0.38091 0.0
C684 C 0.20989 0.85415 0.36743 0.0
C685 C 0.17768 0.87309 0.36909 0.0
C686 C 0.25608 0.88664 0.37952 0.0
C687 C 0.21456 0.84184 0.33884 0.0
C688 C 0.19779 0.79649 0.33629 0.0
C689 C 0.19942 0.77757 0.3118 0.0
C690 C 0.21911 0.80584 0.28945 0.0
C691 C 0.23761 0.85251 0.29189 0.0
C692 C 0.23475 0.87045 0.31688 0.0
H693 H 0.47142 0.21559 0.74297 0.0
H694 H 0.32741 0.14173 0.7582 0.0
H695 H 0.31358 0.15442 0.71113 0.0
H696 H 0.47201 0.29886 0.69876 0.0
H697 H 0.5153 0.30064 0.67703 0.0
H698 H 0.51363 0.28668 0.71207 0.0
H699 H 0.51091 0.21267 0.69917 0.0
H700 H 0.51292 0.22655 0.66412 0.0
H701 H 0.46766 0.17448 0.67683 0.0
H702 H 0.31599 0.1755 0.66213 0.0
H703 H 0.33433 0.19753 0.61433 0.0
H704 H 0.47666 0.25718 0.63174 0.0
C705 C 0.43701 0.20239 0.73642 0.0
C706 C 0.4005 0.17776 0.75415 0.0
C707 C 0.35585 0.16028 0.74481 0.0
C708 C 0.34771 0.16768 0.71821 0.0
C709 C 0.38459 0.19246 0.70129 0.0
C710 C 0.42834 0.2092 0.70999 0.0
C711 C 0.46208 0.23315 0.68763 0.0
C712 C 0.49254 0.28278 0.69428 0.0
C713 C 0.49002 0.21033 0.68158 0.0
C714 C 0.4305 0.22702 0.66488 0.0
C715 C 0.38595 0.20394 0.67317 0.0
C716 C 0.35077 0.19375 0.65545 0.0
C717 C 0.36147 0.20666 0.62841 0.0
C718 C 0.40689 0.22908 0.61944 0.0
C719 C 0.44167 0.23991 0.63808 0.0
H720 H 0.59482 0.50847 0.22675 0.0
H721 H 0.65015 0.59837 0.15904 0.0
H722 H 0.57524 0.58973 0.15003 0.0
H723 H 0.49212 0.43218 0.19452 0.0
H724 H 0.45693 0.41896 0.22416 0.0
H725 H 0.51566 0.43581 0.22729 0.0
H726 H 0.5277 0.49961 0.25907 0.0
H727 H 0.46886 0.48296 0.25652 0.0
H728 H 0.51137 0.53944 0.24853 0.0
H729 H 0.49255 0.56988 0.1482 0.0
H730 H 0.41002 0.5358 0.15005 0.0
H731 H 0.40473 0.45323 0.21733 0.0
C732 C 0.59138 0.52682 0.21016 0.0
C733 C 0.62977 0.55622 0.19424 0.0
C734 C 0.62266 0.57795 0.17229 0.0
C735 C 0.57973 0.57265 0.16694 0.0
C736 C 0.54306 0.54427 0.18333 0.0
C737 C 0.54834 0.52121 0.20434 0.0
C738 C 0.50281 0.49043 0.21781 0.0
C739 C 0.49116 0.44143 0.21581 0.0
C740 C 0.50269 0.50392 0.24723 0.0
C741 C 0.47093 0.49936 0.20094 0.0
C742 C 0.49513 0.53108 0.18143 0.0
C743 C 0.47348 0.54496 0.16338 0.0
C744 C 0.42617 0.52535 0.16472 0.0
C745 C 0.39981 0.49146 0.18382 0.0
C746 C 0.42319 0.4791 0.20253 0.0
H747 H 0.98138 0.39504 0.49836 0.0
H748 H 0.92067 0.37364 0.57767 0.0
H749 H 0.97353 0.45386 0.58827 0.0
H750 H 0.09621 0.47018 0.51929 0.0
H751 H 0.10958 0.50197 0.4885 0.0
H752 H 0.06804 0.44349 0.48864 0.0
H753 H 1.00916 0.46154 0.46846 0.0
H754 H 0.05053 0.51985 0.468 0.0
H755 H 0.99753 0.50103 0.48524 0.0
H756 H 0.03343 0.54303 0.58719 0.0
H757 H 0.08657 0.62203 0.57475 0.0
H758 H 0.10773 0.57856 0.49709 0.0
C759 C 0.97853 0.40678 0.51806 0.0
C760 C 0.9456 0.37754 0.53693 0.0
C761 C 0.94495 0.39496 0.56266 0.0
C762 C 0.97513 0.44068 0.56881 0.0
C763 C 1.00678 0.46854 0.54933 0.0
C764 C 1.00862 0.45138 0.52458 0.0
C765 C 0.04479 0.48657 0.50659 0.0
C766 C 0.08184 0.47486 0.50039 0.0
C767 C 0.02426 0.4926 0.48056 0.0
C768 C 0.06236 0.52735 0.52436 0.0
C769 C 0.0407 0.51688 0.54912 0.0
C770 C 0.05052 0.55085 0.56789 0.0
C771 C 0.08132 0.596 0.56073 0.0
C772 C 0.10186 0.60739 0.5348 0.0
C773 C 0.09319 0.57175 0.51713 0.0
H774 H 0.49132 0.07317 0.82381 0.0
H775 H 0.47126 0.09165 0.90796 0.0
H776 H 0.4912 0.03346 0.91995 0.0
H777 H 0.43818 0.9564 0.8271 0.0
H778 H 0.47478 0.95268 0.80223 0.0
H779 H 0.46403 0.99863 0.80137 0.0
H780 H 0.5499 0.05493 0.80333 0.0
H781 H 0.56087 0.00909 0.80369 0.0
H782 H 0.58276 0.05019 0.82998 0.0
H783 H 0.51565 0.96937 0.92117 0.0
H784 H 0.5359 0.91058 0.91129 0.0
H785 H 0.52971 0.93271 0.8261 0.0
C786 C 0.49196 0.06622 0.84497 0.0
C787 C 0.4804 0.08842 0.8649 0.0
C788 C 0.48069 0.07623 0.89217 0.0
C789 C 0.49174 0.04278 0.89913 0.0
C790 C 0.5018 0.02093 0.87864 0.0
C791 C 0.50155 0.0325 0.85208 0.0
C792 C 0.51016 1.00309 0.83318 0.0
C793 C 0.46937 0.97611 0.8149 0.0
C794 C 0.55349 0.03099 0.81657 0.0
C795 C 0.51587 0.973 0.85297 0.0
C796 C 0.51169 0.98365 0.87923 0.0
C797 C 0.51822 0.9608 0.90057 0.0
C798 C 0.52949 0.92708 0.89481 0.0
C799 C 0.5334 0.9156 0.86788 0.0
C800 C 0.52585 0.93909 0.84698 0.0
H801 H 0.47133 0.39068 0.54458 0.0
H802 H 0.52407 0.37963 0.46736 0.0
H803 H 0.55014 0.46016 0.45846 0.0
H804 H 0.42994 0.46387 0.52145 0.0
H805 H 0.44207 0.49261 0.55315 0.0
H806 H 0.42805 0.43501 0.55203 0.0
H807 H 0.50264 0.4553 0.57643 0.0
H808 H 0.5167 0.5128 0.57757 0.0
H809 H 0.55539 0.49791 0.56236 0.0
H810 H 0.57699 0.5486 0.46156 0.0
H811 H 0.59579 0.62545 0.4749 0.0
H812 H 0.51723 0.5717 0.54795 0.0
C813 C 0.48851 0.40496 0.5257 0.0
C814 C 0.49625 0.3785 0.50689 0.0
C815 C 0.51781 0.39883 0.48223 0.0
C816 C 0.53273 0.44475 0.47707 0.0
C817 C 0.52479 0.46987 0.49641 0.0
C818 C 0.50221 0.44978 0.52002 0.0
C819 C 0.49637 0.48225 0.53777 0.0
C820 C 0.44614 0.46756 0.5413 0.0
C821 C 0.51914 0.48736 0.56514 0.0
C822 C 0.52065 0.52472 0.52121 0.0
C823 C 0.53708 0.5176 0.49734 0.0
C824 C 0.56333 0.55375 0.48004 0.0
C825 C 0.57363 0.59758 0.48766 0.0
C826 C 0.55774 0.60539 0.51241 0.0
C827 C 0.52981 0.56766 0.52873 0.0
H828 H 0.94742 0.54413 0.88938 0.0
H829 H 0.91127 0.53094 0.80536 0.0
H830 H 0.96808 0.50757 0.79529 0.0
H831 H 0.06671 0.59316 0.87695 0.0
H832 H 0.07526 0.56696 0.90592 0.0
H833 H 0.03028 0.57984 0.90596 0.0
H834 H 0.97226 0.49716 0.9166 0.0
H835 H 0.01708 0.48416 0.91692 0.0
H836 H 0.96964 0.45396 0.89508 0.0
H837 H 0.02947 0.4801 0.79627 0.0
H838 H 0.0872 0.45876 0.8077 0.0
H839 H 0.08686 0.50108 0.88975 0.0
C840 C 0.95104 0.53603 0.86882 0.0
C841 C 0.92401 0.5387 0.84826 0.0
C842 C 0.93097 0.52865 0.82158 0.0
C843 C 0.9634 0.51544 0.81569 0.0
C844 C 0.98972 0.51342 0.83656 0.0
C845 C 0.98402 0.52426 0.86254 0.0
C846 C 0.01733 0.52198 0.88146 0.0
C847 C 0.04929 0.56823 0.89326 0.0
C848 C 0.9926 0.48725 0.90382 0.0
C849 C 0.04225 0.50713 0.86247 0.0
C850 C 0.02597 0.50172 0.83662 0.0
C851 C 0.04269 0.48514 0.81644 0.0
C852 C 0.07591 0.47332 0.82303 0.0
C853 C 0.09286 0.47861 0.84956 0.0
C854 C 0.07591 0.49685 0.86907 0.0
H855 H 0.62205 0.06619 0.15325 0.0
H856 H 0.62065 0.13605 0.22536 0.0
H857 H 0.53799 0.09097 0.22739 0.0
H858 H 0.51103 0.0489 0.126 0.0
H859 H 0.49557 0.99428 0.1134 0.0
H860 H 0.55412 0.03682 0.11485 0.0
H861 H 0.57098 0.98398 0.14324 0.0
H862 H 0.51248 0.94162 0.14188 0.0
H863 H 0.53955 0.96032 0.17393 0.0
H864 H 0.45732 0.02674 0.22812 0.0
H865 H 0.38313 0.95952 0.22101 0.0
H866 H 0.43188 0.9333 0.14684 0.0
C867 C 0.60453 0.07319 0.16899 0.0
C868 C 0.62892 0.10517 0.18932 0.0
C869 C 0.60346 0.11248 0.20935 0.0
C870 C 0.55618 0.08643 0.21093 0.0
C871 C 0.53362 0.05298 0.19202 0.0
C872 C 0.55668 0.04716 0.17086 0.0
C873 C 0.52389 0.00743 0.15387 0.0
C874 C 0.52098 0.02278 0.12533 0.0
C875 C 0.53757 0.97122 0.1532 0.0
C876 C 0.47949 0.99123 0.16928 0.0
C877 C 0.48606 0.01789 0.19136 0.0
C878 C 0.45143 0.00698 0.21017 0.0
C879 C 0.40888 0.96888 0.20591 0.0
C880 C 0.39993 0.94255 0.18258 0.0
C881 C 0.43656 0.95365 0.16438 0.0
H882 H 0.11299 0.26844 0.1642 0.0
H883 H 0.14621 0.39476 0.20085 0.0
H884 H 0.06461 0.37236 0.20048 0.0
H885 H 0.02204 0.25702 0.12149 0.0
H886 H 0.98996 0.19752 0.1266 0.0
H887 H 0.0506 0.226 0.12791 0.0
H888 H 0.04644 0.19359 0.1755 0.0
H889 H 0.98593 0.16482 0.17425 0.0
H890 H 1.01473 0.20222 0.2016 0.0
H891 H 0.97347 0.32974 0.19815 0.0
H892 H 0.89128 0.27437 0.1964 0.0
H893 H 0.92232 0.17777 0.16201 0.0
C894 C 0.10369 0.29205 0.17196 0.0
C895 C 0.13691 0.33377 0.1825 0.0
C896 C 0.12209 0.36289 0.19241 0.0
C897 C 0.0755 0.3502 0.19231 0.0
C898 C 0.04371 0.30826 0.1821 0.0
C899 C 0.05785 0.27991 0.17207 0.0
C900 C 0.01821 0.23572 0.16343 0.0
C901 C 0.02034 0.22867 0.13305 0.0
C902 C 1.01622 0.19682 0.17967 0.0
C903 C 0.9789 0.24269 0.17043 0.0
C904 C 0.99368 0.28477 0.18092 0.0
C905 C 0.96218 0.2971 0.18963 0.0
C906 C 0.91525 0.26555 0.18826 0.0
C907 C 0.89983 0.22181 0.1784 0.0
C908 C 0.93261 0.21113 0.16905 0.0
H909 H 0.76624 0.89724 0.54177 0.0
H910 H 0.64225 0.86771 0.50189 0.0
H911 H 0.66557 0.94866 0.50391 0.0
H912 H 0.77009 0.97954 0.58716 0.0
H913 H 0.83067 0.01256 0.58551 0.0
H914 H 0.80328 0.95312 0.5807 0.0
H915 H 0.8434 0.96478 0.53454 0.0
H916 H 0.87149 0.02413 0.53942 0.0
H917 H 0.83848 1.00007 0.50967 0.0
H918 H 0.70769 0.03846 0.51069 0.0
H919 H 0.7622 0.11922 0.51781 0.0
H920 H 0.85524 0.08436 0.55383 0.0
C921 C 0.74347 0.90716 0.5333 0.0
C922 C 0.7021 0.87521 0.52152 0.0
C923 C 0.67413 0.89096 0.51088 0.0
C924 C 0.68718 0.9371 0.51213 0.0
C925 C 0.72822 0.9674 0.52428 0.0
C926 C 0.75573 0.9524 0.53456 0.0
C927 C 0.79843 0.99023 0.54633 0.0
C928 C 0.80073 0.98344 0.57672 0.0
C929 C 0.84041 0.99509 0.5316 0.0
C930 C 0.79177 0.02968 0.5408 0.0
C931 C 0.75102 0.01643 0.52832 0.0
C932 C 0.73925 0.04849 0.52073 0.0
C933 C 0.7702 0.09452 0.52521 0.0
C934 C 0.81271 0.10846 0.53714 0.0
C935 C 0.82268 0.07505 0.54533 0.0
H936 H 0.74238 0.83078 0.83544 0.0
H937 H 0.62989 0.75274 0.88935 0.0
H938 H 0.6562 0.69732 0.89386 0.0
H939 H 0.7446 0.7396 0.80148 0.0
H940 H 0.80525 0.76892 0.79921 0.0
H941 H 0.77541 0.79965 0.79954 0.0
H942 H 0.82197 0.84525 0.84044 0.0
H943 H 0.8522 0.81501 0.84005 0.0
H944 H 0.8234 0.81631 0.87025 0.0
H945 H 0.70071 0.65099 0.89298 0.0
H946 H 0.75696 0.62519 0.88908 0.0
H947 H 0.8383 0.73648 0.83623 0.0
C948 C 0.7226 0.80197 0.84814 0.0
C949 C 0.68359 0.79652 0.86197 0.0
C950 C 0.65963 0.75801 0.87839 0.0
C951 C 0.67449 0.72626 0.88101 0.0
C952 C 0.71342 0.73318 0.86706 0.0
C953 C 0.73693 0.7705 0.85098 0.0
C954 C 0.77871 0.77254 0.83877 0.0
C955 C 0.7758 0.77002 0.80792 0.0
C956 C 0.82159 0.81476 0.84793 0.0
C957 C 0.77596 0.73081 0.85054 0.0
C958 C 0.738 0.70786 0.86665 0.0
C959 C 0.73006 0.66881 0.88012 0.0
C960 C 0.76196 0.65393 0.87757 0.0
C961 C 0.80163 0.67802 0.86175 0.0
C962 C 0.80788 0.71658 0.84794 0.0
H963 H 0.92027 0.77595 0.16909 0.0
H964 H 0.8849 0.64318 0.19617 0.0
H965 H 0.96671 0.66778 0.19991 0.0
H966 H 0.01935 0.7997 0.13018 0.0
H967 H 0.04885 0.85753 0.13988 0.0
H968 H 0.98826 0.82782 0.13808 0.0
H969 H 0.9831 0.84868 0.1875 0.0
H970 H 0.04359 0.87859 0.18941 0.0
H971 H 1.01086 0.83496 0.21339 0.0
H972 H 0.05783 0.71177 0.20117 0.0
H973 H 0.13997 0.76777 0.2026 0.0
H974 H 0.11051 0.86976 0.176 0.0
C975 C 0.92922 0.75148 0.17559 0.0
C976 C 0.89535 0.7072 0.18211 0.0
C977 C 0.90967 0.67712 0.19083 0.0
C978 C 0.95633 0.69097 0.19301 0.0
C979 C 0.9887 0.73519 0.18649 0.0
C980 C 0.97513 0.76478 0.17804 0.0
C981 C 1.01517 0.81095 0.17325 0.0
C982 C 0.01806 0.8248 0.14358 0.0
C983 C 1.01304 0.8453 0.19201 0.0
C984 C 0.05389 0.80347 0.18047 0.0
C985 C 0.03863 0.75961 0.1878 0.0
C986 C 0.06955 0.74603 0.19537 0.0
C987 C 0.1164 0.77802 0.19595 0.0
C988 C 0.13214 0.82338 0.18934 0.0
C989 C 0.09998 0.83549 0.18121 0.0
H990 H 0.19485 0.89931 0.54465 0.0
H991 H 0.28656 0.86566 0.50469 0.0
H992 H 0.34218 0.94661 0.49927 0.0
H993 H 0.21345 0.98692 0.50311 0.0
H994 H 0.20876 0.02079 0.52909 0.0
H995 H 0.18011 0.96114 0.53289 0.0
H996 H 0.22012 0.96885 0.57819 0.0
H997 H 0.24831 0.02866 0.5748 0.0
H998 H 0.28074 1.00109 0.57962 0.0
H999 H 0.38528 0.03646 0.49424 0.0
H1000 H 0.40914 0.11754 0.49316 0.0
H1001 H 0.28669 0.08778 0.53638 0.0
C1002 C 0.22747 0.90887 0.53579 0.0
C1003 C 0.23677 0.87568 0.52605 0.0
C1004 C 0.27915 0.89005 0.5134 0.0
C1005 C 0.31075 0.93624 0.50988 0.0
C1006 C 0.29975 0.96814 0.51909 0.0
C1007 C 0.25908 0.95451 0.53222 0.0
C1008 C 0.25315 0.99409 0.53911 0.0
C1009 C 0.21141 0.9905 0.52522 0.0
C1010 C 0.25043 0.99843 0.56975 0.0
C1011 C 0.2963 0.0324 0.52756 0.0
C1012 C 0.32324 0.01746 0.51606 0.0
C1013 C 0.36421 0.048 0.5035 0.0
C1014 C 0.37764 0.09426 0.50289 0.0
C1015 C 0.35023 0.11 0.51467 0.0
C1016 C 0.30912 0.07788 0.52714 0.0
H1017 H 0.17021 0.26304 0.86998 0.0
H1018 H 0.27164 0.39297 0.84054 0.0
H1019 H 0.32803 0.36696 0.84077 0.0
H1020 H 0.24019 0.24469 0.91481 0.0
H1021 H 0.21275 0.18568 0.90823 0.0
H1022 H 0.18182 0.21507 0.90513 0.0
H1023 H 0.16114 0.18772 0.85606 0.0
H1024 H 0.19122 0.15755 0.85919 0.0
H1025 H 0.20535 0.19756 0.83237 0.0
H1026 H 0.37423 0.32237 0.84562 0.0
H1027 H 0.39927 0.266 0.84976 0.0
H1028 H 0.26523 0.16804 0.87627 0.0
C1029 C 0.20423 0.28646 0.86344 0.0
C1030 C 0.21607 0.3304 0.85524 0.0
C1031 C 0.26122 0.35915 0.84673 0.0
C1032 C 0.29361 0.34457 0.84705 0.0
C1033 C 0.28058 0.30107 0.85591 0.0
C1034 C 0.23648 0.27258 0.86368 0.0
C1035 C 0.2294 0.22729 0.87205 0.0
C1036 C 0.2152 0.21764 0.90182 0.0
C1037 C 0.19475 0.19037 0.85383 0.0
C1038 C 0.27623 0.2339 0.86768 0.0
C1039 C 0.30586 0.27664 0.85861 0.0
C1040 C 0.35094 0.28912 0.85289 0.0
C1041 C 0.36524 0.25701 0.85566 0.0
C1042 C 0.33464 0.21267 0.86402 0.0
C1043 C 0.28986 0.20179 0.87042 0.0
H1044 H 0.39955 0.28459 0.23856 0.0
H1045 H 0.43239 0.32315 0.15501 0.0
H1046 H 0.46624 0.27563 0.15108 0.0
H1047 H 0.4955 0.25047 0.24946 0.0
H1048 H 0.45597 0.20462 0.27018 0.0
H1049 H 0.4571 0.25737 0.27128 0.0
H1050 H 0.37201 0.21695 0.26067 0.0
H1051 H 0.37063 0.16472 0.25922 0.0
H1052 H 0.35201 0.18341 0.23072 0.0
H1053 H 0.46377 0.20553 0.14942 0.0
H1054 H 0.42788 0.12436 0.15084 0.0
H1055 H 0.39845 0.12524 0.23568 0.0
C1056 C 0.41581 0.28433 0.21986 0.0
C1057 C 0.41284 0.30697 0.19709 0.0
C1058 C 0.43454 0.30646 0.17289 0.0
C1059 C 0.45407 0.27944 0.17049 0.0
C1060 C 0.45187 0.25332 0.19246 0.0
C1061 C 0.43443 0.25652 0.21709 0.0
C1062 C 0.42565 0.21787 0.23536 0.0
C1063 C 0.46066 0.23353 0.25789 0.0
C1064 C 0.37722 0.19437 0.24709 0.0
C1065 C 0.43303 0.18877 0.21558 0.0
C1066 C 0.45087 0.21097 0.19149 0.0
C1067 C 0.45164 0.18833 0.16846 0.0
C1068 C 0.43096 0.14184 0.16945 0.0
C1069 C 0.40981 0.11837 0.19339 0.0
C1070 C 0.414 0.1425 0.21708 0.0
H1071 H 0.28317 0.35918 0.55731 0.0
H1072 H 0.32308 0.375 0.47321 0.0
H1073 H 0.26723 0.39699 0.46271 0.0
H1074 H 0.17521 0.30294 0.54708 0.0
H1075 H 0.15651 0.326 0.57339 0.0
H1076 H 0.2093 0.32736 0.57644 0.0
H1077 H 0.25028 0.41318 0.58238 0.0
H1078 H 0.19716 0.41202 0.57942 0.0
H1079 H 0.24364 0.4474 0.55751 0.0
H1080 H 0.19477 0.39355 0.45837 0.0
H1081 H 0.11349 0.36882 0.46179 0.0
H1082 H 0.11898 0.35644 0.54812 0.0
C1083 C 0.28126 0.36906 0.53692 0.0
C1084 C 0.30791 0.36584 0.51627 0.0
C1085 C 0.30408 0.37834 0.48967 0.0
C1086 C 0.27222 0.39089 0.4834 0.0
C1087 C 0.24456 0.39118 0.50392 0.0
C1088 C 0.24927 0.38141 0.53031 0.0
C1089 C 0.21041 0.37621 0.54762 0.0
C1090 C 0.18646 0.33042 0.56192 0.0
C1091 C 0.22634 0.4145 0.56793 0.0
C1092 C 0.1811 0.37997 0.52633 0.0
C1093 C 0.20196 0.39003 0.50137 0.0
C1094 C 0.17862 0.3875 0.47792 0.0
C1095 C 0.13252 0.37316 0.47995 0.0
C1096 C 0.11063 0.36174 0.50524 0.0
C1097 C 0.13557 0.36676 0.52869 0.0
H1098 H 0.77089 0.1161 0.82234 0.0
H1099 H 0.71523 0.07319 0.90262 0.0
H1100 H 0.7715 0.14548 0.92074 0.0
H1101 H 0.88091 0.16622 0.84084 0.0
H1102 H 0.9017 0.21231 0.81751 0.0
H1103 H 0.85159 0.16087 0.80988 0.0
H1104 H 0.80742 0.20341 0.80426 0.0
H1105 H 0.85764 0.25513 0.81198 0.0
H1106 H 0.8067 0.23789 0.83124 0.0
H1107 H 0.84128 0.21537 0.93163 0.0
H1108 H 0.91912 0.27961 0.93355 0.0
H1109 H 0.92841 0.27783 0.84663 0.0
C1110 C 0.76984 0.12259 0.84355 0.0
C1111 C 0.73809 0.08951 0.86087 0.0
C1112 C 0.73831 0.09861 0.88873 0.0
C1113 C 0.77025 0.13957 0.89932 0.0
C1114 C 0.80163 0.17129 0.88181 0.0
C1115 C 0.80148 0.16351 0.85447 0.0
C1116 C 0.84194 0.20111 0.84059 0.0
C1117 C 0.87072 0.1841 0.8264 0.0
C1118 C 0.82755 0.22585 0.82085 0.0
C1119 C 0.86584 0.22981 0.86457 0.0
C1120 C 0.84185 0.21248 0.88816 0.0
C1121 C 0.85989 0.23026 0.91325 0.0
C1122 C 0.90398 0.26647 0.91422 0.0
C1123 C 0.92898 0.28424 0.89024 0.0
C1124 C 0.90924 0.26609 0.8652 0.0
H1125 H 0.66551 0.91897 0.25218 0.0
H1126 H 0.60063 0.91198 0.17604 0.0
H1127 H 0.56403 0.83171 0.17734 0.0
H1128 H 0.70475 0.85666 0.2334 0.0
H1129 H 0.69892 0.8268 0.26429 0.0
H1130 H 0.70239 0.88009 0.26538 0.0
H1131 H 0.6266 0.84553 0.2916 0.0
H1132 H 0.62291 0.79162 0.2904 0.0
H1133 H 0.57731 0.79836 0.27791 0.0
H1134 H 0.55732 0.75989 0.17613 0.0
H1135 H 0.58491 0.70642 0.17234 0.0
H1136 H 0.65667 0.75456 0.24695 0.0
C1137 C 0.64274 0.9006 0.2361 0.0
C1138 C 0.63655 0.92291 0.21414 0.0
C1139 C 0.60576 0.897 0.19374 0.0
C1140 C 0.58441 0.85057 0.1942 0.0
C1141 C 0.59434 0.82987 0.21487 0.0
C1142 C 0.62258 0.85405 0.2357 0.0
C1143 C 0.63696 0.82585 0.25155 0.0
C1144 C 0.68877 0.84869 0.25371 0.0
C1145 C 0.61459 0.81467 0.27952 0.0
C1146 C 0.61773 0.78462 0.23408 0.0
C1147 C 0.59091 0.7865 0.21397 0.0
C1148 C 0.57664 0.75696 0.19233 0.0
C1149 C 0.59247 0.72678 0.19021 0.0
C1150 C 0.62192 0.72641 0.20968 0.0
C1151 C 0.63268 0.75368 0.23253 0.0
H1152 H 0.71968 0.58231 0.55025 0.0
H1153 H 0.76557 0.68857 0.60942 0.0
H1154 H 0.83927 0.69533 0.60886 0.0
H1155 H 0.80773 0.54445 0.56693 0.0
H1156 H 0.8138 0.53739 0.53152 0.0
H1157 H 0.75979 0.5252 0.54513 0.0
H1158 H 0.75704 0.57916 0.51015 0.0
H1159 H 0.81167 0.59332 0.4972 0.0
H1160 H 0.80144 0.63664 0.50942 0.0
H1161 H 0.9115 0.71289 0.5904 0.0
H1162 H 0.97646 0.72667 0.56189 0.0
H1163 H 0.88949 0.6141 0.51191 0.0
C1164 C 0.74471 0.60615 0.56372 0.0
C1165 C 0.73645 0.63611 0.57887 0.0
C1166 C 0.76986 0.66507 0.59722 0.0
C1167 C 0.81267 0.66956 0.59701 0.0
C1168 C 0.82163 0.64469 0.57861 0.0
C1169 C 0.78831 0.61226 0.56289 0.0
C1170 C 0.80847 0.59638 0.54119 0.0
C1171 C 0.79677 0.54798 0.54652 0.0
C1172 C 0.79377 0.60174 0.51284 0.0
C1173 C 0.8581 0.62832 0.54547 0.0
C1174 C 0.86482 0.6551 0.5676 0.0
C1175 C 0.9069 0.69116 0.57361 0.0
C1176 C 0.9433 0.69937 0.55702 0.0
C1177 C 0.93727 0.67181 0.53466 0.0
C1178 C 0.8944 0.63559 0.52891 0.0
H1179 H 0.2661 0.913 0.79051 0.0
H1180 H 0.32809 0.90895 0.86582 0.0
H1181 H 0.27744 0.82999 0.8692 0.0
H1182 H 0.16514 0.86077 0.81373 0.0
H1183 H 0.13585 0.82785 0.78484 0.0
H1184 H 0.18836 0.87839 0.78036 0.0
H1185 H 0.22146 0.83522 0.75534 0.0
H1186 H 0.16841 0.78426 0.7596 0.0
H1187 H 0.21978 0.78741 0.77108 0.0
H1188 H 0.20749 0.76244 0.87511 0.0
H1189 H 0.12568 0.71112 0.88046 0.0
H1190 H 0.10237 0.75472 0.80377 0.0
C1191 C 0.26997 0.89545 0.80734 0.0
C1192 C 0.30171 0.91857 0.82774 0.0
C1193 C 0.3056 0.89344 0.84918 0.0
C1194 C 0.27638 0.84769 0.8515 0.0
C1195 C 0.24279 0.82691 0.83253 0.0
C1196 C 0.23972 0.84974 0.8105 0.0
C1197 C 0.19495 0.82263 0.79652 0.0
C1198 C 0.16962 0.84898 0.79376 0.0
C1199 C 0.20156 0.8064 0.769 0.0
C1200 C 0.17158 0.78405 0.81611 0.0
C1201 C 0.20049 0.7861 0.83608 0.0
C1202 C 0.1849 0.75917 0.85905 0.0
C1203 C 0.13854 0.73046 0.86211 0.0
C1204 C 0.10875 0.72905 0.84227 0.0
C1205 C 0.12535 0.75473 0.81864 0.0
loop_
_geom_bond_atom_site_label_1
_geom_bond_atom_site_label_2
_geom_bond_distance
_geom_bond_site_symmetry_2
_ccdc_geom_bond_type
C0 C1 1.351 . S
C0 N3 1.368 . S
C0 H5 0.931 . S
C1 C0 1.351 . S
C1 N2 1.373 . S
C1 H29 0.930 . S
N2 C1 1.373 . S
N2 C4 1.340 . S
N3 C0 1.368 . S
N3 C4 1.321 . S
N3 Co6 2.135 . S
C4 N2 1.340 . S
C4 N3 1.321 . S
C4 H28 0.930 . S
H5 C0 0.931 . S
Co6 N3 2.135 . S
Co6 N9 2.121 . S
Co6 O14 2.055 . S
Co6 O17 2.039 . S
Co6 N20 2.140 . S
C7 O8 1.227 . S
C7 O17 1.265 . S
O8 C7 1.227 . S
N9 Co6 2.121 . S
N9 C11 1.375 . S
N9 C12 1.313 . S
C10 C11 1.338 . S
C10 N13 1.377 . S
C10 H30 0.930 . S
C11 N9 1.375 . S
C11 C10 1.338 . S
C11 H15 0.931 . S
C12 N9 1.313 . S
C12 N13 1.344 . S
C12 H16 0.930 . S
N13 C10 1.377 . S
N13 C12 1.344 . S
O14 Co6 2.055 . S
O14 C18 1.253 . S
H15 C11 0.931 . S
H16 C12 0.930 . S
O17 Co6 2.039 . S
O17 C7 1.265 . S
C18 O14 1.253 . S
C18 O19 1.227 . S
O19 C18 1.227 . S
N20 Co6 2.140 . S
N20 C23 1.346 . S
N20 C24 1.345 . S
C21 C22 1.387 . S
C21 C25 1.391 . S
C22 C21 1.387 . S
C22 C23 1.369 . S
C22 H31 0.929 . S
C23 N20 1.346 . S
C23 C22 1.369 . S
C23 H26 0.928 . S
C24 N20 1.345 . S
C24 C25 1.371 . S
C24 H27 0.931 . S
C25 C21 1.391 . S
C25 C24 1.371 . S
C25 H32 0.930 . S
H26 C23 0.928 . S
H27 C24 0.931 . S
H28 C4 0.930 . S
H29 C1 0.930 . S
H30 C10 0.930 . S
H31 C22 0.929 . S
H32 C25 0.930 . S
C33 C34 1.351 . S
C33 N36 1.368 . S
C33 H38 0.931 . S
C34 C33 1.351 . S
C34 N35 1.373 . S
C34 H62 0.930 . S
N35 C34 1.373 . S
N35 C37 1.340 . S
N36 C33 1.368 . S
N36 C37 1.321 . S
N36 Co39 2.135 . S
C37 N35 1.340 . S
C37 N36 1.321 . S
C37 H61 0.930 . S
H38 C33 0.931 . S
Co39 N36 2.135 . S
Co39 N42 2.121 . S
Co39 O47 2.055 . S
Co39 O50 2.039 . S
Co39 N53 2.140 . S
C40 O41 1.227 . S
C40 O50 1.265 . S
O41 C40 1.227 . S
N42 Co39 2.121 . S
N42 C44 1.375 . S
N42 C45 1.313 . S
C43 C44 1.338 . S
C43 N46 1.377 . S
C43 H63 0.930 . S
C44 N42 1.375 . S
C44 C43 1.338 . S
C44 H48 0.931 . S
C45 N42 1.313 . S
C45 N46 1.344 . S
C45 H49 0.930 . S
N46 C43 1.377 . S
N46 C45 1.344 . S
O47 Co39 2.055 . S
O47 C51 1.253 . S
H48 C44 0.931 . S
H49 C45 0.930 . S
O50 Co39 2.039 . S
O50 C40 1.265 . S
C51 O47 1.253 . S
C51 O52 1.227 . S
O52 C51 1.227 . S
N53 Co39 2.140 . S
N53 C56 1.346 . S
N53 C57 1.345 . S
C54 C55 1.387 . S
C54 C58 1.391 1_455 S
C55 C54 1.387 . S
C55 C56 1.369 1_455 S
C55 H64 0.929 . S
C56 N53 1.346 . S
C56 C55 1.369 1_655 S
C56 H59 0.928 . S
C57 N53 1.345 . S
C57 C58 1.371 . S
C57 H60 0.931 . S
C58 C54 1.391 1_655 S
C58 C57 1.371 . S
C58 H65 0.930 . S
H59 C56 0.928 . S
H60 C57 0.931 . S
H61 C37 0.930 . S
H62 C34 0.930 . S
H63 C43 0.930 . S
H64 C55 0.929 . S
H65 C58 0.930 . S
C66 C67 1.351 . S
C66 N69 1.368 . S
C66 H71 0.931 . S
C67 C66 1.351 . S
C67 N68 1.373 . S
C67 H95 0.930 . S
N68 C67 1.373 . S
N68 C70 1.340 . S
N69 C66 1.368 . S
N69 C70 1.321 . S
N69 Co72 2.135 . S
C70 N68 1.340 . S
C70 N69 1.321 . S
C70 H94 0.930 . S
H71 C66 0.931 . S
Co72 N69 2.135 . S
Co72 N75 2.121 . S
Co72 O80 2.055 . S
Co72 O83 2.039 . S
Co72 N86 2.140 . S
C73 O74 1.227 . S
C73 O83 1.265 . S
O74 C73 1.227 . S
N75 Co72 2.121 . S
N75 C77 1.375 . S
N75 C78 1.313 . S
C76 C77 1.338 . S
C76 N79 1.377 . S
C76 H96 0.930 . S
C77 N75 1.375 . S
C77 C76 1.338 . S
C77 H81 0.931 . S
C78 N75 1.313 . S
C78 N79 1.344 . S
C78 H82 0.930 . S
N79 C76 1.377 . S
N79 C78 1.344 . S
O80 Co72 2.055 . S
O80 C84 1.253 . S
H81 C77 0.931 . S
H82 C78 0.930 . S
O83 Co72 2.039 . S
O83 C73 1.265 . S
C84 O80 1.253 . S
C84 O85 1.227 . S
O85 C84 1.227 . S
N86 Co72 2.140 . S
N86 C89 1.346 . S
N86 C90 1.345 . S
C87 C88 1.387 . S
C87 C91 1.391 1_545 S
C88 C87 1.387 . S
C88 C89 1.369 1_545 S
C88 H97 0.929 . S
C89 N86 1.346 . S
C89 C88 1.369 1_565 S
C89 H92 0.928 . S
C90 N86 1.345 . S
C90 C91 1.371 . S
C90 H93 0.931 . S
C91 C87 1.391 1_565 S
C91 C90 1.371 . S
C91 H98 0.930 . S
H92 C89 0.928 . S
H93 C90 0.931 . S
H94 C70 0.930 . S
H95 C67 0.930 . S
H96 C76 0.930 . S
H97 C88 0.929 . S
H98 C91 0.930 . S
C99 C100 1.351 . S
C99 N102 1.368 . S
C99 H104 0.931 . S
C100 C99 1.351 . S
C100 N101 1.373 . S
C100 H128 0.930 . S
N101 C100 1.373 . S
N101 C103 1.340 . S
N102 C99 1.368 . S
N102 C103 1.321 . S
N102 Co105 2.135 . S
C103 N101 1.340 . S
C103 N102 1.321 . S
C103 H127 0.930 . S
H104 C99 0.931 . S
Co105 N102 2.135 . S
Co105 N108 2.121 . S
Co105 O113 2.055 . S
Co105 O116 2.039 . S
Co105 N119 2.140 . S
C106 O107 1.227 . S
C106 O116 1.265 . S
O107 C106 1.227 . S
N108 Co105 2.121 . S
N108 C110 1.375 . S
N108 C111 1.313 . S
C109 C110 1.338 . S
C109 N112 1.377 . S
C109 H129 0.930 . S
C110 N108 1.375 . S
C110 C109 1.338 . S
C110 H114 0.931 . S
C111 N108 1.313 . S
C111 N112 1.344 . S
C111 H115 0.930 . S
N112 C109 1.377 . S
N112 C111 1.344 . S
O113 Co105 2.055 . S
O113 C117 1.253 . S
H114 C110 0.931 . S
H115 C111 0.930 . S
O116 Co105 2.039 . S
O116 C106 1.265 . S
C117 O113 1.253 . S
C117 O118 1.227 . S
O118 C117 1.227 . S
N119 Co105 2.140 . S
N119 C122 1.346 . S
N119 C123 1.345 . S
C120 C121 1.387 . S
C120 C124 1.391 . S
C121 C120 1.387 . S
C121 C122 1.369 . S
C121 H130 0.929 . S
C122 N119 1.346 . S
C122 C121 1.369 . S
C122 H125 0.928 . S
C123 N119 1.345 . S
C123 C124 1.371 . S
C123 H126 0.931 . S
C124 C120 1.391 . S
C124 C123 1.371 . S
C124 H131 0.930 . S
H125 C122 0.928 . S
H126 C123 0.931 . S
H127 C103 0.930 . S
H128 C100 0.930 . S
H129 C109 0.930 . S
H130 C121 0.929 . S
H131 C124 0.930 . S
C132 C133 1.351 . S
C132 N135 1.368 . S
C132 H137 0.931 . S
C133 C132 1.351 . S
C133 N134 1.373 . S
C133 H161 0.930 . S
N134 C133 1.373 . S
N134 C136 1.340 . S
N135 C132 1.368 . S
N135 C136 1.321 . S
N135 Co138 2.135 . S
C136 N134 1.340 . S
C136 N135 1.321 . S
C136 H160 0.930 . S
H137 C132 0.931 . S
Co138 N135 2.135 . S
Co138 N141 2.121 . S
Co138 O146 2.055 . S
Co138 O149 2.039 . S
Co138 N152 2.140 . S
C139 O140 1.227 . S
C139 O149 1.265 . S
O140 C139 1.227 . S
N141 Co138 2.121 . S
N141 C143 1.375 . S
N141 C144 1.313 . S
C142 C143 1.338 . S
C142 N145 1.377 . S
C142 H162 0.930 . S
C143 N141 1.375 . S
C143 C142 1.338 . S
C143 H147 0.931 . S
C144 N141 1.313 . S
C144 N145 1.344 . S
C144 H148 0.930 . S
N145 C142 1.377 . S
N145 C144 1.344 . S
O146 Co138 2.055 . S
O146 C150 1.253 . S
H147 C143 0.931 . S
H148 C144 0.930 . S
O149 Co138 2.039 . S
O149 C139 1.265 . S
C150 O146 1.253 . S
C150 O151 1.227 . S
O151 C150 1.227 . S
N152 Co138 2.140 . S
N152 C155 1.346 . S
N152 C156 1.345 . S
C153 C154 1.387 . S
C153 C157 1.391 1_655 S
C154 C153 1.387 . S
C154 C155 1.369 1_655 S
C154 H163 0.929 . S
C155 N152 1.346 . S
C155 C154 1.369 1_455 S
C155 H158 0.928 . S
C156 N152 1.345 . S
C156 C157 1.371 . S
C156 H159 0.931 . S
C157 C153 1.391 1_455 S
C157 C156 1.371 . S
C157 H164 0.930 . S
H158 C155 0.928 . S
H159 C156 0.931 . S
H160 C136 0.930 . S
H161 C133 0.930 . S
H162 C142 0.930 . S
H163 C154 0.929 . S
H164 C157 0.930 . S
C165 C166 1.351 . S
C165 N168 1.368 . S
C165 H170 0.931 . S
C166 C165 1.351 . S
C166 N167 1.373 . S
C166 H194 0.930 . S
N167 C166 1.373 . S
N167 C169 1.340 . S
N168 C165 1.368 . S
N168 C169 1.321 . S
N168 Co171 2.135 . S
C169 N167 1.340 . S
C169 N168 1.321 . S
C169 H193 0.930 . S
H170 C165 0.931 . S
Co171 N168 2.135 . S
Co171 N174 2.121 . S
Co171 O179 2.055 . S
Co171 O182 2.039 . S
Co171 N185 2.140 . S
C172 O173 1.227 . S
C172 O182 1.265 . S
O173 C172 1.227 . S
N174 Co171 2.121 . S
N174 C176 1.375 . S
N174 C177 1.313 . S
C175 C176 1.338 . S
C175 N178 1.377 . S
C175 H195 0.930 . S
C176 N174 1.375 . S
C176 C175 1.338 . S
C176 H180 0.931 . S
C177 N174 1.313 . S
C177 N178 1.344 . S
C177 H181 0.930 . S
N178 C175 1.377 . S
N178 C177 1.344 . S
O179 Co171 2.055 . S
O179 C183 1.253 . S
H180 C176 0.931 . S
H181 C177 0.930 . S
O182 Co171 2.039 . S
O182 C172 1.265 . S
C183 O179 1.253 . S
C183 O184 1.227 . S
O184 C183 1.227 . S
N185 Co171 2.140 . S
N185 C188 1.346 . S
N185 C189 1.345 . S
C186 C187 1.387 . S
C186 C190 1.391 1_565 S
C187 C186 1.387 . S
C187 C188 1.369 1_565 S
C187 H196 0.929 . S
C188 N185 1.346 . S
C188 C187 1.369 1_545 S
C188 H191 0.928 . S
C189 N185 1.345 . S
C189 C190 1.371 . S
C189 H192 0.931 . S
C190 C186 1.391 1_545 S
C190 C189 1.371 . S
C190 H197 0.930 . S
H191 C188 0.928 . S
H192 C189 0.931 . S
H193 C169 0.930 . S
H194 C166 0.930 . S
H195 C175 0.930 . S
H196 C187 0.929 . S
H197 C190 0.930 . S
C198 C199 1.351 . S
C198 N201 1.368 . S
C198 H203 0.931 . S
C199 C198 1.351 . S
C199 N200 1.373 . S
C199 H227 0.930 . S
N200 C199 1.373 . S
N200 C202 1.340 . S
N201 C198 1.368 . S
N201 C202 1.321 . S
N201 Co204 2.135 . S
C202 N200 1.340 . S
C202 N201 1.321 . S
C202 H226 0.930 . S
H203 C198 0.931 . S
Co204 N201 2.135 . S
Co204 N207 2.121 . S
Co204 O212 2.055 . S
Co204 O215 2.039 . S
Co204 N218 2.140 . S
C205 O206 1.227 . S
C205 O215 1.265 . S
O206 C205 1.227 . S
N207 Co204 2.121 . S
N207 C209 1.375 . S
N207 C210 1.313 . S
C208 C209 1.338 . S
C208 N211 1.377 . S
C208 H228 0.930 . S
C209 N207 1.375 . S
C209 C208 1.338 . S
C209 H213 0.931 . S
C210 N207 1.313 . S
C210 N211 1.344 . S
C210 H214 0.930 . S
N211 C208 1.377 . S
N211 C210 1.344 . S
O212 Co204 2.055 . S
O212 C216 1.253 . S
H213 C209 0.931 . S
H214 C210 0.930 . S
O215 Co204 2.039 . S
O215 C205 1.265 . S
C216 O212 1.253 . S
C216 O217 1.227 . S
O217 C216 1.227 . S
N218 Co204 2.140 . S
N218 C221 1.346 . S
N218 C222 1.345 . S
C219 C220 1.387 . S
C219 C223 1.391 . S
C220 C219 1.387 . S
C220 C221 1.369 . S
C220 H229 0.929 . S
C221 N218 1.346 . S
C221 C220 1.369 . S
C221 H224 0.928 . S
C222 N218 1.345 . S
C222 C223 1.371 . S
C222 H225 0.931 . S
C223 C219 1.391 . S
C223 C222 1.371 . S
C223 H230 0.930 . S
H224 C221 0.928 . S
H225 C222 0.931 . S
H226 C202 0.930 . S
H227 C199 0.930 . S
H228 C208 0.930 . S
H229 C220 0.929 . S
H230 C223 0.930 . S
C231 C232 1.351 . S
C231 N234 1.368 . S
C231 H236 0.931 . S
C232 C231 1.351 . S
C232 N233 1.373 . S
C232 H260 0.930 . S
N233 C232 1.373 . S
N233 C235 1.340 . S
N234 C231 1.368 . S
N234 C235 1.321 . S
N234 Co237 2.135 . S
C235 N233 1.340 . S
C235 N234 1.321 . S
C235 H259 0.930 . S
H236 C231 0.931 . S
Co237 N234 2.135 . S
Co237 N240 2.121 . S
Co237 O245 2.055 . S
Co237 O248 2.039 . S
Co237 N251 2.140 . S
C238 O239 1.227 . S
C238 O248 1.265 . S
O239 C238 1.227 . S
N240 Co237 2.121 . S
N240 C242 1.375 . S
N240 C243 1.313 . S
C241 C242 1.338 . S
C241 N244 1.377 . S
C241 H261 0.930 . S
C242 N240 1.375 . S
C242 C241 1.338 . S
C242 H246 0.931 . S
C243 N240 1.313 . S
C243 N244 1.344 . S
C243 H247 0.930 . S
N244 C241 1.377 . S
N244 C243 1.344 . S
O245 Co237 2.055 . S
O245 C249 1.253 . S
H246 C242 0.931 . S
H247 C243 0.930 . S
O248 Co237 2.039 . S
O248 C238 1.265 . S
C249 O245 1.253 . S
C249 O250 1.227 . S
O250 C249 1.227 . S
N251 Co237 2.140 . S
N251 C254 1.346 . S
N251 C255 1.345 . S
C252 C253 1.387 . S
C252 C256 1.391 1_455 S
C253 C252 1.387 . S
C253 C254 1.369 1_455 S
C253 H262 0.929 . S
C254 N251 1.346 . S
C254 C253 1.369 1_655 S
C254 H257 0.928 . S
C255 N251 1.345 . S
C255 C256 1.371 . S
C255 H258 0.931 . S
C256 C252 1.391 1_655 S
C256 C255 1.371 . S
C256 H263 0.930 . S
H257 C254 0.928 . S
H258 C255 0.931 . S
H259 C235 0.930 . S
H260 C232 0.930 . S
H261 C241 0.930 . S
H262 C253 0.929 . S
H263 C256 0.930 . S
C264 C265 1.351 . S
C264 N267 1.368 . S
C264 H269 0.931 . S
C265 C264 1.351 . S
C265 N266 1.373 . S
C265 H293 0.930 . S
N266 C265 1.373 . S
N266 C268 1.340 . S
N267 C264 1.368 . S
N267 C268 1.321 . S
N267 Co270 2.135 . S
C268 N266 1.340 . S
C268 N267 1.321 . S
C268 H292 0.930 . S
H269 C264 0.931 . S
Co270 N267 2.135 . S
Co270 N273 2.121 . S
Co270 O278 2.055 . S
Co270 O281 2.039 . S
Co270 N284 2.140 . S
C271 O272 1.227 . S
C271 O281 1.265 . S
O272 C271 1.227 . S
N273 Co270 2.121 . S
N273 C275 1.375 . S
N273 C276 1.313 . S
C274 C275 1.338 . S
C274 N277 1.377 . S
C274 H294 0.930 . S
C275 N273 1.375 . S
C275 C274 1.338 . S
C275 H279 0.931 . S
C276 N273 1.313 . S
C276 N277 1.344 . S
C276 H280 0.930 . S
N277 C274 1.377 . S
N277 C276 1.344 . S
O278 Co270 2.055 . S
O278 C282 1.253 . S
H279 C275 0.931 . S
H280 C276 0.930 . S
O281 Co270 2.039 . S
O281 C271 1.265 . S
C282 O278 1.253 . S
C282 O283 1.227 . S
O283 C282 1.227 . S
N284 Co270 2.140 . S
N284 C287 1.346 . S
N284 C288 1.345 . S
C285 C286 1.387 . S
C285 C289 1.391 1_545 S
C286 C285 1.387 . S
C286 C287 1.369 1_545 S
C286 H295 0.929 . S
C287 N284 1.346 . S
C287 C286 1.369 1_565 S
C287 H290 0.928 . S
C288 N284 1.345 . S
C288 C289 1.371 . S
C288 H291 0.931 . S
C289 C285 1.391 1_565 S
C289 C288 1.371 . S
C289 H296 0.930 . S
H290 C287 0.928 . S
H291 C288 0.931 . S
H292 C268 0.930 . S
H293 C265 0.930 . S
H294 C274 0.930 . S
H295 C286 0.929 . S
H296 C289 0.930 . S
C297 C298 1.351 . S
C297 N300 1.368 . S
C297 H302 0.931 . S
C298 C297 1.351 . S
C298 N299 1.373 . S
C298 H326 0.930 . S
N299 C298 1.373 . S
N299 C301 1.340 . S
N300 C297 1.368 . S
N300 C301 1.321 . S
N300 Co303 2.135 . S
C301 N299 1.340 . S
C301 N300 1.321 . S
C301 H325 0.930 . S
H302 C297 0.931 . S
Co303 N300 2.135 . S
Co303 N306 2.121 . S
Co303 O311 2.055 . S
Co303 O314 2.039 . S
Co303 N317 2.140 . S
C304 O305 1.227 . S
C304 O314 1.265 . S
O305 C304 1.227 . S
N306 Co303 2.121 . S
N306 C308 1.375 . S
N306 C309 1.313 . S
C307 C308 1.338 . S
C307 N310 1.377 . S
C307 H327 0.930 . S
C308 N306 1.375 . S
C308 C307 1.338 . S
C308 H312 0.931 . S
C309 N306 1.313 . S
C309 N310 1.344 . S
C309 H313 0.930 . S
N310 C307 1.377 . S
N310 C309 1.344 . S
O311 Co303 2.055 . S
O311 C315 1.253 . S
H312 C308 0.931 . S
H313 C309 0.930 . S
O314 Co303 2.039 . S
O314 C304 1.265 . S
C315 O311 1.253 . S
C315 O316 1.227 . S
O316 C315 1.227 . S
N317 Co303 2.140 . S
N317 C320 1.346 . S
N317 C321 1.345 . S
C318 C319 1.387 . S
C318 C322 1.391 . S
C319 C318 1.387 . S
C319 C320 1.369 . S
C319 H328 0.929 . S
C320 N317 1.346 . S
C320 C319 1.369 . S
C320 H323 0.928 . S
C321 N317 1.345 . S
C321 C322 1.371 . S
C321 H324 0.931 . S
C322 C318 1.391 . S
C322 C321 1.371 . S
C322 H329 0.930 . S
H323 C320 0.928 . S
H324 C321 0.931 . S
H325 C301 0.930 . S
H326 C298 0.930 . S
H327 C307 0.930 . S
H328 C319 0.929 . S
H329 C322 0.930 . S
C330 C331 1.351 . S
C330 N333 1.368 . S
C330 H335 0.931 . S
C331 C330 1.351 . S
C331 N332 1.373 . S
C331 H359 0.930 . S
N332 C331 1.373 . S
N332 C334 1.340 . S
N333 C330 1.368 . S
N333 C334 1.321 . S
N333 Co336 2.135 . S
C334 N332 1.340 . S
C334 N333 1.321 . S
C334 H358 0.930 . S
H335 C330 0.931 . S
Co336 N333 2.135 . S
Co336 N339 2.121 . S
Co336 O344 2.055 . S
Co336 O347 2.039 . S
Co336 N350 2.140 . S
C337 O338 1.227 . S
C337 O347 1.265 . S
O338 C337 1.227 . S
N339 Co336 2.121 . S
N339 C341 1.375 . S
N339 C342 1.313 . S
C340 C341 1.338 . S
C340 N343 1.377 . S
C340 H360 0.930 . S
C341 N339 1.375 . S
C341 C340 1.338 . S
C341 H345 0.931 . S
C342 N339 1.313 . S
C342 N343 1.344 . S
C342 H346 0.930 . S
N343 C340 1.377 . S
N343 C342 1.344 . S
O344 Co336 2.055 . S
O344 C348 1.253 . S
H345 C341 0.931 . S
H346 C342 0.930 . S
O347 Co336 2.039 . S
O347 C337 1.265 . S
C348 O344 1.253 . S
C348 O349 1.227 . S
O349 C348 1.227 . S
N350 Co336 2.140 . S
N350 C353 1.346 . S
N350 C354 1.345 . S
C351 C352 1.387 . S
C351 C355 1.391 1_655 S
C352 C351 1.387 . S
C352 C353 1.369 1_655 S
C352 H361 0.929 . S
C353 N350 1.346 . S
C353 C352 1.369 1_455 S
C353 H356 0.928 . S
C354 N350 1.345 . S
C354 C355 1.371 . S
C354 H357 0.931 . S
C355 C351 1.391 1_455 S
C355 C354 1.371 . S
C355 H362 0.930 . S
H356 C353 0.928 . S
H357 C354 0.931 . S
H358 C334 0.930 . S
H359 C331 0.930 . S
H360 C340 0.930 . S
H361 C352 0.929 . S
H362 C355 0.930 . S
C363 C364 1.351 . S
C363 N366 1.368 . S
C363 H368 0.931 . S
C364 C363 1.351 . S
C364 N365 1.373 . S
C364 H392 0.930 . S
N365 C364 1.373 . S
N365 C367 1.340 . S
N366 C363 1.368 . S
N366 C367 1.321 . S
N366 Co369 2.135 . S
C367 N365 1.340 . S
C367 N366 1.321 . S
C367 H391 0.930 . S
H368 C363 0.931 . S
Co369 N366 2.135 . S
Co369 N372 2.121 . S
Co369 O377 2.055 . S
Co369 O380 2.039 . S
Co369 N383 2.140 . S
C370 O371 1.227 . S
C370 O380 1.265 . S
O371 C370 1.227 . S
N372 Co369 2.121 . S
N372 C374 1.375 . S
N372 C375 1.313 . S
C373 C374 1.338 . S
C373 N376 1.377 . S
C373 H393 0.930 . S
C374 N372 1.375 . S
C374 C373 1.338 . S
C374 H378 0.931 . S
C375 N372 1.313 . S
C375 N376 1.344 . S
C375 H379 0.930 . S
N376 C373 1.377 . S
N376 C375 1.344 . S
O377 Co369 2.055 . S
O377 C381 1.253 . S
H378 C374 0.931 . S
H379 C375 0.930 . S
O380 Co369 2.039 . S
O380 C370 1.265 . S
C381 O377 1.253 . S
C381 O382 1.227 . S
O382 C381 1.227 . S
N383 Co369 2.140 . S
N383 C386 1.346 . S
N383 C387 1.345 . S
C384 C385 1.387 . S
C384 C388 1.391 1_565 S
C385 C384 1.387 . S
C385 C386 1.369 1_565 S
C385 H394 0.929 . S
C386 N383 1.346 . S
C386 C385 1.369 1_545 S
C386 H389 0.928 . S
C387 N383 1.345 . S
C387 C388 1.371 . S
C387 H390 0.931 . S
C388 C384 1.391 1_545 S
C388 C387 1.371 . S
C388 H395 0.930 . S
H389 C386 0.928 . S
H390 C387 0.931 . S
H391 C367 0.930 . S
H392 C364 0.930 . S
H393 C373 0.930 . S
H394 C385 0.929 . S
H395 C388 0.930 . S
H396 C408 0.930 . S
H397 C410 0.930 . S
H398 C411 0.930 . S
H399 C415 0.959 . S
H400 C415 0.959 . S
H401 C415 0.961 . S
H402 C416 0.960 . S
H403 C416 0.961 . S
H404 C416 0.959 . S
H405 C419 0.929 . S
H406 C420 0.931 . S
H407 C422 0.930 . S
C408 H396 0.930 . S
C408 C409 1.399 . S
C408 C413 1.399 . S
C409 C408 1.399 . S
C409 C410 1.376 . S
C410 H397 0.930 . S
C410 C409 1.376 . S
C410 C411 1.388 . S
C411 H398 0.930 . S
C411 C410 1.388 . S
C411 C412 1.390 . S
C412 C411 1.390 . S
C412 C413 1.394 . S
C412 C418 1.465 . S
C413 C408 1.399 . S
C413 C412 1.394 . S
C413 C414 1.516 . S
C414 C413 1.516 . S
C414 C415 1.502 . S
C414 C416 1.561 . S
C414 C417 1.526 . S
C415 H399 0.959 . S
C415 H400 0.959 . S
C415 H401 0.961 . S
C415 C414 1.502 . S
C416 H402 0.960 . S
C416 H403 0.961 . S
C416 H404 0.959 . S
C416 C414 1.561 . S
C417 C414 1.526 . S
C417 C418 1.396 . S
C417 C422 1.390 . S
C418 C412 1.465 . S
C418 C417 1.396 . S
C418 C419 1.399 . S
C419 H405 0.929 . S
C419 C418 1.399 . S
C419 C420 1.385 . S
C420 H406 0.931 . S
C420 C419 1.385 . S
C420 C421 1.389 . S
C421 C420 1.389 . S
C421 C422 1.387 . S
C422 H407 0.930 . S
C422 C417 1.390 . S
C422 C421 1.387 . S
H423 C435 0.930 . S
H424 C437 0.930 . S
H425 C438 0.930 . S
H426 C442 0.959 . S
H427 C442 0.959 . S
H428 C442 0.961 . S
H429 C443 0.960 . S
H430 C443 0.961 . S
H431 C443 0.959 1_455 S
H432 C446 0.929 . S
H433 C447 0.931 . S
H434 C449 0.930 . S
C435 H423 0.930 . S
C435 C436 1.399 . S
C435 C440 1.399 . S
C436 C435 1.399 . S
C436 C437 1.376 . S
C437 H424 0.930 . S
C437 C436 1.376 . S
C437 C438 1.388 1_655 S
C438 H425 0.930 . S
C438 C437 1.388 1_455 S
C438 C439 1.390 . S
C439 C438 1.390 . S
C439 C440 1.394 1_455 S
C439 C445 1.465 . S
C440 C435 1.399 . S
C440 C439 1.394 1_655 S
C440 C441 1.516 . S
C441 C440 1.516 . S
C441 C442 1.502 . S
C441 C443 1.561 . S
C441 C444 1.526 1_655 S
C442 H426 0.959 . S
C442 H427 0.959 . S
C442 H428 0.961 . S
C442 C441 1.502 . S
C443 H429 0.960 . S
C443 H430 0.961 . S
C443 H431 0.959 1_655 S
C443 C441 1.561 . S
C444 C441 1.526 1_455 S
C444 C445 1.396 . S
C444 C449 1.390 . S
C445 C439 1.465 . S
C445 C444 1.396 . S
C445 C446 1.399 . S
C446 H432 0.929 . S
C446 C445 1.399 . S
C446 C447 1.385 . S
C447 H433 0.931 . S
C447 C446 1.385 . S
C447 C448 1.389 . S
C448 C447 1.389 . S
C448 C449 1.387 . S
C449 H434 0.930 . S
C449 C444 1.390 . S
C449 C448 1.387 . S
H450 C462 0.930 . S
H451 C464 0.930 . S
H452 C465 0.930 . S
H453 C469 0.959 . S
H454 C469 0.959 . S
H455 C469 0.961 . S
H456 C470 0.960 . S
H457 C470 0.961 . S
H458 C470 0.959 . S
H459 C473 0.929 . S
H460 C474 0.931 . S
H461 C476 0.930 . S
C462 H450 0.930 . S
C462 C463 1.399 . S
C462 C467 1.399 . S
C463 C462 1.399 . S
C463 C464 1.376 . S
C464 H451 0.930 . S
C464 C463 1.376 . S
C464 C465 1.388 . S
C465 H452 0.930 . S
C465 C464 1.388 . S
C465 C466 1.390 . S
C466 C465 1.390 . S
C466 C467 1.394 . S
C466 C472 1.465 1_566 S
C467 C462 1.399 . S
C467 C466 1.394 . S
C467 C468 1.516 1_565 S
C468 C467 1.516 1_545 S
C468 C469 1.502 . S
C468 C470 1.561 . S
C468 C471 1.526 1_556 S
C469 H453 0.959 . S
C469 H454 0.959 . S
C469 H455 0.961 . S
C469 C468 1.502 . S
C470 H456 0.960 . S
C470 H457 0.961 . S
C470 H458 0.959 . S
C470 C468 1.561 . S
C471 C468 1.526 1_554 S
C471 C472 1.396 . S
C471 C476 1.390 . S
C472 C466 1.465 1_544 S
C472 C471 1.396 . S
C472 C473 1.399 1_545 S
C473 H459 0.929 . S
C473 C472 1.399 1_565 S
C473 C474 1.385 1_565 S
C474 H460 0.931 . S
C474 C473 1.385 1_545 S
C474 C475 1.389 . S
C475 C474 1.389 . S
C475 C476 1.387 . S
C476 H461 0.930 . S
C476 C471 1.390 . S
C476 C475 1.387 . S
H477 C489 0.930 . S
H478 C491 0.930 . S
H479 C492 0.930 . S
H480 C496 0.959 . S
H481 C496 0.959 . S
H482 C496 0.961 . S
H483 C497 0.960 . S
H484 C497 0.961 . S
H485 C497 0.959 . S
H486 C500 0.929 . S
H487 C501 0.931 . S
H488 C503 0.930 . S
C489 H477 0.930 . S
C489 C490 1.399 . S
C489 C494 1.399 . S
C490 C489 1.399 . S
C490 C491 1.376 . S
C491 H478 0.930 . S
C491 C490 1.376 . S
C491 C492 1.388 . S
C492 H479 0.930 . S
C492 C491 1.388 . S
C492 C493 1.390 . S
C493 C492 1.390 . S
C493 C494 1.394 . S
C493 C499 1.465 . S
C494 C489 1.399 . S
C494 C493 1.394 . S
C494 C495 1.516 . S
C495 C494 1.516 . S
C495 C496 1.502 . S
C495 C497 1.561 . S
C495 C498 1.526 . S
C496 H480 0.959 . S
C496 H481 0.959 . S
C496 H482 0.961 . S
C496 C495 1.502 . S
C497 H483 0.960 . S
C497 H484 0.961 . S
C497 H485 0.959 . S
C497 C495 1.561 . S
C498 C495 1.526 . S
C498 C499 1.396 . S
C498 C503 1.390 . S
C499 C493 1.465 . S
C499 C498 1.396 . S
C499 C500 1.399 . S
C500 H486 0.929 . S
C500 C499 1.399 . S
C500 C501 1.385 . S
C501 H487 0.931 . S
C501 C500 1.385 . S
C501 C502 1.389 . S
C502 C501 1.389 . S
C502 C503 1.387 . S
C503 H488 0.930 . S
C503 C498 1.390 . S
C503 C502 1.387 . S
H504 C516 0.930 . S
H505 C518 0.930 . S
H506 C519 0.930 . S
H507 C523 0.959 . S
H508 C523 0.959 . S
H509 C523 0.961 . S
H510 C524 0.960 . S
H511 C524 0.961 . S
H512 C524 0.959 . S
H513 C527 0.929 . S
H514 C528 0.931 . S
H515 C530 0.930 . S
C516 H504 0.930 . S
C516 C517 1.399 . S
C516 C521 1.399 . S
C517 C516 1.399 . S
C517 C518 1.376 . S
C518 H505 0.930 . S
C518 C517 1.376 . S
C518 C519 1.388 1_455 S
C519 H506 0.930 . S
C519 C518 1.388 1_655 S
C519 C520 1.390 . S
C520 C519 1.390 . S
C520 C521 1.394 1_655 S
C520 C526 1.465 . S
C521 C516 1.399 . S
C521 C520 1.394 1_455 S
C521 C522 1.516 . S
C522 C521 1.516 . S
C522 C523 1.502 . S
C522 C524 1.561 . S
C522 C525 1.526 1_455 S
C523 H507 0.959 . S
C523 H508 0.959 . S
C523 H509 0.961 . S
C523 C522 1.502 . S
C524 H510 0.960 . S
C524 H511 0.961 . S
C524 H512 0.959 . S
C524 C522 1.561 . S
C525 C522 1.526 1_655 S
C525 C526 1.396 . S
C525 C530 1.390 . S
C526 C520 1.465 . S
C526 C525 1.396 . S
C526 C527 1.399 . S
C527 H513 0.929 . S
C527 C526 1.399 . S
C527 C528 1.385 . S
C528 H514 0.931 . S
C528 C527 1.385 . S
C528 C529 1.389 . S
C529 C528 1.389 . S
C529 C530 1.387 . S
C530 H515 0.930 . S
C530 C525 1.390 . S
C530 C529 1.387 . S
H531 C543 0.930 . S
H532 C545 0.930 . S
H533 C546 0.930 1_554 S
H534 C550 0.959 . S
H535 C550 0.959 . S
H536 C550 0.961 . S
H537 C551 0.960 . S
H538 C551 0.961 . S
H539 C551 0.959 . S
H540 C554 0.929 . S
H541 C555 0.931 . S
H542 C557 0.930 . S
C543 H531 0.930 . S
C543 C544 1.399 . S
C543 C548 1.399 . S
C544 C543 1.399 . S
C544 C545 1.376 . S
C545 H532 0.930 . S
C545 C544 1.376 . S
C545 C546 1.388 . S
C546 H533 0.930 1_556 S
C546 C545 1.388 . S
C546 C547 1.390 . S
C547 C546 1.390 . S
C547 C548 1.394 . S
C547 C553 1.465 1_556 S
C548 C543 1.399 . S
C548 C547 1.394 . S
C548 C549 1.516 1_545 S
C549 C548 1.516 1_565 S
C549 C550 1.502 . S
C549 C551 1.561 . S
C549 C552 1.526 1_556 S
C550 H534 0.959 . S
C550 H535 0.959 . S
C550 H536 0.961 . S
C550 C549 1.502 . S
C551 H537 0.960 . S
C551 H538 0.961 . S
C551 H539 0.959 . S
C551 C549 1.561 . S
C552 C549 1.526 1_554 S
C552 C553 1.396 1_565 S
C552 C557 1.390 . S
C553 C547 1.465 1_554 S
C553 C552 1.396 1_545 S
C553 C554 1.399 . S
C554 H540 0.929 . S
C554 C553 1.399 . S
C554 C555 1.385 1_545 S
C555 H541 0.931 . S
C555 C554 1.385 1_565 S
C555 C556 1.389 . S
C556 C555 1.389 . S
C556 C557 1.387 . S
C557 H542 0.930 . S
C557 C552 1.390 . S
C557 C556 1.387 . S
H558 C570 0.930 . S
H559 C572 0.930 . S
H560 C573 0.930 . S
H561 C577 0.959 . S
H562 C577 0.959 . S
H563 C577 0.961 1_556 S
H564 C578 0.960 . S
H565 C578 0.961 1_554 S
H566 C578 0.959 . S
H567 C581 0.929 . S
H568 C582 0.931 . S
H569 C584 0.930 . S
C570 H558 0.930 . S
C570 C571 1.399 . S
C570 C575 1.399 . S
C571 C570 1.399 . S
C571 C572 1.376 . S
C572 H559 0.930 . S
C572 C571 1.376 . S
C572 C573 1.388 . S
C573 H560 0.930 . S
C573 C572 1.388 . S
C573 C574 1.390 . S
C574 C573 1.390 . S
C574 C575 1.394 . S
C574 C580 1.465 1_556 S
C575 C570 1.399 . S
C575 C574 1.394 . S
C575 C576 1.516 1_556 S
C576 C575 1.516 1_554 S
C576 C577 1.502 . S
C576 C578 1.561 1_554 S
C576 C579 1.526 . S
C577 H561 0.959 . S
C577 H562 0.959 . S
C577 H563 0.961 1_554 S
C577 C576 1.502 . S
C578 H564 0.960 . S
C578 H565 0.961 1_556 S
C578 H566 0.959 . S
C578 C576 1.561 1_556 S
C579 C576 1.526 . S
C579 C580 1.396 . S
C579 C584 1.390 . S
C580 C574 1.465 1_554 S
C580 C579 1.396 . S
C580 C581 1.399 . S
C581 H567 0.929 . S
C581 C580 1.399 . S
C581 C582 1.385 . S
C582 H568 0.931 . S
C582 C581 1.385 . S
C582 C583 1.389 . S
C583 C582 1.389 . S
C583 C584 1.387 . S
C584 H569 0.930 . S
C584 C579 1.390 . S
C584 C583 1.387 . S
H585 C597 0.930 . S
H586 C599 0.930 . S
H587 C600 0.930 . S
H588 C604 0.959 . S
H589 C604 0.959 . S
H590 C604 0.961 . S
H591 C605 0.960 . S
H592 C605 0.961 . S
H593 C605 0.959 . S
H594 C608 0.929 . S
H595 C609 0.931 . S
H596 C611 0.930 . S
C597 H585 0.930 . S
C597 C598 1.399 . S
C597 C602 1.399 . S
C598 C597 1.399 . S
C598 C599 1.376 . S
C599 H586 0.930 . S
C599 C598 1.376 . S
C599 C600 1.388 . S
C600 H587 0.930 . S
C600 C599 1.388 . S
C600 C601 1.390 . S
C601 C600 1.390 . S
C601 C602 1.394 . S
C601 C607 1.465 . S
C602 C597 1.399 . S
C602 C601 1.394 . S
C602 C603 1.516 . S
C603 C602 1.516 . S
C603 C604 1.502 . S
C603 C605 1.561 . S
C603 C606 1.526 . S
C604 H588 0.959 . S
C604 H589 0.959 . S
C604 H590 0.961 . S
C604 C603 1.502 . S
C605 H591 0.960 . S
C605 H592 0.961 . S
C605 H593 0.959 . S
C605 C603 1.561 . S
C606 C603 1.526 . S
C606 C607 1.396 . S
C606 C611 1.390 . S
C607 C601 1.465 . S
C607 C606 1.396 . S
C607 C608 1.399 . S
C608 H594 0.929 . S
C608 C607 1.399 . S
C608 C609 1.385 . S
C609 H595 0.931 . S
C609 C608 1.385 . S
C609 C610 1.389 . S
C610 C609 1.389 . S
C610 C611 1.387 . S
C611 H596 0.930 . S
C611 C606 1.390 . S
C611 C610 1.387 . S
H612 C624 0.930 . S
H613 C626 0.930 . S
H614 C627 0.930 . S
H615 C631 0.959 . S
H616 C631 0.959 . S
H617 C631 0.961 . S
H618 C632 0.960 . S
H619 C632 0.961 . S
H620 C632 0.959 . S
H621 C635 0.929 . S
H622 C636 0.931 . S
H623 C638 0.930 . S
C624 H612 0.930 . S
C624 C625 1.399 . S
C624 C629 1.399 . S
C625 C624 1.399 . S
C625 C626 1.376 . S
C626 H613 0.930 . S
C626 C625 1.376 . S
C626 C627 1.388 . S
C627 H614 0.930 . S
C627 C626 1.388 . S
C627 C628 1.390 . S
C628 C627 1.390 . S
C628 C629 1.394 . S
C628 C634 1.465 . S
C629 C624 1.399 . S
C629 C628 1.394 . S
C629 C630 1.516 . S
C630 C629 1.516 . S
C630 C631 1.502 . S
C630 C632 1.561 . S
C630 C633 1.526 . S
C631 H615 0.959 . S
C631 H616 0.959 . S
C631 H617 0.961 . S
C631 C630 1.502 . S
C632 H618 0.960 . S
C632 H619 0.961 . S
C632 H620 0.959 . S
C632 C630 1.561 . S
C633 C630 1.526 . S
C633 C634 1.396 . S
C633 C638 1.390 . S
C634 C628 1.465 . S
C634 C633 1.396 . S
C634 C635 1.399 . S
C635 H621 0.929 . S
C635 C634 1.399 . S
C635 C636 1.385 . S
C636 H622 0.931 . S
C636 C635 1.385 . S
C636 C637 1.389 . S
C637 C636 1.389 . S
C637 C638 1.387 . S
C638 H623 0.930 . S
C638 C633 1.390 . S
C638 C637 1.387 . S
H639 C651 0.930 . S
H640 C653 0.930 . S
H641 C654 0.930 . S
H642 C658 0.959 . S
H643 C658 0.959 . S
H644 C658 0.961 1_556 S
H645 C659 0.960 . S
H646 C659 0.961 1_554 S
H647 C659 0.959 . S
H648 C662 0.929 . S
H649 C663 0.931 . S
H650 C665 0.930 . S
C651 H639 0.930 . S
C651 C652 1.399 . S
C651 C656 1.399 . S
C652 C651 1.399 . S
C652 C653 1.376 . S
C653 H640 0.930 . S
C653 C652 1.376 . S
C653 C654 1.388 . S
C654 H641 0.930 . S
C654 C653 1.388 . S
C654 C655 1.390 . S
C655 C654 1.390 . S
C655 C656 1.394 . S
C655 C661 1.465 1_556 S
C656 C651 1.399 . S
C656 C655 1.394 . S
C656 C657 1.516 . S
C657 C656 1.516 . S
C657 C658 1.502 1_556 S
C657 C659 1.561 . S
C657 C660 1.526 1_556 S
C658 H642 0.959 . S
C658 H643 0.959 . S
C658 H644 0.961 1_554 S
C658 C657 1.502 1_554 S
C659 H645 0.960 . S
C659 H646 0.961 1_556 S
C659 H647 0.959 . S
C659 C657 1.561 . S
C660 C657 1.526 1_554 S
C660 C661 1.396 . S
C660 C665 1.390 . S
C661 C655 1.465 1_554 S
C661 C660 1.396 . S
C661 C662 1.399 . S
C662 H648 0.929 . S
C662 C661 1.399 . S
C662 C663 1.385 . S
C663 H649 0.931 . S
C663 C662 1.385 . S
C663 C664 1.389 . S
C664 C663 1.389 . S
C664 C665 1.387 . S
C665 H650 0.930 . S
C665 C660 1.390 . S
C665 C664 1.387 . S
H666 C678 0.930 . S
H667 C680 0.930 . S
H668 C681 0.930 . S
H669 C685 0.959 . S
H670 C685 0.959 . S
H671 C685 0.961 . S
H672 C686 0.960 . S
H673 C686 0.961 . S
H674 C686 0.959 . S
H675 C689 0.929 . S
H676 C690 0.931 . S
H677 C692 0.930 . S
C678 H666 0.930 . S
C678 C679 1.399 . S
C678 C683 1.399 . S
C679 C678 1.399 . S
C679 C680 1.376 . S
C680 H667 0.930 . S
C680 C679 1.376 . S
C680 C681 1.388 . S
C681 H668 0.930 . S
C681 C680 1.388 . S
C681 C682 1.390 . S
C682 C681 1.390 . S
C682 C683 1.394 . S
C682 C688 1.465 . S
C683 C678 1.399 . S
C683 C682 1.394 . S
C683 C684 1.516 . S
C684 C683 1.516 . S
C684 C685 1.502 . S
C684 C686 1.561 . S
C684 C687 1.526 . S
C685 H669 0.959 . S
C685 H670 0.959 . S
C685 H671 0.961 . S
C685 C684 1.502 . S
C686 H672 0.960 . S
C686 H673 0.961 . S
C686 H674 0.959 . S
C686 C684 1.561 . S
C687 C684 1.526 . S
C687 C688 1.396 . S
C687 C692 1.390 . S
C688 C682 1.465 . S
C688 C687 1.396 . S
C688 C689 1.399 . S
C689 H675 0.929 . S
C689 C688 1.399 . S
C689 C690 1.385 . S
C690 H676 0.931 . S
C690 C689 1.385 . S
C690 C691 1.389 . S
C691 C690 1.389 . S
C691 C692 1.387 . S
C692 H677 0.930 . S
C692 C687 1.390 . S
C692 C691 1.387 . S
H693 C705 0.930 . S
H694 C707 0.930 . S
H695 C708 0.930 . S
H696 C712 0.959 . S
H697 C712 0.959 . S
H698 C712 0.961 . S
H699 C713 0.960 . S
H700 C713 0.961 . S
H701 C713 0.959 . S
H702 C716 0.929 . S
H703 C717 0.931 . S
H704 C719 0.930 . S
C705 H693 0.930 . S
C705 C706 1.399 . S
C705 C710 1.399 . S
C706 C705 1.399 . S
C706 C707 1.376 . S
C707 H694 0.930 . S
C707 C706 1.376 . S
C707 C708 1.388 . S
C708 H695 0.930 . S
C708 C707 1.388 . S
C708 C709 1.390 . S
C709 C708 1.390 . S
C709 C710 1.394 . S
C709 C715 1.465 . S
C710 C705 1.399 . S
C710 C709 1.394 . S
C710 C711 1.516 . S
C711 C710 1.516 . S
C711 C712 1.502 . S
C711 C713 1.561 . S
C711 C714 1.526 . S
C712 H696 0.959 . S
C712 H697 0.959 . S
C712 H698 0.961 . S
C712 C711 1.502 . S
C713 H699 0.960 . S
C713 H700 0.961 . S
C713 H701 0.959 . S
C713 C711 1.561 . S
C714 C711 1.526 . S
C714 C715 1.396 . S
C714 C719 1.390 . S
C715 C709 1.465 . S
C715 C714 1.396 . S
C715 C716 1.399 . S
C716 H702 0.929 . S
C716 C715 1.399 . S
C716 C717 1.385 . S
C717 H703 0.931 . S
C717 C716 1.385 . S
C717 C718 1.389 . S
C718 C717 1.389 . S
C718 C719 1.387 . S
C719 H704 0.930 . S
C719 C714 1.390 . S
C719 C718 1.387 . S
H720 C732 0.930 . S
H721 C734 0.930 . S
H722 C735 0.930 . S
H723 C739 0.959 . S
H724 C739 0.959 . S
H725 C739 0.961 . S
H726 C740 0.960 . S
H727 C740 0.961 . S
H728 C740 0.959 . S
H729 C743 0.929 . S
H730 C744 0.931 . S
H731 C746 0.930 . S
C732 H720 0.930 . S
C732 C733 1.399 . S
C732 C737 1.399 . S
C733 C732 1.399 . S
C733 C734 1.376 . S
C734 H721 0.930 . S
C734 C733 1.376 . S
C734 C735 1.388 . S
C735 H722 0.930 . S
C735 C734 1.388 . S
C735 C736 1.390 . S
C736 C735 1.390 . S
C736 C737 1.394 . S
C736 C742 1.465 . S
C737 C732 1.399 . S
C737 C736 1.394 . S
C737 C738 1.516 . S
C738 C737 1.516 . S
C738 C739 1.502 . S
C738 C740 1.561 . S
C738 C741 1.526 . S
C739 H723 0.959 . S
C739 H724 0.959 . S
C739 H725 0.961 . S
C739 C738 1.502 . S
C740 H726 0.960 . S
C740 H727 0.961 . S
C740 H728 0.959 . S
C740 C738 1.561 . S
C741 C738 1.526 . S
C741 C742 1.396 . S
C741 C746 1.390 . S
C742 C736 1.465 . S
C742 C741 1.396 . S
C742 C743 1.399 . S
C743 H729 0.929 . S
C743 C742 1.399 . S
C743 C744 1.385 . S
C744 H730 0.931 . S
C744 C743 1.385 . S
C744 C745 1.389 . S
C745 C744 1.389 . S
C745 C746 1.387 . S
C746 H731 0.930 . S
C746 C741 1.390 . S
C746 C745 1.387 . S
H747 C759 0.930 . S
H748 C761 0.930 . S
H749 C762 0.930 . S
H750 C766 0.959 . S
H751 C766 0.959 . S
H752 C766 0.961 . S
H753 C767 0.960 . S
H754 C767 0.961 1_455 S
H755 C767 0.959 . S
H756 C770 0.929 1_655 S
H757 C771 0.931 . S
H758 C773 0.930 . S
C759 H747 0.930 . S
C759 C760 1.399 . S
C759 C764 1.399 . S
C760 C759 1.399 . S
C760 C761 1.376 . S
C761 H748 0.930 . S
C761 C760 1.376 . S
C761 C762 1.388 . S
C762 H749 0.930 . S
C762 C761 1.388 . S
C762 C763 1.390 . S
C763 C762 1.390 . S
C763 C764 1.394 . S
C763 C769 1.465 1_655 S
C764 C759 1.399 . S
C764 C763 1.394 . S
C764 C765 1.516 1_655 S
C765 C764 1.516 1_455 S
C765 C766 1.502 . S
C765 C767 1.561 1_455 S
C765 C768 1.526 . S
C766 H750 0.959 . S
C766 H751 0.959 . S
C766 H752 0.961 . S
C766 C765 1.502 . S
C767 H753 0.960 . S
C767 H754 0.961 1_655 S
C767 H755 0.959 . S
C767 C765 1.561 1_655 S
C768 C765 1.526 . S
C768 C769 1.396 . S
C768 C773 1.390 . S
C769 C763 1.465 1_455 S
C769 C768 1.396 . S
C769 C770 1.399 . S
C770 H756 0.929 1_455 S
C770 C769 1.399 . S
C770 C771 1.385 . S
C771 H757 0.931 . S
C771 C770 1.385 . S
C771 C772 1.389 . S
C772 C771 1.389 . S
C772 C773 1.387 . S
C773 H758 0.930 . S
C773 C768 1.390 . S
C773 C772 1.387 . S
H774 C786 0.930 . S
H775 C788 0.930 . S
H776 C789 0.930 . S
H777 C793 0.959 . S
H778 C793 0.959 . S
H779 C793 0.961 . S
H780 C794 0.960 . S
H781 C794 0.961 . S
H782 C794 0.959 . S
H783 C797 0.929 . S
H784 C798 0.931 . S
H785 C800 0.930 . S
C786 H774 0.930 . S
C786 C787 1.399 . S
C786 C791 1.399 . S
C787 C786 1.399 . S
C787 C788 1.376 . S
C788 H775 0.930 . S
C788 C787 1.376 . S
C788 C789 1.388 . S
C789 H776 0.930 . S
C789 C788 1.388 . S
C789 C790 1.390 . S
C790 C789 1.390 . S
C790 C791 1.394 . S
C790 C796 1.465 1_545 S
C791 C786 1.399 . S
C791 C790 1.394 . S
C791 C792 1.516 1_545 S
C792 C791 1.516 1_565 S
C792 C793 1.502 . S
C792 C794 1.561 1_565 S
C792 C795 1.526 . S
C793 H777 0.959 . S
C793 H778 0.959 . S
C793 H779 0.961 . S
C793 C792 1.502 . S
C794 H780 0.960 . S
C794 H781 0.961 . S
C794 H782 0.959 . S
C794 C792 1.561 1_545 S
C795 C792 1.526 . S
C795 C796 1.396 . S
C795 C800 1.390 . S
C796 C790 1.465 1_565 S
C796 C795 1.396 . S
C796 C797 1.399 . S
C797 H783 0.929 . S
C797 C796 1.399 . S
C797 C798 1.385 . S
C798 H784 0.931 . S
C798 C797 1.385 . S
C798 C799 1.389 . S
C799 C798 1.389 . S
C799 C800 1.387 . S
C800 H785 0.930 . S
C800 C795 1.390 . S
C800 C799 1.387 . S
H801 C813 0.930 . S
H802 C815 0.930 . S
H803 C816 0.930 . S
H804 C820 0.959 . S
H805 C820 0.959 . S
H806 C820 0.961 . S
H807 C821 0.960 . S
H808 C821 0.961 . S
H809 C821 0.959 . S
H810 C824 0.929 . S
H811 C825 0.931 . S
H812 C827 0.930 . S
C813 H801 0.930 . S
C813 C814 1.399 . S
C813 C818 1.399 . S
C814 C813 1.399 . S
C814 C815 1.376 . S
C815 H802 0.930 . S
C815 C814 1.376 . S
C815 C816 1.388 . S
C816 H803 0.930 . S
C816 C815 1.388 . S
C816 C817 1.390 . S
C817 C816 1.390 . S
C817 C818 1.394 . S
C817 C823 1.465 . S
C818 C813 1.399 . S
C818 C817 1.394 . S
C818 C819 1.516 . S
C819 C818 1.516 . S
C819 C820 1.502 . S
C819 C821 1.561 . S
C819 C822 1.526 . S
C820 H804 0.959 . S
C820 H805 0.959 . S
C820 H806 0.961 . S
C820 C819 1.502 . S
C821 H807 0.960 . S
C821 H808 0.961 . S
C821 H809 0.959 . S
C821 C819 1.561 . S
C822 C819 1.526 . S
C822 C823 1.396 . S
C822 C827 1.390 . S
C823 C817 1.465 . S
C823 C822 1.396 . S
C823 C824 1.399 . S
C824 H810 0.929 . S
C824 C823 1.399 . S
C824 C825 1.385 . S
C825 H811 0.931 . S
C825 C824 1.385 . S
C825 C826 1.389 . S
C826 C825 1.389 . S
C826 C827 1.387 . S
C827 H812 0.930 . S
C827 C822 1.390 . S
C827 C826 1.387 . S
H828 C840 0.930 . S
H829 C842 0.930 . S
H830 C843 0.930 . S
H831 C847 0.959 . S
H832 C847 0.959 . S
H833 C847 0.961 . S
H834 C848 0.960 . S
H835 C848 0.961 1_455 S
H836 C848 0.959 . S
H837 C851 0.919 1_655 S
H838 C852 0.931 . S
H839 C854 0.930 . S
C840 H828 0.930 . S
C840 C841 1.399 . S
C840 C845 1.399 . S
C841 C840 1.399 . S
C841 C842 1.376 . S
C842 H829 0.930 . S
C842 C841 1.376 . S
C842 C843 1.388 . S
C843 H830 0.930 . S
C843 C842 1.388 . S
C843 C844 1.390 . S
C844 C843 1.390 . S
C844 C845 1.394 . S
C844 C850 1.465 1_655 S
C845 C840 1.399 . S
C845 C844 1.394 . S
C845 C846 1.516 1_655 S
C846 C845 1.516 1_455 S
C846 C847 1.502 . S
C846 C848 1.561 1_455 S
C846 C849 1.526 . S
C847 H831 0.959 . S
C847 H832 0.959 . S
C847 H833 0.961 . S
C847 C846 1.502 . S
C848 H834 0.960 . S
C848 H835 0.961 1_655 S
C848 H836 0.959 . S
C848 C846 1.561 1_655 S
C849 C846 1.526 . S
C849 C850 1.396 . S
C849 C854 1.390 . S
C850 C844 1.465 1_455 S
C850 C849 1.396 . S
C850 C851 1.399 . S
C851 H837 0.919 1_455 S
C851 C850 1.399 . S
C851 C852 1.385 . S
C852 H838 0.931 . S
C852 C851 1.385 . S
C852 C853 1.389 . S
C853 C852 1.389 . S
C853 C854 1.387 . S
C854 H839 0.930 . S
C854 C849 1.390 . S
C854 C853 1.387 . S
H855 C867 0.930 . S
H856 C869 0.930 . S
H857 C870 0.930 . S
H858 C874 0.959 . S
H859 C874 0.959 1_565 S
H860 C874 0.961 . S
H861 C875 0.960 . S
H862 C875 0.961 . S
H863 C875 0.959 . S
H864 C878 0.929 . S
H865 C879 0.931 . S
H866 C881 0.930 . S
C867 H855 0.930 . S
C867 C868 1.399 . S
C867 C872 1.399 . S
C868 C867 1.399 . S
C868 C869 1.376 . S
C869 H856 0.930 . S
C869 C868 1.376 . S
C869 C870 1.388 . S
C870 H857 0.930 . S
C870 C869 1.388 . S
C870 C871 1.390 . S
C871 C870 1.390 . S
C871 C872 1.394 . S
C871 C877 1.465 1_545 S
C872 C867 1.399 . S
C872 C871 1.394 . S
C872 C873 1.516 1_545 S
C873 C872 1.516 1_565 S
C873 C874 1.502 1_565 S
C873 C875 1.561 . S
C873 C876 1.526 . S
C874 H858 0.959 . S
C874 H859 0.959 1_545 S
C874 H860 0.961 . S
C874 C873 1.502 1_545 S
C875 H861 0.960 . S
C875 H862 0.961 . S
C875 H863 0.959 . S
C875 C873 1.561 . S
C876 C873 1.526 . S
C876 C877 1.396 . S
C876 C881 1.390 . S
C877 C871 1.465 1_565 S
C877 C876 1.396 . S
C877 C878 1.399 . S
C878 H864 0.929 . S
C878 C877 1.399 . S
C878 C879 1.385 . S
C879 H865 0.931 . S
C879 C878 1.385 . S
C879 C880 1.389 . S
C880 C879 1.389 . S
C880 C881 1.387 . S
C881 H866 0.930 . S
C881 C876 1.390 . S
C881 C880 1.387 . S
H882 C894 0.930 . S
H883 C896 0.930 . S
H884 C897 0.930 . S
H885 C901 0.971 . S
H886 C901 0.959 1_655 S
H887 C901 0.961 . S
H888 C902 0.960 . S
H889 C902 0.961 1_655 S
H890 C902 0.959 . S
H891 C905 0.929 . S
H892 C906 0.931 . S
H893 C908 0.930 . S
C894 H882 0.930 . S
C894 C895 1.399 . S
C894 C899 1.399 . S
C895 C894 1.399 . S
C895 C896 1.376 . S
C896 H883 0.930 . S
C896 C895 1.376 . S
C896 C897 1.388 . S
C897 H884 0.930 . S
C897 C896 1.388 . S
C897 C898 1.390 . S
C898 C897 1.390 . S
C898 C899 1.394 . S
C898 C904 1.465 1_455 S
C899 C894 1.399 . S
C899 C898 1.394 . S
C899 C900 1.516 . S
C900 C899 1.516 . S
C900 C901 1.502 . S
C900 C902 1.561 . S
C900 C903 1.526 1_455 S
C901 H885 0.971 . S
C901 H886 0.959 1_455 S
C901 H887 0.961 . S
C901 C900 1.502 . S
C902 H888 0.960 . S
C902 H889 0.961 1_455 S
C902 H890 0.959 . S
C902 C900 1.561 . S
C903 C900 1.526 1_655 S
C903 C904 1.396 . S
C903 C908 1.390 . S
C904 C898 1.465 1_655 S
C904 C903 1.396 . S
C904 C905 1.399 . S
C905 H891 0.929 . S
C905 C904 1.399 . S
C905 C906 1.385 . S
C906 H892 0.931 . S
C906 C905 1.385 . S
C906 C907 1.389 . S
C907 C906 1.389 . S
C907 C908 1.387 . S
C908 H893 0.930 . S
C908 C903 1.390 . S
C908 C907 1.387 . S
H909 C921 0.930 . S
H910 C923 0.930 . S
H911 C924 0.930 . S
H912 C928 0.959 . S
H913 C928 0.959 1_545 S
H914 C928 0.961 . S
H915 C929 0.960 . S
H916 C929 0.961 1_545 S
H917 C929 0.959 . S
H918 C932 0.929 . S
H919 C933 0.931 . S
H920 C935 0.930 . S
C921 H909 0.930 . S
C921 C922 1.399 . S
C921 C926 1.399 . S
C922 C921 1.399 . S
C922 C923 1.376 . S
C923 H910 0.930 . S
C923 C922 1.376 . S
C923 C924 1.388 . S
C924 H911 0.930 . S
C924 C923 1.388 . S
C924 C925 1.390 . S
C925 C924 1.390 . S
C925 C926 1.394 . S
C925 C931 1.465 1_565 S
C926 C921 1.399 . S
C926 C925 1.394 . S
C926 C927 1.516 . S
C927 C926 1.516 . S
C927 C928 1.502 . S
C927 C929 1.561 . S
C927 C930 1.526 1_565 S
C928 H912 0.959 . S
C928 H913 0.959 1_565 S
C928 H914 0.961 . S
C928 C927 1.502 . S
C929 H915 0.960 . S
C929 H916 0.961 1_565 S
C929 H917 0.959 . S
C929 C927 1.561 . S
C930 C927 1.526 1_545 S
C930 C931 1.396 . S
C930 C935 1.390 . S
C931 C925 1.465 1_545 S
C931 C930 1.396 . S
C931 C932 1.399 . S
C932 H918 0.929 . S
C932 C931 1.399 . S
C932 C933 1.385 . S
C933 H919 0.931 . S
C933 C932 1.385 . S
C933 C934 1.389 . S
C934 C933 1.389 . S
C934 C935 1.387 . S
C935 H920 0.930 . S
C935 C930 1.390 . S
C935 C934 1.387 . S
H936 C948 0.930 . S
H937 C950 0.930 . S
H938 C951 0.930 . S
H939 C955 0.959 . S
H940 C955 0.959 . S
H941 C955 0.961 . S
H942 C956 0.960 . S
H943 C956 0.961 . S
H944 C956 0.959 . S
H945 C959 0.929 . S
H946 C960 0.931 . S
H947 C962 0.930 . S
C948 H936 0.930 . S
C948 C949 1.399 . S
C948 C953 1.399 . S
C949 C948 1.399 . S
C949 C950 1.376 . S
C950 H937 0.930 . S
C950 C949 1.376 . S
C950 C951 1.388 . S
C951 H938 0.930 . S
C951 C950 1.388 . S
C951 C952 1.390 . S
C952 C951 1.390 . S
C952 C953 1.394 . S
C952 C958 1.465 . S
C953 C948 1.399 . S
C953 C952 1.394 . S
C953 C954 1.516 . S
C954 C953 1.516 . S
C954 C955 1.502 . S
C954 C956 1.561 . S
C954 C957 1.526 . S
C955 H939 0.959 . S
C955 H940 0.959 . S
C955 H941 0.961 . S
C955 C954 1.502 . S
C956 H942 0.960 . S
C956 H943 0.961 . S
C956 H944 0.959 . S
C956 C954 1.561 . S
C957 C954 1.526 . S
C957 C958 1.396 . S
C957 C962 1.390 . S
C958 C952 1.465 . S
C958 C957 1.396 . S
C958 C959 1.399 . S
C959 H945 0.929 . S
C959 C958 1.399 . S
C959 C960 1.385 . S
C960 H946 0.931 . S
C960 C959 1.385 . S
C960 C961 1.389 . S
C961 C960 1.389 . S
C961 C962 1.387 . S
C962 H947 0.930 . S
C962 C957 1.390 . S
C962 C961 1.387 . S
H963 C975 0.930 . S
H964 C977 0.930 . S
H965 C978 0.930 . S
H966 C982 0.959 1_455 S
H967 C982 0.959 1_455 S
H968 C982 0.961 . S
H969 C983 0.960 . S
H970 C983 0.961 1_455 S
H971 C983 0.959 . S
H972 C986 0.929 . S
H973 C987 0.931 . S
H974 C989 0.930 . S
C975 H963 0.930 . S
C975 C976 1.399 . S
C975 C980 1.399 . S
C976 C975 1.399 . S
C976 C977 1.376 . S
C977 H964 0.930 . S
C977 C976 1.376 . S
C977 C978 1.388 . S
C978 H965 0.930 . S
C978 C977 1.388 . S
C978 C979 1.390 . S
C979 C978 1.390 . S
C979 C980 1.394 . S
C979 C985 1.465 1_655 S
C980 C975 1.399 . S
C980 C979 1.394 . S
C980 C981 1.516 . S
C981 C980 1.516 . S
C981 C982 1.502 . S
C981 C983 1.561 . S
C981 C984 1.526 1_655 S
C982 H966 0.959 1_655 S
C982 H967 0.959 1_655 S
C982 H968 0.961 . S
C982 C981 1.502 . S
C983 H969 0.960 . S
C983 H970 0.961 1_655 S
C983 H971 0.959 . S
C983 C981 1.561 . S
C984 C981 1.526 1_455 S
C984 C985 1.396 . S
C984 C989 1.390 . S
C985 C979 1.465 1_455 S
C985 C984 1.396 . S
C985 C986 1.399 . S
C986 H972 0.929 . S
C986 C985 1.399 . S
C986 C987 1.385 . S
C987 H973 0.931 . S
C987 C986 1.385 . S
C987 C988 1.389 . S
C988 C987 1.389 . S
C988 C989 1.387 . S
C989 H974 0.930 . S
C989 C984 1.390 . S
C989 C988 1.387 . S
H990 C1002 0.930 . S
H991 C1004 0.930 . S
H992 C1005 0.930 . S
H993 C1009 0.959 . S
H994 C1009 0.959 . S
H995 C1009 0.961 1_565 S
H996 C1010 0.960 1_565 S
H997 C1010 0.961 . S
H998 C1010 0.959 . S
H999 C1013 0.929 . S
H1000 C1014 0.931 . S
H1001 C1016 0.930 . S
C1002 H990 0.930 . S
C1002 C1003 1.399 . S
C1002 C1007 1.399 . S
C1003 C1002 1.399 . S
C1003 C1004 1.376 . S
C1004 H991 0.930 . S
C1004 C1003 1.376 . S
C1004 C1005 1.388 . S
C1005 H992 0.930 . S
C1005 C1004 1.388 . S
C1005 C1006 1.390 . S
C1006 C1005 1.390 . S
C1006 C1007 1.394 . S
C1006 C1012 1.465 1_565 S
C1007 C1002 1.399 . S
C1007 C1006 1.394 . S
C1007 C1008 1.516 1_565 S
C1008 C1007 1.516 1_545 S
C1008 C1009 1.502 . S
C1008 C1010 1.561 . S
C1008 C1011 1.526 . S
C1009 H993 0.959 . S
C1009 H994 0.959 . S
C1009 H995 0.961 1_545 S
C1009 C1008 1.502 . S
C1010 H996 0.960 1_545 S
C1010 H997 0.961 . S
C1010 H998 0.959 . S
C1010 C1008 1.561 . S
C1011 C1008 1.526 . S
C1011 C1012 1.396 . S
C1011 C1016 1.390 . S
C1012 C1006 1.465 1_545 S
C1012 C1011 1.396 . S
C1012 C1013 1.399 . S
C1013 H999 0.929 . S
C1013 C1012 1.399 . S
C1013 C1014 1.385 . S
C1014 H1000 0.931 . S
C1014 C1013 1.385 . S
C1014 C1015 1.389 . S
C1015 C1014 1.389 . S
C1015 C1016 1.387 . S
C1016 H1001 0.930 . S
C1016 C1011 1.390 . S
C1016 C1015 1.387 . S
H1017 C1029 0.930 . S
H1018 C1031 0.930 . S
H1019 C1032 0.930 . S
H1020 C1036 0.959 . S
H1021 C1036 0.959 . S
H1022 C1036 0.961 . S
H1023 C1037 0.960 . S
H1024 C1037 0.961 . S
H1025 C1037 0.959 . S
H1026 C1040 0.929 . S
H1027 C1041 0.931 . S
H1028 C1043 0.930 . S
C1029 H1017 0.930 . S
C1029 C1030 1.399 . S
C1029 C1034 1.399 . S
C1030 C1029 1.399 . S
C1030 C1031 1.376 . S
C1031 H1018 0.930 . S
C1031 C1030 1.376 . S
C1031 C1032 1.388 . S
C1032 H1019 0.930 . S
C1032 C1031 1.388 . S
C1032 C1033 1.390 . S
C1033 C1032 1.390 . S
C1033 C1034 1.394 . S
C1033 C1039 1.465 . S
C1034 C1029 1.399 . S
C1034 C1033 1.394 . S
C1034 C1035 1.516 . S
C1035 C1034 1.516 . S
C1035 C1036 1.502 . S
C1035 C1037 1.561 . S
C1035 C1038 1.526 . S
C1036 H1020 0.959 . S
C1036 H1021 0.959 . S
C1036 H1022 0.961 . S
C1036 C1035 1.502 . S
C1037 H1023 0.960 . S
C1037 H1024 0.961 . S
C1037 H1025 0.959 . S
C1037 C1035 1.561 . S
C1038 C1035 1.526 . S
C1038 C1039 1.396 . S
C1038 C1043 1.390 . S
C1039 C1033 1.465 . S
C1039 C1038 1.396 . S
C1039 C1040 1.399 . S
C1040 H1026 0.929 . S
C1040 C1039 1.399 . S
C1040 C1041 1.385 . S
C1041 H1027 0.931 . S
C1041 C1040 1.385 . S
C1041 C1042 1.389 . S
C1042 C1041 1.389 . S
C1042 C1043 1.387 . S
C1043 H1028 0.930 . S
C1043 C1038 1.390 . S
C1043 C1042 1.387 . S
H1044 C1056 0.930 . S
H1045 C1058 0.930 . S
H1046 C1059 0.930 . S
H1047 C1063 0.959 . S
H1048 C1063 0.959 . S
H1049 C1063 0.961 . S
H1050 C1064 0.960 . S
H1051 C1064 0.961 . S
H1052 C1064 0.959 . S
H1053 C1067 0.929 . S
H1054 C1068 0.931 . S
H1055 C1070 0.930 . S
C1056 H1044 0.930 . S
C1056 C1057 1.399 . S
C1056 C1061 1.399 . S
C1057 C1056 1.399 . S
C1057 C1058 1.376 . S
C1058 H1045 0.930 . S
C1058 C1057 1.376 . S
C1058 C1059 1.388 . S
C1059 H1046 0.930 . S
C1059 C1058 1.388 . S
C1059 C1060 1.390 . S
C1060 C1059 1.390 . S
C1060 C1061 1.394 . S
C1060 C1066 1.465 . S
C1061 C1056 1.399 . S
C1061 C1060 1.394 . S
C1061 C1062 1.516 . S
C1062 C1061 1.516 . S
C1062 C1063 1.502 . S
C1062 C1064 1.561 . S
C1062 C1065 1.526 . S
C1063 H1047 0.959 . S
C1063 H1048 0.959 . S
C1063 H1049 0.961 . S
C1063 C1062 1.502 . S
C1064 H1050 0.960 . S
C1064 H1051 0.961 . S
C1064 H1052 0.959 . S
C1064 C1062 1.561 . S
C1065 C1062 1.526 . S
C1065 C1066 1.396 . S
C1065 C1070 1.390 . S
C1066 C1060 1.465 . S
C1066 C1065 1.396 . S
C1066 C1067 1.399 . S
C1067 H1053 0.929 . S
C1067 C1066 1.399 . S
C1067 C1068 1.385 . S
C1068 H1054 0.931 . S
C1068 C1067 1.385 . S
C1068 C1069 1.389 . S
C1069 C1068 1.389 . S
C1069 C1070 1.387 . S
C1070 H1055 0.930 . S
C1070 C1065 1.390 . S
C1070 C1069 1.387 . S
H1071 C1083 0.930 . S
H1072 C1085 0.930 . S
H1073 C1086 0.930 . S
H1074 C1090 0.959 . S
H1075 C1090 0.959 . S
H1076 C1090 0.961 . S
H1077 C1091 0.960 . S
H1078 C1091 0.961 . S
H1079 C1091 0.959 . S
H1080 C1094 0.929 . S
H1081 C1095 0.931 . S
H1082 C1097 0.930 . S
C1083 H1071 0.930 . S
C1083 C1084 1.399 . S
C1083 C1088 1.399 . S
C1084 C1083 1.399 . S
C1084 C1085 1.376 . S
C1085 H1072 0.930 . S
C1085 C1084 1.376 . S
C1085 C1086 1.388 . S
C1086 H1073 0.930 . S
C1086 C1085 1.388 . S
C1086 C1087 1.390 . S
C1087 C1086 1.390 . S
C1087 C1088 1.394 . S
C1087 C1093 1.465 . S
C1088 C1083 1.399 . S
C1088 C1087 1.394 . S
C1088 C1089 1.516 . S
C1089 C1088 1.516 . S
C1089 C1090 1.502 . S
C1089 C1091 1.561 . S
C1089 C1092 1.526 . S
C1090 H1074 0.959 . S
C1090 H1075 0.959 . S
C1090 H1076 0.961 . S
C1090 C1089 1.502 . S
C1091 H1077 0.960 . S
C1091 H1078 0.961 . S
C1091 H1079 0.959 . S
C1091 C1089 1.561 . S
C1092 C1089 1.526 . S
C1092 C1093 1.396 . S
C1092 C1097 1.390 . S
C1093 C1087 1.465 . S
C1093 C1092 1.396 . S
C1093 C1094 1.399 . S
C1094 H1080 0.929 . S
C1094 C1093 1.399 . S
C1094 C1095 1.385 . S
C1095 H1081 0.931 . S
C1095 C1094 1.385 . S
C1095 C1096 1.389 . S
C1096 C1095 1.389 . S
C1096 C1097 1.387 . S
C1097 H1082 0.930 . S
C1097 C1092 1.390 . S
C1097 C1096 1.387 . S
H1098 C1110 0.930 . S
H1099 C1112 0.930 . S
H1100 C1113 0.930 . S
H1101 C1117 0.959 . S
H1102 C1117 0.959 . S
H1103 C1117 0.961 . S
H1104 C1118 0.960 . S
H1105 C1118 0.961 . S
H1106 C1118 0.959 . S
H1107 C1121 0.929 . S
H1108 C1122 0.931 . S
H1109 C1124 0.930 . S
C1110 H1098 0.930 . S
C1110 C1111 1.399 . S
C1110 C1115 1.399 . S
C1111 C1110 1.399 . S
C1111 C1112 1.376 . S
C1112 H1099 0.930 . S
C1112 C1111 1.376 . S
C1112 C1113 1.388 . S
C1113 H1100 0.930 . S
C1113 C1112 1.388 . S
C1113 C1114 1.390 . S
C1114 C1113 1.390 . S
C1114 C1115 1.394 . S
C1114 C1120 1.465 . S
C1115 C1110 1.399 . S
C1115 C1114 1.394 . S
C1115 C1116 1.516 . S
C1116 C1115 1.516 . S
C1116 C1117 1.502 . S
C1116 C1118 1.561 . S
C1116 C1119 1.526 . S
C1117 H1101 0.959 . S
C1117 H1102 0.959 . S
C1117 H1103 0.961 . S
C1117 C1116 1.502 . S
C1118 H1104 0.960 . S
C1118 H1105 0.961 . S
C1118 H1106 0.959 . S
C1118 C1116 1.561 . S
C1119 C1116 1.526 . S
C1119 C1120 1.396 . S
C1119 C1124 1.390 . S
C1120 C1114 1.465 . S
C1120 C1119 1.396 . S
C1120 C1121 1.399 . S
C1121 H1107 0.929 . S
C1121 C1120 1.399 . S
C1121 C1122 1.385 . S
C1122 H1108 0.931 . S
C1122 C1121 1.385 . S
C1122 C1123 1.389 . S
C1123 C1122 1.389 . S
C1123 C1124 1.387 . S
C1124 H1109 0.930 . S
C1124 C1119 1.390 . S
C1124 C1123 1.387 . S
H1125 C1137 0.930 . S
H1126 C1139 0.930 . S
H1127 C1140 0.930 . S
H1128 C1144 0.959 . S
H1129 C1144 0.959 . S
H1130 C1144 0.961 . S
H1131 C1145 0.960 . S
H1132 C1145 0.961 . S
H1133 C1145 0.959 . S
H1134 C1148 0.929 . S
H1135 C1149 0.931 . S
H1136 C1151 0.930 . S
C1137 H1125 0.930 . S
C1137 C1138 1.399 . S
C1137 C1142 1.399 . S
C1138 C1137 1.399 . S
C1138 C1139 1.376 . S
C1139 H1126 0.930 . S
C1139 C1138 1.376 . S
C1139 C1140 1.388 . S
C1140 H1127 0.930 . S
C1140 C1139 1.388 . S
C1140 C1141 1.390 . S
C1141 C1140 1.390 . S
C1141 C1142 1.394 . S
C1141 C1147 1.465 . S
C1142 C1137 1.399 . S
C1142 C1141 1.394 . S
C1142 C1143 1.516 . S
C1143 C1142 1.516 . S
C1143 C1144 1.502 . S
C1143 C1145 1.561 . S
C1143 C1146 1.526 . S
C1144 H1128 0.959 . S
C1144 H1129 0.959 . S
C1144 H1130 0.961 . S
C1144 C1143 1.502 . S
C1145 H1131 0.960 . S
C1145 H1132 0.961 . S
C1145 H1133 0.959 . S
C1145 C1143 1.561 . S
C1146 C1143 1.526 . S
C1146 C1147 1.396 . S
C1146 C1151 1.390 . S
C1147 C1141 1.465 . S
C1147 C1146 1.396 . S
C1147 C1148 1.399 . S
C1148 H1134 0.929 . S
C1148 C1147 1.399 . S
C1148 C1149 1.385 . S
C1149 H1135 0.931 . S
C1149 C1148 1.385 . S
C1149 C1150 1.389 . S
C1150 C1149 1.389 . S
C1150 C1151 1.387 . S
C1151 H1136 0.930 . S
C1151 C1146 1.390 . S
C1151 C1150 1.387 . S
H1152 C1164 0.930 . S
H1153 C1166 0.930 . S
H1154 C1167 0.930 . S
H1155 C1171 0.959 . S
H1156 C1171 0.959 . S
H1157 C1171 0.961 . S
H1158 C1172 0.960 . S
H1159 C1172 0.961 . S
H1160 C1172 0.959 . S
H1161 C1175 0.929 . S
H1162 C1176 0.931 1_455 S
H1163 C1178 0.930 . S
C1164 H1152 0.930 . S
C1164 C1165 1.399 . S
C1164 C1169 1.399 . S
C1165 C1164 1.399 . S
C1165 C1166 1.376 . S
C1166 H1153 0.930 . S
C1166 C1165 1.376 . S
C1166 C1167 1.388 . S
C1167 H1154 0.930 . S
C1167 C1166 1.388 . S
C1167 C1168 1.390 . S
C1168 C1167 1.390 . S
C1168 C1169 1.394 . S
C1168 C1174 1.465 . S
C1169 C1164 1.399 . S
C1169 C1168 1.394 . S
C1169 C1170 1.516 . S
C1170 C1169 1.516 . S
C1170 C1171 1.502 . S
C1170 C1172 1.561 . S
C1170 C1173 1.526 . S
C1171 H1155 0.959 . S
C1171 H1156 0.959 . S
C1171 H1157 0.961 . S
C1171 C1170 1.502 . S
C1172 H1158 0.960 . S
C1172 H1159 0.961 . S
C1172 H1160 0.959 . S
C1172 C1170 1.561 . S
C1173 C1170 1.526 . S
C1173 C1174 1.396 . S
C1173 C1178 1.390 . S
C1174 C1168 1.465 . S
C1174 C1173 1.396 . S
C1174 C1175 1.399 . S
C1175 H1161 0.929 . S
C1175 C1174 1.399 . S
C1175 C1176 1.385 . S
C1176 H1162 0.931 1_655 S
C1176 C1175 1.385 . S
C1176 C1177 1.389 . S
C1177 C1176 1.389 . S
C1177 C1178 1.387 . S
C1178 H1163 0.930 . S
C1178 C1173 1.390 . S
C1178 C1177 1.387 . S
H1179 C1191 0.930 . S
H1180 C1193 0.930 . S
H1181 C1194 0.930 . S
H1182 C1198 0.959 . S
H1183 C1198 0.959 . S
H1184 C1198 0.961 . S
H1185 C1199 0.960 . S
H1186 C1199 0.961 . S
H1187 C1199 0.959 . S
H1188 C1202 0.929 . S
H1189 C1203 0.931 . S
H1190 C1205 0.930 . S
C1191 H1179 0.930 . S
C1191 C1192 1.399 . S
C1191 C1196 1.399 . S
C1192 C1191 1.399 . S
C1192 C1193 1.376 . S
C1193 H1180 0.930 . S
C1193 C1192 1.376 . S
C1193 C1194 1.388 . S
C1194 H1181 0.930 . S
C1194 C1193 1.388 . S
C1194 C1195 1.390 . S
C1195 C1194 1.390 . S
C1195 C1196 1.394 . S
C1195 C1201 1.465 . S
C1196 C1191 1.399 . S
C1196 C1195 1.394 . S
C1196 C1197 1.516 . S
C1197 C1196 1.516 . S
C1197 C1198 1.502 . S
C1197 C1199 1.561 . S
C1197 C1200 1.526 . S
C1198 H1182 0.959 . S
C1198 H1183 0.959 . S
C1198 H1184 0.961 . S
C1198 C1197 1.502 . S
C1199 H1185 0.960 . S
C1199 H1186 0.961 . S
C1199 H1187 0.959 . S
C1199 C1197 1.561 . S
C1200 C1197 1.526 . S
C1200 C1201 1.396 . S
C1200 C1205 1.390 . S
C1201 C1195 1.465 . S
C1201 C1200 1.396 . S
C1201 C1202 1.399 . S
C1202 H1188 0.929 . S
C1202 C1201 1.399 . S
C1202 C1203 1.385 . S
C1203 H1189 0.931 . S
C1203 C1202 1.385 . S
C1203 C1204 1.389 . S
C1204 C1203 1.389 . S
C1204 C1205 1.387 . S
C1205 H1190 0.930 . S
C1205 C1200 1.390 . S
C1205 C1204 1.387 . S
C409 N299 1.609 . S
C421 N2 1.624 . S
C436 N35 1.602 . S
C448 N332 1.620 . S
C463 N68 1.627 . S
C475 N365 1.616 . S
C490 N101 1.585 . S
C502 N200 1.606 . S
C517 N134 1.591 . S
C529 N233 1.612 . S
C544 N167 1.622 . S
C556 N266 1.605 . S
C571 N343 1.640 . S
C583 N13 1.611 . S
C598 N376 1.607 . S
C610 N46 1.653 . S
C625 N79 1.606 . S
C637 N211 1.649 . S
C652 N244 1.629 . S
C664 N112 1.620 . S
C679 N145 1.625 . S
C691 N277 1.624 . S
C706 N178 1.653 . S
C718 N310 1.614 . S
C733 C106 1.473 . S
C745 C7 1.525 . S
C760 C40 1.541 . S
C772 C139 1.463 . S
C787 C172 1.530 . S
C799 C73 1.474 . S
C814 C304 1.533 . S
C826 C205 1.470 . S
C841 C238 1.537 . S
C853 C337 1.467 . S
C868 C370 1.494 . S
C880 C271 1.505 . S
C895 C18 1.635 . S
C907 C381 1.622 . S
C922 C216 1.645 . S
C934 C51 1.629 . S
C949 C84 1.647 . S
C961 C249 1.631 . S
C976 C117 1.627 . S
C988 C282 1.618 . S
C1003 C150 1.664 . S
C1015 C315 1.676 . S
C1030 C348 1.626 . S
C1042 C183 1.618 . S
C1057 C21 0.405 . S
C1069 C285 0.243 . S
C1084 C318 0.255 . S
C1096 C54 0.366 . S
C1111 C87 0.296 . S
C1123 C351 0.422 . S
C1138 C384 0.280 . S
C1150 C120 0.423 . S
C1165 C219 0.292 . S
C1177 C153 0.322 . S
C1192 C186 0.308 . S
C1204 C252 0.419 . S
