# Generated by pormake.
# Topology wjk, (5)-cn, num edge types: 1
# Building blocks:
#     Node 0, Type 0, BuildingBlock: BEQFEK_clean_sbu_0, # of connection points: 5
#     Node 1, Type 0, BuildingBlock: BEQFEK_clean_sbu_0, # of connection points: 5
#     Node 2, Type 0, BuildingBlock: BEQFEK_clean_sbu_0, # of connection points: 5
#     Node 3, Type 0, BuildingBlock: BEQFEK_clean_sbu_0, # of connection points: 5
#     Node 4, Type 0, BuildingBlock: BEQFEK_clean_sbu_0, # of connection points: 5
#     Node 5, Type 0, BuildingBlock: BEQFEK_clean_sbu_0, # of connection points: 5
#     Node 6, Type 0, BuildingBlock: BEQFEK_clean_sbu_0, # of connection points: 5
#     Node 7, Type 0, BuildingBlock: BEQFEK_clean_sbu_0, # of connection points: 5
#     Node 8, Type 0, BuildingBlock: BEQFEK_clean_sbu_0, # of connection points: 5
#     Node 9, Type 0, BuildingBlock: BEQFEK_clean_sbu_0, # of connection points: 5
#     Node 10, Type 0, BuildingBlock: BEQFEK_clean_sbu_0, # of connection points: 5
#     Node 11, Type 0, BuildingBlock: BEQFEK_clean_sbu_0, # of connection points: 5
#     Edge 12, Type (0, 0), BuildingBlock: MIFKUJ_clean_linker_0, # of connection points: 2
#     Edge 13, Type (0, 0), BuildingBlock: MIFKUJ_clean_linker_0, # of connection points: 2
#     Edge 14, Type (0, 0), BuildingBlock: MIFKUJ_clean_linker_0, # of connection points: 2
#     Edge 15, Type (0, 0), BuildingBlock: MIFKUJ_clean_linker_0, # of connection points: 2
#     Edge 16, Type (0, 0), BuildingBlock: MIFKUJ_clean_linker_0, # of connection points: 2
#     Edge 17, Type (0, 0), BuildingBlock: MIFKUJ_clean_linker_0, # of connection points: 2
#     Edge 18, Type (0, 0), BuildingBlock: MIFKUJ_clean_linker_0, # of connection points: 2
#     Edge 19, Type (0, 0), BuildingBlock: MIFKUJ_clean_linker_0, # of connection points: 2
#     Edge 20, Type (0, 0), BuildingBlock: MIFKUJ_clean_linker_0, # of connection points: 2
#     Edge 21, Type (0, 0), BuildingBlock: MIFKUJ_clean_linker_0, # of connection points: 2
#     Edge 22, Type (0, 0), BuildingBlock: MIFKUJ_clean_linker_0, # of connection points: 2
#     Edge 23, Type (0, 0), BuildingBlock: MIFKUJ_clean_linker_0, # of connection points: 2
#     Edge 24, Type (0, 0), BuildingBlock: MIFKUJ_clean_linker_0, # of connection points: 2
#     Edge 25, Type (0, 0), BuildingBlock: MIFKUJ_clean_linker_0, # of connection points: 2
#     Edge 26, Type (0, 0), BuildingBlock: MIFKUJ_clean_linker_0, # of connection points: 2
#     Edge 27, Type (0, 0), BuildingBlock: MIFKUJ_clean_linker_0, # of connection points: 2
#     Edge 28, Type (0, 0), BuildingBlock: MIFKUJ_clean_linker_0, # of connection points: 2
#     Edge 29, Type (0, 0), BuildingBlock: MIFKUJ_clean_linker_0, # of connection points: 2
#     Edge 30, Type (0, 0), BuildingBlock: MIFKUJ_clean_linker_0, # of connection points: 2
#     Edge 31, Type (0, 0), BuildingBlock: MIFKUJ_clean_linker_0, # of connection points: 2
#     Edge 32, Type (0, 0), BuildingBlock: MIFKUJ_clean_linker_0, # of connection points: 2
#     Edge 33, Type (0, 0), BuildingBlock: MIFKUJ_clean_linker_0, # of connection points: 2
#     Edge 34, Type (0, 0), BuildingBlock: MIFKUJ_clean_linker_0, # of connection points: 2
#     Edge 35, Type (0, 0), BuildingBlock: MIFKUJ_clean_linker_0, # of connection points: 2
#     Edge 36, Type (0, 0), BuildingBlock: MIFKUJ_clean_linker_0, # of connection points: 2
#     Edge 37, Type (0, 0), BuildingBlock: MIFKUJ_clean_linker_0, # of connection points: 2
#     Edge 38, Type (0, 0), BuildingBlock: MIFKUJ_clean_linker_0, # of connection points: 2
#     Edge 39, Type (0, 0), BuildingBlock: MIFKUJ_clean_linker_0, # of connection points: 2
#     Edge 40, Type (0, 0), BuildingBlock: MIFKUJ_clean_linker_0, # of connection points: 2
#     Edge 41, Type (0, 0), BuildingBlock: MIFKUJ_clean_linker_0, # of connection points: 2
# Relax obj value: 0.391
# Max RMSD: 0.210
# Mean RMSD: 0.210
data_MOF--net-wjk--node1-BEQFEK_clean_sbu_0--edge1-MIFKUJ_clean_linker_0
_symmetry_space_group_name_H-M    P1
_symmetry_Int_Tables_number       1
_symmetry_cell_setting            triclinic
loop_
_symmetry_equiv_pos_as_xyz
'x, y, z'
_cell_length_a     43.288925
_cell_length_b     43.292964
_cell_length_c     98.26608
_cell_angle_alpha  89.954527
_cell_angle_beta   90.04908
_cell_angle_gamma 119.95824
loop_
_atom_site_label
_atom_site_type_symbol
_atom_site_fract_x
_atom_site_fract_y
_atom_site_fract_z
_atom_type_partial_charge
Co0 Co 0.15155 0.21564 0.24656 0.0
Co1 Co 0.21253 0.28708 0.2348 0.0
C2 C 0.20816 0.21768 0.2283 0.0
O3 O 0.18092 0.20055 0.23588 0.0
O4 O 0.22291 0.25131 0.22694 0.0
C5 C 0.12331 0.15397 0.26361 0.0
O6 O 0.15672 0.16213 0.26505 0.0
C7 C 0.28621 0.34297 0.22908 0.0
C8 C 0.28231 0.3919 0.2298 0.0
C9 C 0.3065 0.37994 0.22856 0.0
N10 N 0.25182 0.33364 0.23091 0.0
N11 N 0.24962 0.36301 0.23114 0.0
C12 C 0.29871 0.31663 0.22719 0.0
H13 H 0.28355 0.29839 0.21873 0.0
H14 H 0.29328 0.30037 0.23655 0.0
H15 H 0.32739 0.3296 0.22457 0.0
C16 C 0.18074 0.25329 0.27285 0.0
N17 N 0.17957 0.2525 0.25911 0.0
N18 N 0.20748 0.28127 0.25432 0.0
C19 C 0.22846 0.3 0.26494 0.0
C20 C 0.21213 0.28291 0.27704 0.0
C21 C 0.15341 0.22528 0.28197 0.0
H22 H 0.12696 0.21187 0.27697 0.0
H23 H 0.16172 0.20559 0.28461 0.0
H24 H 0.15106 0.23718 0.29162 0.0
O25 O 0.12572 0.2298 0.23379 0.0
O26 O 0.16824 0.28054 0.22495 0.0
H27 H 0.26195 0.35349 0.25808 0.0
H28 H 0.27673 0.34306 0.2737 0.0
C29 C 0.26445 0.33253 0.2636 0.0
H30 H 0.28211 0.32594 0.25763 0.0
H31 H 0.22598 0.36339 0.23268 0.0
O32 O 0.11562 0.1732 0.25619 0.0
C33 C 0.13559 0.25581 0.22559 0.0
Co34 Co 0.93009 0.15586 0.58049 0.0
Co35 Co 0.91994 0.21633 0.56765 0.0
C36 C 0.98127 0.20723 0.55962 0.0
O37 O 0.97135 0.18112 0.56781 0.0
O38 O 0.964 0.22383 0.55857 0.0
C39 C 0.96925 0.13178 0.59583 0.0
O40 O 0.9963 0.16302 0.59249 0.0
C41 C 0.93521 0.28809 0.55901 0.0
C42 C 0.88533 0.28687 0.56475 0.0
C43 C 0.91953 0.30934 0.55996 0.0
N44 N 0.91175 0.25508 0.56346 0.0
N45 N 0.88177 0.25443 0.56663 0.0
C46 C 0.97126 0.29823 0.55347 0.0
H47 H 0.96898 0.27698 0.54657 0.0
H48 H 0.98932 0.30091 0.56197 0.0
H49 H 0.98284 0.32342 0.54758 0.0
C50 C 0.93049 0.19211 0.60598 0.0
N51 N 0.92601 0.18779 0.59239 0.0
N52 N 0.92498 0.2152 0.58714 0.0
C53 C 0.93084 0.23878 0.59726 0.0
C54 C 0.93412 0.22462 0.60953 0.0
C55 C 0.93408 0.16706 0.6155 0.0
H56 H 0.91646 0.13909 0.61226 0.0
H57 H 0.9622 0.17322 0.6156 0.0
H58 H 0.92693 0.1703 0.62604 0.0
O59 O 0.88675 0.12804 0.56952 0.0
O60 O 0.87981 0.17033 0.55959 0.0
H61 H 0.91141 0.27393 0.59217 0.0
H62 H 0.94706 0.29195 0.60447 0.0
C63 C 0.93692 0.2756 0.5951 0.0
H64 H 0.95626 0.2887 0.58671 0.0
H65 H 0.85939 0.23223 0.57066 0.0
O66 O 0.9383 0.12269 0.59139 0.0
C67 C 0.8703 0.13743 0.56126 0.0
Co68 Co 0.77501 0.92732 0.91472 0.0
Co69 Co 0.70787 0.92369 0.90115 0.0
C70 C 0.78063 0.98266 0.8945 0.0
O71 O 0.7943 0.96914 0.9023 0.0
O72 O 0.74693 0.96873 0.89335 0.0
C73 C 0.8396 0.96093 0.92993 0.0
O74 O 0.84 0.99033 0.92628 0.0
C75 C 0.65435 0.94398 0.89361 0.0
C76 C 0.60458 0.89185 0.89379 0.0
C77 C 0.61754 0.9281 0.89228 0.0
N78 N 0.66257 0.91834 0.89613 0.0
N79 N 0.63271 0.88722 0.89604 0.0
C80 C 0.68167 0.98251 0.8918 0.0
H81 H 0.70101 0.9848 0.88393 0.0
H82 H 0.69663 0.9933 0.90143 0.0
H83 H 0.66967 0.99867 0.88849 0.0
C84 C 0.73907 0.9302 0.93978 0.0
N85 N 0.73924 0.92548 0.92623 0.0
N86 N 0.7113 0.92506 0.92076 0.0
C87 C 0.69287 0.93028 0.93079 0.0
C88 C 0.71002 0.93379 0.94315 0.0
C89 C 0.76755 0.93385 0.94939 0.0
H90 H 0.7758 0.91407 0.94687 0.0
H91 H 0.79089 0.96109 0.94851 0.0
H92 H 0.75802 0.9297 0.96008 0.0
O93 O 0.75811 0.88477 0.90323 0.0
O94 O 0.71291 0.88395 0.89222 0.0
H95 H 0.6407 0.91267 0.92283 0.0
H96 H 0.6506 0.93863 0.93826 0.0
C97 C 0.66176 0.93571 0.92849 0.0
H98 H 0.67033 0.96005 0.9223 0.0
H99 H 0.63142 0.86288 0.89795 0.0
O100 O 0.81445 0.93103 0.92588 0.0
C101 C 0.73406 0.87171 0.89412 0.0
Co102 Co 0.83707 0.78004 0.24665 0.0
Co103 Co 0.7794 0.70561 0.23571 0.0
C104 C 0.78231 0.77252 0.22612 0.0
O105 O 0.80834 0.79149 0.23401 0.0
O106 O 0.76838 0.73878 0.22575 0.0
C107 C 0.85737 0.84283 0.26173 0.0
O108 O 0.82319 0.83219 0.26091 0.0
C109 C 0.70707 0.64713 0.23025 0.0
C110 C 0.71299 0.59951 0.23217 0.0
C111 C 0.68788 0.6101 0.23032 0.0
N112 N 0.74171 0.65787 0.23233 0.0
N113 N 0.74514 0.62927 0.23327 0.0
C114 C 0.69329 0.67222 0.22766 0.0
H115 H 0.70728 0.68903 0.21872 0.0
H116 H 0.69924 0.69015 0.23654 0.0
H117 H 0.66434 0.6581 0.22544 0.0
C118 C 0.80537 0.74643 0.27321 0.0
N119 N 0.80822 0.74492 0.25957 0.0
N120 N 0.78216 0.71429 0.25509 0.0
C121 C 0.76111 0.69608 0.26579 0.0
C122 C 0.77519 0.71603 0.27758 0.0
C123 C 0.83074 0.77632 0.28219 0.0
H124 H 0.85808 0.78928 0.27794 0.0
H125 H 0.82171 0.79607 0.28323 0.0
H126 H 0.83112 0.76623 0.29255 0.0
O127 O 0.86595 0.76561 0.23564 0.0
O128 O 0.82548 0.71298 0.22733 0.0
H129 H 0.73149 0.64136 0.25983 0.0
H130 H 0.71447 0.65181 0.27486 0.0
C131 C 0.7267 0.66165 0.2647 0.0
H132 H 0.70789 0.66551 0.25825 0.0
H133 H 0.76925 0.63005 0.23515 0.0
O134 O 0.86933 0.82452 0.25609 0.0
C135 C 0.8577 0.73862 0.22814 0.0
Co136 Co 0.07678 0.85081 0.58187 0.0
Co137 Co 0.07902 0.78567 0.56933 0.0
C138 C 0.01968 0.79769 0.56248 0.0
O139 O 0.03399 0.82568 0.56984 0.0
O140 O 0.03359 0.77791 0.56146 0.0
C141 C 0.04005 0.87405 0.5983 0.0
O142 O 0.01573 0.84022 0.59711 0.0
C143 C 0.06258 0.71399 0.55994 0.0
C144 C 0.10809 0.71083 0.56849 0.0
C145 C 0.07574 0.69075 0.56188 0.0
N146 N 0.08554 0.7457 0.56557 0.0
N147 N 0.11299 0.74376 0.57041 0.0
C148 C 0.02977 0.7071 0.55236 0.0
H149 H 0.03532 0.73114 0.54644 0.0
H150 H 0.00811 0.70134 0.55972 0.0
H151 H 0.02096 0.68445 0.54519 0.0
C152 C 0.07693 0.81566 0.6076 0.0
N153 N 0.08039 0.81883 0.59396 0.0
N154 N 0.07725 0.78936 0.58884 0.0
C155 C 0.06939 0.76565 0.59912 0.0
C156 C 0.06904 0.78168 0.61135 0.0
C157 C 0.08007 0.8441 0.6171 0.0
H158 H 0.09697 0.8709 0.61261 0.0
H159 H 0.05319 0.83992 0.6194 0.0
H160 H 0.09197 0.84242 0.62689 0.0
O161 O 0.11881 0.87594 0.57017 0.0
O162 O 0.11837 0.83008 0.55982 0.0
H163 H 0.08115 0.72393 0.5958 0.0
H164 H 0.04202 0.71085 0.60598 0.0
C165 C 0.0574 0.72704 0.59709 0.0
H166 H 0.04079 0.71702 0.58778 0.0
H167 H 0.13431 0.76445 0.57562 0.0
O168 O 0.06981 0.88557 0.59231 0.0
C169 C 0.13112 0.86371 0.56125 0.0
Co170 Co 0.22303 0.0661 0.91446 0.0
Co171 Co 0.29382 0.07668 0.90195 0.0
C172 C 0.22506 0.01452 0.89399 0.0
O173 O 0.20906 0.02559 0.90172 0.0
O174 O 0.25891 0.03123 0.89315 0.0
C175 C 0.16368 0.02234 0.93025 0.0
O176 O 0.1762 0.00064 0.92819 0.0
C177 C 0.35152 0.06203 0.8954 0.0
C178 C 0.39855 0.11612 0.89445 0.0
C179 C 0.38824 0.08029 0.89348 0.0
N180 N 0.34073 0.08596 0.89735 0.0
N181 N 0.36895 0.11826 0.89665 0.0
C182 C 0.32752 0.02256 0.89673 0.0
H183 H 0.30423 0.01645 0.90322 0.0
H184 H 0.34207 0.00988 0.90116 0.0
H185 H 0.31765 0.01102 0.88649 0.0
C186 C 0.25957 0.06892 0.94019 0.0
N187 N 0.25955 0.072 0.92654 0.0
N188 N 0.28833 0.07328 0.92152 0.0
C189 C 0.30661 0.06925 0.93195 0.0
C190 C 0.28876 0.06622 0.94409 0.0
C191 C 0.2316 0.06723 0.94961 0.0
H192 H 0.21898 0.08191 0.94532 0.0
H193 H 0.2112 0.03899 0.95145 0.0
H194 H 0.24364 0.07907 0.95961 0.0
O195 O 0.23688 0.10903 0.90351 0.0
O196 O 0.28559 0.11514 0.8934 0.0
H197 H 0.35116 0.06634 0.94038 0.0
H198 H 0.33107 0.03948 0.92545 0.0
C199 C 0.33884 0.06539 0.93036 0.0
H200 H 0.35867 0.08703 0.92379 0.0
H201 H 0.36814 0.14173 0.89805 0.0
O202 O 0.17975 0.05332 0.925 0.0
C203 C 0.26218 0.12473 0.89498 0.0
Co204 Co 0.77298 0.84612 0.44375 0.0
Co205 Co 0.70304 0.7835 0.45596 0.0
C206 C 0.77339 0.79379 0.46421 0.0
O207 O 0.78889 0.82052 0.45627 0.0
O208 O 0.73956 0.77608 0.46515 0.0
C209 C 0.83393 0.86706 0.42815 0.0
O210 O 0.82371 0.83316 0.4298 0.0
C211 C 0.64714 0.71184 0.46488 0.0
C212 C 0.59861 0.71025 0.45699 0.0
C213 C 0.61064 0.68926 0.46305 0.0
N214 N 0.65623 0.74408 0.45968 0.0
N215 N 0.62692 0.74309 0.45526 0.0
C216 C 0.67288 0.70379 0.47202 0.0
H217 H 0.69089 0.72668 0.47853 0.0
H218 H 0.68928 0.69961 0.46437 0.0
H219 H 0.65894 0.67993 0.47862 0.0
C220 C 0.73765 0.81197 0.41777 0.0
N221 N 0.73763 0.81468 0.43146 0.0
N222 N 0.71012 0.78599 0.43648 0.0
C223 C 0.69323 0.76298 0.42612 0.0
C224 C 0.70996 0.7789 0.4139 0.0
C225 C 0.76506 0.83946 0.40851 0.0
H226 H 0.77668 0.86636 0.41308 0.0
H227 H 0.78632 0.83284 0.40655 0.0
H228 H 0.75314 0.83975 0.39856 0.0
O229 O 0.75644 0.87272 0.45489 0.0
O230 O 0.70761 0.82868 0.46435 0.0
H231 H 0.63814 0.72658 0.42973 0.0
H232 H 0.65898 0.70933 0.41869 0.0
C233 C 0.66296 0.72574 0.42789 0.0
H234 H 0.66798 0.71317 0.43682 0.0
H235 H 0.62651 0.76438 0.45043 0.0
O236 O 0.81575 0.87949 0.43355 0.0
C237 C 0.73023 0.86194 0.46306 0.0
Co238 Co 0.93435 0.77546 0.77473 0.0
Co239 Co 0.92403 0.70538 0.78794 0.0
C240 C 0.988 0.77605 0.79432 0.0
O241 O 0.97722 0.792 0.78638 0.0
O242 O 0.97021 0.74233 0.79582 0.0
C243 C 0.97054 0.84 0.75944 0.0
O244 O -0.00066 0.83893 0.76285 0.0
C245 C 0.94221 0.65004 0.79407 0.0
C246 C 0.88934 0.60246 0.79735 0.0
C247 C 0.92545 0.6137 0.79679 0.0
N248 N 0.91718 0.6597 0.79309 0.0
N249 N 0.88565 0.6312 0.7952 0.0
C250 C 0.98089 0.67459 0.79109 0.0
H251 H 0.98433 0.6967 0.78437 0.0
H252 H 0.99285 0.65997 0.78615 0.0
H253 H 0.99521 0.68618 0.80077 0.0
C254 C 0.9304 0.73726 0.74938 0.0
N255 N 0.928 0.73815 0.76303 0.0
N256 N 0.92504 0.70885 0.7683 0.0
C257 C 0.92646 0.68874 0.758 0.0
C258 C 0.9299 0.70612 0.74569 0.0
C259 C 0.93714 0.76758 0.74016 0.0
H260 H 0.91895 0.77773 0.74281 0.0
H261 H 0.96509 0.78925 0.74147 0.0
H262 H 0.9332 0.75983 0.7293 0.0
O263 O 0.89296 0.76163 0.78664 0.0
O264 O 0.8857 0.71273 0.7969 0.0
H265 H 0.90474 0.63705 0.76712 0.0
H266 H 0.92101 0.63987 0.74995 0.0
C267 C 0.92588 0.65416 0.75979 0.0
H268 H 0.95195 0.65942 0.76385 0.0
H269 H 0.86155 0.63116 0.79476 0.0
O270 O 0.94032 0.81595 0.76372 0.0
C271 C 0.87697 0.73672 0.79529 0.0
Co272 Co 0.16262 0.94224 0.11317 0.0
Co273 Co 0.21511 0.9162 0.12179 0.0
C274 C 0.22207 0.98298 0.13301 0.0
O275 O 0.19635 0.97931 0.12567 0.0
O276 O 0.23216 0.96003 0.13294 0.0
C277 C 0.15233 0.99494 0.10133 0.0
O278 O 0.18734 0.01172 0.10109 0.0
C279 C 0.28543 0.92442 0.12533 0.0
C280 C 0.2757 0.86929 0.12482 0.0
C281 C 0.30247 0.90458 0.12603 0.0
N282 N 0.25022 0.90202 0.12392 0.0
N283 N 0.24448 0.86903 0.12368 0.0
C284 C 0.30256 0.96419 0.12467 0.0
H285 H 0.28636 0.97196 0.1183 0.0
H286 H 0.32989 0.97635 0.12041 0.0
H287 H 0.3042 0.97474 0.1351 0.0
C288 C 0.1871 0.93723 0.08556 0.0
N289 N 0.18669 0.93304 0.09917 0.0
N290 N 0.21104 0.92478 0.10265 0.0
C291 C 0.2288 0.92505 0.09125 0.0
C292 C 0.21414 0.93292 0.08006 0.0
C293 C 0.16332 0.94708 0.07792 0.0
H294 H 0.13744 0.93675 0.08322 0.0
H295 H 0.17654 0.97652 0.07708 0.0
H296 H 0.15825 0.9361 0.06745 0.0
O297 O 0.13114 0.89875 0.12367 0.0
O298 O 0.16803 0.87981 0.13038 0.0
H299 H 0.26731 0.9165 0.08038 0.0
H300 H 0.28276 0.94081 0.09616 0.0
C301 C 0.25962 0.91853 0.09097 0.0
H302 H 0.25253 0.89354 0.0965 0.0
H303 H 0.21943 0.84645 0.1225 0.0
O304 O 0.13514 0.96324 0.10588 0.0
C305 C 0.13709 0.87689 0.13025 0.0
Co306 Co 0.22407 0.15567 0.44067 0.0
Co307 Co 0.29427 0.21521 0.454 0.0
C308 C 0.22384 0.20741 0.46116 0.0
O309 O 0.20782 0.1817 0.4528 0.0
O310 O 0.25752 0.22308 0.46269 0.0
C311 C 0.16115 0.13186 0.42509 0.0
O312 O 0.16493 0.16288 0.42855 0.0
C313 C 0.35015 0.28606 0.46352 0.0
C314 C 0.39909 0.28601 0.45726 0.0
C315 C 0.38701 0.30772 0.46259 0.0
N316 N 0.34097 0.25361 0.45855 0.0
N317 N 0.37046 0.25361 0.45508 0.0
C318 C 0.32402 0.29529 0.46954 0.0
H319 H 0.30504 0.27317 0.47614 0.0
H320 H 0.30871 0.29893 0.46124 0.0
H321 H 0.33744 0.31976 0.47584 0.0
C322 C 0.26163 0.19179 0.41543 0.0
N323 N 0.26112 0.18717 0.42902 0.0
N324 N 0.28926 0.21444 0.43447 0.0
C325 C 0.30743 0.23828 0.42446 0.0
C326 C 0.29065 0.22439 0.41206 0.0
C327 C 0.23317 0.16718 0.40579 0.0
H328 H 0.22258 0.13909 0.40893 0.0
H329 H 0.21132 0.17352 0.40569 0.0
H330 H 0.2438 0.17064 0.39529 0.0
O331 O 0.23798 0.12736 0.45225 0.0
O332 O 0.28749 0.169 0.46217 0.0
H333 H 0.36193 0.27375 0.42948 0.0
H334 H 0.34352 0.2921 0.41766 0.0
C335 C 0.33777 0.27517 0.42685 0.0
H336 H 0.33145 0.28748 0.43551 0.0
H337 H 0.37089 0.23196 0.45062 0.0
O338 O 0.18314 0.12288 0.42949 0.0
C339 C 0.26347 0.13629 0.46064 0.0
Co340 Co 0.07693 0.22494 0.77408 0.0
Co341 Co 0.07932 0.29205 0.78677 0.0
C342 C 0.02214 0.22125 0.79461 0.0
O343 O 0.03674 0.20797 0.78724 0.0
O344 O 0.03432 0.25473 0.79504 0.0
C345 C 0.03559 0.1661 0.7581 0.0
O346 O 0.01358 0.17828 0.76011 0.0
C347 C 0.06108 0.34718 0.79405 0.0
C348 C 0.1134 0.39647 0.79249 0.0
C349 C 0.07751 0.38416 0.79477 0.0
N350 N 0.08602 0.33823 0.79118 0.0
N351 N 0.11728 0.36783 0.79043 0.0
C352 C 0.02275 0.3205 0.79677 0.0
H353 H 0.02128 0.30144 0.80463 0.0
H354 H 0.0102 0.30513 0.78736 0.0
H355 H 0.00762 0.3332 0.80052 0.0
C356 C 0.07846 0.26152 0.7484 0.0
N357 N 0.07978 0.26048 0.7621 0.0
N358 N 0.07722 0.28711 0.76725 0.0
C359 C 0.07193 0.30466 0.7569 0.0
C360 C 0.07266 0.28903 0.7446 0.0
C361 C 0.08045 0.2353 0.73903 0.0
H362 H 0.09517 0.22338 0.74387 0.0
H363 H 0.05308 0.21413 0.73632 0.0
H364 H 0.09428 0.24839 0.72945 0.0
O365 O 0.12031 0.24176 0.78492 0.0
O366 O 0.11908 0.28632 0.79569 0.0
H367 H 0.08791 0.35725 0.76388 0.0
H368 H 0.0603 0.34431 0.74884 0.0
C369 C 0.06482 0.33483 0.75873 0.0
H370 H 0.04108 0.32609 0.76531 0.0
H371 H 0.14114 0.36853 0.78809 0.0
O372 O 0.06642 0.18235 0.76347 0.0
C373 C 0.13245 0.266 0.79398 0.0
Co374 Co 0.83958 0.0633 0.10552 0.0
Co375 Co 0.78084 0.07435 0.11924 0.0
C376 C 0.78912 0.01 0.12502 0.0
O377 O 0.81417 0.01886 0.11642 0.0
O378 O 0.77496 0.0293 0.12701 0.0
C379 C 0.87656 0.03497 0.08988 0.0
O380 O 0.85014 0.00317 0.09302 0.0
C381 C 0.7063 0.05095 0.12527 0.0
C382 C 0.70708 0.10156 0.12923 0.0
C383 C 0.68437 0.0651 0.12801 0.0
N384 N 0.74021 0.07787 0.12459 0.0
N385 N 0.74057 0.10803 0.12712 0.0
C386 C 0.69593 0.01247 0.12398 0.0
H387 H 0.70596 0.00811 0.11419 0.0
H388 H 0.6668 0.9943 0.1248 0.0
H389 H 0.70883 0.00563 0.13228 0.0
C390 C 0.80316 0.06551 0.08053 0.0
N391 N 0.80785 0.06914 0.09412 0.0
N392 N 0.78255 0.07345 0.0996 0.0
C393 C 0.76063 0.07232 0.08951 0.0
C394 C 0.77312 0.06742 0.07711 0.0
C395 C 0.82421 0.05549 0.07127 0.0
H396 H 0.85295 0.07552 0.07213 0.0
H397 H 0.82025 0.02916 0.07439 0.0
H398 H 0.81601 0.05364 0.06048 0.0
O399 O 0.8658 0.10388 0.11815 0.0
O400 O 0.82547 0.11377 0.12802 0.0
H401 H 0.73259 0.09579 0.09889 0.0
H402 H 0.7176 0.0791 0.08187 0.0
C403 C 0.72739 0.07418 0.09162 0.0
H404 H 0.70636 0.04854 0.0959 0.0
H405 H 0.76353 0.13308 0.12704 0.0
O406 O 0.87657 0.0625 0.0943 0.0
C407 C 0.85777 0.12111 0.12654 0.0
H408 H 0.65017 0.54655 0.21717 0.0
H409 H 0.58534 0.50666 0.21709 0.0
H410 H 0.57296 0.57956 0.24338 0.0
H411 H 0.63762 0.61833 0.24404 0.0
H412 H 0.53009 0.51487 0.25135 0.0
H413 H 0.55675 0.57548 0.20843 0.0
H414 H 0.58732 0.59615 0.18634 0.0
H415 H 0.54541 0.48766 0.1735 0.0
H416 H 0.51496 0.46634 0.19559 0.0
H417 H 0.34557 0.44267 0.21507 0.0
H418 H 0.4104 0.48223 0.21559 0.0
H419 H 0.42055 0.40853 0.24226 0.0
H420 H 0.35588 0.37029 0.24245 0.0
H421 H 0.46425 0.47555 0.20763 0.0
H422 H 0.4896 0.45173 0.26357 0.0
H423 H 0.45797 0.43602 0.28559 0.0
H424 H 0.39426 0.48103 0.27242 0.0
H425 H 0.42579 0.49739 0.2504 0.0
C426 C 0.63351 0.55399 0.2229 0.0
C427 C 0.64876 0.58619 0.23017 0.0
C428 C 0.59651 0.53131 0.2228 0.0
C429 C 0.57414 0.5405 0.22997 0.0
C430 C 0.58955 0.57207 0.23763 0.0
C431 C 0.62649 0.59454 0.23781 0.0
C432 C 0.5347 0.51738 0.22949 0.0
C433 C 0.51572 0.50623 0.24179 0.0
C434 C 0.51578 0.5066 0.21703 0.0
C435 C 0.53386 0.51933 0.2037 0.0
C436 C 0.55425 0.55604 0.20092 0.0
C437 C 0.57153 0.56787 0.1884 0.0
C438 C 0.56838 0.54323 0.17853 0.0
C439 C 0.54786 0.50671 0.18116 0.0
C440 C 0.53056 0.49473 0.19367 0.0
C441 C 0.36173 0.43498 0.22102 0.0
C442 C 0.34577 0.40288 0.22838 0.0
C443 C 0.39874 0.45748 0.22126 0.0
C444 C 0.42042 0.44845 0.22899 0.0
C445 C 0.40445 0.41629 0.23631 0.0
C446 C 0.36747 0.39405 0.23619 0.0
C447 C 0.45967 0.4728 0.22949 0.0
C448 C 0.47862 0.48412 0.2172 0.0
C449 C 0.47846 0.48451 0.24196 0.0
C450 C 0.45985 0.47547 0.25529 0.0
C451 C 0.46897 0.45843 0.2654 0.0
C452 C 0.45102 0.44937 0.27788 0.0
C453 C 0.42405 0.45742 0.28039 0.0
C454 C 0.41507 0.47469 0.27045 0.0
C455 C 0.43294 0.48383 0.25797 0.0
H456 H 0.41015 0.45034 0.29004 0.0
H457 H 0.58178 0.55244 0.16884 0.0
H458 H 0.10834 0.65181 0.55742 0.0
H459 H 0.08097 0.58722 0.55561 0.0
H460 H 0.97663 0.57646 0.55896 0.0
H461 H 0.00394 0.64049 0.56208 0.0
H462 H 0.97654 0.52922 0.57355 0.0
H463 H 0.01366 0.56383 0.52767 0.0
H464 H 0.05491 0.59702 0.50894 0.0
H465 H 0.12124 0.55319 0.51991 0.0
H466 H 0.08062 0.52009 0.53883 0.0
H467 H 0.88663 0.34591 0.55184 0.0
H468 H 0.91201 0.41075 0.55064 0.0
H469 H 0.01408 0.42613 0.5633 0.0
H470 H 0.98856 0.36177 0.56537 0.0
H471 H 0.01281 0.46951 0.53921 0.0
H472 H 0.97377 0.43716 0.58606 0.0
H473 H 0.92916 0.40271 0.60369 0.0
H474 H 0.86163 0.44168 0.58881 0.0
H475 H 0.90566 0.47594 0.57095 0.0
C476 C 0.07953 0.63572 0.55764 0.0
C477 C 0.0584 0.65171 0.55937 0.0
C478 C 0.06384 0.5987 0.55647 0.0
C479 C 0.02656 0.57675 0.55676 0.0
C480 C 0.00541 0.59268 0.5585 0.0
C481 C 0.02113 0.62963 0.55997 0.0
C482 C 0.00973 0.53716 0.55601 0.0
C483 C 0.98413 0.51632 0.56585 0.0
C484 C 0.01977 0.51993 0.54613 0.0
C485 C 0.04424 0.53972 0.53474 0.0
C486 C 0.03717 0.56146 0.52615 0.0
C487 C 0.06042 0.58023 0.51549 0.0
C488 C 0.09072 0.57728 0.51326 0.0
C489 C 0.09778 0.55548 0.52166 0.0
C490 C 0.07462 0.53667 0.53234 0.0
C491 C 0.91457 0.3631 0.55425 0.0
C492 C 0.93585 0.3485 0.5582 0.0
C493 C 0.929 0.40008 0.55354 0.0
C494 C 0.965 0.4231 0.55671 0.0
C495 C 0.9864 0.40872 0.56055 0.0
C496 C 0.97184 0.37181 0.56153 0.0
C497 C 0.98 0.46223 0.55668 0.0
C498 C 0.0052 0.48276 0.54675 0.0
C499 C 0.96913 0.47915 0.56629 0.0
C500 C 0.94279 0.45875 0.57707 0.0
C501 C 0.94925 0.4381 0.58646 0.0
C502 C 0.92411 0.41867 0.59652 0.0
C503 C 0.89252 0.41991 0.59735 0.0
C504 C 0.88607 0.44068 0.58814 0.0
C505 C 0.91112 0.46012 0.57806 0.0
H506 H 0.87309 0.40486 0.60514 0.0
H507 H 0.10869 0.59184 0.505 0.0
H508 H 0.37804 0.0222 0.87868 0.0
H509 H 0.4174 0.99688 0.87742 0.0
H510 H 0.49312 0.08049 0.9036 0.0
H511 H 0.45388 0.10599 0.90481 0.0
H512 H 0.52691 0.06877 0.88366 0.0
H513 H 0.43583 0.9958 0.91568 0.0
H514 H 0.37414 0.95749 0.92369 0.0
H515 H 0.35631 0.88152 0.89224 0.0
H516 H 0.41776 0.91968 0.8839 0.0
H517 H 0.62604 0.98735 0.9056 0.0
H518 H 0.58777 0.01385 0.90436 0.0
H519 H 0.51843 0.93187 0.87623 0.0
H520 H 0.55711 0.90552 0.8773 0.0
H521 H 0.48123 0.94226 0.89628 0.0
H522 H 0.57437 0.01563 0.86493 0.0
H523 H 0.63666 0.05432 0.85765 0.0
H524 H 0.65129 0.12993 0.88881 0.0
H525 H 0.58921 0.09141 0.89642 0.0
C526 C 0.40288 0.03493 0.88429 0.0
C527 C 0.4125 0.06557 0.89212 0.0
C528 C 0.42544 0.02053 0.88352 0.0
C529 C 0.45795 0.03636 0.89063 0.0
C530 C 0.46813 0.06769 0.89807 0.0
C531 C 0.44568 0.08222 0.89877 0.0
C532 C 0.48118 0.0201 0.89047 0.0
C533 C 0.51699 0.04121 0.88656 0.0
C534 C 0.46815 0.98393 0.89402 0.0
C535 C 0.43128 0.96078 0.89908 0.0
C536 C 0.41867 0.97105 0.91041 0.0
C537 C 0.38376 0.94935 0.91502 0.0
C538 C 0.36129 0.91713 0.90846 0.0
C539 C 0.37373 0.90651 0.8973 0.0
C540 C 0.4086 0.92816 0.89263 0.0
C541 C 0.60326 0.9756 0.89883 0.0
C542 C 0.59527 0.94512 0.89115 0.0
C543 C 0.5812 0.99056 0.89823 0.0
C544 C 0.55054 0.97521 0.89002 0.0
C545 C 0.54208 0.94432 0.88256 0.0
C546 C 0.56422 0.92938 0.88314 0.0
C547 C 0.52692 0.99096 0.88949 0.0
C548 C 0.49106 0.96976 0.89331 0.0
C549 C 0.53998 0.0271 0.88596 0.0
C550 C 0.57722 0.05048 0.88132 0.0
C551 C 0.59094 0.04038 0.8703 0.0
C552 C 0.6262 0.0623 0.8661 0.0
C553 C 0.64794 0.09452 0.87278 0.0
C554 C 0.63443 0.10494 0.88365 0.0
C555 C 0.5992 0.08309 0.88791 0.0
H556 H 0.67524 0.11145 0.86952 0.0
H557 H 0.33427 0.90036 0.91204 0.0
H558 H 0.53937 0.65052 0.46812 0.0
H559 H 0.50187 0.58582 0.46941 0.0
H560 H 0.59462 0.5745 0.46382 0.0
H561 H 0.63138 0.63862 0.46113 0.0
H562 H 0.54651 0.5283 0.44951 0.0
H563 H 0.54748 0.56085 0.49599 0.0
H564 H 0.5407 0.59319 0.51535 0.0
H565 H 0.42987 0.54978 0.50571 0.0
H566 H 0.43608 0.51752 0.48618 0.0
H567 H 0.45665 0.34453 0.47041 0.0
H568 H 0.49544 0.40938 0.472 0.0
H569 H 0.4074 0.42406 0.46074 0.0
H570 H 0.3692 0.35978 0.45827 0.0
H571 H 0.45359 0.46696 0.48482 0.0
H572 H 0.45685 0.43642 0.43737 0.0
H573 H 0.46594 0.40265 0.41914 0.0
H574 H 0.57349 0.44162 0.43268 0.0
H575 H 0.56481 0.47519 0.45114 0.0
C576 C 0.55181 0.63424 0.46729 0.0
C577 C 0.58874 0.65007 0.4651 0.0
C578 C 0.53036 0.59717 0.46815 0.0
C579 C 0.54542 0.57503 0.46712 0.0
C580 C 0.58228 0.59083 0.46486 0.0
C581 C 0.60357 0.62781 0.46366 0.0
C582 C 0.52262 0.53543 0.46764 0.0
C583 C 0.52669 0.51505 0.45741 0.0
C584 C 0.49621 0.51774 0.47779 0.0
C585 C 0.49233 0.53702 0.48955 0.0
C586 C 0.52172 0.55839 0.49795 0.0
C587 C 0.51797 0.57668 0.50896 0.0
C588 C 0.4849 0.57361 0.51174 0.0
C589 C 0.45548 0.55216 0.50354 0.0
C590 C 0.45909 0.53383 0.4925 0.0
C591 C 0.44546 0.36156 0.46841 0.0
C592 C 0.40941 0.34678 0.46471 0.0
C593 C 0.46762 0.39854 0.46935 0.0
C594 C 0.45407 0.42136 0.46666 0.0
C595 C 0.4181 0.40679 0.46312 0.0
C596 C 0.39613 0.36989 0.46191 0.0
C597 C 0.47785 0.46051 0.46678 0.0
C598 C 0.47378 0.48058 0.47707 0.0
C599 C 0.50474 0.47789 0.45688 0.0
C600 C 0.51004 0.45795 0.44572 0.0
C601 C 0.48231 0.4375 0.43654 0.0
C602 C 0.48742 0.41846 0.42615 0.0
C603 C 0.52024 0.4199 0.42478 0.0
C604 C 0.54806 0.44047 0.43377 0.0
C605 C 0.54307 0.45952 0.44419 0.0
H606 H 0.52414 0.40514 0.41672 0.0
H607 H 0.48206 0.5878 0.52027 0.0
H608 H 0.89808 0.54675 0.78661 0.0
H609 H 0.92422 0.50811 0.78732 0.0
H610 H 0.01415 0.58855 0.80981 0.0
H611 H 0.98819 0.62745 0.80898 0.0
H612 H 0.03656 0.56197 0.79055 0.0
H613 H 0.94754 0.51211 0.8253 0.0
H614 H 0.88742 0.4874 0.83517 0.0
H615 H 0.84654 0.40133 0.80639 0.0
H616 H 0.90634 0.4258 0.79622 0.0
H617 H 0.10339 0.44648 0.80876 0.0
H618 H 0.07803 0.48595 0.81011 0.0
H619 H 0.9904 0.4137 0.7846 0.0
H620 H 0.01599 0.37467 0.78299 0.0
H621 H 0.96782 0.4367 0.80655 0.0
H622 H 0.05695 0.48828 0.77145 0.0
H623 H 0.11731 0.51315 0.76179 0.0
H624 H 0.1583 0.59627 0.79183 0.0
H625 H 0.09823 0.57157 0.80179 0.0
C626 C 0.92336 0.55613 0.79175 0.0
C627 C 0.94131 0.59031 0.79758 0.0
C628 C 0.93825 0.53398 0.79219 0.0
C629 C 0.97104 0.54523 0.79874 0.0
C630 C 0.98891 0.57932 0.80465 0.0
C631 C 0.97414 0.60161 0.80411 0.0
C632 C 0.9869 0.52163 0.79919 0.0
C633 C 0.02171 0.53477 0.79427 0.0
C634 C 0.96735 0.48587 0.80379 0.0
C635 C 0.93138 0.47097 0.80993 0.0
C636 C 0.92569 0.48805 0.82102 0.0
C637 C 0.89167 0.47406 0.82667 0.0
C638 C 0.86316 0.44286 0.82139 0.0
C639 C 0.86864 0.42552 0.81046 0.0
C640 C 0.9026 0.43941 0.80476 0.0
C641 C 0.07859 0.43895 0.80352 0.0
C642 C 0.06111 0.40696 0.79612 0.0
C643 C 0.06418 0.46153 0.80427 0.0
C644 C 0.03227 0.45273 0.79747 0.0
C645 C 0.0148 0.42079 0.79006 0.0
C646 C 0.02927 0.39831 0.78927 0.0
C647 C 0.01731 0.47703 0.79786 0.0
C648 C 0.98268 0.46398 0.80293 0.0
C649 C 0.03707 0.5129 0.79346 0.0
C650 C 0.07317 0.52785 0.78745 0.0
C651 C 0.07889 0.51169 0.77606 0.0
C652 C 0.11304 0.52578 0.77052 0.0
C653 C 0.14164 0.55621 0.77622 0.0
C654 C 0.13613 0.57266 0.78744 0.0
C655 C 0.10203 0.55864 0.79303 0.0
H656 H 0.16806 0.56709 0.77191 0.0
H657 H 0.83685 0.43208 0.82578 0.0
H658 H 0.3423 0.88326 0.11163 0.0
H659 H 0.40715 0.90872 0.1124 0.0
H660 H 0.41428 0.98084 0.14417 0.0
H661 H 0.34971 0.95598 0.14316 0.0
H662 H 0.46302 0.0161 0.12609 0.0
H663 H 0.42468 0.90632 0.15013 0.0
H664 H 0.39079 0.84121 0.15358 0.0
H665 H 0.44124 0.82627 0.11859 0.0
H666 H 0.4751 0.8913 0.11482 0.0
H667 H 0.64259 0.07608 0.14574 0.0
H668 H 0.5773 0.0472 0.14584 0.0
H669 H 0.5723 0.98534 0.11066 0.0
H670 H 0.63744 0.01472 0.11033 0.0
H671 H 0.52299 0.9444 0.1305 0.0
H672 H 0.56107 0.05463 0.10666 0.0
H673 H 0.59523 0.11984 0.10356 0.0
H674 H 0.54516 0.13378 0.13889 0.0
H675 H 0.51106 0.06862 0.14231 0.0
C676 C 0.35779 0.90434 0.11884 0.0
C677 C 0.34118 0.91803 0.1272 0.0
C678 C 0.3948 0.91882 0.11931 0.0
C679 C 0.41571 0.94664 0.1284 0.0
C680 C 0.39885 0.95961 0.137 0.0
C681 C 0.36197 0.94545 0.13641 0.0
C682 C 0.45521 0.9632 0.12866 0.0
C683 C 0.47605 0.00039 0.12727 0.0
C684 C 0.47239 0.94275 0.12985 0.0
C685 C 0.45217 0.90365 0.13212 0.0
C686 C 0.42835 0.88913 0.14311 0.0
C687 C 0.40918 0.85225 0.14514 0.0
C688 C 0.41379 0.82961 0.13629 0.0
C689 C 0.43766 0.84383 0.12542 0.0
C690 C 0.45687 0.8807 0.12335 0.0
C691 C 0.62747 0.05618 0.13809 0.0
C692 C 0.64496 0.0468 0.1283 0.0
C693 C 0.59026 0.03976 0.13813 0.0
C694 C 0.56995 0.014 0.12828 0.0
C695 C 0.58742 0.00476 0.11846 0.0
C696 C 0.62461 0.02131 0.11837 0.0
C697 C 0.53053 0.99715 0.12806 0.0
C698 C 0.5098 0.95998 0.12939 0.0
C699 C 0.51342 0.01759 0.12689 0.0
C700 C 0.53379 0.05677 0.12482 0.0
C701 C 0.55756 0.07161 0.11383 0.0
C702 C 0.57687 0.10856 0.11201 0.0
C703 C 0.57244 0.13094 0.12105 0.0
C704 C 0.54861 0.11641 0.13191 0.0
C705 C 0.52926 0.07947 0.13379 0.0
H706 H 0.58741 0.15955 0.11961 0.0
H707 H 0.39892 0.80107 0.13787 0.0
H708 H 0.26066 0.26409 0.4053 0.0
H709 H 0.25427 0.28267 0.38237 0.0
H710 H 0.32019 0.24262 0.36628 0.0
H711 H 0.32635 0.22383 0.3893 0.0
H712 H 0.3319 0.30743 0.35347 0.0
H713 H 0.23569 0.19023 0.36445 0.0
H714 H 0.18687 0.14567 0.37872 0.0
H715 H 0.1326 0.20564 0.37593 0.0
H716 H 0.18124 0.25072 0.36169 0.0
H717 H 0.26924 0.27678 0.28459 0.0
H718 H 0.28926 0.27511 0.30779 0.0
H719 H 0.21001 0.29801 0.32377 0.0
H720 H 0.18965 0.29899 0.30054 0.0
H721 H 0.20688 0.24398 0.33693 0.0
H722 H 0.30222 0.35977 0.32444 0.0
H723 H 0.35132 0.40356 0.31007 0.0
H724 H 0.40782 0.34643 0.31561 0.0
H725 H 0.35882 0.30197 0.32984 0.0
C726 C 0.27474 0.26041 0.39691 0.0
C727 C 0.29444 0.24311 0.39902 0.0
C728 C 0.27087 0.27073 0.38382 0.0
C729 C 0.28651 0.26379 0.37257 0.0
C730 C 0.30802 0.2484 0.37479 0.0
C731 C 0.31167 0.23782 0.38792 0.0
C732 C 0.2775 0.26936 0.35848 0.0
C733 C 0.30465 0.29337 0.34978 0.0
C734 C 0.24185 0.25137 0.35373 0.0
C735 C 0.21229 0.22404 0.36212 0.0
C736 C 0.21346 0.19404 0.36695 0.0
C737 C 0.1858 0.16866 0.37501 0.0
C738 C 0.15675 0.17291 0.37829 0.0
C739 C 0.15517 0.20243 0.37341 0.0
C740 C 0.18273 0.22786 0.36531 0.0
C741 C 0.25674 0.2823 0.29307 0.0
C742 C 0.22806 0.28819 0.29082 0.0
C743 C 0.26815 0.28131 0.30634 0.0
C744 C 0.25135 0.28664 0.31762 0.0
C745 C 0.22342 0.29374 0.31529 0.0
C746 C 0.2119 0.2945 0.30203 0.0
C747 C 0.26123 0.28249 0.33183 0.0
C748 C 0.23417 0.25842 0.34057 0.0
C749 C 0.29698 0.30041 0.33657 0.0
C750 C 0.32668 0.32735 0.32812 0.0
C751 C 0.325 0.35639 0.32252 0.0
C752 C 0.35283 0.38136 0.3144 0.0
C753 C 0.38263 0.37773 0.3119 0.0
C754 C 0.38471 0.34919 0.31754 0.0
C755 C 0.35693 0.32411 0.32565 0.0
H756 H 0.40415 0.39707 0.30561 0.0
H757 H 0.13543 0.15329 0.38458 0.0
H758 H 0.00366 0.26257 0.6166 0.0
H759 H 0.0281 0.28066 0.63961 0.0
H760 H 0.92207 0.24292 0.65522 0.0
H761 H 0.89767 0.22476 0.63211 0.0
H762 H 0.97282 0.30553 0.66801 0.0
H763 H 0.95589 0.19083 0.6569 0.0
H764 H 0.9617 0.14617 0.6433 0.0
H765 H 0.07532 0.20507 0.64846 0.0
H766 H 0.07032 0.25057 0.66186 0.0
H767 H 0.00734 0.27816 0.73727 0.0
H768 H 0.98453 0.27443 0.7141 0.0
H769 H 0.08845 0.30467 0.69787 0.0
H770 H 0.1111 0.30823 0.72106 0.0
H771 H 0.03797 0.24638 0.68537 0.0
H772 H 0.05357 0.36134 0.69682 0.0
H773 H 0.0458 0.40418 0.71085 0.0
H774 H 0.93229 0.34195 0.70568 0.0
H775 H 0.93935 0.29845 0.69177 0.0
C776 C 0.9858 0.25924 0.6249 0.0
C777 C 0.94894 0.24287 0.62263 0.0
C778 C -0.00032 0.26922 0.63805 0.0
C779 C 0.97689 0.26277 0.64919 0.0
C780 C 0.94017 0.24822 0.6468 0.0
C781 C 0.92626 0.23804 0.63362 0.0
C782 C 0.9911 0.26875 0.66334 0.0
C783 C 0.98678 0.29236 0.67186 0.0
C784 C 0.00962 0.25178 0.66834 0.0
C785 C 0.01276 0.22443 0.66025 0.0
C786 C 0.98218 0.19452 0.65502 0.0
C787 C 0.98531 0.16901 0.64735 0.0
C788 C 0.01886 0.17288 0.64496 0.0
C789 C 0.04935 0.2022 0.65027 0.0
C790 C 0.04638 0.22787 0.6579 0.0
C791 C 0.02546 0.28492 0.72875 0.0
C792 C 0.06096 0.29358 0.73091 0.0
C793 C 0.01242 0.28267 0.7155 0.0
C794 C 0.03474 0.28928 0.70417 0.0
C795 C 0.07062 0.29929 0.7064 0.0
C796 C 0.08361 0.3015 0.71964 0.0
C797 C 0.02028 0.28369 0.69002 0.0
C798 C 0.0243 0.25984 0.68151 0.0
C799 C 0.00126 0.30019 0.68509 0.0
C800 C 0.99698 0.32647 0.69335 0.0
C801 C 0.02694 0.35665 0.69876 0.0
C802 C 0.02266 0.38108 0.70667 0.0
C803 C 0.98857 0.37575 0.70918 0.0
C804 C 0.95868 0.34603 0.70374 0.0
C805 C 0.96281 0.3215 0.69583 0.0
H806 H 0.98532 0.39468 0.71532 0.0
H807 H 0.02122 0.1531 0.63902 0.0
H808 H 0.70923 0.00952 0.07059 0.0
H809 H 0.68696 0.98716 0.0476 0.0
H810 H 0.77585 0.08126 0.03038 0.0
H811 H 0.79786 0.1036 0.05334 0.0
H812 H 0.71535 0.05882 0.01501 0.0
H813 H 0.78166 0.00855 0.03509 0.0
H814 H 0.79538 0.97691 0.05283 0.0
H815 H 0.69284 0.88362 0.04694 0.0
H816 H 0.67824 0.915 0.02932 0.0
H817 H 0.75125 0.00087 0.95254 0.0
H818 H 0.75073 0.02375 0.97526 0.0
H819 H 0.65983 0.92235 0.98603 0.0
H820 H 0.66054 0.89943 0.96314 0.0
H821 H 0.71264 0.94514 1.00503 0.0
H822 H 0.65083 0.99567 0.98214 0.0
H823 H 0.64064 0.0292 0.9641 0.0
H824 H 0.73842 0.12366 0.9747 0.0
H825 H 0.7495 0.09058 0.99268 0.0
C826 C 0.72325 0.02587 0.06188 0.0
C827 C 0.7552 0.05821 0.06366 0.0
C828 C 0.71072 0.013 0.04876 0.0
C829 C 0.73004 0.03226 0.03724 0.0
C830 C 0.76048 0.0659 0.03908 0.0
C831 C 0.77303 0.07869 0.05218 0.0
C832 C 0.72095 0.01595 0.02341 0.0
C833 C 0.71481 0.03401 0.01281 0.0
C834 C 0.71981 0.98332 0.02054 0.0
C835 C 0.72868 0.96426 0.03101 0.0
C836 C 0.76192 0.98138 0.03765 0.0
C837 C 0.76987 0.9635 0.04768 0.0
C838 C 0.74495 0.9283 0.05104 0.0
C839 C 0.71208 0.91091 0.04435 0.0
C840 C 0.70394 0.92874 0.03434 0.0
C841 C 0.73068 0.98381 0.95968 0.0
C842 C 0.70568 0.9486 0.95612 0.0
C843 C 0.73035 0.99686 0.97266 0.0
C844 C 0.70503 0.97493 0.98237 0.0
C845 C 0.6795 0.93984 0.9787 0.0
C846 C 0.67972 0.92683 0.96564 0.0
C847 C 0.70711 0.98804 0.99656 0.0
C848 C 0.71232 0.96953 1.00724 0.0
C849 C 0.7078 0.02046 0.99945 0.0
C850 C 0.7011 0.04055 0.98871 0.0
C851 C 0.67029 0.02353 0.98057 0.0
C852 C 0.66434 0.04247 0.97036 0.0
C853 C 0.6889 0.07852 0.96824 0.0
C854 C 0.71942 0.09573 0.97635 0.0
C855 C 0.72553 0.07691 0.98657 0.0
H856 H 0.68424 0.09313 0.96033 0.0
H857 H 0.75116 0.91448 0.0588 0.0
H858 H 0.69092 0.79767 0.39022 0.0
H859 H 0.69426 0.77796 0.36716 0.0
H860 H 0.72416 0.70431 0.38378 0.0
H861 H 0.72151 0.7247 0.40685 0.0
H862 H 0.76848 0.74279 0.3638 0.0
H863 H 0.64148 0.6751 0.36879 0.0
H864 H 0.58169 0.66569 0.37403 0.0
H865 H 0.59243 0.73833 0.34216 0.0
H866 H 0.65251 0.74856 0.33684 0.0
H867 H 0.77057 0.67246 0.2986 0.0
H868 H 0.75136 0.67389 0.32207 0.0
H869 H 0.72414 0.75336 0.31025 0.0
H870 H 0.7433 0.75185 0.28691 0.0
H871 H 0.67532 0.70566 0.32817 0.0
H872 H 0.80251 0.77832 0.32463 0.0
H873 H 0.8633 0.7909 0.31919 0.0
H874 H 0.85311 0.71221 0.34826 0.0
H875 H 0.79197 0.69876 0.35371 0.0
C876 C 0.69749 0.77677 0.38892 0.0
C877 C 0.70567 0.76246 0.40027 0.0
C878 C 0.69934 0.76543 0.37575 0.0
C879 C 0.70924 0.73939 0.37367 0.0
C880 C 0.71639 0.72434 0.38509 0.0
C881 C 0.71454 0.73571 0.39826 0.0
C882 C 0.71441 0.72971 0.3596 0.0
C883 C 0.74778 0.73389 0.35611 0.0
C884 C 0.68787 0.71911 0.34938 0.0
C885 C 0.65162 0.71279 0.35248 0.0
C886 C 0.6312 0.68925 0.36295 0.0
C887 C 0.59723 0.68374 0.36593 0.0
C888 C 0.5833 0.70145 0.35845 0.0
C889 C 0.60327 0.72464 0.34795 0.0
C890 C 0.63726 0.73027 0.34494 0.0
C891 C 0.75964 0.6895 0.30101 0.0
C892 C 0.75806 0.71182 0.29102 0.0
C893 C 0.74892 0.69054 0.3144 0.0
C894 C 0.73655 0.71398 0.31797 0.0
C895 C 0.73342 0.73499 0.30777 0.0
C896 C 0.74433 0.7341 0.29445 0.0
C897 C 0.72928 0.7187 0.33244 0.0
C898 C 0.69571 0.7139 0.33596 0.0
C899 C 0.75571 0.72907 0.34267 0.0
C900 C 0.79251 0.73722 0.33946 0.0
C901 C 0.81311 0.76348 0.32978 0.0
C902 C 0.84765 0.77081 0.32671 0.0
C903 C 0.86202 0.75229 0.33335 0.0
C904 C 0.84191 0.72647 0.3431 0.0
C905 C 0.80731 0.71899 0.34619 0.0
H906 H 0.88877 0.758 0.33096 0.0
H907 H 0.557 0.69716 0.36077 0.0
H908 H 0.09433 0.75371 0.63055 0.0
H909 H 0.06994 0.73256 0.65349 0.0
H910 H 0.98229 0.75008 0.64441 0.0
H911 H 0.00702 0.77174 0.62177 0.0
H912 H 0.00955 0.77865 0.66783 0.0
H913 H 0.97305 0.66492 0.64701 0.0
H914 H 0.98188 0.62039 0.63464 0.0
H915 H 0.05185 0.62306 0.6662 0.0
H916 H 0.04382 0.668 0.67867 0.0
H917 H 0.89336 0.69515 0.72202 0.0
H918 H 0.91666 0.69928 0.69895 0.0
H919 H 0.01189 0.7056 0.71553 0.0
H920 H 0.98879 0.70213 0.73869 0.0
H921 H 0.98421 0.66451 0.68926 0.0
H922 H 0.02204 0.77955 0.70951 0.0
H923 H 0.01252 0.82349 0.72201 0.0
H924 H 0.93885 0.81707 0.69133 0.0
H925 H 0.94785 0.77293 0.67867 0.0
C926 C 0.06958 0.75241 0.63345 0.0
C927 C 0.05254 0.76436 0.62448 0.0
C928 C 0.05561 0.74033 0.64654 0.0
C929 C 0.02415 0.73965 0.65074 0.0
C930 C 0.00665 0.75052 0.64151 0.0
C931 C 0.02069 0.76275 0.62855 0.0
C932 C 0.01021 0.72959 0.66493 0.0
C933 C 0.00369 0.75346 0.67239 0.0
C934 C 0.00339 0.69721 0.67116 0.0
C935 C 0.00814 0.67011 0.6637 0.0
C936 C 0.99055 0.65622 0.65126 0.0
C937 C 0.99536 0.63087 0.64424 0.0
C938 C 0.01749 0.61898 0.64961 0.0
C939 C 0.03476 0.63234 0.66204 0.0
C940 C 0.03007 0.65773 0.66909 0.0
C941 C 0.91877 0.69632 0.7207 0.0
C942 C 0.93943 0.6986 0.73208 0.0
C943 C 0.93211 0.69878 0.70754 0.0
C944 C 0.96619 0.70316 0.70553 0.0
C945 C 0.98553 0.70219 0.71685 0.0
C946 C 0.97228 0.70008 0.73006 0.0
C947 C 0.98307 0.71326 0.69186 0.0
C948 C 0.99022 0.68962 0.6846 0.0
C949 C 0.99051 0.74585 0.68574 0.0
C950 C 0.98537 0.77272 0.69321 0.0
C951 C 0.00365 0.78736 0.70547 0.0
C952 C 0.99844 0.81237 0.71257 0.0
C953 C 0.975 0.82297 0.7075 0.0
C954 C 0.95695 0.80879 0.69526 0.0
C955 C 0.96218 0.78385 0.6881 0.0
H956 H 0.97087 0.84221 0.71305 0.0
H957 H 0.02118 0.59934 0.64416 0.0
H958 H 0.24945 0.99751 0.95175 0.0
H959 H 0.2424 0.97322 0.97478 0.0
H960 H 0.32422 0.07589 0.98926 0.0
H961 H 0.33117 0.10028 0.96606 0.0
H962 H 0.32615 0.01611 1.00144 0.0
H963 H 0.24271 0.05705 0.99315 0.0
H964 H 0.19605 0.06091 0.9801 0.0
H965 H 0.12659 0.948 0.98423 0.0
H966 H 0.17298 0.94337 0.99722 0.0
H967 H 0.27643 0.98994 0.07175 0.0
H968 H 0.29442 0.01104 0.04835 0.0
H969 H 0.20024 0.91806 0.03324 0.0
H970 H 0.18191 0.89767 0.0567 0.0
H971 H 0.20608 0.97376 0.02115 0.0
H972 H 0.28766 0.93167 0.02953 0.0
H973 H 0.3342 0.92611 0.04193 0.0
H974 H 0.40664 0.03828 0.03704 0.0
H975 H 0.36035 0.04462 0.02477 0.0
C976 C 0.26666 0.01455 0.95978 0.0
C977 C 0.29113 0.05058 0.95718 0.0
C978 C 0.26244 0.00077 0.97294 0.0
C979 C 0.28248 0.02283 0.98378 0.0
C980 C 0.30851 0.05839 0.98104 0.0
C981 C 0.31262 0.07227 0.96782 0.0
C982 C 0.27405 0.00935 0.99802 0.0
C983 C 0.30008 0.00725 1.00584 0.0
C984 C 0.23972 0.99702 1.00364 0.0
C985 C 0.21148 -0.00018 0.99606 0.0
C986 C 0.21757 0.033 0.99121 0.0
C987 C 0.19115 0.03533 0.98384 0.0
C988 C 0.15844 0.0047 0.98129 0.0
C989 C 0.15198 0.97169 0.98619 0.0
C990 C 0.1783 0.96921 0.99359 0.0
C991 C 0.2601 0.97371 0.06338 0.0
C992 C 0.22797 0.94211 0.06596 0.0
C993 C 0.27032 0.98574 0.05 0.0
C994 C 0.24885 0.9661 0.03892 0.0
C995 C 0.21728 0.93383 0.04155 0.0
C996 C 0.20693 0.92201 0.05493 0.0
C997 C 0.25813 0.9801 0.02468 0.0
C998 C 0.2322 0.98246 0.01682 0.0
C999 C 0.29247 0.99241 0.01902 0.0
C1000 C 0.32042 0.98867 0.02634 0.0
C1001 C 0.31343 0.95521 0.03119 0.0
C1002 C 0.33977 0.95191 0.03818 0.0
C1003 C 0.37332 0.98184 0.0403 0.0
C1004 C 0.38062 0.01513 0.0354 0.0
C1005 C 0.35435 0.01858 0.02842 0.0
H1006 H 0.39368 0.97923 0.04571 0.0
H1007 H 0.13808 0.00656 0.97554 0.0
H1008 H 0.0545 0.11424 0.25614 0.0
H1009 H 0.00661 0.0652 0.26839 0.0
H1010 H 0.07887 0.07942 0.3013 0.0
H1011 H 0.12788 0.12773 0.28845 0.0
H1012 H 0.04273 0.01503 0.2979 0.0
H1013 H 0.0032 0.09255 0.30651 0.0
H1014 H 0.99105 0.14212 0.30402 0.0
H1015 H 0.91479 0.08498 0.27254 0.0
H1016 H 0.92684 0.03533 0.27462 0.0
H1017 H 0.83931 0.87451 0.28194 0.0
H1018 H 0.88008 0.92599 0.29584 0.0
H1019 H 0.9695 0.93203 0.27396 0.0
H1020 H 0.92939 0.88029 0.26068 0.0
H1021 H 0.91894 0.98919 0.28995 0.0
H1022 H 0.04267 0.96421 0.28862 0.0
H1023 H 0.05315 0.91522 0.295 0.0
H1024 H 0.95863 0.86847 0.31962 0.0
H1025 H 0.94784 0.91754 0.31364 0.0
C1026 C 0.06014 0.10707 0.26603 0.0
C1027 C 0.09477 0.12452 0.27134 0.0
C1028 C 0.03257 0.07938 0.27318 0.0
C1029 C 0.03865 0.06923 0.28606 0.0
C1030 C 0.07335 0.08697 0.29148 0.0
C1031 C 0.10132 0.11432 0.28411 0.0
C1032 C 0.00932 0.03711 0.29267 0.0
C1033 C 0.01562 0.00947 0.29646 0.0
C1034 C 0.97378 0.03036 0.29215 0.0
C1035 C 0.96581 0.05995 0.29082 0.0
C1036 C 0.98387 0.09053 0.29902 0.0
C1037 C 0.97702 0.1187 0.29768 0.0
C1038 C 0.9521 0.11666 0.28815 0.0
C1039 C 0.93397 0.08645 0.27996 0.0
C1040 C 0.94072 0.05819 0.28126 0.0
C1041 C 0.86776 0.88676 0.28026 0.0
C1042 C 0.88128 0.87362 0.2702 0.0
C1043 C 0.891 0.91595 0.28827 0.0
C1044 C 0.92801 0.93249 0.28624 0.0
C1045 C 0.94126 0.91904 0.2762 0.0
C1046 C 0.91822 0.88971 0.2684 0.0
C1047 C 0.95306 0.96674 0.29293 0.0
C1048 C 0.94588 0.99488 0.292 0.0
C1049 C 0.98749 0.9741 0.29693 0.0
C1050 C 0.99452 0.94485 0.30072 0.0
C1051 C 0.02433 0.94384 0.29555 0.0
C1052 C 0.03026 0.91591 0.29906 0.0
C1053 C 0.00661 0.88878 0.30772 0.0
C1054 C 0.97695 0.88951 0.31291 0.0
C1055 C 0.9709 0.91737 0.30945 0.0
H1056 H 0.01123 0.86717 0.3104 0.0
H1057 H 0.94686 0.13853 0.28711 0.0
H1058 H 0.91844 0.07607 0.61044 0.0
H1059 H 0.9254 0.03109 0.62289 0.0
H1060 H 0.03814 0.08792 0.61397 0.0
H1061 H 0.03148 0.13349 0.60196 0.0
H1062 H 0.94128 0.99065 0.60975 0.0
H1063 H 0.08567 0.06576 0.6338 0.0
H1064 H 0.12066 0.1182 0.64838 0.0
H1065 H 0.0243 0.11178 0.66311 0.0
H1066 H 0.98861 0.05886 0.64886 0.0
H1067 H 0.08087 0.94636 0.60032 0.0
H1068 H 0.06463 0.98676 0.61128 0.0
H1069 H 0.968 0.89691 0.62649 0.0
H1070 H 0.98369 0.85618 0.6153 0.0
H1071 H 0.04344 0.00125 0.63644 0.0
H1072 H 0.90189 0.9131 0.6187 0.0
H1073 H 0.86632 0.86213 0.60341 0.0
H1074 H 0.95564 0.89848 0.57632 0.0
H1075 H 0.9915 0.94982 0.59138 0.0
C1076 C 0.94484 0.07932 0.6114 0.0
C1077 C 0.97432 0.10768 0.60494 0.0
C1078 C 0.94881 0.0538 0.61862 0.0
C1079 C 0.98224 0.05602 0.61937 0.0
C1080 C 0.01216 0.08585 0.61378 0.0
C1081 C 0.00827 0.11168 0.60673 0.0
C1082 C 0.98477 0.02426 0.62317 0.0
C1083 C 0.96278 0.99263 0.61607 0.0
C1084 C 0.01289 0.02673 0.63133 0.0
C1085 C 0.03438 0.05824 0.64018 0.0
C1086 C 0.07185 0.07524 0.64024 0.0
C1087 C 0.09184 0.10515 0.64844 0.0
C1088 C 0.07472 0.11835 0.65665 0.0
C1089 C 0.03754 0.10157 0.65673 0.0
C1090 C 0.01742 0.07163 0.64857 0.0
C1091 C 0.05649 0.93515 0.60621 0.0
C1092 C 0.03301 0.89817 0.60662 0.0
C1093 C 0.04748 0.95828 0.61263 0.0
C1094 C 0.01495 0.94477 0.61955 0.0
C1095 C 0.99311 0.90779 0.62109 0.0
C1096 C 0.00194 0.88461 0.61457 0.0
C1097 C 0.00109 0.96907 0.62248 0.0
C1098 C 0.02094 0.99904 0.63077 0.0
C1099 C 0.97083 0.96524 0.61548 0.0
C1100 C 0.9494 0.93491 0.60623 0.0
C1101 C 0.91384 0.91019 0.60946 0.0
C1102 C 0.89366 0.88127 0.60085 0.0
C1103 C 0.90876 0.877 0.58893 0.0
C1104 C 0.94401 0.90175 0.58557 0.0
C1105 C 0.96426 0.93075 0.59414 0.0
H1106 H 0.89312 0.85456 0.58229 0.0
H1107 H 0.09024 0.14156 0.66296 0.0
H1108 H 0.13332 0.06193 0.93744 0.0
H1109 H 0.07652 0.04121 0.94881 0.0
H1110 H 0.0656 0.93725 0.95421 0.0
H1111 H 0.12258 0.9578 0.94261 0.0
H1112 H 0.01179 0.93278 0.94057 0.0
H1113 H 0.0637 0.98338 0.98206 0.0
H1114 H 0.10647 0.02699 0.99835 0.0
H1115 H 0.07262 0.10152 0.98741 0.0
H1116 H 0.03014 0.05873 0.97083 0.0
H1117 H 0.83942 0.90616 0.94377 0.0
H1118 H 0.89001 0.90685 0.95515 0.0
H1119 H 0.95484 0.01928 0.94667 0.0
H1120 H 0.90421 0.019 0.93561 0.0
H1121 H 0.97506 0.00063 0.9707 0.0
H1122 H 0.94722 0.95761 0.92304 0.0
H1123 H 0.90694 0.91573 0.90563 0.0
H1124 H 0.8983 0.82743 0.92869 0.0
H1125 H 0.93828 0.86887 0.94629 0.0
C1126 C 0.11921 0.03484 0.94126 0.0
C1127 C 0.13191 0.01121 0.93882 0.0
C1128 C 0.08694 0.02316 0.94797 0.0
C1129 C 0.06686 0.9877 0.95244 0.0
C1130 C 0.08074 0.96474 0.95087 0.0
C1131 C 0.11312 0.97645 0.94415 0.0
C1132 C 0.02895 0.97349 0.956 0.0
C1133 C 0.00357 0.94665 0.94759 0.0
C1134 C 0.0182 0.99161 0.96512 0.0
C1135 C 0.04356 0.01766 0.97517 0.0
C1136 C 0.06544 0.00912 0.98306 0.0
C1137 C 0.08968 0.03373 0.99235 0.0
C1138 C 0.09222 0.06699 0.99393 0.0
C1139 C 0.07054 0.0757 0.9862 0.0
C1140 C 0.04631 0.05122 0.97686 0.0
C1141 C 0.86428 0.93117 0.94457 0.0
C1142 C 0.86825 0.96237 0.93849 0.0
C1143 C 0.89302 0.93155 0.95118 0.0
C1144 C 0.92626 0.96297 0.95155 0.0
C1145 C 0.92937 0.99475 0.94651 0.0
C1146 C 0.90053 0.99449 0.94006 0.0
C1147 C 0.9591 0.96185 0.95464 0.0
C1148 C 0.98322 0.98565 0.96426 0.0
C1149 C 0.96895 0.941 0.94664 0.0
C1150 C 0.9453 0.9162 0.93602 0.0
C1151 C 0.93657 0.92924 0.9244 0.0
C1152 C 0.91382 0.90561 0.91451 0.0
C1153 C 0.89998 0.86894 0.91608 0.0
C1154 C 0.90897 0.85584 0.92751 0.0
C1155 C 0.93165 0.87936 0.93744 0.0
H1156 H 0.88236 0.85067 0.90841 0.0
H1157 H 0.11101 0.08601 1.00113 0.0
H1158 H 0.86228 0.93803 0.42314 0.0
H1159 H 0.91804 0.9775 0.41163 0.0
H1160 H 0.93235 0.88795 0.40244 0.0
H1161 H 0.87663 0.84819 0.41424 0.0
H1162 H 0.98669 0.9365 0.41578 0.0
H1163 H 0.92725 0.93892 0.37626 0.0
H1164 H 0.88153 0.94147 0.36212 0.0
H1165 H 0.9157 0.04733 0.37652 0.0
H1166 H 0.96128 0.04529 0.39091 0.0
H1167 H 0.15756 0.07878 0.40915 0.0
H1168 H 0.10432 0.03114 0.3982 0.0
H1169 H 0.04437 0.08133 0.41078 0.0
H1170 H 0.09781 0.12968 0.42129 0.0
H1171 H 0.01695 0.04263 0.38733 0.0
H1172 H 0.05527 0.02582 0.43275 0.0
H1173 H 0.09905 0.02366 0.44825 0.0
H1174 H 0.1016 0.94384 0.42311 0.0
H1175 H 0.05807 0.94587 0.40739 0.0
C1176 C 0.87694 0.92659 0.41848 0.0
C1177 C 0.86547 0.89015 0.41982 0.0
C1178 C 0.90859 0.94914 0.4117 0.0
C1179 C 0.92919 0.93562 0.40602 0.0
C1180 C 0.91672 0.89886 0.40667 0.0
C1181 C 0.88506 0.87627 0.41351 0.0
C1182 C 0.96635 0.96075 0.40192 0.0
C1183 C 0.99339 0.95898 0.40911 0.0
C1184 C 0.97509 0.99031 0.39336 0.0
C1185 C 0.94776 0.99191 0.38469 0.0
C1186 C 0.92492 0.96269 0.37648 0.0
C1187 C 0.89902 0.96405 0.36841 0.0
C1188 C 0.89572 0.99454 0.36842 0.0
C1189 C 0.91834 0.02375 0.3765 0.0
C1190 C 0.94428 0.02253 0.38459 0.0
C1191 C 0.1332 0.08006 0.40928 0.0
C1192 C 0.13132 0.10717 0.41642 0.0
C1193 C 0.10295 0.05303 0.40292 0.0
C1194 C 0.07029 0.05232 0.40398 0.0
C1195 C 0.06932 0.08135 0.40988 0.0
C1196 C 0.09976 0.10876 0.41601 0.0
C1197 C 0.03637 0.01883 0.40172 0.0
C1198 C 0.01019 0.01917 0.3934 0.0
C1199 C 0.0281 0.98787 0.40933 0.0
C1200 C 0.05384 0.9863 0.41884 0.0
C1201 C 0.06531 0.00793 0.43052 0.0
C1202 C 0.09006 0.00674 0.43933 0.0
C1203 C 0.10319 0.98371 0.43664 0.0
C1204 C 0.09148 0.96173 0.42516 0.0
C1205 C 0.06678 0.96289 0.4163 0.0
H1206 H 0.12236 0.98283 0.44347 0.0
H1207 H 0.87564 0.99554 0.36217 0.0
H1208 H 0.02984 0.90333 0.75335 0.0
H1209 H 0.03154 0.95461 0.74223 0.0
H1210 H 0.91864 0.89236 0.73418 0.0
H1211 H 0.91655 0.84118 0.74559 0.0
H1212 H 0.01253 0.97562 0.71827 0.0
H1213 H 0.88303 0.94244 0.74431 0.0
H1214 H 0.84275 0.90399 0.76249 0.0
H1215 H 0.93201 0.91039 0.78413 0.0
H1216 H 0.97276 0.94916 0.76615 0.0
H1217 H 0.97081 0.12399 0.74615 0.0
H1218 H 0.95045 0.0668 0.73481 0.0
H1219 H 0.05515 0.07916 0.73965 0.0
H1220 H 0.07573 0.13631 0.75081 0.0
H1221 H 0.94762 0.01459 0.74898 0.0
H1222 H 0.07123 0.031 0.71767 0.0
H1223 H 0.11237 0.07149 0.70022 0.0
H1224 H 0.03666 0.10387 0.68935 0.0
H1225 H 0.99473 0.06314 0.70656 0.0
C1226 C 0.00553 0.90035 0.74897 0.0
C1227 C 0.97288 0.86874 0.75071 0.0
C1228 C 0.0066 0.92953 0.74247 0.0
C1229 C 0.97509 0.92735 0.73759 0.0
C1230 C 0.94314 0.89463 0.73804 0.0
C1231 C 0.94196 0.86558 0.74468 0.0
C1232 C 0.97481 0.96066 0.73467 0.0
C1233 C 0.99823 0.98429 0.72485 0.0
C1234 C 0.95489 0.9712 0.7429 0.0
C1235 C 0.93075 0.94818 0.75382 0.0
C1236 C 0.89398 0.93561 0.75296 0.0
C1237 C 0.87111 0.91381 0.76323 0.0
C1238 C 0.88479 0.90463 0.77443 0.0
C1239 C 0.92142 0.91739 0.77542 0.0
C1240 C 0.9444 0.93927 0.76521 0.0
C1241 C 0.9897 0.11487 0.74452 0.0
C1242 C 0.02464 0.13418 0.74964 0.0
C1243 C 0.97808 0.08235 0.73794 0.0
C1244 C 0.00129 0.0688 0.73631 0.0
C1245 C 0.03691 0.08935 0.74055 0.0
C1246 C 0.04852 0.1218 0.74713 0.0
C1247 C 0.98711 0.03071 0.73311 0.0
C1248 C 0.96085 0.00588 0.74185 0.0
C1249 C 0.00451 0.01936 0.72388 0.0
C1250 C 0.02977 0.04395 0.71348 0.0
C1251 C 0.06316 0.04651 0.7115 0.0
C1252 C 0.08668 0.06958 0.70165 0.0
C1253 C 0.07714 0.09023 0.69368 0.0
C1254 C 0.04405 0.08788 0.69554 0.0
C1255 C 0.02042 0.06485 0.70537 0.0
H1256 H 0.0954 0.10807 0.68607 0.0
H1257 H 0.86704 0.88771 0.78235 0.0
H1258 H 0.93019 0.09633 0.07905 0.0
H1259 H 0.98756 0.10622 0.07082 0.0
H1260 H 0.9507 0.99387 0.07501 0.0
H1261 H 0.89318 0.98372 0.08316 0.0
H1262 H 0.02531 0.09452 0.0889 0.0
H1263 H -0.00104 0.96932 0.05656 0.0
H1264 H 0.96352 0.93653 0.03652 0.0
H1265 H 0.95851 0.02868 0.02361 0.0
H1266 H 0.9944 0.06228 0.04345 0.0
H1267 H 0.08736 0.98295 0.10907 0.0
H1268 H 0.05354 0.00898 0.09937 0.0
H1269 H 0.13905 0.07028 0.0712 0.0
H1270 H 0.17374 0.04489 0.08117 0.0
H1271 H 0.05898 0.02036 0.06111 0.0
H1272 H 0.13531 0.12256 0.08762 0.0
H1273 H 0.16993 0.15634 0.10767 0.0
H1274 H 0.07429 0.11108 0.13163 0.0
H1275 H 0.03911 0.07677 0.11176 0.0
C1276 C 0.93396 0.07355 0.07787 0.0
C1277 C 0.90763 0.03936 0.08213 0.0
C1278 C 0.96665 0.07926 0.07303 0.0
C1279 C 0.97345 0.05087 0.07234 0.0
C1280 C 0.94589 0.01614 0.07528 0.0
C1281 C 0.91312 0.01039 0.0801 0.0
C1282 C 0.01058 0.05809 0.07198 0.0
C1283 C 0.03311 0.07907 0.08255 0.0
C1284 C 0.02108 0.03858 0.06352 0.0
C1285 C -0.00056 0.01838 0.05154 0.0
C1286 C 0.99058 0.98274 0.0494 0.0
C1287 C 0.97032 0.96396 0.03809 0.0
C1288 C 0.95876 0.9805 0.0288 0.0
C1289 C 0.96742 0.01587 0.03082 0.0
C1290 C 0.98767 0.03478 0.04212 0.0
C1291 C 0.09906 0.00213 0.10087 0.0
C1292 C 0.13298 0.01191 0.09581 0.0
C1293 C 0.07985 0.01704 0.09539 0.0
C1294 C 0.09402 0.04148 0.08464 0.0
C1295 C 0.12796 0.05153 0.07955 0.0
C1296 C 0.14763 0.03713 0.08525 0.0
C1297 C 0.07171 0.05457 0.07856 0.0
C1298 C 0.05186 0.03717 0.06693 0.0
C1299 C 0.06349 0.07729 0.08605 0.0
C1300 C 0.08458 0.09709 0.09817 0.0
C1301 C 0.12169 0.11957 0.09719 0.0
C1302 C 0.1414 0.13891 0.10852 0.0
C1303 C 0.12429 0.13593 0.12091 0.0
C1304 C 0.08747 0.11346 0.12202 0.0
C1305 C 0.06763 0.09413 0.11071 0.0
H1306 H 0.13957 0.15099 0.12966 0.0
H1307 H 0.9431 0.96592 0.02004 0.0
H1308 H 0.85184 0.1366 0.15315 0.0
H1309 H 0.90042 0.16834 0.16945 0.0
H1310 H 0.97723 0.19501 0.13717 0.0
H1311 H 0.92876 0.16172 0.12106 0.0
H1312 H 0.99771 0.17222 0.15648 0.0
H1313 H 0.96012 0.25867 0.15509 0.0
H1314 H 0.91806 0.28137 0.15618 0.0
H1315 H 0.89268 0.2456 0.19756 0.0
H1316 H 0.93425 0.22225 0.19666 0.0
H1317 H 0.14665 0.28102 0.19935 0.0
H1318 H 0.10102 0.26722 0.18182 0.0
H1319 H 0.01843 0.21202 0.21168 0.0
H1320 H 0.06371 0.22506 0.22912 0.0
H1321 H 0.00386 0.25408 0.193 0.0
H1322 H 0.04117 0.1657 0.19311 0.0
H1323 H 0.08429 0.14444 0.19135 0.0
H1324 H 0.1121 0.18736 0.15093 0.0
H1325 H 0.06969 0.2096 0.15258 0.0
C1326 C 0.87907 0.15003 0.14948 0.0
C1327 C 0.88638 0.14672 0.13579 0.0
C1328 C 0.90699 0.16828 0.15883 0.0
C1329 C 0.94288 0.18448 0.15464 0.0
C1330 C 0.94999 0.18268 0.14078 0.0
C1331 C 0.92218 0.16384 0.13152 0.0
C1332 C 0.97294 0.20072 0.16474 0.0
C1333 C -0.0007 0.19075 0.16425 0.0
C1334 C 0.97507 0.22439 0.17517 0.0
C1335 C 0.95008 0.23843 0.17576 0.0
C1336 C 0.94538 0.25541 0.16439 0.0
C1337 C 0.92166 0.26844 0.16498 0.0
C1338 C 0.90265 0.26486 0.17692 0.0
C1339 C 0.90739 0.24832 0.18831 0.0
C1340 C 0.93107 0.23523 0.18777 0.0
C1341 C 0.11879 0.26673 0.20224 0.0
C1342 C 0.10884 0.25416 0.21564 0.0
C1343 C 0.09272 0.25863 0.19219 0.0
C1344 C 0.05624 0.23829 0.1954 0.0
C1345 C 0.04634 0.22771 0.20894 0.0
C1346 C 0.0723 0.23521 0.21891 0.0
C1347 C 0.02833 0.22568 0.18456 0.0
C1348 C 0.00236 0.23607 0.18502 0.0
C1349 C 0.0268 0.20281 0.17397 0.0
C1350 C 0.05264 0.18981 0.17305 0.0
C1351 C 0.05682 0.17105 0.18392 0.0
C1352 C 0.08108 0.15874 0.18293 0.0
C1353 C 0.10104 0.16469 0.17106 0.0
C1354 C 0.09674 0.18291 0.16014 0.0
C1355 C 0.07262 0.1954 0.16111 0.0
H1356 H 0.11975 0.15506 0.1703 0.0
H1357 H 0.88429 0.27496 0.17736 0.0
H1358 H 0.85489 0.14432 0.53477 0.0
H1359 H 0.82057 0.09623 0.5186 0.0
H1360 H 0.79026 0.01907 0.55101 0.0
H1361 H 0.82617 0.06699 0.56699 0.0
H1362 H 0.81026 0.99606 0.53169 0.0
H1363 H 0.72954 0.0407 0.53312 0.0
H1364 H 0.71044 0.08561 0.53211 0.0
H1365 H 0.7465 0.10983 0.49074 0.0
H1366 H 0.76626 0.06537 0.49155 0.0
H1367 H 0.7009 0.8507 0.48862 0.0
H1368 H 0.71281 0.89618 0.50591 0.0
H1369 H 0.77165 0.97892 0.47646 0.0
H1370 H 0.76018 0.93377 0.45921 0.0
H1371 H 0.73125 0.99581 0.49506 0.0
H1372 H 0.81328 0.95048 0.49496 0.0
H1373 H 0.82687 0.90173 0.49619 0.0
H1374 H 0.78444 0.87667 0.53672 0.0
H1375 H 0.76884 0.92419 0.53546 0.0
C1376 C 0.84012 0.11718 0.53851 0.0
C1377 C 0.84318 0.10954 0.55219 0.0
C1378 C 0.82038 0.08954 0.52923 0.0
C1379 C 0.80238 0.05364 0.53349 0.0
C1380 C 0.80394 0.04631 0.54734 0.0
C1381 C 0.82428 0.07382 0.55653 0.0
C1382 C 0.78453 0.0237 0.52342 0.0
C1383 C 0.79237 0.99582 0.5239 0.0
C1384 C 0.76158 0.0232 0.51299 0.0
C1385 C 0.74965 0.0499 0.51244 0.0
C1386 C 0.73363 0.05577 0.52383 0.0
C1387 C 0.72264 0.08112 0.5233 0.0
C1388 C 0.72732 0.10062 0.51138 0.0
C1389 C 0.74292 0.09473 0.49996 0.0
C1390 C 0.75397 0.06942 0.50045 0.0
C1391 C 0.71542 0.87854 0.4857 0.0
C1392 C 0.72977 0.88855 0.47253 0.0
C1393 C 0.72238 0.90455 0.49563 0.0
C1394 C 0.74351 0.94102 0.49254 0.0
C1395 C 0.75532 0.95101 0.47911 0.0
C1396 C 0.7488 0.9251 0.46925 0.0
C1397 C 0.75696 0.96859 0.5035 0.0
C1398 C 0.74862 0.99603 0.50307 0.0
C1399 C 0.77901 0.96844 0.51412 0.0
C1400 C 0.78944 0.94062 0.51504 0.0
C1401 C 0.80651 0.93437 0.50409 0.0
C1402 C 0.81462 0.90696 0.5048 0.0
C1403 C 0.80671 0.88619 0.51655 0.0
C1404 C 0.79054 0.89275 0.52761 0.0
C1405 C 0.78189 0.91982 0.52688 0.0
H1406 H 0.8131 0.86503 0.51708 0.0
H1407 H 0.71881 0.12023 0.51098 0.0
H1408 H 0.86058 0.71332 0.82172 0.0
H1409 H 0.82781 0.72858 0.83816 0.0
H1410 H 0.8026 0.78145 0.80644 0.0
H1411 H 0.83648 0.76752 0.79018 0.0
H1412 H 0.82542 0.82318 0.82669 0.0
H1413 H 0.73836 0.69931 0.82266 0.0
H1414 H 0.71584 0.63455 0.82275 0.0
H1415 H 0.74725 0.64005 0.86454 0.0
H1416 H 0.77037 0.70494 0.86465 0.0
H1417 H 0.71283 0.86069 0.86738 0.0
H1418 H 0.72825 0.82978 0.8501 0.0
H1419 H 0.7752 0.79557 0.88107 0.0
H1420 H 0.76029 0.82669 0.89834 0.0
H1421 H 0.73806 0.74287 0.86094 0.0
H1422 H 0.82696 0.86735 0.86426 0.0
H1423 H 0.84895 0.932 0.864 0.0
H1424 H 0.81278 0.92465 0.8228 0.0
H1425 H 0.7899 0.85976 0.82291 0.0
C1426 C 0.84727 0.7274 0.81819 0.0
C1427 C 0.85111 0.7391 0.80461 0.0
C1428 C 0.82848 0.73618 0.82762 0.0
C1429 C 0.81241 0.75618 0.82363 0.0
C1430 C 0.81483 0.76627 0.80989 0.0
C1431 C 0.83404 0.75803 0.80055 0.0
C1432 C 0.79539 0.76888 0.83381 0.0
C1433 C 0.80577 0.80531 0.83397 0.0
C1434 C 0.77036 0.74607 0.84364 0.0
C1435 C 0.75638 0.70705 0.84362 0.0
C1436 C 0.74069 0.68675 0.83184 0.0
C1437 C 0.72778 0.65001 0.83186 0.0
C1438 C 0.73019 0.63321 0.84363 0.0
C1439 C 0.74543 0.6531 0.85542 0.0
C1440 C 0.75841 0.68986 0.85546 0.0
C1441 C 0.72548 0.84571 0.87058 0.0
C1442 C 0.73535 0.84625 0.88426 0.0
C1443 C 0.73456 0.82828 0.86066 0.0
C1444 C 0.75332 0.8107 0.86425 0.0
C1445 C 0.76082 0.80897 0.87803 0.0
C1446 C 0.75223 0.82679 0.88791 0.0
C1447 C 0.76785 0.79681 0.85361 0.0
C1448 C 0.7573 0.7604 0.85348 0.0
C1449 C 0.79257 0.81956 0.84372 0.0
C1450 C 0.80626 0.85859 0.84366 0.0
C1451 C 0.82333 0.87943 0.85519 0.0
C1452 C 0.83601 0.91614 0.85507 0.0
C1453 C 0.83216 0.93241 0.84341 0.0
C1454 C 0.81566 0.91199 0.83184 0.0
C1455 C 0.8028 0.87525 0.83193 0.0
H1456 H 0.84206 0.96085 0.84332 0.0
H1457 H 0.72019 0.60477 0.84362 0.0
H1458 H 0.06608 0.83744 0.12461 0.0
H1459 H 0.01752 0.80362 0.14066 0.0
H1460 H 0.09434 0.82746 0.17277 0.0
H1461 H 0.14292 0.85908 0.15643 0.0
H1462 H 0.04214 0.76747 0.17835 0.0
H1463 H 0.04865 0.87717 0.16612 0.0
H1464 H 0.04996 0.92329 0.15099 0.0
H1465 H 0.94521 0.84876 0.1363 0.0
H1466 H 0.9435 0.80202 0.1512 0.0
H1467 H 0.92984 0.77307 0.23212 0.0
H1468 H 0.97606 0.78609 0.21506 0.0
H1469 H 0.89503 0.7239 0.18548 0.0
H1470 H 0.8486 0.70992 0.20261 0.0
H1471 H 0.94706 0.79964 0.17849 0.0
H1472 H 0.94252 0.6917 0.19422 0.0
H1473 H 0.94451 0.65195 0.21175 0.0
H1474 H 0.05051 0.73261 0.22286 0.0
H1475 H 0.04896 0.77306 0.20553 0.0
C1476 C 0.07255 0.8346 0.13502 0.0
C1477 C 0.10829 0.85085 0.13925 0.0
C1478 C 0.04474 0.81566 0.14427 0.0
C1479 C 0.05194 0.8139 0.15814 0.0
C1480 C 0.08777 0.82846 0.1622 0.0
C1481 C 0.11564 0.84648 0.15283 0.0
C1482 C 0.0224 0.7987 0.16846 0.0
C1483 C 0.02159 0.77484 0.17839 0.0
C1484 C 0.99518 0.80796 0.16866 0.0
C1485 C 0.99613 0.83598 0.15966 0.0
C1486 C 0.02601 0.87054 0.15958 0.0
C1487 C 0.02681 0.8968 0.15106 0.0
C1488 C 0.99773 0.88893 0.14266 0.0
C1489 C 0.96775 0.8548 0.14279 0.0
C1490 C 0.96685 0.82841 0.15128 0.0
C1491 C 0.92186 0.76132 0.22209 0.0
C1492 C 0.88549 0.7403 0.21875 0.0
C1493 C 0.94834 0.76886 0.21234 0.0
C1494 C 0.93903 0.75607 0.19898 0.0
C1495 C 0.90282 0.73398 0.19574 0.0
C1496 C 0.87632 0.72577 0.20558 0.0
C1497 C 0.96688 0.76846 0.18818 0.0
C1498 C 0.96747 0.79207 0.17826 0.0
C1499 C 0.99444 0.75992 0.18829 0.0
C1500 C 0.99549 0.73552 0.19865 0.0
C1501 C 0.96613 0.70108 0.20048 0.0
C1502 C 0.96721 0.67839 0.21036 0.0
C1503 C 0.99758 0.68977 0.21843 0.0
C1504 C 0.02699 0.72384 0.21661 0.0
C1505 C 0.02604 0.74664 0.20675 0.0
H1506 H 0.99836 0.67217 0.22608 0.0
H1507 H 0.99839 0.9093 0.13607 0.0
H1508 H 0.18264 0.93279 0.56556 0.0
H1509 H 0.2149 0.97862 0.54838 0.0
H1510 H 0.1669 0.89958 0.51672 0.0
H1511 H 0.13593 0.85327 0.53399 0.0
H1512 H 0.22987 0.94714 0.50853 0.0
H1513 H 0.13191 0.95411 0.52731 0.0
H1514 H 0.09469 0.95845 0.54535 0.0
H1515 H 0.18209 0.0597 0.55771 0.0
H1516 H 0.22001 0.05572 0.53985 0.0
H1517 H 0.22733 0.06398 0.45692 0.0
H1518 H 0.21481 0.01782 0.47387 0.0
H1519 H 0.28087 0.09858 0.50294 0.0
H1520 H 0.29385 0.14505 0.48595 0.0
H1521 H 0.21203 0.05142 0.5125 0.0
H1522 H 0.30759 0.04374 0.49083 0.0
H1523 H 0.33962 0.0371 0.47134 0.0
H1524 H 0.24955 0.93428 0.46252 0.0
H1525 H 0.21676 0.9405 0.48185 0.0
C1526 C 0.17974 0.925 0.55495 0.0
C1527 C 0.15664 0.88937 0.55115 0.0
C1528 C 0.19791 0.95134 0.54509 0.0
C1529 C 0.19253 0.94298 0.53115 0.0
C1530 C 0.17141 0.90696 0.52736 0.0
C1531 C 0.15379 0.88038 0.53727 0.0
C1532 C 0.2068 0.97198 0.52062 0.0
C1533 C 0.22568 0.96976 0.50937 0.0
C1534 C 0.20167 0.00184 0.52163 0.0
C1535 C 0.17892 0.00443 0.53234 0.0
C1536 C 0.14327 0.97718 0.53394 0.0
C1537 C 0.12204 0.97959 0.54412 0.0
C1538 C 0.13605 0.00928 0.5527 0.0
C1539 C 0.1713 0.03668 0.55107 0.0
C1540 C 0.19267 0.03437 0.54092 0.0
C1541 C 0.23993 0.07196 0.46681 0.0
C1542 C 0.26168 0.10834 0.47003 0.0
C1543 C 0.23273 0.04545 0.47651 0.0
C1544 C 0.24686 0.05462 0.48972 0.0
C1545 C 0.26968 0.09081 0.49282 0.0
C1546 C 0.27731 0.11737 0.48305 0.0
C1547 C 0.23533 0.02672 0.50053 0.0
C1548 C 0.21661 0.02902 0.51178 0.0
C1549 C 0.23986 0.99661 0.49931 0.0
C1550 C 0.25962 0.99272 0.48773 0.0
C1551 C 0.2945 0.01983 0.48468 0.0
C1552 C 0.31282 0.01611 0.47366 0.0
C1553 C 0.2966 0.98532 0.46568 0.0
C1554 C 0.26207 0.95813 0.46871 0.0
C1555 C 0.24362 0.96171 0.4797 0.0
H1556 H 0.31083 0.9825 0.45715 0.0
H1557 H 0.11957 0.01109 0.56058 0.0
H1558 H 0.28706 0.14124 0.86877 0.0
H1559 H 0.27353 0.17483 0.85209 0.0
H1560 H 0.22025 0.20117 0.88323 0.0
H1561 H 0.23241 0.16637 0.89973 0.0
H1562 H 0.17943 0.17915 0.86275 0.0
H1563 H 0.30358 0.26459 0.86731 0.0
H1564 H 0.36816 0.28615 0.8677 0.0
H1565 H 0.36381 0.25404 0.82608 0.0
H1566 H 0.2991 0.23186 0.8255 0.0
H1567 H 0.14375 0.28972 0.82041 0.0
H1568 H 0.17507 0.27613 0.83815 0.0
H1569 H 0.20956 0.22707 0.80822 0.0
H1570 H 0.17818 0.24029 0.79048 0.0
H1571 H 0.26186 0.26486 0.8285 0.0
H1572 H 0.13703 0.17609 0.82489 0.0
H1573 H 0.07277 0.15605 0.82442 0.0
H1574 H 0.07949 0.19641 0.86487 0.0
H1575 H 0.14398 0.21727 0.86548 0.0
C1576 C 0.27327 0.15496 0.87213 0.0
C1577 C 0.26089 0.15113 0.88561 0.0
C1578 C 0.2655 0.17425 0.86256 0.0
C1579 C 0.24588 0.19089 0.86631 0.0
C1580 C 0.23517 0.18853 0.87996 0.0
C1581 C 0.24238 0.16878 0.88945 0.0
C1582 C 0.23406 0.20826 0.85592 0.0
C1583 C 0.19779 0.19845 0.85548 0.0
C1584 C 0.2575 0.23288 0.8461 0.0
C1585 C 0.29643 0.24629 0.8464 0.0
C1586 C 0.31635 0.2619 0.85827 0.0
C1587 C 0.35298 0.27427 0.85852 0.0
C1588 C 0.37006 0.27139 0.84693 0.0
C1589 C 0.35054 0.25622 0.83505 0.0
C1590 C 0.31389 0.24379 0.83475 0.0
C1591 C 0.1589 0.27703 0.81752 0.0
C1592 C 0.15826 0.26595 0.80401 0.0
C1593 C 0.17661 0.26904 0.8277 0.0
C1594 C 0.1943 0.25013 0.82456 0.0
C1595 C 0.19608 0.24161 0.81091 0.0
C1596 C 0.17806 0.24918 0.80077 0.0
C1597 C 0.20762 0.23591 0.83555 0.0
C1598 C 0.24389 0.246 0.83598 0.0
C1599 C 0.18429 0.21169 0.84543 0.0
C1600 C 0.14541 0.19861 0.84517 0.0
C1601 C 0.12486 0.18093 0.83364 0.0
C1602 C 0.08839 0.1694 0.83335 0.0
C1603 C 0.07207 0.17505 0.84459 0.0
C1604 C 0.09218 0.19212 0.85616 0.0
C1605 C 0.12869 0.2038 0.85649 0.0
H1606 H 0.04384 0.16612 0.84434 0.0
H1607 H 0.39843 0.28098 0.84715 0.0
H1608 H 0.19522 0.1494 0.2319 0.0
H1609 H 0.21041 0.11484 0.21627 0.0
H1610 H 0.26323 0.20597 0.18973 0.0
H1611 H 0.24879 0.24084 0.20532 0.0
H1612 H 0.20766 0.14065 0.1775 0.0
H1613 H 0.31369 0.18451 0.20469 0.0
H1614 H 0.34771 0.19563 0.226 0.0
H1615 H 0.29676 0.083 0.23349 0.0
H1616 H 0.26201 0.07121 0.2123 0.0
H1617 H 0.24876 0.05336 0.12795 0.0
H1618 H 0.26102 0.0998 0.14476 0.0
H1619 H 0.23657 0.02343 0.17712 0.0
H1620 H 0.22731 0.97788 0.16029 0.0
H1621 H 0.28223 0.08529 0.1863 0.0
H1622 H 0.17051 0.04059 0.16189 0.0
H1623 H 0.13433 0.02643 0.14096 0.0
H1624 H 0.19223 0.13662 0.12913 0.0
H1625 H 0.22848 0.15138 0.15 0.0
C1626 C 0.2106 0.16225 0.22286 0.0
C1627 C 0.22077 0.19785 0.21985 0.0
C1628 C 0.21933 0.14252 0.21397 0.0
C1629 C 0.23794 0.15794 0.20188 0.0
C1630 C 0.24895 0.1937 0.19904 0.0
C1631 C 0.24078 0.21359 0.20801 0.0
C1632 C 0.24312 0.13593 0.19163 0.0
C1633 C 0.22441 0.12899 0.17932 0.0
C1634 C 0.26416 0.11998 0.19421 0.0
C1635 C 0.28497 0.127 0.20697 0.0
C1636 C 0.30946 0.16212 0.21094 0.0
C1637 C 0.32894 0.16854 0.22299 0.0
C1638 C 0.32433 0.14004 0.23111 0.0
C1639 C 0.30027 0.10505 0.22719 0.0
C1640 C 0.2807 0.09849 0.21516 0.0
C1641 C 0.2473 0.047 0.13868 0.0
C1642 C 0.23706 0.01226 0.1429 0.0
C1643 C 0.25388 0.07334 0.14828 0.0
C1644 C 0.24833 0.06478 0.16221 0.0
C1645 C 0.24073 0.03068 0.16645 0.0
C1646 C 0.23546 0.00466 0.15685 0.0
C1647 C 0.24668 0.08986 0.17213 0.0
C1648 C 0.26573 0.09718 0.18441 0.0
C1649 C 0.22532 0.10567 0.16967 0.0
C1650 C 0.2023 0.09704 0.15745 0.0
C1651 C 0.17536 0.06178 0.15484 0.0
C1652 C 0.15482 0.05365 0.14299 0.0
C1653 C 0.16088 0.0806 0.13372 0.0
C1654 C 0.18734 0.11577 0.13633 0.0
C1655 C 0.20782 0.12406 0.14819 0.0
H1656 H 0.14511 0.07423 0.12451 0.0
H1657 H 0.33945 0.14507 0.24043 0.0
H1658 H 0.03435 0.19065 0.56223 0.0
H1659 H 0.07934 0.19902 0.54521 0.0
H1660 H 0.03954 0.24986 0.51834 0.0
H1661 H 0.99513 0.2425 0.53535 0.0
H1662 H 0.04773 0.1753 0.51201 0.0
H1663 H 0.10221 0.30466 0.52183 0.0
H1664 H 0.1265 0.35475 0.53809 0.0
H1665 H 0.20081 0.32424 0.5529 0.0
H1666 H 0.1765 0.2736 0.53685 0.0
H1667 H 0.15909 0.20174 0.45607 0.0
H1668 H 0.121 0.21023 0.47224 0.0
H1669 H 0.20115 0.23896 0.50342 0.0
H1670 H 0.24011 0.23289 0.48704 0.0
H1671 H 0.17199 0.27546 0.50776 0.0
H1672 H 0.12444 0.15078 0.49924 0.0
H1673 H 0.1016 0.09626 0.48534 0.0
H1674 H 0.01589 0.11065 0.47099 0.0
H1675 H 0.0385 0.16553 0.48468 0.0
C1676 C 0.03561 0.20423 0.55281 0.0
C1677 C 0.01121 0.21601 0.55017 0.0
C1678 C 0.06131 0.20899 0.54312 0.0
C1679 C 0.06279 0.22525 0.5306 0.0
C1680 C 0.03902 0.23766 0.52803 0.0
C1681 C 0.01374 0.23349 0.53778 0.0
C1682 C 0.08707 0.22643 0.51979 0.0
C1683 C 0.07475 0.19739 0.51089 0.0
C1684 C 0.12256 0.25465 0.51874 0.0
C1685 C 0.13722 0.28512 0.52829 0.0
C1686 C 0.12342 0.30839 0.52867 0.0
C1687 C 0.13727 0.33694 0.53781 0.0
C1688 C 0.16509 0.3426 0.54656 0.0
C1689 C 0.1792 0.31978 0.54614 0.0
C1690 C 0.16541 0.29118 0.53703 0.0
C1691 C 0.16874 0.21046 0.46632 0.0
C1692 C 0.20246 0.21647 0.47032 0.0
C1693 C 0.14685 0.21501 0.47561 0.0
C1694 C 0.15763 0.22419 0.48922 0.0
C1695 C 0.19201 0.23173 0.49303 0.0
C1696 C 0.21431 0.22822 0.48364 0.0
C1697 C 0.13268 0.22434 0.49966 0.0
C1698 C 0.14488 0.25343 0.50864 0.0
C1699 C 0.09721 0.1956 0.50101 0.0
C1700 C 0.08338 0.16245 0.49287 0.0
C1701 C 0.10084 0.14242 0.49305 0.0
C1702 C 0.08793 0.11145 0.48522 0.0
C1703 C 0.05738 0.10006 0.47726 0.0
C1704 C 0.03959 0.11955 0.47715 0.0
C1705 C 0.05243 0.15057 0.48495 0.0
H1706 H 0.04744 0.07609 0.47119 0.0
H1707 H 0.17579 0.36472 0.55362 0.0
H1708 H 0.01168 0.15961 0.80584 0.0
H1709 H 0.96674 0.12189 0.82232 0.0
H1710 H 0.9208 0.19035 0.82066 0.0
H1711 H 0.96764 0.22974 0.80468 0.0
H1712 H 0.92056 0.1736 0.84521 0.0
H1713 H 0.88134 0.10307 0.80528 0.0
H1714 H 0.88452 0.07243 0.78464 0.0
H1715 H 0.91165 0.00691 0.80894 0.0
H1716 H 0.90928 0.03757 0.8297 0.0
H1717 H 0.76572 0.02871 0.88048 0.0
H1718 H 0.80322 0.07271 0.86327 0.0
H1719 H 0.88584 0.04661 0.87029 0.0
H1720 H 0.84916 0.00335 0.8876 0.0
H1721 H 0.85909 0.04177 0.84173 0.0
H1722 H 0.90289 0.11977 0.88142 0.0
H1723 H 0.89505 0.14949 0.90143 0.0
H1724 H 0.85132 0.19887 0.87597 0.0
H1725 H 0.85845 0.16901 0.85582 0.0
C1726 C 0.99176 0.16645 0.80884 0.0
C1727 C 0.99288 0.19739 0.80384 0.0
C1728 C 0.96586 0.14468 0.81825 0.0
C1729 C 0.93956 0.15254 0.82252 0.0
C1730 C 0.94058 0.18349 0.81748 0.0
C1731 C 0.96722 0.20591 0.80831 0.0
C1732 C 0.91222 0.12914 0.83267 0.0
C1733 C 0.90663 0.1448 0.84426 0.0
C1734 C 0.89385 0.09141 0.83155 0.0
C1735 C 0.89541 0.07289 0.81906 0.0
C1736 C 0.88828 0.08234 0.80622 0.0
C1737 C 0.88991 0.06493 0.79449 0.0
C1738 C 0.89837 0.0378 0.79548 0.0
C1739 C 0.90515 0.02797 0.80819 0.0
C1740 C 0.90364 0.04535 0.81995 0.0
C1741 C 0.79208 0.03275 0.8785 0.0
C1742 C 0.8044 0.01245 0.88539 0.0
C1743 C 0.81343 0.05788 0.86868 0.0
C1744 C 0.84714 0.06268 0.86551 0.0
C1745 C 0.85985 0.04319 0.87261 0.0
C1746 C 0.83888 0.01862 0.88256 0.0
C1747 C 0.86859 0.08636 0.85424 0.0
C1748 C 0.87281 0.07063 0.84246 0.0
C1749 C 0.88495 0.12384 0.85504 0.0
C1750 C 0.88077 0.1418 0.86715 0.0
C1751 C 0.89125 0.13666 0.88011 0.0
C1752 C 0.88703 0.15361 0.89147 0.0
C1753 C 0.87258 0.17596 0.88999 0.0
C1754 C 0.86243 0.18149 0.87712 0.0
C1755 C 0.86658 0.16459 0.86572 0.0
H1756 H 0.86934 0.18906 0.8988 0.0
H1757 H 0.8996 0.02435 0.78639 0.0
H1758 H 0.79111 0.83955 0.2275 0.0
H1759 H 0.78113 0.8722 0.20922 0.0
H1760 H 0.74081 0.77972 0.18335 0.0
H1761 H 0.74959 0.74646 0.20167 0.0
H1762 H 0.80983 0.8584 0.17598 0.0
H1763 H 0.68329 0.78857 0.18685 0.0
H1764 H 0.63243 0.7652 0.20272 0.0
H1765 H 0.65985 0.872 0.21352 0.0
H1766 H 0.71125 0.89599 0.19787 0.0
H1767 H 0.79264 0.94971 0.11962 0.0
H1768 H 0.78075 0.90124 0.13543 0.0
H1769 H 0.75334 0.95341 0.16672 0.0
H1770 H 0.76265 0.00022 0.1507 0.0
H1771 H 0.71389 0.88832 0.17036 0.0
H1772 H 0.84027 0.96009 0.16276 0.0
H1773 H 0.89583 0.98893 0.14934 0.0
H1774 H 0.87555 0.88659 0.13526 0.0
H1775 H 0.81959 0.85717 0.14846 0.0
C1776 C 0.77934 0.8259 0.21803 0.0
C1777 C 0.77117 0.79045 0.21602 0.0
C1778 C 0.77365 0.84456 0.20762 0.0
C1779 C 0.76023 0.82825 0.195 0.0
C1780 C 0.75096 0.79258 0.19308 0.0
C1781 C 0.7559 0.77364 0.20358 0.0
C1782 C 0.75944 0.8497 0.18344 0.0
C1783 C 0.78858 0.86448 0.17453 0.0
C1784 C 0.73229 0.85844 0.18195 0.0
C1785 C 0.70135 0.84405 0.19132 0.0
C1786 C 0.67872 0.80706 0.19273 0.0
C1787 C 0.64973 0.7937 0.20165 0.0
C1788 C 0.64297 0.8171 0.20916 0.0
C1789 C 0.66514 0.85391 0.20772 0.0
C1790 C 0.69419 0.86739 0.19882 0.0
C1791 C 0.78354 0.95043 0.12982 0.0
C1792 C 0.7788 0.97884 0.13396 0.0
C1793 C 0.77701 0.92289 0.1389 0.0
C1794 C 0.76708 0.92402 0.15245 0.0
C1795 C 0.76102 0.95175 0.15637 0.0
C1796 C 0.76646 0.97864 0.1472 0.0
C1797 C 0.76463 0.89758 0.16276 0.0
C1798 C 0.73502 0.88197 0.17156 0.0
C1799 C 0.79196 0.88885 0.16441 0.0
C1800 C 0.82555 0.90648 0.15645 0.0
C1801 C 0.84754 0.94377 0.15672 0.0
C1802 C 0.8791 0.96021 0.14916 0.0
C1803 C 0.88915 0.93962 0.14141 0.0
C1804 C 0.86769 0.90251 0.14123 0.0
C1805 C 0.83605 0.88594 0.14875 0.0
H1806 H 0.9136 0.95239 0.13558 0.0
H1807 H 0.62051 0.80671 0.21606 0.0
H1808 H 0.7548 0.76197 0.48915 0.0
H1809 H 0.79394 0.75755 0.506 0.0
H1810 H 0.8805 0.80202 0.47706 0.0
H1811 H 0.8419 0.8083 0.46044 0.0
H1812 H 0.83022 0.72597 0.5092 0.0
H1813 H 0.95863 0.85085 0.4923 0.0
H1814 H 0.97851 0.90786 0.48035 0.0
H1815 H 0.88404 0.90817 0.49327 0.0
H1816 H 0.86349 0.8511 0.50533 0.0
H1817 H 0.98573 0.74501 0.54335 0.0
H1818 H 0.93977 0.73842 0.52724 0.0
H1819 H 0.93666 0.82672 0.54613 0.0
H1820 H 0.98284 0.83383 0.56215 0.0
H1821 H 0.9446 0.83573 0.51938 0.0
H1822 H 0.86747 0.74124 0.54947 0.0
H1823 H 0.84712 0.68601 0.56272 0.0
H1824 H 0.83699 0.6281 0.52596 0.0
H1825 H 0.85775 0.68312 0.51251 0.0
C1826 C 0.78205 0.77039 0.48632 0.0
C1827 C 0.79538 0.78581 0.47352 0.0
C1828 C 0.80446 0.76787 0.49597 0.0
C1829 C 0.84051 0.78026 0.49296 0.0
C1830 C 0.85314 0.79333 0.47982 0.0
C1831 C 0.83098 0.79664 0.47028 0.0
C1832 C 0.86505 0.78102 0.50377 0.0
C1833 C 0.85526 0.74997 0.5114 0.0
C1834 C 0.89764 0.81239 0.50681 0.0
C1835 C 0.90942 0.84658 0.4996 0.0
C1836 C 0.9421 0.86311 0.4926 0.0
C1837 C 0.95342 0.89536 0.48579 0.0
C1838 C 0.9324 0.9115 0.486 0.0
C1839 C 0.90007 0.89544 0.49305 0.0
C1840 C 0.88854 0.86312 0.49986 0.0
C1841 C 0.97492 0.76271 0.54423 0.0
C1842 C 0.9883 0.79018 0.55398 0.0
C1843 C 0.94853 0.75882 0.53502 0.0
C1844 C 0.9348 0.78212 0.53545 0.0
C1845 C 0.94701 0.80856 0.54555 0.0
C1846 C 0.97339 0.81251 0.55473 0.0
C1847 C 0.90972 0.78079 0.52482 0.0
C1848 C 0.91955 0.81171 0.51718 0.0
C1849 C 0.87704 0.74951 0.52194 0.0
C1850 C 0.8645 0.71638 0.53 0.0
C1851 C 0.86119 0.7168 0.54422 0.0
C1852 C 0.84952 0.68551 0.55177 0.0
C1853 C 0.84086 0.65359 0.54519 0.0
C1854 C 0.84375 0.65286 0.53105 0.0
C1855 C 0.85543 0.68408 0.52345 0.0
H1856 H 0.83183 0.6294 0.55105 0.0
H1857 H 0.94123 0.9365 0.48074 0.0
H1858 H 0.24832 0.97933 0.87729 0.0
H1859 H 0.21308 0.93277 0.86063 0.0
H1860 H 0.11849 0.93454 0.87322 0.0
H1861 H 0.15304 0.97983 0.89012 0.0
H1862 H 0.10101 0.86973 0.86802 0.0
H1863 H 0.17011 0.98225 0.8448 0.0
H1864 H 0.22551 0.03649 0.83802 0.0
H1865 H 0.26412 0.97223 0.81967 0.0
H1866 H 0.20908 0.91757 0.8265 0.0
H1867 H 0.02906 0.84871 0.79549 0.0
H1868 H 0.07498 0.88402 0.81217 0.0
H1869 H 0.06549 0.78797 0.82939 0.0
H1870 H 0.0188 0.75222 0.8129 0.0
H1871 H 0.13855 0.89588 0.81971 0.0
H1872 H 0.07119 0.79677 0.86394 0.0
H1873 H 0.01156 0.74795 0.87049 0.0
H1874 H 0.9625 0.79443 0.84635 0.0
H1875 H 0.02179 0.84373 0.83981 0.0
C1876 C 0.21992 0.96942 0.87664 0.0
C1877 C 0.2036 0.9836 0.88496 0.0
C1878 C 0.19982 0.94291 0.86706 0.0
C1879 C 0.1632 0.93057 0.86547 0.0
C1880 C 0.14667 0.94357 0.87421 0.0
C1881 C 0.16657 0.96965 0.88387 0.0
C1882 C 0.14215 0.90569 0.8543 0.0
C1883 C 0.10948 0.87527 0.85748 0.0
C1884 C 0.15276 0.91309 0.84049 0.0
C1885 C 0.1857 0.94587 0.83629 0.0
C1886 C 0.19052 0.97971 0.83939 0.0
C1887 C 0.22183 0.01051 0.83553 0.0
C1888 C 0.24837 0.0078 0.82845 0.0
C1889 C 0.24358 0.97428 0.82518 0.0
C1890 C 0.21233 0.94339 0.82904 0.0
C1891 C 0.03702 0.83501 0.80269 0.0
C1892 C 0.01978 0.79753 0.80297 0.0
C1893 C 0.06345 0.85532 0.8122 0.0
C1894 C 0.07329 0.83865 0.82218 0.0
C1895 C 0.05789 0.80138 0.82193 0.0
C1896 C 0.03125 0.78099 0.81245 0.0
C1897 C 0.09735 0.86019 0.83345 0.0
C1898 C 0.13053 0.88993 0.83029 0.0
C1899 C 0.08667 0.8529 0.84725 0.0
C1900 C 0.0509 0.82363 0.85126 0.0
C1901 C 0.04766 0.79658 0.86006 0.0
C1902 C 0.01393 0.76884 0.86377 0.0
C1903 C 0.98327 0.76801 0.85879 0.0
C1904 C 0.98626 0.79502 0.85015 0.0
C1905 C 0.01992 0.82284 0.84644 0.0
H1906 H 0.95719 0.7465 0.86166 0.0
H1907 H 0.27259 0.03168 0.82547 0.0
loop_
_geom_bond_atom_site_label_1
_geom_bond_atom_site_label_2
_geom_bond_distance
_geom_bond_site_symmetry_2
_ccdc_geom_bond_type
Co0 O3 1.970 . S
Co0 N17 1.989 . S
Co0 O25 1.967 . S
Co0 O32 1.920 . S
Co1 O4 1.966 . S
Co1 N10 2.022 . S
Co1 N18 1.993 . S
Co1 O26 1.941 . S
C2 O3 1.258 . S
C2 O4 1.263 . S
O3 Co0 1.970 . S
O3 C2 1.258 . S
O4 Co1 1.966 . S
O4 C2 1.263 . S
C5 O6 1.235 . S
C5 O32 1.289 . S
O6 C5 1.235 . S
C7 C9 1.400 . S
C7 N10 1.351 . S
C7 C12 1.501 . S
C8 C9 1.387 . S
C8 N11 1.341 . S
C9 C7 1.400 . S
C9 C8 1.387 . S
N10 Co1 2.022 . S
N10 C7 1.351 . S
N10 N11 1.365 . S
N11 C8 1.341 . S
N11 N10 1.365 . S
N11 H31 0.862 . S
C12 C7 1.501 . S
C12 H13 0.961 . S
C12 H14 0.961 . S
C12 H15 0.960 . S
H13 C12 0.961 . S
H14 C12 0.961 . S
H15 C12 0.960 . S
C16 N17 1.342 . S
C16 C20 1.401 . S
C16 C21 1.499 . S
N17 Co0 1.989 . S
N17 C16 1.342 . S
N17 N18 1.388 . S
N18 Co1 1.993 . S
N18 N17 1.388 . S
N18 C19 1.346 . S
C19 N18 1.346 . S
C19 C20 1.396 . S
C19 C29 1.510 . S
C20 C16 1.401 . S
C20 C19 1.396 . S
C21 C16 1.499 . S
C21 H22 0.959 . S
C21 H23 0.960 . S
C21 H24 0.961 . S
H22 C21 0.959 . S
H23 C21 0.960 . S
H24 C21 0.961 . S
O25 Co0 1.967 . S
O25 C33 1.258 . S
O26 Co1 1.941 . S
O26 C33 1.266 . S
H27 C29 0.959 . S
H28 C29 0.961 . S
C29 C19 1.510 . S
C29 H27 0.959 . S
C29 H28 0.961 . S
C29 H30 0.960 . S
H30 C29 0.960 . S
H31 N11 0.862 . S
O32 Co0 1.920 . S
O32 C5 1.289 . S
C33 O25 1.258 . S
C33 O26 1.266 . S
Co34 O37 1.970 . S
Co34 N51 1.989 . S
Co34 O59 1.967 . S
Co34 O66 1.920 . S
Co35 O38 1.966 . S
Co35 N44 2.022 . S
Co35 N52 1.993 . S
Co35 O60 1.941 . S
C36 O37 1.258 . S
C36 O38 1.263 . S
O37 Co34 1.970 . S
O37 C36 1.258 . S
O38 Co35 1.966 . S
O38 C36 1.263 . S
C39 O40 1.235 1_655 S
C39 O66 1.289 . S
O40 C39 1.235 1_455 S
C41 C43 1.400 . S
C41 N44 1.351 . S
C41 C46 1.501 . S
C42 C43 1.387 . S
C42 N45 1.341 . S
C43 C41 1.400 . S
C43 C42 1.387 . S
N44 Co35 2.022 . S
N44 C41 1.351 . S
N44 N45 1.365 . S
N45 C42 1.341 . S
N45 N44 1.365 . S
N45 H65 0.862 . S
C46 C41 1.501 . S
C46 H47 0.961 . S
C46 H48 0.961 1_655 S
C46 H49 0.960 . S
H47 C46 0.961 . S
H48 C46 0.961 1_455 S
H49 C46 0.960 . S
C50 N51 1.342 . S
C50 C54 1.401 . S
C50 C55 1.499 . S
N51 Co34 1.989 . S
N51 C50 1.342 . S
N51 N52 1.388 . S
N52 Co35 1.993 . S
N52 N51 1.388 . S
N52 C53 1.346 . S
C53 N52 1.346 . S
C53 C54 1.396 . S
C53 C63 1.510 . S
C54 C50 1.401 . S
C54 C53 1.396 . S
C55 C50 1.499 . S
C55 H56 0.959 . S
C55 H57 0.960 . S
C55 H58 0.961 . S
H56 C55 0.959 . S
H57 C55 0.960 . S
H58 C55 0.961 . S
O59 Co34 1.967 . S
O59 C67 1.258 . S
O60 Co35 1.941 . S
O60 C67 1.266 . S
H61 C63 0.959 . S
H62 C63 0.961 . S
C63 C53 1.510 . S
C63 H61 0.959 . S
C63 H62 0.961 . S
C63 H64 0.960 . S
H64 C63 0.960 . S
H65 N45 0.862 . S
O66 Co34 1.920 . S
O66 C39 1.289 . S
C67 O59 1.258 . S
C67 O60 1.266 . S
Co68 O71 1.970 . S
Co68 N85 1.989 . S
Co68 O93 1.967 . S
Co68 O100 1.920 . S
Co69 O72 1.966 . S
Co69 N78 2.022 . S
Co69 N86 1.993 . S
Co69 O94 1.941 . S
C70 O71 1.258 . S
C70 O72 1.263 . S
O71 Co68 1.970 . S
O71 C70 1.258 . S
O72 Co69 1.966 . S
O72 C70 1.263 . S
C73 O74 1.235 1_565 S
C73 O100 1.289 . S
O74 C73 1.235 1_545 S
C75 C77 1.400 . S
C75 N78 1.351 . S
C75 C80 1.501 . S
C76 C77 1.387 . S
C76 N79 1.341 . S
C77 C75 1.400 . S
C77 C76 1.387 . S
N78 Co69 2.022 . S
N78 C75 1.351 . S
N78 N79 1.365 . S
N79 C76 1.341 . S
N79 N78 1.365 . S
N79 H99 0.862 . S
C80 C75 1.501 . S
C80 H81 0.961 . S
C80 H82 0.961 1_565 S
C80 H83 0.960 . S
H81 C80 0.961 . S
H82 C80 0.961 1_545 S
H83 C80 0.960 . S
C84 N85 1.342 . S
C84 C88 1.401 . S
C84 C89 1.499 . S
N85 Co68 1.989 . S
N85 C84 1.342 . S
N85 N86 1.388 . S
N86 Co69 1.993 . S
N86 N85 1.388 . S
N86 C87 1.346 . S
C87 N86 1.346 . S
C87 C88 1.396 . S
C87 C97 1.510 . S
C88 C84 1.401 . S
C88 C87 1.396 . S
C89 C84 1.499 . S
C89 H90 0.959 . S
C89 H91 0.960 . S
C89 H92 0.961 . S
H90 C89 0.959 . S
H91 C89 0.960 . S
H92 C89 0.961 . S
O93 Co68 1.967 . S
O93 C101 1.258 . S
O94 Co69 1.941 . S
O94 C101 1.266 . S
H95 C97 0.959 . S
H96 C97 0.961 . S
C97 C87 1.510 . S
C97 H95 0.959 . S
C97 H96 0.961 . S
C97 H98 0.960 . S
H98 C97 0.960 . S
H99 N79 0.862 . S
O100 Co68 1.920 . S
O100 C73 1.289 . S
C101 O93 1.258 . S
C101 O94 1.266 . S
Co102 O105 1.970 . S
Co102 N119 1.989 . S
Co102 O127 1.967 . S
Co102 O134 1.920 . S
Co103 O106 1.966 . S
Co103 N112 2.022 . S
Co103 N120 1.993 . S
Co103 O128 1.941 . S
C104 O105 1.258 . S
C104 O106 1.263 . S
O105 Co102 1.970 . S
O105 C104 1.258 . S
O106 Co103 1.966 . S
O106 C104 1.263 . S
C107 O108 1.235 . S
C107 O134 1.289 . S
O108 C107 1.235 . S
C109 C111 1.400 . S
C109 N112 1.351 . S
C109 C114 1.501 . S
C110 C111 1.387 . S
C110 N113 1.341 . S
C111 C109 1.400 . S
C111 C110 1.387 . S
N112 Co103 2.022 . S
N112 C109 1.351 . S
N112 N113 1.365 . S
N113 C110 1.341 . S
N113 N112 1.365 . S
N113 H133 0.862 . S
C114 C109 1.501 . S
C114 H115 0.961 . S
C114 H116 0.961 . S
C114 H117 0.960 . S
H115 C114 0.961 . S
H116 C114 0.961 . S
H117 C114 0.960 . S
C118 N119 1.342 . S
C118 C122 1.401 . S
C118 C123 1.499 . S
N119 Co102 1.989 . S
N119 C118 1.342 . S
N119 N120 1.388 . S
N120 Co103 1.993 . S
N120 N119 1.388 . S
N120 C121 1.346 . S
C121 N120 1.346 . S
C121 C122 1.396 . S
C121 C131 1.510 . S
C122 C118 1.401 . S
C122 C121 1.396 . S
C123 C118 1.499 . S
C123 H124 0.959 . S
C123 H125 0.960 . S
C123 H126 0.961 . S
H124 C123 0.959 . S
H125 C123 0.960 . S
H126 C123 0.961 . S
O127 Co102 1.967 . S
O127 C135 1.258 . S
O128 Co103 1.941 . S
O128 C135 1.266 . S
H129 C131 0.959 . S
H130 C131 0.961 . S
C131 C121 1.510 . S
C131 H129 0.959 . S
C131 H130 0.961 . S
C131 H132 0.960 . S
H132 C131 0.960 . S
H133 N113 0.862 . S
O134 Co102 1.920 . S
O134 C107 1.289 . S
C135 O127 1.258 . S
C135 O128 1.266 . S
Co136 O139 1.970 . S
Co136 N153 1.989 . S
Co136 O161 1.967 . S
Co136 O168 1.920 . S
Co137 O140 1.966 . S
Co137 N146 2.022 . S
Co137 N154 1.993 . S
Co137 O162 1.941 . S
C138 O139 1.258 . S
C138 O140 1.263 . S
O139 Co136 1.970 . S
O139 C138 1.258 . S
O140 Co137 1.966 . S
O140 C138 1.263 . S
C141 O142 1.235 1_455 S
C141 O168 1.289 . S
O142 C141 1.235 1_655 S
C143 C145 1.400 . S
C143 N146 1.351 . S
C143 C148 1.501 . S
C144 C145 1.387 . S
C144 N147 1.341 . S
C145 C143 1.400 . S
C145 C144 1.387 . S
N146 Co137 2.022 . S
N146 C143 1.351 . S
N146 N147 1.365 . S
N147 C144 1.341 . S
N147 N146 1.365 . S
N147 H167 0.862 . S
C148 C143 1.501 . S
C148 H149 0.961 . S
C148 H150 0.961 1_455 S
C148 H151 0.960 . S
H149 C148 0.961 . S
H150 C148 0.961 1_655 S
H151 C148 0.960 . S
C152 N153 1.342 . S
C152 C156 1.401 . S
C152 C157 1.499 . S
N153 Co136 1.989 . S
N153 C152 1.342 . S
N153 N154 1.388 . S
N154 Co137 1.993 . S
N154 N153 1.388 . S
N154 C155 1.346 . S
C155 N154 1.346 . S
C155 C156 1.396 . S
C155 C165 1.510 . S
C156 C152 1.401 . S
C156 C155 1.396 . S
C157 C152 1.499 . S
C157 H158 0.959 . S
C157 H159 0.960 . S
C157 H160 0.961 . S
H158 C157 0.959 . S
H159 C157 0.960 . S
H160 C157 0.961 . S
O161 Co136 1.967 . S
O161 C169 1.258 . S
O162 Co137 1.941 . S
O162 C169 1.266 . S
H163 C165 0.959 . S
H164 C165 0.961 . S
C165 C155 1.510 . S
C165 H163 0.959 . S
C165 H164 0.961 . S
C165 H166 0.960 . S
H166 C165 0.960 . S
H167 N147 0.862 . S
O168 Co136 1.920 . S
O168 C141 1.289 . S
C169 O161 1.258 . S
C169 O162 1.266 . S
Co170 O173 1.970 . S
Co170 N187 1.989 . S
Co170 O195 1.967 . S
Co170 O202 1.920 . S
Co171 O174 1.966 . S
Co171 N180 2.022 . S
Co171 N188 1.993 . S
Co171 O196 1.941 . S
C172 O173 1.258 . S
C172 O174 1.263 . S
O173 Co170 1.970 . S
O173 C172 1.258 . S
O174 Co171 1.966 . S
O174 C172 1.263 . S
C175 O176 1.235 1_545 S
C175 O202 1.289 . S
O176 C175 1.235 1_565 S
C177 C179 1.400 . S
C177 N180 1.351 . S
C177 C182 1.501 . S
C178 C179 1.387 . S
C178 N181 1.341 . S
C179 C177 1.400 . S
C179 C178 1.387 . S
N180 Co171 2.022 . S
N180 C177 1.351 . S
N180 N181 1.365 . S
N181 C178 1.341 . S
N181 N180 1.365 . S
N181 H201 0.862 . S
C182 C177 1.501 . S
C182 H183 0.961 . S
C182 H184 0.961 1_545 S
C182 H185 0.960 . S
H183 C182 0.961 . S
H184 C182 0.961 1_565 S
H185 C182 0.960 . S
C186 N187 1.342 . S
C186 C190 1.401 . S
C186 C191 1.499 . S
N187 Co170 1.989 . S
N187 C186 1.342 . S
N187 N188 1.388 . S
N188 Co171 1.993 . S
N188 N187 1.388 . S
N188 C189 1.346 . S
C189 N188 1.346 . S
C189 C190 1.396 . S
C189 C199 1.510 . S
C190 C186 1.401 . S
C190 C189 1.396 . S
C191 C186 1.499 . S
C191 H192 0.959 . S
C191 H193 0.960 . S
C191 H194 0.961 . S
H192 C191 0.959 . S
H193 C191 0.960 . S
H194 C191 0.961 . S
O195 Co170 1.967 . S
O195 C203 1.258 . S
O196 Co171 1.941 . S
O196 C203 1.266 . S
H197 C199 0.959 . S
H198 C199 0.961 . S
C199 C189 1.510 . S
C199 H197 0.959 . S
C199 H198 0.961 . S
C199 H200 0.960 . S
H200 C199 0.960 . S
H201 N181 0.862 . S
O202 Co170 1.920 . S
O202 C175 1.289 . S
C203 O195 1.258 . S
C203 O196 1.266 . S
Co204 O207 1.970 . S
Co204 N221 1.989 . S
Co204 O229 1.967 . S
Co204 O236 1.920 . S
Co205 O208 1.966 . S
Co205 N214 2.022 . S
Co205 N222 1.993 . S
Co205 O230 1.941 . S
C206 O207 1.258 . S
C206 O208 1.263 . S
O207 Co204 1.970 . S
O207 C206 1.258 . S
O208 Co205 1.966 . S
O208 C206 1.263 . S
C209 O210 1.235 . S
C209 O236 1.289 . S
O210 C209 1.235 . S
C211 C213 1.400 . S
C211 N214 1.351 . S
C211 C216 1.501 . S
C212 C213 1.387 . S
C212 N215 1.341 . S
C213 C211 1.400 . S
C213 C212 1.387 . S
N214 Co205 2.022 . S
N214 C211 1.351 . S
N214 N215 1.365 . S
N215 C212 1.341 . S
N215 N214 1.365 . S
N215 H235 0.862 . S
C216 C211 1.501 . S
C216 H217 0.961 . S
C216 H218 0.961 . S
C216 H219 0.960 . S
H217 C216 0.961 . S
H218 C216 0.961 . S
H219 C216 0.960 . S
C220 N221 1.342 . S
C220 C224 1.401 . S
C220 C225 1.499 . S
N221 Co204 1.989 . S
N221 C220 1.342 . S
N221 N222 1.388 . S
N222 Co205 1.993 . S
N222 N221 1.388 . S
N222 C223 1.346 . S
C223 N222 1.346 . S
C223 C224 1.396 . S
C223 C233 1.510 . S
C224 C220 1.401 . S
C224 C223 1.396 . S
C225 C220 1.499 . S
C225 H226 0.959 . S
C225 H227 0.960 . S
C225 H228 0.961 . S
H226 C225 0.959 . S
H227 C225 0.960 . S
H228 C225 0.961 . S
O229 Co204 1.967 . S
O229 C237 1.258 . S
O230 Co205 1.941 . S
O230 C237 1.266 . S
H231 C233 0.959 . S
H232 C233 0.961 . S
C233 C223 1.510 . S
C233 H231 0.959 . S
C233 H232 0.961 . S
C233 H234 0.960 . S
H234 C233 0.960 . S
H235 N215 0.862 . S
O236 Co204 1.920 . S
O236 C209 1.289 . S
C237 O229 1.258 . S
C237 O230 1.266 . S
Co238 O241 1.970 . S
Co238 N255 1.989 . S
Co238 O263 1.967 . S
Co238 O270 1.920 . S
Co239 O242 1.966 . S
Co239 N248 2.022 . S
Co239 N256 1.993 . S
Co239 O264 1.941 . S
C240 O241 1.258 . S
C240 O242 1.263 . S
O241 Co238 1.970 . S
O241 C240 1.258 . S
O242 Co239 1.966 . S
O242 C240 1.263 . S
C243 O244 1.235 1_655 S
C243 O270 1.289 . S
O244 C243 1.235 1_455 S
C245 C247 1.400 . S
C245 N248 1.351 . S
C245 C250 1.501 . S
C246 C247 1.387 . S
C246 N249 1.341 . S
C247 C245 1.400 . S
C247 C246 1.387 . S
N248 Co239 2.022 . S
N248 C245 1.351 . S
N248 N249 1.365 . S
N249 C246 1.341 . S
N249 N248 1.365 . S
N249 H269 0.862 . S
C250 C245 1.501 . S
C250 H251 0.961 . S
C250 H252 0.961 1_655 S
C250 H253 0.960 . S
H251 C250 0.961 . S
H252 C250 0.961 1_455 S
H253 C250 0.960 . S
C254 N255 1.342 . S
C254 C258 1.401 . S
C254 C259 1.499 . S
N255 Co238 1.989 . S
N255 C254 1.342 . S
N255 N256 1.388 . S
N256 Co239 1.993 . S
N256 N255 1.388 . S
N256 C257 1.346 . S
C257 N256 1.346 . S
C257 C258 1.396 . S
C257 C267 1.510 . S
C258 C254 1.401 . S
C258 C257 1.396 . S
C259 C254 1.499 . S
C259 H260 0.959 . S
C259 H261 0.960 . S
C259 H262 0.961 . S
H260 C259 0.959 . S
H261 C259 0.960 . S
H262 C259 0.961 . S
O263 Co238 1.967 . S
O263 C271 1.258 . S
O264 Co239 1.941 . S
O264 C271 1.266 . S
H265 C267 0.959 . S
H266 C267 0.961 . S
C267 C257 1.510 . S
C267 H265 0.959 . S
C267 H266 0.961 . S
C267 H268 0.960 . S
H268 C267 0.960 . S
H269 N249 0.862 . S
O270 Co238 1.920 . S
O270 C243 1.289 . S
C271 O263 1.258 . S
C271 O264 1.266 . S
Co272 O275 1.970 . S
Co272 N289 1.989 . S
Co272 O297 1.967 . S
Co272 O304 1.920 . S
Co273 O276 1.966 . S
Co273 N282 2.022 . S
Co273 N290 1.993 . S
Co273 O298 1.941 . S
C274 O275 1.258 . S
C274 O276 1.263 . S
O275 Co272 1.970 . S
O275 C274 1.258 . S
O276 Co273 1.966 . S
O276 C274 1.263 . S
C277 O278 1.235 1_565 S
C277 O304 1.289 . S
O278 C277 1.235 1_545 S
C279 C281 1.400 . S
C279 N282 1.351 . S
C279 C284 1.501 . S
C280 C281 1.387 . S
C280 N283 1.341 . S
C281 C279 1.400 . S
C281 C280 1.387 . S
N282 Co273 2.022 . S
N282 C279 1.351 . S
N282 N283 1.365 . S
N283 C280 1.341 . S
N283 N282 1.365 . S
N283 H303 0.862 . S
C284 C279 1.501 . S
C284 H285 0.961 . S
C284 H286 0.961 1_565 S
C284 H287 0.960 . S
H285 C284 0.961 . S
H286 C284 0.961 1_545 S
H287 C284 0.960 . S
C288 N289 1.342 . S
C288 C292 1.401 . S
C288 C293 1.499 . S
N289 Co272 1.989 . S
N289 C288 1.342 . S
N289 N290 1.388 . S
N290 Co273 1.993 . S
N290 N289 1.388 . S
N290 C291 1.346 . S
C291 N290 1.346 . S
C291 C292 1.396 . S
C291 C301 1.510 . S
C292 C288 1.401 . S
C292 C291 1.396 . S
C293 C288 1.499 . S
C293 H294 0.959 . S
C293 H295 0.960 . S
C293 H296 0.961 . S
H294 C293 0.959 . S
H295 C293 0.960 . S
H296 C293 0.961 . S
O297 Co272 1.967 . S
O297 C305 1.258 . S
O298 Co273 1.941 . S
O298 C305 1.266 . S
H299 C301 0.959 . S
H300 C301 0.961 . S
C301 C291 1.510 . S
C301 H299 0.959 . S
C301 H300 0.961 . S
C301 H302 0.960 . S
H302 C301 0.960 . S
H303 N283 0.862 . S
O304 Co272 1.920 . S
O304 C277 1.289 . S
C305 O297 1.258 . S
C305 O298 1.266 . S
Co306 O309 1.970 . S
Co306 N323 1.989 . S
Co306 O331 1.967 . S
Co306 O338 1.920 . S
Co307 O310 1.966 . S
Co307 N316 2.022 . S
Co307 N324 1.993 . S
Co307 O332 1.941 . S
C308 O309 1.258 . S
C308 O310 1.263 . S
O309 Co306 1.970 . S
O309 C308 1.258 . S
O310 Co307 1.966 . S
O310 C308 1.263 . S
C311 O312 1.235 . S
C311 O338 1.289 . S
O312 C311 1.235 . S
C313 C315 1.400 . S
C313 N316 1.351 . S
C313 C318 1.501 . S
C314 C315 1.387 . S
C314 N317 1.341 . S
C315 C313 1.400 . S
C315 C314 1.387 . S
N316 Co307 2.022 . S
N316 C313 1.351 . S
N316 N317 1.365 . S
N317 C314 1.341 . S
N317 N316 1.365 . S
N317 H337 0.862 . S
C318 C313 1.501 . S
C318 H319 0.961 . S
C318 H320 0.961 . S
C318 H321 0.960 . S
H319 C318 0.961 . S
H320 C318 0.961 . S
H321 C318 0.960 . S
C322 N323 1.342 . S
C322 C326 1.401 . S
C322 C327 1.499 . S
N323 Co306 1.989 . S
N323 C322 1.342 . S
N323 N324 1.388 . S
N324 Co307 1.993 . S
N324 N323 1.388 . S
N324 C325 1.346 . S
C325 N324 1.346 . S
C325 C326 1.396 . S
C325 C335 1.510 . S
C326 C322 1.401 . S
C326 C325 1.396 . S
C327 C322 1.499 . S
C327 H328 0.959 . S
C327 H329 0.960 . S
C327 H330 0.961 . S
H328 C327 0.959 . S
H329 C327 0.960 . S
H330 C327 0.961 . S
O331 Co306 1.967 . S
O331 C339 1.258 . S
O332 Co307 1.941 . S
O332 C339 1.266 . S
H333 C335 0.959 . S
H334 C335 0.961 . S
C335 C325 1.510 . S
C335 H333 0.959 . S
C335 H334 0.961 . S
C335 H336 0.960 . S
H336 C335 0.960 . S
H337 N317 0.862 . S
O338 Co306 1.920 . S
O338 C311 1.289 . S
C339 O331 1.258 . S
C339 O332 1.266 . S
Co340 O343 1.970 . S
Co340 N357 1.989 . S
Co340 O365 1.967 . S
Co340 O372 1.920 . S
Co341 O344 1.966 . S
Co341 N350 2.022 . S
Co341 N358 1.993 . S
Co341 O366 1.941 . S
C342 O343 1.258 . S
C342 O344 1.263 . S
O343 Co340 1.970 . S
O343 C342 1.258 . S
O344 Co341 1.966 . S
O344 C342 1.263 . S
C345 O346 1.235 1_455 S
C345 O372 1.289 . S
O346 C345 1.235 1_655 S
C347 C349 1.400 . S
C347 N350 1.351 . S
C347 C352 1.501 . S
C348 C349 1.387 . S
C348 N351 1.341 . S
C349 C347 1.400 . S
C349 C348 1.387 . S
N350 Co341 2.022 . S
N350 C347 1.351 . S
N350 N351 1.365 . S
N351 C348 1.341 . S
N351 N350 1.365 . S
N351 H371 0.862 . S
C352 C347 1.501 . S
C352 H353 0.961 . S
C352 H354 0.961 1_455 S
C352 H355 0.960 . S
H353 C352 0.961 . S
H354 C352 0.961 1_655 S
H355 C352 0.960 . S
C356 N357 1.342 . S
C356 C360 1.401 . S
C356 C361 1.499 . S
N357 Co340 1.989 . S
N357 C356 1.342 . S
N357 N358 1.388 . S
N358 Co341 1.993 . S
N358 N357 1.388 . S
N358 C359 1.346 . S
C359 N358 1.346 . S
C359 C360 1.396 . S
C359 C369 1.510 . S
C360 C356 1.401 . S
C360 C359 1.396 . S
C361 C356 1.499 . S
C361 H362 0.959 . S
C361 H363 0.960 . S
C361 H364 0.961 . S
H362 C361 0.959 . S
H363 C361 0.960 . S
H364 C361 0.961 . S
O365 Co340 1.967 . S
O365 C373 1.258 . S
O366 Co341 1.941 . S
O366 C373 1.266 . S
H367 C369 0.959 . S
H368 C369 0.961 . S
C369 C359 1.510 . S
C369 H367 0.959 . S
C369 H368 0.961 . S
C369 H370 0.960 . S
H370 C369 0.960 . S
H371 N351 0.862 . S
O372 Co340 1.920 . S
O372 C345 1.289 . S
C373 O365 1.258 . S
C373 O366 1.266 . S
Co374 O377 1.970 . S
Co374 N391 1.989 . S
Co374 O399 1.967 . S
Co374 O406 1.920 . S
Co375 O378 1.966 . S
Co375 N384 2.022 . S
Co375 N392 1.993 . S
Co375 O400 1.941 . S
C376 O377 1.258 . S
C376 O378 1.263 . S
O377 Co374 1.970 . S
O377 C376 1.258 . S
O378 Co375 1.966 . S
O378 C376 1.263 . S
C379 O380 1.235 1_545 S
C379 O406 1.289 . S
O380 C379 1.235 1_565 S
C381 C383 1.400 . S
C381 N384 1.351 . S
C381 C386 1.501 . S
C382 C383 1.387 . S
C382 N385 1.341 . S
C383 C381 1.400 . S
C383 C382 1.387 . S
N384 Co375 2.022 . S
N384 C381 1.351 . S
N384 N385 1.365 . S
N385 C382 1.341 . S
N385 N384 1.365 . S
N385 H405 0.862 . S
C386 C381 1.501 . S
C386 H387 0.961 . S
C386 H388 0.961 1_545 S
C386 H389 0.960 . S
H387 C386 0.961 . S
H388 C386 0.961 1_565 S
H389 C386 0.960 . S
C390 N391 1.342 . S
C390 C394 1.401 . S
C390 C395 1.499 . S
N391 Co374 1.989 . S
N391 C390 1.342 . S
N391 N392 1.388 . S
N392 Co375 1.993 . S
N392 N391 1.388 . S
N392 C393 1.346 . S
C393 N392 1.346 . S
C393 C394 1.396 . S
C393 C403 1.510 . S
C394 C390 1.401 . S
C394 C393 1.396 . S
C395 C390 1.499 . S
C395 H396 0.959 . S
C395 H397 0.960 . S
C395 H398 0.961 . S
H396 C395 0.959 . S
H397 C395 0.960 . S
H398 C395 0.961 . S
O399 Co374 1.967 . S
O399 C407 1.258 . S
O400 Co375 1.941 . S
O400 C407 1.266 . S
H401 C403 0.959 . S
H402 C403 0.961 . S
C403 C393 1.510 . S
C403 H401 0.959 . S
C403 H402 0.961 . S
C403 H404 0.960 . S
H404 C403 0.960 . S
H405 N385 0.862 . S
O406 Co374 1.920 . S
O406 C379 1.289 . S
C407 O399 1.258 . S
C407 O400 1.266 . S
H408 C426 0.951 . S
H409 C428 0.951 . S
H410 C430 0.950 . S
H411 C431 0.950 . S
H412 C433 0.950 . S
H413 C436 0.950 . S
H414 C437 0.950 . S
H415 C439 0.950 . S
H416 C440 0.950 . S
H417 C441 0.951 . S
H418 C443 0.951 . S
H419 C445 0.950 . S
H420 C446 0.950 . S
H421 C448 0.950 . S
H422 C451 0.950 . S
H423 C452 0.950 . S
H424 C454 0.950 . S
H425 C455 0.950 . S
C426 H408 0.951 . S
C426 C427 1.366 . S
C426 C428 1.388 . S
C427 C426 1.366 . S
C427 C431 1.385 . S
C428 H409 0.951 . S
C428 C426 1.388 . S
C428 C429 1.366 . S
C429 C428 1.366 . S
C429 C430 1.414 . S
C429 C432 1.499 . S
C430 H410 0.950 . S
C430 C429 1.414 . S
C430 C431 1.374 . S
C431 H411 0.950 . S
C431 C427 1.385 . S
C431 C430 1.374 . S
C432 C429 1.499 . S
C432 C433 1.373 . S
C432 C434 1.389 . S
C433 H412 0.950 . S
C433 C432 1.373 . S
C433 C449 1.377 . S
C434 C432 1.389 . S
C434 C435 1.524 . S
C434 C448 1.377 . S
C435 C434 1.524 . S
C435 C436 1.397 . S
C435 C440 1.363 . S
C436 H413 0.950 . S
C436 C435 1.397 . S
C436 C437 1.334 . S
C437 H414 0.950 . S
C437 C436 1.334 . S
C437 C438 1.287 . S
C438 C437 1.287 . S
C438 C439 1.524 . S
C438 H457 0.913 . S
C439 H415 0.950 . S
C439 C438 1.524 . S
C439 C440 1.415 . S
C440 H416 0.950 . S
C440 C435 1.363 . S
C440 C439 1.415 . S
C441 H417 0.951 . S
C441 C442 1.366 . S
C441 C443 1.388 . S
C442 C441 1.366 . S
C442 C446 1.385 . S
C443 H418 0.951 . S
C443 C441 1.388 . S
C443 C444 1.366 . S
C444 C443 1.366 . S
C444 C445 1.414 . S
C444 C447 1.499 . S
C445 H419 0.950 . S
C445 C444 1.414 . S
C445 C446 1.374 . S
C446 H420 0.950 . S
C446 C442 1.385 . S
C446 C445 1.374 . S
C447 C444 1.499 . S
C447 C448 1.373 . S
C447 C449 1.389 . S
C448 H421 0.950 . S
C448 C434 1.377 . S
C448 C447 1.373 . S
C449 C433 1.377 . S
C449 C447 1.389 . S
C449 C450 1.524 . S
C450 C449 1.524 . S
C450 C451 1.397 . S
C450 C455 1.363 . S
C451 H422 0.950 . S
C451 C450 1.397 . S
C451 C452 1.334 . S
C452 H423 0.950 . S
C452 C451 1.334 . S
C452 C453 1.287 . S
C453 C452 1.287 . S
C453 C454 1.524 . S
C453 H456 0.999 . S
C454 H424 0.950 . S
C454 C453 1.524 . S
C454 C455 1.415 . S
C455 H425 0.950 . S
C455 C450 1.363 . S
C455 C454 1.415 . S
H456 C453 0.999 . S
H457 C438 0.913 . S
H458 C476 0.951 . S
H459 C478 0.951 . S
H460 C480 0.950 . S
H461 C481 0.950 1_655 S
H462 C483 0.950 . S
H463 C486 0.950 . S
H464 C487 0.950 . S
H465 C489 0.950 . S
H466 C490 0.950 . S
H467 C491 0.951 . S
H468 C493 0.951 . S
H469 C495 0.950 . S
H470 C496 0.950 1_455 S
H471 C498 0.950 . S
H472 C501 0.950 . S
H473 C502 0.950 . S
H474 C504 0.950 . S
H475 C505 0.950 . S
C476 H458 0.951 . S
C476 C477 1.366 . S
C476 C478 1.388 . S
C477 C476 1.366 . S
C477 C481 1.385 . S
C478 H459 0.951 . S
C478 C476 1.388 . S
C478 C479 1.366 . S
C479 C478 1.366 . S
C479 C480 1.414 1_455 S
C479 C482 1.499 . S
C480 H460 0.950 . S
C480 C479 1.414 1_655 S
C480 C481 1.374 1_655 S
C481 H461 0.950 1_455 S
C481 C477 1.385 . S
C481 C480 1.374 1_455 S
C482 C479 1.499 . S
C482 C483 1.373 1_455 S
C482 C484 1.389 . S
C483 H462 0.950 . S
C483 C482 1.373 1_655 S
C483 C499 1.377 . S
C484 C482 1.389 . S
C484 C485 1.524 . S
C484 C498 1.377 . S
C485 C484 1.524 . S
C485 C486 1.397 . S
C485 C490 1.363 . S
C486 H463 0.950 . S
C486 C485 1.397 . S
C486 C487 1.334 . S
C487 H464 0.950 . S
C487 C486 1.334 . S
C487 C488 1.287 . S
C488 C487 1.287 . S
C488 C489 1.524 . S
C488 H507 0.913 . S
C489 H465 0.950 . S
C489 C488 1.524 . S
C489 C490 1.415 . S
C490 H466 0.950 . S
C490 C485 1.363 . S
C490 C489 1.415 . S
C491 H467 0.951 . S
C491 C492 1.366 . S
C491 C493 1.388 . S
C492 C491 1.366 . S
C492 C496 1.385 . S
C493 H468 0.951 . S
C493 C491 1.388 . S
C493 C494 1.366 . S
C494 C493 1.366 . S
C494 C495 1.414 1_655 S
C494 C497 1.499 . S
C495 H469 0.950 . S
C495 C494 1.414 1_455 S
C495 C496 1.374 1_455 S
C496 H470 0.950 1_655 S
C496 C492 1.385 . S
C496 C495 1.374 1_655 S
C497 C494 1.499 . S
C497 C498 1.373 1_655 S
C497 C499 1.389 . S
C498 H471 0.950 . S
C498 C484 1.377 . S
C498 C497 1.373 1_455 S
C499 C483 1.377 . S
C499 C497 1.389 . S
C499 C500 1.524 . S
C500 C499 1.524 . S
C500 C501 1.397 . S
C500 C505 1.363 . S
C501 H472 0.950 . S
C501 C500 1.397 . S
C501 C502 1.334 . S
C502 H473 0.950 . S
C502 C501 1.334 . S
C502 C503 1.287 . S
C503 C502 1.287 . S
C503 C504 1.524 . S
C503 H506 0.999 . S
C504 H474 0.950 . S
C504 C503 1.524 . S
C504 C505 1.415 . S
C505 H475 0.950 . S
C505 C500 1.363 . S
C505 C504 1.415 . S
H506 C503 0.999 . S
H507 C488 0.913 . S
H508 C526 0.951 1_565 S
H509 C528 0.959 . S
H510 C530 0.950 . S
H511 C531 0.950 . S
H512 C533 0.950 . S
H513 C536 0.950 . S
H514 C537 0.950 . S
H515 C539 0.950 . S
H516 C540 0.950 . S
H517 C541 0.951 1_545 S
H518 C543 0.959 . S
H519 C545 0.950 . S
H520 C546 0.950 . S
H521 C548 0.950 . S
H522 C551 0.950 . S
H523 C552 0.950 . S
H524 C554 0.950 . S
H525 C555 0.950 . S
C526 H508 0.951 1_545 S
C526 C527 1.366 . S
C526 C528 1.381 1_545 S
C527 C526 1.366 . S
C527 C531 1.385 . S
C528 H509 0.959 . S
C528 C526 1.381 1_565 S
C528 C529 1.364 1_565 S
C529 C528 1.364 1_545 S
C529 C530 1.414 . S
C529 C532 1.499 . S
C530 H510 0.950 . S
C530 C529 1.414 . S
C530 C531 1.374 . S
C531 H511 0.950 . S
C531 C527 1.385 . S
C531 C530 1.374 . S
C532 C529 1.499 . S
C532 C533 1.373 . S
C532 C534 1.389 1_545 S
C533 H512 0.950 . S
C533 C532 1.373 . S
C533 C549 1.377 . S
C534 C532 1.389 1_565 S
C534 C535 1.524 . S
C534 C548 1.377 . S
C535 C534 1.524 . S
C535 C536 1.397 . S
C535 C540 1.363 . S
C536 H513 0.950 . S
C536 C535 1.397 . S
C536 C537 1.334 . S
C537 H514 0.950 . S
C537 C536 1.334 . S
C537 C538 1.287 . S
C538 C537 1.287 . S
C538 C539 1.524 . S
C538 H557 0.913 . S
C539 H515 0.950 . S
C539 C538 1.524 . S
C539 C540 1.415 . S
C540 H516 0.950 . S
C540 C535 1.363 . S
C540 C539 1.415 . S
C541 H517 0.951 1_565 S
C541 C542 1.366 . S
C541 C543 1.381 1_565 S
C542 C541 1.366 . S
C542 C546 1.385 . S
C543 H518 0.959 . S
C543 C541 1.381 1_545 S
C543 C544 1.364 1_545 S
C544 C543 1.364 1_565 S
C544 C545 1.414 . S
C544 C547 1.499 . S
C545 H519 0.950 . S
C545 C544 1.414 . S
C545 C546 1.374 . S
C546 H520 0.950 . S
C546 C542 1.385 . S
C546 C545 1.374 . S
C547 C544 1.499 . S
C547 C548 1.373 . S
C547 C549 1.389 1_565 S
C548 H521 0.950 . S
C548 C534 1.377 . S
C548 C547 1.373 . S
C549 C533 1.377 . S
C549 C547 1.389 1_545 S
C549 C550 1.524 . S
C550 C549 1.524 . S
C550 C551 1.397 . S
C550 C555 1.363 . S
C551 H522 0.950 . S
C551 C550 1.397 . S
C551 C552 1.334 . S
C552 H523 0.950 . S
C552 C551 1.334 . S
C552 C553 1.287 . S
C553 C552 1.287 . S
C553 C554 1.524 . S
C553 H556 0.999 . S
C554 H524 0.950 . S
C554 C553 1.524 . S
C554 C555 1.415 . S
C555 H525 0.950 . S
C555 C550 1.363 . S
C555 C554 1.415 . S
H556 C553 0.999 . S
H557 C538 0.913 . S
H558 C576 0.951 . S
H559 C578 0.951 . S
H560 C580 0.950 . S
H561 C581 0.950 . S
H562 C583 0.950 . S
H563 C586 0.950 . S
H564 C587 0.950 . S
H565 C589 0.950 . S
H566 C590 0.950 . S
H567 C591 0.951 . S
H568 C593 0.951 . S
H569 C595 0.950 . S
H570 C596 0.950 . S
H571 C598 0.950 . S
H572 C601 0.950 . S
H573 C602 0.950 . S
H574 C604 0.950 . S
H575 C605 0.950 . S
C576 H558 0.951 . S
C576 C577 1.366 . S
C576 C578 1.388 . S
C577 C576 1.366 . S
C577 C581 1.385 . S
C578 H559 0.951 . S
C578 C576 1.388 . S
C578 C579 1.366 . S
C579 C578 1.366 . S
C579 C580 1.414 . S
C579 C582 1.499 . S
C580 H560 0.950 . S
C580 C579 1.414 . S
C580 C581 1.374 . S
C581 H561 0.950 . S
C581 C577 1.385 . S
C581 C580 1.374 . S
C582 C579 1.499 . S
C582 C583 1.373 . S
C582 C584 1.389 . S
C583 H562 0.950 . S
C583 C582 1.373 . S
C583 C599 1.377 . S
C584 C582 1.389 . S
C584 C585 1.524 . S
C584 C598 1.377 . S
C585 C584 1.524 . S
C585 C586 1.397 . S
C585 C590 1.363 . S
C586 H563 0.950 . S
C586 C585 1.397 . S
C586 C587 1.334 . S
C587 H564 0.950 . S
C587 C586 1.334 . S
C587 C588 1.287 . S
C588 C587 1.287 . S
C588 C589 1.524 . S
C588 H607 0.913 . S
C589 H565 0.950 . S
C589 C588 1.524 . S
C589 C590 1.415 . S
C590 H566 0.950 . S
C590 C585 1.363 . S
C590 C589 1.415 . S
C591 H567 0.951 . S
C591 C592 1.366 . S
C591 C593 1.388 . S
C592 C591 1.366 . S
C592 C596 1.385 . S
C593 H568 0.951 . S
C593 C591 1.388 . S
C593 C594 1.366 . S
C594 C593 1.366 . S
C594 C595 1.414 . S
C594 C597 1.499 . S
C595 H569 0.950 . S
C595 C594 1.414 . S
C595 C596 1.374 . S
C596 H570 0.950 . S
C596 C592 1.385 . S
C596 C595 1.374 . S
C597 C594 1.499 . S
C597 C598 1.373 . S
C597 C599 1.389 . S
C598 H571 0.950 . S
C598 C584 1.377 . S
C598 C597 1.373 . S
C599 C583 1.377 . S
C599 C597 1.389 . S
C599 C600 1.524 . S
C600 C599 1.524 . S
C600 C601 1.397 . S
C600 C605 1.363 . S
C601 H572 0.950 . S
C601 C600 1.397 . S
C601 C602 1.334 . S
C602 H573 0.950 . S
C602 C601 1.334 . S
C602 C603 1.287 . S
C603 C602 1.287 . S
C603 C604 1.524 . S
C603 H606 0.999 . S
C604 H574 0.950 . S
C604 C603 1.524 . S
C604 C605 1.415 . S
C605 H575 0.950 . S
C605 C600 1.363 . S
C605 C604 1.415 . S
H606 C603 0.999 . S
H607 C588 0.913 . S
H608 C626 0.951 . S
H609 C628 0.951 . S
H610 C630 0.950 1_455 S
H611 C631 0.952 . S
H612 C633 0.950 . S
H613 C636 0.950 . S
H614 C637 0.950 . S
H615 C639 0.950 . S
H616 C640 0.950 . S
H617 C641 0.951 . S
H618 C643 0.951 . S
H619 C645 0.950 1_655 S
H620 C646 0.952 . S
H621 C648 0.950 . S
H622 C651 0.950 . S
H623 C652 0.950 . S
H624 C654 0.950 . S
H625 C655 0.950 . S
C626 H608 0.951 . S
C626 C627 1.366 . S
C626 C628 1.388 . S
C627 C626 1.366 . S
C627 C631 1.385 . S
C628 H609 0.951 . S
C628 C626 1.388 . S
C628 C629 1.366 . S
C629 C628 1.366 . S
C629 C630 1.414 . S
C629 C632 1.499 . S
C630 H610 0.950 1_655 S
C630 C629 1.414 . S
C630 C631 1.374 . S
C631 H611 0.952 . S
C631 C627 1.385 . S
C631 C630 1.374 . S
C632 C629 1.499 . S
C632 C633 1.373 1_655 S
C632 C634 1.389 . S
C633 H612 0.950 . S
C633 C632 1.373 1_455 S
C633 C649 1.377 . S
C634 C632 1.389 . S
C634 C635 1.524 . S
C634 C648 1.377 . S
C635 C634 1.524 . S
C635 C636 1.397 . S
C635 C640 1.363 . S
C636 H613 0.950 . S
C636 C635 1.397 . S
C636 C637 1.334 . S
C637 H614 0.950 . S
C637 C636 1.334 . S
C637 C638 1.287 . S
C638 C637 1.287 . S
C638 C639 1.524 . S
C638 H657 0.913 . S
C639 H615 0.950 . S
C639 C638 1.524 . S
C639 C640 1.415 . S
C640 H616 0.950 . S
C640 C635 1.363 . S
C640 C639 1.415 . S
C641 H617 0.951 . S
C641 C642 1.366 . S
C641 C643 1.388 . S
C642 C641 1.366 . S
C642 C646 1.385 . S
C643 H618 0.951 . S
C643 C641 1.388 . S
C643 C644 1.366 . S
C644 C643 1.366 . S
C644 C645 1.414 . S
C644 C647 1.499 . S
C645 H619 0.950 1_455 S
C645 C644 1.414 . S
C645 C646 1.374 . S
C646 H620 0.952 . S
C646 C642 1.385 . S
C646 C645 1.374 . S
C647 C644 1.499 . S
C647 C648 1.373 1_455 S
C647 C649 1.389 . S
C648 H621 0.950 . S
C648 C634 1.377 . S
C648 C647 1.373 1_655 S
C649 C633 1.377 . S
C649 C647 1.389 . S
C649 C650 1.524 . S
C650 C649 1.524 . S
C650 C651 1.397 . S
C650 C655 1.363 . S
C651 H622 0.950 . S
C651 C650 1.397 . S
C651 C652 1.334 . S
C652 H623 0.950 . S
C652 C651 1.334 . S
C652 C653 1.287 . S
C653 C652 1.287 . S
C653 C654 1.524 . S
C653 H656 0.999 . S
C654 H624 0.950 . S
C654 C653 1.524 . S
C654 C655 1.415 . S
C655 H625 0.950 . S
C655 C650 1.363 . S
C655 C654 1.415 . S
H656 C653 0.999 . S
H657 C638 0.913 . S
H658 C676 0.951 . S
H659 C678 0.951 . S
H660 C680 0.950 . S
H661 C681 0.950 . S
H662 C683 0.950 . S
H663 C686 0.950 . S
H664 C687 0.950 . S
H665 C689 0.950 . S
H666 C690 0.950 . S
H667 C691 0.951 . S
H668 C693 0.951 . S
H669 C695 0.950 . S
H670 C696 0.950 . S
H671 C698 0.950 . S
H672 C701 0.950 . S
H673 C702 0.950 . S
H674 C704 0.950 . S
H675 C705 0.950 . S
C676 H658 0.951 . S
C676 C677 1.366 . S
C676 C678 1.388 . S
C677 C676 1.366 . S
C677 C681 1.385 . S
C678 H659 0.951 . S
C678 C676 1.388 . S
C678 C679 1.366 . S
C679 C678 1.366 . S
C679 C680 1.414 . S
C679 C682 1.499 . S
C680 H660 0.950 . S
C680 C679 1.414 . S
C680 C681 1.374 . S
C681 H661 0.950 . S
C681 C677 1.385 . S
C681 C680 1.374 . S
C682 C679 1.499 . S
C682 C683 1.373 1_565 S
C682 C684 1.389 . S
C683 H662 0.950 . S
C683 C682 1.373 1_545 S
C683 C699 1.377 . S
C684 C682 1.389 . S
C684 C685 1.524 . S
C684 C698 1.377 . S
C685 C684 1.524 . S
C685 C686 1.397 . S
C685 C690 1.363 . S
C686 H663 0.950 . S
C686 C685 1.397 . S
C686 C687 1.334 . S
C687 H664 0.950 . S
C687 C686 1.334 . S
C687 C688 1.287 . S
C688 C687 1.287 . S
C688 C689 1.524 . S
C688 H707 0.913 . S
C689 H665 0.950 . S
C689 C688 1.524 . S
C689 C690 1.415 . S
C690 H666 0.950 . S
C690 C685 1.363 . S
C690 C689 1.415 . S
C691 H667 0.951 . S
C691 C692 1.366 . S
C691 C693 1.388 . S
C692 C691 1.366 . S
C692 C696 1.385 . S
C693 H668 0.951 . S
C693 C691 1.388 . S
C693 C694 1.366 . S
C694 C693 1.366 . S
C694 C695 1.414 . S
C694 C697 1.499 . S
C695 H669 0.950 . S
C695 C694 1.414 . S
C695 C696 1.374 . S
C696 H670 0.950 . S
C696 C692 1.385 . S
C696 C695 1.374 . S
C697 C694 1.499 . S
C697 C698 1.373 1_545 S
C697 C699 1.389 . S
C698 H671 0.950 . S
C698 C684 1.377 . S
C698 C697 1.373 1_565 S
C699 C683 1.377 . S
C699 C697 1.389 . S
C699 C700 1.524 . S
C700 C699 1.524 . S
C700 C701 1.397 . S
C700 C705 1.363 . S
C701 H672 0.950 . S
C701 C700 1.397 . S
C701 C702 1.334 . S
C702 H673 0.950 . S
C702 C701 1.334 . S
C702 C703 1.287 . S
C703 C702 1.287 . S
C703 C704 1.524 . S
C703 H706 0.999 . S
C704 H674 0.950 . S
C704 C703 1.524 . S
C704 C705 1.415 . S
C705 H675 0.950 . S
C705 C700 1.363 . S
C705 C704 1.415 . S
H706 C703 0.999 . S
H707 C688 0.913 . S
H708 C726 0.951 . S
H709 C728 0.951 . S
H710 C730 0.950 . S
H711 C731 0.950 . S
H712 C733 0.950 . S
H713 C736 0.950 . S
H714 C737 0.950 . S
H715 C739 0.950 . S
H716 C740 0.950 . S
H717 C741 0.951 . S
H718 C743 0.951 . S
H719 C745 0.950 . S
H720 C746 0.950 . S
H721 C748 0.950 . S
H722 C751 0.950 . S
H723 C752 0.950 . S
H724 C754 0.950 . S
H725 C755 0.950 . S
C726 H708 0.951 . S
C726 C727 1.366 . S
C726 C728 1.388 . S
C727 C726 1.366 . S
C727 C731 1.385 . S
C728 H709 0.951 . S
C728 C726 1.388 . S
C728 C729 1.366 . S
C729 C728 1.366 . S
C729 C730 1.414 . S
C729 C732 1.499 . S
C730 H710 0.950 . S
C730 C729 1.414 . S
C730 C731 1.374 . S
C731 H711 0.950 . S
C731 C727 1.385 . S
C731 C730 1.374 . S
C732 C729 1.499 . S
C732 C733 1.373 . S
C732 C734 1.389 . S
C733 H712 0.950 . S
C733 C732 1.373 . S
C733 C749 1.377 . S
C734 C732 1.389 . S
C734 C735 1.524 . S
C734 C748 1.377 . S
C735 C734 1.524 . S
C735 C736 1.397 . S
C735 C740 1.363 . S
C736 H713 0.950 . S
C736 C735 1.397 . S
C736 C737 1.334 . S
C737 H714 0.950 . S
C737 C736 1.334 . S
C737 C738 1.287 . S
C738 C737 1.287 . S
C738 C739 1.524 . S
C738 H757 0.913 . S
C739 H715 0.950 . S
C739 C738 1.524 . S
C739 C740 1.415 . S
C740 H716 0.950 . S
C740 C735 1.363 . S
C740 C739 1.415 . S
C741 H717 0.951 . S
C741 C742 1.366 . S
C741 C743 1.388 . S
C742 C741 1.366 . S
C742 C746 1.385 . S
C743 H718 0.951 . S
C743 C741 1.388 . S
C743 C744 1.366 . S
C744 C743 1.366 . S
C744 C745 1.414 . S
C744 C747 1.499 . S
C745 H719 0.950 . S
C745 C744 1.414 . S
C745 C746 1.374 . S
C746 H720 0.950 . S
C746 C742 1.385 . S
C746 C745 1.374 . S
C747 C744 1.499 . S
C747 C748 1.373 . S
C747 C749 1.389 . S
C748 H721 0.950 . S
C748 C734 1.377 . S
C748 C747 1.373 . S
C749 C733 1.377 . S
C749 C747 1.389 . S
C749 C750 1.524 . S
C750 C749 1.524 . S
C750 C751 1.397 . S
C750 C755 1.363 . S
C751 H722 0.950 . S
C751 C750 1.397 . S
C751 C752 1.334 . S
C752 H723 0.950 . S
C752 C751 1.334 . S
C752 C753 1.287 . S
C753 C752 1.287 . S
C753 C754 1.524 . S
C753 H756 0.999 . S
C754 H724 0.950 . S
C754 C753 1.524 . S
C754 C755 1.415 . S
C755 H725 0.950 . S
C755 C750 1.363 . S
C755 C754 1.415 . S
H756 C753 0.999 . S
H757 C738 0.913 . S
H758 C776 0.951 . S
H759 C778 0.951 1_455 S
H760 C780 0.950 . S
H761 C781 0.950 . S
H762 C783 0.950 . S
H763 C786 0.950 1_655 S
H764 C787 0.950 . S
H765 C789 0.950 . S
H766 C790 0.950 . S
H767 C791 0.951 . S
H768 C793 0.951 1_655 S
H769 C795 0.950 . S
H770 C796 0.950 . S
H771 C798 0.950 . S
H772 C801 0.950 1_455 S
H773 C802 0.950 . S
H774 C804 0.950 . S
H775 C805 0.950 . S
C776 H758 0.951 . S
C776 C777 1.366 . S
C776 C778 1.388 . S
C777 C776 1.366 . S
C777 C781 1.385 . S
C778 H759 0.951 1_655 S
C778 C776 1.388 . S
C778 C779 1.366 . S
C779 C778 1.366 . S
C779 C780 1.414 . S
C779 C782 1.499 . S
C780 H760 0.950 . S
C780 C779 1.414 . S
C780 C781 1.374 . S
C781 H761 0.950 . S
C781 C777 1.385 . S
C781 C780 1.374 . S
C782 C779 1.499 . S
C782 C783 1.373 . S
C782 C784 1.389 1_655 S
C783 H762 0.950 . S
C783 C782 1.373 . S
C783 C799 1.377 . S
C784 C782 1.389 1_455 S
C784 C785 1.524 . S
C784 C798 1.377 . S
C785 C784 1.524 . S
C785 C786 1.397 . S
C785 C790 1.363 . S
C786 H763 0.950 1_455 S
C786 C785 1.397 . S
C786 C787 1.334 . S
C787 H764 0.950 . S
C787 C786 1.334 . S
C787 C788 1.287 . S
C788 C787 1.287 . S
C788 C789 1.524 . S
C788 H807 0.913 . S
C789 H765 0.950 . S
C789 C788 1.524 . S
C789 C790 1.415 . S
C790 H766 0.950 . S
C790 C785 1.363 . S
C790 C789 1.415 . S
C791 H767 0.951 . S
C791 C792 1.366 . S
C791 C793 1.388 . S
C792 C791 1.366 . S
C792 C796 1.385 . S
C793 H768 0.951 1_455 S
C793 C791 1.388 . S
C793 C794 1.366 . S
C794 C793 1.366 . S
C794 C795 1.414 . S
C794 C797 1.499 . S
C795 H769 0.950 . S
C795 C794 1.414 . S
C795 C796 1.374 . S
C796 H770 0.950 . S
C796 C792 1.385 . S
C796 C795 1.374 . S
C797 C794 1.499 . S
C797 C798 1.373 . S
C797 C799 1.389 1_455 S
C798 H771 0.950 . S
C798 C784 1.377 . S
C798 C797 1.373 . S
C799 C783 1.377 . S
C799 C797 1.389 1_655 S
C799 C800 1.524 . S
C800 C799 1.524 . S
C800 C801 1.397 . S
C800 C805 1.363 . S
C801 H772 0.950 1_655 S
C801 C800 1.397 . S
C801 C802 1.334 . S
C802 H773 0.950 . S
C802 C801 1.334 . S
C802 C803 1.287 . S
C803 C802 1.287 . S
C803 C804 1.524 . S
C803 H806 0.999 . S
C804 H774 0.950 . S
C804 C803 1.524 . S
C804 C805 1.415 . S
C805 H775 0.950 . S
C805 C800 1.363 . S
C805 C804 1.415 . S
H806 C803 0.999 . S
H807 C788 0.913 . S
H808 C826 0.951 . S
H809 C828 0.951 1_565 S
H810 C830 0.950 . S
H811 C831 0.950 . S
H812 C833 0.950 . S
H813 C836 0.950 . S
H814 C837 0.950 . S
H815 C839 0.950 . S
H816 C840 0.950 . S
H817 C841 0.951 . S
H818 C843 0.951 1_545 S
H819 C845 0.950 . S
H820 C846 0.950 . S
H821 C848 0.950 . S
H822 C851 0.950 . S
H823 C852 0.950 . S
H824 C854 0.950 . S
H825 C855 0.950 . S
C826 H808 0.951 . S
C826 C827 1.366 . S
C826 C828 1.388 . S
C827 C826 1.366 . S
C827 C831 1.385 . S
C828 H809 0.951 1_545 S
C828 C826 1.388 . S
C828 C829 1.366 . S
C829 C828 1.366 . S
C829 C830 1.414 . S
C829 C832 1.499 . S
C830 H810 0.950 . S
C830 C829 1.414 . S
C830 C831 1.374 . S
C831 H811 0.950 . S
C831 C827 1.385 . S
C831 C830 1.374 . S
C832 C829 1.499 . S
C832 C833 1.373 . S
C832 C834 1.389 1_545 S
C833 H812 0.950 . S
C833 C832 1.373 . S
C833 C849 1.377 1_554 S
C834 C832 1.389 1_565 S
C834 C835 1.524 . S
C834 C848 1.377 1_554 S
C835 C834 1.524 . S
C835 C836 1.397 . S
C835 C840 1.363 . S
C836 H813 0.950 . S
C836 C835 1.397 . S
C836 C837 1.334 . S
C837 H814 0.950 . S
C837 C836 1.334 . S
C837 C838 1.287 . S
C838 C837 1.287 . S
C838 C839 1.524 . S
C838 H857 0.913 . S
C839 H815 0.950 . S
C839 C838 1.524 . S
C839 C840 1.415 . S
C840 H816 0.950 . S
C840 C835 1.363 . S
C840 C839 1.415 . S
C841 H817 0.951 . S
C841 C842 1.366 . S
C841 C843 1.388 . S
C842 C841 1.366 . S
C842 C846 1.385 . S
C843 H818 0.951 1_565 S
C843 C841 1.388 . S
C843 C844 1.366 . S
C844 C843 1.366 . S
C844 C845 1.414 . S
C844 C847 1.499 . S
C845 H819 0.950 . S
C845 C844 1.414 . S
C845 C846 1.374 . S
C846 H820 0.950 . S
C846 C842 1.385 . S
C846 C845 1.374 . S
C847 C844 1.499 . S
C847 C848 1.373 . S
C847 C849 1.389 1_565 S
C848 H821 0.950 . S
C848 C834 1.377 1_556 S
C848 C847 1.373 . S
C849 C833 1.377 1_556 S
C849 C847 1.389 1_545 S
C849 C850 1.524 . S
C850 C849 1.524 . S
C850 C851 1.397 . S
C850 C855 1.363 . S
C851 H822 0.950 . S
C851 C850 1.397 . S
C851 C852 1.334 . S
C852 H823 0.950 . S
C852 C851 1.334 . S
C852 C853 1.287 . S
C853 C852 1.287 . S
C853 C854 1.524 . S
C853 H856 0.999 . S
C854 H824 0.950 . S
C854 C853 1.524 . S
C854 C855 1.415 . S
C855 H825 0.950 . S
C855 C850 1.363 . S
C855 C854 1.415 . S
H856 C853 0.999 . S
H857 C838 0.913 . S
H858 C876 0.951 . S
H859 C878 0.951 . S
H860 C880 0.950 . S
H861 C881 0.950 . S
H862 C883 0.950 . S
H863 C886 0.950 . S
H864 C887 0.950 . S
H865 C889 0.950 . S
H866 C890 0.950 . S
H867 C891 0.951 . S
H868 C893 0.951 . S
H869 C895 0.950 . S
H870 C896 0.950 . S
H871 C898 0.950 . S
H872 C901 0.950 . S
H873 C902 0.950 . S
H874 C904 0.950 . S
H875 C905 0.950 . S
C876 H858 0.951 . S
C876 C877 1.366 . S
C876 C878 1.388 . S
C877 C876 1.366 . S
C877 C881 1.385 . S
C878 H859 0.951 . S
C878 C876 1.388 . S
C878 C879 1.366 . S
C879 C878 1.366 . S
C879 C880 1.414 . S
C879 C882 1.499 . S
C880 H860 0.950 . S
C880 C879 1.414 . S
C880 C881 1.374 . S
C881 H861 0.950 . S
C881 C877 1.385 . S
C881 C880 1.374 . S
C882 C879 1.499 . S
C882 C883 1.373 . S
C882 C884 1.389 . S
C883 H862 0.950 . S
C883 C882 1.373 . S
C883 C899 1.377 . S
C884 C882 1.389 . S
C884 C885 1.524 . S
C884 C898 1.377 . S
C885 C884 1.524 . S
C885 C886 1.397 . S
C885 C890 1.363 . S
C886 H863 0.950 . S
C886 C885 1.397 . S
C886 C887 1.334 . S
C887 H864 0.950 . S
C887 C886 1.334 . S
C887 C888 1.287 . S
C888 C887 1.287 . S
C888 C889 1.524 . S
C888 H907 0.913 . S
C889 H865 0.950 . S
C889 C888 1.524 . S
C889 C890 1.415 . S
C890 H866 0.950 . S
C890 C885 1.363 . S
C890 C889 1.415 . S
C891 H867 0.951 . S
C891 C892 1.366 . S
C891 C893 1.388 . S
C892 C891 1.366 . S
C892 C896 1.385 . S
C893 H868 0.951 . S
C893 C891 1.388 . S
C893 C894 1.366 . S
C894 C893 1.366 . S
C894 C895 1.414 . S
C894 C897 1.499 . S
C895 H869 0.950 . S
C895 C894 1.414 . S
C895 C896 1.374 . S
C896 H870 0.950 . S
C896 C892 1.385 . S
C896 C895 1.374 . S
C897 C894 1.499 . S
C897 C898 1.373 . S
C897 C899 1.389 . S
C898 H871 0.950 . S
C898 C884 1.377 . S
C898 C897 1.373 . S
C899 C883 1.377 . S
C899 C897 1.389 . S
C899 C900 1.524 . S
C900 C899 1.524 . S
C900 C901 1.397 . S
C900 C905 1.363 . S
C901 H872 0.950 . S
C901 C900 1.397 . S
C901 C902 1.334 . S
C902 H873 0.950 . S
C902 C901 1.334 . S
C902 C903 1.287 . S
C903 C902 1.287 . S
C903 C904 1.524 . S
C903 H906 0.999 . S
C904 H874 0.950 . S
C904 C903 1.524 . S
C904 C905 1.415 . S
C905 H875 0.950 . S
C905 C900 1.363 . S
C905 C904 1.415 . S
H906 C903 0.999 . S
H907 C888 0.913 . S
H908 C926 0.951 . S
H909 C928 0.951 . S
H910 C930 0.950 1_655 S
H911 C931 0.950 . S
H912 C933 0.950 1_655 S
H913 C936 0.934 1_655 S
H914 C937 0.950 1_655 S
H915 C939 0.950 . S
H916 C940 0.950 . S
H917 C941 0.951 . S
H918 C943 0.951 . S
H919 C945 0.950 1_455 S
H920 C946 0.950 . S
H921 C948 0.950 1_455 S
H922 C951 0.933 1_455 S
H923 C952 0.950 1_455 S
H924 C954 0.950 . S
H925 C955 0.950 . S
C926 H908 0.951 . S
C926 C927 1.366 . S
C926 C928 1.388 . S
C927 C926 1.366 . S
C927 C931 1.385 . S
C928 H909 0.951 . S
C928 C926 1.388 . S
C928 C929 1.366 . S
C929 C928 1.366 . S
C929 C930 1.414 . S
C929 C932 1.499 . S
C930 H910 0.950 1_455 S
C930 C929 1.414 . S
C930 C931 1.374 . S
C931 H911 0.950 . S
C931 C927 1.385 . S
C931 C930 1.374 . S
C932 C929 1.499 . S
C932 C933 1.373 . S
C932 C934 1.389 . S
C933 H912 0.950 1_455 S
C933 C932 1.373 . S
C933 C949 1.376 1_455 S
C934 C932 1.389 . S
C934 C935 1.524 . S
C934 C948 1.376 1_455 S
C935 C934 1.524 . S
C935 C936 1.402 . S
C935 C940 1.363 . S
C936 H913 0.934 1_455 S
C936 C935 1.402 . S
C936 C937 1.345 . S
C937 H914 0.950 1_455 S
C937 C936 1.345 . S
C937 C938 1.287 . S
C938 C937 1.287 . S
C938 C939 1.524 . S
C938 H957 0.913 . S
C939 H915 0.950 . S
C939 C938 1.524 . S
C939 C940 1.415 . S
C940 H916 0.950 . S
C940 C935 1.363 . S
C940 C939 1.415 . S
C941 H917 0.951 . S
C941 C942 1.366 . S
C941 C943 1.388 . S
C942 C941 1.366 . S
C942 C946 1.385 . S
C943 H918 0.951 . S
C943 C941 1.388 . S
C943 C944 1.366 . S
C944 C943 1.366 . S
C944 C945 1.414 . S
C944 C947 1.499 . S
C945 H919 0.950 1_655 S
C945 C944 1.414 . S
C945 C946 1.374 . S
C946 H920 0.950 . S
C946 C942 1.385 . S
C946 C945 1.374 . S
C947 C944 1.499 . S
C947 C948 1.374 . S
C947 C949 1.389 . S
C948 H921 0.950 1_655 S
C948 C934 1.376 1_655 S
C948 C947 1.374 . S
C949 C933 1.376 1_655 S
C949 C947 1.389 . S
C949 C950 1.524 . S
C950 C949 1.524 . S
C950 C951 1.402 . S
C950 C955 1.363 . S
C951 H922 0.933 1_655 S
C951 C950 1.402 . S
C951 C952 1.345 . S
C952 H923 0.950 1_655 S
C952 C951 1.345 . S
C952 C953 1.287 . S
C953 C952 1.287 . S
C953 C954 1.524 . S
C953 H956 0.999 . S
C954 H924 0.950 . S
C954 C953 1.524 . S
C954 C955 1.415 . S
C955 H925 0.950 . S
C955 C950 1.363 . S
C955 C954 1.415 . S
H956 C953 0.999 . S
H957 C938 0.913 . S
H958 C976 0.951 . S
H959 C978 0.948 1_565 S
H960 C980 0.950 . S
H961 C981 0.950 . S
H962 C983 0.950 . S
H963 C986 0.950 . S
H964 C987 0.950 . S
H965 C989 0.950 . S
H966 C990 0.950 1_565 S
H967 C991 0.951 . S
H968 C993 0.948 1_545 S
H969 C995 0.950 . S
H970 C996 0.950 . S
H971 C998 0.950 . S
H972 C1001 0.950 . S
H973 C1002 0.950 . S
H974 C1004 0.950 . S
H975 C1005 0.950 1_545 S
C976 H958 0.951 . S
C976 C977 1.366 . S
C976 C978 1.388 . S
C977 C976 1.366 . S
C977 C981 1.385 . S
C978 H959 0.948 1_545 S
C978 C976 1.388 . S
C978 C979 1.366 . S
C979 C978 1.366 . S
C979 C980 1.414 . S
C979 C982 1.499 . S
C980 H960 0.950 . S
C980 C979 1.414 . S
C980 C981 1.374 . S
C981 H961 0.950 . S
C981 C977 1.385 . S
C981 C980 1.374 . S
C982 C979 1.499 . S
C982 C983 1.373 . S
C982 C984 1.389 . S
C983 H962 0.950 . S
C983 C982 1.373 . S
C983 C999 1.377 1_546 S
C984 C982 1.389 . S
C984 C985 1.524 . S
C984 C998 1.377 1_546 S
C985 C984 1.524 . S
C985 C986 1.397 . S
C985 C990 1.363 . S
C986 H963 0.950 . S
C986 C985 1.397 . S
C986 C987 1.334 . S
C987 H964 0.950 . S
C987 C986 1.334 . S
C987 C988 1.287 . S
C988 C987 1.287 . S
C988 C989 1.524 . S
C988 H1007 0.913 . S
C989 H965 0.950 . S
C989 C988 1.524 . S
C989 C990 1.415 . S
C990 H966 0.950 1_545 S
C990 C985 1.363 . S
C990 C989 1.415 . S
C991 H967 0.951 . S
C991 C992 1.366 . S
C991 C993 1.388 . S
C992 C991 1.366 . S
C992 C996 1.385 . S
C993 H968 0.948 1_565 S
C993 C991 1.388 . S
C993 C994 1.366 . S
C994 C993 1.366 . S
C994 C995 1.414 . S
C994 C997 1.499 . S
C995 H969 0.950 . S
C995 C994 1.414 . S
C995 C996 1.374 . S
C996 H970 0.950 . S
C996 C992 1.385 . S
C996 C995 1.374 . S
C997 C994 1.499 . S
C997 C998 1.373 . S
C997 C999 1.389 . S
C998 H971 0.950 . S
C998 C984 1.377 1_564 S
C998 C997 1.373 . S
C999 C983 1.377 1_564 S
C999 C997 1.389 . S
C999 C1000 1.524 . S
C1000 C999 1.524 . S
C1000 C1001 1.397 . S
C1000 C1005 1.363 . S
C1001 H972 0.950 . S
C1001 C1000 1.397 . S
C1001 C1002 1.334 . S
C1002 H973 0.950 . S
C1002 C1001 1.334 . S
C1002 C1003 1.287 . S
C1003 C1002 1.287 . S
C1003 C1004 1.524 . S
C1003 H1006 0.999 . S
C1004 H974 0.950 . S
C1004 C1003 1.524 . S
C1004 C1005 1.415 . S
C1005 H975 0.950 1_565 S
C1005 C1000 1.363 . S
C1005 C1004 1.415 . S
H1006 C1003 0.999 . S
H1007 C988 0.913 . S
H1008 C1026 0.951 . S
H1009 C1028 0.951 . S
H1010 C1030 0.950 . S
H1011 C1031 0.950 . S
H1012 C1033 0.950 . S
H1013 C1036 0.950 . S
H1014 C1037 0.950 . S
H1015 C1039 0.950 . S
H1016 C1040 0.950 . S
H1017 C1041 0.951 . S
H1018 C1043 0.951 . S
H1019 C1045 0.950 . S
H1020 C1046 0.950 . S
H1021 C1048 0.950 . S
H1022 C1051 0.950 . S
H1023 C1052 0.950 . S
H1024 C1054 0.950 . S
H1025 C1055 0.950 . S
C1026 H1008 0.951 . S
C1026 C1027 1.366 . S
C1026 C1028 1.388 . S
C1027 C1026 1.366 . S
C1027 C1031 1.385 . S
C1028 H1009 0.951 . S
C1028 C1026 1.388 . S
C1028 C1029 1.366 . S
C1029 C1028 1.366 . S
C1029 C1030 1.414 . S
C1029 C1032 1.499 . S
C1030 H1010 0.950 . S
C1030 C1029 1.414 . S
C1030 C1031 1.374 . S
C1031 H1011 0.950 . S
C1031 C1027 1.385 . S
C1031 C1030 1.374 . S
C1032 C1029 1.499 . S
C1032 C1033 1.373 . S
C1032 C1034 1.389 1_455 S
C1033 H1012 0.950 . S
C1033 C1032 1.373 . S
C1033 C1049 1.377 1_545 S
C1034 C1032 1.389 1_655 S
C1034 C1035 1.524 . S
C1034 C1048 1.377 1_545 S
C1035 C1034 1.524 . S
C1035 C1036 1.397 . S
C1035 C1040 1.363 . S
C1036 H1013 0.950 . S
C1036 C1035 1.397 . S
C1036 C1037 1.334 . S
C1037 H1014 0.950 . S
C1037 C1036 1.334 . S
C1037 C1038 1.287 . S
C1038 C1037 1.287 . S
C1038 C1039 1.524 . S
C1038 H1057 0.913 . S
C1039 H1015 0.950 . S
C1039 C1038 1.524 . S
C1039 C1040 1.415 . S
C1040 H1016 0.950 . S
C1040 C1035 1.363 . S
C1040 C1039 1.415 . S
C1041 H1017 0.951 . S
C1041 C1042 1.366 . S
C1041 C1043 1.388 . S
C1042 C1041 1.366 . S
C1042 C1046 1.385 . S
C1043 H1018 0.951 . S
C1043 C1041 1.388 . S
C1043 C1044 1.366 . S
C1044 C1043 1.366 . S
C1044 C1045 1.414 . S
C1044 C1047 1.499 . S
C1045 H1019 0.950 . S
C1045 C1044 1.414 . S
C1045 C1046 1.374 . S
C1046 H1020 0.950 . S
C1046 C1042 1.385 . S
C1046 C1045 1.374 . S
C1047 C1044 1.499 . S
C1047 C1048 1.373 . S
C1047 C1049 1.389 1_655 S
C1048 H1021 0.950 . S
C1048 C1034 1.377 1_565 S
C1048 C1047 1.373 . S
C1049 C1033 1.377 1_565 S
C1049 C1047 1.389 1_455 S
C1049 C1050 1.524 . S
C1050 C1049 1.524 . S
C1050 C1051 1.397 . S
C1050 C1055 1.363 . S
C1051 H1022 0.950 . S
C1051 C1050 1.397 . S
C1051 C1052 1.334 . S
C1052 H1023 0.950 . S
C1052 C1051 1.334 . S
C1052 C1053 1.287 . S
C1053 C1052 1.287 . S
C1053 C1054 1.524 . S
C1053 H1056 0.999 . S
C1054 H1024 0.950 . S
C1054 C1053 1.524 . S
C1054 C1055 1.415 . S
C1055 H1025 0.950 . S
C1055 C1050 1.363 . S
C1055 C1054 1.415 . S
H1056 C1053 0.999 . S
H1057 C1038 0.913 . S
H1058 C1076 0.951 . S
H1059 C1078 0.951 . S
H1060 C1080 0.950 . S
H1061 C1081 0.950 . S
H1062 C1083 0.950 . S
H1063 C1086 0.950 . S
H1064 C1087 0.950 . S
H1065 C1089 0.950 . S
H1066 C1090 0.950 . S
H1067 C1091 0.951 . S
H1068 C1093 0.951 . S
H1069 C1095 0.950 . S
H1070 C1096 0.950 . S
H1071 C1098 0.950 . S
H1072 C1101 0.950 . S
H1073 C1102 0.950 . S
H1074 C1104 0.950 . S
H1075 C1105 0.950 . S
C1076 H1058 0.951 . S
C1076 C1077 1.366 . S
C1076 C1078 1.388 . S
C1077 C1076 1.366 . S
C1077 C1081 1.385 . S
C1078 H1059 0.951 . S
C1078 C1076 1.388 . S
C1078 C1079 1.366 . S
C1079 C1078 1.366 . S
C1079 C1080 1.414 . S
C1079 C1082 1.499 . S
C1080 H1060 0.950 . S
C1080 C1079 1.414 . S
C1080 C1081 1.374 . S
C1081 H1061 0.950 . S
C1081 C1077 1.385 . S
C1081 C1080 1.374 . S
C1082 C1079 1.499 . S
C1082 C1083 1.373 1_545 S
C1082 C1084 1.389 1_655 S
C1083 H1062 0.950 . S
C1083 C1082 1.373 1_565 S
C1083 C1099 1.377 . S
C1084 C1082 1.389 1_455 S
C1084 C1085 1.524 . S
C1084 C1098 1.377 . S
C1085 C1084 1.524 . S
C1085 C1086 1.397 . S
C1085 C1090 1.363 . S
C1086 H1063 0.950 . S
C1086 C1085 1.397 . S
C1086 C1087 1.334 . S
C1087 H1064 0.950 . S
C1087 C1086 1.334 . S
C1087 C1088 1.287 . S
C1088 C1087 1.287 . S
C1088 C1089 1.524 . S
C1088 H1107 0.913 . S
C1089 H1065 0.950 . S
C1089 C1088 1.524 . S
C1089 C1090 1.415 . S
C1090 H1066 0.950 . S
C1090 C1085 1.363 . S
C1090 C1089 1.415 . S
C1091 H1067 0.951 . S
C1091 C1092 1.366 . S
C1091 C1093 1.388 . S
C1092 C1091 1.366 . S
C1092 C1096 1.385 . S
C1093 H1068 0.951 . S
C1093 C1091 1.388 . S
C1093 C1094 1.366 . S
C1094 C1093 1.366 . S
C1094 C1095 1.414 . S
C1094 C1097 1.499 . S
C1095 H1069 0.950 . S
C1095 C1094 1.414 . S
C1095 C1096 1.374 . S
C1096 H1070 0.950 . S
C1096 C1092 1.385 . S
C1096 C1095 1.374 . S
C1097 C1094 1.499 . S
C1097 C1098 1.373 1_565 S
C1097 C1099 1.389 1_455 S
C1098 H1071 0.950 . S
C1098 C1084 1.377 . S
C1098 C1097 1.373 1_545 S
C1099 C1083 1.377 . S
C1099 C1097 1.389 1_655 S
C1099 C1100 1.524 . S
C1100 C1099 1.524 . S
C1100 C1101 1.397 . S
C1100 C1105 1.363 . S
C1101 H1072 0.950 . S
C1101 C1100 1.397 . S
C1101 C1102 1.334 . S
C1102 H1073 0.950 . S
C1102 C1101 1.334 . S
C1102 C1103 1.287 . S
C1103 C1102 1.287 . S
C1103 C1104 1.524 . S
C1103 H1106 0.999 . S
C1104 H1074 0.950 . S
C1104 C1103 1.524 . S
C1104 C1105 1.415 . S
C1105 H1075 0.950 . S
C1105 C1100 1.363 . S
C1105 C1104 1.415 . S
H1106 C1103 0.999 . S
H1107 C1088 0.913 . S
H1108 C1126 0.951 . S
H1109 C1128 0.951 . S
H1110 C1130 0.950 . S
H1111 C1131 0.924 1_565 S
H1112 C1133 0.950 . S
H1113 C1136 0.950 . S
H1114 C1137 0.950 . S
H1115 C1139 0.950 . S
H1116 C1140 0.950 . S
H1117 C1141 0.951 . S
H1118 C1143 0.951 . S
H1119 C1145 0.950 . S
H1120 C1146 0.924 1_545 S
H1121 C1148 0.950 . S
H1122 C1151 0.950 . S
H1123 C1152 0.950 . S
H1124 C1154 0.950 . S
H1125 C1155 0.950 . S
C1126 H1108 0.951 . S
C1126 C1127 1.366 . S
C1126 C1128 1.388 . S
C1127 C1126 1.366 . S
C1127 C1131 1.402 . S
C1128 H1109 0.951 . S
C1128 C1126 1.388 . S
C1128 C1129 1.366 . S
C1129 C1128 1.366 . S
C1129 C1130 1.414 1_545 S
C1129 C1132 1.499 . S
C1130 H1110 0.950 . S
C1130 C1129 1.414 1_565 S
C1130 C1131 1.383 1_565 S
C1131 H1111 0.924 1_545 S
C1131 C1127 1.402 . S
C1131 C1130 1.383 1_545 S
C1132 C1129 1.499 . S
C1132 C1133 1.373 1_545 S
C1132 C1134 1.389 . S
C1133 H1112 0.950 . S
C1133 C1132 1.373 1_565 S
C1133 C1149 1.377 1_455 S
C1134 C1132 1.389 . S
C1134 C1135 1.524 . S
C1134 C1148 1.377 1_455 S
C1135 C1134 1.524 . S
C1135 C1136 1.397 . S
C1135 C1140 1.363 . S
C1136 H1113 0.950 . S
C1136 C1135 1.397 . S
C1136 C1137 1.334 . S
C1137 H1114 0.950 . S
C1137 C1136 1.334 . S
C1137 C1138 1.287 . S
C1138 C1137 1.287 . S
C1138 C1139 1.524 . S
C1138 H1157 0.913 . S
C1139 H1115 0.950 . S
C1139 C1138 1.524 . S
C1139 C1140 1.415 . S
C1140 H1116 0.950 . S
C1140 C1135 1.363 . S
C1140 C1139 1.415 . S
C1141 H1117 0.951 . S
C1141 C1142 1.366 . S
C1141 C1143 1.388 . S
C1142 C1141 1.366 . S
C1142 C1146 1.402 . S
C1143 H1118 0.951 . S
C1143 C1141 1.388 . S
C1143 C1144 1.366 . S
C1144 C1143 1.366 . S
C1144 C1145 1.414 1_565 S
C1144 C1147 1.499 . S
C1145 H1119 0.950 . S
C1145 C1144 1.414 1_545 S
C1145 C1146 1.383 1_545 S
C1146 H1120 0.924 1_565 S
C1146 C1142 1.402 . S
C1146 C1145 1.383 1_565 S
C1147 C1144 1.499 . S
C1147 C1148 1.373 1_565 S
C1147 C1149 1.389 . S
C1148 H1121 0.950 . S
C1148 C1134 1.377 1_655 S
C1148 C1147 1.373 1_545 S
C1149 C1133 1.377 1_655 S
C1149 C1147 1.389 . S
C1149 C1150 1.524 . S
C1150 C1149 1.524 . S
C1150 C1151 1.397 . S
C1150 C1155 1.363 . S
C1151 H1122 0.950 . S
C1151 C1150 1.397 . S
C1151 C1152 1.334 . S
C1152 H1123 0.950 . S
C1152 C1151 1.334 . S
C1152 C1153 1.287 . S
C1153 C1152 1.287 . S
C1153 C1154 1.524 . S
C1153 H1156 0.999 . S
C1154 H1124 0.950 . S
C1154 C1153 1.524 . S
C1154 C1155 1.415 . S
C1155 H1125 0.950 . S
C1155 C1150 1.363 . S
C1155 C1154 1.415 . S
H1156 C1153 0.999 . S
H1157 C1138 0.913 . S
H1158 C1176 0.951 . S
H1159 C1178 0.951 . S
H1160 C1180 0.950 . S
H1161 C1181 0.950 . S
H1162 C1183 0.950 . S
H1163 C1186 0.950 1_565 S
H1164 C1187 0.950 . S
H1165 C1189 0.950 . S
H1166 C1190 0.950 . S
H1167 C1191 0.951 . S
H1168 C1193 0.951 . S
H1169 C1195 0.950 . S
H1170 C1196 0.950 . S
H1171 C1198 0.950 . S
H1172 C1201 0.950 1_545 S
H1173 C1202 0.950 . S
H1174 C1204 0.950 . S
H1175 C1205 0.950 . S
C1176 H1158 0.951 . S
C1176 C1177 1.366 . S
C1176 C1178 1.388 . S
C1177 C1176 1.366 . S
C1177 C1181 1.385 . S
C1178 H1159 0.951 . S
C1178 C1176 1.388 . S
C1178 C1179 1.366 . S
C1179 C1178 1.366 . S
C1179 C1180 1.414 . S
C1179 C1182 1.499 . S
C1180 H1160 0.950 . S
C1180 C1179 1.414 . S
C1180 C1181 1.374 . S
C1181 H1161 0.950 . S
C1181 C1177 1.385 . S
C1181 C1180 1.374 . S
C1182 C1179 1.499 . S
C1182 C1183 1.373 . S
C1182 C1184 1.389 1_565 S
C1183 H1162 0.950 . S
C1183 C1182 1.373 . S
C1183 C1199 1.377 1_655 S
C1184 C1182 1.389 1_545 S
C1184 C1185 1.524 . S
C1184 C1198 1.377 1_655 S
C1185 C1184 1.524 . S
C1185 C1186 1.397 . S
C1185 C1190 1.363 . S
C1186 H1163 0.950 1_545 S
C1186 C1185 1.397 . S
C1186 C1187 1.334 . S
C1187 H1164 0.950 . S
C1187 C1186 1.334 . S
C1187 C1188 1.287 . S
C1188 C1187 1.287 . S
C1188 C1189 1.524 . S
C1188 H1207 0.913 . S
C1189 H1165 0.950 . S
C1189 C1188 1.524 . S
C1189 C1190 1.415 . S
C1190 H1166 0.950 . S
C1190 C1185 1.363 . S
C1190 C1189 1.415 . S
C1191 H1167 0.951 . S
C1191 C1192 1.366 . S
C1191 C1193 1.388 . S
C1192 C1191 1.366 . S
C1192 C1196 1.385 . S
C1193 H1168 0.951 . S
C1193 C1191 1.388 . S
C1193 C1194 1.366 . S
C1194 C1193 1.366 . S
C1194 C1195 1.414 . S
C1194 C1197 1.499 . S
C1195 H1169 0.950 . S
C1195 C1194 1.414 . S
C1195 C1196 1.374 . S
C1196 H1170 0.950 . S
C1196 C1192 1.385 . S
C1196 C1195 1.374 . S
C1197 C1194 1.499 . S
C1197 C1198 1.373 . S
C1197 C1199 1.389 1_545 S
C1198 H1171 0.950 . S
C1198 C1184 1.377 1_455 S
C1198 C1197 1.373 . S
C1199 C1183 1.377 1_455 S
C1199 C1197 1.389 1_565 S
C1199 C1200 1.524 . S
C1200 C1199 1.524 . S
C1200 C1201 1.397 . S
C1200 C1205 1.363 . S
C1201 H1172 0.950 1_565 S
C1201 C1200 1.397 . S
C1201 C1202 1.334 . S
C1202 H1173 0.950 . S
C1202 C1201 1.334 . S
C1202 C1203 1.287 . S
C1203 C1202 1.287 . S
C1203 C1204 1.524 . S
C1203 H1206 0.999 . S
C1204 H1174 0.950 . S
C1204 C1203 1.524 . S
C1204 C1205 1.415 . S
C1205 H1175 0.950 . S
C1205 C1200 1.363 . S
C1205 C1204 1.415 . S
H1206 C1203 0.999 . S
H1207 C1188 0.913 . S
H1208 C1226 0.951 . S
H1209 C1228 0.951 . S
H1210 C1230 0.950 . S
H1211 C1231 0.950 . S
H1212 C1233 0.950 . S
H1213 C1236 0.950 . S
H1214 C1237 0.950 . S
H1215 C1239 0.950 . S
H1216 C1240 0.950 . S
H1217 C1241 0.951 . S
H1218 C1243 0.951 . S
H1219 C1245 0.950 . S
H1220 C1246 0.950 . S
H1221 C1248 0.950 . S
H1222 C1251 0.950 . S
H1223 C1252 0.950 . S
H1224 C1254 0.950 . S
H1225 C1255 0.950 . S
C1226 H1208 0.951 . S
C1226 C1227 1.366 . S
C1226 C1228 1.388 . S
C1227 C1226 1.366 . S
C1227 C1231 1.385 . S
C1228 H1209 0.951 . S
C1228 C1226 1.388 . S
C1228 C1229 1.366 . S
C1229 C1228 1.366 . S
C1229 C1230 1.414 . S
C1229 C1232 1.499 . S
C1230 H1210 0.950 . S
C1230 C1229 1.414 . S
C1230 C1231 1.374 . S
C1231 H1211 0.950 . S
C1231 C1227 1.385 . S
C1231 C1230 1.374 . S
C1232 C1229 1.499 . S
C1232 C1233 1.373 1_655 S
C1232 C1234 1.389 . S
C1233 H1212 0.950 . S
C1233 C1232 1.373 1_455 S
C1233 C1249 1.377 1_565 S
C1234 C1232 1.389 . S
C1234 C1235 1.524 . S
C1234 C1248 1.377 1_565 S
C1235 C1234 1.524 . S
C1235 C1236 1.397 . S
C1235 C1240 1.363 . S
C1236 H1213 0.950 . S
C1236 C1235 1.397 . S
C1236 C1237 1.334 . S
C1237 H1214 0.950 . S
C1237 C1236 1.334 . S
C1237 C1238 1.287 . S
C1238 C1237 1.287 . S
C1238 C1239 1.524 . S
C1238 H1257 0.913 . S
C1239 H1215 0.950 . S
C1239 C1238 1.524 . S
C1239 C1240 1.415 . S
C1240 H1216 0.950 . S
C1240 C1235 1.363 . S
C1240 C1239 1.415 . S
C1241 H1217 0.951 . S
C1241 C1242 1.366 . S
C1241 C1243 1.388 . S
C1242 C1241 1.366 . S
C1242 C1246 1.385 . S
C1243 H1218 0.951 . S
C1243 C1241 1.388 . S
C1243 C1244 1.366 . S
C1244 C1243 1.366 . S
C1244 C1245 1.414 . S
C1244 C1247 1.499 . S
C1245 H1219 0.950 . S
C1245 C1244 1.414 . S
C1245 C1246 1.374 . S
C1246 H1220 0.950 . S
C1246 C1242 1.385 . S
C1246 C1245 1.374 . S
C1247 C1244 1.499 . S
C1247 C1248 1.373 1_455 S
C1247 C1249 1.389 . S
C1248 H1221 0.950 . S
C1248 C1234 1.377 1_545 S
C1248 C1247 1.373 1_655 S
C1249 C1233 1.377 1_545 S
C1249 C1247 1.389 . S
C1249 C1250 1.524 . S
C1250 C1249 1.524 . S
C1250 C1251 1.397 . S
C1250 C1255 1.363 . S
C1251 H1222 0.950 . S
C1251 C1250 1.397 . S
C1251 C1252 1.334 . S
C1252 H1223 0.950 . S
C1252 C1251 1.334 . S
C1252 C1253 1.287 . S
C1253 C1252 1.287 . S
C1253 C1254 1.524 . S
C1253 H1256 0.999 . S
C1254 H1224 0.950 . S
C1254 C1253 1.524 . S
C1254 C1255 1.415 . S
C1255 H1225 0.950 . S
C1255 C1250 1.363 . S
C1255 C1254 1.415 . S
H1256 C1253 0.999 . S
H1257 C1238 0.913 . S
H1258 C1276 0.951 . S
H1259 C1278 0.951 . S
H1260 C1280 0.950 1_565 S
H1261 C1281 0.950 . S
H1262 C1283 0.950 . S
H1263 C1286 0.950 . S
H1264 C1287 0.950 . S
H1265 C1289 0.950 . S
H1266 C1290 0.940 1_445 S
H1267 C1291 0.951 . S
H1268 C1293 0.951 . S
H1269 C1295 0.950 1_545 S
H1270 C1296 0.950 . S
H1271 C1298 0.950 . S
H1272 C1301 0.950 . S
H1273 C1302 0.950 . S
H1274 C1304 0.950 . S
H1275 C1305 0.940 1_665 S
C1276 H1258 0.951 . S
C1276 C1277 1.366 . S
C1276 C1278 1.388 . S
C1277 C1276 1.366 . S
C1277 C1281 1.385 . S
C1278 H1259 0.951 . S
C1278 C1276 1.388 . S
C1278 C1279 1.366 . S
C1279 C1278 1.366 . S
C1279 C1280 1.414 . S
C1279 C1282 1.499 . S
C1280 H1260 0.950 1_545 S
C1280 C1279 1.414 . S
C1280 C1281 1.374 . S
C1281 H1261 0.950 . S
C1281 C1277 1.385 . S
C1281 C1280 1.374 . S
C1282 C1279 1.499 . S
C1282 C1283 1.373 . S
C1282 C1284 1.389 1_545 S
C1283 H1262 0.950 . S
C1283 C1282 1.373 . S
C1283 C1299 1.377 1_655 S
C1284 C1282 1.389 1_565 S
C1284 C1285 1.524 . S
C1284 C1298 1.377 1_655 S
C1285 C1284 1.524 . S
C1285 C1286 1.397 . S
C1285 C1290 1.363 . S
C1286 H1263 0.950 . S
C1286 C1285 1.397 . S
C1286 C1287 1.334 . S
C1287 H1264 0.950 . S
C1287 C1286 1.334 . S
C1287 C1288 1.287 . S
C1288 C1287 1.287 . S
C1288 C1289 1.524 . S
C1288 H1307 0.913 . S
C1289 H1265 0.950 . S
C1289 C1288 1.524 . S
C1289 C1290 1.415 . S
C1290 H1266 0.940 1_665 S
C1290 C1285 1.363 . S
C1290 C1289 1.415 . S
C1291 H1267 0.951 . S
C1291 C1292 1.366 . S
C1291 C1293 1.388 . S
C1292 C1291 1.366 . S
C1292 C1296 1.385 . S
C1293 H1268 0.951 . S
C1293 C1291 1.388 . S
C1293 C1294 1.366 . S
C1294 C1293 1.366 . S
C1294 C1295 1.414 . S
C1294 C1297 1.499 . S
C1295 H1269 0.950 1_565 S
C1295 C1294 1.414 . S
C1295 C1296 1.374 . S
C1296 H1270 0.950 . S
C1296 C1292 1.385 . S
C1296 C1295 1.374 . S
C1297 C1294 1.499 . S
C1297 C1298 1.373 . S
C1297 C1299 1.389 1_565 S
C1298 H1271 0.950 . S
C1298 C1284 1.377 1_455 S
C1298 C1297 1.373 . S
C1299 C1283 1.377 1_455 S
C1299 C1297 1.389 1_545 S
C1299 C1300 1.524 . S
C1300 C1299 1.524 . S
C1300 C1301 1.397 . S
C1300 C1305 1.363 . S
C1301 H1272 0.950 . S
C1301 C1300 1.397 . S
C1301 C1302 1.334 . S
C1302 H1273 0.950 . S
C1302 C1301 1.334 . S
C1302 C1303 1.287 . S
C1303 C1302 1.287 . S
C1303 C1304 1.524 . S
C1303 H1306 0.999 . S
C1304 H1274 0.950 . S
C1304 C1303 1.524 . S
C1304 C1305 1.415 . S
C1305 H1275 0.940 1_445 S
C1305 C1300 1.363 . S
C1305 C1304 1.415 . S
H1306 C1303 0.999 . S
H1307 C1288 0.913 . S
H1308 C1326 0.951 . S
H1309 C1328 0.951 . S
H1310 C1330 0.950 . S
H1311 C1331 0.950 . S
H1312 C1333 0.950 . S
H1313 C1336 0.950 . S
H1314 C1337 0.950 . S
H1315 C1339 0.950 . S
H1316 C1340 0.950 . S
H1317 C1341 0.951 . S
H1318 C1343 0.951 . S
H1319 C1345 0.950 . S
H1320 C1346 0.950 . S
H1321 C1348 0.950 . S
H1322 C1351 0.950 . S
H1323 C1352 0.950 . S
H1324 C1354 0.950 . S
H1325 C1355 0.950 . S
C1326 H1308 0.951 . S
C1326 C1327 1.366 . S
C1326 C1328 1.388 . S
C1327 C1326 1.366 . S
C1327 C1331 1.385 . S
C1328 H1309 0.951 . S
C1328 C1326 1.388 . S
C1328 C1329 1.366 . S
C1329 C1328 1.366 . S
C1329 C1330 1.414 . S
C1329 C1332 1.499 . S
C1330 H1310 0.950 . S
C1330 C1329 1.414 . S
C1330 C1331 1.374 . S
C1331 H1311 0.950 . S
C1331 C1327 1.385 . S
C1331 C1330 1.374 . S
C1332 C1329 1.499 . S
C1332 C1333 1.373 . S
C1332 C1334 1.389 . S
C1333 H1312 0.950 . S
C1333 C1332 1.373 . S
C1333 C1349 1.377 1_655 S
C1334 C1332 1.389 . S
C1334 C1335 1.524 . S
C1334 C1348 1.377 1_655 S
C1335 C1334 1.524 . S
C1335 C1336 1.397 . S
C1335 C1340 1.363 . S
C1336 H1313 0.950 . S
C1336 C1335 1.397 . S
C1336 C1337 1.334 . S
C1337 H1314 0.950 . S
C1337 C1336 1.334 . S
C1337 C1338 1.287 . S
C1338 C1337 1.287 . S
C1338 C1339 1.524 . S
C1338 H1357 0.913 . S
C1339 H1315 0.950 . S
C1339 C1338 1.524 . S
C1339 C1340 1.415 . S
C1340 H1316 0.950 . S
C1340 C1335 1.363 . S
C1340 C1339 1.415 . S
C1341 H1317 0.951 . S
C1341 C1342 1.366 . S
C1341 C1343 1.388 . S
C1342 C1341 1.366 . S
C1342 C1346 1.385 . S
C1343 H1318 0.951 . S
C1343 C1341 1.388 . S
C1343 C1344 1.366 . S
C1344 C1343 1.366 . S
C1344 C1345 1.414 . S
C1344 C1347 1.499 . S
C1345 H1319 0.950 . S
C1345 C1344 1.414 . S
C1345 C1346 1.374 . S
C1346 H1320 0.950 . S
C1346 C1342 1.385 . S
C1346 C1345 1.374 . S
C1347 C1344 1.499 . S
C1347 C1348 1.373 . S
C1347 C1349 1.389 . S
C1348 H1321 0.950 . S
C1348 C1334 1.377 1_455 S
C1348 C1347 1.373 . S
C1349 C1333 1.377 1_455 S
C1349 C1347 1.389 . S
C1349 C1350 1.524 . S
C1350 C1349 1.524 . S
C1350 C1351 1.397 . S
C1350 C1355 1.363 . S
C1351 H1322 0.950 . S
C1351 C1350 1.397 . S
C1351 C1352 1.334 . S
C1352 H1323 0.950 . S
C1352 C1351 1.334 . S
C1352 C1353 1.287 . S
C1353 C1352 1.287 . S
C1353 C1354 1.524 . S
C1353 H1356 0.999 . S
C1354 H1324 0.950 . S
C1354 C1353 1.524 . S
C1354 C1355 1.415 . S
C1355 H1325 0.950 . S
C1355 C1350 1.363 . S
C1355 C1354 1.415 . S
H1356 C1353 0.999 . S
H1357 C1338 0.913 . S
H1358 C1376 0.951 . S
H1359 C1378 0.951 . S
H1360 C1380 0.950 . S
H1361 C1381 0.950 . S
H1362 C1383 0.950 . S
H1363 C1386 0.950 . S
H1364 C1387 0.950 . S
H1365 C1389 0.950 . S
H1366 C1390 0.950 . S
H1367 C1391 0.951 . S
H1368 C1393 0.951 . S
H1369 C1395 0.950 . S
H1370 C1396 0.950 . S
H1371 C1398 0.950 . S
H1372 C1401 0.950 . S
H1373 C1402 0.950 . S
H1374 C1404 0.950 . S
H1375 C1405 0.950 . S
C1376 H1358 0.951 . S
C1376 C1377 1.366 . S
C1376 C1378 1.388 . S
C1377 C1376 1.366 . S
C1377 C1381 1.385 . S
C1378 H1359 0.951 . S
C1378 C1376 1.388 . S
C1378 C1379 1.366 . S
C1379 C1378 1.366 . S
C1379 C1380 1.414 . S
C1379 C1382 1.499 . S
C1380 H1360 0.950 . S
C1380 C1379 1.414 . S
C1380 C1381 1.374 . S
C1381 H1361 0.950 . S
C1381 C1377 1.385 . S
C1381 C1380 1.374 . S
C1382 C1379 1.499 . S
C1382 C1383 1.373 . S
C1382 C1384 1.389 . S
C1383 H1362 0.950 . S
C1383 C1382 1.373 . S
C1383 C1399 1.377 1_545 S
C1384 C1382 1.389 . S
C1384 C1385 1.524 . S
C1384 C1398 1.377 1_545 S
C1385 C1384 1.524 . S
C1385 C1386 1.397 . S
C1385 C1390 1.363 . S
C1386 H1363 0.950 . S
C1386 C1385 1.397 . S
C1386 C1387 1.334 . S
C1387 H1364 0.950 . S
C1387 C1386 1.334 . S
C1387 C1388 1.287 . S
C1388 C1387 1.287 . S
C1388 C1389 1.524 . S
C1388 H1407 0.913 . S
C1389 H1365 0.950 . S
C1389 C1388 1.524 . S
C1389 C1390 1.415 . S
C1390 H1366 0.950 . S
C1390 C1385 1.363 . S
C1390 C1389 1.415 . S
C1391 H1367 0.951 . S
C1391 C1392 1.366 . S
C1391 C1393 1.388 . S
C1392 C1391 1.366 . S
C1392 C1396 1.385 . S
C1393 H1368 0.951 . S
C1393 C1391 1.388 . S
C1393 C1394 1.366 . S
C1394 C1393 1.366 . S
C1394 C1395 1.414 . S
C1394 C1397 1.499 . S
C1395 H1369 0.950 . S
C1395 C1394 1.414 . S
C1395 C1396 1.374 . S
C1396 H1370 0.950 . S
C1396 C1392 1.385 . S
C1396 C1395 1.374 . S
C1397 C1394 1.499 . S
C1397 C1398 1.373 . S
C1397 C1399 1.389 . S
C1398 H1371 0.950 . S
C1398 C1384 1.377 1_565 S
C1398 C1397 1.373 . S
C1399 C1383 1.377 1_565 S
C1399 C1397 1.389 . S
C1399 C1400 1.524 . S
C1400 C1399 1.524 . S
C1400 C1401 1.397 . S
C1400 C1405 1.363 . S
C1401 H1372 0.950 . S
C1401 C1400 1.397 . S
C1401 C1402 1.334 . S
C1402 H1373 0.950 . S
C1402 C1401 1.334 . S
C1402 C1403 1.287 . S
C1403 C1402 1.287 . S
C1403 C1404 1.524 . S
C1403 H1406 0.999 . S
C1404 H1374 0.950 . S
C1404 C1403 1.524 . S
C1404 C1405 1.415 . S
C1405 H1375 0.950 . S
C1405 C1400 1.363 . S
C1405 C1404 1.415 . S
H1406 C1403 0.999 . S
H1407 C1388 0.913 . S
H1408 C1426 0.951 . S
H1409 C1428 0.951 . S
H1410 C1430 0.950 . S
H1411 C1431 0.950 . S
H1412 C1433 0.950 . S
H1413 C1436 0.950 . S
H1414 C1437 0.950 . S
H1415 C1439 0.950 . S
H1416 C1440 0.950 . S
H1417 C1441 0.951 . S
H1418 C1443 0.951 . S
H1419 C1445 0.950 . S
H1420 C1446 0.950 . S
H1421 C1448 0.950 . S
H1422 C1451 0.950 . S
H1423 C1452 0.950 . S
H1424 C1454 0.950 . S
H1425 C1455 0.950 . S
C1426 H1408 0.951 . S
C1426 C1427 1.366 . S
C1426 C1428 1.388 . S
C1427 C1426 1.366 . S
C1427 C1431 1.385 . S
C1428 H1409 0.951 . S
C1428 C1426 1.388 . S
C1428 C1429 1.366 . S
C1429 C1428 1.366 . S
C1429 C1430 1.414 . S
C1429 C1432 1.499 . S
C1430 H1410 0.950 . S
C1430 C1429 1.414 . S
C1430 C1431 1.374 . S
C1431 H1411 0.950 . S
C1431 C1427 1.385 . S
C1431 C1430 1.374 . S
C1432 C1429 1.499 . S
C1432 C1433 1.373 . S
C1432 C1434 1.389 . S
C1433 H1412 0.950 . S
C1433 C1432 1.373 . S
C1433 C1449 1.377 . S
C1434 C1432 1.389 . S
C1434 C1435 1.524 . S
C1434 C1448 1.377 . S
C1435 C1434 1.524 . S
C1435 C1436 1.397 . S
C1435 C1440 1.363 . S
C1436 H1413 0.950 . S
C1436 C1435 1.397 . S
C1436 C1437 1.334 . S
C1437 H1414 0.950 . S
C1437 C1436 1.334 . S
C1437 C1438 1.287 . S
C1438 C1437 1.287 . S
C1438 C1439 1.524 . S
C1438 H1457 0.913 . S
C1439 H1415 0.950 . S
C1439 C1438 1.524 . S
C1439 C1440 1.415 . S
C1440 H1416 0.950 . S
C1440 C1435 1.363 . S
C1440 C1439 1.415 . S
C1441 H1417 0.951 . S
C1441 C1442 1.366 . S
C1441 C1443 1.388 . S
C1442 C1441 1.366 . S
C1442 C1446 1.385 . S
C1443 H1418 0.951 . S
C1443 C1441 1.388 . S
C1443 C1444 1.366 . S
C1444 C1443 1.366 . S
C1444 C1445 1.414 . S
C1444 C1447 1.499 . S
C1445 H1419 0.950 . S
C1445 C1444 1.414 . S
C1445 C1446 1.374 . S
C1446 H1420 0.950 . S
C1446 C1442 1.385 . S
C1446 C1445 1.374 . S
C1447 C1444 1.499 . S
C1447 C1448 1.373 . S
C1447 C1449 1.389 . S
C1448 H1421 0.950 . S
C1448 C1434 1.377 . S
C1448 C1447 1.373 . S
C1449 C1433 1.377 . S
C1449 C1447 1.389 . S
C1449 C1450 1.524 . S
C1450 C1449 1.524 . S
C1450 C1451 1.397 . S
C1450 C1455 1.363 . S
C1451 H1422 0.950 . S
C1451 C1450 1.397 . S
C1451 C1452 1.334 . S
C1452 H1423 0.950 . S
C1452 C1451 1.334 . S
C1452 C1453 1.287 . S
C1453 C1452 1.287 . S
C1453 C1454 1.524 . S
C1453 H1456 0.999 . S
C1454 H1424 0.950 . S
C1454 C1453 1.524 . S
C1454 C1455 1.415 . S
C1455 H1425 0.950 . S
C1455 C1450 1.363 . S
C1455 C1454 1.415 . S
H1456 C1453 0.999 . S
H1457 C1438 0.913 . S
H1458 C1476 0.951 . S
H1459 C1478 0.951 . S
H1460 C1480 0.950 . S
H1461 C1481 0.950 . S
H1462 C1483 0.950 . S
H1463 C1486 0.950 1_455 S
H1464 C1487 0.950 . S
H1465 C1489 0.950 . S
H1466 C1490 0.950 . S
H1467 C1491 0.951 . S
H1468 C1493 0.951 . S
H1469 C1495 0.950 . S
H1470 C1496 0.950 . S
H1471 C1498 0.950 . S
H1472 C1501 0.950 1_655 S
H1473 C1502 0.950 . S
H1474 C1504 0.950 . S
H1475 C1505 0.950 . S
C1476 H1458 0.951 . S
C1476 C1477 1.366 . S
C1476 C1478 1.388 . S
C1477 C1476 1.366 . S
C1477 C1481 1.385 . S
C1478 H1459 0.951 . S
C1478 C1476 1.388 . S
C1478 C1479 1.366 . S
C1479 C1478 1.366 . S
C1479 C1480 1.414 . S
C1479 C1482 1.499 . S
C1480 H1460 0.950 . S
C1480 C1479 1.414 . S
C1480 C1481 1.374 . S
C1481 H1461 0.950 . S
C1481 C1477 1.385 . S
C1481 C1480 1.374 . S
C1482 C1479 1.499 . S
C1482 C1483 1.373 . S
C1482 C1484 1.389 1_455 S
C1483 H1462 0.950 . S
C1483 C1482 1.373 . S
C1483 C1499 1.377 . S
C1484 C1482 1.389 1_655 S
C1484 C1485 1.524 . S
C1484 C1498 1.377 . S
C1485 C1484 1.524 . S
C1485 C1486 1.397 . S
C1485 C1490 1.363 . S
C1486 H1463 0.950 1_655 S
C1486 C1485 1.397 . S
C1486 C1487 1.334 . S
C1487 H1464 0.950 . S
C1487 C1486 1.334 . S
C1487 C1488 1.287 . S
C1488 C1487 1.287 . S
C1488 C1489 1.524 . S
C1488 H1507 0.913 . S
C1489 H1465 0.950 . S
C1489 C1488 1.524 . S
C1489 C1490 1.415 . S
C1490 H1466 0.950 . S
C1490 C1485 1.363 . S
C1490 C1489 1.415 . S
C1491 H1467 0.951 . S
C1491 C1492 1.366 . S
C1491 C1493 1.388 . S
C1492 C1491 1.366 . S
C1492 C1496 1.385 . S
C1493 H1468 0.951 . S
C1493 C1491 1.388 . S
C1493 C1494 1.366 . S
C1494 C1493 1.366 . S
C1494 C1495 1.414 . S
C1494 C1497 1.499 . S
C1495 H1469 0.950 . S
C1495 C1494 1.414 . S
C1495 C1496 1.374 . S
C1496 H1470 0.950 . S
C1496 C1492 1.385 . S
C1496 C1495 1.374 . S
C1497 C1494 1.499 . S
C1497 C1498 1.373 . S
C1497 C1499 1.389 1_655 S
C1498 H1471 0.950 . S
C1498 C1484 1.377 . S
C1498 C1497 1.373 . S
C1499 C1483 1.377 . S
C1499 C1497 1.389 1_455 S
C1499 C1500 1.524 . S
C1500 C1499 1.524 . S
C1500 C1501 1.397 . S
C1500 C1505 1.363 . S
C1501 H1472 0.950 1_455 S
C1501 C1500 1.397 . S
C1501 C1502 1.334 . S
C1502 H1473 0.950 . S
C1502 C1501 1.334 . S
C1502 C1503 1.287 . S
C1503 C1502 1.287 . S
C1503 C1504 1.524 . S
C1503 H1506 0.999 . S
C1504 H1474 0.950 . S
C1504 C1503 1.524 . S
C1504 C1505 1.415 . S
C1505 H1475 0.950 . S
C1505 C1500 1.363 . S
C1505 C1504 1.415 . S
H1506 C1503 0.999 . S
H1507 C1488 0.913 . S
H1508 C1526 0.951 . S
H1509 C1528 0.951 . S
H1510 C1530 0.950 . S
H1511 C1531 0.950 . S
H1512 C1533 0.950 . S
H1513 C1536 0.950 . S
H1514 C1537 0.950 1_565 S
H1515 C1539 0.950 . S
H1516 C1540 0.950 . S
H1517 C1541 0.951 . S
H1518 C1543 0.951 . S
H1519 C1545 0.950 . S
H1520 C1546 0.950 . S
H1521 C1548 0.950 . S
H1522 C1551 0.950 . S
H1523 C1552 0.950 1_545 S
H1524 C1554 0.950 . S
H1525 C1555 0.950 . S
C1526 H1508 0.951 . S
C1526 C1527 1.366 . S
C1526 C1528 1.388 . S
C1527 C1526 1.366 . S
C1527 C1531 1.385 . S
C1528 H1509 0.951 . S
C1528 C1526 1.388 . S
C1528 C1529 1.366 . S
C1529 C1528 1.366 . S
C1529 C1530 1.414 . S
C1529 C1532 1.499 . S
C1530 H1510 0.950 . S
C1530 C1529 1.414 . S
C1530 C1531 1.374 . S
C1531 H1511 0.950 . S
C1531 C1527 1.385 . S
C1531 C1530 1.374 . S
C1532 C1529 1.499 . S
C1532 C1533 1.373 . S
C1532 C1534 1.389 1_565 S
C1533 H1512 0.950 . S
C1533 C1532 1.373 . S
C1533 C1549 1.377 . S
C1534 C1532 1.389 1_545 S
C1534 C1535 1.524 . S
C1534 C1548 1.377 . S
C1535 C1534 1.524 . S
C1535 C1536 1.397 1_545 S
C1535 C1540 1.363 . S
C1536 H1513 0.950 . S
C1536 C1535 1.397 1_565 S
C1536 C1537 1.334 1_565 S
C1537 H1514 0.950 1_545 S
C1537 C1536 1.334 1_545 S
C1537 C1538 1.287 . S
C1538 C1537 1.287 . S
C1538 C1539 1.524 . S
C1538 H1557 0.913 . S
C1539 H1515 0.950 . S
C1539 C1538 1.524 . S
C1539 C1540 1.415 . S
C1540 H1516 0.950 . S
C1540 C1535 1.363 . S
C1540 C1539 1.415 . S
C1541 H1517 0.951 . S
C1541 C1542 1.366 . S
C1541 C1543 1.388 . S
C1542 C1541 1.366 . S
C1542 C1546 1.385 . S
C1543 H1518 0.951 . S
C1543 C1541 1.388 . S
C1543 C1544 1.366 . S
C1544 C1543 1.366 . S
C1544 C1545 1.414 . S
C1544 C1547 1.499 . S
C1545 H1519 0.950 . S
C1545 C1544 1.414 . S
C1545 C1546 1.374 . S
C1546 H1520 0.950 . S
C1546 C1542 1.385 . S
C1546 C1545 1.374 . S
C1547 C1544 1.499 . S
C1547 C1548 1.373 . S
C1547 C1549 1.389 1_545 S
C1548 H1521 0.950 . S
C1548 C1534 1.377 . S
C1548 C1547 1.373 . S
C1549 C1533 1.377 . S
C1549 C1547 1.389 1_565 S
C1549 C1550 1.524 . S
C1550 C1549 1.524 . S
C1550 C1551 1.397 1_565 S
C1550 C1555 1.363 . S
C1551 H1522 0.950 . S
C1551 C1550 1.397 1_545 S
C1551 C1552 1.334 1_545 S
C1552 H1523 0.950 1_565 S
C1552 C1551 1.334 1_565 S
C1552 C1553 1.287 . S
C1553 C1552 1.287 . S
C1553 C1554 1.524 . S
C1553 H1556 0.999 . S
C1554 H1524 0.950 . S
C1554 C1553 1.524 . S
C1554 C1555 1.415 . S
C1555 H1525 0.950 . S
C1555 C1550 1.363 . S
C1555 C1554 1.415 . S
H1556 C1553 0.999 . S
H1557 C1538 0.913 . S
H1558 C1576 0.951 . S
H1559 C1578 0.951 . S
H1560 C1580 0.950 . S
H1561 C1581 0.950 . S
H1562 C1583 0.950 . S
H1563 C1586 0.950 . S
H1564 C1587 0.950 . S
H1565 C1589 0.950 . S
H1566 C1590 0.950 . S
H1567 C1591 0.951 . S
H1568 C1593 0.951 . S
H1569 C1595 0.950 . S
H1570 C1596 0.950 . S
H1571 C1598 0.950 . S
H1572 C1601 0.950 . S
H1573 C1602 0.950 . S
H1574 C1604 0.950 . S
H1575 C1605 0.950 . S
C1576 H1558 0.951 . S
C1576 C1577 1.366 . S
C1576 C1578 1.388 . S
C1577 C1576 1.366 . S
C1577 C1581 1.385 . S
C1578 H1559 0.951 . S
C1578 C1576 1.388 . S
C1578 C1579 1.366 . S
C1579 C1578 1.366 . S
C1579 C1580 1.414 . S
C1579 C1582 1.499 . S
C1580 H1560 0.950 . S
C1580 C1579 1.414 . S
C1580 C1581 1.374 . S
C1581 H1561 0.950 . S
C1581 C1577 1.385 . S
C1581 C1580 1.374 . S
C1582 C1579 1.499 . S
C1582 C1583 1.373 . S
C1582 C1584 1.389 . S
C1583 H1562 0.950 . S
C1583 C1582 1.373 . S
C1583 C1599 1.377 . S
C1584 C1582 1.389 . S
C1584 C1585 1.524 . S
C1584 C1598 1.377 . S
C1585 C1584 1.524 . S
C1585 C1586 1.397 . S
C1585 C1590 1.363 . S
C1586 H1563 0.950 . S
C1586 C1585 1.397 . S
C1586 C1587 1.334 . S
C1587 H1564 0.950 . S
C1587 C1586 1.334 . S
C1587 C1588 1.287 . S
C1588 C1587 1.287 . S
C1588 C1589 1.524 . S
C1588 H1607 0.913 . S
C1589 H1565 0.950 . S
C1589 C1588 1.524 . S
C1589 C1590 1.415 . S
C1590 H1566 0.950 . S
C1590 C1585 1.363 . S
C1590 C1589 1.415 . S
C1591 H1567 0.951 . S
C1591 C1592 1.366 . S
C1591 C1593 1.388 . S
C1592 C1591 1.366 . S
C1592 C1596 1.385 . S
C1593 H1568 0.951 . S
C1593 C1591 1.388 . S
C1593 C1594 1.366 . S
C1594 C1593 1.366 . S
C1594 C1595 1.414 . S
C1594 C1597 1.499 . S
C1595 H1569 0.950 . S
C1595 C1594 1.414 . S
C1595 C1596 1.374 . S
C1596 H1570 0.950 . S
C1596 C1592 1.385 . S
C1596 C1595 1.374 . S
C1597 C1594 1.499 . S
C1597 C1598 1.373 . S
C1597 C1599 1.389 . S
C1598 H1571 0.950 . S
C1598 C1584 1.377 . S
C1598 C1597 1.373 . S
C1599 C1583 1.377 . S
C1599 C1597 1.389 . S
C1599 C1600 1.524 . S
C1600 C1599 1.524 . S
C1600 C1601 1.397 . S
C1600 C1605 1.363 . S
C1601 H1572 0.950 . S
C1601 C1600 1.397 . S
C1601 C1602 1.334 . S
C1602 H1573 0.950 . S
C1602 C1601 1.334 . S
C1602 C1603 1.287 . S
C1603 C1602 1.287 . S
C1603 C1604 1.524 . S
C1603 H1606 0.999 . S
C1604 H1574 0.950 . S
C1604 C1603 1.524 . S
C1604 C1605 1.415 . S
C1605 H1575 0.950 . S
C1605 C1600 1.363 . S
C1605 C1604 1.415 . S
H1606 C1603 0.999 . S
H1607 C1588 0.913 . S
H1608 C1626 0.951 . S
H1609 C1628 0.951 . S
H1610 C1630 0.950 . S
H1611 C1631 0.950 . S
H1612 C1633 0.950 . S
H1613 C1636 0.950 . S
H1614 C1637 0.950 . S
H1615 C1639 0.950 . S
H1616 C1640 0.950 . S
H1617 C1641 0.951 . S
H1618 C1643 0.951 . S
H1619 C1645 0.950 . S
H1620 C1646 0.950 . S
H1621 C1648 0.950 . S
H1622 C1651 0.950 . S
H1623 C1652 0.950 . S
H1624 C1654 0.950 . S
H1625 C1655 0.950 . S
C1626 H1608 0.951 . S
C1626 C1627 1.366 . S
C1626 C1628 1.388 . S
C1627 C1626 1.366 . S
C1627 C1631 1.385 . S
C1628 H1609 0.951 . S
C1628 C1626 1.388 . S
C1628 C1629 1.366 . S
C1629 C1628 1.366 . S
C1629 C1630 1.414 . S
C1629 C1632 1.499 . S
C1630 H1610 0.950 . S
C1630 C1629 1.414 . S
C1630 C1631 1.374 . S
C1631 H1611 0.950 . S
C1631 C1627 1.385 . S
C1631 C1630 1.374 . S
C1632 C1629 1.499 . S
C1632 C1633 1.373 . S
C1632 C1634 1.389 . S
C1633 H1612 0.950 . S
C1633 C1632 1.373 . S
C1633 C1649 1.377 . S
C1634 C1632 1.389 . S
C1634 C1635 1.524 . S
C1634 C1648 1.377 . S
C1635 C1634 1.524 . S
C1635 C1636 1.397 . S
C1635 C1640 1.363 . S
C1636 H1613 0.950 . S
C1636 C1635 1.397 . S
C1636 C1637 1.334 . S
C1637 H1614 0.950 . S
C1637 C1636 1.334 . S
C1637 C1638 1.287 . S
C1638 C1637 1.287 . S
C1638 C1639 1.524 . S
C1638 H1657 0.913 . S
C1639 H1615 0.950 . S
C1639 C1638 1.524 . S
C1639 C1640 1.415 . S
C1640 H1616 0.950 . S
C1640 C1635 1.363 . S
C1640 C1639 1.415 . S
C1641 H1617 0.951 . S
C1641 C1642 1.366 . S
C1641 C1643 1.388 . S
C1642 C1641 1.366 . S
C1642 C1646 1.385 1_545 S
C1643 H1618 0.951 . S
C1643 C1641 1.388 . S
C1643 C1644 1.366 . S
C1644 C1643 1.366 . S
C1644 C1645 1.414 . S
C1644 C1647 1.499 . S
C1645 H1619 0.950 . S
C1645 C1644 1.414 . S
C1645 C1646 1.374 1_545 S
C1646 H1620 0.950 . S
C1646 C1642 1.385 1_565 S
C1646 C1645 1.374 1_565 S
C1647 C1644 1.499 . S
C1647 C1648 1.373 . S
C1647 C1649 1.389 . S
C1648 H1621 0.950 . S
C1648 C1634 1.377 . S
C1648 C1647 1.373 . S
C1649 C1633 1.377 . S
C1649 C1647 1.389 . S
C1649 C1650 1.524 . S
C1650 C1649 1.524 . S
C1650 C1651 1.397 . S
C1650 C1655 1.363 . S
C1651 H1622 0.950 . S
C1651 C1650 1.397 . S
C1651 C1652 1.334 . S
C1652 H1623 0.950 . S
C1652 C1651 1.334 . S
C1652 C1653 1.287 . S
C1653 C1652 1.287 . S
C1653 C1654 1.524 . S
C1653 H1656 0.999 . S
C1654 H1624 0.950 . S
C1654 C1653 1.524 . S
C1654 C1655 1.415 . S
C1655 H1625 0.950 . S
C1655 C1650 1.363 . S
C1655 C1654 1.415 . S
H1656 C1653 0.999 . S
H1657 C1638 0.913 . S
H1658 C1676 0.951 . S
H1659 C1678 0.951 . S
H1660 C1680 0.950 . S
H1661 C1681 0.950 1_655 S
H1662 C1683 0.950 . S
H1663 C1686 0.950 . S
H1664 C1687 0.950 . S
H1665 C1689 0.950 . S
H1666 C1690 0.950 . S
H1667 C1691 0.951 . S
H1668 C1693 0.951 . S
H1669 C1695 0.950 . S
H1670 C1696 0.950 . S
H1671 C1698 0.950 . S
H1672 C1701 0.950 . S
H1673 C1702 0.950 . S
H1674 C1704 0.950 . S
H1675 C1705 0.950 . S
C1676 H1658 0.951 . S
C1676 C1677 1.366 . S
C1676 C1678 1.388 . S
C1677 C1676 1.366 . S
C1677 C1681 1.385 . S
C1678 H1659 0.951 . S
C1678 C1676 1.388 . S
C1678 C1679 1.366 . S
C1679 C1678 1.366 . S
C1679 C1680 1.414 . S
C1679 C1682 1.499 . S
C1680 H1660 0.950 . S
C1680 C1679 1.414 . S
C1680 C1681 1.374 . S
C1681 H1661 0.950 1_455 S
C1681 C1677 1.385 . S
C1681 C1680 1.374 . S
C1682 C1679 1.499 . S
C1682 C1683 1.373 . S
C1682 C1684 1.389 . S
C1683 H1662 0.950 . S
C1683 C1682 1.373 . S
C1683 C1699 1.377 . S
C1684 C1682 1.389 . S
C1684 C1685 1.524 . S
C1684 C1698 1.377 . S
C1685 C1684 1.524 . S
C1685 C1686 1.397 . S
C1685 C1690 1.363 . S
C1686 H1663 0.950 . S
C1686 C1685 1.397 . S
C1686 C1687 1.334 . S
C1687 H1664 0.950 . S
C1687 C1686 1.334 . S
C1687 C1688 1.287 . S
C1688 C1687 1.287 . S
C1688 C1689 1.524 . S
C1688 H1707 0.913 . S
C1689 H1665 0.950 . S
C1689 C1688 1.524 . S
C1689 C1690 1.415 . S
C1690 H1666 0.950 . S
C1690 C1685 1.363 . S
C1690 C1689 1.415 . S
C1691 H1667 0.951 . S
C1691 C1692 1.366 . S
C1691 C1693 1.388 . S
C1692 C1691 1.366 . S
C1692 C1696 1.385 . S
C1693 H1668 0.951 . S
C1693 C1691 1.388 . S
C1693 C1694 1.366 . S
C1694 C1693 1.366 . S
C1694 C1695 1.414 . S
C1694 C1697 1.499 . S
C1695 H1669 0.950 . S
C1695 C1694 1.414 . S
C1695 C1696 1.374 . S
C1696 H1670 0.950 . S
C1696 C1692 1.385 . S
C1696 C1695 1.374 . S
C1697 C1694 1.499 . S
C1697 C1698 1.373 . S
C1697 C1699 1.389 . S
C1698 H1671 0.950 . S
C1698 C1684 1.377 . S
C1698 C1697 1.373 . S
C1699 C1683 1.377 . S
C1699 C1697 1.389 . S
C1699 C1700 1.524 . S
C1700 C1699 1.524 . S
C1700 C1701 1.397 . S
C1700 C1705 1.363 . S
C1701 H1672 0.950 . S
C1701 C1700 1.397 . S
C1701 C1702 1.334 . S
C1702 H1673 0.950 . S
C1702 C1701 1.334 . S
C1702 C1703 1.287 . S
C1703 C1702 1.287 . S
C1703 C1704 1.524 . S
C1703 H1706 0.999 . S
C1704 H1674 0.950 . S
C1704 C1703 1.524 . S
C1704 C1705 1.415 . S
C1705 H1675 0.950 . S
C1705 C1700 1.363 . S
C1705 C1704 1.415 . S
H1706 C1703 0.999 . S
H1707 C1688 0.913 . S
H1708 C1726 0.951 . S
H1709 C1728 0.951 . S
H1710 C1730 0.950 . S
H1711 C1731 0.950 . S
H1712 C1733 0.950 . S
H1713 C1736 0.950 . S
H1714 C1737 0.950 . S
H1715 C1739 0.950 . S
H1716 C1740 0.950 . S
H1717 C1741 0.951 . S
H1718 C1743 0.951 . S
H1719 C1745 0.950 . S
H1720 C1746 0.950 1_565 S
H1721 C1748 0.950 . S
H1722 C1751 0.950 . S
H1723 C1752 0.950 . S
H1724 C1754 0.950 . S
H1725 C1755 0.950 . S
C1726 H1708 0.951 . S
C1726 C1727 1.366 1_455 S
C1726 C1728 1.388 1_455 S
C1727 C1726 1.366 1_655 S
C1727 C1731 1.385 . S
C1728 H1709 0.951 . S
C1728 C1726 1.388 1_655 S
C1728 C1729 1.366 . S
C1729 C1728 1.366 . S
C1729 C1730 1.414 . S
C1729 C1732 1.499 . S
C1730 H1710 0.950 . S
C1730 C1729 1.414 . S
C1730 C1731 1.374 . S
C1731 H1711 0.950 . S
C1731 C1727 1.385 . S
C1731 C1730 1.374 . S
C1732 C1729 1.499 . S
C1732 C1733 1.373 . S
C1732 C1734 1.389 . S
C1733 H1712 0.950 . S
C1733 C1732 1.373 . S
C1733 C1749 1.377 . S
C1734 C1732 1.389 . S
C1734 C1735 1.524 . S
C1734 C1748 1.377 . S
C1735 C1734 1.524 . S
C1735 C1736 1.397 . S
C1735 C1740 1.363 . S
C1736 H1713 0.950 . S
C1736 C1735 1.397 . S
C1736 C1737 1.334 . S
C1737 H1714 0.950 . S
C1737 C1736 1.334 . S
C1737 C1738 1.287 . S
C1738 C1737 1.287 . S
C1738 C1739 1.524 . S
C1738 H1757 0.913 . S
C1739 H1715 0.950 . S
C1739 C1738 1.524 . S
C1739 C1740 1.415 . S
C1740 H1716 0.950 . S
C1740 C1735 1.363 . S
C1740 C1739 1.415 . S
C1741 H1717 0.951 . S
C1741 C1742 1.366 . S
C1741 C1743 1.388 . S
C1742 C1741 1.366 . S
C1742 C1746 1.385 . S
C1743 H1718 0.951 . S
C1743 C1741 1.388 . S
C1743 C1744 1.366 . S
C1744 C1743 1.366 . S
C1744 C1745 1.414 . S
C1744 C1747 1.499 . S
C1745 H1719 0.950 . S
C1745 C1744 1.414 . S
C1745 C1746 1.374 . S
C1746 H1720 0.950 1_545 S
C1746 C1742 1.385 . S
C1746 C1745 1.374 . S
C1747 C1744 1.499 . S
C1747 C1748 1.373 . S
C1747 C1749 1.389 . S
C1748 H1721 0.950 . S
C1748 C1734 1.377 . S
C1748 C1747 1.373 . S
C1749 C1733 1.377 . S
C1749 C1747 1.389 . S
C1749 C1750 1.524 . S
C1750 C1749 1.524 . S
C1750 C1751 1.397 . S
C1750 C1755 1.363 . S
C1751 H1722 0.950 . S
C1751 C1750 1.397 . S
C1751 C1752 1.334 . S
C1752 H1723 0.950 . S
C1752 C1751 1.334 . S
C1752 C1753 1.287 . S
C1753 C1752 1.287 . S
C1753 C1754 1.524 . S
C1753 H1756 0.999 . S
C1754 H1724 0.950 . S
C1754 C1753 1.524 . S
C1754 C1755 1.415 . S
C1755 H1725 0.950 . S
C1755 C1750 1.363 . S
C1755 C1754 1.415 . S
H1756 C1753 0.999 . S
H1757 C1738 0.913 . S
H1758 C1776 0.951 . S
H1759 C1778 0.951 . S
H1760 C1780 0.950 . S
H1761 C1781 0.950 . S
H1762 C1783 0.950 . S
H1763 C1786 0.950 . S
H1764 C1787 0.950 . S
H1765 C1789 0.950 . S
H1766 C1790 0.950 . S
H1767 C1791 0.951 . S
H1768 C1793 0.951 . S
H1769 C1795 0.950 . S
H1770 C1796 0.950 . S
H1771 C1798 0.950 . S
H1772 C1801 0.950 . S
H1773 C1802 0.950 . S
H1774 C1804 0.950 . S
H1775 C1805 0.950 . S
C1776 H1758 0.951 . S
C1776 C1777 1.366 . S
C1776 C1778 1.388 . S
C1777 C1776 1.366 . S
C1777 C1781 1.385 . S
C1778 H1759 0.951 . S
C1778 C1776 1.388 . S
C1778 C1779 1.366 . S
C1779 C1778 1.366 . S
C1779 C1780 1.414 . S
C1779 C1782 1.499 . S
C1780 H1760 0.950 . S
C1780 C1779 1.414 . S
C1780 C1781 1.374 . S
C1781 H1761 0.950 . S
C1781 C1777 1.385 . S
C1781 C1780 1.374 . S
C1782 C1779 1.499 . S
C1782 C1783 1.373 . S
C1782 C1784 1.389 . S
C1783 H1762 0.950 . S
C1783 C1782 1.373 . S
C1783 C1799 1.377 . S
C1784 C1782 1.389 . S
C1784 C1785 1.524 . S
C1784 C1798 1.377 . S
C1785 C1784 1.524 . S
C1785 C1786 1.397 . S
C1785 C1790 1.363 . S
C1786 H1763 0.950 . S
C1786 C1785 1.397 . S
C1786 C1787 1.334 . S
C1787 H1764 0.950 . S
C1787 C1786 1.334 . S
C1787 C1788 1.287 . S
C1788 C1787 1.287 . S
C1788 C1789 1.524 . S
C1788 H1807 0.913 . S
C1789 H1765 0.950 . S
C1789 C1788 1.524 . S
C1789 C1790 1.415 . S
C1790 H1766 0.950 . S
C1790 C1785 1.363 . S
C1790 C1789 1.415 . S
C1791 H1767 0.951 . S
C1791 C1792 1.366 . S
C1791 C1793 1.388 . S
C1792 C1791 1.366 . S
C1792 C1796 1.385 1_565 S
C1793 H1768 0.951 . S
C1793 C1791 1.388 . S
C1793 C1794 1.366 . S
C1794 C1793 1.366 . S
C1794 C1795 1.414 . S
C1794 C1797 1.499 . S
C1795 H1769 0.950 . S
C1795 C1794 1.414 . S
C1795 C1796 1.374 1_565 S
C1796 H1770 0.950 . S
C1796 C1792 1.385 1_545 S
C1796 C1795 1.374 1_545 S
C1797 C1794 1.499 . S
C1797 C1798 1.373 . S
C1797 C1799 1.389 . S
C1798 H1771 0.950 . S
C1798 C1784 1.377 . S
C1798 C1797 1.373 . S
C1799 C1783 1.377 . S
C1799 C1797 1.389 . S
C1799 C1800 1.524 . S
C1800 C1799 1.524 . S
C1800 C1801 1.397 . S
C1800 C1805 1.363 . S
C1801 H1772 0.950 . S
C1801 C1800 1.397 . S
C1801 C1802 1.334 . S
C1802 H1773 0.950 . S
C1802 C1801 1.334 . S
C1802 C1803 1.287 . S
C1803 C1802 1.287 . S
C1803 C1804 1.524 . S
C1803 H1806 0.999 . S
C1804 H1774 0.950 . S
C1804 C1803 1.524 . S
C1804 C1805 1.415 . S
C1805 H1775 0.950 . S
C1805 C1800 1.363 . S
C1805 C1804 1.415 . S
H1806 C1803 0.999 . S
H1807 C1788 0.913 . S
H1808 C1826 0.951 . S
H1809 C1828 0.951 . S
H1810 C1830 0.950 . S
H1811 C1831 0.950 . S
H1812 C1833 0.950 . S
H1813 C1836 0.950 . S
H1814 C1837 0.950 . S
H1815 C1839 0.950 . S
H1816 C1840 0.950 . S
H1817 C1841 0.951 . S
H1818 C1843 0.951 . S
H1819 C1845 0.950 . S
H1820 C1846 0.951 . S
H1821 C1848 0.950 . S
H1822 C1851 0.950 . S
H1823 C1852 0.950 . S
H1824 C1854 0.950 . S
H1825 C1855 0.950 . S
C1826 H1808 0.951 . S
C1826 C1827 1.366 . S
C1826 C1828 1.388 . S
C1827 C1826 1.366 . S
C1827 C1831 1.385 . S
C1828 H1809 0.951 . S
C1828 C1826 1.388 . S
C1828 C1829 1.366 . S
C1829 C1828 1.366 . S
C1829 C1830 1.414 . S
C1829 C1832 1.499 . S
C1830 H1810 0.950 . S
C1830 C1829 1.414 . S
C1830 C1831 1.374 . S
C1831 H1811 0.950 . S
C1831 C1827 1.385 . S
C1831 C1830 1.374 . S
C1832 C1829 1.499 . S
C1832 C1833 1.373 . S
C1832 C1834 1.389 . S
C1833 H1812 0.950 . S
C1833 C1832 1.373 . S
C1833 C1849 1.377 . S
C1834 C1832 1.389 . S
C1834 C1835 1.524 . S
C1834 C1848 1.377 . S
C1835 C1834 1.524 . S
C1835 C1836 1.397 . S
C1835 C1840 1.363 . S
C1836 H1813 0.950 . S
C1836 C1835 1.397 . S
C1836 C1837 1.334 . S
C1837 H1814 0.950 . S
C1837 C1836 1.334 . S
C1837 C1838 1.287 . S
C1838 C1837 1.287 . S
C1838 C1839 1.524 . S
C1838 H1857 0.913 . S
C1839 H1815 0.950 . S
C1839 C1838 1.524 . S
C1839 C1840 1.415 . S
C1840 H1816 0.950 . S
C1840 C1835 1.363 . S
C1840 C1839 1.415 . S
C1841 H1817 0.951 . S
C1841 C1842 1.366 . S
C1841 C1843 1.388 . S
C1842 C1841 1.366 . S
C1842 C1846 1.385 . S
C1843 H1818 0.951 . S
C1843 C1841 1.388 . S
C1843 C1844 1.366 . S
C1844 C1843 1.366 . S
C1844 C1845 1.414 . S
C1844 C1847 1.499 . S
C1845 H1819 0.950 . S
C1845 C1844 1.414 . S
C1845 C1846 1.374 . S
C1846 H1820 0.951 . S
C1846 C1842 1.385 . S
C1846 C1845 1.374 . S
C1847 C1844 1.499 . S
C1847 C1848 1.373 . S
C1847 C1849 1.389 . S
C1848 H1821 0.950 . S
C1848 C1834 1.377 . S
C1848 C1847 1.373 . S
C1849 C1833 1.377 . S
C1849 C1847 1.389 . S
C1849 C1850 1.524 . S
C1850 C1849 1.524 . S
C1850 C1851 1.397 . S
C1850 C1855 1.363 . S
C1851 H1822 0.950 . S
C1851 C1850 1.397 . S
C1851 C1852 1.334 . S
C1852 H1823 0.950 . S
C1852 C1851 1.334 . S
C1852 C1853 1.287 . S
C1853 C1852 1.287 . S
C1853 C1854 1.524 . S
C1853 H1856 0.999 . S
C1854 H1824 0.950 . S
C1854 C1853 1.524 . S
C1854 C1855 1.415 . S
C1855 H1825 0.950 . S
C1855 C1850 1.363 . S
C1855 C1854 1.415 . S
H1856 C1853 0.999 . S
H1857 C1838 0.913 . S
H1858 C1876 0.951 . S
H1859 C1878 0.951 . S
H1860 C1880 0.950 . S
H1861 C1881 0.950 . S
H1862 C1883 0.950 . S
H1863 C1886 0.950 . S
H1864 C1887 0.950 1_545 S
H1865 C1889 0.950 . S
H1866 C1890 0.950 . S
H1867 C1891 0.948 1_655 S
H1868 C1893 0.951 . S
H1869 C1895 0.950 . S
H1870 C1896 0.950 . S
H1871 C1898 0.950 . S
H1872 C1901 0.950 . S
H1873 C1902 0.950 . S
H1874 C1904 0.950 . S
H1875 C1905 0.950 . S
C1876 H1858 0.951 . S
C1876 C1877 1.366 . S
C1876 C1878 1.388 . S
C1877 C1876 1.366 . S
C1877 C1881 1.385 1_565 S
C1878 H1859 0.951 . S
C1878 C1876 1.388 . S
C1878 C1879 1.366 . S
C1879 C1878 1.366 . S
C1879 C1880 1.414 . S
C1879 C1882 1.499 . S
C1880 H1860 0.950 . S
C1880 C1879 1.414 . S
C1880 C1881 1.374 1_565 S
C1881 H1861 0.950 . S
C1881 C1877 1.385 1_545 S
C1881 C1880 1.374 1_545 S
C1882 C1879 1.499 . S
C1882 C1883 1.373 . S
C1882 C1884 1.389 . S
C1883 H1862 0.950 . S
C1883 C1882 1.373 . S
C1883 C1899 1.377 . S
C1884 C1882 1.389 . S
C1884 C1885 1.524 . S
C1884 C1898 1.377 . S
C1885 C1884 1.524 . S
C1885 C1886 1.397 . S
C1885 C1890 1.363 . S
C1886 H1863 0.950 . S
C1886 C1885 1.397 . S
C1886 C1887 1.334 . S
C1887 H1864 0.950 1_565 S
C1887 C1886 1.334 . S
C1887 C1888 1.287 . S
C1888 C1887 1.287 . S
C1888 C1889 1.524 . S
C1888 H1907 0.913 . S
C1889 H1865 0.950 . S
C1889 C1888 1.524 . S
C1889 C1890 1.415 . S
C1890 H1866 0.950 . S
C1890 C1885 1.363 . S
C1890 C1889 1.415 . S
C1891 H1867 0.948 1_455 S
C1891 C1892 1.367 . S
C1891 C1893 1.389 . S
C1892 C1891 1.367 . S
C1892 C1896 1.385 . S
C1893 H1868 0.951 . S
C1893 C1891 1.389 . S
C1893 C1894 1.366 . S
C1894 C1893 1.366 . S
C1894 C1895 1.414 . S
C1894 C1897 1.499 . S
C1895 H1869 0.950 . S
C1895 C1894 1.414 . S
C1895 C1896 1.374 . S
C1896 H1870 0.950 . S
C1896 C1892 1.385 . S
C1896 C1895 1.374 . S
C1897 C1894 1.499 . S
C1897 C1898 1.373 . S
C1897 C1899 1.389 . S
C1898 H1871 0.950 . S
C1898 C1884 1.377 . S
C1898 C1897 1.373 . S
C1899 C1883 1.377 . S
C1899 C1897 1.389 . S
C1899 C1900 1.524 . S
C1900 C1899 1.524 . S
C1900 C1901 1.397 . S
C1900 C1905 1.363 . S
C1901 H1872 0.950 . S
C1901 C1900 1.397 . S
C1901 C1902 1.334 1_455 S
C1902 H1873 0.950 . S
C1902 C1901 1.334 1_655 S
C1902 C1903 1.287 . S
C1903 C1902 1.287 . S
C1903 C1904 1.524 . S
C1903 H1906 0.999 . S
C1904 H1874 0.950 . S
C1904 C1903 1.524 . S
C1904 C1905 1.415 1_655 S
C1905 H1875 0.950 . S
C1905 C1900 1.363 . S
C1905 C1904 1.415 1_455 S
H1906 C1903 0.999 . S
H1907 C1888 0.913 . S
C427 C111 1.412 . S
C442 C9 1.412 . S
C477 C145 1.412 . S
C492 C43 1.412 . S
C527 C179 1.412 . S
C542 C77 1.412 . S
C577 C213 1.412 . S
C592 C315 1.412 . S
C627 C247 1.412 . S
C642 C349 1.412 . S
C677 C281 1.412 . S
C692 C383 1.412 . S
C727 C326 1.918 . S
C742 C20 1.918 . S
C777 C54 1.918 . S
C792 C360 1.918 . S
C827 C394 1.918 . S
C842 C88 1.918 . S
C877 C224 1.918 . S
C892 C122 1.918 . S
C927 C156 1.918 . S
C942 C258 1.918 . S
C977 C190 1.918 . S
C992 C292 1.917 . S
C1027 C5 0.477 . S
C1042 C107 0.476 . S
C1077 C39 0.478 . S
C1092 C141 0.478 . S
C1127 C175 0.476 . S
C1142 C73 0.477 . S
C1177 C209 0.476 . S
C1192 C311 0.477 . S
C1227 C243 0.476 . S
C1242 C345 0.476 . S
C1277 C379 0.477 . S
C1292 C277 0.478 . S
C1327 C407 1.376 . S
C1342 C33 1.377 . S
C1377 C67 1.376 . S
C1392 C237 1.377 . S
C1427 C271 1.377 . S
C1442 C101 1.377 . S
C1477 C305 1.377 . S
C1492 C135 1.377 . S
C1527 C169 1.377 . S
C1542 C339 1.376 . S
C1577 C203 1.376 . S
C1592 C373 1.377 . S
C1627 C2 0.791 . S
C1642 C274 0.792 1_545 S
C1677 C36 0.791 1_455 S
C1692 C308 0.792 . S
C1727 C342 0.792 1_655 S
C1742 C70 0.791 1_545 S
C1777 C104 0.791 . S
C1792 C376 0.792 1_565 S
C1827 C206 0.792 . S
C1842 C138 0.791 1_655 S
C1877 C172 0.791 1_565 S
C1892 C240 0.791 1_455 S
