# Generated by pormake.
# Topology pts-e, (5)-cn, num edge types: 1
# Building blocks:
#     Node 0, Type 0, BuildingBlock: BEQFEK_clean_sbu_0, # of connection points: 5
#     Node 1, Type 0, BuildingBlock: BEQFEK_clean_sbu_0, # of connection points: 5
#     Node 2, Type 0, BuildingBlock: BEQFEK_clean_sbu_0, # of connection points: 5
#     Node 3, Type 0, BuildingBlock: BEQFEK_clean_sbu_0, # of connection points: 5
#     Node 4, Type 0, BuildingBlock: BEQFEK_clean_sbu_0, # of connection points: 5
#     Node 5, Type 0, BuildingBlock: BEQFEK_clean_sbu_0, # of connection points: 5
#     Node 6, Type 0, BuildingBlock: BEQFEK_clean_sbu_0, # of connection points: 5
#     Node 7, Type 0, BuildingBlock: BEQFEK_clean_sbu_0, # of connection points: 5
#     Edge 8, Type (0, 0), BuildingBlock: UVAHIK_clean_linker_0, # of connection points: 2
#     Edge 9, Type (0, 0), BuildingBlock: UVAHIK_clean_linker_0, # of connection points: 2
#     Edge 10, Type (0, 0), BuildingBlock: UVAHIK_clean_linker_0, # of connection points: 2
#     Edge 11, Type (0, 0), BuildingBlock: UVAHIK_clean_linker_0, # of connection points: 2
#     Edge 12, Type (0, 0), BuildingBlock: UVAHIK_clean_linker_0, # of connection points: 2
#     Edge 13, Type (0, 0), BuildingBlock: UVAHIK_clean_linker_0, # of connection points: 2
#     Edge 14, Type (0, 0), BuildingBlock: UVAHIK_clean_linker_0, # of connection points: 2
#     Edge 15, Type (0, 0), BuildingBlock: UVAHIK_clean_linker_0, # of connection points: 2
#     Edge 16, Type (0, 0), BuildingBlock: UVAHIK_clean_linker_0, # of connection points: 2
#     Edge 17, Type (0, 0), BuildingBlock: UVAHIK_clean_linker_0, # of connection points: 2
#     Edge 18, Type (0, 0), BuildingBlock: UVAHIK_clean_linker_0, # of connection points: 2
#     Edge 19, Type (0, 0), BuildingBlock: UVAHIK_clean_linker_0, # of connection points: 2
#     Edge 20, Type (0, 0), BuildingBlock: UVAHIK_clean_linker_0, # of connection points: 2
#     Edge 21, Type (0, 0), BuildingBlock: UVAHIK_clean_linker_0, # of connection points: 2
#     Edge 22, Type (0, 0), BuildingBlock: UVAHIK_clean_linker_0, # of connection points: 2
#     Edge 23, Type (0, 0), BuildingBlock: UVAHIK_clean_linker_0, # of connection points: 2
#     Edge 24, Type (0, 0), BuildingBlock: UVAHIK_clean_linker_0, # of connection points: 2
#     Edge 25, Type (0, 0), BuildingBlock: UVAHIK_clean_linker_0, # of connection points: 2
#     Edge 26, Type (0, 0), BuildingBlock: UVAHIK_clean_linker_0, # of connection points: 2
#     Edge 27, Type (0, 0), BuildingBlock: UVAHIK_clean_linker_0, # of connection points: 2
# Relax obj value: 0.370
# Max RMSD: 0.219
# Mean RMSD: 0.219
data_MOF--net-pts-e--node1-BEQFEK_clean_sbu_0--edge1-UVAHIK_clean_linker_0
_symmetry_space_group_name_H-M    P1
_symmetry_Int_Tables_number       1
_symmetry_cell_setting            triclinic
loop_
_symmetry_equiv_pos_as_xyz
'x, y, z'
_cell_length_a     44.071323
_cell_length_b     44.091301
_cell_length_c     65.839969
_cell_angle_alpha  90.00179
_cell_angle_beta   90.012825
_cell_angle_gamma 89.970439
loop_
_atom_site_label
_atom_site_type_symbol
_atom_site_fract_x
_atom_site_fract_y
_atom_site_fract_z
_atom_type_partial_charge
Co0 Co 0.20433 0.03752 0.15064 0.0
Co1 Co 0.2654 0.02591 0.17333 0.0
C2 C 0.23042 0.08427 0.17839 0.0
O3 O 0.20988 0.07551 0.16607 0.0
O4 O 0.25334 0.06759 0.18245 0.0
C5 C 0.14786 0.05898 0.13253 0.0
O6 O 0.14775 0.08053 0.14631 0.0
C7 C 0.3298 0.03138 0.186 0.0
C8 C 0.33951 0.9836 0.19389 0.0
C9 C 0.35275 0.012 0.19253 0.0
N10 N 0.30441 0.01491 0.18333 0.0
N11 N 0.31037 0.98647 0.18825 0.0
C12 C 0.33147 0.06502 0.18313 0.0
H13 H 0.33781 0.07013 0.16719 0.0
H14 H 0.34869 0.07514 0.19339 0.0
H15 H 0.30917 0.07561 0.18614 0.0
C16 C 0.24307 0.02717 0.115 0.0
N17 N 0.23909 0.02833 0.13524 0.0
N18 N 0.26502 0.02281 0.14439 0.0
C19 C 0.2864 0.01747 0.13008 0.0
C20 C 0.27315 0.02037 0.11101 0.0
C21 C 0.21822 0.03196 0.09983 0.0
H22 H 0.20011 0.01497 0.10248 0.0
H23 H 0.20824 0.05485 0.10199 0.0
H24 H 0.22637 0.02963 0.08397 0.0
O25 O 0.19371 0.00488 0.17001 0.0
O26 O 0.23688 -0.00329 0.18626 0.0
H27 H 0.33176 0.00524 0.12049 0.0
H28 H 0.3295 0.03135 0.14151 0.0
C29 C 0.31905 0.01105 0.1345 0.0
H30 H 0.32077 0.99205 0.14547 0.0
H31 H 0.29459 0.96887 0.18742 0.0
O32 O 0.16959 0.04014 0.13207 0.0
C33 C 0.20888 0.99099 0.18357 0.0
Co34 Co 0.98449 0.20237 0.65192 0.0
Co35 Co -0.00069 0.26343 0.67335 0.0
C36 C 0.93972 0.23222 0.67987 0.0
O37 O 0.94752 0.21077 0.66796 0.0
O38 O 0.95726 0.25473 0.68324 0.0
C39 C 0.96034 0.14555 0.63621 0.0
O40 O 0.94164 0.1456 0.65175 0.0
C41 C -0.00185 0.32798 0.68482 0.0
C42 C 0.04677 0.33554 0.69144 0.0
C43 C 0.01899 0.35012 0.69033 0.0
N44 N 0.01311 0.30162 0.68269 0.0
N45 N 0.04205 0.30622 0.68694 0.0
C46 C 0.96529 0.33211 0.67982 0.0
H47 H 0.95723 0.31346 0.66987 0.0
H48 H 0.9615 0.35429 0.67226 0.0
H49 H 0.9519 0.33168 0.69408 0.0
C50 C -0.00387 0.23911 0.61545 0.0
N51 N 0.99503 0.23599 0.63575 0.0
N52 N 0.00158 0.26204 0.6444 0.0
C53 C 0.00743 0.28265 0.62968 0.0
C54 C 0.00386 0.26878 0.61087 0.0
C55 C 0.99064 0.21378 0.60076 0.0
H56 H 0.00647 0.19491 0.6042 0.0
H57 H 0.96712 0.20525 0.60265 0.0
H58 H 0.99414 0.22092 0.58479 0.0
O59 O 0.01742 0.19035 0.67081 0.0
O60 O 0.02713 0.23374 0.68635 0.0
H61 H 0.02067 0.32732 0.61925 0.0
H62 H 0.99487 0.32654 0.64047 0.0
C63 C 0.01478 0.31527 0.6335 0.0
H64 H 0.03403 0.31688 0.64429 0.0
H65 H 0.05875 0.28948 0.68612 0.0
O66 O 0.97866 0.16743 0.63389 0.0
C67 C 0.03198 0.20551 0.68404 0.0
Co68 Co 0.81846 0.97886 0.15523 0.0
Co69 Co 0.76046 0.00529 0.17555 0.0
C70 C 0.78363 0.94252 0.1853 0.0
O71 O 0.80488 0.94486 0.17228 0.0
O72 O 0.76494 0.96418 0.18848 0.0
C73 C 0.87372 0.94871 0.14286 0.0
O74 O 0.87352 0.93627 0.16099 0.0
C75 C 0.69642 0.01198 0.18702 0.0
C76 C 0.69311 0.06173 0.19071 0.0
C77 C 0.67623 0.03527 0.19136 0.0
N78 N 0.72392 0.02422 0.18392 0.0
N79 N 0.72187 0.05389 0.18638 0.0
C80 C 0.68942 0.97911 0.18389 0.0
H81 H 0.70683 0.96842 0.17403 0.0
H82 H 0.66661 0.97628 0.17698 0.0
H83 H 0.6896 0.96742 0.19881 0.0
C84 C 0.78384 0.99221 0.11808 0.0
N85 N 0.78665 0.99241 0.13842 0.0
N86 N 0.76174 0.00334 0.14659 0.0
C87 C 0.74222 0.01075 0.13153 0.0
C88 C 0.75554 0.00363 0.11298 0.0
C89 C 0.80851 0.98255 0.10384 0.0
H90 H 0.82936 -0.00433 0.10724 0.0
H91 H 0.81356 0.95816 0.10627 0.0
H92 H 0.80235 0.98633 0.08771 0.0
O93 O 0.83482 0.01138 0.17315 0.0
O94 O 0.79316 0.03152 0.18628 0.0
H95 H 0.71268 0.04442 0.14401 0.0
H96 H 0.6995 0.02841 0.12028 0.0
C97 C 0.71111 0.02338 0.13484 0.0
H98 H 0.69737 0.00673 0.14344 0.0
H99 H 0.73997 0.06889 0.18452 0.0
O100 O 0.85219 0.96619 0.13773 0.0
C101 C 0.82188 0.03081 0.18453 0.0
Co102 Co 0.04907 0.81632 0.65566 0.0
Co103 Co 0.0205 0.75935 0.67597 0.0
C104 C 0.08327 0.78351 0.68687 0.0
O105 O 0.08308 0.80359 0.67298 0.0
O106 O 0.06056 0.76612 0.68991 0.0
C107 C 0.07621 0.87303 0.64356 0.0
O108 O 0.08758 0.87376 0.662 0.0
C109 C 0.01618 0.69469 0.68662 0.0
C110 C 0.96695 0.69005 0.69228 0.0
C111 C 0.99376 0.67368 0.69137 0.0
N112 N 0.00302 0.72199 0.68442 0.0
N113 N 0.97367 0.71911 0.68802 0.0
C114 C 0.04964 0.68935 0.68478 0.0
H115 H 0.06244 0.70991 0.68912 0.0
H116 H 0.05532 0.68398 0.66877 0.0
H117 H 0.05692 0.6702 0.69457 0.0
C118 C 0.03708 0.78094 0.61861 0.0
N119 N 0.03621 0.78415 0.63892 0.0
N120 N 0.0238 0.75997 0.64708 0.0
C121 C 0.01578 0.74069 0.63203 0.0
C122 C 0.02429 0.75326 0.61351 0.0
C123 C 0.04817 0.80498 0.60437 0.0
H124 H 0.072 0.8108 0.60815 0.0
H125 H 0.04676 0.79788 0.58825 0.0
H126 H 0.03415 0.82565 0.6064 0.0
O127 O 0.01601 0.83239 0.67346 0.0
O128 O 0.99298 0.79158 0.68563 0.0
H129 H 0.98027 0.71397 0.6451 0.0
H130 H 0.99352 0.70024 0.62073 0.0
C131 C 0.00047 0.71081 0.63529 0.0
H132 H 0.0163 0.69524 0.64317 0.0
H133 H 0.9581 0.73691 0.68716 0.0
O134 O 0.06076 0.85023 0.63805 0.0
C135 C 0.99517 0.82024 0.68412 0.0
Co136 Co 0.21086 0.98423 0.85837 0.0
Co137 Co 0.26982 0.00677 0.83706 0.0
C138 C 0.24125 0.94555 0.828 0.0
O139 O 0.2208 0.94863 0.84151 0.0
O140 O 0.26077 0.9663 0.82451 0.0
C141 C 0.15401 0.95907 0.87258 0.0
O142 O 0.15336 0.94391 0.8554 0.0
C143 C 0.33452 0.00738 0.82551 0.0
C144 C 0.34131 0.05627 0.81957 0.0
C145 C 0.3564 0.02873 0.8203 0.0
N146 N 0.30795 0.02187 0.82809 0.0
N147 N 0.31213 0.05101 0.82433 0.0
C148 C 0.33829 0.97373 0.8273 0.0
H149 H 0.31697 0.96196 0.8233 0.0
H150 H 0.344 0.96781 0.84322 0.0
H151 H 0.35672 0.96553 0.8172 0.0
C152 C 0.24814 0.99381 0.89483 0.0
N153 N 0.24428 0.99509 0.87459 0.0
N154 N 0.26926 0.00519 0.86604 0.0
C155 C 0.28971 0.01133 0.88081 0.0
C156 C 0.27697 0.00404 0.89947 0.0
C157 C 0.22442 0.98318 0.90946 0.0
H158 H 0.20482 -0.00107 0.90887 0.0
H159 H 0.21637 0.96033 0.9049 0.0
H160 H 0.23306 0.98231 0.92528 0.0
O161 O 0.1969 0.01793 0.84036 0.0
O162 O 0.23917 0.0353 0.82644 0.0
H163 H 0.31984 0.04317 0.86685 0.0
H164 H 0.33202 0.03018 0.89164 0.0
C165 C 0.32095 0.02338 0.8772 0.0
H166 H 0.33491 0.0056 0.86984 0.0
H167 H 0.29514 0.06742 0.8254 0.0
O168 O 0.17655 0.97592 0.87651 0.0
C169 C 0.21052 0.03638 0.8286 0.0
Co170 Co 0.04612 0.20719 0.35827 0.0
Co171 Co 0.02462 0.26626 0.33654 0.0
C172 C 0.08584 0.23734 0.32809 0.0
O173 O 0.08148 0.21667 0.3413 0.0
O174 O 0.06589 0.25778 0.32473 0.0
C175 C 0.07272 0.15137 0.37352 0.0
O176 O 0.08934 0.15114 0.35696 0.0
C177 C 0.02346 0.33092 0.32483 0.0
C178 C 0.9745 0.33721 0.3188 0.0
C179 C 0.00186 0.35259 0.31962 0.0
N180 N 0.00926 0.3042 0.32736 0.0
N181 N 0.98009 0.30808 0.32352 0.0
C182 C 0.05708 0.33504 0.32668 0.0
H183 H 0.0691 0.31401 0.32232 0.0
H184 H 0.06294 0.3402 0.3427 0.0
H185 H 0.06505 0.35391 0.31689 0.0
C186 C 0.0354 0.2446 0.39452 0.0
N187 N 0.03492 0.24077 0.37425 0.0
N188 N 0.02523 0.26579 0.36553 0.0
C189 C 0.01862 0.28626 0.3802 0.0
C190 C 0.0251 0.27346 0.39898 0.0
C191 C 0.0453 0.22083 0.40934 0.0
H192 H 0.02954 0.20128 0.40839 0.0
H193 H 0.06835 0.21275 0.40527 0.0
H194 H 0.04544 0.22945 0.42517 0.0
O195 O 0.01309 0.19307 0.34006 0.0
O196 O -0.00354 0.23522 0.32553 0.0
H197 H 0.98709 0.31642 0.36594 0.0
H198 H -0.00018 0.32874 0.39077 0.0
C199 C 0.00676 0.31752 0.37641 0.0
H200 H 0.0247 0.33131 0.36909 0.0
H201 H 0.96385 0.29093 0.32457 0.0
O202 O 0.05447 0.17312 0.37659 0.0
C203 C 0.99521 0.20662 0.3279 0.0
Co204 Co 0.82498 0.04681 0.85976 0.0
Co205 Co 0.76559 0.02618 0.83831 0.0
C206 C 0.79329 0.08765 0.83055 0.0
O207 O 0.81462 0.08248 0.84317 0.0
O208 O 0.77253 0.06804 0.8272 0.0
C209 C 0.88096 0.07346 0.87474 0.0
O210 O 0.88092 0.09012 0.8582 0.0
C211 C 0.70133 0.02435 0.82663 0.0
C212 C 0.69552 0.97543 0.8203 0.0
C213 C 0.67999 0.00271 0.82111 0.0
N214 N 0.72816 0.01037 0.829 0.0
N215 N 0.72463 0.98123 0.82496 0.0
C216 C 0.69603 0.0571 0.83143 0.0
H217 H 0.71413 0.06581 0.84159 0.0
H218 H 0.67351 0.06028 0.83868 0.0
H219 H 0.69651 0.07037 0.81711 0.0
C220 C 0.78818 0.03514 0.89619 0.0
N221 N 0.79177 0.03491 0.87591 0.0
N222 N 0.76648 0.0258 0.86727 0.0
C223 C 0.74602 0.01942 0.88198 0.0
C224 C 0.75915 0.02537 0.90074 0.0
C225 C 0.81223 0.04463 0.91094 0.0
H226 H 0.83204 0.0293 0.90934 0.0
H227 H 0.81976 0.06802 0.90732 0.0
H228 H 0.80412 0.04374 0.92687 0.0
O229 O 0.83933 0.01431 0.84121 0.0
O230 O 0.79682 -0.00108 0.82659 0.0
H231 H 0.71434 0.98975 0.86742 0.0
H232 H 0.70296 0.00199 0.89255 0.0
C233 C 0.71423 0.00903 0.87823 0.0
H234 H 0.70106 0.02782 0.87134 0.0
H235 H 0.74194 0.96514 0.82598 0.0
O236 O 0.85924 0.05523 0.87793 0.0
C237 C 0.82542 -0.00286 0.82879 0.0
Co238 Co 0.98281 0.82297 0.35941 0.0
Co239 Co 0.00193 0.76267 0.33851 0.0
C240 C 0.94141 0.79187 0.33012 0.0
O241 O 0.94704 0.81336 0.34252 0.0
O242 O 0.9605 0.77051 0.32707 0.0
C243 C 0.95711 0.8797 0.37391 0.0
O244 O 0.9407 0.87993 0.35725 0.0
C245 C 0.00301 0.69809 0.32727 0.0
C246 C 0.05204 0.69161 0.32157 0.0
C247 C 0.02458 0.67641 0.32221 0.0
N248 N 0.01723 0.7248 0.32959 0.0
N249 N 0.04643 0.72085 0.32591 0.0
C250 C 0.97007 0.69326 0.33169 0.0
H251 H 0.9612 0.71177 0.34147 0.0
H252 H 0.96647 0.67102 0.33921 0.0
H253 H 0.95724 0.6934 0.31719 0.0
C254 C 0.99263 0.78641 0.39619 0.0
N255 N 0.99331 0.78966 0.37588 0.0
N256 N 0.00182 0.76398 0.36748 0.0
C257 C 0.00731 0.74357 0.38239 0.0
C258 C 0.0014 0.75715 0.40102 0.0
C259 C 0.98391 0.81107 0.41068 0.0
H260 H -0.00023 0.83037 0.40882 0.0
H261 H 0.96069 0.81917 0.40705 0.0
H262 H 0.9847 0.80338 0.42671 0.0
O263 O 0.01661 0.83607 0.34143 0.0
O264 O 0.03006 0.79301 0.32676 0.0
H265 H 0.03629 0.71075 0.36833 0.0
H266 H 0.02309 0.7001 0.39338 0.0
C267 C 0.01676 0.71141 0.37893 0.0
H268 H -0.00229 0.6988 0.37192 0.0
H269 H 0.0627 0.73797 0.32698 0.0
O270 O 0.97483 0.85762 0.3773 0.0
C271 C 0.03327 0.82145 0.32905 0.0
C272 C 0.2872 0.04414 0.07807 0.0
C273 C 0.28741 0.0186 0.09076 0.0
C274 C 0.29554 0.0416 0.05767 0.0
C275 C 0.29432 0.98535 0.01706 0.0
H276 H 0.33433 0.04839 0.98593 0.0
C277 C 0.29796 0.97862 0.93011 0.0
C278 C 0.2906 0.00552 0.9199 0.0
C279 C 0.30541 0.97919 0.95074 0.0
C280 C 0.32301 0.03063 0.99439 0.0
H281 H 0.29777 0.97076 0.09265 0.0
H282 H 0.31257 0.96613 0.05683 0.0
H283 H 0.33382 0.05118 0.02301 0.0
H284 H 0.28607 0.05412 0.92267 0.0
H285 H 0.29857 0.05533 0.95888 0.0
H286 H 0.28229 0.96543 0.98863 0.0
C287 C 0.30581 0.98812 0.0626 0.0
C288 C 0.32281 0.03219 0.01563 0.0
C289 C 0.29761 0.99075 0.08308 0.0
C290 C 0.2921 0.03319 0.93029 0.0
C291 C 0.29931 0.03379 0.951 0.0
C292 C 0.29439 0.98386 0.99586 0.0
C293 C 0.30406 0.01336 0.04953 0.0
C294 C 0.30797 0.00985 0.0272 0.0
C295 C 0.3052 0.00667 0.96164 0.0
C296 C 0.30825 0.00675 0.98421 0.0
H297 H 0.27922 0.0658 0.08373 0.0
H298 H 0.29361 0.06141 0.04803 0.0
H299 H 0.28222 0.96804 0.02545 0.0
H300 H 0.29673 0.95702 0.9223 0.0
H301 H 0.31038 0.95795 0.9583 0.0
C302 C 0.99479 0.28741 0.42953 0.0
C303 C 0.02273 0.28696 0.4194 0.0
C304 C 0.9935 0.29428 0.45027 0.0
C305 C 0.04253 0.29007 0.4956 0.0
H306 H 0.97356 0.32737 0.5223 0.0
C307 C 0.03378 0.29272 0.58284 0.0
C308 C 0.00595 0.28221 0.59035 0.0
C309 C 0.03667 0.3007 0.56234 0.0
C310 C 0.993 0.31692 0.51505 0.0
H311 H 0.07097 0.29452 0.42234 0.0
H312 H 0.06882 0.30755 0.45842 0.0
H313 H 0.97712 0.32841 0.48526 0.0
H314 H 0.959 0.2732 0.58295 0.0
H315 H 0.96387 0.28711 0.5472 0.0
H316 H 0.05805 0.27792 0.52528 0.0
C317 C 0.04791 0.30208 0.4506 0.0
C318 C 0.99501 0.31746 0.49383 0.0
C319 C 0.04916 0.29499 0.42993 0.0
C320 C 0.98067 0.28135 0.57742 0.0
C321 C 0.98347 0.28945 0.557 0.0
C322 C 0.04058 0.28966 0.51678 0.0
C323 C 0.0202 0.30084 0.46122 0.0
C324 C 0.01952 0.3035 0.4838 0.0
C325 C 0.0117 0.29843 0.54906 0.0
C326 C 0.0155 0.30253 0.52676 0.0
H327 H 0.97423 0.28081 0.42166 0.0
H328 H 0.97182 0.29274 0.45793 0.0
H329 H 0.06146 0.27858 0.48848 0.0
H330 H 0.05358 0.29341 0.59259 0.0
H331 H 0.05864 0.30784 0.55674 0.0
C332 C 0.74141 0.98155 0.07945 0.0
C333 C 0.74308 0.00693 0.09225 0.0
C334 C 0.73442 0.98498 0.05888 0.0
C335 C 0.74209 0.04144 0.01852 0.0
H336 H 0.69796 0.98239 0.98638 0.0
C337 C 0.73974 0.05104 0.93173 0.0
C338 C 0.74539 0.02406 0.92113 0.0
C339 C 0.73212 0.05029 0.95232 0.0
C340 C 0.71045 -0.00097 0.99513 0.0
H341 H 0.73737 0.05556 0.09407 0.0
H342 H 0.72476 0.06174 0.05802 0.0
H343 H 0.69735 0.97885 0.02343 0.0
H344 H 0.74659 0.97518 0.92317 0.0
H345 H 0.73374 0.97362 0.95934 0.0
H346 H 0.7562 0.06099 0.99041 0.0
C347 C 0.72916 0.03917 0.06381 0.0
C348 C 0.71004 -0.00297 0.01636 0.0
C349 C 0.73608 0.03567 0.08444 0.0
C350 C 0.74195 -0.00379 0.93109 0.0
C351 C 0.73454 -0.00459 0.95177 0.0
C352 C 0.74258 0.04338 0.99735 0.0
C353 C 0.72905 0.01395 0.05068 0.0
C354 C 0.72628 0.01794 0.0283 0.0
C355 C 0.73041 0.02251 0.96279 0.0
C356 C 0.72717 0.02194 0.98534 0.0
H357 H 0.7468 0.95916 0.08522 0.0
H358 H 0.73485 0.96511 0.04922 0.0
H359 H 0.75532 0.0576 0.02719 0.0
H360 H 0.74243 0.07277 0.92425 0.0
H361 H 0.72853 0.07156 0.96018 0.0
C362 C 0.97476 0.74041 0.43233 0.0
C363 C 0.00195 0.7437 0.42153 0.0
C364 C 0.97521 0.7331 0.45297 0.0
C365 C 0.02502 0.70782 0.49564 0.0
H366 H 0.97079 0.75796 0.52765 0.0
C367 C 0.0452 0.73712 0.58005 0.0
C368 C 0.02001 0.74115 0.59278 0.0
C369 C 0.04123 0.73051 0.55946 0.0
C370 C 0.98568 0.74329 0.519 0.0
H371 H 0.05082 0.74085 0.42325 0.0
H372 H 0.05189 0.72847 0.45951 0.0
H373 H 0.96723 0.7588 0.49088 0.0
H374 H 0.97103 0.7401 0.59446 0.0
H375 H 0.96388 0.72811 0.55842 0.0
H376 H 0.04415 0.69321 0.52396 0.0
C377 C 0.03012 0.73097 0.45207 0.0
C378 C 0.98365 0.74375 0.49784 0.0
C379 C 0.0296 0.73809 0.43134 0.0
C380 C 0.99077 0.73693 0.58489 0.0
C381 C 0.98674 0.73037 0.56426 0.0
C382 C 0.02711 0.70742 0.51688 0.0
C383 C 0.00293 0.72928 0.46328 0.0
C384 C 0.00355 0.72636 0.48584 0.0
C385 C 0.01192 0.7279 0.55119 0.0
C386 C 0.00774 0.7255 0.5288 0.0
H387 H 0.95319 0.74474 0.42497 0.0
H388 H 0.95383 0.73138 0.461 0.0
H389 H 0.04044 0.69384 0.4869 0.0
H390 H 0.06796 0.74038 0.58588 0.0
H391 H 0.06111 0.72908 0.54985 0.0
C392 C 0.11759 0.25547 0.29868 0.0
C393 C 0.11275 0.23483 0.31464 0.0
C394 C 0.13959 0.24957 0.28382 0.0
C395 C 0.20137 0.19419 0.26964 0.0
H396 H 0.17052 0.20778 0.21532 0.0
C397 C 0.24796 0.12431 0.20301 0.0
C398 C 0.22551 0.11272 0.18997 0.0
C399 C 0.24134 0.14831 0.21624 0.0
C400 C 0.17949 0.20364 0.23037 0.0
H401 H 0.12898 0.19304 0.32832 0.0
H402 H 0.16598 0.18228 0.30238 0.0
H403 H 0.14641 0.23268 0.24384 0.0
H404 H 0.17902 0.11857 0.17979 0.0
H405 H 0.16718 0.15901 0.20315 0.0
H406 H 0.23241 0.16276 0.25643 0.0
C407 C 0.15349 0.20335 0.30129 0.0
C408 C 0.16594 0.21846 0.24681 0.0
C409 C 0.13187 0.20941 0.3162 0.0
C410 C 0.19692 0.12684 0.18962 0.0
C411 C 0.19018 0.15042 0.203 0.0
C412 C 0.21447 0.17884 0.25326 0.0
C413 C 0.157 0.22277 0.28449 0.0
C414 C 0.17579 0.21286 0.2668 0.0
C415 C 0.21198 0.16097 0.21694 0.0
C416 C 0.20279 0.18229 0.23349 0.0
H417 H 0.10351 0.27547 0.29714 0.0
H418 H 0.1421 0.26547 0.27141 0.0
H419 H 0.21034 0.19006 0.2847 0.0
H420 H 0.27035 0.1142 0.2035 0.0
H421 H 0.25899 0.15624 0.22637 0.0
C422 C 0.77342 0.12147 0.80269 0.0
C423 C 0.79527 0.11523 0.81769 0.0
C424 C 0.77854 0.14422 0.78822 0.0
C425 C 0.83448 0.20521 0.77338 0.0
H426 H 0.81508 0.17791 0.71902 0.0
C427 C 0.90183 0.25129 0.70554 0.0
C428 C 0.91143 0.22873 0.69187 0.0
C429 C 0.87825 0.24549 0.71929 0.0
C430 C 0.82085 0.18588 0.73409 0.0
H431 H 0.83855 0.1297 0.83013 0.0
H432 H 0.84796 0.16792 0.8048 0.0
H433 H 0.79172 0.15325 0.74788 0.0
H434 H 0.90224 0.18314 0.68103 0.0
H435 H 0.86259 0.17267 0.70519 0.0
H436 H 0.86604 0.23563 0.75971 0.0
C437 C 0.82651 0.15601 0.80421 0.0
C438 C 0.80692 0.17203 0.75075 0.0
C439 C 0.82123 0.13367 0.81876 0.0
C440 C 0.8956 0.20108 0.69136 0.0
C441 C 0.87245 0.19515 0.70522 0.0
C442 C 0.84897 0.21855 0.75675 0.0
C443 C 0.80578 0.16097 0.78828 0.0
C444 C 0.81466 0.1805 0.7707 0.0
C445 C 0.86402 0.21687 0.71984 0.0
C446 C 0.84345 0.20805 0.7369 0.0
H447 H 0.75297 0.10795 0.80158 0.0
H448 H 0.76164 0.14783 0.77653 0.0
H449 H 0.84023 0.2132 0.78845 0.0
H450 H 0.91329 0.273 0.70617 0.0
H451 H 0.87197 0.2631 0.72995 0.0
C452 C 0.79658 0.88836 0.19201 0.0
C453 C 0.78393 0.91577 0.19882 0.0
C454 C 0.80399 0.86544 0.20579 0.0
C455 C 0.80157 0.84371 0.26103 0.0
H456 H 0.88253 0.81423 0.24913 0.0
C457 C 0.8919 0.81651 0.32132 0.0
C458 C 0.91377 0.79403 0.31733 0.0
C459 C 0.869 0.82275 0.30725 0.0
C460 C 0.85965 0.82157 0.25258 0.0
H461 H 0.76687 0.93977 0.22515 0.0
H462 H 0.78083 0.90042 0.24933 0.0
H463 H 0.85442 0.84102 0.2232 0.0
H464 H 0.92706 0.75869 0.29619 0.0
H465 H 0.88704 0.76969 0.27159 0.0
H466 H 0.80805 0.82572 0.29101 0.0
C467 C 0.7845 0.89613 0.23333 0.0
C468 C 0.84336 0.83698 0.23763 0.0
C469 C 0.7765 0.91882 0.21946 0.0
C470 C 0.91075 0.77632 0.29968 0.0
C471 C 0.88791 0.7827 0.28554 0.0
C472 C 0.81806 0.82847 0.2761 0.0
C473 C 0.79962 0.86971 0.22678 0.0
C474 C 0.8144 0.84901 0.24176 0.0
C475 C 0.86748 0.80674 0.28883 0.0
C476 C 0.84762 0.81794 0.27218 0.0
H477 H 0.8022 0.88525 0.17612 0.0
H478 H 0.81465 0.84503 0.20007 0.0
H479 H 0.77914 0.85212 0.26468 0.0
H480 H 0.89336 0.83042 0.33484 0.0
H481 H 0.85377 0.84152 0.31023 0.0
C482 C 0.24036 0.92408 0.79318 0.0
C483 C 0.23927 0.91935 0.81419 0.0
C484 C 0.23215 0.90094 0.77979 0.0
C485 C 0.1887 0.82766 0.77986 0.0
H486 H 0.2028 0.83659 0.7222 0.0
C487 C 0.10128 0.7852 0.72253 0.0
C488 C 0.10818 0.78421 0.70178 0.0
C489 C 0.1235 0.7932 0.73666 0.0
C490 C 0.19888 0.83285 0.73821 0.0
H491 H 0.23148 0.88621 0.83782 0.0
H492 H 0.22005 0.84482 0.81457 0.0
H493 H 0.23342 0.86465 0.74571 0.0
H494 H 0.14408 0.78784 0.67955 0.0
H495 H 0.1837 0.79876 0.70426 0.0
H496 H 0.15604 0.79387 0.77245 0.0
C497 C 0.2252 0.86681 0.80818 0.0
C498 C 0.21617 0.84984 0.75188 0.0
C499 C 0.23223 0.8904 0.82161 0.0
C500 C 0.13824 0.7887 0.69553 0.0
C501 C 0.16083 0.79549 0.70977 0.0
C502 C 0.17235 0.80966 0.76623 0.0
C503 C 0.22362 0.87203 0.78704 0.0
C504 C 0.21016 0.84894 0.77289 0.0
C505 C 0.15355 0.79944 0.73049 0.0
C506 C 0.17582 0.81324 0.7451 0.0
H507 H 0.24536 0.94637 0.78711 0.0
H508 H 0.23085 0.90664 0.76385 0.0
H509 H 0.18307 0.82573 0.79578 0.0
H510 H 0.07813 0.78221 0.72769 0.0
H511 H 0.11627 0.79632 0.75221 0.0
C512 C 0.94769 0.82809 0.70444 0.0
C513 C 0.97499 0.83962 0.6966 0.0
C514 C 0.93026 0.84523 0.71799 0.0
C515 C 0.9218 0.92339 0.73978 0.0
H516 H 0.88034 0.8801 0.7829 0.0
C517 C 0.87381 0.9824 0.81139 0.0
C518 C 0.84298 0.97666 0.81535 0.0
C519 C 0.88958 0.96519 0.79699 0.0
C520 C 0.89171 0.89244 0.77088 0.0
H521 H 0.00521 0.8784 0.69664 0.0
H522 H 0.97562 0.90776 0.72078 0.0
H523 H 0.90801 0.85175 0.75706 0.0
H524 H 0.80489 0.94759 0.80787 0.0
H525 H 0.83284 0.9169 0.78316 0.0
H526 H 0.9063 0.96412 0.75427 0.0
C527 C 0.96699 0.88588 0.71608 0.0
C528 C 0.90741 0.87623 0.75593 0.0
C529 C 0.98411 0.86897 0.70223 0.0
C530 C 0.82861 0.95259 0.80515 0.0
C531 C 0.84458 0.935 0.79105 0.0
C532 C 0.90658 0.93957 0.75495 0.0
C533 C 0.93998 0.87412 0.72439 0.0
C534 C 0.92266 0.89145 0.74011 0.0
C535 C 0.87504 0.94152 0.78656 0.0
C536 C 0.89138 0.92425 0.77063 0.0
H537 H 0.93994 0.80562 0.70027 0.0
H538 H 0.90925 0.83562 0.72356 0.0
H539 H 0.93264 0.93602 0.7277 0.0
H540 H 0.8855 0.00088 0.81889 0.0
H541 H 0.91314 0.9705 0.79392 0.0
C542 C 0.16171 0.96436 0.19534 0.0
C543 C 0.19299 0.96982 0.19753 0.0
C544 C 0.146 0.94703 0.20966 0.0
C545 C 0.11535 0.92868 0.24897 0.0
H546 H 0.14925 0.85609 0.27328 0.0
C547 C 0.05741 0.86981 0.31688 0.0
C548 C 0.0552 0.83802 0.31599 0.0
C549 C 0.07597 0.88557 0.30324 0.0
C550 C 0.1394 0.87626 0.26658 0.0
H551 H 0.23241 0.96033 0.21626 0.0
H552 H 0.20491 0.93023 0.24129 0.0
H553 H 0.1776 0.88285 0.24693 0.0
H554 H 0.07167 0.79785 0.30042 0.0
H555 H 0.10377 0.82532 0.27662 0.0
H556 H 0.07691 0.92183 0.26825 0.0
C557 C 0.19259 0.93923 0.22839 0.0
C558 C 0.15578 0.89174 0.2516 0.0
C559 C 0.20834 0.95659 0.21405 0.0
C560 C 0.07279 0.82233 0.30157 0.0
C561 C 0.09135 0.83809 0.28795 0.0
C562 C 0.09903 0.91325 0.26395 0.0
C563 C 0.16111 0.9347 0.22657 0.0
C564 C 0.14388 0.91807 0.24253 0.0
C565 C 0.0928 0.86994 0.2884 0.0
C566 C 0.11079 0.8868 0.27292 0.0
H567 H 0.14914 0.97403 0.18277 0.0
H568 H 0.12188 0.9435 0.20757 0.0
H569 H 0.10566 0.94911 0.24253 0.0
H570 H 0.04431 0.88265 0.32782 0.0
H571 H 0.07695 0.91007 0.30423 0.0
C572 C 0.06704 0.20547 0.71413 0.0
C573 C 0.05322 0.1897 0.69801 0.0
C574 C 0.08489 0.19012 0.72839 0.0
C575 C 0.09765 0.11333 0.7495 0.0
H576 H 0.16985 0.14992 0.77253 0.0
C577 C 0.20717 0.07597 0.80129 0.0
C578 C 0.19262 0.05764 0.81582 0.0
C579 C 0.19027 0.09358 0.78771 0.0
C580 C 0.14983 0.13928 0.76619 0.0
H581 H 0.04827 0.14547 0.68394 0.0
H582 H 0.07984 0.11886 0.70857 0.0
H583 H 0.14158 0.17677 0.74626 0.0
H584 H 0.14877 0.04449 0.82793 0.0
H585 H 0.11934 0.07565 0.8045 0.0
H586 H 0.10632 0.0755 0.76899 0.0
C587 C 0.07635 0.14302 0.71043 0.0
C588 C 0.13343 0.15483 0.75125 0.0
C589 C 0.05843 0.15835 0.69619 0.0
C590 C 0.16076 0.05822 0.81689 0.0
C591 C 0.14385 0.0759 0.80333 0.0
C592 C 0.11406 0.09777 0.7644 0.0
C593 C 0.08946 0.15863 0.72688 0.0
C594 C 0.10716 0.14203 0.74267 0.0
C595 C 0.15837 0.09341 0.78834 0.0
C596 C 0.1404 0.11051 0.77293 0.0
H597 H 0.06349 0.2296 0.71607 0.0
H598 H 0.09435 0.20285 0.74094 0.0
H599 H 0.0773 0.10294 0.74346 0.0
H600 H 0.23166 0.07608 0.79995 0.0
H601 H 0.20225 0.10651 0.77626 0.0
C602 C 0.87023 0.04342 0.20269 0.0
C603 C 0.84045 0.05137 0.19727 0.0
C604 C 0.88661 0.06109 0.21651 0.0
C605 C 0.87527 0.12038 0.25644 0.0
H606 H 0.96303 0.12495 0.25394 0.0
C607 C 0.9502 0.20224 0.30465 0.0
C608 C 0.97473 0.18852 0.31478 0.0
C609 C 0.93275 0.1857 0.29076 0.0
C610 C 0.93852 0.12373 0.25485 0.0
H611 H 0.80498 0.08486 0.20136 0.0
H612 H 0.83397 0.11656 0.22458 0.0
H613 H 0.93547 0.09738 0.2277 0.0
H614 H -0.0001 0.14654 0.31841 0.0
H615 H 0.96981 0.11798 0.29381 0.0
H616 H 0.87863 0.1478 0.28329 0.0
C617 C 0.8444 0.09603 0.21887 0.0
C618 C 0.92265 0.10778 0.23987 0.0
C619 C 0.82782 0.07801 0.20536 0.0
C620 C 0.98106 0.15776 0.31098 0.0
C621 C 0.96401 0.14144 0.29679 0.0
C622 C 0.89115 0.13684 0.27118 0.0
C623 C 0.87384 0.08753 0.22499 0.0
C624 C 0.89077 0.10561 0.24053 0.0
C625 C 0.9399 0.15534 0.28641 0.0
C626 C 0.92292 0.13841 0.27062 0.0
H627 H 0.88049 0.02283 0.19688 0.0
H628 H 0.90893 0.05337 0.22101 0.0
H629 H 0.85085 0.11881 0.25782 0.0
H630 H 0.94476 0.22589 0.30725 0.0
H631 H 0.91428 0.19692 0.2829 0.0
C632 C 0.12158 0.0298 0.10528 0.0
C633 C 0.12052 0.05235 0.12038 0.0
C634 C 0.09485 0.01788 0.09723 0.0
C635 C 0.01078 0.02511 0.09721 0.0
H636 H 0.01317 0.9385 0.10763 0.0
C637 C 0.92921 0.93905 0.13855 0.0
C638 C 0.9014 0.94835 0.13024 0.0
C639 C 0.95635 0.94619 0.12872 0.0
C640 C 0.01218 0.96255 0.10433 0.0
H641 H 0.09086 0.08255 0.13714 0.0
H642 H 0.04419 0.06156 0.12329 0.0
H643 H 0.06039 0.96689 0.10524 0.0
H644 H 0.87991 0.96861 0.10384 0.0
H645 H 0.9273 0.98105 0.08675 0.0
H646 H 0.96253 0.02117 0.09793 0.0
C647 C 0.06563 0.05307 0.11761 0.0
C648 C 0.03922 0.97883 0.10277 0.0
C649 C 0.0924 0.06503 0.12565 0.0
C650 C 0.90105 0.96177 0.11085 0.0
C651 C 0.92816 0.96891 0.10104 0.0
C652 C 0.98374 0.00882 0.09871 0.0
C653 C 0.0666 0.02833 0.10411 0.0
C654 C 0.03873 0.01051 0.10019 0.0
C655 C 0.95607 0.96264 0.1104 0.0
C656 C 0.98419 0.97764 0.10329 0.0
H657 H 0.14297 0.01995 0.10059 0.0
H658 H 0.09627 -0.00077 0.08656 0.0
H659 H 0.00976 0.04943 0.09498 0.0
H660 H 0.93021 0.92846 0.15338 0.0
H661 H 0.9775 0.94111 0.13638 0.0
C662 C 0.95405 0.08978 0.63082 0.0
C663 C 0.96523 0.11782 0.62408 0.0
C664 C 0.9653 0.06285 0.62255 0.0
C665 C 0.03772 0.0374 0.60417 0.0
H666 H -0.00294 0.95957 0.6024 0.0
C667 C 0.06017 0.9001 0.61204 0.0
C668 C 0.07473 0.90081 0.63106 0.0
C669 C 0.05121 0.92696 0.6026 0.0
C670 C 0.00885 0.98112 0.60232 0.0
H671 H 0.99372 0.13982 0.60157 0.0
H672 H 0.01336 0.09283 0.58727 0.0
H673 H 0.96721 0.00603 0.60032 0.0
H674 H 0.09476 0.93022 0.6538 0.0
H675 H 0.07915 0.9771 0.63733 0.0
H676 H 0.07916 0.0125 0.60752 0.0
C677 C -0.00357 0.09164 0.59918 0.0
C678 C 0.9917 0.00769 0.60129 0.0
C679 C 0.98517 0.11852 0.6074 0.0
C680 C 0.08331 0.9289 0.63927 0.0
C681 C 0.07448 0.9558 0.62975 0.0
C682 C 0.05484 0.01084 0.60535 0.0
C683 C 0.98783 0.06361 0.60742 0.0
C684 C 0.00586 0.03604 0.6031 0.0
C685 C 0.05693 0.95498 0.61191 0.0
C686 C 0.04043 0.98249 0.60533 0.0
H687 H 0.93851 0.0885 0.64353 0.0
H688 H 0.95828 0.04155 0.62926 0.0
H689 H 0.04929 0.05894 0.60575 0.0
H690 H 0.05378 0.87879 0.60509 0.0
H691 H 0.03815 0.92576 0.58868 0.0
C692 C 0.93659 0.08114 0.88002 0.0
C693 C 0.90863 0.07034 0.8872 0.0
C694 C 0.96361 0.07118 0.88887 0.0
C695 C 0.98985 0.00128 0.91091 0.0
H696 H 0.06725 0.04285 0.91006 0.0
C697 C 0.12739 0.97963 0.90307 0.0
C698 C 0.12643 0.96229 0.88513 0.0
C699 C 0.10062 0.98953 0.91221 0.0
C700 C 0.04584 0.03086 0.9109 0.0
H701 H 0.88684 0.04408 0.91098 0.0
H702 H 0.93401 0.0267 0.92633 0.0
H703 H 0.02048 0.07231 0.91089 0.0
H704 H 0.09677 0.93865 0.86417 0.0
H705 H 0.05005 0.95602 0.88006 0.0
H706 H 0.01519 0.95987 0.90965 0.0
C707 C 0.93506 0.0423 0.91363 0.0
C708 C 0.01908 0.04779 0.9112 0.0
C709 C 0.90808 0.05227 0.90481 0.0
C710 C 0.09826 0.95221 0.87785 0.0
C711 C 0.07146 0.96206 0.88705 0.0
C712 C 0.0166 0.98437 0.9105 0.0
C713 C 0.96305 0.05034 0.90506 0.0
C714 C 0.99085 0.03317 0.91027 0.0
C715 C 0.07244 0.9821 0.90367 0.0
C716 C 0.0448 -0.00097 0.90955 0.0
H717 H 0.93776 0.09527 0.86659 0.0
H718 H 0.98486 0.07773 0.88188 0.0
H719 H 0.96842 0.98932 0.91005 0.0
H720 H 0.14879 0.9873 0.9093 0.0
H721 H 0.102 0.00452 0.92522 0.0
C722 C 0.95028 0.93544 0.37915 0.0
C723 C 0.96048 0.9073 0.3864 0.0
C724 C 0.96039 0.96225 0.38818 0.0
C725 C 0.0299 0.98755 0.41127 0.0
H726 H 0.98889 0.06526 0.41038 0.0
C727 C 0.05209 0.12495 0.40402 0.0
C728 C 0.06974 0.12395 0.38622 0.0
C729 C 0.04217 0.09821 0.41315 0.0
C730 C 0.00071 0.04376 0.41124 0.0
H731 H 0.98586 0.88501 0.41042 0.0
H732 H 0.00351 0.9318 0.42608 0.0
H733 H 0.95907 0.01877 0.41054 0.0
H734 H 0.09403 0.09432 0.36558 0.0
H735 H 0.07657 0.04763 0.38141 0.0
H736 H 0.07154 0.01254 0.4107 0.0
C737 C 0.98826 0.93315 0.4132 0.0
C738 C 0.98359 0.01716 0.41115 0.0
C739 C 0.97813 0.90638 0.4042 0.0
C740 C 0.08023 0.09582 0.37915 0.0
C741 C 0.07031 0.06904 0.38831 0.0
C742 C 0.04703 0.01415 0.41125 0.0
C743 C 0.98077 0.96129 0.40463 0.0
C744 C -0.00197 0.98884 0.41022 0.0
C745 C 0.04984 0.07003 0.40471 0.0
C746 C 0.03259 0.04247 0.41029 0.0
H747 H 0.93649 0.93689 0.36556 0.0
H748 H 0.95428 0.98363 0.38118 0.0
H749 H 0.04172 0.96604 0.41043 0.0
H750 H 0.04417 0.14635 0.4101 0.0
H751 H 0.02688 0.0996 0.426 0.0
C752 C 0.40111 0.0394 0.18414 0.0
C753 C 0.38529 0.01819 0.19603 0.0
C754 C 0.43243 0.04285 0.18633 0.0
C755 C 0.49949 -0.00015 0.20016 0.0
H756 H 0.53907 0.07828 0.20261 0.0
C757 C 0.62965 0.0106 0.20556 0.0
C758 C 0.64307 0.0337 0.194 0.0
C759 C 0.59815 0.00947 0.20786 0.0
C760 C 0.52839 0.0562 0.20172 0.0
H761 H 0.38987 0.98396 0.21948 0.0
H762 H 0.44472 0.98971 0.22306 0.0
H763 H 0.48377 0.07547 0.20293 0.0
H764 H 0.63443 0.07388 0.17597 0.0
H765 H 0.57952 0.07147 0.1794 0.0
H766 H 0.54384 0.98051 0.19816 0.0
C767 C 0.43278 0.00383 0.21222 0.0
C768 C 0.49676 0.05464 0.202 0.0
C769 C 0.40143 0.00061 0.21018 0.0
C770 C 0.62459 0.05586 0.18502 0.0
C771 C 0.59314 0.05457 0.18711 0.0
C772 C 0.5311 0.00141 0.19965 0.0
C773 C 0.44859 0.02476 0.20016 0.0
C774 C 0.48205 0.02647 0.20108 0.0
C775 C 0.5795 0.03134 0.19853 0.0
C776 C 0.54594 0.02962 0.20024 0.0
H777 H 0.38972 0.05237 0.17248 0.0
H778 H 0.44421 0.05875 0.17658 0.0
H779 H 0.48866 0.97785 0.19916 0.0
H780 H 0.64348 0.9937 0.21309 0.0
H781 H 0.58846 0.99161 0.21709 0.0
C782 C 0.97637 0.62497 0.70681 0.0
C783 C -0.00375 0.64044 0.69373 0.0
C784 C 0.97775 0.59341 0.70857 0.0
C785 C 0.0289 0.5293 0.70185 0.0
H786 H 0.95651 0.48097 0.69324 0.0
C787 C 0.03663 0.40274 0.68435 0.0
C788 C 0.01455 0.38311 0.69221 0.0
C789 C 0.03335 0.43401 0.68622 0.0
C790 C 0.97683 0.4941 0.69606 0.0
H791 H 0.03159 0.63458 0.67109 0.0
H792 H 0.03497 0.57988 0.6749 0.0
H793 H 0.95275 0.53627 0.694 0.0
H794 H 0.97212 0.38056 0.70872 0.0
H795 H 0.96648 0.43549 0.71232 0.0
H796 H 0.05309 0.4875 0.7041 0.0
C797 C 0.01879 0.59227 0.68411 0.0
C798 C 0.97465 0.52572 0.69643 0.0
C799 C 0.0171 0.62369 0.68214 0.0
C800 C 0.98914 0.39527 0.70214 0.0
C801 C 0.98598 0.42669 0.70423 0.0
C802 C 0.03104 0.49777 0.70174 0.0
C803 C -0.00085 0.57687 0.69733 0.0
C804 C 0.00079 0.54353 0.69891 0.0
C805 C 0.00814 0.4464 0.69633 0.0
C806 C 0.00516 0.4798 0.69836 0.0
H807 H 0.95979 0.63727 0.71574 0.0
H808 H 0.96232 0.58196 0.71882 0.0
H809 H 0.04929 0.54261 0.70408 0.0
H810 H 0.05634 0.39391 0.67648 0.0
H811 H 0.05049 0.44848 0.67951 0.0
C812 C 0.40525 0.04424 0.80422 0.0
C813 C 0.38943 0.02478 0.8174 0.0
C814 C 0.43673 0.04206 0.80228 0.0
C815 C 0.50054 0.99029 0.80932 0.0
H816 H 0.54881 0.06282 0.81742 0.0
C817 C 0.62764 0.98372 0.8266 0.0
C818 C 0.64693 0.00615 0.8188 0.0
C819 C 0.59629 0.98641 0.8246 0.0
C820 C 0.53571 0.04244 0.81473 0.0
H821 H 0.39465 0.98897 0.83977 0.0
H822 H 0.44924 0.98426 0.83566 0.0
H823 H 0.49355 0.06652 0.81666 0.0
H824 H 0.64883 0.0484 0.80206 0.0
H825 H 0.59387 0.05301 0.79823 0.0
H826 H 0.54241 0.96612 0.80722 0.0
C827 C 0.43714 0.00078 0.82655 0.0
C828 C 0.50409 0.04458 0.81436 0.0
C829 C 0.40576 0.00324 0.82871 0.0
C830 C 0.63438 0.03116 0.80864 0.0
C831 C 0.60293 0.03373 0.80643 0.0
C832 C 0.5321 0.98818 0.80943 0.0
C833 C 0.4529 0.02026 0.81341 0.0
C834 C 0.48628 0.01844 0.81202 0.0
C835 C 0.58352 0.01139 0.81442 0.0
C836 C 0.55007 0.01413 0.81256 0.0
H837 H 0.39329 0.06128 0.79547 0.0
H838 H 0.44843 0.05734 0.79206 0.0
H839 H 0.48723 0.96987 0.80722 0.0
H840 H 0.63678 0.96428 0.8346 0.0
H841 H 0.58207 0.9691 0.83133 0.0
C842 C 0.02652 0.4021 0.32854 0.0
C843 C 0.00537 0.38569 0.31697 0.0
C844 C 0.02848 0.43355 0.32669 0.0
C845 C 0.98379 0.50015 0.31477 0.0
H846 H 0.06189 0.53953 0.30858 0.0
C847 C -0.00386 0.63073 0.3098 0.0
C848 C 0.02095 0.64333 0.32015 0.0
C849 C 0.9937 0.59928 0.30758 0.0
C850 C 0.03993 0.52892 0.31053 0.0
H851 H 0.96901 0.38945 0.29491 0.0
H852 H 0.97209 0.4447 0.29202 0.0
H853 H 0.05888 0.48435 0.30808 0.0
H854 H 0.06248 0.63324 0.33641 0.0
H855 H 0.05788 0.57857 0.33311 0.0
H856 H 0.9649 0.54458 0.31802 0.0
C857 C 0.98746 0.43302 0.30221 0.0
C858 C 0.03824 0.49735 0.31013 0.0
C859 C 0.98578 0.40148 0.30384 0.0
C860 C 0.04321 0.62408 0.32824 0.0
C861 C 0.04065 0.59275 0.32622 0.0
C862 C 0.9855 0.53177 0.31541 0.0
C863 C 0.00887 0.44928 0.31361 0.0
C864 C 0.01023 0.4827 0.3125 0.0
C865 C 0.016 0.57994 0.31574 0.0
C866 C 0.01368 0.5465 0.3136 0.0
H867 H 0.04087 0.39097 0.33957 0.0
H868 H 0.04471 0.44569 0.336 0.0
H869 H 0.96195 0.4893 0.3168 0.0
H870 H 0.97902 0.64515 0.30301 0.0
H871 H 0.97464 0.59017 0.29917 0.0
loop_
_geom_bond_atom_site_label_1
_geom_bond_atom_site_label_2
_geom_bond_distance
_geom_bond_site_symmetry_2
_ccdc_geom_bond_type
Co0 O3 1.970 . S
Co0 N17 1.989 . S
Co0 O25 1.967 1_545 S
Co0 O32 1.920 . S
Co1 O4 1.966 . S
Co1 N10 2.022 . S
Co1 N18 1.993 . S
Co1 O26 1.941 1_545 S
C2 O3 1.258 . S
C2 O4 1.263 . S
O3 Co0 1.970 . S
O3 C2 1.258 . S
O4 Co1 1.966 . S
O4 C2 1.263 . S
C5 O6 1.235 . S
C5 O32 1.289 . S
O6 C5 1.235 . S
C7 C9 1.400 . S
C7 N10 1.351 . S
C7 C12 1.501 . S
C8 C9 1.387 . S
C8 N11 1.341 1_545 S
C9 C7 1.400 . S
C9 C8 1.387 . S
N10 Co1 2.022 . S
N10 C7 1.351 . S
N10 N11 1.365 1_545 S
N11 C8 1.341 1_565 S
N11 N10 1.365 1_565 S
N11 H31 0.862 . S
C12 C7 1.501 . S
C12 H13 0.961 . S
C12 H14 0.961 . S
C12 H15 0.960 . S
H13 C12 0.961 . S
H14 C12 0.961 . S
H15 C12 0.960 . S
C16 N17 1.342 . S
C16 C20 1.401 . S
C16 C21 1.499 . S
N17 Co0 1.989 . S
N17 C16 1.342 . S
N17 N18 1.388 . S
N18 Co1 1.993 . S
N18 N17 1.388 . S
N18 C19 1.346 . S
C19 N18 1.346 . S
C19 C20 1.396 . S
C19 C29 1.510 . S
C20 C16 1.401 . S
C20 C19 1.396 . S
C21 C16 1.499 . S
C21 H22 0.959 . S
C21 H23 0.960 . S
C21 H24 0.961 1_545 S
H22 C21 0.959 . S
H23 C21 0.960 . S
H24 C21 0.961 1_565 S
O25 Co0 1.967 1_565 S
O25 C33 1.258 . S
O26 Co1 1.941 1_565 S
O26 C33 1.266 . S
H27 C29 0.959 . S
H28 C29 0.961 . S
C29 C19 1.510 . S
C29 H27 0.959 . S
C29 H28 0.961 . S
C29 H30 0.960 . S
H30 C29 0.960 . S
H31 N11 0.862 . S
O32 Co0 1.920 . S
O32 C5 1.289 . S
C33 O25 1.258 . S
C33 O26 1.266 . S
Co34 O37 1.970 1_455 S
Co34 N51 1.989 . S
Co34 O59 1.967 . S
Co34 O66 1.920 . S
Co35 O38 1.966 1_455 S
Co35 N44 2.022 . S
Co35 N52 1.993 . S
Co35 O60 1.941 . S
C36 O37 1.258 . S
C36 O38 1.263 . S
O37 Co34 1.970 1_655 S
O37 C36 1.258 . S
O38 Co35 1.966 1_655 S
O38 C36 1.263 . S
C39 O40 1.235 . S
C39 O66 1.289 1_655 S
O40 C39 1.235 . S
C41 C43 1.400 1_655 S
C41 N44 1.351 1_655 S
C41 C46 1.501 . S
C42 C43 1.387 . S
C42 N45 1.341 . S
C43 C41 1.400 1_455 S
C43 C42 1.387 . S
N44 Co35 2.022 . S
N44 C41 1.351 1_455 S
N44 N45 1.365 . S
N45 C42 1.341 . S
N45 N44 1.365 . S
N45 H65 0.862 . S
C46 C41 1.501 . S
C46 H47 0.961 . S
C46 H48 0.961 . S
C46 H49 0.960 . S
H47 C46 0.961 . S
H48 C46 0.961 . S
H49 C46 0.960 . S
C50 N51 1.342 . S
C50 C54 1.401 . S
C50 C55 1.499 . S
N51 Co34 1.989 . S
N51 C50 1.342 . S
N51 N52 1.388 . S
N52 Co35 1.993 . S
N52 N51 1.388 . S
N52 C53 1.346 . S
C53 N52 1.346 . S
C53 C54 1.396 . S
C53 C63 1.510 . S
C54 C50 1.401 . S
C54 C53 1.396 . S
C55 C50 1.499 . S
C55 H56 0.959 . S
C55 H57 0.960 . S
C55 H58 0.961 . S
H56 C55 0.959 . S
H57 C55 0.960 . S
H58 C55 0.961 . S
O59 Co34 1.967 . S
O59 C67 1.258 . S
O60 Co35 1.941 . S
O60 C67 1.266 . S
H61 C63 0.959 . S
H62 C63 0.934 1_655 S
C63 C53 1.510 . S
C63 H61 0.959 . S
C63 H62 0.934 1_455 S
C63 H64 0.960 . S
H64 C63 0.960 . S
H65 N45 0.862 . S
O66 Co34 1.920 . S
O66 C39 1.289 1_455 S
C67 O59 1.258 . S
C67 O60 1.266 . S
Co68 O71 1.970 1_545 S
Co68 N85 1.989 . S
Co68 O93 1.967 . S
Co68 O100 1.920 . S
Co69 O72 1.966 1_545 S
Co69 N78 2.022 . S
Co69 N86 1.993 . S
Co69 O94 1.941 . S
C70 O71 1.258 . S
C70 O72 1.263 . S
O71 Co68 1.970 1_565 S
O71 C70 1.258 . S
O72 Co69 1.966 1_565 S
O72 C70 1.263 . S
C73 O74 1.235 . S
C73 O100 1.289 1_565 S
O74 C73 1.235 . S
C75 C77 1.400 1_565 S
C75 N78 1.351 1_565 S
C75 C80 1.501 . S
C76 C77 1.387 . S
C76 N79 1.341 . S
C77 C75 1.400 1_545 S
C77 C76 1.387 . S
N78 Co69 2.022 . S
N78 C75 1.351 1_545 S
N78 N79 1.365 . S
N79 C76 1.341 . S
N79 N78 1.365 . S
N79 H99 0.862 . S
C80 C75 1.501 . S
C80 H81 0.961 . S
C80 H82 0.961 . S
C80 H83 0.960 . S
H81 C80 0.961 . S
H82 C80 0.961 . S
H83 C80 0.960 . S
C84 N85 1.342 . S
C84 C88 1.401 . S
C84 C89 1.499 . S
N85 Co68 1.989 . S
N85 C84 1.342 . S
N85 N86 1.388 . S
N86 Co69 1.993 . S
N86 N85 1.388 . S
N86 C87 1.346 . S
C87 N86 1.346 . S
C87 C88 1.396 . S
C87 C97 1.510 . S
C88 C84 1.401 . S
C88 C87 1.396 . S
C89 C84 1.499 . S
C89 H90 0.959 . S
C89 H91 0.960 . S
C89 H92 0.961 . S
H90 C89 0.959 . S
H91 C89 0.960 . S
H92 C89 0.961 . S
O93 Co68 1.967 . S
O93 C101 1.258 . S
O94 Co69 1.941 . S
O94 C101 1.266 . S
H95 C97 0.959 . S
H96 C97 0.937 1_565 S
C97 C87 1.510 . S
C97 H95 0.959 . S
C97 H96 0.937 1_545 S
C97 H98 0.960 . S
H98 C97 0.960 . S
H99 N79 0.862 . S
O100 Co68 1.920 . S
O100 C73 1.289 1_545 S
C101 O93 1.258 . S
C101 O94 1.266 . S
Co102 O105 1.970 . S
Co102 N119 1.989 . S
Co102 O127 1.967 1_455 S
Co102 O134 1.920 . S
Co103 O106 1.966 . S
Co103 N112 2.022 . S
Co103 N120 1.993 . S
Co103 O128 1.941 1_455 S
C104 O105 1.258 . S
C104 O106 1.263 . S
O105 Co102 1.970 . S
O105 C104 1.258 . S
O106 Co103 1.966 . S
O106 C104 1.263 . S
C107 O108 1.235 . S
C107 O134 1.289 . S
O108 C107 1.235 . S
C109 C111 1.400 . S
C109 N112 1.351 . S
C109 C114 1.501 . S
C110 C111 1.387 . S
C110 N113 1.341 1_455 S
C111 C109 1.400 . S
C111 C110 1.387 . S
N112 Co103 2.022 . S
N112 C109 1.351 . S
N112 N113 1.365 1_455 S
N113 C110 1.341 1_655 S
N113 N112 1.365 1_655 S
N113 H133 0.862 . S
C114 C109 1.501 . S
C114 H115 0.961 . S
C114 H116 0.961 . S
C114 H117 0.960 . S
H115 C114 0.961 . S
H116 C114 0.961 . S
H117 C114 0.960 . S
C118 N119 1.342 . S
C118 C122 1.401 . S
C118 C123 1.499 . S
N119 Co102 1.989 . S
N119 C118 1.342 . S
N119 N120 1.388 . S
N120 Co103 1.993 . S
N120 N119 1.388 . S
N120 C121 1.346 . S
C121 N120 1.346 . S
C121 C122 1.396 . S
C121 C131 1.510 . S
C122 C118 1.401 . S
C122 C121 1.396 . S
C123 C118 1.499 . S
C123 H124 0.959 . S
C123 H125 0.960 . S
C123 H126 0.961 1_455 S
H124 C123 0.959 . S
H125 C123 0.960 . S
H126 C123 0.961 1_655 S
O127 Co102 1.967 1_655 S
O127 C135 1.258 . S
O128 Co103 1.941 1_655 S
O128 C135 1.266 . S
H129 C131 0.959 . S
H130 C131 0.961 . S
C131 C121 1.510 . S
C131 H129 0.959 . S
C131 H130 0.961 . S
C131 H132 0.960 . S
H132 C131 0.960 . S
H133 N113 0.862 . S
O134 Co102 1.920 . S
O134 C107 1.289 . S
C135 O127 1.258 . S
C135 O128 1.266 . S
Co136 O139 1.970 1_545 S
Co136 N153 1.989 . S
Co136 O161 1.967 . S
Co136 O168 1.920 . S
Co137 O140 1.966 1_545 S
Co137 N146 2.022 . S
Co137 N154 1.993 . S
Co137 O162 1.941 . S
C138 O139 1.258 . S
C138 O140 1.263 . S
O139 Co136 1.970 1_565 S
O139 C138 1.258 . S
O140 Co137 1.966 1_565 S
O140 C138 1.263 . S
C141 O142 1.235 . S
C141 O168 1.289 1_565 S
O142 C141 1.235 . S
C143 C145 1.400 1_565 S
C143 N146 1.351 1_565 S
C143 C148 1.501 . S
C144 C145 1.387 . S
C144 N147 1.341 . S
C145 C143 1.400 1_545 S
C145 C144 1.387 . S
N146 Co137 2.022 . S
N146 C143 1.351 1_545 S
N146 N147 1.365 . S
N147 C144 1.341 . S
N147 N146 1.365 . S
N147 H167 0.862 . S
C148 C143 1.501 . S
C148 H149 0.961 . S
C148 H150 0.961 . S
C148 H151 0.960 . S
H149 C148 0.961 . S
H150 C148 0.961 . S
H151 C148 0.960 . S
C152 N153 1.342 . S
C152 C156 1.401 . S
C152 C157 1.499 . S
N153 Co136 1.989 . S
N153 C152 1.342 . S
N153 N154 1.388 . S
N154 Co137 1.993 . S
N154 N153 1.388 . S
N154 C155 1.346 . S
C155 N154 1.346 . S
C155 C156 1.396 . S
C155 C165 1.510 . S
C156 C152 1.401 . S
C156 C155 1.396 . S
C157 C152 1.499 . S
C157 H158 0.959 . S
C157 H159 0.960 . S
C157 H160 0.961 . S
H158 C157 0.959 . S
H159 C157 0.960 . S
H160 C157 0.961 . S
O161 Co136 1.967 . S
O161 C169 1.258 . S
O162 Co137 1.941 . S
O162 C169 1.266 . S
H163 C165 0.959 . S
H164 C165 0.934 1_565 S
C165 C155 1.510 . S
C165 H163 0.959 . S
C165 H164 0.934 1_545 S
C165 H166 0.960 . S
H166 C165 0.960 . S
H167 N147 0.862 . S
O168 Co136 1.920 . S
O168 C141 1.289 1_545 S
C169 O161 1.258 . S
C169 O162 1.266 . S
Co170 O173 1.970 . S
Co170 N187 1.989 . S
Co170 O195 1.967 1_455 S
Co170 O202 1.920 . S
Co171 O174 1.966 . S
Co171 N180 2.022 . S
Co171 N188 1.993 . S
Co171 O196 1.941 1_455 S
C172 O173 1.258 . S
C172 O174 1.263 . S
O173 Co170 1.970 . S
O173 C172 1.258 . S
O174 Co171 1.966 . S
O174 C172 1.263 . S
C175 O176 1.235 . S
C175 O202 1.289 . S
O176 C175 1.235 . S
C177 C179 1.400 . S
C177 N180 1.351 . S
C177 C182 1.501 . S
C178 C179 1.387 . S
C178 N181 1.341 1_455 S
C179 C177 1.400 . S
C179 C178 1.387 . S
N180 Co171 2.022 . S
N180 C177 1.351 . S
N180 N181 1.365 1_455 S
N181 C178 1.341 1_655 S
N181 N180 1.365 1_655 S
N181 H201 0.862 . S
C182 C177 1.501 . S
C182 H183 0.961 . S
C182 H184 0.961 . S
C182 H185 0.960 . S
H183 C182 0.961 . S
H184 C182 0.961 . S
H185 C182 0.960 . S
C186 N187 1.342 . S
C186 C190 1.401 . S
C186 C191 1.499 . S
N187 Co170 1.989 . S
N187 C186 1.342 . S
N187 N188 1.388 . S
N188 Co171 1.993 . S
N188 N187 1.388 . S
N188 C189 1.346 . S
C189 N188 1.346 . S
C189 C190 1.396 . S
C189 C199 1.510 . S
C190 C186 1.401 . S
C190 C189 1.396 . S
C191 C186 1.499 . S
C191 H192 0.959 . S
C191 H193 0.960 . S
C191 H194 0.961 1_455 S
H192 C191 0.959 . S
H193 C191 0.960 . S
H194 C191 0.961 1_655 S
O195 Co170 1.967 1_655 S
O195 C203 1.258 . S
O196 Co171 1.941 1_655 S
O196 C203 1.266 . S
H197 C199 0.959 . S
H198 C199 0.961 . S
C199 C189 1.510 . S
C199 H197 0.959 . S
C199 H198 0.961 . S
C199 H200 0.960 . S
H200 C199 0.960 . S
H201 N181 0.862 . S
O202 Co170 1.920 . S
O202 C175 1.289 . S
C203 O195 1.258 . S
C203 O196 1.266 . S
Co204 O207 1.970 . S
Co204 N221 1.989 . S
Co204 O229 1.967 1_545 S
Co204 O236 1.920 . S
Co205 O208 1.966 . S
Co205 N214 2.022 . S
Co205 N222 1.993 . S
Co205 O230 1.941 1_545 S
C206 O207 1.258 . S
C206 O208 1.263 . S
O207 Co204 1.970 . S
O207 C206 1.258 . S
O208 Co205 1.966 . S
O208 C206 1.263 . S
C209 O210 1.235 . S
C209 O236 1.289 . S
O210 C209 1.235 . S
C211 C213 1.400 . S
C211 N214 1.351 . S
C211 C216 1.501 . S
C212 C213 1.387 . S
C212 N215 1.341 1_545 S
C213 C211 1.400 . S
C213 C212 1.387 . S
N214 Co205 2.022 . S
N214 C211 1.351 . S
N214 N215 1.365 1_545 S
N215 C212 1.341 1_565 S
N215 N214 1.365 1_565 S
N215 H235 0.862 . S
C216 C211 1.501 . S
C216 H217 0.961 . S
C216 H218 0.961 . S
C216 H219 0.960 . S
H217 C216 0.961 . S
H218 C216 0.961 . S
H219 C216 0.960 . S
C220 N221 1.342 . S
C220 C224 1.401 . S
C220 C225 1.499 . S
N221 Co204 1.989 . S
N221 C220 1.342 . S
N221 N222 1.388 . S
N222 Co205 1.993 . S
N222 N221 1.388 . S
N222 C223 1.346 . S
C223 N222 1.346 . S
C223 C224 1.396 . S
C223 C233 1.510 . S
C224 C220 1.401 . S
C224 C223 1.396 . S
C225 C220 1.499 . S
C225 H226 0.959 . S
C225 H227 0.960 . S
C225 H228 0.961 1_545 S
H226 C225 0.959 . S
H227 C225 0.960 . S
H228 C225 0.961 1_565 S
O229 Co204 1.967 1_565 S
O229 C237 1.258 . S
O230 Co205 1.941 1_565 S
O230 C237 1.266 . S
H231 C233 0.959 . S
H232 C233 0.961 . S
C233 C223 1.510 . S
C233 H231 0.959 . S
C233 H232 0.961 . S
C233 H234 0.960 . S
H234 C233 0.960 . S
H235 N215 0.862 . S
O236 Co204 1.920 . S
O236 C209 1.289 . S
C237 O229 1.258 . S
C237 O230 1.266 . S
Co238 O241 1.970 1_455 S
Co238 N255 1.989 . S
Co238 O263 1.967 . S
Co238 O270 1.920 . S
Co239 O242 1.966 1_455 S
Co239 N248 2.022 . S
Co239 N256 1.993 . S
Co239 O264 1.941 . S
C240 O241 1.258 . S
C240 O242 1.263 . S
O241 Co238 1.970 1_655 S
O241 C240 1.258 . S
O242 Co239 1.966 1_655 S
O242 C240 1.263 . S
C243 O244 1.235 . S
C243 O270 1.289 1_655 S
O244 C243 1.235 . S
C245 C247 1.400 1_655 S
C245 N248 1.351 1_655 S
C245 C250 1.501 . S
C246 C247 1.387 . S
C246 N249 1.341 . S
C247 C245 1.400 1_455 S
C247 C246 1.387 . S
N248 Co239 2.022 . S
N248 C245 1.351 1_455 S
N248 N249 1.365 . S
N249 C246 1.341 . S
N249 N248 1.365 . S
N249 H269 0.862 . S
C250 C245 1.501 . S
C250 H251 0.961 . S
C250 H252 0.961 . S
C250 H253 0.960 . S
H251 C250 0.961 . S
H252 C250 0.961 . S
H253 C250 0.960 . S
C254 N255 1.342 . S
C254 C258 1.401 . S
C254 C259 1.499 . S
N255 Co238 1.989 . S
N255 C254 1.342 . S
N255 N256 1.388 . S
N256 Co239 1.993 . S
N256 N255 1.388 . S
N256 C257 1.346 . S
C257 N256 1.346 . S
C257 C258 1.396 . S
C257 C267 1.510 . S
C258 C254 1.401 . S
C258 C257 1.396 . S
C259 C254 1.499 . S
C259 H260 0.959 . S
C259 H261 0.960 . S
C259 H262 0.961 . S
H260 C259 0.959 . S
H261 C259 0.960 . S
H262 C259 0.961 . S
O263 Co238 1.967 . S
O263 C271 1.258 . S
O264 Co239 1.941 . S
O264 C271 1.266 . S
H265 C267 0.959 . S
H266 C267 0.937 1_655 S
C267 C257 1.510 . S
C267 H265 0.959 . S
C267 H266 0.937 1_455 S
C267 H268 0.960 . S
H268 C267 0.960 . S
H269 N249 0.862 . S
O270 Co238 1.920 . S
O270 C243 1.289 1_455 S
C271 O263 1.258 . S
C271 O264 1.266 . S
C272 C273 1.349 . S
C272 C274 1.327 . S
C272 H297 0.950 . S
C273 C272 1.349 . S
C273 C289 1.349 . S
C274 C272 1.327 . S
C274 C293 1.429 . S
C274 H298 0.950 . S
C275 C292 1.574 1_554 S
C275 C294 1.368 . S
C275 H299 0.949 . S
H276 C280 0.949 . S
C277 C278 1.349 . S
C277 C279 1.327 . S
C277 H300 0.950 . S
C278 C277 1.349 . S
C278 C290 1.349 . S
C279 C277 1.327 . S
C279 C295 1.429 . S
C279 H301 0.950 . S
C280 H276 0.949 . S
C280 C288 1.574 1_556 S
C280 C296 1.368 . S
H281 C289 0.950 . S
H282 C287 0.950 . S
H283 C288 0.949 . S
H284 C290 0.950 . S
H285 C291 0.950 . S
H286 C292 0.949 . S
C287 H282 0.950 . S
C287 C289 1.327 . S
C287 C293 1.429 . S
C288 C280 1.574 1_554 S
C288 H283 0.949 . S
C288 C294 1.368 . S
C289 C273 1.349 . S
C289 H281 0.950 . S
C289 C287 1.327 . S
C290 C278 1.349 . S
C290 H284 0.950 . S
C290 C291 1.327 . S
C291 H285 0.950 . S
C291 C290 1.327 . S
C291 C295 1.429 . S
C292 C275 1.574 1_556 S
C292 H286 0.949 . S
C292 C296 1.368 . S
C293 C274 1.429 . S
C293 C287 1.429 . S
C293 C294 1.523 . S
C294 C275 1.368 . S
C294 C288 1.368 . S
C294 C293 1.523 . S
C295 C279 1.429 . S
C295 C291 1.429 . S
C295 C296 1.523 . S
C296 C280 1.368 . S
C296 C292 1.368 . S
C296 C295 1.523 . S
H297 C272 0.950 . S
H298 C274 0.950 . S
H299 C275 0.949 . S
H300 C277 0.950 . S
H301 C279 0.950 . S
C302 C303 1.339 1_655 S
C302 C304 1.327 . S
C302 H327 0.961 . S
C303 C302 1.339 1_455 S
C303 C319 1.349 . S
C304 C302 1.327 . S
C304 C323 1.431 1_655 S
C304 H328 0.948 . S
C305 C322 1.574 . S
C305 C324 1.368 . S
C305 H329 0.949 . S
H306 C310 0.949 1_655 S
C307 C308 1.349 . S
C307 C309 1.327 . S
C307 H330 0.950 . S
C308 C307 1.349 . S
C308 C320 1.349 . S
C309 C307 1.327 . S
C309 C325 1.429 . S
C309 H331 0.950 . S
C310 H306 0.949 1_455 S
C310 C318 1.574 . S
C310 C326 1.368 . S
H311 C319 0.950 . S
H312 C317 0.950 . S
H313 C318 0.949 1_655 S
H314 C320 0.950 1_655 S
H315 C321 0.950 1_655 S
H316 C322 0.949 . S
C317 H312 0.950 . S
C317 C319 1.327 . S
C317 C323 1.429 . S
C318 C310 1.574 . S
C318 H313 0.949 1_455 S
C318 C324 1.368 . S
C319 C303 1.349 . S
C319 H311 0.950 . S
C319 C317 1.327 . S
C320 C308 1.349 . S
C320 H314 0.950 1_455 S
C320 C321 1.327 . S
C321 H315 0.950 1_455 S
C321 C320 1.327 . S
C321 C325 1.429 . S
C322 C305 1.574 . S
C322 H316 0.949 . S
C322 C326 1.368 . S
C323 C304 1.431 1_455 S
C323 C317 1.429 . S
C323 C324 1.523 . S
C324 C305 1.368 . S
C324 C318 1.368 . S
C324 C323 1.523 . S
C325 C309 1.429 . S
C325 C321 1.429 . S
C325 C326 1.523 . S
C326 C310 1.368 . S
C326 C322 1.368 . S
C326 C325 1.523 . S
H327 C302 0.961 . S
H328 C304 0.948 . S
H329 C305 0.949 . S
H330 C307 0.950 . S
H331 C309 0.950 . S
C332 C333 1.350 . S
C332 C334 1.327 1_545 S
C332 H357 0.948 1_545 S
C333 C332 1.350 . S
C333 C349 1.349 . S
C334 C332 1.327 1_565 S
C334 C353 1.429 1_565 S
C334 H358 0.950 . S
C335 C352 1.574 1_554 S
C335 C354 1.368 . S
C335 H359 0.949 . S
H336 C340 0.949 . S
C337 C338 1.349 . S
C337 C339 1.327 . S
C337 H360 0.950 . S
C338 C337 1.349 . S
C338 C350 1.349 1_545 S
C339 C337 1.327 . S
C339 C355 1.429 . S
C339 H361 0.950 . S
C340 H336 0.949 . S
C340 C348 1.574 1_556 S
C340 C356 1.368 1_565 S
H341 C349 0.950 . S
H342 C347 0.950 . S
H343 C348 0.949 . S
H344 C350 0.950 . S
H345 C351 0.950 . S
H346 C352 0.949 . S
C347 H342 0.950 . S
C347 C349 1.327 . S
C347 C353 1.429 . S
C348 C340 1.574 1_554 S
C348 H343 0.949 . S
C348 C354 1.368 1_565 S
C349 C333 1.349 . S
C349 H341 0.950 . S
C349 C347 1.327 . S
C350 C338 1.349 1_565 S
C350 H344 0.950 . S
C350 C351 1.327 . S
C351 H345 0.950 . S
C351 C350 1.327 . S
C351 C355 1.429 1_565 S
C352 C335 1.574 1_556 S
C352 H346 0.949 . S
C352 C356 1.368 . S
C353 C334 1.429 1_545 S
C353 C347 1.429 . S
C353 C354 1.523 . S
C354 C335 1.368 . S
C354 C348 1.368 1_545 S
C354 C353 1.523 . S
C355 C339 1.429 . S
C355 C351 1.429 1_545 S
C355 C356 1.523 . S
C356 C340 1.368 1_545 S
C356 C352 1.368 . S
C356 C355 1.523 . S
H357 C332 0.948 1_565 S
H358 C334 0.950 . S
H359 C335 0.949 . S
H360 C337 0.950 . S
H361 C339 0.950 . S
C362 C363 1.349 . S
C362 C364 1.327 . S
C362 H387 0.950 1_455 S
C363 C362 1.349 . S
C363 C379 1.349 . S
C364 C362 1.327 . S
C364 C383 1.429 . S
C364 H388 0.950 1_455 S
C365 C382 1.574 . S
C365 C384 1.368 . S
C365 H389 0.949 . S
H366 C370 0.949 1_655 S
C367 C368 1.349 . S
C367 C369 1.327 . S
C367 H390 0.950 . S
C368 C367 1.349 . S
C368 C380 1.340 1_455 S
C369 C367 1.327 . S
C369 C385 1.429 . S
C369 H391 0.950 . S
C370 H366 0.949 1_455 S
C370 C378 1.574 . S
C370 C386 1.368 . S
H371 C379 0.950 . S
H372 C377 0.950 . S
H373 C378 0.949 1_655 S
H374 C380 0.960 . S
H375 C381 0.951 1_655 S
H376 C382 0.949 . S
C377 H372 0.950 . S
C377 C379 1.327 . S
C377 C383 1.429 . S
C378 C370 1.574 . S
C378 H373 0.949 1_455 S
C378 C384 1.368 . S
C379 C363 1.349 . S
C379 H371 0.950 . S
C379 C377 1.327 . S
C380 C368 1.340 1_655 S
C380 H374 0.960 . S
C380 C381 1.327 1_655 S
C381 H375 0.951 1_455 S
C381 C380 1.327 1_455 S
C381 C385 1.427 . S
C382 C365 1.574 . S
C382 H376 0.949 . S
C382 C386 1.368 . S
C383 C364 1.429 . S
C383 C377 1.429 . S
C383 C384 1.523 . S
C384 C365 1.368 . S
C384 C378 1.368 . S
C384 C383 1.523 . S
C385 C369 1.429 . S
C385 C381 1.427 . S
C385 C386 1.523 . S
C386 C370 1.368 . S
C386 C382 1.368 . S
C386 C385 1.523 . S
H387 C362 0.950 1_655 S
H388 C364 0.950 1_655 S
H389 C365 0.949 . S
H390 C367 0.950 . S
H391 C369 0.950 . S
C392 C393 1.349 . S
C392 C394 1.327 . S
C392 H417 0.950 . S
C393 C392 1.349 . S
C393 C409 1.349 . S
C394 C392 1.327 . S
C394 C413 1.429 . S
C394 H418 0.950 . S
C395 C412 1.574 . S
C395 C414 1.368 . S
C395 H419 0.949 . S
H396 C400 0.949 . S
C397 C398 1.349 . S
C397 C399 1.327 . S
C397 H420 0.950 . S
C398 C397 1.349 . S
C398 C410 1.349 . S
C399 C397 1.327 . S
C399 C415 1.429 . S
C399 H421 0.950 . S
C400 H396 0.949 . S
C400 C408 1.574 . S
C400 C416 1.368 . S
H401 C409 0.950 . S
H402 C407 0.950 . S
H403 C408 0.949 . S
H404 C410 0.950 . S
H405 C411 0.950 . S
H406 C412 0.949 . S
C407 H402 0.950 . S
C407 C409 1.327 . S
C407 C413 1.429 . S
C408 C400 1.574 . S
C408 H403 0.949 . S
C408 C414 1.368 . S
C409 C393 1.349 . S
C409 H401 0.950 . S
C409 C407 1.327 . S
C410 C398 1.349 . S
C410 H404 0.950 . S
C410 C411 1.327 . S
C411 H405 0.950 . S
C411 C410 1.327 . S
C411 C415 1.429 . S
C412 C395 1.574 . S
C412 H406 0.949 . S
C412 C416 1.368 . S
C413 C394 1.429 . S
C413 C407 1.429 . S
C413 C414 1.523 . S
C414 C395 1.368 . S
C414 C408 1.368 . S
C414 C413 1.523 . S
C415 C399 1.429 . S
C415 C411 1.429 . S
C415 C416 1.523 . S
C416 C400 1.368 . S
C416 C412 1.368 . S
C416 C415 1.523 . S
H417 C392 0.950 . S
H418 C394 0.950 . S
H419 C395 0.949 . S
H420 C397 0.950 . S
H421 C399 0.950 . S
C422 C423 1.349 . S
C422 C424 1.327 . S
C422 H447 0.950 . S
C423 C422 1.349 . S
C423 C439 1.349 . S
C424 C422 1.327 . S
C424 C443 1.429 . S
C424 H448 0.950 . S
C425 C442 1.574 . S
C425 C444 1.368 . S
C425 H449 0.949 . S
H426 C430 0.949 . S
C427 C428 1.349 . S
C427 C429 1.327 . S
C427 H450 0.950 . S
C428 C427 1.349 . S
C428 C440 1.349 . S
C429 C427 1.327 . S
C429 C445 1.429 . S
C429 H451 0.950 . S
C430 H426 0.949 . S
C430 C438 1.574 . S
C430 C446 1.368 . S
H431 C439 0.950 . S
H432 C437 0.950 . S
H433 C438 0.949 . S
H434 C440 0.950 . S
H435 C441 0.950 . S
H436 C442 0.949 . S
C437 H432 0.950 . S
C437 C439 1.327 . S
C437 C443 1.429 . S
C438 C430 1.574 . S
C438 H433 0.949 . S
C438 C444 1.368 . S
C439 C423 1.349 . S
C439 H431 0.950 . S
C439 C437 1.327 . S
C440 C428 1.349 . S
C440 H434 0.950 . S
C440 C441 1.327 . S
C441 H435 0.950 . S
C441 C440 1.327 . S
C441 C445 1.429 . S
C442 C425 1.574 . S
C442 H436 0.949 . S
C442 C446 1.368 . S
C443 C424 1.429 . S
C443 C437 1.429 . S
C443 C444 1.523 . S
C444 C425 1.368 . S
C444 C438 1.368 . S
C444 C443 1.523 . S
C445 C429 1.429 . S
C445 C441 1.429 . S
C445 C446 1.523 . S
C446 C430 1.368 . S
C446 C442 1.368 . S
C446 C445 1.523 . S
H447 C422 0.950 . S
H448 C424 0.950 . S
H449 C425 0.949 . S
H450 C427 0.950 . S
H451 C429 0.950 . S
C452 C453 1.349 . S
C452 C454 1.327 . S
C452 H477 0.950 . S
C453 C452 1.349 . S
C453 C469 1.349 . S
C454 C452 1.327 . S
C454 C473 1.429 . S
C454 H478 0.950 . S
C455 C472 1.574 . S
C455 C474 1.368 . S
C455 H479 0.949 . S
H456 C460 0.949 . S
C457 C458 1.349 . S
C457 C459 1.327 . S
C457 H480 0.950 . S
C458 C457 1.349 . S
C458 C470 1.349 . S
C459 C457 1.327 . S
C459 C475 1.429 . S
C459 H481 0.950 . S
C460 H456 0.949 . S
C460 C468 1.574 . S
C460 C476 1.368 . S
H461 C469 0.950 . S
H462 C467 0.950 . S
H463 C468 0.949 . S
H464 C470 0.950 . S
H465 C471 0.950 . S
H466 C472 0.949 . S
C467 H462 0.950 . S
C467 C469 1.327 . S
C467 C473 1.429 . S
C468 C460 1.574 . S
C468 H463 0.949 . S
C468 C474 1.368 . S
C469 C453 1.349 . S
C469 H461 0.950 . S
C469 C467 1.327 . S
C470 C458 1.349 . S
C470 H464 0.950 . S
C470 C471 1.327 . S
C471 H465 0.950 . S
C471 C470 1.327 . S
C471 C475 1.429 . S
C472 C455 1.574 . S
C472 H466 0.949 . S
C472 C476 1.368 . S
C473 C454 1.429 . S
C473 C467 1.429 . S
C473 C474 1.523 . S
C474 C455 1.368 . S
C474 C468 1.368 . S
C474 C473 1.523 . S
C475 C459 1.429 . S
C475 C471 1.429 . S
C475 C476 1.523 . S
C476 C460 1.368 . S
C476 C472 1.368 . S
C476 C475 1.523 . S
H477 C452 0.950 . S
H478 C454 0.950 . S
H479 C455 0.949 . S
H480 C457 0.950 . S
H481 C459 0.950 . S
C482 C483 1.349 . S
C482 C484 1.327 . S
C482 H507 0.950 . S
C483 C482 1.349 . S
C483 C499 1.349 . S
C484 C482 1.327 . S
C484 C503 1.429 . S
C484 H508 0.950 . S
C485 C502 1.574 . S
C485 C504 1.368 . S
C485 H509 0.949 . S
H486 C490 0.949 . S
C487 C488 1.349 . S
C487 C489 1.327 . S
C487 H510 0.950 . S
C488 C487 1.349 . S
C488 C500 1.349 . S
C489 C487 1.327 . S
C489 C505 1.429 . S
C489 H511 0.950 . S
C490 H486 0.949 . S
C490 C498 1.574 . S
C490 C506 1.368 . S
H491 C499 0.950 . S
H492 C497 0.950 . S
H493 C498 0.949 . S
H494 C500 0.950 . S
H495 C501 0.950 . S
H496 C502 0.949 . S
C497 H492 0.950 . S
C497 C499 1.327 . S
C497 C503 1.429 . S
C498 C490 1.574 . S
C498 H493 0.949 . S
C498 C504 1.368 . S
C499 C483 1.349 . S
C499 H491 0.950 . S
C499 C497 1.327 . S
C500 C488 1.349 . S
C500 H494 0.950 . S
C500 C501 1.327 . S
C501 H495 0.950 . S
C501 C500 1.327 . S
C501 C505 1.429 . S
C502 C485 1.574 . S
C502 H496 0.949 . S
C502 C506 1.368 . S
C503 C484 1.429 . S
C503 C497 1.429 . S
C503 C504 1.523 . S
C504 C485 1.368 . S
C504 C498 1.368 . S
C504 C503 1.523 . S
C505 C489 1.429 . S
C505 C501 1.429 . S
C505 C506 1.523 . S
C506 C490 1.368 . S
C506 C502 1.368 . S
C506 C505 1.523 . S
H507 C482 0.950 . S
H508 C484 0.950 . S
H509 C485 0.949 . S
H510 C487 0.950 . S
H511 C489 0.950 . S
C512 C513 1.349 . S
C512 C514 1.327 . S
C512 H537 0.950 . S
C513 C512 1.349 . S
C513 C529 1.349 . S
C514 C512 1.327 . S
C514 C533 1.429 . S
C514 H538 0.950 . S
C515 C532 1.574 . S
C515 C534 1.368 . S
C515 H539 0.949 . S
H516 C520 0.949 . S
C517 C518 1.349 . S
C517 C519 1.327 . S
C517 H540 0.950 . S
C518 C517 1.349 . S
C518 C530 1.349 . S
C519 C517 1.327 . S
C519 C535 1.429 . S
C519 H541 0.950 . S
C520 H516 0.949 . S
C520 C528 1.574 . S
C520 C536 1.368 . S
H521 C529 0.950 . S
H522 C527 0.950 . S
H523 C528 0.949 . S
H524 C530 0.950 . S
H525 C531 0.950 . S
H526 C532 0.949 . S
C527 H522 0.950 . S
C527 C529 1.327 . S
C527 C533 1.429 . S
C528 C520 1.574 . S
C528 H523 0.949 . S
C528 C534 1.368 . S
C529 C513 1.349 . S
C529 H521 0.950 . S
C529 C527 1.327 . S
C530 C518 1.349 . S
C530 H524 0.950 . S
C530 C531 1.327 . S
C531 H525 0.950 . S
C531 C530 1.327 . S
C531 C535 1.429 . S
C532 C515 1.574 . S
C532 H526 0.949 . S
C532 C536 1.368 . S
C533 C514 1.429 . S
C533 C527 1.429 . S
C533 C534 1.523 . S
C534 C515 1.368 . S
C534 C528 1.368 . S
C534 C533 1.523 . S
C535 C519 1.429 . S
C535 C531 1.429 . S
C535 C536 1.523 . S
C536 C520 1.368 . S
C536 C532 1.368 . S
C536 C535 1.523 . S
H537 C512 0.950 . S
H538 C514 0.950 . S
H539 C515 0.949 . S
H540 C517 0.950 . S
H541 C519 0.950 . S
C542 C543 1.349 . S
C542 C544 1.327 . S
C542 H567 0.950 . S
C543 C542 1.349 . S
C543 C559 1.349 . S
C544 C542 1.327 . S
C544 C563 1.429 . S
C544 H568 0.950 . S
C545 C562 1.574 . S
C545 C564 1.368 . S
C545 H569 0.949 . S
H546 C550 0.949 . S
C547 C548 1.349 . S
C547 C549 1.327 . S
C547 H570 0.950 . S
C548 C547 1.349 . S
C548 C560 1.349 . S
C549 C547 1.327 . S
C549 C565 1.429 . S
C549 H571 0.950 . S
C550 H546 0.949 . S
C550 C558 1.574 . S
C550 C566 1.368 . S
H551 C559 0.950 . S
H552 C557 0.950 . S
H553 C558 0.949 . S
H554 C560 0.950 . S
H555 C561 0.950 . S
H556 C562 0.949 . S
C557 H552 0.950 . S
C557 C559 1.327 . S
C557 C563 1.429 . S
C558 C550 1.574 . S
C558 H553 0.949 . S
C558 C564 1.368 . S
C559 C543 1.349 . S
C559 H551 0.950 . S
C559 C557 1.327 . S
C560 C548 1.349 . S
C560 H554 0.950 . S
C560 C561 1.327 . S
C561 H555 0.950 . S
C561 C560 1.327 . S
C561 C565 1.429 . S
C562 C545 1.574 . S
C562 H556 0.949 . S
C562 C566 1.368 . S
C563 C544 1.429 . S
C563 C557 1.429 . S
C563 C564 1.523 . S
C564 C545 1.368 . S
C564 C558 1.368 . S
C564 C563 1.523 . S
C565 C549 1.429 . S
C565 C561 1.429 . S
C565 C566 1.523 . S
C566 C550 1.368 . S
C566 C562 1.368 . S
C566 C565 1.523 . S
H567 C542 0.950 . S
H568 C544 0.950 . S
H569 C545 0.949 . S
H570 C547 0.950 . S
H571 C549 0.950 . S
C572 C573 1.349 . S
C572 C574 1.327 . S
C572 H597 0.950 . S
C573 C572 1.349 . S
C573 C589 1.349 . S
C574 C572 1.327 . S
C574 C593 1.429 . S
C574 H598 0.950 . S
C575 C592 1.574 . S
C575 C594 1.368 . S
C575 H599 0.949 . S
H576 C580 0.949 . S
C577 C578 1.349 . S
C577 C579 1.327 . S
C577 H600 0.950 . S
C578 C577 1.349 . S
C578 C590 1.349 . S
C579 C577 1.327 . S
C579 C595 1.429 . S
C579 H601 0.950 . S
C580 H576 0.949 . S
C580 C588 1.574 . S
C580 C596 1.368 . S
H581 C589 0.950 . S
H582 C587 0.950 . S
H583 C588 0.949 . S
H584 C590 0.950 . S
H585 C591 0.950 . S
H586 C592 0.949 . S
C587 H582 0.950 . S
C587 C589 1.327 . S
C587 C593 1.429 . S
C588 C580 1.574 . S
C588 H583 0.949 . S
C588 C594 1.368 . S
C589 C573 1.349 . S
C589 H581 0.950 . S
C589 C587 1.327 . S
C590 C578 1.349 . S
C590 H584 0.950 . S
C590 C591 1.327 . S
C591 H585 0.950 . S
C591 C590 1.327 . S
C591 C595 1.429 . S
C592 C575 1.574 . S
C592 H586 0.949 . S
C592 C596 1.368 . S
C593 C574 1.429 . S
C593 C587 1.429 . S
C593 C594 1.523 . S
C594 C575 1.368 . S
C594 C588 1.368 . S
C594 C593 1.523 . S
C595 C579 1.429 . S
C595 C591 1.429 . S
C595 C596 1.523 . S
C596 C580 1.368 . S
C596 C592 1.368 . S
C596 C595 1.523 . S
H597 C572 0.950 . S
H598 C574 0.950 . S
H599 C575 0.949 . S
H600 C577 0.950 . S
H601 C579 0.950 . S
C602 C603 1.349 . S
C602 C604 1.327 . S
C602 H627 0.950 . S
C603 C602 1.349 . S
C603 C619 1.349 . S
C604 C602 1.327 . S
C604 C623 1.429 . S
C604 H628 0.950 . S
C605 C622 1.574 . S
C605 C624 1.368 . S
C605 H629 0.949 . S
H606 C610 0.949 . S
C607 C608 1.349 . S
C607 C609 1.327 . S
C607 H630 0.950 . S
C608 C607 1.349 . S
C608 C620 1.349 . S
C609 C607 1.327 . S
C609 C625 1.429 . S
C609 H631 0.950 . S
C610 H606 0.949 . S
C610 C618 1.574 . S
C610 C626 1.368 . S
H611 C619 0.950 . S
H612 C617 0.950 . S
H613 C618 0.949 . S
H614 C620 0.950 . S
H615 C621 0.950 . S
H616 C622 0.949 . S
C617 H612 0.950 . S
C617 C619 1.327 . S
C617 C623 1.429 . S
C618 C610 1.574 . S
C618 H613 0.949 . S
C618 C624 1.368 . S
C619 C603 1.349 . S
C619 H611 0.950 . S
C619 C617 1.327 . S
C620 C608 1.349 . S
C620 H614 0.950 . S
C620 C621 1.327 . S
C621 H615 0.950 . S
C621 C620 1.327 . S
C621 C625 1.429 . S
C622 C605 1.574 . S
C622 H616 0.949 . S
C622 C626 1.368 . S
C623 C604 1.429 . S
C623 C617 1.429 . S
C623 C624 1.523 . S
C624 C605 1.368 . S
C624 C618 1.368 . S
C624 C623 1.523 . S
C625 C609 1.429 . S
C625 C621 1.429 . S
C625 C626 1.523 . S
C626 C610 1.368 . S
C626 C622 1.368 . S
C626 C625 1.523 . S
H627 C602 0.950 . S
H628 C604 0.950 . S
H629 C605 0.949 . S
H630 C607 0.950 . S
H631 C609 0.950 . S
C632 C633 1.349 . S
C632 C634 1.327 . S
C632 H657 0.950 . S
C633 C632 1.349 . S
C633 C649 1.349 . S
C634 C632 1.327 . S
C634 C653 1.429 . S
C634 H658 0.950 . S
C635 C652 1.574 1_455 S
C635 C654 1.368 . S
C635 H659 0.949 . S
H636 C640 0.949 1_655 S
C637 C638 1.349 1_545 S
C637 C639 1.327 . S
C637 H660 0.950 . S
C638 C637 1.349 1_565 S
C638 C650 1.349 . S
C639 C637 1.327 . S
C639 C655 1.429 . S
C639 H661 0.950 . S
C640 H636 0.949 1_455 S
C640 C648 1.574 1_565 S
C640 C656 1.368 1_465 S
H641 C649 0.950 . S
H642 C647 0.950 . S
H643 C648 0.946 1_565 S
H644 C650 0.950 . S
H645 C651 0.950 . S
H646 C652 0.949 . S
C647 H642 0.950 . S
C647 C649 1.327 . S
C647 C653 1.429 . S
C648 C640 1.574 1_545 S
C648 H643 0.946 1_545 S
C648 C654 1.368 . S
C649 C633 1.349 . S
C649 H641 0.950 . S
C649 C647 1.327 . S
C650 C638 1.349 . S
C650 H644 0.950 . S
C650 C651 1.327 . S
C651 H645 0.950 . S
C651 C650 1.327 . S
C651 C655 1.429 1_565 S
C652 C635 1.574 1_655 S
C652 H646 0.949 . S
C652 C656 1.368 . S
C653 C634 1.429 . S
C653 C647 1.429 . S
C653 C654 1.523 . S
C654 C635 1.368 . S
C654 C648 1.368 . S
C654 C653 1.523 . S
C655 C639 1.429 . S
C655 C651 1.429 1_545 S
C655 C656 1.523 . S
C656 C640 1.368 1_645 S
C656 C652 1.368 . S
C656 C655 1.523 . S
H657 C632 0.950 . S
H658 C634 0.950 . S
H659 C635 0.949 . S
H660 C637 0.950 . S
H661 C639 0.950 . S
C662 C663 1.349 . S
C662 C664 1.327 . S
C662 H687 0.950 . S
C663 C662 1.349 . S
C663 C679 1.349 1_655 S
C664 C662 1.327 . S
C664 C683 1.429 1_655 S
C664 H688 0.950 . S
C665 C682 1.574 . S
C665 C684 1.368 . S
C665 H689 0.949 . S
H666 C670 0.945 1_655 S
C667 C668 1.349 . S
C667 C669 1.327 . S
C667 H690 0.950 . S
C668 C667 1.349 . S
C668 C680 1.349 . S
C669 C667 1.327 . S
C669 C685 1.429 . S
C669 H691 0.950 . S
C670 H666 0.945 1_455 S
C670 C678 1.574 1_465 S
C670 C686 1.368 . S
H671 C679 0.950 . S
H672 C677 0.950 . S
H673 C678 0.949 . S
H674 C680 0.950 . S
H675 C681 0.950 . S
H676 C682 0.949 1_565 S
C677 H672 0.950 . S
C677 C679 1.327 . S
C677 C683 1.429 . S
C678 C670 1.574 1_645 S
C678 H673 0.949 . S
C678 C684 1.368 1_655 S
C679 C663 1.349 1_455 S
C679 H671 0.950 . S
C679 C677 1.327 . S
C680 C668 1.349 . S
C680 H674 0.950 . S
C680 C681 1.327 . S
C681 H675 0.950 . S
C681 C680 1.327 . S
C681 C685 1.429 . S
C682 C665 1.574 . S
C682 H676 0.949 1_545 S
C682 C686 1.368 1_545 S
C683 C664 1.429 1_455 S
C683 C677 1.429 . S
C683 C684 1.523 . S
C684 C665 1.368 . S
C684 C678 1.368 1_455 S
C684 C683 1.523 . S
C685 C669 1.429 . S
C685 C681 1.429 . S
C685 C686 1.523 . S
C686 C670 1.368 . S
C686 C682 1.368 1_565 S
C686 C685 1.523 . S
H687 C662 0.950 . S
H688 C664 0.950 . S
H689 C665 0.949 . S
H690 C667 0.950 . S
H691 C669 0.950 . S
C692 C693 1.349 . S
C692 C694 1.327 . S
C692 H717 0.950 . S
C693 C692 1.349 . S
C693 C709 1.349 . S
C694 C692 1.327 . S
C694 C713 1.429 . S
C694 H718 0.950 . S
C695 C712 1.574 1_645 S
C695 C714 1.368 . S
C695 H719 0.945 1_545 S
H696 C700 0.949 . S
C697 C698 1.349 . S
C697 C699 1.327 . S
C697 H720 0.950 . S
C698 C697 1.349 . S
C698 C710 1.349 1_565 S
C699 C697 1.327 . S
C699 C715 1.429 1_565 S
C699 H721 0.950 . S
C700 H696 0.949 . S
C700 C708 1.574 . S
C700 C716 1.368 . S
H701 C709 0.950 . S
H702 C707 0.950 . S
H703 C708 0.949 1_655 S
H704 C710 0.950 . S
H705 C711 0.950 . S
H706 C712 0.949 . S
C707 H702 0.950 . S
C707 C709 1.327 . S
C707 C713 1.429 . S
C708 C700 1.574 . S
C708 H703 0.949 1_455 S
C708 C714 1.368 1_455 S
C709 C693 1.349 . S
C709 H701 0.950 . S
C709 C707 1.327 . S
C710 C698 1.349 1_545 S
C710 H704 0.950 . S
C710 C711 1.327 . S
C711 H705 0.950 . S
C711 C710 1.327 . S
C711 C715 1.429 . S
C712 C695 1.574 1_465 S
C712 H706 0.949 . S
C712 C716 1.368 1_565 S
C713 C694 1.429 . S
C713 C707 1.429 . S
C713 C714 1.523 . S
C714 C695 1.368 . S
C714 C708 1.368 1_655 S
C714 C713 1.523 . S
C715 C699 1.429 1_545 S
C715 C711 1.429 . S
C715 C716 1.523 . S
C716 C700 1.368 . S
C716 C712 1.368 1_545 S
C716 C715 1.523 . S
H717 C692 0.950 . S
H718 C694 0.950 . S
H719 C695 0.945 1_565 S
H720 C697 0.950 . S
H721 C699 0.950 . S
C722 C723 1.349 . S
C722 C724 1.327 . S
C722 H747 0.950 . S
C723 C722 1.349 . S
C723 C739 1.349 1_655 S
C724 C722 1.327 . S
C724 C743 1.429 1_655 S
C724 H748 0.950 . S
C725 C742 1.574 1_565 S
C725 C744 1.368 . S
C725 H749 0.949 . S
H726 C730 0.946 1_655 S
C727 C728 1.349 . S
C727 C729 1.327 . S
C727 H750 0.950 . S
C728 C727 1.349 . S
C728 C740 1.349 . S
C729 C727 1.327 . S
C729 C745 1.429 . S
C729 H751 0.950 . S
C730 H726 0.946 1_455 S
C730 C738 1.574 1_455 S
C730 C746 1.368 . S
H731 C739 0.950 . S
H732 C737 0.950 . S
H733 C738 0.949 1_565 S
H734 C740 0.950 . S
H735 C741 0.950 . S
H736 C742 0.949 . S
C737 H732 0.950 . S
C737 C739 1.327 . S
C737 C743 1.429 . S
C738 C730 1.574 1_655 S
C738 H733 0.949 1_545 S
C738 C744 1.368 1_645 S
C739 C723 1.349 1_455 S
C739 H731 0.950 . S
C739 C737 1.327 . S
C740 C728 1.349 . S
C740 H734 0.950 . S
C740 C741 1.327 . S
C741 H735 0.950 . S
C741 C740 1.327 . S
C741 C745 1.429 . S
C742 C725 1.574 1_545 S
C742 H736 0.949 . S
C742 C746 1.368 . S
C743 C724 1.429 1_455 S
C743 C737 1.429 . S
C743 C744 1.523 . S
C744 C725 1.368 . S
C744 C738 1.368 1_465 S
C744 C743 1.523 . S
C745 C729 1.429 . S
C745 C741 1.429 . S
C745 C746 1.523 . S
C746 C730 1.368 . S
C746 C742 1.368 . S
C746 C745 1.523 . S
H747 C722 0.950 . S
H748 C724 0.950 . S
H749 C725 0.949 . S
H750 C727 0.950 . S
H751 C729 0.950 . S
C752 C753 1.349 . S
C752 C754 1.327 . S
C752 H777 0.950 . S
C753 C752 1.349 . S
C753 C769 1.349 . S
C754 C752 1.327 . S
C754 C773 1.429 . S
C754 H778 0.950 . S
C755 C772 1.574 1_545 S
C755 C774 1.368 . S
C755 H779 0.949 1_545 S
H756 C760 0.949 . S
C757 C758 1.349 . S
C757 C759 1.327 . S
C757 H780 0.950 . S
C758 C757 1.349 . S
C758 C770 1.349 1_565 S
C759 C757 1.327 . S
C759 C775 1.429 1_565 S
C759 H781 0.950 . S
C760 H756 0.949 . S
C760 C768 1.574 . S
C760 C776 1.368 . S
H761 C769 0.950 . S
H762 C767 0.950 . S
H763 C768 0.949 . S
H764 C770 0.950 . S
H765 C771 0.950 . S
H766 C772 0.949 . S
C767 H762 0.950 . S
C767 C769 1.327 . S
C767 C773 1.429 . S
C768 C760 1.574 . S
C768 H763 0.949 . S
C768 C774 1.368 . S
C769 C753 1.349 . S
C769 H761 0.950 . S
C769 C767 1.327 . S
C770 C758 1.349 1_545 S
C770 H764 0.950 . S
C770 C771 1.327 . S
C771 H765 0.950 . S
C771 C770 1.327 . S
C771 C775 1.429 . S
C772 C755 1.574 1_565 S
C772 H766 0.949 . S
C772 C776 1.368 1_565 S
C773 C754 1.429 . S
C773 C767 1.429 . S
C773 C774 1.523 . S
C774 C755 1.368 . S
C774 C768 1.368 . S
C774 C773 1.523 . S
C775 C759 1.429 1_545 S
C775 C771 1.429 . S
C775 C776 1.523 . S
C776 C760 1.368 . S
C776 C772 1.368 1_545 S
C776 C775 1.523 . S
H777 C752 0.950 . S
H778 C754 0.950 . S
H779 C755 0.949 1_565 S
H780 C757 0.950 . S
H781 C759 0.950 . S
C782 C783 1.349 . S
C782 C784 1.327 . S
C782 H807 0.950 . S
C783 C782 1.349 . S
C783 C799 1.349 . S
C784 C782 1.327 . S
C784 C803 1.429 . S
C784 H808 0.950 . S
C785 C802 1.574 . S
C785 C804 1.368 . S
C785 H809 0.949 . S
H786 C790 0.949 . S
C787 C788 1.349 1_455 S
C787 C789 1.327 . S
C787 H810 0.950 . S
C788 C787 1.349 1_655 S
C788 C800 1.349 . S
C789 C787 1.327 . S
C789 C805 1.429 . S
C789 H811 0.950 . S
C790 H786 0.949 . S
C790 C798 1.574 1_655 S
C790 C806 1.368 1_655 S
H791 C799 0.950 . S
H792 C797 0.950 . S
H793 C798 0.949 1_655 S
H794 C800 0.950 . S
H795 C801 0.950 . S
H796 C802 0.949 . S
C797 H792 0.950 . S
C797 C799 1.327 . S
C797 C803 1.429 . S
C798 C790 1.574 1_455 S
C798 H793 0.949 1_455 S
C798 C804 1.368 . S
C799 C783 1.349 . S
C799 H791 0.950 . S
C799 C797 1.327 . S
C800 C788 1.349 . S
C800 H794 0.950 . S
C800 C801 1.327 . S
C801 H795 0.950 . S
C801 C800 1.327 . S
C801 C805 1.429 1_655 S
C802 C785 1.574 . S
C802 H796 0.949 . S
C802 C806 1.368 . S
C803 C784 1.429 . S
C803 C797 1.429 . S
C803 C804 1.523 . S
C804 C785 1.368 . S
C804 C798 1.368 . S
C804 C803 1.523 . S
C805 C789 1.429 . S
C805 C801 1.429 1_455 S
C805 C806 1.523 . S
C806 C790 1.368 1_455 S
C806 C802 1.368 . S
C806 C805 1.523 . S
H807 C782 0.950 . S
H808 C784 0.950 . S
H809 C785 0.949 . S
H810 C787 0.950 . S
H811 C789 0.950 . S
C812 C813 1.349 1_545 S
C812 C814 1.327 . S
C812 H837 0.950 . S
C813 C812 1.349 1_565 S
C813 C829 1.349 . S
C814 C812 1.327 . S
C814 C833 1.429 . S
C814 H838 0.950 . S
C815 C832 1.574 1_565 S
C815 C834 1.368 1_565 S
C815 H839 0.949 . S
H816 C820 0.949 . S
C817 C818 1.349 . S
C817 C819 1.327 . S
C817 H840 0.950 . S
C818 C817 1.349 . S
C818 C830 1.349 . S
C819 C817 1.327 . S
C819 C835 1.429 . S
C819 H841 0.950 . S
C820 H816 0.949 . S
C820 C828 1.574 . S
C820 C836 1.368 . S
H821 C829 0.950 . S
H822 C827 0.950 . S
H823 C828 0.949 . S
H824 C830 0.950 . S
H825 C831 0.950 . S
H826 C832 0.949 1_565 S
C827 H822 0.950 . S
C827 C829 1.327 . S
C827 C833 1.429 1_565 S
C828 C820 1.574 . S
C828 H823 0.949 . S
C828 C834 1.368 . S
C829 C813 1.349 . S
C829 H821 0.950 . S
C829 C827 1.327 . S
C830 C818 1.349 . S
C830 H824 0.950 . S
C830 C831 1.327 . S
C831 H825 0.950 . S
C831 C830 1.327 . S
C831 C835 1.429 . S
C832 C815 1.574 1_545 S
C832 H826 0.949 1_545 S
C832 C836 1.368 . S
C833 C814 1.429 . S
C833 C827 1.429 1_545 S
C833 C834 1.523 . S
C834 C815 1.368 1_545 S
C834 C828 1.368 . S
C834 C833 1.523 . S
C835 C819 1.429 . S
C835 C831 1.429 . S
C835 C836 1.523 . S
C836 C820 1.368 . S
C836 C832 1.368 . S
C836 C835 1.523 . S
H837 C812 0.950 . S
H838 C814 0.950 . S
H839 C815 0.949 . S
H840 C817 0.950 . S
H841 C819 0.950 . S
C842 C843 1.349 . S
C842 C844 1.327 . S
C842 H867 0.950 . S
C843 C842 1.349 . S
C843 C859 1.349 . S
C844 C842 1.327 . S
C844 C863 1.429 . S
C844 H868 0.950 . S
C845 C862 1.574 1_455 S
C845 C864 1.368 . S
C845 H869 0.949 1_455 S
H846 C850 0.949 . S
C847 C848 1.349 . S
C847 C849 1.327 . S
C847 H870 0.950 . S
C848 C847 1.349 . S
C848 C860 1.349 1_655 S
C849 C847 1.327 . S
C849 C865 1.429 1_655 S
C849 H871 0.950 . S
C850 H846 0.949 . S
C850 C858 1.574 . S
C850 C866 1.368 . S
H851 C859 0.950 . S
H852 C857 0.950 . S
H853 C858 0.949 . S
H854 C860 0.950 . S
H855 C861 0.950 . S
H856 C862 0.949 . S
C857 H852 0.950 . S
C857 C859 1.327 . S
C857 C863 1.429 . S
C858 C850 1.574 . S
C858 H853 0.949 . S
C858 C864 1.368 . S
C859 C843 1.349 . S
C859 H851 0.950 . S
C859 C857 1.327 . S
C860 C848 1.349 1_455 S
C860 H854 0.950 . S
C860 C861 1.327 . S
C861 H855 0.950 . S
C861 C860 1.327 . S
C861 C865 1.429 . S
C862 C845 1.574 1_655 S
C862 H856 0.949 . S
C862 C866 1.368 1_655 S
C863 C844 1.429 . S
C863 C857 1.429 . S
C863 C864 1.523 . S
C864 C845 1.368 . S
C864 C858 1.368 . S
C864 C863 1.523 . S
C865 C849 1.429 1_455 S
C865 C861 1.429 . S
C865 C866 1.523 . S
C866 C850 1.368 . S
C866 C862 1.368 1_455 S
C866 C865 1.523 . S
H867 C842 0.950 . S
H868 C844 0.950 . S
H869 C845 0.949 1_655 S
H870 C847 0.950 . S
H871 C849 0.950 . S
C273 C20 1.714 . S
C278 C156 1.714 . S
C303 C190 1.714 . S
C308 C54 1.714 . S
C333 C88 1.714 . S
C338 C224 1.714 . S
C363 C258 1.714 . S
C368 C122 1.714 . S
C393 C172 0.886 . S
C398 C2 0.886 . S
C423 C206 0.886 . S
C428 C36 0.886 . S
C453 C70 0.886 . S
C458 C240 0.886 . S
C483 C138 0.886 . S
C488 C104 0.886 . S
C513 C135 1.088 . S
C518 C237 1.088 . S
C543 C33 1.088 . S
C548 C271 1.088 . S
C573 C67 1.088 . S
C578 C169 1.088 . S
C603 C101 1.088 . S
C608 C203 1.088 . S
C633 C5 0.146 . S
C638 C73 0.146 . S
C663 C39 0.146 . S
C668 C107 0.146 . S
C693 C209 0.146 . S
C698 C141 0.146 . S
C723 C243 0.146 . S
C728 C175 0.146 . S
C753 C9 1.237 . S
C758 C77 1.237 1_565 S
C783 C111 1.237 . S
C788 C43 1.237 1_655 S
C813 C145 1.237 1_565 S
C818 C213 1.237 . S
C843 C179 1.237 . S
C848 C247 1.237 1_655 S
