# Generated by pormake.
# Topology dft, (4)-cn, num edge types: 1
# Building blocks:
#     Node 0, Type 0, BuildingBlock: UXUYUI_clean_sbu_0, # of connection points: 4
#     Node 1, Type 0, BuildingBlock: UXUYUI_clean_sbu_0, # of connection points: 4
#     Node 2, Type 0, BuildingBlock: UXUYUI_clean_sbu_0, # of connection points: 4
#     Node 3, Type 0, BuildingBlock: UXUYUI_clean_sbu_0, # of connection points: 4
#     Node 4, Type 0, BuildingBlock: UXUYUI_clean_sbu_0, # of connection points: 4
#     Node 5, Type 0, BuildingBlock: UXUYUI_clean_sbu_0, # of connection points: 4
#     Node 6, Type 0, BuildingBlock: UXUYUI_clean_sbu_0, # of connection points: 4
#     Node 7, Type 0, BuildingBlock: UXUYUI_clean_sbu_0, # of connection points: 4
#     Edge 8, Type (0, 0), BuildingBlock: AJUNOK_clean_linker_0, # of connection points: 2
#     Edge 9, Type (0, 0), BuildingBlock: AJUNOK_clean_linker_0, # of connection points: 2
#     Edge 10, Type (0, 0), BuildingBlock: AJUNOK_clean_linker_0, # of connection points: 2
#     Edge 11, Type (0, 0), BuildingBlock: AJUNOK_clean_linker_0, # of connection points: 2
#     Edge 12, Type (0, 0), BuildingBlock: AJUNOK_clean_linker_0, # of connection points: 2
#     Edge 13, Type (0, 0), BuildingBlock: AJUNOK_clean_linker_0, # of connection points: 2
#     Edge 14, Type (0, 0), BuildingBlock: AJUNOK_clean_linker_0, # of connection points: 2
#     Edge 15, Type (0, 0), BuildingBlock: AJUNOK_clean_linker_0, # of connection points: 2
#     Edge 16, Type (0, 0), BuildingBlock: AJUNOK_clean_linker_0, # of connection points: 2
#     Edge 17, Type (0, 0), BuildingBlock: AJUNOK_clean_linker_0, # of connection points: 2
#     Edge 18, Type (0, 0), BuildingBlock: AJUNOK_clean_linker_0, # of connection points: 2
#     Edge 19, Type (0, 0), BuildingBlock: AJUNOK_clean_linker_0, # of connection points: 2
#     Edge 20, Type (0, 0), BuildingBlock: AJUNOK_clean_linker_0, # of connection points: 2
#     Edge 21, Type (0, 0), BuildingBlock: AJUNOK_clean_linker_0, # of connection points: 2
#     Edge 22, Type (0, 0), BuildingBlock: AJUNOK_clean_linker_0, # of connection points: 2
#     Edge 23, Type (0, 0), BuildingBlock: AJUNOK_clean_linker_0, # of connection points: 2
# Relax obj value: 0.226
# Max RMSD: 0.178
# Mean RMSD: 0.177
data_MOF--net-dft--node1-UXUYUI_clean_sbu_0--edge1-AJUNOK_clean_linker_0
_symmetry_space_group_name_H-M    P1
_symmetry_Int_Tables_number       1
_symmetry_cell_setting            triclinic
loop_
_symmetry_equiv_pos_as_xyz
'x, y, z'
_cell_length_a     41.532237
_cell_length_b     41.42931
_cell_length_c     48.106374
_cell_angle_alpha  89.994887
_cell_angle_beta   90.001914
_cell_angle_gamma 89.980513
loop_
_atom_site_label
_atom_site_type_symbol
_atom_site_fract_x
_atom_site_fract_y
_atom_site_fract_z
_atom_type_partial_charge
Li0 Li 0.27079 0.02488 0.19811 0.0
Li1 Li 0.32019 0.99584 0.19969 0.0
Li2 Li 0.28576 0.99786 0.15564 0.0
Li3 Li 0.26885 0.96687 0.19881 0.0
C4 C 0.31489 0.0651 0.17624 0.0
N5 N 0.32493 0.13089 0.17914 0.0
C6 C 0.3228 0.07951 0.20159 0.0
C7 C 0.31227 0.08405 0.15232 0.0
C8 C 0.3277 0.11284 0.20265 0.0
C9 C 0.31741 0.1173 0.15423 0.0
C10 C 0.29876 0.98648 0.25265 0.0
C11 C 0.32075 0.94489 0.28216 0.0
N12 N 0.32623 0.96727 0.30229 0.0
C13 C 0.30449 0.00905 0.27368 0.0
C14 C 0.30686 0.95413 0.25694 0.0
C15 C 0.31845 -0.00113 0.29861 0.0
C16 C 0.23856 0.06222 0.2383 0.0
N17 N 0.24848 0.06213 0.21137 0.0
C18 C 0.22104 0.11178 0.20269 0.0
C19 C 0.24046 0.08642 0.19365 0.0
C20 C 0.20989 0.11206 0.2302 0.0
C21 C 0.21934 0.08729 0.2483 0.0
H22 H 0.24456 0.04221 0.25173 0.0
H23 H 0.24807 0.08547 0.1722 0.0
C24 C 0.38396 0.97597 0.19594 0.0
N25 N 0.36372 0.9944 0.21143 0.0
C26 C 0.41673 0.97505 0.20202 0.0
C27 C 0.4074 0.01226 0.23989 0.0
C28 C 0.37472 0.01243 0.23307 0.0
C29 C 0.4288 0.99343 0.22419 0.0
H30 H 0.37479 0.96269 0.17831 0.0
H31 H 0.35835 0.02756 0.24463 0.0
C32 C 0.2147 0.01168 0.17523 0.0
N33 N 0.15733 0.04529 0.17832 0.0
C34 C 0.19416 0.00728 0.19792 0.0
C35 C 0.20597 0.03302 0.15401 0.0
C36 C 0.1653 0.02457 0.19915 0.0
C37 C 0.17687 0.0498 0.15597 0.0
C38 C 0.31359 0.92898 0.16776 0.0
C39 C 0.30423 0.91666 0.14194 0.0
C40 C 0.32988 0.90912 0.18657 0.0
C41 C 0.31086 0.88443 0.13557 0.0
C42 C 0.33604 0.87703 0.17943 0.0
N43 N 0.32645 0.86544 0.1543 0.0
C44 C 0.31466 0.00473 0.1031 0.0
C45 C 0.25912 0.9914 0.10215 0.0
C46 C 0.31577 0.00526 0.07407 0.0
N47 N 0.28658 0.99805 0.1164 0.0
C48 C 0.25904 0.99204 0.07316 0.0
C49 C 0.28759 -0.00079 0.05885 0.0
H50 H 0.33614 0.00974 0.11508 0.0
H51 H 0.2373 0.98557 0.11334 0.0
C52 C 0.23062 0.93322 0.23674 0.0
N53 N 0.24552 0.93025 0.21172 0.0
C54 C 0.21148 0.90826 0.247 0.0
C55 C 0.22379 0.87728 0.20579 0.0
C56 C 0.24226 0.90309 0.19611 0.0
C57 C 0.20797 0.87973 0.23151 0.0
H58 H 0.23298 0.95538 0.24844 0.0
H59 H 0.25334 0.9016 0.17591 0.0
O60 O 0.30979 0.03256 0.17478 0.0
O61 O 0.28534 0.99613 0.22803 0.0
O62 O 0.24348 0.99565 0.17407 0.0
O63 O 0.30743 0.96053 0.17425 0.0
H64 H 0.32455 0.06518 0.22032 0.0
H65 H 0.30617 0.07319 0.13254 0.0
H66 H 0.3336 0.12437 0.22216 0.0
H67 H 0.31538 0.13232 0.13591 0.0
H68 H 0.32716 0.91992 0.28573 0.0
H69 H 0.29863 0.03426 0.27064 0.0
H70 H 0.30242 0.93632 0.24101 0.0
H71 H 0.32318 0.01611 0.31499 0.0
H72 H 0.21417 0.13059 0.18821 0.0
H73 H 0.21081 0.08663 0.26957 0.0
H74 H 0.43263 0.96108 0.18883 0.0
H75 H 0.41594 0.02706 0.25692 0.0
H76 H 0.20064 0.99105 0.21461 0.0
H77 H 0.22178 0.03709 0.13648 0.0
H78 H 0.1493 0.02159 0.2167 0.0
H79 H 0.16993 0.06659 0.13982 0.0
H80 H 0.29176 0.93173 0.12706 0.0
H81 H 0.33794 0.91842 0.20638 0.0
H82 H 0.30359 0.87452 0.11574 0.0
H83 H 0.34854 0.86136 0.19382 0.0
H84 H 0.33821 0.0108 0.06364 0.0
H85 H 0.23701 0.98673 0.06201 0.0
H86 H 0.19877 0.91177 0.26641 0.0
H87 H 0.22152 0.85583 0.19308 0.0
Li88 Li -0.00153 0.28843 0.65777 0.0
Li89 Li 0.99269 0.32255 0.69712 0.0
Li90 Li 0.02606 0.27208 0.69921 0.0
Li91 Li 0.9652 0.26963 0.69491 0.0
C92 C 0.05272 0.32284 0.65669 0.0
N93 N 0.09074 0.34423 0.61328 0.0
C94 C 0.04236 0.34834 0.63989 0.0
C95 C 0.08254 0.30836 0.65152 0.0
C96 C 0.06186 0.35873 0.61799 0.0
C97 C 0.10139 0.31952 0.62947 0.0
C98 C 0.92964 0.32279 0.67996 0.0
C99 C 0.89346 0.33887 0.71674 0.0
N100 N 0.87357 0.35251 0.6976 0.0
C101 C 0.90884 0.33711 0.66069 0.0
C102 C 0.92191 0.32382 0.70827 0.0
C103 C 0.88063 0.35195 0.67001 0.0
C104 C 0.97467 0.29825 0.60383 0.0
N105 N 0.00107 0.28783 0.61793 0.0
C106 C 0.02892 0.27809 0.57522 0.0
C107 C 0.02783 0.27753 0.60422 0.0
C108 C 0.00216 0.28923 0.56021 0.0
C109 C 0.97466 0.29912 0.57483 0.0
H110 H 0.95359 0.30594 0.61513 0.0
H111 H 0.04843 0.26899 0.6157 0.0
C112 C 0.99393 0.37639 0.7356 0.0
N113 N 0.98826 0.3661 0.70919 0.0
C114 C 0.99104 0.40911 0.74226 0.0
C115 C 0.97572 0.41974 0.69467 0.0
C116 C 0.9789 0.38696 0.68896 0.0
C117 C 0.98191 0.43119 0.72159 0.0
H118 H 0.0009 0.35947 0.75148 0.0
H119 H 0.97414 0.37812 0.66823 0.0
C120 C 0.00762 0.22284 0.65589 0.0
N121 N 0.02561 0.17615 0.61798 0.0
C122 C 0.98418 0.20478 0.64207 0.0
C123 C 0.04021 0.21709 0.65055 0.0
C124 C 0.99377 0.18126 0.62296 0.0
C125 C 0.04881 0.19345 0.63124 0.0
C126 C -0.00092 0.29089 0.75284 0.0
C127 C 0.02933 0.30236 0.76082 0.0
C128 C 0.97646 0.28264 0.77314 0.0
C129 C 0.03647 0.30543 0.78908 0.0
C130 C 0.9845 0.28609 0.80118 0.0
N131 N 0.01409 0.2973 0.8085 0.0
C132 C 0.09005 0.26366 0.72048 0.0
C133 C 0.05514 0.21841 0.72215 0.0
C134 C 0.11523 0.24535 0.7316 0.0
N135 N 0.06089 0.2498 0.71576 0.0
C136 C 0.0796 0.19921 0.73306 0.0
C137 C 0.11022 0.21254 0.73764 0.0
H138 H 0.09379 0.28884 0.7155 0.0
H139 H 0.03162 0.20815 0.71822 0.0
C140 C 0.90008 0.24669 0.69467 0.0
N141 N 0.92988 0.24398 0.70614 0.0
C142 C 0.87509 0.2267 0.70368 0.0
C143 C 0.91224 0.20104 0.73547 0.0
C144 C 0.93636 0.22172 0.72608 0.0
C145 C 0.88113 0.20332 0.72419 0.0
H146 H 0.89567 0.26426 0.67851 0.0
H147 H 0.96044 0.21992 0.73452 0.0
O148 O 0.03391 0.31223 0.67818 0.0
O149 O 0.95771 0.30876 0.67101 0.0
O150 O -0.00127 0.24522 0.6753 0.0
O151 O 0.99174 0.28715 0.72533 0.0
H152 H 0.01931 0.35968 0.64345 0.0
H153 H 0.09086 0.28844 0.66413 0.0
H154 H 0.05401 0.37827 0.6047 0.0
H155 H 0.12444 0.30842 0.62515 0.0
H156 H 0.88721 0.33975 0.73856 0.0
H157 H 0.91447 0.33697 0.63875 0.0
H158 H 0.93755 0.31318 0.72363 0.0
H159 H 0.86437 0.36311 0.65529 0.0
H160 H 0.05033 0.26959 0.56465 0.0
H161 H 0.95351 0.30777 0.56396 0.0
H162 H 0.99604 0.4171 0.76326 0.0
H163 H 0.96934 0.43606 0.67796 0.0
H164 H 0.95886 0.20877 0.64621 0.0
H165 H 0.05867 0.23096 0.66097 0.0
H166 H 0.9759 0.16702 0.61214 0.0
H167 H 0.07393 0.18886 0.6268 0.0
H168 H 0.04689 0.30931 0.74535 0.0
H169 H 0.95292 0.27374 0.76729 0.0
H170 H 0.05975 0.31438 0.79556 0.0
H171 H 0.96722 0.27984 0.81712 0.0
H172 H 0.13827 0.25671 0.73544 0.0
H173 H 0.07479 0.17399 0.73732 0.0
H174 H 0.85131 0.22966 0.6948 0.0
H175 H 0.91798 0.18315 0.75112 0.0
Li176 Li 0.67657 0.00443 0.20273 0.0
Li177 Li 0.72626 0.97589 0.20087 0.0
Li178 Li 0.72714 0.03418 0.20092 0.0
Li179 Li 0.71 0.00256 0.15832 0.0
C180 C 0.69817 0.01184 0.25571 0.0
N181 N 0.67022 0.02558 0.30646 0.0
C182 C 0.69386 0.98738 0.27538 0.0
C183 C 0.68854 0.04333 0.26195 0.0
C184 C 0.6796 0.99479 0.30089 0.0
C185 C 0.67438 0.04978 0.28769 0.0
C186 C 0.67976 0.93562 0.1805 0.0
C187 C 0.6705 0.88356 0.15964 0.0
N188 N 0.66442 0.87101 0.18524 0.0
C189 C 0.67343 0.92226 0.2066 0.0
C190 C 0.67833 0.91619 0.15681 0.0
C191 C 0.66575 0.88952 0.20857 0.0
C192 C 0.61251 0.02292 0.19899 0.0
N193 N 0.63301 0.00498 0.21466 0.0
C194 C 0.58935 0.9855 0.24234 0.0
C195 C 0.62217 0.98659 0.23614 0.0
C196 C 0.5676 0.00313 0.22599 0.0
C197 C 0.57957 0.02248 0.20439 0.0
H198 H 0.62162 0.03674 0.18164 0.0
H199 H 0.63873 0.97203 0.24799 0.0
C200 C 0.7612 0.94012 0.24019 0.0
N201 N 0.74915 0.9391 0.21394 0.0
C202 C 0.78067 0.91515 0.24996 0.0
C203 C 0.7751 0.88862 0.20542 0.0
C204 C 0.75535 0.91387 0.19665 0.0
C205 C 0.78818 0.88938 0.23227 0.0
H206 H 0.75662 0.96089 0.25319 0.0
H207 H 0.74598 0.91397 0.17568 0.0
C208 C 0.68234 0.07144 0.17077 0.0
N209 N 0.67058 0.13545 0.15831 0.0
C210 C 0.69081 0.08382 0.14474 0.0
C211 C 0.66745 0.09146 0.19029 0.0
C212 C 0.68476 0.11629 0.13888 0.0
C213 C 0.66185 0.1238 0.18365 0.0
C214 C 0.78172 0.99004 0.1776 0.0
C215 C 0.80282 0.99658 0.19952 0.0
C216 C 0.7902 0.96719 0.15751 0.0
C217 C 0.83201 0.97991 0.2011 0.0
C218 C 0.81964 0.95106 0.15982 0.0
N219 N 0.83974 0.95768 0.18139 0.0
C220 C 0.76372 0.06979 0.23877 0.0
C221 C 0.75474 0.09718 0.19624 0.0
C222 C 0.78297 0.09501 0.24837 0.0
N223 N 0.75009 0.07129 0.21313 0.0
C224 C 0.77335 0.12324 0.2052 0.0
C225 C 0.78793 0.12228 0.23153 0.0
H226 H 0.76048 0.04848 0.25144 0.0
H227 H 0.74476 0.09735 0.17555 0.0
C228 C 0.67978 0.99604 0.10639 0.0
N229 N 0.70844 0.00157 0.11917 0.0
C230 C 0.67812 0.99463 0.07741 0.0
C231 C 0.73548 0.00461 0.07549 0.0
C232 C 0.73596 0.00624 0.10445 0.0
C233 C 0.70632 -0.00145 0.06173 0.0
H234 H 0.65829 0.99259 0.11875 0.0
H235 H 0.75827 0.01117 0.11521 0.0
O236 O 0.71205 0.00499 0.2306 0.0
O237 O 0.68736 0.96759 0.1781 0.0
O238 O 0.688 0.03969 0.17681 0.0
O239 O 0.75262 0.00543 0.17618 0.0
H240 H 0.70104 0.96283 0.27086 0.0
H241 H 0.69207 0.06259 0.24712 0.0
H242 H 0.67593 0.97606 0.31623 0.0
H243 H 0.66674 0.07404 0.29277 0.0
H244 H 0.66926 0.8682 0.14148 0.0
H245 H 0.67503 0.93688 0.22515 0.0
H246 H 0.68323 0.92623 0.13646 0.0
H247 H 0.66094 0.8788 0.22865 0.0
H248 H 0.58103 0.97054 0.25935 0.0
H249 H 0.56348 0.0361 0.1911 0.0
H250 H 0.79082 0.91657 0.27067 0.0
H251 H 0.78067 0.86907 0.19126 0.0
H252 H 0.70217 0.06859 0.12932 0.0
H253 H 0.66012 0.0821 0.21029 0.0
H254 H 0.69137 0.12626 0.1189 0.0
H255 H 0.65046 0.13961 0.1986 0.0
H256 H 0.79653 0.01403 0.21533 0.0
H257 H 0.77396 0.96147 0.14063 0.0
H258 H 0.84848 0.98457 0.21805 0.0
H259 H 0.82639 0.9331 0.14457 0.0
H260 H 0.79475 0.09258 0.26833 0.0
H261 H 0.77678 0.14365 0.19145 0.0
H262 H 0.65523 0.99 0.06738 0.0
H263 H 0.75757 0.00827 0.06395 0.0
Li264 Li 0.97536 0.73026 0.69934 0.0
Li265 Li 0.03418 0.72525 0.69858 0.0
Li266 Li 0.00163 0.70977 0.6581 0.0
Li267 Li 0.00194 0.67765 0.70072 0.0
C268 C 0.99643 0.78382 0.67353 0.0
N269 N 0.9745 0.84677 0.6724 0.0
C270 C 0.01325 0.808 0.68766 0.0
C271 C 0.96861 0.79169 0.65865 0.0
C272 C 0.00174 0.83968 0.68686 0.0
C273 C 0.95785 0.82364 0.6584 0.0
C274 C -8e-05 0.69666 0.75263 0.0
C275 C 0.01977 0.66098 0.78833 0.0
N276 N 0.99033 0.66154 0.80071 0.0
C277 C 0.9699 0.69702 0.76575 0.0
C278 C 0.02513 0.67866 0.76404 0.0
C279 C 0.96553 0.67906 0.79004 0.0
C280 C 0.9099 0.74687 0.70911 0.0
N281 N 0.94107 0.75544 0.7135 0.0
C282 C 0.92483 0.80192 0.73919 0.0
C283 C 0.94889 0.78199 0.7286 0.0
C284 C 0.89233 0.79369 0.73524 0.0
C285 C 0.88498 0.76573 0.71994 0.0
H286 H 0.90443 0.72531 0.69737 0.0
H287 H 0.9739 0.78783 0.73221 0.0
C288 C 0.09215 0.76033 0.69159 0.0
N289 N 0.07189 0.74682 0.71051 0.0
C290 C 0.11707 0.78049 0.70042 0.0
C291 C 0.09979 0.77223 0.74792 0.0
C292 C 0.07552 0.75191 0.73823 0.0
C293 C 0.12041 0.78721 0.72882 0.0
H294 H 0.08802 0.7567 0.66963 0.0
H295 H 0.05862 0.74145 0.75273 0.0
C296 C 0.94554 0.67805 0.65814 0.0
N297 N 0.90927 0.6515 0.61579 0.0
C298 C 0.94641 0.64479 0.65327 0.0
C299 C 0.92601 0.69775 0.64165 0.0
C300 C 0.92792 0.63184 0.63173 0.0
C301 C 0.90795 0.68389 0.62027 0.0
C302 C 0.07031 0.68492 0.67023 0.0
C303 C 0.08249 0.69397 0.64429 0.0
C304 C 0.09147 0.67563 0.69137 0.0
C305 C 0.11576 0.69384 0.64001 0.0
C306 C 0.12458 0.67589 0.68627 0.0
N307 N 0.13594 0.68492 0.66092 0.0
C308 C 0.00199 0.73677 0.60438 0.0
C309 C -0.00123 0.67963 0.60529 0.0
C310 C 0.00126 0.73676 0.5754 0.0
N311 N 0.00038 0.70851 0.61866 0.0
C312 C 0.99754 0.67852 0.57631 0.0
C313 C -0.00132 0.70738 0.5611 0.0
H314 H 0.00406 0.75933 0.61548 0.0
H315 H -0.00143 0.65748 0.61716 0.0
C316 C 0.97118 0.62501 0.72696 0.0
N317 N -0.00135 0.63489 0.71417 0.0
C318 C 0.96698 0.59254 0.73382 0.0
C319 C 0.01966 0.58134 0.71466 0.0
C320 C 0.02293 0.614 0.70839 0.0
C321 C 0.99107 0.57013 0.72689 0.0
H322 H 0.95208 0.64215 0.7309 0.0
H323 H 0.04427 0.62247 0.69782 0.0
O324 O 0.00715 0.7526 0.67425 0.0
O325 O 0.00458 0.71372 0.72864 0.0
O326 O 0.96367 0.69124 0.67897 0.0
O327 O 0.03784 0.68512 0.67491 0.0
H328 H 0.03479 0.80236 0.69932 0.0
H329 H 0.95535 0.77328 0.64757 0.0
H330 H 0.01443 0.85861 0.6978 0.0
H331 H 0.93626 0.83004 0.64709 0.0
H332 H 0.03899 0.64679 0.79732 0.0
H333 H 0.95014 0.71081 0.75717 0.0
H334 H 0.0485 0.67815 0.7541 0.0
H335 H 0.9424 0.67899 0.80037 0.0
H336 H 0.93171 0.82373 0.75005 0.0
H337 H 0.86026 0.75843 0.71652 0.0
H338 H 0.13239 0.79211 0.68519 0.0
H339 H 0.10173 0.77717 0.76997 0.0
H340 H 0.96143 0.62917 0.66577 0.0
H341 H 0.92496 0.7235 0.64523 0.0
H342 H 0.92847 0.60617 0.62763 0.0
H343 H 0.89288 0.69887 0.60723 0.0
H344 H 0.06646 0.7012 0.6277 0.0
H345 H 0.08241 0.66861 0.71157 0.0
H346 H 0.12554 0.7009 0.62008 0.0
H347 H 0.14125 0.66896 0.70249 0.0
H348 H 0.00238 0.75946 0.56426 0.0
H349 H 0.99618 0.65539 0.56588 0.0
H350 H 0.9448 0.58491 0.74364 0.0
H351 H 0.03865 0.56479 0.70872 0.0
Li352 Li 0.26919 0.03177 0.79996 0.0
Li353 Li 0.28635 -0.0012 0.84112 0.0
Li354 Li 0.31869 0.0025 0.79814 0.0
Li355 Li 0.27012 0.97277 0.79682 0.0
C356 C 0.30933 0.06905 0.83059 0.0
N357 N 0.31226 0.13413 0.84276 0.0
C358 C 0.29685 0.08064 0.85566 0.0
C359 C 0.32366 0.09045 0.81188 0.0
C360 C 0.29846 0.11366 0.86138 0.0
C361 C 0.32481 0.1233 0.81836 0.0
C362 C 0.21421 0.98714 0.81988 0.0
C363 C 0.17676 0.94453 0.83086 0.0
N364 N 0.15544 0.95717 0.81236 0.0
C365 C 0.1919 -0.00021 0.80104 0.0
C366 C 0.20657 0.95938 0.83502 0.0
C367 C 0.16231 0.98426 0.79753 0.0
C368 C 0.24125 0.07572 0.76232 0.0
N369 N 0.24601 0.06937 0.78972 0.0
C370 C 0.21303 0.11416 0.80268 0.0
C371 C 0.23226 0.08782 0.80985 0.0
C372 C 0.20747 0.12119 0.77452 0.0
C373 C 0.22192 0.1016 0.75421 0.0
H374 H 0.25151 0.06002 0.74675 0.0
H375 H 0.23552 0.08153 0.83147 0.0
C376 C 0.31553 -0.00069 0.89382 0.0
N377 N 0.28687 0.99713 0.88033 0.0
C378 C 0.31644 5e-05 0.92284 0.0
C379 C 0.25836 0.99581 0.92339 0.0
C380 C 0.25857 0.99537 0.8944 0.0
C381 C 0.28754 -0.00138 0.93797 0.0
H382 H 0.33761 0.00102 0.88197 0.0
H383 H 0.23612 0.99401 0.88309 0.0
C384 C 0.29997 0.00724 0.74438 0.0
N385 N 0.33131 0.01299 0.69398 0.0
C386 C 0.30004 0.98148 0.72562 0.0
C387 C 0.31549 0.03604 0.73739 0.0
C388 C 0.3161 0.98485 0.70026 0.0
C389 C 0.33132 0.03843 0.71186 0.0
C390 C 0.33063 0.94087 0.8147 0.0
C391 C 0.3313 0.9255 0.78885 0.0
C392 C 0.35393 0.93337 0.83463 0.0
C393 C 0.35535 0.90283 0.78333 0.0
C394 C 0.37756 0.91049 0.82834 0.0
N395 N 0.37778 0.89583 0.80304 0.0
C396 C 0.38236 0.02088 0.80417 0.0
C397 C 0.37464 0.98755 0.7647 0.0
C398 C 0.41539 0.02201 0.79926 0.0
N399 N 0.36272 0.00389 0.78698 0.0
C400 C 0.40758 0.98825 0.75886 0.0
C401 C 0.42838 0.00565 0.7763 0.0
H402 H 0.37245 0.03289 0.82218 0.0
H403 H 0.35884 0.97337 0.75178 0.0
C404 C 0.22722 0.94232 0.76066 0.0
N405 N 0.24756 0.9369 0.78228 0.0
C406 C 0.20748 0.91759 0.75094 0.0
C407 C 0.23111 0.88179 0.78508 0.0
C408 C 0.25009 0.90738 0.79444 0.0
C409 C 0.20912 0.88708 0.76346 0.0
H410 H 0.22566 0.96617 0.75159 0.0
H411 H 0.26619 0.90398 0.81186 0.0
O412 O 0.30791 0.03683 0.82457 0.0
O413 O 0.24373 0.00133 0.82289 0.0
O414 O 0.28415 0.00449 0.76918 0.0
O415 O 0.30724 0.96309 0.82053 0.0
H416 H 0.28575 0.06437 0.87041 0.0
H417 H 0.33391 0.08178 0.79261 0.0
H418 H 0.28871 0.12302 0.88061 0.0
H419 H 0.33574 0.14017 0.80403 0.0
H420 H 0.17063 0.92286 0.84224 0.0
H421 H 0.19751 0.02112 0.78902 0.0
H422 H 0.22375 0.94906 0.84943 0.0
H423 H 0.14488 0.99366 0.78291 0.0
H424 H 0.20209 0.12849 0.81897 0.0
H425 H 0.21732 0.1054 0.7323 0.0
H426 H 0.33941 0.00234 0.93332 0.0
H427 H 0.23561 0.99393 0.93427 0.0
H428 H 0.28795 0.9591 0.73063 0.0
H429 H 0.3153 0.0563 0.75154 0.0
H430 H 0.31649 0.96507 0.68558 0.0
H431 H 0.34357 0.06053 0.70623 0.0
H432 H 0.31365 0.93127 0.77309 0.0
H433 H 0.3537 0.94507 0.85475 0.0
H434 H 0.35622 0.89084 0.76337 0.0
H435 H 0.39572 0.90438 0.84358 0.0
H436 H 0.43069 0.0347 0.81384 0.0
H437 H 0.41673 0.975 0.74113 0.0
H438 H 0.19071 0.92234 0.73419 0.0
H439 H 0.23266 0.85852 0.79526 0.0
Li440 Li 0.00547 0.32141 0.30068 0.0
Li441 Li 0.00183 0.28741 0.34209 0.0
Li442 Li 0.03272 0.27062 0.30125 0.0
Li443 Li 0.97401 0.27163 0.30035 0.0
C444 C 0.07259 0.30544 0.33015 0.0
N445 N 0.13797 0.29719 0.3379 0.0
C446 C 0.08411 0.29121 0.35454 0.0
C447 C 0.0943 0.31562 0.30975 0.0
C448 C 0.11726 0.28725 0.35807 0.0
C449 C 0.12727 0.31116 0.31404 0.0
C450 C 0.95053 0.32476 0.34407 0.0
C451 C 0.91473 0.32117 0.38342 0.0
N452 N 0.92009 0.35289 0.38903 0.0
C453 C 0.9556 0.35736 0.35016 0.0
C454 C 0.92982 0.30653 0.36074 0.0
C455 C 0.93999 0.37113 0.37299 0.0
C456 C 0.98139 0.37798 0.27492 0.0
N457 N 0.00656 0.36511 0.28923 0.0
C458 C 0.03087 0.41695 0.29407 0.0
C459 C 0.03129 0.38371 0.29845 0.0
C460 C 0.00489 0.43093 0.2799 0.0
C461 C 0.98025 0.41111 0.26968 0.0
H462 H 0.96159 0.36272 0.2686 0.0
H463 H 0.05059 0.37294 0.31031 0.0
C464 C 0.99574 0.26043 0.39602 0.0
N465 N 0.00121 0.28807 0.38158 0.0
C466 C 0.99587 0.26073 0.42504 0.0
C467 C 0.00747 0.3179 0.42374 0.0
C468 C 0.00723 0.31646 0.39475 0.0
C469 C 0.00197 0.28971 0.43923 0.0
H470 H 0.99164 0.23808 0.38505 0.0
H471 H 0.01191 0.33799 0.38269 0.0
C472 C 0.00113 0.30494 0.24804 0.0
N473 N 0.99373 0.34248 0.201 0.0
C474 C 0.97144 0.30611 0.23439 0.0
C475 C 0.0271 0.32271 0.23768 0.0
C476 C 0.96819 0.32525 0.21064 0.0
C477 C 0.02285 0.34161 0.21391 0.0
C478 C 0.98869 0.21521 0.32309 0.0
C479 C 0.00216 0.1909 0.30663 0.0
C480 C 0.9601 0.20924 0.33756 0.0
C481 C 0.98667 0.16105 0.30478 0.0
C482 C 0.9453 0.17911 0.33509 0.0
N483 N 0.95878 0.15583 0.3189 0.0
C484 C 0.08416 0.22672 0.30717 0.0
C485 C 0.07787 0.24853 0.26191 0.0
C486 C 0.10876 0.20643 0.29791 0.0
N487 N 0.06906 0.24685 0.28906 0.0
C488 C 0.10238 0.22875 0.25178 0.0
C489 C 0.11758 0.20681 0.26974 0.0
H490 H 0.07631 0.22567 0.32859 0.0
H491 H 0.06528 0.26455 0.24794 0.0
C492 C 0.9071 0.25883 0.29353 0.0
N493 N 0.93737 0.2503 0.28574 0.0
C494 C 0.88063 0.24121 0.28399 0.0
C495 C 0.91712 0.2069 0.25827 0.0
C496 C 0.94273 0.22553 0.26784 0.0
C497 C 0.88557 0.21431 0.26668 0.0
H498 H 0.90353 0.2791 0.30733 0.0
H499 H 0.96707 0.21974 0.26161 0.0
O500 O 0.04021 0.30904 0.32608 0.0
O501 O 0.96592 0.3107 0.32205 0.0
O502 O 0.00474 0.28652 0.27143 0.0
O503 O 0.0032 0.2448 0.32479 0.0
H504 H 0.06763 0.28306 0.37048 0.0
H505 H 0.08574 0.32654 0.2907 0.0
H506 H 0.12653 0.27618 0.3768 0.0
H507 H 0.14435 0.31875 0.29837 0.0
H508 H 0.89879 0.3073 0.3966 0.0
H509 H 0.9716 0.37184 0.33757 0.0
H510 H 0.92568 0.28127 0.35636 0.0
H511 H 0.94379 0.3963 0.37801 0.0
H512 H 0.05005 0.43176 0.30246 0.0
H513 H 0.95957 0.42135 0.25916 0.0
H514 H 0.99177 0.23845 0.43627 0.0
H515 H 0.01172 0.34083 0.4339 0.0
H516 H 0.95107 0.29256 0.24212 0.0
H517 H 0.05018 0.32225 0.2481 0.0
H518 H 0.94533 0.32647 0.19991 0.0
H519 H 0.04268 0.35565 0.20577 0.0
H520 H 0.02411 0.19512 0.29511 0.0
H521 H 0.94921 0.22783 0.35022 0.0
H522 H 0.99675 0.14207 0.29201 0.0
H523 H 0.92303 0.17426 0.34598 0.0
H524 H 0.11985 0.18973 0.31236 0.0
H525 H 0.10894 0.23014 0.23003 0.0
H526 H 0.85666 0.24847 0.29021 0.0
H527 H 0.92208 0.1864 0.24497 0.0
Li528 Li 0.70879 0.99839 0.84421 0.0
Li529 Li 0.72724 0.96795 0.8019 0.0
Li530 Li 0.72494 0.02662 0.80194 0.0
Li531 Li 0.67613 0.99606 0.7996 0.0
C532 C 0.78021 0.01358 0.82574 0.0
N533 N 0.83733 0.04747 0.82245 0.0
C534 C 0.80419 0.00381 0.80719 0.0
C535 C 0.78532 0.04043 0.84277 0.0
C536 C 0.83291 0.02129 0.80582 0.0
C537 C 0.81436 0.05729 0.84074 0.0
C538 C 0.68562 0.9282 0.82972 0.0
C539 C 0.67369 0.87468 0.81297 0.0
N540 N 0.68135 0.86243 0.83836 0.0
C541 C 0.69312 0.91515 0.85572 0.0
C542 C 0.67557 0.90789 0.80822 0.0
C543 C 0.69089 0.88181 0.85965 0.0
C544 C 0.67844 0.99737 0.89659 0.0
N545 N 0.70736 0.99783 0.88339 0.0
C546 C 0.73535 0.99669 0.92669 0.0
C547 C 0.73554 0.99743 0.89772 0.0
C548 C 0.70588 0.99584 0.94098 0.0
C549 C 0.67713 0.99639 0.9256 0.0
H550 H 0.65645 0.99759 0.88453 0.0
H551 H 0.75816 0.99764 0.88662 0.0
C552 C 0.7628 0.93154 0.76353 0.0
N553 N 0.75186 0.93191 0.79014 0.0
C554 C 0.78389 0.90737 0.75475 0.0
C555 C 0.78098 0.8837 0.8006 0.0
C556 C 0.76059 0.90875 0.80868 0.0
C557 C 0.79366 0.88329 0.77352 0.0
H558 H 0.75609 0.95069 0.74941 0.0
H559 H 0.75241 0.91013 0.82994 0.0
C560 C 0.68044 0.0649 0.83062 0.0
N561 N 0.6695 0.12897 0.84341 0.0
C562 C 0.6652 0.08507 0.81142 0.0
C563 C 0.68997 0.07724 0.8564 0.0
C564 C 0.65994 0.11743 0.81826 0.0
C565 C 0.68427 0.10972 0.86244 0.0
C566 C 0.69744 0.99609 0.74689 0.0
C567 C 0.69408 0.02453 0.73154 0.0
C568 C 0.68605 0.96699 0.73601 0.0
C569 C 0.67894 0.02344 0.70562 0.0
C570 C 0.67101 0.9669 0.71003 0.0
N571 N 0.66778 0.99489 0.69551 0.0
C572 C 0.76572 0.0566 0.76452 0.0
C573 C 0.74878 0.09266 0.79981 0.0
C574 C 0.78549 0.08023 0.75294 0.0
N575 N 0.74787 0.0631 0.78753 0.0
C576 C 0.76788 0.11719 0.78869 0.0
C577 C 0.78663 0.11108 0.76498 0.0
H578 H 0.7653 0.03264 0.75561 0.0
H579 H 0.73557 0.09714 0.81866 0.0
C580 C 0.61288 0.97314 0.79874 0.0
N581 N 0.63295 0.99497 0.78676 0.0
C582 C 0.57999 0.97379 0.79297 0.0
C583 C 0.58916 0.01854 0.76172 0.0
C584 C 0.62184 0.01728 0.76838 0.0
C585 C 0.56766 0.99721 0.77474 0.0
H586 H 0.62219 0.95607 0.8137 0.0
H587 H 0.63809 0.03484 0.75959 0.0
O588 O 0.75155 0.99742 0.82674 0.0
O589 O 0.68782 0.96075 0.82545 0.0
O590 O 0.68528 0.03305 0.82456 0.0
O591 O 0.71221 0.99666 0.77229 0.0
H592 H 0.80053 0.98316 0.79379 0.0
H593 H 0.76683 0.04849 0.85702 0.0
H594 H 0.85162 0.01413 0.79145 0.0
H595 H 0.81855 0.07829 0.8536 0.0
H596 H 0.66611 0.85864 0.79648 0.0
H597 H 0.70084 0.93055 0.87262 0.0
H598 H 0.66932 0.91768 0.7881 0.0
H599 H 0.6968 0.87133 0.87961 0.0
H600 H 0.75805 0.99708 0.93777 0.0
H601 H 0.65393 0.99572 0.93587 0.0
H602 H 0.7933 0.90819 0.73377 0.0
H603 H 0.78715 0.8652 0.81558 0.0
H604 H 0.65767 0.07591 0.7914 0.0
H605 H 0.70183 0.062 0.8715 0.0
H606 H 0.64825 0.13336 0.80357 0.0
H607 H 0.69161 0.11963 0.88226 0.0
H608 H 0.70268 0.04729 0.7397 0.0
H609 H 0.68884 0.94472 0.74748 0.0
H610 H 0.67598 0.04529 0.69359 0.0
H611 H 0.66196 0.94457 0.70139 0.0
H612 H 0.80044 0.07406 0.73529 0.0
H613 H 0.76833 0.14056 0.79877 0.0
H614 H 0.56419 0.9571 0.80366 0.0
H615 H 0.58072 0.03659 0.74715 0.0
Li616 Li 0.96531 0.7303 0.3023 0.0
Li617 Li 0.02395 0.72891 0.30187 0.0
Li618 Li 0.99223 0.67934 0.30174 0.0
Li619 Li 0.99565 0.71303 0.34323 0.0
C620 C 0.99705 0.69595 0.24928 0.0
N621 N 0.00443 0.65828 0.20232 0.0
C622 C 0.02694 0.69412 0.23602 0.0
C623 C 0.97087 0.67878 0.23857 0.0
C624 C 0.03018 0.67492 0.2123 0.0
C625 C 0.97511 0.6598 0.21485 0.0
C626 C 0.00938 0.78529 0.32422 0.0
C627 C 0.05283 0.82141 0.33605 0.0
N628 N 0.03976 0.84435 0.31927 0.0
C629 C 0.99632 0.80927 0.30716 0.0
C630 C 0.03777 0.79144 0.33891 0.0
C631 C 0.01204 0.83897 0.30494 0.0
C632 C 0.91377 0.77396 0.30823 0.0
N633 N 0.92933 0.75441 0.28994 0.0
C634 C 0.89686 0.7736 0.2525 0.0
C635 C 0.92122 0.75361 0.26259 0.0
C636 C 0.88108 0.79483 0.27071 0.0
C637 C 0.88928 0.79441 0.29901 0.0
H638 H 0.92112 0.77439 0.32979 0.0
H639 H 0.93423 0.73809 0.24849 0.0
C640 C 0.09087 0.74314 0.29629 0.0
N641 N 0.06063 0.75033 0.28747 0.0
C642 C 0.11709 0.76115 0.28677 0.0
C643 C 0.08044 0.79299 0.25893 0.0
C644 C 0.0551 0.77408 0.26862 0.0
C645 C 0.11189 0.78697 0.26832 0.0
H646 H 0.09459 0.7237 0.31093 0.0
H647 H 0.03079 0.77888 0.26171 0.0
C648 C 0.9249 0.69551 0.3308 0.0
N649 N 0.8595 0.70397 0.3383 0.0
C650 C 0.91326 0.70925 0.35536 0.0
C651 C 0.90329 0.68591 0.31011 0.0
C652 C 0.8801 0.71333 0.35875 0.0
C653 C 0.87032 0.69047 0.31427 0.0
C654 C 0.04659 0.67546 0.34563 0.0
C655 C 0.04139 0.64283 0.3515 0.0
C656 C 0.06679 0.69365 0.3628 0.0
C657 C 0.05631 0.62899 0.37465 0.0
C658 C 0.0812 0.67894 0.38578 0.0
N659 N 0.0757 0.64719 0.39118 0.0
C660 C 0.01627 0.62268 0.27617 0.0
C661 C 0.96565 0.61738 0.2986 0.0
C662 C 0.01713 0.58959 0.27073 0.0
N663 N 0.99087 0.63574 0.29004 0.0
C664 C 0.96575 0.58419 0.29397 0.0
C665 C 0.99194 0.56999 0.28026 0.0
H666 H 0.03644 0.63773 0.27038 0.0
H667 H 0.94616 0.62829 0.31012 0.0
C668 C 0.00171 0.73932 0.39739 0.0
N669 N 0.99591 0.71196 0.38267 0.0
C670 C 0.00185 0.73854 0.42639 0.0
C671 C 0.98984 0.68147 0.42448 0.0
C672 C 0.9897 0.68342 0.39553 0.0
C673 C 0.99581 0.70933 0.44028 0.0
H674 H 0.006 0.7618 0.38664 0.0
H675 H 0.98477 0.66214 0.38324 0.0
O676 O 0.99345 0.71438 0.27265 0.0
O677 O 0.99472 0.7558 0.32622 0.0
O678 O 0.95729 0.69177 0.32688 0.0
O679 O 0.03171 0.68963 0.32339 0.0
H680 H 0.04748 0.70717 0.24405 0.0
H681 H 0.94762 0.67976 0.24868 0.0
H682 H 0.0532 0.67318 0.20189 0.0
H683 H 0.95512 0.64622 0.20644 0.0
H684 H 0.07497 0.82637 0.34709 0.0
H685 H 0.97453 0.80491 0.29546 0.0
H686 H 0.04836 0.77309 0.35203 0.0
H687 H 0.00229 0.85769 0.2917 0.0
H688 H 0.89081 0.77285 0.23061 0.0
H689 H 0.87773 0.81056 0.31365 0.0
H690 H 0.14107 0.75504 0.29385 0.0
H691 H 0.07532 0.81266 0.24477 0.0
H692 H 0.92965 0.71693 0.37153 0.0
H693 H 0.91194 0.67536 0.29094 0.0
H694 H 0.87075 0.72402 0.3776 0.0
H695 H 0.85332 0.68334 0.29838 0.0
H696 H 0.02575 0.62839 0.33854 0.0
H697 H 0.07096 0.71896 0.35863 0.0
H698 H 0.05237 0.60381 0.37952 0.0
H699 H 0.09669 0.69279 0.39936 0.0
H700 H 0.03798 0.57919 0.26059 0.0
H701 H 0.94613 0.56957 0.30183 0.0
H702 H 0.00628 0.7606 0.43784 0.0
H703 H 0.98566 0.65836 0.43436 0.0
C704 C 0.30959 0.98078 0.01314 0.0
C705 C 0.28793 0.0002 0.02812 0.0
C706 C 0.30948 0.98058 0.98398 0.0
C707 C 0.28784 -6e-05 0.96882 0.0
H708 H 0.32627 0.96516 0.02404 0.0
H709 H 0.32606 0.96469 0.97325 0.0
S710 S 0.22884 0.05775 0.99851 0.0
N711 N 0.24584 0.0408 0.0259 0.0
N712 N 0.24599 0.04098 0.97112 0.0
C713 C 0.26673 0.02019 0.98366 0.0
C714 C 0.2667 0.02018 0.0133 0.0
C715 C 0.97722 0.27594 0.51429 0.0
C716 C 0.00258 0.29002 0.5294 0.0
C717 C 0.97724 0.27597 0.48516 0.0
C718 C 0.00247 0.29033 0.47007 0.0
H719 H 0.9574 0.26446 0.52507 0.0
H720 H 0.95722 0.26484 0.47436 0.0
S721 S 0.07426 0.33089 0.49984 0.0
N722 N 0.05325 0.31924 0.52721 0.0
N723 N 0.05356 0.31888 0.47242 0.0
C724 C 0.02788 0.30468 0.48494 0.0
C725 C 0.0279 0.30455 0.5146 0.0
C726 C 0.68493 0.01615 0.98661 0.0
C727 C 0.70519 0.99498 0.97182 0.0
C728 C 0.68498 0.01679 0.01575 0.0
C729 C 0.70544 0.99645 0.03106 0.0
H730 H 0.66945 0.03286 0.97558 0.0
H731 H 0.66948 0.03384 0.02637 0.0
S732 S 0.76036 0.9342 0.00257 0.0
N733 N 0.74418 0.95127 0.97487 0.0
N734 N 0.74468 0.95304 0.02963 0.0
C735 C 0.72514 0.97461 0.01664 0.0
C736 C 0.72492 0.97374 0.98702 0.0
C737 C 0.02128 0.72292 0.48596 0.0
C738 C 0.99611 0.70807 0.47112 0.0
C739 C 0.02198 0.72249 0.51506 0.0
C740 C 0.99767 0.707 0.53037 0.0
H741 H 0.04073 0.73479 0.47498 0.0
H742 H 0.04183 0.73414 0.52568 0.0
S743 S 0.92546 0.66633 0.50177 0.0
N744 N 0.94544 0.67878 0.47409 0.0
N745 N 0.94718 0.67752 0.52886 0.0
C746 C 0.97234 0.69213 0.51591 0.0
C747 C 0.97147 0.69275 0.48626 0.0
C748 C 0.47927 0.02538 0.23002 0.0
C749 C 0.46395 0.99514 0.22906 0.0
C750 C 0.51289 0.02775 0.23031 0.0
C751 C 0.53236 -3e-05 0.22986 0.0
H752 H 0.46523 0.0474 0.22917 0.0
H753 H 0.52377 0.05152 0.23005 0.0
S754 S 0.50388 0.91509 0.22991 0.0
N755 N 0.47057 0.93686 0.22994 0.0
N756 N 0.53386 0.94126 0.22996 0.0
C757 C 0.51732 0.96957 0.23033 0.0
C758 C 0.48308 0.96718 0.23 0.0
C759 C 0.00798 0.48141 0.73939 0.0
C760 C 0.98113 0.46633 0.72724 0.0
C761 C 0.01026 0.51512 0.74061 0.0
C762 C 0.9857 0.53491 0.72984 0.0
H763 H 0.02815 0.46714 0.74667 0.0
H764 H 0.03193 0.5258 0.74913 0.0
S765 S 0.90882 0.50703 0.69865 0.0
N766 N 0.92812 0.47348 0.70675 0.0
N767 N 0.93271 0.53685 0.70829 0.0
C768 C 0.95788 0.52006 0.71912 0.0
C769 C 0.95555 0.48576 0.71795 0.0
C770 C 0.51304 0.97303 0.76749 0.0
C771 C 0.5323 0.00062 0.77126 0.0
C772 C 0.47938 0.97509 0.76782 0.0
C773 C 0.46373 0.00481 0.77199 0.0
H774 H 0.52409 0.94951 0.76501 0.0
H775 H 0.46556 0.95301 0.76604 0.0
S776 S 0.50296 0.08462 0.78051 0.0
N777 N 0.53315 0.05886 0.77799 0.0
N778 N 0.46989 0.0628 0.77755 0.0
C779 C 0.48265 0.03281 0.77435 0.0
C780 C 0.51692 0.03071 0.77419 0.0
C781 C -0.00079 0.4835 0.30402 0.0
C782 C 0.00166 0.46633 0.27894 0.0
C783 C 0.99558 0.51703 0.3041 0.0
C784 C 0.99477 0.53455 0.2791 0.0
H785 H -0.0002 0.47083 0.32373 0.0
H786 H 0.99382 0.52944 0.32387 0.0
S787 S 0.00041 0.50088 0.20794 0.0
N788 N 0.0028 0.469 0.22851 0.0
N789 N 0.99672 0.5325 0.22866 0.0
C790 C 0.99738 0.51774 0.25387 0.0
C791 C 0.00056 0.48345 0.25378 0.0
C792 C 0.1709 0.17863 0.27264 0.0
C793 C 0.14133 0.18325 0.25891 0.0
C794 C 0.19321 0.15572 0.26312 0.0
C795 C 0.18671 0.13685 0.23951 0.0
H796 H 0.17685 0.19287 0.29081 0.0
H797 H 0.21571 0.1528 0.27423 0.0
S798 S 0.1118 0.13752 0.19767 0.0
N799 N 0.10601 0.16555 0.22155 0.0
N800 N 0.14815 0.1229 0.20353 0.0
C801 C 0.15719 0.14101 0.22576 0.0
C802 C 0.13445 0.16413 0.23549 0.0
C803 C 0.85153 0.17545 0.76258 0.0
C804 C 0.8554 0.18116 0.73395 0.0
C805 C 0.82875 0.15332 0.77241 0.0
C806 C 0.80888 0.13605 0.75398 0.0
H807 H 0.86643 0.18801 0.77757 0.0
H808 H 0.82732 0.14911 0.7946 0.0
S809 S 0.80842 0.14312 0.67708 0.0
N810 N 0.83712 0.16804 0.68725 0.0
N811 N 0.7934 0.12734 0.7058 0.0
C812 C 0.81189 0.14213 0.72532 0.0
C813 C 0.83527 0.16453 0.71529 0.0
C814 C 0.82732 0.8221 0.27355 0.0
C815 C 0.85718 0.81835 0.26008 0.0
C816 C 0.80484 0.84497 0.2643 0.0
C817 C 0.81144 0.86459 0.24119 0.0
H818 H 0.8213 0.80723 0.29133 0.0
H819 H 0.78214 0.84731 0.27523 0.0
S820 S 0.88683 0.86627 0.20013 0.0
N821 N 0.89278 0.83768 0.2235 0.0
N822 N 0.85015 0.88012 0.20587 0.0
C823 C 0.84115 0.86127 0.22765 0.0
C824 C 0.86412 0.83825 0.23715 0.0
C825 C 0.17638 0.80834 0.73493 0.0
C826 C 0.143 0.81235 0.73823 0.0
C827 C 0.19789 0.83248 0.74355 0.0
C828 C 0.18649 0.86149 0.75508 0.0
H829 H 0.18583 0.7864 0.72579 0.0
H830 H 0.22351 0.82869 0.74081 0.0
S831 S 0.10133 0.88361 0.7678 0.0
N832 N 0.09958 0.84724 0.7538 0.0
N833 N 0.13997 0.8928 0.76954 0.0
C834 C 0.1532 0.86573 0.75837 0.0
C835 C 0.13143 0.84108 0.75004 0.0
C836 C 0.81602 0.8442 0.73869 0.0
C837 C 0.81798 0.85883 0.76505 0.0
C838 C 0.83974 0.82264 0.72949 0.0
C839 C 0.86631 0.81472 0.74632 0.0
H840 H 0.79612 0.84967 0.72492 0.0
H841 H 0.83763 0.81278 0.70872 0.0
S842 S 0.88203 0.8451 0.81765 0.0
N843 N 0.84867 0.8636 0.80798 0.0
N844 N 0.89209 0.82161 0.79135 0.0
C845 C 0.86803 0.82835 0.77308 0.0
C846 C 0.84415 0.85068 0.7823 0.0
C847 C 0.16387 0.84003 0.22227 0.0
C848 C 0.18591 0.85376 0.24108 0.0
C849 C 0.1408 0.81766 0.23112 0.0
C850 C 0.1387 0.8082 0.25915 0.0
H851 H 0.16368 0.8474 0.20067 0.0
H852 H 0.1241 0.8081 0.21591 0.0
S853 S 0.19212 0.83543 0.31641 0.0
N854 N 0.20572 0.85449 0.28866 0.0
N855 N 0.16133 0.8136 0.30558 0.0
C856 C 0.1612 0.82098 0.27805 0.0
C857 C 0.18496 0.84354 0.26897 0.0
C858 C 0.13081 0.17074 0.77065 0.0
C859 C 0.13663 0.19179 0.74826 0.0
C860 C 0.15425 0.14877 0.77955 0.0
C861 C 0.18446 0.14697 0.76641 0.0
H862 H 0.10771 0.17087 0.78111 0.0
H863 H 0.14822 0.13232 0.79626 0.0
S864 S 0.21249 0.19805 0.70786 0.0
N865 N 0.17519 0.21013 0.71364 0.0
N866 N 0.21968 0.16948 0.73098 0.0
C867 C 0.19103 0.16864 0.74462 0.0
C868 C 0.16707 0.19095 0.73546 0.0
C869 C 0.85702 0.18219 0.23013 0.0
C870 C 0.85839 0.19341 0.25772 0.0
C871 C 0.83357 0.16002 0.22168 0.0
C872 C 0.81035 0.14828 0.24043 0.0
H873 H 0.87461 0.19018 0.21499 0.0
H874 H 0.83437 0.1512 0.2005 0.0
S875 S 0.8018 0.1718 0.31451 0.0
N876 N 0.83375 0.19182 0.30361 0.0
N877 N 0.78864 0.15141 0.28731 0.0
C878 C 0.81055 0.16033 0.26778 0.0
C879 C 0.83472 0.18264 0.2765 0.0
loop_
_geom_bond_atom_site_label_1
_geom_bond_atom_site_label_2
_geom_bond_distance
_geom_bond_site_symmetry_2
_ccdc_geom_bond_type
Li0 N17 1.990 . S
Li0 O60 1.956 . S
Li0 O61 1.970 . S
Li0 O62 1.972 . S
Li1 N25 1.990 1_545 S
Li1 O60 1.977 . S
Li1 O61 1.956 . S
Li1 O63 1.954 1_545 S
Li2 N47 1.990 . S
Li2 O60 1.961 . S
Li2 O62 1.956 . S
Li2 O63 1.970 1_545 S
Li3 N53 1.990 . S
Li3 O61 1.961 1_565 S
Li3 O62 1.959 1_565 S
Li3 O63 1.956 . S
C4 C6 1.348 . S
C4 C7 1.356 . S
C4 O60 1.325 . S
N5 C8 1.314 . S
N5 C9 1.279 . S
C6 C4 1.348 . S
C6 C8 1.353 . S
C6 H64 0.929 . S
C7 C4 1.356 . S
C7 C9 1.358 . S
C7 H65 0.930 . S
C8 N5 1.314 . S
C8 C6 1.353 . S
C8 H66 0.930 . S
C9 N5 1.279 . S
C9 C7 1.358 . S
C9 H67 0.930 . S
C10 C13 1.370 . S
C10 C14 1.334 1_545 S
C10 O61 1.325 . S
C11 N12 1.297 . S
C11 C14 1.358 . S
C11 H68 0.930 . S
N12 C11 1.297 . S
N12 C15 1.297 1_565 S
C13 C10 1.370 . S
C13 C15 1.353 . S
C13 H69 0.929 . S
C14 C10 1.334 1_565 S
C14 C11 1.358 . S
C14 H70 0.930 . S
C15 N12 1.297 1_545 S
C15 C13 1.353 . S
C15 H71 0.930 . S
C16 N17 1.314 . S
C16 C21 1.353 . S
C16 H22 0.930 . S
N17 Li0 1.990 . S
N17 C16 1.314 . S
N17 C19 1.279 . S
C18 C19 1.358 . S
C18 C20 1.356 . S
C18 H72 0.930 . S
C19 N17 1.279 . S
C19 C18 1.358 . S
C19 H23 0.930 . S
C20 C18 1.356 . S
C20 C21 1.348 . S
C21 C16 1.353 . S
C21 C20 1.348 . S
C21 H73 0.929 . S
H22 C16 0.930 . S
H23 C19 0.930 . S
C24 N25 1.314 . S
C24 C26 1.353 . S
C24 H30 0.930 . S
N25 Li1 1.990 1_565 S
N25 C24 1.314 . S
N25 C28 1.279 1_565 S
C26 C24 1.353 . S
C26 C29 1.338 1_565 S
C26 H74 0.929 . S
C27 C28 1.358 . S
C27 C29 1.362 . S
C27 H75 0.930 . S
C28 N25 1.279 1_545 S
C28 C27 1.358 . S
C28 H31 0.930 . S
C29 C26 1.338 1_545 S
C29 C27 1.362 . S
H30 C24 0.930 . S
H31 C28 0.930 . S
C32 C34 1.319 1_545 S
C32 C35 1.385 . S
C32 O62 1.325 . S
N33 C36 1.314 1_545 S
N33 C37 1.279 . S
C34 C32 1.319 1_565 S
C34 C36 1.353 . S
C34 H76 0.929 . S
C35 C32 1.385 . S
C35 C37 1.358 . S
C35 H77 0.930 . S
C36 N33 1.314 1_565 S
C36 C34 1.353 . S
C36 H78 0.930 . S
C37 N33 1.279 . S
C37 C35 1.358 . S
C37 H79 0.930 . S
C38 C39 1.348 . S
C38 C40 1.356 . S
C38 O63 1.325 . S
C39 C38 1.348 . S
C39 C41 1.353 . S
C39 H80 0.929 . S
C40 C38 1.356 . S
C40 C42 1.358 . S
C40 H81 0.930 . S
C41 C39 1.353 . S
C41 N43 1.314 . S
C41 H82 0.930 . S
C42 C40 1.358 . S
C42 N43 1.279 . S
C42 H83 0.930 . S
N43 C41 1.314 . S
N43 C42 1.279 . S
C44 C46 1.353 . S
C44 N47 1.314 . S
C44 H50 0.930 . S
C45 N47 1.279 1_565 S
C45 C48 1.358 . S
C45 H51 0.930 . S
C46 C44 1.353 . S
C46 C49 1.357 . S
C46 H84 0.929 . S
N47 Li2 1.990 . S
N47 C44 1.314 . S
N47 C45 1.279 1_545 S
C48 C45 1.358 . S
C48 C49 1.351 1_565 S
C48 H85 0.930 . S
C49 C46 1.357 . S
C49 C48 1.351 1_545 S
H50 C44 0.930 . S
H51 C45 0.930 . S
C52 N53 1.314 . S
C52 C54 1.353 . S
C52 H58 0.930 . S
N53 Li3 1.990 . S
N53 C52 1.314 . S
N53 C56 1.279 . S
C54 C52 1.353 . S
C54 C57 1.348 . S
C54 H86 0.929 . S
C55 C56 1.358 . S
C55 C57 1.356 . S
C55 H87 0.930 . S
C56 N53 1.279 . S
C56 C55 1.358 . S
C56 H59 0.930 . S
C57 C54 1.348 . S
C57 C55 1.356 . S
H58 C52 0.930 . S
H59 C56 0.930 . S
O60 Li0 1.956 . S
O60 Li1 1.977 . S
O60 Li2 1.961 . S
O60 C4 1.325 . S
O61 Li0 1.970 . S
O61 Li1 1.956 . S
O61 Li3 1.961 1_545 S
O61 C10 1.325 . S
O62 Li0 1.972 . S
O62 Li2 1.956 . S
O62 Li3 1.959 1_545 S
O62 C32 1.325 . S
O63 Li1 1.954 1_565 S
O63 Li2 1.970 1_565 S
O63 Li3 1.956 . S
O63 C38 1.325 . S
H64 C6 0.929 . S
H65 C7 0.930 . S
H66 C8 0.930 . S
H67 C9 0.930 . S
H68 C11 0.930 . S
H69 C13 0.929 . S
H70 C14 0.930 . S
H71 C15 0.930 . S
H72 C18 0.930 . S
H73 C21 0.929 . S
H74 C26 0.929 . S
H75 C27 0.930 . S
H76 C34 0.929 . S
H77 C35 0.930 . S
H78 C36 0.930 . S
H79 C37 0.930 . S
H80 C39 0.929 . S
H81 C40 0.930 . S
H82 C41 0.930 . S
H83 C42 0.930 . S
H84 C46 0.929 . S
H85 C48 0.930 . S
H86 C54 0.929 . S
H87 C55 0.930 . S
Li88 N105 1.990 . S
Li88 O148 1.956 . S
Li88 O149 1.970 1_455 S
Li88 O150 1.960 1_455 S
Li89 N113 1.992 . S
Li89 O148 1.951 1_655 S
Li89 O149 1.974 . S
Li89 O151 1.960 1_655 S
Li90 N135 1.990 . S
Li90 O148 1.961 . S
Li90 O150 1.943 1_455 S
Li90 O151 1.970 . S
Li91 N141 1.990 . S
Li91 O149 1.961 . S
Li91 O150 1.982 . S
Li91 O151 1.956 1_655 S
C92 C94 1.348 . S
C92 C95 1.356 . S
C92 O148 1.325 . S
N93 C96 1.314 . S
N93 C97 1.279 . S
C94 C92 1.348 . S
C94 C96 1.353 . S
C94 H152 0.929 . S
C95 C92 1.356 . S
C95 C97 1.358 . S
C95 H153 0.930 . S
C96 N93 1.314 . S
C96 C94 1.353 . S
C96 H154 0.930 . S
C97 N93 1.279 . S
C97 C95 1.358 . S
C97 H155 0.930 . S
C98 C101 1.348 . S
C98 C102 1.356 . S
C98 O149 1.325 . S
C99 N100 1.279 . S
C99 C102 1.358 . S
C99 H156 0.930 . S
N100 C99 1.279 . S
N100 C103 1.314 . S
C101 C98 1.348 . S
C101 C103 1.353 . S
C101 H157 0.929 . S
C102 C98 1.356 . S
C102 C99 1.358 . S
C102 H158 0.930 . S
C103 N100 1.314 . S
C103 C101 1.353 . S
C103 H159 0.930 . S
C104 N105 1.314 1_655 S
C104 C109 1.353 . S
C104 H110 0.930 . S
N105 Li88 1.990 . S
N105 C104 1.314 1_455 S
N105 C107 1.279 . S
C106 C107 1.358 . S
C106 C108 1.374 . S
C106 H160 0.930 . S
C107 N105 1.279 . S
C107 C106 1.358 . S
C107 H111 0.930 . S
C108 C106 1.374 . S
C108 C109 1.333 1_455 S
C109 C104 1.353 . S
C109 C108 1.333 1_655 S
C109 H161 0.929 . S
H110 C104 0.930 . S
H111 C107 0.930 . S
C112 N113 1.314 1_455 S
C112 C114 1.353 . S
C112 H118 0.930 . S
N113 Li89 1.992 . S
N113 C112 1.314 1_655 S
N113 C116 1.279 . S
C114 C112 1.353 . S
C114 C117 1.360 . S
C114 H162 0.929 . S
C115 C116 1.358 . S
C115 C117 1.341 1_655 S
C115 H163 0.930 . S
C116 N113 1.279 . S
C116 C115 1.358 . S
C116 H119 0.930 . S
C117 C114 1.360 . S
C117 C115 1.341 1_455 S
H118 C112 0.930 . S
H119 C116 0.930 . S
C120 C122 1.334 1_455 S
C120 C123 1.373 . S
C120 O150 1.324 1_455 S
N121 C124 1.314 1_455 S
N121 C125 1.279 . S
C122 C120 1.334 1_655 S
C122 C124 1.353 . S
C122 H164 0.929 . S
C123 C120 1.373 . S
C123 C125 1.358 . S
C123 H165 0.930 . S
C124 N121 1.314 1_655 S
C124 C122 1.353 . S
C124 H166 0.930 . S
C125 N121 1.279 . S
C125 C123 1.358 . S
C125 H167 0.930 . S
C126 C127 1.361 . S
C126 C128 1.340 1_455 S
C126 O151 1.326 . S
C127 C126 1.361 . S
C127 C129 1.353 . S
C127 H168 0.929 . S
C128 C126 1.340 1_655 S
C128 C130 1.358 . S
C128 H169 0.930 . S
C129 C127 1.353 . S
C129 N131 1.314 1_455 S
C129 H170 0.930 . S
C130 C128 1.358 . S
C130 N131 1.279 . S
C130 H171 0.930 . S
N131 C129 1.314 1_655 S
N131 C130 1.279 . S
C132 C134 1.353 . S
C132 N135 1.314 . S
C132 H138 0.930 . S
C133 N135 1.279 . S
C133 C136 1.358 . S
C133 H139 0.930 . S
C134 C132 1.353 . S
C134 C137 1.348 . S
C134 H172 0.929 . S
N135 Li90 1.990 . S
N135 C132 1.314 . S
N135 C133 1.279 . S
C136 C133 1.358 . S
C136 C137 1.356 . S
C136 H173 0.930 . S
C137 C134 1.348 . S
C137 C136 1.356 . S
H138 C132 0.930 . S
H139 C133 0.930 . S
C140 N141 1.314 . S
C140 C142 1.353 . S
C140 H146 0.930 . S
N141 Li91 1.990 . S
N141 C140 1.314 . S
N141 C144 1.279 . S
C142 C140 1.353 . S
C142 C145 1.348 . S
C142 H174 0.929 . S
C143 C144 1.358 . S
C143 C145 1.356 . S
C143 H175 0.930 . S
C144 N141 1.279 . S
C144 C143 1.358 . S
C144 H147 0.930 . S
C145 C142 1.348 . S
C145 C143 1.356 . S
H146 C140 0.930 . S
H147 C144 0.930 . S
O148 Li88 1.956 . S
O148 Li89 1.951 1_455 S
O148 Li90 1.961 . S
O148 C92 1.325 . S
O149 Li88 1.970 1_655 S
O149 Li89 1.974 . S
O149 Li91 1.961 . S
O149 C98 1.325 . S
O150 Li88 1.960 1_655 S
O150 Li90 1.943 1_655 S
O150 Li91 1.982 . S
O150 C120 1.324 1_655 S
O151 Li89 1.960 1_455 S
O151 Li90 1.970 . S
O151 Li91 1.956 1_455 S
O151 C126 1.326 . S
H152 C94 0.929 . S
H153 C95 0.930 . S
H154 C96 0.930 . S
H155 C97 0.930 . S
H156 C99 0.930 . S
H157 C101 0.929 . S
H158 C102 0.930 . S
H159 C103 0.930 . S
H160 C106 0.930 . S
H161 C109 0.929 . S
H162 C114 0.929 . S
H163 C115 0.930 . S
H164 C122 0.929 . S
H165 C123 0.930 . S
H166 C124 0.930 . S
H167 C125 0.930 . S
H168 C127 0.929 . S
H169 C128 0.930 . S
H170 C129 0.930 . S
H171 C130 0.930 . S
H172 C134 0.929 . S
H173 C136 0.930 . S
H174 C142 0.929 . S
H175 C143 0.930 . S
Li176 N193 1.990 . S
Li176 O236 1.956 . S
Li176 O237 1.970 1_545 S
Li176 O238 1.961 . S
Li177 N201 1.990 . S
Li177 O236 1.970 1_565 S
Li177 O237 1.956 . S
Li177 O239 1.961 1_565 S
Li178 N223 1.990 . S
Li178 O236 1.961 . S
Li178 O238 1.956 . S
Li178 O239 1.970 . S
Li179 N229 1.989 1_545 S
Li179 O237 1.961 1_545 S
Li179 O238 1.970 . S
Li179 O239 1.956 . S
C180 C182 1.348 1_545 S
C180 C183 1.356 . S
C180 O236 1.325 . S
N181 C184 1.314 1_545 S
N181 C185 1.279 . S
C182 C180 1.348 1_565 S
C182 C184 1.353 . S
C182 H240 0.929 . S
C183 C180 1.356 . S
C183 C185 1.358 . S
C183 H241 0.930 . S
C184 N181 1.314 1_565 S
C184 C182 1.353 . S
C184 H242 0.930 . S
C185 N181 1.279 . S
C185 C183 1.358 . S
C185 H243 0.930 . S
C186 C189 1.348 . S
C186 C190 1.356 . S
C186 O237 1.325 . S
C187 N188 1.279 . S
C187 C190 1.358 . S
C187 H244 0.930 . S
N188 C187 1.279 . S
N188 C191 1.314 . S
C189 C186 1.348 . S
C189 C191 1.353 . S
C189 H245 0.929 . S
C190 C186 1.356 . S
C190 C187 1.358 . S
C190 H246 0.930 . S
C191 N188 1.314 . S
C191 C189 1.353 . S
C191 H247 0.930 . S
C192 N193 1.314 . S
C192 C197 1.353 . S
C192 H198 0.930 . S
N193 Li176 1.990 . S
N193 C192 1.314 . S
N193 C195 1.279 1_545 S
C194 C195 1.358 . S
C194 C196 1.356 1_565 S
C194 H248 0.930 . S
C195 N193 1.279 1_565 S
C195 C194 1.358 . S
C195 H199 0.930 . S
C196 C194 1.356 1_545 S
C196 C197 1.348 . S
C197 C192 1.353 . S
C197 C196 1.348 . S
C197 H249 0.929 . S
H198 C192 0.930 . S
H199 C195 0.930 . S
C200 N201 1.314 . S
C200 C202 1.353 . S
C200 H206 0.930 . S
N201 Li177 1.990 . S
N201 C200 1.314 . S
N201 C204 1.279 . S
C202 C200 1.353 . S
C202 C205 1.348 . S
C202 H250 0.929 . S
C203 C204 1.358 . S
C203 C205 1.356 . S
C203 H251 0.930 . S
C204 N201 1.279 . S
C204 C203 1.358 . S
C204 H207 0.930 . S
C205 C202 1.348 . S
C205 C203 1.356 . S
H206 C200 0.930 . S
H207 C204 0.930 . S
C208 C210 1.348 . S
C208 C211 1.356 . S
C208 O238 1.325 . S
N209 C212 1.314 . S
N209 C213 1.279 . S
C210 C208 1.348 . S
C210 C212 1.353 . S
C210 H252 0.929 . S
C211 C208 1.356 . S
C211 C213 1.358 . S
C211 H253 0.930 . S
C212 N209 1.314 . S
C212 C210 1.353 . S
C212 H254 0.930 . S
C213 N209 1.279 . S
C213 C211 1.358 . S
C213 H255 0.930 . S
C214 C215 1.348 . S
C214 C216 1.356 1_545 S
C214 O239 1.325 . S
C215 C214 1.348 . S
C215 C217 1.353 . S
C215 H256 0.929 . S
C216 C214 1.356 1_565 S
C216 C218 1.358 . S
C216 H257 0.930 . S
C217 C215 1.353 . S
C217 N219 1.321 . S
C217 H258 0.930 . S
C218 C216 1.358 . S
C218 N219 1.272 1_565 S
C218 H259 0.930 . S
N219 C217 1.321 . S
N219 C218 1.272 1_545 S
C220 C222 1.353 . S
C220 N223 1.314 . S
C220 H226 0.930 . S
C221 N223 1.279 . S
C221 C224 1.358 . S
C221 H227 0.930 . S
C222 C220 1.353 . S
C222 C225 1.348 . S
C222 H260 0.929 . S
N223 Li178 1.990 . S
N223 C220 1.314 . S
N223 C221 1.279 . S
C224 C221 1.358 . S
C224 C225 1.356 . S
C224 H261 0.930 . S
C225 C222 1.348 . S
C225 C224 1.356 . S
H226 C220 0.930 . S
H227 C221 0.930 . S
C228 N229 1.320 . S
C228 C230 1.353 . S
C228 H234 0.930 . S
N229 Li179 1.989 1_565 S
N229 C228 1.320 . S
N229 C232 1.274 1_565 S
C230 C228 1.353 . S
C230 C233 1.348 1_565 S
C230 H262 0.929 . S
C231 C232 1.358 . S
C231 C233 1.356 . S
C231 H263 0.930 . S
C232 N229 1.274 1_545 S
C232 C231 1.358 . S
C232 H235 0.930 . S
C233 C230 1.348 1_545 S
C233 C231 1.356 . S
H234 C228 0.930 . S
H235 C232 0.930 . S
O236 Li176 1.956 . S
O236 Li177 1.970 1_545 S
O236 Li178 1.961 . S
O236 C180 1.325 . S
O237 Li176 1.970 1_565 S
O237 Li177 1.956 . S
O237 Li179 1.961 1_565 S
O237 C186 1.325 . S
O238 Li176 1.961 . S
O238 Li178 1.956 . S
O238 Li179 1.970 . S
O238 C208 1.325 . S
O239 Li177 1.961 1_545 S
O239 Li178 1.970 . S
O239 Li179 1.956 . S
O239 C214 1.325 . S
H240 C182 0.929 . S
H241 C183 0.930 . S
H242 C184 0.930 . S
H243 C185 0.930 . S
H244 C187 0.930 . S
H245 C189 0.929 . S
H246 C190 0.930 . S
H247 C191 0.930 . S
H248 C194 0.930 . S
H249 C197 0.929 . S
H250 C202 0.929 . S
H251 C203 0.930 . S
H252 C210 0.929 . S
H253 C211 0.930 . S
H254 C212 0.930 . S
H255 C213 0.930 . S
H256 C215 0.929 . S
H257 C216 0.930 . S
H258 C217 0.930 . S
H259 C218 0.930 . S
H260 C222 0.929 . S
H261 C224 0.930 . S
H262 C230 0.929 . S
H263 C231 0.930 . S
Li264 N281 1.990 . S
Li264 O324 1.956 1_655 S
Li264 O325 1.968 1_655 S
Li264 O326 1.961 . S
Li265 N289 1.990 . S
Li265 O324 1.970 . S
Li265 O325 1.959 . S
Li265 O327 1.961 . S
Li266 N311 1.990 1_455 S
Li266 O324 1.961 . S
Li266 O326 1.958 1_455 S
Li266 O327 1.968 . S
Li267 N317 1.990 . S
Li267 O325 1.961 . S
Li267 O326 1.970 1_455 S
Li267 O327 1.956 . S
C268 C270 1.348 . S
C268 C271 1.356 1_455 S
C268 O324 1.325 . S
N269 C272 1.314 1_655 S
N269 C273 1.279 . S
C270 C268 1.348 . S
C270 C272 1.353 . S
C270 H328 0.929 . S
C271 C268 1.356 1_655 S
C271 C273 1.358 . S
C271 H329 0.930 . S
C272 N269 1.314 1_455 S
C272 C270 1.353 . S
C272 H330 0.930 . S
C273 N269 1.279 . S
C273 C271 1.358 . S
C273 H331 0.930 . S
C274 C277 1.348 1_455 S
C274 C278 1.356 . S
C274 O325 1.325 . S
C275 N276 1.279 . S
C275 C278 1.358 . S
C275 H332 0.930 . S
N276 C275 1.279 . S
N276 C279 1.314 1_455 S
C277 C274 1.348 1_655 S
C277 C279 1.353 . S
C277 H333 0.929 . S
C278 C274 1.356 . S
C278 C275 1.358 . S
C278 H334 0.930 . S
C279 N276 1.314 1_655 S
C279 C277 1.353 . S
C279 H335 0.930 . S
C280 N281 1.314 . S
C280 C285 1.353 . S
C280 H286 0.930 . S
N281 Li264 1.990 . S
N281 C280 1.314 . S
N281 C283 1.279 . S
C282 C283 1.358 . S
C282 C284 1.356 . S
C282 H336 0.930 . S
C283 N281 1.279 . S
C283 C282 1.358 . S
C283 H287 0.930 . S
C284 C282 1.356 . S
C284 C285 1.348 . S
C285 C280 1.353 . S
C285 C284 1.348 . S
C285 H337 0.929 . S
H286 C280 0.930 . S
H287 C283 0.930 . S
C288 N289 1.314 . S
C288 C290 1.353 . S
C288 H294 0.930 . S
N289 Li265 1.990 . S
N289 C288 1.314 . S
N289 C292 1.279 . S
C290 C288 1.353 . S
C290 C293 1.348 . S
C290 H338 0.929 . S
C291 C292 1.358 . S
C291 C293 1.356 . S
C291 H339 0.930 . S
C292 N289 1.279 . S
C292 C291 1.358 . S
C292 H295 0.930 . S
C293 C290 1.348 . S
C293 C291 1.356 . S
H294 C288 0.930 . S
H295 C292 0.930 . S
C296 C298 1.348 . S
C296 C299 1.356 . S
C296 O326 1.325 . S
N297 C300 1.314 . S
N297 C301 1.279 . S
C298 C296 1.348 . S
C298 C300 1.353 . S
C298 H340 0.929 . S
C299 C296 1.356 . S
C299 C301 1.358 . S
C299 H341 0.930 . S
C300 N297 1.314 . S
C300 C298 1.353 . S
C300 H342 0.930 . S
C301 N297 1.279 . S
C301 C299 1.358 . S
C301 H343 0.930 . S
C302 C303 1.348 . S
C302 C304 1.356 . S
C302 O327 1.325 . S
C303 C302 1.348 . S
C303 C305 1.353 . S
C303 H344 0.929 . S
C304 C302 1.356 . S
C304 C306 1.358 . S
C304 H345 0.930 . S
C305 C303 1.353 . S
C305 N307 1.314 . S
C305 H346 0.930 . S
C306 C304 1.358 . S
C306 N307 1.279 . S
C306 H347 0.930 . S
N307 C305 1.314 . S
N307 C306 1.279 . S
C308 C310 1.353 . S
C308 N311 1.314 1_455 S
C308 H314 0.930 . S
C309 N311 1.279 . S
C309 C312 1.358 . S
C309 H315 0.930 . S
C310 C308 1.353 . S
C310 C313 1.348 . S
C310 H348 0.929 . S
N311 Li266 1.990 1_655 S
N311 C308 1.314 1_655 S
N311 C309 1.279 . S
C312 C309 1.358 . S
C312 C313 1.356 1_655 S
C312 H349 0.930 . S
C313 C310 1.348 . S
C313 C312 1.356 1_455 S
H314 C308 0.930 . S
H315 C309 0.930 . S
C316 N317 1.314 1_655 S
C316 C318 1.353 . S
C316 H322 0.930 . S
N317 Li267 1.990 . S
N317 C316 1.314 1_455 S
N317 C320 1.279 . S
C318 C316 1.353 . S
C318 C321 1.348 1_655 S
C318 H350 0.929 . S
C319 C320 1.358 . S
C319 C321 1.356 . S
C319 H351 0.930 . S
C320 N317 1.279 . S
C320 C319 1.358 . S
C320 H323 0.930 . S
C321 C318 1.348 1_455 S
C321 C319 1.356 . S
H322 C316 0.930 . S
H323 C320 0.930 . S
O324 Li264 1.956 1_455 S
O324 Li265 1.970 . S
O324 Li266 1.961 . S
O324 C268 1.325 . S
O325 Li264 1.968 1_455 S
O325 Li265 1.959 . S
O325 Li267 1.961 . S
O325 C274 1.325 . S
O326 Li264 1.961 . S
O326 Li266 1.958 1_655 S
O326 Li267 1.970 1_655 S
O326 C296 1.325 . S
O327 Li265 1.961 . S
O327 Li266 1.968 . S
O327 Li267 1.956 . S
O327 C302 1.325 . S
H328 C270 0.929 . S
H329 C271 0.930 . S
H330 C272 0.930 . S
H331 C273 0.930 . S
H332 C275 0.930 . S
H333 C277 0.929 . S
H334 C278 0.930 . S
H335 C279 0.930 . S
H336 C282 0.930 . S
H337 C285 0.929 . S
H338 C290 0.929 . S
H339 C291 0.930 . S
H340 C298 0.929 . S
H341 C299 0.930 . S
H342 C300 0.930 . S
H343 C301 0.930 . S
H344 C303 0.929 . S
H345 C304 0.930 . S
H346 C305 0.930 . S
H347 C306 0.930 . S
H348 C310 0.929 . S
H349 C312 0.930 . S
H350 C318 0.929 . S
H351 C319 0.930 . S
Li352 N369 1.990 . S
Li352 O412 1.956 . S
Li352 O413 1.970 . S
Li352 O414 1.961 . S
Li353 N377 1.989 1_545 S
Li353 O412 1.970 . S
Li353 O413 1.956 . S
Li353 O415 1.961 1_545 S
Li354 N399 1.990 . S
Li354 O412 1.961 . S
Li354 O414 1.956 . S
Li354 O415 1.970 1_545 S
Li355 N405 1.990 . S
Li355 O413 1.961 1_565 S
Li355 O414 1.970 1_565 S
Li355 O415 1.956 . S
C356 C358 1.348 . S
C356 C359 1.356 . S
C356 O412 1.325 . S
N357 C360 1.314 . S
N357 C361 1.279 . S
C358 C356 1.348 . S
C358 C360 1.353 . S
C358 H416 0.929 . S
C359 C356 1.356 . S
C359 C361 1.358 . S
C359 H417 0.930 . S
C360 N357 1.314 . S
C360 C358 1.353 . S
C360 H418 0.930 . S
C361 N357 1.279 . S
C361 C359 1.358 . S
C361 H419 0.930 . S
C362 C365 1.348 . S
C362 C366 1.356 1_545 S
C362 O413 1.325 . S
C363 N364 1.272 1_565 S
C363 C366 1.358 . S
C363 H420 0.930 . S
N364 C363 1.272 1_545 S
N364 C367 1.321 . S
C365 C362 1.348 . S
C365 C367 1.353 . S
C365 H421 0.929 . S
C366 C362 1.356 1_565 S
C366 C363 1.358 . S
C366 H422 0.930 . S
C367 N364 1.321 . S
C367 C365 1.353 . S
C367 H423 0.930 . S
C368 N369 1.314 . S
C368 C373 1.353 . S
C368 H374 0.930 . S
N369 Li352 1.990 . S
N369 C368 1.314 . S
N369 C371 1.279 . S
C370 C371 1.358 . S
C370 C372 1.356 . S
C370 H424 0.930 . S
C371 N369 1.279 . S
C371 C370 1.358 . S
C371 H375 0.930 . S
C372 C370 1.356 . S
C372 C373 1.348 . S
C373 C368 1.353 . S
C373 C372 1.348 . S
C373 H425 0.929 . S
H374 C368 0.930 . S
H375 C371 0.930 . S
C376 N377 1.320 . S
C376 C378 1.353 . S
C376 H382 0.930 . S
N377 Li353 1.989 1_565 S
N377 C376 1.320 . S
N377 C380 1.274 1_565 S
C378 C376 1.353 . S
C378 C381 1.348 1_565 S
C378 H426 0.929 . S
C379 C380 1.358 . S
C379 C381 1.356 . S
C379 H427 0.930 . S
C380 N377 1.274 1_545 S
C380 C379 1.358 . S
C380 H383 0.930 . S
C381 C378 1.348 1_545 S
C381 C379 1.356 . S
H382 C376 0.930 . S
H383 C380 0.930 . S
C384 C386 1.348 1_545 S
C384 C387 1.356 . S
C384 O414 1.325 . S
N385 C388 1.314 1_545 S
N385 C389 1.279 . S
C386 C384 1.348 1_565 S
C386 C388 1.353 . S
C386 H428 0.929 . S
C387 C384 1.356 . S
C387 C389 1.358 . S
C387 H429 0.930 . S
C388 N385 1.314 1_565 S
C388 C386 1.353 . S
C388 H430 0.930 . S
C389 N385 1.279 . S
C389 C387 1.358 . S
C389 H431 0.930 . S
C390 C391 1.348 . S
C390 C392 1.356 . S
C390 O415 1.325 . S
C391 C390 1.348 . S
C391 C393 1.353 . S
C391 H432 0.929 . S
C392 C390 1.356 . S
C392 C394 1.358 . S
C392 H433 0.930 . S
C393 C391 1.353 . S
C393 N395 1.314 . S
C393 H434 0.930 . S
C394 C392 1.358 . S
C394 N395 1.279 . S
C394 H435 0.930 . S
N395 C393 1.314 . S
N395 C394 1.279 . S
C396 C398 1.353 . S
C396 N399 1.314 . S
C396 H402 0.930 . S
C397 N399 1.279 1_565 S
C397 C400 1.358 . S
C397 H403 0.930 . S
C398 C396 1.353 . S
C398 C401 1.348 . S
C398 H436 0.929 . S
N399 Li354 1.990 . S
N399 C396 1.314 . S
N399 C397 1.279 1_545 S
C400 C397 1.358 . S
C400 C401 1.356 1_565 S
C400 H437 0.930 . S
C401 C398 1.348 . S
C401 C400 1.356 1_545 S
H402 C396 0.930 . S
H403 C397 0.930 . S
C404 N405 1.314 . S
C404 C406 1.353 . S
C404 H410 0.930 . S
N405 Li355 1.990 . S
N405 C404 1.314 . S
N405 C408 1.279 . S
C406 C404 1.353 . S
C406 C409 1.348 . S
C406 H438 0.929 . S
C407 C408 1.358 . S
C407 C409 1.356 . S
C407 H439 0.930 . S
C408 N405 1.279 . S
C408 C407 1.358 . S
C408 H411 0.930 . S
C409 C406 1.348 . S
C409 C407 1.356 . S
H410 C404 0.930 . S
H411 C408 0.930 . S
O412 Li352 1.956 . S
O412 Li353 1.970 . S
O412 Li354 1.961 . S
O412 C356 1.325 . S
O413 Li352 1.970 . S
O413 Li353 1.956 . S
O413 Li355 1.961 1_545 S
O413 C362 1.325 . S
O414 Li352 1.961 . S
O414 Li354 1.956 . S
O414 Li355 1.970 1_545 S
O414 C384 1.325 . S
O415 Li353 1.961 1_565 S
O415 Li354 1.970 1_565 S
O415 Li355 1.956 . S
O415 C390 1.325 . S
H416 C358 0.929 . S
H417 C359 0.930 . S
H418 C360 0.930 . S
H419 C361 0.930 . S
H420 C363 0.930 . S
H421 C365 0.929 . S
H422 C366 0.930 . S
H423 C367 0.930 . S
H424 C370 0.930 . S
H425 C373 0.929 . S
H426 C378 0.929 . S
H427 C379 0.930 . S
H428 C386 0.929 . S
H429 C387 0.930 . S
H430 C388 0.930 . S
H431 C389 0.930 . S
H432 C391 0.929 . S
H433 C392 0.930 . S
H434 C393 0.930 . S
H435 C394 0.930 . S
H436 C398 0.929 . S
H437 C400 0.930 . S
H438 C406 0.929 . S
H439 C407 0.930 . S
Li440 N457 1.990 . S
Li440 O500 1.956 . S
Li440 O501 1.970 1_455 S
Li440 O502 1.961 . S
Li441 N465 1.990 1_455 S
Li441 O500 1.968 . S
Li441 O501 1.958 1_455 S
Li441 O503 1.961 . S
Li442 N487 1.990 . S
Li442 O500 1.961 . S
Li442 O502 1.959 . S
Li442 O503 1.970 . S
Li443 N493 1.990 . S
Li443 O501 1.961 . S
Li443 O502 1.968 1_655 S
Li443 O503 1.956 1_655 S
C444 C446 1.348 . S
C444 C447 1.356 . S
C444 O500 1.325 . S
N445 C448 1.314 . S
N445 C449 1.279 . S
C446 C444 1.348 . S
C446 C448 1.353 . S
C446 H504 0.929 . S
C447 C444 1.356 . S
C447 C449 1.358 . S
C447 H505 0.930 . S
C448 N445 1.314 . S
C448 C446 1.353 . S
C448 H506 0.930 . S
C449 N445 1.279 . S
C449 C447 1.358 . S
C449 H507 0.930 . S
C450 C453 1.348 . S
C450 C454 1.356 . S
C450 O501 1.325 . S
C451 N452 1.279 . S
C451 C454 1.358 . S
C451 H508 0.930 . S
N452 C451 1.279 . S
N452 C455 1.314 . S
C453 C450 1.348 . S
C453 C455 1.353 . S
C453 H509 0.929 . S
C454 C450 1.356 . S
C454 C451 1.358 . S
C454 H510 0.930 . S
C455 N452 1.314 . S
C455 C453 1.353 . S
C455 H511 0.930 . S
C456 N457 1.314 1_655 S
C456 C461 1.353 . S
C456 H462 0.930 . S
N457 Li440 1.990 . S
N457 C456 1.314 1_455 S
N457 C459 1.279 . S
C458 C459 1.358 . S
C458 C460 1.356 . S
C458 H512 0.930 . S
C459 N457 1.279 . S
C459 C458 1.358 . S
C459 H463 0.930 . S
C460 C458 1.356 . S
C460 C461 1.348 1_455 S
C461 C456 1.353 . S
C461 C460 1.348 1_655 S
C461 H513 0.929 . S
H462 C456 0.930 . S
H463 C459 0.930 . S
C464 N465 1.314 1_455 S
C464 C466 1.353 . S
C464 H470 0.930 . S
N465 Li441 1.990 1_655 S
N465 C464 1.314 1_655 S
N465 C468 1.279 . S
C466 C464 1.353 . S
C466 C469 1.348 . S
C466 H514 0.929 . S
C467 C468 1.358 . S
C467 C469 1.356 1_655 S
C467 H515 0.930 . S
C468 N465 1.279 . S
C468 C467 1.358 . S
C468 H471 0.930 . S
C469 C466 1.348 . S
C469 C467 1.356 1_455 S
H470 C464 0.930 . S
H471 C468 0.930 . S
C472 C474 1.348 1_455 S
C472 C475 1.356 . S
C472 O502 1.325 . S
N473 C476 1.314 1_455 S
N473 C477 1.279 . S
C474 C472 1.348 1_655 S
C474 C476 1.353 . S
C474 H516 0.929 . S
C475 C472 1.356 . S
C475 C477 1.358 . S
C475 H517 0.930 . S
C476 N473 1.314 1_655 S
C476 C474 1.353 . S
C476 H518 0.930 . S
C477 N473 1.279 . S
C477 C475 1.358 . S
C477 H519 0.930 . S
C478 C479 1.348 . S
C478 C480 1.356 1_455 S
C478 O503 1.325 . S
C479 C478 1.348 . S
C479 C481 1.353 . S
C479 H520 0.929 . S
C480 C478 1.356 1_655 S
C480 C482 1.358 . S
C480 H521 0.930 . S
C481 C479 1.353 . S
C481 N483 1.314 1_455 S
C481 H522 0.930 . S
C482 C480 1.358 . S
C482 N483 1.279 . S
C482 H523 0.930 . S
N483 C481 1.314 1_655 S
N483 C482 1.279 . S
C484 C486 1.353 . S
C484 N487 1.314 . S
C484 H490 0.930 . S
C485 N487 1.279 . S
C485 C488 1.358 . S
C485 H491 0.930 . S
C486 C484 1.353 . S
C486 C489 1.348 . S
C486 H524 0.929 . S
N487 Li442 1.990 . S
N487 C484 1.314 . S
N487 C485 1.279 . S
C488 C485 1.358 . S
C488 C489 1.356 . S
C488 H525 0.930 . S
C489 C486 1.348 . S
C489 C488 1.356 . S
H490 C484 0.930 . S
H491 C485 0.930 . S
C492 N493 1.314 . S
C492 C494 1.353 . S
C492 H498 0.930 . S
N493 Li443 1.990 . S
N493 C492 1.314 . S
N493 C496 1.279 . S
C494 C492 1.353 . S
C494 C497 1.348 . S
C494 H526 0.929 . S
C495 C496 1.358 . S
C495 C497 1.356 . S
C495 H527 0.930 . S
C496 N493 1.279 . S
C496 C495 1.358 . S
C496 H499 0.930 . S
C497 C494 1.348 . S
C497 C495 1.356 . S
H498 C492 0.930 . S
H499 C496 0.930 . S
O500 Li440 1.956 . S
O500 Li441 1.968 . S
O500 Li442 1.961 . S
O500 C444 1.325 . S
O501 Li440 1.970 1_655 S
O501 Li441 1.958 1_655 S
O501 Li443 1.961 . S
O501 C450 1.325 . S
O502 Li440 1.961 . S
O502 Li442 1.959 . S
O502 Li443 1.968 1_455 S
O502 C472 1.325 . S
O503 Li441 1.961 . S
O503 Li442 1.970 . S
O503 Li443 1.956 1_455 S
O503 C478 1.325 . S
H504 C446 0.929 . S
H505 C447 0.930 . S
H506 C448 0.930 . S
H507 C449 0.930 . S
H508 C451 0.930 . S
H509 C453 0.929 . S
H510 C454 0.930 . S
H511 C455 0.930 . S
H512 C458 0.930 . S
H513 C461 0.929 . S
H514 C466 0.929 . S
H515 C467 0.930 . S
H516 C474 0.929 . S
H517 C475 0.930 . S
H518 C476 0.930 . S
H519 C477 0.930 . S
H520 C479 0.929 . S
H521 C480 0.930 . S
H522 C481 0.930 . S
H523 C482 0.930 . S
H524 C486 0.929 . S
H525 C488 0.930 . S
H526 C494 0.929 . S
H527 C495 0.930 . S
Li528 N545 1.990 . S
Li528 O588 1.956 . S
Li528 O589 1.970 1_545 S
Li528 O590 1.961 . S
Li529 N553 1.990 . S
Li529 O588 1.959 1_565 S
Li529 O589 1.956 . S
Li529 O591 1.961 1_565 S
Li530 N575 1.990 . S
Li530 O588 1.972 . S
Li530 O590 1.956 . S
Li530 O591 1.970 . S
Li531 N581 1.990 1_545 S
Li531 O589 1.954 1_545 S
Li531 O590 1.977 . S
Li531 O591 1.956 . S
C532 C534 1.319 1_545 S
C532 C535 1.385 . S
C532 O588 1.325 . S
N533 C536 1.314 1_545 S
N533 C537 1.279 . S
C534 C532 1.319 1_565 S
C534 C536 1.353 . S
C534 H592 0.929 . S
C535 C532 1.385 . S
C535 C537 1.358 . S
C535 H593 0.930 . S
C536 N533 1.314 1_565 S
C536 C534 1.353 . S
C536 H594 0.930 . S
C537 N533 1.279 . S
C537 C535 1.358 . S
C537 H595 0.930 . S
C538 C541 1.348 . S
C538 C542 1.356 . S
C538 O589 1.325 . S
C539 N540 1.279 . S
C539 C542 1.358 . S
C539 H596 0.930 . S
N540 C539 1.279 . S
N540 C543 1.314 . S
C541 C538 1.348 . S
C541 C543 1.353 . S
C541 H597 0.929 . S
C542 C538 1.356 . S
C542 C539 1.358 . S
C542 H598 0.930 . S
C543 N540 1.314 . S
C543 C541 1.353 . S
C543 H599 0.930 . S
C544 N545 1.314 . S
C544 C549 1.353 . S
C544 H550 0.930 . S
N545 Li528 1.990 . S
N545 C544 1.314 . S
N545 C547 1.279 1_545 S
C546 C547 1.358 . S
C546 C548 1.351 1_565 S
C546 H600 0.930 . S
C547 N545 1.279 1_565 S
C547 C546 1.358 . S
C547 H551 0.930 . S
C548 C546 1.351 1_545 S
C548 C549 1.357 . S
C549 C544 1.353 . S
C549 C548 1.357 . S
C549 H601 0.929 . S
H550 C544 0.930 . S
H551 C547 0.930 . S
C552 N553 1.314 . S
C552 C554 1.353 . S
C552 H558 0.930 . S
N553 Li529 1.990 . S
N553 C552 1.314 . S
N553 C556 1.279 . S
C554 C552 1.353 . S
C554 C557 1.348 . S
C554 H602 0.929 . S
C555 C556 1.358 . S
C555 C557 1.356 . S
C555 H603 0.930 . S
C556 N553 1.279 . S
C556 C555 1.358 . S
C556 H559 0.930 . S
C557 C554 1.348 . S
C557 C555 1.356 . S
H558 C552 0.930 . S
H559 C556 0.930 . S
C560 C562 1.348 . S
C560 C563 1.356 . S
C560 O590 1.325 . S
N561 C564 1.314 . S
N561 C565 1.279 . S
C562 C560 1.348 . S
C562 C564 1.353 . S
C562 H604 0.929 . S
C563 C560 1.356 . S
C563 C565 1.358 . S
C563 H605 0.930 . S
C564 N561 1.314 . S
C564 C562 1.353 . S
C564 H606 0.930 . S
C565 N561 1.279 . S
C565 C563 1.358 . S
C565 H607 0.930 . S
C566 C567 1.370 . S
C566 C568 1.334 1_545 S
C566 O591 1.325 . S
C567 C566 1.370 . S
C567 C569 1.353 . S
C567 H608 0.929 . S
C568 C566 1.334 1_565 S
C568 C570 1.358 . S
C568 H609 0.930 . S
C569 C567 1.353 . S
C569 N571 1.297 1_545 S
C569 H610 0.930 . S
C570 C568 1.358 . S
C570 N571 1.297 . S
C570 H611 0.930 . S
N571 C569 1.297 1_565 S
N571 C570 1.297 . S
C572 C574 1.353 . S
C572 N575 1.314 . S
C572 H578 0.930 . S
C573 N575 1.279 . S
C573 C576 1.358 . S
C573 H579 0.930 . S
C574 C572 1.353 . S
C574 C577 1.348 . S
C574 H612 0.929 . S
N575 Li530 1.990 . S
N575 C572 1.314 . S
N575 C573 1.279 . S
C576 C573 1.358 . S
C576 C577 1.356 . S
C576 H613 0.930 . S
C577 C574 1.348 . S
C577 C576 1.356 . S
H578 C572 0.930 . S
H579 C573 0.930 . S
C580 N581 1.314 . S
C580 C582 1.353 . S
C580 H586 0.930 . S
N581 Li531 1.990 1_565 S
N581 C580 1.314 . S
N581 C584 1.279 1_565 S
C582 C580 1.353 . S
C582 C585 1.338 1_565 S
C582 H614 0.929 . S
C583 C584 1.358 . S
C583 C585 1.362 . S
C583 H615 0.930 . S
C584 N581 1.279 1_545 S
C584 C583 1.358 . S
C584 H587 0.930 . S
C585 C582 1.338 1_545 S
C585 C583 1.362 . S
H586 C580 0.930 . S
H587 C584 0.930 . S
O588 Li528 1.956 . S
O588 Li529 1.959 1_545 S
O588 Li530 1.972 . S
O588 C532 1.325 . S
O589 Li528 1.970 1_565 S
O589 Li529 1.956 . S
O589 Li531 1.954 1_565 S
O589 C538 1.325 . S
O590 Li528 1.961 . S
O590 Li530 1.956 . S
O590 Li531 1.977 . S
O590 C560 1.325 . S
O591 Li529 1.961 1_545 S
O591 Li530 1.970 . S
O591 Li531 1.956 . S
O591 C566 1.325 . S
H592 C534 0.929 . S
H593 C535 0.930 . S
H594 C536 0.930 . S
H595 C537 0.930 . S
H596 C539 0.930 . S
H597 C541 0.929 . S
H598 C542 0.930 . S
H599 C543 0.930 . S
H600 C546 0.930 . S
H601 C549 0.929 . S
H602 C554 0.929 . S
H603 C555 0.930 . S
H604 C562 0.929 . S
H605 C563 0.930 . S
H606 C564 0.930 . S
H607 C565 0.930 . S
H608 C567 0.929 . S
H609 C568 0.930 . S
H610 C569 0.930 . S
H611 C570 0.930 . S
H612 C574 0.929 . S
H613 C576 0.930 . S
H614 C582 0.929 . S
H615 C583 0.930 . S
Li616 N633 1.990 . S
Li616 O676 1.956 1_655 S
Li616 O677 1.982 . S
Li616 O678 1.961 . S
Li617 N641 1.990 . S
Li617 O676 1.970 . S
Li617 O677 1.943 1_455 S
Li617 O679 1.961 . S
Li618 N663 1.992 . S
Li618 O676 1.960 1_655 S
Li618 O678 1.974 . S
Li618 O679 1.951 1_655 S
Li619 N669 1.990 . S
Li619 O677 1.960 1_455 S
Li619 O678 1.970 1_455 S
Li619 O679 1.956 . S
C620 C622 1.361 . S
C620 C623 1.340 1_455 S
C620 O676 1.326 . S
N621 C624 1.314 1_655 S
N621 C625 1.279 . S
C622 C620 1.361 . S
C622 C624 1.353 . S
C622 H680 0.929 . S
C623 C620 1.340 1_655 S
C623 C625 1.358 . S
C623 H681 0.930 . S
C624 N621 1.314 1_455 S
C624 C622 1.353 . S
C624 H682 0.930 . S
C625 N621 1.279 . S
C625 C623 1.358 . S
C625 H683 0.930 . S
C626 C629 1.334 1_455 S
C626 C630 1.373 . S
C626 O677 1.324 1_455 S
C627 N628 1.279 . S
C627 C630 1.358 . S
C627 H684 0.930 . S
N628 C627 1.279 . S
N628 C631 1.314 1_455 S
C629 C626 1.334 1_655 S
C629 C631 1.353 . S
C629 H685 0.929 . S
C630 C626 1.373 . S
C630 C627 1.358 . S
C630 H686 0.930 . S
C631 N628 1.314 1_655 S
C631 C629 1.353 . S
C631 H687 0.930 . S
C632 N633 1.314 . S
C632 C637 1.353 . S
C632 H638 0.930 . S
N633 Li616 1.990 . S
N633 C632 1.314 . S
N633 C635 1.279 . S
C634 C635 1.358 . S
C634 C636 1.356 . S
C634 H688 0.930 . S
C635 N633 1.279 . S
C635 C634 1.358 . S
C635 H639 0.930 . S
C636 C634 1.356 . S
C636 C637 1.348 . S
C637 C632 1.353 . S
C637 C636 1.348 . S
C637 H689 0.929 . S
H638 C632 0.930 . S
H639 C635 0.930 . S
C640 N641 1.314 . S
C640 C642 1.353 . S
C640 H646 0.930 . S
N641 Li617 1.990 . S
N641 C640 1.314 . S
N641 C644 1.279 . S
C642 C640 1.353 . S
C642 C645 1.348 . S
C642 H690 0.929 . S
C643 C644 1.358 . S
C643 C645 1.356 . S
C643 H691 0.930 . S
C644 N641 1.279 . S
C644 C643 1.358 . S
C644 H647 0.930 . S
C645 C642 1.348 . S
C645 C643 1.356 . S
H646 C640 0.930 . S
H647 C644 0.930 . S
C648 C650 1.348 . S
C648 C651 1.356 . S
C648 O678 1.325 . S
N649 C652 1.314 . S
N649 C653 1.279 . S
C650 C648 1.348 . S
C650 C652 1.353 . S
C650 H692 0.929 . S
C651 C648 1.356 . S
C651 C653 1.358 . S
C651 H693 0.930 . S
C652 N649 1.314 . S
C652 C650 1.353 . S
C652 H694 0.930 . S
C653 N649 1.279 . S
C653 C651 1.358 . S
C653 H695 0.930 . S
C654 C655 1.348 . S
C654 C656 1.356 . S
C654 O679 1.325 . S
C655 C654 1.348 . S
C655 C657 1.353 . S
C655 H696 0.929 . S
C656 C654 1.356 . S
C656 C658 1.358 . S
C656 H697 0.930 . S
C657 C655 1.353 . S
C657 N659 1.314 . S
C657 H698 0.930 . S
C658 C656 1.358 . S
C658 N659 1.279 . S
C658 H699 0.930 . S
N659 C657 1.314 . S
N659 C658 1.279 . S
C660 C662 1.353 . S
C660 N663 1.314 1_455 S
C660 H666 0.930 . S
C661 N663 1.279 . S
C661 C664 1.358 . S
C661 H667 0.930 . S
C662 C660 1.353 . S
C662 C665 1.360 . S
C662 H700 0.929 . S
N663 Li618 1.992 . S
N663 C660 1.314 1_655 S
N663 C661 1.279 . S
C664 C661 1.358 . S
C664 C665 1.341 1_655 S
C664 H701 0.930 . S
C665 C662 1.360 . S
C665 C664 1.341 1_455 S
H666 C660 0.930 . S
H667 C661 0.930 . S
C668 N669 1.314 1_655 S
C668 C670 1.353 . S
C668 H674 0.930 . S
N669 Li619 1.990 . S
N669 C668 1.314 1_455 S
N669 C672 1.279 . S
C670 C668 1.353 . S
C670 C673 1.333 1_655 S
C670 H702 0.929 . S
C671 C672 1.358 . S
C671 C673 1.374 . S
C671 H703 0.930 . S
C672 N669 1.279 . S
C672 C671 1.358 . S
C672 H675 0.930 . S
C673 C670 1.333 1_455 S
C673 C671 1.374 . S
H674 C668 0.930 . S
H675 C672 0.930 . S
O676 Li616 1.956 1_455 S
O676 Li617 1.970 . S
O676 Li618 1.960 1_455 S
O676 C620 1.326 . S
O677 Li616 1.982 . S
O677 Li617 1.943 1_655 S
O677 Li619 1.960 1_655 S
O677 C626 1.324 1_655 S
O678 Li616 1.961 . S
O678 Li618 1.974 . S
O678 Li619 1.970 1_655 S
O678 C648 1.325 . S
O679 Li617 1.961 . S
O679 Li618 1.951 1_455 S
O679 Li619 1.956 . S
O679 C654 1.325 . S
H680 C622 0.929 . S
H681 C623 0.930 . S
H682 C624 0.930 . S
H683 C625 0.930 . S
H684 C627 0.930 . S
H685 C629 0.929 . S
H686 C630 0.930 . S
H687 C631 0.930 . S
H688 C634 0.930 . S
H689 C637 0.929 . S
H690 C642 0.929 . S
H691 C643 0.930 . S
H692 C650 0.929 . S
H693 C651 0.930 . S
H694 C652 0.930 . S
H695 C653 0.930 . S
H696 C655 0.929 . S
H697 C656 0.930 . S
H698 C657 0.930 . S
H699 C658 0.930 . S
H700 C662 0.929 . S
H701 C664 0.930 . S
H702 C670 0.929 . S
H703 C671 0.930 . S
C704 C705 1.355 1_565 S
C704 C706 1.419 1_554 S
C704 H708 0.930 . S
C705 C704 1.355 1_545 S
C705 C714 1.444 . S
C706 C704 1.419 1_556 S
C706 C707 1.363 1_565 S
C706 H709 0.929 . S
C707 C706 1.363 1_545 S
C707 C713 1.428 . S
H708 C704 0.930 . S
H709 C706 0.929 . S
S710 N711 1.634 . S
S710 N712 1.589 1_554 S
N711 S710 1.634 . S
N711 C714 1.350 . S
N712 S710 1.589 1_556 S
N712 C713 1.351 . S
C713 C707 1.428 . S
C713 N712 1.351 . S
C713 C714 1.434 1_556 S
C714 C705 1.444 . S
C714 N711 1.350 . S
C714 C713 1.434 1_554 S
C715 C716 1.363 1_655 S
C715 C717 1.419 . S
C715 H719 0.930 . S
C716 C715 1.363 1_455 S
C716 C725 1.435 . S
C717 C715 1.419 . S
C717 C718 1.363 1_655 S
C717 H720 0.929 . S
C718 C717 1.363 1_455 S
C718 C724 1.428 . S
H719 C715 0.930 . S
H720 C717 0.929 . S
S721 N722 1.613 . S
S721 N723 1.610 . S
N722 S721 1.613 . S
N722 C725 1.350 . S
N723 S721 1.610 . S
N723 C724 1.351 . S
C724 C718 1.428 . S
C724 N723 1.351 . S
C724 C725 1.434 . S
C725 C716 1.435 . S
C725 N722 1.350 . S
C725 C724 1.434 . S
C726 C727 1.376 . S
C726 C728 1.419 1_556 S
C726 H730 0.930 . S
C727 C726 1.376 . S
C727 C736 1.422 1_545 S
C728 C726 1.419 1_554 S
C728 C729 1.363 . S
C728 H731 0.929 . S
C729 C728 1.363 . S
C729 C735 1.428 1_545 S
H730 C726 0.930 . S
H731 C728 0.929 . S
S732 N733 1.613 1_554 S
S732 N734 1.610 . S
N733 S732 1.613 1_556 S
N733 C736 1.350 . S
N734 S732 1.610 . S
N734 C735 1.351 . S
C735 C729 1.428 1_565 S
C735 N734 1.351 . S
C735 C736 1.434 1_554 S
C736 C727 1.422 1_565 S
C736 N733 1.350 . S
C736 C735 1.434 1_556 S
C737 C738 1.374 . S
C737 C739 1.419 . S
C737 H741 0.930 . S
C738 C737 1.374 . S
C738 C747 1.424 1_455 S
C739 C737 1.419 . S
C739 C740 1.363 . S
C739 H742 0.929 . S
C740 C739 1.363 . S
C740 C746 1.428 1_455 S
H741 C737 0.930 . S
H742 C739 0.929 . S
S743 N744 1.613 . S
S743 N745 1.610 . S
N744 S743 1.613 . S
N744 C747 1.350 . S
N745 S743 1.610 . S
N745 C746 1.351 . S
C746 C740 1.428 1_655 S
C746 N745 1.351 . S
C746 C747 1.434 . S
C747 C738 1.424 1_655 S
C747 N744 1.350 . S
C747 C746 1.434 . S
C748 C749 1.369 . S
C748 C750 1.419 . S
C748 H752 0.930 . S
C749 C748 1.369 . S
C749 C758 1.429 1_545 S
C750 C748 1.419 . S
C750 C751 1.363 . S
C750 H753 0.929 . S
C751 C750 1.363 . S
C751 C757 1.428 1_545 S
H752 C748 0.930 . S
H753 C750 0.929 . S
S754 N755 1.613 . S
S754 N756 1.610 . S
N755 S754 1.613 . S
N755 C758 1.350 . S
N756 S754 1.610 . S
N756 C757 1.351 . S
C757 C751 1.428 1_565 S
C757 N756 1.351 . S
C757 C758 1.434 . S
C758 C749 1.429 1_565 S
C758 N755 1.350 . S
C758 C757 1.434 . S
C759 C760 1.396 . S
C759 C761 1.419 . S
C759 H763 0.930 . S
C760 C759 1.396 . S
C760 C769 1.401 1_455 S
C761 C759 1.419 . S
C761 C762 1.377 . S
C761 H764 0.929 . S
C762 C761 1.377 . S
C762 C768 1.414 1_455 S
H763 C759 0.930 . S
H764 C761 0.929 . S
S765 N766 1.613 . S
S765 N767 1.610 . S
N766 S765 1.613 . S
N766 C769 1.350 . S
N767 S765 1.610 . S
N767 C768 1.351 . S
C768 C762 1.414 1_655 S
C768 N767 1.351 . S
C768 C769 1.434 . S
C769 C760 1.401 1_655 S
C769 N766 1.350 . S
C769 C768 1.434 . S
C770 C771 1.369 1_565 S
C770 C772 1.419 . S
C770 H774 0.930 . S
C771 C770 1.369 1_545 S
C771 C780 1.429 . S
C772 C770 1.419 . S
C772 C773 1.363 1_565 S
C772 H775 0.929 . S
C773 C772 1.363 1_545 S
C773 C779 1.428 . S
H774 C770 0.930 . S
H775 C772 0.929 . S
S776 N777 1.613 . S
S776 N778 1.610 . S
N777 S776 1.613 . S
N777 C780 1.350 . S
N778 S776 1.610 . S
N778 C779 1.351 . S
C779 C773 1.428 . S
C779 N778 1.351 . S
C779 C780 1.434 . S
C780 C771 1.429 . S
C780 N777 1.350 . S
C780 C779 1.434 . S
C781 C782 1.372 . S
C781 C783 1.419 . S
C781 H785 0.930 . S
C782 C781 1.372 . S
C782 C791 1.428 1_455 S
C783 C781 1.419 . S
C783 C784 1.363 . S
C783 H786 0.929 . S
C784 C783 1.363 . S
C784 C790 1.428 1_455 S
H785 C781 0.930 . S
H786 C783 0.929 . S
S787 N788 1.613 . S
S787 N789 1.610 . S
N788 S787 1.613 . S
N788 C791 1.350 . S
N789 S787 1.610 . S
N789 C790 1.351 . S
C790 C784 1.428 1_655 S
C790 N789 1.351 . S
C790 C791 1.434 . S
C791 C782 1.428 1_655 S
C791 N788 1.350 . S
C791 C790 1.434 . S
C792 C793 1.369 . S
C792 C794 1.419 . S
C792 H796 0.930 . S
C793 C792 1.369 . S
C793 C802 1.429 . S
C794 C792 1.419 . S
C794 C795 1.363 . S
C794 H797 0.929 . S
C795 C794 1.363 . S
C795 C801 1.428 . S
H796 C792 0.930 . S
H797 C794 0.929 . S
S798 N799 1.613 . S
S798 N800 1.610 . S
N799 S798 1.613 . S
N799 C802 1.350 . S
N800 S798 1.610 . S
N800 C801 1.351 . S
C801 C795 1.428 . S
C801 N800 1.351 . S
C801 C802 1.434 . S
C802 C793 1.429 . S
C802 N799 1.350 . S
C802 C801 1.434 . S
C803 C804 1.369 . S
C803 C805 1.419 . S
C803 H807 0.930 . S
C804 C803 1.369 . S
C804 C813 1.429 . S
C805 C803 1.419 . S
C805 C806 1.363 . S
C805 H808 0.929 . S
C806 C805 1.363 . S
C806 C812 1.428 . S
H807 C803 0.930 . S
H808 C805 0.929 . S
S809 N810 1.613 . S
S809 N811 1.610 . S
N810 S809 1.613 . S
N810 C813 1.350 . S
N811 S809 1.610 . S
N811 C812 1.351 . S
C812 C806 1.428 . S
C812 N811 1.351 . S
C812 C813 1.434 . S
C813 C804 1.429 . S
C813 N810 1.350 . S
C813 C812 1.434 . S
C814 C815 1.369 . S
C814 C816 1.419 . S
C814 H818 0.930 . S
C815 C814 1.369 . S
C815 C824 1.429 . S
C816 C814 1.419 . S
C816 C817 1.363 . S
C816 H819 0.929 . S
C817 C816 1.363 . S
C817 C823 1.428 . S
H818 C814 0.930 . S
H819 C816 0.929 . S
S820 N821 1.613 . S
S820 N822 1.610 . S
N821 S820 1.613 . S
N821 C824 1.350 . S
N822 S820 1.610 . S
N822 C823 1.351 . S
C823 C817 1.428 . S
C823 N822 1.351 . S
C823 C824 1.434 . S
C824 C815 1.429 . S
C824 N821 1.350 . S
C824 C823 1.434 . S
C825 C826 1.369 . S
C825 C827 1.419 . S
C825 H829 0.930 . S
C826 C825 1.369 . S
C826 C835 1.429 . S
C827 C825 1.419 . S
C827 C828 1.363 . S
C827 H830 0.929 . S
C828 C827 1.363 . S
C828 C834 1.428 . S
H829 C825 0.930 . S
H830 C827 0.929 . S
S831 N832 1.613 . S
S831 N833 1.610 . S
N832 S831 1.613 . S
N832 C835 1.350 . S
N833 S831 1.610 . S
N833 C834 1.351 . S
C834 C828 1.428 . S
C834 N833 1.351 . S
C834 C835 1.434 . S
C835 C826 1.429 . S
C835 N832 1.350 . S
C835 C834 1.434 . S
C836 C837 1.369 . S
C836 C838 1.419 . S
C836 H840 0.930 . S
C837 C836 1.369 . S
C837 C846 1.429 . S
C838 C836 1.419 . S
C838 C839 1.363 . S
C838 H841 0.929 . S
C839 C838 1.363 . S
C839 C845 1.428 . S
H840 C836 0.930 . S
H841 C838 0.929 . S
S842 N843 1.613 . S
S842 N844 1.610 . S
N843 S842 1.613 . S
N843 C846 1.350 . S
N844 S842 1.610 . S
N844 C845 1.351 . S
C845 C839 1.428 . S
C845 N844 1.351 . S
C845 C846 1.434 . S
C846 C837 1.429 . S
C846 N843 1.350 . S
C846 C845 1.434 . S
C847 C848 1.369 . S
C847 C849 1.419 . S
C847 H851 0.930 . S
C848 C847 1.369 . S
C848 C857 1.429 . S
C849 C847 1.419 . S
C849 C850 1.363 . S
C849 H852 0.929 . S
C850 C849 1.363 . S
C850 C856 1.428 . S
H851 C847 0.930 . S
H852 C849 0.929 . S
S853 N854 1.613 . S
S853 N855 1.610 . S
N854 S853 1.613 . S
N854 C857 1.350 . S
N855 S853 1.610 . S
N855 C856 1.351 . S
C856 C850 1.428 . S
C856 N855 1.351 . S
C856 C857 1.434 . S
C857 C848 1.429 . S
C857 N854 1.350 . S
C857 C856 1.434 . S
C858 C859 1.369 . S
C858 C860 1.419 . S
C858 H862 0.930 . S
C859 C858 1.369 . S
C859 C868 1.429 . S
C860 C858 1.419 . S
C860 C861 1.363 . S
C860 H863 0.929 . S
C861 C860 1.363 . S
C861 C867 1.428 . S
H862 C858 0.930 . S
H863 C860 0.929 . S
S864 N865 1.613 . S
S864 N866 1.610 . S
N865 S864 1.613 . S
N865 C868 1.350 . S
N866 S864 1.610 . S
N866 C867 1.351 . S
C867 C861 1.428 . S
C867 N866 1.351 . S
C867 C868 1.434 . S
C868 C859 1.429 . S
C868 N865 1.350 . S
C868 C867 1.434 . S
C869 C870 1.369 . S
C869 C871 1.419 . S
C869 H873 0.930 . S
C870 C869 1.369 . S
C870 C879 1.429 . S
C871 C869 1.419 . S
C871 C872 1.363 . S
C871 H874 0.929 . S
C872 C871 1.363 . S
C872 C878 1.428 . S
H873 C869 0.930 . S
H874 C871 0.929 . S
S875 N876 1.613 . S
S875 N877 1.610 . S
N876 S875 1.613 . S
N876 C879 1.350 . S
N877 S875 1.610 . S
N877 C878 1.351 . S
C878 C872 1.428 . S
C878 N877 1.351 . S
C878 C879 1.434 . S
C879 C870 1.429 . S
C879 N876 1.350 . S
C879 C878 1.434 . S
C705 C49 1.583 . S
C707 C381 1.583 . S
C716 C108 1.581 . S
C718 C469 1.581 . S
C727 C548 1.583 . S
C729 C233 1.583 . S
C738 C673 1.582 . S
C740 C313 1.581 . S
C749 C29 0.928 . S
C751 C196 0.927 . S
C760 C117 0.926 . S
C762 C321 0.928 . S
C771 C585 0.922 . S
C773 C401 0.921 . S
C782 C460 0.932 . S
C784 C665 0.931 . S
C793 C489 1.387 . S
C795 C20 1.379 . S
C804 C145 1.388 . S
C806 C577 1.383 . S
C815 C636 1.388 . S
C817 C205 1.378 . S
C826 C293 1.387 . S
C828 C409 1.379 . S
C837 C557 1.386 . S
C839 C284 1.377 . S
C848 C57 1.392 . S
C850 C645 1.375 . S
C859 C137 1.378 . S
C861 C372 1.391 . S
C870 C497 1.375 . S
C872 C225 1.392 . S
