# Generated by pormake.
# Topology upb, (4)-cn, num edge types: 1
# Building blocks:
#     Node 0, Type 0, BuildingBlock: UXUYUI_clean_sbu_0, # of connection points: 4
#     Node 1, Type 0, BuildingBlock: UXUYUI_clean_sbu_0, # of connection points: 4
#     Node 2, Type 0, BuildingBlock: UXUYUI_clean_sbu_0, # of connection points: 4
#     Node 3, Type 0, BuildingBlock: UXUYUI_clean_sbu_0, # of connection points: 4
#     Node 4, Type 0, BuildingBlock: UXUYUI_clean_sbu_0, # of connection points: 4
#     Node 5, Type 0, BuildingBlock: UXUYUI_clean_sbu_0, # of connection points: 4
#     Node 6, Type 0, BuildingBlock: UXUYUI_clean_sbu_0, # of connection points: 4
#     Node 7, Type 0, BuildingBlock: UXUYUI_clean_sbu_0, # of connection points: 4
#     Node 8, Type 0, BuildingBlock: UXUYUI_clean_sbu_0, # of connection points: 4
#     Node 9, Type 0, BuildingBlock: UXUYUI_clean_sbu_0, # of connection points: 4
#     Node 10, Type 0, BuildingBlock: UXUYUI_clean_sbu_0, # of connection points: 4
#     Node 11, Type 0, BuildingBlock: UXUYUI_clean_sbu_0, # of connection points: 4
#     Node 12, Type 0, BuildingBlock: UXUYUI_clean_sbu_0, # of connection points: 4
#     Node 13, Type 0, BuildingBlock: UXUYUI_clean_sbu_0, # of connection points: 4
#     Node 14, Type 0, BuildingBlock: UXUYUI_clean_sbu_0, # of connection points: 4
#     Node 15, Type 0, BuildingBlock: UXUYUI_clean_sbu_0, # of connection points: 4
#     Edge 16, Type (0, 0), BuildingBlock: UVAHIK_clean_linker_0, # of connection points: 2
#     Edge 17, Type (0, 0), BuildingBlock: UVAHIK_clean_linker_0, # of connection points: 2
#     Edge 18, Type (0, 0), BuildingBlock: UVAHIK_clean_linker_0, # of connection points: 2
#     Edge 19, Type (0, 0), BuildingBlock: UVAHIK_clean_linker_0, # of connection points: 2
#     Edge 20, Type (0, 0), BuildingBlock: UVAHIK_clean_linker_0, # of connection points: 2
#     Edge 21, Type (0, 0), BuildingBlock: UVAHIK_clean_linker_0, # of connection points: 2
#     Edge 22, Type (0, 0), BuildingBlock: UVAHIK_clean_linker_0, # of connection points: 2
#     Edge 23, Type (0, 0), BuildingBlock: UVAHIK_clean_linker_0, # of connection points: 2
#     Edge 24, Type (0, 0), BuildingBlock: UVAHIK_clean_linker_0, # of connection points: 2
#     Edge 25, Type (0, 0), BuildingBlock: UVAHIK_clean_linker_0, # of connection points: 2
#     Edge 26, Type (0, 0), BuildingBlock: UVAHIK_clean_linker_0, # of connection points: 2
#     Edge 27, Type (0, 0), BuildingBlock: UVAHIK_clean_linker_0, # of connection points: 2
#     Edge 28, Type (0, 0), BuildingBlock: UVAHIK_clean_linker_0, # of connection points: 2
#     Edge 29, Type (0, 0), BuildingBlock: UVAHIK_clean_linker_0, # of connection points: 2
#     Edge 30, Type (0, 0), BuildingBlock: UVAHIK_clean_linker_0, # of connection points: 2
#     Edge 31, Type (0, 0), BuildingBlock: UVAHIK_clean_linker_0, # of connection points: 2
#     Edge 32, Type (0, 0), BuildingBlock: UVAHIK_clean_linker_0, # of connection points: 2
#     Edge 33, Type (0, 0), BuildingBlock: UVAHIK_clean_linker_0, # of connection points: 2
#     Edge 34, Type (0, 0), BuildingBlock: UVAHIK_clean_linker_0, # of connection points: 2
#     Edge 35, Type (0, 0), BuildingBlock: UVAHIK_clean_linker_0, # of connection points: 2
#     Edge 36, Type (0, 0), BuildingBlock: UVAHIK_clean_linker_0, # of connection points: 2
#     Edge 37, Type (0, 0), BuildingBlock: UVAHIK_clean_linker_0, # of connection points: 2
#     Edge 38, Type (0, 0), BuildingBlock: UVAHIK_clean_linker_0, # of connection points: 2
#     Edge 39, Type (0, 0), BuildingBlock: UVAHIK_clean_linker_0, # of connection points: 2
#     Edge 40, Type (0, 0), BuildingBlock: UVAHIK_clean_linker_0, # of connection points: 2
#     Edge 41, Type (0, 0), BuildingBlock: UVAHIK_clean_linker_0, # of connection points: 2
#     Edge 42, Type (0, 0), BuildingBlock: UVAHIK_clean_linker_0, # of connection points: 2
#     Edge 43, Type (0, 0), BuildingBlock: UVAHIK_clean_linker_0, # of connection points: 2
#     Edge 44, Type (0, 0), BuildingBlock: UVAHIK_clean_linker_0, # of connection points: 2
#     Edge 45, Type (0, 0), BuildingBlock: UVAHIK_clean_linker_0, # of connection points: 2
#     Edge 46, Type (0, 0), BuildingBlock: UVAHIK_clean_linker_0, # of connection points: 2
#     Edge 47, Type (0, 0), BuildingBlock: UVAHIK_clean_linker_0, # of connection points: 2
# Relax obj value: 0.322
# Max RMSD: 0.141
# Mean RMSD: 0.140
data_MOF--net-upb--node1-UXUYUI_clean_sbu_0--edge1-UVAHIK_clean_linker_0
_symmetry_space_group_name_H-M    P1
_symmetry_Int_Tables_number       1
_symmetry_cell_setting            triclinic
loop_
_symmetry_equiv_pos_as_xyz
'x, y, z'
_cell_length_a     61.431478
_cell_length_b     61.348126
_cell_length_c     86.567916
_cell_angle_alpha  89.997631
_cell_angle_beta   89.994839
_cell_angle_gamma 89.988763
loop_
_atom_site_label
_atom_site_type_symbol
_atom_site_fract_x
_atom_site_fract_y
_atom_site_fract_z
_atom_type_partial_charge
Li0 Li 0.01248 0.29104 0.34471 0.0
Li1 Li 0.99397 0.31276 0.36466 0.0
Li2 Li 0.97318 0.29159 0.34564 0.0
Li3 Li 0.99246 0.32464 0.33828 0.0
C4 C 0.9824 0.264 0.36779 0.0
N5 N 0.95752 0.2304 0.3796 0.0
C6 C 0.9705 0.26702 0.38138 0.0
C7 C 0.98177 0.24385 0.36025 0.0
C8 C 0.95801 0.24982 0.38717 0.0
C9 C 0.96904 0.22709 0.36638 0.0
C10 C 0.03288 0.33145 0.36082 0.0
C11 C 0.04214 0.36159 0.37745 0.0
N12 N 0.06098 0.35133 0.38137 0.0
C13 C 0.05239 0.32126 0.36493 0.0
C14 C 0.02776 0.35184 0.36704 0.0
C15 C 0.06636 0.33156 0.37536 0.0
C16 C 0.05269 0.27833 0.33029 0.0
N17 N 0.03771 0.27355 0.34137 0.0
C18 C 0.05891 0.24328 0.34999 0.0
C19 C 0.04056 0.25652 0.35119 0.0
C20 C 0.07449 0.24758 0.33854 0.0
C21 C 0.07119 0.26527 0.32851 0.0
H22 H 0.05035 0.29235 0.3229 0.0
H23 H 0.0287 0.25334 0.36011 0.0
C24 C 0.98044 0.33237 0.39306 0.0
N25 N 0.99602 0.32041 0.38583 0.0
C26 C 0.98183 0.33623 0.40896 0.0
C27 C 0.01561 0.31603 0.40942 0.0
C28 C 0.01328 0.31213 0.39367 0.0
C29 C 0.99956 0.32786 0.41742 0.0
H30 H 0.96665 0.3384 0.38657 0.0
H31 H 0.02515 0.30225 0.38768 0.0
C32 C 0.00279 0.28767 0.31508 0.0
N33 N 0.02625 0.27056 0.29069 0.0
C34 C 0.01222 0.30152 0.30414 0.0
C35 C 0.00525 0.26511 0.31359 0.0
C36 C 0.02401 0.29255 0.29189 0.0
C37 C 0.0172 0.25678 0.30119 0.0
C38 C 0.95465 0.33841 0.34893 0.0
C39 C 0.9367 0.33451 0.3394 0.0
C40 C 0.95931 0.35965 0.35372 0.0
C41 C 0.92381 0.35205 0.33467 0.0
C42 C 0.94605 0.37675 0.34871 0.0
N43 N 0.92873 0.37263 0.33936 0.0
C44 C 0.93169 0.27481 0.35344 0.0
C45 C 0.94702 0.26045 0.33046 0.0
C46 C 0.91413 0.26042 0.35238 0.0
N47 N 0.94786 0.27423 0.34273 0.0
C48 C 0.92984 0.24576 0.32897 0.0
C49 C 0.91329 0.24536 0.34017 0.0
H50 H 0.93281 0.28599 0.36308 0.0
H51 H 0.95993 0.26053 0.32202 0.0
C52 C 0.00864 0.36392 0.32608 0.0
N53 N 0.99224 0.34919 0.32489 0.0
C54 C 0.01041 0.38088 0.31544 0.0
C55 C 0.97795 0.36761 0.30278 0.0
C56 C 0.9769 0.35079 0.31363 0.0
C57 C 0.99515 0.38271 0.3034 0.0
H58 H 0.02088 0.36201 0.33493 0.0
H59 H 0.96428 0.33858 0.31276 0.0
O60 O 0.99423 0.28081 0.36169 0.0
O61 O 0.01888 0.32151 0.35076 0.0
O62 O 0.99122 0.29614 0.32719 0.0
O63 O 0.96761 0.32151 0.35352 0.0
H64 H 0.9707 0.28254 0.38731 0.0
H65 H 0.99079 0.2413 0.34967 0.0
H66 H 0.94864 0.25196 0.39763 0.0
H67 H 0.96825 0.21147 0.36061 0.0
H68 H 0.03832 0.3773 0.38244 0.0
H69 H 0.05664 0.30549 0.36021 0.0
H70 H 0.01273 0.35994 0.36398 0.0
H71 H 0.08147 0.32382 0.37871 0.0
H72 H 0.06083 0.22973 0.35789 0.0
H73 H 0.083 0.26922 0.31966 0.0
H74 H 0.96882 0.34509 0.41459 0.0
H75 H 0.02982 0.30961 0.41524 0.0
H76 H 0.01059 0.31901 0.30512 0.0
H77 H 0.99834 0.25415 0.32205 0.0
H78 H 0.03143 0.30308 0.28336 0.0
H79 H 0.01936 0.23937 0.29995 0.0
H80 H 0.9329 0.31816 0.33558 0.0
H81 H 0.9731 0.3629 0.36114 0.0
H82 H 0.90994 0.34931 0.32722 0.0
H83 H 0.94954 0.3933 0.35225 0.0
H84 H 0.90178 0.26055 0.36131 0.0
H85 H 0.92961 0.23467 0.31923 0.0
H86 H 0.02424 0.39177 0.31622 0.0
H87 H 0.96574 0.36844 0.29378 0.0
Li88 Li 0.67486 0.99448 0.3384 0.0
Li89 Li 0.70693 0.01355 0.34632 0.0
Li90 Li 0.7061 0.97203 0.34423 0.0
Li91 Li 0.68587 0.99276 0.36507 0.0
C92 C 0.69998 0.99659 0.31246 0.0
N93 N 0.69219 0.00067 0.28117 0.0
C94 C 0.69122 0.01589 0.30656 0.0
C95 C 0.70491 0.9794 0.30246 0.0
C96 C 0.68734 0.01761 0.29071 0.0
C97 C 0.70084 0.98178 0.28667 0.0
C98 C 0.67591 0.04068 0.35535 0.0
C99 C 0.68456 0.07274 0.37026 0.0
N100 N 0.67513 0.08539 0.35923 0.0
C101 C 0.66623 0.054 0.34418 0.0
C102 C 0.68506 0.05011 0.36853 0.0
C103 C 0.66602 0.07657 0.34636 0.0
C104 C 0.63301 0.00908 0.33128 0.0
N105 N 0.64928 0.99629 0.32574 0.0
C106 C 0.62912 0.98947 0.30261 0.0
C107 C 0.64728 0.98577 0.31197 0.0
C108 C 0.61274 0.00383 0.30761 0.0
C109 C 0.61455 0.01313 0.32238 0.0
H110 H 0.63458 0.01654 0.34254 0.0
H111 H 0.65997 0.97492 0.30806 0.0
C112 C 0.74543 0.03719 0.35124 0.0
N113 N 0.72593 0.03803 0.34384 0.0
C114 C 0.76002 0.05456 0.3502 0.0
C115 C 0.73439 0.07334 0.33375 0.0
C116 C 0.72037 0.0555 0.33499 0.0
C117 C 0.7545 0.07299 0.34143 0.0
H118 H 0.74973 0.02299 0.35795 0.0
H119 H 0.70509 0.05566 0.32888 0.0
C120 C 0.65691 0.95852 0.34814 0.0
N121 N 0.61745 0.94076 0.33951 0.0
C122 C 0.63789 0.9644 0.35595 0.0
C123 C 0.65593 0.94353 0.33601 0.0
C124 C 0.61808 0.95526 0.35139 0.0
C125 C 0.6358 0.93475 0.3318 0.0
C126 C 0.72808 0.98772 0.37479 0.0
C127 C 0.73617 0.96703 0.37839 0.0
C128 C 0.73044 0.00472 0.38541 0.0
C129 C 0.74622 0.96363 0.39266 0.0
C130 C 0.74056 0.00065 0.39957 0.0
N131 N 0.74816 0.98036 0.40288 0.0
C132 C 0.74308 0.95059 0.33332 0.0
C133 C 0.71639 0.927 0.34391 0.0
C134 C 0.75719 0.93309 0.3309 0.0
N135 N 0.72323 0.94725 0.33981 0.0
C136 C 0.72997 0.90901 0.34169 0.0
C137 C 0.75079 0.91196 0.33525 0.0
H138 H 0.74811 0.96697 0.33036 0.0
H139 H 0.70057 0.92492 0.34919 0.0
C140 C 0.66206 0.0074 0.3908 0.0
N141 N 0.67641 0.99196 0.386 0.0
C142 C 0.65605 0.00867 0.40631 0.0
C143 C 0.67889 0.97746 0.41154 0.0
C144 C 0.68422 0.97664 0.39588 0.0
C145 C 0.66492 0.9939 0.41702 0.0
H146 H 0.65549 0.01895 0.38261 0.0
H147 H 0.695 0.96406 0.39168 0.0
O148 O 0.70389 0.99452 0.32793 0.0
O149 O 0.67641 0.01854 0.35339 0.0
O150 O 0.67633 0.96773 0.35216 0.0
O151 O 0.71807 0.99133 0.36091 0.0
H152 H 0.68704 0.0292 0.31417 0.0
H153 H 0.71172 0.96436 0.30687 0.0
H154 H 0.68039 0.03238 0.28599 0.0
H155 H 0.70452 0.9686 0.27879 0.0
H156 H 0.69166 0.08024 0.38039 0.0
H157 H 0.65926 0.04706 0.33382 0.0
H158 H 0.69249 0.04007 0.37732 0.0
H159 H 0.65871 0.08707 0.33776 0.0
H160 H 0.6284 0.98187 0.29133 0.0
H161 H 0.60203 0.02381 0.32689 0.0
H162 H 0.77535 0.05366 0.35636 0.0
H163 H 0.72968 0.0871 0.32666 0.0
H164 H 0.63842 0.97607 0.36532 0.0
H165 H 0.67051 0.93898 0.32977 0.0
H166 H 0.6032 0.95974 0.35726 0.0
H167 H 0.63475 0.92323 0.32237 0.0
H168 H 0.73456 0.95369 0.37031 0.0
H169 H 0.72454 0.02088 0.38276 0.0
H170 H 0.75245 0.94767 0.39563 0.0
H171 H 0.7424 0.01363 0.40792 0.0
H172 H 0.77319 0.9362 0.32614 0.0
H173 H 0.7243 0.89299 0.34507 0.0
H174 H 0.64473 0.02123 0.40988 0.0
H175 H 0.68623 0.96574 0.41931 0.0
Li176 Li 0.98342 0.70865 0.34416 0.0
Li177 Li 0.00407 0.68656 0.36282 0.0
Li178 Li 0.02383 0.70896 0.34282 0.0
Li179 Li 0.00454 0.6755 0.33624 0.0
C180 C 0.00244 0.73883 0.36631 0.0
N181 N 0.99862 0.77978 0.37941 0.0
C182 C 0.99425 0.74119 0.38129 0.0
C183 C 0.00905 0.75733 0.35812 0.0
C184 C 0.99232 0.76202 0.38767 0.0
C185 C 0.00691 0.77787 0.36491 0.0
C186 C 0.96564 0.66628 0.35984 0.0
C187 C 0.95916 0.63512 0.3762 0.0
N188 N 0.93952 0.64361 0.38027 0.0
C189 C 0.94533 0.67462 0.36409 0.0
C190 C 0.97256 0.64629 0.36585 0.0
C191 C 0.93239 0.66294 0.37446 0.0
C192 C 0.94829 0.72707 0.32727 0.0
N193 N 0.95762 0.72548 0.34146 0.0
C194 C 0.93038 0.74866 0.35235 0.0
C195 C 0.94886 0.73564 0.35395 0.0
C196 C 0.92067 0.75111 0.33775 0.0
C197 C 0.92977 0.73996 0.32512 0.0
H198 H 0.95532 0.71844 0.31758 0.0
H199 H 0.95617 0.73358 0.36519 0.0
C200 C 0.02292 0.6685 0.38977 0.0
N201 N 0.00466 0.67788 0.38391 0.0
C202 C 0.02416 0.66344 0.40549 0.0
C203 C 0.98757 0.67727 0.40868 0.0
C204 C 0.98715 0.68228 0.39298 0.0
C205 C 0.00635 0.66798 0.41515 0.0
H206 H 0.03669 0.66537 0.38231 0.0
H207 H 0.97302 0.69018 0.3881 0.0
C208 C 0.00403 0.71917 0.31393 0.0
N209 N 0.00699 0.74913 0.29016 0.0
C210 C 0.01078 0.71255 0.29924 0.0
C211 C 0.99849 0.74098 0.31645 0.0
C212 C 0.01226 0.72795 0.28739 0.0
C213 C 0.00017 0.75589 0.30431 0.0
C214 C 0.04327 0.66259 0.34514 0.0
C215 C 0.05998 0.66718 0.33469 0.0
C216 C 0.03992 0.64117 0.3501 0.0
C217 C 0.07295 0.65014 0.3292 0.0
C218 C 0.05322 0.62459 0.34432 0.0
N219 N 0.06931 0.62938 0.33407 0.0
C220 C 0.05866 0.734 0.3529 0.0
C221 C 0.05608 0.73288 0.3256 0.0
C222 C 0.07628 0.74829 0.35206 0.0
N223 N 0.04874 0.72691 0.33981 0.0
C224 C 0.0736 0.74727 0.32422 0.0
C225 C 0.0838 0.75532 0.33758 0.0
H226 H 0.05254 0.72887 0.36404 0.0
H227 H 0.04833 0.72664 0.31534 0.0
C228 C 0.9899 0.63496 0.32489 0.0
N229 N 0.00462 0.65116 0.32257 0.0
C230 C 0.98866 0.61748 0.31463 0.0
C231 C 0.01791 0.63353 0.29982 0.0
C232 C 0.01867 0.65066 0.31044 0.0
C233 C 0.00257 0.61677 0.30176 0.0
H234 H 0.97871 0.63588 0.33447 0.0
H235 H 0.03024 0.66374 0.30888 0.0
O236 O 0.00458 0.71848 0.35995 0.0
O237 O 0.9786 0.67758 0.34978 0.0
O238 O 0.0026 0.70427 0.32566 0.0
O239 O 0.03017 0.67898 0.35043 0.0
H240 H 0.98928 0.72713 0.3879 0.0
H241 H 0.01608 0.75591 0.34674 0.0
H242 H 0.98585 0.76405 0.3992 0.0
H243 H 0.01195 0.7923 0.35867 0.0
H244 H 0.96438 0.61972 0.38103 0.0
H245 H 0.93963 0.68996 0.35945 0.0
H246 H 0.98823 0.6396 0.36268 0.0
H247 H 0.91667 0.66924 0.3779 0.0
H248 H 0.92403 0.75702 0.3624 0.0
H249 H 0.9226 0.74107 0.31372 0.0
H250 H 0.03891 0.65625 0.41007 0.0
H251 H 0.97365 0.68139 0.41578 0.0
H252 H 0.0149 0.69572 0.29699 0.0
H253 H 0.99266 0.7463 0.32758 0.0
H254 H 0.01758 0.72306 0.27599 0.0
H255 H 0.99594 0.77281 0.30614 0.0
H256 H 0.06276 0.68368 0.33074 0.0
H257 H 0.02713 0.63739 0.35825 0.0
H258 H 0.08586 0.65342 0.32103 0.0
H259 H 0.05074 0.60791 0.34798 0.0
H260 H 0.08353 0.75424 0.36266 0.0
H261 H 0.07914 0.75201 0.31282 0.0
H262 H 0.97632 0.60513 0.31641 0.0
H263 H 0.029 0.63353 0.29009 0.0
Li264 Li 0.30986 0.00856 0.36522 0.0
Li265 Li 0.29021 0.02787 0.34361 0.0
Li266 Li 0.28936 0.98734 0.34582 0.0
Li267 Li 0.32197 0.0062 0.33906 0.0
C268 C 0.26186 0.013 0.37063 0.0
N269 N 0.22859 0.02092 0.3914 0.0
C270 C 0.25646 0.03438 0.37469 0.0
C271 C 0.25021 0.99564 0.37707 0.0
C272 C 0.23962 0.03805 0.38522 0.0
C273 C 0.23349 0.99999 0.38757 0.0
C274 C 0.33816 0.04333 0.34748 0.0
C275 C 0.35765 0.06503 0.32885 0.0
N276 N 0.3761 0.0628 0.3374 0.0
C277 C 0.35725 0.04133 0.35614 0.0
C278 C 0.33828 0.05534 0.33377 0.0
C279 C 0.37629 0.05127 0.35083 0.0
C280 C 0.33734 0.99981 0.39047 0.0
N281 N 0.31844 0.0098 0.38636 0.0
C282 C 0.31142 0.01946 0.41262 0.0
C283 C 0.30571 0.01987 0.39703 0.0
C284 C 0.33049 0.00867 0.41728 0.0
C285 C 0.34366 0.99894 0.40595 0.0
H286 H 0.34736 0.99222 0.38171 0.0
H287 H 0.291 0.02802 0.39351 0.0
C288 C 0.25399 0.04985 0.33132 0.0
N289 N 0.27323 0.05263 0.3388 0.0
C290 C 0.24 0.06754 0.32915 0.0
C291 C 0.26616 0.0906 0.34216 0.0
C292 C 0.2797 0.07251 0.34398 0.0
C293 C 0.24586 0.08815 0.33489 0.0
H294 H 0.24925 0.03376 0.32748 0.0
H295 H 0.29505 0.07413 0.35 0.0
C296 C 0.31989 0.96406 0.36324 0.0
N297 N 0.32106 0.92757 0.38192 0.0
C298 C 0.33591 0.94819 0.36102 0.0
C299 C 0.30451 0.9614 0.37497 0.0
C300 C 0.33622 0.92984 0.37057 0.0
C301 C 0.30537 0.94285 0.3843 0.0
C302 C 0.29524 0.99234 0.31447 0.0
C303 C 0.30744 0.9731 0.31502 0.0
C304 C 0.28383 0.99767 0.30103 0.0
C305 C 0.30804 0.95954 0.30206 0.0
C306 C 0.28485 0.98368 0.28832 0.0
N307 N 0.29683 0.96506 0.28909 0.0
C308 C 0.24917 0.96652 0.34179 0.0
C309 C 0.2792 0.94227 0.34153 0.0
C310 C 0.23467 0.94916 0.34007 0.0
N311 N 0.27093 0.96277 0.34272 0.0
C312 C 0.26531 0.92443 0.33985 0.0
C313 C 0.24269 0.92774 0.33924 0.0
H314 H 0.24307 0.98303 0.34261 0.0
H315 H 0.29658 0.93971 0.3419 0.0
C316 C 0.36572 0.99585 0.33475 0.0
N317 N 0.34798 0.00372 0.32724 0.0
C318 C 0.38478 0.99127 0.32663 0.0
C319 C 0.36707 0.00335 0.30321 0.0
C320 C 0.34849 0.00816 0.31186 0.0
C321 C 0.38544 0.99426 0.31052 0.0
H322 H 0.36485 0.99266 0.34702 0.0
H323 H 0.3342 0.01462 0.3062 0.0
O324 O 0.27811 0.00909 0.36016 0.0
O325 O 0.31951 0.03327 0.35228 0.0
O326 O 0.3194 0.98201 0.35387 0.0
O327 O 0.29424 0.00589 0.32701 0.0
H328 H 0.26537 0.04801 0.36995 0.0
H329 H 0.25397 0.97898 0.374 0.0
H330 H 0.23537 0.05452 0.38852 0.0
H331 H 0.22439 0.98671 0.39265 0.0
H332 H 0.35804 0.07427 0.31821 0.0
H333 H 0.35739 0.03202 0.36676 0.0
H334 H 0.32362 0.05693 0.32692 0.0
H335 H 0.39123 0.04977 0.35735 0.0
H336 H 0.30069 0.02703 0.42097 0.0
H337 H 0.35867 0.99074 0.40901 0.0
H338 H 0.22439 0.06493 0.32365 0.0
H339 H 0.27134 0.10624 0.34664 0.0
H340 H 0.34793 0.95002 0.35196 0.0
H341 H 0.29216 0.9736 0.37693 0.0
H342 H 0.34849 0.91741 0.36897 0.0
H343 H 0.29357 0.94061 0.39344 0.0
H344 H 0.31642 0.96869 0.32528 0.0
H345 H 0.27428 0.01248 0.30045 0.0
H346 H 0.31743 0.94463 0.30232 0.0
H347 H 0.2761 0.98761 0.27784 0.0
H348 H 0.21735 0.95244 0.33976 0.0
H349 H 0.2722 0.90823 0.33897 0.0
H350 H 0.39864 0.9849 0.3329 0.0
H351 H 0.36658 0.00577 0.29084 0.0
Li352 Li 0.99488 0.6777 0.66007 0.0
Li353 Li 0.9728 0.70847 0.6548 0.0
Li354 Li 0.9945 0.68862 0.63359 0.0
Li355 Li 0.01331 0.71069 0.65453 0.0
C356 C 0.95881 0.66006 0.64988 0.0
N357 N 0.93877 0.62165 0.65846 0.0
C358 C 0.94645 0.65918 0.66342 0.0
C359 C 0.9608 0.64153 0.64061 0.0
C360 C 0.93651 0.63956 0.66759 0.0
C361 C 0.95057 0.62224 0.64517 0.0
C362 C 0.99259 0.72341 0.68158 0.0
C363 C 0.99258 0.7626 0.68407 0.0
N364 N 0.99028 0.76056 0.69962 0.0
C365 C 0.99031 0.72173 0.69761 0.0
C366 C 0.99379 0.74404 0.67478 0.0
C367 C 0.98914 0.74068 0.70652 0.0
C368 C 0.00101 0.63214 0.66639 0.0
N369 N 0.9965 0.652 0.67261 0.0
C370 C 0.99556 0.63674 0.69798 0.0
C371 C 0.9934 0.6545 0.68804 0.0
C372 C 0.00113 0.61624 0.69197 0.0
C373 C 0.00361 0.61396 0.67593 0.0
H374 H 0.00287 0.63043 0.65405 0.0
H375 H 0.98957 0.67038 0.69266 0.0
C376 C 0.93482 0.72766 0.64422 0.0
N377 N 0.94638 0.72429 0.65737 0.0
C378 C 0.91609 0.74053 0.64444 0.0
C379 C 0.92115 0.74579 0.67186 0.0
C380 C 0.93961 0.73253 0.67114 0.0
C381 C 0.90926 0.75026 0.65834 0.0
H382 H 0.94046 0.72068 0.63346 0.0
H383 H 0.94871 0.72925 0.68154 0.0
C384 C 0.03549 0.66676 0.65023 0.0
N385 N 0.06635 0.6363 0.65876 0.0
C386 C 0.04735 0.66953 0.66386 0.0
C387 C 0.03941 0.64859 0.64088 0.0
C388 C 0.06286 0.65392 0.66798 0.0
C389 C 0.05504 0.63335 0.64542 0.0
C390 C 0.99375 0.7383 0.62929 0.0
C391 C 0.00667 0.73775 0.616 0.0
C392 C 0.98203 0.75722 0.63282 0.0
C393 C 0.00799 0.75624 0.60663 0.0
C394 C 0.98377 0.77536 0.62315 0.0
N395 N 0.99662 0.77451 0.61037 0.0
C396 C 0.97727 0.68162 0.60371 0.0
C397 C 0.01555 0.67789 0.60602 0.0
C398 C 0.97846 0.6779 0.5878 0.0
N399 N 0.9957 0.68168 0.61238 0.0
C400 C 0.01749 0.67399 0.59022 0.0
C401 C 0.99882 0.67422 0.58083 0.0
H402 H 0.96173 0.68492 0.60912 0.0
H403 H 0.02995 0.67839 0.61319 0.0
C404 C 0.04575 0.73455 0.6716 0.0
N405 N 0.03842 0.72869 0.65736 0.0
C406 C 0.06378 0.7483 0.67308 0.0
C407 C 0.06713 0.74867 0.64528 0.0
C408 C 0.04903 0.73503 0.64435 0.0
C409 C 0.07457 0.75577 0.65977 0.0
H410 H 0.03757 0.7287 0.68184 0.0
H411 H 0.04349 0.72936 0.63323 0.0
O412 O 0.96903 0.67895 0.64578 0.0
O413 O 0.99354 0.70491 0.67273 0.0
O414 O 0.02027 0.68186 0.64597 0.0
O415 O 0.992 0.72021 0.6385 0.0
H416 H 0.94479 0.67344 0.6707 0.0
H417 H 0.97033 0.64202 0.63009 0.0
H418 H 0.92703 0.63856 0.6781 0.0
H419 H 0.95207 0.60771 0.63816 0.0
H420 H 0.99353 0.77864 0.67891 0.0
H421 H 0.98937 0.70596 0.70315 0.0
H422 H 0.99596 0.74572 0.6625 0.0
H423 H 0.98731 0.73958 0.71893 0.0
H424 H 0.99369 0.63922 0.7103 0.0
H425 H 0.0077 0.59836 0.67085 0.0
H426 H 0.90722 0.74297 0.63378 0.0
H427 H 0.91671 0.75297 0.68284 0.0
H428 H 0.0445 0.68352 0.6712 0.0
H429 H 0.03025 0.64612 0.63035 0.0
H430 H 0.07213 0.65579 0.67853 0.0
H431 H 0.05814 0.61914 0.63835 0.0
H432 H 0.01572 0.72325 0.613 0.0
H433 H 0.97166 0.75794 0.6429 0.0
H434 H 0.01804 0.75605 0.59637 0.0
H435 H 0.97485 0.79011 0.62579 0.0
H436 H 0.96368 0.67852 0.58101 0.0
H437 H 0.03348 0.67096 0.58541 0.0
H438 H 0.06893 0.75331 0.6845 0.0
H439 H 0.07531 0.75346 0.63473 0.0
Li440 Li 0.29146 0.01458 0.65193 0.0
Li441 Li 0.3238 0.99454 0.66072 0.0
Li442 Li 0.3129 0.99376 0.63368 0.0
Li443 Li 0.29191 0.97472 0.65365 0.0
C444 C 0.32466 0.0411 0.6467 0.0
N445 N 0.32806 0.0859 0.64896 0.0
C446 C 0.3355 0.05053 0.65922 0.0
C447 C 0.31561 0.05446 0.6353 0.0
C448 C 0.33705 0.07321 0.66015 0.0
C449 C 0.31746 0.07708 0.63667 0.0
C450 C 0.28081 0.98818 0.68123 0.0
C451 C 0.2711 0.96096 0.70012 0.0
N452 N 0.25115 0.97034 0.70162 0.0
C453 C 0.26025 0.99761 0.68301 0.0
C454 C 0.28635 0.96977 0.6899 0.0
C455 C 0.24547 0.98834 0.69337 0.0
C456 C 0.25566 0.04141 0.64534 0.0
N457 N 0.27364 0.03981 0.65439 0.0
C458 C 0.26584 0.07428 0.66606 0.0
C459 C 0.27867 0.05552 0.66488 0.0
C460 C 0.2474 0.07665 0.65656 0.0
C461 C 0.24225 0.0597 0.64626 0.0
H462 H 0.25165 0.02842 0.63742 0.0
H463 H 0.29278 0.0536 0.67221 0.0
C464 C 0.3681 0.00066 0.66736 0.0
N465 N 0.3485 0.99598 0.67386 0.0
C466 C 0.38649 0.00331 0.67662 0.0
C467 C 0.36423 0.99597 0.69907 0.0
C468 C 0.34627 0.99343 0.68936 0.0
C469 C 0.38463 0.00129 0.69274 0.0
H470 H 0.3693 0.00281 0.65499 0.0
H471 H 0.33043 0.99 0.69422 0.0
C472 C 0.27337 0.99009 0.62213 0.0
N473 N 0.2599 0.98303 0.5921 0.0
C474 C 0.26669 0.96933 0.61748 0.0
C475 C 0.27307 0.00729 0.61154 0.0
C476 C 0.25994 0.96609 0.60224 0.0
C477 C 0.26627 0.00337 0.5964 0.0
C478 C 0.34124 0.95892 0.64962 0.0
C479 C 0.35852 0.96133 0.63927 0.0
C480 C 0.34423 0.94703 0.66323 0.0
C481 C 0.37863 0.9519 0.64277 0.0
C482 C 0.3646 0.9379 0.66633 0.0
N483 N 0.38123 0.94051 0.65613 0.0
C484 C 0.33285 0.01076 0.60695 0.0
C485 C 0.31929 0.97482 0.60414 0.0
C486 C 0.33868 0.0114 0.59139 0.0
N487 N 0.32289 0.99286 0.61289 0.0
C488 C 0.32473 0.97479 0.58848 0.0
C489 C 0.33422 0.99343 0.58184 0.0
H490 H 0.33601 0.02467 0.61425 0.0
H491 H 0.31164 0.96067 0.60925 0.0
C492 C 0.25189 0.95406 0.65809 0.0
N493 N 0.27367 0.95032 0.65755 0.0
C494 C 0.23743 0.93687 0.66046 0.0
C495 C 0.2681 0.9122 0.66156 0.0
C496 C 0.282 0.92993 0.65924 0.0
C497 C 0.24548 0.91556 0.66214 0.0
H498 H 0.24575 0.97043 0.65646 0.0
H499 H 0.29939 0.92742 0.65861 0.0
O500 O 0.32281 0.01892 0.64563 0.0
O501 O 0.29533 0.99675 0.67092 0.0
O502 O 0.28042 0.99352 0.63692 0.0
O503 O 0.32155 0.96837 0.64654 0.0
H504 H 0.34247 0.04049 0.66822 0.0
H505 H 0.307 0.04746 0.6256 0.0
H506 H 0.34534 0.08073 0.66981 0.0
H507 H 0.31042 0.08761 0.62798 0.0
H508 H 0.27511 0.94662 0.70681 0.0
H509 H 0.25567 0.01183 0.67637 0.0
H510 H 0.30214 0.96218 0.68858 0.0
H511 H 0.22947 0.9954 0.69481 0.0
H512 H 0.27055 0.08689 0.67413 0.0
H513 H 0.22788 0.06042 0.63903 0.0
H514 H 0.40191 0.00723 0.67125 0.0
H515 H 0.36196 0.99464 0.71144 0.0
H516 H 0.26694 0.95579 0.62548 0.0
H517 H 0.27829 0.02344 0.61493 0.0
H518 H 0.25482 0.95009 0.59845 0.0
H519 H 0.26612 0.0165 0.58805 0.0
H520 H 0.3565 0.97054 0.62871 0.0
H521 H 0.33105 0.94516 0.67142 0.0
H522 H 0.39219 0.95371 0.6349 0.0
H523 H 0.3672 0.9288 0.67687 0.0
H524 H 0.34643 0.02591 0.58687 0.0
H525 H 0.32087 0.96061 0.58156 0.0
H526 H 0.22011 0.94015 0.66055 0.0
H527 H 0.27497 0.89605 0.66288 0.0
Li528 Li 0.00631 0.32589 0.66196 0.0
Li529 Li 0.02683 0.29317 0.65516 0.0
Li530 Li 0.00631 0.31521 0.63522 0.0
Li531 Li 0.98637 0.29224 0.65374 0.0
C532 C 0.04487 0.33995 0.65327 0.0
N533 N 0.07035 0.37328 0.66477 0.0
C534 C 0.0613 0.33543 0.66396 0.0
C535 C 0.04152 0.36136 0.6483 0.0
C536 C 0.07399 0.35253 0.66967 0.0
C537 C 0.05453 0.378 0.6543 0.0
C538 C 0.00709 0.28171 0.68384 0.0
C539 C 0.00494 0.24451 0.69276 0.0
N540 N 0.01078 0.25115 0.70716 0.0
C541 C 0.01292 0.28818 0.69876 0.0
C542 C 0.00295 0.25971 0.68083 0.0
C543 C 0.01476 0.27248 0.71038 0.0
C544 C 0.99035 0.36583 0.67333 0.0
N545 N 0.00552 0.35009 0.67575 0.0
C546 C 0.01818 0.36832 0.69845 0.0
C547 C 0.01943 0.35106 0.68795 0.0
C548 C 0.00246 0.38469 0.69633 0.0
C549 C 0.98859 0.38339 0.68347 0.0
H550 H 0.97922 0.36452 0.66375 0.0
H551 H 0.0313 0.33828 0.68964 0.0
C552 C 0.06423 0.27289 0.6447 0.0
N553 N 0.05251 0.27612 0.6578 0.0
C554 C 0.08261 0.25951 0.64486 0.0
C555 C 0.07675 0.25326 0.6721 0.0
C556 C 0.05866 0.26702 0.67144 0.0
C557 C 0.0889 0.24911 0.65863 0.0
H558 H 0.05906 0.2805 0.63404 0.0
H559 H 0.04942 0.27007 0.6818 0.0
C560 C 0.96735 0.3349 0.63866 0.0
N561 N 0.94071 0.35845 0.61909 0.0
C562 C 0.94674 0.32698 0.63477 0.0
C563 C 0.97432 0.35492 0.63273 0.0
C564 C 0.93353 0.33911 0.62483 0.0
C565 C 0.96064 0.36655 0.62281 0.0
C566 C 0.00599 0.26322 0.63126 0.0
C567 C 0.9966 0.26118 0.61662 0.0
C568 C 0.01402 0.24467 0.63872 0.0
C569 C 0.99488 0.24056 0.60987 0.0
C570 C 0.01203 0.22435 0.63159 0.0
N571 N 0.00255 0.22272 0.61744 0.0
C572 C 0.02539 0.33258 0.60818 0.0
C573 C 0.98889 0.32071 0.60521 0.0
C574 C 0.02659 0.33781 0.59248 0.0
N575 N 0.00677 0.32408 0.61416 0.0
C576 C 0.98922 0.32615 0.58958 0.0
C577 C 0.00833 0.33454 0.58303 0.0
H578 H 0.03945 0.33483 0.61553 0.0
H579 H 0.9745 0.31335 0.61013 0.0
C580 C 0.95247 0.27032 0.67013 0.0
N581 N 0.96105 0.27452 0.65596 0.0
C582 C 0.93446 0.25655 0.67162 0.0
C583 C 0.93373 0.25269 0.64385 0.0
C584 C 0.95181 0.26638 0.64292 0.0
C585 C 0.92499 0.24732 0.65836 0.0
H586 H 0.95975 0.27745 0.68031 0.0
H587 H 0.95836 0.2707 0.63176 0.0
O588 O 0.03204 0.32349 0.64777 0.0
O589 O 0.00538 0.2969 0.67233 0.0
O590 O 0.98056 0.32315 0.64829 0.0
O591 O 0.00798 0.28335 0.63796 0.0
H592 H 0.06407 0.31893 0.66793 0.0
H593 H 0.02896 0.36508 0.63995 0.0
H594 H 0.08669 0.3493 0.67802 0.0
H595 H 0.05205 0.39467 0.65063 0.0
H596 H 0.00178 0.22744 0.69057 0.0
H597 H 0.01604 0.30514 0.70134 0.0
H598 H 0.99802 0.25446 0.66946 0.0
H599 H 0.01933 0.27726 0.72196 0.0
H600 H 0.02923 0.36875 0.70819 0.0
H601 H 0.97592 0.39537 0.68156 0.0
H602 H 0.09168 0.2573 0.63425 0.0
H603 H 0.08076 0.24553 0.68297 0.0
H604 H 0.94099 0.31165 0.63938 0.0
H605 H 0.99021 0.36129 0.63562 0.0
H606 H 0.91757 0.33313 0.62167 0.0
H607 H 0.96589 0.38198 0.61805 0.0
H608 H 0.99052 0.27533 0.61057 0.0
H609 H 0.02191 0.2459 0.64983 0.0
H610 H 0.98747 0.23876 0.59861 0.0
H611 H 0.01813 0.20987 0.63727 0.0
H612 H 0.04164 0.34414 0.58775 0.0
H613 H 0.97497 0.32301 0.58255 0.0
H614 H 0.92833 0.25286 0.68305 0.0
H615 H 0.92661 0.24651 0.63328 0.0
Li616 Li 0.70949 0.02686 0.65459 0.0
Li617 Li 0.68922 0.00843 0.63393 0.0
Li618 Li 0.67725 0.00698 0.66081 0.0
Li619 Li 0.70989 0.98705 0.65237 0.0
C620 C 0.66057 0.04331 0.64979 0.0
N621 N 0.62084 0.06274 0.65561 0.0
C622 C 0.64391 0.04219 0.63883 0.0
C623 C 0.65711 0.05446 0.66366 0.0
C624 C 0.62392 0.0521 0.642 0.0
C625 C 0.63688 0.06412 0.6664 0.0
C626 C 0.72956 0.01199 0.62331 0.0
C627 C 0.7379 0.99903 0.59768 0.0
N628 N 0.74516 0.01926 0.59382 0.0
C629 C 0.73717 0.03263 0.61911 0.0
C630 C 0.73002 0.99501 0.61254 0.0
C631 C 0.74499 0.03597 0.60414 0.0
C632 C 0.74926 0.04764 0.6602 0.0
N633 N 0.7275 0.05123 0.65904 0.0
C634 C 0.73268 0.08954 0.66233 0.0
C635 C 0.71899 0.07162 0.66012 0.0
C636 C 0.75529 0.08635 0.66344 0.0
C637 C 0.76351 0.06503 0.66251 0.0
H638 H 0.75558 0.03127 0.65897 0.0
H639 H 0.70164 0.07401 0.65897 0.0
C640 C 0.66826 0.99269 0.60728 0.0
N641 N 0.67977 0.00975 0.61305 0.0
C642 C 0.66226 0.99233 0.59174 0.0
C643 C 0.67948 0.02746 0.58848 0.0
C644 C 0.6849 0.02724 0.60414 0.0
C645 C 0.66826 0.00967 0.58201 0.0
H646 H 0.66387 0.97926 0.61471 0.0
H647 H 0.69366 0.04081 0.60912 0.0
C648 C 0.71925 0.01273 0.6823 0.0
N649 N 0.74767 0.03008 0.70374 0.0
C650 C 0.73988 0.00356 0.68431 0.0
C651 C 0.71298 0.03059 0.69128 0.0
C652 C 0.75403 0.0126 0.6952 0.0
C653 C 0.72762 0.03918 0.70203 0.0
C654 C 0.67664 0.9609 0.64591 0.0
C655 C 0.66534 0.95103 0.65806 0.0
C656 C 0.68576 0.94798 0.63429 0.0
C657 C 0.66348 0.92834 0.65842 0.0
C658 C 0.68358 0.92535 0.63508 0.0
N659 N 0.67258 0.91608 0.64703 0.0
C660 C 0.63258 0.0018 0.66626 0.0
C661 C 0.6539 0.00434 0.68901 0.0
C662 C 0.61389 0.99775 0.67494 0.0
N663 N 0.65205 0.00481 0.67338 0.0
C664 C 0.63566 0.00011 0.69815 0.0
C665 C 0.61535 0.99633 0.69112 0.0
H666 H 0.6317 0.00186 0.65378 0.0
H667 H 0.66968 0.00639 0.69433 0.0
C668 C 0.74567 0.95996 0.64614 0.0
N669 N 0.72735 0.96159 0.65485 0.0
C670 C 0.75874 0.94143 0.64706 0.0
C671 C 0.73411 0.92667 0.66615 0.0
C672 C 0.72165 0.94567 0.66499 0.0
C673 C 0.75288 0.92426 0.65699 0.0
H674 H 0.7502 0.97311 0.6385 0.0
H675 H 0.70726 0.9476 0.67205 0.0
O676 O 0.68014 0.03346 0.64699 0.0
O677 O 0.72157 0.00845 0.63784 0.0
O678 O 0.70532 0.00439 0.6715 0.0
O679 O 0.67883 0.98308 0.64542 0.0
H680 H 0.64632 0.03361 0.62804 0.0
H681 H 0.66983 0.05542 0.67227 0.0
H682 H 0.61084 0.05128 0.63366 0.0
H683 H 0.63392 0.07267 0.67713 0.0
H684 H 0.73821 0.98608 0.5892 0.0
H685 H 0.73684 0.04599 0.62726 0.0
H686 H 0.72413 0.97896 0.61559 0.0
H687 H 0.75083 0.05189 0.60071 0.0
H688 H 0.72569 0.10571 0.66305 0.0
H689 H 0.78084 0.06187 0.66302 0.0
H690 H 0.65312 0.97855 0.58741 0.0
H691 H 0.6846 0.04113 0.58145 0.0
H692 H 0.74499 0.98975 0.67743 0.0
H693 H 0.69707 0.03789 0.68984 0.0
H694 H 0.7701 0.00575 0.69682 0.0
H695 H 0.72305 0.05309 0.70898 0.0
H696 H 0.65826 0.96074 0.6672 0.0
H697 H 0.69461 0.95535 0.62483 0.0
H698 H 0.65486 0.92047 0.66778 0.0
H699 H 0.69067 0.91515 0.62622 0.0
H700 H 0.59859 0.9952 0.66901 0.0
H701 H 0.6377 0.99878 0.71054 0.0
H702 H 0.77337 0.94066 0.64011 0.0
H703 H 0.72887 0.9139 0.67393 0.0
Li704 Li 0.51362 0.7882 0.84421 0.0
Li705 Li 0.49579 0.81094 0.86393 0.0
Li706 Li 0.4743 0.78944 0.84549 0.0
Li707 Li 0.49401 0.82189 0.83739 0.0
C708 C 0.48362 0.7624 0.86799 0.0
N709 N 0.45865 0.72942 0.88054 0.0
C710 C 0.47187 0.76601 0.88157 0.0
C711 C 0.48281 0.74199 0.86084 0.0
C712 C 0.45933 0.74912 0.88774 0.0
C713 C 0.47003 0.72554 0.86735 0.0
C714 C 0.53504 0.82867 0.85946 0.0
C715 C 0.54522 0.85897 0.87567 0.0
N716 N 0.56401 0.8485 0.87942 0.0
C717 C 0.5545 0.81825 0.8634 0.0
C718 C 0.5304 0.84925 0.86555 0.0
C719 C 0.56892 0.82854 0.87353 0.0
C720 C 0.55285 0.77363 0.82929 0.0
N721 N 0.53841 0.77007 0.84093 0.0
C722 C 0.55921 0.73975 0.84995 0.0
C723 C 0.54142 0.75371 0.85128 0.0
C724 C 0.5741 0.74248 0.83776 0.0
C725 C 0.57075 0.7598 0.82737 0.0
H726 H 0.55044 0.78714 0.82147 0.0
H727 H 0.53011 0.75164 0.86072 0.0
C728 C 0.48285 0.83159 0.89207 0.0
N729 N 0.49826 0.81928 0.88495 0.0
C730 C 0.48445 0.83594 0.9079 0.0
C731 C 0.51811 0.81554 0.90849 0.0
C732 C 0.51556 0.81114 0.89282 0.0
C733 C 0.50221 0.82771 0.91639 0.0
H734 H 0.46902 0.83749 0.88557 0.0
H735 H 0.52729 0.80098 0.88692 0.0
C736 C 0.50304 0.78391 0.81466 0.0
N737 N 0.52514 0.76546 0.79012 0.0
C738 C 0.51223 0.79717 0.80326 0.0
C739 C 0.50507 0.76126 0.81356 0.0
C740 C 0.52332 0.78752 0.79094 0.0
C741 C 0.51633 0.75225 0.80108 0.0
C742 C 0.45668 0.83668 0.84802 0.0
C743 C 0.43863 0.83278 0.8386 0.0
C744 C 0.46178 0.85799 0.8524 0.0
C745 C 0.42606 0.85039 0.83357 0.0
C746 C 0.44883 0.87516 0.84711 0.0
N747 N 0.43139 0.87103 0.83788 0.0
C748 C 0.43266 0.77349 0.85394 0.0
C749 C 0.44752 0.75809 0.83114 0.0
C750 C 0.41493 0.75925 0.85327 0.0
N751 N 0.44868 0.77233 0.84313 0.0
C752 C 0.43018 0.74351 0.83006 0.0
C753 C 0.4138 0.74372 0.84138 0.0
H754 H 0.43403 0.78502 0.86334 0.0
H755 H 0.46029 0.75772 0.8226 0.0
C756 C 0.51038 0.86075 0.82472 0.0
N757 N 0.49396 0.84603 0.82362 0.0
C758 C 0.51222 0.87753 0.81395 0.0
C759 C 0.47984 0.86406 0.80128 0.0
C760 C 0.4787 0.84743 0.81229 0.0
C761 C 0.49703 0.87918 0.80186 0.0
H762 H 0.52255 0.859 0.83363 0.0
H763 H 0.46603 0.83525 0.81152 0.0
O764 O 0.4955 0.7789 0.86153 0.0
O765 O 0.52062 0.81877 0.84967 0.0
O766 O 0.49209 0.79305 0.82682 0.0
O767 O 0.46936 0.81971 0.85288 0.0
H768 H 0.47222 0.78175 0.8872 0.0
H769 H 0.49173 0.73898 0.85028 0.0
H770 H 0.45006 0.75171 0.8982 0.0
H771 H 0.4691 0.70972 0.86188 0.0
H772 H 0.54177 0.87483 0.88055 0.0
H773 H 0.55839 0.80235 0.85876 0.0
H774 H 0.51541 0.85752 0.86263 0.0
H775 H 0.584 0.82063 0.87674 0.0
H776 H 0.56139 0.72714 0.85856 0.0
H777 H 0.58168 0.76256 0.81776 0.0
H778 H 0.47156 0.84506 0.91345 0.0
H779 H 0.53233 0.8092 0.91433 0.0
H780 H 0.51093 0.81471 0.80393 0.0
H781 H 0.49837 0.75075 0.8224 0.0
H782 H 0.53054 0.79759 0.78205 0.0
H783 H 0.51814 0.73476 0.80014 0.0
H784 H 0.4345 0.81637 0.83509 0.0
H785 H 0.47568 0.86125 0.85973 0.0
H786 H 0.4121 0.84764 0.82621 0.0
H787 H 0.45265 0.89176 0.85033 0.0
H788 H 0.40269 0.75985 0.86227 0.0
H789 H 0.42971 0.73204 0.82056 0.0
H790 H 0.52603 0.88846 0.81469 0.0
H791 H 0.4677 0.86475 0.79223 0.0
Li792 Li 0.17388 0.4945 0.83896 0.0
Li793 Li 0.20566 0.51332 0.84752 0.0
Li794 Li 0.20515 0.47195 0.84472 0.0
Li795 Li 0.18449 0.49193 0.86563 0.0
C796 C 0.19924 0.49653 0.81324 0.0
N797 N 0.19164 0.49964 0.78187 0.0
C798 C 0.19057 0.51567 0.807 0.0
C799 C 0.20418 0.47902 0.80352 0.0
C800 C 0.18678 0.5169 0.79112 0.0
C801 C 0.2002 0.48091 0.78769 0.0
C802 C 0.17486 0.54034 0.85583 0.0
C803 C 0.18386 0.57291 0.87008 0.0
N804 N 0.17501 0.58523 0.85863 0.0
C805 C 0.16582 0.55333 0.84421 0.0
C806 C 0.18389 0.5502 0.8689 0.0
C807 C 0.16605 0.57599 0.84585 0.0
C808 C 0.13211 0.50918 0.83151 0.0
N809 N 0.14846 0.49636 0.8261 0.0
C810 C 0.12859 0.48943 0.80286 0.0
C811 C 0.14661 0.48576 0.81236 0.0
C812 C 0.11219 0.50387 0.8077 0.0
C813 C 0.1138 0.51324 0.82246 0.0
H814 H 0.13352 0.51667 0.84277 0.0
H815 H 0.15931 0.47484 0.80858 0.0
C816 C 0.24337 0.53756 0.854 0.0
N817 N 0.22468 0.53792 0.84559 0.0
C818 C 0.25799 0.55492 0.85326 0.0
C819 C 0.23401 0.57279 0.83512 0.0
C820 C 0.21996 0.55494 0.83609 0.0
C821 C 0.25334 0.57287 0.84376 0.0
H822 H 0.24703 0.52371 0.86124 0.0
H823 H 0.20531 0.55473 0.82922 0.0
C824 C 0.15596 0.45806 0.8481 0.0
N825 N 0.11667 0.44016 0.83924 0.0
C826 C 0.13684 0.46383 0.85583 0.0
C827 C 0.15517 0.4431 0.83594 0.0
C828 C 0.11711 0.45462 0.85115 0.0
C829 C 0.13512 0.43425 0.83162 0.0
C830 C 0.22564 0.48632 0.876 0.0
C831 C 0.23354 0.46547 0.87933 0.0
C832 C 0.2269 0.50266 0.88722 0.0
C833 C 0.24229 0.46124 0.89393 0.0
C834 C 0.23572 0.49778 0.90169 0.0
N835 N 0.24316 0.47734 0.90471 0.0
C836 C 0.24222 0.45086 0.83356 0.0
C837 C 0.21571 0.42701 0.8441 0.0
C838 C 0.25643 0.43347 0.83106 0.0
N839 N 0.22241 0.44734 0.84007 0.0
C840 C 0.22942 0.40913 0.84182 0.0
C841 C 0.2502 0.41227 0.83537 0.0
H842 H 0.24714 0.46729 0.83066 0.0
H843 H 0.19993 0.42479 0.84941 0.0
C844 C 0.16203 0.50612 0.8922 0.0
N845 N 0.1748 0.48997 0.88645 0.0
C846 C 0.15616 0.50616 0.90777 0.0
C847 C 0.17587 0.47238 0.91105 0.0
C848 C 0.18111 0.47287 0.89536 0.0
C849 C 0.16354 0.4894 0.91753 0.0
H850 H 0.1566 0.51915 0.88474 0.0
H851 H 0.19072 0.4599 0.89038 0.0
O852 O 0.2031 0.49496 0.82875 0.0
O853 O 0.17495 0.5181 0.8544 0.0
O854 O 0.1753 0.46733 0.85224 0.0
O855 O 0.2168 0.4907 0.86183 0.0
H856 H 0.1864 0.52924 0.81438 0.0
H857 H 0.21091 0.4641 0.80818 0.0
H858 H 0.1799 0.53154 0.78615 0.0
H859 H 0.20388 0.46747 0.78003 0.0
H860 H 0.19087 0.58074 0.88011 0.0
H861 H 0.15901 0.54608 0.83391 0.0
H862 H 0.19092 0.54044 0.87801 0.0
H863 H 0.15922 0.58623 0.8369 0.0
H864 H 0.128 0.48177 0.7916 0.0
H865 H 0.10124 0.52398 0.82684 0.0
H866 H 0.2727 0.55438 0.86015 0.0
H867 H 0.23001 0.58618 0.82748 0.0
H868 H 0.13723 0.47547 0.86522 0.0
H869 H 0.16984 0.43862 0.82978 0.0
H870 H 0.10215 0.45902 0.85696 0.0
H871 H 0.13422 0.42275 0.82217 0.0
H872 H 0.23278 0.45262 0.8708 0.0
H873 H 0.22104 0.51892 0.88481 0.0
H874 H 0.24835 0.44515 0.89669 0.0
H875 H 0.23665 0.51024 0.9105 0.0
H876 H 0.27239 0.43671 0.82628 0.0
H877 H 0.22389 0.39306 0.84518 0.0
H878 H 0.14611 0.51929 0.91212 0.0
H879 H 0.18206 0.45915 0.91807 0.0
Li880 Li 0.4843 0.21044 0.8439 0.0
Li881 Li 0.50465 0.18814 0.86263 0.0
Li882 Li 0.52474 0.20983 0.84242 0.0
Li883 Li 0.50464 0.1767 0.83612 0.0
C884 C 0.50507 0.24062 0.86546 0.0
N885 N 0.5041 0.28226 0.87767 0.0
C886 C 0.49821 0.24401 0.88067 0.0
C887 C 0.51175 0.2584 0.85655 0.0
C888 C 0.49772 0.26518 0.88661 0.0
C889 C 0.51107 0.27932 0.86291 0.0
C890 C 0.46581 0.16877 0.86003 0.0
C891 C 0.45881 0.13805 0.8767 0.0
N892 N 0.43948 0.14713 0.88088 0.0
C893 C 0.44581 0.17772 0.8644 0.0
C894 C 0.47231 0.14869 0.86613 0.0
C895 C 0.43276 0.16656 0.87499 0.0
C896 C 0.44867 0.22842 0.82736 0.0
N897 N 0.45877 0.22767 0.84132 0.0
C898 C 0.43241 0.25187 0.85217 0.0
C899 C 0.45087 0.2388 0.85368 0.0
C900 C 0.42186 0.25339 0.8378 0.0
C901 C 0.43017 0.24136 0.8253 0.0
H902 H 0.45507 0.21906 0.81779 0.0
H903 H 0.45883 0.23746 0.86475 0.0
C904 C 0.52288 0.16968 0.8897 0.0
N905 N 0.50507 0.17985 0.88378 0.0
C906 C 0.52387 0.16475 0.90544 0.0
C907 C 0.48794 0.18028 0.90854 0.0
C908 C 0.48781 0.18522 0.89283 0.0
C909 C 0.50625 0.17016 0.91505 0.0
H910 H 0.53647 0.16581 0.88225 0.0
H911 H 0.47409 0.19378 0.8879 0.0
C912 C 0.50469 0.21974 0.81331 0.0
N913 N 0.50756 0.24854 0.78883 0.0
C914 C 0.51207 0.21257 0.79891 0.0
C915 C 0.49856 0.24152 0.81521 0.0
C916 C 0.51347 0.22739 0.78669 0.0
C917 C 0.50017 0.25584 0.80271 0.0
C918 C 0.54332 0.16322 0.84498 0.0
C919 C 0.56018 0.16757 0.83459 0.0
C920 C 0.53964 0.14186 0.84994 0.0
C921 C 0.57298 0.15036 0.82918 0.0
C922 C 0.55278 0.1251 0.84423 0.0
N923 N 0.56902 0.12966 0.83406 0.0
C924 C 0.56314 0.22863 0.85231 0.0
C925 C 0.55537 0.23768 0.82629 0.0
C926 C 0.58164 0.24181 0.85213 0.0
N927 N 0.55031 0.227 0.83958 0.0
C928 C 0.57359 0.25127 0.82565 0.0
C929 C 0.58693 0.25368 0.83875 0.0
H930 H 0.55877 0.21985 0.8627 0.0
H931 H 0.54516 0.23608 0.81625 0.0
C932 C 0.48846 0.13668 0.8252 0.0
N933 N 0.50397 0.15207 0.82273 0.0
C934 C 0.4867 0.11881 0.81534 0.0
C935 C 0.517 0.13282 0.80056 0.0
C936 C 0.51824 0.15041 0.81078 0.0
C937 C 0.50092 0.11682 0.80272 0.0
H938 H 0.4771 0.13852 0.83461 0.0
H939 H 0.53042 0.16289 0.80907 0.0
O940 O 0.50577 0.21993 0.85953 0.0
O941 O 0.47887 0.17956 0.84977 0.0
O942 O 0.50322 0.20538 0.82537 0.0
O943 O 0.53041 0.17979 0.85021 0.0
H944 H 0.49319 0.23047 0.88781 0.0
H945 H 0.51763 0.25613 0.84491 0.0
H946 H 0.49231 0.26803 0.89832 0.0
H947 H 0.51617 0.29322 0.85612 0.0
H948 H 0.46371 0.12259 0.8816 0.0
H949 H 0.44044 0.19315 0.85971 0.0
H950 H 0.48772 0.14154 0.86287 0.0
H951 H 0.41729 0.17334 0.87853 0.0
H952 H 0.42667 0.26094 0.86209 0.0
H953 H 0.42235 0.24178 0.81409 0.0
H954 H 0.53828 0.15696 0.91009 0.0
H955 H 0.47422 0.18507 0.91563 0.0
H956 H 0.51672 0.19575 0.79717 0.0
H957 H 0.49248 0.24733 0.82616 0.0
H958 H 0.51924 0.22207 0.7755 0.0
H959 H 0.49551 0.27274 0.80404 0.0
H960 H 0.56321 0.18403 0.83064 0.0
H961 H 0.52671 0.13826 0.85802 0.0
H962 H 0.58601 0.15346 0.82107 0.0
H963 H 0.55004 0.10846 0.84789 0.0
H964 H 0.59162 0.24274 0.86242 0.0
H965 H 0.57679 0.26023 0.81512 0.0
H966 H 0.47378 0.10711 0.81726 0.0
H967 H 0.52834 0.13186 0.79101 0.0
Li968 Li 0.79242 0.5259 0.84555 0.0
Li969 Li 0.81307 0.5064 0.86554 0.0
Li970 Li 0.82427 0.50577 0.83857 0.0
Li971 Li 0.79166 0.48598 0.84712 0.0
C972 C 0.84165 0.54136 0.84975 0.0
N973 N 0.8815 0.56002 0.84318 0.0
C974 C 0.85918 0.53844 0.85982 0.0
C975 C 0.84431 0.5539 0.8364 0.0
C976 C 0.87921 0.548 0.85629 0.0
C977 C 0.86461 0.56314 0.83326 0.0
C978 C 0.77354 0.51078 0.87691 0.0
C979 C 0.76645 0.49802 0.90278 0.0
N980 N 0.76006 0.51845 0.90687 0.0
C981 C 0.76684 0.53163 0.88135 0.0
C982 C 0.77325 0.49379 0.88768 0.0
C983 C 0.76008 0.53518 0.89656 0.0
C984 C 0.75314 0.54719 0.83897 0.0
N985 N 0.77465 0.55065 0.8417 0.0
C986 C 0.76957 0.58922 0.84032 0.0
C987 C 0.78307 0.57111 0.84241 0.0
C988 C 0.74732 0.58609 0.83734 0.0
C989 C 0.73916 0.56476 0.83655 0.0
H990 H 0.74681 0.53075 0.8389 0.0
H991 H 0.80018 0.57338 0.84486 0.0
C992 C 0.83296 0.48911 0.89215 0.0
N993 N 0.82306 0.50711 0.88632 0.0
C994 C 0.8391 0.4884 0.90765 0.0
C995 C 0.8255 0.52513 0.91073 0.0
C996 C 0.81974 0.52516 0.89512 0.0
C997 C 0.83501 0.50642 0.91725 0.0
H998 H 0.8359 0.47519 0.88481 0.0
H999 H 0.81211 0.53938 0.89009 0.0
C1000 C 0.78197 0.51234 0.81747 0.0
N1001 N 0.75357 0.52962 0.79596 0.0
C1002 C 0.76191 0.50231 0.81472 0.0
C1003 C 0.78767 0.53104 0.80918 0.0
C1004 C 0.74776 0.51132 0.80381 0.0
C1005 C 0.77306 0.53958 0.7984 0.0
C1006 C 0.82438 0.45907 0.8523 0.0
C1007 C 0.83501 0.44965 0.83967 0.0
C1008 C 0.81512 0.44569 0.8636 0.0
C1009 C 0.83615 0.42696 0.83856 0.0
C1010 C 0.81656 0.42308 0.86205 0.0
N1011 N 0.82696 0.41425 0.84966 0.0
C1012 C 0.86852 0.49917 0.8321 0.0
C1013 C 0.84708 0.50731 0.81007 0.0
C1014 C 0.88698 0.49645 0.82291 0.0
N1015 N 0.84908 0.50432 0.82555 0.0
C1016 C 0.86511 0.50471 0.80043 0.0
C1017 C 0.88534 0.49888 0.80681 0.0
H1018 H 0.86954 0.49669 0.84445 0.0
H1019 H 0.83136 0.5111 0.80516 0.0
C1020 C 0.75597 0.45905 0.85379 0.0
N1021 N 0.77366 0.46093 0.84447 0.0
C1022 C 0.74248 0.44084 0.85275 0.0
C1023 C 0.7654 0.42692 0.83232 0.0
C1024 C 0.77834 0.44557 0.83365 0.0
C1025 C 0.74724 0.42428 0.84204 0.0
H1026 H 0.75227 0.47175 0.86202 0.0
H1027 H 0.79226 0.44769 0.82616 0.0
O1028 O 0.82204 0.53179 0.85285 0.0
O1029 O 0.78059 0.50705 0.86216 0.0
O1030 O 0.79591 0.50393 0.82824 0.0
O1031 O 0.8229 0.48126 0.85353 0.0
H1032 H 0.85739 0.52874 0.87018 0.0
H1033 H 0.8309 0.55625 0.82847 0.0
H1034 H 0.89296 0.54579 0.86393 0.0
H1035 H 0.86696 0.57276 0.82292 0.0
H1036 H 0.7663 0.48507 0.91126 0.0
H1037 H 0.76703 0.54499 0.87319 0.0
H1038 H 0.7785 0.47758 0.88445 0.0
H1039 H 0.75494 0.55125 0.90017 0.0
H1040 H 0.7764 0.60546 0.84107 0.0
H1041 H 0.72201 0.56173 0.83455 0.0
H1042 H 0.84684 0.47383 0.91209 0.0
H1043 H 0.82192 0.53934 0.91769 0.0
H1044 H 0.75723 0.48783 0.82103 0.0
H1045 H 0.80309 0.53906 0.81122 0.0
H1046 H 0.73214 0.5038 0.80162 0.0
H1047 H 0.77718 0.55414 0.79199 0.0
H1048 H 0.84213 0.45971 0.83075 0.0
H1049 H 0.80666 0.4527 0.87338 0.0
H1050 H 0.84426 0.41944 0.82883 0.0
H1051 H 0.80935 0.41254 0.87066 0.0
H1052 H 0.90227 0.49215 0.82832 0.0
H1053 H 0.86301 0.50637 0.78807 0.0
H1054 H 0.72835 0.43989 0.86019 0.0
H1055 H 0.76979 0.41459 0.82393 0.0
Li1056 Li 0.47368 0.20963 0.15504 0.0
Li1057 Li 0.49551 0.17807 0.1603 0.0
Li1058 Li 0.51416 0.21233 0.15484 0.0
Li1059 Li 0.49562 0.19076 0.13379 0.0
C1060 C 0.4934 0.22345 0.18238 0.0
N1061 N 0.49141 0.25943 0.20158 0.0
C1062 C 0.49059 0.22078 0.1983 0.0
C1063 C 0.49535 0.24445 0.17628 0.0
C1064 C 0.48957 0.23916 0.2078 0.0
C1065 C 0.49428 0.26242 0.18615 0.0
C1066 C 0.45957 0.16142 0.14972 0.0
C1067 C 0.45203 0.12334 0.14554 0.0
N1068 N 0.4392 0.12322 0.15835 0.0
C1069 C 0.44622 0.16101 0.16278 0.0
C1070 C 0.46245 0.14252 0.14096 0.0
C1071 C 0.43609 0.1415 0.16698 0.0
C1072 C 0.43535 0.22832 0.14472 0.0
N1073 N 0.44713 0.22516 0.15781 0.0
C1074 C 0.42193 0.24656 0.17239 0.0
C1075 C 0.44052 0.23348 0.17159 0.0
C1076 C 0.4098 0.2508 0.15893 0.0
C1077 C 0.41652 0.24103 0.14503 0.0
H1078 H 0.44092 0.22132 0.13395 0.0
H1079 H 0.44981 0.23042 0.18193 0.0
C1080 C 0.50339 0.13282 0.16672 0.0
N1081 N 0.49699 0.15228 0.17271 0.0
C1082 C 0.50583 0.11466 0.17629 0.0
C1083 C 0.49379 0.13653 0.19787 0.0
C1084 C 0.49172 0.15428 0.18789 0.0
C1085 C 0.50141 0.11651 0.19215 0.0
H1086 H 0.50677 0.13135 0.15456 0.0
H1087 H 0.48624 0.16979 0.19229 0.0
C1088 C 0.49378 0.24099 0.13047 0.0
N1089 N 0.49483 0.27869 0.11296 0.0
C1090 C 0.50598 0.2418 0.11685 0.0
C1091 C 0.48191 0.25934 0.13508 0.0
C1092 C 0.50638 0.26101 0.1082 0.0
C1093 C 0.4827 0.27824 0.1261 0.0
C1094 C 0.53675 0.16889 0.1428 0.0
C1095 C 0.55822 0.17283 0.14731 0.0
C1096 C 0.53201 0.15087 0.13351 0.0
C1097 C 0.57462 0.15854 0.14256 0.0
C1098 C 0.54883 0.13693 0.12902 0.0
N1099 N 0.56962 0.14103 0.13359 0.0
C1100 C 0.54747 0.2326 0.1728 0.0
C1101 C 0.54906 0.23915 0.14585 0.0
C1102 C 0.56571 0.24577 0.17521 0.0
N1103 N 0.53931 0.2299 0.15831 0.0
C1104 C 0.56733 0.25238 0.14772 0.0
C1105 C 0.57582 0.25598 0.16257 0.0
H1106 H 0.53981 0.22456 0.18249 0.0
H1107 H 0.54268 0.23619 0.13443 0.0
C1108 C 0.47862 0.18091 0.10425 0.0
N1109 N 0.49719 0.18425 0.11243 0.0
C1110 C 0.47958 0.17723 0.08833 0.0
C1111 C 0.51879 0.17997 0.08971 0.0
C1112 C 0.51704 0.18387 0.10551 0.0
C1113 C 0.4999 0.17687 0.08081 0.0
H1114 H 0.46304 0.18152 0.11007 0.0
H1115 H 0.53153 0.18697 0.11224 0.0
O1116 O 0.49435 0.20554 0.17293 0.0
O1117 O 0.47005 0.1802 0.14567 0.0
O1118 O 0.49292 0.22216 0.13897 0.0
O1119 O 0.52074 0.18337 0.1467 0.0
H1120 H 0.48915 0.2047 0.20331 0.0
H1121 H 0.49795 0.24686 0.1641 0.0
H1122 H 0.48734 0.23731 0.22013 0.0
H1123 H 0.49579 0.27874 0.18155 0.0
H1124 H 0.45419 0.10852 0.13894 0.0
H1125 H 0.44391 0.17555 0.16968 0.0
H1126 H 0.47278 0.14263 0.13083 0.0
H1127 H 0.42581 0.14087 0.17712 0.0
H1128 H 0.41757 0.25379 0.18337 0.0
H1129 H 0.40748 0.24333 0.13442 0.0
H1130 H 0.51137 0.0994 0.17136 0.0
H1131 H 0.49031 0.13872 0.21003 0.0
H1132 H 0.51525 0.22782 0.11307 0.0
H1133 H 0.47212 0.25905 0.14546 0.0
H1134 H 0.51587 0.26187 0.09769 0.0
H1135 H 0.47363 0.29255 0.12956 0.0
H1136 H 0.56221 0.18691 0.15431 0.0
H1137 H 0.51551 0.1478 0.12969 0.0
H1138 H 0.59132 0.16142 0.14593 0.0
H1139 H 0.54539 0.12293 0.12183 0.0
H1140 H 0.57196 0.24775 0.18682 0.0
H1141 H 0.5745 0.25999 0.13764 0.0
H1142 H 0.46455 0.17528 0.08196 0.0
H1143 H 0.53483 0.17951 0.08453 0.0
Li1144 Li 0.7939 0.51355 0.1527 0.0
Li1145 Li 0.8259 0.49428 0.15971 0.0
Li1146 Li 0.81437 0.49141 0.13359 0.0
Li1147 Li 0.79395 0.4733 0.15529 0.0
C1148 C 0.82389 0.53543 0.13441 0.0
N1149 N 0.82388 0.57 0.11394 0.0
C1150 C 0.84058 0.55088 0.13485 0.0
C1151 C 0.80719 0.53755 0.12353 0.0
C1152 C 0.84028 0.56825 0.12441 0.0
C1153 C 0.80748 0.55513 0.11329 0.0
C1154 C 0.79965 0.50923 0.18401 0.0
C1155 C 0.79006 0.5185 0.21022 0.0
N1156 N 0.80219 0.53698 0.20909 0.0
C1157 C 0.81201 0.52833 0.18311 0.0
C1158 C 0.78858 0.50426 0.19766 0.0
C1159 C 0.81309 0.54214 0.19591 0.0
C1160 C 0.75404 0.53425 0.15764 0.0
N1161 N 0.7756 0.53827 0.15563 0.0
C1162 C 0.76953 0.57667 0.15747 0.0
C1163 C 0.7836 0.55894 0.1558 0.0
C1164 C 0.74709 0.57304 0.15921 0.0
C1165 C 0.7394 0.55148 0.15944 0.0
H1166 H 0.74819 0.51762 0.15765 0.0
H1167 H 0.80088 0.56173 0.15462 0.0
C1168 C 0.8695 0.50518 0.16545 0.0
N1169 N 0.85151 0.49624 0.17201 0.0
C1170 C 0.8883 0.50839 0.17419 0.0
C1171 C 0.86982 0.49277 0.19622 0.0
C1172 C 0.85144 0.48965 0.187 0.0
C1173 C 0.8885 0.5026 0.18991 0.0
H1174 H 0.86909 0.51008 0.15345 0.0
H1175 H 0.83693 0.48245 0.19189 0.0
C1176 C 0.76575 0.48553 0.12903 0.0
N1177 N 0.73125 0.47271 0.11067 0.0
C1178 C 0.76302 0.46357 0.12519 0.0
C1179 C 0.75096 0.50098 0.12349 0.0
C1180 C 0.74547 0.45741 0.11591 0.0
C1181 C 0.73362 0.49418 0.11423 0.0
C1182 C 0.84205 0.45707 0.15172 0.0
C1183 C 0.8612 0.45971 0.14322 0.0
C1184 C 0.84231 0.44481 0.16532 0.0
C1185 C 0.88042 0.45016 0.14857 0.0
C1186 C 0.86186 0.43552 0.17029 0.0
N1187 N 0.88035 0.43838 0.16189 0.0
C1188 C 0.84236 0.49908 0.10843 0.0
C1189 C 0.8099 0.48053 0.10171 0.0
C1190 C 0.84876 0.49985 0.09296 0.0
N1191 N 0.82306 0.48981 0.11246 0.0
C1192 C 0.81569 0.48084 0.08613 0.0
C1193 C 0.83524 0.49081 0.08156 0.0
H1194 H 0.85263 0.5062 0.11724 0.0
H1195 H 0.79474 0.47318 0.10512 0.0
C1196 C 0.7555 0.45389 0.16567 0.0
N1197 N 0.77588 0.44944 0.16047 0.0
C1198 C 0.74075 0.43699 0.1683 0.0
C1199 C 0.76845 0.41124 0.16047 0.0
C1200 C 0.78266 0.42865 0.15798 0.0
C1201 C 0.74707 0.41531 0.16552 0.0
H1202 H 0.75054 0.47065 0.16734 0.0
H1203 H 0.7989 0.42565 0.15366 0.0
O1204 O 0.82415 0.51835 0.14458 0.0
O1205 O 0.79823 0.4954 0.17165 0.0
O1206 O 0.7826 0.49189 0.13834 0.0
O1207 O 0.82321 0.46676 0.14689 0.0
H1208 H 0.85363 0.54947 0.1432 0.0
H1209 H 0.79416 0.52578 0.12295 0.0
H1210 H 0.8531 0.58034 0.12464 0.0
H1211 H 0.79466 0.55696 0.10482 0.0
H1212 H 0.78158 0.51485 0.22086 0.0
H1213 H 0.82074 0.53247 0.17268 0.0
H1214 H 0.77892 0.48955 0.19853 0.0
H1215 H 0.8226 0.55696 0.19537 0.0
H1216 H 0.77616 0.59303 0.15751 0.0
H1217 H 0.72221 0.54796 0.16066 0.0
H1218 H 0.90241 0.51564 0.16873 0.0
H1219 H 0.86905 0.48829 0.2083 0.0
H1220 H 0.77453 0.45144 0.12912 0.0
H1221 H 0.75288 0.51807 0.12627 0.0
H1222 H 0.74319 0.44047 0.11283 0.0
H1223 H 0.72206 0.50597 0.10987 0.0
H1224 H 0.86126 0.4692 0.13269 0.0
H1225 H 0.82763 0.44277 0.17209 0.0
H1226 H 0.89541 0.45216 0.14216 0.0
H1227 H 0.86235 0.42612 0.18085 0.0
H1228 H 0.86409 0.50748 0.08995 0.0
H1229 H 0.80464 0.47389 0.07772 0.0
H1230 H 0.72436 0.44093 0.17196 0.0
H1231 H 0.77407 0.39478 0.15832 0.0
Li1232 Li 0.50712 0.82347 0.16058 0.0
Li1233 Li 0.52673 0.79056 0.15272 0.0
Li1234 Li 0.50674 0.81426 0.13346 0.0
Li1235 Li 0.48642 0.79056 0.15128 0.0
C1236 C 0.54614 0.83737 0.15143 0.0
N1237 N 0.57307 0.87014 0.16208 0.0
C1238 C 0.56336 0.83245 0.16139 0.0
C1239 C 0.54279 0.85889 0.14672 0.0
C1240 C 0.57675 0.84927 0.16668 0.0
C1241 C 0.55653 0.87525 0.15228 0.0
C1242 C 0.5088 0.77927 0.18161 0.0
C1243 C 0.50904 0.7424 0.19129 0.0
N1244 N 0.51607 0.74983 0.20523 0.0
C1245 C 0.51581 0.78657 0.19608 0.0
C1246 C 0.50521 0.75703 0.17924 0.0
C1247 C 0.51947 0.77142 0.20785 0.0
C1248 C 0.48979 0.86103 0.17459 0.0
N1249 N 0.50663 0.8467 0.17518 0.0
C1250 C 0.52058 0.86399 0.19787 0.0
C1251 C 0.52203 0.848 0.18643 0.0
C1252 C 0.50305 0.87872 0.19774 0.0
C1253 C 0.48773 0.87729 0.18574 0.0
H1254 H 0.47749 0.8594 0.16577 0.0
H1255 H 0.53512 0.83624 0.18677 0.0
C1256 C 0.56008 0.76311 0.14257 0.0
N1257 N 0.55166 0.77248 0.15548 0.0
C1258 C 0.57757 0.74867 0.14365 0.0
C1259 C 0.57793 0.75432 0.17128 0.0
C1260 C 0.56049 0.76875 0.16964 0.0
C1261 C 0.58653 0.7439 0.15819 0.0
H1262 H 0.5529 0.76657 0.13142 0.0
H1263 H 0.55403 0.77691 0.17968 0.0
C1264 C 0.46826 0.83504 0.138 0.0
N1265 N 0.44201 0.86141 0.12003 0.0
C1266 C 0.44754 0.82796 0.1336 0.0
C1267 C 0.47552 0.85564 0.13342 0.0
C1268 C 0.43454 0.84151 0.12448 0.0
C1269 C 0.46204 0.8687 0.12428 0.0
C1270 C 0.50322 0.76268 0.12804 0.0
C1271 C 0.49337 0.76246 0.11348 0.0
C1272 C 0.5089 0.74297 0.13507 0.0
C1273 C 0.48886 0.74251 0.10639 0.0
C1274 C 0.50415 0.72336 0.1276 0.0
N1275 N 0.49427 0.72354 0.11354 0.0
C1276 C 0.5266 0.83212 0.10696 0.0
C1277 C 0.48935 0.82305 0.10377 0.0
C1278 C 0.52819 0.83798 0.0914 0.0
N1279 N 0.50744 0.82463 0.11275 0.0
C1280 C 0.49009 0.82912 0.08826 0.0
C1281 C 0.50979 0.83634 0.08186 0.0
H1282 H 0.5408 0.83294 0.11432 0.0
H1283 H 0.47451 0.81639 0.10849 0.0
C1284 C 0.45354 0.7674 0.16762 0.0
N1285 N 0.46088 0.77313 0.15337 0.0
C1286 C 0.43544 0.75378 0.16915 0.0
C1287 C 0.43215 0.75311 0.14134 0.0
C1288 C 0.45033 0.76667 0.14036 0.0
C1289 C 0.42463 0.74623 0.15588 0.0
H1290 H 0.46184 0.77322 0.17782 0.0
H1291 H 0.45593 0.77217 0.12921 0.0
O1292 O 0.53272 0.82117 0.14626 0.0
O1293 O 0.50535 0.79389 0.16991 0.0
O1294 O 0.48127 0.82191 0.14683 0.0
O1295 O 0.5078 0.78211 0.13513 0.0
H1296 H 0.56622 0.81587 0.1651 0.0
H1297 H 0.52973 0.86292 0.13884 0.0
H1298 H 0.59005 0.84572 0.17448 0.0
H1299 H 0.55406 0.892 0.14879 0.0
H1300 H 0.50635 0.72514 0.18959 0.0
H1301 H 0.51846 0.80372 0.1982 0.0
H1302 H 0.49925 0.75116 0.16828 0.0
H1303 H 0.52501 0.77684 0.21907 0.0
H1304 H 0.53278 0.86455 0.20689 0.0
H1305 H 0.47369 0.88796 0.18536 0.0
H1306 H 0.58362 0.7409 0.13327 0.0
H1307 H 0.58464 0.75139 0.18267 0.0
H1308 H 0.44156 0.81218 0.13719 0.0
H1309 H 0.49143 0.86142 0.13681 0.0
H1310 H 0.41851 0.83619 0.12094 0.0
H1311 H 0.46751 0.88462 0.12058 0.0
H1312 H 0.48908 0.77751 0.10777 0.0
H1313 H 0.51715 0.74276 0.14608 0.0
H1314 H 0.48107 0.74213 0.09518 0.0
H1315 H 0.50841 0.708 0.13294 0.0
H1316 H 0.54368 0.84338 0.08681 0.0
H1317 H 0.47569 0.82721 0.08117 0.0
H1318 H 0.43027 0.74888 0.18059 0.0
H1319 H 0.42399 0.7482 0.13081 0.0
Li1320 Li 0.20857 0.52587 0.15491 0.0
Li1321 Li 0.18805 0.50673 0.13465 0.0
Li1322 Li 0.17626 0.50653 0.16162 0.0
Li1323 Li 0.20878 0.48595 0.15353 0.0
C1324 C 0.15975 0.54252 0.14977 0.0
N1325 N 0.12021 0.56259 0.15509 0.0
C1326 C 0.1432 0.54129 0.13873 0.0
C1327 C 0.15628 0.5541 0.16345 0.0
C1328 C 0.1233 0.55153 0.14165 0.0
C1329 C 0.13614 0.56408 0.16595 0.0
C1330 C 0.22876 0.5091 0.12399 0.0
C1331 C 0.23743 0.49424 0.09894 0.0
N1332 N 0.24529 0.51401 0.09451 0.0
C1333 C 0.23699 0.52925 0.11922 0.0
C1334 C 0.22906 0.49142 0.11381 0.0
C1335 C 0.24527 0.5314 0.10426 0.0
C1336 C 0.2486 0.54652 0.15961 0.0
N1337 N 0.22682 0.55022 0.15882 0.0
C1338 C 0.23233 0.58852 0.16195 0.0
C1339 C 0.21847 0.57066 0.16001 0.0
C1340 C 0.25496 0.58521 0.16264 0.0
C1341 C 0.26302 0.56384 0.1616 0.0
H1342 H 0.25477 0.5301 0.15835 0.0
H1343 H 0.20109 0.57314 0.1592 0.0
C1344 C 0.16595 0.49012 0.10879 0.0
N1345 N 0.17852 0.50693 0.11375 0.0
C1346 C 0.15997 0.48861 0.09329 0.0
C1347 C 0.17937 0.52217 0.08837 0.0
C1348 C 0.18469 0.52319 0.10403 0.0
C1349 C 0.16712 0.50449 0.08274 0.0
H1350 H 0.16074 0.47773 0.11685 0.0
H1351 H 0.19423 0.53666 0.10837 0.0
C1352 C 0.21842 0.51293 0.18285 0.0
N1353 N 0.24709 0.53126 0.2037 0.0
C1354 C 0.23914 0.50394 0.18486 0.0
C1355 C 0.2122 0.5311 0.19152 0.0
C1356 C 0.25341 0.51348 0.19546 0.0
C1357 C 0.22696 0.54018 0.20197 0.0
C1358 C 0.17498 0.45987 0.14758 0.0
C1359 C 0.16362 0.45059 0.15993 0.0
C1360 C 0.18361 0.44644 0.13605 0.0
C1361 C 0.16121 0.42796 0.16059 0.0
C1362 C 0.18089 0.42389 0.13716 0.0
N1363 N 0.16985 0.41519 0.1493 0.0
C1364 C 0.13153 0.50222 0.16719 0.0
C1365 C 0.15294 0.5049 0.18989 0.0
C1366 C 0.11279 0.49875 0.17593 0.0
N1367 N 0.15108 0.50505 0.17426 0.0
C1368 C 0.13464 0.50121 0.1991 0.0
C1369 C 0.11425 0.49765 0.19212 0.0
H1370 H 0.13064 0.502 0.15472 0.0
H1371 H 0.16877 0.50679 0.19518 0.0
C1372 C 0.24493 0.45927 0.14797 0.0
N1373 N 0.22626 0.46055 0.15632 0.0
C1374 C 0.25809 0.44081 0.1489 0.0
C1375 C 0.2329 0.42543 0.16736 0.0
C1376 C 0.22032 0.44437 0.16619 0.0
C1377 C 0.25198 0.42336 0.1585 0.0
H1378 H 0.24967 0.47262 0.14058 0.0
H1379 H 0.20569 0.44603 0.17302 0.0
O1380 O 0.17924 0.53238 0.1472 0.0
O1381 O 0.22037 0.50671 0.13853 0.0
O1382 O 0.20439 0.50411 0.17231 0.0
O1383 O 0.17766 0.48197 0.14677 0.0
H1384 H 0.14563 0.5324 0.12807 0.0
H1385 H 0.16892 0.55515 0.17213 0.0
H1386 H 0.1103 0.55063 0.13325 0.0
H1387 H 0.13317 0.57296 0.17653 0.0
H1388 H 0.23764 0.48074 0.09091 0.0
H1389 H 0.23678 0.54314 0.1269 0.0
H1390 H 0.22274 0.47572 0.11731 0.0
H1391 H 0.2516 0.54691 0.10038 0.0
H1392 H 0.22544 0.60472 0.1628 0.0
H1393 H 0.28035 0.56057 0.16181 0.0
H1394 H 0.14998 0.47502 0.08962 0.0
H1395 H 0.1854 0.53475 0.08072 0.0
H1396 H 0.24421 0.48989 0.17822 0.0
H1397 H 0.19623 0.53826 0.19006 0.0
H1398 H 0.26954 0.50678 0.19709 0.0
H1399 H 0.22243 0.55435 0.20868 0.0
H1400 H 0.1569 0.4607 0.16898 0.0
H1401 H 0.19245 0.45336 0.12642 0.0
H1402 H 0.15254 0.42055 0.17011 0.0
H1403 H 0.18759 0.4133 0.12837 0.0
H1404 H 0.09743 0.49637 0.17004 0.0
H1405 H 0.13669 0.5001 0.21149 0.0
H1406 H 0.27297 0.4403 0.14221 0.0
H1407 H 0.22749 0.41244 0.1749 0.0
C1408 C 0.10598 0.22825 0.35062 0.0
C1409 C 0.09412 0.23367 0.33731 0.0
C1410 C 0.12363 0.21398 0.34976 0.0
C1411 C 0.16204 0.18722 0.32246 0.0
H1412 H 0.16769 0.14572 0.35602 0.0
C1413 C 0.21816 0.11085 0.32079 0.0
C1414 C 0.23027 0.1066 0.33424 0.0
C1415 C 0.20257 0.12748 0.3206 0.0
C1416 C 0.16646 0.15734 0.34664 0.0
H1417 H 0.09164 0.22882 0.31259 0.0
H1418 H 0.12223 0.2034 0.31109 0.0
H1419 H 0.13861 0.17257 0.35666 0.0
H1420 H 0.23561 0.1165 0.35799 0.0
H1421 H 0.20843 0.14548 0.35764 0.0
H1422 H 0.18973 0.1714 0.31231 0.0
C1423 C 0.11817 0.21048 0.32217 0.0
C1424 C 0.14983 0.17281 0.34701 0.0
C1425 C 0.10061 0.22499 0.32302 0.0
C1426 C 0.2267 0.11952 0.3474 0.0
C1427 C 0.211 0.13597 0.34725 0.0
C1428 C 0.17861 0.17156 0.32202 0.0
C1429 C 0.12969 0.20455 0.33559 0.0
C1430 C 0.14746 0.18806 0.33499 0.0
C1431 C 0.19861 0.13997 0.33391 0.0
C1432 C 0.18105 0.15656 0.33416 0.0
H1433 H 0.10154 0.23501 0.36175 0.0
H1434 H 0.13245 0.21026 0.36027 0.0
H1435 H 0.16086 0.19884 0.31308 0.0
H1436 H 0.22067 0.10123 0.31045 0.0
H1437 H 0.19317 0.13014 0.31018 0.0
C1438 C 0.90097 0.20697 0.33583 0.0
C1439 C 0.89582 0.2287 0.33941 0.0
C1440 C 0.88474 0.19108 0.33531 0.0
C1441 C 0.829 0.17911 0.34895 0.0
H1442 H 0.83207 0.13351 0.318 0.0
C1443 C 0.76219 0.11318 0.34173 0.0
C1444 C 0.76976 0.09166 0.34025 0.0
C1445 C 0.77672 0.13071 0.34099 0.0
C1446 C 0.83107 0.14607 0.32676 0.0
H1447 H 0.86956 0.25087 0.34514 0.0
H1448 H 0.84106 0.22312 0.34407 0.0
H1449 H 0.85881 0.16284 0.31777 0.0
H1450 H 0.79835 0.07163 0.3365 0.0
H1451 H 0.8237 0.10219 0.33524 0.0
H1452 H 0.80119 0.16224 0.35791 0.0
C1453 C 0.85773 0.2183 0.34188 0.0
C1454 C 0.84641 0.16286 0.32666 0.0
C1455 C 0.87404 0.23421 0.34247 0.0
C1456 C 0.79208 0.08803 0.33782 0.0
C1457 C 0.80655 0.10553 0.33695 0.0
C1458 C 0.81356 0.16236 0.34899 0.0
C1459 C 0.8629 0.19654 0.3383 0.0
C1460 C 0.84576 0.17943 0.33788 0.0
C1461 C 0.79905 0.12705 0.33859 0.0
C1462 C 0.81461 0.14552 0.33802 0.0
H1463 H 0.91767 0.20213 0.33372 0.0
H1464 H 0.88939 0.17442 0.33285 0.0
H1465 H 0.82816 0.19145 0.35788 0.0
H1466 H 0.74509 0.11645 0.34373 0.0
H1467 H 0.77046 0.14713 0.34219 0.0
C1468 C 0.77989 0.89161 0.32076 0.0
C1469 C 0.76616 0.89335 0.33371 0.0
C1470 C 0.79531 0.87491 0.31981 0.0
C1471 C 0.81023 0.8211 0.33602 0.0
H1472 H 0.86861 0.83724 0.3234 0.0
C1473 C 0.88495 0.76622 0.34702 0.0
C1474 C 0.90143 0.76554 0.33575 0.0
C1475 C 0.86748 0.78066 0.34557 0.0
C1476 C 0.85232 0.83235 0.32671 0.0
H1477 H 0.75779 0.87871 0.35574 0.0
H1478 H 0.78457 0.84953 0.35402 0.0
H1479 H 0.83972 0.86441 0.32292 0.0
H1480 H 0.91222 0.77932 0.31398 0.0
H1481 H 0.88148 0.80416 0.31128 0.0
H1482 H 0.8229 0.78907 0.33995 0.0
C1483 C 0.78324 0.86094 0.34452 0.0
C1484 C 0.83576 0.84795 0.32644 0.0
C1485 C 0.76786 0.87767 0.34549 0.0
C1486 C 0.89973 0.77929 0.32281 0.0
C1487 C 0.88224 0.79372 0.32135 0.0
C1488 C 0.82679 0.80548 0.33625 0.0
C1489 C 0.79731 0.85952 0.33176 0.0
C1490 C 0.81457 0.84256 0.33123 0.0
C1491 C 0.86602 0.79474 0.3328 0.0
C1492 C 0.84809 0.81097 0.33174 0.0
H1493 H 0.77877 0.90321 0.31136 0.0
H1494 H 0.80569 0.87405 0.30972 0.0
H1495 H 0.79399 0.81637 0.33957 0.0
H1496 H 0.8856 0.75565 0.35703 0.0
H1497 H 0.8554 0.78115 0.35467 0.0
C1498 C 0.10024 0.78913 0.32619 0.0
C1499 C 0.10172 0.77148 0.33649 0.0
C1500 C 0.11649 0.80506 0.32581 0.0
C1501 C 0.16038 0.82839 0.34985 0.0
H1502 H 0.17836 0.85539 0.3114 0.0
C1503 C 0.23111 0.89007 0.34694 0.0
C1504 C 0.22756 0.90895 0.33808 0.0
C1505 C 0.21653 0.87262 0.34625 0.0
C1506 C 0.17338 0.8481 0.32224 0.0
H1507 H 0.12178 0.75626 0.35404 0.0
H1508 H 0.15027 0.78392 0.35326 0.0
H1509 H 0.15177 0.82583 0.31096 0.0
H1510 H 0.20618 0.9241 0.32129 0.0
H1511 H 0.18059 0.89368 0.32019 0.0
H1512 H 0.18196 0.85066 0.36111 0.0
C1513 C 0.13633 0.78572 0.34571 0.0
C1514 C 0.15813 0.83118 0.322 0.0
C1515 C 0.12003 0.76984 0.34614 0.0
C1516 C 0.20925 0.90986 0.32836 0.0
C1517 C 0.19472 0.89236 0.32761 0.0
C1518 C 0.17567 0.84523 0.35008 0.0
C1519 C 0.13463 0.80367 0.33567 0.0
C1520 C 0.15137 0.82119 0.33581 0.0
C1521 C 0.19812 0.87361 0.33664 0.0
C1522 C 0.18227 0.85534 0.33629 0.0
H1523 H 0.08619 0.79099 0.31876 0.0
H1524 H 0.11449 0.81881 0.31809 0.0
H1525 H 0.15526 0.82134 0.36073 0.0
H1526 H 0.24494 0.88894 0.35465 0.0
H1527 H 0.2197 0.85832 0.35323 0.0
C1528 C 0.10897 0.76878 0.67268 0.0
C1529 C 0.09333 0.77103 0.66091 0.0
C1530 C 0.12662 0.78314 0.67359 0.0
C1531 C 0.15883 0.82136 0.64998 0.0
H1532 H 0.17601 0.84617 0.68934 0.0
C1533 C 0.23347 0.87765 0.65538 0.0
C1534 C 0.2302 0.89695 0.66381 0.0
C1535 C 0.21816 0.86082 0.65596 0.0
C1536 C 0.17138 0.83938 0.67826 0.0
H1537 H 0.08374 0.79055 0.64114 0.0
H1538 H 0.11455 0.81536 0.64266 0.0
H1539 H 0.14617 0.81985 0.68832 0.0
H1540 H 0.2088 0.91333 0.68 0.0
H1541 H 0.18195 0.88405 0.68088 0.0
H1542 H 0.18362 0.84122 0.63985 0.0
C1543 C 0.11336 0.80229 0.65103 0.0
C1544 C 0.15444 0.82418 0.6777 0.0
C1545 C 0.0957 0.78804 0.65016 0.0
C1546 C 0.21165 0.89875 0.67323 0.0
C1547 C 0.19638 0.88189 0.67386 0.0
C1548 C 0.17582 0.83646 0.65055 0.0
C1549 C 0.12906 0.79998 0.66272 0.0
C1550 C 0.14781 0.81521 0.66352 0.0
C1551 C 0.19929 0.86288 0.66504 0.0
C1552 C 0.18215 0.84581 0.66467 0.0
H1553 H 0.10779 0.75571 0.68104 0.0
H1554 H 0.13857 0.78083 0.68265 0.0
H1555 H 0.15427 0.81455 0.6389 0.0
H1556 H 0.24751 0.87581 0.64792 0.0
H1557 H 0.22098 0.84627 0.64916 0.0
C1558 C 0.22949 0.10707 0.6715 0.0
C1559 C 0.23354 0.09655 0.65734 0.0
C1560 C 0.21591 0.12535 0.67218 0.0
C1561 C 0.18941 0.16743 0.64729 0.0
H1562 H 0.14963 0.17266 0.68188 0.0
C1563 C 0.11163 0.22 0.646 0.0
C1564 C 0.10753 0.23351 0.65882 0.0
C1565 C 0.12868 0.20496 0.64625 0.0
C1566 C 0.16083 0.17153 0.67224 0.0
H1567 H 0.22693 0.09764 0.63271 0.0
H1568 H 0.20255 0.12864 0.63401 0.0
H1569 H 0.17628 0.1432 0.68153 0.0
H1570 H 0.11866 0.24189 0.68189 0.0
H1571 H 0.14797 0.215 0.68246 0.0
H1572 H 0.17318 0.19528 0.63775 0.0
C1573 C 0.21016 0.1231 0.64458 0.0
C1574 C 0.17618 0.15471 0.67205 0.0
C1575 C 0.2239 0.10501 0.64388 0.0
C1576 C 0.12102 0.23155 0.6719 0.0
C1577 C 0.1379 0.21624 0.67223 0.0
C1578 C 0.17386 0.18405 0.6474 0.0
C1579 C 0.20589 0.13349 0.65874 0.0
C1580 C 0.19052 0.15227 0.65947 0.0
C1581 C 0.14187 0.20281 0.6594 0.0
C1582 C 0.15929 0.18612 0.65979 0.0
H1583 H 0.23646 0.10094 0.68213 0.0
H1584 H 0.21326 0.13308 0.68326 0.0
H1585 H 0.20049 0.16643 0.63758 0.0
H1586 H 0.10135 0.22062 0.63585 0.0
H1587 H 0.1312 0.19458 0.63629 0.0
C1588 C 0.90494 0.21378 0.64977 0.0
C1589 C 0.90629 0.232 0.65959 0.0
C1590 C 0.88739 0.1994 0.65078 0.0
C1591 C 0.84487 0.17974 0.6771 0.0
H1592 H 0.81813 0.15859 0.63938 0.0
C1593 C 0.78856 0.10422 0.67455 0.0
C1594 C 0.77039 0.10515 0.66469 0.0
C1595 C 0.80372 0.1212 0.67479 0.0
C1596 C 0.82526 0.16451 0.65002 0.0
H1597 H 0.89007 0.24933 0.67817 0.0
H1598 H 0.85955 0.22396 0.68007 0.0
H1599 H 0.84732 0.18544 0.63794 0.0
H1600 H 0.75368 0.12483 0.64759 0.0
H1601 H 0.78008 0.15455 0.6481 0.0
H1602 H 0.82285 0.15866 0.68916 0.0
C1603 C 0.8722 0.22083 0.67163 0.0
C1604 C 0.84214 0.17971 0.64919 0.0
C1605 C 0.88971 0.23533 0.67056 0.0
C1606 C 0.76741 0.1237 0.6554 0.0
C1607 C 0.78264 0.14062 0.65557 0.0
C1608 C 0.82807 0.1644 0.67793 0.0
C1609 C 0.87082 0.20277 0.6617 0.0
C1610 C 0.85225 0.18736 0.6627 0.0
C1611 C 0.80112 0.13941 0.66511 0.0
C1612 C 0.81818 0.15652 0.66439 0.0
H1613 H 0.91761 0.21042 0.64141 0.0
H1614 H 0.88698 0.18541 0.64315 0.0
H1615 H 0.85245 0.18524 0.6877 0.0
H1616 H 0.79118 0.09023 0.68195 0.0
H1617 H 0.81787 0.11972 0.68219 0.0
C1618 C 0.77623 0.89582 0.64427 0.0
C1619 C 0.76632 0.90407 0.6577 0.0
C1620 C 0.78953 0.8774 0.64493 0.0
C1621 C 0.82198 0.8443 0.6724 0.0
H1622 H 0.82524 0.80477 0.6375 0.0
C1623 C 0.87667 0.7671 0.67153 0.0
C1624 C 0.89047 0.76565 0.65857 0.0
C1625 C 0.85975 0.78237 0.67194 0.0
C1626 C 0.82447 0.81569 0.64733 0.0
H1627 H 0.76246 0.899 0.68236 0.0
H1628 H 0.78493 0.86634 0.68339 0.0
H1629 H 0.79838 0.83404 0.63746 0.0
H1630 H 0.89712 0.77941 0.63591 0.0
H1631 H 0.86722 0.80535 0.63649 0.0
H1632 H 0.84802 0.82565 0.68226 0.0
C1633 C 0.78281 0.87445 0.67238 0.0
C1634 C 0.80918 0.83255 0.64729 0.0
C1635 C 0.76966 0.89305 0.67176 0.0
C1636 C 0.88661 0.7796 0.64595 0.0
C1637 C 0.86952 0.79459 0.64628 0.0
C1638 C 0.83707 0.82723 0.67252 0.0
C1639 C 0.79309 0.86649 0.65899 0.0
C1640 C 0.80803 0.84737 0.65968 0.0
C1641 C 0.85606 0.79627 0.65933 0.0
C1642 C 0.83872 0.81303 0.65986 0.0
H1643 H 0.77374 0.90359 0.63318 0.0
H1644 H 0.79738 0.87201 0.6344 0.0
H1645 H 0.82181 0.85551 0.68205 0.0
H1646 H 0.87885 0.75642 0.68136 0.0
H1647 H 0.84947 0.78324 0.68209 0.0
C1648 C 0.61337 0.73508 0.83094 0.0
C1649 C 0.59303 0.72745 0.83615 0.0
C1650 C 0.63129 0.72103 0.83013 0.0
C1651 C 0.65351 0.67248 0.84807 0.0
H1652 H 0.6881 0.66517 0.81093 0.0
C1653 C 0.73221 0.62136 0.84709 0.0
C1654 C 0.73236 0.60488 0.83583 0.0
C1655 C 0.71668 0.63799 0.84652 0.0
C1656 C 0.67861 0.66717 0.82138 0.0
H1657 H 0.57555 0.69866 0.8439 0.0
H1658 H 0.60698 0.67455 0.84305 0.0
H1659 H 0.65756 0.69101 0.81104 0.0
H1660 H 0.71711 0.59329 0.81481 0.0
H1661 H 0.69013 0.62266 0.81367 0.0
H1662 H 0.67446 0.64873 0.85845 0.0
C1663 C 0.60899 0.69143 0.83967 0.0
C1664 C 0.66126 0.68196 0.82146 0.0
C1665 C 0.59103 0.70533 0.84024 0.0
C1666 C 0.71725 0.60578 0.82366 0.0
C1667 C 0.70194 0.62261 0.82296 0.0
C1668 C 0.67105 0.65802 0.84808 0.0
C1669 C 0.6293 0.69919 0.83473 0.0
C1670 C 0.6484 0.6845 0.83475 0.0
C1671 C 0.70125 0.63861 0.83455 0.0
C1672 C 0.68361 0.65505 0.83469 0.0
H1673 H 0.61566 0.75203 0.82787 0.0
H1674 H 0.64685 0.72738 0.82634 0.0
H1675 H 0.6439 0.67427 0.85849 0.0
H1676 H 0.74359 0.62094 0.85664 0.0
H1677 H 0.71651 0.6502 0.85556 0.0
C1678 C 0.37443 0.73303 0.84386 0.0
C1679 C 0.39619 0.72718 0.84106 0.0
C1680 C 0.35798 0.71727 0.8435 0.0
C1681 C 0.34654 0.66128 0.82927 0.0
H1682 H 0.30011 0.66255 0.85962 0.0
C1683 C 0.29122 0.58748 0.84117 0.0
C1684 C 0.26879 0.59138 0.84273 0.0
C1685 C 0.30586 0.60484 0.8403 0.0
C1686 C 0.31284 0.66214 0.85096 0.0
H1687 H 0.41787 0.70017 0.83617 0.0
H1688 H 0.38936 0.67269 0.83576 0.0
H1689 H 0.32742 0.69147 0.85946 0.0
H1690 H 0.2441 0.61648 0.8447 0.0
H1691 H 0.26981 0.64692 0.84324 0.0
H1692 H 0.33224 0.63167 0.82104 0.0
C1693 C 0.38482 0.6895 0.8378 0.0
C1694 C 0.32847 0.67872 0.85085 0.0
C1695 C 0.40119 0.70525 0.83806 0.0
C1696 C 0.2613 0.61301 0.8434 0.0
C1697 C 0.276 0.6304 0.84269 0.0
C1698 C 0.33103 0.64465 0.82947 0.0
C1699 C 0.36298 0.6953 0.84043 0.0
C1700 C 0.34565 0.67836 0.8401 0.0
C1701 C 0.29843 0.62647 0.8411 0.0
C1702 C 0.31416 0.64478 0.84041 0.0
H1703 H 0.3701 0.74986 0.8461 0.0
H1704 H 0.34131 0.72235 0.84541 0.0
H1705 H 0.35925 0.66073 0.82061 0.0
H1706 H 0.29744 0.57099 0.84049 0.0
H1707 H 0.32308 0.60131 0.83923 0.0
C1708 C 0.26775 0.37831 0.84568 0.0
C1709 C 0.26572 0.39381 0.83381 0.0
C1710 C 0.28332 0.36176 0.84472 0.0
C1711 C 0.33568 0.34903 0.82617 0.0
H1712 H 0.32395 0.29046 0.84082 0.0
C1713 C 0.40017 0.28076 0.82267 0.0
C1714 C 0.40251 0.26768 0.8359 0.0
C1715 C 0.38251 0.295 0.82124 0.0
C1716 C 0.32752 0.30679 0.83678 0.0
H1717 H 0.27792 0.40356 0.81134 0.0
H1718 H 0.30511 0.37466 0.80966 0.0
H1719 H 0.29468 0.31735 0.84035 0.0
H1720 H 0.38773 0.25877 0.85776 0.0
H1721 H 0.35718 0.28387 0.8554 0.0
H1722 H 0.36858 0.3386 0.82283 0.0
C1723 C 0.29488 0.37552 0.81983 0.0
C1724 C 0.31075 0.32219 0.83651 0.0
C1725 C 0.2793 0.39208 0.82079 0.0
C1726 C 0.38655 0.26882 0.84751 0.0
C1727 C 0.36889 0.28303 0.84607 0.0
C1728 C 0.35245 0.33364 0.82645 0.0
C1729 C 0.29724 0.36032 0.83187 0.0
C1730 C 0.31469 0.34355 0.83134 0.0
C1731 C 0.36677 0.29644 0.83299 0.0
C1732 C 0.34862 0.3124 0.8319 0.0
H1733 H 0.2578 0.37937 0.85598 0.0
H1734 H 0.28492 0.35051 0.8543 0.0
H1735 H 0.33936 0.36543 0.82235 0.0
H1736 H 0.41226 0.2804 0.81357 0.0
H1737 H 0.38123 0.30494 0.81094 0.0
C1738 C 0.7241 0.39547 0.85453 0.0
C1739 C 0.73324 0.40451 0.84108 0.0
C1740 C 0.71017 0.37754 0.85367 0.0
C1741 C 0.67454 0.34792 0.82623 0.0
H1742 H 0.67294 0.30522 0.85925 0.0
C1743 C 0.61829 0.27207 0.82518 0.0
C1744 C 0.60575 0.26901 0.83863 0.0
C1745 C 0.63534 0.28718 0.82495 0.0
C1746 C 0.6732 0.31705 0.84997 0.0
H1747 H 0.7351 0.40135 0.81615 0.0
H1748 H 0.7115 0.36952 0.8147 0.0
H1749 H 0.7005 0.33381 0.85961 0.0
H1750 H 0.60146 0.27967 0.86237 0.0
H1751 H 0.63154 0.30546 0.86204 0.0
H1752 H 0.64728 0.33091 0.81657 0.0
C1753 C 0.71472 0.37665 0.82591 0.0
C1754 C 0.68892 0.33351 0.85019 0.0
C1755 C 0.72851 0.39475 0.82676 0.0
C1756 C 0.61098 0.28119 0.8519 0.0
C1757 C 0.62818 0.29606 0.85171 0.0
C1758 C 0.65899 0.33129 0.82592 0.0
C1759 C 0.70519 0.36794 0.83935 0.0
C1760 C 0.68956 0.3494 0.83847 0.0
C1761 C 0.64041 0.29934 0.83821 0.0
C1762 C 0.65795 0.31591 0.83792 0.0
H1763 H 0.72765 0.40227 0.86579 0.0
H1764 H 0.70296 0.37152 0.86425 0.0
H1765 H 0.67429 0.36001 0.81712 0.0
H1766 H 0.61502 0.26274 0.81482 0.0
H1767 H 0.64466 0.28926 0.81443 0.0
C1768 C 0.71607 0.39708 0.17941 0.0
C1769 C 0.73114 0.39723 0.16719 0.0
C1770 C 0.70032 0.38069 0.18045 0.0
C1771 C 0.68642 0.3254 0.16638 0.0
H1772 H 0.62714 0.34307 0.17534 0.0
C1773 C 0.61235 0.27019 0.15429 0.0
C1774 C 0.5949 0.27053 0.1648 0.0
C1775 C 0.62977 0.28463 0.15592 0.0
C1776 C 0.64366 0.33778 0.17306 0.0
H1777 H 0.74147 0.38018 0.14649 0.0
H1778 H 0.7141 0.3516 0.14833 0.0
H1779 H 0.6562 0.37007 0.17587 0.0
H1780 H 0.58228 0.28616 0.18542 0.0
H1781 H 0.61291 0.31111 0.18842 0.0
H1782 H 0.67382 0.29314 0.1634 0.0
C1783 C 0.71464 0.36398 0.15725 0.0
C1784 C 0.66032 0.35327 0.17336 0.0
C1785 C 0.73036 0.38037 0.1562 0.0
C1786 C 0.59553 0.28535 0.17718 0.0
C1787 C 0.61296 0.29982 0.17881 0.0
C1788 C 0.66976 0.30989 0.16611 0.0
C1789 C 0.69931 0.36406 0.1693 0.0
C1790 C 0.68186 0.34731 0.16987 0.0
C1791 C 0.63019 0.29977 0.1681 0.0
C1792 C 0.64814 0.31594 0.16929 0.0
H1793 H 0.71643 0.40964 0.1882 0.0
H1794 H 0.68894 0.38103 0.19 0.0
H1795 H 0.7029 0.32022 0.16387 0.0
H1796 H 0.61251 0.25878 0.14474 0.0
H1797 H 0.64266 0.28429 0.14738 0.0
C1798 C 0.62172 0.72745 0.14912 0.0
C1799 C 0.60434 0.72768 0.15969 0.0
C1800 C 0.63795 0.71155 0.15013 0.0
C1801 C 0.64739 0.65611 0.1645 0.0
H1802 H 0.70839 0.67031 0.15894 0.0
C1803 C 0.71455 0.59112 0.17119 0.0
C1804 C 0.73171 0.59162 0.16047 0.0
C1805 C 0.69965 0.6083 0.172 0.0
C1806 C 0.69141 0.66603 0.16036 0.0
H1807 H 0.59043 0.71149 0.17964 0.0
H1808 H 0.61885 0.68377 0.18145 0.0
H1809 H 0.68124 0.69936 0.15866 0.0
H1810 H 0.74668 0.61049 0.14215 0.0
H1811 H 0.72055 0.64033 0.1434 0.0
H1812 H 0.65738 0.62279 0.16588 0.0
C1813 C 0.61985 0.69585 0.17236 0.0
C1814 C 0.67587 0.68269 0.16022 0.0
C1815 C 0.60371 0.71185 0.17141 0.0
C1816 C 0.73379 0.60977 0.15068 0.0
C1817 C 0.71882 0.62689 0.15142 0.0
C1818 C 0.66289 0.63945 0.16454 0.0
C1819 C 0.63707 0.69544 0.16166 0.0
C1820 C 0.65369 0.67789 0.16225 0.0
C1821 C 0.70148 0.62632 0.16203 0.0
C1822 C 0.68509 0.64418 0.16242 0.0
H1823 H 0.62275 0.73956 0.14004 0.0
H1824 H 0.65092 0.71156 0.14166 0.0
H1825 H 0.63038 0.65186 0.16585 0.0
H1826 H 0.71271 0.57749 0.17904 0.0
H1827 H 0.68674 0.60749 0.1805 0.0
C1828 C 0.40355 0.71373 0.1466 0.0
C1829 C 0.40586 0.73103 0.15712 0.0
C1830 C 0.38603 0.69933 0.14775 0.0
C1831 C 0.34553 0.67796 0.17512 0.0
H1832 H 0.31634 0.65858 0.13785 0.0
C1833 C 0.28885 0.60278 0.17304 0.0
C1834 C 0.2702 0.60394 0.16366 0.0
C1835 C 0.30406 0.61971 0.17307 0.0
C1836 C 0.32415 0.664 0.14839 0.0
H1837 H 0.39134 0.74686 0.17703 0.0
H1838 H 0.36079 0.72155 0.17909 0.0
H1839 H 0.34531 0.68559 0.1361 0.0
H1840 H 0.25272 0.624 0.14718 0.0
H1841 H 0.27913 0.65369 0.14739 0.0
H1842 H 0.32431 0.65633 0.18741 0.0
C1843 C 0.3727 0.71906 0.17004 0.0
C1844 C 0.34092 0.67929 0.14736 0.0
C1845 C 0.39022 0.73354 0.16886 0.0
C1846 C 0.26682 0.62268 0.15463 0.0
C1847 C 0.28207 0.63958 0.15462 0.0
C1848 C 0.32879 0.66258 0.17615 0.0
C1849 C 0.37041 0.70182 0.15947 0.0
C1850 C 0.35193 0.6863 0.1607 0.0
C1851 C 0.30101 0.63815 0.16367 0.0
C1852 C 0.31802 0.65531 0.16277 0.0
H1853 H 0.41551 0.71106 0.1376 0.0
H1854 H 0.38494 0.68598 0.1396 0.0
H1855 H 0.3538 0.68293 0.1856 0.0
H1856 H 0.2918 0.58865 0.18025 0.0
H1857 H 0.31856 0.61804 0.18009 0.0
C1858 C 0.2686 0.39189 0.17307 0.0
C1859 C 0.26547 0.40321 0.15911 0.0
C1860 C 0.28188 0.37336 0.17361 0.0
C1861 C 0.30892 0.33218 0.1483 0.0
H1862 H 0.34762 0.32514 0.18334 0.0
C1863 C 0.38676 0.27992 0.14666 0.0
C1864 C 0.39086 0.26599 0.15925 0.0
C1865 C 0.36953 0.29474 0.14709 0.0
C1866 C 0.33671 0.32675 0.17357 0.0
H1867 H 0.27333 0.40334 0.13466 0.0
H1868 H 0.29712 0.37186 0.13573 0.0
H1869 H 0.32106 0.35469 0.1833 0.0
H1870 H 0.37952 0.25656 0.18207 0.0
H1871 H 0.34984 0.28303 0.18294 0.0
H1872 H 0.32532 0.30475 0.13834 0.0
C1873 C 0.28905 0.37697 0.14624 0.0
C1874 C 0.32142 0.34364 0.17355 0.0
C1875 C 0.27566 0.39532 0.14568 0.0
C1876 C 0.37714 0.26725 0.17226 0.0
C1877 C 0.36006 0.28232 0.17275 0.0
C1878 C 0.32438 0.31549 0.14825 0.0
C1879 C 0.29244 0.36578 0.16022 0.0
C1880 C 0.30753 0.34677 0.16081 0.0
C1881 C 0.35613 0.29622 0.16018 0.0
C1882 C 0.3386 0.31279 0.16079 0.0
H1883 H 0.26115 0.39756 0.18367 0.0
H1884 H 0.28387 0.36502 0.18454 0.0
H1885 H 0.29817 0.33374 0.13845 0.0
H1886 H 0.39721 0.27985 0.13659 0.0
H1887 H 0.36706 0.3055 0.13732 0.0
C1888 C 0.00748 0.41951 0.29398 0.0
C1889 C 0.99859 0.39885 0.29081 0.0
C1890 C 0.01418 0.43316 0.28195 0.0
C1891 C 0.03452 0.42767 0.24245 0.0
H1892 H 0.03545 0.49087 0.24312 0.0
C1893 C 0.08107 0.47448 0.19609 0.0
C1894 C 0.09519 0.4908 0.20156 0.0
C1895 C 0.06478 0.466 0.20557 0.0
C1896 C 0.03533 0.47322 0.2428 0.0
H1897 H 0.98838 0.37708 0.27241 0.0
H1898 H 0.99935 0.40114 0.25153 0.0
H1899 H 0.01407 0.47101 0.26241 0.0
H1900 H 0.10218 0.512 0.22099 0.0
H1901 H 0.07419 0.49662 0.23775 0.0
H1902 H 0.05623 0.42966 0.2233 0.0
C1903 C 0.00162 0.40658 0.26332 0.0
C1904 C 0.02308 0.46186 0.25383 0.0
C1905 C 0.99507 0.39288 0.27533 0.0
C1906 C 0.09185 0.49918 0.2165 0.0
C1907 C 0.07561 0.49057 0.22604 0.0
C1908 C 0.04668 0.43897 0.23149 0.0
C1909 C 0.01203 0.42649 0.26649 0.0
C1910 C 0.02281 0.43892 0.2539 0.0
C1911 C 0.0623 0.47344 0.22082 0.0
C1912 C 0.04751 0.46186 0.23164 0.0
H1913 H 0.01002 0.42481 0.30577 0.0
H1914 H 0.02216 0.44837 0.28482 0.0
H1915 H 0.03512 0.41003 0.24235 0.0
H1916 H 0.0832 0.46744 0.18472 0.0
H1917 H 0.05457 0.45306 0.20111 0.0
C1918 C 0.58845 0.03245 0.29639 0.0
C1919 C 0.59484 0.01048 0.29707 0.0
C1920 C 0.57298 0.03937 0.28569 0.0
C1921 C 0.53413 0.04972 0.26589 0.0
H1922 H 0.54299 0.02977 0.22388 0.0
C1923 C 0.49235 0.0933 0.21522 0.0
C1924 C 0.50636 0.0983 0.20288 0.0
C1925 C 0.49843 0.07793 0.22635 0.0
C1926 C 0.54025 0.03548 0.23555 0.0
H1927 H 0.58931 0.97836 0.28737 0.0
H1928 H 0.56217 0.99051 0.26855 0.0
H1929 H 0.56236 0.01204 0.24497 0.0
H1930 H 0.5374 0.09061 0.19227 0.0
H1931 H 0.54815 0.06421 0.2117 0.0
H1932 H 0.51328 0.07414 0.25644 0.0
C1933 C 0.56937 0.0024 0.27626 0.0
C1934 C 0.55115 0.02512 0.24768 0.0
C1935 C 0.58492 0.99545 0.28702 0.0
C1936 C 0.52611 0.08693 0.20153 0.0
C1937 C 0.53225 0.0717 0.21268 0.0
C1938 C 0.52336 0.06016 0.25377 0.0
C1939 C 0.56345 0.02451 0.27534 0.0
C1940 C 0.54883 0.03265 0.26293 0.0
C1941 C 0.51872 0.06736 0.22543 0.0
C1942 C 0.52689 0.05368 0.23839 0.0
H1943 H 0.59606 0.04457 0.30371 0.0
H1944 H 0.56923 0.0566 0.28509 0.0
H1945 H 0.53164 0.05563 0.27755 0.0
H1946 H 0.47688 0.1016 0.21643 0.0
H1947 H 0.48746 0.07471 0.23587 0.0
C1948 C 0.91364 0.4946 0.21221 0.0
C1949 C 0.90737 0.50823 0.19992 0.0
C1950 C 0.92973 0.50123 0.22264 0.0
C1951 C 0.97354 0.54191 0.2291 0.0
H1952 H 0.95406 0.54015 0.27167 0.0
C1953 C 0.99906 0.60529 0.27414 0.0
C1954 C 0.99969 0.59963 0.28985 0.0
C1955 C 0.99318 0.58989 0.26302 0.0
C1956 C 0.96013 0.54035 0.25993 0.0
H1957 H 0.91373 0.53928 0.18874 0.0
H1958 H 0.94184 0.5506 0.20671 0.0
H1959 H 0.93398 0.52022 0.25206 0.0
H1960 H 0.99627 0.573 0.30612 0.0
H1961 H 0.98626 0.54597 0.28667 0.0
H1962 H 0.99931 0.56265 0.23691 0.0
C1963 C 0.93449 0.53469 0.20822 0.0
C1964 C 0.94856 0.52891 0.24866 0.0
C1965 C 0.91833 0.52816 0.19788 0.0
C1966 C 0.99558 0.57791 0.29412 0.0
C1967 C 0.98982 0.56245 0.28298 0.0
C1968 C 0.98521 0.55326 0.24039 0.0
C1969 C 0.94001 0.52155 0.22091 0.0
C1970 C 0.95469 0.53019 0.23306 0.0
C1971 C 0.9879 0.56843 0.26735 0.0
C1972 C 0.97818 0.55325 0.25586 0.0
H1973 H 0.90585 0.47896 0.21396 0.0
H1974 H 0.93382 0.49067 0.23224 0.0
H1975 H 0.97883 0.5429 0.21718 0.0
H1976 H 0.0019 0.62194 0.2705 0.0
H1977 H 0.99158 0.59521 0.25115 0.0
C1978 C 0.41517 0.96697 0.3057 0.0
C1979 C 0.40424 0.98614 0.30127 0.0
C1980 C 0.43104 0.95775 0.29622 0.0
C1981 C 0.46465 0.96666 0.26081 0.0
H1982 H 0.45889 0.9039 0.25743 0.0
C1983 C 0.49133 0.9152 0.20799 0.0
C1984 C 0.49943 0.8941 0.21072 0.0
C1985 C 0.48456 0.92834 0.22028 0.0
C1986 C 0.46105 0.92137 0.25842 0.0
H1987 H 0.40272 0.01137 0.28371 0.0
H1988 H 0.42956 0.99462 0.26677 0.0
H1989 H 0.43785 0.92334 0.27664 0.0
H1990 H 0.50798 0.87079 0.22857 0.0
H1991 H 0.49641 0.89381 0.24998 0.0
H1992 H 0.4872 0.96448 0.24192 0.0
C1993 C 0.42609 0.98691 0.27775 0.0
C1994 C 0.44899 0.93258 0.26948 0.0
C1995 C 0.4104 0.99635 0.28738 0.0
C1996 C 0.50192 0.88699 0.22605 0.0
C1997 C 0.4951 0.90009 0.23832 0.0
C1998 C 0.47664 0.9554 0.24959 0.0
C1999 C 0.43617 0.96716 0.28188 0.0
C2000 C 0.45045 0.95538 0.27077 0.0
C2001 C 0.48568 0.92059 0.23553 0.0
C2002 C 0.4748 0.93264 0.24822 0.0
H2003 H 0.41084 0.95839 0.31619 0.0
H2004 H 0.43882 0.94281 0.29995 0.0
H2005 H 0.46637 0.98419 0.26159 0.0
H2006 H 0.48949 0.92124 0.1963 0.0
H2007 H 0.4773 0.94403 0.21776 0.0
C2008 C 0.08837 0.53257 0.79613 0.0
C2009 C 0.09449 0.51054 0.79701 0.0
C2010 C 0.07305 0.53949 0.78532 0.0
C2011 C 0.03429 0.54996 0.76556 0.0
H2012 H 0.04216 0.529 0.7237 0.0
C2013 C 0.99224 0.59347 0.7152 0.0
C2014 C 0.00587 0.59786 0.70255 0.0
C2015 C 0.99829 0.57805 0.72628 0.0
C2016 C 0.03972 0.53502 0.73533 0.0
H2017 H 0.08872 0.47834 0.78753 0.0
H2018 H 0.06177 0.49048 0.76856 0.0
H2019 H 0.06171 0.51151 0.74481 0.0
H2020 H 0.03607 0.58902 0.69124 0.0
H2021 H 0.04694 0.56262 0.7107 0.0
H2022 H 0.01363 0.57446 0.75606 0.0
C2023 C 0.06907 0.50241 0.77618 0.0
C2024 C 0.05072 0.52479 0.74747 0.0
C2025 C 0.0845 0.49547 0.78703 0.0
C2026 C 0.02514 0.5858 0.7008 0.0
C2027 C 0.03131 0.57058 0.71196 0.0
C2028 C 0.02347 0.56029 0.75343 0.0
C2029 C 0.06337 0.52457 0.77508 0.0
C2030 C 0.04873 0.53266 0.76266 0.0
C2031 C 0.01825 0.56691 0.72506 0.0
C2032 C 0.02662 0.55343 0.73809 0.0
H2033 H 0.09606 0.5447 0.80339 0.0
H2034 H 0.06949 0.55675 0.78459 0.0
H2035 H 0.03203 0.55613 0.77717 0.0
H2036 H 0.97714 0.60234 0.71669 0.0
H2037 H 0.9876 0.57532 0.73604 0.0
C2038 C 0.49799 0.10368 0.7754 0.0
C2039 C 0.49771 0.09907 0.7913 0.0
C2040 C 0.49165 0.08788 0.7647 0.0
C2041 C 0.45531 0.04088 0.76271 0.0
H2042 H 0.4764 0.0375 0.72057 0.0
C2043 C 0.4071 0.99431 0.71652 0.0
C2044 C 0.40335 0.00639 0.70298 0.0
C2045 C 0.42317 0.00077 0.727 0.0
C2046 C 0.47037 0.03822 0.73231 0.0
H2047 H 0.49234 0.07376 0.80835 0.0
H2048 H 0.48137 0.04609 0.78963 0.0
H2049 H 0.49727 0.05772 0.73986 0.0
H2050 H 0.41407 0.03432 0.6896 0.0
H2051 H 0.44192 0.04557 0.70784 0.0
H2052 H 0.42799 0.02224 0.75511 0.0
C2053 C 0.48604 0.06207 0.78547 0.0
C2054 C 0.48231 0.04979 0.74335 0.0
C2055 C 0.49232 0.0779 0.79619 0.0
C2056 C 0.41671 0.02446 0.69981 0.0
C2057 C 0.43274 0.0309 0.71028 0.0
C2058 C 0.4434 0.02933 0.7517 0.0
C2059 C 0.48496 0.0671 0.76965 0.0
C2060 C 0.47456 0.05181 0.75857 0.0
C2061 C 0.4358 0.01946 0.72417 0.0
C2062 C 0.45043 0.02843 0.73627 0.0
H2063 H 0.50185 0.11989 0.77128 0.0
H2064 H 0.49076 0.09242 0.75262 0.0
H2065 H 0.44868 0.04233 0.77426 0.0
H2066 H 0.39733 0.98009 0.71916 0.0
H2067 H 0.42535 0.99143 0.73751 0.0
C2068 C 0.99899 0.39704 0.7238 0.0
C2069 C 0.99921 0.40214 0.70798 0.0
C2070 C 0.99258 0.4126 0.73466 0.0
C2071 C 0.95677 0.45998 0.73691 0.0
H2072 H 0.97698 0.462 0.77931 0.0
C2073 C 0.90822 0.50603 0.78324 0.0
C2074 C 0.9041 0.4937 0.79662 0.0
C2075 C 0.92435 0.49958 0.7728 0.0
C2076 C 0.97119 0.46166 0.7675 0.0
H2077 H 0.99467 0.42805 0.69126 0.0
H2078 H 0.98353 0.45528 0.71025 0.0
H2079 H 0.99803 0.44203 0.75998 0.0
H2080 H 0.91421 0.46531 0.80974 0.0
H2081 H 0.94217 0.45407 0.79158 0.0
H2082 H 0.9295 0.47875 0.74446 0.0
C2083 C 0.98788 0.43912 0.71422 0.0
C2084 C 0.98324 0.45023 0.75644 0.0
C2085 C 0.99425 0.42353 0.70335 0.0
C2086 C 0.91714 0.47537 0.79966 0.0
C2087 C 0.93323 0.46892 0.78924 0.0
C2088 C 0.94475 0.47138 0.74794 0.0
C2089 C 0.9863 0.43362 0.72994 0.0
C2090 C 0.97581 0.44872 0.74111 0.0
C2091 C 0.93669 0.48065 0.77551 0.0
C2092 C 0.95145 0.47179 0.76346 0.0
H2093 H 0.00252 0.38065 0.72773 0.0
H2094 H 0.9913 0.40772 0.74665 0.0
H2095 H 0.9504 0.45892 0.72527 0.0
H2096 H 0.89869 0.52045 0.7807 0.0
H2097 H 0.92683 0.50913 0.76242 0.0
C2098 C 0.59282 0.99712 0.71544 0.0
C2099 C 0.59641 0.98896 0.70046 0.0
C2100 C 0.57668 0.98811 0.72488 0.0
C2101 C 0.54858 0.936 0.73006 0.0
H2102 H 0.51511 0.96744 0.76082 0.0
C2103 C 0.49723 0.88912 0.77375 0.0
C2104 C 0.50046 0.89524 0.78923 0.0
C2105 C 0.50376 0.90283 0.76174 0.0
C2106 C 0.52436 0.95845 0.75228 0.0
H2107 H 0.58504 0.96551 0.68348 0.0
H2108 H 0.5566 0.95037 0.69972 0.0
H2109 H 0.53635 0.98768 0.74167 0.0
H2110 H 0.51138 0.92143 0.80418 0.0
H2111 H 0.52344 0.94503 0.78324 0.0
H2112 H 0.53738 0.90684 0.74085 0.0
C2113 C 0.56651 0.96348 0.70427 0.0
C2114 C 0.53652 0.97003 0.74133 0.0
C2115 C 0.58268 0.97238 0.69488 0.0
C2116 C 0.50905 0.91603 0.79239 0.0
C2117 C 0.51571 0.92969 0.78036 0.0
C2118 C 0.53649 0.92447 0.74095 0.0
C2119 C 0.56375 0.97076 0.71953 0.0
C2120 C 0.54903 0.9589 0.73024 0.0
C2121 C 0.51382 0.92292 0.76491 0.0
C2122 C 0.52449 0.93551 0.75235 0.0
H2123 H 0.60286 0.01011 0.72002 0.0
H2124 H 0.57506 0.99404 0.7366 0.0
H2125 H 0.55836 0.92687 0.7219 0.0
H2126 H 0.49077 0.87322 0.77085 0.0
H2127 H 0.50171 0.8973 0.74994 0.0
C2128 C 0.9929 0.34935 0.4419 0.0
C2129 C 0.00094 0.33054 0.43452 0.0
C2130 C 0.9939 0.35142 0.45799 0.0
C2131 C 0.0022 0.31793 0.49355 0.0
H2132 H 0.01107 0.37413 0.51309 0.0
C2133 C 0.02572 0.32769 0.55746 0.0
C2134 C 0.00953 0.33815 0.56618 0.0
C2135 C 0.02531 0.32868 0.54135 0.0
C2136 C 0.00857 0.35839 0.50771 0.0
H2137 H 0.01617 0.29906 0.43859 0.0
H2138 H 0.01931 0.30335 0.46618 0.0
H2139 H 0.00913 0.37177 0.48489 0.0
H2140 H 0.98089 0.35869 0.56508 0.0
H2141 H 0.98059 0.36099 0.53674 0.0
H2142 H 0.00253 0.30456 0.51641 0.0
C2143 C 0.01158 0.31628 0.45968 0.0
C2144 C 0.00728 0.357 0.49159 0.0
C2145 C 0.01019 0.31402 0.44369 0.0
C2146 C 0.99352 0.35049 0.55856 0.0
C2147 C 0.99339 0.35187 0.54243 0.0
C2148 C 0.00397 0.3193 0.50958 0.0
C2149 C 0.00323 0.33487 0.46711 0.0
C2150 C 0.00416 0.3367 0.48428 0.0
C2151 C 0.00898 0.34053 0.53373 0.0
C2152 C 0.00721 0.33949 0.51676 0.0
H2153 H 0.98591 0.36257 0.43527 0.0
H2154 H 0.98708 0.36589 0.46326 0.0
H2155 H 0.99913 0.3021 0.48848 0.0
H2156 H 0.0381 0.31792 0.56308 0.0
H2157 H 0.03746 0.31981 0.5348 0.0
C2158 C 0.66509 0.98894 0.55709 0.0
C2159 C 0.66357 0.0088 0.56516 0.0
C2160 C 0.66171 0.98817 0.54115 0.0
C2161 C 0.6664 0.02171 0.50671 0.0
H2162 H 0.63282 0.97586 0.48715 0.0
C2163 C 0.65881 0.01703 0.44059 0.0
C2164 C 0.66045 0.99623 0.43385 0.0
C2165 C 0.65611 0.01934 0.45652 0.0
C2166 C 0.64242 0.98865 0.49241 0.0
H2167 H 0.65656 0.04333 0.56274 0.0
H2168 H 0.65124 0.042 0.5348 0.0
H2169 H 0.63381 0.97841 0.51529 0.0
H2170 H 0.65961 0.96151 0.43863 0.0
H2171 H 0.6559 0.96554 0.46644 0.0
H2172 H 0.6758 0.03151 0.48401 0.0
C2173 C 0.6551 0.02707 0.5409 0.0
C2174 C 0.64289 0.99015 0.50852 0.0
C2175 C 0.65826 0.02782 0.55688 0.0
C2176 C 0.65878 0.97779 0.44343 0.0
C2177 C 0.6563 0.98011 0.45939 0.0
C2178 C 0.66612 0.02009 0.49063 0.0
C2179 C 0.65695 0.00726 0.53287 0.0
C2180 C 0.65506 0.00657 0.51582 0.0
C2181 C 0.65523 0.00092 0.46617 0.0
C2182 C 0.65431 0.00341 0.48326 0.0
H2183 H 0.66956 0.97403 0.56298 0.0
H2184 H 0.66355 0.97273 0.53522 0.0
H2185 H 0.67615 0.03436 0.51204 0.0
H2186 H 0.66026 0.03163 0.43365 0.0
H2187 H 0.65497 0.03562 0.46129 0.0
C2188 C 0.01822 0.68086 0.55575 0.0
C2189 C 0.00074 0.6714 0.56382 0.0
C2190 C 0.01994 0.67863 0.53976 0.0
C2191 C 0.99977 0.64619 0.50649 0.0
H2192 H 0.01903 0.69647 0.48303 0.0
C2193 C 0.99012 0.65534 0.44018 0.0
C2194 C 0.0077 0.66447 0.43206 0.0
C2195 C 0.99053 0.65409 0.45629 0.0
C2196 C 0.01389 0.6822 0.48944 0.0
H2197 H 0.97151 0.65188 0.56134 0.0
H2198 H 0.97412 0.6486 0.53333 0.0
H2199 H 0.01682 0.69873 0.51104 0.0
H2200 H 0.03971 0.67897 0.43439 0.0
H2201 H 0.04042 0.67682 0.46256 0.0
H2202 H 0.99629 0.62993 0.4847 0.0
C2203 C 0.98672 0.65744 0.53943 0.0
C2204 C 0.01265 0.68347 0.50551 0.0
C2205 C 0.98506 0.65957 0.55548 0.0
C2206 C 0.026 0.6717 0.44033 0.0
C2207 C 0.02632 0.67066 0.45645 0.0
C2208 C 0.00084 0.64499 0.49037 0.0
C2209 C 0.00413 0.66705 0.53137 0.0
C2210 C 0.00559 0.66548 0.51425 0.0
C2211 C 0.00844 0.66218 0.4646 0.0
C2212 C 0.00793 0.66299 0.4817 0.0
H2213 H 0.03044 0.69035 0.56175 0.0
H2214 H 0.03373 0.686 0.53398 0.0
H2215 H 0.99456 0.63193 0.51287 0.0
H2216 H 0.97588 0.6495 0.43407 0.0
H2217 H 0.97649 0.64757 0.46228 0.0
C2218 C 0.34625 0.97627 0.55683 0.0
C2219 C 0.33851 0.99455 0.56496 0.0
C2220 C 0.34923 0.9772 0.54082 0.0
C2221 C 0.35492 0.01574 0.50813 0.0
H2222 H 0.33114 0.96836 0.48377 0.0
C2223 C 0.33297 0.02488 0.44384 0.0
C2224 C 0.33614 0.00702 0.43392 0.0
C2225 C 0.33674 0.02287 0.45968 0.0
C2226 C 0.33824 0.98155 0.49038 0.0
H2227 H 0.32777 0.02809 0.56258 0.0
H2228 H 0.33311 0.02972 0.53479 0.0
H2229 H 0.33156 0.96558 0.51184 0.0
H2230 H 0.34626 0.97318 0.43284 0.0
H2231 H 0.35322 0.96979 0.46048 0.0
H2232 H 0.36121 0.03189 0.48668 0.0
C2233 C 0.33721 0.01478 0.5408 0.0
C2234 C 0.33846 0.97996 0.50648 0.0
C2235 C 0.33416 0.01384 0.55676 0.0
C2236 C 0.34381 0.98729 0.44015 0.0
C2237 C 0.34757 0.98527 0.45601 0.0
C2238 C 0.35474 0.01732 0.49203 0.0
C2239 C 0.3446 0.99643 0.53263 0.0
C2240 C 0.34642 0.99721 0.51554 0.0
C2241 C 0.34379 0.00296 0.46599 0.0
C2242 C 0.34601 0.00042 0.48298 0.0
H2243 H 0.35004 0.96126 0.56283 0.0
H2244 H 0.35517 0.96286 0.53486 0.0
H2245 H 0.3615 0.02914 0.5148 0.0
H2246 H 0.32734 0.04038 0.43938 0.0
H2247 H 0.33346 0.03675 0.46705 0.0
C2248 C 0.5129 0.81446 0.94279 0.0
C2249 C 0.50373 0.83083 0.93345 0.0
C2250 C 0.51429 0.81706 0.95875 0.0
C2251 C 0.51008 0.85831 0.9903 0.0
H2252 H 0.50452 0.80629 0.01547 0.0
C2253 C 0.49603 0.85304 0.0573 0.0
C2254 C 0.51143 0.84008 0.06503 0.0
C2255 C 0.49613 0.85437 0.04117 0.0
C2256 C 0.50619 0.82091 0.00854 0.0
H2257 H 0.48892 0.86297 0.93383 0.0
H2258 H 0.4901 0.86689 0.96179 0.0
H2259 H 0.50134 0.80347 0.98755 0.0
H2260 H 0.53923 0.81873 0.0621 0.0
H2261 H 0.53902 0.82061 0.03385 0.0
H2262 H 0.51392 0.87571 0.01169 0.0
C2263 C 0.49684 0.85227 0.95668 0.0
C2264 C 0.50454 0.81934 0.99253 0.0
C2265 C 0.49584 0.84985 0.94061 0.0
C2266 C 0.52732 0.829 0.05641 0.0
C2267 C 0.52715 0.82998 0.04031 0.0
C2268 C 0.51126 0.85992 0.00642 0.0
C2269 C 0.50602 0.83584 0.96597 0.0
C2270 C 0.50681 0.83794 0.98313 0.0
C2271 C 0.51134 0.84238 0.03257 0.0
C2272 C 0.50963 0.84117 0.0156 0.0
H2273 H 0.51879 0.79936 0.93786 0.0
H2274 H 0.52193 0.80422 0.96539 0.0
H2275 H 0.51215 0.87296 0.98349 0.0
H2276 H 0.48363 0.86173 0.06374 0.0
H2277 H 0.48374 0.86393 0.03539 0.0
C2278 C 0.15583 0.47092 0.94294 0.0
C2279 C 0.15931 0.49018 0.93446 0.0
C2280 C 0.15356 0.47162 0.959 0.0
C2281 C 0.14086 0.50765 0.99175 0.0
H2282 H 0.17876 0.46918 0.01496 0.0
C2283 C 0.15892 0.52054 0.05658 0.0
C2284 C 0.16261 0.50214 0.06592 0.0
C2285 C 0.15607 0.51832 0.04063 0.0
C2286 C 0.16772 0.47976 0.00873 0.0
H2287 H 0.16275 0.52533 0.93632 0.0
H2288 H 0.15824 0.5265 0.96424 0.0
H2289 H 0.17742 0.46639 0.98695 0.0
H2290 H 0.16581 0.46688 0.06568 0.0
H2291 H 0.1598 0.46296 0.03813 0.0
H2292 H 0.13104 0.52099 0.0135 0.0
C2293 C 0.1572 0.5109 0.95842 0.0
C2294 C 0.16702 0.47818 0.99265 0.0
C2295 C 0.15972 0.5102 0.94239 0.0
C2296 C 0.16274 0.48143 0.05894 0.0
C2297 C 0.15964 0.47919 0.04305 0.0
C2298 C 0.14135 0.50908 0.00786 0.0
C2299 C 0.15445 0.4916 0.9669 0.0
C2300 C 0.1538 0.49227 0.984 0.0
C2301 C 0.15663 0.49762 0.03364 0.0
C2302 C 0.155 0.49533 0.01655 0.0
H2303 H 0.15499 0.45526 0.93721 0.0
H2304 H 0.15121 0.45652 0.96527 0.0
H2305 H 0.13036 0.51859 0.98534 0.0
H2306 H 0.15836 0.53672 0.06154 0.0
H2307 H 0.15401 0.53292 0.03376 0.0
C2308 C 0.51724 0.18552 0.05526 0.0
C2309 C 0.50141 0.17409 0.06375 0.0
C2310 C 0.51861 0.18326 0.03926 0.0
C2311 C 0.50053 0.14844 0.00643 0.0
H2312 H 0.51547 0.19982 0.98257 0.0
C2313 C 0.48975 0.15752 0.93996 0.0
C2314 C 0.5074 0.16671 0.93194 0.0
C2315 C 0.49001 0.15631 0.95609 0.0
C2316 C 0.51149 0.18529 0.9891 0.0
H2317 H 0.47474 0.15104 0.06193 0.0
H2318 H 0.47643 0.14792 0.03392 0.0
H2319 H 0.51327 0.20229 0.01056 0.0
H2320 H 0.53928 0.18142 0.93439 0.0
H2321 H 0.53958 0.17957 0.96262 0.0
H2322 H 0.49798 0.13178 0.98469 0.0
C2323 C 0.48816 0.15827 0.0397 0.0
C2324 C 0.51031 0.18665 0.00516 0.0
C2325 C 0.48696 0.16032 0.05578 0.0
C2326 C 0.52555 0.17411 0.94029 0.0
C2327 C 0.52565 0.17321 0.95641 0.0
C2328 C 0.50141 0.14719 0.9903 0.0
C2329 C 0.50395 0.1698 0.03123 0.0
C2330 C 0.50495 0.16822 0.01407 0.0
C2331 C 0.50775 0.1646 0.96445 0.0
C2332 C 0.50703 0.16559 0.98152 0.0
H2333 H 0.52845 0.19655 0.06091 0.0
H2334 H 0.53124 0.19211 0.0332 0.0
H2335 H 0.49665 0.13384 0.01289 0.0
H2336 H 0.47562 0.15163 0.93376 0.0
H2337 H 0.47597 0.14969 0.96204 0.0
C2338 C 0.84807 0.52348 0.94203 0.0
C2339 C 0.83981 0.5053 0.93405 0.0
C2340 C 0.85166 0.52252 0.95797 0.0
C2341 C 0.85806 0.48383 0.99054 0.0
H2342 H 0.83601 0.53155 0.01539 0.0
C2343 C 0.83718 0.47473 0.05496 0.0
C2344 C 0.84095 0.49239 0.06494 0.0
C2345 C 0.84084 0.47676 0.03911 0.0
C2346 C 0.84263 0.51825 0.00863 0.0
H2347 H 0.82875 0.4719 0.93665 0.0
H2348 H 0.83511 0.47022 0.96433 0.0
H2349 H 0.83551 0.53443 0.98732 0.0
H2350 H 0.85207 0.52591 0.06613 0.0
H2351 H 0.85877 0.52937 0.03844 0.0
H2352 H 0.86473 0.46745 0.01185 0.0
C2353 C 0.83917 0.4851 0.95824 0.0
C2354 C 0.84234 0.51991 0.99253 0.0
C2355 C 0.83553 0.48607 0.94235 0.0
C2356 C 0.84915 0.51194 0.05877 0.0
C2357 C 0.85277 0.514 0.04289 0.0
C2358 C 0.85838 0.48218 0.00663 0.0
C2359 C 0.84713 0.50335 0.96626 0.0
C2360 C 0.84963 0.50253 0.98331 0.0
C2361 C 0.84835 0.49653 0.03286 0.0
C2362 C 0.85026 0.49919 0.01585 0.0
H2363 H 0.85182 0.53844 0.93594 0.0
H2364 H 0.85801 0.53678 0.96381 0.0
H2365 H 0.86416 0.47032 0.98374 0.0
H2366 H 0.83112 0.45937 0.05939 0.0
H2367 H 0.83706 0.46305 0.0317 0.0
loop_
_geom_bond_atom_site_label_1
_geom_bond_atom_site_label_2
_geom_bond_distance
_geom_bond_site_symmetry_2
_ccdc_geom_bond_type
Li0 N17 1.990 . S
Li0 O60 1.956 1_455 S
Li0 O61 1.970 . S
Li0 O62 1.961 . S
Li1 N25 1.990 . S
Li1 O60 1.970 1_455 S
Li1 O61 1.956 . S
Li1 O63 1.961 1_455 S
Li2 N47 1.990 . S
Li2 O60 1.961 . S
Li2 O62 1.956 1_655 S
Li2 O63 1.970 . S
Li3 N53 1.990 . S
Li3 O61 1.961 . S
Li3 O62 1.970 . S
Li3 O63 1.956 1_455 S
C4 C6 1.358 . S
C4 C7 1.356 . S
C4 O60 1.325 . S
N5 C8 1.314 . S
N5 C9 1.279 . S
C6 C4 1.358 . S
C6 C8 1.363 . S
C6 H64 0.912 1_655 S
C7 C4 1.356 . S
C7 C9 1.358 . S
C7 H65 0.930 . S
C8 N5 1.314 . S
C8 C6 1.363 . S
C8 H66 0.930 . S
C9 N5 1.279 . S
C9 C7 1.358 . S
C9 H67 0.930 . S
C10 C13 1.348 . S
C10 C14 1.356 . S
C10 O61 1.325 . S
C11 N12 1.279 . S
C11 C14 1.358 . S
C11 H68 0.930 . S
N12 C11 1.279 . S
N12 C15 1.314 . S
C13 C10 1.348 . S
C13 C15 1.353 . S
C13 H69 0.929 . S
C14 C10 1.356 . S
C14 C11 1.358 . S
C14 H70 0.930 . S
C15 N12 1.314 . S
C15 C13 1.353 . S
C15 H71 0.930 . S
C16 N17 1.314 . S
C16 C21 1.353 . S
C16 H22 0.930 . S
N17 Li0 1.990 . S
N17 C16 1.314 . S
N17 C19 1.279 . S
C18 C19 1.358 . S
C18 C20 1.356 . S
C18 H72 0.930 . S
C19 N17 1.279 . S
C19 C18 1.358 . S
C19 H23 0.930 . S
C20 C18 1.356 . S
C20 C21 1.348 . S
C21 C16 1.353 . S
C21 C20 1.348 . S
C21 H73 0.929 . S
H22 C16 0.930 . S
H23 C19 0.930 . S
C24 N25 1.314 1_655 S
C24 C26 1.353 . S
C24 H30 0.930 . S
N25 Li1 1.990 . S
N25 C24 1.314 1_455 S
N25 C28 1.279 . S
C26 C24 1.353 . S
C26 C29 1.348 . S
C26 H74 0.929 . S
C27 C28 1.358 . S
C27 C29 1.356 1_455 S
C27 H75 0.930 . S
C28 N25 1.279 . S
C28 C27 1.358 . S
C28 H31 0.930 . S
C29 C26 1.348 . S
C29 C27 1.356 1_655 S
H30 C24 0.930 . S
H31 C28 0.930 . S
C32 C34 1.348 . S
C32 C35 1.356 . S
C32 O62 1.325 . S
N33 C36 1.314 . S
N33 C37 1.279 . S
C34 C32 1.348 . S
C34 C36 1.353 . S
C34 H76 0.934 . S
C35 C32 1.356 . S
C35 C37 1.358 . S
C35 H77 0.930 . S
C36 N33 1.314 . S
C36 C34 1.353 . S
C36 H78 0.930 . S
C37 N33 1.279 . S
C37 C35 1.358 . S
C37 H79 0.930 . S
C38 C39 1.348 . S
C38 C40 1.356 . S
C38 O63 1.325 . S
C39 C38 1.348 . S
C39 C41 1.353 . S
C39 H80 0.929 . S
C40 C38 1.356 . S
C40 C42 1.358 . S
C40 H81 0.930 . S
C41 C39 1.353 . S
C41 N43 1.314 . S
C41 H82 0.930 . S
C42 C40 1.358 . S
C42 N43 1.279 . S
C42 H83 0.930 . S
N43 C41 1.314 . S
N43 C42 1.279 . S
C44 C46 1.353 . S
C44 N47 1.314 . S
C44 H50 0.930 . S
C45 N47 1.279 . S
C45 C48 1.358 . S
C45 H51 0.930 . S
C46 C44 1.353 . S
C46 C49 1.348 . S
C46 H84 0.929 . S
N47 Li2 1.990 . S
N47 C44 1.314 . S
N47 C45 1.279 . S
C48 C45 1.358 . S
C48 C49 1.356 . S
C48 H85 0.930 . S
C49 C46 1.348 . S
C49 C48 1.356 . S
H50 C44 0.930 . S
H51 C45 0.930 . S
C52 N53 1.314 . S
C52 C54 1.353 . S
C52 H58 0.930 . S
N53 Li3 1.990 . S
N53 C52 1.314 . S
N53 C56 1.279 1_455 S
C54 C52 1.353 . S
C54 C57 1.348 . S
C54 H86 0.929 . S
C55 C56 1.358 1_455 S
C55 C57 1.356 . S
C55 H87 0.930 1_455 S
C56 N53 1.279 1_655 S
C56 C55 1.358 1_655 S
C56 H59 0.930 . S
C57 C54 1.348 . S
C57 C55 1.356 . S
H58 C52 0.930 . S
H59 C56 0.930 . S
O60 Li0 1.956 1_655 S
O60 Li1 1.970 1_655 S
O60 Li2 1.961 . S
O60 C4 1.325 . S
O61 Li0 1.970 . S
O61 Li1 1.956 . S
O61 Li3 1.961 . S
O61 C10 1.325 . S
O62 Li0 1.961 . S
O62 Li2 1.956 1_455 S
O62 Li3 1.970 . S
O62 C32 1.325 . S
O63 Li1 1.961 1_655 S
O63 Li2 1.970 . S
O63 Li3 1.956 1_655 S
O63 C38 1.325 . S
H64 C6 0.912 1_455 S
H65 C7 0.930 . S
H66 C8 0.930 . S
H67 C9 0.930 . S
H68 C11 0.930 . S
H69 C13 0.929 . S
H70 C14 0.930 . S
H71 C15 0.930 . S
H72 C18 0.930 . S
H73 C21 0.929 . S
H74 C26 0.929 . S
H75 C27 0.930 . S
H76 C34 0.934 . S
H77 C35 0.930 . S
H78 C36 0.930 . S
H79 C37 0.930 . S
H80 C39 0.929 . S
H81 C40 0.930 . S
H82 C41 0.930 . S
H83 C42 0.930 . S
H84 C46 0.929 . S
H85 C48 0.930 . S
H86 C54 0.929 . S
H87 C55 0.930 1_655 S
Li88 N105 1.990 . S
Li88 O148 1.956 . S
Li88 O149 1.970 . S
Li88 O150 1.961 1_545 S
Li89 N113 1.990 . S
Li89 O148 1.970 . S
Li89 O149 1.956 . S
Li89 O151 1.961 1_545 S
Li90 N135 1.990 . S
Li90 O148 1.961 1_565 S
Li90 O150 1.956 . S
Li90 O151 1.970 . S
Li91 N141 1.990 . S
Li91 O149 1.961 . S
Li91 O150 1.970 1_545 S
Li91 O151 1.956 1_545 S
C92 C94 1.348 . S
C92 C95 1.356 1_545 S
C92 O148 1.325 . S
N93 C96 1.314 . S
N93 C97 1.279 1_545 S
C94 C92 1.348 . S
C94 C96 1.353 . S
C94 H152 0.929 . S
C95 C92 1.356 1_565 S
C95 C97 1.358 . S
C95 H153 0.930 . S
C96 N93 1.314 . S
C96 C94 1.353 . S
C96 H154 0.930 . S
C97 N93 1.279 1_565 S
C97 C95 1.358 . S
C97 H155 0.930 . S
C98 C101 1.348 . S
C98 C102 1.356 . S
C98 O149 1.325 . S
C99 N100 1.279 . S
C99 C102 1.358 . S
C99 H156 0.930 . S
N100 C99 1.279 . S
N100 C103 1.314 . S
C101 C98 1.348 . S
C101 C103 1.353 . S
C101 H157 0.929 . S
C102 C98 1.356 . S
C102 C99 1.358 . S
C102 H158 0.930 . S
C103 N100 1.314 . S
C103 C101 1.353 . S
C103 H159 0.930 . S
C104 N105 1.314 . S
C104 C109 1.353 . S
C104 H110 0.930 . S
N105 Li88 1.990 . S
N105 C104 1.314 . S
N105 C107 1.279 . S
C106 C107 1.358 . S
C106 C108 1.356 . S
C106 H160 0.930 . S
C107 N105 1.279 . S
C107 C106 1.358 . S
C107 H111 0.930 . S
C108 C106 1.356 . S
C108 C109 1.348 . S
C109 C104 1.353 . S
C109 C108 1.348 . S
C109 H161 0.929 . S
H110 C104 0.930 . S
H111 C107 0.930 . S
C112 N113 1.314 . S
C112 C114 1.353 . S
C112 H118 0.930 . S
N113 Li89 1.990 . S
N113 C112 1.314 . S
N113 C116 1.279 . S
C114 C112 1.353 . S
C114 C117 1.348 . S
C114 H162 0.929 . S
C115 C116 1.358 . S
C115 C117 1.356 . S
C115 H163 0.930 . S
C116 N113 1.279 . S
C116 C115 1.358 . S
C116 H119 0.930 . S
C117 C114 1.348 . S
C117 C115 1.356 . S
H118 C112 0.930 . S
H119 C116 0.930 . S
C120 C122 1.348 . S
C120 C123 1.356 . S
C120 O150 1.325 . S
N121 C124 1.314 . S
N121 C125 1.279 . S
C122 C120 1.348 . S
C122 C124 1.353 . S
C122 H164 0.929 . S
C123 C120 1.356 . S
C123 C125 1.358 . S
C123 H165 0.930 . S
C124 N121 1.314 . S
C124 C122 1.353 . S
C124 H166 0.930 . S
C125 N121 1.279 . S
C125 C123 1.358 . S
C125 H167 0.930 . S
C126 C127 1.348 . S
C126 C128 1.356 1_565 S
C126 O151 1.325 . S
C127 C126 1.348 . S
C127 C129 1.353 . S
C127 H168 0.929 . S
C128 C126 1.356 1_545 S
C128 C130 1.358 . S
C128 H169 0.930 . S
C129 C127 1.353 . S
C129 N131 1.314 . S
C129 H170 0.930 . S
C130 C128 1.358 . S
C130 N131 1.279 1_545 S
C130 H171 0.930 . S
N131 C129 1.314 . S
N131 C130 1.279 1_565 S
C132 C134 1.353 . S
C132 N135 1.314 . S
C132 H138 0.930 . S
C133 N135 1.279 . S
C133 C136 1.358 . S
C133 H139 0.930 . S
C134 C132 1.353 . S
C134 C137 1.348 . S
C134 H172 0.929 . S
N135 Li90 1.990 . S
N135 C132 1.314 . S
N135 C133 1.279 . S
C136 C133 1.358 . S
C136 C137 1.356 . S
C136 H173 0.930 . S
C137 C134 1.348 . S
C137 C136 1.356 . S
H138 C132 0.930 . S
H139 C133 0.930 . S
C140 N141 1.314 . S
C140 C142 1.353 . S
C140 H146 0.930 . S
N141 Li91 1.990 . S
N141 C140 1.314 . S
N141 C144 1.279 1_545 S
C142 C140 1.353 . S
C142 C145 1.348 1_545 S
C142 H174 0.929 . S
C143 C144 1.358 . S
C143 C145 1.356 . S
C143 H175 0.930 . S
C144 N141 1.279 1_565 S
C144 C143 1.358 . S
C144 H147 0.930 . S
C145 C142 1.348 1_565 S
C145 C143 1.356 . S
H146 C140 0.930 . S
H147 C144 0.930 . S
O148 Li88 1.956 . S
O148 Li89 1.970 . S
O148 Li90 1.961 1_545 S
O148 C92 1.325 . S
O149 Li88 1.970 . S
O149 Li89 1.956 . S
O149 Li91 1.961 . S
O149 C98 1.325 . S
O150 Li88 1.961 1_565 S
O150 Li90 1.956 . S
O150 Li91 1.970 1_565 S
O150 C120 1.325 . S
O151 Li89 1.961 1_565 S
O151 Li90 1.970 . S
O151 Li91 1.956 1_565 S
O151 C126 1.325 . S
H152 C94 0.929 . S
H153 C95 0.930 . S
H154 C96 0.930 . S
H155 C97 0.930 . S
H156 C99 0.930 . S
H157 C101 0.929 . S
H158 C102 0.930 . S
H159 C103 0.930 . S
H160 C106 0.930 . S
H161 C109 0.929 . S
H162 C114 0.929 . S
H163 C115 0.930 . S
H164 C122 0.929 . S
H165 C123 0.930 . S
H166 C124 0.930 . S
H167 C125 0.930 . S
H168 C127 0.929 . S
H169 C128 0.930 . S
H170 C129 0.930 . S
H171 C130 0.930 . S
H172 C134 0.929 . S
H173 C136 0.930 . S
H174 C142 0.929 . S
H175 C143 0.930 . S
Li176 N193 1.990 . S
Li176 O236 1.956 1_655 S
Li176 O237 1.970 . S
Li176 O238 1.961 . S
Li177 N201 1.990 . S
Li177 O236 1.970 1_655 S
Li177 O237 1.956 . S
Li177 O239 1.961 1_655 S
Li178 N223 1.990 . S
Li178 O236 1.961 . S
Li178 O238 1.956 1_455 S
Li178 O239 1.970 . S
Li179 N229 1.990 . S
Li179 O237 1.961 . S
Li179 O238 1.970 . S
Li179 O239 1.956 1_655 S
C180 C182 1.358 . S
C180 C183 1.356 . S
C180 O236 1.325 . S
N181 C184 1.314 . S
N181 C185 1.279 . S
C182 C180 1.358 . S
C182 C184 1.363 . S
C182 H240 0.912 1_455 S
C183 C180 1.356 . S
C183 C185 1.358 . S
C183 H241 0.930 . S
C184 N181 1.314 . S
C184 C182 1.363 . S
C184 H242 0.930 . S
C185 N181 1.279 . S
C185 C183 1.358 . S
C185 H243 0.930 . S
C186 C189 1.348 . S
C186 C190 1.356 . S
C186 O237 1.325 . S
C187 N188 1.279 . S
C187 C190 1.358 . S
C187 H244 0.930 . S
N188 C187 1.279 . S
N188 C191 1.314 . S
C189 C186 1.348 . S
C189 C191 1.353 . S
C189 H245 0.929 . S
C190 C186 1.356 . S
C190 C187 1.358 . S
C190 H246 0.930 . S
C191 N188 1.314 . S
C191 C189 1.353 . S
C191 H247 0.930 . S
C192 N193 1.314 . S
C192 C197 1.353 . S
C192 H198 0.930 . S
N193 Li176 1.990 . S
N193 C192 1.314 . S
N193 C195 1.279 . S
C194 C195 1.358 . S
C194 C196 1.356 . S
C194 H248 0.930 . S
C195 N193 1.279 . S
C195 C194 1.358 . S
C195 H199 0.930 . S
C196 C194 1.356 . S
C196 C197 1.348 . S
C197 C192 1.353 . S
C197 C196 1.348 . S
C197 H249 0.929 . S
H198 C192 0.930 . S
H199 C195 0.930 . S
C200 N201 1.314 1_455 S
C200 C202 1.353 . S
C200 H206 0.930 . S
N201 Li177 1.990 . S
N201 C200 1.314 1_655 S
N201 C204 1.279 . S
C202 C200 1.353 . S
C202 C205 1.348 . S
C202 H250 0.929 . S
C203 C204 1.358 . S
C203 C205 1.356 1_655 S
C203 H251 0.930 . S
C204 N201 1.279 . S
C204 C203 1.358 . S
C204 H207 0.930 . S
C205 C202 1.348 . S
C205 C203 1.356 1_455 S
H206 C200 0.930 . S
H207 C204 0.930 . S
C208 C210 1.348 . S
C208 C211 1.356 . S
C208 O238 1.325 . S
N209 C212 1.314 . S
N209 C213 1.279 . S
C210 C208 1.348 . S
C210 C212 1.353 . S
C210 H252 0.934 . S
C211 C208 1.356 . S
C211 C213 1.358 . S
C211 H253 0.930 . S
C212 N209 1.314 . S
C212 C210 1.353 . S
C212 H254 0.930 . S
C213 N209 1.279 . S
C213 C211 1.358 . S
C213 H255 0.930 . S
C214 C215 1.348 . S
C214 C216 1.356 . S
C214 O239 1.325 . S
C215 C214 1.348 . S
C215 C217 1.353 . S
C215 H256 0.929 . S
C216 C214 1.356 . S
C216 C218 1.358 . S
C216 H257 0.930 . S
C217 C215 1.353 . S
C217 N219 1.314 . S
C217 H258 0.930 . S
C218 C216 1.358 . S
C218 N219 1.279 . S
C218 H259 0.930 . S
N219 C217 1.314 . S
N219 C218 1.279 . S
C220 C222 1.353 . S
C220 N223 1.314 . S
C220 H226 0.930 . S
C221 N223 1.279 . S
C221 C224 1.358 . S
C221 H227 0.930 . S
C222 C220 1.353 . S
C222 C225 1.348 . S
C222 H260 0.929 . S
N223 Li178 1.990 . S
N223 C220 1.314 . S
N223 C221 1.279 . S
C224 C221 1.358 . S
C224 C225 1.356 . S
C224 H261 0.930 . S
C225 C222 1.348 . S
C225 C224 1.356 . S
H226 C220 0.930 . S
H227 C221 0.930 . S
C228 N229 1.314 . S
C228 C230 1.353 . S
C228 H234 0.930 . S
N229 Li179 1.990 . S
N229 C228 1.314 . S
N229 C232 1.279 1_655 S
C230 C228 1.353 . S
C230 C233 1.348 . S
C230 H262 0.929 . S
C231 C232 1.358 1_655 S
C231 C233 1.356 . S
C231 H263 0.930 1_655 S
C232 N229 1.279 1_455 S
C232 C231 1.358 1_455 S
C232 H235 0.930 . S
C233 C230 1.348 . S
C233 C231 1.356 . S
H234 C228 0.930 . S
H235 C232 0.930 . S
O236 Li176 1.956 1_455 S
O236 Li177 1.970 1_455 S
O236 Li178 1.961 . S
O236 C180 1.325 . S
O237 Li176 1.970 . S
O237 Li177 1.956 . S
O237 Li179 1.961 . S
O237 C186 1.325 . S
O238 Li176 1.961 . S
O238 Li178 1.956 1_655 S
O238 Li179 1.970 . S
O238 C208 1.325 . S
O239 Li177 1.961 1_455 S
O239 Li178 1.970 . S
O239 Li179 1.956 1_455 S
O239 C214 1.325 . S
H240 C182 0.912 1_655 S
H241 C183 0.930 . S
H242 C184 0.930 . S
H243 C185 0.930 . S
H244 C187 0.930 . S
H245 C189 0.929 . S
H246 C190 0.930 . S
H247 C191 0.930 . S
H248 C194 0.930 . S
H249 C197 0.929 . S
H250 C202 0.929 . S
H251 C203 0.930 . S
H252 C210 0.934 . S
H253 C211 0.930 . S
H254 C212 0.930 . S
H255 C213 0.930 . S
H256 C215 0.929 . S
H257 C216 0.930 . S
H258 C217 0.930 . S
H259 C218 0.930 . S
H260 C222 0.929 . S
H261 C224 0.930 . S
H262 C230 0.929 . S
H263 C231 0.930 1_455 S
Li264 N281 1.990 . S
Li264 O324 1.956 1_565 S
Li264 O325 1.970 1_565 S
Li264 O326 1.961 . S
Li265 N289 1.990 . S
Li265 O324 1.970 . S
Li265 O325 1.956 . S
Li265 O327 1.961 1_545 S
Li266 N311 1.990 . S
Li266 O324 1.961 1_565 S
Li266 O326 1.956 . S
Li266 O327 1.970 . S
Li267 N317 1.990 . S
Li267 O325 1.961 1_565 S
Li267 O326 1.970 . S
Li267 O327 1.956 . S
C268 C270 1.348 . S
C268 C271 1.356 1_545 S
C268 O324 1.325 . S
N269 C272 1.314 . S
N269 C273 1.279 1_545 S
C270 C268 1.348 . S
C270 C272 1.353 . S
C270 H328 0.929 . S
C271 C268 1.356 1_565 S
C271 C273 1.358 . S
C271 H329 0.930 . S
C272 N269 1.314 . S
C272 C270 1.353 . S
C272 H330 0.930 . S
C273 N269 1.279 1_565 S
C273 C271 1.358 . S
C273 H331 0.930 . S
C274 C277 1.348 . S
C274 C278 1.356 . S
C274 O325 1.325 . S
C275 N276 1.279 . S
C275 C278 1.358 . S
C275 H332 0.930 . S
N276 C275 1.279 . S
N276 C279 1.314 . S
C277 C274 1.348 . S
C277 C279 1.353 . S
C277 H333 0.929 . S
C278 C274 1.356 . S
C278 C275 1.358 . S
C278 H334 0.930 . S
C279 N276 1.314 . S
C279 C277 1.353 . S
C279 H335 0.930 . S
C280 N281 1.314 . S
C280 C285 1.353 . S
C280 H286 0.930 . S
N281 Li264 1.990 . S
N281 C280 1.314 . S
N281 C283 1.279 1_565 S
C282 C283 1.358 . S
C282 C284 1.356 . S
C282 H336 0.930 . S
C283 N281 1.279 1_545 S
C283 C282 1.358 . S
C283 H287 0.930 . S
C284 C282 1.356 . S
C284 C285 1.348 1_545 S
C285 C280 1.353 . S
C285 C284 1.348 1_565 S
C285 H337 0.929 . S
H286 C280 0.930 . S
H287 C283 0.930 . S
C288 N289 1.314 . S
C288 C290 1.353 . S
C288 H294 0.930 . S
N289 Li265 1.990 . S
N289 C288 1.314 . S
N289 C292 1.279 . S
C290 C288 1.353 . S
C290 C293 1.348 . S
C290 H338 0.929 . S
C291 C292 1.358 . S
C291 C293 1.356 . S
C291 H339 0.930 . S
C292 N289 1.279 . S
C292 C291 1.358 . S
C292 H295 0.930 . S
C293 C290 1.348 . S
C293 C291 1.356 . S
H294 C288 0.930 . S
H295 C292 0.930 . S
C296 C298 1.348 . S
C296 C299 1.356 . S
C296 O326 1.325 . S
N297 C300 1.314 . S
N297 C301 1.279 . S
C298 C296 1.348 . S
C298 C300 1.353 . S
C298 H340 0.929 . S
C299 C296 1.356 . S
C299 C301 1.358 . S
C299 H341 0.930 . S
C300 N297 1.314 . S
C300 C298 1.353 . S
C300 H342 0.930 . S
C301 N297 1.279 . S
C301 C299 1.358 . S
C301 H343 0.930 . S
C302 C303 1.348 . S
C302 C304 1.356 1_565 S
C302 O327 1.325 . S
C303 C302 1.348 . S
C303 C305 1.353 . S
C303 H344 0.929 . S
C304 C302 1.356 1_545 S
C304 C306 1.358 . S
C304 H345 0.930 . S
C305 C303 1.353 . S
C305 N307 1.314 . S
C305 H346 0.930 . S
C306 C304 1.358 . S
C306 N307 1.279 1_545 S
C306 H347 0.930 . S
N307 C305 1.314 . S
N307 C306 1.279 1_565 S
C308 C310 1.353 . S
C308 N311 1.314 . S
C308 H314 0.930 . S
C309 N311 1.279 . S
C309 C312 1.358 . S
C309 H315 0.930 . S
C310 C308 1.353 . S
C310 C313 1.348 . S
C310 H348 0.929 . S
N311 Li266 1.990 . S
N311 C308 1.314 . S
N311 C309 1.279 . S
C312 C309 1.358 . S
C312 C313 1.356 . S
C312 H349 0.930 . S
C313 C310 1.348 . S
C313 C312 1.356 . S
H314 C308 0.930 . S
H315 C309 0.930 . S
C316 N317 1.314 . S
C316 C318 1.353 . S
C316 H322 0.930 . S
N317 Li267 1.990 . S
N317 C316 1.314 . S
N317 C320 1.279 . S
C318 C316 1.353 . S
C318 C321 1.348 . S
C318 H350 0.929 . S
C319 C320 1.358 . S
C319 C321 1.356 . S
C319 H351 0.930 . S
C320 N317 1.279 . S
C320 C319 1.358 . S
C320 H323 0.930 . S
C321 C318 1.348 . S
C321 C319 1.356 . S
H322 C316 0.930 . S
H323 C320 0.930 . S
O324 Li264 1.956 1_545 S
O324 Li265 1.970 . S
O324 Li266 1.961 1_545 S
O324 C268 1.325 . S
O325 Li264 1.970 1_545 S
O325 Li265 1.956 . S
O325 Li267 1.961 1_545 S
O325 C274 1.325 . S
O326 Li264 1.961 . S
O326 Li266 1.956 . S
O326 Li267 1.970 . S
O326 C296 1.325 . S
O327 Li265 1.961 1_565 S
O327 Li266 1.970 . S
O327 Li267 1.956 . S
O327 C302 1.325 . S
H328 C270 0.929 . S
H329 C271 0.930 . S
H330 C272 0.930 . S
H331 C273 0.930 . S
H332 C275 0.930 . S
H333 C277 0.929 . S
H334 C278 0.930 . S
H335 C279 0.930 . S
H336 C282 0.930 . S
H337 C285 0.929 . S
H338 C290 0.929 . S
H339 C291 0.930 . S
H340 C298 0.929 . S
H341 C299 0.930 . S
H342 C300 0.930 . S
H343 C301 0.930 . S
H344 C303 0.929 . S
H345 C304 0.930 . S
H346 C305 0.930 . S
H347 C306 0.930 . S
H348 C310 0.929 . S
H349 C312 0.930 . S
H350 C318 0.929 . S
H351 C319 0.930 . S
Li352 N369 1.990 . S
Li352 O412 1.956 1_455 S
Li352 O413 1.970 . S
Li352 O414 1.961 . S
Li353 N377 1.990 . S
Li353 O412 1.970 . S
Li353 O413 1.956 1_655 S
Li353 O415 1.961 . S
Li354 N399 1.990 . S
Li354 O412 1.961 1_455 S
Li354 O414 1.956 . S
Li354 O415 1.970 1_455 S
Li355 N405 1.990 . S
Li355 O413 1.961 . S
Li355 O414 1.970 . S
Li355 O415 1.956 1_455 S
C356 C358 1.348 . S
C356 C359 1.356 . S
C356 O412 1.325 . S
N357 C360 1.314 . S
N357 C361 1.279 . S
C358 C356 1.348 . S
C358 C360 1.353 . S
C358 H416 0.929 . S
C359 C356 1.356 . S
C359 C361 1.358 . S
C359 H417 0.930 . S
C360 N357 1.314 . S
C360 C358 1.353 . S
C360 H418 0.930 . S
C361 N357 1.279 . S
C361 C359 1.358 . S
C361 H419 0.930 . S
C362 C365 1.348 . S
C362 C366 1.356 . S
C362 O413 1.325 . S
C363 N364 1.279 . S
C363 C366 1.358 . S
C363 H420 0.930 . S
N364 C363 1.279 . S
N364 C367 1.314 . S
C365 C362 1.348 . S
C365 C367 1.353 . S
C365 H421 0.934 . S
C366 C362 1.356 . S
C366 C363 1.358 . S
C366 H422 0.930 . S
C367 N364 1.314 . S
C367 C365 1.353 . S
C367 H423 0.930 . S
C368 N369 1.314 . S
C368 C373 1.353 . S
C368 H374 0.930 . S
N369 Li352 1.990 . S
N369 C368 1.314 . S
N369 C371 1.279 1_455 S
C370 C371 1.358 1_455 S
C370 C372 1.356 . S
C370 H424 0.930 1_455 S
C371 N369 1.279 1_655 S
C371 C370 1.358 1_655 S
C371 H375 0.930 . S
C372 C370 1.356 . S
C372 C373 1.348 . S
C373 C368 1.353 . S
C373 C372 1.348 . S
C373 H425 0.929 . S
H374 C368 0.930 . S
H375 C371 0.930 . S
C376 N377 1.314 . S
C376 C378 1.353 . S
C376 H382 0.930 . S
N377 Li353 1.990 . S
N377 C376 1.314 . S
N377 C380 1.279 . S
C378 C376 1.353 . S
C378 C381 1.348 . S
C378 H426 0.929 . S
C379 C380 1.358 . S
C379 C381 1.356 . S
C379 H427 0.930 . S
C380 N377 1.279 . S
C380 C379 1.358 . S
C380 H383 0.930 . S
C381 C378 1.348 . S
C381 C379 1.356 . S
H382 C376 0.930 . S
H383 C380 0.930 . S
C384 C386 1.348 . S
C384 C387 1.356 . S
C384 O414 1.325 . S
N385 C388 1.314 . S
N385 C389 1.279 . S
C386 C384 1.348 . S
C386 C388 1.353 . S
C386 H428 0.929 . S
C387 C384 1.356 . S
C387 C389 1.358 . S
C387 H429 0.930 . S
C388 N385 1.314 . S
C388 C386 1.353 . S
C388 H430 0.930 . S
C389 N385 1.279 . S
C389 C387 1.358 . S
C389 H431 0.930 . S
C390 C391 1.358 . S
C390 C392 1.356 . S
C390 O415 1.325 . S
C391 C390 1.358 . S
C391 C393 1.363 . S
C391 H432 0.912 1_655 S
C392 C390 1.356 . S
C392 C394 1.358 . S
C392 H433 0.930 . S
C393 C391 1.363 . S
C393 N395 1.314 . S
C393 H434 0.930 . S
C394 C392 1.358 . S
C394 N395 1.279 . S
C394 H435 0.930 . S
N395 C393 1.314 . S
N395 C394 1.279 . S
C396 C398 1.353 . S
C396 N399 1.314 1_655 S
C396 H402 0.930 . S
C397 N399 1.279 . S
C397 C400 1.358 . S
C397 H403 0.930 . S
C398 C396 1.353 . S
C398 C401 1.348 . S
C398 H436 0.929 . S
N399 Li354 1.990 . S
N399 C396 1.314 1_455 S
N399 C397 1.279 . S
C400 C397 1.358 . S
C400 C401 1.356 1_455 S
C400 H437 0.930 . S
C401 C398 1.348 . S
C401 C400 1.356 1_655 S
H402 C396 0.930 . S
H403 C397 0.930 . S
C404 N405 1.314 . S
C404 C406 1.353 . S
C404 H410 0.930 . S
N405 Li355 1.990 . S
N405 C404 1.314 . S
N405 C408 1.279 . S
C406 C404 1.353 . S
C406 C409 1.348 . S
C406 H438 0.929 . S
C407 C408 1.358 . S
C407 C409 1.356 . S
C407 H439 0.930 . S
C408 N405 1.279 . S
C408 C407 1.358 . S
C408 H411 0.930 . S
C409 C406 1.348 . S
C409 C407 1.356 . S
H410 C404 0.930 . S
H411 C408 0.930 . S
O412 Li352 1.956 1_655 S
O412 Li353 1.970 . S
O412 Li354 1.961 1_655 S
O412 C356 1.325 . S
O413 Li352 1.970 . S
O413 Li353 1.956 1_455 S
O413 Li355 1.961 . S
O413 C362 1.325 . S
O414 Li352 1.961 . S
O414 Li354 1.956 . S
O414 Li355 1.970 . S
O414 C384 1.325 . S
O415 Li353 1.961 . S
O415 Li354 1.970 1_655 S
O415 Li355 1.956 1_655 S
O415 C390 1.325 . S
H416 C358 0.929 . S
H417 C359 0.930 . S
H418 C360 0.930 . S
H419 C361 0.930 . S
H420 C363 0.930 . S
H421 C365 0.934 . S
H422 C366 0.930 . S
H423 C367 0.930 . S
H424 C370 0.930 1_655 S
H425 C373 0.929 . S
H426 C378 0.929 . S
H427 C379 0.930 . S
H428 C386 0.929 . S
H429 C387 0.930 . S
H430 C388 0.930 . S
H431 C389 0.930 . S
H432 C391 0.912 1_455 S
H433 C392 0.930 . S
H434 C393 0.930 . S
H435 C394 0.930 . S
H436 C398 0.929 . S
H437 C400 0.930 . S
H438 C406 0.929 . S
H439 C407 0.930 . S
Li440 N457 1.990 . S
Li440 O500 1.956 . S
Li440 O501 1.970 . S
Li440 O502 1.961 1_545 S
Li441 N465 1.990 . S
Li441 O500 1.970 . S
Li441 O501 1.956 . S
Li441 O503 1.961 1_545 S
Li442 N487 1.990 . S
Li442 O500 1.961 . S
Li442 O502 1.956 1_545 S
Li442 O503 1.970 1_545 S
Li443 N493 1.990 . S
Li443 O501 1.961 1_565 S
Li443 O502 1.970 . S
Li443 O503 1.956 . S
C444 C446 1.348 . S
C444 C447 1.356 . S
C444 O500 1.325 . S
N445 C448 1.314 . S
N445 C449 1.279 . S
C446 C444 1.348 . S
C446 C448 1.353 . S
C446 H504 0.929 . S
C447 C444 1.356 . S
C447 C449 1.358 . S
C447 H505 0.930 . S
C448 N445 1.314 . S
C448 C446 1.353 . S
C448 H506 0.930 . S
C449 N445 1.279 . S
C449 C447 1.358 . S
C449 H507 0.930 . S
C450 C453 1.348 . S
C450 C454 1.356 1_545 S
C450 O501 1.325 . S
C451 N452 1.279 1_565 S
C451 C454 1.358 . S
C451 H508 0.930 . S
N452 C451 1.279 1_545 S
N452 C455 1.314 . S
C453 C450 1.348 . S
C453 C455 1.353 . S
C453 H509 0.929 . S
C454 C450 1.356 1_565 S
C454 C451 1.358 . S
C454 H510 0.930 . S
C455 N452 1.314 . S
C455 C453 1.353 . S
C455 H511 0.930 . S
C456 N457 1.314 . S
C456 C461 1.353 . S
C456 H462 0.930 . S
N457 Li440 1.990 . S
N457 C456 1.314 . S
N457 C459 1.279 . S
C458 C459 1.358 . S
C458 C460 1.356 . S
C458 H512 0.930 . S
C459 N457 1.279 . S
C459 C458 1.358 . S
C459 H463 0.930 . S
C460 C458 1.356 . S
C460 C461 1.348 . S
C461 C456 1.353 . S
C461 C460 1.348 . S
C461 H513 0.929 . S
H462 C456 0.930 . S
H463 C459 0.930 . S
C464 N465 1.314 . S
C464 C466 1.353 . S
C464 H470 0.930 . S
N465 Li441 1.990 . S
N465 C464 1.314 . S
N465 C468 1.279 . S
C466 C464 1.353 . S
C466 C469 1.348 . S
C466 H514 0.929 . S
C467 C468 1.358 . S
C467 C469 1.356 . S
C467 H515 0.930 . S
C468 N465 1.279 . S
C468 C467 1.358 . S
C468 H471 0.930 . S
C469 C466 1.348 . S
C469 C467 1.356 . S
H470 C464 0.930 . S
H471 C468 0.930 . S
C472 C474 1.348 . S
C472 C475 1.356 1_565 S
C472 O502 1.325 . S
N473 C476 1.314 . S
N473 C477 1.279 1_565 S
C474 C472 1.348 . S
C474 C476 1.353 . S
C474 H516 0.929 . S
C475 C472 1.356 1_545 S
C475 C477 1.358 . S
C475 H517 0.930 . S
C476 N473 1.314 . S
C476 C474 1.353 . S
C476 H518 0.930 . S
C477 N473 1.279 1_545 S
C477 C475 1.358 . S
C477 H519 0.930 . S
C478 C479 1.348 . S
C478 C480 1.356 . S
C478 O503 1.325 . S
C479 C478 1.348 . S
C479 C481 1.353 . S
C479 H520 0.929 . S
C480 C478 1.356 . S
C480 C482 1.358 . S
C480 H521 0.930 . S
C481 C479 1.353 . S
C481 N483 1.314 . S
C481 H522 0.930 . S
C482 C480 1.358 . S
C482 N483 1.279 . S
C482 H523 0.930 . S
N483 C481 1.314 . S
N483 C482 1.279 . S
C484 C486 1.353 . S
C484 N487 1.314 . S
C484 H490 0.930 . S
C485 N487 1.279 1_565 S
C485 C488 1.358 . S
C485 H491 0.930 . S
C486 C484 1.353 . S
C486 C489 1.348 1_545 S
C486 H524 0.929 . S
N487 Li442 1.990 . S
N487 C484 1.314 . S
N487 C485 1.279 1_545 S
C488 C485 1.358 . S
C488 C489 1.356 . S
C488 H525 0.930 . S
C489 C486 1.348 1_565 S
C489 C488 1.356 . S
H490 C484 0.930 . S
H491 C485 0.930 . S
C492 N493 1.314 . S
C492 C494 1.353 . S
C492 H498 0.930 . S
N493 Li443 1.990 . S
N493 C492 1.314 . S
N493 C496 1.279 . S
C494 C492 1.353 . S
C494 C497 1.348 . S
C494 H526 0.929 . S
C495 C496 1.358 . S
C495 C497 1.356 . S
C495 H527 0.930 . S
C496 N493 1.279 . S
C496 C495 1.358 . S
C496 H499 0.930 . S
C497 C494 1.348 . S
C497 C495 1.356 . S
H498 C492 0.930 . S
H499 C496 0.930 . S
O500 Li440 1.956 . S
O500 Li441 1.970 . S
O500 Li442 1.961 . S
O500 C444 1.325 . S
O501 Li440 1.970 . S
O501 Li441 1.956 . S
O501 Li443 1.961 1_545 S
O501 C450 1.325 . S
O502 Li440 1.961 1_565 S
O502 Li442 1.956 1_565 S
O502 Li443 1.970 . S
O502 C472 1.325 . S
O503 Li441 1.961 1_565 S
O503 Li442 1.970 1_565 S
O503 Li443 1.956 . S
O503 C478 1.325 . S
H504 C446 0.929 . S
H505 C447 0.930 . S
H506 C448 0.930 . S
H507 C449 0.930 . S
H508 C451 0.930 . S
H509 C453 0.929 . S
H510 C454 0.930 . S
H511 C455 0.930 . S
H512 C458 0.930 . S
H513 C461 0.929 . S
H514 C466 0.929 . S
H515 C467 0.930 . S
H516 C474 0.929 . S
H517 C475 0.930 . S
H518 C476 0.930 . S
H519 C477 0.930 . S
H520 C479 0.929 . S
H521 C480 0.930 . S
H522 C481 0.930 . S
H523 C482 0.930 . S
H524 C486 0.929 . S
H525 C488 0.930 . S
H526 C494 0.929 . S
H527 C495 0.930 . S
Li528 N545 1.990 . S
Li528 O588 1.956 1_655 S
Li528 O589 1.970 . S
Li528 O590 1.961 . S
Li529 N553 1.990 . S
Li529 O588 1.970 . S
Li529 O589 1.956 1_455 S
Li529 O591 1.961 . S
Li530 N575 1.990 . S
Li530 O588 1.961 1_655 S
Li530 O590 1.956 . S
Li530 O591 1.970 1_655 S
Li531 N581 1.990 . S
Li531 O589 1.961 . S
Li531 O590 1.970 . S
Li531 O591 1.956 1_655 S
C532 C534 1.348 . S
C532 C535 1.356 . S
C532 O588 1.325 . S
N533 C536 1.314 . S
N533 C537 1.279 . S
C534 C532 1.348 . S
C534 C536 1.353 . S
C534 H592 0.929 . S
C535 C532 1.356 . S
C535 C537 1.358 . S
C535 H593 0.930 . S
C536 N533 1.314 . S
C536 C534 1.353 . S
C536 H594 0.930 . S
C537 N533 1.279 . S
C537 C535 1.358 . S
C537 H595 0.930 . S
C538 C541 1.348 . S
C538 C542 1.356 . S
C538 O589 1.325 . S
C539 N540 1.279 . S
C539 C542 1.358 . S
C539 H596 0.930 . S
N540 C539 1.279 . S
N540 C543 1.314 . S
C541 C538 1.348 . S
C541 C543 1.353 . S
C541 H597 0.934 . S
C542 C538 1.356 . S
C542 C539 1.358 . S
C542 H598 0.930 . S
C543 N540 1.314 . S
C543 C541 1.353 . S
C543 H599 0.930 . S
C544 N545 1.314 . S
C544 C549 1.353 . S
C544 H550 0.930 . S
N545 Li528 1.990 . S
N545 C544 1.314 . S
N545 C547 1.279 1_655 S
C546 C547 1.358 1_655 S
C546 C548 1.356 . S
C546 H600 0.930 1_655 S
C547 N545 1.279 1_455 S
C547 C546 1.358 1_455 S
C547 H551 0.930 . S
C548 C546 1.356 . S
C548 C549 1.348 . S
C549 C544 1.353 . S
C549 C548 1.348 . S
C549 H601 0.929 . S
H550 C544 0.930 . S
H551 C547 0.930 . S
C552 N553 1.314 . S
C552 C554 1.353 . S
C552 H558 0.930 . S
N553 Li529 1.990 . S
N553 C552 1.314 . S
N553 C556 1.279 . S
C554 C552 1.353 . S
C554 C557 1.348 . S
C554 H602 0.929 . S
C555 C556 1.358 . S
C555 C557 1.356 . S
C555 H603 0.930 . S
C556 N553 1.279 . S
C556 C555 1.358 . S
C556 H559 0.930 . S
C557 C554 1.348 . S
C557 C555 1.356 . S
H558 C552 0.930 . S
H559 C556 0.930 . S
C560 C562 1.348 . S
C560 C563 1.356 . S
C560 O590 1.325 . S
N561 C564 1.314 . S
N561 C565 1.279 . S
C562 C560 1.348 . S
C562 C564 1.353 . S
C562 H604 0.929 . S
C563 C560 1.356 . S
C563 C565 1.358 . S
C563 H605 0.930 . S
C564 N561 1.314 . S
C564 C562 1.353 . S
C564 H606 0.930 . S
C565 N561 1.279 . S
C565 C563 1.358 . S
C565 H607 0.930 . S
C566 C567 1.358 . S
C566 C568 1.356 . S
C566 O591 1.325 . S
C567 C566 1.358 . S
C567 C569 1.363 . S
C567 H608 0.912 1_455 S
C568 C566 1.356 . S
C568 C570 1.358 . S
C568 H609 0.930 . S
C569 C567 1.363 . S
C569 N571 1.314 . S
C569 H610 0.930 . S
C570 C568 1.358 . S
C570 N571 1.279 . S
C570 H611 0.930 . S
N571 C569 1.314 . S
N571 C570 1.279 . S
C572 C574 1.353 . S
C572 N575 1.314 1_455 S
C572 H578 0.930 . S
C573 N575 1.279 . S
C573 C576 1.358 . S
C573 H579 0.930 . S
C574 C572 1.353 . S
C574 C577 1.348 . S
C574 H612 0.929 . S
N575 Li530 1.990 . S
N575 C572 1.314 1_655 S
N575 C573 1.279 . S
C576 C573 1.358 . S
C576 C577 1.356 1_655 S
C576 H613 0.930 . S
C577 C574 1.348 . S
C577 C576 1.356 1_455 S
H578 C572 0.930 . S
H579 C573 0.930 . S
C580 N581 1.314 . S
C580 C582 1.353 . S
C580 H586 0.930 . S
N581 Li531 1.990 . S
N581 C580 1.314 . S
N581 C584 1.279 . S
C582 C580 1.353 . S
C582 C585 1.348 . S
C582 H614 0.929 . S
C583 C584 1.358 . S
C583 C585 1.356 . S
C583 H615 0.930 . S
C584 N581 1.279 . S
C584 C583 1.358 . S
C584 H587 0.930 . S
C585 C582 1.348 . S
C585 C583 1.356 . S
H586 C580 0.930 . S
H587 C584 0.930 . S
O588 Li528 1.956 1_455 S
O588 Li529 1.970 . S
O588 Li530 1.961 1_455 S
O588 C532 1.325 . S
O589 Li528 1.970 . S
O589 Li529 1.956 1_655 S
O589 Li531 1.961 . S
O589 C538 1.325 . S
O590 Li528 1.961 . S
O590 Li530 1.956 . S
O590 Li531 1.970 . S
O590 C560 1.325 . S
O591 Li529 1.961 . S
O591 Li530 1.970 1_455 S
O591 Li531 1.956 1_455 S
O591 C566 1.325 . S
H592 C534 0.929 . S
H593 C535 0.930 . S
H594 C536 0.930 . S
H595 C537 0.930 . S
H596 C539 0.930 . S
H597 C541 0.934 . S
H598 C542 0.930 . S
H599 C543 0.930 . S
H600 C546 0.930 1_455 S
H601 C549 0.929 . S
H602 C554 0.929 . S
H603 C555 0.930 . S
H604 C562 0.929 . S
H605 C563 0.930 . S
H606 C564 0.930 . S
H607 C565 0.930 . S
H608 C567 0.912 1_655 S
H609 C568 0.930 . S
H610 C569 0.930 . S
H611 C570 0.930 . S
H612 C574 0.929 . S
H613 C576 0.930 . S
H614 C582 0.929 . S
H615 C583 0.930 . S
Li616 N633 1.990 . S
Li616 O676 1.956 . S
Li616 O677 1.970 . S
Li616 O678 1.961 1_545 S
Li617 N641 1.990 . S
Li617 O676 1.970 1_565 S
Li617 O677 1.956 1_565 S
Li617 O679 1.961 . S
Li618 N663 1.990 . S
Li618 O676 1.961 1_565 S
Li618 O678 1.956 . S
Li618 O679 1.970 . S
Li619 N669 1.990 . S
Li619 O677 1.961 1_565 S
Li619 O678 1.970 . S
Li619 O679 1.956 . S
C620 C622 1.348 . S
C620 C623 1.356 . S
C620 O676 1.325 . S
N621 C624 1.314 . S
N621 C625 1.279 . S
C622 C620 1.348 . S
C622 C624 1.353 . S
C622 H680 0.929 . S
C623 C620 1.356 . S
C623 C625 1.358 . S
C623 H681 0.930 . S
C624 N621 1.314 . S
C624 C622 1.353 . S
C624 H682 0.930 . S
C625 N621 1.279 . S
C625 C623 1.358 . S
C625 H683 0.930 . S
C626 C629 1.348 . S
C626 C630 1.356 1_545 S
C626 O677 1.325 . S
C627 N628 1.279 1_565 S
C627 C630 1.358 . S
C627 H684 0.930 . S
N628 C627 1.279 1_545 S
N628 C631 1.314 . S
C629 C626 1.348 . S
C629 C631 1.353 . S
C629 H685 0.929 . S
C630 C626 1.356 1_565 S
C630 C627 1.358 . S
C630 H686 0.930 . S
C631 N628 1.314 . S
C631 C629 1.353 . S
C631 H687 0.930 . S
C632 N633 1.314 . S
C632 C637 1.353 . S
C632 H638 0.930 . S
N633 Li616 1.990 . S
N633 C632 1.314 . S
N633 C635 1.279 . S
C634 C635 1.358 . S
C634 C636 1.356 . S
C634 H688 0.930 . S
C635 N633 1.279 . S
C635 C634 1.358 . S
C635 H639 0.930 . S
C636 C634 1.356 . S
C636 C637 1.348 . S
C637 C632 1.353 . S
C637 C636 1.348 . S
C637 H689 0.929 . S
H638 C632 0.930 . S
H639 C635 0.930 . S
C640 N641 1.314 . S
C640 C642 1.353 . S
C640 H646 0.930 . S
N641 Li617 1.990 . S
N641 C640 1.314 . S
N641 C644 1.279 1_565 S
C642 C640 1.353 . S
C642 C645 1.348 1_565 S
C642 H690 0.929 . S
C643 C644 1.358 . S
C643 C645 1.356 . S
C643 H691 0.930 . S
C644 N641 1.279 1_545 S
C644 C643 1.358 . S
C644 H647 0.930 . S
C645 C642 1.348 1_545 S
C645 C643 1.356 . S
H646 C640 0.930 . S
H647 C644 0.930 . S
C648 C650 1.348 . S
C648 C651 1.356 1_565 S
C648 O678 1.325 . S
N649 C652 1.314 . S
N649 C653 1.279 1_565 S
C650 C648 1.348 . S
C650 C652 1.353 . S
C650 H692 0.929 . S
C651 C648 1.356 1_545 S
C651 C653 1.358 . S
C651 H693 0.930 . S
C652 N649 1.314 . S
C652 C650 1.353 . S
C652 H694 0.930 . S
C653 N649 1.279 1_545 S
C653 C651 1.358 . S
C653 H695 0.930 . S
C654 C655 1.348 . S
C654 C656 1.356 . S
C654 O679 1.325 . S
C655 C654 1.348 . S
C655 C657 1.353 . S
C655 H696 0.929 . S
C656 C654 1.356 . S
C656 C658 1.358 . S
C656 H697 0.930 . S
C657 C655 1.353 . S
C657 N659 1.314 . S
C657 H698 0.930 . S
C658 C656 1.358 . S
C658 N659 1.279 . S
C658 H699 0.930 . S
N659 C657 1.314 . S
N659 C658 1.279 . S
C660 C662 1.353 . S
C660 N663 1.314 . S
C660 H666 0.930 . S
C661 N663 1.279 . S
C661 C664 1.358 . S
C661 H667 0.930 . S
C662 C660 1.353 . S
C662 C665 1.348 . S
C662 H700 0.929 . S
N663 Li618 1.990 . S
N663 C660 1.314 . S
N663 C661 1.279 . S
C664 C661 1.358 . S
C664 C665 1.356 . S
C664 H701 0.930 . S
C665 C662 1.348 . S
C665 C664 1.356 . S
H666 C660 0.930 . S
H667 C661 0.930 . S
C668 N669 1.314 . S
C668 C670 1.353 . S
C668 H674 0.930 . S
N669 Li619 1.990 . S
N669 C668 1.314 . S
N669 C672 1.279 . S
C670 C668 1.353 . S
C670 C673 1.348 . S
C670 H702 0.929 . S
C671 C672 1.358 . S
C671 C673 1.356 . S
C671 H703 0.930 . S
C672 N669 1.279 . S
C672 C671 1.358 . S
C672 H675 0.930 . S
C673 C670 1.348 . S
C673 C671 1.356 . S
H674 C668 0.930 . S
H675 C672 0.930 . S
O676 Li616 1.956 . S
O676 Li617 1.970 1_545 S
O676 Li618 1.961 1_545 S
O676 C620 1.325 . S
O677 Li616 1.970 . S
O677 Li617 1.956 1_545 S
O677 Li619 1.961 1_545 S
O677 C626 1.325 . S
O678 Li616 1.961 1_565 S
O678 Li618 1.956 . S
O678 Li619 1.970 . S
O678 C648 1.325 . S
O679 Li617 1.961 . S
O679 Li618 1.970 . S
O679 Li619 1.956 . S
O679 C654 1.325 . S
H680 C622 0.929 . S
H681 C623 0.930 . S
H682 C624 0.930 . S
H683 C625 0.930 . S
H684 C627 0.930 . S
H685 C629 0.929 . S
H686 C630 0.930 . S
H687 C631 0.930 . S
H688 C634 0.930 . S
H689 C637 0.929 . S
H690 C642 0.929 . S
H691 C643 0.930 . S
H692 C650 0.929 . S
H693 C651 0.930 . S
H694 C652 0.930 . S
H695 C653 0.930 . S
H696 C655 0.929 . S
H697 C656 0.930 . S
H698 C657 0.930 . S
H699 C658 0.930 . S
H700 C662 0.929 . S
H701 C664 0.930 . S
H702 C670 0.929 . S
H703 C671 0.930 . S
Li704 N721 1.990 . S
Li704 O764 1.956 . S
Li704 O765 1.970 . S
Li704 O766 1.961 . S
Li705 N729 1.990 . S
Li705 O764 1.970 . S
Li705 O765 1.956 . S
Li705 O767 1.961 . S
Li706 N751 1.990 . S
Li706 O764 1.961 . S
Li706 O766 1.956 . S
Li706 O767 1.970 . S
Li707 N757 1.990 . S
Li707 O765 1.961 . S
Li707 O766 1.970 . S
Li707 O767 1.956 . S
C708 C710 1.348 . S
C708 C711 1.356 . S
C708 O764 1.325 . S
N709 C712 1.314 . S
N709 C713 1.279 . S
C710 C708 1.348 . S
C710 C712 1.353 . S
C710 H768 0.929 . S
C711 C708 1.356 . S
C711 C713 1.358 . S
C711 H769 0.930 . S
C712 N709 1.314 . S
C712 C710 1.353 . S
C712 H770 0.930 . S
C713 N709 1.279 . S
C713 C711 1.358 . S
C713 H771 0.930 . S
C714 C717 1.348 . S
C714 C718 1.356 . S
C714 O765 1.325 . S
C715 N716 1.279 . S
C715 C718 1.358 . S
C715 H772 0.930 . S
N716 C715 1.279 . S
N716 C719 1.314 . S
C717 C714 1.348 . S
C717 C719 1.353 . S
C717 H773 0.929 . S
C718 C714 1.356 . S
C718 C715 1.358 . S
C718 H774 0.930 . S
C719 N716 1.314 . S
C719 C717 1.353 . S
C719 H775 0.930 . S
C720 N721 1.314 . S
C720 C725 1.353 . S
C720 H726 0.930 . S
N721 Li704 1.990 . S
N721 C720 1.314 . S
N721 C723 1.279 . S
C722 C723 1.358 . S
C722 C724 1.356 . S
C722 H776 0.930 . S
C723 N721 1.279 . S
C723 C722 1.358 . S
C723 H727 0.930 . S
C724 C722 1.356 . S
C724 C725 1.348 . S
C725 C720 1.353 . S
C725 C724 1.348 . S
C725 H777 0.929 . S
H726 C720 0.930 . S
H727 C723 0.930 . S
C728 N729 1.314 . S
C728 C730 1.353 . S
C728 H734 0.930 . S
N729 Li705 1.990 . S
N729 C728 1.314 . S
N729 C732 1.279 . S
C730 C728 1.353 . S
C730 C733 1.348 . S
C730 H778 0.929 . S
C731 C732 1.358 . S
C731 C733 1.356 . S
C731 H779 0.930 . S
C732 N729 1.279 . S
C732 C731 1.358 . S
C732 H735 0.930 . S
C733 C730 1.348 . S
C733 C731 1.356 . S
H734 C728 0.930 . S
H735 C732 0.930 . S
C736 C738 1.348 . S
C736 C739 1.356 . S
C736 O766 1.325 . S
N737 C740 1.314 . S
N737 C741 1.279 . S
C738 C736 1.348 . S
C738 C740 1.353 . S
C738 H780 0.929 . S
C739 C736 1.356 . S
C739 C741 1.358 . S
C739 H781 0.930 . S
C740 N737 1.314 . S
C740 C738 1.353 . S
C740 H782 0.930 . S
C741 N737 1.279 . S
C741 C739 1.358 . S
C741 H783 0.930 . S
C742 C743 1.348 . S
C742 C744 1.356 . S
C742 O767 1.325 . S
C743 C742 1.348 . S
C743 C745 1.353 . S
C743 H784 0.929 . S
C744 C742 1.356 . S
C744 C746 1.358 . S
C744 H785 0.930 . S
C745 C743 1.353 . S
C745 N747 1.314 . S
C745 H786 0.930 . S
C746 C744 1.358 . S
C746 N747 1.279 . S
C746 H787 0.930 . S
N747 C745 1.314 . S
N747 C746 1.279 . S
C748 C750 1.353 . S
C748 N751 1.314 . S
C748 H754 0.930 . S
C749 N751 1.279 . S
C749 C752 1.358 . S
C749 H755 0.930 . S
C750 C748 1.353 . S
C750 C753 1.348 . S
C750 H788 0.929 . S
N751 Li706 1.990 . S
N751 C748 1.314 . S
N751 C749 1.279 . S
C752 C749 1.358 . S
C752 C753 1.356 . S
C752 H789 0.930 . S
C753 C750 1.348 . S
C753 C752 1.356 . S
H754 C748 0.930 . S
H755 C749 0.930 . S
C756 N757 1.314 . S
C756 C758 1.353 . S
C756 H762 0.930 . S
N757 Li707 1.990 . S
N757 C756 1.314 . S
N757 C760 1.279 . S
C758 C756 1.353 . S
C758 C761 1.348 . S
C758 H790 0.929 . S
C759 C760 1.358 . S
C759 C761 1.356 . S
C759 H791 0.930 . S
C760 N757 1.279 . S
C760 C759 1.358 . S
C760 H763 0.930 . S
C761 C758 1.348 . S
C761 C759 1.356 . S
H762 C756 0.930 . S
H763 C760 0.930 . S
O764 Li704 1.956 . S
O764 Li705 1.970 . S
O764 Li706 1.961 . S
O764 C708 1.325 . S
O765 Li704 1.970 . S
O765 Li705 1.956 . S
O765 Li707 1.961 . S
O765 C714 1.325 . S
O766 Li704 1.961 . S
O766 Li706 1.956 . S
O766 Li707 1.970 . S
O766 C736 1.325 . S
O767 Li705 1.961 . S
O767 Li706 1.970 . S
O767 Li707 1.956 . S
O767 C742 1.325 . S
H768 C710 0.929 . S
H769 C711 0.930 . S
H770 C712 0.930 . S
H771 C713 0.930 . S
H772 C715 0.930 . S
H773 C717 0.929 . S
H774 C718 0.930 . S
H775 C719 0.930 . S
H776 C722 0.930 . S
H777 C725 0.929 . S
H778 C730 0.929 . S
H779 C731 0.930 . S
H780 C738 0.929 . S
H781 C739 0.930 . S
H782 C740 0.930 . S
H783 C741 0.930 . S
H784 C743 0.929 . S
H785 C744 0.930 . S
H786 C745 0.930 . S
H787 C746 0.930 . S
H788 C750 0.929 . S
H789 C752 0.930 . S
H790 C758 0.929 . S
H791 C759 0.930 . S
Li792 N809 1.990 . S
Li792 O852 1.956 . S
Li792 O853 1.970 . S
Li792 O854 1.961 . S
Li793 N817 1.990 . S
Li793 O852 1.970 . S
Li793 O853 1.956 . S
Li793 O855 1.961 . S
Li794 N839 1.990 . S
Li794 O852 1.961 . S
Li794 O854 1.956 . S
Li794 O855 1.970 . S
Li795 N845 1.990 . S
Li795 O853 1.961 . S
Li795 O854 1.970 . S
Li795 O855 1.956 . S
C796 C798 1.348 . S
C796 C799 1.356 . S
C796 O852 1.325 . S
N797 C800 1.314 . S
N797 C801 1.279 . S
C798 C796 1.348 . S
C798 C800 1.353 . S
C798 H856 0.929 . S
C799 C796 1.356 . S
C799 C801 1.358 . S
C799 H857 0.930 . S
C800 N797 1.314 . S
C800 C798 1.353 . S
C800 H858 0.930 . S
C801 N797 1.279 . S
C801 C799 1.358 . S
C801 H859 0.930 . S
C802 C805 1.348 . S
C802 C806 1.356 . S
C802 O853 1.325 . S
C803 N804 1.279 . S
C803 C806 1.358 . S
C803 H860 0.930 . S
N804 C803 1.279 . S
N804 C807 1.314 . S
C805 C802 1.348 . S
C805 C807 1.353 . S
C805 H861 0.929 . S
C806 C802 1.356 . S
C806 C803 1.358 . S
C806 H862 0.930 . S
C807 N804 1.314 . S
C807 C805 1.353 . S
C807 H863 0.930 . S
C808 N809 1.314 . S
C808 C813 1.353 . S
C808 H814 0.930 . S
N809 Li792 1.990 . S
N809 C808 1.314 . S
N809 C811 1.279 . S
C810 C811 1.358 . S
C810 C812 1.356 . S
C810 H864 0.930 . S
C811 N809 1.279 . S
C811 C810 1.358 . S
C811 H815 0.930 . S
C812 C810 1.356 . S
C812 C813 1.348 . S
C813 C808 1.353 . S
C813 C812 1.348 . S
C813 H865 0.929 . S
H814 C808 0.930 . S
H815 C811 0.930 . S
C816 N817 1.314 . S
C816 C818 1.353 . S
C816 H822 0.930 . S
N817 Li793 1.990 . S
N817 C816 1.314 . S
N817 C820 1.279 . S
C818 C816 1.353 . S
C818 C821 1.348 . S
C818 H866 0.929 . S
C819 C820 1.358 . S
C819 C821 1.356 . S
C819 H867 0.930 . S
C820 N817 1.279 . S
C820 C819 1.358 . S
C820 H823 0.930 . S
C821 C818 1.348 . S
C821 C819 1.356 . S
H822 C816 0.930 . S
H823 C820 0.930 . S
C824 C826 1.348 . S
C824 C827 1.356 . S
C824 O854 1.325 . S
N825 C828 1.314 . S
N825 C829 1.279 . S
C826 C824 1.348 . S
C826 C828 1.353 . S
C826 H868 0.929 . S
C827 C824 1.356 . S
C827 C829 1.358 . S
C827 H869 0.930 . S
C828 N825 1.314 . S
C828 C826 1.353 . S
C828 H870 0.930 . S
C829 N825 1.279 . S
C829 C827 1.358 . S
C829 H871 0.930 . S
C830 C831 1.348 . S
C830 C832 1.356 . S
C830 O855 1.325 . S
C831 C830 1.348 . S
C831 C833 1.353 . S
C831 H872 0.929 . S
C832 C830 1.356 . S
C832 C834 1.358 . S
C832 H873 0.930 . S
C833 C831 1.353 . S
C833 N835 1.314 . S
C833 H874 0.930 . S
C834 C832 1.358 . S
C834 N835 1.279 . S
C834 H875 0.930 . S
N835 C833 1.314 . S
N835 C834 1.279 . S
C836 C838 1.353 . S
C836 N839 1.314 . S
C836 H842 0.930 . S
C837 N839 1.279 . S
C837 C840 1.358 . S
C837 H843 0.930 . S
C838 C836 1.353 . S
C838 C841 1.348 . S
C838 H876 0.929 . S
N839 Li794 1.990 . S
N839 C836 1.314 . S
N839 C837 1.279 . S
C840 C837 1.358 . S
C840 C841 1.356 . S
C840 H877 0.930 . S
C841 C838 1.348 . S
C841 C840 1.356 . S
H842 C836 0.930 . S
H843 C837 0.930 . S
C844 N845 1.314 . S
C844 C846 1.353 . S
C844 H850 0.930 . S
N845 Li795 1.990 . S
N845 C844 1.314 . S
N845 C848 1.279 . S
C846 C844 1.353 . S
C846 C849 1.348 . S
C846 H878 0.929 . S
C847 C848 1.358 . S
C847 C849 1.356 . S
C847 H879 0.930 . S
C848 N845 1.279 . S
C848 C847 1.358 . S
C848 H851 0.930 . S
C849 C846 1.348 . S
C849 C847 1.356 . S
H850 C844 0.930 . S
H851 C848 0.930 . S
O852 Li792 1.956 . S
O852 Li793 1.970 . S
O852 Li794 1.961 . S
O852 C796 1.325 . S
O853 Li792 1.970 . S
O853 Li793 1.956 . S
O853 Li795 1.961 . S
O853 C802 1.325 . S
O854 Li792 1.961 . S
O854 Li794 1.956 . S
O854 Li795 1.970 . S
O854 C824 1.325 . S
O855 Li793 1.961 . S
O855 Li794 1.970 . S
O855 Li795 1.956 . S
O855 C830 1.325 . S
H856 C798 0.929 . S
H857 C799 0.930 . S
H858 C800 0.930 . S
H859 C801 0.930 . S
H860 C803 0.930 . S
H861 C805 0.929 . S
H862 C806 0.930 . S
H863 C807 0.930 . S
H864 C810 0.930 . S
H865 C813 0.929 . S
H866 C818 0.929 . S
H867 C819 0.930 . S
H868 C826 0.929 . S
H869 C827 0.930 . S
H870 C828 0.930 . S
H871 C829 0.930 . S
H872 C831 0.929 . S
H873 C832 0.930 . S
H874 C833 0.930 . S
H875 C834 0.930 . S
H876 C838 0.929 . S
H877 C840 0.930 . S
H878 C846 0.929 . S
H879 C847 0.930 . S
Li880 N897 1.990 . S
Li880 O940 1.956 . S
Li880 O941 1.970 . S
Li880 O942 1.961 . S
Li881 N905 1.990 . S
Li881 O940 1.970 . S
Li881 O941 1.956 . S
Li881 O943 1.961 . S
Li882 N927 1.990 . S
Li882 O940 1.961 . S
Li882 O942 1.956 . S
Li882 O943 1.970 . S
Li883 N933 1.990 . S
Li883 O941 1.961 . S
Li883 O942 1.970 . S
Li883 O943 1.956 . S
C884 C886 1.348 . S
C884 C887 1.356 . S
C884 O940 1.325 . S
N885 C888 1.314 . S
N885 C889 1.279 . S
C886 C884 1.348 . S
C886 C888 1.353 . S
C886 H944 0.929 . S
C887 C884 1.356 . S
C887 C889 1.358 . S
C887 H945 0.930 . S
C888 N885 1.314 . S
C888 C886 1.353 . S
C888 H946 0.930 . S
C889 N885 1.279 . S
C889 C887 1.358 . S
C889 H947 0.930 . S
C890 C893 1.348 . S
C890 C894 1.356 . S
C890 O941 1.325 . S
C891 N892 1.279 . S
C891 C894 1.358 . S
C891 H948 0.930 . S
N892 C891 1.279 . S
N892 C895 1.314 . S
C893 C890 1.348 . S
C893 C895 1.353 . S
C893 H949 0.929 . S
C894 C890 1.356 . S
C894 C891 1.358 . S
C894 H950 0.930 . S
C895 N892 1.314 . S
C895 C893 1.353 . S
C895 H951 0.930 . S
C896 N897 1.314 . S
C896 C901 1.353 . S
C896 H902 0.930 . S
N897 Li880 1.990 . S
N897 C896 1.314 . S
N897 C899 1.279 . S
C898 C899 1.358 . S
C898 C900 1.356 . S
C898 H952 0.930 . S
C899 N897 1.279 . S
C899 C898 1.358 . S
C899 H903 0.930 . S
C900 C898 1.356 . S
C900 C901 1.348 . S
C901 C896 1.353 . S
C901 C900 1.348 . S
C901 H953 0.929 . S
H902 C896 0.930 . S
H903 C899 0.930 . S
C904 N905 1.314 . S
C904 C906 1.353 . S
C904 H910 0.930 . S
N905 Li881 1.990 . S
N905 C904 1.314 . S
N905 C908 1.279 . S
C906 C904 1.353 . S
C906 C909 1.348 . S
C906 H954 0.929 . S
C907 C908 1.358 . S
C907 C909 1.356 . S
C907 H955 0.930 . S
C908 N905 1.279 . S
C908 C907 1.358 . S
C908 H911 0.930 . S
C909 C906 1.348 . S
C909 C907 1.356 . S
H910 C904 0.930 . S
H911 C908 0.930 . S
C912 C914 1.348 . S
C912 C915 1.356 . S
C912 O942 1.325 . S
N913 C916 1.314 . S
N913 C917 1.279 . S
C914 C912 1.348 . S
C914 C916 1.353 . S
C914 H956 0.929 . S
C915 C912 1.356 . S
C915 C917 1.358 . S
C915 H957 0.930 . S
C916 N913 1.314 . S
C916 C914 1.353 . S
C916 H958 0.930 . S
C917 N913 1.279 . S
C917 C915 1.358 . S
C917 H959 0.930 . S
C918 C919 1.348 . S
C918 C920 1.356 . S
C918 O943 1.325 . S
C919 C918 1.348 . S
C919 C921 1.353 . S
C919 H960 0.929 . S
C920 C918 1.356 . S
C920 C922 1.358 . S
C920 H961 0.930 . S
C921 C919 1.353 . S
C921 N923 1.314 . S
C921 H962 0.930 . S
C922 C920 1.358 . S
C922 N923 1.279 . S
C922 H963 0.930 . S
N923 C921 1.314 . S
N923 C922 1.279 . S
C924 C926 1.353 . S
C924 N927 1.314 . S
C924 H930 0.930 . S
C925 N927 1.279 . S
C925 C928 1.358 . S
C925 H931 0.930 . S
C926 C924 1.353 . S
C926 C929 1.348 . S
C926 H964 0.929 . S
N927 Li882 1.990 . S
N927 C924 1.314 . S
N927 C925 1.279 . S
C928 C925 1.358 . S
C928 C929 1.356 . S
C928 H965 0.930 . S
C929 C926 1.348 . S
C929 C928 1.356 . S
H930 C924 0.930 . S
H931 C925 0.930 . S
C932 N933 1.314 . S
C932 C934 1.353 . S
C932 H938 0.930 . S
N933 Li883 1.990 . S
N933 C932 1.314 . S
N933 C936 1.279 . S
C934 C932 1.353 . S
C934 C937 1.348 . S
C934 H966 0.929 . S
C935 C936 1.358 . S
C935 C937 1.356 . S
C935 H967 0.930 . S
C936 N933 1.279 . S
C936 C935 1.358 . S
C936 H939 0.930 . S
C937 C934 1.348 . S
C937 C935 1.356 . S
H938 C932 0.930 . S
H939 C936 0.930 . S
O940 Li880 1.956 . S
O940 Li881 1.970 . S
O940 Li882 1.961 . S
O940 C884 1.325 . S
O941 Li880 1.970 . S
O941 Li881 1.956 . S
O941 Li883 1.961 . S
O941 C890 1.325 . S
O942 Li880 1.961 . S
O942 Li882 1.956 . S
O942 Li883 1.970 . S
O942 C912 1.325 . S
O943 Li881 1.961 . S
O943 Li882 1.970 . S
O943 Li883 1.956 . S
O943 C918 1.325 . S
H944 C886 0.929 . S
H945 C887 0.930 . S
H946 C888 0.930 . S
H947 C889 0.930 . S
H948 C891 0.930 . S
H949 C893 0.929 . S
H950 C894 0.930 . S
H951 C895 0.930 . S
H952 C898 0.930 . S
H953 C901 0.929 . S
H954 C906 0.929 . S
H955 C907 0.930 . S
H956 C914 0.929 . S
H957 C915 0.930 . S
H958 C916 0.930 . S
H959 C917 0.930 . S
H960 C919 0.929 . S
H961 C920 0.930 . S
H962 C921 0.930 . S
H963 C922 0.930 . S
H964 C926 0.929 . S
H965 C928 0.930 . S
H966 C934 0.929 . S
H967 C935 0.930 . S
Li968 N985 1.990 . S
Li968 O1028 1.956 . S
Li968 O1029 1.970 . S
Li968 O1030 1.961 . S
Li969 N993 1.990 . S
Li969 O1028 1.970 . S
Li969 O1029 1.956 . S
Li969 O1031 1.961 . S
Li970 N1015 1.990 . S
Li970 O1028 1.961 . S
Li970 O1030 1.956 . S
Li970 O1031 1.970 . S
Li971 N1021 1.990 . S
Li971 O1029 1.961 . S
Li971 O1030 1.970 . S
Li971 O1031 1.956 . S
C972 C974 1.348 . S
C972 C975 1.356 . S
C972 O1028 1.325 . S
N973 C976 1.314 . S
N973 C977 1.279 . S
C974 C972 1.348 . S
C974 C976 1.353 . S
C974 H1032 0.929 . S
C975 C972 1.356 . S
C975 C977 1.358 . S
C975 H1033 0.930 . S
C976 N973 1.314 . S
C976 C974 1.353 . S
C976 H1034 0.930 . S
C977 N973 1.279 . S
C977 C975 1.358 . S
C977 H1035 0.930 . S
C978 C981 1.348 . S
C978 C982 1.356 . S
C978 O1029 1.325 . S
C979 N980 1.279 . S
C979 C982 1.358 . S
C979 H1036 0.930 . S
N980 C979 1.279 . S
N980 C983 1.314 . S
C981 C978 1.348 . S
C981 C983 1.353 . S
C981 H1037 0.929 . S
C982 C978 1.356 . S
C982 C979 1.358 . S
C982 H1038 0.930 . S
C983 N980 1.314 . S
C983 C981 1.353 . S
C983 H1039 0.930 . S
C984 N985 1.314 . S
C984 C989 1.353 . S
C984 H990 0.930 . S
N985 Li968 1.990 . S
N985 C984 1.314 . S
N985 C987 1.279 . S
C986 C987 1.358 . S
C986 C988 1.356 . S
C986 H1040 0.930 . S
C987 N985 1.279 . S
C987 C986 1.358 . S
C987 H991 0.930 . S
C988 C986 1.356 . S
C988 C989 1.348 . S
C989 C984 1.353 . S
C989 C988 1.348 . S
C989 H1041 0.929 . S
H990 C984 0.930 . S
H991 C987 0.930 . S
C992 N993 1.314 . S
C992 C994 1.353 . S
C992 H998 0.930 . S
N993 Li969 1.990 . S
N993 C992 1.314 . S
N993 C996 1.279 . S
C994 C992 1.353 . S
C994 C997 1.348 . S
C994 H1042 0.929 . S
C995 C996 1.358 . S
C995 C997 1.356 . S
C995 H1043 0.930 . S
C996 N993 1.279 . S
C996 C995 1.358 . S
C996 H999 0.930 . S
C997 C994 1.348 . S
C997 C995 1.356 . S
H998 C992 0.930 . S
H999 C996 0.930 . S
C1000 C1002 1.348 . S
C1000 C1003 1.356 . S
C1000 O1030 1.325 . S
N1001 C1004 1.314 . S
N1001 C1005 1.279 . S
C1002 C1000 1.348 . S
C1002 C1004 1.353 . S
C1002 H1044 0.929 . S
C1003 C1000 1.356 . S
C1003 C1005 1.358 . S
C1003 H1045 0.930 . S
C1004 N1001 1.314 . S
C1004 C1002 1.353 . S
C1004 H1046 0.930 . S
C1005 N1001 1.279 . S
C1005 C1003 1.358 . S
C1005 H1047 0.930 . S
C1006 C1007 1.348 . S
C1006 C1008 1.356 . S
C1006 O1031 1.325 . S
C1007 C1006 1.348 . S
C1007 C1009 1.353 . S
C1007 H1048 0.929 . S
C1008 C1006 1.356 . S
C1008 C1010 1.358 . S
C1008 H1049 0.930 . S
C1009 C1007 1.353 . S
C1009 N1011 1.314 . S
C1009 H1050 0.930 . S
C1010 C1008 1.358 . S
C1010 N1011 1.279 . S
C1010 H1051 0.930 . S
N1011 C1009 1.314 . S
N1011 C1010 1.279 . S
C1012 C1014 1.353 . S
C1012 N1015 1.314 . S
C1012 H1018 0.930 . S
C1013 N1015 1.279 . S
C1013 C1016 1.358 . S
C1013 H1019 0.930 . S
C1014 C1012 1.353 . S
C1014 C1017 1.348 . S
C1014 H1052 0.929 . S
N1015 Li970 1.990 . S
N1015 C1012 1.314 . S
N1015 C1013 1.279 . S
C1016 C1013 1.358 . S
C1016 C1017 1.356 . S
C1016 H1053 0.930 . S
C1017 C1014 1.348 . S
C1017 C1016 1.356 . S
H1018 C1012 0.930 . S
H1019 C1013 0.930 . S
C1020 N1021 1.314 . S
C1020 C1022 1.353 . S
C1020 H1026 0.930 . S
N1021 Li971 1.990 . S
N1021 C1020 1.314 . S
N1021 C1024 1.279 . S
C1022 C1020 1.353 . S
C1022 C1025 1.348 . S
C1022 H1054 0.929 . S
C1023 C1024 1.358 . S
C1023 C1025 1.356 . S
C1023 H1055 0.930 . S
C1024 N1021 1.279 . S
C1024 C1023 1.358 . S
C1024 H1027 0.930 . S
C1025 C1022 1.348 . S
C1025 C1023 1.356 . S
H1026 C1020 0.930 . S
H1027 C1024 0.930 . S
O1028 Li968 1.956 . S
O1028 Li969 1.970 . S
O1028 Li970 1.961 . S
O1028 C972 1.325 . S
O1029 Li968 1.970 . S
O1029 Li969 1.956 . S
O1029 Li971 1.961 . S
O1029 C978 1.325 . S
O1030 Li968 1.961 . S
O1030 Li970 1.956 . S
O1030 Li971 1.970 . S
O1030 C1000 1.325 . S
O1031 Li969 1.961 . S
O1031 Li970 1.970 . S
O1031 Li971 1.956 . S
O1031 C1006 1.325 . S
H1032 C974 0.929 . S
H1033 C975 0.930 . S
H1034 C976 0.930 . S
H1035 C977 0.930 . S
H1036 C979 0.930 . S
H1037 C981 0.929 . S
H1038 C982 0.930 . S
H1039 C983 0.930 . S
H1040 C986 0.930 . S
H1041 C989 0.929 . S
H1042 C994 0.929 . S
H1043 C995 0.930 . S
H1044 C1002 0.929 . S
H1045 C1003 0.930 . S
H1046 C1004 0.930 . S
H1047 C1005 0.930 . S
H1048 C1007 0.929 . S
H1049 C1008 0.930 . S
H1050 C1009 0.930 . S
H1051 C1010 0.930 . S
H1052 C1014 0.929 . S
H1053 C1016 0.930 . S
H1054 C1022 0.929 . S
H1055 C1023 0.930 . S
Li1056 N1073 1.990 . S
Li1056 O1116 1.956 . S
Li1056 O1117 1.970 . S
Li1056 O1118 1.961 . S
Li1057 N1081 1.990 . S
Li1057 O1116 1.970 . S
Li1057 O1117 1.956 . S
Li1057 O1119 1.961 . S
Li1058 N1103 1.990 . S
Li1058 O1116 1.961 . S
Li1058 O1118 1.956 . S
Li1058 O1119 1.970 . S
Li1059 N1109 1.990 . S
Li1059 O1117 1.961 . S
Li1059 O1118 1.970 . S
Li1059 O1119 1.956 . S
C1060 C1062 1.348 . S
C1060 C1063 1.356 . S
C1060 O1116 1.325 . S
N1061 C1064 1.314 . S
N1061 C1065 1.279 . S
C1062 C1060 1.348 . S
C1062 C1064 1.353 . S
C1062 H1120 0.929 . S
C1063 C1060 1.356 . S
C1063 C1065 1.358 . S
C1063 H1121 0.930 . S
C1064 N1061 1.314 . S
C1064 C1062 1.353 . S
C1064 H1122 0.930 . S
C1065 N1061 1.279 . S
C1065 C1063 1.358 . S
C1065 H1123 0.930 . S
C1066 C1069 1.348 . S
C1066 C1070 1.356 . S
C1066 O1117 1.325 . S
C1067 N1068 1.279 . S
C1067 C1070 1.358 . S
C1067 H1124 0.930 . S
N1068 C1067 1.279 . S
N1068 C1071 1.314 . S
C1069 C1066 1.348 . S
C1069 C1071 1.353 . S
C1069 H1125 0.929 . S
C1070 C1066 1.356 . S
C1070 C1067 1.358 . S
C1070 H1126 0.930 . S
C1071 N1068 1.314 . S
C1071 C1069 1.353 . S
C1071 H1127 0.930 . S
C1072 N1073 1.314 . S
C1072 C1077 1.353 . S
C1072 H1078 0.930 . S
N1073 Li1056 1.990 . S
N1073 C1072 1.314 . S
N1073 C1075 1.279 . S
C1074 C1075 1.358 . S
C1074 C1076 1.356 . S
C1074 H1128 0.930 . S
C1075 N1073 1.279 . S
C1075 C1074 1.358 . S
C1075 H1079 0.930 . S
C1076 C1074 1.356 . S
C1076 C1077 1.348 . S
C1077 C1072 1.353 . S
C1077 C1076 1.348 . S
C1077 H1129 0.929 . S
H1078 C1072 0.930 . S
H1079 C1075 0.930 . S
C1080 N1081 1.314 . S
C1080 C1082 1.353 . S
C1080 H1086 0.930 . S
N1081 Li1057 1.990 . S
N1081 C1080 1.314 . S
N1081 C1084 1.279 . S
C1082 C1080 1.353 . S
C1082 C1085 1.348 . S
C1082 H1130 0.929 . S
C1083 C1084 1.358 . S
C1083 C1085 1.356 . S
C1083 H1131 0.930 . S
C1084 N1081 1.279 . S
C1084 C1083 1.358 . S
C1084 H1087 0.930 . S
C1085 C1082 1.348 . S
C1085 C1083 1.356 . S
H1086 C1080 0.930 . S
H1087 C1084 0.930 . S
C1088 C1090 1.348 . S
C1088 C1091 1.356 . S
C1088 O1118 1.325 . S
N1089 C1092 1.314 . S
N1089 C1093 1.279 . S
C1090 C1088 1.348 . S
C1090 C1092 1.353 . S
C1090 H1132 0.929 . S
C1091 C1088 1.356 . S
C1091 C1093 1.358 . S
C1091 H1133 0.930 . S
C1092 N1089 1.314 . S
C1092 C1090 1.353 . S
C1092 H1134 0.930 . S
C1093 N1089 1.279 . S
C1093 C1091 1.358 . S
C1093 H1135 0.930 . S
C1094 C1095 1.348 . S
C1094 C1096 1.356 . S
C1094 O1119 1.325 . S
C1095 C1094 1.348 . S
C1095 C1097 1.353 . S
C1095 H1136 0.929 . S
C1096 C1094 1.356 . S
C1096 C1098 1.358 . S
C1096 H1137 0.930 . S
C1097 C1095 1.353 . S
C1097 N1099 1.314 . S
C1097 H1138 0.930 . S
C1098 C1096 1.358 . S
C1098 N1099 1.279 . S
C1098 H1139 0.930 . S
N1099 C1097 1.314 . S
N1099 C1098 1.279 . S
C1100 C1102 1.353 . S
C1100 N1103 1.314 . S
C1100 H1106 0.930 . S
C1101 N1103 1.279 . S
C1101 C1104 1.358 . S
C1101 H1107 0.930 . S
C1102 C1100 1.353 . S
C1102 C1105 1.348 . S
C1102 H1140 0.929 . S
N1103 Li1058 1.990 . S
N1103 C1100 1.314 . S
N1103 C1101 1.279 . S
C1104 C1101 1.358 . S
C1104 C1105 1.356 . S
C1104 H1141 0.930 . S
C1105 C1102 1.348 . S
C1105 C1104 1.356 . S
H1106 C1100 0.930 . S
H1107 C1101 0.930 . S
C1108 N1109 1.314 . S
C1108 C1110 1.353 . S
C1108 H1114 0.930 . S
N1109 Li1059 1.990 . S
N1109 C1108 1.314 . S
N1109 C1112 1.279 . S
C1110 C1108 1.353 . S
C1110 C1113 1.348 . S
C1110 H1142 0.929 . S
C1111 C1112 1.358 . S
C1111 C1113 1.356 . S
C1111 H1143 0.930 . S
C1112 N1109 1.279 . S
C1112 C1111 1.358 . S
C1112 H1115 0.930 . S
C1113 C1110 1.348 . S
C1113 C1111 1.356 . S
H1114 C1108 0.930 . S
H1115 C1112 0.930 . S
O1116 Li1056 1.956 . S
O1116 Li1057 1.970 . S
O1116 Li1058 1.961 . S
O1116 C1060 1.325 . S
O1117 Li1056 1.970 . S
O1117 Li1057 1.956 . S
O1117 Li1059 1.961 . S
O1117 C1066 1.325 . S
O1118 Li1056 1.961 . S
O1118 Li1058 1.956 . S
O1118 Li1059 1.970 . S
O1118 C1088 1.325 . S
O1119 Li1057 1.961 . S
O1119 Li1058 1.970 . S
O1119 Li1059 1.956 . S
O1119 C1094 1.325 . S
H1120 C1062 0.929 . S
H1121 C1063 0.930 . S
H1122 C1064 0.930 . S
H1123 C1065 0.930 . S
H1124 C1067 0.930 . S
H1125 C1069 0.929 . S
H1126 C1070 0.930 . S
H1127 C1071 0.930 . S
H1128 C1074 0.930 . S
H1129 C1077 0.929 . S
H1130 C1082 0.929 . S
H1131 C1083 0.930 . S
H1132 C1090 0.929 . S
H1133 C1091 0.930 . S
H1134 C1092 0.930 . S
H1135 C1093 0.930 . S
H1136 C1095 0.929 . S
H1137 C1096 0.930 . S
H1138 C1097 0.930 . S
H1139 C1098 0.930 . S
H1140 C1102 0.929 . S
H1141 C1104 0.930 . S
H1142 C1110 0.929 . S
H1143 C1111 0.930 . S
Li1144 N1161 1.990 . S
Li1144 O1204 1.956 . S
Li1144 O1205 1.970 . S
Li1144 O1206 1.961 . S
Li1145 N1169 1.990 . S
Li1145 O1204 1.970 . S
Li1145 O1205 1.956 . S
Li1145 O1207 1.961 . S
Li1146 N1191 1.990 . S
Li1146 O1204 1.961 . S
Li1146 O1206 1.956 . S
Li1146 O1207 1.970 . S
Li1147 N1197 1.990 . S
Li1147 O1205 1.961 . S
Li1147 O1206 1.970 . S
Li1147 O1207 1.956 . S
C1148 C1150 1.348 . S
C1148 C1151 1.356 . S
C1148 O1204 1.325 . S
N1149 C1152 1.314 . S
N1149 C1153 1.279 . S
C1150 C1148 1.348 . S
C1150 C1152 1.353 . S
C1150 H1208 0.929 . S
C1151 C1148 1.356 . S
C1151 C1153 1.358 . S
C1151 H1209 0.930 . S
C1152 N1149 1.314 . S
C1152 C1150 1.353 . S
C1152 H1210 0.930 . S
C1153 N1149 1.279 . S
C1153 C1151 1.358 . S
C1153 H1211 0.930 . S
C1154 C1157 1.348 . S
C1154 C1158 1.356 . S
C1154 O1205 1.325 . S
C1155 N1156 1.279 . S
C1155 C1158 1.358 . S
C1155 H1212 0.930 . S
N1156 C1155 1.279 . S
N1156 C1159 1.314 . S
C1157 C1154 1.348 . S
C1157 C1159 1.353 . S
C1157 H1213 0.929 . S
C1158 C1154 1.356 . S
C1158 C1155 1.358 . S
C1158 H1214 0.930 . S
C1159 N1156 1.314 . S
C1159 C1157 1.353 . S
C1159 H1215 0.930 . S
C1160 N1161 1.314 . S
C1160 C1165 1.353 . S
C1160 H1166 0.930 . S
N1161 Li1144 1.990 . S
N1161 C1160 1.314 . S
N1161 C1163 1.279 . S
C1162 C1163 1.358 . S
C1162 C1164 1.356 . S
C1162 H1216 0.930 . S
C1163 N1161 1.279 . S
C1163 C1162 1.358 . S
C1163 H1167 0.930 . S
C1164 C1162 1.356 . S
C1164 C1165 1.348 . S
C1165 C1160 1.353 . S
C1165 C1164 1.348 . S
C1165 H1217 0.929 . S
H1166 C1160 0.930 . S
H1167 C1163 0.930 . S
C1168 N1169 1.314 . S
C1168 C1170 1.353 . S
C1168 H1174 0.930 . S
N1169 Li1145 1.990 . S
N1169 C1168 1.314 . S
N1169 C1172 1.279 . S
C1170 C1168 1.353 . S
C1170 C1173 1.348 . S
C1170 H1218 0.929 . S
C1171 C1172 1.358 . S
C1171 C1173 1.356 . S
C1171 H1219 0.930 . S
C1172 N1169 1.279 . S
C1172 C1171 1.358 . S
C1172 H1175 0.930 . S
C1173 C1170 1.348 . S
C1173 C1171 1.356 . S
H1174 C1168 0.930 . S
H1175 C1172 0.930 . S
C1176 C1178 1.348 . S
C1176 C1179 1.356 . S
C1176 O1206 1.325 . S
N1177 C1180 1.314 . S
N1177 C1181 1.279 . S
C1178 C1176 1.348 . S
C1178 C1180 1.353 . S
C1178 H1220 0.929 . S
C1179 C1176 1.356 . S
C1179 C1181 1.358 . S
C1179 H1221 0.930 . S
C1180 N1177 1.314 . S
C1180 C1178 1.353 . S
C1180 H1222 0.930 . S
C1181 N1177 1.279 . S
C1181 C1179 1.358 . S
C1181 H1223 0.930 . S
C1182 C1183 1.348 . S
C1182 C1184 1.356 . S
C1182 O1207 1.325 . S
C1183 C1182 1.348 . S
C1183 C1185 1.353 . S
C1183 H1224 0.929 . S
C1184 C1182 1.356 . S
C1184 C1186 1.358 . S
C1184 H1225 0.930 . S
C1185 C1183 1.353 . S
C1185 N1187 1.314 . S
C1185 H1226 0.930 . S
C1186 C1184 1.358 . S
C1186 N1187 1.279 . S
C1186 H1227 0.930 . S
N1187 C1185 1.314 . S
N1187 C1186 1.279 . S
C1188 C1190 1.353 . S
C1188 N1191 1.314 . S
C1188 H1194 0.930 . S
C1189 N1191 1.279 . S
C1189 C1192 1.358 . S
C1189 H1195 0.930 . S
C1190 C1188 1.353 . S
C1190 C1193 1.348 . S
C1190 H1228 0.929 . S
N1191 Li1146 1.990 . S
N1191 C1188 1.314 . S
N1191 C1189 1.279 . S
C1192 C1189 1.358 . S
C1192 C1193 1.356 . S
C1192 H1229 0.930 . S
C1193 C1190 1.348 . S
C1193 C1192 1.356 . S
H1194 C1188 0.930 . S
H1195 C1189 0.930 . S
C1196 N1197 1.314 . S
C1196 C1198 1.353 . S
C1196 H1202 0.930 . S
N1197 Li1147 1.990 . S
N1197 C1196 1.314 . S
N1197 C1200 1.279 . S
C1198 C1196 1.353 . S
C1198 C1201 1.348 . S
C1198 H1230 0.929 . S
C1199 C1200 1.358 . S
C1199 C1201 1.356 . S
C1199 H1231 0.930 . S
C1200 N1197 1.279 . S
C1200 C1199 1.358 . S
C1200 H1203 0.930 . S
C1201 C1198 1.348 . S
C1201 C1199 1.356 . S
H1202 C1196 0.930 . S
H1203 C1200 0.930 . S
O1204 Li1144 1.956 . S
O1204 Li1145 1.970 . S
O1204 Li1146 1.961 . S
O1204 C1148 1.325 . S
O1205 Li1144 1.970 . S
O1205 Li1145 1.956 . S
O1205 Li1147 1.961 . S
O1205 C1154 1.325 . S
O1206 Li1144 1.961 . S
O1206 Li1146 1.956 . S
O1206 Li1147 1.970 . S
O1206 C1176 1.325 . S
O1207 Li1145 1.961 . S
O1207 Li1146 1.970 . S
O1207 Li1147 1.956 . S
O1207 C1182 1.325 . S
H1208 C1150 0.929 . S
H1209 C1151 0.930 . S
H1210 C1152 0.930 . S
H1211 C1153 0.930 . S
H1212 C1155 0.930 . S
H1213 C1157 0.929 . S
H1214 C1158 0.930 . S
H1215 C1159 0.930 . S
H1216 C1162 0.930 . S
H1217 C1165 0.929 . S
H1218 C1170 0.929 . S
H1219 C1171 0.930 . S
H1220 C1178 0.929 . S
H1221 C1179 0.930 . S
H1222 C1180 0.930 . S
H1223 C1181 0.930 . S
H1224 C1183 0.929 . S
H1225 C1184 0.930 . S
H1226 C1185 0.930 . S
H1227 C1186 0.930 . S
H1228 C1190 0.929 . S
H1229 C1192 0.930 . S
H1230 C1198 0.929 . S
H1231 C1199 0.930 . S
Li1232 N1249 1.990 . S
Li1232 O1292 1.956 . S
Li1232 O1293 1.970 . S
Li1232 O1294 1.961 . S
Li1233 N1257 1.990 . S
Li1233 O1292 1.970 . S
Li1233 O1293 1.956 . S
Li1233 O1295 1.961 . S
Li1234 N1279 1.990 . S
Li1234 O1292 1.961 . S
Li1234 O1294 1.956 . S
Li1234 O1295 1.970 . S
Li1235 N1285 1.990 . S
Li1235 O1293 1.961 . S
Li1235 O1294 1.970 . S
Li1235 O1295 1.956 . S
C1236 C1238 1.348 . S
C1236 C1239 1.356 . S
C1236 O1292 1.325 . S
N1237 C1240 1.314 . S
N1237 C1241 1.279 . S
C1238 C1236 1.348 . S
C1238 C1240 1.353 . S
C1238 H1296 0.929 . S
C1239 C1236 1.356 . S
C1239 C1241 1.358 . S
C1239 H1297 0.930 . S
C1240 N1237 1.314 . S
C1240 C1238 1.353 . S
C1240 H1298 0.930 . S
C1241 N1237 1.279 . S
C1241 C1239 1.358 . S
C1241 H1299 0.930 . S
C1242 C1245 1.348 . S
C1242 C1246 1.356 . S
C1242 O1293 1.325 . S
C1243 N1244 1.279 . S
C1243 C1246 1.358 . S
C1243 H1300 0.930 . S
N1244 C1243 1.279 . S
N1244 C1247 1.314 . S
C1245 C1242 1.348 . S
C1245 C1247 1.353 . S
C1245 H1301 0.929 . S
C1246 C1242 1.356 . S
C1246 C1243 1.358 . S
C1246 H1302 0.930 . S
C1247 N1244 1.314 . S
C1247 C1245 1.353 . S
C1247 H1303 0.930 . S
C1248 N1249 1.314 . S
C1248 C1253 1.353 . S
C1248 H1254 0.930 . S
N1249 Li1232 1.990 . S
N1249 C1248 1.314 . S
N1249 C1251 1.279 . S
C1250 C1251 1.358 . S
C1250 C1252 1.356 . S
C1250 H1304 0.930 . S
C1251 N1249 1.279 . S
C1251 C1250 1.358 . S
C1251 H1255 0.930 . S
C1252 C1250 1.356 . S
C1252 C1253 1.348 . S
C1253 C1248 1.353 . S
C1253 C1252 1.348 . S
C1253 H1305 0.929 . S
H1254 C1248 0.930 . S
H1255 C1251 0.930 . S
C1256 N1257 1.314 . S
C1256 C1258 1.353 . S
C1256 H1262 0.930 . S
N1257 Li1233 1.990 . S
N1257 C1256 1.314 . S
N1257 C1260 1.279 . S
C1258 C1256 1.353 . S
C1258 C1261 1.348 . S
C1258 H1306 0.929 . S
C1259 C1260 1.358 . S
C1259 C1261 1.356 . S
C1259 H1307 0.930 . S
C1260 N1257 1.279 . S
C1260 C1259 1.358 . S
C1260 H1263 0.930 . S
C1261 C1258 1.348 . S
C1261 C1259 1.356 . S
H1262 C1256 0.930 . S
H1263 C1260 0.930 . S
C1264 C1266 1.348 . S
C1264 C1267 1.356 . S
C1264 O1294 1.325 . S
N1265 C1268 1.314 . S
N1265 C1269 1.279 . S
C1266 C1264 1.348 . S
C1266 C1268 1.353 . S
C1266 H1308 0.929 . S
C1267 C1264 1.356 . S
C1267 C1269 1.358 . S
C1267 H1309 0.930 . S
C1268 N1265 1.314 . S
C1268 C1266 1.353 . S
C1268 H1310 0.930 . S
C1269 N1265 1.279 . S
C1269 C1267 1.358 . S
C1269 H1311 0.930 . S
C1270 C1271 1.348 . S
C1270 C1272 1.356 . S
C1270 O1295 1.325 . S
C1271 C1270 1.348 . S
C1271 C1273 1.353 . S
C1271 H1312 0.929 . S
C1272 C1270 1.356 . S
C1272 C1274 1.358 . S
C1272 H1313 0.930 . S
C1273 C1271 1.353 . S
C1273 N1275 1.314 . S
C1273 H1314 0.930 . S
C1274 C1272 1.358 . S
C1274 N1275 1.279 . S
C1274 H1315 0.930 . S
N1275 C1273 1.314 . S
N1275 C1274 1.279 . S
C1276 C1278 1.353 . S
C1276 N1279 1.314 . S
C1276 H1282 0.930 . S
C1277 N1279 1.279 . S
C1277 C1280 1.358 . S
C1277 H1283 0.930 . S
C1278 C1276 1.353 . S
C1278 C1281 1.348 . S
C1278 H1316 0.929 . S
N1279 Li1234 1.990 . S
N1279 C1276 1.314 . S
N1279 C1277 1.279 . S
C1280 C1277 1.358 . S
C1280 C1281 1.356 . S
C1280 H1317 0.930 . S
C1281 C1278 1.348 . S
C1281 C1280 1.356 . S
H1282 C1276 0.930 . S
H1283 C1277 0.930 . S
C1284 N1285 1.314 . S
C1284 C1286 1.353 . S
C1284 H1290 0.930 . S
N1285 Li1235 1.990 . S
N1285 C1284 1.314 . S
N1285 C1288 1.279 . S
C1286 C1284 1.353 . S
C1286 C1289 1.348 . S
C1286 H1318 0.929 . S
C1287 C1288 1.358 . S
C1287 C1289 1.356 . S
C1287 H1319 0.930 . S
C1288 N1285 1.279 . S
C1288 C1287 1.358 . S
C1288 H1291 0.930 . S
C1289 C1286 1.348 . S
C1289 C1287 1.356 . S
H1290 C1284 0.930 . S
H1291 C1288 0.930 . S
O1292 Li1232 1.956 . S
O1292 Li1233 1.970 . S
O1292 Li1234 1.961 . S
O1292 C1236 1.325 . S
O1293 Li1232 1.970 . S
O1293 Li1233 1.956 . S
O1293 Li1235 1.961 . S
O1293 C1242 1.325 . S
O1294 Li1232 1.961 . S
O1294 Li1234 1.956 . S
O1294 Li1235 1.970 . S
O1294 C1264 1.325 . S
O1295 Li1233 1.961 . S
O1295 Li1234 1.970 . S
O1295 Li1235 1.956 . S
O1295 C1270 1.325 . S
H1296 C1238 0.929 . S
H1297 C1239 0.930 . S
H1298 C1240 0.930 . S
H1299 C1241 0.930 . S
H1300 C1243 0.930 . S
H1301 C1245 0.929 . S
H1302 C1246 0.930 . S
H1303 C1247 0.930 . S
H1304 C1250 0.930 . S
H1305 C1253 0.929 . S
H1306 C1258 0.929 . S
H1307 C1259 0.930 . S
H1308 C1266 0.929 . S
H1309 C1267 0.930 . S
H1310 C1268 0.930 . S
H1311 C1269 0.930 . S
H1312 C1271 0.929 . S
H1313 C1272 0.930 . S
H1314 C1273 0.930 . S
H1315 C1274 0.930 . S
H1316 C1278 0.929 . S
H1317 C1280 0.930 . S
H1318 C1286 0.929 . S
H1319 C1287 0.930 . S
Li1320 N1337 1.990 . S
Li1320 O1380 1.956 . S
Li1320 O1381 1.970 . S
Li1320 O1382 1.961 . S
Li1321 N1345 1.990 . S
Li1321 O1380 1.970 . S
Li1321 O1381 1.956 . S
Li1321 O1383 1.961 . S
Li1322 N1367 1.990 . S
Li1322 O1380 1.961 . S
Li1322 O1382 1.956 . S
Li1322 O1383 1.970 . S
Li1323 N1373 1.990 . S
Li1323 O1381 1.961 . S
Li1323 O1382 1.970 . S
Li1323 O1383 1.956 . S
C1324 C1326 1.348 . S
C1324 C1327 1.356 . S
C1324 O1380 1.325 . S
N1325 C1328 1.314 . S
N1325 C1329 1.279 . S
C1326 C1324 1.348 . S
C1326 C1328 1.353 . S
C1326 H1384 0.929 . S
C1327 C1324 1.356 . S
C1327 C1329 1.358 . S
C1327 H1385 0.930 . S
C1328 N1325 1.314 . S
C1328 C1326 1.353 . S
C1328 H1386 0.930 . S
C1329 N1325 1.279 . S
C1329 C1327 1.358 . S
C1329 H1387 0.930 . S
C1330 C1333 1.348 . S
C1330 C1334 1.356 . S
C1330 O1381 1.325 . S
C1331 N1332 1.279 . S
C1331 C1334 1.358 . S
C1331 H1388 0.930 . S
N1332 C1331 1.279 . S
N1332 C1335 1.314 . S
C1333 C1330 1.348 . S
C1333 C1335 1.353 . S
C1333 H1389 0.929 . S
C1334 C1330 1.356 . S
C1334 C1331 1.358 . S
C1334 H1390 0.930 . S
C1335 N1332 1.314 . S
C1335 C1333 1.353 . S
C1335 H1391 0.930 . S
C1336 N1337 1.314 . S
C1336 C1341 1.353 . S
C1336 H1342 0.930 . S
N1337 Li1320 1.990 . S
N1337 C1336 1.314 . S
N1337 C1339 1.279 . S
C1338 C1339 1.358 . S
C1338 C1340 1.356 . S
C1338 H1392 0.930 . S
C1339 N1337 1.279 . S
C1339 C1338 1.358 . S
C1339 H1343 0.930 . S
C1340 C1338 1.356 . S
C1340 C1341 1.348 . S
C1341 C1336 1.353 . S
C1341 C1340 1.348 . S
C1341 H1393 0.929 . S
H1342 C1336 0.930 . S
H1343 C1339 0.930 . S
C1344 N1345 1.314 . S
C1344 C1346 1.353 . S
C1344 H1350 0.930 . S
N1345 Li1321 1.990 . S
N1345 C1344 1.314 . S
N1345 C1348 1.279 . S
C1346 C1344 1.353 . S
C1346 C1349 1.348 . S
C1346 H1394 0.929 . S
C1347 C1348 1.358 . S
C1347 C1349 1.356 . S
C1347 H1395 0.930 . S
C1348 N1345 1.279 . S
C1348 C1347 1.358 . S
C1348 H1351 0.930 . S
C1349 C1346 1.348 . S
C1349 C1347 1.356 . S
H1350 C1344 0.930 . S
H1351 C1348 0.930 . S
C1352 C1354 1.348 . S
C1352 C1355 1.356 . S
C1352 O1382 1.325 . S
N1353 C1356 1.314 . S
N1353 C1357 1.279 . S
C1354 C1352 1.348 . S
C1354 C1356 1.353 . S
C1354 H1396 0.929 . S
C1355 C1352 1.356 . S
C1355 C1357 1.358 . S
C1355 H1397 0.930 . S
C1356 N1353 1.314 . S
C1356 C1354 1.353 . S
C1356 H1398 0.930 . S
C1357 N1353 1.279 . S
C1357 C1355 1.358 . S
C1357 H1399 0.930 . S
C1358 C1359 1.348 . S
C1358 C1360 1.356 . S
C1358 O1383 1.325 . S
C1359 C1358 1.348 . S
C1359 C1361 1.353 . S
C1359 H1400 0.929 . S
C1360 C1358 1.356 . S
C1360 C1362 1.358 . S
C1360 H1401 0.930 . S
C1361 C1359 1.353 . S
C1361 N1363 1.314 . S
C1361 H1402 0.930 . S
C1362 C1360 1.358 . S
C1362 N1363 1.279 . S
C1362 H1403 0.930 . S
N1363 C1361 1.314 . S
N1363 C1362 1.279 . S
C1364 C1366 1.353 . S
C1364 N1367 1.314 . S
C1364 H1370 0.930 . S
C1365 N1367 1.279 . S
C1365 C1368 1.358 . S
C1365 H1371 0.930 . S
C1366 C1364 1.353 . S
C1366 C1369 1.348 . S
C1366 H1404 0.929 . S
N1367 Li1322 1.990 . S
N1367 C1364 1.314 . S
N1367 C1365 1.279 . S
C1368 C1365 1.358 . S
C1368 C1369 1.356 . S
C1368 H1405 0.930 . S
C1369 C1366 1.348 . S
C1369 C1368 1.356 . S
H1370 C1364 0.930 . S
H1371 C1365 0.930 . S
C1372 N1373 1.314 . S
C1372 C1374 1.353 . S
C1372 H1378 0.930 . S
N1373 Li1323 1.990 . S
N1373 C1372 1.314 . S
N1373 C1376 1.279 . S
C1374 C1372 1.353 . S
C1374 C1377 1.348 . S
C1374 H1406 0.929 . S
C1375 C1376 1.358 . S
C1375 C1377 1.356 . S
C1375 H1407 0.930 . S
C1376 N1373 1.279 . S
C1376 C1375 1.358 . S
C1376 H1379 0.930 . S
C1377 C1374 1.348 . S
C1377 C1375 1.356 . S
H1378 C1372 0.930 . S
H1379 C1376 0.930 . S
O1380 Li1320 1.956 . S
O1380 Li1321 1.970 . S
O1380 Li1322 1.961 . S
O1380 C1324 1.325 . S
O1381 Li1320 1.970 . S
O1381 Li1321 1.956 . S
O1381 Li1323 1.961 . S
O1381 C1330 1.325 . S
O1382 Li1320 1.961 . S
O1382 Li1322 1.956 . S
O1382 Li1323 1.970 . S
O1382 C1352 1.325 . S
O1383 Li1321 1.961 . S
O1383 Li1322 1.970 . S
O1383 Li1323 1.956 . S
O1383 C1358 1.325 . S
H1384 C1326 0.929 . S
H1385 C1327 0.930 . S
H1386 C1328 0.930 . S
H1387 C1329 0.930 . S
H1388 C1331 0.930 . S
H1389 C1333 0.929 . S
H1390 C1334 0.930 . S
H1391 C1335 0.930 . S
H1392 C1338 0.930 . S
H1393 C1341 0.929 . S
H1394 C1346 0.929 . S
H1395 C1347 0.930 . S
H1396 C1354 0.929 . S
H1397 C1355 0.930 . S
H1398 C1356 0.930 . S
H1399 C1357 0.930 . S
H1400 C1359 0.929 . S
H1401 C1360 0.930 . S
H1402 C1361 0.930 . S
H1403 C1362 0.930 . S
H1404 C1366 0.929 . S
H1405 C1368 0.930 . S
H1406 C1374 0.929 . S
H1407 C1375 0.930 . S
C1408 C1409 1.349 . S
C1408 C1410 1.327 . S
C1408 H1433 0.950 . S
C1409 C1408 1.349 . S
C1409 C1425 1.349 . S
C1410 C1408 1.327 . S
C1410 C1429 1.429 . S
C1410 H1434 0.950 . S
C1411 C1428 1.574 . S
C1411 C1430 1.368 . S
C1411 H1435 0.949 . S
H1412 C1416 0.949 . S
C1413 C1414 1.349 . S
C1413 C1415 1.327 . S
C1413 H1436 0.950 . S
C1414 C1413 1.349 . S
C1414 C1426 1.349 . S
C1415 C1413 1.327 . S
C1415 C1431 1.429 . S
C1415 H1437 0.950 . S
C1416 H1412 0.949 . S
C1416 C1424 1.574 . S
C1416 C1432 1.368 . S
H1417 C1425 0.950 . S
H1418 C1423 0.950 . S
H1419 C1424 0.949 . S
H1420 C1426 0.950 . S
H1421 C1427 0.950 . S
H1422 C1428 0.949 . S
C1423 H1418 0.950 . S
C1423 C1425 1.327 . S
C1423 C1429 1.429 . S
C1424 C1416 1.574 . S
C1424 H1419 0.949 . S
C1424 C1430 1.368 . S
C1425 C1409 1.349 . S
C1425 H1417 0.950 . S
C1425 C1423 1.327 . S
C1426 C1414 1.349 . S
C1426 H1420 0.950 . S
C1426 C1427 1.327 . S
C1427 H1421 0.950 . S
C1427 C1426 1.327 . S
C1427 C1431 1.429 . S
C1428 C1411 1.574 . S
C1428 H1422 0.949 . S
C1428 C1432 1.368 . S
C1429 C1410 1.429 . S
C1429 C1423 1.429 . S
C1429 C1430 1.523 . S
C1430 C1411 1.368 . S
C1430 C1424 1.368 . S
C1430 C1429 1.523 . S
C1431 C1415 1.429 . S
C1431 C1427 1.429 . S
C1431 C1432 1.523 . S
C1432 C1416 1.368 . S
C1432 C1428 1.368 . S
C1432 C1431 1.523 . S
H1433 C1408 0.950 . S
H1434 C1410 0.950 . S
H1435 C1411 0.949 . S
H1436 C1413 0.950 . S
H1437 C1415 0.950 . S
C1438 C1439 1.349 . S
C1438 C1440 1.327 . S
C1438 H1463 0.950 . S
C1439 C1438 1.349 . S
C1439 C1455 1.349 . S
C1440 C1438 1.327 . S
C1440 C1459 1.429 . S
C1440 H1464 0.950 . S
C1441 C1458 1.574 . S
C1441 C1460 1.368 . S
C1441 H1465 0.949 . S
H1442 C1446 0.949 . S
C1443 C1444 1.349 . S
C1443 C1445 1.327 . S
C1443 H1466 0.950 . S
C1444 C1443 1.349 . S
C1444 C1456 1.349 . S
C1445 C1443 1.327 . S
C1445 C1461 1.429 . S
C1445 H1467 0.950 . S
C1446 H1442 0.949 . S
C1446 C1454 1.574 . S
C1446 C1462 1.368 . S
H1447 C1455 0.950 . S
H1448 C1453 0.950 . S
H1449 C1454 0.949 . S
H1450 C1456 0.950 . S
H1451 C1457 0.950 . S
H1452 C1458 0.949 . S
C1453 H1448 0.950 . S
C1453 C1455 1.327 . S
C1453 C1459 1.429 . S
C1454 C1446 1.574 . S
C1454 H1449 0.949 . S
C1454 C1460 1.368 . S
C1455 C1439 1.349 . S
C1455 H1447 0.950 . S
C1455 C1453 1.327 . S
C1456 C1444 1.349 . S
C1456 H1450 0.950 . S
C1456 C1457 1.327 . S
C1457 H1451 0.950 . S
C1457 C1456 1.327 . S
C1457 C1461 1.429 . S
C1458 C1441 1.574 . S
C1458 H1452 0.949 . S
C1458 C1462 1.368 . S
C1459 C1440 1.429 . S
C1459 C1453 1.429 . S
C1459 C1460 1.523 . S
C1460 C1441 1.368 . S
C1460 C1454 1.368 . S
C1460 C1459 1.523 . S
C1461 C1445 1.429 . S
C1461 C1457 1.429 . S
C1461 C1462 1.523 . S
C1462 C1446 1.368 . S
C1462 C1458 1.368 . S
C1462 C1461 1.523 . S
H1463 C1438 0.950 . S
H1464 C1440 0.950 . S
H1465 C1441 0.949 . S
H1466 C1443 0.950 . S
H1467 C1445 0.950 . S
C1468 C1469 1.349 . S
C1468 C1470 1.327 . S
C1468 H1493 0.950 . S
C1469 C1468 1.349 . S
C1469 C1485 1.349 . S
C1470 C1468 1.327 . S
C1470 C1489 1.429 . S
C1470 H1494 0.950 . S
C1471 C1488 1.574 . S
C1471 C1490 1.368 . S
C1471 H1495 0.949 . S
H1472 C1476 0.949 . S
C1473 C1474 1.349 . S
C1473 C1475 1.327 . S
C1473 H1496 0.950 . S
C1474 C1473 1.349 . S
C1474 C1486 1.349 . S
C1475 C1473 1.327 . S
C1475 C1491 1.429 . S
C1475 H1497 0.950 . S
C1476 H1472 0.949 . S
C1476 C1484 1.574 . S
C1476 C1492 1.368 . S
H1477 C1485 0.950 . S
H1478 C1483 0.950 . S
H1479 C1484 0.949 . S
H1480 C1486 0.950 . S
H1481 C1487 0.950 . S
H1482 C1488 0.949 . S
C1483 H1478 0.950 . S
C1483 C1485 1.327 . S
C1483 C1489 1.429 . S
C1484 C1476 1.574 . S
C1484 H1479 0.949 . S
C1484 C1490 1.368 . S
C1485 C1469 1.349 . S
C1485 H1477 0.950 . S
C1485 C1483 1.327 . S
C1486 C1474 1.349 . S
C1486 H1480 0.950 . S
C1486 C1487 1.327 . S
C1487 H1481 0.950 . S
C1487 C1486 1.327 . S
C1487 C1491 1.429 . S
C1488 C1471 1.574 . S
C1488 H1482 0.949 . S
C1488 C1492 1.368 . S
C1489 C1470 1.429 . S
C1489 C1483 1.429 . S
C1489 C1490 1.523 . S
C1490 C1471 1.368 . S
C1490 C1484 1.368 . S
C1490 C1489 1.523 . S
C1491 C1475 1.429 . S
C1491 C1487 1.429 . S
C1491 C1492 1.523 . S
C1492 C1476 1.368 . S
C1492 C1488 1.368 . S
C1492 C1491 1.523 . S
H1493 C1468 0.950 . S
H1494 C1470 0.950 . S
H1495 C1471 0.949 . S
H1496 C1473 0.950 . S
H1497 C1475 0.950 . S
C1498 C1499 1.349 . S
C1498 C1500 1.327 . S
C1498 H1523 0.950 . S
C1499 C1498 1.349 . S
C1499 C1515 1.349 . S
C1500 C1498 1.327 . S
C1500 C1519 1.429 . S
C1500 H1524 0.950 . S
C1501 C1518 1.574 . S
C1501 C1520 1.368 . S
C1501 H1525 0.949 . S
H1502 C1506 0.949 . S
C1503 C1504 1.349 . S
C1503 C1505 1.327 . S
C1503 H1526 0.950 . S
C1504 C1503 1.349 . S
C1504 C1516 1.349 . S
C1505 C1503 1.327 . S
C1505 C1521 1.429 . S
C1505 H1527 0.950 . S
C1506 H1502 0.949 . S
C1506 C1514 1.574 . S
C1506 C1522 1.368 . S
H1507 C1515 0.950 . S
H1508 C1513 0.950 . S
H1509 C1514 0.949 . S
H1510 C1516 0.950 . S
H1511 C1517 0.950 . S
H1512 C1518 0.949 . S
C1513 H1508 0.950 . S
C1513 C1515 1.327 . S
C1513 C1519 1.429 . S
C1514 C1506 1.574 . S
C1514 H1509 0.949 . S
C1514 C1520 1.368 . S
C1515 C1499 1.349 . S
C1515 H1507 0.950 . S
C1515 C1513 1.327 . S
C1516 C1504 1.349 . S
C1516 H1510 0.950 . S
C1516 C1517 1.327 . S
C1517 H1511 0.950 . S
C1517 C1516 1.327 . S
C1517 C1521 1.429 . S
C1518 C1501 1.574 . S
C1518 H1512 0.949 . S
C1518 C1522 1.368 . S
C1519 C1500 1.429 . S
C1519 C1513 1.429 . S
C1519 C1520 1.523 . S
C1520 C1501 1.368 . S
C1520 C1514 1.368 . S
C1520 C1519 1.523 . S
C1521 C1505 1.429 . S
C1521 C1517 1.429 . S
C1521 C1522 1.523 . S
C1522 C1506 1.368 . S
C1522 C1518 1.368 . S
C1522 C1521 1.523 . S
H1523 C1498 0.950 . S
H1524 C1500 0.950 . S
H1525 C1501 0.949 . S
H1526 C1503 0.950 . S
H1527 C1505 0.950 . S
C1528 C1529 1.349 . S
C1528 C1530 1.327 . S
C1528 H1553 0.950 . S
C1529 C1528 1.349 . S
C1529 C1545 1.349 . S
C1530 C1528 1.327 . S
C1530 C1549 1.429 . S
C1530 H1554 0.950 . S
C1531 C1548 1.574 . S
C1531 C1550 1.368 . S
C1531 H1555 0.949 . S
H1532 C1536 0.949 . S
C1533 C1534 1.349 . S
C1533 C1535 1.327 . S
C1533 H1556 0.950 . S
C1534 C1533 1.349 . S
C1534 C1546 1.349 . S
C1535 C1533 1.327 . S
C1535 C1551 1.429 . S
C1535 H1557 0.950 . S
C1536 H1532 0.949 . S
C1536 C1544 1.574 . S
C1536 C1552 1.368 . S
H1537 C1545 0.950 . S
H1538 C1543 0.950 . S
H1539 C1544 0.949 . S
H1540 C1546 0.950 . S
H1541 C1547 0.950 . S
H1542 C1548 0.949 . S
C1543 H1538 0.950 . S
C1543 C1545 1.327 . S
C1543 C1549 1.429 . S
C1544 C1536 1.574 . S
C1544 H1539 0.949 . S
C1544 C1550 1.368 . S
C1545 C1529 1.349 . S
C1545 H1537 0.950 . S
C1545 C1543 1.327 . S
C1546 C1534 1.349 . S
C1546 H1540 0.950 . S
C1546 C1547 1.327 . S
C1547 H1541 0.950 . S
C1547 C1546 1.327 . S
C1547 C1551 1.429 . S
C1548 C1531 1.574 . S
C1548 H1542 0.949 . S
C1548 C1552 1.368 . S
C1549 C1530 1.429 . S
C1549 C1543 1.429 . S
C1549 C1550 1.523 . S
C1550 C1531 1.368 . S
C1550 C1544 1.368 . S
C1550 C1549 1.523 . S
C1551 C1535 1.429 . S
C1551 C1547 1.429 . S
C1551 C1552 1.523 . S
C1552 C1536 1.368 . S
C1552 C1548 1.368 . S
C1552 C1551 1.523 . S
H1553 C1528 0.950 . S
H1554 C1530 0.950 . S
H1555 C1531 0.949 . S
H1556 C1533 0.950 . S
H1557 C1535 0.950 . S
C1558 C1559 1.349 . S
C1558 C1560 1.327 . S
C1558 H1583 0.950 . S
C1559 C1558 1.349 . S
C1559 C1575 1.349 . S
C1560 C1558 1.327 . S
C1560 C1579 1.429 . S
C1560 H1584 0.950 . S
C1561 C1578 1.574 . S
C1561 C1580 1.368 . S
C1561 H1585 0.949 . S
H1562 C1566 0.949 . S
C1563 C1564 1.349 . S
C1563 C1565 1.327 . S
C1563 H1586 0.950 . S
C1564 C1563 1.349 . S
C1564 C1576 1.349 . S
C1565 C1563 1.327 . S
C1565 C1581 1.429 . S
C1565 H1587 0.950 . S
C1566 H1562 0.949 . S
C1566 C1574 1.574 . S
C1566 C1582 1.368 . S
H1567 C1575 0.950 . S
H1568 C1573 0.950 . S
H1569 C1574 0.949 . S
H1570 C1576 0.950 . S
H1571 C1577 0.950 . S
H1572 C1578 0.949 . S
C1573 H1568 0.950 . S
C1573 C1575 1.327 . S
C1573 C1579 1.429 . S
C1574 C1566 1.574 . S
C1574 H1569 0.949 . S
C1574 C1580 1.368 . S
C1575 C1559 1.349 . S
C1575 H1567 0.950 . S
C1575 C1573 1.327 . S
C1576 C1564 1.349 . S
C1576 H1570 0.950 . S
C1576 C1577 1.327 . S
C1577 H1571 0.950 . S
C1577 C1576 1.327 . S
C1577 C1581 1.429 . S
C1578 C1561 1.574 . S
C1578 H1572 0.949 . S
C1578 C1582 1.368 . S
C1579 C1560 1.429 . S
C1579 C1573 1.429 . S
C1579 C1580 1.523 . S
C1580 C1561 1.368 . S
C1580 C1574 1.368 . S
C1580 C1579 1.523 . S
C1581 C1565 1.429 . S
C1581 C1577 1.429 . S
C1581 C1582 1.523 . S
C1582 C1566 1.368 . S
C1582 C1578 1.368 . S
C1582 C1581 1.523 . S
H1583 C1558 0.950 . S
H1584 C1560 0.950 . S
H1585 C1561 0.949 . S
H1586 C1563 0.950 . S
H1587 C1565 0.950 . S
C1588 C1589 1.349 . S
C1588 C1590 1.327 . S
C1588 H1613 0.950 . S
C1589 C1588 1.349 . S
C1589 C1605 1.349 . S
C1590 C1588 1.327 . S
C1590 C1609 1.429 . S
C1590 H1614 0.950 . S
C1591 C1608 1.574 . S
C1591 C1610 1.368 . S
C1591 H1615 0.949 . S
H1592 C1596 0.949 . S
C1593 C1594 1.349 . S
C1593 C1595 1.327 . S
C1593 H1616 0.950 . S
C1594 C1593 1.349 . S
C1594 C1606 1.349 . S
C1595 C1593 1.327 . S
C1595 C1611 1.429 . S
C1595 H1617 0.950 . S
C1596 H1592 0.949 . S
C1596 C1604 1.574 . S
C1596 C1612 1.368 . S
H1597 C1605 0.950 . S
H1598 C1603 0.950 . S
H1599 C1604 0.949 . S
H1600 C1606 0.950 . S
H1601 C1607 0.950 . S
H1602 C1608 0.949 . S
C1603 H1598 0.950 . S
C1603 C1605 1.327 . S
C1603 C1609 1.429 . S
C1604 C1596 1.574 . S
C1604 H1599 0.949 . S
C1604 C1610 1.368 . S
C1605 C1589 1.349 . S
C1605 H1597 0.950 . S
C1605 C1603 1.327 . S
C1606 C1594 1.349 . S
C1606 H1600 0.950 . S
C1606 C1607 1.327 . S
C1607 H1601 0.950 . S
C1607 C1606 1.327 . S
C1607 C1611 1.429 . S
C1608 C1591 1.574 . S
C1608 H1602 0.949 . S
C1608 C1612 1.368 . S
C1609 C1590 1.429 . S
C1609 C1603 1.429 . S
C1609 C1610 1.523 . S
C1610 C1591 1.368 . S
C1610 C1604 1.368 . S
C1610 C1609 1.523 . S
C1611 C1595 1.429 . S
C1611 C1607 1.429 . S
C1611 C1612 1.523 . S
C1612 C1596 1.368 . S
C1612 C1608 1.368 . S
C1612 C1611 1.523 . S
H1613 C1588 0.950 . S
H1614 C1590 0.950 . S
H1615 C1591 0.949 . S
H1616 C1593 0.950 . S
H1617 C1595 0.950 . S
C1618 C1619 1.349 . S
C1618 C1620 1.327 . S
C1618 H1643 0.950 . S
C1619 C1618 1.349 . S
C1619 C1635 1.349 . S
C1620 C1618 1.327 . S
C1620 C1639 1.429 . S
C1620 H1644 0.950 . S
C1621 C1638 1.574 . S
C1621 C1640 1.368 . S
C1621 H1645 0.949 . S
H1622 C1626 0.949 . S
C1623 C1624 1.349 . S
C1623 C1625 1.327 . S
C1623 H1646 0.950 . S
C1624 C1623 1.349 . S
C1624 C1636 1.349 . S
C1625 C1623 1.327 . S
C1625 C1641 1.429 . S
C1625 H1647 0.950 . S
C1626 H1622 0.949 . S
C1626 C1634 1.574 . S
C1626 C1642 1.368 . S
H1627 C1635 0.950 . S
H1628 C1633 0.950 . S
H1629 C1634 0.949 . S
H1630 C1636 0.950 . S
H1631 C1637 0.950 . S
H1632 C1638 0.949 . S
C1633 H1628 0.950 . S
C1633 C1635 1.327 . S
C1633 C1639 1.429 . S
C1634 C1626 1.574 . S
C1634 H1629 0.949 . S
C1634 C1640 1.368 . S
C1635 C1619 1.349 . S
C1635 H1627 0.950 . S
C1635 C1633 1.327 . S
C1636 C1624 1.349 . S
C1636 H1630 0.950 . S
C1636 C1637 1.327 . S
C1637 H1631 0.950 . S
C1637 C1636 1.327 . S
C1637 C1641 1.429 . S
C1638 C1621 1.574 . S
C1638 H1632 0.949 . S
C1638 C1642 1.368 . S
C1639 C1620 1.429 . S
C1639 C1633 1.429 . S
C1639 C1640 1.523 . S
C1640 C1621 1.368 . S
C1640 C1634 1.368 . S
C1640 C1639 1.523 . S
C1641 C1625 1.429 . S
C1641 C1637 1.429 . S
C1641 C1642 1.523 . S
C1642 C1626 1.368 . S
C1642 C1638 1.368 . S
C1642 C1641 1.523 . S
H1643 C1618 0.950 . S
H1644 C1620 0.950 . S
H1645 C1621 0.949 . S
H1646 C1623 0.950 . S
H1647 C1625 0.950 . S
C1648 C1649 1.349 . S
C1648 C1650 1.327 . S
C1648 H1673 0.950 . S
C1649 C1648 1.349 . S
C1649 C1665 1.349 . S
C1650 C1648 1.327 . S
C1650 C1669 1.429 . S
C1650 H1674 0.950 . S
C1651 C1668 1.574 . S
C1651 C1670 1.368 . S
C1651 H1675 0.949 . S
H1652 C1656 0.949 . S
C1653 C1654 1.349 . S
C1653 C1655 1.327 . S
C1653 H1676 0.950 . S
C1654 C1653 1.349 . S
C1654 C1666 1.349 . S
C1655 C1653 1.327 . S
C1655 C1671 1.429 . S
C1655 H1677 0.950 . S
C1656 H1652 0.949 . S
C1656 C1664 1.574 . S
C1656 C1672 1.368 . S
H1657 C1665 0.950 . S
H1658 C1663 0.950 . S
H1659 C1664 0.949 . S
H1660 C1666 0.950 . S
H1661 C1667 0.950 . S
H1662 C1668 0.949 . S
C1663 H1658 0.950 . S
C1663 C1665 1.327 . S
C1663 C1669 1.429 . S
C1664 C1656 1.574 . S
C1664 H1659 0.949 . S
C1664 C1670 1.368 . S
C1665 C1649 1.349 . S
C1665 H1657 0.950 . S
C1665 C1663 1.327 . S
C1666 C1654 1.349 . S
C1666 H1660 0.950 . S
C1666 C1667 1.327 . S
C1667 H1661 0.950 . S
C1667 C1666 1.327 . S
C1667 C1671 1.429 . S
C1668 C1651 1.574 . S
C1668 H1662 0.949 . S
C1668 C1672 1.368 . S
C1669 C1650 1.429 . S
C1669 C1663 1.429 . S
C1669 C1670 1.523 . S
C1670 C1651 1.368 . S
C1670 C1664 1.368 . S
C1670 C1669 1.523 . S
C1671 C1655 1.429 . S
C1671 C1667 1.429 . S
C1671 C1672 1.523 . S
C1672 C1656 1.368 . S
C1672 C1668 1.368 . S
C1672 C1671 1.523 . S
H1673 C1648 0.950 . S
H1674 C1650 0.950 . S
H1675 C1651 0.949 . S
H1676 C1653 0.950 . S
H1677 C1655 0.950 . S
C1678 C1679 1.349 . S
C1678 C1680 1.327 . S
C1678 H1703 0.950 . S
C1679 C1678 1.349 . S
C1679 C1695 1.349 . S
C1680 C1678 1.327 . S
C1680 C1699 1.429 . S
C1680 H1704 0.950 . S
C1681 C1698 1.574 . S
C1681 C1700 1.368 . S
C1681 H1705 0.949 . S
H1682 C1686 0.949 . S
C1683 C1684 1.349 . S
C1683 C1685 1.327 . S
C1683 H1706 0.950 . S
C1684 C1683 1.349 . S
C1684 C1696 1.349 . S
C1685 C1683 1.327 . S
C1685 C1701 1.429 . S
C1685 H1707 0.950 . S
C1686 H1682 0.949 . S
C1686 C1694 1.574 . S
C1686 C1702 1.368 . S
H1687 C1695 0.950 . S
H1688 C1693 0.950 . S
H1689 C1694 0.949 . S
H1690 C1696 0.950 . S
H1691 C1697 0.950 . S
H1692 C1698 0.949 . S
C1693 H1688 0.950 . S
C1693 C1695 1.327 . S
C1693 C1699 1.429 . S
C1694 C1686 1.574 . S
C1694 H1689 0.949 . S
C1694 C1700 1.368 . S
C1695 C1679 1.349 . S
C1695 H1687 0.950 . S
C1695 C1693 1.327 . S
C1696 C1684 1.349 . S
C1696 H1690 0.950 . S
C1696 C1697 1.327 . S
C1697 H1691 0.950 . S
C1697 C1696 1.327 . S
C1697 C1701 1.429 . S
C1698 C1681 1.574 . S
C1698 H1692 0.949 . S
C1698 C1702 1.368 . S
C1699 C1680 1.429 . S
C1699 C1693 1.429 . S
C1699 C1700 1.523 . S
C1700 C1681 1.368 . S
C1700 C1694 1.368 . S
C1700 C1699 1.523 . S
C1701 C1685 1.429 . S
C1701 C1697 1.429 . S
C1701 C1702 1.523 . S
C1702 C1686 1.368 . S
C1702 C1698 1.368 . S
C1702 C1701 1.523 . S
H1703 C1678 0.950 . S
H1704 C1680 0.950 . S
H1705 C1681 0.949 . S
H1706 C1683 0.950 . S
H1707 C1685 0.950 . S
C1708 C1709 1.349 . S
C1708 C1710 1.327 . S
C1708 H1733 0.950 . S
C1709 C1708 1.349 . S
C1709 C1725 1.349 . S
C1710 C1708 1.327 . S
C1710 C1729 1.429 . S
C1710 H1734 0.950 . S
C1711 C1728 1.574 . S
C1711 C1730 1.368 . S
C1711 H1735 0.949 . S
H1712 C1716 0.949 . S
C1713 C1714 1.349 . S
C1713 C1715 1.327 . S
C1713 H1736 0.950 . S
C1714 C1713 1.349 . S
C1714 C1726 1.349 . S
C1715 C1713 1.327 . S
C1715 C1731 1.429 . S
C1715 H1737 0.950 . S
C1716 H1712 0.949 . S
C1716 C1724 1.574 . S
C1716 C1732 1.368 . S
H1717 C1725 0.950 . S
H1718 C1723 0.950 . S
H1719 C1724 0.949 . S
H1720 C1726 0.950 . S
H1721 C1727 0.950 . S
H1722 C1728 0.949 . S
C1723 H1718 0.950 . S
C1723 C1725 1.327 . S
C1723 C1729 1.429 . S
C1724 C1716 1.574 . S
C1724 H1719 0.949 . S
C1724 C1730 1.368 . S
C1725 C1709 1.349 . S
C1725 H1717 0.950 . S
C1725 C1723 1.327 . S
C1726 C1714 1.349 . S
C1726 H1720 0.950 . S
C1726 C1727 1.327 . S
C1727 H1721 0.950 . S
C1727 C1726 1.327 . S
C1727 C1731 1.429 . S
C1728 C1711 1.574 . S
C1728 H1722 0.949 . S
C1728 C1732 1.368 . S
C1729 C1710 1.429 . S
C1729 C1723 1.429 . S
C1729 C1730 1.523 . S
C1730 C1711 1.368 . S
C1730 C1724 1.368 . S
C1730 C1729 1.523 . S
C1731 C1715 1.429 . S
C1731 C1727 1.429 . S
C1731 C1732 1.523 . S
C1732 C1716 1.368 . S
C1732 C1728 1.368 . S
C1732 C1731 1.523 . S
H1733 C1708 0.950 . S
H1734 C1710 0.950 . S
H1735 C1711 0.949 . S
H1736 C1713 0.950 . S
H1737 C1715 0.950 . S
C1738 C1739 1.349 . S
C1738 C1740 1.327 . S
C1738 H1763 0.950 . S
C1739 C1738 1.349 . S
C1739 C1755 1.349 . S
C1740 C1738 1.327 . S
C1740 C1759 1.429 . S
C1740 H1764 0.950 . S
C1741 C1758 1.574 . S
C1741 C1760 1.368 . S
C1741 H1765 0.949 . S
H1742 C1746 0.949 . S
C1743 C1744 1.349 . S
C1743 C1745 1.327 . S
C1743 H1766 0.950 . S
C1744 C1743 1.349 . S
C1744 C1756 1.349 . S
C1745 C1743 1.327 . S
C1745 C1761 1.429 . S
C1745 H1767 0.950 . S
C1746 H1742 0.949 . S
C1746 C1754 1.574 . S
C1746 C1762 1.368 . S
H1747 C1755 0.950 . S
H1748 C1753 0.950 . S
H1749 C1754 0.949 . S
H1750 C1756 0.950 . S
H1751 C1757 0.950 . S
H1752 C1758 0.949 . S
C1753 H1748 0.950 . S
C1753 C1755 1.327 . S
C1753 C1759 1.429 . S
C1754 C1746 1.574 . S
C1754 H1749 0.949 . S
C1754 C1760 1.368 . S
C1755 C1739 1.349 . S
C1755 H1747 0.950 . S
C1755 C1753 1.327 . S
C1756 C1744 1.349 . S
C1756 H1750 0.950 . S
C1756 C1757 1.327 . S
C1757 H1751 0.950 . S
C1757 C1756 1.327 . S
C1757 C1761 1.429 . S
C1758 C1741 1.574 . S
C1758 H1752 0.949 . S
C1758 C1762 1.368 . S
C1759 C1740 1.429 . S
C1759 C1753 1.429 . S
C1759 C1760 1.523 . S
C1760 C1741 1.368 . S
C1760 C1754 1.368 . S
C1760 C1759 1.523 . S
C1761 C1745 1.429 . S
C1761 C1757 1.429 . S
C1761 C1762 1.523 . S
C1762 C1746 1.368 . S
C1762 C1758 1.368 . S
C1762 C1761 1.523 . S
H1763 C1738 0.950 . S
H1764 C1740 0.950 . S
H1765 C1741 0.949 . S
H1766 C1743 0.950 . S
H1767 C1745 0.950 . S
C1768 C1769 1.349 . S
C1768 C1770 1.327 . S
C1768 H1793 0.950 . S
C1769 C1768 1.349 . S
C1769 C1785 1.349 . S
C1770 C1768 1.327 . S
C1770 C1789 1.429 . S
C1770 H1794 0.950 . S
C1771 C1788 1.574 . S
C1771 C1790 1.368 . S
C1771 H1795 0.949 . S
H1772 C1776 0.949 . S
C1773 C1774 1.349 . S
C1773 C1775 1.327 . S
C1773 H1796 0.950 . S
C1774 C1773 1.349 . S
C1774 C1786 1.349 . S
C1775 C1773 1.327 . S
C1775 C1791 1.429 . S
C1775 H1797 0.950 . S
C1776 H1772 0.949 . S
C1776 C1784 1.574 . S
C1776 C1792 1.368 . S
H1777 C1785 0.950 . S
H1778 C1783 0.950 . S
H1779 C1784 0.949 . S
H1780 C1786 0.950 . S
H1781 C1787 0.950 . S
H1782 C1788 0.949 . S
C1783 H1778 0.950 . S
C1783 C1785 1.327 . S
C1783 C1789 1.429 . S
C1784 C1776 1.574 . S
C1784 H1779 0.949 . S
C1784 C1790 1.368 . S
C1785 C1769 1.349 . S
C1785 H1777 0.950 . S
C1785 C1783 1.327 . S
C1786 C1774 1.349 . S
C1786 H1780 0.950 . S
C1786 C1787 1.327 . S
C1787 H1781 0.950 . S
C1787 C1786 1.327 . S
C1787 C1791 1.429 . S
C1788 C1771 1.574 . S
C1788 H1782 0.949 . S
C1788 C1792 1.368 . S
C1789 C1770 1.429 . S
C1789 C1783 1.429 . S
C1789 C1790 1.523 . S
C1790 C1771 1.368 . S
C1790 C1784 1.368 . S
C1790 C1789 1.523 . S
C1791 C1775 1.429 . S
C1791 C1787 1.429 . S
C1791 C1792 1.523 . S
C1792 C1776 1.368 . S
C1792 C1788 1.368 . S
C1792 C1791 1.523 . S
H1793 C1768 0.950 . S
H1794 C1770 0.950 . S
H1795 C1771 0.949 . S
H1796 C1773 0.950 . S
H1797 C1775 0.950 . S
C1798 C1799 1.349 . S
C1798 C1800 1.327 . S
C1798 H1823 0.950 . S
C1799 C1798 1.349 . S
C1799 C1815 1.349 . S
C1800 C1798 1.327 . S
C1800 C1819 1.429 . S
C1800 H1824 0.950 . S
C1801 C1818 1.574 . S
C1801 C1820 1.368 . S
C1801 H1825 0.949 . S
H1802 C1806 0.949 . S
C1803 C1804 1.349 . S
C1803 C1805 1.327 . S
C1803 H1826 0.950 . S
C1804 C1803 1.349 . S
C1804 C1816 1.349 . S
C1805 C1803 1.327 . S
C1805 C1821 1.429 . S
C1805 H1827 0.950 . S
C1806 H1802 0.949 . S
C1806 C1814 1.574 . S
C1806 C1822 1.368 . S
H1807 C1815 0.950 . S
H1808 C1813 0.950 . S
H1809 C1814 0.949 . S
H1810 C1816 0.950 . S
H1811 C1817 0.950 . S
H1812 C1818 0.949 . S
C1813 H1808 0.950 . S
C1813 C1815 1.327 . S
C1813 C1819 1.429 . S
C1814 C1806 1.574 . S
C1814 H1809 0.949 . S
C1814 C1820 1.368 . S
C1815 C1799 1.349 . S
C1815 H1807 0.950 . S
C1815 C1813 1.327 . S
C1816 C1804 1.349 . S
C1816 H1810 0.950 . S
C1816 C1817 1.327 . S
C1817 H1811 0.950 . S
C1817 C1816 1.327 . S
C1817 C1821 1.429 . S
C1818 C1801 1.574 . S
C1818 H1812 0.949 . S
C1818 C1822 1.368 . S
C1819 C1800 1.429 . S
C1819 C1813 1.429 . S
C1819 C1820 1.523 . S
C1820 C1801 1.368 . S
C1820 C1814 1.368 . S
C1820 C1819 1.523 . S
C1821 C1805 1.429 . S
C1821 C1817 1.429 . S
C1821 C1822 1.523 . S
C1822 C1806 1.368 . S
C1822 C1818 1.368 . S
C1822 C1821 1.523 . S
H1823 C1798 0.950 . S
H1824 C1800 0.950 . S
H1825 C1801 0.949 . S
H1826 C1803 0.950 . S
H1827 C1805 0.950 . S
C1828 C1829 1.349 . S
C1828 C1830 1.327 . S
C1828 H1853 0.950 . S
C1829 C1828 1.349 . S
C1829 C1845 1.349 . S
C1830 C1828 1.327 . S
C1830 C1849 1.429 . S
C1830 H1854 0.950 . S
C1831 C1848 1.574 . S
C1831 C1850 1.368 . S
C1831 H1855 0.949 . S
H1832 C1836 0.949 . S
C1833 C1834 1.349 . S
C1833 C1835 1.327 . S
C1833 H1856 0.950 . S
C1834 C1833 1.349 . S
C1834 C1846 1.349 . S
C1835 C1833 1.327 . S
C1835 C1851 1.429 . S
C1835 H1857 0.950 . S
C1836 H1832 0.949 . S
C1836 C1844 1.574 . S
C1836 C1852 1.368 . S
H1837 C1845 0.950 . S
H1838 C1843 0.950 . S
H1839 C1844 0.949 . S
H1840 C1846 0.950 . S
H1841 C1847 0.950 . S
H1842 C1848 0.949 . S
C1843 H1838 0.950 . S
C1843 C1845 1.327 . S
C1843 C1849 1.429 . S
C1844 C1836 1.574 . S
C1844 H1839 0.949 . S
C1844 C1850 1.368 . S
C1845 C1829 1.349 . S
C1845 H1837 0.950 . S
C1845 C1843 1.327 . S
C1846 C1834 1.349 . S
C1846 H1840 0.950 . S
C1846 C1847 1.327 . S
C1847 H1841 0.950 . S
C1847 C1846 1.327 . S
C1847 C1851 1.429 . S
C1848 C1831 1.574 . S
C1848 H1842 0.949 . S
C1848 C1852 1.368 . S
C1849 C1830 1.429 . S
C1849 C1843 1.429 . S
C1849 C1850 1.523 . S
C1850 C1831 1.368 . S
C1850 C1844 1.368 . S
C1850 C1849 1.523 . S
C1851 C1835 1.429 . S
C1851 C1847 1.429 . S
C1851 C1852 1.523 . S
C1852 C1836 1.368 . S
C1852 C1848 1.368 . S
C1852 C1851 1.523 . S
H1853 C1828 0.950 . S
H1854 C1830 0.950 . S
H1855 C1831 0.949 . S
H1856 C1833 0.950 . S
H1857 C1835 0.950 . S
C1858 C1859 1.349 . S
C1858 C1860 1.327 . S
C1858 H1883 0.950 . S
C1859 C1858 1.349 . S
C1859 C1875 1.349 . S
C1860 C1858 1.327 . S
C1860 C1879 1.429 . S
C1860 H1884 0.950 . S
C1861 C1878 1.574 . S
C1861 C1880 1.368 . S
C1861 H1885 0.949 . S
H1862 C1866 0.949 . S
C1863 C1864 1.349 . S
C1863 C1865 1.327 . S
C1863 H1886 0.950 . S
C1864 C1863 1.349 . S
C1864 C1876 1.349 . S
C1865 C1863 1.327 . S
C1865 C1881 1.429 . S
C1865 H1887 0.950 . S
C1866 H1862 0.949 . S
C1866 C1874 1.574 . S
C1866 C1882 1.368 . S
H1867 C1875 0.950 . S
H1868 C1873 0.950 . S
H1869 C1874 0.949 . S
H1870 C1876 0.950 . S
H1871 C1877 0.950 . S
H1872 C1878 0.949 . S
C1873 H1868 0.950 . S
C1873 C1875 1.327 . S
C1873 C1879 1.429 . S
C1874 C1866 1.574 . S
C1874 H1869 0.949 . S
C1874 C1880 1.368 . S
C1875 C1859 1.349 . S
C1875 H1867 0.950 . S
C1875 C1873 1.327 . S
C1876 C1864 1.349 . S
C1876 H1870 0.950 . S
C1876 C1877 1.327 . S
C1877 H1871 0.950 . S
C1877 C1876 1.327 . S
C1877 C1881 1.429 . S
C1878 C1861 1.574 . S
C1878 H1872 0.949 . S
C1878 C1882 1.368 . S
C1879 C1860 1.429 . S
C1879 C1873 1.429 . S
C1879 C1880 1.523 . S
C1880 C1861 1.368 . S
C1880 C1874 1.368 . S
C1880 C1879 1.523 . S
C1881 C1865 1.429 . S
C1881 C1877 1.429 . S
C1881 C1882 1.523 . S
C1882 C1866 1.368 . S
C1882 C1878 1.368 . S
C1882 C1881 1.523 . S
H1883 C1858 0.950 . S
H1884 C1860 0.950 . S
H1885 C1861 0.949 . S
H1886 C1863 0.950 . S
H1887 C1865 0.950 . S
C1888 C1889 1.349 . S
C1888 C1890 1.327 . S
C1888 H1913 0.950 . S
C1889 C1888 1.349 . S
C1889 C1905 1.349 . S
C1890 C1888 1.327 . S
C1890 C1909 1.429 . S
C1890 H1914 0.950 . S
C1891 C1908 1.574 . S
C1891 C1910 1.368 . S
C1891 H1915 0.949 . S
H1892 C1896 0.949 . S
C1893 C1894 1.349 . S
C1893 C1895 1.327 . S
C1893 H1916 0.950 . S
C1894 C1893 1.349 . S
C1894 C1906 1.349 . S
C1895 C1893 1.327 . S
C1895 C1911 1.429 . S
C1895 H1917 0.950 . S
C1896 H1892 0.949 . S
C1896 C1904 1.574 . S
C1896 C1912 1.368 . S
H1897 C1905 0.950 . S
H1898 C1903 0.950 . S
H1899 C1904 0.949 . S
H1900 C1906 0.950 . S
H1901 C1907 0.950 . S
H1902 C1908 0.949 . S
C1903 H1898 0.950 . S
C1903 C1905 1.327 . S
C1903 C1909 1.429 . S
C1904 C1896 1.574 . S
C1904 H1899 0.949 . S
C1904 C1910 1.368 . S
C1905 C1889 1.349 . S
C1905 H1897 0.950 . S
C1905 C1903 1.327 . S
C1906 C1894 1.349 . S
C1906 H1900 0.950 . S
C1906 C1907 1.327 . S
C1907 H1901 0.950 . S
C1907 C1906 1.327 . S
C1907 C1911 1.429 . S
C1908 C1891 1.574 . S
C1908 H1902 0.949 . S
C1908 C1912 1.368 . S
C1909 C1890 1.429 . S
C1909 C1903 1.429 . S
C1909 C1910 1.523 . S
C1910 C1891 1.368 . S
C1910 C1904 1.368 . S
C1910 C1909 1.523 . S
C1911 C1895 1.429 . S
C1911 C1907 1.429 . S
C1911 C1912 1.523 . S
C1912 C1896 1.368 . S
C1912 C1908 1.368 . S
C1912 C1911 1.523 . S
H1913 C1888 0.950 . S
H1914 C1890 0.950 . S
H1915 C1891 0.949 . S
H1916 C1893 0.950 . S
H1917 C1895 0.950 . S
C1918 C1919 1.349 . S
C1918 C1920 1.327 . S
C1918 H1943 0.950 . S
C1919 C1918 1.349 . S
C1919 C1935 1.349 . S
C1920 C1918 1.327 . S
C1920 C1939 1.429 . S
C1920 H1944 0.950 . S
C1921 C1938 1.574 . S
C1921 C1940 1.368 . S
C1921 H1945 0.949 . S
H1922 C1926 0.949 . S
C1923 C1924 1.349 . S
C1923 C1925 1.327 . S
C1923 H1946 0.950 . S
C1924 C1923 1.349 . S
C1924 C1936 1.349 . S
C1925 C1923 1.327 . S
C1925 C1941 1.429 . S
C1925 H1947 0.950 . S
C1926 H1922 0.949 . S
C1926 C1934 1.574 . S
C1926 C1942 1.368 . S
H1927 C1935 0.950 . S
H1928 C1933 0.950 . S
H1929 C1934 0.949 . S
H1930 C1936 0.950 . S
H1931 C1937 0.950 . S
H1932 C1938 0.949 . S
C1933 H1928 0.950 . S
C1933 C1935 1.327 . S
C1933 C1939 1.429 . S
C1934 C1926 1.574 . S
C1934 H1929 0.949 . S
C1934 C1940 1.368 . S
C1935 C1919 1.349 . S
C1935 H1927 0.950 . S
C1935 C1933 1.327 . S
C1936 C1924 1.349 . S
C1936 H1930 0.950 . S
C1936 C1937 1.327 . S
C1937 H1931 0.950 . S
C1937 C1936 1.327 . S
C1937 C1941 1.429 . S
C1938 C1921 1.574 . S
C1938 H1932 0.949 . S
C1938 C1942 1.368 . S
C1939 C1920 1.429 . S
C1939 C1933 1.429 . S
C1939 C1940 1.523 . S
C1940 C1921 1.368 . S
C1940 C1934 1.368 . S
C1940 C1939 1.523 . S
C1941 C1925 1.429 . S
C1941 C1937 1.429 . S
C1941 C1942 1.523 . S
C1942 C1926 1.368 . S
C1942 C1938 1.368 . S
C1942 C1941 1.523 . S
H1943 C1918 0.950 . S
H1944 C1920 0.950 . S
H1945 C1921 0.949 . S
H1946 C1923 0.950 . S
H1947 C1925 0.950 . S
C1948 C1949 1.349 . S
C1948 C1950 1.327 . S
C1948 H1973 0.950 . S
C1949 C1948 1.349 . S
C1949 C1965 1.349 . S
C1950 C1948 1.327 . S
C1950 C1969 1.429 . S
C1950 H1974 0.950 . S
C1951 C1968 1.574 . S
C1951 C1970 1.368 . S
C1951 H1975 0.949 . S
H1952 C1956 0.949 . S
C1953 C1954 1.349 . S
C1953 C1955 1.327 . S
C1953 H1976 0.950 . S
C1954 C1953 1.349 . S
C1954 C1966 1.349 . S
C1955 C1953 1.327 . S
C1955 C1971 1.429 . S
C1955 H1977 0.950 . S
C1956 H1952 0.949 . S
C1956 C1964 1.574 . S
C1956 C1972 1.368 . S
H1957 C1965 0.950 . S
H1958 C1963 0.950 . S
H1959 C1964 0.949 . S
H1960 C1966 0.950 . S
H1961 C1967 0.950 . S
H1962 C1968 0.949 . S
C1963 H1958 0.950 . S
C1963 C1965 1.327 . S
C1963 C1969 1.429 . S
C1964 C1956 1.574 . S
C1964 H1959 0.949 . S
C1964 C1970 1.368 . S
C1965 C1949 1.349 . S
C1965 H1957 0.950 . S
C1965 C1963 1.327 . S
C1966 C1954 1.349 . S
C1966 H1960 0.950 . S
C1966 C1967 1.327 . S
C1967 H1961 0.950 . S
C1967 C1966 1.327 . S
C1967 C1971 1.429 . S
C1968 C1951 1.574 . S
C1968 H1962 0.949 . S
C1968 C1972 1.368 . S
C1969 C1950 1.429 . S
C1969 C1963 1.429 . S
C1969 C1970 1.523 . S
C1970 C1951 1.368 . S
C1970 C1964 1.368 . S
C1970 C1969 1.523 . S
C1971 C1955 1.429 . S
C1971 C1967 1.429 . S
C1971 C1972 1.523 . S
C1972 C1956 1.368 . S
C1972 C1968 1.368 . S
C1972 C1971 1.523 . S
H1973 C1948 0.950 . S
H1974 C1950 0.950 . S
H1975 C1951 0.949 . S
H1976 C1953 0.950 . S
H1977 C1955 0.950 . S
C1978 C1979 1.349 . S
C1978 C1980 1.327 . S
C1978 H2003 0.950 . S
C1979 C1978 1.349 . S
C1979 C1995 1.349 . S
C1980 C1978 1.327 . S
C1980 C1999 1.429 . S
C1980 H2004 0.950 . S
C1981 C1998 1.574 . S
C1981 C2000 1.368 . S
C1981 H2005 0.949 . S
H1982 C1986 0.949 . S
C1983 C1984 1.349 . S
C1983 C1985 1.327 . S
C1983 H2006 0.950 . S
C1984 C1983 1.349 . S
C1984 C1996 1.349 . S
C1985 C1983 1.327 . S
C1985 C2001 1.429 . S
C1985 H2007 0.950 . S
C1986 H1982 0.949 . S
C1986 C1994 1.574 . S
C1986 C2002 1.368 . S
H1987 C1995 0.950 1_545 S
H1988 C1993 0.950 . S
H1989 C1994 0.949 . S
H1990 C1996 0.950 . S
H1991 C1997 0.950 . S
H1992 C1998 0.949 . S
C1993 H1988 0.950 . S
C1993 C1995 1.327 . S
C1993 C1999 1.429 . S
C1994 C1986 1.574 . S
C1994 H1989 0.949 . S
C1994 C2000 1.368 . S
C1995 C1979 1.349 . S
C1995 H1987 0.950 1_565 S
C1995 C1993 1.327 . S
C1996 C1984 1.349 . S
C1996 H1990 0.950 . S
C1996 C1997 1.327 . S
C1997 H1991 0.950 . S
C1997 C1996 1.327 . S
C1997 C2001 1.429 . S
C1998 C1981 1.574 . S
C1998 H1992 0.949 . S
C1998 C2002 1.368 . S
C1999 C1980 1.429 . S
C1999 C1993 1.429 . S
C1999 C2000 1.523 . S
C2000 C1981 1.368 . S
C2000 C1994 1.368 . S
C2000 C1999 1.523 . S
C2001 C1985 1.429 . S
C2001 C1997 1.429 . S
C2001 C2002 1.523 . S
C2002 C1986 1.368 . S
C2002 C1998 1.368 . S
C2002 C2001 1.523 . S
H2003 C1978 0.950 . S
H2004 C1980 0.950 . S
H2005 C1981 0.949 . S
H2006 C1983 0.950 . S
H2007 C1985 0.950 . S
C2008 C2009 1.349 . S
C2008 C2010 1.327 . S
C2008 H2033 0.950 . S
C2009 C2008 1.349 . S
C2009 C2025 1.349 . S
C2010 C2008 1.327 . S
C2010 C2029 1.429 . S
C2010 H2034 0.950 . S
C2011 C2028 1.574 . S
C2011 C2030 1.368 . S
C2011 H2035 0.949 . S
H2012 C2016 0.949 . S
C2013 C2014 1.349 . S
C2013 C2015 1.327 . S
C2013 H2036 0.950 1_455 S
C2014 C2013 1.349 . S
C2014 C2026 1.349 . S
C2015 C2013 1.327 . S
C2015 C2031 1.429 . S
C2015 H2037 0.950 . S
C2016 H2012 0.949 . S
C2016 C2024 1.574 . S
C2016 C2032 1.368 . S
H2017 C2025 0.950 . S
H2018 C2023 0.950 . S
H2019 C2024 0.949 . S
H2020 C2026 0.950 . S
H2021 C2027 0.950 . S
H2022 C2028 0.949 . S
C2023 H2018 0.950 . S
C2023 C2025 1.327 . S
C2023 C2029 1.429 . S
C2024 C2016 1.574 . S
C2024 H2019 0.949 . S
C2024 C2030 1.368 . S
C2025 C2009 1.349 . S
C2025 H2017 0.950 . S
C2025 C2023 1.327 . S
C2026 C2014 1.349 . S
C2026 H2020 0.950 . S
C2026 C2027 1.327 . S
C2027 H2021 0.950 . S
C2027 C2026 1.327 . S
C2027 C2031 1.429 . S
C2028 C2011 1.574 . S
C2028 H2022 0.949 . S
C2028 C2032 1.368 . S
C2029 C2010 1.429 . S
C2029 C2023 1.429 . S
C2029 C2030 1.523 . S
C2030 C2011 1.368 . S
C2030 C2024 1.368 . S
C2030 C2029 1.523 . S
C2031 C2015 1.429 . S
C2031 C2027 1.429 . S
C2031 C2032 1.523 . S
C2032 C2016 1.368 . S
C2032 C2028 1.368 . S
C2032 C2031 1.523 . S
H2033 C2008 0.950 . S
H2034 C2010 0.950 . S
H2035 C2011 0.949 . S
H2036 C2013 0.950 1_655 S
H2037 C2015 0.950 . S
C2038 C2039 1.349 . S
C2038 C2040 1.327 . S
C2038 H2063 0.950 . S
C2039 C2038 1.349 . S
C2039 C2055 1.349 . S
C2040 C2038 1.327 . S
C2040 C2059 1.429 . S
C2040 H2064 0.950 . S
C2041 C2058 1.574 . S
C2041 C2060 1.368 . S
C2041 H2065 0.949 . S
H2042 C2046 0.949 . S
C2043 C2044 1.349 . S
C2043 C2045 1.327 . S
C2043 H2066 0.950 . S
C2044 C2043 1.349 . S
C2044 C2056 1.349 . S
C2045 C2043 1.327 . S
C2045 C2061 1.429 . S
C2045 H2067 0.950 . S
C2046 H2042 0.949 . S
C2046 C2054 1.574 . S
C2046 C2062 1.368 . S
H2047 C2055 0.950 . S
H2048 C2053 0.950 . S
H2049 C2054 0.949 . S
H2050 C2056 0.950 . S
H2051 C2057 0.950 . S
H2052 C2058 0.949 . S
C2053 H2048 0.950 . S
C2053 C2055 1.327 . S
C2053 C2059 1.429 . S
C2054 C2046 1.574 . S
C2054 H2049 0.949 . S
C2054 C2060 1.368 . S
C2055 C2039 1.349 . S
C2055 H2047 0.950 . S
C2055 C2053 1.327 . S
C2056 C2044 1.349 . S
C2056 H2050 0.950 . S
C2056 C2057 1.327 . S
C2057 H2051 0.950 . S
C2057 C2056 1.327 . S
C2057 C2061 1.429 . S
C2058 C2041 1.574 . S
C2058 H2052 0.949 . S
C2058 C2062 1.368 . S
C2059 C2040 1.429 . S
C2059 C2053 1.429 . S
C2059 C2060 1.523 . S
C2060 C2041 1.368 . S
C2060 C2054 1.368 . S
C2060 C2059 1.523 . S
C2061 C2045 1.429 . S
C2061 C2057 1.429 . S
C2061 C2062 1.523 . S
C2062 C2046 1.368 . S
C2062 C2058 1.368 . S
C2062 C2061 1.523 . S
H2063 C2038 0.950 . S
H2064 C2040 0.950 . S
H2065 C2041 0.949 . S
H2066 C2043 0.950 . S
H2067 C2045 0.950 . S
C2068 C2069 1.349 . S
C2068 C2070 1.327 . S
C2068 H2093 0.950 1_655 S
C2069 C2068 1.349 . S
C2069 C2085 1.349 . S
C2070 C2068 1.327 . S
C2070 C2089 1.429 . S
C2070 H2094 0.950 . S
C2071 C2088 1.574 . S
C2071 C2090 1.368 . S
C2071 H2095 0.949 . S
H2072 C2076 0.949 . S
C2073 C2074 1.349 . S
C2073 C2075 1.327 . S
C2073 H2096 0.950 . S
C2074 C2073 1.349 . S
C2074 C2086 1.349 . S
C2075 C2073 1.327 . S
C2075 C2091 1.429 . S
C2075 H2097 0.950 . S
C2076 H2072 0.949 . S
C2076 C2084 1.574 . S
C2076 C2092 1.368 . S
H2077 C2085 0.950 . S
H2078 C2083 0.950 . S
H2079 C2084 0.949 . S
H2080 C2086 0.950 . S
H2081 C2087 0.950 . S
H2082 C2088 0.949 . S
C2083 H2078 0.950 . S
C2083 C2085 1.327 . S
C2083 C2089 1.429 . S
C2084 C2076 1.574 . S
C2084 H2079 0.949 . S
C2084 C2090 1.368 . S
C2085 C2069 1.349 . S
C2085 H2077 0.950 . S
C2085 C2083 1.327 . S
C2086 C2074 1.349 . S
C2086 H2080 0.950 . S
C2086 C2087 1.327 . S
C2087 H2081 0.950 . S
C2087 C2086 1.327 . S
C2087 C2091 1.429 . S
C2088 C2071 1.574 . S
C2088 H2082 0.949 . S
C2088 C2092 1.368 . S
C2089 C2070 1.429 . S
C2089 C2083 1.429 . S
C2089 C2090 1.523 . S
C2090 C2071 1.368 . S
C2090 C2084 1.368 . S
C2090 C2089 1.523 . S
C2091 C2075 1.429 . S
C2091 C2087 1.429 . S
C2091 C2092 1.523 . S
C2092 C2076 1.368 . S
C2092 C2088 1.368 . S
C2092 C2091 1.523 . S
H2093 C2068 0.950 1_455 S
H2094 C2070 0.950 . S
H2095 C2071 0.949 . S
H2096 C2073 0.950 . S
H2097 C2075 0.950 . S
C2098 C2099 1.349 . S
C2098 C2100 1.327 . S
C2098 H2123 0.944 1_565 S
C2099 C2098 1.349 . S
C2099 C2115 1.349 . S
C2100 C2098 1.327 . S
C2100 C2119 1.429 . S
C2100 H2124 0.950 . S
C2101 C2118 1.574 . S
C2101 C2120 1.368 . S
C2101 H2125 0.949 . S
H2102 C2106 0.949 . S
C2103 C2104 1.349 . S
C2103 C2105 1.327 . S
C2103 H2126 0.950 . S
C2104 C2103 1.349 . S
C2104 C2116 1.349 . S
C2105 C2103 1.327 . S
C2105 C2121 1.429 . S
C2105 H2127 0.950 . S
C2106 H2102 0.949 . S
C2106 C2114 1.574 . S
C2106 C2122 1.368 . S
H2107 C2115 0.950 . S
H2108 C2113 0.950 . S
H2109 C2114 0.949 . S
H2110 C2116 0.950 . S
H2111 C2117 0.950 . S
H2112 C2118 0.949 . S
C2113 H2108 0.950 . S
C2113 C2115 1.327 . S
C2113 C2119 1.429 . S
C2114 C2106 1.574 . S
C2114 H2109 0.949 . S
C2114 C2120 1.368 . S
C2115 C2099 1.349 . S
C2115 H2107 0.950 . S
C2115 C2113 1.327 . S
C2116 C2104 1.349 . S
C2116 H2110 0.950 . S
C2116 C2117 1.327 . S
C2117 H2111 0.950 . S
C2117 C2116 1.327 . S
C2117 C2121 1.429 . S
C2118 C2101 1.574 . S
C2118 H2112 0.949 . S
C2118 C2122 1.368 . S
C2119 C2100 1.429 . S
C2119 C2113 1.429 . S
C2119 C2120 1.523 . S
C2120 C2101 1.368 . S
C2120 C2114 1.368 . S
C2120 C2119 1.523 . S
C2121 C2105 1.429 . S
C2121 C2117 1.429 . S
C2121 C2122 1.523 . S
C2122 C2106 1.368 . S
C2122 C2118 1.368 . S
C2122 C2121 1.523 . S
H2123 C2098 0.944 1_545 S
H2124 C2100 0.950 . S
H2125 C2101 0.949 . S
H2126 C2103 0.950 . S
H2127 C2105 0.950 . S
C2128 C2129 1.349 . S
C2128 C2130 1.327 . S
C2128 H2153 0.950 . S
C2129 C2128 1.349 . S
C2129 C2145 1.349 1_655 S
C2130 C2128 1.327 . S
C2130 C2149 1.429 . S
C2130 H2154 0.950 . S
C2131 C2148 1.574 . S
C2131 C2150 1.354 1_455 S
C2131 H2155 0.949 . S
H2132 C2136 0.949 . S
C2133 C2134 1.349 . S
C2133 C2135 1.327 . S
C2133 H2156 0.950 . S
C2134 C2133 1.349 . S
C2134 C2146 1.349 1_455 S
C2135 C2133 1.327 . S
C2135 C2151 1.429 . S
C2135 H2157 0.950 . S
C2136 H2132 0.949 . S
C2136 C2144 1.574 . S
C2136 C2152 1.354 1_655 S
H2137 C2145 0.950 . S
H2138 C2143 0.950 . S
H2139 C2144 0.949 . S
H2140 C2146 0.950 . S
H2141 C2147 0.950 . S
H2142 C2148 0.949 . S
C2143 H2138 0.950 . S
C2143 C2145 1.327 . S
C2143 C2149 1.429 1_455 S
C2144 C2136 1.574 . S
C2144 H2139 0.949 . S
C2144 C2150 1.383 . S
C2145 C2129 1.349 1_455 S
C2145 H2137 0.950 . S
C2145 C2143 1.327 . S
C2146 C2134 1.349 1_655 S
C2146 H2140 0.950 . S
C2146 C2147 1.327 . S
C2147 H2141 0.950 . S
C2147 C2146 1.327 . S
C2147 C2151 1.429 1_655 S
C2148 C2131 1.574 . S
C2148 H2142 0.949 . S
C2148 C2152 1.383 . S
C2149 C2130 1.429 . S
C2149 C2143 1.429 1_655 S
C2149 C2150 1.524 . S
C2150 C2131 1.354 1_655 S
C2150 C2144 1.383 . S
C2150 C2149 1.524 . S
C2151 C2135 1.429 . S
C2151 C2147 1.429 1_455 S
C2151 C2152 1.524 . S
C2152 C2136 1.354 1_455 S
C2152 C2148 1.383 . S
C2152 C2151 1.524 . S
H2153 C2128 0.950 . S
H2154 C2130 0.950 . S
H2155 C2131 0.949 . S
H2156 C2133 0.950 . S
H2157 C2135 0.950 . S
C2158 C2159 1.349 1_565 S
C2158 C2160 1.327 . S
C2158 H2183 0.950 . S
C2159 C2158 1.349 1_545 S
C2159 C2175 1.349 . S
C2160 C2158 1.327 . S
C2160 C2179 1.429 1_565 S
C2160 H2184 0.950 . S
C2161 C2178 1.574 . S
C2161 C2180 1.388 . S
C2161 H2185 0.949 . S
H2162 C2166 0.949 . S
C2163 C2164 1.349 1_545 S
C2163 C2165 1.327 . S
C2163 H2186 0.950 . S
C2164 C2163 1.349 1_565 S
C2164 C2176 1.349 . S
C2165 C2163 1.327 . S
C2165 C2181 1.429 1_545 S
C2165 H2187 0.950 . S
C2166 H2162 0.949 . S
C2166 C2174 1.574 . S
C2166 C2182 1.388 . S
H2167 C2175 0.950 . S
H2168 C2173 0.950 . S
H2169 C2174 0.949 . S
H2170 C2176 0.950 . S
H2171 C2177 0.950 . S
H2172 C2178 0.949 . S
C2173 H2168 0.950 . S
C2173 C2175 1.327 . S
C2173 C2179 1.429 . S
C2174 C2166 1.574 . S
C2174 H2169 0.949 . S
C2174 C2180 1.348 1_565 S
C2175 C2159 1.349 . S
C2175 H2167 0.950 . S
C2175 C2173 1.327 . S
C2176 C2164 1.349 . S
C2176 H2170 0.950 . S
C2176 C2177 1.327 . S
C2177 H2171 0.950 . S
C2177 C2176 1.327 . S
C2177 C2181 1.429 . S
C2178 C2161 1.574 . S
C2178 H2172 0.949 . S
C2178 C2182 1.348 1_545 S
C2179 C2160 1.429 1_545 S
C2179 C2173 1.429 . S
C2179 C2180 1.524 . S
C2180 C2161 1.388 . S
C2180 C2174 1.348 1_545 S
C2180 C2179 1.524 . S
C2181 C2165 1.429 1_565 S
C2181 C2177 1.429 . S
C2181 C2182 1.524 . S
C2182 C2166 1.388 . S
C2182 C2178 1.348 1_565 S
C2182 C2181 1.524 . S
H2183 C2158 0.950 . S
H2184 C2160 0.950 . S
H2185 C2161 0.949 . S
H2186 C2163 0.950 . S
H2187 C2165 0.950 . S
C2188 C2189 1.349 1_455 S
C2188 C2190 1.327 . S
C2188 H2213 0.950 . S
C2189 C2188 1.349 1_655 S
C2189 C2205 1.349 . S
C2190 C2188 1.327 . S
C2190 C2209 1.429 1_455 S
C2190 H2214 0.950 . S
C2191 C2208 1.574 . S
C2191 C2210 1.383 . S
C2191 H2215 0.949 . S
H2192 C2196 0.949 . S
C2193 C2194 1.349 1_655 S
C2193 C2195 1.327 . S
C2193 H2216 0.950 . S
C2194 C2193 1.349 1_455 S
C2194 C2206 1.349 . S
C2195 C2193 1.327 . S
C2195 C2211 1.429 1_655 S
C2195 H2217 0.950 . S
C2196 H2192 0.949 . S
C2196 C2204 1.574 . S
C2196 C2212 1.383 . S
H2197 C2205 0.950 . S
H2198 C2203 0.950 . S
H2199 C2204 0.949 . S
H2200 C2206 0.950 . S
H2201 C2207 0.950 . S
H2202 C2208 0.949 . S
C2203 H2198 0.950 . S
C2203 C2205 1.327 . S
C2203 C2209 1.429 . S
C2204 C2196 1.574 . S
C2204 H2199 0.949 . S
C2204 C2210 1.354 1_455 S
C2205 C2189 1.349 . S
C2205 H2197 0.950 . S
C2205 C2203 1.327 . S
C2206 C2194 1.349 . S
C2206 H2200 0.950 . S
C2206 C2207 1.327 . S
C2207 H2201 0.950 . S
C2207 C2206 1.327 . S
C2207 C2211 1.429 . S
C2208 C2191 1.574 . S
C2208 H2202 0.949 . S
C2208 C2212 1.354 1_655 S
C2209 C2190 1.429 1_655 S
C2209 C2203 1.429 . S
C2209 C2210 1.524 . S
C2210 C2191 1.383 . S
C2210 C2204 1.354 1_655 S
C2210 C2209 1.524 . S
C2211 C2195 1.429 1_455 S
C2211 C2207 1.429 . S
C2211 C2212 1.524 . S
C2212 C2196 1.383 . S
C2212 C2208 1.354 1_455 S
C2212 C2211 1.524 . S
H2213 C2188 0.950 . S
H2214 C2190 0.950 . S
H2215 C2191 0.949 . S
H2216 C2193 0.950 . S
H2217 C2195 0.950 . S
C2218 C2219 1.349 . S
C2218 C2220 1.327 . S
C2218 H2243 0.950 . S
C2219 C2218 1.349 . S
C2219 C2235 1.349 1_565 S
C2220 C2218 1.327 . S
C2220 C2239 1.429 . S
C2220 H2244 0.950 . S
C2221 C2238 1.574 . S
C2221 C2240 1.349 1_545 S
C2221 H2245 0.949 . S
H2222 C2226 0.949 . S
C2223 C2224 1.349 . S
C2223 C2225 1.327 . S
C2223 H2246 0.950 . S
C2224 C2223 1.349 . S
C2224 C2236 1.349 1_545 S
C2225 C2223 1.327 . S
C2225 C2241 1.429 . S
C2225 H2247 0.950 . S
C2226 H2222 0.949 . S
C2226 C2234 1.574 . S
C2226 C2242 1.349 1_565 S
H2227 C2235 0.950 . S
H2228 C2233 0.950 . S
H2229 C2234 0.949 . S
H2230 C2236 0.950 . S
H2231 C2237 0.950 . S
H2232 C2238 0.949 . S
C2233 H2228 0.950 . S
C2233 C2235 1.327 . S
C2233 C2239 1.429 1_545 S
C2234 C2226 1.574 . S
C2234 H2229 0.949 . S
C2234 C2240 1.388 . S
C2235 C2219 1.349 1_545 S
C2235 H2227 0.950 . S
C2235 C2233 1.327 . S
C2236 C2224 1.349 1_565 S
C2236 H2230 0.950 . S
C2236 C2237 1.327 . S
C2237 H2231 0.950 . S
C2237 C2236 1.327 . S
C2237 C2241 1.429 1_565 S
C2238 C2221 1.574 . S
C2238 H2232 0.949 . S
C2238 C2242 1.388 . S
C2239 C2220 1.429 . S
C2239 C2233 1.429 1_565 S
C2239 C2240 1.524 . S
C2240 C2221 1.349 1_565 S
C2240 C2234 1.388 . S
C2240 C2239 1.524 . S
C2241 C2225 1.429 . S
C2241 C2237 1.429 1_545 S
C2241 C2242 1.524 . S
C2242 C2226 1.349 1_545 S
C2242 C2238 1.388 . S
C2242 C2241 1.524 . S
H2243 C2218 0.950 . S
H2244 C2220 0.950 . S
H2245 C2221 0.949 . S
H2246 C2223 0.950 . S
H2247 C2225 0.950 . S
C2248 C2249 1.349 . S
C2248 C2250 1.327 . S
C2248 H2273 0.950 . S
C2249 C2248 1.349 . S
C2249 C2265 1.349 . S
C2250 C2248 1.327 . S
C2250 C2269 1.429 . S
C2250 H2274 0.950 . S
C2251 C2268 1.574 1_556 S
C2251 C2270 1.368 . S
C2251 H2275 0.949 . S
H2252 C2256 0.949 . S
C2253 C2254 1.349 . S
C2253 C2255 1.327 . S
C2253 H2276 0.950 . S
C2254 C2253 1.349 . S
C2254 C2266 1.349 . S
C2255 C2253 1.327 . S
C2255 C2271 1.429 . S
C2255 H2277 0.950 . S
C2256 H2252 0.949 . S
C2256 C2264 1.574 1_554 S
C2256 C2272 1.368 . S
H2257 C2265 0.950 . S
H2258 C2263 0.950 . S
H2259 C2264 0.949 . S
H2260 C2266 0.950 . S
H2261 C2267 0.950 . S
H2262 C2268 0.949 . S
C2263 H2258 0.950 . S
C2263 C2265 1.327 . S
C2263 C2269 1.429 . S
C2264 C2256 1.574 1_556 S
C2264 H2259 0.949 . S
C2264 C2270 1.368 . S
C2265 C2249 1.349 . S
C2265 H2257 0.950 . S
C2265 C2263 1.327 . S
C2266 C2254 1.349 . S
C2266 H2260 0.950 . S
C2266 C2267 1.327 . S
C2267 H2261 0.950 . S
C2267 C2266 1.327 . S
C2267 C2271 1.429 . S
C2268 C2251 1.574 1_554 S
C2268 H2262 0.949 . S
C2268 C2272 1.368 . S
C2269 C2250 1.429 . S
C2269 C2263 1.429 . S
C2269 C2270 1.523 . S
C2270 C2251 1.368 . S
C2270 C2264 1.368 . S
C2270 C2269 1.523 . S
C2271 C2255 1.429 . S
C2271 C2267 1.429 . S
C2271 C2272 1.523 . S
C2272 C2256 1.368 . S
C2272 C2268 1.368 . S
C2272 C2271 1.523 . S
H2273 C2248 0.950 . S
H2274 C2250 0.950 . S
H2275 C2251 0.949 . S
H2276 C2253 0.950 . S
H2277 C2255 0.950 . S
C2278 C2279 1.349 . S
C2278 C2280 1.327 . S
C2278 H2303 0.950 . S
C2279 C2278 1.349 . S
C2279 C2295 1.349 . S
C2280 C2278 1.327 . S
C2280 C2299 1.429 . S
C2280 H2304 0.950 . S
C2281 C2298 1.574 1_556 S
C2281 C2300 1.368 . S
C2281 H2305 0.949 . S
H2282 C2286 0.949 . S
C2283 C2284 1.349 . S
C2283 C2285 1.327 . S
C2283 H2306 0.950 . S
C2284 C2283 1.349 . S
C2284 C2296 1.349 . S
C2285 C2283 1.327 . S
C2285 C2301 1.429 . S
C2285 H2307 0.950 . S
C2286 H2282 0.949 . S
C2286 C2294 1.574 1_554 S
C2286 C2302 1.368 . S
H2287 C2295 0.950 . S
H2288 C2293 0.950 . S
H2289 C2294 0.949 . S
H2290 C2296 0.950 . S
H2291 C2297 0.950 . S
H2292 C2298 0.949 . S
C2293 H2288 0.950 . S
C2293 C2295 1.327 . S
C2293 C2299 1.429 . S
C2294 C2286 1.574 1_556 S
C2294 H2289 0.949 . S
C2294 C2300 1.368 . S
C2295 C2279 1.349 . S
C2295 H2287 0.950 . S
C2295 C2293 1.327 . S
C2296 C2284 1.349 . S
C2296 H2290 0.950 . S
C2296 C2297 1.327 . S
C2297 H2291 0.950 . S
C2297 C2296 1.327 . S
C2297 C2301 1.429 . S
C2298 C2281 1.574 1_554 S
C2298 H2292 0.949 . S
C2298 C2302 1.368 . S
C2299 C2280 1.429 . S
C2299 C2293 1.429 . S
C2299 C2300 1.523 . S
C2300 C2281 1.368 . S
C2300 C2294 1.368 . S
C2300 C2299 1.523 . S
C2301 C2285 1.429 . S
C2301 C2297 1.429 . S
C2301 C2302 1.523 . S
C2302 C2286 1.368 . S
C2302 C2298 1.368 . S
C2302 C2301 1.523 . S
H2303 C2278 0.950 . S
H2304 C2280 0.950 . S
H2305 C2281 0.949 . S
H2306 C2283 0.950 . S
H2307 C2285 0.950 . S
C2308 C2309 1.349 . S
C2308 C2310 1.327 . S
C2308 H2333 0.950 . S
C2309 C2308 1.349 . S
C2309 C2325 1.349 . S
C2310 C2308 1.327 . S
C2310 C2329 1.429 . S
C2310 H2334 0.950 . S
C2311 C2328 1.574 1_554 S
C2311 C2330 1.368 . S
C2311 H2335 0.949 . S
H2312 C2316 0.949 . S
C2313 C2314 1.349 . S
C2313 C2315 1.327 . S
C2313 H2336 0.950 . S
C2314 C2313 1.349 . S
C2314 C2326 1.349 . S
C2315 C2313 1.327 . S
C2315 C2331 1.429 . S
C2315 H2337 0.950 . S
C2316 H2312 0.949 . S
C2316 C2324 1.574 1_556 S
C2316 C2332 1.368 . S
H2317 C2325 0.950 . S
H2318 C2323 0.950 . S
H2319 C2324 0.949 . S
H2320 C2326 0.950 . S
H2321 C2327 0.950 . S
H2322 C2328 0.949 . S
C2323 H2318 0.950 . S
C2323 C2325 1.327 . S
C2323 C2329 1.429 . S
C2324 C2316 1.574 1_554 S
C2324 H2319 0.949 . S
C2324 C2330 1.368 . S
C2325 C2309 1.349 . S
C2325 H2317 0.950 . S
C2325 C2323 1.327 . S
C2326 C2314 1.349 . S
C2326 H2320 0.950 . S
C2326 C2327 1.327 . S
C2327 H2321 0.950 . S
C2327 C2326 1.327 . S
C2327 C2331 1.429 . S
C2328 C2311 1.574 1_556 S
C2328 H2322 0.949 . S
C2328 C2332 1.368 . S
C2329 C2310 1.429 . S
C2329 C2323 1.429 . S
C2329 C2330 1.523 . S
C2330 C2311 1.368 . S
C2330 C2324 1.368 . S
C2330 C2329 1.523 . S
C2331 C2315 1.429 . S
C2331 C2327 1.429 . S
C2331 C2332 1.523 . S
C2332 C2316 1.368 . S
C2332 C2328 1.368 . S
C2332 C2331 1.523 . S
H2333 C2308 0.950 . S
H2334 C2310 0.950 . S
H2335 C2311 0.949 . S
H2336 C2313 0.950 . S
H2337 C2315 0.950 . S
C2338 C2339 1.349 . S
C2338 C2340 1.327 . S
C2338 H2363 0.950 . S
C2339 C2338 1.349 . S
C2339 C2355 1.349 . S
C2340 C2338 1.327 . S
C2340 C2359 1.429 . S
C2340 H2364 0.950 . S
C2341 C2358 1.574 1_556 S
C2341 C2360 1.368 . S
C2341 H2365 0.949 . S
H2342 C2346 0.949 . S
C2343 C2344 1.349 . S
C2343 C2345 1.327 . S
C2343 H2366 0.950 . S
C2344 C2343 1.349 . S
C2344 C2356 1.349 . S
C2345 C2343 1.327 . S
C2345 C2361 1.429 . S
C2345 H2367 0.950 . S
C2346 H2342 0.949 . S
C2346 C2354 1.574 1_554 S
C2346 C2362 1.368 . S
H2347 C2355 0.950 . S
H2348 C2353 0.950 . S
H2349 C2354 0.949 . S
H2350 C2356 0.950 . S
H2351 C2357 0.950 . S
H2352 C2358 0.949 . S
C2353 H2348 0.950 . S
C2353 C2355 1.327 . S
C2353 C2359 1.429 . S
C2354 C2346 1.574 1_556 S
C2354 H2349 0.949 . S
C2354 C2360 1.368 . S
C2355 C2339 1.349 . S
C2355 H2347 0.950 . S
C2355 C2353 1.327 . S
C2356 C2344 1.349 . S
C2356 H2350 0.950 . S
C2356 C2357 1.327 . S
C2357 H2351 0.950 . S
C2357 C2356 1.327 . S
C2357 C2361 1.429 . S
C2358 C2341 1.574 1_554 S
C2358 H2352 0.949 . S
C2358 C2362 1.368 . S
C2359 C2340 1.429 . S
C2359 C2353 1.429 . S
C2359 C2360 1.523 . S
C2360 C2341 1.368 . S
C2360 C2354 1.368 . S
C2360 C2359 1.523 . S
C2361 C2345 1.429 . S
C2361 C2357 1.429 . S
C2361 C2362 1.523 . S
C2362 C2346 1.368 . S
C2362 C2358 1.368 . S
C2362 C2361 1.523 . S
H2363 C2338 0.950 . S
H2364 C2340 0.950 . S
H2365 C2341 0.949 . S
H2366 C2343 0.950 . S
H2367 C2345 0.950 . S
C1409 C20 1.553 . S
C1414 C293 1.507 . S
C1439 C49 1.489 . S
C1444 C117 1.543 . S
C1469 C137 1.507 . S
C1474 C196 1.553 . S
C1499 C225 1.489 . S
C1504 C313 1.543 . S
C1529 C409 1.553 . S
C1534 C497 1.507 . S
C1559 C460 1.543 . S
C1564 C557 1.489 . S
C1589 C585 1.553 . S
C1594 C636 1.507 . S
C1619 C673 1.543 . S
C1624 C381 1.489 . S
C1649 C724 1.553 . S
C1654 C988 1.507 . S
C1679 C753 1.489 . S
C1684 C821 1.543 . S
C1709 C841 1.507 . S
C1714 C900 1.553 . S
C1739 C1025 1.543 . S
C1744 C929 1.489 . S
C1769 C1201 1.507 . S
C1774 C1105 1.553 . S
C1799 C1261 1.489 . S
C1804 C1164 1.543 . S
C1829 C1289 1.553 . S
C1834 C1340 1.507 . S
C1859 C1377 1.543 . S
C1864 C1076 1.489 . S
C1889 C57 0.605 . S
C1894 C1369 0.608 . S
C1919 C108 0.608 . S
C1924 C1085 0.605 . S
C1949 C1173 0.608 . S
C1954 C233 0.605 . S
C1979 C321 0.608 . S
C1984 C1252 0.605 . S
C2009 C812 0.608 . S
C2014 C372 0.605 . S
C2039 C937 0.605 . S
C2044 C469 0.608 . S
C2069 C548 0.605 . S
C2074 C1017 0.608 . S
C2099 C665 0.608 . S
C2104 C761 0.605 . S
C2129 C29 1.350 . S
C2134 C577 1.350 . S
C2159 C645 1.343 . S
C2164 C145 1.343 . S
C2189 C401 1.350 . S
C2194 C205 1.350 . S
C2219 C489 1.343 . S
C2224 C284 1.343 . S
C2249 C733 1.350 . S
C2254 C1281 1.350 . S
C2279 C849 1.343 . S
C2284 C1349 1.343 . S
C2309 C1113 1.350 . S
C2314 C909 1.350 . S
C2339 C997 1.343 . S
C2344 C1193 1.343 . S
