# Generated by pormake.
# Topology wld, (5)-cn, num edge types: 1
# Building blocks:
#     Node 0, Type 0, BuildingBlock: XOMCOT_clean_sbu_0, # of connection points: 5
#     Node 1, Type 0, BuildingBlock: XOMCOT_clean_sbu_0, # of connection points: 5
#     Node 2, Type 0, BuildingBlock: XOMCOT_clean_sbu_0, # of connection points: 5
#     Node 3, Type 0, BuildingBlock: XOMCOT_clean_sbu_0, # of connection points: 5
#     Node 4, Type 0, BuildingBlock: XOMCOT_clean_sbu_0, # of connection points: 5
#     Node 5, Type 0, BuildingBlock: XOMCOT_clean_sbu_0, # of connection points: 5
#     Node 6, Type 0, BuildingBlock: XOMCOT_clean_sbu_0, # of connection points: 5
#     Node 7, Type 0, BuildingBlock: XOMCOT_clean_sbu_0, # of connection points: 5
#     Node 8, Type 0, BuildingBlock: XOMCOT_clean_sbu_0, # of connection points: 5
#     Node 9, Type 0, BuildingBlock: XOMCOT_clean_sbu_0, # of connection points: 5
#     Node 10, Type 0, BuildingBlock: XOMCOT_clean_sbu_0, # of connection points: 5
#     Node 11, Type 0, BuildingBlock: XOMCOT_clean_sbu_0, # of connection points: 5
#     Edge 12, Type (0, 0), BuildingBlock: MIFKUJ_clean_linker_0, # of connection points: 2
#     Edge 13, Type (0, 0), BuildingBlock: MIFKUJ_clean_linker_0, # of connection points: 2
#     Edge 14, Type (0, 0), BuildingBlock: MIFKUJ_clean_linker_0, # of connection points: 2
#     Edge 15, Type (0, 0), BuildingBlock: MIFKUJ_clean_linker_0, # of connection points: 2
#     Edge 16, Type (0, 0), BuildingBlock: MIFKUJ_clean_linker_0, # of connection points: 2
#     Edge 17, Type (0, 0), BuildingBlock: MIFKUJ_clean_linker_0, # of connection points: 2
#     Edge 18, Type (0, 0), BuildingBlock: MIFKUJ_clean_linker_0, # of connection points: 2
#     Edge 19, Type (0, 0), BuildingBlock: MIFKUJ_clean_linker_0, # of connection points: 2
#     Edge 20, Type (0, 0), BuildingBlock: MIFKUJ_clean_linker_0, # of connection points: 2
#     Edge 21, Type (0, 0), BuildingBlock: MIFKUJ_clean_linker_0, # of connection points: 2
#     Edge 22, Type (0, 0), BuildingBlock: MIFKUJ_clean_linker_0, # of connection points: 2
#     Edge 23, Type (0, 0), BuildingBlock: MIFKUJ_clean_linker_0, # of connection points: 2
#     Edge 24, Type (0, 0), BuildingBlock: MIFKUJ_clean_linker_0, # of connection points: 2
#     Edge 25, Type (0, 0), BuildingBlock: MIFKUJ_clean_linker_0, # of connection points: 2
#     Edge 26, Type (0, 0), BuildingBlock: MIFKUJ_clean_linker_0, # of connection points: 2
#     Edge 27, Type (0, 0), BuildingBlock: MIFKUJ_clean_linker_0, # of connection points: 2
#     Edge 28, Type (0, 0), BuildingBlock: MIFKUJ_clean_linker_0, # of connection points: 2
#     Edge 29, Type (0, 0), BuildingBlock: MIFKUJ_clean_linker_0, # of connection points: 2
#     Edge 30, Type (0, 0), BuildingBlock: MIFKUJ_clean_linker_0, # of connection points: 2
#     Edge 31, Type (0, 0), BuildingBlock: MIFKUJ_clean_linker_0, # of connection points: 2
#     Edge 32, Type (0, 0), BuildingBlock: MIFKUJ_clean_linker_0, # of connection points: 2
#     Edge 33, Type (0, 0), BuildingBlock: MIFKUJ_clean_linker_0, # of connection points: 2
#     Edge 34, Type (0, 0), BuildingBlock: MIFKUJ_clean_linker_0, # of connection points: 2
#     Edge 35, Type (0, 0), BuildingBlock: MIFKUJ_clean_linker_0, # of connection points: 2
#     Edge 36, Type (0, 0), BuildingBlock: MIFKUJ_clean_linker_0, # of connection points: 2
#     Edge 37, Type (0, 0), BuildingBlock: MIFKUJ_clean_linker_0, # of connection points: 2
#     Edge 38, Type (0, 0), BuildingBlock: MIFKUJ_clean_linker_0, # of connection points: 2
#     Edge 39, Type (0, 0), BuildingBlock: MIFKUJ_clean_linker_0, # of connection points: 2
#     Edge 40, Type (0, 0), BuildingBlock: MIFKUJ_clean_linker_0, # of connection points: 2
#     Edge 41, Type (0, 0), BuildingBlock: MIFKUJ_clean_linker_0, # of connection points: 2
# Relax obj value: 0.214
# Max RMSD: 0.221
# Mean RMSD: 0.221
data_MOF--net-wld--node1-XOMCOT_clean_sbu_0--edge1-MIFKUJ_clean_linker_0
_symmetry_space_group_name_H-M    P1
_symmetry_Int_Tables_number       1
_symmetry_cell_setting            triclinic
loop_
_symmetry_equiv_pos_as_xyz
'x, y, z'
_cell_length_a     47.852462
_cell_length_b     47.859756
_cell_length_c     64.354228
_cell_angle_alpha  90.011982
_cell_angle_beta   89.993442
_cell_angle_gamma 120.01513
loop_
_atom_site_label
_atom_site_type_symbol
_atom_site_fract_x
_atom_site_fract_y
_atom_site_fract_z
_atom_type_partial_charge
Co0 Co 0.3901 0.2455 0.09231 0.0
C1 C 0.35072 0.27052 0.07174 0.0
C2 C 0.40154 0.30189 0.06777 0.0
C3 C 0.38575 0.31466 0.05709 0.0
N4 N 0.37975 0.2749 0.0778 0.0
N5 N 0.35382 0.29494 0.05962 0.0
H6 H 0.32785 0.24927 0.07503 0.0
H7 H 0.42723 0.31098 0.06728 0.0
C8 C 0.44078 0.30988 0.1077 0.0
O9 O 0.41748 0.31602 0.11187 0.0
N10 N 0.40134 0.21646 0.10564 0.0
C11 C 0.38243 0.18994 0.11698 0.0
C12 C 0.40078 0.17666 0.12344 0.0
C13 C 0.43051 0.2188 0.10506 0.0
N14 N 0.43096 0.19487 0.11586 0.0
C15 C 0.34133 0.24351 0.12005 0.0
C16 C 0.37919 0.26011 0.15535 0.0
C17 C 0.3483 0.25646 0.1568 0.0
C18 C 0.32902 0.24737 0.13887 0.0
C19 C 0.39065 0.25655 0.13623 0.0
N20 N 0.37242 0.2499 0.11862 0.0
H21 H 0.32556 0.23484 0.10684 0.0
H22 H 0.41444 0.25925 0.1356 0.0
H23 H 0.35721 0.18101 0.12034 0.0
H24 H 0.4511 0.23792 0.09707 0.0
O25 O 0.35213 0.20901 0.08083 0.0
O26 O 0.40043 0.23409 0.06587 0.0
O27 O 0.43417 0.28281 0.09965 0.0
C28 C 0.37045 0.21095 0.06529 0.0
H29 H 0.39683 0.33585 0.04726 0.0
H30 H 0.39246 0.15507 0.13273 0.0
H31 H 0.39449 0.26555 0.16888 0.0
H32 H 0.30474 0.24356 0.13922 0.0
Co33 Co 0.7519 0.14519 0.09252 0.0
C34 C 0.72567 0.08334 0.0702 0.0
C35 C 0.69605 0.10498 0.06611 0.0
C36 C 0.68216 0.07616 0.0555 0.0
N37 N 0.72312 0.10924 0.0754 0.0
N38 N 0.70085 0.0627 0.05809 0.0
H39 H 0.74508 0.07958 0.07535 0.0
H40 H 0.68712 0.12172 0.06686 0.0
C41 C 0.70656 0.15474 0.11955 0.0
O42 O 0.72359 0.15559 0.13581 0.0
N43 N 0.78092 0.18258 0.10913 0.0
C44 C 0.81099 0.19187 0.11606 0.0
C45 C 0.82484 0.22299 0.12343 0.0
C46 C 0.77781 0.2089 0.11151 0.0
N47 N 0.80385 0.23364 0.12056 0.0
C48 C 0.76952 0.11437 0.12428 0.0
C49 C 0.70758 0.07421 0.13865 0.0
C50 C 0.73369 0.07617 0.14968 0.0
C51 C 0.76491 0.09573 0.14197 0.0
C52 C 0.71339 0.09377 0.12125 0.0
N53 N 0.74425 0.11529 0.1152 0.0
H54 H 0.79338 0.12784 0.11789 0.0
H55 H 0.69304 0.09233 0.11302 0.0
H56 H 0.82357 0.17862 0.11426 0.0
H57 H 0.75792 0.21082 0.10515 0.0
O58 O 0.7884 0.14547 0.07958 0.0
O59 O 0.76506 0.17283 0.0685 0.0
O60 O 0.71448 0.15061 0.10133 0.0
C61 C 0.78759 0.1654 0.06615 0.0
H62 H 0.66041 0.06623 0.04621 0.0
H63 H 0.84913 0.23713 0.12943 0.0
H64 H 0.68301 0.0587 0.14389 0.0
H65 H 0.78554 0.09664 0.1496 0.0
Co66 Co 0.85598 0.60873 0.09247 0.0
C67 C 0.92092 0.6477 0.07234 0.0
C68 C 0.89683 0.59773 0.06385 0.0
C69 C 0.9256 0.61331 0.05331 0.0
N70 N 0.89424 0.619 0.07633 0.0
N71 N 0.94065 0.6447 0.05866 0.0
H72 H 0.92558 0.67052 0.07855 0.0
H73 H 0.87856 0.57263 0.06209 0.0
C74 C 0.87243 0.55878 0.10518 0.0
O75 O 0.90257 0.582 0.10718 0.0
N76 N 0.81718 0.5975 0.1077 0.0
C77 C 0.81021 0.61681 0.11912 0.0
C78 C 0.77901 0.59866 0.12641 0.0
C79 C 0.79049 0.5682 0.10807 0.0
N80 N 0.76678 0.5681 0.11946 0.0
C81 C 0.90078 0.66086 0.11878 0.0
C82 C 0.89101 0.62339 0.15364 0.0
C83 C 0.91373 0.65635 0.15451 0.0
C84 C 0.91801 0.67537 0.13694 0.0
C85 C 0.87418 0.61002 0.13529 0.0
N86 N 0.88065 0.62825 0.11769 0.0
H87 H 0.90286 0.67609 0.10587 0.0
H88 H 0.8554 0.58501 0.13545 0.0
H89 H 0.82651 0.64225 0.12175 0.0
H90 H 0.78818 0.54764 0.09957 0.0
O91 O 0.85555 0.64571 0.08088 0.0
O92 O 0.83137 0.59656 0.0671 0.0
O93 O 0.85069 0.56532 0.09966 0.0
C94 C 0.83781 0.62637 0.06611 0.0
H95 H 0.93414 0.60269 0.04191 0.0
H96 H 0.76634 0.6073 0.136 0.0
H97 H 0.88569 0.60815 0.16722 0.0
H98 H 0.93448 0.70117 0.13722 0.0
Co99 Co 0.25181 0.39404 0.40934 0.0
C100 C 0.27949 0.35865 0.43016 0.0
C101 C 0.30661 0.40953 0.43652 0.0
C102 C 0.31991 0.39452 0.44764 0.0
N103 N 0.28134 0.387 0.42563 0.0
N104 N 0.30278 0.36257 0.44364 0.0
H105 H 0.26069 0.33558 0.4244 0.0
H106 H 0.31423 0.43495 0.43683 0.0
C107 C 0.29277 0.45253 0.3836 0.0
O108 O 0.27239 0.4392 0.36815 0.0
N109 N 0.22203 0.40216 0.39354 0.0
C110 C 0.20076 0.38541 0.37827 0.0
C111 C 0.18525 0.40191 0.37237 0.0
C112 C 0.21861 0.42809 0.39687 0.0
N113 N 0.19653 0.42865 0.38418 0.0
C114 C 0.2353 0.34223 0.38047 0.0
C115 C 0.29397 0.37031 0.36014 0.0
C116 C 0.26888 0.3407 0.35282 0.0
C117 C 0.23948 0.32622 0.36365 0.0
C118 C 0.28883 0.38519 0.37715 0.0
N119 N 0.25909 0.3723 0.38617 0.0
H120 H 0.21259 0.33063 0.38871 0.0
H121 H 0.30907 0.40704 0.38304 0.0
H122 H 0.19632 0.36289 0.37169 0.0
H123 H 0.23278 0.44672 0.40809 0.0
O124 O 0.21572 0.35742 0.4225 0.0
O125 O 0.23925 0.40785 0.43398 0.0
O126 O 0.28856 0.43745 0.40074 0.0
C127 C 0.21677 0.3779 0.43623 0.0
H128 H 0.34031 0.40615 0.45809 0.0
H129 H 0.16681 0.39458 0.36054 0.0
H130 H 0.31734 0.38238 0.35264 0.0
H131 H 0.21983 0.30272 0.35921 0.0
Co132 Co 0.60557 0.85277 0.40606 0.0
C133 C 0.63915 0.9148 0.42849 0.0
C134 C 0.58814 0.88916 0.43457 0.0
C135 C 0.60221 0.91682 0.44638 0.0
N136 N 0.61132 0.88803 0.42339 0.0
N137 N 0.63425 0.93283 0.44258 0.0
H138 H 0.66253 0.9203 0.42257 0.0
H139 H 0.56291 0.87076 0.43452 0.0
C140 C 0.55039 0.843 0.3791 0.0
O141 O 0.56737 0.84444 0.36267 0.0
N142 N 0.59877 0.81594 0.38932 0.0
C143 C 0.62016 0.80625 0.38458 0.0
C144 C 0.60379 0.77531 0.37678 0.0
C145 C 0.56967 0.79001 0.38515 0.0
N146 N 0.57205 0.76532 0.37709 0.0
C147 C 0.65226 0.88309 0.37342 0.0
C148 C 0.63122 0.92455 0.36051 0.0
C149 C 0.65451 0.92207 0.34875 0.0
C150 C 0.66579 0.90185 0.35574 0.0
C151 C 0.61798 0.90493 0.37798 0.0
N152 N 0.62705 0.88296 0.38339 0.0
H153 H 0.66207 0.86866 0.37899 0.0
H154 H 0.59945 0.90643 0.38666 0.0
H155 H 0.64557 0.81918 0.38825 0.0
H156 H 0.54697 0.78786 0.3898 0.0
O157 O 0.64273 0.85436 0.41885 0.0
O158 O 0.59224 0.82506 0.43008 0.0
O159 O 0.56194 0.84574 0.39738 0.0
C160 C 0.62263 0.834 0.43238 0.0
H161 H 0.58981 0.92442 0.45704 0.0
H162 H 0.61425 0.76067 0.3724 0.0
H163 H 0.62236 0.94043 0.35576 0.0
H164 H 0.68474 0.90036 0.34748 0.0
Co165 Co 0.14153 0.74966 0.40789 0.0
C166 C 0.07824 0.72611 0.4302 0.0
C167 C 0.10178 0.6992 0.43725 0.0
C168 C 0.0746 0.68752 0.44925 0.0
N169 N 0.10377 0.72279 0.4248 0.0
N170 N 0.05983 0.70453 0.44494 0.0
H171 H 0.07421 0.74505 0.42471 0.0
H172 H 0.11959 0.69162 0.43806 0.0
C173 C 0.12195 0.68252 0.39523 0.0
O174 O 0.09201 0.67653 0.39434 0.0
N175 N 0.18016 0.77595 0.39213 0.0
C176 C 0.18697 0.8006 0.3792 0.0
C177 C 0.21816 0.81284 0.3721 0.0
C178 C 0.20702 0.77368 0.39295 0.0
N179 N 0.23085 0.79588 0.3808 0.0
C180 C 0.09632 0.75797 0.38288 0.0
C181 C 0.10465 0.73109 0.34708 0.0
C182 C 0.08293 0.74266 0.34682 0.0
C183 C 0.07909 0.75654 0.365 0.0
C184 C 0.1214 0.7331 0.36524 0.0
N185 N 0.11601 0.74496 0.38319 0.0
H186 H 0.09481 0.77082 0.39615 0.0
H187 H 0.13938 0.72579 0.36463 0.0
H188 H 0.17054 0.80916 0.37532 0.0
H189 H 0.20893 0.75634 0.4027 0.0
O190 O 0.14396 0.78799 0.41932 0.0
O191 O 0.16698 0.76187 0.43301 0.0
O192 O 0.14484 0.71052 0.40029 0.0
C193 C 0.16165 0.786 0.43394 0.0
H194 H 0.06676 0.66832 0.46056 0.0
H195 H 0.23033 0.83279 0.3614 0.0
H196 H 0.10882 0.72058 0.33336 0.0
H197 H 0.06367 0.76709 0.36525 0.0
Co198 Co 0.60697 0.75285 0.90694 0.0
C199 C 0.64598 0.72759 0.92821 0.0
C200 C 0.59583 0.70197 0.93626 0.0
C201 C 0.61107 0.68889 0.94725 0.0
N202 N 0.61742 0.72563 0.92381 0.0
N203 N 0.64258 0.70503 0.94217 0.0
H204 H 0.66895 0.74545 0.92203 0.0
H205 H 0.57068 0.69514 0.93764 0.0
C206 C 0.55872 0.68602 0.89416 0.0
O207 O 0.58277 0.68034 0.89208 0.0
N208 N 0.59508 0.77934 0.89107 0.0
C209 C 0.61266 0.80298 0.87735 0.0
C210 C 0.59361 0.81482 0.86971 0.0
C211 C 0.56608 0.77735 0.89187 0.0
N212 N 0.56446 0.79868 0.879 0.0
C213 C 0.66029 0.76052 0.882 0.0
C214 C 0.62506 0.73286 0.84634 0.0
C215 C 0.6581 0.74326 0.84646 0.0
C216 C 0.6759 0.75772 0.86448 0.0
C217 C 0.61042 0.73589 0.86427 0.0
N218 N 0.62762 0.74779 0.88224 0.0
H219 H 0.67476 0.77401 0.89508 0.0
H220 H 0.58526 0.72906 0.86354 0.0
H221 H 0.63744 0.81097 0.87319 0.0
H222 H 0.54644 0.76036 0.9016 0.0
O223 O 0.64322 0.79094 0.91839 0.0
O224 O 0.59396 0.76547 0.93195 0.0
O225 O 0.56418 0.71396 0.89968 0.0
C226 C 0.62358 0.78929 0.93295 0.0
H227 H 0.60007 0.66983 0.9587 0.0
H228 H 0.60079 0.83412 0.85854 0.0
H229 H 0.61055 0.72231 0.83255 0.0
H230 H 0.70179 0.76755 0.86484 0.0
Co231 Co 0.24688 0.85497 0.90633 0.0
C232 C 0.27153 0.92015 0.92567 0.0
C233 C 0.30115 0.89944 0.93242 0.0
C234 C 0.31366 0.92837 0.94269 0.0
N235 N 0.27542 0.89472 0.92105 0.0
N236 N 0.29497 0.94129 0.93846 0.0
H237 H 0.25136 0.92265 0.92078 0.0
H238 H 0.3096 0.88238 0.93383 0.0
C239 C 0.31253 0.87076 0.89201 0.0
O240 O 0.31958 0.90083 0.88939 0.0
N241 N 0.21871 0.81474 0.89256 0.0
C242 C 0.189 0.80454 0.88476 0.0
C243 C 0.17671 0.77334 0.87762 0.0
C244 C 0.22424 0.79001 0.88999 0.0
N245 N 0.19915 0.76463 0.8808 0.0
C246 C 0.23921 0.89826 0.87861 0.0
C247 C 0.26231 0.88274 0.84373 0.0
C248 C 0.25281 0.90596 0.84199 0.0
C249 C 0.24071 0.9134 0.85971 0.0
C250 C 0.26018 0.86813 0.86279 0.0
N251 N 0.25047 0.87719 0.88026 0.0
H252 H 0.22782 0.90261 0.89164 0.0
H253 H 0.26599 0.84907 0.86334 0.0
H254 H 0.17692 0.81854 0.88463 0.0
H255 H 0.24561 0.78999 0.89545 0.0
O256 O 0.20993 0.85523 0.91812 0.0
O257 O 0.23593 0.83262 0.93259 0.0
O258 O 0.28486 0.84958 0.89884 0.0
C259 C 0.21239 0.83885 0.93345 0.0
H260 H 0.33389 0.93833 0.95334 0.0
H261 H 0.15316 0.75816 0.87079 0.0
H262 H 0.2715 0.87585 0.83049 0.0
H263 H 0.23174 0.93014 0.85889 0.0
Co264 Co 0.14285 0.39113 0.90696 0.0
C265 C 0.07855 0.35677 0.92626 0.0
C266 C 0.10078 0.40806 0.93037 0.0
C267 C 0.07128 0.3935 0.94019 0.0
N268 N 0.10515 0.38498 0.92161 0.0
N269 N 0.05744 0.36129 0.93765 0.0
H270 H 0.07493 0.33345 0.9216 0.0
H271 H 0.11815 0.43359 0.93019 0.0
C272 C 0.16714 0.4524 0.88281 0.0
O273 O 0.17431 0.43903 0.86744 0.0
N274 N 0.18166 0.39806 0.89282 0.0
C275 C 0.18646 0.38255 0.87686 0.0
C276 C 0.21893 0.39831 0.87213 0.0
C277 C 0.21128 0.42238 0.89777 0.0
N278 N 0.23432 0.42321 0.88538 0.0
C279 C 0.10888 0.34274 0.87574 0.0
C280 C 0.0843 0.37609 0.85476 0.0
C281 C 0.07956 0.34699 0.84648 0.0
C282 C 0.09104 0.3296 0.85757 0.0
C283 C 0.102 0.38814 0.873 0.0
N284 N 0.11619 0.37276 0.88236 0.0
H285 H 0.11782 0.32925 0.8841 0.0
H286 H 0.10408 0.40984 0.87954 0.0
H287 H 0.16823 0.36171 0.86877 0.0
H288 H 0.21567 0.44009 0.90968 0.0
O289 O 0.13852 0.3523 0.91939 0.0
O290 O 0.16619 0.40146 0.93279 0.0
O291 O 0.15355 0.43633 0.89927 0.0
C292 C 0.15707 0.37097 0.93416 0.0
H293 H 0.06139 0.40561 0.94923 0.0
H294 H 0.23031 0.39205 0.85986 0.0
H295 H 0.07435 0.38943 0.84722 0.0
H296 H 0.08715 0.30659 0.85195 0.0
Co297 Co 0.75156 0.6091 0.59331 0.0
C298 C 0.72416 0.64771 0.57489 0.0
C299 C 0.69291 0.59682 0.57127 0.0
C300 C 0.67909 0.61232 0.56141 0.0
N301 N 0.72065 0.61887 0.58046 0.0
N302 N 0.69878 0.64432 0.5637 0.0
H303 H 0.74544 0.67067 0.57778 0.0
H304 H 0.68401 0.57116 0.57076 0.0
C305 C 0.68879 0.55987 0.61163 0.0
O306 O 0.68379 0.58364 0.61666 0.0
N307 N 0.78202 0.59846 0.60518 0.0
C308 C 0.81218 0.61891 0.61194 0.0
C309 C 0.82645 0.60111 0.61754 0.0
C310 C 0.77824 0.56873 0.60678 0.0
N311 N 0.80491 0.56964 0.61438 0.0
C312 C 0.76056 0.66099 0.62041 0.0
C313 C 0.74493 0.62556 0.65674 0.0
C314 C 0.75177 0.65762 0.65754 0.0
C315 C 0.76033 0.67561 0.63912 0.0
C316 C 0.74535 0.61192 0.63768 0.0
N317 N 0.75115 0.629 0.61962 0.0
H318 H 0.76926 0.67576 0.60674 0.0
H319 H 0.74075 0.58741 0.63747 0.0
H320 H 0.82319 0.6449 0.61236 0.0
H321 H 0.75686 0.54695 0.60174 0.0
O322 O 0.78647 0.64607 0.57991 0.0
O323 O 0.7595 0.59688 0.56631 0.0
O324 O 0.71487 0.56579 0.60241 0.0
C325 C 0.78252 0.62679 0.56453 0.0
H326 H 0.65725 0.60098 0.55219 0.0
H327 H 0.85076 0.61053 0.62336 0.0
H328 H 0.73873 0.61089 0.67064 0.0
H329 H 0.76728 0.70091 0.63922 0.0
Co330 Co 0.39458 0.14377 0.59091 0.0
C331 C 0.36146 0.08138 0.56852 0.0
C332 C 0.41262 0.10748 0.56301 0.0
C333 C 0.39919 0.07986 0.55122 0.0
N334 N 0.38899 0.10835 0.57382 0.0
N335 N 0.36706 0.06355 0.55465 0.0
H336 H 0.33781 0.07561 0.57409 0.0
H337 H 0.43777 0.12608 0.56325 0.0
C338 C 0.45017 0.15514 0.61792 0.0
O339 O 0.43389 0.15574 0.6342 0.0
N340 N 0.40176 0.18097 0.60732 0.0
C341 C 0.38053 0.19022 0.61331 0.0
C342 C 0.3973 0.22207 0.61948 0.0
C343 C 0.43092 0.20786 0.60918 0.0
N344 N 0.42908 0.23319 0.61674 0.0
C345 C 0.34626 0.1122 0.6225 0.0
C346 C 0.36871 0.07264 0.63695 0.0
C347 C 0.34339 0.07322 0.64751 0.0
C348 C 0.33157 0.09264 0.63974 0.0
C349 C 0.38288 0.09286 0.61986 0.0
N350 N 0.37293 0.11383 0.61367 0.0
H351 H 0.33586 0.12568 0.61616 0.0
H352 H 0.40236 0.09215 0.61185 0.0
H353 H 0.35472 0.17644 0.61132 0.0
H354 H 0.45292 0.20939 0.60365 0.0
O355 O 0.35758 0.14231 0.57792 0.0
O356 O 0.40814 0.17129 0.56677 0.0
O357 O 0.43793 0.15062 0.59974 0.0
C358 C 0.37782 0.16259 0.56443 0.0
H359 H 0.41204 0.07252 0.54075 0.0
H360 H 0.38669 0.23656 0.62386 0.0
H361 H 0.3781 0.05744 0.6422 0.0
H362 H 0.31104 0.09259 0.64688 0.0
Co363 Co 0.85461 0.24548 0.5898 0.0
C364 C 0.91896 0.27375 0.57019 0.0
C365 C 0.89481 0.30022 0.56298 0.0
C366 C 0.92428 0.31489 0.55322 0.0
N367 N 0.89165 0.27464 0.57367 0.0
N368 N 0.93944 0.29826 0.55776 0.0
H369 H 0.92369 0.25562 0.57661 0.0
H370 H 0.87672 0.30741 0.56205 0.0
C371 C 0.83684 0.28803 0.61389 0.0
O372 O 0.82933 0.26859 0.62993 0.0
N373 N 0.81631 0.21615 0.60546 0.0
C374 C 0.81094 0.19313 0.61959 0.0
C375 C 0.7792 0.17865 0.62595 0.0
C376 C 0.78757 0.21451 0.603 0.0
N377 N 0.76463 0.19222 0.61548 0.0
C378 C 0.88869 0.23009 0.62039 0.0
C379 C 0.91894 0.28973 0.63953 0.0
C380 C 0.92253 0.26476 0.64806 0.0
C381 C 0.90783 0.23483 0.6379 0.0
C382 C 0.89967 0.2839 0.62201 0.0
N383 N 0.8829 0.25372 0.61357 0.0
H384 H 0.87828 0.20721 0.61241 0.0
H385 H 0.89856 0.30394 0.61526 0.0
H386 H 0.82819 0.18662 0.62499 0.0
H387 H 0.78393 0.23026 0.59268 0.0
O388 O 0.85553 0.20892 0.57775 0.0
O389 O 0.8291 0.23207 0.5648 0.0
O390 O 0.84771 0.28256 0.59717 0.0
C391 C 0.83673 0.20959 0.56338 0.0
H392 H 0.93341 0.33561 0.54303 0.0
H393 H 0.76771 0.15943 0.63725 0.0
H394 H 0.93041 0.31351 0.64649 0.0
H395 H 0.91116 0.21529 0.64336 0.0
H396 H 0.679 0.17418 0.09026 0.0
H397 H 0.63248 0.18179 0.09434 0.0
H398 H 0.62351 0.15247 0.15849 0.0
H399 H 0.67066 0.14534 0.15465 0.0
H400 H 0.56384 0.12183 0.13336 0.0
H401 H 0.65099 0.22485 0.15263 0.0
H402 H 0.70445 0.27363 0.14904 0.0
H403 H 0.67417 0.29795 0.09241 0.0
H404 H 0.62077 0.24881 0.09532 0.0
H405 H 0.44311 0.16692 0.14865 0.0
H406 H 0.49033 0.1604 0.15346 0.0
H407 H 0.52759 0.20568 0.09408 0.0
H408 H 0.4807 0.21227 0.08924 0.0
H409 H 0.57413 0.22925 0.12255 0.0
H410 H 0.49059 0.12347 0.1006 0.0
H411 H 0.43761 0.07367 0.10276 0.0
H412 H 0.46134 0.05431 0.16342 0.0
H413 H 0.51433 0.10427 0.16172 0.0
C414 C 0.66716 0.16934 0.10524 0.0
C415 C 0.67844 0.1592 0.12216 0.0
C416 C 0.64068 0.17379 0.10755 0.0
C417 C 0.62477 0.16779 0.12672 0.0
C418 C 0.63561 0.15724 0.14359 0.0
C419 C 0.66254 0.15332 0.1414 0.0
C420 C 0.5967 0.17255 0.12884 0.0
C421 C 0.56603 0.14537 0.13145 0.0
C422 C 0.59979 0.20324 0.12595 0.0
C423 C 0.6319 0.23292 0.12411 0.0
C424 C 0.65582 0.24037 0.13927 0.0
C425 C 0.68612 0.26811 0.13737 0.0
C426 C 0.69272 0.28882 0.12048 0.0
C427 C 0.66905 0.28182 0.10545 0.0
C428 C 0.63875 0.25401 0.10722 0.0
C429 C 0.46125 0.17521 0.13657 0.0
C430 C 0.45819 0.19016 0.11859 0.0
C431 C 0.48825 0.17156 0.13935 0.0
C432 C 0.51244 0.18246 0.12409 0.0
C433 C 0.50936 0.19732 0.10613 0.0
C434 C 0.48254 0.20111 0.1034 0.0
C435 C 0.541 0.17837 0.12656 0.0
C436 C 0.57185 0.20574 0.1248 0.0
C437 C 0.53806 0.14781 0.1301 0.0
C438 C 0.50624 0.11779 0.13114 0.0
C439 C 0.4844 0.10873 0.11447 0.0
C440 C 0.45439 0.08046 0.1156 0.0
C441 C 0.44607 0.0609 0.13325 0.0
C442 C 0.46779 0.06953 0.14978 0.0
C443 C 0.49781 0.09781 0.14874 0.0
H444 H 0.42284 0.03901 0.13409 0.0
H445 H 0.71612 0.31037 0.11914 0.0
H446 H 0.7586 0.25128 0.12594 0.0
H447 H 0.76764 0.30623 0.12713 0.0
H448 H 0.87039 0.34414 0.12368 0.0
H449 H 0.86164 0.28941 0.12203 0.0
H450 H 0.85275 0.3775 0.15184 0.0
H451 H 0.83049 0.33757 0.0814 0.0
H452 H 0.79811 0.29908 0.05388 0.0
H453 H 0.72048 0.31753 0.0656 0.0
H454 H 0.75216 0.35569 0.0935 0.0
H455 H 0.91286 0.53516 0.11285 0.0
H456 H 0.89817 0.47919 0.1192 0.0
H457 H 0.79729 0.45015 0.11425 0.0
H458 H 0.81181 0.50606 0.10744 0.0
H459 H 0.80987 0.411 0.09256 0.0
H460 H 0.83203 0.45278 0.16154 0.0
H461 H 0.86328 0.49072 0.18961 0.0
H462 H 0.93949 0.46912 0.18116 0.0
H463 H 0.9089 0.43138 0.15282 0.0
C464 C 0.78313 0.27127 0.12543 0.0
C465 C 0.80937 0.26587 0.12356 0.0
C466 C 0.78823 0.30263 0.12625 0.0
C467 C 0.81965 0.32915 0.12525 0.0
C468 C 0.84596 0.32392 0.12449 0.0
C469 C 0.84089 0.29257 0.12358 0.0
C470 C 0.82509 0.36232 0.12355 0.0
C471 C 0.84359 0.38497 0.13883 0.0
C472 C 0.81237 0.37167 0.10682 0.0
C473 C 0.79349 0.34906 0.08981 0.0
C474 C 0.80637 0.33316 0.07828 0.0
C475 C 0.78816 0.31143 0.06259 0.0
C476 C 0.75717 0.30571 0.05808 0.0
C477 C 0.74441 0.32185 0.06919 0.0
C478 C 0.76249 0.34353 0.08494 0.0
C479 C 0.88754 0.51691 0.11322 0.0
C480 C 0.86351 0.52504 0.10963 0.0
C481 C 0.87916 0.48493 0.11697 0.0
C482 C 0.84661 0.46054 0.11747 0.0
C483 C 0.82255 0.4686 0.11397 0.0
C484 C 0.83091 0.50057 0.11009 0.0
C485 C 0.83781 0.42645 0.12079 0.0
C486 C 0.81873 0.40357 0.10575 0.0
C487 C 0.84983 0.41687 0.13781 0.0
C488 C 0.86826 0.43943 0.15494 0.0
C489 C 0.85555 0.45629 0.16556 0.0
C490 C 0.87314 0.47774 0.18154 0.0
C491 C 0.90338 0.48238 0.18714 0.0
C492 C 0.91607 0.46552 0.1768 0.0
C493 C 0.8986 0.44406 0.16079 0.0
H494 H 0.91696 0.499 0.19951 0.0
H495 H 0.74311 0.28889 0.04592 0.0
H496 H 0.74871 0.50474 0.11981 0.0
H497 H 0.69369 0.45901 0.12123 0.0
H498 H 0.65681 0.52446 0.12713 0.0
H499 H 0.71188 0.57041 0.12563 0.0
H500 H 0.62462 0.47101 0.15243 0.0
H501 H 0.65747 0.49362 0.08051 0.0
H502 H 0.69363 0.5024 0.05086 0.0
H503 H 0.67995 0.40726 0.05884 0.0
H504 H 0.64404 0.3981 0.08874 0.0
H505 H 0.46384 0.37284 0.11838 0.0
H506 H 0.51991 0.41464 0.12358 0.0
H507 H 0.5506 0.34536 0.11149 0.0
H508 H 0.49445 0.30347 0.10571 0.0
H509 H 0.58702 0.39875 0.09093 0.0
H510 H 0.55129 0.37407 0.16123 0.0
H511 H 0.51559 0.3649 0.19119 0.0
H512 H 0.53482 0.4625 0.18704 0.0
H513 H 0.57029 0.47213 0.15685 0.0
C514 C 0.72891 0.50942 0.12141 0.0
C515 C 0.73463 0.54122 0.1223 0.0
C516 C 0.6975 0.48326 0.12231 0.0
C517 C 0.67117 0.48838 0.12396 0.0
C518 C 0.67683 0.52002 0.12584 0.0
C519 C 0.7083 0.54624 0.125 0.0
C520 C 0.63772 0.46088 0.12253 0.0
C521 C 0.61624 0.45534 0.13893 0.0
C522 C 0.62713 0.43999 0.10513 0.0
C523 C 0.64833 0.4453 0.08697 0.0
C524 C 0.66234 0.47466 0.07602 0.0
C525 C 0.68277 0.47969 0.05916 0.0
C526 C 0.68914 0.45543 0.053 0.0
C527 C 0.67502 0.42604 0.06365 0.0
C528 C 0.65461 0.42091 0.08053 0.0
C529 C 0.48247 0.3664 0.11695 0.0
C530 C 0.4747 0.33483 0.11162 0.0
C531 C 0.51455 0.39032 0.12005 0.0
C532 C 0.53947 0.38307 0.11823 0.0
C533 C 0.53176 0.3515 0.11303 0.0
C534 C 0.49967 0.32759 0.10974 0.0
C535 C 0.57365 0.40882 0.1208 0.0
C536 C 0.59534 0.41413 0.10456 0.0
C537 C 0.58441 0.42936 0.13841 0.0
C538 C 0.56326 0.42373 0.15666 0.0
C539 C 0.54774 0.39351 0.16661 0.0
C540 C 0.52756 0.38825 0.18365 0.0
C541 C 0.52288 0.41308 0.19099 0.0
C542 C 0.53844 0.44327 0.18133 0.0
C543 C 0.55862 0.44866 0.16427 0.0
H544 H 0.50724 0.40895 0.20418 0.0
H545 H 0.70498 0.45938 0.03996 0.0
H546 H 0.19522 0.46403 0.41639 0.0
H547 H 0.18245 0.50737 0.41521 0.0
H548 H 0.16523 0.49273 0.34922 0.0
H549 H 0.17777 0.44895 0.35042 0.0
H550 H 0.21095 0.56321 0.39601 0.0
H551 H 0.10785 0.5124 0.33572 0.0
H552 H 0.06478 0.45981 0.32272 0.0
H553 H 0.06276 0.41584 0.38129 0.0
H554 H 0.10551 0.46822 0.3947 0.0
H555 H 0.17605 0.68812 0.37731 0.0
H556 H 0.18848 0.64503 0.37109 0.0
H557 H 0.09714 0.57601 0.39842 0.0
H558 H 0.08382 0.61865 0.40323 0.0
H559 H 0.10754 0.54836 0.36853 0.0
H560 H 0.17448 0.61442 0.4256 0.0
H561 H 0.21493 0.66569 0.44171 0.0
H562 H 0.28497 0.67582 0.39614 0.0
H563 H 0.2448 0.62476 0.37964 0.0
C564 C 0.18881 0.47011 0.40162 0.0
C565 C 0.18757 0.45319 0.38348 0.0
C566 C 0.18151 0.49486 0.40096 0.0
C567 C 0.17284 0.50328 0.38215 0.0
C568 C 0.17146 0.48637 0.36397 0.0
C569 C 0.17854 0.46134 0.36466 0.0
C570 C 0.1655 0.52993 0.38175 0.0
C571 C 0.18837 0.55999 0.38996 0.0
C572 C 0.13601 0.52572 0.37394 0.0
C573 C 0.11014 0.49414 0.3661 0.0
C574 C 0.09816 0.49151 0.34582 0.0
C575 C 0.07381 0.46174 0.33839 0.0
C576 C 0.06114 0.43448 0.35114 0.0
C577 C 0.0727 0.43695 0.37139 0.0
C578 C 0.09701 0.46666 0.3789 0.0
C579 C 0.15861 0.66365 0.38181 0.0
C580 C 0.1291 0.65659 0.39087 0.0
C581 C 0.16576 0.63908 0.37836 0.0
C582 C 0.1441 0.60731 0.38474 0.0
C583 C 0.11428 0.60026 0.39336 0.0
C584 C 0.10671 0.62463 0.39619 0.0
C585 C 0.15271 0.58153 0.38321 0.0
C586 C 0.13022 0.5517 0.37449 0.0
C587 C 0.18222 0.58567 0.39107 0.0
C588 C 0.20657 0.61595 0.40129 0.0
C589 C 0.19848 0.62764 0.41899 0.0
C590 C 0.22135 0.65666 0.42818 0.0
C591 C 0.25247 0.67404 0.41992 0.0
C592 C 0.26084 0.66235 0.40251 0.0
C593 C 0.23805 0.63336 0.39325 0.0
H594 H 0.27012 0.69654 0.42702 0.0
H595 H 0.0423 0.41146 0.34535 0.0
H596 H 0.51381 0.74999 0.36163 0.0
H597 H 0.46636 0.69601 0.35916 0.0
H598 H 0.52263 0.6547 0.38194 0.0
H599 H 0.57024 0.70864 0.38403 0.0
H600 H 0.48153 0.61646 0.3535 0.0
H601 H 0.477 0.67107 0.41382 0.0
H602 H 0.47811 0.7153 0.43408 0.0
H603 H 0.39196 0.70014 0.4035 0.0
H604 H 0.39089 0.65641 0.38246 0.0
H605 H 0.35051 0.47652 0.40347 0.0
H606 H 0.3985 0.52985 0.39892 0.0
H607 H 0.34787 0.55435 0.35364 0.0
H608 H 0.29998 0.50065 0.35763 0.0
H609 H 0.38503 0.60032 0.39251 0.0
H610 H 0.39345 0.544 0.3316 0.0
H611 H 0.39421 0.4981 0.31475 0.0
H612 H 0.4748 0.51401 0.35258 0.0
H613 H 0.47416 0.55971 0.36989 0.0
C614 C 0.51605 0.7293 0.36586 0.0
C615 C 0.54553 0.73343 0.37321 0.0
C616 C 0.489 0.69853 0.36446 0.0
C617 C 0.49083 0.67141 0.37077 0.0
C618 C 0.52069 0.67532 0.37703 0.0
C619 C 0.54787 0.70611 0.3782 0.0
C620 C 0.46123 0.63934 0.37218 0.0
C621 C 0.46052 0.61298 0.3621 0.0
C622 C 0.43382 0.63472 0.38352 0.0
C623 C 0.43418 0.66082 0.39627 0.0
C624 C 0.45851 0.67742 0.41118 0.0
C625 C 0.45915 0.70242 0.42279 0.0
C626 C 0.43528 0.71071 0.41991 0.0
C627 C 0.41061 0.69388 0.40551 0.0
C628 C 0.41001 0.66904 0.39371 0.0
C629 C 0.34963 0.49326 0.39253 0.0
C630 C 0.32162 0.48454 0.38087 0.0
C631 C 0.37701 0.52358 0.38993 0.0
C632 C 0.37654 0.54577 0.37594 0.0
C633 C 0.34853 0.53735 0.36446 0.0
C634 C 0.32135 0.50675 0.36671 0.0
C635 C 0.40535 0.57794 0.37354 0.0
C636 C 0.40597 0.60414 0.38367 0.0
C637 C 0.43291 0.58226 0.36274 0.0
C638 C 0.43351 0.55502 0.35219 0.0
C639 C 0.41111 0.5375 0.33647 0.0
C640 C 0.41157 0.51157 0.3268 0.0
C641 C 0.43447 0.50308 0.33263 0.0
C642 C 0.45704 0.52058 0.3481 0.0
C643 C 0.45665 0.54651 0.35783 0.0
H644 H 0.43479 0.483 0.32513 0.0
H645 H 0.43578 0.73005 0.42894 0.0
H646 H 0.4985 0.80692 0.40382 0.0
H647 H 0.44356 0.79786 0.39978 0.0
H648 H 0.47335 0.85795 0.34508 0.0
H649 H 0.52805 0.86599 0.34855 0.0
H650 H 0.43908 0.87172 0.38125 0.0
H651 H 0.43401 0.79167 0.33456 0.0
H652 H 0.43837 0.74477 0.32349 0.0
H653 H 0.36376 0.68449 0.36648 0.0
H654 H 0.36041 0.7314 0.37883 0.0
H655 H 0.28179 0.8448 0.36001 0.0
H656 H 0.3358 0.85275 0.35614 0.0
H657 H 0.30852 0.7671 0.39238 0.0
H658 H 0.25421 0.75781 0.39544 0.0
H659 H 0.34296 0.7679 0.36149 0.0
H660 H 0.35537 0.84706 0.41302 0.0
H661 H 0.35239 0.89349 0.42707 0.0
H662 H 0.41078 0.95272 0.37675 0.0
H663 H 0.41431 0.90674 0.36243 0.0
C664 C 0.49321 0.81801 0.39088 0.0
C665 C 0.51735 0.83718 0.3765 0.0
C666 C 0.4619 0.81272 0.38855 0.0
C667 C 0.45454 0.82715 0.37209 0.0
C668 C 0.47866 0.84651 0.35779 0.0
C669 C 0.50975 0.85102 0.35977 0.0
C670 C 0.42199 0.82326 0.37053 0.0
C671 C 0.41806 0.8492 0.37662 0.0
C672 C 0.39468 0.79355 0.36494 0.0
C673 C 0.39745 0.76539 0.35796 0.0
C674 C 0.41916 0.76866 0.34211 0.0
C675 C 0.42145 0.742 0.33558 0.0
C676 C 0.40164 0.71172 0.34445 0.0
C677 C 0.37943 0.70803 0.35981 0.0
C678 C 0.37748 0.73471 0.36668 0.0
C679 C 0.28693 0.8274 0.36709 0.0
C680 C 0.2631 0.80074 0.37825 0.0
C681 C 0.31814 0.83223 0.36499 0.0
C682 C 0.32649 0.81085 0.37427 0.0
C683 C 0.30278 0.78404 0.38512 0.0
C684 C 0.27153 0.77896 0.38702 0.0
C685 C 0.3598 0.81615 0.37273 0.0
C686 C 0.36395 0.7905 0.36603 0.0
C687 C 0.38731 0.84592 0.3781 0.0
C688 C 0.38478 0.87339 0.38653 0.0
C689 C 0.36735 0.86992 0.40486 0.0
C690 C 0.3656 0.89615 0.4129 0.0
C691 C 0.38115 0.92593 0.40273 0.0
C692 C 0.39866 0.92961 0.38457 0.0
C693 C 0.40063 0.90352 0.37652 0.0
H694 H 0.37974 0.94618 0.40899 0.0
H695 H 0.40332 0.69107 0.33932 0.0
H696 H 0.37782 0.90684 0.89454 0.0
H697 H 0.41709 0.89015 0.88626 0.0
H698 H 0.33977 0.79664 0.86706 0.0
H699 H 0.3004 0.81273 0.87667 0.0
H700 H 0.37745 0.7863 0.88642 0.0
H701 H 0.39511 0.85683 0.8314 0.0
H702 H 0.40364 0.90571 0.81307 0.0
H703 H 0.49431 0.96187 0.84435 0.0
H704 H 0.48612 0.91344 0.86314 0.0
H705 H 0.5452 0.81446 0.84351 0.0
H706 H 0.4977 0.82075 0.83905 0.0
H707 H 0.47576 0.80086 0.90431 0.0
H708 H 0.52237 0.79368 0.90855 0.0
H709 H 0.48192 0.86026 0.85245 0.0
H710 H 0.397 0.76454 0.9147 0.0
H711 H 0.38269 0.70983 0.92613 0.0
H712 H 0.41819 0.69399 0.86865 0.0
H713 H 0.43209 0.74833 0.85665 0.0
C714 C 0.36931 0.88279 0.88847 0.0
C715 C 0.3362 0.86104 0.88628 0.0
C716 C 0.39176 0.87332 0.88353 0.0
C717 C 0.38157 0.84231 0.87555 0.0
C718 C 0.34835 0.82068 0.87315 0.0
C719 C 0.32586 0.82987 0.87865 0.0
C720 C 0.40557 0.83203 0.87095 0.0
C721 C 0.40019 0.8024 0.87886 0.0
C722 C 0.43463 0.85216 0.86011 0.0
C723 C 0.4399 0.88146 0.84878 0.0
C724 C 0.41679 0.87963 0.83448 0.0
C725 C 0.42157 0.90726 0.82399 0.0
C726 C 0.44948 0.93688 0.82756 0.0
C727 C 0.4727 0.93891 0.8416 0.0
C728 C 0.46802 0.91135 0.85215 0.0
C729 C 0.53012 0.81143 0.85683 0.0
C730 C 0.53724 0.80334 0.87633 0.0
C731 C 0.50297 0.81492 0.85428 0.0
C732 C 0.48268 0.81062 0.87125 0.0
C733 C 0.49032 0.80325 0.89081 0.0
C734 C 0.51708 0.79932 0.89327 0.0
C735 C 0.45445 0.81543 0.86901 0.0
C736 C 0.45899 0.84396 0.85973 0.0
C737 C 0.42391 0.79343 0.87757 0.0
C738 C 0.4159 0.76074 0.88484 0.0
C739 C 0.40167 0.74938 0.90444 0.0
C740 C 0.3936 0.7184 0.91103 0.0
C741 C 0.39963 0.69849 0.89816 0.0
C742 C 0.41365 0.70948 0.87864 0.0
C743 C 0.42166 0.7404 0.87195 0.0
H744 H 0.39338 0.67451 0.90329 0.0
H745 H 0.45313 0.95825 0.81943 0.0
H746 H 0.13727 0.47996 0.90338 0.0
H747 H 0.14596 0.53447 0.89894 0.0
H748 H 0.21938 0.55467 0.85306 0.0
H749 H 0.21058 0.49985 0.85723 0.0
H750 H 0.23562 0.60478 0.88437 0.0
H751 H 0.15352 0.54146 0.83473 0.0
H752 H 0.10256 0.49464 0.82292 0.0
H753 H 0.04952 0.51854 0.86627 0.0
H754 H 0.10024 0.56524 0.87859 0.0
H755 H 0.24283 0.75375 0.86182 0.0
H756 H 0.23999 0.7015 0.85733 0.0
H757 H 0.14755 0.65461 0.88844 0.0
H758 H 0.14961 0.70661 0.89144 0.0
H759 H 0.14484 0.61819 0.85957 0.0
H760 H 0.22664 0.67798 0.91192 0.0
H761 H 0.27742 0.72363 0.92511 0.0
H762 H 0.33101 0.70578 0.87865 0.0
H763 H 0.28046 0.6603 0.86496 0.0
C764 C 0.15537 0.49602 0.89241 0.0
C765 C 0.17311 0.48562 0.88056 0.0
C766 C 0.16023 0.52708 0.88986 0.0
C767 C 0.18313 0.54839 0.87557 0.0
C768 C 0.20154 0.53845 0.8641 0.0
C769 C 0.19634 0.50715 0.86642 0.0
C770 C 0.18712 0.58079 0.87247 0.0
C771 C 0.21605 0.60794 0.87865 0.0
C772 C 0.16135 0.58458 0.86524 0.0
C773 C 0.13073 0.55672 0.8577 0.0
C774 C 0.13102 0.5366 0.84186 0.0
C775 C 0.10217 0.5101 0.83505 0.0
C776 C 0.07283 0.50358 0.84386 0.0
C777 C 0.07227 0.52361 0.85947 0.0
C778 C 0.10106 0.55012 0.86635 0.0
C779 C 0.22182 0.73206 0.8674 0.0
C780 C 0.19641 0.73387 0.87695 0.0
C781 C 0.2203 0.70231 0.86504 0.0
C782 C 0.19394 0.67406 0.87303 0.0
C783 C 0.1682 0.67595 0.88215 0.0
C784 C 0.16929 0.70556 0.88389 0.0
C785 C 0.19304 0.64254 0.87227 0.0
C786 C 0.16465 0.61537 0.86521 0.0
C787 C 0.21929 0.63878 0.87891 0.0
C788 C 0.2497 0.66599 0.88725 0.0
C789 C 0.24922 0.68393 0.90442 0.0
C790 C 0.27797 0.70976 0.91199 0.0
C791 C 0.3074 0.71768 0.90267 0.0
C792 C 0.30817 0.69968 0.8858 0.0
C793 C 0.27948 0.67388 0.87814 0.0
H794 H 0.32961 0.73768 0.90855 0.0
H795 H 0.05052 0.48304 0.83857 0.0
H796 H 0.503 0.68674 0.90227 0.0
H797 H 0.44771 0.64178 0.8993 0.0
H798 H 0.48334 0.5815 0.87486 0.0
H799 H 0.5387 0.62604 0.87828 0.0
H800 H 0.40958 0.60509 0.86904 0.0
H801 H 0.43885 0.50601 0.89384 0.0
H802 H 0.47919 0.50086 0.91485 0.0
H803 H 0.49634 0.5833 0.95108 0.0
H804 H 0.45578 0.58865 0.93051 0.0
H805 H 0.2734 0.44911 0.85209 0.0
H806 H 0.32927 0.49411 0.85243 0.0
H807 H 0.32637 0.4974 0.91935 0.0
H808 H 0.27068 0.45248 0.91904 0.0
H809 H 0.38295 0.50279 0.90478 0.0
H810 H 0.31673 0.54982 0.89386 0.0
H811 H 0.27454 0.5569 0.87682 0.0
H812 H 0.32821 0.58233 0.81975 0.0
H813 H 0.37051 0.57489 0.83638 0.0
C814 C 0.49906 0.66396 0.89616 0.0
C815 C 0.52523 0.65978 0.89079 0.0
C816 C 0.46744 0.63833 0.89439 0.0
C817 C 0.46145 0.60816 0.88718 0.0
C818 C 0.48747 0.60441 0.88086 0.0
C819 C 0.51909 0.62991 0.88279 0.0
C820 C 0.42818 0.5802 0.88725 0.0
C821 C 0.40379 0.58268 0.87675 0.0
C822 C 0.42046 0.55122 0.89778 0.0
C823 C 0.44454 0.54791 0.91048 0.0
C824 C 0.45115 0.52295 0.90635 0.0
C825 C 0.47405 0.52001 0.91817 0.0
C826 C 0.49039 0.54181 0.93424 0.0
C827 C 0.48375 0.56651 0.93859 0.0
C828 C 0.46083 0.56952 0.92684 0.0
C829 C 0.28493 0.45917 0.86684 0.0
C830 C 0.26784 0.44751 0.88554 0.0
C831 C 0.31665 0.48495 0.86701 0.0
C832 C 0.33172 0.49916 0.88591 0.0
C833 C 0.31507 0.48676 0.90462 0.0
C834 C 0.28331 0.46129 0.90443 0.0
C835 C 0.36461 0.5275 0.88622 0.0
C836 C 0.38886 0.5251 0.89687 0.0
C837 C 0.37194 0.55681 0.87636 0.0
C838 C 0.34661 0.56141 0.8663 0.0
C839 C 0.31939 0.55662 0.87762 0.0
C840 C 0.29548 0.56075 0.86805 0.0
C841 C 0.29863 0.56996 0.8472 0.0
C842 C 0.32576 0.57514 0.83589 0.0
C843 C 0.34973 0.57098 0.84539 0.0
H844 H 0.28011 0.57317 0.83981 0.0
H845 H 0.50815 0.53951 0.94336 0.0
H846 H 0.85934 0.56755 0.6067 0.0
H847 H 0.8658 0.51985 0.60868 0.0
H848 H 0.76772 0.4629 0.63031 0.0
H849 H 0.76105 0.51043 0.62807 0.0
H850 H 0.81776 0.45393 0.6523 0.0
H851 H 0.77601 0.455 0.58367 0.0
H852 H 0.77701 0.48076 0.55028 0.0
H853 H 0.87118 0.49475 0.53721 0.0
H854 H 0.87093 0.46951 0.57071 0.0
H855 H 0.79384 0.29677 0.63671 0.0
H856 H 0.78885 0.34519 0.63832 0.0
H857 H 0.87026 0.3942 0.59687 0.0
H858 H 0.87402 0.34527 0.59433 0.0
H859 H 0.82886 0.40835 0.58559 0.0
H860 H 0.87301 0.40823 0.6524 0.0
H861 H 0.87615 0.38576 0.68623 0.0
H862 H 0.78415 0.37385 0.70357 0.0
H863 H 0.78027 0.39588 0.66972 0.0
C864 C 0.83938 0.54495 0.61216 0.0
C865 C 0.80967 0.54252 0.61715 0.0
C866 C 0.84304 0.51779 0.61322 0.0
C867 C 0.81718 0.48796 0.61959 0.0
C868 C 0.78792 0.48577 0.62539 0.0
C869 C 0.78408 0.51278 0.62398 0.0
C870 C 0.82004 0.45863 0.61902 0.0
C871 C 0.8199 0.44367 0.63776 0.0
C872 C 0.82364 0.44595 0.60004 0.0
C873 C 0.82359 0.46068 0.57978 0.0
C874 C 0.79704 0.46381 0.57376 0.0
C875 C 0.79745 0.47828 0.5548 0.0
C876 C 0.82418 0.48947 0.54166 0.0
C877 C 0.85051 0.48612 0.54742 0.0
C878 C 0.85024 0.47172 0.56638 0.0
C879 C 0.81068 0.31797 0.62803 0.0
C880 C 0.83433 0.3174 0.61544 0.0
C881 C 0.80796 0.3457 0.62903 0.0
C882 C 0.82953 0.37367 0.618 0.0
C883 C 0.85327 0.37301 0.6055 0.0
C884 C 0.85546 0.34506 0.60408 0.0
C885 C 0.82694 0.40336 0.61898 0.0
C886 C 0.82695 0.41847 0.60025 0.0
C887 C 0.82389 0.41652 0.63804 0.0
C888 C 0.82623 0.40345 0.65845 0.0
C889 C 0.85336 0.40064 0.66338 0.0
C890 C 0.85528 0.38801 0.68256 0.0
C891 C 0.83033 0.37832 0.69702 0.0
C892 C 0.80344 0.38133 0.69234 0.0
C893 C 0.80139 0.39393 0.67317 0.0
H894 H 0.83186 0.36853 0.71186 0.0
H895 H 0.82446 0.50067 0.52699 0.0
H896 H 0.63317 0.53846 0.63397 0.0
H897 H 0.58878 0.48288 0.6374 0.0
H898 H 0.64152 0.44955 0.60043 0.0
H899 H 0.68609 0.50499 0.59697 0.0
H900 H 0.57834 0.42701 0.58681 0.0
H901 H 0.63466 0.43543 0.65073 0.0
H902 H 0.65964 0.46021 0.68429 0.0
H903 H 0.56868 0.44562 0.70651 0.0
H904 H 0.54324 0.42115 0.67296 0.0
H905 H 0.48747 0.26056 0.59724 0.0
H906 H 0.53057 0.31606 0.59941 0.0
H907 H 0.47361 0.33784 0.64121 0.0
H908 H 0.43039 0.28133 0.63999 0.0
H909 H 0.53631 0.36773 0.65319 0.0
H910 H 0.47911 0.3583 0.59057 0.0
H911 H 0.45305 0.33428 0.55711 0.0
H912 H 0.54394 0.35242 0.53232 0.0
H913 H 0.57048 0.3761 0.56575 0.0
C914 C 0.63546 0.51928 0.62672 0.0
C915 C 0.66308 0.52614 0.61511 0.0
C916 C 0.61012 0.48755 0.62876 0.0
C917 C 0.61194 0.46218 0.61918 0.0
C918 C 0.6397 0.46886 0.60791 0.0
C919 C 0.66516 0.50053 0.60601 0.0
C920 C 0.58428 0.42883 0.62003 0.0
C921 C 0.56938 0.41387 0.60129 0.0
C922 C 0.57192 0.4123 0.63902 0.0
C923 C 0.58712 0.42677 0.65925 0.0
C924 C 0.62004 0.43775 0.66271 0.0
C925 C 0.63428 0.4517 0.68174 0.0
C926 C 0.61579 0.45458 0.6975 0.0
C927 C 0.58299 0.44342 0.69428 0.0
C928 C 0.56864 0.42948 0.67527 0.0
C929 C 0.48398 0.27669 0.60724 0.0
C930 C 0.45512 0.26617 0.61843 0.0
C931 C 0.50871 0.30872 0.60825 0.0
C932 C 0.50509 0.33123 0.62015 0.0
C933 C 0.47679 0.32086 0.6318 0.0
C934 C 0.452 0.28861 0.63093 0.0
C935 C 0.53076 0.36564 0.6199 0.0
C936 C 0.54517 0.38089 0.63872 0.0
C937 C 0.54252 0.38267 0.60098 0.0
C938 C 0.52674 0.36875 0.58074 0.0
C939 C 0.49351 0.35697 0.57803 0.0
C940 C 0.47865 0.34344 0.55906 0.0
C941 C 0.49682 0.34176 0.54261 0.0
C942 C 0.5299 0.35371 0.54508 0.0
C943 C 0.54487 0.36723 0.56404 0.0
H944 H 0.48527 0.33125 0.52794 0.0
H945 H 0.62685 0.4654 0.71222 0.0
H946 H 0.7285 0.20016 0.58635 0.0
H947 H 0.67525 0.1942 0.59105 0.0
H948 H 0.67308 0.16375 0.65439 0.0
H949 H 0.7268 0.17005 0.64986 0.0
H950 H 0.61479 0.12722 0.63444 0.0
H951 H 0.68838 0.2379 0.64684 0.0
H952 H 0.73563 0.29151 0.64041 0.0
H953 H 0.69372 0.29867 0.58309 0.0
H954 H 0.64624 0.24486 0.58909 0.0
H955 H 0.47856 0.14968 0.65344 0.0
H956 H 0.53268 0.15638 0.6569 0.0
H957 H 0.54979 0.17874 0.5916 0.0
H958 H 0.49587 0.17176 0.58794 0.0
H959 H 0.60158 0.22142 0.61832 0.0
H960 H 0.52986 0.1068 0.60587 0.0
H961 H 0.48297 0.05351 0.61388 0.0
H962 H 0.52244 0.05523 0.6741 0.0
H963 H 0.56936 0.10881 0.66655 0.0
C964 C 0.71683 0.19234 0.60131 0.0
C965 C 0.73208 0.18598 0.61781 0.0
C966 C 0.68635 0.18886 0.60396 0.0
C967 C 0.67053 0.1791 0.62318 0.0
C968 C 0.68501 0.17145 0.63947 0.0
C969 C 0.71562 0.17495 0.63682 0.0
C970 C 0.63912 0.17757 0.62611 0.0
C971 C 0.61197 0.14795 0.63133 0.0
C972 C 0.63553 0.20465 0.622 0.0
C973 C 0.66384 0.23721 0.61835 0.0
C974 C 0.68932 0.2508 0.63279 0.0
C975 C 0.71615 0.28126 0.62923 0.0
C976 C 0.71777 0.29847 0.61131 0.0
C977 C 0.69245 0.2853 0.59696 0.0
C978 C 0.66553 0.25484 0.60045 0.0
C979 C 0.49395 0.15616 0.63986 0.0
C980 C 0.48298 0.16007 0.6204 0.0
C981 C 0.52475 0.15991 0.64186 0.0
C982 C 0.54507 0.16798 0.62448 0.0
C983 C 0.53442 0.17257 0.60518 0.0
C984 C 0.50357 0.1684 0.60311 0.0
C985 C 0.57722 0.1709 0.62609 0.0
C986 C 0.60452 0.20084 0.62175 0.0
C987 C 0.58097 0.14424 0.63128 0.0
C988 C 0.5529 0.11197 0.63575 0.0
C989 C 0.52839 0.09595 0.62089 0.0
C990 C 0.50184 0.06566 0.62533 0.0
C991 C 0.49967 0.05103 0.64451 0.0
C992 C 0.52411 0.06662 0.65927 0.0
C993 C 0.5507 0.09693 0.65491 0.0
H994 H 0.4791 0.02758 0.64792 0.0
H995 H 0.73859 0.32204 0.60856 0.0
H996 H 0.308 0.16496 0.05722 0.0
H997 H 0.28894 0.12128 0.03171 0.0
H998 H 0.3868 0.15756 0.01073 0.0
H999 H 0.4058 0.20178 0.0357 0.0
H1000 H 0.34753 0.13617 0.97873 0.0
H1001 H 0.35022 0.09559 0.04678 0.0
H1002 H 0.33658 0.08476 0.08396 0.0
H1003 H 0.23595 0.02836 0.06864 0.0
H1004 H 0.24899 0.03926 0.03135 0.0
H1005 H 0.35046 0.99628 0.94613 0.0
H1006 H 0.35677 0.04441 0.96377 0.0
H1007 H 0.25333 -4e-05 0.96902 0.0
H1008 H 0.24695 0.95166 0.95122 0.0
H1009 H 0.28769 0.02476 0.00683 0.0
H1010 H 0.28889 0.06009 0.9372 0.0
H1011 H 0.30604 0.07022 0.90054 0.0
H1012 H 0.4035 0.13575 0.91945 0.0
H1013 H 0.38705 0.12565 0.95626 0.0
C1014 C 0.32537 0.16383 0.04697 0.0
C1015 C 0.35842 0.18658 0.04856 0.0
C1016 C 0.31447 0.13881 0.03245 0.0
C1017 C 0.33651 0.13578 0.01956 0.0
C1018 C 0.36933 0.15936 0.02052 0.0
C1019 C 0.38019 0.18458 0.03485 0.0
C1020 C 0.32589 0.10711 0.00599 0.0
C1021 C 0.33454 0.11182 0.98489 0.0
C1022 C 0.30841 0.07527 0.01392 0.0
C1023 C 0.30054 0.06856 0.03631 0.0
C1024 C 0.32516 0.08108 0.05135 0.0
C1025 C 0.31755 0.0749 0.07244 0.0
C1026 C 0.28541 0.05596 0.07866 0.0
C1027 C 0.26083 0.04308 0.0638 0.0
C1028 C 0.26831 0.04925 0.04269 0.0
C1029 C 0.3291 0.99694 0.9509 0.0
C1030 C 0.29826 0.97034 0.94736 0.0
C1031 C 0.3327 0.02445 0.96083 0.0
C1032 C 0.3055 0.02577 0.96756 0.0
C1033 C 0.27458 0.99942 0.96382 0.0
C1034 C 0.27097 0.97199 0.95358 0.0
C1035 C 0.30979 0.0539 0.97971 0.0
C1036 C 0.30008 0.04908 0.00058 0.0
C1037 C 0.32677 0.08561 0.97165 0.0
C1038 C 0.33675 0.09193 0.94951 0.0
C1039 C 0.31403 0.07648 0.93356 0.0
C1040 C 0.32362 0.08225 0.91274 0.0
C1041 C 0.35585 0.10358 0.90767 0.0
C1042 C 0.37854 0.11923 0.9234 0.0
C1043 C 0.36909 0.11352 0.94425 0.0
H1044 H 0.36322 0.10801 0.89154 0.0
H1045 H 0.27956 0.0512 0.095 0.0
H1046 H 0.83258 0.1493 0.05451 0.0
H1047 H 0.87593 0.1769 0.02908 0.0
H1048 H 0.84211 0.24339 0.01582 0.0
H1049 H 0.79823 0.21536 0.04077 0.0
H1050 H 0.86093 0.22801 0.98104 0.0
H1051 H 0.90484 0.26266 0.04957 0.0
H1052 H 0.91661 0.25525 0.08581 0.0
H1053 H 0.96986 0.21044 0.06448 0.0
H1054 H 0.95796 0.21713 0.0281 0.0
H1055 H 0.00453 0.36587 0.94592 0.0
H1056 H 0.95598 0.32649 0.96438 0.0
H1057 H 0.99458 0.26232 0.96891 0.0
H1058 H 0.04344 0.30187 0.95069 0.0
H1059 H 0.97317 0.2721 0.00638 0.0
H1060 H 0.93285 0.24356 0.93693 0.0
H1061 H 0.92158 0.25373 0.9012 0.0
H1062 H 0.86242 0.2906 0.92482 0.0
H1063 H 0.87371 0.28109 0.96072 0.0
C1064 C 0.83422 0.16961 0.04602 0.0
C1065 C 0.8122 0.18035 0.04972 0.0
C1066 C 0.85904 0.1854 0.03154 0.0
C1067 C 0.86258 0.21254 0.02081 0.0
C1068 C 0.83986 0.22253 0.02393 0.0
C1069 C 0.81486 0.20654 0.03824 0.0
C1070 C 0.89079 0.23155 0.0071 0.0
C1071 C 0.88548 0.23783 0.98661 0.0
C1072 C 0.92282 0.2439 0.01427 0.0
C1073 C 0.9302 0.24006 0.03613 0.0
C1074 C 0.91886 0.251 0.05262 0.0
C1075 C 0.92557 0.24696 0.07318 0.0
C1076 C 0.9439 0.2323 0.07744 0.0
C1077 C 0.95562 0.22173 0.06115 0.0
C1078 C 0.9489 0.22565 0.04056 0.0
C1079 C 0.00258 0.34331 0.95076 0.0
C1080 C 0.02779 0.33698 0.94691 0.0
C1081 C 0.97474 0.32073 0.96114 0.0
C1082 C 0.97163 0.29141 0.96787 0.0
C1083 C 0.9965 0.28476 0.96374 0.0
C1084 C 0.02427 0.30726 0.95322 0.0
C1085 C 0.94331 0.26874 0.98039 0.0
C1086 C 0.94862 0.26189 0.00071 0.0
C1087 C 0.91134 0.25626 0.97313 0.0
C1088 C 0.90434 0.26182 0.95154 0.0
C1089 C 0.91763 0.25406 0.93452 0.0
C1090 C 0.91121 0.25967 0.91423 0.0
C1091 C 0.89135 0.27286 0.91074 0.0
C1092 C 0.87781 0.2804 0.92754 0.0
C1093 C 0.88418 0.27486 0.94787 0.0
H1094 H 0.88641 0.27719 0.89502 0.0
H1095 H 0.94908 0.2292 0.09337 0.0
H1096 H 0.85883 0.68808 0.0533 0.0
H1097 H 0.8333 0.70606 0.02772 0.0
H1098 H 0.75921 0.60712 0.01729 0.0
H1099 H 0.78554 0.58906 0.04201 0.0
H1100 H 0.7729 0.63711 0.98232 0.0
H1101 H 0.74997 0.66069 0.05121 0.0
H1102 H 0.76385 0.68531 0.08609 0.0
H1103 H 0.81552 0.77968 0.05874 0.0
H1104 H 0.80227 0.75556 0.02368 0.0
H1105 H 0.6362 0.64828 0.95442 0.0
H1106 H 0.677 0.63965 0.97127 0.0
H1107 H 0.746 0.74133 0.96635 0.0
H1108 H 0.70495 0.75017 0.94968 0.0
H1109 H 0.74205 0.71669 0.00592 0.0
H1110 H 0.75542 0.69009 0.93632 0.0
H1111 H 0.7372 0.66271 0.90247 0.0
H1112 H 0.69853 0.57054 0.93242 0.0
H1113 H 0.7161 0.59733 0.9665 0.0
C1114 C 0.83728 0.67022 0.04535 0.0
C1115 C 0.82399 0.63722 0.0497 0.0
C1116 C 0.82264 0.6805 0.03082 0.0
C1117 C 0.79393 0.65801 0.02088 0.0
C1118 C 0.78132 0.62496 0.02474 0.0
C1119 C 0.79633 0.61465 0.03892 0.0
C1120 C 0.77602 0.66868 0.00722 0.0
C1121 C 0.76604 0.6544 0.98753 0.0
C1122 C 0.76763 0.6918 0.01379 0.0
C1123 C 0.77545 0.70632 0.03484 0.0
C1124 C 0.76447 0.68668 0.05265 0.0
C1125 C 0.7722 0.70054 0.07244 0.0
C1126 C 0.79064 0.73403 0.07463 0.0
C1127 C 0.8013 0.75374 0.05702 0.0
C1128 C 0.79368 0.73999 0.03719 0.0
C1129 C 0.66008 0.66877 0.95688 0.0
C1130 C 0.66737 0.69989 0.95081 0.0
C1131 C 0.68344 0.66378 0.96632 0.0
C1132 C 0.71458 0.68981 0.96987 0.0
C1133 C 0.72213 0.72091 0.96362 0.0
C1134 C 0.69876 0.72589 0.954 0.0
C1135 C 0.73839 0.68456 0.98131 0.0
C1136 C 0.74943 0.69985 0.00057 0.0
C1137 C 0.74723 0.66195 0.97451 0.0
C1138 C 0.73694 0.64575 0.95399 0.0
C1139 C 0.74286 0.66398 0.93571 0.0
C1140 C 0.73267 0.64856 0.91648 0.0
C1141 C 0.71668 0.61491 0.9153 0.0
C1142 C 0.71092 0.5966 0.93335 0.0
C1143 C 0.72104 0.6119 0.95263 0.0
H1144 H 0.70879 0.60301 0.90039 0.0
H1145 H 0.7966 0.74472 0.08997 0.0
H1146 H 0.98981 0.3564 0.54751 0.0
H1147 H 0.03932 0.36695 0.52992 0.0
H1148 H 0.0088 0.2656 0.53231 0.0
H1149 H 0.95884 0.2548 0.54988 0.0
H1150 H 0.0759 0.30658 0.53972 0.0
H1151 H 0.99612 0.29255 0.48942 0.0
H1152 H 0.95445 0.30183 0.47374 0.0
H1153 H 0.02431 0.40205 0.46528 0.0
H1154 H 0.06631 0.39348 0.48123 0.0
H1155 H 0.17501 0.31701 0.45032 0.0
H1156 H 0.13042 0.3012 0.47502 0.0
H1157 H 0.15749 0.4011 0.48281 0.0
H1158 H 0.20234 0.41713 0.45859 0.0
H1159 H 0.09099 0.35662 0.47002 0.0
H1160 H 0.17001 0.37135 0.52129 0.0
H1161 H 0.21178 0.363 0.53773 0.0
H1162 H 0.14387 0.26179 0.54393 0.0
H1163 H 0.10172 0.26948 0.52726 0.0
C1164 C 0.99365 0.33636 0.54437 0.0
C1165 C 0.97019 0.3047 0.54975 0.0
C1166 C 0.02201 0.34244 0.53443 0.0
C1167 C 0.02741 0.31697 0.52953 0.0
C1168 C 0.00498 0.28555 0.53593 0.0
C1169 C 0.97651 0.27943 0.54597 0.0
C1170 C 0.0553 0.32318 0.51638 0.0
C1171 C 0.079 0.31701 0.52434 0.0
C1172 C 0.05945 0.3372 0.49644 0.0
C1173 C 0.0343 0.34242 0.4867 0.0
C1174 C 0.00254 0.31663 0.48437 0.0
C1175 C 0.97887 0.32175 0.47541 0.0
C1176 C 0.98671 0.35253 0.46856 0.0
C1177 C 0.01827 0.37823 0.47061 0.0
C1178 C 0.04202 0.37325 0.4796 0.0
C1179 C 0.1717 0.33559 0.45757 0.0
C1180 C 0.19203 0.36827 0.45254 0.0
C1181 C 0.14637 0.32654 0.47168 0.0
C1182 C 0.14082 0.35004 0.48066 0.0
C1183 C 0.16154 0.38269 0.47604 0.0
C1184 C 0.18716 0.39178 0.46226 0.0
C1185 C 0.11184 0.34056 0.49347 0.0
C1186 C 0.0878 0.34596 0.48534 0.0
C1187 C 0.10745 0.3258 0.51315 0.0
C1188 C 0.13282 0.32092 0.52279 0.0
C1189 C 0.16407 0.34723 0.52591 0.0
C1190 C 0.18779 0.34265 0.53534 0.0
C1191 C 0.18049 0.31189 0.54185 0.0
C1192 C 0.14948 0.28561 0.53887 0.0
C1193 C 0.12566 0.29007 0.52944 0.0
H1194 H 0.19883 0.30847 0.54929 0.0
H1195 H 0.96835 0.35645 0.46163 0.0
H1196 H 0.58559 0.786 0.45969 0.0
H1197 H 0.60387 0.76145 0.48562 0.0
H1198 H 0.70289 0.82748 0.46879 0.0
H1199 H 0.68468 0.85167 0.44245 0.0
H1200 H 0.69264 0.76836 0.47042 0.0
H1201 H 0.67149 0.83416 0.51567 0.0
H1202 H 0.64045 0.85754 0.53087 0.0
H1203 H 0.56722 0.76352 0.55103 0.0
H1204 H 0.59759 0.73948 0.53568 0.0
H1205 H 0.74572 0.7029 0.55003 0.0
H1206 H 0.73789 0.7432 0.53157 0.0
H1207 H 0.63471 0.68217 0.53711 0.0
H1208 H 0.6424 0.64223 0.55598 0.0
H1209 H 0.6541 0.74617 0.54339 0.0
H1210 H 0.67252 0.6807 0.49361 0.0
H1211 H 0.7038 0.65758 0.47835 0.0
H1212 H 0.78328 0.75286 0.46703 0.0
H1213 H 0.75259 0.77654 0.48249 0.0
C1214 C 0.61127 0.79552 0.46166 0.0
C1215 C 0.63371 0.82071 0.44904 0.0
C1216 C 0.62171 0.78159 0.47657 0.0
C1217 C 0.65479 0.79289 0.47933 0.0
C1218 C 0.67726 0.81844 0.46696 0.0
C1219 C 0.66682 0.83224 0.45194 0.0
C1220 C 0.66567 0.77654 0.49412 0.0
C1221 C 0.68479 0.76417 0.4865 0.0
C1222 C 0.65506 0.77063 0.51503 0.0
C1223 C 0.63674 0.78499 0.52438 0.0
C1224 C 0.64866 0.81843 0.52321 0.0
C1225 C 0.63119 0.83181 0.53188 0.0
C1226 C 0.60186 0.81202 0.54188 0.0
C1227 C 0.58995 0.77882 0.54327 0.0
C1228 C 0.6073 0.76531 0.53461 0.0
C1229 C 0.72141 0.69837 0.54767 0.0
C1230 C 0.69462 0.66926 0.55428 0.0
C1231 C 0.71698 0.72131 0.53702 0.0
C1232 C 0.68571 0.71546 0.5328 0.0
C1233 C 0.65902 0.6871 0.54019 0.0
C1234 C 0.66343 0.66418 0.55076 0.0
C1235 C 0.68048 0.73766 0.51951 0.0
C1236 C 0.66239 0.751 0.5274 0.0
C1237 C 0.69212 0.7446 0.49887 0.0
C1238 C 0.71043 0.73037 0.48941 0.0
C1239 C 0.69676 0.69671 0.488 0.0
C1240 C 0.71436 0.6835 0.4793 0.0
C1241 C 0.74555 0.70374 0.47179 0.0
C1242 C 0.75915 0.73722 0.4729 0.0
C1243 C 0.74166 0.75054 0.48161 0.0
H1244 H 0.75914 0.69347 0.46506 0.0
H1245 H 0.58837 0.82242 0.54858 0.0
H1246 H 0.3705 0.04525 0.51553 0.0
H1247 H 0.33166 0.99563 0.4981 0.0
H1248 H 0.27196 0.96574 0.55307 0.0
H1249 H 0.31082 0.01595 0.57052 0.0
H1250 H 0.31264 0.93565 0.50537 0.0
H1251 H 0.1927 0.91909 0.53841 0.0
H1252 H 0.17052 0.95235 0.55181 0.0
H1253 H 0.23948 0.03295 0.51569 0.0
H1254 H 0.26176 6e-05 0.50187 0.0
H1255 H 0.19212 0.78432 0.46941 0.0
H1256 H 0.22185 0.82848 0.49404 0.0
H1257 H 0.19571 0.8888 0.4589 0.0
H1258 H 0.16508 0.84449 0.43473 0.0
H1259 H 0.19662 0.90165 0.49865 0.0
H1260 H 0.26668 0.88972 0.45067 0.0
H1261 H 0.28897 0.8596 0.43278 0.0
H1262 H 0.32322 0.84444 0.491 0.0
H1263 H 0.30032 0.87374 0.50932 0.0
C1264 C 0.3492 0.02805 0.52396 0.0
C1265 C 0.34373 0.03439 0.54442 0.0
C1266 C 0.32699 -0.00031 0.51397 0.0
C1267 C 0.29884 0.97695 0.52424 0.0
C1268 C 0.29329 0.98313 0.54473 0.0
C1269 C 0.31544 0.01177 0.55469 0.0
C1270 C 0.27558 0.9469 0.51329 0.0
C1271 C 0.28724 0.92814 0.50404 0.0
C1272 C 0.24252 0.9373 0.51125 0.0
C1273 C 0.22914 0.95722 0.51933 0.0
C1274 C 0.20307 0.94389 0.5333 0.0
C1275 C 0.19048 0.96268 0.54096 0.0
C1276 C 0.20367 0.99478 0.53467 0.0
C1277 C 0.22938 0.00813 0.52062 0.0
C1278 C 0.24202 0.98944 0.5129 0.0
C1279 C 0.19234 0.80686 0.46715 0.0
C1280 C 0.17666 0.81115 0.45004 0.0
C1281 C 0.20932 0.83205 0.48121 0.0
C1282 C 0.21148 0.86213 0.47809 0.0
C1283 C 0.1944 0.86583 0.46162 0.0
C1284 C 0.17704 0.84052 0.44775 0.0
C1285 C 0.23375 0.89056 0.49073 0.0
C1286 C 0.22194 0.90896 0.50029 0.0
C1287 C 0.26696 0.90054 0.49243 0.0
C1288 C 0.28146 0.8836 0.4814 0.0
C1289 C 0.27877 0.87977 0.45968 0.0
C1290 C 0.29145 0.86279 0.44947 0.0
C1291 C 0.30743 0.85004 0.46076 0.0
C1292 C 0.31077 0.85427 0.48228 0.0
C1293 C 0.29789 0.87101 0.4926 0.0
H1294 H 0.31733 0.83699 0.45281 0.0
H1295 H 0.19391 0.00928 0.54063 0.0
H1296 H 0.64364 0.00895 0.05099 0.0
H1297 H 0.63469 0.95991 0.03324 0.0
H1298 H 0.73753 0.00046 0.02667 0.0
H1299 H 0.74658 0.04967 0.04446 0.0
H1300 H 0.70247 0.9767 0.98947 0.0
H1301 H 0.70014 0.94118 0.05928 0.0
H1302 H 0.68287 0.93155 0.09593 0.0
H1303 H 0.58494 0.86809 0.07695 0.0
H1304 H 0.60154 0.87771 0.04016 0.0
H1305 H 0.68505 0.83619 0.94204 0.0
H1306 H 0.70199 0.88036 0.96693 0.0
H1307 H 0.60273 0.84361 0.98485 0.0
H1308 H 0.58574 0.79885 0.96041 0.0
H1309 H 0.64075 0.86566 0.01797 0.0
H1310 H 0.64012 0.90492 0.94935 0.0
H1311 H 0.65464 0.91513 0.91225 0.0
H1312 H 0.75483 0.97234 0.92847 0.0
H1313 H 0.74092 0.96206 0.96568 0.0
C1314 C 0.6643 0.0073 0.04585 0.0
C1315 C 0.69578 0.03308 0.04901 0.0
C1316 C 0.65919 0.97924 0.03588 0.0
C1317 C 0.68547 0.97657 0.02878 0.0
C1318 C 0.71697 0.00207 0.03215 0.0
C1319 C 0.72211 0.03002 0.04237 0.0
C1320 C 0.67979 0.94796 0.01664 0.0
C1321 C 0.68959 0.95244 0.9958 0.0
C1322 C 0.66212 0.91636 0.02481 0.0
C1323 C 0.65206 0.91038 0.04694 0.0
C1324 C 0.67488 0.92538 0.06291 0.0
C1325 C 0.66521 0.91988 0.08371 0.0
C1326 C 0.63282 0.89927 0.08877 0.0
C1327 C 0.61003 0.88406 0.07302 0.0
C1328 C 0.61956 0.8895 0.05218 0.0
C1329 C 0.66688 0.83736 0.95144 0.0
C1330 C 0.63405 0.81429 0.94917 0.0
C1331 C 0.67658 0.86263 0.96562 0.0
C1332 C 0.65356 0.8656 0.97747 0.0
C1333 C 0.62089 0.84182 0.97583 0.0
C1334 C 0.61121 0.81632 0.96182 0.0
C1335 C 0.66325 0.89436 0.99072 0.0
C1336 C 0.65407 0.88993 0.01172 0.0
C1337 C 0.68111 0.92607 0.98263 0.0
C1338 C 0.68952 0.93242 0.96028 0.0
C1339 C 0.66527 0.91947 0.94499 0.0
C1340 C 0.67338 0.9253 0.92395 0.0
C1341 C 0.70565 0.94429 0.918 0.0
C1342 C 0.72986 0.95758 0.9331 0.0
C1343 C 0.72187 0.95177 0.95417 0.0
H1344 H 0.71188 0.94878 0.9017 0.0
H1345 H 0.62539 0.89505 0.10488 0.0
H1346 H 0.95617 0.70614 0.04979 0.0
H1347 H 0.00562 0.7473 0.0327 0.0
H1348 H 0.04188 0.68097 0.03128 0.0
H1349 H 0.99261 0.6399 0.04834 0.0
H1350 H 0.08902 0.74534 0.04237 0.0
H1351 H 0.00645 0.68695 0.98995 0.0
H1352 H 0.9528 0.66719 0.97422 0.0
H1353 H 0.9721 0.7646 0.968 0.0
H1354 H 0.02573 0.7849 0.98398 0.0
H1355 H 0.20159 0.79136 0.96103 0.0
H1356 H 0.15807 0.76619 0.98641 0.0
H1357 H 0.12553 0.83259 0.96963 0.0
H1358 H 0.16837 0.857 0.94353 0.0
H1359 H 0.07677 0.77571 0.97065 0.0
H1360 H 0.16208 0.83554 0.01815 0.0
H1361 H 0.21559 0.85661 0.03436 0.0
H1362 H 0.19204 0.76039 0.05103 0.0
H1363 H 0.13854 0.73867 0.03466 0.0
C1364 C 0.97495 0.70061 0.04614 0.0
C1365 C 0.97056 0.66982 0.05023 0.0
C1366 C 0.00307 0.72403 0.03633 0.0
C1367 C 0.02726 0.71705 0.03067 0.0
C1368 C 0.02349 0.68681 0.03556 0.0
C1369 C 0.99528 0.66332 0.04512 0.0
C1370 C 0.05553 0.7402 0.01835 0.0
C1371 C 0.08651 0.75202 0.02667 0.0
C1372 C 0.05201 0.74959 0.99814 0.0
C1373 C 0.01991 0.7374 0.98838 0.0
C1374 C 0.99914 0.70412 0.98539 0.0
C1375 C 0.96876 0.69284 0.9764 0.0
C1376 C 0.959 0.71462 0.97018 0.0
C1377 C 0.97966 0.74775 0.97287 0.0
C1378 C 0.01005 0.75916 0.98188 0.0
C1379 C 0.18544 0.8009 0.96296 0.0
C1380 C 0.1883 0.82609 0.9503 0.0
C1381 C 0.16066 0.78662 0.97759 0.0
C1382 C 0.1387 0.79775 0.98019 0.0
C1383 C 0.14215 0.82358 0.96794 0.0
C1384 C 0.16666 0.83754 0.95306 0.0
C1385 C 0.11071 0.78068 0.99446 0.0
C1386 C 0.07961 0.76981 0.9865 0.0
C1387 C 0.1142 0.77252 0.0151 0.0
C1388 C 0.14634 0.78546 0.02505 0.0
C1389 C 0.16838 0.81884 0.02514 0.0
C1390 C 0.1987 0.83091 0.03438 0.0
C1391 C 0.20723 0.80985 0.04368 0.0
C1392 C 0.18541 0.77668 0.04381 0.0
C1393 C 0.15505 0.76448 0.03458 0.0
H1394 H 0.23072 0.81924 0.05082 0.0
H1395 H 0.93547 0.70584 0.96322 0.0
H1396 H 0.14116 0.30846 0.94215 0.0
H1397 H 0.16864 0.29023 0.96619 0.0
H1398 H 0.23049 0.38837 0.98634 0.0
H1399 H 0.20317 0.40669 0.96266 0.0
H1400 H 0.26305 0.35663 0.97142 0.0
H1401 H 0.17688 0.33862 0.01857 0.0
H1402 H 0.11995 0.31482 0.02914 0.0
H1403 H 0.1066 0.21966 0.02227 0.0
H1404 H 0.16339 0.2429 0.01135 0.0
H1405 H 0.35479 0.35073 0.05254 0.0
H1406 H 0.31515 0.35819 0.03318 0.0
H1407 H 0.25657 0.25515 0.02511 0.0
H1408 H 0.29627 0.24758 0.04484 0.0
H1409 H 0.2194 0.28316 0.0321 0.0
H1410 H 0.3044 0.29926 0.98641 0.0
H1411 H 0.36064 0.32126 0.97479 0.0
H1412 H 0.37513 0.4173 0.97678 0.0
H1413 H 0.31909 0.39592 0.98875 0.0
C1414 C 0.16022 0.32602 0.952 0.0
C1415 C 0.17014 0.35901 0.95046 0.0
C1416 C 0.17581 0.31557 0.96572 0.0
C1417 C 0.2016 0.33801 0.97795 0.0
C1418 C 0.21065 0.37073 0.97699 0.0
C1419 C 0.19494 0.38112 0.96348 0.0
C1420 C 0.22118 0.32814 0.9904 0.0
C1421 C 0.25361 0.34083 0.98482 0.0
C1422 C 0.20838 0.30646 0.0073 0.0
C1423 C 0.17428 0.2925 0.0139 0.0
C1424 C 0.16173 0.31261 0.0191 0.0
C1425 C 0.1295 0.29923 0.02521 0.0
C1426 C 0.10964 0.26575 0.02631 0.0
C1427 C 0.122 0.24558 0.02137 0.0
C1428 C 0.15421 0.25885 0.01524 0.0
C1429 C 0.33339 0.32968 0.04672 0.0
C1430 C 0.32879 0.29865 0.04992 0.0
C1431 C 0.31075 0.33393 0.0357 0.0
C1432 C 0.28326 0.30726 0.02735 0.0
C1433 C 0.2777 0.27605 0.03137 0.0
C1434 C 0.30034 0.27175 0.04262 0.0
C1435 C 0.26157 0.31252 0.01349 0.0
C1436 C 0.22878 0.29881 0.01864 0.0
C1437 C 0.27387 0.33299 0.99594 0.0
C1438 C 0.30759 0.34599 0.98864 0.0
C1439 C 0.31964 0.32509 0.98452 0.0
C1440 C 0.35148 0.33745 0.97785 0.0
C1441 C 0.37147 0.37067 0.97509 0.0
C1442 C 0.35963 0.39158 0.97895 0.0
C1443 C 0.32781 0.37935 0.98566 0.0
H1444 H 0.39611 0.38019 0.96992 0.0
H1445 H 0.0847 0.25543 0.03104 0.0
H1446 H 0.03737 0.67971 0.48318 0.0
H1447 H 0.98788 0.6708 0.49944 0.0
H1448 H 0.96861 0.71467 0.44693 0.0
H1449 H 0.01772 0.72219 0.4299 0.0
H1450 H 0.96845 0.70866 0.5129 0.0
H1451 H 0.88592 0.67905 0.44129 0.0
H1452 H 0.88043 0.65744 0.40576 0.0
H1453 H 0.92718 0.60491 0.4247 0.0
H1454 H 0.93257 0.62588 0.46037 0.0
H1455 H 0.82434 0.68875 0.55301 0.0
H1456 H 0.86831 0.70702 0.52784 0.0
H1457 H 0.83698 0.6081 0.51185 0.0
H1458 H 0.79235 0.58972 0.53656 0.0
H1459 H 0.86189 0.64615 0.47836 0.0
H1460 H 0.89248 0.64572 0.54952 0.0
H1461 H 0.89674 0.66003 0.58666 0.0
H1462 H 0.9537 0.76055 0.57121 0.0
H1463 H 0.94927 0.74682 0.53392 0.0
C1464 C 0.02255 0.68715 0.47487 0.0
C1465 C 0.03142 0.70126 0.45504 0.0
C1466 C 0.99434 0.68237 0.48435 0.0
C1467 C 0.97433 0.69179 0.47437 0.0
C1468 C 0.98346 0.70679 0.45482 0.0
C1469 C 0.0117 0.71136 0.44519 0.0
C1470 C 0.94381 0.68524 0.48457 0.0
C1471 C 0.94522 0.69528 0.50523 0.0
C1472 C 0.91338 0.66738 0.47473 0.0
C1473 C 0.91 0.65438 0.4534 0.0
C1474 C 0.89496 0.66284 0.43786 0.0
C1475 C 0.89187 0.6507 0.41771 0.0
C1476 C 0.90357 0.62992 0.41296 0.0
C1477 C 0.91826 0.62112 0.42837 0.0
C1478 C 0.92137 0.63315 0.44855 0.0
C1479 C 0.82642 0.67094 0.54379 0.0
C1480 C 0.80527 0.63781 0.54693 0.0
C1481 C 0.85153 0.68141 0.52942 0.0
C1482 C 0.8563 0.6589 0.51829 0.0
C1483 C 0.83377 0.62588 0.52029 0.0
C1484 C 0.80836 0.6154 0.53447 0.0
C1485 C 0.88669 0.66937 0.50665 0.0
C1486 C 0.88523 0.6601 0.48581 0.0
C1487 C 0.91711 0.68698 0.51652 0.0
C1488 C 0.92024 0.69528 0.53894 0.0
C1489 C 0.90574 0.67088 0.55404 0.0
C1490 C 0.90819 0.67888 0.57511 0.0
C1491 C 0.92542 0.71119 0.58129 0.0
C1492 C 0.94031 0.73554 0.5664 0.0
C1493 C 0.93783 0.72767 0.54529 0.0
H1494 H 0.9273 0.71734 0.59761 0.0
H1495 H 0.90118 0.62057 0.39734 0.0
H1496 H 0.31629 0.14088 0.55108 0.0
H1497 H 0.29807 0.1663 0.52564 0.0
H1498 H 0.39665 0.24195 0.51622 0.0
H1499 H 0.41501 0.21598 0.541 0.0
H1500 H 0.30006 0.22028 0.52764 0.0
H1501 H 0.40837 0.27568 0.46949 0.0
H1502 H 0.4461 0.26098 0.45352 0.0
H1503 H 0.37802 0.16054 0.46314 0.0
H1504 H 0.33969 0.17459 0.4789 0.0
H1505 H 0.32428 0.36296 0.48247 0.0
H1506 H 0.33101 0.32075 0.4989 0.0
H1507 H 0.2969 0.26324 0.44317 0.0
H1508 H 0.29033 0.30579 0.4265 0.0
H1509 H 0.35164 0.26535 0.45955 0.0
H1510 H 0.24777 0.23978 0.48185 0.0
H1511 H 0.20483 0.24849 0.49594 0.0
H1512 H 0.25507 0.27892 0.55416 0.0
H1513 H 0.29863 0.27088 0.54031 0.0
C1514 C 0.33408 0.16268 0.54332 0.0
C1515 C 0.36705 0.17647 0.54797 0.0
C1516 C 0.32365 0.1772 0.52882 0.0
C1517 C 0.34597 0.20589 0.51883 0.0
C1518 C 0.37899 0.21942 0.5233 0.0
C1519 C 0.38947 0.20466 0.53757 0.0
C1520 C 0.33467 0.22311 0.50504 0.0
C1521 C 0.31119 0.22987 0.51269 0.0
C1522 C 0.34845 0.23491 0.48523 0.0
C1523 C 0.37123 0.22623 0.47551 0.0
C1524 C 0.40136 0.25045 0.4681 0.0
C1525 C 0.42288 0.24223 0.4591 0.0
C1526 C 0.4145 0.20985 0.45736 0.0
C1527 C 0.38453 0.18562 0.46456 0.0
C1528 C 0.36292 0.1937 0.47355 0.0
C1529 C 0.31846 0.34147 0.47364 0.0
C1530 C 0.30686 0.33768 0.45319 0.0
C1531 C 0.32204 0.31726 0.4831 0.0
C1532 C 0.31419 0.28881 0.47229 0.0
C1533 C 0.30298 0.28502 0.45177 0.0
C1534 C 0.29907 0.30918 0.44233 0.0
C1535 C 0.31816 0.26341 0.48263 0.0
C1536 C 0.34024 0.25524 0.47437 0.0
C1537 C 0.30244 0.24952 0.50159 0.0
C1538 C 0.27659 0.25491 0.50998 0.0
C1539 C 0.24985 0.24864 0.49759 0.0
C1540 C 0.22536 0.2534 0.50555 0.0
C1541 C 0.22723 0.26424 0.52592 0.0
C1542 C 0.25366 0.27049 0.53837 0.0
C1543 C 0.27825 0.2658 0.53049 0.0
H1544 H 0.20812 0.26765 0.53208 0.0
H1545 H 0.4312 0.20354 0.45041 0.0
H1546 H 0.83361 0.1511 0.56246 0.0
H1547 H 0.80459 0.1076 0.5374 0.0
H1548 H 0.78 0.16893 0.50202 0.0
H1549 H 0.80788 0.21199 0.52751 0.0
H1550 H 0.7292 0.11503 0.50725 0.0
H1551 H 0.83456 0.14501 0.48389 0.0
H1552 H 0.89141 0.15869 0.48665 0.0
H1553 H 0.86156 0.06386 0.51011 0.0
H1554 H 0.80453 0.04974 0.50778 0.0
H1555 H 0.69097 0.97883 0.42613 0.0
H1556 H 0.73061 0.02963 0.44263 0.0
H1557 H 0.67157 0.00344 0.4978 0.0
H1558 H 0.63203 0.95306 0.48141 0.0
H1559 H 0.76732 0.04474 0.47682 0.0
H1560 H 0.67259 0.0678 0.51828 0.0
H1561 H 0.61721 0.05727 0.51235 0.0
H1562 H 0.62933 0.05292 0.44654 0.0
H1563 H 0.68491 0.06388 0.45204 0.0
C1564 C 0.82243 0.15544 0.54916 0.0
C1565 C 0.82283 0.18483 0.54697 0.0
C1566 C 0.80599 0.13061 0.53476 0.0
C1567 C 0.79026 0.135 0.51768 0.0
C1568 C 0.79182 0.16489 0.51508 0.0
C1569 C 0.80781 0.1895 0.52964 0.0
C1570 C 0.76983 0.10761 0.50364 0.0
C1571 C 0.7377 0.09986 0.50049 0.0
C1572 C 0.78097 0.08808 0.49442 0.0
C1573 C 0.81525 0.0964 0.49579 0.0
C1574 C 0.84011 0.12714 0.48978 0.0
C1575 C 0.87238 0.13496 0.49124 0.0
C1576 C 0.88009 0.11217 0.49859 0.0
C1577 C 0.85555 0.08149 0.50443 0.0
C1578 C 0.82324 0.07355 0.50301 0.0
C1579 C 0.68662 0.98388 0.44182 0.0
C1580 C 0.6582 0.96217 0.45238 0.0
C1581 C 0.70923 0.01288 0.45121 0.0
C1582 C 0.70376 0.02056 0.4713 0.0
C1583 C 0.67592 0.99837 0.48209 0.0
C1584 C 0.65329 0.96961 0.47269 0.0
C1585 C 0.72668 0.05188 0.48105 0.0
C1586 C 0.75912 0.06025 0.48341 0.0
C1587 C 0.71614 0.07257 0.48908 0.0
C1588 C 0.68285 0.06642 0.48561 0.0
C1589 C 0.6635 0.06476 0.50254 0.0
C1590 C 0.63206 0.05869 0.49925 0.0
C1591 C 0.61973 0.05434 0.47909 0.0
C1592 C 0.63886 0.05618 0.46216 0.0
C1593 C 0.67032 0.06229 0.46535 0.0
H1594 H 0.59538 0.04961 0.47658 0.0
H1595 H 0.90509 0.11828 0.49971 0.0
H1596 H 0.22408 0.3065 0.32259 0.0
H1597 H 0.23292 0.28662 0.28964 0.0
H1598 H 0.33248 0.32281 0.30602 0.0
H1599 H 0.32365 0.34105 0.33951 0.0
H1600 H 0.31303 0.3447 0.26485 0.0
H1601 H 0.29884 0.25329 0.30669 0.0
H1602 H 0.26809 0.20776 0.33063 0.0
H1603 H 0.18965 0.16521 0.28709 0.0
H1604 H 0.21978 0.21079 0.26302 0.0
H1605 H 0.38368 0.30179 0.18622 0.0
H1606 H 0.36554 0.31125 0.2193 0.0
H1607 H 0.26819 0.23629 0.20567 0.0
H1608 H 0.28668 0.22484 0.17303 0.0
H1609 H 0.28014 0.23236 0.24452 0.0
H1610 H 0.29235 0.31811 0.20145 0.0
H1611 H 0.3188 0.36329 0.1767 0.0
H1612 H 0.39444 0.41675 0.2208 0.0
H1613 H 0.36869 0.3717 0.24573 0.0
C1614 C 0.24765 0.30946 0.31952 0.0
C1615 C 0.27324 0.32574 0.33372 0.0
C1616 C 0.25265 0.29827 0.3006 0.0
C1617 C 0.28334 0.30346 0.2955 0.0
C1618 C 0.30867 0.31878 0.30976 0.0
C1619 C 0.30359 0.32944 0.32881 0.0
C1620 C 0.28977 0.29514 0.27467 0.0
C1621 C 0.30617 0.32023 0.26038 0.0
C1622 C 0.27941 0.26303 0.26874 0.0
C1623 C 0.26137 0.23565 0.28319 0.0
C1624 C 0.27488 0.23442 0.30233 0.0
C1625 C 0.25761 0.20856 0.3159 0.0
C1626 C 0.22688 0.18366 0.31042 0.0
C1627 C 0.21342 0.18454 0.29134 0.0
C1628 C 0.23059 0.21037 0.27772 0.0
C1629 C 0.35848 0.28684 0.19031 0.0
C1630 C 0.3367 0.26246 0.17686 0.0
C1631 C 0.34802 0.29268 0.20916 0.0
C1632 C 0.31535 0.27498 0.21481 0.0
C1633 C 0.29349 0.25044 0.20156 0.0
C1634 C 0.30406 0.24418 0.18278 0.0
C1635 C 0.30441 0.28214 0.23466 0.0
C1636 C 0.28691 0.25688 0.24878 0.0
C1637 C 0.31314 0.31412 0.24031 0.0
C1638 C 0.32868 0.3414 0.22541 0.0
C1639 C 0.31473 0.33941 0.20583 0.0
C1640 C 0.32959 0.36502 0.19177 0.0
C1641 C 0.35831 0.39285 0.19716 0.0
C1642 C 0.3722 0.39517 0.21664 0.0
C1643 C 0.35746 0.36962 0.23075 0.0
H1644 H 0.36978 0.41265 0.18625 0.0
H1645 H 0.21355 0.16365 0.32094 0.0
H1646 H 0.76095 0.1027 0.18665 0.0
H1647 H 0.74967 0.0762 0.2205 0.0
H1648 H 0.68412 0.98501 0.19152 0.0
H1649 H 0.69418 0.01207 0.15773 0.0
H1650 H 0.65753 0.98978 0.22413 0.0
H1651 H 0.76226 0.00546 0.21082 0.0
H1652 H 0.81996 0.03499 0.20147 0.0
H1653 H 0.84044 0.09683 0.25444 0.0
H1654 H 0.78277 0.06796 0.26396 0.0
H1655 H 0.65433 0.89542 0.31162 0.0
H1656 H 0.67021 0.92226 0.27774 0.0
H1657 H 0.69581 0.01324 0.30669 0.0
H1658 H 0.67917 0.98628 0.3407 0.0
H1659 H 0.74315 0.00728 0.27467 0.0
H1660 H 0.63424 0.98887 0.28585 0.0
H1661 H 0.57674 0.95417 0.2947 0.0
H1662 H 0.56538 0.89087 0.24406 0.0
H1663 H 0.623 0.92495 0.23514 0.0
C1664 C 0.74442 0.07693 0.18754 0.0
C1665 C 0.72853 0.05929 0.16969 0.0
C1666 C 0.73809 0.06175 0.20686 0.0
C1667 C 0.71647 0.02844 0.20858 0.0
C1668 C 0.70091 0.01072 0.19062 0.0
C1669 C 0.7067 0.02608 0.17134 0.0
C1670 C 0.70893 0.01249 0.22924 0.0
C1671 C 0.67638 0.99334 0.23499 0.0
C1672 C 0.73338 0.01729 0.24364 0.0
C1673 C 0.76812 0.03471 0.23799 0.0
C1674 C 0.77902 0.02551 0.22039 0.0
C1675 C 0.81173 0.04211 0.21507 0.0
C1676 C 0.83384 0.06782 0.22732 0.0
C1677 C 0.82328 0.07693 0.24495 0.0
C1678 C 0.79059 0.06044 0.25032 0.0
C1679 C 0.6636 0.92119 0.31075 0.0
C1680 C 0.66563 0.9389 0.32866 0.0
C1681 C 0.67257 0.93641 0.29146 0.0
C1682 C 0.68414 0.9696 0.28986 0.0
C1683 C 0.68697 0.98757 0.30776 0.0
C1684 C 0.67737 0.97221 0.32706 0.0
C1685 C 0.6921 0.98515 0.26928 0.0
C1686 C 0.72459 0.00398 0.26364 0.0
C1687 C 0.66769 0.97949 0.25479 0.0
C1688 C 0.63299 0.95925 0.25999 0.0
C1689 C 0.61956 0.96738 0.27674 0.0
C1690 C 0.58693 0.94787 0.28174 0.0
C1691 C 0.56744 0.92028 0.26999 0.0
C1692 C 0.58052 0.91222 0.25317 0.0
C1693 C 0.61315 0.93164 0.24813 0.0
H1694 H 0.54219 0.90519 0.27388 0.0
H1695 H 0.85915 0.08063 0.22318 0.0
H1696 H 0.94359 0.6327 0.17879 0.0
H1697 H 0.97053 0.65367 0.21206 0.0
H1698 H 0.95184 0.7328 0.20755 0.0
H1699 H 0.92502 0.71201 0.17399 0.0
H1700 H 0.0114 0.75303 0.22242 0.0
H1701 H 0.90504 0.66948 0.23849 0.0
H1702 H 0.85686 0.61532 0.23605 0.0
H1703 H 0.9117 0.57279 0.25837 0.0
H1704 H 0.96034 0.62667 0.26065 0.0
H1705 H 0.01986 0.72758 0.34339 0.0
H1706 H 0.9893 0.72097 0.31153 0.0
H1707 H 0.07403 0.74495 0.27502 0.0
H1708 H 0.10502 0.75304 0.30672 0.0
H1709 H 0.97476 0.67814 0.28259 0.0
H1710 H 0.07258 0.77758 0.22922 0.0
H1711 H 0.11797 0.83336 0.23231 0.0
H1712 H 0.0747 0.84786 0.28665 0.0
H1713 H 0.02882 0.79235 0.28373 0.0
C1714 C 0.94523 0.65458 0.18489 0.0
C1715 C 0.93195 0.67056 0.17393 0.0
C1716 C 0.9606 0.66652 0.20388 0.0
C1717 C 0.9626 0.69443 0.21246 0.0
C1718 C 0.9504 0.71114 0.20122 0.0
C1719 C 0.93518 0.6993 0.18208 0.0
C1720 C 0.9769 0.70552 0.23335 0.0
C1721 C 0.00335 0.73678 0.23563 0.0
C1722 C 0.9657 0.68459 0.25072 0.0
C1723 C 0.93639 0.65213 0.24963 0.0
C1724 C 0.90687 0.64856 0.24277 0.0
C1725 C 0.87947 0.61791 0.24142 0.0
C1726 C 0.88123 0.59063 0.24702 0.0
C1727 C 0.91037 0.59395 0.25403 0.0
C1728 C 0.93786 0.62455 0.25539 0.0
C1729 C 0.03216 0.73214 0.32859 0.0
C1730 C 0.06483 0.74063 0.3276 0.0
C1731 C 0.01461 0.72815 0.31039 0.0
C1732 C 0.0294 0.73267 0.29088 0.0
C1733 C 0.06219 0.74182 0.28988 0.0
C1734 C 0.07977 0.74598 0.30804 0.0
C1735 C 0.01012 0.72532 0.27154 0.0
C1736 C 0.98265 0.69466 0.26952 0.0
C1737 C 0.01999 0.74709 0.25459 0.0
C1738 C 0.04735 0.78068 0.25633 0.0
C1739 C 0.07265 0.79272 0.24177 0.0
C1740 C 0.0985 0.82428 0.2435 0.0
C1741 C 0.09926 0.84411 0.25969 0.0
C1742 C 0.07414 0.83244 0.27415 0.0
C1743 C 0.04823 0.8009 0.27249 0.0
H1744 H 0.1193 0.86853 0.26101 0.0
H1745 H 0.85999 0.56691 0.24595 0.0
H1746 H 0.77324 0.65211 0.69592 0.0
H1747 H 0.76466 0.67169 0.72909 0.0
H1748 H 0.7161 0.71465 0.69721 0.0
H1749 H 0.72471 0.69528 0.66402 0.0
H1750 H 0.75411 0.75344 0.72786 0.0
H1751 H 0.67347 0.64139 0.72 0.0
H1752 H 0.65397 0.5836 0.71413 0.0
H1753 H 0.70462 0.58102 0.76851 0.0
H1754 H 0.72482 0.63897 0.77454 0.0
H1755 H 0.65111 0.75646 0.80613 0.0
H1756 H 0.6748 0.74688 0.77516 0.0
H1757 H 0.72449 0.71181 0.81368 0.0
H1758 H 0.70057 0.72104 0.84474 0.0
H1759 H 0.69119 0.67082 0.78132 0.0
H1760 H 0.76699 0.78288 0.79084 0.0
H1761 H 0.78458 0.84032 0.79636 0.0
H1762 H 0.74083 0.84262 0.73862 0.0
H1763 H 0.72255 0.78504 0.73289 0.0
C1764 C 0.76084 0.66583 0.69599 0.0
C1765 C 0.74935 0.6719 0.67741 0.0
C1766 C 0.75603 0.67705 0.71492 0.0
C1767 C 0.73933 0.69421 0.71561 0.0
C1768 C 0.72907 0.70148 0.697 0.0
C1769 C 0.73402 0.69042 0.67806 0.0
C1770 C 0.73088 0.70299 0.73576 0.0
C1771 C 0.74018 0.73539 0.73951 0.0
C1772 C 0.71324 0.67946 0.7511 0.0
C1773 C 0.70096 0.64458 0.74758 0.0
C1774 C 0.68065 0.62856 0.73062 0.0
C1775 C 0.66945 0.59577 0.72727 0.0
C1776 C 0.67813 0.57867 0.7409 0.0
C1777 C 0.69797 0.59431 0.75794 0.0
C1778 C 0.7093 0.62712 0.76133 0.0
C1779 C 0.66714 0.74677 0.80798 0.0
C1780 C 0.67393 0.73936 0.82781 0.0
C1781 C 0.68086 0.74159 0.79032 0.0
C1782 C 0.70156 0.72887 0.79218 0.0
C1783 C 0.70867 0.72178 0.81196 0.0
C1784 C 0.69515 0.7272 0.82966 0.0
C1785 C 0.71418 0.72124 0.77335 0.0
C1786 C 0.70552 0.68899 0.76981 0.0
C1787 C 0.73215 0.74486 0.75817 0.0
C1788 C 0.74317 0.77954 0.76153 0.0
C1789 C 0.76088 0.79555 0.7794 0.0
C1790 C 0.77102 0.82815 0.78255 0.0
C1791 C 0.76377 0.84509 0.76787 0.0
C1792 C 0.74641 0.82947 0.74998 0.0
C1793 C 0.73619 0.79685 0.74677 0.0
H1794 H 0.77165 0.87034 0.77033 0.0
H1795 H 0.66942 0.55328 0.73829 0.0
H1796 H 0.24056 0.87893 0.80315 0.0
H1797 H 0.25187 0.90672 0.76979 0.0
H1798 H 0.28136 0.99677 0.80127 0.0
H1799 H 0.27126 0.9694 0.8349 0.0
H1800 H 0.24115 0.98421 0.76388 0.0
H1801 H 0.33788 0.98607 0.78767 0.0
H1802 H 0.36856 0.96112 0.80109 0.0
H1803 H 0.34366 0.90118 0.74679 0.0
H1804 H 0.31237 0.92542 0.7332 0.0
H1805 H 0.3312 0.09412 0.68385 0.0
H1806 H 0.31118 0.06419 0.7163 0.0
H1807 H 0.30483 0.97991 0.68721 0.0
H1808 H 0.32572 0.01017 0.65479 0.0
H1809 H 0.33145 0.98821 0.72347 0.0
H1810 H 0.23658 0.9865 0.69853 0.0
H1811 H 0.20391 0.0091 0.68488 0.0
H1812 H 0.22249 0.06581 0.74025 0.0
H1813 H 0.25567 0.04388 0.75412 0.0
C1814 C 0.24953 0.90467 0.80305 0.0
C1815 C 0.25559 0.92206 0.82174 0.0
C1816 C 0.2557 0.92042 0.78396 0.0
C1817 C 0.26773 0.95376 0.78316 0.0
C1818 C 0.27205 0.97096 0.80165 0.0
C1819 C 0.26618 0.95527 0.82083 0.0
C1820 C 0.27791 0.97089 0.76308 0.0
C1821 C 0.2611 0.98549 0.75509 0.0
C1822 C 0.30338 0.97164 0.75149 0.0
C1823 C 0.3225 0.95732 0.75952 0.0
C1824 C 0.33871 0.96737 0.77867 0.0
C1825 C 0.35625 0.95339 0.7863 0.0
C1826 C 0.35799 0.92951 0.77483 0.0
C1827 C 0.34226 0.91964 0.75568 0.0
C1828 C 0.32464 0.93351 0.748 0.0
C1829 C 0.32517 0.06908 0.68432 0.0
C1830 C 0.32987 0.05439 0.66681 0.0
C1831 C 0.31364 0.05197 0.70286 0.0
C1832 C 0.306 0.01962 0.70413 0.0
C1833 C 0.31053 0.00483 0.68659 0.0
C1834 C 0.32246 0.0221 0.6681 0.0
C1835 C 0.29467 0.00171 0.72402 0.0
C1836 C 0.31135 0.98693 0.73209 0.0
C1837 C 0.26887 0.00056 0.73555 0.0
C1838 C 0.24886 0.01375 0.72728 0.0
C1839 C 0.23391 0.00397 0.70773 0.0
C1840 C 0.21526 0.01664 0.69996 0.0
C1841 C 0.21119 0.03894 0.71167 0.0
C1842 C 0.2257 0.04856 0.73119 0.0
C1843 C 0.2444 0.03599 0.73902 0.0
H1844 H 0.19674 0.04871 0.70563 0.0
H1845 H 0.37158 0.91872 0.78076 0.0
H1846 H 0.09158 0.38211 0.81116 0.0
H1847 H 0.06463 0.36438 0.77761 0.0
H1848 H 0.00424 0.26851 0.8021 0.0
H1849 H 0.03177 0.28611 0.83578 0.0
H1850 H 0.02354 0.2659 0.76346 0.0
H1851 H 0.9751 0.32028 0.79668 0.0
H1852 H 0.97403 0.36458 0.81554 0.0
H1853 H 0.02171 0.42869 0.76443 0.0
H1854 H 0.02349 0.38488 0.74537 0.0
H1855 H 0.90757 0.22282 0.68062 0.0
H1856 H 0.93494 0.23323 0.7142 0.0
H1857 H 0.00549 0.32878 0.69376 0.0
H1858 H 0.97879 0.31839 0.66 0.0
H1859 H 0.97749 0.32833 0.73142 0.0
H1860 H 0.02645 0.27257 0.69877 0.0
H1861 H 0.02626 0.22722 0.68045 0.0
H1862 H 0.97464 0.16394 0.73116 0.0
H1863 H 0.97412 0.20885 0.74965 0.0
C1864 C 0.07246 0.35728 0.80942 0.0
C1865 C 0.06345 0.33556 0.82611 0.0
C1866 C 0.05709 0.34717 0.79025 0.0
C1867 C 0.03198 0.31529 0.78748 0.0
C1868 C 0.02347 0.29326 0.80395 0.0
C1869 C 0.03915 0.30331 0.82314 0.0
C1870 C 0.01448 0.30539 0.76741 0.0
C1871 C 0.01301 0.27921 0.75659 0.0
C1872 C 0.00105 0.323 0.75836 0.0
C1873 C -0.00035 0.34933 0.76966 0.0
C1874 C 0.98553 0.34387 0.78951 0.0
C1875 C 0.98478 0.36889 0.80023 0.0
C1876 C 0.99786 0.39945 0.79121 0.0
C1877 C 0.01161 0.40501 0.77141 0.0
C1878 C 0.01247 0.38008 0.76063 0.0
C1879 C 0.92932 0.2458 0.68309 0.0
C1880 C 0.94086 0.26987 0.66766 0.0
C1881 C 0.94485 0.25173 0.70232 0.0
C1882 C 0.97218 0.28178 0.70643 0.0
C1883 C 0.98429 0.3055 0.6909 0.0
C1884 C 0.9689 0.29956 0.67166 0.0
C1885 C 0.98715 0.2893 0.72731 0.0
C1886 C 0.98793 0.31495 0.73833 0.0
C1887 C -0.00042 0.27099 0.73658 0.0
C1888 C -6e-05 0.244 0.72549 0.0
C1889 C 0.0148 0.24892 0.70593 0.0
C1890 C 0.01488 0.22331 0.69553 0.0
C1891 C 0.00037 0.1927 0.70461 0.0
C1892 C 0.98583 0.18766 0.72413 0.0
C1893 C 0.98566 0.21319 0.73458 0.0
H1894 H 0.00046 0.1729 0.69654 0.0
H1895 H 0.99728 0.4188 0.79954 0.0
loop_
_geom_bond_atom_site_label_1
_geom_bond_atom_site_label_2
_geom_bond_distance
_geom_bond_site_symmetry_2
_ccdc_geom_bond_type
Co0 N4 2.148 . S
Co0 N10 2.128 . S
Co0 N20 2.194 . S
Co0 O25 2.351 . S
Co0 O26 2.155 . S
Co0 O27 2.096 . S
C1 N4 1.301 . S
C1 N5 1.328 . S
C1 H6 0.930 . S
C2 C3 1.333 . S
C2 N4 1.317 . S
C2 H7 0.930 . S
C3 C2 1.333 . S
C3 N5 1.350 . S
C3 H29 0.931 . S
N4 Co0 2.148 . S
N4 C1 1.301 . S
N4 C2 1.317 . S
N5 C1 1.328 . S
N5 C3 1.350 . S
H6 C1 0.930 . S
H7 C2 0.930 . S
C8 O9 1.224 . S
C8 O27 1.247 . S
O9 C8 1.224 . S
N10 Co0 2.128 . S
N10 C11 1.355 . S
N10 C13 1.311 . S
C11 N10 1.355 . S
C11 C12 1.363 . S
C11 H23 0.929 . S
C12 C11 1.363 . S
C12 N14 1.375 . S
C12 H30 0.931 . S
C13 N10 1.311 . S
C13 N14 1.347 . S
C13 H24 0.929 . S
N14 C12 1.375 . S
N14 C13 1.347 . S
C15 C18 1.365 . S
C15 N20 1.328 . S
C15 H21 0.929 . S
C16 C17 1.362 . S
C16 C19 1.378 . S
C16 H31 0.929 . S
C17 C16 1.362 . S
C17 C18 1.366 . S
C18 C15 1.365 . S
C18 C17 1.366 . S
C18 H32 0.930 . S
C19 C16 1.378 . S
C19 N20 1.315 . S
C19 H22 0.930 . S
N20 Co0 2.194 . S
N20 C15 1.328 . S
N20 C19 1.315 . S
H21 C15 0.929 . S
H22 C19 0.930 . S
H23 C11 0.929 . S
H24 C13 0.929 . S
O25 Co0 2.351 . S
O25 C28 1.244 . S
O26 Co0 2.155 . S
O26 C28 1.240 . S
O27 Co0 2.096 . S
O27 C8 1.247 . S
C28 O25 1.244 . S
C28 O26 1.240 . S
H29 C3 0.931 . S
H30 C12 0.931 . S
H31 C16 0.929 . S
H32 C18 0.930 . S
Co33 N37 2.148 . S
Co33 N43 2.128 . S
Co33 N53 2.194 . S
Co33 O58 2.351 . S
Co33 O59 2.155 . S
Co33 O60 2.096 . S
C34 N37 1.301 . S
C34 N38 1.328 . S
C34 H39 0.930 . S
C35 C36 1.333 . S
C35 N37 1.317 . S
C35 H40 0.930 . S
C36 C35 1.333 . S
C36 N38 1.350 . S
C36 H62 0.931 . S
N37 Co33 2.148 . S
N37 C34 1.301 . S
N37 C35 1.317 . S
N38 C34 1.328 . S
N38 C36 1.350 . S
H39 C34 0.930 . S
H40 C35 0.930 . S
C41 O42 1.224 . S
C41 O60 1.247 . S
O42 C41 1.224 . S
N43 Co33 2.128 . S
N43 C44 1.355 . S
N43 C46 1.311 . S
C44 N43 1.355 . S
C44 C45 1.363 . S
C44 H56 0.929 . S
C45 C44 1.363 . S
C45 N47 1.375 . S
C45 H63 0.931 . S
C46 N43 1.311 . S
C46 N47 1.347 . S
C46 H57 0.929 . S
N47 C45 1.375 . S
N47 C46 1.347 . S
C48 C51 1.365 . S
C48 N53 1.328 . S
C48 H54 0.929 . S
C49 C50 1.362 . S
C49 C52 1.378 . S
C49 H64 0.929 . S
C50 C49 1.362 . S
C50 C51 1.366 . S
C51 C48 1.365 . S
C51 C50 1.366 . S
C51 H65 0.930 . S
C52 C49 1.378 . S
C52 N53 1.315 . S
C52 H55 0.930 . S
N53 Co33 2.194 . S
N53 C48 1.328 . S
N53 C52 1.315 . S
H54 C48 0.929 . S
H55 C52 0.930 . S
H56 C44 0.929 . S
H57 C46 0.929 . S
O58 Co33 2.351 . S
O58 C61 1.244 . S
O59 Co33 2.155 . S
O59 C61 1.240 . S
O60 Co33 2.096 . S
O60 C41 1.247 . S
C61 O58 1.244 . S
C61 O59 1.240 . S
H62 C36 0.931 . S
H63 C45 0.931 . S
H64 C49 0.929 . S
H65 C51 0.930 . S
Co66 N70 2.148 . S
Co66 N76 2.128 . S
Co66 N86 2.194 . S
Co66 O91 2.351 . S
Co66 O92 2.155 . S
Co66 O93 2.096 . S
C67 N70 1.301 . S
C67 N71 1.328 . S
C67 H72 0.930 . S
C68 C69 1.333 . S
C68 N70 1.317 . S
C68 H73 0.930 . S
C69 C68 1.333 . S
C69 N71 1.350 . S
C69 H95 0.931 . S
N70 Co66 2.148 . S
N70 C67 1.301 . S
N70 C68 1.317 . S
N71 C67 1.328 . S
N71 C69 1.350 . S
H72 C67 0.930 . S
H73 C68 0.930 . S
C74 O75 1.224 . S
C74 O93 1.247 . S
O75 C74 1.224 . S
N76 Co66 2.128 . S
N76 C77 1.355 . S
N76 C79 1.311 . S
C77 N76 1.355 . S
C77 C78 1.363 . S
C77 H89 0.929 . S
C78 C77 1.363 . S
C78 N80 1.375 . S
C78 H96 0.931 . S
C79 N76 1.311 . S
C79 N80 1.347 . S
C79 H90 0.929 . S
N80 C78 1.375 . S
N80 C79 1.347 . S
C81 C84 1.365 . S
C81 N86 1.328 . S
C81 H87 0.929 . S
C82 C83 1.362 . S
C82 C85 1.378 . S
C82 H97 0.929 . S
C83 C82 1.362 . S
C83 C84 1.366 . S
C84 C81 1.365 . S
C84 C83 1.366 . S
C84 H98 0.930 . S
C85 C82 1.378 . S
C85 N86 1.315 . S
C85 H88 0.930 . S
N86 Co66 2.194 . S
N86 C81 1.328 . S
N86 C85 1.315 . S
H87 C81 0.929 . S
H88 C85 0.930 . S
H89 C77 0.929 . S
H90 C79 0.929 . S
O91 Co66 2.351 . S
O91 C94 1.244 . S
O92 Co66 2.155 . S
O92 C94 1.240 . S
O93 Co66 2.096 . S
O93 C74 1.247 . S
C94 O91 1.244 . S
C94 O92 1.240 . S
H95 C69 0.931 . S
H96 C78 0.931 . S
H97 C82 0.929 . S
H98 C84 0.930 . S
Co99 N103 2.148 . S
Co99 N109 2.128 . S
Co99 N119 2.194 . S
Co99 O124 2.351 . S
Co99 O125 2.155 . S
Co99 O126 2.096 . S
C100 N103 1.301 . S
C100 N104 1.328 . S
C100 H105 0.930 . S
C101 C102 1.333 . S
C101 N103 1.317 . S
C101 H106 0.930 . S
C102 C101 1.333 . S
C102 N104 1.350 . S
C102 H128 0.931 . S
N103 Co99 2.148 . S
N103 C100 1.301 . S
N103 C101 1.317 . S
N104 C100 1.328 . S
N104 C102 1.350 . S
H105 C100 0.930 . S
H106 C101 0.930 . S
C107 O108 1.224 . S
C107 O126 1.247 . S
O108 C107 1.224 . S
N109 Co99 2.128 . S
N109 C110 1.355 . S
N109 C112 1.311 . S
C110 N109 1.355 . S
C110 C111 1.363 . S
C110 H122 0.929 . S
C111 C110 1.363 . S
C111 N113 1.375 . S
C111 H129 0.931 . S
C112 N109 1.311 . S
C112 N113 1.347 . S
C112 H123 0.929 . S
N113 C111 1.375 . S
N113 C112 1.347 . S
C114 C117 1.365 . S
C114 N119 1.328 . S
C114 H120 0.929 . S
C115 C116 1.362 . S
C115 C118 1.378 . S
C115 H130 0.929 . S
C116 C115 1.362 . S
C116 C117 1.366 . S
C117 C114 1.365 . S
C117 C116 1.366 . S
C117 H131 0.930 . S
C118 C115 1.378 . S
C118 N119 1.315 . S
C118 H121 0.930 . S
N119 Co99 2.194 . S
N119 C114 1.328 . S
N119 C118 1.315 . S
H120 C114 0.929 . S
H121 C118 0.930 . S
H122 C110 0.929 . S
H123 C112 0.929 . S
O124 Co99 2.351 . S
O124 C127 1.244 . S
O125 Co99 2.155 . S
O125 C127 1.240 . S
O126 Co99 2.096 . S
O126 C107 1.247 . S
C127 O124 1.244 . S
C127 O125 1.240 . S
H128 C102 0.931 . S
H129 C111 0.931 . S
H130 C115 0.929 . S
H131 C117 0.930 . S
Co132 N136 2.148 . S
Co132 N142 2.128 . S
Co132 N152 2.194 . S
Co132 O157 2.351 . S
Co132 O158 2.155 . S
Co132 O159 2.096 . S
C133 N136 1.301 . S
C133 N137 1.328 . S
C133 H138 0.930 . S
C134 C135 1.333 . S
C134 N136 1.317 . S
C134 H139 0.930 . S
C135 C134 1.333 . S
C135 N137 1.350 . S
C135 H161 0.931 . S
N136 Co132 2.148 . S
N136 C133 1.301 . S
N136 C134 1.317 . S
N137 C133 1.328 . S
N137 C135 1.350 . S
H138 C133 0.930 . S
H139 C134 0.930 . S
C140 O141 1.224 . S
C140 O159 1.247 . S
O141 C140 1.224 . S
N142 Co132 2.128 . S
N142 C143 1.355 . S
N142 C145 1.311 . S
C143 N142 1.355 . S
C143 C144 1.363 . S
C143 H155 0.929 . S
C144 C143 1.363 . S
C144 N146 1.375 . S
C144 H162 0.931 . S
C145 N142 1.311 . S
C145 N146 1.347 . S
C145 H156 0.929 . S
N146 C144 1.375 . S
N146 C145 1.347 . S
C147 C150 1.365 . S
C147 N152 1.328 . S
C147 H153 0.929 . S
C148 C149 1.362 . S
C148 C151 1.378 . S
C148 H163 0.929 . S
C149 C148 1.362 . S
C149 C150 1.366 . S
C150 C147 1.365 . S
C150 C149 1.366 . S
C150 H164 0.930 . S
C151 C148 1.378 . S
C151 N152 1.315 . S
C151 H154 0.930 . S
N152 Co132 2.194 . S
N152 C147 1.328 . S
N152 C151 1.315 . S
H153 C147 0.929 . S
H154 C151 0.930 . S
H155 C143 0.929 . S
H156 C145 0.929 . S
O157 Co132 2.351 . S
O157 C160 1.244 . S
O158 Co132 2.155 . S
O158 C160 1.240 . S
O159 Co132 2.096 . S
O159 C140 1.247 . S
C160 O157 1.244 . S
C160 O158 1.240 . S
H161 C135 0.931 . S
H162 C144 0.931 . S
H163 C148 0.929 . S
H164 C150 0.930 . S
Co165 N169 2.148 . S
Co165 N175 2.128 . S
Co165 N185 2.194 . S
Co165 O190 2.351 . S
Co165 O191 2.155 . S
Co165 O192 2.096 . S
C166 N169 1.301 . S
C166 N170 1.328 . S
C166 H171 0.930 . S
C167 C168 1.333 . S
C167 N169 1.317 . S
C167 H172 0.930 . S
C168 C167 1.333 . S
C168 N170 1.350 . S
C168 H194 0.931 . S
N169 Co165 2.148 . S
N169 C166 1.301 . S
N169 C167 1.317 . S
N170 C166 1.328 . S
N170 C168 1.350 . S
H171 C166 0.930 . S
H172 C167 0.930 . S
C173 O174 1.224 . S
C173 O192 1.247 . S
O174 C173 1.224 . S
N175 Co165 2.128 . S
N175 C176 1.355 . S
N175 C178 1.311 . S
C176 N175 1.355 . S
C176 C177 1.363 . S
C176 H188 0.929 . S
C177 C176 1.363 . S
C177 N179 1.375 . S
C177 H195 0.931 . S
C178 N175 1.311 . S
C178 N179 1.347 . S
C178 H189 0.929 . S
N179 C177 1.375 . S
N179 C178 1.347 . S
C180 C183 1.365 . S
C180 N185 1.328 . S
C180 H186 0.929 . S
C181 C182 1.362 . S
C181 C184 1.378 . S
C181 H196 0.929 . S
C182 C181 1.362 . S
C182 C183 1.366 . S
C183 C180 1.365 . S
C183 C182 1.366 . S
C183 H197 0.930 . S
C184 C181 1.378 . S
C184 N185 1.315 . S
C184 H187 0.930 . S
N185 Co165 2.194 . S
N185 C180 1.328 . S
N185 C184 1.315 . S
H186 C180 0.929 . S
H187 C184 0.930 . S
H188 C176 0.929 . S
H189 C178 0.929 . S
O190 Co165 2.351 . S
O190 C193 1.244 . S
O191 Co165 2.155 . S
O191 C193 1.240 . S
O192 Co165 2.096 . S
O192 C173 1.247 . S
C193 O190 1.244 . S
C193 O191 1.240 . S
H194 C168 0.931 . S
H195 C177 0.931 . S
H196 C181 0.929 . S
H197 C183 0.930 . S
Co198 N202 2.148 . S
Co198 N208 2.128 . S
Co198 N218 2.194 . S
Co198 O223 2.351 . S
Co198 O224 2.155 . S
Co198 O225 2.096 . S
C199 N202 1.301 . S
C199 N203 1.328 . S
C199 H204 0.930 . S
C200 C201 1.333 . S
C200 N202 1.317 . S
C200 H205 0.930 . S
C201 C200 1.333 . S
C201 N203 1.350 . S
C201 H227 0.931 . S
N202 Co198 2.148 . S
N202 C199 1.301 . S
N202 C200 1.317 . S
N203 C199 1.328 . S
N203 C201 1.350 . S
H204 C199 0.930 . S
H205 C200 0.930 . S
C206 O207 1.224 . S
C206 O225 1.247 . S
O207 C206 1.224 . S
N208 Co198 2.128 . S
N208 C209 1.355 . S
N208 C211 1.311 . S
C209 N208 1.355 . S
C209 C210 1.363 . S
C209 H221 0.929 . S
C210 C209 1.363 . S
C210 N212 1.375 . S
C210 H228 0.931 . S
C211 N208 1.311 . S
C211 N212 1.347 . S
C211 H222 0.929 . S
N212 C210 1.375 . S
N212 C211 1.347 . S
C213 C216 1.365 . S
C213 N218 1.328 . S
C213 H219 0.929 . S
C214 C215 1.362 . S
C214 C217 1.378 . S
C214 H229 0.929 . S
C215 C214 1.362 . S
C215 C216 1.366 . S
C216 C213 1.365 . S
C216 C215 1.366 . S
C216 H230 0.930 . S
C217 C214 1.378 . S
C217 N218 1.315 . S
C217 H220 0.930 . S
N218 Co198 2.194 . S
N218 C213 1.328 . S
N218 C217 1.315 . S
H219 C213 0.929 . S
H220 C217 0.930 . S
H221 C209 0.929 . S
H222 C211 0.929 . S
O223 Co198 2.351 . S
O223 C226 1.244 . S
O224 Co198 2.155 . S
O224 C226 1.240 . S
O225 Co198 2.096 . S
O225 C206 1.247 . S
C226 O223 1.244 . S
C226 O224 1.240 . S
H227 C201 0.931 . S
H228 C210 0.931 . S
H229 C214 0.929 . S
H230 C216 0.930 . S
Co231 N235 2.148 . S
Co231 N241 2.128 . S
Co231 N251 2.194 . S
Co231 O256 2.351 . S
Co231 O257 2.155 . S
Co231 O258 2.096 . S
C232 N235 1.301 . S
C232 N236 1.328 . S
C232 H237 0.930 . S
C233 C234 1.333 . S
C233 N235 1.317 . S
C233 H238 0.930 . S
C234 C233 1.333 . S
C234 N236 1.350 . S
C234 H260 0.931 . S
N235 Co231 2.148 . S
N235 C232 1.301 . S
N235 C233 1.317 . S
N236 C232 1.328 . S
N236 C234 1.350 . S
H237 C232 0.930 . S
H238 C233 0.930 . S
C239 O240 1.224 . S
C239 O258 1.247 . S
O240 C239 1.224 . S
N241 Co231 2.128 . S
N241 C242 1.355 . S
N241 C244 1.311 . S
C242 N241 1.355 . S
C242 C243 1.363 . S
C242 H254 0.929 . S
C243 C242 1.363 . S
C243 N245 1.375 . S
C243 H261 0.931 . S
C244 N241 1.311 . S
C244 N245 1.347 . S
C244 H255 0.929 . S
N245 C243 1.375 . S
N245 C244 1.347 . S
C246 C249 1.365 . S
C246 N251 1.328 . S
C246 H252 0.929 . S
C247 C248 1.362 . S
C247 C250 1.378 . S
C247 H262 0.929 . S
C248 C247 1.362 . S
C248 C249 1.366 . S
C249 C246 1.365 . S
C249 C248 1.366 . S
C249 H263 0.930 . S
C250 C247 1.378 . S
C250 N251 1.315 . S
C250 H253 0.930 . S
N251 Co231 2.194 . S
N251 C246 1.328 . S
N251 C250 1.315 . S
H252 C246 0.929 . S
H253 C250 0.930 . S
H254 C242 0.929 . S
H255 C244 0.929 . S
O256 Co231 2.351 . S
O256 C259 1.244 . S
O257 Co231 2.155 . S
O257 C259 1.240 . S
O258 Co231 2.096 . S
O258 C239 1.247 . S
C259 O256 1.244 . S
C259 O257 1.240 . S
H260 C234 0.931 . S
H261 C243 0.931 . S
H262 C247 0.929 . S
H263 C249 0.930 . S
Co264 N268 2.148 . S
Co264 N274 2.128 . S
Co264 N284 2.194 . S
Co264 O289 2.351 . S
Co264 O290 2.155 . S
Co264 O291 2.096 . S
C265 N268 1.301 . S
C265 N269 1.328 . S
C265 H270 0.930 . S
C266 C267 1.333 . S
C266 N268 1.317 . S
C266 H271 0.930 . S
C267 C266 1.333 . S
C267 N269 1.350 . S
C267 H293 0.931 . S
N268 Co264 2.148 . S
N268 C265 1.301 . S
N268 C266 1.317 . S
N269 C265 1.328 . S
N269 C267 1.350 . S
H270 C265 0.930 . S
H271 C266 0.930 . S
C272 O273 1.224 . S
C272 O291 1.247 . S
O273 C272 1.224 . S
N274 Co264 2.128 . S
N274 C275 1.355 . S
N274 C277 1.311 . S
C275 N274 1.355 . S
C275 C276 1.363 . S
C275 H287 0.929 . S
C276 C275 1.363 . S
C276 N278 1.375 . S
C276 H294 0.931 . S
C277 N274 1.311 . S
C277 N278 1.347 . S
C277 H288 0.929 . S
N278 C276 1.375 . S
N278 C277 1.347 . S
C279 C282 1.365 . S
C279 N284 1.328 . S
C279 H285 0.929 . S
C280 C281 1.362 . S
C280 C283 1.378 . S
C280 H295 0.929 . S
C281 C280 1.362 . S
C281 C282 1.366 . S
C282 C279 1.365 . S
C282 C281 1.366 . S
C282 H296 0.930 . S
C283 C280 1.378 . S
C283 N284 1.315 . S
C283 H286 0.930 . S
N284 Co264 2.194 . S
N284 C279 1.328 . S
N284 C283 1.315 . S
H285 C279 0.929 . S
H286 C283 0.930 . S
H287 C275 0.929 . S
H288 C277 0.929 . S
O289 Co264 2.351 . S
O289 C292 1.244 . S
O290 Co264 2.155 . S
O290 C292 1.240 . S
O291 Co264 2.096 . S
O291 C272 1.247 . S
C292 O289 1.244 . S
C292 O290 1.240 . S
H293 C267 0.931 . S
H294 C276 0.931 . S
H295 C280 0.929 . S
H296 C282 0.930 . S
Co297 N301 2.148 . S
Co297 N307 2.128 . S
Co297 N317 2.194 . S
Co297 O322 2.351 . S
Co297 O323 2.155 . S
Co297 O324 2.096 . S
C298 N301 1.301 . S
C298 N302 1.328 . S
C298 H303 0.930 . S
C299 C300 1.333 . S
C299 N301 1.317 . S
C299 H304 0.930 . S
C300 C299 1.333 . S
C300 N302 1.350 . S
C300 H326 0.931 . S
N301 Co297 2.148 . S
N301 C298 1.301 . S
N301 C299 1.317 . S
N302 C298 1.328 . S
N302 C300 1.350 . S
H303 C298 0.930 . S
H304 C299 0.930 . S
C305 O306 1.224 . S
C305 O324 1.247 . S
O306 C305 1.224 . S
N307 Co297 2.128 . S
N307 C308 1.355 . S
N307 C310 1.311 . S
C308 N307 1.355 . S
C308 C309 1.363 . S
C308 H320 0.929 . S
C309 C308 1.363 . S
C309 N311 1.375 . S
C309 H327 0.931 . S
C310 N307 1.311 . S
C310 N311 1.347 . S
C310 H321 0.929 . S
N311 C309 1.375 . S
N311 C310 1.347 . S
C312 C315 1.365 . S
C312 N317 1.328 . S
C312 H318 0.929 . S
C313 C314 1.362 . S
C313 C316 1.378 . S
C313 H328 0.929 . S
C314 C313 1.362 . S
C314 C315 1.366 . S
C315 C312 1.365 . S
C315 C314 1.366 . S
C315 H329 0.930 . S
C316 C313 1.378 . S
C316 N317 1.315 . S
C316 H319 0.930 . S
N317 Co297 2.194 . S
N317 C312 1.328 . S
N317 C316 1.315 . S
H318 C312 0.929 . S
H319 C316 0.930 . S
H320 C308 0.929 . S
H321 C310 0.929 . S
O322 Co297 2.351 . S
O322 C325 1.244 . S
O323 Co297 2.155 . S
O323 C325 1.240 . S
O324 Co297 2.096 . S
O324 C305 1.247 . S
C325 O322 1.244 . S
C325 O323 1.240 . S
H326 C300 0.931 . S
H327 C309 0.931 . S
H328 C313 0.929 . S
H329 C315 0.930 . S
Co330 N334 2.148 . S
Co330 N340 2.128 . S
Co330 N350 2.194 . S
Co330 O355 2.351 . S
Co330 O356 2.155 . S
Co330 O357 2.096 . S
C331 N334 1.301 . S
C331 N335 1.328 . S
C331 H336 0.930 . S
C332 C333 1.333 . S
C332 N334 1.317 . S
C332 H337 0.930 . S
C333 C332 1.333 . S
C333 N335 1.350 . S
C333 H359 0.931 . S
N334 Co330 2.148 . S
N334 C331 1.301 . S
N334 C332 1.317 . S
N335 C331 1.328 . S
N335 C333 1.350 . S
H336 C331 0.930 . S
H337 C332 0.930 . S
C338 O339 1.224 . S
C338 O357 1.247 . S
O339 C338 1.224 . S
N340 Co330 2.128 . S
N340 C341 1.355 . S
N340 C343 1.311 . S
C341 N340 1.355 . S
C341 C342 1.363 . S
C341 H353 0.929 . S
C342 C341 1.363 . S
C342 N344 1.375 . S
C342 H360 0.931 . S
C343 N340 1.311 . S
C343 N344 1.347 . S
C343 H354 0.929 . S
N344 C342 1.375 . S
N344 C343 1.347 . S
C345 C348 1.365 . S
C345 N350 1.328 . S
C345 H351 0.929 . S
C346 C347 1.362 . S
C346 C349 1.378 . S
C346 H361 0.929 . S
C347 C346 1.362 . S
C347 C348 1.366 . S
C348 C345 1.365 . S
C348 C347 1.366 . S
C348 H362 0.930 . S
C349 C346 1.378 . S
C349 N350 1.315 . S
C349 H352 0.930 . S
N350 Co330 2.194 . S
N350 C345 1.328 . S
N350 C349 1.315 . S
H351 C345 0.929 . S
H352 C349 0.930 . S
H353 C341 0.929 . S
H354 C343 0.929 . S
O355 Co330 2.351 . S
O355 C358 1.244 . S
O356 Co330 2.155 . S
O356 C358 1.240 . S
O357 Co330 2.096 . S
O357 C338 1.247 . S
C358 O355 1.244 . S
C358 O356 1.240 . S
H359 C333 0.931 . S
H360 C342 0.931 . S
H361 C346 0.929 . S
H362 C348 0.930 . S
Co363 N367 2.148 . S
Co363 N373 2.128 . S
Co363 N383 2.194 . S
Co363 O388 2.351 . S
Co363 O389 2.155 . S
Co363 O390 2.096 . S
C364 N367 1.301 . S
C364 N368 1.328 . S
C364 H369 0.930 . S
C365 C366 1.333 . S
C365 N367 1.317 . S
C365 H370 0.930 . S
C366 C365 1.333 . S
C366 N368 1.350 . S
C366 H392 0.931 . S
N367 Co363 2.148 . S
N367 C364 1.301 . S
N367 C365 1.317 . S
N368 C364 1.328 . S
N368 C366 1.350 . S
H369 C364 0.930 . S
H370 C365 0.930 . S
C371 O372 1.224 . S
C371 O390 1.247 . S
O372 C371 1.224 . S
N373 Co363 2.128 . S
N373 C374 1.355 . S
N373 C376 1.311 . S
C374 N373 1.355 . S
C374 C375 1.363 . S
C374 H386 0.929 . S
C375 C374 1.363 . S
C375 N377 1.375 . S
C375 H393 0.931 . S
C376 N373 1.311 . S
C376 N377 1.347 . S
C376 H387 0.929 . S
N377 C375 1.375 . S
N377 C376 1.347 . S
C378 C381 1.365 . S
C378 N383 1.328 . S
C378 H384 0.929 . S
C379 C380 1.362 . S
C379 C382 1.378 . S
C379 H394 0.929 . S
C380 C379 1.362 . S
C380 C381 1.366 . S
C381 C378 1.365 . S
C381 C380 1.366 . S
C381 H395 0.930 . S
C382 C379 1.378 . S
C382 N383 1.315 . S
C382 H385 0.930 . S
N383 Co363 2.194 . S
N383 C378 1.328 . S
N383 C382 1.315 . S
H384 C378 0.929 . S
H385 C382 0.930 . S
H386 C374 0.929 . S
H387 C376 0.929 . S
O388 Co363 2.351 . S
O388 C391 1.244 . S
O389 Co363 2.155 . S
O389 C391 1.240 . S
O390 Co363 2.096 . S
O390 C371 1.247 . S
C391 O388 1.244 . S
C391 O389 1.240 . S
H392 C366 0.931 . S
H393 C375 0.931 . S
H394 C379 0.929 . S
H395 C381 0.930 . S
H396 C414 0.951 . S
H397 C416 0.951 . S
H398 C418 0.950 . S
H399 C419 0.950 . S
H400 C421 0.950 . S
H401 C424 0.950 . S
H402 C425 0.950 . S
H403 C427 0.950 . S
H404 C428 0.950 . S
H405 C429 0.951 . S
H406 C431 0.951 . S
H407 C433 0.950 . S
H408 C434 0.950 . S
H409 C436 0.950 . S
H410 C439 0.950 . S
H411 C440 0.950 . S
H412 C442 0.950 . S
H413 C443 0.950 . S
C414 H396 0.951 . S
C414 C415 1.366 . S
C414 C416 1.388 . S
C415 C414 1.366 . S
C415 C419 1.385 . S
C416 H397 0.951 . S
C416 C414 1.388 . S
C416 C417 1.366 . S
C417 C416 1.366 . S
C417 C418 1.414 . S
C417 C420 1.499 . S
C418 H398 0.950 . S
C418 C417 1.414 . S
C418 C419 1.374 . S
C419 H399 0.950 . S
C419 C415 1.385 . S
C419 C418 1.374 . S
C420 C417 1.499 . S
C420 C421 1.373 . S
C420 C422 1.389 . S
C421 H400 0.950 . S
C421 C420 1.373 . S
C421 C437 1.377 . S
C422 C420 1.389 . S
C422 C423 1.524 . S
C422 C436 1.377 . S
C423 C422 1.524 . S
C423 C424 1.397 . S
C423 C428 1.363 . S
C424 H401 0.950 . S
C424 C423 1.397 . S
C424 C425 1.334 . S
C425 H402 0.950 . S
C425 C424 1.334 . S
C425 C426 1.287 . S
C426 C425 1.287 . S
C426 C427 1.524 . S
C426 H445 0.913 . S
C427 H403 0.950 . S
C427 C426 1.524 . S
C427 C428 1.415 . S
C428 H404 0.950 . S
C428 C423 1.363 . S
C428 C427 1.415 . S
C429 H405 0.951 . S
C429 C430 1.366 . S
C429 C431 1.388 . S
C430 C429 1.366 . S
C430 C434 1.385 . S
C431 H406 0.951 . S
C431 C429 1.388 . S
C431 C432 1.366 . S
C432 C431 1.366 . S
C432 C433 1.414 . S
C432 C435 1.499 . S
C433 H407 0.950 . S
C433 C432 1.414 . S
C433 C434 1.374 . S
C434 H408 0.950 . S
C434 C430 1.385 . S
C434 C433 1.374 . S
C435 C432 1.499 . S
C435 C436 1.373 . S
C435 C437 1.389 . S
C436 H409 0.950 . S
C436 C422 1.377 . S
C436 C435 1.373 . S
C437 C421 1.377 . S
C437 C435 1.389 . S
C437 C438 1.524 . S
C438 C437 1.524 . S
C438 C439 1.397 . S
C438 C443 1.363 . S
C439 H410 0.950 . S
C439 C438 1.397 . S
C439 C440 1.334 . S
C440 H411 0.950 . S
C440 C439 1.334 . S
C440 C441 1.287 . S
C441 C440 1.287 . S
C441 C442 1.524 . S
C441 H444 0.999 . S
C442 H412 0.950 . S
C442 C441 1.524 . S
C442 C443 1.415 . S
C443 H413 0.950 . S
C443 C438 1.363 . S
C443 C442 1.415 . S
H444 C441 0.999 . S
H445 C426 0.913 . S
H446 C464 0.951 . S
H447 C466 0.951 . S
H448 C468 0.950 . S
H449 C469 0.950 . S
H450 C471 0.950 . S
H451 C474 0.950 . S
H452 C475 0.950 . S
H453 C477 0.950 . S
H454 C478 0.950 . S
H455 C479 0.951 . S
H456 C481 0.951 . S
H457 C483 0.950 . S
H458 C484 0.950 . S
H459 C486 0.950 . S
H460 C489 0.950 . S
H461 C490 0.950 . S
H462 C492 0.950 . S
H463 C493 0.950 . S
C464 H446 0.951 . S
C464 C465 1.366 . S
C464 C466 1.388 . S
C465 C464 1.366 . S
C465 C469 1.385 . S
C466 H447 0.951 . S
C466 C464 1.388 . S
C466 C467 1.366 . S
C467 C466 1.366 . S
C467 C468 1.414 . S
C467 C470 1.499 . S
C468 H448 0.950 . S
C468 C467 1.414 . S
C468 C469 1.374 . S
C469 H449 0.950 . S
C469 C465 1.385 . S
C469 C468 1.374 . S
C470 C467 1.499 . S
C470 C471 1.373 . S
C470 C472 1.389 . S
C471 H450 0.950 . S
C471 C470 1.373 . S
C471 C487 1.377 . S
C472 C470 1.389 . S
C472 C473 1.524 . S
C472 C486 1.377 . S
C473 C472 1.524 . S
C473 C474 1.397 . S
C473 C478 1.363 . S
C474 H451 0.950 . S
C474 C473 1.397 . S
C474 C475 1.334 . S
C475 H452 0.950 . S
C475 C474 1.334 . S
C475 C476 1.287 . S
C476 C475 1.287 . S
C476 C477 1.524 . S
C476 H495 0.913 . S
C477 H453 0.950 . S
C477 C476 1.524 . S
C477 C478 1.415 . S
C478 H454 0.950 . S
C478 C473 1.363 . S
C478 C477 1.415 . S
C479 H455 0.951 . S
C479 C480 1.366 . S
C479 C481 1.388 . S
C480 C479 1.366 . S
C480 C484 1.385 . S
C481 H456 0.951 . S
C481 C479 1.388 . S
C481 C482 1.366 . S
C482 C481 1.366 . S
C482 C483 1.414 . S
C482 C485 1.499 . S
C483 H457 0.950 . S
C483 C482 1.414 . S
C483 C484 1.374 . S
C484 H458 0.950 . S
C484 C480 1.385 . S
C484 C483 1.374 . S
C485 C482 1.499 . S
C485 C486 1.373 . S
C485 C487 1.389 . S
C486 H459 0.950 . S
C486 C472 1.377 . S
C486 C485 1.373 . S
C487 C471 1.377 . S
C487 C485 1.389 . S
C487 C488 1.524 . S
C488 C487 1.524 . S
C488 C489 1.397 . S
C488 C493 1.363 . S
C489 H460 0.950 . S
C489 C488 1.397 . S
C489 C490 1.334 . S
C490 H461 0.950 . S
C490 C489 1.334 . S
C490 C491 1.287 . S
C491 C490 1.287 . S
C491 C492 1.524 . S
C491 H494 0.999 . S
C492 H462 0.950 . S
C492 C491 1.524 . S
C492 C493 1.415 . S
C493 H463 0.950 . S
C493 C488 1.363 . S
C493 C492 1.415 . S
H494 C491 0.999 . S
H495 C476 0.913 . S
H496 C514 0.951 . S
H497 C516 0.951 . S
H498 C518 0.950 . S
H499 C519 0.950 . S
H500 C521 0.950 . S
H501 C524 0.950 . S
H502 C525 0.950 . S
H503 C527 0.950 . S
H504 C528 0.950 . S
H505 C529 0.951 . S
H506 C531 0.951 . S
H507 C533 0.950 . S
H508 C534 0.950 . S
H509 C536 0.950 . S
H510 C539 0.950 . S
H511 C540 0.950 . S
H512 C542 0.950 . S
H513 C543 0.950 . S
C514 H496 0.951 . S
C514 C515 1.366 . S
C514 C516 1.388 . S
C515 C514 1.366 . S
C515 C519 1.385 . S
C516 H497 0.951 . S
C516 C514 1.388 . S
C516 C517 1.366 . S
C517 C516 1.366 . S
C517 C518 1.414 . S
C517 C520 1.499 . S
C518 H498 0.950 . S
C518 C517 1.414 . S
C518 C519 1.374 . S
C519 H499 0.950 . S
C519 C515 1.385 . S
C519 C518 1.374 . S
C520 C517 1.499 . S
C520 C521 1.373 . S
C520 C522 1.389 . S
C521 H500 0.950 . S
C521 C520 1.373 . S
C521 C537 1.377 . S
C522 C520 1.389 . S
C522 C523 1.524 . S
C522 C536 1.377 . S
C523 C522 1.524 . S
C523 C524 1.397 . S
C523 C528 1.363 . S
C524 H501 0.950 . S
C524 C523 1.397 . S
C524 C525 1.334 . S
C525 H502 0.950 . S
C525 C524 1.334 . S
C525 C526 1.287 . S
C526 C525 1.287 . S
C526 C527 1.524 . S
C526 H545 0.913 . S
C527 H503 0.950 . S
C527 C526 1.524 . S
C527 C528 1.415 . S
C528 H504 0.950 . S
C528 C523 1.363 . S
C528 C527 1.415 . S
C529 H505 0.951 . S
C529 C530 1.366 . S
C529 C531 1.388 . S
C530 C529 1.366 . S
C530 C534 1.385 . S
C531 H506 0.951 . S
C531 C529 1.388 . S
C531 C532 1.366 . S
C532 C531 1.366 . S
C532 C533 1.414 . S
C532 C535 1.499 . S
C533 H507 0.950 . S
C533 C532 1.414 . S
C533 C534 1.374 . S
C534 H508 0.950 . S
C534 C530 1.385 . S
C534 C533 1.374 . S
C535 C532 1.499 . S
C535 C536 1.373 . S
C535 C537 1.389 . S
C536 H509 0.950 . S
C536 C522 1.377 . S
C536 C535 1.373 . S
C537 C521 1.377 . S
C537 C535 1.389 . S
C537 C538 1.524 . S
C538 C537 1.524 . S
C538 C539 1.397 . S
C538 C543 1.363 . S
C539 H510 0.950 . S
C539 C538 1.397 . S
C539 C540 1.334 . S
C540 H511 0.950 . S
C540 C539 1.334 . S
C540 C541 1.287 . S
C541 C540 1.287 . S
C541 C542 1.524 . S
C541 H544 0.999 . S
C542 H512 0.950 . S
C542 C541 1.524 . S
C542 C543 1.415 . S
C543 H513 0.950 . S
C543 C538 1.363 . S
C543 C542 1.415 . S
H544 C541 0.999 . S
H545 C526 0.913 . S
H546 C564 0.951 . S
H547 C566 0.951 . S
H548 C568 0.950 . S
H549 C569 0.950 . S
H550 C571 0.950 . S
H551 C574 0.950 . S
H552 C575 0.950 . S
H553 C577 0.950 . S
H554 C578 0.950 . S
H555 C579 0.951 . S
H556 C581 0.951 . S
H557 C583 0.950 . S
H558 C584 0.950 . S
H559 C586 0.950 . S
H560 C589 0.950 . S
H561 C590 0.950 . S
H562 C592 0.950 . S
H563 C593 0.950 . S
C564 H546 0.951 . S
C564 C565 1.366 . S
C564 C566 1.388 . S
C565 C564 1.366 . S
C565 C569 1.385 . S
C566 H547 0.951 . S
C566 C564 1.388 . S
C566 C567 1.366 . S
C567 C566 1.366 . S
C567 C568 1.414 . S
C567 C570 1.499 . S
C568 H548 0.950 . S
C568 C567 1.414 . S
C568 C569 1.374 . S
C569 H549 0.950 . S
C569 C565 1.385 . S
C569 C568 1.374 . S
C570 C567 1.499 . S
C570 C571 1.373 . S
C570 C572 1.389 . S
C571 H550 0.950 . S
C571 C570 1.373 . S
C571 C587 1.377 . S
C572 C570 1.389 . S
C572 C573 1.524 . S
C572 C586 1.377 . S
C573 C572 1.524 . S
C573 C574 1.397 . S
C573 C578 1.363 . S
C574 H551 0.950 . S
C574 C573 1.397 . S
C574 C575 1.334 . S
C575 H552 0.950 . S
C575 C574 1.334 . S
C575 C576 1.287 . S
C576 C575 1.287 . S
C576 C577 1.524 . S
C576 H595 0.913 . S
C577 H553 0.950 . S
C577 C576 1.524 . S
C577 C578 1.415 . S
C578 H554 0.950 . S
C578 C573 1.363 . S
C578 C577 1.415 . S
C579 H555 0.951 . S
C579 C580 1.366 . S
C579 C581 1.388 . S
C580 C579 1.366 . S
C580 C584 1.385 . S
C581 H556 0.951 . S
C581 C579 1.388 . S
C581 C582 1.366 . S
C582 C581 1.366 . S
C582 C583 1.414 . S
C582 C585 1.499 . S
C583 H557 0.950 . S
C583 C582 1.414 . S
C583 C584 1.374 . S
C584 H558 0.950 . S
C584 C580 1.385 . S
C584 C583 1.374 . S
C585 C582 1.499 . S
C585 C586 1.373 . S
C585 C587 1.389 . S
C586 H559 0.950 . S
C586 C572 1.377 . S
C586 C585 1.373 . S
C587 C571 1.377 . S
C587 C585 1.389 . S
C587 C588 1.524 . S
C588 C587 1.524 . S
C588 C589 1.397 . S
C588 C593 1.363 . S
C589 H560 0.950 . S
C589 C588 1.397 . S
C589 C590 1.334 . S
C590 H561 0.950 . S
C590 C589 1.334 . S
C590 C591 1.287 . S
C591 C590 1.287 . S
C591 C592 1.524 . S
C591 H594 0.999 . S
C592 H562 0.950 . S
C592 C591 1.524 . S
C592 C593 1.415 . S
C593 H563 0.950 . S
C593 C588 1.363 . S
C593 C592 1.415 . S
H594 C591 0.999 . S
H595 C576 0.913 . S
H596 C614 0.951 . S
H597 C616 0.951 . S
H598 C618 0.950 . S
H599 C619 0.950 . S
H600 C621 0.950 . S
H601 C624 0.950 . S
H602 C625 0.950 . S
H603 C627 0.950 . S
H604 C628 0.950 . S
H605 C629 0.951 . S
H606 C631 0.951 . S
H607 C633 0.950 . S
H608 C634 0.950 . S
H609 C636 0.950 . S
H610 C639 0.950 . S
H611 C640 0.950 . S
H612 C642 0.950 . S
H613 C643 0.950 . S
C614 H596 0.951 . S
C614 C615 1.366 . S
C614 C616 1.388 . S
C615 C614 1.366 . S
C615 C619 1.385 . S
C616 H597 0.951 . S
C616 C614 1.388 . S
C616 C617 1.366 . S
C617 C616 1.366 . S
C617 C618 1.414 . S
C617 C620 1.499 . S
C618 H598 0.950 . S
C618 C617 1.414 . S
C618 C619 1.374 . S
C619 H599 0.950 . S
C619 C615 1.385 . S
C619 C618 1.374 . S
C620 C617 1.499 . S
C620 C621 1.373 . S
C620 C622 1.389 . S
C621 H600 0.950 . S
C621 C620 1.373 . S
C621 C637 1.377 . S
C622 C620 1.389 . S
C622 C623 1.524 . S
C622 C636 1.377 . S
C623 C622 1.524 . S
C623 C624 1.397 . S
C623 C628 1.363 . S
C624 H601 0.950 . S
C624 C623 1.397 . S
C624 C625 1.334 . S
C625 H602 0.950 . S
C625 C624 1.334 . S
C625 C626 1.287 . S
C626 C625 1.287 . S
C626 C627 1.524 . S
C626 H645 0.913 . S
C627 H603 0.950 . S
C627 C626 1.524 . S
C627 C628 1.415 . S
C628 H604 0.950 . S
C628 C623 1.363 . S
C628 C627 1.415 . S
C629 H605 0.951 . S
C629 C630 1.366 . S
C629 C631 1.388 . S
C630 C629 1.366 . S
C630 C634 1.385 . S
C631 H606 0.951 . S
C631 C629 1.388 . S
C631 C632 1.366 . S
C632 C631 1.366 . S
C632 C633 1.414 . S
C632 C635 1.499 . S
C633 H607 0.950 . S
C633 C632 1.414 . S
C633 C634 1.374 . S
C634 H608 0.950 . S
C634 C630 1.385 . S
C634 C633 1.374 . S
C635 C632 1.499 . S
C635 C636 1.373 . S
C635 C637 1.389 . S
C636 H609 0.950 . S
C636 C622 1.377 . S
C636 C635 1.373 . S
C637 C621 1.377 . S
C637 C635 1.389 . S
C637 C638 1.524 . S
C638 C637 1.524 . S
C638 C639 1.397 . S
C638 C643 1.363 . S
C639 H610 0.950 . S
C639 C638 1.397 . S
C639 C640 1.334 . S
C640 H611 0.950 . S
C640 C639 1.334 . S
C640 C641 1.287 . S
C641 C640 1.287 . S
C641 C642 1.524 . S
C641 H644 0.999 . S
C642 H612 0.950 . S
C642 C641 1.524 . S
C642 C643 1.415 . S
C643 H613 0.950 . S
C643 C638 1.363 . S
C643 C642 1.415 . S
H644 C641 0.999 . S
H645 C626 0.913 . S
H646 C664 0.951 . S
H647 C666 0.951 . S
H648 C668 0.950 . S
H649 C669 0.950 . S
H650 C671 0.950 . S
H651 C674 0.950 . S
H652 C675 0.950 . S
H653 C677 0.950 . S
H654 C678 0.950 . S
H655 C679 0.951 . S
H656 C681 0.951 . S
H657 C683 0.950 . S
H658 C684 0.950 . S
H659 C686 0.950 . S
H660 C689 0.950 . S
H661 C690 0.950 . S
H662 C692 0.950 . S
H663 C693 0.950 . S
C664 H646 0.951 . S
C664 C665 1.366 . S
C664 C666 1.388 . S
C665 C664 1.366 . S
C665 C669 1.385 . S
C666 H647 0.951 . S
C666 C664 1.388 . S
C666 C667 1.366 . S
C667 C666 1.366 . S
C667 C668 1.414 . S
C667 C670 1.499 . S
C668 H648 0.950 . S
C668 C667 1.414 . S
C668 C669 1.374 . S
C669 H649 0.950 . S
C669 C665 1.385 . S
C669 C668 1.374 . S
C670 C667 1.499 . S
C670 C671 1.373 . S
C670 C672 1.389 . S
C671 H650 0.950 . S
C671 C670 1.373 . S
C671 C687 1.377 . S
C672 C670 1.389 . S
C672 C673 1.524 . S
C672 C686 1.377 . S
C673 C672 1.524 . S
C673 C674 1.397 . S
C673 C678 1.363 . S
C674 H651 0.950 . S
C674 C673 1.397 . S
C674 C675 1.334 . S
C675 H652 0.950 . S
C675 C674 1.334 . S
C675 C676 1.287 . S
C676 C675 1.287 . S
C676 C677 1.524 . S
C676 H695 0.913 . S
C677 H653 0.950 . S
C677 C676 1.524 . S
C677 C678 1.415 . S
C678 H654 0.950 . S
C678 C673 1.363 . S
C678 C677 1.415 . S
C679 H655 0.951 . S
C679 C680 1.366 . S
C679 C681 1.388 . S
C680 C679 1.366 . S
C680 C684 1.385 . S
C681 H656 0.951 . S
C681 C679 1.388 . S
C681 C682 1.366 . S
C682 C681 1.366 . S
C682 C683 1.414 . S
C682 C685 1.499 . S
C683 H657 0.950 . S
C683 C682 1.414 . S
C683 C684 1.374 . S
C684 H658 0.950 . S
C684 C680 1.385 . S
C684 C683 1.374 . S
C685 C682 1.499 . S
C685 C686 1.373 . S
C685 C687 1.389 . S
C686 H659 0.950 . S
C686 C672 1.377 . S
C686 C685 1.373 . S
C687 C671 1.377 . S
C687 C685 1.389 . S
C687 C688 1.524 . S
C688 C687 1.524 . S
C688 C689 1.397 . S
C688 C693 1.363 . S
C689 H660 0.950 . S
C689 C688 1.397 . S
C689 C690 1.334 . S
C690 H661 0.950 . S
C690 C689 1.334 . S
C690 C691 1.287 . S
C691 C690 1.287 . S
C691 C692 1.524 . S
C691 H694 0.999 . S
C692 H662 0.950 . S
C692 C691 1.524 . S
C692 C693 1.415 . S
C693 H663 0.950 . S
C693 C688 1.363 . S
C693 C692 1.415 . S
H694 C691 0.999 . S
H695 C676 0.913 . S
H696 C714 0.951 . S
H697 C716 0.951 . S
H698 C718 0.950 . S
H699 C719 0.950 . S
H700 C721 0.950 . S
H701 C724 0.950 . S
H702 C725 0.950 . S
H703 C727 0.950 . S
H704 C728 0.950 . S
H705 C729 0.951 . S
H706 C731 0.951 . S
H707 C733 0.950 . S
H708 C734 0.950 . S
H709 C736 0.950 . S
H710 C739 0.950 . S
H711 C740 0.950 . S
H712 C742 0.950 . S
H713 C743 0.950 . S
C714 H696 0.951 . S
C714 C715 1.366 . S
C714 C716 1.388 . S
C715 C714 1.366 . S
C715 C719 1.385 . S
C716 H697 0.951 . S
C716 C714 1.388 . S
C716 C717 1.366 . S
C717 C716 1.366 . S
C717 C718 1.414 . S
C717 C720 1.499 . S
C718 H698 0.950 . S
C718 C717 1.414 . S
C718 C719 1.374 . S
C719 H699 0.950 . S
C719 C715 1.385 . S
C719 C718 1.374 . S
C720 C717 1.499 . S
C720 C721 1.373 . S
C720 C722 1.389 . S
C721 H700 0.950 . S
C721 C720 1.373 . S
C721 C737 1.377 . S
C722 C720 1.389 . S
C722 C723 1.524 . S
C722 C736 1.377 . S
C723 C722 1.524 . S
C723 C724 1.397 . S
C723 C728 1.363 . S
C724 H701 0.950 . S
C724 C723 1.397 . S
C724 C725 1.334 . S
C725 H702 0.950 . S
C725 C724 1.334 . S
C725 C726 1.287 . S
C726 C725 1.287 . S
C726 C727 1.524 . S
C726 H745 0.913 . S
C727 H703 0.950 . S
C727 C726 1.524 . S
C727 C728 1.415 . S
C728 H704 0.950 . S
C728 C723 1.363 . S
C728 C727 1.415 . S
C729 H705 0.951 . S
C729 C730 1.366 . S
C729 C731 1.388 . S
C730 C729 1.366 . S
C730 C734 1.385 . S
C731 H706 0.951 . S
C731 C729 1.388 . S
C731 C732 1.366 . S
C732 C731 1.366 . S
C732 C733 1.414 . S
C732 C735 1.499 . S
C733 H707 0.950 . S
C733 C732 1.414 . S
C733 C734 1.374 . S
C734 H708 0.950 . S
C734 C730 1.385 . S
C734 C733 1.374 . S
C735 C732 1.499 . S
C735 C736 1.373 . S
C735 C737 1.389 . S
C736 H709 0.950 . S
C736 C722 1.377 . S
C736 C735 1.373 . S
C737 C721 1.377 . S
C737 C735 1.389 . S
C737 C738 1.524 . S
C738 C737 1.524 . S
C738 C739 1.397 . S
C738 C743 1.363 . S
C739 H710 0.950 . S
C739 C738 1.397 . S
C739 C740 1.334 . S
C740 H711 0.950 . S
C740 C739 1.334 . S
C740 C741 1.287 . S
C741 C740 1.287 . S
C741 C742 1.524 . S
C741 H744 0.999 . S
C742 H712 0.950 . S
C742 C741 1.524 . S
C742 C743 1.415 . S
C743 H713 0.950 . S
C743 C738 1.363 . S
C743 C742 1.415 . S
H744 C741 0.999 . S
H745 C726 0.913 . S
H746 C764 0.951 . S
H747 C766 0.951 . S
H748 C768 0.950 . S
H749 C769 0.950 . S
H750 C771 0.950 . S
H751 C774 0.950 . S
H752 C775 0.950 . S
H753 C777 0.950 . S
H754 C778 0.950 . S
H755 C779 0.951 . S
H756 C781 0.951 . S
H757 C783 0.950 . S
H758 C784 0.950 . S
H759 C786 0.950 . S
H760 C789 0.950 . S
H761 C790 0.950 . S
H762 C792 0.950 . S
H763 C793 0.950 . S
C764 H746 0.951 . S
C764 C765 1.366 . S
C764 C766 1.388 . S
C765 C764 1.366 . S
C765 C769 1.385 . S
C766 H747 0.951 . S
C766 C764 1.388 . S
C766 C767 1.366 . S
C767 C766 1.366 . S
C767 C768 1.414 . S
C767 C770 1.499 . S
C768 H748 0.950 . S
C768 C767 1.414 . S
C768 C769 1.374 . S
C769 H749 0.950 . S
C769 C765 1.385 . S
C769 C768 1.374 . S
C770 C767 1.499 . S
C770 C771 1.373 . S
C770 C772 1.389 . S
C771 H750 0.950 . S
C771 C770 1.373 . S
C771 C787 1.377 . S
C772 C770 1.389 . S
C772 C773 1.524 . S
C772 C786 1.377 . S
C773 C772 1.524 . S
C773 C774 1.397 . S
C773 C778 1.363 . S
C774 H751 0.950 . S
C774 C773 1.397 . S
C774 C775 1.334 . S
C775 H752 0.950 . S
C775 C774 1.334 . S
C775 C776 1.287 . S
C776 C775 1.287 . S
C776 C777 1.524 . S
C776 H795 0.913 . S
C777 H753 0.950 . S
C777 C776 1.524 . S
C777 C778 1.415 . S
C778 H754 0.950 . S
C778 C773 1.363 . S
C778 C777 1.415 . S
C779 H755 0.951 . S
C779 C780 1.366 . S
C779 C781 1.388 . S
C780 C779 1.366 . S
C780 C784 1.385 . S
C781 H756 0.951 . S
C781 C779 1.388 . S
C781 C782 1.366 . S
C782 C781 1.366 . S
C782 C783 1.414 . S
C782 C785 1.499 . S
C783 H757 0.950 . S
C783 C782 1.414 . S
C783 C784 1.374 . S
C784 H758 0.950 . S
C784 C780 1.385 . S
C784 C783 1.374 . S
C785 C782 1.499 . S
C785 C786 1.373 . S
C785 C787 1.389 . S
C786 H759 0.950 . S
C786 C772 1.377 . S
C786 C785 1.373 . S
C787 C771 1.377 . S
C787 C785 1.389 . S
C787 C788 1.524 . S
C788 C787 1.524 . S
C788 C789 1.397 . S
C788 C793 1.363 . S
C789 H760 0.950 . S
C789 C788 1.397 . S
C789 C790 1.334 . S
C790 H761 0.950 . S
C790 C789 1.334 . S
C790 C791 1.287 . S
C791 C790 1.287 . S
C791 C792 1.524 . S
C791 H794 0.999 . S
C792 H762 0.950 . S
C792 C791 1.524 . S
C792 C793 1.415 . S
C793 H763 0.950 . S
C793 C788 1.363 . S
C793 C792 1.415 . S
H794 C791 0.999 . S
H795 C776 0.913 . S
H796 C814 0.951 . S
H797 C816 0.951 . S
H798 C818 0.950 . S
H799 C819 0.950 . S
H800 C821 0.950 . S
H801 C824 0.950 . S
H802 C825 0.950 . S
H803 C827 0.950 . S
H804 C828 0.950 . S
H805 C829 0.951 . S
H806 C831 0.951 . S
H807 C833 0.950 . S
H808 C834 0.950 . S
H809 C836 0.950 . S
H810 C839 0.950 . S
H811 C840 0.950 . S
H812 C842 0.950 . S
H813 C843 0.950 . S
C814 H796 0.951 . S
C814 C815 1.366 . S
C814 C816 1.388 . S
C815 C814 1.366 . S
C815 C819 1.385 . S
C816 H797 0.951 . S
C816 C814 1.388 . S
C816 C817 1.366 . S
C817 C816 1.366 . S
C817 C818 1.414 . S
C817 C820 1.499 . S
C818 H798 0.950 . S
C818 C817 1.414 . S
C818 C819 1.374 . S
C819 H799 0.950 . S
C819 C815 1.385 . S
C819 C818 1.374 . S
C820 C817 1.499 . S
C820 C821 1.373 . S
C820 C822 1.389 . S
C821 H800 0.950 . S
C821 C820 1.373 . S
C821 C837 1.377 . S
C822 C820 1.389 . S
C822 C823 1.524 . S
C822 C836 1.377 . S
C823 C822 1.524 . S
C823 C824 1.397 . S
C823 C828 1.363 . S
C824 H801 0.950 . S
C824 C823 1.397 . S
C824 C825 1.334 . S
C825 H802 0.950 . S
C825 C824 1.334 . S
C825 C826 1.287 . S
C826 C825 1.287 . S
C826 C827 1.524 . S
C826 H845 0.913 . S
C827 H803 0.950 . S
C827 C826 1.524 . S
C827 C828 1.415 . S
C828 H804 0.950 . S
C828 C823 1.363 . S
C828 C827 1.415 . S
C829 H805 0.951 . S
C829 C830 1.366 . S
C829 C831 1.388 . S
C830 C829 1.366 . S
C830 C834 1.385 . S
C831 H806 0.951 . S
C831 C829 1.388 . S
C831 C832 1.366 . S
C832 C831 1.366 . S
C832 C833 1.414 . S
C832 C835 1.499 . S
C833 H807 0.950 . S
C833 C832 1.414 . S
C833 C834 1.374 . S
C834 H808 0.950 . S
C834 C830 1.385 . S
C834 C833 1.374 . S
C835 C832 1.499 . S
C835 C836 1.373 . S
C835 C837 1.389 . S
C836 H809 0.950 . S
C836 C822 1.377 . S
C836 C835 1.373 . S
C837 C821 1.377 . S
C837 C835 1.389 . S
C837 C838 1.524 . S
C838 C837 1.524 . S
C838 C839 1.397 . S
C838 C843 1.363 . S
C839 H810 0.950 . S
C839 C838 1.397 . S
C839 C840 1.334 . S
C840 H811 0.950 . S
C840 C839 1.334 . S
C840 C841 1.287 . S
C841 C840 1.287 . S
C841 C842 1.524 . S
C841 H844 0.999 . S
C842 H812 0.950 . S
C842 C841 1.524 . S
C842 C843 1.415 . S
C843 H813 0.950 . S
C843 C838 1.363 . S
C843 C842 1.415 . S
H844 C841 0.999 . S
H845 C826 0.913 . S
H846 C864 0.951 . S
H847 C866 0.951 . S
H848 C868 0.950 . S
H849 C869 0.950 . S
H850 C871 0.950 . S
H851 C874 0.950 . S
H852 C875 0.950 . S
H853 C877 0.950 . S
H854 C878 0.950 . S
H855 C879 0.951 . S
H856 C881 0.951 . S
H857 C883 0.950 . S
H858 C884 0.950 . S
H859 C886 0.950 . S
H860 C889 0.950 . S
H861 C890 0.950 . S
H862 C892 0.950 . S
H863 C893 0.950 . S
C864 H846 0.951 . S
C864 C865 1.366 . S
C864 C866 1.388 . S
C865 C864 1.366 . S
C865 C869 1.385 . S
C866 H847 0.951 . S
C866 C864 1.388 . S
C866 C867 1.366 . S
C867 C866 1.366 . S
C867 C868 1.414 . S
C867 C870 1.499 . S
C868 H848 0.950 . S
C868 C867 1.414 . S
C868 C869 1.374 . S
C869 H849 0.950 . S
C869 C865 1.385 . S
C869 C868 1.374 . S
C870 C867 1.499 . S
C870 C871 1.373 . S
C870 C872 1.389 . S
C871 H850 0.950 . S
C871 C870 1.373 . S
C871 C887 1.377 . S
C872 C870 1.389 . S
C872 C873 1.524 . S
C872 C886 1.377 . S
C873 C872 1.524 . S
C873 C874 1.397 . S
C873 C878 1.363 . S
C874 H851 0.950 . S
C874 C873 1.397 . S
C874 C875 1.334 . S
C875 H852 0.950 . S
C875 C874 1.334 . S
C875 C876 1.287 . S
C876 C875 1.287 . S
C876 C877 1.524 . S
C876 H895 0.913 . S
C877 H853 0.950 . S
C877 C876 1.524 . S
C877 C878 1.415 . S
C878 H854 0.950 . S
C878 C873 1.363 . S
C878 C877 1.415 . S
C879 H855 0.951 . S
C879 C880 1.366 . S
C879 C881 1.388 . S
C880 C879 1.366 . S
C880 C884 1.385 . S
C881 H856 0.951 . S
C881 C879 1.388 . S
C881 C882 1.366 . S
C882 C881 1.366 . S
C882 C883 1.414 . S
C882 C885 1.499 . S
C883 H857 0.950 . S
C883 C882 1.414 . S
C883 C884 1.374 . S
C884 H858 0.950 . S
C884 C880 1.385 . S
C884 C883 1.374 . S
C885 C882 1.499 . S
C885 C886 1.373 . S
C885 C887 1.389 . S
C886 H859 0.950 . S
C886 C872 1.377 . S
C886 C885 1.373 . S
C887 C871 1.377 . S
C887 C885 1.389 . S
C887 C888 1.524 . S
C888 C887 1.524 . S
C888 C889 1.397 . S
C888 C893 1.363 . S
C889 H860 0.950 . S
C889 C888 1.397 . S
C889 C890 1.334 . S
C890 H861 0.950 . S
C890 C889 1.334 . S
C890 C891 1.287 . S
C891 C890 1.287 . S
C891 C892 1.524 . S
C891 H894 0.999 . S
C892 H862 0.950 . S
C892 C891 1.524 . S
C892 C893 1.415 . S
C893 H863 0.950 . S
C893 C888 1.363 . S
C893 C892 1.415 . S
H894 C891 0.999 . S
H895 C876 0.913 . S
H896 C914 0.951 . S
H897 C916 0.951 . S
H898 C918 0.950 . S
H899 C919 0.950 . S
H900 C921 0.950 . S
H901 C924 0.950 . S
H902 C925 0.950 . S
H903 C927 0.950 . S
H904 C928 0.950 . S
H905 C929 0.951 . S
H906 C931 0.951 . S
H907 C933 0.950 . S
H908 C934 0.950 . S
H909 C936 0.950 . S
H910 C939 0.950 . S
H911 C940 0.950 . S
H912 C942 0.950 . S
H913 C943 0.950 . S
C914 H896 0.951 . S
C914 C915 1.366 . S
C914 C916 1.388 . S
C915 C914 1.366 . S
C915 C919 1.385 . S
C916 H897 0.951 . S
C916 C914 1.388 . S
C916 C917 1.366 . S
C917 C916 1.366 . S
C917 C918 1.414 . S
C917 C920 1.499 . S
C918 H898 0.950 . S
C918 C917 1.414 . S
C918 C919 1.374 . S
C919 H899 0.950 . S
C919 C915 1.385 . S
C919 C918 1.374 . S
C920 C917 1.499 . S
C920 C921 1.373 . S
C920 C922 1.389 . S
C921 H900 0.950 . S
C921 C920 1.373 . S
C921 C937 1.377 . S
C922 C920 1.389 . S
C922 C923 1.524 . S
C922 C936 1.377 . S
C923 C922 1.524 . S
C923 C924 1.397 . S
C923 C928 1.363 . S
C924 H901 0.950 . S
C924 C923 1.397 . S
C924 C925 1.334 . S
C925 H902 0.950 . S
C925 C924 1.334 . S
C925 C926 1.287 . S
C926 C925 1.287 . S
C926 C927 1.524 . S
C926 H945 0.913 . S
C927 H903 0.950 . S
C927 C926 1.524 . S
C927 C928 1.415 . S
C928 H904 0.950 . S
C928 C923 1.363 . S
C928 C927 1.415 . S
C929 H905 0.951 . S
C929 C930 1.366 . S
C929 C931 1.388 . S
C930 C929 1.366 . S
C930 C934 1.385 . S
C931 H906 0.951 . S
C931 C929 1.388 . S
C931 C932 1.366 . S
C932 C931 1.366 . S
C932 C933 1.414 . S
C932 C935 1.499 . S
C933 H907 0.950 . S
C933 C932 1.414 . S
C933 C934 1.374 . S
C934 H908 0.950 . S
C934 C930 1.385 . S
C934 C933 1.374 . S
C935 C932 1.499 . S
C935 C936 1.373 . S
C935 C937 1.389 . S
C936 H909 0.950 . S
C936 C922 1.377 . S
C936 C935 1.373 . S
C937 C921 1.377 . S
C937 C935 1.389 . S
C937 C938 1.524 . S
C938 C937 1.524 . S
C938 C939 1.397 . S
C938 C943 1.363 . S
C939 H910 0.950 . S
C939 C938 1.397 . S
C939 C940 1.334 . S
C940 H911 0.950 . S
C940 C939 1.334 . S
C940 C941 1.287 . S
C941 C940 1.287 . S
C941 C942 1.524 . S
C941 H944 0.999 . S
C942 H912 0.950 . S
C942 C941 1.524 . S
C942 C943 1.415 . S
C943 H913 0.950 . S
C943 C938 1.363 . S
C943 C942 1.415 . S
H944 C941 0.999 . S
H945 C926 0.913 . S
H946 C964 0.951 . S
H947 C966 0.951 . S
H948 C968 0.950 . S
H949 C969 0.950 . S
H950 C971 0.950 . S
H951 C974 0.950 . S
H952 C975 0.950 . S
H953 C977 0.950 . S
H954 C978 0.950 . S
H955 C979 0.951 . S
H956 C981 0.951 . S
H957 C983 0.950 . S
H958 C984 0.950 . S
H959 C986 0.950 . S
H960 C989 0.950 . S
H961 C990 0.950 . S
H962 C992 0.950 . S
H963 C993 0.950 . S
C964 H946 0.951 . S
C964 C965 1.366 . S
C964 C966 1.388 . S
C965 C964 1.366 . S
C965 C969 1.385 . S
C966 H947 0.951 . S
C966 C964 1.388 . S
C966 C967 1.366 . S
C967 C966 1.366 . S
C967 C968 1.414 . S
C967 C970 1.499 . S
C968 H948 0.950 . S
C968 C967 1.414 . S
C968 C969 1.374 . S
C969 H949 0.950 . S
C969 C965 1.385 . S
C969 C968 1.374 . S
C970 C967 1.499 . S
C970 C971 1.373 . S
C970 C972 1.389 . S
C971 H950 0.950 . S
C971 C970 1.373 . S
C971 C987 1.377 . S
C972 C970 1.389 . S
C972 C973 1.524 . S
C972 C986 1.377 . S
C973 C972 1.524 . S
C973 C974 1.397 . S
C973 C978 1.363 . S
C974 H951 0.950 . S
C974 C973 1.397 . S
C974 C975 1.334 . S
C975 H952 0.950 . S
C975 C974 1.334 . S
C975 C976 1.287 . S
C976 C975 1.287 . S
C976 C977 1.524 . S
C976 H995 0.913 . S
C977 H953 0.950 . S
C977 C976 1.524 . S
C977 C978 1.415 . S
C978 H954 0.950 . S
C978 C973 1.363 . S
C978 C977 1.415 . S
C979 H955 0.951 . S
C979 C980 1.366 . S
C979 C981 1.388 . S
C980 C979 1.366 . S
C980 C984 1.385 . S
C981 H956 0.951 . S
C981 C979 1.388 . S
C981 C982 1.366 . S
C982 C981 1.366 . S
C982 C983 1.414 . S
C982 C985 1.499 . S
C983 H957 0.950 . S
C983 C982 1.414 . S
C983 C984 1.374 . S
C984 H958 0.950 . S
C984 C980 1.385 . S
C984 C983 1.374 . S
C985 C982 1.499 . S
C985 C986 1.373 . S
C985 C987 1.389 . S
C986 H959 0.950 . S
C986 C972 1.377 . S
C986 C985 1.373 . S
C987 C971 1.377 . S
C987 C985 1.389 . S
C987 C988 1.524 . S
C988 C987 1.524 . S
C988 C989 1.397 . S
C988 C993 1.363 . S
C989 H960 0.950 . S
C989 C988 1.397 . S
C989 C990 1.334 . S
C990 H961 0.950 . S
C990 C989 1.334 . S
C990 C991 1.287 . S
C991 C990 1.287 . S
C991 C992 1.524 . S
C991 H994 0.999 . S
C992 H962 0.950 . S
C992 C991 1.524 . S
C992 C993 1.415 . S
C993 H963 0.950 . S
C993 C988 1.363 . S
C993 C992 1.415 . S
H994 C991 0.999 . S
H995 C976 0.913 . S
H996 C1014 0.951 . S
H997 C1016 0.951 . S
H998 C1018 0.950 . S
H999 C1019 0.950 . S
H1000 C1021 0.949 1_556 S
H1001 C1024 0.950 . S
H1002 C1025 0.950 . S
H1003 C1027 0.950 . S
H1004 C1028 0.950 . S
H1005 C1029 0.951 . S
H1006 C1031 0.951 . S
H1007 C1033 0.950 . S
H1008 C1034 0.950 . S
H1009 C1036 0.950 . S
H1010 C1039 0.950 . S
H1011 C1040 0.950 . S
H1012 C1042 0.950 . S
H1013 C1043 0.950 . S
C1014 H996 0.951 . S
C1014 C1015 1.366 . S
C1014 C1016 1.388 . S
C1015 C1014 1.366 . S
C1015 C1019 1.385 . S
C1016 H997 0.951 . S
C1016 C1014 1.388 . S
C1016 C1017 1.366 . S
C1017 C1016 1.366 . S
C1017 C1018 1.414 . S
C1017 C1020 1.499 . S
C1018 H998 0.950 . S
C1018 C1017 1.414 . S
C1018 C1019 1.374 . S
C1019 H999 0.950 . S
C1019 C1015 1.385 . S
C1019 C1018 1.374 . S
C1020 C1017 1.499 . S
C1020 C1021 1.384 . S
C1020 C1022 1.389 . S
C1021 H1000 0.949 1_554 S
C1021 C1020 1.384 . S
C1021 C1037 1.367 1_554 S
C1022 C1020 1.389 . S
C1022 C1023 1.524 . S
C1022 C1036 1.377 . S
C1023 C1022 1.524 . S
C1023 C1024 1.397 . S
C1023 C1028 1.363 . S
C1024 H1001 0.950 . S
C1024 C1023 1.397 . S
C1024 C1025 1.334 . S
C1025 H1002 0.950 . S
C1025 C1024 1.334 . S
C1025 C1026 1.287 . S
C1026 C1025 1.287 . S
C1026 C1027 1.524 . S
C1026 H1045 0.913 . S
C1027 H1003 0.950 . S
C1027 C1026 1.524 . S
C1027 C1028 1.415 . S
C1028 H1004 0.950 . S
C1028 C1023 1.363 . S
C1028 C1027 1.415 . S
C1029 H1005 0.951 . S
C1029 C1030 1.366 . S
C1029 C1031 1.388 1_565 S
C1030 C1029 1.366 . S
C1030 C1034 1.385 . S
C1031 H1006 0.951 . S
C1031 C1029 1.388 1_545 S
C1031 C1032 1.366 . S
C1032 C1031 1.366 . S
C1032 C1033 1.414 1_545 S
C1032 C1035 1.499 . S
C1033 H1007 0.950 . S
C1033 C1032 1.414 1_565 S
C1033 C1034 1.374 . S
C1034 H1008 0.950 . S
C1034 C1030 1.385 . S
C1034 C1033 1.374 . S
C1035 C1032 1.499 . S
C1035 C1036 1.373 1_556 S
C1035 C1037 1.389 . S
C1036 H1009 0.950 . S
C1036 C1022 1.377 . S
C1036 C1035 1.373 1_554 S
C1037 C1021 1.367 1_556 S
C1037 C1035 1.389 . S
C1037 C1038 1.524 . S
C1038 C1037 1.524 . S
C1038 C1039 1.397 . S
C1038 C1043 1.363 . S
C1039 H1010 0.950 . S
C1039 C1038 1.397 . S
C1039 C1040 1.334 . S
C1040 H1011 0.950 . S
C1040 C1039 1.334 . S
C1040 C1041 1.287 . S
C1041 C1040 1.287 . S
C1041 C1042 1.524 . S
C1041 H1044 0.999 . S
C1042 H1012 0.950 . S
C1042 C1041 1.524 . S
C1042 C1043 1.415 . S
C1043 H1013 0.950 . S
C1043 C1038 1.363 . S
C1043 C1042 1.415 . S
H1044 C1041 0.999 . S
H1045 C1026 0.913 . S
H1046 C1064 0.951 . S
H1047 C1066 0.951 . S
H1048 C1068 0.950 . S
H1049 C1069 0.950 . S
H1050 C1071 0.950 . S
H1051 C1074 0.950 . S
H1052 C1075 0.950 . S
H1053 C1077 0.950 . S
H1054 C1078 0.950 1_556 S
H1055 C1079 0.951 . S
H1056 C1081 0.951 . S
H1057 C1083 0.950 . S
H1058 C1084 0.950 . S
H1059 C1086 0.950 . S
H1060 C1089 0.950 . S
H1061 C1090 0.950 . S
H1062 C1092 0.950 . S
H1063 C1093 0.950 1_554 S
C1064 H1046 0.951 . S
C1064 C1065 1.366 . S
C1064 C1066 1.388 . S
C1065 C1064 1.366 . S
C1065 C1069 1.385 . S
C1066 H1047 0.951 . S
C1066 C1064 1.388 . S
C1066 C1067 1.366 . S
C1067 C1066 1.366 . S
C1067 C1068 1.414 . S
C1067 C1070 1.499 . S
C1068 H1048 0.950 . S
C1068 C1067 1.414 . S
C1068 C1069 1.374 . S
C1069 H1049 0.950 . S
C1069 C1065 1.385 . S
C1069 C1068 1.374 . S
C1070 C1067 1.499 . S
C1070 C1071 1.373 . S
C1070 C1072 1.389 . S
C1071 H1050 0.950 . S
C1071 C1070 1.373 . S
C1071 C1087 1.377 1_554 S
C1072 C1070 1.389 . S
C1072 C1073 1.524 . S
C1072 C1086 1.377 1_554 S
C1073 C1072 1.524 . S
C1073 C1074 1.397 . S
C1073 C1078 1.363 . S
C1074 H1051 0.950 . S
C1074 C1073 1.397 . S
C1074 C1075 1.334 . S
C1075 H1052 0.950 . S
C1075 C1074 1.334 . S
C1075 C1076 1.287 . S
C1076 C1075 1.287 . S
C1076 C1077 1.524 . S
C1076 H1095 0.913 . S
C1077 H1053 0.950 . S
C1077 C1076 1.524 . S
C1077 C1078 1.415 . S
C1078 H1054 0.950 1_554 S
C1078 C1073 1.363 . S
C1078 C1077 1.415 . S
C1079 H1055 0.951 . S
C1079 C1080 1.366 . S
C1079 C1081 1.388 . S
C1080 C1079 1.366 . S
C1080 C1084 1.385 . S
C1081 H1056 0.951 . S
C1081 C1079 1.388 . S
C1081 C1082 1.366 1_455 S
C1082 C1081 1.366 1_655 S
C1082 C1083 1.414 . S
C1082 C1085 1.499 . S
C1083 H1057 0.950 . S
C1083 C1082 1.414 . S
C1083 C1084 1.374 1_655 S
C1084 H1058 0.950 . S
C1084 C1080 1.385 . S
C1084 C1083 1.374 1_455 S
C1085 C1082 1.499 . S
C1085 C1086 1.373 . S
C1085 C1087 1.389 . S
C1086 H1059 0.950 . S
C1086 C1072 1.377 1_556 S
C1086 C1085 1.373 . S
C1087 C1071 1.377 1_556 S
C1087 C1085 1.389 . S
C1087 C1088 1.524 . S
C1088 C1087 1.524 . S
C1088 C1089 1.397 . S
C1088 C1093 1.363 . S
C1089 H1060 0.950 . S
C1089 C1088 1.397 . S
C1089 C1090 1.334 . S
C1090 H1061 0.950 . S
C1090 C1089 1.334 . S
C1090 C1091 1.287 . S
C1091 C1090 1.287 . S
C1091 C1092 1.524 . S
C1091 H1094 0.999 . S
C1092 H1062 0.950 . S
C1092 C1091 1.524 . S
C1092 C1093 1.415 . S
C1093 H1063 0.950 1_556 S
C1093 C1088 1.363 . S
C1093 C1092 1.415 . S
H1094 C1091 0.999 . S
H1095 C1076 0.913 . S
H1096 C1114 0.951 . S
H1097 C1116 0.951 . S
H1098 C1118 0.950 . S
H1099 C1119 0.950 . S
H1100 C1121 0.950 . S
H1101 C1124 0.950 . S
H1102 C1125 0.950 . S
H1103 C1127 0.975 . S
H1104 C1128 0.950 1_556 S
H1105 C1129 0.951 . S
H1106 C1131 0.951 . S
H1107 C1133 0.950 . S
H1108 C1134 0.950 . S
H1109 C1136 0.950 . S
H1110 C1139 0.950 . S
H1111 C1140 0.950 . S
H1112 C1142 0.950 1_554 S
H1113 C1143 0.950 . S
C1114 H1096 0.951 . S
C1114 C1115 1.366 . S
C1114 C1116 1.388 . S
C1115 C1114 1.366 . S
C1115 C1119 1.385 . S
C1116 H1097 0.951 . S
C1116 C1114 1.388 . S
C1116 C1117 1.366 . S
C1117 C1116 1.366 . S
C1117 C1118 1.414 . S
C1117 C1120 1.499 . S
C1118 H1098 0.950 . S
C1118 C1117 1.414 . S
C1118 C1119 1.374 . S
C1119 H1099 0.950 . S
C1119 C1115 1.385 . S
C1119 C1118 1.374 . S
C1120 C1117 1.499 . S
C1120 C1121 1.373 . S
C1120 C1122 1.389 . S
C1121 H1100 0.950 . S
C1121 C1120 1.373 . S
C1121 C1137 1.377 1_554 S
C1122 C1120 1.389 . S
C1122 C1123 1.524 . S
C1122 C1136 1.377 1_554 S
C1123 C1122 1.524 . S
C1123 C1124 1.397 . S
C1123 C1128 1.363 . S
C1124 H1101 0.950 . S
C1124 C1123 1.397 . S
C1124 C1125 1.334 . S
C1125 H1102 0.950 . S
C1125 C1124 1.334 . S
C1125 C1126 1.287 . S
C1126 C1125 1.287 . S
C1126 C1127 1.524 . S
C1126 H1145 0.913 . S
C1127 H1103 0.975 . S
C1127 C1126 1.524 . S
C1127 C1128 1.415 . S
C1128 H1104 0.950 1_554 S
C1128 C1123 1.363 . S
C1128 C1127 1.415 . S
C1129 H1105 0.951 . S
C1129 C1130 1.366 . S
C1129 C1131 1.388 . S
C1130 C1129 1.366 . S
C1130 C1134 1.385 . S
C1131 H1106 0.951 . S
C1131 C1129 1.388 . S
C1131 C1132 1.366 . S
C1132 C1131 1.366 . S
C1132 C1133 1.414 . S
C1132 C1135 1.499 . S
C1133 H1107 0.950 . S
C1133 C1132 1.414 . S
C1133 C1134 1.374 . S
C1134 H1108 0.950 . S
C1134 C1130 1.385 . S
C1134 C1133 1.374 . S
C1135 C1132 1.499 . S
C1135 C1136 1.373 . S
C1135 C1137 1.389 . S
C1136 H1109 0.950 . S
C1136 C1122 1.377 1_556 S
C1136 C1135 1.373 . S
C1137 C1121 1.377 1_556 S
C1137 C1135 1.389 . S
C1137 C1138 1.524 . S
C1138 C1137 1.524 . S
C1138 C1139 1.397 . S
C1138 C1143 1.363 1_556 S
C1139 H1110 0.950 . S
C1139 C1138 1.397 . S
C1139 C1140 1.334 . S
C1140 H1111 0.950 . S
C1140 C1139 1.334 . S
C1140 C1141 1.287 . S
C1141 C1140 1.287 . S
C1141 C1142 1.524 . S
C1141 H1144 0.999 . S
C1142 H1112 0.950 1_556 S
C1142 C1141 1.524 . S
C1142 C1143 1.415 1_556 S
C1143 H1113 0.950 . S
C1143 C1138 1.363 1_554 S
C1143 C1142 1.415 1_554 S
H1144 C1141 0.999 . S
H1145 C1126 0.913 . S
H1146 C1164 0.951 . S
H1147 C1166 0.951 1_455 S
H1148 C1168 0.959 . S
H1149 C1169 0.950 . S
H1150 C1171 0.950 . S
H1151 C1174 0.950 . S
H1152 C1175 0.950 . S
H1153 C1177 0.950 . S
H1154 C1178 0.950 . S
H1155 C1179 0.951 . S
H1156 C1181 0.951 . S
H1157 C1183 0.950 . S
H1158 C1184 0.950 . S
H1159 C1186 0.950 . S
H1160 C1189 0.950 . S
H1161 C1190 0.950 . S
H1162 C1192 0.950 . S
H1163 C1193 0.950 . S
C1164 H1146 0.951 . S
C1164 C1165 1.366 . S
C1164 C1166 1.388 . S
C1165 C1164 1.366 . S
C1165 C1169 1.385 . S
C1166 H1147 0.951 1_655 S
C1166 C1164 1.388 . S
C1166 C1167 1.366 1_655 S
C1167 C1166 1.366 1_455 S
C1167 C1168 1.414 1_455 S
C1167 C1170 1.499 . S
C1168 H1148 0.959 . S
C1168 C1167 1.414 1_655 S
C1168 C1169 1.374 . S
C1169 H1149 0.950 . S
C1169 C1165 1.385 . S
C1169 C1168 1.374 . S
C1170 C1167 1.499 . S
C1170 C1171 1.373 . S
C1170 C1172 1.389 . S
C1171 H1150 0.950 . S
C1171 C1170 1.373 . S
C1171 C1187 1.377 . S
C1172 C1170 1.389 . S
C1172 C1173 1.524 . S
C1172 C1186 1.377 . S
C1173 C1172 1.524 . S
C1173 C1174 1.397 1_455 S
C1173 C1178 1.363 . S
C1174 H1151 0.950 . S
C1174 C1173 1.397 1_655 S
C1174 C1175 1.334 . S
C1175 H1152 0.950 . S
C1175 C1174 1.334 . S
C1175 C1176 1.287 . S
C1176 C1175 1.287 . S
C1176 C1177 1.524 . S
C1176 H1195 0.913 . S
C1177 H1153 0.950 . S
C1177 C1176 1.524 . S
C1177 C1178 1.415 1_655 S
C1178 H1154 0.950 . S
C1178 C1173 1.363 . S
C1178 C1177 1.415 1_455 S
C1179 H1155 0.951 . S
C1179 C1180 1.366 . S
C1179 C1181 1.388 . S
C1180 C1179 1.366 . S
C1180 C1184 1.385 . S
C1181 H1156 0.951 . S
C1181 C1179 1.388 . S
C1181 C1182 1.366 . S
C1182 C1181 1.366 . S
C1182 C1183 1.414 . S
C1182 C1185 1.499 . S
C1183 H1157 0.950 . S
C1183 C1182 1.414 . S
C1183 C1184 1.374 . S
C1184 H1158 0.950 . S
C1184 C1180 1.385 . S
C1184 C1183 1.374 . S
C1185 C1182 1.499 . S
C1185 C1186 1.373 . S
C1185 C1187 1.389 . S
C1186 H1159 0.950 . S
C1186 C1172 1.377 . S
C1186 C1185 1.373 . S
C1187 C1171 1.377 . S
C1187 C1185 1.389 . S
C1187 C1188 1.524 . S
C1188 C1187 1.524 . S
C1188 C1189 1.397 . S
C1188 C1193 1.363 . S
C1189 H1160 0.950 . S
C1189 C1188 1.397 . S
C1189 C1190 1.334 . S
C1190 H1161 0.950 . S
C1190 C1189 1.334 . S
C1190 C1191 1.287 . S
C1191 C1190 1.287 . S
C1191 C1192 1.524 . S
C1191 H1194 0.999 . S
C1192 H1162 0.950 . S
C1192 C1191 1.524 . S
C1192 C1193 1.415 . S
C1193 H1163 0.950 . S
C1193 C1188 1.363 . S
C1193 C1192 1.415 . S
H1194 C1191 0.999 . S
H1195 C1176 0.913 . S
H1196 C1214 0.951 . S
H1197 C1216 0.951 . S
H1198 C1218 0.950 . S
H1199 C1219 0.950 . S
H1200 C1221 0.950 . S
H1201 C1224 0.950 . S
H1202 C1225 0.950 . S
H1203 C1227 0.950 . S
H1204 C1228 0.950 . S
H1205 C1229 0.951 . S
H1206 C1231 0.951 . S
H1207 C1233 0.950 . S
H1208 C1234 0.950 . S
H1209 C1236 0.950 . S
H1210 C1239 0.950 . S
H1211 C1240 0.950 . S
H1212 C1242 0.950 . S
H1213 C1243 0.950 . S
C1214 H1196 0.951 . S
C1214 C1215 1.366 . S
C1214 C1216 1.388 . S
C1215 C1214 1.366 . S
C1215 C1219 1.385 . S
C1216 H1197 0.951 . S
C1216 C1214 1.388 . S
C1216 C1217 1.366 . S
C1217 C1216 1.366 . S
C1217 C1218 1.414 . S
C1217 C1220 1.499 . S
C1218 H1198 0.950 . S
C1218 C1217 1.414 . S
C1218 C1219 1.374 . S
C1219 H1199 0.950 . S
C1219 C1215 1.385 . S
C1219 C1218 1.374 . S
C1220 C1217 1.499 . S
C1220 C1221 1.373 . S
C1220 C1222 1.389 . S
C1221 H1200 0.950 . S
C1221 C1220 1.373 . S
C1221 C1237 1.377 . S
C1222 C1220 1.389 . S
C1222 C1223 1.524 . S
C1222 C1236 1.377 . S
C1223 C1222 1.524 . S
C1223 C1224 1.397 . S
C1223 C1228 1.363 . S
C1224 H1201 0.950 . S
C1224 C1223 1.397 . S
C1224 C1225 1.334 . S
C1225 H1202 0.950 . S
C1225 C1224 1.334 . S
C1225 C1226 1.287 . S
C1226 C1225 1.287 . S
C1226 C1227 1.524 . S
C1226 H1245 0.913 . S
C1227 H1203 0.950 . S
C1227 C1226 1.524 . S
C1227 C1228 1.415 . S
C1228 H1204 0.950 . S
C1228 C1223 1.363 . S
C1228 C1227 1.415 . S
C1229 H1205 0.951 . S
C1229 C1230 1.366 . S
C1229 C1231 1.388 . S
C1230 C1229 1.366 . S
C1230 C1234 1.385 . S
C1231 H1206 0.951 . S
C1231 C1229 1.388 . S
C1231 C1232 1.366 . S
C1232 C1231 1.366 . S
C1232 C1233 1.414 . S
C1232 C1235 1.499 . S
C1233 H1207 0.950 . S
C1233 C1232 1.414 . S
C1233 C1234 1.374 . S
C1234 H1208 0.950 . S
C1234 C1230 1.385 . S
C1234 C1233 1.374 . S
C1235 C1232 1.499 . S
C1235 C1236 1.373 . S
C1235 C1237 1.389 . S
C1236 H1209 0.950 . S
C1236 C1222 1.377 . S
C1236 C1235 1.373 . S
C1237 C1221 1.377 . S
C1237 C1235 1.389 . S
C1237 C1238 1.524 . S
C1238 C1237 1.524 . S
C1238 C1239 1.397 . S
C1238 C1243 1.363 . S
C1239 H1210 0.950 . S
C1239 C1238 1.397 . S
C1239 C1240 1.334 . S
C1240 H1211 0.950 . S
C1240 C1239 1.334 . S
C1240 C1241 1.287 . S
C1241 C1240 1.287 . S
C1241 C1242 1.524 . S
C1241 H1244 0.999 . S
C1242 H1212 0.950 . S
C1242 C1241 1.524 . S
C1242 C1243 1.415 . S
C1243 H1213 0.950 . S
C1243 C1238 1.363 . S
C1243 C1242 1.415 . S
H1244 C1241 0.999 . S
H1245 C1226 0.913 . S
H1246 C1264 0.951 . S
H1247 C1266 0.951 . S
H1248 C1268 0.950 . S
H1249 C1269 0.950 . S
H1250 C1271 0.950 . S
H1251 C1274 0.950 1_565 S
H1252 C1275 0.950 . S
H1253 C1277 0.950 . S
H1254 C1278 0.950 . S
H1255 C1279 0.951 . S
H1256 C1281 0.951 . S
H1257 C1283 0.950 . S
H1258 C1284 0.950 . S
H1259 C1286 0.950 . S
H1260 C1289 0.950 . S
H1261 C1290 0.950 . S
H1262 C1292 0.950 . S
H1263 C1293 0.950 . S
C1264 H1246 0.951 . S
C1264 C1265 1.366 . S
C1264 C1266 1.388 . S
C1265 C1264 1.366 . S
C1265 C1269 1.385 . S
C1266 H1247 0.951 . S
C1266 C1264 1.388 . S
C1266 C1267 1.366 1_545 S
C1267 C1266 1.366 1_565 S
C1267 C1268 1.414 . S
C1267 C1270 1.499 . S
C1268 H1248 0.950 . S
C1268 C1267 1.414 . S
C1268 C1269 1.374 1_565 S
C1269 H1249 0.950 . S
C1269 C1265 1.385 . S
C1269 C1268 1.374 1_545 S
C1270 C1267 1.499 . S
C1270 C1271 1.373 . S
C1270 C1272 1.389 . S
C1271 H1250 0.950 . S
C1271 C1270 1.373 . S
C1271 C1287 1.377 . S
C1272 C1270 1.389 . S
C1272 C1273 1.524 1_565 S
C1272 C1286 1.377 . S
C1273 C1272 1.524 1_545 S
C1273 C1274 1.397 . S
C1273 C1278 1.363 . S
C1274 H1251 0.950 1_545 S
C1274 C1273 1.397 . S
C1274 C1275 1.334 . S
C1275 H1252 0.950 . S
C1275 C1274 1.334 . S
C1275 C1276 1.287 . S
C1276 C1275 1.287 . S
C1276 C1277 1.524 . S
C1276 H1295 0.913 . S
C1277 H1253 0.950 . S
C1277 C1276 1.524 . S
C1277 C1278 1.415 . S
C1278 H1254 0.950 . S
C1278 C1273 1.363 . S
C1278 C1277 1.415 . S
C1279 H1255 0.951 . S
C1279 C1280 1.366 . S
C1279 C1281 1.388 . S
C1280 C1279 1.366 . S
C1280 C1284 1.385 . S
C1281 H1256 0.951 . S
C1281 C1279 1.388 . S
C1281 C1282 1.366 . S
C1282 C1281 1.366 . S
C1282 C1283 1.414 . S
C1282 C1285 1.499 . S
C1283 H1257 0.950 . S
C1283 C1282 1.414 . S
C1283 C1284 1.374 . S
C1284 H1258 0.950 . S
C1284 C1280 1.385 . S
C1284 C1283 1.374 . S
C1285 C1282 1.499 . S
C1285 C1286 1.373 . S
C1285 C1287 1.389 . S
C1286 H1259 0.950 . S
C1286 C1272 1.377 . S
C1286 C1285 1.373 . S
C1287 C1271 1.377 . S
C1287 C1285 1.389 . S
C1287 C1288 1.524 . S
C1288 C1287 1.524 . S
C1288 C1289 1.397 . S
C1288 C1293 1.363 . S
C1289 H1260 0.950 . S
C1289 C1288 1.397 . S
C1289 C1290 1.334 . S
C1290 H1261 0.950 . S
C1290 C1289 1.334 . S
C1290 C1291 1.287 . S
C1291 C1290 1.287 . S
C1291 C1292 1.524 . S
C1291 H1294 0.999 . S
C1292 H1262 0.950 . S
C1292 C1291 1.524 . S
C1292 C1293 1.415 . S
C1293 H1263 0.950 . S
C1293 C1288 1.363 . S
C1293 C1292 1.415 . S
H1294 C1291 0.999 . S
H1295 C1276 0.913 . S
H1296 C1314 0.951 . S
H1297 C1316 0.951 . S
H1298 C1318 0.950 . S
H1299 C1319 0.950 . S
H1300 C1321 0.950 . S
H1301 C1324 0.950 . S
H1302 C1325 0.950 . S
H1303 C1327 0.950 . S
H1304 C1328 0.950 . S
H1305 C1329 0.951 . S
H1306 C1331 0.951 . S
H1307 C1333 0.950 . S
H1308 C1334 0.950 . S
H1309 C1336 0.950 . S
H1310 C1339 0.950 . S
H1311 C1340 0.950 . S
H1312 C1342 0.950 1_545 S
H1313 C1343 0.950 . S
C1314 H1296 0.951 . S
C1314 C1315 1.366 . S
C1314 C1316 1.388 1_545 S
C1315 C1314 1.366 . S
C1315 C1319 1.385 . S
C1316 H1297 0.951 . S
C1316 C1314 1.388 1_565 S
C1316 C1317 1.366 . S
C1317 C1316 1.366 . S
C1317 C1318 1.414 1_565 S
C1317 C1320 1.499 . S
C1318 H1298 0.950 . S
C1318 C1317 1.414 1_545 S
C1318 C1319 1.374 . S
C1319 H1299 0.950 . S
C1319 C1315 1.385 . S
C1319 C1318 1.374 . S
C1320 C1317 1.499 . S
C1320 C1321 1.373 1_554 S
C1320 C1322 1.389 . S
C1321 H1300 0.950 . S
C1321 C1320 1.373 1_556 S
C1321 C1337 1.377 . S
C1322 C1320 1.389 . S
C1322 C1323 1.524 . S
C1322 C1336 1.377 . S
C1323 C1322 1.524 . S
C1323 C1324 1.397 . S
C1323 C1328 1.363 . S
C1324 H1301 0.950 . S
C1324 C1323 1.397 . S
C1324 C1325 1.334 . S
C1325 H1302 0.950 . S
C1325 C1324 1.334 . S
C1325 C1326 1.287 . S
C1326 C1325 1.287 . S
C1326 C1327 1.524 . S
C1326 H1345 0.913 . S
C1327 H1303 0.950 . S
C1327 C1326 1.524 . S
C1327 C1328 1.415 . S
C1328 H1304 0.950 . S
C1328 C1323 1.363 . S
C1328 C1327 1.415 . S
C1329 H1305 0.951 . S
C1329 C1330 1.366 . S
C1329 C1331 1.388 . S
C1330 C1329 1.366 . S
C1330 C1334 1.385 . S
C1331 H1306 0.951 . S
C1331 C1329 1.388 . S
C1331 C1332 1.366 . S
C1332 C1331 1.366 . S
C1332 C1333 1.414 . S
C1332 C1335 1.499 . S
C1333 H1307 0.950 . S
C1333 C1332 1.414 . S
C1333 C1334 1.374 . S
C1334 H1308 0.950 . S
C1334 C1330 1.385 . S
C1334 C1333 1.374 . S
C1335 C1332 1.499 . S
C1335 C1336 1.373 1_556 S
C1335 C1337 1.389 . S
C1336 H1309 0.950 . S
C1336 C1322 1.377 . S
C1336 C1335 1.373 1_554 S
C1337 C1321 1.377 . S
C1337 C1335 1.389 . S
C1337 C1338 1.524 . S
C1338 C1337 1.524 . S
C1338 C1339 1.397 . S
C1338 C1343 1.363 . S
C1339 H1310 0.950 . S
C1339 C1338 1.397 . S
C1339 C1340 1.334 . S
C1340 H1311 0.950 . S
C1340 C1339 1.334 . S
C1340 C1341 1.287 . S
C1341 C1340 1.287 . S
C1341 C1342 1.524 . S
C1341 H1344 0.999 . S
C1342 H1312 0.950 1_565 S
C1342 C1341 1.524 . S
C1342 C1343 1.415 . S
C1343 H1313 0.950 . S
C1343 C1338 1.363 . S
C1343 C1342 1.415 . S
H1344 C1341 0.999 . S
H1345 C1326 0.913 . S
H1346 C1364 0.951 . S
H1347 C1366 0.951 . S
H1348 C1368 0.950 1_455 S
H1349 C1369 0.950 . S
H1350 C1371 0.950 . S
H1351 C1374 0.950 . S
H1352 C1375 0.950 . S
H1353 C1377 0.950 . S
H1354 C1378 0.950 1_455 S
H1355 C1379 0.951 . S
H1356 C1381 0.951 . S
H1357 C1383 0.950 . S
H1358 C1384 0.950 . S
H1359 C1386 0.950 . S
H1360 C1389 0.950 . S
H1361 C1390 0.950 . S
H1362 C1392 0.950 . S
H1363 C1393 0.950 . S
C1364 H1346 0.951 . S
C1364 C1365 1.366 . S
C1364 C1366 1.388 . S
C1365 C1364 1.366 . S
C1365 C1369 1.385 . S
C1366 H1347 0.951 . S
C1366 C1364 1.388 . S
C1366 C1367 1.366 1_655 S
C1367 C1366 1.366 1_455 S
C1367 C1368 1.414 1_455 S
C1367 C1370 1.499 . S
C1368 H1348 0.950 1_655 S
C1368 C1367 1.414 1_655 S
C1368 C1369 1.374 . S
C1369 H1349 0.950 . S
C1369 C1365 1.385 . S
C1369 C1368 1.374 . S
C1370 C1367 1.499 . S
C1370 C1371 1.373 . S
C1370 C1372 1.389 1_554 S
C1371 H1350 0.950 . S
C1371 C1370 1.373 . S
C1371 C1387 1.377 . S
C1372 C1370 1.389 1_556 S
C1372 C1373 1.524 1_455 S
C1372 C1386 1.377 . S
C1373 C1372 1.524 1_655 S
C1373 C1374 1.397 . S
C1373 C1378 1.363 . S
C1374 H1351 0.950 . S
C1374 C1373 1.397 . S
C1374 C1375 1.334 . S
C1375 H1352 0.950 . S
C1375 C1374 1.334 . S
C1375 C1376 1.287 . S
C1376 C1375 1.287 . S
C1376 C1377 1.524 . S
C1376 H1395 0.913 . S
C1377 H1353 0.950 . S
C1377 C1376 1.524 . S
C1377 C1378 1.415 . S
C1378 H1354 0.950 1_655 S
C1378 C1373 1.363 . S
C1378 C1377 1.415 . S
C1379 H1355 0.951 . S
C1379 C1380 1.366 . S
C1379 C1381 1.388 . S
C1380 C1379 1.366 . S
C1380 C1384 1.385 . S
C1381 H1356 0.951 . S
C1381 C1379 1.388 . S
C1381 C1382 1.366 . S
C1382 C1381 1.366 . S
C1382 C1383 1.414 . S
C1382 C1385 1.499 . S
C1383 H1357 0.950 . S
C1383 C1382 1.414 . S
C1383 C1384 1.374 . S
C1384 H1358 0.950 . S
C1384 C1380 1.385 . S
C1384 C1383 1.374 . S
C1385 C1382 1.499 . S
C1385 C1386 1.373 . S
C1385 C1387 1.389 1_556 S
C1386 H1359 0.950 . S
C1386 C1372 1.377 . S
C1386 C1385 1.373 . S
C1387 C1371 1.377 . S
C1387 C1385 1.389 1_554 S
C1387 C1388 1.524 . S
C1388 C1387 1.524 . S
C1388 C1389 1.397 . S
C1388 C1393 1.363 . S
C1389 H1360 0.950 . S
C1389 C1388 1.397 . S
C1389 C1390 1.334 . S
C1390 H1361 0.950 . S
C1390 C1389 1.334 . S
C1390 C1391 1.287 . S
C1391 C1390 1.287 . S
C1391 C1392 1.524 . S
C1391 H1394 0.999 . S
C1392 H1362 0.950 . S
C1392 C1391 1.524 . S
C1392 C1393 1.415 . S
C1393 H1363 0.950 . S
C1393 C1388 1.363 . S
C1393 C1392 1.415 . S
H1394 C1391 0.999 . S
H1395 C1376 0.913 . S
H1396 C1414 0.951 . S
H1397 C1416 0.951 . S
H1398 C1418 0.950 . S
H1399 C1419 0.950 . S
H1400 C1421 0.950 . S
H1401 C1424 0.950 . S
H1402 C1425 0.950 . S
H1403 C1427 0.950 . S
H1404 C1428 0.950 . S
H1405 C1429 0.951 . S
H1406 C1431 0.951 . S
H1407 C1433 0.950 . S
H1408 C1434 0.950 . S
H1409 C1436 0.950 . S
H1410 C1439 0.950 . S
H1411 C1440 0.950 . S
H1412 C1442 0.950 . S
H1413 C1443 0.950 . S
C1414 H1396 0.951 . S
C1414 C1415 1.366 . S
C1414 C1416 1.388 . S
C1415 C1414 1.366 . S
C1415 C1419 1.385 . S
C1416 H1397 0.951 . S
C1416 C1414 1.388 . S
C1416 C1417 1.366 . S
C1417 C1416 1.366 . S
C1417 C1418 1.414 . S
C1417 C1420 1.499 . S
C1418 H1398 0.950 . S
C1418 C1417 1.414 . S
C1418 C1419 1.374 . S
C1419 H1399 0.950 . S
C1419 C1415 1.385 . S
C1419 C1418 1.374 . S
C1420 C1417 1.499 . S
C1420 C1421 1.373 . S
C1420 C1422 1.389 1_556 S
C1421 H1400 0.950 . S
C1421 C1420 1.373 . S
C1421 C1437 1.377 . S
C1422 C1420 1.389 1_554 S
C1422 C1423 1.524 . S
C1422 C1436 1.377 . S
C1423 C1422 1.524 . S
C1423 C1424 1.397 . S
C1423 C1428 1.363 . S
C1424 H1401 0.950 . S
C1424 C1423 1.397 . S
C1424 C1425 1.334 . S
C1425 H1402 0.950 . S
C1425 C1424 1.334 . S
C1425 C1426 1.287 . S
C1426 C1425 1.287 . S
C1426 C1427 1.524 . S
C1426 H1445 0.913 . S
C1427 H1403 0.950 . S
C1427 C1426 1.524 . S
C1427 C1428 1.415 . S
C1428 H1404 0.950 . S
C1428 C1423 1.363 . S
C1428 C1427 1.415 . S
C1429 H1405 0.951 . S
C1429 C1430 1.366 . S
C1429 C1431 1.388 . S
C1430 C1429 1.366 . S
C1430 C1434 1.385 . S
C1431 H1406 0.951 . S
C1431 C1429 1.388 . S
C1431 C1432 1.366 . S
C1432 C1431 1.366 . S
C1432 C1433 1.414 . S
C1432 C1435 1.499 . S
C1433 H1407 0.950 . S
C1433 C1432 1.414 . S
C1433 C1434 1.374 . S
C1434 H1408 0.950 . S
C1434 C1430 1.385 . S
C1434 C1433 1.374 . S
C1435 C1432 1.499 . S
C1435 C1436 1.373 . S
C1435 C1437 1.389 1_554 S
C1436 H1409 0.950 . S
C1436 C1422 1.377 . S
C1436 C1435 1.373 . S
C1437 C1421 1.377 . S
C1437 C1435 1.389 1_556 S
C1437 C1438 1.524 . S
C1438 C1437 1.524 . S
C1438 C1439 1.397 . S
C1438 C1443 1.363 . S
C1439 H1410 0.950 . S
C1439 C1438 1.397 . S
C1439 C1440 1.334 . S
C1440 H1411 0.950 . S
C1440 C1439 1.334 . S
C1440 C1441 1.287 . S
C1441 C1440 1.287 . S
C1441 C1442 1.524 . S
C1441 H1444 0.999 . S
C1442 H1412 0.950 . S
C1442 C1441 1.524 . S
C1442 C1443 1.415 . S
C1443 H1413 0.950 . S
C1443 C1438 1.363 . S
C1443 C1442 1.415 . S
H1444 C1441 0.999 . S
H1445 C1426 0.913 . S
H1446 C1464 0.951 . S
H1447 C1466 0.951 . S
H1448 C1468 0.950 . S
H1449 C1469 0.950 . S
H1450 C1471 0.950 . S
H1451 C1474 0.950 . S
H1452 C1475 0.950 . S
H1453 C1477 0.950 . S
H1454 C1478 0.950 . S
H1455 C1479 0.951 . S
H1456 C1481 0.951 . S
H1457 C1483 0.950 . S
H1458 C1484 0.950 . S
H1459 C1486 0.950 . S
H1460 C1489 0.950 . S
H1461 C1490 0.950 . S
H1462 C1492 0.950 . S
H1463 C1493 0.950 . S
C1464 H1446 0.951 . S
C1464 C1465 1.366 . S
C1464 C1466 1.388 . S
C1465 C1464 1.366 . S
C1465 C1469 1.385 . S
C1466 H1447 0.951 . S
C1466 C1464 1.388 . S
C1466 C1467 1.366 1_455 S
C1467 C1466 1.366 1_655 S
C1467 C1468 1.414 . S
C1467 C1470 1.499 . S
C1468 H1448 0.950 . S
C1468 C1467 1.414 . S
C1468 C1469 1.374 1_655 S
C1469 H1449 0.950 . S
C1469 C1465 1.385 . S
C1469 C1468 1.374 1_455 S
C1470 C1467 1.499 . S
C1470 C1471 1.373 . S
C1470 C1472 1.389 . S
C1471 H1450 0.950 . S
C1471 C1470 1.373 . S
C1471 C1487 1.377 . S
C1472 C1470 1.389 . S
C1472 C1473 1.524 . S
C1472 C1486 1.377 . S
C1473 C1472 1.524 . S
C1473 C1474 1.397 . S
C1473 C1478 1.363 . S
C1474 H1451 0.950 . S
C1474 C1473 1.397 . S
C1474 C1475 1.334 . S
C1475 H1452 0.950 . S
C1475 C1474 1.334 . S
C1475 C1476 1.287 . S
C1476 C1475 1.287 . S
C1476 C1477 1.524 . S
C1476 H1495 0.913 . S
C1477 H1453 0.950 . S
C1477 C1476 1.524 . S
C1477 C1478 1.415 . S
C1478 H1454 0.950 . S
C1478 C1473 1.363 . S
C1478 C1477 1.415 . S
C1479 H1455 0.951 . S
C1479 C1480 1.366 . S
C1479 C1481 1.388 . S
C1480 C1479 1.366 . S
C1480 C1484 1.385 . S
C1481 H1456 0.951 . S
C1481 C1479 1.388 . S
C1481 C1482 1.366 . S
C1482 C1481 1.366 . S
C1482 C1483 1.414 . S
C1482 C1485 1.499 . S
C1483 H1457 0.950 . S
C1483 C1482 1.414 . S
C1483 C1484 1.374 . S
C1484 H1458 0.950 . S
C1484 C1480 1.385 . S
C1484 C1483 1.374 . S
C1485 C1482 1.499 . S
C1485 C1486 1.373 . S
C1485 C1487 1.389 . S
C1486 H1459 0.950 . S
C1486 C1472 1.377 . S
C1486 C1485 1.373 . S
C1487 C1471 1.377 . S
C1487 C1485 1.389 . S
C1487 C1488 1.524 . S
C1488 C1487 1.524 . S
C1488 C1489 1.397 . S
C1488 C1493 1.363 . S
C1489 H1460 0.950 . S
C1489 C1488 1.397 . S
C1489 C1490 1.334 . S
C1490 H1461 0.950 . S
C1490 C1489 1.334 . S
C1490 C1491 1.287 . S
C1491 C1490 1.287 . S
C1491 C1492 1.524 . S
C1491 H1494 0.999 . S
C1492 H1462 0.950 . S
C1492 C1491 1.524 . S
C1492 C1493 1.415 . S
C1493 H1463 0.950 . S
C1493 C1488 1.363 . S
C1493 C1492 1.415 . S
H1494 C1491 0.999 . S
H1495 C1476 0.913 . S
H1496 C1514 0.951 . S
H1497 C1516 0.951 . S
H1498 C1518 0.950 . S
H1499 C1519 0.950 . S
H1500 C1521 0.950 . S
H1501 C1524 0.950 . S
H1502 C1525 0.950 . S
H1503 C1527 0.950 . S
H1504 C1528 0.950 . S
H1505 C1529 0.951 . S
H1506 C1531 0.951 . S
H1507 C1533 0.950 . S
H1508 C1534 0.950 . S
H1509 C1536 0.950 . S
H1510 C1539 0.950 . S
H1511 C1540 0.950 . S
H1512 C1542 0.950 . S
H1513 C1543 0.950 . S
C1514 H1496 0.951 . S
C1514 C1515 1.366 . S
C1514 C1516 1.388 . S
C1515 C1514 1.366 . S
C1515 C1519 1.385 . S
C1516 H1497 0.951 . S
C1516 C1514 1.388 . S
C1516 C1517 1.366 . S
C1517 C1516 1.366 . S
C1517 C1518 1.414 . S
C1517 C1520 1.499 . S
C1518 H1498 0.950 . S
C1518 C1517 1.414 . S
C1518 C1519 1.374 . S
C1519 H1499 0.950 . S
C1519 C1515 1.385 . S
C1519 C1518 1.374 . S
C1520 C1517 1.499 . S
C1520 C1521 1.373 . S
C1520 C1522 1.389 . S
C1521 H1500 0.950 . S
C1521 C1520 1.373 . S
C1521 C1537 1.377 . S
C1522 C1520 1.389 . S
C1522 C1523 1.524 . S
C1522 C1536 1.377 . S
C1523 C1522 1.524 . S
C1523 C1524 1.397 . S
C1523 C1528 1.363 . S
C1524 H1501 0.950 . S
C1524 C1523 1.397 . S
C1524 C1525 1.334 . S
C1525 H1502 0.950 . S
C1525 C1524 1.334 . S
C1525 C1526 1.287 . S
C1526 C1525 1.287 . S
C1526 C1527 1.524 . S
C1526 H1545 0.913 . S
C1527 H1503 0.950 . S
C1527 C1526 1.524 . S
C1527 C1528 1.415 . S
C1528 H1504 0.950 . S
C1528 C1523 1.363 . S
C1528 C1527 1.415 . S
C1529 H1505 0.951 . S
C1529 C1530 1.366 . S
C1529 C1531 1.388 . S
C1530 C1529 1.366 . S
C1530 C1534 1.385 . S
C1531 H1506 0.951 . S
C1531 C1529 1.388 . S
C1531 C1532 1.366 . S
C1532 C1531 1.366 . S
C1532 C1533 1.414 . S
C1532 C1535 1.499 . S
C1533 H1507 0.950 . S
C1533 C1532 1.414 . S
C1533 C1534 1.374 . S
C1534 H1508 0.950 . S
C1534 C1530 1.385 . S
C1534 C1533 1.374 . S
C1535 C1532 1.499 . S
C1535 C1536 1.373 . S
C1535 C1537 1.389 . S
C1536 H1509 0.950 . S
C1536 C1522 1.377 . S
C1536 C1535 1.373 . S
C1537 C1521 1.377 . S
C1537 C1535 1.389 . S
C1537 C1538 1.524 . S
C1538 C1537 1.524 . S
C1538 C1539 1.397 . S
C1538 C1543 1.363 . S
C1539 H1510 0.950 . S
C1539 C1538 1.397 . S
C1539 C1540 1.334 . S
C1540 H1511 0.950 . S
C1540 C1539 1.334 . S
C1540 C1541 1.287 . S
C1541 C1540 1.287 . S
C1541 C1542 1.524 . S
C1541 H1544 0.999 . S
C1542 H1512 0.950 . S
C1542 C1541 1.524 . S
C1542 C1543 1.415 . S
C1543 H1513 0.950 . S
C1543 C1538 1.363 . S
C1543 C1542 1.415 . S
H1544 C1541 0.999 . S
H1545 C1526 0.913 . S
H1546 C1564 0.951 . S
H1547 C1566 0.951 . S
H1548 C1568 0.950 . S
H1549 C1569 0.950 . S
H1550 C1571 0.950 . S
H1551 C1574 0.950 . S
H1552 C1575 0.950 . S
H1553 C1577 0.950 . S
H1554 C1578 0.950 . S
H1555 C1579 0.951 . S
H1556 C1581 0.951 . S
H1557 C1583 0.950 . S
H1558 C1584 0.950 . S
H1559 C1586 0.950 . S
H1560 C1589 0.950 . S
H1561 C1590 0.950 . S
H1562 C1592 0.950 . S
H1563 C1593 0.950 . S
C1564 H1546 0.951 . S
C1564 C1565 1.366 . S
C1564 C1566 1.388 . S
C1565 C1564 1.366 . S
C1565 C1569 1.385 . S
C1566 H1547 0.951 . S
C1566 C1564 1.388 . S
C1566 C1567 1.366 . S
C1567 C1566 1.366 . S
C1567 C1568 1.414 . S
C1567 C1570 1.499 . S
C1568 H1548 0.950 . S
C1568 C1567 1.414 . S
C1568 C1569 1.374 . S
C1569 H1549 0.950 . S
C1569 C1565 1.385 . S
C1569 C1568 1.374 . S
C1570 C1567 1.499 . S
C1570 C1571 1.373 . S
C1570 C1572 1.389 . S
C1571 H1550 0.950 . S
C1571 C1570 1.373 . S
C1571 C1587 1.377 . S
C1572 C1570 1.389 . S
C1572 C1573 1.524 . S
C1572 C1586 1.377 . S
C1573 C1572 1.524 . S
C1573 C1574 1.397 . S
C1573 C1578 1.363 . S
C1574 H1551 0.950 . S
C1574 C1573 1.397 . S
C1574 C1575 1.334 . S
C1575 H1552 0.950 . S
C1575 C1574 1.334 . S
C1575 C1576 1.287 . S
C1576 C1575 1.287 . S
C1576 C1577 1.524 . S
C1576 H1595 0.913 . S
C1577 H1553 0.950 . S
C1577 C1576 1.524 . S
C1577 C1578 1.415 . S
C1578 H1554 0.950 . S
C1578 C1573 1.363 . S
C1578 C1577 1.415 . S
C1579 H1555 0.951 . S
C1579 C1580 1.366 . S
C1579 C1581 1.388 1_565 S
C1580 C1579 1.366 . S
C1580 C1584 1.385 . S
C1581 H1556 0.951 . S
C1581 C1579 1.388 1_545 S
C1581 C1582 1.366 . S
C1582 C1581 1.366 . S
C1582 C1583 1.414 1_545 S
C1582 C1585 1.499 . S
C1583 H1557 0.950 . S
C1583 C1582 1.414 1_565 S
C1583 C1584 1.374 . S
C1584 H1558 0.950 . S
C1584 C1580 1.385 . S
C1584 C1583 1.374 . S
C1585 C1582 1.499 . S
C1585 C1586 1.373 . S
C1585 C1587 1.389 . S
C1586 H1559 0.950 . S
C1586 C1572 1.377 . S
C1586 C1585 1.373 . S
C1587 C1571 1.377 . S
C1587 C1585 1.389 . S
C1587 C1588 1.524 . S
C1588 C1587 1.524 . S
C1588 C1589 1.397 . S
C1588 C1593 1.363 . S
C1589 H1560 0.950 . S
C1589 C1588 1.397 . S
C1589 C1590 1.334 . S
C1590 H1561 0.950 . S
C1590 C1589 1.334 . S
C1590 C1591 1.287 . S
C1591 C1590 1.287 . S
C1591 C1592 1.524 . S
C1591 H1594 0.999 . S
C1592 H1562 0.950 . S
C1592 C1591 1.524 . S
C1592 C1593 1.415 . S
C1593 H1563 0.950 . S
C1593 C1588 1.363 . S
C1593 C1592 1.415 . S
H1594 C1591 0.999 . S
H1595 C1576 0.913 . S
H1596 C1614 0.951 . S
H1597 C1616 0.951 . S
H1598 C1618 0.950 . S
H1599 C1619 0.950 . S
H1600 C1621 0.950 . S
H1601 C1624 0.950 . S
H1602 C1625 0.950 . S
H1603 C1627 0.950 . S
H1604 C1628 0.950 . S
H1605 C1629 0.951 . S
H1606 C1631 0.951 . S
H1607 C1633 0.950 . S
H1608 C1634 0.950 . S
H1609 C1636 0.950 . S
H1610 C1639 0.950 . S
H1611 C1640 0.950 . S
H1612 C1642 0.950 . S
H1613 C1643 0.950 . S
C1614 H1596 0.951 . S
C1614 C1615 1.366 . S
C1614 C1616 1.388 . S
C1615 C1614 1.366 . S
C1615 C1619 1.385 . S
C1616 H1597 0.951 . S
C1616 C1614 1.388 . S
C1616 C1617 1.366 . S
C1617 C1616 1.366 . S
C1617 C1618 1.414 . S
C1617 C1620 1.499 . S
C1618 H1598 0.950 . S
C1618 C1617 1.414 . S
C1618 C1619 1.374 . S
C1619 H1599 0.950 . S
C1619 C1615 1.385 . S
C1619 C1618 1.374 . S
C1620 C1617 1.499 . S
C1620 C1621 1.373 . S
C1620 C1622 1.389 . S
C1621 H1600 0.950 . S
C1621 C1620 1.373 . S
C1621 C1637 1.377 . S
C1622 C1620 1.389 . S
C1622 C1623 1.524 . S
C1622 C1636 1.377 . S
C1623 C1622 1.524 . S
C1623 C1624 1.397 . S
C1623 C1628 1.363 . S
C1624 H1601 0.950 . S
C1624 C1623 1.397 . S
C1624 C1625 1.334 . S
C1625 H1602 0.950 . S
C1625 C1624 1.334 . S
C1625 C1626 1.287 . S
C1626 C1625 1.287 . S
C1626 C1627 1.524 . S
C1626 H1645 0.913 . S
C1627 H1603 0.950 . S
C1627 C1626 1.524 . S
C1627 C1628 1.415 . S
C1628 H1604 0.950 . S
C1628 C1623 1.363 . S
C1628 C1627 1.415 . S
C1629 H1605 0.951 . S
C1629 C1630 1.366 . S
C1629 C1631 1.388 . S
C1630 C1629 1.366 . S
C1630 C1634 1.385 . S
C1631 H1606 0.951 . S
C1631 C1629 1.388 . S
C1631 C1632 1.366 . S
C1632 C1631 1.366 . S
C1632 C1633 1.414 . S
C1632 C1635 1.499 . S
C1633 H1607 0.950 . S
C1633 C1632 1.414 . S
C1633 C1634 1.374 . S
C1634 H1608 0.950 . S
C1634 C1630 1.385 . S
C1634 C1633 1.374 . S
C1635 C1632 1.499 . S
C1635 C1636 1.373 . S
C1635 C1637 1.389 . S
C1636 H1609 0.950 . S
C1636 C1622 1.377 . S
C1636 C1635 1.373 . S
C1637 C1621 1.377 . S
C1637 C1635 1.389 . S
C1637 C1638 1.524 . S
C1638 C1637 1.524 . S
C1638 C1639 1.397 . S
C1638 C1643 1.363 . S
C1639 H1610 0.950 . S
C1639 C1638 1.397 . S
C1639 C1640 1.334 . S
C1640 H1611 0.950 . S
C1640 C1639 1.334 . S
C1640 C1641 1.287 . S
C1641 C1640 1.287 . S
C1641 C1642 1.524 . S
C1641 H1644 0.999 . S
C1642 H1612 0.950 . S
C1642 C1641 1.524 . S
C1642 C1643 1.415 . S
C1643 H1613 0.950 . S
C1643 C1638 1.363 . S
C1643 C1642 1.415 . S
H1644 C1641 0.999 . S
H1645 C1626 0.913 . S
H1646 C1664 0.951 . S
H1647 C1666 0.951 . S
H1648 C1668 0.950 . S
H1649 C1669 0.950 . S
H1650 C1671 0.950 . S
H1651 C1674 0.950 . S
H1652 C1675 0.950 . S
H1653 C1677 0.950 . S
H1654 C1678 0.950 . S
H1655 C1679 0.951 . S
H1656 C1681 0.951 . S
H1657 C1683 0.950 . S
H1658 C1684 0.950 . S
H1659 C1686 0.950 . S
H1660 C1689 0.950 . S
H1661 C1690 0.950 . S
H1662 C1692 0.950 . S
H1663 C1693 0.950 . S
C1664 H1646 0.951 . S
C1664 C1665 1.366 . S
C1664 C1666 1.388 . S
C1665 C1664 1.366 . S
C1665 C1669 1.385 . S
C1666 H1647 0.951 . S
C1666 C1664 1.388 . S
C1666 C1667 1.366 . S
C1667 C1666 1.366 . S
C1667 C1668 1.414 . S
C1667 C1670 1.499 . S
C1668 H1648 0.950 . S
C1668 C1667 1.414 . S
C1668 C1669 1.374 . S
C1669 H1649 0.950 . S
C1669 C1665 1.385 . S
C1669 C1668 1.374 . S
C1670 C1667 1.499 . S
C1670 C1671 1.373 1_545 S
C1670 C1672 1.389 . S
C1671 H1650 0.950 . S
C1671 C1670 1.373 1_565 S
C1671 C1687 1.377 . S
C1672 C1670 1.389 . S
C1672 C1673 1.524 . S
C1672 C1686 1.377 . S
C1673 C1672 1.524 . S
C1673 C1674 1.397 . S
C1673 C1678 1.363 . S
C1674 H1651 0.950 . S
C1674 C1673 1.397 . S
C1674 C1675 1.334 . S
C1675 H1652 0.950 . S
C1675 C1674 1.334 . S
C1675 C1676 1.287 . S
C1676 C1675 1.287 . S
C1676 C1677 1.524 . S
C1676 H1695 0.913 . S
C1677 H1653 0.950 . S
C1677 C1676 1.524 . S
C1677 C1678 1.415 . S
C1678 H1654 0.950 . S
C1678 C1673 1.363 . S
C1678 C1677 1.415 . S
C1679 H1655 0.951 . S
C1679 C1680 1.366 . S
C1679 C1681 1.388 . S
C1680 C1679 1.366 . S
C1680 C1684 1.385 . S
C1681 H1656 0.951 . S
C1681 C1679 1.388 . S
C1681 C1682 1.366 . S
C1682 C1681 1.366 . S
C1682 C1683 1.414 . S
C1682 C1685 1.499 . S
C1683 H1657 0.950 . S
C1683 C1682 1.414 . S
C1683 C1684 1.374 . S
C1684 H1658 0.950 . S
C1684 C1680 1.385 . S
C1684 C1683 1.374 . S
C1685 C1682 1.499 . S
C1685 C1686 1.373 1_565 S
C1685 C1687 1.389 . S
C1686 H1659 0.950 . S
C1686 C1672 1.377 . S
C1686 C1685 1.373 1_545 S
C1687 C1671 1.377 . S
C1687 C1685 1.389 . S
C1687 C1688 1.524 . S
C1688 C1687 1.524 . S
C1688 C1689 1.397 . S
C1688 C1693 1.363 . S
C1689 H1660 0.950 . S
C1689 C1688 1.397 . S
C1689 C1690 1.334 . S
C1690 H1661 0.950 . S
C1690 C1689 1.334 . S
C1690 C1691 1.287 . S
C1691 C1690 1.287 . S
C1691 C1692 1.524 . S
C1691 H1694 0.999 . S
C1692 H1662 0.950 . S
C1692 C1691 1.524 . S
C1692 C1693 1.415 . S
C1693 H1663 0.950 . S
C1693 C1688 1.363 . S
C1693 C1692 1.415 . S
H1694 C1691 0.999 . S
H1695 C1676 0.913 . S
H1696 C1714 0.951 . S
H1697 C1716 0.951 . S
H1698 C1718 0.950 . S
H1699 C1719 0.950 . S
H1700 C1721 0.950 . S
H1701 C1724 0.950 . S
H1702 C1725 0.950 . S
H1703 C1727 0.950 . S
H1704 C1728 0.950 1_455 S
H1705 C1729 0.951 . S
H1706 C1731 0.951 . S
H1707 C1733 0.950 . S
H1708 C1734 0.950 . S
H1709 C1736 0.950 . S
H1710 C1739 0.950 . S
H1711 C1740 0.950 . S
H1712 C1742 0.950 . S
H1713 C1743 0.950 1_655 S
C1714 H1696 0.951 . S
C1714 C1715 1.366 . S
C1714 C1716 1.388 . S
C1715 C1714 1.366 . S
C1715 C1719 1.385 . S
C1716 H1697 0.951 . S
C1716 C1714 1.388 . S
C1716 C1717 1.366 . S
C1717 C1716 1.366 . S
C1717 C1718 1.414 . S
C1717 C1720 1.499 . S
C1718 H1698 0.950 . S
C1718 C1717 1.414 . S
C1718 C1719 1.374 . S
C1719 H1699 0.950 . S
C1719 C1715 1.385 . S
C1719 C1718 1.374 . S
C1720 C1717 1.499 . S
C1720 C1721 1.373 . S
C1720 C1722 1.389 . S
C1721 H1700 0.950 . S
C1721 C1720 1.373 . S
C1721 C1737 1.377 1_655 S
C1722 C1720 1.389 . S
C1722 C1723 1.524 . S
C1722 C1736 1.377 1_655 S
C1723 C1722 1.524 . S
C1723 C1724 1.397 . S
C1723 C1728 1.363 . S
C1724 H1701 0.950 . S
C1724 C1723 1.397 . S
C1724 C1725 1.334 . S
C1725 H1702 0.950 . S
C1725 C1724 1.334 . S
C1725 C1726 1.287 . S
C1726 C1725 1.287 . S
C1726 C1727 1.524 . S
C1726 H1745 0.913 . S
C1727 H1703 0.950 . S
C1727 C1726 1.524 . S
C1727 C1728 1.415 . S
C1728 H1704 0.950 1_655 S
C1728 C1723 1.363 . S
C1728 C1727 1.415 . S
C1729 H1705 0.951 . S
C1729 C1730 1.366 . S
C1729 C1731 1.388 . S
C1730 C1729 1.366 . S
C1730 C1734 1.385 . S
C1731 H1706 0.951 . S
C1731 C1729 1.388 . S
C1731 C1732 1.366 . S
C1732 C1731 1.366 . S
C1732 C1733 1.414 . S
C1732 C1735 1.499 . S
C1733 H1707 0.950 . S
C1733 C1732 1.414 . S
C1733 C1734 1.374 . S
C1734 H1708 0.950 . S
C1734 C1730 1.385 . S
C1734 C1733 1.374 . S
C1735 C1732 1.499 . S
C1735 C1736 1.373 . S
C1735 C1737 1.389 . S
C1736 H1709 0.950 . S
C1736 C1722 1.377 1_455 S
C1736 C1735 1.373 . S
C1737 C1721 1.377 1_455 S
C1737 C1735 1.389 . S
C1737 C1738 1.524 . S
C1738 C1737 1.524 . S
C1738 C1739 1.397 . S
C1738 C1743 1.363 . S
C1739 H1710 0.950 . S
C1739 C1738 1.397 . S
C1739 C1740 1.334 . S
C1740 H1711 0.950 . S
C1740 C1739 1.334 . S
C1740 C1741 1.287 . S
C1741 C1740 1.287 . S
C1741 C1742 1.524 . S
C1741 H1744 0.999 . S
C1742 H1712 0.950 . S
C1742 C1741 1.524 . S
C1742 C1743 1.415 . S
C1743 H1713 0.950 1_455 S
C1743 C1738 1.363 . S
C1743 C1742 1.415 . S
H1744 C1741 0.999 . S
H1745 C1726 0.913 . S
H1746 C1764 0.951 . S
H1747 C1766 0.951 . S
H1748 C1768 0.950 . S
H1749 C1769 0.950 . S
H1750 C1771 0.950 . S
H1751 C1774 0.950 . S
H1752 C1775 0.950 . S
H1753 C1777 0.950 . S
H1754 C1778 0.950 . S
H1755 C1779 0.951 . S
H1756 C1781 0.951 . S
H1757 C1783 0.950 . S
H1758 C1784 0.950 . S
H1759 C1786 0.950 . S
H1760 C1789 0.950 . S
H1761 C1790 0.950 . S
H1762 C1792 0.950 . S
H1763 C1793 0.950 . S
C1764 H1746 0.951 . S
C1764 C1765 1.366 . S
C1764 C1766 1.388 . S
C1765 C1764 1.366 . S
C1765 C1769 1.385 . S
C1766 H1747 0.951 . S
C1766 C1764 1.388 . S
C1766 C1767 1.366 . S
C1767 C1766 1.366 . S
C1767 C1768 1.414 . S
C1767 C1770 1.499 . S
C1768 H1748 0.950 . S
C1768 C1767 1.414 . S
C1768 C1769 1.374 . S
C1769 H1749 0.950 . S
C1769 C1765 1.385 . S
C1769 C1768 1.374 . S
C1770 C1767 1.499 . S
C1770 C1771 1.373 . S
C1770 C1772 1.389 . S
C1771 H1750 0.950 . S
C1771 C1770 1.373 . S
C1771 C1787 1.377 . S
C1772 C1770 1.389 . S
C1772 C1773 1.524 . S
C1772 C1786 1.377 . S
C1773 C1772 1.524 . S
C1773 C1774 1.397 . S
C1773 C1778 1.363 . S
C1774 H1751 0.950 . S
C1774 C1773 1.397 . S
C1774 C1775 1.334 . S
C1775 H1752 0.950 . S
C1775 C1774 1.334 . S
C1775 C1776 1.287 . S
C1776 C1775 1.287 . S
C1776 C1777 1.524 . S
C1776 H1795 0.913 . S
C1777 H1753 0.950 . S
C1777 C1776 1.524 . S
C1777 C1778 1.415 . S
C1778 H1754 0.950 . S
C1778 C1773 1.363 . S
C1778 C1777 1.415 . S
C1779 H1755 0.951 . S
C1779 C1780 1.366 . S
C1779 C1781 1.388 . S
C1780 C1779 1.366 . S
C1780 C1784 1.385 . S
C1781 H1756 0.951 . S
C1781 C1779 1.388 . S
C1781 C1782 1.366 . S
C1782 C1781 1.366 . S
C1782 C1783 1.414 . S
C1782 C1785 1.499 . S
C1783 H1757 0.950 . S
C1783 C1782 1.414 . S
C1783 C1784 1.374 . S
C1784 H1758 0.950 . S
C1784 C1780 1.385 . S
C1784 C1783 1.374 . S
C1785 C1782 1.499 . S
C1785 C1786 1.373 . S
C1785 C1787 1.389 . S
C1786 H1759 0.950 . S
C1786 C1772 1.377 . S
C1786 C1785 1.373 . S
C1787 C1771 1.377 . S
C1787 C1785 1.389 . S
C1787 C1788 1.524 . S
C1788 C1787 1.524 . S
C1788 C1789 1.397 . S
C1788 C1793 1.363 . S
C1789 H1760 0.950 . S
C1789 C1788 1.397 . S
C1789 C1790 1.334 . S
C1790 H1761 0.950 . S
C1790 C1789 1.334 . S
C1790 C1791 1.287 . S
C1791 C1790 1.287 . S
C1791 C1792 1.524 . S
C1791 H1794 0.999 . S
C1792 H1762 0.950 . S
C1792 C1791 1.524 . S
C1792 C1793 1.415 . S
C1793 H1763 0.950 . S
C1793 C1788 1.363 . S
C1793 C1792 1.415 . S
H1794 C1791 0.999 . S
H1795 C1776 0.913 . S
H1796 C1814 0.951 . S
H1797 C1816 0.951 . S
H1798 C1818 0.950 . S
H1799 C1819 0.950 . S
H1800 C1821 0.950 . S
H1801 C1824 0.950 . S
H1802 C1825 0.950 . S
H1803 C1827 0.950 . S
H1804 C1828 0.950 . S
H1805 C1829 0.951 . S
H1806 C1831 0.951 . S
H1807 C1833 0.950 . S
H1808 C1834 0.950 . S
H1809 C1836 0.950 . S
H1810 C1839 0.950 . S
H1811 C1840 0.950 . S
H1812 C1842 0.950 . S
H1813 C1843 0.950 . S
C1814 H1796 0.951 . S
C1814 C1815 1.366 . S
C1814 C1816 1.388 . S
C1815 C1814 1.366 . S
C1815 C1819 1.385 . S
C1816 H1797 0.951 . S
C1816 C1814 1.388 . S
C1816 C1817 1.366 . S
C1817 C1816 1.366 . S
C1817 C1818 1.414 . S
C1817 C1820 1.499 . S
C1818 H1798 0.950 . S
C1818 C1817 1.414 . S
C1818 C1819 1.374 . S
C1819 H1799 0.950 . S
C1819 C1815 1.385 . S
C1819 C1818 1.374 . S
C1820 C1817 1.499 . S
C1820 C1821 1.373 . S
C1820 C1822 1.389 . S
C1821 H1800 0.950 . S
C1821 C1820 1.373 . S
C1821 C1837 1.377 1_565 S
C1822 C1820 1.389 . S
C1822 C1823 1.524 . S
C1822 C1836 1.377 1_565 S
C1823 C1822 1.524 . S
C1823 C1824 1.397 . S
C1823 C1828 1.363 . S
C1824 H1801 0.950 . S
C1824 C1823 1.397 . S
C1824 C1825 1.334 . S
C1825 H1802 0.950 . S
C1825 C1824 1.334 . S
C1825 C1826 1.287 . S
C1826 C1825 1.287 . S
C1826 C1827 1.524 . S
C1826 H1845 0.913 . S
C1827 H1803 0.950 . S
C1827 C1826 1.524 . S
C1827 C1828 1.415 . S
C1828 H1804 0.950 . S
C1828 C1823 1.363 . S
C1828 C1827 1.415 . S
C1829 H1805 0.951 . S
C1829 C1830 1.366 . S
C1829 C1831 1.388 . S
C1830 C1829 1.366 . S
C1830 C1834 1.385 . S
C1831 H1806 0.951 . S
C1831 C1829 1.388 . S
C1831 C1832 1.366 . S
C1832 C1831 1.366 . S
C1832 C1833 1.414 . S
C1832 C1835 1.499 . S
C1833 H1807 0.950 . S
C1833 C1832 1.414 . S
C1833 C1834 1.374 . S
C1834 H1808 0.950 . S
C1834 C1830 1.385 . S
C1834 C1833 1.374 . S
C1835 C1832 1.499 . S
C1835 C1836 1.373 . S
C1835 C1837 1.389 . S
C1836 H1809 0.950 . S
C1836 C1822 1.377 1_545 S
C1836 C1835 1.373 . S
C1837 C1821 1.377 1_545 S
C1837 C1835 1.389 . S
C1837 C1838 1.524 . S
C1838 C1837 1.524 . S
C1838 C1839 1.397 . S
C1838 C1843 1.363 . S
C1839 H1810 0.950 . S
C1839 C1838 1.397 . S
C1839 C1840 1.334 . S
C1840 H1811 0.950 . S
C1840 C1839 1.334 . S
C1840 C1841 1.287 . S
C1841 C1840 1.287 . S
C1841 C1842 1.524 . S
C1841 H1844 0.999 . S
C1842 H1812 0.950 . S
C1842 C1841 1.524 . S
C1842 C1843 1.415 . S
C1843 H1813 0.950 . S
C1843 C1838 1.363 . S
C1843 C1842 1.415 . S
H1844 C1841 0.999 . S
H1845 C1826 0.913 . S
H1846 C1864 0.951 . S
H1847 C1866 0.951 . S
H1848 C1868 0.950 . S
H1849 C1869 0.950 . S
H1850 C1871 0.950 . S
H1851 C1874 0.950 . S
H1852 C1875 0.950 . S
H1853 C1877 0.950 . S
H1854 C1878 0.950 . S
H1855 C1879 0.951 . S
H1856 C1881 0.951 . S
H1857 C1883 0.950 . S
H1858 C1884 0.950 . S
H1859 C1886 0.950 . S
H1860 C1889 0.950 . S
H1861 C1890 0.950 . S
H1862 C1892 0.950 . S
H1863 C1893 0.950 . S
C1864 H1846 0.951 . S
C1864 C1865 1.366 . S
C1864 C1866 1.388 . S
C1865 C1864 1.366 . S
C1865 C1869 1.385 . S
C1866 H1847 0.951 . S
C1866 C1864 1.388 . S
C1866 C1867 1.366 . S
C1867 C1866 1.366 . S
C1867 C1868 1.414 . S
C1867 C1870 1.499 . S
C1868 H1848 0.950 . S
C1868 C1867 1.414 . S
C1868 C1869 1.374 . S
C1869 H1849 0.950 . S
C1869 C1865 1.385 . S
C1869 C1868 1.374 . S
C1870 C1867 1.499 . S
C1870 C1871 1.373 . S
C1870 C1872 1.389 1_455 S
C1871 H1850 0.950 . S
C1871 C1870 1.373 . S
C1871 C1887 1.377 . S
C1872 C1870 1.389 1_655 S
C1872 C1873 1.524 . S
C1872 C1886 1.377 . S
C1873 C1872 1.524 . S
C1873 C1874 1.397 . S
C1873 C1878 1.363 . S
C1874 H1851 0.950 . S
C1874 C1873 1.397 . S
C1874 C1875 1.334 . S
C1875 H1852 0.950 . S
C1875 C1874 1.334 . S
C1875 C1876 1.287 . S
C1876 C1875 1.287 . S
C1876 C1877 1.524 . S
C1876 H1895 0.913 . S
C1877 H1853 0.950 . S
C1877 C1876 1.524 . S
C1877 C1878 1.415 . S
C1878 H1854 0.950 . S
C1878 C1873 1.363 . S
C1878 C1877 1.415 . S
C1879 H1855 0.951 . S
C1879 C1880 1.366 . S
C1879 C1881 1.388 . S
C1880 C1879 1.366 . S
C1880 C1884 1.385 . S
C1881 H1856 0.951 . S
C1881 C1879 1.388 . S
C1881 C1882 1.366 . S
C1882 C1881 1.366 . S
C1882 C1883 1.414 . S
C1882 C1885 1.499 . S
C1883 H1857 0.950 . S
C1883 C1882 1.414 . S
C1883 C1884 1.374 . S
C1884 H1858 0.950 . S
C1884 C1880 1.385 . S
C1884 C1883 1.374 . S
C1885 C1882 1.499 . S
C1885 C1886 1.373 . S
C1885 C1887 1.389 1_655 S
C1886 H1859 0.950 . S
C1886 C1872 1.377 . S
C1886 C1885 1.373 . S
C1887 C1871 1.377 . S
C1887 C1885 1.389 1_455 S
C1887 C1888 1.524 . S
C1888 C1887 1.524 . S
C1888 C1889 1.397 . S
C1888 C1893 1.363 . S
C1889 H1860 0.950 . S
C1889 C1888 1.397 . S
C1889 C1890 1.334 . S
C1890 H1861 0.950 . S
C1890 C1889 1.334 . S
C1890 C1891 1.287 . S
C1891 C1890 1.287 . S
C1891 C1892 1.524 . S
C1891 H1894 0.999 . S
C1892 H1862 0.950 . S
C1892 C1891 1.524 . S
C1892 C1893 1.415 . S
C1893 H1863 0.950 . S
C1893 C1888 1.363 . S
C1893 C1892 1.415 . S
H1894 C1891 0.999 . S
H1895 C1876 0.913 . S
C415 C41 1.502 . S
C430 N14 1.484 . S
C465 N47 1.484 . S
C480 C74 1.502 . S
C515 N80 1.484 . S
C530 C8 1.503 . S
C565 N113 1.483 . S
C580 C173 1.502 . S
C615 N146 1.484 . S
C630 C107 1.503 . S
C665 C140 1.502 . S
C680 N179 1.484 . S
C715 C239 1.502 . S
C730 N212 1.483 . S
C765 C272 1.502 . S
C780 N245 1.484 . S
C815 C206 1.502 . S
C830 N278 1.483 . S
C865 N311 1.484 . S
C880 C371 1.502 . S
C915 C305 1.503 . S
C930 N344 1.484 . S
C965 N377 1.483 . S
C980 C338 1.502 . S
C1015 C28 1.282 . S
C1030 N236 1.244 . S
C1065 C61 1.282 . S
C1080 N269 1.245 . S
C1115 C94 1.282 . S
C1130 N203 1.245 . S
C1165 N368 1.245 . S
C1180 C127 1.282 . S
C1215 C160 1.282 . S
C1230 N302 1.245 . S
C1265 N335 1.245 . S
C1280 C193 1.282 . S
C1315 N38 1.244 . S
C1330 C226 1.282 . S
C1365 N71 1.245 . S
C1380 C259 1.282 . S
C1415 C292 1.282 . S
C1430 N5 1.245 . S
C1465 N170 1.245 . S
C1480 C325 1.281 . S
C1515 C358 1.282 . S
C1530 N104 1.245 . S
C1565 C391 1.282 . S
C1580 N137 1.245 . S
C1615 C116 1.193 . S
C1630 C17 1.194 . S
C1665 C50 1.193 . S
C1680 C149 1.193 . S
C1715 C83 1.193 . S
C1730 C182 1.193 . S
C1765 C314 1.194 . S
C1780 C215 1.193 . S
C1815 C248 1.194 . S
C1830 C347 1.193 . S
C1865 C281 1.194 . S
C1880 C380 1.193 . S
