# Generated by pormake.
# Topology upc, (4)-cn, num edge types: 1
# Building blocks:
#     Node 0, Type 0, BuildingBlock: ESEHIV_clean_sbu_0, # of connection points: 4
#     Node 1, Type 0, BuildingBlock: ESEHIV_clean_sbu_0, # of connection points: 4
#     Node 2, Type 0, BuildingBlock: ESEHIV_clean_sbu_0, # of connection points: 4
#     Node 3, Type 0, BuildingBlock: ESEHIV_clean_sbu_0, # of connection points: 4
#     Node 4, Type 0, BuildingBlock: ESEHIV_clean_sbu_0, # of connection points: 4
#     Node 5, Type 0, BuildingBlock: ESEHIV_clean_sbu_0, # of connection points: 4
#     Node 6, Type 0, BuildingBlock: ESEHIV_clean_sbu_0, # of connection points: 4
#     Node 7, Type 0, BuildingBlock: ESEHIV_clean_sbu_0, # of connection points: 4
#     Node 8, Type 0, BuildingBlock: ESEHIV_clean_sbu_0, # of connection points: 4
#     Node 9, Type 0, BuildingBlock: ESEHIV_clean_sbu_0, # of connection points: 4
#     Node 10, Type 0, BuildingBlock: ESEHIV_clean_sbu_0, # of connection points: 4
#     Node 11, Type 0, BuildingBlock: ESEHIV_clean_sbu_0, # of connection points: 4
#     Node 12, Type 0, BuildingBlock: ESEHIV_clean_sbu_0, # of connection points: 4
#     Node 13, Type 0, BuildingBlock: ESEHIV_clean_sbu_0, # of connection points: 4
#     Node 14, Type 0, BuildingBlock: ESEHIV_clean_sbu_0, # of connection points: 4
#     Node 15, Type 0, BuildingBlock: ESEHIV_clean_sbu_0, # of connection points: 4
#     Edge 16, Type (0, 0), BuildingBlock: OJICUG_clean_linker_0, # of connection points: 2
#     Edge 17, Type (0, 0), BuildingBlock: OJICUG_clean_linker_0, # of connection points: 2
#     Edge 18, Type (0, 0), BuildingBlock: OJICUG_clean_linker_0, # of connection points: 2
#     Edge 19, Type (0, 0), BuildingBlock: OJICUG_clean_linker_0, # of connection points: 2
#     Edge 20, Type (0, 0), BuildingBlock: OJICUG_clean_linker_0, # of connection points: 2
#     Edge 21, Type (0, 0), BuildingBlock: OJICUG_clean_linker_0, # of connection points: 2
#     Edge 22, Type (0, 0), BuildingBlock: OJICUG_clean_linker_0, # of connection points: 2
#     Edge 23, Type (0, 0), BuildingBlock: OJICUG_clean_linker_0, # of connection points: 2
#     Edge 24, Type (0, 0), BuildingBlock: OJICUG_clean_linker_0, # of connection points: 2
#     Edge 25, Type (0, 0), BuildingBlock: OJICUG_clean_linker_0, # of connection points: 2
#     Edge 26, Type (0, 0), BuildingBlock: OJICUG_clean_linker_0, # of connection points: 2
#     Edge 27, Type (0, 0), BuildingBlock: OJICUG_clean_linker_0, # of connection points: 2
#     Edge 28, Type (0, 0), BuildingBlock: OJICUG_clean_linker_0, # of connection points: 2
#     Edge 29, Type (0, 0), BuildingBlock: OJICUG_clean_linker_0, # of connection points: 2
#     Edge 30, Type (0, 0), BuildingBlock: OJICUG_clean_linker_0, # of connection points: 2
#     Edge 31, Type (0, 0), BuildingBlock: OJICUG_clean_linker_0, # of connection points: 2
#     Edge 32, Type (0, 0), BuildingBlock: OJICUG_clean_linker_0, # of connection points: 2
#     Edge 33, Type (0, 0), BuildingBlock: OJICUG_clean_linker_0, # of connection points: 2
#     Edge 34, Type (0, 0), BuildingBlock: OJICUG_clean_linker_0, # of connection points: 2
#     Edge 35, Type (0, 0), BuildingBlock: OJICUG_clean_linker_0, # of connection points: 2
#     Edge 36, Type (0, 0), BuildingBlock: OJICUG_clean_linker_0, # of connection points: 2
#     Edge 37, Type (0, 0), BuildingBlock: OJICUG_clean_linker_0, # of connection points: 2
#     Edge 38, Type (0, 0), BuildingBlock: OJICUG_clean_linker_0, # of connection points: 2
#     Edge 39, Type (0, 0), BuildingBlock: OJICUG_clean_linker_0, # of connection points: 2
#     Edge 40, Type (0, 0), BuildingBlock: OJICUG_clean_linker_0, # of connection points: 2
#     Edge 41, Type (0, 0), BuildingBlock: OJICUG_clean_linker_0, # of connection points: 2
#     Edge 42, Type (0, 0), BuildingBlock: OJICUG_clean_linker_0, # of connection points: 2
#     Edge 43, Type (0, 0), BuildingBlock: OJICUG_clean_linker_0, # of connection points: 2
#     Edge 44, Type (0, 0), BuildingBlock: OJICUG_clean_linker_0, # of connection points: 2
#     Edge 45, Type (0, 0), BuildingBlock: OJICUG_clean_linker_0, # of connection points: 2
#     Edge 46, Type (0, 0), BuildingBlock: OJICUG_clean_linker_0, # of connection points: 2
#     Edge 47, Type (0, 0), BuildingBlock: OJICUG_clean_linker_0, # of connection points: 2
# Relax obj value: 0.174
# Max RMSD: 0.226
# Mean RMSD: 0.192
data_MOF--net-upc--node1-ESEHIV_clean_sbu_0--edge1-OJICUG_clean_linker_0
_symmetry_space_group_name_H-M    P1
_symmetry_Int_Tables_number       1
_symmetry_cell_setting            triclinic
loop_
_symmetry_equiv_pos_as_xyz
'x, y, z'
_cell_length_a     24.390111
_cell_length_b     30.047303
_cell_length_c     34.510703
_cell_angle_alpha  90.613821
_cell_angle_beta   89.895208
_cell_angle_gamma 89.855223
loop_
_atom_site_label
_atom_site_type_symbol
_atom_site_fract_x
_atom_site_fract_y
_atom_site_fract_z
_atom_type_partial_charge
Cu0 Cu 0.12026 0.62835 0.17672 0.0
N1 N 0.05714 0.65706 0.1946 0.0
N2 N 1.00257 0.70406 0.22693 0.0
C3 C 0.0535 0.68678 0.22379 0.0
C4 C 0.97275 0.68402 0.19897 0.0
C5 C 1.00644 0.6547 0.17928 0.0
O6 O 0.18516 0.66848 0.18096 0.0
C7 C 0.1177 0.56972 0.24149 0.0
O8 O 0.11963 0.60653 0.26232 0.0
H9 H 0.08851 0.69794 0.24049 0.0
H10 H 0.99512 0.63456 0.15447 0.0
N11 N 0.10667 0.61361 0.12501 0.0
N12 N 0.06169 0.58486 0.07418 0.0
C13 C 0.06932 0.58363 0.1129 0.0
C14 C 0.124 0.63427 0.0929 0.0
C15 C 0.09651 0.61645 0.06143 0.0
C16 C 0.18072 0.71062 0.17608 0.0
O17 O 0.13226 0.72729 0.16812 0.0
H18 H 0.0467 0.56259 0.1325 0.0
H19 H 0.15255 0.66176 0.09262 0.0
O20 O 0.12346 0.57208 0.20485 0.0
H21 H 0.93044 0.69153 0.19216 0.0
H22 H 0.09991 0.62758 0.03181 0.0
Cu23 Cu 0.90608 0.1695 0.11392 0.0
N24 N 0.86247 0.12294 0.13085 0.0
N25 N 0.82688 0.07622 0.17375 0.0
C26 C 0.84786 0.11701 0.16789 0.0
C27 C 0.82683 0.05584 0.13877 0.0
C28 C 0.84947 0.08472 0.11229 0.0
O29 O 0.86548 0.22591 0.12424 0.0
C30 C 0.98335 0.15828 0.17688 0.0
O31 O 0.9472 0.17776 0.19969 0.0
H32 H 0.85398 0.14174 0.19043 0.0
H33 H 0.85863 0.07743 0.08221 0.0
N34 N 0.9192 0.15958 0.06117 0.0
N35 N 0.96215 0.13534 0.0076 0.0
C36 C 0.96718 0.1462 0.04553 0.0
C37 C 0.88234 0.15694 0.0323 0.0
C38 C 0.90875 0.1423 -0.00082 0.0
C39 C 0.85544 0.25388 0.09749 0.0
O40 O 0.87975 0.24866 0.06378 0.0
H41 H 1.00454 0.14304 0.06213 0.0
H42 H 0.83889 0.16329 0.03558 0.0
O43 O 0.97595 0.15877 0.14033 0.0
H44 H 0.81405 1.0219 0.1332 0.0
H45 H 0.88937 0.13493 0.97168 0.0
Cu46 Cu 0.42193 0.91869 0.16586 0.0
N47 N 0.49148 0.89412 0.17189 0.0
N48 N 0.55914 0.85128 0.19342 0.0
C49 C 0.50483 0.85465 0.18698 0.0
C50 C 0.58098 0.89037 0.18286 0.0
C51 C 0.53907 0.91662 0.16904 0.0
O52 O 0.36258 0.87502 0.17674 0.0
C53 C 0.43736 0.96901 0.2354 0.0
O54 O 0.4404 0.92969 0.25157 0.0
H55 H 0.47501 0.83063 0.1968 0.0
H56 H 0.54241 0.95101 0.16044 0.0
N57 N 0.41928 0.93881 0.11498 0.0
N58 N 0.44716 0.97593 0.06268 0.0
C59 C 0.44982 0.97257 0.10162 0.0
C60 C 0.39601 0.92008 0.0835 0.0
C61 C 0.41313 0.94297 0.05112 0.0
C62 C 0.36304 0.83523 0.1629 0.0
O63 O 0.40386 0.82295 0.1403 0.0
H64 H 0.47601 0.99263 0.12004 0.0
H65 H 0.37038 0.89076 0.08388 0.0
O66 O 0.42358 0.97136 0.19984 0.0
H67 H 0.62317 0.9002 0.18739 0.0
H68 H 0.40234 0.93527 0.0214 0.0
Cu69 Cu 0.6429 0.47645 0.12313 0.0
N70 N 0.6841 0.5208 0.14664 0.0
N71 N 0.73809 0.55067 0.19176 0.0
C72 C 0.72654 0.51402 0.1705 0.0
C73 C 0.70168 0.58187 0.18076 0.0
C74 C 0.66855 0.56336 0.15256 0.0
O75 O 0.68151 0.41921 0.13154 0.0
C76 C 0.56395 0.48816 0.18253 0.0
O77 O 0.60495 0.47616 0.20479 0.0
H78 H 0.74433 0.48151 0.17547 0.0
H79 H 0.63242 0.57839 0.14006 0.0
N80 N 0.64083 0.48896 0.0703 0.0
N81 N 0.61409 0.51513 0.0129 0.0
C82 C 0.60043 0.50913 0.05051 0.0
C83 C 0.68156 0.48217 0.04459 0.0
C84 C 0.66514 0.49798 0.00916 0.0
C85 C 0.6824 0.38848 0.10571 0.0
O86 O 0.64966 0.39201 0.07571 0.0
H87 H 0.56261 0.52041 0.06384 0.0
H88 H 0.7207 0.4671 0.05129 0.0
O89 O 0.56975 0.48487 0.14585 0.0
H90 H 0.69675 0.61434 0.19423 0.0
H91 H 0.6892 0.49693 0.98279 0.0
Cu92 Cu 0.12022 0.96333 0.31522 0.0
N93 N 0.05701 0.93163 0.30375 0.0
N94 N 1.00239 0.8739 0.29184 0.0
C95 C 0.05293 0.8872 0.30234 0.0
C96 C 0.97337 0.91151 0.28609 0.0
C97 C 1.00721 0.94726 0.29387 0.0
O98 O 0.1834 0.92127 0.31103 0.0
C99 C 0.10573 1.01487 0.24633 0.0
O100 O 0.10034 0.97622 0.22861 0.0
H101 H 0.08723 0.86497 0.30669 0.0
H102 H 0.99684 0.98214 0.29136 0.0
N103 N 0.11057 0.98548 0.36553 0.0
N104 N 0.06821 1.0186 0.41589 0.0
C105 C 0.06432 1.00524 0.37845 0.0
C106 C 0.14555 0.98659 0.39554 0.0
C107 C 0.11953 1.00674 0.42666 0.0
C108 C 0.18884 0.89115 0.33675 0.0
O109 O 0.15412 0.89069 0.36589 0.0
H110 H 1.02892 1.01021 0.36022 0.0
H111 H 0.187 0.97372 0.39485 0.0
O112 O 0.12006 1.01572 0.28184 0.0
H113 H 0.93145 0.91301 0.27593 0.0
H114 H 0.13743 1.01191 0.45498 0.0
Cu115 Cu 0.63649 0.12073 0.37785 0.0
N116 N 0.68296 0.07496 0.36199 0.0
N117 N 0.73836 1.04119 0.31949 0.0
C118 C 0.72362 0.08006 0.33624 0.0
C119 C 0.70562 1.01013 0.33519 0.0
C120 C 0.6716 1.03111 0.36176 0.0
O121 O 0.67298 0.17822 0.3679 0.0
C122 C 0.56828 0.10272 0.31276 0.0
O123 O 0.61164 0.11455 0.29275 0.0
H124 H 0.73687 0.11222 0.32599 0.0
H125 H 0.637 1.01634 0.37641 0.0
N126 N 0.6223 0.11575 0.43075 0.0
N127 N 0.59086 0.08999 0.48709 0.0
C128 C 0.59337 0.08357 0.44829 0.0
C129 C 0.63844 0.14359 0.45928 0.0
C130 C 0.61929 0.12773 0.49407 0.0
C131 C 0.72206 0.1838 0.38015 0.0
O132 O 0.74565 0.1513 0.39916 0.0
H133 H 0.57524 0.05573 0.43288 0.0
H134 H 0.66226 0.17345 0.45507 0.0
O135 O 0.56862 0.10822 0.34947 0.0
H136 H 0.70312 0.97575 0.32565 0.0
H137 H 0.62524 0.14317 0.52222 0.0
Cu138 Cu 0.40598 0.66599 0.32887 0.0
N139 N 0.47413 0.69325 0.32718 0.0
N140 N 0.54745 0.72666 0.30242 0.0
C141 C 0.49906 0.70691 0.29488 0.0
C142 C 0.55317 0.72564 0.34127 0.0
C143 C 0.50799 0.70437 0.3565 0.0
O144 O 0.34877 0.71179 0.3189 0.0
C145 C 0.41808 0.61539 0.25638 0.0
O146 O 0.40809 0.65239 0.23769 0.0
H147 H 0.48022 0.7053 0.26658 0.0
H148 H 0.49945 0.69893 0.38684 0.0
N149 N 0.40059 0.64224 0.37844 0.0
N150 N 0.42863 0.6038 0.4299 0.0
C151 C 0.43567 0.61142 0.39177 0.0
C152 C 0.36974 0.65456 0.40912 0.0
C153 C 0.38707 0.63089 0.44102 0.0
C154 C 0.34962 0.74692 0.34023 0.0
O155 O 0.38732 0.74993 0.36727 0.0
H156 H 0.4679 0.59679 0.37414 0.0
H157 H 0.33834 0.68003 0.40869 0.0
O158 O 0.41252 0.61486 0.29313 0.0
H159 H 0.58619 0.74094 0.35749 0.0
H160 H 0.371 0.63395 0.47019 0.0
Cu161 Cu 0.93146 0.41084 0.37973 0.0
N162 N 0.88548 0.45814 0.36794 0.0
N163 N 0.84378 0.50741 0.33022 0.0
C164 C 0.86967 0.46789 0.33186 0.0
C165 C 0.84205 0.52297 0.36701 0.0
C166 C 0.86848 0.49252 0.39031 0.0
O167 O 0.89394 0.35345 0.36998 0.0
C168 C 1.00252 0.42435 0.31343 0.0
O169 O 0.965 0.4044 0.29228 0.0
H170 H 0.87724 0.44637 0.30715 0.0
H171 H 0.87642 0.49591 0.42103 0.0
N172 N 0.95046 0.41531 0.4318 0.0
N173 N 0.99246 0.43941 0.48555 0.0
C174 C 0.98718 0.44397 0.44683 0.0
C175 C 0.93157 0.39169 0.46185 0.0
C176 C 0.95737 0.40652 0.49511 0.0
C177 C 0.84151 0.35087 0.37051 0.0
O178 O 0.81267 0.38744 0.37553 0.0
H179 H 1.00879 0.46821 0.42962 0.0
H180 H 0.90128 0.36555 0.45967 0.0
O181 O 0.99821 0.42382 0.35024 0.0
H182 H 0.82462 0.55455 0.37614 0.0
H183 H 0.9511 0.3937 0.52396 0.0
Cu184 Cu 0.86991 0.41185 0.89177 0.0
N185 N 0.80251 0.39983 0.86843 0.0
N186 N 0.7516 0.36513 0.82366 0.0
C187 C 0.79903 0.36547 0.84343 0.0
C188 C 0.72291 0.40042 0.83732 0.0
C189 C 0.75477 0.42211 0.86502 0.0
O190 O 0.90093 0.35331 0.90018 0.0
C191 C 0.89671 0.48354 0.84576 0.0
O192 O 0.8509 0.49896 0.86091 0.0
H193 H 0.83234 0.34223 0.8387 0.0
H194 H 0.74518 0.45316 0.87971 0.0
N195 N 0.86839 0.44521 0.93759 0.0
N196 N 0.90312 0.48807 0.98484 0.0
C197 C 0.91357 0.46466 0.95209 0.0
C198 C 0.82738 0.45647 0.96194 0.0
C199 C 0.84882 0.48286 0.99134 0.0
C200 C 0.88226 0.33014 0.92786 0.0
O201 O 0.85328 0.35025 0.95503 0.0
H202 H 0.95356 0.46128 0.93874 0.0
H203 H 0.78507 0.4465 0.95845 0.0
O204 O 0.91327 0.44492 0.85513 0.0
H205 H 0.6837 0.41144 0.82629 0.0
H206 H 0.82599 0.49765 0.01513 0.0
Cu207 Cu 0.13118 0.99512 0.83512 0.0
N208 N 0.07762 0.98658 0.79785 0.0
N209 N 1.01918 1.005 0.751 0.0
C210 C 0.05539 1.0199 0.77757 0.0
C211 C 1.01848 0.96029 0.75499 0.0
C212 C 0.05485 0.94898 0.78395 0.0
O213 O 0.10038 1.03752 0.872 0.0
C214 C 0.24283 1.01549 0.81953 0.0
O215 O 0.25177 1.00372 0.85554 0.0
H216 H 0.06576 0.0545 0.78245 0.0
H217 H 0.06459 0.91582 0.79377 0.0
N218 N 0.1501 0.94102 0.85788 0.0
N219 N 0.19987 0.88078 0.87208 0.0
C220 C 0.19208 0.91441 0.84705 0.0
C221 C 0.12971 0.92304 0.89038 0.0
C222 C 0.16054 0.88599 0.89935 0.0
C223 C 0.11347 1.04239 0.90742 0.0
O224 O 0.15445 1.01925 0.92155 0.0
H225 H 0.21834 0.92105 0.82249 0.0
H226 H 0.09619 0.93692 0.90718 0.0
O227 O 0.19386 1.0177 0.80723 0.0
H228 H 0.99447 0.9373 0.73769 0.0
H229 H 0.15523 0.86517 0.92448 0.0
Cu230 Cu 0.69059 0.12189 0.88809 0.0
N231 N 0.65915 0.15838 0.85076 0.0
N232 N 0.64596 0.21057 0.80621 0.0
C233 C 0.68126 0.19323 0.8321 0.0
C234 C 0.60011 0.18579 0.80871 0.0
C235 C 0.60842 0.1536 0.83616 0.0
O236 O 0.75562 0.1509 0.9087 0.0
C237 C 0.71597 0.06006 0.82916 0.0
O238 O 0.73038 0.09611 0.81056 0.0
H239 H 0.72206 0.20574 0.83763 0.0
H240 H 0.57975 0.12809 0.8447 0.0
N241 N 0.64007 0.11768 0.9285 0.0
N242 N 0.57936 0.09249 0.97168 0.0
C243 C 0.6137 0.08167 0.94214 0.0
C244 C 0.62171 0.15231 0.94983 0.0
C245 C 0.58441 0.13698 0.97644 0.0
C246 C 0.79913 0.15951 0.88983 0.0
O247 O 0.80522 0.14326 0.85463 0.0
H248 H 0.6201 0.04828 0.93092 0.0
H249 H 0.63446 0.18645 0.94603 0.0
O250 O 0.70182 0.0635 0.8646 0.0
H251 H 0.5635 0.18995 0.79146 0.0
H252 H 0.56219 0.15725 0.99731 0.0
Cu253 Cu 0.4773 0.66227 0.83113 0.0
N254 N 0.52939 0.68016 0.795 0.0
N255 N 0.59621 0.67046 0.75132 0.0
C256 C 0.5729 0.65546 0.78417 0.0
C257 C 0.56667 0.70674 0.74157 0.0
C258 C 0.52549 0.71271 0.76869 0.0
O259 O 0.51362 0.6251 0.86875 0.0
C260 C 0.42898 0.60386 0.77561 0.0
O261 O 0.4797 0.59551 0.76497 0.0
H262 H 0.58325 0.62419 0.79767 0.0
H263 H 0.49249 0.73678 0.76754 0.0
N264 N 0.44592 0.71143 0.85603 0.0
N265 N 0.3855 0.76441 0.87245 0.0
C266 C 0.39952 0.73283 0.84605 0.0
C267 C 0.462 0.73015 0.88968 0.0
C268 C 0.42479 0.76284 0.89992 0.0
C269 C 0.48911 0.60809 0.89753 0.0
O270 O 0.43619 0.61476 0.90193 0.0
H271 H 0.37551 0.72426 0.82071 0.0
H272 H 0.49758 0.71996 0.90604 0.0
O273 O 0.41981 0.62997 0.80421 0.0
H274 H 0.57202 0.72572 0.71536 0.0
H275 H 0.4264 0.78369 0.92566 0.0
Cu276 Cu 0.86891 0.18548 0.60048 0.0
N277 N 0.80109 0.19687 0.62382 0.0
N278 N 0.75006 0.23104 0.6691 0.0
C279 C 0.79641 0.23194 0.648 0.0
C280 C 0.72321 0.19419 0.65718 0.0
C281 C 0.75516 0.17282 0.62918 0.0
O282 O 0.89919 0.24426 0.5925 0.0
C283 C 0.89692 0.11285 0.64489 0.0
O284 O 0.85238 0.09704 0.62845 0.0
H285 H 0.82855 0.25633 0.65164 0.0
H286 H 0.7473 0.14066 0.61598 0.0
N287 N 0.86837 0.15262 0.55439 0.0
N288 N 0.90535 0.11063 0.5071 0.0
C289 C 0.91489 0.13838 0.53736 0.0
C290 C 0.82734 0.13367 0.53422 0.0
C291 C 0.85007 0.10784 0.50484 0.0
C292 C 0.88046 0.26743 0.56485 0.0
O293 O 0.85226 0.24722 0.53747 0.0
H294 H 0.95502 0.14772 0.54786 0.0
H295 H 0.78427 0.13703 0.5412 0.0
O296 O 0.91235 0.15214 0.6369 0.0
H297 H 0.68571 0.18178 0.66987 0.0
H298 H 0.82751 0.08728 0.48452 0.0
Cu299 Cu 0.48842 0.92617 0.66917 0.0
N300 N 0.55005 0.91054 0.69753 0.0
N301 N 0.62066 0.92421 0.73691 0.0
C302 C 0.58862 0.93994 0.70833 0.0
C303 C 0.60163 0.88299 0.74426 0.0
C304 C 0.55804 0.87455 0.71973 0.0
O305 O 0.51128 0.96991 0.63138 0.0
C306 C 0.40275 0.98173 0.70023 0.0
O307 O 0.39853 0.99841 0.66534 0.0
H308 H 0.58921 0.97402 0.69843 0.0
H309 H 0.53118 0.84597 0.72042 0.0
N310 N 0.45768 0.87641 0.64488 0.0
N311 N 0.39744 0.82411 0.62733 0.0
C312 C 0.40892 0.85743 0.65261 0.0
C313 C 0.47791 0.85416 0.61397 0.0
C314 C 0.44074 0.82197 0.60297 0.0
C315 C 0.48903 0.97513 0.59841 0.0
O316 O 0.44591 0.95127 0.589 0.0
H317 H 0.3817 0.86875 0.6755 0.0
H318 H 0.51645 0.8616 0.59993 0.0
O319 O 0.43744 0.95106 0.70657 0.0
H320 H 0.61565 0.86185 0.76745 0.0
H321 H 0.44519 0.79879 0.57894 0.0
Cu322 Cu 0.68259 0.47222 0.60472 0.0
N323 N 0.65341 0.43635 0.64337 0.0
N324 N 0.64267 0.38467 0.68866 0.0
C325 C 0.67654 0.40162 0.66163 0.0
C326 C 0.59667 0.40955 0.68732 0.0
C327 C 0.60348 0.44146 0.65941 0.0
O328 O 0.74941 0.44503 0.58461 0.0
C329 C 0.70386 0.53805 0.66111 0.0
O330 O 0.72207 0.50396 0.68087 0.0
H331 H 0.71694 0.38876 0.65494 0.0
H332 H 0.5743 0.46695 0.65149 0.0
N333 N 0.63212 0.47292 0.56424 0.0
N334 N 0.56965 0.49436 0.52088 0.0
C335 C 0.60126 0.50692 0.55126 0.0
C336 C 0.61945 0.43776 0.54163 0.0
C337 C 0.58107 0.45082 0.51486 0.0
C338 C 0.79248 0.43648 0.60393 0.0
O339 O 0.79686 0.45172 0.63958 0.0
H340 H 0.60277 0.54028 0.56337 0.0
H341 H 0.63709 0.40489 0.54448 0.0
O342 O 0.68954 0.53201 0.626 0.0
H343 H 0.561 0.40562 0.70562 0.0
H344 H 0.56272 0.42973 0.49285 0.0
Cu345 Cu 0.13678 0.59873 0.65808 0.0
N346 N 0.081 0.60795 0.69376 0.0
N347 N 1.02053 0.59013 0.73961 0.0
C348 C 0.059 0.57503 0.7146 0.0
C349 C 1.01809 0.63456 0.73399 0.0
C350 C 0.05571 0.64551 0.70565 0.0
O351 O 0.10886 0.55524 0.62122 0.0
C352 C 0.24634 0.57231 0.67429 0.0
O353 O 0.25464 0.57617 0.63685 0.0
H354 H 0.07111 0.54055 0.71117 0.0
H355 H 0.06448 0.6784 0.69485 0.0
N356 N 0.15771 0.65202 0.63507 0.0
N357 N 0.20983 0.71101 0.6218 0.0
C358 C 0.20004 0.67757 0.64663 0.0
C359 C 0.13945 0.67026 0.60206 0.0
C360 C 0.17178 0.70659 0.59367 0.0
C361 C 0.1242 0.54926 0.58633 0.0
O362 O 0.16535 0.57246 0.57263 0.0
H363 H 0.22504 0.67032 0.67168 0.0
H364 H 0.10638 0.65704 0.58458 0.0
O365 O 0.1982 0.57729 0.68776 0.0
H366 H 0.99196 0.65764 0.74974 0.0
H367 H 0.16832 0.72751 0.56845 0.0
C368 C 0.22143 0.78718 0.18485 0.0
C369 C 0.22905 0.74132 0.17718 0.0
H370 H 0.2573 0.85249 0.18731 0.0
C371 C 0.28212 0.72642 0.16775 0.0
H372 H 0.18121 0.7999 0.19252 0.0
C373 C 0.3256 0.75685 0.16405 0.0
C374 C 0.31756 0.80292 0.17048 0.0
H375 H 0.28962 0.69151 0.16162 0.0
H376 H 0.36553 0.74425 0.15551 0.0
C377 C 0.26513 0.81746 0.18197 0.0
C378 C 0.78292 0.30153 0.06798 0.0
C379 C 0.81108 0.28811 0.10141 0.0
H380 H 0.72053 0.34227 0.04333 0.0
C381 C 0.79555 0.30726 0.13726 0.0
H382 H 0.79305 0.28724 0.03994 0.0
C383 C 0.75378 0.33995 0.13919 0.0
C384 C 0.72562 0.35302 0.10547 0.0
H385 H 0.81628 0.29761 0.1636 0.0
H386 H 0.74337 0.35478 0.16698 0.0
C387 C 0.74069 0.33299 0.07 0.0
C388 C 0.25692 0.84305 0.37023 0.0
C389 C 0.23272 0.85634 0.33531 0.0
H390 H 0.31213 0.79896 0.39884 0.0
C391 C 0.24682 0.83284 0.30108 0.0
H392 H 0.24672 0.86006 0.39715 0.0
C393 C 0.28363 0.79634 0.3022 0.0
C394 C 0.30796 0.78347 0.33743 0.0
H395 H 0.22816 0.84176 0.27377 0.0
H396 H 0.29356 0.77867 0.27557 0.0
C397 C 0.29435 0.80774 0.3712 0.0
C398 C 0.75537 0.30577 0.36175 0.0
C399 C 0.81227 0.30728 0.36901 0.0
H400 H 0.68236 0.26592 0.35896 0.0
C401 C 0.83943 0.26734 0.37763 0.0
H402 H 0.73306 0.33588 0.3549 0.0
C403 C 0.81011 0.22735 0.38046 0.0
C404 C 0.75296 0.22603 0.3742 0.0
H405 H 0.88302 0.2672 0.38355 0.0
H406 H 0.83229 0.19744 0.38812 0.0
C407 C 0.72617 0.26563 0.36401 0.0
C408 C 0.88966 0.26094 0.88685 0.0
C409 C 0.87664 0.28131 0.92261 0.0
H410 H 0.87578 0.2057 0.84848 0.0
C411 C 0.84819 0.25647 0.95042 0.0
H412 H 0.912 0.27891 0.86485 0.0
C413 C 0.82701 0.21462 0.94091 0.0
C414 C 0.83438 0.19656 0.90351 0.0
H415 H 0.8384 0.2708 0.9785 0.0
H416 H 0.80159 0.19789 0.96199 0.0
C417 C 0.86877 0.21887 0.87741 0.0
C418 C 0.31474 0.80693 0.83712 0.0
C419 C 0.33758 0.79265 0.87224 0.0
H420 H 0.25282 0.8462 0.80957 0.0
C421 C 0.31314 0.80666 0.90723 0.0
H422 H 0.33282 0.79689 0.80971 0.0
C423 C 0.26722 0.83462 0.90715 0.0
C424 C 0.24502 0.84966 0.87207 0.0
H425 H 0.32937 0.79583 0.93474 0.0
H426 H 0.24998 0.84538 0.93462 0.0
C427 C 0.26919 0.83537 0.83705 0.0
C428 C 0.86382 0.37806 0.61601 0.0
C429 C 0.82913 0.40022 0.59 0.0
H430 H 0.90856 0.31851 0.62817 0.0
C431 C 0.82274 0.38251 0.5524 0.0
H432 H 0.87017 0.391 0.64507 0.0
C433 C 0.84481 0.3409 0.54268 0.0
C434 C 0.87366 0.31616 0.57037 0.0
H435 H 0.79719 0.39916 0.53137 0.0
H436 H 0.83545 0.32669 0.51449 0.0
C437 C 0.88593 0.33639 0.60627 0.0
C438 C 0.28126 0.75494 0.58879 0.0
C439 C 0.25533 0.74153 0.62312 0.0
H440 H 0.34715 0.79158 0.56331 0.0
C441 C 0.27606 0.75679 0.65884 0.0
H442 H 0.26656 0.7434 0.56088 0.0
C443 C 0.32199 0.7846 0.66022 0.0
C444 C 0.34873 0.79707 0.62593 0.0
H445 H 0.25671 0.74715 0.68572 0.0
H446 H 0.33745 0.79546 0.68814 0.0
C447 C 0.32771 0.78212 0.5902 0.0
C448 C 0.04552 0.45874 0.25434 0.0
C449 C 0.04129 0.45618 0.29495 0.0
H450 H 0.07381 0.49597 0.20555 0.0
C451 C 0.06882 0.48835 0.31759 0.0
H452 H 1.02494 0.43462 0.23595 0.0
C453 C 0.09635 0.52384 0.30013 0.0
C454 C 0.09779 0.52786 0.25957 0.0
H455 H 0.06655 0.48764 0.34892 0.0
H456 H 0.11458 0.54919 0.31853 0.0
C457 C 0.07371 0.49397 0.23687 0.0
C458 C 0.04665 0.09224 0.17055 0.0
C459 C 1.02401 0.12664 0.19362 0.0
H460 H 0.09004 1.03003 0.16905 0.0
C461 C 0.03474 0.1266 0.23368 0.0
H462 H 0.03915 0.09093 0.13963 0.0
C463 C 0.06475 0.09186 0.25048 0.0
C464 C 0.08397 0.05586 0.22774 0.0
H465 H 1.01796 0.15246 0.25235 0.0
H466 H 0.07 0.09193 0.28164 0.0
C467 C 0.07577 0.05712 0.18744 0.0
C468 C 0.51882 0.07478 0.25341 0.0
C469 C 0.52588 0.07422 0.29387 0.0
H470 H 0.48408 1.04285 0.2033 0.0
C471 C 0.49766 1.04186 0.31527 0.0
H472 H 0.54006 0.09914 0.23605 0.0
C473 C 0.46638 1.00902 0.2964 0.0
C474 C 0.4615 1.00831 0.25578 0.0
H475 H 0.50251 1.04014 0.34641 0.0
H476 H 0.44773 0.98312 0.31355 0.0
C477 C 0.48652 1.04254 0.23463 0.0
C478 C 0.508 0.5133 0.23995 0.0
C479 C 0.518 0.51464 0.19982 0.0
H480 H 0.46793 0.54304 0.28907 0.0
C481 C 0.48911 0.54606 0.17773 0.0
H482 H 0.52944 0.48956 0.25788 0.0
C483 C 0.45416 0.57733 0.19575 0.0
C484 C 0.44666 0.57758 0.23624 0.0
H485 H 0.49603 0.54831 0.1468 0.0
H486 H 0.4349 0.60251 0.17811 0.0
C487 C 0.47255 0.54407 0.25787 0.0
C488 C 1.01021 0.52274 0.77952 0.0
C489 C 0.9897 0.56389 0.76677 0.0
H490 H 0.99712 0.46517 0.81424 0.0
C491 C 0.93842 0.5785 0.78058 0.0
H492 H 0.04997 0.51073 0.77015 0.0
C493 C 0.90824 0.55241 0.80624 0.0
C494 C 0.92866 0.51112 0.81862 0.0
H495 H 0.92114 0.60974 0.7711 0.0
H496 H 0.86872 0.56453 0.81615 0.0
C497 C 0.98001 0.49663 0.80503 0.0
C498 C 1.0082 0.0738 0.71298 0.0
C499 C 0.98883 1.03163 0.72386 0.0
H500 H 0.99455 0.13245 0.67971 0.0
C501 C 0.93913 1.01632 0.70817 0.0
H502 H 0.04678 0.08641 0.72385 0.0
C503 C 0.90934 1.0427 0.68251 0.0
C504 C 0.92858 0.08498 0.67198 0.0
H505 H 0.92273 0.98428 0.71618 0.0
H506 H 0.87101 1.03 0.67115 0.0
C507 C 0.97838 0.1002 0.68744 0.0
C508 C 0.67617 0.98319 0.82418 0.0
C509 C 0.70349 1.019 0.80675 0.0
H510 H 0.62839 0.92419 0.81523 0.0
C511 C 0.71135 1.01816 0.76637 0.0
H512 H 0.66965 0.98268 0.85522 0.0
C513 C 0.68757 0.98479 0.7436 0.0
C514 C 0.65598 0.95131 0.76069 0.0
H515 H 0.73275 1.04489 0.75198 0.0
H516 H 0.69112 0.98652 0.71237 0.0
C517 C 0.65272 0.94952 0.80131 0.0
C518 C 0.69841 0.58378 0.72192 0.0
C519 C 0.68723 0.57919 0.68214 0.0
H520 H 0.67862 0.61742 0.77515 0.0
C521 C 0.65297 0.6107 0.66442 0.0
H522 H 0.72517 0.56047 0.73643 0.0
C523 C 0.62625 0.64334 0.68674 0.0
C524 C 0.6333 0.64502 0.72716 0.0
H525 H 0.64366 0.60826 0.63379 0.0
H526 H 0.59689 0.66487 0.67273 0.0
C527 C 0.67168 0.61632 0.74417 0.0
C528 C 1.01335 0.7511 0.28478 0.0
C529 C 0.9886 0.74334 0.24873 0.0
H530 H 0.03565 0.79957 0.32763 0.0
C531 C 0.95798 0.77749 0.2315 0.0
H532 H 0.03628 0.72497 0.29887 0.0
C533 C 0.9578 0.82022 0.24783 0.0
C534 C 0.98817 0.82906 0.28153 0.0
H535 H 0.93859 0.77232 0.20364 0.0
H536 H 0.93836 0.84698 0.23219 0.0
C537 C 1.01299 0.79362 0.30113 0.0
C538 C 0.83868 0.07228 0.24429 0.0
C539 C 0.81119 0.05836 0.21056 0.0
H540 H 0.83681 0.07651 0.30622 0.0
C541 C 0.76535 1.03047 0.21384 0.0
H542 H 0.8751 0.0927 0.24253 0.0
C543 C 0.74406 1.02059 0.25044 0.0
C544 C 0.76857 1.03849 0.28394 0.0
H545 H 0.74367 1.01921 0.18821 0.0
H546 H 0.70589 1.00241 0.25239 0.0
C547 C 0.81741 0.06256 0.28064 0.0
C548 C 0.58973 0.79785 0.28551 0.0
C549 C 0.5759 0.75396 0.2752 0.0
H550 H 0.59618 0.8649 0.26555 0.0
C551 C 0.57572 0.74144 0.23587 0.0
H552 H 0.59035 0.8083 0.31562 0.0
C553 C 0.57831 0.77386 0.20744 0.0
C554 C 0.58262 0.81873 0.21816 0.0
H555 H 0.5662 0.70754 0.22735 0.0
H556 H 0.57014 0.76463 0.17758 0.0
C557 C 0.59315 0.83024 0.25691 0.0
C558 C 0.7481 0.56383 0.26189 0.0
C559 C 0.77078 0.55041 0.22616 0.0
H560 H 0.75387 0.56002 0.32379 0.0
C561 C 0.82193 0.52922 0.22536 0.0
H562 H 0.70832 0.57987 0.26306 0.0
C563 C 0.84792 0.51812 0.25979 0.0
C564 C 0.82277 0.52745 0.29566 0.0
H565 H 0.8401 0.51895 0.19802 0.0
H566 H 0.88643 0.50018 0.2583 0.0
C567 C 0.77397 0.55234 0.29653 0.0
C568 C 0.67375 0.27075 0.71699 0.0
C569 C 0.73954 0.25874 0.70251 0.0
H570 H 0.64125 0.33958 0.79468 0.0
C571 C 0.79439 0.28066 0.72645 0.0
H572 H 0.64032 0.25571 0.70031 0.0
C573 C 0.79479 0.31557 0.76554 0.0
C574 C 0.74043 0.33717 0.79056 0.0
H575 H 0.83461 0.27124 0.71605 0.0
H576 H 0.83522 0.32526 0.77506 0.0
C577 C 0.67435 0.32474 0.77737 0.0
C578 C 0.31758 1.02059 0.72362 0.0
C579 C 0.36532 0.99623 0.73176 0.0
H580 H 0.2414 0.04633 0.7453 0.0
C581 C 0.37559 0.98357 0.7702 0.0
H582 H 0.30867 1.03108 0.69437 0.0
C583 C 0.33748 0.99285 0.79948 0.0
C584 C 0.28798 1.01452 0.79084 0.0
H585 H 0.41237 0.96522 0.77753 0.0
H586 H 0.34553 0.98078 0.82839 0.0
C587 C 0.27913 1.02943 0.75284 0.0
C588 C 0.72029 0.2636 0.76983 0.0
C589 C 0.65481 0.24767 0.7811 0.0
H590 H 0.75197 0.35153 0.71053 0.0
C591 C 0.59961 0.27522 0.76293 0.0
H592 H 0.75405 0.24444 0.78226 0.0
C593 C 0.59876 0.31985 0.73287 0.0
C594 C 0.6529 0.3477 0.71365 0.0
H595 H 0.55965 0.26348 0.7716 0.0
H596 H 0.55836 0.3314 0.72496 0.0
C597 C 0.71896 0.33217 0.72364 0.0
C598 C 0.32895 0.59051 0.76551 0.0
C599 C 0.38284 0.58844 0.75128 0.0
H600 H 0.2436 0.58586 0.75259 0.0
C601 C 0.39168 0.57545 0.71248 0.0
H602 H 0.32088 0.60005 0.79534 0.0
C603 C 0.34726 0.56779 0.68771 0.0
C604 C 0.29325 0.57234 0.70144 0.0
H605 H 0.43281 0.57351 0.70068 0.0
H606 H 0.35524 0.56007 0.65748 0.0
C607 C 0.28465 0.5822 0.74095 0.0
C608 C 1.02924 0.55315 0.01184 0.0
C609 C 1.02144 0.56055 0.05173 0.0
H610 H 0.99769 0.52521 0.95932 0.0
C611 C 0.97324 0.54436 0.06914 0.0
H612 H 0.06582 0.56492 -0.00253 0.0
C613 C 0.93415 0.5211 0.04724 0.0
C614 C 0.94234 0.5133 0.00742 0.0
H615 H 0.96526 0.55002 0.09964 0.0
H616 H 0.89792 0.50868 0.06164 0.0
C617 C 0.99028 0.52988 0.99001 0.0
C618 C 0.08502 0.06951 0.9736 0.0
C619 C 0.0782 0.0701 0.9332 0.0
H620 H 0.05331 0.08915 0.02896 0.0
C621 C 0.03471 0.09504 0.91769 0.0
H622 H 0.11797 0.05057 0.98653 0.0
C623 C 0.99774 0.11746 0.94202 0.0
C624 C 1.00316 0.11543 0.98252 0.0
H625 H 1.02842 0.09654 0.88666 0.0
H626 H 0.96449 0.13595 0.92905 0.0
C627 C 0.04791 0.09186 -0.00202 0.0
C628 C 0.49357 0.99413 0.00071 0.0
C629 C 0.47854 1.0059 0.03887 0.0
H630 H 0.53737 1.01237 0.94938 0.0
C631 C 0.49662 0.04685 0.0541 0.0
H632 H 0.48082 0.96269 0.98815 0.0
C633 C 0.52941 0.07505 0.03208 0.0
C634 C 0.54509 0.06317 0.99411 0.0
H635 H 0.48543 0.05725 0.08318 0.0
H636 H 0.54321 0.10589 0.04519 0.0
C637 C 0.52661 1.02239 0.97863 0.0
C638 C 0.57778 0.57788 0.92279 0.0
C639 C 0.5207 0.58274 0.92664 0.0
H640 H 0.65213 0.55343 0.94718 0.0
C641 C 0.49459 0.5641 0.95895 0.0
H642 H 0.59931 0.59189 0.89831 0.0
C643 C 0.52502 0.54158 0.98702 0.0
C644 C 0.58229 0.53724 0.98346 0.0
H645 H 0.45063 0.56708 0.96274 0.0
H646 H 0.50351 0.52744 0.01138 0.0
C647 C 0.60816 0.55551 0.95083 0.0
C648 C 0.03987 0.06005 0.47537 0.0
C649 C 1.02676 1.04135 0.43902 0.0
H650 H 1.01234 0.09536 0.52554 0.0
C651 C 0.97233 0.0456 0.42572 0.0
H652 H 0.08092 0.05795 0.48693 0.0
C653 C 0.93267 0.06822 0.44786 0.0
C654 C 0.94605 0.08703 0.48409 0.0
H655 H 0.95979 1.03144 0.39824 0.0
H656 H 0.89166 0.07126 0.43629 0.0
C657 C 1.0002 0.08228 0.49756 0.0
C658 C 0.58333 0.06068 0.55362 0.0
C659 C 0.56422 0.06215 0.51524 0.0
H660 H 0.57477 1.03222 0.60986 0.0
C661 C 0.51899 1.0357 0.50478 0.0
H662 H 0.61836 0.08025 0.56259 0.0
C663 C 0.49388 1.0081 0.53194 0.0
C664 C 0.51362 1.00612 0.57013 0.0
H665 H 0.50275 1.0365 0.47564 0.0
H666 H 0.4594 0.98793 0.52282 0.0
C667 C 0.55844 1.03294 0.5807 0.0
C668 C 0.52251 0.51109 0.45938 0.0
C669 C 0.53286 0.52161 0.49848 0.0
H670 H 0.48083 0.52852 0.40725 0.0
C671 C 0.50684 0.55909 0.51507 0.0
H672 H 0.54217 0.4828 0.44552 0.0
C673 C 0.47157 0.58553 0.49294 0.0
C674 C 0.46204 0.57529 0.45365 0.0
H675 H 0.51351 0.56785 0.54518 0.0
H676 H 0.45283 0.61454 0.50633 0.0
C677 C 0.48768 0.53759 0.43729 0.0
C678 C 1.01428 0.46967 0.55074 0.0
C679 C 1.02716 0.46516 0.51118 0.0
H680 H 0.03467 0.49941 0.60536 0.0
C681 C 0.07391 0.48707 0.49692 0.0
H682 H 0.97843 0.45371 0.56274 0.0
C683 C 0.10617 0.51359 0.5214 0.0
C684 C 0.09251 0.51881 0.56075 0.0
H685 H 0.08572 0.48378 0.4668 0.0
H686 H 0.14139 0.53043 0.50933 0.0
C687 C 0.04652 0.49613 0.5752 0.0
loop_
_geom_bond_atom_site_label_1
_geom_bond_atom_site_label_2
_geom_bond_distance
_geom_bond_site_symmetry_2
_ccdc_geom_bond_type
Cu0 N1 1.999 . S
Cu0 O6 1.974 . S
Cu0 N11 1.985 . S
Cu0 O20 1.959 . S
N1 Cu0 1.999 . S
N1 C3 1.263 . S
N1 C5 1.389 . S
N2 C3 1.358 . S
N2 C4 1.400 . S
C3 N1 1.263 . S
C3 N2 1.358 . S
C3 H9 0.930 . S
C4 N2 1.400 . S
C4 C5 1.351 . S
C4 H21 0.930 . S
C5 N1 1.389 . S
C5 C4 1.351 . S
C5 H10 0.930 . S
O6 Cu0 1.974 . S
O6 C16 1.282 . S
C7 O8 1.261 . S
C7 O20 1.251 . S
O8 C7 1.261 . S
H9 C3 0.930 . S
H10 C5 0.930 . S
N11 Cu0 1.985 . S
N11 C13 1.335 . S
N11 C14 1.390 . S
N12 C13 1.345 . S
N12 C15 1.336 . S
C13 N11 1.335 . S
C13 N12 1.345 . S
C13 H18 0.930 . S
C14 N11 1.390 . S
C14 C15 1.346 . S
C14 H19 0.930 . S
C15 N12 1.336 . S
C15 C14 1.346 . S
C15 H22 0.929 . S
C16 O6 1.282 . S
C16 O17 1.216 . S
O17 C16 1.216 . S
H18 C13 0.930 . S
H19 C14 0.930 . S
O20 Cu0 1.959 . S
O20 C7 1.251 . S
H21 C4 0.930 . S
H22 C15 0.929 . S
Cu23 N24 1.999 . S
Cu23 O29 1.974 . S
Cu23 N34 1.985 . S
Cu23 O43 1.959 . S
N24 Cu23 1.999 . S
N24 C26 1.263 . S
N24 C28 1.389 . S
N25 C26 1.358 . S
N25 C27 1.400 . S
C26 N24 1.263 . S
C26 N25 1.358 . S
C26 H32 0.930 . S
C27 N25 1.400 . S
C27 C28 1.351 . S
C27 H44 0.930 . S
C28 N24 1.389 . S
C28 C27 1.351 . S
C28 H33 0.930 . S
O29 Cu23 1.974 . S
O29 C39 1.282 . S
C30 O31 1.261 1_655 S
C30 O43 1.251 . S
O31 C30 1.261 1_455 S
H32 C26 0.930 . S
H33 C28 0.930 . S
N34 Cu23 1.985 . S
N34 C36 1.335 . S
N34 C37 1.390 . S
N35 C36 1.345 1_455 S
N35 C38 1.336 1_455 S
C36 N34 1.335 . S
C36 N35 1.345 1_655 S
C36 H41 0.930 . S
C37 N34 1.390 . S
C37 C38 1.346 . S
C37 H42 0.930 . S
C38 N35 1.336 1_655 S
C38 C37 1.346 . S
C38 H45 0.929 1_554 S
C39 O29 1.282 . S
C39 O40 1.216 . S
O40 C39 1.216 . S
H41 C36 0.930 . S
H42 C37 0.930 . S
O43 Cu23 1.959 . S
O43 C30 1.251 . S
H44 C27 0.930 . S
H45 C38 0.929 1_556 S
Cu46 N47 1.999 . S
Cu46 O52 1.974 . S
Cu46 N57 1.985 . S
Cu46 O66 1.959 . S
N47 Cu46 1.999 . S
N47 C49 1.263 . S
N47 C51 1.389 . S
N48 C49 1.358 . S
N48 C50 1.400 . S
C49 N47 1.263 . S
C49 N48 1.358 . S
C49 H55 0.930 . S
C50 N48 1.400 . S
C50 C51 1.351 . S
C50 H67 0.930 . S
C51 N47 1.389 . S
C51 C50 1.351 . S
C51 H56 0.930 . S
O52 Cu46 1.974 . S
O52 C62 1.282 . S
C53 O54 1.261 . S
C53 O66 1.251 . S
O54 C53 1.261 . S
H55 C49 0.930 . S
H56 C51 0.930 . S
N57 Cu46 1.985 . S
N57 C59 1.335 . S
N57 C60 1.390 . S
N58 C59 1.345 . S
N58 C61 1.336 . S
C59 N57 1.335 . S
C59 N58 1.345 . S
C59 H64 0.930 . S
C60 N57 1.390 . S
C60 C61 1.346 . S
C60 H65 0.930 . S
C61 N58 1.336 . S
C61 C60 1.346 . S
C61 H68 0.929 . S
C62 O52 1.282 . S
C62 O63 1.216 . S
O63 C62 1.216 . S
H64 C59 0.930 . S
H65 C60 0.930 . S
O66 Cu46 1.959 . S
O66 C53 1.251 . S
H67 C50 0.930 . S
H68 C61 0.929 . S
Cu69 N70 1.999 . S
Cu69 O75 1.974 . S
Cu69 N80 1.985 . S
Cu69 O89 1.959 . S
N70 Cu69 1.999 . S
N70 C72 1.263 . S
N70 C74 1.389 . S
N71 C72 1.358 . S
N71 C73 1.400 . S
C72 N70 1.263 . S
C72 N71 1.358 . S
C72 H78 0.930 . S
C73 N71 1.400 . S
C73 C74 1.351 . S
C73 H90 0.930 . S
C74 N70 1.389 . S
C74 C73 1.351 . S
C74 H79 0.930 . S
O75 Cu69 1.974 . S
O75 C85 1.282 . S
C76 O77 1.261 . S
C76 O89 1.251 . S
O77 C76 1.261 . S
H78 C72 0.930 . S
H79 C74 0.930 . S
N80 Cu69 1.985 . S
N80 C82 1.335 . S
N80 C83 1.390 . S
N81 C82 1.345 . S
N81 C84 1.336 . S
C82 N80 1.335 . S
C82 N81 1.345 . S
C82 H87 0.930 . S
C83 N80 1.390 . S
C83 C84 1.346 . S
C83 H88 0.930 . S
C84 N81 1.336 . S
C84 C83 1.346 . S
C84 H91 0.929 1_554 S
C85 O75 1.282 . S
C85 O86 1.216 . S
O86 C85 1.216 . S
H87 C82 0.930 . S
H88 C83 0.930 . S
O89 Cu69 1.959 . S
O89 C76 1.251 . S
H90 C73 0.930 . S
H91 C84 0.929 1_556 S
Cu92 N93 1.999 . S
Cu92 O98 1.974 . S
Cu92 N103 1.985 . S
Cu92 O112 1.959 . S
N93 Cu92 1.999 . S
N93 C95 1.263 . S
N93 C97 1.389 . S
N94 C95 1.358 . S
N94 C96 1.400 . S
C95 N93 1.263 . S
C95 N94 1.358 . S
C95 H101 0.930 . S
C96 N94 1.400 . S
C96 C97 1.351 . S
C96 H113 0.930 . S
C97 N93 1.389 . S
C97 C96 1.351 . S
C97 H102 0.930 . S
O98 Cu92 1.974 . S
O98 C108 1.282 . S
C99 O100 1.261 . S
C99 O112 1.251 . S
O100 C99 1.261 . S
H101 C95 0.930 . S
H102 C97 0.930 . S
N103 Cu92 1.985 . S
N103 C105 1.335 . S
N103 C106 1.390 . S
N104 C105 1.345 . S
N104 C107 1.336 . S
C105 N103 1.335 . S
C105 N104 1.345 . S
C105 H110 0.930 . S
C106 N103 1.390 . S
C106 C107 1.346 . S
C106 H111 0.930 . S
C107 N104 1.336 . S
C107 C106 1.346 . S
C107 H114 0.929 . S
C108 O98 1.282 . S
C108 O109 1.216 . S
O109 C108 1.216 . S
H110 C105 0.930 . S
H111 C106 0.930 . S
O112 Cu92 1.959 . S
O112 C99 1.251 . S
H113 C96 0.930 . S
H114 C107 0.929 . S
Cu115 N116 1.999 . S
Cu115 O121 1.974 . S
Cu115 N126 1.985 . S
Cu115 O135 1.959 . S
N116 Cu115 1.999 . S
N116 C118 1.263 . S
N116 C120 1.389 . S
N117 C118 1.358 . S
N117 C119 1.400 . S
C118 N116 1.263 . S
C118 N117 1.358 . S
C118 H124 0.930 . S
C119 N117 1.400 . S
C119 C120 1.351 . S
C119 H136 0.930 . S
C120 N116 1.389 . S
C120 C119 1.351 . S
C120 H125 0.930 . S
O121 Cu115 1.974 . S
O121 C131 1.282 . S
C122 O123 1.261 . S
C122 O135 1.251 . S
O123 C122 1.261 . S
H124 C118 0.930 . S
H125 C120 0.930 . S
N126 Cu115 1.985 . S
N126 C128 1.335 . S
N126 C129 1.390 . S
N127 C128 1.345 . S
N127 C130 1.336 . S
C128 N126 1.335 . S
C128 N127 1.345 . S
C128 H133 0.930 . S
C129 N126 1.390 . S
C129 C130 1.346 . S
C129 H134 0.930 . S
C130 N127 1.336 . S
C130 C129 1.346 . S
C130 H137 0.929 . S
C131 O121 1.282 . S
C131 O132 1.216 . S
O132 C131 1.216 . S
H133 C128 0.930 . S
H134 C129 0.930 . S
O135 Cu115 1.959 . S
O135 C122 1.251 . S
H136 C119 0.930 . S
H137 C130 0.929 . S
Cu138 N139 1.999 . S
Cu138 O144 1.974 . S
Cu138 N149 1.985 . S
Cu138 O158 1.959 . S
N139 Cu138 1.999 . S
N139 C141 1.263 . S
N139 C143 1.389 . S
N140 C141 1.358 . S
N140 C142 1.400 . S
C141 N139 1.263 . S
C141 N140 1.358 . S
C141 H147 0.930 . S
C142 N140 1.400 . S
C142 C143 1.351 . S
C142 H159 0.930 . S
C143 N139 1.389 . S
C143 C142 1.351 . S
C143 H148 0.930 . S
O144 Cu138 1.974 . S
O144 C154 1.282 . S
C145 O146 1.261 . S
C145 O158 1.251 . S
O146 C145 1.261 . S
H147 C141 0.930 . S
H148 C143 0.930 . S
N149 Cu138 1.985 . S
N149 C151 1.335 . S
N149 C152 1.390 . S
N150 C151 1.345 . S
N150 C153 1.336 . S
C151 N149 1.335 . S
C151 N150 1.345 . S
C151 H156 0.930 . S
C152 N149 1.390 . S
C152 C153 1.346 . S
C152 H157 0.930 . S
C153 N150 1.336 . S
C153 C152 1.346 . S
C153 H160 0.929 . S
C154 O144 1.282 . S
C154 O155 1.216 . S
O155 C154 1.216 . S
H156 C151 0.930 . S
H157 C152 0.930 . S
O158 Cu138 1.959 . S
O158 C145 1.251 . S
H159 C142 0.930 . S
H160 C153 0.929 . S
Cu161 N162 1.999 . S
Cu161 O167 1.974 . S
Cu161 N172 1.985 . S
Cu161 O181 1.959 . S
N162 Cu161 1.999 . S
N162 C164 1.263 . S
N162 C166 1.389 . S
N163 C164 1.358 . S
N163 C165 1.400 . S
C164 N162 1.263 . S
C164 N163 1.358 . S
C164 H170 0.930 . S
C165 N163 1.400 . S
C165 C166 1.351 . S
C165 H182 0.930 . S
C166 N162 1.389 . S
C166 C165 1.351 . S
C166 H171 0.930 . S
O167 Cu161 1.974 . S
O167 C177 1.282 . S
C168 O169 1.261 1_655 S
C168 O181 1.251 . S
O169 C168 1.261 1_455 S
H170 C164 0.930 . S
H171 C166 0.930 . S
N172 Cu161 1.985 . S
N172 C174 1.335 . S
N172 C175 1.390 . S
N173 C174 1.345 1_455 S
N173 C176 1.336 1_455 S
C174 N172 1.335 . S
C174 N173 1.345 1_655 S
C174 H179 0.930 . S
C175 N172 1.390 . S
C175 C176 1.346 . S
C175 H180 0.930 . S
C176 N173 1.336 1_655 S
C176 C175 1.346 . S
C176 H183 0.929 . S
C177 O167 1.282 . S
C177 O178 1.216 . S
O178 C177 1.216 . S
H179 C174 0.930 . S
H180 C175 0.930 . S
O181 Cu161 1.959 . S
O181 C168 1.251 . S
H182 C165 0.930 . S
H183 C176 0.929 . S
Cu184 N185 1.999 . S
Cu184 O190 1.974 . S
Cu184 N195 1.985 . S
Cu184 O204 1.959 . S
N185 Cu184 1.999 . S
N185 C187 1.263 . S
N185 C189 1.389 . S
N186 C187 1.358 . S
N186 C188 1.400 . S
C187 N185 1.263 . S
C187 N186 1.358 . S
C187 H193 0.930 . S
C188 N186 1.400 . S
C188 C189 1.351 . S
C188 H205 0.930 . S
C189 N185 1.389 . S
C189 C188 1.351 . S
C189 H194 0.930 . S
O190 Cu184 1.974 . S
O190 C200 1.282 . S
C191 O192 1.261 . S
C191 O204 1.251 . S
O192 C191 1.261 . S
H193 C187 0.930 . S
H194 C189 0.930 . S
N195 Cu184 1.985 . S
N195 C197 1.335 . S
N195 C198 1.390 . S
N196 C197 1.345 . S
N196 C199 1.336 . S
C197 N195 1.335 . S
C197 N196 1.345 . S
C197 H202 0.930 . S
C198 N195 1.390 . S
C198 C199 1.346 . S
C198 H203 0.930 . S
C199 N196 1.336 . S
C199 C198 1.346 . S
C199 H206 0.929 1_556 S
C200 O190 1.282 . S
C200 O201 1.216 . S
O201 C200 1.216 . S
H202 C197 0.930 . S
H203 C198 0.930 . S
O204 Cu184 1.959 . S
O204 C191 1.251 . S
H205 C188 0.930 . S
H206 C199 0.929 1_554 S
Cu207 N208 1.999 . S
Cu207 O213 1.974 . S
Cu207 N218 1.985 . S
Cu207 O227 1.959 . S
N208 Cu207 1.999 . S
N208 C210 1.263 . S
N208 C212 1.389 . S
N209 C210 1.358 1_655 S
N209 C211 1.400 . S
C210 N208 1.263 . S
C210 N209 1.358 1_455 S
C210 H216 0.930 . S
C211 N209 1.400 . S
C211 C212 1.351 1_655 S
C211 H228 0.930 . S
C212 N208 1.389 . S
C212 C211 1.351 1_455 S
C212 H217 0.930 . S
O213 Cu207 1.974 . S
O213 C223 1.282 . S
C214 O215 1.261 . S
C214 O227 1.251 . S
O215 C214 1.261 . S
H216 C210 0.930 . S
H217 C212 0.930 . S
N218 Cu207 1.985 . S
N218 C220 1.335 . S
N218 C221 1.390 . S
N219 C220 1.345 . S
N219 C222 1.336 . S
C220 N218 1.335 . S
C220 N219 1.345 . S
C220 H225 0.930 . S
C221 N218 1.390 . S
C221 C222 1.346 . S
C221 H226 0.930 . S
C222 N219 1.336 . S
C222 C221 1.346 . S
C222 H229 0.929 . S
C223 O213 1.282 . S
C223 O224 1.216 . S
O224 C223 1.216 . S
H225 C220 0.930 . S
H226 C221 0.930 . S
O227 Cu207 1.959 . S
O227 C214 1.251 . S
H228 C211 0.930 . S
H229 C222 0.929 . S
Cu230 N231 1.999 . S
Cu230 O236 1.974 . S
Cu230 N241 1.985 . S
Cu230 O250 1.959 . S
N231 Cu230 1.999 . S
N231 C233 1.263 . S
N231 C235 1.389 . S
N232 C233 1.358 . S
N232 C234 1.400 . S
C233 N231 1.263 . S
C233 N232 1.358 . S
C233 H239 0.930 . S
C234 N232 1.400 . S
C234 C235 1.351 . S
C234 H251 0.930 . S
C235 N231 1.389 . S
C235 C234 1.351 . S
C235 H240 0.930 . S
O236 Cu230 1.974 . S
O236 C246 1.282 . S
C237 O238 1.261 . S
C237 O250 1.251 . S
O238 C237 1.261 . S
H239 C233 0.930 . S
H240 C235 0.930 . S
N241 Cu230 1.985 . S
N241 C243 1.335 . S
N241 C244 1.390 . S
N242 C243 1.345 . S
N242 C245 1.336 . S
C243 N241 1.335 . S
C243 N242 1.345 . S
C243 H248 0.930 . S
C244 N241 1.390 . S
C244 C245 1.346 . S
C244 H249 0.930 . S
C245 N242 1.336 . S
C245 C244 1.346 . S
C245 H252 0.929 1_556 S
C246 O236 1.282 . S
C246 O247 1.216 . S
O247 C246 1.216 . S
H248 C243 0.930 . S
H249 C244 0.930 . S
O250 Cu230 1.959 . S
O250 C237 1.251 . S
H251 C234 0.930 . S
H252 C245 0.929 1_554 S
Cu253 N254 1.999 . S
Cu253 O259 1.974 . S
Cu253 N264 1.985 . S
Cu253 O273 1.959 . S
N254 Cu253 1.999 . S
N254 C256 1.263 . S
N254 C258 1.389 . S
N255 C256 1.358 . S
N255 C257 1.400 . S
C256 N254 1.263 . S
C256 N255 1.358 . S
C256 H262 0.930 . S
C257 N255 1.400 . S
C257 C258 1.351 . S
C257 H274 0.930 . S
C258 N254 1.389 . S
C258 C257 1.351 . S
C258 H263 0.930 . S
O259 Cu253 1.974 . S
O259 C269 1.282 . S
C260 O261 1.261 . S
C260 O273 1.251 . S
O261 C260 1.261 . S
H262 C256 0.930 . S
H263 C258 0.930 . S
N264 Cu253 1.985 . S
N264 C266 1.335 . S
N264 C267 1.390 . S
N265 C266 1.345 . S
N265 C268 1.336 . S
C266 N264 1.335 . S
C266 N265 1.345 . S
C266 H271 0.930 . S
C267 N264 1.390 . S
C267 C268 1.346 . S
C267 H272 0.930 . S
C268 N265 1.336 . S
C268 C267 1.346 . S
C268 H275 0.929 . S
C269 O259 1.282 . S
C269 O270 1.216 . S
O270 C269 1.216 . S
H271 C266 0.930 . S
H272 C267 0.930 . S
O273 Cu253 1.959 . S
O273 C260 1.251 . S
H274 C257 0.930 . S
H275 C268 0.929 . S
Cu276 N277 1.999 . S
Cu276 O282 1.974 . S
Cu276 N287 1.985 . S
Cu276 O296 1.959 . S
N277 Cu276 1.999 . S
N277 C279 1.263 . S
N277 C281 1.389 . S
N278 C279 1.358 . S
N278 C280 1.400 . S
C279 N277 1.263 . S
C279 N278 1.358 . S
C279 H285 0.930 . S
C280 N278 1.400 . S
C280 C281 1.351 . S
C280 H297 0.930 . S
C281 N277 1.389 . S
C281 C280 1.351 . S
C281 H286 0.930 . S
O282 Cu276 1.974 . S
O282 C292 1.282 . S
C283 O284 1.261 . S
C283 O296 1.251 . S
O284 C283 1.261 . S
H285 C279 0.930 . S
H286 C281 0.930 . S
N287 Cu276 1.985 . S
N287 C289 1.335 . S
N287 C290 1.390 . S
N288 C289 1.345 . S
N288 C291 1.336 . S
C289 N287 1.335 . S
C289 N288 1.345 . S
C289 H294 0.930 . S
C290 N287 1.390 . S
C290 C291 1.346 . S
C290 H295 0.930 . S
C291 N288 1.336 . S
C291 C290 1.346 . S
C291 H298 0.929 . S
C292 O282 1.282 . S
C292 O293 1.216 . S
O293 C292 1.216 . S
H294 C289 0.930 . S
H295 C290 0.930 . S
O296 Cu276 1.959 . S
O296 C283 1.251 . S
H297 C280 0.930 . S
H298 C291 0.929 . S
Cu299 N300 1.999 . S
Cu299 O305 1.974 . S
Cu299 N310 1.985 . S
Cu299 O319 1.959 . S
N300 Cu299 1.999 . S
N300 C302 1.263 . S
N300 C304 1.389 . S
N301 C302 1.358 . S
N301 C303 1.400 . S
C302 N300 1.263 . S
C302 N301 1.358 . S
C302 H308 0.930 . S
C303 N301 1.400 . S
C303 C304 1.351 . S
C303 H320 0.930 . S
C304 N300 1.389 . S
C304 C303 1.351 . S
C304 H309 0.930 . S
O305 Cu299 1.974 . S
O305 C315 1.282 . S
C306 O307 1.261 . S
C306 O319 1.251 . S
O307 C306 1.261 . S
H308 C302 0.930 . S
H309 C304 0.930 . S
N310 Cu299 1.985 . S
N310 C312 1.335 . S
N310 C313 1.390 . S
N311 C312 1.345 . S
N311 C314 1.336 . S
C312 N310 1.335 . S
C312 N311 1.345 . S
C312 H317 0.930 . S
C313 N310 1.390 . S
C313 C314 1.346 . S
C313 H318 0.930 . S
C314 N311 1.336 . S
C314 C313 1.346 . S
C314 H321 0.929 . S
C315 O305 1.282 . S
C315 O316 1.216 . S
O316 C315 1.216 . S
H317 C312 0.930 . S
H318 C313 0.930 . S
O319 Cu299 1.959 . S
O319 C306 1.251 . S
H320 C303 0.930 . S
H321 C314 0.929 . S
Cu322 N323 1.999 . S
Cu322 O328 1.974 . S
Cu322 N333 1.985 . S
Cu322 O342 1.959 . S
N323 Cu322 1.999 . S
N323 C325 1.263 . S
N323 C327 1.389 . S
N324 C325 1.358 . S
N324 C326 1.400 . S
C325 N323 1.263 . S
C325 N324 1.358 . S
C325 H331 0.930 . S
C326 N324 1.400 . S
C326 C327 1.351 . S
C326 H343 0.930 . S
C327 N323 1.389 . S
C327 C326 1.351 . S
C327 H332 0.930 . S
O328 Cu322 1.974 . S
O328 C338 1.282 . S
C329 O330 1.261 . S
C329 O342 1.251 . S
O330 C329 1.261 . S
H331 C325 0.930 . S
H332 C327 0.930 . S
N333 Cu322 1.985 . S
N333 C335 1.335 . S
N333 C336 1.390 . S
N334 C335 1.345 . S
N334 C337 1.336 . S
C335 N333 1.335 . S
C335 N334 1.345 . S
C335 H340 0.930 . S
C336 N333 1.390 . S
C336 C337 1.346 . S
C336 H341 0.930 . S
C337 N334 1.336 . S
C337 C336 1.346 . S
C337 H344 0.929 . S
C338 O328 1.282 . S
C338 O339 1.216 . S
O339 C338 1.216 . S
H340 C335 0.930 . S
H341 C336 0.930 . S
O342 Cu322 1.959 . S
O342 C329 1.251 . S
H343 C326 0.930 . S
H344 C337 0.929 . S
Cu345 N346 1.999 . S
Cu345 O351 1.974 . S
Cu345 N356 1.985 . S
Cu345 O365 1.959 . S
N346 Cu345 1.999 . S
N346 C348 1.263 . S
N346 C350 1.389 . S
N347 C348 1.358 1_655 S
N347 C349 1.400 . S
C348 N346 1.263 . S
C348 N347 1.358 1_455 S
C348 H354 0.930 . S
C349 N347 1.400 . S
C349 C350 1.351 1_655 S
C349 H366 0.930 . S
C350 N346 1.389 . S
C350 C349 1.351 1_455 S
C350 H355 0.930 . S
O351 Cu345 1.974 . S
O351 C361 1.282 . S
C352 O353 1.261 . S
C352 O365 1.251 . S
O353 C352 1.261 . S
H354 C348 0.930 . S
H355 C350 0.930 . S
N356 Cu345 1.985 . S
N356 C358 1.335 . S
N356 C359 1.390 . S
N357 C358 1.345 . S
N357 C360 1.336 . S
C358 N356 1.335 . S
C358 N357 1.345 . S
C358 H363 0.930 . S
C359 N356 1.390 . S
C359 C360 1.346 . S
C359 H364 0.930 . S
C360 N357 1.336 . S
C360 C359 1.346 . S
C360 H367 0.929 . S
C361 O351 1.282 . S
C361 O362 1.216 . S
O362 C361 1.216 . S
H363 C358 0.930 . S
H364 C359 0.930 . S
O365 Cu345 1.959 . S
O365 C352 1.251 . S
H366 C349 0.930 . S
H367 C360 0.929 . S
C368 C369 1.387 . S
C368 H372 0.950 . S
C368 C377 1.390 . S
C369 C368 1.387 . S
C369 C371 1.387 . S
H370 C377 0.950 . S
C371 C369 1.387 . S
C371 C373 1.390 . S
C371 H375 0.950 . S
H372 C368 0.950 . S
C373 C371 1.390 . S
C373 C374 1.387 . S
C373 H376 0.950 . S
C374 C373 1.387 . S
C374 C377 1.387 . S
H375 C371 0.950 . S
H376 C373 0.950 . S
C377 C368 1.390 . S
C377 H370 0.950 . S
C377 C374 1.387 . S
C378 C379 1.387 . S
C378 H382 0.950 . S
C378 C387 1.390 . S
C379 C378 1.387 . S
C379 C381 1.387 . S
H380 C387 0.950 . S
C381 C379 1.387 . S
C381 C383 1.390 . S
C381 H385 0.950 . S
H382 C378 0.950 . S
C383 C381 1.390 . S
C383 C384 1.387 . S
C383 H386 0.950 . S
C384 C383 1.387 . S
C384 C387 1.387 . S
H385 C381 0.950 . S
H386 C383 0.950 . S
C387 C378 1.390 . S
C387 H380 0.950 . S
C387 C384 1.387 . S
C388 C389 1.387 . S
C388 H392 0.950 . S
C388 C397 1.390 . S
C389 C388 1.387 . S
C389 C391 1.387 . S
H390 C397 0.950 . S
C391 C389 1.387 . S
C391 C393 1.390 . S
C391 H395 0.950 . S
H392 C388 0.950 . S
C393 C391 1.390 . S
C393 C394 1.387 . S
C393 H396 0.950 . S
C394 C393 1.387 . S
C394 C397 1.387 . S
H395 C391 0.950 . S
H396 C393 0.950 . S
C397 C388 1.390 . S
C397 H390 0.950 . S
C397 C394 1.387 . S
C398 C399 1.387 . S
C398 H402 0.950 . S
C398 C407 1.390 . S
C399 C398 1.387 . S
C399 C401 1.387 . S
H400 C407 0.950 . S
C401 C399 1.387 . S
C401 C403 1.390 . S
C401 H405 0.950 . S
H402 C398 0.950 . S
C403 C401 1.390 . S
C403 C404 1.387 . S
C403 H406 0.950 . S
C404 C403 1.387 . S
C404 C407 1.387 . S
H405 C401 0.950 . S
H406 C403 0.950 . S
C407 C398 1.390 . S
C407 H400 0.950 . S
C407 C404 1.387 . S
C408 C409 1.387 . S
C408 H412 0.950 . S
C408 C417 1.390 . S
C409 C408 1.387 . S
C409 C411 1.387 . S
H410 C417 0.950 . S
C411 C409 1.387 . S
C411 C413 1.390 . S
C411 H415 0.950 . S
H412 C408 0.950 . S
C413 C411 1.390 . S
C413 C414 1.387 . S
C413 H416 0.950 . S
C414 C413 1.387 . S
C414 C417 1.387 . S
H415 C411 0.950 . S
H416 C413 0.950 . S
C417 C408 1.390 . S
C417 H410 0.950 . S
C417 C414 1.387 . S
C418 C419 1.387 . S
C418 H422 0.950 . S
C418 C427 1.390 . S
C419 C418 1.387 . S
C419 C421 1.387 . S
H420 C427 0.950 . S
C421 C419 1.387 . S
C421 C423 1.390 . S
C421 H425 0.950 . S
H422 C418 0.950 . S
C423 C421 1.390 . S
C423 C424 1.387 . S
C423 H426 0.950 . S
C424 C423 1.387 . S
C424 C427 1.387 . S
H425 C421 0.950 . S
H426 C423 0.950 . S
C427 C418 1.390 . S
C427 H420 0.950 . S
C427 C424 1.387 . S
C428 C429 1.387 . S
C428 H432 0.950 . S
C428 C437 1.390 . S
C429 C428 1.387 . S
C429 C431 1.387 . S
H430 C437 0.950 . S
C431 C429 1.387 . S
C431 C433 1.390 . S
C431 H435 0.950 . S
H432 C428 0.950 . S
C433 C431 1.390 . S
C433 C434 1.387 . S
C433 H436 0.950 . S
C434 C433 1.387 . S
C434 C437 1.387 . S
H435 C431 0.950 . S
H436 C433 0.950 . S
C437 C428 1.390 . S
C437 H430 0.950 . S
C437 C434 1.387 . S
C438 C439 1.387 . S
C438 H442 0.950 . S
C438 C447 1.390 . S
C439 C438 1.387 . S
C439 C441 1.387 . S
H440 C447 0.950 . S
C441 C439 1.387 . S
C441 C443 1.390 . S
C441 H445 0.950 . S
H442 C438 0.950 . S
C443 C441 1.390 . S
C443 C444 1.387 . S
C443 H446 0.950 . S
C444 C443 1.387 . S
C444 C447 1.387 . S
H445 C441 0.950 . S
H446 C443 0.950 . S
C447 C438 1.390 . S
C447 H440 0.950 . S
C447 C444 1.387 . S
C448 C449 1.387 . S
C448 H452 0.950 . S
C448 C457 1.390 . S
C449 C448 1.387 . S
C449 C451 1.387 . S
H450 C457 0.950 . S
C451 C449 1.387 . S
C451 C453 1.390 . S
C451 H455 0.950 . S
H452 C448 0.950 . S
C453 C451 1.390 . S
C453 C454 1.387 . S
C453 H456 0.950 . S
C454 C453 1.387 . S
C454 C457 1.387 . S
H455 C451 0.950 . S
H456 C453 0.950 . S
C457 C448 1.390 . S
C457 H450 0.950 . S
C457 C454 1.387 . S
C458 C459 1.387 . S
C458 H462 0.950 . S
C458 C467 1.390 1_545 S
C459 C458 1.387 . S
C459 C461 1.387 . S
H460 C467 0.950 . S
C461 C459 1.387 . S
C461 C463 1.390 . S
C461 H465 0.950 1_455 S
H462 C458 0.950 . S
C463 C461 1.390 . S
C463 C464 1.387 . S
C463 H466 0.950 . S
C464 C463 1.387 . S
C464 C467 1.387 1_545 S
H465 C461 0.950 1_655 S
H466 C463 0.950 . S
C467 C458 1.390 1_565 S
C467 H460 0.950 . S
C467 C464 1.387 1_565 S
C468 C469 1.387 . S
C468 H472 0.950 . S
C468 C477 1.390 . S
C469 C468 1.387 . S
C469 C471 1.387 . S
H470 C477 0.950 . S
C471 C469 1.387 . S
C471 C473 1.390 1_545 S
C471 H475 0.950 1_545 S
H472 C468 0.950 . S
C473 C471 1.390 1_565 S
C473 C474 1.387 1_565 S
C473 H476 0.950 . S
C474 C473 1.387 1_545 S
C474 C477 1.387 . S
H475 C471 0.950 1_565 S
H476 C473 0.950 . S
C477 C468 1.390 . S
C477 H470 0.950 . S
C477 C474 1.387 . S
C478 C479 1.387 . S
C478 H482 0.950 . S
C478 C487 1.390 . S
C479 C478 1.387 . S
C479 C481 1.387 . S
H480 C487 0.950 . S
C481 C479 1.387 . S
C481 C483 1.390 . S
C481 H485 0.950 . S
H482 C478 0.950 . S
C483 C481 1.390 . S
C483 C484 1.387 . S
C483 H486 0.950 . S
C484 C483 1.387 . S
C484 C487 1.387 . S
H485 C481 0.950 . S
H486 C483 0.950 . S
C487 C478 1.390 . S
C487 H480 0.950 . S
C487 C484 1.387 . S
C488 C489 1.387 . S
C488 H492 0.950 . S
C488 C497 1.390 . S
C489 C488 1.387 . S
C489 C491 1.387 . S
H490 C497 0.950 . S
C491 C489 1.387 . S
C491 C493 1.390 . S
C491 H495 0.950 . S
H492 C488 0.950 . S
C493 C491 1.390 . S
C493 C494 1.387 . S
C493 H496 0.950 . S
C494 C493 1.387 . S
C494 C497 1.387 . S
H495 C491 0.950 . S
H496 C493 0.950 . S
C497 C488 1.390 . S
C497 H490 0.950 . S
C497 C494 1.387 . S
C498 C499 1.387 . S
C498 H502 0.950 . S
C498 C507 1.390 . S
C499 C498 1.387 . S
C499 C501 1.387 1_545 S
H500 C507 0.950 . S
C501 C499 1.387 1_565 S
C501 C503 1.390 . S
C501 H505 0.950 . S
H502 C498 0.950 . S
C503 C501 1.390 . S
C503 C504 1.387 1_565 S
C503 H506 0.950 . S
C504 C503 1.387 1_545 S
C504 C507 1.387 . S
H505 C501 0.950 . S
H506 C503 0.950 . S
C507 C498 1.390 . S
C507 H500 0.950 . S
C507 C504 1.387 . S
C508 C509 1.387 1_565 S
C508 H512 0.950 . S
C508 C517 1.390 . S
C509 C508 1.387 1_545 S
C509 C511 1.387 . S
H510 C517 0.950 . S
C511 C509 1.387 . S
C511 C513 1.390 . S
C511 H515 0.950 . S
H512 C508 0.950 . S
C513 C511 1.390 . S
C513 C514 1.387 . S
C513 H516 0.950 . S
C514 C513 1.387 . S
C514 C517 1.387 1_545 S
H515 C511 0.950 . S
H516 C513 0.950 . S
C517 C508 1.390 . S
C517 H510 0.950 . S
C517 C514 1.387 1_565 S
C518 C519 1.387 . S
C518 H522 0.950 . S
C518 C527 1.390 . S
C519 C518 1.387 . S
C519 C521 1.387 . S
H520 C527 0.950 . S
C521 C519 1.387 . S
C521 C523 1.390 . S
C521 H525 0.950 . S
H522 C518 0.950 . S
C523 C521 1.390 . S
C523 C524 1.387 . S
C523 H526 0.950 . S
C524 C523 1.387 . S
C524 C527 1.387 . S
H525 C521 0.950 . S
H526 C523 0.950 . S
C527 C518 1.390 . S
C527 H520 0.950 . S
C527 C524 1.387 . S
C528 C529 1.387 . S
C528 H532 0.950 . S
C528 C537 1.390 . S
C529 C528 1.387 . S
C529 C531 1.387 . S
H530 C537 0.950 . S
C531 C529 1.387 . S
C531 C533 1.390 . S
C531 H535 0.950 . S
H532 C528 0.950 . S
C533 C531 1.390 . S
C533 C534 1.387 . S
C533 H536 0.950 . S
C534 C533 1.387 . S
C534 C537 1.387 . S
H535 C531 0.950 . S
H536 C533 0.950 . S
C537 C528 1.390 . S
C537 H530 0.950 . S
C537 C534 1.387 . S
C538 C539 1.387 . S
C538 H542 0.950 . S
C538 C547 1.390 . S
C539 C538 1.387 . S
C539 C541 1.387 . S
H540 C547 0.950 . S
C541 C539 1.387 . S
C541 C543 1.390 . S
C541 H545 0.950 . S
H542 C538 0.950 . S
C543 C541 1.390 . S
C543 C544 1.387 . S
C543 H546 0.950 . S
C544 C543 1.387 . S
C544 C547 1.387 . S
H545 C541 0.950 . S
H546 C543 0.950 . S
C547 C538 1.390 . S
C547 H540 0.950 . S
C547 C544 1.387 . S
C548 C549 1.387 . S
C548 H552 0.950 . S
C548 C557 1.390 . S
C549 C548 1.387 . S
C549 C551 1.387 . S
H550 C557 0.950 . S
C551 C549 1.387 . S
C551 C553 1.390 . S
C551 H555 0.950 . S
H552 C548 0.950 . S
C553 C551 1.390 . S
C553 C554 1.387 . S
C553 H556 0.950 . S
C554 C553 1.387 . S
C554 C557 1.387 . S
H555 C551 0.950 . S
H556 C553 0.950 . S
C557 C548 1.390 . S
C557 H550 0.950 . S
C557 C554 1.387 . S
C558 C559 1.387 . S
C558 H562 0.950 . S
C558 C567 1.390 . S
C559 C558 1.387 . S
C559 C561 1.387 . S
H560 C567 0.950 . S
C561 C559 1.387 . S
C561 C563 1.390 . S
C561 H565 0.950 . S
H562 C558 0.950 . S
C563 C561 1.390 . S
C563 C564 1.387 . S
C563 H566 0.950 . S
C564 C563 1.387 . S
C564 C567 1.387 . S
H565 C561 0.950 . S
H566 C563 0.950 . S
C567 C558 1.390 . S
C567 H560 0.950 . S
C567 C564 1.387 . S
C568 C569 1.387 . S
C568 H572 0.950 . S
C568 C577 1.390 . S
C569 C568 1.387 . S
C569 C571 1.387 . S
H570 C577 0.950 . S
C571 C569 1.387 . S
C571 C573 1.390 . S
C571 H575 0.950 . S
H572 C568 0.950 . S
C573 C571 1.390 . S
C573 C574 1.387 . S
C573 H576 0.950 . S
C574 C573 1.387 . S
C574 C577 1.387 . S
H575 C571 0.950 . S
H576 C573 0.950 . S
C577 C568 1.390 . S
C577 H570 0.950 . S
C577 C574 1.387 . S
C578 C579 1.387 . S
C578 H582 0.950 . S
C578 C587 1.390 . S
C579 C578 1.387 . S
C579 C581 1.387 . S
H580 C587 0.950 . S
C581 C579 1.387 . S
C581 C583 1.390 . S
C581 H585 0.950 . S
H582 C578 0.950 . S
C583 C581 1.390 . S
C583 C584 1.387 . S
C583 H586 0.950 . S
C584 C583 1.387 . S
C584 C587 1.387 . S
H585 C581 0.950 . S
H586 C583 0.950 . S
C587 C578 1.390 . S
C587 H580 0.950 . S
C587 C584 1.387 . S
C588 C589 1.387 . S
C588 H592 0.950 . S
C588 C597 1.390 . S
C589 C588 1.387 . S
C589 C591 1.387 . S
H590 C597 0.950 . S
C591 C589 1.387 . S
C591 C593 1.390 . S
C591 H595 0.950 . S
H592 C588 0.950 . S
C593 C591 1.390 . S
C593 C594 1.387 . S
C593 H596 0.950 . S
C594 C593 1.387 . S
C594 C597 1.387 . S
H595 C591 0.950 . S
H596 C593 0.950 . S
C597 C588 1.390 . S
C597 H590 0.950 . S
C597 C594 1.387 . S
C598 C599 1.387 . S
C598 H602 0.950 . S
C598 C607 1.390 . S
C599 C598 1.387 . S
C599 C601 1.387 . S
H600 C607 0.950 . S
C601 C599 1.387 . S
C601 C603 1.390 . S
C601 H605 0.950 . S
H602 C598 0.950 . S
C603 C601 1.390 . S
C603 C604 1.387 . S
C603 H606 0.950 . S
C604 C603 1.387 . S
C604 C607 1.387 . S
H605 C601 0.950 . S
H606 C603 0.950 . S
C607 C598 1.390 . S
C607 H600 0.950 . S
C607 C604 1.387 . S
C608 C609 1.387 . S
C608 H612 0.950 . S
C608 C617 1.385 1_454 S
C609 C608 1.387 . S
C609 C611 1.387 . S
H610 C617 0.955 . S
C611 C609 1.387 . S
C611 C613 1.390 1_455 S
C611 H615 0.950 . S
H612 C608 0.950 . S
C613 C611 1.390 1_655 S
C613 C614 1.387 . S
C613 H616 0.950 . S
C614 C613 1.387 . S
C614 C617 1.387 1_554 S
H615 C611 0.950 . S
H616 C613 0.950 . S
C617 C608 1.385 1_656 S
C617 H610 0.955 . S
C617 C614 1.387 1_556 S
C618 C619 1.387 . S
C618 H622 0.950 . S
C618 C627 1.390 1_565 S
C619 C618 1.387 . S
C619 C621 1.387 1_455 S
H620 C627 0.950 . S
C621 C619 1.387 1_655 S
C621 C623 1.390 1_565 S
C621 H625 0.950 . S
H622 C618 0.950 . S
C623 C621 1.390 1_545 S
C623 C624 1.387 1_655 S
C623 H626 0.950 . S
C624 C623 1.387 1_455 S
C624 C627 1.387 . S
H625 C621 0.950 . S
H626 C623 0.950 . S
C627 C618 1.390 1_545 S
C627 H620 0.950 . S
C627 C624 1.387 . S
C628 C629 1.387 . S
C628 H632 0.950 . S
C628 C637 1.390 1_554 S
C629 C628 1.387 . S
C629 C631 1.387 1_545 S
H630 C637 0.950 . S
C631 C629 1.387 1_565 S
C631 C633 1.390 . S
C631 H635 0.950 . S
H632 C628 0.950 . S
C633 C631 1.390 . S
C633 C634 1.387 1_565 S
C633 H636 0.950 . S
C634 C633 1.387 1_545 S
C634 C637 1.387 1_554 S
H635 C631 0.950 . S
H636 C633 0.950 . S
C637 C628 1.390 1_556 S
C637 H630 0.950 . S
C637 C634 1.387 1_556 S
C638 C639 1.387 . S
C638 H642 0.950 . S
C638 C647 1.390 . S
C639 C638 1.387 . S
C639 C641 1.387 . S
H640 C647 0.950 1_554 S
C641 C639 1.387 . S
C641 C643 1.390 . S
C641 H645 0.950 . S
H642 C638 0.950 . S
C643 C641 1.390 . S
C643 C644 1.387 . S
C643 H646 0.950 . S
C644 C643 1.387 . S
C644 C647 1.387 . S
H645 C641 0.950 . S
H646 C643 0.950 . S
C647 C638 1.390 . S
C647 H640 0.950 1_556 S
C647 C644 1.387 . S
C648 C649 1.387 1_565 S
C648 H652 0.950 . S
C648 C657 1.390 1_455 S
C649 C648 1.387 1_545 S
C649 C651 1.387 . S
H650 C657 0.950 . S
C651 C649 1.387 . S
C651 C653 1.390 1_455 S
C651 H655 0.950 . S
H652 C648 0.950 . S
C653 C651 1.390 1_655 S
C653 C654 1.387 . S
C653 H656 0.950 . S
C654 C653 1.387 . S
C654 C657 1.387 1_545 S
H655 C651 0.950 . S
H656 C653 0.950 . S
C657 C648 1.390 1_655 S
C657 H650 0.950 . S
C657 C654 1.387 1_565 S
C658 C659 1.387 . S
C658 H662 0.950 . S
C658 C667 1.390 1_545 S
C659 C658 1.387 . S
C659 C661 1.387 . S
H660 C667 0.950 . S
C661 C659 1.387 . S
C661 C663 1.390 1_545 S
C661 H665 0.950 . S
H662 C658 0.950 . S
C663 C661 1.390 1_565 S
C663 C664 1.387 . S
C663 H666 0.950 . S
C664 C663 1.387 . S
C664 C667 1.387 . S
H665 C661 0.950 . S
H666 C663 0.950 . S
C667 C658 1.390 1_565 S
C667 H660 0.950 . S
C667 C664 1.387 . S
C668 C669 1.387 . S
C668 H672 0.950 . S
C668 C677 1.390 . S
C669 C668 1.387 . S
C669 C671 1.387 . S
H670 C677 0.950 . S
C671 C669 1.387 . S
C671 C673 1.390 . S
C671 H675 0.950 . S
H672 C668 0.950 . S
C673 C671 1.390 . S
C673 C674 1.387 . S
C673 H676 0.950 . S
C674 C673 1.387 . S
C674 C677 1.387 . S
H675 C671 0.950 . S
H676 C673 0.950 . S
C677 C668 1.390 . S
C677 H670 0.950 . S
C677 C674 1.387 . S
C678 C679 1.387 1_655 S
C678 H682 0.950 . S
C678 C687 1.390 . S
C679 C678 1.387 1_455 S
C679 C681 1.387 . S
H680 C687 0.950 . S
C681 C679 1.387 . S
C681 C683 1.390 . S
C681 H685 0.950 . S
H682 C678 0.950 . S
C683 C681 1.390 . S
C683 C684 1.387 . S
C683 H686 0.950 . S
C684 C683 1.387 . S
C684 C687 1.387 1_455 S
H685 C681 0.950 . S
H686 C683 0.950 . S
C687 C678 1.390 . S
C687 H680 0.950 . S
C687 C684 1.387 1_655 S
C369 C16 2.076 . S
C374 C62 2.076 . S
C379 C39 2.167 . S
C384 C85 2.167 . S
C389 C108 2.077 . S
C394 C154 2.077 . S
C399 C177 2.167 . S
C404 C131 2.167 . S
C409 C200 1.599 . S
C414 C246 1.599 . S
C419 N265 1.365 . S
C424 N219 1.365 . S
C429 C338 1.599 . S
C434 C292 1.599 . S
C439 N357 1.364 . S
C444 N311 1.364 . S
C449 C168 2.286 1_455 S
C454 C7 2.311 . S
C459 C30 2.285 1_455 S
C464 C99 2.311 1_545 S
C469 C122 2.286 . S
C474 C53 2.311 1_545 S
C479 C76 2.286 . S
C484 C145 2.311 . S
C489 N347 1.538 . S
C494 C191 1.693 . S
C499 N209 1.538 1_545 S
C504 C283 1.692 . S
C509 C237 1.692 . S
C514 N301 1.537 1_545 S
C519 C329 1.692 . S
C524 N255 1.537 . S
C529 N2 1.144 . S
C534 N94 1.144 . S
C539 N25 0.934 . S
C544 N117 0.934 . S
C549 N140 1.140 . S
C554 N48 1.140 . S
C559 N71 0.931 . S
C564 N163 0.931 . S
C569 N278 1.129 . S
C574 N186 1.129 . S
C579 C306 1.347 . S
C584 C214 1.347 . S
C589 N232 1.129 . S
C594 N324 1.129 . S
C599 C260 1.347 . S
C604 C352 1.347 . S
C609 N12 2.243 . S
C614 N196 2.258 1_554 S
C619 C223 1.963 . S
C624 N35 2.100 1_556 S
C629 N58 2.244 1_545 S
C634 N242 2.258 1_554 S
C639 C269 1.961 . S
C644 N81 2.100 1_556 S
C649 N104 2.243 1_545 S
C654 N288 2.257 . S
C659 N127 2.099 . S
C664 C315 1.961 . S
C669 N334 2.259 . S
C674 N150 2.244 . S
C679 N173 2.099 . S
C684 C361 1.961 . S
