# Generated by pormake.
# Topology umh, (4)-cn, num edge types: 1
# Building blocks:
#     Node 0, Type 0, BuildingBlock: KOZSID_clean_sbu_0, # of connection points: 4
#     Node 1, Type 0, BuildingBlock: KOZSID_clean_sbu_0, # of connection points: 4
#     Node 2, Type 0, BuildingBlock: KOZSID_clean_sbu_0, # of connection points: 4
#     Node 3, Type 0, BuildingBlock: KOZSID_clean_sbu_0, # of connection points: 4
#     Node 4, Type 0, BuildingBlock: KOZSID_clean_sbu_0, # of connection points: 4
#     Node 5, Type 0, BuildingBlock: KOZSID_clean_sbu_0, # of connection points: 4
#     Node 6, Type 0, BuildingBlock: KOZSID_clean_sbu_0, # of connection points: 4
#     Node 7, Type 0, BuildingBlock: KOZSID_clean_sbu_0, # of connection points: 4
#     Node 8, Type 0, BuildingBlock: KOZSID_clean_sbu_0, # of connection points: 4
#     Node 9, Type 0, BuildingBlock: KOZSID_clean_sbu_0, # of connection points: 4
#     Node 10, Type 0, BuildingBlock: KOZSID_clean_sbu_0, # of connection points: 4
#     Node 11, Type 0, BuildingBlock: KOZSID_clean_sbu_0, # of connection points: 4
#     Node 12, Type 0, BuildingBlock: KOZSID_clean_sbu_0, # of connection points: 4
#     Node 13, Type 0, BuildingBlock: KOZSID_clean_sbu_0, # of connection points: 4
#     Node 14, Type 0, BuildingBlock: KOZSID_clean_sbu_0, # of connection points: 4
#     Node 15, Type 0, BuildingBlock: KOZSID_clean_sbu_0, # of connection points: 4
#     Edge 16, Type (0, 0), BuildingBlock: KIFKEQ_clean_linker_1, # of connection points: 2
#     Edge 17, Type (0, 0), BuildingBlock: KIFKEQ_clean_linker_1, # of connection points: 2
#     Edge 18, Type (0, 0), BuildingBlock: KIFKEQ_clean_linker_1, # of connection points: 2
#     Edge 19, Type (0, 0), BuildingBlock: KIFKEQ_clean_linker_1, # of connection points: 2
#     Edge 20, Type (0, 0), BuildingBlock: KIFKEQ_clean_linker_1, # of connection points: 2
#     Edge 21, Type (0, 0), BuildingBlock: KIFKEQ_clean_linker_1, # of connection points: 2
#     Edge 22, Type (0, 0), BuildingBlock: KIFKEQ_clean_linker_1, # of connection points: 2
#     Edge 23, Type (0, 0), BuildingBlock: KIFKEQ_clean_linker_1, # of connection points: 2
#     Edge 24, Type (0, 0), BuildingBlock: KIFKEQ_clean_linker_1, # of connection points: 2
#     Edge 25, Type (0, 0), BuildingBlock: KIFKEQ_clean_linker_1, # of connection points: 2
#     Edge 26, Type (0, 0), BuildingBlock: KIFKEQ_clean_linker_1, # of connection points: 2
#     Edge 27, Type (0, 0), BuildingBlock: KIFKEQ_clean_linker_1, # of connection points: 2
#     Edge 28, Type (0, 0), BuildingBlock: KIFKEQ_clean_linker_1, # of connection points: 2
#     Edge 29, Type (0, 0), BuildingBlock: KIFKEQ_clean_linker_1, # of connection points: 2
#     Edge 30, Type (0, 0), BuildingBlock: KIFKEQ_clean_linker_1, # of connection points: 2
#     Edge 31, Type (0, 0), BuildingBlock: KIFKEQ_clean_linker_1, # of connection points: 2
#     Edge 32, Type (0, 0), BuildingBlock: KIFKEQ_clean_linker_1, # of connection points: 2
#     Edge 33, Type (0, 0), BuildingBlock: KIFKEQ_clean_linker_1, # of connection points: 2
#     Edge 34, Type (0, 0), BuildingBlock: KIFKEQ_clean_linker_1, # of connection points: 2
#     Edge 35, Type (0, 0), BuildingBlock: KIFKEQ_clean_linker_1, # of connection points: 2
#     Edge 36, Type (0, 0), BuildingBlock: KIFKEQ_clean_linker_1, # of connection points: 2
#     Edge 37, Type (0, 0), BuildingBlock: KIFKEQ_clean_linker_1, # of connection points: 2
#     Edge 38, Type (0, 0), BuildingBlock: KIFKEQ_clean_linker_1, # of connection points: 2
#     Edge 39, Type (0, 0), BuildingBlock: KIFKEQ_clean_linker_1, # of connection points: 2
#     Edge 40, Type (0, 0), BuildingBlock: KIFKEQ_clean_linker_1, # of connection points: 2
#     Edge 41, Type (0, 0), BuildingBlock: KIFKEQ_clean_linker_1, # of connection points: 2
#     Edge 42, Type (0, 0), BuildingBlock: KIFKEQ_clean_linker_1, # of connection points: 2
#     Edge 43, Type (0, 0), BuildingBlock: KIFKEQ_clean_linker_1, # of connection points: 2
#     Edge 44, Type (0, 0), BuildingBlock: KIFKEQ_clean_linker_1, # of connection points: 2
#     Edge 45, Type (0, 0), BuildingBlock: KIFKEQ_clean_linker_1, # of connection points: 2
#     Edge 46, Type (0, 0), BuildingBlock: KIFKEQ_clean_linker_1, # of connection points: 2
#     Edge 47, Type (0, 0), BuildingBlock: KIFKEQ_clean_linker_1, # of connection points: 2
# Relax obj value: 0.072
# Max RMSD: 0.155
# Mean RMSD: 0.155
data_MOF--net-umh--node1-KOZSID_clean_sbu_0--edge1-KIFKEQ_clean_linker_1
_symmetry_space_group_name_H-M    P1
_symmetry_Int_Tables_number       1
_symmetry_cell_setting            triclinic
loop_
_symmetry_equiv_pos_as_xyz
'x, y, z'
_cell_length_a     54.884112
_cell_length_b     54.904301
_cell_length_c     60.375885
_cell_angle_alpha  89.995342
_cell_angle_beta   89.952578
_cell_angle_gamma 90.004592
loop_
_atom_site_label
_atom_site_type_symbol
_atom_site_fract_x
_atom_site_fract_y
_atom_site_fract_z
_atom_type_partial_charge
C0 C 0.31046 0.08785 0.1711 0.0
C1 C 0.29145 0.0715 0.17409 0.0
C2 C 0.28929 0.05868 0.15469 0.0
C3 C 0.30713 0.06778 0.14103 0.0
N4 N 0.32036 0.08544 0.15069 0.0
Co5 Co 0.34805 0.10307 0.13718 0.0
N6 N 0.33705 0.09468 0.10688 0.0
C7 C 0.32144 0.07665 0.10162 0.0
C8 C 0.31712 0.07501 0.0793 0.0
C9 C 0.33111 0.09292 0.06991 0.0
C10 C 0.34341 0.10443 0.0871 0.0
N11 N 0.37588 0.12063 0.1236 0.0
C12 C 0.37935 0.12795 0.10236 0.0
C13 C 0.40197 0.13895 0.09997 0.0
C14 C 0.41298 0.13824 0.1204 0.0
C15 C 0.39657 0.12684 0.13413 0.0
N16 N 0.35862 0.11124 0.16768 0.0
C17 C 0.38102 0.11866 0.17362 0.0
C18 C 0.3823 0.12468 0.19569 0.0
C19 C 0.35929 0.12075 0.20403 0.0
C20 C 0.34519 0.11229 0.18659 0.0
N21 N 0.36814 0.07301 0.13795 0.0
C22 C 0.40079 0.03277 0.13969 0.0
C23 C 0.38514 0.03839 0.15754 0.0
C24 C 0.36915 0.05851 0.15639 0.0
C25 C 0.39906 0.04777 0.12086 0.0
C26 C 0.38264 0.06732 0.12023 0.0
N27 N 0.32877 0.13339 0.13637 0.0
C28 C 0.32687 0.17678 0.14271 0.0
C29 C 0.30268 0.1778 0.13532 0.0
C30 C 0.29188 0.15582 0.12834 0.0
C31 C 0.30519 0.13386 0.12902 0.0
C32 C 0.33942 0.15464 0.14316 0.0
H33 H 0.29646 0.11728 0.12361 0.0
H34 H 0.35794 0.15487 0.14897 0.0
H35 H 0.35782 0.06252 0.17055 0.0
H36 H 0.38222 0.07822 0.10541 0.0
C37 C 0.30873 0.06403 0.11816 0.0
C38 C 0.31944 0.10457 0.18822 0.0
C39 C 0.36275 0.12261 0.08381 0.0
C40 C 0.39822 0.12492 0.15731 0.0
H41 H 0.28025 0.06918 0.18871 0.0
H42 H 0.27556 0.04524 0.15067 0.0
H43 H 0.30479 0.06273 0.07089 0.0
H44 H 0.3324 0.09674 0.05236 0.0
H45 H 0.40982 0.14636 0.08496 0.0
H46 H 0.43056 0.14572 0.12481 0.0
H47 H 0.39765 0.13251 0.2044 0.0
H48 H 0.35362 0.12421 0.22089 0.0
H49 H 0.3851 0.02739 0.17241 0.0
H50 H 0.41076 0.04502 0.10666 0.0
H51 H 0.33639 0.19309 0.14786 0.0
H52 H 0.27319 0.15547 0.12263 0.0
C53 C 0.43421 0.30986 0.67132 0.0
C54 C 0.45063 0.29092 0.67442 0.0
C55 C 0.46359 0.28876 0.65507 0.0
C56 C 0.4545 0.30652 0.64135 0.0
N57 N 0.43671 0.31968 0.6509 0.0
Co58 Co 0.41913 0.34732 0.63726 0.0
N59 N 0.42784 0.33631 0.60702 0.0
C60 C 0.44599 0.32079 0.60188 0.0
C61 C 0.44787 0.3165 0.57957 0.0
C62 C 0.42999 0.33041 0.57006 0.0
C63 C 0.41824 0.34262 0.58718 0.0
N64 N 0.40166 0.37509 0.62356 0.0
C65 C 0.39449 0.3785 0.60227 0.0
C66 C 0.38345 0.40107 0.59979 0.0
C67 C 0.38396 0.41211 0.62022 0.0
C68 C 0.39529 0.39577 0.63403 0.0
N69 N 0.41064 0.3579 0.66771 0.0
C70 C 0.4031 0.38028 0.67358 0.0
C71 C 0.39693 0.3816 0.69562 0.0
C72 C 0.4009 0.35865 0.70402 0.0
C73 C 0.40953 0.34453 0.68664 0.0
N74 N 0.44915 0.36744 0.63826 0.0
C75 C 0.48935 0.40007 0.64022 0.0
C76 C 0.48353 0.38456 0.65809 0.0
C77 C 0.46344 0.36855 0.65682 0.0
C78 C 0.47458 0.39825 0.62126 0.0
C79 C 0.45503 0.38185 0.62054 0.0
N80 N 0.38887 0.32799 0.6362 0.0
C81 C 0.34528 0.32623 0.64148 0.0
C82 C 0.3444 0.30222 0.63367 0.0
C83 C 0.36657 0.29121 0.62753 0.0
C84 C 0.38855 0.30442 0.62883 0.0
C85 C 0.36747 0.33864 0.64266 0.0
H86 H 0.40525 0.29568 0.62371 0.0
H87 H 0.36717 0.35705 0.64875 0.0
H88 H 0.45928 0.35729 0.67099 0.0
H89 H 0.44428 0.38136 0.60563 0.0
C90 C 0.45848 0.30813 0.61851 0.0
C91 C 0.4174 0.31885 0.68837 0.0
C92 C 0.39996 0.36184 0.58379 0.0
C93 C 0.39696 0.39745 0.65723 0.0
H94 H 0.45293 0.27981 0.68908 0.0
H95 H 0.47714 0.2751 0.65115 0.0
H96 H 0.46031 0.30424 0.57123 0.0
H97 H 0.42635 0.33172 0.55249 0.0
H98 H 0.37612 0.40885 0.58473 0.0
H99 H 0.37636 0.42967 0.62457 0.0
H100 H 0.38901 0.39695 0.70427 0.0
H101 H 0.39737 0.35302 0.72087 0.0
H102 H 0.49436 0.38465 0.67306 0.0
H103 H 0.47751 0.40986 0.60705 0.0
H104 H 0.32888 0.33546 0.64689 0.0
H105 H 0.3669 0.27271 0.62134 0.0
C106 C 0.21321 0.43486 0.16909 0.0
C107 C 0.23322 0.45022 0.17084 0.0
C108 C 0.2351 0.46233 0.15105 0.0
C109 C 0.21629 0.45365 0.13831 0.0
N110 N 0.20274 0.43686 0.14888 0.0
Co111 Co 0.17437 0.41924 0.13642 0.0
N112 N 0.18456 0.42669 0.10566 0.0
C113 C 0.20029 0.4443 0.09957 0.0
C114 C 0.20386 0.44534 0.0771 0.0
C115 C 0.18927 0.42745 0.0685 0.0
C116 C 0.17745 0.41652 0.08629 0.0
N117 N 0.14592 0.40171 0.12397 0.0
C118 C 0.14173 0.39386 0.103 0.0
C119 C 0.11892 0.3831 0.10141 0.0
C120 C 0.10851 0.38452 0.1221 0.0
C121 C 0.12545 0.39606 0.13515 0.0
N122 N 0.16455 0.41197 0.16731 0.0
C123 C 0.14215 0.40534 0.174 0.0
C124 C 0.1411 0.40104 0.19643 0.0
C125 C 0.16429 0.40528 0.2042 0.0
C126 C 0.17825 0.41189 0.18602 0.0
N127 N 0.15468 0.44956 0.13707 0.0
C128 C 0.12227 0.48997 0.13888 0.0
C129 C 0.13837 0.48466 0.15644 0.0
C130 C 0.15426 0.46448 0.15525 0.0
C131 C 0.12345 0.47461 0.12026 0.0
C132 C 0.13975 0.45497 0.11959 0.0
N133 N 0.19324 0.38867 0.13571 0.0
C134 C 0.19461 0.34526 0.14209 0.0
C135 C 0.21834 0.3438 0.13361 0.0
C136 C 0.22941 0.36559 0.12655 0.0
C137 C 0.21653 0.38777 0.12764 0.0
C138 C 0.18253 0.36765 0.14305 0.0
H139 H 0.22531 0.40415 0.1218 0.0
H140 H 0.16433 0.36784 0.14969 0.0
H141 H 0.16597 0.46072 0.16921 0.0
H142 H 0.1397 0.44375 0.10497 0.0
C143 C 0.21394 0.45687 0.11544 0.0
C144 C 0.20397 0.4194 0.18708 0.0
C145 C 0.1579 0.39841 0.08395 0.0
C146 C 0.1244 0.39879 0.15831 0.0
H147 H 0.24536 0.45234 0.18482 0.0
H148 H 0.24929 0.47491 0.14614 0.0
H149 H 0.21612 0.45718 0.06808 0.0
H150 H 0.18729 0.42323 0.05108 0.0
H151 H 0.11056 0.37539 0.08678 0.0
H152 H 0.09095 0.37742 0.1271 0.0
H153 H 0.12567 0.39447 0.20587 0.0
H154 H 0.17028 0.40364 0.22121 0.0
H155 H 0.13881 0.49597 0.17112 0.0
H156 H 0.11139 0.47715 0.1063 0.0
H157 H 0.18538 0.32917 0.1482 0.0
H158 H 0.24769 0.36547 0.1198 0.0
C159 C 0.08744 0.2125 0.66873 0.0
C160 C 0.07207 0.23253 0.67017 0.0
C161 C 0.06003 0.23406 0.65033 0.0
C162 C 0.06877 0.21506 0.63786 0.0
N163 N 0.08555 0.20172 0.64863 0.0
Co164 Co 0.10328 0.17322 0.63656 0.0
N165 N 0.09595 0.18295 0.60566 0.0
C166 C 0.07825 0.19844 0.59934 0.0
C167 C 0.07722 0.20156 0.57681 0.0
C168 C 0.09523 0.18695 0.56844 0.0
C169 C 0.10626 0.1756 0.58641 0.0
N170 N 0.12091 0.14463 0.62447 0.0
C171 C 0.12889 0.1402 0.60358 0.0
C172 C 0.13973 0.11741 0.60227 0.0
C173 C 0.13819 0.10726 0.62305 0.0
C174 C 0.12652 0.12433 0.63588 0.0
N175 N 0.11042 0.16385 0.66756 0.0
C176 C 0.11705 0.14156 0.67452 0.0
C177 C 0.12124 0.14083 0.69698 0.0
C178 C 0.11694 0.16412 0.70448 0.0
C179 C 0.1104 0.17781 0.68613 0.0
N180 N 0.07298 0.15351 0.63734 0.0
C181 C 0.03261 0.12109 0.63943 0.0
C182 C 0.03785 0.1374 0.65685 0.0
C183 C 0.05802 0.15331 0.65551 0.0
C184 C 0.04799 0.12206 0.62081 0.0
C185 C 0.06763 0.13835 0.62001 0.0
N186 N 0.13382 0.19211 0.63573 0.0
C187 C 0.17719 0.19371 0.64232 0.0
C188 C 0.17867 0.21727 0.6335 0.0
C189 C 0.15689 0.22815 0.62617 0.0
C190 C 0.13473 0.21526 0.62735 0.0
C191 C 0.15482 0.18159 0.64333 0.0
H192 H 0.11836 0.22389 0.62131 0.0
H193 H 0.15462 0.1635 0.6502 0.0
H194 H 0.06172 0.16519 0.66935 0.0
H195 H 0.07891 0.13812 0.60541 0.0
C196 C 0.0656 0.21231 0.61502 0.0
C197 C 0.10281 0.20351 0.68689 0.0
C198 C 0.12456 0.1562 0.58439 0.0
C199 C 0.12369 0.1236 0.65905 0.0
H200 H 0.06989 0.24491 0.68397 0.0
H201 H 0.04745 0.24816 0.64521 0.0
H202 H 0.06529 0.21355 0.56761 0.0
H203 H 0.09947 0.18461 0.55106 0.0
H204 H 0.14761 0.1089 0.58777 0.0
H205 H 0.14532 0.0898 0.62826 0.0
H206 H 0.12778 0.12555 0.7066 0.0
H207 H 0.11847 0.17034 0.72143 0.0
H208 H 0.02652 0.13799 0.67151 0.0
H209 H 0.04546 0.10983 0.60696 0.0
H210 H 0.19326 0.18462 0.64864 0.0
H211 H 0.15702 0.2463 0.61914 0.0
C212 C 0.30852 0.43399 0.33717 0.0
C213 C 0.28848 0.44931 0.33544 0.0
C214 C 0.28653 0.4613 0.35529 0.0
C215 C 0.30532 0.4526 0.36803 0.0
N216 N 0.31894 0.4359 0.35742 0.0
Co217 Co 0.34733 0.41829 0.36985 0.0
N218 N 0.33708 0.42559 0.40063 0.0
C219 C 0.32128 0.44312 0.40676 0.0
C220 C 0.31768 0.44407 0.42922 0.0
C221 C 0.33231 0.4262 0.43779 0.0
C222 C 0.3442 0.41538 0.41999 0.0
N223 N 0.37579 0.40074 0.38228 0.0
C224 C 0.37998 0.39285 0.40325 0.0
C225 C 0.40281 0.38213 0.40482 0.0
C226 C 0.41323 0.38362 0.38415 0.0
C227 C 0.39628 0.39517 0.37111 0.0
N228 N 0.35723 0.41121 0.33894 0.0
C229 C 0.37966 0.40465 0.33226 0.0
C230 C 0.38078 0.40049 0.30981 0.0
C231 C 0.3576 0.40474 0.30202 0.0
C232 C 0.34359 0.41122 0.3202 0.0
N233 N 0.36696 0.44865 0.36933 0.0
C234 C 0.39939 0.48906 0.36755 0.0
C235 C 0.38321 0.48383 0.35002 0.0
C236 C 0.36732 0.46365 0.3512 0.0
C237 C 0.39825 0.47364 0.38613 0.0
C238 C 0.38193 0.45401 0.38679 0.0
N239 N 0.32852 0.38768 0.37038 0.0
C240 C 0.32695 0.34445 0.36307 0.0
C241 C 0.30316 0.34284 0.37144 0.0
C242 C 0.29236 0.36445 0.37931 0.0
C243 C 0.30529 0.38662 0.3786 0.0
C244 C 0.33915 0.3668 0.36266 0.0
H245 H 0.29655 0.4029 0.38472 0.0
H246 H 0.35742 0.36705 0.35618 0.0
H247 H 0.35558 0.45994 0.33725 0.0
H248 H 0.38201 0.44273 0.40138 0.0
C249 C 0.30762 0.45571 0.39091 0.0
C250 C 0.31785 0.41868 0.31912 0.0
C251 C 0.36382 0.39735 0.42231 0.0
C252 C 0.39738 0.39803 0.34796 0.0
H253 H 0.27639 0.45149 0.32145 0.0
H254 H 0.2723 0.47383 0.36022 0.0
H255 H 0.30536 0.45584 0.43826 0.0
H256 H 0.33427 0.42193 0.45519 0.0
H257 H 0.41118 0.37441 0.41944 0.0
H258 H 0.43082 0.3766 0.37914 0.0
H259 H 0.39624 0.394 0.30038 0.0
H260 H 0.35166 0.4032 0.28499 0.0
H261 H 0.38272 0.49519 0.33538 0.0
H262 H 0.41035 0.47612 0.40007 0.0
H263 H 0.33644 0.32842 0.35718 0.0
H264 H 0.27395 0.36435 0.38577 0.0
C265 C 0.0869 0.30823 0.83598 0.0
C266 C 0.07158 0.28828 0.83354 0.0
C267 C 0.05912 0.28585 0.85311 0.0
C268 C 0.06754 0.30431 0.86639 0.0
N269 N 0.0845 0.31817 0.85638 0.0
Co270 Co 0.10176 0.34627 0.86969 0.0
N271 N 0.09385 0.3352 0.90013 0.0
C272 C 0.07631 0.31913 0.90563 0.0
C273 C 0.07501 0.31488 0.92799 0.0
C274 C 0.09264 0.32937 0.93715 0.0
C275 C 0.10367 0.34185 0.91979 0.0
N276 N 0.11873 0.37456 0.883 0.0
C277 C 0.12596 0.37839 0.90421 0.0
C278 C 0.13637 0.4013 0.90643 0.0
C279 C 0.13536 0.41213 0.88593 0.0
C280 C 0.1244 0.39533 0.87232 0.0
N281 N 0.1097 0.35682 0.83912 0.0
C282 C 0.1164 0.37937 0.83298 0.0
C283 C 0.12124 0.38093 0.81066 0.0
C284 C 0.11728 0.3579 0.80238 0.0
C285 C 0.11028 0.34354 0.82016 0.0
N286 N 0.07135 0.36583 0.86892 0.0
C287 C 0.03202 0.39948 0.86687 0.0
C288 C 0.03856 0.38507 0.84846 0.0
C289 C 0.05798 0.36828 0.8499 0.0
C290 C 0.04507 0.39546 0.88657 0.0
C291 C 0.06456 0.37897 0.88718 0.0
N292 N 0.13243 0.32758 0.87046 0.0
C293 C 0.17584 0.32638 0.864 0.0
C294 C 0.17727 0.30227 0.87155 0.0
C295 C 0.1555 0.29114 0.87864 0.0
C296 C 0.13332 0.30406 0.87793 0.0
C297 C 0.15349 0.33856 0.86356 0.0
H298 H 0.11691 0.29506 0.88342 0.0
H299 H 0.15336 0.35705 0.85767 0.0
H300 H 0.06266 0.35784 0.83535 0.0
H301 H 0.07456 0.37747 0.90245 0.0
C302 C 0.06401 0.30593 0.88928 0.0
C303 C 0.10279 0.31786 0.81848 0.0
C304 C 0.12133 0.36169 0.92283 0.0
C305 C 0.12233 0.39684 0.84913 0.0
H306 H 0.06976 0.27651 0.81927 0.0
H307 H 0.0465 0.2715 0.85752 0.0
H308 H 0.06315 0.30225 0.93657 0.0
H309 H 0.09658 0.33089 0.95466 0.0
H310 H 0.14363 0.40943 0.92137 0.0
H311 H 0.14237 0.42987 0.88139 0.0
H312 H 0.12794 0.39659 0.80163 0.0
H313 H 0.11931 0.35229 0.78529 0.0
H314 H 0.02935 0.38716 0.83275 0.0
H315 H 0.04056 0.40514 0.90163 0.0
H316 H 0.192 0.33611 0.85874 0.0
H317 H 0.15547 0.27249 0.88446 0.0
C318 C 0.21139 0.08751 0.3341 0.0
C319 C 0.23031 0.07121 0.33041 0.0
C320 C 0.23288 0.0579 0.3495 0.0
C321 C 0.21536 0.06667 0.36366 0.0
N322 N 0.20194 0.08458 0.35462 0.0
Co323 Co 0.17441 0.10167 0.36897 0.0
N324 N 0.18601 0.09243 0.3989 0.0
C325 C 0.20194 0.07447 0.4035 0.0
C326 C 0.20686 0.07239 0.42568 0.0
C327 C 0.19293 0.08993 0.4357 0.0
C328 C 0.18001 0.10164 0.419 0.0
N329 N 0.14663 0.11842 0.38337 0.0
C330 C 0.14338 0.12494 0.40485 0.0
C331 C 0.12066 0.13556 0.40783 0.0
C332 C 0.10938 0.13548 0.38751 0.0
C333 C 0.12573 0.1248 0.37326 0.0
N334 N 0.1634 0.11093 0.33883 0.0
C335 C 0.1409 0.1185 0.33337 0.0
C336 C 0.13927 0.12522 0.31148 0.0
C337 C 0.16215 0.12159 0.30274 0.0
C338 C 0.17653 0.1126 0.31978 0.0
N339 N 0.15449 0.07152 0.36757 0.0
C340 C 0.12199 0.03144 0.36523 0.0
C341 C 0.13541 0.03903 0.34661 0.0
C342 C 0.15174 0.05881 0.34819 0.0
C343 C 0.12571 0.04414 0.38509 0.0
C344 C 0.14172 0.06404 0.38587 0.0
N345 N 0.19351 0.13207 0.3704 0.0
C346 C 0.19484 0.17577 0.3659 0.0
C347 C 0.21914 0.17663 0.37295 0.0
C348 C 0.23047 0.15442 0.3784 0.0
C349 C 0.21732 0.13239 0.37711 0.0
C350 C 0.18251 0.15354 0.36471 0.0
H351 H 0.22634 0.11564 0.38165 0.0
H352 H 0.1639 0.15385 0.35914 0.0
H353 H 0.16181 0.06409 0.33359 0.0
H354 H 0.14323 0.07373 0.40132 0.0
C355 C 0.21431 0.06235 0.38647 0.0
C356 C 0.20218 0.10477 0.31756 0.0
C357 C 0.16041 0.11938 0.42301 0.0
C358 C 0.12383 0.12389 0.35004 0.0
H359 H 0.24119 0.06926 0.31556 0.0
H360 H 0.24669 0.04436 0.35298 0.0
H361 H 0.21955 0.06008 0.4336 0.0
H362 H 0.19209 0.09336 0.45333 0.0
H363 H 0.11295 0.14238 0.42313 0.0
H364 H 0.09168 0.14297 0.38352 0.0
H365 H 0.12374 0.13321 0.30317 0.0
H366 H 0.16756 0.12549 0.2859 0.0
H367 H 0.13341 0.02968 0.33092 0.0
H368 H 0.11571 0.03921 0.3999 0.0
H369 H 0.18534 0.1922 0.36103 0.0
H370 H 0.2492 0.15406 0.38399 0.0
C371 C 0.43329 0.21058 0.8351 0.0
C372 C 0.44975 0.22952 0.83221 0.0
C373 C 0.46259 0.23149 0.85162 0.0
C374 C 0.45339 0.21363 0.86518 0.0
N375 N 0.43563 0.20058 0.85546 0.0
Co376 Co 0.41795 0.17283 0.86882 0.0
N377 N 0.42649 0.18355 0.89917 0.0
C378 C 0.44469 0.19893 0.9045 0.0
C379 C 0.44651 0.20292 0.92686 0.0
C380 C 0.42852 0.18897 0.9362 0.0
C381 C 0.41675 0.17708 0.91893 0.0
N382 N 0.40038 0.14495 0.88226 0.0
C383 C 0.39304 0.14139 0.90349 0.0
C384 C 0.38195 0.11882 0.90578 0.0
C385 C 0.3826 0.10793 0.88529 0.0
C386 C 0.39406 0.12436 0.87163 0.0
N387 N 0.40963 0.16253 0.83828 0.0
C388 C 0.4021 0.1402 0.83222 0.0
C389 C 0.39608 0.13906 0.81015 0.0
C390 C 0.40015 0.16208 0.80192 0.0
C391 C 0.40869 0.17604 0.81943 0.0
N392 N 0.44795 0.15269 0.86777 0.0
C393 C 0.48812 0.12006 0.86564 0.0
C394 C 0.48242 0.13578 0.8479 0.0
C395 C 0.46235 0.15178 0.84925 0.0
C396 C 0.47325 0.12167 0.88457 0.0
C397 C 0.45371 0.13809 0.88538 0.0
N398 N 0.3877 0.19216 0.86993 0.0
C399 C 0.34416 0.194 0.8645 0.0
C400 C 0.34324 0.21793 0.8725 0.0
C401 C 0.36537 0.22887 0.87882 0.0
C402 C 0.38735 0.21566 0.87751 0.0
C403 C 0.36634 0.18159 0.86331 0.0
H404 H 0.40403 0.22433 0.88276 0.0
H405 H 0.36607 0.16324 0.85707 0.0
H406 H 0.45828 0.1632 0.83517 0.0
H407 H 0.44287 0.13842 0.90026 0.0
C408 C 0.45728 0.21175 0.88801 0.0
C409 C 0.41662 0.20172 0.81789 0.0
C410 C 0.39832 0.15796 0.92208 0.0
C411 C 0.39586 0.12289 0.84843 0.0
H412 H 0.45219 0.24075 0.81764 0.0
H413 H 0.47616 0.24508 0.85569 0.0
H414 H 0.45898 0.215 0.93535 0.0
H415 H 0.42482 0.18741 0.95375 0.0
H416 H 0.37446 0.11095 0.92075 0.0
H417 H 0.37499 0.09043 0.88079 0.0
H418 H 0.38821 0.12379 0.80136 0.0
H419 H 0.39674 0.16785 0.78509 0.0
H420 H 0.49335 0.13586 0.83297 0.0
H421 H 0.47611 0.1099 0.89868 0.0
H422 H 0.32779 0.18484 0.85893 0.0
H423 H 0.36568 0.24732 0.88516 0.0
C424 C 0.67623 0.90725 0.81947 0.0
C425 C 0.66196 0.89821 0.80239 0.0
C426 C 0.63902 0.8946 0.81101 0.0
C427 C 0.64051 0.90141 0.83288 0.0
N428 N 0.66297 0.909 0.83844 0.0
Co429 Co 0.67381 0.91837 0.86859 0.0
N430 N 0.64595 0.90163 0.88289 0.0
C431 C 0.62511 0.89522 0.87271 0.0
C432 C 0.6087 0.88454 0.88691 0.0
C433 C 0.61989 0.8845 0.90728 0.0
C434 C 0.64261 0.89513 0.90437 0.0
N435 N 0.68522 0.92771 0.89856 0.0
C436 C 0.67912 0.91854 0.91864 0.0
C437 C 0.69186 0.93035 0.93538 0.0
C438 C 0.70582 0.9479 0.9254 0.0
C439 C 0.70107 0.94574 0.90318 0.0
N440 N 0.7014 0.93544 0.85435 0.0
C441 C 0.71474 0.95341 0.86339 0.0
C442 C 0.73237 0.9621 0.8493 0.0
C443 C 0.72994 0.94868 0.83026 0.0
C444 C 0.711 0.93241 0.8339 0.0
N445 N 0.65388 0.94848 0.86702 0.0
C446 C 0.6214 0.98851 0.86438 0.0
C447 C 0.62504 0.97595 0.88432 0.0
C448 C 0.64103 0.95604 0.88524 0.0
C449 C 0.63488 0.98083 0.84584 0.0
C450 C 0.65122 0.96109 0.84757 0.0
N451 N 0.69292 0.88801 0.8702 0.0
C452 C 0.72987 0.86578 0.87844 0.0
C453 C 0.71862 0.84353 0.87295 0.0
C454 C 0.69438 0.84433 0.86575 0.0
C455 C 0.682 0.86652 0.86446 0.0
C456 C 0.71669 0.88777 0.87705 0.0
H457 H 0.66343 0.86616 0.8588 0.0
H458 H 0.72564 0.90454 0.88161 0.0
H459 H 0.64246 0.94642 0.90073 0.0
H460 H 0.66136 0.95574 0.83303 0.0
C461 C 0.62333 0.89607 0.84948 0.0
C462 C 0.7019 0.91505 0.81738 0.0
C463 C 0.65957 0.90072 0.92257 0.0
C464 C 0.71353 0.95782 0.88618 0.0
H465 H 0.66748 0.89424 0.78558 0.0
H466 H 0.62355 0.88658 0.80263 0.0
H467 H 0.59103 0.87702 0.88286 0.0
H468 H 0.61212 0.87768 0.92255 0.0
H469 H 0.6909 0.92698 0.95302 0.0
H470 H 0.71841 0.96028 0.93335 0.0
H471 H 0.74615 0.97566 0.85281 0.0
H472 H 0.74094 0.95055 0.81546 0.0
H473 H 0.61498 0.98098 0.89907 0.0
H474 H 0.63292 0.9901 0.8301 0.0
H475 H 0.74855 0.86619 0.88417 0.0
H476 H 0.68495 0.82787 0.86083 0.0
C477 C 0.6101 0.67772 0.31996 0.0
C478 C 0.61693 0.66368 0.30192 0.0
C479 C 0.62088 0.64049 0.30981 0.0
C480 C 0.61621 0.64163 0.33217 0.0
N481 N 0.60962 0.66408 0.33872 0.0
Co482 Co 0.60189 0.67405 0.36948 0.0
N483 N 0.61892 0.6455 0.38223 0.0
C484 C 0.62453 0.62494 0.37121 0.0
C485 C 0.63566 0.60793 0.38448 0.0
C486 C 0.63686 0.61841 0.40514 0.0
C487 C 0.62638 0.64132 0.40332 0.0
N488 N 0.59411 0.68446 0.40012 0.0
C489 C 0.60406 0.67743 0.41961 0.0
C490 C 0.59294 0.68931 0.43726 0.0
C491 C 0.5752 0.70393 0.42843 0.0
C492 C 0.57649 0.70027 0.40598 0.0
N493 N 0.58463 0.70245 0.35674 0.0
C494 C 0.56774 0.71611 0.36706 0.0
C495 C 0.55934 0.7349 0.35415 0.0
C496 C 0.57171 0.73288 0.3345 0.0
C497 C 0.58696 0.71281 0.3365 0.0
N498 N 0.57142 0.65457 0.36852 0.0
C499 C 0.53113 0.62234 0.36631 0.0
C500 C 0.54461 0.62514 0.38586 0.0
C501 C 0.56463 0.64102 0.38656 0.0
C502 C 0.53798 0.6366 0.34799 0.0
C503 C 0.55785 0.65282 0.34953 0.0
N504 N 0.63259 0.69271 0.37044 0.0
C505 C 0.65581 0.7288 0.37957 0.0
C506 C 0.67731 0.71816 0.37135 0.0
C507 C 0.67578 0.69446 0.36288 0.0
C508 C 0.65349 0.68213 0.36268 0.0
C509 C 0.63364 0.71586 0.37882 0.0
H510 H 0.65328 0.66387 0.3562 0.0
H511 H 0.61735 0.72455 0.38499 0.0
H512 H 0.57497 0.64176 0.40169 0.0
H513 H 0.56255 0.66355 0.33516 0.0
C514 C 0.62226 0.62385 0.34801 0.0
C515 C 0.60265 0.70345 0.31873 0.0
C516 C 0.622 0.65778 0.42217 0.0
C517 C 0.56419 0.71389 0.38991 0.0
H518 H 0.61885 0.66961 0.28491 0.0
H519 H 0.62748 0.62498 0.3005 0.0
H520 H 0.64268 0.5903 0.37964 0.0
H521 H 0.64432 0.61006 0.41989 0.0
H522 H 0.59691 0.68732 0.45472 0.0
H523 H 0.56328 0.71625 0.43729 0.0
H524 H 0.54676 0.74917 0.35886 0.0
H525 H 0.56986 0.74498 0.32046 0.0
H526 H 0.54021 0.61448 0.40042 0.0
H527 H 0.52798 0.63533 0.33257 0.0
H528 H 0.656 0.74713 0.38618 0.0
H529 H 0.69183 0.68524 0.35667 0.0
C530 C 0.84309 0.60997 0.81997 0.0
C531 C 0.85684 0.61663 0.80168 0.0
C532 C 0.88012 0.62085 0.80924 0.0
C533 C 0.87932 0.61649 0.83167 0.0
N534 N 0.85699 0.60984 0.83855 0.0
Co535 Co 0.84751 0.60247 0.8695 0.0
N536 N 0.87607 0.62001 0.88172 0.0
C537 C 0.89643 0.62569 0.87039 0.0
C538 C 0.91348 0.63722 0.88332 0.0
C539 C 0.90326 0.63861 0.90409 0.0
C540 C 0.88045 0.62783 0.90267 0.0
N541 N 0.83768 0.59491 0.90033 0.0
C542 C 0.84496 0.60508 0.91965 0.0
C543 C 0.83347 0.594 0.93754 0.0
C544 C 0.81886 0.57606 0.92904 0.0
C545 C 0.82212 0.57721 0.90654 0.0
N546 N 0.81903 0.58485 0.85728 0.0
C547 C 0.80562 0.56801 0.86794 0.0
C548 C 0.78662 0.55942 0.85539 0.0
C549 C 0.78823 0.57161 0.83562 0.0
C550 C 0.8083 0.58692 0.83718 0.0
N551 N 0.86723 0.57221 0.86858 0.0
C552 C 0.90046 0.53285 0.86582 0.0
C553 C 0.89928 0.54767 0.88469 0.0
C554 C 0.88252 0.56687 0.88585 0.0
C555 C 0.88377 0.53757 0.84868 0.0
C556 C 0.86746 0.55738 0.85031 0.0
N557 N 0.82862 0.633 0.87044 0.0
C558 C 0.7926 0.65606 0.88011 0.0
C559 C 0.80351 0.67785 0.87282 0.0
C560 C 0.82707 0.67638 0.86396 0.0
C561 C 0.83917 0.65401 0.8629 0.0
C562 C 0.80547 0.63389 0.87885 0.0
H563 H 0.85727 0.65384 0.85603 0.0
H564 H 0.79681 0.61751 0.88484 0.0
H565 H 0.88251 0.57786 0.90062 0.0
H566 H 0.85549 0.56109 0.83654 0.0
C567 C 0.89724 0.623 0.84722 0.0
C568 C 0.81737 0.60242 0.81912 0.0
C569 C 0.8644 0.62331 0.92181 0.0
C570 C 0.80828 0.56469 0.89077 0.0
H571 H 0.85067 0.61829 0.78473 0.0
H572 H 0.89545 0.62744 0.79968 0.0
H573 H 0.93099 0.64434 0.87819 0.0
H574 H 0.91175 0.64633 0.91866 0.0
H575 H 0.83569 0.59815 0.95494 0.0
H576 H 0.80678 0.56413 0.93816 0.0
H577 H 0.77247 0.54685 0.86043 0.0
H578 H 0.77585 0.56958 0.82182 0.0
H579 H 0.91142 0.54454 0.89854 0.0
H580 H 0.8839 0.5266 0.83377 0.0
H581 H 0.77446 0.65616 0.88716 0.0
H582 H 0.83618 0.69245 0.85765 0.0
C583 C 0.91154 0.8427 0.32018 0.0
C584 C 0.90518 0.85632 0.30173 0.0
C585 C 0.90079 0.87963 0.30913 0.0
C586 C 0.90476 0.87898 0.33161 0.0
N587 N 0.91134 0.85672 0.33869 0.0
Co588 Co 0.91816 0.84746 0.36979 0.0
N589 N 0.9003 0.87602 0.38163 0.0
C590 C 0.8947 0.89624 0.37011 0.0
C591 C 0.88289 0.91335 0.3828 0.0
C592 C 0.88123 0.9033 0.40361 0.0
C593 C 0.89215 0.88054 0.40246 0.0
N594 N 0.92526 0.83789 0.40077 0.0
C595 C 0.9148 0.84531 0.41993 0.0
C596 C 0.92567 0.83403 0.43802 0.0
C597 C 0.94377 0.8194 0.42981 0.0
C598 C 0.94292 0.82244 0.40728 0.0
N599 N 0.93604 0.81894 0.35795 0.0
C600 C 0.9527 0.80562 0.36889 0.0
C601 C 0.9615 0.78653 0.35658 0.0
C602 C 0.94963 0.78797 0.33664 0.0
C603 C 0.9343 0.80806 0.33788 0.0
N604 N 0.94842 0.86725 0.36917 0.0
C605 C 0.98873 0.89976 0.36717 0.0
C606 C 0.97317 0.89891 0.38567 0.0
C607 C 0.95355 0.88257 0.38643 0.0
C608 C 0.9837 0.88327 0.34984 0.0
C609 C 0.96357 0.86732 0.35113 0.0
N610 N 0.88765 0.82846 0.37041 0.0
C611 C 0.86444 0.79257 0.38022 0.0
C612 C 0.84309 0.80272 0.37122 0.0
C613 C 0.84471 0.82606 0.36196 0.0
C614 C 0.86691 0.83854 0.36182 0.0
C615 C 0.88654 0.80564 0.37951 0.0
H616 H 0.86717 0.85655 0.35477 0.0
H617 H 0.9027 0.79733 0.38632 0.0
H618 H 0.94213 0.8829 0.40094 0.0
H619 H 0.96004 0.85531 0.33734 0.0
C620 C 0.89784 0.89694 0.34698 0.0
C621 C 0.91911 0.81699 0.31956 0.0
C622 C 0.89649 0.86471 0.42177 0.0
C623 C 0.95569 0.80848 0.39174 0.0
H624 H 0.90381 0.85003 0.28479 0.0
H625 H 0.89431 0.89486 0.2994 0.0
H626 H 0.87579 0.93078 0.37748 0.0
H627 H 0.87326 0.91187 0.41804 0.0
H628 H 0.92128 0.83641 0.45536 0.0
H629 H 0.95561 0.80744 0.43914 0.0
H630 H 0.97399 0.77243 0.36185 0.0
H631 H 0.95188 0.77548 0.32294 0.0
H632 H 0.97554 0.91127 0.39945 0.0
H633 H 0.99519 0.88258 0.33528 0.0
H634 H 0.86418 0.77452 0.38745 0.0
H635 H 0.82877 0.83491 0.35511 0.0
C636 C 0.67738 0.61117 0.68601 0.0
C637 C 0.66302 0.61824 0.70377 0.0
C638 C 0.63998 0.62217 0.6955 0.0
C639 C 0.64154 0.61726 0.67319 0.0
N640 N 0.6641 0.61053 0.66705 0.0
Co641 Co 0.67463 0.6024 0.63652 0.0
N642 N 0.6463 0.61926 0.62315 0.0
C643 C 0.62554 0.625 0.63384 0.0
C644 C 0.60871 0.63587 0.6202 0.0
C645 C 0.61952 0.63675 0.59967 0.0
C646 C 0.64244 0.62637 0.60191 0.0
N647 N 0.68567 0.5943 0.60611 0.0
C648 C 0.67901 0.60401 0.5864 0.0
C649 C 0.6916 0.593 0.5691 0.0
C650 C 0.70612 0.57545 0.57834 0.0
C651 C 0.7018 0.5768 0.60068 0.0
N652 N 0.70276 0.58524 0.64988 0.0
C653 C 0.71663 0.56825 0.63995 0.0
C654 C 0.73509 0.55989 0.65326 0.0
C655 C 0.73266 0.57244 0.67277 0.0
C656 C 0.7127 0.58773 0.67026 0.0
N657 N 0.65508 0.57199 0.63751 0.0
C658 C 0.62157 0.53252 0.63978 0.0
C659 C 0.62556 0.54549 0.62001 0.0
C660 C 0.64195 0.56505 0.61929 0.0
C661 C 0.63592 0.53928 0.65817 0.0
C662 C 0.65264 0.55875 0.65661 0.0
N663 N 0.6933 0.63307 0.6355 0.0
C664 C 0.72957 0.65616 0.62667 0.0
C665 C 0.71824 0.67805 0.63315 0.0
C666 C 0.6943 0.67661 0.64116 0.0
C667 C 0.68229 0.65419 0.6422 0.0
C668 C 0.7168 0.63393 0.62792 0.0
H669 H 0.66391 0.65404 0.64841 0.0
H670 H 0.72583 0.61748 0.62259 0.0
H671 H 0.64342 0.57495 0.60397 0.0
H672 H 0.66306 0.56355 0.67114 0.0
C673 C 0.62405 0.62307 0.65704 0.0
C674 C 0.70306 0.60367 0.6877 0.0
C675 C 0.6591 0.62159 0.58328 0.0
C676 C 0.71502 0.56461 0.61708 0.0
H677 H 0.66862 0.62033 0.72085 0.0
H678 H 0.62431 0.62889 0.70451 0.0
H679 H 0.59097 0.6429 0.62472 0.0
H680 H 0.61136 0.6439 0.5847 0.0
H681 H 0.69016 0.59692 0.55158 0.0
H682 H 0.71883 0.56363 0.56982 0.0
H683 H 0.74945 0.54725 0.64891 0.0
H684 H 0.74441 0.57067 0.68706 0.0
H685 H 0.61595 0.54083 0.60496 0.0
H686 H 0.63387 0.53017 0.67394 0.0
H687 H 0.748 0.65622 0.62028 0.0
H688 H 0.68482 0.69274 0.64684 0.0
C689 C 0.9109 0.67756 0.18585 0.0
C690 C 0.90386 0.66315 0.20358 0.0
C691 C 0.90003 0.64012 0.19525 0.0
C692 C 0.90497 0.64173 0.17296 0.0
N693 N 0.91162 0.66432 0.16686 0.0
Co694 Co 0.91977 0.67492 0.13634 0.0
N695 N 0.903 0.64658 0.12292 0.0
C696 C 0.89723 0.62582 0.13356 0.0
C697 C 0.8864 0.609 0.11989 0.0
C698 C 0.88558 0.61982 0.09937 0.0
C699 C 0.89595 0.64273 0.10166 0.0
N700 N 0.928 0.68596 0.10596 0.0
C701 C 0.91842 0.67927 0.08622 0.0
C702 C 0.92949 0.69188 0.06897 0.0
C703 C 0.94696 0.70644 0.07827 0.0
C704 C 0.94551 0.70212 0.10061 0.0
N705 N 0.93675 0.70312 0.14977 0.0
C706 C 0.95374 0.71706 0.1399 0.0
C707 C 0.96197 0.73554 0.15326 0.0
C708 C 0.94936 0.73303 0.17274 0.0
C709 C 0.93414 0.71303 0.17016 0.0
N710 N 0.95028 0.65551 0.1374 0.0
C711 C 0.99055 0.62327 0.13972 0.0
C712 C 0.9774 0.62639 0.12002 0.0
C713 C 0.95739 0.64228 0.11926 0.0
C714 C 0.98341 0.63724 0.15813 0.0
C715 C 0.96356 0.65345 0.15654 0.0
N716 N 0.88903 0.69352 0.13531 0.0
C717 C 0.86582 0.72971 0.12649 0.0
C718 C 0.84426 0.71889 0.13438 0.0
C719 C 0.84575 0.69505 0.14253 0.0
C720 C 0.86806 0.68275 0.14273 0.0
C721 C 0.88802 0.71681 0.12726 0.0
H722 H 0.86824 0.66438 0.14894 0.0
H723 H 0.90435 0.72565 0.12138 0.0
H724 H 0.94729 0.64328 0.104 0.0
H725 H 0.95862 0.66394 0.17099 0.0
C726 C 0.89917 0.62428 0.15676 0.0
C727 C 0.91823 0.70328 0.18758 0.0
C728 C 0.90084 0.65937 0.08304 0.0
C729 C 0.95753 0.71542 0.11705 0.0
H730 H 0.9017 0.66871 0.22066 0.0
H731 H 0.89334 0.62441 0.20423 0.0
H732 H 0.87938 0.59125 0.12437 0.0
H733 H 0.87849 0.61166 0.08438 0.0
H734 H 0.92565 0.69047 0.05144 0.0
H735 H 0.95878 0.71919 0.0698 0.0
H736 H 0.97461 0.74993 0.14897 0.0
H737 H 0.95106 0.74473 0.18707 0.0
H738 H 0.98203 0.61597 0.10538 0.0
H739 H 0.99315 0.63572 0.17366 0.0
H740 H 0.86565 0.74815 0.12013 0.0
H741 H 0.82965 0.68571 0.14849 0.0
C742 C 0.84497 0.90798 0.68628 0.0
C743 C 0.85935 0.89897 0.70331 0.0
C744 C 0.88227 0.89548 0.69459 0.0
C745 C 0.88065 0.90231 0.67273 0.0
N746 N 0.85813 0.90981 0.66727 0.0
Co747 Co 0.84711 0.91915 0.63717 0.0
N748 N 0.87492 0.90251 0.62274 0.0
C749 C 0.89585 0.89616 0.63283 0.0
C750 C 0.91219 0.88553 0.61855 0.0
C751 C 0.90089 0.88545 0.59823 0.0
C752 C 0.87816 0.89603 0.60125 0.0
N753 N 0.8355 0.92848 0.60727 0.0
C754 C 0.84152 0.91935 0.58716 0.0
C755 C 0.82869 0.93117 0.57047 0.0
C756 C 0.81475 0.94868 0.58053 0.0
C757 C 0.8196 0.94649 0.60272 0.0
N758 N 0.81953 0.93612 0.65154 0.0
C759 C 0.8061 0.95406 0.64258 0.0
C760 C 0.7885 0.96266 0.65675 0.0
C761 C 0.79105 0.9492 0.67575 0.0
C762 C 0.81003 0.933 0.67201 0.0
N763 N 0.86696 0.94933 0.63866 0.0
C764 C 0.89938 0.98945 0.64116 0.0
C765 C 0.89569 0.97683 0.62125 0.0
C766 C 0.87973 0.9569 0.62039 0.0
C767 C 0.88596 0.98177 0.65974 0.0
C768 C 0.86966 0.96198 0.65808 0.0
N769 N 0.82808 0.88872 0.63564 0.0
C770 C 0.79123 0.8663 0.62742 0.0
C771 C 0.80256 0.84411 0.63297 0.0
C772 C 0.82679 0.84504 0.64019 0.0
C773 C 0.83908 0.86728 0.64141 0.0
C774 C 0.80431 0.88836 0.6288 0.0
H775 H 0.85766 0.86701 0.64706 0.0
H776 H 0.7953 0.90508 0.6242 0.0
H777 H 0.87826 0.94726 0.60492 0.0
H778 H 0.85959 0.95662 0.67266 0.0
C779 C 0.89775 0.89702 0.65605 0.0
C780 C 0.81926 0.91564 0.68846 0.0
C781 C 0.86107 0.90157 0.58313 0.0
C782 C 0.80719 0.95852 0.61979 0.0
H783 H 0.85391 0.89495 0.72012 0.0
H784 H 0.8978 0.8875 0.7029 0.0
H785 H 0.92991 0.87806 0.62251 0.0
H786 H 0.90859 0.87867 0.58292 0.0
H787 H 0.82959 0.92783 0.55283 0.0
H788 H 0.8021 0.96105 0.57263 0.0
H789 H 0.77465 0.97618 0.6533 0.0
H790 H 0.78011 0.95099 0.69058 0.0
H791 H 0.9057 0.98184 0.60646 0.0
H792 H 0.88794 0.99107 0.67546 0.0
H793 H 0.77256 0.86663 0.62167 0.0
H794 H 0.83629 0.82864 0.64517 0.0
C795 C 0.61104 0.8434 0.18601 0.0
C796 C 0.61783 0.85732 0.20414 0.0
C797 C 0.62189 0.88055 0.19637 0.0
C798 C 0.61732 0.87955 0.17398 0.0
N799 N 0.61069 0.85715 0.16732 0.0
Co800 Co 0.60303 0.84741 0.13649 0.0
N801 N 0.62015 0.876 0.1239 0.0
C802 C 0.62579 0.89647 0.13505 0.0
C803 C 0.637 0.91354 0.12188 0.0
C804 C 0.63823 0.90321 0.10117 0.0
C805 C 0.62766 0.88031 0.10284 0.0
N806 N 0.5953 0.83722 0.10578 0.0
C807 C 0.60531 0.84438 0.08633 0.0
C808 C 0.59415 0.8327 0.06861 0.0
C809 C 0.57635 0.81807 0.07734 0.0
C810 C 0.57764 0.82152 0.09982 0.0
N811 N 0.58567 0.81895 0.14906 0.0
C812 C 0.56878 0.80539 0.13864 0.0
C813 C 0.56027 0.78655 0.15144 0.0
C814 C 0.57258 0.78842 0.17112 0.0
C815 C 0.58788 0.80847 0.16925 0.0
N816 N 0.57259 0.86694 0.13756 0.0
C817 C 0.5324 0.89927 0.13998 0.0
C818 C 0.54586 0.89656 0.1204 0.0
C819 C 0.56584 0.88063 0.11958 0.0
C820 C 0.53919 0.88488 0.15822 0.0
C821 C 0.559 0.86861 0.15656 0.0
N822 N 0.63369 0.82868 0.13545 0.0
C823 C 0.65688 0.79265 0.12604 0.0
C824 C 0.67836 0.80313 0.13446 0.0
C825 C 0.67683 0.82673 0.14317 0.0
C826 C 0.65458 0.83913 0.14338 0.0
C827 C 0.63474 0.80563 0.12685 0.0
H828 H 0.65437 0.85732 0.15001 0.0
H829 H 0.61847 0.79705 0.12055 0.0
H830 H 0.5762 0.87995 0.10445 0.0
H831 H 0.56366 0.85777 0.17087 0.0
C832 C 0.62346 0.89741 0.15825 0.0
C833 C 0.6035 0.8177 0.18712 0.0
C834 C 0.62333 0.86398 0.0839 0.0
C835 C 0.56528 0.8078 0.1158 0.0
H836 H 0.61966 0.8513 0.22112 0.0
H837 H 0.62848 0.89598 0.20576 0.0
H838 H 0.64406 0.93112 0.12683 0.0
H839 H 0.64576 0.91163 0.08647 0.0
H840 H 0.59814 0.83486 0.05116 0.0
H841 H 0.56439 0.80587 0.0684 0.0
H842 H 0.54766 0.77235 0.14664 0.0
H843 H 0.57062 0.77626 0.18511 0.0
H844 H 0.54149 0.90732 0.10589 0.0
H845 H 0.5292 0.88609 0.17365 0.0
H846 H 0.65708 0.7744 0.11923 0.0
H847 H 0.69287 0.83581 0.14955 0.0
H848 H 0.425 0.13015 0.95017 0.0
H849 H 0.35802 0.1707 0.94605 0.0
H850 H 0.41781 0.12265 0.98948 0.0
H851 H 0.34993 0.16243 0.98528 0.0
H852 H 0.35373 0.16456 0.0608 0.0
H853 H 0.36214 0.17273 0.02159 0.0
H854 H 0.39485 0.10137 0.01546 0.0
H855 H 0.38735 0.09403 0.05473 0.0
C856 C 0.40842 0.13696 0.95771 0.0
C857 C 0.39194 0.1508 0.94518 0.0
C858 C 0.40421 0.13268 0.98024 0.0
C859 C 0.38326 0.14195 0.99082 0.0
C860 C 0.36648 0.15534 0.97796 0.0
C861 C 0.37086 0.15982 0.95541 0.0
C862 C 0.36308 0.15092 0.05101 0.0
C863 C 0.37002 0.12877 0.06067 0.0
C864 C 0.36762 0.15538 0.02848 0.0
C865 C 0.37904 0.13766 0.01508 0.0
C866 C 0.38636 0.11566 0.02511 0.0
C867 C 0.38204 0.11135 0.04762 0.0
H868 H 0.39153 0.42421 0.45033 0.0
H869 H 0.35265 0.3563 0.44582 0.0
H870 H 0.39936 0.41687 0.48954 0.0
H871 H 0.36132 0.34805 0.48494 0.0
H872 H 0.35855 0.35158 0.56046 0.0
H873 H 0.35052 0.35975 0.52121 0.0
H874 H 0.421 0.39453 0.51562 0.0
H875 H 0.42815 0.38723 0.55495 0.0
C876 C 0.38523 0.40737 0.45774 0.0
C877 C 0.37171 0.39069 0.44514 0.0
C878 C 0.38969 0.40308 0.48023 0.0
C879 C 0.38094 0.38185 0.49069 0.0
C880 C 0.36798 0.36482 0.47772 0.0
C881 C 0.36331 0.36929 0.45522 0.0
C882 C 0.37201 0.36133 0.55078 0.0
C883 C 0.39385 0.36894 0.56061 0.0
C884 C 0.36765 0.36574 0.52822 0.0
C885 C 0.38517 0.37768 0.51496 0.0
C886 C 0.40686 0.38562 0.52515 0.0
C887 C 0.41105 0.38143 0.5477 0.0
H888 H 0.163 0.35202 0.94598 0.0
H889 H 0.09311 0.3871 0.95161 0.0
H890 H 0.17119 0.36057 0.98514 0.0
H891 H 0.10046 0.39478 0.99085 0.0
H892 H 0.16928 0.35736 0.06055 0.0
H893 H 0.16054 0.3489 0.02148 0.0
H894 H 0.12215 0.41751 0.0167 0.0
H895 H 0.13007 0.42508 0.05587 0.0
C896 C 0.14952 0.36175 0.95566 0.0
C897 C 0.12757 0.36911 0.94589 0.0
C898 C 0.15397 0.36636 0.97816 0.0
C899 C 0.13643 0.37824 0.99143 0.0
C900 C 0.11461 0.38594 0.9813 0.0
C901 C 0.11032 0.38153 0.9588 0.0
C902 C 0.15854 0.37026 0.05112 0.0
C903 C 0.15007 0.39168 0.06113 0.0
C904 C 0.15383 0.36567 0.02865 0.0
C905 C 0.14075 0.38258 0.01566 0.0
C906 C 0.13193 0.40382 0.02604 0.0
C907 C 0.13644 0.40824 0.0485 0.0
H908 H 0.16337 0.17152 0.55974 0.0
H909 H 0.10062 0.12453 0.55767 0.0
H910 H 0.17178 0.16264 0.52069 0.0
H911 H 0.10804 0.11635 0.51851 0.0
H912 H 0.13952 0.08921 0.45324 0.0
H913 H 0.13233 0.09673 0.49252 0.0
H914 H 0.1581 0.17066 0.48443 0.0
H915 H 0.16635 0.16238 0.44522 0.0
C916 C 0.1516 0.15902 0.55089 0.0
C917 C 0.13166 0.14832 0.56167 0.0
C918 C 0.15612 0.1542 0.52843 0.0
C919 C 0.14054 0.13883 0.51617 0.0
C920 C 0.12075 0.12791 0.52729 0.0
C921 C 0.11644 0.13254 0.54975 0.0
C922 C 0.14349 0.10708 0.45995 0.0
C923 C 0.15361 0.12519 0.44636 0.0
C924 C 0.13929 0.11149 0.48246 0.0
C925 C 0.14473 0.13432 0.49193 0.0
C926 C 0.15416 0.15269 0.47799 0.0
C927 C 0.15862 0.14813 0.45546 0.0
H928 H 0.59873 0.89471 0.05677 0.0
H929 H 0.66245 0.8491 0.05944 0.0
H930 H 0.60625 0.90282 0.0176 0.0
H931 H 0.67092 0.8579 0.02038 0.0
H932 H 0.66601 0.85784 0.94486 0.0
H933 H 0.65756 0.84946 0.98401 0.0
H934 H 0.6306 0.92299 0.99187 0.0
H935 H 0.63806 0.93062 0.95264 0.0
C936 C 0.61473 0.88695 0.04898 0.0
C937 C 0.63023 0.8716 0.06106 0.0
C938 C 0.61911 0.89156 0.02652 0.0
C939 C 0.63923 0.88102 0.01558 0.0
C940 C 0.65502 0.86603 0.02799 0.0
C941 C 0.65046 0.86125 0.05046 0.0
C942 C 0.65798 0.87198 0.95503 0.0
C943 C 0.65271 0.89484 0.94588 0.0
C944 C 0.65341 0.86736 0.97753 0.0
C945 C 0.64356 0.88559 0.99138 0.0
C946 C 0.63787 0.90833 0.98187 0.0
C947 C 0.64222 0.91281 0.95939 0.0
H948 H 0.66666 0.66402 0.56061 0.0
H949 H 0.63541 0.59246 0.55406 0.0
H950 H 0.65791 0.67229 0.5215 0.0
H951 H 0.62758 0.59993 0.51487 0.0
H952 H 0.59633 0.62861 0.44992 0.0
H953 H 0.60386 0.62078 0.48912 0.0
H954 H 0.67049 0.66266 0.48514 0.0
H955 H 0.66203 0.67123 0.44604 0.0
C956 C 0.65775 0.65017 0.55074 0.0
C957 C 0.65159 0.6277 0.56022 0.0
C958 C 0.65302 0.65469 0.52826 0.0
C959 C 0.64218 0.63672 0.51475 0.0
C960 C 0.63561 0.61439 0.52461 0.0
C961 C 0.64012 0.61002 0.54707 0.0
C962 C 0.61274 0.63577 0.45747 0.0
C963 C 0.62877 0.65024 0.44505 0.0
C964 C 0.61713 0.63132 0.47994 0.0
C965 C 0.63781 0.6411 0.49055 0.0
C966 C 0.65415 0.65516 0.47778 0.0
C967 C 0.64958 0.65979 0.45531 0.0
H968 H 0.8507 0.66302 0.94602 0.0
H969 H 0.8945 0.59807 0.94902 0.0
H970 H 0.85939 0.67123 0.98513 0.0
H971 H 0.90241 0.6053 0.98824 0.0
H972 H 0.93015 0.63614 0.05361 0.0
H973 H 0.92279 0.62872 0.01435 0.0
H974 H 0.8501 0.65823 0.02132 0.0
H975 H 0.85827 0.66665 0.0605 0.0
C976 C 0.86246 0.65071 0.95508 0.0
C977 C 0.87229 0.63018 0.94457 0.0
C978 C 0.86715 0.65512 0.97758 0.0
C979 C 0.88151 0.63887 0.99012 0.0
C980 C 0.89163 0.61851 0.97925 0.0
C981 C 0.88714 0.6143 0.95675 0.0
C982 C 0.91254 0.64076 0.04668 0.0
C983 C 0.89475 0.65193 0.05995 0.0
C984 C 0.90822 0.63648 0.02417 0.0
C985 C 0.88584 0.64297 0.01438 0.0
C986 C 0.86775 0.65345 0.02802 0.0
C987 C 0.87222 0.65797 0.05054 0.0
H988 H 0.92107 0.8957 0.44864 0.0
H989 H 0.85698 0.85058 0.44611 0.0
H990 H 0.91368 0.90392 0.48779 0.0
H991 H 0.84861 0.85954 0.48515 0.0
H992 H 0.85398 0.85894 0.56063 0.0
H993 H 0.86201 0.85079 0.52137 0.0
H994 H 0.88986 0.92405 0.51384 0.0
H995 H 0.88282 0.93141 0.55317 0.0
C996 C 0.90497 0.88813 0.45645 0.0
C997 C 0.88938 0.87282 0.44442 0.0
C998 C 0.90067 0.89279 0.47891 0.0
C999 C 0.88052 0.88238 0.4899 0.0
C1000 C 0.86455 0.86756 0.4775 0.0
C1001 C 0.86905 0.8627 0.45505 0.0
C1002 C 0.86213 0.87306 0.55051 0.0
C1003 C 0.86779 0.89576 0.55978 0.0
C1004 C 0.86645 0.86858 0.52795 0.0
C1005 C 0.87641 0.88681 0.51415 0.0
C1006 C 0.88248 0.90939 0.52379 0.0
C1007 C 0.87839 0.91372 0.54633 0.0
H1008 H 0.19936 0.2995 0.12129 0.0
H1009 H 0.2663 0.33305 0.14308 0.0
H1010 H 0.2191 0.25971 0.12152 0.0
H1011 H 0.28627 0.29323 0.1428 0.0
H1012 H 0.30542 0.21557 0.16522 0.0
H1013 H 0.28588 0.25528 0.16363 0.0
H1014 H 0.24953 0.23453 0.10314 0.0
H1015 H 0.26942 0.19472 0.10454 0.0
C1016 C 0.21834 0.29844 0.1261 0.0
C1017 C 0.23113 0.31963 0.13233 0.0
C1018 C 0.22975 0.27555 0.12602 0.0
C1019 C 0.25432 0.27305 0.13228 0.0
C1020 C 0.26725 0.2943 0.13815 0.0
C1021 C 0.25586 0.31725 0.13808 0.0
C1022 C 0.29348 0.21943 0.1514 0.0
C1023 C 0.2893 0.20174 0.13489 0.0
C1024 C 0.28223 0.24235 0.1505 0.0
C1025 C 0.26622 0.24839 0.13315 0.0
C1026 C 0.26159 0.23057 0.11687 0.0
C1027 C 0.27297 0.20762 0.1177 0.0
H1028 H 0.33366 0.25448 0.64411 0.0
H1029 H 0.30047 0.3204 0.61954 0.0
H1030 H 0.294 0.23431 0.64349 0.0
H1031 H 0.26098 0.30027 0.61861 0.0
H1032 H 0.18932 0.26548 0.64192 0.0
H1033 H 0.22905 0.28547 0.64134 0.0
H1034 H 0.26267 0.21796 0.62093 0.0
H1035 H 0.22306 0.19802 0.62181 0.0
C1036 C 0.31799 0.2646 0.6383 0.0
C1037 C 0.3204 0.28918 0.63204 0.0
C1038 C 0.29513 0.25302 0.63792 0.0
C1039 C 0.27398 0.26559 0.63113 0.0
C1040 C 0.27657 0.29003 0.62444 0.0
C1041 C 0.29935 0.30161 0.62491 0.0
C1042 C 0.20515 0.25496 0.6371 0.0
C1043 C 0.20284 0.23004 0.63205 0.0
C1044 C 0.22805 0.26645 0.63674 0.0
C1045 C 0.24937 0.25342 0.63118 0.0
C1046 C 0.24693 0.22859 0.62576 0.0
C1047 C 0.22408 0.21711 0.62622 0.0
H1048 H 0.30478 0.30581 0.3407 0.0
H1049 H 0.2719 0.32474 0.40337 0.0
H1050 H 0.28552 0.26593 0.34224 0.0
H1051 H 0.25239 0.28478 0.4048 0.0
H1052 H 0.20137 0.22044 0.38789 0.0
H1053 H 0.22118 0.26015 0.38768 0.0
H1054 H 0.28666 0.2273 0.3616 0.0
H1055 H 0.26651 0.18757 0.3612 0.0
C1056 C 0.2936 0.30147 0.35495 0.0
C1057 C 0.29015 0.3187 0.37199 0.0
C1058 C 0.28252 0.27846 0.35583 0.0
C1059 C 0.26746 0.27185 0.37373 0.0
C1060 C 0.26365 0.28918 0.39062 0.0
C1061 C 0.27483 0.31223 0.38978 0.0
C1062 C 0.21998 0.22163 0.38201 0.0
C1063 C 0.2322 0.20066 0.37438 0.0
C1064 C 0.23147 0.24447 0.38212 0.0
C1065 C 0.25557 0.24716 0.37452 0.0
C1066 C 0.26798 0.22611 0.36729 0.0
C1067 C 0.25651 0.20319 0.3673 0.0
H1068 H 0.33271 0.2658 0.86237 0.0
H1069 H 0.29912 0.19967 0.88612 0.0
H1070 H 0.29301 0.28605 0.86294 0.0
H1071 H 0.25948 0.21961 0.88609 0.0
H1072 H 0.19474 0.26978 0.90269 0.0
H1073 H 0.23468 0.25019 0.90404 0.0
H1074 H 0.25472 0.28576 0.84293 0.0
H1075 H 0.21488 0.30512 0.84145 0.0
C1076 C 0.31693 0.2556 0.86786 0.0
C1077 C 0.31925 0.231 0.87406 0.0
C1078 C 0.29405 0.26714 0.86795 0.0
C1079 C 0.27282 0.25449 0.87442 0.0
C1080 C 0.27529 0.23008 0.88115 0.0
C1081 C 0.2981 0.21853 0.88094 0.0
C1082 C 0.20752 0.27324 0.88939 0.0
C1083 C 0.2014 0.28925 0.87204 0.0
C1084 C 0.23055 0.26202 0.8902 0.0
C1085 C 0.24819 0.26647 0.87369 0.0
C1086 C 0.24194 0.28225 0.85622 0.0
C1087 C 0.21895 0.29338 0.85538 0.0
H1088 H 0.70075 0.79975 0.88782 0.0
H1089 H 0.76615 0.83267 0.86172 0.0
H1090 H 0.72086 0.76026 0.88863 0.0
H1091 H 0.78632 0.79301 0.86231 0.0
H1092 H 0.82291 0.72225 0.88424 0.0
H1093 H 0.803 0.76186 0.88515 0.0
H1094 H 0.73522 0.72825 0.86553 0.0
H1095 H 0.75519 0.68852 0.86482 0.0
C1096 C 0.71942 0.79858 0.8821 0.0
C1097 C 0.7317 0.81955 0.87456 0.0
C1098 C 0.73099 0.7758 0.88251 0.0
C1099 C 0.75527 0.77314 0.87539 0.0
C1100 C 0.76773 0.79421 0.86821 0.0
C1101 C 0.75614 0.81707 0.86786 0.0
C1102 C 0.80377 0.72327 0.87999 0.0
C1103 C 0.79076 0.70202 0.87433 0.0
C1104 C 0.79231 0.74611 0.88048 0.0
C1105 C 0.76742 0.74855 0.8753 0.0
C1106 C 0.75431 0.72724 0.86993 0.0
C1107 C 0.76578 0.70434 0.86951 0.0
H1108 H 0.71153 0.71991 0.3383 0.0
H1109 H 0.69767 0.74618 0.40449 0.0
H1110 H 0.75144 0.73938 0.33868 0.0
H1111 H 0.73769 0.76606 0.40476 0.0
H1112 H 0.82207 0.77608 0.40498 0.0
H1113 H 0.78209 0.75614 0.40531 0.0
H1114 H 0.76978 0.77985 0.33808 0.0
H1115 H 0.80966 0.79937 0.33766 0.0
C1116 C 0.71698 0.72986 0.35298 0.0
C1117 C 0.70128 0.73136 0.37139 0.0
C1118 C 0.73987 0.74122 0.35312 0.0
C1119 C 0.74795 0.75433 0.37176 0.0
C1120 C 0.73224 0.75594 0.39019 0.0
C1121 C 0.70916 0.74476 0.38995 0.0
C1122 C 0.81092 0.77683 0.39021 0.0
C1123 C 0.81918 0.78942 0.37131 0.0
C1124 C 0.78785 0.76561 0.39047 0.0
C1125 C 0.77254 0.76638 0.37174 0.0
C1126 C 0.78102 0.77867 0.35277 0.0
C1127 C 0.8039 0.79006 0.35259 0.0
H1128 H 0.75488 0.83313 0.64369 0.0
H1129 H 0.82079 0.80022 0.61865 0.0
H1130 H 0.73485 0.79339 0.64309 0.0
H1131 H 0.80084 0.76064 0.61795 0.0
H1132 H 0.76628 0.68908 0.6422 0.0
H1133 H 0.78612 0.72888 0.64145 0.0
H1134 H 0.71879 0.76194 0.61991 0.0
H1135 H 0.69902 0.72226 0.62075 0.0
C1136 C 0.76504 0.81752 0.63779 0.0
C1137 C 0.78958 0.82004 0.63139 0.0
C1138 C 0.75354 0.79462 0.63745 0.0
C1139 C 0.76618 0.77353 0.63062 0.0
C1140 C 0.79057 0.77621 0.6238 0.0
C1141 C 0.80205 0.79904 0.62417 0.0
C1142 C 0.75576 0.70478 0.63707 0.0
C1143 C 0.73093 0.70228 0.63168 0.0
C1144 C 0.76715 0.72772 0.63664 0.0
C1145 C 0.75412 0.7489 0.63072 0.0
C1146 C 0.7294 0.74629 0.625 0.0
C1147 C 0.71802 0.7234 0.62546 0.0
H1148 H 0.80999 0.72044 0.16737 0.0
H1149 H 0.82392 0.74697 0.10129 0.0
H1150 H 0.77005 0.73991 0.16701 0.0
H1151 H 0.78383 0.76674 0.10099 0.0
H1152 H 0.69919 0.77609 0.10089 0.0
H1153 H 0.73925 0.75625 0.10056 0.0
H1154 H 0.75191 0.7808 0.16747 0.0
H1155 H 0.712 0.80034 0.16785 0.0
C1156 C 0.80454 0.73045 0.15273 0.0
C1157 C 0.82027 0.73204 0.13434 0.0
C1158 C 0.78164 0.74178 0.15258 0.0
C1159 C 0.77356 0.75492 0.13396 0.0
C1160 C 0.78929 0.7566 0.11555 0.0
C1161 C 0.81241 0.74548 0.1158 0.0
C1162 C 0.71045 0.77706 0.11559 0.0
C1163 C 0.70229 0.78989 0.13438 0.0
C1164 C 0.73354 0.7659 0.11532 0.0
C1165 C 0.74896 0.76693 0.13397 0.0
C1166 C 0.74057 0.77944 0.15285 0.0
C1167 C 0.71769 0.79081 0.15301 0.0
H1168 H 0.24678 0.12619 0.31709 0.0
H1169 H 0.19387 0.09327 0.27369 0.0
H1170 H 0.27576 0.12892 0.28624 0.0
H1171 H 0.2224 0.09693 0.24263 0.0
H1172 H 0.27488 0.12615 0.18844 0.0
H1173 H 0.24571 0.12915 0.21915 0.0
H1174 H 0.29829 0.09613 0.26291 0.0
H1175 H 0.32695 0.09217 0.232 0.0
C1176 C 0.24111 0.12021 0.30078 0.0
C1177 C 0.21776 0.11018 0.29772 0.0
C1178 C 0.25776 0.12159 0.28317 0.0
C1179 C 0.25139 0.11324 0.26193 0.0
C1180 C 0.22775 0.10389 0.25869 0.0
C1181 C 0.21126 0.10206 0.27644 0.0
C1182 C 0.28032 0.11994 0.20474 0.0
C1183 C 0.30353 0.10962 0.20791 0.0
C1184 C 0.26357 0.1215 0.22227 0.0
C1185 C 0.2697 0.11302 0.24353 0.0
C1186 C 0.29314 0.10323 0.24684 0.0
C1187 C 0.30971 0.10122 0.22918 0.0
H1188 H 0.42974 0.32675 0.73211 0.0
H1189 H 0.39606 0.2742 0.68883 0.0
H1190 H 0.42596 0.29827 0.76316 0.0
H1191 H 0.39327 0.24522 0.71967 0.0
H1192 H 0.42946 0.19393 0.77424 0.0
H1193 H 0.42603 0.22246 0.74321 0.0
H1194 H 0.39299 0.27549 0.78655 0.0
H1195 H 0.39543 0.24646 0.81737 0.0
C1196 C 0.42079 0.30944 0.72938 0.0
C1197 C 0.41242 0.30306 0.70815 0.0
C1198 C 0.41889 0.29298 0.74712 0.0
C1199 C 0.40926 0.26946 0.74392 0.0
C1200 C 0.4008 0.26315 0.7227 0.0
C1201 C 0.40223 0.27979 0.70509 0.0
C1202 C 0.42052 0.21125 0.77693 0.0
C1203 C 0.41194 0.2176 0.79811 0.0
C1204 C 0.41882 0.22774 0.7592 0.0
C1205 C 0.40918 0.25126 0.76237 0.0
C1206 C 0.40053 0.25756 0.78354 0.0
C1207 C 0.40177 0.24089 0.80114 0.0
H1208 H 0.21005 0.45295 0.21988 0.0
H1209 H 0.23134 0.38052 0.20052 0.0
H1210 H 0.23847 0.45135 0.25113 0.0
H1211 H 0.25977 0.37864 0.23197 0.0
H1212 H 0.29024 0.38006 0.30549 0.0
H1213 H 0.26186 0.37854 0.27399 0.0
H1214 H 0.28379 0.45116 0.2551 0.0
H1215 H 0.31215 0.4524 0.2864 0.0
C1216 C 0.22059 0.43653 0.22259 0.0
C1217 C 0.21854 0.41686 0.20786 0.0
C1218 C 0.23704 0.43567 0.24033 0.0
C1219 C 0.25169 0.41498 0.24394 0.0
C1220 C 0.24878 0.39484 0.22972 0.0
C1221 C 0.23249 0.39585 0.21177 0.0
C1222 C 0.28925 0.39543 0.29428 0.0
C1223 C 0.30336 0.41632 0.29828 0.0
C1224 C 0.27298 0.39463 0.27631 0.0
C1225 C 0.27025 0.41486 0.26215 0.0
C1226 C 0.28507 0.43541 0.26585 0.0
C1227 C 0.3015 0.43607 0.28361 0.0
H1228 H 0.14213 0.22994 0.70088 0.0
H1229 H 0.06861 0.21096 0.71896 0.0
H1230 H 0.14403 0.25865 0.73214 0.0
H1231 H 0.07023 0.23971 0.74996 0.0
H1232 H 0.07041 0.31377 0.78451 0.0
H1233 H 0.07186 0.28534 0.75324 0.0
H1234 H 0.14282 0.26077 0.77445 0.0
H1235 H 0.14107 0.28917 0.80593 0.0
C1236 C 0.12654 0.23168 0.71179 0.0
C1237 C 0.10522 0.21833 0.70755 0.0
C1238 C 0.12757 0.24813 0.72962 0.0
C1239 C 0.10715 0.25179 0.74339 0.0
C1240 C 0.08613 0.23771 0.73948 0.0
C1241 C 0.08525 0.22108 0.72189 0.0
C1242 C 0.08647 0.30258 0.78219 0.0
C1243 C 0.10568 0.30369 0.79751 0.0
C1244 C 0.08722 0.2861 0.76447 0.0
C1245 C 0.10733 0.27051 0.76145 0.0
C1246 C 0.12709 0.27251 0.77623 0.0
C1247 C 0.12617 0.28881 0.79419 0.0
H1248 H 0.74641 0.89345 0.81725 0.0
H1249 H 0.69393 0.92647 0.77348 0.0
H1250 H 0.77556 0.89045 0.78656 0.0
H1251 H 0.72264 0.92258 0.74259 0.0
H1252 H 0.77486 0.89381 0.68854 0.0
H1253 H 0.74574 0.89053 0.71923 0.0
H1254 H 0.79855 0.9227 0.7633 0.0
H1255 H 0.82722 0.92685 0.73241 0.0
C1256 C 0.74087 0.8994 0.8009 0.0
C1257 C 0.71759 0.90953 0.79767 0.0
C1258 C 0.75762 0.89786 0.78338 0.0
C1259 C 0.75142 0.90617 0.76208 0.0
C1260 C 0.72786 0.91564 0.75869 0.0
C1261 C 0.71127 0.91761 0.77634 0.0
C1262 C 0.78039 0.8997 0.70491 0.0
C1263 C 0.80362 0.90992 0.70816 0.0
C1264 C 0.76366 0.89801 0.72243 0.0
C1265 C 0.76982 0.90625 0.74376 0.0
C1266 C 0.79335 0.9158 0.74717 0.0
C1267 C 0.80992 0.91792 0.72952 0.0
H1268 H 0.56946 0.70928 0.28563 0.0
H1269 H 0.64165 0.73083 0.30553 0.0
H1270 H 0.57121 0.73782 0.25446 0.0
H1271 H 0.64369 0.75935 0.27413 0.0
H1272 H 0.64218 0.78996 0.20039 0.0
H1273 H 0.64381 0.76139 0.23178 0.0
H1274 H 0.5714 0.78348 0.25123 0.0
H1275 H 0.57006 0.81206 0.22009 0.0
C1276 C 0.58588 0.71987 0.28303 0.0
C1277 C 0.60543 0.71789 0.2979 0.0
C1278 C 0.58682 0.73639 0.26535 0.0
C1279 C 0.60747 0.75115 0.26193 0.0
C1280 C 0.62753 0.74827 0.27625 0.0
C1281 C 0.62643 0.73192 0.29416 0.0
C1282 C 0.62688 0.78897 0.21171 0.0
C1283 C 0.60602 0.80318 0.20792 0.0
C1284 C 0.62775 0.77259 0.22961 0.0
C1285 C 0.60759 0.76986 0.24387 0.0
C1286 C 0.58708 0.78479 0.24039 0.0
C1287 C 0.58637 0.80134 0.22273 0.0
H1288 H 0.79143 0.64207 0.80519 0.0
H1289 H 0.80958 0.56842 0.787 0.0
H1290 H 0.76272 0.64437 0.77395 0.0
H1291 H 0.78081 0.57042 0.75605 0.0
H1292 H 0.7065 0.57153 0.7219 0.0
H1293 H 0.73498 0.57271 0.75314 0.0
H1294 H 0.76078 0.64306 0.73145 0.0
H1295 H 0.73234 0.64157 0.69998 0.0
C1296 C 0.78951 0.62654 0.79426 0.0
C1297 C 0.80261 0.60506 0.79847 0.0
C1298 C 0.77306 0.62779 0.77645 0.0
C1299 C 0.76916 0.60744 0.76268 0.0
C1300 C 0.78301 0.58627 0.76654 0.0
C1301 C 0.79965 0.58517 0.7841 0.0
C1302 C 0.71796 0.58741 0.72412 0.0
C1303 C 0.71718 0.60652 0.70868 0.0
C1304 C 0.73446 0.588 0.74182 0.0
C1305 C 0.75041 0.60785 0.74468 0.0
C1306 C 0.74875 0.62753 0.72978 0.0
C1307 C 0.73244 0.62676 0.71184 0.0
H1308 H 0.87931 0.79177 0.3049 0.0
H1309 H 0.95378 0.80836 0.28816 0.0
H1310 H 0.87714 0.76319 0.27354 0.0
H1311 H 0.9519 0.77973 0.25709 0.0
H1312 H 0.95001 0.70601 0.22209 0.0
H1313 H 0.94883 0.73422 0.25354 0.0
H1314 H 0.87919 0.76131 0.23127 0.0
H1315 H 0.88066 0.7331 0.19964 0.0
C1316 C 0.89507 0.78951 0.29428 0.0
C1317 C 0.91674 0.80211 0.29894 0.0
C1318 C 0.89389 0.77314 0.2764 0.0
C1319 C 0.91447 0.76885 0.26298 0.0
C1320 C 0.93585 0.78221 0.2673 0.0
C1321 C 0.93691 0.79876 0.28495 0.0
C1322 C 0.93427 0.71769 0.22423 0.0
C1323 C 0.91535 0.71732 0.2086 0.0
C1324 C 0.93369 0.73404 0.24206 0.0
C1325 C 0.91404 0.75027 0.24482 0.0
C1326 C 0.89455 0.74905 0.22969 0.0
C1327 C 0.89531 0.73287 0.21165 0.0
H1328 H 0.41948 1.00521 0.10506 0.0
H1329 H 0.4239 0.01207 0.17623 0.0
H1330 H 0.45053 0.97425 0.10582 0.0
H1331 H 0.45335 0.9791 0.17721 0.0
H1332 H 0.52373 0.93428 0.1717 0.0
H1333 H 0.49221 0.96562 0.17209 0.0
H1334 H 0.46204 0.93555 0.11183 0.0
H1335 H 0.4945 0.90544 0.11094 0.0
C1336 C 0.42692 1.00022 0.12101 0.0
C1337 C 0.41894 0.01188 0.14055 0.0
C1338 C 0.44465 0.98176 0.12149 0.0
C1339 C 0.45488 0.97357 0.1416 0.0
C1340 C 0.44653 0.98484 0.16124 0.0
C1341 C 0.42907 1.00369 0.16071 0.0
C1342 C 0.51026 0.93437 0.15861 0.0
C1343 C 0.51181 0.91734 0.14123 0.0
C1344 C 0.49194 0.95238 0.15883 0.0
C1345 C 0.47419 0.95371 0.14189 0.0
C1346 C 0.47548 0.93602 0.12491 0.0
C1347 C 0.49408 0.91841 0.12446 0.0
H1348 H 0.57887 0.52803 0.6156 0.0
H1349 H 0.6196 0.49153 0.66716 0.0
H1350 H 0.54891 0.49555 0.61623 0.0
H1351 H 0.58844 0.45971 0.66851 0.0
H1352 H 0.50913 0.42392 0.6768 0.0
H1353 H 0.54142 0.45461 0.67762 0.0
H1354 H 0.54868 0.44954 0.60673 0.0
H1355 H 0.51767 0.41801 0.60579 0.0
C1356 C 0.58179 0.5131 0.62698 0.0
C1357 C 0.60237 0.51265 0.64105 0.0
C1358 C 0.56428 0.49445 0.62743 0.0
C1359 C 0.56623 0.47486 0.64232 0.0
C1360 C 0.58626 0.47457 0.65688 0.0
C1361 C 0.60415 0.49303 0.65613 0.0
C1362 C 0.51783 0.42885 0.66135 0.0
C1363 C 0.51015 0.41827 0.64118 0.0
C1364 C 0.53636 0.44666 0.66187 0.0
C1365 C 0.54753 0.45481 0.64222 0.0
C1366 C 0.54023 0.44405 0.62216 0.0
C1367 C 0.52213 0.42596 0.62166 0.0
H1368 H 0.09969 0.51095 0.17556 0.0
H1369 H 0.10318 0.51721 0.10429 0.0
H1370 H 0.07015 0.54389 0.17666 0.0
H1371 H 0.07213 0.54823 0.10522 0.0
H1372 H 0.02849 0.61725 0.11061 0.0
H1373 H 0.06098 0.58717 0.11136 0.0
H1374 H 0.03095 0.55693 0.17164 0.0
H1375 H 0.99931 0.58817 0.17135 0.0
C1376 C 0.0943 0.51921 0.16005 0.0
C1377 C 0.10417 0.51087 0.13982 0.0
C1378 C 0.07681 0.53804 0.16065 0.0
C1379 C 0.06821 0.54913 0.14103 0.0
C1380 C 0.07821 0.54082 0.12086 0.0
C1381 C 0.09594 0.52236 0.12029 0.0
C1382 C 0.02892 0.60424 0.12409 0.0
C1383 C 0.01118 0.60523 0.14089 0.0
C1384 C 0.04755 0.58666 0.12447 0.0
C1385 C 0.04888 0.56895 0.14142 0.0
C1386 C 0.03116 0.5702 0.1584 0.0
C1387 C 0.01279 0.58816 0.15823 0.0
H1388 H 0.93505 0.99787 0.67235 0.0
H1389 H 0.90477 0.02779 0.61242 0.0
H1390 H 0.96627 0.02956 0.67247 0.0
H1391 H 0.93491 0.06023 0.61299 0.0
H1392 H 1.00513 0.10197 0.60507 0.0
H1393 H 0.97404 0.07094 0.60626 0.0
H1394 H 0.97904 0.06901 0.67765 0.0
H1395 H 0.01196 0.09861 0.67628 0.0
C1396 C 0.93479 0.0115 0.65938 0.0
C1397 C 0.9174 1.01009 0.64231 0.0
C1398 C 0.95274 0.02989 0.65945 0.0
C1399 C 0.95367 0.04778 0.64262 0.0
C1400 C 0.93564 0.04666 0.62596 0.0
C1401 C 0.91804 0.02805 0.62569 0.0
C1402 C 1.00009 0.09475 0.6211 0.0
C1403 C 0.01172 0.10301 0.64055 0.0
C1404 C 0.98162 0.07704 0.62183 0.0
C1405 C 0.97349 0.06708 0.64208 0.0
C1406 C 0.98476 0.07568 0.66161 0.0
C1407 C 1.00356 0.09317 0.66085 0.0
H1408 H 0.49353 0.61611 0.39572 0.0
H1409 H 0.52201 0.58752 0.33452 0.0
H1410 H 0.46103 0.58603 0.3951 0.0
H1411 H 0.49039 0.55626 0.33435 0.0
H1412 H 0.4217 0.51021 0.33081 0.0
H1413 H 0.45121 0.54315 0.32963 0.0
H1414 H 0.44989 0.5471 0.40111 0.0
H1415 H 0.41883 0.51609 0.40212 0.0
C1416 C 0.49294 0.60321 0.38216 0.0
C1417 C 0.51048 0.60433 0.36519 0.0
C1418 C 0.47431 0.58563 0.38186 0.0
C1419 C 0.4728 0.56804 0.36481 0.0
C1420 C 0.49032 0.56943 0.34767 0.0
C1421 C 0.50868 0.5874 0.34777 0.0
C1422 C 0.42722 0.51839 0.34631 0.0
C1423 C 0.41751 0.50995 0.36657 0.0
C1424 C 0.4447 0.53722 0.34566 0.0
C1425 C 0.45347 0.54821 0.36526 0.0
C1426 C 0.44366 0.53978 0.38547 0.0
C1427 C 0.42592 0.52132 0.3861 0.0
H1428 H 0.02849 0.44243 0.89068 0.0
H1429 H 0.99063 0.40163 0.8401 0.0
H1430 H 0.99687 0.47281 0.89016 0.0
H1431 H 0.95991 0.43351 0.83808 0.0
H1432 H 0.89524 0.4847 0.85327 0.0
H1433 H 0.92621 0.45265 0.85303 0.0
H1434 H 0.98041 0.50544 0.87296 0.0
H1435 H 0.9492 0.53674 0.87434 0.0
C1436 C 0.01345 0.43972 0.87938 0.0
C1437 C 0.01241 0.41894 0.86565 0.0
C1438 C 0.99531 0.45773 0.87872 0.0
C1439 C 0.97549 0.45618 0.86392 0.0
C1440 C 0.9745 0.43554 0.84997 0.0
C1441 C 0.99253 0.41724 0.85089 0.0
C1442 C 0.91382 0.48937 0.85755 0.0
C1443 C 0.91959 0.5133 0.86407 0.0
C1444 C 0.93176 0.47096 0.85733 0.0
C1445 C 0.95618 0.47597 0.86325 0.0
C1446 C 0.96191 0.50025 0.86899 0.0
C1447 C 0.94394 0.51844 0.86961 0.0
H1448 H 1.00965 0.92195 0.3303 0.0
H1449 H 0.01584 0.91932 0.40158 0.0
H1450 H 0.04254 0.95157 0.32892 0.0
H1451 H 0.04693 0.95036 0.40036 0.0
H1452 H 0.11635 0.99337 0.39424 0.0
H1453 H 0.08616 0.96097 0.39377 0.0
H1454 H 0.05523 0.9911 0.33389 0.0
H1455 H 0.08647 0.02276 0.33393 0.0
C1456 C 0.0179 0.92754 0.34575 0.0
C1457 C 1.00958 0.9179 0.36607 0.0
C1458 C 0.0367 0.94506 0.34498 0.0
C1459 C 0.04779 0.95385 0.36451 0.0
C1460 C 0.03949 0.94409 0.38478 0.0
C1461 C 0.02102 0.92637 0.38553 0.0
C1462 C 0.10316 0.99301 0.38091 0.0
C1463 C 0.10393 0.01081 0.36415 0.0
C1464 C 0.08553 0.97442 0.38069 0.0
C1465 C 0.06761 0.97315 0.36394 0.0
C1466 C 0.06867 0.99089 0.34698 0.0
C1467 C 0.08664 1.00926 0.347 0.0
H1468 H 0.58536 0.99635 0.83346 0.0
H1469 H 0.61634 0.02726 0.89266 0.0
H1470 H 0.55407 0.02795 0.83325 0.0
H1471 H 0.58619 0.05969 0.89194 0.0
H1472 H 0.51628 0.10177 0.89995 0.0
H1473 H 0.54732 0.07073 0.89891 0.0
H1474 H 0.54098 0.06709 0.82764 0.0
H1475 H 0.50805 0.09662 0.82894 0.0
C1476 C 0.58575 1.01019 0.84623 0.0
C1477 C 0.60336 1.0091 0.86314 0.0
C1478 C 0.56777 0.02854 0.84611 0.0
C1479 C 0.56704 0.04672 0.86269 0.0
C1480 C 0.58529 0.0459 0.87918 0.0
C1481 C 0.6029 0.02731 0.87952 0.0
C1482 C 0.521 0.09416 0.88399 0.0
C1483 C 0.50897 0.10192 0.86457 0.0
C1484 C 0.53946 0.07644 0.88333 0.0
C1485 C 0.54721 0.06601 0.86316 0.0
C1486 C 0.53557 0.07412 0.84365 0.0
C1487 C 0.51675 0.09159 0.84435 0.0
loop_
_geom_bond_atom_site_label_1
_geom_bond_atom_site_label_2
_geom_bond_distance
_geom_bond_site_symmetry_2
_ccdc_geom_bond_type
C0 C1 1.443 . S
C0 N4 1.376 . S
C0 C38 1.389 . S
C1 C0 1.443 . S
C1 C2 1.340 . S
C1 H41 0.951 . S
C2 C1 1.340 . S
C2 C3 1.439 . S
C2 H42 0.950 . S
C3 C2 1.439 . S
C3 N4 1.374 . S
C3 C37 1.395 . S
N4 C0 1.376 . S
N4 C3 1.374 . S
N4 Co5 2.008 . S
Co5 N4 2.008 . S
Co5 N6 1.995 . S
Co5 N11 2.008 . S
Co5 N16 1.995 . S
Co5 N21 2.282 . S
Co5 N27 2.282 . S
N6 Co5 1.995 . S
N6 C7 1.376 . S
N6 C10 1.383 . S
C7 N6 1.376 . S
C7 C8 1.446 . S
C7 C37 1.391 . S
C8 C7 1.446 . S
C8 C9 1.339 . S
C8 H43 0.949 . S
C9 C8 1.339 . S
C9 C10 1.439 . S
C9 H44 0.950 . S
C10 N6 1.383 . S
C10 C9 1.439 . S
C10 C39 1.392 . S
N11 Co5 2.008 . S
N11 C12 1.376 . S
N11 C15 1.374 . S
C12 N11 1.376 . S
C12 C13 1.443 . S
C12 C39 1.389 . S
C13 C12 1.443 . S
C13 C14 1.340 . S
C13 H45 0.951 . S
C14 C13 1.340 . S
C14 C15 1.439 . S
C14 H46 0.950 . S
C15 N11 1.374 . S
C15 C14 1.439 . S
C15 C40 1.395 . S
N16 Co5 1.995 . S
N16 C17 1.376 . S
N16 C20 1.383 . S
C17 N16 1.376 . S
C17 C18 1.446 . S
C17 C40 1.391 . S
C18 C17 1.446 . S
C18 C19 1.339 . S
C18 H47 0.949 . S
C19 C18 1.339 . S
C19 C20 1.439 . S
C19 H48 0.950 . S
C20 N16 1.383 . S
C20 C19 1.439 . S
C20 C38 1.392 . S
N21 Co5 2.282 . S
N21 C24 1.332 . S
N21 C26 1.332 . S
C22 C23 1.386 . S
C22 C25 1.388 . S
C23 C22 1.386 . S
C23 C24 1.382 . S
C23 H49 0.950 . S
C24 N21 1.332 . S
C24 C23 1.382 . S
C24 H35 0.952 . S
C25 C22 1.388 . S
C25 C26 1.382 . S
C25 H50 0.950 . S
C26 N21 1.332 . S
C26 C25 1.382 . S
C26 H36 0.948 . S
N27 Co5 2.282 . S
N27 C31 1.332 . S
N27 C32 1.332 . S
C28 C29 1.388 . S
C28 C32 1.382 . S
C28 H51 0.950 . S
C29 C28 1.388 . S
C29 C30 1.386 . S
C30 C29 1.386 . S
C30 C31 1.382 . S
C30 H52 0.950 . S
C31 N27 1.332 . S
C31 C30 1.382 . S
C31 H33 0.952 . S
C32 N27 1.332 . S
C32 C28 1.382 . S
C32 H34 0.948 . S
H33 C31 0.952 . S
H34 C32 0.948 . S
H35 C24 0.952 . S
H36 C26 0.948 . S
C37 C3 1.395 . S
C37 C7 1.391 . S
C38 C0 1.389 . S
C38 C20 1.392 . S
C39 C10 1.392 . S
C39 C12 1.389 . S
C40 C15 1.395 . S
C40 C17 1.391 . S
H41 C1 0.951 . S
H42 C2 0.950 . S
H43 C8 0.949 . S
H44 C9 0.950 . S
H45 C13 0.951 . S
H46 C14 0.950 . S
H47 C18 0.949 . S
H48 C19 0.950 . S
H49 C23 0.950 . S
H50 C25 0.950 . S
H51 C28 0.950 . S
H52 C30 0.950 . S
C53 C54 1.443 . S
C53 N57 1.376 . S
C53 C91 1.389 . S
C54 C53 1.443 . S
C54 C55 1.340 . S
C54 H94 0.951 . S
C55 C54 1.340 . S
C55 C56 1.439 . S
C55 H95 0.950 . S
C56 C55 1.439 . S
C56 N57 1.374 . S
C56 C90 1.395 . S
N57 C53 1.376 . S
N57 C56 1.374 . S
N57 Co58 2.008 . S
Co58 N57 2.008 . S
Co58 N59 1.995 . S
Co58 N64 2.008 . S
Co58 N69 1.995 . S
Co58 N74 2.282 . S
Co58 N80 2.282 . S
N59 Co58 1.995 . S
N59 C60 1.376 . S
N59 C63 1.383 . S
C60 N59 1.376 . S
C60 C61 1.446 . S
C60 C90 1.391 . S
C61 C60 1.446 . S
C61 C62 1.339 . S
C61 H96 0.949 . S
C62 C61 1.339 . S
C62 C63 1.439 . S
C62 H97 0.950 . S
C63 N59 1.383 . S
C63 C62 1.439 . S
C63 C92 1.392 . S
N64 Co58 2.008 . S
N64 C65 1.376 . S
N64 C68 1.374 . S
C65 N64 1.376 . S
C65 C66 1.443 . S
C65 C92 1.389 . S
C66 C65 1.443 . S
C66 C67 1.340 . S
C66 H98 0.951 . S
C67 C66 1.340 . S
C67 C68 1.439 . S
C67 H99 0.950 . S
C68 N64 1.374 . S
C68 C67 1.439 . S
C68 C93 1.395 . S
N69 Co58 1.995 . S
N69 C70 1.376 . S
N69 C73 1.383 . S
C70 N69 1.376 . S
C70 C71 1.446 . S
C70 C93 1.391 . S
C71 C70 1.446 . S
C71 C72 1.339 . S
C71 H100 0.949 . S
C72 C71 1.339 . S
C72 C73 1.439 . S
C72 H101 0.950 . S
C73 N69 1.383 . S
C73 C72 1.439 . S
C73 C91 1.392 . S
N74 Co58 2.282 . S
N74 C77 1.332 . S
N74 C79 1.332 . S
C75 C76 1.386 . S
C75 C78 1.388 . S
C76 C75 1.386 . S
C76 C77 1.382 . S
C76 H102 0.950 . S
C77 N74 1.332 . S
C77 C76 1.382 . S
C77 H88 0.952 . S
C78 C75 1.388 . S
C78 C79 1.382 . S
C78 H103 0.950 . S
C79 N74 1.332 . S
C79 C78 1.382 . S
C79 H89 0.948 . S
N80 Co58 2.282 . S
N80 C84 1.332 . S
N80 C85 1.332 . S
C81 C82 1.388 . S
C81 C85 1.382 . S
C81 H104 0.950 . S
C82 C81 1.388 . S
C82 C83 1.386 . S
C83 C82 1.386 . S
C83 C84 1.382 . S
C83 H105 0.950 . S
C84 N80 1.332 . S
C84 C83 1.382 . S
C84 H86 0.952 . S
C85 N80 1.332 . S
C85 C81 1.382 . S
C85 H87 0.948 . S
H86 C84 0.952 . S
H87 C85 0.948 . S
H88 C77 0.952 . S
H89 C79 0.948 . S
C90 C56 1.395 . S
C90 C60 1.391 . S
C91 C53 1.389 . S
C91 C73 1.392 . S
C92 C63 1.392 . S
C92 C65 1.389 . S
C93 C68 1.395 . S
C93 C70 1.391 . S
H94 C54 0.951 . S
H95 C55 0.950 . S
H96 C61 0.949 . S
H97 C62 0.950 . S
H98 C66 0.951 . S
H99 C67 0.950 . S
H100 C71 0.949 . S
H101 C72 0.950 . S
H102 C76 0.950 . S
H103 C78 0.950 . S
H104 C81 0.950 . S
H105 C83 0.950 . S
C106 C107 1.443 . S
C106 N110 1.376 . S
C106 C144 1.389 . S
C107 C106 1.443 . S
C107 C108 1.340 . S
C107 H147 0.951 . S
C108 C107 1.340 . S
C108 C109 1.439 . S
C108 H148 0.950 . S
C109 C108 1.439 . S
C109 N110 1.374 . S
C109 C143 1.395 . S
N110 C106 1.376 . S
N110 C109 1.374 . S
N110 Co111 2.008 . S
Co111 N110 2.008 . S
Co111 N112 1.995 . S
Co111 N117 2.008 . S
Co111 N122 1.995 . S
Co111 N127 2.282 . S
Co111 N133 2.282 . S
N112 Co111 1.995 . S
N112 C113 1.376 . S
N112 C116 1.383 . S
C113 N112 1.376 . S
C113 C114 1.446 . S
C113 C143 1.391 . S
C114 C113 1.446 . S
C114 C115 1.339 . S
C114 H149 0.949 . S
C115 C114 1.339 . S
C115 C116 1.439 . S
C115 H150 0.950 . S
C116 N112 1.383 . S
C116 C115 1.439 . S
C116 C145 1.392 . S
N117 Co111 2.008 . S
N117 C118 1.376 . S
N117 C121 1.374 . S
C118 N117 1.376 . S
C118 C119 1.443 . S
C118 C145 1.389 . S
C119 C118 1.443 . S
C119 C120 1.340 . S
C119 H151 0.951 . S
C120 C119 1.340 . S
C120 C121 1.439 . S
C120 H152 0.950 . S
C121 N117 1.374 . S
C121 C120 1.439 . S
C121 C146 1.395 . S
N122 Co111 1.995 . S
N122 C123 1.376 . S
N122 C126 1.383 . S
C123 N122 1.376 . S
C123 C124 1.446 . S
C123 C146 1.391 . S
C124 C123 1.446 . S
C124 C125 1.339 . S
C124 H153 0.949 . S
C125 C124 1.339 . S
C125 C126 1.439 . S
C125 H154 0.950 . S
C126 N122 1.383 . S
C126 C125 1.439 . S
C126 C144 1.392 . S
N127 Co111 2.282 . S
N127 C130 1.332 . S
N127 C132 1.332 . S
C128 C129 1.386 . S
C128 C131 1.388 . S
C129 C128 1.386 . S
C129 C130 1.382 . S
C129 H155 0.950 . S
C130 N127 1.332 . S
C130 C129 1.382 . S
C130 H141 0.952 . S
C131 C128 1.388 . S
C131 C132 1.382 . S
C131 H156 0.950 . S
C132 N127 1.332 . S
C132 C131 1.382 . S
C132 H142 0.948 . S
N133 Co111 2.282 . S
N133 C137 1.332 . S
N133 C138 1.332 . S
C134 C135 1.388 . S
C134 C138 1.382 . S
C134 H157 0.950 . S
C135 C134 1.388 . S
C135 C136 1.386 . S
C136 C135 1.386 . S
C136 C137 1.382 . S
C136 H158 0.950 . S
C137 N133 1.332 . S
C137 C136 1.382 . S
C137 H139 0.952 . S
C138 N133 1.332 . S
C138 C134 1.382 . S
C138 H140 0.948 . S
H139 C137 0.952 . S
H140 C138 0.948 . S
H141 C130 0.952 . S
H142 C132 0.948 . S
C143 C109 1.395 . S
C143 C113 1.391 . S
C144 C106 1.389 . S
C144 C126 1.392 . S
C145 C116 1.392 . S
C145 C118 1.389 . S
C146 C121 1.395 . S
C146 C123 1.391 . S
H147 C107 0.951 . S
H148 C108 0.950 . S
H149 C114 0.949 . S
H150 C115 0.950 . S
H151 C119 0.951 . S
H152 C120 0.950 . S
H153 C124 0.949 . S
H154 C125 0.950 . S
H155 C129 0.950 . S
H156 C131 0.950 . S
H157 C134 0.950 . S
H158 C136 0.950 . S
C159 C160 1.443 . S
C159 N163 1.376 . S
C159 C197 1.389 . S
C160 C159 1.443 . S
C160 C161 1.340 . S
C160 H200 0.951 . S
C161 C160 1.340 . S
C161 C162 1.439 . S
C161 H201 0.950 . S
C162 C161 1.439 . S
C162 N163 1.374 . S
C162 C196 1.395 . S
N163 C159 1.376 . S
N163 C162 1.374 . S
N163 Co164 2.008 . S
Co164 N163 2.008 . S
Co164 N165 1.995 . S
Co164 N170 2.008 . S
Co164 N175 1.995 . S
Co164 N180 2.282 . S
Co164 N186 2.282 . S
N165 Co164 1.995 . S
N165 C166 1.376 . S
N165 C169 1.383 . S
C166 N165 1.376 . S
C166 C167 1.446 . S
C166 C196 1.391 . S
C167 C166 1.446 . S
C167 C168 1.339 . S
C167 H202 0.949 . S
C168 C167 1.339 . S
C168 C169 1.439 . S
C168 H203 0.950 . S
C169 N165 1.383 . S
C169 C168 1.439 . S
C169 C198 1.392 . S
N170 Co164 2.008 . S
N170 C171 1.376 . S
N170 C174 1.374 . S
C171 N170 1.376 . S
C171 C172 1.443 . S
C171 C198 1.389 . S
C172 C171 1.443 . S
C172 C173 1.340 . S
C172 H204 0.951 . S
C173 C172 1.340 . S
C173 C174 1.439 . S
C173 H205 0.950 . S
C174 N170 1.374 . S
C174 C173 1.439 . S
C174 C199 1.395 . S
N175 Co164 1.995 . S
N175 C176 1.376 . S
N175 C179 1.383 . S
C176 N175 1.376 . S
C176 C177 1.446 . S
C176 C199 1.391 . S
C177 C176 1.446 . S
C177 C178 1.339 . S
C177 H206 0.949 . S
C178 C177 1.339 . S
C178 C179 1.439 . S
C178 H207 0.950 . S
C179 N175 1.383 . S
C179 C178 1.439 . S
C179 C197 1.392 . S
N180 Co164 2.282 . S
N180 C183 1.332 . S
N180 C185 1.332 . S
C181 C182 1.386 . S
C181 C184 1.388 . S
C182 C181 1.386 . S
C182 C183 1.382 . S
C182 H208 0.950 . S
C183 N180 1.332 . S
C183 C182 1.382 . S
C183 H194 0.952 . S
C184 C181 1.388 . S
C184 C185 1.382 . S
C184 H209 0.950 . S
C185 N180 1.332 . S
C185 C184 1.382 . S
C185 H195 0.948 . S
N186 Co164 2.282 . S
N186 C190 1.332 . S
N186 C191 1.332 . S
C187 C188 1.388 . S
C187 C191 1.382 . S
C187 H210 0.950 . S
C188 C187 1.388 . S
C188 C189 1.386 . S
C189 C188 1.386 . S
C189 C190 1.382 . S
C189 H211 0.950 . S
C190 N186 1.332 . S
C190 C189 1.382 . S
C190 H192 0.952 . S
C191 N186 1.332 . S
C191 C187 1.382 . S
C191 H193 0.948 . S
H192 C190 0.952 . S
H193 C191 0.948 . S
H194 C183 0.952 . S
H195 C185 0.948 . S
C196 C162 1.395 . S
C196 C166 1.391 . S
C197 C159 1.389 . S
C197 C179 1.392 . S
C198 C169 1.392 . S
C198 C171 1.389 . S
C199 C174 1.395 . S
C199 C176 1.391 . S
H200 C160 0.951 . S
H201 C161 0.950 . S
H202 C167 0.949 . S
H203 C168 0.950 . S
H204 C172 0.951 . S
H205 C173 0.950 . S
H206 C177 0.949 . S
H207 C178 0.950 . S
H208 C182 0.950 . S
H209 C184 0.950 . S
H210 C187 0.950 . S
H211 C189 0.950 . S
C212 C213 1.443 . S
C212 N216 1.376 . S
C212 C250 1.389 . S
C213 C212 1.443 . S
C213 C214 1.340 . S
C213 H253 0.951 . S
C214 C213 1.340 . S
C214 C215 1.439 . S
C214 H254 0.950 . S
C215 C214 1.439 . S
C215 N216 1.374 . S
C215 C249 1.395 . S
N216 C212 1.376 . S
N216 C215 1.374 . S
N216 Co217 2.008 . S
Co217 N216 2.008 . S
Co217 N218 1.995 . S
Co217 N223 2.008 . S
Co217 N228 1.995 . S
Co217 N233 2.282 . S
Co217 N239 2.282 . S
N218 Co217 1.995 . S
N218 C219 1.376 . S
N218 C222 1.383 . S
C219 N218 1.376 . S
C219 C220 1.446 . S
C219 C249 1.391 . S
C220 C219 1.446 . S
C220 C221 1.339 . S
C220 H255 0.949 . S
C221 C220 1.339 . S
C221 C222 1.439 . S
C221 H256 0.950 . S
C222 N218 1.383 . S
C222 C221 1.439 . S
C222 C251 1.392 . S
N223 Co217 2.008 . S
N223 C224 1.376 . S
N223 C227 1.374 . S
C224 N223 1.376 . S
C224 C225 1.443 . S
C224 C251 1.389 . S
C225 C224 1.443 . S
C225 C226 1.340 . S
C225 H257 0.951 . S
C226 C225 1.340 . S
C226 C227 1.439 . S
C226 H258 0.950 . S
C227 N223 1.374 . S
C227 C226 1.439 . S
C227 C252 1.395 . S
N228 Co217 1.995 . S
N228 C229 1.376 . S
N228 C232 1.383 . S
C229 N228 1.376 . S
C229 C230 1.446 . S
C229 C252 1.391 . S
C230 C229 1.446 . S
C230 C231 1.339 . S
C230 H259 0.949 . S
C231 C230 1.339 . S
C231 C232 1.439 . S
C231 H260 0.950 . S
C232 N228 1.383 . S
C232 C231 1.439 . S
C232 C250 1.392 . S
N233 Co217 2.282 . S
N233 C236 1.332 . S
N233 C238 1.332 . S
C234 C235 1.386 . S
C234 C237 1.388 . S
C235 C234 1.386 . S
C235 C236 1.382 . S
C235 H261 0.950 . S
C236 N233 1.332 . S
C236 C235 1.382 . S
C236 H247 0.952 . S
C237 C234 1.388 . S
C237 C238 1.382 . S
C237 H262 0.950 . S
C238 N233 1.332 . S
C238 C237 1.382 . S
C238 H248 0.948 . S
N239 Co217 2.282 . S
N239 C243 1.332 . S
N239 C244 1.332 . S
C240 C241 1.388 . S
C240 C244 1.382 . S
C240 H263 0.950 . S
C241 C240 1.388 . S
C241 C242 1.386 . S
C242 C241 1.386 . S
C242 C243 1.382 . S
C242 H264 0.950 . S
C243 N239 1.332 . S
C243 C242 1.382 . S
C243 H245 0.952 . S
C244 N239 1.332 . S
C244 C240 1.382 . S
C244 H246 0.948 . S
H245 C243 0.952 . S
H246 C244 0.948 . S
H247 C236 0.952 . S
H248 C238 0.948 . S
C249 C215 1.395 . S
C249 C219 1.391 . S
C250 C212 1.389 . S
C250 C232 1.392 . S
C251 C222 1.392 . S
C251 C224 1.389 . S
C252 C227 1.395 . S
C252 C229 1.391 . S
H253 C213 0.951 . S
H254 C214 0.950 . S
H255 C220 0.949 . S
H256 C221 0.950 . S
H257 C225 0.951 . S
H258 C226 0.950 . S
H259 C230 0.949 . S
H260 C231 0.950 . S
H261 C235 0.950 . S
H262 C237 0.950 . S
H263 C240 0.950 . S
H264 C242 0.950 . S
C265 C266 1.443 . S
C265 N269 1.376 . S
C265 C303 1.389 . S
C266 C265 1.443 . S
C266 C267 1.340 . S
C266 H306 0.951 . S
C267 C266 1.340 . S
C267 C268 1.439 . S
C267 H307 0.950 . S
C268 C267 1.439 . S
C268 N269 1.374 . S
C268 C302 1.395 . S
N269 C265 1.376 . S
N269 C268 1.374 . S
N269 Co270 2.008 . S
Co270 N269 2.008 . S
Co270 N271 1.995 . S
Co270 N276 2.008 . S
Co270 N281 1.995 . S
Co270 N286 2.282 . S
Co270 N292 2.282 . S
N271 Co270 1.995 . S
N271 C272 1.376 . S
N271 C275 1.383 . S
C272 N271 1.376 . S
C272 C273 1.446 . S
C272 C302 1.391 . S
C273 C272 1.446 . S
C273 C274 1.339 . S
C273 H308 0.949 . S
C274 C273 1.339 . S
C274 C275 1.439 . S
C274 H309 0.950 . S
C275 N271 1.383 . S
C275 C274 1.439 . S
C275 C304 1.392 . S
N276 Co270 2.008 . S
N276 C277 1.376 . S
N276 C280 1.374 . S
C277 N276 1.376 . S
C277 C278 1.443 . S
C277 C304 1.389 . S
C278 C277 1.443 . S
C278 C279 1.340 . S
C278 H310 0.951 . S
C279 C278 1.340 . S
C279 C280 1.439 . S
C279 H311 0.950 . S
C280 N276 1.374 . S
C280 C279 1.439 . S
C280 C305 1.395 . S
N281 Co270 1.995 . S
N281 C282 1.376 . S
N281 C285 1.383 . S
C282 N281 1.376 . S
C282 C283 1.446 . S
C282 C305 1.391 . S
C283 C282 1.446 . S
C283 C284 1.339 . S
C283 H312 0.949 . S
C284 C283 1.339 . S
C284 C285 1.439 . S
C284 H313 0.950 . S
C285 N281 1.383 . S
C285 C284 1.439 . S
C285 C303 1.392 . S
N286 Co270 2.282 . S
N286 C289 1.332 . S
N286 C291 1.332 . S
C287 C288 1.386 . S
C287 C290 1.388 . S
C288 C287 1.386 . S
C288 C289 1.382 . S
C288 H314 0.950 . S
C289 N286 1.332 . S
C289 C288 1.382 . S
C289 H300 0.952 . S
C290 C287 1.388 . S
C290 C291 1.382 . S
C290 H315 0.950 . S
C291 N286 1.332 . S
C291 C290 1.382 . S
C291 H301 0.948 . S
N292 Co270 2.282 . S
N292 C296 1.332 . S
N292 C297 1.332 . S
C293 C294 1.388 . S
C293 C297 1.382 . S
C293 H316 0.950 . S
C294 C293 1.388 . S
C294 C295 1.386 . S
C295 C294 1.386 . S
C295 C296 1.382 . S
C295 H317 0.950 . S
C296 N292 1.332 . S
C296 C295 1.382 . S
C296 H298 0.952 . S
C297 N292 1.332 . S
C297 C293 1.382 . S
C297 H299 0.948 . S
H298 C296 0.952 . S
H299 C297 0.948 . S
H300 C289 0.952 . S
H301 C291 0.948 . S
C302 C268 1.395 . S
C302 C272 1.391 . S
C303 C265 1.389 . S
C303 C285 1.392 . S
C304 C275 1.392 . S
C304 C277 1.389 . S
C305 C280 1.395 . S
C305 C282 1.391 . S
H306 C266 0.951 . S
H307 C267 0.950 . S
H308 C273 0.949 . S
H309 C274 0.950 . S
H310 C278 0.951 . S
H311 C279 0.950 . S
H312 C283 0.949 . S
H313 C284 0.950 . S
H314 C288 0.950 . S
H315 C290 0.950 . S
H316 C293 0.950 . S
H317 C295 0.950 . S
C318 C319 1.443 . S
C318 N322 1.376 . S
C318 C356 1.389 . S
C319 C318 1.443 . S
C319 C320 1.340 . S
C319 H359 0.951 . S
C320 C319 1.340 . S
C320 C321 1.439 . S
C320 H360 0.950 . S
C321 C320 1.439 . S
C321 N322 1.374 . S
C321 C355 1.395 . S
N322 C318 1.376 . S
N322 C321 1.374 . S
N322 Co323 2.008 . S
Co323 N322 2.008 . S
Co323 N324 1.995 . S
Co323 N329 2.008 . S
Co323 N334 1.995 . S
Co323 N339 2.282 . S
Co323 N345 2.282 . S
N324 Co323 1.995 . S
N324 C325 1.376 . S
N324 C328 1.383 . S
C325 N324 1.376 . S
C325 C326 1.446 . S
C325 C355 1.391 . S
C326 C325 1.446 . S
C326 C327 1.339 . S
C326 H361 0.949 . S
C327 C326 1.339 . S
C327 C328 1.439 . S
C327 H362 0.950 . S
C328 N324 1.383 . S
C328 C327 1.439 . S
C328 C357 1.392 . S
N329 Co323 2.008 . S
N329 C330 1.376 . S
N329 C333 1.374 . S
C330 N329 1.376 . S
C330 C331 1.443 . S
C330 C357 1.389 . S
C331 C330 1.443 . S
C331 C332 1.340 . S
C331 H363 0.951 . S
C332 C331 1.340 . S
C332 C333 1.439 . S
C332 H364 0.950 . S
C333 N329 1.374 . S
C333 C332 1.439 . S
C333 C358 1.395 . S
N334 Co323 1.995 . S
N334 C335 1.376 . S
N334 C338 1.383 . S
C335 N334 1.376 . S
C335 C336 1.446 . S
C335 C358 1.391 . S
C336 C335 1.446 . S
C336 C337 1.339 . S
C336 H365 0.949 . S
C337 C336 1.339 . S
C337 C338 1.439 . S
C337 H366 0.950 . S
C338 N334 1.383 . S
C338 C337 1.439 . S
C338 C356 1.392 . S
N339 Co323 2.282 . S
N339 C342 1.332 . S
N339 C344 1.332 . S
C340 C341 1.386 . S
C340 C343 1.388 . S
C341 C340 1.386 . S
C341 C342 1.382 . S
C341 H367 0.950 . S
C342 N339 1.332 . S
C342 C341 1.382 . S
C342 H353 0.952 . S
C343 C340 1.388 . S
C343 C344 1.382 . S
C343 H368 0.950 . S
C344 N339 1.332 . S
C344 C343 1.382 . S
C344 H354 0.948 . S
N345 Co323 2.282 . S
N345 C349 1.332 . S
N345 C350 1.332 . S
C346 C347 1.388 . S
C346 C350 1.382 . S
C346 H369 0.950 . S
C347 C346 1.388 . S
C347 C348 1.386 . S
C348 C347 1.386 . S
C348 C349 1.382 . S
C348 H370 0.950 . S
C349 N345 1.332 . S
C349 C348 1.382 . S
C349 H351 0.952 . S
C350 N345 1.332 . S
C350 C346 1.382 . S
C350 H352 0.948 . S
H351 C349 0.952 . S
H352 C350 0.948 . S
H353 C342 0.952 . S
H354 C344 0.948 . S
C355 C321 1.395 . S
C355 C325 1.391 . S
C356 C318 1.389 . S
C356 C338 1.392 . S
C357 C328 1.392 . S
C357 C330 1.389 . S
C358 C333 1.395 . S
C358 C335 1.391 . S
H359 C319 0.951 . S
H360 C320 0.950 . S
H361 C326 0.949 . S
H362 C327 0.950 . S
H363 C331 0.951 . S
H364 C332 0.950 . S
H365 C336 0.949 . S
H366 C337 0.950 . S
H367 C341 0.950 . S
H368 C343 0.950 . S
H369 C346 0.950 . S
H370 C348 0.950 . S
C371 C372 1.443 . S
C371 N375 1.376 . S
C371 C409 1.389 . S
C372 C371 1.443 . S
C372 C373 1.340 . S
C372 H412 0.951 . S
C373 C372 1.340 . S
C373 C374 1.439 . S
C373 H413 0.950 . S
C374 C373 1.439 . S
C374 N375 1.374 . S
C374 C408 1.395 . S
N375 C371 1.376 . S
N375 C374 1.374 . S
N375 Co376 2.008 . S
Co376 N375 2.008 . S
Co376 N377 1.995 . S
Co376 N382 2.008 . S
Co376 N387 1.995 . S
Co376 N392 2.282 . S
Co376 N398 2.282 . S
N377 Co376 1.995 . S
N377 C378 1.376 . S
N377 C381 1.383 . S
C378 N377 1.376 . S
C378 C379 1.446 . S
C378 C408 1.391 . S
C379 C378 1.446 . S
C379 C380 1.339 . S
C379 H414 0.949 . S
C380 C379 1.339 . S
C380 C381 1.439 . S
C380 H415 0.950 . S
C381 N377 1.383 . S
C381 C380 1.439 . S
C381 C410 1.392 . S
N382 Co376 2.008 . S
N382 C383 1.376 . S
N382 C386 1.374 . S
C383 N382 1.376 . S
C383 C384 1.443 . S
C383 C410 1.389 . S
C384 C383 1.443 . S
C384 C385 1.340 . S
C384 H416 0.951 . S
C385 C384 1.340 . S
C385 C386 1.439 . S
C385 H417 0.950 . S
C386 N382 1.374 . S
C386 C385 1.439 . S
C386 C411 1.395 . S
N387 Co376 1.995 . S
N387 C388 1.376 . S
N387 C391 1.383 . S
C388 N387 1.376 . S
C388 C389 1.446 . S
C388 C411 1.391 . S
C389 C388 1.446 . S
C389 C390 1.339 . S
C389 H418 0.949 . S
C390 C389 1.339 . S
C390 C391 1.439 . S
C390 H419 0.950 . S
C391 N387 1.383 . S
C391 C390 1.439 . S
C391 C409 1.392 . S
N392 Co376 2.282 . S
N392 C395 1.332 . S
N392 C397 1.332 . S
C393 C394 1.386 . S
C393 C396 1.388 . S
C394 C393 1.386 . S
C394 C395 1.382 . S
C394 H420 0.950 . S
C395 N392 1.332 . S
C395 C394 1.382 . S
C395 H406 0.952 . S
C396 C393 1.388 . S
C396 C397 1.382 . S
C396 H421 0.950 . S
C397 N392 1.332 . S
C397 C396 1.382 . S
C397 H407 0.948 . S
N398 Co376 2.282 . S
N398 C402 1.332 . S
N398 C403 1.332 . S
C399 C400 1.388 . S
C399 C403 1.382 . S
C399 H422 0.950 . S
C400 C399 1.388 . S
C400 C401 1.386 . S
C401 C400 1.386 . S
C401 C402 1.382 . S
C401 H423 0.950 . S
C402 N398 1.332 . S
C402 C401 1.382 . S
C402 H404 0.952 . S
C403 N398 1.332 . S
C403 C399 1.382 . S
C403 H405 0.948 . S
H404 C402 0.952 . S
H405 C403 0.948 . S
H406 C395 0.952 . S
H407 C397 0.948 . S
C408 C374 1.395 . S
C408 C378 1.391 . S
C409 C371 1.389 . S
C409 C391 1.392 . S
C410 C381 1.392 . S
C410 C383 1.389 . S
C411 C386 1.395 . S
C411 C388 1.391 . S
H412 C372 0.951 . S
H413 C373 0.950 . S
H414 C379 0.949 . S
H415 C380 0.950 . S
H416 C384 0.951 . S
H417 C385 0.950 . S
H418 C389 0.949 . S
H419 C390 0.950 . S
H420 C394 0.950 . S
H421 C396 0.950 . S
H422 C399 0.950 . S
H423 C401 0.950 . S
C424 C425 1.443 . S
C424 N428 1.376 . S
C424 C462 1.389 . S
C425 C424 1.443 . S
C425 C426 1.340 . S
C425 H465 0.951 . S
C426 C425 1.340 . S
C426 C427 1.439 . S
C426 H466 0.950 . S
C427 C426 1.439 . S
C427 N428 1.374 . S
C427 C461 1.395 . S
N428 C424 1.376 . S
N428 C427 1.374 . S
N428 Co429 2.008 . S
Co429 N428 2.008 . S
Co429 N430 1.995 . S
Co429 N435 2.008 . S
Co429 N440 1.995 . S
Co429 N445 2.282 . S
Co429 N451 2.282 . S
N430 Co429 1.995 . S
N430 C431 1.376 . S
N430 C434 1.383 . S
C431 N430 1.376 . S
C431 C432 1.446 . S
C431 C461 1.391 . S
C432 C431 1.446 . S
C432 C433 1.339 . S
C432 H467 0.949 . S
C433 C432 1.339 . S
C433 C434 1.439 . S
C433 H468 0.950 . S
C434 N430 1.383 . S
C434 C433 1.439 . S
C434 C463 1.392 . S
N435 Co429 2.008 . S
N435 C436 1.376 . S
N435 C439 1.374 . S
C436 N435 1.376 . S
C436 C437 1.443 . S
C436 C463 1.389 . S
C437 C436 1.443 . S
C437 C438 1.340 . S
C437 H469 0.951 . S
C438 C437 1.340 . S
C438 C439 1.439 . S
C438 H470 0.950 . S
C439 N435 1.374 . S
C439 C438 1.439 . S
C439 C464 1.395 . S
N440 Co429 1.995 . S
N440 C441 1.376 . S
N440 C444 1.383 . S
C441 N440 1.376 . S
C441 C442 1.446 . S
C441 C464 1.391 . S
C442 C441 1.446 . S
C442 C443 1.339 . S
C442 H471 0.949 . S
C443 C442 1.339 . S
C443 C444 1.439 . S
C443 H472 0.950 . S
C444 N440 1.383 . S
C444 C443 1.439 . S
C444 C462 1.392 . S
N445 Co429 2.282 . S
N445 C448 1.332 . S
N445 C450 1.332 . S
C446 C447 1.386 . S
C446 C449 1.388 . S
C447 C446 1.386 . S
C447 C448 1.382 . S
C447 H473 0.950 . S
C448 N445 1.332 . S
C448 C447 1.382 . S
C448 H459 0.952 . S
C449 C446 1.388 . S
C449 C450 1.382 . S
C449 H474 0.950 . S
C450 N445 1.332 . S
C450 C449 1.382 . S
C450 H460 0.948 . S
N451 Co429 2.282 . S
N451 C455 1.332 . S
N451 C456 1.332 . S
C452 C453 1.388 . S
C452 C456 1.382 . S
C452 H475 0.950 . S
C453 C452 1.388 . S
C453 C454 1.386 . S
C454 C453 1.386 . S
C454 C455 1.382 . S
C454 H476 0.950 . S
C455 N451 1.332 . S
C455 C454 1.382 . S
C455 H457 0.952 . S
C456 N451 1.332 . S
C456 C452 1.382 . S
C456 H458 0.948 . S
H457 C455 0.952 . S
H458 C456 0.948 . S
H459 C448 0.952 . S
H460 C450 0.948 . S
C461 C427 1.395 . S
C461 C431 1.391 . S
C462 C424 1.389 . S
C462 C444 1.392 . S
C463 C434 1.392 . S
C463 C436 1.389 . S
C464 C439 1.395 . S
C464 C441 1.391 . S
H465 C425 0.951 . S
H466 C426 0.950 . S
H467 C432 0.949 . S
H468 C433 0.950 . S
H469 C437 0.951 . S
H470 C438 0.950 . S
H471 C442 0.949 . S
H472 C443 0.950 . S
H473 C447 0.950 . S
H474 C449 0.950 . S
H475 C452 0.950 . S
H476 C454 0.950 . S
C477 C478 1.443 . S
C477 N481 1.376 . S
C477 C515 1.389 . S
C478 C477 1.443 . S
C478 C479 1.340 . S
C478 H518 0.951 . S
C479 C478 1.340 . S
C479 C480 1.439 . S
C479 H519 0.950 . S
C480 C479 1.439 . S
C480 N481 1.374 . S
C480 C514 1.395 . S
N481 C477 1.376 . S
N481 C480 1.374 . S
N481 Co482 2.008 . S
Co482 N481 2.008 . S
Co482 N483 1.995 . S
Co482 N488 2.008 . S
Co482 N493 1.995 . S
Co482 N498 2.282 . S
Co482 N504 2.282 . S
N483 Co482 1.995 . S
N483 C484 1.376 . S
N483 C487 1.383 . S
C484 N483 1.376 . S
C484 C485 1.446 . S
C484 C514 1.391 . S
C485 C484 1.446 . S
C485 C486 1.339 . S
C485 H520 0.949 . S
C486 C485 1.339 . S
C486 C487 1.439 . S
C486 H521 0.950 . S
C487 N483 1.383 . S
C487 C486 1.439 . S
C487 C516 1.392 . S
N488 Co482 2.008 . S
N488 C489 1.376 . S
N488 C492 1.374 . S
C489 N488 1.376 . S
C489 C490 1.443 . S
C489 C516 1.389 . S
C490 C489 1.443 . S
C490 C491 1.340 . S
C490 H522 0.951 . S
C491 C490 1.340 . S
C491 C492 1.439 . S
C491 H523 0.950 . S
C492 N488 1.374 . S
C492 C491 1.439 . S
C492 C517 1.395 . S
N493 Co482 1.995 . S
N493 C494 1.376 . S
N493 C497 1.383 . S
C494 N493 1.376 . S
C494 C495 1.446 . S
C494 C517 1.391 . S
C495 C494 1.446 . S
C495 C496 1.339 . S
C495 H524 0.949 . S
C496 C495 1.339 . S
C496 C497 1.439 . S
C496 H525 0.950 . S
C497 N493 1.383 . S
C497 C496 1.439 . S
C497 C515 1.392 . S
N498 Co482 2.282 . S
N498 C501 1.332 . S
N498 C503 1.332 . S
C499 C500 1.386 . S
C499 C502 1.388 . S
C500 C499 1.386 . S
C500 C501 1.382 . S
C500 H526 0.950 . S
C501 N498 1.332 . S
C501 C500 1.382 . S
C501 H512 0.952 . S
C502 C499 1.388 . S
C502 C503 1.382 . S
C502 H527 0.950 . S
C503 N498 1.332 . S
C503 C502 1.382 . S
C503 H513 0.948 . S
N504 Co482 2.282 . S
N504 C508 1.332 . S
N504 C509 1.332 . S
C505 C506 1.388 . S
C505 C509 1.382 . S
C505 H528 0.950 . S
C506 C505 1.388 . S
C506 C507 1.386 . S
C507 C506 1.386 . S
C507 C508 1.382 . S
C507 H529 0.950 . S
C508 N504 1.332 . S
C508 C507 1.382 . S
C508 H510 0.952 . S
C509 N504 1.332 . S
C509 C505 1.382 . S
C509 H511 0.948 . S
H510 C508 0.952 . S
H511 C509 0.948 . S
H512 C501 0.952 . S
H513 C503 0.948 . S
C514 C480 1.395 . S
C514 C484 1.391 . S
C515 C477 1.389 . S
C515 C497 1.392 . S
C516 C487 1.392 . S
C516 C489 1.389 . S
C517 C492 1.395 . S
C517 C494 1.391 . S
H518 C478 0.951 . S
H519 C479 0.950 . S
H520 C485 0.949 . S
H521 C486 0.950 . S
H522 C490 0.951 . S
H523 C491 0.950 . S
H524 C495 0.949 . S
H525 C496 0.950 . S
H526 C500 0.950 . S
H527 C502 0.950 . S
H528 C505 0.950 . S
H529 C507 0.950 . S
C530 C531 1.443 . S
C530 N534 1.376 . S
C530 C568 1.389 . S
C531 C530 1.443 . S
C531 C532 1.340 . S
C531 H571 0.951 . S
C532 C531 1.340 . S
C532 C533 1.439 . S
C532 H572 0.950 . S
C533 C532 1.439 . S
C533 N534 1.374 . S
C533 C567 1.395 . S
N534 C530 1.376 . S
N534 C533 1.374 . S
N534 Co535 2.008 . S
Co535 N534 2.008 . S
Co535 N536 1.995 . S
Co535 N541 2.008 . S
Co535 N546 1.995 . S
Co535 N551 2.282 . S
Co535 N557 2.282 . S
N536 Co535 1.995 . S
N536 C537 1.376 . S
N536 C540 1.383 . S
C537 N536 1.376 . S
C537 C538 1.446 . S
C537 C567 1.391 . S
C538 C537 1.446 . S
C538 C539 1.339 . S
C538 H573 0.949 . S
C539 C538 1.339 . S
C539 C540 1.439 . S
C539 H574 0.950 . S
C540 N536 1.383 . S
C540 C539 1.439 . S
C540 C569 1.392 . S
N541 Co535 2.008 . S
N541 C542 1.376 . S
N541 C545 1.374 . S
C542 N541 1.376 . S
C542 C543 1.443 . S
C542 C569 1.389 . S
C543 C542 1.443 . S
C543 C544 1.340 . S
C543 H575 0.951 . S
C544 C543 1.340 . S
C544 C545 1.439 . S
C544 H576 0.950 . S
C545 N541 1.374 . S
C545 C544 1.439 . S
C545 C570 1.395 . S
N546 Co535 1.995 . S
N546 C547 1.376 . S
N546 C550 1.383 . S
C547 N546 1.376 . S
C547 C548 1.446 . S
C547 C570 1.391 . S
C548 C547 1.446 . S
C548 C549 1.339 . S
C548 H577 0.949 . S
C549 C548 1.339 . S
C549 C550 1.439 . S
C549 H578 0.950 . S
C550 N546 1.383 . S
C550 C549 1.439 . S
C550 C568 1.392 . S
N551 Co535 2.282 . S
N551 C554 1.332 . S
N551 C556 1.332 . S
C552 C553 1.386 . S
C552 C555 1.388 . S
C553 C552 1.386 . S
C553 C554 1.382 . S
C553 H579 0.950 . S
C554 N551 1.332 . S
C554 C553 1.382 . S
C554 H565 0.952 . S
C555 C552 1.388 . S
C555 C556 1.382 . S
C555 H580 0.950 . S
C556 N551 1.332 . S
C556 C555 1.382 . S
C556 H566 0.948 . S
N557 Co535 2.282 . S
N557 C561 1.332 . S
N557 C562 1.332 . S
C558 C559 1.388 . S
C558 C562 1.382 . S
C558 H581 0.950 . S
C559 C558 1.388 . S
C559 C560 1.386 . S
C560 C559 1.386 . S
C560 C561 1.382 . S
C560 H582 0.950 . S
C561 N557 1.332 . S
C561 C560 1.382 . S
C561 H563 0.952 . S
C562 N557 1.332 . S
C562 C558 1.382 . S
C562 H564 0.948 . S
H563 C561 0.952 . S
H564 C562 0.948 . S
H565 C554 0.952 . S
H566 C556 0.948 . S
C567 C533 1.395 . S
C567 C537 1.391 . S
C568 C530 1.389 . S
C568 C550 1.392 . S
C569 C540 1.392 . S
C569 C542 1.389 . S
C570 C545 1.395 . S
C570 C547 1.391 . S
H571 C531 0.951 . S
H572 C532 0.950 . S
H573 C538 0.949 . S
H574 C539 0.950 . S
H575 C543 0.951 . S
H576 C544 0.950 . S
H577 C548 0.949 . S
H578 C549 0.950 . S
H579 C553 0.950 . S
H580 C555 0.950 . S
H581 C558 0.950 . S
H582 C560 0.950 . S
C583 C584 1.443 . S
C583 N587 1.376 . S
C583 C621 1.389 . S
C584 C583 1.443 . S
C584 C585 1.340 . S
C584 H624 0.951 . S
C585 C584 1.340 . S
C585 C586 1.439 . S
C585 H625 0.950 . S
C586 C585 1.439 . S
C586 N587 1.374 . S
C586 C620 1.395 . S
N587 C583 1.376 . S
N587 C586 1.374 . S
N587 Co588 2.008 . S
Co588 N587 2.008 . S
Co588 N589 1.995 . S
Co588 N594 2.008 . S
Co588 N599 1.995 . S
Co588 N604 2.282 . S
Co588 N610 2.282 . S
N589 Co588 1.995 . S
N589 C590 1.376 . S
N589 C593 1.383 . S
C590 N589 1.376 . S
C590 C591 1.446 . S
C590 C620 1.391 . S
C591 C590 1.446 . S
C591 C592 1.339 . S
C591 H626 0.949 . S
C592 C591 1.339 . S
C592 C593 1.439 . S
C592 H627 0.950 . S
C593 N589 1.383 . S
C593 C592 1.439 . S
C593 C622 1.392 . S
N594 Co588 2.008 . S
N594 C595 1.376 . S
N594 C598 1.374 . S
C595 N594 1.376 . S
C595 C596 1.443 . S
C595 C622 1.389 . S
C596 C595 1.443 . S
C596 C597 1.340 . S
C596 H628 0.951 . S
C597 C596 1.340 . S
C597 C598 1.439 . S
C597 H629 0.950 . S
C598 N594 1.374 . S
C598 C597 1.439 . S
C598 C623 1.395 . S
N599 Co588 1.995 . S
N599 C600 1.376 . S
N599 C603 1.383 . S
C600 N599 1.376 . S
C600 C601 1.446 . S
C600 C623 1.391 . S
C601 C600 1.446 . S
C601 C602 1.339 . S
C601 H630 0.949 . S
C602 C601 1.339 . S
C602 C603 1.439 . S
C602 H631 0.950 . S
C603 N599 1.383 . S
C603 C602 1.439 . S
C603 C621 1.392 . S
N604 Co588 2.282 . S
N604 C607 1.332 . S
N604 C609 1.332 . S
C605 C606 1.386 . S
C605 C608 1.388 . S
C606 C605 1.386 . S
C606 C607 1.382 . S
C606 H632 0.950 . S
C607 N604 1.332 . S
C607 C606 1.382 . S
C607 H618 0.952 . S
C608 C605 1.388 . S
C608 C609 1.382 . S
C608 H633 0.950 . S
C609 N604 1.332 . S
C609 C608 1.382 . S
C609 H619 0.948 . S
N610 Co588 2.282 . S
N610 C614 1.332 . S
N610 C615 1.332 . S
C611 C612 1.388 . S
C611 C615 1.382 . S
C611 H634 0.950 . S
C612 C611 1.388 . S
C612 C613 1.386 . S
C613 C612 1.386 . S
C613 C614 1.382 . S
C613 H635 0.950 . S
C614 N610 1.332 . S
C614 C613 1.382 . S
C614 H616 0.952 . S
C615 N610 1.332 . S
C615 C611 1.382 . S
C615 H617 0.948 . S
H616 C614 0.952 . S
H617 C615 0.948 . S
H618 C607 0.952 . S
H619 C609 0.948 . S
C620 C586 1.395 . S
C620 C590 1.391 . S
C621 C583 1.389 . S
C621 C603 1.392 . S
C622 C593 1.392 . S
C622 C595 1.389 . S
C623 C598 1.395 . S
C623 C600 1.391 . S
H624 C584 0.951 . S
H625 C585 0.950 . S
H626 C591 0.949 . S
H627 C592 0.950 . S
H628 C596 0.951 . S
H629 C597 0.950 . S
H630 C601 0.949 . S
H631 C602 0.950 . S
H632 C606 0.950 . S
H633 C608 0.950 . S
H634 C611 0.950 . S
H635 C613 0.950 . S
C636 C637 1.443 . S
C636 N640 1.376 . S
C636 C674 1.389 . S
C637 C636 1.443 . S
C637 C638 1.340 . S
C637 H677 0.951 . S
C638 C637 1.340 . S
C638 C639 1.439 . S
C638 H678 0.950 . S
C639 C638 1.439 . S
C639 N640 1.374 . S
C639 C673 1.395 . S
N640 C636 1.376 . S
N640 C639 1.374 . S
N640 Co641 2.008 . S
Co641 N640 2.008 . S
Co641 N642 1.995 . S
Co641 N647 2.008 . S
Co641 N652 1.995 . S
Co641 N657 2.282 . S
Co641 N663 2.282 . S
N642 Co641 1.995 . S
N642 C643 1.376 . S
N642 C646 1.383 . S
C643 N642 1.376 . S
C643 C644 1.446 . S
C643 C673 1.391 . S
C644 C643 1.446 . S
C644 C645 1.339 . S
C644 H679 0.949 . S
C645 C644 1.339 . S
C645 C646 1.439 . S
C645 H680 0.950 . S
C646 N642 1.383 . S
C646 C645 1.439 . S
C646 C675 1.392 . S
N647 Co641 2.008 . S
N647 C648 1.376 . S
N647 C651 1.374 . S
C648 N647 1.376 . S
C648 C649 1.443 . S
C648 C675 1.389 . S
C649 C648 1.443 . S
C649 C650 1.340 . S
C649 H681 0.951 . S
C650 C649 1.340 . S
C650 C651 1.439 . S
C650 H682 0.950 . S
C651 N647 1.374 . S
C651 C650 1.439 . S
C651 C676 1.395 . S
N652 Co641 1.995 . S
N652 C653 1.376 . S
N652 C656 1.383 . S
C653 N652 1.376 . S
C653 C654 1.446 . S
C653 C676 1.391 . S
C654 C653 1.446 . S
C654 C655 1.339 . S
C654 H683 0.949 . S
C655 C654 1.339 . S
C655 C656 1.439 . S
C655 H684 0.950 . S
C656 N652 1.383 . S
C656 C655 1.439 . S
C656 C674 1.392 . S
N657 Co641 2.282 . S
N657 C660 1.332 . S
N657 C662 1.332 . S
C658 C659 1.386 . S
C658 C661 1.388 . S
C659 C658 1.386 . S
C659 C660 1.382 . S
C659 H685 0.950 . S
C660 N657 1.332 . S
C660 C659 1.382 . S
C660 H671 0.952 . S
C661 C658 1.388 . S
C661 C662 1.382 . S
C661 H686 0.950 . S
C662 N657 1.332 . S
C662 C661 1.382 . S
C662 H672 0.948 . S
N663 Co641 2.282 . S
N663 C667 1.332 . S
N663 C668 1.332 . S
C664 C665 1.388 . S
C664 C668 1.382 . S
C664 H687 0.950 . S
C665 C664 1.388 . S
C665 C666 1.386 . S
C666 C665 1.386 . S
C666 C667 1.382 . S
C666 H688 0.950 . S
C667 N663 1.332 . S
C667 C666 1.382 . S
C667 H669 0.952 . S
C668 N663 1.332 . S
C668 C664 1.382 . S
C668 H670 0.948 . S
H669 C667 0.952 . S
H670 C668 0.948 . S
H671 C660 0.952 . S
H672 C662 0.948 . S
C673 C639 1.395 . S
C673 C643 1.391 . S
C674 C636 1.389 . S
C674 C656 1.392 . S
C675 C646 1.392 . S
C675 C648 1.389 . S
C676 C651 1.395 . S
C676 C653 1.391 . S
H677 C637 0.951 . S
H678 C638 0.950 . S
H679 C644 0.949 . S
H680 C645 0.950 . S
H681 C649 0.951 . S
H682 C650 0.950 . S
H683 C654 0.949 . S
H684 C655 0.950 . S
H685 C659 0.950 . S
H686 C661 0.950 . S
H687 C664 0.950 . S
H688 C666 0.950 . S
C689 C690 1.443 . S
C689 N693 1.376 . S
C689 C727 1.389 . S
C690 C689 1.443 . S
C690 C691 1.340 . S
C690 H730 0.951 . S
C691 C690 1.340 . S
C691 C692 1.439 . S
C691 H731 0.950 . S
C692 C691 1.439 . S
C692 N693 1.374 . S
C692 C726 1.395 . S
N693 C689 1.376 . S
N693 C692 1.374 . S
N693 Co694 2.008 . S
Co694 N693 2.008 . S
Co694 N695 1.995 . S
Co694 N700 2.008 . S
Co694 N705 1.995 . S
Co694 N710 2.282 . S
Co694 N716 2.282 . S
N695 Co694 1.995 . S
N695 C696 1.376 . S
N695 C699 1.383 . S
C696 N695 1.376 . S
C696 C697 1.446 . S
C696 C726 1.391 . S
C697 C696 1.446 . S
C697 C698 1.339 . S
C697 H732 0.949 . S
C698 C697 1.339 . S
C698 C699 1.439 . S
C698 H733 0.950 . S
C699 N695 1.383 . S
C699 C698 1.439 . S
C699 C728 1.392 . S
N700 Co694 2.008 . S
N700 C701 1.376 . S
N700 C704 1.374 . S
C701 N700 1.376 . S
C701 C702 1.443 . S
C701 C728 1.389 . S
C702 C701 1.443 . S
C702 C703 1.340 . S
C702 H734 0.951 . S
C703 C702 1.340 . S
C703 C704 1.439 . S
C703 H735 0.950 . S
C704 N700 1.374 . S
C704 C703 1.439 . S
C704 C729 1.395 . S
N705 Co694 1.995 . S
N705 C706 1.376 . S
N705 C709 1.383 . S
C706 N705 1.376 . S
C706 C707 1.446 . S
C706 C729 1.391 . S
C707 C706 1.446 . S
C707 C708 1.339 . S
C707 H736 0.949 . S
C708 C707 1.339 . S
C708 C709 1.439 . S
C708 H737 0.950 . S
C709 N705 1.383 . S
C709 C708 1.439 . S
C709 C727 1.392 . S
N710 Co694 2.282 . S
N710 C713 1.332 . S
N710 C715 1.332 . S
C711 C712 1.386 . S
C711 C714 1.388 . S
C712 C711 1.386 . S
C712 C713 1.382 . S
C712 H738 0.950 . S
C713 N710 1.332 . S
C713 C712 1.382 . S
C713 H724 0.952 . S
C714 C711 1.388 . S
C714 C715 1.382 . S
C714 H739 0.950 . S
C715 N710 1.332 . S
C715 C714 1.382 . S
C715 H725 0.948 . S
N716 Co694 2.282 . S
N716 C720 1.332 . S
N716 C721 1.332 . S
C717 C718 1.388 . S
C717 C721 1.382 . S
C717 H740 0.950 . S
C718 C717 1.388 . S
C718 C719 1.386 . S
C719 C718 1.386 . S
C719 C720 1.382 . S
C719 H741 0.950 . S
C720 N716 1.332 . S
C720 C719 1.382 . S
C720 H722 0.952 . S
C721 N716 1.332 . S
C721 C717 1.382 . S
C721 H723 0.948 . S
H722 C720 0.952 . S
H723 C721 0.948 . S
H724 C713 0.952 . S
H725 C715 0.948 . S
C726 C692 1.395 . S
C726 C696 1.391 . S
C727 C689 1.389 . S
C727 C709 1.392 . S
C728 C699 1.392 . S
C728 C701 1.389 . S
C729 C704 1.395 . S
C729 C706 1.391 . S
H730 C690 0.951 . S
H731 C691 0.950 . S
H732 C697 0.949 . S
H733 C698 0.950 . S
H734 C702 0.951 . S
H735 C703 0.950 . S
H736 C707 0.949 . S
H737 C708 0.950 . S
H738 C712 0.950 . S
H739 C714 0.950 . S
H740 C717 0.950 . S
H741 C719 0.950 . S
C742 C743 1.443 . S
C742 N746 1.376 . S
C742 C780 1.389 . S
C743 C742 1.443 . S
C743 C744 1.340 . S
C743 H783 0.951 . S
C744 C743 1.340 . S
C744 C745 1.439 . S
C744 H784 0.950 . S
C745 C744 1.439 . S
C745 N746 1.374 . S
C745 C779 1.395 . S
N746 C742 1.376 . S
N746 C745 1.374 . S
N746 Co747 2.008 . S
Co747 N746 2.008 . S
Co747 N748 1.995 . S
Co747 N753 2.008 . S
Co747 N758 1.995 . S
Co747 N763 2.282 . S
Co747 N769 2.282 . S
N748 Co747 1.995 . S
N748 C749 1.376 . S
N748 C752 1.383 . S
C749 N748 1.376 . S
C749 C750 1.446 . S
C749 C779 1.391 . S
C750 C749 1.446 . S
C750 C751 1.339 . S
C750 H785 0.949 . S
C751 C750 1.339 . S
C751 C752 1.439 . S
C751 H786 0.950 . S
C752 N748 1.383 . S
C752 C751 1.439 . S
C752 C781 1.392 . S
N753 Co747 2.008 . S
N753 C754 1.376 . S
N753 C757 1.374 . S
C754 N753 1.376 . S
C754 C755 1.443 . S
C754 C781 1.389 . S
C755 C754 1.443 . S
C755 C756 1.340 . S
C755 H787 0.951 . S
C756 C755 1.340 . S
C756 C757 1.439 . S
C756 H788 0.950 . S
C757 N753 1.374 . S
C757 C756 1.439 . S
C757 C782 1.395 . S
N758 Co747 1.995 . S
N758 C759 1.376 . S
N758 C762 1.383 . S
C759 N758 1.376 . S
C759 C760 1.446 . S
C759 C782 1.391 . S
C760 C759 1.446 . S
C760 C761 1.339 . S
C760 H789 0.949 . S
C761 C760 1.339 . S
C761 C762 1.439 . S
C761 H790 0.950 . S
C762 N758 1.383 . S
C762 C761 1.439 . S
C762 C780 1.392 . S
N763 Co747 2.282 . S
N763 C766 1.332 . S
N763 C768 1.332 . S
C764 C765 1.386 . S
C764 C767 1.388 . S
C765 C764 1.386 . S
C765 C766 1.382 . S
C765 H791 0.950 . S
C766 N763 1.332 . S
C766 C765 1.382 . S
C766 H777 0.952 . S
C767 C764 1.388 . S
C767 C768 1.382 . S
C767 H792 0.950 . S
C768 N763 1.332 . S
C768 C767 1.382 . S
C768 H778 0.948 . S
N769 Co747 2.282 . S
N769 C773 1.332 . S
N769 C774 1.332 . S
C770 C771 1.388 . S
C770 C774 1.382 . S
C770 H793 0.950 . S
C771 C770 1.388 . S
C771 C772 1.386 . S
C772 C771 1.386 . S
C772 C773 1.382 . S
C772 H794 0.950 . S
C773 N769 1.332 . S
C773 C772 1.382 . S
C773 H775 0.952 . S
C774 N769 1.332 . S
C774 C770 1.382 . S
C774 H776 0.948 . S
H775 C773 0.952 . S
H776 C774 0.948 . S
H777 C766 0.952 . S
H778 C768 0.948 . S
C779 C745 1.395 . S
C779 C749 1.391 . S
C780 C742 1.389 . S
C780 C762 1.392 . S
C781 C752 1.392 . S
C781 C754 1.389 . S
C782 C757 1.395 . S
C782 C759 1.391 . S
H783 C743 0.951 . S
H784 C744 0.950 . S
H785 C750 0.949 . S
H786 C751 0.950 . S
H787 C755 0.951 . S
H788 C756 0.950 . S
H789 C760 0.949 . S
H790 C761 0.950 . S
H791 C765 0.950 . S
H792 C767 0.950 . S
H793 C770 0.950 . S
H794 C772 0.950 . S
C795 C796 1.443 . S
C795 N799 1.376 . S
C795 C833 1.389 . S
C796 C795 1.443 . S
C796 C797 1.340 . S
C796 H836 0.951 . S
C797 C796 1.340 . S
C797 C798 1.439 . S
C797 H837 0.950 . S
C798 C797 1.439 . S
C798 N799 1.374 . S
C798 C832 1.395 . S
N799 C795 1.376 . S
N799 C798 1.374 . S
N799 Co800 2.008 . S
Co800 N799 2.008 . S
Co800 N801 1.995 . S
Co800 N806 2.008 . S
Co800 N811 1.995 . S
Co800 N816 2.282 . S
Co800 N822 2.282 . S
N801 Co800 1.995 . S
N801 C802 1.376 . S
N801 C805 1.383 . S
C802 N801 1.376 . S
C802 C803 1.446 . S
C802 C832 1.391 . S
C803 C802 1.446 . S
C803 C804 1.339 . S
C803 H838 0.949 . S
C804 C803 1.339 . S
C804 C805 1.439 . S
C804 H839 0.950 . S
C805 N801 1.383 . S
C805 C804 1.439 . S
C805 C834 1.392 . S
N806 Co800 2.008 . S
N806 C807 1.376 . S
N806 C810 1.374 . S
C807 N806 1.376 . S
C807 C808 1.443 . S
C807 C834 1.389 . S
C808 C807 1.443 . S
C808 C809 1.340 . S
C808 H840 0.951 . S
C809 C808 1.340 . S
C809 C810 1.439 . S
C809 H841 0.950 . S
C810 N806 1.374 . S
C810 C809 1.439 . S
C810 C835 1.395 . S
N811 Co800 1.995 . S
N811 C812 1.376 . S
N811 C815 1.383 . S
C812 N811 1.376 . S
C812 C813 1.446 . S
C812 C835 1.391 . S
C813 C812 1.446 . S
C813 C814 1.339 . S
C813 H842 0.949 . S
C814 C813 1.339 . S
C814 C815 1.439 . S
C814 H843 0.950 . S
C815 N811 1.383 . S
C815 C814 1.439 . S
C815 C833 1.392 . S
N816 Co800 2.282 . S
N816 C819 1.332 . S
N816 C821 1.332 . S
C817 C818 1.386 . S
C817 C820 1.388 . S
C818 C817 1.386 . S
C818 C819 1.382 . S
C818 H844 0.950 . S
C819 N816 1.332 . S
C819 C818 1.382 . S
C819 H830 0.952 . S
C820 C817 1.388 . S
C820 C821 1.382 . S
C820 H845 0.950 . S
C821 N816 1.332 . S
C821 C820 1.382 . S
C821 H831 0.948 . S
N822 Co800 2.282 . S
N822 C826 1.332 . S
N822 C827 1.332 . S
C823 C824 1.388 . S
C823 C827 1.382 . S
C823 H846 0.950 . S
C824 C823 1.388 . S
C824 C825 1.386 . S
C825 C824 1.386 . S
C825 C826 1.382 . S
C825 H847 0.950 . S
C826 N822 1.332 . S
C826 C825 1.382 . S
C826 H828 0.952 . S
C827 N822 1.332 . S
C827 C823 1.382 . S
C827 H829 0.948 . S
H828 C826 0.952 . S
H829 C827 0.948 . S
H830 C819 0.952 . S
H831 C821 0.948 . S
C832 C798 1.395 . S
C832 C802 1.391 . S
C833 C795 1.389 . S
C833 C815 1.392 . S
C834 C805 1.392 . S
C834 C807 1.389 . S
C835 C810 1.395 . S
C835 C812 1.391 . S
H836 C796 0.951 . S
H837 C797 0.950 . S
H838 C803 0.949 . S
H839 C804 0.950 . S
H840 C808 0.951 . S
H841 C809 0.950 . S
H842 C813 0.949 . S
H843 C814 0.950 . S
H844 C818 0.950 . S
H845 C820 0.950 . S
H846 C823 0.950 . S
H847 C825 0.950 . S
H848 C856 0.950 . S
H849 C861 0.950 . S
H850 C858 0.950 . S
H851 C860 0.950 . S
H852 C862 0.950 . S
H853 C864 0.950 . S
H854 C866 0.950 . S
H855 C867 0.950 . S
C856 H848 0.950 . S
C856 C857 1.386 . S
C856 C858 1.391 . S
C857 C856 1.386 . S
C857 C861 1.393 . S
C858 H850 0.950 . S
C858 C856 1.391 . S
C858 C859 1.400 . S
C859 C858 1.400 . S
C859 C860 1.398 . S
C859 C865 1.491 1_556 S
C860 H851 0.950 . S
C860 C859 1.398 . S
C860 C861 1.391 . S
C861 H849 0.950 . S
C861 C857 1.393 . S
C861 C860 1.391 . S
C862 H852 0.950 . S
C862 C863 1.386 . S
C862 C864 1.391 . S
C863 C862 1.386 . S
C863 C867 1.393 . S
C864 H853 0.950 . S
C864 C862 1.391 . S
C864 C865 1.400 . S
C865 C859 1.491 1_554 S
C865 C864 1.400 . S
C865 C866 1.398 . S
C866 H854 0.950 . S
C866 C865 1.398 . S
C866 C867 1.391 . S
C867 H855 0.950 . S
C867 C863 1.393 . S
C867 C866 1.391 . S
H868 C876 0.950 . S
H869 C881 0.950 . S
H870 C878 0.950 . S
H871 C880 0.950 . S
H872 C882 0.950 . S
H873 C884 0.950 . S
H874 C886 0.950 . S
H875 C887 0.950 . S
C876 H868 0.950 . S
C876 C877 1.386 . S
C876 C878 1.391 . S
C877 C876 1.386 . S
C877 C881 1.393 . S
C878 H870 0.950 . S
C878 C876 1.391 . S
C878 C879 1.400 . S
C879 C878 1.400 . S
C879 C880 1.398 . S
C879 C885 1.491 . S
C880 H871 0.950 . S
C880 C879 1.398 . S
C880 C881 1.391 . S
C881 H869 0.950 . S
C881 C877 1.393 . S
C881 C880 1.391 . S
C882 H872 0.950 . S
C882 C883 1.386 . S
C882 C884 1.391 . S
C883 C882 1.386 . S
C883 C887 1.393 . S
C884 H873 0.950 . S
C884 C882 1.391 . S
C884 C885 1.400 . S
C885 C879 1.491 . S
C885 C884 1.400 . S
C885 C886 1.398 . S
C886 H874 0.950 . S
C886 C885 1.398 . S
C886 C887 1.391 . S
C887 H875 0.950 . S
C887 C883 1.393 . S
C887 C886 1.391 . S
H888 C896 0.950 . S
H889 C901 0.950 . S
H890 C898 0.950 . S
H891 C900 0.950 . S
H892 C902 0.950 . S
H893 C904 0.950 . S
H894 C906 0.950 . S
H895 C907 0.950 . S
C896 H888 0.950 . S
C896 C897 1.386 . S
C896 C898 1.391 . S
C897 C896 1.386 . S
C897 C901 1.393 . S
C898 H890 0.950 . S
C898 C896 1.391 . S
C898 C899 1.400 . S
C899 C898 1.400 . S
C899 C900 1.398 . S
C899 C905 1.491 1_556 S
C900 H891 0.950 . S
C900 C899 1.398 . S
C900 C901 1.391 . S
C901 H889 0.950 . S
C901 C897 1.393 . S
C901 C900 1.391 . S
C902 H892 0.950 . S
C902 C903 1.386 . S
C902 C904 1.391 . S
C903 C902 1.386 . S
C903 C907 1.393 . S
C904 H893 0.950 . S
C904 C902 1.391 . S
C904 C905 1.400 . S
C905 C899 1.491 1_554 S
C905 C904 1.400 . S
C905 C906 1.398 . S
C906 H894 0.950 . S
C906 C905 1.398 . S
C906 C907 1.391 . S
C907 H895 0.950 . S
C907 C903 1.393 . S
C907 C906 1.391 . S
H908 C916 0.950 . S
H909 C921 0.950 . S
H910 C918 0.950 . S
H911 C920 0.950 . S
H912 C922 0.950 . S
H913 C924 0.950 . S
H914 C926 0.950 . S
H915 C927 0.950 . S
C916 H908 0.950 . S
C916 C917 1.386 . S
C916 C918 1.391 . S
C917 C916 1.386 . S
C917 C921 1.393 . S
C918 H910 0.950 . S
C918 C916 1.391 . S
C918 C919 1.400 . S
C919 C918 1.400 . S
C919 C920 1.398 . S
C919 C925 1.491 . S
C920 H911 0.950 . S
C920 C919 1.398 . S
C920 C921 1.391 . S
C921 H909 0.950 . S
C921 C917 1.393 . S
C921 C920 1.391 . S
C922 H912 0.950 . S
C922 C923 1.386 . S
C922 C924 1.391 . S
C923 C922 1.386 . S
C923 C927 1.393 . S
C924 H913 0.950 . S
C924 C922 1.391 . S
C924 C925 1.400 . S
C925 C919 1.491 . S
C925 C924 1.400 . S
C925 C926 1.398 . S
C926 H914 0.950 . S
C926 C925 1.398 . S
C926 C927 1.391 . S
C927 H915 0.950 . S
C927 C923 1.393 . S
C927 C926 1.391 . S
H928 C936 0.950 . S
H929 C941 0.950 . S
H930 C938 0.950 . S
H931 C940 0.950 . S
H932 C942 0.950 . S
H933 C944 0.950 . S
H934 C946 0.950 . S
H935 C947 0.950 . S
C936 H928 0.950 . S
C936 C937 1.386 . S
C936 C938 1.391 . S
C937 C936 1.386 . S
C937 C941 1.393 . S
C938 H930 0.950 . S
C938 C936 1.391 . S
C938 C939 1.400 . S
C939 C938 1.400 . S
C939 C940 1.398 . S
C939 C945 1.491 1_554 S
C940 H931 0.950 . S
C940 C939 1.398 . S
C940 C941 1.391 . S
C941 H929 0.950 . S
C941 C937 1.393 . S
C941 C940 1.391 . S
C942 H932 0.950 . S
C942 C943 1.386 . S
C942 C944 1.391 . S
C943 C942 1.386 . S
C943 C947 1.393 . S
C944 H933 0.950 . S
C944 C942 1.391 . S
C944 C945 1.400 . S
C945 C939 1.491 1_556 S
C945 C944 1.400 . S
C945 C946 1.398 . S
C946 H934 0.950 . S
C946 C945 1.398 . S
C946 C947 1.391 . S
C947 H935 0.950 . S
C947 C943 1.393 . S
C947 C946 1.391 . S
H948 C956 0.950 . S
H949 C961 0.950 . S
H950 C958 0.950 . S
H951 C960 0.950 . S
H952 C962 0.950 . S
H953 C964 0.950 . S
H954 C966 0.950 . S
H955 C967 0.950 . S
C956 H948 0.950 . S
C956 C957 1.386 . S
C956 C958 1.391 . S
C957 C956 1.386 . S
C957 C961 1.393 . S
C958 H950 0.950 . S
C958 C956 1.391 . S
C958 C959 1.400 . S
C959 C958 1.400 . S
C959 C960 1.398 . S
C959 C965 1.491 . S
C960 H951 0.950 . S
C960 C959 1.398 . S
C960 C961 1.391 . S
C961 H949 0.950 . S
C961 C957 1.393 . S
C961 C960 1.391 . S
C962 H952 0.950 . S
C962 C963 1.386 . S
C962 C964 1.391 . S
C963 C962 1.386 . S
C963 C967 1.393 . S
C964 H953 0.950 . S
C964 C962 1.391 . S
C964 C965 1.400 . S
C965 C959 1.491 . S
C965 C964 1.400 . S
C965 C966 1.398 . S
C966 H954 0.950 . S
C966 C965 1.398 . S
C966 C967 1.391 . S
C967 H955 0.950 . S
C967 C963 1.393 . S
C967 C966 1.391 . S
H968 C976 0.950 . S
H969 C981 0.950 . S
H970 C978 0.950 . S
H971 C980 0.950 . S
H972 C982 0.950 . S
H973 C984 0.950 . S
H974 C986 0.950 . S
H975 C987 0.950 . S
C976 H968 0.950 . S
C976 C977 1.386 . S
C976 C978 1.391 . S
C977 C976 1.386 . S
C977 C981 1.393 . S
C978 H970 0.950 . S
C978 C976 1.391 . S
C978 C979 1.400 . S
C979 C978 1.400 . S
C979 C980 1.398 . S
C979 C985 1.491 1_556 S
C980 H971 0.950 . S
C980 C979 1.398 . S
C980 C981 1.391 . S
C981 H969 0.950 . S
C981 C977 1.393 . S
C981 C980 1.391 . S
C982 H972 0.950 . S
C982 C983 1.386 . S
C982 C984 1.391 . S
C983 C982 1.386 . S
C983 C987 1.393 . S
C984 H973 0.950 . S
C984 C982 1.391 . S
C984 C985 1.400 . S
C985 C979 1.491 1_554 S
C985 C984 1.400 . S
C985 C986 1.398 . S
C986 H974 0.950 . S
C986 C985 1.398 . S
C986 C987 1.391 . S
C987 H975 0.950 . S
C987 C983 1.393 . S
C987 C986 1.391 . S
H988 C996 0.950 . S
H989 C1001 0.950 . S
H990 C998 0.950 . S
H991 C1000 0.950 . S
H992 C1002 0.950 . S
H993 C1004 0.950 . S
H994 C1006 0.950 . S
H995 C1007 0.950 . S
C996 H988 0.950 . S
C996 C997 1.386 . S
C996 C998 1.391 . S
C997 C996 1.386 . S
C997 C1001 1.393 . S
C998 H990 0.950 . S
C998 C996 1.391 . S
C998 C999 1.400 . S
C999 C998 1.400 . S
C999 C1000 1.398 . S
C999 C1005 1.491 . S
C1000 H991 0.950 . S
C1000 C999 1.398 . S
C1000 C1001 1.391 . S
C1001 H989 0.950 . S
C1001 C997 1.393 . S
C1001 C1000 1.391 . S
C1002 H992 0.950 . S
C1002 C1003 1.386 . S
C1002 C1004 1.391 . S
C1003 C1002 1.386 . S
C1003 C1007 1.393 . S
C1004 H993 0.950 . S
C1004 C1002 1.391 . S
C1004 C1005 1.400 . S
C1005 C999 1.491 . S
C1005 C1004 1.400 . S
C1005 C1006 1.398 . S
C1006 H994 0.950 . S
C1006 C1005 1.398 . S
C1006 C1007 1.391 . S
C1007 H995 0.950 . S
C1007 C1003 1.393 . S
C1007 C1006 1.391 . S
H1008 C1016 0.950 . S
H1009 C1021 0.950 . S
H1010 C1018 0.950 . S
H1011 C1020 0.950 . S
H1012 C1022 0.950 . S
H1013 C1024 0.950 . S
H1014 C1026 0.950 . S
H1015 C1027 0.950 . S
C1016 H1008 0.950 . S
C1016 C1017 1.386 . S
C1016 C1018 1.391 . S
C1017 C1016 1.386 . S
C1017 C1021 1.393 . S
C1018 H1010 0.950 . S
C1018 C1016 1.391 . S
C1018 C1019 1.400 . S
C1019 C1018 1.400 . S
C1019 C1020 1.398 . S
C1019 C1025 1.491 . S
C1020 H1011 0.950 . S
C1020 C1019 1.398 . S
C1020 C1021 1.391 . S
C1021 H1009 0.950 . S
C1021 C1017 1.393 . S
C1021 C1020 1.391 . S
C1022 H1012 0.950 . S
C1022 C1023 1.386 . S
C1022 C1024 1.391 . S
C1023 C1022 1.386 . S
C1023 C1027 1.393 . S
C1024 H1013 0.950 . S
C1024 C1022 1.391 . S
C1024 C1025 1.400 . S
C1025 C1019 1.491 . S
C1025 C1024 1.400 . S
C1025 C1026 1.398 . S
C1026 H1014 0.950 . S
C1026 C1025 1.398 . S
C1026 C1027 1.391 . S
C1027 H1015 0.950 . S
C1027 C1023 1.393 . S
C1027 C1026 1.391 . S
H1028 C1036 0.950 . S
H1029 C1041 0.950 . S
H1030 C1038 0.950 . S
H1031 C1040 0.950 . S
H1032 C1042 0.950 . S
H1033 C1044 0.950 . S
H1034 C1046 0.950 . S
H1035 C1047 0.950 . S
C1036 H1028 0.950 . S
C1036 C1037 1.386 . S
C1036 C1038 1.391 . S
C1037 C1036 1.386 . S
C1037 C1041 1.393 . S
C1038 H1030 0.950 . S
C1038 C1036 1.391 . S
C1038 C1039 1.400 . S
C1039 C1038 1.400 . S
C1039 C1040 1.398 . S
C1039 C1045 1.491 . S
C1040 H1031 0.950 . S
C1040 C1039 1.398 . S
C1040 C1041 1.391 . S
C1041 H1029 0.950 . S
C1041 C1037 1.393 . S
C1041 C1040 1.391 . S
C1042 H1032 0.950 . S
C1042 C1043 1.386 . S
C1042 C1044 1.391 . S
C1043 C1042 1.386 . S
C1043 C1047 1.393 . S
C1044 H1033 0.950 . S
C1044 C1042 1.391 . S
C1044 C1045 1.400 . S
C1045 C1039 1.491 . S
C1045 C1044 1.400 . S
C1045 C1046 1.398 . S
C1046 H1034 0.950 . S
C1046 C1045 1.398 . S
C1046 C1047 1.391 . S
C1047 H1035 0.950 . S
C1047 C1043 1.393 . S
C1047 C1046 1.391 . S
H1048 C1056 0.950 . S
H1049 C1061 0.950 . S
H1050 C1058 0.950 . S
H1051 C1060 0.950 . S
H1052 C1062 0.950 . S
H1053 C1064 0.950 . S
H1054 C1066 0.950 . S
H1055 C1067 0.950 . S
C1056 H1048 0.950 . S
C1056 C1057 1.386 . S
C1056 C1058 1.391 . S
C1057 C1056 1.386 . S
C1057 C1061 1.393 . S
C1058 H1050 0.950 . S
C1058 C1056 1.391 . S
C1058 C1059 1.400 . S
C1059 C1058 1.400 . S
C1059 C1060 1.398 . S
C1059 C1065 1.491 . S
C1060 H1051 0.950 . S
C1060 C1059 1.398 . S
C1060 C1061 1.391 . S
C1061 H1049 0.950 . S
C1061 C1057 1.393 . S
C1061 C1060 1.391 . S
C1062 H1052 0.950 . S
C1062 C1063 1.386 . S
C1062 C1064 1.391 . S
C1063 C1062 1.386 . S
C1063 C1067 1.393 . S
C1064 H1053 0.950 . S
C1064 C1062 1.391 . S
C1064 C1065 1.400 . S
C1065 C1059 1.491 . S
C1065 C1064 1.400 . S
C1065 C1066 1.398 . S
C1066 H1054 0.950 . S
C1066 C1065 1.398 . S
C1066 C1067 1.391 . S
C1067 H1055 0.950 . S
C1067 C1063 1.393 . S
C1067 C1066 1.391 . S
H1068 C1076 0.950 . S
H1069 C1081 0.950 . S
H1070 C1078 0.950 . S
H1071 C1080 0.950 . S
H1072 C1082 0.950 . S
H1073 C1084 0.950 . S
H1074 C1086 0.950 . S
H1075 C1087 0.950 . S
C1076 H1068 0.950 . S
C1076 C1077 1.386 . S
C1076 C1078 1.391 . S
C1077 C1076 1.386 . S
C1077 C1081 1.393 . S
C1078 H1070 0.950 . S
C1078 C1076 1.391 . S
C1078 C1079 1.400 . S
C1079 C1078 1.400 . S
C1079 C1080 1.398 . S
C1079 C1085 1.491 . S
C1080 H1071 0.950 . S
C1080 C1079 1.398 . S
C1080 C1081 1.391 . S
C1081 H1069 0.950 . S
C1081 C1077 1.393 . S
C1081 C1080 1.391 . S
C1082 H1072 0.950 . S
C1082 C1083 1.386 . S
C1082 C1084 1.391 . S
C1083 C1082 1.386 . S
C1083 C1087 1.393 . S
C1084 H1073 0.950 . S
C1084 C1082 1.391 . S
C1084 C1085 1.400 . S
C1085 C1079 1.491 . S
C1085 C1084 1.400 . S
C1085 C1086 1.398 . S
C1086 H1074 0.950 . S
C1086 C1085 1.398 . S
C1086 C1087 1.391 . S
C1087 H1075 0.950 . S
C1087 C1083 1.393 . S
C1087 C1086 1.391 . S
H1088 C1096 0.950 . S
H1089 C1101 0.950 . S
H1090 C1098 0.950 . S
H1091 C1100 0.950 . S
H1092 C1102 0.950 . S
H1093 C1104 0.950 . S
H1094 C1106 0.950 . S
H1095 C1107 0.950 . S
C1096 H1088 0.950 . S
C1096 C1097 1.386 . S
C1096 C1098 1.391 . S
C1097 C1096 1.386 . S
C1097 C1101 1.393 . S
C1098 H1090 0.950 . S
C1098 C1096 1.391 . S
C1098 C1099 1.400 . S
C1099 C1098 1.400 . S
C1099 C1100 1.398 . S
C1099 C1105 1.491 . S
C1100 H1091 0.950 . S
C1100 C1099 1.398 . S
C1100 C1101 1.391 . S
C1101 H1089 0.950 . S
C1101 C1097 1.393 . S
C1101 C1100 1.391 . S
C1102 H1092 0.950 . S
C1102 C1103 1.386 . S
C1102 C1104 1.391 . S
C1103 C1102 1.386 . S
C1103 C1107 1.393 . S
C1104 H1093 0.950 . S
C1104 C1102 1.391 . S
C1104 C1105 1.400 . S
C1105 C1099 1.491 . S
C1105 C1104 1.400 . S
C1105 C1106 1.398 . S
C1106 H1094 0.950 . S
C1106 C1105 1.398 . S
C1106 C1107 1.391 . S
C1107 H1095 0.950 . S
C1107 C1103 1.393 . S
C1107 C1106 1.391 . S
H1108 C1116 0.950 . S
H1109 C1121 0.950 . S
H1110 C1118 0.950 . S
H1111 C1120 0.950 . S
H1112 C1122 0.950 . S
H1113 C1124 0.950 . S
H1114 C1126 0.950 . S
H1115 C1127 0.950 . S
C1116 H1108 0.950 . S
C1116 C1117 1.386 . S
C1116 C1118 1.391 . S
C1117 C1116 1.386 . S
C1117 C1121 1.393 . S
C1118 H1110 0.950 . S
C1118 C1116 1.391 . S
C1118 C1119 1.400 . S
C1119 C1118 1.400 . S
C1119 C1120 1.398 . S
C1119 C1125 1.491 . S
C1120 H1111 0.950 . S
C1120 C1119 1.398 . S
C1120 C1121 1.391 . S
C1121 H1109 0.950 . S
C1121 C1117 1.393 . S
C1121 C1120 1.391 . S
C1122 H1112 0.950 . S
C1122 C1123 1.386 . S
C1122 C1124 1.391 . S
C1123 C1122 1.386 . S
C1123 C1127 1.393 . S
C1124 H1113 0.950 . S
C1124 C1122 1.391 . S
C1124 C1125 1.400 . S
C1125 C1119 1.491 . S
C1125 C1124 1.400 . S
C1125 C1126 1.398 . S
C1126 H1114 0.950 . S
C1126 C1125 1.398 . S
C1126 C1127 1.391 . S
C1127 H1115 0.950 . S
C1127 C1123 1.393 . S
C1127 C1126 1.391 . S
H1128 C1136 0.950 . S
H1129 C1141 0.950 . S
H1130 C1138 0.950 . S
H1131 C1140 0.950 . S
H1132 C1142 0.950 . S
H1133 C1144 0.950 . S
H1134 C1146 0.950 . S
H1135 C1147 0.950 . S
C1136 H1128 0.950 . S
C1136 C1137 1.386 . S
C1136 C1138 1.391 . S
C1137 C1136 1.386 . S
C1137 C1141 1.393 . S
C1138 H1130 0.950 . S
C1138 C1136 1.391 . S
C1138 C1139 1.400 . S
C1139 C1138 1.400 . S
C1139 C1140 1.398 . S
C1139 C1145 1.491 . S
C1140 H1131 0.950 . S
C1140 C1139 1.398 . S
C1140 C1141 1.391 . S
C1141 H1129 0.950 . S
C1141 C1137 1.393 . S
C1141 C1140 1.391 . S
C1142 H1132 0.950 . S
C1142 C1143 1.386 . S
C1142 C1144 1.391 . S
C1143 C1142 1.386 . S
C1143 C1147 1.393 . S
C1144 H1133 0.950 . S
C1144 C1142 1.391 . S
C1144 C1145 1.400 . S
C1145 C1139 1.491 . S
C1145 C1144 1.400 . S
C1145 C1146 1.398 . S
C1146 H1134 0.950 . S
C1146 C1145 1.398 . S
C1146 C1147 1.391 . S
C1147 H1135 0.950 . S
C1147 C1143 1.393 . S
C1147 C1146 1.391 . S
H1148 C1156 0.950 . S
H1149 C1161 0.950 . S
H1150 C1158 0.950 . S
H1151 C1160 0.950 . S
H1152 C1162 0.950 . S
H1153 C1164 0.950 . S
H1154 C1166 0.950 . S
H1155 C1167 0.950 . S
C1156 H1148 0.950 . S
C1156 C1157 1.386 . S
C1156 C1158 1.391 . S
C1157 C1156 1.386 . S
C1157 C1161 1.393 . S
C1158 H1150 0.950 . S
C1158 C1156 1.391 . S
C1158 C1159 1.400 . S
C1159 C1158 1.400 . S
C1159 C1160 1.398 . S
C1159 C1165 1.491 . S
C1160 H1151 0.950 . S
C1160 C1159 1.398 . S
C1160 C1161 1.391 . S
C1161 H1149 0.950 . S
C1161 C1157 1.393 . S
C1161 C1160 1.391 . S
C1162 H1152 0.950 . S
C1162 C1163 1.386 . S
C1162 C1164 1.391 . S
C1163 C1162 1.386 . S
C1163 C1167 1.393 . S
C1164 H1153 0.950 . S
C1164 C1162 1.391 . S
C1164 C1165 1.400 . S
C1165 C1159 1.491 . S
C1165 C1164 1.400 . S
C1165 C1166 1.398 . S
C1166 H1154 0.950 . S
C1166 C1165 1.398 . S
C1166 C1167 1.391 . S
C1167 H1155 0.950 . S
C1167 C1163 1.393 . S
C1167 C1166 1.391 . S
H1168 C1176 0.950 . S
H1169 C1181 0.950 . S
H1170 C1178 0.950 . S
H1171 C1180 0.950 . S
H1172 C1182 0.950 . S
H1173 C1184 0.950 . S
H1174 C1186 0.950 . S
H1175 C1187 0.950 . S
C1176 H1168 0.950 . S
C1176 C1177 1.386 . S
C1176 C1178 1.391 . S
C1177 C1176 1.386 . S
C1177 C1181 1.393 . S
C1178 H1170 0.950 . S
C1178 C1176 1.391 . S
C1178 C1179 1.400 . S
C1179 C1178 1.400 . S
C1179 C1180 1.398 . S
C1179 C1185 1.491 . S
C1180 H1171 0.950 . S
C1180 C1179 1.398 . S
C1180 C1181 1.391 . S
C1181 H1169 0.950 . S
C1181 C1177 1.393 . S
C1181 C1180 1.391 . S
C1182 H1172 0.950 . S
C1182 C1183 1.386 . S
C1182 C1184 1.391 . S
C1183 C1182 1.386 . S
C1183 C1187 1.393 . S
C1184 H1173 0.950 . S
C1184 C1182 1.391 . S
C1184 C1185 1.400 . S
C1185 C1179 1.491 . S
C1185 C1184 1.400 . S
C1185 C1186 1.398 . S
C1186 H1174 0.950 . S
C1186 C1185 1.398 . S
C1186 C1187 1.391 . S
C1187 H1175 0.950 . S
C1187 C1183 1.393 . S
C1187 C1186 1.391 . S
H1188 C1196 0.950 . S
H1189 C1201 0.950 . S
H1190 C1198 0.950 . S
H1191 C1200 0.950 . S
H1192 C1202 0.950 . S
H1193 C1204 0.950 . S
H1194 C1206 0.950 . S
H1195 C1207 0.950 . S
C1196 H1188 0.950 . S
C1196 C1197 1.386 . S
C1196 C1198 1.391 . S
C1197 C1196 1.386 . S
C1197 C1201 1.393 . S
C1198 H1190 0.950 . S
C1198 C1196 1.391 . S
C1198 C1199 1.400 . S
C1199 C1198 1.400 . S
C1199 C1200 1.398 . S
C1199 C1205 1.491 . S
C1200 H1191 0.950 . S
C1200 C1199 1.398 . S
C1200 C1201 1.391 . S
C1201 H1189 0.950 . S
C1201 C1197 1.393 . S
C1201 C1200 1.391 . S
C1202 H1192 0.950 . S
C1202 C1203 1.386 . S
C1202 C1204 1.391 . S
C1203 C1202 1.386 . S
C1203 C1207 1.393 . S
C1204 H1193 0.950 . S
C1204 C1202 1.391 . S
C1204 C1205 1.400 . S
C1205 C1199 1.491 . S
C1205 C1204 1.400 . S
C1205 C1206 1.398 . S
C1206 H1194 0.950 . S
C1206 C1205 1.398 . S
C1206 C1207 1.391 . S
C1207 H1195 0.950 . S
C1207 C1203 1.393 . S
C1207 C1206 1.391 . S
H1208 C1216 0.950 . S
H1209 C1221 0.950 . S
H1210 C1218 0.950 . S
H1211 C1220 0.950 . S
H1212 C1222 0.950 . S
H1213 C1224 0.950 . S
H1214 C1226 0.950 . S
H1215 C1227 0.950 . S
C1216 H1208 0.950 . S
C1216 C1217 1.386 . S
C1216 C1218 1.391 . S
C1217 C1216 1.386 . S
C1217 C1221 1.393 . S
C1218 H1210 0.950 . S
C1218 C1216 1.391 . S
C1218 C1219 1.400 . S
C1219 C1218 1.400 . S
C1219 C1220 1.398 . S
C1219 C1225 1.491 . S
C1220 H1211 0.950 . S
C1220 C1219 1.398 . S
C1220 C1221 1.391 . S
C1221 H1209 0.950 . S
C1221 C1217 1.393 . S
C1221 C1220 1.391 . S
C1222 H1212 0.950 . S
C1222 C1223 1.386 . S
C1222 C1224 1.391 . S
C1223 C1222 1.386 . S
C1223 C1227 1.393 . S
C1224 H1213 0.950 . S
C1224 C1222 1.391 . S
C1224 C1225 1.400 . S
C1225 C1219 1.491 . S
C1225 C1224 1.400 . S
C1225 C1226 1.398 . S
C1226 H1214 0.950 . S
C1226 C1225 1.398 . S
C1226 C1227 1.391 . S
C1227 H1215 0.950 . S
C1227 C1223 1.393 . S
C1227 C1226 1.391 . S
H1228 C1236 0.950 . S
H1229 C1241 0.950 . S
H1230 C1238 0.950 . S
H1231 C1240 0.950 . S
H1232 C1242 0.950 . S
H1233 C1244 0.950 . S
H1234 C1246 0.950 . S
H1235 C1247 0.950 . S
C1236 H1228 0.950 . S
C1236 C1237 1.386 . S
C1236 C1238 1.391 . S
C1237 C1236 1.386 . S
C1237 C1241 1.393 . S
C1238 H1230 0.950 . S
C1238 C1236 1.391 . S
C1238 C1239 1.400 . S
C1239 C1238 1.400 . S
C1239 C1240 1.398 . S
C1239 C1245 1.491 . S
C1240 H1231 0.950 . S
C1240 C1239 1.398 . S
C1240 C1241 1.391 . S
C1241 H1229 0.950 . S
C1241 C1237 1.393 . S
C1241 C1240 1.391 . S
C1242 H1232 0.950 . S
C1242 C1243 1.386 . S
C1242 C1244 1.391 . S
C1243 C1242 1.386 . S
C1243 C1247 1.393 . S
C1244 H1233 0.950 . S
C1244 C1242 1.391 . S
C1244 C1245 1.400 . S
C1245 C1239 1.491 . S
C1245 C1244 1.400 . S
C1245 C1246 1.398 . S
C1246 H1234 0.950 . S
C1246 C1245 1.398 . S
C1246 C1247 1.391 . S
C1247 H1235 0.950 . S
C1247 C1243 1.393 . S
C1247 C1246 1.391 . S
H1248 C1256 0.950 . S
H1249 C1261 0.950 . S
H1250 C1258 0.950 . S
H1251 C1260 0.950 . S
H1252 C1262 0.950 . S
H1253 C1264 0.950 . S
H1254 C1266 0.950 . S
H1255 C1267 0.950 . S
C1256 H1248 0.950 . S
C1256 C1257 1.386 . S
C1256 C1258 1.391 . S
C1257 C1256 1.386 . S
C1257 C1261 1.393 . S
C1258 H1250 0.950 . S
C1258 C1256 1.391 . S
C1258 C1259 1.400 . S
C1259 C1258 1.400 . S
C1259 C1260 1.398 . S
C1259 C1265 1.491 . S
C1260 H1251 0.950 . S
C1260 C1259 1.398 . S
C1260 C1261 1.391 . S
C1261 H1249 0.950 . S
C1261 C1257 1.393 . S
C1261 C1260 1.391 . S
C1262 H1252 0.950 . S
C1262 C1263 1.386 . S
C1262 C1264 1.391 . S
C1263 C1262 1.386 . S
C1263 C1267 1.393 . S
C1264 H1253 0.950 . S
C1264 C1262 1.391 . S
C1264 C1265 1.400 . S
C1265 C1259 1.491 . S
C1265 C1264 1.400 . S
C1265 C1266 1.398 . S
C1266 H1254 0.950 . S
C1266 C1265 1.398 . S
C1266 C1267 1.391 . S
C1267 H1255 0.950 . S
C1267 C1263 1.393 . S
C1267 C1266 1.391 . S
H1268 C1276 0.950 . S
H1269 C1281 0.950 . S
H1270 C1278 0.950 . S
H1271 C1280 0.950 . S
H1272 C1282 0.950 . S
H1273 C1284 0.950 . S
H1274 C1286 0.950 . S
H1275 C1287 0.950 . S
C1276 H1268 0.950 . S
C1276 C1277 1.386 . S
C1276 C1278 1.391 . S
C1277 C1276 1.386 . S
C1277 C1281 1.393 . S
C1278 H1270 0.950 . S
C1278 C1276 1.391 . S
C1278 C1279 1.400 . S
C1279 C1278 1.400 . S
C1279 C1280 1.398 . S
C1279 C1285 1.491 . S
C1280 H1271 0.950 . S
C1280 C1279 1.398 . S
C1280 C1281 1.391 . S
C1281 H1269 0.950 . S
C1281 C1277 1.393 . S
C1281 C1280 1.391 . S
C1282 H1272 0.950 . S
C1282 C1283 1.386 . S
C1282 C1284 1.391 . S
C1283 C1282 1.386 . S
C1283 C1287 1.393 . S
C1284 H1273 0.950 . S
C1284 C1282 1.391 . S
C1284 C1285 1.400 . S
C1285 C1279 1.491 . S
C1285 C1284 1.400 . S
C1285 C1286 1.398 . S
C1286 H1274 0.950 . S
C1286 C1285 1.398 . S
C1286 C1287 1.391 . S
C1287 H1275 0.950 . S
C1287 C1283 1.393 . S
C1287 C1286 1.391 . S
H1288 C1296 0.950 . S
H1289 C1301 0.950 . S
H1290 C1298 0.950 . S
H1291 C1300 0.950 . S
H1292 C1302 0.950 . S
H1293 C1304 0.950 . S
H1294 C1306 0.950 . S
H1295 C1307 0.950 . S
C1296 H1288 0.950 . S
C1296 C1297 1.386 . S
C1296 C1298 1.391 . S
C1297 C1296 1.386 . S
C1297 C1301 1.393 . S
C1298 H1290 0.950 . S
C1298 C1296 1.391 . S
C1298 C1299 1.400 . S
C1299 C1298 1.400 . S
C1299 C1300 1.398 . S
C1299 C1305 1.491 . S
C1300 H1291 0.950 . S
C1300 C1299 1.398 . S
C1300 C1301 1.391 . S
C1301 H1289 0.950 . S
C1301 C1297 1.393 . S
C1301 C1300 1.391 . S
C1302 H1292 0.950 . S
C1302 C1303 1.386 . S
C1302 C1304 1.391 . S
C1303 C1302 1.386 . S
C1303 C1307 1.393 . S
C1304 H1293 0.950 . S
C1304 C1302 1.391 . S
C1304 C1305 1.400 . S
C1305 C1299 1.491 . S
C1305 C1304 1.400 . S
C1305 C1306 1.398 . S
C1306 H1294 0.950 . S
C1306 C1305 1.398 . S
C1306 C1307 1.391 . S
C1307 H1295 0.950 . S
C1307 C1303 1.393 . S
C1307 C1306 1.391 . S
H1308 C1316 0.950 . S
H1309 C1321 0.950 . S
H1310 C1318 0.950 . S
H1311 C1320 0.950 . S
H1312 C1322 0.950 . S
H1313 C1324 0.950 . S
H1314 C1326 0.950 . S
H1315 C1327 0.950 . S
C1316 H1308 0.950 . S
C1316 C1317 1.386 . S
C1316 C1318 1.391 . S
C1317 C1316 1.386 . S
C1317 C1321 1.393 . S
C1318 H1310 0.950 . S
C1318 C1316 1.391 . S
C1318 C1319 1.400 . S
C1319 C1318 1.400 . S
C1319 C1320 1.398 . S
C1319 C1325 1.491 . S
C1320 H1311 0.950 . S
C1320 C1319 1.398 . S
C1320 C1321 1.391 . S
C1321 H1309 0.950 . S
C1321 C1317 1.393 . S
C1321 C1320 1.391 . S
C1322 H1312 0.950 . S
C1322 C1323 1.386 . S
C1322 C1324 1.391 . S
C1323 C1322 1.386 . S
C1323 C1327 1.393 . S
C1324 H1313 0.950 . S
C1324 C1322 1.391 . S
C1324 C1325 1.400 . S
C1325 C1319 1.491 . S
C1325 C1324 1.400 . S
C1325 C1326 1.398 . S
C1326 H1314 0.950 . S
C1326 C1325 1.398 . S
C1326 C1327 1.391 . S
C1327 H1315 0.950 . S
C1327 C1323 1.393 . S
C1327 C1326 1.391 . S
H1328 C1336 0.950 . S
H1329 C1341 0.950 . S
H1330 C1338 0.950 . S
H1331 C1340 0.950 . S
H1332 C1342 0.950 . S
H1333 C1344 0.950 . S
H1334 C1346 0.950 . S
H1335 C1347 0.950 . S
C1336 H1328 0.950 . S
C1336 C1337 1.386 1_565 S
C1336 C1338 1.391 . S
C1337 C1336 1.386 1_545 S
C1337 C1341 1.393 . S
C1338 H1330 0.950 . S
C1338 C1336 1.391 . S
C1338 C1339 1.400 . S
C1339 C1338 1.400 . S
C1339 C1340 1.398 . S
C1339 C1345 1.491 . S
C1340 H1331 0.950 . S
C1340 C1339 1.398 . S
C1340 C1341 1.391 1_565 S
C1341 H1329 0.950 . S
C1341 C1337 1.393 . S
C1341 C1340 1.391 1_545 S
C1342 H1332 0.950 . S
C1342 C1343 1.386 . S
C1342 C1344 1.391 . S
C1343 C1342 1.386 . S
C1343 C1347 1.393 . S
C1344 H1333 0.950 . S
C1344 C1342 1.391 . S
C1344 C1345 1.400 . S
C1345 C1339 1.491 . S
C1345 C1344 1.400 . S
C1345 C1346 1.398 . S
C1346 H1334 0.950 . S
C1346 C1345 1.398 . S
C1346 C1347 1.391 . S
C1347 H1335 0.950 . S
C1347 C1343 1.393 . S
C1347 C1346 1.391 . S
H1348 C1356 0.950 . S
H1349 C1361 0.950 . S
H1350 C1358 0.950 . S
H1351 C1360 0.950 . S
H1352 C1362 0.950 . S
H1353 C1364 0.950 . S
H1354 C1366 0.950 . S
H1355 C1367 0.950 . S
C1356 H1348 0.950 . S
C1356 C1357 1.386 . S
C1356 C1358 1.391 . S
C1357 C1356 1.386 . S
C1357 C1361 1.393 . S
C1358 H1350 0.950 . S
C1358 C1356 1.391 . S
C1358 C1359 1.400 . S
C1359 C1358 1.400 . S
C1359 C1360 1.398 . S
C1359 C1365 1.491 . S
C1360 H1351 0.950 . S
C1360 C1359 1.398 . S
C1360 C1361 1.391 . S
C1361 H1349 0.950 . S
C1361 C1357 1.393 . S
C1361 C1360 1.391 . S
C1362 H1352 0.950 . S
C1362 C1363 1.386 . S
C1362 C1364 1.391 . S
C1363 C1362 1.386 . S
C1363 C1367 1.393 . S
C1364 H1353 0.950 . S
C1364 C1362 1.391 . S
C1364 C1365 1.400 . S
C1365 C1359 1.491 . S
C1365 C1364 1.400 . S
C1365 C1366 1.398 . S
C1366 H1354 0.950 . S
C1366 C1365 1.398 . S
C1366 C1367 1.391 . S
C1367 H1355 0.950 . S
C1367 C1363 1.393 . S
C1367 C1366 1.391 . S
H1368 C1376 0.950 . S
H1369 C1381 0.950 . S
H1370 C1378 0.950 . S
H1371 C1380 0.950 . S
H1372 C1382 0.950 . S
H1373 C1384 0.950 . S
H1374 C1386 0.950 1_655 S
H1375 C1387 0.950 . S
C1376 H1368 0.950 . S
C1376 C1377 1.386 . S
C1376 C1378 1.391 . S
C1377 C1376 1.386 . S
C1377 C1381 1.393 . S
C1378 H1370 0.950 . S
C1378 C1376 1.391 . S
C1378 C1379 1.400 . S
C1379 C1378 1.400 . S
C1379 C1380 1.398 . S
C1379 C1385 1.491 . S
C1380 H1371 0.950 . S
C1380 C1379 1.398 . S
C1380 C1381 1.391 . S
C1381 H1369 0.950 . S
C1381 C1377 1.393 . S
C1381 C1380 1.391 . S
C1382 H1372 0.950 . S
C1382 C1383 1.386 1_455 S
C1382 C1384 1.391 . S
C1383 C1382 1.386 1_655 S
C1383 C1387 1.393 . S
C1384 H1373 0.950 . S
C1384 C1382 1.391 . S
C1384 C1385 1.400 . S
C1385 C1379 1.491 . S
C1385 C1384 1.400 . S
C1385 C1386 1.398 . S
C1386 H1374 0.950 1_455 S
C1386 C1385 1.398 . S
C1386 C1387 1.391 1_455 S
C1387 H1375 0.950 . S
C1387 C1383 1.393 . S
C1387 C1386 1.391 1_655 S
H1388 C1396 0.950 . S
H1389 C1401 0.950 . S
H1390 C1398 0.950 1_565 S
H1391 C1400 0.950 . S
H1392 C1402 0.950 . S
H1393 C1404 0.950 . S
H1394 C1406 0.950 1_455 S
H1395 C1407 0.950 . S
C1396 H1388 0.950 . S
C1396 C1397 1.386 . S
C1396 C1398 1.391 1_565 S
C1397 C1396 1.386 . S
C1397 C1401 1.393 1_565 S
C1398 H1390 0.950 1_545 S
C1398 C1396 1.391 1_545 S
C1398 C1399 1.400 . S
C1399 C1398 1.400 . S
C1399 C1400 1.398 . S
C1399 C1405 1.491 . S
C1400 H1391 0.950 . S
C1400 C1399 1.398 . S
C1400 C1401 1.391 . S
C1401 H1389 0.950 . S
C1401 C1397 1.393 1_545 S
C1401 C1400 1.391 . S
C1402 H1392 0.950 . S
C1402 C1403 1.386 1_655 S
C1402 C1404 1.391 . S
C1403 C1402 1.386 1_455 S
C1403 C1407 1.393 . S
C1404 H1393 0.950 . S
C1404 C1402 1.391 . S
C1404 C1405 1.400 . S
C1405 C1399 1.491 . S
C1405 C1404 1.400 . S
C1405 C1406 1.398 . S
C1406 H1394 0.950 1_655 S
C1406 C1405 1.398 . S
C1406 C1407 1.391 1_655 S
C1407 H1395 0.950 . S
C1407 C1403 1.393 . S
C1407 C1406 1.391 1_455 S
H1408 C1416 0.950 . S
H1409 C1421 0.950 . S
H1410 C1418 0.950 . S
H1411 C1420 0.950 . S
H1412 C1422 0.950 . S
H1413 C1424 0.950 . S
H1414 C1426 0.950 . S
H1415 C1427 0.950 . S
C1416 H1408 0.950 . S
C1416 C1417 1.386 . S
C1416 C1418 1.391 . S
C1417 C1416 1.386 . S
C1417 C1421 1.393 . S
C1418 H1410 0.950 . S
C1418 C1416 1.391 . S
C1418 C1419 1.400 . S
C1419 C1418 1.400 . S
C1419 C1420 1.398 . S
C1419 C1425 1.491 . S
C1420 H1411 0.950 . S
C1420 C1419 1.398 . S
C1420 C1421 1.391 . S
C1421 H1409 0.950 . S
C1421 C1417 1.393 . S
C1421 C1420 1.391 . S
C1422 H1412 0.950 . S
C1422 C1423 1.386 . S
C1422 C1424 1.391 . S
C1423 C1422 1.386 . S
C1423 C1427 1.393 . S
C1424 H1413 0.950 . S
C1424 C1422 1.391 . S
C1424 C1425 1.400 . S
C1425 C1419 1.491 . S
C1425 C1424 1.400 . S
C1425 C1426 1.398 . S
C1426 H1414 0.950 . S
C1426 C1425 1.398 . S
C1426 C1427 1.391 . S
C1427 H1415 0.950 . S
C1427 C1423 1.393 . S
C1427 C1426 1.391 . S
H1428 C1436 0.950 . S
H1429 C1441 0.950 . S
H1430 C1438 0.950 . S
H1431 C1440 0.950 . S
H1432 C1442 0.950 . S
H1433 C1444 0.950 . S
H1434 C1446 0.950 . S
H1435 C1447 0.950 . S
C1436 H1428 0.950 . S
C1436 C1437 1.386 . S
C1436 C1438 1.391 1_455 S
C1437 C1436 1.386 . S
C1437 C1441 1.393 1_455 S
C1438 H1430 0.950 . S
C1438 C1436 1.391 1_655 S
C1438 C1439 1.400 . S
C1439 C1438 1.400 . S
C1439 C1440 1.398 . S
C1439 C1445 1.491 . S
C1440 H1431 0.950 . S
C1440 C1439 1.398 . S
C1440 C1441 1.391 . S
C1441 H1429 0.950 . S
C1441 C1437 1.393 1_655 S
C1441 C1440 1.391 . S
C1442 H1432 0.950 . S
C1442 C1443 1.386 . S
C1442 C1444 1.391 . S
C1443 C1442 1.386 . S
C1443 C1447 1.393 . S
C1444 H1433 0.950 . S
C1444 C1442 1.391 . S
C1444 C1445 1.400 . S
C1445 C1439 1.491 . S
C1445 C1444 1.400 . S
C1445 C1446 1.398 . S
C1446 H1434 0.950 . S
C1446 C1445 1.398 . S
C1446 C1447 1.391 . S
C1447 H1435 0.950 . S
C1447 C1443 1.393 . S
C1447 C1446 1.391 . S
H1448 C1456 0.950 . S
H1449 C1461 0.950 . S
H1450 C1458 0.950 1_655 S
H1451 C1460 0.950 . S
H1452 C1462 0.950 . S
H1453 C1464 0.950 . S
H1454 C1466 0.946 1_545 S
H1455 C1467 0.950 . S
C1456 H1448 0.950 . S
C1456 C1457 1.386 . S
C1456 C1458 1.391 1_655 S
C1457 C1456 1.386 . S
C1457 C1461 1.393 1_655 S
C1458 H1450 0.950 1_455 S
C1458 C1456 1.391 1_455 S
C1458 C1459 1.400 . S
C1459 C1458 1.400 . S
C1459 C1460 1.398 . S
C1459 C1465 1.491 . S
C1460 H1451 0.950 . S
C1460 C1459 1.398 . S
C1460 C1461 1.391 . S
C1461 H1449 0.950 . S
C1461 C1457 1.393 1_455 S
C1461 C1460 1.391 . S
C1462 H1452 0.950 . S
C1462 C1463 1.386 1_565 S
C1462 C1464 1.391 . S
C1463 C1462 1.386 1_545 S
C1463 C1467 1.393 . S
C1464 H1453 0.950 . S
C1464 C1462 1.391 . S
C1464 C1465 1.400 . S
C1465 C1459 1.491 . S
C1465 C1464 1.400 . S
C1465 C1466 1.398 . S
C1466 H1454 0.946 1_565 S
C1466 C1465 1.398 . S
C1466 C1467 1.391 1_565 S
C1467 H1455 0.950 . S
C1467 C1463 1.393 . S
C1467 C1466 1.391 1_545 S
H1468 C1476 0.950 . S
H1469 C1481 0.950 . S
H1470 C1478 0.950 . S
H1471 C1480 0.950 . S
H1472 C1482 0.950 . S
H1473 C1484 0.950 . S
H1474 C1486 0.950 . S
H1475 C1487 0.950 . S
C1476 H1468 0.950 . S
C1476 C1477 1.386 . S
C1476 C1478 1.391 1_565 S
C1477 C1476 1.386 . S
C1477 C1481 1.393 1_565 S
C1478 H1470 0.950 . S
C1478 C1476 1.391 1_545 S
C1478 C1479 1.400 . S
C1479 C1478 1.400 . S
C1479 C1480 1.398 . S
C1479 C1485 1.491 . S
C1480 H1471 0.950 . S
C1480 C1479 1.398 . S
C1480 C1481 1.391 . S
C1481 H1469 0.950 . S
C1481 C1477 1.393 1_545 S
C1481 C1480 1.391 . S
C1482 H1472 0.950 . S
C1482 C1483 1.386 . S
C1482 C1484 1.391 . S
C1483 C1482 1.386 . S
C1483 C1487 1.393 . S
C1484 H1473 0.950 . S
C1484 C1482 1.391 . S
C1484 C1485 1.400 . S
C1485 C1479 1.491 . S
C1485 C1484 1.400 . S
C1485 C1486 1.398 . S
C1486 H1474 0.950 . S
C1486 C1485 1.398 . S
C1486 C1487 1.391 . S
C1487 H1475 0.950 . S
C1487 C1483 1.393 . S
C1487 C1486 1.391 . S
C857 C410 1.821 . S
C863 C39 1.817 . S
C877 C251 1.816 . S
C883 C92 1.823 . S
C897 C304 1.828 . S
C903 C145 1.815 . S
C917 C198 1.824 . S
C923 C357 1.826 . S
C937 C834 1.810 . S
C943 C463 1.824 . S
C957 C675 1.811 . S
C963 C516 1.817 . S
C977 C569 1.824 . S
C983 C728 1.810 . S
C997 C622 1.823 . S
C1003 C781 1.819 . S
C1017 C135 1.437 . S
C1023 C29 1.440 . S
C1037 C82 1.433 . S
C1043 C188 1.428 . S
C1057 C241 1.426 . S
C1063 C347 1.429 . S
C1077 C400 1.428 . S
C1083 C294 1.425 . S
C1097 C453 1.440 . S
C1103 C559 1.435 . S
C1117 C506 1.444 . S
C1123 C612 1.442 . S
C1137 C771 1.432 . S
C1143 C665 1.438 . S
C1157 C718 1.444 . S
C1163 C824 1.441 . S
C1177 C356 1.850 . S
C1183 C38 1.850 . S
C1197 C91 1.852 . S
C1203 C409 1.852 . S
C1217 C144 1.857 . S
C1223 C250 1.857 . S
C1237 C197 1.846 . S
C1243 C303 1.846 . S
C1257 C462 1.860 . S
C1263 C780 1.860 . S
C1277 C515 1.852 . S
C1283 C833 1.852 . S
C1297 C568 1.863 . S
C1303 C674 1.864 . S
C1317 C621 1.863 . S
C1323 C727 1.864 . S
C1337 C22 1.520 . S
C1343 C817 1.519 . S
C1357 C658 1.521 . S
C1363 C75 1.518 . S
C1377 C128 1.518 . S
C1383 C711 1.520 . S
C1397 C764 1.522 . S
C1403 C181 1.517 . S
C1417 C499 1.515 . S
C1423 C234 1.523 . S
C1437 C287 1.517 . S
C1443 C552 1.522 . S
C1457 C605 1.520 . S
C1463 C340 1.518 . S
C1477 C446 1.519 . S
C1483 C393 1.519 . S
