# Generated by pormake.
# Topology wld, (5)-cn, num edge types: 1
# Building blocks:
#     Node 0, Type 0, BuildingBlock: XOMCOT_clean_sbu_1, # of connection points: 5
#     Node 1, Type 0, BuildingBlock: XOMCOT_clean_sbu_1, # of connection points: 5
#     Node 2, Type 0, BuildingBlock: XOMCOT_clean_sbu_1, # of connection points: 5
#     Node 3, Type 0, BuildingBlock: XOMCOT_clean_sbu_1, # of connection points: 5
#     Node 4, Type 0, BuildingBlock: XOMCOT_clean_sbu_1, # of connection points: 5
#     Node 5, Type 0, BuildingBlock: XOMCOT_clean_sbu_1, # of connection points: 5
#     Node 6, Type 0, BuildingBlock: XOMCOT_clean_sbu_1, # of connection points: 5
#     Node 7, Type 0, BuildingBlock: XOMCOT_clean_sbu_1, # of connection points: 5
#     Node 8, Type 0, BuildingBlock: XOMCOT_clean_sbu_1, # of connection points: 5
#     Node 9, Type 0, BuildingBlock: XOMCOT_clean_sbu_1, # of connection points: 5
#     Node 10, Type 0, BuildingBlock: XOMCOT_clean_sbu_1, # of connection points: 5
#     Node 11, Type 0, BuildingBlock: XOMCOT_clean_sbu_1, # of connection points: 5
#     Edge 12, Type (0, 0), BuildingBlock: EZIPEK_clean_linker_0, # of connection points: 2
#     Edge 13, Type (0, 0), BuildingBlock: EZIPEK_clean_linker_0, # of connection points: 2
#     Edge 14, Type (0, 0), BuildingBlock: EZIPEK_clean_linker_0, # of connection points: 2
#     Edge 15, Type (0, 0), BuildingBlock: EZIPEK_clean_linker_0, # of connection points: 2
#     Edge 16, Type (0, 0), BuildingBlock: EZIPEK_clean_linker_0, # of connection points: 2
#     Edge 17, Type (0, 0), BuildingBlock: EZIPEK_clean_linker_0, # of connection points: 2
#     Edge 18, Type (0, 0), BuildingBlock: EZIPEK_clean_linker_0, # of connection points: 2
#     Edge 19, Type (0, 0), BuildingBlock: EZIPEK_clean_linker_0, # of connection points: 2
#     Edge 20, Type (0, 0), BuildingBlock: EZIPEK_clean_linker_0, # of connection points: 2
#     Edge 21, Type (0, 0), BuildingBlock: EZIPEK_clean_linker_0, # of connection points: 2
#     Edge 22, Type (0, 0), BuildingBlock: EZIPEK_clean_linker_0, # of connection points: 2
#     Edge 23, Type (0, 0), BuildingBlock: EZIPEK_clean_linker_0, # of connection points: 2
#     Edge 24, Type (0, 0), BuildingBlock: EZIPEK_clean_linker_0, # of connection points: 2
#     Edge 25, Type (0, 0), BuildingBlock: EZIPEK_clean_linker_0, # of connection points: 2
#     Edge 26, Type (0, 0), BuildingBlock: EZIPEK_clean_linker_0, # of connection points: 2
#     Edge 27, Type (0, 0), BuildingBlock: EZIPEK_clean_linker_0, # of connection points: 2
#     Edge 28, Type (0, 0), BuildingBlock: EZIPEK_clean_linker_0, # of connection points: 2
#     Edge 29, Type (0, 0), BuildingBlock: EZIPEK_clean_linker_0, # of connection points: 2
#     Edge 30, Type (0, 0), BuildingBlock: EZIPEK_clean_linker_0, # of connection points: 2
#     Edge 31, Type (0, 0), BuildingBlock: EZIPEK_clean_linker_0, # of connection points: 2
#     Edge 32, Type (0, 0), BuildingBlock: EZIPEK_clean_linker_0, # of connection points: 2
#     Edge 33, Type (0, 0), BuildingBlock: EZIPEK_clean_linker_0, # of connection points: 2
#     Edge 34, Type (0, 0), BuildingBlock: EZIPEK_clean_linker_0, # of connection points: 2
#     Edge 35, Type (0, 0), BuildingBlock: EZIPEK_clean_linker_0, # of connection points: 2
#     Edge 36, Type (0, 0), BuildingBlock: EZIPEK_clean_linker_0, # of connection points: 2
#     Edge 37, Type (0, 0), BuildingBlock: EZIPEK_clean_linker_0, # of connection points: 2
#     Edge 38, Type (0, 0), BuildingBlock: EZIPEK_clean_linker_0, # of connection points: 2
#     Edge 39, Type (0, 0), BuildingBlock: EZIPEK_clean_linker_0, # of connection points: 2
#     Edge 40, Type (0, 0), BuildingBlock: EZIPEK_clean_linker_0, # of connection points: 2
#     Edge 41, Type (0, 0), BuildingBlock: EZIPEK_clean_linker_0, # of connection points: 2
# Relax obj value: 0.225
# Max RMSD: 0.208
# Mean RMSD: 0.208
data_MOF--net-wld--node1-XOMCOT_clean_sbu_1--edge1-EZIPEK_clean_linker_0
_symmetry_space_group_name_H-M    P1
_symmetry_Int_Tables_number       1
_symmetry_cell_setting            triclinic
loop_
_symmetry_equiv_pos_as_xyz
'x, y, z'
_cell_length_a     28.252312
_cell_length_b     28.060872
_cell_length_c     40.927286
_cell_angle_alpha  89.971851
_cell_angle_beta   90.265441
_cell_angle_gamma 120.05502
loop_
_atom_site_label
_atom_site_type_symbol
_atom_site_fract_x
_atom_site_fract_y
_atom_site_fract_z
_atom_type_partial_charge
C0 C 0.40677 0.1755 0.11516 0.0
C1 C 0.44113 0.15455 0.12049 0.0
N2 N 0.4855 0.18266 0.10162 0.0
N3 N 0.42982 0.21695 0.0933 0.0
C4 C 0.47751 0.21979 0.08534 0.0
H5 H 0.36796 0.16217 0.12697 0.0
Co6 Co 0.40171 0.26156 0.0794 0.0
C7 C 0.49956 0.36046 0.05327 0.0
O8 O 0.47433 0.35938 0.026 0.0
N9 N 0.3728 0.30665 0.06601 0.0
C10 C 0.34998 0.37196 0.06843 0.0
C11 C 0.38355 0.35413 0.08087 0.0
C12 C 0.33353 0.29762 0.04369 0.0
N13 N 0.31905 0.33698 0.04465 0.0
O14 O 0.40164 0.23877 0.03545 0.0
H15 H 0.41303 0.37407 0.10032 0.0
H16 H 0.31467 0.26216 0.02772 0.0
O17 O 0.47531 0.32339 0.07487 0.0
C18 C 0.36302 0.18983 0.03009 0.0
O19 O 0.32613 0.16488 0.05292 0.0
N20 N 0.39903 0.28005 0.12269 0.0
C21 C 0.38336 0.31171 0.18383 0.0
C22 C 0.43638 0.33062 0.17225 0.0
C23 C 0.44346 0.31338 0.14163 0.0
C24 C 0.34734 0.25866 0.13447 0.0
C25 C 0.3385 0.27406 0.16513 0.0
H26 H 0.48452 0.32823 0.13292 0.0
H27 H 0.31284 0.23132 0.11928 0.0
H28 H 0.50636 0.24894 0.06846 0.0
H29 H 0.43458 0.12192 0.13721 0.0
H30 H 0.3485 0.40811 0.07611 0.0
H31 H 0.47175 0.35916 0.1865 0.0
H32 H 0.29709 0.25837 0.17371 0.0
C33 C 0.86236 0.24154 0.11158 0.0
C34 C 0.88354 0.29762 0.10828 0.0
N35 N 0.84902 0.30583 0.08945 0.0
N36 N 0.81394 0.21476 0.09566 0.0
C37 C 0.80742 0.25509 0.08223 0.0
H38 H 0.88096 0.22156 0.12467 0.0
Co39 Co 0.76622 0.13904 0.08923 0.0
C40 C 0.66463 0.14207 0.1111 0.0
O41 O 0.66141 0.11814 0.13917 0.0
N42 N 0.71709 0.06247 0.08111 0.0
C43 C 0.64873 0.97539 0.08481 0.0
C44 C 0.67247 0.02702 0.09849 0.0
C45 C 0.71932 0.03072 0.05682 0.0
N46 N 0.67816 0.97787 0.0586 0.0
O47 O 0.77375 0.153 0.04319 0.0
H48 H 0.65882 0.03678 0.12063 0.0
H49 H 0.75058 0.04568 0.03827 0.0
O50 O 0.7029 0.1517 0.09081 0.0
C51 C 0.8204 0.16057 0.03459 0.0
O52 O 0.84883 0.15054 0.05624 0.0
N53 N 0.76606 0.12651 0.13492 0.0
C54 C 0.7772 0.10678 0.20071 0.0
C55 C 0.77578 0.15417 0.19139 0.0
C56 C 0.76919 0.16277 0.15838 0.0
C57 C 0.7736 0.08374 0.14355 0.0
C58 C 0.77678 0.07178 0.17623 0.0
H59 H 0.76693 0.1988 0.15168 0.0
H60 H 0.77708 0.05824 0.12504 0.0
H61 H 0.7727 0.24749 0.06722 0.0
H62 H 0.9217 0.32985 0.11842 0.0
H63 H 0.61302 0.93862 0.0936 0.0
H64 H 0.77784 0.18321 0.20956 0.0
H65 H 0.77945 0.03561 0.18231 0.0
C66 C 0.78064 0.59043 0.12655 0.0
C67 C 0.72427 0.55899 0.12541 0.0
N68 N 0.71023 0.53008 0.09735 0.0
N69 N 0.80162 0.58063 0.09944 0.0
C70 C 0.75752 0.54384 0.08217 0.0
H71 H 0.80464 0.61841 0.14594 0.0
Co72 Co 0.87433 0.61016 0.08642 0.0
C73 C 0.87104 0.51425 0.05332 0.0
O74 O 0.89077 0.54202 0.02614 0.0
N75 N 0.94768 0.63928 0.07342 0.0
C76 C 0.03108 0.65003 0.06828 0.0
C77 C 0.98091 0.61994 0.08291 0.0
C78 C 0.9791 0.68182 0.0534 0.0
N79 N 0.02977 0.68898 0.0499 0.0
O80 O 0.85262 0.61825 0.04359 0.0
H81 H 0.96897 0.58497 0.09878 0.0
H82 H 0.96504 0.70606 0.04053 0.0
O83 O 0.86078 0.53626 0.07749 0.0
C84 C 0.85328 0.66396 0.04144 0.0
O85 O 0.87947 0.70171 0.06395 0.0
N86 N 0.89471 0.60689 0.12891 0.0
C87 C 0.9356 0.61956 0.19173 0.0
C88 C 0.907 0.56704 0.1776 0.0
C89 C 0.88595 0.56136 0.14599 0.0
C90 C 0.92097 0.65782 0.14277 0.0
C91 C 0.94164 0.66513 0.17432 0.0
H92 H 0.86362 0.52078 0.13525 0.0
H93 H 0.92647 0.69301 0.12885 0.0
H94 H 0.75991 0.5274 0.05875 0.0
H95 H 0.69588 0.55689 0.1438 0.0
H96 H 0.06525 0.64285 0.07008 0.0
H97 H 0.90166 0.53116 0.19073 0.0
H98 H 0.96342 0.70612 0.18478 0.0
C99 C 0.19113 0.39639 0.36586 0.0
C100 C 0.16084 0.42269 0.36427 0.0
N101 N 0.17557 0.45758 0.38978 0.0
N102 N 0.22456 0.41509 0.39223 0.0
C103 C 0.21333 0.45165 0.40642 0.0
H104 H 0.18967 0.36658 0.34856 0.0
Co105 Co 0.27789 0.40007 0.4076 0.0
C106 C 0.36249 0.5112 0.43203 0.0
O107 O 0.36951 0.48877 0.4584 0.0
N108 N 0.33266 0.38551 0.42295 0.0
C109 C 0.40877 0.38014 0.42147 0.0
C110 C 0.38379 0.40844 0.41057 0.0
C111 C 0.32851 0.34446 0.4423 0.0
N112 N 0.37412 0.34023 0.44168 0.0
O113 O 0.25028 0.39704 0.45065 0.0
H114 H 0.40088 0.44171 0.39309 0.0
H115 H 0.29194 0.31585 0.45517 0.0
O116 O 0.32861 0.47929 0.41053 0.0
C117 C 0.20905 0.34987 0.45703 0.0
O118 O 0.20382 0.3066 0.4414 0.0
N119 N 0.29933 0.39791 0.36517 0.0
C120 C 0.32963 0.37837 0.30467 0.0
C121 C 0.34677 0.4324 0.3147 0.0
C122 C 0.33029 0.44138 0.34509 0.0
C123 C 0.28106 0.34521 0.3553 0.0
C124 C 0.29557 0.33442 0.32497 0.0
H125 H 0.34355 0.48309 0.35259 0.0
H126 H 0.25595 0.3115 0.37152 0.0
H127 H 0.23387 0.4751 0.42812 0.0
H128 H 0.13201 0.41823 0.34535 0.0
H129 H 0.44856 0.38705 0.41428 0.0
H130 H 0.37286 0.46707 0.29928 0.0
H131 H 0.28148 0.29226 0.31772 0.0
C132 C 0.5914 0.78996 0.35596 0.0
C133 C 0.56057 0.73369 0.36004 0.0
N134 N 0.52687 0.72389 0.38532 0.0
N135 N 0.57722 0.81588 0.37863 0.0
C136 C 0.53817 0.77369 0.39637 0.0
H137 H 0.62341 0.80979 0.33811 0.0
Co138 Co 0.60499 0.89236 0.38957 0.0
C139 C 0.50642 0.87255 0.38828 0.0
O140 O 0.52557 0.8853 0.35842 0.0
N141 N 0.63115 0.96634 0.40143 0.0
C142 C 0.6489 0.05325 0.40095 0.0
C143 C 0.62003 1.00228 0.38611 0.0
C144 C 0.66674 0.99637 0.4255 0.0
N145 N 0.67872 0.04936 0.42543 0.0
O146 O 0.63582 0.87964 0.42929 0.0
H147 H 0.59344 0.99242 0.36508 0.0
H148 H 0.68456 0.98025 0.44256 0.0
O149 O 0.53777 0.87253 0.41086 0.0
C150 C 0.66224 0.85381 0.43134 0.0
O151 O 0.67889 0.84129 0.40447 0.0
N152 N 0.6678 0.91581 0.36441 0.0
C153 C 0.7379 0.99078 0.31863 0.0
C154 C 0.68677 0.94755 0.3092 0.0
C155 C 0.65172 0.91212 0.33266 0.0
C156 C 0.72017 0.95346 0.37353 0.0
C157 C 0.75594 0.99249 0.35087 0.0
H158 H 0.60927 0.88564 0.32606 0.0
H159 H 0.73213 0.95819 0.39896 0.0
H160 H 0.51811 0.77886 0.41737 0.0
H161 H 0.56255 0.70243 0.34561 0.0
H162 H 0.64868 0.09039 0.39408 0.0
H163 H 0.67128 0.94563 0.28465 0.0
H164 H 0.79496 0.02614 0.35902 0.0
C165 C 0.20566 0.81249 0.37228 0.0
C166 C 0.26137 0.83967 0.3669 0.0
N167 N 0.28399 0.82155 0.38909 0.0
N168 N 0.19395 0.77738 0.39751 0.0
C169 C 0.2426 0.78423 0.40727 0.0
H170 H 0.17578 0.81815 0.35886 0.0
Co171 Co 0.12867 0.7326 0.41856 0.0
C172 C 0.11846 0.6223 0.41645 0.0
O173 O 0.06639 0.60175 0.4093 0.0
N174 N 0.0637 0.68825 0.44157 0.0
C175 C 0.01082 0.63702 0.48241 0.0
C176 C 0.06072 0.65736 0.46771 0.0
C177 C 0.01552 0.68763 0.44174 0.0
N178 N 0.98261 0.65623 0.46599 0.0
O179 O 0.16453 0.76525 0.45861 0.0
H180 H 0.09435 0.65324 0.47705 0.0
H181 H 1.00643 0.71386 0.42695 0.0
O182 O 0.1484 0.67405 0.42205 0.0
C183 C 0.15656 0.80408 0.46765 0.0
O184 O 0.11725 0.80902 0.45372 0.0
N185 N 0.09422 0.70588 0.37784 0.0
C186 C 0.04267 0.67512 0.31733 0.0
C187 C 0.08199 0.66111 0.32605 0.0
C188 C 0.109 0.679 0.35589 0.0
C189 C 0.05936 0.72369 0.36842 0.0
C190 C 0.03222 0.70792 0.33842 0.0
H191 H 0.14245 0.67209 0.36082 0.0
H192 H 0.05431 0.75219 0.38361 0.0
H193 H 0.2477 0.76195 0.4273 0.0
H194 H 0.2834 0.86935 0.34788 0.0
H195 H 0.99843 0.61458 0.50519 0.0
H196 H 0.09298 0.6382 0.30944 0.0
H197 H 1.00414 0.7219 0.33149 0.0
C198 C 0.61478 0.84271 0.88517 0.0
C199 C 0.57595 0.85746 0.87843 0.0
N200 N 0.52595 0.81601 0.88736 0.0
N201 N 0.59005 0.79298 0.89943 0.0
C202 C 0.53737 0.77982 0.90225 0.0
H203 H 0.65812 0.8667 0.88021 0.0
Co204 Co 0.61818 0.74853 0.91347 0.0
C205 C 0.51827 0.64195 0.8914 0.0
O206 O 0.54542 0.63423 0.86804 0.0
N207 N 0.6461 0.70398 0.92946 0.0
C208 C 0.66028 0.63493 0.94268 0.0
C209 C 0.62611 0.64899 0.92697 0.0
C210 C 0.69288 0.72222 0.94694 0.0
N211 N 0.70216 0.68098 0.9551 0.0
O212 O 0.60767 0.76486 0.95782 0.0
H213 H 0.5889 0.6197 0.91511 0.0
H214 H 0.71949 0.76476 0.95376 0.0
O215 O 0.54265 0.68278 0.91125 0.0
C216 C 0.64613 0.81289 0.96592 0.0
O217 O 0.68701 0.83941 0.94561 0.0
N218 N 0.63352 0.73829 0.86916 0.0
C219 C 0.65623 0.72011 0.80549 0.0
C220 C 0.61344 0.73029 0.81148 0.0
C221 C 0.60269 0.73915 0.84342 0.0
C222 C 0.67882 0.73402 0.86293 0.0
C223 C 0.68972 0.7229 0.83153 0.0
H224 H 0.56792 0.74436 0.84727 0.0
H225 H 0.70704 0.73873 0.88214 0.0
H226 H 0.5091 0.74563 0.91689 0.0
H227 H 0.58486 0.89679 0.8685 0.0
H228 H 0.65418 0.59388 0.94563 0.0
H229 H 0.5874 0.72952 0.79173 0.0
H230 H 0.72425 0.71685 0.82756 0.0
C231 C 0.1633 0.77238 0.86625 0.0
C232 C 0.13769 0.71561 0.86474 0.0
N233 N 0.15752 0.69834 0.88914 0.0
N234 N 0.19951 0.79064 0.8913 0.0
C235 C 0.19339 0.74418 0.90537 0.0
H236 H 0.15686 0.79861 0.84965 0.0
Co237 Co 0.24806 0.86325 0.90542 0.0
C238 C 0.32403 0.8177 0.8907 0.0
O239 O 0.28765 0.77601 0.87352 0.0
N240 N 0.29704 0.93571 0.92017 0.0
C241 C 0.36788 0.02139 0.91884 0.0
C242 C 0.34506 0.96988 0.90536 0.0
C243 C 0.29243 0.96752 0.94339 0.0
N244 N 0.33495 0.01978 0.94286 0.0
O245 O 0.23124 0.83689 0.94927 0.0
H246 H 0.36119 0.95906 0.88469 0.0
H247 H 0.25806 0.95368 0.9597 0.0
O248 O 0.31235 0.85189 0.90394 0.0
C249 C 0.18837 0.83776 0.95812 0.0
O250 O 0.17232 0.86653 0.94071 0.0
N251 N 0.25853 0.88967 0.8622 0.0
C252 C 0.27884 0.9451 0.80309 0.0
C253 C 0.28654 0.89978 0.80625 0.0
C254 C 0.27622 0.8726 0.83614 0.0
C255 C 0.24542 0.93004 0.8583 0.0
C256 C 0.25697 0.9596 0.82927 0.0
H257 H 0.28279 0.83838 0.8379 0.0
H258 H 0.2285 0.94132 0.87853 0.0
H259 H 0.21767 0.74411 0.92589 0.0
H260 H 0.10909 0.68933 0.84618 0.0
H261 H 0.40533 0.05761 0.91132 0.0
H262 H 0.30207 0.8867 0.78608 0.0
H263 H 0.24963 0.99388 0.8274 0.0
C264 C 0.22694 0.38446 0.87204 0.0
C265 C 0.28265 0.41842 0.86912 0.0
N266 N 0.29719 0.46397 0.88695 0.0
N267 N 0.2067 0.40903 0.89128 0.0
C268 C 0.25072 0.45739 0.90019 0.0
H269 H 0.20254 0.34454 0.86068 0.0
Co270 Co 0.13342 0.37967 0.90283 0.0
C271 C 0.12127 0.48028 0.89414 0.0
O272 O 0.08133 0.45515 0.87305 0.0
N273 N 0.05784 0.34846 0.91499 0.0
C274 C 0.96745 0.31516 0.91253 0.0
C275 C 0.01612 0.34558 0.89681 0.0
C276 C 0.03229 0.31874 0.94206 0.0
N277 N 0.97751 0.2983 0.94095 0.0
O278 O 0.15475 0.38229 0.94798 0.0
H279 H 0.01901 0.36078 0.87232 0.0
H280 H 0.05281 0.31019 0.96162 0.0
O281 O 0.14464 0.45553 0.90686 0.0
C282 C 0.16897 0.34683 0.95493 0.0
O283 O 0.16076 0.30944 0.93284 0.0
N284 N 0.11502 0.37354 0.85815 0.0
C285 C 0.0784 0.35766 0.79383 0.0
C286 C 0.12197 0.40867 0.80389 0.0
C287 C 0.13988 0.4157 0.83629 0.0
C288 C 0.07856 0.32179 0.84741 0.0
C289 C 0.05781 0.31334 0.81567 0.0
H290 H 0.17282 0.45522 0.84399 0.0
H291 H 0.06268 0.28756 0.86427 0.0
H292 H 0.24887 0.48749 0.91581 0.0
H293 H 0.31034 0.41058 0.85498 0.0
H294 H 0.9273 0.30429 0.90329 0.0
H295 H 0.1404 0.44317 0.78719 0.0
H296 H 0.02535 0.27287 0.80841 0.0
C297 C 0.81116 0.6194 0.61495 0.0
C298 C 0.8356 0.5876 0.61873 0.0
N299 N 0.81281 0.54614 0.5969 0.0
N300 N 0.77303 0.59742 0.59104 0.0
C301 C 0.77539 0.55305 0.5805 0.0
H302 H 0.82138 0.65674 0.62817 0.0
Co303 Co 0.73039 0.62292 0.57116 0.0
C304 C 0.61877 0.52751 0.5808 0.0
O305 O 0.60375 0.56177 0.59208 0.0
N306 N 0.68816 0.64825 0.54867 0.0
C307 C 0.63536 0.65044 0.50862 0.0
C308 C 0.6491 0.61764 0.52635 0.0
C309 C 0.69878 0.70036 0.54286 0.0
N310 N 0.66676 0.70243 0.519 0.0
O311 O 0.75631 0.61324 0.53034 0.0
H312 H 0.63525 0.57504 0.52074 0.0
H313 H 0.7333 0.73697 0.55279 0.0
O314 O 0.6677 0.54636 0.57037 0.0
C315 C 0.79656 0.65772 0.51977 0.0
O316 O 0.80388 0.70482 0.53092 0.0
N317 N 0.71015 0.63641 0.61288 0.0
C318 C 0.69198 0.66309 0.67549 0.0
C319 C 0.68363 0.61056 0.66878 0.0
C320 C 0.69322 0.59816 0.63738 0.0
C321 C 0.72208 0.68879 0.61993 0.0
C322 C 0.71135 0.70251 0.65065 0.0
H323 H 0.68848 0.55817 0.63308 0.0
H324 H 0.74262 0.72115 0.60247 0.0
H325 H 0.7508 0.52669 0.56062 0.0
H326 H 0.868 0.59472 0.6357 0.0
H327 H 0.60803 0.63778 0.4878 0.0
H328 H 0.67036 0.57963 0.68777 0.0
H329 H 0.72029 0.74419 0.6554 0.0
C330 C 0.37734 0.22284 0.60693 0.0
C331 C 0.40401 0.27936 0.61033 0.0
N332 N 0.45315 0.30022 0.5959 0.0
N333 N 0.41036 0.20868 0.59114 0.0
C334 C 0.45608 0.25675 0.58469 0.0
H335 H 0.33633 0.19396 0.61496 0.0
Co336 Co 0.39491 0.13957 0.57668 0.0
C337 C 0.50006 0.14822 0.60206 0.0
O338 O 0.47579 0.11172 0.62526 0.0
N339 N 0.37834 0.06997 0.56057 0.0
C340 C 0.37089 0.98842 0.55025 0.0
C341 C 0.40181 0.03857 0.56524 0.0
C342 C 0.33336 0.03783 0.54236 0.0
N343 N 0.32776 0.98808 0.53624 0.0
O344 O 0.41104 0.16846 0.53322 0.0
H345 H 0.43818 0.04968 0.57911 0.0
H346 H 0.30405 0.04984 0.53485 0.0
O347 O 0.4725 0.16095 0.58261 0.0
C348 C 0.37467 0.17666 0.52032 0.0
O349 O 0.32844 0.15925 0.53606 0.0
N350 N 0.3756 0.1114 0.61971 0.0
C351 C 0.34324 0.06565 0.68162 0.0
C352 C 0.38741 0.11917 0.67805 0.0
C353 C 0.40301 0.14136 0.64679 0.0
C354 C 0.3292 0.06147 0.62338 0.0
C355 C 0.3134 0.03705 0.65395 0.0
H356 H 0.43829 0.18203 0.64432 0.0
H357 H 0.30386 0.03982 0.60267 0.0
H358 H 0.49068 0.2601 0.57147 0.0
H359 H 0.38817 0.30339 0.6216 0.0
H360 H 0.37864 0.95434 0.55021 0.0
H361 H 0.41055 0.14282 0.69914 0.0
H362 H 0.27796 0.99621 0.65601 0.0
C363 C 0.79616 0.19401 0.6078 0.0
C364 C 0.74121 0.17211 0.61459 0.0
N365 N 0.72325 0.20163 0.59815 0.0
N366 N 0.81217 0.23705 0.5873 0.0
C367 C 0.76678 0.24054 0.58201 0.0
H368 H 0.82238 0.17889 0.61658 0.0
Co369 Co 0.87865 0.28051 0.56629 0.0
C370 C 0.88073 0.38726 0.58261 0.0
O371 O 0.92366 0.40457 0.60175 0.0
N372 N 0.94493 0.32367 0.54332 0.0
C373 C 0.02338 0.39169 0.52366 0.0
C374 C 0.97547 0.37884 0.5392 0.0
C375 C 0.97506 0.30397 0.52923 0.0
N376 N 0.0232 0.3446 0.51778 0.0
O377 O 0.83983 0.25301 0.52531 0.0
H378 H 0.96548 0.40887 0.54765 0.0
H379 H 0.96345 0.26093 0.52907 0.0
O380 O 0.8624 0.34208 0.56661 0.0
C381 C 0.83347 0.20608 0.5173 0.0
O382 O 0.85919 0.1862 0.53433 0.0
N383 N 0.91652 0.30197 0.60761 0.0
C384 C 0.97077 0.32312 0.66792 0.0
C385 C 0.91862 0.3171 0.66573 0.0
C386 C 0.89242 0.30691 0.63539 0.0
C387 C 0.96626 0.30492 0.61009 0.0
C388 C 0.99492 0.3177 0.63955 0.0
H389 H 0.85233 0.30223 0.63453 0.0
H390 H 0.98399 0.29559 0.58973 0.0
H391 H 0.76483 0.26983 0.56566 0.0
H392 H 0.71624 0.137 0.62996 0.0
H393 H 0.05661 0.4325 0.51797 0.0
H394 H 0.89822 0.32006 0.68734 0.0
H395 H 0.03473 0.32083 0.64045 0.0
C396 C 0.62374 0.20166 0.12295 0.0
C397 C 0.6234 0.15894 0.10407 0.0
C398 C 0.53267 0.13392 0.08221 0.0
C399 C 0.53337 0.17678 0.10084 0.0
N400 N 0.58178 0.25715 0.1346 0.0
N401 N 0.5823 0.09007 0.06184 0.0
C402 C 0.57989 0.21266 0.11969 0.0
C403 C 0.57942 0.12705 0.08228 0.0
N404 N 0.66504 0.23029 0.14494 0.0
N405 N 0.48627 0.09874 0.06536 0.0
H406 H 0.61527 0.08312 0.06185 0.0
H407 H 0.55413 0.06906 0.04328 0.0
H408 H 0.45257 0.10447 0.06384 0.0
H409 H 0.47985 0.06252 0.05439 0.0
H410 H 0.66476 0.25731 0.16224 0.0
H411 H 0.699 0.22518 0.14696 0.0
H412 H 0.61665 0.28859 0.14575 0.0
H413 H 0.54913 0.26457 0.13401 0.0
C414 C 0.90285 0.39705 0.06231 0.0
C415 C 0.85481 0.35763 0.07865 0.0
C416 C 0.81375 0.41496 0.06816 0.0
C417 C 0.86472 0.45863 0.05768 0.0
N418 N 0.96073 0.49275 0.04742 0.0
N419 N 0.76851 0.33531 0.10289 0.0
C420 C 0.91021 0.45014 0.05529 0.0
C421 C 0.81118 0.36817 0.08302 0.0
N422 N 0.94027 0.38305 0.0522 0.0
N423 N 0.7672 0.41695 0.06266 0.0
H424 H 0.76759 0.30348 0.1165 0.0
H425 H 0.73768 0.34394 0.10873 0.0
H426 H 0.76743 0.44979 0.05061 0.0
H427 H 0.72852 0.38265 0.06588 0.0
H428 H 0.9737 0.4085 0.03766 0.0
H429 H 0.93438 0.34352 0.055 0.0
H430 H 0.99619 0.49017 0.04911 0.0
H431 H 0.968 0.53189 0.04143 0.0
C432 C 0.61879 0.50355 0.07448 0.0
C433 C 0.6565 0.4886 0.08677 0.0
C434 C 0.59664 0.39415 0.06881 0.0
C435 C 0.55539 0.40667 0.06067 0.0
N436 N 0.5247 0.4731 0.05942 0.0
N437 N 0.67473 0.41725 0.10332 0.0
C438 C 0.56573 0.46149 0.06432 0.0
C439 C 0.64335 0.43306 0.08629 0.0
N440 N 0.63413 0.55786 0.07199 0.0
N441 N 0.59299 0.3466 0.0578 0.0
H442 H 0.70916 0.44507 0.11669 0.0
H443 H 0.6632 0.37598 0.1066 0.0
H444 H 0.56316 0.32162 0.04082 0.0
H445 H 0.62352 0.33666 0.06171 0.0
H446 H 0.61072 0.57178 0.06005 0.0
H447 H 0.6723 0.58909 0.0799 0.0
H448 H 0.52844 0.511 0.06515 0.0
H449 H 0.48555 0.44373 0.05175 0.0
C450 C 0.19042 0.55074 0.38101 0.0
C451 C 0.16103 0.49895 0.39633 0.0
C452 C 0.11252 0.53271 0.43016 0.0
C453 C 0.14129 0.58464 0.4143 0.0
N454 N 0.21936 0.64739 0.3817 0.0
N455 N 0.09159 0.43739 0.43287 0.0
C456 C 0.18374 0.59508 0.39181 0.0
C457 C 0.12164 0.48923 0.42046 0.0
N458 N 0.22326 0.55679 0.3551 0.0
N459 N 0.07802 0.52606 0.45531 0.0
H460 H 0.09689 0.40517 0.4248 0.0
H461 H 0.05945 0.42508 0.44916 0.0
H462 H 0.07309 0.55821 0.46404 0.0
H463 H 0.05727 0.49055 0.46925 0.0
H464 H 0.24025 0.59105 0.33985 0.0
H465 H 0.23022 0.52552 0.34719 0.0
H466 H 0.25458 0.65784 0.36844 0.0
H467 H 0.21785 0.68165 0.38953 0.0
C468 C 0.49213 0.65308 0.42855 0.0
C469 C 0.48511 0.67141 0.39768 0.0
C470 C 0.39121 0.59413 0.39509 0.0
C471 C 0.40017 0.57149 0.42403 0.0
N472 N 0.44872 0.5957 0.47568 0.0
N473 N 0.42986 0.65824 0.35006 0.0
C474 C 0.44784 0.60543 0.44304 0.0
C475 C 0.4352 0.64148 0.38051 0.0
N476 N 0.5421 0.6805 0.44343 0.0
N477 N 0.33925 0.57451 0.38376 0.0
H478 H 0.46007 0.69442 0.33938 0.0
H479 H 0.39718 0.63432 0.33446 0.0
H480 H 0.30541 0.54694 0.39721 0.0
H481 H 0.32949 0.59196 0.36433 0.0
H482 H 0.55181 0.66676 0.46461 0.0
H483 H 0.57537 0.7146 0.43286 0.0
H484 H 0.48093 0.62098 0.49121 0.0
H485 H 0.41383 0.56803 0.48841 0.0
C486 C 0.40878 0.81055 0.37351 0.0
C487 C 0.44795 0.85406 0.39344 0.0
C488 C 0.37642 0.87163 0.41347 0.0
C489 C 0.33946 0.83292 0.39057 0.0
N490 N 0.3196 0.76762 0.34739 0.0
N491 N 0.47082 0.92902 0.4309 0.0
C492 C 0.35541 0.80281 0.37028 0.0
C493 C 0.43217 0.88503 0.41345 0.0
N494 N 0.4224 0.77577 0.35827 0.0
N495 N 0.3578 0.89533 0.43516 0.0
H496 H 0.51184 0.93965 0.43178 0.0
H497 H 0.46303 0.95695 0.44303 0.0
H498 H 0.31764 0.8875 0.43461 0.0
H499 H 0.38073 0.91969 0.45477 0.0
H500 H 0.39429 0.73984 0.34628 0.0
H501 H 0.46117 0.7802 0.36003 0.0
H502 H 0.33043 0.74914 0.32912 0.0
H503 H 0.27937 0.75934 0.34537 0.0
C504 C 0.42085 0.8596 0.87125 0.0
C505 C 0.37913 0.82396 0.89313 0.0
C506 C 0.42582 0.77165 0.90079 0.0
C507 C 0.47279 0.81314 0.88452 0.0
N508 N 0.49696 0.8728 0.83789 0.0
N509 N 0.34564 0.75006 0.93222 0.0
C510 C 0.46614 0.85165 0.86534 0.0
C511 C 0.38342 0.78191 0.90939 0.0
N512 N 0.41651 0.90005 0.85543 0.0
N513 N 0.41585 0.71889 0.90165 0.0
H514 H 0.31373 0.75646 0.93914 0.0
H515 H 0.34957 0.72117 0.94626 0.0
H516 H 0.43785 0.70652 0.88704 0.0
H517 H 0.38012 0.68623 0.9112 0.0
H518 H 0.44832 0.93148 0.8423 0.0
H519 H 0.38208 0.90418 0.85727 0.0
H520 H 0.49196 0.89806 0.82129 0.0
H521 H 0.5214 0.85767 0.82892 0.0
C522 C 0.18208 0.57892 0.88031 0.0
C523 C 0.1405 0.53924 0.90045 0.0
C524 C 0.1163 0.60827 0.91736 0.0
C525 C 0.15148 0.64445 0.89302 0.0
N526 N 0.21292 0.6615 0.84819 0.0
N527 N 0.06732 0.51482 0.93854 0.0
C528 C 0.18328 0.62915 0.87372 0.0
C529 C 0.10771 0.55377 0.91942 0.0
N530 N 0.22073 0.5687 0.86774 0.0
N531 N 0.09108 0.62622 0.93825 0.0
H532 H 0.06225 0.47562 0.94176 0.0
H533 H 0.03785 0.52056 0.95018 0.0
H534 H 0.09548 0.66523 0.93618 0.0
H535 H 0.06892 0.60418 0.95859 0.0
H536 H 0.25491 0.59791 0.85507 0.0
H537 H 0.22189 0.53325 0.87363 0.0
H538 H 0.23262 0.64976 0.83128 0.0
H539 H 0.21353 0.69778 0.842 0.0
C540 C 0.42322 0.59905 0.86824 0.0
C541 C 0.45881 0.60178 0.89384 0.0
C542 C 0.38748 0.51209 0.91399 0.0
C543 C 0.35114 0.51121 0.88987 0.0
N544 N 0.33093 0.5549 0.84598 0.0
N545 N 0.47157 0.56582 0.94459 0.0
C546 C 0.36797 0.55533 0.86772 0.0
C547 C 0.43982 0.55992 0.91793 0.0
N548 N 0.44279 0.63725 0.84379 0.0
N549 N 0.37286 0.46588 0.93199 0.0
H550 H 0.50986 0.6005 0.94839 0.0
H551 H 0.45782 0.5388 0.96432 0.0
H552 H 0.33407 0.43096 0.93043 0.0
H553 H 0.40057 0.46071 0.94628 0.0
H554 H 0.4214 0.63385 0.82233 0.0
H555 H 0.48172 0.67179 0.84441 0.0
H556 H 0.33832 0.58842 0.8315 0.0
H557 H 0.29119 0.52167 0.84383 0.0
C558 C 0.85928 0.50729 0.56468 0.0
C559 C 0.8258 0.50329 0.59142 0.0
C560 C 0.8163 0.41453 0.60685 0.0
C561 C 0.85276 0.42025 0.58136 0.0
N562 N 0.89727 0.46305 0.53111 0.0
N563 N 0.76523 0.4511 0.63478 0.0
C564 C 0.87054 0.46393 0.55863 0.0
C565 C 0.80209 0.4561 0.61158 0.0
N566 N 0.88131 0.55354 0.54579 0.0
N567 N 0.79557 0.36921 0.62646 0.0
H568 H 0.75499 0.48155 0.63878 0.0
H569 H 0.7429 0.41642 0.64917 0.0
H570 H 0.79987 0.33549 0.6208 0.0
H571 H 0.77353 0.36412 0.64771 0.0
H572 H 0.90866 0.56144 0.5269 0.0
H573 H 0.874 0.58586 0.5502 0.0
H574 H 0.90934 0.49184 0.5124 0.0
H575 H 0.90294 0.43 0.52556 0.0
C576 C 0.52494 0.44807 0.56774 0.0
C577 C 0.57816 0.46723 0.58125 0.0
C578 C 0.54601 0.37671 0.60652 0.0
C579 C 0.49424 0.35714 0.59183 0.0
N580 N 0.43486 0.3701 0.55538 0.0
N581 N 0.64164 0.44523 0.60809 0.0
C582 C 0.48368 0.39183 0.5717 0.0
C583 C 0.58952 0.43014 0.5988 0.0
N584 N 0.51421 0.4835 0.55061 0.0
N585 N 0.55262 0.34491 0.62937 0.0
H586 H 0.67496 0.48402 0.6043 0.0
H587 H 0.65281 0.41749 0.61704 0.0
H588 H 0.52092 0.3062 0.63623 0.0
H589 H 0.58745 0.3588 0.64389 0.0
H590 H 0.47523 0.47484 0.5437 0.0
H591 H 0.54448 0.52285 0.54381 0.0
H592 H 0.42466 0.39171 0.53886 0.0
H593 H 0.4053 0.3285 0.55641 0.0
C594 C 0.63564 0.17118 0.56912 0.0
C595 C 0.6687 0.19352 0.59742 0.0
C596 C 0.5952 0.20109 0.62407 0.0
C597 C 0.55969 0.17147 0.59774 0.0
N598 N 0.54514 0.12803 0.54485 0.0
N599 N 0.6826 0.23226 0.65126 0.0
C600 C 0.57984 0.15722 0.56988 0.0
C601 C 0.64921 0.20943 0.62472 0.0
N602 N 0.65795 0.16379 0.54141 0.0
N603 N 0.57744 0.22256 0.64785 0.0
H604 H 0.72339 0.24195 0.65147 0.0
H605 H 0.66969 0.23963 0.67349 0.0
H606 H 0.53858 0.21831 0.64735 0.0
H607 H 0.60222 0.24847 0.66642 0.0
H608 H 0.63832 0.1534 0.51879 0.0
H609 H 0.69811 0.17209 0.54039 0.0
H610 H 0.55504 0.10935 0.52623 0.0
H611 H 0.50517 0.12035 0.54316 0.0
C612 C 0.31202 0.12725 0.98325 0.0
C613 C 0.36168 0.15722 0.00112 0.0
C614 C 0.39237 0.09523 0.98095 0.0
C615 C 0.34343 0.06595 0.9626 0.0
N616 N 0.26422 0.06354 0.93881 0.0
N617 N 0.45635 0.18136 0.00681 0.0
C618 C 0.30532 0.08472 0.96152 0.0
C619 C 0.40439 0.14518 -0.0034 0.0
N620 N 0.27115 0.13928 0.98723 0.0
N621 N 0.42624 0.07395 0.98454 0.0
H622 H 0.46775 0.22034 0.0157 0.0
H623 H 0.48961 0.17598 0.00222 0.0
H624 H 0.4168 0.03563 0.97514 0.0
H625 H 0.46083 0.09152 -0.00055 0.0
H626 H 0.23164 0.11459 0.97818 0.0
H627 H 0.27644 0.17313 0.00073 0.0
H628 H 0.238 0.07899 0.9348 0.0
H629 H 0.25973 0.03401 0.92171 0.0
C630 C 0.88139 0.17027 0.98784 0.0
C631 C 0.8483 0.1883 0.00359 0.0
C632 C 0.90219 0.27912 0.97848 0.0
C633 C 0.93583 0.26161 0.96329 0.0
N634 N 0.94907 0.18718 0.94622 0.0
N635 N 0.8143 0.25196 0.00269 0.0
C636 C 0.92301 0.20608 0.96585 0.0
C637 C 0.85448 0.24027 -0.0046 0.0
N638 N 0.87291 0.11875 -0.00585 0.0
N639 N 0.91676 0.33342 0.97722 0.0
H640 H 0.77633 0.22243 0.01152 0.0
H641 H 0.81535 0.28814 -0.00434 0.0
H642 H 0.95251 0.36301 0.96588 0.0
H643 H 0.89631 0.34992 0.98978 0.0
H644 H 0.89975 0.1054 0.98717 0.0
H645 H 0.83913 0.08961 0.00724 0.0
H646 H 0.93816 0.14592 0.94448 0.0
H647 H 0.97901 0.21226 0.92952 0.0
C648 C 0.8223 0.66962 0.98449 0.0
C649 C 0.81556 0.67026 0.01883 0.0
C650 C 0.73576 0.68212 0.01066 0.0
C651 C 0.7434 0.68284 0.97656 0.0
N652 N 0.79537 0.68387 0.93029 0.0
N653 N 0.7691 0.68222 0.06511 0.0
C654 C 0.78723 0.67847 0.96329 0.0
C655 C 0.7735 0.67847 0.03205 0.0
N656 N 0.86214 0.66058 0.9723 0.0
N657 N 0.69027 0.68168 0.02239 0.0
H658 H 0.79033 0.67258 0.08219 0.0
H659 H 0.74543 0.6967 0.07591 0.0
H660 H 0.66203 0.68466 0.00732 0.0
H661 H 0.6783 0.67505 0.04674 0.0
H662 H 0.86635 0.65449 0.94767 0.0
H663 H 0.89031 0.65695 0.98711 0.0
H664 H 0.82862 0.6853 0.91856 0.0
H665 H 0.77003 0.69057 0.91461 0.0
C666 C 0.0631 0.32112 0.47153 0.0
C667 C 0.06755 0.34003 0.50393 0.0
C668 C 0.16433 0.36507 0.50615 0.0
C669 C 0.16017 0.34584 0.47356 0.0
N670 N 0.10433 0.30253 0.42535 0.0
N671 N 0.11714 0.37053 0.55441 0.0
C672 C 0.10898 0.32227 0.45647 0.0
C673 C 0.11683 0.35942 0.52188 0.0
N674 N 0.01593 0.30601 0.45439 0.0
N675 N 0.21371 0.38882 0.52197 0.0
H676 H 0.08244 0.36553 0.56642 0.0
H677 H 0.14983 0.38036 0.57011 0.0
H678 H 0.24839 0.39027 0.51214 0.0
H679 H 0.22129 0.40932 0.54423 0.0
H680 H 0.01119 0.29795 0.42943 0.0
H681 H 0.98188 0.30517 0.46474 0.0
H682 H 0.06713 0.2771 0.4138 0.0
H683 H 0.13745 0.31043 0.41074 0.0
C684 C 0.6245 0.79906 0.48399 0.0
C685 C 0.66938 0.83094 0.46274 0.0
C686 C 0.71662 0.78385 0.48322 0.0
C687 C 0.67124 0.75047 0.50328 0.0
N688 N 0.58949 0.73533 0.52976 0.0
N689 N 0.76531 0.86867 0.45254 0.0
C690 C 0.62777 0.76145 0.50604 0.0
C691 C 0.71804 0.82853 0.46619 0.0
N692 N 0.57756 0.80161 0.48191 0.0
N693 N 0.75626 0.77039 0.47837 0.0
H694 H 0.76718 0.9024 0.4405 0.0
H695 H 0.80315 0.8715 0.45627 0.0
H696 H 0.75485 0.73599 0.48897 0.0
H697 H 0.78753 0.79017 0.46139 0.0
H698 H 0.54093 0.77277 0.49265 0.0
H699 H 0.57427 0.83172 0.46905 0.0
H700 H 0.55921 0.7448 0.53533 0.0
H701 H 0.59121 0.70732 0.54584 0.0
C702 C 0.27989 0.94478 0.48504 0.0
C703 C 0.28362 0.94266 0.51933 0.0
C704 C 0.20607 0.84813 0.51987 0.0
C705 C 0.20001 0.85159 0.4857 0.0
N706 N 0.22601 0.90582 0.43607 0.0
N707 N 0.24667 0.89753 0.57044 0.0
C708 C 0.23523 0.90082 0.46839 0.0
C709 C 0.2457 0.89564 0.53708 0.0
N710 N 0.32066 0.9879 0.46834 0.0
N711 N 0.17413 0.7995 0.53573 0.0
H712 H 0.27479 0.93231 0.58349 0.0
H713 H 0.2172 0.86678 0.58511 0.0
H714 H 0.14335 0.76461 0.52399 0.0
H715 H 0.18022 0.79257 0.55997 0.0
H716 H 0.32404 0.98921 0.44299 0.0
H717 H 0.35402 0.02059 0.48 0.0
H718 H 0.2463 0.94275 0.42328 0.0
H719 H 0.19557 0.87404 0.42227 0.0
C720 C 0.69899 0.90644 0.0401 0.0
C721 C 0.6672 0.93239 0.03736 0.0
C722 C 0.6081 0.86344 -0.00319 0.0
C723 C 0.6449 0.84292 -0.00433 0.0
N724 N 0.72392 0.84218 0.01718 0.0
N725 N 0.59423 0.9393 0.01185 0.0
C726 C 0.68976 0.86347 0.01786 0.0
C727 C 0.62214 0.91153 0.01555 0.0
N728 N 0.73706 0.92229 0.06453 0.0
N729 N 0.55959 0.83669 0.98026 0.0
H730 H 0.60413 0.97494 0.02505 0.0
H731 H 0.56453 0.92993 -0.00605 0.0
H732 H 0.54698 0.79976 0.96803 0.0
H733 H 0.52919 0.84721 0.98183 0.0
H734 H 0.75854 0.90211 0.07004 0.0
H735 H 0.74449 0.95377 0.08093 0.0
H736 H 0.7611 0.85926 0.0296 0.0
H737 H 0.71519 0.8075 0.00333 0.0
C738 C 0.05971 0.71641 -0.0067 0.0
C739 C 0.07092 0.72482 0.02709 0.0
C740 C 0.16314 0.80161 0.0156 0.0
C741 C 0.14947 0.79715 0.98189 0.0
N742 N 0.08144 0.75383 0.93889 0.0
N743 N 0.12986 0.77796 0.07132 0.0
C744 C 0.09672 0.75572 0.97083 0.0
C745 C 0.12197 0.76789 0.03853 0.0
N746 N 0.01466 0.66924 0.98266 0.0
N747 N 0.21509 0.83842 0.02569 0.0
H748 H 0.09996 0.75438 0.08846 0.0
H749 H 0.16394 0.81192 0.08141 0.0
H750 H 0.24543 0.86538 0.00975 0.0
H751 H 0.2292 0.83986 0.04941 0.0
H752 H 1.00658 0.65783 0.95817 0.0
H753 H 0.98805 0.63843 -0.00148 0.0
H754 H 0.0413 0.72966 0.93069 0.0
H755 H 0.10784 0.77828 0.92062 0.0
C756 C 0.18565 0.29972 0.00209 0.0
C757 C 0.20032 0.34945 0.98513 0.0
C758 C 0.2927 0.39129 0.00858 0.0
C759 C 0.27847 0.34129 0.02502 0.0
N760 N 0.20702 0.25496 0.04584 0.0
N761 N 0.26093 0.44789 0.98251 0.0
C762 C 0.22354 0.29743 0.02425 0.0
C763 C 0.25149 0.39719 0.99193 0.0
N764 N 0.13532 0.25454 -0.00314 0.0
N765 N 0.3462 0.43223 0.00759 0.0
H766 H 0.23084 0.45428 0.97229 0.0
H767 H 0.29608 0.48456 0.98867 0.0
H768 H 0.37815 0.42686 0.01586 0.0
H769 H 0.35983 0.46982 -0.00398 0.0
H770 H 0.12458 0.21518 0.00489 0.0
H771 H 0.10474 0.25638 0.98346 0.0
H772 H 0.16646 0.22402 0.04856 0.0
H773 H 0.23305 0.25373 0.06353 0.0
C774 C 0.94249 0.69177 0.50514 0.0
C775 C 0.93587 0.65775 0.47815 0.0
C776 C 0.83791 0.62653 0.47609 0.0
C777 C 0.84383 0.65652 0.50523 0.0
N778 N 0.89998 0.70481 0.55237 0.0
N779 N 0.87819 0.58826 0.43957 0.0
C780 C 0.89568 0.68591 0.52107 0.0
C781 C 0.88372 0.62377 0.46403 0.0
N782 N 0.99375 0.73033 0.5153 0.0
N783 N 0.78928 0.60233 0.4595 0.0
H784 H 0.91158 0.58657 0.43012 0.0
H785 H 0.84058 0.55828 0.43025 0.0
H786 H 0.75516 0.60396 0.46762 0.0
H787 H 0.78389 0.58426 0.43656 0.0
H788 H 1.00089 0.76022 0.53279 0.0
H789 H 0.02918 0.73598 0.50398 0.0
H790 H 0.93603 0.7211 0.566 0.0
H791 H 0.86657 0.69837 0.5663 0.0
C792 C 0.34228 0.19927 0.46879 0.0
C793 C 0.38549 0.213 0.49137 0.0
C794 C 0.42667 0.31027 0.4767 0.0
C795 C 0.3812 0.29714 0.45606 0.0
N796 N 0.30818 0.22867 0.42302 0.0
N797 N 0.48026 0.27655 0.50421 0.0
C798 C 0.34275 0.24129 0.44912 0.0
C799 C 0.43171 0.26689 0.49116 0.0
N800 N 0.30052 0.14603 0.46658 0.0
N801 N 0.4635 0.36397 0.4838 0.0
H802 H 0.48672 0.24495 0.51199 0.0
H803 H 0.51617 0.31451 0.503 0.0
H804 H 0.45908 0.3967 0.47567 0.0
H805 H 0.49565 0.37597 0.50032 0.0
H806 H 0.26433 0.13416 0.45379 0.0
H807 H 0.30193 0.11381 0.47846 0.0
H808 H 0.28185 0.18862 0.41505 0.0
H809 H 0.31009 0.2587 0.40716 0.0
C810 C 0.74412 0.12021 0.50428 0.0
C811 C 0.79094 0.16929 0.49322 0.0
C812 C 0.76384 0.13854 0.43645 0.0
C813 C 0.71511 0.0921 0.44778 0.0
N814 N 0.65242 0.04678 0.49166 0.0
N815 N 0.84156 0.22898 0.44859 0.0
C816 C 0.7034 0.08547 0.48149 0.0
C817 C 0.79927 0.17995 0.45918 0.0
N818 N 0.73878 0.1057 0.53648 0.0
N819 N 0.77787 0.14129 0.40435 0.0
H820 H 0.86938 0.25913 0.46453 0.0
H821 H 0.84669 0.24138 0.42426 0.0
H822 H 0.75382 0.11073 0.38748 0.0
H823 H 0.81539 0.17111 0.39504 0.0
H824 H 0.70893 0.06734 0.54503 0.0
H825 H 0.76612 0.13046 0.55444 0.0
H826 H 0.63941 0.04365 0.51576 0.0
H827 H 0.62127 0.02177 0.47535 0.0
C828 C 0.33022 0.37716 0.24327 0.0
C829 C 0.34841 0.36704 0.27345 0.0
C830 C 0.38943 0.32 0.24501 0.0
C831 C 0.37429 0.33323 0.21474 0.0
N832 N 0.34316 0.38659 0.18473 0.0
N833 N 0.40701 0.34172 0.30259 0.0
C834 C 0.3487 0.3657 0.21376 0.0
C835 C 0.38178 0.3425 0.27417 0.0
N836 N 0.29334 0.39517 0.2427 0.0
N837 N 0.40873 0.28404 0.24612 0.0
H838 H 0.40324 0.35893 0.32432 0.0
H839 H 0.43591 0.32906 0.3038 0.0
H840 H 0.41414 0.2659 0.22531 0.0
H841 H 0.41476 0.26843 0.26786 0.0
H842 H 0.27428 0.39739 0.22137 0.0
H843 H 0.27804 0.4033 0.2638 0.0
H844 H 0.32964 0.41491 0.18307 0.0
H845 H 0.35724 0.38 0.16262 0.0
C846 C 0.81778 0.07899 0.24683 0.0
C847 C 0.77777 0.0921 0.23574 0.0
C848 C 0.73442 0.06575 0.28927 0.0
C849 C 0.76411 0.03864 0.29615 0.0
N850 N 0.83642 0.02089 0.28236 0.0
N851 N 0.69249 0.09063 0.24635 0.0
C852 C 0.80735 0.04653 0.2755 0.0
C853 C 0.73522 0.0849 0.25719 0.0
N854 N 0.86538 0.09755 0.22996 0.0
N855 N 0.70299 0.07001 0.31301 0.0
H856 H 0.68796 0.09966 0.22228 0.0
H857 H 0.65816 0.08035 0.26055 0.0
H858 H 0.70193 0.05563 0.33666 0.0
H859 H 0.68329 0.09276 0.31011 0.0
H860 H 0.89759 0.09259 0.23818 0.0
H861 H 0.87461 0.12285 0.20949 0.0
H862 H 0.86434 0.01997 0.2662 0.0
H863 H 0.83046 0.9984 0.30377 0.0
C864 C 0.9307 0.61089 0.25291 0.0
C865 C 0.96238 0.62837 0.224 0.0
C866 C 0.04601 0.6794 0.25625 0.0
C867 C 0.015 0.65835 0.2852 0.0
N868 N 0.92967 0.59477 0.3111 0.0
N869 N 0.0506 0.66737 0.1981 0.0
C870 C 0.9578 0.62121 0.28356 0.0
C871 C 0.02025 0.65887 0.22568 0.0
N872 N 0.87503 0.58661 0.25121 0.0
N873 N 0.09932 0.72086 0.25783 0.0
H874 H 0.03302 0.65195 0.17525 0.0
H875 H 0.09296 0.68477 0.19849 0.0
H876 H 0.1194 0.73854 0.27976 0.0
H877 H 0.12195 0.74145 0.23726 0.0
H878 H 0.85046 0.57864 0.2717 0.0
H879 H 0.85363 0.57845 0.22918 0.0
H880 H 0.88902 0.56318 0.31073 0.0
H881 H 0.9483 0.60079 0.33397 0.0
C882 C 0.72694 0.72037 0.72658 0.0
C883 C 0.68284 0.67756 0.70885 0.0
C884 C 0.62349 0.65809 0.75621 0.0
C885 C 0.66537 0.70569 0.7721 0.0
N886 N 0.75309 0.78928 0.76884 0.0
N887 N 0.58576 0.61359 0.7044 0.0
C888 C 0.71607 0.739 0.75626 0.0
C889 C 0.63003 0.64865 0.72295 0.0
N890 N 0.77946 0.74181 0.71585 0.0
N891 N 0.57848 0.62068 0.77312 0.0
H892 H 0.58847 0.60678 0.67961 0.0
H893 H 0.54571 0.59572 0.71284 0.0
H894 H 0.57305 0.6247 0.79794 0.0
H895 H 0.54945 0.58282 0.76334 0.0
H896 H 0.81333 0.76941 0.72962 0.0
H897 H 0.78953 0.72766 0.69493 0.0
H898 H 0.78838 0.81721 0.75647 0.0
H899 H 0.74582 0.80546 0.78991 0.0
C900 C 0.3514 1.00498 0.76315 0.0
C901 C 0.2958 0.97855 0.77285 0.0
C902 C 0.27498 0.02003 0.72651 0.0
C903 C 0.32821 0.0387 0.71406 0.0
N904 N 0.41375 0.03869 0.71767 0.0
N905 N 0.20225 0.95269 0.7603 0.0
C906 C 0.36571 0.02854 0.7316 0.0
C907 C 0.25679 0.98387 0.75364 0.0
N908 N 0.39082 0.00901 0.78433 0.0
N909 N 0.24231 0.03783 0.71294 0.0
H910 H 0.18698 0.92413 0.77927 0.0
H911 H 0.17196 0.95122 0.745 0.0
H912 H 0.25501 0.06582 0.69365 0.0
H913 H 0.20509 0.02935 0.72303 0.0
H914 H 0.43249 0.0324 0.77935 0.0
H915 H 0.38235 0.99403 0.80818 0.0
H916 H 0.43966 0.02666 0.72838 0.0
H917 H 0.42513 0.05386 0.69403 0.0
C918 C 0.02996 0.38347 0.75156 0.0
C919 C 0.05314 0.35072 0.76094 0.0
C920 C 0.01576 0.29548 0.7114 0.0
C921 C 0.99921 0.33277 0.69999 0.0
N922 N 1.00339 0.42046 0.7063 0.0
N923 N 0.07969 0.28439 0.7454 0.0
C924 C 0.01016 0.37932 0.71918 0.0
C925 C 0.04963 0.30938 0.7395 0.0
N926 N 0.02426 0.41652 0.77382 0.0
N927 N 0.9972 0.24567 0.69645 0.0
H928 H 0.10679 0.29511 0.76506 0.0
H929 H 0.08209 0.25749 0.72882 0.0
H930 H 0.96964 0.23228 0.67693 0.0
H931 H 1.00437 0.21528 0.7058 0.0
H932 H 1.00291 0.43706 0.76871 0.0
H933 H 0.03541 0.41873 0.79832 0.0
H934 H 0.01572 0.45751 0.71848 0.0
H935 H 0.99101 0.42012 0.68222 0.0
loop_
_geom_bond_atom_site_label_1
_geom_bond_atom_site_label_2
_geom_bond_distance
_geom_bond_site_symmetry_2
_ccdc_geom_bond_type
C0 C1 1.351 . S
C0 N3 1.368 . S
C0 H5 0.931 . S
C1 C0 1.351 . S
C1 N2 1.373 . S
C1 H29 0.930 . S
N2 C1 1.373 . S
N2 C4 1.340 . S
N3 C0 1.368 . S
N3 C4 1.321 . S
N3 Co6 2.135 . S
C4 N2 1.340 . S
C4 N3 1.321 . S
C4 H28 0.930 . S
H5 C0 0.931 . S
Co6 N3 2.135 . S
Co6 N9 2.121 . S
Co6 O14 2.055 . S
Co6 O17 2.039 . S
Co6 N20 2.140 . S
C7 O8 1.227 . S
C7 O17 1.265 . S
O8 C7 1.227 . S
N9 Co6 2.121 . S
N9 C11 1.375 . S
N9 C12 1.313 . S
C10 C11 1.338 . S
C10 N13 1.377 . S
C10 H30 0.930 . S
C11 N9 1.375 . S
C11 C10 1.338 . S
C11 H15 0.931 . S
C12 N9 1.313 . S
C12 N13 1.344 . S
C12 H16 0.930 . S
N13 C10 1.377 . S
N13 C12 1.344 . S
O14 Co6 2.055 . S
O14 C18 1.253 . S
H15 C11 0.931 . S
H16 C12 0.930 . S
O17 Co6 2.039 . S
O17 C7 1.265 . S
C18 O14 1.253 . S
C18 O19 1.227 . S
O19 C18 1.227 . S
N20 Co6 2.140 . S
N20 C23 1.346 . S
N20 C24 1.345 . S
C21 C22 1.387 . S
C21 C25 1.391 . S
C22 C21 1.387 . S
C22 C23 1.369 . S
C22 H31 0.929 . S
C23 N20 1.346 . S
C23 C22 1.369 . S
C23 H26 0.928 . S
C24 N20 1.345 . S
C24 C25 1.371 . S
C24 H27 0.931 . S
C25 C21 1.391 . S
C25 C24 1.371 . S
C25 H32 0.930 . S
H26 C23 0.928 . S
H27 C24 0.931 . S
H28 C4 0.930 . S
H29 C1 0.930 . S
H30 C10 0.930 . S
H31 C22 0.929 . S
H32 C25 0.930 . S
C33 C34 1.351 . S
C33 N36 1.368 . S
C33 H38 0.931 . S
C34 C33 1.351 . S
C34 N35 1.373 . S
C34 H62 0.930 . S
N35 C34 1.373 . S
N35 C37 1.340 . S
N36 C33 1.368 . S
N36 C37 1.321 . S
N36 Co39 2.135 . S
C37 N35 1.340 . S
C37 N36 1.321 . S
C37 H61 0.930 . S
H38 C33 0.931 . S
Co39 N36 2.135 . S
Co39 N42 2.121 . S
Co39 O47 2.055 . S
Co39 O50 2.039 . S
Co39 N53 2.140 . S
C40 O41 1.227 . S
C40 O50 1.265 . S
O41 C40 1.227 . S
N42 Co39 2.121 . S
N42 C44 1.375 . S
N42 C45 1.313 . S
C43 C44 1.338 1_565 S
C43 N46 1.377 1_565 S
C43 H63 0.930 . S
C44 N42 1.375 . S
C44 C43 1.338 1_545 S
C44 H48 0.931 . S
C45 N42 1.313 . S
C45 N46 1.344 . S
C45 H49 0.930 . S
N46 C43 1.377 1_545 S
N46 C45 1.344 . S
O47 Co39 2.055 . S
O47 C51 1.253 . S
H48 C44 0.931 . S
H49 C45 0.930 . S
O50 Co39 2.039 . S
O50 C40 1.265 . S
C51 O47 1.253 . S
C51 O52 1.227 . S
O52 C51 1.227 . S
N53 Co39 2.140 . S
N53 C56 1.346 . S
N53 C57 1.345 . S
C54 C55 1.387 . S
C54 C58 1.391 . S
C55 C54 1.387 . S
C55 C56 1.369 . S
C55 H64 0.929 . S
C56 N53 1.346 . S
C56 C55 1.369 . S
C56 H59 0.928 . S
C57 N53 1.345 . S
C57 C58 1.371 . S
C57 H60 0.931 . S
C58 C54 1.391 . S
C58 C57 1.371 . S
C58 H65 0.930 . S
H59 C56 0.928 . S
H60 C57 0.931 . S
H61 C37 0.930 . S
H62 C34 0.930 . S
H63 C43 0.930 . S
H64 C55 0.929 . S
H65 C58 0.930 . S
C66 C67 1.351 . S
C66 N69 1.368 . S
C66 H71 0.931 . S
C67 C66 1.351 . S
C67 N68 1.373 . S
C67 H95 0.930 . S
N68 C67 1.373 . S
N68 C70 1.340 . S
N69 C66 1.368 . S
N69 C70 1.321 . S
N69 Co72 2.135 . S
C70 N68 1.340 . S
C70 N69 1.321 . S
C70 H94 0.930 . S
H71 C66 0.931 . S
Co72 N69 2.135 . S
Co72 N75 2.121 . S
Co72 O80 2.055 . S
Co72 O83 2.039 . S
Co72 N86 2.140 . S
C73 O74 1.227 . S
C73 O83 1.265 . S
O74 C73 1.227 . S
N75 Co72 2.121 . S
N75 C77 1.375 . S
N75 C78 1.313 . S
C76 C77 1.338 1_455 S
C76 N79 1.377 1_455 S
C76 H96 0.930 . S
C77 N75 1.375 . S
C77 C76 1.338 1_655 S
C77 H81 0.931 . S
C78 N75 1.313 . S
C78 N79 1.344 . S
C78 H82 0.930 . S
N79 C76 1.377 1_655 S
N79 C78 1.344 . S
O80 Co72 2.055 . S
O80 C84 1.253 . S
H81 C77 0.931 . S
H82 C78 0.930 . S
O83 Co72 2.039 . S
O83 C73 1.265 . S
C84 O80 1.253 . S
C84 O85 1.227 . S
O85 C84 1.227 . S
N86 Co72 2.140 . S
N86 C89 1.346 . S
N86 C90 1.345 . S
C87 C88 1.387 . S
C87 C91 1.391 . S
C88 C87 1.387 . S
C88 C89 1.369 . S
C88 H97 0.929 . S
C89 N86 1.346 . S
C89 C88 1.369 . S
C89 H92 0.928 . S
C90 N86 1.345 . S
C90 C91 1.371 . S
C90 H93 0.931 . S
C91 C87 1.391 . S
C91 C90 1.371 . S
C91 H98 0.930 . S
H92 C89 0.928 . S
H93 C90 0.931 . S
H94 C70 0.930 . S
H95 C67 0.930 . S
H96 C76 0.930 . S
H97 C88 0.929 . S
H98 C91 0.930 . S
C99 C100 1.351 . S
C99 N102 1.368 . S
C99 H104 0.931 . S
C100 C99 1.351 . S
C100 N101 1.373 . S
C100 H128 0.930 . S
N101 C100 1.373 . S
N101 C103 1.340 . S
N102 C99 1.368 . S
N102 C103 1.321 . S
N102 Co105 2.135 . S
C103 N101 1.340 . S
C103 N102 1.321 . S
C103 H127 0.930 . S
H104 C99 0.931 . S
Co105 N102 2.135 . S
Co105 N108 2.121 . S
Co105 O113 2.055 . S
Co105 O116 2.039 . S
Co105 N119 2.140 . S
C106 O107 1.227 . S
C106 O116 1.265 . S
O107 C106 1.227 . S
N108 Co105 2.121 . S
N108 C110 1.375 . S
N108 C111 1.313 . S
C109 C110 1.338 . S
C109 N112 1.377 . S
C109 H129 0.930 . S
C110 N108 1.375 . S
C110 C109 1.338 . S
C110 H114 0.931 . S
C111 N108 1.313 . S
C111 N112 1.344 . S
C111 H115 0.930 . S
N112 C109 1.377 . S
N112 C111 1.344 . S
O113 Co105 2.055 . S
O113 C117 1.253 . S
H114 C110 0.931 . S
H115 C111 0.930 . S
O116 Co105 2.039 . S
O116 C106 1.265 . S
C117 O113 1.253 . S
C117 O118 1.227 . S
O118 C117 1.227 . S
N119 Co105 2.140 . S
N119 C122 1.346 . S
N119 C123 1.345 . S
C120 C121 1.387 . S
C120 C124 1.391 . S
C121 C120 1.387 . S
C121 C122 1.369 . S
C121 H130 0.929 . S
C122 N119 1.346 . S
C122 C121 1.369 . S
C122 H125 0.928 . S
C123 N119 1.345 . S
C123 C124 1.371 . S
C123 H126 0.931 . S
C124 C120 1.391 . S
C124 C123 1.371 . S
C124 H131 0.930 . S
H125 C122 0.928 . S
H126 C123 0.931 . S
H127 C103 0.930 . S
H128 C100 0.930 . S
H129 C109 0.930 . S
H130 C121 0.929 . S
H131 C124 0.930 . S
C132 C133 1.351 . S
C132 N135 1.368 . S
C132 H137 0.931 . S
C133 C132 1.351 . S
C133 N134 1.373 . S
C133 H161 0.930 . S
N134 C133 1.373 . S
N134 C136 1.340 . S
N135 C132 1.368 . S
N135 C136 1.321 . S
N135 Co138 2.135 . S
C136 N134 1.340 . S
C136 N135 1.321 . S
C136 H160 0.930 . S
H137 C132 0.931 . S
Co138 N135 2.135 . S
Co138 N141 2.121 . S
Co138 O146 2.055 . S
Co138 O149 2.039 . S
Co138 N152 2.140 . S
C139 O140 1.227 . S
C139 O149 1.265 . S
O140 C139 1.227 . S
N141 Co138 2.121 . S
N141 C143 1.375 . S
N141 C144 1.313 . S
C142 C143 1.338 1_545 S
C142 N145 1.377 1_545 S
C142 H162 0.930 . S
C143 N141 1.375 . S
C143 C142 1.338 1_565 S
C143 H147 0.931 . S
C144 N141 1.313 . S
C144 N145 1.344 . S
C144 H148 0.930 . S
N145 C142 1.377 1_565 S
N145 C144 1.344 . S
O146 Co138 2.055 . S
O146 C150 1.253 . S
H147 C143 0.931 . S
H148 C144 0.930 . S
O149 Co138 2.039 . S
O149 C139 1.265 . S
C150 O146 1.253 . S
C150 O151 1.227 . S
O151 C150 1.227 . S
N152 Co138 2.140 . S
N152 C155 1.346 . S
N152 C156 1.345 . S
C153 C154 1.387 . S
C153 C157 1.391 . S
C154 C153 1.387 . S
C154 C155 1.369 . S
C154 H163 0.929 . S
C155 N152 1.346 . S
C155 C154 1.369 . S
C155 H158 0.928 . S
C156 N152 1.345 . S
C156 C157 1.371 . S
C156 H159 0.931 . S
C157 C153 1.391 . S
C157 C156 1.371 . S
C157 H164 0.930 . S
H158 C155 0.928 . S
H159 C156 0.931 . S
H160 C136 0.930 . S
H161 C133 0.930 . S
H162 C142 0.930 . S
H163 C154 0.929 . S
H164 C157 0.930 . S
C165 C166 1.351 . S
C165 N168 1.368 . S
C165 H170 0.931 . S
C166 C165 1.351 . S
C166 N167 1.373 . S
C166 H194 0.930 . S
N167 C166 1.373 . S
N167 C169 1.340 . S
N168 C165 1.368 . S
N168 C169 1.321 . S
N168 Co171 2.135 . S
C169 N167 1.340 . S
C169 N168 1.321 . S
C169 H193 0.930 . S
H170 C165 0.931 . S
Co171 N168 2.135 . S
Co171 N174 2.121 . S
Co171 O179 2.055 . S
Co171 O182 2.039 . S
Co171 N185 2.140 . S
C172 O173 1.227 . S
C172 O182 1.265 . S
O173 C172 1.227 . S
N174 Co171 2.121 . S
N174 C176 1.375 . S
N174 C177 1.313 . S
C175 C176 1.338 1_655 S
C175 N178 1.377 1_655 S
C175 H195 0.930 . S
C176 N174 1.375 . S
C176 C175 1.338 1_455 S
C176 H180 0.931 . S
C177 N174 1.313 . S
C177 N178 1.344 . S
C177 H181 0.930 . S
N178 C175 1.377 1_455 S
N178 C177 1.344 . S
O179 Co171 2.055 . S
O179 C183 1.253 . S
H180 C176 0.931 . S
H181 C177 0.930 . S
O182 Co171 2.039 . S
O182 C172 1.265 . S
C183 O179 1.253 . S
C183 O184 1.227 . S
O184 C183 1.227 . S
N185 Co171 2.140 . S
N185 C188 1.346 . S
N185 C189 1.345 . S
C186 C187 1.387 . S
C186 C190 1.391 . S
C187 C186 1.387 . S
C187 C188 1.369 . S
C187 H196 0.929 . S
C188 N185 1.346 . S
C188 C187 1.369 . S
C188 H191 0.928 . S
C189 N185 1.345 . S
C189 C190 1.371 . S
C189 H192 0.931 . S
C190 C186 1.391 . S
C190 C189 1.371 . S
C190 H197 0.930 . S
H191 C188 0.928 . S
H192 C189 0.931 . S
H193 C169 0.930 . S
H194 C166 0.930 . S
H195 C175 0.930 . S
H196 C187 0.929 . S
H197 C190 0.930 . S
C198 C199 1.351 . S
C198 N201 1.368 . S
C198 H203 0.931 . S
C199 C198 1.351 . S
C199 N200 1.373 . S
C199 H227 0.930 . S
N200 C199 1.373 . S
N200 C202 1.340 . S
N201 C198 1.368 . S
N201 C202 1.321 . S
N201 Co204 2.135 . S
C202 N200 1.340 . S
C202 N201 1.321 . S
C202 H226 0.930 . S
H203 C198 0.931 . S
Co204 N201 2.135 . S
Co204 N207 2.121 . S
Co204 O212 2.055 . S
Co204 O215 2.039 . S
Co204 N218 2.140 . S
C205 O206 1.227 . S
C205 O215 1.265 . S
O206 C205 1.227 . S
N207 Co204 2.121 . S
N207 C209 1.375 . S
N207 C210 1.313 . S
C208 C209 1.338 . S
C208 N211 1.377 . S
C208 H228 0.930 . S
C209 N207 1.375 . S
C209 C208 1.338 . S
C209 H213 0.931 . S
C210 N207 1.313 . S
C210 N211 1.344 . S
C210 H214 0.930 . S
N211 C208 1.377 . S
N211 C210 1.344 . S
O212 Co204 2.055 . S
O212 C216 1.253 . S
H213 C209 0.931 . S
H214 C210 0.930 . S
O215 Co204 2.039 . S
O215 C205 1.265 . S
C216 O212 1.253 . S
C216 O217 1.227 . S
O217 C216 1.227 . S
N218 Co204 2.140 . S
N218 C221 1.346 . S
N218 C222 1.345 . S
C219 C220 1.387 . S
C219 C223 1.391 . S
C220 C219 1.387 . S
C220 C221 1.369 . S
C220 H229 0.929 . S
C221 N218 1.346 . S
C221 C220 1.369 . S
C221 H224 0.928 . S
C222 N218 1.345 . S
C222 C223 1.371 . S
C222 H225 0.931 . S
C223 C219 1.391 . S
C223 C222 1.371 . S
C223 H230 0.930 . S
H224 C221 0.928 . S
H225 C222 0.931 . S
H226 C202 0.930 . S
H227 C199 0.930 . S
H228 C208 0.930 . S
H229 C220 0.929 . S
H230 C223 0.930 . S
C231 C232 1.351 . S
C231 N234 1.368 . S
C231 H236 0.931 . S
C232 C231 1.351 . S
C232 N233 1.373 . S
C232 H260 0.930 . S
N233 C232 1.373 . S
N233 C235 1.340 . S
N234 C231 1.368 . S
N234 C235 1.321 . S
N234 Co237 2.135 . S
C235 N233 1.340 . S
C235 N234 1.321 . S
C235 H259 0.930 . S
H236 C231 0.931 . S
Co237 N234 2.135 . S
Co237 N240 2.121 . S
Co237 O245 2.055 . S
Co237 O248 2.039 . S
Co237 N251 2.140 . S
C238 O239 1.227 . S
C238 O248 1.265 . S
O239 C238 1.227 . S
N240 Co237 2.121 . S
N240 C242 1.375 . S
N240 C243 1.313 . S
C241 C242 1.338 1_545 S
C241 N244 1.377 1_545 S
C241 H261 0.930 . S
C242 N240 1.375 . S
C242 C241 1.338 1_565 S
C242 H246 0.931 . S
C243 N240 1.313 . S
C243 N244 1.344 . S
C243 H247 0.930 . S
N244 C241 1.377 1_565 S
N244 C243 1.344 . S
O245 Co237 2.055 . S
O245 C249 1.253 . S
H246 C242 0.931 . S
H247 C243 0.930 . S
O248 Co237 2.039 . S
O248 C238 1.265 . S
C249 O245 1.253 . S
C249 O250 1.227 . S
O250 C249 1.227 . S
N251 Co237 2.140 . S
N251 C254 1.346 . S
N251 C255 1.345 . S
C252 C253 1.387 . S
C252 C256 1.391 . S
C253 C252 1.387 . S
C253 C254 1.369 . S
C253 H262 0.929 . S
C254 N251 1.346 . S
C254 C253 1.369 . S
C254 H257 0.928 . S
C255 N251 1.345 . S
C255 C256 1.371 . S
C255 H258 0.931 . S
C256 C252 1.391 . S
C256 C255 1.371 . S
C256 H263 0.930 . S
H257 C254 0.928 . S
H258 C255 0.931 . S
H259 C235 0.930 . S
H260 C232 0.930 . S
H261 C241 0.930 . S
H262 C253 0.929 . S
H263 C256 0.930 . S
C264 C265 1.351 . S
C264 N267 1.368 . S
C264 H269 0.931 . S
C265 C264 1.351 . S
C265 N266 1.373 . S
C265 H293 0.930 . S
N266 C265 1.373 . S
N266 C268 1.340 . S
N267 C264 1.368 . S
N267 C268 1.321 . S
N267 Co270 2.135 . S
C268 N266 1.340 . S
C268 N267 1.321 . S
C268 H292 0.930 . S
H269 C264 0.931 . S
Co270 N267 2.135 . S
Co270 N273 2.121 . S
Co270 O278 2.055 . S
Co270 O281 2.039 . S
Co270 N284 2.140 . S
C271 O272 1.227 . S
C271 O281 1.265 . S
O272 C271 1.227 . S
N273 Co270 2.121 . S
N273 C275 1.375 . S
N273 C276 1.313 . S
C274 C275 1.338 1_655 S
C274 N277 1.377 1_655 S
C274 H294 0.930 . S
C275 N273 1.375 . S
C275 C274 1.338 1_455 S
C275 H279 0.931 . S
C276 N273 1.313 . S
C276 N277 1.344 . S
C276 H280 0.930 . S
N277 C274 1.377 1_455 S
N277 C276 1.344 . S
O278 Co270 2.055 . S
O278 C282 1.253 . S
H279 C275 0.931 . S
H280 C276 0.930 . S
O281 Co270 2.039 . S
O281 C271 1.265 . S
C282 O278 1.253 . S
C282 O283 1.227 . S
O283 C282 1.227 . S
N284 Co270 2.140 . S
N284 C287 1.346 . S
N284 C288 1.345 . S
C285 C286 1.387 . S
C285 C289 1.391 . S
C286 C285 1.387 . S
C286 C287 1.369 . S
C286 H295 0.929 . S
C287 N284 1.346 . S
C287 C286 1.369 . S
C287 H290 0.928 . S
C288 N284 1.345 . S
C288 C289 1.371 . S
C288 H291 0.931 . S
C289 C285 1.391 . S
C289 C288 1.371 . S
C289 H296 0.930 . S
H290 C287 0.928 . S
H291 C288 0.931 . S
H292 C268 0.930 . S
H293 C265 0.930 . S
H294 C274 0.930 . S
H295 C286 0.929 . S
H296 C289 0.930 . S
C297 C298 1.351 . S
C297 N300 1.368 . S
C297 H302 0.931 . S
C298 C297 1.351 . S
C298 N299 1.373 . S
C298 H326 0.930 . S
N299 C298 1.373 . S
N299 C301 1.340 . S
N300 C297 1.368 . S
N300 C301 1.321 . S
N300 Co303 2.135 . S
C301 N299 1.340 . S
C301 N300 1.321 . S
C301 H325 0.930 . S
H302 C297 0.931 . S
Co303 N300 2.135 . S
Co303 N306 2.121 . S
Co303 O311 2.055 . S
Co303 O314 2.039 . S
Co303 N317 2.140 . S
C304 O305 1.227 . S
C304 O314 1.265 . S
O305 C304 1.227 . S
N306 Co303 2.121 . S
N306 C308 1.375 . S
N306 C309 1.313 . S
C307 C308 1.338 . S
C307 N310 1.377 . S
C307 H327 0.930 . S
C308 N306 1.375 . S
C308 C307 1.338 . S
C308 H312 0.931 . S
C309 N306 1.313 . S
C309 N310 1.344 . S
C309 H313 0.930 . S
N310 C307 1.377 . S
N310 C309 1.344 . S
O311 Co303 2.055 . S
O311 C315 1.253 . S
H312 C308 0.931 . S
H313 C309 0.930 . S
O314 Co303 2.039 . S
O314 C304 1.265 . S
C315 O311 1.253 . S
C315 O316 1.227 . S
O316 C315 1.227 . S
N317 Co303 2.140 . S
N317 C320 1.346 . S
N317 C321 1.345 . S
C318 C319 1.387 . S
C318 C322 1.391 . S
C319 C318 1.387 . S
C319 C320 1.369 . S
C319 H328 0.929 . S
C320 N317 1.346 . S
C320 C319 1.369 . S
C320 H323 0.928 . S
C321 N317 1.345 . S
C321 C322 1.371 . S
C321 H324 0.931 . S
C322 C318 1.391 . S
C322 C321 1.371 . S
C322 H329 0.930 . S
H323 C320 0.928 . S
H324 C321 0.931 . S
H325 C301 0.930 . S
H326 C298 0.930 . S
H327 C307 0.930 . S
H328 C319 0.929 . S
H329 C322 0.930 . S
C330 C331 1.351 . S
C330 N333 1.368 . S
C330 H335 0.931 . S
C331 C330 1.351 . S
C331 N332 1.373 . S
C331 H359 0.930 . S
N332 C331 1.373 . S
N332 C334 1.340 . S
N333 C330 1.368 . S
N333 C334 1.321 . S
N333 Co336 2.135 . S
C334 N332 1.340 . S
C334 N333 1.321 . S
C334 H358 0.930 . S
H335 C330 0.931 . S
Co336 N333 2.135 . S
Co336 N339 2.121 . S
Co336 O344 2.055 . S
Co336 O347 2.039 . S
Co336 N350 2.140 . S
C337 O338 1.227 . S
C337 O347 1.265 . S
O338 C337 1.227 . S
N339 Co336 2.121 . S
N339 C341 1.375 . S
N339 C342 1.313 . S
C340 C341 1.338 1_565 S
C340 N343 1.377 1_565 S
C340 H360 0.930 . S
C341 N339 1.375 . S
C341 C340 1.338 1_545 S
C341 H345 0.931 . S
C342 N339 1.313 . S
C342 N343 1.344 . S
C342 H346 0.930 . S
N343 C340 1.377 1_545 S
N343 C342 1.344 . S
O344 Co336 2.055 . S
O344 C348 1.253 . S
H345 C341 0.931 . S
H346 C342 0.930 . S
O347 Co336 2.039 . S
O347 C337 1.265 . S
C348 O344 1.253 . S
C348 O349 1.227 . S
O349 C348 1.227 . S
N350 Co336 2.140 . S
N350 C353 1.346 . S
N350 C354 1.345 . S
C351 C352 1.387 . S
C351 C355 1.391 . S
C352 C351 1.387 . S
C352 C353 1.369 . S
C352 H361 0.929 . S
C353 N350 1.346 . S
C353 C352 1.369 . S
C353 H356 0.928 . S
C354 N350 1.345 . S
C354 C355 1.371 . S
C354 H357 0.931 . S
C355 C351 1.391 . S
C355 C354 1.371 . S
C355 H362 0.930 . S
H356 C353 0.928 . S
H357 C354 0.931 . S
H358 C334 0.930 . S
H359 C331 0.930 . S
H360 C340 0.930 . S
H361 C352 0.929 . S
H362 C355 0.930 . S
C363 C364 1.351 . S
C363 N366 1.368 . S
C363 H368 0.931 . S
C364 C363 1.351 . S
C364 N365 1.373 . S
C364 H392 0.930 . S
N365 C364 1.373 . S
N365 C367 1.340 . S
N366 C363 1.368 . S
N366 C367 1.321 . S
N366 Co369 2.135 . S
C367 N365 1.340 . S
C367 N366 1.321 . S
C367 H391 0.930 . S
H368 C363 0.931 . S
Co369 N366 2.135 . S
Co369 N372 2.121 . S
Co369 O377 2.055 . S
Co369 O380 2.039 . S
Co369 N383 2.140 . S
C370 O371 1.227 . S
C370 O380 1.265 . S
O371 C370 1.227 . S
N372 Co369 2.121 . S
N372 C374 1.375 . S
N372 C375 1.313 . S
C373 C374 1.338 1_455 S
C373 N376 1.377 1_455 S
C373 H393 0.930 . S
C374 N372 1.375 . S
C374 C373 1.338 1_655 S
C374 H378 0.931 . S
C375 N372 1.313 . S
C375 N376 1.344 . S
C375 H379 0.930 . S
N376 C373 1.377 1_655 S
N376 C375 1.344 . S
O377 Co369 2.055 . S
O377 C381 1.253 . S
H378 C374 0.931 . S
H379 C375 0.930 . S
O380 Co369 2.039 . S
O380 C370 1.265 . S
C381 O377 1.253 . S
C381 O382 1.227 . S
O382 C381 1.227 . S
N383 Co369 2.140 . S
N383 C386 1.346 . S
N383 C387 1.345 . S
C384 C385 1.387 . S
C384 C388 1.391 . S
C385 C384 1.387 . S
C385 C386 1.369 . S
C385 H394 0.929 . S
C386 N383 1.346 . S
C386 C385 1.369 . S
C386 H389 0.928 . S
C387 N383 1.345 . S
C387 C388 1.371 . S
C387 H390 0.931 . S
C388 C384 1.391 . S
C388 C387 1.371 . S
C388 H395 0.930 . S
H389 C386 0.928 . S
H390 C387 0.931 . S
H391 C367 0.930 . S
H392 C364 0.930 . S
H393 C373 0.930 . S
H394 C385 0.929 . S
H395 C388 0.930 . S
C396 C397 1.363 . S
C396 C402 1.379 . S
C396 N404 1.356 . S
C397 C396 1.363 . S
C397 C403 1.363 . S
C398 C399 1.363 . S
C398 C403 1.379 . S
C398 N405 1.356 . S
C399 C398 1.363 . S
C399 C402 1.363 . S
N400 C402 1.356 . S
N400 H412 0.984 . S
N400 H413 0.985 . S
N401 C403 1.356 . S
N401 H406 0.984 . S
N401 H407 0.985 . S
C402 C396 1.379 . S
C402 C399 1.363 . S
C402 N400 1.356 . S
C403 C397 1.363 . S
C403 C398 1.379 . S
C403 N401 1.356 . S
N404 C396 1.356 . S
N404 H410 0.984 . S
N404 H411 0.984 . S
N405 C398 1.356 . S
N405 H408 0.984 . S
N405 H409 0.985 . S
H406 N401 0.984 . S
H407 N401 0.985 . S
H408 N405 0.984 . S
H409 N405 0.985 . S
H410 N404 0.984 . S
H411 N404 0.984 . S
H412 N400 0.984 . S
H413 N400 0.985 . S
C414 C415 1.363 . S
C414 C420 1.379 . S
C414 N422 1.356 . S
C415 C414 1.363 . S
C415 C421 1.363 . S
C416 C417 1.363 . S
C416 C421 1.379 . S
C416 N423 1.356 . S
C417 C416 1.363 . S
C417 C420 1.363 . S
N418 C420 1.356 . S
N418 H430 0.984 . S
N418 H431 0.985 . S
N419 C421 1.356 . S
N419 H424 0.984 . S
N419 H425 0.985 . S
C420 C414 1.379 . S
C420 C417 1.363 . S
C420 N418 1.356 . S
C421 C415 1.363 . S
C421 C416 1.379 . S
C421 N419 1.356 . S
N422 C414 1.356 . S
N422 H428 0.984 . S
N422 H429 0.984 . S
N423 C416 1.356 . S
N423 H426 0.984 . S
N423 H427 0.985 . S
H424 N419 0.984 . S
H425 N419 0.985 . S
H426 N423 0.984 . S
H427 N423 0.985 . S
H428 N422 0.984 . S
H429 N422 0.984 . S
H430 N418 0.984 . S
H431 N418 0.985 . S
C432 C433 1.363 . S
C432 C438 1.379 . S
C432 N440 1.356 . S
C433 C432 1.363 . S
C433 C439 1.363 . S
C434 C435 1.363 . S
C434 C439 1.379 . S
C434 N441 1.356 . S
C435 C434 1.363 . S
C435 C438 1.363 . S
N436 C438 1.356 . S
N436 H448 0.984 . S
N436 H449 0.985 . S
N437 C439 1.356 . S
N437 H442 0.984 . S
N437 H443 0.985 . S
C438 C432 1.379 . S
C438 C435 1.363 . S
C438 N436 1.356 . S
C439 C433 1.363 . S
C439 C434 1.379 . S
C439 N437 1.356 . S
N440 C432 1.356 . S
N440 H446 0.984 . S
N440 H447 0.984 . S
N441 C434 1.356 . S
N441 H444 0.984 . S
N441 H445 0.985 . S
H442 N437 0.984 . S
H443 N437 0.985 . S
H444 N441 0.984 . S
H445 N441 0.985 . S
H446 N440 0.984 . S
H447 N440 0.984 . S
H448 N436 0.984 . S
H449 N436 0.985 . S
C450 C451 1.363 . S
C450 C456 1.379 . S
C450 N458 1.356 . S
C451 C450 1.363 . S
C451 C457 1.363 . S
C452 C453 1.363 . S
C452 C457 1.379 . S
C452 N459 1.356 . S
C453 C452 1.363 . S
C453 C456 1.363 . S
N454 C456 1.356 . S
N454 H466 0.984 . S
N454 H467 0.985 . S
N455 C457 1.356 . S
N455 H460 0.984 . S
N455 H461 0.985 . S
C456 C450 1.379 . S
C456 C453 1.363 . S
C456 N454 1.356 . S
C457 C451 1.363 . S
C457 C452 1.379 . S
C457 N455 1.356 . S
N458 C450 1.356 . S
N458 H464 0.984 . S
N458 H465 0.984 . S
N459 C452 1.356 . S
N459 H462 0.984 . S
N459 H463 0.985 . S
H460 N455 0.984 . S
H461 N455 0.985 . S
H462 N459 0.984 . S
H463 N459 0.985 . S
H464 N458 0.984 . S
H465 N458 0.984 . S
H466 N454 0.984 . S
H467 N454 0.985 . S
C468 C469 1.363 . S
C468 C474 1.379 . S
C468 N476 1.356 . S
C469 C468 1.363 . S
C469 C475 1.363 . S
C470 C471 1.363 . S
C470 C475 1.379 . S
C470 N477 1.356 . S
C471 C470 1.363 . S
C471 C474 1.363 . S
N472 C474 1.356 . S
N472 H484 0.984 . S
N472 H485 0.985 . S
N473 C475 1.356 . S
N473 H478 0.984 . S
N473 H479 0.985 . S
C474 C468 1.379 . S
C474 C471 1.363 . S
C474 N472 1.356 . S
C475 C469 1.363 . S
C475 C470 1.379 . S
C475 N473 1.356 . S
N476 C468 1.356 . S
N476 H482 0.984 . S
N476 H483 0.984 . S
N477 C470 1.356 . S
N477 H480 0.984 . S
N477 H481 0.985 . S
H478 N473 0.984 . S
H479 N473 0.985 . S
H480 N477 0.984 . S
H481 N477 0.985 . S
H482 N476 0.984 . S
H483 N476 0.984 . S
H484 N472 0.984 . S
H485 N472 0.985 . S
C486 C487 1.363 . S
C486 C492 1.379 . S
C486 N494 1.356 . S
C487 C486 1.363 . S
C487 C493 1.363 . S
C488 C489 1.363 . S
C488 C493 1.379 . S
C488 N495 1.356 . S
C489 C488 1.363 . S
C489 C492 1.363 . S
N490 C492 1.356 . S
N490 H502 0.984 . S
N490 H503 0.985 . S
N491 C493 1.356 . S
N491 H496 0.984 . S
N491 H497 0.985 . S
C492 C486 1.379 . S
C492 C489 1.363 . S
C492 N490 1.356 . S
C493 C487 1.363 . S
C493 C488 1.379 . S
C493 N491 1.356 . S
N494 C486 1.356 . S
N494 H500 0.984 . S
N494 H501 0.984 . S
N495 C488 1.356 . S
N495 H498 0.984 . S
N495 H499 0.985 . S
H496 N491 0.984 . S
H497 N491 0.985 . S
H498 N495 0.984 . S
H499 N495 0.985 . S
H500 N494 0.984 . S
H501 N494 0.984 . S
H502 N490 0.984 . S
H503 N490 0.985 . S
C504 C505 1.363 . S
C504 C510 1.379 . S
C504 N512 1.356 . S
C505 C504 1.363 . S
C505 C511 1.363 . S
C506 C507 1.363 . S
C506 C511 1.379 . S
C506 N513 1.356 . S
C507 C506 1.363 . S
C507 C510 1.363 . S
N508 C510 1.356 . S
N508 H520 0.984 . S
N508 H521 0.985 . S
N509 C511 1.356 . S
N509 H514 0.984 . S
N509 H515 0.985 . S
C510 C504 1.379 . S
C510 C507 1.363 . S
C510 N508 1.356 . S
C511 C505 1.363 . S
C511 C506 1.379 . S
C511 N509 1.356 . S
N512 C504 1.356 . S
N512 H518 0.984 . S
N512 H519 0.984 . S
N513 C506 1.356 . S
N513 H516 0.984 . S
N513 H517 0.985 . S
H514 N509 0.984 . S
H515 N509 0.985 . S
H516 N513 0.984 . S
H517 N513 0.985 . S
H518 N512 0.984 . S
H519 N512 0.984 . S
H520 N508 0.984 . S
H521 N508 0.985 . S
C522 C523 1.363 . S
C522 C528 1.379 . S
C522 N530 1.356 . S
C523 C522 1.363 . S
C523 C529 1.363 . S
C524 C525 1.363 . S
C524 C529 1.379 . S
C524 N531 1.356 . S
C525 C524 1.363 . S
C525 C528 1.363 . S
N526 C528 1.356 . S
N526 H538 0.984 . S
N526 H539 0.985 . S
N527 C529 1.356 . S
N527 H532 0.984 . S
N527 H533 0.985 . S
C528 C522 1.379 . S
C528 C525 1.363 . S
C528 N526 1.356 . S
C529 C523 1.363 . S
C529 C524 1.379 . S
C529 N527 1.356 . S
N530 C522 1.356 . S
N530 H536 0.984 . S
N530 H537 0.984 . S
N531 C524 1.356 . S
N531 H534 0.984 . S
N531 H535 0.985 . S
H532 N527 0.984 . S
H533 N527 0.985 . S
H534 N531 0.984 . S
H535 N531 0.985 . S
H536 N530 0.984 . S
H537 N530 0.984 . S
H538 N526 0.984 . S
H539 N526 0.985 . S
C540 C541 1.363 . S
C540 C546 1.379 . S
C540 N548 1.356 . S
C541 C540 1.363 . S
C541 C547 1.363 . S
C542 C543 1.363 . S
C542 C547 1.379 . S
C542 N549 1.356 . S
C543 C542 1.363 . S
C543 C546 1.363 . S
N544 C546 1.356 . S
N544 H556 0.984 . S
N544 H557 0.985 . S
N545 C547 1.356 . S
N545 H550 0.984 . S
N545 H551 0.985 . S
C546 C540 1.379 . S
C546 C543 1.363 . S
C546 N544 1.356 . S
C547 C541 1.363 . S
C547 C542 1.379 . S
C547 N545 1.356 . S
N548 C540 1.356 . S
N548 H554 0.984 . S
N548 H555 0.984 . S
N549 C542 1.356 . S
N549 H552 0.984 . S
N549 H553 0.985 . S
H550 N545 0.984 . S
H551 N545 0.985 . S
H552 N549 0.984 . S
H553 N549 0.985 . S
H554 N548 0.984 . S
H555 N548 0.984 . S
H556 N544 0.984 . S
H557 N544 0.985 . S
C558 C559 1.363 . S
C558 C564 1.379 . S
C558 N566 1.356 . S
C559 C558 1.363 . S
C559 C565 1.363 . S
C560 C561 1.363 . S
C560 C565 1.379 . S
C560 N567 1.356 . S
C561 C560 1.363 . S
C561 C564 1.363 . S
N562 C564 1.356 . S
N562 H574 0.984 . S
N562 H575 0.985 . S
N563 C565 1.356 . S
N563 H568 0.984 . S
N563 H569 0.985 . S
C564 C558 1.379 . S
C564 C561 1.363 . S
C564 N562 1.356 . S
C565 C559 1.363 . S
C565 C560 1.379 . S
C565 N563 1.356 . S
N566 C558 1.356 . S
N566 H572 0.984 . S
N566 H573 0.984 . S
N567 C560 1.356 . S
N567 H570 0.984 . S
N567 H571 0.985 . S
H568 N563 0.984 . S
H569 N563 0.985 . S
H570 N567 0.984 . S
H571 N567 0.985 . S
H572 N566 0.984 . S
H573 N566 0.984 . S
H574 N562 0.984 . S
H575 N562 0.985 . S
C576 C577 1.363 . S
C576 C582 1.379 . S
C576 N584 1.356 . S
C577 C576 1.363 . S
C577 C583 1.363 . S
C578 C579 1.363 . S
C578 C583 1.379 . S
C578 N585 1.356 . S
C579 C578 1.363 . S
C579 C582 1.363 . S
N580 C582 1.356 . S
N580 H592 0.984 . S
N580 H593 0.985 . S
N581 C583 1.356 . S
N581 H586 0.984 . S
N581 H587 0.985 . S
C582 C576 1.379 . S
C582 C579 1.363 . S
C582 N580 1.356 . S
C583 C577 1.363 . S
C583 C578 1.379 . S
C583 N581 1.356 . S
N584 C576 1.356 . S
N584 H590 0.984 . S
N584 H591 0.984 . S
N585 C578 1.356 . S
N585 H588 0.984 . S
N585 H589 0.985 . S
H586 N581 0.984 . S
H587 N581 0.985 . S
H588 N585 0.984 . S
H589 N585 0.985 . S
H590 N584 0.984 . S
H591 N584 0.984 . S
H592 N580 0.984 . S
H593 N580 0.985 . S
C594 C595 1.363 . S
C594 C600 1.379 . S
C594 N602 1.356 . S
C595 C594 1.363 . S
C595 C601 1.363 . S
C596 C597 1.363 . S
C596 C601 1.379 . S
C596 N603 1.356 . S
C597 C596 1.363 . S
C597 C600 1.363 . S
N598 C600 1.356 . S
N598 H610 0.984 . S
N598 H611 0.985 . S
N599 C601 1.356 . S
N599 H604 0.984 . S
N599 H605 0.985 . S
C600 C594 1.379 . S
C600 C597 1.363 . S
C600 N598 1.356 . S
C601 C595 1.363 . S
C601 C596 1.379 . S
C601 N599 1.356 . S
N602 C594 1.356 . S
N602 H608 0.984 . S
N602 H609 0.984 . S
N603 C596 1.356 . S
N603 H606 0.984 . S
N603 H607 0.985 . S
H604 N599 0.984 . S
H605 N599 0.985 . S
H606 N603 0.984 . S
H607 N603 0.985 . S
H608 N602 0.984 . S
H609 N602 0.984 . S
H610 N598 0.984 . S
H611 N598 0.985 . S
C612 C613 1.363 . S
C612 C618 1.379 1_554 S
C612 N620 1.356 . S
C613 C612 1.363 . S
C613 C619 1.363 . S
C614 C615 1.363 . S
C614 C619 1.379 1_556 S
C614 N621 1.356 . S
C615 C614 1.363 . S
C615 C618 1.363 . S
N616 C618 1.356 . S
N616 H628 0.984 . S
N616 H629 0.985 1_545 S
N617 C619 1.356 . S
N617 H622 0.984 . S
N617 H623 0.985 . S
C618 C612 1.379 1_556 S
C618 C615 1.363 . S
C618 N616 1.356 . S
C619 C613 1.363 . S
C619 C614 1.379 1_554 S
C619 N617 1.356 . S
N620 C612 1.356 . S
N620 H626 0.984 . S
N620 H627 0.984 . S
N621 C614 1.356 . S
N621 H624 0.984 1_545 S
N621 H625 0.985 . S
H622 N617 0.984 . S
H623 N617 0.985 . S
H624 N621 0.984 1_565 S
H625 N621 0.985 . S
H626 N620 0.984 . S
H627 N620 0.984 . S
H628 N616 0.984 . S
H629 N616 0.985 1_565 S
C630 C631 1.363 . S
C630 C636 1.379 1_554 S
C630 N638 1.356 . S
C631 C630 1.363 . S
C631 C637 1.363 . S
C632 C633 1.363 . S
C632 C637 1.379 1_556 S
C632 N639 1.356 . S
C633 C632 1.363 . S
C633 C636 1.363 . S
N634 C636 1.356 1_455 S
N634 H646 0.984 . S
N634 H647 0.985 . S
N635 C637 1.356 . S
N635 H640 0.984 . S
N635 H641 0.985 . S
C636 C630 1.379 1_556 S
C636 C633 1.363 . S
C636 N634 1.356 1_655 S
C637 C631 1.363 . S
C637 C632 1.379 1_554 S
C637 N635 1.356 . S
N638 C630 1.356 . S
N638 H644 0.984 . S
N638 H645 0.984 . S
N639 C632 1.356 . S
N639 H642 0.984 . S
N639 H643 0.985 . S
H640 N635 0.984 . S
H641 N635 0.985 . S
H642 N639 0.984 . S
H643 N639 0.985 . S
H644 N638 0.984 . S
H645 N638 0.984 . S
H646 N634 0.984 . S
H647 N634 0.985 . S
C648 C649 1.363 . S
C648 C654 1.379 1_554 S
C648 N656 1.356 . S
C649 C648 1.363 . S
C649 C655 1.363 . S
C650 C651 1.363 1_554 S
C650 C655 1.379 . S
C650 N657 1.352 1_554 S
C651 C650 1.363 1_556 S
C651 C654 1.363 . S
N652 C654 1.356 . S
N652 H664 0.984 . S
N652 H665 0.985 . S
N653 C655 1.356 . S
N653 H658 0.984 . S
N653 H659 0.985 . S
C654 C648 1.379 1_556 S
C654 C651 1.363 . S
C654 N652 1.356 . S
C655 C649 1.363 . S
C655 C650 1.379 . S
C655 N653 1.356 . S
N656 C648 1.356 . S
N656 H662 0.984 1_554 S
N656 H663 0.984 . S
N657 C650 1.352 1_556 S
N657 H660 1.002 . S
N657 H661 0.972 1_556 S
H658 N653 0.984 . S
H659 N653 0.985 . S
H660 N657 1.002 . S
H661 N657 0.972 1_554 S
H662 N656 0.984 1_556 S
H663 N656 0.984 . S
H664 N652 0.984 . S
H665 N652 0.985 . S
C666 C667 1.363 . S
C666 C672 1.379 . S
C666 N674 1.356 . S
C667 C666 1.363 . S
C667 C673 1.363 . S
C668 C669 1.363 . S
C668 C673 1.379 . S
C668 N675 1.356 . S
C669 C668 1.363 . S
C669 C672 1.363 . S
N670 C672 1.356 . S
N670 H682 0.984 . S
N670 H683 0.985 . S
N671 C673 1.356 . S
N671 H676 0.984 . S
N671 H677 0.985 . S
C672 C666 1.379 . S
C672 C669 1.363 . S
C672 N670 1.356 . S
C673 C667 1.363 . S
C673 C668 1.379 . S
C673 N671 1.356 . S
N674 C666 1.356 . S
N674 H680 0.974 1_455 S
N674 H681 0.984 1_455 S
N675 C668 1.356 . S
N675 H678 0.984 . S
N675 H679 0.985 . S
H676 N671 0.984 . S
H677 N671 0.985 . S
H678 N675 0.984 . S
H679 N675 0.985 . S
H680 N674 0.974 1_655 S
H681 N674 0.984 1_655 S
H682 N670 0.984 . S
H683 N670 0.985 . S
C684 C685 1.363 . S
C684 C690 1.379 . S
C684 N692 1.356 . S
C685 C684 1.363 . S
C685 C691 1.363 . S
C686 C687 1.363 . S
C686 C691 1.379 . S
C686 N693 1.356 . S
C687 C686 1.363 . S
C687 C690 1.363 . S
N688 C690 1.356 . S
N688 H700 0.984 . S
N688 H701 0.985 . S
N689 C691 1.356 . S
N689 H694 0.984 . S
N689 H695 0.985 . S
C690 C684 1.379 . S
C690 C687 1.363 . S
C690 N688 1.356 . S
C691 C685 1.363 . S
C691 C686 1.379 . S
C691 N689 1.356 . S
N692 C684 1.356 . S
N692 H698 0.984 . S
N692 H699 0.984 . S
N693 C686 1.356 . S
N693 H696 0.984 . S
N693 H697 0.985 . S
H694 N689 0.984 . S
H695 N689 0.985 . S
H696 N693 0.984 . S
H697 N693 0.985 . S
H698 N692 0.984 . S
H699 N692 0.984 . S
H700 N688 0.984 . S
H701 N688 0.985 . S
C702 C703 1.363 . S
C702 C708 1.379 . S
C702 N710 1.356 1_565 S
C703 C702 1.363 . S
C703 C709 1.363 . S
C704 C705 1.363 . S
C704 C709 1.379 . S
C704 N711 1.356 . S
C705 C704 1.363 . S
C705 C708 1.363 . S
N706 C708 1.356 . S
N706 H718 0.984 1_565 S
N706 H719 0.985 . S
N707 C709 1.356 . S
N707 H712 0.984 . S
N707 H713 0.985 . S
C708 C702 1.379 . S
C708 C705 1.363 . S
C708 N706 1.356 . S
C709 C703 1.363 . S
C709 C704 1.379 . S
C709 N707 1.356 . S
N710 C702 1.356 1_545 S
N710 H716 0.984 . S
N710 H717 0.984 . S
N711 C704 1.356 . S
N711 H714 0.984 . S
N711 H715 0.985 . S
H712 N707 0.984 . S
H713 N707 0.985 . S
H714 N711 0.984 . S
H715 N711 0.985 . S
H716 N710 0.984 . S
H717 N710 0.984 . S
H718 N706 0.984 1_545 S
H719 N706 0.985 . S
C720 C721 1.363 . S
C720 C726 1.379 1_554 S
C720 N728 1.356 . S
C721 C720 1.363 . S
C721 C727 1.363 1_554 S
C722 C723 1.363 . S
C722 C727 1.379 . S
C722 N729 1.356 . S
C723 C722 1.363 . S
C723 C726 1.363 . S
N724 C726 1.356 . S
N724 H736 0.988 . S
N724 H737 0.985 . S
N725 C727 1.356 1_544 S
N725 H730 0.984 . S
N725 H731 0.985 1_554 S
C726 C720 1.379 1_556 S
C726 C723 1.363 . S
C726 N724 1.356 . S
C727 C721 1.363 1_556 S
C727 C722 1.379 . S
C727 N725 1.356 1_566 S
N728 C720 1.356 . S
N728 H734 0.984 . S
N728 H735 0.984 . S
N729 C722 1.356 . S
N729 H732 0.984 . S
N729 H733 0.985 . S
H730 N725 0.984 . S
H731 N725 0.985 1_556 S
H732 N729 0.984 . S
H733 N729 0.985 . S
H734 N728 0.984 . S
H735 N728 0.984 . S
H736 N724 0.988 . S
H737 N724 0.985 . S
C738 C739 1.363 1_556 S
C738 C744 1.379 . S
C738 N746 1.364 1_455 S
C739 C738 1.363 1_554 S
C739 C745 1.363 . S
C740 C741 1.363 . S
C740 C745 1.379 1_556 S
C740 N747 1.356 . S
C741 C740 1.363 . S
C741 C744 1.363 . S
N742 C744 1.356 . S
N742 H754 0.984 . S
N742 H755 0.985 . S
N743 C745 1.356 . S
N743 H748 0.984 . S
N743 H749 0.985 . S
C744 C738 1.379 . S
C744 C741 1.363 . S
C744 N742 1.356 . S
C745 C739 1.363 . S
C745 C740 1.379 1_554 S
C745 N743 1.356 . S
N746 C738 1.364 1_655 S
N746 H752 1.008 . S
N746 H753 0.955 1_556 S
N747 C740 1.356 . S
N747 H750 0.984 . S
N747 H751 0.985 1_556 S
H748 N743 0.984 . S
H749 N743 0.985 . S
H750 N747 0.984 . S
H751 N747 0.985 1_554 S
H752 N746 1.008 . S
H753 N746 0.955 1_554 S
H754 N742 0.984 . S
H755 N742 0.985 . S
C756 C757 1.363 . S
C756 C762 1.379 1_556 S
C756 N764 1.356 . S
C757 C756 1.363 . S
C757 C763 1.363 . S
C758 C759 1.363 . S
C758 C763 1.379 1_554 S
C758 N765 1.356 . S
C759 C758 1.363 . S
C759 C762 1.363 . S
N760 C762 1.356 . S
N760 H772 0.984 . S
N760 H773 0.985 . S
N761 C763 1.356 . S
N761 H766 0.984 . S
N761 H767 0.985 . S
C762 C756 1.379 1_554 S
C762 C759 1.363 . S
C762 N760 1.356 . S
C763 C757 1.363 . S
C763 C758 1.379 1_556 S
C763 N761 1.356 . S
N764 C756 1.356 . S
N764 H770 0.984 . S
N764 H771 0.984 . S
N765 C758 1.356 . S
N765 H768 0.984 . S
N765 H769 0.985 . S
H766 N761 0.984 . S
H767 N761 0.985 . S
H768 N765 0.984 . S
H769 N765 0.985 . S
H770 N764 0.984 . S
H771 N764 0.984 . S
H772 N760 0.984 . S
H773 N760 0.985 . S
C774 C775 1.363 . S
C774 C780 1.379 . S
C774 N782 1.356 1_655 S
C775 C774 1.363 . S
C775 C781 1.363 . S
C776 C777 1.363 . S
C776 C781 1.379 . S
C776 N783 1.356 . S
C777 C776 1.363 . S
C777 C780 1.363 . S
N778 C780 1.356 . S
N778 H790 0.998 . S
N778 H791 0.985 . S
N779 C781 1.356 . S
N779 H784 0.984 . S
N779 H785 0.985 . S
C780 C774 1.379 . S
C780 C777 1.363 . S
C780 N778 1.356 . S
C781 C775 1.363 . S
C781 C776 1.379 . S
C781 N779 1.356 . S
N782 C774 1.356 1_455 S
N782 H788 0.984 . S
N782 H789 0.984 . S
N783 C776 1.356 . S
N783 H786 0.984 . S
N783 H787 0.985 . S
H784 N779 0.984 . S
H785 N779 0.985 . S
H786 N783 0.984 . S
H787 N783 0.985 . S
H788 N782 0.984 . S
H789 N782 0.984 . S
H790 N778 0.998 . S
H791 N778 0.985 . S
C792 C793 1.363 . S
C792 C798 1.379 . S
C792 N800 1.356 . S
C793 C792 1.363 . S
C793 C799 1.363 . S
C794 C795 1.363 . S
C794 C799 1.379 . S
C794 N801 1.356 . S
C795 C794 1.363 . S
C795 C798 1.363 . S
N796 C798 1.356 . S
N796 H808 0.984 . S
N796 H809 0.985 . S
N797 C799 1.356 . S
N797 H802 0.984 . S
N797 H803 0.985 . S
C798 C792 1.379 . S
C798 C795 1.363 . S
C798 N796 1.356 . S
C799 C793 1.363 . S
C799 C794 1.379 . S
C799 N797 1.356 . S
N800 C792 1.356 . S
N800 H806 0.984 . S
N800 H807 0.984 . S
N801 C794 1.356 . S
N801 H804 0.984 . S
N801 H805 0.985 . S
H802 N797 0.984 . S
H803 N797 0.985 . S
H804 N801 0.984 . S
H805 N801 0.985 . S
H806 N800 0.984 . S
H807 N800 0.984 . S
H808 N796 0.984 . S
H809 N796 0.985 . S
C810 C811 1.363 . S
C810 C816 1.379 . S
C810 N818 1.356 . S
C811 C810 1.363 . S
C811 C817 1.363 . S
C812 C813 1.363 . S
C812 C817 1.379 . S
C812 N819 1.356 . S
C813 C812 1.363 . S
C813 C816 1.363 . S
N814 C816 1.356 1_565 S
N814 H826 0.984 . S
N814 H827 0.985 . S
N815 C817 1.356 . S
N815 H820 0.984 . S
N815 H821 0.985 . S
C816 C810 1.379 . S
C816 C813 1.363 . S
C816 N814 1.356 1_545 S
C817 C811 1.363 . S
C817 C812 1.379 . S
C817 N815 1.356 . S
N818 C810 1.356 . S
N818 H824 0.986 . S
N818 H825 0.984 . S
N819 C812 1.356 . S
N819 H822 0.984 . S
N819 H823 0.985 . S
H820 N815 0.984 . S
H821 N815 0.985 . S
H822 N819 0.984 . S
H823 N819 0.985 . S
H824 N818 0.986 . S
H825 N818 0.984 . S
H826 N814 0.984 . S
H827 N814 0.985 . S
C828 C829 1.363 . S
C828 C834 1.379 . S
C828 N836 1.356 . S
C829 C828 1.363 . S
C829 C835 1.363 . S
C830 C831 1.363 . S
C830 C835 1.379 . S
C830 N837 1.356 . S
C831 C830 1.363 . S
C831 C834 1.363 . S
N832 C834 1.356 . S
N832 H844 0.984 . S
N832 H845 0.985 . S
N833 C835 1.356 . S
N833 H838 0.984 . S
N833 H839 0.985 . S
C834 C828 1.379 . S
C834 C831 1.363 . S
C834 N832 1.356 . S
C835 C829 1.363 . S
C835 C830 1.379 . S
C835 N833 1.356 . S
N836 C828 1.356 . S
N836 H842 0.984 . S
N836 H843 0.984 . S
N837 C830 1.356 . S
N837 H840 0.984 . S
N837 H841 0.985 . S
H838 N833 0.984 . S
H839 N833 0.985 . S
H840 N837 0.984 . S
H841 N837 0.985 . S
H842 N836 0.984 . S
H843 N836 0.984 . S
H844 N832 0.984 . S
H845 N832 0.985 . S
C846 C847 1.363 . S
C846 C852 1.379 1_545 S
C846 N854 1.356 . S
C847 C846 1.363 . S
C847 C853 1.363 . S
C848 C849 1.363 . S
C848 C853 1.379 1_565 S
C848 N855 1.356 . S
C849 C848 1.363 . S
C849 C852 1.363 . S
N850 C852 1.356 . S
N850 H862 0.984 . S
N850 H863 0.985 . S
N851 C853 1.356 . S
N851 H856 0.984 . S
N851 H857 0.985 . S
C852 C846 1.379 1_565 S
C852 C849 1.363 . S
C852 N850 1.356 . S
C853 C847 1.363 . S
C853 C848 1.379 1_545 S
C853 N851 1.356 . S
N854 C846 1.356 . S
N854 H860 0.984 . S
N854 H861 0.984 . S
N855 C848 1.356 . S
N855 H858 0.984 . S
N855 H859 0.985 . S
H856 N851 0.984 . S
H857 N851 0.985 . S
H858 N855 0.984 . S
H859 N855 0.985 . S
H860 N854 0.984 . S
H861 N854 0.984 . S
H862 N850 0.984 . S
H863 N850 0.985 . S
C864 C865 1.363 . S
C864 C870 1.379 . S
C864 N872 1.356 . S
C865 C864 1.363 . S
C865 C871 1.363 1_655 S
C866 C867 1.363 . S
C866 C871 1.379 . S
C866 N873 1.356 . S
C867 C866 1.363 . S
C867 C870 1.363 1_455 S
N868 C870 1.356 1_455 S
N868 H880 0.984 1_455 S
N868 H881 0.985 . S
N869 C871 1.356 1_655 S
N869 H874 0.984 . S
N869 H875 0.985 1_655 S
C870 C864 1.379 . S
C870 C867 1.363 1_655 S
C870 N868 1.356 1_655 S
C871 C865 1.363 1_455 S
C871 C866 1.379 . S
C871 N869 1.356 1_455 S
N872 C864 1.356 . S
N872 H878 0.984 . S
N872 H879 0.984 . S
N873 C866 1.356 . S
N873 H876 0.984 . S
N873 H877 0.985 . S
H874 N869 0.984 . S
H875 N869 0.985 1_455 S
H876 N873 0.984 . S
H877 N873 0.985 . S
H878 N872 0.984 . S
H879 N872 0.984 . S
H880 N868 0.984 1_655 S
H881 N868 0.985 . S
C882 C883 1.363 . S
C882 C888 1.379 . S
C882 N890 1.356 . S
C883 C882 1.363 . S
C883 C889 1.363 . S
C884 C885 1.363 . S
C884 C889 1.379 . S
C884 N891 1.356 . S
C885 C884 1.363 . S
C885 C888 1.363 . S
N886 C888 1.356 . S
N886 H898 0.984 . S
N886 H899 0.985 . S
N887 C889 1.356 . S
N887 H892 0.984 . S
N887 H893 0.985 . S
C888 C882 1.379 . S
C888 C885 1.363 . S
C888 N886 1.356 . S
C889 C883 1.363 . S
C889 C884 1.379 . S
C889 N887 1.356 . S
N890 C882 1.356 . S
N890 H896 0.984 . S
N890 H897 0.984 . S
N891 C884 1.356 . S
N891 H894 0.984 . S
N891 H895 0.985 . S
H892 N887 0.984 . S
H893 N887 0.985 . S
H894 N891 0.984 . S
H895 N891 0.985 . S
H896 N890 0.984 . S
H897 N890 0.984 . S
H898 N886 0.984 . S
H899 N886 0.985 . S
C900 C901 1.363 . S
C900 C906 1.379 1_565 S
C900 N908 1.356 . S
C901 C900 1.363 . S
C901 C907 1.363 . S
C902 C903 1.363 . S
C902 C907 1.379 1_545 S
C902 N909 1.356 . S
C903 C902 1.363 . S
C903 C906 1.363 . S
N904 C906 1.356 . S
N904 H916 0.984 . S
N904 H917 0.985 . S
N905 C907 1.356 . S
N905 H910 0.984 . S
N905 H911 0.983 . S
C906 C900 1.379 1_545 S
C906 C903 1.363 . S
C906 N904 1.356 . S
C907 C901 1.363 . S
C907 C902 1.379 1_565 S
C907 N905 1.356 . S
N908 C900 1.356 . S
N908 H914 0.984 . S
N908 H915 0.984 . S
N909 C902 1.356 . S
N909 H912 0.984 . S
N909 H913 0.985 . S
H910 N905 0.984 . S
H911 N905 0.983 . S
H912 N909 0.984 . S
H913 N909 0.985 . S
H914 N908 0.984 . S
H915 N908 0.984 . S
H916 N904 0.984 . S
H917 N904 0.985 . S
C918 C919 1.363 . S
C918 C924 1.379 1_455 S
C918 N926 1.356 . S
C919 C918 1.363 . S
C919 C925 1.363 . S
C920 C921 1.363 . S
C920 C925 1.379 1_655 S
C920 N927 1.356 . S
C921 C920 1.363 . S
C921 C924 1.363 . S
N922 C924 1.356 . S
N922 H934 0.984 . S
N922 H935 0.985 . S
N923 C925 1.356 . S
N923 H928 0.984 . S
N923 H929 0.985 . S
C924 C918 1.379 1_655 S
C924 C921 1.363 . S
C924 N922 1.356 . S
C925 C919 1.363 . S
C925 C920 1.379 1_455 S
C925 N923 1.356 . S
N926 C918 1.356 . S
N926 H932 0.984 . S
N926 H933 0.984 . S
N927 C920 1.356 . S
N927 H930 0.984 . S
N927 H931 0.985 . S
H928 N923 0.984 . S
H929 N923 0.985 . S
H930 N927 0.984 . S
H931 N927 0.985 . S
H932 N926 0.984 . S
H933 N926 0.984 . S
H934 N922 0.984 . S
H935 N922 0.985 . S
C397 C40 1.687 . S
C399 N2 1.565 . S
C415 N35 1.565 . S
C417 C73 1.687 . S
C433 N68 1.565 . S
C435 C7 1.687 . S
C451 N101 1.565 . S
C453 C172 1.687 . S
C469 N134 1.565 . S
C471 C106 1.687 . S
C487 C139 1.687 . S
C489 N167 1.565 . S
C505 C238 1.687 . S
C507 N200 1.565 . S
C523 C271 1.687 . S
C525 N233 1.565 . S
C541 C205 1.687 . S
C543 N266 1.565 . S
C559 N299 1.565 . S
C561 C370 1.687 . S
C577 C304 1.687 . S
C579 N332 1.565 . S
C595 N365 1.565 . S
C597 C337 1.687 . S
C613 C18 1.393 . S
C615 N244 1.374 1_545 S
C631 C51 1.393 . S
C633 N277 1.375 1_655 S
C649 C84 1.393 . S
C651 N211 1.374 . S
C667 N376 1.374 1_455 S
C669 C117 1.393 . S
C685 C150 1.393 . S
C687 N310 1.374 . S
C703 N343 1.375 1_565 S
C705 C183 1.393 . S
C721 N46 1.374 1_565 S
C723 C216 1.393 . S
C739 N79 1.375 1_455 S
C741 C249 1.393 . S
C757 C282 1.393 . S
C759 N13 1.374 . S
C775 N178 1.374 1_655 S
C777 C315 1.393 . S
C793 C348 1.393 . S
C795 N112 1.375 . S
C811 C381 1.393 . S
C813 N145 1.375 1_545 S
C829 C120 1.483 . S
C831 C21 1.483 . S
C847 C54 1.483 . S
C849 C153 1.483 . S
C865 C87 1.483 . S
C867 C186 1.483 . S
C883 C318 1.483 . S
C885 C219 1.483 . S
C901 C252 1.483 . S
C903 C351 1.483 . S
C919 C285 1.483 . S
C921 C384 1.483 . S
