# Generated by pormake.
# Topology twf-e, (6)-cn, num edge types: 1
# Building blocks:
#     Node 0, Type 0, BuildingBlock: BETDEL_clean_sbu_0, # of connection points: 6
#     Node 1, Type 0, BuildingBlock: BETDEL_clean_sbu_0, # of connection points: 6
#     Node 2, Type 0, BuildingBlock: BETDEL_clean_sbu_0, # of connection points: 6
#     Node 3, Type 0, BuildingBlock: BETDEL_clean_sbu_0, # of connection points: 6
#     Node 4, Type 0, BuildingBlock: BETDEL_clean_sbu_0, # of connection points: 6
#     Node 5, Type 0, BuildingBlock: BETDEL_clean_sbu_0, # of connection points: 6
#     Node 6, Type 0, BuildingBlock: BETDEL_clean_sbu_0, # of connection points: 6
#     Node 7, Type 0, BuildingBlock: BETDEL_clean_sbu_0, # of connection points: 6
#     Node 8, Type 0, BuildingBlock: BETDEL_clean_sbu_0, # of connection points: 6
#     Node 9, Type 0, BuildingBlock: BETDEL_clean_sbu_0, # of connection points: 6
#     Node 10, Type 0, BuildingBlock: BETDEL_clean_sbu_0, # of connection points: 6
#     Node 11, Type 0, BuildingBlock: BETDEL_clean_sbu_0, # of connection points: 6
#     Node 12, Type 0, BuildingBlock: BETDEL_clean_sbu_0, # of connection points: 6
#     Node 13, Type 0, BuildingBlock: BETDEL_clean_sbu_0, # of connection points: 6
#     Node 14, Type 0, BuildingBlock: BETDEL_clean_sbu_0, # of connection points: 6
#     Node 15, Type 0, BuildingBlock: BETDEL_clean_sbu_0, # of connection points: 6
#     Node 16, Type 0, BuildingBlock: BETDEL_clean_sbu_0, # of connection points: 6
#     Node 17, Type 0, BuildingBlock: BETDEL_clean_sbu_0, # of connection points: 6
#     Node 18, Type 0, BuildingBlock: BETDEL_clean_sbu_0, # of connection points: 6
#     Node 19, Type 0, BuildingBlock: BETDEL_clean_sbu_0, # of connection points: 6
#     Node 20, Type 0, BuildingBlock: BETDEL_clean_sbu_0, # of connection points: 6
#     Node 21, Type 0, BuildingBlock: BETDEL_clean_sbu_0, # of connection points: 6
#     Node 22, Type 0, BuildingBlock: BETDEL_clean_sbu_0, # of connection points: 6
#     Node 23, Type 0, BuildingBlock: BETDEL_clean_sbu_0, # of connection points: 6
#     Node 24, Type 0, BuildingBlock: BETDEL_clean_sbu_0, # of connection points: 6
#     Node 25, Type 0, BuildingBlock: BETDEL_clean_sbu_0, # of connection points: 6
#     Node 26, Type 0, BuildingBlock: BETDEL_clean_sbu_0, # of connection points: 6
#     Node 27, Type 0, BuildingBlock: BETDEL_clean_sbu_0, # of connection points: 6
#     Node 28, Type 0, BuildingBlock: BETDEL_clean_sbu_0, # of connection points: 6
#     Node 29, Type 0, BuildingBlock: BETDEL_clean_sbu_0, # of connection points: 6
#     Node 30, Type 0, BuildingBlock: BETDEL_clean_sbu_0, # of connection points: 6
#     Node 31, Type 0, BuildingBlock: BETDEL_clean_sbu_0, # of connection points: 6
#     Node 32, Type 0, BuildingBlock: BETDEL_clean_sbu_0, # of connection points: 6
#     Node 33, Type 0, BuildingBlock: BETDEL_clean_sbu_0, # of connection points: 6
#     Node 34, Type 0, BuildingBlock: BETDEL_clean_sbu_0, # of connection points: 6
#     Node 35, Type 0, BuildingBlock: BETDEL_clean_sbu_0, # of connection points: 6
#     Node 36, Type 0, BuildingBlock: BETDEL_clean_sbu_0, # of connection points: 6
#     Node 37, Type 0, BuildingBlock: BETDEL_clean_sbu_0, # of connection points: 6
#     Node 38, Type 0, BuildingBlock: BETDEL_clean_sbu_0, # of connection points: 6
#     Node 39, Type 0, BuildingBlock: BETDEL_clean_sbu_0, # of connection points: 6
#     Node 40, Type 0, BuildingBlock: BETDEL_clean_sbu_0, # of connection points: 6
#     Node 41, Type 0, BuildingBlock: BETDEL_clean_sbu_0, # of connection points: 6
#     Node 42, Type 0, BuildingBlock: BETDEL_clean_sbu_0, # of connection points: 6
#     Node 43, Type 0, BuildingBlock: BETDEL_clean_sbu_0, # of connection points: 6
#     Node 44, Type 0, BuildingBlock: BETDEL_clean_sbu_0, # of connection points: 6
#     Node 45, Type 0, BuildingBlock: BETDEL_clean_sbu_0, # of connection points: 6
#     Node 46, Type 0, BuildingBlock: BETDEL_clean_sbu_0, # of connection points: 6
#     Node 47, Type 0, BuildingBlock: BETDEL_clean_sbu_0, # of connection points: 6
#     Edge 48, Type (0, 0), BuildingBlock: CIFDUS_clean_linker_0, # of connection points: 2
#     Edge 49, Type (0, 0), BuildingBlock: CIFDUS_clean_linker_0, # of connection points: 2
#     Edge 50, Type (0, 0), BuildingBlock: CIFDUS_clean_linker_0, # of connection points: 2
#     Edge 51, Type (0, 0), BuildingBlock: CIFDUS_clean_linker_0, # of connection points: 2
#     Edge 52, Type (0, 0), BuildingBlock: CIFDUS_clean_linker_0, # of connection points: 2
#     Edge 53, Type (0, 0), BuildingBlock: CIFDUS_clean_linker_0, # of connection points: 2
#     Edge 54, Type (0, 0), BuildingBlock: CIFDUS_clean_linker_0, # of connection points: 2
#     Edge 55, Type (0, 0), BuildingBlock: CIFDUS_clean_linker_0, # of connection points: 2
#     Edge 56, Type (0, 0), BuildingBlock: CIFDUS_clean_linker_0, # of connection points: 2
#     Edge 57, Type (0, 0), BuildingBlock: CIFDUS_clean_linker_0, # of connection points: 2
#     Edge 58, Type (0, 0), BuildingBlock: CIFDUS_clean_linker_0, # of connection points: 2
#     Edge 59, Type (0, 0), BuildingBlock: CIFDUS_clean_linker_0, # of connection points: 2
#     Edge 60, Type (0, 0), BuildingBlock: CIFDUS_clean_linker_0, # of connection points: 2
#     Edge 61, Type (0, 0), BuildingBlock: CIFDUS_clean_linker_0, # of connection points: 2
#     Edge 62, Type (0, 0), BuildingBlock: CIFDUS_clean_linker_0, # of connection points: 2
#     Edge 63, Type (0, 0), BuildingBlock: CIFDUS_clean_linker_0, # of connection points: 2
#     Edge 64, Type (0, 0), BuildingBlock: CIFDUS_clean_linker_0, # of connection points: 2
#     Edge 65, Type (0, 0), BuildingBlock: CIFDUS_clean_linker_0, # of connection points: 2
#     Edge 66, Type (0, 0), BuildingBlock: CIFDUS_clean_linker_0, # of connection points: 2
#     Edge 67, Type (0, 0), BuildingBlock: CIFDUS_clean_linker_0, # of connection points: 2
#     Edge 68, Type (0, 0), BuildingBlock: CIFDUS_clean_linker_0, # of connection points: 2
#     Edge 69, Type (0, 0), BuildingBlock: CIFDUS_clean_linker_0, # of connection points: 2
#     Edge 70, Type (0, 0), BuildingBlock: CIFDUS_clean_linker_0, # of connection points: 2
#     Edge 71, Type (0, 0), BuildingBlock: CIFDUS_clean_linker_0, # of connection points: 2
#     Edge 72, Type (0, 0), BuildingBlock: CIFDUS_clean_linker_0, # of connection points: 2
#     Edge 73, Type (0, 0), BuildingBlock: CIFDUS_clean_linker_0, # of connection points: 2
#     Edge 74, Type (0, 0), BuildingBlock: CIFDUS_clean_linker_0, # of connection points: 2
#     Edge 75, Type (0, 0), BuildingBlock: CIFDUS_clean_linker_0, # of connection points: 2
#     Edge 76, Type (0, 0), BuildingBlock: CIFDUS_clean_linker_0, # of connection points: 2
#     Edge 77, Type (0, 0), BuildingBlock: CIFDUS_clean_linker_0, # of connection points: 2
#     Edge 78, Type (0, 0), BuildingBlock: CIFDUS_clean_linker_0, # of connection points: 2
#     Edge 79, Type (0, 0), BuildingBlock: CIFDUS_clean_linker_0, # of connection points: 2
#     Edge 80, Type (0, 0), BuildingBlock: CIFDUS_clean_linker_0, # of connection points: 2
#     Edge 81, Type (0, 0), BuildingBlock: CIFDUS_clean_linker_0, # of connection points: 2
#     Edge 82, Type (0, 0), BuildingBlock: CIFDUS_clean_linker_0, # of connection points: 2
#     Edge 83, Type (0, 0), BuildingBlock: CIFDUS_clean_linker_0, # of connection points: 2
#     Edge 84, Type (0, 0), BuildingBlock: CIFDUS_clean_linker_0, # of connection points: 2
#     Edge 85, Type (0, 0), BuildingBlock: CIFDUS_clean_linker_0, # of connection points: 2
#     Edge 86, Type (0, 0), BuildingBlock: CIFDUS_clean_linker_0, # of connection points: 2
#     Edge 87, Type (0, 0), BuildingBlock: CIFDUS_clean_linker_0, # of connection points: 2
#     Edge 88, Type (0, 0), BuildingBlock: CIFDUS_clean_linker_0, # of connection points: 2
#     Edge 89, Type (0, 0), BuildingBlock: CIFDUS_clean_linker_0, # of connection points: 2
#     Edge 90, Type (0, 0), BuildingBlock: CIFDUS_clean_linker_0, # of connection points: 2
#     Edge 91, Type (0, 0), BuildingBlock: CIFDUS_clean_linker_0, # of connection points: 2
#     Edge 92, Type (0, 0), BuildingBlock: CIFDUS_clean_linker_0, # of connection points: 2
#     Edge 93, Type (0, 0), BuildingBlock: CIFDUS_clean_linker_0, # of connection points: 2
#     Edge 94, Type (0, 0), BuildingBlock: CIFDUS_clean_linker_0, # of connection points: 2
#     Edge 95, Type (0, 0), BuildingBlock: CIFDUS_clean_linker_0, # of connection points: 2
#     Edge 96, Type (0, 0), BuildingBlock: CIFDUS_clean_linker_0, # of connection points: 2
#     Edge 97, Type (0, 0), BuildingBlock: CIFDUS_clean_linker_0, # of connection points: 2
#     Edge 98, Type (0, 0), BuildingBlock: CIFDUS_clean_linker_0, # of connection points: 2
#     Edge 99, Type (0, 0), BuildingBlock: CIFDUS_clean_linker_0, # of connection points: 2
#     Edge 100, Type (0, 0), BuildingBlock: CIFDUS_clean_linker_0, # of connection points: 2
#     Edge 101, Type (0, 0), BuildingBlock: CIFDUS_clean_linker_0, # of connection points: 2
#     Edge 102, Type (0, 0), BuildingBlock: CIFDUS_clean_linker_0, # of connection points: 2
#     Edge 103, Type (0, 0), BuildingBlock: CIFDUS_clean_linker_0, # of connection points: 2
#     Edge 104, Type (0, 0), BuildingBlock: CIFDUS_clean_linker_0, # of connection points: 2
#     Edge 105, Type (0, 0), BuildingBlock: CIFDUS_clean_linker_0, # of connection points: 2
#     Edge 106, Type (0, 0), BuildingBlock: CIFDUS_clean_linker_0, # of connection points: 2
#     Edge 107, Type (0, 0), BuildingBlock: CIFDUS_clean_linker_0, # of connection points: 2
#     Edge 108, Type (0, 0), BuildingBlock: CIFDUS_clean_linker_0, # of connection points: 2
#     Edge 109, Type (0, 0), BuildingBlock: CIFDUS_clean_linker_0, # of connection points: 2
#     Edge 110, Type (0, 0), BuildingBlock: CIFDUS_clean_linker_0, # of connection points: 2
#     Edge 111, Type (0, 0), BuildingBlock: CIFDUS_clean_linker_0, # of connection points: 2
#     Edge 112, Type (0, 0), BuildingBlock: CIFDUS_clean_linker_0, # of connection points: 2
#     Edge 113, Type (0, 0), BuildingBlock: CIFDUS_clean_linker_0, # of connection points: 2
#     Edge 114, Type (0, 0), BuildingBlock: CIFDUS_clean_linker_0, # of connection points: 2
#     Edge 115, Type (0, 0), BuildingBlock: CIFDUS_clean_linker_0, # of connection points: 2
#     Edge 116, Type (0, 0), BuildingBlock: CIFDUS_clean_linker_0, # of connection points: 2
#     Edge 117, Type (0, 0), BuildingBlock: CIFDUS_clean_linker_0, # of connection points: 2
#     Edge 118, Type (0, 0), BuildingBlock: CIFDUS_clean_linker_0, # of connection points: 2
#     Edge 119, Type (0, 0), BuildingBlock: CIFDUS_clean_linker_0, # of connection points: 2
#     Edge 120, Type (0, 0), BuildingBlock: CIFDUS_clean_linker_0, # of connection points: 2
#     Edge 121, Type (0, 0), BuildingBlock: CIFDUS_clean_linker_0, # of connection points: 2
#     Edge 122, Type (0, 0), BuildingBlock: CIFDUS_clean_linker_0, # of connection points: 2
#     Edge 123, Type (0, 0), BuildingBlock: CIFDUS_clean_linker_0, # of connection points: 2
#     Edge 124, Type (0, 0), BuildingBlock: CIFDUS_clean_linker_0, # of connection points: 2
#     Edge 125, Type (0, 0), BuildingBlock: CIFDUS_clean_linker_0, # of connection points: 2
#     Edge 126, Type (0, 0), BuildingBlock: CIFDUS_clean_linker_0, # of connection points: 2
#     Edge 127, Type (0, 0), BuildingBlock: CIFDUS_clean_linker_0, # of connection points: 2
#     Edge 128, Type (0, 0), BuildingBlock: CIFDUS_clean_linker_0, # of connection points: 2
#     Edge 129, Type (0, 0), BuildingBlock: CIFDUS_clean_linker_0, # of connection points: 2
#     Edge 130, Type (0, 0), BuildingBlock: CIFDUS_clean_linker_0, # of connection points: 2
#     Edge 131, Type (0, 0), BuildingBlock: CIFDUS_clean_linker_0, # of connection points: 2
#     Edge 132, Type (0, 0), BuildingBlock: CIFDUS_clean_linker_0, # of connection points: 2
#     Edge 133, Type (0, 0), BuildingBlock: CIFDUS_clean_linker_0, # of connection points: 2
#     Edge 134, Type (0, 0), BuildingBlock: CIFDUS_clean_linker_0, # of connection points: 2
#     Edge 135, Type (0, 0), BuildingBlock: CIFDUS_clean_linker_0, # of connection points: 2
#     Edge 136, Type (0, 0), BuildingBlock: CIFDUS_clean_linker_0, # of connection points: 2
#     Edge 137, Type (0, 0), BuildingBlock: CIFDUS_clean_linker_0, # of connection points: 2
#     Edge 138, Type (0, 0), BuildingBlock: CIFDUS_clean_linker_0, # of connection points: 2
#     Edge 139, Type (0, 0), BuildingBlock: CIFDUS_clean_linker_0, # of connection points: 2
#     Edge 140, Type (0, 0), BuildingBlock: CIFDUS_clean_linker_0, # of connection points: 2
#     Edge 141, Type (0, 0), BuildingBlock: CIFDUS_clean_linker_0, # of connection points: 2
#     Edge 142, Type (0, 0), BuildingBlock: CIFDUS_clean_linker_0, # of connection points: 2
#     Edge 143, Type (0, 0), BuildingBlock: CIFDUS_clean_linker_0, # of connection points: 2
#     Edge 144, Type (0, 0), BuildingBlock: CIFDUS_clean_linker_0, # of connection points: 2
#     Edge 145, Type (0, 0), BuildingBlock: CIFDUS_clean_linker_0, # of connection points: 2
#     Edge 146, Type (0, 0), BuildingBlock: CIFDUS_clean_linker_0, # of connection points: 2
#     Edge 147, Type (0, 0), BuildingBlock: CIFDUS_clean_linker_0, # of connection points: 2
#     Edge 148, Type (0, 0), BuildingBlock: CIFDUS_clean_linker_0, # of connection points: 2
#     Edge 149, Type (0, 0), BuildingBlock: CIFDUS_clean_linker_0, # of connection points: 2
#     Edge 150, Type (0, 0), BuildingBlock: CIFDUS_clean_linker_0, # of connection points: 2
#     Edge 151, Type (0, 0), BuildingBlock: CIFDUS_clean_linker_0, # of connection points: 2
#     Edge 152, Type (0, 0), BuildingBlock: CIFDUS_clean_linker_0, # of connection points: 2
#     Edge 153, Type (0, 0), BuildingBlock: CIFDUS_clean_linker_0, # of connection points: 2
#     Edge 154, Type (0, 0), BuildingBlock: CIFDUS_clean_linker_0, # of connection points: 2
#     Edge 155, Type (0, 0), BuildingBlock: CIFDUS_clean_linker_0, # of connection points: 2
#     Edge 156, Type (0, 0), BuildingBlock: CIFDUS_clean_linker_0, # of connection points: 2
#     Edge 157, Type (0, 0), BuildingBlock: CIFDUS_clean_linker_0, # of connection points: 2
#     Edge 158, Type (0, 0), BuildingBlock: CIFDUS_clean_linker_0, # of connection points: 2
#     Edge 159, Type (0, 0), BuildingBlock: CIFDUS_clean_linker_0, # of connection points: 2
#     Edge 160, Type (0, 0), BuildingBlock: CIFDUS_clean_linker_0, # of connection points: 2
#     Edge 161, Type (0, 0), BuildingBlock: CIFDUS_clean_linker_0, # of connection points: 2
#     Edge 162, Type (0, 0), BuildingBlock: CIFDUS_clean_linker_0, # of connection points: 2
#     Edge 163, Type (0, 0), BuildingBlock: CIFDUS_clean_linker_0, # of connection points: 2
#     Edge 164, Type (0, 0), BuildingBlock: CIFDUS_clean_linker_0, # of connection points: 2
#     Edge 165, Type (0, 0), BuildingBlock: CIFDUS_clean_linker_0, # of connection points: 2
#     Edge 166, Type (0, 0), BuildingBlock: CIFDUS_clean_linker_0, # of connection points: 2
#     Edge 167, Type (0, 0), BuildingBlock: CIFDUS_clean_linker_0, # of connection points: 2
#     Edge 168, Type (0, 0), BuildingBlock: CIFDUS_clean_linker_0, # of connection points: 2
#     Edge 169, Type (0, 0), BuildingBlock: CIFDUS_clean_linker_0, # of connection points: 2
#     Edge 170, Type (0, 0), BuildingBlock: CIFDUS_clean_linker_0, # of connection points: 2
#     Edge 171, Type (0, 0), BuildingBlock: CIFDUS_clean_linker_0, # of connection points: 2
#     Edge 172, Type (0, 0), BuildingBlock: CIFDUS_clean_linker_0, # of connection points: 2
#     Edge 173, Type (0, 0), BuildingBlock: CIFDUS_clean_linker_0, # of connection points: 2
#     Edge 174, Type (0, 0), BuildingBlock: CIFDUS_clean_linker_0, # of connection points: 2
#     Edge 175, Type (0, 0), BuildingBlock: CIFDUS_clean_linker_0, # of connection points: 2
#     Edge 176, Type (0, 0), BuildingBlock: CIFDUS_clean_linker_0, # of connection points: 2
#     Edge 177, Type (0, 0), BuildingBlock: CIFDUS_clean_linker_0, # of connection points: 2
#     Edge 178, Type (0, 0), BuildingBlock: CIFDUS_clean_linker_0, # of connection points: 2
#     Edge 179, Type (0, 0), BuildingBlock: CIFDUS_clean_linker_0, # of connection points: 2
#     Edge 180, Type (0, 0), BuildingBlock: CIFDUS_clean_linker_0, # of connection points: 2
#     Edge 181, Type (0, 0), BuildingBlock: CIFDUS_clean_linker_0, # of connection points: 2
#     Edge 182, Type (0, 0), BuildingBlock: CIFDUS_clean_linker_0, # of connection points: 2
#     Edge 183, Type (0, 0), BuildingBlock: CIFDUS_clean_linker_0, # of connection points: 2
#     Edge 184, Type (0, 0), BuildingBlock: CIFDUS_clean_linker_0, # of connection points: 2
#     Edge 185, Type (0, 0), BuildingBlock: CIFDUS_clean_linker_0, # of connection points: 2
#     Edge 186, Type (0, 0), BuildingBlock: CIFDUS_clean_linker_0, # of connection points: 2
#     Edge 187, Type (0, 0), BuildingBlock: CIFDUS_clean_linker_0, # of connection points: 2
#     Edge 188, Type (0, 0), BuildingBlock: CIFDUS_clean_linker_0, # of connection points: 2
#     Edge 189, Type (0, 0), BuildingBlock: CIFDUS_clean_linker_0, # of connection points: 2
#     Edge 190, Type (0, 0), BuildingBlock: CIFDUS_clean_linker_0, # of connection points: 2
#     Edge 191, Type (0, 0), BuildingBlock: CIFDUS_clean_linker_0, # of connection points: 2
# Relax obj value: 0.637
# Max RMSD: 0.225
# Mean RMSD: 0.212
data_MOF--net-twf-e--node1-BETDEL_clean_sbu_0--edge1-CIFDUS_clean_linker_0
_symmetry_space_group_name_H-M    P1
_symmetry_Int_Tables_number       1
_symmetry_cell_setting            triclinic
loop_
_symmetry_equiv_pos_as_xyz
'x, y, z'
_cell_length_a     53.072591
_cell_length_b     52.992342
_cell_length_c     52.971312
_cell_angle_alpha  89.062874
_cell_angle_beta   90.046289
_cell_angle_gamma 90.487495
loop_
_atom_site_label
_atom_site_type_symbol
_atom_site_fract_x
_atom_site_fract_y
_atom_site_fract_z
_atom_type_partial_charge
Dy0 Dy 0.03649 0.2074 0.3946 0.0
C1 C 0.07423 0.28926 0.42935 0.0
C2 C 1.01248 0.16343 0.38049 0.0
Dy3 Dy 0.0599 0.24824 0.40254 0.0
O4 O 0.0136 0.18418 0.36734 0.0
O5 O 0.02524 0.16642 0.40106 0.0
O6 O 0.02131 0.207 0.43533 0.0
O7 O 0.05865 0.21657 0.43005 0.0
C8 C 0.04175 0.2135 0.44697 0.0
C9 C 0.05228 0.25237 0.35222 0.0
O10 O 0.09353 0.22221 0.40398 0.0
O11 O 0.07321 0.19378 0.38 0.0
O12 O 0.08913 0.27537 0.41616 0.0
O13 O 0.05164 0.28418 0.42195 0.0
O14 O 0.07308 0.2579 0.36367 0.0
O15 O 0.03676 0.24217 0.36815 0.0
O16 O 1.00128 0.22813 0.39256 0.0
O17 O 0.02066 0.25724 0.41649 0.0
C18 C 0.0942 0.20156 0.39045 0.0
C19 C 0.99986 0.24779 0.40672 0.0
Dy20 Dy 0.86651 0.01715 0.40866 0.0
C21 C 0.83705 0.11083 0.40421 0.0
C22 C 0.89703 0.97564 0.39982 0.0
Dy23 Dy 0.84681 0.0603 0.4052 0.0
O24 O 0.88068 0.97728 0.41794 0.0
O25 O 0.89585 0.99618 0.38628 0.0
O26 O 0.85572 1.01083 0.44967 0.0
O27 O 0.86819 0.04699 0.43891 0.0
C28 C 0.86012 0.03349 0.4576 0.0
C29 C 0.82362 0.03866 0.36609 0.0
O30 O 0.88402 0.07199 0.38924 0.0
O31 O 0.9032 0.03817 0.40627 0.0
O32 O 0.84516 0.09791 0.38553 0.0
O33 O 0.83379 0.0958 0.42362 0.0
O34 O 0.81384 0.05481 0.38117 0.0
O35 O 0.84679 0.03321 0.37279 0.0
O36 O 0.82775 1.00305 0.40588 0.0
O37 O 0.81551 0.03899 0.4248 0.0
C38 C 0.90477 0.06029 0.39513 0.0
C39 C 0.81051 0.01565 0.41791 0.0
Dy40 Dy 0.05871 0.85586 0.40776 0.0
C41 C 0.03649 0.77403 0.43537 0.0
C42 C 0.0917 0.89631 0.40896 0.0
Dy43 Dy 0.0401 0.82073 0.41314 0.0
O44 O 0.09477 0.87427 0.41906 0.0
O45 O 0.06965 0.89697 0.39802 0.0
O46 O 0.07571 0.84561 0.44692 0.0
O47 O 0.0376 0.84655 0.44467 0.0
C48 C 0.05541 0.84507 0.46042 0.0
C49 C 0.03517 0.815 0.36395 0.0
O50 O 1.00489 0.84525 0.41724 0.0
O51 O 0.02464 0.87769 0.39798 0.0
O52 O 0.02107 0.78338 0.41874 0.0
O53 O 0.053 0.79106 0.44101 0.0
O54 O 0.01805 0.80882 0.38039 0.0
O55 O 0.05314 0.82822 0.37404 0.0
O56 O 0.08951 0.84222 0.38416 0.0
O57 O 0.08179 0.81065 0.41069 0.0
C58 C 1.00367 0.86814 0.40692 0.0
C59 C 0.0971 0.82135 0.39412 0.0
Dy60 Dy 0.23075 0.05268 0.39324 0.0
C61 C 0.27928 0.98097 0.43104 0.0
C62 C 0.19719 0.09156 0.38337 0.0
Dy63 Dy 0.25707 0.01432 0.3993 0.0
O64 O 0.21799 0.09359 0.39605 0.0
O65 O 0.19516 0.06855 0.3757 0.0
O66 O 0.24346 0.06679 0.43177 0.0
O67 O 0.23222 0.02962 0.42934 0.0
C68 C 0.23908 0.04644 0.44498 0.0
C69 C 0.26605 0.01793 0.34952 0.0
O70 O 0.22122 0.99223 0.39717 0.0
O71 O 0.19809 0.02643 0.38665 0.0
O72 O 0.26593 0.97499 0.41144 0.0
O73 O 0.28424 1.00499 0.42982 0.0
O74 O 0.2713 0.99856 0.36383 0.0
O75 O 0.25328 0.03484 0.36149 0.0
O76 O 0.26563 0.06815 0.37553 0.0
O77 O 0.28898 0.04232 0.40004 0.0
C78 C 0.19946 1.00208 0.39107 0.0
C79 C 0.28786 0.06171 0.38435 0.0
Dy80 Dy 0.01888 0.84629 0.66612 0.0
C81 C 0.08243 0.77488 0.66511 0.0
C82 C 0.9819 0.88197 0.67087 0.0
Dy83 Dy 0.05128 0.816 0.66759 0.0
O84 O 0.98136 0.86289 0.65608 0.0
O85 O 1.00301 0.88199 0.68323 0.0
O86 O 1.00697 0.83934 0.62599 0.0
O87 O 0.04552 0.8397 0.63257 0.0
C88 C 0.02871 0.83742 0.61533 0.0
C89 C 0.03829 0.8175 0.71714 0.0
O90 O 0.07826 0.84845 0.6609 0.0
O91 O 0.0491 0.87424 0.6765 0.0
O92 O 0.08919 0.79783 0.66988 0.0
O93 O 0.05827 0.77489 0.66188 0.0
O94 O 0.06058 0.82162 0.70829 0.0
O95 O 0.02293 0.81832 0.69865 0.0
O96 O 0.99378 0.81406 0.67511 0.0
O97 O 0.02014 0.79225 0.65126 0.0
C98 C 0.07241 0.87085 0.66918 0.0
C99 C 0.99771 0.79433 0.66134 0.0
Dy100 Dy 0.22062 1.01223 0.65217 0.0
C101 C 0.2823 0.08785 0.64029 0.0
C102 C 0.18564 0.97291 0.65607 0.0
Dy103 Dy 0.25128 0.04824 0.65231 0.0
O104 O 0.20796 0.97174 0.64638 0.0
O105 O 0.18227 0.99575 0.66382 0.0
O106 O 0.23121 1.00147 0.61221 0.0
O107 O 0.22739 0.03935 0.61874 0.0
C108 C 0.23212 0.0235 0.6014 0.0
C109 C 0.24886 0.0393 0.70251 0.0
O110 O 0.21597 0.07146 0.64841 0.0
O111 O 0.19172 0.03985 0.66405 0.0
O112 O 0.27004 0.08478 0.66108 0.0
O113 O 0.28157 0.06638 0.6288 0.0
O114 O 0.24819 0.06136 0.69186 0.0
O115 O 0.24588 0.02226 0.68566 0.0
O116 O 0.25275 0.991 0.66775 0.0
O117 O 0.28073 0.01767 0.6494 0.0
C118 C 0.19417 0.06365 0.65753 0.0
C119 C 0.276 0.99588 0.66075 0.0
Dy120 Dy 0.05376 0.21032 0.65633 0.0
C121 C 0.99896 0.2855 0.63206 0.0
C122 C 0.09128 0.17442 0.65922 0.0
Dy123 Dy 0.02521 0.24514 0.65119 0.0
O124 O 0.09321 0.19707 0.65014 0.0
O125 O 0.06828 0.17088 0.66732 0.0
O126 O 0.06738 0.21716 0.6153 0.0
O127 O 0.02936 0.21709 0.6214 0.0
C128 C 0.04584 0.21832 0.60405 0.0
C129 C 0.02469 0.24402 0.70165 0.0
O130 O 0.99573 0.21427 0.65 0.0
O131 O 0.02155 0.18544 0.66817 0.0
O132 O 0.99747 0.27627 0.65469 0.0
O133 O 0.01703 0.27385 0.62082 0.0
O134 O 1.00492 0.24481 0.68741 0.0
O135 O 0.0444 0.23897 0.68815 0.0
O136 O 0.08088 0.23657 0.67335 0.0
O137 O 0.06241 0.26611 0.64918 0.0
C138 C 0.99884 0.19189 0.66078 0.0
C139 C 0.08162 0.25898 0.66315 0.0
Dy140 Dy 0.83701 0.07643 0.66125 0.0
C141 C 0.88741 0.99723 0.68016 0.0
C142 C 0.83269 0.1245 0.64226 0.0
Dy143 Dy 0.85738 0.03682 0.66491 0.0
O144 O 0.85309 0.11154 0.64342 0.0
O145 O 0.81443 0.11104 0.65197 0.0
O146 O 0.80562 0.07602 0.68911 0.0
O147 O 0.83833 0.05439 0.69841 0.0
C148 C 0.81562 0.06022 0.70511 0.0
C149 C 0.85093 0.04033 0.61358 0.0
O150 O 0.81802 0.02296 0.66873 0.0
O151 O 0.80781 0.05405 0.64167 0.0
O152 O 0.86799 0.99562 0.66551 0.0
O153 O 0.89012 0.02039 0.68701 0.0
O154 O 0.84879 0.02012 0.62744 0.0
O155 O 0.85688 0.05891 0.62789 0.0
O156 O 0.87049 0.09289 0.68031 0.0
O157 O 0.89248 0.06136 0.66414 0.0
C158 C 0.80209 0.03222 0.65218 0.0
C159 C 0.89235 0.08379 0.6742 0.0
Dy160 Dy 0.41544 1.0043 0.19415 0.0
C161 C 0.44291 0.03208 0.27876 0.0
C162 C 0.41191 0.97781 0.15003 0.0
Dy163 Dy 0.42014 0.02197 0.2333 0.0
O164 O 0.42091 0.96957 0.17121 0.0
O165 O 0.40529 1.00126 0.15244 0.0
O166 O 0.45673 0.9906 0.20054 0.0
O167 O 0.44945 0.02782 0.20517 0.0
C168 C 0.46726 1.01231 0.20444 0.0
C169 C 0.3704 0.0231 0.23578 0.0
O170 O 0.41949 0.05913 0.21048 0.0
O171 O 0.40206 0.03992 0.17698 0.0
O172 O 0.41903 0.03272 0.27377 0.0
O173 O 0.45368 0.02296 0.25907 0.0
O174 O 0.38498 0.04164 0.24237 0.0
O175 O 0.38295 1.00604 0.2238 0.0
O176 O 0.39602 0.97135 0.20974 0.0
O177 O 0.42169 0.97975 0.2418 0.0
C178 C 0.40894 0.06086 0.1878 0.0
C179 C 0.40674 0.96375 0.23023 0.0
Dy180 Dy 0.06184 0.40688 0.20376 0.0
C181 C 1.00064 0.43247 0.27333 0.0
C182 C 0.09319 0.39822 0.16349 0.0
Dy183 Dy 0.0306 0.41105 0.23816 0.0
O184 O 0.09928 0.4102 0.1837 0.0
O185 O 0.06995 0.39073 0.16529 0.0
O186 O 0.07816 0.44587 0.21024 0.0
O187 O 0.03939 0.44229 0.21099 0.0
C188 C 0.05749 0.4582 0.2129 0.0
C189 C 0.03605 0.3604 0.24078 0.0
O190 O 1.00214 0.41337 0.20662 0.0
O191 O 0.02918 0.39669 0.17888 0.0
O192 O 0.99817 0.40996 0.26453 0.0
O193 O 0.02182 0.44177 0.26518 0.0
O194 O 0.01507 0.37221 0.24404 0.0
O195 O 0.05312 0.37574 0.23236 0.0
O196 O 0.08736 0.3927 0.23389 0.0
O197 O 0.06464 0.41319 0.26304 0.0
C198 C 1.00633 0.40408 0.18418 0.0
C199 C 0.0851 0.40095 0.25697 0.0
Dy200 Dy 0.67131 0.05078 0.21619 0.0
C201 C 0.64963 0.97345 0.27573 0.0
C202 C 0.67861 0.09239 0.18455 0.0
Dy203 Dy 0.66956 1.01109 0.2462 0.0
O204 O 0.6597 0.08856 0.19949 0.0
O205 O 0.69382 0.07336 0.18681 0.0
O206 O 0.62881 0.05633 0.21779 0.0
O207 O 0.64169 0.01975 0.21619 0.0
C208 C 0.62177 0.03297 0.21792 0.0
C209 C 0.71739 0.02843 0.2538 0.0
O210 O 0.67169 0.98993 0.21014 0.0
O211 O 0.68672 0.02356 0.18775 0.0
O212 O 0.66561 0.9705 0.25761 0.0
O213 O 0.64884 0.99733 0.28035 0.0
O214 O 0.71079 1.00501 0.25185 0.0
O215 O 0.69807 0.04241 0.24925 0.0
O216 O 0.6698 0.07178 0.25177 0.0
O217 O 0.64787 0.03895 0.26857 0.0
C218 C 0.68157 0.99922 0.18922 0.0
C219 C 0.65423 0.06293 0.26892 0.0
Dy220 Dy 0.03521 0.66558 0.22088 0.0
C221 C 0.10703 0.63335 0.27736 0.0
C222 C 0.99466 0.6777 0.19055 0.0
Dy223 Dy 0.07185 0.65807 0.24899 0.0
O224 O 0.99449 0.66274 0.20995 0.0
O225 O 0.01731 0.6867 0.18749 0.0
O226 O 0.02042 0.62558 0.22348 0.0
O227 O 0.05911 0.62998 0.22049 0.0
C228 C 0.04136 0.61354 0.22271 0.0
C229 C 0.06307 0.70829 0.25659 0.0
O230 O 0.09437 0.65769 0.2137 0.0
O231 O 0.06432 0.67817 0.19174 0.0
O232 O 0.11168 0.64853 0.25859 0.0
O233 O 0.08374 0.63676 0.28364 0.0
O234 O 0.08481 0.69792 0.25371 0.0
O235 O 0.04593 0.69155 0.25297 0.0
O236 O 0.01481 0.66824 0.25732 0.0
O237 O 0.04195 0.63974 0.27231 0.0
C238 C 0.08753 0.66967 0.19308 0.0
C239 C 0.0196 0.64991 0.27342 0.0
Dy240 Dy 0.40464 0.06913 0.85034 0.0
C241 C 0.43135 0.057 0.76821 0.0
C242 C 0.40538 0.09457 0.89538 0.0
Dy243 Dy 0.40936 0.05585 0.81489 0.0
O244 O 0.41369 0.10277 0.87387 0.0
O245 O 0.39687 0.07161 0.89272 0.0
O246 O 0.44432 0.08622 0.84139 0.0
O247 O 0.441 0.04826 0.84032 0.0
C248 C 0.45736 0.06562 0.84034 0.0
C249 C 0.36054 0.04775 0.80874 0.0
O250 O 0.41351 0.01791 0.83563 0.0
O251 O 0.39329 0.0337 0.86858 0.0
O252 O 0.41219 0.04332 0.77527 0.0
O253 O 0.439 0.06979 0.78735 0.0
O254 O 0.37788 0.03292 0.80052 0.0
O255 O 0.36993 0.06508 0.82319 0.0
O256 O 0.3794 0.10059 0.84148 0.0
O257 O 0.4057 0.09869 0.80981 0.0
C258 C 0.40243 0.01407 0.85768 0.0
C259 C 0.38852 0.11166 0.8218 0.0
Dy260 Dy 0.99911 0.39809 0.84814 0.0
C261 C 0.02153 0.43067 0.77224 0.0
C262 C 0.97232 0.39425 0.89253 0.0
Dy263 Dy 0.01713 0.40523 0.81706 0.0
O264 O 0.96355 0.40133 0.8708 0.0
O265 O 0.9961 0.38904 0.89023 0.0
O266 O 0.98362 0.4392 0.84202 0.0
O267 O 0.02145 0.43534 0.84402 0.0
C268 C 1.00456 0.45193 0.8437 0.0
C269 C 0.02588 0.35732 0.80695 0.0
O270 O 0.05117 0.40809 0.84398 0.0
O271 O 0.03051 0.38205 0.8697 0.0
O272 O 0.03648 0.41322 0.78072 0.0
O273 O 1.00493 0.43538 0.78929 0.0
O274 O 0.04169 0.37573 0.80296 0.0
O275 O 1.00638 0.36489 0.81974 0.0
O276 O 0.9662 0.37725 0.83459 0.0
O277 O 0.97619 0.40393 0.80413 0.0
C278 C 0.05157 0.39338 0.86434 0.0
C279 C 0.95992 0.38761 0.81352 0.0
Dy280 Dy 0.66426 1.01042 0.82858 0.0
C281 C 0.6678 0.08624 0.88544 0.0
C282 C 0.65051 0.96304 0.81461 0.0
Dy283 Dy 0.66261 0.04768 0.85114 0.0
O284 O 0.64936 0.97151 0.83729 0.0
O285 O 0.65849 0.98069 0.79937 0.0
O286 O 0.69642 1.00871 0.80265 0.0
O287 O 0.69977 0.0345 0.83373 0.0
C288 C 0.70999 0.02607 0.81304 0.0
C289 C 0.61243 0.04159 0.83826 0.0
O290 O 0.67622 0.06492 0.81547 0.0
O291 O 0.65231 0.03562 0.79704 0.0
O292 O 0.658 0.08819 0.86311 0.0
O293 O 0.67559 0.06337 0.88876 0.0
O294 O 0.62513 0.06249 0.8373 0.0
O295 O 0.62753 0.02389 0.84523 0.0
O296 O 0.68103 0.99175 0.8626 0.0
O297 O 0.66375 0.02189 0.88555 0.0
C298 C 0.66552 0.05656 0.79497 0.0
C299 C 0.67457 0.99981 0.88477 0.0
Dy300 Dy 0.0277 0.6595 0.85314 0.0
C301 C 0.94577 0.65009 0.80073 0.0
C302 C 0.07189 0.66521 0.88013 0.0
Dy303 Dy 0.98706 0.66147 0.82916 0.0
O304 O 0.06826 0.64999 0.86163 0.0
O305 O 0.05126 0.67753 0.88405 0.0
O306 O 0.03555 0.61819 0.84548 0.0
O307 O 0.99844 0.6278 0.85279 0.0
C308 C 1.01287 0.60929 0.84739 0.0
C309 C 1.00409 0.71018 0.8258 0.0
O310 O 0.96847 0.65753 0.8664 0.0
O311 O 1.00337 0.67166 0.88593 0.0
O312 O 0.9455 0.65896 0.82329 0.0
O313 O 0.96842 0.65371 0.79228 0.0
O314 O 0.98166 0.70307 0.83234 0.0
O315 O 0.01791 0.69061 0.82514 0.0
O316 O 0.04164 0.66711 0.81419 0.0
O317 O 1.01055 0.64208 0.80101 0.0
C318 C 0.97924 0.66582 0.88686 0.0
C319 C 0.03296 0.65174 0.79708 0.0
Dy320 Dy 0.20551 0.40861 0.99643 0.0
C321 C 0.28451 0.43787 0.03047 0.0
C322 C 0.16549 0.40916 0.96307 0.0
Dy323 Dy 0.24154 0.41327 0.01644 0.0
O324 O 0.18722 0.41978 0.9598 0.0
O325 O 0.1651 0.39796 0.98522 0.0
O326 O 0.21301 0.44914 0.98118 0.0
O327 O 0.21416 0.44413 0.0192 0.0
C328 C 0.21418 0.46123 1.00219 0.0
C329 C 0.24562 0.36349 0.0209 0.0
O330 O 0.21671 0.4145 0.05112 0.0
O331 O 0.18397 0.39736 0.03042 0.0
O332 O 0.27725 0.41568 0.03812 0.0
O333 O 0.26954 0.44484 1.01242 0.0
O334 O 0.25227 0.37926 0.03814 0.0
O335 O 0.23326 0.37476 1.00272 0.0
O336 O 0.22264 0.3871 0.96616 0.0
O337 O 0.25477 0.41216 0.97567 0.0
C338 C 0.1939 0.40448 0.05173 0.0
C339 C 0.24422 0.39646 0.95982 0.0
Dy340 Dy 0.21034 0.66954 0.03093 0.0
C341 C 0.26863 0.63342 0.97019 0.0
C342 C 0.17441 0.67575 0.06845 0.0
Dy343 Dy 0.23974 0.66411 0.99816 0.0
O344 O 0.17108 0.68017 0.04453 0.0
O345 O 0.19733 0.66822 0.07176 0.0
O346 O 0.22053 0.62984 0.04553 0.0
O347 O 0.21228 0.63366 1.00795 0.0
C348 C 0.217 0.61724 0.0251 0.0
C349 C 0.25199 0.71296 1.00125 0.0
O350 O 0.20624 0.66764 0.97212 0.0
O351 O 0.18241 0.68348 1.00298 0.0
O352 O 0.25501 0.65174 0.96127 0.0
O353 O 0.26951 0.63524 0.99454 0.0
O354 O 0.25769 0.6985 0.98265 0.0
O355 O 0.23685 0.70187 0.01741 0.0
O356 O 0.24106 0.6874 0.05186 0.0
O357 O 0.26444 0.65893 0.03267 0.0
C358 C 0.18499 0.6778 0.97926 0.0
C359 C 0.2619 0.67476 0.0513 0.0
Dy360 Dy 0.39997 0.21738 0.05484 0.0
C361 C 0.41301 0.30001 1.00186 0.0
C362 C 0.39646 0.17493 0.0862 0.0
Dy363 Dy 0.40195 0.25545 0.02707 0.0
O364 O 0.40677 0.19629 0.09186 0.0
O365 O 0.38782 0.1767 0.06324 0.0
O366 O 0.44023 0.22558 0.06943 0.0
O367 O 0.43423 0.2292 0.03128 0.0
C368 C 0.45146 0.22988 0.04809 0.0
C369 C 0.3516 0.25122 0.0295 0.0
O370 O 0.41015 0.22641 0.99751 0.0
O371 O 0.39113 0.19546 0.0204 0.0
O372 O 0.39546 0.28402 0.99638 0.0
O373 O 0.42367 0.2918 0.02249 0.0
O374 O 0.36426 0.25411 1.00888 0.0
O375 O 0.36681 0.24499 0.04764 0.0
O376 O 0.38127 0.24161 0.08215 0.0
O377 O 0.40483 0.273 0.06573 0.0
C378 C 0.40074 0.2033 0.99888 0.0
C379 C 0.39103 0.26403 0.08451 0.0
Dy380 Dy 0.82643 0.41361 0.08919 0.0
C381 C 0.87336 0.40623 1.00509 0.0
C382 C 0.81338 0.41158 0.13907 0.0
Dy383 Dy 0.84668 0.41544 0.04859 0.0
O384 O 0.83415 0.40364 0.1296 0.0
O385 O 0.79918 0.41994 0.12066 0.0
O386 O 0.83134 0.37119 0.09238 0.0
O387 O 0.81894 0.38499 0.05834 0.0
C388 C 0.82155 0.36477 0.07109 0.0
C389 C 0.83994 0.46595 0.05731 0.0
O390 O 0.80566 0.41051 0.03886 0.0
O391 O 0.79299 0.43176 0.07301 0.0
O392 O 0.87811 0.39633 0.02708 0.0
O393 O 0.85399 0.42072 1.00689 0.0
O394 O 0.83867 0.45518 0.03565 0.0
O395 O 0.84597 0.4492 0.0742 0.0
O396 O 0.86277 0.42792 0.10321 0.0
O397 O 0.88083 0.40541 0.07374 0.0
C398 C 0.78824 0.42387 0.05029 0.0
C399 C 0.88298 0.417 0.09542 0.0
Dy400 Dy 0.66403 0.86212 0.04126 0.0
C401 C 0.64937 0.79709 0.96856 0.0
C402 C 0.67018 0.89507 0.08099 0.0
Dy403 Dy 0.66442 0.83045 1.00421 0.0
O404 O 0.68477 0.89426 0.06132 0.0
O405 O 0.65274 0.87812 0.07868 0.0
O406 O 0.62154 0.85927 0.04695 0.0
O407 O 0.63483 0.85897 1.0102 0.0
C408 C 0.61488 0.85697 0.02363 0.0
C409 C 0.71196 0.82655 0.02325 0.0
O410 O 0.66714 0.86452 0.97938 0.0
O411 O 0.6782 0.89021 1.01149 0.0
O412 O 0.6624 0.81743 0.96444 0.0
O413 O 0.64832 0.79336 0.99273 0.0
O414 O 0.70609 0.82819 0.99966 0.0
O415 O 0.69192 0.8298 0.03642 0.0
O416 O 0.66246 0.82668 0.06417 0.0
O417 O 0.64073 0.80942 0.03227 0.0
C418 C 0.67531 0.8865 0.98707 0.0
C419 C 0.64614 0.80984 0.05641 0.0
Dy420 Dy 0.81932 0.67291 0.01565 0.0
C421 C 0.89092 0.68274 0.08186 0.0
C422 C 0.7864 0.6743 0.97652 0.0
Dy423 Dy 0.85156 0.67325 0.04934 0.0
O424 O 0.80828 0.68484 0.97695 0.0
O425 O 0.78248 0.66175 0.99749 0.0
O426 O 0.82948 0.71244 1.00311 0.0
O427 O 0.82525 0.70573 0.04121 0.0
C428 C 0.8258 0.72313 0.02444 0.0
C429 C 0.8385 0.62256 0.04532 0.0
O430 O 0.81921 0.68606 0.07236 0.0
O431 O 0.79122 0.6671 0.04641 0.0
O432 O 0.87093 0.66955 0.08712 0.0
O433 O 0.88952 0.69088 0.05871 0.0
O434 O 0.84301 0.63438 0.06602 0.0
O435 O 0.84126 0.63841 0.02691 0.0
O436 O 0.85021 0.65767 0.99241 0.0
O437 O 0.87787 0.67898 0.01587 0.0
C438 C 0.79624 0.67769 0.06808 0.0
C439 C 0.87285 0.66718 0.99482 0.0
Dy440 Dy 0.40993 0.86022 0.98981 0.0
C441 C 0.42203 0.77674 0.04184 0.0
C442 C 0.40512 0.90304 0.96059 0.0
Dy443 Dy 0.41168 0.82017 0.01517 0.0
O444 O 0.4187 0.88375 0.95518 0.0
O445 O 0.39441 0.89929 0.98238 0.0
O446 O 0.45152 0.85531 0.97855 0.0
O447 O 0.44197 0.84871 0.01565 0.0
C448 C 0.46053 0.84954 1.00055 0.0
C449 C 0.36165 0.82317 1.00876 0.0
O450 O 0.41031 0.84726 0.04785 0.0
O451 O 0.39715 0.8802 0.0236 0.0
O452 O 0.40138 0.78181 0.03017 0.0
O453 O 0.43844 0.79334 0.03404 0.0
O454 O 0.37256 0.81968 0.03039 0.0
O455 O 0.37828 0.83016 0.99222 0.0
O456 O 0.39619 0.83789 0.95887 0.0
O457 O 0.42004 0.80691 0.97556 0.0
C458 C 0.40205 0.87069 0.04594 0.0
C459 C 0.40795 0.81687 0.9561 0.0
Dy460 Dy 0.66182 0.22073 0.03298 0.0
C461 C 0.64639 0.30685 0.05091 0.0
C462 C 0.66262 0.17779 1.00417 0.0
Dy463 Dy 0.65916 0.25694 0.05167 0.0
O464 O 0.65173 0.19881 0.99858 0.0
O465 O 0.67283 0.17963 0.02646 0.0
O466 O 0.62046 0.22655 0.01923 0.0
O467 O 0.62698 0.23107 0.05678 0.0
C468 C 0.60934 0.22994 0.04065 0.0
C469 C 0.70914 0.25912 0.05317 0.0
O470 O 0.65496 0.23152 0.08709 0.0
O471 O 0.67523 0.20092 0.06695 0.0
O472 O 0.65542 0.29459 0.07041 0.0
O473 O 0.6418 0.29086 0.03337 0.0
O474 O 0.69465 0.26462 0.07182 0.0
O475 O 0.69624 0.2486 0.03526 0.0
O476 O 0.68172 0.23693 1.00028 0.0
O477 O 0.65327 0.26485 1.00967 0.0
C478 C 0.66658 0.20945 0.08809 0.0
C479 C 0.66896 0.25615 0.99289 0.0
Dy480 Dy 0.4907 0.70449 0.88922 0.0
C481 C 0.52264 0.7807 0.91198 0.0
C482 C 0.46179 0.6617 0.89282 0.0
Dy483 Dy 0.51069 0.73508 0.89166 0.0
O484 O 0.4542 0.68427 0.89743 0.0
O485 O 0.48539 0.6623 0.88621 0.0
O486 O 0.47507 0.71652 0.92855 0.0
O487 O 0.51279 0.71117 0.92556 0.0
C488 C 0.49564 0.71455 0.94169 0.0
C489 C 0.51504 0.74313 0.84262 0.0
O490 O 0.54451 0.70782 0.89313 0.0
O491 O 0.52006 0.67917 0.87557 0.0
O492 O 0.53395 0.76998 0.89348 0.0
O493 O 0.5047 0.76596 0.91992 0.0
O494 O 0.53297 0.74731 0.85869 0.0
O495 O 0.49668 0.73042 0.85299 0.0
O496 O 0.45868 0.71421 0.86555 0.0
O497 O 0.46934 0.74787 0.88716 0.0
C498 C 0.54253 0.68545 0.8827 0.0
C499 C 0.4528 0.73641 0.8724 0.0
Dy500 Dy 0.34632 0.49929 0.90648 0.0
C501 C 0.26827 0.51003 0.93318 0.0
C502 C 0.38944 0.47091 0.90864 0.0
Dy503 Dy 0.31396 0.51252 0.90991 0.0
O504 O 0.36705 0.46332 0.91498 0.0
O505 O 0.38858 0.49458 0.90151 0.0
O506 O 0.33767 0.48308 0.94678 0.0
O507 O 0.33723 0.52109 0.94271 0.0
C508 C 0.33704 0.50393 0.95948 0.0
C509 C 0.30427 0.52179 0.86207 0.0
O510 O 0.33526 0.55039 0.91199 0.0
O511 O 0.36854 0.53197 0.89531 0.0
O512 O 0.27525 0.5262 0.91584 0.0
O513 O 0.28695 0.49532 0.9383 0.0
O514 O 0.29494 0.53468 0.88038 0.0
O515 O 0.32127 0.50588 0.86997 0.0
O516 O 0.3398 0.46938 0.87899 0.0
O517 O 0.30753 0.47015 0.90426 0.0
C518 C 0.35813 0.5526 0.90239 0.0
C519 C 0.31968 0.45827 0.88651 0.0
Dy520 Dy 0.54566 0.34723 0.89937 0.0
C521 C 0.49894 0.26413 0.91282 0.0
C522 C 0.57352 0.39129 0.89425 0.0
Dy523 Dy 0.52184 0.30967 0.90175 0.0
O524 O 0.58005 0.37112 0.90647 0.0
O525 O 0.55127 0.38768 0.88463 0.0
O526 O 0.56072 0.34205 0.93958 0.0
O527 O 0.52298 0.33492 0.93482 0.0
C528 C 0.54028 0.33599 0.95158 0.0
C529 C 0.52568 0.31251 0.85107 0.0
O530 O 0.4903 0.33698 0.9099 0.0
O531 O 0.51098 0.36774 0.88891 0.0
O532 O 0.49198 0.28043 0.89591 0.0
O533 O 0.52002 0.27238 0.92216 0.0
O534 O 0.50489 0.30937 0.8633 0.0
O535 O 0.54315 0.31909 0.86663 0.0
O536 O 0.57663 0.32537 0.88377 0.0
O537 O 0.56136 0.29546 0.90951 0.0
C538 C 0.49019 0.35972 0.8995 0.0
C539 C 0.58055 0.3047 0.89652 0.0
Dy540 Dy 0.69845 0.55443 0.89515 0.0
C541 C 0.76762 0.50989 0.93675 0.0
C542 C 0.6613 0.59096 0.88963 0.0
Dy543 Dy 0.73189 0.52789 0.90479 0.0
O544 O 0.65939 0.56782 0.88176 0.0
O545 O 0.68318 0.59363 0.89986 0.0
O546 O 0.70737 0.57205 0.93376 0.0
O547 O 0.70269 0.53396 0.93308 0.0
C548 C 0.7055 0.55213 0.94803 0.0
C549 C 0.73857 0.52236 0.85535 0.0
O550 O 0.70172 0.49813 0.90803 0.0
O551 O 0.6735 0.5215 0.88651 0.0
O552 O 0.75786 0.49768 0.91808 0.0
O553 O 0.75961 0.53284 0.93611 0.0
O554 O 0.7428 0.5053 0.87257 0.0
O555 O 0.72765 0.5421 0.86468 0.0
O556 O 0.72452 0.57957 0.87423 0.0
O557 O 0.75198 0.56561 0.90283 0.0
C558 C 0.67976 0.49975 0.89669 0.0
C559 C 0.74597 0.58259 0.88559 0.0
Dy560 Dy 0.51041 0.34124 0.16051 0.0
C561 C 0.55511 0.27676 0.1235 0.0
C562 C 0.47329 0.37712 0.16164 0.0
Dy563 Dy 0.53509 0.30972 0.15581 0.0
O564 O 0.47215 0.3557 0.1505 0.0
O565 O 0.49527 0.37954 0.17226 0.0
O566 O 0.4961 0.32923 0.12112 0.0
O567 O 0.53327 0.3379 0.12449 0.0
C568 C 0.51631 0.33396 0.10809 0.0
C569 C 0.53587 0.29978 0.20499 0.0
O570 O 0.56698 0.3386 0.1572 0.0
O571 O 0.5407 0.36853 0.17018 0.0
O572 O 0.5639 0.28137 0.14586 0.0
O573 O 0.53178 0.28355 0.12342 0.0
O574 O 0.55286 0.29274 0.18905 0.0
O575 O 0.5197 0.31524 0.19491 0.0
O576 O 0.48438 0.31794 0.18331 0.0
O577 O 0.49703 0.2897 0.15621 0.0
C578 C 0.56369 0.36181 0.165 0.0
C579 C 0.48044 0.29627 0.17318 0.0
Dy580 Dy 0.69143 0.52148 0.15482 0.0
C581 C 0.73544 0.60701 0.16171 0.0
C582 C 0.65767 0.4818 0.16301 0.0
Dy583 Dy 0.71435 0.56077 0.15665 0.0
O584 O 0.67929 0.48012 0.15181 0.0
O585 O 0.65479 0.50493 0.16982 0.0
O586 O 0.70314 0.50941 0.11619 0.0
O587 O 0.69629 0.54781 0.12032 0.0
C588 C 0.70299 0.531 0.10446 0.0
C589 C 0.7136 0.54622 0.20663 0.0
O590 O 0.67879 0.5778 0.14284 0.0
O591 O 0.65955 0.54751 0.16502 0.0
O592 O 0.71276 0.60099 0.16796 0.0
O593 O 0.74627 0.58822 0.15065 0.0
O594 O 0.705 0.56709 0.19747 0.0
O595 O 0.7157 0.53146 0.18809 0.0
O596 O 0.72908 0.50725 0.16659 0.0
O597 O 0.74983 0.54025 0.14851 0.0
C598 C 0.65834 0.56968 0.1539 0.0
C599 C 0.75048 0.5176 0.15877 0.0
Dy600 Dy 0.51418 0.71164 0.14822 0.0
C601 C 0.44101 0.77353 0.16324 0.0
C602 C 0.55334 0.6776 0.15016 0.0
Dy603 Dy 0.47961 0.74099 0.15386 0.0
O604 O 0.53386 0.67694 0.16499 0.0
O605 O 0.55127 0.69667 0.13489 0.0
O606 O 0.52194 0.71795 0.10692 0.0
O607 O 0.48407 0.71856 0.11791 0.0
C608 C 0.49921 0.72091 0.09886 0.0
C609 C 0.50176 0.74045 0.20052 0.0
O610 O 0.4547 0.7081 0.1466 0.0
O611 O 0.48483 0.68227 0.16079 0.0
O612 O 0.44117 0.74972 0.16867 0.0
O613 O 0.46163 0.7791 0.15095 0.0
O614 O 0.4786 0.73474 0.19609 0.0
O615 O 0.5133 0.74029 0.17939 0.0
O616 O 0.53616 0.74746 0.15044 0.0
O617 O 0.50401 0.76755 0.13165 0.0
C618 C 0.46105 0.6856 0.1546 0.0
C619 C 0.52818 0.76654 0.13661 0.0
Dy620 Dy 0.30633 0.55477 0.16557 0.0
C621 C 0.36581 0.48016 0.17765 0.0
C622 C 0.28202 0.5999 0.16558 0.0
Dy623 Dy 0.33217 0.51783 0.16594 0.0
O624 O 0.30198 0.59431 0.17824 0.0
O625 O 0.27498 0.58016 0.15298 0.0
O626 O 0.30735 0.55767 0.2082 0.0
O627 O 0.30095 0.52287 0.19388 0.0
C628 C 0.29972 0.53519 0.21422 0.0
C629 C 0.32822 0.52624 0.11475 0.0
O630 O 0.29363 0.50038 0.16813 0.0
O631 O 0.27682 0.53291 0.14667 0.0
O632 O 0.34895 0.47946 0.16001 0.0
O633 O 0.36372 0.50115 0.18966 0.0
O634 O 0.32921 0.50455 0.12619 0.0
O635 O 0.33003 0.54387 0.13142 0.0
O636 O 0.34134 0.57622 0.1568 0.0
O637 O 0.36269 0.54625 0.17699 0.0
C638 C 0.27608 0.50886 0.15259 0.0
C639 C 0.36232 0.56919 0.1673 0.0
Dy640 Dy 0.89146 0.50492 0.70541 0.0
C641 C 0.91953 0.52541 0.78474 0.0
C642 C 0.88833 0.47638 0.66232 0.0
Dy643 Dy 0.89674 0.52315 0.73896 0.0
O644 O 0.89727 0.46915 0.68393 0.0
O645 O 0.88146 0.49984 0.66383 0.0
O646 O 0.93275 0.49088 0.71305 0.0
O647 O 0.92721 0.52857 0.71228 0.0
C648 C 0.94451 0.51247 0.71311 0.0
C649 C 0.84801 0.52931 0.74594 0.0
O650 O 0.89941 0.55853 0.71342 0.0
O651 O 0.87821 0.53799 0.68369 0.0
O652 O 0.90232 0.54067 0.77628 0.0
O653 O 0.92589 0.5102 0.76712 0.0
O654 O 0.86517 0.54586 0.75146 0.0
O655 O 0.85737 0.51054 0.7334 0.0
O656 O 0.87054 0.47207 0.72024 0.0
O657 O 0.89624 0.48182 0.75109 0.0
C658 C 0.88739 0.55928 0.69151 0.0
C659 C 0.88048 0.4655 0.74141 0.0
Dy660 Dy 0.51946 0.8988 0.69976 0.0
C661 C 0.45391 0.92933 0.76205 0.0
C662 C 0.5533 0.88849 0.6615 0.0
Dy663 Dy 0.48445 0.90428 0.72994 0.0
O664 O 0.55889 0.89783 0.68324 0.0
O665 O 0.52924 0.88448 0.66073 0.0
O666 O 0.53426 0.93915 0.70669 0.0
O667 O 0.4961 0.93423 0.70269 0.0
C668 C 0.51304 0.9509 0.70653 0.0
C669 C 0.48991 0.85344 0.73431 0.0
O670 O 0.46123 0.90917 0.69481 0.0
O671 O 0.48852 0.88521 0.67393 0.0
O672 O 0.44638 0.91437 0.74445 0.0
O673 O 0.47779 0.92565 0.76504 0.0
O674 O 0.46875 0.86539 0.73343 0.0
O675 O 0.50813 0.86901 0.72962 0.0
O676 O 0.54249 0.88822 0.73295 0.0
O677 O 0.517 0.91313 0.75543 0.0
C678 C 0.46645 0.89609 0.67476 0.0
C679 C 0.53824 0.90078 0.75356 0.0
Dy680 Dy 0.14909 0.54947 0.71769 0.0
C681 C 0.14547 0.46602 0.77282 0.0
C682 C 0.15166 0.5926 0.6872 0.0
Dy683 Dy 0.15407 0.50806 0.74375 0.0
O684 O 0.16733 0.57388 0.68671 0.0
O685 O 0.13528 0.58798 0.7048 0.0
O686 O 0.10725 0.55415 0.72476 0.0
O687 O 0.12022 0.51763 0.71951 0.0
C688 C 0.10039 0.5307 0.72396 0.0
C689 C 0.20081 0.52876 0.74706 0.0
O690 O 0.14904 0.48944 0.70716 0.0
O691 O 0.1591 0.52473 0.68478 0.0
O692 O 0.15667 0.46663 0.75115 0.0
O693 O 0.14571 0.48904 0.78072 0.0
O694 O 0.19597 0.50579 0.74082 0.0
O695 O 0.18013 0.54122 0.74656 0.0
O696 O 0.15179 0.56442 0.7564 0.0
O697 O 0.13173 0.52975 0.77071 0.0
C698 C 0.15404 0.50041 0.68544 0.0
C699 C 0.13639 0.55387 0.7729 0.0
Dy700 Dy 0.50095 0.15866 0.70667 0.0
C701 C 0.57546 0.14976 0.76924 0.0
C702 C 0.46059 0.16339 0.67408 0.0
Dy703 Dy 0.53641 0.15839 0.73737 0.0
O704 O 0.46125 0.14996 0.69461 0.0
O705 O 0.48233 0.17447 0.67094 0.0
O706 O 0.48984 0.11757 0.71397 0.0
O707 O 0.52798 0.12587 0.71225 0.0
C708 C 0.512 0.1078 0.7152 0.0
C709 C 0.52575 0.20826 0.73745 0.0
O710 O 0.56003 0.15448 0.70276 0.0
O711 O 0.52974 0.17119 0.67806 0.0
O712 O 0.57305 0.16914 0.75457 0.0
O713 O 0.55538 0.13571 0.76755 0.0
O714 O 0.54805 0.19894 0.73586 0.0
O715 O 0.50938 0.19062 0.73389 0.0
O716 O 0.4796 0.17016 0.74022 0.0
O717 O 0.50666 0.15067 0.76666 0.0
C718 C 0.55324 0.16421 0.68094 0.0
C719 C 0.48458 0.16097 0.76275 0.0
Dy720 Dy 0.87774 0.54827 0.34247 0.0
C721 C 0.87948 0.49279 0.26402 0.0
C722 C 0.87078 0.581 0.38262 0.0
Dy723 Dy 0.87698 0.51808 0.30879 0.0
O724 O 0.88585 0.58433 0.36371 0.0
O725 O 0.85898 0.55969 0.37954 0.0
O726 O 0.91908 0.55812 0.34091 0.0
O727 O 0.91036 0.52056 0.33469 0.0
C728 C 0.92866 0.53649 0.33573 0.0
C729 C 0.82764 0.5303 0.31203 0.0
O730 O 0.8829 0.48829 0.33814 0.0
O731 O 0.86669 0.51446 0.36684 0.0
O732 O 0.87603 0.48275 0.28621 0.0
O733 O 0.88163 0.51688 0.26674 0.0
O734 O 0.83672 0.50804 0.31538 0.0
O735 O 0.8461 0.54614 0.31299 0.0
O736 O 0.87792 0.57706 0.31146 0.0
O737 O 0.8994 0.54848 0.29012 0.0
C738 C 0.87403 0.49166 0.36092 0.0
C739 C 0.89392 0.57219 0.2935 0.0
Dy740 Dy 0.48701 0.89393 0.35018 0.0
C741 C 0.51986 0.92332 0.27028 0.0
C742 C 0.45675 0.89142 0.39219 0.0
Dy743 Dy 0.50726 0.89983 0.315 0.0
O744 O 0.45033 0.89924 0.36996 0.0
O745 O 0.48031 0.88477 0.39192 0.0
O746 O 0.46848 0.93222 0.34123 0.0
O747 O 0.50681 0.93171 0.34122 0.0
C748 C 0.48822 0.94664 0.34018 0.0
C749 C 0.51013 0.85025 0.30875 0.0
O750 O 0.54182 0.9021 0.34069 0.0
O751 O 0.52076 0.88306 0.37228 0.0
O752 O 0.52983 0.90313 0.2798 0.0
O753 O 0.50242 0.93064 0.2855 0.0
O754 O 0.52749 0.86629 0.30197 0.0
O755 O 0.49317 0.86071 0.32271 0.0
O756 O 0.45638 0.87133 0.33417 0.0
O757 O 0.46632 0.89693 0.30207 0.0
C758 C 0.54216 0.89149 0.36341 0.0
C759 C 0.45027 0.88071 0.31247 0.0
Dy760 Dy 0.14158 0.48402 0.32611 0.0
C761 C 0.14253 0.56092 0.36749 0.0
C762 C 0.16671 0.43963 0.32204 0.0
Dy763 Dy 0.1333 0.51866 0.33923 0.0
O764 O 0.16453 0.45227 0.34254 0.0
O765 O 0.15311 0.45011 0.30416 0.0
O766 O 0.18288 0.49398 0.33558 0.0
O767 O 0.16447 0.51795 0.312 0.0
C768 C 0.18623 0.51189 0.31899 0.0
C769 C 0.08339 0.51048 0.33435 0.0
O770 O 0.13515 0.52389 0.29679 0.0
O771 O 0.12488 0.48374 0.28848 0.0
O772 O 0.12752 0.55983 0.34816 0.0
O773 O 0.15313 0.53919 0.3708 0.0
O774 O 0.09445 0.53232 0.33443 0.0
O775 O 0.09976 0.49239 0.3371 0.0
O776 O 0.12352 0.46422 0.35825 0.0
O777 O 0.14281 0.49598 0.37531 0.0
C778 C 0.12742 0.50679 0.2804 0.0
C779 C 0.132 0.47386 0.37869 0.0
Dy780 Dy 0.50932 0.15466 0.35558 0.0
C781 C 0.4548 0.15383 0.27416 0.0
C782 C 0.53971 0.16642 0.39597 0.0
Dy783 Dy 0.48074 0.15494 0.31927 0.0
O784 O 0.5271 0.14558 0.39355 0.0
O785 O 0.53537 0.18087 0.37658 0.0
O786 O 0.52389 0.1152 0.35227 0.0
O787 O 0.48557 0.12017 0.34392 0.0
C788 C 0.50348 0.1038 0.34509 0.0
C789 C 0.49547 0.20396 0.32167 0.0
O790 O 0.4493 0.15185 0.34768 0.0
O791 O 0.47532 0.16625 0.3778 0.0
O792 O 0.4452 0.15238 0.29664 0.0
O793 O 0.47894 0.15577 0.27691 0.0
O794 O 0.47249 0.19609 0.32357 0.0
O795 O 0.50961 0.18481 0.32466 0.0
O796 O 0.54021 0.15393 0.32808 0.0
O797 O 0.51334 0.1361 0.30036 0.0
C798 C 0.45243 0.16014 0.37073 0.0
C799 C 0.5365 0.14187 0.3071 0.0
Dy800 Dy 0.68719 0.89256 0.50581 0.0
C801 C 0.75704 0.91821 0.57319 0.0
C802 C 0.65014 0.88264 0.47005 0.0
Dy803 Dy 0.72212 0.89823 0.5417 0.0
O804 O 0.6663 0.90099 0.46937 0.0
O805 O 0.65435 0.86913 0.49035 0.0
O806 O 0.68843 0.93421 0.4948 0.0
O807 O 0.69162 0.92486 0.53277 0.0
C808 C 0.69219 0.9433 0.51694 0.0
C809 C 0.72765 0.84919 0.52846 0.0
O810 O 0.68918 0.89878 0.56731 0.0
O811 O 0.66277 0.88042 0.53918 0.0
O812 O 0.74178 0.89995 0.57915 0.0
O813 O 0.75394 0.92454 0.54974 0.0
O814 O 0.72764 0.85761 0.5512 0.0
O815 O 0.72158 0.86732 0.51309 0.0
O816 O 0.72016 0.89278 0.48021 0.0
O817 O 0.74143 0.91603 0.50895 0.0
C818 C 0.66756 0.88776 0.56242 0.0
C819 C 0.7381 0.90897 0.48555 0.0
Dy820 Dy 0.69222 0.14811 0.53618 0.0
C821 C 0.71901 0.1498 0.44156 0.0
C822 C 0.66448 0.15602 0.57939 0.0
Dy823 Dy 0.71041 0.15114 0.49237 0.0
O824 O 0.68414 0.14176 0.57789 0.0
O825 O 0.66046 0.16641 0.55751 0.0
O826 O 0.70391 0.10787 0.54418 0.0
O827 O 0.69079 0.11676 0.50782 0.0
C828 C 0.69912 0.09887 0.52209 0.0
C829 C 0.73047 0.1934 0.51175 0.0
O830 O 0.67213 0.16381 0.48105 0.0
O831 O 0.65464 0.14871 0.51697 0.0
O832 O 0.71025 0.16872 0.45366 0.0
O833 O 0.72349 0.13151 0.45757 0.0
O834 O 0.74093 0.17916 0.49527 0.0
O835 O 0.70825 0.18464 0.51822 0.0
O836 O 0.7313 0.1546 0.54774 0.0
O837 O 0.74456 0.13566 0.51217 0.0
C838 C 0.65203 0.15811 0.49416 0.0
C839 C 0.74948 0.14447 0.53477 0.0
Dy840 Dy 0.88534 0.70348 0.54587 0.0
C841 C 0.91982 0.77752 0.49657 0.0
C842 C 0.87852 0.66374 0.58012 0.0
Dy843 Dy 0.8918 0.73926 0.51715 0.0
O844 O 0.8932 0.683 0.58275 0.0
O845 O 0.86718 0.66594 0.5584 0.0
O846 O 0.92572 0.70822 0.55991 0.0
O847 O 0.92058 0.7097 0.52163 0.0
C848 C 0.93743 0.71034 0.53871 0.0
C849 C 0.84174 0.745 0.52244 0.0
O850 O 0.89282 0.70984 0.48707 0.0
O851 O 0.87374 0.68069 0.51211 0.0
O852 O 0.90379 0.76359 0.48446 0.0
O853 O 0.91643 0.77324 0.52036 0.0
O854 O 0.85436 0.74926 0.50193 0.0
O855 O 0.85602 0.73502 0.53974 0.0
O856 O 0.87577 0.73097 0.57518 0.0
O857 O 0.90291 0.75593 0.55423 0.0
C858 C 0.88193 0.68755 0.48958 0.0
C859 C 0.89049 0.75073 0.57505 0.0
Dy860 Dy 0.29752 0.90137 0.56916 0.0
C861 C 0.34427 0.90072 0.49111 0.0
C862 C 0.29498 0.8865 0.61873 0.0
Dy863 Dy 0.31465 0.90872 0.53261 0.0
O864 O 0.31252 0.88081 0.60294 0.0
O865 O 0.27799 0.90002 0.60684 0.0
O866 O 0.30084 0.85837 0.56687 0.0
O867 O 0.28829 0.87683 0.53499 0.0
C868 C 0.29063 0.85521 0.54503 0.0
C869 C 0.30941 0.95892 0.54136 0.0
O870 O 0.27285 0.90441 0.52376 0.0
O871 O 0.25977 0.91609 0.56224 0.0
O872 O 0.32425 0.9146 0.49135 0.0
O873 O 0.3477 0.8908 0.5133 0.0
O874 O 0.31059 0.94856 0.51947 0.0
O875 O 0.31147 0.94185 0.55919 0.0
O876 O 0.33237 0.91996 0.58344 0.0
O877 O 0.34934 0.89629 0.55536 0.0
C878 C 0.25431 0.91184 0.53872 0.0
C879 C 0.35264 0.90926 0.57578 0.0
Dy880 Dy 0.13562 0.36594 0.54754 0.0
C881 C 0.11291 0.28345 0.54485 0.0
C882 C 0.13564 0.41334 0.56758 0.0
Dy883 Dy 0.13154 0.33096 0.53621 0.0
O884 O 0.1463 0.40774 0.54632 0.0
O885 O 0.12488 0.39338 0.57704 0.0
O886 O 0.0964 0.35759 0.56591 0.0
O887 O 0.09866 0.35397 0.52799 0.0
C888 C 0.08289 0.35452 0.54574 0.0
C889 C 0.18036 0.3253 0.52887 0.0
O890 O 0.12513 0.35029 0.49737 0.0
O891 O 0.14598 0.38357 0.51164 0.0
O892 O 0.12842 0.29033 0.52699 0.0
O893 O 0.10576 0.30337 0.55649 0.0
O894 O 0.16322 0.31714 0.51353 0.0
O895 O 0.17066 0.33949 0.546 0.0
O896 O 0.15906 0.3615 0.58124 0.0
O897 O 0.13476 0.32797 0.57924 0.0
C898 C 0.13578 0.37254 0.49256 0.0
C899 C 0.15048 0.34171 0.59246 0.0
Dy900 Dy 0.29077 0.16633 0.49466 0.0
C901 C 0.35285 0.17731 0.56913 0.0
C902 C 0.27496 0.16099 0.44591 0.0
Dy903 Dy 0.31723 0.16689 0.53259 0.0
O904 O 0.28597 0.18055 0.45512 0.0
O905 O 0.27041 0.14522 0.46451 0.0
O906 O 0.26304 0.19629 0.50095 0.0
O907 O 0.30039 0.20253 0.51456 0.0
C908 C 0.27772 0.21164 0.51282 0.0
C909 C 0.30654 0.11602 0.52686 0.0
O910 O 0.281 0.17659 0.55059 0.0
O911 O 0.26052 0.15384 0.52122 0.0
O912 O 0.33298 0.16327 0.57233 0.0
O913 O 0.35284 0.18617 0.54624 0.0
O914 O 0.30602 0.12815 0.54787 0.0
O915 O 0.31189 0.13203 0.509 0.0
O916 O 0.32629 0.17302 0.47267 0.0
O917 O 0.35083 0.16543 0.5064 0.0
C918 C 0.26013 0.16556 0.54291 0.0
C919 C 0.34879 0.16957 0.48199 0.0
Dy920 Dy 0.87796 0.34867 0.50651 0.0
C921 C 0.88571 0.26798 0.56183 0.0
C922 C 0.87093 0.38976 0.47454 0.0
Dy923 Dy 0.8789 0.31236 0.53561 0.0
O924 O 0.88736 0.37218 0.47197 0.0
O925 O 0.85804 0.38517 0.49497 0.0
O926 O 0.91863 0.34527 0.49469 0.0
O927 O 0.91141 0.33958 0.53277 0.0
C928 C 0.92906 0.34046 0.51624 0.0
C929 C 0.82951 0.31201 0.52271 0.0
O930 O 0.88494 0.34131 0.56541 0.0
O931 O 0.86778 0.37132 0.54044 0.0
O932 O 0.8731 0.28718 0.56944 0.0
O933 O 0.89491 0.27359 0.53979 0.0
O934 O 0.83789 0.31196 0.54553 0.0
O935 O 0.84784 0.31766 0.50779 0.0
O936 O 0.87228 0.32102 0.47636 0.0
O937 O 0.89486 0.29494 0.50103 0.0
C938 C 0.87603 0.36426 0.56279 0.0
C939 C 0.88631 0.30104 0.47852 0.0
Dy940 Dy 0.14495 0.70065 0.51099 0.0
C941 C 0.11405 0.77907 0.54471 0.0
C942 C 0.14882 0.65942 0.48015 0.0
Dy943 Dy 0.13805 0.73523 0.53264 0.0
O944 O 0.14041 0.68139 0.47384 0.0
O945 O 0.15524 0.65955 0.50389 0.0
O946 O 0.10558 0.70811 0.49401 0.0
O947 O 0.10801 0.70684 0.53234 0.0
C948 C 0.09227 0.70803 0.51444 0.0
C949 C 0.18752 0.7397 0.53809 0.0
O950 O 0.1375 0.70826 0.56703 0.0
O951 O 0.15829 0.67963 0.54454 0.0
O952 O 0.10511 0.7616 0.53043 0.0
O953 O 0.13647 0.77234 0.55149 0.0
O954 O 0.17136 0.74313 0.55601 0.0
O955 O 0.17679 0.7303 0.5183 0.0
O956 O 0.16584 0.7197 0.48076 0.0
O957 O 0.13968 0.75 0.49193 0.0
C958 C 0.15003 0.68679 0.56645 0.0
C959 C 0.15557 0.74103 0.47534 0.0
H960 H 0.0772 0.20177 0.56422 0.0
H961 H 1.00322 0.23108 0.57744 0.0
H962 H 0.99533 0.23302 0.53175 0.0
H963 H 1.00949 0.22691 0.48677 0.0
H964 H 0.08252 0.19491 0.47374 0.0
H965 H 0.08947 0.19139 0.51947 0.0
C966 C 0.05923 0.20849 0.55727 0.0
C967 C 0.04111 0.21719 0.57512 0.0
C968 C 0.05429 0.20845 0.53039 0.0
C969 C 0.01791 0.22514 0.56483 0.0
C970 C 0.0133 0.22601 0.5384 0.0
C971 C 0.02711 0.21936 0.49381 0.0
C972 C 0.04565 0.21166 0.47595 0.0
C973 C 0.03141 0.21801 0.52075 0.0
C974 C 0.06795 0.20148 0.48627 0.0
C975 C 0.07194 0.19942 0.51277 0.0
H976 H 0.8681 0.07417 0.57318 0.0
H977 H 0.83219 1.00179 0.58692 0.0
H978 H 0.83183 0.99361 0.54211 0.0
H979 H 0.84226 1.00528 0.49812 0.0
H980 H 0.87718 0.07725 0.48177 0.0
H981 H 0.87723 0.08689 0.52717 0.0
C982 C 0.8601 0.05665 0.56645 0.0
C983 C 0.85047 0.03854 0.58446 0.0
C984 C 0.85984 0.05169 0.53958 0.0
C985 C 0.84015 0.01614 0.57441 0.0
C986 C 0.83985 1.01131 0.54838 0.0
C987 C 0.84998 0.02316 0.50429 0.0
C988 C 0.85993 0.04029 0.48582 0.0
C989 C 0.84984 0.02867 0.53068 0.0
C990 C 0.86948 0.06341 0.49496 0.0
C991 C 0.8695 0.06896 0.52123 0.0
H992 H 0.07191 0.84223 0.5824 0.0
H993 H 0.99094 0.8349 0.58091 0.0
H994 H 0.99119 0.83701 0.53507 0.0
H995 H 0.01379 0.84072 0.49373 0.0
H996 H 0.09472 0.84666 0.49419 0.0
H997 H 0.09483 0.84534 0.54042 0.0
C998 C 0.05428 0.84101 0.57216 0.0
C999 C 0.03135 0.83844 0.58616 0.0
C1000 C 0.05441 0.84197 0.54479 0.0
C1001 C 1.00901 0.83695 0.57158 0.0
C1002 C 1.00906 0.83812 0.54491 0.0
C1003 C 0.03153 0.84172 0.50382 0.0
C1004 C 0.05427 0.84392 0.48962 0.0
C1005 C 0.03156 0.84061 0.53106 0.0
C1006 C 0.07681 0.84502 0.50388 0.0
C1007 C 0.0769 0.84423 0.53069 0.0
H1008 H 0.24854 0.06264 0.56652 0.0
H1009 H 0.20909 0.99126 0.56872 0.0
H1010 H 0.2058 0.99212 0.52275 0.0
H1011 H 0.21766 1.0105 0.48015 0.0
H1012 H 0.25698 0.08191 0.47774 0.0
H1013 H 0.25617 0.08343 0.52383 0.0
C1014 C 0.23904 0.04725 0.55716 0.0
C1015 C 0.22911 0.02679 0.57223 0.0
C1016 C 0.23787 0.04728 0.52977 0.0
C1017 C 0.21718 1.00728 0.55858 0.0
C1018 C 0.2154 1.00763 0.53184 0.0
C1019 C 0.22637 0.02635 0.48955 0.0
C1020 C 0.23791 0.04583 0.4744 0.0
C1021 C 0.22636 0.02704 0.51692 0.0
C1022 C 0.24835 0.06623 0.48798 0.0
C1023 C 0.24815 0.06706 0.51478 0.0
H1024 H 0.57799 0.06107 0.22147 0.0
H1025 H 0.60206 0.98513 0.20778 0.0
H1026 H 0.55787 0.97186 0.20233 0.0
H1027 H 0.51111 0.98166 0.20147 0.0
H1028 H 0.4882 0.05807 0.21526 0.0
H1029 H 0.53215 0.07073 0.22089 0.0
C1030 C 0.57374 0.04154 0.21727 0.0
C1031 C 0.59409 0.02432 0.21492 0.0
C1032 C 0.54789 0.0339 0.21427 0.0
C1033 C 0.58742 0.9991 0.20961 0.0
C1034 C 0.56185 0.99144 0.20646 0.0
C1035 C 0.51564 1.00113 0.20563 0.0
C1036 C 0.49551 0.0188 0.20776 0.0
C1037 C 0.5417 1.00861 0.20874 0.0
C1038 C 0.50257 0.04384 0.21335 0.0
C1039 C 0.52802 0.05121 0.2166 0.0
H1040 H 0.07825 0.57903 0.20395 0.0
H1041 H 1.005 0.58108 0.23885 0.0
H1042 H 1.00217 0.53523 0.23836 0.0
H1043 H 0.02023 0.49291 0.22856 0.0
H1044 H 0.09356 0.49043 0.19398 0.0
H1045 H 0.09586 0.53648 0.19301 0.0
C1046 C 0.0616 0.56956 0.21139 0.0
C1047 C 0.04195 0.58442 0.22171 0.0
C1048 C 0.05967 0.54234 0.21058 0.0
C1049 C 0.02067 0.5709 0.23098 0.0
C1050 C 0.01889 0.54429 0.2306 0.0
C1051 C 0.03665 0.50233 0.22057 0.0
C1052 C 0.05664 0.48733 0.21125 0.0
C1053 C 0.03822 0.52954 0.2205 0.0
C1054 C 0.07769 0.50074 0.20128 0.0
C1055 C 0.07908 0.52746 0.20068 0.0
H1056 H 0.5785 0.08137 0.83303 0.0
H1057 H 0.57891 1.00069 0.84404 0.0
H1058 H 0.53251 1.00026 0.845 0.0
H1059 H 0.49044 0.02311 0.84343 0.0
H1060 H 0.49143 0.10402 0.83344 0.0
H1061 H 0.53739 0.10381 0.83132 0.0
C1062 C 0.56863 0.06354 0.83566 0.0
C1063 C 0.58313 0.04101 0.83853 0.0
C1064 C 0.54148 0.06346 0.83643 0.0
C1065 C 0.56908 0.01842 0.84184 0.0
C1066 C 0.54219 0.0182 0.84239 0.0
C1067 C 0.50061 0.04076 0.84077 0.0
C1068 C 0.48651 0.06372 0.83869 0.0
C1069 C 0.52793 0.04061 0.83983 0.0
C1070 C 0.50091 0.08606 0.83524 0.0
C1071 C 0.52757 0.08596 0.83402 0.0
H1072 H 0.04392 0.56838 0.83738 0.0
H1073 H 0.96822 0.58388 0.86112 0.0
H1074 H 0.95896 0.53828 0.86282 0.0
H1075 H 0.97148 0.49271 0.85527 0.0
H1076 H 0.04774 0.47825 0.83199 0.0
H1077 H 0.05678 0.52356 0.83106 0.0
C1078 C 0.02517 0.56198 0.8425 0.0
C1079 C 1.00679 0.58051 0.84864 0.0
C1080 C 0.01973 0.53526 0.84294 0.0
C1081 C 0.98295 0.57089 0.85603 0.0
C1082 C 0.97758 0.54446 0.85694 0.0
C1083 C 0.99014 0.49934 0.85001 0.0
C1084 C 1.00883 0.48105 0.84361 0.0
C1085 C 0.99561 0.52622 0.85001 0.0
C1086 C 0.03279 0.49099 0.83707 0.0
C1087 C 0.03805 0.51728 0.83653 0.0
H1088 H 0.19752 0.58258 0.98823 0.0
H1089 H 0.23527 0.58381 0.06022 0.0
H1090 H 0.23598 0.53783 0.0615 0.0
H1091 H 0.2289 0.49544 0.04102 0.0
H1092 H 0.19068 0.49407 0.96937 0.0
H1093 H 0.18651 0.54001 0.9699 0.0
C1094 C 0.20606 0.57294 1.00422 0.0
C1095 C 0.2167 0.5878 0.02401 0.0
C1096 C 0.20646 0.54552 1.005 0.0
C1097 C 0.22718 0.57385 0.04443 0.0
C1098 C 0.22777 0.54706 0.04514 0.0
C1099 C 0.21973 0.50506 0.0254 0.0
C1100 C 0.21062 0.49028 1.00484 0.0
C1101 C 0.21794 0.53239 0.02538 0.0
C1102 C 0.19833 0.50405 0.98536 0.0
C1103 C 0.19594 0.53077 0.98562 0.0
H1104 H 0.56748 0.22781 1.00718 0.0
H1105 H 0.58434 0.22743 0.08668 0.0
H1106 H 0.5391 0.22636 0.09636 0.0
H1107 H 0.49324 0.22923 0.0825 0.0
H1108 H 0.47683 0.22458 1.00318 0.0
H1109 H 0.52223 0.22411 0.99391 0.0
C1110 C 0.56147 0.22765 0.02672 0.0
C1111 C 0.58039 0.22837 0.04604 0.0
C1112 C 0.53474 0.22699 0.03239 0.0
C1113 C 0.57112 0.22733 0.0711 0.0
C1114 C 0.54483 0.22664 0.07674 0.0
C1115 C 0.49937 0.22833 0.06304 0.0
C1116 C 0.48054 0.22829 0.04347 0.0
C1117 C 0.52619 0.22732 0.05759 0.0
C1118 C 0.48999 0.22606 0.0187 0.0
C1119 C 0.51624 0.2257 1.01329 0.0
H1120 H 0.84279 0.58549 0.08381 0.0
H1121 H 0.83335 0.59252 1.00319 0.0
H1122 H 0.83285 0.54637 0.99996 0.0
H1123 H 0.83544 0.50312 0.01964 0.0
H1124 H 0.84533 0.49562 0.10009 0.0
H1125 H 0.84534 0.54187 0.10361 0.0
C1126 C 0.84064 0.57707 0.06542 0.0
C1127 C 0.83817 0.59337 0.04368 0.0
C1128 C 0.84053 0.54991 0.06364 0.0
C1129 C 0.83538 0.58125 0.0203 0.0
C1130 C 0.8351 0.55454 0.01845 0.0
C1131 C 0.83767 0.51144 0.03806 0.0
C1132 C 0.84044 0.49504 0.05964 0.0
C1133 C 0.83775 0.53852 0.03992 0.0
C1134 C 0.84321 0.50702 0.08309 0.0
C1135 C 0.84321 0.53377 0.08507 0.0
H1136 H 0.57106 0.8525 0.05219 0.0
H1137 H 0.59531 0.858 0.97472 0.0
H1138 H 0.55113 0.85625 0.96075 0.0
H1139 H 0.50446 0.85349 0.97037 0.0
H1140 H 0.48109 0.84655 0.04811 0.0
H1141 H 0.52513 0.84833 0.06168 0.0
C1142 C 0.56684 0.8534 0.03217 0.0
C1143 C 0.58723 0.85574 0.01469 0.0
C1144 C 0.541 0.85206 0.02415 0.0
C1145 C 0.58063 0.85651 0.98887 0.0
C1146 C 0.55508 0.85548 0.98082 0.0
C1147 C 0.50889 0.85239 0.99032 0.0
C1148 C 0.48864 0.85008 1.00809 0.0
C1149 C 0.5349 0.8533 0.99822 0.0
C1150 C 0.49557 0.84845 0.03379 0.0
C1151 C 0.52105 0.8495 0.04165 0.0
H1152 H 0.45959 0.7176 0.9818 0.0
H1153 H 0.5397 0.7156 0.96859 0.0
H1154 H 0.54741 0.71772 1.01397 0.0
H1155 H 0.53228 0.71955 0.05832 0.0
H1156 H 0.45257 0.72108 0.07319 0.0
H1157 H 0.44417 0.71986 0.02741 0.0
C1158 C 0.47879 0.71761 0.98874 0.0
C1159 C 0.49904 0.71627 0.97079 0.0
C1160 C 0.4833 0.71871 0.01573 0.0
C1161 C 0.52359 0.71643 0.98108 0.0
C1162 C 0.52807 0.71767 1.00739 0.0
C1163 C 0.51292 0.71955 0.05179 0.0
C1164 C 0.49315 0.72028 0.07015 0.0
C1165 C 0.5082 0.71868 0.02505 0.0
C1166 C 0.46838 0.72044 0.06032 0.0
C1167 C 0.46357 0.71972 0.03379 0.0
H1168 H 0.32613 0.54543 0.99218 0.0
H1169 H 0.34904 0.46755 0.99433 0.0
H1170 H 0.35055 0.46834 0.04034 0.0
H1171 H 0.3432 0.48958 0.0811 0.0
H1172 H 0.31867 0.56679 0.08091 0.0
H1173 H 0.31947 0.5675 0.03431 0.0
C1174 C 0.33153 0.52857 1.00262 0.0
C1175 C 0.33755 0.50628 0.98876 0.0
C1176 C 0.33188 0.52893 0.03006 0.0
C1177 C 0.34429 0.48497 1.00355 0.0
C1178 C 0.34528 0.48544 0.03025 0.0
C1179 C 0.3384 0.50689 0.0711 0.0
C1180 C 0.33101 0.52824 0.08551 0.0
C1181 C 0.33889 0.50713 0.0439 0.0
C1182 C 0.32465 0.55004 0.07121 0.0
C1183 C 0.32502 0.55037 0.0442 0.0
H1184 H 0.50745 0.31168 0.98746 0.0
H1185 H 0.56794 0.36599 0.98335 0.0
H1186 H 0.56638 0.37096 0.02914 0.0
H1187 H 0.54839 0.35972 0.07217 0.0
H1188 H 0.4893 0.30365 0.07656 0.0
H1189 H 0.49102 0.29859 0.03099 0.0
C1190 C 0.5201 0.3248 0.99644 0.0
C1191 C 0.53747 0.33874 0.98081 0.0
C1192 C 0.51956 0.32721 0.02372 0.0
C1193 C 0.55405 0.35507 0.99389 0.0
C1194 C 0.55318 0.35799 0.02052 0.0
C1195 C 0.53553 0.34665 0.06321 0.0
C1196 C 0.51853 0.33216 0.07883 0.0
C1197 C 0.53603 0.34424 0.03593 0.0
C1198 C 0.50243 0.31537 0.06588 0.0
C1199 C 0.5032 0.31263 0.03927 0.0
H1200 H 0.70997 0.51187 0.98376 0.0
H1201 H 0.69929 0.59227 0.97954 0.0
H1202 H 0.69727 0.59395 0.02567 0.0
H1203 H 0.69818 0.57263 0.06886 0.0
H1204 H 0.71074 0.49234 0.07227 0.0
H1205 H 0.71246 0.49098 0.02647 0.0
C1206 C 0.70706 0.52981 0.9928 0.0
C1207 C 0.70448 0.55191 0.97728 0.0
C1208 C 0.70624 0.53081 0.02002 0.0
C1209 C 0.70121 0.5748 0.99024 0.0
C1210 C 0.70004 0.57581 0.017 0.0
C1211 C 0.70122 0.55477 0.05972 0.0
C1212 C 0.70399 0.53252 0.07512 0.0
C1213 C 0.70244 0.55395 0.03239 0.0
C1214 C 0.70822 0.5099 0.06188 0.0
C1215 C 0.70925 0.50902 0.03522 0.0
H1216 H 0.98841 0.48369 0.70161 0.0
H1217 H 0.96631 0.55476 0.73284 0.0
H1218 H 1.01056 0.56608 0.73935 0.0
H1219 H 0.05658 0.55686 0.73587 0.0
H1220 H 0.0796 0.48658 0.70393 0.0
H1221 H 0.03523 0.47493 0.69708 0.0
C1222 C 0.99314 0.50171 0.70981 0.0
C1223 C 0.97306 0.51821 0.71668 0.0
C1224 C 0.01942 0.50866 0.71304 0.0
C1225 C 0.98055 0.54147 0.72715 0.0
C1226 C 1.00621 0.54806 0.73094 0.0
C1227 C 0.05208 0.53882 0.72755 0.0
C1228 C 0.07236 0.52272 0.72058 0.0
C1229 C 0.02598 0.53195 0.72396 0.0
C1230 C 0.06521 0.49961 0.70963 0.0
C1231 C 0.03946 0.49288 0.70569 0.0
H1232 H 0.54672 0.99003 0.72057 0.0
H1233 H 0.47206 0.97882 0.69057 0.0
H1234 H 0.46602 0.0246 0.6887 0.0
H1235 H 0.48023 0.06877 0.69837 0.0
H1236 H 0.55482 0.08051 0.7282 0.0
H1237 H 0.56191 0.03473 0.72818 0.0
C1238 C 0.52901 0.99747 0.71367 0.0
C1239 C 0.50985 0.98003 0.70575 0.0
C1240 C 0.52531 0.0245 0.71316 0.0
C1241 C 0.48725 0.99093 0.6969 0.0
C1242 C 0.48374 0.01747 0.69587 0.0
C1243 C 0.49822 0.06151 0.70469 0.0
C1244 C 0.5169 0.079 0.71342 0.0
C1245 C 0.50236 0.03461 0.70435 0.0
C1246 C 0.53994 0.06831 0.72136 0.0
C1247 C 0.54399 0.04177 0.72141 0.0
H1248 H 0.96082 0.49232 0.32866 0.0
H1249 H 0.96395 0.57195 0.34485 0.0
H1250 H 1.00939 0.57077 0.34578 0.0
H1251 H 0.04951 0.54867 0.34165 0.0
H1252 H 0.04983 0.469 0.32728 0.0
H1253 H 1.00325 0.46887 0.32612 0.0
C1254 C 0.97133 0.50942 0.33257 0.0
C1255 C 0.95771 0.53239 0.33672 0.0
C1256 C 0.99878 0.50874 0.33338 0.0
C1257 C 0.97275 0.55392 0.34164 0.0
C1258 C 0.99926 0.55335 0.34217 0.0
C1259 C 0.03966 0.53102 0.33838 0.0
C1260 C 0.05413 0.50881 0.33471 0.0
C1261 C 1.01264 0.53106 0.338 0.0
C1262 C 0.04001 0.48649 0.33045 0.0
C1263 C 1.01301 0.48648 0.32969 0.0
H1264 H 0.46307 0.06669 0.3487 0.0
H1265 H 0.54306 0.07332 0.33596 0.0
H1266 H 0.54638 0.02765 0.33343 0.0
H1267 H 0.52731 0.98404 0.33536 0.0
H1268 H 0.44723 0.97694 0.34684 0.0
H1269 H 0.44365 0.02281 0.34912 0.0
C1270 C 0.48126 0.0583 0.34525 0.0
C1271 C 0.50279 0.07456 0.34256 0.0
C1272 C 0.48326 0.03104 0.34371 0.0
C1273 C 0.52596 0.06222 0.33824 0.0
C1274 C 0.52798 0.03564 0.33675 0.0
C1275 C 0.50902 0.99236 0.33845 0.0
C1276 C 0.48761 0.97599 0.34116 0.0
C1277 C 0.50688 0.01956 0.33959 0.0
C1278 C 0.46426 0.98819 0.34481 0.0
C1279 C 0.46213 0.01484 0.34616 0.0
H1280 H 0.68656 0.98414 0.48383 0.0
H1281 H 0.70256 0.96734 0.56204 0.0
H1282 H 0.70653 1.0127 0.5703 0.0
H1283 H 0.70534 0.05798 0.55551 0.0
H1284 H 0.68827 0.07458 0.47747 0.0
H1285 H 0.68493 0.02924 0.46918 0.0
C1286 C 0.69075 0.99028 0.5028 0.0
C1287 C 0.69397 0.97167 0.52232 0.0
C1288 C 0.69288 0.0168 0.5075 0.0
C1289 C 0.69967 0.98065 0.54659 0.0
C1290 C 0.70203 1.00684 0.55132 0.0
C1291 C 0.70084 0.05181 0.53662 0.0
C1292 C 0.69704 0.0704 0.51716 0.0
C1293 C 0.69864 0.02524 0.53198 0.0
C1294 C 0.69125 0.06133 0.49294 0.0
C1295 C 0.68934 0.03515 0.48818 0.0
H1296 H 0.05853 0.71817 0.55454 0.0
H1297 H 0.05911 0.6963 0.47662 0.0
H1298 H 1.01304 0.69448 0.47639 0.0
H1299 H 0.971 0.70071 0.49756 0.0
H1300 H 0.97078 0.72244 0.5756 0.0
H1301 H 0.01672 0.72373 0.5759 0.0
C1302 C 0.04868 0.71311 0.5374 0.0
C1303 C 0.06315 0.7073 0.51558 0.0
C1304 C 0.02148 0.71274 0.53708 0.0
C1305 C 0.04922 0.70093 0.49378 0.0
C1306 C 0.02251 0.70004 0.49356 0.0
C1307 C 0.98088 0.7058 0.51466 0.0
C1308 C 0.96651 0.71147 0.5366 0.0
C1309 C 1.00815 0.70621 0.51494 0.0
C1310 C 0.98056 0.71787 0.55834 0.0
C1311 C 1.00722 0.71863 0.55858 0.0
H1312 H 0.32059 0.99633 0.50512 0.0
H1313 H 0.29876 0.9891 0.58316 0.0
H1314 H 0.29624 0.03537 0.58566 0.0
H1315 H 0.29922 0.07904 0.5654 0.0
H1316 H 0.31824 0.08539 0.48643 0.0
H1317 H 0.32205 0.03935 0.48459 0.0
C1318 C 0.31506 1.00468 0.52276 0.0
C1319 C 0.30975 0.98821 0.54392 0.0
C1320 C 0.31293 0.03177 0.52386 0.0
C1321 C 0.30317 1.00038 0.56649 0.0
C1322 C 0.30158 0.0272 0.56786 0.0
C1323 C 0.30434 0.07051 0.54769 0.0
C1324 C 0.3086 0.08671 0.52601 0.0
C1325 C 0.30627 0.0433 0.54665 0.0
C1326 C 0.31491 0.07434 0.5035 0.0
C1327 C 0.31712 0.04765 0.50246 0.0
H1328 H 0.0503 0.35123 0.50371 0.0
H1329 H 0.04876 0.3504 0.58494 0.0
H1330 H 1.00274 0.34552 0.5843 0.0
H1331 H 0.96123 0.34206 0.5605 0.0
H1332 H 0.9641 0.34262 0.4791 0.0
H1333 H 1.0097 0.34678 0.48028 0.0
C1334 C 0.04003 0.35003 0.52137 0.0
C1335 C 0.05385 0.35135 0.54441 0.0
C1336 C 1.01298 0.34716 0.52092 0.0
C1337 C 0.03936 0.3496 0.56681 0.0
C1338 C 1.01268 0.34676 0.56646 0.0
C1339 C 0.9717 0.34307 0.54296 0.0
C1340 C 0.95812 0.34217 0.5196 0.0
C1341 C 0.99895 0.34559 0.54362 0.0
C1342 C 0.97306 0.34343 0.49745 0.0
C1343 C 0.99959 0.34584 0.49804 0.0
H1344 H 0.08275 0.27789 0.31764 0.0
H1345 H 1.00438 0.26491 0.3351 0.0
H1346 H 0.99242 0.29557 0.30204 0.0
H1347 H 1.00417 0.32867 0.26947 0.0
H1348 H 0.08271 0.34053 0.25174 0.0
H1349 H 0.09428 0.30826 0.28302 0.0
C1350 C 0.06296 0.28139 0.31405 0.0
C1351 C 0.04459 0.26856 0.32926 0.0
C1352 C 0.05613 0.2993 0.29477 0.0
C1353 C 0.01911 0.2739 0.32395 0.0
C1354 C 1.01223 0.29174 0.30497 0.0
C1355 C 0.02384 0.32397 0.27205 0.0
C1356 C 0.04244 0.33752 0.25768 0.0
C1357 C 0.03054 0.30492 0.29039 0.0
C1358 C 0.06777 0.3308 0.26195 0.0
C1359 C 0.07448 0.31221 0.28013 0.0
H1360 H 0.78985 0.06944 0.34173 0.0
H1361 H 0.82377 0.99634 0.3345 0.0
H1362 H 0.7951 0.98727 0.299 0.0
H1363 H 0.75781 0.99913 0.27147 0.0
H1364 H 0.72532 0.07294 0.27916 0.0
H1365 H 0.75573 0.08248 0.31252 0.0
C1366 C 0.79144 0.05154 0.33226 0.0
C1367 C 0.80958 0.0337 0.34123 0.0
C1368 C 0.77471 0.04647 0.31176 0.0
C1369 C 0.8107 1.01073 0.32826 0.0
C1370 C 0.79395 1.00546 0.30794 0.0
C1371 C 0.75753 0.01751 0.28012 0.0
C1372 C 0.73875 0.03529 0.27222 0.0
C1373 C 0.77551 0.02303 0.29968 0.0
C1374 C 0.73917 0.05883 0.2842 0.0
C1375 C 0.75666 0.06428 0.30356 0.0
H1376 H 0.07743 0.79896 0.33569 0.0
H1377 H 0.99648 0.79279 0.33886 0.0
H1378 H 0.99695 0.76054 0.30656 0.0
H1379 H 0.02032 0.73101 0.27866 0.0
H1380 H 0.10117 0.7382 0.27433 0.0
H1381 H 0.1005 0.77213 0.30482 0.0
C1382 C 0.0598 0.79113 0.32889 0.0
C1383 C 0.03686 0.79903 0.34008 0.0
C1384 C 0.0601 0.77198 0.30991 0.0
C1385 C 0.0145 0.78769 0.33091 0.0
C1386 C 0.01472 0.76888 0.31233 0.0
C1387 C 0.03781 0.74015 0.28405 0.0
C1388 C 0.06082 0.73135 0.27374 0.0
C1389 C 0.0374 0.76037 0.30187 0.0
C1390 C 0.08306 0.74396 0.28154 0.0
C1391 C 0.08275 0.76364 0.29923 0.0
H1392 H 0.33854 0.05684 0.25927 0.0
H1393 H 0.35032 0.977 0.2515 0.0
H1394 H 0.31902 0.96835 0.28465 0.0
H1395 H 0.2903 0.98345 0.31879 0.0
H1396 H 0.2764 0.06316 0.32447 0.0
H1397 H 0.30586 0.07161 0.28969 0.0
C1398 C 0.33389 0.03745 0.26432 0.0
C1399 C 0.34716 0.01763 0.25227 0.0
C1400 C 0.31538 0.03253 0.28353 0.0
C1401 C 0.34062 0.99276 0.25974 0.0
C1402 C 0.32269 0.98779 0.27905 0.0
C1403 C 0.29324 1.00271 0.31217 0.0
C1404 C 0.2807 0.02261 0.32485 0.0
C1405 C 0.3102 1.00749 0.2915 0.0
C1406 C 0.28529 0.04731 0.31555 0.0
C1407 C 0.30241 0.0522 0.29552 0.0
H1408 H 0.04781 0.73279 0.80517 0.0
H1409 H 0.96683 0.73856 0.80393 0.0
H1410 H 0.96944 0.7714 0.77133 0.0
H1411 H 0.99451 0.79813 0.74091 0.0
H1412 H 0.07558 0.79524 0.74513 0.0
H1413 H 0.07295 0.76272 0.778 0.0
C1414 C 0.03071 0.7414 0.79805 0.0
C1415 C 1.00712 0.73262 0.80746 0.0
C1416 C 0.03226 0.7612 0.7793 0.0
C1417 C 0.98536 0.74449 0.79756 0.0
C1418 C 0.98679 0.76346 0.77861 0.0
C1419 C 1.01163 0.7907 0.74921 0.0
C1420 C 0.03525 0.7996 0.73994 0.0
C1421 C 1.0101 0.77195 0.76902 0.0
C1422 C 0.05703 0.78927 0.75141 0.0
C1423 C 0.0556 0.77035 0.7704 0.0
H1424 H 0.33617 1.01042 0.78187 0.0
H1425 H 0.3289 0.08873 0.80096 0.0
H1426 H 0.29332 0.09269 0.77148 0.0
H1427 H 0.26597 0.07479 0.73726 0.0
H1428 H 0.27252 0.99599 0.71968 0.0
H1429 H 0.30599 0.99148 0.75118 0.0
C1430 C 0.32654 0.02832 0.78006 0.0
C1431 C 0.33558 0.04923 0.79421 0.0
C1432 C 0.30579 0.03046 0.76287 0.0
C1433 C 0.32258 0.07215 0.791 0.0
C1434 C 0.30219 0.07446 0.7738 0.0
C1435 C 0.27429 0.05643 0.74058 0.0
C1436 C 0.26623 0.03572 0.7255 0.0
C1437 C 0.29381 0.05388 0.75922 0.0
C1438 C 0.27782 1.01232 0.73052 0.0
C1439 C 0.29724 1.00975 0.74866 0.0
H1440 H 0.99094 0.31883 0.79054 0.0
H1441 H 0.06919 0.34099 0.78602 0.0
H1442 H 0.07699 0.30848 0.75529 0.0
H1443 H 0.06161 0.27492 0.72603 0.0
H1444 H 0.98401 0.25104 0.73176 0.0
H1445 H 0.97666 0.28175 0.76467 0.0
C1446 C 1.00985 0.31628 0.78338 0.0
C1447 C 0.02931 0.33314 0.79128 0.0
C1448 C 0.01462 0.29679 0.76517 0.0
C1449 C 0.0535 0.32894 0.78084 0.0
C1450 C 0.05814 0.31009 0.76291 0.0
C1451 C 0.04324 0.27581 0.73488 0.0
C1452 C 0.02354 0.25988 0.72587 0.0
C1453 C 0.03886 0.294 0.7544 0.0
C1454 C 0.99984 0.26247 0.73786 0.0
C1455 C 0.99545 0.28039 0.75686 0.0
H1456 H 0.78578 0.08681 0.73891 0.0
H1457 H 0.81134 1.01164 0.72385 0.0
H1458 H 0.78239 0.99459 0.75611 0.0
H1459 H 0.74676 1.00045 0.78658 0.0
H1460 H 0.72483 0.0759 0.80542 0.0
H1461 H 0.75508 0.0931 0.77452 0.0
C1462 C 0.78552 0.06672 0.74304 0.0
C1463 C 0.80126 0.05068 0.72858 0.0
C1464 C 0.76911 0.05695 0.76252 0.0
C1465 C 0.8001 0.02467 0.73452 0.0
C1466 C 0.78323 0.01484 0.75301 0.0
C1467 C 0.74904 0.02073 0.78456 0.0
C1468 C 0.73316 0.03667 0.79898 0.0
C1469 C 0.76727 0.03068 0.76693 0.0
C1470 C 0.73663 0.0629 0.79536 0.0
C1471 C 0.75395 0.07282 0.77729 0.0
H1472 H 0.31906 0.27131 0.99292 0.0
H1473 H 0.33216 0.27186 0.07323 0.0
H1474 H 0.30032 0.30476 0.07762 0.0
H1475 H 0.27054 0.3362 0.05851 0.0
H1476 H 0.25664 0.33526 0.97838 0.0
H1477 H 0.28629 0.30019 0.9743 0.0
C1478 C 0.31469 0.27816 1.01156 0.0
C1479 C 0.32846 0.26834 0.03278 0.0
C1480 C 0.29601 0.2975 1.01399 0.0
C1481 C 0.32216 0.27824 0.05651 0.0
C1482 C 0.30388 0.29743 0.059 0.0
C1483 C 0.27351 0.32809 0.04011 0.0
C1484 C 0.26064 0.33881 0.01878 0.0
C1485 C 0.29089 0.30759 0.03788 0.0
C1486 C 0.26548 0.32769 0.99528 0.0
C1487 C 0.28281 0.30756 0.99292 0.0
H1488 H 0.32533 0.8018 0.04109 0.0
H1489 H 0.3465 0.80455 0.96253 0.0
H1490 H 0.31449 0.77242 0.95332 0.0
H1491 H 0.28193 0.7409 0.96771 0.0
H1492 H 0.25962 0.73887 0.04592 0.0
H1493 H 0.28991 0.77287 0.05479 0.0
C1494 C 0.3227 0.79582 0.02179 0.0
C1495 C 0.33875 0.80631 1.00255 0.0
C1496 C 0.30384 0.777 0.01649 0.0
C1497 C 0.3347 0.79759 0.97784 0.0
C1498 C 0.31631 0.77885 0.97255 0.0
C1499 C 0.28325 0.74811 0.9867 0.0
C1500 C 0.26786 0.73687 1.00604 0.0
C1501 C 0.30094 0.76806 0.99172 0.0
C1502 C 0.27054 0.74685 0.03043 0.0
C1503 C 0.28819 0.76638 0.03558 0.0
H1504 H 0.79205 0.34646 0.03021 0.0
H1505 H 0.80982 0.3304 0.1083 0.0
H1506 H 0.77887 0.29624 0.10914 0.0
H1507 H 0.74426 0.27195 0.08914 0.0
H1508 H 0.72731 0.28498 1.01058 0.0
H1509 H 0.76 0.31819 1.00851 0.0
C1510 C 0.78947 0.3353 0.04735 0.0
C1511 C 0.80377 0.3417 0.06928 0.0
C1512 C 0.77149 0.3147 0.04767 0.0
C1513 C 0.79961 0.32652 0.09107 0.0
C1514 C 0.78165 0.30674 0.09162 0.0
C1515 C 0.7481 0.2815 0.07128 0.0
C1516 C 0.73316 0.27517 0.04992 0.0
C1517 C 0.7672 0.30074 0.07022 0.0
C1518 C 0.73853 0.28855 0.02726 0.0
C1519 C 0.75719 0.30797 0.02618 0.0
H1520 H 0.78747 0.7375 0.05859 0.0
H1521 H 0.82485 0.7616 0.98997 0.0
H1522 H 0.79475 0.79579 0.98454 0.0
H1523 H 0.75568 0.81758 0.99698 0.0
H1524 H 0.71756 0.79473 0.06544 0.0
H1525 H 0.74961 0.7622 0.07314 0.0
C1526 C 0.78945 0.75055 0.04274 0.0
C1527 C 0.80908 0.7466 0.02479 0.0
C1528 C 0.77152 0.7706 0.03949 0.0
C1529 C 0.81047 0.76382 1.00424 0.0
C1530 C 0.793 0.78351 1.00102 0.0
C1531 C 0.7545 0.80584 1.01391 0.0
C1532 C 0.73385 0.80918 0.03063 0.0
C1533 C 0.77314 0.78691 0.01819 0.0
C1534 C 0.73304 0.79326 0.05226 0.0
C1535 C 0.75145 0.77435 0.05658 0.0
H1536 H 0.47332 0.76067 0.81363 0.0
H1537 H 0.5543 0.76568 0.81792 0.0
H1538 H 0.55468 0.79863 0.78527 0.0
H1539 H 0.53211 0.82914 0.75672 0.0
H1540 H 0.45125 0.82326 0.75129 0.0
H1541 H 0.45104 0.78855 0.78207 0.0
C1542 C 0.49115 0.76842 0.80703 0.0
C1543 C 0.51383 0.75993 0.81867 0.0
C1544 C 0.49136 0.78798 0.78778 0.0
C1545 C 0.53645 0.7712 0.80968 0.0
C1546 C 0.53673 0.79041 0.79086 0.0
C1547 C 0.51443 0.82006 0.76184 0.0
C1548 C 0.49169 0.82948 0.75112 0.0
C1549 C 0.51432 0.79944 0.77992 0.0
C1550 C 0.46918 0.817 0.75875 0.0
C1551 C 0.46898 0.79689 0.77664 0.0
H1552 H 0.24181 0.49842 0.76035 0.0
H1553 H 0.20687 0.56873 0.77953 0.0
H1554 H 0.23616 0.57326 0.81497 0.0
H1555 H 0.27003 0.55612 0.84282 0.0
H1556 H 0.3054 0.486 0.82404 0.0
H1557 H 0.27815 0.48279 0.78663 0.0
C1558 C 0.24077 0.51503 0.77196 0.0
C1559 C 0.2217 0.5333 0.76664 0.0
C1560 C 0.2579 0.5175 0.79279 0.0
C1561 C 0.22105 0.5544 0.7825 0.0
C1562 C 0.23788 0.55693 0.80307 0.0
C1563 C 0.27221 0.54025 0.83038 0.0
C1564 C 0.29034 0.52139 0.83666 0.0
C1565 C 0.25617 0.53846 0.80872 0.0
C1566 C 0.29223 0.50103 0.82 0.0
C1567 C 0.27634 0.49911 0.79852 0.0
H1568 H 0.56084 0.24022 0.76061 0.0
H1569 H 0.48088 0.22558 0.75714 0.0
H1570 H 0.47395 0.2568 0.78999 0.0
H1571 H 0.49044 0.28702 0.82185 0.0
H1572 H 0.5704 0.30109 0.82635 0.0
H1573 H 0.57721 0.272 0.79139 0.0
C1574 C 0.54177 0.24405 0.76665 0.0
C1575 C 0.52138 0.2302 0.75563 0.0
C1576 C 0.53786 0.26215 0.78615 0.0
C1577 C 0.49702 0.23569 0.76453 0.0
C1578 C 0.49305 0.25363 0.78363 0.0
C1579 C 0.50943 0.28412 0.81506 0.0
C1580 C 0.52986 0.29692 0.82716 0.0
C1581 C 0.51329 0.26685 0.79488 0.0
C1582 C 0.55418 0.29217 0.81773 0.0
C1583 C 0.55809 0.27524 0.79764 0.0
H1584 H 0.76033 0.56048 0.82307 0.0
H1585 H 0.75351 0.47977 0.83218 0.0
H1586 H 0.78421 0.47369 0.7987 0.0
H1587 H 0.81694 0.49086 0.76859 0.0
H1588 H 0.82313 0.57152 0.75883 0.0
H1589 H 0.78961 0.57755 0.78951 0.0
C1590 C 0.76494 0.54153 0.81734 0.0
C1591 C 0.75389 0.52067 0.83069 0.0
C1592 C 0.78321 0.53791 0.79757 0.0
C1593 C 0.76116 0.49641 0.8227 0.0
C1594 C 0.77905 0.4928 0.80336 0.0
C1595 C 0.81049 0.50975 0.77247 0.0
C1596 C 0.82298 0.53065 0.76057 0.0
C1597 C 0.79077 0.51333 0.79081 0.0
C1598 C 0.8142 0.55487 0.76705 0.0
C1599 C 0.79488 0.55845 0.78497 0.0
H1600 H 0.53995 0.21731 0.29532 0.0
H1601 H 0.46333 0.24115 0.30595 0.0
H1602 H 0.46844 0.27328 0.27276 0.0
H1603 H 0.49376 0.29347 0.23768 0.0
H1604 H 0.57086 0.27042 0.22838 0.0
H1605 H 0.56643 0.24027 0.26329 0.0
C1606 C 0.52447 0.22981 0.29081 0.0
C1607 C 0.50117 0.22629 0.30368 0.0
C1608 C 0.52753 0.24877 0.27134 0.0
C1609 C 0.48153 0.24295 0.29683 0.0
C1610 C 0.4844 0.26151 0.27756 0.0
C1611 C 0.50981 0.28233 0.24358 0.0
C1612 C 0.53276 0.28477 0.22984 0.0
C1613 C 0.50719 0.2645 0.26423 0.0
C1614 C 0.55294 0.26944 0.23812 0.0
C1615 C 0.55042 0.25188 0.25828 0.0
H1616 H 0.73068 0.50933 0.24162 0.0
H1617 H 0.74435 0.58639 0.21796 0.0
H1618 H 0.77933 0.58955 0.24768 0.0
H1619 H 0.8083 0.57006 0.28026 0.0
H1620 H 0.79177 0.49415 0.30621 0.0
H1621 H 0.75673 0.49141 0.27683 0.0
C1622 C 0.74105 0.52695 0.2431 0.0
C1623 C 0.73415 0.54758 0.22714 0.0
C1624 C 0.76127 0.52902 0.26109 0.0
C1625 C 0.74846 0.57008 0.22979 0.0
C1626 C 0.76883 0.57195 0.24694 0.0
C1627 C 0.79681 0.55307 0.27993 0.0
C1628 C 0.80344 0.53232 0.29599 0.0
C1629 C 0.77569 0.55155 0.26279 0.0
C1630 C 0.7878 0.51058 0.29449 0.0
C1631 C 0.76749 0.50886 0.2774 0.0
H1632 H 0.47222 0.75668 0.24103 0.0
H1633 H 0.54586 0.76744 0.20808 0.0
H1634 H 0.5552 0.80038 0.23873 0.0
H1635 H 0.54202 0.82834 0.27379 0.0
H1636 H 0.46831 0.81824 0.30666 0.0
H1637 H 0.4598 0.78339 0.27776 0.0
C1638 C 0.49052 0.7659 0.24067 0.0
C1639 C 0.50834 0.75889 0.22181 0.0
C1640 C 0.49582 0.78537 0.25857 0.0
C1641 C 0.53172 0.77176 0.22205 0.0
C1642 C 0.53706 0.79089 0.23969 0.0
C1643 C 0.52415 0.81835 0.27504 0.0
C1644 C 0.50599 0.8263 0.29311 0.0
C1645 C 0.51922 0.79816 0.25793 0.0
C1646 C 0.48294 0.81283 0.29363 0.0
C1647 C 0.47798 0.79281 0.27679 0.0
H1648 H 0.29431 0.5106 0.26194 0.0
H1649 H 0.25278 0.55382 0.20661 0.0
H1650 H 0.2152 0.55162 0.23333 0.0
H1651 H 0.19304 0.53725 0.27267 0.0
H1652 H 0.234 0.49375 0.3282 0.0
H1653 H 0.27193 0.49636 0.30182 0.0
C1654 C 0.27705 0.5195 0.25566 0.0
C1655 C 0.27683 0.53237 0.23181 0.0
C1656 C 0.25499 0.51823 0.2715 0.0
C1657 C 0.25393 0.54375 0.22454 0.0
C1658 C 0.23223 0.54253 0.23998 0.0
C1659 C 0.21028 0.5285 0.27923 0.0
C1660 C 0.21019 0.51544 0.30297 0.0
C1661 C 0.23237 0.52987 0.26358 0.0
C1662 C 0.23306 0.5041 0.31044 0.0
C1663 C 0.25495 0.50551 0.29514 0.0
H1664 H 0.75073 0.81481 0.5612 0.0
H1665 H 0.74802 0.8356 0.48223 0.0
H1666 H 0.78132 0.80503 0.47356 0.0
H1667 H 0.8133 0.77363 0.4885 0.0
H1668 H 0.81644 0.7533 0.56756 0.0
H1669 H 0.78134 0.78194 0.57582 0.0
C1670 C 0.75709 0.81255 0.54194 0.0
C1671 C 0.7462 0.82793 0.52239 0.0
C1672 C 0.77675 0.79484 0.53707 0.0
C1673 C 0.75537 0.82432 0.49775 0.0
C1674 C 0.77471 0.80676 0.4928 0.0
C1675 C 0.80622 0.77512 0.50759 0.0
C1676 C 0.818 0.76071 0.52734 0.0
C1677 C 0.78585 0.79206 0.5123 0.0
C1678 C 0.80813 0.76356 0.55183 0.0
C1679 C 0.78794 0.7802 0.55658 0.0
H1680 H 0.79203 0.28974 0.5534 0.0
H1681 H 0.81965 0.2902 0.47682 0.0
H1682 H 0.79088 0.25546 0.46685 0.0
H1683 H 0.76 0.22248 0.48016 0.0
H1684 H 0.73079 0.22179 0.55599 0.0
H1685 H 0.75748 0.25872 0.56569 0.0
C1686 C 0.7915 0.28263 0.53434 0.0
C1687 C 0.80844 0.29322 0.51589 0.0
C1688 C 0.77449 0.26225 0.52857 0.0
C1689 C 0.80712 0.28311 0.49148 0.0
C1690 C 0.79061 0.26293 0.48577 0.0
C1691 C 0.75896 0.23061 0.49877 0.0
C1692 C 0.74278 0.21902 0.51719 0.0
C1693 C 0.77448 0.25202 0.50418 0.0
C1694 C 0.74232 0.23015 0.54116 0.0
C1695 C 0.75795 0.25129 0.54677 0.0
H1696 H 0.20532 0.77784 0.50487 0.0
H1697 H 0.22321 0.73947 0.57477 0.0
H1698 H 0.25697 0.77003 0.5828 0.0
H1699 H 0.27987 0.81023 0.57204 0.0
H1700 H 0.26115 0.84961 0.50284 0.0
H1701 H 0.23014 0.81683 0.49278 0.0
C1702 C 0.21714 0.77561 0.52144 0.0
C1703 C 0.21182 0.75541 0.53877 0.0
C1704 C 0.23648 0.79407 0.52644 0.0
C1705 C 0.22696 0.75405 0.56066 0.0
C1706 C 0.24627 0.77187 0.56545 0.0
C1707 C 0.26935 0.81153 0.55453 0.0
C1708 C 0.27344 0.83283 0.53825 0.0
C1709 C 0.25101 0.79236 0.5488 0.0
C1710 C 0.25896 0.83376 0.51585 0.0
C1711 C 0.24097 0.81485 0.51004 0.0
H1712 H 0.21399 0.31015 0.4924 0.0
H1713 H 0.19912 0.30254 0.57203 0.0
H1714 H 0.23013 0.2685 0.5753 0.0
H1715 H 0.25787 0.23668 0.55419 0.0
H1716 H 0.27424 0.24649 0.47506 0.0
H1717 H 0.24715 0.28356 0.4731 0.0
C1718 C 0.21813 0.30171 0.51069 0.0
C1719 C 0.20414 0.30958 0.53202 0.0
C1720 C 0.23646 0.28211 0.51252 0.0
C1721 C 0.20971 0.29767 0.55535 0.0
C1722 C 0.22738 0.27782 0.55716 0.0
C1723 C 0.25655 0.24763 0.53679 0.0
C1724 C 0.26918 0.23884 0.51492 0.0
C1725 C 0.24054 0.26935 0.53576 0.0
C1726 C 0.26582 0.25295 0.4924 0.0
C1727 C 0.24985 0.2741 0.49118 0.0
H1728 H 0.1 0.15764 0.3651 0.0
H1729 H 0.14015 0.20882 0.41355 0.0
H1730 H 0.17617 0.18016 0.41469 0.0
H1731 H 0.19546 0.13903 0.40376 0.0
H1732 H 0.15417 0.08805 0.35604 0.0
H1733 H 0.11966 0.11805 0.35276 0.0
C1734 C 0.11669 0.16274 0.37575 0.0
C1735 C 0.1172 0.18548 0.38925 0.0
C1736 C 0.13721 0.14601 0.37657 0.0
C1737 C 0.13912 0.19155 0.40292 0.0
C1738 C 0.15974 0.17507 0.40366 0.0
C1739 C 0.179 0.13464 0.39246 0.0
C1740 C 0.17745 0.11122 0.38017 0.0
C1741 C 0.1589 0.15203 0.39084 0.0
C1742 C 0.15592 0.10584 0.36569 0.0
C1743 C 0.13611 0.12301 0.36383 0.0
H1744 H 1.00761 0.11896 0.40667 0.0
H1745 H 0.97607 0.16189 0.34459 0.0
H1746 H 0.94073 0.13225 0.34214 0.0
H1747 H 0.91631 0.09713 0.36091 0.0
H1748 H 0.94805 0.05319 0.42213 0.0
H1749 H 0.9859 0.07994 0.42147 0.0
C1750 C 0.99326 0.12147 0.39229 0.0
C1751 C 0.99428 0.14271 0.37602 0.0
C1752 C 0.9729 0.10432 0.391 0.0
C1753 C 0.97567 0.14572 0.35737 0.0
C1754 C 0.95536 0.12885 0.35605 0.0
C1755 C 0.9317 0.09318 0.37383 0.0
C1756 C 0.92928 0.07345 0.39176 0.0
C1757 C 0.95339 0.10856 0.37327 0.0
C1758 C 0.94947 0.06829 0.40817 0.0
C1759 C 0.97105 0.08368 0.40789 0.0
H1760 H 0.99339 0.90965 0.37794 0.0
H1761 H 0.96131 0.86229 0.4367 0.0
H1762 H 0.92506 0.89062 0.43951 0.0
H1763 H 0.90331 0.93057 0.42652 0.0
H1764 H 0.93564 0.97631 0.36651 0.0
H1765 H 0.97057 0.94707 0.36294 0.0
C1766 C 0.97841 0.90536 0.39127 0.0
C1767 C 0.98029 0.88383 0.40718 0.0
C1768 C 0.95753 0.92164 0.39263 0.0
C1769 C 0.96046 0.87861 0.42416 0.0
C1770 C 0.93972 0.89493 0.42584 0.0
C1771 C 0.91788 0.93396 0.41251 0.0
C1772 C 0.91675 0.95582 0.39686 0.0
C1773 C 0.93814 0.91674 0.41037 0.0
C1774 C 0.93586 0.95978 0.37881 0.0
C1775 C 0.95598 0.94304 0.37678 0.0
H1776 H 0.1933 0.9577 0.41579 0.0
H1777 H 0.15369 1.01036 0.36766 0.0
H1778 H 0.11605 0.98297 0.36909 0.0
H1779 H 0.09462 0.94291 0.38379 0.0
H1780 H 0.13551 0.89261 0.43371 0.0
H1781 H 0.17203 0.92019 0.43193 0.0
C1782 C 0.17651 0.96319 0.40544 0.0
C1783 C 0.17647 0.98586 0.39134 0.0
C1784 C 0.15495 0.94773 0.40681 0.0
C1785 C 0.15429 0.99289 0.37854 0.0
C1786 C 0.13275 0.97724 0.37939 0.0
C1787 C 0.11145 0.93822 0.39441 0.0
C1788 C 0.11224 0.91556 0.40873 0.0
C1789 C 0.13282 0.95448 0.39347 0.0
C1790 C 0.13426 0.90978 0.42241 0.0
C1791 C 0.15532 0.92554 0.4214 0.0
H1792 H 0.13728 0.97237 0.67483 0.0
H1793 H 0.19267 0.92494 0.64032 0.0
H1794 H 0.16319 0.88929 0.64165 0.0
H1795 H 0.12131 0.87135 0.65212 0.0
H1796 H 0.06566 0.91874 0.68638 0.0
H1797 H 0.09535 0.95422 0.68569 0.0
C1798 C 0.14288 0.95422 0.66765 0.0
C1799 C 0.16724 0.95143 0.65748 0.0
C1800 C 0.12569 0.93362 0.66843 0.0
C1801 C 0.17411 0.92771 0.64825 0.0
C1802 C 0.15722 0.90724 0.649 0.0
C1803 C 0.11567 0.88939 0.65954 0.0
C1804 C 0.09114 0.89218 0.66932 0.0
C1805 C 0.13291 0.90993 0.65899 0.0
C1806 C 0.08432 0.91587 0.67874 0.0
C1807 C 0.10134 0.93627 0.67834 0.0
H1808 H 0.09182 0.12362 0.67273 0.0
H1809 H 0.13894 0.18461 0.64464 0.0
H1810 H 0.17456 0.1563 0.64165 0.0
H1811 H 0.19273 0.11412 0.64623 0.0
H1812 H 0.14642 0.05255 0.67428 0.0
H1813 H 0.11056 0.0809 0.67798 0.0
C1814 C 0.10992 0.13066 0.6661 0.0
C1815 C 0.11257 0.15627 0.65893 0.0
C1816 C 0.13066 0.1141 0.6643 0.0
C1817 C 0.13622 0.16503 0.65029 0.0
C1818 C 0.15672 0.14882 0.64852 0.0
C1819 C 0.17483 0.10687 0.6532 0.0
C1820 C 0.17243 0.08116 0.65993 0.0
C1821 C 0.15419 0.1233 0.65534 0.0
C1822 C 0.14895 0.07222 0.66893 0.0
C1823 C 0.12834 0.08846 0.67108 0.0
H1824 H 0.99846 0.14022 0.66718 0.0
H1825 H 0.94944 0.20468 0.66245 0.0
H1826 H 0.91271 0.17722 0.66819 0.0
H1827 H 0.89413 0.13497 0.67334 0.0
H1828 H 0.94209 0.06972 0.67443 0.0
H1829 H 0.97946 0.09726 0.67157 0.0
C1830 C 0.97974 0.14823 0.66752 0.0
C1831 C 0.9768 0.17456 0.66445 0.0
C1832 C 0.95845 0.13215 0.67026 0.0
C1833 C 0.95234 0.18455 0.66467 0.0
C1834 C 0.93126 0.16884 0.66802 0.0
C1835 C 0.91276 0.12672 0.67327 0.0
C1836 C 0.91527 0.10026 0.67444 0.0
C1837 C 0.93405 0.14262 0.67072 0.0
C1838 C 0.93959 0.08999 0.67375 0.0
C1839 C 0.96097 0.10576 0.67203 0.0
H1840 H 0.98118 0.9262 0.69694 0.0
H1841 H 0.93629 0.87881 0.64866 0.0
H1842 H 0.90223 0.90929 0.64913 0.0
H1843 H 0.88599 0.95039 0.66109 0.0
H1844 H 0.93071 0.99907 0.70805 0.0
H1845 H 0.96382 0.96713 0.71058 0.0
C1846 C 0.96386 0.92257 0.6867 0.0
C1847 C 0.9613 0.9004 0.67267 0.0
C1848 C 0.94429 0.9404 0.68683 0.0
C1849 C 0.93878 0.89584 0.65947 0.0
C1850 C 0.91925 0.91323 0.65974 0.0
C1851 C 0.90284 0.95387 0.67215 0.0
C1852 C 0.90595 0.97698 0.68436 0.0
C1853 C 0.92191 0.9357 0.67307 0.0
C1854 C 0.92791 0.98133 0.69853 0.0
C1855 C 0.94688 0.96313 0.69988 0.0
H1856 H 0.3879 0.06824 0.1414 0.0
H1857 H 0.42549 0.10846 0.20096 0.0
H1858 H 0.42449 0.14734 0.17515 0.0
H1859 H 0.41421 0.16964 0.13468 0.0
H1860 H 0.37693 0.12859 0.07552 0.0
H1861 H 0.37659 0.09042 0.10209 0.0
C1862 C 0.39579 0.0855 0.14893 0.0
C1863 C 0.40682 0.08525 0.17324 0.0
C1864 C 0.39531 0.1077 0.13388 0.0
C1865 C 0.41685 0.10796 0.18245 0.0
C1866 C 0.41635 0.13023 0.1676 0.0
C1867 C 0.40593 0.15234 0.12766 0.0
C1868 C 0.39564 0.15202 0.10301 0.0
C1869 C 0.40584 0.13029 0.14315 0.0
C1870 C 0.38497 0.12944 0.09429 0.0
C1871 C 0.38479 0.10756 0.10952 0.0
H1872 H 0.96184 0.42913 0.18423 0.0
H1873 H 1.00496 0.37762 0.13979 0.0
H1874 H 0.97151 0.377 0.10775 0.0
H1875 H 0.9289 0.39101 0.0924 0.0
H1876 H 0.8883 0.44443 0.13747 0.0
H1877 H 0.92152 0.44434 0.16853 0.0
C1878 C 0.96396 0.41766 0.16761 0.0
C1879 C 0.98588 0.40328 0.16468 0.0
C1880 C 0.94491 0.41778 0.14902 0.0
C1881 C 0.98828 0.38884 0.1427 0.0
C1882 C 0.96911 0.38851 0.12429 0.0
C1883 C 0.92748 0.40278 0.10887 0.0
C1884 C 0.90571 0.41752 0.11234 0.0
C1885 C 0.94719 0.40294 0.12717 0.0
C1886 C 0.90446 0.43264 0.13401 0.0
C1887 C 0.92357 0.43267 0.15205 0.0
H1888 H 0.66279 0.95185 0.18438 0.0
H1889 H 0.70539 1.00887 0.14357 0.0
H1890 H 0.70715 0.98137 0.10671 0.0
H1891 H 0.695 0.94111 0.08543 0.0
H1892 H 0.65013 0.88626 0.12686 0.0
H1893 H 0.65099 0.91276 0.16391 0.0
C1894 C 0.67269 0.95832 0.16754 0.0
C1895 C 0.68406 0.98246 0.16693 0.0
C1896 C 0.67315 0.94268 0.14635 0.0
C1897 C 0.6965 0.99041 0.14469 0.0
C1898 C 0.69748 0.97466 0.12356 0.0
C1899 C 0.68563 0.93496 0.10266 0.0
C1900 C 0.67256 0.91163 0.10333 0.0
C1901 C 0.68568 0.95075 0.12405 0.0
C1902 C 0.66027 0.90408 0.12574 0.0
C1903 C 0.66074 0.91924 0.14701 0.0
H1904 H 0.08005 0.68279 0.14248 0.0
H1905 H 0.13779 0.66229 0.19636 0.0
H1906 H 0.16926 0.66298 0.16321 0.0
H1907 H 0.18086 0.66771 0.1187 0.0
H1908 H 0.12434 0.6879 0.06376 0.0
H1909 H 0.09233 0.68908 0.09718 0.0
C1910 C 0.09954 0.67872 0.14696 0.0
C1911 C 0.10629 0.67238 0.17208 0.0
C1912 C 0.11795 0.67894 0.12749 0.0
C1913 C 0.13176 0.66706 0.17734 0.0
C1914 C 0.14995 0.66744 0.15832 0.0
C1915 C 0.16155 0.67248 0.11402 0.0
C1916 C 0.15504 0.67764 0.08873 0.0
C1917 C 0.14328 0.67305 0.13331 0.0
C1918 C 0.12991 0.68384 0.08307 0.0
C1919 C 0.11157 0.68449 0.10221 0.0
H1920 H 0.37946 1.00353 0.90193 0.0
H1921 H 0.42743 0.97047 0.84586 0.0
H1922 H 0.43221 0.93274 0.87291 0.0
H1923 H 0.42439 0.91038 0.91359 0.0
H1924 H 0.37722 0.94469 0.96954 0.0
H1925 H 0.37072 0.98109 0.94142 0.0
C1926 C 0.39086 0.98804 0.89544 0.0
C1927 C 0.40319 0.98985 0.87193 0.0
C1928 C 0.39389 0.96685 0.91122 0.0
C1929 C 0.41771 0.9695 0.86383 0.0
C1930 C 0.42056 0.94804 0.87936 0.0
C1931 C 0.41271 0.92587 0.91959 0.0
C1932 C 0.40142 0.92504 0.94365 0.0
C1933 C 0.40907 0.94672 0.90328 0.0
C1934 C 0.3862 0.94504 0.95118 0.0
C1935 C 0.38243 0.96578 0.93509 0.0
H1936 H 0.12443 0.37763 0.95813 0.0
H1937 H 0.1624 0.44127 0.92305 0.0
H1938 H 0.13182 0.44161 0.88863 0.0
H1939 H 0.09362 0.42408 0.86827 0.0
H1940 H 0.05648 0.35962 0.90294 0.0
H1941 H 0.08722 0.35918 0.93702 0.0
C1942 C 0.12583 0.39165 0.94304 0.0
C1943 C 0.14553 0.40952 0.94335 0.0
C1944 C 0.10837 0.39147 0.92286 0.0
C1945 C 0.14733 0.42734 0.92339 0.0
C1946 C 0.12988 0.42752 0.90358 0.0
C1947 C 0.0925 0.40975 0.88308 0.0
C1948 C 0.07268 0.39195 0.88289 0.0
C1949 C 0.11031 0.40963 0.90299 0.0
C1950 C 0.07146 0.37364 0.90248 0.0
C1951 C 0.08902 0.37339 0.92216 0.0
H1952 H 0.64643 0.178 0.95611 0.0
H1953 H 0.68514 0.13125 1.01073 0.0
H1954 H 0.69075 0.09868 0.97864 0.0
H1955 H 0.68463 0.08382 0.93451 0.0
H1956 H 0.64757 0.1327 0.88041 0.0
H1957 H 0.64185 0.16439 0.9127 0.0
C1958 C 0.65619 0.16074 0.96109 0.0
C1959 C 0.66534 0.15706 0.98582 0.0
C1960 C 0.65986 0.14259 0.94248 0.0
C1961 C 0.67783 0.1345 0.99187 0.0
C1962 C 0.68112 0.11595 0.97347 0.0
C1963 C 0.67552 0.10152 0.92981 0.0
C1964 C 0.66656 0.10591 0.90503 0.0
C1965 C 0.6723 0.11985 0.94862 0.0
C1966 C 0.6547 0.12887 0.89924 0.0
C1967 C 0.65131 0.14697 0.91775 0.0
H1968 H 0.93214 0.64778 0.89409 0.0
H1969 H 0.99133 0.68824 0.93235 0.0
H1970 H 0.96408 0.69212 0.96965 0.0
H1971 H 0.92237 0.68462 0.99099 0.0
H1972 H 0.86462 0.64357 0.95075 0.0
H1973 H 0.89236 0.63944 0.9149 0.0
C1974 C 0.93925 0.65751 0.91053 0.0
C1975 C 0.96377 0.66785 0.91025 0.0
C1976 C 0.9236 0.6596 0.93171 0.0
C1977 C 0.97254 0.68011 0.93196 0.0
C1978 C 0.95691 0.68236 0.95329 0.0
C1979 C 0.91596 0.67471 0.9744 0.0
C1980 C 0.89126 0.6645 0.97377 0.0
C1981 C 0.93225 0.67228 0.95336 0.0
C1982 C 0.88337 0.65169 0.95202 0.0
C1983 C 0.89926 0.64928 0.93134 0.0
H1984 H 0.14695 0.38454 0.05854 0.0
H1985 H 0.20744 0.42187 0.09814 0.0
H1986 H 0.18193 0.4223 0.13651 0.0
H1987 H 0.14174 0.41372 0.15833 0.0
H1988 H 0.08125 0.37661 0.1187 0.0
H1989 H 0.10749 0.37435 0.08084 0.0
C1990 C 0.15463 0.39265 0.07559 0.0
C1991 C 0.17905 0.40327 0.0754 0.0
C1992 C 0.13982 0.39293 0.09757 0.0
C1993 C 0.18871 0.4136 0.09772 0.0
C1994 C 0.17411 0.4139 0.11968 0.0
C1995 C 0.13439 0.40499 0.14144 0.0
C1996 C 0.1096 0.3954 0.14123 0.0
C1997 C 0.14955 0.40387 0.11974 0.0
C1998 C 0.10029 0.38412 0.11928 0.0
C1999 C 0.11526 0.38287 0.09763 0.0
H2000 H 0.17839 0.65641 0.93309 0.0
H2001 H 0.14234 0.70511 0.98637 0.0
H2002 H 0.10464 0.70659 0.95998 0.0
H2003 H 0.08077 0.69217 0.92279 0.0
H2004 H 0.11627 0.64221 0.87041 0.0
H2005 H 0.15508 0.64315 0.89524 0.0
C2006 C 0.16242 0.66762 0.93875 0.0
C2007 C 0.16328 0.68064 0.9617 0.0
C2008 C 0.1405 0.66801 0.92369 0.0
C2009 C 0.14225 0.69486 0.96884 0.0
C2010 C 0.1206 0.69569 0.95377 0.0
C2011 C 0.09708 0.68165 0.91676 0.0
C2012 C 0.09561 0.66711 0.89483 0.0
C2013 C 0.11933 0.68203 0.93134 0.0
C2014 C 0.11687 0.65351 0.88727 0.0
C2015 C 0.13911 0.65404 0.90146 0.0
H2016 H 0.38602 0.15361 0.99674 0.0
H2017 H 0.42099 0.21341 0.95244 0.0
H2018 H 0.42619 0.18473 0.91731 0.0
H2019 H 0.4208 0.14296 0.89896 0.0
H2020 H 0.38553 0.0828 0.94223 0.0
H2021 H 0.38071 0.11123 0.97809 0.0
C2022 C 0.3947 0.16041 0.97937 0.0
C2023 C 0.40299 0.18578 0.97729 0.0
C2024 C 0.39773 0.14369 0.95912 0.0
C2025 C 0.41431 0.19412 0.95463 0.0
C2026 C 0.41737 0.17768 0.93451 0.0
C2027 C 0.41213 0.13597 0.91627 0.0
C2028 C 0.40357 0.11074 0.91794 0.0
C2029 C 0.40919 0.15247 0.93655 0.0
C2030 C 0.39236 0.10207 0.9405 0.0
C2031 C 0.38953 0.11838 0.96094 0.0
H2032 H 0.92403 0.40826 0.89764 0.0
H2033 H 0.98664 0.37806 0.93992 0.0
H2034 H 0.96104 0.3776 0.97856 0.0
H2035 H 0.92091 0.38723 1.0005 0.0
H2036 H 0.85951 0.41918 0.95758 0.0
H2037 H 0.88446 0.41735 0.919 0.0
C2038 C 0.93208 0.40148 0.9153 0.0
C2039 C 0.95717 0.39322 0.91597 0.0
C2040 C 0.9174 0.40158 0.93732 0.0
C2041 C 0.96736 0.38454 0.93897 0.0
C2042 C 0.95272 0.38428 0.96103 0.0
C2043 C 0.913 0.39355 0.98263 0.0
C2044 C 0.88838 0.40327 0.98184 0.0
C2045 C 0.92772 0.39291 0.96047 0.0
C2046 C 0.8784 0.41164 0.95865 0.0
C2047 C 0.89267 0.41063 0.93659 0.0
H2048 H 0.6909 0.95125 0.88721 0.0
H2049 H 0.66289 1.01053 0.93409 0.0
H2050 H 0.66283 0.98167 0.97074 0.0
H2051 H 0.66785 0.93816 0.98897 0.0
H2052 H 0.69396 0.87921 0.94052 0.0
H2053 H 0.69787 0.90921 0.90543 0.0
C2054 C 0.68506 0.95804 0.90548 0.0
C2055 C 0.67689 0.98313 0.90773 0.0
C2056 C 0.68466 0.94121 0.92639 0.0
C2057 C 0.66928 0.99137 0.93167 0.0
C2058 C 0.66919 0.9748 0.9527 0.0
C2059 C 0.67483 0.93207 0.97085 0.0
C2060 C 0.68064 0.90639 0.96748 0.0
C2061 C 0.67646 0.94949 0.95025 0.0
C2062 C 0.68928 0.89877 0.94371 0.0
C2063 C 0.6915 0.91594 0.92353 0.0
H2064 H 0.99296 0.69772 0.14228 0.0
H2065 H 0.94681 0.66454 0.2013 0.0
H2066 H 0.91049 0.6643 0.17328 0.0
H2067 H 0.89233 0.67063 0.13137 0.0
H2068 H 0.93738 0.70344 0.0715 0.0
H2069 H 0.97349 0.7068 0.1003 0.0
C2070 C 0.97483 0.69084 0.14902 0.0
C2071 C 0.9726 0.68107 0.1738 0.0
C2072 C 0.95387 0.69044 0.13257 0.0
C2073 C 0.94906 0.67206 0.18228 0.0
C2074 C 0.92825 0.67185 0.16626 0.0
C2075 C 0.91001 0.67867 0.12467 0.0
C2076 C 0.91229 0.6866 0.09936 0.0
C2077 C 0.93054 0.68049 0.14125 0.0
C2078 C 0.93522 0.69715 0.09094 0.0
C2079 C 0.95587 0.69904 0.1074 0.0
H2080 H 0.41187 0.927 0.14959 0.0
H2081 H 0.40279 0.99226 0.10087 0.0
H2082 H 0.39768 0.96468 0.06435 0.0
H2083 H 0.39755 0.922 0.04629 0.0
H2084 H 0.40415 0.85696 0.09558 0.0
H2085 H 0.40843 0.88443 0.1321 0.0
C2086 C 0.40878 0.93521 0.13096 0.0
C2087 C 0.40803 0.96164 0.12781 0.0
C2088 C 0.40547 0.91925 0.11027 0.0
C2089 C 0.40358 0.97199 0.10369 0.0
C2090 C 0.40065 0.95621 0.08286 0.0
C2091 C 0.39966 0.91379 0.06505 0.0
C2092 C 0.40125 0.88734 0.06822 0.0
C2093 C 0.40175 0.92981 0.08592 0.0
C2094 C 0.40375 0.87715 0.09267 0.0
C2095 C 0.40601 0.8929 0.1135 0.0
H2096 H 0.69956 0.17181 0.09669 0.0
H2097 H 0.63599 0.20857 0.13031 0.0
H2098 H 0.63464 0.17592 0.16383 0.0
H2099 H 0.64975 0.13492 0.1816 0.0
H2100 H 0.71354 0.09898 0.14737 0.0
H2101 H 0.71652 0.13324 0.11599 0.0
C2102 C 0.68554 0.17292 0.11151 0.0
C2103 C 0.6678 0.19262 0.11089 0.0
C2104 C 0.68479 0.154 0.13046 0.0
C2105 C 0.64995 0.19378 0.13039 0.0
C2106 C 0.64907 0.17495 0.14943 0.0
C2107 C 0.66442 0.13472 0.16737 0.0
C2108 C 0.68133 0.11426 0.16672 0.0
C2109 C 0.66608 0.15466 0.14935 0.0
C2110 C 0.7003 0.11438 0.14828 0.0
C2111 C 0.70198 0.13398 0.13031 0.0
H2112 H 0.59181 0.68769 0.90064 0.0
H2113 H 0.54006 0.64002 0.85993 0.0
H2114 H 0.57142 0.60703 0.85801 0.0
H2115 H 0.6135 0.59037 0.86888 0.0
H2116 H 0.66571 0.63784 0.90902 0.0
H2117 H 0.63473 0.67156 0.91006 0.0
C2118 C 0.58748 0.67019 0.89118 0.0
C2119 C 0.56337 0.6666 0.88054 0.0
C2120 C 0.60583 0.65086 0.89009 0.0
C2121 C 0.55829 0.64358 0.86841 0.0
C2122 C 0.57629 0.62449 0.86729 0.0
C2123 C 0.61811 0.60812 0.87774 0.0
C2124 C 0.64197 0.61137 0.88891 0.0
C2125 C 0.60009 0.62772 0.87824 0.0
C2126 C 0.64753 0.63465 0.90028 0.0
C2127 C 0.62976 0.65407 0.90091 0.0
H2128 H 0.40643 0.55709 0.88814 0.0
H2129 H 0.3441 0.60081 0.91539 0.0
H2130 H 0.37107 0.63881 0.9149 0.0
H2131 H 0.41266 0.6591 0.90683 0.0
H2132 H 0.47442 0.61397 0.88063 0.0
H2133 H 0.44716 0.57662 0.88078 0.0
C2134 C 0.39853 0.57489 0.89394 0.0
C2135 C 0.37321 0.57617 0.90171 0.0
C2136 C 0.41409 0.59625 0.89391 0.0
C2137 C 0.36349 0.5994 0.90926 0.0
C2138 C 0.37892 0.62104 0.90902 0.0
C2139 C 0.42009 0.64103 0.90123 0.0
C2140 C 0.44547 0.63915 0.89371 0.0
C2141 C 0.40429 0.61962 0.90144 0.0
C2142 C 0.45497 0.61577 0.8865 0.0
C2143 C 0.4394 0.59448 0.88654 0.0
H2144 H 0.39115 0.42132 0.92183 0.0
H2145 H 0.43664 0.48201 0.89065 0.0
H2146 H 0.47154 0.45273 0.8845 0.0
H2147 H 0.48875 0.40979 0.88728 0.0
H2148 H 0.44332 0.34913 0.91878 0.0
H2149 H 0.4086 0.37844 0.92522 0.0
C2150 C 0.40875 0.42818 0.91378 0.0
C2151 C 0.41133 0.45384 0.90669 0.0
C2152 C 0.4286 0.41118 0.91013 0.0
C2153 C 0.43424 0.46241 0.89635 0.0
C2154 C 0.45413 0.44563 0.89272 0.0
C2155 C 0.47121 0.40289 0.89542 0.0
C2156 C 0.46861 0.37717 0.90235 0.0
C2157 C 0.45145 0.41994 0.89934 0.0
C2158 C 0.44581 0.36872 0.91313 0.0
C2159 C 0.42597 0.38553 0.9169 0.0
H2160 H 0.62104 0.39645 0.91095 0.0
H2161 H 0.5625 0.43729 0.87194 0.0
H2162 H 0.59018 0.47469 0.86876 0.0
H2163 H 0.63136 0.49582 0.87772 0.0
H2164 H 0.68916 0.45335 0.91661 0.0
H2165 H 0.6615 0.4167 0.91906 0.0
C2166 C 0.61428 0.41353 0.90173 0.0
C2167 C 0.58973 0.41414 0.89176 0.0
C2168 C 0.63025 0.43473 0.89993 0.0
C2169 C 0.58132 0.43637 0.87978 0.0
C2170 C 0.59717 0.45773 0.87798 0.0
C2171 C 0.63789 0.47851 0.88664 0.0
C2172 C 0.6624 0.47751 0.897 0.0
C2173 C 0.62172 0.45717 0.88805 0.0
C2174 C 0.67048 0.45485 0.90849 0.0
C2175 C 0.65464 0.43377 0.90995 0.0
H2176 H 0.5617 0.41139 0.17813 0.0
H2177 H 0.61343 0.35465 0.15347 0.0
H2178 H 0.64716 0.3864 0.15022 0.0
H2179 H 0.66172 0.43107 0.15326 0.0
H2180 H 0.60988 0.48689 0.17996 0.0
H2181 H 0.57673 0.45489 0.18376 0.0
C2182 C 0.58039 0.40586 0.17222 0.0
C2183 C 0.58483 0.38062 0.16557 0.0
C2184 C 0.59978 0.42421 0.17076 0.0
C2185 C 0.6093 0.37395 0.15819 0.0
C2186 C 0.62865 0.39214 0.15643 0.0
C2187 C 0.64319 0.43615 0.16 0.0
C2188 C 0.63831 0.46145 0.16618 0.0
C2189 C 0.62407 0.41745 0.16239 0.0
C2190 C 0.61421 0.46764 0.17503 0.0
C2191 C 0.59517 0.44932 0.1772 0.0
H2192 H 0.55756 0.63069 0.17317 0.0
H2193 H 0.59715 0.68453 0.12542 0.0
H2194 H 0.63252 0.65591 0.12205 0.0
H2195 H 0.65242 0.61581 0.13222 0.0
H2196 H 0.61375 0.56074 0.17921 0.0
H2197 H 0.57788 0.58935 0.18311 0.0
C2198 C 0.57401 0.63611 0.16217 0.0
C2199 C 0.57472 0.65977 0.14964 0.0
C2200 C 0.59441 0.61926 0.15999 0.0
C2201 C 0.59607 0.66647 0.13526 0.0
C2202 C 0.61636 0.65008 0.13327 0.0
C2203 C 0.63613 0.60993 0.14325 0.0
C2204 C 0.63582 0.58611 0.15537 0.0
C2205 C 0.61571 0.62643 0.14543 0.0
C2206 C 0.61449 0.57893 0.1696 0.0
C2207 C 0.59399 0.59534 0.17191 0.0
H2208 H 0.36345 0.61689 0.14868 0.0
H2209 H 0.41081 0.56226 0.18619 0.0
H2210 H 0.446 0.59289 0.18555 0.0
H2211 H 0.46325 0.63612 0.17414 0.0
H2212 H 0.41356 0.68913 0.13677 0.0
H2213 H 0.37978 0.6583 0.13758 0.0
C2214 C 0.38142 0.61147 0.15678 0.0
C2215 C 0.38431 0.58715 0.16749 0.0
C2216 C 0.40139 0.62909 0.15635 0.0
C2217 C 0.40791 0.58079 0.17784 0.0
C2218 C 0.42808 0.59837 0.17744 0.0
C2219 C 0.44506 0.64084 0.16615 0.0
C2220 C 0.44125 0.6652 0.15545 0.0
C2221 C 0.42509 0.62271 0.16671 0.0
C2222 C 0.41737 0.67081 0.14525 0.0
C2223 C 0.39783 0.65309 0.14565 0.0
H2224 H 0.37226 0.43776 0.15122 0.0
H2225 H 0.40693 0.48277 0.20891 0.0
H2226 H 0.44392 0.45527 0.20902 0.0
H2227 H 0.46702 0.41877 0.19139 0.0
H2228 H 0.43108 0.37444 0.13375 0.0
H2229 H 0.39426 0.40136 0.13476 0.0
C2230 C 0.3878 0.44141 0.16402 0.0
C2231 C 0.38687 0.46218 0.18007 0.0
C2232 C 0.40899 0.42576 0.16374 0.0
C2233 C 0.40717 0.46675 0.19648 0.0
C2234 C 0.42838 0.45113 0.19641 0.0
C2235 C 0.45114 0.41518 0.17902 0.0
C2236 C 0.45186 0.39475 0.1624 0.0
C2237 C 0.42966 0.43071 0.17987 0.0
C2238 C 0.43106 0.39009 0.14666 0.0
C2239 C 0.40991 0.40544 0.14724 0.0
H2240 H 0.86248 0.56445 0.64676 0.0
H2241 H 0.9105 0.60547 0.6978 0.0
H2242 H 0.91146 0.64143 0.66807 0.0
H2243 H 0.89998 0.6606 0.62674 0.0
H2244 H 0.85193 0.61944 0.57592 0.0
H2245 H 0.84967 0.58415 0.60638 0.0
C2246 C 0.87306 0.5813 0.65155 0.0
C2247 C 0.88647 0.58213 0.67461 0.0
C2248 C 0.87361 0.60185 0.63428 0.0
C2249 C 0.89997 0.60424 0.68033 0.0
C2250 C 0.90059 0.62479 0.66325 0.0
C2251 C 0.88892 0.64393 0.62236 0.0
C2252 C 0.87618 0.64264 0.59896 0.0
C2253 C 0.88771 0.62371 0.64004 0.0
C2254 C 0.86189 0.62095 0.59369 0.0
C2255 C 0.86064 0.60075 0.61113 0.0
H2256 H 0.39007 0.87361 0.58457 0.0
H2257 H 0.36802 0.94954 0.60162 0.0
H2258 H 0.40062 0.95211 0.63389 0.0
H2259 H 0.43355 0.93207 0.65952 0.0
H2260 H 0.45879 0.85753 0.64136 0.0
H2261 H 0.42719 0.8551 0.6075 0.0
C2262 C 0.39284 0.89087 0.59497 0.0
C2263 C 0.37624 0.91124 0.59098 0.0
C2264 C 0.41204 0.89233 0.61364 0.0
C2265 C 0.38015 0.93343 0.60468 0.0
C2266 C 0.39882 0.93493 0.62318 0.0
C2267 C 0.43219 0.91529 0.64812 0.0
C2268 C 0.44827 0.89486 0.65327 0.0
C2269 C 0.41445 0.91432 0.6283 0.0
C2270 C 0.44657 0.87349 0.63792 0.0
C2271 C 0.42846 0.8721 0.61853 0.0
H2272 H 0.10814 0.42647 0.60684 0.0
H2273 H 0.1718 0.45105 0.56223 0.0
H2274 H 0.18241 0.48289 0.59404 0.0
H2275 H 0.1761 0.49982 0.63774 0.0
H2276 H 0.11409 0.47005 0.68213 0.0
H2277 H 0.10037 0.44435 0.64744 0.0
C2278 C 0.1241 0.43912 0.60379 0.0
C2279 C 0.13923 0.43641 0.58241 0.0
C2280 C 0.1306 0.45626 0.62247 0.0
C2281 C 0.15976 0.45295 0.57858 0.0
C2282 C 0.16598 0.47092 0.59692 0.0
C2283 C 0.15951 0.48787 0.63954 0.0
C2284 C 0.14628 0.48669 0.6626 0.0
C2285 C 0.152 0.47215 0.61946 0.0
C2286 C 0.12476 0.47115 0.66474 0.0
C2287 C 0.1168 0.45642 0.64486 0.0
H2288 H 0.60141 0.14689 0.6803 0.0
H2289 H 0.54662 0.18577 0.63403 0.0
H2290 H 0.57672 0.18794 0.59909 0.0
H2291 H 0.61821 0.17756 0.58114 0.0
H2292 H 0.67228 0.13739 0.627 0.0
H2293 H 0.64297 0.13714 0.66266 0.0
C2294 C 0.59603 0.15595 0.66262 0.0
C2295 C 0.57169 0.16613 0.65984 0.0
C2296 C 0.61336 0.15692 0.64251 0.0
C2297 C 0.56514 0.17772 0.63673 0.0
C2298 C 0.58238 0.17899 0.61671 0.0
C2299 C 0.62365 0.16897 0.59903 0.0
C2300 C 0.64743 0.15758 0.60147 0.0
C2301 C 0.60648 0.16851 0.61932 0.0
C2302 C 0.65413 0.14633 0.62467 0.0
C2303 C 0.63733 0.14612 0.64504 0.0
H2304 H 0.89033 0.39342 0.42778 0.0
H2305 H 0.84438 0.43378 0.48031 0.0
H2306 H 0.84105 0.46919 0.44989 0.0
H2307 H 0.85213 0.4889 0.40819 0.0
H2308 H 0.89689 0.44648 0.35593 0.0
H2309 H 0.89965 0.41179 0.38631 0.0
C2310 C 0.87954 0.40995 0.4326 0.0
C2311 C 0.86775 0.41106 0.45631 0.0
C2312 C 0.8775 0.42992 0.41498 0.0
C2313 C 0.85364 0.4325 0.46216 0.0
C2314 C 0.85179 0.45274 0.44478 0.0
C2315 C 0.8624 0.47202 0.40346 0.0
C2316 C 0.87433 0.47045 0.37972 0.0
C2317 C 0.86376 0.45173 0.4211 0.0
C2318 C 0.88745 0.44833 0.37393 0.0
C2319 C 0.88913 0.4284 0.39135 0.0
H2320 H 0.54996 0.86421 0.40703 0.0
H2321 H 0.58667 0.91733 0.3563 0.0
H2322 H 0.62334 0.91874 0.38434 0.0
H2323 H 0.64438 0.90632 0.42434 0.0
H2324 H 0.60839 0.8521 0.47431 0.0
H2325 H 0.57223 0.8496 0.44558 0.0
C2326 C 0.56604 0.876 0.40198 0.0
C2327 C 0.56537 0.89078 0.37952 0.0
C2328 C 0.58724 0.87656 0.41818 0.0
C2329 C 0.58655 0.90575 0.37334 0.0
C2330 C 0.60755 0.90662 0.38946 0.0
C2331 C 0.6287 0.8938 0.42885 0.0
C2332 C 0.6291 0.87947 0.45158 0.0
C2333 C 0.60802 0.89233 0.41207 0.0
C2334 C 0.60865 0.86328 0.45701 0.0
C2335 C 0.58791 0.86192 0.44058 0.0
H2336 H 0.16196 0.56081 0.41521 0.0
H2337 H 0.12618 0.60878 0.35949 0.0
H2338 H 0.12558 0.64342 0.38938 0.0
H2339 H 0.13377 0.65965 0.43161 0.0
H2340 H 0.16803 0.61188 0.4884 0.0
H2341 H 0.17061 0.57749 0.45794 0.0
C2342 C 0.15431 0.57896 0.40958 0.0
C2343 C 0.14425 0.58231 0.3851 0.0
C2344 C 0.15354 0.59869 0.42713 0.0
C2345 C 0.13409 0.60578 0.37815 0.0
C2346 C 0.13367 0.62556 0.39527 0.0
C2347 C 0.14185 0.64171 0.43737 0.0
C2348 C 0.15067 0.63827 0.46226 0.0
C2349 C 0.14308 0.62214 0.41986 0.0
C2350 C 0.16107 0.61495 0.46939 0.0
C2351 C 0.16256 0.59534 0.45195 0.0
H2352 H 0.45315 0.16444 0.42248 0.0
H2353 H 0.40222 0.16061 0.35911 0.0
H2354 H 0.36624 0.16425 0.38756 0.0
H2355 H 0.34901 0.16872 0.43034 0.0
H2356 H 0.39925 0.16918 0.49434 0.0
H2357 H 0.43554 0.16716 0.46585 0.0
C2358 C 0.43419 0.16451 0.41486 0.0
C2359 C 0.43057 0.16241 0.38849 0.0
C2360 C 0.41337 0.16614 0.4315 0.0
C2361 C 0.40574 0.16221 0.37917 0.0
C2362 C 0.38508 0.16435 0.39548 0.0
C2363 C 0.36784 0.16822 0.43819 0.0
C2364 C 0.37118 0.16906 0.46466 0.0
C2365 C 0.38863 0.16633 0.42168 0.0
C2366 C 0.39593 0.16857 0.47418 0.0
C2367 C 0.41675 0.16738 0.45783 0.0
H2368 H 0.6041 0.89302 0.66304 0.0
H2369 H 0.54286 0.87588 0.61257 0.0
H2370 H 0.57257 0.87267 0.5773 0.0
H2371 H 0.61631 0.87691 0.56033 0.0
H2372 H 0.67679 0.89374 0.6122 0.0
H2373 H 0.64725 0.89467 0.64702 0.0
C2374 C 0.59726 0.88842 0.64435 0.0
C2375 C 0.57132 0.88483 0.64043 0.0
C2376 C 0.61442 0.88659 0.62423 0.0
C2377 C 0.56278 0.87876 0.6161 0.0
C2378 C 0.57978 0.87696 0.5959 0.0
C2379 C 0.62302 0.88048 0.57929 0.0
C2380 C 0.64885 0.88547 0.58339 0.0
C2381 C 0.60571 0.88112 0.59964 0.0
C2382 C 0.65709 0.89009 0.60821 0.0
C2383 C 0.64017 0.89064 0.6283 0.0
H2384 H 0.54792 0.14042 0.44 0.0
H2385 H 0.57577 0.20286 0.3945 0.0
H2386 H 0.61218 0.20722 0.4223 0.0
H2387 H 0.63821 0.19057 0.45692 0.0
H2388 H 0.6101 0.12929 0.50375 0.0
H2389 H 0.57152 0.12741 0.47837 0.0
C2390 C 0.5618 0.1552 0.43646 0.0
C2391 C 0.55937 0.1711 0.4151 0.0
C2392 C 0.58267 0.15772 0.45268 0.0
C2393 C 0.57729 0.19034 0.41079 0.0
C2394 C 0.59817 0.19279 0.42662 0.0
C2395 C 0.62344 0.17707 0.4618 0.0
C2396 C 0.62706 0.15991 0.48195 0.0
C2397 C 0.60137 0.17619 0.44722 0.0
C2398 C 0.6077 0.14272 0.48831 0.0
C2399 C 0.58573 0.14153 0.4737 0.0
H2400 H 0.89214 0.62745 0.38731 0.0
H2401 H 0.84545 0.57345 0.4275 0.0
H2402 H 0.84443 0.60128 0.46414 0.0
H2403 H 0.85778 0.64106 0.48527 0.0
H2404 H 0.90375 0.69489 0.44359 0.0
H2405 H 0.904 0.66725 0.40741 0.0
C2406 C 0.88162 0.62178 0.40404 0.0
C2407 C 0.86891 0.5983 0.40459 0.0
C2408 C 0.88104 0.63795 0.42497 0.0
C2409 C 0.85536 0.59138 0.42647 0.0
C2410 C 0.85484 0.60732 0.44749 0.0
C2411 C 0.86777 0.64678 0.46825 0.0
C2412 C 0.88077 0.67022 0.46743 0.0
C2413 C 0.86774 0.63066 0.44706 0.0
C2414 C 0.89352 0.67715 0.44502 0.0
C2415 C 0.89373 0.66127 0.42418 0.0
H2416 H 0.39155 0.88135 0.49192 0.0
H2417 H 0.33693 0.91677 0.4428 0.0
H2418 H 0.36706 0.9165 0.40794 0.0
H2419 H 0.40896 0.90734 0.39181 0.0
H2420 H 0.46468 0.87325 0.44053 0.0
H2421 H 0.43409 0.87193 0.47539 0.0
C2422 C 0.38623 0.88879 0.4735 0.0
C2423 C 0.36203 0.89895 0.46981 0.0
C2424 C 0.40386 0.88898 0.45365 0.0
C2425 C 0.35541 0.90879 0.44601 0.0
C2426 C 0.37264 0.9087 0.42612 0.0
C2427 C 0.41447 0.89958 0.41006 0.0
C2428 C 0.43903 0.89042 0.41368 0.0
C2429 C 0.39693 0.89905 0.42981 0.0
C2430 C 0.44589 0.88046 0.43738 0.0
C2431 C 0.42839 0.87968 0.45723 0.0
H2432 H 0.11521 0.42556 0.38629 0.0
H2433 H 0.1532 0.48689 0.4237 0.0
H2434 H 0.15845 0.46025 0.46146 0.0
H2435 H 0.1526 0.41998 0.48351 0.0
H2436 H 0.11381 0.35839 0.44738 0.0
H2437 H 0.10884 0.38473 0.40903 0.0
C2438 C 0.1245 0.43318 0.40277 0.0
C2439 C 0.13375 0.45832 0.40221 0.0
C2440 C 0.12753 0.41766 0.42441 0.0
C2441 C 0.14583 0.46776 0.42366 0.0
C2442 C 0.14892 0.45247 0.4452 0.0
C2443 C 0.1431 0.41208 0.46728 0.0
C2444 C 0.13367 0.38706 0.46835 0.0
C2445 C 0.13995 0.42742 0.4457 0.0
C2446 C 0.12136 0.37744 0.44706 0.0
C2447 C 0.11844 0.39258 0.42521 0.0
H2448 H 0.35726 0.15498 0.61538 0.0
H2449 H 0.39634 0.2045 0.56298 0.0
H2450 H 0.43315 0.20529 0.59086 0.0
H2451 H 0.45509 0.19024 0.62961 0.0
H2452 H 0.4156 0.14022 0.68135 0.0
H2453 H 0.37838 0.14125 0.65443 0.0
C2454 C 0.37375 0.16615 0.61021 0.0
C2455 C 0.37406 0.17968 0.58719 0.0
C2456 C 0.39495 0.16625 0.62619 0.0
C2457 C 0.3956 0.19397 0.58066 0.0
C2458 C 0.41672 0.19435 0.59656 0.0
C2459 C 0.43829 0.17967 0.63496 0.0
C2460 C 0.43819 0.16509 0.6574 0.0
C2461 C 0.41677 0.18029 0.61926 0.0
C2462 C 0.41625 0.15153 0.66414 0.0
C2463 C 0.39489 0.1521 0.64875 0.0
H2464 H 0.86565 0.41513 0.56253 0.0
H2465 H 0.89137 0.35417 0.61088 0.0
H2466 H 0.89777 0.38347 0.64525 0.0
H2467 H 0.8969 0.4263 0.6617 0.0
H2468 H 0.87093 0.48781 0.61453 0.0
H2469 H 0.86397 0.45854 0.57963 0.0
C2470 C 0.87246 0.40823 0.58065 0.0
C2471 C 0.87797 0.38235 0.58399 0.0
C2472 C 0.87628 0.42535 0.60053 0.0
C2473 C 0.88692 0.37387 0.60763 0.0
C2474 C 0.89068 0.39066 0.62736 0.0
C2475 C 0.88978 0.43337 0.64375 0.0
C2476 C 0.88459 0.45925 0.64066 0.0
C2477 C 0.88561 0.41643 0.62399 0.0
C2478 C 0.87519 0.46801 0.61735 0.0
C2479 C 0.87115 0.45124 0.59744 0.0
H2480 H 0.18058 0.60101 0.64521 0.0
H2481 H 0.11903 0.63224 0.68708 0.0
H2482 H 0.11375 0.66535 0.65473 0.0
H2483 H 0.12506 0.68418 0.61266 0.0
H2484 H 0.18614 0.6514 0.571 0.0
H2485 H 0.19312 0.62075 0.6048 0.0
C2486 C 0.1662 0.61523 0.6474 0.0
C2487 C 0.15026 0.61406 0.6686 0.0
C2488 C 0.16303 0.63408 0.6285 0.0
C2489 C 0.13162 0.63263 0.67099 0.0
C2490 C 0.12853 0.6516 0.65241 0.0
C2491 C 0.14006 0.67052 0.61116 0.0
C2492 C 0.15489 0.67017 0.58905 0.0
C2493 C 0.14389 0.65237 0.6308 0.0
C2494 C 0.17419 0.65214 0.58754 0.0
C2495 C 0.17828 0.63448 0.60695 0.0
H2496 H 0.10793 0.26142 0.45522 0.0
H2497 H 0.04472 0.31142 0.46427 0.0
H2498 H 0.04116 0.2983 0.50876 0.0
H2499 H 0.06106 0.27792 0.54582 0.0
H2500 H 0.12549 0.23214 0.53699 0.0
H2501 H 0.1217 0.23464 0.49073 0.0
C2502 C 0.09369 0.27003 0.46689 0.0
C2503 C 0.07724 0.28822 0.45676 0.0
C2504 C 0.09128 0.26195 0.49181 0.0
C2505 C 0.05833 0.29832 0.4721 0.0
C2506 C 0.05577 0.2903 0.49719 0.0
C2507 C 0.07376 0.26801 0.53344 0.0
C2508 C 0.09735 0.26066 0.54266 0.0
C2509 C 0.07255 0.27263 0.50733 0.0
C2510 C 0.10992 0.24242 0.52867 0.0
C2511 C 0.10836 0.24455 0.50235 0.0
H2512 H 0.75752 0.18099 0.43798 0.0
H2513 H 0.71575 0.12515 0.39682 0.0
H2514 H 0.75289 0.1165 0.37113 0.0
H2515 H 0.79833 0.11286 0.37338 0.0
H2516 H 0.83995 0.15631 0.42752 0.0
H2517 H 0.80304 0.18261 0.43474 0.0
C2518 C 0.75641 0.1679 0.42244 0.0
C2519 C 0.73447 0.15342 0.4192 0.0
C2520 C 0.77856 0.16046 0.41069 0.0
C2521 C 0.73272 0.13632 0.39944 0.0
C2522 C 0.75403 0.13119 0.38511 0.0
C2523 C 0.79949 0.12896 0.38578 0.0
C2524 C 0.82129 0.13278 0.40019 0.0
C2525 C 0.77743 0.14128 0.39241 0.0
C2526 C 0.82307 0.15324 0.41644 0.0
C2527 C 0.8019 0.16796 0.42071 0.0
H2528 H 0.03646 0.77553 0.48617 0.0
H2529 H 0.01656 0.72716 0.42511 0.0
H2530 H 0.97255 0.72674 0.43858 0.0
H2531 H 0.93954 0.75051 0.45923 0.0
H2532 H 0.95865 0.80287 0.51802 0.0
H2533 H 1.00346 0.79373 0.51221 0.0
C2534 C 0.02253 0.76403 0.47654 0.0
C2535 C 0.02829 0.75423 0.45288 0.0
C2536 C 0.99708 0.76709 0.48232 0.0
C2537 C 1.01156 0.73677 0.44227 0.0
C2538 C 0.98628 0.73745 0.44925 0.0
C2539 C 0.95344 0.76053 0.47036 0.0
C2540 C 0.94598 0.77826 0.48822 0.0
C2541 C 0.97874 0.75467 0.46752 0.0
C2542 C 0.96422 0.79012 0.50328 0.0
C2543 C 0.98964 0.78441 0.50048 0.0
H2544 H 0.25416 0.9369 0.43996 0.0
H2545 H 0.28577 1.00222 0.47646 0.0
H2546 H 0.26456 0.99038 0.51553 0.0
H2547 H 0.24111 0.95969 0.54031 0.0
H2548 H 0.21758 0.8904 0.50728 0.0
H2549 H 0.22709 0.90727 0.46492 0.0
C2550 C 0.2568 0.94825 0.45662 0.0
C2551 C 0.27224 0.96994 0.45557 0.0
C2552 C 0.24434 0.94157 0.47904 0.0
C2553 C 0.27495 0.98482 0.47711 0.0
C2554 C 0.2622 0.97857 0.49922 0.0
C2555 C 0.23702 0.94878 0.52359 0.0
C2556 C 0.2324 0.92298 0.5265 0.0
C2557 C 0.247 0.957 0.50044 0.0
C2558 C 0.22385 0.90984 0.50526 0.0
C2559 C 0.23036 0.91901 0.48118 0.0
H2560 H 0.06905 0.73908 0.63054 0.0
H2561 H 0.13527 0.77157 0.66259 0.0
H2562 H 0.1444 0.79449 0.62297 0.0
H2563 H 0.12838 0.81069 0.58211 0.0
H2564 H 0.06187 0.77806 0.54998 0.0
H2565 H 0.0531 0.75497 0.5895 0.0
C2566 C 0.08582 0.75081 0.62848 0.0
C2567 C 0.09868 0.75861 0.65013 0.0
C2568 C 0.0883 0.76637 0.60704 0.0
C2569 C 0.12296 0.76878 0.64654 0.0
C2570 C 0.12748 0.78297 0.62449 0.0
C2571 C 0.11149 0.79915 0.5842 0.0
C2572 C 0.09806 0.79224 0.56259 0.0
C2573 C 0.10903 0.7834 0.60546 0.0
C2574 C 0.07425 0.78088 0.566 0.0
C2575 C 0.06991 0.76663 0.58799 0.0
H2576 H 0.24779 0.087 0.60465 0.0
H2577 H 0.29497 0.13737 0.64741 0.0
H2578 H 0.27589 0.17383 0.62544 0.0
H2579 H 0.25316 0.18901 0.58791 0.0
H2580 H 0.21642 0.13621 0.53969 0.0
H2581 H 0.21937 0.10337 0.57235 0.0
C2582 C 0.25431 0.10592 0.60884 0.0
C2583 C 0.27412 0.10979 0.62594 0.0
C2584 C 0.2434 0.12616 0.59638 0.0
C2585 C 0.28092 0.13429 0.6329 0.0
C2586 C 0.26955 0.15494 0.62094 0.0
C2587 C 0.24506 0.17038 0.58513 0.0
C2588 C 0.2389 0.16299 0.56056 0.0
C2589 C 0.25164 0.15093 0.60184 0.0
C2590 C 0.22429 0.14106 0.55787 0.0
C2591 C 0.22685 0.12203 0.57613 0.0
H2592 H 0.98671 0.26944 0.58613 0.0
H2593 H 0.95768 0.3095 0.64985 0.0
H2594 H 0.91486 0.29535 0.63953 0.0
H2595 H 0.8867 0.27001 0.61311 0.0
H2596 H 0.91677 0.228 0.55172 0.0
H2597 H 0.95954 0.2395 0.56405 0.0
C2598 C 0.97102 0.27522 0.59766 0.0
C2599 C 0.97525 0.28996 0.61898 0.0
C2600 C 0.94739 0.26453 0.59364 0.0
C2601 C 0.95468 0.29827 0.63318 0.0
C2602 C 0.93047 0.28933 0.62798 0.0
C2603 C 0.9028 0.2626 0.6031 0.0
C2604 C 0.89924 0.25155 0.57949 0.0
C2605 C 0.92684 0.27174 0.60881 0.0
C2606 C 0.91949 0.23877 0.56874 0.0
C2607 C 0.94386 0.24633 0.575 0.0
H2608 H 0.79385 0.98302 0.66364 0.0
H2609 H 0.77234 0.04273 0.61161 0.0
H2610 H 0.75718 1.01162 0.58175 0.0
H2611 H 0.75564 0.96804 0.56832 0.0
H2612 H 0.77646 0.90785 0.61979 0.0
H2613 H 0.78759 0.93891 0.65198 0.0
C2614 C 0.78525 0.98925 0.64604 0.0
C2615 C 0.78479 0.01501 0.63945 0.0
C2616 C 0.77762 0.97131 0.62858 0.0
C2617 C 0.77313 0.02292 0.61691 0.0
C2618 C 0.76485 1.00518 0.59968 0.0
C2619 C 0.76296 0.96175 0.58648 0.0
C2620 C 0.76627 0.936 0.59165 0.0
C2621 C 0.76824 0.97944 0.60487 0.0
C2622 C 0.77461 0.9278 0.61545 0.0
C2623 C 0.78057 0.94545 0.63382 0.0
H2624 H 0.41942 0.0691 0.30437 0.0
H2625 H 0.49324 0.04722 0.28077 0.0
H2626 H 0.49825 0.08701 0.25688 0.0
H2627 H 0.47802 0.12487 0.23778 0.0
H2628 H 0.40384 0.14482 0.259 0.0
H2629 H 0.39828 0.10455 0.28226 0.0
C2630 C 0.43683 0.07335 0.29436 0.0
C2631 C 0.45436 0.0541 0.29077 0.0
C2632 C 0.43741 0.09366 0.27732 0.0
C2633 C 0.47828 0.061 0.28136 0.0
C2634 C 0.48064 0.08293 0.26651 0.0
C2635 C 0.46051 0.11997 0.2473 0.0
C2636 C 0.44371 0.13921 0.25346 0.0
C2637 C 0.45958 0.09843 0.263 0.0
C2638 C 0.419 0.13127 0.25902 0.0
C2639 C 0.41616 0.10892 0.27328 0.0
H2640 H 0.95264 0.41647 0.27243 0.0
H2641 H 0.99907 0.48384 0.273 0.0
H2642 H 0.96423 0.5084 0.25558 0.0
H2643 H 0.92093 0.51035 0.24076 0.0
H2644 H 0.8732 0.44462 0.24637 0.0
H2645 H 0.90979 0.4183 0.25563 0.0
C2646 C 0.95502 0.43663 0.26921 0.0
C2647 C 0.97835 0.44835 0.27382 0.0
C2648 C 0.93554 0.45021 0.25807 0.0
C2649 C 0.98114 0.47449 0.26978 0.0
C2650 C 0.96158 0.48834 0.25906 0.0
C2651 C 0.91873 0.49005 0.24317 0.0
C2652 C 0.89452 0.47954 0.2456 0.0
C2653 C 0.93894 0.47622 0.25267 0.0
C2654 C 0.8918 0.4532 0.246 0.0
C2655 C 0.91248 0.43841 0.2525 0.0
H2656 H 0.60342 0.99164 0.2851 0.0
H2657 H 0.64256 0.92549 0.25985 0.0
H2658 H 0.60299 0.90823 0.24356 0.0
H2659 H 0.55741 0.91108 0.23918 0.0
H2660 H 0.51831 0.97506 0.26842 0.0
H2661 H 0.55842 0.99618 0.27689 0.0
C2662 C 0.60331 0.97318 0.27655 0.0
C2663 C 0.62579 0.95955 0.2741 0.0
C2664 C 0.58091 0.96397 0.26641 0.0
C2665 C 0.62532 0.93592 0.26252 0.0
C2666 C 0.60292 0.92644 0.25257 0.0
C2667 C 0.5578 0.93015 0.24639 0.0
C2668 C 0.53545 0.94072 0.25528 0.0
C2669 C 0.5807 0.94041 0.2543 0.0
C2670 C 0.53559 0.96599 0.26277 0.0
C2671 C 0.55848 0.97762 0.26859 0.0
H2672 H 0.07871 0.5913 0.28289 0.0
H2673 H 0.15311 0.61782 0.26182 0.0
H2674 H 0.16281 0.57615 0.245 0.0
H2675 H 0.15101 0.53139 0.24071 0.0
H2676 H 0.0784 0.5053 0.26459 0.0
H2677 H 0.06524 0.54852 0.27267 0.0
C2678 C 0.09727 0.588 0.2751 0.0
C2679 C 0.11556 0.60737 0.27435 0.0
C2680 C 0.10221 0.56467 0.26461 0.0
C2681 C 0.13915 0.60283 0.26339 0.0
C2682 C 0.14439 0.57936 0.25309 0.0
C2683 C 0.13189 0.53555 0.24648 0.0
C2684 C 0.11697 0.51592 0.25664 0.0
C2685 C 0.12605 0.56016 0.25369 0.0
C2686 C 0.09129 0.52067 0.26 0.0
C2687 C 0.08409 0.54522 0.26566 0.0
H2688 H 0.41894 0.03481 0.72371 0.0
H2689 H 0.4837 0.05772 0.7657 0.0
H2690 H 0.49522 0.01363 0.77337 0.0
H2691 H 0.4797 0.97003 0.778 0.0
H2692 H 0.41108 0.94742 0.74025 0.0
H2693 H 0.4056 0.99049 0.72413 0.0
C2694 C 0.43613 0.02991 0.73369 0.0
C2695 C 0.44803 0.04831 0.74828 0.0
C2696 C 0.43987 1.00476 0.74116 0.0
C2697 C 0.47229 0.04299 0.75735 0.0
C2698 C 0.47829 0.01787 0.7627 0.0
C2699 C 0.46326 0.97454 0.76666 0.0
C2700 C 0.44566 0.95561 0.76052 0.0
C2701 C 0.46074 0.99888 0.75678 0.0
C2702 C 0.42458 0.96181 0.74564 0.0
C2703 C 0.42185 0.98617 0.73577 0.0
H2704 H 0.04745 0.42259 0.72838 0.0
H2705 H 0.01635 0.48289 0.77029 0.0
H2706 H 0.05858 0.49702 0.7827 0.0
H2707 H 0.10189 0.48414 0.79108 0.0
H2708 H 0.13354 0.42137 0.7511 0.0
H2709 H 0.0924 0.41268 0.73205 0.0
C2710 C 0.05026 0.43943 0.73946 0.0
C2711 C 0.02987 0.44888 0.75301 0.0
C2712 C 0.07421 0.44454 0.74926 0.0
C2713 C 0.03258 0.47305 0.76308 0.0
C2714 C 0.05652 0.48046 0.77112 0.0
C2715 C 0.09989 0.46824 0.77856 0.0
C2716 C 0.12083 0.45347 0.77234 0.0
C2717 C 0.07703 0.46463 0.76635 0.0
C2718 C 0.11756 0.43272 0.7564 0.0
C2719 C 0.09441 0.42841 0.74473 0.0
H2720 H 0.67991 0.10532 0.79157 0.0
H2721 H 0.64616 0.04585 0.74827 0.0
H2722 H 0.61506 0.07516 0.73137 0.0
H2723 H 0.58889 0.11048 0.74334 0.0
H2724 H 0.61687 0.16619 0.79489 0.0
H2725 H 0.658 0.14512 0.7962 0.0
C2726 C 0.66625 0.0991 0.77768 0.0
C2727 C 0.66319 0.07331 0.77303 0.0
C2728 C 0.64631 0.11487 0.77151 0.0
C2729 C 0.64752 0.06557 0.75327 0.0
C2730 C 0.62937 0.08213 0.74417 0.0
C2731 C 0.60405 0.11785 0.75495 0.0
C2732 C 0.59991 0.13837 0.7706 0.0
C2733 C 0.62692 0.10557 0.75575 0.0
C2734 C 0.61974 0.14928 0.78406 0.0
C2735 C 0.64317 0.13761 0.78434 0.0
H2736 H 0.96916 0.61025 0.78084 0.0
H2737 H 0.90134 0.63243 0.81956 0.0
H2738 H 0.89383 0.58847 0.83279 0.0
H2739 H 0.90581 0.54391 0.83065 0.0
H2740 H 0.97151 0.52266 0.7901 0.0
H2741 H 0.98409 0.56698 0.78467 0.0
C2742 C 0.95243 0.60562 0.7918 0.0
C2743 C 0.93557 0.62453 0.79899 0.0
C2744 C 0.94931 0.58106 0.80073 0.0
C2745 C 0.91412 0.61799 0.81327 0.0
C2746 C 0.91038 0.59316 0.82164 0.0
C2747 C 0.92342 0.54924 0.82154 0.0
C2748 C 0.93535 0.53171 0.80625 0.0
C2749 C 0.92799 0.57467 0.81563 0.0
C2750 C 0.96012 0.53708 0.79866 0.0
C2751 C 0.96674 0.56233 0.79455 0.0
H2752 H 0.29697 0.42728 0.07845 0.0
H2753 H 0.28491 0.48912 0.02593 0.0
H2754 H 0.27348 0.51626 0.06069 0.0
H2755 H 0.26227 0.52068 0.1049 0.0
H2756 H 0.27144 0.45779 0.15687 0.0
H2757 H 0.28377 0.43097 0.12208 0.0
C2758 C 0.29218 0.44685 0.07464 0.0
C2759 C 0.29118 0.45608 0.04969 0.0
C2760 C 0.2824 0.46116 0.09402 0.0
C2761 C 0.2855 0.48153 0.04502 0.0
C2762 C 0.27791 0.49672 0.0647 0.0
C2763 C 0.26617 0.50089 0.10859 0.0
C2764 C 0.26717 0.49141 0.13347 0.0
C2765 C 0.27505 0.48628 0.08898 0.0
C2766 C 0.27111 0.46554 0.13782 0.0
C2767 C 0.27901 0.45049 0.11814 0.0
H2768 H 0.28221 0.58943 0.99212 0.0
H2769 H 0.24533 0.62134 0.92631 0.0
H2770 H 0.22678 0.58034 0.91693 0.0
H2771 H 0.22443 0.53507 0.92534 0.0
H2772 H 0.26762 0.50224 0.9852 0.0
H2773 H 0.27675 0.54409 1.00221 0.0
C2774 C 0.2706 0.5873 0.9754 0.0
C2775 C 0.26536 0.60827 0.95977 0.0
C2776 C 0.25987 0.56388 0.97024 0.0
C2777 C 0.25002 0.60532 0.93834 0.0
C2778 C 0.2388 0.58212 0.93337 0.0
C2779 C 0.23507 0.53729 0.94269 0.0
C2780 C 0.24934 0.51698 0.95167 0.0
C2781 C 0.2436 0.56134 0.9492 0.0
C2782 C 0.2594 0.51866 0.97609 0.0
C2783 C 0.26564 0.54253 0.98512 0.0
H2784 H 0.46306 0.30451 1.00009 0.0
H2785 H 0.39771 0.31873 0.95493 0.0
H2786 H 0.41542 0.29376 0.92063 0.0
H2787 H 0.44705 0.26216 0.90727 0.0
H2788 H 0.50565 0.24023 0.95823 0.0
H2789 H 0.49025 0.26946 0.98979 0.0
C2790 C 0.45299 0.30249 0.98251 0.0
C2791 C 0.42809 0.31058 0.98105 0.0
C2792 C 0.46062 0.28408 0.96576 0.0
C2793 C 0.41636 0.31084 0.95719 0.0
C2794 C 0.42574 0.29545 0.93818 0.0
C2795 C 0.45565 0.26289 0.92584 0.0
C2796 C 0.47984 0.25283 0.92961 0.0
C2797 C 0.44696 0.28052 0.94316 0.0
C2798 C 0.48836 0.25025 0.9545 0.0
C2799 C 0.48042 0.26785 0.97198 0.0
H2800 H 0.78067 0.47334 0.04841 0.0
H2801 H 0.758 0.40307 0.01505 0.0
H2802 H 0.75064 0.42467 0.97468 0.0
H2803 H 0.75926 0.46115 0.94766 0.0
H2804 H 0.78449 0.53123 0.98 0.0
H2805 H 0.78388 0.51161 0.02217 0.0
C2806 C 0.7729 0.46306 0.0326 0.0
C2807 C 0.77021 0.43676 0.03422 0.0
C2808 C 0.77112 0.47512 1.00907 0.0
C2809 C 0.76012 0.42342 1.0139 0.0
C2810 C 0.7567 0.4356 0.99073 0.0
C2811 C 0.7651 0.47204 0.96386 0.0
C2812 C 0.77277 0.49727 0.96081 0.0
C2813 C 0.76395 0.46096 0.98781 0.0
C2814 C 0.7794 0.51145 0.98199 0.0
C2815 C 0.77856 0.50043 1.00604 0.0
H2816 H 0.60346 0.7846 0.98627 0.0
H2817 H 0.64411 0.80542 0.91832 0.0
H2818 H 0.60429 0.81406 0.8967 0.0
H2819 H 0.55851 0.81289 0.89673 0.0
H2820 H 0.5184 0.78711 0.96298 0.0
H2821 H 0.55758 0.78703 0.98721 0.0
C2822 C 0.60367 0.79042 0.96653 0.0
C2823 C 0.62659 0.79378 0.95358 0.0
C2824 C 0.58099 0.79622 0.95469 0.0
C2825 C 0.62656 0.80198 0.92828 0.0
C2826 C 0.60394 0.80763 0.91623 0.0
C2827 C 0.55833 0.80829 0.91679 0.0
C2828 C 0.53636 0.79832 0.92778 0.0
C2829 C 0.58113 0.80491 0.92934 0.0
C2830 C 0.53554 0.79387 0.95394 0.0
C2831 C 0.55803 0.79284 0.96749 0.0
H2832 H 0.80548 0.6816 0.11712 0.0
H2833 H 0.74501 0.67902 0.0628 0.0
H2834 H 0.71533 0.66689 0.0962 0.0
H2835 H 0.71191 0.64107 0.13429 0.0
H2836 H 0.77725 0.62944 0.18104 0.0
H2837 H 0.79947 0.66377 0.15887 0.0
C2838 C 0.7856 0.67924 0.11284 0.0
C2839 C 0.77735 0.67982 0.08773 0.0
C2840 C 0.76966 0.66931 0.13132 0.0
C2841 C 0.75166 0.67756 0.08211 0.0
C2842 C 0.73481 0.67064 0.10116 0.0
C2843 C 0.73058 0.6471 0.14024 0.0
C2844 C 0.74351 0.63289 0.15844 0.0
C2845 C 0.74424 0.66389 0.12505 0.0
C2846 C 0.76745 0.64026 0.1666 0.0
C2847 C 0.78011 0.65961 0.15375 0.0
H2848 H 0.43412 0.81081 0.07603 0.0
H2849 H 0.39938 0.73751 0.06723 0.0
H2850 H 0.38704 0.73719 0.11206 0.0
H2851 H 0.39298 0.75557 0.15428 0.0
H2852 H 0.43138 0.82576 0.16213 0.0
H2853 H 0.4325 0.83207 0.1165 0.0
C2854 C 0.42416 0.79453 0.08386 0.0
C2855 C 0.41894 0.77342 0.06897 0.0
C2856 C 0.41633 0.7951 0.10878 0.0
C2857 C 0.40474 0.7532 0.07899 0.0
C2858 C 0.39704 0.75341 0.10423 0.0
C2859 C 0.40054 0.77275 0.14568 0.0
C2860 C 0.41753 0.78754 0.1595 0.0
C2861 C 0.40336 0.77402 0.11939 0.0
C2862 C 0.4219 0.8121 0.15035 0.0
C2863 C 0.42318 0.81541 0.1242 0.0
H2864 H 0.60375 0.32307 0.02569 0.0
H2865 H 0.65518 0.35071 0.0802 0.0
H2866 H 0.626 0.33982 0.11441 0.0
H2867 H 0.59566 0.30734 0.12764 0.0
H2868 H 0.54406 0.27591 0.07322 0.0
H2869 H 0.56658 0.29795 0.03907 0.0
C2870 C 0.60795 0.32725 0.04525 0.0
C2871 C 0.63309 0.33103 0.05243 0.0
C2872 C 0.59252 0.31689 0.06422 0.0
C2873 C 0.63687 0.34289 0.07555 0.0
C2874 C 0.62057 0.33595 0.09517 0.0
C2875 C 0.58901 0.3052 0.10843 0.0
C2876 C 0.56971 0.28787 0.1026 0.0
C2877 C 0.59998 0.32006 0.08965 0.0
C2878 C 0.56072 0.28676 0.0777 0.0
C2879 C 0.57265 0.30046 0.05841 0.0
H2880 H 0.9521 0.81255 0.6512 0.0
H2881 H 0.99573 0.74429 0.65013 0.0
H2882 H 0.96112 0.72247 0.62854 0.0
H2883 H 0.92201 0.72525 0.60438 0.0
H2884 H 0.88401 0.79644 0.59669 0.0
H2885 H 0.91217 0.8148 0.62841 0.0
C2886 C 0.95372 0.7927 0.64681 0.0
C2887 C 0.97613 0.7798 0.65226 0.0
C2888 C 0.93466 0.78103 0.63296 0.0
C2889 C 0.97848 0.75436 0.64605 0.0
C2890 C 0.95878 0.74201 0.63374 0.0
C2891 C 0.91958 0.74459 0.61018 0.0
C2892 C 0.90107 0.75958 0.59867 0.0
C2893 C 0.93725 0.75547 0.62631 0.0
C2894 C 0.89802 0.78465 0.60583 0.0
C2895 C 0.91427 0.79513 0.62362 0.0
H2896 H 0.26981 0.95692 0.69285 0.0
H2897 H 0.32558 0.99272 0.6448 0.0
H2898 H 0.34728 0.95242 0.64132 0.0
H2899 H 0.33735 0.9082 0.63404 0.0
H2900 H 0.26711 0.87781 0.66185 0.0
H2901 H 0.26452 0.91183 0.6922 0.0
C2902 C 0.28704 0.95601 0.68189 0.0
C2903 C 0.29515 0.9771 0.66748 0.0
C2904 C 0.29636 0.93239 0.67609 0.0
C2905 C 0.31836 0.97635 0.65504 0.0
C2906 C 0.33052 0.95319 0.65281 0.0
C2907 C 0.32204 0.90859 0.64757 0.0
C2908 C 0.30163 0.89174 0.6449 0.0
C2909 C 0.31781 0.93092 0.66042 0.0
C2910 C 0.28258 0.89121 0.66312 0.0
C2911 C 0.28089 0.91103 0.68001 0.0
H2912 H 0.08487 0.3091 0.66987 0.0
H2913 H 0.12927 0.24222 0.66047 0.0
H2914 H 0.16467 0.26765 0.64508 0.0
H2915 H 0.17358 0.30515 0.61884 0.0
H2916 H 0.12827 0.37142 0.62642 0.0
H2917 H 0.1034 0.35073 0.65946 0.0
C2918 C 0.10278 0.30039 0.66558 0.0
C2919 C 0.10445 0.27414 0.66482 0.0
C2920 C 0.12279 0.31508 0.65639 0.0
C2921 C 0.12766 0.2626 0.66031 0.0
C2922 C 0.14785 0.2771 0.65148 0.0
C2923 C 0.15947 0.31554 0.62915 0.0
C2924 C 0.15149 0.33886 0.61969 0.0
C2925 C 0.14451 0.30296 0.64702 0.0
C2926 C 0.13397 0.35293 0.63322 0.0
C2927 C 0.11943 0.34092 0.65176 0.0
H2928 H 0.8432 0.11508 0.59471 0.0
H2929 H 0.81029 0.1705 0.64302 0.0
H2930 H 0.78663 0.18796 0.60722 0.0
H2931 H 0.76599 0.17804 0.56786 0.0
H2932 H 0.7901 0.11443 0.52447 0.0
H2933 H 0.82705 0.10965 0.55194 0.0
C2934 C 0.83172 0.13175 0.59698 0.0
C2935 C 0.82809 0.14161 0.62114 0.0
C2936 C 0.81604 0.13945 0.57724 0.0
C2937 C 0.81314 0.16286 0.6244 0.0
C2938 C 0.79944 0.17251 0.60405 0.0
C2939 C 0.77959 0.16336 0.56417 0.0
C2940 C 0.77497 0.14576 0.54515 0.0
C2941 C 0.79915 0.15947 0.58119 0.0
C2942 C 0.79313 0.12769 0.53955 0.0
C2943 C 0.81408 0.12494 0.55531 0.0
H2944 H 0.97132 0.28966 0.4009 0.0
H2945 H 0.97394 0.21611 0.43673 0.0
H2946 H 0.93478 0.22409 0.45892 0.0
H2947 H 0.90338 0.25423 0.47251 0.0
H2948 H 0.89933 0.32742 0.43613 0.0
H2949 H 0.9346 0.31699 0.40877 0.0
C2950 C 0.96304 0.27548 0.41344 0.0
C2951 C 0.97557 0.25281 0.41805 0.0
C2952 C 0.94013 0.27994 0.42563 0.0
C2953 C 0.96471 0.23402 0.43362 0.0
C2954 C 0.94226 0.23844 0.4461 0.0
C2955 C 0.90966 0.26744 0.4579 0.0
C2956 C 0.89927 0.29151 0.45644 0.0
C2957 C 0.93023 0.2616 0.44281 0.0
C2958 C 0.90718 0.30863 0.43745 0.0
C2959 C 0.92761 0.30288 0.42212 0.0
H2960 H 0.79437 0.97043 0.40194 0.0
H2961 H 0.77639 0.0304 0.45304 0.0
H2962 H 0.74836 1.00189 0.47661 0.0
H2963 H 0.73753 0.95864 0.48779 0.0
H2964 H 0.75788 0.89749 0.43932 0.0
H2965 H 0.7773 0.92791 0.40941 0.0
C2966 C 0.78391 0.97739 0.41795 0.0
C2967 C 0.78802 1.00206 0.4265 0.0
C2968 C 0.76916 0.9606 0.43214 0.0
C2969 C 0.77378 1.01128 0.44654 0.0
C2970 C 0.75804 0.99495 0.46012 0.0
C2971 C 0.74604 0.95198 0.47055 0.0
C2972 C 0.7474 0.92606 0.46593 0.0
C2973 C 0.75705 0.96932 0.454 0.0
C2974 C 0.75743 0.91748 0.44328 0.0
C2975 C 0.76833 0.9348 0.4263 0.0
H2976 H 0.11497 0.77761 0.37732 0.0
H2977 H 0.13755 0.84842 0.40899 0.0
H2978 H 0.1672 0.8271 0.43695 0.0
H2979 H 0.17036 0.7882 0.46298 0.0
H2980 H 0.14656 0.71727 0.43193 0.0
H2981 H 0.13409 0.73839 0.39268 0.0
C2982 C 0.1278 0.78837 0.38905 0.0
C2983 C 0.12328 0.81393 0.39275 0.0
C2984 C 0.14373 0.77576 0.40584 0.0
C2985 C 0.1403 0.82834 0.40688 0.0
C2986 C 0.15691 0.8161 0.42321 0.0
C2987 C 0.16358 0.77742 0.44706 0.0
C2988 C 0.15807 0.75178 0.4502 0.0
C2989 C 0.15631 0.7897 0.42478 0.0
C2990 C 0.15014 0.73735 0.42969 0.0
C2991 C 0.14303 0.74938 0.40733 0.0
H2992 H 0.31605 0.1344 0.44414 0.0
H2993 H 0.25812 0.1666 0.39693 0.0
H2994 H 0.27294 0.14167 0.36116 0.0
H2995 H 0.29116 0.10107 0.35073 0.0
H2996 H 0.33585 0.06173 0.40572 0.0
H2997 H 0.34241 0.10068 0.42874 0.0
C2998 C 0.30735 0.13663 0.42569 0.0
C2999 C 0.2856 0.15119 0.42293 0.0
C3000 C 0.31502 0.12138 0.40622 0.0
C3001 C 0.27441 0.1546 0.39925 0.0
C3002 C 0.28309 0.14062 0.37891 0.0
C3003 C 0.30314 0.10149 0.36735 0.0
C3004 C 0.30954 0.07856 0.37929 0.0
C3005 C 0.30181 0.12236 0.383 0.0
C3006 C 0.32828 0.07911 0.39792 0.0
C3007 C 0.33135 0.10124 0.41152 0.0
H3008 H 0.60886 0.94331 0.83526 0.0
H3009 H 0.66176 0.9341 0.7745 0.0
H3010 H 0.63184 0.90663 0.7527 0.0
H3011 H 0.5878 0.89517 0.74629 0.0
H3012 H 0.53264 0.91242 0.80308 0.0
H3013 H 0.5661 0.92658 0.83142 0.0
C3014 C 0.6141 0.93444 0.81772 0.0
C3015 C 0.63711 0.94064 0.80618 0.0
C3016 C 0.59607 0.92069 0.8044 0.0
C3017 C 0.64391 0.92947 0.78344 0.0
C3018 C 0.62677 0.91402 0.77095 0.0
C3019 C 0.58322 0.90134 0.76516 0.0
C3020 C 0.55798 0.90331 0.77259 0.0
C3021 C 0.60227 0.91099 0.78048 0.0
C3022 C 0.55207 0.91124 0.79698 0.0
C3023 C 0.57114 0.91933 0.8131 0.0
H3024 H 0.03251 0.60215 0.79028 0.0
H3025 H 0.07542 0.67014 0.77475 0.0
H3026 H 0.11354 0.64519 0.76899 0.0
H3027 H 0.13493 0.6047 0.77319 0.0
H3028 H 0.09197 0.53758 0.79315 0.0
H3029 H 0.05356 0.56194 0.79369 0.0
C3030 C 0.05002 0.61144 0.78477 0.0
C3031 C 0.05145 0.63778 0.78293 0.0
C3032 C 0.07198 0.59739 0.78391 0.0
C3033 C 0.07413 0.64974 0.77601 0.0
C3034 C 0.09593 0.6356 0.77343 0.0
C3035 C 0.11728 0.59556 0.77845 0.0
C3036 C 0.11629 0.56942 0.78295 0.0
C3037 C 0.09522 0.60959 0.7786 0.0
C3038 C 0.09333 0.55777 0.78981 0.0
C3039 C 0.07125 0.57158 0.78975 0.0
H3040 H 0.4131 0.14375 0.85126 0.0
H3041 H 0.36425 0.14168 0.78684 0.0
H3042 H 0.39266 0.17007 0.76367 0.0
H3043 H 0.43714 0.17505 0.75566 0.0
H3044 H 0.49108 0.15715 0.81423 0.0
H3045 H 0.457 0.15532 0.84541 0.0
C3046 C 0.40842 0.15036 0.83243 0.0
C3047 C 0.38828 0.13904 0.81967 0.0
C3048 C 0.42742 0.16126 0.81768 0.0
C3049 C 0.38062 0.14926 0.79643 0.0
C3050 C 0.3973 0.1648 0.78298 0.0
C3051 C 0.44159 0.17135 0.77538 0.0
C3052 C 0.46621 0.16505 0.78268 0.0
C3053 C 0.42193 0.16772 0.79227 0.0
C3054 C 0.47196 0.16103 0.80823 0.0
C3055 C 0.45254 0.16023 0.82598 0.0
H3056 H 0.94241 0.37781 0.76712 0.0
H3057 H 0.91965 0.39907 0.84175 0.0
H3058 H 0.88344 0.42139 0.82444 0.0
H3059 H 0.87021 0.44706 0.78775 0.0
H3060 H 0.89289 0.42575 0.71313 0.0
H3061 H 0.91645 0.39025 0.73053 0.0
C3062 C 0.92858 0.38605 0.77955 0.0
C3063 C 0.93381 0.38788 0.8053 0.0
C3064 C 0.90814 0.39917 0.7694 0.0
C3065 C 0.91593 0.39801 0.82168 0.0
C3066 C 0.89538 0.41097 0.81178 0.0
C3067 C 0.87903 0.43363 0.77535 0.0
C3068 C 0.88094 0.43921 0.74956 0.0
C3069 C 0.89292 0.41367 0.78556 0.0
C3070 C 0.89179 0.42181 0.73323 0.0
C3071 C 0.9055 0.40169 0.74318 0.0
H3072 H 0.62468 0.09564 0.24498 0.0
H3073 H 0.64449 0.06733 0.31903 0.0
H3074 H 0.61 0.09148 0.33755 0.0
H3075 H 0.5727 0.11766 0.33181 0.0
H3076 H 0.54821 0.13933 0.25698 0.0
H3077 H 0.58594 0.11986 0.23897 0.0
C3078 C 0.62158 0.09506 0.2652 0.0
C3079 C 0.63711 0.08033 0.28088 0.0
C3080 C 0.60073 0.10724 0.2752 0.0
C3081 C 0.63287 0.0791 0.30692 0.0
C3082 C 0.6131 0.09261 0.31734 0.0
C3083 C 0.57576 0.11822 0.31155 0.0
C3084 C 0.55821 0.13003 0.29557 0.0
C3085 C 0.59668 0.10626 0.30155 0.0
C3086 C 0.56175 0.1303 0.26941 0.0
C3087 C 0.58325 0.11934 0.25926 0.0
H3088 H 0.97012 0.66321 0.27835 0.0
H3089 H 0.02185 0.60129 0.28928 0.0
H3090 H 0.98701 0.57178 0.2913 0.0
H3091 H 0.94279 0.56302 0.28877 0.0
H3092 H 0.88904 0.6236 0.28566 0.0
H3093 H 0.92393 0.65441 0.28129 0.0
C3094 C 0.97364 0.64337 0.2821 0.0
C3095 C 0.99857 0.63449 0.28333 0.0
C3096 C 0.95332 0.62629 0.28411 0.0
C3097 C 1.00292 0.60876 0.28831 0.0
C3098 C 0.98299 0.59173 0.28926 0.0
C3099 C 0.93847 0.58294 0.28694 0.0
C3100 C 0.91339 0.59106 0.28694 0.0
C3101 C 0.95828 0.60025 0.28666 0.0
C3102 C 0.90828 0.61697 0.28516 0.0
C3103 C 0.92818 0.63449 0.28306 0.0
H3104 H 0.38445 0.9491 0.27325 0.0
H3105 H 0.41969 0.92178 0.20594 0.0
H3106 H 0.42632 0.88061 0.2262 0.0
H3107 H 0.43775 0.8624 0.26723 0.0
H3108 H 0.40626 0.89212 0.33503 0.0
H3109 H 0.38015 0.92099 0.31049 0.0
C3110 C 0.39255 0.93365 0.26287 0.0
C3111 C 0.40294 0.93815 0.23905 0.0
C3112 C 0.39658 0.91042 0.27476 0.0
C3113 C 0.41256 0.91838 0.22487 0.0
C3114 C 0.41618 0.89493 0.23636 0.0
C3115 C 0.42371 0.87395 0.27633 0.0
C3116 C 0.42511 0.87727 0.30235 0.0
C3117 C 0.41065 0.89184 0.26206 0.0
C3118 C 0.40616 0.8906 0.31465 0.0
C3119 C 0.39169 0.90754 0.30063 0.0
H3120 H 0.13335 0.38929 0.24976 0.0
H3121 H 0.07554 0.39154 0.30677 0.0
H3122 H 0.1072 0.38673 0.33995 0.0
H3123 H 0.14945 0.40082 0.35064 0.0
H3124 H 0.20267 0.41594 0.29201 0.0
H3125 H 0.17771 0.39139 0.26235 0.0
C3126 C 0.12775 0.38789 0.26945 0.0
C3127 C 0.10273 0.39229 0.27624 0.0
C3128 C 0.14613 0.38739 0.2882 0.0
C3129 C 0.09515 0.38964 0.30151 0.0
C3130 C 0.11317 0.38648 0.32039 0.0
C3131 C 0.15595 0.39747 0.33155 0.0
C3132 C 0.17481 0.41328 0.32161 0.0
C3133 C 0.13873 0.38816 0.31395 0.0
C3134 C 0.18594 0.40619 0.29885 0.0
C3135 C 0.17126 0.39278 0.28168 0.0
H3136 H 0.80958 0.6611 0.93499 0.0
H3137 H 0.73602 0.67488 0.96601 0.0
H3138 H 0.71629 0.65497 0.92937 0.0
H3139 H 0.72102 0.6234 0.89729 0.0
H3140 H 0.79495 0.5969 0.87828 0.0
H3141 H 0.81408 0.63291 0.89973 0.0
C3142 C 0.7892 0.66044 0.93317 0.0
C3143 C 0.77401 0.66893 0.95284 0.0
C3144 C 0.77842 0.64652 0.91391 0.0
C3145 C 0.74777 0.66803 0.95092 0.0
C3146 C 0.73665 0.65668 0.93009 0.0
C3147 C 0.74127 0.62617 0.89706 0.0
C3148 C 0.75677 0.60773 0.88679 0.0
C3149 C 0.75188 0.64426 0.91261 0.0
C3150 C 0.78291 0.61109 0.8863 0.0
C3151 C 0.79372 0.63138 0.89887 0.0
H3152 H 0.841 0.45177 0.14738 0.0
H3153 H 0.78586 0.40252 0.18214 0.0
H3154 H 0.76687 0.43842 0.20301 0.0
H3155 H 0.75484 0.48134 0.19397 0.0
H3156 H 0.79895 0.52724 0.14215 0.0
H3157 H 0.83343 0.49689 0.14536 0.0
C3158 C 0.82563 0.44897 0.16069 0.0
C3159 C 0.81397 0.42515 0.16264 0.0
C3160 C 0.81199 0.46991 0.16813 0.0
C3161 C 0.79462 0.42098 0.18011 0.0
C3162 C 0.7835 0.44161 0.19149 0.0
C3163 C 0.77216 0.4849 0.18357 0.0
C3164 C 0.77393 0.50535 0.16642 0.0
C3165 C 0.79005 0.466 0.18284 0.0
C3166 C 0.79691 0.51088 0.15454 0.0
C3167 C 0.81649 0.49349 0.15634 0.0
H3168 H 0.59643 0.80679 0.04932 0.0
H3169 H 0.6546 0.79194 0.10435 0.0
H3170 H 0.6224 0.77983 0.13569 0.0
H3171 H 0.57774 0.77281 0.14662 0.0
H3172 H 0.52005 0.79091 0.09186 0.0
H3173 H 0.55224 0.80363 0.06131 0.0
C3174 C 0.6021 0.80061 0.06809 0.0
C3175 C 0.62775 0.79951 0.07448 0.0
C3176 C 0.58362 0.79509 0.08612 0.0
C3177 C 0.63489 0.79231 0.09902 0.0
C3178 C 0.61653 0.78573 0.11692 0.0
C3179 C 0.57225 0.78014 0.12819 0.0
C3180 C 0.54664 0.78086 0.12142 0.0
C3181 C 0.59084 0.78716 0.11065 0.0
C3182 C 0.53965 0.79044 0.09759 0.0
C3183 C 0.55804 0.79735 0.07999 0.0
H3184 H 0.24565 0.68526 0.0975 0.0
H3185 H 0.31064 0.65915 0.05685 0.0
H3186 H 0.32734 0.64036 0.09586 0.0
H3187 H 0.31595 0.61988 0.13559 0.0
H3188 H 0.24378 0.63397 0.16947 0.0
H3189 H 0.23681 0.66898 0.13942 0.0
C3190 C 0.26388 0.67614 0.09731 0.0
C3191 C 0.27668 0.67273 0.07442 0.0
C3192 C 0.27141 0.66264 0.11867 0.0
C3193 C 0.3004 0.66143 0.07434 0.0
C3194 C 0.30971 0.65053 0.09652 0.0
C3195 C 0.29916 0.63137 0.13685 0.0
C3196 C 0.28023 0.62476 0.15419 0.0
C3197 C 0.29426 0.64917 0.11801 0.0
C3198 C 0.25836 0.63907 0.15598 0.0
C3199 C 0.25445 0.65884 0.13879 0.0
H3200 H 0.39857 0.23743 0.12611 0.0
H3201 H 0.38705 0.3134 0.09845 0.0
H3202 H 0.40572 0.33007 0.13712 0.0
H3203 H 0.43892 0.32251 0.16739 0.0
H3204 H 0.46605 0.24689 0.17927 0.0
H3205 H 0.42756 0.22985 0.16031 0.0
C3206 C 0.39932 0.25765 0.1291 0.0
C3207 C 0.39235 0.27438 0.10962 0.0
C3208 C 0.41361 0.26673 0.14897 0.0
C3209 C 0.39297 0.30043 0.11328 0.0
C3210 C 0.40374 0.30981 0.13524 0.0
C3211 C 0.43585 0.30228 0.16657 0.0
C3212 C 0.45518 0.28578 0.17367 0.0
C3213 C 0.41638 0.29314 0.15169 0.0
C3214 C 0.45131 0.25969 0.17328 0.0
C3215 C 0.42953 0.25012 0.16221 0.0
H3216 H 0.29054 0.38055 0.94814 0.0
H3217 H 0.2195 0.403 0.916 0.0
H3218 H 0.24031 0.4161 0.87689 0.0
H3219 H 0.27885 0.43852 0.8641 0.0
H3220 H 0.34964 0.41853 0.89773 0.0
H3221 H 0.32936 0.38537 0.92286 0.0
C3222 C 0.27966 0.38699 0.93195 0.0
C3223 C 0.25416 0.39239 0.93483 0.0
C3224 C 0.29183 0.39494 0.90989 0.0
C3225 C 0.23952 0.39969 0.91398 0.0
C3226 C 0.25139 0.40717 0.89169 0.0
C3227 C 0.28995 0.42552 0.8755 0.0
C3228 C 0.31483 0.43187 0.88125 0.0
C3229 C 0.27775 0.40768 0.89087 0.0
C3230 C 0.32987 0.41454 0.89449 0.0
C3231 C 0.3182 0.39584 0.90919 0.0
H3232 H 0.66845 0.30105 0.96865 0.0
H3233 H 0.65999 0.22124 0.95728 0.0
H3234 H 0.63291 0.22894 0.92085 0.0
H3235 H 0.60254 0.25881 0.90138 0.0
H3236 H 0.6161 0.3387 0.90872 0.0
H3237 H 0.65118 0.33069 0.93703 0.0
C3238 C 0.66172 0.28547 0.95735 0.0
C3239 C 0.66469 0.26075 0.96612 0.0
C3240 C 0.64687 0.29007 0.93605 0.0
C3241 C 0.65677 0.24049 0.95124 0.0
C3242 C 0.64129 0.24487 0.93044 0.0
C3243 C 0.61395 0.27431 0.90831 0.0
C3244 C 0.6063 0.29916 0.90412 0.0
C3245 C 0.63461 0.26962 0.92404 0.0
C3246 C 0.6214 0.31932 0.9124 0.0
C3247 C 0.64144 0.31482 0.92865 0.0
H3248 H 0.38951 0.77177 0.94296 0.0
H3249 H 0.42412 0.84021 0.91421 0.0
H3250 H 0.42999 0.82126 0.87296 0.0
H3251 H 0.43913 0.78139 0.85305 0.0
H3252 H 0.40882 0.71225 0.88372 0.0
H3253 H 0.38472 0.73525 0.91479 0.0
C3254 C 0.39791 0.78242 0.92738 0.0
C3255 C 0.40809 0.80631 0.93136 0.0
C3256 C 0.40116 0.77143 0.90395 0.0
C3257 C 0.41751 0.82107 0.91126 0.0
C3258 C 0.42046 0.81047 0.88772 0.0
C3259 C 0.42579 0.77173 0.86548 0.0
C3260 C 0.42746 0.7457 0.86867 0.0
C3261 C 0.41435 0.78502 0.88467 0.0
C3262 C 0.4089 0.7327 0.88263 0.0
C3263 C 0.3957 0.74577 0.90088 0.0
loop_
_geom_bond_atom_site_label_1
_geom_bond_atom_site_label_2
_geom_bond_distance
_geom_bond_site_symmetry_2
_ccdc_geom_bond_type
Dy0 O4 2.398 . S
Dy0 O5 2.491 . S
Dy0 O6 2.403 . S
Dy0 O7 2.664 1_655 S
Dy0 O11 2.326 1_655 S
Dy0 O15 2.310 . S
Dy0 O16 2.351 . S
C1 O12 1.185 . S
C1 O13 1.355 . S
C2 O4 1.185 . S
C2 O5 1.355 . S
Dy3 O7 2.310 . S
Dy3 O10 2.351 . S
Dy3 O12 2.398 . S
Dy3 O13 2.491 . S
Dy3 O14 2.403 . S
Dy3 O15 2.664 1_455 S
Dy3 O17 2.326 1_455 S
O4 Dy0 2.398 . S
O4 C2 1.185 . S
O5 Dy0 2.491 . S
O5 C2 1.355 . S
O6 Dy0 2.403 . S
O6 C8 1.254 . S
O7 Dy0 2.664 1_455 S
O7 Dy3 2.310 . S
O7 C8 1.268 1_455 S
C8 O6 1.254 . S
C8 O7 1.268 1_655 S
C9 O14 1.254 . S
C9 O15 1.268 1_455 S
O10 Dy3 2.351 . S
O10 C18 1.249 . S
O11 Dy0 2.326 1_455 S
O11 C18 1.267 . S
O12 C1 1.185 . S
O12 Dy3 2.398 . S
O13 C1 1.355 . S
O13 Dy3 2.491 . S
O14 Dy3 2.403 . S
O14 C9 1.254 . S
O15 Dy0 2.310 . S
O15 Dy3 2.664 1_655 S
O15 C9 1.268 1_655 S
O16 Dy0 2.351 . S
O16 C19 1.249 . S
O17 Dy3 2.326 1_655 S
O17 C19 1.267 . S
C18 O10 1.249 . S
C18 O11 1.267 . S
C19 O16 1.249 . S
C19 O17 1.267 . S
Dy20 O24 2.398 . S
Dy20 O25 2.491 . S
Dy20 O26 2.403 . S
Dy20 O27 2.664 1_565 S
Dy20 O31 2.326 1_565 S
Dy20 O35 2.310 1_565 S
Dy20 O36 2.351 . S
C21 O32 1.185 . S
C21 O33 1.355 . S
C22 O24 1.185 . S
C22 O25 1.355 . S
Dy23 O27 2.310 . S
Dy23 O30 2.351 . S
Dy23 O32 2.398 . S
Dy23 O33 2.491 . S
Dy23 O34 2.403 . S
Dy23 O35 2.664 . S
Dy23 O37 2.326 . S
O24 Dy20 2.398 . S
O24 C22 1.185 . S
O25 Dy20 2.491 . S
O25 C22 1.355 . S
O26 Dy20 2.403 . S
O26 C28 1.254 1_565 S
O27 Dy20 2.664 1_545 S
O27 Dy23 2.310 . S
O27 C28 1.268 . S
C28 O26 1.254 1_545 S
C28 O27 1.268 . S
C29 O34 1.254 . S
C29 O35 1.268 . S
O30 Dy23 2.351 . S
O30 C38 1.249 . S
O31 Dy20 2.326 1_545 S
O31 C38 1.267 . S
O32 C21 1.185 . S
O32 Dy23 2.398 . S
O33 C21 1.355 . S
O33 Dy23 2.491 . S
O34 Dy23 2.403 . S
O34 C29 1.254 . S
O35 Dy20 2.310 1_545 S
O35 Dy23 2.664 . S
O35 C29 1.268 . S
O36 Dy20 2.351 . S
O36 C39 1.249 . S
O37 Dy23 2.326 . S
O37 C39 1.267 1_545 S
C38 O30 1.249 . S
C38 O31 1.267 . S
C39 O36 1.249 . S
C39 O37 1.267 1_565 S
Dy40 O44 2.398 . S
Dy40 O45 2.491 . S
Dy40 O46 2.403 . S
Dy40 O47 2.664 . S
Dy40 O51 2.326 . S
Dy40 O55 2.310 . S
Dy40 O56 2.351 . S
C41 O52 1.185 . S
C41 O53 1.355 . S
C42 O44 1.185 . S
C42 O45 1.355 . S
Dy43 O47 2.310 1_655 S
Dy43 O50 2.351 . S
Dy43 O52 2.398 . S
Dy43 O53 2.491 . S
Dy43 O54 2.403 . S
Dy43 O55 2.664 1_655 S
Dy43 O57 2.326 1_655 S
O44 Dy40 2.398 . S
O44 C42 1.185 . S
O45 Dy40 2.491 . S
O45 C42 1.355 . S
O46 Dy40 2.403 . S
O46 C48 1.254 . S
O47 Dy40 2.664 . S
O47 Dy43 2.310 1_455 S
O47 C48 1.268 . S
C48 O46 1.254 . S
C48 O47 1.268 . S
C49 O54 1.254 1_455 S
C49 O55 1.268 . S
O50 Dy43 2.351 . S
O50 C58 1.249 . S
O51 Dy40 2.326 . S
O51 C58 1.267 1_455 S
O52 C41 1.185 . S
O52 Dy43 2.398 . S
O53 C41 1.355 . S
O53 Dy43 2.491 . S
O54 Dy43 2.403 . S
O54 C49 1.254 1_655 S
O55 Dy40 2.310 . S
O55 Dy43 2.664 1_455 S
O55 C49 1.268 . S
O56 Dy40 2.351 . S
O56 C59 1.249 . S
O57 Dy43 2.326 1_455 S
O57 C59 1.267 . S
C58 O50 1.249 . S
C58 O51 1.267 1_655 S
C59 O56 1.249 . S
C59 O57 1.267 . S
Dy60 O64 2.398 . S
Dy60 O65 2.491 . S
Dy60 O66 2.403 . S
Dy60 O67 2.664 . S
Dy60 O71 2.326 . S
Dy60 O75 2.310 . S
Dy60 O76 2.351 . S
C61 O72 1.185 . S
C61 O73 1.355 . S
C62 O64 1.185 . S
C62 O65 1.355 . S
Dy63 O67 2.310 1_565 S
Dy63 O70 2.351 . S
Dy63 O72 2.398 . S
Dy63 O73 2.491 . S
Dy63 O74 2.403 . S
Dy63 O75 2.664 1_565 S
Dy63 O77 2.326 1_565 S
O64 Dy60 2.398 . S
O64 C62 1.185 . S
O65 Dy60 2.491 . S
O65 C62 1.355 . S
O66 Dy60 2.403 . S
O66 C68 1.254 . S
O67 Dy60 2.664 . S
O67 Dy63 2.310 1_545 S
O67 C68 1.268 . S
C68 O66 1.254 . S
C68 O67 1.268 . S
C69 O74 1.254 1_545 S
C69 O75 1.268 . S
O70 Dy63 2.351 . S
O70 C78 1.249 . S
O71 Dy60 2.326 . S
O71 C78 1.267 1_545 S
O72 C61 1.185 . S
O72 Dy63 2.398 . S
O73 C61 1.355 . S
O73 Dy63 2.491 . S
O74 Dy63 2.403 . S
O74 C69 1.254 1_565 S
O75 Dy60 2.310 . S
O75 Dy63 2.664 1_545 S
O75 C69 1.268 . S
O76 Dy60 2.351 . S
O76 C79 1.249 . S
O77 Dy63 2.326 1_545 S
O77 C79 1.267 . S
C78 O70 1.249 . S
C78 O71 1.267 1_565 S
C79 O76 1.249 . S
C79 O77 1.267 . S
Dy80 O84 2.398 . S
Dy80 O85 2.491 . S
Dy80 O86 2.403 . S
Dy80 O87 2.664 1_655 S
Dy80 O91 2.326 1_655 S
Dy80 O95 2.310 1_655 S
Dy80 O96 2.351 . S
C81 O92 1.185 . S
C81 O93 1.355 . S
C82 O84 1.185 . S
C82 O85 1.355 . S
Dy83 O87 2.310 . S
Dy83 O90 2.351 . S
Dy83 O92 2.398 . S
Dy83 O93 2.491 . S
Dy83 O94 2.403 . S
Dy83 O95 2.664 . S
Dy83 O97 2.326 . S
O84 Dy80 2.398 . S
O84 C82 1.185 . S
O85 Dy80 2.491 . S
O85 C82 1.355 . S
O86 Dy80 2.403 . S
O86 C88 1.254 1_655 S
O87 Dy80 2.664 1_455 S
O87 Dy83 2.310 . S
O87 C88 1.268 . S
C88 O86 1.254 1_455 S
C88 O87 1.268 . S
C89 O94 1.254 . S
C89 O95 1.268 . S
O90 Dy83 2.351 . S
O90 C98 1.249 . S
O91 Dy80 2.326 1_455 S
O91 C98 1.267 . S
O92 C81 1.185 . S
O92 Dy83 2.398 . S
O93 C81 1.355 . S
O93 Dy83 2.491 . S
O94 Dy83 2.403 . S
O94 C89 1.254 . S
O95 Dy80 2.310 1_455 S
O95 Dy83 2.664 . S
O95 C89 1.268 . S
O96 Dy80 2.351 . S
O96 C99 1.249 . S
O97 Dy83 2.326 . S
O97 C99 1.267 1_455 S
C98 O90 1.249 . S
C98 O91 1.267 . S
C99 O96 1.249 . S
C99 O97 1.267 1_655 S
Dy100 O104 2.398 . S
Dy100 O105 2.491 . S
Dy100 O106 2.402 1_565 S
Dy100 O107 2.664 1_565 S
Dy100 O111 2.326 1_565 S
Dy100 O115 2.310 1_565 S
Dy100 O116 2.351 . S
C101 O112 1.185 . S
C101 O113 1.355 . S
C102 O104 1.185 . S
C102 O105 1.355 . S
Dy103 O107 2.310 . S
Dy103 O110 2.351 . S
Dy103 O112 2.398 . S
Dy103 O113 2.491 . S
Dy103 O114 2.403 . S
Dy103 O115 2.664 . S
Dy103 O117 2.326 . S
O104 Dy100 2.398 . S
O104 C102 1.185 . S
O105 Dy100 2.491 . S
O105 C102 1.355 . S
O106 Dy100 2.402 1_545 S
O106 C108 1.259 . S
O107 Dy100 2.664 1_545 S
O107 Dy103 2.310 . S
O107 C108 1.268 . S
C108 O106 1.259 . S
C108 O107 1.268 . S
C109 O114 1.254 . S
C109 O115 1.268 . S
O110 Dy103 2.351 . S
O110 C118 1.249 . S
O111 Dy100 2.326 1_545 S
O111 C118 1.267 . S
O112 C101 1.185 . S
O112 Dy103 2.398 . S
O113 C101 1.355 . S
O113 Dy103 2.491 . S
O114 Dy103 2.403 . S
O114 C109 1.254 . S
O115 Dy100 2.310 1_545 S
O115 Dy103 2.664 . S
O115 C109 1.268 . S
O116 Dy100 2.351 . S
O116 C119 1.249 . S
O117 Dy103 2.326 . S
O117 C119 1.267 1_545 S
C118 O110 1.249 . S
C118 O111 1.267 . S
C119 O116 1.249 . S
C119 O117 1.267 1_565 S
Dy120 O124 2.398 . S
Dy120 O125 2.491 . S
Dy120 O126 2.403 . S
Dy120 O127 2.664 . S
Dy120 O131 2.326 . S
Dy120 O135 2.310 . S
Dy120 O136 2.351 . S
C121 O132 1.185 . S
C121 O133 1.355 . S
C122 O124 1.185 . S
C122 O125 1.355 . S
Dy123 O127 2.310 1_655 S
Dy123 O130 2.351 . S
Dy123 O132 2.398 . S
Dy123 O133 2.491 . S
Dy123 O134 2.403 . S
Dy123 O135 2.664 1_655 S
Dy123 O137 2.326 1_655 S
O124 Dy120 2.398 . S
O124 C122 1.185 . S
O125 Dy120 2.491 . S
O125 C122 1.355 . S
O126 Dy120 2.403 . S
O126 C128 1.254 . S
O127 Dy120 2.664 . S
O127 Dy123 2.310 1_455 S
O127 C128 1.268 . S
C128 O126 1.254 . S
C128 O127 1.268 . S
C129 O134 1.254 1_455 S
C129 O135 1.268 . S
O130 Dy123 2.351 . S
O130 C138 1.249 . S
O131 Dy120 2.326 . S
O131 C138 1.267 1_455 S
O132 C121 1.185 . S
O132 Dy123 2.398 . S
O133 C121 1.355 . S
O133 Dy123 2.491 . S
O134 Dy123 2.403 . S
O134 C129 1.254 1_655 S
O135 Dy120 2.310 . S
O135 Dy123 2.664 1_455 S
O135 C129 1.268 . S
O136 Dy120 2.351 . S
O136 C139 1.249 . S
O137 Dy123 2.326 1_455 S
O137 C139 1.267 . S
C138 O130 1.249 . S
C138 O131 1.267 1_655 S
C139 O136 1.249 . S
C139 O137 1.267 . S
Dy140 O144 2.398 . S
Dy140 O145 2.491 . S
Dy140 O146 2.403 . S
Dy140 O147 2.664 . S
Dy140 O151 2.326 . S
Dy140 O155 2.310 . S
Dy140 O156 2.351 . S
C141 O152 1.185 . S
C141 O153 1.343 1_565 S
C142 O144 1.185 . S
C142 O145 1.355 . S
Dy143 O147 2.310 . S
Dy143 O150 2.351 1_545 S
Dy143 O152 2.398 1_545 S
Dy143 O153 2.494 . S
Dy143 O154 2.403 . S
Dy143 O155 2.664 . S
Dy143 O157 2.326 . S
O144 Dy140 2.398 . S
O144 C142 1.185 . S
O145 Dy140 2.491 . S
O145 C142 1.355 . S
O146 Dy140 2.403 . S
O146 C148 1.254 . S
O147 Dy140 2.664 . S
O147 Dy143 2.310 . S
O147 C148 1.268 . S
C148 O146 1.254 . S
C148 O147 1.268 . S
C149 O154 1.254 . S
C149 O155 1.268 . S
O150 Dy143 2.351 1_565 S
O150 C158 1.249 1_565 S
O151 Dy140 2.326 . S
O151 C158 1.267 . S
O152 C141 1.185 . S
O152 Dy143 2.398 1_565 S
O153 C141 1.343 1_545 S
O153 Dy143 2.494 . S
O154 Dy143 2.403 . S
O154 C149 1.254 . S
O155 Dy140 2.310 . S
O155 Dy143 2.664 . S
O155 C149 1.268 . S
O156 Dy140 2.351 . S
O156 C159 1.249 . S
O157 Dy143 2.326 . S
O157 C159 1.267 . S
C158 O150 1.249 1_545 S
C158 O151 1.267 . S
C159 O156 1.249 . S
C159 O157 1.267 . S
Dy160 O164 2.398 . S
Dy160 O165 2.491 . S
Dy160 O166 2.403 . S
Dy160 O167 2.664 1_565 S
Dy160 O171 2.326 1_565 S
Dy160 O175 2.310 1_565 S
Dy160 O176 2.351 . S
C161 O172 1.185 . S
C161 O173 1.355 . S
C162 O164 1.185 . S
C162 O165 1.355 . S
Dy163 O167 2.310 . S
Dy163 O170 2.351 . S
Dy163 O172 2.398 . S
Dy163 O173 2.491 . S
Dy163 O174 2.403 . S
Dy163 O175 2.664 . S
Dy163 O177 2.326 . S
O164 Dy160 2.398 . S
O164 C162 1.185 . S
O165 Dy160 2.491 . S
O165 C162 1.355 . S
O166 Dy160 2.403 . S
O166 C168 1.254 1_565 S
O167 Dy160 2.664 1_545 S
O167 Dy163 2.310 . S
O167 C168 1.268 . S
C168 O166 1.254 1_545 S
C168 O167 1.268 . S
C169 O174 1.254 . S
C169 O175 1.268 . S
O170 Dy163 2.351 . S
O170 C178 1.249 . S
O171 Dy160 2.326 1_545 S
O171 C178 1.267 . S
O172 C161 1.185 . S
O172 Dy163 2.398 . S
O173 C161 1.355 . S
O173 Dy163 2.491 . S
O174 Dy163 2.403 . S
O174 C169 1.254 . S
O175 Dy160 2.310 1_545 S
O175 Dy163 2.664 . S
O175 C169 1.268 . S
O176 Dy160 2.351 . S
O176 C179 1.249 . S
O177 Dy163 2.326 . S
O177 C179 1.267 1_545 S
C178 O170 1.249 . S
C178 O171 1.267 . S
C179 O176 1.249 . S
C179 O177 1.267 1_565 S
Dy180 O184 2.398 . S
Dy180 O185 2.491 . S
Dy180 O186 2.403 . S
Dy180 O187 2.664 . S
Dy180 O191 2.326 . S
Dy180 O195 2.310 . S
Dy180 O196 2.351 . S
C181 O192 1.185 . S
C181 O193 1.355 . S
C182 O184 1.185 . S
C182 O185 1.355 . S
Dy183 O187 2.310 1_655 S
Dy183 O190 2.351 . S
Dy183 O192 2.398 . S
Dy183 O193 2.491 . S
Dy183 O194 2.403 . S
Dy183 O195 2.664 1_655 S
Dy183 O197 2.326 1_655 S
O184 Dy180 2.398 . S
O184 C182 1.185 . S
O185 Dy180 2.491 . S
O185 C182 1.355 . S
O186 Dy180 2.403 . S
O186 C188 1.254 . S
O187 Dy180 2.664 . S
O187 Dy183 2.310 1_455 S
O187 C188 1.268 . S
C188 O186 1.254 . S
C188 O187 1.268 . S
C189 O194 1.232 1_455 S
C189 O195 1.280 . S
O190 Dy183 2.351 . S
O190 C198 1.249 . S
O191 Dy180 2.326 . S
O191 C198 1.267 1_455 S
O192 C181 1.185 . S
O192 Dy183 2.398 . S
O193 C181 1.355 . S
O193 Dy183 2.491 . S
O194 Dy183 2.403 . S
O194 C189 1.232 1_655 S
O195 Dy180 2.310 . S
O195 Dy183 2.664 1_455 S
O195 C189 1.280 . S
O196 Dy180 2.351 . S
O196 C199 1.249 . S
O197 Dy183 2.326 1_455 S
O197 C199 1.267 . S
C198 O190 1.249 . S
C198 O191 1.267 1_655 S
C199 O196 1.249 . S
C199 O197 1.267 . S
Dy200 O204 2.398 . S
Dy200 O205 2.491 . S
Dy200 O206 2.403 . S
Dy200 O207 2.664 . S
Dy200 O211 2.326 . S
Dy200 O215 2.310 . S
Dy200 O216 2.351 . S
C201 O212 1.185 . S
C201 O213 1.355 . S
C202 O204 1.185 . S
C202 O205 1.355 . S
Dy203 O207 2.310 1_565 S
Dy203 O210 2.351 . S
Dy203 O212 2.398 . S
Dy203 O213 2.491 . S
Dy203 O214 2.403 1_565 S
Dy203 O215 2.664 1_565 S
Dy203 O217 2.326 1_565 S
O204 Dy200 2.398 . S
O204 C202 1.185 . S
O205 Dy200 2.491 . S
O205 C202 1.355 . S
O206 Dy200 2.403 . S
O206 C208 1.254 . S
O207 Dy200 2.664 . S
O207 Dy203 2.310 1_545 S
O207 C208 1.268 . S
C208 O206 1.254 . S
C208 O207 1.268 . S
C209 O214 1.254 . S
C209 O215 1.268 . S
O210 Dy203 2.351 . S
O210 C218 1.249 1_565 S
O211 Dy200 2.326 . S
O211 C218 1.267 . S
O212 C201 1.185 . S
O212 Dy203 2.398 . S
O213 C201 1.355 . S
O213 Dy203 2.491 . S
O214 Dy203 2.403 1_545 S
O214 C209 1.254 . S
O215 Dy200 2.310 . S
O215 Dy203 2.664 1_545 S
O215 C209 1.268 . S
O216 Dy200 2.351 . S
O216 C219 1.249 . S
O217 Dy203 2.326 1_545 S
O217 C219 1.267 . S
C218 O210 1.249 1_545 S
C218 O211 1.267 . S
C219 O216 1.249 . S
C219 O217 1.267 . S
Dy220 O224 2.398 . S
Dy220 O225 2.491 . S
Dy220 O226 2.403 . S
Dy220 O227 2.664 1_655 S
Dy220 O231 2.326 1_655 S
Dy220 O235 2.310 1_655 S
Dy220 O236 2.351 . S
C221 O232 1.185 . S
C221 O233 1.355 . S
C222 O224 1.185 . S
C222 O225 1.355 . S
Dy223 O227 2.310 . S
Dy223 O230 2.351 . S
Dy223 O232 2.398 . S
Dy223 O233 2.491 . S
Dy223 O234 2.403 . S
Dy223 O235 2.664 . S
Dy223 O237 2.326 . S
O224 Dy220 2.398 . S
O224 C222 1.185 . S
O225 Dy220 2.491 . S
O225 C222 1.355 . S
O226 Dy220 2.403 . S
O226 C228 1.254 1_655 S
O227 Dy220 2.664 1_455 S
O227 Dy223 2.310 . S
O227 C228 1.268 . S
C228 O226 1.254 1_455 S
C228 O227 1.268 . S
C229 O234 1.254 . S
C229 O235 1.268 . S
O230 Dy223 2.351 . S
O230 C238 1.249 . S
O231 Dy220 2.326 1_455 S
O231 C238 1.267 . S
O232 C221 1.185 . S
O232 Dy223 2.398 . S
O233 C221 1.355 . S
O233 Dy223 2.491 . S
O234 Dy223 2.403 . S
O234 C229 1.254 . S
O235 Dy220 2.310 1_455 S
O235 Dy223 2.664 . S
O235 C229 1.268 . S
O236 Dy220 2.351 . S
O236 C239 1.249 . S
O237 Dy223 2.326 . S
O237 C239 1.267 1_455 S
C238 O230 1.249 . S
C238 O231 1.267 . S
C239 O236 1.249 . S
C239 O237 1.267 1_655 S
Dy240 O244 2.398 . S
Dy240 O245 2.491 . S
Dy240 O246 2.403 . S
Dy240 O247 2.664 . S
Dy240 O251 2.326 . S
Dy240 O255 2.310 . S
Dy240 O256 2.351 . S
C241 O252 1.185 . S
C241 O253 1.355 . S
C242 O244 1.185 . S
C242 O245 1.355 . S
Dy243 O247 2.310 1_565 S
Dy243 O250 2.351 . S
Dy243 O252 2.398 . S
Dy243 O253 2.491 . S
Dy243 O254 2.403 1_565 S
Dy243 O255 2.664 1_565 S
Dy243 O257 2.326 1_565 S
O244 Dy240 2.398 . S
O244 C242 1.185 . S
O245 Dy240 2.491 . S
O245 C242 1.355 . S
O246 Dy240 2.403 . S
O246 C248 1.254 . S
O247 Dy240 2.664 . S
O247 Dy243 2.310 1_545 S
O247 C248 1.268 . S
C248 O246 1.254 . S
C248 O247 1.268 . S
C249 O254 1.254 . S
C249 O255 1.268 . S
O250 Dy243 2.351 . S
O250 C258 1.249 . S
O251 Dy240 2.326 . S
O251 C258 1.267 1_545 S
O252 C241 1.185 . S
O252 Dy243 2.398 . S
O253 C241 1.355 . S
O253 Dy243 2.491 . S
O254 Dy243 2.403 1_545 S
O254 C249 1.254 . S
O255 Dy240 2.310 . S
O255 Dy243 2.664 1_545 S
O255 C249 1.268 . S
O256 Dy240 2.351 . S
O256 C259 1.249 . S
O257 Dy243 2.326 1_545 S
O257 C259 1.267 . S
C258 O250 1.249 . S
C258 O251 1.267 1_565 S
C259 O256 1.249 . S
C259 O257 1.267 . S
Dy260 O264 2.398 . S
Dy260 O265 2.491 . S
Dy260 O266 2.403 . S
Dy260 O267 2.664 1_655 S
Dy260 O271 2.326 1_655 S
Dy260 O275 2.310 1_655 S
Dy260 O276 2.351 . S
C261 O272 1.185 . S
C261 O273 1.355 . S
C262 O264 1.185 . S
C262 O265 1.355 . S
Dy263 O267 2.310 . S
Dy263 O270 2.351 . S
Dy263 O272 2.398 . S
Dy263 O273 2.491 . S
Dy263 O274 2.403 . S
Dy263 O275 2.664 . S
Dy263 O277 2.326 . S
O264 Dy260 2.398 . S
O264 C262 1.185 . S
O265 Dy260 2.491 . S
O265 C262 1.355 . S
O266 Dy260 2.403 . S
O266 C268 1.254 1_655 S
O267 Dy260 2.664 1_455 S
O267 Dy263 2.310 . S
O267 C268 1.268 . S
C268 O266 1.254 1_455 S
C268 O267 1.268 . S
C269 O274 1.254 . S
C269 O275 1.268 . S
O270 Dy263 2.351 . S
O270 C278 1.249 . S
O271 Dy260 2.326 1_455 S
O271 C278 1.267 . S
O272 C261 1.185 . S
O272 Dy263 2.398 . S
O273 C261 1.355 . S
O273 Dy263 2.491 . S
O274 Dy263 2.403 . S
O274 C269 1.254 . S
O275 Dy260 2.310 1_455 S
O275 Dy263 2.664 . S
O275 C269 1.268 . S
O276 Dy260 2.351 . S
O276 C279 1.249 . S
O277 Dy263 2.326 . S
O277 C279 1.267 1_455 S
C278 O270 1.249 . S
C278 O271 1.267 . S
C279 O276 1.249 . S
C279 O277 1.267 1_655 S
Dy280 O284 2.398 . S
Dy280 O285 2.491 . S
Dy280 O286 2.403 . S
Dy280 O287 2.664 1_565 S
Dy280 O291 2.326 1_565 S
Dy280 O295 2.310 . S
Dy280 O296 2.351 . S
C281 O292 1.185 . S
C281 O293 1.355 . S
C282 O284 1.185 . S
C282 O285 1.355 . S
Dy283 O287 2.310 . S
Dy283 O290 2.351 . S
Dy283 O292 2.398 . S
Dy283 O293 2.491 . S
Dy283 O294 2.403 . S
Dy283 O295 2.664 1_545 S
Dy283 O297 2.326 1_545 S
O284 Dy280 2.398 . S
O284 C282 1.185 . S
O285 Dy280 2.491 . S
O285 C282 1.355 . S
O286 Dy280 2.403 . S
O286 C288 1.254 . S
O287 Dy280 2.664 1_545 S
O287 Dy283 2.310 . S
O287 C288 1.268 1_545 S
C288 O286 1.254 . S
C288 O287 1.268 1_565 S
C289 O294 1.254 . S
C289 O295 1.268 1_545 S
O290 Dy283 2.351 . S
O290 C298 1.249 . S
O291 Dy280 2.326 1_545 S
O291 C298 1.267 . S
O292 C281 1.185 . S
O292 Dy283 2.398 . S
O293 C281 1.355 . S
O293 Dy283 2.491 . S
O294 Dy283 2.403 . S
O294 C289 1.254 . S
O295 Dy280 2.310 . S
O295 Dy283 2.664 1_565 S
O295 C289 1.268 1_565 S
O296 Dy280 2.351 . S
O296 C299 1.249 . S
O297 Dy283 2.326 1_565 S
O297 C299 1.267 . S
C298 O290 1.249 . S
C298 O291 1.267 . S
C299 O296 1.249 . S
C299 O297 1.267 . S
Dy300 O304 2.398 . S
Dy300 O305 2.491 . S
Dy300 O306 2.403 . S
Dy300 O307 2.664 . S
Dy300 O311 2.326 . S
Dy300 O315 2.310 . S
Dy300 O316 2.351 . S
C301 O312 1.185 . S
C301 O313 1.355 . S
C302 O304 1.185 . S
C302 O305 1.355 . S
Dy303 O307 2.310 1_655 S
Dy303 O310 2.351 . S
Dy303 O312 2.398 . S
Dy303 O313 2.491 . S
Dy303 O314 2.403 . S
Dy303 O315 2.664 1_655 S
Dy303 O317 2.326 1_655 S
O304 Dy300 2.398 . S
O304 C302 1.185 . S
O305 Dy300 2.491 . S
O305 C302 1.355 . S
O306 Dy300 2.403 . S
O306 C308 1.254 . S
O307 Dy300 2.664 . S
O307 Dy303 2.310 1_455 S
O307 C308 1.268 . S
C308 O306 1.254 . S
C308 O307 1.268 . S
C309 O314 1.254 1_455 S
C309 O315 1.268 . S
O310 Dy303 2.351 . S
O310 C318 1.249 . S
O311 Dy300 2.326 . S
O311 C318 1.267 1_455 S
O312 C301 1.185 . S
O312 Dy303 2.398 . S
O313 C301 1.355 . S
O313 Dy303 2.491 . S
O314 Dy303 2.403 . S
O314 C309 1.254 1_655 S
O315 Dy300 2.310 . S
O315 Dy303 2.664 1_455 S
O315 C309 1.268 . S
O316 Dy300 2.351 . S
O316 C319 1.249 . S
O317 Dy303 2.326 1_455 S
O317 C319 1.267 . S
C318 O310 1.249 . S
C318 O311 1.267 1_655 S
C319 O316 1.249 . S
C319 O317 1.267 . S
Dy320 O324 2.398 . S
Dy320 O325 2.491 . S
Dy320 O326 2.403 . S
Dy320 O327 2.664 1_556 S
Dy320 O331 2.326 1_556 S
Dy320 O335 2.310 1_556 S
Dy320 O336 2.351 . S
C321 O332 1.185 . S
C321 O333 1.355 . S
C322 O324 1.185 . S
C322 O325 1.355 . S
Dy323 O327 2.310 . S
Dy323 O330 2.351 . S
Dy323 O332 2.398 . S
Dy323 O333 2.491 . S
Dy323 O334 2.403 . S
Dy323 O335 2.664 . S
Dy323 O337 2.326 . S
O324 Dy320 2.398 . S
O324 C322 1.185 . S
O325 Dy320 2.491 . S
O325 C322 1.355 . S
O326 Dy320 2.403 . S
O326 C328 1.254 1_556 S
O327 Dy320 2.664 1_554 S
O327 Dy323 2.310 . S
O327 C328 1.268 . S
C328 O326 1.254 1_554 S
C328 O327 1.268 . S
C329 O334 1.254 . S
C329 O335 1.268 . S
O330 Dy323 2.351 . S
O330 C338 1.249 . S
O331 Dy320 2.326 1_554 S
O331 C338 1.267 . S
O332 C321 1.185 . S
O332 Dy323 2.398 . S
O333 C321 1.355 . S
O333 Dy323 2.491 . S
O334 Dy323 2.403 . S
O334 C329 1.254 . S
O335 Dy320 2.310 1_554 S
O335 Dy323 2.664 . S
O335 C329 1.268 . S
O336 Dy320 2.351 . S
O336 C339 1.249 . S
O337 Dy323 2.326 . S
O337 C339 1.267 1_554 S
C338 O330 1.249 . S
C338 O331 1.267 . S
C339 O336 1.249 . S
C339 O337 1.267 1_556 S
Dy340 O344 2.398 . S
Dy340 O345 2.491 . S
Dy340 O346 2.403 . S
Dy340 O347 2.664 . S
Dy340 O351 2.326 . S
Dy340 O355 2.310 . S
Dy340 O356 2.351 . S
C341 O352 1.185 . S
C341 O353 1.355 . S
C342 O344 1.185 . S
C342 O345 1.355 . S
Dy343 O347 2.310 1_556 S
Dy343 O350 2.351 . S
Dy343 O352 2.398 . S
Dy343 O353 2.491 . S
Dy343 O354 2.403 . S
Dy343 O355 2.664 1_556 S
Dy343 O357 2.326 1_556 S
O344 Dy340 2.398 . S
O344 C342 1.185 . S
O345 Dy340 2.491 . S
O345 C342 1.355 . S
O346 Dy340 2.403 . S
O346 C348 1.254 . S
O347 Dy340 2.664 . S
O347 Dy343 2.310 1_554 S
O347 C348 1.268 . S
C348 O346 1.254 . S
C348 O347 1.268 . S
C349 O354 1.254 1_554 S
C349 O355 1.268 . S
O350 Dy343 2.351 . S
O350 C358 1.249 . S
O351 Dy340 2.326 . S
O351 C358 1.267 1_554 S
O352 C341 1.185 . S
O352 Dy343 2.398 . S
O353 C341 1.355 . S
O353 Dy343 2.491 . S
O354 Dy343 2.403 . S
O354 C349 1.254 1_556 S
O355 Dy340 2.310 . S
O355 Dy343 2.664 1_554 S
O355 C349 1.268 . S
O356 Dy340 2.351 . S
O356 C359 1.249 . S
O357 Dy343 2.326 1_554 S
O357 C359 1.267 . S
C358 O350 1.249 . S
C358 O351 1.267 1_556 S
C359 O356 1.249 . S
C359 O357 1.267 . S
Dy360 O364 2.398 . S
Dy360 O365 2.491 . S
Dy360 O366 2.403 . S
Dy360 O367 2.664 . S
Dy360 O371 2.326 . S
Dy360 O375 2.310 . S
Dy360 O376 2.351 . S
C361 O372 1.185 . S
C361 O373 1.355 . S
C362 O364 1.185 . S
C362 O365 1.355 . S
Dy363 O367 2.310 1_556 S
Dy363 O370 2.351 . S
Dy363 O372 2.398 . S
Dy363 O373 2.491 . S
Dy363 O374 2.403 1_556 S
Dy363 O375 2.664 1_556 S
Dy363 O377 2.326 1_556 S
O364 Dy360 2.398 . S
O364 C362 1.185 . S
O365 Dy360 2.491 . S
O365 C362 1.355 . S
O366 Dy360 2.403 . S
O366 C368 1.254 . S
O367 Dy360 2.664 . S
O367 Dy363 2.310 1_554 S
O367 C368 1.268 . S
C368 O366 1.254 . S
C368 O367 1.268 . S
C369 O374 1.254 . S
C369 O375 1.268 . S
O370 Dy363 2.351 . S
O370 C378 1.249 1_556 S
O371 Dy360 2.326 . S
O371 C378 1.267 . S
O372 C361 1.185 . S
O372 Dy363 2.398 . S
O373 C361 1.355 . S
O373 Dy363 2.491 . S
O374 Dy363 2.403 1_554 S
O374 C369 1.254 . S
O375 Dy360 2.310 . S
O375 Dy363 2.664 1_554 S
O375 C369 1.268 . S
O376 Dy360 2.351 . S
O376 C379 1.249 . S
O377 Dy363 2.326 1_554 S
O377 C379 1.267 . S
C378 O370 1.249 1_554 S
C378 O371 1.267 . S
C379 O376 1.249 . S
C379 O377 1.267 . S
Dy380 O384 2.398 . S
Dy380 O385 2.491 . S
Dy380 O386 2.403 . S
Dy380 O387 2.664 . S
Dy380 O391 2.326 . S
Dy380 O395 2.310 . S
Dy380 O396 2.351 . S
C381 O392 1.185 . S
C381 O393 1.355 . S
C382 O384 1.185 . S
C382 O385 1.355 . S
Dy383 O387 2.310 1_556 S
Dy383 O390 2.351 . S
Dy383 O392 2.398 . S
Dy383 O393 2.491 . S
Dy383 O394 2.403 1_556 S
Dy383 O395 2.664 1_556 S
Dy383 O397 2.326 1_556 S
O384 Dy380 2.398 . S
O384 C382 1.185 . S
O385 Dy380 2.491 . S
O385 C382 1.355 . S
O386 Dy380 2.403 . S
O386 C388 1.254 . S
O387 Dy380 2.664 . S
O387 Dy383 2.310 1_554 S
O387 C388 1.268 . S
C388 O386 1.254 . S
C388 O387 1.268 . S
C389 O394 1.254 . S
C389 O395 1.268 . S
O390 Dy383 2.351 . S
O390 C398 1.233 1_556 S
O391 Dy380 2.326 . S
O391 C398 1.292 . S
O392 C381 1.185 . S
O392 Dy383 2.398 . S
O393 C381 1.355 . S
O393 Dy383 2.491 . S
O394 Dy383 2.403 1_554 S
O394 C389 1.254 . S
O395 Dy380 2.310 . S
O395 Dy383 2.664 1_554 S
O395 C389 1.268 . S
O396 Dy380 2.351 . S
O396 C399 1.249 . S
O397 Dy383 2.326 1_554 S
O397 C399 1.267 . S
C398 O390 1.233 1_554 S
C398 O391 1.292 . S
C399 O396 1.249 . S
C399 O397 1.267 . S
Dy400 O404 2.398 . S
Dy400 O405 2.491 . S
Dy400 O406 2.403 . S
Dy400 O407 2.664 . S
Dy400 O411 2.326 . S
Dy400 O415 2.310 . S
Dy400 O416 2.351 . S
C401 O412 1.185 . S
C401 O413 1.355 . S
C402 O404 1.185 . S
C402 O405 1.355 . S
Dy403 O407 2.310 1_556 S
Dy403 O410 2.351 . S
Dy403 O412 2.398 . S
Dy403 O413 2.491 . S
Dy403 O414 2.403 . S
Dy403 O415 2.664 1_556 S
Dy403 O417 2.326 1_556 S
O404 Dy400 2.398 . S
O404 C402 1.185 . S
O405 Dy400 2.491 . S
O405 C402 1.355 . S
O406 Dy400 2.403 . S
O406 C408 1.254 . S
O407 Dy400 2.664 . S
O407 Dy403 2.310 1_554 S
O407 C408 1.268 . S
C408 O406 1.254 . S
C408 O407 1.268 . S
C409 O414 1.254 1_554 S
C409 O415 1.268 . S
O410 Dy403 2.351 . S
O410 C418 1.249 . S
O411 Dy400 2.326 . S
O411 C418 1.267 1_554 S
O412 C401 1.185 . S
O412 Dy403 2.398 . S
O413 C401 1.355 . S
O413 Dy403 2.491 . S
O414 Dy403 2.403 . S
O414 C409 1.254 1_556 S
O415 Dy400 2.310 . S
O415 Dy403 2.664 1_554 S
O415 C409 1.268 . S
O416 Dy400 2.351 . S
O416 C419 1.249 . S
O417 Dy403 2.326 1_554 S
O417 C419 1.267 . S
C418 O410 1.249 . S
C418 O411 1.267 1_556 S
C419 O416 1.249 . S
C419 O417 1.267 . S
Dy420 O424 2.398 . S
Dy420 O425 2.491 . S
Dy420 O426 2.403 . S
Dy420 O427 2.664 1_556 S
Dy420 O431 2.326 1_556 S
Dy420 O435 2.310 1_556 S
Dy420 O436 2.351 . S
C421 O432 1.185 . S
C421 O433 1.355 . S
C422 O424 1.185 . S
C422 O425 1.355 . S
Dy423 O427 2.310 . S
Dy423 O430 2.351 . S
Dy423 O432 2.398 . S
Dy423 O433 2.491 . S
Dy423 O434 2.403 . S
Dy423 O435 2.664 . S
Dy423 O437 2.358 . S
O424 Dy420 2.398 . S
O424 C422 1.185 . S
O425 Dy420 2.491 . S
O425 C422 1.355 . S
O426 Dy420 2.403 . S
O426 C428 1.254 . S
O427 Dy420 2.664 1_554 S
O427 Dy423 2.310 . S
O427 C428 1.268 1_554 S
C428 O426 1.254 . S
C428 O427 1.268 1_556 S
C429 O434 1.254 . S
C429 O435 1.268 . S
O430 Dy423 2.351 . S
O430 C438 1.249 . S
O431 Dy420 2.326 1_554 S
O431 C438 1.267 . S
O432 C421 1.185 . S
O432 Dy423 2.398 . S
O433 C421 1.355 . S
O433 Dy423 2.491 . S
O434 Dy423 2.403 . S
O434 C429 1.254 . S
O435 Dy420 2.310 1_554 S
O435 Dy423 2.664 . S
O435 C429 1.268 . S
O436 Dy420 2.351 . S
O436 C439 1.249 . S
O437 Dy423 2.358 . S
O437 C439 1.230 1_554 S
C438 O430 1.249 . S
C438 O431 1.267 . S
C439 O436 1.249 . S
C439 O437 1.230 1_556 S
Dy440 O444 2.398 . S
Dy440 O445 2.491 . S
Dy440 O446 2.403 . S
Dy440 O447 2.664 1_556 S
Dy440 O451 2.326 1_556 S
Dy440 O455 2.336 . S
Dy440 O456 2.351 . S
C441 O452 1.185 . S
C441 O453 1.355 . S
C442 O444 1.185 . S
C442 O445 1.355 . S
Dy443 O447 2.310 . S
Dy443 O450 2.351 . S
Dy443 O452 2.398 . S
Dy443 O453 2.491 . S
Dy443 O454 2.403 . S
Dy443 O455 2.636 1_554 S
Dy443 O457 2.326 1_554 S
O444 Dy440 2.398 . S
O444 C442 1.185 . S
O445 Dy440 2.491 . S
O445 C442 1.355 . S
O446 Dy440 2.403 . S
O446 C448 1.254 . S
O447 Dy440 2.664 1_554 S
O447 Dy443 2.310 . S
O447 C448 1.268 1_554 S
C448 O446 1.254 . S
C448 O447 1.268 1_556 S
C449 O454 1.254 . S
C449 O455 1.253 1_554 S
O450 Dy443 2.351 . S
O450 C458 1.249 . S
O451 Dy440 2.326 1_554 S
O451 C458 1.267 . S
O452 C441 1.185 . S
O452 Dy443 2.398 . S
O453 C441 1.355 . S
O453 Dy443 2.491 . S
O454 Dy443 2.403 . S
O454 C449 1.254 . S
O455 Dy440 2.336 . S
O455 Dy443 2.636 1_556 S
O455 C449 1.253 1_556 S
O456 Dy440 2.351 . S
O456 C459 1.249 . S
O457 Dy443 2.326 1_556 S
O457 C459 1.267 . S
C458 O450 1.249 . S
C458 O451 1.267 . S
C459 O456 1.249 . S
C459 O457 1.267 . S
Dy460 O464 2.398 . S
Dy460 O465 2.491 . S
Dy460 O466 2.403 . S
Dy460 O467 2.664 1_556 S
Dy460 O471 2.326 1_556 S
Dy460 O475 2.310 1_556 S
Dy460 O476 2.351 . S
C461 O472 1.185 . S
C461 O473 1.355 . S
C462 O464 1.185 . S
C462 O465 1.355 . S
Dy463 O467 2.310 . S
Dy463 O470 2.351 . S
Dy463 O472 2.398 . S
Dy463 O473 2.491 . S
Dy463 O474 2.403 . S
Dy463 O475 2.664 . S
Dy463 O477 2.326 . S
O464 Dy460 2.398 . S
O464 C462 1.185 . S
O465 Dy460 2.491 . S
O465 C462 1.355 . S
O466 Dy460 2.403 . S
O466 C468 1.254 1_556 S
O467 Dy460 2.664 1_554 S
O467 Dy463 2.310 . S
O467 C468 1.268 . S
C468 O466 1.254 1_554 S
C468 O467 1.268 . S
C469 O474 1.254 . S
C469 O475 1.268 . S
O470 Dy463 2.351 . S
O470 C478 1.249 . S
O471 Dy460 2.326 1_554 S
O471 C478 1.267 . S
O472 C461 1.185 . S
O472 Dy463 2.398 . S
O473 C461 1.355 . S
O473 Dy463 2.491 . S
O474 Dy463 2.403 . S
O474 C469 1.254 . S
O475 Dy460 2.310 1_554 S
O475 Dy463 2.664 . S
O475 C469 1.268 . S
O476 Dy460 2.351 . S
O476 C479 1.249 . S
O477 Dy463 2.326 . S
O477 C479 1.267 1_554 S
C478 O470 1.249 . S
C478 O471 1.267 . S
C479 O476 1.249 . S
C479 O477 1.267 1_556 S
Dy480 O484 2.398 . S
Dy480 O485 2.491 . S
Dy480 O486 2.403 . S
Dy480 O487 2.664 . S
Dy480 O491 2.326 . S
Dy480 O495 2.310 . S
Dy480 O496 2.351 . S
C481 O492 1.185 . S
C481 O493 1.355 . S
C482 O484 1.185 . S
C482 O485 1.355 . S
Dy483 O487 2.310 . S
Dy483 O490 2.351 . S
Dy483 O492 2.398 . S
Dy483 O493 2.491 . S
Dy483 O494 2.403 . S
Dy483 O495 2.664 . S
Dy483 O497 2.326 . S
O484 Dy480 2.398 . S
O484 C482 1.185 . S
O485 Dy480 2.491 . S
O485 C482 1.355 . S
O486 Dy480 2.403 . S
O486 C488 1.254 . S
O487 Dy480 2.664 . S
O487 Dy483 2.310 . S
O487 C488 1.268 . S
C488 O486 1.254 . S
C488 O487 1.268 . S
C489 O494 1.254 . S
C489 O495 1.268 . S
O490 Dy483 2.351 . S
O490 C498 1.249 . S
O491 Dy480 2.326 . S
O491 C498 1.267 . S
O492 C481 1.185 . S
O492 Dy483 2.398 . S
O493 C481 1.355 . S
O493 Dy483 2.491 . S
O494 Dy483 2.403 . S
O494 C489 1.254 . S
O495 Dy480 2.310 . S
O495 Dy483 2.664 . S
O495 C489 1.268 . S
O496 Dy480 2.351 . S
O496 C499 1.249 . S
O497 Dy483 2.326 . S
O497 C499 1.267 . S
C498 O490 1.249 . S
C498 O491 1.267 . S
C499 O496 1.249 . S
C499 O497 1.267 . S
Dy500 O504 2.398 . S
Dy500 O505 2.491 . S
Dy500 O506 2.403 . S
Dy500 O507 2.664 . S
Dy500 O511 2.326 . S
Dy500 O515 2.310 . S
Dy500 O516 2.351 . S
C501 O512 1.185 . S
C501 O513 1.355 . S
C502 O504 1.185 . S
C502 O505 1.355 . S
Dy503 O507 2.310 . S
Dy503 O510 2.351 . S
Dy503 O512 2.398 . S
Dy503 O513 2.491 . S
Dy503 O514 2.403 . S
Dy503 O515 2.664 . S
Dy503 O517 2.326 . S
O504 Dy500 2.398 . S
O504 C502 1.185 . S
O505 Dy500 2.491 . S
O505 C502 1.355 . S
O506 Dy500 2.403 . S
O506 C508 1.254 . S
O507 Dy500 2.664 . S
O507 Dy503 2.310 . S
O507 C508 1.268 . S
C508 O506 1.254 . S
C508 O507 1.268 . S
C509 O514 1.254 . S
C509 O515 1.268 . S
O510 Dy503 2.351 . S
O510 C518 1.249 . S
O511 Dy500 2.326 . S
O511 C518 1.267 . S
O512 C501 1.185 . S
O512 Dy503 2.398 . S
O513 C501 1.355 . S
O513 Dy503 2.491 . S
O514 Dy503 2.403 . S
O514 C509 1.254 . S
O515 Dy500 2.310 . S
O515 Dy503 2.664 . S
O515 C509 1.268 . S
O516 Dy500 2.351 . S
O516 C519 1.249 . S
O517 Dy503 2.326 . S
O517 C519 1.267 . S
C518 O510 1.249 . S
C518 O511 1.267 . S
C519 O516 1.249 . S
C519 O517 1.267 . S
Dy520 O524 2.398 . S
Dy520 O525 2.491 . S
Dy520 O526 2.403 . S
Dy520 O527 2.664 . S
Dy520 O531 2.326 . S
Dy520 O535 2.310 . S
Dy520 O536 2.351 . S
C521 O532 1.185 . S
C521 O533 1.355 . S
C522 O524 1.185 . S
C522 O525 1.355 . S
Dy523 O527 2.310 . S
Dy523 O530 2.351 . S
Dy523 O532 2.398 . S
Dy523 O533 2.491 . S
Dy523 O534 2.403 . S
Dy523 O535 2.664 . S
Dy523 O537 2.326 . S
O524 Dy520 2.398 . S
O524 C522 1.185 . S
O525 Dy520 2.491 . S
O525 C522 1.355 . S
O526 Dy520 2.403 . S
O526 C528 1.254 . S
O527 Dy520 2.664 . S
O527 Dy523 2.310 . S
O527 C528 1.268 . S
C528 O526 1.254 . S
C528 O527 1.268 . S
C529 O534 1.254 . S
C529 O535 1.268 . S
O530 Dy523 2.351 . S
O530 C538 1.249 . S
O531 Dy520 2.326 . S
O531 C538 1.267 . S
O532 C521 1.185 . S
O532 Dy523 2.398 . S
O533 C521 1.355 . S
O533 Dy523 2.491 . S
O534 Dy523 2.403 . S
O534 C529 1.254 . S
O535 Dy520 2.310 . S
O535 Dy523 2.664 . S
O535 C529 1.268 . S
O536 Dy520 2.351 . S
O536 C539 1.249 . S
O537 Dy523 2.326 . S
O537 C539 1.267 . S
C538 O530 1.249 . S
C538 O531 1.267 . S
C539 O536 1.249 . S
C539 O537 1.267 . S
Dy540 O544 2.398 . S
Dy540 O545 2.491 . S
Dy540 O546 2.403 . S
Dy540 O547 2.664 . S
Dy540 O551 2.326 . S
Dy540 O555 2.310 . S
Dy540 O556 2.351 . S
C541 O552 1.185 . S
C541 O553 1.355 . S
C542 O544 1.185 . S
C542 O545 1.355 . S
Dy543 O547 2.310 . S
Dy543 O550 2.351 . S
Dy543 O552 2.398 . S
Dy543 O553 2.491 . S
Dy543 O554 2.403 . S
Dy543 O555 2.664 . S
Dy543 O557 2.326 . S
O544 Dy540 2.398 . S
O544 C542 1.185 . S
O545 Dy540 2.491 . S
O545 C542 1.355 . S
O546 Dy540 2.403 . S
O546 C548 1.254 . S
O547 Dy540 2.664 . S
O547 Dy543 2.310 . S
O547 C548 1.268 . S
C548 O546 1.254 . S
C548 O547 1.268 . S
C549 O554 1.254 . S
C549 O555 1.268 . S
O550 Dy543 2.351 . S
O550 C558 1.249 . S
O551 Dy540 2.326 . S
O551 C558 1.267 . S
O552 C541 1.185 . S
O552 Dy543 2.398 . S
O553 C541 1.355 . S
O553 Dy543 2.491 . S
O554 Dy543 2.403 . S
O554 C549 1.254 . S
O555 Dy540 2.310 . S
O555 Dy543 2.664 . S
O555 C549 1.268 . S
O556 Dy540 2.351 . S
O556 C559 1.249 . S
O557 Dy543 2.326 . S
O557 C559 1.267 . S
C558 O550 1.249 . S
C558 O551 1.267 . S
C559 O556 1.249 . S
C559 O557 1.267 . S
Dy560 O564 2.398 . S
Dy560 O565 2.491 . S
Dy560 O566 2.403 . S
Dy560 O567 2.664 . S
Dy560 O571 2.326 . S
Dy560 O575 2.310 . S
Dy560 O576 2.351 . S
C561 O572 1.185 . S
C561 O573 1.355 . S
C562 O564 1.185 . S
C562 O565 1.355 . S
Dy563 O567 2.310 . S
Dy563 O570 2.351 . S
Dy563 O572 2.398 . S
Dy563 O573 2.491 . S
Dy563 O574 2.403 . S
Dy563 O575 2.664 . S
Dy563 O577 2.326 . S
O564 Dy560 2.398 . S
O564 C562 1.185 . S
O565 Dy560 2.491 . S
O565 C562 1.355 . S
O566 Dy560 2.403 . S
O566 C568 1.254 . S
O567 Dy560 2.664 . S
O567 Dy563 2.310 . S
O567 C568 1.268 . S
C568 O566 1.254 . S
C568 O567 1.268 . S
C569 O574 1.254 . S
C569 O575 1.268 . S
O570 Dy563 2.351 . S
O570 C578 1.249 . S
O571 Dy560 2.326 . S
O571 C578 1.267 . S
O572 C561 1.185 . S
O572 Dy563 2.398 . S
O573 C561 1.355 . S
O573 Dy563 2.491 . S
O574 Dy563 2.403 . S
O574 C569 1.254 . S
O575 Dy560 2.310 . S
O575 Dy563 2.664 . S
O575 C569 1.268 . S
O576 Dy560 2.351 . S
O576 C579 1.249 . S
O577 Dy563 2.326 . S
O577 C579 1.267 . S
C578 O570 1.249 . S
C578 O571 1.267 . S
C579 O576 1.249 . S
C579 O577 1.267 . S
Dy580 O584 2.398 . S
Dy580 O585 2.491 . S
Dy580 O586 2.403 . S
Dy580 O587 2.664 . S
Dy580 O591 2.326 . S
Dy580 O595 2.310 . S
Dy580 O596 2.351 . S
C581 O592 1.185 . S
C581 O593 1.355 . S
C582 O584 1.185 . S
C582 O585 1.355 . S
Dy583 O587 2.310 . S
Dy583 O590 2.351 . S
Dy583 O592 2.398 . S
Dy583 O593 2.491 . S
Dy583 O594 2.403 . S
Dy583 O595 2.664 . S
Dy583 O597 2.326 . S
O584 Dy580 2.398 . S
O584 C582 1.185 . S
O585 Dy580 2.491 . S
O585 C582 1.355 . S
O586 Dy580 2.403 . S
O586 C588 1.254 . S
O587 Dy580 2.664 . S
O587 Dy583 2.310 . S
O587 C588 1.268 . S
C588 O586 1.254 . S
C588 O587 1.268 . S
C589 O594 1.254 . S
C589 O595 1.268 . S
O590 Dy583 2.351 . S
O590 C598 1.249 . S
O591 Dy580 2.326 . S
O591 C598 1.267 . S
O592 C581 1.185 . S
O592 Dy583 2.398 . S
O593 C581 1.355 . S
O593 Dy583 2.491 . S
O594 Dy583 2.403 . S
O594 C589 1.254 . S
O595 Dy580 2.310 . S
O595 Dy583 2.664 . S
O595 C589 1.268 . S
O596 Dy580 2.351 . S
O596 C599 1.249 . S
O597 Dy583 2.326 . S
O597 C599 1.267 . S
C598 O590 1.249 . S
C598 O591 1.267 . S
C599 O596 1.249 . S
C599 O597 1.267 . S
Dy600 O604 2.398 . S
Dy600 O605 2.491 . S
Dy600 O606 2.403 . S
Dy600 O607 2.664 . S
Dy600 O611 2.326 . S
Dy600 O615 2.310 . S
Dy600 O616 2.351 . S
C601 O612 1.185 . S
C601 O613 1.355 . S
C602 O604 1.185 . S
C602 O605 1.355 . S
Dy603 O607 2.310 . S
Dy603 O610 2.351 . S
Dy603 O612 2.398 . S
Dy603 O613 2.491 . S
Dy603 O614 2.403 . S
Dy603 O615 2.664 . S
Dy603 O617 2.326 . S
O604 Dy600 2.398 . S
O604 C602 1.185 . S
O605 Dy600 2.491 . S
O605 C602 1.355 . S
O606 Dy600 2.403 . S
O606 C608 1.254 . S
O607 Dy600 2.664 . S
O607 Dy603 2.310 . S
O607 C608 1.268 . S
C608 O606 1.254 . S
C608 O607 1.268 . S
C609 O614 1.254 . S
C609 O615 1.268 . S
O610 Dy603 2.351 . S
O610 C618 1.249 . S
O611 Dy600 2.326 . S
O611 C618 1.267 . S
O612 C601 1.185 . S
O612 Dy603 2.398 . S
O613 C601 1.355 . S
O613 Dy603 2.491 . S
O614 Dy603 2.403 . S
O614 C609 1.254 . S
O615 Dy600 2.310 . S
O615 Dy603 2.664 . S
O615 C609 1.268 . S
O616 Dy600 2.351 . S
O616 C619 1.249 . S
O617 Dy603 2.326 . S
O617 C619 1.267 . S
C618 O610 1.249 . S
C618 O611 1.267 . S
C619 O616 1.249 . S
C619 O617 1.267 . S
Dy620 O624 2.398 . S
Dy620 O625 2.491 . S
Dy620 O626 2.403 . S
Dy620 O627 2.664 . S
Dy620 O631 2.326 . S
Dy620 O635 2.310 . S
Dy620 O636 2.351 . S
C621 O632 1.185 . S
C621 O633 1.355 . S
C622 O624 1.185 . S
C622 O625 1.355 . S
Dy623 O627 2.310 . S
Dy623 O630 2.351 . S
Dy623 O632 2.398 . S
Dy623 O633 2.491 . S
Dy623 O634 2.403 . S
Dy623 O635 2.664 . S
Dy623 O637 2.326 . S
O624 Dy620 2.398 . S
O624 C622 1.185 . S
O625 Dy620 2.491 . S
O625 C622 1.355 . S
O626 Dy620 2.403 . S
O626 C628 1.254 . S
O627 Dy620 2.664 . S
O627 Dy623 2.310 . S
O627 C628 1.268 . S
C628 O626 1.254 . S
C628 O627 1.268 . S
C629 O634 1.254 . S
C629 O635 1.268 . S
O630 Dy623 2.351 . S
O630 C638 1.249 . S
O631 Dy620 2.326 . S
O631 C638 1.267 . S
O632 C621 1.185 . S
O632 Dy623 2.398 . S
O633 C621 1.355 . S
O633 Dy623 2.491 . S
O634 Dy623 2.403 . S
O634 C629 1.254 . S
O635 Dy620 2.310 . S
O635 Dy623 2.664 . S
O635 C629 1.268 . S
O636 Dy620 2.351 . S
O636 C639 1.249 . S
O637 Dy623 2.326 . S
O637 C639 1.267 . S
C638 O630 1.249 . S
C638 O631 1.267 . S
C639 O636 1.249 . S
C639 O637 1.267 . S
Dy640 O644 2.398 . S
Dy640 O645 2.491 . S
Dy640 O646 2.403 . S
Dy640 O647 2.664 . S
Dy640 O651 2.326 . S
Dy640 O655 2.310 . S
Dy640 O656 2.351 . S
C641 O652 1.185 . S
C641 O653 1.355 . S
C642 O644 1.185 . S
C642 O645 1.355 . S
Dy643 O647 2.310 . S
Dy643 O650 2.351 . S
Dy643 O652 2.398 . S
Dy643 O653 2.491 . S
Dy643 O654 2.403 . S
Dy643 O655 2.664 . S
Dy643 O657 2.326 . S
O644 Dy640 2.398 . S
O644 C642 1.185 . S
O645 Dy640 2.491 . S
O645 C642 1.355 . S
O646 Dy640 2.403 . S
O646 C648 1.254 . S
O647 Dy640 2.664 . S
O647 Dy643 2.310 . S
O647 C648 1.268 . S
C648 O646 1.254 . S
C648 O647 1.268 . S
C649 O654 1.254 . S
C649 O655 1.268 . S
O650 Dy643 2.351 . S
O650 C658 1.249 . S
O651 Dy640 2.326 . S
O651 C658 1.267 . S
O652 C641 1.185 . S
O652 Dy643 2.398 . S
O653 C641 1.355 . S
O653 Dy643 2.491 . S
O654 Dy643 2.403 . S
O654 C649 1.254 . S
O655 Dy640 2.310 . S
O655 Dy643 2.664 . S
O655 C649 1.268 . S
O656 Dy640 2.351 . S
O656 C659 1.249 . S
O657 Dy643 2.326 . S
O657 C659 1.267 . S
C658 O650 1.249 . S
C658 O651 1.267 . S
C659 O656 1.249 . S
C659 O657 1.267 . S
Dy660 O664 2.398 . S
Dy660 O665 2.491 . S
Dy660 O666 2.403 . S
Dy660 O667 2.664 . S
Dy660 O671 2.326 . S
Dy660 O675 2.310 . S
Dy660 O676 2.351 . S
C661 O672 1.185 . S
C661 O673 1.355 . S
C662 O664 1.185 . S
C662 O665 1.355 . S
Dy663 O667 2.310 . S
Dy663 O670 2.351 . S
Dy663 O672 2.398 . S
Dy663 O673 2.491 . S
Dy663 O674 2.403 . S
Dy663 O675 2.664 . S
Dy663 O677 2.326 . S
O664 Dy660 2.398 . S
O664 C662 1.185 . S
O665 Dy660 2.491 . S
O665 C662 1.355 . S
O666 Dy660 2.403 . S
O666 C668 1.254 . S
O667 Dy660 2.664 . S
O667 Dy663 2.310 . S
O667 C668 1.268 . S
C668 O666 1.254 . S
C668 O667 1.268 . S
C669 O674 1.254 . S
C669 O675 1.268 . S
O670 Dy663 2.351 . S
O670 C678 1.249 . S
O671 Dy660 2.326 . S
O671 C678 1.267 . S
O672 C661 1.185 . S
O672 Dy663 2.398 . S
O673 C661 1.355 . S
O673 Dy663 2.491 . S
O674 Dy663 2.403 . S
O674 C669 1.254 . S
O675 Dy660 2.310 . S
O675 Dy663 2.664 . S
O675 C669 1.268 . S
O676 Dy660 2.351 . S
O676 C679 1.249 . S
O677 Dy663 2.326 . S
O677 C679 1.267 . S
C678 O670 1.249 . S
C678 O671 1.267 . S
C679 O676 1.249 . S
C679 O677 1.267 . S
Dy680 O684 2.398 . S
Dy680 O685 2.491 . S
Dy680 O686 2.403 . S
Dy680 O687 2.664 . S
Dy680 O691 2.326 . S
Dy680 O695 2.310 . S
Dy680 O696 2.351 . S
C681 O692 1.185 . S
C681 O693 1.355 . S
C682 O684 1.185 . S
C682 O685 1.355 . S
Dy683 O687 2.310 . S
Dy683 O690 2.351 . S
Dy683 O692 2.398 . S
Dy683 O693 2.491 . S
Dy683 O694 2.403 . S
Dy683 O695 2.664 . S
Dy683 O697 2.326 . S
O684 Dy680 2.398 . S
O684 C682 1.185 . S
O685 Dy680 2.491 . S
O685 C682 1.355 . S
O686 Dy680 2.403 . S
O686 C688 1.254 . S
O687 Dy680 2.664 . S
O687 Dy683 2.310 . S
O687 C688 1.268 . S
C688 O686 1.254 . S
C688 O687 1.268 . S
C689 O694 1.254 . S
C689 O695 1.268 . S
O690 Dy683 2.351 . S
O690 C698 1.249 . S
O691 Dy680 2.326 . S
O691 C698 1.267 . S
O692 C681 1.185 . S
O692 Dy683 2.398 . S
O693 C681 1.355 . S
O693 Dy683 2.491 . S
O694 Dy683 2.403 . S
O694 C689 1.254 . S
O695 Dy680 2.310 . S
O695 Dy683 2.664 . S
O695 C689 1.268 . S
O696 Dy680 2.351 . S
O696 C699 1.249 . S
O697 Dy683 2.326 . S
O697 C699 1.267 . S
C698 O690 1.249 . S
C698 O691 1.267 . S
C699 O696 1.249 . S
C699 O697 1.267 . S
Dy700 O704 2.398 . S
Dy700 O705 2.491 . S
Dy700 O706 2.403 . S
Dy700 O707 2.664 . S
Dy700 O711 2.326 . S
Dy700 O715 2.310 . S
Dy700 O716 2.351 . S
C701 O712 1.185 . S
C701 O713 1.355 . S
C702 O704 1.185 . S
C702 O705 1.355 . S
Dy703 O707 2.310 . S
Dy703 O710 2.351 . S
Dy703 O712 2.398 . S
Dy703 O713 2.491 . S
Dy703 O714 2.403 . S
Dy703 O715 2.664 . S
Dy703 O717 2.326 . S
O704 Dy700 2.398 . S
O704 C702 1.185 . S
O705 Dy700 2.491 . S
O705 C702 1.355 . S
O706 Dy700 2.403 . S
O706 C708 1.254 . S
O707 Dy700 2.664 . S
O707 Dy703 2.310 . S
O707 C708 1.268 . S
C708 O706 1.254 . S
C708 O707 1.268 . S
C709 O714 1.254 . S
C709 O715 1.268 . S
O710 Dy703 2.351 . S
O710 C718 1.249 . S
O711 Dy700 2.326 . S
O711 C718 1.267 . S
O712 C701 1.185 . S
O712 Dy703 2.398 . S
O713 C701 1.355 . S
O713 Dy703 2.491 . S
O714 Dy703 2.403 . S
O714 C709 1.254 . S
O715 Dy700 2.310 . S
O715 Dy703 2.664 . S
O715 C709 1.268 . S
O716 Dy700 2.351 . S
O716 C719 1.249 . S
O717 Dy703 2.326 . S
O717 C719 1.267 . S
C718 O710 1.249 . S
C718 O711 1.267 . S
C719 O716 1.249 . S
C719 O717 1.267 . S
Dy720 O724 2.398 . S
Dy720 O725 2.491 . S
Dy720 O726 2.403 . S
Dy720 O727 2.664 . S
Dy720 O731 2.326 . S
Dy720 O735 2.310 . S
Dy720 O736 2.351 . S
C721 O732 1.185 . S
C721 O733 1.355 . S
C722 O724 1.185 . S
C722 O725 1.355 . S
Dy723 O727 2.310 . S
Dy723 O730 2.351 . S
Dy723 O732 2.398 . S
Dy723 O733 2.491 . S
Dy723 O734 2.403 . S
Dy723 O735 2.664 . S
Dy723 O737 2.326 . S
O724 Dy720 2.398 . S
O724 C722 1.185 . S
O725 Dy720 2.491 . S
O725 C722 1.355 . S
O726 Dy720 2.403 . S
O726 C728 1.254 . S
O727 Dy720 2.664 . S
O727 Dy723 2.310 . S
O727 C728 1.268 . S
C728 O726 1.254 . S
C728 O727 1.268 . S
C729 O734 1.254 . S
C729 O735 1.268 . S
O730 Dy723 2.351 . S
O730 C738 1.249 . S
O731 Dy720 2.326 . S
O731 C738 1.267 . S
O732 C721 1.185 . S
O732 Dy723 2.398 . S
O733 C721 1.355 . S
O733 Dy723 2.491 . S
O734 Dy723 2.403 . S
O734 C729 1.254 . S
O735 Dy720 2.310 . S
O735 Dy723 2.664 . S
O735 C729 1.268 . S
O736 Dy720 2.351 . S
O736 C739 1.249 . S
O737 Dy723 2.326 . S
O737 C739 1.267 . S
C738 O730 1.249 . S
C738 O731 1.267 . S
C739 O736 1.249 . S
C739 O737 1.267 . S
Dy740 O744 2.398 . S
Dy740 O745 2.491 . S
Dy740 O746 2.403 . S
Dy740 O747 2.664 . S
Dy740 O751 2.326 . S
Dy740 O755 2.310 . S
Dy740 O756 2.351 . S
C741 O752 1.185 . S
C741 O753 1.355 . S
C742 O744 1.185 . S
C742 O745 1.355 . S
Dy743 O747 2.310 . S
Dy743 O750 2.351 . S
Dy743 O752 2.398 . S
Dy743 O753 2.491 . S
Dy743 O754 2.403 . S
Dy743 O755 2.664 . S
Dy743 O757 2.326 . S
O744 Dy740 2.398 . S
O744 C742 1.185 . S
O745 Dy740 2.491 . S
O745 C742 1.355 . S
O746 Dy740 2.403 . S
O746 C748 1.254 . S
O747 Dy740 2.664 . S
O747 Dy743 2.310 . S
O747 C748 1.268 . S
C748 O746 1.254 . S
C748 O747 1.268 . S
C749 O754 1.254 . S
C749 O755 1.268 . S
O750 Dy743 2.351 . S
O750 C758 1.249 . S
O751 Dy740 2.326 . S
O751 C758 1.267 . S
O752 C741 1.185 . S
O752 Dy743 2.398 . S
O753 C741 1.355 . S
O753 Dy743 2.491 . S
O754 Dy743 2.403 . S
O754 C749 1.254 . S
O755 Dy740 2.310 . S
O755 Dy743 2.664 . S
O755 C749 1.268 . S
O756 Dy740 2.351 . S
O756 C759 1.249 . S
O757 Dy743 2.326 . S
O757 C759 1.267 . S
C758 O750 1.249 . S
C758 O751 1.267 . S
C759 O756 1.249 . S
C759 O757 1.267 . S
Dy760 O764 2.398 . S
Dy760 O765 2.491 . S
Dy760 O766 2.403 . S
Dy760 O767 2.664 . S
Dy760 O771 2.326 . S
Dy760 O775 2.310 . S
Dy760 O776 2.351 . S
C761 O772 1.185 . S
C761 O773 1.355 . S
C762 O764 1.185 . S
C762 O765 1.355 . S
Dy763 O767 2.310 . S
Dy763 O770 2.351 . S
Dy763 O772 2.398 . S
Dy763 O773 2.491 . S
Dy763 O774 2.403 . S
Dy763 O775 2.664 . S
Dy763 O777 2.326 . S
O764 Dy760 2.398 . S
O764 C762 1.185 . S
O765 Dy760 2.491 . S
O765 C762 1.355 . S
O766 Dy760 2.403 . S
O766 C768 1.254 . S
O767 Dy760 2.664 . S
O767 Dy763 2.310 . S
O767 C768 1.268 . S
C768 O766 1.254 . S
C768 O767 1.268 . S
C769 O774 1.254 . S
C769 O775 1.268 . S
O770 Dy763 2.351 . S
O770 C778 1.249 . S
O771 Dy760 2.326 . S
O771 C778 1.267 . S
O772 C761 1.185 . S
O772 Dy763 2.398 . S
O773 C761 1.355 . S
O773 Dy763 2.491 . S
O774 Dy763 2.403 . S
O774 C769 1.254 . S
O775 Dy760 2.310 . S
O775 Dy763 2.664 . S
O775 C769 1.268 . S
O776 Dy760 2.351 . S
O776 C779 1.249 . S
O777 Dy763 2.326 . S
O777 C779 1.267 . S
C778 O770 1.249 . S
C778 O771 1.267 . S
C779 O776 1.249 . S
C779 O777 1.267 . S
Dy780 O784 2.398 . S
Dy780 O785 2.491 . S
Dy780 O786 2.403 . S
Dy780 O787 2.664 . S
Dy780 O791 2.326 . S
Dy780 O795 2.310 . S
Dy780 O796 2.351 . S
C781 O792 1.185 . S
C781 O793 1.355 . S
C782 O784 1.185 . S
C782 O785 1.355 . S
Dy783 O787 2.310 . S
Dy783 O790 2.351 . S
Dy783 O792 2.398 . S
Dy783 O793 2.491 . S
Dy783 O794 2.403 . S
Dy783 O795 2.664 . S
Dy783 O797 2.326 . S
O784 Dy780 2.398 . S
O784 C782 1.185 . S
O785 Dy780 2.491 . S
O785 C782 1.355 . S
O786 Dy780 2.403 . S
O786 C788 1.254 . S
O787 Dy780 2.664 . S
O787 Dy783 2.310 . S
O787 C788 1.268 . S
C788 O786 1.254 . S
C788 O787 1.268 . S
C789 O794 1.254 . S
C789 O795 1.268 . S
O790 Dy783 2.351 . S
O790 C798 1.249 . S
O791 Dy780 2.326 . S
O791 C798 1.267 . S
O792 C781 1.185 . S
O792 Dy783 2.398 . S
O793 C781 1.355 . S
O793 Dy783 2.491 . S
O794 Dy783 2.403 . S
O794 C789 1.254 . S
O795 Dy780 2.310 . S
O795 Dy783 2.664 . S
O795 C789 1.268 . S
O796 Dy780 2.351 . S
O796 C799 1.249 . S
O797 Dy783 2.326 . S
O797 C799 1.267 . S
C798 O790 1.249 . S
C798 O791 1.267 . S
C799 O796 1.249 . S
C799 O797 1.267 . S
Dy800 O804 2.398 . S
Dy800 O805 2.491 . S
Dy800 O806 2.403 . S
Dy800 O807 2.664 . S
Dy800 O811 2.326 . S
Dy800 O815 2.310 . S
Dy800 O816 2.351 . S
C801 O812 1.185 . S
C801 O813 1.355 . S
C802 O804 1.185 . S
C802 O805 1.355 . S
Dy803 O807 2.310 . S
Dy803 O810 2.351 . S
Dy803 O812 2.398 . S
Dy803 O813 2.491 . S
Dy803 O814 2.403 . S
Dy803 O815 2.664 . S
Dy803 O817 2.326 . S
O804 Dy800 2.398 . S
O804 C802 1.185 . S
O805 Dy800 2.491 . S
O805 C802 1.355 . S
O806 Dy800 2.403 . S
O806 C808 1.254 . S
O807 Dy800 2.664 . S
O807 Dy803 2.310 . S
O807 C808 1.268 . S
C808 O806 1.254 . S
C808 O807 1.268 . S
C809 O814 1.254 . S
C809 O815 1.268 . S
O810 Dy803 2.351 . S
O810 C818 1.249 . S
O811 Dy800 2.326 . S
O811 C818 1.267 . S
O812 C801 1.185 . S
O812 Dy803 2.398 . S
O813 C801 1.355 . S
O813 Dy803 2.491 . S
O814 Dy803 2.403 . S
O814 C809 1.254 . S
O815 Dy800 2.310 . S
O815 Dy803 2.664 . S
O815 C809 1.268 . S
O816 Dy800 2.351 . S
O816 C819 1.249 . S
O817 Dy803 2.326 . S
O817 C819 1.267 . S
C818 O810 1.249 . S
C818 O811 1.267 . S
C819 O816 1.249 . S
C819 O817 1.267 . S
Dy820 O824 2.398 . S
Dy820 O825 2.491 . S
Dy820 O826 2.403 . S
Dy820 O827 2.664 . S
Dy820 O831 2.326 . S
Dy820 O835 2.310 . S
Dy820 O836 2.351 . S
C821 O832 1.185 . S
C821 O833 1.355 . S
C822 O824 1.185 . S
C822 O825 1.355 . S
Dy823 O827 2.310 . S
Dy823 O830 2.351 . S
Dy823 O832 2.398 . S
Dy823 O833 2.491 . S
Dy823 O834 2.403 . S
Dy823 O835 2.664 . S
Dy823 O837 2.326 . S
O824 Dy820 2.398 . S
O824 C822 1.185 . S
O825 Dy820 2.491 . S
O825 C822 1.355 . S
O826 Dy820 2.403 . S
O826 C828 1.254 . S
O827 Dy820 2.664 . S
O827 Dy823 2.310 . S
O827 C828 1.268 . S
C828 O826 1.254 . S
C828 O827 1.268 . S
C829 O834 1.254 . S
C829 O835 1.268 . S
O830 Dy823 2.351 . S
O830 C838 1.249 . S
O831 Dy820 2.326 . S
O831 C838 1.267 . S
O832 C821 1.185 . S
O832 Dy823 2.398 . S
O833 C821 1.355 . S
O833 Dy823 2.491 . S
O834 Dy823 2.403 . S
O834 C829 1.254 . S
O835 Dy820 2.310 . S
O835 Dy823 2.664 . S
O835 C829 1.268 . S
O836 Dy820 2.351 . S
O836 C839 1.249 . S
O837 Dy823 2.326 . S
O837 C839 1.267 . S
C838 O830 1.249 . S
C838 O831 1.267 . S
C839 O836 1.249 . S
C839 O837 1.267 . S
Dy840 O844 2.398 . S
Dy840 O845 2.491 . S
Dy840 O846 2.403 . S
Dy840 O847 2.664 . S
Dy840 O851 2.326 . S
Dy840 O855 2.310 . S
Dy840 O856 2.351 . S
C841 O852 1.185 . S
C841 O853 1.355 . S
C842 O844 1.185 . S
C842 O845 1.355 . S
Dy843 O847 2.310 . S
Dy843 O850 2.351 . S
Dy843 O852 2.398 . S
Dy843 O853 2.491 . S
Dy843 O854 2.403 . S
Dy843 O855 2.664 . S
Dy843 O857 2.326 . S
O844 Dy840 2.398 . S
O844 C842 1.185 . S
O845 Dy840 2.491 . S
O845 C842 1.355 . S
O846 Dy840 2.403 . S
O846 C848 1.254 . S
O847 Dy840 2.664 . S
O847 Dy843 2.310 . S
O847 C848 1.268 . S
C848 O846 1.254 . S
C848 O847 1.268 . S
C849 O854 1.254 . S
C849 O855 1.268 . S
O850 Dy843 2.351 . S
O850 C858 1.249 . S
O851 Dy840 2.326 . S
O851 C858 1.267 . S
O852 C841 1.185 . S
O852 Dy843 2.398 . S
O853 C841 1.355 . S
O853 Dy843 2.491 . S
O854 Dy843 2.403 . S
O854 C849 1.254 . S
O855 Dy840 2.310 . S
O855 Dy843 2.664 . S
O855 C849 1.268 . S
O856 Dy840 2.351 . S
O856 C859 1.249 . S
O857 Dy843 2.326 . S
O857 C859 1.267 . S
C858 O850 1.249 . S
C858 O851 1.267 . S
C859 O856 1.249 . S
C859 O857 1.267 . S
Dy860 O864 2.398 . S
Dy860 O865 2.491 . S
Dy860 O866 2.403 . S
Dy860 O867 2.664 . S
Dy860 O871 2.326 . S
Dy860 O875 2.310 . S
Dy860 O876 2.351 . S
C861 O872 1.185 . S
C861 O873 1.355 . S
C862 O864 1.185 . S
C862 O865 1.355 . S
Dy863 O867 2.310 . S
Dy863 O870 2.351 . S
Dy863 O872 2.398 . S
Dy863 O873 2.491 . S
Dy863 O874 2.403 . S
Dy863 O875 2.664 . S
Dy863 O877 2.326 . S
O864 Dy860 2.398 . S
O864 C862 1.185 . S
O865 Dy860 2.491 . S
O865 C862 1.355 . S
O866 Dy860 2.403 . S
O866 C868 1.254 . S
O867 Dy860 2.664 . S
O867 Dy863 2.310 . S
O867 C868 1.268 . S
C868 O866 1.254 . S
C868 O867 1.268 . S
C869 O874 1.254 . S
C869 O875 1.268 . S
O870 Dy863 2.351 . S
O870 C878 1.249 . S
O871 Dy860 2.326 . S
O871 C878 1.267 . S
O872 C861 1.185 . S
O872 Dy863 2.398 . S
O873 C861 1.355 . S
O873 Dy863 2.491 . S
O874 Dy863 2.403 . S
O874 C869 1.254 . S
O875 Dy860 2.310 . S
O875 Dy863 2.664 . S
O875 C869 1.268 . S
O876 Dy860 2.351 . S
O876 C879 1.249 . S
O877 Dy863 2.326 . S
O877 C879 1.267 . S
C878 O870 1.249 . S
C878 O871 1.267 . S
C879 O876 1.249 . S
C879 O877 1.267 . S
Dy880 O884 2.398 . S
Dy880 O885 2.491 . S
Dy880 O886 2.403 . S
Dy880 O887 2.664 . S
Dy880 O891 2.326 . S
Dy880 O895 2.310 . S
Dy880 O896 2.351 . S
C881 O892 1.185 . S
C881 O893 1.355 . S
C882 O884 1.185 . S
C882 O885 1.355 . S
Dy883 O887 2.310 . S
Dy883 O890 2.351 . S
Dy883 O892 2.398 . S
Dy883 O893 2.491 . S
Dy883 O894 2.403 . S
Dy883 O895 2.664 . S
Dy883 O897 2.326 . S
O884 Dy880 2.398 . S
O884 C882 1.185 . S
O885 Dy880 2.491 . S
O885 C882 1.355 . S
O886 Dy880 2.403 . S
O886 C888 1.254 . S
O887 Dy880 2.664 . S
O887 Dy883 2.310 . S
O887 C888 1.268 . S
C888 O886 1.254 . S
C888 O887 1.268 . S
C889 O894 1.254 . S
C889 O895 1.268 . S
O890 Dy883 2.351 . S
O890 C898 1.249 . S
O891 Dy880 2.326 . S
O891 C898 1.267 . S
O892 C881 1.185 . S
O892 Dy883 2.398 . S
O893 C881 1.355 . S
O893 Dy883 2.491 . S
O894 Dy883 2.403 . S
O894 C889 1.254 . S
O895 Dy880 2.310 . S
O895 Dy883 2.664 . S
O895 C889 1.268 . S
O896 Dy880 2.351 . S
O896 C899 1.249 . S
O897 Dy883 2.326 . S
O897 C899 1.267 . S
C898 O890 1.249 . S
C898 O891 1.267 . S
C899 O896 1.249 . S
C899 O897 1.267 . S
Dy900 O904 2.398 . S
Dy900 O905 2.491 . S
Dy900 O906 2.403 . S
Dy900 O907 2.664 . S
Dy900 O911 2.326 . S
Dy900 O915 2.310 . S
Dy900 O916 2.351 . S
C901 O912 1.185 . S
C901 O913 1.355 . S
C902 O904 1.185 . S
C902 O905 1.355 . S
Dy903 O907 2.310 . S
Dy903 O910 2.351 . S
Dy903 O912 2.398 . S
Dy903 O913 2.491 . S
Dy903 O914 2.403 . S
Dy903 O915 2.664 . S
Dy903 O917 2.326 . S
O904 Dy900 2.398 . S
O904 C902 1.185 . S
O905 Dy900 2.491 . S
O905 C902 1.355 . S
O906 Dy900 2.403 . S
O906 C908 1.254 . S
O907 Dy900 2.664 . S
O907 Dy903 2.310 . S
O907 C908 1.268 . S
C908 O906 1.254 . S
C908 O907 1.268 . S
C909 O914 1.254 . S
C909 O915 1.268 . S
O910 Dy903 2.351 . S
O910 C918 1.249 . S
O911 Dy900 2.326 . S
O911 C918 1.267 . S
O912 C901 1.185 . S
O912 Dy903 2.398 . S
O913 C901 1.355 . S
O913 Dy903 2.491 . S
O914 Dy903 2.403 . S
O914 C909 1.254 . S
O915 Dy900 2.310 . S
O915 Dy903 2.664 . S
O915 C909 1.268 . S
O916 Dy900 2.351 . S
O916 C919 1.249 . S
O917 Dy903 2.326 . S
O917 C919 1.267 . S
C918 O910 1.249 . S
C918 O911 1.267 . S
C919 O916 1.249 . S
C919 O917 1.267 . S
Dy920 O924 2.398 . S
Dy920 O925 2.491 . S
Dy920 O926 2.403 . S
Dy920 O927 2.664 . S
Dy920 O931 2.326 . S
Dy920 O935 2.310 . S
Dy920 O936 2.351 . S
C921 O932 1.185 . S
C921 O933 1.355 . S
C922 O924 1.185 . S
C922 O925 1.355 . S
Dy923 O927 2.310 . S
Dy923 O930 2.351 . S
Dy923 O932 2.398 . S
Dy923 O933 2.491 . S
Dy923 O934 2.403 . S
Dy923 O935 2.664 . S
Dy923 O937 2.326 . S
O924 Dy920 2.398 . S
O924 C922 1.185 . S
O925 Dy920 2.491 . S
O925 C922 1.355 . S
O926 Dy920 2.403 . S
O926 C928 1.254 . S
O927 Dy920 2.664 . S
O927 Dy923 2.310 . S
O927 C928 1.268 . S
C928 O926 1.254 . S
C928 O927 1.268 . S
C929 O934 1.254 . S
C929 O935 1.268 . S
O930 Dy923 2.351 . S
O930 C938 1.249 . S
O931 Dy920 2.326 . S
O931 C938 1.267 . S
O932 C921 1.185 . S
O932 Dy923 2.398 . S
O933 C921 1.355 . S
O933 Dy923 2.491 . S
O934 Dy923 2.403 . S
O934 C929 1.254 . S
O935 Dy920 2.310 . S
O935 Dy923 2.664 . S
O935 C929 1.268 . S
O936 Dy920 2.351 . S
O936 C939 1.249 . S
O937 Dy923 2.326 . S
O937 C939 1.267 . S
C938 O930 1.249 . S
C938 O931 1.267 . S
C939 O936 1.249 . S
C939 O937 1.267 . S
Dy940 O944 2.398 . S
Dy940 O945 2.491 . S
Dy940 O946 2.403 . S
Dy940 O947 2.664 . S
Dy940 O951 2.326 . S
Dy940 O955 2.310 . S
Dy940 O956 2.351 . S
C941 O952 1.185 . S
C941 O953 1.355 . S
C942 O944 1.185 . S
C942 O945 1.355 . S
Dy943 O947 2.310 . S
Dy943 O950 2.351 . S
Dy943 O952 2.398 . S
Dy943 O953 2.491 . S
Dy943 O954 2.403 . S
Dy943 O955 2.664 . S
Dy943 O957 2.326 . S
O944 Dy940 2.398 . S
O944 C942 1.185 . S
O945 Dy940 2.491 . S
O945 C942 1.355 . S
O946 Dy940 2.403 . S
O946 C948 1.254 . S
O947 Dy940 2.664 . S
O947 Dy943 2.310 . S
O947 C948 1.268 . S
C948 O946 1.254 . S
C948 O947 1.268 . S
C949 O954 1.254 . S
C949 O955 1.268 . S
O950 Dy943 2.351 . S
O950 C958 1.249 . S
O951 Dy940 2.326 . S
O951 C958 1.267 . S
O952 C941 1.185 . S
O952 Dy943 2.398 . S
O953 C941 1.355 . S
O953 Dy943 2.491 . S
O954 Dy943 2.403 . S
O954 C949 1.254 . S
O955 Dy940 2.310 . S
O955 Dy943 2.664 . S
O955 C949 1.268 . S
O956 Dy940 2.351 . S
O956 C959 1.249 . S
O957 Dy943 2.326 . S
O957 C959 1.267 . S
C958 O950 1.249 . S
C958 O951 1.267 . S
C959 O956 1.249 . S
C959 O957 1.267 . S
H960 C966 0.930 . S
H961 C969 0.931 . S
H962 C970 0.930 . S
H963 C971 0.930 . S
H964 C974 0.930 . S
H965 C975 0.930 . S
C966 H960 0.930 . S
C966 C967 1.355 . S
C966 C968 1.415 . S
C967 C966 1.355 . S
C967 C969 1.419 . S
C968 C966 1.415 . S
C968 C973 1.425 . S
C968 C975 1.409 . S
C969 H961 0.931 . S
C969 C967 1.419 . S
C969 C970 1.362 1_455 S
C970 H962 0.930 . S
C970 C969 1.362 1_655 S
C970 C973 1.409 1_655 S
C971 H963 0.930 . S
C971 C972 1.355 1_655 S
C971 C973 1.415 1_655 S
C972 C971 1.355 1_455 S
C972 C974 1.419 . S
C973 C968 1.425 . S
C973 C970 1.409 1_455 S
C973 C971 1.415 1_455 S
C974 H964 0.930 . S
C974 C972 1.419 . S
C974 C975 1.362 . S
C975 H965 0.930 . S
C975 C968 1.409 . S
C975 C974 1.362 . S
H976 C982 0.930 . S
H977 C985 0.930 . S
H978 C986 0.930 1_565 S
H979 C987 0.922 1_565 S
H980 C990 0.930 . S
H981 C991 0.930 . S
C982 H976 0.930 . S
C982 C983 1.355 . S
C982 C984 1.415 . S
C983 C982 1.355 . S
C983 C985 1.419 . S
C984 C982 1.415 . S
C984 C989 1.425 . S
C984 C991 1.409 . S
C985 H977 0.930 . S
C985 C983 1.419 . S
C985 C986 1.362 . S
C986 H978 0.930 1_545 S
C986 C985 1.362 . S
C986 C989 1.409 . S
C987 H979 0.922 1_545 S
C987 C988 1.355 . S
C987 C989 1.415 . S
C988 C987 1.355 . S
C988 C990 1.419 . S
C989 C984 1.425 . S
C989 C986 1.409 . S
C989 C987 1.415 . S
C990 H980 0.930 . S
C990 C988 1.419 . S
C990 C991 1.362 . S
C991 H981 0.930 . S
C991 C984 1.409 . S
C991 C990 1.362 . S
H992 C998 0.930 . S
H993 C1001 0.930 . S
H994 C1002 0.930 . S
H995 C1003 0.930 1_655 S
H996 C1006 0.930 . S
H997 C1007 0.930 . S
C998 H992 0.930 . S
C998 C999 1.355 . S
C998 C1000 1.415 . S
C999 C998 1.355 . S
C999 C1001 1.419 1_455 S
C1000 C998 1.415 . S
C1000 C1005 1.425 . S
C1000 C1007 1.409 . S
C1001 H993 0.930 . S
C1001 C999 1.419 1_655 S
C1001 C1002 1.362 . S
C1002 H994 0.930 . S
C1002 C1001 1.362 . S
C1002 C1005 1.409 1_655 S
C1003 H995 0.930 1_455 S
C1003 C1004 1.355 . S
C1003 C1005 1.415 . S
C1004 C1003 1.355 . S
C1004 C1006 1.419 . S
C1005 C1000 1.425 . S
C1005 C1002 1.409 1_455 S
C1005 C1003 1.415 . S
C1006 H996 0.930 . S
C1006 C1004 1.419 . S
C1006 C1007 1.362 . S
C1007 H997 0.930 . S
C1007 C1000 1.409 . S
C1007 C1006 1.362 . S
H1008 C1014 0.930 . S
H1009 C1017 0.930 1_565 S
H1010 C1018 0.913 1_565 S
H1011 C1019 0.931 . S
H1012 C1022 0.930 . S
H1013 C1023 0.930 . S
C1014 H1008 0.930 . S
C1014 C1015 1.355 . S
C1014 C1016 1.415 . S
C1015 C1014 1.355 . S
C1015 C1017 1.419 . S
C1016 C1014 1.415 . S
C1016 C1021 1.425 . S
C1016 C1023 1.409 . S
C1017 H1009 0.930 1_545 S
C1017 C1015 1.419 . S
C1017 C1018 1.367 . S
C1018 H1010 0.913 1_545 S
C1018 C1017 1.367 . S
C1018 C1021 1.422 . S
C1019 H1011 0.931 . S
C1019 C1020 1.355 . S
C1019 C1021 1.415 . S
C1020 C1019 1.355 . S
C1020 C1022 1.419 . S
C1021 C1016 1.425 . S
C1021 C1018 1.422 . S
C1021 C1019 1.415 . S
C1022 H1012 0.930 . S
C1022 C1020 1.419 . S
C1022 C1023 1.362 . S
C1023 H1013 0.930 . S
C1023 C1016 1.409 . S
C1023 C1022 1.362 . S
H1024 C1030 0.930 . S
H1025 C1033 0.930 . S
H1026 C1034 0.930 . S
H1027 C1035 0.930 . S
H1028 C1038 0.930 . S
H1029 C1039 0.930 . S
C1030 H1024 0.930 . S
C1030 C1031 1.355 . S
C1030 C1032 1.415 . S
C1031 C1030 1.355 . S
C1031 C1033 1.419 1_545 S
C1032 C1030 1.415 . S
C1032 C1037 1.425 . S
C1032 C1039 1.409 . S
C1033 H1025 0.930 . S
C1033 C1031 1.419 1_565 S
C1033 C1034 1.362 . S
C1034 H1026 0.930 . S
C1034 C1033 1.362 . S
C1034 C1037 1.409 1_565 S
C1035 H1027 0.930 . S
C1035 C1036 1.355 1_565 S
C1035 C1037 1.415 1_565 S
C1036 C1035 1.355 1_545 S
C1036 C1038 1.419 . S
C1037 C1032 1.425 . S
C1037 C1034 1.409 1_545 S
C1037 C1035 1.415 1_545 S
C1038 H1028 0.930 . S
C1038 C1036 1.419 . S
C1038 C1039 1.362 . S
C1039 H1029 0.930 . S
C1039 C1032 1.409 . S
C1039 C1038 1.362 . S
H1040 C1046 0.930 . S
H1041 C1049 0.930 . S
H1042 C1050 0.930 . S
H1043 C1051 0.930 . S
H1044 C1054 0.930 . S
H1045 C1055 0.930 . S
C1046 H1040 0.930 . S
C1046 C1047 1.355 . S
C1046 C1048 1.415 . S
C1047 C1046 1.355 . S
C1047 C1049 1.419 1_455 S
C1048 C1046 1.415 . S
C1048 C1053 1.425 1_455 S
C1048 C1055 1.409 . S
C1049 H1041 0.930 . S
C1049 C1047 1.419 1_655 S
C1049 C1050 1.362 . S
C1050 H1042 0.930 . S
C1050 C1049 1.362 . S
C1050 C1053 1.409 . S
C1051 H1043 0.930 . S
C1051 C1052 1.355 1_655 S
C1051 C1053 1.415 . S
C1052 C1051 1.355 1_455 S
C1052 C1054 1.419 . S
C1053 C1048 1.425 1_655 S
C1053 C1050 1.409 . S
C1053 C1051 1.415 . S
C1054 H1044 0.930 . S
C1054 C1052 1.419 . S
C1054 C1055 1.362 . S
C1055 H1045 0.930 . S
C1055 C1048 1.409 . S
C1055 C1054 1.362 . S
H1056 C1062 0.930 . S
H1057 C1065 0.930 . S
H1058 C1066 0.930 . S
H1059 C1067 0.930 . S
H1060 C1070 0.930 . S
H1061 C1071 0.930 . S
C1062 H1056 0.930 . S
C1062 C1063 1.388 . S
C1062 C1064 1.415 . S
C1063 C1062 1.388 . S
C1063 C1065 1.384 1_545 S
C1064 C1062 1.415 . S
C1064 C1069 1.425 1_545 S
C1064 C1071 1.409 . S
C1065 H1057 0.930 . S
C1065 C1063 1.384 1_565 S
C1065 C1066 1.362 . S
C1066 H1058 0.930 . S
C1066 C1065 1.362 . S
C1066 C1069 1.409 . S
C1067 H1059 0.930 . S
C1067 C1068 1.355 1_565 S
C1067 C1069 1.415 . S
C1068 C1067 1.355 1_545 S
C1068 C1070 1.419 . S
C1069 C1064 1.425 1_565 S
C1069 C1066 1.409 . S
C1069 C1067 1.415 . S
C1070 H1060 0.930 . S
C1070 C1068 1.419 . S
C1070 C1071 1.362 . S
C1071 H1061 0.930 . S
C1071 C1064 1.409 . S
C1071 C1070 1.362 . S
H1072 C1078 0.930 . S
H1073 C1081 0.930 . S
H1074 C1082 0.930 . S
H1075 C1083 0.930 . S
H1076 C1086 0.930 . S
H1077 C1087 0.930 . S
C1078 H1072 0.930 . S
C1078 C1079 1.355 . S
C1078 C1080 1.415 . S
C1079 C1078 1.355 . S
C1079 C1081 1.419 1_455 S
C1080 C1078 1.415 . S
C1080 C1085 1.425 1_455 S
C1080 C1087 1.409 . S
C1081 H1073 0.930 . S
C1081 C1079 1.419 1_655 S
C1081 C1082 1.362 . S
C1082 H1074 0.930 . S
C1082 C1081 1.362 . S
C1082 C1085 1.409 . S
C1083 H1075 0.930 . S
C1083 C1084 1.355 1_655 S
C1083 C1085 1.415 . S
C1084 C1083 1.355 1_455 S
C1084 C1086 1.419 . S
C1085 C1080 1.425 1_655 S
C1085 C1082 1.409 . S
C1085 C1083 1.415 . S
C1086 H1076 0.930 . S
C1086 C1084 1.419 . S
C1086 C1087 1.362 . S
C1087 H1077 0.930 . S
C1087 C1080 1.409 . S
C1087 C1086 1.362 . S
H1088 C1094 0.930 1_556 S
H1089 C1097 0.930 . S
H1090 C1098 0.930 . S
H1091 C1099 0.930 . S
H1092 C1102 0.930 . S
H1093 C1103 0.930 . S
C1094 H1088 0.930 1_554 S
C1094 C1095 1.355 . S
C1094 C1096 1.415 . S
C1095 C1094 1.355 . S
C1095 C1097 1.419 . S
C1096 C1094 1.415 . S
C1096 C1101 1.425 . S
C1096 C1103 1.409 1_554 S
C1097 H1089 0.930 . S
C1097 C1095 1.419 . S
C1097 C1098 1.362 . S
C1098 H1090 0.930 . S
C1098 C1097 1.362 . S
C1098 C1101 1.409 . S
C1099 H1091 0.930 . S
C1099 C1100 1.355 . S
C1099 C1101 1.415 . S
C1100 C1099 1.355 . S
C1100 C1102 1.419 1_554 S
C1101 C1096 1.425 . S
C1101 C1098 1.409 . S
C1101 C1099 1.415 . S
C1102 H1092 0.930 . S
C1102 C1100 1.419 1_556 S
C1102 C1103 1.362 . S
C1103 H1093 0.930 . S
C1103 C1096 1.409 1_556 S
C1103 C1102 1.362 . S
H1104 C1110 0.930 1_556 S
H1105 C1113 0.930 . S
H1106 C1114 0.930 . S
H1107 C1115 0.930 . S
H1108 C1118 0.949 . S
H1109 C1119 0.930 . S
C1110 H1104 0.930 1_554 S
C1110 C1111 1.355 . S
C1110 C1112 1.415 . S
C1111 C1110 1.355 . S
C1111 C1113 1.419 . S
C1112 C1110 1.415 . S
C1112 C1117 1.425 . S
C1112 C1119 1.409 1_554 S
C1113 H1105 0.930 . S
C1113 C1111 1.419 . S
C1113 C1114 1.362 . S
C1114 H1106 0.930 . S
C1114 C1113 1.362 . S
C1114 C1117 1.409 . S
C1115 H1107 0.930 . S
C1115 C1116 1.355 . S
C1115 C1117 1.415 . S
C1116 C1115 1.355 . S
C1116 C1118 1.393 1_554 S
C1117 C1112 1.425 . S
C1117 C1114 1.409 . S
C1117 C1115 1.415 . S
C1118 H1108 0.949 . S
C1118 C1116 1.393 1_556 S
C1118 C1119 1.369 . S
C1119 H1109 0.930 . S
C1119 C1112 1.409 1_556 S
C1119 C1118 1.369 . S
H1120 C1126 0.930 . S
H1121 C1129 0.930 . S
H1122 C1130 0.930 . S
H1123 C1131 0.930 . S
H1124 C1134 0.930 . S
H1125 C1135 0.930 . S
C1126 H1120 0.930 . S
C1126 C1127 1.355 . S
C1126 C1128 1.415 . S
C1127 C1126 1.355 . S
C1127 C1129 1.419 . S
C1128 C1126 1.415 . S
C1128 C1133 1.425 . S
C1128 C1135 1.409 . S
C1129 H1121 0.930 . S
C1129 C1127 1.419 . S
C1129 C1130 1.362 . S
C1130 H1122 0.930 . S
C1130 C1129 1.362 . S
C1130 C1133 1.409 . S
C1131 H1123 0.930 . S
C1131 C1132 1.355 . S
C1131 C1133 1.415 . S
C1132 C1131 1.355 . S
C1132 C1134 1.419 . S
C1133 C1128 1.425 . S
C1133 C1130 1.409 . S
C1133 C1131 1.415 . S
C1134 H1124 0.930 . S
C1134 C1132 1.419 . S
C1134 C1135 1.362 . S
C1135 H1125 0.930 . S
C1135 C1128 1.409 . S
C1135 C1134 1.362 . S
H1136 C1142 0.930 . S
H1137 C1145 0.930 . S
H1138 C1146 0.934 . S
H1139 C1147 0.930 1_556 S
H1140 C1150 0.930 . S
H1141 C1151 0.930 . S
C1142 H1136 0.930 . S
C1142 C1143 1.355 . S
C1142 C1144 1.415 . S
C1143 C1142 1.355 . S
C1143 C1145 1.419 . S
C1144 C1142 1.415 . S
C1144 C1149 1.425 . S
C1144 C1151 1.409 . S
C1145 H1137 0.930 . S
C1145 C1143 1.419 . S
C1145 C1146 1.362 . S
C1146 H1138 0.934 . S
C1146 C1145 1.362 . S
C1146 C1149 1.409 . S
C1147 H1139 0.930 1_554 S
C1147 C1148 1.355 . S
C1147 C1149 1.415 . S
C1148 C1147 1.355 . S
C1148 C1150 1.419 . S
C1149 C1144 1.425 . S
C1149 C1146 1.409 . S
C1149 C1147 1.415 . S
C1150 H1140 0.930 . S
C1150 C1148 1.419 . S
C1150 C1151 1.362 . S
C1151 H1141 0.930 . S
C1151 C1144 1.409 . S
C1151 C1150 1.362 . S
H1152 C1158 0.930 . S
H1153 C1161 0.930 . S
H1154 C1162 0.927 1_554 S
H1155 C1163 0.930 . S
H1156 C1166 0.930 . S
H1157 C1167 0.930 . S
C1158 H1152 0.930 . S
C1158 C1159 1.355 . S
C1158 C1160 1.415 1_556 S
C1159 C1158 1.355 . S
C1159 C1161 1.419 . S
C1160 C1158 1.415 1_554 S
C1160 C1165 1.425 . S
C1160 C1167 1.409 . S
C1161 H1153 0.930 . S
C1161 C1159 1.419 . S
C1161 C1162 1.362 . S
C1162 H1154 0.927 1_556 S
C1162 C1161 1.362 . S
C1162 C1165 1.409 1_556 S
C1163 H1155 0.930 . S
C1163 C1164 1.355 . S
C1163 C1165 1.415 . S
C1164 C1163 1.355 . S
C1164 C1166 1.419 . S
C1165 C1160 1.425 . S
C1165 C1162 1.409 1_554 S
C1165 C1163 1.415 . S
C1166 H1156 0.930 . S
C1166 C1164 1.419 . S
C1166 C1167 1.362 . S
C1167 H1157 0.930 . S
C1167 C1160 1.409 . S
C1167 C1166 1.362 . S
H1168 C1174 0.930 . S
H1169 C1177 0.930 . S
H1170 C1178 0.930 . S
H1171 C1179 0.930 . S
H1172 C1182 0.930 . S
H1173 C1183 0.930 . S
C1174 H1168 0.930 . S
C1174 C1175 1.355 . S
C1174 C1176 1.415 1_556 S
C1175 C1174 1.355 . S
C1175 C1177 1.419 . S
C1176 C1174 1.415 1_554 S
C1176 C1181 1.425 . S
C1176 C1183 1.409 . S
C1177 H1169 0.930 . S
C1177 C1175 1.419 . S
C1177 C1178 1.362 1_556 S
C1178 H1170 0.930 . S
C1178 C1177 1.362 1_554 S
C1178 C1181 1.409 . S
C1179 H1171 0.930 . S
C1179 C1180 1.355 . S
C1179 C1181 1.415 . S
C1180 C1179 1.355 . S
C1180 C1182 1.419 . S
C1181 C1176 1.425 . S
C1181 C1178 1.409 . S
C1181 C1179 1.415 . S
C1182 H1172 0.930 . S
C1182 C1180 1.419 . S
C1182 C1183 1.362 . S
C1183 H1173 0.930 . S
C1183 C1176 1.409 . S
C1183 C1182 1.362 . S
H1184 C1190 0.930 . S
H1185 C1193 0.930 . S
H1186 C1194 0.930 . S
H1187 C1195 0.930 . S
H1188 C1198 0.930 . S
H1189 C1199 0.930 . S
C1190 H1184 0.930 . S
C1190 C1191 1.355 . S
C1190 C1192 1.415 1_556 S
C1191 C1190 1.355 . S
C1191 C1193 1.419 . S
C1192 C1190 1.415 1_554 S
C1192 C1197 1.425 . S
C1192 C1199 1.409 . S
C1193 H1185 0.930 . S
C1193 C1191 1.419 . S
C1193 C1194 1.362 1_556 S
C1194 H1186 0.930 . S
C1194 C1193 1.362 1_554 S
C1194 C1197 1.409 . S
C1195 H1187 0.930 . S
C1195 C1196 1.355 . S
C1195 C1197 1.415 . S
C1196 C1195 1.355 . S
C1196 C1198 1.419 . S
C1197 C1192 1.425 . S
C1197 C1194 1.409 . S
C1197 C1195 1.415 . S
C1198 H1188 0.930 . S
C1198 C1196 1.419 . S
C1198 C1199 1.362 . S
C1199 H1189 0.930 . S
C1199 C1192 1.409 . S
C1199 C1198 1.362 . S
H1200 C1206 0.930 . S
H1201 C1209 0.930 . S
H1202 C1210 0.933 . S
H1203 C1211 0.930 . S
H1204 C1214 0.930 . S
H1205 C1215 0.930 . S
C1206 H1200 0.930 . S
C1206 C1207 1.355 . S
C1206 C1208 1.415 1_556 S
C1207 C1206 1.355 . S
C1207 C1209 1.419 . S
C1208 C1206 1.415 1_554 S
C1208 C1213 1.425 . S
C1208 C1215 1.409 . S
C1209 H1201 0.930 . S
C1209 C1207 1.419 . S
C1209 C1210 1.355 1_556 S
C1210 H1202 0.933 . S
C1210 C1209 1.355 1_554 S
C1210 C1213 1.414 . S
C1211 H1203 0.930 . S
C1211 C1212 1.355 . S
C1211 C1213 1.415 . S
C1212 C1211 1.355 . S
C1212 C1214 1.419 . S
C1213 C1208 1.425 . S
C1213 C1210 1.414 . S
C1213 C1211 1.415 . S
C1214 H1204 0.930 . S
C1214 C1212 1.419 . S
C1214 C1215 1.362 . S
C1215 H1205 0.930 . S
C1215 C1208 1.409 . S
C1215 C1214 1.362 . S
H1216 C1222 0.930 . S
H1217 C1225 0.930 . S
H1218 C1226 0.939 . S
H1219 C1227 0.930 . S
H1220 C1230 0.930 . S
H1221 C1231 0.930 . S
C1222 H1216 0.930 . S
C1222 C1223 1.355 . S
C1222 C1224 1.415 1_655 S
C1223 C1222 1.355 . S
C1223 C1225 1.419 . S
C1224 C1222 1.415 1_455 S
C1224 C1229 1.425 . S
C1224 C1231 1.409 . S
C1225 H1217 0.930 . S
C1225 C1223 1.419 . S
C1225 C1226 1.362 . S
C1226 H1218 0.939 . S
C1226 C1225 1.362 . S
C1226 C1229 1.409 1_655 S
C1227 H1219 0.930 . S
C1227 C1228 1.355 . S
C1227 C1229 1.415 . S
C1228 C1227 1.355 . S
C1228 C1230 1.419 . S
C1229 C1224 1.425 . S
C1229 C1226 1.409 1_455 S
C1229 C1227 1.415 . S
C1230 H1220 0.930 . S
C1230 C1228 1.419 . S
C1230 C1231 1.362 . S
C1231 H1221 0.930 . S
C1231 C1224 1.409 . S
C1231 C1230 1.362 . S
H1232 C1238 0.930 . S
H1233 C1241 0.930 . S
H1234 C1242 0.930 . S
H1235 C1243 0.930 . S
H1236 C1246 0.930 . S
H1237 C1247 0.930 . S
C1238 H1232 0.930 . S
C1238 C1239 1.355 . S
C1238 C1240 1.415 1_565 S
C1239 C1238 1.355 . S
C1239 C1241 1.419 . S
C1240 C1238 1.415 1_545 S
C1240 C1245 1.425 . S
C1240 C1247 1.409 . S
C1241 H1233 0.930 . S
C1241 C1239 1.419 . S
C1241 C1242 1.362 1_565 S
C1242 H1234 0.930 . S
C1242 C1241 1.362 1_545 S
C1242 C1245 1.409 . S
C1243 H1235 0.930 . S
C1243 C1244 1.355 . S
C1243 C1245 1.415 . S
C1244 C1243 1.355 . S
C1244 C1246 1.419 . S
C1245 C1240 1.425 . S
C1245 C1242 1.409 . S
C1245 C1243 1.415 . S
C1246 H1236 0.930 . S
C1246 C1244 1.419 . S
C1246 C1247 1.362 . S
C1247 H1237 0.930 . S
C1247 C1240 1.409 . S
C1247 C1246 1.362 . S
H1248 C1254 0.930 . S
H1249 C1257 0.930 . S
H1250 C1258 0.915 1_455 S
H1251 C1259 0.930 . S
H1252 C1262 0.930 . S
H1253 C1263 0.930 . S
C1254 H1248 0.930 . S
C1254 C1255 1.355 . S
C1254 C1256 1.415 1_655 S
C1255 C1254 1.355 . S
C1255 C1257 1.419 . S
C1256 C1254 1.415 1_455 S
C1256 C1261 1.425 . S
C1256 C1263 1.409 . S
C1257 H1249 0.930 . S
C1257 C1255 1.419 . S
C1257 C1258 1.405 . S
C1258 H1250 0.915 1_655 S
C1258 C1257 1.405 . S
C1258 C1261 1.382 1_655 S
C1259 H1251 0.930 . S
C1259 C1260 1.355 . S
C1259 C1261 1.415 . S
C1260 C1259 1.355 . S
C1260 C1262 1.419 . S
C1261 C1256 1.425 . S
C1261 C1258 1.382 1_455 S
C1261 C1259 1.415 . S
C1262 H1252 0.930 . S
C1262 C1260 1.419 . S
C1262 C1263 1.362 . S
C1263 H1253 0.930 . S
C1263 C1256 1.409 . S
C1263 C1262 1.362 . S
H1264 C1270 0.930 . S
H1265 C1273 0.930 . S
H1266 C1274 0.930 . S
H1267 C1275 0.930 . S
H1268 C1278 0.930 . S
H1269 C1279 0.937 . S
C1270 H1264 0.930 . S
C1270 C1271 1.355 . S
C1270 C1272 1.415 . S
C1271 C1270 1.355 . S
C1271 C1273 1.419 . S
C1272 C1270 1.415 . S
C1272 C1277 1.425 . S
C1272 C1279 1.422 . S
C1273 H1265 0.930 . S
C1273 C1271 1.419 . S
C1273 C1274 1.362 . S
C1274 H1266 0.930 . S
C1274 C1273 1.362 . S
C1274 C1277 1.409 . S
C1275 H1267 0.930 . S
C1275 C1276 1.355 . S
C1275 C1277 1.415 1_565 S
C1276 C1275 1.355 . S
C1276 C1278 1.419 . S
C1277 C1272 1.425 . S
C1277 C1274 1.409 . S
C1277 C1275 1.415 1_545 S
C1278 H1268 0.930 . S
C1278 C1276 1.419 . S
C1278 C1279 1.343 1_565 S
C1279 H1269 0.937 . S
C1279 C1272 1.422 . S
C1279 C1278 1.343 1_545 S
H1280 C1286 0.930 . S
H1281 C1289 0.930 . S
H1282 C1290 0.930 . S
H1283 C1291 0.930 . S
H1284 C1294 0.930 . S
H1285 C1295 0.930 . S
C1286 H1280 0.930 . S
C1286 C1287 1.355 . S
C1286 C1288 1.415 1_565 S
C1287 C1286 1.355 . S
C1287 C1289 1.419 . S
C1288 C1286 1.415 1_545 S
C1288 C1293 1.425 . S
C1288 C1295 1.409 . S
C1289 H1281 0.930 . S
C1289 C1287 1.419 . S
C1289 C1290 1.362 1_565 S
C1290 H1282 0.930 . S
C1290 C1289 1.362 1_545 S
C1290 C1293 1.409 . S
C1291 H1283 0.930 . S
C1291 C1292 1.355 . S
C1291 C1293 1.415 . S
C1292 C1291 1.355 . S
C1292 C1294 1.419 . S
C1293 C1288 1.425 . S
C1293 C1290 1.409 . S
C1293 C1291 1.415 . S
C1294 H1284 0.930 . S
C1294 C1292 1.419 . S
C1294 C1295 1.362 . S
C1295 H1285 0.930 . S
C1295 C1288 1.409 . S
C1295 C1294 1.362 . S
H1296 C1302 0.930 . S
H1297 C1305 0.930 . S
H1298 C1306 0.930 . S
H1299 C1307 0.930 . S
H1300 C1310 0.930 . S
H1301 C1311 0.930 . S
C1302 H1296 0.930 . S
C1302 C1303 1.355 . S
C1302 C1304 1.415 . S
C1303 C1302 1.355 . S
C1303 C1305 1.419 . S
C1304 C1302 1.415 . S
C1304 C1309 1.425 . S
C1304 C1311 1.409 . S
C1305 H1297 0.930 . S
C1305 C1303 1.419 . S
C1305 C1306 1.362 . S
C1306 H1298 0.930 . S
C1306 C1305 1.362 . S
C1306 C1309 1.409 . S
C1307 H1299 0.930 . S
C1307 C1308 1.355 . S
C1307 C1309 1.415 1_655 S
C1308 C1307 1.355 . S
C1308 C1310 1.419 . S
C1309 C1304 1.425 . S
C1309 C1306 1.409 . S
C1309 C1307 1.415 1_455 S
C1310 H1300 0.930 . S
C1310 C1308 1.419 . S
C1310 C1311 1.362 1_655 S
C1311 H1301 0.930 . S
C1311 C1304 1.409 . S
C1311 C1310 1.362 1_455 S
H1312 C1318 0.930 . S
H1313 C1321 0.930 . S
H1314 C1322 0.930 . S
H1315 C1323 0.930 . S
H1316 C1326 0.930 . S
H1317 C1327 0.930 . S
C1318 H1312 0.930 . S
C1318 C1319 1.355 . S
C1318 C1320 1.415 1_565 S
C1319 C1318 1.355 . S
C1319 C1321 1.419 . S
C1320 C1318 1.415 1_545 S
C1320 C1325 1.425 . S
C1320 C1327 1.409 . S
C1321 H1313 0.930 . S
C1321 C1319 1.419 . S
C1321 C1322 1.362 1_565 S
C1322 H1314 0.930 . S
C1322 C1321 1.362 1_545 S
C1322 C1325 1.409 . S
C1323 H1315 0.930 . S
C1323 C1324 1.355 . S
C1323 C1325 1.415 . S
C1324 C1323 1.355 . S
C1324 C1326 1.419 . S
C1325 C1320 1.425 . S
C1325 C1322 1.409 . S
C1325 C1323 1.415 . S
C1326 H1316 0.930 . S
C1326 C1324 1.419 . S
C1326 C1327 1.362 . S
C1327 H1317 0.930 . S
C1327 C1320 1.409 . S
C1327 C1326 1.362 . S
H1328 C1334 0.930 . S
H1329 C1337 0.930 . S
H1330 C1338 0.930 . S
H1331 C1339 0.930 . S
H1332 C1342 0.930 . S
H1333 C1343 0.930 1_455 S
C1334 H1328 0.930 . S
C1334 C1335 1.355 . S
C1334 C1336 1.415 . S
C1335 C1334 1.355 . S
C1335 C1337 1.419 . S
C1336 C1334 1.415 . S
C1336 C1341 1.425 . S
C1336 C1343 1.409 1_455 S
C1337 H1329 0.930 . S
C1337 C1335 1.419 . S
C1337 C1338 1.362 . S
C1338 H1330 0.930 . S
C1338 C1337 1.362 . S
C1338 C1341 1.409 . S
C1339 H1331 0.930 . S
C1339 C1340 1.355 . S
C1339 C1341 1.415 1_655 S
C1340 C1339 1.355 . S
C1340 C1342 1.419 . S
C1341 C1336 1.425 . S
C1341 C1338 1.409 . S
C1341 C1339 1.415 1_455 S
C1342 H1332 0.930 . S
C1342 C1340 1.419 . S
C1342 C1343 1.362 . S
C1343 H1333 0.930 1_655 S
C1343 C1336 1.409 1_655 S
C1343 C1342 1.362 . S
H1344 C1350 0.930 . S
H1345 C1353 0.930 . S
H1346 C1354 0.930 . S
H1347 C1355 0.930 . S
H1348 C1358 0.930 . S
H1349 C1359 0.930 . S
C1350 H1344 0.930 . S
C1350 C1351 1.360 . S
C1350 C1352 1.415 . S
C1351 C1350 1.360 . S
C1351 C1353 1.413 1_455 S
C1352 C1350 1.415 . S
C1352 C1357 1.425 1_455 S
C1352 C1359 1.409 . S
C1353 H1345 0.930 . S
C1353 C1351 1.413 1_655 S
C1353 C1354 1.362 . S
C1354 H1346 0.930 . S
C1354 C1353 1.362 . S
C1354 C1357 1.409 . S
C1355 H1347 0.930 . S
C1355 C1356 1.355 1_655 S
C1355 C1357 1.415 . S
C1356 C1355 1.355 1_455 S
C1356 C1358 1.419 . S
C1357 C1352 1.425 1_655 S
C1357 C1354 1.409 . S
C1357 C1355 1.415 . S
C1358 H1348 0.930 . S
C1358 C1356 1.419 . S
C1358 C1359 1.362 . S
C1359 H1349 0.930 . S
C1359 C1352 1.409 . S
C1359 C1358 1.362 . S
H1360 C1366 0.930 . S
H1361 C1369 0.930 . S
H1362 C1370 0.930 . S
H1363 C1371 0.930 1_565 S
H1364 C1374 0.930 . S
H1365 C1375 0.930 . S
C1366 H1360 0.930 . S
C1366 C1367 1.355 . S
C1366 C1368 1.415 . S
C1367 C1366 1.355 . S
C1367 C1369 1.419 1_545 S
C1368 C1366 1.415 . S
C1368 C1373 1.425 . S
C1368 C1375 1.409 . S
C1369 H1361 0.930 . S
C1369 C1367 1.419 1_565 S
C1369 C1370 1.362 . S
C1370 H1362 0.930 . S
C1370 C1369 1.362 . S
C1370 C1373 1.409 1_565 S
C1371 H1363 0.930 1_545 S
C1371 C1372 1.355 . S
C1371 C1373 1.415 . S
C1372 C1371 1.355 . S
C1372 C1374 1.419 . S
C1373 C1368 1.425 . S
C1373 C1370 1.409 1_545 S
C1373 C1371 1.415 . S
C1374 H1364 0.930 . S
C1374 C1372 1.419 . S
C1374 C1375 1.362 . S
C1375 H1365 0.930 . S
C1375 C1368 1.409 . S
C1375 C1374 1.362 . S
H1376 C1382 0.930 . S
H1377 C1385 0.930 . S
H1378 C1386 0.930 . S
H1379 C1387 0.910 1_655 S
H1380 C1390 0.930 . S
H1381 C1391 0.930 . S
C1382 H1376 0.930 . S
C1382 C1383 1.355 . S
C1382 C1384 1.415 . S
C1383 C1382 1.355 . S
C1383 C1385 1.419 1_455 S
C1384 C1382 1.415 . S
C1384 C1389 1.425 . S
C1384 C1391 1.409 . S
C1385 H1377 0.930 . S
C1385 C1383 1.419 1_655 S
C1385 C1386 1.362 . S
C1386 H1378 0.930 . S
C1386 C1385 1.362 . S
C1386 C1389 1.409 1_655 S
C1387 H1379 0.910 1_455 S
C1387 C1388 1.370 . S
C1387 C1389 1.419 . S
C1388 C1387 1.370 . S
C1388 C1390 1.419 . S
C1389 C1384 1.425 . S
C1389 C1386 1.409 1_455 S
C1389 C1387 1.419 . S
C1390 H1380 0.930 . S
C1390 C1388 1.419 . S
C1390 C1391 1.362 . S
C1391 H1381 0.930 . S
C1391 C1384 1.409 . S
C1391 C1390 1.362 . S
H1392 C1398 0.930 . S
H1393 C1401 0.930 . S
H1394 C1402 0.930 . S
H1395 C1403 0.930 . S
H1396 C1406 0.930 . S
H1397 C1407 0.930 . S
C1398 H1392 0.930 . S
C1398 C1399 1.355 . S
C1398 C1400 1.415 . S
C1399 C1398 1.355 . S
C1399 C1401 1.419 . S
C1400 C1398 1.415 . S
C1400 C1405 1.425 . S
C1400 C1407 1.409 . S
C1401 H1393 0.930 . S
C1401 C1399 1.419 . S
C1401 C1402 1.362 . S
C1402 H1394 0.930 . S
C1402 C1401 1.362 . S
C1402 C1405 1.409 . S
C1403 H1395 0.930 . S
C1403 C1404 1.355 . S
C1403 C1405 1.415 . S
C1404 C1403 1.355 . S
C1404 C1406 1.419 . S
C1405 C1400 1.425 . S
C1405 C1402 1.409 . S
C1405 C1403 1.415 . S
C1406 H1396 0.930 . S
C1406 C1404 1.419 . S
C1406 C1407 1.362 . S
C1407 H1397 0.930 . S
C1407 C1400 1.409 . S
C1407 C1406 1.362 . S
H1408 C1414 0.930 . S
H1409 C1417 0.930 . S
H1410 C1418 0.930 . S
H1411 C1419 0.930 . S
H1412 C1422 0.930 . S
H1413 C1423 0.930 . S
C1414 H1408 0.930 . S
C1414 C1415 1.355 . S
C1414 C1416 1.415 . S
C1415 C1414 1.355 . S
C1415 C1417 1.419 1_455 S
C1416 C1414 1.415 . S
C1416 C1421 1.425 1_455 S
C1416 C1423 1.409 . S
C1417 H1409 0.930 . S
C1417 C1415 1.419 1_655 S
C1417 C1418 1.362 . S
C1418 H1410 0.930 . S
C1418 C1417 1.362 . S
C1418 C1421 1.409 . S
C1419 H1411 0.930 . S
C1419 C1420 1.355 1_655 S
C1419 C1421 1.415 . S
C1420 C1419 1.355 1_455 S
C1420 C1422 1.419 . S
C1421 C1416 1.425 1_655 S
C1421 C1418 1.409 . S
C1421 C1419 1.415 . S
C1422 H1412 0.930 . S
C1422 C1420 1.419 . S
C1422 C1423 1.362 . S
C1423 H1413 0.930 . S
C1423 C1416 1.409 . S
C1423 C1422 1.362 . S
H1424 C1430 0.930 . S
H1425 C1433 0.930 . S
H1426 C1434 0.930 . S
H1427 C1435 0.930 . S
H1428 C1438 0.930 . S
H1429 C1439 0.930 . S
C1430 H1424 0.930 . S
C1430 C1431 1.355 . S
C1430 C1432 1.415 . S
C1431 C1430 1.355 . S
C1431 C1433 1.419 . S
C1432 C1430 1.415 . S
C1432 C1437 1.425 . S
C1432 C1439 1.409 . S
C1433 H1425 0.930 . S
C1433 C1431 1.419 . S
C1433 C1434 1.362 . S
C1434 H1426 0.930 . S
C1434 C1433 1.362 . S
C1434 C1437 1.409 . S
C1435 H1427 0.930 . S
C1435 C1436 1.355 . S
C1435 C1437 1.415 . S
C1436 C1435 1.355 . S
C1436 C1438 1.419 . S
C1437 C1432 1.425 . S
C1437 C1434 1.409 . S
C1437 C1435 1.415 . S
C1438 H1428 0.930 . S
C1438 C1436 1.419 . S
C1438 C1439 1.362 . S
C1439 H1429 0.930 . S
C1439 C1432 1.409 . S
C1439 C1438 1.362 . S
H1440 C1446 0.950 . S
H1441 C1449 0.930 . S
H1442 C1450 0.930 . S
H1443 C1451 0.930 . S
H1444 C1454 0.930 . S
H1445 C1455 0.930 . S
C1446 H1440 0.950 . S
C1446 C1447 1.338 1_655 S
C1446 C1448 1.412 1_655 S
C1447 C1446 1.338 1_455 S
C1447 C1449 1.419 . S
C1448 C1446 1.412 1_455 S
C1448 C1453 1.425 . S
C1448 C1455 1.409 1_455 S
C1449 H1441 0.930 . S
C1449 C1447 1.419 . S
C1449 C1450 1.362 . S
C1450 H1442 0.930 . S
C1450 C1449 1.362 . S
C1450 C1453 1.409 . S
C1451 H1443 0.930 . S
C1451 C1452 1.355 . S
C1451 C1453 1.415 . S
C1452 C1451 1.355 . S
C1452 C1454 1.419 1_455 S
C1453 C1448 1.425 . S
C1453 C1450 1.409 . S
C1453 C1451 1.415 . S
C1454 H1444 0.930 . S
C1454 C1452 1.419 1_655 S
C1454 C1455 1.362 . S
C1455 H1445 0.930 . S
C1455 C1448 1.409 1_655 S
C1455 C1454 1.362 . S
H1456 C1462 0.930 . S
H1457 C1465 0.930 . S
H1458 C1466 0.930 . S
H1459 C1467 0.930 . S
H1460 C1470 0.930 . S
H1461 C1471 0.930 . S
C1462 H1456 0.930 . S
C1462 C1463 1.355 . S
C1462 C1464 1.415 . S
C1463 C1462 1.355 . S
C1463 C1465 1.419 . S
C1464 C1462 1.415 . S
C1464 C1469 1.425 . S
C1464 C1471 1.409 . S
C1465 H1457 0.930 . S
C1465 C1463 1.419 . S
C1465 C1466 1.362 . S
C1466 H1458 0.930 . S
C1466 C1465 1.362 . S
C1466 C1469 1.409 . S
C1467 H1459 0.930 . S
C1467 C1468 1.355 . S
C1467 C1469 1.415 . S
C1468 C1467 1.355 . S
C1468 C1470 1.419 . S
C1469 C1464 1.425 . S
C1469 C1466 1.409 . S
C1469 C1467 1.415 . S
C1470 H1460 0.930 . S
C1470 C1468 1.419 . S
C1470 C1471 1.362 . S
C1471 H1461 0.930 . S
C1471 C1464 1.409 . S
C1471 C1470 1.362 . S
H1472 C1478 0.930 . S
H1473 C1481 0.930 . S
H1474 C1482 0.930 1_556 S
H1475 C1483 0.909 1_556 S
H1476 C1486 0.930 . S
H1477 C1487 0.930 . S
C1478 H1472 0.930 . S
C1478 C1479 1.355 . S
C1478 C1480 1.415 . S
C1479 C1478 1.355 . S
C1479 C1481 1.419 . S
C1480 C1478 1.415 . S
C1480 C1485 1.425 . S
C1480 C1487 1.409 . S
C1481 H1473 0.930 . S
C1481 C1479 1.419 . S
C1481 C1482 1.362 . S
C1482 H1474 0.930 1_554 S
C1482 C1481 1.362 . S
C1482 C1485 1.409 . S
C1483 H1475 0.909 1_554 S
C1483 C1484 1.355 . S
C1483 C1485 1.415 . S
C1484 C1483 1.355 . S
C1484 C1486 1.419 . S
C1485 C1480 1.425 . S
C1485 C1482 1.409 . S
C1485 C1483 1.415 . S
C1486 H1476 0.930 . S
C1486 C1484 1.419 . S
C1486 C1487 1.362 . S
C1487 H1477 0.930 . S
C1487 C1480 1.409 . S
C1487 C1486 1.362 . S
H1488 C1494 0.930 . S
H1489 C1497 0.924 1_556 S
H1490 C1498 0.930 . S
H1491 C1499 0.930 . S
H1492 C1502 0.930 . S
H1493 C1503 0.930 . S
C1494 H1488 0.930 . S
C1494 C1495 1.355 . S
C1494 C1496 1.415 . S
C1495 C1494 1.355 . S
C1495 C1497 1.419 . S
C1496 C1494 1.415 . S
C1496 C1501 1.425 . S
C1496 C1503 1.409 . S
C1497 H1489 0.924 1_554 S
C1497 C1495 1.419 . S
C1497 C1498 1.362 . S
C1498 H1490 0.930 . S
C1498 C1497 1.362 . S
C1498 C1501 1.409 . S
C1499 H1491 0.930 . S
C1499 C1500 1.355 . S
C1499 C1501 1.415 . S
C1500 C1499 1.355 . S
C1500 C1502 1.419 . S
C1501 C1496 1.425 . S
C1501 C1498 1.409 . S
C1501 C1499 1.415 . S
C1502 H1492 0.930 . S
C1502 C1500 1.419 . S
C1502 C1503 1.362 . S
C1503 H1493 0.930 . S
C1503 C1496 1.409 . S
C1503 C1502 1.362 . S
H1504 C1510 0.930 . S
H1505 C1513 0.930 . S
H1506 C1514 0.930 . S
H1507 C1515 0.930 . S
H1508 C1518 0.930 . S
H1509 C1519 0.930 . S
C1510 H1504 0.930 . S
C1510 C1511 1.355 . S
C1510 C1512 1.415 . S
C1511 C1510 1.355 . S
C1511 C1513 1.419 . S
C1512 C1510 1.415 . S
C1512 C1517 1.425 . S
C1512 C1519 1.409 . S
C1513 H1505 0.930 . S
C1513 C1511 1.419 . S
C1513 C1514 1.362 . S
C1514 H1506 0.930 . S
C1514 C1513 1.362 . S
C1514 C1517 1.409 . S
C1515 H1507 0.930 . S
C1515 C1516 1.355 . S
C1515 C1517 1.415 . S
C1516 C1515 1.355 . S
C1516 C1518 1.419 . S
C1517 C1512 1.425 . S
C1517 C1514 1.409 . S
C1517 C1515 1.415 . S
C1518 H1508 0.930 . S
C1518 C1516 1.419 . S
C1518 C1519 1.362 . S
C1519 H1509 0.930 . S
C1519 C1512 1.409 . S
C1519 C1518 1.362 . S
H1520 C1526 0.930 . S
H1521 C1529 0.934 . S
H1522 C1530 0.930 . S
H1523 C1531 0.930 . S
H1524 C1534 0.930 . S
H1525 C1535 0.930 . S
C1526 H1520 0.930 . S
C1526 C1527 1.355 . S
C1526 C1528 1.415 . S
C1527 C1526 1.355 . S
C1527 C1529 1.419 . S
C1528 C1526 1.415 . S
C1528 C1533 1.425 . S
C1528 C1535 1.409 . S
C1529 H1521 0.934 . S
C1529 C1527 1.419 . S
C1529 C1530 1.362 . S
C1530 H1522 0.930 . S
C1530 C1529 1.362 . S
C1530 C1533 1.409 . S
C1531 H1523 0.930 . S
C1531 C1532 1.355 . S
C1531 C1533 1.415 . S
C1532 C1531 1.355 . S
C1532 C1534 1.419 . S
C1533 C1528 1.425 . S
C1533 C1530 1.409 . S
C1533 C1531 1.415 . S
C1534 H1524 0.930 . S
C1534 C1532 1.419 . S
C1534 C1535 1.362 . S
C1535 H1525 0.930 . S
C1535 C1528 1.409 . S
C1535 C1534 1.362 . S
H1536 C1542 0.930 . S
H1537 C1545 0.930 . S
H1538 C1546 0.930 . S
H1539 C1547 0.930 . S
H1540 C1550 0.930 . S
H1541 C1551 0.930 . S
C1542 H1536 0.930 . S
C1542 C1543 1.355 . S
C1542 C1544 1.415 . S
C1543 C1542 1.355 . S
C1543 C1545 1.419 . S
C1544 C1542 1.415 . S
C1544 C1549 1.425 . S
C1544 C1551 1.409 . S
C1545 H1537 0.930 . S
C1545 C1543 1.419 . S
C1545 C1546 1.362 . S
C1546 H1538 0.930 . S
C1546 C1545 1.362 . S
C1546 C1549 1.409 . S
C1547 H1539 0.930 . S
C1547 C1548 1.355 . S
C1547 C1549 1.415 . S
C1548 C1547 1.355 . S
C1548 C1550 1.419 . S
C1549 C1544 1.425 . S
C1549 C1546 1.409 . S
C1549 C1547 1.415 . S
C1550 H1540 0.930 . S
C1550 C1548 1.419 . S
C1550 C1551 1.362 . S
C1551 H1541 0.930 . S
C1551 C1544 1.409 . S
C1551 C1550 1.362 . S
H1552 C1558 0.930 . S
H1553 C1561 0.930 . S
H1554 C1562 0.930 . S
H1555 C1563 0.930 . S
H1556 C1566 0.930 . S
H1557 C1567 0.930 . S
C1558 H1552 0.930 . S
C1558 C1559 1.355 . S
C1558 C1560 1.415 . S
C1559 C1558 1.355 . S
C1559 C1561 1.419 . S
C1560 C1558 1.415 . S
C1560 C1565 1.425 . S
C1560 C1567 1.409 . S
C1561 H1553 0.930 . S
C1561 C1559 1.419 . S
C1561 C1562 1.362 . S
C1562 H1554 0.930 . S
C1562 C1561 1.362 . S
C1562 C1565 1.409 . S
C1563 H1555 0.930 . S
C1563 C1564 1.355 . S
C1563 C1565 1.415 . S
C1564 C1563 1.355 . S
C1564 C1566 1.419 . S
C1565 C1560 1.425 . S
C1565 C1562 1.409 . S
C1565 C1563 1.415 . S
C1566 H1556 0.930 . S
C1566 C1564 1.419 . S
C1566 C1567 1.362 . S
C1567 H1557 0.930 . S
C1567 C1560 1.409 . S
C1567 C1566 1.362 . S
H1568 C1574 0.930 . S
H1569 C1577 0.930 . S
H1570 C1578 0.930 . S
H1571 C1579 0.930 . S
H1572 C1582 0.930 . S
H1573 C1583 0.930 . S
C1574 H1568 0.930 . S
C1574 C1575 1.355 . S
C1574 C1576 1.415 . S
C1575 C1574 1.355 . S
C1575 C1577 1.419 . S
C1576 C1574 1.415 . S
C1576 C1581 1.425 . S
C1576 C1583 1.409 . S
C1577 H1569 0.930 . S
C1577 C1575 1.419 . S
C1577 C1578 1.362 . S
C1578 H1570 0.930 . S
C1578 C1577 1.362 . S
C1578 C1581 1.409 . S
C1579 H1571 0.930 . S
C1579 C1580 1.355 . S
C1579 C1581 1.415 . S
C1580 C1579 1.355 . S
C1580 C1582 1.419 . S
C1581 C1576 1.425 . S
C1581 C1578 1.409 . S
C1581 C1579 1.415 . S
C1582 H1572 0.930 . S
C1582 C1580 1.419 . S
C1582 C1583 1.362 . S
C1583 H1573 0.930 . S
C1583 C1576 1.409 . S
C1583 C1582 1.362 . S
H1584 C1590 0.930 . S
H1585 C1593 0.930 . S
H1586 C1594 0.930 . S
H1587 C1595 0.930 . S
H1588 C1598 0.930 . S
H1589 C1599 0.930 . S
C1590 H1584 0.930 . S
C1590 C1591 1.355 . S
C1590 C1592 1.415 . S
C1591 C1590 1.355 . S
C1591 C1593 1.419 . S
C1592 C1590 1.415 . S
C1592 C1597 1.425 . S
C1592 C1599 1.409 . S
C1593 H1585 0.930 . S
C1593 C1591 1.419 . S
C1593 C1594 1.362 . S
C1594 H1586 0.930 . S
C1594 C1593 1.362 . S
C1594 C1597 1.409 . S
C1595 H1587 0.930 . S
C1595 C1596 1.355 . S
C1595 C1597 1.415 . S
C1596 C1595 1.355 . S
C1596 C1598 1.419 . S
C1597 C1592 1.425 . S
C1597 C1594 1.409 . S
C1597 C1595 1.415 . S
C1598 H1588 0.930 . S
C1598 C1596 1.419 . S
C1598 C1599 1.362 . S
C1599 H1589 0.930 . S
C1599 C1592 1.409 . S
C1599 C1598 1.362 . S
H1600 C1606 0.930 . S
H1601 C1609 0.930 . S
H1602 C1610 0.930 . S
H1603 C1611 0.930 . S
H1604 C1614 0.930 . S
H1605 C1615 0.930 . S
C1606 H1600 0.930 . S
C1606 C1607 1.355 . S
C1606 C1608 1.415 . S
C1607 C1606 1.355 . S
C1607 C1609 1.419 . S
C1608 C1606 1.415 . S
C1608 C1613 1.425 . S
C1608 C1615 1.409 . S
C1609 H1601 0.930 . S
C1609 C1607 1.419 . S
C1609 C1610 1.362 . S
C1610 H1602 0.930 . S
C1610 C1609 1.362 . S
C1610 C1613 1.409 . S
C1611 H1603 0.930 . S
C1611 C1612 1.355 . S
C1611 C1613 1.415 . S
C1612 C1611 1.355 . S
C1612 C1614 1.419 . S
C1613 C1608 1.425 . S
C1613 C1610 1.409 . S
C1613 C1611 1.415 . S
C1614 H1604 0.930 . S
C1614 C1612 1.419 . S
C1614 C1615 1.362 . S
C1615 H1605 0.930 . S
C1615 C1608 1.409 . S
C1615 C1614 1.362 . S
H1616 C1622 0.930 . S
H1617 C1625 0.930 . S
H1618 C1626 0.930 . S
H1619 C1627 0.930 . S
H1620 C1630 0.930 . S
H1621 C1631 0.930 . S
C1622 H1616 0.930 . S
C1622 C1623 1.355 . S
C1622 C1624 1.415 . S
C1623 C1622 1.355 . S
C1623 C1625 1.419 . S
C1624 C1622 1.415 . S
C1624 C1629 1.425 . S
C1624 C1631 1.409 . S
C1625 H1617 0.930 . S
C1625 C1623 1.419 . S
C1625 C1626 1.362 . S
C1626 H1618 0.930 . S
C1626 C1625 1.362 . S
C1626 C1629 1.409 . S
C1627 H1619 0.930 . S
C1627 C1628 1.355 . S
C1627 C1629 1.415 . S
C1628 C1627 1.355 . S
C1628 C1630 1.419 . S
C1629 C1624 1.425 . S
C1629 C1626 1.409 . S
C1629 C1627 1.415 . S
C1630 H1620 0.930 . S
C1630 C1628 1.419 . S
C1630 C1631 1.362 . S
C1631 H1621 0.930 . S
C1631 C1624 1.409 . S
C1631 C1630 1.362 . S
H1632 C1638 0.930 . S
H1633 C1641 0.930 . S
H1634 C1642 0.930 . S
H1635 C1643 0.930 . S
H1636 C1646 0.930 . S
H1637 C1647 0.930 . S
C1638 H1632 0.930 . S
C1638 C1639 1.355 . S
C1638 C1640 1.415 . S
C1639 C1638 1.355 . S
C1639 C1641 1.419 . S
C1640 C1638 1.415 . S
C1640 C1645 1.425 . S
C1640 C1647 1.409 . S
C1641 H1633 0.930 . S
C1641 C1639 1.419 . S
C1641 C1642 1.362 . S
C1642 H1634 0.930 . S
C1642 C1641 1.362 . S
C1642 C1645 1.409 . S
C1643 H1635 0.930 . S
C1643 C1644 1.355 . S
C1643 C1645 1.415 . S
C1644 C1643 1.355 . S
C1644 C1646 1.419 . S
C1645 C1640 1.425 . S
C1645 C1642 1.409 . S
C1645 C1643 1.415 . S
C1646 H1636 0.930 . S
C1646 C1644 1.419 . S
C1646 C1647 1.362 . S
C1647 H1637 0.930 . S
C1647 C1640 1.409 . S
C1647 C1646 1.362 . S
H1648 C1654 0.930 . S
H1649 C1657 0.930 . S
H1650 C1658 0.930 . S
H1651 C1659 0.930 . S
H1652 C1662 0.930 . S
H1653 C1663 0.930 . S
C1654 H1648 0.930 . S
C1654 C1655 1.355 . S
C1654 C1656 1.415 . S
C1655 C1654 1.355 . S
C1655 C1657 1.419 . S
C1656 C1654 1.415 . S
C1656 C1661 1.425 . S
C1656 C1663 1.409 . S
C1657 H1649 0.930 . S
C1657 C1655 1.419 . S
C1657 C1658 1.362 . S
C1658 H1650 0.930 . S
C1658 C1657 1.362 . S
C1658 C1661 1.409 . S
C1659 H1651 0.930 . S
C1659 C1660 1.355 . S
C1659 C1661 1.415 . S
C1660 C1659 1.355 . S
C1660 C1662 1.419 . S
C1661 C1656 1.425 . S
C1661 C1658 1.409 . S
C1661 C1659 1.415 . S
C1662 H1652 0.930 . S
C1662 C1660 1.419 . S
C1662 C1663 1.362 . S
C1663 H1653 0.930 . S
C1663 C1656 1.409 . S
C1663 C1662 1.362 . S
H1664 C1670 0.930 . S
H1665 C1673 0.930 . S
H1666 C1674 0.930 . S
H1667 C1675 0.930 . S
H1668 C1678 0.930 . S
H1669 C1679 0.930 . S
C1670 H1664 0.930 . S
C1670 C1671 1.355 . S
C1670 C1672 1.415 . S
C1671 C1670 1.355 . S
C1671 C1673 1.419 . S
C1672 C1670 1.415 . S
C1672 C1677 1.425 . S
C1672 C1679 1.409 . S
C1673 H1665 0.930 . S
C1673 C1671 1.419 . S
C1673 C1674 1.362 . S
C1674 H1666 0.930 . S
C1674 C1673 1.362 . S
C1674 C1677 1.409 . S
C1675 H1667 0.930 . S
C1675 C1676 1.355 . S
C1675 C1677 1.415 . S
C1676 C1675 1.355 . S
C1676 C1678 1.419 . S
C1677 C1672 1.425 . S
C1677 C1674 1.409 . S
C1677 C1675 1.415 . S
C1678 H1668 0.930 . S
C1678 C1676 1.419 . S
C1678 C1679 1.362 . S
C1679 H1669 0.930 . S
C1679 C1672 1.409 . S
C1679 C1678 1.362 . S
H1680 C1686 0.930 . S
H1681 C1689 0.930 . S
H1682 C1690 0.930 . S
H1683 C1691 0.930 . S
H1684 C1694 0.930 . S
H1685 C1695 0.930 . S
C1686 H1680 0.930 . S
C1686 C1687 1.355 . S
C1686 C1688 1.415 . S
C1687 C1686 1.355 . S
C1687 C1689 1.419 . S
C1688 C1686 1.415 . S
C1688 C1693 1.425 . S
C1688 C1695 1.409 . S
C1689 H1681 0.930 . S
C1689 C1687 1.419 . S
C1689 C1690 1.362 . S
C1690 H1682 0.930 . S
C1690 C1689 1.362 . S
C1690 C1693 1.409 . S
C1691 H1683 0.930 . S
C1691 C1692 1.355 . S
C1691 C1693 1.415 . S
C1692 C1691 1.355 . S
C1692 C1694 1.419 . S
C1693 C1688 1.425 . S
C1693 C1690 1.409 . S
C1693 C1691 1.415 . S
C1694 H1684 0.930 . S
C1694 C1692 1.419 . S
C1694 C1695 1.362 . S
C1695 H1685 0.930 . S
C1695 C1688 1.409 . S
C1695 C1694 1.362 . S
H1696 C1702 0.930 . S
H1697 C1705 0.930 . S
H1698 C1706 0.930 . S
H1699 C1707 0.930 . S
H1700 C1710 0.930 . S
H1701 C1711 0.930 . S
C1702 H1696 0.930 . S
C1702 C1703 1.355 . S
C1702 C1704 1.415 . S
C1703 C1702 1.355 . S
C1703 C1705 1.419 . S
C1704 C1702 1.415 . S
C1704 C1709 1.425 . S
C1704 C1711 1.409 . S
C1705 H1697 0.930 . S
C1705 C1703 1.419 . S
C1705 C1706 1.362 . S
C1706 H1698 0.930 . S
C1706 C1705 1.362 . S
C1706 C1709 1.409 . S
C1707 H1699 0.930 . S
C1707 C1708 1.355 . S
C1707 C1709 1.415 . S
C1708 C1707 1.355 . S
C1708 C1710 1.419 . S
C1709 C1704 1.425 . S
C1709 C1706 1.409 . S
C1709 C1707 1.415 . S
C1710 H1700 0.930 . S
C1710 C1708 1.419 . S
C1710 C1711 1.362 . S
C1711 H1701 0.930 . S
C1711 C1704 1.409 . S
C1711 C1710 1.362 . S
H1712 C1718 0.930 . S
H1713 C1721 0.930 . S
H1714 C1722 0.930 . S
H1715 C1723 0.930 . S
H1716 C1726 0.930 . S
H1717 C1727 0.930 . S
C1718 H1712 0.930 . S
C1718 C1719 1.355 . S
C1718 C1720 1.415 . S
C1719 C1718 1.355 . S
C1719 C1721 1.419 . S
C1720 C1718 1.415 . S
C1720 C1725 1.425 . S
C1720 C1727 1.409 . S
C1721 H1713 0.930 . S
C1721 C1719 1.419 . S
C1721 C1722 1.362 . S
C1722 H1714 0.930 . S
C1722 C1721 1.362 . S
C1722 C1725 1.409 . S
C1723 H1715 0.930 . S
C1723 C1724 1.355 . S
C1723 C1725 1.415 . S
C1724 C1723 1.355 . S
C1724 C1726 1.419 . S
C1725 C1720 1.425 . S
C1725 C1722 1.409 . S
C1725 C1723 1.415 . S
C1726 H1716 0.930 . S
C1726 C1724 1.419 . S
C1726 C1727 1.362 . S
C1727 H1717 0.930 . S
C1727 C1720 1.409 . S
C1727 C1726 1.362 . S
H1728 C1734 0.930 . S
H1729 C1737 0.930 . S
H1730 C1738 0.930 . S
H1731 C1739 0.930 . S
H1732 C1742 0.930 . S
H1733 C1743 0.930 . S
C1734 H1728 0.930 . S
C1734 C1735 1.355 . S
C1734 C1736 1.415 . S
C1735 C1734 1.355 . S
C1735 C1737 1.419 . S
C1736 C1734 1.415 . S
C1736 C1741 1.425 . S
C1736 C1743 1.409 . S
C1737 H1729 0.930 . S
C1737 C1735 1.419 . S
C1737 C1738 1.362 . S
C1738 H1730 0.930 . S
C1738 C1737 1.362 . S
C1738 C1741 1.409 . S
C1739 H1731 0.930 . S
C1739 C1740 1.355 . S
C1739 C1741 1.415 . S
C1740 C1739 1.355 . S
C1740 C1742 1.419 . S
C1741 C1736 1.425 . S
C1741 C1738 1.409 . S
C1741 C1739 1.415 . S
C1742 H1732 0.930 . S
C1742 C1740 1.419 . S
C1742 C1743 1.362 . S
C1743 H1733 0.930 . S
C1743 C1736 1.409 . S
C1743 C1742 1.362 . S
H1744 C1750 0.930 . S
H1745 C1753 0.930 . S
H1746 C1754 0.930 . S
H1747 C1755 0.930 . S
H1748 C1758 0.930 . S
H1749 C1759 0.930 . S
C1750 H1744 0.930 . S
C1750 C1751 1.355 . S
C1750 C1752 1.415 . S
C1751 C1750 1.355 . S
C1751 C1753 1.419 . S
C1752 C1750 1.415 . S
C1752 C1757 1.425 . S
C1752 C1759 1.409 . S
C1753 H1745 0.930 . S
C1753 C1751 1.419 . S
C1753 C1754 1.362 . S
C1754 H1746 0.930 . S
C1754 C1753 1.362 . S
C1754 C1757 1.409 . S
C1755 H1747 0.930 . S
C1755 C1756 1.355 . S
C1755 C1757 1.415 . S
C1756 C1755 1.355 . S
C1756 C1758 1.419 . S
C1757 C1752 1.425 . S
C1757 C1754 1.409 . S
C1757 C1755 1.415 . S
C1758 H1748 0.930 . S
C1758 C1756 1.419 . S
C1758 C1759 1.362 . S
C1759 H1749 0.930 . S
C1759 C1752 1.409 . S
C1759 C1758 1.362 . S
H1760 C1766 0.930 . S
H1761 C1769 0.930 . S
H1762 C1770 0.930 . S
H1763 C1771 0.930 . S
H1764 C1774 0.930 . S
H1765 C1775 0.930 . S
C1766 H1760 0.930 . S
C1766 C1767 1.355 . S
C1766 C1768 1.415 . S
C1767 C1766 1.355 . S
C1767 C1769 1.419 . S
C1768 C1766 1.415 . S
C1768 C1773 1.425 . S
C1768 C1775 1.409 . S
C1769 H1761 0.930 . S
C1769 C1767 1.419 . S
C1769 C1770 1.362 . S
C1770 H1762 0.930 . S
C1770 C1769 1.362 . S
C1770 C1773 1.409 . S
C1771 H1763 0.930 . S
C1771 C1772 1.355 . S
C1771 C1773 1.415 . S
C1772 C1771 1.355 . S
C1772 C1774 1.419 . S
C1773 C1768 1.425 . S
C1773 C1770 1.409 . S
C1773 C1771 1.415 . S
C1774 H1764 0.930 . S
C1774 C1772 1.419 . S
C1774 C1775 1.362 . S
C1775 H1765 0.930 . S
C1775 C1768 1.409 . S
C1775 C1774 1.362 . S
H1776 C1782 0.930 . S
H1777 C1785 0.930 1_545 S
H1778 C1786 0.930 . S
H1779 C1787 0.930 . S
H1780 C1790 0.930 . S
H1781 C1791 0.930 . S
C1782 H1776 0.930 . S
C1782 C1783 1.355 . S
C1782 C1784 1.415 . S
C1783 C1782 1.355 . S
C1783 C1785 1.419 . S
C1784 C1782 1.415 . S
C1784 C1789 1.425 . S
C1784 C1791 1.409 . S
C1785 H1777 0.930 1_565 S
C1785 C1783 1.419 . S
C1785 C1786 1.362 . S
C1786 H1778 0.930 . S
C1786 C1785 1.362 . S
C1786 C1789 1.409 . S
C1787 H1779 0.930 . S
C1787 C1788 1.355 . S
C1787 C1789 1.415 . S
C1788 C1787 1.355 . S
C1788 C1790 1.419 . S
C1789 C1784 1.425 . S
C1789 C1786 1.409 . S
C1789 C1787 1.415 . S
C1790 H1780 0.930 . S
C1790 C1788 1.419 . S
C1790 C1791 1.362 . S
C1791 H1781 0.930 . S
C1791 C1784 1.409 . S
C1791 C1790 1.362 . S
H1792 C1798 0.930 . S
H1793 C1801 0.930 . S
H1794 C1802 0.930 . S
H1795 C1803 0.930 . S
H1796 C1806 0.930 . S
H1797 C1807 0.930 . S
C1798 H1792 0.930 . S
C1798 C1799 1.355 . S
C1798 C1800 1.415 . S
C1799 C1798 1.355 . S
C1799 C1801 1.419 . S
C1800 C1798 1.415 . S
C1800 C1805 1.425 . S
C1800 C1807 1.409 . S
C1801 H1793 0.930 . S
C1801 C1799 1.419 . S
C1801 C1802 1.362 . S
C1802 H1794 0.930 . S
C1802 C1801 1.362 . S
C1802 C1805 1.409 . S
C1803 H1795 0.930 . S
C1803 C1804 1.355 . S
C1803 C1805 1.415 . S
C1804 C1803 1.355 . S
C1804 C1806 1.419 . S
C1805 C1800 1.425 . S
C1805 C1802 1.409 . S
C1805 C1803 1.415 . S
C1806 H1796 0.930 . S
C1806 C1804 1.419 . S
C1806 C1807 1.362 . S
C1807 H1797 0.930 . S
C1807 C1800 1.409 . S
C1807 C1806 1.362 . S
H1808 C1814 0.930 . S
H1809 C1817 0.930 . S
H1810 C1818 0.930 . S
H1811 C1819 0.930 . S
H1812 C1822 0.930 . S
H1813 C1823 0.930 . S
C1814 H1808 0.930 . S
C1814 C1815 1.355 . S
C1814 C1816 1.415 . S
C1815 C1814 1.355 . S
C1815 C1817 1.419 . S
C1816 C1814 1.415 . S
C1816 C1821 1.425 . S
C1816 C1823 1.409 . S
C1817 H1809 0.930 . S
C1817 C1815 1.419 . S
C1817 C1818 1.362 . S
C1818 H1810 0.930 . S
C1818 C1817 1.362 . S
C1818 C1821 1.409 . S
C1819 H1811 0.930 . S
C1819 C1820 1.355 . S
C1819 C1821 1.415 . S
C1820 C1819 1.355 . S
C1820 C1822 1.419 . S
C1821 C1816 1.425 . S
C1821 C1818 1.409 . S
C1821 C1819 1.415 . S
C1822 H1812 0.930 . S
C1822 C1820 1.419 . S
C1822 C1823 1.362 . S
C1823 H1813 0.930 . S
C1823 C1816 1.409 . S
C1823 C1822 1.362 . S
H1824 C1830 0.930 . S
H1825 C1833 0.930 . S
H1826 C1834 0.930 . S
H1827 C1835 0.930 . S
H1828 C1838 0.930 . S
H1829 C1839 0.930 . S
C1830 H1824 0.930 . S
C1830 C1831 1.355 . S
C1830 C1832 1.415 . S
C1831 C1830 1.355 . S
C1831 C1833 1.419 . S
C1832 C1830 1.415 . S
C1832 C1837 1.425 . S
C1832 C1839 1.409 . S
C1833 H1825 0.930 . S
C1833 C1831 1.419 . S
C1833 C1834 1.362 . S
C1834 H1826 0.930 . S
C1834 C1833 1.362 . S
C1834 C1837 1.409 . S
C1835 H1827 0.930 . S
C1835 C1836 1.355 . S
C1835 C1837 1.415 . S
C1836 C1835 1.355 . S
C1836 C1838 1.419 . S
C1837 C1832 1.425 . S
C1837 C1834 1.409 . S
C1837 C1835 1.415 . S
C1838 H1828 0.930 . S
C1838 C1836 1.419 . S
C1838 C1839 1.362 . S
C1839 H1829 0.930 . S
C1839 C1832 1.409 . S
C1839 C1838 1.362 . S
H1840 C1846 0.930 . S
H1841 C1849 0.930 . S
H1842 C1850 0.930 . S
H1843 C1851 0.930 . S
H1844 C1854 0.930 . S
H1845 C1855 0.930 . S
C1846 H1840 0.930 . S
C1846 C1847 1.355 . S
C1846 C1848 1.415 . S
C1847 C1846 1.355 . S
C1847 C1849 1.419 . S
C1848 C1846 1.415 . S
C1848 C1853 1.425 . S
C1848 C1855 1.409 . S
C1849 H1841 0.930 . S
C1849 C1847 1.419 . S
C1849 C1850 1.362 . S
C1850 H1842 0.930 . S
C1850 C1849 1.362 . S
C1850 C1853 1.409 . S
C1851 H1843 0.930 . S
C1851 C1852 1.355 . S
C1851 C1853 1.415 . S
C1852 C1851 1.355 . S
C1852 C1854 1.419 . S
C1853 C1848 1.425 . S
C1853 C1850 1.409 . S
C1853 C1851 1.415 . S
C1854 H1844 0.930 . S
C1854 C1852 1.419 . S
C1854 C1855 1.362 . S
C1855 H1845 0.930 . S
C1855 C1848 1.409 . S
C1855 C1854 1.362 . S
H1856 C1862 0.930 . S
H1857 C1865 0.930 . S
H1858 C1866 0.930 . S
H1859 C1867 0.930 . S
H1860 C1870 0.930 . S
H1861 C1871 0.930 . S
C1862 H1856 0.930 . S
C1862 C1863 1.355 . S
C1862 C1864 1.415 . S
C1863 C1862 1.355 . S
C1863 C1865 1.419 . S
C1864 C1862 1.415 . S
C1864 C1869 1.425 . S
C1864 C1871 1.409 . S
C1865 H1857 0.930 . S
C1865 C1863 1.419 . S
C1865 C1866 1.362 . S
C1866 H1858 0.930 . S
C1866 C1865 1.362 . S
C1866 C1869 1.409 . S
C1867 H1859 0.930 . S
C1867 C1868 1.355 . S
C1867 C1869 1.415 . S
C1868 C1867 1.355 . S
C1868 C1870 1.419 . S
C1869 C1864 1.425 . S
C1869 C1866 1.409 . S
C1869 C1867 1.415 . S
C1870 H1860 0.930 . S
C1870 C1868 1.419 . S
C1870 C1871 1.362 . S
C1871 H1861 0.930 . S
C1871 C1864 1.409 . S
C1871 C1870 1.362 . S
H1872 C1878 0.930 . S
H1873 C1881 0.930 . S
H1874 C1882 0.930 . S
H1875 C1883 0.930 . S
H1876 C1886 0.930 . S
H1877 C1887 0.930 . S
C1878 H1872 0.930 . S
C1878 C1879 1.355 . S
C1878 C1880 1.415 . S
C1879 C1878 1.355 . S
C1879 C1881 1.419 . S
C1880 C1878 1.415 . S
C1880 C1885 1.425 . S
C1880 C1887 1.409 . S
C1881 H1873 0.930 . S
C1881 C1879 1.419 . S
C1881 C1882 1.362 . S
C1882 H1874 0.930 . S
C1882 C1881 1.362 . S
C1882 C1885 1.409 . S
C1883 H1875 0.930 . S
C1883 C1884 1.355 . S
C1883 C1885 1.415 . S
C1884 C1883 1.355 . S
C1884 C1886 1.419 . S
C1885 C1880 1.425 . S
C1885 C1882 1.409 . S
C1885 C1883 1.415 . S
C1886 H1876 0.930 . S
C1886 C1884 1.419 . S
C1886 C1887 1.362 . S
C1887 H1877 0.930 . S
C1887 C1880 1.409 . S
C1887 C1886 1.362 . S
H1888 C1894 0.930 . S
H1889 C1897 0.930 . S
H1890 C1898 0.949 . S
H1891 C1899 0.930 . S
H1892 C1902 0.930 . S
H1893 C1903 0.930 . S
C1894 H1888 0.930 . S
C1894 C1895 1.355 . S
C1894 C1896 1.415 . S
C1895 C1894 1.355 . S
C1895 C1897 1.419 1_565 S
C1896 C1894 1.415 . S
C1896 C1901 1.425 . S
C1896 C1903 1.409 . S
C1897 H1889 0.930 . S
C1897 C1895 1.419 1_545 S
C1897 C1898 1.362 1_545 S
C1898 H1890 0.949 . S
C1898 C1897 1.362 1_565 S
C1898 C1901 1.409 . S
C1899 H1891 0.930 . S
C1899 C1900 1.355 . S
C1899 C1901 1.415 . S
C1900 C1899 1.355 . S
C1900 C1902 1.419 . S
C1901 C1896 1.425 . S
C1901 C1898 1.409 . S
C1901 C1899 1.415 . S
C1902 H1892 0.930 . S
C1902 C1900 1.419 . S
C1902 C1903 1.362 . S
C1903 H1893 0.930 . S
C1903 C1896 1.409 . S
C1903 C1902 1.362 . S
H1904 C1910 0.930 . S
H1905 C1913 0.930 . S
H1906 C1914 0.930 . S
H1907 C1915 0.930 . S
H1908 C1918 0.930 . S
H1909 C1919 0.930 . S
C1910 H1904 0.930 . S
C1910 C1911 1.355 . S
C1910 C1912 1.415 . S
C1911 C1910 1.355 . S
C1911 C1913 1.419 . S
C1912 C1910 1.415 . S
C1912 C1917 1.425 . S
C1912 C1919 1.409 . S
C1913 H1905 0.930 . S
C1913 C1911 1.419 . S
C1913 C1914 1.362 . S
C1914 H1906 0.930 . S
C1914 C1913 1.362 . S
C1914 C1917 1.409 . S
C1915 H1907 0.930 . S
C1915 C1916 1.355 . S
C1915 C1917 1.415 . S
C1916 C1915 1.355 . S
C1916 C1918 1.419 . S
C1917 C1912 1.425 . S
C1917 C1914 1.409 . S
C1917 C1915 1.415 . S
C1918 H1908 0.930 . S
C1918 C1916 1.419 . S
C1918 C1919 1.362 . S
C1919 H1909 0.930 . S
C1919 C1912 1.409 . S
C1919 C1918 1.362 . S
H1920 C1926 0.930 . S
H1921 C1929 0.930 . S
H1922 C1930 0.930 . S
H1923 C1931 0.930 . S
H1924 C1934 0.930 . S
H1925 C1935 0.930 . S
C1926 H1920 0.930 . S
C1926 C1927 1.355 . S
C1926 C1928 1.415 . S
C1927 C1926 1.355 . S
C1927 C1929 1.419 . S
C1928 C1926 1.415 . S
C1928 C1933 1.425 . S
C1928 C1935 1.409 . S
C1929 H1921 0.930 . S
C1929 C1927 1.419 . S
C1929 C1930 1.362 . S
C1930 H1922 0.930 . S
C1930 C1929 1.362 . S
C1930 C1933 1.409 . S
C1931 H1923 0.930 . S
C1931 C1932 1.355 . S
C1931 C1933 1.415 . S
C1932 C1931 1.355 . S
C1932 C1934 1.419 . S
C1933 C1928 1.425 . S
C1933 C1930 1.409 . S
C1933 C1931 1.415 . S
C1934 H1924 0.930 . S
C1934 C1932 1.419 . S
C1934 C1935 1.362 . S
C1935 H1925 0.930 . S
C1935 C1928 1.409 . S
C1935 C1934 1.362 . S
H1936 C1942 0.930 . S
H1937 C1945 0.930 . S
H1938 C1946 0.930 . S
H1939 C1947 0.930 . S
H1940 C1950 0.930 . S
H1941 C1951 0.930 . S
C1942 H1936 0.930 . S
C1942 C1943 1.355 . S
C1942 C1944 1.415 . S
C1943 C1942 1.355 . S
C1943 C1945 1.419 . S
C1944 C1942 1.415 . S
C1944 C1949 1.425 . S
C1944 C1951 1.409 . S
C1945 H1937 0.930 . S
C1945 C1943 1.419 . S
C1945 C1946 1.362 . S
C1946 H1938 0.930 . S
C1946 C1945 1.362 . S
C1946 C1949 1.409 . S
C1947 H1939 0.930 . S
C1947 C1948 1.355 . S
C1947 C1949 1.415 . S
C1948 C1947 1.355 . S
C1948 C1950 1.419 . S
C1949 C1944 1.425 . S
C1949 C1946 1.409 . S
C1949 C1947 1.415 . S
C1950 H1940 0.930 . S
C1950 C1948 1.419 . S
C1950 C1951 1.362 . S
C1951 H1941 0.930 . S
C1951 C1944 1.409 . S
C1951 C1950 1.362 . S
H1952 C1958 0.930 . S
H1953 C1961 0.930 1_554 S
H1954 C1962 0.930 . S
H1955 C1963 0.930 . S
H1956 C1966 0.930 . S
H1957 C1967 0.930 . S
C1958 H1952 0.930 . S
C1958 C1959 1.355 . S
C1958 C1960 1.415 . S
C1959 C1958 1.355 . S
C1959 C1961 1.419 . S
C1960 C1958 1.415 . S
C1960 C1965 1.425 . S
C1960 C1967 1.409 . S
C1961 H1953 0.930 1_556 S
C1961 C1959 1.419 . S
C1961 C1962 1.362 . S
C1962 H1954 0.930 . S
C1962 C1961 1.362 . S
C1962 C1965 1.409 . S
C1963 H1955 0.930 . S
C1963 C1964 1.355 . S
C1963 C1965 1.415 . S
C1964 C1963 1.355 . S
C1964 C1966 1.419 . S
C1965 C1960 1.425 . S
C1965 C1962 1.409 . S
C1965 C1963 1.415 . S
C1966 H1956 0.930 . S
C1966 C1964 1.419 . S
C1966 C1967 1.362 . S
C1967 H1957 0.930 . S
C1967 C1960 1.409 . S
C1967 C1966 1.362 . S
H1968 C1974 0.930 . S
H1969 C1977 0.930 . S
H1970 C1978 0.930 . S
H1971 C1979 0.930 . S
H1972 C1982 0.930 . S
H1973 C1983 0.930 . S
C1974 H1968 0.930 . S
C1974 C1975 1.355 . S
C1974 C1976 1.415 . S
C1975 C1974 1.355 . S
C1975 C1977 1.419 . S
C1976 C1974 1.415 . S
C1976 C1981 1.425 . S
C1976 C1983 1.409 . S
C1977 H1969 0.930 . S
C1977 C1975 1.419 . S
C1977 C1978 1.362 . S
C1978 H1970 0.930 . S
C1978 C1977 1.362 . S
C1978 C1981 1.409 . S
C1979 H1971 0.930 . S
C1979 C1980 1.355 . S
C1979 C1981 1.415 . S
C1980 C1979 1.355 . S
C1980 C1982 1.419 . S
C1981 C1976 1.425 . S
C1981 C1978 1.409 . S
C1981 C1979 1.415 . S
C1982 H1972 0.930 . S
C1982 C1980 1.419 . S
C1982 C1983 1.362 . S
C1983 H1973 0.930 . S
C1983 C1976 1.409 . S
C1983 C1982 1.362 . S
H1984 C1990 0.930 . S
H1985 C1993 0.930 . S
H1986 C1994 0.930 . S
H1987 C1995 0.930 . S
H1988 C1998 0.930 . S
H1989 C1999 0.930 . S
C1990 H1984 0.930 . S
C1990 C1991 1.355 . S
C1990 C1992 1.415 . S
C1991 C1990 1.355 . S
C1991 C1993 1.419 . S
C1992 C1990 1.415 . S
C1992 C1997 1.425 . S
C1992 C1999 1.409 . S
C1993 H1985 0.930 . S
C1993 C1991 1.419 . S
C1993 C1994 1.362 . S
C1994 H1986 0.930 . S
C1994 C1993 1.362 . S
C1994 C1997 1.409 . S
C1995 H1987 0.930 . S
C1995 C1996 1.355 . S
C1995 C1997 1.415 . S
C1996 C1995 1.355 . S
C1996 C1998 1.419 . S
C1997 C1992 1.425 . S
C1997 C1994 1.409 . S
C1997 C1995 1.415 . S
C1998 H1988 0.930 . S
C1998 C1996 1.419 . S
C1998 C1999 1.362 . S
C1999 H1989 0.930 . S
C1999 C1992 1.409 . S
C1999 C1998 1.362 . S
H2000 C2006 0.930 . S
H2001 C2009 0.935 . S
H2002 C2010 0.930 . S
H2003 C2011 0.930 . S
H2004 C2014 0.930 . S
H2005 C2015 0.930 . S
C2006 H2000 0.930 . S
C2006 C2007 1.355 . S
C2006 C2008 1.415 . S
C2007 C2006 1.355 . S
C2007 C2009 1.417 1_556 S
C2008 C2006 1.415 . S
C2008 C2013 1.425 . S
C2008 C2015 1.409 . S
C2009 H2001 0.935 . S
C2009 C2007 1.417 1_554 S
C2009 C2010 1.359 1_554 S
C2010 H2002 0.930 . S
C2010 C2009 1.359 1_556 S
C2010 C2013 1.409 . S
C2011 H2003 0.930 . S
C2011 C2012 1.355 . S
C2011 C2013 1.415 . S
C2012 C2011 1.355 . S
C2012 C2014 1.419 . S
C2013 C2008 1.425 . S
C2013 C2010 1.409 . S
C2013 C2011 1.415 . S
C2014 H2004 0.930 . S
C2014 C2012 1.419 . S
C2014 C2015 1.362 . S
C2015 H2005 0.930 . S
C2015 C2008 1.409 . S
C2015 C2014 1.362 . S
H2016 C2022 0.930 . S
H2017 C2025 0.930 1_554 S
H2018 C2026 0.930 . S
H2019 C2027 0.930 . S
H2020 C2030 0.930 . S
H2021 C2031 0.930 . S
C2022 H2016 0.930 . S
C2022 C2023 1.355 . S
C2022 C2024 1.415 . S
C2023 C2022 1.355 . S
C2023 C2025 1.419 . S
C2024 C2022 1.415 . S
C2024 C2029 1.425 . S
C2024 C2031 1.409 . S
C2025 H2017 0.930 1_556 S
C2025 C2023 1.419 . S
C2025 C2026 1.362 . S
C2026 H2018 0.930 . S
C2026 C2025 1.362 . S
C2026 C2029 1.409 . S
C2027 H2019 0.930 . S
C2027 C2028 1.355 . S
C2027 C2029 1.415 . S
C2028 C2027 1.355 . S
C2028 C2030 1.419 . S
C2029 C2024 1.425 . S
C2029 C2026 1.409 . S
C2029 C2027 1.415 . S
C2030 H2020 0.930 . S
C2030 C2028 1.419 . S
C2030 C2031 1.362 . S
C2031 H2021 0.930 . S
C2031 C2024 1.409 . S
C2031 C2030 1.362 . S
H2032 C2038 0.930 . S
H2033 C2041 0.930 . S
H2034 C2042 0.930 . S
H2035 C2043 0.930 . S
H2036 C2046 0.930 . S
H2037 C2047 0.930 . S
C2038 H2032 0.930 . S
C2038 C2039 1.355 . S
C2038 C2040 1.415 . S
C2039 C2038 1.355 . S
C2039 C2041 1.419 . S
C2040 C2038 1.415 . S
C2040 C2045 1.425 . S
C2040 C2047 1.409 . S
C2041 H2033 0.930 . S
C2041 C2039 1.419 . S
C2041 C2042 1.362 . S
C2042 H2034 0.930 . S
C2042 C2041 1.362 . S
C2042 C2045 1.409 . S
C2043 H2035 0.930 . S
C2043 C2044 1.355 . S
C2043 C2045 1.415 . S
C2044 C2043 1.355 . S
C2044 C2046 1.419 . S
C2045 C2040 1.425 . S
C2045 C2042 1.409 . S
C2045 C2043 1.415 . S
C2046 H2036 0.930 . S
C2046 C2044 1.419 . S
C2046 C2047 1.362 . S
C2047 H2037 0.930 . S
C2047 C2040 1.409 . S
C2047 C2046 1.362 . S
H2048 C2054 0.930 . S
H2049 C2057 0.930 . S
H2050 C2058 0.930 . S
H2051 C2059 0.930 . S
H2052 C2062 0.930 . S
H2053 C2063 0.930 . S
C2054 H2048 0.930 . S
C2054 C2055 1.355 . S
C2054 C2056 1.415 . S
C2055 C2054 1.355 . S
C2055 C2057 1.419 . S
C2056 C2054 1.415 . S
C2056 C2061 1.425 . S
C2056 C2063 1.409 . S
C2057 H2049 0.930 . S
C2057 C2055 1.419 . S
C2057 C2058 1.362 . S
C2058 H2050 0.930 . S
C2058 C2057 1.362 . S
C2058 C2061 1.409 . S
C2059 H2051 0.930 . S
C2059 C2060 1.355 . S
C2059 C2061 1.415 . S
C2060 C2059 1.355 . S
C2060 C2062 1.419 . S
C2061 C2056 1.425 . S
C2061 C2058 1.409 . S
C2061 C2059 1.415 . S
C2062 H2052 0.930 . S
C2062 C2060 1.419 . S
C2062 C2063 1.362 . S
C2063 H2053 0.930 . S
C2063 C2056 1.409 . S
C2063 C2062 1.362 . S
H2064 C2070 0.930 . S
H2065 C2073 0.930 . S
H2066 C2074 0.930 . S
H2067 C2075 0.930 . S
H2068 C2078 0.930 . S
H2069 C2079 0.930 . S
C2070 H2064 0.930 . S
C2070 C2071 1.355 . S
C2070 C2072 1.415 . S
C2071 C2070 1.355 . S
C2071 C2073 1.419 . S
C2072 C2070 1.415 . S
C2072 C2077 1.425 . S
C2072 C2079 1.409 . S
C2073 H2065 0.930 . S
C2073 C2071 1.419 . S
C2073 C2074 1.362 . S
C2074 H2066 0.930 . S
C2074 C2073 1.362 . S
C2074 C2077 1.409 . S
C2075 H2067 0.930 . S
C2075 C2076 1.355 . S
C2075 C2077 1.415 . S
C2076 C2075 1.355 . S
C2076 C2078 1.419 . S
C2077 C2072 1.425 . S
C2077 C2074 1.409 . S
C2077 C2075 1.415 . S
C2078 H2068 0.930 . S
C2078 C2076 1.419 . S
C2078 C2079 1.362 . S
C2079 H2069 0.930 . S
C2079 C2072 1.409 . S
C2079 C2078 1.362 . S
H2080 C2086 0.930 . S
H2081 C2089 0.930 . S
H2082 C2090 0.930 . S
H2083 C2091 0.930 . S
H2084 C2094 0.930 . S
H2085 C2095 0.930 . S
C2086 H2080 0.930 . S
C2086 C2087 1.355 . S
C2086 C2088 1.415 . S
C2087 C2086 1.355 . S
C2087 C2089 1.419 . S
C2088 C2086 1.415 . S
C2088 C2093 1.425 . S
C2088 C2095 1.409 . S
C2089 H2081 0.930 . S
C2089 C2087 1.419 . S
C2089 C2090 1.362 . S
C2090 H2082 0.930 . S
C2090 C2089 1.362 . S
C2090 C2093 1.409 . S
C2091 H2083 0.930 . S
C2091 C2092 1.355 . S
C2091 C2093 1.415 . S
C2092 C2091 1.355 . S
C2092 C2094 1.419 . S
C2093 C2088 1.425 . S
C2093 C2090 1.409 . S
C2093 C2091 1.415 . S
C2094 H2084 0.930 . S
C2094 C2092 1.419 . S
C2094 C2095 1.362 . S
C2095 H2085 0.930 . S
C2095 C2088 1.409 . S
C2095 C2094 1.362 . S
H2096 C2102 0.930 . S
H2097 C2105 0.930 . S
H2098 C2106 0.930 . S
H2099 C2107 0.930 . S
H2100 C2110 0.930 . S
H2101 C2111 0.930 . S
C2102 H2096 0.930 . S
C2102 C2103 1.355 . S
C2102 C2104 1.415 . S
C2103 C2102 1.355 . S
C2103 C2105 1.419 . S
C2104 C2102 1.415 . S
C2104 C2109 1.425 . S
C2104 C2111 1.409 . S
C2105 H2097 0.930 . S
C2105 C2103 1.419 . S
C2105 C2106 1.362 . S
C2106 H2098 0.930 . S
C2106 C2105 1.362 . S
C2106 C2109 1.409 . S
C2107 H2099 0.930 . S
C2107 C2108 1.355 . S
C2107 C2109 1.415 . S
C2108 C2107 1.355 . S
C2108 C2110 1.419 . S
C2109 C2104 1.425 . S
C2109 C2106 1.409 . S
C2109 C2107 1.415 . S
C2110 H2100 0.930 . S
C2110 C2108 1.419 . S
C2110 C2111 1.362 . S
C2111 H2101 0.930 . S
C2111 C2104 1.409 . S
C2111 C2110 1.362 . S
H2112 C2118 0.930 . S
H2113 C2121 0.930 . S
H2114 C2122 0.930 . S
H2115 C2123 0.930 . S
H2116 C2126 0.930 . S
H2117 C2127 0.930 . S
C2118 H2112 0.930 . S
C2118 C2119 1.355 . S
C2118 C2120 1.415 . S
C2119 C2118 1.355 . S
C2119 C2121 1.419 . S
C2120 C2118 1.415 . S
C2120 C2125 1.425 . S
C2120 C2127 1.409 . S
C2121 H2113 0.930 . S
C2121 C2119 1.419 . S
C2121 C2122 1.362 . S
C2122 H2114 0.930 . S
C2122 C2121 1.362 . S
C2122 C2125 1.409 . S
C2123 H2115 0.930 . S
C2123 C2124 1.355 . S
C2123 C2125 1.415 . S
C2124 C2123 1.355 . S
C2124 C2126 1.419 . S
C2125 C2120 1.425 . S
C2125 C2122 1.409 . S
C2125 C2123 1.415 . S
C2126 H2116 0.930 . S
C2126 C2124 1.419 . S
C2126 C2127 1.362 . S
C2127 H2117 0.930 . S
C2127 C2120 1.409 . S
C2127 C2126 1.362 . S
H2128 C2134 0.930 . S
H2129 C2137 0.930 . S
H2130 C2138 0.930 . S
H2131 C2139 0.930 . S
H2132 C2142 0.930 . S
H2133 C2143 0.930 . S
C2134 H2128 0.930 . S
C2134 C2135 1.355 . S
C2134 C2136 1.415 . S
C2135 C2134 1.355 . S
C2135 C2137 1.419 . S
C2136 C2134 1.415 . S
C2136 C2141 1.425 . S
C2136 C2143 1.409 . S
C2137 H2129 0.930 . S
C2137 C2135 1.419 . S
C2137 C2138 1.362 . S
C2138 H2130 0.930 . S
C2138 C2137 1.362 . S
C2138 C2141 1.409 . S
C2139 H2131 0.930 . S
C2139 C2140 1.355 . S
C2139 C2141 1.415 . S
C2140 C2139 1.355 . S
C2140 C2142 1.419 . S
C2141 C2136 1.425 . S
C2141 C2138 1.409 . S
C2141 C2139 1.415 . S
C2142 H2132 0.930 . S
C2142 C2140 1.419 . S
C2142 C2143 1.362 . S
C2143 H2133 0.930 . S
C2143 C2136 1.409 . S
C2143 C2142 1.362 . S
H2144 C2150 0.930 . S
H2145 C2153 0.930 . S
H2146 C2154 0.930 . S
H2147 C2155 0.930 . S
H2148 C2158 0.930 . S
H2149 C2159 0.930 . S
C2150 H2144 0.930 . S
C2150 C2151 1.355 . S
C2150 C2152 1.415 . S
C2151 C2150 1.355 . S
C2151 C2153 1.419 . S
C2152 C2150 1.415 . S
C2152 C2157 1.425 . S
C2152 C2159 1.409 . S
C2153 H2145 0.930 . S
C2153 C2151 1.419 . S
C2153 C2154 1.362 . S
C2154 H2146 0.930 . S
C2154 C2153 1.362 . S
C2154 C2157 1.409 . S
C2155 H2147 0.930 . S
C2155 C2156 1.355 . S
C2155 C2157 1.415 . S
C2156 C2155 1.355 . S
C2156 C2158 1.419 . S
C2157 C2152 1.425 . S
C2157 C2154 1.409 . S
C2157 C2155 1.415 . S
C2158 H2148 0.930 . S
C2158 C2156 1.419 . S
C2158 C2159 1.362 . S
C2159 H2149 0.930 . S
C2159 C2152 1.409 . S
C2159 C2158 1.362 . S
H2160 C2166 0.930 . S
H2161 C2169 0.930 . S
H2162 C2170 0.930 . S
H2163 C2171 0.930 . S
H2164 C2174 0.930 . S
H2165 C2175 0.930 . S
C2166 H2160 0.930 . S
C2166 C2167 1.355 . S
C2166 C2168 1.415 . S
C2167 C2166 1.355 . S
C2167 C2169 1.419 . S
C2168 C2166 1.415 . S
C2168 C2173 1.425 . S
C2168 C2175 1.409 . S
C2169 H2161 0.930 . S
C2169 C2167 1.419 . S
C2169 C2170 1.362 . S
C2170 H2162 0.930 . S
C2170 C2169 1.362 . S
C2170 C2173 1.409 . S
C2171 H2163 0.930 . S
C2171 C2172 1.355 . S
C2171 C2173 1.415 . S
C2172 C2171 1.355 . S
C2172 C2174 1.419 . S
C2173 C2168 1.425 . S
C2173 C2170 1.409 . S
C2173 C2171 1.415 . S
C2174 H2164 0.930 . S
C2174 C2172 1.419 . S
C2174 C2175 1.362 . S
C2175 H2165 0.930 . S
C2175 C2168 1.409 . S
C2175 C2174 1.362 . S
H2176 C2182 0.930 . S
H2177 C2185 0.930 . S
H2178 C2186 0.930 . S
H2179 C2187 0.930 . S
H2180 C2190 0.930 . S
H2181 C2191 0.930 . S
C2182 H2176 0.930 . S
C2182 C2183 1.355 . S
C2182 C2184 1.415 . S
C2183 C2182 1.355 . S
C2183 C2185 1.419 . S
C2184 C2182 1.415 . S
C2184 C2189 1.425 . S
C2184 C2191 1.409 . S
C2185 H2177 0.930 . S
C2185 C2183 1.419 . S
C2185 C2186 1.362 . S
C2186 H2178 0.930 . S
C2186 C2185 1.362 . S
C2186 C2189 1.409 . S
C2187 H2179 0.930 . S
C2187 C2188 1.355 . S
C2187 C2189 1.415 . S
C2188 C2187 1.355 . S
C2188 C2190 1.419 . S
C2189 C2184 1.425 . S
C2189 C2186 1.409 . S
C2189 C2187 1.415 . S
C2190 H2180 0.930 . S
C2190 C2188 1.419 . S
C2190 C2191 1.362 . S
C2191 H2181 0.930 . S
C2191 C2184 1.409 . S
C2191 C2190 1.362 . S
H2192 C2198 0.930 . S
H2193 C2201 0.930 . S
H2194 C2202 0.930 . S
H2195 C2203 0.930 . S
H2196 C2206 0.930 . S
H2197 C2207 0.930 . S
C2198 H2192 0.930 . S
C2198 C2199 1.355 . S
C2198 C2200 1.415 . S
C2199 C2198 1.355 . S
C2199 C2201 1.419 . S
C2200 C2198 1.415 . S
C2200 C2205 1.425 . S
C2200 C2207 1.409 . S
C2201 H2193 0.930 . S
C2201 C2199 1.419 . S
C2201 C2202 1.362 . S
C2202 H2194 0.930 . S
C2202 C2201 1.362 . S
C2202 C2205 1.409 . S
C2203 H2195 0.930 . S
C2203 C2204 1.355 . S
C2203 C2205 1.415 . S
C2204 C2203 1.355 . S
C2204 C2206 1.419 . S
C2205 C2200 1.425 . S
C2205 C2202 1.409 . S
C2205 C2203 1.415 . S
C2206 H2196 0.930 . S
C2206 C2204 1.419 . S
C2206 C2207 1.362 . S
C2207 H2197 0.930 . S
C2207 C2200 1.409 . S
C2207 C2206 1.362 . S
H2208 C2214 0.930 . S
H2209 C2217 0.930 . S
H2210 C2218 0.930 . S
H2211 C2219 0.930 . S
H2212 C2222 0.930 . S
H2213 C2223 0.930 . S
C2214 H2208 0.930 . S
C2214 C2215 1.355 . S
C2214 C2216 1.415 . S
C2215 C2214 1.355 . S
C2215 C2217 1.419 . S
C2216 C2214 1.415 . S
C2216 C2221 1.425 . S
C2216 C2223 1.409 . S
C2217 H2209 0.930 . S
C2217 C2215 1.419 . S
C2217 C2218 1.362 . S
C2218 H2210 0.930 . S
C2218 C2217 1.362 . S
C2218 C2221 1.409 . S
C2219 H2211 0.930 . S
C2219 C2220 1.355 . S
C2219 C2221 1.415 . S
C2220 C2219 1.355 . S
C2220 C2222 1.419 . S
C2221 C2216 1.425 . S
C2221 C2218 1.409 . S
C2221 C2219 1.415 . S
C2222 H2212 0.930 . S
C2222 C2220 1.419 . S
C2222 C2223 1.362 . S
C2223 H2213 0.930 . S
C2223 C2216 1.409 . S
C2223 C2222 1.362 . S
H2224 C2230 0.930 . S
H2225 C2233 0.930 . S
H2226 C2234 0.930 . S
H2227 C2235 0.930 . S
H2228 C2238 0.930 . S
H2229 C2239 0.930 . S
C2230 H2224 0.930 . S
C2230 C2231 1.355 . S
C2230 C2232 1.415 . S
C2231 C2230 1.355 . S
C2231 C2233 1.419 . S
C2232 C2230 1.415 . S
C2232 C2237 1.425 . S
C2232 C2239 1.409 . S
C2233 H2225 0.930 . S
C2233 C2231 1.419 . S
C2233 C2234 1.362 . S
C2234 H2226 0.930 . S
C2234 C2233 1.362 . S
C2234 C2237 1.409 . S
C2235 H2227 0.930 . S
C2235 C2236 1.355 . S
C2235 C2237 1.415 . S
C2236 C2235 1.355 . S
C2236 C2238 1.419 . S
C2237 C2232 1.425 . S
C2237 C2234 1.409 . S
C2237 C2235 1.415 . S
C2238 H2228 0.930 . S
C2238 C2236 1.419 . S
C2238 C2239 1.362 . S
C2239 H2229 0.930 . S
C2239 C2232 1.409 . S
C2239 C2238 1.362 . S
H2240 C2246 0.930 . S
H2241 C2249 0.930 . S
H2242 C2250 0.930 . S
H2243 C2251 0.930 . S
H2244 C2254 0.930 . S
H2245 C2255 0.930 . S
C2246 H2240 0.930 . S
C2246 C2247 1.355 . S
C2246 C2248 1.415 . S
C2247 C2246 1.355 . S
C2247 C2249 1.419 . S
C2248 C2246 1.415 . S
C2248 C2253 1.425 . S
C2248 C2255 1.409 . S
C2249 H2241 0.930 . S
C2249 C2247 1.419 . S
C2249 C2250 1.362 . S
C2250 H2242 0.930 . S
C2250 C2249 1.362 . S
C2250 C2253 1.409 . S
C2251 H2243 0.930 . S
C2251 C2252 1.355 . S
C2251 C2253 1.415 . S
C2252 C2251 1.355 . S
C2252 C2254 1.419 . S
C2253 C2248 1.425 . S
C2253 C2250 1.409 . S
C2253 C2251 1.415 . S
C2254 H2244 0.930 . S
C2254 C2252 1.419 . S
C2254 C2255 1.362 . S
C2255 H2245 0.930 . S
C2255 C2248 1.409 . S
C2255 C2254 1.362 . S
H2256 C2262 0.930 . S
H2257 C2265 0.930 . S
H2258 C2266 0.930 . S
H2259 C2267 0.930 . S
H2260 C2270 0.930 . S
H2261 C2271 0.930 . S
C2262 H2256 0.930 . S
C2262 C2263 1.355 . S
C2262 C2264 1.415 . S
C2263 C2262 1.355 . S
C2263 C2265 1.419 . S
C2264 C2262 1.415 . S
C2264 C2269 1.425 . S
C2264 C2271 1.409 . S
C2265 H2257 0.930 . S
C2265 C2263 1.419 . S
C2265 C2266 1.362 . S
C2266 H2258 0.930 . S
C2266 C2265 1.362 . S
C2266 C2269 1.409 . S
C2267 H2259 0.930 . S
C2267 C2268 1.355 . S
C2267 C2269 1.415 . S
C2268 C2267 1.355 . S
C2268 C2270 1.419 . S
C2269 C2264 1.425 . S
C2269 C2266 1.409 . S
C2269 C2267 1.415 . S
C2270 H2260 0.930 . S
C2270 C2268 1.419 . S
C2270 C2271 1.362 . S
C2271 H2261 0.930 . S
C2271 C2264 1.409 . S
C2271 C2270 1.362 . S
H2272 C2278 0.930 . S
H2273 C2281 0.930 . S
H2274 C2282 0.930 . S
H2275 C2283 0.930 . S
H2276 C2286 0.930 . S
H2277 C2287 0.930 . S
C2278 H2272 0.930 . S
C2278 C2279 1.355 . S
C2278 C2280 1.415 . S
C2279 C2278 1.355 . S
C2279 C2281 1.419 . S
C2280 C2278 1.415 . S
C2280 C2285 1.425 . S
C2280 C2287 1.409 . S
C2281 H2273 0.930 . S
C2281 C2279 1.419 . S
C2281 C2282 1.362 . S
C2282 H2274 0.930 . S
C2282 C2281 1.362 . S
C2282 C2285 1.409 . S
C2283 H2275 0.930 . S
C2283 C2284 1.355 . S
C2283 C2285 1.415 . S
C2284 C2283 1.355 . S
C2284 C2286 1.419 . S
C2285 C2280 1.425 . S
C2285 C2282 1.409 . S
C2285 C2283 1.415 . S
C2286 H2276 0.930 . S
C2286 C2284 1.419 . S
C2286 C2287 1.362 . S
C2287 H2277 0.930 . S
C2287 C2280 1.409 . S
C2287 C2286 1.362 . S
H2288 C2294 0.930 . S
H2289 C2297 0.930 . S
H2290 C2298 0.930 . S
H2291 C2299 0.930 . S
H2292 C2302 0.930 . S
H2293 C2303 0.930 . S
C2294 H2288 0.930 . S
C2294 C2295 1.355 . S
C2294 C2296 1.415 . S
C2295 C2294 1.355 . S
C2295 C2297 1.419 . S
C2296 C2294 1.415 . S
C2296 C2301 1.425 . S
C2296 C2303 1.409 . S
C2297 H2289 0.930 . S
C2297 C2295 1.419 . S
C2297 C2298 1.362 . S
C2298 H2290 0.930 . S
C2298 C2297 1.362 . S
C2298 C2301 1.409 . S
C2299 H2291 0.930 . S
C2299 C2300 1.355 . S
C2299 C2301 1.415 . S
C2300 C2299 1.355 . S
C2300 C2302 1.419 . S
C2301 C2296 1.425 . S
C2301 C2298 1.409 . S
C2301 C2299 1.415 . S
C2302 H2292 0.930 . S
C2302 C2300 1.419 . S
C2302 C2303 1.362 . S
C2303 H2293 0.930 . S
C2303 C2296 1.409 . S
C2303 C2302 1.362 . S
H2304 C2310 0.930 . S
H2305 C2313 0.930 . S
H2306 C2314 0.930 . S
H2307 C2315 0.930 . S
H2308 C2318 0.930 . S
H2309 C2319 0.930 . S
C2310 H2304 0.930 . S
C2310 C2311 1.355 . S
C2310 C2312 1.415 . S
C2311 C2310 1.355 . S
C2311 C2313 1.419 . S
C2312 C2310 1.415 . S
C2312 C2317 1.425 . S
C2312 C2319 1.409 . S
C2313 H2305 0.930 . S
C2313 C2311 1.419 . S
C2313 C2314 1.362 . S
C2314 H2306 0.930 . S
C2314 C2313 1.362 . S
C2314 C2317 1.409 . S
C2315 H2307 0.930 . S
C2315 C2316 1.355 . S
C2315 C2317 1.415 . S
C2316 C2315 1.355 . S
C2316 C2318 1.419 . S
C2317 C2312 1.425 . S
C2317 C2314 1.409 . S
C2317 C2315 1.415 . S
C2318 H2308 0.930 . S
C2318 C2316 1.419 . S
C2318 C2319 1.362 . S
C2319 H2309 0.930 . S
C2319 C2312 1.409 . S
C2319 C2318 1.362 . S
H2320 C2326 0.930 . S
H2321 C2329 0.930 . S
H2322 C2330 0.930 . S
H2323 C2331 0.930 . S
H2324 C2334 0.930 . S
H2325 C2335 0.930 . S
C2326 H2320 0.930 . S
C2326 C2327 1.355 . S
C2326 C2328 1.415 . S
C2327 C2326 1.355 . S
C2327 C2329 1.419 . S
C2328 C2326 1.415 . S
C2328 C2333 1.425 . S
C2328 C2335 1.409 . S
C2329 H2321 0.930 . S
C2329 C2327 1.419 . S
C2329 C2330 1.362 . S
C2330 H2322 0.930 . S
C2330 C2329 1.362 . S
C2330 C2333 1.409 . S
C2331 H2323 0.930 . S
C2331 C2332 1.355 . S
C2331 C2333 1.415 . S
C2332 C2331 1.355 . S
C2332 C2334 1.419 . S
C2333 C2328 1.425 . S
C2333 C2330 1.409 . S
C2333 C2331 1.415 . S
C2334 H2324 0.930 . S
C2334 C2332 1.419 . S
C2334 C2335 1.362 . S
C2335 H2325 0.930 . S
C2335 C2328 1.409 . S
C2335 C2334 1.362 . S
H2336 C2342 0.930 . S
H2337 C2345 0.930 . S
H2338 C2346 0.930 . S
H2339 C2347 0.930 . S
H2340 C2350 0.930 . S
H2341 C2351 0.930 . S
C2342 H2336 0.930 . S
C2342 C2343 1.355 . S
C2342 C2344 1.415 . S
C2343 C2342 1.355 . S
C2343 C2345 1.419 . S
C2344 C2342 1.415 . S
C2344 C2349 1.425 . S
C2344 C2351 1.409 . S
C2345 H2337 0.930 . S
C2345 C2343 1.419 . S
C2345 C2346 1.362 . S
C2346 H2338 0.930 . S
C2346 C2345 1.362 . S
C2346 C2349 1.409 . S
C2347 H2339 0.930 . S
C2347 C2348 1.355 . S
C2347 C2349 1.415 . S
C2348 C2347 1.355 . S
C2348 C2350 1.419 . S
C2349 C2344 1.425 . S
C2349 C2346 1.409 . S
C2349 C2347 1.415 . S
C2350 H2340 0.930 . S
C2350 C2348 1.419 . S
C2350 C2351 1.362 . S
C2351 H2341 0.930 . S
C2351 C2344 1.409 . S
C2351 C2350 1.362 . S
H2352 C2358 0.930 . S
H2353 C2361 0.930 . S
H2354 C2362 0.930 . S
H2355 C2363 0.930 . S
H2356 C2366 0.930 . S
H2357 C2367 0.930 . S
C2358 H2352 0.930 . S
C2358 C2359 1.355 . S
C2358 C2360 1.415 . S
C2359 C2358 1.355 . S
C2359 C2361 1.419 . S
C2360 C2358 1.415 . S
C2360 C2365 1.425 . S
C2360 C2367 1.409 . S
C2361 H2353 0.930 . S
C2361 C2359 1.419 . S
C2361 C2362 1.362 . S
C2362 H2354 0.930 . S
C2362 C2361 1.362 . S
C2362 C2365 1.409 . S
C2363 H2355 0.930 . S
C2363 C2364 1.355 . S
C2363 C2365 1.415 . S
C2364 C2363 1.355 . S
C2364 C2366 1.419 . S
C2365 C2360 1.425 . S
C2365 C2362 1.409 . S
C2365 C2363 1.415 . S
C2366 H2356 0.930 . S
C2366 C2364 1.419 . S
C2366 C2367 1.362 . S
C2367 H2357 0.930 . S
C2367 C2360 1.409 . S
C2367 C2366 1.362 . S
H2368 C2374 0.930 . S
H2369 C2377 0.930 . S
H2370 C2378 0.930 . S
H2371 C2379 0.930 . S
H2372 C2382 0.930 . S
H2373 C2383 0.930 . S
C2374 H2368 0.930 . S
C2374 C2375 1.355 . S
C2374 C2376 1.415 . S
C2375 C2374 1.355 . S
C2375 C2377 1.419 . S
C2376 C2374 1.415 . S
C2376 C2381 1.425 . S
C2376 C2383 1.409 . S
C2377 H2369 0.930 . S
C2377 C2375 1.419 . S
C2377 C2378 1.362 . S
C2378 H2370 0.930 . S
C2378 C2377 1.362 . S
C2378 C2381 1.409 . S
C2379 H2371 0.930 . S
C2379 C2380 1.355 . S
C2379 C2381 1.415 . S
C2380 C2379 1.355 . S
C2380 C2382 1.419 . S
C2381 C2376 1.425 . S
C2381 C2378 1.409 . S
C2381 C2379 1.415 . S
C2382 H2372 0.930 . S
C2382 C2380 1.419 . S
C2382 C2383 1.362 . S
C2383 H2373 0.930 . S
C2383 C2376 1.409 . S
C2383 C2382 1.362 . S
H2384 C2390 0.930 . S
H2385 C2393 0.930 . S
H2386 C2394 0.930 . S
H2387 C2395 0.930 . S
H2388 C2398 0.930 . S
H2389 C2399 0.930 . S
C2390 H2384 0.930 . S
C2390 C2391 1.355 . S
C2390 C2392 1.415 . S
C2391 C2390 1.355 . S
C2391 C2393 1.419 . S
C2392 C2390 1.415 . S
C2392 C2397 1.425 . S
C2392 C2399 1.409 . S
C2393 H2385 0.930 . S
C2393 C2391 1.419 . S
C2393 C2394 1.362 . S
C2394 H2386 0.930 . S
C2394 C2393 1.362 . S
C2394 C2397 1.409 . S
C2395 H2387 0.930 . S
C2395 C2396 1.355 . S
C2395 C2397 1.415 . S
C2396 C2395 1.355 . S
C2396 C2398 1.419 . S
C2397 C2392 1.425 . S
C2397 C2394 1.409 . S
C2397 C2395 1.415 . S
C2398 H2388 0.930 . S
C2398 C2396 1.419 . S
C2398 C2399 1.362 . S
C2399 H2389 0.930 . S
C2399 C2392 1.409 . S
C2399 C2398 1.362 . S
H2400 C2406 0.930 . S
H2401 C2409 0.930 . S
H2402 C2410 0.930 . S
H2403 C2411 0.930 . S
H2404 C2414 0.930 . S
H2405 C2415 0.930 . S
C2406 H2400 0.930 . S
C2406 C2407 1.355 . S
C2406 C2408 1.415 . S
C2407 C2406 1.355 . S
C2407 C2409 1.419 . S
C2408 C2406 1.415 . S
C2408 C2413 1.425 . S
C2408 C2415 1.409 . S
C2409 H2401 0.930 . S
C2409 C2407 1.419 . S
C2409 C2410 1.362 . S
C2410 H2402 0.930 . S
C2410 C2409 1.362 . S
C2410 C2413 1.409 . S
C2411 H2403 0.930 . S
C2411 C2412 1.355 . S
C2411 C2413 1.415 . S
C2412 C2411 1.355 . S
C2412 C2414 1.419 . S
C2413 C2408 1.425 . S
C2413 C2410 1.409 . S
C2413 C2411 1.415 . S
C2414 H2404 0.930 . S
C2414 C2412 1.419 . S
C2414 C2415 1.362 . S
C2415 H2405 0.930 . S
C2415 C2408 1.409 . S
C2415 C2414 1.362 . S
H2416 C2422 0.930 . S
H2417 C2425 0.930 . S
H2418 C2426 0.930 . S
H2419 C2427 0.930 . S
H2420 C2430 0.930 . S
H2421 C2431 0.930 . S
C2422 H2416 0.930 . S
C2422 C2423 1.355 . S
C2422 C2424 1.415 . S
C2423 C2422 1.355 . S
C2423 C2425 1.419 . S
C2424 C2422 1.415 . S
C2424 C2429 1.425 . S
C2424 C2431 1.409 . S
C2425 H2417 0.930 . S
C2425 C2423 1.419 . S
C2425 C2426 1.362 . S
C2426 H2418 0.930 . S
C2426 C2425 1.362 . S
C2426 C2429 1.409 . S
C2427 H2419 0.930 . S
C2427 C2428 1.355 . S
C2427 C2429 1.415 . S
C2428 C2427 1.355 . S
C2428 C2430 1.419 . S
C2429 C2424 1.425 . S
C2429 C2426 1.409 . S
C2429 C2427 1.415 . S
C2430 H2420 0.930 . S
C2430 C2428 1.419 . S
C2430 C2431 1.362 . S
C2431 H2421 0.930 . S
C2431 C2424 1.409 . S
C2431 C2430 1.362 . S
H2432 C2438 0.930 . S
H2433 C2441 0.930 . S
H2434 C2442 0.930 . S
H2435 C2443 0.930 . S
H2436 C2446 0.930 . S
H2437 C2447 0.930 . S
C2438 H2432 0.930 . S
C2438 C2439 1.355 . S
C2438 C2440 1.415 . S
C2439 C2438 1.355 . S
C2439 C2441 1.419 . S
C2440 C2438 1.415 . S
C2440 C2445 1.425 . S
C2440 C2447 1.409 . S
C2441 H2433 0.930 . S
C2441 C2439 1.419 . S
C2441 C2442 1.362 . S
C2442 H2434 0.930 . S
C2442 C2441 1.362 . S
C2442 C2445 1.409 . S
C2443 H2435 0.930 . S
C2443 C2444 1.355 . S
C2443 C2445 1.415 . S
C2444 C2443 1.355 . S
C2444 C2446 1.419 . S
C2445 C2440 1.425 . S
C2445 C2442 1.409 . S
C2445 C2443 1.415 . S
C2446 H2436 0.930 . S
C2446 C2444 1.419 . S
C2446 C2447 1.362 . S
C2447 H2437 0.930 . S
C2447 C2440 1.409 . S
C2447 C2446 1.362 . S
H2448 C2454 0.930 . S
H2449 C2457 0.930 . S
H2450 C2458 0.930 . S
H2451 C2459 0.930 . S
H2452 C2462 0.930 . S
H2453 C2463 0.930 . S
C2454 H2448 0.930 . S
C2454 C2455 1.355 . S
C2454 C2456 1.415 . S
C2455 C2454 1.355 . S
C2455 C2457 1.419 . S
C2456 C2454 1.415 . S
C2456 C2461 1.425 . S
C2456 C2463 1.409 . S
C2457 H2449 0.930 . S
C2457 C2455 1.419 . S
C2457 C2458 1.362 . S
C2458 H2450 0.930 . S
C2458 C2457 1.362 . S
C2458 C2461 1.409 . S
C2459 H2451 0.930 . S
C2459 C2460 1.355 . S
C2459 C2461 1.415 . S
C2460 C2459 1.355 . S
C2460 C2462 1.419 . S
C2461 C2456 1.425 . S
C2461 C2458 1.409 . S
C2461 C2459 1.415 . S
C2462 H2452 0.930 . S
C2462 C2460 1.419 . S
C2462 C2463 1.362 . S
C2463 H2453 0.930 . S
C2463 C2456 1.409 . S
C2463 C2462 1.362 . S
H2464 C2470 0.930 . S
H2465 C2473 0.930 . S
H2466 C2474 0.930 . S
H2467 C2475 0.930 . S
H2468 C2478 0.930 . S
H2469 C2479 0.930 . S
C2470 H2464 0.930 . S
C2470 C2471 1.355 . S
C2470 C2472 1.415 . S
C2471 C2470 1.355 . S
C2471 C2473 1.419 . S
C2472 C2470 1.415 . S
C2472 C2477 1.425 . S
C2472 C2479 1.409 . S
C2473 H2465 0.930 . S
C2473 C2471 1.419 . S
C2473 C2474 1.362 . S
C2474 H2466 0.930 . S
C2474 C2473 1.362 . S
C2474 C2477 1.409 . S
C2475 H2467 0.930 . S
C2475 C2476 1.355 . S
C2475 C2477 1.415 . S
C2476 C2475 1.355 . S
C2476 C2478 1.419 . S
C2477 C2472 1.425 . S
C2477 C2474 1.409 . S
C2477 C2475 1.415 . S
C2478 H2468 0.930 . S
C2478 C2476 1.419 . S
C2478 C2479 1.362 . S
C2479 H2469 0.930 . S
C2479 C2472 1.409 . S
C2479 C2478 1.362 . S
H2480 C2486 0.930 . S
H2481 C2489 0.930 . S
H2482 C2490 0.930 . S
H2483 C2491 0.930 . S
H2484 C2494 0.930 . S
H2485 C2495 0.930 . S
C2486 H2480 0.930 . S
C2486 C2487 1.355 . S
C2486 C2488 1.415 . S
C2487 C2486 1.355 . S
C2487 C2489 1.419 . S
C2488 C2486 1.415 . S
C2488 C2493 1.425 . S
C2488 C2495 1.409 . S
C2489 H2481 0.930 . S
C2489 C2487 1.419 . S
C2489 C2490 1.362 . S
C2490 H2482 0.930 . S
C2490 C2489 1.362 . S
C2490 C2493 1.409 . S
C2491 H2483 0.930 . S
C2491 C2492 1.355 . S
C2491 C2493 1.415 . S
C2492 C2491 1.355 . S
C2492 C2494 1.419 . S
C2493 C2488 1.425 . S
C2493 C2490 1.409 . S
C2493 C2491 1.415 . S
C2494 H2484 0.930 . S
C2494 C2492 1.419 . S
C2494 C2495 1.362 . S
C2495 H2485 0.930 . S
C2495 C2488 1.409 . S
C2495 C2494 1.362 . S
H2496 C2502 0.930 . S
H2497 C2505 0.930 . S
H2498 C2506 0.930 . S
H2499 C2507 0.930 . S
H2500 C2510 0.930 . S
H2501 C2511 0.930 . S
C2502 H2496 0.930 . S
C2502 C2503 1.355 . S
C2502 C2504 1.415 . S
C2503 C2502 1.355 . S
C2503 C2505 1.419 . S
C2504 C2502 1.415 . S
C2504 C2509 1.425 . S
C2504 C2511 1.409 . S
C2505 H2497 0.930 . S
C2505 C2503 1.419 . S
C2505 C2506 1.362 . S
C2506 H2498 0.930 . S
C2506 C2505 1.362 . S
C2506 C2509 1.409 . S
C2507 H2499 0.930 . S
C2507 C2508 1.355 . S
C2507 C2509 1.415 . S
C2508 C2507 1.355 . S
C2508 C2510 1.419 . S
C2509 C2504 1.425 . S
C2509 C2506 1.409 . S
C2509 C2507 1.415 . S
C2510 H2500 0.930 . S
C2510 C2508 1.419 . S
C2510 C2511 1.362 . S
C2511 H2501 0.930 . S
C2511 C2504 1.409 . S
C2511 C2510 1.362 . S
H2512 C2518 0.930 . S
H2513 C2521 0.930 . S
H2514 C2522 0.930 . S
H2515 C2523 0.930 . S
H2516 C2526 0.930 . S
H2517 C2527 0.930 . S
C2518 H2512 0.930 . S
C2518 C2519 1.355 . S
C2518 C2520 1.415 . S
C2519 C2518 1.355 . S
C2519 C2521 1.419 . S
C2520 C2518 1.415 . S
C2520 C2525 1.425 . S
C2520 C2527 1.409 . S
C2521 H2513 0.930 . S
C2521 C2519 1.419 . S
C2521 C2522 1.362 . S
C2522 H2514 0.930 . S
C2522 C2521 1.362 . S
C2522 C2525 1.409 . S
C2523 H2515 0.930 . S
C2523 C2524 1.355 . S
C2523 C2525 1.415 . S
C2524 C2523 1.355 . S
C2524 C2526 1.419 . S
C2525 C2520 1.425 . S
C2525 C2522 1.409 . S
C2525 C2523 1.415 . S
C2526 H2516 0.930 . S
C2526 C2524 1.419 . S
C2526 C2527 1.362 . S
C2527 H2517 0.930 . S
C2527 C2520 1.409 . S
C2527 C2526 1.362 . S
H2528 C2534 0.930 . S
H2529 C2537 0.930 . S
H2530 C2538 0.930 . S
H2531 C2539 0.930 . S
H2532 C2542 0.930 . S
H2533 C2543 0.930 . S
C2534 H2528 0.930 . S
C2534 C2535 1.355 . S
C2534 C2536 1.415 . S
C2535 C2534 1.355 . S
C2535 C2537 1.419 . S
C2536 C2534 1.415 . S
C2536 C2541 1.425 . S
C2536 C2543 1.409 . S
C2537 H2529 0.930 . S
C2537 C2535 1.419 . S
C2537 C2538 1.362 . S
C2538 H2530 0.930 . S
C2538 C2537 1.362 . S
C2538 C2541 1.409 . S
C2539 H2531 0.930 . S
C2539 C2540 1.355 . S
C2539 C2541 1.415 . S
C2540 C2539 1.355 . S
C2540 C2542 1.419 . S
C2541 C2536 1.425 . S
C2541 C2538 1.409 . S
C2541 C2539 1.415 . S
C2542 H2532 0.930 . S
C2542 C2540 1.419 . S
C2542 C2543 1.362 . S
C2543 H2533 0.930 . S
C2543 C2536 1.409 . S
C2543 C2542 1.362 . S
H2544 C2550 0.930 . S
H2545 C2553 0.943 . S
H2546 C2554 0.930 . S
H2547 C2555 0.930 . S
H2548 C2558 0.930 . S
H2549 C2559 0.930 . S
C2550 H2544 0.930 . S
C2550 C2551 1.355 . S
C2550 C2552 1.415 . S
C2551 C2550 1.355 . S
C2551 C2553 1.419 . S
C2552 C2550 1.415 . S
C2552 C2557 1.425 . S
C2552 C2559 1.409 . S
C2553 H2545 0.943 . S
C2553 C2551 1.419 . S
C2553 C2554 1.362 . S
C2554 H2546 0.930 . S
C2554 C2553 1.362 . S
C2554 C2557 1.409 . S
C2555 H2547 0.930 . S
C2555 C2556 1.355 . S
C2555 C2557 1.415 . S
C2556 C2555 1.355 . S
C2556 C2558 1.419 . S
C2557 C2552 1.425 . S
C2557 C2554 1.409 . S
C2557 C2555 1.415 . S
C2558 H2548 0.930 . S
C2558 C2556 1.419 . S
C2558 C2559 1.362 . S
C2559 H2549 0.930 . S
C2559 C2552 1.409 . S
C2559 C2558 1.362 . S
H2560 C2566 0.930 . S
H2561 C2569 0.930 . S
H2562 C2570 0.930 . S
H2563 C2571 0.930 . S
H2564 C2574 0.930 . S
H2565 C2575 0.930 . S
C2566 H2560 0.930 . S
C2566 C2567 1.355 . S
C2566 C2568 1.415 . S
C2567 C2566 1.355 . S
C2567 C2569 1.419 . S
C2568 C2566 1.415 . S
C2568 C2573 1.425 . S
C2568 C2575 1.409 . S
C2569 H2561 0.930 . S
C2569 C2567 1.419 . S
C2569 C2570 1.362 . S
C2570 H2562 0.930 . S
C2570 C2569 1.362 . S
C2570 C2573 1.409 . S
C2571 H2563 0.930 . S
C2571 C2572 1.355 . S
C2571 C2573 1.415 . S
C2572 C2571 1.355 . S
C2572 C2574 1.419 . S
C2573 C2568 1.425 . S
C2573 C2570 1.409 . S
C2573 C2571 1.415 . S
C2574 H2564 0.930 . S
C2574 C2572 1.419 . S
C2574 C2575 1.362 . S
C2575 H2565 0.930 . S
C2575 C2568 1.409 . S
C2575 C2574 1.362 . S
H2576 C2582 0.930 . S
H2577 C2585 0.930 . S
H2578 C2586 0.930 . S
H2579 C2587 0.930 . S
H2580 C2590 0.930 . S
H2581 C2591 0.930 . S
C2582 H2576 0.930 . S
C2582 C2583 1.355 . S
C2582 C2584 1.415 . S
C2583 C2582 1.355 . S
C2583 C2585 1.419 . S
C2584 C2582 1.415 . S
C2584 C2589 1.425 . S
C2584 C2591 1.409 . S
C2585 H2577 0.930 . S
C2585 C2583 1.419 . S
C2585 C2586 1.362 . S
C2586 H2578 0.930 . S
C2586 C2585 1.362 . S
C2586 C2589 1.409 . S
C2587 H2579 0.930 . S
C2587 C2588 1.355 . S
C2587 C2589 1.415 . S
C2588 C2587 1.355 . S
C2588 C2590 1.419 . S
C2589 C2584 1.425 . S
C2589 C2586 1.409 . S
C2589 C2587 1.415 . S
C2590 H2580 0.930 . S
C2590 C2588 1.419 . S
C2590 C2591 1.362 . S
C2591 H2581 0.930 . S
C2591 C2584 1.409 . S
C2591 C2590 1.362 . S
H2592 C2598 0.930 . S
H2593 C2601 0.930 . S
H2594 C2602 0.930 . S
H2595 C2603 0.930 . S
H2596 C2606 0.930 . S
H2597 C2607 0.930 . S
C2598 H2592 0.930 . S
C2598 C2599 1.355 . S
C2598 C2600 1.415 . S
C2599 C2598 1.355 . S
C2599 C2601 1.419 . S
C2600 C2598 1.415 . S
C2600 C2605 1.425 . S
C2600 C2607 1.409 . S
C2601 H2593 0.930 . S
C2601 C2599 1.419 . S
C2601 C2602 1.362 . S
C2602 H2594 0.930 . S
C2602 C2601 1.362 . S
C2602 C2605 1.409 . S
C2603 H2595 0.930 . S
C2603 C2604 1.355 . S
C2603 C2605 1.415 . S
C2604 C2603 1.355 . S
C2604 C2606 1.419 . S
C2605 C2600 1.425 . S
C2605 C2602 1.409 . S
C2605 C2603 1.415 . S
C2606 H2596 0.930 . S
C2606 C2604 1.419 . S
C2606 C2607 1.362 . S
C2607 H2597 0.930 . S
C2607 C2600 1.409 . S
C2607 C2606 1.362 . S
H2608 C2614 0.930 . S
H2609 C2617 0.930 . S
H2610 C2618 0.930 1_545 S
H2611 C2619 0.930 . S
H2612 C2622 0.930 . S
H2613 C2623 0.930 . S
C2614 H2608 0.930 . S
C2614 C2615 1.355 1_565 S
C2614 C2616 1.415 . S
C2615 C2614 1.355 1_545 S
C2615 C2617 1.419 . S
C2616 C2614 1.415 . S
C2616 C2621 1.425 . S
C2616 C2623 1.409 . S
C2617 H2609 0.930 . S
C2617 C2615 1.419 . S
C2617 C2618 1.362 1_545 S
C2618 H2610 0.930 1_565 S
C2618 C2617 1.362 1_565 S
C2618 C2621 1.409 . S
C2619 H2611 0.930 . S
C2619 C2620 1.355 . S
C2619 C2621 1.415 . S
C2620 C2619 1.355 . S
C2620 C2622 1.419 . S
C2621 C2616 1.425 . S
C2621 C2618 1.409 . S
C2621 C2619 1.415 . S
C2622 H2612 0.930 . S
C2622 C2620 1.419 . S
C2622 C2623 1.362 . S
C2623 H2613 0.930 . S
C2623 C2616 1.409 . S
C2623 C2622 1.362 . S
H2624 C2630 0.930 . S
H2625 C2633 0.930 . S
H2626 C2634 0.930 . S
H2627 C2635 0.930 . S
H2628 C2638 0.930 . S
H2629 C2639 0.930 . S
C2630 H2624 0.930 . S
C2630 C2631 1.355 . S
C2630 C2632 1.415 . S
C2631 C2630 1.355 . S
C2631 C2633 1.419 . S
C2632 C2630 1.415 . S
C2632 C2637 1.425 . S
C2632 C2639 1.409 . S
C2633 H2625 0.930 . S
C2633 C2631 1.419 . S
C2633 C2634 1.362 . S
C2634 H2626 0.930 . S
C2634 C2633 1.362 . S
C2634 C2637 1.409 . S
C2635 H2627 0.930 . S
C2635 C2636 1.355 . S
C2635 C2637 1.415 . S
C2636 C2635 1.355 . S
C2636 C2638 1.419 . S
C2637 C2632 1.425 . S
C2637 C2634 1.409 . S
C2637 C2635 1.415 . S
C2638 H2628 0.930 . S
C2638 C2636 1.419 . S
C2638 C2639 1.362 . S
C2639 H2629 0.930 . S
C2639 C2632 1.409 . S
C2639 C2638 1.362 . S
H2640 C2646 0.930 . S
H2641 C2649 0.930 . S
H2642 C2650 0.930 . S
H2643 C2651 0.930 . S
H2644 C2654 0.930 . S
H2645 C2655 0.930 . S
C2646 H2640 0.930 . S
C2646 C2647 1.355 . S
C2646 C2648 1.415 . S
C2647 C2646 1.355 . S
C2647 C2649 1.419 . S
C2648 C2646 1.415 . S
C2648 C2653 1.425 . S
C2648 C2655 1.409 . S
C2649 H2641 0.930 . S
C2649 C2647 1.419 . S
C2649 C2650 1.362 . S
C2650 H2642 0.930 . S
C2650 C2649 1.362 . S
C2650 C2653 1.409 . S
C2651 H2643 0.930 . S
C2651 C2652 1.355 . S
C2651 C2653 1.415 . S
C2652 C2651 1.355 . S
C2652 C2654 1.419 . S
C2653 C2648 1.425 . S
C2653 C2650 1.409 . S
C2653 C2651 1.415 . S
C2654 H2644 0.930 . S
C2654 C2652 1.419 . S
C2654 C2655 1.362 . S
C2655 H2645 0.930 . S
C2655 C2648 1.409 . S
C2655 C2654 1.362 . S
H2656 C2662 0.930 . S
H2657 C2665 0.930 . S
H2658 C2666 0.930 . S
H2659 C2667 0.930 . S
H2660 C2670 0.930 . S
H2661 C2671 0.930 . S
C2662 H2656 0.930 . S
C2662 C2663 1.355 . S
C2662 C2664 1.415 . S
C2663 C2662 1.355 . S
C2663 C2665 1.419 . S
C2664 C2662 1.415 . S
C2664 C2669 1.425 . S
C2664 C2671 1.409 . S
C2665 H2657 0.930 . S
C2665 C2663 1.419 . S
C2665 C2666 1.362 . S
C2666 H2658 0.930 . S
C2666 C2665 1.362 . S
C2666 C2669 1.409 . S
C2667 H2659 0.930 . S
C2667 C2668 1.355 . S
C2667 C2669 1.415 . S
C2668 C2667 1.355 . S
C2668 C2670 1.419 . S
C2669 C2664 1.425 . S
C2669 C2666 1.409 . S
C2669 C2667 1.415 . S
C2670 H2660 0.930 . S
C2670 C2668 1.419 . S
C2670 C2671 1.362 . S
C2671 H2661 0.930 . S
C2671 C2664 1.409 . S
C2671 C2670 1.362 . S
H2672 C2678 0.930 . S
H2673 C2681 0.930 . S
H2674 C2682 0.930 . S
H2675 C2683 0.930 . S
H2676 C2686 0.930 . S
H2677 C2687 0.930 . S
C2678 H2672 0.930 . S
C2678 C2679 1.355 . S
C2678 C2680 1.415 . S
C2679 C2678 1.355 . S
C2679 C2681 1.419 . S
C2680 C2678 1.415 . S
C2680 C2685 1.425 . S
C2680 C2687 1.409 . S
C2681 H2673 0.930 . S
C2681 C2679 1.419 . S
C2681 C2682 1.362 . S
C2682 H2674 0.930 . S
C2682 C2681 1.362 . S
C2682 C2685 1.409 . S
C2683 H2675 0.930 . S
C2683 C2684 1.355 . S
C2683 C2685 1.415 . S
C2684 C2683 1.355 . S
C2684 C2686 1.419 . S
C2685 C2680 1.425 . S
C2685 C2682 1.409 . S
C2685 C2683 1.415 . S
C2686 H2676 0.930 . S
C2686 C2684 1.419 . S
C2686 C2687 1.362 . S
C2687 H2677 0.930 . S
C2687 C2680 1.409 . S
C2687 C2686 1.362 . S
H2688 C2694 0.930 . S
H2689 C2697 0.930 1_545 S
H2690 C2698 0.930 . S
H2691 C2699 0.930 . S
H2692 C2702 0.930 . S
H2693 C2703 0.930 . S
C2694 H2688 0.930 . S
C2694 C2695 1.355 . S
C2694 C2696 1.415 . S
C2695 C2694 1.355 . S
C2695 C2697 1.419 . S
C2696 C2694 1.415 . S
C2696 C2701 1.425 . S
C2696 C2703 1.409 . S
C2697 H2689 0.930 1_565 S
C2697 C2695 1.419 . S
C2697 C2698 1.362 . S
C2698 H2690 0.930 . S
C2698 C2697 1.362 . S
C2698 C2701 1.409 . S
C2699 H2691 0.930 . S
C2699 C2700 1.355 . S
C2699 C2701 1.415 . S
C2700 C2699 1.355 . S
C2700 C2702 1.419 . S
C2701 C2696 1.425 . S
C2701 C2698 1.409 . S
C2701 C2699 1.415 . S
C2702 H2692 0.930 . S
C2702 C2700 1.419 . S
C2702 C2703 1.362 . S
C2703 H2693 0.930 . S
C2703 C2696 1.409 . S
C2703 C2702 1.362 . S
H2704 C2710 0.930 . S
H2705 C2713 0.930 . S
H2706 C2714 0.930 . S
H2707 C2715 0.930 . S
H2708 C2718 0.930 . S
H2709 C2719 0.930 . S
C2710 H2704 0.930 . S
C2710 C2711 1.355 . S
C2710 C2712 1.415 . S
C2711 C2710 1.355 . S
C2711 C2713 1.419 . S
C2712 C2710 1.415 . S
C2712 C2717 1.425 . S
C2712 C2719 1.409 . S
C2713 H2705 0.930 . S
C2713 C2711 1.419 . S
C2713 C2714 1.362 . S
C2714 H2706 0.930 . S
C2714 C2713 1.362 . S
C2714 C2717 1.409 . S
C2715 H2707 0.930 . S
C2715 C2716 1.355 . S
C2715 C2717 1.415 . S
C2716 C2715 1.355 . S
C2716 C2718 1.419 . S
C2717 C2712 1.425 . S
C2717 C2714 1.409 . S
C2717 C2715 1.415 . S
C2718 H2708 0.930 . S
C2718 C2716 1.419 . S
C2718 C2719 1.362 . S
C2719 H2709 0.930 . S
C2719 C2712 1.409 . S
C2719 C2718 1.362 . S
H2720 C2726 0.930 . S
H2721 C2729 0.930 . S
H2722 C2730 0.930 . S
H2723 C2731 0.930 . S
H2724 C2734 0.930 . S
H2725 C2735 0.930 . S
C2726 H2720 0.930 . S
C2726 C2727 1.355 . S
C2726 C2728 1.415 . S
C2727 C2726 1.355 . S
C2727 C2729 1.419 . S
C2728 C2726 1.415 . S
C2728 C2733 1.425 . S
C2728 C2735 1.409 . S
C2729 H2721 0.930 . S
C2729 C2727 1.419 . S
C2729 C2730 1.362 . S
C2730 H2722 0.930 . S
C2730 C2729 1.362 . S
C2730 C2733 1.409 . S
C2731 H2723 0.930 . S
C2731 C2732 1.355 . S
C2731 C2733 1.415 . S
C2732 C2731 1.355 . S
C2732 C2734 1.419 . S
C2733 C2728 1.425 . S
C2733 C2730 1.409 . S
C2733 C2731 1.415 . S
C2734 H2724 0.930 . S
C2734 C2732 1.419 . S
C2734 C2735 1.362 . S
C2735 H2725 0.930 . S
C2735 C2728 1.409 . S
C2735 C2734 1.362 . S
H2736 C2742 0.930 . S
H2737 C2745 0.930 . S
H2738 C2746 0.930 . S
H2739 C2747 0.930 . S
H2740 C2750 0.930 . S
H2741 C2751 0.930 . S
C2742 H2736 0.930 . S
C2742 C2743 1.355 . S
C2742 C2744 1.415 . S
C2743 C2742 1.355 . S
C2743 C2745 1.419 . S
C2744 C2742 1.415 . S
C2744 C2749 1.425 . S
C2744 C2751 1.409 . S
C2745 H2737 0.930 . S
C2745 C2743 1.419 . S
C2745 C2746 1.362 . S
C2746 H2738 0.930 . S
C2746 C2745 1.362 . S
C2746 C2749 1.409 . S
C2747 H2739 0.930 . S
C2747 C2748 1.355 . S
C2747 C2749 1.415 . S
C2748 C2747 1.355 . S
C2748 C2750 1.419 . S
C2749 C2744 1.425 . S
C2749 C2746 1.409 . S
C2749 C2747 1.415 . S
C2750 H2740 0.930 . S
C2750 C2748 1.419 . S
C2750 C2751 1.362 . S
C2751 H2741 0.930 . S
C2751 C2744 1.409 . S
C2751 C2750 1.362 . S
H2752 C2758 0.930 . S
H2753 C2761 0.930 . S
H2754 C2762 0.930 . S
H2755 C2763 0.930 . S
H2756 C2766 0.930 . S
H2757 C2767 0.930 . S
C2758 H2752 0.930 . S
C2758 C2759 1.355 . S
C2758 C2760 1.415 . S
C2759 C2758 1.355 . S
C2759 C2761 1.419 . S
C2760 C2758 1.415 . S
C2760 C2765 1.425 . S
C2760 C2767 1.409 . S
C2761 H2753 0.930 . S
C2761 C2759 1.419 . S
C2761 C2762 1.362 . S
C2762 H2754 0.930 . S
C2762 C2761 1.362 . S
C2762 C2765 1.409 . S
C2763 H2755 0.930 . S
C2763 C2764 1.355 . S
C2763 C2765 1.415 . S
C2764 C2763 1.355 . S
C2764 C2766 1.419 . S
C2765 C2760 1.425 . S
C2765 C2762 1.409 . S
C2765 C2763 1.415 . S
C2766 H2756 0.930 . S
C2766 C2764 1.419 . S
C2766 C2767 1.362 . S
C2767 H2757 0.930 . S
C2767 C2760 1.409 . S
C2767 C2766 1.362 . S
H2768 C2774 0.930 . S
H2769 C2777 0.930 . S
H2770 C2778 0.930 . S
H2771 C2779 0.930 . S
H2772 C2782 0.930 . S
H2773 C2783 0.930 . S
C2774 H2768 0.930 . S
C2774 C2775 1.355 . S
C2774 C2776 1.415 . S
C2775 C2774 1.355 . S
C2775 C2777 1.419 . S
C2776 C2774 1.415 . S
C2776 C2781 1.425 . S
C2776 C2783 1.409 . S
C2777 H2769 0.930 . S
C2777 C2775 1.419 . S
C2777 C2778 1.362 . S
C2778 H2770 0.930 . S
C2778 C2777 1.362 . S
C2778 C2781 1.409 . S
C2779 H2771 0.930 . S
C2779 C2780 1.355 . S
C2779 C2781 1.415 . S
C2780 C2779 1.355 . S
C2780 C2782 1.419 . S
C2781 C2776 1.425 . S
C2781 C2778 1.409 . S
C2781 C2779 1.415 . S
C2782 H2772 0.930 . S
C2782 C2780 1.419 . S
C2782 C2783 1.362 . S
C2783 H2773 0.930 . S
C2783 C2776 1.409 . S
C2783 C2782 1.362 . S
H2784 C2790 0.902 1_554 S
H2785 C2793 0.930 . S
H2786 C2794 0.930 . S
H2787 C2795 0.930 . S
H2788 C2798 0.930 . S
H2789 C2799 0.930 . S
C2790 H2784 0.902 1_556 S
C2790 C2791 1.355 . S
C2790 C2792 1.415 . S
C2791 C2790 1.355 . S
C2791 C2793 1.419 . S
C2792 C2790 1.415 . S
C2792 C2797 1.425 . S
C2792 C2799 1.409 . S
C2793 H2785 0.930 . S
C2793 C2791 1.419 . S
C2793 C2794 1.362 . S
C2794 H2786 0.930 . S
C2794 C2793 1.362 . S
C2794 C2797 1.409 . S
C2795 H2787 0.930 . S
C2795 C2796 1.355 . S
C2795 C2797 1.415 . S
C2796 C2795 1.355 . S
C2796 C2798 1.419 . S
C2797 C2792 1.425 . S
C2797 C2794 1.409 . S
C2797 C2795 1.415 . S
C2798 H2788 0.930 . S
C2798 C2796 1.419 . S
C2798 C2799 1.362 . S
C2799 H2789 0.930 . S
C2799 C2792 1.409 . S
C2799 C2798 1.362 . S
H2800 C2806 0.930 1_554 S
H2801 C2809 0.930 . S
H2802 C2810 0.930 . S
H2803 C2811 0.930 . S
H2804 C2814 0.930 . S
H2805 C2815 0.930 . S
C2806 H2800 0.930 1_556 S
C2806 C2807 1.355 . S
C2806 C2808 1.415 . S
C2807 C2806 1.355 . S
C2807 C2809 1.419 . S
C2808 C2806 1.415 . S
C2808 C2813 1.425 . S
C2808 C2815 1.409 . S
C2809 H2801 0.930 . S
C2809 C2807 1.419 . S
C2809 C2810 1.362 . S
C2810 H2802 0.930 . S
C2810 C2809 1.362 . S
C2810 C2813 1.409 . S
C2811 H2803 0.930 . S
C2811 C2812 1.355 . S
C2811 C2813 1.415 . S
C2812 C2811 1.355 . S
C2812 C2814 1.419 . S
C2813 C2808 1.425 . S
C2813 C2810 1.409 . S
C2813 C2811 1.415 . S
C2814 H2804 0.930 . S
C2814 C2812 1.419 . S
C2814 C2815 1.362 . S
C2815 H2805 0.930 . S
C2815 C2808 1.409 . S
C2815 C2814 1.362 . S
H2816 C2822 0.930 . S
H2817 C2825 0.930 . S
H2818 C2826 0.930 . S
H2819 C2827 0.930 . S
H2820 C2830 0.930 . S
H2821 C2831 0.930 . S
C2822 H2816 0.930 . S
C2822 C2823 1.355 . S
C2822 C2824 1.415 . S
C2823 C2822 1.355 . S
C2823 C2825 1.419 . S
C2824 C2822 1.415 . S
C2824 C2829 1.425 . S
C2824 C2831 1.409 . S
C2825 H2817 0.930 . S
C2825 C2823 1.419 . S
C2825 C2826 1.362 . S
C2826 H2818 0.930 . S
C2826 C2825 1.362 . S
C2826 C2829 1.409 . S
C2827 H2819 0.930 . S
C2827 C2828 1.355 . S
C2827 C2829 1.415 . S
C2828 C2827 1.355 . S
C2828 C2830 1.419 . S
C2829 C2824 1.425 . S
C2829 C2826 1.409 . S
C2829 C2827 1.415 . S
C2830 H2820 0.930 . S
C2830 C2828 1.419 . S
C2830 C2831 1.362 . S
C2831 H2821 0.930 . S
C2831 C2824 1.409 . S
C2831 C2830 1.362 . S
H2832 C2838 0.930 . S
H2833 C2841 0.930 . S
H2834 C2842 0.930 . S
H2835 C2843 0.930 . S
H2836 C2846 0.930 . S
H2837 C2847 0.930 . S
C2838 H2832 0.930 . S
C2838 C2839 1.355 . S
C2838 C2840 1.415 . S
C2839 C2838 1.355 . S
C2839 C2841 1.419 . S
C2840 C2838 1.415 . S
C2840 C2845 1.425 . S
C2840 C2847 1.409 . S
C2841 H2833 0.930 . S
C2841 C2839 1.419 . S
C2841 C2842 1.362 . S
C2842 H2834 0.930 . S
C2842 C2841 1.362 . S
C2842 C2845 1.409 . S
C2843 H2835 0.930 . S
C2843 C2844 1.355 . S
C2843 C2845 1.415 . S
C2844 C2843 1.355 . S
C2844 C2846 1.419 . S
C2845 C2840 1.425 . S
C2845 C2842 1.409 . S
C2845 C2843 1.415 . S
C2846 H2836 0.930 . S
C2846 C2844 1.419 . S
C2846 C2847 1.362 . S
C2847 H2837 0.930 . S
C2847 C2840 1.409 . S
C2847 C2846 1.362 . S
H2848 C2854 0.930 . S
H2849 C2857 0.930 . S
H2850 C2858 0.930 . S
H2851 C2859 0.930 . S
H2852 C2862 0.930 . S
H2853 C2863 0.930 . S
C2854 H2848 0.930 . S
C2854 C2855 1.355 . S
C2854 C2856 1.415 . S
C2855 C2854 1.355 . S
C2855 C2857 1.419 . S
C2856 C2854 1.415 . S
C2856 C2861 1.425 . S
C2856 C2863 1.409 . S
C2857 H2849 0.930 . S
C2857 C2855 1.419 . S
C2857 C2858 1.362 . S
C2858 H2850 0.930 . S
C2858 C2857 1.362 . S
C2858 C2861 1.409 . S
C2859 H2851 0.930 . S
C2859 C2860 1.355 . S
C2859 C2861 1.415 . S
C2860 C2859 1.355 . S
C2860 C2862 1.419 . S
C2861 C2856 1.425 . S
C2861 C2858 1.409 . S
C2861 C2859 1.415 . S
C2862 H2852 0.930 . S
C2862 C2860 1.419 . S
C2862 C2863 1.362 . S
C2863 H2853 0.930 . S
C2863 C2856 1.409 . S
C2863 C2862 1.362 . S
H2864 C2870 0.930 . S
H2865 C2873 0.930 . S
H2866 C2874 0.930 . S
H2867 C2875 0.930 . S
H2868 C2878 0.930 . S
H2869 C2879 0.930 . S
C2870 H2864 0.930 . S
C2870 C2871 1.355 . S
C2870 C2872 1.415 . S
C2871 C2870 1.355 . S
C2871 C2873 1.419 . S
C2872 C2870 1.415 . S
C2872 C2877 1.425 . S
C2872 C2879 1.409 . S
C2873 H2865 0.930 . S
C2873 C2871 1.419 . S
C2873 C2874 1.362 . S
C2874 H2866 0.930 . S
C2874 C2873 1.362 . S
C2874 C2877 1.409 . S
C2875 H2867 0.930 . S
C2875 C2876 1.355 . S
C2875 C2877 1.415 . S
C2876 C2875 1.355 . S
C2876 C2878 1.419 . S
C2877 C2872 1.425 . S
C2877 C2874 1.409 . S
C2877 C2875 1.415 . S
C2878 H2868 0.930 . S
C2878 C2876 1.419 . S
C2878 C2879 1.362 . S
C2879 H2869 0.930 . S
C2879 C2872 1.409 . S
C2879 C2878 1.362 . S
H2880 C2886 0.930 . S
H2881 C2889 0.930 1_455 S
H2882 C2890 0.930 . S
H2883 C2891 0.930 . S
H2884 C2894 0.930 . S
H2885 C2895 0.930 . S
C2886 H2880 0.930 . S
C2886 C2887 1.355 . S
C2886 C2888 1.415 . S
C2887 C2886 1.355 . S
C2887 C2889 1.419 . S
C2888 C2886 1.415 . S
C2888 C2893 1.425 . S
C2888 C2895 1.409 . S
C2889 H2881 0.930 1_655 S
C2889 C2887 1.419 . S
C2889 C2890 1.362 . S
C2890 H2882 0.930 . S
C2890 C2889 1.362 . S
C2890 C2893 1.409 . S
C2891 H2883 0.930 . S
C2891 C2892 1.355 . S
C2891 C2893 1.415 . S
C2892 C2891 1.355 . S
C2892 C2894 1.419 . S
C2893 C2888 1.425 . S
C2893 C2890 1.409 . S
C2893 C2891 1.415 . S
C2894 H2884 0.930 . S
C2894 C2892 1.419 . S
C2894 C2895 1.362 . S
C2895 H2885 0.930 . S
C2895 C2888 1.409 . S
C2895 C2894 1.362 . S
H2896 C2902 0.930 . S
H2897 C2905 0.930 . S
H2898 C2906 0.930 . S
H2899 C2907 0.930 . S
H2900 C2910 0.930 . S
H2901 C2911 0.930 . S
C2902 H2896 0.930 . S
C2902 C2903 1.355 . S
C2902 C2904 1.415 . S
C2903 C2902 1.355 . S
C2903 C2905 1.419 . S
C2904 C2902 1.415 . S
C2904 C2909 1.425 . S
C2904 C2911 1.409 . S
C2905 H2897 0.930 . S
C2905 C2903 1.419 . S
C2905 C2906 1.362 . S
C2906 H2898 0.930 . S
C2906 C2905 1.362 . S
C2906 C2909 1.409 . S
C2907 H2899 0.930 . S
C2907 C2908 1.355 . S
C2907 C2909 1.415 . S
C2908 C2907 1.355 . S
C2908 C2910 1.419 . S
C2909 C2904 1.425 . S
C2909 C2906 1.409 . S
C2909 C2907 1.415 . S
C2910 H2900 0.930 . S
C2910 C2908 1.419 . S
C2910 C2911 1.362 . S
C2911 H2901 0.930 . S
C2911 C2904 1.409 . S
C2911 C2910 1.362 . S
H2912 C2918 0.930 . S
H2913 C2921 0.930 . S
H2914 C2922 0.930 . S
H2915 C2923 0.930 . S
H2916 C2926 0.930 . S
H2917 C2927 0.930 . S
C2918 H2912 0.930 . S
C2918 C2919 1.355 . S
C2918 C2920 1.415 . S
C2919 C2918 1.355 . S
C2919 C2921 1.419 . S
C2920 C2918 1.415 . S
C2920 C2925 1.425 . S
C2920 C2927 1.409 . S
C2921 H2913 0.930 . S
C2921 C2919 1.419 . S
C2921 C2922 1.362 . S
C2922 H2914 0.930 . S
C2922 C2921 1.362 . S
C2922 C2925 1.409 . S
C2923 H2915 0.930 . S
C2923 C2924 1.355 . S
C2923 C2925 1.415 . S
C2924 C2923 1.355 . S
C2924 C2926 1.419 . S
C2925 C2920 1.425 . S
C2925 C2922 1.409 . S
C2925 C2923 1.415 . S
C2926 H2916 0.930 . S
C2926 C2924 1.419 . S
C2926 C2927 1.362 . S
C2927 H2917 0.930 . S
C2927 C2920 1.409 . S
C2927 C2926 1.362 . S
H2928 C2934 0.930 . S
H2929 C2937 0.930 . S
H2930 C2938 0.930 . S
H2931 C2939 0.930 . S
H2932 C2942 0.930 . S
H2933 C2943 0.930 . S
C2934 H2928 0.930 . S
C2934 C2935 1.355 . S
C2934 C2936 1.415 . S
C2935 C2934 1.355 . S
C2935 C2937 1.419 . S
C2936 C2934 1.415 . S
C2936 C2941 1.425 . S
C2936 C2943 1.409 . S
C2937 H2929 0.930 . S
C2937 C2935 1.419 . S
C2937 C2938 1.362 . S
C2938 H2930 0.930 . S
C2938 C2937 1.362 . S
C2938 C2941 1.409 . S
C2939 H2931 0.930 . S
C2939 C2940 1.355 . S
C2939 C2941 1.415 . S
C2940 C2939 1.355 . S
C2940 C2942 1.419 . S
C2941 C2936 1.425 . S
C2941 C2938 1.409 . S
C2941 C2939 1.415 . S
C2942 H2932 0.930 . S
C2942 C2940 1.419 . S
C2942 C2943 1.362 . S
C2943 H2933 0.930 . S
C2943 C2936 1.409 . S
C2943 C2942 1.362 . S
H2944 C2950 0.930 . S
H2945 C2953 0.930 . S
H2946 C2954 0.930 . S
H2947 C2955 0.930 . S
H2948 C2958 0.930 . S
H2949 C2959 0.930 . S
C2950 H2944 0.930 . S
C2950 C2951 1.355 . S
C2950 C2952 1.415 . S
C2951 C2950 1.355 . S
C2951 C2953 1.419 . S
C2952 C2950 1.415 . S
C2952 C2957 1.425 . S
C2952 C2959 1.409 . S
C2953 H2945 0.930 . S
C2953 C2951 1.419 . S
C2953 C2954 1.362 . S
C2954 H2946 0.930 . S
C2954 C2953 1.362 . S
C2954 C2957 1.409 . S
C2955 H2947 0.930 . S
C2955 C2956 1.355 . S
C2955 C2957 1.415 . S
C2956 C2955 1.355 . S
C2956 C2958 1.419 . S
C2957 C2952 1.425 . S
C2957 C2954 1.409 . S
C2957 C2955 1.415 . S
C2958 H2948 0.930 . S
C2958 C2956 1.419 . S
C2958 C2959 1.362 . S
C2959 H2949 0.930 . S
C2959 C2952 1.409 . S
C2959 C2958 1.362 . S
H2960 C2966 0.930 . S
H2961 C2969 0.930 . S
H2962 C2970 0.930 . S
H2963 C2971 0.930 . S
H2964 C2974 0.930 . S
H2965 C2975 0.930 . S
C2966 H2960 0.930 . S
C2966 C2967 1.355 . S
C2966 C2968 1.415 . S
C2967 C2966 1.355 . S
C2967 C2969 1.419 . S
C2968 C2966 1.415 . S
C2968 C2973 1.425 . S
C2968 C2975 1.409 . S
C2969 H2961 0.930 . S
C2969 C2967 1.419 . S
C2969 C2970 1.362 . S
C2970 H2962 0.930 . S
C2970 C2969 1.362 . S
C2970 C2973 1.409 . S
C2971 H2963 0.930 . S
C2971 C2972 1.355 . S
C2971 C2973 1.415 . S
C2972 C2971 1.355 . S
C2972 C2974 1.419 . S
C2973 C2968 1.425 . S
C2973 C2970 1.409 . S
C2973 C2971 1.415 . S
C2974 H2964 0.930 . S
C2974 C2972 1.419 . S
C2974 C2975 1.362 . S
C2975 H2965 0.930 . S
C2975 C2968 1.409 . S
C2975 C2974 1.362 . S
H2976 C2982 0.930 . S
H2977 C2985 0.930 . S
H2978 C2986 0.930 . S
H2979 C2987 0.930 . S
H2980 C2990 0.930 . S
H2981 C2991 0.930 . S
C2982 H2976 0.930 . S
C2982 C2983 1.355 . S
C2982 C2984 1.415 . S
C2983 C2982 1.355 . S
C2983 C2985 1.419 . S
C2984 C2982 1.415 . S
C2984 C2989 1.425 . S
C2984 C2991 1.409 . S
C2985 H2977 0.930 . S
C2985 C2983 1.419 . S
C2985 C2986 1.362 . S
C2986 H2978 0.930 . S
C2986 C2985 1.362 . S
C2986 C2989 1.409 . S
C2987 H2979 0.930 . S
C2987 C2988 1.355 . S
C2987 C2989 1.415 . S
C2988 C2987 1.355 . S
C2988 C2990 1.419 . S
C2989 C2984 1.425 . S
C2989 C2986 1.409 . S
C2989 C2987 1.415 . S
C2990 H2980 0.930 . S
C2990 C2988 1.419 . S
C2990 C2991 1.362 . S
C2991 H2981 0.930 . S
C2991 C2984 1.409 . S
C2991 C2990 1.362 . S
H2992 C2998 0.930 . S
H2993 C3001 0.930 . S
H2994 C3002 0.930 . S
H2995 C3003 0.930 . S
H2996 C3006 0.930 . S
H2997 C3007 0.930 . S
C2998 H2992 0.930 . S
C2998 C2999 1.355 . S
C2998 C3000 1.415 . S
C2999 C2998 1.355 . S
C2999 C3001 1.419 . S
C3000 C2998 1.415 . S
C3000 C3005 1.425 . S
C3000 C3007 1.409 . S
C3001 H2993 0.930 . S
C3001 C2999 1.419 . S
C3001 C3002 1.362 . S
C3002 H2994 0.930 . S
C3002 C3001 1.362 . S
C3002 C3005 1.409 . S
C3003 H2995 0.930 . S
C3003 C3004 1.355 . S
C3003 C3005 1.415 . S
C3004 C3003 1.355 . S
C3004 C3006 1.419 . S
C3005 C3000 1.425 . S
C3005 C3002 1.409 . S
C3005 C3003 1.415 . S
C3006 H2996 0.930 . S
C3006 C3004 1.419 . S
C3006 C3007 1.362 . S
C3007 H2997 0.930 . S
C3007 C3000 1.409 . S
C3007 C3006 1.362 . S
H3008 C3014 0.930 . S
H3009 C3017 0.930 . S
H3010 C3018 0.930 . S
H3011 C3019 0.930 . S
H3012 C3022 0.930 . S
H3013 C3023 0.930 . S
C3014 H3008 0.930 . S
C3014 C3015 1.355 . S
C3014 C3016 1.415 . S
C3015 C3014 1.355 . S
C3015 C3017 1.419 . S
C3016 C3014 1.415 . S
C3016 C3021 1.425 . S
C3016 C3023 1.409 . S
C3017 H3009 0.930 . S
C3017 C3015 1.419 . S
C3017 C3018 1.362 . S
C3018 H3010 0.930 . S
C3018 C3017 1.362 . S
C3018 C3021 1.409 . S
C3019 H3011 0.930 . S
C3019 C3020 1.355 . S
C3019 C3021 1.415 . S
C3020 C3019 1.355 . S
C3020 C3022 1.419 . S
C3021 C3016 1.425 . S
C3021 C3018 1.409 . S
C3021 C3019 1.415 . S
C3022 H3012 0.930 . S
C3022 C3020 1.419 . S
C3022 C3023 1.362 . S
C3023 H3013 0.930 . S
C3023 C3016 1.409 . S
C3023 C3022 1.362 . S
H3024 C3030 0.930 . S
H3025 C3033 0.930 . S
H3026 C3034 0.930 . S
H3027 C3035 0.930 . S
H3028 C3038 0.930 . S
H3029 C3039 0.930 . S
C3030 H3024 0.930 . S
C3030 C3031 1.355 . S
C3030 C3032 1.415 . S
C3031 C3030 1.355 . S
C3031 C3033 1.419 . S
C3032 C3030 1.415 . S
C3032 C3037 1.425 . S
C3032 C3039 1.409 . S
C3033 H3025 0.930 . S
C3033 C3031 1.419 . S
C3033 C3034 1.362 . S
C3034 H3026 0.930 . S
C3034 C3033 1.362 . S
C3034 C3037 1.409 . S
C3035 H3027 0.930 . S
C3035 C3036 1.355 . S
C3035 C3037 1.415 . S
C3036 C3035 1.355 . S
C3036 C3038 1.419 . S
C3037 C3032 1.425 . S
C3037 C3034 1.409 . S
C3037 C3035 1.415 . S
C3038 H3028 0.930 . S
C3038 C3036 1.419 . S
C3038 C3039 1.362 . S
C3039 H3029 0.930 . S
C3039 C3032 1.409 . S
C3039 C3038 1.362 . S
H3040 C3046 0.930 . S
H3041 C3049 0.930 . S
H3042 C3050 0.930 . S
H3043 C3051 0.930 . S
H3044 C3054 0.930 . S
H3045 C3055 0.930 . S
C3046 H3040 0.930 . S
C3046 C3047 1.355 . S
C3046 C3048 1.415 . S
C3047 C3046 1.355 . S
C3047 C3049 1.419 . S
C3048 C3046 1.415 . S
C3048 C3053 1.425 . S
C3048 C3055 1.409 . S
C3049 H3041 0.930 . S
C3049 C3047 1.419 . S
C3049 C3050 1.362 . S
C3050 H3042 0.930 . S
C3050 C3049 1.362 . S
C3050 C3053 1.409 . S
C3051 H3043 0.930 . S
C3051 C3052 1.355 . S
C3051 C3053 1.415 . S
C3052 C3051 1.355 . S
C3052 C3054 1.419 . S
C3053 C3048 1.425 . S
C3053 C3050 1.409 . S
C3053 C3051 1.415 . S
C3054 H3044 0.930 . S
C3054 C3052 1.419 . S
C3054 C3055 1.362 . S
C3055 H3045 0.930 . S
C3055 C3048 1.409 . S
C3055 C3054 1.362 . S
H3056 C3062 0.930 . S
H3057 C3065 0.930 . S
H3058 C3066 0.930 . S
H3059 C3067 0.930 . S
H3060 C3070 0.930 . S
H3061 C3071 0.930 . S
C3062 H3056 0.930 . S
C3062 C3063 1.355 . S
C3062 C3064 1.415 . S
C3063 C3062 1.355 . S
C3063 C3065 1.419 . S
C3064 C3062 1.415 . S
C3064 C3069 1.425 . S
C3064 C3071 1.409 . S
C3065 H3057 0.930 . S
C3065 C3063 1.419 . S
C3065 C3066 1.362 . S
C3066 H3058 0.930 . S
C3066 C3065 1.362 . S
C3066 C3069 1.409 . S
C3067 H3059 0.930 . S
C3067 C3068 1.355 . S
C3067 C3069 1.415 . S
C3068 C3067 1.355 . S
C3068 C3070 1.419 . S
C3069 C3064 1.425 . S
C3069 C3066 1.409 . S
C3069 C3067 1.415 . S
C3070 H3060 0.930 . S
C3070 C3068 1.419 . S
C3070 C3071 1.362 . S
C3071 H3061 0.930 . S
C3071 C3064 1.409 . S
C3071 C3070 1.362 . S
H3072 C3078 0.930 . S
H3073 C3081 0.930 . S
H3074 C3082 0.930 . S
H3075 C3083 0.930 . S
H3076 C3086 0.930 . S
H3077 C3087 0.930 . S
C3078 H3072 0.930 . S
C3078 C3079 1.355 . S
C3078 C3080 1.415 . S
C3079 C3078 1.355 . S
C3079 C3081 1.419 . S
C3080 C3078 1.415 . S
C3080 C3085 1.425 . S
C3080 C3087 1.409 . S
C3081 H3073 0.930 . S
C3081 C3079 1.419 . S
C3081 C3082 1.362 . S
C3082 H3074 0.930 . S
C3082 C3081 1.362 . S
C3082 C3085 1.409 . S
C3083 H3075 0.930 . S
C3083 C3084 1.355 . S
C3083 C3085 1.415 . S
C3084 C3083 1.355 . S
C3084 C3086 1.419 . S
C3085 C3080 1.425 . S
C3085 C3082 1.409 . S
C3085 C3083 1.415 . S
C3086 H3076 0.930 . S
C3086 C3084 1.419 . S
C3086 C3087 1.362 . S
C3087 H3077 0.930 . S
C3087 C3080 1.409 . S
C3087 C3086 1.362 . S
H3088 C3094 0.930 . S
H3089 C3097 0.930 . S
H3090 C3098 0.930 . S
H3091 C3099 0.930 . S
H3092 C3102 0.930 . S
H3093 C3103 0.930 . S
C3094 H3088 0.930 . S
C3094 C3095 1.355 . S
C3094 C3096 1.415 . S
C3095 C3094 1.355 . S
C3095 C3097 1.419 . S
C3096 C3094 1.415 . S
C3096 C3101 1.425 . S
C3096 C3103 1.409 . S
C3097 H3089 0.930 . S
C3097 C3095 1.419 . S
C3097 C3098 1.362 . S
C3098 H3090 0.930 . S
C3098 C3097 1.362 . S
C3098 C3101 1.409 . S
C3099 H3091 0.930 . S
C3099 C3100 1.355 . S
C3099 C3101 1.415 . S
C3100 C3099 1.355 . S
C3100 C3102 1.419 . S
C3101 C3096 1.425 . S
C3101 C3098 1.409 . S
C3101 C3099 1.415 . S
C3102 H3092 0.930 . S
C3102 C3100 1.419 . S
C3102 C3103 1.362 . S
C3103 H3093 0.930 . S
C3103 C3096 1.409 . S
C3103 C3102 1.362 . S
H3104 C3110 0.930 . S
H3105 C3113 0.930 . S
H3106 C3114 0.930 . S
H3107 C3115 0.930 . S
H3108 C3118 0.930 . S
H3109 C3119 0.930 . S
C3110 H3104 0.930 . S
C3110 C3111 1.355 . S
C3110 C3112 1.415 . S
C3111 C3110 1.355 . S
C3111 C3113 1.419 . S
C3112 C3110 1.415 . S
C3112 C3117 1.425 . S
C3112 C3119 1.409 . S
C3113 H3105 0.930 . S
C3113 C3111 1.419 . S
C3113 C3114 1.362 . S
C3114 H3106 0.930 . S
C3114 C3113 1.362 . S
C3114 C3117 1.409 . S
C3115 H3107 0.930 . S
C3115 C3116 1.355 . S
C3115 C3117 1.415 . S
C3116 C3115 1.355 . S
C3116 C3118 1.419 . S
C3117 C3112 1.425 . S
C3117 C3114 1.409 . S
C3117 C3115 1.415 . S
C3118 H3108 0.930 . S
C3118 C3116 1.419 . S
C3118 C3119 1.362 . S
C3119 H3109 0.930 . S
C3119 C3112 1.409 . S
C3119 C3118 1.362 . S
H3120 C3126 0.930 . S
H3121 C3129 0.930 . S
H3122 C3130 0.930 . S
H3123 C3131 0.930 . S
H3124 C3134 0.930 . S
H3125 C3135 0.930 . S
C3126 H3120 0.930 . S
C3126 C3127 1.355 . S
C3126 C3128 1.415 . S
C3127 C3126 1.355 . S
C3127 C3129 1.419 . S
C3128 C3126 1.415 . S
C3128 C3133 1.425 . S
C3128 C3135 1.409 . S
C3129 H3121 0.930 . S
C3129 C3127 1.419 . S
C3129 C3130 1.362 . S
C3130 H3122 0.930 . S
C3130 C3129 1.362 . S
C3130 C3133 1.409 . S
C3131 H3123 0.930 . S
C3131 C3132 1.355 . S
C3131 C3133 1.415 . S
C3132 C3131 1.355 . S
C3132 C3134 1.419 . S
C3133 C3128 1.425 . S
C3133 C3130 1.409 . S
C3133 C3131 1.415 . S
C3134 H3124 0.930 . S
C3134 C3132 1.419 . S
C3134 C3135 1.362 . S
C3135 H3125 0.930 . S
C3135 C3128 1.409 . S
C3135 C3134 1.362 . S
H3136 C3142 0.930 . S
H3137 C3145 0.930 . S
H3138 C3146 0.930 . S
H3139 C3147 0.930 . S
H3140 C3150 0.930 . S
H3141 C3151 0.930 . S
C3142 H3136 0.930 . S
C3142 C3143 1.355 . S
C3142 C3144 1.415 . S
C3143 C3142 1.355 . S
C3143 C3145 1.419 . S
C3144 C3142 1.415 . S
C3144 C3149 1.425 . S
C3144 C3151 1.409 . S
C3145 H3137 0.930 . S
C3145 C3143 1.419 . S
C3145 C3146 1.362 . S
C3146 H3138 0.930 . S
C3146 C3145 1.362 . S
C3146 C3149 1.409 . S
C3147 H3139 0.930 . S
C3147 C3148 1.355 . S
C3147 C3149 1.415 . S
C3148 C3147 1.355 . S
C3148 C3150 1.419 . S
C3149 C3144 1.425 . S
C3149 C3146 1.409 . S
C3149 C3147 1.415 . S
C3150 H3140 0.930 . S
C3150 C3148 1.419 . S
C3150 C3151 1.362 . S
C3151 H3141 0.930 . S
C3151 C3144 1.409 . S
C3151 C3150 1.362 . S
H3152 C3158 0.930 . S
H3153 C3161 0.930 . S
H3154 C3162 0.930 . S
H3155 C3163 0.930 . S
H3156 C3166 0.930 . S
H3157 C3167 0.930 . S
C3158 H3152 0.930 . S
C3158 C3159 1.355 . S
C3158 C3160 1.415 . S
C3159 C3158 1.355 . S
C3159 C3161 1.419 . S
C3160 C3158 1.415 . S
C3160 C3165 1.425 . S
C3160 C3167 1.409 . S
C3161 H3153 0.930 . S
C3161 C3159 1.419 . S
C3161 C3162 1.362 . S
C3162 H3154 0.930 . S
C3162 C3161 1.362 . S
C3162 C3165 1.409 . S
C3163 H3155 0.930 . S
C3163 C3164 1.355 . S
C3163 C3165 1.415 . S
C3164 C3163 1.355 . S
C3164 C3166 1.419 . S
C3165 C3160 1.425 . S
C3165 C3162 1.409 . S
C3165 C3163 1.415 . S
C3166 H3156 0.930 . S
C3166 C3164 1.419 . S
C3166 C3167 1.362 . S
C3167 H3157 0.930 . S
C3167 C3160 1.409 . S
C3167 C3166 1.362 . S
H3168 C3174 0.930 . S
H3169 C3177 0.930 . S
H3170 C3178 0.930 . S
H3171 C3179 0.930 . S
H3172 C3182 0.930 . S
H3173 C3183 0.930 . S
C3174 H3168 0.930 . S
C3174 C3175 1.355 . S
C3174 C3176 1.415 . S
C3175 C3174 1.355 . S
C3175 C3177 1.419 . S
C3176 C3174 1.415 . S
C3176 C3181 1.425 . S
C3176 C3183 1.409 . S
C3177 H3169 0.930 . S
C3177 C3175 1.419 . S
C3177 C3178 1.362 . S
C3178 H3170 0.930 . S
C3178 C3177 1.362 . S
C3178 C3181 1.409 . S
C3179 H3171 0.930 . S
C3179 C3180 1.355 . S
C3179 C3181 1.415 . S
C3180 C3179 1.355 . S
C3180 C3182 1.419 . S
C3181 C3176 1.425 . S
C3181 C3178 1.409 . S
C3181 C3179 1.415 . S
C3182 H3172 0.930 . S
C3182 C3180 1.419 . S
C3182 C3183 1.362 . S
C3183 H3173 0.930 . S
C3183 C3176 1.409 . S
C3183 C3182 1.362 . S
H3184 C3190 0.930 . S
H3185 C3193 0.930 . S
H3186 C3194 0.930 . S
H3187 C3195 0.930 . S
H3188 C3198 0.930 . S
H3189 C3199 0.930 . S
C3190 H3184 0.930 . S
C3190 C3191 1.355 . S
C3190 C3192 1.415 . S
C3191 C3190 1.355 . S
C3191 C3193 1.419 . S
C3192 C3190 1.415 . S
C3192 C3197 1.425 . S
C3192 C3199 1.409 . S
C3193 H3185 0.930 . S
C3193 C3191 1.419 . S
C3193 C3194 1.362 . S
C3194 H3186 0.930 . S
C3194 C3193 1.362 . S
C3194 C3197 1.409 . S
C3195 H3187 0.930 . S
C3195 C3196 1.355 . S
C3195 C3197 1.415 . S
C3196 C3195 1.355 . S
C3196 C3198 1.419 . S
C3197 C3192 1.425 . S
C3197 C3194 1.409 . S
C3197 C3195 1.415 . S
C3198 H3188 0.930 . S
C3198 C3196 1.419 . S
C3198 C3199 1.362 . S
C3199 H3189 0.930 . S
C3199 C3192 1.409 . S
C3199 C3198 1.362 . S
H3200 C3206 0.930 . S
H3201 C3209 0.930 . S
H3202 C3210 0.930 . S
H3203 C3211 0.930 . S
H3204 C3214 0.930 . S
H3205 C3215 0.930 . S
C3206 H3200 0.930 . S
C3206 C3207 1.355 . S
C3206 C3208 1.415 . S
C3207 C3206 1.355 . S
C3207 C3209 1.419 . S
C3208 C3206 1.415 . S
C3208 C3213 1.425 . S
C3208 C3215 1.409 . S
C3209 H3201 0.930 . S
C3209 C3207 1.419 . S
C3209 C3210 1.362 . S
C3210 H3202 0.930 . S
C3210 C3209 1.362 . S
C3210 C3213 1.409 . S
C3211 H3203 0.930 . S
C3211 C3212 1.355 . S
C3211 C3213 1.415 . S
C3212 C3211 1.355 . S
C3212 C3214 1.419 . S
C3213 C3208 1.425 . S
C3213 C3210 1.409 . S
C3213 C3211 1.415 . S
C3214 H3204 0.930 . S
C3214 C3212 1.419 . S
C3214 C3215 1.362 . S
C3215 H3205 0.930 . S
C3215 C3208 1.409 . S
C3215 C3214 1.362 . S
H3216 C3222 0.930 . S
H3217 C3225 0.930 . S
H3218 C3226 0.930 . S
H3219 C3227 0.930 . S
H3220 C3230 0.930 . S
H3221 C3231 0.930 . S
C3222 H3216 0.930 . S
C3222 C3223 1.355 . S
C3222 C3224 1.415 . S
C3223 C3222 1.355 . S
C3223 C3225 1.419 . S
C3224 C3222 1.415 . S
C3224 C3229 1.425 . S
C3224 C3231 1.409 . S
C3225 H3217 0.930 . S
C3225 C3223 1.419 . S
C3225 C3226 1.362 . S
C3226 H3218 0.930 . S
C3226 C3225 1.362 . S
C3226 C3229 1.409 . S
C3227 H3219 0.930 . S
C3227 C3228 1.355 . S
C3227 C3229 1.415 . S
C3228 C3227 1.355 . S
C3228 C3230 1.419 . S
C3229 C3224 1.425 . S
C3229 C3226 1.409 . S
C3229 C3227 1.415 . S
C3230 H3220 0.930 . S
C3230 C3228 1.419 . S
C3230 C3231 1.362 . S
C3231 H3221 0.930 . S
C3231 C3224 1.409 . S
C3231 C3230 1.362 . S
H3232 C3238 0.930 . S
H3233 C3241 0.930 . S
H3234 C3242 0.930 . S
H3235 C3243 0.930 . S
H3236 C3246 0.930 . S
H3237 C3247 0.930 . S
C3238 H3232 0.930 . S
C3238 C3239 1.355 . S
C3238 C3240 1.415 . S
C3239 C3238 1.355 . S
C3239 C3241 1.419 . S
C3240 C3238 1.415 . S
C3240 C3245 1.425 . S
C3240 C3247 1.409 . S
C3241 H3233 0.930 . S
C3241 C3239 1.419 . S
C3241 C3242 1.362 . S
C3242 H3234 0.930 . S
C3242 C3241 1.362 . S
C3242 C3245 1.409 . S
C3243 H3235 0.930 . S
C3243 C3244 1.355 . S
C3243 C3245 1.415 . S
C3244 C3243 1.355 . S
C3244 C3246 1.419 . S
C3245 C3240 1.425 . S
C3245 C3242 1.409 . S
C3245 C3243 1.415 . S
C3246 H3236 0.930 . S
C3246 C3244 1.419 . S
C3246 C3247 1.362 . S
C3247 H3237 0.930 . S
C3247 C3240 1.409 . S
C3247 C3246 1.362 . S
H3248 C3254 0.930 . S
H3249 C3257 0.930 . S
H3250 C3258 0.930 . S
H3251 C3259 0.930 . S
H3252 C3262 0.930 . S
H3253 C3263 0.930 . S
C3254 H3248 0.930 . S
C3254 C3255 1.355 . S
C3254 C3256 1.415 . S
C3255 C3254 1.355 . S
C3255 C3257 1.419 . S
C3256 C3254 1.415 . S
C3256 C3261 1.425 . S
C3256 C3263 1.409 . S
C3257 H3249 0.930 . S
C3257 C3255 1.419 . S
C3257 C3258 1.362 . S
C3258 H3250 0.930 . S
C3258 C3257 1.362 . S
C3258 C3261 1.409 . S
C3259 H3251 0.930 . S
C3259 C3260 1.355 . S
C3259 C3261 1.415 . S
C3260 C3259 1.355 . S
C3260 C3262 1.419 . S
C3261 C3256 1.425 . S
C3261 C3258 1.409 . S
C3261 C3259 1.415 . S
C3262 H3252 0.930 . S
C3262 C3260 1.419 . S
C3262 C3263 1.362 . S
C3263 H3253 0.930 . S
C3263 C3256 1.409 . S
C3263 C3262 1.362 . S
C967 C128 2.454 . S
C972 C8 2.466 1_455 S
C983 C149 2.410 . S
C988 C28 2.504 . S
C999 C88 2.468 . S
C1004 C48 2.462 . S
C1015 C108 2.419 . S
C1020 C68 2.428 . S
C1031 C208 2.493 . S
C1036 C168 2.497 . S
C1047 C228 2.441 . S
C1052 C188 2.425 . S
C1063 C289 2.462 . S
C1068 C248 2.481 . S
C1079 C308 2.473 . S
C1084 C268 2.481 . S
C1095 C348 2.463 . S
C1100 C328 2.461 . S
C1111 C468 2.495 . S
C1116 C368 2.495 . S
C1127 C429 2.423 . S
C1132 C389 2.412 . S
C1143 C408 2.459 . S
C1148 C448 2.472 1_554 S
C1159 C488 2.482 . S
C1164 C608 2.476 . S
C1175 C508 2.496 . S
C1180 C629 2.428 . S
C1191 C528 2.464 . S
C1196 C568 2.459 . S
C1207 C548 2.431 . S
C1212 C588 2.420 . S
C1223 C648 2.496 . S
C1228 C688 2.495 . S
C1239 C668 2.458 . S
C1244 C708 2.462 . S
C1255 C728 2.498 . S
C1260 C769 2.434 . S
C1271 C788 2.442 . S
C1276 C748 2.448 . S
C1287 C808 2.474 . S
C1292 C828 2.476 . S
C1303 C948 2.474 . S
C1308 C848 2.468 . S
C1319 C869 2.436 . S
C1324 C909 2.429 . S
C1335 C888 2.451 . S
C1340 C928 2.458 . S
C1351 C9 2.797 . S
C1356 C189 2.810 . S
C1367 C29 2.788 . S
C1372 C209 2.829 . S
C1383 C49 2.807 . S
C1388 C229 2.833 . S
C1399 C169 2.837 . S
C1404 C69 2.810 . S
C1415 C309 2.732 . S
C1420 C89 2.690 . S
C1431 C249 2.834 . S
C1436 C109 2.814 . S
C1447 C269 2.829 . S
C1452 C129 2.863 . S
C1463 C148 2.912 . S
C1468 C288 2.874 1_545 S
C1479 C369 2.932 . S
C1484 C329 2.934 . S
C1495 C449 2.692 . S
C1500 C349 2.705 . S
C1511 C388 2.648 . S
C1516 C469 2.627 . S
C1527 C428 2.965 1_554 S
C1532 C409 2.978 . S
C1543 C489 2.786 . S
C1548 C669 2.769 . S
C1559 C689 2.780 . S
C1564 C509 2.789 . S
C1575 C709 2.872 . S
C1580 C529 2.792 . S
C1591 C549 2.807 . S
C1596 C649 2.802 . S
C1607 C789 2.752 . S
C1612 C569 2.687 . S
C1623 C589 2.814 . S
C1628 C729 2.805 . S
C1639 C609 2.855 . S
C1644 C749 2.876 . S
C1655 C628 2.882 . S
C1660 C768 2.895 . S
C1671 C809 2.963 . S
C1676 C849 2.938 . S
C1687 C929 2.733 . S
C1692 C829 2.702 . S
C1703 C949 2.596 . S
C1708 C868 2.674 . S
C1719 C889 2.940 . S
C1724 C908 3.004 . S
C1735 C18 0.989 . S
C1740 C62 1.052 . S
C1751 C2 0.614 . S
C1756 C38 0.674 . S
C1767 C58 1.064 . S
C1772 C22 0.974 . S
C1783 C78 0.666 . S
C1788 C42 0.597 . S
C1799 C102 0.847 . S
C1804 C98 0.948 . S
C1815 C122 0.739 . S
C1820 C118 0.713 . S
C1831 C138 1.161 . S
C1836 C159 1.151 . S
C1847 C82 0.460 . S
C1852 C141 0.691 . S
C1863 C178 0.720 . S
C1868 C362 0.842 . S
C1879 C198 1.179 . S
C1884 C399 1.115 . S
C1895 C218 0.994 1_565 S
C1900 C402 0.825 . S
C1911 C238 0.903 . S
C1916 C342 0.960 . S
C1927 C258 0.572 . S
C1932 C442 0.758 . S
C1943 C322 0.890 . S
C1948 C278 0.941 . S
C1959 C462 0.614 . S
C1964 C281 0.653 . S
C1975 C318 1.335 . S
C1980 C439 1.226 . S
C1991 C338 0.908 . S
C1996 C182 0.957 . S
C2007 C358 0.713 . S
C2012 C302 0.614 . S
C2023 C378 1.015 1_556 S
C2028 C242 0.999 . S
C2039 C262 0.481 . S
C2044 C381 0.579 . S
C2055 C299 1.117 . S
C2060 C418 1.009 . S
C2071 C222 0.527 . S
C2076 C421 0.735 . S
C2087 C162 0.859 . S
C2092 C458 0.887 . S
C2103 C478 0.725 . S
C2108 C202 0.676 . S
C2119 C498 1.070 . S
C2124 C542 0.910 . S
C2135 C518 0.631 . S
C2140 C482 0.719 . S
C2151 C502 0.950 . S
C2156 C538 1.076 . S
C2167 C522 0.754 . S
C2172 C558 0.567 . S
C2183 C578 0.947 . S
C2188 C582 0.937 . S
C2199 C602 0.633 . S
C2204 C598 0.787 . S
C2215 C639 1.141 . S
C2220 C618 1.172 . S
C2231 C621 0.679 . S
C2236 C562 0.520 . S
C2247 C658 0.810 . S
C2252 C842 0.730 . S
C2263 C879 1.128 . S
C2268 C678 1.168 . S
C2279 C882 0.987 . S
C2284 C698 0.901 . S
C2295 C718 0.943 . S
C2300 C822 0.787 . S
C2311 C922 0.718 . S
C2316 C738 0.599 . S
C2327 C758 0.882 . S
C2332 C802 0.993 . S
C2343 C761 0.657 . S
C2348 C942 0.610 . S
C2359 C798 1.251 . S
C2364 C919 1.322 . S
C2375 C662 0.909 . S
C2380 C818 0.957 . S
C2391 C782 0.593 . S
C2396 C838 0.733 . S
C2407 C722 0.930 . S
C2412 C858 1.074 . S
C2423 C861 0.403 . S
C2428 C742 0.673 . S
C2439 C779 1.071 . S
C2444 C898 1.050 . S
C2455 C901 0.754 . S
C2460 C702 0.530 . S
C2471 C938 0.828 . S
C2476 C642 0.933 . S
C2487 C682 0.610 . S
C2492 C958 0.722 . S
C2503 C1 0.708 . S
C2508 C881 0.652 . S
C2519 C821 0.589 . S
C2524 C21 0.614 . S
C2535 C41 0.619 . S
C2540 C841 0.685 . S
C2551 C61 1.028 . S
C2556 C878 1.037 . S
C2567 C81 0.590 . S
C2572 C941 0.646 . S
C2583 C101 1.076 . S
C2588 C918 1.068 . S
C2599 C121 0.736 . S
C2604 C921 0.744 . S
C2615 C158 1.061 . S
C2620 C801 1.002 . S
C2631 C161 0.566 . S
C2636 C781 0.501 . S
C2647 C181 0.570 . S
C2652 C721 0.565 . S
C2663 C201 0.685 . S
C2668 C741 0.731 . S
C2679 C221 0.960 . S
C2684 C778 0.995 . S
C2695 C241 0.646 . S
C2700 C661 0.597 . S
C2711 C261 0.608 . S
C2716 C681 0.549 . S
C2727 C298 0.961 . S
C2732 C701 0.906 . S
C2743 C301 0.575 . S
C2748 C641 0.652 . S
C2759 C321 0.981 . S
C2764 C638 1.037 . S
C2775 C341 0.785 . S
C2780 C501 0.807 . S
C2791 C361 0.654 . S
C2796 C521 0.709 . S
C2807 C398 1.060 1_556 S
C2812 C541 1.081 . S
C2823 C401 0.623 . S
C2828 C481 0.683 . S
C2839 C438 1.111 . S
C2844 C581 1.095 . S
C2855 C441 0.728 . S
C2860 C601 0.735 . S
C2871 C461 0.660 . S
C2876 C561 0.707 . S
C2887 C99 1.603 . S
C2892 C859 1.601 . S
C2903 C119 0.899 . S
C2908 C862 0.924 . S
C2919 C139 1.710 . S
C2924 C899 1.718 . S
C2935 C142 0.878 . S
C2940 C839 0.900 . S
C2951 C19 1.675 . S
C2956 C939 1.682 . S
C2967 C39 1.396 . S
C2972 C819 1.403 . S
C2983 C59 1.482 . S
C2988 C959 1.474 . S
C2999 C902 0.944 . S
C3004 C79 0.926 . S
C3015 C282 1.040 . S
C3020 C679 1.039 . S
C3031 C319 1.727 . S
C3036 C699 1.731 . S
C3047 C259 1.428 . S
C3052 C719 1.415 . S
C3063 C279 1.583 . S
C3068 C659 1.595 . S
C3079 C219 1.752 . S
C3084 C799 1.744 . S
C3095 C239 1.409 . S
C3100 C739 1.402 . S
C3111 C179 1.595 . S
C3116 C759 1.582 . S
C3127 C199 1.003 . S
C3132 C762 1.017 . S
C3143 C422 0.958 . S
C3148 C559 0.951 . S
C3159 C382 0.897 . S
C3164 C599 0.920 . S
C3175 C419 1.712 . S
C3180 C619 1.717 . S
C3191 C359 0.865 . S
C3196 C622 0.822 . S
C3207 C379 1.589 . S
C3212 C579 1.593 . S
C3223 C339 1.394 . S
C3228 C519 1.390 . S
C3239 C479 1.483 . S
C3244 C539 1.481 . S
C3255 C459 1.679 . S
C3260 C499 1.682 . S
