# Generated by pormake.
# Topology uko, (4)-cn, num edge types: 1
# Building blocks:
#     Node 0, Type 0, BuildingBlock: QUQFOY_clean_sbu_1, # of connection points: 4
#     Node 1, Type 0, BuildingBlock: QUQFOY_clean_sbu_1, # of connection points: 4
#     Node 2, Type 0, BuildingBlock: QUQFOY_clean_sbu_1, # of connection points: 4
#     Node 3, Type 0, BuildingBlock: QUQFOY_clean_sbu_1, # of connection points: 4
#     Node 4, Type 0, BuildingBlock: QUQFOY_clean_sbu_1, # of connection points: 4
#     Node 5, Type 0, BuildingBlock: QUQFOY_clean_sbu_1, # of connection points: 4
#     Node 6, Type 0, BuildingBlock: QUQFOY_clean_sbu_1, # of connection points: 4
#     Node 7, Type 0, BuildingBlock: QUQFOY_clean_sbu_1, # of connection points: 4
#     Node 8, Type 0, BuildingBlock: QUQFOY_clean_sbu_1, # of connection points: 4
#     Node 9, Type 0, BuildingBlock: QUQFOY_clean_sbu_1, # of connection points: 4
#     Node 10, Type 0, BuildingBlock: QUQFOY_clean_sbu_1, # of connection points: 4
#     Node 11, Type 0, BuildingBlock: QUQFOY_clean_sbu_1, # of connection points: 4
#     Node 12, Type 0, BuildingBlock: QUQFOY_clean_sbu_1, # of connection points: 4
#     Node 13, Type 0, BuildingBlock: QUQFOY_clean_sbu_1, # of connection points: 4
#     Node 14, Type 0, BuildingBlock: QUQFOY_clean_sbu_1, # of connection points: 4
#     Node 15, Type 0, BuildingBlock: QUQFOY_clean_sbu_1, # of connection points: 4
#     Node 16, Type 0, BuildingBlock: QUQFOY_clean_sbu_1, # of connection points: 4
#     Node 17, Type 0, BuildingBlock: QUQFOY_clean_sbu_1, # of connection points: 4
#     Node 18, Type 0, BuildingBlock: QUQFOY_clean_sbu_1, # of connection points: 4
#     Node 19, Type 0, BuildingBlock: QUQFOY_clean_sbu_1, # of connection points: 4
#     Node 20, Type 0, BuildingBlock: QUQFOY_clean_sbu_1, # of connection points: 4
#     Node 21, Type 0, BuildingBlock: QUQFOY_clean_sbu_1, # of connection points: 4
#     Node 22, Type 0, BuildingBlock: QUQFOY_clean_sbu_1, # of connection points: 4
#     Node 23, Type 0, BuildingBlock: QUQFOY_clean_sbu_1, # of connection points: 4
#     Node 24, Type 0, BuildingBlock: QUQFOY_clean_sbu_1, # of connection points: 4
#     Node 25, Type 0, BuildingBlock: QUQFOY_clean_sbu_1, # of connection points: 4
#     Node 26, Type 0, BuildingBlock: QUQFOY_clean_sbu_1, # of connection points: 4
#     Node 27, Type 0, BuildingBlock: QUQFOY_clean_sbu_1, # of connection points: 4
#     Node 28, Type 0, BuildingBlock: QUQFOY_clean_sbu_1, # of connection points: 4
#     Node 29, Type 0, BuildingBlock: QUQFOY_clean_sbu_1, # of connection points: 4
#     Node 30, Type 0, BuildingBlock: QUQFOY_clean_sbu_1, # of connection points: 4
#     Node 31, Type 0, BuildingBlock: QUQFOY_clean_sbu_1, # of connection points: 4
#     Node 32, Type 0, BuildingBlock: QUQFOY_clean_sbu_1, # of connection points: 4
#     Node 33, Type 0, BuildingBlock: QUQFOY_clean_sbu_1, # of connection points: 4
#     Node 34, Type 0, BuildingBlock: QUQFOY_clean_sbu_1, # of connection points: 4
#     Node 35, Type 0, BuildingBlock: QUQFOY_clean_sbu_1, # of connection points: 4
#     Node 36, Type 0, BuildingBlock: QUQFOY_clean_sbu_1, # of connection points: 4
#     Node 37, Type 0, BuildingBlock: QUQFOY_clean_sbu_1, # of connection points: 4
#     Node 38, Type 0, BuildingBlock: QUQFOY_clean_sbu_1, # of connection points: 4
#     Node 39, Type 0, BuildingBlock: QUQFOY_clean_sbu_1, # of connection points: 4
#     Node 40, Type 0, BuildingBlock: QUQFOY_clean_sbu_1, # of connection points: 4
#     Node 41, Type 0, BuildingBlock: QUQFOY_clean_sbu_1, # of connection points: 4
#     Node 42, Type 0, BuildingBlock: QUQFOY_clean_sbu_1, # of connection points: 4
#     Node 43, Type 0, BuildingBlock: QUQFOY_clean_sbu_1, # of connection points: 4
#     Node 44, Type 0, BuildingBlock: QUQFOY_clean_sbu_1, # of connection points: 4
#     Node 45, Type 0, BuildingBlock: QUQFOY_clean_sbu_1, # of connection points: 4
#     Node 46, Type 0, BuildingBlock: QUQFOY_clean_sbu_1, # of connection points: 4
#     Node 47, Type 0, BuildingBlock: QUQFOY_clean_sbu_1, # of connection points: 4
#     Edge 48, Type (0, 0), BuildingBlock: XIVTED_clean_linker_0, # of connection points: 2
#     Edge 49, Type (0, 0), BuildingBlock: XIVTED_clean_linker_0, # of connection points: 2
#     Edge 50, Type (0, 0), BuildingBlock: XIVTED_clean_linker_0, # of connection points: 2
#     Edge 51, Type (0, 0), BuildingBlock: XIVTED_clean_linker_0, # of connection points: 2
#     Edge 52, Type (0, 0), BuildingBlock: XIVTED_clean_linker_0, # of connection points: 2
#     Edge 53, Type (0, 0), BuildingBlock: XIVTED_clean_linker_0, # of connection points: 2
#     Edge 54, Type (0, 0), BuildingBlock: XIVTED_clean_linker_0, # of connection points: 2
#     Edge 55, Type (0, 0), BuildingBlock: XIVTED_clean_linker_0, # of connection points: 2
#     Edge 56, Type (0, 0), BuildingBlock: XIVTED_clean_linker_0, # of connection points: 2
#     Edge 57, Type (0, 0), BuildingBlock: XIVTED_clean_linker_0, # of connection points: 2
#     Edge 58, Type (0, 0), BuildingBlock: XIVTED_clean_linker_0, # of connection points: 2
#     Edge 59, Type (0, 0), BuildingBlock: XIVTED_clean_linker_0, # of connection points: 2
#     Edge 60, Type (0, 0), BuildingBlock: XIVTED_clean_linker_0, # of connection points: 2
#     Edge 61, Type (0, 0), BuildingBlock: XIVTED_clean_linker_0, # of connection points: 2
#     Edge 62, Type (0, 0), BuildingBlock: XIVTED_clean_linker_0, # of connection points: 2
#     Edge 63, Type (0, 0), BuildingBlock: XIVTED_clean_linker_0, # of connection points: 2
#     Edge 64, Type (0, 0), BuildingBlock: XIVTED_clean_linker_0, # of connection points: 2
#     Edge 65, Type (0, 0), BuildingBlock: XIVTED_clean_linker_0, # of connection points: 2
#     Edge 66, Type (0, 0), BuildingBlock: XIVTED_clean_linker_0, # of connection points: 2
#     Edge 67, Type (0, 0), BuildingBlock: XIVTED_clean_linker_0, # of connection points: 2
#     Edge 68, Type (0, 0), BuildingBlock: XIVTED_clean_linker_0, # of connection points: 2
#     Edge 69, Type (0, 0), BuildingBlock: XIVTED_clean_linker_0, # of connection points: 2
#     Edge 70, Type (0, 0), BuildingBlock: XIVTED_clean_linker_0, # of connection points: 2
#     Edge 71, Type (0, 0), BuildingBlock: XIVTED_clean_linker_0, # of connection points: 2
#     Edge 72, Type (0, 0), BuildingBlock: XIVTED_clean_linker_0, # of connection points: 2
#     Edge 73, Type (0, 0), BuildingBlock: XIVTED_clean_linker_0, # of connection points: 2
#     Edge 74, Type (0, 0), BuildingBlock: XIVTED_clean_linker_0, # of connection points: 2
#     Edge 75, Type (0, 0), BuildingBlock: XIVTED_clean_linker_0, # of connection points: 2
#     Edge 76, Type (0, 0), BuildingBlock: XIVTED_clean_linker_0, # of connection points: 2
#     Edge 77, Type (0, 0), BuildingBlock: XIVTED_clean_linker_0, # of connection points: 2
#     Edge 78, Type (0, 0), BuildingBlock: XIVTED_clean_linker_0, # of connection points: 2
#     Edge 79, Type (0, 0), BuildingBlock: XIVTED_clean_linker_0, # of connection points: 2
#     Edge 80, Type (0, 0), BuildingBlock: XIVTED_clean_linker_0, # of connection points: 2
#     Edge 81, Type (0, 0), BuildingBlock: XIVTED_clean_linker_0, # of connection points: 2
#     Edge 82, Type (0, 0), BuildingBlock: XIVTED_clean_linker_0, # of connection points: 2
#     Edge 83, Type (0, 0), BuildingBlock: XIVTED_clean_linker_0, # of connection points: 2
#     Edge 84, Type (0, 0), BuildingBlock: XIVTED_clean_linker_0, # of connection points: 2
#     Edge 85, Type (0, 0), BuildingBlock: XIVTED_clean_linker_0, # of connection points: 2
#     Edge 86, Type (0, 0), BuildingBlock: XIVTED_clean_linker_0, # of connection points: 2
#     Edge 87, Type (0, 0), BuildingBlock: XIVTED_clean_linker_0, # of connection points: 2
#     Edge 88, Type (0, 0), BuildingBlock: XIVTED_clean_linker_0, # of connection points: 2
#     Edge 89, Type (0, 0), BuildingBlock: XIVTED_clean_linker_0, # of connection points: 2
#     Edge 90, Type (0, 0), BuildingBlock: XIVTED_clean_linker_0, # of connection points: 2
#     Edge 91, Type (0, 0), BuildingBlock: XIVTED_clean_linker_0, # of connection points: 2
#     Edge 92, Type (0, 0), BuildingBlock: XIVTED_clean_linker_0, # of connection points: 2
#     Edge 93, Type (0, 0), BuildingBlock: XIVTED_clean_linker_0, # of connection points: 2
#     Edge 94, Type (0, 0), BuildingBlock: XIVTED_clean_linker_0, # of connection points: 2
#     Edge 95, Type (0, 0), BuildingBlock: XIVTED_clean_linker_0, # of connection points: 2
#     Edge 96, Type (0, 0), BuildingBlock: XIVTED_clean_linker_0, # of connection points: 2
#     Edge 97, Type (0, 0), BuildingBlock: XIVTED_clean_linker_0, # of connection points: 2
#     Edge 98, Type (0, 0), BuildingBlock: XIVTED_clean_linker_0, # of connection points: 2
#     Edge 99, Type (0, 0), BuildingBlock: XIVTED_clean_linker_0, # of connection points: 2
#     Edge 100, Type (0, 0), BuildingBlock: XIVTED_clean_linker_0, # of connection points: 2
#     Edge 101, Type (0, 0), BuildingBlock: XIVTED_clean_linker_0, # of connection points: 2
#     Edge 102, Type (0, 0), BuildingBlock: XIVTED_clean_linker_0, # of connection points: 2
#     Edge 103, Type (0, 0), BuildingBlock: XIVTED_clean_linker_0, # of connection points: 2
#     Edge 104, Type (0, 0), BuildingBlock: XIVTED_clean_linker_0, # of connection points: 2
#     Edge 105, Type (0, 0), BuildingBlock: XIVTED_clean_linker_0, # of connection points: 2
#     Edge 106, Type (0, 0), BuildingBlock: XIVTED_clean_linker_0, # of connection points: 2
#     Edge 107, Type (0, 0), BuildingBlock: XIVTED_clean_linker_0, # of connection points: 2
#     Edge 108, Type (0, 0), BuildingBlock: XIVTED_clean_linker_0, # of connection points: 2
#     Edge 109, Type (0, 0), BuildingBlock: XIVTED_clean_linker_0, # of connection points: 2
#     Edge 110, Type (0, 0), BuildingBlock: XIVTED_clean_linker_0, # of connection points: 2
#     Edge 111, Type (0, 0), BuildingBlock: XIVTED_clean_linker_0, # of connection points: 2
#     Edge 112, Type (0, 0), BuildingBlock: XIVTED_clean_linker_0, # of connection points: 2
#     Edge 113, Type (0, 0), BuildingBlock: XIVTED_clean_linker_0, # of connection points: 2
#     Edge 114, Type (0, 0), BuildingBlock: XIVTED_clean_linker_0, # of connection points: 2
#     Edge 115, Type (0, 0), BuildingBlock: XIVTED_clean_linker_0, # of connection points: 2
#     Edge 116, Type (0, 0), BuildingBlock: XIVTED_clean_linker_0, # of connection points: 2
#     Edge 117, Type (0, 0), BuildingBlock: XIVTED_clean_linker_0, # of connection points: 2
#     Edge 118, Type (0, 0), BuildingBlock: XIVTED_clean_linker_0, # of connection points: 2
#     Edge 119, Type (0, 0), BuildingBlock: XIVTED_clean_linker_0, # of connection points: 2
#     Edge 120, Type (0, 0), BuildingBlock: XIVTED_clean_linker_0, # of connection points: 2
#     Edge 121, Type (0, 0), BuildingBlock: XIVTED_clean_linker_0, # of connection points: 2
#     Edge 122, Type (0, 0), BuildingBlock: XIVTED_clean_linker_0, # of connection points: 2
#     Edge 123, Type (0, 0), BuildingBlock: XIVTED_clean_linker_0, # of connection points: 2
#     Edge 124, Type (0, 0), BuildingBlock: XIVTED_clean_linker_0, # of connection points: 2
#     Edge 125, Type (0, 0), BuildingBlock: XIVTED_clean_linker_0, # of connection points: 2
#     Edge 126, Type (0, 0), BuildingBlock: XIVTED_clean_linker_0, # of connection points: 2
#     Edge 127, Type (0, 0), BuildingBlock: XIVTED_clean_linker_0, # of connection points: 2
#     Edge 128, Type (0, 0), BuildingBlock: XIVTED_clean_linker_0, # of connection points: 2
#     Edge 129, Type (0, 0), BuildingBlock: XIVTED_clean_linker_0, # of connection points: 2
#     Edge 130, Type (0, 0), BuildingBlock: XIVTED_clean_linker_0, # of connection points: 2
#     Edge 131, Type (0, 0), BuildingBlock: XIVTED_clean_linker_0, # of connection points: 2
#     Edge 132, Type (0, 0), BuildingBlock: XIVTED_clean_linker_0, # of connection points: 2
#     Edge 133, Type (0, 0), BuildingBlock: XIVTED_clean_linker_0, # of connection points: 2
#     Edge 134, Type (0, 0), BuildingBlock: XIVTED_clean_linker_0, # of connection points: 2
#     Edge 135, Type (0, 0), BuildingBlock: XIVTED_clean_linker_0, # of connection points: 2
#     Edge 136, Type (0, 0), BuildingBlock: XIVTED_clean_linker_0, # of connection points: 2
#     Edge 137, Type (0, 0), BuildingBlock: XIVTED_clean_linker_0, # of connection points: 2
#     Edge 138, Type (0, 0), BuildingBlock: XIVTED_clean_linker_0, # of connection points: 2
#     Edge 139, Type (0, 0), BuildingBlock: XIVTED_clean_linker_0, # of connection points: 2
#     Edge 140, Type (0, 0), BuildingBlock: XIVTED_clean_linker_0, # of connection points: 2
#     Edge 141, Type (0, 0), BuildingBlock: XIVTED_clean_linker_0, # of connection points: 2
#     Edge 142, Type (0, 0), BuildingBlock: XIVTED_clean_linker_0, # of connection points: 2
#     Edge 143, Type (0, 0), BuildingBlock: XIVTED_clean_linker_0, # of connection points: 2
# Relax obj value: 0.233
# Max RMSD: 0.112
# Mean RMSD: 0.112
data_MOF--net-uko--node1-QUQFOY_clean_sbu_1--edge1-XIVTED_clean_linker_0
_symmetry_space_group_name_H-M    P1
_symmetry_Int_Tables_number       1
_symmetry_cell_setting            triclinic
loop_
_symmetry_equiv_pos_as_xyz
'x, y, z'
_cell_length_a     56.892937
_cell_length_b     56.89363
_cell_length_c     56.919235
_cell_angle_alpha  90.003783
_cell_angle_beta   90.00761
_cell_angle_gamma 89.987007
loop_
_atom_site_label
_atom_site_type_symbol
_atom_site_fract_x
_atom_site_fract_y
_atom_site_fract_z
_atom_type_partial_charge
O0 O 0.01584 0.36644 0.30272 0.0
Cd1 Cd 0.00801 0.37649 0.26849 0.0
Cd2 Cd 0.04352 0.4054 0.27708 0.0
O3 O 0.05088 0.38282 0.30405 0.0
O4 O 0.98974 0.34969 0.25523 0.0
O5 O 0.02611 0.35823 0.24432 0.0
C6 C 0.00828 0.34418 0.24336 0.0
C7 C 0.07249 0.41635 0.25045 0.0
C8 C 0.03565 0.36907 0.31278 0.0
C9 C 0.99676 0.42726 0.27069 0.0
O10 O 0.01645 0.42888 0.28102 0.0
O11 O 0.99064 0.40797 0.2612 0.0
O12 O 0.07167 0.42523 0.27128 0.0
O13 O 0.05717 0.40051 0.24492 0.0
O14 O 0.99851 0.14331 0.29051 0.0
Cd15 Cd 0.01388 0.13903 0.25811 0.0
Cd16 Cd 0.97145 0.11364 0.24827 0.0
O17 O 0.96383 0.1293 0.28017 0.0
O18 O 0.03357 0.16726 0.25188 0.0
O19 O 1.00014 0.15982 0.23324 0.0
C20 C 0.0175 0.17394 0.23728 0.0
C21 C 0.93879 0.1026 0.22591 0.0
C22 C 0.97696 0.13954 0.29505 0.0
C23 C 0.02033 0.08959 0.24502 0.0
O24 O 0.99805 0.0895 0.24392 0.0
O25 O 0.03149 0.10812 0.25045 0.0
O26 O 0.94433 0.09193 0.24502 0.0
O27 O 0.95138 0.12043 0.2197 0.0
O28 O 0.00979 0.64805 0.19959 0.0
Cd29 Cd 0.00186 0.63856 0.23402 0.0
Cd30 Cd 0.03731 0.60953 0.22573 0.0
O31 O 0.04508 0.63217 0.19909 0.0
O32 O 0.98347 0.66559 0.2466 0.0
O33 O 0.01974 0.6573 0.258 0.0
C34 C 0.0019 0.67138 0.25849 0.0
C35 C 0.06611 0.59751 0.25203 0.0
C36 C 0.02981 0.64557 0.18991 0.0
C37 C 0.99088 0.58773 0.2323 0.0
O38 O 0.01018 0.58631 0.22127 0.0
O39 O 0.98501 0.60694 0.24214 0.0
O40 O 0.06525 0.58929 0.23094 0.0
O41 O 0.05095 0.61336 0.258 0.0
O42 O 0.99583 0.8624 0.19983 0.0
Cd43 Cd 0.00771 0.87303 0.23275 0.0
Cd44 Cd 0.96933 0.89988 0.22944 0.0
O45 O 0.96004 0.87666 0.20367 0.0
O46 O 0.02877 0.84715 0.24335 0.0
O47 O 0.99389 0.85411 0.25918 0.0
C48 C 0.01228 0.84083 0.25759 0.0
C49 C 0.9413 0.91234 0.25652 0.0
C50 C 0.97468 0.86393 0.19269 0.0
C51 C 0.01587 0.92401 0.22882 0.0
O52 O 0.99466 0.92434 0.22198 0.0
O53 O 0.0247 0.90528 0.23723 0.0
O54 O 0.94109 0.9196 0.23509 0.0
O55 O 0.95713 0.8972 0.26253 0.0
O56 O 0.3022 0.00897 0.3615 0.0
Cd57 Cd 0.26742 0.00084 0.36939 0.0
Cd58 Cd 0.27432 0.03646 0.39904 0.0
O59 O 0.3023 0.04401 0.37793 0.0
O60 O 0.25639 0.98177 0.34215 0.0
O61 O 0.24414 0.01805 0.34911 0.0
C62 C 0.24449 0.99989 0.33545 0.0
C63 C 0.24785 0.06568 0.40974 0.0
C64 C 0.31196 0.02883 0.36477 0.0
C65 C 0.26689 0.98961 0.42019 0.0
O66 O 0.27728 0.00921 0.42238 0.0
O67 O 0.25826 0.98363 0.40046 0.0
O68 O 0.26844 0.06439 0.41913 0.0
O69 O 0.24251 0.0507 0.39352 0.0
O70 O 0.70948 0.49338 0.36174 0.0
Cd71 Cd 0.74253 0.5066 0.36768 0.0
Cd72 Cd 0.74903 0.4623 0.39136 0.0
O73 O 0.71707 0.45748 0.37446 0.0
O74 O 0.75054 0.52745 0.34084 0.0
O75 O 0.7673 0.49275 0.34689 0.0
C76 C 0.76458 0.51108 0.3337 0.0
C77 C 0.76929 0.42806 0.4019 0.0
C78 C 0.70342 0.47205 0.36438 0.0
C79 C 0.75472 0.51008 0.41745 0.0
O80 O 0.75457 0.48779 0.41651 0.0
O81 O 0.75023 0.52236 0.39941 0.0
O82 O 0.75016 0.43429 0.41216 0.0
O83 O 0.77661 0.44077 0.38459 0.0
O84 O 0.30869 0.98844 0.14468 0.0
Cd85 Cd 0.27584 0.0004 0.13381 0.0
Cd86 Cd 0.27908 0.96211 0.1074 0.0
O87 O 0.30457 0.95254 0.1308 0.0
O88 O 0.26462 0.02114 0.15971 0.0
O89 O 0.24925 0.98619 0.15214 0.0
C90 C 0.25042 0.00446 0.16561 0.0
C91 C 0.25097 0.93504 0.0952 0.0
C92 C 0.31567 0.96721 0.14338 0.0
C93 C 0.28025 0.00825 0.08286 0.0
O94 O 0.28722 0.98708 0.08281 0.0
O95 O 0.27152 0.01716 0.1014 0.0
O96 O 0.27242 0.93387 0.08802 0.0
O97 O 0.24558 0.95123 0.1102 0.0
O98 O 0.69968 0.5145 0.14204 0.0
Cd99 Cd 0.73411 0.50702 0.13184 0.0
Cd100 Cd 0.72472 0.54221 0.10313 0.0
O101 O 0.69808 0.54961 0.12586 0.0
O102 O 0.74737 0.48768 0.15782 0.0
O103 O 0.75815 0.52444 0.1509 0.0
C104 C 0.75926 0.50595 0.16407 0.0
C105 C 0.75194 0.57054 0.0923 0.0
C106 C 0.68948 0.53427 0.13954 0.0
C107 C 0.73229 0.4967 0.08073 0.0
O108 O 0.72036 0.51546 0.07954 0.0
O109 O 0.74251 0.49114 0.09981 0.0
O110 O 0.73094 0.57048 0.08373 0.0
O111 O 0.75724 0.55488 0.10788 0.0
O112 O 0.36313 0.30665 0.01748 0.0
Cd113 Cd 0.36579 0.27764 0.99618 0.0
Cd114 Cd 0.3874 0.2561 0.03711 0.0
O115 O 0.36973 0.2856 0.04944 0.0
O116 O 0.3369 0.27405 0.97672 0.0
O117 O 0.34566 0.25086 0.00685 0.0
C118 C 0.33098 0.25708 0.99063 0.0
C119 C 0.40056 0.23106 0.06696 0.0
C120 C 0.36306 0.30458 0.0397 0.0
C121 C 0.4136 0.2617 0.98877 0.0
O122 O 0.41173 0.25555 0.01013 0.0
O123 O 0.39667 0.27169 0.97827 0.0
O124 O 0.40988 0.25131 0.06336 0.0
O125 O 0.38287 0.22512 0.05405 0.0
O126 O 0.3655 0.69248 0.48876 0.0
Cd127 Cd 0.37543 0.72687 0.49641 0.0
Cd128 Cd 0.40557 0.71729 0.46211 0.0
O129 O 0.38289 0.69061 0.45426 0.0
O130 O 0.34855 0.7401 0.5146 0.0
O131 O 0.35693 0.75078 0.47815 0.0
C132 C 0.34294 0.75183 0.49602 0.0
C133 C 0.417 0.74441 0.43389 0.0
C134 C 0.36858 0.6822 0.46913 0.0
C135 C 0.42633 0.72534 0.50853 0.0
O136 O 0.42832 0.71355 0.48973 0.0
O137 O 0.40687 0.73517 0.51352 0.0
O138 O 0.42575 0.72348 0.43433 0.0
O139 O 0.40095 0.74967 0.44909 0.0
O140 O 0.64448 0.80624 0.48829 0.0
Cd141 Cd 0.63566 0.77168 0.49662 0.0
Cd142 Cd 0.60507 0.78 0.46209 0.0
O143 O 0.62714 0.80695 0.45372 0.0
O144 O 0.6627 0.76005 0.51563 0.0
O145 O 0.65545 0.74801 0.47936 0.0
C146 C 0.66914 0.74804 0.4975 0.0
C147 C 0.59316 0.75305 0.4339 0.0
C148 C 0.64116 0.81605 0.46846 0.0
C149 C 0.58477 0.77215 0.50874 0.0
O150 O 0.58253 0.78378 0.48987 0.0
O151 O 0.6044 0.76267 0.51374 0.0
O152 O 0.5844 0.77395 0.43467 0.0
O153 O 0.60951 0.7477 0.44875 0.0
O154 O 0.14216 0.70524 0.4995 0.0
Cd155 Cd 0.13767 0.73912 0.48778 0.0
Cd156 Cd 0.11428 0.74493 0.53188 0.0
O157 O 0.12996 0.71232 0.53564 0.0
O158 O 0.1655 0.7474 0.46827 0.0
O159 O 0.15889 0.76224 0.50371 0.0
C160 C 0.17263 0.76007 0.48572 0.0
C161 C 0.10538 0.7647 0.56679 0.0
C162 C 0.13939 0.69868 0.52066 0.0
C163 C 0.08824 0.75339 0.48471 0.0
O164 O 0.08905 0.75212 0.50696 0.0
O165 O 0.10625 0.749 0.4723 0.0
O166 O 0.09416 0.74617 0.56036 0.0
O167 O 0.12262 0.77168 0.55379 0.0
O168 O 0.98728 0.63623 0.69121 0.0
Cd169 Cd 0.99567 0.62461 0.72479 0.0
Cd170 Cd 0.95712 0.59851 0.71805 0.0
O171 O 0.95126 0.62212 0.69158 0.0
O172 O 0.01667 0.64926 0.73817 0.0
O173 O 0.98013 0.64346 0.75026 0.0
C174 C 0.99918 0.65583 0.75104 0.0
C175 C 0.92711 0.59 0.74429 0.0
C176 C 0.96687 0.63495 0.68218 0.0
C177 C 0.00186 0.57251 0.72251 0.0
O178 O 0.98146 0.57231 0.71347 0.0
O179 O 0.01029 0.59151 0.73077 0.0
O180 O 0.92643 0.5826 0.7229 0.0
O181 O 0.94471 0.60278 0.75079 0.0
O182 O 0.02503 0.85355 0.71177 0.0
Cd183 Cd 0.01234 0.8603 0.74536 0.0
Cd184 Cd 0.04944 0.89132 0.74316 0.0
O185 O 0.05961 0.87054 0.7157 0.0
O186 O 0.9906 0.83353 0.75149 0.0
O187 O 0.02457 0.83792 0.76991 0.0
C188 C 0.00612 0.8253 0.7658 0.0
C189 C 0.07817 0.90541 0.76881 0.0
C190 C 0.04575 0.85735 0.70426 0.0
C191 C 0.00084 0.91106 0.74585 0.0
O192 O 0.02165 0.91381 0.73836 0.0
O193 O 0.99394 0.89106 0.753 0.0
O194 O 0.07588 0.91361 0.74785 0.0
O195 O 0.06445 0.88849 0.77519 0.0
O196 O 0.98804 0.35226 0.80176 0.0
Cd197 Cd 0.99577 0.36062 0.76694 0.0
Cd198 Cd 0.95966 0.39017 0.77491 0.0
O199 O 0.95284 0.36835 0.80244 0.0
O200 O 0.01603 0.33423 0.75594 0.0
O201 O 0.97944 0.33949 0.74379 0.0
C202 C 0.99822 0.32669 0.7441 0.0
C203 C 0.92943 0.4018 0.75003 0.0
C204 C 0.96821 0.35515 0.81172 0.0
C205 C 0.00576 0.41189 0.7662 0.0
O206 O 0.98676 0.41366 0.77767 0.0
O207 O 0.0116 0.39231 0.75712 0.0
O208 O 0.93154 0.41041 0.77087 0.0
O209 O 0.94419 0.38581 0.74349 0.0
O210 O 0.00865 0.13426 0.8072 0.0
Cd211 Cd 0.99962 0.12381 0.77332 0.0
Cd212 Cd 0.03669 0.09625 0.7807 0.0
O213 O 0.04449 0.11966 0.80671 0.0
O214 O 0.97872 0.14932 0.76147 0.0
O215 O 0.01489 0.14355 0.74833 0.0
C216 C 0.99604 0.15626 0.74859 0.0
C217 C 0.06492 0.08509 0.7534 0.0
C218 C 0.02909 0.13268 0.81619 0.0
C219 C 0.99099 0.0725 0.77624 0.0
O220 O 0.01075 0.07199 0.78652 0.0
O221 O 0.98398 0.09131 0.76638 0.0
O222 O 0.06526 0.07717 0.77462 0.0
O223 O 0.04885 0.10018 0.74784 0.0
O224 O 0.69726 0.99414 0.63996 0.0
Cd225 Cd 0.73155 0.00344 0.63121 0.0
Cd226 Cd 0.72535 0.96692 0.60226 0.0
O227 O 0.69841 0.95868 0.6245 0.0
O228 O 0.74216 0.02365 0.65779 0.0
O229 O 0.75568 0.98768 0.65165 0.0
C230 C 0.75475 0.00615 0.66486 0.0
C231 C 0.75219 0.93829 0.59082 0.0
C232 C 0.6884 0.97373 0.63754 0.0
C233 C 0.73078 0.01355 0.58014 0.0
O234 O 0.72078 0.9937 0.5786 0.0
O235 O 0.73971 0.02014 0.59954 0.0
O236 O 0.73122 0.93893 0.58226 0.0
O237 O 0.75776 0.95358 0.60667 0.0
O238 O 0.289 0.51192 0.63892 0.0
Cd239 Cd 0.25467 0.50229 0.63085 0.0
Cd240 Cd 0.26001 0.53857 0.60132 0.0
O241 O 0.28752 0.54707 0.62275 0.0
O242 O 0.24418 0.48296 0.65807 0.0
O243 O 0.2304 0.51861 0.65069 0.0
C244 C 0.23137 0.50056 0.66446 0.0
C245 C 0.23464 0.56785 0.58802 0.0
C246 C 0.29787 0.53222 0.63577 0.0
C247 C 0.25528 0.49093 0.58032 0.0
O248 O 0.26429 0.51121 0.5783 0.0
O249 O 0.24686 0.48429 0.59991 0.0
O250 O 0.25568 0.56578 0.57992 0.0
O251 O 0.22812 0.55368 0.60453 0.0
O252 O 0.69123 0.01184 0.8577 0.0
Cd253 Cd 0.72519 0.00252 0.86772 0.0
Cd254 Cd 0.71771 0.03855 0.89673 0.0
O255 O 0.69157 0.04708 0.8737 0.0
O256 O 0.73702 0.98253 0.84149 0.0
O257 O 0.7501 0.01852 0.84842 0.0
C258 C 0.74987 1.0001 0.83511 0.0
C259 C 0.74476 0.06659 0.90901 0.0
C260 C 0.68214 0.03215 0.86009 0.0
C261 C 0.72253 0.99199 0.91873 0.0
O262 O 0.71217 0.01168 0.92003 0.0
O263 O 0.73228 0.98572 0.89962 0.0
O264 O 0.72352 0.06641 0.91692 0.0
O265 O 0.75048 0.0512 0.8933 0.0
O266 O 0.29606 0.48886 0.85351 0.0
Cd267 Cd 0.26317 0.50015 0.86501 0.0
Cd268 Cd 0.26605 0.46065 0.8888 0.0
O269 O 0.29112 0.45211 0.86461 0.0
O270 O 0.25087 0.52114 0.83983 0.0
O271 O 0.23669 0.48556 0.84692 0.0
C272 C 0.23708 0.50414 0.83383 0.0
C273 C 0.2385 0.43302 0.901 0.0
C274 C 0.30262 0.46746 0.85325 0.0
C275 C 0.26794 0.50519 0.91603 0.0
O276 O 0.27496 0.48409 0.91454 0.0
O277 O 0.25889 0.51524 0.89824 0.0
O278 O 0.26023 0.43162 0.9072 0.0
O279 O 0.23248 0.44966 0.88677 0.0
O280 O 0.63919 0.69972 0.99331 0.0
Cd281 Cd 0.63201 0.73201 0.00883 0.0
Cd282 Cd 0.6077 0.73804 0.96909 0.0
O283 O 0.63203 0.71385 0.95803 0.0
O284 O 0.65926 0.74008 0.02927 0.0
O285 O 0.65133 0.75843 0.99581 0.0
C286 C 0.66531 0.75522 0.01346 0.0
C287 C 0.59375 0.7645 0.94095 0.0
C288 C 0.64076 0.69803 0.97109 0.0
C289 C 0.58149 0.73147 0.01471 0.0
O290 O 0.58209 0.72815 0.99267 0.0
O291 O 0.60006 0.73713 0.02571 0.0
O292 O 0.58803 0.74264 0.94063 0.0
O293 O 0.60815 0.77148 0.95704 0.0
O294 O 0.63154 0.30395 0.50736 0.0
Cd295 Cd 0.62159 0.26997 0.49818 0.0
Cd296 Cd 0.59222 0.27705 0.53386 0.0
O297 O 0.61438 0.30405 0.54205 0.0
O298 O 0.64836 0.2572 0.47952 0.0
O299 O 0.63977 0.24514 0.5155 0.0
C300 C 0.65376 0.24462 0.49761 0.0
C301 C 0.58119 0.24995 0.5623 0.0
C302 C 0.62838 0.31336 0.52742 0.0
C303 C 0.57055 0.27157 0.48703 0.0
O304 O 0.56868 0.28129 0.50699 0.0
O305 O 0.59013 0.26287 0.48062 0.0
O306 O 0.57237 0.27083 0.56185 0.0
O307 O 0.59704 0.24465 0.54692 0.0
O308 O 0.35113 0.1975 0.50508 0.0
Cd309 Cd 0.36055 0.23178 0.4963 0.0
Cd310 Cd 0.39028 0.22419 0.53152 0.0
O311 O 0.3678 0.19759 0.53999 0.0
O312 O 0.33368 0.24392 0.4774 0.0
O313 O 0.3415 0.25603 0.51354 0.0
C314 C 0.32768 0.2562 0.4955 0.0
C315 C 0.40265 0.2508 0.5599 0.0
C316 C 0.35405 0.18816 0.5252 0.0
C317 C 0.41134 0.23009 0.4847 0.0
O318 O 0.41317 0.21944 0.50417 0.0
O319 O 0.39197 0.23967 0.47896 0.0
O320 O 0.41088 0.2297 0.55912 0.0
O321 O 0.38661 0.25662 0.54489 0.0
O322 O 0.85476 0.28561 0.48919 0.0
Cd323 Cd 0.85911 0.25274 0.5035 0.0
Cd324 Cd 0.88546 0.24534 0.46046 0.0
O325 O 0.86858 0.27696 0.45396 0.0
O326 O 0.83121 0.24673 0.52371 0.0
O327 O 0.8375 0.22849 0.48984 0.0
C328 C 0.82384 0.23258 0.50756 0.0
C329 C 0.89852 0.22473 0.42736 0.0
C330 C 0.85817 0.29108 0.46781 0.0
C331 C 0.90884 0.24058 0.50967 0.0
O332 O 0.90924 0.24079 0.48738 0.0
O333 O 0.88999 0.24461 0.52089 0.0
O334 O 0.90802 0.24415 0.43388 0.0
O335 O 0.88055 0.2173 0.43904 0.0
O336 O 0.51168 0.86276 0.80327 0.0
Cd337 Cd 0.50162 0.87058 0.76894 0.0
Cd338 Cd 0.5371 0.90122 0.77449 0.0
O339 O 0.54607 0.88055 0.80234 0.0
O340 O 0.48201 0.84328 0.75895 0.0
O341 O 0.51746 0.85036 0.7446 0.0
C342 C 0.49932 0.83672 0.74586 0.0
C343 C 0.56539 0.91294 0.74743 0.0
C344 C 0.53168 0.86686 0.81245 0.0
C345 C 0.48953 0.92137 0.76892 0.0
O346 O 0.50952 0.924 0.7784 0.0
O347 O 0.48353 0.90148 0.76065 0.0
O348 O 0.56431 0.9221 0.76811 0.0
O349 O 0.55075 0.89634 0.74229 0.0
O350 O 0.48548 0.63704 0.79438 0.0
Cd351 Cd 0.49678 0.63054 0.7602 0.0
Cd352 Cd 0.45981 0.60012 0.76287 0.0
O353 O 0.45071 0.62036 0.79094 0.0
O354 O 0.51718 0.65795 0.75238 0.0
O355 O 0.48221 0.65219 0.73633 0.0
C356 C 0.50043 0.6655 0.73909 0.0
C357 C 0.43018 0.58781 0.73744 0.0
C358 C 0.46491 0.63323 0.8023 0.0
C359 C 0.50772 0.57961 0.75824 0.0
O360 O 0.48716 0.57699 0.76642 0.0
O361 O 0.51464 0.5997 0.7513 0.0
O362 O 0.43259 0.57884 0.75808 0.0
O363 O 0.44444 0.60437 0.73127 0.0
O364 O 0.50309 0.14139 0.69511 0.0
Cd365 Cd 0.49417 0.13225 0.72937 0.0
Cd366 Cd 0.53089 0.10384 0.72249 0.0
O367 O 0.53879 0.12645 0.69581 0.0
O368 O 0.47328 0.15825 0.74007 0.0
O369 O 0.50939 0.15303 0.75359 0.0
C370 C 0.49056 0.16574 0.75271 0.0
C371 C 0.55947 0.09259 0.74943 0.0
C372 C 0.52345 0.13935 0.68605 0.0
C373 C 0.48477 0.08102 0.72804 0.0
O374 O 0.50443 0.07991 0.71763 0.0
O375 O 0.47814 0.10021 0.73743 0.0
O376 O 0.55916 0.08424 0.72837 0.0
O377 O 0.54388 0.10816 0.75501 0.0
O378 O 0.48333 0.35917 0.69078 0.0
Cd379 Cd 0.49326 0.36886 0.72461 0.0
Cd380 Cd 0.45732 0.39903 0.71747 0.0
O381 O 0.44892 0.37692 0.6905 0.0
O382 O 0.51292 0.34201 0.73558 0.0
O383 O 0.47762 0.34977 0.74993 0.0
C384 C 0.49565 0.33596 0.74897 0.0
C385 C 0.42832 0.41098 0.74368 0.0
C386 C 0.46335 0.36263 0.68132 0.0
C387 C 0.5049 0.41977 0.72267 0.0
O388 O 0.48479 0.42196 0.71331 0.0
O389 O 0.51119 0.40016 0.73139 0.0
O390 O 0.42967 0.41969 0.72281 0.0
O391 O 0.44322 0.39485 0.74955 0.0
O392 O 0.79791 0.51203 0.85656 0.0
Cd393 Cd 0.76432 0.50133 0.86583 0.0
Cd394 Cd 0.76402 0.54169 0.88784 0.0
O395 O 0.78659 0.54873 0.86051 0.0
O396 O 0.75211 0.48084 0.84027 0.0
O397 O 0.73925 0.51707 0.84685 0.0
C398 C 0.73921 0.49841 0.83385 0.0
C399 C 0.73804 0.5712 0.89901 0.0
C400 C 0.80097 0.53375 0.85241 0.0
C401 C 0.76627 0.49848 0.91682 0.0
O402 O 0.77371 0.51945 0.9149 0.0
O403 O 0.75781 0.488 0.89901 0.0
O404 O 0.76024 0.57288 0.90303 0.0
O405 O 0.73039 0.55279 0.88815 0.0
O406 O 0.21422 0.99305 0.86313 0.0
Cd407 Cd 0.24745 0.00652 0.86745 0.0
Cd408 Cd 0.25479 0.96256 0.89178 0.0
O409 O 0.22267 0.95719 0.87542 0.0
O410 O 0.25403 0.02692 0.83982 0.0
O411 O 0.2712 0.99239 0.84562 0.0
C412 C 0.26766 0.01042 0.83222 0.0
C413 C 0.27551 0.92882 0.90298 0.0
C414 C 0.20853 0.97162 0.86585 0.0
C415 C 0.26091 0.01078 0.91693 0.0
O416 O 0.26045 0.98849 0.91641 0.0
O417 O 0.25639 0.02279 0.89869 0.0
O418 O 0.25634 0.93504 0.91319 0.0
O419 O 0.28252 0.94115 0.88528 0.0
O420 O 0.79687 0.48437 0.64454 0.0
Cd421 Cd 0.7642 0.49664 0.63358 0.0
Cd422 Cd 0.76764 0.45896 0.60647 0.0
O423 O 0.7928 0.44875 0.62995 0.0
O424 O 0.75306 0.51721 0.65956 0.0
O425 O 0.73732 0.48251 0.65153 0.0
C426 C 0.73861 0.50065 0.66517 0.0
C427 C 0.73969 0.43218 0.59327 0.0
C428 C 0.80381 0.46316 0.64292 0.0
C429 C 0.76954 0.50575 0.58311 0.0
O430 O 0.77627 0.48451 0.58263 0.0
O431 O 0.76052 0.51429 0.60167 0.0
O432 O 0.76122 0.43122 0.5863 0.0
O433 O 0.7341 0.44801 0.60857 0.0
O434 O 0.19565 0.00926 0.64116 0.0
Cd435 Cd 0.22972 0.00127 0.63043 0.0
Cd436 Cd 0.21976 0.03585 0.60048 0.0
O437 O 0.19347 0.04368 0.62359 0.0
O438 O 0.24331 0.98267 0.65683 0.0
O439 O 0.25435 0.01904 0.64848 0.0
C440 C 0.25549 0.00102 0.66227 0.0
C441 C 0.24603 0.06448 0.58805 0.0
C442 C 0.18532 0.02888 0.63811 0.0
C443 C 0.22677 0.9891 0.57967 0.0
O444 O 0.21543 0.0082 0.57786 0.0
O445 O 0.23692 0.98389 0.5989 0.0
O446 O 0.22488 0.06358 0.57993 0.0
O447 O 0.25206 0.04946 0.604 0.0
O448 O 0.86097 0.80803 0.50813 0.0
Cd449 Cd 0.87142 0.77484 0.49685 0.0
Cd450 Cd 0.8974 0.77827 0.53542 0.0
O451 O 0.87421 0.80425 0.54429 0.0
O452 O 0.84553 0.76379 0.47602 0.0
O453 O 0.85248 0.74882 0.51127 0.0
C454 C 0.83919 0.74998 0.49287 0.0
C455 C 0.90841 0.74995 0.5628 0.0
C456 C 0.86198 0.81529 0.52926 0.0
C457 C 0.92254 0.77827 0.48955 0.0
O458 O 0.92247 0.78554 0.51062 0.0
O459 O 0.90393 0.76976 0.48055 0.0
O460 O 0.91617 0.77121 0.564 0.0
O461 O 0.89354 0.74491 0.5464 0.0
O462 O 0.85583 0.19466 0.99083 0.0
Cd463 Cd 0.86638 0.22827 0.00071 0.0
Cd464 Cd 0.89625 0.22061 0.96509 0.0
O465 O 0.87353 0.19422 0.95642 0.0
O466 O 0.83964 0.24062 0.01969 0.0
O467 O 0.84856 0.25399 0.98428 0.0
C468 C 0.83445 0.25395 0.00209 0.0
C469 C 0.90858 0.24739 0.93685 0.0
C470 C 0.85904 0.18526 0.97079 0.0
C471 C 0.91735 0.22555 0.01228 0.0
O472 O 0.91924 0.21579 0.99234 0.0
O473 O 0.89786 0.23458 0.01852 0.0
O474 O 0.91678 0.22626 0.93746 0.0
O475 O 0.89261 0.25313 0.95195 0.0
O476 O 0.13265 0.30534 0.98978 0.0
Cd477 Cd 0.12549 0.27059 0.99861 0.0
Cd478 Cd 0.09462 0.27658 0.96427 0.0
O479 O 0.11577 0.304 0.95501 0.0
O480 O 0.15367 0.26003 0.01653 0.0
O481 O 0.14551 0.24786 0.98048 0.0
C482 C 0.15994 0.24852 0.99802 0.0
C483 C 0.08324 0.24887 0.93656 0.0
C484 C 0.12918 0.31425 0.96956 0.0
C485 C 0.07517 0.26979 0.01165 0.0
O486 O 0.07238 0.28045 0.99228 0.0
O487 O 0.09505 0.26093 0.01677 0.0
O488 O 0.07379 0.26947 0.93721 0.0
O489 O 0.09985 0.2442 0.95135 0.0
O490 O 0.63898 0.20885 0.00664 0.0
Cd491 Cd 0.63091 0.24319 0.99702 0.0
Cd492 Cd 0.6042 0.23963 0.03591 0.0
O493 O 0.62568 0.21171 0.04286 0.0
O494 O 0.65736 0.25301 0.97634 0.0
O495 O 0.65194 0.26717 0.01219 0.0
C496 C 0.66491 0.26567 0.99358 0.0
C497 C 0.59287 0.26386 0.06692 0.0
C498 C 0.63722 0.20062 0.02735 0.0
C499 C 0.57981 0.24362 0.98941 0.0
O500 O 0.57918 0.23587 0.01029 0.0
O501 O 0.599 0.25099 0.98067 0.0
O502 O 0.58461 0.24292 0.06457 0.0
O503 O 0.60831 0.27098 0.05188 0.0
O504 O 0.49228 0.13438 0.2004 0.0
Cd505 Cd 0.50409 0.12614 0.23408 0.0
Cd506 Cd 0.46784 0.09583 0.23048 0.0
O507 O 0.45781 0.11701 0.20344 0.0
O508 O 0.52419 0.15326 0.24354 0.0
O509 O 0.48938 0.14605 0.25934 0.0
C510 C 0.50746 0.15968 0.25744 0.0
C511 C 0.43972 0.08342 0.25739 0.0
C512 C 0.47166 0.13062 0.19254 0.0
C513 C 0.51554 0.07521 0.23335 0.0
O514 O 0.49497 0.07283 0.22514 0.0
O515 O 0.52231 0.09501 0.24123 0.0
O516 O 0.44072 0.07479 0.23649 0.0
O517 O 0.4545 0.09974 0.26295 0.0
O518 O 0.51634 0.35886 0.21012 0.0
Cd519 Cd 0.50626 0.36561 0.24458 0.0
Cd520 Cd 0.54312 0.39542 0.24054 0.0
O521 O 0.55159 0.37471 0.21247 0.0
O522 O 0.48604 0.33832 0.25319 0.0
O523 O 0.52152 0.34406 0.2681 0.0
C524 C 0.5032 0.33077 0.26594 0.0
C525 C 0.57277 0.40829 0.26576 0.0
C526 C 0.53675 0.36214 0.20157 0.0
C527 C 0.49536 0.41633 0.24559 0.0
O528 O 0.51574 0.41858 0.23686 0.0
O529 O 0.48855 0.39653 0.25337 0.0
O530 O 0.57033 0.41682 0.24494 0.0
O531 O 0.55871 0.39165 0.27216 0.0
O532 O 0.49707 0.85458 0.30353 0.0
Cd533 Cd 0.50541 0.86419 0.26926 0.0
Cd534 Cd 0.46952 0.8936 0.27745 0.0
O535 O 0.46189 0.87071 0.30399 0.0
O536 O 0.52495 0.83766 0.25734 0.0
O537 O 0.48865 0.84455 0.24513 0.0
C538 C 0.50697 0.8311 0.24516 0.0
C539 C 0.44015 0.90593 0.25185 0.0
C540 C 0.477 0.85709 0.3131 0.0
C541 C 0.5163 0.91514 0.27103 0.0
O542 O 0.49679 0.91674 0.28169 0.0
O543 O 0.52228 0.89585 0.26143 0.0
O544 O 0.44157 0.91404 0.27296 0.0
O545 O 0.45512 0.89009 0.24543 0.0
O546 O 0.51225 0.63964 0.30719 0.0
Cd547 Cd 0.50213 0.62895 0.2737 0.0
Cd548 Cd 0.53888 0.60057 0.2804 0.0
O549 O 0.54763 0.62398 0.3061 0.0
O550 O 0.48183 0.65496 0.26189 0.0
O551 O 0.51752 0.64783 0.24813 0.0
C552 C 0.49912 0.66118 0.24861 0.0
C553 C 0.56672 0.58867 0.253 0.0
C554 C 0.53282 0.63757 0.31574 0.0
C555 C 0.49235 0.57787 0.27744 0.0
O556 O 0.51254 0.57691 0.28683 0.0
O557 O 0.48536 0.59679 0.26778 0.0
O558 O 0.56699 0.58081 0.27425 0.0
O559 O 0.5509 0.604 0.24743 0.0
O560 O 0.20625 0.49535 0.1437 0.0
Cd561 Cd 0.23975 0.50628 0.13558 0.0
Cd562 Cd 0.24503 0.46203 0.11812 0.0
O563 O 0.21448 0.458 0.1374 0.0
O564 O 0.25089 0.52736 0.16122 0.0
O565 O 0.26395 0.49099 0.15589 0.0
C566 C 0.26335 0.50984 0.1686 0.0
C567 C 0.27108 0.43054 0.11574 0.0
C568 C 0.20063 0.47377 0.14507 0.0
C569 C 0.2482 0.50382 0.0847 0.0
O570 O 0.24599 0.48183 0.0879 0.0
O571 O 0.24741 0.51799 0.10194 0.0
O572 O 0.25061 0.42966 0.10617 0.0
O573 O 0.27657 0.44897 0.12776 0.0
O574 O 0.79726 0.01663 0.13571 0.0
Cd575 Cd 0.76304 0.00529 0.12939 0.0
Cd576 Cd 0.76582 0.0418 0.09881 0.0
O577 O 0.79357 0.05148 0.11927 0.0
O578 O 0.75542 0.98487 0.15683 0.0
O579 O 0.73929 0.01982 0.15121 0.0
C580 C 0.74216 0.0016 0.16448 0.0
C581 C 0.73949 0.07053 0.08634 0.0
C582 C 0.80503 0.03729 0.13206 0.0
C583 C 0.7615 0.9939 0.07861 0.0
O584 O 0.77004 0.01431 0.07596 0.0
O585 O 0.75408 0.9873 0.09863 0.0
O586 O 0.76023 0.06878 0.07743 0.0
O587 O 0.73378 0.05618 0.103 0.0
O588 O 0.19668 0.51262 0.35861 0.0
Cd589 Cd 0.23005 0.50222 0.36938 0.0
Cd590 Cd 0.22339 0.53783 0.39846 0.0
O591 O 0.19782 0.54755 0.37523 0.0
O592 O 0.24264 0.48309 0.34291 0.0
O593 O 0.25594 0.51857 0.35182 0.0
C594 C 0.256 0.5007 0.33779 0.0
C595 C 0.25158 0.5646 0.411 0.0
C596 C 0.18816 0.53315 0.36122 0.0
C597 C 0.22541 0.49059 0.41979 0.0
O598 O 0.21638 0.51091 0.42131 0.0
O599 O 0.23527 0.48408 0.40082 0.0
O600 O 0.23034 0.56527 0.41888 0.0
O601 O 0.25668 0.54903 0.39527 0.0
O602 O 0.80732 0.99474 0.36048 0.0
Cd603 Cd 0.77296 0.0039 0.36917 0.0
Cd604 Cd 0.77933 0.96751 0.39841 0.0
O605 O 0.80665 0.95955 0.3766 0.0
O606 O 0.76186 0.02376 0.34249 0.0
O607 O 0.74882 0.9877 0.34905 0.0
C608 C 0.74932 0.00611 0.33574 0.0
C609 C 0.75288 0.9386 0.40993 0.0
C610 C 0.81651 0.97454 0.36338 0.0
C611 C 0.77318 0.01406 0.42042 0.0
O612 O 0.78331 0.99428 0.4221 0.0
O613 O 0.76459 0.0206 0.40084 0.0
O614 O 0.77385 0.93951 0.41847 0.0
O615 O 0.74713 0.95373 0.394 0.0
O616 O 0.13778 0.19653 0.48998 0.0
Cd617 Cd 0.12661 0.22949 0.50111 0.0
Cd618 Cd 0.10241 0.2268 0.46167 0.0
O619 O 0.12605 0.20099 0.45338 0.0
O620 O 0.15207 0.24142 0.52199 0.0
O621 O 0.14501 0.25573 0.48647 0.0
C622 C 0.15823 0.25508 0.50495 0.0
C623 C 0.09214 0.25512 0.434 0.0
C624 C 0.13766 0.18967 0.46869 0.0
C625 C 0.07545 0.22546 0.50662 0.0
O626 O 0.07639 0.21899 0.48531 0.0
O627 O 0.09363 0.23376 0.51663 0.0
O628 O 0.08467 0.23379 0.43244 0.0
O629 O 0.10631 0.26027 0.45097 0.0
O630 O 0.14043 0.80732 0.01151 0.0
Cd631 Cd 0.1298 0.77332 0.00306 0.0
Cd632 Cd 0.09992 0.78244 0.03765 0.0
O633 O 0.1228 0.80876 0.04591 0.0
O634 O 0.15656 0.75955 0.98512 0.0
O635 O 0.14722 0.7486 0.02126 0.0
C636 C 0.16146 0.74736 0.00361 0.0
C637 C 0.08807 0.75547 0.06584 0.0
C638 C 0.1373 0.81728 0.03129 0.0
C639 C 0.07907 0.77617 0.99084 0.0
O640 O 0.07719 0.78706 0.01018 0.0
O641 O 0.09838 0.76627 0.9854 0.0
O642 O 0.0796 0.7765 0.06538 0.0
O643 O 0.10397 0.74994 0.05059 0.0
O644 O 0.86082 0.7024 0.0137 0.0
Cd645 Cd 0.86935 0.7371 0.00615 0.0
Cd646 Cd 0.89987 0.72855 0.04069 0.0
O647 O 0.87755 0.70157 0.04857 0.0
O648 O 0.84192 0.749 0.9879 0.0
O649 O 0.84976 0.76023 0.02431 0.0
C650 C 0.8357 0.76044 0.00646 0.0
C651 C 0.91247 0.75428 0.0698 0.0
C652 C 0.86384 0.69249 0.03352 0.0
C653 C 0.91982 0.73645 0.99353 0.0
O654 O 0.92215 0.72515 0.0126 0.0
O655 O 0.90025 0.74604 0.98852 0.0
O656 O 0.92096 0.73333 0.06809 0.0
O657 O 0.89608 0.76043 0.0553 0.0
O658 O 0.36101 0.7908 0.99782 0.0
Cd659 Cd 0.36564 0.75792 0.01208 0.0
Cd660 Cd 0.39142 0.75002 0.96963 0.0
O661 O 0.375 0.78173 0.96279 0.0
O662 O 0.33745 0.75096 0.03154 0.0
O663 O 0.34501 0.73336 0.99758 0.0
C664 C 0.33084 0.73684 0.01502 0.0
C665 C 0.4025 0.72831 0.93659 0.0
C666 C 0.36454 0.79603 0.9764 0.0
C667 C 0.41526 0.74552 0.01844 0.0
O668 O 0.41564 0.74547 0.99615 0.0
O669 O 0.39646 0.74991 0.02961 0.0
O670 O 0.41295 0.74751 0.9423 0.0
O671 O 0.38488 0.72167 0.94924 0.0
H672 H 0.98084 0.19833 0.21776 0.0
H673 H 0.04805 0.32122 0.2289 0.0
H674 H 0.05395 0.20533 0.23666 0.0
H675 H 0.97272 0.31346 0.23302 0.0
H676 H 0.05136 0.27939 0.21932 0.0
H677 H 0.97901 0.24081 0.21101 0.0
C678 C 0.99667 0.20868 0.21991 0.0
C679 C 0.01751 0.19831 0.2281 0.0
C680 C 0.03408 0.28697 0.22186 0.0
C681 C 0.01548 0.24689 0.2205 0.0
C682 C 0.03216 0.31089 0.22717 0.0
C683 C 0.01009 0.32078 0.2321 0.0
C684 C 0.01379 0.27292 0.22128 0.0
C685 C 0.99011 0.3065 0.22964 0.0
C686 C 0.99556 0.23295 0.21619 0.0
C687 C 0.03745 0.21263 0.23063 0.0
N688 N 0.99245 0.28324 0.22467 0.0
N689 N 0.03588 0.23622 0.22709 0.0
H690 H 0.04049 0.69235 0.27857 0.0
H691 H 0.05013 0.81162 0.26232 0.0
H692 H 0.9674 0.70469 0.26248 0.0
H693 H 0.97586 0.8159 0.2769 0.0
H694 H 0.04912 0.76981 0.27101 0.0
H695 H 0.04503 0.73407 0.2877 0.0
C696 C 0.0253 0.70376 0.27729 0.0
C697 C 0.00365 0.69507 0.26922 0.0
C698 C 0.03315 0.77988 0.27319 0.0
C699 C 0.00892 0.74309 0.27878 0.0
C700 C 0.03372 0.80388 0.26807 0.0
C701 C 0.01301 0.81727 0.26866 0.0
C702 C 0.01162 0.76908 0.27875 0.0
C703 C 0.99225 0.80626 0.27616 0.0
C704 C 0.02799 0.7277 0.28219 0.0
C705 C 0.98453 0.71066 0.26822 0.0
N706 N 0.99198 0.78271 0.28039 0.0
N707 N 0.9877 0.73393 0.27259 0.0
H708 H 0.23032 0.96772 0.18939 0.0
H709 H 0.23056 0.03871 0.31054 0.0
H710 H 0.24492 0.0419 0.19533 0.0
H711 H 0.23683 0.96332 0.30518 0.0
H712 H 0.22344 0.04064 0.26815 0.0
H713 H 0.22028 0.96685 0.23121 0.0
C714 C 0.23081 0.98396 0.19931 0.0
C715 C 0.23882 0.00485 0.18891 0.0
C716 C 0.2259 0.02364 0.27635 0.0
C717 C 0.22752 0.00391 0.23679 0.0
C718 C 0.22982 0.0225 0.30058 0.0
C719 C 0.23465 0.00084 0.31137 0.0
C720 C 0.22666 0.00297 0.26286 0.0
C721 C 0.2335 0.98042 0.29754 0.0
C722 C 0.22522 0.98341 0.22323 0.0
C723 C 0.23912 0.02534 0.20268 0.0
N724 N 0.2299 0.98201 0.27398 0.0
N725 N 0.23387 0.0243 0.22596 0.0
H726 H 0.77041 0.4689 0.19258 0.0
H727 H 0.76808 0.54919 0.30464 0.0
H728 H 0.77364 0.54457 0.18894 0.0
H729 H 0.78273 0.47485 0.30772 0.0
H730 H 0.77567 0.54853 0.26243 0.0
H731 H 0.78058 0.47087 0.23421 0.0
C732 C 0.77377 0.48592 0.20043 0.0
C733 C 0.77083 0.50662 0.18735 0.0
C734 C 0.77773 0.53243 0.27237 0.0
C735 C 0.782 0.50905 0.23517 0.0
C736 C 0.7734 0.53281 0.29651 0.0
C737 C 0.77444 0.51198 0.30966 0.0
C738 C 0.78269 0.51097 0.26121 0.0
C739 C 0.78157 0.4913 0.29824 0.0
C740 C 0.77957 0.48705 0.22423 0.0
C741 C 0.77556 0.52817 0.19839 0.0
N742 N 0.78494 0.49122 0.27458 0.0
N743 N 0.78042 0.52886 0.22178 0.0
H744 H 0.30783 0.2323 0.02475 0.0
H745 H 0.18436 0.23876 0.95776 0.0
H746 H 0.29922 0.25959 0.95454 0.0
H747 H 0.19141 0.23936 0.03322 0.0
H748 H 0.227 0.23377 0.9543 0.0
H749 H 0.26588 0.22253 0.02557 0.0
C750 C 0.29726 0.23574 0.0093 0.0
C751 C 0.30698 0.24703 0.98964 0.0
C752 C 0.21912 0.23451 0.97161 0.0
C753 C 0.25906 0.23586 0.99049 0.0
C754 C 0.19476 0.23716 0.97361 0.0
C755 C 0.18435 0.23974 0.99582 0.0
C756 C 0.23308 0.23414 0.99195 0.0
C757 C 0.19875 0.23768 0.01576 0.0
C758 C 0.27331 0.23027 0.00984 0.0
C759 C 0.2924 0.25113 0.97016 0.0
N760 N 0.22241 0.23523 0.01335 0.0
N761 N 0.26914 0.24571 0.97113 0.0
H762 H 0.32015 0.76701 0.45639 0.0
H763 H 0.19716 0.77707 0.52352 0.0
H764 H 0.3121 0.76172 0.53158 0.0
H765 H 0.20414 0.76257 0.44943 0.0
H766 H 0.23969 0.78318 0.52583 0.0
H767 H 0.27844 0.77711 0.45312 0.0
C768 C 0.30978 0.76855 0.47227 0.0
C769 C 0.31956 0.76318 0.49427 0.0
C770 C 0.23183 0.77909 0.50899 0.0
C771 C 0.27181 0.77457 0.49062 0.0
C772 C 0.20753 0.77573 0.50761 0.0
C773 C 0.19711 0.76895 0.4863 0.0
C774 C 0.24579 0.77578 0.48889 0.0
C775 C 0.21146 0.76748 0.46628 0.0
C776 C 0.28593 0.77418 0.47037 0.0
C777 C 0.30524 0.76543 0.51424 0.0
N778 N 0.23509 0.77058 0.46812 0.0
N779 N 0.28203 0.77068 0.51191 0.0
H780 H 0.81489 0.73059 0.52965 0.0
H781 H 0.69374 0.73365 0.45867 0.0
H782 H 0.80937 0.745 0.45542 0.0
H783 H 0.69926 0.73966 0.53403 0.0
H784 H 0.73598 0.72555 0.45672 0.0
H785 H 0.77283 0.72157 0.53052 0.0
C786 C 0.805 0.73125 0.5134 0.0
C787 C 0.81561 0.73891 0.49249 0.0
C788 C 0.72783 0.72818 0.47371 0.0
C789 C 0.76744 0.7288 0.49344 0.0
C790 C 0.70369 0.73265 0.47486 0.0
C791 C 0.69301 0.73768 0.49653 0.0
C792 C 0.74135 0.72858 0.49438 0.0
C793 C 0.70682 0.73618 0.51693 0.0
C794 C 0.78094 0.72625 0.51396 0.0
C795 C 0.80186 0.73946 0.472 0.0
N796 N 0.73031 0.73205 0.51533 0.0
N797 N 0.77844 0.73479 0.47304 0.0
H798 H 0.04116 0.7969 0.78275 0.0
H799 H 0.96233 0.68147 0.76851 0.0
H800 H 0.96692 0.79756 0.76729 0.0
H801 H 0.03782 0.68261 0.76125 0.0
H802 H 0.96336 0.72276 0.78062 0.0
H803 H 0.0393 0.75413 0.78747 0.0
C804 C 0.02434 0.78816 0.78099 0.0
C805 C 0.00422 0.80077 0.77429 0.0
C806 C 0.97973 0.71381 0.77682 0.0
C807 C 0.00202 0.7519 0.77953 0.0
C808 C 0.97918 0.6902 0.77005 0.0
C809 C 1.0 0.67867 0.76352 0.0
C810 C 0.00125 0.72591 0.77724 0.0
C811 C 0.02132 0.6909 0.76583 0.0
C812 C 0.02333 0.76373 0.78352 0.0
C813 C 0.98292 0.78849 0.77216 0.0
N814 N 0.02137 0.71393 0.77223 0.0
N815 N 0.98243 0.76471 0.77451 0.0
H816 H 0.95772 0.18429 0.74088 0.0
H817 H 0.03618 0.29821 0.73633 0.0
H818 H 0.03298 0.18224 0.73181 0.0
H819 H 0.96061 0.2999 0.73033 0.0
H820 H 0.03544 0.25594 0.72894 0.0
H821 H 0.9581 0.22612 0.7313 0.0
C822 C 0.97428 0.19252 0.73637 0.0
C823 C 0.99539 0.17979 0.73746 0.0
C824 C 0.01903 0.26559 0.72876 0.0
C825 C 0.99602 0.22789 0.72694 0.0
C826 C 0.01945 0.28977 0.73296 0.0
C827 C 0.9984 0.30258 0.73426 0.0
C828 C 0.99736 0.25401 0.72626 0.0
C829 C 0.97726 0.29072 0.72961 0.0
C830 C 0.97449 0.21646 0.73092 0.0
C831 C 0.0163 0.19138 0.73132 0.0
N832 N 0.97724 0.26703 0.72629 0.0
N833 N 0.01614 0.21486 0.72679 0.0
H834 H 0.75818 0.96263 0.80614 0.0
H835 H 0.76128 0.0437 0.69418 0.0
H836 H 0.76608 0.03794 0.81009 0.0
H837 H 0.76982 0.96844 0.69076 0.0
H838 H 0.76854 0.0422 0.73645 0.0
H839 H 0.76789 0.9642 0.76438 0.0
C840 C 0.76246 0.97946 0.79833 0.0
C841 C 0.76101 1.00022 0.81158 0.0
C842 C 0.76932 0.02605 0.72642 0.0
C843 C 0.77168 0.00221 0.76357 0.0
C844 C 0.7652 0.0269 0.70224 0.0
C845 C 0.76464 0.00613 0.68894 0.0
C846 C 0.77247 0.0042 0.7375 0.0
C847 C 0.76996 0.98488 0.70032 0.0
C848 C 0.76799 0.98035 0.77444 0.0
C849 C 0.76686 0.0215 0.80054 0.0
N850 N 0.77317 0.98441 0.72401 0.0
N851 N 0.77147 0.02201 0.77708 0.0
H852 H 0.21723 0.4673 0.81 0.0
H853 H 0.21623 0.53894 0.68933 0.0
H854 H 0.23057 0.54176 0.8045 0.0
H855 H 0.22413 0.46368 0.69443 0.0
H856 H 0.20871 0.54053 0.73168 0.0
H857 H 0.20691 0.46655 0.76826 0.0
C858 C 0.21737 0.48362 0.80021 0.0
C859 C 0.22515 0.50456 0.81068 0.0
C860 C 0.2116 0.52362 0.72342 0.0
C861 C 0.21354 0.50376 0.76289 0.0
C862 C 0.21574 0.52267 0.69922 0.0
C863 C 0.22117 0.50117 0.68839 0.0
C864 C 0.21274 0.50291 0.73682 0.0
C865 C 0.22034 0.48068 0.70211 0.0
C866 C 0.21163 0.48314 0.77633 0.0
C867 C 0.22498 0.52516 0.79708 0.0
N868 N 0.21653 0.48208 0.72564 0.0
N869 N 0.21961 0.52418 0.77382 0.0
H870 H 0.68887 0.77706 0.9776 0.0
H871 H 0.81141 0.7724 0.04627 0.0
H872 H 0.69611 0.75712 0.05039 0.0
H873 H 0.80481 0.76978 0.9708 0.0
H874 H 0.76899 0.77912 0.04925 0.0
H875 H 0.73083 0.78661 0.97656 0.0
C876 C 0.69913 0.77525 0.99354 0.0
C877 C 0.68903 0.76597 0.01404 0.0
C878 C 0.77693 0.77755 0.03202 0.0
C879 C 0.73704 0.77676 0.0129 0.0
C880 C 0.80117 0.77389 0.03029 0.0
C881 C 0.81163 0.77021 0.00825 0.0
C882 C 0.7631 0.77773 0.01157 0.0
C883 C 0.79744 0.77224 0.98816 0.0
C884 C 0.72311 0.78057 0.99287 0.0
C885 C 0.70322 0.76396 0.03413 0.0
N886 N 0.77388 0.7756 0.99031 0.0
N887 N 0.72655 0.76905 0.03299 0.0
H888 H 0.68344 0.23385 0.46137 0.0
H889 H 0.79334 0.23165 0.5447 0.0
H890 H 0.67721 0.22933 0.53677 0.0
H891 H 0.79795 0.21534 0.47083 0.0
H892 H 0.75076 0.22642 0.54278 0.0
H893 H 0.72478 0.22266 0.46452 0.0
C894 C 0.69065 0.23002 0.47856 0.0
C895 C 0.67692 0.2328 0.49886 0.0
C896 C 0.7611 0.22349 0.52708 0.0
C897 C 0.72442 0.22046 0.50265 0.0
C898 C 0.78545 0.22647 0.52818 0.0
C899 C 0.7992 0.2242 0.50783 0.0
C900 C 0.75036 0.21868 0.50538 0.0
C901 C 0.78803 0.21737 0.48693 0.0
C902 C 0.71428 0.22362 0.48036 0.0
C903 C 0.68717 0.22749 0.52066 0.0
N904 N 0.76421 0.21533 0.48612 0.0
N905 N 0.71042 0.22205 0.52203 0.0
H906 H 0.18785 0.26131 0.54236 0.0
H907 H 0.2978 0.26579 0.45909 0.0
H908 H 0.1825 0.27368 0.46778 0.0
H909 H 0.30331 0.27035 0.53454 0.0
H910 H 0.25589 0.27455 0.46201 0.0
H911 H 0.22974 0.27049 0.54047 0.0
C912 C 0.19536 0.26651 0.52567 0.0
C913 C 0.18169 0.26638 0.50514 0.0
C914 C 0.26631 0.27414 0.47792 0.0
C915 C 0.22983 0.27642 0.50274 0.0
C916 C 0.29029 0.26916 0.47625 0.0
C917 C 0.30403 0.26702 0.49663 0.0
C918 C 0.25586 0.27655 0.50016 0.0
C919 C 0.29337 0.2717 0.51838 0.0
C920 C 0.21934 0.27172 0.52459 0.0
C921 C 0.19237 0.27339 0.48403 0.0
N922 N 0.26982 0.27575 0.51961 0.0
N923 N 0.2159 0.27763 0.48328 0.0
H924 H 0.53703 0.81163 0.72938 0.0
H925 H 0.46354 0.69189 0.72283 0.0
H926 H 0.46193 0.80727 0.739 0.0
H927 H 0.53816 0.69518 0.73596 0.0
H928 H 0.4632 0.73453 0.71683 0.0
H929 H 0.53777 0.76961 0.71996 0.0
C930 C 0.52062 0.80199 0.72895 0.0
C931 C 0.49942 0.81292 0.73528 0.0
C932 C 0.47971 0.72583 0.72059 0.0
C933 C 0.50018 0.76485 0.72461 0.0
C934 C 0.47996 0.70146 0.72386 0.0
C935 C 0.50086 0.68999 0.73021 0.0
C936 C 0.50055 0.73876 0.7235 0.0
C937 C 0.52159 0.70335 0.73136 0.0
C938 C 0.52109 0.77797 0.72372 0.0
C939 C 0.47871 0.7995 0.73449 0.0
N940 N 0.52087 0.72704 0.7283 0.0
N941 N 0.47964 0.77614 0.72951 0.0
H942 H 0.4591 0.3141 0.77174 0.0
H943 H 0.45223 0.19405 0.75885 0.0
H944 H 0.53126 0.30367 0.75085 0.0
H945 H 0.52743 0.19253 0.76837 0.0
H946 H 0.45247 0.23615 0.76614 0.0
H947 H 0.45649 0.27241 0.78175 0.0
C948 C 0.47451 0.30312 0.76957 0.0
C949 C 0.49528 0.31232 0.75995 0.0
C950 C 0.46887 0.22664 0.7675 0.0
C951 C 0.49218 0.26433 0.77054 0.0
C952 C 0.46874 0.20248 0.76318 0.0
C953 C 0.48986 0.18974 0.76279 0.0
C954 C 0.49036 0.23827 0.77127 0.0
C955 C 0.51073 0.20165 0.76845 0.0
C956 C 0.4729 0.27919 0.77498 0.0
C957 C 0.51475 0.29729 0.75782 0.0
N958 N 0.51051 0.22532 0.77194 0.0
N959 N 0.51262 0.27401 0.76276 0.0
H960 H 0.72141 0.53592 0.80949 0.0
H961 H 0.71991 0.46351 0.68942 0.0
H962 H 0.73162 0.46092 0.80464 0.0
H963 H 0.73178 0.53825 0.69431 0.0
H964 H 0.71073 0.46272 0.73145 0.0
H965 H 0.71177 0.53684 0.7676 0.0
C966 C 0.72101 0.51954 0.79979 0.0
C967 C 0.72774 0.49835 0.8105 0.0
C968 C 0.71482 0.47937 0.72318 0.0
C969 C 0.71687 0.49934 0.76255 0.0
C970 C 0.7199 0.47987 0.69915 0.0
C971 C 0.727 0.50093 0.68844 0.0
C972 C 0.71669 0.50008 0.73649 0.0
C973 C 0.72672 0.52157 0.70195 0.0
C974 C 0.71563 0.52012 0.77584 0.0
C975 C 0.72688 0.47769 0.79702 0.0
N976 N 0.72199 0.52059 0.72533 0.0
N977 N 0.72189 0.47875 0.77368 0.0
H978 H 0.26722 0.96475 0.69156 0.0
H979 H 0.26895 0.04775 0.80193 0.0
H980 H 0.2702 0.04031 0.68591 0.0
H981 H 0.2846 0.97367 0.80612 0.0
H982 H 0.27425 0.04604 0.75938 0.0
H983 H 0.2785 0.9678 0.73285 0.0
C984 C 0.27074 0.98197 0.69888 0.0
C985 C 0.26748 0.00232 0.68533 0.0
C986 C 0.27701 0.03024 0.76962 0.0
C987 C 0.27992 0.00599 0.7328 0.0
C988 C 0.274 0.03122 0.79395 0.0
C989 C 0.27605 0.01076 0.80758 0.0
C990 C 0.28167 0.00856 0.75875 0.0
C991 C 0.28273 0.98986 0.79629 0.0
C992 C 0.27717 0.98371 0.7225 0.0
C993 C 0.2724 0.02416 0.69572 0.0
N994 N 0.28483 0.98919 0.77249 0.0
N995 N 0.2779 0.02545 0.71896 0.0
H996 H 0.6941 0.27043 0.95575 0.0
H997 H 0.81446 0.27746 0.96495 0.0
H998 H 0.69159 0.28065 0.0308 0.0
H999 H 0.80156 0.25764 0.03698 0.0
H1000 H 0.7734 0.28958 0.96142 0.0
H1001 H 0.73648 0.27578 0.95677 0.0
C1002 C 0.70241 0.27453 0.97238 0.0
C1003 C 0.68927 0.27488 0.99324 0.0
C1004 C 0.7795 0.28259 0.97801 0.0
C1005 C 0.73811 0.28111 0.99464 0.0
C1006 C 0.80308 0.27595 0.98013 0.0
C1007 C 0.81137 0.26603 0.00114 0.0
C1008 C 0.76405 0.27906 0.997 0.0
C1009 C 0.79587 0.2648 0.02031 0.0
C1010 C 0.72674 0.27774 0.97296 0.0
C1011 C 0.70101 0.2802 0.01428 0.0
N1012 N 0.77292 0.27093 0.01767 0.0
N1013 N 0.72482 0.28257 0.01451 0.0
H1014 H 0.4655 0.30137 0.27099 0.0
H1015 H 0.54526 0.18874 0.26357 0.0
H1016 H 0.54075 0.30402 0.2799 0.0
H1017 H 0.47042 0.18494 0.27507 0.0
H1018 H 0.54427 0.23048 0.27361 0.0
H1019 H 0.46673 0.25882 0.27669 0.0
C1020 C 0.48224 0.29306 0.27466 0.0
C1021 C 0.50309 0.30625 0.27472 0.0
C1022 C 0.52812 0.22046 0.2744 0.0
C1023 C 0.5047 0.25741 0.28074 0.0
C1024 C 0.52868 0.19659 0.26867 0.0
C1025 C 0.50785 0.18338 0.26825 0.0
C1026 C 0.5065 0.23135 0.2793 0.0
C1027 C 0.48689 0.19446 0.2751 0.0
C1028 C 0.48294 0.26873 0.27789 0.0
C1029 C 0.52425 0.29455 0.27963 0.0
N1030 N 0.48667 0.2179 0.27989 0.0
N1031 N 0.52458 0.27074 0.28197 0.0
H1032 H 0.54392 0.80151 0.23666 0.0
H1033 H 0.46168 0.69049 0.24131 0.0
H1034 H 0.46844 0.80591 0.23097 0.0
H1035 H 0.53668 0.68581 0.23119 0.0
H1036 H 0.46338 0.73229 0.23173 0.0
H1037 H 0.54167 0.75938 0.2288 0.0
C1038 C 0.5269 0.79371 0.23323 0.0
C1039 C 0.50631 0.80722 0.23479 0.0
C1040 C 0.47942 0.72206 0.23111 0.0
C1041 C 0.50354 0.7588 0.22629 0.0
C1042 C 0.47845 0.69814 0.23655 0.0
C1043 C 0.49911 0.68468 0.23737 0.0
C1044 C 0.50128 0.73273 0.22686 0.0
C1045 C 0.52032 0.69552 0.23092 0.0
C1046 C 0.52562 0.7696 0.22877 0.0
C1047 C 0.48476 0.79617 0.23006 0.0
N1048 N 0.52093 0.71901 0.22642 0.0
N1049 N 0.48389 0.77253 0.22651 0.0
H1050 H 0.26625 0.46411 0.30839 0.0
H1051 H 0.26812 0.54729 0.19851 0.0
H1052 H 0.27221 0.53946 0.31431 0.0
H1053 H 0.28049 0.47261 0.19382 0.0
H1054 H 0.27525 0.54538 0.24079 0.0
H1055 H 0.27709 0.46689 0.26699 0.0
C1056 C 0.27036 0.4812 0.3011 0.0
C1057 C 0.26802 0.50161 0.31475 0.0
C1058 C 0.27692 0.52948 0.23047 0.0
C1059 C 0.27992 0.50501 0.26715 0.0
C1060 C 0.27288 0.53058 0.20628 0.0
C1061 C 0.27334 0.51002 0.19264 0.0
C1062 C 0.28105 0.5076 0.24117 0.0
C1063 C 0.27974 0.48888 0.20366 0.0
C1064 C 0.27654 0.4828 0.27741 0.0
C1065 C 0.27369 0.52328 0.3044 0.0
N1066 N 0.28284 0.48813 0.22734 0.0
N1067 N 0.27887 0.52447 0.28109 0.0
H1068 H 0.73867 0.96372 0.19388 0.0
H1069 H 0.74118 0.04364 0.30679 0.0
H1070 H 0.72675 0.03856 0.19128 0.0
H1071 H 0.73404 0.96824 0.31019 0.0
H1072 H 0.73164 0.04225 0.26496 0.0
H1073 H 0.7327 0.96466 0.23638 0.0
C1074 C 0.73431 0.98029 0.20219 0.0
C1075 C 0.73346 0.00114 0.18902 0.0
C1076 C 0.7317 0.02604 0.27491 0.0
C1077 C 0.72709 0.00243 0.23782 0.0
C1078 C 0.73714 0.02682 0.29884 0.0
C1079 C 0.73866 0.006 0.31197 0.0
C1080 C 0.72818 0.00422 0.2639 0.0
C1081 C 0.73315 0.98472 0.30074 0.0
C1082 C 0.73092 0.98082 0.22649 0.0
C1083 C 0.72765 0.02207 0.20073 0.0
N1084 N 0.7286 0.98433 0.27726 0.0
N1085 N 0.72515 0.02226 0.22452 0.0
H1086 H 0.18332 0.73149 0.04347 0.0
H1087 H 0.30669 0.71834 0.97771 0.0
H1088 H 0.19232 0.73647 0.96836 0.0
H1089 H 0.29914 0.73552 0.05116 0.0
H1090 H 0.26414 0.71237 0.97523 0.0
H1091 H 0.22473 0.72037 0.0472 0.0
C1092 C 0.19381 0.72965 0.0277 0.0
C1093 C 0.18444 0.73528 0.00559 0.0
C1094 C 0.27188 0.71698 0.99199 0.0
C1095 C 0.23182 0.72269 0.00978 0.0
C1096 C 0.29619 0.72025 0.99347 0.0
C1097 C 0.30644 0.72779 0.0146 0.0
C1098 C 0.25778 0.72111 0.01183 0.0
C1099 C 0.29194 0.73002 0.03444 0.0
C1100 C 0.21749 0.72344 0.02987 0.0
C1101 C 0.1989 0.73259 0.98578 0.0
N1102 N 0.26832 0.72698 0.03251 0.0
N1103 N 0.22193 0.72677 0.98837 0.0
H1104 H 0.10832 0.30024 0.42801 0.0
H1105 H 0.0115 0.33159 0.33086 0.0
H1106 H 0.05659 0.25111 0.40219 0.0
H1107 H 0.07423 0.373 0.34136 0.0
H1108 H 0.02455 0.30487 0.3618 0.0
H1109 H 0.09322 0.32976 0.40042 0.0
C1110 C 0.09383 0.29566 0.41655 0.0
C1111 C 0.08379 0.27315 0.41728 0.0
C1112 C 0.03538 0.3199 0.35743 0.0
C1113 C 0.06629 0.30681 0.38604 0.0
C1114 C 0.02787 0.33525 0.33986 0.0
C1115 C 0.04187 0.35448 0.33338 0.0
C1116 C 0.05698 0.32386 0.36872 0.0
C1117 C 0.06295 0.3583 0.34567 0.0
C1118 C 0.08522 0.3125 0.40085 0.0
C1119 C 0.06499 0.26818 0.40211 0.0
N1120 N 0.06992 0.34306 0.3627 0.0
N1121 N 0.05682 0.28488 0.38717 0.0
H1122 H 0.88167 0.18469 0.40589 0.0
H1123 H 0.99724 0.16905 0.32718 0.0
H1124 H 0.93994 0.23329 0.40517 0.0
H1125 H 0.93249 0.13233 0.31229 0.0
H1126 H 0.97805 0.1885 0.36019 0.0
H1127 H 0.90128 0.1617 0.375 0.0
C1128 C 0.8985 0.19055 0.3992 0.0
C1129 C 0.90913 0.21099 0.40803 0.0
C1130 C 0.96807 0.17609 0.34978 0.0
C1131 C 0.93173 0.18468 0.37318 0.0
C1132 C 0.97907 0.16484 0.331 0.0
C1133 C 0.96642 0.14915 0.3168 0.0
C1134 C 0.94426 0.17155 0.35453 0.0
C1135 C 0.94288 0.14443 0.32266 0.0
C1136 C 0.90968 0.17743 0.38165 0.0
C1137 C 0.931 0.21774 0.39882 0.0
N1138 N 0.93251 0.15567 0.34103 0.0
N1139 N 0.94158 0.2046 0.382 0.0
H1140 H 0.10496 0.71123 0.07499 0.0
H1141 H 0.00578 0.68267 0.17069 0.0
H1142 H 0.05062 0.7601 0.09544 0.0
H1143 H 0.06861 0.64098 0.1619 0.0
H1144 H 0.0191 0.70849 0.13905 0.0
H1145 H 0.08932 0.68281 0.10328 0.0
C1146 C 0.08976 0.71598 0.08542 0.0
C1147 C 0.07917 0.73811 0.08297 0.0
C1148 C 0.02989 0.6936 0.14397 0.0
C1149 C 0.06108 0.70567 0.11512 0.0
C1150 C 0.02223 0.67877 0.16193 0.0
C1151 C 0.03618 0.65972 0.16907 0.0
C1152 C 0.05158 0.68928 0.13298 0.0
C1153 C 0.05736 0.65556 0.15709 0.0
C1154 C 0.08084 0.69976 0.10154 0.0
C1155 C 0.05946 0.74331 0.09687 0.0
N1156 N 0.06446 0.67028 0.1397 0.0
N1157 N 0.05104 0.72721 0.11232 0.0
H1158 H 0.93334 0.86805 0.16849 0.0
H1159 H 0.95114 0.74856 0.09759 0.0
H1160 H 0.9972 0.82711 0.17122 0.0
H1161 H 0.89566 0.79789 0.08185 0.0
H1162 H 0.96727 0.77634 0.12597 0.0
H1163 H 0.91853 0.84211 0.13767 0.0
C1164 C 0.94434 0.8537 0.16249 0.0
C1165 C 0.96653 0.8497 0.17252 0.0
C1166 C 0.9516 0.78113 0.11628 0.0
C1167 C 0.94952 0.81979 0.13741 0.0
C1168 C 0.94228 0.76522 0.10015 0.0
C1169 C 0.92195 0.77088 0.08738 0.0
C1170 C 0.9404 0.80281 0.11987 0.0
C1171 C 0.91134 0.79279 0.09135 0.0
C1172 C 0.93585 0.83891 0.14488 0.0
C1173 C 0.98001 0.83089 0.16398 0.0
N1174 N 0.92063 0.80793 0.10734 0.0
N1175 N 0.9712 0.8165 0.14706 0.0
H1176 H 0.33986 0.06759 0.37069 0.0
H1177 H 0.41136 0.04514 0.25251 0.0
H1178 H 0.33292 0.00473 0.32874 0.0
H1179 H 0.42861 0.10087 0.30102 0.0
H1180 H 0.38245 0.0303 0.28035 0.0
H1181 H 0.37263 0.08 0.34591 0.0
C1182 C 0.34537 0.05627 0.35641 0.0
C1183 C 0.33351 0.03514 0.35169 0.0
C1184 C 0.39261 0.04571 0.285 0.0
C1185 C 0.37086 0.04941 0.32312 0.0
C1186 C 0.40906 0.05429 0.26904 0.0
C1187 C 0.42233 0.07437 0.2744 0.0
C1188 C 0.38918 0.05741 0.30643 0.0
C1189 C 0.4187 0.08537 0.29616 0.0
C1190 C 0.36409 0.06339 0.34227 0.0
C1191 C 0.3415 0.02116 0.33302 0.0
N1192 N 0.40233 0.07683 0.31135 0.0
N1193 N 0.35952 0.02866 0.31928 0.0
H1194 H 0.59743 0.44888 0.26043 0.0
H1195 H 0.68248 0.42881 0.36926 0.0
H1196 H 0.5888 0.39017 0.30767 0.0
H1197 H 0.67435 0.49561 0.33416 0.0
H1198 H 0.64898 0.41357 0.34694 0.0
H1199 H 0.62694 0.46527 0.2867 0.0
C1200 C 0.60178 0.43938 0.27634 0.0
C1201 C 0.59072 0.41804 0.2818 0.0
C1202 C 0.65439 0.43164 0.34436 0.0
C1203 C 0.62461 0.43679 0.31206 0.0
C1204 C 0.67351 0.44037 0.35708 0.0
C1205 C 0.68138 0.4635 0.35347 0.0
C1206 C 0.6433 0.44604 0.32769 0.0
C1207 C 0.669 0.47767 0.33751 0.0
C1208 C 0.61855 0.44885 0.29142 0.0
C1209 C 0.59695 0.40665 0.30278 0.0
N1210 N 0.65078 0.46863 0.32504 0.0
N1211 N 0.61366 0.41608 0.31709 0.0
H1212 H 0.33985 0.92585 0.1393 0.0
H1213 H 0.41166 0.944 0.25809 0.0
H1214 H 0.33731 0.98982 0.18003 0.0
H1215 H 0.42817 0.88932 0.20816 0.0
H1216 H 0.38276 0.95983 0.23066 0.0
H1217 H 0.371 0.91122 0.16497 0.0
C1218 C 0.34594 0.9369 0.15355 0.0
C1219 C 0.33589 0.95909 0.15757 0.0
C1220 C 0.39274 0.94441 0.22566 0.0
C1221 C 0.37138 0.9423 0.18715 0.0
C1222 C 0.40916 0.93526 0.24137 0.0
C1223 C 0.4223 0.91524 0.23543 0.0
C1224 C 0.38921 0.93334 0.20391 0.0
C1225 C 0.4184 0.90476 0.21345 0.0
C1226 C 0.36375 0.92853 0.16818 0.0
C1227 C 0.34456 0.97264 0.17625 0.0
N1228 N 0.4021 0.91387 0.19852 0.0
N1229 N 0.36167 0.96394 0.19048 0.0
H1230 H 0.59749 0.55222 0.25805 0.0
H1231 H 0.65987 0.57177 0.13427 0.0
H1232 H 0.57456 0.60454 0.20813 0.0
H1233 H 0.67211 0.51096 0.17797 0.0
H1234 H 0.6286 0.58415 0.1609 0.0
H1235 H 0.62536 0.53731 0.22911 0.0
C1236 C 0.59835 0.56062 0.241 0.0
C1237 C 0.58375 0.57975 0.23554 0.0
C1238 C 0.63796 0.56798 0.16455 0.0
C1239 C 0.61565 0.5627 0.20226 0.0
C1240 C 0.65583 0.56088 0.14935 0.0
C1241 C 0.66873 0.54035 0.15396 0.0
C1242 C 0.6331 0.5546 0.18468 0.0
C1243 C 0.66264 0.52691 0.17372 0.0
C1244 C 0.61419 0.552 0.22443 0.0
C1245 C 0.58552 0.5898 0.2131 0.0
N1246 N 0.64542 0.53441 0.18848 0.0
N1247 N 0.60129 0.58123 0.19731 0.0
H1248 H 0.31717 0.43569 0.10394 0.0
H1249 H 0.34123 0.30001 0.08197 0.0
H1250 H 0.26342 0.38342 0.11484 0.0
H1251 H 0.36221 0.35203 0.03093 0.0
H1252 H 0.32163 0.33089 0.10471 0.0
H1253 H 0.34305 0.40496 0.08775 0.0
C1254 C 0.31114 0.41764 0.10357 0.0
C1255 C 0.28826 0.41191 0.11073 0.0
C1256 C 0.33083 0.3355 0.0887 0.0
C1257 C 0.31754 0.37708 0.09262 0.0
C1258 C 0.34205 0.31799 0.07575 0.0
C1259 C 0.3532 0.3235 0.05445 0.0
C1260 C 0.33132 0.35874 0.08061 0.0
C1261 C 0.35362 0.34706 0.04715 0.0
C1262 C 0.32575 0.40027 0.09417 0.0
C1263 C 0.28099 0.38842 0.1095 0.0
N1264 N 0.34283 0.3639 0.06027 0.0
N1265 N 0.29563 0.37178 0.10064 0.0
H1266 H 0.37347 0.65319 0.43105 0.0
H1267 H 0.24745 0.59455 0.44822 0.0
H1268 H 0.32963 0.66519 0.49179 0.0
H1269 H 0.29676 0.57139 0.39542 0.0
H1270 H 0.27729 0.62093 0.46399 0.0
H1271 H 0.34596 0.62306 0.41768 0.0
C1272 C 0.3582 0.64931 0.44173 0.0
C1273 C 0.35379 0.66185 0.46253 0.0
C1274 C 0.28165 0.61003 0.449 0.0
C1275 C 0.32207 0.62758 0.44713 0.0
C1276 C 0.26456 0.59504 0.43989 0.0
C1277 C 0.26958 0.58082 0.42038 0.0
C1278 C 0.30392 0.61101 0.43844 0.0
C1279 C 0.29212 0.5821 0.41044 0.0
C1280 C 0.34249 0.63212 0.43405 0.0
C1281 C 0.33375 0.656 0.47565 0.0
N1282 N 0.30843 0.59704 0.41951 0.0
N1283 N 0.31851 0.63947 0.46761 0.0
H1284 H 0.75842 0.90883 0.44707 0.0
H1285 H 0.63527 0.84425 0.42994 0.0
H1286 H 0.70838 0.92907 0.39375 0.0
H1287 H 0.6795 0.83473 0.49085 0.0
H1288 H 0.66159 0.87525 0.41621 0.0
H1289 H 0.72992 0.88096 0.46272 0.0
C1290 C 0.74145 0.90736 0.43858 0.0
C1291 C 0.73581 0.92124 0.41899 0.0
C1292 C 0.66541 0.86653 0.43269 0.0
C1293 C 0.703 0.88935 0.43694 0.0
C1294 C 0.65038 0.84884 0.44057 0.0
C1295 C 0.65524 0.83677 0.46154 0.0
C1296 C 0.6856 0.87206 0.44573 0.0
C1297 C 0.67504 0.84354 0.47459 0.0
C1298 C 0.72512 0.89152 0.44763 0.0
C1299 C 0.71348 0.91867 0.40884 0.0
N1300 N 0.68962 0.86057 0.46635 0.0
N1301 N 0.6979 0.90294 0.41788 0.0
H1302 H 0.1691 0.66939 0.49664 0.0
H1303 H 0.19211 0.58304 0.60532 0.0
H1304 H 0.13339 0.67679 0.56318 0.0
H1305 H 0.24021 0.59248 0.54743 0.0
H1306 H 0.16598 0.61256 0.58767 0.0
H1307 H 0.19031 0.63555 0.51233 0.0
C1308 C 0.16543 0.6637 0.51442 0.0
C1309 C 0.1496 0.67612 0.52868 0.0
C1310 C 0.18225 0.60807 0.57887 0.0
C1311 C 0.17398 0.63747 0.54679 0.0
C1312 C 0.19714 0.59127 0.58891 0.0
C1313 C 0.21845 0.58547 0.57793 0.0
C1314 C 0.1886 0.61881 0.55756 0.0
C1315 C 0.22407 0.59658 0.55664 0.0
C1316 C 0.17768 0.64447 0.52342 0.0
C1317 C 0.14559 0.66788 0.55162 0.0
N1318 N 0.20924 0.61267 0.54716 0.0
N1319 N 0.15782 0.64915 0.56002 0.0
H1320 H 0.99108 0.67244 0.66397 0.0
H1321 H 0.89208 0.705 0.56931 0.0
H1322 H 0.92774 0.63174 0.65444 0.0
H1323 H 0.94501 0.75367 0.59351 0.0
H1324 H 0.90773 0.67537 0.59642 0.0
H1325 H 0.97759 0.69957 0.63346 0.0
C1326 C 0.9745 0.66903 0.65526 0.0
C1327 C 0.96045 0.64988 0.66188 0.0
C1328 C 0.91589 0.69255 0.59575 0.0
C1329 C 0.94487 0.68091 0.62709 0.0
C1330 C 0.90696 0.70945 0.58032 0.0
C1331 C 0.91716 0.73187 0.57927 0.0
C1332 C 0.9353 0.69806 0.61 0.0
C1333 C 0.93647 0.73668 0.59386 0.0
C1334 C 0.96674 0.68461 0.63797 0.0
C1335 C 0.93907 0.64637 0.65003 0.0
N1336 N 0.94494 0.71991 0.60857 0.0
N1337 N 0.93189 0.66179 0.63326 0.0
H1338 H 0.08725 0.86439 0.68082 0.0
H1339 H 0.06786 0.75519 0.5949 0.0
H1340 H 0.02405 0.82239 0.67929 0.0
H1341 H 0.12463 0.80475 0.58597 0.0
H1342 H 0.05317 0.7784 0.62763 0.0
H1343 H 0.10237 0.84204 0.64738 0.0
C1344 C 0.07648 0.85057 0.67338 0.0
C1345 C 0.05434 0.84523 0.68292 0.0
C1346 C 0.06885 0.78424 0.61856 0.0
C1347 C 0.07169 0.81946 0.64482 0.0
C1348 C 0.07736 0.77091 0.59991 0.0
C1349 C 0.09753 0.77804 0.58764 0.0
C1350 C 0.08063 0.80486 0.62518 0.0
C1351 C 0.10902 0.79861 0.59495 0.0
C1352 C 0.08515 0.83782 0.6543 0.0
C1353 C 0.04118 0.82716 0.67252 0.0
N1354 N 0.1004 0.81133 0.61328 0.0
N1355 N 0.05012 0.81485 0.65414 0.0
H1356 H 0.99188 0.31792 0.83119 0.0
H1357 H 0.8926 0.29196 0.92761 0.0
H1358 H 0.93013 0.36109 0.84041 0.0
H1359 H 0.94607 0.24203 0.90742 0.0
H1360 H 0.90886 0.32001 0.8993 0.0
H1361 H 0.97843 0.29273 0.86331 0.0
C1362 C 0.97567 0.3223 0.84016 0.0
C1363 C 0.96203 0.34154 0.83298 0.0
C1364 C 0.91702 0.30291 0.90111 0.0
C1365 C 0.94645 0.3127 0.86958 0.0
C1366 C 0.90774 0.2869 0.91723 0.0
C1367 C 0.91788 0.26457 0.91975 0.0
C1368 C 0.93669 0.2966 0.88757 0.0
C1369 C 0.93755 0.25898 0.90594 0.0
C1370 C 0.96792 0.30782 0.85839 0.0
C1371 C 0.94113 0.34633 0.84523 0.0
N1372 N 0.94631 0.27488 0.89046 0.0
N1373 N 0.93393 0.33194 0.86285 0.0
H1374 H 0.06887 0.12991 0.84308 0.0
H1375 H 0.04485 0.25171 0.90797 0.0
H1376 H 0.00459 0.16951 0.83529 0.0
H1377 H 0.10185 0.20537 0.92702 0.0
H1378 H 0.03041 0.22208 0.88061 0.0
H1379 H 0.0815 0.15724 0.87366 0.0
C1380 C 0.0573 0.14422 0.84794 0.0
C1381 C 0.03567 0.14749 0.83651 0.0
C1382 C 0.04603 0.21833 0.89081 0.0
C1383 C 0.05019 0.179 0.87132 0.0
C1384 C 0.05438 0.23531 0.90636 0.0
C1385 C 0.07467 0.23105 0.91974 0.0
C1386 C 0.05814 0.19698 0.88841 0.0
C1387 C 0.08618 0.2094 0.91702 0.0
C1388 C 0.06455 0.15983 0.86541 0.0
C1389 C 0.02139 0.1663 0.84362 0.0
N1390 N 0.07782 0.1932 0.90156 0.0
N1391 N 0.02901 0.18148 0.86041 0.0
H1392 H 0.5759 0.89506 0.70382 0.0
H1393 H 0.6674 0.99774 0.67364 0.0
H1394 H 0.59346 0.95158 0.7513 0.0
H1395 H 0.66234 0.93346 0.6336 0.0
H1396 H 0.63608 0.98358 0.69937 0.0
H1397 H 0.60395 0.91107 0.6753 0.0
C1398 C 0.58565 0.9108 0.70825 0.0
C1399 C 0.58245 0.92192 0.73002 0.0
C1400 C 0.64173 0.97264 0.68486 0.0
C1401 C 0.61427 0.94043 0.69745 0.0
C1402 C 0.65952 0.98078 0.67007 0.0
C1403 C 0.66763 0.96671 0.65152 0.0
C1404 C 0.63188 0.95032 0.68101 0.0
C1405 C 0.65676 0.94484 0.64779 0.0
C1406 C 0.60162 0.91993 0.69198 0.0
C1407 C 0.59547 0.94233 0.7348 0.0
N1408 N 0.63951 0.93728 0.66246 0.0
N1409 N 0.61077 0.95092 0.71865 0.0
H1410 H 0.40244 0.54927 0.74353 0.0
H1411 H 0.32421 0.57203 0.62962 0.0
H1412 H 0.41619 0.6058 0.69486 0.0
H1413 H 0.32058 0.50853 0.67102 0.0
H1414 H 0.35772 0.58495 0.65314 0.0
H1415 H 0.37195 0.53457 0.71734 0.0
C1416 C 0.39903 0.55863 0.72731 0.0
C1417 C 0.41181 0.57888 0.72142 0.0
C1418 C 0.34971 0.56811 0.65695 0.0
C1419 C 0.37683 0.56208 0.69128 0.0
C1420 C 0.33056 0.56071 0.64354 0.0
C1421 C 0.31947 0.5392 0.64844 0.0
C1422 C 0.35771 0.55402 0.67554 0.0
C1423 C 0.32855 0.52524 0.66663 0.0
C1424 C 0.38167 0.55014 0.7123 0.0
C1425 C 0.40672 0.59016 0.7001 0.0
N1426 N 0.347 0.53299 0.67964 0.0
N1427 N 0.38951 0.58168 0.68584 0.0
H1428 H 0.66279 0.00879 0.82267 0.0
H1429 H 0.56853 0.10933 0.79378 0.0
H1430 H 0.65516 0.07178 0.86432 0.0
H1431 H 0.58935 0.05542 0.74462 0.0
H1432 H 0.59673 0.09345 0.82224 0.0
H1433 H 0.63176 0.02294 0.79655 0.0
C1434 C 0.65442 0.02546 0.82649 0.0
C1435 C 0.6617 0.03918 0.84564 0.0
C1436 C 0.59509 0.08514 0.8052 0.0
C1437 C 0.62628 0.05553 0.81573 0.0
C1438 C 0.57904 0.0942 0.78897 0.0
C1439 C 0.57669 0.08377 0.76675 0.0
C1440 C 0.60868 0.06539 0.79924 0.0
C1441 C 0.59068 0.06413 0.76147 0.0
C1442 C 0.6368 0.0336 0.81148 0.0
C1443 C 0.65023 0.06068 0.84968 0.0
N1444 N 0.60602 0.05556 0.7776 0.0
N1445 N 0.63314 0.06823 0.8348 0.0
H1446 H 0.32642 0.42578 0.85534 0.0
H1447 H 0.40028 0.4496 0.73895 0.0
H1448 H 0.32495 0.49195 0.81824 0.0
H1449 H 0.41597 0.39264 0.78655 0.0
H1450 H 0.3711 0.4643 0.76672 0.0
H1451 H 0.358 0.41244 0.82953 0.0
C1452 C 0.33283 0.43757 0.84184 0.0
C1453 C 0.32296 0.46001 0.83889 0.0
C1454 C 0.38097 0.44863 0.77114 0.0
C1455 C 0.35897 0.44471 0.80914 0.0
C1456 C 0.39755 0.44014 0.75524 0.0
C1457 C 0.41052 0.41979 0.76041 0.0
C1458 C 0.37709 0.43657 0.79229 0.0
C1459 C 0.40634 0.40837 0.78185 0.0
C1460 C 0.35089 0.42994 0.82714 0.0
C1461 C 0.33205 0.47454 0.82117 0.0
N1462 N 0.38987 0.41684 0.79696 0.0
N1463 N 0.34941 0.46656 0.80682 0.0
H1464 H 0.64646 0.65295 0.98749 0.0
H1465 H 0.74598 0.61815 0.89928 0.0
H1466 H 0.66445 0.69867 0.92973 0.0
H1467 H 0.69433 0.56607 0.91835 0.0
H1468 H 0.72077 0.64875 0.91616 0.0
H1469 H 0.66854 0.621 0.96827 0.0
C1470 C 0.65506 0.65624 0.97084 0.0
C1471 C 0.65368 0.67841 0.96014 0.0
C1472 C 0.71493 0.63063 0.91648 0.0
C1473 C 0.679 0.6424 0.93853 0.0
C1474 C 0.72924 0.61324 0.90691 0.0
C1475 C 0.72205 0.5897 0.90734 0.0
C1476 C 0.69368 0.62431 0.92723 0.0
C1477 C 0.70029 0.58413 0.91751 0.0
C1478 C 0.66744 0.63804 0.95987 0.0
C1479 C 0.66501 0.68179 0.9385 0.0
N1480 N 0.68693 0.60133 0.92743 0.0
N1481 N 0.67748 0.66407 0.92855 0.0
H1482 H 0.66682 0.33222 0.50534 0.0
H1483 H 0.69403 0.42526 0.60742 0.0
H1484 H 0.62264 0.34093 0.56641 0.0
H1485 H 0.74497 0.40262 0.55596 0.0
H1486 H 0.66518 0.39852 0.5898 0.0
H1487 H 0.6929 0.36281 0.52047 0.0
C1488 C 0.66242 0.34077 0.52176 0.0
C1489 C 0.64261 0.33386 0.53471 0.0
C1490 C 0.68268 0.39947 0.58239 0.0
C1491 C 0.67247 0.36876 0.5522 0.0
C1492 C 0.69914 0.41469 0.59245 0.0
C1493 C 0.72198 0.41604 0.58325 0.0
C1494 C 0.68907 0.38574 0.56288 0.0
C1495 C 0.72763 0.40202 0.56376 0.0
C1496 C 0.6774 0.35813 0.53047 0.0
C1497 C 0.63782 0.34556 0.55593 0.0
N1498 N 0.7113 0.38749 0.55422 0.0
N1499 N 0.65271 0.36236 0.56407 0.0
H1500 H 0.29056 0.07426 0.60381 0.0
H1501 H 0.31622 0.16865 0.50256 0.0
H1502 H 0.24022 0.09373 0.55049 0.0
H1503 H 0.35968 0.16073 0.56426 0.0
H1504 H 0.29073 0.13725 0.5171 0.0
H1505 H 0.31839 0.10254 0.58712 0.0
C1506 C 0.28535 0.08449 0.58863 0.0
C1507 C 0.26299 0.08175 0.57862 0.0
C1508 C 0.30593 0.14231 0.52738 0.0
C1509 C 0.29477 0.11388 0.5593 0.0
C1510 C 0.32058 0.16013 0.51901 0.0
C1511 C 0.34003 0.16745 0.53228 0.0
C1512 C 0.31086 0.13163 0.54909 0.0
C1513 C 0.34477 0.15579 0.55352 0.0
C1514 C 0.30124 0.1006 0.5791 0.0
C1515 C 0.25721 0.09538 0.55889 0.0
N1516 N 0.33024 0.13853 0.5613 0.0
N1517 N 0.273 0.11083 0.54987 0.0
H1518 H 0.76064 0.40281 0.44151 0.0
H1519 H 0.8645 0.31063 0.42412 0.0
H1520 H 0.80899 0.40742 0.38324 0.0
H1521 H 0.82805 0.32143 0.48979 0.0
H1522 H 0.84376 0.34458 0.40763 0.0
H1523 H 0.78385 0.37087 0.45783 0.0
C1524 C 0.7761 0.39701 0.43204 0.0
C1525 C 0.78286 0.40781 0.41092 0.0
C1526 C 0.8405 0.3396 0.4257 0.0
C1527 C 0.80968 0.37113 0.4297 0.0
C1528 C 0.85233 0.32025 0.43515 0.0
C1529 C 0.84794 0.31307 0.45837 0.0
C1530 C 0.82397 0.35166 0.43948 0.0
C1531 C 0.83202 0.32625 0.47183 0.0
C1532 C 0.78945 0.37884 0.44149 0.0
C1533 C 0.80315 0.39957 0.39954 0.0
N1534 N 0.82047 0.34474 0.46211 0.0
N1535 N 0.81584 0.38162 0.40905 0.0
H1536 H 0.57023 0.87547 0.83995 0.0
H1537 H 0.55695 0.75626 0.91157 0.0
H1538 H 0.51012 0.82954 0.83391 0.0
H1539 H 0.607 0.80991 0.93086 0.0
H1540 H 0.54021 0.78278 0.88248 0.0
H1541 H 0.58434 0.85197 0.87301 0.0
C1542 C 0.55987 0.86057 0.84571 0.0
C1543 C 0.53902 0.85437 0.83403 0.0
C1544 C 0.55477 0.78885 0.89313 0.0
C1545 C 0.55523 0.82729 0.8717 0.0
C1546 C 0.56446 0.77365 0.90968 0.0
C1547 C 0.58352 0.78084 0.92357 0.0
C1548 C 0.56436 0.81136 0.89018 0.0
C1549 C 0.59235 0.80366 0.92047 0.0
C1550 C 0.56795 0.84719 0.8646 0.0
C1551 C 0.5263 0.83496 0.84234 0.0
N1552 N 0.58281 0.81808 0.90394 0.0
N1553 N 0.53474 0.82197 0.8605 0.0
H1554 H 0.4242 0.62532 0.82663 0.0
H1555 H 0.44128 0.73681 0.90987 0.0
H1556 H 0.48657 0.66857 0.82688 0.0
H1557 H 0.38451 0.68721 0.91855 0.0
H1558 H 0.45726 0.71254 0.87852 0.0
H1559 H 0.40896 0.64781 0.85983 0.0
C1560 C 0.4348 0.63943 0.83378 0.0
C1561 C 0.45668 0.64514 0.82387 0.0
C1562 C 0.44132 0.70691 0.88726 0.0
C1563 C 0.43918 0.67108 0.86175 0.0
C1564 C 0.43208 0.72084 0.90512 0.0
C1565 C 0.41147 0.71405 0.91685 0.0
C1566 C 0.42984 0.68605 0.8809 0.0
C1567 C 0.40041 0.69312 0.90995 0.0
C1568 C 0.42605 0.65226 0.85273 0.0
C1569 C 0.46964 0.66353 0.83394 0.0
N1570 N 0.40972 0.67986 0.89237 0.0
N1571 N 0.4606 0.67596 0.85221 0.0
H1572 H 0.49888 0.17549 0.66579 0.0
H1573 H 0.59906 0.20614 0.57185 0.0
H1574 H 0.56324 0.13576 0.65924 0.0
H1575 H 0.54352 0.25391 0.59166 0.0
H1576 H 0.58379 0.17749 0.60015 0.0
H1577 H 0.51228 0.20144 0.63432 0.0
C1578 C 0.5157 0.17204 0.65756 0.0
C1579 C 0.53003 0.15351 0.66528 0.0
C1580 C 0.57498 0.19426 0.59827 0.0
C1581 C 0.54552 0.18324 0.62937 0.0
C1582 C 0.58369 0.21061 0.58215 0.0
C1583 C 0.57264 0.23249 0.57951 0.0
C1584 C 0.55495 0.19978 0.61162 0.0
C1585 C 0.55272 0.23733 0.59324 0.0
C1586 C 0.5234 0.18695 0.63969 0.0
C1587 C 0.55169 0.14993 0.65397 0.0
N1588 N 0.5445 0.2211 0.60866 0.0
N1589 N 0.55881 0.16472 0.63664 0.0
H1590 H 0.42423 0.36843 0.65387 0.0
H1591 H 0.4402 0.24519 0.58915 0.0
H1592 H 0.48531 0.32417 0.66238 0.0
H1593 H 0.38683 0.29542 0.56945 0.0
H1594 H 0.45629 0.27369 0.61678 0.0
H1595 H 0.40996 0.34208 0.62313 0.0
C1596 C 0.43477 0.3533 0.64912 0.0
C1597 C 0.45596 0.34845 0.66082 0.0
C1598 C 0.4411 0.27853 0.60639 0.0
C1599 C 0.43955 0.31807 0.62583 0.0
C1600 C 0.4318 0.26221 0.59068 0.0
C1601 C 0.41206 0.2679 0.57703 0.0
C1602 C 0.4305 0.30069 0.60866 0.0
C1603 C 0.40204 0.29029 0.57967 0.0
C1604 C 0.42659 0.33826 0.63157 0.0
C1605 C 0.46889 0.32862 0.65386 0.0
N1606 N 0.4113 0.30585 0.59527 0.0
N1607 N 0.46036 0.31405 0.63698 0.0
H1608 H 0.88056 0.58503 0.73504 0.0
H1609 H 0.84572 0.51609 0.84878 0.0
H1610 H 0.93153 0.57901 0.79081 0.0
H1611 H 0.79972 0.56974 0.82129 0.0
H1612 H 0.87738 0.53095 0.82315 0.0
H1613 H 0.8499 0.57149 0.76219 0.0
C1614 C 0.88523 0.58091 0.75303 0.0
C1615 C 0.90846 0.58326 0.76086 0.0
C1616 C 0.86031 0.53939 0.82288 0.0
C1617 C 0.87386 0.56714 0.7915 0.0
C1618 C 0.84231 0.53088 0.8373 0.0
C1619 C 0.82021 0.5418 0.83711 0.0
C1620 C 0.85578 0.55834 0.80777 0.0
C1621 C 0.8166 0.56096 0.82202 0.0
C1622 C 0.86781 0.57323 0.76842 0.0
C1623 C 0.91371 0.57764 0.78428 0.0
N1624 N 0.83412 0.56846 0.80771 0.0
N1625 N 0.89654 0.56948 0.79879 0.0
H1626 H 0.18838 0.92805 0.87105 0.0
H1627 H 0.10137 0.94687 0.7637 0.0
H1628 H 0.17829 0.99491 0.83657 0.0
H1629 H 0.09471 0.8877 0.81069 0.0
H1630 H 0.1306 0.96395 0.78986 0.0
H1631 H 0.15468 0.91236 0.84938 0.0
C1632 C 0.17893 0.93953 0.85916 0.0
C1633 C 0.18632 0.96281 0.8555 0.0
C1634 C 0.12269 0.9473 0.79457 0.0
C1635 C 0.14799 0.94483 0.83046 0.0
C1636 C 0.10609 0.93743 0.77955 0.0
C1637 C 0.09569 0.91574 0.78496 0.0
C1638 C 0.12927 0.93527 0.81506 0.0
C1639 C 0.10234 0.90445 0.80586 0.0
C1640 C 0.1597 0.93053 0.84681 0.0
C1641 C 0.17332 0.97686 0.83993 0.0
N1642 N 0.11891 0.91425 0.82008 0.0
N1643 N 0.155 0.96756 0.82779 0.0
H1644 H 0.90083 0.43968 0.75668 0.0
H1645 H 0.82761 0.42157 0.63868 0.0
H1646 H 0.91654 0.38476 0.70674 0.0
H1647 H 0.8256 0.48542 0.67964 0.0
H1648 H 0.85882 0.40669 0.66416 0.0
H1649 H 0.87142 0.4553 0.72972 0.0
C1650 C 0.89803 0.43083 0.74006 0.0
C1651 C 0.91113 0.41083 0.73397 0.0
C1652 C 0.85166 0.42402 0.66746 0.0
C1653 C 0.87745 0.42871 0.70297 0.0
C1654 C 0.83382 0.43253 0.65295 0.0
C1655 C 0.82393 0.45477 0.65708 0.0
C1656 C 0.85948 0.43771 0.68642 0.0
C1657 C 0.83273 0.46821 0.67578 0.0
C1658 C 0.88132 0.43986 0.72462 0.0
C1659 C 0.90682 0.4002 0.71214 0.0
N1660 N 0.84988 0.45938 0.68987 0.0
N1661 N 0.89026 0.40922 0.69745 0.0
H1662 H 0.09633 0.04922 0.75852 0.0
H1663 H 0.15591 0.06662 0.63297 0.0
H1664 H 0.07216 0.10071 0.70831 0.0
H1665 H 0.16881 0.0065 0.67743 0.0
H1666 H 0.12547 0.07976 0.66024 0.0
H1667 H 0.12379 0.03413 0.72931 0.0
C1668 C 0.09684 0.05743 0.74136 0.0
C1669 C 0.08198 0.07634 0.73588 0.0
C1670 C 0.13481 0.06358 0.66392 0.0
C1671 C 0.1134 0.05904 0.70227 0.0
C1672 C 0.15219 0.05604 0.64835 0.0
C1673 C 0.16502 0.03546 0.65297 0.0
C1674 C 0.13039 0.0506 0.68441 0.0
C1675 C 0.15937 0.02246 0.67314 0.0
C1676 C 0.11245 0.04869 0.72463 0.0
C1677 C 0.08333 0.08614 0.71329 0.0
N1678 N 0.14263 0.03037 0.68823 0.0
N1679 N 0.09886 0.07744 0.69733 0.0
H1680 H 0.79578 0.92758 0.60864 0.0
H1681 H 0.82649 0.83726 0.50522 0.0
H1682 H 0.74794 0.9099 0.55247 0.0
H1683 H 0.86461 0.83943 0.57079 0.0
H1684 H 0.80063 0.86834 0.51979 0.0
H1685 H 0.82406 0.89916 0.59276 0.0
C1686 C 0.79122 0.91772 0.59301 0.0
C1687 C 0.76943 0.921 0.58195 0.0
C1688 C 0.81473 0.86208 0.53093 0.0
C1689 C 0.80172 0.88879 0.56357 0.0
C1690 C 0.82959 0.84443 0.52258 0.0
C1691 C 0.84766 0.83563 0.53686 0.0
C1692 C 0.81808 0.87113 0.55366 0.0
C1693 C 0.8508 0.84558 0.55924 0.0
C1694 C 0.80735 0.90154 0.58396 0.0
C1695 C 0.76446 0.90783 0.56168 0.0
N1696 N 0.83612 0.86277 0.56697 0.0
N1697 N 0.7805 0.89237 0.55313 0.0
H1698 H 0.73933 0.09639 0.94616 0.0
H1699 H 0.86447 0.1577 0.93171 0.0
H1700 H 0.78983 0.07488 0.89379 0.0
H1701 H 0.81986 0.16734 0.99232 0.0
H1702 H 0.83744 0.12769 0.91713 0.0
H1703 H 0.76831 0.12337 0.96249 0.0
C1704 C 0.75651 0.0974 0.93802 0.0
C1705 C 0.76214 0.08341 0.9185 0.0
C1706 C 0.83369 0.13622 0.93372 0.0
C1707 C 0.79549 0.11429 0.93722 0.0
C1708 C 0.84912 0.15335 0.94209 0.0
C1709 C 0.84437 0.16515 0.96324 0.0
C1710 C 0.81322 0.13101 0.94646 0.0
C1711 C 0.82424 0.15871 0.97594 0.0
C1712 C 0.77311 0.11273 0.94746 0.0
C1713 C 0.78474 0.08537 0.90881 0.0
N1714 N 0.80929 0.14224 0.96724 0.0
N1715 N 0.80057 0.10062 0.91821 0.0
H1716 H 0.16708 0.3345 0.99121 0.0
H1717 H 0.19242 0.42654 0.88791 0.0
H1718 H 0.12248 0.34104 0.93016 0.0
H1719 H 0.2447 0.40273 0.93749 0.0
H1720 H 0.16379 0.39994 0.90621 0.0
H1721 H 0.19258 0.36512 0.97525 0.0
C1722 C 0.16243 0.34262 0.97463 0.0
C1723 C 0.14272 0.33506 0.96191 0.0
C1724 C 0.18155 0.4006 0.91303 0.0
C1725 C 0.17194 0.36995 0.94347 0.0
C1726 C 0.19788 0.41571 0.90259 0.0
C1727 C 0.22101 0.41671 0.91108 0.0
C1728 C 0.18839 0.3867 0.93226 0.0
C1729 C 0.22712 0.4024 0.93022 0.0
C1730 C 0.1771 0.35997 0.96544 0.0
C1731 C 0.13761 0.3462 0.94047 0.0
N1732 N 0.21091 0.38805 0.94019 0.0
N1733 N 0.15221 0.36302 0.93185 0.0
H1734 H 0.67111 0.17706 0.00245 0.0
H1735 H 0.69663 0.08341 0.10445 0.0
H1736 H 0.63252 0.17503 0.06775 0.0
H1737 H 0.74434 0.09775 0.04725 0.0
H1738 H 0.66973 0.11321 0.08876 0.0
H1739 H 0.69467 0.14373 0.01592 0.0
C1740 C 0.6674 0.16945 0.0195 0.0
C1741 C 0.64994 0.17897 0.03406 0.0
C1742 C 0.68608 0.10976 0.07965 0.0
C1743 C 0.67688 0.14092 0.04962 0.0
C1744 C 0.70142 0.09278 0.0886 0.0
C1745 C 0.72282 0.08823 0.07724 0.0
C1746 C 0.69213 0.12206 0.05911 0.0
C1747 C 0.72812 0.10082 0.05669 0.0
C1748 C 0.68094 0.15051 0.02723 0.0
C1749 C 0.64594 0.16838 0.05601 0.0
N1750 N 0.71288 0.11714 0.0483 0.0
N1751 N 0.65937 0.14999 0.06316 0.0
H1752 H 0.38424 0.18794 0.08157 0.0
H1753 H 0.49272 0.16704 0.16902 0.0
H1754 H 0.44047 0.23772 0.09245 0.0
H1755 H 0.43051 0.12356 0.1687 0.0
H1756 H 0.47585 0.19048 0.13724 0.0
H1757 H 0.40264 0.16176 0.11049 0.0
C1758 C 0.40039 0.19337 0.09005 0.0
C1759 C 0.41076 0.21508 0.0847 0.0
C1760 C 0.46595 0.17573 0.14405 0.0
C1761 C 0.43199 0.18523 0.11747 0.0
C1762 C 0.47564 0.16226 0.16211 0.0
C1763 C 0.46295 0.14341 0.17166 0.0
C1764 C 0.44346 0.17026 0.13541 0.0
C1765 C 0.44086 0.13805 0.16199 0.0
C1766 C 0.4109 0.17844 0.1065 0.0
C1767 C 0.43176 0.22121 0.09612 0.0
N1768 N 0.43177 0.15147 0.14447 0.0
N1769 N 0.44167 0.20637 0.11192 0.0
H1770 H 0.5765 0.36928 0.17538 0.0
H1771 H 0.55583 0.25581 0.09613 0.0
H1772 H 0.51348 0.32709 0.17818 0.0
H1773 H 0.60986 0.30688 0.08096 0.0
H1774 H 0.54111 0.28115 0.12731 0.0
H1775 H 0.58974 0.34647 0.14148 0.0
C1776 C 0.56535 0.35535 0.16876 0.0
C1777 C 0.54388 0.35002 0.17972 0.0
C1778 C 0.55614 0.28689 0.11713 0.0
C1779 C 0.55908 0.32371 0.14109 0.0
C1780 C 0.56466 0.27237 0.09939 0.0
C1781 C 0.58418 0.27921 0.08597 0.0
C1782 C 0.56733 0.30838 0.12173 0.0
C1783 C 0.59478 0.30092 0.09091 0.0
C1784 C 0.57294 0.34235 0.1494 0.0
C1785 C 0.53015 0.33183 0.17032 0.0
N1786 N 0.58629 0.31471 0.10851 0.0
N1787 N 0.53809 0.3192 0.15168 0.0
H1788 H 0.50069 0.81955 0.33187 0.0
H1789 H 0.39994 0.78868 0.42518 0.0
H1790 H 0.4378 0.86115 0.34067 0.0
H1791 H 0.45466 0.74034 0.40446 0.0
H1792 H 0.41591 0.81771 0.39771 0.0
H1793 H 0.48678 0.79293 0.36256 0.0
C1794 C 0.48411 0.82327 0.34045 0.0
C1795 C 0.47032 0.84254 0.33357 0.0
C1796 C 0.42439 0.80074 0.3992 0.0
C1797 C 0.45422 0.81203 0.36857 0.0
C1798 C 0.41527 0.78416 0.41484 0.0
C1799 C 0.4259 0.76201 0.41701 0.0
C1800 C 0.44439 0.79518 0.38581 0.0
C1801 C 0.44579 0.75713 0.40325 0.0
C1802 C 0.4761 0.80798 0.35787 0.0
C1803 C 0.44894 0.84643 0.34529 0.0
N1804 N 0.4544 0.77359 0.38828 0.0
N1805 N 0.4415 0.83125 0.36214 0.0
H1806 H 0.55508 0.75747 0.40509 0.0
H1807 H 0.57286 0.63361 0.34207 0.0
H1808 H 0.60995 0.70879 0.42455 0.0
H1809 H 0.5102 0.67578 0.33446 0.0
H1810 H 0.58716 0.66099 0.37186 0.0
H1811 H 0.53919 0.7282 0.37813 0.0
C1812 C 0.56386 0.74064 0.40363 0.0
C1813 C 0.58395 0.73559 0.41703 0.0
C1814 C 0.57019 0.66414 0.36383 0.0
C1815 C 0.56574 0.70193 0.38621 0.0
C1816 C 0.56199 0.64851 0.34682 0.0
C1817 C 0.54033 0.65246 0.33567 0.0
C1818 C 0.55677 0.68402 0.36956 0.0
C1819 C 0.52699 0.67202 0.3426 0.0
C1820 C 0.55467 0.72387 0.38833 0.0
C1821 C 0.59446 0.71343 0.41452 0.0
N1822 N 0.53553 0.68719 0.35894 0.0
N1823 N 0.58528 0.69743 0.39932 0.0
H1824 H 0.17323 0.50046 0.17428 0.0
H1825 H 0.08556 0.39609 0.20864 0.0
H1826 H 0.17895 0.43079 0.14474 0.0
H1827 H 0.09916 0.45603 0.25311 0.0
H1828 H 0.11485 0.41094 0.18065 0.0
H1829 H 0.14042 0.48695 0.19852 0.0
C1830 C 0.16739 0.48242 0.17263 0.0
C1831 C 0.17897 0.46669 0.15758 0.0
C1832 C 0.11134 0.4208 0.19655 0.0
C1833 C 0.14151 0.45113 0.18531 0.0
C1834 C 0.09467 0.41236 0.21249 0.0
C1835 C 0.09007 0.42476 0.2333 0.0
C1836 C 0.12317 0.44194 0.20131 0.0
C1837 C 0.10231 0.44579 0.2374 0.0
C1838 C 0.14877 0.47469 0.18659 0.0
C1839 C 0.17065 0.44347 0.15625 0.0
N1840 N 0.11824 0.45374 0.22152 0.0
N1841 N 0.15246 0.43636 0.16999 0.0
H1842 H 0.83046 0.01487 0.16629 0.0
H1843 H 0.92067 0.12138 0.1852 0.0
H1844 H 0.82845 0.07877 0.12537 0.0
H1845 H 0.91281 0.06311 0.23315 0.0
H1846 H 0.88924 0.10476 0.1608 0.0
H1847 H 0.86372 0.03066 0.18835 0.0
C1848 C 0.83715 0.03212 0.16178 0.0
C1849 C 0.82656 0.04556 0.14404 0.0
C1850 C 0.89442 0.09567 0.1767 0.0
C1851 C 0.86452 0.06383 0.16934 0.0
C1852 C 0.9123 0.10517 0.19063 0.0
C1853 C 0.9193 0.09367 0.21127 0.0
C1854 C 0.88366 0.07446 0.18341 0.0
C1855 C 0.90793 0.07266 0.21744 0.0
C1856 C 0.85606 0.04119 0.17447 0.0
C1857 C 0.83597 0.06784 0.139 0.0
N1858 N 0.89074 0.06373 0.20356 0.0
N1859 N 0.85437 0.07631 0.15164 0.0
H1860 H 0.07612 0.61369 0.29637 0.0
H1861 H 0.16838 0.51086 0.32338 0.0
H1862 H 0.09525 0.55986 0.24644 0.0
H1863 H 0.1623 0.57346 0.36586 0.0
H1864 H 0.13766 0.52607 0.29749 0.0
H1865 H 0.10433 0.597 0.32432 0.0
C1866 C 0.08627 0.59841 0.29127 0.0
C1867 C 0.08343 0.58823 0.26901 0.0
C1868 C 0.14299 0.53642 0.31255 0.0
C1869 C 0.11544 0.56892 0.30091 0.0
C1870 C 0.16043 0.52768 0.32741 0.0
C1871 C 0.16803 0.54096 0.34675 0.0
C1872 C 0.13296 0.55852 0.31713 0.0
C1873 C 0.1571 0.56268 0.35107 0.0
C1874 C 0.10233 0.58889 0.30722 0.0
C1875 C 0.09697 0.56838 0.26335 0.0
N1876 N 0.14016 0.57081 0.33634 0.0
N1877 N 0.11233 0.55936 0.27921 0.0
H1878 H 0.83695 0.99762 0.32638 0.0
H1879 H 0.93247 0.89718 0.30151 0.0
H1880 H 0.84392 0.93544 0.36932 0.0
H1881 H 0.91158 0.94944 0.25063 0.0
H1882 H 0.90408 0.91382 0.32937 0.0
H1883 H 0.86894 0.98337 0.3015 0.0
C1884 C 0.84539 0.98113 0.33076 0.0
C1885 C 0.83762 0.96762 0.34986 0.0
C1886 C 0.90577 0.92162 0.3121 0.0
C1887 C 0.87413 0.95116 0.32138 0.0
C1888 C 0.92194 0.91213 0.29621 0.0
C1889 C 0.92426 0.92183 0.27367 0.0
C1890 C 0.89207 0.94107 0.30544 0.0
C1891 C 0.91025 0.94126 0.26775 0.0
C1892 C 0.86355 0.97293 0.31646 0.0
C1893 C 0.84921 0.94634 0.35466 0.0
N1894 N 0.89479 0.95025 0.28353 0.0
N1895 N 0.86682 0.93872 0.34045 0.0
H1896 H 0.1723 0.16731 0.49359 0.0
H1897 H 0.2052 0.07747 0.39046 0.0
H1898 H 0.13635 0.16611 0.42679 0.0
H1899 H 0.25139 0.0938 0.44838 0.0
H1900 H 0.17695 0.10631 0.40556 0.0
H1901 H 0.1984 0.13617 0.47955 0.0
C1902 C 0.16973 0.16034 0.47607 0.0
C1903 C 0.15219 0.16942 0.4613 0.0
C1904 C 0.1933 0.10356 0.41491 0.0
C1905 C 0.18203 0.13386 0.44511 0.0
C1906 C 0.20941 0.08712 0.40631 0.0
C1907 C 0.23072 0.08332 0.41811 0.0
C1908 C 0.19845 0.11603 0.43559 0.0
C1909 C 0.23525 0.09627 0.43862 0.0
C1910 C 0.18472 0.14267 0.46802 0.0
C1911 C 0.14974 0.15975 0.43872 0.0
N1912 N 0.21923 0.11198 0.44674 0.0
N1913 N 0.16451 0.14251 0.4313 0.0
H1914 H 0.20523 0.92909 0.1095 0.0
H1915 H 0.17656 0.83445 0.0093 0.0
H1916 H 0.25594 0.90433 0.05878 0.0
H1917 H 0.13199 0.84581 0.06964 0.0
H1918 H 0.20338 0.86458 0.02407 0.0
H1919 H 0.17596 0.90246 0.0924 0.0
C1920 C 0.21021 0.91806 0.09481 0.0
C1921 C 0.23308 0.91882 0.08565 0.0
C1922 C 0.18764 0.86057 0.03399 0.0
C1923 C 0.19971 0.88863 0.06587 0.0
C1924 C 0.17224 0.84349 0.02548 0.0
C1925 C 0.15208 0.83747 0.03833 0.0
C1926 C 0.18278 0.87183 0.05542 0.0
C1927 C 0.14742 0.84976 0.05924 0.0
C1928 C 0.19351 0.9029 0.08505 0.0
C1929 C 0.23856 0.90421 0.06653 0.0
N1930 N 0.16271 0.86628 0.06719 0.0
N1931 N 0.222 0.88977 0.05727 0.0
H1932 H 0.82677 0.67326 0.00958 0.0
H1933 H 0.79631 0.57886 0.10937 0.0
H1934 H 0.86822 0.66471 0.07258 0.0
H1935 H 0.7478 0.60057 0.05521 0.0
H1936 H 0.82536 0.60656 0.0937 0.0
H1937 H 0.8005 0.64219 0.02323 0.0
C1938 C 0.83054 0.66465 0.02614 0.0
C1939 C 0.84963 0.67173 0.04004 0.0
C1940 C 0.80834 0.60522 0.08529 0.0
C1941 C 0.81951 0.63628 0.05584 0.0
C1942 C 0.79176 0.58946 0.09423 0.0
C1943 C 0.76956 0.58752 0.08366 0.0
C1944 C 0.80272 0.61892 0.06553 0.0
C1945 C 0.76463 0.6016 0.06403 0.0
C1946 C 0.81543 0.64702 0.03399 0.0
C1947 C 0.85361 0.65994 0.06136 0.0
N1948 N 0.78108 0.61666 0.05558 0.0
N1949 N 0.8386 0.64286 0.06867 0.0
H1950 H 0.31553 0.90842 0.88479 0.0
H1951 H 0.33458 0.82696 0.99785 0.0
H1952 H 0.26769 0.90489 0.94357 0.0
H1953 H 0.37068 0.81453 0.93227 0.0
H1954 H 0.31399 0.8599 0.97975 0.0
H1955 H 0.33934 0.87734 0.90309 0.0
C1956 C 0.30998 0.90105 0.90144 0.0
C1957 C 0.28955 0.90919 0.91261 0.0
C1958 C 0.32651 0.85004 0.96934 0.0
C1959 C 0.3168 0.87413 0.93375 0.0
C1960 C 0.33841 0.83131 0.97973 0.0
C1961 C 0.35428 0.81782 0.96653 0.0
C1962 C 0.33056 0.85547 0.94561 0.0
C1963 C 0.35849 0.82435 0.94308 0.0
C1964 C 0.32358 0.8834 0.91188 0.0
C1965 C 0.28322 0.89911 0.93422 0.0
N1966 N 0.34662 0.84267 0.93332 0.0
N1967 N 0.29683 0.88223 0.9441 0.0
H1968 H 0.98312 0.55215 0.20145 0.0
H1969 H 0.99098 0.46304 0.30177 0.0
H1970 H 0.97052 0.57291 0.27316 0.0
H1971 H 0.97232 0.44119 0.23171 0.0
H1972 H 0.97774 0.50281 0.29257 0.0
H1973 H 0.97309 0.5117 0.2117 0.0
C1974 C 0.97748 0.54826 0.21921 0.0
C1975 C 0.97785 0.56576 0.23656 0.0
C1976 C 0.97587 0.48923 0.27938 0.0
C1977 C 0.9672 0.51941 0.24863 0.0
C1978 C 0.98346 0.46653 0.28463 0.0
C1979 C 0.98297 0.44895 0.26736 0.0
C1980 C 0.96847 0.49456 0.25645 0.0
C1981 C 0.97303 0.4543 0.24547 0.0
C1982 C 0.97177 0.52516 0.22508 0.0
C1983 C 0.97045 0.55988 0.2593 0.0
N1984 N 0.96676 0.47683 0.2404 0.0
N1985 N 0.96608 0.53703 0.26487 0.0
H1986 H 0.04473 0.94278 0.2627 0.0
H1987 H 0.05037 0.06419 0.27296 0.0
H1988 H 0.01581 0.95632 0.19408 0.0
H1989 H 0.01641 0.06423 0.20537 0.0
H1990 H 0.06004 0.02256 0.26768 0.0
H1991 H 0.05651 0.98404 0.26545 0.0
C1992 C 0.04161 0.95433 0.24789 0.0
C1993 C 0.029 0.94634 0.22829 0.0
C1994 C 0.0509 0.03161 0.25372 0.0
C1995 C 0.04204 0.99367 0.23125 0.0
C1996 C 0.04568 0.05554 0.25667 0.0
C1997 C 0.03248 0.06744 0.23962 0.0
C1998 C 0.04267 0.01972 0.23359 0.0
C1999 C 0.02652 0.05555 0.21896 0.0
C2000 C 0.04817 0.97805 0.2495 0.0
C2001 C 0.0252 0.96192 0.20966 0.0
N2002 N 0.03141 0.03235 0.21667 0.0
N2003 N 0.0314 0.98483 0.21173 0.0
H2004 H 0.26687 0.96595 0.5668 0.0
H2005 H 0.22647 0.96685 0.43269 0.0
H2006 H 0.19683 0.98238 0.54298 0.0
H2007 H 0.29653 0.98248 0.45692 0.0
H2008 H 0.21577 0.9551 0.47283 0.0
H2009 H 0.27732 0.95447 0.52656 0.0
C2010 C 0.25345 0.96627 0.5533 0.0
C2011 C 0.23108 0.97547 0.55804 0.0
C2012 C 0.23368 0.96038 0.46914 0.0
C2013 C 0.24286 0.96247 0.51224 0.0
C2014 C 0.23982 0.96692 0.44626 0.0
C2015 C 0.2623 0.97593 0.44169 0.0
C2016 C 0.25026 0.96262 0.48732 0.0
C2017 C 0.27892 0.9759 0.45988 0.0
C2018 C 0.25946 0.95988 0.53035 0.0
C2019 C 0.21438 0.97569 0.5399 0.0
N2020 N 0.27249 0.96967 0.48199 0.0
N2021 N 0.22069 0.96964 0.5177 0.0
H2022 H 0.73571 0.53383 0.56329 0.0
H2023 H 0.73061 0.54421 0.44182 0.0
H2024 H 0.80563 0.50692 0.55237 0.0
H2025 H 0.79188 0.49981 0.44473 0.0
H2026 H 0.73635 0.5541 0.48349 0.0
H2027 H 0.73396 0.54504 0.52181 0.0
C2028 C 0.75105 0.53121 0.55232 0.0
C2029 C 0.77072 0.51919 0.56104 0.0
C2030 C 0.74871 0.54242 0.47501 0.0
C2031 C 0.769 0.53181 0.51363 0.0
C2032 C 0.74559 0.53707 0.45114 0.0
C2033 C 0.76065 0.52098 0.44011 0.0
C2034 C 0.76705 0.53152 0.48762 0.0
C2035 C 0.77974 0.51208 0.45278 0.0
C2036 C 0.75007 0.53755 0.52854 0.0
C2037 C 0.79003 0.51589 0.54617 0.0
N2038 N 0.78225 0.51731 0.47585 0.0
N2039 N 0.78853 0.52181 0.52316 0.0
H2040 H 0.23692 0.04456 0.94192 0.0
H2041 H 0.24599 0.03626 0.06354 0.0
H2042 H 0.29902 0.00129 0.94314 0.0
H2043 H 0.31507 0.00808 0.05063 0.0
H2044 H 0.2429 0.04673 0.02195 0.0
H2045 H 0.24354 0.05448 0.98342 0.0
C2046 C 0.25228 0.0377 0.95082 0.0
C2047 C 0.26736 0.02195 0.93934 0.0
C2048 C 0.25911 0.03906 0.02821 0.0
C2049 C 0.27475 0.03246 0.98676 0.0
C2050 C 0.26087 0.03316 0.05208 0.0
C2051 C 0.28069 0.02106 0.06035 0.0
C2052 C 0.27743 0.03281 0.01273 0.0
C2053 C 0.29936 0.01714 0.04483 0.0
C2054 C 0.25591 0.04305 0.97463 0.0
C2055 C 0.2869 0.01335 0.95152 0.0
N2056 N 0.29712 0.02266 0.02177 0.0
N2057 N 0.28989 0.01854 0.97455 0.0
H2058 H 0.70174 0.48616 0.04558 0.0
H2059 H 0.79667 0.50455 0.95325 0.0
H2060 H 0.7747 0.48078 0.06521 0.0
H2061 H 0.73254 0.46899 0.93413 0.0
H2062 H 0.78999 0.49371 0.9943 0.0
H2063 H 0.71235 0.47685 0.00498 0.0
C2064 C 0.71991 0.48223 0.04142 0.0
C2065 C 0.73741 0.48428 0.05863 0.0
C2066 C 0.77769 0.48773 0.98106 0.0
C2067 C 0.74977 0.47459 0.01222 0.0
C2068 C 0.78145 0.494 0.95767 0.0
C2069 C 0.76501 0.48782 0.9404 0.0
C2070 C 0.75697 0.47588 0.98727 0.0
C2071 C 0.74561 0.47411 0.94698 0.0
C2072 C 0.72597 0.47695 0.01828 0.0
C2073 C 0.76071 0.47925 0.0524 0.0
N2074 N 0.74176 0.46911 0.97004 0.0
N2075 N 0.76635 0.4753 0.02951 0.0
H2076 H 0.43888 0.29118 0.95982 0.0
H2077 H 0.56064 0.28123 0.96609 0.0
H2078 H 0.44015 0.22263 0.99197 0.0
H2079 H 0.5478 0.20904 0.98482 0.0
H2080 H 0.51905 0.28561 0.95594 0.0
H2081 H 0.48046 0.28648 0.94925 0.0
C2082 C 0.44782 0.27492 0.96411 0.0
C2083 C 0.43631 0.2574 0.97708 0.0
C2084 C 0.52531 0.26855 0.96144 0.0
C2085 C 0.48385 0.25202 0.96571 0.0
C2086 C 0.54918 0.26606 0.96712 0.0
C2087 C 0.55746 0.24482 0.97646 0.0
C2088 C 0.50985 0.24953 0.96514 0.0
C2089 C 0.54197 0.22577 0.97785 0.0
C2090 C 0.47168 0.27232 0.95837 0.0
C2091 C 0.44854 0.2367 0.98227 0.0
N2092 N 0.51893 0.22868 0.9726 0.0
N2093 N 0.47161 0.23471 0.97678 0.0
H2094 H 0.57349 0.73099 0.53081 0.0
H2095 H 0.43778 0.76609 0.53131 0.0
H2096 H 0.54681 0.80036 0.51599 0.0
H2097 H 0.46438 0.69702 0.51503 0.0
H2098 H 0.47761 0.7782 0.54262 0.0
H2099 H 0.53368 0.71864 0.54197 0.0
C2100 C 0.55944 0.74385 0.53078 0.0
C2101 C 0.56329 0.76662 0.52216 0.0
C2102 C 0.47454 0.76019 0.53725 0.0
C2103 C 0.51795 0.75266 0.53477 0.0
C2104 C 0.45182 0.75323 0.53096 0.0
C2105 C 0.44793 0.73064 0.52189 0.0
C2106 C 0.4933 0.74433 0.5347 0.0
C2107 C 0.46676 0.71471 0.52163 0.0
C2108 C 0.53673 0.73675 0.53697 0.0
C2109 C 0.54445 0.78255 0.52225 0.0
N2110 N 0.48871 0.72194 0.5276 0.0
N2111 N 0.52252 0.77519 0.52813 0.0
H2112 H 0.06193 0.73103 0.45082 0.0
H2113 H 0.94061 0.74416 0.46048 0.0
H2114 H 0.06341 0.79204 0.4956 0.0
H2115 H 0.95631 0.81163 0.49105 0.0
H2116 H 0.98202 0.73989 0.44964 0.0
H2117 H 0.02048 0.73922 0.44179 0.0
C2118 C 0.05363 0.74649 0.45821 0.0
C2119 C 0.06585 0.7608 0.47411 0.0
C2120 C 0.97642 0.75601 0.45797 0.0
C2121 C 0.0185 0.76996 0.46461 0.0
C2122 C 0.95266 0.75845 0.4641 0.0
C2123 C 0.9452 0.77812 0.47695 0.0
C2124 C 0.99262 0.77351 0.46473 0.0
C2125 C 0.96146 0.79603 0.48145 0.0
C2126 C 0.02985 0.75101 0.45336 0.0
C2127 C 0.05445 0.7805 0.4834 0.0
N2128 N 0.98438 0.79314 0.47566 0.0
N2129 N 0.03143 0.78435 0.47868 0.0
H2130 H 0.01551 0.44812 0.79563 0.0
H2131 H 0.03344 0.56064 0.75696 0.0
H2132 H 0.02292 0.42582 0.72368 0.0
H2133 H 0.99747 0.53257 0.69643 0.0
H2134 H 0.04552 0.52063 0.76767 0.0
H2135 H 0.02507 0.48824 0.78389 0.0
C2136 C 0.02007 0.45158 0.77748 0.0
C2137 C 0.01845 0.43374 0.76058 0.0
C2138 C 0.03528 0.52332 0.75186 0.0
C2139 C 0.02889 0.47967 0.74685 0.0
C2140 C 0.02858 0.54614 0.74562 0.0
C2141 C 0.014 0.54981 0.72607 0.0
C2142 C 0.02741 0.50419 0.73835 0.0
C2143 C 0.0083 0.53043 0.71192 0.0
C2144 C 0.02561 0.47449 0.77076 0.0
C2145 C 0.02417 0.43911 0.73723 0.0
N2146 N 0.0148 0.50842 0.71848 0.0
N2147 N 0.02842 0.46179 0.73091 0.0
H2148 H 0.9695 0.05634 0.7365 0.0
H2149 H 0.97515 0.92456 0.78408 0.0
H2150 H 0.98563 0.03721 0.80798 0.0
H2151 H 0.99444 0.946 0.71408 0.0
H2152 H 0.96116 0.9647 0.79196 0.0
H2153 H 0.96062 0.01495 0.72797 0.0
C2154 C 0.97023 0.04359 0.75061 0.0
C2155 C 0.97858 0.05002 0.77288 0.0
C2156 C 0.96773 0.96034 0.77463 0.0
C2157 C 0.96852 0.00298 0.76331 0.0
C2158 C 0.97555 0.93747 0.7701 0.0
C2159 C 0.98613 0.93219 0.7485 0.0
C2160 C 0.97025 0.97775 0.7573 0.0
C2161 C 0.98655 0.94955 0.73103 0.0
C2162 C 0.96533 0.02001 0.74571 0.0
C2163 C 0.97949 0.03282 0.79051 0.0
N2164 N 0.97899 0.97166 0.73588 0.0
N2165 N 0.97484 0.01 0.78528 0.0
H2166 H 0.73485 0.04115 0.43152 0.0
H2167 H 0.70016 0.01936 0.54402 0.0
H2168 H 0.8007 0.01605 0.45944 0.0
H2169 H 0.7706 0.0364 0.56601 0.0
H2170 H 0.71015 0.03089 0.50401 0.0
H2171 H 0.72291 0.05259 0.47137 0.0
C2172 C 0.74706 0.03869 0.44592 0.0
C2173 C 0.76856 0.02718 0.44233 0.0
C2174 C 0.72322 0.0331 0.51766 0.0
C2175 C 0.7549 0.03965 0.48779 0.0
C2176 C 0.71752 0.02637 0.54052 0.0
C2177 C 0.73462 0.02686 0.55824 0.0
C2178 C 0.7464 0.03977 0.51238 0.0
C2179 C 0.7569 0.03587 0.55281 0.0
C2180 C 0.74013 0.04494 0.46868 0.0
C2181 C 0.78375 0.02446 0.46157 0.0
N2182 N 0.76239 0.04129 0.53017 0.0
N2183 N 0.7765 0.03033 0.48352 0.0
H2184 H 0.19185 0.48468 0.45311 0.0
H2185 H 0.21773 0.46355 0.56755 0.0
H2186 H 0.26326 0.46603 0.43618 0.0
H2187 H 0.28564 0.48726 0.54376 0.0
H2188 H 0.20863 0.45087 0.5273 0.0
H2189 H 0.1985 0.47235 0.49356 0.0
C2190 C 0.20869 0.47711 0.45778 0.0
C2191 C 0.22709 0.47649 0.44143 0.0
C2192 C 0.22569 0.45843 0.53102 0.0
C2193 C 0.23507 0.4627 0.4878 0.0
C2194 C 0.23099 0.46539 0.55401 0.0
C2195 C 0.25225 0.47691 0.55875 0.0
C2196 C 0.24185 0.46306 0.51289 0.0
C2197 C 0.26885 0.47886 0.54065 0.0
C2198 C 0.21248 0.46992 0.48089 0.0
C2199 C 0.24863 0.46672 0.44832 0.0
N2200 N 0.26318 0.47233 0.51843 0.0
N2201 N 0.25228 0.46092 0.47123 0.0
H2202 H 0.69153 0.98643 0.95464 0.0
H2203 H 0.79231 0.98598 0.04316 0.0
H2204 H 0.76199 0.9687 0.93322 0.0
H2205 H 0.72136 0.97131 0.06514 0.0
H2206 H 0.7822 0.97369 0.00331 0.0
H2207 H 0.70124 0.97503 0.99486 0.0
C2208 C 0.70886 0.97944 0.95833 0.0
C2209 C 0.72608 0.97873 0.94072 0.0
C2210 C 0.76898 0.9724 0.01694 0.0
C2211 C 0.73757 0.9664 0.9868 0.0
C2212 C 0.77478 0.97938 0.03969 0.0
C2213 C 0.75758 0.97975 0.05731 0.0
C2214 C 0.74559 0.96658 0.01162 0.0
C2215 C 0.7351 0.97121 0.05198 0.0
C2216 C 0.71441 0.97292 0.98129 0.0
C2217 C 0.74824 0.96953 0.94634 0.0
N2218 N 0.72954 0.9656 0.0294 0.0
N2219 N 0.75359 0.96435 0.96907 0.0
H2220 H 0.23479 0.53364 0.93689 0.0
H2221 H 0.2306 0.54224 0.06059 0.0
H2222 H 0.30205 0.50081 0.94866 0.0
H2223 H 0.27836 0.48372 0.05448 0.0
H2224 H 0.23751 0.5515 0.01874 0.0
H2225 H 0.23152 0.54099 0.97933 0.0
C2226 C 0.24927 0.52888 0.9483 0.0
C2227 C 0.26859 0.51636 0.93941 0.0
C2228 C 0.24651 0.53673 0.02665 0.0
C2229 C 0.26502 0.52452 0.98769 0.0
C2230 C 0.24273 0.53159 0.0505 0.0
C2231 C 0.25369 0.512 0.06075 0.0
C2232 C 0.26167 0.52233 0.0134 0.0
C2233 C 0.26928 0.49875 0.04711 0.0
C2234 C 0.2474 0.53302 0.97254 0.0
C2235 C 0.28673 0.51024 0.95489 0.0
N2236 N 0.27278 0.50415 0.02422 0.0
N2237 N 0.28428 0.51397 0.97826 0.0
H2238 H 0.44116 0.77351 0.04782 0.0
H2239 H 0.56257 0.76006 0.04888 0.0
H2240 H 0.43995 0.70539 0.01493 0.0
H2241 H 0.5481 0.69879 0.00681 0.0
H2242 H 0.52108 0.76136 0.06048 0.0
H2243 H 0.48287 0.76801 0.05686 0.0
C2244 C 0.44954 0.75699 0.0434 0.0
C2245 C 0.43731 0.73987 0.03061 0.0
C2246 C 0.5269 0.74744 0.04895 0.0
C2247 C 0.48504 0.73342 0.04039 0.0
C2248 C 0.55071 0.74656 0.04259 0.0
C2249 C 0.55855 0.72954 0.02657 0.0
C2250 C 0.51104 0.73111 0.03915 0.0
C2251 C 0.54263 0.71245 0.01888 0.0
C2252 C 0.47348 0.75384 0.0484 0.0
C2253 C 0.44889 0.71899 0.02481 0.0
N2254 N 0.51967 0.71383 0.02504 0.0
N2255 N 0.47212 0.71649 0.02946 0.0
H2256 H 0.44704 0.19935 0.47713 0.0
H2257 H 0.55979 0.23441 0.45824 0.0
H2258 H 0.42545 0.27057 0.46311 0.0
H2259 H 0.53163 0.2993 0.48549 0.0
H2260 H 0.52012 0.22315 0.44555 0.0
H2261 H 0.4871 0.20957 0.46598 0.0
C2262 C 0.45063 0.21695 0.47081 0.0
C2263 C 0.43303 0.23419 0.47114 0.0
C2264 C 0.52272 0.24001 0.45396 0.0
C2265 C 0.47895 0.24623 0.45871 0.0
C2266 C 0.54539 0.24657 0.46093 0.0
C2267 C 0.54883 0.26756 0.4734 0.0
C2268 C 0.50356 0.25463 0.45952 0.0
C2269 C 0.5296 0.28272 0.47637 0.0
C2270 C 0.47353 0.22279 0.46431 0.0
C2271 C 0.43856 0.25677 0.46301 0.0
N2272 N 0.50773 0.27582 0.46979 0.0
N2273 N 0.46124 0.26236 0.45784 0.0
H2274 H 0.93442 0.26861 0.53933 0.0
H2275 H 0.05609 0.25698 0.53787 0.0
H2276 H 0.93405 0.2008 0.50579 0.0
H2277 H 0.04227 0.19188 0.50175 0.0
H2278 H 0.01459 0.2591 0.54906 0.0
H2279 H 0.97612 0.26342 0.54857 0.0
C2280 C 0.943 0.25224 0.53474 0.0
C2281 C 0.93098 0.2351 0.52178 0.0
C2282 C 0.02053 0.24412 0.53903 0.0
C2283 C 0.97878 0.22909 0.53162 0.0
C2284 C 0.04438 0.24283 0.53285 0.0
C2285 C 0.05243 0.22445 0.51853 0.0
C2286 C 0.00482 0.22681 0.53078 0.0
C2287 C 0.03665 0.20658 0.51245 0.0
C2288 C 0.96697 0.24931 0.53978 0.0
C2289 C 0.94281 0.21441 0.5158 0.0
N2290 N 0.01366 0.20836 0.51836 0.0
N2291 N 0.96605 0.21213 0.52051 0.0
H2292 H 0.47948 0.04464 0.69758 0.0
H2293 H 0.48172 0.95726 0.79933 0.0
H2294 H 0.46227 0.06663 0.76796 0.0
H2295 H 0.46642 0.93423 0.72886 0.0
H2296 H 0.46879 0.99684 0.78891 0.0
H2297 H 0.46891 0.00434 0.7079 0.0
C2298 C 0.47277 0.04105 0.71503 0.0
C2299 C 0.47196 0.05886 0.73203 0.0
C2300 C 0.46753 0.98303 0.77587 0.0
C2301 C 0.4606 0.0127 0.74422 0.0
C2302 C 0.4749 0.96044 0.78184 0.0
C2303 C 0.47529 0.9426 0.76485 0.0
C2304 C 0.4613 0.98798 0.75252 0.0
C2305 C 0.46636 0.94756 0.74244 0.0
C2306 C 0.46672 0.01804 0.72093 0.0
C2307 C 0.46316 0.05335 0.75437 0.0
N2308 N 0.46035 0.96999 0.73669 0.0
N2309 N 0.45845 0.03059 0.76005 0.0
H2310 H 0.53004 0.56618 0.71799 0.0
H2311 H 0.52985 0.43298 0.76153 0.0
H2312 H 0.51557 0.54398 0.7889 0.0
H2313 H 0.51089 0.45572 0.69182 0.0
H2314 H 0.54253 0.47325 0.77065 0.0
H2315 H 0.54106 0.52559 0.70808 0.0
C2316 C 0.53019 0.55297 0.7317 0.0
C2317 C 0.52172 0.55823 0.75421 0.0
C2318 C 0.53632 0.46919 0.75312 0.0
C2319 C 0.53409 0.5121 0.74307 0.0
C2320 C 0.52924 0.44623 0.74788 0.0
C2321 C 0.51904 0.44122 0.72602 0.0
C2322 C 0.53343 0.487 0.73625 0.0
C2323 C 0.51841 0.45903 0.70899 0.0
C2324 C 0.53628 0.52983 0.72601 0.0
C2325 C 0.52187 0.54047 0.77129 0.0
N2326 N 0.52519 0.48123 0.71455 0.0
N2327 N 0.52762 0.5181 0.7653 0.0
H2328 H 0.03922 0.29965 0.02108 0.0
H2329 H 0.9279 0.26229 0.04169 0.0
H2330 H 0.06262 0.2286 0.03288 0.0
H2331 H 0.95655 0.19812 0.01329 0.0
H2332 H 0.96755 0.27393 0.05398 0.0
H2333 H 0.99978 0.28844 0.03334 0.0
C2334 C 0.03618 0.28186 0.02716 0.0
C2335 C 0.05408 0.26498 0.02587 0.0
C2336 C 0.96508 0.25714 0.0454 0.0
C2337 C 0.00884 0.25179 0.03957 0.0
C2338 C 0.94242 0.25035 0.03866 0.0
C2339 C 0.93909 0.2295 0.02593 0.0
C2340 C 0.98437 0.24291 0.0393 0.0
C2341 C 0.95848 0.21461 0.02258 0.0
C2342 C 0.01363 0.27544 0.03429 0.0
C2343 C 0.04926 0.24213 0.03372 0.0
N2344 N 0.98034 0.22177 0.02888 0.0
N2345 N 0.02688 0.236 0.03952 0.0
H2346 H 0.52217 0.03996 0.20196 0.0
H2347 H 0.52332 0.95078 0.302 0.0
H2348 H 0.53935 0.06116 0.27256 0.0
H2349 H 0.5386 0.92948 0.23097 0.0
H2350 H 0.53515 0.99086 0.29222 0.0
H2351 H 0.53424 0.99985 0.21136 0.0
C2352 C 0.52927 0.03626 0.21924 0.0
C2353 C 0.52965 0.05375 0.23658 0.0
C2354 C 0.53663 0.97734 0.27892 0.0
C2355 C 0.54259 0.00777 0.24778 0.0
C2356 C 0.52987 0.95446 0.28451 0.0
C2357 C 0.52977 0.93694 0.26718 0.0
C2358 C 0.54257 0.98288 0.25562 0.0
C2359 C 0.5384 0.94254 0.24481 0.0
C2360 C 0.53613 0.01336 0.22463 0.0
C2361 C 0.53885 0.04812 0.25872 0.0
N2362 N 0.54382 0.96522 0.23945 0.0
N2363 N 0.54433 0.02541 0.26392 0.0
H2364 H 0.48717 0.45048 0.21345 0.0
H2365 H 0.48736 0.54342 0.31007 0.0
H2366 H 0.47313 0.43148 0.28534 0.0
H2367 H 0.46875 0.56151 0.23895 0.0
H2368 H 0.4763 0.50268 0.3023 0.0
H2369 H 0.47456 0.49064 0.22188 0.0
C2370 C 0.48067 0.45467 0.23085 0.0
C2371 C 0.48128 0.4378 0.24878 0.0
C2372 C 0.4739 0.51563 0.28856 0.0
C2373 C 0.46771 0.48387 0.25883 0.0
C2374 C 0.48022 0.53889 0.29301 0.0
C2375 C 0.47915 0.55571 0.27504 0.0
C2376 C 0.46726 0.50902 0.26574 0.0
C2377 C 0.46983 0.54901 0.25325 0.0
C2378 C 0.47349 0.47759 0.23568 0.0
C2379 C 0.47284 0.44404 0.27106 0.0
N2380 N 0.46487 0.526 0.24898 0.0
N2381 N 0.46703 0.46679 0.27566 0.0
H2382 H 0.06601 0.73613 0.96773 0.0
H2383 H 0.93206 0.77692 0.97069 0.0
H2384 H 0.04254 0.80629 0.98415 0.0
H2385 H 0.95635 0.70669 0.98553 0.0
H2386 H 0.97198 0.78751 0.95815 0.0
H2387 H 0.02561 0.72577 0.95666 0.0
C2388 C 0.05255 0.7496 0.9681 0.0
C2389 C 0.05744 0.77198 0.9772 0.0
C2390 C 0.96834 0.76959 0.96345 0.0
C2391 C 0.01146 0.76029 0.96471 0.0
C2392 C 0.94558 0.76351 0.97045 0.0
C2393 C 0.9411 0.74103 0.97948 0.0
C2394 C 0.98652 0.75295 0.96526 0.0
C2395 C 0.95924 0.72433 0.97898 0.0
C2396 C 0.02951 0.74364 0.96195 0.0
C2397 C 0.03935 0.78874 0.97752 0.0
N2398 N 0.98125 0.7307 0.97233 0.0
N2399 N 0.01706 0.78247 0.97172 0.0
loop_
_geom_bond_atom_site_label_1
_geom_bond_atom_site_label_2
_geom_bond_distance
_geom_bond_site_symmetry_2
_ccdc_geom_bond_type
O0 Cd1 2.223 . S
O0 C8 1.315 . S
Cd1 O0 2.223 . S
Cd1 O4 2.297 . S
Cd1 O5 2.439 . S
Cd1 O11 2.240 . S
Cd2 O3 2.240 . S
Cd2 O10 2.223 . S
Cd2 O12 2.297 . S
Cd2 O13 2.439 . S
O3 Cd2 2.240 . S
O3 C8 1.279 . S
O4 Cd1 2.297 . S
O4 C6 1.247 . S
O5 Cd1 2.439 . S
O5 C6 1.208 . S
C6 O4 1.247 . S
C6 O5 1.208 . S
C7 O12 1.247 . S
C7 O13 1.208 . S
C8 O0 1.315 . S
C8 O3 1.279 . S
C9 O10 1.315 . S
C9 O11 1.279 . S
O10 Cd2 2.223 . S
O10 C9 1.315 . S
O11 Cd1 2.240 . S
O11 C9 1.279 . S
O12 Cd2 2.297 . S
O12 C7 1.247 . S
O13 Cd2 2.439 . S
O13 C7 1.208 . S
O14 Cd15 2.223 . S
O14 C22 1.315 . S
Cd15 O14 2.223 . S
Cd15 O18 2.297 . S
Cd15 O19 2.439 . S
Cd15 O25 2.240 . S
Cd16 O17 2.240 . S
Cd16 O24 2.223 . S
Cd16 O26 2.297 . S
Cd16 O27 2.439 . S
O17 Cd16 2.240 . S
O17 C22 1.279 . S
O18 Cd15 2.297 . S
O18 C20 1.247 . S
O19 Cd15 2.439 . S
O19 C20 1.208 . S
C20 O18 1.247 . S
C20 O19 1.208 . S
C21 O26 1.247 . S
C21 O27 1.208 . S
C22 O14 1.315 . S
C22 O17 1.279 . S
C23 O24 1.315 . S
C23 O25 1.279 . S
O24 Cd16 2.223 . S
O24 C23 1.315 . S
O25 Cd15 2.240 . S
O25 C23 1.279 . S
O26 Cd16 2.297 . S
O26 C21 1.247 . S
O27 Cd16 2.439 . S
O27 C21 1.208 . S
O28 Cd29 2.223 . S
O28 C36 1.315 . S
Cd29 O28 2.223 . S
Cd29 O32 2.297 . S
Cd29 O33 2.439 . S
Cd29 O39 2.240 . S
Cd30 O31 2.240 . S
Cd30 O38 2.223 . S
Cd30 O40 2.297 . S
Cd30 O41 2.439 . S
O31 Cd30 2.240 . S
O31 C36 1.279 . S
O32 Cd29 2.297 . S
O32 C34 1.247 . S
O33 Cd29 2.439 . S
O33 C34 1.208 . S
C34 O32 1.247 . S
C34 O33 1.208 . S
C35 O40 1.247 . S
C35 O41 1.208 . S
C36 O28 1.315 . S
C36 O31 1.279 . S
C37 O38 1.315 . S
C37 O39 1.279 . S
O38 Cd30 2.223 . S
O38 C37 1.315 . S
O39 Cd29 2.240 . S
O39 C37 1.279 . S
O40 Cd30 2.297 . S
O40 C35 1.247 . S
O41 Cd30 2.439 . S
O41 C35 1.208 . S
O42 Cd43 2.223 . S
O42 C50 1.315 . S
Cd43 O42 2.223 . S
Cd43 O46 2.297 . S
Cd43 O47 2.439 . S
Cd43 O53 2.240 . S
Cd44 O45 2.240 . S
Cd44 O52 2.223 . S
Cd44 O54 2.297 . S
Cd44 O55 2.439 . S
O45 Cd44 2.240 . S
O45 C50 1.279 . S
O46 Cd43 2.297 . S
O46 C48 1.247 . S
O47 Cd43 2.439 . S
O47 C48 1.208 . S
C48 O46 1.247 . S
C48 O47 1.208 . S
C49 O54 1.247 . S
C49 O55 1.208 . S
C50 O42 1.315 . S
C50 O45 1.279 . S
C51 O52 1.315 . S
C51 O53 1.279 . S
O52 Cd44 2.223 . S
O52 C51 1.315 . S
O53 Cd43 2.240 . S
O53 C51 1.279 . S
O54 Cd44 2.297 . S
O54 C49 1.247 . S
O55 Cd44 2.439 . S
O55 C49 1.208 . S
O56 Cd57 2.223 . S
O56 C64 1.315 . S
Cd57 O56 2.223 . S
Cd57 O60 2.297 . S
Cd57 O61 2.439 . S
Cd57 O67 2.240 . S
Cd58 O59 2.240 . S
Cd58 O66 2.223 . S
Cd58 O68 2.297 . S
Cd58 O69 2.439 . S
O59 Cd58 2.240 . S
O59 C64 1.279 . S
O60 Cd57 2.297 . S
O60 C62 1.247 . S
O61 Cd57 2.439 . S
O61 C62 1.208 . S
C62 O60 1.247 . S
C62 O61 1.208 . S
C63 O68 1.247 . S
C63 O69 1.208 . S
C64 O56 1.315 . S
C64 O59 1.279 . S
C65 O66 1.315 . S
C65 O67 1.279 . S
O66 Cd58 2.223 . S
O66 C65 1.315 . S
O67 Cd57 2.240 . S
O67 C65 1.279 . S
O68 Cd58 2.297 . S
O68 C63 1.247 . S
O69 Cd58 2.439 . S
O69 C63 1.208 . S
O70 Cd71 2.223 . S
O70 C78 1.315 . S
Cd71 O70 2.223 . S
Cd71 O74 2.297 . S
Cd71 O75 2.439 . S
Cd71 O81 2.240 . S
Cd72 O73 2.240 . S
Cd72 O80 2.223 . S
Cd72 O82 2.297 . S
Cd72 O83 2.439 . S
O73 Cd72 2.240 . S
O73 C78 1.279 . S
O74 Cd71 2.297 . S
O74 C76 1.247 . S
O75 Cd71 2.439 . S
O75 C76 1.208 . S
C76 O74 1.247 . S
C76 O75 1.208 . S
C77 O82 1.247 . S
C77 O83 1.208 . S
C78 O70 1.315 . S
C78 O73 1.279 . S
C79 O80 1.315 . S
C79 O81 1.279 . S
O80 Cd72 2.223 . S
O80 C79 1.315 . S
O81 Cd71 2.240 . S
O81 C79 1.279 . S
O82 Cd72 2.297 . S
O82 C77 1.247 . S
O83 Cd72 2.439 . S
O83 C77 1.208 . S
O84 Cd85 2.223 . S
O84 C92 1.315 . S
Cd85 O84 2.223 . S
Cd85 O88 2.297 . S
Cd85 O89 2.439 . S
Cd85 O95 2.240 . S
Cd86 O87 2.240 . S
Cd86 O94 2.223 . S
Cd86 O96 2.297 . S
Cd86 O97 2.439 . S
O87 Cd86 2.240 . S
O87 C92 1.279 . S
O88 Cd85 2.297 . S
O88 C90 1.247 . S
O89 Cd85 2.439 . S
O89 C90 1.208 . S
C90 O88 1.247 . S
C90 O89 1.208 . S
C91 O96 1.247 . S
C91 O97 1.208 . S
C92 O84 1.315 . S
C92 O87 1.279 . S
C93 O94 1.315 . S
C93 O95 1.279 . S
O94 Cd86 2.223 . S
O94 C93 1.315 . S
O95 Cd85 2.240 . S
O95 C93 1.279 . S
O96 Cd86 2.297 . S
O96 C91 1.247 . S
O97 Cd86 2.439 . S
O97 C91 1.208 . S
O98 Cd99 2.223 . S
O98 C106 1.315 . S
Cd99 O98 2.223 . S
Cd99 O102 2.297 . S
Cd99 O103 2.439 . S
Cd99 O109 2.240 . S
Cd100 O101 2.240 . S
Cd100 O108 2.223 . S
Cd100 O110 2.297 . S
Cd100 O111 2.439 . S
O101 Cd100 2.240 . S
O101 C106 1.279 . S
O102 Cd99 2.297 . S
O102 C104 1.247 . S
O103 Cd99 2.439 . S
O103 C104 1.208 . S
C104 O102 1.247 . S
C104 O103 1.208 . S
C105 O110 1.247 . S
C105 O111 1.208 . S
C106 O98 1.315 . S
C106 O101 1.279 . S
C107 O108 1.315 . S
C107 O109 1.279 . S
O108 Cd100 2.223 . S
O108 C107 1.315 . S
O109 Cd99 2.240 . S
O109 C107 1.279 . S
O110 Cd100 2.297 . S
O110 C105 1.247 . S
O111 Cd100 2.439 . S
O111 C105 1.208 . S
O112 Cd113 2.223 . S
O112 C120 1.315 . S
Cd113 O112 2.223 . S
Cd113 O116 2.297 . S
Cd113 O117 2.439 . S
Cd113 O123 2.240 . S
Cd114 O115 2.240 . S
Cd114 O122 2.223 . S
Cd114 O124 2.297 . S
Cd114 O125 2.439 . S
O115 Cd114 2.240 . S
O115 C120 1.279 . S
O116 Cd113 2.297 . S
O116 C118 1.247 . S
O117 Cd113 2.439 . S
O117 C118 1.208 . S
C118 O116 1.247 . S
C118 O117 1.208 . S
C119 O124 1.247 . S
C119 O125 1.208 . S
C120 O112 1.315 . S
C120 O115 1.279 . S
C121 O122 1.315 . S
C121 O123 1.279 . S
O122 Cd114 2.223 . S
O122 C121 1.315 . S
O123 Cd113 2.240 . S
O123 C121 1.279 . S
O124 Cd114 2.297 . S
O124 C119 1.247 . S
O125 Cd114 2.439 . S
O125 C119 1.208 . S
O126 Cd127 2.223 . S
O126 C134 1.315 . S
Cd127 O126 2.223 . S
Cd127 O130 2.297 . S
Cd127 O131 2.439 . S
Cd127 O137 2.240 . S
Cd128 O129 2.240 . S
Cd128 O136 2.223 . S
Cd128 O138 2.297 . S
Cd128 O139 2.439 . S
O129 Cd128 2.240 . S
O129 C134 1.279 . S
O130 Cd127 2.297 . S
O130 C132 1.247 . S
O131 Cd127 2.439 . S
O131 C132 1.208 . S
C132 O130 1.247 . S
C132 O131 1.208 . S
C133 O138 1.247 . S
C133 O139 1.208 . S
C134 O126 1.315 . S
C134 O129 1.279 . S
C135 O136 1.315 . S
C135 O137 1.279 . S
O136 Cd128 2.223 . S
O136 C135 1.315 . S
O137 Cd127 2.240 . S
O137 C135 1.279 . S
O138 Cd128 2.297 . S
O138 C133 1.247 . S
O139 Cd128 2.439 . S
O139 C133 1.208 . S
O140 Cd141 2.223 . S
O140 C148 1.315 . S
Cd141 O140 2.223 . S
Cd141 O144 2.297 . S
Cd141 O145 2.439 . S
Cd141 O151 2.240 . S
Cd142 O143 2.240 . S
Cd142 O150 2.223 . S
Cd142 O152 2.297 . S
Cd142 O153 2.439 . S
O143 Cd142 2.240 . S
O143 C148 1.279 . S
O144 Cd141 2.297 . S
O144 C146 1.247 . S
O145 Cd141 2.439 . S
O145 C146 1.208 . S
C146 O144 1.247 . S
C146 O145 1.208 . S
C147 O152 1.247 . S
C147 O153 1.208 . S
C148 O140 1.315 . S
C148 O143 1.279 . S
C149 O150 1.315 . S
C149 O151 1.279 . S
O150 Cd142 2.223 . S
O150 C149 1.315 . S
O151 Cd141 2.240 . S
O151 C149 1.279 . S
O152 Cd142 2.297 . S
O152 C147 1.247 . S
O153 Cd142 2.439 . S
O153 C147 1.208 . S
O154 Cd155 2.223 . S
O154 C162 1.315 . S
Cd155 O154 2.223 . S
Cd155 O158 2.297 . S
Cd155 O159 2.439 . S
Cd155 O165 2.240 . S
Cd156 O157 2.240 . S
Cd156 O164 2.223 . S
Cd156 O166 2.297 . S
Cd156 O167 2.439 . S
O157 Cd156 2.240 . S
O157 C162 1.279 . S
O158 Cd155 2.297 . S
O158 C160 1.247 . S
O159 Cd155 2.439 . S
O159 C160 1.208 . S
C160 O158 1.247 . S
C160 O159 1.208 . S
C161 O166 1.247 . S
C161 O167 1.208 . S
C162 O154 1.315 . S
C162 O157 1.279 . S
C163 O164 1.315 . S
C163 O165 1.279 . S
O164 Cd156 2.223 . S
O164 C163 1.315 . S
O165 Cd155 2.240 . S
O165 C163 1.279 . S
O166 Cd156 2.297 . S
O166 C161 1.247 . S
O167 Cd156 2.439 . S
O167 C161 1.208 . S
O168 Cd169 2.223 . S
O168 C176 1.315 . S
Cd169 O168 2.223 . S
Cd169 O172 2.297 . S
Cd169 O173 2.439 . S
Cd169 O179 2.240 . S
Cd170 O171 2.240 . S
Cd170 O178 2.223 . S
Cd170 O180 2.297 . S
Cd170 O181 2.439 . S
O171 Cd170 2.240 . S
O171 C176 1.279 . S
O172 Cd169 2.297 . S
O172 C174 1.247 . S
O173 Cd169 2.439 . S
O173 C174 1.208 . S
C174 O172 1.247 . S
C174 O173 1.208 . S
C175 O180 1.247 . S
C175 O181 1.208 . S
C176 O168 1.315 . S
C176 O171 1.279 . S
C177 O178 1.315 . S
C177 O179 1.279 . S
O178 Cd170 2.223 . S
O178 C177 1.315 . S
O179 Cd169 2.240 . S
O179 C177 1.279 . S
O180 Cd170 2.297 . S
O180 C175 1.247 . S
O181 Cd170 2.439 . S
O181 C175 1.208 . S
O182 Cd183 2.223 . S
O182 C190 1.315 . S
Cd183 O182 2.223 . S
Cd183 O186 2.297 . S
Cd183 O187 2.439 . S
Cd183 O193 2.240 . S
Cd184 O185 2.240 . S
Cd184 O192 2.223 . S
Cd184 O194 2.297 . S
Cd184 O195 2.439 . S
O185 Cd184 2.240 . S
O185 C190 1.279 . S
O186 Cd183 2.297 . S
O186 C188 1.247 . S
O187 Cd183 2.439 . S
O187 C188 1.208 . S
C188 O186 1.247 . S
C188 O187 1.208 . S
C189 O194 1.247 . S
C189 O195 1.208 . S
C190 O182 1.315 . S
C190 O185 1.279 . S
C191 O192 1.315 . S
C191 O193 1.279 . S
O192 Cd184 2.223 . S
O192 C191 1.315 . S
O193 Cd183 2.240 . S
O193 C191 1.279 . S
O194 Cd184 2.297 . S
O194 C189 1.247 . S
O195 Cd184 2.439 . S
O195 C189 1.208 . S
O196 Cd197 2.223 . S
O196 C204 1.315 . S
Cd197 O196 2.223 . S
Cd197 O200 2.297 . S
Cd197 O201 2.439 . S
Cd197 O207 2.240 . S
Cd198 O199 2.240 . S
Cd198 O206 2.223 . S
Cd198 O208 2.297 . S
Cd198 O209 2.439 . S
O199 Cd198 2.240 . S
O199 C204 1.279 . S
O200 Cd197 2.297 . S
O200 C202 1.247 . S
O201 Cd197 2.439 . S
O201 C202 1.208 . S
C202 O200 1.247 . S
C202 O201 1.208 . S
C203 O208 1.247 . S
C203 O209 1.208 . S
C204 O196 1.315 . S
C204 O199 1.279 . S
C205 O206 1.315 . S
C205 O207 1.279 . S
O206 Cd198 2.223 . S
O206 C205 1.315 . S
O207 Cd197 2.240 . S
O207 C205 1.279 . S
O208 Cd198 2.297 . S
O208 C203 1.247 . S
O209 Cd198 2.439 . S
O209 C203 1.208 . S
O210 Cd211 2.223 . S
O210 C218 1.315 . S
Cd211 O210 2.223 . S
Cd211 O214 2.297 . S
Cd211 O215 2.439 . S
Cd211 O221 2.240 . S
Cd212 O213 2.240 . S
Cd212 O220 2.223 . S
Cd212 O222 2.297 . S
Cd212 O223 2.439 . S
O213 Cd212 2.240 . S
O213 C218 1.279 . S
O214 Cd211 2.297 . S
O214 C216 1.247 . S
O215 Cd211 2.439 . S
O215 C216 1.208 . S
C216 O214 1.247 . S
C216 O215 1.208 . S
C217 O222 1.247 . S
C217 O223 1.208 . S
C218 O210 1.315 . S
C218 O213 1.279 . S
C219 O220 1.315 . S
C219 O221 1.279 . S
O220 Cd212 2.223 . S
O220 C219 1.315 . S
O221 Cd211 2.240 . S
O221 C219 1.279 . S
O222 Cd212 2.297 . S
O222 C217 1.247 . S
O223 Cd212 2.439 . S
O223 C217 1.208 . S
O224 Cd225 2.223 . S
O224 C232 1.315 . S
Cd225 O224 2.223 . S
Cd225 O228 2.297 . S
Cd225 O229 2.439 . S
Cd225 O235 2.240 . S
Cd226 O227 2.240 . S
Cd226 O234 2.223 . S
Cd226 O236 2.297 . S
Cd226 O237 2.439 . S
O227 Cd226 2.240 . S
O227 C232 1.279 . S
O228 Cd225 2.297 . S
O228 C230 1.247 . S
O229 Cd225 2.439 . S
O229 C230 1.208 . S
C230 O228 1.247 . S
C230 O229 1.208 . S
C231 O236 1.247 . S
C231 O237 1.208 . S
C232 O224 1.315 . S
C232 O227 1.279 . S
C233 O234 1.315 . S
C233 O235 1.279 . S
O234 Cd226 2.223 . S
O234 C233 1.315 . S
O235 Cd225 2.240 . S
O235 C233 1.279 . S
O236 Cd226 2.297 . S
O236 C231 1.247 . S
O237 Cd226 2.439 . S
O237 C231 1.208 . S
O238 Cd239 2.223 . S
O238 C246 1.315 . S
Cd239 O238 2.223 . S
Cd239 O242 2.297 . S
Cd239 O243 2.439 . S
Cd239 O249 2.240 . S
Cd240 O241 2.240 . S
Cd240 O248 2.223 . S
Cd240 O250 2.297 . S
Cd240 O251 2.439 . S
O241 Cd240 2.240 . S
O241 C246 1.279 . S
O242 Cd239 2.297 . S
O242 C244 1.247 . S
O243 Cd239 2.439 . S
O243 C244 1.208 . S
C244 O242 1.247 . S
C244 O243 1.208 . S
C245 O250 1.247 . S
C245 O251 1.208 . S
C246 O238 1.315 . S
C246 O241 1.279 . S
C247 O248 1.315 . S
C247 O249 1.279 . S
O248 Cd240 2.223 . S
O248 C247 1.315 . S
O249 Cd239 2.240 . S
O249 C247 1.279 . S
O250 Cd240 2.297 . S
O250 C245 1.247 . S
O251 Cd240 2.439 . S
O251 C245 1.208 . S
O252 Cd253 2.223 . S
O252 C260 1.315 . S
Cd253 O252 2.223 . S
Cd253 O256 2.297 . S
Cd253 O257 2.439 . S
Cd253 O263 2.240 . S
Cd254 O255 2.240 . S
Cd254 O262 2.223 . S
Cd254 O264 2.297 . S
Cd254 O265 2.439 . S
O255 Cd254 2.240 . S
O255 C260 1.279 . S
O256 Cd253 2.297 . S
O256 C258 1.247 . S
O257 Cd253 2.439 . S
O257 C258 1.208 . S
C258 O256 1.247 . S
C258 O257 1.208 . S
C259 O264 1.247 . S
C259 O265 1.208 . S
C260 O252 1.315 . S
C260 O255 1.279 . S
C261 O262 1.315 . S
C261 O263 1.279 . S
O262 Cd254 2.223 . S
O262 C261 1.315 . S
O263 Cd253 2.240 . S
O263 C261 1.279 . S
O264 Cd254 2.297 . S
O264 C259 1.247 . S
O265 Cd254 2.439 . S
O265 C259 1.208 . S
O266 Cd267 2.223 . S
O266 C274 1.315 . S
Cd267 O266 2.223 . S
Cd267 O270 2.297 . S
Cd267 O271 2.439 . S
Cd267 O277 2.240 . S
Cd268 O269 2.240 . S
Cd268 O276 2.223 . S
Cd268 O278 2.297 . S
Cd268 O279 2.439 . S
O269 Cd268 2.240 . S
O269 C274 1.279 . S
O270 Cd267 2.297 . S
O270 C272 1.247 . S
O271 Cd267 2.439 . S
O271 C272 1.208 . S
C272 O270 1.247 . S
C272 O271 1.208 . S
C273 O278 1.247 . S
C273 O279 1.208 . S
C274 O266 1.315 . S
C274 O269 1.279 . S
C275 O276 1.315 . S
C275 O277 1.279 . S
O276 Cd268 2.223 . S
O276 C275 1.315 . S
O277 Cd267 2.240 . S
O277 C275 1.279 . S
O278 Cd268 2.297 . S
O278 C273 1.247 . S
O279 Cd268 2.439 . S
O279 C273 1.208 . S
O280 Cd281 2.223 . S
O280 C288 1.315 . S
Cd281 O280 2.223 . S
Cd281 O284 2.297 . S
Cd281 O285 2.439 . S
Cd281 O291 2.240 . S
Cd282 O283 2.240 . S
Cd282 O290 2.223 . S
Cd282 O292 2.297 . S
Cd282 O293 2.439 . S
O283 Cd282 2.240 . S
O283 C288 1.279 . S
O284 Cd281 2.297 . S
O284 C286 1.247 . S
O285 Cd281 2.439 . S
O285 C286 1.208 . S
C286 O284 1.247 . S
C286 O285 1.208 . S
C287 O292 1.247 . S
C287 O293 1.208 . S
C288 O280 1.315 . S
C288 O283 1.279 . S
C289 O290 1.315 . S
C289 O291 1.279 . S
O290 Cd282 2.223 . S
O290 C289 1.315 . S
O291 Cd281 2.240 . S
O291 C289 1.279 . S
O292 Cd282 2.297 . S
O292 C287 1.247 . S
O293 Cd282 2.439 . S
O293 C287 1.208 . S
O294 Cd295 2.223 . S
O294 C302 1.315 . S
Cd295 O294 2.223 . S
Cd295 O298 2.297 . S
Cd295 O299 2.439 . S
Cd295 O305 2.240 . S
Cd296 O297 2.240 . S
Cd296 O304 2.223 . S
Cd296 O306 2.297 . S
Cd296 O307 2.439 . S
O297 Cd296 2.240 . S
O297 C302 1.279 . S
O298 Cd295 2.297 . S
O298 C300 1.247 . S
O299 Cd295 2.439 . S
O299 C300 1.208 . S
C300 O298 1.247 . S
C300 O299 1.208 . S
C301 O306 1.247 . S
C301 O307 1.208 . S
C302 O294 1.315 . S
C302 O297 1.279 . S
C303 O304 1.315 . S
C303 O305 1.279 . S
O304 Cd296 2.223 . S
O304 C303 1.315 . S
O305 Cd295 2.240 . S
O305 C303 1.279 . S
O306 Cd296 2.297 . S
O306 C301 1.247 . S
O307 Cd296 2.439 . S
O307 C301 1.208 . S
O308 Cd309 2.223 . S
O308 C316 1.315 . S
Cd309 O308 2.223 . S
Cd309 O312 2.297 . S
Cd309 O313 2.439 . S
Cd309 O319 2.240 . S
Cd310 O311 2.240 . S
Cd310 O318 2.223 . S
Cd310 O320 2.297 . S
Cd310 O321 2.439 . S
O311 Cd310 2.240 . S
O311 C316 1.279 . S
O312 Cd309 2.297 . S
O312 C314 1.247 . S
O313 Cd309 2.439 . S
O313 C314 1.208 . S
C314 O312 1.247 . S
C314 O313 1.208 . S
C315 O320 1.247 . S
C315 O321 1.208 . S
C316 O308 1.315 . S
C316 O311 1.279 . S
C317 O318 1.315 . S
C317 O319 1.279 . S
O318 Cd310 2.223 . S
O318 C317 1.315 . S
O319 Cd309 2.240 . S
O319 C317 1.279 . S
O320 Cd310 2.297 . S
O320 C315 1.247 . S
O321 Cd310 2.439 . S
O321 C315 1.208 . S
O322 Cd323 2.223 . S
O322 C330 1.315 . S
Cd323 O322 2.223 . S
Cd323 O326 2.297 . S
Cd323 O327 2.439 . S
Cd323 O333 2.240 . S
Cd324 O325 2.240 . S
Cd324 O332 2.223 . S
Cd324 O334 2.297 . S
Cd324 O335 2.439 . S
O325 Cd324 2.240 . S
O325 C330 1.279 . S
O326 Cd323 2.297 . S
O326 C328 1.247 . S
O327 Cd323 2.439 . S
O327 C328 1.208 . S
C328 O326 1.247 . S
C328 O327 1.208 . S
C329 O334 1.247 . S
C329 O335 1.208 . S
C330 O322 1.315 . S
C330 O325 1.279 . S
C331 O332 1.315 . S
C331 O333 1.279 . S
O332 Cd324 2.223 . S
O332 C331 1.315 . S
O333 Cd323 2.240 . S
O333 C331 1.279 . S
O334 Cd324 2.297 . S
O334 C329 1.247 . S
O335 Cd324 2.439 . S
O335 C329 1.208 . S
O336 Cd337 2.223 . S
O336 C344 1.315 . S
Cd337 O336 2.223 . S
Cd337 O340 2.297 . S
Cd337 O341 2.439 . S
Cd337 O347 2.240 . S
Cd338 O339 2.240 . S
Cd338 O346 2.223 . S
Cd338 O348 2.297 . S
Cd338 O349 2.439 . S
O339 Cd338 2.240 . S
O339 C344 1.279 . S
O340 Cd337 2.297 . S
O340 C342 1.247 . S
O341 Cd337 2.439 . S
O341 C342 1.208 . S
C342 O340 1.247 . S
C342 O341 1.208 . S
C343 O348 1.247 . S
C343 O349 1.208 . S
C344 O336 1.315 . S
C344 O339 1.279 . S
C345 O346 1.315 . S
C345 O347 1.279 . S
O346 Cd338 2.223 . S
O346 C345 1.315 . S
O347 Cd337 2.240 . S
O347 C345 1.279 . S
O348 Cd338 2.297 . S
O348 C343 1.247 . S
O349 Cd338 2.439 . S
O349 C343 1.208 . S
O350 Cd351 2.223 . S
O350 C358 1.315 . S
Cd351 O350 2.223 . S
Cd351 O354 2.297 . S
Cd351 O355 2.439 . S
Cd351 O361 2.240 . S
Cd352 O353 2.240 . S
Cd352 O360 2.223 . S
Cd352 O362 2.297 . S
Cd352 O363 2.439 . S
O353 Cd352 2.240 . S
O353 C358 1.279 . S
O354 Cd351 2.297 . S
O354 C356 1.247 . S
O355 Cd351 2.439 . S
O355 C356 1.208 . S
C356 O354 1.247 . S
C356 O355 1.208 . S
C357 O362 1.247 . S
C357 O363 1.208 . S
C358 O350 1.315 . S
C358 O353 1.279 . S
C359 O360 1.315 . S
C359 O361 1.279 . S
O360 Cd352 2.223 . S
O360 C359 1.315 . S
O361 Cd351 2.240 . S
O361 C359 1.279 . S
O362 Cd352 2.297 . S
O362 C357 1.247 . S
O363 Cd352 2.439 . S
O363 C357 1.208 . S
O364 Cd365 2.223 . S
O364 C372 1.315 . S
Cd365 O364 2.223 . S
Cd365 O368 2.297 . S
Cd365 O369 2.439 . S
Cd365 O375 2.240 . S
Cd366 O367 2.240 . S
Cd366 O374 2.223 . S
Cd366 O376 2.297 . S
Cd366 O377 2.439 . S
O367 Cd366 2.240 . S
O367 C372 1.279 . S
O368 Cd365 2.297 . S
O368 C370 1.247 . S
O369 Cd365 2.439 . S
O369 C370 1.208 . S
C370 O368 1.247 . S
C370 O369 1.208 . S
C371 O376 1.247 . S
C371 O377 1.208 . S
C372 O364 1.315 . S
C372 O367 1.279 . S
C373 O374 1.315 . S
C373 O375 1.279 . S
O374 Cd366 2.223 . S
O374 C373 1.315 . S
O375 Cd365 2.240 . S
O375 C373 1.279 . S
O376 Cd366 2.297 . S
O376 C371 1.247 . S
O377 Cd366 2.439 . S
O377 C371 1.208 . S
O378 Cd379 2.223 . S
O378 C386 1.315 . S
Cd379 O378 2.223 . S
Cd379 O382 2.297 . S
Cd379 O383 2.439 . S
Cd379 O389 2.240 . S
Cd380 O381 2.240 . S
Cd380 O388 2.223 . S
Cd380 O390 2.297 . S
Cd380 O391 2.439 . S
O381 Cd380 2.240 . S
O381 C386 1.279 . S
O382 Cd379 2.297 . S
O382 C384 1.247 . S
O383 Cd379 2.439 . S
O383 C384 1.208 . S
C384 O382 1.247 . S
C384 O383 1.208 . S
C385 O390 1.247 . S
C385 O391 1.208 . S
C386 O378 1.315 . S
C386 O381 1.279 . S
C387 O388 1.315 . S
C387 O389 1.279 . S
O388 Cd380 2.223 . S
O388 C387 1.315 . S
O389 Cd379 2.240 . S
O389 C387 1.279 . S
O390 Cd380 2.297 . S
O390 C385 1.247 . S
O391 Cd380 2.439 . S
O391 C385 1.208 . S
O392 Cd393 2.223 . S
O392 C400 1.315 . S
Cd393 O392 2.223 . S
Cd393 O396 2.297 . S
Cd393 O397 2.439 . S
Cd393 O403 2.240 . S
Cd394 O395 2.240 . S
Cd394 O402 2.223 . S
Cd394 O404 2.297 . S
Cd394 O405 2.439 . S
O395 Cd394 2.240 . S
O395 C400 1.279 . S
O396 Cd393 2.297 . S
O396 C398 1.247 . S
O397 Cd393 2.439 . S
O397 C398 1.208 . S
C398 O396 1.247 . S
C398 O397 1.208 . S
C399 O404 1.247 . S
C399 O405 1.208 . S
C400 O392 1.315 . S
C400 O395 1.279 . S
C401 O402 1.315 . S
C401 O403 1.279 . S
O402 Cd394 2.223 . S
O402 C401 1.315 . S
O403 Cd393 2.240 . S
O403 C401 1.279 . S
O404 Cd394 2.297 . S
O404 C399 1.247 . S
O405 Cd394 2.439 . S
O405 C399 1.208 . S
O406 Cd407 2.223 . S
O406 C414 1.315 . S
Cd407 O406 2.223 . S
Cd407 O410 2.297 . S
Cd407 O411 2.439 . S
Cd407 O417 2.240 . S
Cd408 O409 2.240 . S
Cd408 O416 2.223 . S
Cd408 O418 2.297 . S
Cd408 O419 2.439 . S
O409 Cd408 2.240 . S
O409 C414 1.279 . S
O410 Cd407 2.297 . S
O410 C412 1.247 . S
O411 Cd407 2.439 . S
O411 C412 1.208 . S
C412 O410 1.247 . S
C412 O411 1.208 . S
C413 O418 1.247 . S
C413 O419 1.208 . S
C414 O406 1.315 . S
C414 O409 1.279 . S
C415 O416 1.315 . S
C415 O417 1.279 . S
O416 Cd408 2.223 . S
O416 C415 1.315 . S
O417 Cd407 2.240 . S
O417 C415 1.279 . S
O418 Cd408 2.297 . S
O418 C413 1.247 . S
O419 Cd408 2.439 . S
O419 C413 1.208 . S
O420 Cd421 2.223 . S
O420 C428 1.315 . S
Cd421 O420 2.223 . S
Cd421 O424 2.297 . S
Cd421 O425 2.439 . S
Cd421 O431 2.240 . S
Cd422 O423 2.240 . S
Cd422 O430 2.223 . S
Cd422 O432 2.297 . S
Cd422 O433 2.439 . S
O423 Cd422 2.240 . S
O423 C428 1.279 . S
O424 Cd421 2.297 . S
O424 C426 1.247 . S
O425 Cd421 2.439 . S
O425 C426 1.208 . S
C426 O424 1.247 . S
C426 O425 1.208 . S
C427 O432 1.247 . S
C427 O433 1.208 . S
C428 O420 1.315 . S
C428 O423 1.279 . S
C429 O430 1.315 . S
C429 O431 1.279 . S
O430 Cd422 2.223 . S
O430 C429 1.315 . S
O431 Cd421 2.240 . S
O431 C429 1.279 . S
O432 Cd422 2.297 . S
O432 C427 1.247 . S
O433 Cd422 2.439 . S
O433 C427 1.208 . S
O434 Cd435 2.223 . S
O434 C442 1.315 . S
Cd435 O434 2.223 . S
Cd435 O438 2.297 . S
Cd435 O439 2.439 . S
Cd435 O445 2.240 . S
Cd436 O437 2.240 . S
Cd436 O444 2.223 . S
Cd436 O446 2.297 . S
Cd436 O447 2.439 . S
O437 Cd436 2.240 . S
O437 C442 1.279 . S
O438 Cd435 2.297 . S
O438 C440 1.247 . S
O439 Cd435 2.439 . S
O439 C440 1.208 . S
C440 O438 1.247 . S
C440 O439 1.208 . S
C441 O446 1.247 . S
C441 O447 1.208 . S
C442 O434 1.315 . S
C442 O437 1.279 . S
C443 O444 1.315 . S
C443 O445 1.279 . S
O444 Cd436 2.223 . S
O444 C443 1.315 . S
O445 Cd435 2.240 . S
O445 C443 1.279 . S
O446 Cd436 2.297 . S
O446 C441 1.247 . S
O447 Cd436 2.439 . S
O447 C441 1.208 . S
O448 Cd449 2.223 . S
O448 C456 1.315 . S
Cd449 O448 2.223 . S
Cd449 O452 2.297 . S
Cd449 O453 2.439 . S
Cd449 O459 2.240 . S
Cd450 O451 2.240 . S
Cd450 O458 2.223 . S
Cd450 O460 2.297 . S
Cd450 O461 2.439 . S
O451 Cd450 2.240 . S
O451 C456 1.279 . S
O452 Cd449 2.297 . S
O452 C454 1.247 . S
O453 Cd449 2.439 . S
O453 C454 1.208 . S
C454 O452 1.247 . S
C454 O453 1.208 . S
C455 O460 1.247 . S
C455 O461 1.208 . S
C456 O448 1.315 . S
C456 O451 1.279 . S
C457 O458 1.315 . S
C457 O459 1.279 . S
O458 Cd450 2.223 . S
O458 C457 1.315 . S
O459 Cd449 2.240 . S
O459 C457 1.279 . S
O460 Cd450 2.297 . S
O460 C455 1.247 . S
O461 Cd450 2.439 . S
O461 C455 1.208 . S
O462 Cd463 2.223 . S
O462 C470 1.315 . S
Cd463 O462 2.223 . S
Cd463 O466 2.297 . S
Cd463 O467 2.439 . S
Cd463 O473 2.240 . S
Cd464 O465 2.240 . S
Cd464 O472 2.223 . S
Cd464 O474 2.297 . S
Cd464 O475 2.439 . S
O465 Cd464 2.240 . S
O465 C470 1.279 . S
O466 Cd463 2.297 . S
O466 C468 1.247 . S
O467 Cd463 2.439 . S
O467 C468 1.208 . S
C468 O466 1.247 . S
C468 O467 1.208 . S
C469 O474 1.247 . S
C469 O475 1.208 . S
C470 O462 1.315 . S
C470 O465 1.279 . S
C471 O472 1.315 . S
C471 O473 1.279 . S
O472 Cd464 2.223 . S
O472 C471 1.315 . S
O473 Cd463 2.240 . S
O473 C471 1.279 . S
O474 Cd464 2.297 . S
O474 C469 1.247 . S
O475 Cd464 2.439 . S
O475 C469 1.208 . S
O476 Cd477 2.223 . S
O476 C484 1.315 . S
Cd477 O476 2.223 . S
Cd477 O480 2.297 . S
Cd477 O481 2.439 . S
Cd477 O487 2.240 . S
Cd478 O479 2.240 . S
Cd478 O486 2.223 . S
Cd478 O488 2.297 . S
Cd478 O489 2.439 . S
O479 Cd478 2.240 . S
O479 C484 1.279 . S
O480 Cd477 2.297 . S
O480 C482 1.247 . S
O481 Cd477 2.439 . S
O481 C482 1.208 . S
C482 O480 1.247 . S
C482 O481 1.208 . S
C483 O488 1.247 . S
C483 O489 1.208 . S
C484 O476 1.315 . S
C484 O479 1.279 . S
C485 O486 1.315 . S
C485 O487 1.279 . S
O486 Cd478 2.223 . S
O486 C485 1.315 . S
O487 Cd477 2.240 . S
O487 C485 1.279 . S
O488 Cd478 2.297 . S
O488 C483 1.247 . S
O489 Cd478 2.439 . S
O489 C483 1.208 . S
O490 Cd491 2.223 . S
O490 C498 1.315 . S
Cd491 O490 2.223 . S
Cd491 O494 2.297 . S
Cd491 O495 2.439 . S
Cd491 O501 2.240 . S
Cd492 O493 2.240 . S
Cd492 O500 2.223 . S
Cd492 O502 2.297 . S
Cd492 O503 2.439 . S
O493 Cd492 2.240 . S
O493 C498 1.279 . S
O494 Cd491 2.297 . S
O494 C496 1.247 . S
O495 Cd491 2.439 . S
O495 C496 1.208 . S
C496 O494 1.247 . S
C496 O495 1.208 . S
C497 O502 1.247 . S
C497 O503 1.208 . S
C498 O490 1.315 . S
C498 O493 1.279 . S
C499 O500 1.315 . S
C499 O501 1.279 . S
O500 Cd492 2.223 . S
O500 C499 1.315 . S
O501 Cd491 2.240 . S
O501 C499 1.279 . S
O502 Cd492 2.297 . S
O502 C497 1.247 . S
O503 Cd492 2.439 . S
O503 C497 1.208 . S
O504 Cd505 2.223 . S
O504 C512 1.315 . S
Cd505 O504 2.223 . S
Cd505 O508 2.297 . S
Cd505 O509 2.439 . S
Cd505 O515 2.240 . S
Cd506 O507 2.240 . S
Cd506 O514 2.223 . S
Cd506 O516 2.297 . S
Cd506 O517 2.439 . S
O507 Cd506 2.240 . S
O507 C512 1.279 . S
O508 Cd505 2.297 . S
O508 C510 1.247 . S
O509 Cd505 2.439 . S
O509 C510 1.208 . S
C510 O508 1.247 . S
C510 O509 1.208 . S
C511 O516 1.247 . S
C511 O517 1.208 . S
C512 O504 1.315 . S
C512 O507 1.279 . S
C513 O514 1.315 . S
C513 O515 1.279 . S
O514 Cd506 2.223 . S
O514 C513 1.315 . S
O515 Cd505 2.240 . S
O515 C513 1.279 . S
O516 Cd506 2.297 . S
O516 C511 1.247 . S
O517 Cd506 2.439 . S
O517 C511 1.208 . S
O518 Cd519 2.223 . S
O518 C526 1.315 . S
Cd519 O518 2.223 . S
Cd519 O522 2.297 . S
Cd519 O523 2.439 . S
Cd519 O529 2.240 . S
Cd520 O521 2.240 . S
Cd520 O528 2.223 . S
Cd520 O530 2.297 . S
Cd520 O531 2.439 . S
O521 Cd520 2.240 . S
O521 C526 1.279 . S
O522 Cd519 2.297 . S
O522 C524 1.247 . S
O523 Cd519 2.439 . S
O523 C524 1.208 . S
C524 O522 1.247 . S
C524 O523 1.208 . S
C525 O530 1.247 . S
C525 O531 1.208 . S
C526 O518 1.315 . S
C526 O521 1.279 . S
C527 O528 1.315 . S
C527 O529 1.279 . S
O528 Cd520 2.223 . S
O528 C527 1.315 . S
O529 Cd519 2.240 . S
O529 C527 1.279 . S
O530 Cd520 2.297 . S
O530 C525 1.247 . S
O531 Cd520 2.439 . S
O531 C525 1.208 . S
O532 Cd533 2.223 . S
O532 C540 1.315 . S
Cd533 O532 2.223 . S
Cd533 O536 2.297 . S
Cd533 O537 2.439 . S
Cd533 O543 2.240 . S
Cd534 O535 2.240 . S
Cd534 O542 2.223 . S
Cd534 O544 2.297 . S
Cd534 O545 2.439 . S
O535 Cd534 2.240 . S
O535 C540 1.279 . S
O536 Cd533 2.297 . S
O536 C538 1.247 . S
O537 Cd533 2.439 . S
O537 C538 1.208 . S
C538 O536 1.247 . S
C538 O537 1.208 . S
C539 O544 1.247 . S
C539 O545 1.208 . S
C540 O532 1.315 . S
C540 O535 1.279 . S
C541 O542 1.315 . S
C541 O543 1.279 . S
O542 Cd534 2.223 . S
O542 C541 1.315 . S
O543 Cd533 2.240 . S
O543 C541 1.279 . S
O544 Cd534 2.297 . S
O544 C539 1.247 . S
O545 Cd534 2.439 . S
O545 C539 1.208 . S
O546 Cd547 2.223 . S
O546 C554 1.315 . S
Cd547 O546 2.223 . S
Cd547 O550 2.297 . S
Cd547 O551 2.439 . S
Cd547 O557 2.240 . S
Cd548 O549 2.240 . S
Cd548 O556 2.223 . S
Cd548 O558 2.297 . S
Cd548 O559 2.439 . S
O549 Cd548 2.240 . S
O549 C554 1.279 . S
O550 Cd547 2.297 . S
O550 C552 1.247 . S
O551 Cd547 2.439 . S
O551 C552 1.208 . S
C552 O550 1.247 . S
C552 O551 1.208 . S
C553 O558 1.247 . S
C553 O559 1.208 . S
C554 O546 1.315 . S
C554 O549 1.279 . S
C555 O556 1.315 . S
C555 O557 1.279 . S
O556 Cd548 2.223 . S
O556 C555 1.315 . S
O557 Cd547 2.240 . S
O557 C555 1.279 . S
O558 Cd548 2.297 . S
O558 C553 1.247 . S
O559 Cd548 2.439 . S
O559 C553 1.208 . S
O560 Cd561 2.223 . S
O560 C568 1.315 . S
Cd561 O560 2.223 . S
Cd561 O564 2.297 . S
Cd561 O565 2.439 . S
Cd561 O571 2.240 . S
Cd562 O563 2.240 . S
Cd562 O570 2.223 . S
Cd562 O572 2.297 . S
Cd562 O573 2.439 . S
O563 Cd562 2.240 . S
O563 C568 1.279 . S
O564 Cd561 2.297 . S
O564 C566 1.247 . S
O565 Cd561 2.439 . S
O565 C566 1.208 . S
C566 O564 1.247 . S
C566 O565 1.208 . S
C567 O572 1.247 . S
C567 O573 1.208 . S
C568 O560 1.315 . S
C568 O563 1.279 . S
C569 O570 1.315 . S
C569 O571 1.279 . S
O570 Cd562 2.223 . S
O570 C569 1.315 . S
O571 Cd561 2.240 . S
O571 C569 1.279 . S
O572 Cd562 2.297 . S
O572 C567 1.247 . S
O573 Cd562 2.439 . S
O573 C567 1.208 . S
O574 Cd575 2.223 . S
O574 C582 1.315 . S
Cd575 O574 2.223 . S
Cd575 O578 2.297 . S
Cd575 O579 2.439 . S
Cd575 O585 2.240 . S
Cd576 O577 2.240 . S
Cd576 O584 2.223 . S
Cd576 O586 2.297 . S
Cd576 O587 2.439 . S
O577 Cd576 2.240 . S
O577 C582 1.279 . S
O578 Cd575 2.297 . S
O578 C580 1.247 . S
O579 Cd575 2.439 . S
O579 C580 1.208 . S
C580 O578 1.247 . S
C580 O579 1.208 . S
C581 O586 1.247 . S
C581 O587 1.208 . S
C582 O574 1.315 . S
C582 O577 1.279 . S
C583 O584 1.315 . S
C583 O585 1.279 . S
O584 Cd576 2.223 . S
O584 C583 1.315 . S
O585 Cd575 2.240 . S
O585 C583 1.279 . S
O586 Cd576 2.297 . S
O586 C581 1.247 . S
O587 Cd576 2.439 . S
O587 C581 1.208 . S
O588 Cd589 2.223 . S
O588 C596 1.315 . S
Cd589 O588 2.223 . S
Cd589 O592 2.297 . S
Cd589 O593 2.439 . S
Cd589 O599 2.240 . S
Cd590 O591 2.240 . S
Cd590 O598 2.223 . S
Cd590 O600 2.297 . S
Cd590 O601 2.439 . S
O591 Cd590 2.240 . S
O591 C596 1.279 . S
O592 Cd589 2.297 . S
O592 C594 1.247 . S
O593 Cd589 2.439 . S
O593 C594 1.208 . S
C594 O592 1.247 . S
C594 O593 1.208 . S
C595 O600 1.247 . S
C595 O601 1.208 . S
C596 O588 1.315 . S
C596 O591 1.279 . S
C597 O598 1.315 . S
C597 O599 1.279 . S
O598 Cd590 2.223 . S
O598 C597 1.315 . S
O599 Cd589 2.240 . S
O599 C597 1.279 . S
O600 Cd590 2.297 . S
O600 C595 1.247 . S
O601 Cd590 2.439 . S
O601 C595 1.208 . S
O602 Cd603 2.223 . S
O602 C610 1.315 . S
Cd603 O602 2.223 . S
Cd603 O606 2.297 . S
Cd603 O607 2.439 . S
Cd603 O613 2.240 . S
Cd604 O605 2.240 . S
Cd604 O612 2.223 . S
Cd604 O614 2.297 . S
Cd604 O615 2.439 . S
O605 Cd604 2.240 . S
O605 C610 1.279 . S
O606 Cd603 2.297 . S
O606 C608 1.247 . S
O607 Cd603 2.439 . S
O607 C608 1.208 . S
C608 O606 1.247 . S
C608 O607 1.208 . S
C609 O614 1.247 . S
C609 O615 1.208 . S
C610 O602 1.315 . S
C610 O605 1.279 . S
C611 O612 1.315 . S
C611 O613 1.279 . S
O612 Cd604 2.223 . S
O612 C611 1.315 . S
O613 Cd603 2.240 . S
O613 C611 1.279 . S
O614 Cd604 2.297 . S
O614 C609 1.247 . S
O615 Cd604 2.439 . S
O615 C609 1.208 . S
O616 Cd617 2.223 . S
O616 C624 1.315 . S
Cd617 O616 2.223 . S
Cd617 O620 2.297 . S
Cd617 O621 2.439 . S
Cd617 O627 2.240 . S
Cd618 O619 2.240 . S
Cd618 O626 2.223 . S
Cd618 O628 2.297 . S
Cd618 O629 2.439 . S
O619 Cd618 2.240 . S
O619 C624 1.279 . S
O620 Cd617 2.297 . S
O620 C622 1.247 . S
O621 Cd617 2.439 . S
O621 C622 1.208 . S
C622 O620 1.247 . S
C622 O621 1.208 . S
C623 O628 1.247 . S
C623 O629 1.208 . S
C624 O616 1.315 . S
C624 O619 1.279 . S
C625 O626 1.315 . S
C625 O627 1.279 . S
O626 Cd618 2.223 . S
O626 C625 1.315 . S
O627 Cd617 2.240 . S
O627 C625 1.279 . S
O628 Cd618 2.297 . S
O628 C623 1.247 . S
O629 Cd618 2.439 . S
O629 C623 1.208 . S
O630 Cd631 2.223 . S
O630 C638 1.315 . S
Cd631 O630 2.223 . S
Cd631 O634 2.297 . S
Cd631 O635 2.439 . S
Cd631 O641 2.240 . S
Cd632 O633 2.240 . S
Cd632 O640 2.223 . S
Cd632 O642 2.297 . S
Cd632 O643 2.439 . S
O633 Cd632 2.240 . S
O633 C638 1.279 . S
O634 Cd631 2.297 . S
O634 C636 1.247 . S
O635 Cd631 2.439 . S
O635 C636 1.208 . S
C636 O634 1.247 . S
C636 O635 1.208 . S
C637 O642 1.247 . S
C637 O643 1.208 . S
C638 O630 1.315 . S
C638 O633 1.279 . S
C639 O640 1.315 . S
C639 O641 1.279 . S
O640 Cd632 2.223 . S
O640 C639 1.315 . S
O641 Cd631 2.240 . S
O641 C639 1.279 . S
O642 Cd632 2.297 . S
O642 C637 1.247 . S
O643 Cd632 2.439 . S
O643 C637 1.208 . S
O644 Cd645 2.223 . S
O644 C652 1.315 . S
Cd645 O644 2.223 . S
Cd645 O648 2.297 . S
Cd645 O649 2.439 . S
Cd645 O655 2.240 . S
Cd646 O647 2.240 . S
Cd646 O654 2.223 . S
Cd646 O656 2.297 . S
Cd646 O657 2.439 . S
O647 Cd646 2.240 . S
O647 C652 1.279 . S
O648 Cd645 2.297 . S
O648 C650 1.247 . S
O649 Cd645 2.439 . S
O649 C650 1.208 . S
C650 O648 1.247 . S
C650 O649 1.208 . S
C651 O656 1.247 . S
C651 O657 1.208 . S
C652 O644 1.315 . S
C652 O647 1.279 . S
C653 O654 1.315 . S
C653 O655 1.279 . S
O654 Cd646 2.223 . S
O654 C653 1.315 . S
O655 Cd645 2.240 . S
O655 C653 1.279 . S
O656 Cd646 2.297 . S
O656 C651 1.247 . S
O657 Cd646 2.439 . S
O657 C651 1.208 . S
O658 Cd659 2.223 . S
O658 C666 1.315 . S
Cd659 O658 2.223 . S
Cd659 O662 2.297 . S
Cd659 O663 2.439 . S
Cd659 O669 2.240 . S
Cd660 O661 2.240 . S
Cd660 O668 2.223 . S
Cd660 O670 2.297 . S
Cd660 O671 2.439 . S
O661 Cd660 2.240 . S
O661 C666 1.279 . S
O662 Cd659 2.297 . S
O662 C664 1.247 . S
O663 Cd659 2.439 . S
O663 C664 1.208 . S
C664 O662 1.247 . S
C664 O663 1.208 . S
C665 O670 1.247 . S
C665 O671 1.208 . S
C666 O658 1.315 . S
C666 O661 1.279 . S
C667 O668 1.315 . S
C667 O669 1.279 . S
O668 Cd660 2.223 . S
O668 C667 1.315 . S
O669 Cd659 2.240 . S
O669 C667 1.279 . S
O670 Cd660 2.297 . S
O670 C665 1.247 . S
O671 Cd660 2.439 . S
O671 C665 1.208 . S
H672 C678 0.930 . S
H673 C682 0.930 . S
H674 C687 0.929 . S
H675 C685 0.929 . S
H676 C680 0.929 . S
H677 C686 0.929 . S
C678 H672 0.930 . S
C678 C679 1.367 . S
C678 C686 1.378 . S
C679 C678 1.367 . S
C679 C687 1.433 1_655 S
C680 H676 0.929 . S
C680 C682 1.378 . S
C680 C684 1.350 . S
C681 C684 1.463 1_655 S
C681 C686 1.350 . S
C681 N689 1.427 1_655 S
C682 H673 0.930 . S
C682 C680 1.378 . S
C682 C683 1.367 . S
C683 C682 1.367 . S
C683 C685 1.433 1_455 S
C684 C680 1.350 . S
C684 C681 1.463 1_455 S
C684 N688 1.427 1_455 S
C685 H675 0.929 . S
C685 C683 1.433 1_655 S
C685 N688 1.384 . S
C686 H677 0.929 . S
C686 C678 1.378 . S
C686 C681 1.350 . S
C687 H674 0.929 . S
C687 C679 1.433 1_455 S
C687 N689 1.384 . S
N688 C684 1.427 1_655 S
N688 C685 1.384 . S
N689 C681 1.427 1_455 S
N689 C687 1.384 . S
H690 C696 0.930 . S
H691 C700 0.930 . S
H692 C705 0.929 . S
H693 C703 0.929 . S
H694 C698 0.929 1_455 S
H695 C704 0.929 1_655 S
C696 H690 0.930 . S
C696 C697 1.367 . S
C696 C704 1.378 . S
C697 C696 1.367 . S
C697 C705 1.433 . S
C698 H694 0.929 1_655 S
C698 C700 1.378 . S
C698 C702 1.350 . S
C699 C702 1.463 1_455 S
C699 C704 1.350 . S
C699 N707 1.427 . S
C700 H691 0.930 . S
C700 C698 1.378 . S
C700 C701 1.367 . S
C701 C700 1.367 . S
C701 C703 1.433 . S
C702 C698 1.350 . S
C702 C699 1.463 1_655 S
C702 N706 1.427 . S
C703 H693 0.929 . S
C703 C701 1.433 . S
C703 N706 1.384 . S
C704 H695 0.929 1_455 S
C704 C696 1.378 . S
C704 C699 1.350 . S
C705 H692 0.929 . S
C705 C697 1.433 . S
C705 N707 1.384 . S
N706 C702 1.427 . S
N706 C703 1.384 . S
N707 C699 1.427 . S
N707 C705 1.384 . S
H708 C714 0.930 . S
H709 C718 0.930 . S
H710 C723 0.929 . S
H711 C721 0.929 . S
H712 C716 0.929 . S
H713 C722 0.929 . S
C714 H708 0.930 . S
C714 C715 1.367 . S
C714 C722 1.378 . S
C715 C714 1.367 . S
C715 C723 1.433 1_565 S
C716 H712 0.929 . S
C716 C718 1.378 . S
C716 C720 1.350 . S
C717 C720 1.463 1_565 S
C717 C722 1.350 . S
C717 N725 1.427 1_565 S
C718 H709 0.930 . S
C718 C716 1.378 . S
C718 C719 1.367 . S
C719 C718 1.367 . S
C719 C721 1.433 1_545 S
C720 C716 1.350 . S
C720 C717 1.463 1_545 S
C720 N724 1.427 1_545 S
C721 H711 0.929 . S
C721 C719 1.433 1_565 S
C721 N724 1.384 . S
C722 H713 0.929 . S
C722 C714 1.378 . S
C722 C717 1.350 . S
C723 H710 0.929 . S
C723 C715 1.433 1_545 S
C723 N725 1.384 . S
N724 C720 1.427 1_565 S
N724 C721 1.384 . S
N725 C717 1.427 1_545 S
N725 C723 1.384 . S
H726 C732 0.930 . S
H727 C736 0.930 . S
H728 C741 0.929 . S
H729 C739 0.929 . S
H730 C734 0.929 . S
H731 C740 0.929 . S
C732 H726 0.930 . S
C732 C733 1.367 . S
C732 C740 1.378 . S
C733 C732 1.367 . S
C733 C741 1.433 . S
C734 H730 0.929 . S
C734 C736 1.378 . S
C734 C738 1.350 . S
C735 C738 1.463 . S
C735 C740 1.350 . S
C735 N743 1.427 . S
C736 H727 0.930 . S
C736 C734 1.378 . S
C736 C737 1.367 . S
C737 C736 1.367 . S
C737 C739 1.433 . S
C738 C734 1.350 . S
C738 C735 1.463 . S
C738 N742 1.427 . S
C739 H729 0.929 . S
C739 C737 1.433 . S
C739 N742 1.384 . S
C740 H731 0.929 . S
C740 C732 1.378 . S
C740 C735 1.350 . S
C741 H728 0.929 . S
C741 C733 1.433 . S
C741 N743 1.384 . S
N742 C738 1.427 . S
N742 C739 1.384 . S
N743 C735 1.427 . S
N743 C741 1.384 . S
H744 C750 0.930 . S
H745 C754 0.930 . S
H746 C759 0.929 . S
H747 C757 0.929 . S
H748 C752 0.929 . S
H749 C758 0.929 . S
C750 H744 0.930 . S
C750 C751 1.367 . S
C750 C758 1.378 . S
C751 C750 1.367 . S
C751 C759 1.433 1_554 S
C752 H748 0.929 . S
C752 C754 1.378 . S
C752 C756 1.350 . S
C753 C756 1.463 1_554 S
C753 C758 1.350 . S
C753 N761 1.427 1_554 S
C754 H745 0.930 . S
C754 C752 1.378 . S
C754 C755 1.367 . S
C755 C754 1.367 . S
C755 C757 1.433 1_556 S
C756 C752 1.350 . S
C756 C753 1.463 1_556 S
C756 N760 1.427 1_556 S
C757 H747 0.929 . S
C757 C755 1.433 1_554 S
C757 N760 1.384 . S
C758 H749 0.929 . S
C758 C750 1.378 . S
C758 C753 1.350 . S
C759 H746 0.929 . S
C759 C751 1.433 1_556 S
C759 N761 1.384 . S
N760 C756 1.427 1_554 S
N760 C757 1.384 . S
N761 C753 1.427 1_556 S
N761 C759 1.384 . S
H762 C768 0.930 . S
H763 C772 0.930 . S
H764 C777 0.929 . S
H765 C775 0.929 . S
H766 C770 0.929 . S
H767 C776 0.929 . S
C768 H762 0.930 . S
C768 C769 1.367 . S
C768 C776 1.378 . S
C769 C768 1.367 . S
C769 C777 1.433 . S
C770 H766 0.929 . S
C770 C772 1.378 . S
C770 C774 1.350 . S
C771 C774 1.463 . S
C771 C776 1.350 . S
C771 N779 1.427 . S
C772 H763 0.930 . S
C772 C770 1.378 . S
C772 C773 1.367 . S
C773 C772 1.367 . S
C773 C775 1.433 . S
C774 C770 1.350 . S
C774 C771 1.463 . S
C774 N778 1.427 . S
C775 H765 0.929 . S
C775 C773 1.433 . S
C775 N778 1.384 . S
C776 H767 0.929 . S
C776 C768 1.378 . S
C776 C771 1.350 . S
C777 H764 0.929 . S
C777 C769 1.433 . S
C777 N779 1.384 . S
N778 C774 1.427 . S
N778 C775 1.384 . S
N779 C771 1.427 . S
N779 C777 1.384 . S
H780 C786 0.930 . S
H781 C790 0.930 . S
H782 C795 0.929 . S
H783 C793 0.929 . S
H784 C788 0.929 . S
H785 C794 0.929 . S
C786 H780 0.930 . S
C786 C787 1.367 . S
C786 C794 1.378 . S
C787 C786 1.367 . S
C787 C795 1.433 . S
C788 H784 0.929 . S
C788 C790 1.378 . S
C788 C792 1.350 . S
C789 C792 1.463 . S
C789 C794 1.350 . S
C789 N797 1.427 . S
C790 H781 0.930 . S
C790 C788 1.378 . S
C790 C791 1.367 . S
C791 C790 1.367 . S
C791 C793 1.433 . S
C792 C788 1.350 . S
C792 C789 1.463 . S
C792 N796 1.427 . S
C793 H783 0.929 . S
C793 C791 1.433 . S
C793 N796 1.384 . S
C794 H785 0.929 . S
C794 C786 1.378 . S
C794 C789 1.350 . S
C795 H782 0.929 . S
C795 C787 1.433 . S
C795 N797 1.384 . S
N796 C792 1.427 . S
N796 C793 1.384 . S
N797 C789 1.427 . S
N797 C795 1.384 . S
H798 C804 0.930 . S
H799 C808 0.930 . S
H800 C813 0.929 . S
H801 C811 0.929 . S
H802 C806 0.929 . S
H803 C812 0.929 . S
C804 H798 0.930 . S
C804 C805 1.367 . S
C804 C812 1.378 . S
C805 C804 1.367 . S
C805 C813 1.433 1_455 S
C806 H802 0.929 . S
C806 C808 1.378 . S
C806 C810 1.350 . S
C807 C810 1.463 1_455 S
C807 C812 1.350 . S
C807 N815 1.427 1_455 S
C808 H799 0.930 . S
C808 C806 1.378 . S
C808 C809 1.367 . S
C809 C808 1.367 . S
C809 C811 1.433 1_655 S
C810 C806 1.350 . S
C810 C807 1.463 1_655 S
C810 N814 1.427 1_655 S
C811 H801 0.929 . S
C811 C809 1.433 1_455 S
C811 N814 1.384 . S
C812 H803 0.929 . S
C812 C804 1.378 . S
C812 C807 1.350 . S
C813 H800 0.929 . S
C813 C805 1.433 1_655 S
C813 N815 1.384 . S
N814 C810 1.427 1_455 S
N814 C811 1.384 . S
N815 C807 1.427 1_655 S
N815 C813 1.384 . S
H816 C822 0.930 . S
H817 C826 0.930 . S
H818 C831 0.929 . S
H819 C829 0.929 . S
H820 C824 0.929 . S
H821 C830 0.929 . S
C822 H816 0.930 . S
C822 C823 1.367 1_655 S
C822 C830 1.378 . S
C823 C822 1.367 1_455 S
C823 C831 1.433 . S
C824 H820 0.929 . S
C824 C826 1.378 . S
C824 C828 1.350 1_455 S
C825 C828 1.463 1_455 S
C825 C830 1.350 1_455 S
C825 N833 1.427 . S
C826 H817 0.930 . S
C826 C824 1.378 . S
C826 C827 1.367 1_455 S
C827 C826 1.367 1_655 S
C827 C829 1.433 . S
C828 C824 1.350 1_655 S
C828 C825 1.463 1_655 S
C828 N832 1.427 . S
C829 H819 0.929 . S
C829 C827 1.433 . S
C829 N832 1.384 . S
C830 H821 0.929 . S
C830 C822 1.378 . S
C830 C825 1.350 1_655 S
C831 H818 0.929 . S
C831 C823 1.433 . S
C831 N833 1.384 . S
N832 C828 1.427 . S
N832 C829 1.384 . S
N833 C825 1.427 . S
N833 C831 1.384 . S
H834 C840 0.930 . S
H835 C844 0.930 . S
H836 C849 0.929 . S
H837 C847 0.929 . S
H838 C842 0.929 . S
H839 C848 0.929 . S
C840 H834 0.930 . S
C840 C841 1.367 1_565 S
C840 C848 1.378 . S
C841 C840 1.367 1_545 S
C841 C849 1.433 . S
C842 H838 0.929 . S
C842 C844 1.378 . S
C842 C846 1.350 1_545 S
C843 C846 1.463 1_545 S
C843 C848 1.350 1_545 S
C843 N851 1.427 . S
C844 H835 0.930 . S
C844 C842 1.378 . S
C844 C845 1.367 1_545 S
C845 C844 1.367 1_565 S
C845 C847 1.433 . S
C846 C842 1.350 1_565 S
C846 C843 1.463 1_565 S
C846 N850 1.427 . S
C847 H837 0.929 . S
C847 C845 1.433 . S
C847 N850 1.384 . S
C848 H839 0.929 . S
C848 C840 1.378 . S
C848 C843 1.350 1_565 S
C849 H836 0.929 . S
C849 C841 1.433 . S
C849 N851 1.384 . S
N850 C846 1.427 . S
N850 C847 1.384 . S
N851 C843 1.427 . S
N851 C849 1.384 . S
H852 C858 0.930 . S
H853 C862 0.930 . S
H854 C867 0.929 . S
H855 C865 0.929 . S
H856 C860 0.929 . S
H857 C866 0.929 . S
C858 H852 0.930 . S
C858 C859 1.367 . S
C858 C866 1.378 . S
C859 C858 1.367 . S
C859 C867 1.433 . S
C860 H856 0.929 . S
C860 C862 1.378 . S
C860 C864 1.350 . S
C861 C864 1.463 . S
C861 C866 1.350 . S
C861 N869 1.427 . S
C862 H853 0.930 . S
C862 C860 1.378 . S
C862 C863 1.367 . S
C863 C862 1.367 . S
C863 C865 1.433 . S
C864 C860 1.350 . S
C864 C861 1.463 . S
C864 N868 1.427 . S
C865 H855 0.929 . S
C865 C863 1.433 . S
C865 N868 1.384 . S
C866 H857 0.929 . S
C866 C858 1.378 . S
C866 C861 1.350 . S
C867 H854 0.929 . S
C867 C859 1.433 . S
C867 N869 1.384 . S
N868 C864 1.427 . S
N868 C865 1.384 . S
N869 C861 1.427 . S
N869 C867 1.384 . S
H870 C876 0.930 . S
H871 C880 0.930 . S
H872 C885 0.929 . S
H873 C883 0.929 . S
H874 C878 0.929 . S
H875 C884 0.929 . S
C876 H870 0.930 . S
C876 C877 1.367 . S
C876 C884 1.378 . S
C877 C876 1.367 . S
C877 C885 1.433 1_556 S
C878 H874 0.929 . S
C878 C880 1.378 . S
C878 C882 1.350 . S
C879 C882 1.463 1_556 S
C879 C884 1.350 . S
C879 N887 1.427 1_556 S
C880 H871 0.930 . S
C880 C878 1.378 . S
C880 C881 1.367 . S
C881 C880 1.367 . S
C881 C883 1.433 1_554 S
C882 C878 1.350 . S
C882 C879 1.463 1_554 S
C882 N886 1.427 1_554 S
C883 H873 0.929 . S
C883 C881 1.433 1_556 S
C883 N886 1.384 . S
C884 H875 0.929 . S
C884 C876 1.378 . S
C884 C879 1.350 . S
C885 H872 0.929 . S
C885 C877 1.433 1_554 S
C885 N887 1.384 . S
N886 C882 1.427 1_556 S
N886 C883 1.384 . S
N887 C879 1.427 1_554 S
N887 C885 1.384 . S
H888 C894 0.930 . S
H889 C898 0.930 . S
H890 C903 0.929 . S
H891 C901 0.929 . S
H892 C896 0.929 . S
H893 C902 0.929 . S
C894 H888 0.930 . S
C894 C895 1.367 . S
C894 C902 1.378 . S
C895 C894 1.367 . S
C895 C903 1.433 . S
C896 H892 0.929 . S
C896 C898 1.378 . S
C896 C900 1.350 . S
C897 C900 1.463 . S
C897 C902 1.350 . S
C897 N905 1.427 . S
C898 H889 0.930 . S
C898 C896 1.378 . S
C898 C899 1.367 . S
C899 C898 1.367 . S
C899 C901 1.433 . S
C900 C896 1.350 . S
C900 C897 1.463 . S
C900 N904 1.427 . S
C901 H891 0.929 . S
C901 C899 1.433 . S
C901 N904 1.384 . S
C902 H893 0.929 . S
C902 C894 1.378 . S
C902 C897 1.350 . S
C903 H890 0.929 . S
C903 C895 1.433 . S
C903 N905 1.384 . S
N904 C900 1.427 . S
N904 C901 1.384 . S
N905 C897 1.427 . S
N905 C903 1.384 . S
H906 C912 0.930 . S
H907 C916 0.930 . S
H908 C921 0.929 . S
H909 C919 0.929 . S
H910 C914 0.929 . S
H911 C920 0.929 . S
C912 H906 0.930 . S
C912 C913 1.367 . S
C912 C920 1.378 . S
C913 C912 1.367 . S
C913 C921 1.433 . S
C914 H910 0.929 . S
C914 C916 1.378 . S
C914 C918 1.350 . S
C915 C918 1.463 . S
C915 C920 1.350 . S
C915 N923 1.427 . S
C916 H907 0.930 . S
C916 C914 1.378 . S
C916 C917 1.367 . S
C917 C916 1.367 . S
C917 C919 1.433 . S
C918 C914 1.350 . S
C918 C915 1.463 . S
C918 N922 1.427 . S
C919 H909 0.929 . S
C919 C917 1.433 . S
C919 N922 1.384 . S
C920 H911 0.929 . S
C920 C912 1.378 . S
C920 C915 1.350 . S
C921 H908 0.929 . S
C921 C913 1.433 . S
C921 N923 1.384 . S
N922 C918 1.427 . S
N922 C919 1.384 . S
N923 C915 1.427 . S
N923 C921 1.384 . S
H924 C930 0.930 . S
H925 C934 0.930 . S
H926 C939 0.929 . S
H927 C937 0.929 . S
H928 C932 0.929 . S
H929 C938 0.929 . S
C930 H924 0.930 . S
C930 C931 1.367 . S
C930 C938 1.378 . S
C931 C930 1.367 . S
C931 C939 1.433 . S
C932 H928 0.929 . S
C932 C934 1.378 . S
C932 C936 1.350 . S
C933 C936 1.463 . S
C933 C938 1.350 . S
C933 N941 1.427 . S
C934 H925 0.930 . S
C934 C932 1.378 . S
C934 C935 1.367 . S
C935 C934 1.367 . S
C935 C937 1.433 . S
C936 C932 1.350 . S
C936 C933 1.463 . S
C936 N940 1.427 . S
C937 H927 0.929 . S
C937 C935 1.433 . S
C937 N940 1.384 . S
C938 H929 0.929 . S
C938 C930 1.378 . S
C938 C933 1.350 . S
C939 H926 0.929 . S
C939 C931 1.433 . S
C939 N941 1.384 . S
N940 C936 1.427 . S
N940 C937 1.384 . S
N941 C933 1.427 . S
N941 C939 1.384 . S
H942 C948 0.930 . S
H943 C952 0.930 . S
H944 C957 0.929 . S
H945 C955 0.929 . S
H946 C950 0.929 . S
H947 C956 0.929 . S
C948 H942 0.930 . S
C948 C949 1.367 . S
C948 C956 1.378 . S
C949 C948 1.367 . S
C949 C957 1.433 . S
C950 H946 0.929 . S
C950 C952 1.378 . S
C950 C954 1.350 . S
C951 C954 1.463 . S
C951 C956 1.350 . S
C951 N959 1.427 . S
C952 H943 0.930 . S
C952 C950 1.378 . S
C952 C953 1.367 . S
C953 C952 1.367 . S
C953 C955 1.433 . S
C954 C950 1.350 . S
C954 C951 1.463 . S
C954 N958 1.427 . S
C955 H945 0.929 . S
C955 C953 1.433 . S
C955 N958 1.384 . S
C956 H947 0.929 . S
C956 C948 1.378 . S
C956 C951 1.350 . S
C957 H944 0.929 . S
C957 C949 1.433 . S
C957 N959 1.384 . S
N958 C954 1.427 . S
N958 C955 1.384 . S
N959 C951 1.427 . S
N959 C957 1.384 . S
H960 C966 0.930 . S
H961 C970 0.930 . S
H962 C975 0.929 . S
H963 C973 0.929 . S
H964 C968 0.929 . S
H965 C974 0.929 . S
C966 H960 0.930 . S
C966 C967 1.367 . S
C966 C974 1.378 . S
C967 C966 1.367 . S
C967 C975 1.433 . S
C968 H964 0.929 . S
C968 C970 1.378 . S
C968 C972 1.350 . S
C969 C972 1.463 . S
C969 C974 1.350 . S
C969 N977 1.427 . S
C970 H961 0.930 . S
C970 C968 1.378 . S
C970 C971 1.367 . S
C971 C970 1.367 . S
C971 C973 1.433 . S
C972 C968 1.350 . S
C972 C969 1.463 . S
C972 N976 1.427 . S
C973 H963 0.929 . S
C973 C971 1.433 . S
C973 N976 1.384 . S
C974 H965 0.929 . S
C974 C966 1.378 . S
C974 C969 1.350 . S
C975 H962 0.929 . S
C975 C967 1.433 . S
C975 N977 1.384 . S
N976 C972 1.427 . S
N976 C973 1.384 . S
N977 C969 1.427 . S
N977 C975 1.384 . S
H978 C984 0.930 . S
H979 C988 0.930 . S
H980 C993 0.929 . S
H981 C991 0.929 . S
H982 C986 0.929 . S
H983 C992 0.929 . S
C984 H978 0.930 . S
C984 C985 1.367 1_565 S
C984 C992 1.378 . S
C985 C984 1.367 1_545 S
C985 C993 1.433 . S
C986 H982 0.929 . S
C986 C988 1.378 . S
C986 C990 1.350 1_545 S
C987 C990 1.463 1_545 S
C987 C992 1.350 1_545 S
C987 N995 1.427 . S
C988 H979 0.930 . S
C988 C986 1.378 . S
C988 C989 1.367 1_545 S
C989 C988 1.367 1_565 S
C989 C991 1.433 . S
C990 C986 1.350 1_565 S
C990 C987 1.463 1_565 S
C990 N994 1.427 . S
C991 H981 0.929 . S
C991 C989 1.433 . S
C991 N994 1.384 . S
C992 H983 0.929 . S
C992 C984 1.378 . S
C992 C987 1.350 1_565 S
C993 H980 0.929 . S
C993 C985 1.433 . S
C993 N995 1.384 . S
N994 C990 1.427 . S
N994 C991 1.384 . S
N995 C987 1.427 . S
N995 C993 1.384 . S
H996 C1002 0.930 . S
H997 C1006 0.930 . S
H998 C1011 0.929 . S
H999 C1009 0.929 . S
H1000 C1004 0.919 1_554 S
H1001 C1010 0.919 1_556 S
C1002 H996 0.930 . S
C1002 C1003 1.367 . S
C1002 C1010 1.386 . S
C1003 C1002 1.367 . S
C1003 C1011 1.433 . S
C1004 H1000 0.919 1_556 S
C1004 C1006 1.386 . S
C1004 C1008 1.353 . S
C1005 C1008 1.463 1_554 S
C1005 C1010 1.353 . S
C1005 N1013 1.427 . S
C1006 H997 0.930 . S
C1006 C1004 1.386 . S
C1006 C1007 1.367 . S
C1007 C1006 1.367 . S
C1007 C1009 1.433 . S
C1008 C1004 1.353 . S
C1008 C1005 1.463 1_556 S
C1008 N1012 1.427 . S
C1009 H999 0.929 . S
C1009 C1007 1.433 . S
C1009 N1012 1.384 . S
C1010 H1001 0.919 1_554 S
C1010 C1002 1.386 . S
C1010 C1005 1.353 . S
C1011 H998 0.929 . S
C1011 C1003 1.433 . S
C1011 N1013 1.384 . S
N1012 C1008 1.427 . S
N1012 C1009 1.384 . S
N1013 C1005 1.427 . S
N1013 C1011 1.384 . S
H1014 C1020 0.930 . S
H1015 C1024 0.930 . S
H1016 C1029 0.929 . S
H1017 C1027 0.929 . S
H1018 C1022 0.929 . S
H1019 C1028 0.929 . S
C1020 H1014 0.930 . S
C1020 C1021 1.367 . S
C1020 C1028 1.378 . S
C1021 C1020 1.367 . S
C1021 C1029 1.433 . S
C1022 H1018 0.929 . S
C1022 C1024 1.378 . S
C1022 C1026 1.350 . S
C1023 C1026 1.463 . S
C1023 C1028 1.350 . S
C1023 N1031 1.427 . S
C1024 H1015 0.930 . S
C1024 C1022 1.378 . S
C1024 C1025 1.367 . S
C1025 C1024 1.367 . S
C1025 C1027 1.433 . S
C1026 C1022 1.350 . S
C1026 C1023 1.463 . S
C1026 N1030 1.427 . S
C1027 H1017 0.929 . S
C1027 C1025 1.433 . S
C1027 N1030 1.384 . S
C1028 H1019 0.929 . S
C1028 C1020 1.378 . S
C1028 C1023 1.350 . S
C1029 H1016 0.929 . S
C1029 C1021 1.433 . S
C1029 N1031 1.384 . S
N1030 C1026 1.427 . S
N1030 C1027 1.384 . S
N1031 C1023 1.427 . S
N1031 C1029 1.384 . S
H1032 C1038 0.930 . S
H1033 C1042 0.930 . S
H1034 C1047 0.929 . S
H1035 C1045 0.929 . S
H1036 C1040 0.929 . S
H1037 C1046 0.929 . S
C1038 H1032 0.930 . S
C1038 C1039 1.367 . S
C1038 C1046 1.378 . S
C1039 C1038 1.367 . S
C1039 C1047 1.433 . S
C1040 H1036 0.929 . S
C1040 C1042 1.378 . S
C1040 C1044 1.350 . S
C1041 C1044 1.463 . S
C1041 C1046 1.350 . S
C1041 N1049 1.427 . S
C1042 H1033 0.930 . S
C1042 C1040 1.378 . S
C1042 C1043 1.367 . S
C1043 C1042 1.367 . S
C1043 C1045 1.433 . S
C1044 C1040 1.350 . S
C1044 C1041 1.463 . S
C1044 N1048 1.427 . S
C1045 H1035 0.929 . S
C1045 C1043 1.433 . S
C1045 N1048 1.384 . S
C1046 H1037 0.929 . S
C1046 C1038 1.378 . S
C1046 C1041 1.350 . S
C1047 H1034 0.929 . S
C1047 C1039 1.433 . S
C1047 N1049 1.384 . S
N1048 C1044 1.427 . S
N1048 C1045 1.384 . S
N1049 C1041 1.427 . S
N1049 C1047 1.384 . S
H1050 C1056 0.930 . S
H1051 C1060 0.930 . S
H1052 C1065 0.929 . S
H1053 C1063 0.929 . S
H1054 C1058 0.929 . S
H1055 C1064 0.929 . S
C1056 H1050 0.930 . S
C1056 C1057 1.367 . S
C1056 C1064 1.378 . S
C1057 C1056 1.367 . S
C1057 C1065 1.433 . S
C1058 H1054 0.929 . S
C1058 C1060 1.378 . S
C1058 C1062 1.350 . S
C1059 C1062 1.463 . S
C1059 C1064 1.350 . S
C1059 N1067 1.427 . S
C1060 H1051 0.930 . S
C1060 C1058 1.378 . S
C1060 C1061 1.367 . S
C1061 C1060 1.367 . S
C1061 C1063 1.433 . S
C1062 C1058 1.350 . S
C1062 C1059 1.463 . S
C1062 N1066 1.427 . S
C1063 H1053 0.929 . S
C1063 C1061 1.433 . S
C1063 N1066 1.384 . S
C1064 H1055 0.929 . S
C1064 C1056 1.378 . S
C1064 C1059 1.350 . S
C1065 H1052 0.929 . S
C1065 C1057 1.433 . S
C1065 N1067 1.384 . S
N1066 C1062 1.427 . S
N1066 C1063 1.384 . S
N1067 C1059 1.427 . S
N1067 C1065 1.384 . S
H1068 C1074 0.930 . S
H1069 C1078 0.930 . S
H1070 C1083 0.929 . S
H1071 C1081 0.929 . S
H1072 C1076 0.929 . S
H1073 C1082 0.929 . S
C1074 H1068 0.930 . S
C1074 C1075 1.367 1_565 S
C1074 C1082 1.378 . S
C1075 C1074 1.367 1_545 S
C1075 C1083 1.433 . S
C1076 H1072 0.929 . S
C1076 C1078 1.378 . S
C1076 C1080 1.350 1_545 S
C1077 C1080 1.463 1_545 S
C1077 C1082 1.350 1_545 S
C1077 N1085 1.427 . S
C1078 H1069 0.930 . S
C1078 C1076 1.378 . S
C1078 C1079 1.367 1_545 S
C1079 C1078 1.367 1_565 S
C1079 C1081 1.433 . S
C1080 C1076 1.350 1_565 S
C1080 C1077 1.463 1_565 S
C1080 N1084 1.427 . S
C1081 H1071 0.929 . S
C1081 C1079 1.433 . S
C1081 N1084 1.384 . S
C1082 H1073 0.929 . S
C1082 C1074 1.378 . S
C1082 C1077 1.350 1_565 S
C1083 H1070 0.929 . S
C1083 C1075 1.433 . S
C1083 N1085 1.384 . S
N1084 C1080 1.427 . S
N1084 C1081 1.384 . S
N1085 C1077 1.427 . S
N1085 C1083 1.384 . S
H1086 C1092 0.930 . S
H1087 C1096 0.930 . S
H1088 C1101 0.929 . S
H1089 C1099 0.929 . S
H1090 C1094 0.929 . S
H1091 C1100 0.929 . S
C1092 H1086 0.930 . S
C1092 C1093 1.367 . S
C1092 C1100 1.378 . S
C1093 C1092 1.367 . S
C1093 C1101 1.433 1_554 S
C1094 H1090 0.929 . S
C1094 C1096 1.378 . S
C1094 C1098 1.350 . S
C1095 C1098 1.463 1_554 S
C1095 C1100 1.350 . S
C1095 N1103 1.427 1_554 S
C1096 H1087 0.930 . S
C1096 C1094 1.378 . S
C1096 C1097 1.367 . S
C1097 C1096 1.367 . S
C1097 C1099 1.433 1_556 S
C1098 C1094 1.350 . S
C1098 C1095 1.463 1_556 S
C1098 N1102 1.427 1_556 S
C1099 H1089 0.929 . S
C1099 C1097 1.433 1_554 S
C1099 N1102 1.384 . S
C1100 H1091 0.929 . S
C1100 C1092 1.378 . S
C1100 C1095 1.350 . S
C1101 H1088 0.929 . S
C1101 C1093 1.433 1_556 S
C1101 N1103 1.384 . S
N1102 C1098 1.427 1_554 S
N1102 C1099 1.384 . S
N1103 C1095 1.427 1_556 S
N1103 C1101 1.384 . S
H1104 C1110 0.930 . S
H1105 C1114 0.930 . S
H1106 C1119 0.929 . S
H1107 C1117 0.929 . S
H1108 C1112 0.929 . S
H1109 C1118 0.929 . S
C1110 H1104 0.930 . S
C1110 C1111 1.367 . S
C1110 C1118 1.378 . S
C1111 C1110 1.367 . S
C1111 C1119 1.433 . S
C1112 H1108 0.929 . S
C1112 C1114 1.378 . S
C1112 C1116 1.350 . S
C1113 C1116 1.463 . S
C1113 C1118 1.350 . S
C1113 N1121 1.427 . S
C1114 H1105 0.930 . S
C1114 C1112 1.378 . S
C1114 C1115 1.367 . S
C1115 C1114 1.367 . S
C1115 C1117 1.433 . S
C1116 C1112 1.350 . S
C1116 C1113 1.463 . S
C1116 N1120 1.427 . S
C1117 H1107 0.929 . S
C1117 C1115 1.433 . S
C1117 N1120 1.384 . S
C1118 H1109 0.929 . S
C1118 C1110 1.378 . S
C1118 C1113 1.350 . S
C1119 H1106 0.929 . S
C1119 C1111 1.433 . S
C1119 N1121 1.384 . S
N1120 C1116 1.427 . S
N1120 C1117 1.384 . S
N1121 C1113 1.427 . S
N1121 C1119 1.384 . S
H1122 C1128 0.930 . S
H1123 C1132 0.930 . S
H1124 C1137 0.929 . S
H1125 C1135 0.929 . S
H1126 C1130 0.929 . S
H1127 C1136 0.929 . S
C1128 H1122 0.930 . S
C1128 C1129 1.367 . S
C1128 C1136 1.378 . S
C1129 C1128 1.367 . S
C1129 C1137 1.433 . S
C1130 H1126 0.929 . S
C1130 C1132 1.378 . S
C1130 C1134 1.350 . S
C1131 C1134 1.463 . S
C1131 C1136 1.350 . S
C1131 N1139 1.427 . S
C1132 H1123 0.930 . S
C1132 C1130 1.378 . S
C1132 C1133 1.367 . S
C1133 C1132 1.367 . S
C1133 C1135 1.433 . S
C1134 C1130 1.350 . S
C1134 C1131 1.463 . S
C1134 N1138 1.427 . S
C1135 H1125 0.929 . S
C1135 C1133 1.433 . S
C1135 N1138 1.384 . S
C1136 H1127 0.929 . S
C1136 C1128 1.378 . S
C1136 C1131 1.350 . S
C1137 H1124 0.929 . S
C1137 C1129 1.433 . S
C1137 N1139 1.384 . S
N1138 C1134 1.427 . S
N1138 C1135 1.384 . S
N1139 C1131 1.427 . S
N1139 C1137 1.384 . S
H1140 C1146 0.930 . S
H1141 C1150 0.930 . S
H1142 C1155 0.929 . S
H1143 C1153 0.929 . S
H1144 C1148 0.929 . S
H1145 C1154 0.929 . S
C1146 H1140 0.930 . S
C1146 C1147 1.367 . S
C1146 C1154 1.378 . S
C1147 C1146 1.367 . S
C1147 C1155 1.433 . S
C1148 H1144 0.929 . S
C1148 C1150 1.378 . S
C1148 C1152 1.350 . S
C1149 C1152 1.463 . S
C1149 C1154 1.350 . S
C1149 N1157 1.427 . S
C1150 H1141 0.930 . S
C1150 C1148 1.378 . S
C1150 C1151 1.367 . S
C1151 C1150 1.367 . S
C1151 C1153 1.433 . S
C1152 C1148 1.350 . S
C1152 C1149 1.463 . S
C1152 N1156 1.427 . S
C1153 H1143 0.929 . S
C1153 C1151 1.433 . S
C1153 N1156 1.384 . S
C1154 H1145 0.929 . S
C1154 C1146 1.378 . S
C1154 C1149 1.350 . S
C1155 H1142 0.929 . S
C1155 C1147 1.433 . S
C1155 N1157 1.384 . S
N1156 C1152 1.427 . S
N1156 C1153 1.384 . S
N1157 C1149 1.427 . S
N1157 C1155 1.384 . S
H1158 C1164 0.930 . S
H1159 C1168 0.930 . S
H1160 C1173 0.929 . S
H1161 C1171 0.929 . S
H1162 C1166 0.929 . S
H1163 C1172 0.929 . S
C1164 H1158 0.930 . S
C1164 C1165 1.367 . S
C1164 C1172 1.378 . S
C1165 C1164 1.367 . S
C1165 C1173 1.433 . S
C1166 H1162 0.929 . S
C1166 C1168 1.378 . S
C1166 C1170 1.350 . S
C1167 C1170 1.463 . S
C1167 C1172 1.350 . S
C1167 N1175 1.427 . S
C1168 H1159 0.930 . S
C1168 C1166 1.378 . S
C1168 C1169 1.367 . S
C1169 C1168 1.367 . S
C1169 C1171 1.433 . S
C1170 C1166 1.350 . S
C1170 C1167 1.463 . S
C1170 N1174 1.427 . S
C1171 H1161 0.929 . S
C1171 C1169 1.433 . S
C1171 N1174 1.384 . S
C1172 H1163 0.929 . S
C1172 C1164 1.378 . S
C1172 C1167 1.350 . S
C1173 H1160 0.929 . S
C1173 C1165 1.433 . S
C1173 N1175 1.384 . S
N1174 C1170 1.427 . S
N1174 C1171 1.384 . S
N1175 C1167 1.427 . S
N1175 C1173 1.384 . S
H1176 C1182 0.930 . S
H1177 C1186 0.930 . S
H1178 C1191 0.929 . S
H1179 C1189 0.929 . S
H1180 C1184 0.929 . S
H1181 C1190 0.929 . S
C1182 H1176 0.930 . S
C1182 C1183 1.367 . S
C1182 C1190 1.378 . S
C1183 C1182 1.367 . S
C1183 C1191 1.433 . S
C1184 H1180 0.929 . S
C1184 C1186 1.378 . S
C1184 C1188 1.350 . S
C1185 C1188 1.463 . S
C1185 C1190 1.350 . S
C1185 N1193 1.427 . S
C1186 H1177 0.930 . S
C1186 C1184 1.378 . S
C1186 C1187 1.367 . S
C1187 C1186 1.367 . S
C1187 C1189 1.433 . S
C1188 C1184 1.350 . S
C1188 C1185 1.463 . S
C1188 N1192 1.427 . S
C1189 H1179 0.929 . S
C1189 C1187 1.433 . S
C1189 N1192 1.384 . S
C1190 H1181 0.929 . S
C1190 C1182 1.378 . S
C1190 C1185 1.350 . S
C1191 H1178 0.929 . S
C1191 C1183 1.433 . S
C1191 N1193 1.384 . S
N1192 C1188 1.427 . S
N1192 C1189 1.384 . S
N1193 C1185 1.427 . S
N1193 C1191 1.384 . S
H1194 C1200 0.930 . S
H1195 C1204 0.930 . S
H1196 C1209 0.929 . S
H1197 C1207 0.929 . S
H1198 C1202 0.929 . S
H1199 C1208 0.929 . S
C1200 H1194 0.930 . S
C1200 C1201 1.367 . S
C1200 C1208 1.378 . S
C1201 C1200 1.367 . S
C1201 C1209 1.433 . S
C1202 H1198 0.929 . S
C1202 C1204 1.378 . S
C1202 C1206 1.350 . S
C1203 C1206 1.463 . S
C1203 C1208 1.350 . S
C1203 N1211 1.427 . S
C1204 H1195 0.930 . S
C1204 C1202 1.378 . S
C1204 C1205 1.367 . S
C1205 C1204 1.367 . S
C1205 C1207 1.433 . S
C1206 C1202 1.350 . S
C1206 C1203 1.463 . S
C1206 N1210 1.427 . S
C1207 H1197 0.929 . S
C1207 C1205 1.433 . S
C1207 N1210 1.384 . S
C1208 H1199 0.929 . S
C1208 C1200 1.378 . S
C1208 C1203 1.350 . S
C1209 H1196 0.929 . S
C1209 C1201 1.433 . S
C1209 N1211 1.384 . S
N1210 C1206 1.427 . S
N1210 C1207 1.384 . S
N1211 C1203 1.427 . S
N1211 C1209 1.384 . S
H1212 C1218 0.930 . S
H1213 C1222 0.930 . S
H1214 C1227 0.929 . S
H1215 C1225 0.929 . S
H1216 C1220 0.929 . S
H1217 C1226 0.929 . S
C1218 H1212 0.930 . S
C1218 C1219 1.367 . S
C1218 C1226 1.378 . S
C1219 C1218 1.367 . S
C1219 C1227 1.433 . S
C1220 H1216 0.929 . S
C1220 C1222 1.378 . S
C1220 C1224 1.350 . S
C1221 C1224 1.463 . S
C1221 C1226 1.350 . S
C1221 N1229 1.427 . S
C1222 H1213 0.930 . S
C1222 C1220 1.378 . S
C1222 C1223 1.367 . S
C1223 C1222 1.367 . S
C1223 C1225 1.433 . S
C1224 C1220 1.350 . S
C1224 C1221 1.463 . S
C1224 N1228 1.427 . S
C1225 H1215 0.929 . S
C1225 C1223 1.433 . S
C1225 N1228 1.384 . S
C1226 H1217 0.929 . S
C1226 C1218 1.378 . S
C1226 C1221 1.350 . S
C1227 H1214 0.929 . S
C1227 C1219 1.433 . S
C1227 N1229 1.384 . S
N1228 C1224 1.427 . S
N1228 C1225 1.384 . S
N1229 C1221 1.427 . S
N1229 C1227 1.384 . S
H1230 C1236 0.930 . S
H1231 C1240 0.930 . S
H1232 C1245 0.929 . S
H1233 C1243 0.929 . S
H1234 C1238 0.929 . S
H1235 C1244 0.929 . S
C1236 H1230 0.930 . S
C1236 C1237 1.367 . S
C1236 C1244 1.378 . S
C1237 C1236 1.367 . S
C1237 C1245 1.433 . S
C1238 H1234 0.929 . S
C1238 C1240 1.378 . S
C1238 C1242 1.350 . S
C1239 C1242 1.463 . S
C1239 C1244 1.350 . S
C1239 N1247 1.427 . S
C1240 H1231 0.930 . S
C1240 C1238 1.378 . S
C1240 C1241 1.367 . S
C1241 C1240 1.367 . S
C1241 C1243 1.433 . S
C1242 C1238 1.350 . S
C1242 C1239 1.463 . S
C1242 N1246 1.427 . S
C1243 H1233 0.929 . S
C1243 C1241 1.433 . S
C1243 N1246 1.384 . S
C1244 H1235 0.929 . S
C1244 C1236 1.378 . S
C1244 C1239 1.350 . S
C1245 H1232 0.929 . S
C1245 C1237 1.433 . S
C1245 N1247 1.384 . S
N1246 C1242 1.427 . S
N1246 C1243 1.384 . S
N1247 C1239 1.427 . S
N1247 C1245 1.384 . S
H1248 C1254 0.930 . S
H1249 C1258 0.930 . S
H1250 C1263 0.929 . S
H1251 C1261 0.929 . S
H1252 C1256 0.929 . S
H1253 C1262 0.929 . S
C1254 H1248 0.930 . S
C1254 C1255 1.367 . S
C1254 C1262 1.378 . S
C1255 C1254 1.367 . S
C1255 C1263 1.433 . S
C1256 H1252 0.929 . S
C1256 C1258 1.378 . S
C1256 C1260 1.350 . S
C1257 C1260 1.463 . S
C1257 C1262 1.350 . S
C1257 N1265 1.427 . S
C1258 H1249 0.930 . S
C1258 C1256 1.378 . S
C1258 C1259 1.367 . S
C1259 C1258 1.367 . S
C1259 C1261 1.433 . S
C1260 C1256 1.350 . S
C1260 C1257 1.463 . S
C1260 N1264 1.427 . S
C1261 H1251 0.929 . S
C1261 C1259 1.433 . S
C1261 N1264 1.384 . S
C1262 H1253 0.929 . S
C1262 C1254 1.378 . S
C1262 C1257 1.350 . S
C1263 H1250 0.929 . S
C1263 C1255 1.433 . S
C1263 N1265 1.384 . S
N1264 C1260 1.427 . S
N1264 C1261 1.384 . S
N1265 C1257 1.427 . S
N1265 C1263 1.384 . S
H1266 C1272 0.930 . S
H1267 C1276 0.930 . S
H1268 C1281 0.929 . S
H1269 C1279 0.929 . S
H1270 C1274 0.929 . S
H1271 C1280 0.929 . S
C1272 H1266 0.930 . S
C1272 C1273 1.367 . S
C1272 C1280 1.378 . S
C1273 C1272 1.367 . S
C1273 C1281 1.433 . S
C1274 H1270 0.929 . S
C1274 C1276 1.378 . S
C1274 C1278 1.350 . S
C1275 C1278 1.463 . S
C1275 C1280 1.350 . S
C1275 N1283 1.427 . S
C1276 H1267 0.930 . S
C1276 C1274 1.378 . S
C1276 C1277 1.367 . S
C1277 C1276 1.367 . S
C1277 C1279 1.433 . S
C1278 C1274 1.350 . S
C1278 C1275 1.463 . S
C1278 N1282 1.427 . S
C1279 H1269 0.929 . S
C1279 C1277 1.433 . S
C1279 N1282 1.384 . S
C1280 H1271 0.929 . S
C1280 C1272 1.378 . S
C1280 C1275 1.350 . S
C1281 H1268 0.929 . S
C1281 C1273 1.433 . S
C1281 N1283 1.384 . S
N1282 C1278 1.427 . S
N1282 C1279 1.384 . S
N1283 C1275 1.427 . S
N1283 C1281 1.384 . S
H1284 C1290 0.930 . S
H1285 C1294 0.930 . S
H1286 C1299 0.929 . S
H1287 C1297 0.929 . S
H1288 C1292 0.929 . S
H1289 C1298 0.929 . S
C1290 H1284 0.930 . S
C1290 C1291 1.367 . S
C1290 C1298 1.378 . S
C1291 C1290 1.367 . S
C1291 C1299 1.433 . S
C1292 H1288 0.929 . S
C1292 C1294 1.378 . S
C1292 C1296 1.350 . S
C1293 C1296 1.463 . S
C1293 C1298 1.350 . S
C1293 N1301 1.427 . S
C1294 H1285 0.930 . S
C1294 C1292 1.378 . S
C1294 C1295 1.367 . S
C1295 C1294 1.367 . S
C1295 C1297 1.433 . S
C1296 C1292 1.350 . S
C1296 C1293 1.463 . S
C1296 N1300 1.427 . S
C1297 H1287 0.929 . S
C1297 C1295 1.433 . S
C1297 N1300 1.384 . S
C1298 H1289 0.929 . S
C1298 C1290 1.378 . S
C1298 C1293 1.350 . S
C1299 H1286 0.929 . S
C1299 C1291 1.433 . S
C1299 N1301 1.384 . S
N1300 C1296 1.427 . S
N1300 C1297 1.384 . S
N1301 C1293 1.427 . S
N1301 C1299 1.384 . S
H1302 C1308 0.930 . S
H1303 C1312 0.930 . S
H1304 C1317 0.929 . S
H1305 C1315 0.929 . S
H1306 C1310 0.929 . S
H1307 C1316 0.929 . S
C1308 H1302 0.930 . S
C1308 C1309 1.367 . S
C1308 C1316 1.378 . S
C1309 C1308 1.367 . S
C1309 C1317 1.433 . S
C1310 H1306 0.929 . S
C1310 C1312 1.378 . S
C1310 C1314 1.350 . S
C1311 C1314 1.463 . S
C1311 C1316 1.350 . S
C1311 N1319 1.427 . S
C1312 H1303 0.930 . S
C1312 C1310 1.378 . S
C1312 C1313 1.367 . S
C1313 C1312 1.367 . S
C1313 C1315 1.433 . S
C1314 C1310 1.350 . S
C1314 C1311 1.463 . S
C1314 N1318 1.427 . S
C1315 H1305 0.929 . S
C1315 C1313 1.433 . S
C1315 N1318 1.384 . S
C1316 H1307 0.929 . S
C1316 C1308 1.378 . S
C1316 C1311 1.350 . S
C1317 H1304 0.929 . S
C1317 C1309 1.433 . S
C1317 N1319 1.384 . S
N1318 C1314 1.427 . S
N1318 C1315 1.384 . S
N1319 C1311 1.427 . S
N1319 C1317 1.384 . S
H1320 C1326 0.930 . S
H1321 C1330 0.930 . S
H1322 C1335 0.929 . S
H1323 C1333 0.929 . S
H1324 C1328 0.929 . S
H1325 C1334 0.929 . S
C1326 H1320 0.930 . S
C1326 C1327 1.367 . S
C1326 C1334 1.378 . S
C1327 C1326 1.367 . S
C1327 C1335 1.433 . S
C1328 H1324 0.929 . S
C1328 C1330 1.378 . S
C1328 C1332 1.350 . S
C1329 C1332 1.463 . S
C1329 C1334 1.350 . S
C1329 N1337 1.427 . S
C1330 H1321 0.930 . S
C1330 C1328 1.378 . S
C1330 C1331 1.367 . S
C1331 C1330 1.367 . S
C1331 C1333 1.433 . S
C1332 C1328 1.350 . S
C1332 C1329 1.463 . S
C1332 N1336 1.427 . S
C1333 H1323 0.929 . S
C1333 C1331 1.433 . S
C1333 N1336 1.384 . S
C1334 H1325 0.929 . S
C1334 C1326 1.378 . S
C1334 C1329 1.350 . S
C1335 H1322 0.929 . S
C1335 C1327 1.433 . S
C1335 N1337 1.384 . S
N1336 C1332 1.427 . S
N1336 C1333 1.384 . S
N1337 C1329 1.427 . S
N1337 C1335 1.384 . S
H1338 C1344 0.930 . S
H1339 C1348 0.930 . S
H1340 C1353 0.929 . S
H1341 C1351 0.929 . S
H1342 C1346 0.929 . S
H1343 C1352 0.929 . S
C1344 H1338 0.930 . S
C1344 C1345 1.367 . S
C1344 C1352 1.378 . S
C1345 C1344 1.367 . S
C1345 C1353 1.433 . S
C1346 H1342 0.929 . S
C1346 C1348 1.378 . S
C1346 C1350 1.350 . S
C1347 C1350 1.463 . S
C1347 C1352 1.350 . S
C1347 N1355 1.427 . S
C1348 H1339 0.930 . S
C1348 C1346 1.378 . S
C1348 C1349 1.367 . S
C1349 C1348 1.367 . S
C1349 C1351 1.433 . S
C1350 C1346 1.350 . S
C1350 C1347 1.463 . S
C1350 N1354 1.427 . S
C1351 H1341 0.929 . S
C1351 C1349 1.433 . S
C1351 N1354 1.384 . S
C1352 H1343 0.929 . S
C1352 C1344 1.378 . S
C1352 C1347 1.350 . S
C1353 H1340 0.929 . S
C1353 C1345 1.433 . S
C1353 N1355 1.384 . S
N1354 C1350 1.427 . S
N1354 C1351 1.384 . S
N1355 C1347 1.427 . S
N1355 C1353 1.384 . S
H1356 C1362 0.930 . S
H1357 C1366 0.930 . S
H1358 C1371 0.929 . S
H1359 C1369 0.929 . S
H1360 C1364 0.929 . S
H1361 C1370 0.929 . S
C1362 H1356 0.930 . S
C1362 C1363 1.367 . S
C1362 C1370 1.378 . S
C1363 C1362 1.367 . S
C1363 C1371 1.433 . S
C1364 H1360 0.929 . S
C1364 C1366 1.378 . S
C1364 C1368 1.350 . S
C1365 C1368 1.463 . S
C1365 C1370 1.350 . S
C1365 N1373 1.427 . S
C1366 H1357 0.930 . S
C1366 C1364 1.378 . S
C1366 C1367 1.367 . S
C1367 C1366 1.367 . S
C1367 C1369 1.433 . S
C1368 C1364 1.350 . S
C1368 C1365 1.463 . S
C1368 N1372 1.427 . S
C1369 H1359 0.929 . S
C1369 C1367 1.433 . S
C1369 N1372 1.384 . S
C1370 H1361 0.929 . S
C1370 C1362 1.378 . S
C1370 C1365 1.350 . S
C1371 H1358 0.929 . S
C1371 C1363 1.433 . S
C1371 N1373 1.384 . S
N1372 C1368 1.427 . S
N1372 C1369 1.384 . S
N1373 C1365 1.427 . S
N1373 C1371 1.384 . S
H1374 C1380 0.930 . S
H1375 C1384 0.930 . S
H1376 C1389 0.929 . S
H1377 C1387 0.929 . S
H1378 C1382 0.929 . S
H1379 C1388 0.929 . S
C1380 H1374 0.930 . S
C1380 C1381 1.367 . S
C1380 C1388 1.378 . S
C1381 C1380 1.367 . S
C1381 C1389 1.433 . S
C1382 H1378 0.929 . S
C1382 C1384 1.378 . S
C1382 C1386 1.350 . S
C1383 C1386 1.463 . S
C1383 C1388 1.350 . S
C1383 N1391 1.427 . S
C1384 H1375 0.930 . S
C1384 C1382 1.378 . S
C1384 C1385 1.367 . S
C1385 C1384 1.367 . S
C1385 C1387 1.433 . S
C1386 C1382 1.350 . S
C1386 C1383 1.463 . S
C1386 N1390 1.427 . S
C1387 H1377 0.929 . S
C1387 C1385 1.433 . S
C1387 N1390 1.384 . S
C1388 H1379 0.929 . S
C1388 C1380 1.378 . S
C1388 C1383 1.350 . S
C1389 H1376 0.929 . S
C1389 C1381 1.433 . S
C1389 N1391 1.384 . S
N1390 C1386 1.427 . S
N1390 C1387 1.384 . S
N1391 C1383 1.427 . S
N1391 C1389 1.384 . S
H1392 C1398 0.930 . S
H1393 C1402 0.930 . S
H1394 C1407 0.929 . S
H1395 C1405 0.929 . S
H1396 C1400 0.929 . S
H1397 C1406 0.929 . S
C1398 H1392 0.930 . S
C1398 C1399 1.367 . S
C1398 C1406 1.378 . S
C1399 C1398 1.367 . S
C1399 C1407 1.433 . S
C1400 H1396 0.929 . S
C1400 C1402 1.378 . S
C1400 C1404 1.350 . S
C1401 C1404 1.463 . S
C1401 C1406 1.350 . S
C1401 N1409 1.427 . S
C1402 H1393 0.930 . S
C1402 C1400 1.378 . S
C1402 C1403 1.367 . S
C1403 C1402 1.367 . S
C1403 C1405 1.433 . S
C1404 C1400 1.350 . S
C1404 C1401 1.463 . S
C1404 N1408 1.427 . S
C1405 H1395 0.929 . S
C1405 C1403 1.433 . S
C1405 N1408 1.384 . S
C1406 H1397 0.929 . S
C1406 C1398 1.378 . S
C1406 C1401 1.350 . S
C1407 H1394 0.929 . S
C1407 C1399 1.433 . S
C1407 N1409 1.384 . S
N1408 C1404 1.427 . S
N1408 C1405 1.384 . S
N1409 C1401 1.427 . S
N1409 C1407 1.384 . S
H1410 C1416 0.930 . S
H1411 C1420 0.930 . S
H1412 C1425 0.929 . S
H1413 C1423 0.929 . S
H1414 C1418 0.929 . S
H1415 C1424 0.929 . S
C1416 H1410 0.930 . S
C1416 C1417 1.367 . S
C1416 C1424 1.378 . S
C1417 C1416 1.367 . S
C1417 C1425 1.433 . S
C1418 H1414 0.929 . S
C1418 C1420 1.378 . S
C1418 C1422 1.350 . S
C1419 C1422 1.463 . S
C1419 C1424 1.350 . S
C1419 N1427 1.427 . S
C1420 H1411 0.930 . S
C1420 C1418 1.378 . S
C1420 C1421 1.367 . S
C1421 C1420 1.367 . S
C1421 C1423 1.433 . S
C1422 C1418 1.350 . S
C1422 C1419 1.463 . S
C1422 N1426 1.427 . S
C1423 H1413 0.929 . S
C1423 C1421 1.433 . S
C1423 N1426 1.384 . S
C1424 H1415 0.929 . S
C1424 C1416 1.378 . S
C1424 C1419 1.350 . S
C1425 H1412 0.929 . S
C1425 C1417 1.433 . S
C1425 N1427 1.384 . S
N1426 C1422 1.427 . S
N1426 C1423 1.384 . S
N1427 C1419 1.427 . S
N1427 C1425 1.384 . S
H1428 C1434 0.930 . S
H1429 C1438 0.930 . S
H1430 C1443 0.929 . S
H1431 C1441 0.929 . S
H1432 C1436 0.929 . S
H1433 C1442 0.929 . S
C1434 H1428 0.930 . S
C1434 C1435 1.367 . S
C1434 C1442 1.378 . S
C1435 C1434 1.367 . S
C1435 C1443 1.433 . S
C1436 H1432 0.929 . S
C1436 C1438 1.378 . S
C1436 C1440 1.350 . S
C1437 C1440 1.463 . S
C1437 C1442 1.350 . S
C1437 N1445 1.427 . S
C1438 H1429 0.930 . S
C1438 C1436 1.378 . S
C1438 C1439 1.367 . S
C1439 C1438 1.367 . S
C1439 C1441 1.433 . S
C1440 C1436 1.350 . S
C1440 C1437 1.463 . S
C1440 N1444 1.427 . S
C1441 H1431 0.929 . S
C1441 C1439 1.433 . S
C1441 N1444 1.384 . S
C1442 H1433 0.929 . S
C1442 C1434 1.378 . S
C1442 C1437 1.350 . S
C1443 H1430 0.929 . S
C1443 C1435 1.433 . S
C1443 N1445 1.384 . S
N1444 C1440 1.427 . S
N1444 C1441 1.384 . S
N1445 C1437 1.427 . S
N1445 C1443 1.384 . S
H1446 C1452 0.930 . S
H1447 C1456 0.930 . S
H1448 C1461 0.929 . S
H1449 C1459 0.929 . S
H1450 C1454 0.929 . S
H1451 C1460 0.929 . S
C1452 H1446 0.930 . S
C1452 C1453 1.367 . S
C1452 C1460 1.378 . S
C1453 C1452 1.367 . S
C1453 C1461 1.433 . S
C1454 H1450 0.929 . S
C1454 C1456 1.378 . S
C1454 C1458 1.350 . S
C1455 C1458 1.463 . S
C1455 C1460 1.350 . S
C1455 N1463 1.427 . S
C1456 H1447 0.930 . S
C1456 C1454 1.378 . S
C1456 C1457 1.367 . S
C1457 C1456 1.367 . S
C1457 C1459 1.433 . S
C1458 C1454 1.350 . S
C1458 C1455 1.463 . S
C1458 N1462 1.427 . S
C1459 H1449 0.929 . S
C1459 C1457 1.433 . S
C1459 N1462 1.384 . S
C1460 H1451 0.929 . S
C1460 C1452 1.378 . S
C1460 C1455 1.350 . S
C1461 H1448 0.929 . S
C1461 C1453 1.433 . S
C1461 N1463 1.384 . S
N1462 C1458 1.427 . S
N1462 C1459 1.384 . S
N1463 C1455 1.427 . S
N1463 C1461 1.384 . S
H1464 C1470 0.930 . S
H1465 C1474 0.930 . S
H1466 C1479 0.929 . S
H1467 C1477 0.929 . S
H1468 C1472 0.929 . S
H1469 C1478 0.929 . S
C1470 H1464 0.930 . S
C1470 C1471 1.367 . S
C1470 C1478 1.378 . S
C1471 C1470 1.367 . S
C1471 C1479 1.433 . S
C1472 H1468 0.929 . S
C1472 C1474 1.378 . S
C1472 C1476 1.350 . S
C1473 C1476 1.463 . S
C1473 C1478 1.350 . S
C1473 N1481 1.427 . S
C1474 H1465 0.930 . S
C1474 C1472 1.378 . S
C1474 C1475 1.367 . S
C1475 C1474 1.367 . S
C1475 C1477 1.433 . S
C1476 C1472 1.350 . S
C1476 C1473 1.463 . S
C1476 N1480 1.427 . S
C1477 H1467 0.929 . S
C1477 C1475 1.433 . S
C1477 N1480 1.384 . S
C1478 H1469 0.929 . S
C1478 C1470 1.378 . S
C1478 C1473 1.350 . S
C1479 H1466 0.929 . S
C1479 C1471 1.433 . S
C1479 N1481 1.384 . S
N1480 C1476 1.427 . S
N1480 C1477 1.384 . S
N1481 C1473 1.427 . S
N1481 C1479 1.384 . S
H1482 C1488 0.930 . S
H1483 C1492 0.930 . S
H1484 C1497 0.929 . S
H1485 C1495 0.929 . S
H1486 C1490 0.929 . S
H1487 C1496 0.929 . S
C1488 H1482 0.930 . S
C1488 C1489 1.367 . S
C1488 C1496 1.378 . S
C1489 C1488 1.367 . S
C1489 C1497 1.433 . S
C1490 H1486 0.929 . S
C1490 C1492 1.378 . S
C1490 C1494 1.350 . S
C1491 C1494 1.463 . S
C1491 C1496 1.350 . S
C1491 N1499 1.427 . S
C1492 H1483 0.930 . S
C1492 C1490 1.378 . S
C1492 C1493 1.367 . S
C1493 C1492 1.367 . S
C1493 C1495 1.433 . S
C1494 C1490 1.350 . S
C1494 C1491 1.463 . S
C1494 N1498 1.427 . S
C1495 H1485 0.929 . S
C1495 C1493 1.433 . S
C1495 N1498 1.384 . S
C1496 H1487 0.929 . S
C1496 C1488 1.378 . S
C1496 C1491 1.350 . S
C1497 H1484 0.929 . S
C1497 C1489 1.433 . S
C1497 N1499 1.384 . S
N1498 C1494 1.427 . S
N1498 C1495 1.384 . S
N1499 C1491 1.427 . S
N1499 C1497 1.384 . S
H1500 C1506 0.930 . S
H1501 C1510 0.930 . S
H1502 C1515 0.929 . S
H1503 C1513 0.929 . S
H1504 C1508 0.929 . S
H1505 C1514 0.929 . S
C1506 H1500 0.930 . S
C1506 C1507 1.367 . S
C1506 C1514 1.378 . S
C1507 C1506 1.367 . S
C1507 C1515 1.433 . S
C1508 H1504 0.929 . S
C1508 C1510 1.378 . S
C1508 C1512 1.350 . S
C1509 C1512 1.463 . S
C1509 C1514 1.350 . S
C1509 N1517 1.427 . S
C1510 H1501 0.930 . S
C1510 C1508 1.378 . S
C1510 C1511 1.367 . S
C1511 C1510 1.367 . S
C1511 C1513 1.433 . S
C1512 C1508 1.350 . S
C1512 C1509 1.463 . S
C1512 N1516 1.427 . S
C1513 H1503 0.929 . S
C1513 C1511 1.433 . S
C1513 N1516 1.384 . S
C1514 H1505 0.929 . S
C1514 C1506 1.378 . S
C1514 C1509 1.350 . S
C1515 H1502 0.929 . S
C1515 C1507 1.433 . S
C1515 N1517 1.384 . S
N1516 C1512 1.427 . S
N1516 C1513 1.384 . S
N1517 C1509 1.427 . S
N1517 C1515 1.384 . S
H1518 C1524 0.930 . S
H1519 C1528 0.930 . S
H1520 C1533 0.929 . S
H1521 C1531 0.929 . S
H1522 C1526 0.929 . S
H1523 C1532 0.929 . S
C1524 H1518 0.930 . S
C1524 C1525 1.367 . S
C1524 C1532 1.378 . S
C1525 C1524 1.367 . S
C1525 C1533 1.433 . S
C1526 H1522 0.929 . S
C1526 C1528 1.378 . S
C1526 C1530 1.350 . S
C1527 C1530 1.463 . S
C1527 C1532 1.350 . S
C1527 N1535 1.427 . S
C1528 H1519 0.930 . S
C1528 C1526 1.378 . S
C1528 C1529 1.367 . S
C1529 C1528 1.367 . S
C1529 C1531 1.433 . S
C1530 C1526 1.350 . S
C1530 C1527 1.463 . S
C1530 N1534 1.427 . S
C1531 H1521 0.929 . S
C1531 C1529 1.433 . S
C1531 N1534 1.384 . S
C1532 H1523 0.929 . S
C1532 C1524 1.378 . S
C1532 C1527 1.350 . S
C1533 H1520 0.929 . S
C1533 C1525 1.433 . S
C1533 N1535 1.384 . S
N1534 C1530 1.427 . S
N1534 C1531 1.384 . S
N1535 C1527 1.427 . S
N1535 C1533 1.384 . S
H1536 C1542 0.930 . S
H1537 C1546 0.930 . S
H1538 C1551 0.929 . S
H1539 C1549 0.929 . S
H1540 C1544 0.929 . S
H1541 C1550 0.929 . S
C1542 H1536 0.930 . S
C1542 C1543 1.367 . S
C1542 C1550 1.378 . S
C1543 C1542 1.367 . S
C1543 C1551 1.433 . S
C1544 H1540 0.929 . S
C1544 C1546 1.378 . S
C1544 C1548 1.350 . S
C1545 C1548 1.463 . S
C1545 C1550 1.350 . S
C1545 N1553 1.427 . S
C1546 H1537 0.930 . S
C1546 C1544 1.378 . S
C1546 C1547 1.367 . S
C1547 C1546 1.367 . S
C1547 C1549 1.433 . S
C1548 C1544 1.350 . S
C1548 C1545 1.463 . S
C1548 N1552 1.427 . S
C1549 H1539 0.929 . S
C1549 C1547 1.433 . S
C1549 N1552 1.384 . S
C1550 H1541 0.929 . S
C1550 C1542 1.378 . S
C1550 C1545 1.350 . S
C1551 H1538 0.929 . S
C1551 C1543 1.433 . S
C1551 N1553 1.384 . S
N1552 C1548 1.427 . S
N1552 C1549 1.384 . S
N1553 C1545 1.427 . S
N1553 C1551 1.384 . S
H1554 C1560 0.930 . S
H1555 C1564 0.930 . S
H1556 C1569 0.929 . S
H1557 C1567 0.929 . S
H1558 C1562 0.929 . S
H1559 C1568 0.929 . S
C1560 H1554 0.930 . S
C1560 C1561 1.367 . S
C1560 C1568 1.378 . S
C1561 C1560 1.367 . S
C1561 C1569 1.433 . S
C1562 H1558 0.929 . S
C1562 C1564 1.378 . S
C1562 C1566 1.350 . S
C1563 C1566 1.463 . S
C1563 C1568 1.350 . S
C1563 N1571 1.427 . S
C1564 H1555 0.930 . S
C1564 C1562 1.378 . S
C1564 C1565 1.367 . S
C1565 C1564 1.367 . S
C1565 C1567 1.433 . S
C1566 C1562 1.350 . S
C1566 C1563 1.463 . S
C1566 N1570 1.427 . S
C1567 H1557 0.929 . S
C1567 C1565 1.433 . S
C1567 N1570 1.384 . S
C1568 H1559 0.929 . S
C1568 C1560 1.378 . S
C1568 C1563 1.350 . S
C1569 H1556 0.929 . S
C1569 C1561 1.433 . S
C1569 N1571 1.384 . S
N1570 C1566 1.427 . S
N1570 C1567 1.384 . S
N1571 C1563 1.427 . S
N1571 C1569 1.384 . S
H1572 C1578 0.930 . S
H1573 C1582 0.930 . S
H1574 C1587 0.929 . S
H1575 C1585 0.929 . S
H1576 C1580 0.929 . S
H1577 C1586 0.929 . S
C1578 H1572 0.930 . S
C1578 C1579 1.367 . S
C1578 C1586 1.378 . S
C1579 C1578 1.367 . S
C1579 C1587 1.433 . S
C1580 H1576 0.929 . S
C1580 C1582 1.378 . S
C1580 C1584 1.350 . S
C1581 C1584 1.463 . S
C1581 C1586 1.350 . S
C1581 N1589 1.427 . S
C1582 H1573 0.930 . S
C1582 C1580 1.378 . S
C1582 C1583 1.367 . S
C1583 C1582 1.367 . S
C1583 C1585 1.433 . S
C1584 C1580 1.350 . S
C1584 C1581 1.463 . S
C1584 N1588 1.427 . S
C1585 H1575 0.929 . S
C1585 C1583 1.433 . S
C1585 N1588 1.384 . S
C1586 H1577 0.929 . S
C1586 C1578 1.378 . S
C1586 C1581 1.350 . S
C1587 H1574 0.929 . S
C1587 C1579 1.433 . S
C1587 N1589 1.384 . S
N1588 C1584 1.427 . S
N1588 C1585 1.384 . S
N1589 C1581 1.427 . S
N1589 C1587 1.384 . S
H1590 C1596 0.930 . S
H1591 C1600 0.930 . S
H1592 C1605 0.929 . S
H1593 C1603 0.929 . S
H1594 C1598 0.929 . S
H1595 C1604 0.929 . S
C1596 H1590 0.930 . S
C1596 C1597 1.367 . S
C1596 C1604 1.378 . S
C1597 C1596 1.367 . S
C1597 C1605 1.433 . S
C1598 H1594 0.929 . S
C1598 C1600 1.378 . S
C1598 C1602 1.350 . S
C1599 C1602 1.463 . S
C1599 C1604 1.350 . S
C1599 N1607 1.427 . S
C1600 H1591 0.930 . S
C1600 C1598 1.378 . S
C1600 C1601 1.367 . S
C1601 C1600 1.367 . S
C1601 C1603 1.433 . S
C1602 C1598 1.350 . S
C1602 C1599 1.463 . S
C1602 N1606 1.427 . S
C1603 H1593 0.929 . S
C1603 C1601 1.433 . S
C1603 N1606 1.384 . S
C1604 H1595 0.929 . S
C1604 C1596 1.378 . S
C1604 C1599 1.350 . S
C1605 H1592 0.929 . S
C1605 C1597 1.433 . S
C1605 N1607 1.384 . S
N1606 C1602 1.427 . S
N1606 C1603 1.384 . S
N1607 C1599 1.427 . S
N1607 C1605 1.384 . S
H1608 C1614 0.930 . S
H1609 C1618 0.930 . S
H1610 C1623 0.929 . S
H1611 C1621 0.929 . S
H1612 C1616 0.929 . S
H1613 C1622 0.929 . S
C1614 H1608 0.930 . S
C1614 C1615 1.367 . S
C1614 C1622 1.378 . S
C1615 C1614 1.367 . S
C1615 C1623 1.433 . S
C1616 H1612 0.929 . S
C1616 C1618 1.378 . S
C1616 C1620 1.350 . S
C1617 C1620 1.463 . S
C1617 C1622 1.350 . S
C1617 N1625 1.427 . S
C1618 H1609 0.930 . S
C1618 C1616 1.378 . S
C1618 C1619 1.367 . S
C1619 C1618 1.367 . S
C1619 C1621 1.433 . S
C1620 C1616 1.350 . S
C1620 C1617 1.463 . S
C1620 N1624 1.427 . S
C1621 H1611 0.929 . S
C1621 C1619 1.433 . S
C1621 N1624 1.384 . S
C1622 H1613 0.929 . S
C1622 C1614 1.378 . S
C1622 C1617 1.350 . S
C1623 H1610 0.929 . S
C1623 C1615 1.433 . S
C1623 N1625 1.384 . S
N1624 C1620 1.427 . S
N1624 C1621 1.384 . S
N1625 C1617 1.427 . S
N1625 C1623 1.384 . S
H1626 C1632 0.930 . S
H1627 C1636 0.930 . S
H1628 C1641 0.929 . S
H1629 C1639 0.929 . S
H1630 C1634 0.929 . S
H1631 C1640 0.929 . S
C1632 H1626 0.930 . S
C1632 C1633 1.367 . S
C1632 C1640 1.378 . S
C1633 C1632 1.367 . S
C1633 C1641 1.433 . S
C1634 H1630 0.929 . S
C1634 C1636 1.378 . S
C1634 C1638 1.350 . S
C1635 C1638 1.463 . S
C1635 C1640 1.350 . S
C1635 N1643 1.427 . S
C1636 H1627 0.930 . S
C1636 C1634 1.378 . S
C1636 C1637 1.367 . S
C1637 C1636 1.367 . S
C1637 C1639 1.433 . S
C1638 C1634 1.350 . S
C1638 C1635 1.463 . S
C1638 N1642 1.427 . S
C1639 H1629 0.929 . S
C1639 C1637 1.433 . S
C1639 N1642 1.384 . S
C1640 H1631 0.929 . S
C1640 C1632 1.378 . S
C1640 C1635 1.350 . S
C1641 H1628 0.929 . S
C1641 C1633 1.433 . S
C1641 N1643 1.384 . S
N1642 C1638 1.427 . S
N1642 C1639 1.384 . S
N1643 C1635 1.427 . S
N1643 C1641 1.384 . S
H1644 C1650 0.930 . S
H1645 C1654 0.930 . S
H1646 C1659 0.929 . S
H1647 C1657 0.929 . S
H1648 C1652 0.929 . S
H1649 C1658 0.929 . S
C1650 H1644 0.930 . S
C1650 C1651 1.367 . S
C1650 C1658 1.378 . S
C1651 C1650 1.367 . S
C1651 C1659 1.433 . S
C1652 H1648 0.929 . S
C1652 C1654 1.378 . S
C1652 C1656 1.350 . S
C1653 C1656 1.463 . S
C1653 C1658 1.350 . S
C1653 N1661 1.427 . S
C1654 H1645 0.930 . S
C1654 C1652 1.378 . S
C1654 C1655 1.367 . S
C1655 C1654 1.367 . S
C1655 C1657 1.433 . S
C1656 C1652 1.350 . S
C1656 C1653 1.463 . S
C1656 N1660 1.427 . S
C1657 H1647 0.929 . S
C1657 C1655 1.433 . S
C1657 N1660 1.384 . S
C1658 H1649 0.929 . S
C1658 C1650 1.378 . S
C1658 C1653 1.350 . S
C1659 H1646 0.929 . S
C1659 C1651 1.433 . S
C1659 N1661 1.384 . S
N1660 C1656 1.427 . S
N1660 C1657 1.384 . S
N1661 C1653 1.427 . S
N1661 C1659 1.384 . S
H1662 C1668 0.930 . S
H1663 C1672 0.930 . S
H1664 C1677 0.929 . S
H1665 C1675 0.929 . S
H1666 C1670 0.929 . S
H1667 C1676 0.929 . S
C1668 H1662 0.930 . S
C1668 C1669 1.367 . S
C1668 C1676 1.378 . S
C1669 C1668 1.367 . S
C1669 C1677 1.433 . S
C1670 H1666 0.929 . S
C1670 C1672 1.378 . S
C1670 C1674 1.350 . S
C1671 C1674 1.463 . S
C1671 C1676 1.350 . S
C1671 N1679 1.427 . S
C1672 H1663 0.930 . S
C1672 C1670 1.378 . S
C1672 C1673 1.367 . S
C1673 C1672 1.367 . S
C1673 C1675 1.433 . S
C1674 C1670 1.350 . S
C1674 C1671 1.463 . S
C1674 N1678 1.427 . S
C1675 H1665 0.929 . S
C1675 C1673 1.433 . S
C1675 N1678 1.384 . S
C1676 H1667 0.929 . S
C1676 C1668 1.378 . S
C1676 C1671 1.350 . S
C1677 H1664 0.929 . S
C1677 C1669 1.433 . S
C1677 N1679 1.384 . S
N1678 C1674 1.427 . S
N1678 C1675 1.384 . S
N1679 C1671 1.427 . S
N1679 C1677 1.384 . S
H1680 C1686 0.930 . S
H1681 C1690 0.930 . S
H1682 C1695 0.929 . S
H1683 C1693 0.929 . S
H1684 C1688 0.929 . S
H1685 C1694 0.929 . S
C1686 H1680 0.930 . S
C1686 C1687 1.367 . S
C1686 C1694 1.378 . S
C1687 C1686 1.367 . S
C1687 C1695 1.433 . S
C1688 H1684 0.929 . S
C1688 C1690 1.378 . S
C1688 C1692 1.350 . S
C1689 C1692 1.463 . S
C1689 C1694 1.350 . S
C1689 N1697 1.427 . S
C1690 H1681 0.930 . S
C1690 C1688 1.378 . S
C1690 C1691 1.367 . S
C1691 C1690 1.367 . S
C1691 C1693 1.433 . S
C1692 C1688 1.350 . S
C1692 C1689 1.463 . S
C1692 N1696 1.427 . S
C1693 H1683 0.929 . S
C1693 C1691 1.433 . S
C1693 N1696 1.384 . S
C1694 H1685 0.929 . S
C1694 C1686 1.378 . S
C1694 C1689 1.350 . S
C1695 H1682 0.929 . S
C1695 C1687 1.433 . S
C1695 N1697 1.384 . S
N1696 C1692 1.427 . S
N1696 C1693 1.384 . S
N1697 C1689 1.427 . S
N1697 C1695 1.384 . S
H1698 C1704 0.930 . S
H1699 C1708 0.930 . S
H1700 C1713 0.929 . S
H1701 C1711 0.929 . S
H1702 C1706 0.929 . S
H1703 C1712 0.929 . S
C1704 H1698 0.930 . S
C1704 C1705 1.367 . S
C1704 C1712 1.378 . S
C1705 C1704 1.367 . S
C1705 C1713 1.433 . S
C1706 H1702 0.929 . S
C1706 C1708 1.378 . S
C1706 C1710 1.350 . S
C1707 C1710 1.463 . S
C1707 C1712 1.350 . S
C1707 N1715 1.427 . S
C1708 H1699 0.930 . S
C1708 C1706 1.378 . S
C1708 C1709 1.367 . S
C1709 C1708 1.367 . S
C1709 C1711 1.433 . S
C1710 C1706 1.350 . S
C1710 C1707 1.463 . S
C1710 N1714 1.427 . S
C1711 H1701 0.929 . S
C1711 C1709 1.433 . S
C1711 N1714 1.384 . S
C1712 H1703 0.929 . S
C1712 C1704 1.378 . S
C1712 C1707 1.350 . S
C1713 H1700 0.929 . S
C1713 C1705 1.433 . S
C1713 N1715 1.384 . S
N1714 C1710 1.427 . S
N1714 C1711 1.384 . S
N1715 C1707 1.427 . S
N1715 C1713 1.384 . S
H1716 C1722 0.930 . S
H1717 C1726 0.930 . S
H1718 C1731 0.929 . S
H1719 C1729 0.929 . S
H1720 C1724 0.929 . S
H1721 C1730 0.929 . S
C1722 H1716 0.930 . S
C1722 C1723 1.367 . S
C1722 C1730 1.378 . S
C1723 C1722 1.367 . S
C1723 C1731 1.433 . S
C1724 H1720 0.929 . S
C1724 C1726 1.378 . S
C1724 C1728 1.350 . S
C1725 C1728 1.463 . S
C1725 C1730 1.350 . S
C1725 N1733 1.427 . S
C1726 H1717 0.930 . S
C1726 C1724 1.378 . S
C1726 C1727 1.367 . S
C1727 C1726 1.367 . S
C1727 C1729 1.433 . S
C1728 C1724 1.350 . S
C1728 C1725 1.463 . S
C1728 N1732 1.427 . S
C1729 H1719 0.929 . S
C1729 C1727 1.433 . S
C1729 N1732 1.384 . S
C1730 H1721 0.929 . S
C1730 C1722 1.378 . S
C1730 C1725 1.350 . S
C1731 H1718 0.929 . S
C1731 C1723 1.433 . S
C1731 N1733 1.384 . S
N1732 C1728 1.427 . S
N1732 C1729 1.384 . S
N1733 C1725 1.427 . S
N1733 C1731 1.384 . S
H1734 C1740 0.930 . S
H1735 C1744 0.930 . S
H1736 C1749 0.929 . S
H1737 C1747 0.929 . S
H1738 C1742 0.929 . S
H1739 C1748 0.929 . S
C1740 H1734 0.930 . S
C1740 C1741 1.367 . S
C1740 C1748 1.378 . S
C1741 C1740 1.367 . S
C1741 C1749 1.433 . S
C1742 H1738 0.929 . S
C1742 C1744 1.378 . S
C1742 C1746 1.350 . S
C1743 C1746 1.463 . S
C1743 C1748 1.350 . S
C1743 N1751 1.427 . S
C1744 H1735 0.930 . S
C1744 C1742 1.378 . S
C1744 C1745 1.367 . S
C1745 C1744 1.367 . S
C1745 C1747 1.433 . S
C1746 C1742 1.350 . S
C1746 C1743 1.463 . S
C1746 N1750 1.427 . S
C1747 H1737 0.929 . S
C1747 C1745 1.433 . S
C1747 N1750 1.384 . S
C1748 H1739 0.929 . S
C1748 C1740 1.378 . S
C1748 C1743 1.350 . S
C1749 H1736 0.929 . S
C1749 C1741 1.433 . S
C1749 N1751 1.384 . S
N1750 C1746 1.427 . S
N1750 C1747 1.384 . S
N1751 C1743 1.427 . S
N1751 C1749 1.384 . S
H1752 C1758 0.930 . S
H1753 C1762 0.930 . S
H1754 C1767 0.929 . S
H1755 C1765 0.929 . S
H1756 C1760 0.929 . S
H1757 C1766 0.929 . S
C1758 H1752 0.930 . S
C1758 C1759 1.367 . S
C1758 C1766 1.378 . S
C1759 C1758 1.367 . S
C1759 C1767 1.433 . S
C1760 H1756 0.929 . S
C1760 C1762 1.378 . S
C1760 C1764 1.350 . S
C1761 C1764 1.463 . S
C1761 C1766 1.350 . S
C1761 N1769 1.427 . S
C1762 H1753 0.930 . S
C1762 C1760 1.378 . S
C1762 C1763 1.367 . S
C1763 C1762 1.367 . S
C1763 C1765 1.433 . S
C1764 C1760 1.350 . S
C1764 C1761 1.463 . S
C1764 N1768 1.427 . S
C1765 H1755 0.929 . S
C1765 C1763 1.433 . S
C1765 N1768 1.384 . S
C1766 H1757 0.929 . S
C1766 C1758 1.378 . S
C1766 C1761 1.350 . S
C1767 H1754 0.929 . S
C1767 C1759 1.433 . S
C1767 N1769 1.384 . S
N1768 C1764 1.427 . S
N1768 C1765 1.384 . S
N1769 C1761 1.427 . S
N1769 C1767 1.384 . S
H1770 C1776 0.930 . S
H1771 C1780 0.930 . S
H1772 C1785 0.929 . S
H1773 C1783 0.929 . S
H1774 C1778 0.929 . S
H1775 C1784 0.929 . S
C1776 H1770 0.930 . S
C1776 C1777 1.367 . S
C1776 C1784 1.378 . S
C1777 C1776 1.367 . S
C1777 C1785 1.433 . S
C1778 H1774 0.929 . S
C1778 C1780 1.378 . S
C1778 C1782 1.350 . S
C1779 C1782 1.463 . S
C1779 C1784 1.350 . S
C1779 N1787 1.427 . S
C1780 H1771 0.930 . S
C1780 C1778 1.378 . S
C1780 C1781 1.367 . S
C1781 C1780 1.367 . S
C1781 C1783 1.433 . S
C1782 C1778 1.350 . S
C1782 C1779 1.463 . S
C1782 N1786 1.427 . S
C1783 H1773 0.929 . S
C1783 C1781 1.433 . S
C1783 N1786 1.384 . S
C1784 H1775 0.929 . S
C1784 C1776 1.378 . S
C1784 C1779 1.350 . S
C1785 H1772 0.929 . S
C1785 C1777 1.433 . S
C1785 N1787 1.384 . S
N1786 C1782 1.427 . S
N1786 C1783 1.384 . S
N1787 C1779 1.427 . S
N1787 C1785 1.384 . S
H1788 C1794 0.930 . S
H1789 C1798 0.930 . S
H1790 C1803 0.929 . S
H1791 C1801 0.929 . S
H1792 C1796 0.929 . S
H1793 C1802 0.929 . S
C1794 H1788 0.930 . S
C1794 C1795 1.367 . S
C1794 C1802 1.378 . S
C1795 C1794 1.367 . S
C1795 C1803 1.433 . S
C1796 H1792 0.929 . S
C1796 C1798 1.378 . S
C1796 C1800 1.350 . S
C1797 C1800 1.463 . S
C1797 C1802 1.350 . S
C1797 N1805 1.427 . S
C1798 H1789 0.930 . S
C1798 C1796 1.378 . S
C1798 C1799 1.367 . S
C1799 C1798 1.367 . S
C1799 C1801 1.433 . S
C1800 C1796 1.350 . S
C1800 C1797 1.463 . S
C1800 N1804 1.427 . S
C1801 H1791 0.929 . S
C1801 C1799 1.433 . S
C1801 N1804 1.384 . S
C1802 H1793 0.929 . S
C1802 C1794 1.378 . S
C1802 C1797 1.350 . S
C1803 H1790 0.929 . S
C1803 C1795 1.433 . S
C1803 N1805 1.384 . S
N1804 C1800 1.427 . S
N1804 C1801 1.384 . S
N1805 C1797 1.427 . S
N1805 C1803 1.384 . S
H1806 C1812 0.930 . S
H1807 C1816 0.930 . S
H1808 C1821 0.929 . S
H1809 C1819 0.929 . S
H1810 C1814 0.929 . S
H1811 C1820 0.929 . S
C1812 H1806 0.930 . S
C1812 C1813 1.367 . S
C1812 C1820 1.378 . S
C1813 C1812 1.367 . S
C1813 C1821 1.433 . S
C1814 H1810 0.929 . S
C1814 C1816 1.378 . S
C1814 C1818 1.350 . S
C1815 C1818 1.463 . S
C1815 C1820 1.350 . S
C1815 N1823 1.427 . S
C1816 H1807 0.930 . S
C1816 C1814 1.378 . S
C1816 C1817 1.367 . S
C1817 C1816 1.367 . S
C1817 C1819 1.433 . S
C1818 C1814 1.350 . S
C1818 C1815 1.463 . S
C1818 N1822 1.427 . S
C1819 H1809 0.929 . S
C1819 C1817 1.433 . S
C1819 N1822 1.384 . S
C1820 H1811 0.929 . S
C1820 C1812 1.378 . S
C1820 C1815 1.350 . S
C1821 H1808 0.929 . S
C1821 C1813 1.433 . S
C1821 N1823 1.384 . S
N1822 C1818 1.427 . S
N1822 C1819 1.384 . S
N1823 C1815 1.427 . S
N1823 C1821 1.384 . S
H1824 C1830 0.930 . S
H1825 C1834 0.930 . S
H1826 C1839 0.929 . S
H1827 C1837 0.929 . S
H1828 C1832 0.929 . S
H1829 C1838 0.929 . S
C1830 H1824 0.930 . S
C1830 C1831 1.367 . S
C1830 C1838 1.378 . S
C1831 C1830 1.367 . S
C1831 C1839 1.433 . S
C1832 H1828 0.929 . S
C1832 C1834 1.378 . S
C1832 C1836 1.350 . S
C1833 C1836 1.463 . S
C1833 C1838 1.350 . S
C1833 N1841 1.427 . S
C1834 H1825 0.930 . S
C1834 C1832 1.378 . S
C1834 C1835 1.367 . S
C1835 C1834 1.367 . S
C1835 C1837 1.433 . S
C1836 C1832 1.350 . S
C1836 C1833 1.463 . S
C1836 N1840 1.427 . S
C1837 H1827 0.929 . S
C1837 C1835 1.433 . S
C1837 N1840 1.384 . S
C1838 H1829 0.929 . S
C1838 C1830 1.378 . S
C1838 C1833 1.350 . S
C1839 H1826 0.929 . S
C1839 C1831 1.433 . S
C1839 N1841 1.384 . S
N1840 C1836 1.427 . S
N1840 C1837 1.384 . S
N1841 C1833 1.427 . S
N1841 C1839 1.384 . S
H1842 C1848 0.930 . S
H1843 C1852 0.930 . S
H1844 C1857 0.929 . S
H1845 C1855 0.929 . S
H1846 C1850 0.929 . S
H1847 C1856 0.929 . S
C1848 H1842 0.930 . S
C1848 C1849 1.367 . S
C1848 C1856 1.378 . S
C1849 C1848 1.367 . S
C1849 C1857 1.433 . S
C1850 H1846 0.929 . S
C1850 C1852 1.378 . S
C1850 C1854 1.350 . S
C1851 C1854 1.463 . S
C1851 C1856 1.350 . S
C1851 N1859 1.427 . S
C1852 H1843 0.930 . S
C1852 C1850 1.378 . S
C1852 C1853 1.367 . S
C1853 C1852 1.367 . S
C1853 C1855 1.433 . S
C1854 C1850 1.350 . S
C1854 C1851 1.463 . S
C1854 N1858 1.427 . S
C1855 H1845 0.929 . S
C1855 C1853 1.433 . S
C1855 N1858 1.384 . S
C1856 H1847 0.929 . S
C1856 C1848 1.378 . S
C1856 C1851 1.350 . S
C1857 H1844 0.929 . S
C1857 C1849 1.433 . S
C1857 N1859 1.384 . S
N1858 C1854 1.427 . S
N1858 C1855 1.384 . S
N1859 C1851 1.427 . S
N1859 C1857 1.384 . S
H1860 C1866 0.930 . S
H1861 C1870 0.930 . S
H1862 C1875 0.929 . S
H1863 C1873 0.929 . S
H1864 C1868 0.929 . S
H1865 C1874 0.929 . S
C1866 H1860 0.930 . S
C1866 C1867 1.367 . S
C1866 C1874 1.378 . S
C1867 C1866 1.367 . S
C1867 C1875 1.433 . S
C1868 H1864 0.929 . S
C1868 C1870 1.378 . S
C1868 C1872 1.350 . S
C1869 C1872 1.463 . S
C1869 C1874 1.350 . S
C1869 N1877 1.427 . S
C1870 H1861 0.930 . S
C1870 C1868 1.378 . S
C1870 C1871 1.367 . S
C1871 C1870 1.367 . S
C1871 C1873 1.433 . S
C1872 C1868 1.350 . S
C1872 C1869 1.463 . S
C1872 N1876 1.427 . S
C1873 H1863 0.929 . S
C1873 C1871 1.433 . S
C1873 N1876 1.384 . S
C1874 H1865 0.929 . S
C1874 C1866 1.378 . S
C1874 C1869 1.350 . S
C1875 H1862 0.929 . S
C1875 C1867 1.433 . S
C1875 N1877 1.384 . S
N1876 C1872 1.427 . S
N1876 C1873 1.384 . S
N1877 C1869 1.427 . S
N1877 C1875 1.384 . S
H1878 C1884 0.930 . S
H1879 C1888 0.930 . S
H1880 C1893 0.929 . S
H1881 C1891 0.929 . S
H1882 C1886 0.929 . S
H1883 C1892 0.929 . S
C1884 H1878 0.930 . S
C1884 C1885 1.367 . S
C1884 C1892 1.378 . S
C1885 C1884 1.367 . S
C1885 C1893 1.433 . S
C1886 H1882 0.929 . S
C1886 C1888 1.378 . S
C1886 C1890 1.350 . S
C1887 C1890 1.463 . S
C1887 C1892 1.350 . S
C1887 N1895 1.427 . S
C1888 H1879 0.930 . S
C1888 C1886 1.378 . S
C1888 C1889 1.367 . S
C1889 C1888 1.367 . S
C1889 C1891 1.433 . S
C1890 C1886 1.350 . S
C1890 C1887 1.463 . S
C1890 N1894 1.427 . S
C1891 H1881 0.929 . S
C1891 C1889 1.433 . S
C1891 N1894 1.384 . S
C1892 H1883 0.929 . S
C1892 C1884 1.378 . S
C1892 C1887 1.350 . S
C1893 H1880 0.929 . S
C1893 C1885 1.433 . S
C1893 N1895 1.384 . S
N1894 C1890 1.427 . S
N1894 C1891 1.384 . S
N1895 C1887 1.427 . S
N1895 C1893 1.384 . S
H1896 C1902 0.930 . S
H1897 C1906 0.930 . S
H1898 C1911 0.929 . S
H1899 C1909 0.929 . S
H1900 C1904 0.929 . S
H1901 C1910 0.929 . S
C1902 H1896 0.930 . S
C1902 C1903 1.367 . S
C1902 C1910 1.378 . S
C1903 C1902 1.367 . S
C1903 C1911 1.433 . S
C1904 H1900 0.929 . S
C1904 C1906 1.378 . S
C1904 C1908 1.350 . S
C1905 C1908 1.463 . S
C1905 C1910 1.350 . S
C1905 N1913 1.427 . S
C1906 H1897 0.930 . S
C1906 C1904 1.378 . S
C1906 C1907 1.367 . S
C1907 C1906 1.367 . S
C1907 C1909 1.433 . S
C1908 C1904 1.350 . S
C1908 C1905 1.463 . S
C1908 N1912 1.427 . S
C1909 H1899 0.929 . S
C1909 C1907 1.433 . S
C1909 N1912 1.384 . S
C1910 H1901 0.929 . S
C1910 C1902 1.378 . S
C1910 C1905 1.350 . S
C1911 H1898 0.929 . S
C1911 C1903 1.433 . S
C1911 N1913 1.384 . S
N1912 C1908 1.427 . S
N1912 C1909 1.384 . S
N1913 C1905 1.427 . S
N1913 C1911 1.384 . S
H1914 C1920 0.930 . S
H1915 C1924 0.930 . S
H1916 C1929 0.929 . S
H1917 C1927 0.929 . S
H1918 C1922 0.929 . S
H1919 C1928 0.929 . S
C1920 H1914 0.930 . S
C1920 C1921 1.367 . S
C1920 C1928 1.378 . S
C1921 C1920 1.367 . S
C1921 C1929 1.433 . S
C1922 H1918 0.929 . S
C1922 C1924 1.378 . S
C1922 C1926 1.350 . S
C1923 C1926 1.463 . S
C1923 C1928 1.350 . S
C1923 N1931 1.427 . S
C1924 H1915 0.930 . S
C1924 C1922 1.378 . S
C1924 C1925 1.367 . S
C1925 C1924 1.367 . S
C1925 C1927 1.433 . S
C1926 C1922 1.350 . S
C1926 C1923 1.463 . S
C1926 N1930 1.427 . S
C1927 H1917 0.929 . S
C1927 C1925 1.433 . S
C1927 N1930 1.384 . S
C1928 H1919 0.929 . S
C1928 C1920 1.378 . S
C1928 C1923 1.350 . S
C1929 H1916 0.929 . S
C1929 C1921 1.433 . S
C1929 N1931 1.384 . S
N1930 C1926 1.427 . S
N1930 C1927 1.384 . S
N1931 C1923 1.427 . S
N1931 C1929 1.384 . S
H1932 C1938 0.930 . S
H1933 C1942 0.930 . S
H1934 C1947 0.929 . S
H1935 C1945 0.929 . S
H1936 C1940 0.929 . S
H1937 C1946 0.929 . S
C1938 H1932 0.930 . S
C1938 C1939 1.367 . S
C1938 C1946 1.378 . S
C1939 C1938 1.367 . S
C1939 C1947 1.433 . S
C1940 H1936 0.929 . S
C1940 C1942 1.378 . S
C1940 C1944 1.350 . S
C1941 C1944 1.463 . S
C1941 C1946 1.350 . S
C1941 N1949 1.427 . S
C1942 H1933 0.930 . S
C1942 C1940 1.378 . S
C1942 C1943 1.367 . S
C1943 C1942 1.367 . S
C1943 C1945 1.433 . S
C1944 C1940 1.350 . S
C1944 C1941 1.463 . S
C1944 N1948 1.427 . S
C1945 H1935 0.929 . S
C1945 C1943 1.433 . S
C1945 N1948 1.384 . S
C1946 H1937 0.929 . S
C1946 C1938 1.378 . S
C1946 C1941 1.350 . S
C1947 H1934 0.929 . S
C1947 C1939 1.433 . S
C1947 N1949 1.384 . S
N1948 C1944 1.427 . S
N1948 C1945 1.384 . S
N1949 C1941 1.427 . S
N1949 C1947 1.384 . S
H1950 C1956 0.930 . S
H1951 C1960 0.930 . S
H1952 C1965 0.929 . S
H1953 C1963 0.929 . S
H1954 C1958 0.929 . S
H1955 C1964 0.929 . S
C1956 H1950 0.930 . S
C1956 C1957 1.367 . S
C1956 C1964 1.378 . S
C1957 C1956 1.367 . S
C1957 C1965 1.433 . S
C1958 H1954 0.929 . S
C1958 C1960 1.378 . S
C1958 C1962 1.350 . S
C1959 C1962 1.463 . S
C1959 C1964 1.350 . S
C1959 N1967 1.427 . S
C1960 H1951 0.930 . S
C1960 C1958 1.378 . S
C1960 C1961 1.367 . S
C1961 C1960 1.367 . S
C1961 C1963 1.433 . S
C1962 C1958 1.350 . S
C1962 C1959 1.463 . S
C1962 N1966 1.427 . S
C1963 H1953 0.929 . S
C1963 C1961 1.433 . S
C1963 N1966 1.384 . S
C1964 H1955 0.929 . S
C1964 C1956 1.378 . S
C1964 C1959 1.350 . S
C1965 H1952 0.929 . S
C1965 C1957 1.433 . S
C1965 N1967 1.384 . S
N1966 C1962 1.427 . S
N1966 C1963 1.384 . S
N1967 C1959 1.427 . S
N1967 C1965 1.384 . S
H1968 C1974 0.930 . S
H1969 C1978 0.930 . S
H1970 C1983 0.929 . S
H1971 C1981 0.929 . S
H1972 C1976 0.929 . S
H1973 C1982 0.929 . S
C1974 H1968 0.930 . S
C1974 C1975 1.367 . S
C1974 C1982 1.378 . S
C1975 C1974 1.367 . S
C1975 C1983 1.433 . S
C1976 H1972 0.929 . S
C1976 C1978 1.378 . S
C1976 C1980 1.350 . S
C1977 C1980 1.463 . S
C1977 C1982 1.350 . S
C1977 N1985 1.427 . S
C1978 H1969 0.930 . S
C1978 C1976 1.378 . S
C1978 C1979 1.367 . S
C1979 C1978 1.367 . S
C1979 C1981 1.433 . S
C1980 C1976 1.350 . S
C1980 C1977 1.463 . S
C1980 N1984 1.427 . S
C1981 H1971 0.929 . S
C1981 C1979 1.433 . S
C1981 N1984 1.384 . S
C1982 H1973 0.929 . S
C1982 C1974 1.378 . S
C1982 C1977 1.350 . S
C1983 H1970 0.929 . S
C1983 C1975 1.433 . S
C1983 N1985 1.384 . S
N1984 C1980 1.427 . S
N1984 C1981 1.384 . S
N1985 C1977 1.427 . S
N1985 C1983 1.384 . S
H1986 C1992 0.930 . S
H1987 C1996 0.930 . S
H1988 C2001 0.929 . S
H1989 C1999 0.929 . S
H1990 C1994 0.929 . S
H1991 C2000 0.929 . S
C1992 H1986 0.930 . S
C1992 C1993 1.367 . S
C1992 C2000 1.378 . S
C1993 C1992 1.367 . S
C1993 C2001 1.433 . S
C1994 H1990 0.929 . S
C1994 C1996 1.378 . S
C1994 C1998 1.350 . S
C1995 C1998 1.463 1_565 S
C1995 C2000 1.350 . S
C1995 N2003 1.427 . S
C1996 H1987 0.930 . S
C1996 C1994 1.378 . S
C1996 C1997 1.367 . S
C1997 C1996 1.367 . S
C1997 C1999 1.433 . S
C1998 C1994 1.350 . S
C1998 C1995 1.463 1_545 S
C1998 N2002 1.427 . S
C1999 H1989 0.929 . S
C1999 C1997 1.433 . S
C1999 N2002 1.384 . S
C2000 H1991 0.929 . S
C2000 C1992 1.378 . S
C2000 C1995 1.350 . S
C2001 H1988 0.929 . S
C2001 C1993 1.433 . S
C2001 N2003 1.384 . S
N2002 C1998 1.427 . S
N2002 C1999 1.384 . S
N2003 C1995 1.427 . S
N2003 C2001 1.384 . S
H2004 C2010 0.930 . S
H2005 C2014 0.930 . S
H2006 C2019 0.929 . S
H2007 C2017 0.929 . S
H2008 C2012 0.929 . S
H2009 C2018 0.929 . S
C2010 H2004 0.930 . S
C2010 C2011 1.367 . S
C2010 C2018 1.378 . S
C2011 C2010 1.367 . S
C2011 C2019 1.433 . S
C2012 H2008 0.929 . S
C2012 C2014 1.378 . S
C2012 C2016 1.350 . S
C2013 C2016 1.463 . S
C2013 C2018 1.350 . S
C2013 N2021 1.427 . S
C2014 H2005 0.930 . S
C2014 C2012 1.378 . S
C2014 C2015 1.367 . S
C2015 C2014 1.367 . S
C2015 C2017 1.433 . S
C2016 C2012 1.350 . S
C2016 C2013 1.463 . S
C2016 N2020 1.427 . S
C2017 H2007 0.929 . S
C2017 C2015 1.433 . S
C2017 N2020 1.384 . S
C2018 H2009 0.929 . S
C2018 C2010 1.378 . S
C2018 C2013 1.350 . S
C2019 H2006 0.929 . S
C2019 C2011 1.433 . S
C2019 N2021 1.384 . S
N2020 C2016 1.427 . S
N2020 C2017 1.384 . S
N2021 C2013 1.427 . S
N2021 C2019 1.384 . S
H2022 C2028 0.930 . S
H2023 C2032 0.930 . S
H2024 C2037 0.929 . S
H2025 C2035 0.929 . S
H2026 C2030 0.929 . S
H2027 C2036 0.929 . S
C2028 H2022 0.930 . S
C2028 C2029 1.367 . S
C2028 C2036 1.378 . S
C2029 C2028 1.367 . S
C2029 C2037 1.433 . S
C2030 H2026 0.929 . S
C2030 C2032 1.378 . S
C2030 C2034 1.350 . S
C2031 C2034 1.463 . S
C2031 C2036 1.350 . S
C2031 N2039 1.427 . S
C2032 H2023 0.930 . S
C2032 C2030 1.378 . S
C2032 C2033 1.367 . S
C2033 C2032 1.367 . S
C2033 C2035 1.433 . S
C2034 C2030 1.350 . S
C2034 C2031 1.463 . S
C2034 N2038 1.427 . S
C2035 H2025 0.929 . S
C2035 C2033 1.433 . S
C2035 N2038 1.384 . S
C2036 H2027 0.929 . S
C2036 C2028 1.378 . S
C2036 C2031 1.350 . S
C2037 H2024 0.929 . S
C2037 C2029 1.433 . S
C2037 N2039 1.384 . S
N2038 C2034 1.427 . S
N2038 C2035 1.384 . S
N2039 C2031 1.427 . S
N2039 C2037 1.384 . S
H2040 C2046 0.930 . S
H2041 C2050 0.930 . S
H2042 C2055 0.929 . S
H2043 C2053 0.929 . S
H2044 C2048 0.929 . S
H2045 C2054 0.929 . S
C2046 H2040 0.930 . S
C2046 C2047 1.367 . S
C2046 C2054 1.378 . S
C2047 C2046 1.367 . S
C2047 C2055 1.433 . S
C2048 H2044 0.929 . S
C2048 C2050 1.378 . S
C2048 C2052 1.350 . S
C2049 C2052 1.463 1_556 S
C2049 C2054 1.350 . S
C2049 N2057 1.427 . S
C2050 H2041 0.930 . S
C2050 C2048 1.378 . S
C2050 C2051 1.367 . S
C2051 C2050 1.367 . S
C2051 C2053 1.433 . S
C2052 C2048 1.350 . S
C2052 C2049 1.463 1_554 S
C2052 N2056 1.427 . S
C2053 H2043 0.929 . S
C2053 C2051 1.433 . S
C2053 N2056 1.384 . S
C2054 H2045 0.929 . S
C2054 C2046 1.378 . S
C2054 C2049 1.350 . S
C2055 H2042 0.929 . S
C2055 C2047 1.433 . S
C2055 N2057 1.384 . S
N2056 C2052 1.427 . S
N2056 C2053 1.384 . S
N2057 C2049 1.427 . S
N2057 C2055 1.384 . S
H2058 C2064 0.930 . S
H2059 C2068 0.930 . S
H2060 C2073 0.929 . S
H2061 C2071 0.929 . S
H2062 C2066 0.929 . S
H2063 C2072 0.929 . S
C2064 H2058 0.930 . S
C2064 C2065 1.367 . S
C2064 C2072 1.378 . S
C2065 C2064 1.367 . S
C2065 C2073 1.433 . S
C2066 H2062 0.929 . S
C2066 C2068 1.378 . S
C2066 C2070 1.350 . S
C2067 C2070 1.463 1_554 S
C2067 C2072 1.350 . S
C2067 N2075 1.427 . S
C2068 H2059 0.930 . S
C2068 C2066 1.378 . S
C2068 C2069 1.367 . S
C2069 C2068 1.367 . S
C2069 C2071 1.433 . S
C2070 C2066 1.350 . S
C2070 C2067 1.463 1_556 S
C2070 N2074 1.427 . S
C2071 H2061 0.929 . S
C2071 C2069 1.433 . S
C2071 N2074 1.384 . S
C2072 H2063 0.929 . S
C2072 C2064 1.378 . S
C2072 C2067 1.350 . S
C2073 H2060 0.929 . S
C2073 C2065 1.433 . S
C2073 N2075 1.384 . S
N2074 C2070 1.427 . S
N2074 C2071 1.384 . S
N2075 C2067 1.427 . S
N2075 C2073 1.384 . S
H2076 C2082 0.930 . S
H2077 C2086 0.930 . S
H2078 C2091 0.929 . S
H2079 C2089 0.929 . S
H2080 C2084 0.929 . S
H2081 C2090 0.929 . S
C2082 H2076 0.930 . S
C2082 C2083 1.367 . S
C2082 C2090 1.378 . S
C2083 C2082 1.367 . S
C2083 C2091 1.433 . S
C2084 H2080 0.929 . S
C2084 C2086 1.378 . S
C2084 C2088 1.350 . S
C2085 C2088 1.463 . S
C2085 C2090 1.350 . S
C2085 N2093 1.427 . S
C2086 H2077 0.930 . S
C2086 C2084 1.378 . S
C2086 C2087 1.367 . S
C2087 C2086 1.367 . S
C2087 C2089 1.433 . S
C2088 C2084 1.350 . S
C2088 C2085 1.463 . S
C2088 N2092 1.427 . S
C2089 H2079 0.929 . S
C2089 C2087 1.433 . S
C2089 N2092 1.384 . S
C2090 H2081 0.929 . S
C2090 C2082 1.378 . S
C2090 C2085 1.350 . S
C2091 H2078 0.929 . S
C2091 C2083 1.433 . S
C2091 N2093 1.384 . S
N2092 C2088 1.427 . S
N2092 C2089 1.384 . S
N2093 C2085 1.427 . S
N2093 C2091 1.384 . S
H2094 C2100 0.930 . S
H2095 C2104 0.930 . S
H2096 C2109 0.929 . S
H2097 C2107 0.929 . S
H2098 C2102 0.929 . S
H2099 C2108 0.929 . S
C2100 H2094 0.930 . S
C2100 C2101 1.367 . S
C2100 C2108 1.378 . S
C2101 C2100 1.367 . S
C2101 C2109 1.433 . S
C2102 H2098 0.929 . S
C2102 C2104 1.378 . S
C2102 C2106 1.350 . S
C2103 C2106 1.463 . S
C2103 C2108 1.350 . S
C2103 N2111 1.427 . S
C2104 H2095 0.930 . S
C2104 C2102 1.378 . S
C2104 C2105 1.367 . S
C2105 C2104 1.367 . S
C2105 C2107 1.433 . S
C2106 C2102 1.350 . S
C2106 C2103 1.463 . S
C2106 N2110 1.427 . S
C2107 H2097 0.929 . S
C2107 C2105 1.433 . S
C2107 N2110 1.384 . S
C2108 H2099 0.929 . S
C2108 C2100 1.378 . S
C2108 C2103 1.350 . S
C2109 H2096 0.929 . S
C2109 C2101 1.433 . S
C2109 N2111 1.384 . S
N2110 C2106 1.427 . S
N2110 C2107 1.384 . S
N2111 C2103 1.427 . S
N2111 C2109 1.384 . S
H2112 C2118 0.930 . S
H2113 C2122 0.930 . S
H2114 C2127 0.929 . S
H2115 C2125 0.929 . S
H2116 C2120 0.929 . S
H2117 C2126 0.929 . S
C2118 H2112 0.930 . S
C2118 C2119 1.367 . S
C2118 C2126 1.378 . S
C2119 C2118 1.367 . S
C2119 C2127 1.433 . S
C2120 H2116 0.929 . S
C2120 C2122 1.378 . S
C2120 C2124 1.350 . S
C2121 C2124 1.463 1_455 S
C2121 C2126 1.350 . S
C2121 N2129 1.427 . S
C2122 H2113 0.930 . S
C2122 C2120 1.378 . S
C2122 C2123 1.367 . S
C2123 C2122 1.367 . S
C2123 C2125 1.433 . S
C2124 C2120 1.350 . S
C2124 C2121 1.463 1_655 S
C2124 N2128 1.427 . S
C2125 H2115 0.929 . S
C2125 C2123 1.433 . S
C2125 N2128 1.384 . S
C2126 H2117 0.929 . S
C2126 C2118 1.378 . S
C2126 C2121 1.350 . S
C2127 H2114 0.929 . S
C2127 C2119 1.433 . S
C2127 N2129 1.384 . S
N2128 C2124 1.427 . S
N2128 C2125 1.384 . S
N2129 C2121 1.427 . S
N2129 C2127 1.384 . S
H2130 C2136 0.930 . S
H2131 C2140 0.930 . S
H2132 C2145 0.929 . S
H2133 C2143 0.929 . S
H2134 C2138 0.929 . S
H2135 C2144 0.929 . S
C2136 H2130 0.930 . S
C2136 C2137 1.367 . S
C2136 C2144 1.378 . S
C2137 C2136 1.367 . S
C2137 C2145 1.433 . S
C2138 H2134 0.929 . S
C2138 C2140 1.378 . S
C2138 C2142 1.350 . S
C2139 C2142 1.463 . S
C2139 C2144 1.350 . S
C2139 N2147 1.427 . S
C2140 H2131 0.930 . S
C2140 C2138 1.378 . S
C2140 C2141 1.367 . S
C2141 C2140 1.367 . S
C2141 C2143 1.433 . S
C2142 C2138 1.350 . S
C2142 C2139 1.463 . S
C2142 N2146 1.427 . S
C2143 H2133 0.929 . S
C2143 C2141 1.433 . S
C2143 N2146 1.384 . S
C2144 H2135 0.929 . S
C2144 C2136 1.378 . S
C2144 C2139 1.350 . S
C2145 H2132 0.929 . S
C2145 C2137 1.433 . S
C2145 N2147 1.384 . S
N2146 C2142 1.427 . S
N2146 C2143 1.384 . S
N2147 C2139 1.427 . S
N2147 C2145 1.384 . S
H2148 C2154 0.930 . S
H2149 C2158 0.930 . S
H2150 C2163 0.929 . S
H2151 C2161 0.929 . S
H2152 C2156 0.929 1_545 S
H2153 C2162 0.929 1_565 S
C2154 H2148 0.930 . S
C2154 C2155 1.367 . S
C2154 C2162 1.378 . S
C2155 C2154 1.367 . S
C2155 C2163 1.433 . S
C2156 H2152 0.929 1_565 S
C2156 C2158 1.378 . S
C2156 C2160 1.350 . S
C2157 C2160 1.463 1_545 S
C2157 C2162 1.350 . S
C2157 N2165 1.427 . S
C2158 H2149 0.930 . S
C2158 C2156 1.378 . S
C2158 C2159 1.367 . S
C2159 C2158 1.367 . S
C2159 C2161 1.433 . S
C2160 C2156 1.350 . S
C2160 C2157 1.463 1_565 S
C2160 N2164 1.427 . S
C2161 H2151 0.929 . S
C2161 C2159 1.433 . S
C2161 N2164 1.384 . S
C2162 H2153 0.929 1_545 S
C2162 C2154 1.378 . S
C2162 C2157 1.350 . S
C2163 H2150 0.929 . S
C2163 C2155 1.433 . S
C2163 N2165 1.384 . S
N2164 C2160 1.427 . S
N2164 C2161 1.384 . S
N2165 C2157 1.427 . S
N2165 C2163 1.384 . S
H2166 C2172 0.930 . S
H2167 C2176 0.930 . S
H2168 C2181 0.929 . S
H2169 C2179 0.929 . S
H2170 C2174 0.929 . S
H2171 C2180 0.929 . S
C2172 H2166 0.930 . S
C2172 C2173 1.367 . S
C2172 C2180 1.378 . S
C2173 C2172 1.367 . S
C2173 C2181 1.433 . S
C2174 H2170 0.929 . S
C2174 C2176 1.378 . S
C2174 C2178 1.350 . S
C2175 C2178 1.463 . S
C2175 C2180 1.350 . S
C2175 N2183 1.427 . S
C2176 H2167 0.930 . S
C2176 C2174 1.378 . S
C2176 C2177 1.367 . S
C2177 C2176 1.367 . S
C2177 C2179 1.433 . S
C2178 C2174 1.350 . S
C2178 C2175 1.463 . S
C2178 N2182 1.427 . S
C2179 H2169 0.929 . S
C2179 C2177 1.433 . S
C2179 N2182 1.384 . S
C2180 H2171 0.929 . S
C2180 C2172 1.378 . S
C2180 C2175 1.350 . S
C2181 H2168 0.929 . S
C2181 C2173 1.433 . S
C2181 N2183 1.384 . S
N2182 C2178 1.427 . S
N2182 C2179 1.384 . S
N2183 C2175 1.427 . S
N2183 C2181 1.384 . S
H2184 C2190 0.930 . S
H2185 C2194 0.930 . S
H2186 C2199 0.929 . S
H2187 C2197 0.929 . S
H2188 C2192 0.929 . S
H2189 C2198 0.929 . S
C2190 H2184 0.930 . S
C2190 C2191 1.367 . S
C2190 C2198 1.378 . S
C2191 C2190 1.367 . S
C2191 C2199 1.433 . S
C2192 H2188 0.929 . S
C2192 C2194 1.378 . S
C2192 C2196 1.350 . S
C2193 C2196 1.463 . S
C2193 C2198 1.350 . S
C2193 N2201 1.427 . S
C2194 H2185 0.930 . S
C2194 C2192 1.378 . S
C2194 C2195 1.367 . S
C2195 C2194 1.367 . S
C2195 C2197 1.433 . S
C2196 C2192 1.350 . S
C2196 C2193 1.463 . S
C2196 N2200 1.427 . S
C2197 H2187 0.929 . S
C2197 C2195 1.433 . S
C2197 N2200 1.384 . S
C2198 H2189 0.929 . S
C2198 C2190 1.378 . S
C2198 C2193 1.350 . S
C2199 H2186 0.929 . S
C2199 C2191 1.433 . S
C2199 N2201 1.384 . S
N2200 C2196 1.427 . S
N2200 C2197 1.384 . S
N2201 C2193 1.427 . S
N2201 C2199 1.384 . S
H2202 C2208 0.930 . S
H2203 C2212 0.930 . S
H2204 C2217 0.929 . S
H2205 C2215 0.929 . S
H2206 C2210 0.929 . S
H2207 C2216 0.929 . S
C2208 H2202 0.930 . S
C2208 C2209 1.367 . S
C2208 C2216 1.378 . S
C2209 C2208 1.367 . S
C2209 C2217 1.433 . S
C2210 H2206 0.929 . S
C2210 C2212 1.378 . S
C2210 C2214 1.350 . S
C2211 C2214 1.463 1_556 S
C2211 C2216 1.350 . S
C2211 N2219 1.427 . S
C2212 H2203 0.930 . S
C2212 C2210 1.378 . S
C2212 C2213 1.367 . S
C2213 C2212 1.367 . S
C2213 C2215 1.433 . S
C2214 C2210 1.350 . S
C2214 C2211 1.463 1_554 S
C2214 N2218 1.427 . S
C2215 H2205 0.929 . S
C2215 C2213 1.433 . S
C2215 N2218 1.384 . S
C2216 H2207 0.929 . S
C2216 C2208 1.378 . S
C2216 C2211 1.350 . S
C2217 H2204 0.929 . S
C2217 C2209 1.433 . S
C2217 N2219 1.384 . S
N2218 C2214 1.427 . S
N2218 C2215 1.384 . S
N2219 C2211 1.427 . S
N2219 C2217 1.384 . S
H2220 C2226 0.930 . S
H2221 C2230 0.930 . S
H2222 C2235 0.929 . S
H2223 C2233 0.929 . S
H2224 C2228 0.929 . S
H2225 C2234 0.929 . S
C2226 H2220 0.930 . S
C2226 C2227 1.367 . S
C2226 C2234 1.378 . S
C2227 C2226 1.367 . S
C2227 C2235 1.433 . S
C2228 H2224 0.929 . S
C2228 C2230 1.378 . S
C2228 C2232 1.350 . S
C2229 C2232 1.463 1_556 S
C2229 C2234 1.350 . S
C2229 N2237 1.427 . S
C2230 H2221 0.930 . S
C2230 C2228 1.378 . S
C2230 C2231 1.367 . S
C2231 C2230 1.367 . S
C2231 C2233 1.433 . S
C2232 C2228 1.350 . S
C2232 C2229 1.463 1_554 S
C2232 N2236 1.427 . S
C2233 H2223 0.929 . S
C2233 C2231 1.433 . S
C2233 N2236 1.384 . S
C2234 H2225 0.929 . S
C2234 C2226 1.378 . S
C2234 C2229 1.350 . S
C2235 H2222 0.929 . S
C2235 C2227 1.433 . S
C2235 N2237 1.384 . S
N2236 C2232 1.427 . S
N2236 C2233 1.384 . S
N2237 C2229 1.427 . S
N2237 C2235 1.384 . S
H2238 C2244 0.930 . S
H2239 C2248 0.930 . S
H2240 C2253 0.929 . S
H2241 C2251 0.929 . S
H2242 C2246 0.929 . S
H2243 C2252 0.929 . S
C2244 H2238 0.930 . S
C2244 C2245 1.367 . S
C2244 C2252 1.378 . S
C2245 C2244 1.367 . S
C2245 C2253 1.433 . S
C2246 H2242 0.929 . S
C2246 C2248 1.378 . S
C2246 C2250 1.350 . S
C2247 C2250 1.463 . S
C2247 C2252 1.350 . S
C2247 N2255 1.427 . S
C2248 H2239 0.930 . S
C2248 C2246 1.378 . S
C2248 C2249 1.367 . S
C2249 C2248 1.367 . S
C2249 C2251 1.433 . S
C2250 C2246 1.350 . S
C2250 C2247 1.463 . S
C2250 N2254 1.427 . S
C2251 H2241 0.929 . S
C2251 C2249 1.433 . S
C2251 N2254 1.384 . S
C2252 H2243 0.929 . S
C2252 C2244 1.378 . S
C2252 C2247 1.350 . S
C2253 H2240 0.929 . S
C2253 C2245 1.433 . S
C2253 N2255 1.384 . S
N2254 C2250 1.427 . S
N2254 C2251 1.384 . S
N2255 C2247 1.427 . S
N2255 C2253 1.384 . S
H2256 C2262 0.930 . S
H2257 C2266 0.930 . S
H2258 C2271 0.929 . S
H2259 C2269 0.929 . S
H2260 C2264 0.929 . S
H2261 C2270 0.929 . S
C2262 H2256 0.930 . S
C2262 C2263 1.367 . S
C2262 C2270 1.378 . S
C2263 C2262 1.367 . S
C2263 C2271 1.433 . S
C2264 H2260 0.929 . S
C2264 C2266 1.378 . S
C2264 C2268 1.350 . S
C2265 C2268 1.463 . S
C2265 C2270 1.350 . S
C2265 N2273 1.427 . S
C2266 H2257 0.930 . S
C2266 C2264 1.378 . S
C2266 C2267 1.367 . S
C2267 C2266 1.367 . S
C2267 C2269 1.433 . S
C2268 C2264 1.350 . S
C2268 C2265 1.463 . S
C2268 N2272 1.427 . S
C2269 H2259 0.929 . S
C2269 C2267 1.433 . S
C2269 N2272 1.384 . S
C2270 H2261 0.929 . S
C2270 C2262 1.378 . S
C2270 C2265 1.350 . S
C2271 H2258 0.929 . S
C2271 C2263 1.433 . S
C2271 N2273 1.384 . S
N2272 C2268 1.427 . S
N2272 C2269 1.384 . S
N2273 C2265 1.427 . S
N2273 C2271 1.384 . S
H2274 C2280 0.930 . S
H2275 C2284 0.930 . S
H2276 C2289 0.929 . S
H2277 C2287 0.929 . S
H2278 C2282 0.929 . S
H2279 C2288 0.929 . S
C2280 H2274 0.930 . S
C2280 C2281 1.367 . S
C2280 C2288 1.378 . S
C2281 C2280 1.367 . S
C2281 C2289 1.433 . S
C2282 H2278 0.929 . S
C2282 C2284 1.378 . S
C2282 C2286 1.350 . S
C2283 C2286 1.463 1_655 S
C2283 C2288 1.350 . S
C2283 N2291 1.427 . S
C2284 H2275 0.930 . S
C2284 C2282 1.378 . S
C2284 C2285 1.367 . S
C2285 C2284 1.367 . S
C2285 C2287 1.433 . S
C2286 C2282 1.350 . S
C2286 C2283 1.463 1_455 S
C2286 N2290 1.427 . S
C2287 H2277 0.929 . S
C2287 C2285 1.433 . S
C2287 N2290 1.384 . S
C2288 H2279 0.929 . S
C2288 C2280 1.378 . S
C2288 C2283 1.350 . S
C2289 H2276 0.929 . S
C2289 C2281 1.433 . S
C2289 N2291 1.384 . S
N2290 C2286 1.427 . S
N2290 C2287 1.384 . S
N2291 C2283 1.427 . S
N2291 C2289 1.384 . S
H2292 C2298 0.930 . S
H2293 C2302 0.930 . S
H2294 C2307 0.929 . S
H2295 C2305 0.929 . S
H2296 C2300 0.929 . S
H2297 C2306 0.929 . S
C2298 H2292 0.930 . S
C2298 C2299 1.367 . S
C2298 C2306 1.378 . S
C2299 C2298 1.367 . S
C2299 C2307 1.433 . S
C2300 H2296 0.929 . S
C2300 C2302 1.378 . S
C2300 C2304 1.350 . S
C2301 C2304 1.463 1_545 S
C2301 C2306 1.350 . S
C2301 N2309 1.427 . S
C2302 H2293 0.930 . S
C2302 C2300 1.378 . S
C2302 C2303 1.367 . S
C2303 C2302 1.367 . S
C2303 C2305 1.433 . S
C2304 C2300 1.350 . S
C2304 C2301 1.463 1_565 S
C2304 N2308 1.427 . S
C2305 H2295 0.929 . S
C2305 C2303 1.433 . S
C2305 N2308 1.384 . S
C2306 H2297 0.929 . S
C2306 C2298 1.378 . S
C2306 C2301 1.350 . S
C2307 H2294 0.929 . S
C2307 C2299 1.433 . S
C2307 N2309 1.384 . S
N2308 C2304 1.427 . S
N2308 C2305 1.384 . S
N2309 C2301 1.427 . S
N2309 C2307 1.384 . S
H2310 C2316 0.930 . S
H2311 C2320 0.930 . S
H2312 C2325 0.929 . S
H2313 C2323 0.929 . S
H2314 C2318 0.929 . S
H2315 C2324 0.929 . S
C2316 H2310 0.930 . S
C2316 C2317 1.367 . S
C2316 C2324 1.378 . S
C2317 C2316 1.367 . S
C2317 C2325 1.433 . S
C2318 H2314 0.929 . S
C2318 C2320 1.378 . S
C2318 C2322 1.350 . S
C2319 C2322 1.463 . S
C2319 C2324 1.350 . S
C2319 N2327 1.427 . S
C2320 H2311 0.930 . S
C2320 C2318 1.378 . S
C2320 C2321 1.367 . S
C2321 C2320 1.367 . S
C2321 C2323 1.433 . S
C2322 C2318 1.350 . S
C2322 C2319 1.463 . S
C2322 N2326 1.427 . S
C2323 H2313 0.929 . S
C2323 C2321 1.433 . S
C2323 N2326 1.384 . S
C2324 H2315 0.929 . S
C2324 C2316 1.378 . S
C2324 C2319 1.350 . S
C2325 H2312 0.929 . S
C2325 C2317 1.433 . S
C2325 N2327 1.384 . S
N2326 C2322 1.427 . S
N2326 C2323 1.384 . S
N2327 C2319 1.427 . S
N2327 C2325 1.384 . S
H2328 C2334 0.930 . S
H2329 C2338 0.930 . S
H2330 C2343 0.929 . S
H2331 C2341 0.929 . S
H2332 C2336 0.929 . S
H2333 C2342 0.929 . S
C2334 H2328 0.930 . S
C2334 C2335 1.367 . S
C2334 C2342 1.378 . S
C2335 C2334 1.367 . S
C2335 C2343 1.433 . S
C2336 H2332 0.929 . S
C2336 C2338 1.378 . S
C2336 C2340 1.350 . S
C2337 C2340 1.463 1_455 S
C2337 C2342 1.350 . S
C2337 N2345 1.427 . S
C2338 H2329 0.930 . S
C2338 C2336 1.378 . S
C2338 C2339 1.367 . S
C2339 C2338 1.367 . S
C2339 C2341 1.433 . S
C2340 C2336 1.350 . S
C2340 C2337 1.463 1_655 S
C2340 N2344 1.427 . S
C2341 H2331 0.929 . S
C2341 C2339 1.433 . S
C2341 N2344 1.384 . S
C2342 H2333 0.929 . S
C2342 C2334 1.378 . S
C2342 C2337 1.350 . S
C2343 H2330 0.929 . S
C2343 C2335 1.433 . S
C2343 N2345 1.384 . S
N2344 C2340 1.427 . S
N2344 C2341 1.384 . S
N2345 C2337 1.427 . S
N2345 C2343 1.384 . S
H2346 C2352 0.930 . S
H2347 C2356 0.930 . S
H2348 C2361 0.929 . S
H2349 C2359 0.929 . S
H2350 C2354 0.929 . S
H2351 C2360 0.929 . S
C2352 H2346 0.930 . S
C2352 C2353 1.367 . S
C2352 C2360 1.378 . S
C2353 C2352 1.367 . S
C2353 C2361 1.433 . S
C2354 H2350 0.929 . S
C2354 C2356 1.378 . S
C2354 C2358 1.350 . S
C2355 C2358 1.463 1_545 S
C2355 C2360 1.350 . S
C2355 N2363 1.427 . S
C2356 H2347 0.930 . S
C2356 C2354 1.378 . S
C2356 C2357 1.367 . S
C2357 C2356 1.367 . S
C2357 C2359 1.433 . S
C2358 C2354 1.350 . S
C2358 C2355 1.463 1_565 S
C2358 N2362 1.427 . S
C2359 H2349 0.929 . S
C2359 C2357 1.433 . S
C2359 N2362 1.384 . S
C2360 H2351 0.929 . S
C2360 C2352 1.378 . S
C2360 C2355 1.350 . S
C2361 H2348 0.929 . S
C2361 C2353 1.433 . S
C2361 N2363 1.384 . S
N2362 C2358 1.427 . S
N2362 C2359 1.384 . S
N2363 C2355 1.427 . S
N2363 C2361 1.384 . S
H2364 C2370 0.930 . S
H2365 C2374 0.930 . S
H2366 C2379 0.929 . S
H2367 C2377 0.929 . S
H2368 C2372 0.929 . S
H2369 C2378 0.929 . S
C2370 H2364 0.930 . S
C2370 C2371 1.367 . S
C2370 C2378 1.378 . S
C2371 C2370 1.367 . S
C2371 C2379 1.433 . S
C2372 H2368 0.929 . S
C2372 C2374 1.378 . S
C2372 C2376 1.350 . S
C2373 C2376 1.463 . S
C2373 C2378 1.350 . S
C2373 N2381 1.427 . S
C2374 H2365 0.930 . S
C2374 C2372 1.378 . S
C2374 C2375 1.367 . S
C2375 C2374 1.367 . S
C2375 C2377 1.433 . S
C2376 C2372 1.350 . S
C2376 C2373 1.463 . S
C2376 N2380 1.427 . S
C2377 H2367 0.929 . S
C2377 C2375 1.433 . S
C2377 N2380 1.384 . S
C2378 H2369 0.929 . S
C2378 C2370 1.378 . S
C2378 C2373 1.350 . S
C2379 H2366 0.929 . S
C2379 C2371 1.433 . S
C2379 N2381 1.384 . S
N2380 C2376 1.427 . S
N2380 C2377 1.384 . S
N2381 C2373 1.427 . S
N2381 C2379 1.384 . S
H2382 C2388 0.930 . S
H2383 C2392 0.930 . S
H2384 C2397 0.929 . S
H2385 C2395 0.929 . S
H2386 C2390 0.929 1_455 S
H2387 C2396 0.929 1_655 S
C2388 H2382 0.930 . S
C2388 C2389 1.367 . S
C2388 C2396 1.378 . S
C2389 C2388 1.367 . S
C2389 C2397 1.433 . S
C2390 H2386 0.929 1_655 S
C2390 C2392 1.378 . S
C2390 C2394 1.350 . S
C2391 C2394 1.463 1_455 S
C2391 C2396 1.350 . S
C2391 N2399 1.427 . S
C2392 H2383 0.930 . S
C2392 C2390 1.378 . S
C2392 C2393 1.367 . S
C2393 C2392 1.367 . S
C2393 C2395 1.433 . S
C2394 C2390 1.350 . S
C2394 C2391 1.463 1_655 S
C2394 N2398 1.427 . S
C2395 H2385 0.929 . S
C2395 C2393 1.433 . S
C2395 N2398 1.384 . S
C2396 H2387 0.929 1_455 S
C2396 C2388 1.378 . S
C2396 C2391 1.350 . S
C2397 H2384 0.929 . S
C2397 C2389 1.433 . S
C2397 N2399 1.384 . S
N2398 C2394 1.427 . S
N2398 C2395 1.384 . S
N2399 C2391 1.427 . S
N2399 C2397 1.384 . S
C679 C20 1.938 . S
C683 C6 1.938 . S
C697 C34 1.942 . S
C701 C48 1.933 . S
C715 C90 1.935 . S
C719 C62 1.941 . S
C733 C104 1.940 . S
C737 C76 1.935 . S
C751 C118 1.937 . S
C755 C482 1.939 . S
C769 C132 1.934 . S
C773 C160 1.942 . S
C787 C454 1.939 . S
C791 C146 1.938 . S
C805 C188 1.937 . S
C809 C174 1.939 . S
C823 C216 1.939 . S
C827 C202 1.935 . S
C841 C258 1.936 . S
C845 C230 1.939 . S
C859 C272 1.941 . S
C863 C244 1.935 . S
C877 C286 1.936 . S
C881 C650 1.940 . S
C895 C300 1.941 . S
C899 C328 1.934 . S
C913 C622 1.934 . S
C917 C314 1.942 . S
C931 C342 1.939 . S
C935 C356 1.937 . S
C949 C384 1.942 . S
C953 C370 1.933 . S
C967 C398 1.938 . S
C971 C426 1.938 . S
C985 C440 1.940 . S
C989 C412 1.935 . S
C1003 C496 1.933 . S
C1007 C468 1.942 . S
C1021 C524 1.940 . S
C1025 C510 1.935 . S
C1039 C538 1.937 . S
C1043 C552 1.937 . S
C1057 C594 1.934 . S
C1061 C566 1.941 . S
C1075 C580 1.936 . S
C1079 C608 1.938 . S
C1093 C636 1.938 . S
C1097 C664 1.939 . S
C1111 C623 1.424 . S
C1115 C8 1.572 . S
C1129 C329 1.421 . S
C1133 C22 1.572 . S
C1147 C637 1.421 . S
C1151 C36 1.572 . S
C1165 C50 1.573 . S
C1169 C651 1.419 . S
C1183 C64 1.573 . S
C1187 C511 1.417 . S
C1201 C525 1.402 . S
C1205 C78 1.574 . S
C1219 C92 1.574 . S
C1223 C539 1.407 . S
C1237 C553 1.409 . S
C1241 C106 1.574 . S
C1255 C567 1.424 . S
C1259 C120 1.572 . S
C1273 C134 1.574 . S
C1277 C595 1.410 . S
C1291 C609 1.420 . S
C1295 C148 1.573 . S
C1309 C162 1.572 . S
C1313 C245 1.420 . S
C1327 C176 1.572 . S
C1331 C455 1.421 . S
C1345 C190 1.574 . S
C1349 C161 1.403 . S
C1363 C204 1.572 . S
C1367 C469 1.423 . S
C1381 C218 1.574 . S
C1385 C483 1.401 . S
C1399 C343 1.415 . S
C1403 C232 1.572 . S
C1417 C357 1.417 . S
C1421 C246 1.573 . S
C1435 C260 1.572 . S
C1439 C371 1.419 . S
C1453 C274 1.574 . S
C1457 C385 1.410 . S
C1471 C288 1.574 . S
C1475 C399 1.401 . S
C1489 C302 1.572 . S
C1493 C427 1.421 . S
C1507 C441 1.420 . S
C1511 C316 1.572 . S
C1525 C77 1.404 . S
C1529 C330 1.574 . S
C1543 C344 1.573 . S
C1547 C287 1.422 . S
C1561 C358 1.572 . S
C1565 C665 1.422 . S
C1579 C372 1.573 . S
C1583 C301 1.402 . S
C1597 C386 1.574 . S
C1601 C315 1.401 . S
C1615 C175 1.401 . S
C1619 C400 1.574 . S
C1633 C414 1.574 . S
C1637 C189 1.402 . S
C1651 C203 1.411 . S
C1655 C428 1.574 . S
C1669 C217 1.414 . S
C1673 C442 1.573 . S
C1687 C231 1.408 . S
C1691 C456 1.573 . S
C1705 C259 1.419 . S
C1709 C470 1.573 . S
C1723 C484 1.572 . S
C1727 C273 1.417 . S
C1741 C498 1.572 . S
C1745 C581 1.411 . S
C1759 C119 1.405 . S
C1763 C512 1.573 . S
C1777 C526 1.574 . S
C1781 C497 1.401 . S
C1795 C540 1.572 . S
C1799 C133 1.421 . S
C1813 C147 1.421 . S
C1817 C554 1.573 . S
C1831 C568 1.574 . S
C1835 C7 1.402 . S
C1849 C582 1.573 . S
C1853 C21 1.406 . S
C1867 C35 1.419 . S
C1871 C596 1.572 . S
C1885 C610 1.573 . S
C1889 C49 1.404 . S
C1903 C624 1.572 . S
C1907 C63 1.423 . S
C1921 C91 1.419 . S
C1925 C638 1.572 . S
C1939 C652 1.573 . S
C1943 C105 1.407 . S
C1957 C413 1.424 . S
C1961 C666 1.572 . S
C1975 C37 1.078 . S
C1979 C9 1.090 . S
C1993 C51 1.077 . S
C1997 C23 1.091 . S
C2011 C443 1.096 . S
C2015 C65 1.089 . S
C2029 C429 1.077 . S
C2033 C79 1.099 . S
C2047 C415 1.096 . S
C2051 C93 1.076 . S
C2065 C107 1.093 . S
C2069 C401 1.076 . S
C2083 C121 1.100 . S
C2087 C499 1.079 . S
C2101 C149 1.096 . S
C2105 C135 1.089 . S
C2119 C163 1.099 . S
C2123 C457 1.077 . S
C2137 C205 1.096 . S
C2141 C177 1.076 . S
C2155 C219 1.091 . S
C2159 C191 1.094 . S
C2173 C611 1.077 . S
C2177 C233 1.091 . S
C2191 C597 1.100 . S
C2195 C247 1.081 . S
C2209 C261 1.080 . S
C2213 C583 1.087 . S
C2227 C275 1.076 . S
C2231 C569 1.095 . S
C2245 C667 1.100 . S
C2249 C289 1.079 . S
C2263 C317 1.099 . S
C2267 C303 1.077 . S
C2281 C331 1.099 . S
C2285 C625 1.078 . S
C2299 C373 1.079 . S
C2303 C345 1.088 . S
C2317 C359 1.098 . S
C2321 C387 1.086 . S
C2335 C485 1.099 . S
C2339 C471 1.077 . S
C2353 C513 1.083 . S
C2357 C541 1.083 . S
C2371 C527 1.088 . S
C2375 C555 1.079 . S
C2389 C639 1.087 . S
C2393 C653 1.097 . S
