# Generated by pormake.
# Topology unw, (4)-cn, num edge types: 1
# Building blocks:
#     Node 0, Type 0, BuildingBlock: CEKHIL_clean_sbu_0, # of connection points: 4
#     Node 1, Type 0, BuildingBlock: CEKHIL_clean_sbu_0, # of connection points: 4
#     Node 2, Type 0, BuildingBlock: CEKHIL_clean_sbu_0, # of connection points: 4
#     Node 3, Type 0, BuildingBlock: CEKHIL_clean_sbu_0, # of connection points: 4
#     Node 4, Type 0, BuildingBlock: CEKHIL_clean_sbu_0, # of connection points: 4
#     Node 5, Type 0, BuildingBlock: CEKHIL_clean_sbu_0, # of connection points: 4
#     Node 6, Type 0, BuildingBlock: CEKHIL_clean_sbu_0, # of connection points: 4
#     Node 7, Type 0, BuildingBlock: CEKHIL_clean_sbu_0, # of connection points: 4
#     Node 8, Type 0, BuildingBlock: CEKHIL_clean_sbu_0, # of connection points: 4
#     Node 9, Type 0, BuildingBlock: CEKHIL_clean_sbu_0, # of connection points: 4
#     Node 10, Type 0, BuildingBlock: CEKHIL_clean_sbu_0, # of connection points: 4
#     Node 11, Type 0, BuildingBlock: CEKHIL_clean_sbu_0, # of connection points: 4
#     Node 12, Type 0, BuildingBlock: CEKHIL_clean_sbu_0, # of connection points: 4
#     Node 13, Type 0, BuildingBlock: CEKHIL_clean_sbu_0, # of connection points: 4
#     Node 14, Type 0, BuildingBlock: CEKHIL_clean_sbu_0, # of connection points: 4
#     Node 15, Type 0, BuildingBlock: CEKHIL_clean_sbu_0, # of connection points: 4
#     Node 16, Type 0, BuildingBlock: CEKHIL_clean_sbu_0, # of connection points: 4
#     Node 17, Type 0, BuildingBlock: CEKHIL_clean_sbu_0, # of connection points: 4
#     Node 18, Type 0, BuildingBlock: CEKHIL_clean_sbu_0, # of connection points: 4
#     Node 19, Type 0, BuildingBlock: CEKHIL_clean_sbu_0, # of connection points: 4
#     Node 20, Type 0, BuildingBlock: CEKHIL_clean_sbu_0, # of connection points: 4
#     Node 21, Type 0, BuildingBlock: CEKHIL_clean_sbu_0, # of connection points: 4
#     Node 22, Type 0, BuildingBlock: CEKHIL_clean_sbu_0, # of connection points: 4
#     Node 23, Type 0, BuildingBlock: CEKHIL_clean_sbu_0, # of connection points: 4
#     Edge 24, Type (0, 0), BuildingBlock: AJUNOK_clean_linker_0, # of connection points: 2
#     Edge 25, Type (0, 0), BuildingBlock: AJUNOK_clean_linker_0, # of connection points: 2
#     Edge 26, Type (0, 0), BuildingBlock: AJUNOK_clean_linker_0, # of connection points: 2
#     Edge 27, Type (0, 0), BuildingBlock: AJUNOK_clean_linker_0, # of connection points: 2
#     Edge 28, Type (0, 0), BuildingBlock: AJUNOK_clean_linker_0, # of connection points: 2
#     Edge 29, Type (0, 0), BuildingBlock: AJUNOK_clean_linker_0, # of connection points: 2
#     Edge 30, Type (0, 0), BuildingBlock: AJUNOK_clean_linker_0, # of connection points: 2
#     Edge 31, Type (0, 0), BuildingBlock: AJUNOK_clean_linker_0, # of connection points: 2
#     Edge 32, Type (0, 0), BuildingBlock: AJUNOK_clean_linker_0, # of connection points: 2
#     Edge 33, Type (0, 0), BuildingBlock: AJUNOK_clean_linker_0, # of connection points: 2
#     Edge 34, Type (0, 0), BuildingBlock: AJUNOK_clean_linker_0, # of connection points: 2
#     Edge 35, Type (0, 0), BuildingBlock: AJUNOK_clean_linker_0, # of connection points: 2
#     Edge 36, Type (0, 0), BuildingBlock: AJUNOK_clean_linker_0, # of connection points: 2
#     Edge 37, Type (0, 0), BuildingBlock: AJUNOK_clean_linker_0, # of connection points: 2
#     Edge 38, Type (0, 0), BuildingBlock: AJUNOK_clean_linker_0, # of connection points: 2
#     Edge 39, Type (0, 0), BuildingBlock: AJUNOK_clean_linker_0, # of connection points: 2
#     Edge 40, Type (0, 0), BuildingBlock: AJUNOK_clean_linker_0, # of connection points: 2
#     Edge 41, Type (0, 0), BuildingBlock: AJUNOK_clean_linker_0, # of connection points: 2
#     Edge 42, Type (0, 0), BuildingBlock: AJUNOK_clean_linker_0, # of connection points: 2
#     Edge 43, Type (0, 0), BuildingBlock: AJUNOK_clean_linker_0, # of connection points: 2
#     Edge 44, Type (0, 0), BuildingBlock: AJUNOK_clean_linker_0, # of connection points: 2
#     Edge 45, Type (0, 0), BuildingBlock: AJUNOK_clean_linker_0, # of connection points: 2
#     Edge 46, Type (0, 0), BuildingBlock: AJUNOK_clean_linker_0, # of connection points: 2
#     Edge 47, Type (0, 0), BuildingBlock: AJUNOK_clean_linker_0, # of connection points: 2
#     Edge 48, Type (0, 0), BuildingBlock: AJUNOK_clean_linker_0, # of connection points: 2
#     Edge 49, Type (0, 0), BuildingBlock: AJUNOK_clean_linker_0, # of connection points: 2
#     Edge 50, Type (0, 0), BuildingBlock: AJUNOK_clean_linker_0, # of connection points: 2
#     Edge 51, Type (0, 0), BuildingBlock: AJUNOK_clean_linker_0, # of connection points: 2
#     Edge 52, Type (0, 0), BuildingBlock: AJUNOK_clean_linker_0, # of connection points: 2
#     Edge 53, Type (0, 0), BuildingBlock: AJUNOK_clean_linker_0, # of connection points: 2
#     Edge 54, Type (0, 0), BuildingBlock: AJUNOK_clean_linker_0, # of connection points: 2
#     Edge 55, Type (0, 0), BuildingBlock: AJUNOK_clean_linker_0, # of connection points: 2
#     Edge 56, Type (0, 0), BuildingBlock: AJUNOK_clean_linker_0, # of connection points: 2
#     Edge 57, Type (0, 0), BuildingBlock: AJUNOK_clean_linker_0, # of connection points: 2
#     Edge 58, Type (0, 0), BuildingBlock: AJUNOK_clean_linker_0, # of connection points: 2
#     Edge 59, Type (0, 0), BuildingBlock: AJUNOK_clean_linker_0, # of connection points: 2
#     Edge 60, Type (0, 0), BuildingBlock: AJUNOK_clean_linker_0, # of connection points: 2
#     Edge 61, Type (0, 0), BuildingBlock: AJUNOK_clean_linker_0, # of connection points: 2
#     Edge 62, Type (0, 0), BuildingBlock: AJUNOK_clean_linker_0, # of connection points: 2
#     Edge 63, Type (0, 0), BuildingBlock: AJUNOK_clean_linker_0, # of connection points: 2
#     Edge 64, Type (0, 0), BuildingBlock: AJUNOK_clean_linker_0, # of connection points: 2
#     Edge 65, Type (0, 0), BuildingBlock: AJUNOK_clean_linker_0, # of connection points: 2
#     Edge 66, Type (0, 0), BuildingBlock: AJUNOK_clean_linker_0, # of connection points: 2
#     Edge 67, Type (0, 0), BuildingBlock: AJUNOK_clean_linker_0, # of connection points: 2
#     Edge 68, Type (0, 0), BuildingBlock: AJUNOK_clean_linker_0, # of connection points: 2
#     Edge 69, Type (0, 0), BuildingBlock: AJUNOK_clean_linker_0, # of connection points: 2
#     Edge 70, Type (0, 0), BuildingBlock: AJUNOK_clean_linker_0, # of connection points: 2
#     Edge 71, Type (0, 0), BuildingBlock: AJUNOK_clean_linker_0, # of connection points: 2
# Relax obj value: 0.377
# Max RMSD: 0.303
# Mean RMSD: 0.288
data_MOF--net-unw--node1-CEKHIL_clean_sbu_0--edge1-AJUNOK_clean_linker_0
_symmetry_space_group_name_H-M    P1
_symmetry_Int_Tables_number       1
_symmetry_cell_setting            triclinic
loop_
_symmetry_equiv_pos_as_xyz
'x, y, z'
_cell_length_a     32.601734
_cell_length_b     33.265676
_cell_length_c     32.929329
_cell_angle_alpha  89.879091
_cell_angle_beta   90.477505
_cell_angle_gamma 90.521413
loop_
_atom_site_label
_atom_site_type_symbol
_atom_site_fract_x
_atom_site_fract_y
_atom_site_fract_z
_atom_type_partial_charge
Co0 Co 0.1887 0.43366 0.21073 0.0
O1 O 0.18949 0.47006 0.16526 0.0
O2 O 0.22225 0.48164 0.22275 0.0
C3 C 0.12079 0.41702 0.21332 0.0
O4 O 0.19301 0.40082 0.26336 0.0
Co5 Co 0.16723 0.34516 0.18654 0.0
O6 O 0.16559 0.34024 0.24656 0.0
C7 C 0.24968 0.37573 0.17171 0.0
C8 C 0.21474 0.49288 0.18543 0.0
C9 C 0.17941 0.36533 0.27271 0.0
O10 O 0.24036 0.40768 0.19102 0.0
O11 O 0.22347 0.34834 0.16246 0.0
O12 O 0.13408 0.45109 0.22795 0.0
O13 O 0.14714 0.3994 0.19044 0.0
Co14 Co 0.69316 0.06772 0.29248 0.0
O15 O 0.69951 0.03739 0.34255 0.0
O16 O 0.72156 0.01716 0.28308 0.0
C17 C 0.62596 0.08701 0.2961 0.0
O18 O 0.69111 0.09187 0.2353 0.0
Co19 Co 0.67911 0.15975 0.30388 0.0
O20 O 0.6663 0.15437 0.2452 0.0
C21 C 0.76253 0.12901 0.31076 0.0
C22 C 0.71942 0.01072 0.32207 0.0
C23 C 0.6762 0.12532 0.22213 0.0
O24 O 0.74889 0.09399 0.301 0.0
O25 O 0.73933 0.15913 0.31695 0.0
O26 O 0.63551 0.0507 0.28527 0.0
O27 O 0.65642 0.10659 0.31228 0.0
Co28 Co 0.82341 0.56571 0.20208 0.0
O29 O 0.82228 0.53065 0.15592 0.0
O30 O 0.79312 0.51672 0.21476 0.0
C31 C 0.8899 0.5858 0.20254 0.0
O32 O 0.81971 0.59643 0.2556 0.0
Co33 Co 0.83807 0.65573 0.181 0.0
O34 O 0.84237 0.6592 0.24106 0.0
C35 C 0.7579 0.62041 0.16512 0.0
C36 C 0.79885 0.50688 0.1769 0.0
C37 C 0.83102 0.63223 0.26632 0.0
O38 O 0.76954 0.58911 0.18444 0.0
O39 O 0.78214 0.64941 0.15604 0.0
O40 O 0.8796 0.55074 0.2171 0.0
O41 O 0.86142 0.60256 0.18107 0.0
Co42 Co 0.31307 0.92416 0.29146 0.0
O43 O 0.37233 0.9302 0.28848 0.0
O44 O 0.34007 0.87347 0.30274 0.0
C45 C 0.29462 0.98019 0.32637 0.0
O46 O 0.25319 0.90584 0.29598 0.0
Co47 Co 0.25928 0.98249 0.24192 0.0
O48 O 0.21323 0.9533 0.2679 0.0
C49 C 0.29832 0.91696 0.19927 0.0
C50 C 0.37435 0.89135 0.29315 0.0
C51 C 0.21757 0.92001 0.28652 0.0
O52 O 0.31319 0.90697 0.23366 0.0
O53 O 0.27504 0.94735 0.19439 0.0
O54 O 0.30942 0.94897 0.34526 0.0
O55 O 0.29849 0.97903 0.28715 0.0
Co56 Co 0.19204 0.56943 0.79832 0.0
O57 O 0.19793 0.53784 0.84764 0.0
O58 O 0.22014 0.51877 0.78787 0.0
C59 C 0.12494 0.58904 0.80107 0.0
O60 O 0.18984 0.59537 0.74197 0.0
Co61 Co 0.17967 0.66089 0.81457 0.0
O62 O 0.16804 0.6584 0.75557 0.0
C63 C 0.26251 0.62928 0.81896 0.0
C64 C 0.21756 0.51136 0.82668 0.0
C65 C 0.17616 0.63008 0.73089 0.0
O66 O 0.2481 0.59509 0.80739 0.0
O67 O 0.23985 0.65924 0.82739 0.0
O68 O 0.13452 0.55275 0.79029 0.0
O69 O 0.15509 0.60792 0.81876 0.0
Co70 Co 0.31868 0.06532 0.70653 0.0
O71 O 0.31766 0.03339 0.65825 0.0
O72 O 0.29208 0.01353 0.71696 0.0
C73 C 0.38399 0.08912 0.7046 0.0
O74 O 0.31608 0.09307 0.76196 0.0
Co75 Co 0.32694 0.15698 0.68893 0.0
O76 O 0.33551 0.15723 0.74865 0.0
C77 C 0.24823 0.11734 0.6755 0.0
C78 C 0.2972 0.00654 0.67833 0.0
C79 C 0.32708 0.1288 0.77341 0.0
O80 O 0.26258 0.08614 0.693 0.0
O81 O 0.2701 0.14821 0.6668 0.0
O82 O 0.37642 0.05292 0.71778 0.0
O83 O 0.35336 0.10539 0.68587 0.0
Co84 Co 0.81065 0.42793 0.78605 0.0
O85 O 0.86963 0.43557 0.78367 0.0
O86 O 0.83908 0.37799 0.79803 0.0
C87 C 0.79072 0.48371 0.8206 0.0
O88 O 0.75108 0.40843 0.79024 0.0
Co89 Co 0.75646 0.48473 0.73533 0.0
O90 O 0.71054 0.45429 0.75992 0.0
C91 C 0.79665 0.41916 0.69379 0.0
C92 C 0.87294 0.39693 0.78894 0.0
C93 C 0.71539 0.42172 0.77967 0.0
O94 O 0.81176 0.41015 0.72838 0.0
O95 O 0.77274 0.449 0.68841 0.0
O96 O 0.80601 0.45281 0.8396 0.0
O97 O 0.79492 0.48258 0.78137 0.0
Co98 Co 0.68724 0.93445 0.70852 0.0
O99 O 0.68756 0.9704 0.66257 0.0
O100 O 0.72057 0.98286 0.7197 0.0
C101 C 0.61936 0.9174 0.71175 0.0
O102 O 0.69207 0.90235 0.76151 0.0
Co103 Co 0.66564 0.84546 0.68577 0.0
O104 O 0.6649 0.84137 0.74586 0.0
C105 C 0.74807 0.87587 0.67025 0.0
C106 C 0.71263 0.99375 0.68236 0.0
C107 C 0.67902 0.86682 0.77149 0.0
O108 O 0.73895 0.9083 0.68891 0.0
O109 O 0.72175 0.84841 0.66157 0.0
O110 O 0.63251 0.95174 0.72587 0.0
O111 O 0.6457 0.89972 0.68895 0.0
Co112 Co 0.21323 0.17984 0.43414 0.0
O113 O 0.22269 0.12352 0.4473 0.0
O114 O 0.20176 0.14558 0.3876 0.0
C115 C 0.17856 0.20217 0.48963 0.0
O116 O 0.20097 0.23433 0.40843 0.0
Co117 Co 0.25946 0.24568 0.48197 0.0
O118 O 0.23109 0.28367 0.44517 0.0
C119 C 0.30373 0.20291 0.41931 0.0
C120 C 0.21535 0.11563 0.40915 0.0
C121 C 0.20915 0.27174 0.41533 0.0
O122 O 0.27053 0.18312 0.41345 0.0
O123 O 0.3072 0.2303 0.44635 0.0
O124 O 0.16013 0.18138 0.46127 0.0
O125 O 0.2184 0.20245 0.48715 0.0
Co126 Co 0.9349 0.291 0.31641 0.0
O127 O 0.94571 0.28197 0.37367 0.0
O128 O 0.887 0.30323 0.34792 0.0
C129 C 0.99212 0.32448 0.29701 0.0
O130 O 0.91207 0.30347 0.26018 0.0
Co131 Co 0.98426 0.24535 0.25267 0.0
O132 O 0.95141 0.27545 0.21217 0.0
C133 C 0.91911 0.20201 0.29437 0.0
C134 C 0.9072 0.29025 0.37945 0.0
C135 C 0.92128 0.29696 0.22279 0.0
O136 O 0.91267 0.23497 0.31286 0.0
O137 O 0.94761 0.19824 0.26822 0.0
O138 O 0.96295 0.3426 0.31627 0.0
O139 O 0.98906 0.28537 0.2964 0.0
Co140 Co 0.79228 0.80831 0.43234 0.0
O141 O 0.78179 0.86464 0.44445 0.0
O142 O 0.80734 0.84239 0.38706 0.0
C143 C 0.82273 0.78598 0.49089 0.0
O144 O 0.80664 0.75434 0.40745 0.0
Co145 Co 0.74383 0.74128 0.47554 0.0
O146 O 0.77606 0.704 0.44178 0.0
C147 C 0.70265 0.78547 0.4108 0.0
C148 C 0.79225 0.87239 0.40705 0.0
C149 C 0.79901 0.7167 0.41333 0.0
O150 O 0.73636 0.80491 0.40679 0.0
O151 O 0.69772 0.75816 0.43778 0.0
O152 O 0.84326 0.80688 0.46428 0.0
O153 O 0.78328 0.78532 0.48458 0.0
Co154 Co 0.0707 0.71381 0.30969 0.0
O155 O 0.06023 0.72439 0.36605 0.0
O156 O 0.11885 0.70176 0.34211 0.0
C157 C 0.0127 0.68108 0.29114 0.0
O158 O 0.09204 0.69949 0.25391 0.0
Co159 Co 0.0196 0.75892 0.24526 0.0
O160 O 0.0518 0.72749 0.20572 0.0
C161 C 0.08439 0.80304 0.28745 0.0
C162 C 0.09845 0.71548 0.37286 0.0
C163 C 0.08162 0.70535 0.21655 0.0
O164 O 0.09371 0.76957 0.30409 0.0
O165 O 0.05298 0.80672 0.26424 0.0
O166 O 0.0415 0.66255 0.31113 0.0
O167 O 0.01676 0.71995 0.28973 0.0
Co168 Co 0.20716 0.81615 0.56987 0.0
O169 O 0.16026 0.81401 0.53448 0.0
O170 O 0.21925 0.78458 0.52165 0.0
C171 C 0.20933 0.88204 0.58622 0.0
O172 O 0.2613 0.81355 0.60157 0.0
Co173 Co 0.18541 0.83538 0.6597 0.0
O174 O 0.24608 0.83911 0.66323 0.0
C175 C 0.17088 0.75445 0.62924 0.0
C176 C 0.18105 0.79045 0.51129 0.0
C177 C 0.27178 0.82673 0.63712 0.0
O178 O 0.18917 0.76462 0.59654 0.0
O179 O 0.16208 0.77941 0.65725 0.0
O180 O 0.22284 0.8699 0.55132 0.0
O181 O 0.18679 0.8557 0.60475 0.0
Co182 Co 0.06595 0.27893 0.68753 0.0
O183 O 0.03755 0.32952 0.69312 0.0
O184 O 0.01308 0.27143 0.71453 0.0
C185 C 0.08827 0.28236 0.62144 0.0
O186 O 0.08742 0.22155 0.68638 0.0
Co187 Co 0.16088 0.28671 0.67598 0.0
O188 O 0.1524 0.22888 0.66375 0.0
C189 C 0.12747 0.29572 0.75739 0.0
C190 C 0.00901 0.31035 0.7127 0.0
C191 C 0.1212 0.20724 0.67269 0.0
O192 O 0.0918 0.28624 0.74335 0.0
O193 O 0.15886 0.30123 0.73496 0.0
O194 O 0.05039 0.27281 0.6296 0.0
O195 O 0.10774 0.29724 0.65235 0.0
Co196 Co 0.79434 0.19182 0.57551 0.0
O197 O 0.84471 0.19771 0.54535 0.0
O198 O 0.78405 0.2182 0.52387 0.0
C199 C 0.79729 0.12689 0.59728 0.0
O200 O 0.73667 0.19004 0.59887 0.0
Co201 Co 0.8045 0.18164 0.66884 0.0
O202 O 0.74554 0.16758 0.66309 0.0
C203 C 0.81224 0.2621 0.63417 0.0
C204 C 0.82343 0.21652 0.51785 0.0
C205 C 0.7227 0.17617 0.6327 0.0
O206 O 0.80265 0.24709 0.59957 0.0
O207 O 0.81776 0.24079 0.66608 0.0
O208 O 0.78744 0.13547 0.55994 0.0
O209 O 0.8141 0.15684 0.6166 0.0
Co210 Co 0.93243 0.70369 0.6894 0.0
O211 O 0.96398 0.65491 0.69424 0.0
O212 O 0.98478 0.71321 0.71829 0.0
C213 C 0.91098 0.70109 0.62277 0.0
O214 O 0.90623 0.75941 0.68832 0.0
Co215 Co 0.8388 0.68729 0.67675 0.0
O216 O 0.84167 0.74583 0.66589 0.0
C217 C 0.8726 0.68011 0.75823 0.0
C218 C 0.99133 0.67469 0.71506 0.0
C219 C 0.87078 0.77035 0.67454 0.0
O220 O 0.90694 0.69335 0.74451 0.0
O221 O 0.84201 0.67129 0.7353 0.0
O222 O 0.94815 0.71261 0.63212 0.0
O223 O 0.89249 0.6836 0.65269 0.0
Co224 Co 0.42964 0.20218 0.19214 0.0
O225 O 0.45867 0.15195 0.19828 0.0
O226 O 0.48278 0.21016 0.21963 0.0
C227 C 0.40712 0.19884 0.12597 0.0
O228 O 0.40663 0.25917 0.18958 0.0
Co229 Co 0.33501 0.19044 0.18147 0.0
O230 O 0.34088 0.24846 0.16914 0.0
C231 C 0.37003 0.18496 0.26277 0.0
C232 C 0.48737 0.17128 0.21775 0.0
C233 C 0.37151 0.2716 0.17635 0.0
O234 O 0.40484 0.19522 0.24792 0.0
O235 O 0.33822 0.17775 0.24095 0.0
O236 O 0.44503 0.20819 0.13466 0.0
O237 O 0.38792 0.18319 0.15653 0.0
Co238 Co 0.43663 0.79042 0.8204 0.0
O239 O 0.45108 0.78098 0.87668 0.0
O240 O 0.39072 0.80223 0.85504 0.0
C241 C 0.49278 0.82428 0.79823 0.0
O242 O 0.41038 0.80319 0.76566 0.0
Co243 Co 0.48237 0.74537 0.7538 0.0
O244 O 0.44705 0.77544 0.71546 0.0
C245 C 0.41906 0.70177 0.79803 0.0
C246 C 0.41308 0.78907 0.88508 0.0
C247 C 0.4174 0.79668 0.72778 0.0
O248 O 0.41418 0.73437 0.81766 0.0
O249 O 0.4459 0.69837 0.77015 0.0
O250 O 0.46456 0.84212 0.81906 0.0
O251 O 0.48968 0.78518 0.7974 0.0
Co252 Co 0.28822 0.30635 0.93571 0.0
O253 O 0.27724 0.36265 0.94747 0.0
O254 O 0.30256 0.3404 0.89002 0.0
C255 C 0.31959 0.28476 0.99399 0.0
O256 O 0.30319 0.25217 0.91144 0.0
Co257 Co 0.24063 0.23936 0.97979 0.0
O258 O 0.27327 0.20193 0.9466 0.0
C259 C 0.19889 0.28236 0.91451 0.0
C260 C 0.28751 0.37041 0.91004 0.0
C261 C 0.29641 0.21452 0.91825 0.0
O262 O 0.23235 0.30214 0.91048 0.0
O263 O 0.19428 0.25517 0.94168 0.0
O264 O 0.33931 0.30584 0.96695 0.0
O265 O 0.28 0.28363 0.98839 0.0
Co266 Co 0.56717 0.21765 0.80759 0.0
O267 O 0.55588 0.22948 0.86338 0.0
O268 O 0.61479 0.20606 0.84111 0.0
C269 C 0.50931 0.18487 0.78895 0.0
O270 O 0.58911 0.20217 0.75242 0.0
Co271 Co 0.51686 0.26165 0.74159 0.0
O272 O 0.54831 0.22798 0.70339 0.0
C273 C 0.58144 0.30635 0.78374 0.0
C274 C 0.594 0.22089 0.87107 0.0
C275 C 0.57842 0.20654 0.71492 0.0
O276 O 0.59046 0.27322 0.80115 0.0
O277 O 0.55055 0.30964 0.75973 0.0
O278 O 0.53776 0.16657 0.80966 0.0
O279 O 0.51357 0.22369 0.78685 0.0
Co280 Co 0.70949 0.68051 0.93124 0.0
O281 O 0.71782 0.62389 0.94341 0.0
O282 O 0.69535 0.64719 0.8847 0.0
C283 C 0.67813 0.70331 0.98848 0.0
O284 O 0.6983 0.73574 0.90671 0.0
Co285 Co 0.76106 0.74322 0.97772 0.0
O286 O 0.732 0.78291 0.94327 0.0
C287 C 0.80081 0.69879 0.91364 0.0
C288 C 0.70931 0.61675 0.90533 0.0
C289 C 0.70859 0.77262 0.91388 0.0
O290 O 0.76583 0.68215 0.9082 0.0
O291 O 0.80739 0.72456 0.94178 0.0
O292 O 0.65765 0.68342 0.9608 0.0
O293 O 0.71777 0.70224 0.98413 0.0
Co294 Co 0.56857 0.78193 0.18509 0.0
O295 O 0.53643 0.83013 0.19237 0.0
O296 O 0.51688 0.7699 0.21272 0.0
C297 C 0.58951 0.78752 0.11881 0.0
O298 O 0.59487 0.72661 0.18185 0.0
Co299 Co 0.66198 0.7994 0.17374 0.0
O300 O 0.65949 0.74119 0.16137 0.0
C301 C 0.62883 0.80311 0.2551 0.0
C302 C 0.50977 0.80842 0.21184 0.0
C303 C 0.63036 0.71633 0.16852 0.0
O304 O 0.59456 0.78974 0.24082 0.0
O305 O 0.65905 0.81322 0.23271 0.0
O306 O 0.5524 0.77558 0.12736 0.0
O307 O 0.60806 0.804 0.14951 0.0
Co308 Co 0.29966 0.69031 0.08065 0.0
O309 O 0.3512 0.69598 0.05269 0.0
O310 O 0.29168 0.71673 0.02853 0.0
C311 C 0.30199 0.62542 0.10253 0.0
O312 O 0.24103 0.68869 0.10177 0.0
Co313 Co 0.3059 0.67974 0.1744 0.0
O314 O 0.24726 0.66569 0.1661 0.0
C315 C 0.3145 0.76038 0.14016 0.0
C316 C 0.33131 0.71485 0.02426 0.0
C317 C 0.22567 0.67465 0.13493 0.0
O318 O 0.30714 0.74547 0.10502 0.0
O319 O 0.31814 0.73906 0.17233 0.0
O320 O 0.29337 0.63396 0.06488 0.0
O321 O 0.31784 0.65544 0.12246 0.0
Co322 Co 0.70994 0.31625 0.06759 0.0
O323 O 0.66129 0.31501 0.03484 0.0
O324 O 0.72 0.28838 0.01649 0.0
C325 C 0.7098 0.3812 0.08799 0.0
O326 O 0.7658 0.31374 0.0962 0.0
Co327 Co 0.69253 0.3293 0.1596 0.0
O328 O 0.75295 0.33652 0.15954 0.0
C329 C 0.67833 0.25011 0.12442 0.0
C330 C 0.6812 0.29418 0.00852 0.0
C331 C 0.77765 0.32621 0.13161 0.0
O332 O 0.69511 0.26244 0.09166 0.0
O333 O 0.67042 0.27314 0.15432 0.0
O334 O 0.72262 0.3718 0.05196 0.0
O335 O 0.68994 0.35256 0.10595 0.0
C336 C 0.28899 0.58125 0.16453 0.0
C337 C 0.28209 0.58982 0.12301 0.0
C338 C 0.26703 0.55036 0.18485 0.0
C339 C 0.23687 0.52696 0.16464 0.0
H340 H 0.31119 0.59888 0.18165 0.0
H341 H 0.27367 0.54492 0.21665 0.0
S342 S 0.20668 0.53718 0.05586 0.0
N343 N 0.24276 0.57161 0.06256 0.0
N344 N 0.20154 0.51495 0.10032 0.0
C345 C 0.22985 0.53525 0.1231 0.0
C346 C 0.25241 0.56617 0.10245 0.0
C347 C 0.58234 0.14914 0.28432 0.0
C348 C 0.58815 0.10737 0.27952 0.0
C349 C 0.55009 0.16963 0.2643 0.0
C350 C 0.52176 0.14929 0.23887 0.0
H351 H 0.60353 0.16648 0.30289 0.0
H352 H 0.54756 0.20177 0.26866 0.0
S353 S 0.52135 0.03941 0.21793 0.0
N354 N 0.56114 0.04629 0.2485 0.0
N355 N 0.50096 0.08422 0.21163 0.0
C356 C 0.52642 0.1073 0.23492 0.0
C357 C 0.55931 0.08656 0.25506 0.0
C358 C 0.76273 0.43581 0.09356 0.0
C359 C 0.72914 0.41528 0.11073 0.0
C360 C 0.78543 0.46438 0.11569 0.0
C361 C 0.77566 0.47396 0.15609 0.0
H362 H 0.7724 0.42917 0.06292 0.0
H363 H 0.81104 0.47902 0.10079 0.0
S364 S 0.68912 0.43059 0.21476 0.0
N365 N 0.6861 0.40782 0.17029 0.0
N366 N 0.72888 0.46157 0.21197 0.0
C367 C 0.74167 0.45426 0.17355 0.0
C368 C 0.71837 0.42506 0.15086 0.0
C369 C 0.47735 0.86937 0.24326 0.0
C370 C 0.47561 0.82776 0.23497 0.0
C371 C 0.44576 0.88905 0.26415 0.0
C372 C 0.41065 0.86823 0.27789 0.0
H373 H 0.50325 0.88723 0.2331 0.0
H374 H 0.44844 0.92125 0.26844 0.0
S375 S 0.39082 0.75872 0.26433 0.0
N376 N 0.4359 0.76622 0.24296 0.0
N377 N 0.37653 0.80292 0.28171 0.0
C378 C 0.40892 0.82633 0.27065 0.0
C379 C 0.4413 0.80625 0.24943 0.0
C380 C 0.25231 0.43784 0.90984 0.0
C381 C 0.27465 0.40849 0.88884 0.0
C382 C 0.23439 0.47078 0.88954 0.0
C383 C 0.23772 0.47607 0.84711 0.0
H384 H 0.2475 0.43484 0.94221 0.0
H385 H 0.21716 0.49197 0.90739 0.0
S386 S 0.29439 0.40896 0.77771 0.0
N387 N 0.30021 0.38799 0.82285 0.0
N388 N 0.26668 0.44955 0.78506 0.0
C389 C 0.26093 0.4476 0.82583 0.0
C390 C 0.2793 0.41404 0.84653 0.0
C391 C 0.47297 0.12007 0.7734 0.0
C392 C 0.47788 0.16147 0.76557 0.0
C393 C 0.44403 0.09661 0.7521 0.0
C394 C 0.41882 0.11335 0.72166 0.0
H395 H 0.49116 0.1056 0.7968 0.0
H396 H 0.44069 0.06526 0.76049 0.0
S397 S 0.42172 0.21959 0.68678 0.0
N398 N 0.45606 0.21785 0.72384 0.0
N399 N 0.40302 0.17349 0.68263 0.0
C400 C 0.42462 0.15435 0.71222 0.0
C401 C 0.45366 0.17847 0.73451 0.0
C402 C 0.72902 0.57944 0.84148 0.0
C403 C 0.72489 0.57982 0.88419 0.0
C404 C 0.74995 0.54843 0.8212 0.0
C405 C 0.76775 0.51613 0.84257 0.0
H406 H 0.7173 0.60415 0.82348 0.0
H407 H 0.75272 0.55019 0.78849 0.0
S408 S 0.76351 0.50102 0.95448 0.0
N409 N 0.73904 0.54363 0.94682 0.0
N410 N 0.77779 0.48566 0.90915 0.0
C411 C 0.7627 0.51545 0.88516 0.0
C412 C 0.74149 0.54707 0.90578 0.0
C413 C 0.57599 0.85439 0.72173 0.0
C414 C 0.5841 0.8952 0.73097 0.0
C415 C 0.54707 0.83136 0.74377 0.0
C416 C 0.52437 0.8483 0.77555 0.0
H417 H 0.5929 0.83969 0.69791 0.0
H418 H 0.54239 0.8001 0.7357 0.0
S419 S 0.53172 0.95445 0.81044 0.0
N420 N 0.56533 0.95172 0.77339 0.0
N421 N 0.51108 0.90913 0.81403 0.0
C422 C 0.53123 0.88938 0.7842 0.0
C423 C 0.56085 0.91264 0.76209 0.0
C424 C 0.15322 0.26953 0.5811 0.0
C425 C 0.11014 0.26588 0.58478 0.0
C426 C 0.17506 0.24936 0.55034 0.0
C427 C 0.15489 0.22496 0.52129 0.0
H428 H 0.17056 0.28717 0.60297 0.0
H429 H 0.20813 0.25254 0.54974 0.0
S430 S 0.04204 0.20799 0.51475 0.0
N431 N 0.04813 0.23748 0.55462 0.0
N432 N 0.08853 0.20056 0.49698 0.0
C433 C 0.11165 0.22253 0.52351 0.0
C434 C 0.08952 0.24273 0.55501 0.0
C435 C 0.88706 0.23825 0.48068 0.0
C436 C 0.84389 0.23766 0.48328 0.0
C437 C 0.90736 0.25735 0.44831 0.0
C438 C 0.88548 0.27691 0.41706 0.0
H439 H 0.90551 0.2232 0.50349 0.0
H440 H 0.94049 0.25557 0.44719 0.0
S441 S 0.77204 0.28626 0.41061 0.0
N442 N 0.78003 0.2601 0.45253 0.0
N443 N 0.81792 0.29595 0.39196 0.0
C444 C 0.84233 0.27783 0.42007 0.0
C445 C 0.82165 0.25825 0.45301 0.0
C446 C 0.88659 0.76866 0.53117 0.0
C447 C 0.84428 0.76243 0.52384 0.0
C448 C 0.90802 0.74754 0.56181 0.0
C449 C 0.88845 0.71867 0.58663 0.0
H450 H 0.90341 0.79072 0.51351 0.0
H451 H 0.94014 0.75478 0.56666 0.0
S452 S 0.7788 0.68798 0.57784 0.0
N453 N 0.78412 0.72344 0.54307 0.0
N454 N 0.82441 0.683 0.59937 0.0
C455 C 0.8465 0.7109 0.57855 0.0
C456 C 0.82447 0.73293 0.54769 0.0
C457 C 0.16266 0.73296 0.41233 0.0
C458 C 0.11955 0.72865 0.41094 0.0
C459 C 0.18267 0.75231 0.44508 0.0
C460 C 0.16028 0.76847 0.47743 0.0
H461 H 0.18106 0.72278 0.38719 0.0
H462 H 0.21573 0.75574 0.4444 0.0
S463 S 0.04736 0.76042 0.4911 0.0
N464 N 0.0557 0.73872 0.44696 0.0
N465 N 0.09287 0.77514 0.50791 0.0
C466 C 0.11737 0.76261 0.47728 0.0
C467 C 0.09714 0.74268 0.44426 0.0
C468 C 0.76527 0.05103 0.68028 0.0
C469 C 0.73387 0.02822 0.66121 0.0
C470 C 0.78654 0.08207 0.65941 0.0
C471 C 0.77767 0.09141 0.6184 0.0
H472 H 0.77354 0.0449 0.71159 0.0
H473 H 0.80984 0.09912 0.67567 0.0
S474 S 0.69774 0.04118 0.5545 0.0
N475 N 0.6948 0.01808 0.59872 0.0
N476 N 0.73468 0.07495 0.55988 0.0
C477 C 0.74652 0.06855 0.59905 0.0
C478 C 0.72468 0.0375 0.62029 0.0
C479 C 0.05063 0.6724 0.76625 0.0
C480 C 0.02553 0.65302 0.73696 0.0
C481 C 0.08139 0.65142 0.7882 0.0
C482 C 0.08866 0.61007 0.78183 0.0
H483 H 0.04648 0.70406 0.77241 0.0
H484 H 0.10016 0.66799 0.80978 0.0
S485 S 0.03111 0.54493 0.70897 0.0
N486 N 0.01015 0.58954 0.70341 0.0
N487 N 0.06697 0.55065 0.74414 0.0
C488 C 0.06322 0.59033 0.75309 0.0
C489 C 0.03213 0.61158 0.73081 0.0
C490 C 0.23992 0.95542 0.6708 0.0
C491 C 0.2762 0.97324 0.65599 0.0
C492 C 0.21748 0.92715 0.64749 0.0
C493 C 0.23037 0.91565 0.60842 0.0
H494 H 0.22842 0.9638 0.70033 0.0
H495 H 0.19007 0.91386 0.66038 0.0
S496 S 0.32421 0.95273 0.55634 0.0
N497 N 0.32445 0.97656 0.6002 0.0
N498 N 0.28249 0.92432 0.5565 0.0
C499 C 0.26662 0.93344 0.59337 0.0
C500 C 0.28947 0.96187 0.61713 0.0
C501 C 0.94128 0.31187 0.75042 0.0
C502 C 0.97569 0.3324 0.7346 0.0
C503 C 0.9093 0.33258 0.76996 0.0
C504 C 0.91039 0.37476 0.77509 0.0
H505 H 0.93841 0.27963 0.7467 0.0
H506 H 0.88282 0.31542 0.77986 0.0
S507 S 0.99557 0.44235 0.743 0.0
N508 N 0.00999 0.39733 0.72818 0.0
N509 N 0.95066 0.43573 0.76488 0.0
C510 C 0.94552 0.39532 0.76099 0.0
C511 C 0.97785 0.37436 0.74084 0.0
C512 C 0.75659 0.93961 0.40634 0.0
C513 C 0.77904 0.91016 0.38557 0.0
C514 C 0.73795 0.97193 0.38566 0.0
C515 C 0.74056 0.97637 0.34308 0.0
H516 H 0.7522 0.93707 0.43881 0.0
H517 H 0.7206 0.99321 0.40329 0.0
S518 S 0.7975 0.90892 0.27421 0.0
N519 N 0.80421 0.8889 0.31967 0.0
N520 N 0.76921 0.94919 0.28117 0.0
C521 C 0.764 0.94791 0.32205 0.0
C522 C 0.78316 0.91505 0.34313 0.0
C523 C 0.94684 0.59333 0.25381 0.0
C524 C 0.92433 0.60956 0.22109 0.0
C525 C 0.97493 0.61685 0.2762 0.0
C526 C 0.98137 0.65788 0.26739 0.0
H527 H 0.94209 0.56236 0.26299 0.0
H528 H 0.99131 0.60276 0.30112 0.0
S529 S 0.93256 0.71444 0.18284 0.0
N530 N 0.91329 0.66857 0.17878 0.0
N531 N 0.96368 0.71332 0.22258 0.0
C532 C 0.95959 0.67438 0.23436 0.0
C533 C 0.9319 0.65007 0.2107 0.0
C534 C 0.2517 0.04342 0.3264 0.0
C535 C 0.27203 0.01289 0.34823 0.0
C536 C 0.23151 0.0751 0.34633 0.0
C537 C 0.23059 0.07793 0.38914 0.0
H538 H 0.25199 0.04336 0.29352 0.0
H539 H 0.21772 0.09837 0.32782 0.0
S540 S 0.27686 0.00442 0.46081 0.0
N541 N 0.28803 0.98668 0.41549 0.0
N542 N 0.25052 0.04584 0.45258 0.0
C543 C 0.24961 0.04683 0.41133 0.0
C544 C 0.27011 0.01453 0.39104 0.0
C545 C 0.07577 0.35485 0.22117 0.0
C546 C 0.08512 0.39502 0.23194 0.0
C547 C 0.04617 0.33189 0.2424 0.0
C548 C 0.02432 0.34826 0.27509 0.0
H549 H 0.0922 0.34057 0.19675 0.0
H550 H 0.04045 0.30112 0.23316 0.0
S551 S 0.03531 0.45254 0.31436 0.0
N552 N 0.06844 0.45035 0.27685 0.0
N553 N 0.01329 0.40774 0.31625 0.0
C554 C 0.03252 0.3887 0.28536 0.0
C555 C 0.06263 0.41192 0.26394 0.0
C556 C 0.61398 0.72123 0.0269 0.0
C557 C 0.65647 0.72698 0.02084 0.0
C558 C 0.59247 0.74222 0.05715 0.0
C559 C 0.61209 0.77055 0.08278 0.0
H560 H 0.59712 0.69955 0.00866 0.0
H561 H 0.56024 0.73523 0.06111 0.0
S562 S 0.72208 0.80038 0.07682 0.0
N563 N 0.71678 0.76525 0.04177 0.0
N564 N 0.67633 0.8056 0.09721 0.0
C565 C 0.65418 0.77807 0.07572 0.0
C566 C 0.6763 0.75608 0.04533 0.0
C567 C 0.33093 0.7568 0.96044 0.0
C568 C 0.35318 0.73576 0.9904 0.0
C569 C 0.35077 0.77604 0.92785 0.0
C570 C 0.39379 0.77527 0.92377 0.0
H571 H 0.29776 0.75777 0.96161 0.0
H572 H 0.33194 0.7904 0.90488 0.0
S573 S 0.46677 0.72737 0.99593 0.0
N574 N 0.42115 0.71765 0.01516 0.0
N575 N 0.45816 0.75371 0.95424 0.0
C576 C 0.41655 0.7558 0.95447 0.0
C577 C 0.39635 0.73609 0.9876 0.0
C578 C 0.32128 0.23539 0.05356 0.0
C579 C 0.34208 0.26134 0.02651 0.0
C580 C 0.34247 0.21366 0.08422 0.0
C581 C 0.38546 0.21704 0.08957 0.0
H582 H 0.28827 0.23206 0.05133 0.0
H583 H 0.32477 0.19489 0.10463 0.0
S584 S 0.45493 0.27893 0.02529 0.0
N585 N 0.40884 0.28733 0.00628 0.0
N586 N 0.44801 0.24719 0.06319 0.0
C587 C 0.40663 0.24191 0.06183 0.0
C588 C 0.38518 0.26387 0.03071 0.0
C589 C 0.67832 0.24745 0.94801 0.0
C590 C 0.6589 0.27509 0.97368 0.0
C591 C 0.65673 0.22837 0.91602 0.0
C592 C 0.61476 0.23583 0.90874 0.0
H593 H 0.71048 0.2407 0.95239 0.0
H594 H 0.67333 0.20833 0.89631 0.0
S595 S 0.54937 0.30523 0.96767 0.0
N596 N 0.59491 0.30865 0.98955 0.0
N597 N 0.55461 0.27246 0.93065 0.0
C598 C 0.59485 0.2627 0.93487 0.0
C599 C 0.61684 0.28244 0.9669 0.0
C600 C 0.217 0.35628 0.33859 0.0
C601 C 0.18155 0.35013 0.31485 0.0
C602 C 0.2244 0.33252 0.37318 0.0
C603 C 0.19672 0.30179 0.38472 0.0
H604 H 0.24056 0.3772 0.3287 0.0
H605 H 0.25335 0.33629 0.38917 0.0
S606 S 0.09564 0.27966 0.33749 0.0
N607 N 0.11552 0.31577 0.30914 0.0
N608 N 0.13001 0.27074 0.37342 0.0
C609 C 0.15964 0.29791 0.36333 0.0
C610 C 0.15187 0.32229 0.32861 0.0
C611 C 0.86615 0.15459 0.26664 0.0
C612 C 0.88736 0.17047 0.30043 0.0
C613 C 0.82659 0.13784 0.27084 0.0
C614 C 0.80712 0.13665 0.30886 0.0
H615 H 0.87837 0.15862 0.2364 0.0
H616 H 0.80988 0.12876 0.24373 0.0
S617 S 0.85301 0.16593 0.40749 0.0
N618 N 0.88859 0.17759 0.37392 0.0
N619 N 0.81407 0.14683 0.38134 0.0
C620 C 0.82945 0.1488 0.34318 0.0
C621 C 0.86973 0.16536 0.33907 0.0
C622 C 0.85478 0.67652 0.3225 0.0
C623 C 0.82867 0.64517 0.30912 0.0
C624 C 0.84686 0.69757 0.35823 0.0
C625 C 0.81277 0.68782 0.38223 0.0
H626 H 0.88015 0.68659 0.30385 0.0
H627 H 0.86628 0.7231 0.36589 0.0
S628 S 0.73837 0.60444 0.36353 0.0
N629 N 0.77007 0.6025 0.32475 0.0
N630 N 0.75528 0.64163 0.39248 0.0
C631 C 0.7887 0.654 0.37127 0.0
C632 C 0.79668 0.63269 0.33457 0.0
C633 C 0.1835 0.85808 0.3142 0.0
C634 C 0.18034 0.89445 0.29271 0.0
C635 C 0.15124 0.83002 0.31433 0.0
C636 C 0.11438 0.83678 0.29258 0.0
H637 H 0.21175 0.85034 0.3298 0.0
H638 H 0.15625 0.80193 0.33024 0.0
S639 S 0.08788 0.92993 0.23645 0.0
N640 N 0.13514 0.93789 0.25307 0.0
N641 N 0.07492 0.88475 0.25295 0.0
C642 C 0.1096 0.87423 0.27341 0.0
C643 C 0.1424 0.90312 0.27356 0.0
C644 C 0.13369 0.65925 0.67772 0.0
C645 C 0.1714 0.64136 0.68812 0.0
C646 C 0.13256 0.69466 0.65469 0.0
C647 C 0.16881 0.71142 0.63928 0.0
H648 H 0.10599 0.64996 0.69317 0.0
H649 H 0.10397 0.71087 0.65219 0.0
S650 S 0.27322 0.66887 0.64755 0.0
N651 N 0.24414 0.63793 0.67435 0.0
N652 N 0.24191 0.70291 0.6284 0.0
C653 C 0.20537 0.6895 0.64301 0.0
C654 C 0.20661 0.65422 0.66762 0.0
C655 C 0.18279 0.12914 0.71017 0.0
C656 C 0.20362 0.1217 0.6738 0.0
C657 C 0.14534 0.14952 0.70962 0.0
C658 C 0.12919 0.16406 0.67278 0.0
H659 H 0.19782 0.12389 0.73916 0.0
H660 H 0.13367 0.16059 0.73819 0.0
S661 S 0.16289 0.13549 0.56991 0.0
N662 N 0.19904 0.11803 0.60046 0.0
N663 N 0.12834 0.15632 0.59951 0.0
C664 C 0.1449 0.14834 0.63658 0.0
C665 C 0.18311 0.12802 0.637 0.0
C666 C 0.77141 0.32462 0.63919 0.0
C667 C 0.81005 0.30612 0.63859 0.0
C668 C 0.76737 0.36493 0.65111 0.0
C669 C 0.80194 0.38788 0.66266 0.0
H670 H 0.74387 0.30696 0.63337 0.0
H671 H 0.73684 0.37665 0.65556 0.0
S672 S 0.91033 0.35599 0.65632 0.0
N673 N 0.88372 0.3154 0.64344 0.0
N674 N 0.87636 0.39125 0.66574 0.0
C675 C 0.84095 0.37087 0.6576 0.0
C676 C 0.84499 0.32983 0.64582 0.0
C677 C 0.84057 0.82289 0.63252 0.0
C678 C 0.85975 0.81275 0.66963 0.0
C679 C 0.80626 0.84789 0.63158 0.0
C680 C 0.79163 0.86507 0.66741 0.0
H681 H 0.84778 0.80632 0.60527 0.0
H682 H 0.78873 0.85038 0.60359 0.0
S683 S 0.8385 0.85703 0.77002 0.0
N684 N 0.86695 0.82794 0.74125 0.0
N685 N 0.80394 0.87713 0.73933 0.0
C686 C 0.81513 0.86099 0.70323 0.0
C687 C 0.84935 0.83454 0.70431 0.0
C688 C 0.34777 0.23107 0.36474 0.0
C689 C 0.3351 0.19753 0.38766 0.0
C690 C 0.36236 0.22638 0.32498 0.0
C691 C 0.36459 0.18809 0.30703 0.0
H692 H 0.34246 0.26119 0.37587 0.0
H693 H 0.3688 0.25304 0.30707 0.0
S694 S 0.34429 0.09067 0.35744 0.0
N695 N 0.33257 0.12458 0.39194 0.0
N696 N 0.3595 0.11608 0.31704 0.0
C697 C 0.35604 0.1543 0.33093 0.0
C698 C 0.34161 0.15898 0.37142 0.0
C699 C 0.88046 0.28438 0.15965 0.0
C700 C 0.89244 0.31068 0.1912 0.0
C701 C 0.84515 0.29184 0.13621 0.0
C702 C 0.82125 0.32589 0.14366 0.0
H703 H 0.89617 0.25614 0.15553 0.0
H704 H 0.83445 0.26901 0.11512 0.0
S705 S 0.84567 0.40849 0.21576 0.0
N706 N 0.88216 0.37521 0.22356 0.0
N707 N 0.81632 0.38961 0.17928 0.0
C708 C 0.83601 0.35466 0.1716 0.0
C709 C 0.87148 0.3469 0.19559 0.0
C710 C 0.63648 0.7634 0.31899 0.0
C711 C 0.63631 0.80104 0.29931 0.0
C712 C 0.65396 0.75893 0.35796 0.0
C713 C 0.6716 0.79204 0.37836 0.0
H714 H 0.62619 0.73675 0.30286 0.0
H715 H 0.65702 0.72891 0.37042 0.0
S716 S 0.66974 0.89809 0.34334 0.0
N717 N 0.64905 0.87256 0.30532 0.0
N718 N 0.68108 0.86464 0.37876 0.0
C719 C 0.66746 0.83037 0.36056 0.0
C720 C 0.65014 0.83474 0.32089 0.0
C721 C 0.15847 0.70862 0.1327 0.0
C722 C 0.18115 0.67388 0.14118 0.0
C723 C 0.12266 0.71672 0.15437 0.0
C724 C 0.10908 0.69036 0.18505 0.0
H725 H 0.17089 0.73177 0.113 0.0
H726 H 0.10825 0.74568 0.15017 0.0
S727 S 0.15124 0.59027 0.20972 0.0
N728 N 0.1825 0.60894 0.17512 0.0
N729 N 0.11568 0.62463 0.21644 0.0
C730 C 0.12825 0.65312 0.1895 0.0
C731 C 0.16419 0.64467 0.16715 0.0
C732 C 0.37457 0.78415 0.6659 0.0
C733 C 0.38674 0.81005 0.69772 0.0
C734 C 0.33895 0.79164 0.64296 0.0
C735 C 0.3148 0.82534 0.65116 0.0
H736 H 0.39072 0.7563 0.66084 0.0
H737 H 0.32853 0.76927 0.62125 0.0
S738 S 0.33905 0.90681 0.72473 0.0
N739 N 0.37593 0.87374 0.73157 0.0
N740 N 0.30946 0.88824 0.68829 0.0
C741 C 0.32931 0.85355 0.67985 0.0
C742 C 0.36516 0.84576 0.7033 0.0
C743 C 0.15049 0.25462 0.86201 0.0
C744 C 0.16809 0.2882 0.88164 0.0
C745 C 0.13379 0.25801 0.82259 0.0
C746 C 0.13432 0.295 0.80171 0.0
H747 H 0.15305 0.22499 0.87548 0.0
H748 H 0.12348 0.23098 0.80716 0.0
S749 S 0.1683 0.3931 0.84294 0.0
N750 N 0.1784 0.36073 0.87973 0.0
N751 N 0.14791 0.36654 0.80547 0.0
C752 C 0.14812 0.32926 0.82239 0.0
C753 C 0.16462 0.32602 0.86251 0.0
C754 C 0.65456 0.20849 0.63048 0.0
C755 C 0.67842 0.17488 0.64034 0.0
C756 C 0.61863 0.2164 0.652 0.0
C757 C 0.60609 0.19098 0.68389 0.0
H758 H 0.66601 0.23106 0.60957 0.0
H759 H 0.60324 0.24467 0.64659 0.0
S760 S 0.65156 0.09335 0.71258 0.0
N761 N 0.68207 0.11151 0.67706 0.0
N762 N 0.61497 0.12688 0.71805 0.0
C763 C 0.62651 0.1546 0.68988 0.0
C764 C 0.66262 0.14633 0.66774 0.0
C765 C 0.84364 0.64945 0.82099 0.0
C766 C 0.86558 0.6809 0.80257 0.0
C767 C 0.82744 0.65383 0.85997 0.0
C768 C 0.83136 0.69033 0.88159 0.0
H769 H 0.83689 0.62213 0.80425 0.0
H770 H 0.8086 0.62954 0.87179 0.0
S771 S 0.88988 0.78032 0.84813 0.0
N772 N 0.89444 0.74813 0.81033 0.0
N773 N 0.86243 0.75696 0.88308 0.0
C774 C 0.85628 0.72074 0.86494 0.0
C775 C 0.87358 0.71593 0.82541 0.0
C776 C 0.30858 0.34884 0.133 0.0
C777 C 0.29336 0.36535 0.16893 0.0
C778 C 0.34357 0.32471 0.13391 0.0
C779 C 0.36245 0.31437 0.17112 0.0
H780 H 0.29115 0.35123 0.10494 0.0
H781 H 0.35128 0.30848 0.10657 0.0
S782 S 0.33997 0.35766 0.27167 0.0
N783 N 0.30516 0.37728 0.24095 0.0
N784 N 0.36916 0.3294 0.2428 0.0
C785 C 0.35163 0.33594 0.20581 0.0
C786 C 0.31685 0.36164 0.20478 0.0
C787 C 0.36472 0.65494 0.77171 0.0
C788 C 0.38716 0.67048 0.80491 0.0
C789 C 0.3253 0.63821 0.77709 0.0
C790 C 0.30712 0.63671 0.81575 0.0
H791 H 0.37589 0.65919 0.74108 0.0
H792 H 0.30766 0.62945 0.75046 0.0
S793 S 0.35662 0.66481 0.91309 0.0
N794 N 0.391 0.67677 0.87841 0.0
N795 N 0.31671 0.64614 0.88808 0.0
C796 C 0.33068 0.64851 0.84941 0.0
C797 C 0.37086 0.66503 0.84409 0.0
C798 C 0.28564 0.1525 0.87665 0.0
C799 C 0.31113 0.18508 0.8883 0.0
C800 C 0.29341 0.13053 0.84118 0.0
C801 C 0.32704 0.1404 0.81664 0.0
H802 H 0.25758 0.14617 0.89296 0.0
H803 H 0.27099 0.10842 0.83106 0.0
S804 S 0.40826 0.21619 0.83938 0.0
N805 N 0.37498 0.22119 0.87652 0.0
N806 N 0.39 0.17964 0.81041 0.0
C807 C 0.35526 0.16961 0.83073 0.0
C808 C 0.34716 0.19213 0.86642 0.0
C809 C 0.61255 0.37113 0.75926 0.0
C810 C 0.61139 0.34013 0.78825 0.0
C811 C 0.64534 0.39865 0.75816 0.0
C812 C 0.67848 0.39614 0.7859 0.0
H813 H 0.58912 0.37297 0.73577 0.0
H814 H 0.64571 0.4207 0.73396 0.0
S815 S 0.68658 0.32556 0.87261 0.0
N816 N 0.64353 0.31238 0.84925 0.0
N817 N 0.70544 0.36365 0.84634 0.0
C818 C 0.67633 0.36718 0.81675 0.0
C819 C 0.64274 0.33936 0.81825 0.0
C820 C 0.66093 0.79851 0.86061 0.0
C821 C 0.69681 0.80372 0.88386 0.0
C822 C 0.6534 0.82242 0.82645 0.0
C823 C 0.68181 0.85202 0.81376 0.0
H824 H 0.63947 0.77448 0.86767 0.0
H825 H 0.62631 0.81584 0.80824 0.0
S826 S 0.77806 0.88095 0.86698 0.0
N827 N 0.75898 0.84376 0.89448 0.0
N828 N 0.74497 0.8881 0.82947 0.0
C829 C 0.71604 0.85993 0.83861 0.0
C830 C 0.72358 0.83579 0.87382 0.0
C831 C 0.66079 0.66519 0.12624 0.0
C832 C 0.64161 0.67421 0.16327 0.0
C833 C 0.69724 0.64333 0.12572 0.0
C834 C 0.71367 0.62777 0.16186 0.0
H835 H 0.65194 0.68108 0.09887 0.0
H836 H 0.71467 0.64221 0.09788 0.0
S837 S 0.667 0.63158 0.26398 0.0
N838 N 0.63595 0.65822 0.23481 0.0
N839 N 0.70295 0.61443 0.23367 0.0
C840 C 0.69013 0.62962 0.19741 0.0
C841 C 0.65377 0.65305 0.19805 0.0
C842 C 0.26839 0.86235 0.15803 0.0
C843 C 0.30295 0.88613 0.1677 0.0
C844 C 0.27271 0.82196 0.14662 0.0
C845 C 0.31165 0.80428 0.14451 0.0
H846 H 0.23786 0.87354 0.16371 0.0
H847 H 0.24532 0.8037 0.14227 0.0
S848 S 0.41157 0.85619 0.1573 0.0
N849 N 0.37733 0.89094 0.16768 0.0
N850 N 0.38526 0.81497 0.14601 0.0
C851 C 0.3464 0.82872 0.14979 0.0
C852 C 0.34204 0.86981 0.1612 0.0
C853 C 0.71309 0.18645 0.14054 0.0
C854 C 0.67637 0.20668 0.1318 0.0
C855 C 0.71271 0.15092 0.16354 0.0
C856 C 0.67564 0.13552 0.17883 0.0
H857 H 0.74237 0.20069 0.13408 0.0
H858 H 0.74168 0.13977 0.17513 0.0
S859 S 0.57134 0.16926 0.15056 0.0
N860 N 0.60219 0.20315 0.13003 0.0
N861 N 0.60138 0.13591 0.17287 0.0
C862 C 0.63882 0.15107 0.16308 0.0
C863 C 0.63917 0.18743 0.14021 0.0
loop_
_geom_bond_atom_site_label_1
_geom_bond_atom_site_label_2
_geom_bond_distance
_geom_bond_site_symmetry_2
_ccdc_geom_bond_type
Co0 O1 2.216 . S
Co0 O2 2.091 . S
Co0 O4 2.004 . S
Co0 O10 2.021 . S
Co0 O12 2.137 . S
Co0 O13 2.244 . S
O1 Co0 2.216 . S
O1 C8 1.247 . S
O2 Co0 2.091 . S
O2 C8 1.261 . S
C3 O12 1.247 . S
C3 O13 1.272 . S
O4 Co0 2.004 . S
O4 C9 1.259 . S
Co5 O6 2.061 . S
Co5 O11 2.052 . S
Co5 O13 2.135 . S
O6 Co5 2.061 . S
O6 C9 1.235 . S
C7 O10 1.238 . S
C7 O11 1.241 . S
C8 O1 1.247 . S
C8 O2 1.261 . S
C9 O4 1.259 . S
C9 O6 1.235 . S
O10 Co0 2.021 . S
O10 C7 1.238 . S
O11 Co5 2.052 . S
O11 C7 1.241 . S
O12 Co0 2.137 . S
O12 C3 1.247 . S
O13 Co0 2.244 . S
O13 C3 1.272 . S
O13 Co5 2.135 . S
Co14 O15 2.216 . S
Co14 O16 2.091 . S
Co14 O18 2.004 . S
Co14 O24 2.021 . S
Co14 O26 2.137 . S
Co14 O27 2.244 . S
O15 Co14 2.216 . S
O15 C22 1.247 . S
O16 Co14 2.091 . S
O16 C22 1.261 . S
C17 O26 1.247 . S
C17 O27 1.272 . S
O18 Co14 2.004 . S
O18 C23 1.259 . S
Co19 O20 2.061 . S
Co19 O25 2.052 . S
Co19 O27 2.135 . S
O20 Co19 2.061 . S
O20 C23 1.235 . S
C21 O24 1.238 . S
C21 O25 1.241 . S
C22 O15 1.247 . S
C22 O16 1.261 . S
C23 O18 1.259 . S
C23 O20 1.235 . S
O24 Co14 2.021 . S
O24 C21 1.238 . S
O25 Co19 2.052 . S
O25 C21 1.241 . S
O26 Co14 2.137 . S
O26 C17 1.247 . S
O27 Co14 2.244 . S
O27 C17 1.272 . S
O27 Co19 2.135 . S
Co28 O29 2.216 . S
Co28 O30 2.091 . S
Co28 O32 2.004 . S
Co28 O38 2.021 . S
Co28 O40 2.137 . S
Co28 O41 2.244 . S
O29 Co28 2.216 . S
O29 C36 1.247 . S
O30 Co28 2.091 . S
O30 C36 1.261 . S
C31 O40 1.247 . S
C31 O41 1.272 . S
O32 Co28 2.004 . S
O32 C37 1.259 . S
Co33 O34 2.061 . S
Co33 O39 2.052 . S
Co33 O41 2.135 . S
O34 Co33 2.061 . S
O34 C37 1.235 . S
C35 O38 1.238 . S
C35 O39 1.241 . S
C36 O29 1.247 . S
C36 O30 1.261 . S
C37 O32 1.259 . S
C37 O34 1.235 . S
O38 Co28 2.021 . S
O38 C35 1.238 . S
O39 Co33 2.052 . S
O39 C35 1.241 . S
O40 Co28 2.137 . S
O40 C31 1.247 . S
O41 Co28 2.244 . S
O41 C31 1.272 . S
O41 Co33 2.135 . S
Co42 O43 2.216 . S
Co42 O44 2.091 . S
Co42 O46 2.004 . S
Co42 O52 2.021 . S
Co42 O54 2.137 . S
Co42 O55 2.244 . S
O43 Co42 2.216 . S
O43 C50 1.247 . S
O44 Co42 2.091 . S
O44 C50 1.261 . S
C45 O54 1.247 . S
C45 O55 1.272 . S
O46 Co42 2.004 . S
O46 C51 1.259 . S
Co47 O48 2.061 . S
Co47 O53 2.052 . S
Co47 O55 2.135 . S
O48 Co47 2.061 . S
O48 C51 1.235 . S
C49 O52 1.238 . S
C49 O53 1.241 . S
C50 O43 1.247 . S
C50 O44 1.261 . S
C51 O46 1.259 . S
C51 O48 1.235 . S
O52 Co42 2.021 . S
O52 C49 1.238 . S
O53 Co47 2.052 . S
O53 C49 1.241 . S
O54 Co42 2.137 . S
O54 C45 1.247 . S
O55 Co42 2.244 . S
O55 C45 1.272 . S
O55 Co47 2.135 . S
Co56 O57 2.216 . S
Co56 O58 2.091 . S
Co56 O60 2.004 . S
Co56 O66 2.021 . S
Co56 O68 2.137 . S
Co56 O69 2.244 . S
O57 Co56 2.216 . S
O57 C64 1.247 . S
O58 Co56 2.091 . S
O58 C64 1.261 . S
C59 O68 1.247 . S
C59 O69 1.272 . S
O60 Co56 2.004 . S
O60 C65 1.259 . S
Co61 O62 2.061 . S
Co61 O67 2.052 . S
Co61 O69 2.135 . S
O62 Co61 2.061 . S
O62 C65 1.235 . S
C63 O66 1.238 . S
C63 O67 1.241 . S
C64 O57 1.247 . S
C64 O58 1.261 . S
C65 O60 1.259 . S
C65 O62 1.235 . S
O66 Co56 2.021 . S
O66 C63 1.238 . S
O67 Co61 2.052 . S
O67 C63 1.241 . S
O68 Co56 2.137 . S
O68 C59 1.247 . S
O69 Co56 2.244 . S
O69 C59 1.272 . S
O69 Co61 2.135 . S
Co70 O71 2.216 . S
Co70 O72 2.091 . S
Co70 O74 2.004 . S
Co70 O80 2.021 . S
Co70 O82 2.137 . S
Co70 O83 2.244 . S
O71 Co70 2.216 . S
O71 C78 1.247 . S
O72 Co70 2.091 . S
O72 C78 1.261 . S
C73 O82 1.247 . S
C73 O83 1.272 . S
O74 Co70 2.004 . S
O74 C79 1.259 . S
Co75 O76 2.061 . S
Co75 O81 2.052 . S
Co75 O83 2.135 . S
O76 Co75 2.061 . S
O76 C79 1.235 . S
C77 O80 1.238 . S
C77 O81 1.241 . S
C78 O71 1.247 . S
C78 O72 1.261 . S
C79 O74 1.259 . S
C79 O76 1.235 . S
O80 Co70 2.021 . S
O80 C77 1.238 . S
O81 Co75 2.052 . S
O81 C77 1.241 . S
O82 Co70 2.137 . S
O82 C73 1.247 . S
O83 Co70 2.244 . S
O83 C73 1.272 . S
O83 Co75 2.135 . S
Co84 O85 2.216 . S
Co84 O86 2.091 . S
Co84 O88 2.004 . S
Co84 O94 2.021 . S
Co84 O96 2.137 . S
Co84 O97 2.244 . S
O85 Co84 2.216 . S
O85 C92 1.247 . S
O86 Co84 2.091 . S
O86 C92 1.261 . S
C87 O96 1.247 . S
C87 O97 1.272 . S
O88 Co84 2.004 . S
O88 C93 1.259 . S
Co89 O90 2.061 . S
Co89 O95 2.052 . S
Co89 O97 2.135 . S
O90 Co89 2.061 . S
O90 C93 1.235 . S
C91 O94 1.238 . S
C91 O95 1.241 . S
C92 O85 1.247 . S
C92 O86 1.261 . S
C93 O88 1.259 . S
C93 O90 1.235 . S
O94 Co84 2.021 . S
O94 C91 1.238 . S
O95 Co89 2.052 . S
O95 C91 1.241 . S
O96 Co84 2.137 . S
O96 C87 1.247 . S
O97 Co84 2.244 . S
O97 C87 1.272 . S
O97 Co89 2.135 . S
Co98 O99 2.216 . S
Co98 O100 2.091 . S
Co98 O102 2.004 . S
Co98 O108 2.021 . S
Co98 O110 2.137 . S
Co98 O111 2.244 . S
O99 Co98 2.216 . S
O99 C106 1.247 . S
O100 Co98 2.091 . S
O100 C106 1.261 . S
C101 O110 1.247 . S
C101 O111 1.272 . S
O102 Co98 2.004 . S
O102 C107 1.259 . S
Co103 O104 2.061 . S
Co103 O109 2.052 . S
Co103 O111 2.135 . S
O104 Co103 2.061 . S
O104 C107 1.235 . S
C105 O108 1.238 . S
C105 O109 1.241 . S
C106 O99 1.247 . S
C106 O100 1.261 . S
C107 O102 1.259 . S
C107 O104 1.235 . S
O108 Co98 2.021 . S
O108 C105 1.238 . S
O109 Co103 2.052 . S
O109 C105 1.241 . S
O110 Co98 2.137 . S
O110 C101 1.247 . S
O111 Co98 2.244 . S
O111 C101 1.272 . S
O111 Co103 2.135 . S
Co112 O113 2.216 . S
Co112 O114 2.091 . S
Co112 O116 2.004 . S
Co112 O122 2.021 . S
Co112 O124 2.137 . S
Co112 O125 2.244 . S
O113 Co112 2.216 . S
O113 C120 1.247 . S
O114 Co112 2.091 . S
O114 C120 1.261 . S
C115 O124 1.247 . S
C115 O125 1.272 . S
O116 Co112 2.004 . S
O116 C121 1.259 . S
Co117 O118 2.061 . S
Co117 O123 2.052 . S
Co117 O125 2.135 . S
O118 Co117 2.061 . S
O118 C121 1.235 . S
C119 O122 1.238 . S
C119 O123 1.241 . S
C120 O113 1.247 . S
C120 O114 1.261 . S
C121 O116 1.259 . S
C121 O118 1.235 . S
O122 Co112 2.021 . S
O122 C119 1.238 . S
O123 Co117 2.052 . S
O123 C119 1.241 . S
O124 Co112 2.137 . S
O124 C115 1.247 . S
O125 Co112 2.244 . S
O125 C115 1.272 . S
O125 Co117 2.135 . S
Co126 O127 2.216 . S
Co126 O128 2.091 . S
Co126 O130 2.004 . S
Co126 O136 2.021 . S
Co126 O138 2.137 . S
Co126 O139 2.244 . S
O127 Co126 2.216 . S
O127 C134 1.247 . S
O128 Co126 2.091 . S
O128 C134 1.261 . S
C129 O138 1.247 . S
C129 O139 1.272 . S
O130 Co126 2.004 . S
O130 C135 1.259 . S
Co131 O132 2.061 . S
Co131 O137 2.052 . S
Co131 O139 2.135 . S
O132 Co131 2.061 . S
O132 C135 1.235 . S
C133 O136 1.238 . S
C133 O137 1.241 . S
C134 O127 1.247 . S
C134 O128 1.261 . S
C135 O130 1.259 . S
C135 O132 1.235 . S
O136 Co126 2.021 . S
O136 C133 1.238 . S
O137 Co131 2.052 . S
O137 C133 1.241 . S
O138 Co126 2.137 . S
O138 C129 1.247 . S
O139 Co126 2.244 . S
O139 C129 1.272 . S
O139 Co131 2.135 . S
Co140 O141 2.216 . S
Co140 O142 2.091 . S
Co140 O144 2.004 . S
Co140 O150 2.021 . S
Co140 O152 2.137 . S
Co140 O153 2.244 . S
O141 Co140 2.216 . S
O141 C148 1.247 . S
O142 Co140 2.091 . S
O142 C148 1.261 . S
C143 O152 1.247 . S
C143 O153 1.272 . S
O144 Co140 2.004 . S
O144 C149 1.259 . S
Co145 O146 2.061 . S
Co145 O151 2.052 . S
Co145 O153 2.135 . S
O146 Co145 2.061 . S
O146 C149 1.235 . S
C147 O150 1.238 . S
C147 O151 1.241 . S
C148 O141 1.247 . S
C148 O142 1.261 . S
C149 O144 1.259 . S
C149 O146 1.235 . S
O150 Co140 2.021 . S
O150 C147 1.238 . S
O151 Co145 2.052 . S
O151 C147 1.241 . S
O152 Co140 2.137 . S
O152 C143 1.247 . S
O153 Co140 2.244 . S
O153 C143 1.272 . S
O153 Co145 2.135 . S
Co154 O155 2.216 . S
Co154 O156 2.091 . S
Co154 O158 2.004 . S
Co154 O164 2.021 . S
Co154 O166 2.137 . S
Co154 O167 2.244 . S
O155 Co154 2.216 . S
O155 C162 1.247 . S
O156 Co154 2.091 . S
O156 C162 1.261 . S
C157 O166 1.247 . S
C157 O167 1.272 . S
O158 Co154 2.004 . S
O158 C163 1.259 . S
Co159 O160 2.061 . S
Co159 O165 2.052 . S
Co159 O167 2.135 . S
O160 Co159 2.061 . S
O160 C163 1.235 . S
C161 O164 1.238 . S
C161 O165 1.241 . S
C162 O155 1.247 . S
C162 O156 1.261 . S
C163 O158 1.259 . S
C163 O160 1.235 . S
O164 Co154 2.021 . S
O164 C161 1.238 . S
O165 Co159 2.052 . S
O165 C161 1.241 . S
O166 Co154 2.137 . S
O166 C157 1.247 . S
O167 Co154 2.244 . S
O167 C157 1.272 . S
O167 Co159 2.135 . S
Co168 O169 2.216 . S
Co168 O170 2.091 . S
Co168 O172 2.004 . S
Co168 O178 2.021 . S
Co168 O180 2.137 . S
Co168 O181 2.244 . S
O169 Co168 2.216 . S
O169 C176 1.247 . S
O170 Co168 2.091 . S
O170 C176 1.261 . S
C171 O180 1.247 . S
C171 O181 1.272 . S
O172 Co168 2.004 . S
O172 C177 1.259 . S
Co173 O174 2.061 . S
Co173 O179 2.052 . S
Co173 O181 2.135 . S
O174 Co173 2.061 . S
O174 C177 1.235 . S
C175 O178 1.238 . S
C175 O179 1.241 . S
C176 O169 1.247 . S
C176 O170 1.261 . S
C177 O172 1.259 . S
C177 O174 1.235 . S
O178 Co168 2.021 . S
O178 C175 1.238 . S
O179 Co173 2.052 . S
O179 C175 1.241 . S
O180 Co168 2.137 . S
O180 C171 1.247 . S
O181 Co168 2.244 . S
O181 C171 1.272 . S
O181 Co173 2.135 . S
Co182 O183 2.216 . S
Co182 O184 2.091 . S
Co182 O186 2.004 . S
Co182 O192 2.021 . S
Co182 O194 2.137 . S
Co182 O195 2.244 . S
O183 Co182 2.216 . S
O183 C190 1.247 . S
O184 Co182 2.091 . S
O184 C190 1.261 . S
C185 O194 1.247 . S
C185 O195 1.272 . S
O186 Co182 2.004 . S
O186 C191 1.259 . S
Co187 O188 2.061 . S
Co187 O193 2.052 . S
Co187 O195 2.135 . S
O188 Co187 2.061 . S
O188 C191 1.235 . S
C189 O192 1.238 . S
C189 O193 1.241 . S
C190 O183 1.247 . S
C190 O184 1.261 . S
C191 O186 1.259 . S
C191 O188 1.235 . S
O192 Co182 2.021 . S
O192 C189 1.238 . S
O193 Co187 2.052 . S
O193 C189 1.241 . S
O194 Co182 2.137 . S
O194 C185 1.247 . S
O195 Co182 2.244 . S
O195 C185 1.272 . S
O195 Co187 2.135 . S
Co196 O197 2.216 . S
Co196 O198 2.091 . S
Co196 O200 2.004 . S
Co196 O206 2.021 . S
Co196 O208 2.137 . S
Co196 O209 2.244 . S
O197 Co196 2.216 . S
O197 C204 1.247 . S
O198 Co196 2.091 . S
O198 C204 1.261 . S
C199 O208 1.247 . S
C199 O209 1.272 . S
O200 Co196 2.004 . S
O200 C205 1.259 . S
Co201 O202 2.061 . S
Co201 O207 2.052 . S
Co201 O209 2.135 . S
O202 Co201 2.061 . S
O202 C205 1.235 . S
C203 O206 1.238 . S
C203 O207 1.241 . S
C204 O197 1.247 . S
C204 O198 1.261 . S
C205 O200 1.259 . S
C205 O202 1.235 . S
O206 Co196 2.021 . S
O206 C203 1.238 . S
O207 Co201 2.052 . S
O207 C203 1.241 . S
O208 Co196 2.137 . S
O208 C199 1.247 . S
O209 Co196 2.244 . S
O209 C199 1.272 . S
O209 Co201 2.135 . S
Co210 O211 2.216 . S
Co210 O212 2.091 . S
Co210 O214 2.004 . S
Co210 O220 2.021 . S
Co210 O222 2.137 . S
Co210 O223 2.244 . S
O211 Co210 2.216 . S
O211 C218 1.247 . S
O212 Co210 2.091 . S
O212 C218 1.261 . S
C213 O222 1.247 . S
C213 O223 1.272 . S
O214 Co210 2.004 . S
O214 C219 1.259 . S
Co215 O216 2.061 . S
Co215 O221 2.052 . S
Co215 O223 2.135 . S
O216 Co215 2.061 . S
O216 C219 1.235 . S
C217 O220 1.238 . S
C217 O221 1.241 . S
C218 O211 1.247 . S
C218 O212 1.261 . S
C219 O214 1.259 . S
C219 O216 1.235 . S
O220 Co210 2.021 . S
O220 C217 1.238 . S
O221 Co215 2.052 . S
O221 C217 1.241 . S
O222 Co210 2.137 . S
O222 C213 1.247 . S
O223 Co210 2.244 . S
O223 C213 1.272 . S
O223 Co215 2.135 . S
Co224 O225 2.216 . S
Co224 O226 2.091 . S
Co224 O228 2.004 . S
Co224 O234 2.021 . S
Co224 O236 2.137 . S
Co224 O237 2.244 . S
O225 Co224 2.216 . S
O225 C232 1.247 . S
O226 Co224 2.091 . S
O226 C232 1.261 . S
C227 O236 1.247 . S
C227 O237 1.272 . S
O228 Co224 2.004 . S
O228 C233 1.259 . S
Co229 O230 2.061 . S
Co229 O235 2.052 . S
Co229 O237 2.135 . S
O230 Co229 2.061 . S
O230 C233 1.235 . S
C231 O234 1.238 . S
C231 O235 1.241 . S
C232 O225 1.247 . S
C232 O226 1.261 . S
C233 O228 1.259 . S
C233 O230 1.235 . S
O234 Co224 2.021 . S
O234 C231 1.238 . S
O235 Co229 2.052 . S
O235 C231 1.241 . S
O236 Co224 2.137 . S
O236 C227 1.247 . S
O237 Co224 2.244 . S
O237 C227 1.272 . S
O237 Co229 2.135 . S
Co238 O239 2.216 . S
Co238 O240 2.091 . S
Co238 O242 2.004 . S
Co238 O248 2.021 . S
Co238 O250 2.137 . S
Co238 O251 2.244 . S
O239 Co238 2.216 . S
O239 C246 1.247 . S
O240 Co238 2.091 . S
O240 C246 1.261 . S
C241 O250 1.247 . S
C241 O251 1.272 . S
O242 Co238 2.004 . S
O242 C247 1.259 . S
Co243 O244 2.061 . S
Co243 O249 2.052 . S
Co243 O251 2.135 . S
O244 Co243 2.061 . S
O244 C247 1.235 . S
C245 O248 1.238 . S
C245 O249 1.241 . S
C246 O239 1.247 . S
C246 O240 1.261 . S
C247 O242 1.259 . S
C247 O244 1.235 . S
O248 Co238 2.021 . S
O248 C245 1.238 . S
O249 Co243 2.052 . S
O249 C245 1.241 . S
O250 Co238 2.137 . S
O250 C241 1.247 . S
O251 Co238 2.244 . S
O251 C241 1.272 . S
O251 Co243 2.135 . S
Co252 O253 2.216 . S
Co252 O254 2.091 . S
Co252 O256 2.004 . S
Co252 O262 2.021 . S
Co252 O264 2.137 . S
Co252 O265 2.244 . S
O253 Co252 2.216 . S
O253 C260 1.247 . S
O254 Co252 2.091 . S
O254 C260 1.261 . S
C255 O264 1.247 . S
C255 O265 1.272 . S
O256 Co252 2.004 . S
O256 C261 1.259 . S
Co257 O258 2.061 . S
Co257 O263 2.052 . S
Co257 O265 2.135 . S
O258 Co257 2.061 . S
O258 C261 1.235 . S
C259 O262 1.238 . S
C259 O263 1.241 . S
C260 O253 1.247 . S
C260 O254 1.261 . S
C261 O256 1.259 . S
C261 O258 1.235 . S
O262 Co252 2.021 . S
O262 C259 1.238 . S
O263 Co257 2.052 . S
O263 C259 1.241 . S
O264 Co252 2.137 . S
O264 C255 1.247 . S
O265 Co252 2.244 . S
O265 C255 1.272 . S
O265 Co257 2.135 . S
Co266 O267 2.216 . S
Co266 O268 2.091 . S
Co266 O270 2.004 . S
Co266 O276 2.021 . S
Co266 O278 2.137 . S
Co266 O279 2.244 . S
O267 Co266 2.216 . S
O267 C274 1.247 . S
O268 Co266 2.091 . S
O268 C274 1.261 . S
C269 O278 1.247 . S
C269 O279 1.272 . S
O270 Co266 2.004 . S
O270 C275 1.259 . S
Co271 O272 2.061 . S
Co271 O277 2.052 . S
Co271 O279 2.135 . S
O272 Co271 2.061 . S
O272 C275 1.235 . S
C273 O276 1.238 . S
C273 O277 1.241 . S
C274 O267 1.247 . S
C274 O268 1.261 . S
C275 O270 1.259 . S
C275 O272 1.235 . S
O276 Co266 2.021 . S
O276 C273 1.238 . S
O277 Co271 2.052 . S
O277 C273 1.241 . S
O278 Co266 2.137 . S
O278 C269 1.247 . S
O279 Co266 2.244 . S
O279 C269 1.272 . S
O279 Co271 2.135 . S
Co280 O281 2.216 . S
Co280 O282 2.091 . S
Co280 O284 2.004 . S
Co280 O290 2.021 . S
Co280 O292 2.137 . S
Co280 O293 2.244 . S
O281 Co280 2.216 . S
O281 C288 1.247 . S
O282 Co280 2.091 . S
O282 C288 1.261 . S
C283 O292 1.247 . S
C283 O293 1.272 . S
O284 Co280 2.004 . S
O284 C289 1.259 . S
Co285 O286 2.061 . S
Co285 O291 2.052 . S
Co285 O293 2.135 . S
O286 Co285 2.061 . S
O286 C289 1.235 . S
C287 O290 1.238 . S
C287 O291 1.241 . S
C288 O281 1.247 . S
C288 O282 1.261 . S
C289 O284 1.259 . S
C289 O286 1.235 . S
O290 Co280 2.021 . S
O290 C287 1.238 . S
O291 Co285 2.052 . S
O291 C287 1.241 . S
O292 Co280 2.137 . S
O292 C283 1.247 . S
O293 Co280 2.244 . S
O293 C283 1.272 . S
O293 Co285 2.135 . S
Co294 O295 2.216 . S
Co294 O296 2.091 . S
Co294 O298 2.004 . S
Co294 O304 2.021 . S
Co294 O306 2.137 . S
Co294 O307 2.244 . S
O295 Co294 2.216 . S
O295 C302 1.247 . S
O296 Co294 2.091 . S
O296 C302 1.261 . S
C297 O306 1.247 . S
C297 O307 1.272 . S
O298 Co294 2.004 . S
O298 C303 1.259 . S
Co299 O300 2.061 . S
Co299 O305 2.052 . S
Co299 O307 2.135 . S
O300 Co299 2.061 . S
O300 C303 1.235 . S
C301 O304 1.238 . S
C301 O305 1.241 . S
C302 O295 1.247 . S
C302 O296 1.261 . S
C303 O298 1.259 . S
C303 O300 1.235 . S
O304 Co294 2.021 . S
O304 C301 1.238 . S
O305 Co299 2.052 . S
O305 C301 1.241 . S
O306 Co294 2.137 . S
O306 C297 1.247 . S
O307 Co294 2.244 . S
O307 C297 1.272 . S
O307 Co299 2.135 . S
Co308 O309 2.216 . S
Co308 O310 2.091 . S
Co308 O312 2.004 . S
Co308 O318 2.021 . S
Co308 O320 2.137 . S
Co308 O321 2.244 . S
O309 Co308 2.216 . S
O309 C316 1.247 . S
O310 Co308 2.091 . S
O310 C316 1.261 . S
C311 O320 1.247 . S
C311 O321 1.272 . S
O312 Co308 2.004 . S
O312 C317 1.259 . S
Co313 O314 2.061 . S
Co313 O319 2.052 . S
Co313 O321 2.135 . S
O314 Co313 2.061 . S
O314 C317 1.235 . S
C315 O318 1.238 . S
C315 O319 1.241 . S
C316 O309 1.247 . S
C316 O310 1.261 . S
C317 O312 1.259 . S
C317 O314 1.235 . S
O318 Co308 2.021 . S
O318 C315 1.238 . S
O319 Co313 2.052 . S
O319 C315 1.241 . S
O320 Co308 2.137 . S
O320 C311 1.247 . S
O321 Co308 2.244 . S
O321 C311 1.272 . S
O321 Co313 2.135 . S
Co322 O323 2.216 . S
Co322 O324 2.091 . S
Co322 O326 2.004 . S
Co322 O332 2.021 . S
Co322 O334 2.137 . S
Co322 O335 2.244 . S
O323 Co322 2.216 . S
O323 C330 1.247 . S
O324 Co322 2.091 . S
O324 C330 1.261 . S
C325 O334 1.247 . S
C325 O335 1.272 . S
O326 Co322 2.004 . S
O326 C331 1.259 . S
Co327 O328 2.061 . S
Co327 O333 2.052 . S
Co327 O335 2.135 . S
O328 Co327 2.061 . S
O328 C331 1.235 . S
C329 O332 1.238 . S
C329 O333 1.241 . S
C330 O323 1.247 . S
C330 O324 1.261 . S
C331 O326 1.259 . S
C331 O328 1.235 . S
O332 Co322 2.021 . S
O332 C329 1.238 . S
O333 Co327 2.052 . S
O333 C329 1.241 . S
O334 Co322 2.137 . S
O334 C325 1.247 . S
O335 Co322 2.244 . S
O335 C325 1.272 . S
O335 Co327 2.135 . S
C336 C337 1.369 . S
C336 C338 1.419 . S
C336 H340 0.930 . S
C337 C336 1.369 . S
C337 C346 1.429 . S
C338 C336 1.419 . S
C338 C339 1.363 . S
C338 H341 0.929 . S
C339 C338 1.363 . S
C339 C345 1.428 . S
H340 C336 0.930 . S
H341 C338 0.929 . S
S342 N343 1.613 . S
S342 N344 1.610 . S
N343 S342 1.613 . S
N343 C346 1.350 . S
N344 S342 1.610 . S
N344 C345 1.351 . S
C345 C339 1.428 . S
C345 N344 1.351 . S
C345 C346 1.434 . S
C346 C337 1.429 . S
C346 N343 1.350 . S
C346 C345 1.434 . S
C347 C348 1.369 . S
C347 C349 1.419 . S
C347 H351 0.930 . S
C348 C347 1.369 . S
C348 C357 1.429 . S
C349 C347 1.419 . S
C349 C350 1.363 . S
C349 H352 0.929 . S
C350 C349 1.363 . S
C350 C356 1.428 . S
H351 C347 0.930 . S
H352 C349 0.929 . S
S353 N354 1.613 . S
S353 N355 1.610 . S
N354 S353 1.613 . S
N354 C357 1.350 . S
N355 S353 1.610 . S
N355 C356 1.351 . S
C356 C350 1.428 . S
C356 N355 1.351 . S
C356 C357 1.434 . S
C357 C348 1.429 . S
C357 N354 1.350 . S
C357 C356 1.434 . S
C358 C359 1.369 . S
C358 C360 1.419 . S
C358 H362 0.930 . S
C359 C358 1.369 . S
C359 C368 1.429 . S
C360 C358 1.419 . S
C360 C361 1.363 . S
C360 H363 0.929 . S
C361 C360 1.363 . S
C361 C367 1.428 . S
H362 C358 0.930 . S
H363 C360 0.929 . S
S364 N365 1.613 . S
S364 N366 1.610 . S
N365 S364 1.613 . S
N365 C368 1.350 . S
N366 S364 1.610 . S
N366 C367 1.351 . S
C367 C361 1.428 . S
C367 N366 1.351 . S
C367 C368 1.434 . S
C368 C359 1.429 . S
C368 N365 1.350 . S
C368 C367 1.434 . S
C369 C370 1.369 . S
C369 C371 1.419 . S
C369 H373 0.930 . S
C370 C369 1.369 . S
C370 C379 1.429 . S
C371 C369 1.419 . S
C371 C372 1.363 . S
C371 H374 0.929 . S
C372 C371 1.363 . S
C372 C378 1.428 . S
H373 C369 0.930 . S
H374 C371 0.929 . S
S375 N376 1.613 . S
S375 N377 1.610 . S
N376 S375 1.613 . S
N376 C379 1.350 . S
N377 S375 1.610 . S
N377 C378 1.351 . S
C378 C372 1.428 . S
C378 N377 1.351 . S
C378 C379 1.434 . S
C379 C370 1.429 . S
C379 N376 1.350 . S
C379 C378 1.434 . S
C380 C381 1.369 . S
C380 C382 1.419 . S
C380 H384 0.930 . S
C381 C380 1.369 . S
C381 C390 1.429 . S
C382 C380 1.419 . S
C382 C383 1.363 . S
C382 H385 0.929 . S
C383 C382 1.363 . S
C383 C389 1.428 . S
H384 C380 0.930 . S
H385 C382 0.929 . S
S386 N387 1.613 . S
S386 N388 1.610 . S
N387 S386 1.613 . S
N387 C390 1.350 . S
N388 S386 1.610 . S
N388 C389 1.351 . S
C389 C383 1.428 . S
C389 N388 1.351 . S
C389 C390 1.434 . S
C390 C381 1.429 . S
C390 N387 1.350 . S
C390 C389 1.434 . S
C391 C392 1.369 . S
C391 C393 1.419 . S
C391 H395 0.930 . S
C392 C391 1.369 . S
C392 C401 1.429 . S
C393 C391 1.419 . S
C393 C394 1.363 . S
C393 H396 0.929 . S
C394 C393 1.363 . S
C394 C400 1.428 . S
H395 C391 0.930 . S
H396 C393 0.929 . S
S397 N398 1.613 . S
S397 N399 1.610 . S
N398 S397 1.613 . S
N398 C401 1.350 . S
N399 S397 1.610 . S
N399 C400 1.351 . S
C400 C394 1.428 . S
C400 N399 1.351 . S
C400 C401 1.434 . S
C401 C392 1.429 . S
C401 N398 1.350 . S
C401 C400 1.434 . S
C402 C403 1.369 . S
C402 C404 1.419 . S
C402 H406 0.930 . S
C403 C402 1.369 . S
C403 C412 1.429 . S
C404 C402 1.419 . S
C404 C405 1.363 . S
C404 H407 0.929 . S
C405 C404 1.363 . S
C405 C411 1.428 . S
H406 C402 0.930 . S
H407 C404 0.929 . S
S408 N409 1.613 . S
S408 N410 1.610 . S
N409 S408 1.613 . S
N409 C412 1.350 . S
N410 S408 1.610 . S
N410 C411 1.351 . S
C411 C405 1.428 . S
C411 N410 1.351 . S
C411 C412 1.434 . S
C412 C403 1.429 . S
C412 N409 1.350 . S
C412 C411 1.434 . S
C413 C414 1.369 . S
C413 C415 1.419 . S
C413 H417 0.930 . S
C414 C413 1.369 . S
C414 C423 1.429 . S
C415 C413 1.419 . S
C415 C416 1.363 . S
C415 H418 0.929 . S
C416 C415 1.363 . S
C416 C422 1.428 . S
H417 C413 0.930 . S
H418 C415 0.929 . S
S419 N420 1.613 . S
S419 N421 1.610 . S
N420 S419 1.613 . S
N420 C423 1.350 . S
N421 S419 1.610 . S
N421 C422 1.351 . S
C422 C416 1.428 . S
C422 N421 1.351 . S
C422 C423 1.434 . S
C423 C414 1.429 . S
C423 N420 1.350 . S
C423 C422 1.434 . S
C424 C425 1.369 . S
C424 C426 1.419 . S
C424 H428 0.930 . S
C425 C424 1.369 . S
C425 C434 1.429 . S
C426 C424 1.419 . S
C426 C427 1.363 . S
C426 H429 0.929 . S
C427 C426 1.363 . S
C427 C433 1.428 . S
H428 C424 0.930 . S
H429 C426 0.929 . S
S430 N431 1.613 . S
S430 N432 1.610 . S
N431 S430 1.613 . S
N431 C434 1.350 . S
N432 S430 1.610 . S
N432 C433 1.351 . S
C433 C427 1.428 . S
C433 N432 1.351 . S
C433 C434 1.434 . S
C434 C425 1.429 . S
C434 N431 1.350 . S
C434 C433 1.434 . S
C435 C436 1.369 . S
C435 C437 1.419 . S
C435 H439 0.930 . S
C436 C435 1.369 . S
C436 C445 1.429 . S
C437 C435 1.419 . S
C437 C438 1.363 . S
C437 H440 0.929 . S
C438 C437 1.363 . S
C438 C444 1.428 . S
H439 C435 0.930 . S
H440 C437 0.929 . S
S441 N442 1.613 . S
S441 N443 1.610 . S
N442 S441 1.613 . S
N442 C445 1.350 . S
N443 S441 1.610 . S
N443 C444 1.351 . S
C444 C438 1.428 . S
C444 N443 1.351 . S
C444 C445 1.434 . S
C445 C436 1.429 . S
C445 N442 1.350 . S
C445 C444 1.434 . S
C446 C447 1.369 . S
C446 C448 1.419 . S
C446 H450 0.930 . S
C447 C446 1.369 . S
C447 C456 1.429 . S
C448 C446 1.419 . S
C448 C449 1.363 . S
C448 H451 0.929 . S
C449 C448 1.363 . S
C449 C455 1.428 . S
H450 C446 0.930 . S
H451 C448 0.929 . S
S452 N453 1.613 . S
S452 N454 1.610 . S
N453 S452 1.613 . S
N453 C456 1.350 . S
N454 S452 1.610 . S
N454 C455 1.351 . S
C455 C449 1.428 . S
C455 N454 1.351 . S
C455 C456 1.434 . S
C456 C447 1.429 . S
C456 N453 1.350 . S
C456 C455 1.434 . S
C457 C458 1.369 . S
C457 C459 1.419 . S
C457 H461 0.930 . S
C458 C457 1.369 . S
C458 C467 1.429 . S
C459 C457 1.419 . S
C459 C460 1.363 . S
C459 H462 0.929 . S
C460 C459 1.363 . S
C460 C466 1.428 . S
H461 C457 0.930 . S
H462 C459 0.929 . S
S463 N464 1.613 . S
S463 N465 1.610 . S
N464 S463 1.613 . S
N464 C467 1.350 . S
N465 S463 1.610 . S
N465 C466 1.351 . S
C466 C460 1.428 . S
C466 N465 1.351 . S
C466 C467 1.434 . S
C467 C458 1.429 . S
C467 N464 1.350 . S
C467 C466 1.434 . S
C468 C469 1.369 . S
C468 C470 1.419 . S
C468 H472 0.930 1_545 S
C469 C468 1.369 . S
C469 C478 1.429 . S
C470 C468 1.419 . S
C470 C471 1.363 . S
C470 H473 0.929 . S
C471 C470 1.363 . S
C471 C477 1.428 . S
H472 C468 0.930 1_565 S
H473 C470 0.929 . S
S474 N475 1.613 . S
S474 N476 1.610 . S
N475 S474 1.613 . S
N475 C478 1.350 . S
N476 S474 1.610 . S
N476 C477 1.351 . S
C477 C471 1.428 . S
C477 N476 1.351 . S
C477 C478 1.434 . S
C478 C469 1.429 . S
C478 N475 1.350 . S
C478 C477 1.434 . S
C479 C480 1.369 . S
C479 C481 1.419 . S
C479 H483 0.930 . S
C480 C479 1.369 . S
C480 C489 1.429 . S
C481 C479 1.419 . S
C481 C482 1.363 . S
C481 H484 0.929 . S
C482 C481 1.363 . S
C482 C488 1.428 . S
H483 C479 0.930 . S
H484 C481 0.929 . S
S485 N486 1.613 . S
S485 N487 1.610 1_655 S
N486 S485 1.613 . S
N486 C489 1.350 1_655 S
N487 S485 1.610 1_455 S
N487 C488 1.351 . S
C488 C482 1.428 . S
C488 N487 1.351 . S
C488 C489 1.434 . S
C489 C480 1.429 . S
C489 N486 1.350 1_455 S
C489 C488 1.434 . S
C490 C491 1.369 . S
C490 C492 1.419 . S
C490 H494 0.930 . S
C491 C490 1.369 . S
C491 C500 1.429 . S
C492 C490 1.419 . S
C492 C493 1.363 . S
C492 H495 0.929 . S
C493 C492 1.363 . S
C493 C499 1.428 . S
H494 C490 0.930 . S
H495 C492 0.929 . S
S496 N497 1.613 . S
S496 N498 1.610 1_545 S
N497 S496 1.613 . S
N497 C500 1.350 1_545 S
N498 S496 1.610 1_565 S
N498 C499 1.351 . S
C499 C493 1.428 . S
C499 N498 1.351 . S
C499 C500 1.434 . S
C500 C491 1.429 . S
C500 N497 1.350 1_565 S
C500 C499 1.434 . S
C501 C502 1.369 . S
C501 C503 1.419 . S
C501 H505 0.930 1_655 S
C502 C501 1.369 . S
C502 C511 1.429 . S
C503 C501 1.419 . S
C503 C504 1.363 . S
C503 H506 0.929 . S
C504 C503 1.363 . S
C504 C510 1.428 . S
H505 C501 0.930 1_455 S
H506 C503 0.929 . S
S507 N508 1.613 . S
S507 N509 1.610 . S
N508 S507 1.613 . S
N508 C511 1.350 . S
N509 S507 1.610 . S
N509 C510 1.351 . S
C510 C504 1.428 . S
C510 N509 1.351 . S
C510 C511 1.434 . S
C511 C502 1.429 . S
C511 N508 1.350 . S
C511 C510 1.434 . S
C512 C513 1.369 . S
C512 C514 1.419 . S
C512 H516 0.930 . S
C513 C512 1.369 . S
C513 C522 1.429 . S
C514 C512 1.419 . S
C514 C515 1.363 . S
C514 H517 0.929 . S
C515 C514 1.363 . S
C515 C521 1.428 1_565 S
H516 C512 0.930 . S
H517 C514 0.929 . S
S518 N519 1.613 1_545 S
S518 N520 1.610 . S
N519 S518 1.613 1_565 S
N519 C522 1.350 . S
N520 S518 1.610 . S
N520 C521 1.351 . S
C521 C515 1.428 1_545 S
C521 N520 1.351 . S
C521 C522 1.434 1_545 S
C522 C513 1.429 . S
C522 N519 1.350 . S
C522 C521 1.434 1_565 S
C523 C524 1.369 . S
C523 C525 1.419 1_655 S
C523 H527 0.930 1_655 S
C524 C523 1.369 . S
C524 C533 1.429 . S
C525 C523 1.419 1_455 S
C525 C526 1.363 1_455 S
C525 H528 0.929 . S
C526 C525 1.363 1_655 S
C526 C532 1.428 . S
H527 C523 0.930 1_455 S
H528 C525 0.929 . S
S529 N530 1.613 . S
S529 N531 1.610 . S
N530 S529 1.613 . S
N530 C533 1.350 . S
N531 S529 1.610 . S
N531 C532 1.351 . S
C532 C526 1.428 . S
C532 N531 1.351 . S
C532 C533 1.434 . S
C533 C524 1.429 . S
C533 N530 1.350 . S
C533 C532 1.434 . S
C534 C535 1.369 1_545 S
C534 C536 1.419 . S
C534 H538 0.930 . S
C535 C534 1.369 1_565 S
C535 C544 1.429 . S
C536 C534 1.419 . S
C536 C537 1.363 . S
C536 H539 0.929 . S
C537 C536 1.363 . S
C537 C543 1.432 . S
H538 C534 0.930 . S
H539 C536 0.929 . S
S540 N541 1.613 . S
S540 N542 1.610 . S
N541 S540 1.613 . S
N541 C544 1.350 . S
N542 S540 1.610 . S
N542 C543 1.348 1_565 S
C543 C537 1.432 . S
C543 N542 1.348 1_545 S
C543 C544 1.432 1_545 S
C544 C535 1.429 . S
C544 N541 1.350 . S
C544 C543 1.432 1_565 S
C545 C546 1.369 . S
C545 C547 1.419 . S
C545 H549 0.930 . S
C546 C545 1.369 . S
C546 C555 1.429 . S
C547 C545 1.419 . S
C547 C548 1.363 . S
C547 H550 0.929 . S
C548 C547 1.363 . S
C548 C554 1.428 1_455 S
H549 C545 0.930 . S
H550 C547 0.929 . S
S551 N552 1.613 . S
S551 N553 1.610 . S
N552 S551 1.613 . S
N552 C555 1.350 1_655 S
N553 S551 1.610 . S
N553 C554 1.351 . S
C554 C548 1.428 1_655 S
C554 N553 1.351 . S
C554 C555 1.434 1_655 S
C555 C546 1.429 . S
C555 N552 1.350 1_455 S
C555 C554 1.434 1_455 S
C556 C557 1.369 1_556 S
C556 C558 1.419 1_556 S
C556 H560 0.930 . S
C557 C556 1.369 1_554 S
C557 C566 1.429 . S
C558 C556 1.419 1_554 S
C558 C559 1.363 . S
C558 H561 0.929 1_554 S
C559 C558 1.363 . S
C559 C565 1.428 . S
H560 C556 0.930 . S
H561 C558 0.929 1_556 S
S562 N563 1.613 . S
S562 N564 1.610 . S
N563 S562 1.613 . S
N563 C566 1.350 . S
N564 S562 1.610 . S
N564 C565 1.351 . S
C565 C559 1.428 . S
C565 N564 1.351 . S
C565 C566 1.434 . S
C566 C557 1.429 . S
C566 N563 1.350 . S
C566 C565 1.434 . S
C567 C568 1.369 . S
C567 C569 1.419 . S
C567 H571 0.930 1_556 S
C568 C567 1.369 . S
C568 C577 1.429 . S
C569 C567 1.419 . S
C569 C570 1.363 . S
C569 H572 0.929 . S
C570 C569 1.363 . S
C570 C576 1.428 . S
H571 C567 0.930 1_554 S
H572 C569 0.929 . S
S573 N574 1.613 . S
S573 N575 1.610 . S
N574 S573 1.613 . S
N574 C577 1.350 . S
N575 S573 1.610 . S
N575 C576 1.351 . S
C576 C570 1.428 . S
C576 N575 1.351 . S
C576 C577 1.434 . S
C577 C568 1.429 . S
C577 N574 1.350 . S
C577 C576 1.434 . S
C578 C579 1.369 . S
C578 C580 1.419 . S
C578 H582 0.930 . S
C579 C578 1.369 . S
C579 C588 1.429 . S
C580 C578 1.419 . S
C580 C581 1.363 . S
C580 H583 0.929 . S
C581 C580 1.363 . S
C581 C587 1.428 . S
H582 C578 0.930 . S
H583 C580 0.929 . S
S584 N585 1.613 . S
S584 N586 1.610 . S
N585 S584 1.613 . S
N585 C588 1.350 . S
N586 S584 1.610 . S
N586 C587 1.351 . S
C587 C581 1.428 . S
C587 N586 1.351 . S
C587 C588 1.434 . S
C588 C579 1.429 . S
C588 N585 1.350 . S
C588 C587 1.434 . S
C589 C590 1.369 . S
C589 C591 1.419 . S
C589 H593 0.930 . S
C590 C589 1.369 . S
C590 C599 1.429 1_556 S
C591 C589 1.419 . S
C591 C592 1.363 . S
C591 H594 0.929 . S
C592 C591 1.363 . S
C592 C598 1.428 . S
H593 C589 0.930 . S
H594 C591 0.929 . S
S595 N596 1.613 . S
S595 N597 1.610 . S
N596 S595 1.613 . S
N596 C599 1.350 . S
N597 S595 1.610 . S
N597 C598 1.351 1_554 S
C598 C592 1.428 . S
C598 N597 1.351 1_556 S
C598 C599 1.434 1_556 S
C599 C590 1.429 1_554 S
C599 N596 1.350 . S
C599 C598 1.434 1_554 S
C600 C601 1.369 . S
C600 C602 1.419 . S
C600 H604 0.930 . S
C601 C600 1.369 . S
C601 C610 1.429 . S
C602 C600 1.419 . S
C602 C603 1.363 . S
C602 H605 0.929 . S
C603 C602 1.363 . S
C603 C609 1.428 . S
H604 C600 0.930 . S
H605 C602 0.929 . S
S606 N607 1.613 . S
S606 N608 1.610 . S
N607 S606 1.613 . S
N607 C610 1.350 . S
N608 S606 1.610 . S
N608 C609 1.351 . S
C609 C603 1.428 . S
C609 N608 1.351 . S
C609 C610 1.434 . S
C610 C601 1.429 . S
C610 N607 1.350 . S
C610 C609 1.434 . S
C611 C612 1.369 . S
C611 C613 1.419 . S
C611 H615 0.930 . S
C612 C611 1.369 . S
C612 C621 1.429 . S
C613 C611 1.419 . S
C613 C614 1.363 . S
C613 H616 0.929 . S
C614 C613 1.363 . S
C614 C620 1.428 . S
H615 C611 0.930 . S
H616 C613 0.929 . S
S617 N618 1.613 . S
S617 N619 1.610 . S
N618 S617 1.613 . S
N618 C621 1.350 . S
N619 S617 1.610 . S
N619 C620 1.351 . S
C620 C614 1.428 . S
C620 N619 1.351 . S
C620 C621 1.434 . S
C621 C612 1.429 . S
C621 N618 1.350 . S
C621 C620 1.434 . S
C622 C623 1.369 . S
C622 C624 1.419 . S
C622 H626 0.930 . S
C623 C622 1.369 . S
C623 C632 1.429 . S
C624 C622 1.419 . S
C624 C625 1.363 . S
C624 H627 0.929 . S
C625 C624 1.363 . S
C625 C631 1.428 . S
H626 C622 0.930 . S
H627 C624 0.929 . S
S628 N629 1.613 . S
S628 N630 1.610 . S
N629 S628 1.613 . S
N629 C632 1.350 . S
N630 S628 1.610 . S
N630 C631 1.351 . S
C631 C625 1.428 . S
C631 N630 1.351 . S
C631 C632 1.434 . S
C632 C623 1.429 . S
C632 N629 1.350 . S
C632 C631 1.434 . S
C633 C634 1.369 . S
C633 C635 1.419 . S
C633 H637 0.930 . S
C634 C633 1.369 . S
C634 C643 1.429 . S
C635 C633 1.419 . S
C635 C636 1.363 . S
C635 H638 0.929 . S
C636 C635 1.363 . S
C636 C642 1.428 . S
H637 C633 0.930 . S
H638 C635 0.929 . S
S639 N640 1.613 . S
S639 N641 1.610 . S
N640 S639 1.613 . S
N640 C643 1.350 . S
N641 S639 1.610 . S
N641 C642 1.351 . S
C642 C636 1.428 . S
C642 N641 1.351 . S
C642 C643 1.434 . S
C643 C634 1.429 . S
C643 N640 1.350 . S
C643 C642 1.434 . S
C644 C645 1.369 . S
C644 C646 1.419 . S
C644 H648 0.930 . S
C645 C644 1.369 . S
C645 C654 1.429 . S
C646 C644 1.419 . S
C646 C647 1.363 . S
C646 H649 0.929 . S
C647 C646 1.363 . S
C647 C653 1.428 . S
H648 C644 0.930 . S
H649 C646 0.929 . S
S650 N651 1.613 . S
S650 N652 1.610 . S
N651 S650 1.613 . S
N651 C654 1.350 . S
N652 S650 1.610 . S
N652 C653 1.351 . S
C653 C647 1.428 . S
C653 N652 1.351 . S
C653 C654 1.434 . S
C654 C645 1.429 . S
C654 N651 1.350 . S
C654 C653 1.434 . S
C655 C656 1.369 . S
C655 C657 1.419 . S
C655 H659 0.930 . S
C656 C655 1.369 . S
C656 C665 1.429 . S
C657 C655 1.419 . S
C657 C658 1.363 . S
C657 H660 0.929 . S
C658 C657 1.363 . S
C658 C664 1.428 . S
H659 C655 0.930 . S
H660 C657 0.929 . S
S661 N662 1.613 . S
S661 N663 1.610 . S
N662 S661 1.613 . S
N662 C665 1.350 . S
N663 S661 1.610 . S
N663 C664 1.351 . S
C664 C658 1.428 . S
C664 N663 1.351 . S
C664 C665 1.434 . S
C665 C656 1.429 . S
C665 N662 1.350 . S
C665 C664 1.434 . S
C666 C667 1.369 . S
C666 C668 1.419 . S
C666 H670 0.930 . S
C667 C666 1.369 . S
C667 C676 1.429 . S
C668 C666 1.419 . S
C668 C669 1.363 . S
C668 H671 0.929 . S
C669 C668 1.363 . S
C669 C675 1.428 . S
H670 C666 0.930 . S
H671 C668 0.929 . S
S672 N673 1.613 . S
S672 N674 1.610 . S
N673 S672 1.613 . S
N673 C676 1.350 . S
N674 S672 1.610 . S
N674 C675 1.351 . S
C675 C669 1.428 . S
C675 N674 1.351 . S
C675 C676 1.434 . S
C676 C667 1.429 . S
C676 N673 1.350 . S
C676 C675 1.434 . S
C677 C678 1.369 . S
C677 C679 1.419 . S
C677 H681 0.930 . S
C678 C677 1.369 . S
C678 C687 1.429 . S
C679 C677 1.419 . S
C679 C680 1.363 . S
C679 H682 0.929 . S
C680 C679 1.363 . S
C680 C686 1.428 . S
H681 C677 0.930 . S
H682 C679 0.929 . S
S683 N684 1.613 . S
S683 N685 1.610 . S
N684 S683 1.613 . S
N684 C687 1.350 . S
N685 S683 1.610 . S
N685 C686 1.351 . S
C686 C680 1.428 . S
C686 N685 1.351 . S
C686 C687 1.434 . S
C687 C678 1.429 . S
C687 N684 1.350 . S
C687 C686 1.434 . S
C688 C689 1.369 . S
C688 C690 1.419 . S
C688 H692 0.930 . S
C689 C688 1.369 . S
C689 C698 1.429 . S
C690 C688 1.419 . S
C690 C691 1.363 . S
C690 H693 0.929 . S
C691 C690 1.363 . S
C691 C697 1.428 . S
H692 C688 0.930 . S
H693 C690 0.929 . S
S694 N695 1.613 . S
S694 N696 1.610 . S
N695 S694 1.613 . S
N695 C698 1.350 . S
N696 S694 1.610 . S
N696 C697 1.351 . S
C697 C691 1.428 . S
C697 N696 1.351 . S
C697 C698 1.434 . S
C698 C689 1.429 . S
C698 N695 1.350 . S
C698 C697 1.434 . S
C699 C700 1.369 . S
C699 C701 1.419 . S
C699 H703 0.930 . S
C700 C699 1.369 . S
C700 C709 1.429 . S
C701 C699 1.419 . S
C701 C702 1.363 . S
C701 H704 0.929 . S
C702 C701 1.363 . S
C702 C708 1.428 . S
H703 C699 0.930 . S
H704 C701 0.929 . S
S705 N706 1.630 . S
S705 N707 1.619 . S
N706 S705 1.630 . S
N706 C709 1.350 . S
N707 S705 1.619 . S
N707 C708 1.351 . S
C708 C702 1.428 . S
C708 N707 1.351 . S
C708 C709 1.434 . S
C709 C700 1.429 . S
C709 N706 1.350 . S
C709 C708 1.434 . S
C710 C711 1.369 . S
C710 C712 1.419 . S
C710 H714 0.930 . S
C711 C710 1.369 . S
C711 C720 1.429 . S
C712 C710 1.419 . S
C712 C713 1.363 . S
C712 H715 0.929 . S
C713 C712 1.363 . S
C713 C719 1.428 . S
H714 C710 0.930 . S
H715 C712 0.929 . S
S716 N717 1.613 . S
S716 N718 1.610 . S
N717 S716 1.613 . S
N717 C720 1.350 . S
N718 S716 1.610 . S
N718 C719 1.351 . S
C719 C713 1.428 . S
C719 N718 1.351 . S
C719 C720 1.434 . S
C720 C711 1.429 . S
C720 N717 1.350 . S
C720 C719 1.434 . S
C721 C722 1.369 . S
C721 C723 1.419 . S
C721 H725 0.930 . S
C722 C721 1.369 . S
C722 C731 1.429 . S
C723 C721 1.419 . S
C723 C724 1.363 . S
C723 H726 0.929 . S
C724 C723 1.363 . S
C724 C730 1.428 . S
H725 C721 0.930 . S
H726 C723 0.929 . S
S727 N728 1.613 . S
S727 N729 1.610 . S
N728 S727 1.613 . S
N728 C731 1.350 . S
N729 S727 1.610 . S
N729 C730 1.351 . S
C730 C724 1.428 . S
C730 N729 1.351 . S
C730 C731 1.434 . S
C731 C722 1.429 . S
C731 N728 1.350 . S
C731 C730 1.434 . S
C732 C733 1.369 . S
C732 C734 1.419 . S
C732 H736 0.930 . S
C733 C732 1.369 . S
C733 C742 1.429 . S
C734 C732 1.419 . S
C734 C735 1.363 . S
C734 H737 0.929 . S
C735 C734 1.363 . S
C735 C741 1.428 . S
H736 C732 0.930 . S
H737 C734 0.929 . S
S738 N739 1.613 . S
S738 N740 1.610 . S
N739 S738 1.613 . S
N739 C742 1.350 . S
N740 S738 1.610 . S
N740 C741 1.351 . S
C741 C735 1.428 . S
C741 N740 1.351 . S
C741 C742 1.434 . S
C742 C733 1.429 . S
C742 N739 1.350 . S
C742 C741 1.434 . S
C743 C744 1.369 . S
C743 C745 1.419 . S
C743 H747 0.930 . S
C744 C743 1.369 . S
C744 C753 1.429 . S
C745 C743 1.419 . S
C745 C746 1.363 . S
C745 H748 0.929 . S
C746 C745 1.363 . S
C746 C752 1.428 . S
H747 C743 0.930 . S
H748 C745 0.929 . S
S749 N750 1.613 . S
S749 N751 1.610 . S
N750 S749 1.613 . S
N750 C753 1.350 . S
N751 S749 1.610 . S
N751 C752 1.351 . S
C752 C746 1.428 . S
C752 N751 1.351 . S
C752 C753 1.434 . S
C753 C744 1.429 . S
C753 N750 1.350 . S
C753 C752 1.434 . S
C754 C755 1.369 . S
C754 C756 1.419 . S
C754 H758 0.930 . S
C755 C754 1.369 . S
C755 C764 1.429 . S
C756 C754 1.419 . S
C756 C757 1.363 . S
C756 H759 0.929 . S
C757 C756 1.363 . S
C757 C763 1.428 . S
H758 C754 0.930 . S
H759 C756 0.929 . S
S760 N761 1.613 . S
S760 N762 1.610 . S
N761 S760 1.613 . S
N761 C764 1.350 . S
N762 S760 1.610 . S
N762 C763 1.351 . S
C763 C757 1.428 . S
C763 N762 1.351 . S
C763 C764 1.434 . S
C764 C755 1.429 . S
C764 N761 1.350 . S
C764 C763 1.434 . S
C765 C766 1.369 . S
C765 C767 1.419 . S
C765 H769 0.930 . S
C766 C765 1.369 . S
C766 C775 1.429 . S
C767 C765 1.419 . S
C767 C768 1.363 . S
C767 H770 0.929 . S
C768 C767 1.363 . S
C768 C774 1.428 . S
H769 C765 0.930 . S
H770 C767 0.929 . S
S771 N772 1.613 . S
S771 N773 1.610 . S
N772 S771 1.613 . S
N772 C775 1.350 . S
N773 S771 1.610 . S
N773 C774 1.351 . S
C774 C768 1.428 . S
C774 N773 1.351 . S
C774 C775 1.434 . S
C775 C766 1.429 . S
C775 N772 1.350 . S
C775 C774 1.434 . S
C776 C777 1.369 . S
C776 C778 1.419 . S
C776 H780 0.930 . S
C777 C776 1.369 . S
C777 C786 1.429 . S
C778 C776 1.419 . S
C778 C779 1.363 . S
C778 H781 0.929 . S
C779 C778 1.363 . S
C779 C785 1.428 . S
H780 C776 0.930 . S
H781 C778 0.929 . S
S782 N783 1.613 . S
S782 N784 1.610 . S
N783 S782 1.613 . S
N783 C786 1.350 . S
N784 S782 1.610 . S
N784 C785 1.351 . S
C785 C779 1.428 . S
C785 N784 1.351 . S
C785 C786 1.434 . S
C786 C777 1.429 . S
C786 N783 1.350 . S
C786 C785 1.434 . S
C787 C788 1.369 . S
C787 C789 1.419 . S
C787 H791 0.930 . S
C788 C787 1.369 . S
C788 C797 1.429 . S
C789 C787 1.419 . S
C789 C790 1.363 . S
C789 H792 0.929 . S
C790 C789 1.363 . S
C790 C796 1.428 . S
H791 C787 0.930 . S
H792 C789 0.929 . S
S793 N794 1.613 . S
S793 N795 1.610 . S
N794 S793 1.613 . S
N794 C797 1.350 . S
N795 S793 1.610 . S
N795 C796 1.351 . S
C796 C790 1.428 . S
C796 N795 1.351 . S
C796 C797 1.434 . S
C797 C788 1.429 . S
C797 N794 1.350 . S
C797 C796 1.434 . S
C798 C799 1.369 . S
C798 C800 1.419 . S
C798 H802 0.930 . S
C799 C798 1.369 . S
C799 C808 1.429 . S
C800 C798 1.419 . S
C800 C801 1.363 . S
C800 H803 0.929 . S
C801 C800 1.363 . S
C801 C807 1.428 . S
H802 C798 0.930 . S
H803 C800 0.929 . S
S804 N805 1.613 . S
S804 N806 1.610 . S
N805 S804 1.613 . S
N805 C808 1.350 . S
N806 S804 1.610 . S
N806 C807 1.351 . S
C807 C801 1.428 . S
C807 N806 1.351 . S
C807 C808 1.434 . S
C808 C799 1.429 . S
C808 N805 1.350 . S
C808 C807 1.434 . S
C809 C810 1.369 . S
C809 C811 1.419 . S
C809 H813 0.930 . S
C810 C809 1.369 . S
C810 C819 1.429 . S
C811 C809 1.419 . S
C811 C812 1.363 . S
C811 H814 0.929 . S
C812 C811 1.363 . S
C812 C818 1.428 . S
H813 C809 0.930 . S
H814 C811 0.929 . S
S815 N816 1.613 . S
S815 N817 1.610 . S
N816 S815 1.613 . S
N816 C819 1.350 . S
N817 S815 1.610 . S
N817 C818 1.351 . S
C818 C812 1.428 . S
C818 N817 1.351 . S
C818 C819 1.434 . S
C819 C810 1.429 . S
C819 N816 1.350 . S
C819 C818 1.434 . S
C820 C821 1.369 . S
C820 C822 1.419 . S
C820 H824 0.930 . S
C821 C820 1.369 . S
C821 C830 1.429 . S
C822 C820 1.419 . S
C822 C823 1.363 . S
C822 H825 0.929 . S
C823 C822 1.363 . S
C823 C829 1.428 . S
H824 C820 0.930 . S
H825 C822 0.929 . S
S826 N827 1.613 . S
S826 N828 1.610 . S
N827 S826 1.613 . S
N827 C830 1.350 . S
N828 S826 1.610 . S
N828 C829 1.351 . S
C829 C823 1.428 . S
C829 N828 1.351 . S
C829 C830 1.434 . S
C830 C821 1.429 . S
C830 N827 1.350 . S
C830 C829 1.434 . S
C831 C832 1.369 . S
C831 C833 1.419 . S
C831 H835 0.930 . S
C832 C831 1.369 . S
C832 C841 1.429 . S
C833 C831 1.419 . S
C833 C834 1.363 . S
C833 H836 0.929 . S
C834 C833 1.363 . S
C834 C840 1.428 . S
H835 C831 0.930 . S
H836 C833 0.929 . S
S837 N838 1.613 . S
S837 N839 1.610 . S
N838 S837 1.613 . S
N838 C841 1.350 . S
N839 S837 1.610 . S
N839 C840 1.351 . S
C840 C834 1.428 . S
C840 N839 1.351 . S
C840 C841 1.434 . S
C841 C832 1.429 . S
C841 N838 1.350 . S
C841 C840 1.434 . S
C842 C843 1.369 . S
C842 C844 1.419 . S
C842 H846 0.930 . S
C843 C842 1.369 . S
C843 C852 1.429 . S
C844 C842 1.419 . S
C844 C845 1.363 . S
C844 H847 0.929 . S
C845 C844 1.363 . S
C845 C851 1.428 . S
H846 C842 0.930 . S
H847 C844 0.929 . S
S848 N849 1.613 . S
S848 N850 1.610 . S
N849 S848 1.613 . S
N849 C852 1.350 . S
N850 S848 1.610 . S
N850 C851 1.351 . S
C851 C845 1.428 . S
C851 N850 1.351 . S
C851 C852 1.434 . S
C852 C843 1.429 . S
C852 N849 1.350 . S
C852 C851 1.434 . S
C853 C854 1.369 . S
C853 C855 1.419 . S
C853 H857 0.930 . S
C854 C853 1.369 . S
C854 C863 1.429 . S
C855 C853 1.419 . S
C855 C856 1.363 . S
C855 H858 0.929 . S
C856 C855 1.363 . S
C856 C862 1.428 . S
H857 C853 0.930 . S
H858 C855 0.929 . S
S859 N860 1.613 . S
S859 N861 1.610 . S
N860 S859 1.613 . S
N860 C863 1.350 . S
N861 S859 1.610 . S
N861 C862 1.351 . S
C862 C856 1.428 . S
C862 N861 1.351 . S
C862 C863 1.434 . S
C863 C854 1.429 . S
C863 N860 1.350 . S
C863 C862 1.434 . S
C337 C311 2.072 . S
C339 C8 1.972 . S
C348 C17 2.026 . S
C350 C232 1.952 . S
C359 C325 2.034 . S
C361 C36 1.938 . S
C370 C302 1.962 . S
C372 C50 2.029 . S
C381 C260 2.027 . S
C383 C64 1.960 . S
C392 C269 1.892 . S
C394 C73 2.081 . S
C403 C288 2.075 . S
C405 C87 1.913 . S
C414 C101 2.054 . S
C416 C241 1.878 . S
C425 C185 2.066 . S
C427 C115 1.901 . S
C436 C204 1.968 . S
C438 C134 2.049 . S
C447 C143 1.912 . S
C449 C213 2.077 . S
C458 C162 2.058 . S
C460 C176 1.963 . S
C469 C106 1.978 1_545 S
C471 C199 2.067 . S
C480 C218 1.945 1_455 S
C482 C59 2.032 . S
C491 C78 1.934 1_565 S
C493 C171 2.037 . S
C502 C190 1.959 1_655 S
C504 C92 2.031 . S
C513 C148 2.034 . S
C515 C22 1.954 1_565 S
C524 C31 2.078 . S
C526 C157 1.894 1_655 S
C535 C45 1.910 . S
C537 C120 2.075 . S
C546 C3 2.056 . S
C548 C129 1.877 1_455 S
C557 C283 1.910 1_554 S
C559 C297 2.060 . S
C568 C316 1.964 1_556 S
C570 C246 2.052 . S
C579 C255 1.911 1_554 S
C581 C227 2.077 . S
C590 C330 1.961 1_556 S
C592 C274 2.057 . S
C601 C9 1.014 . S
C603 C121 1.219 . S
C612 C133 1.107 . S
C614 C21 1.272 . S
C623 C37 0.960 . S
C625 C149 1.161 . S
C634 C51 1.188 . S
C636 C161 1.089 . S
C645 C65 0.996 . S
C647 C175 1.244 . S
C656 C77 1.264 . S
C658 C191 1.015 . S
C667 C203 1.266 . S
C669 C91 1.092 . S
C678 C219 1.011 . S
C680 C105 1.264 . S
C689 C119 1.150 . S
C691 C231 1.308 . S
C700 C135 1.184 . S
C702 C331 0.971 . S
C711 C301 1.340 . S
C713 C147 1.168 . S
C722 C317 0.965 . S
C724 C163 1.158 . S
C733 C247 1.190 . S
C735 C177 0.963 . S
C744 C259 1.156 . S
C746 C189 1.338 . S
C755 C205 0.950 . S
C757 C275 1.164 . S
C766 C217 1.308 . S
C768 C287 1.150 . S
C777 C7 1.262 . S
C779 C233 1.032 . S
C788 C245 1.107 . S
C790 C63 1.271 . S
C799 C261 1.170 . S
C801 C79 0.954 . S
C810 C273 1.084 . S
C812 C93 1.198 . S
C821 C289 1.213 . S
C823 C107 1.017 . S
C832 C303 0.996 . S
C834 C35 1.263 . S
C843 C49 1.108 . S
C845 C315 1.267 . S
C854 C329 1.248 . S
C856 C23 0.995 . S
