# Generated by pormake.
# Topology ukf, (4)-cn, num edge types: 1
# Building blocks:
#     Node 0, Type 0, BuildingBlock: ICAMEG_clean_sbu_1, # of connection points: 4
#     Node 1, Type 0, BuildingBlock: ICAMEG_clean_sbu_1, # of connection points: 4
#     Node 2, Type 0, BuildingBlock: ICAMEG_clean_sbu_1, # of connection points: 4
#     Node 3, Type 0, BuildingBlock: ICAMEG_clean_sbu_1, # of connection points: 4
#     Node 4, Type 0, BuildingBlock: ICAMEG_clean_sbu_1, # of connection points: 4
#     Node 5, Type 0, BuildingBlock: ICAMEG_clean_sbu_1, # of connection points: 4
#     Node 6, Type 0, BuildingBlock: ICAMEG_clean_sbu_1, # of connection points: 4
#     Node 7, Type 0, BuildingBlock: ICAMEG_clean_sbu_1, # of connection points: 4
#     Node 8, Type 0, BuildingBlock: ICAMEG_clean_sbu_1, # of connection points: 4
#     Node 9, Type 0, BuildingBlock: ICAMEG_clean_sbu_1, # of connection points: 4
#     Node 10, Type 0, BuildingBlock: ICAMEG_clean_sbu_1, # of connection points: 4
#     Node 11, Type 0, BuildingBlock: ICAMEG_clean_sbu_1, # of connection points: 4
#     Edge 12, Type (0, 0), BuildingBlock: XUDNAN_clean_linker_2, # of connection points: 2
#     Edge 13, Type (0, 0), BuildingBlock: XUDNAN_clean_linker_2, # of connection points: 2
#     Edge 14, Type (0, 0), BuildingBlock: XUDNAN_clean_linker_2, # of connection points: 2
#     Edge 15, Type (0, 0), BuildingBlock: XUDNAN_clean_linker_2, # of connection points: 2
#     Edge 16, Type (0, 0), BuildingBlock: XUDNAN_clean_linker_2, # of connection points: 2
#     Edge 17, Type (0, 0), BuildingBlock: XUDNAN_clean_linker_2, # of connection points: 2
#     Edge 18, Type (0, 0), BuildingBlock: XUDNAN_clean_linker_2, # of connection points: 2
#     Edge 19, Type (0, 0), BuildingBlock: XUDNAN_clean_linker_2, # of connection points: 2
#     Edge 20, Type (0, 0), BuildingBlock: XUDNAN_clean_linker_2, # of connection points: 2
#     Edge 21, Type (0, 0), BuildingBlock: XUDNAN_clean_linker_2, # of connection points: 2
#     Edge 22, Type (0, 0), BuildingBlock: XUDNAN_clean_linker_2, # of connection points: 2
#     Edge 23, Type (0, 0), BuildingBlock: XUDNAN_clean_linker_2, # of connection points: 2
#     Edge 24, Type (0, 0), BuildingBlock: XUDNAN_clean_linker_2, # of connection points: 2
#     Edge 25, Type (0, 0), BuildingBlock: XUDNAN_clean_linker_2, # of connection points: 2
#     Edge 26, Type (0, 0), BuildingBlock: XUDNAN_clean_linker_2, # of connection points: 2
#     Edge 27, Type (0, 0), BuildingBlock: XUDNAN_clean_linker_2, # of connection points: 2
#     Edge 28, Type (0, 0), BuildingBlock: XUDNAN_clean_linker_2, # of connection points: 2
#     Edge 29, Type (0, 0), BuildingBlock: XUDNAN_clean_linker_2, # of connection points: 2
#     Edge 30, Type (0, 0), BuildingBlock: XUDNAN_clean_linker_2, # of connection points: 2
#     Edge 31, Type (0, 0), BuildingBlock: XUDNAN_clean_linker_2, # of connection points: 2
#     Edge 32, Type (0, 0), BuildingBlock: XUDNAN_clean_linker_2, # of connection points: 2
#     Edge 33, Type (0, 0), BuildingBlock: XUDNAN_clean_linker_2, # of connection points: 2
#     Edge 34, Type (0, 0), BuildingBlock: XUDNAN_clean_linker_2, # of connection points: 2
#     Edge 35, Type (0, 0), BuildingBlock: XUDNAN_clean_linker_2, # of connection points: 2
# Relax obj value: 0.107
# Max RMSD: 0.105
# Mean RMSD: 0.105
data_MOF--net-ukf--node1-ICAMEG_clean_sbu_1--edge1-XUDNAN_clean_linker_2
_symmetry_space_group_name_H-M    P1
_symmetry_Int_Tables_number       1
_symmetry_cell_setting            triclinic
loop_
_symmetry_equiv_pos_as_xyz
'x, y, z'
_cell_length_a     33.7197
_cell_length_b     33.774159
_cell_length_c     70.7887
_cell_angle_alpha  89.993891
_cell_angle_beta   89.920825
_cell_angle_gamma 119.98508
loop_
_atom_site_label
_atom_site_type_symbol
_atom_site_fract_x
_atom_site_fract_y
_atom_site_fract_z
_atom_type_partial_charge
Co0 Co 0.41649 0.24146 0.03822 0.0
Co1 Co 0.4581 0.20045 0.07246 0.0
O2 O 0.43247 0.23887 0.06468 0.0
C3 C 0.46721 0.33967 0.05041 0.0
O4 O 0.49603 0.33188 0.05989 0.0
C5 C 0.38751 0.184 0.10183 0.0
O6 O 0.36116 0.18605 0.08871 0.0
O7 O 0.40429 0.14588 0.06142 0.0
O8 O 0.39718 0.1752 0.03407 0.0
H9 H 0.50291 0.08064 0.06266 0.0
H10 H 0.37673 0.27315 0.0679 0.0
O11 O 0.43446 0.30754 0.04122 0.0
H12 H 0.24438 0.14695 0.03564 0.0
H13 H 0.34979 0.28827 0.98491 0.0
H14 H 0.43233 0.20728 1.00204 0.0
H15 H 0.32308 0.17071 0.02542 0.0
H16 H 0.3688 0.28358 0.01816 0.0
O17 O 0.426 0.18806 0.09751 0.0
H18 H 0.47154 0.1299 0.05337 0.0
H19 H 0.497 0.18779 0.10836 0.0
H20 H 0.41355 0.2107 0.96864 0.0
H21 H 0.29855 0.25095 0.07838 0.0
H22 H 0.372 0.25145 0.95989 0.0
H23 H 0.2317 0.18728 0.06227 0.0
O24 O 0.47998 0.25994 0.03031 0.0
H25 H 0.53483 0.34395 0.11136 0.0
H26 H 0.5596 0.24071 0.07004 0.0
H27 H 0.62618 0.3093 0.08313 0.0
H28 H 0.61402 0.36143 0.10401 0.0
H29 H 0.4692 0.2753 0.09773 0.0
H30 H 0.52805 0.1387 0.11832 0.0
H31 H 0.53141 0.08483 0.09536 0.0
O32 O 0.49231 0.2121 0.04796 0.0
C33 C 0.38868 0.14123 0.04465 0.0
C34 C 0.50173 0.10405 0.07278 0.0
C35 C 0.51579 0.13661 0.10402 0.0
N36 N 0.48271 0.16193 0.08025 0.0
C37 C 0.4841 0.13212 0.06759 0.0
C38 C 0.49803 0.16422 0.09832 0.0
C39 C 0.51768 0.1064 0.09113 0.0
C40 C 0.34781 0.24577 0.06067 0.0
N41 N 0.35451 0.22333 0.04606 0.0
C42 C 0.30362 0.23319 0.06673 0.0
C43 C 0.26613 0.19741 0.05771 0.0
C44 C 0.27323 0.17473 0.04279 0.0
C45 C 0.3179 0.18821 0.03712 0.0
C46 C 0.36785 0.27036 0.98854 0.0
C47 C 0.41402 0.22485 0.99836 0.0
C48 C 0.37882 0.26769 0.00735 0.0
N49 N 0.40139 0.2449 0.01205 0.0
C50 C 0.40359 0.22678 0.97942 0.0
C51 C 0.3803 0.24968 0.97452 0.0
C52 C 0.50266 0.24007 0.03422 0.0
C53 C 0.54058 0.32143 0.10232 0.0
C54 C 0.55398 0.26336 0.079 0.0
C55 C 0.59184 0.30207 0.08643 0.0
C56 C 0.585 0.33127 0.09816 0.0
N57 N 0.51049 0.25395 0.08313 0.0
C58 C 0.50353 0.28239 0.09464 0.0
Co59 Co 0.15574 0.41219 0.37332 0.0
Co60 Co 0.24113 0.42711 0.40356 0.0
O61 O 0.17809 0.41399 0.3991 0.0
C62 C 0.12274 0.46582 0.39524 0.0
O63 O 0.16176 0.4853 0.40437 0.0
C64 C 0.18233 0.35927 0.43381 0.0
O65 O 0.14476 0.35008 0.42479 0.0
O66 O 0.22986 0.37447 0.38728 0.0
O67 O 0.19496 0.3873 0.36312 0.0
H68 H 0.3935 0.44811 0.38347 0.0
H69 H 0.08626 0.36689 0.40346 0.0
O70 O 0.11517 0.43639 0.38243 0.0
H71 H 0.05681 0.24511 0.35774 0.0
H72 H 0.03719 0.38485 0.324 0.0
H73 H 0.20039 0.43827 0.33574 0.0
H74 H 0.11893 0.32414 0.35222 0.0
H75 H 0.06471 0.38517 0.35628 0.0
O76 O 0.22151 0.38655 0.4267 0.0
H77 H 0.31513 0.43395 0.37864 0.0
H78 H 0.30016 0.44567 0.43765 0.0
H79 H 0.17425 0.4381 0.3032 0.0
H80 H 0.02334 0.2884 0.40941 0.0
H81 H 0.0921 0.41125 0.29717 0.0
H82 H 0.0084 0.22681 0.38648 0.0
O83 O 0.20638 0.4758 0.36915 0.0
H84 H 0.20398 0.50743 0.45463 0.0
H85 H 0.31581 0.52438 0.4058 0.0
H86 H 0.33044 0.59084 0.42521 0.0
H87 H 0.27445 0.58258 0.44993 0.0
H88 H 0.19019 0.44221 0.43466 0.0
H89 H 0.37839 0.45978 0.44311 0.0
H90 H 0.42568 0.4612 0.4159 0.0
O91 O 0.2643 0.46905 0.38101 0.0
C92 C 0.21723 0.36918 0.37005 0.0
C93 C 0.37329 0.4477 0.39544 0.0
C94 C 0.36477 0.45417 0.42892 0.0
N95 N 0.30308 0.43916 0.40783 0.0
C96 C 0.32887 0.43977 0.39279 0.0
C97 C 0.32044 0.44605 0.42573 0.0
C98 C 0.3913 0.45499 0.41364 0.0
C99 C 0.0798 0.34034 0.39337 0.0
N100 N 0.10644 0.35009 0.37758 0.0
C101 C 0.0442 0.29593 0.39684 0.0
C102 C 0.03587 0.26138 0.38398 0.0
C103 C 0.06306 0.27161 0.36786 0.0
C104 C 0.09838 0.31641 0.36487 0.0
C105 C 0.07305 0.39654 0.32644 0.0
C106 C 0.16455 0.4263 0.33321 0.0
C107 C 0.08887 0.3969 0.3447 0.0
N108 N 0.13408 0.41143 0.34788 0.0
C109 C 0.14997 0.42639 0.31476 0.0
C110 C 0.10388 0.41136 0.31139 0.0
C111 C 0.24897 0.49006 0.37111 0.0
C112 C 0.22881 0.5114 0.444 0.0
C113 C 0.29111 0.52045 0.41645 0.0
C114 C 0.29968 0.55824 0.42745 0.0
C115 C 0.26828 0.55357 0.44132 0.0
N116 N 0.2524 0.47906 0.41921 0.0
C117 C 0.22138 0.47436 0.43273 0.0
Co118 Co 0.75263 0.16892 0.70735 0.0
Co119 Co 0.82395 0.25406 0.73747 0.0
O120 O 0.77364 0.1911 0.73312 0.0
C121 C 0.66608 0.13147 0.73041 0.0
O122 O 0.68671 0.16499 0.74254 0.0
C123 C 0.84034 0.1951 0.76434 0.0
O124 O 0.82689 0.16339 0.7513 0.0
O125 O 0.86518 0.24272 0.72093 0.0
O126 O 0.81653 0.20779 0.69708 0.0
H127 H 0.95575 0.40605 0.71758 0.0
H128 H 0.72969 0.1004 0.7377 0.0
O129 O 0.68755 0.1286 0.71615 0.0
H130 H 0.81961 0.06906 0.69124 0.0
H131 H 0.66127 0.05139 0.65775 0.0
H132 H 0.77083 0.21415 0.66992 0.0
H133 H 0.80282 0.13133 0.68586 0.0
H134 H 0.6887 0.07826 0.69006 0.0
O135 O 0.84371 0.23351 0.76052 0.0
H136 H 0.89124 0.32805 0.71262 0.0
H137 H 0.8647 0.31249 0.77165 0.0
H138 H 0.74462 0.18864 0.63736 0.0
H139 H 0.74508 0.03733 0.74351 0.0
H140 H 0.68943 0.10672 0.63111 0.0
H141 H 0.79051 0.02143 0.72021 0.0
O142 O 0.73991 0.21973 0.70347 0.0
H143 H 0.71035 0.21872 0.78998 0.0
H144 H 0.80004 0.328 0.73957 0.0
H145 H 0.74883 0.3427 0.75951 0.0
H146 H 0.70369 0.28797 0.785 0.0
H147 H 0.76119 0.20479 0.76946 0.0
H148 H 0.9291 0.39032 0.77724 0.0
H149 H 0.97507 0.43773 0.75008 0.0
O150 O 0.80518 0.27743 0.71501 0.0
C151 C 0.85718 0.23023 0.70368 0.0
C152 C 0.93592 0.38578 0.72953 0.0
C153 C 0.92099 0.37692 0.76301 0.0
N154 N 0.87407 0.31572 0.74181 0.0
C155 C 0.89927 0.34157 0.72681 0.0
C156 C 0.88463 0.33281 0.75975 0.0
C157 C 0.94676 0.40351 0.74777 0.0
C158 C 0.749 0.09334 0.72739 0.0
N159 N 0.76518 0.11943 0.71144 0.0
C160 C 0.75782 0.05774 0.7308 0.0
C161 C 0.78339 0.0489 0.71774 0.0
C162 C 0.79978 0.07565 0.7015 0.0
C163 C 0.79032 0.111 0.69857 0.0
C164 C 0.6854 0.08716 0.66028 0.0
C165 C 0.74702 0.1784 0.6673 0.0
C166 C 0.70099 0.10261 0.67856 0.0
N167 N 0.73163 0.14771 0.68186 0.0
C168 C 0.73221 0.16418 0.64884 0.0
C169 C 0.70122 0.11821 0.64534 0.0
C170 C 0.76847 0.26222 0.70535 0.0
C171 C 0.7299 0.24287 0.77894 0.0
C172 C 0.78014 0.3037 0.75048 0.0
C173 C 0.75138 0.31236 0.76181 0.0
C174 C 0.72612 0.28168 0.77612 0.0
N175 N 0.78362 0.26549 0.75331 0.0
C176 C 0.75897 0.23529 0.76733 0.0
Co177 Co 0.59876 0.75375 0.04148 0.0
Co178 Co 0.58016 0.82167 0.07216 0.0
O179 O 0.59031 0.76971 0.06726 0.0
C180 C 0.54593 0.66106 0.06152 0.0
O181 O 0.54709 0.67876 0.07815 0.0
C182 C 0.6458 0.82745 0.10209 0.0
O183 O 0.66622 0.81502 0.08959 0.0
O184 O 0.63808 0.8649 0.0585 0.0
O185 O 0.63219 0.81986 0.03418 0.0
H186 H 0.57331 0.96259 0.05496 0.0
H187 H 0.63109 0.72112 0.07429 0.0
O188 O 0.56452 0.68625 0.04709 0.0
H189 H 0.76657 0.80741 0.03382 0.0
H190 H 0.63155 0.66721 0.99171 0.0
H191 H 0.5905 0.78615 1.00353 0.0
H192 H 0.69239 0.79942 0.02489 0.0
H193 H 0.62274 0.68758 0.02429 0.0
O194 O 0.61318 0.83383 0.09706 0.0
H195 H 0.58426 0.89684 0.04889 0.0
H196 H 0.55535 0.85635 0.10641 0.0
H197 H 0.59937 0.76714 0.97076 0.0
H198 H 0.70414 0.72739 0.08354 0.0
H199 H 0.62004 0.70725 0.96467 0.0
H200 H 0.7728 0.77096 0.06328 0.0
O201 O 0.5397 0.74861 0.03384 0.0
H202 H 0.48195 0.69542 0.11747 0.0
H203 H 0.48404 0.80339 0.07005 0.0
H204 H 0.41131 0.74932 0.08558 0.0
H205 H 0.40997 0.69492 0.10954 0.0
H206 H 0.55382 0.74965 0.10141 0.0
H207 H 0.54433 0.92184 0.11311 0.0
H208 H 0.55322 0.97548 0.08727 0.0
O209 O 0.54576 0.81091 0.04788 0.0
C210 C 0.64848 0.85931 0.0417 0.0
C211 C 0.56931 0.93944 0.06634 0.0
C212 C 0.5531 0.9166 0.09897 0.0
N213 N 0.57046 0.87271 0.07726 0.0
C214 C 0.57541 0.90208 0.06298 0.0
C215 C 0.55953 0.87964 0.0951 0.0
C216 C 0.55807 0.94667 0.08447 0.0
C217 C 0.66018 0.73918 0.06514 0.0
N218 N 0.65683 0.759 0.04885 0.0
C219 C 0.70179 0.74307 0.07057 0.0
C220 C 0.74032 0.76764 0.05924 0.0
C221 C 0.73686 0.78812 0.04273 0.0
C222 C 0.69469 0.78354 0.03777 0.0
C223 C 0.6226 0.69341 0.99418 0.0
C224 C 0.59971 0.76022 1.00102 0.0
C225 C 0.61744 0.70501 0.0126 0.0
N226 N 0.60639 0.73826 0.01583 0.0
C227 C 0.6046 0.74952 0.98242 0.0
C228 C 0.61615 0.7159 0.97902 0.0
C229 C 0.52753 0.77843 0.03595 0.0
C230 C 0.48211 0.71902 0.10709 0.0
C231 C 0.48375 0.77967 0.08038 0.0
C232 C 0.44245 0.74922 0.08917 0.0
C233 C 0.44173 0.71873 0.10262 0.0
N234 N 0.52325 0.7798 0.08485 0.0
C235 C 0.52276 0.74993 0.09799 0.0
Co236 Co 0.83364 0.58154 0.38164 0.0
Co237 Co 0.76512 0.58882 0.41589 0.0
O238 O 0.82219 0.59046 0.40822 0.0
C239 C 0.86761 0.5284 0.40403 0.0
O240 O 0.83711 0.5202 0.41721 0.0
C241 C 0.83828 0.65606 0.44272 0.0
O242 O 0.87035 0.65171 0.4341 0.0
O243 O 0.77651 0.6376 0.39702 0.0
O244 O 0.79936 0.61218 0.37248 0.0
H245 H 0.61663 0.5849 0.40308 0.0
H246 H 0.91269 0.62605 0.40774 0.0
O247 O 0.86948 0.55104 0.38935 0.0
H248 H 0.94554 0.73883 0.35721 0.0
H249 H 0.92743 0.5772 0.32702 0.0
H250 H 0.77625 0.55145 0.34712 0.0
H251 H 0.87503 0.6636 0.35646 0.0
H252 H 0.91411 0.59073 0.36004 0.0
O253 O 0.79755 0.63655 0.43621 0.0
H254 H 0.68744 0.58473 0.39462 0.0
H255 H 0.72228 0.59121 0.45265 0.0
H256 H 0.78817 0.53771 0.31395 0.0
H257 H 0.9839 0.70069 0.40896 0.0
H258 H 0.86423 0.55062 0.3037 0.0
H259 H 1.00066 0.75776 0.38358 0.0
O260 O 0.77584 0.52134 0.38119 0.0
H261 H 0.80488 0.51128 0.4676 0.0
H262 H 0.68266 0.50056 0.42618 0.0
H263 H 0.66525 0.43889 0.44891 0.0
H264 H 0.72647 0.44417 0.47002 0.0
H265 H 0.82109 0.57109 0.44428 0.0
H266 H 0.65187 0.59161 0.46171 0.0
H267 H 0.5984 0.58831 0.43685 0.0
O268 O 0.72967 0.54058 0.39653 0.0
C269 C 0.78347 0.63641 0.37934 0.0
C270 C 0.63959 0.58622 0.41405 0.0
C271 C 0.65942 0.59009 0.44695 0.0
N272 N 0.70899 0.58782 0.42311 0.0
C273 C 0.67974 0.58607 0.40935 0.0
C274 C 0.69934 0.59 0.44172 0.0
C275 C 0.62942 0.5882 0.43299 0.0
C276 C 0.91981 0.6506 0.39661 0.0
N277 N 0.88961 0.64047 0.38209 0.0
C278 C 0.96016 0.69286 0.39739 0.0
C279 C 0.96952 0.72487 0.38316 0.0
C280 C 0.93859 0.71429 0.36837 0.0
C281 C 0.89857 0.6717 0.36807 0.0
C282 C 0.89416 0.57155 0.33131 0.0
C283 C 0.80951 0.55737 0.34277 0.0
C284 C 0.88637 0.57907 0.35 0.0
N285 N 0.84448 0.57214 0.35551 0.0
C286 C 0.81603 0.54944 0.32396 0.0
C287 C 0.85869 0.55664 0.31823 0.0
C288 C 0.73604 0.51381 0.38582 0.0
C289 C 0.77776 0.50876 0.45862 0.0
C290 C 0.70968 0.50313 0.43515 0.0
C291 C 0.69952 0.46807 0.44808 0.0
C292 C 0.73383 0.47107 0.45993 0.0
N293 N 0.75276 0.54039 0.43404 0.0
C294 C 0.78665 0.54308 0.44547 0.0
Co295 Co 0.2554 0.84213 0.71134 0.0
Co296 Co 0.20461 0.75464 0.74377 0.0
O297 O 0.24633 0.81882 0.73734 0.0
C298 C 0.34887 0.87541 0.72636 0.0
O299 O 0.33335 0.83457 0.73365 0.0
C300 C 0.18158 0.80678 0.77153 0.0
O301 O 0.1847 0.83445 0.75786 0.0
O302 O 0.15365 0.75691 0.73062 0.0
O303 O 0.18859 0.80061 0.70519 0.0
H304 H 0.08341 0.59272 0.72993 0.0
H305 H 0.28743 0.90792 0.74316 0.0
O306 O 0.32248 0.88441 0.71669 0.0
H307 H 0.17507 0.93388 0.70901 0.0
H308 H 0.32255 0.96494 0.66153 0.0
H309 H 0.22335 0.79999 0.67361 0.0
H310 H 0.19371 0.87588 0.69789 0.0
H311 H 0.30924 0.93478 0.69407 0.0
O312 O 0.18778 0.77325 0.76811 0.0
H313 H 0.13673 0.67367 0.72229 0.0
H314 H 0.18221 0.69958 0.77924 0.0
H315 H 0.23537 0.82874 0.64088 0.0
H316 H 0.27019 0.96664 0.75465 0.0
H317 H 0.28531 0.91177 0.63467 0.0
H318 H 0.21352 0.97982 0.73756 0.0
O319 O 0.26912 0.79443 0.7026 0.0
H320 H 0.33861 0.81365 0.78803 0.0
H321 H 0.2423 0.69117 0.74326 0.0
H322 H 0.30664 0.68959 0.759 0.0
H323 H 0.35526 0.75109 0.78162 0.0
H324 H 0.27432 0.81425 0.77174 0.0
H325 H 0.12894 0.61907 0.78754 0.0
H326 H 0.07925 0.56495 0.76277 0.0
O327 O 0.22056 0.73353 0.71988 0.0
C328 C 0.15265 0.77266 0.71434 0.0
C329 C 0.10496 0.61594 0.74084 0.0
C330 C 0.13048 0.63074 0.77318 0.0
N331 N 0.16279 0.69125 0.75026 0.0
C332 C 0.13531 0.66178 0.73658 0.0
C333 C 0.16048 0.67633 0.7684 0.0
C334 C 0.10262 0.60039 0.75927 0.0
C335 C 0.26311 0.91381 0.73553 0.0
N336 N 0.24175 0.88863 0.71984 0.0
C337 C 0.25333 0.94696 0.74215 0.0
C338 C 0.22146 0.95427 0.73258 0.0
C339 C 0.19984 0.92847 0.71657 0.0
C340 C 0.21043 0.89557 0.71037 0.0
C341 C 0.30065 0.9287 0.66406 0.0
C342 C 0.24488 0.83621 0.67104 0.0
C343 C 0.29307 0.91141 0.68245 0.0
N344 N 0.26528 0.86571 0.68575 0.0
C345 C 0.25167 0.85227 0.65247 0.0
C346 C 0.27973 0.89885 0.64899 0.0
C347 C 0.24845 0.75169 0.70611 0.0
C348 C 0.31761 0.78659 0.77824 0.0
C349 C 0.26349 0.71825 0.75295 0.0
C350 C 0.29977 0.71706 0.7619 0.0
C351 C 0.32699 0.75154 0.77461 0.0
N352 N 0.25454 0.75278 0.75655 0.0
C353 C 0.28101 0.78663 0.76904 0.0
Co354 Co 0.76261 0.60555 0.64019 0.0
Co355 Co 0.82653 0.58264 0.60894 0.0
O356 O 0.77806 0.59798 0.61419 0.0
C357 C 0.66952 0.5593 0.62012 0.0
O358 O 0.6863 0.55913 0.6034 0.0
C359 C 0.84198 0.65531 0.58068 0.0
O360 O 0.83214 0.67666 0.59373 0.0
O361 O 0.87247 0.63716 0.62354 0.0
O362 O 0.82827 0.63324 0.64788 0.0
H363 H 0.9585 0.55972 0.62568 0.0
H364 H 0.73506 0.64485 0.60847 0.0
O365 O 0.6955 0.57697 0.63439 0.0
H366 H 0.83004 0.77476 0.65029 0.0
H367 H 0.68224 0.64336 0.6911 0.0
H368 H 0.79009 0.58838 0.67768 0.0
H369 H 0.81489 0.69738 0.65815 0.0
H370 H 0.70207 0.63588 0.65825 0.0
O371 O 0.84308 0.61918 0.58482 0.0
H372 H 0.89701 0.57721 0.63205 0.0
H373 H 0.85895 0.55719 0.57415 0.0
H374 H 0.77152 0.59574 0.71073 0.0
H375 H 0.74862 0.72138 0.60024 0.0
H376 H 0.71723 0.62342 0.71762 0.0
H377 H 0.79658 0.78717 0.62119 0.0
O378 O 0.75111 0.54352 0.64639 0.0
H379 H 0.7001 0.49917 0.56183 0.0
H380 H 0.79961 0.48386 0.60873 0.0
H381 H 0.74225 0.41565 0.59159 0.0
H382 H 0.69207 0.42306 0.5679 0.0
H383 H 0.75756 0.56643 0.57944 0.0
H384 H 0.92023 0.53973 0.56714 0.0
H385 H 0.97043 0.54077 0.59302 0.0
O386 O 0.81103 0.54406 0.63242 0.0
C387 C 0.86755 0.64746 0.6404 0.0
C388 C 0.93678 0.55903 0.61429 0.0
C389 C 0.91534 0.54789 0.58143 0.0
N390 N 0.87426 0.56807 0.60351 0.0
C391 C 0.90183 0.56883 0.61781 0.0
C392 C 0.88077 0.55793 0.58548 0.0
C393 C 0.94348 0.54846 0.59596 0.0
C394 C 0.75518 0.6729 0.61786 0.0
N395 N 0.77349 0.66625 0.63392 0.0
C396 C 0.76311 0.71637 0.61303 0.0
C397 C 0.79012 0.75328 0.62476 0.0
C398 C 0.80893 0.74635 0.64107 0.0
C399 C 0.80031 0.70241 0.64542 0.0
C400 C 0.70603 0.63138 0.68828 0.0
C401 C 0.76665 0.60072 0.68056 0.0
C402 C 0.71733 0.62699 0.66971 0.0
N403 N 0.74756 0.61212 0.66605 0.0
C404 C 0.75617 0.6047 0.6993 0.0
C405 C 0.72568 0.62019 0.70315 0.0
C406 C 0.77689 0.52656 0.64369 0.0
C407 C 0.72181 0.49551 0.57209 0.0
C408 C 0.77774 0.48738 0.59853 0.0
C409 C 0.74541 0.44862 0.58882 0.0
C410 C 0.71729 0.45281 0.57552 0.0
N411 N 0.782 0.52918 0.59508 0.0
C412 C 0.75452 0.53351 0.58207 0.0
Co413 Co 0.18262 0.7501 0.97043 0.0
Co414 Co 0.24724 0.82425 0.93516 0.0
O415 O 0.19125 0.76865 0.94368 0.0
C416 C 0.13491 0.65957 0.94864 0.0
O417 O 0.1423 0.67943 0.93207 0.0
C418 C 0.17169 0.81458 0.90886 0.0
O419 O 0.14067 0.77834 0.91789 0.0
O420 O 0.23569 0.8621 0.95369 0.0
O421 O 0.21605 0.81559 0.97872 0.0
H422 H 0.3942 0.97192 0.94551 0.0
H423 H 0.10049 0.71605 0.94518 0.0
O424 O 0.14894 0.68305 0.96379 0.0
H425 H 0.07129 0.79255 0.99811 0.0
H426 H 0.09695 0.65457 0.02694 0.0
H427 H 0.24372 0.78154 1.00387 0.0
H428 H 0.14228 0.78882 0.99694 0.0
H429 H 0.10591 0.67885 0.99361 0.0
O430 O 0.21273 0.83685 0.91493 0.0
H431 H 0.32512 0.90078 0.95517 0.0
H432 H 0.28707 0.86682 0.8977 0.0
H433 H 0.23617 0.75846 0.0373 0.0
H434 H 0.02893 0.71839 0.94591 0.0
H435 H 0.16234 0.69457 0.04905 0.0
H436 H 0.0138 0.75695 0.97251 0.0
O437 O 0.24111 0.74915 0.96996 0.0
H438 H 0.2068 0.70195 0.88574 0.0
H439 H 0.33059 0.82025 0.92446 0.0
H440 H 0.34795 0.77467 0.90241 0.0
H441 H 0.2859 0.71522 0.88268 0.0
H442 H 0.19086 0.74748 0.90819 0.0
H443 H 0.35573 0.93775 0.88744 0.0
H444 H 0.40994 0.99082 0.91142 0.0
O445 O 0.28502 0.8145 0.9544 0.0
C446 C 0.23035 0.85504 0.97148 0.0
C447 C 0.37091 0.94902 0.93492 0.0
C448 C 0.34926 0.92988 0.90234 0.0
N449 N 0.30206 0.87951 0.92704 0.0
C450 C 0.33172 0.90861 0.9403 0.0
C451 C 0.31034 0.88982 0.90824 0.0
C452 C 0.37968 0.95963 0.9158 0.0
C453 C 0.09424 0.73232 0.95692 0.0
N454 N 0.12564 0.75167 0.97109 0.0
C455 C 0.05358 0.73381 0.95721 0.0
C456 C 0.04514 0.75551 0.97212 0.0
C457 C 0.07738 0.7755 0.98647 0.0
C458 C 0.11765 0.77334 0.98569 0.0
C459 C 0.12926 0.68252 0.022 0.0
C460 C 0.2114 0.75385 0.00887 0.0
C461 C 0.13457 0.69638 1.00313 0.0
N462 N 0.17521 0.73183 0.99681 0.0
C463 C 0.20736 0.74088 0.02782 0.0
C464 C 0.16595 0.70499 0.0344 0.0
C465 C 0.2802 0.78176 0.96495 0.0
C466 C 0.23425 0.72804 0.89412 0.0
C467 C 0.30326 0.79445 0.91601 0.0
C468 C 0.31338 0.76873 0.9035 0.0
C469 C 0.27858 0.73542 0.89244 0.0
N470 N 0.25978 0.78756 0.91744 0.0
C471 C 0.22544 0.75437 0.90682 0.0
Co472 Co 0.41409 0.17278 0.30682 0.0
Co473 Co 0.45026 0.25647 0.27259 0.0
O474 O 0.43173 0.19376 0.28056 0.0
C475 C 0.46662 0.12668 0.29272 0.0
O476 O 0.47677 0.14922 0.27672 0.0
C477 C 0.39603 0.19531 0.23978 0.0
O478 O 0.38896 0.15853 0.24887 0.0
O479 O 0.39232 0.24959 0.28293 0.0
O480 O 0.38543 0.21248 0.31006 0.0
H481 H 0.47233 0.41363 0.2823 0.0
H482 H 0.38536 0.10189 0.27661 0.0
O483 O 0.44265 0.13247 0.30523 0.0
H484 H 0.24228 0.07534 0.30669 0.0
H485 H 0.35522 0.05643 0.35933 0.0
H486 H 0.41627 0.2185 0.34292 0.0
H487 H 0.31682 0.13724 0.31784 0.0
H488 H 0.37607 0.08274 0.32643 0.0
O489 O 0.41913 0.23484 0.24723 0.0
H490 H 0.45092 0.33504 0.29159 0.0
H491 H 0.48663 0.31045 0.23703 0.0
H492 H 0.39546 0.19368 0.37596 0.0
H493 H 0.31171 0.03928 0.2652 0.0
H494 H 0.3647 0.11204 0.38436 0.0
H495 H 0.23935 0.02568 0.28022 0.0
O496 O 0.47343 0.22354 0.31598 0.0
H497 H 0.54792 0.21021 0.23498 0.0
H498 H 0.54836 0.32771 0.27639 0.0
H499 H 0.62144 0.33779 0.2645 0.0
H500 H 0.62161 0.27892 0.24352 0.0
H501 H 0.47586 0.20101 0.24749 0.0
H502 H 0.50813 0.38869 0.22711 0.0
H503 H 0.50119 0.44093 0.24985 0.0
O504 O 0.48175 0.28126 0.29745 0.0
C505 C 0.37539 0.23669 0.29939 0.0
C506 C 0.47563 0.39124 0.27228 0.0
C507 C 0.49567 0.37722 0.2413 0.0
N508 N 0.4678 0.31828 0.26491 0.0
C509 C 0.46366 0.34673 0.27747 0.0
C510 C 0.48334 0.33292 0.24698 0.0
C511 C 0.49178 0.40652 0.25406 0.0
C512 C 0.35428 0.09608 0.28338 0.0
N513 N 0.35568 0.12329 0.29793 0.0
C514 C 0.31253 0.06061 0.27678 0.0
C515 C 0.27194 0.05304 0.28519 0.0
C516 C 0.27356 0.08092 0.30002 0.0
C517 C 0.31594 0.11608 0.30622 0.0
C518 C 0.36858 0.09209 0.35585 0.0
C519 C 0.40279 0.18299 0.34644 0.0
C520 C 0.38059 0.10723 0.33725 0.0
N521 N 0.3973 0.15219 0.33273 0.0
C522 C 0.39112 0.16909 0.36518 0.0
C523 C 0.37389 0.1233 0.36989 0.0
C524 C 0.49256 0.26583 0.3118 0.0
C525 C 0.5483 0.23622 0.24404 0.0
C526 C 0.54796 0.30167 0.26739 0.0
C527 C 0.58956 0.30772 0.26063 0.0
C528 C 0.58964 0.27472 0.24886 0.0
N529 N 0.50742 0.26381 0.26259 0.0
C530 C 0.50737 0.23132 0.25109 0.0
Co531 Co 0.2444 0.41291 0.64041 0.0
Co532 Co 0.20887 0.44018 0.59921 0.0
O533 O 0.24401 0.41778 0.61289 0.0
C534 C 0.34289 0.46596 0.62961 0.0
O535 O 0.33269 0.49023 0.61823 0.0
C536 C 0.16005 0.36887 0.56982 0.0
O537 O 0.12178 0.36695 0.57513 0.0
O538 O 0.15173 0.39542 0.61295 0.0
O539 O 0.17733 0.39123 0.64179 0.0
H540 H 0.09281 0.49127 0.59305 0.0
H541 H 0.282 0.36699 0.61667 0.0
O542 O 0.31177 0.43431 0.63967 0.0
H543 H 0.15777 0.24389 0.65386 0.0
H544 H 0.29183 0.37425 0.70198 0.0
H545 H 0.20184 0.43574 0.67213 0.0
H546 H 0.17641 0.32393 0.65775 0.0
H547 H 0.2897 0.37993 0.66729 0.0
O548 O 0.19696 0.3938 0.57892 0.0
H549 H 0.13869 0.46417 0.60997 0.0
H550 H 0.20379 0.46335 0.55867 0.0
H551 H 0.20266 0.43035 0.70684 0.0
H552 H 0.26476 0.28743 0.61245 0.0
H553 H 0.24794 0.39941 0.722 0.0
H554 H 0.20222 0.22524 0.63112 0.0
O555 O 0.25813 0.47708 0.6435 0.0
H556 H 0.3552 0.48728 0.5638 0.0
H557 H 0.25418 0.53989 0.59027 0.0
H558 H 0.32622 0.59536 0.57461 0.0
H559 H 0.37726 0.5691 0.5612 0.0
H560 H 0.28326 0.43317 0.57985 0.0
H561 H 0.15852 0.49026 0.5412 0.0
H562 H 0.10254 0.50441 0.55841 0.0
O563 O 0.22201 0.48783 0.61898 0.0
C564 C 0.14498 0.38296 0.63029 0.0
C565 C 0.11709 0.48522 0.58539 0.0
C566 C 0.15398 0.48469 0.5563 0.0
N567 N 0.17383 0.4621 0.58534 0.0
C568 C 0.14316 0.46988 0.5949 0.0
C569 C 0.17952 0.46945 0.56627 0.0
C570 C 0.12257 0.4926 0.56596 0.0
C571 C 0.25494 0.34015 0.62493 0.0
N572 N 0.23045 0.35013 0.63752 0.0
C573 C 0.24524 0.29515 0.62244 0.0
C574 C 0.21011 0.26026 0.63291 0.0
C575 C 0.18514 0.2707 0.64566 0.0
C576 C 0.19579 0.31608 0.64777 0.0
C577 C 0.27198 0.38779 0.69554 0.0
C578 C 0.22151 0.42215 0.67861 0.0
C579 C 0.27077 0.39123 0.67591 0.0
N580 N 0.24559 0.40809 0.66769 0.0
C581 C 0.22189 0.41922 0.69828 0.0
C582 C 0.24732 0.40189 0.70677 0.0
C583 C 0.24376 0.50028 0.63461 0.0
C584 C 0.33324 0.49914 0.56957 0.0
C585 C 0.27648 0.52834 0.58468 0.0
C586 C 0.31707 0.55983 0.5757 0.0
C587 C 0.34564 0.54505 0.56815 0.0
N588 N 0.26463 0.4834 0.58611 0.0
C589 C 0.29234 0.46861 0.57862 0.0
Co590 Co 0.84246 0.23894 0.96861 0.0
Co591 Co 0.76814 0.19168 0.93164 0.0
O592 O 0.83004 0.23272 0.94127 0.0
C593 C 0.89289 0.33617 0.95491 0.0
O594 O 0.85746 0.32836 0.94454 0.0
C595 C 0.83299 0.18946 0.90216 0.0
O596 O 0.86926 0.21885 0.91163 0.0
O597 O 0.76708 0.13996 0.94568 0.0
O598 O 0.79402 0.17355 0.97364 0.0
H599 H 0.60366 0.06837 0.93855 0.0
H600 H 0.92023 0.26569 0.94233 0.0
O601 O 0.89187 0.30429 0.96492 0.0
H602 H 0.91661 0.14431 0.98227 0.0
H603 H 0.94328 0.29348 0.02625 0.0
H604 H 0.78432 0.21038 1.003 0.0
H605 H 0.86083 0.17024 0.98724 0.0
H606 H 0.92732 0.28358 0.99207 0.0
O607 O 0.79276 0.17533 0.90863 0.0
H608 H 0.6817 0.12236 0.9497 0.0
H609 H 0.72321 0.17079 0.8937 0.0
H610 H 0.7987 0.21907 0.03729 0.0
H611 H 0.97699 0.24109 0.93699 0.0
H612 H 0.87869 0.2609 0.04913 0.0
H613 H 0.97532 0.17987 0.95702 0.0
O614 O 0.79649 0.25859 0.9721 0.0
H615 H 0.83877 0.33408 0.89124 0.0
H616 H 0.70148 0.22428 0.92667 0.0
H617 H 0.70147 0.28819 0.91 0.0
H618 H 0.77034 0.34355 0.89197 0.0
H619 H 0.83766 0.27042 0.90835 0.0
H620 H 0.64575 0.117 0.88192 0.0
H621 H 0.58528 0.06545 0.90443 0.0
O622 O 0.74015 0.20644 0.9538 0.0
C623 C 0.77326 0.13795 0.96336 0.0
C624 C 0.62969 0.09074 0.92861 0.0
C625 C 0.65333 0.11798 0.89683 0.0
N626 N 0.70692 0.14991 0.9224 0.0
C627 C 0.67391 0.12147 0.93485 0.0
C628 C 0.69718 0.14826 0.90357 0.0
C629 C 0.61941 0.08909 0.90946 0.0
C630 C 0.91937 0.23913 0.95113 0.0
N631 N 0.88709 0.2193 0.96499 0.0
C632 C 0.95156 0.2253 0.94803 0.0
C633 C 0.95058 0.19093 0.95926 0.0
C634 C 0.91763 0.17094 0.97342 0.0
C635 C 0.88598 0.18564 0.97611 0.0
C636 C 0.90828 0.27516 0.02127 0.0
C637 C 0.81921 0.22849 0.00802 0.0
C638 C 0.89903 0.26959 1.00192 0.0
N639 N 0.85492 0.2463 0.99553 0.0
C640 C 0.82714 0.23336 0.02747 0.0
C641 C 0.87203 0.25686 0.0341 0.0
C642 C 0.75513 0.23755 0.96645 0.0
C643 C 0.80832 0.30987 0.89884 0.0
C644 C 0.73159 0.24797 0.9188 0.0
C645 C 0.73136 0.2842 0.90939 0.0
C646 C 0.76999 0.31525 0.8993 0.0
N647 N 0.76909 0.24243 0.91809 0.0
C648 C 0.8073 0.27322 0.90843 0.0
Co649 Co 0.59822 0.83481 0.30757 0.0
Co650 Co 0.56662 0.75421 0.27274 0.0
O651 O 0.58688 0.81746 0.28068 0.0
C652 C 0.556 0.88939 0.29165 0.0
O653 O 0.54658 0.86783 0.27544 0.0
C654 C 0.62591 0.81481 0.24036 0.0
O655 O 0.63303 0.85216 0.249 0.0
O656 O 0.62158 0.75821 0.2849 0.0
O657 O 0.62033 0.79003 0.31242 0.0
H658 H 0.53474 0.59378 0.28341 0.0
H659 H 0.64065 0.90801 0.27858 0.0
O660 O 0.57646 0.88038 0.30467 0.0
H661 H 0.76956 0.9194 0.31563 0.0
H662 H 0.65094 0.94351 0.36274 0.0
H663 H 0.57863 0.78205 0.34319 0.0
H664 H 0.69016 0.86138 0.32351 0.0
H665 H 0.63852 0.92266 0.32901 0.0
O666 O 0.60194 0.77565 0.2481 0.0
H667 H 0.55834 0.67297 0.29251 0.0
H668 H 0.535 0.70199 0.23656 0.0
H669 H 0.5909 0.80143 0.37706 0.0
H670 H 0.71945 0.96684 0.27033 0.0
H671 H 0.62729 0.88268 0.38703 0.0
H672 H 0.78465 0.97278 0.2889 0.0
O673 O 0.53437 0.78748 0.31341 0.0
H674 H 0.47957 0.80887 0.23265 0.0
H675 H 0.46735 0.68489 0.27337 0.0
H676 H 0.39772 0.67838 0.25925 0.0
H677 H 0.40348 0.74053 0.23862 0.0
H678 H 0.54804 0.81438 0.24728 0.0
H679 H 0.51163 0.62322 0.22681 0.0
H680 H 0.51118 0.56843 0.25034 0.0
O681 O 0.53009 0.72906 0.29677 0.0
C682 C 0.63347 0.76768 0.30213 0.0
C683 C 0.53469 0.6173 0.27304 0.0
C684 C 0.52178 0.63384 0.24126 0.0
N685 N 0.5478 0.69204 0.26512 0.0
C686 C 0.54792 0.66218 0.27812 0.0
C687 C 0.5352 0.67846 0.24686 0.0
C688 C 0.52151 0.60311 0.25448 0.0
C689 C 0.66869 0.91054 0.28682 0.0
N690 N 0.66064 0.88133 0.30154 0.0
C691 C 0.71332 0.94386 0.28204 0.0
C692 C 0.74989 0.94713 0.29245 0.0
C693 C 0.74145 0.91718 0.30744 0.0
C694 C 0.69638 0.88428 0.31179 0.0
C695 C 0.63514 0.908 0.35857 0.0
C696 C 0.59475 0.81751 0.3474 0.0
C697 C 0.62792 0.89597 0.33949 0.0
N698 N 0.60823 0.85119 0.33412 0.0
C699 C 0.60149 0.82826 0.36661 0.0
C700 C 0.62187 0.87385 0.37219 0.0
C701 C 0.51469 0.74521 0.30926 0.0
C702 C 0.47662 0.7814 0.24151 0.0
C703 C 0.47036 0.71227 0.26446 0.0
C704 C 0.43069 0.70828 0.25647 0.0
C705 C 0.43394 0.74312 0.24489 0.0
N706 N 0.51228 0.74983 0.26101 0.0
C707 C 0.51555 0.7842 0.24976 0.0
H708 H 0.27903 0.94861 0.96405 0.0
H709 H 0.21701 0.84996 0.00963 0.0
H710 H 0.24872 0.91215 0.03277 0.0
H711 H 0.38239 0.022 0.98776 0.0
H712 H 0.38802 0.07453 0.97881 0.0
H713 H 0.35775 0.02268 0.96527 0.0
H714 H 0.28617 0.03215 0.96426 0.0
H715 H 0.31635 0.08427 0.97768 0.0
H716 H 0.26217 0.03855 0.98605 0.0
H717 H 0.29234 0.9835 0.05148 0.0
H718 H 0.34039 0.06123 0.06433 0.0
H719 H 0.37266 0.11536 0.00724 0.0
C720 C 0.27135 0.94016 0.97885 0.0
C721 C 0.24528 0.89404 0.98486 0.0
C722 C 0.23668 0.88471 1.00448 0.0
C723 C 0.25466 0.91991 0.01785 0.0
C724 C 0.28107 0.96467 0.01153 0.0
C725 C 0.28899 0.97513 0.99252 0.0
C726 C 0.31972 0.02631 0.98972 0.0
C727 C 0.36463 0.03699 0.97981 0.0
C728 C 0.29459 0.04651 0.97878 0.0
C729 C 0.32811 0.0426 0.01012 0.0
C730 C 0.30559 0.00636 0.02244 0.0
C731 C 0.30969 0.01231 0.04198 0.0
C732 C 0.33724 0.05657 0.04916 0.0
C733 C 0.36006 0.09449 0.03685 0.0
C734 C 0.35521 0.0872 0.01705 0.0
H735 H 0.27217 0.33159 0.37774 0.0
H736 H 0.19797 0.35254 0.33233 0.0
H737 H 0.22796 0.3185 0.30978 0.0
H738 H 0.37202 0.35898 0.35113 0.0
H739 H 0.38169 0.31624 0.36196 0.0
H740 H 0.35264 0.34018 0.37492 0.0
H741 H 0.28374 0.25891 0.38054 0.0
H742 H 0.31265 0.23472 0.36762 0.0
H743 H 0.25613 0.22207 0.36061 0.0
H744 H 0.27058 0.28775 0.29152 0.0
H745 H 0.31929 0.25791 0.27929 0.0
H746 H 0.36338 0.25332 0.33641 0.0
C747 C 0.26164 0.32842 0.36311 0.0
C748 C 0.23249 0.34483 0.35692 0.0
C749 C 0.2201 0.34032 0.33756 0.0
C750 C 0.23702 0.32099 0.32457 0.0
C751 C 0.26614 0.30589 0.33107 0.0
C752 C 0.27806 0.30893 0.34991 0.0
C753 C 0.31081 0.29097 0.35306 0.0
C754 C 0.35702 0.32885 0.36072 0.0
C755 C 0.28955 0.24918 0.36624 0.0
C756 C 0.31557 0.27763 0.33305 0.0
C757 C 0.28972 0.28682 0.32057 0.0
C758 C 0.29046 0.2798 0.30119 0.0
C759 C 0.31829 0.26293 0.29436 0.0
C760 C 0.34463 0.25265 0.30688 0.0
C761 C 0.34289 0.2599 0.32651 0.0
H762 H 0.95041 0.28462 0.71039 0.0
H763 H 0.85194 0.2131 0.66569 0.0
H764 H 0.91411 0.24476 0.64226 0.0
H765 H 0.02189 0.3862 0.68422 0.0
H766 H 0.07483 0.3944 0.69398 0.0
H767 H 0.02273 0.36531 0.70757 0.0
H768 H 0.03415 0.29532 0.71137 0.0
H769 H 0.08644 0.32439 0.6979 0.0
H770 H 0.04159 0.26869 0.69063 0.0
H771 H 0.98653 0.28775 0.62312 0.0
H772 H 0.06509 0.33336 0.61031 0.0
H773 H 0.11704 0.37428 0.66729 0.0
C774 C 0.94193 0.27513 0.69572 0.0
C775 C 0.89595 0.24627 0.69001 0.0
C776 C 0.88663 0.23508 0.67057 0.0
C777 C 0.92179 0.25301 0.65706 0.0
C778 C 0.96646 0.28193 0.66309 0.0
C779 C 0.97678 0.29249 0.68198 0.0
C780 C 0.02779 0.32439 0.68464 0.0
C781 C 0.03736 0.37029 0.6931 0.0
C782 C 0.04872 0.30184 0.69686 0.0
C783 C 0.04435 0.33004 0.66433 0.0
C784 C 0.00838 0.30564 0.6521 0.0
C785 C 0.01506 0.30668 0.63259 0.0
C786 C 0.05978 0.33284 0.62542 0.0
C787 C 0.09739 0.35718 0.63774 0.0
C788 C 0.08921 0.35572 0.65746 0.0
H789 H 0.6752 0.95142 0.04705 0.0
H790 H 0.68247 0.85773 0.00695 0.0
H791 H 0.71518 0.91849 0.98322 0.0
H792 H 0.64303 0.00909 0.01447 0.0
H793 H 0.67762 0.06544 0.0243 0.0
H794 H 0.65763 0.01583 0.03921 0.0
H795 H 0.7408 0.04157 0.04922 0.0
H796 H 0.76113 0.09171 0.03457 0.0
H797 H 0.78351 0.0536 0.03134 0.0
H798 H 0.73895 0.98579 0.96237 0.0
H799 H 0.76283 0.06011 0.94705 0.0
H800 H 0.74577 0.11355 1.00032 0.0
C801 C 0.68466 0.94398 0.03344 0.0
C802 C 0.67582 0.89931 0.02902 0.0
C803 C 0.68848 0.89126 0.01087 0.0
C804 C 0.70711 0.92566 0.99715 0.0
C805 C 0.71374 0.96856 1.00168 0.0
C806 C 0.7039 0.97834 0.01947 0.0
C807 C 0.71409 0.02758 0.02033 0.0
C808 C 0.67049 0.02958 0.02484 0.0
C809 C 0.75215 0.05525 0.03472 0.0
C810 C 0.73038 0.04333 1.00022 0.0
C811 C 0.72944 0.00847 0.9897 0.0
C812 C 0.74055 0.01366 0.97052 0.0
C813 C 0.75377 0.05589 0.9619 0.0
C814 C 0.75648 0.0927 0.97247 0.0
C815 C 0.74453 0.08617 0.99191 0.0
H816 H 0.64394 0.7552 0.34002 0.0
H817 H 0.68722 0.74019 0.28396 0.0
H818 H 0.73367 0.71004 0.29805 0.0
H819 H 0.75094 0.78756 0.36451 0.0
H820 H 0.72315 0.75484 0.38541 0.0
H821 H 0.69511 0.7778 0.37115 0.0
H822 H 0.62456 0.69679 0.36765 0.0
H823 H 0.65232 0.67358 0.3819 0.0
H824 H 0.63211 0.65107 0.3586 0.0
H825 H 0.77378 0.68006 0.31775 0.0
H826 H 0.80201 0.64757 0.34156 0.0
H827 H 0.73202 0.67919 0.38553 0.0
C828 C 0.66359 0.74603 0.33072 0.0
C829 C 0.66215 0.75046 0.31082 0.0
C830 C 0.68774 0.73725 0.29919 0.0
C831 C 0.71439 0.72021 0.30708 0.0
C832 C 0.71492 0.71615 0.32666 0.0
C833 C 0.68998 0.7283 0.33837 0.0
C834 C 0.69483 0.71809 0.35892 0.0
C835 C 0.71735 0.76221 0.37069 0.0
C836 C 0.64818 0.68279 0.36725 0.0
C837 C 0.72633 0.69821 0.35689 0.0
C838 C 0.73764 0.69785 0.33814 0.0
C839 C 0.7653 0.68031 0.33248 0.0
C840 C 0.78126 0.66191 0.34623 0.0
C841 C 0.7696 0.66081 0.36559 0.0
C842 C 0.7421 0.67986 0.37095 0.0
H843 H 0.95967 0.67615 0.63344 0.0
H844 H 0.86735 0.67659 0.6763 0.0
H845 H 0.93037 0.71034 0.69897 0.0
H846 H 0.02423 0.6468 0.66382 0.0
H847 H 0.07894 0.68372 0.65293 0.0
H848 H 0.02724 0.6618 0.63921 0.0
H849 H 0.04834 0.7443 0.63005 0.0
H850 H 0.10026 0.76647 0.64368 0.0
H851 H 0.06015 0.78583 0.64837 0.0
H852 H 1.00009 0.73607 0.7183 0.0
H853 H 0.07617 0.76092 0.73217 0.0
H854 H 0.12697 0.75042 0.67716 0.0
C855 C 0.95293 0.68418 0.64747 0.0
C856 C 0.90811 0.67337 0.65293 0.0
C857 C 0.90098 0.68418 0.67158 0.0
C858 C 0.93668 0.70344 0.68469 0.0
C859 C 0.97991 0.71253 0.67905 0.0
C860 C 0.9886 0.7041 0.66084 0.0
C861 C 0.03851 0.7168 0.65877 0.0
C862 C 0.04245 0.67478 0.65337 0.0
C863 C 0.06328 0.75567 0.64436 0.0
C864 C 0.05596 0.73288 0.67871 0.0
C865 C 0.0213 0.72967 0.69017 0.0
C866 C 0.0278 0.73954 0.70942 0.0
C867 C 0.07101 0.75342 0.7172 0.0
C868 C 0.10745 0.75808 0.70572 0.0
C869 C 0.09985 0.74792 0.68618 0.0
H870 H 0.70499 0.20043 0.99837 0.0
H871 H 0.73026 0.29752 0.95354 0.0
H872 H 0.66942 0.31082 0.96638 0.0
H873 H 0.5846 0.15003 0.99945 0.0
H874 H 0.57945 0.1432 0.02475 0.0
H875 H 0.62663 0.1435 0.01268 0.0
H876 H 0.68405 0.20986 0.03399 0.0
H877 H 0.63695 0.20951 0.04621 0.0
H878 H 0.6809 0.2615 0.03552 0.0
H879 H 0.60298 0.3102 0.98334 0.0
H880 H 0.53766 0.29743 1.00348 0.0
H881 H 0.55694 0.20115 0.0374 0.0
C882 C 0.69813 0.22507 0.99153 0.0
C883 C 0.72221 0.2484 0.97514 0.0
C884 C 0.71206 0.27969 0.96621 0.0
C885 C 0.67768 0.28739 0.9734 0.0
C886 C 0.65403 0.26354 0.98954 0.0
C887 C 0.66404 0.23323 0.99858 0.0
C888 C 0.63279 0.21103 0.01537 0.0
C889 C 0.60418 0.15885 0.0129 0.0
C890 C 0.66032 0.22375 0.03387 0.0
C891 C 0.60321 0.23302 0.01421 0.0
C892 C 0.61602 0.2633 0.99928 0.0
C893 C 0.59288 0.28683 0.99517 0.0
C894 C 0.55575 0.27929 1.00668 0.0
C895 C 0.5421 0.24844 0.02211 0.0
C896 C 0.56644 0.22518 0.02582 0.0
H897 H 0.33084 0.50832 0.35595 0.0
H898 H 0.2431 0.56666 0.36424 0.0
H899 H 0.30237 0.63925 0.34981 0.0
H900 H 0.43763 0.60807 0.36534 0.0
H901 H 0.4684 0.59729 0.34711 0.0
H902 H 0.41924 0.55024 0.35813 0.0
H903 H 0.38132 0.52208 0.32535 0.0
H904 H 0.43049 0.56888 0.31421 0.0
H905 H 0.37418 0.56078 0.31007 0.0
H906 H 0.37387 0.70709 0.3365 0.0
H907 H 0.44763 0.76179 0.32147 0.0
H908 H 0.48547 0.65658 0.31942 0.0
C909 C 0.32409 0.53637 0.35465 0.0
C910 C 0.28261 0.53218 0.36128 0.0
C911 C 0.27464 0.56928 0.35917 0.0
C912 C 0.30818 0.61062 0.3511 0.0
C913 C 0.349 0.61383 0.3449 0.0
C914 C 0.35665 0.57737 0.34624 0.0
C915 C 0.40268 0.58905 0.33793 0.0
C916 C 0.43382 0.58599 0.35303 0.0
C917 C 0.3968 0.55838 0.32088 0.0
C918 C 0.42006 0.63803 0.33191 0.0
C919 C 0.3889 0.65192 0.33629 0.0
C920 C 0.39827 0.69641 0.33281 0.0
C921 C 0.44029 0.72729 0.32438 0.0
C922 C 0.47198 0.71326 0.31923 0.0
C923 C 0.46162 0.66804 0.32307 0.0
H924 H 0.83192 0.34508 0.69105 0.0
H925 H 0.68561 0.25515 0.69787 0.0
H926 H 0.67171 0.31395 0.68343 0.0
H927 H 0.83593 0.45042 0.70074 0.0
H928 H 0.87844 0.48229 0.68297 0.0
H929 H 0.87672 0.43333 0.69393 0.0
H930 H 0.86986 0.39679 0.66103 0.0
H931 H 0.87184 0.44577 0.64995 0.0
H932 H 0.82464 0.38928 0.64528 0.0
H933 H 0.67453 0.38475 0.67003 0.0
H934 H 0.69295 0.45817 0.65504 0.0
H935 H 0.83709 0.49901 0.65483 0.0
C936 C 0.79695 0.33776 0.68946 0.0
C937 C 0.75976 0.29579 0.69566 0.0
C938 C 0.71448 0.2871 0.69315 0.0
C939 C 0.70632 0.32034 0.68507 0.0
C940 C 0.74382 0.36163 0.67929 0.0
C941 C 0.78819 0.37006 0.68107 0.0
C942 C 0.8224 0.41649 0.67316 0.0
C943 C 0.8553 0.44745 0.68863 0.0
C944 C 0.84873 0.41178 0.65636 0.0
C945 C 0.7904 0.43316 0.66683 0.0
C946 C 0.74527 0.40129 0.67071 0.0
C947 C 0.70969 0.40975 0.66676 0.0
C948 C 0.72049 0.45161 0.65836 0.0
C949 C 0.76637 0.48407 0.65373 0.0
C950 C 0.80167 0.47462 0.65808 0.0
H951 H 0.28837 0.72677 0.99194 0.0
H952 H 0.36826 0.84297 0.95499 0.0
H953 H 0.43908 0.85025 0.96772 0.0
H954 H 0.3617 0.77242 0.03163 0.0
H955 H 0.35531 0.71868 0.03937 0.0
H956 H 0.30995 0.71971 0.02637 0.0
H957 H 0.31216 0.66439 1.00159 0.0
H958 H 0.35759 0.66322 0.01451 0.0
H959 H 0.36537 0.67923 0.98991 0.0
H960 H 0.50131 0.84953 0.98558 0.0
H961 H 0.55205 0.83974 0.00793 0.0
H962 H 0.43424 0.72394 0.03341 0.0
C963 C 0.32074 0.75328 0.98633 0.0
C964 C 0.32244 0.78393 0.97227 0.0
C965 C 0.36567 0.81868 0.96558 0.0
C966 C 0.40632 0.8232 0.97273 0.0
C967 C 0.40347 0.7928 0.98662 0.0
C968 C 0.36196 0.75847 0.99339 0.0
C969 C 0.36903 0.73196 0.00908 0.0
C970 C 0.34773 0.73594 0.02771 0.0
C971 C 0.3499 0.68172 1.00342 0.0
C972 C 0.42094 0.75719 0.01013 0.0
C973 C 0.43995 0.79209 0.99696 0.0
C974 C 0.48698 0.82192 0.99576 0.0
C975 C 0.51546 0.81615 0.00844 0.0
C976 C 0.4968 0.78067 0.02196 0.0
C977 C 0.44908 0.7506 0.02281 0.0
H978 H 0.58653 0.31004 0.31299 0.0
H979 H 0.46693 0.29842 0.34114 0.0
H980 H 0.51662 0.35732 0.36414 0.0
H981 H 0.65657 0.33059 0.35561 0.0
H982 H 0.70904 0.37181 0.34425 0.0
H983 H 0.66422 0.32652 0.33061 0.0
H984 H 0.66359 0.38635 0.30791 0.0
H985 H 0.70832 0.4318 0.32148 0.0
H986 H 0.65531 0.43125 0.31738 0.0
H987 H 0.57771 0.41946 0.38263 0.0
H988 H 0.64735 0.48246 0.39623 0.0
H989 H 0.73016 0.45556 0.35684 0.0
C990 C 0.57113 0.31958 0.32424 0.0
C991 C 0.52308 0.29915 0.32577 0.0
C992 C 0.50367 0.31293 0.34021 0.0
C993 C 0.53162 0.34647 0.35322 0.0
C994 C 0.5789 0.366 0.35149 0.0
C995 C 0.59872 0.35325 0.33741 0.0
C996 C 0.65065 0.38138 0.33841 0.0
C997 C 0.67133 0.35074 0.34246 0.0
C998 C 0.67063 0.40935 0.32022 0.0
C999 C 0.65673 0.41213 0.35512 0.0
C1000 C 0.61474 0.40239 0.36238 0.0
C1001 C 0.61085 0.42707 0.37725 0.0
C1002 C 0.65088 0.46288 0.38493 0.0
C1003 C 0.69463 0.4738 0.37788 0.0
C1004 C 0.69742 0.44772 0.36279 0.0
H1005 H 0.22029 0.51462 0.66987 0.0
H1006 H 0.28583 0.58398 0.61779 0.0
H1007 H 0.29724 0.65676 0.63089 0.0
H1008 H 0.15884 0.57386 0.67714 0.0
H1009 H 0.16454 0.57613 0.70249 0.0
H1010 H 0.16445 0.53024 0.6895 0.0
H1011 H 0.24251 0.55032 0.70432 0.0
H1012 H 0.24284 0.5963 0.71737 0.0
H1013 H 0.29027 0.60768 0.70214 0.0
H1014 H 0.30062 0.72171 0.64959 0.0
H1015 H 0.29195 0.77334 0.6717 0.0
H1016 H 0.22062 0.66062 0.7111 0.0
C1017 C 0.23757 0.54529 0.66137 0.0
C1018 C 0.25234 0.54391 0.64284 0.0
C1019 C 0.27396 0.5844 0.63193 0.0
C1020 C 0.28084 0.6259 0.63932 0.0
C1021 C 0.26546 0.62613 0.65758 0.0
C1022 C 0.24398 0.58685 0.66843 0.0
C1023 C 0.22834 0.59588 0.6872 0.0
C1024 C 0.17594 0.56733 0.68919 0.0
C1025 C 0.25244 0.58702 0.70373 0.0
C1026 C 0.24434 0.64634 0.6852 0.0
C1027 C 0.2661 0.66324 0.6681 0.0
C1028 C 0.28369 0.70888 0.66303 0.0
C1029 C 0.27864 0.73798 0.67572 0.0
C1030 C 0.25571 0.72124 0.69322 0.0
C1031 C 0.23851 0.67472 0.69793 0.0
H1032 H 0.41389 0.14913 0.13089 0.0
H1033 H 0.33588 0.2163 0.1185 0.0
H1034 H 0.3253 0.22266 0.15279 0.0
H1035 H 0.34457 0.08391 0.17221 0.0
H1036 H 0.39385 0.08973 0.18461 0.0
H1037 H 0.39244 0.08799 0.15917 0.0
H1038 H 0.46873 0.16514 0.15805 0.0
H1039 H 0.47025 0.16731 0.18345 0.0
H1040 H 0.47283 0.21403 0.17013 0.0
H1041 H 0.33314 0.23134 0.18844 0.0
H1042 H 0.35012 0.23268 0.22261 0.0
H1043 H 0.41626 0.15322 0.21168 0.0
C1044 C 0.39385 0.16442 0.1354 0.0
C1045 C 0.37566 0.18224 0.12207 0.0
C1046 C 0.34973 0.20207 0.12848 0.0
C1047 C 0.34375 0.20601 0.14792 0.0
C1048 C 0.36303 0.18898 0.16072 0.0
C1049 C 0.38669 0.16767 0.15469 0.0
C1050 C 0.40463 0.15282 0.17125 0.0
C1051 C 0.38254 0.1005 0.17184 0.0
C1052 C 0.45722 0.17623 0.17068 0.0
C1053 C 0.38846 0.17017 0.18757 0.0
C1054 C 0.36486 0.19132 0.18122 0.0
C1055 C 0.35045 0.2138 0.1936 0.0
C1056 C 0.36028 0.21451 0.21293 0.0
C1057 C 0.38334 0.19205 0.21969 0.0
C1058 C 0.39723 0.16934 0.20687 0.0
H1059 H 0.11485 0.3427 0.45951 0.0
H1060 H 0.24653 0.35026 0.45385 0.0
H1061 H 0.24901 0.34127 0.48839 0.0
H1062 H 0.14387 0.41134 0.49886 0.0
H1063 H 0.08863 0.38147 0.51019 0.0
H1064 H 0.09277 0.37954 0.48492 0.0
H1065 H 0.04966 0.291 0.486 0.0
H1066 H 0.04524 0.29264 0.51134 0.0
H1067 H 0.07093 0.26225 0.50079 0.0
H1068 H 0.24241 0.34216 0.52357 0.0
H1069 H 0.22845 0.35515 0.55661 0.0
H1070 H 0.10155 0.34836 0.53974 0.0
C1071 C 0.14334 0.34066 0.46547 0.0
C1072 C 0.1801 0.34625 0.45395 0.0
C1073 C 0.21772 0.3454 0.46238 0.0
C1074 C 0.21937 0.34022 0.48199 0.0
C1075 C 0.1832 0.3361 0.49303 0.0
C1076 C 0.14581 0.33618 0.48508 0.0
C1077 C 0.11426 0.33688 0.50022 0.0
C1078 C 0.10965 0.37986 0.49844 0.0
C1079 C 0.06723 0.29308 0.49954 0.0
C1080 C 0.14034 0.33843 0.51791 0.0
C1081 C 0.17968 0.33728 0.51345 0.0
C1082 C 0.21127 0.3422 0.52725 0.0
C1083 C 0.20304 0.34957 0.54601 0.0
C1084 C 0.1636 0.35215 0.55085 0.0
C1085 C 0.13137 0.34532 0.53662 0.0
H1086 H 0.87891 0.25153 0.87439 0.0
H1087 H 0.79404 0.10633 0.88474 0.0
H1088 H 0.79469 0.09118 0.85048 0.0
H1089 H 0.81921 0.25125 0.83387 0.0
H1090 H 0.86854 0.29504 0.82158 0.0
H1091 H 0.86766 0.2937 0.84699 0.0
H1092 H 0.94311 0.29093 0.84714 0.0
H1093 H 0.94418 0.29227 0.82168 0.0
H1094 H 0.94631 0.24676 0.8341 0.0
H1095 H 0.80127 0.0926 0.81473 0.0
H1096 H 0.80577 0.11042 0.78064 0.0
H1097 H 0.88111 0.25533 0.79361 0.0
C1098 C 0.8618 0.2165 0.86945 0.0
C1099 C 0.83766 0.17987 0.88217 0.0
C1100 C 0.81357 0.13463 0.87519 0.0
C1101 C 0.81382 0.12579 0.85579 0.0
C1102 C 0.83754 0.16271 0.84352 0.0
C1103 C 0.86065 0.20724 0.85008 0.0
C1104 C 0.87862 0.24109 0.83385 0.0
C1105 C 0.85722 0.27208 0.83409 0.0
C1106 C 0.93118 0.26943 0.83422 0.0
C1107 C 0.86183 0.20877 0.81712 0.0
C1108 C 0.83896 0.16369 0.82297 0.0
C1109 C 0.81933 0.12779 0.81002 0.0
C1110 C 0.82225 0.13825 0.79065 0.0
C1111 C 0.84392 0.18426 0.7844 0.0
C1112 C 0.86454 0.2198 0.79789 0.0
H1113 H 0.62636 0.86984 0.13081 0.0
H1114 H 0.68488 0.78323 0.11982 0.0
H1115 H 0.69074 0.77424 0.15421 0.0
H1116 H 0.69697 0.92706 0.17292 0.0
H1117 H 0.65071 0.9293 0.18471 0.0
H1118 H 0.65412 0.93127 0.15928 0.0
H1119 H 0.57197 0.86169 0.1574 0.0
H1120 H 0.56837 0.85928 0.18278 0.0
H1121 H 0.55876 0.80962 0.16958 0.0
H1122 H 0.68022 0.76633 0.18978 0.0
H1123 H 0.66251 0.76743 0.22371 0.0
H1124 H 0.61734 0.86445 0.21175 0.0
C1125 C 0.64124 0.84969 0.13564 0.0
C1126 C 0.65528 0.82731 0.12259 0.0
C1127 C 0.67433 0.80107 0.1295 0.0
C1128 C 0.67759 0.7956 0.14904 0.0
C1129 C 0.6625 0.8173 0.16151 0.0
C1130 C 0.64555 0.84458 0.15508 0.0
C1131 C 0.63085 0.86348 0.1714 0.0
C1132 C 0.65991 0.9159 0.17212 0.0
C1133 C 0.57944 0.84755 0.17021 0.0
C1134 C 0.64113 0.84173 0.18803 0.0
C1135 C 0.65904 0.8149 0.18202 0.0
C1136 C 0.66734 0.78815 0.19466 0.0
C1137 C 0.65714 0.7889 0.21389 0.0
C1138 C 0.63975 0.8169 0.22036 0.0
C1139 C 0.63207 0.84392 0.20725 0.0
H1140 H 0.87735 0.62941 0.55134 0.0
H1141 H 0.81469 0.71147 0.56422 0.0
H1142 H 0.81321 0.72686 0.53013 0.0
H1143 H 0.94875 0.70015 0.51165 0.0
H1144 H 0.94077 0.65107 0.49844 0.0
H1145 H 0.94001 0.64958 0.5239 0.0
H1146 H 0.86 0.5765 0.52327 0.0
H1147 H 0.86051 0.57777 0.49786 0.0
H1148 H 0.81397 0.5772 0.51063 0.0
H1149 H 0.80879 0.72403 0.49423 0.0
H1150 H 0.80792 0.70853 0.45993 0.0
H1151 H 0.87917 0.63391 0.47066 0.0
C1152 C 0.86407 0.65133 0.54704 0.0
C1153 C 0.84623 0.66934 0.56051 0.0
C1154 C 0.82893 0.69762 0.55423 0.0
C1155 C 0.82783 0.70644 0.53486 0.0
C1156 C 0.84487 0.6874 0.52194 0.0
C1157 C 0.86332 0.66099 0.52782 0.0
C1158 C 0.87798 0.64319 0.51111 0.0
C1159 C 0.92998 0.66214 0.51129 0.0
C1160 C 0.85154 0.59056 0.5107 0.0
C1161 C 0.86409 0.6629 0.49486 0.0
C1162 C 0.84476 0.68807 0.50137 0.0
C1163 C 0.82506 0.70553 0.48898 0.0
C1164 C 0.82478 0.6967 0.46954 0.0
C1165 C 0.84491 0.67149 0.46262 0.0
C1166 C 0.86533 0.655 0.47548 0.0
H1167 H 0.13809 0.75014 0.88136 0.0
H1168 H 0.19368 0.8949 0.89113 0.0
H1169 H 0.19401 0.90763 0.8566 0.0
H1170 H 0.21015 0.76557 0.84375 0.0
H1171 H 0.1696 0.71622 0.83053 0.0
H1172 H 0.16487 0.71694 0.85582 0.0
H1173 H 0.08146 0.70052 0.85288 0.0
H1174 H 0.08558 0.69913 0.82753 0.0
H1175 H 0.0694 0.73721 0.83844 0.0
H1176 H 0.19337 0.90483 0.82068 0.0
H1177 H 0.19808 0.88823 0.78694 0.0
H1178 H 0.14997 0.74635 0.80108 0.0
C1179 C 0.14849 0.78418 0.87624 0.0
C1180 C 0.16421 0.82137 0.88886 0.0
C1181 C 0.18023 0.86589 0.88165 0.0
C1182 C 0.18062 0.87336 0.86208 0.0
C1183 C 0.16584 0.83605 0.84992 0.0
C1184 C 0.15041 0.79236 0.85676 0.0
C1185 C 0.14236 0.75916 0.84085 0.0
C1186 C 0.17361 0.73827 0.84286 0.0
C1187 C 0.09168 0.7218 0.83987 0.0
C1188 C 0.15593 0.79094 0.82398 0.0
C1189 C 0.16855 0.83498 0.82943 0.0
C1190 C 0.18331 0.87039 0.81627 0.0
C1191 C 0.18577 0.86064 0.79713 0.0
C1192 C 0.17441 0.81603 0.79136 0.0
C1193 C 0.15889 0.78081 0.80503 0.0
H1194 H 0.557 0.59916 0.08298 0.0
H1195 H 0.48821 0.61136 0.03351 0.0
H1196 H 0.45773 0.52962 0.0264 0.0
H1197 H 0.59307 0.5282 0.06109 0.0
H1198 H 0.58595 0.49369 0.08163 0.0
H1199 H 0.598 0.55167 0.08441 0.0
H1200 H 0.52524 0.5236 0.105 0.0
H1201 H 0.51316 0.46552 0.10241 0.0
H1202 H 0.47065 0.48047 0.09588 0.0
H1203 H 0.43715 0.44828 0.0238 0.0
H1204 H 0.42975 0.37205 0.02501 0.0
H1205 H 0.51594 0.412 0.07493 0.0
C1206 C 0.53449 0.5841 0.07098 0.0
C1207 C 0.52401 0.6111 0.05898 0.0
C1208 C 0.49599 0.59094 0.04297 0.0
C1209 C 0.47858 0.54461 0.03883 0.0
C1210 C 0.49011 0.51899 0.05067 0.0
C1211 C 0.51755 0.53788 0.06637 0.0
C1212 C 0.52756 0.50336 0.07581 0.0
C1213 C 0.57921 0.52025 0.07572 0.0
C1214 C 0.50797 0.4926 0.09597 0.0
C1215 C 0.50175 0.46241 0.06286 0.0
C1216 C 0.47997 0.47219 0.04862 0.0
C1217 C 0.45396 0.44015 0.0349 0.0
C1218 C 0.44997 0.39687 0.03572 0.0
C1219 C 0.47233 0.38596 0.05002 0.0
C1220 C 0.49866 0.41936 0.06375 0.0
H1221 H 0.91203 0.50725 0.37687 0.0
H1222 H 0.90465 0.52179 0.43743 0.0
H1223 H 0.96966 0.50805 0.44185 0.0
H1224 H 0.93817 0.41444 0.37964 0.0
H1225 H 0.97538 0.43421 0.35931 0.0
H1226 H 0.92835 0.44506 0.36107 0.0
H1227 H 0.98465 0.53174 0.35678 0.0
H1228 H 0.03189 0.52121 0.35515 0.0
H1229 H 0.03271 0.56054 0.37257 0.0
H1230 H 0.04019 0.49944 0.43921 0.0
H1231 H 0.10336 0.48568 0.43027 0.0
H1232 H 0.05988 0.46932 0.37179 0.0
C1233 C 0.92387 0.50711 0.39107 0.0
C1234 C 0.90341 0.51569 0.40683 0.0
C1235 C 0.91964 0.515 0.42519 0.0
C1236 C 0.95671 0.5075 0.42781 0.0
C1237 C 0.97657 0.4998 0.41195 0.0
C1238 C 0.96004 0.49853 0.39397 0.0
C1239 C 0.98658 0.48825 0.37934 0.0
C1240 C 0.95525 0.44278 0.36925 0.0
C1241 C 0.01036 0.5278 0.36512 0.0
C1242 C 0.02111 0.48463 0.39184 0.0
C1243 C 0.01521 0.49206 0.41058 0.0
C1244 C 0.04464 0.49289 0.42462 0.0
C1245 C 0.08056 0.48532 0.41941 0.0
C1246 C 0.08622 0.47609 0.4004 0.0
C1247 C 0.05598 0.47572 0.38648 0.0
H1248 H 0.59811 0.0873 0.7043 0.0
H1249 H 0.62701 0.09234 0.76418 0.0
H1250 H 0.54915 0.02658 0.76964 0.0
H1251 H 0.47978 0.06109 0.71057 0.0
H1252 H 0.45957 0.02495 0.68999 0.0
H1253 H 0.51772 0.07168 0.69086 0.0
H1254 H 0.54725 0.01549 0.68409 0.0
H1255 H 0.48922 0.96856 0.6833 0.0
H1256 H 0.52982 0.96666 0.69928 0.0
H1257 H 0.47044 0.95595 0.76796 0.0
H1258 H 0.39254 0.89314 0.76019 0.0
H1259 H 0.41139 0.93979 0.7021 0.0
C1260 C 0.58783 0.07463 0.71857 0.0
C1261 C 0.61848 0.09458 0.73384 0.0
C1262 C 0.60388 0.07755 0.75233 0.0
C1263 C 0.55987 0.04011 0.75553 0.0
C1264 C 0.53053 0.02088 0.74014 0.0
C1265 C 0.54354 0.03823 0.72208 0.0
C1266 C 0.50483 0.01258 0.70813 0.0
C1267 C 0.48957 0.04448 0.69937 0.0
C1268 C 0.51862 0.98945 0.6928 0.0
C1269 C 0.46824 0.97755 0.72109 0.0
C1270 C 0.48405 0.98244 0.73944 0.0
C1271 C 0.45746 0.95231 0.75371 0.0
C1272 C 0.41342 0.91665 0.74917 0.0
C1273 C 0.396 0.91207 0.73063 0.0
C1274 C 0.42376 0.94303 0.71645 0.0
H1275 H 0.60404 0.56134 0.59719 0.0
H1276 H 0.6229 0.51012 0.65064 0.0
H1277 H 0.54117 0.47856 0.65812 0.0
H1278 H 0.52881 0.59767 0.6154 0.0
H1279 H 0.49287 0.58232 0.59476 0.0
H1280 H 0.55197 0.59732 0.59246 0.0
H1281 H 0.52738 0.52 0.57598 0.0
H1282 H 0.46819 0.5049 0.57813 0.0
H1283 H 0.48705 0.46749 0.58754 0.0
H1284 H 0.45868 0.45403 0.6604 0.0
H1285 H 0.37993 0.44034 0.65795 0.0
H1286 H 0.4135 0.51109 0.60399 0.0
C1287 C 0.59057 0.54266 0.61026 0.0
C1288 C 0.61958 0.53762 0.62326 0.0
C1289 C 0.60116 0.51412 0.64047 0.0
C1290 C 0.55478 0.49602 0.64484 0.0
C1291 C 0.52718 0.50215 0.63195 0.0
C1292 C 0.5442 0.52503 0.61505 0.0
C1293 C 0.50736 0.5292 0.60437 0.0
C1294 C 0.52109 0.57963 0.60159 0.0
C1295 C 0.49688 0.50388 0.58538 0.0
C1296 C 0.46731 0.50536 0.61798 0.0
C1297 C 0.47953 0.4896 0.63368 0.0
C1298 C 0.44864 0.4662 0.64819 0.0
C1299 C 0.40394 0.45858 0.64666 0.0
C1300 C 0.39054 0.47481 0.63085 0.0
C1301 C 0.42282 0.49861 0.61634 0.0
H1302 H 0.06118 0.59972 0.92687 0.0
H1303 H 0.1433 0.60639 0.97519 0.0
H1304 H 0.0924 0.52391 0.98079 0.0
H1305 H 0.95425 0.52489 0.94827 0.0
H1306 H 0.92719 0.49302 0.92714 0.0
H1307 H 0.97264 0.55156 0.92542 0.0
H1308 H 0.01805 0.52721 0.90338 0.0
H1309 H 0.97256 0.46858 0.90494 0.0
H1310 H 0.03026 0.48351 0.91105 0.0
H1311 H 0.03186 0.44236 0.98215 0.0
H1312 H 0.96343 0.3662 0.97994 0.0
H1313 H 0.91642 0.41106 0.93171 0.0
C1314 C 0.06895 0.58345 0.93833 0.0
C1315 C 0.10661 0.60926 0.95044 0.0
C1316 C 0.11489 0.58717 0.96566 0.0
C1317 C 0.08618 0.54034 0.96895 0.0
C1318 C 0.04891 0.516 0.95701 0.0
C1319 C 0.03999 0.53663 0.94203 0.0
C1320 C 0.99562 0.50293 0.93225 0.0
C1321 C 0.96034 0.51907 0.93334 0.0
C1322 C 1.00468 0.4951 0.91169 0.0
C1323 C 0.98095 0.46041 0.9442 0.0
C1324 C 0.01261 0.46879 0.95824 0.0
C1325 C 1.00687 0.4353 0.97117 0.0
C1326 C 0.96775 0.39202 0.96978 0.0
C1327 C 0.93432 0.3824 0.95566 0.0
C1328 C 0.94119 0.41726 0.94269 0.0
H1329 H 0.53723 0.93903 0.26566 0.0
H1330 H 0.5456 0.91997 0.32588 0.0
H1331 H 0.5239 0.97828 0.3325 0.0
H1332 H 0.58573 0.06182 0.26802 0.0
H1333 H 0.5494 0.06359 0.24978 0.0
H1334 H 0.56441 0.01934 0.24959 0.0
H1335 H 0.47846 0.9576 0.24914 0.0
H1336 H 0.46319 1.00166 0.2493 0.0
H1337 H 0.44096 0.9579 0.26725 0.0
H1338 H 0.4986 0.0364 0.33282 0.0
H1339 H 0.47613 0.09447 0.32674 0.0
H1340 H 0.48865 0.0804 0.2664 0.0
C1341 C 0.53431 0.94704 0.28023 0.0
C1342 C 0.54291 0.92468 0.29525 0.0
C1343 C 0.53926 0.93659 0.31412 0.0
C1344 C 0.52684 0.96964 0.31805 0.0
C1345 C 0.51869 0.99108 0.30297 0.0
C1346 C 0.52266 0.98066 0.28443 0.0
C1347 C 0.5132 0.00989 0.2709 0.0
C1348 C 0.55573 0.04048 0.25886 0.0
C1349 C 0.47147 0.97997 0.25841 0.0
C1350 C 0.50299 0.03801 0.28474 0.0
C1351 C 0.50599 0.02624 0.30316 0.0
C1352 C 0.49654 0.04621 0.31846 0.0
C1353 C 0.48372 0.07912 0.31486 0.0
C1354 C 0.48102 0.09232 0.29612 0.0
C1355 C 0.49103 0.07152 0.28089 0.0
loop_
_geom_bond_atom_site_label_1
_geom_bond_atom_site_label_2
_geom_bond_distance
_geom_bond_site_symmetry_2
_ccdc_geom_bond_type
Co0 O2 2.143 . S
Co0 O8 2.074 . S
Co0 O11 2.093 . S
Co0 O24 2.097 . S
Co0 N41 2.151 . S
Co0 N49 2.214 1_554 S
Co1 O2 2.160 . S
Co1 O7 2.058 . S
Co1 O17 2.057 . S
Co1 O32 2.037 . S
Co1 N36 2.145 . S
Co1 N57 2.257 . S
O2 Co0 2.143 . S
O2 Co1 2.160 . S
C3 O4 1.278 . S
C3 O11 1.224 . S
O4 C3 1.278 . S
C5 O6 1.245 . S
C5 O17 1.232 . S
O6 C5 1.245 . S
O7 Co1 2.058 . S
O7 C33 1.269 . S
O8 Co0 2.074 . S
O8 C33 1.257 . S
H9 C34 0.930 . S
H10 C40 0.930 . S
O11 Co0 2.093 . S
O11 C3 1.224 . S
H12 C44 0.929 . S
H13 C46 0.930 . S
H14 C47 0.930 . S
H15 C45 0.929 . S
H16 C48 0.928 . S
O17 Co1 2.057 . S
O17 C5 1.232 . S
H18 C37 0.929 . S
H19 C38 0.929 . S
H20 C50 0.931 . S
H21 C42 0.929 . S
H22 C51 0.930 . S
H23 C43 0.931 . S
O24 Co0 2.097 . S
O24 C52 1.214 . S
H25 C53 0.929 . S
H26 C54 0.929 . S
H27 C55 0.930 . S
H28 C56 0.929 . S
H29 C58 0.930 . S
H30 C35 0.930 . S
H31 C39 0.930 . S
O32 Co1 2.037 . S
O32 C52 1.234 . S
C33 O7 1.269 . S
C33 O8 1.257 . S
C34 H9 0.930 . S
C34 C37 1.388 . S
C34 C39 1.418 . S
C35 H30 0.930 . S
C35 C38 1.404 . S
C35 C39 1.353 . S
N36 Co1 2.145 . S
N36 C37 1.397 . S
N36 C38 1.334 . S
C37 H18 0.929 . S
C37 C34 1.388 . S
C37 N36 1.397 . S
C38 H19 0.929 . S
C38 C35 1.404 . S
C38 N36 1.334 . S
C39 H31 0.930 . S
C39 C34 1.418 . S
C39 C35 1.353 . S
C40 H10 0.930 . S
C40 N41 1.330 . S
C40 C42 1.446 . S
N41 Co0 2.151 . S
N41 C40 1.330 . S
N41 C45 1.418 . S
C42 H21 0.929 . S
C42 C40 1.446 . S
C42 C43 1.332 . S
C43 H23 0.931 . S
C43 C42 1.332 . S
C43 C44 1.267 . S
C44 H12 0.929 . S
C44 C43 1.267 . S
C44 C45 1.251 . S
C45 H15 0.929 . S
C45 N41 1.418 . S
C45 C44 1.251 . S
C46 H13 0.930 . S
C46 C48 1.406 . S
C46 C51 1.261 . S
C47 H14 0.930 . S
C47 N49 1.325 . S
C47 C50 1.357 . S
C48 H16 0.928 . S
C48 C46 1.406 . S
C48 N49 1.261 . S
N49 Co0 2.214 1_556 S
N49 C47 1.325 . S
N49 C48 1.261 . S
C50 H20 0.931 . S
C50 C47 1.357 . S
C50 C51 1.312 . S
C51 H22 0.930 . S
C51 C46 1.261 . S
C51 C50 1.312 . S
C52 O24 1.214 . S
C52 O32 1.234 . S
C53 H25 0.929 . S
C53 C56 1.391 . S
C53 C58 1.391 . S
C54 H26 0.929 . S
C54 C55 1.390 . S
C54 N57 1.391 . S
C55 H27 0.930 . S
C55 C54 1.390 . S
C55 C56 1.392 . S
C56 H28 0.929 . S
C56 C53 1.391 . S
C56 C55 1.392 . S
N57 Co1 2.257 . S
N57 C54 1.391 . S
N57 C58 1.388 . S
C58 H29 0.930 . S
C58 C53 1.391 . S
C58 N57 1.388 . S
Co59 O61 2.143 . S
Co59 O67 2.074 . S
Co59 O70 2.093 . S
Co59 O83 2.097 . S
Co59 N100 2.151 . S
Co59 N108 2.214 . S
Co60 O61 2.160 . S
Co60 O66 2.058 . S
Co60 O76 2.057 . S
Co60 O91 2.037 . S
Co60 N95 2.145 . S
Co60 N116 2.257 . S
O61 Co59 2.143 . S
O61 Co60 2.160 . S
C62 O63 1.278 . S
C62 O70 1.224 . S
O63 C62 1.278 . S
C64 O65 1.245 . S
C64 O76 1.232 . S
O65 C64 1.245 . S
O66 Co60 2.058 . S
O66 C92 1.269 . S
O67 Co59 2.074 . S
O67 C92 1.257 . S
H68 C93 0.930 . S
H69 C99 0.930 . S
O70 Co59 2.093 . S
O70 C62 1.224 . S
H71 C103 0.929 . S
H72 C105 0.930 . S
H73 C106 0.930 . S
H74 C104 0.929 . S
H75 C107 0.928 . S
O76 Co60 2.057 . S
O76 C64 1.232 . S
H77 C96 0.929 . S
H78 C97 0.929 . S
H79 C109 0.931 . S
H80 C101 0.929 1_655 S
H81 C110 0.930 . S
H82 C102 0.931 1_655 S
O83 Co59 2.097 . S
O83 C111 1.214 . S
H84 C112 0.929 . S
H85 C113 0.929 . S
H86 C114 0.930 . S
H87 C115 0.929 . S
H88 C117 0.930 . S
H89 C94 0.930 . S
H90 C98 0.930 . S
O91 Co60 2.037 . S
O91 C111 1.234 . S
C92 O66 1.269 . S
C92 O67 1.257 . S
C93 H68 0.930 . S
C93 C96 1.388 . S
C93 C98 1.418 . S
C94 H89 0.930 . S
C94 C97 1.404 . S
C94 C98 1.353 . S
N95 Co60 2.145 . S
N95 C96 1.397 . S
N95 C97 1.334 . S
C96 H77 0.929 . S
C96 C93 1.388 . S
C96 N95 1.397 . S
C97 H78 0.929 . S
C97 C94 1.404 . S
C97 N95 1.334 . S
C98 H90 0.930 . S
C98 C93 1.418 . S
C98 C94 1.353 . S
C99 H69 0.930 . S
C99 N100 1.330 . S
C99 C101 1.446 . S
N100 Co59 2.151 . S
N100 C99 1.330 . S
N100 C104 1.418 . S
C101 H80 0.929 1_455 S
C101 C99 1.446 . S
C101 C102 1.332 . S
C102 H82 0.931 1_455 S
C102 C101 1.332 . S
C102 C103 1.267 . S
C103 H71 0.929 . S
C103 C102 1.267 . S
C103 C104 1.251 . S
C104 H74 0.929 . S
C104 N100 1.418 . S
C104 C103 1.251 . S
C105 H72 0.930 . S
C105 C107 1.406 . S
C105 C110 1.261 . S
C106 H73 0.930 . S
C106 N108 1.325 . S
C106 C109 1.357 . S
C107 H75 0.928 . S
C107 C105 1.406 . S
C107 N108 1.261 . S
N108 Co59 2.214 . S
N108 C106 1.325 . S
N108 C107 1.261 . S
C109 H79 0.931 . S
C109 C106 1.357 . S
C109 C110 1.312 . S
C110 H81 0.930 . S
C110 C105 1.261 . S
C110 C109 1.312 . S
C111 O83 1.214 . S
C111 O91 1.234 . S
C112 H84 0.929 . S
C112 C115 1.391 . S
C112 C117 1.391 . S
C113 H85 0.929 . S
C113 C114 1.390 . S
C113 N116 1.391 . S
C114 H86 0.930 . S
C114 C113 1.390 . S
C114 C115 1.392 . S
C115 H87 0.929 . S
C115 C112 1.391 . S
C115 C114 1.392 . S
N116 Co60 2.257 . S
N116 C113 1.391 . S
N116 C117 1.388 . S
C117 H88 0.930 . S
C117 C112 1.391 . S
C117 N116 1.388 . S
Co118 O120 2.143 . S
Co118 O126 2.074 . S
Co118 O129 2.093 . S
Co118 O142 2.097 . S
Co118 N159 2.151 . S
Co118 N167 2.214 . S
Co119 O120 2.160 . S
Co119 O125 2.058 . S
Co119 O135 2.057 . S
Co119 O150 2.037 . S
Co119 N154 2.145 . S
Co119 N175 2.257 . S
O120 Co118 2.143 . S
O120 Co119 2.160 . S
C121 O122 1.278 . S
C121 O129 1.224 . S
O122 C121 1.278 . S
C123 O124 1.245 . S
C123 O135 1.232 . S
O124 C123 1.245 . S
O125 Co119 2.058 . S
O125 C151 1.269 . S
O126 Co118 2.074 . S
O126 C151 1.257 . S
H127 C152 0.930 . S
H128 C158 0.930 . S
O129 Co118 2.093 . S
O129 C121 1.224 . S
H130 C162 0.929 . S
H131 C164 0.930 . S
H132 C165 0.930 . S
H133 C163 0.929 . S
H134 C166 0.928 . S
O135 Co119 2.057 . S
O135 C123 1.232 . S
H136 C155 0.929 . S
H137 C156 0.929 . S
H138 C168 0.931 . S
H139 C160 0.929 1_565 S
H140 C169 0.930 . S
H141 C161 0.931 1_565 S
O142 Co118 2.097 . S
O142 C170 1.214 . S
H143 C171 0.929 . S
H144 C172 0.929 . S
H145 C173 0.930 . S
H146 C174 0.929 . S
H147 C176 0.930 . S
H148 C153 0.930 . S
H149 C157 0.930 . S
O150 Co119 2.037 . S
O150 C170 1.234 . S
C151 O125 1.269 . S
C151 O126 1.257 . S
C152 H127 0.930 . S
C152 C155 1.388 . S
C152 C157 1.418 . S
C153 H148 0.930 . S
C153 C156 1.404 . S
C153 C157 1.353 . S
N154 Co119 2.145 . S
N154 C155 1.397 . S
N154 C156 1.334 . S
C155 H136 0.929 . S
C155 C152 1.388 . S
C155 N154 1.397 . S
C156 H137 0.929 . S
C156 C153 1.404 . S
C156 N154 1.334 . S
C157 H149 0.930 . S
C157 C152 1.418 . S
C157 C153 1.353 . S
C158 H128 0.930 . S
C158 N159 1.330 . S
C158 C160 1.446 . S
N159 Co118 2.151 . S
N159 C158 1.330 . S
N159 C163 1.418 . S
C160 H139 0.929 1_545 S
C160 C158 1.446 . S
C160 C161 1.332 . S
C161 H141 0.931 1_545 S
C161 C160 1.332 . S
C161 C162 1.267 . S
C162 H130 0.929 . S
C162 C161 1.267 . S
C162 C163 1.251 . S
C163 H133 0.929 . S
C163 N159 1.418 . S
C163 C162 1.251 . S
C164 H131 0.930 . S
C164 C166 1.406 . S
C164 C169 1.261 . S
C165 H132 0.930 . S
C165 N167 1.325 . S
C165 C168 1.357 . S
C166 H134 0.928 . S
C166 C164 1.406 . S
C166 N167 1.261 . S
N167 Co118 2.214 . S
N167 C165 1.325 . S
N167 C166 1.261 . S
C168 H138 0.931 . S
C168 C165 1.357 . S
C168 C169 1.312 . S
C169 H140 0.930 . S
C169 C164 1.261 . S
C169 C168 1.312 . S
C170 O142 1.214 . S
C170 O150 1.234 . S
C171 H143 0.929 . S
C171 C174 1.391 . S
C171 C176 1.391 . S
C172 H144 0.929 . S
C172 C173 1.390 . S
C172 N175 1.391 . S
C173 H145 0.930 . S
C173 C172 1.390 . S
C173 C174 1.392 . S
C174 H146 0.929 . S
C174 C171 1.391 . S
C174 C173 1.392 . S
N175 Co119 2.257 . S
N175 C172 1.391 . S
N175 C176 1.388 . S
C176 H147 0.930 . S
C176 C171 1.391 . S
C176 N175 1.388 . S
Co177 O179 2.143 . S
Co177 O185 2.074 . S
Co177 O188 2.093 . S
Co177 O201 2.097 . S
Co177 N218 2.151 . S
Co177 N226 2.214 1_554 S
Co178 O179 2.160 . S
Co178 O184 2.058 . S
Co178 O194 2.057 . S
Co178 O209 2.037 . S
Co178 N213 2.145 . S
Co178 N234 2.257 . S
O179 Co177 2.143 . S
O179 Co178 2.160 . S
C180 O181 1.278 . S
C180 O188 1.224 . S
O181 C180 1.278 . S
C182 O183 1.245 . S
C182 O194 1.232 . S
O183 C182 1.245 . S
O184 Co178 2.058 . S
O184 C210 1.269 . S
O185 Co177 2.074 . S
O185 C210 1.257 . S
H186 C211 0.930 . S
H187 C217 0.930 . S
O188 Co177 2.093 . S
O188 C180 1.224 . S
H189 C221 0.929 . S
H190 C223 0.930 . S
H191 C224 0.930 . S
H192 C222 0.929 . S
H193 C225 0.928 . S
O194 Co178 2.057 . S
O194 C182 1.232 . S
H195 C214 0.929 . S
H196 C215 0.929 . S
H197 C227 0.931 . S
H198 C219 0.929 . S
H199 C228 0.930 . S
H200 C220 0.931 . S
O201 Co177 2.097 . S
O201 C229 1.214 . S
H202 C230 0.929 . S
H203 C231 0.929 . S
H204 C232 0.930 . S
H205 C233 0.929 . S
H206 C235 0.930 . S
H207 C212 0.930 . S
H208 C216 0.930 . S
O209 Co178 2.037 . S
O209 C229 1.234 . S
C210 O184 1.269 . S
C210 O185 1.257 . S
C211 H186 0.930 . S
C211 C214 1.388 . S
C211 C216 1.418 . S
C212 H207 0.930 . S
C212 C215 1.404 . S
C212 C216 1.353 . S
N213 Co178 2.145 . S
N213 C214 1.397 . S
N213 C215 1.334 . S
C214 H195 0.929 . S
C214 C211 1.388 . S
C214 N213 1.397 . S
C215 H196 0.929 . S
C215 C212 1.404 . S
C215 N213 1.334 . S
C216 H208 0.930 . S
C216 C211 1.418 . S
C216 C212 1.353 . S
C217 H187 0.930 . S
C217 N218 1.330 . S
C217 C219 1.446 . S
N218 Co177 2.151 . S
N218 C217 1.330 . S
N218 C222 1.418 . S
C219 H198 0.929 . S
C219 C217 1.446 . S
C219 C220 1.332 . S
C220 H200 0.931 . S
C220 C219 1.332 . S
C220 C221 1.267 . S
C221 H189 0.929 . S
C221 C220 1.267 . S
C221 C222 1.251 . S
C222 H192 0.929 . S
C222 N218 1.418 . S
C222 C221 1.251 . S
C223 H190 0.930 . S
C223 C225 1.406 . S
C223 C228 1.261 . S
C224 H191 0.930 . S
C224 N226 1.325 . S
C224 C227 1.357 . S
C225 H193 0.928 . S
C225 C223 1.406 . S
C225 N226 1.261 . S
N226 Co177 2.214 1_556 S
N226 C224 1.325 . S
N226 C225 1.261 . S
C227 H197 0.931 . S
C227 C224 1.357 . S
C227 C228 1.312 . S
C228 H199 0.930 . S
C228 C223 1.261 . S
C228 C227 1.312 . S
C229 O201 1.214 . S
C229 O209 1.234 . S
C230 H202 0.929 . S
C230 C233 1.391 . S
C230 C235 1.391 . S
C231 H203 0.929 . S
C231 C232 1.390 . S
C231 N234 1.391 . S
C232 H204 0.930 . S
C232 C231 1.390 . S
C232 C233 1.392 . S
C233 H205 0.929 . S
C233 C230 1.391 . S
C233 C232 1.392 . S
N234 Co178 2.257 . S
N234 C231 1.391 . S
N234 C235 1.388 . S
C235 H206 0.930 . S
C235 C230 1.391 . S
C235 N234 1.388 . S
Co236 O238 2.143 . S
Co236 O244 2.074 . S
Co236 O247 2.093 . S
Co236 O260 2.097 . S
Co236 N277 2.151 . S
Co236 N285 2.214 . S
Co237 O238 2.160 . S
Co237 O243 2.058 . S
Co237 O253 2.057 . S
Co237 O268 2.037 . S
Co237 N272 2.145 . S
Co237 N293 2.257 . S
O238 Co236 2.143 . S
O238 Co237 2.160 . S
C239 O240 1.278 . S
C239 O247 1.224 . S
O240 C239 1.278 . S
C241 O242 1.245 . S
C241 O253 1.232 . S
O242 C241 1.245 . S
O243 Co237 2.058 . S
O243 C269 1.269 . S
O244 Co236 2.074 . S
O244 C269 1.257 . S
H245 C270 0.930 . S
H246 C276 0.930 . S
O247 Co236 2.093 . S
O247 C239 1.224 . S
H248 C280 0.929 . S
H249 C282 0.930 . S
H250 C283 0.930 . S
H251 C281 0.929 . S
H252 C284 0.928 . S
O253 Co237 2.057 . S
O253 C241 1.232 . S
H254 C273 0.929 . S
H255 C274 0.929 . S
H256 C286 0.931 . S
H257 C278 0.929 1_455 S
H258 C287 0.930 . S
H259 C279 0.931 1_455 S
O260 Co236 2.097 . S
O260 C288 1.214 . S
H261 C289 0.929 . S
H262 C290 0.929 . S
H263 C291 0.930 . S
H264 C292 0.929 . S
H265 C294 0.930 . S
H266 C271 0.930 . S
H267 C275 0.930 . S
O268 Co237 2.037 . S
O268 C288 1.234 . S
C269 O243 1.269 . S
C269 O244 1.257 . S
C270 H245 0.930 . S
C270 C273 1.388 . S
C270 C275 1.418 . S
C271 H266 0.930 . S
C271 C274 1.404 . S
C271 C275 1.353 . S
N272 Co237 2.145 . S
N272 C273 1.397 . S
N272 C274 1.334 . S
C273 H254 0.929 . S
C273 C270 1.388 . S
C273 N272 1.397 . S
C274 H255 0.929 . S
C274 C271 1.404 . S
C274 N272 1.334 . S
C275 H267 0.930 . S
C275 C270 1.418 . S
C275 C271 1.353 . S
C276 H246 0.930 . S
C276 N277 1.330 . S
C276 C278 1.446 . S
N277 Co236 2.151 . S
N277 C276 1.330 . S
N277 C281 1.418 . S
C278 H257 0.929 1_655 S
C278 C276 1.446 . S
C278 C279 1.332 . S
C279 H259 0.931 1_655 S
C279 C278 1.332 . S
C279 C280 1.267 . S
C280 H248 0.929 . S
C280 C279 1.267 . S
C280 C281 1.251 . S
C281 H251 0.929 . S
C281 N277 1.418 . S
C281 C280 1.251 . S
C282 H249 0.930 . S
C282 C284 1.406 . S
C282 C287 1.261 . S
C283 H250 0.930 . S
C283 N285 1.325 . S
C283 C286 1.357 . S
C284 H252 0.928 . S
C284 C282 1.406 . S
C284 N285 1.261 . S
N285 Co236 2.214 . S
N285 C283 1.325 . S
N285 C284 1.261 . S
C286 H256 0.931 . S
C286 C283 1.357 . S
C286 C287 1.312 . S
C287 H258 0.930 . S
C287 C282 1.261 . S
C287 C286 1.312 . S
C288 O260 1.214 . S
C288 O268 1.234 . S
C289 H261 0.929 . S
C289 C292 1.391 . S
C289 C294 1.391 . S
C290 H262 0.929 . S
C290 C291 1.390 . S
C290 N293 1.391 . S
C291 H263 0.930 . S
C291 C290 1.390 . S
C291 C292 1.392 . S
C292 H264 0.929 . S
C292 C289 1.391 . S
C292 C291 1.392 . S
N293 Co237 2.257 . S
N293 C290 1.391 . S
N293 C294 1.388 . S
C294 H265 0.930 . S
C294 C289 1.391 . S
C294 N293 1.388 . S
Co295 O297 2.143 . S
Co295 O303 2.074 . S
Co295 O306 2.093 . S
Co295 O319 2.097 . S
Co295 N336 2.151 . S
Co295 N344 2.214 . S
Co296 O297 2.160 . S
Co296 O302 2.058 . S
Co296 O312 2.057 . S
Co296 O327 2.037 . S
Co296 N331 2.145 . S
Co296 N352 2.257 . S
O297 Co295 2.143 . S
O297 Co296 2.160 . S
C298 O299 1.278 . S
C298 O306 1.224 . S
O299 C298 1.278 . S
C300 O301 1.245 . S
C300 O312 1.232 . S
O301 C300 1.245 . S
O302 Co296 2.058 . S
O302 C328 1.269 . S
O303 Co295 2.074 . S
O303 C328 1.257 . S
H304 C329 0.930 . S
H305 C335 0.930 . S
O306 Co295 2.093 . S
O306 C298 1.224 . S
H307 C339 0.929 . S
H308 C341 0.930 . S
H309 C342 0.930 . S
H310 C340 0.929 . S
H311 C343 0.928 . S
O312 Co296 2.057 . S
O312 C300 1.232 . S
H313 C332 0.929 . S
H314 C333 0.929 . S
H315 C345 0.931 . S
H316 C337 0.929 1_545 S
H317 C346 0.930 . S
H318 C338 0.931 1_545 S
O319 Co295 2.097 . S
O319 C347 1.214 . S
H320 C348 0.929 . S
H321 C349 0.929 . S
H322 C350 0.930 . S
H323 C351 0.929 . S
H324 C353 0.930 . S
H325 C330 0.930 . S
H326 C334 0.930 . S
O327 Co296 2.037 . S
O327 C347 1.234 . S
C328 O302 1.269 . S
C328 O303 1.257 . S
C329 H304 0.930 . S
C329 C332 1.388 . S
C329 C334 1.418 . S
C330 H325 0.930 . S
C330 C333 1.404 . S
C330 C334 1.353 . S
N331 Co296 2.145 . S
N331 C332 1.397 . S
N331 C333 1.334 . S
C332 H313 0.929 . S
C332 C329 1.388 . S
C332 N331 1.397 . S
C333 H314 0.929 . S
C333 C330 1.404 . S
C333 N331 1.334 . S
C334 H326 0.930 . S
C334 C329 1.418 . S
C334 C330 1.353 . S
C335 H305 0.930 . S
C335 N336 1.330 . S
C335 C337 1.446 . S
N336 Co295 2.151 . S
N336 C335 1.330 . S
N336 C340 1.418 . S
C337 H316 0.929 1_565 S
C337 C335 1.446 . S
C337 C338 1.332 . S
C338 H318 0.931 1_565 S
C338 C337 1.332 . S
C338 C339 1.267 . S
C339 H307 0.929 . S
C339 C338 1.267 . S
C339 C340 1.251 . S
C340 H310 0.929 . S
C340 N336 1.418 . S
C340 C339 1.251 . S
C341 H308 0.930 . S
C341 C343 1.406 . S
C341 C346 1.261 . S
C342 H309 0.930 . S
C342 N344 1.325 . S
C342 C345 1.357 . S
C343 H311 0.928 . S
C343 C341 1.406 . S
C343 N344 1.261 . S
N344 Co295 2.214 . S
N344 C342 1.325 . S
N344 C343 1.261 . S
C345 H315 0.931 . S
C345 C342 1.357 . S
C345 C346 1.312 . S
C346 H317 0.930 . S
C346 C341 1.261 . S
C346 C345 1.312 . S
C347 O319 1.214 . S
C347 O327 1.234 . S
C348 H320 0.929 . S
C348 C351 1.391 . S
C348 C353 1.391 . S
C349 H321 0.929 . S
C349 C350 1.390 . S
C349 N352 1.391 . S
C350 H322 0.930 . S
C350 C349 1.390 . S
C350 C351 1.392 . S
C351 H323 0.929 . S
C351 C348 1.391 . S
C351 C350 1.392 . S
N352 Co296 2.257 . S
N352 C349 1.391 . S
N352 C353 1.388 . S
C353 H324 0.930 . S
C353 C348 1.391 . S
C353 N352 1.388 . S
Co354 O356 2.143 . S
Co354 O362 2.074 . S
Co354 O365 2.093 . S
Co354 O378 2.097 . S
Co354 N395 2.151 . S
Co354 N403 2.214 . S
Co355 O356 2.160 . S
Co355 O361 2.058 . S
Co355 O371 2.057 . S
Co355 O386 2.037 . S
Co355 N390 2.145 . S
Co355 N411 2.257 . S
O356 Co354 2.143 . S
O356 Co355 2.160 . S
C357 O358 1.278 . S
C357 O365 1.224 . S
O358 C357 1.278 . S
C359 O360 1.245 . S
C359 O371 1.232 . S
O360 C359 1.245 . S
O361 Co355 2.058 . S
O361 C387 1.269 . S
O362 Co354 2.074 . S
O362 C387 1.257 . S
H363 C388 0.930 . S
H364 C394 0.930 . S
O365 Co354 2.093 . S
O365 C357 1.224 . S
H366 C398 0.929 . S
H367 C400 0.930 . S
H368 C401 0.930 . S
H369 C399 0.929 . S
H370 C402 0.928 . S
O371 Co355 2.057 . S
O371 C359 1.232 . S
H372 C391 0.929 . S
H373 C392 0.929 . S
H374 C404 0.931 . S
H375 C396 0.929 . S
H376 C405 0.930 . S
H377 C397 0.931 . S
O378 Co354 2.097 . S
O378 C406 1.214 . S
H379 C407 0.929 . S
H380 C408 0.929 . S
H381 C409 0.930 . S
H382 C410 0.929 . S
H383 C412 0.930 . S
H384 C389 0.930 . S
H385 C393 0.930 . S
O386 Co355 2.037 . S
O386 C406 1.234 . S
C387 O361 1.269 . S
C387 O362 1.257 . S
C388 H363 0.930 . S
C388 C391 1.388 . S
C388 C393 1.418 . S
C389 H384 0.930 . S
C389 C392 1.404 . S
C389 C393 1.353 . S
N390 Co355 2.145 . S
N390 C391 1.397 . S
N390 C392 1.334 . S
C391 H372 0.929 . S
C391 C388 1.388 . S
C391 N390 1.397 . S
C392 H373 0.929 . S
C392 C389 1.404 . S
C392 N390 1.334 . S
C393 H385 0.930 . S
C393 C388 1.418 . S
C393 C389 1.353 . S
C394 H364 0.930 . S
C394 N395 1.330 . S
C394 C396 1.446 . S
N395 Co354 2.151 . S
N395 C394 1.330 . S
N395 C399 1.418 . S
C396 H375 0.929 . S
C396 C394 1.446 . S
C396 C397 1.332 . S
C397 H377 0.931 . S
C397 C396 1.332 . S
C397 C398 1.267 . S
C398 H366 0.929 . S
C398 C397 1.267 . S
C398 C399 1.251 . S
C399 H369 0.929 . S
C399 N395 1.418 . S
C399 C398 1.251 . S
C400 H367 0.930 . S
C400 C402 1.406 . S
C400 C405 1.261 . S
C401 H368 0.930 . S
C401 N403 1.325 . S
C401 C404 1.357 . S
C402 H370 0.928 . S
C402 C400 1.406 . S
C402 N403 1.261 . S
N403 Co354 2.214 . S
N403 C401 1.325 . S
N403 C402 1.261 . S
C404 H374 0.931 . S
C404 C401 1.357 . S
C404 C405 1.312 . S
C405 H376 0.930 . S
C405 C400 1.261 . S
C405 C404 1.312 . S
C406 O378 1.214 . S
C406 O386 1.234 . S
C407 H379 0.929 . S
C407 C410 1.391 . S
C407 C412 1.391 . S
C408 H380 0.929 . S
C408 C409 1.390 . S
C408 N411 1.391 . S
C409 H381 0.930 . S
C409 C408 1.390 . S
C409 C410 1.392 . S
C410 H382 0.929 . S
C410 C407 1.391 . S
C410 C409 1.392 . S
N411 Co355 2.257 . S
N411 C408 1.391 . S
N411 C412 1.388 . S
C412 H383 0.930 . S
C412 C407 1.391 . S
C412 N411 1.388 . S
Co413 O415 2.143 . S
Co413 O421 2.074 . S
Co413 O424 2.093 . S
Co413 O437 2.097 . S
Co413 N454 2.151 . S
Co413 N462 2.214 1_556 S
Co414 O415 2.160 . S
Co414 O420 2.058 . S
Co414 O430 2.057 . S
Co414 O445 2.037 . S
Co414 N449 2.145 . S
Co414 N470 2.257 . S
O415 Co413 2.143 . S
O415 Co414 2.160 . S
C416 O417 1.278 . S
C416 O424 1.224 . S
O417 C416 1.278 . S
C418 O419 1.245 . S
C418 O430 1.232 . S
O419 C418 1.245 . S
O420 Co414 2.058 . S
O420 C446 1.269 . S
O421 Co413 2.074 . S
O421 C446 1.257 . S
H422 C447 0.930 . S
H423 C453 0.930 . S
O424 Co413 2.093 . S
O424 C416 1.224 . S
H425 C457 0.929 . S
H426 C459 0.930 . S
H427 C460 0.930 . S
H428 C458 0.929 . S
H429 C461 0.928 . S
O430 Co414 2.057 . S
O430 C418 1.232 . S
H431 C450 0.929 . S
H432 C451 0.929 . S
H433 C463 0.931 . S
H434 C455 0.929 1_655 S
H435 C464 0.930 . S
H436 C456 0.931 1_655 S
O437 Co413 2.097 . S
O437 C465 1.214 . S
H438 C466 0.929 . S
H439 C467 0.929 . S
H440 C468 0.930 . S
H441 C469 0.929 . S
H442 C471 0.930 . S
H443 C448 0.930 . S
H444 C452 0.930 . S
O445 Co414 2.037 . S
O445 C465 1.234 . S
C446 O420 1.269 . S
C446 O421 1.257 . S
C447 H422 0.930 . S
C447 C450 1.388 . S
C447 C452 1.418 . S
C448 H443 0.930 . S
C448 C451 1.404 . S
C448 C452 1.353 . S
N449 Co414 2.145 . S
N449 C450 1.397 . S
N449 C451 1.334 . S
C450 H431 0.929 . S
C450 C447 1.388 . S
C450 N449 1.397 . S
C451 H432 0.929 . S
C451 C448 1.404 . S
C451 N449 1.334 . S
C452 H444 0.930 . S
C452 C447 1.418 . S
C452 C448 1.353 . S
C453 H423 0.930 . S
C453 N454 1.330 . S
C453 C455 1.446 . S
N454 Co413 2.151 . S
N454 C453 1.330 . S
N454 C458 1.418 . S
C455 H434 0.929 1_455 S
C455 C453 1.446 . S
C455 C456 1.332 . S
C456 H436 0.931 1_455 S
C456 C455 1.332 . S
C456 C457 1.267 . S
C457 H425 0.929 . S
C457 C456 1.267 . S
C457 C458 1.251 . S
C458 H428 0.929 . S
C458 N454 1.418 . S
C458 C457 1.251 . S
C459 H426 0.930 . S
C459 C461 1.406 . S
C459 C464 1.261 . S
C460 H427 0.930 . S
C460 N462 1.325 . S
C460 C463 1.357 . S
C461 H429 0.928 . S
C461 C459 1.406 . S
C461 N462 1.261 . S
N462 Co413 2.214 1_554 S
N462 C460 1.325 . S
N462 C461 1.261 . S
C463 H433 0.931 . S
C463 C460 1.357 . S
C463 C464 1.312 . S
C464 H435 0.930 . S
C464 C459 1.261 . S
C464 C463 1.312 . S
C465 O437 1.214 . S
C465 O445 1.234 . S
C466 H438 0.929 . S
C466 C469 1.391 . S
C466 C471 1.391 . S
C467 H439 0.929 . S
C467 C468 1.390 . S
C467 N470 1.391 . S
C468 H440 0.930 . S
C468 C467 1.390 . S
C468 C469 1.392 . S
C469 H441 0.929 . S
C469 C466 1.391 . S
C469 C468 1.392 . S
N470 Co414 2.257 . S
N470 C467 1.391 . S
N470 C471 1.388 . S
C471 H442 0.930 . S
C471 C466 1.391 . S
C471 N470 1.388 . S
Co472 O474 2.143 . S
Co472 O480 2.074 . S
Co472 O483 2.093 . S
Co472 O496 2.097 . S
Co472 N513 2.151 . S
Co472 N521 2.214 . S
Co473 O474 2.160 . S
Co473 O479 2.058 . S
Co473 O489 2.057 . S
Co473 O504 2.037 . S
Co473 N508 2.145 . S
Co473 N529 2.257 . S
O474 Co472 2.143 . S
O474 Co473 2.160 . S
C475 O476 1.278 . S
C475 O483 1.224 . S
O476 C475 1.278 . S
C477 O478 1.245 . S
C477 O489 1.232 . S
O478 C477 1.245 . S
O479 Co473 2.058 . S
O479 C505 1.269 . S
O480 Co472 2.074 . S
O480 C505 1.257 . S
H481 C506 0.930 . S
H482 C512 0.930 . S
O483 Co472 2.093 . S
O483 C475 1.224 . S
H484 C516 0.929 . S
H485 C518 0.930 . S
H486 C519 0.930 . S
H487 C517 0.929 . S
H488 C520 0.928 . S
O489 Co473 2.057 . S
O489 C477 1.232 . S
H490 C509 0.929 . S
H491 C510 0.929 . S
H492 C522 0.931 . S
H493 C514 0.929 1_565 S
H494 C523 0.930 . S
H495 C515 0.931 1_565 S
O496 Co472 2.097 . S
O496 C524 1.214 . S
H497 C525 0.929 . S
H498 C526 0.929 . S
H499 C527 0.930 . S
H500 C528 0.929 . S
H501 C530 0.930 . S
H502 C507 0.930 . S
H503 C511 0.930 . S
O504 Co473 2.037 . S
O504 C524 1.234 . S
C505 O479 1.269 . S
C505 O480 1.257 . S
C506 H481 0.930 . S
C506 C509 1.388 . S
C506 C511 1.418 . S
C507 H502 0.930 . S
C507 C510 1.404 . S
C507 C511 1.353 . S
N508 Co473 2.145 . S
N508 C509 1.397 . S
N508 C510 1.334 . S
C509 H490 0.929 . S
C509 C506 1.388 . S
C509 N508 1.397 . S
C510 H491 0.929 . S
C510 C507 1.404 . S
C510 N508 1.334 . S
C511 H503 0.930 . S
C511 C506 1.418 . S
C511 C507 1.353 . S
C512 H482 0.930 . S
C512 N513 1.330 . S
C512 C514 1.446 . S
N513 Co472 2.151 . S
N513 C512 1.330 . S
N513 C517 1.418 . S
C514 H493 0.929 1_545 S
C514 C512 1.446 . S
C514 C515 1.332 . S
C515 H495 0.931 1_545 S
C515 C514 1.332 . S
C515 C516 1.267 . S
C516 H484 0.929 . S
C516 C515 1.267 . S
C516 C517 1.251 . S
C517 H487 0.929 . S
C517 N513 1.418 . S
C517 C516 1.251 . S
C518 H485 0.930 . S
C518 C520 1.406 . S
C518 C523 1.261 . S
C519 H486 0.930 . S
C519 N521 1.325 . S
C519 C522 1.357 . S
C520 H488 0.928 . S
C520 C518 1.406 . S
C520 N521 1.261 . S
N521 Co472 2.214 . S
N521 C519 1.325 . S
N521 C520 1.261 . S
C522 H492 0.931 . S
C522 C519 1.357 . S
C522 C523 1.312 . S
C523 H494 0.930 . S
C523 C518 1.261 . S
C523 C522 1.312 . S
C524 O496 1.214 . S
C524 O504 1.234 . S
C525 H497 0.929 . S
C525 C528 1.391 . S
C525 C530 1.391 . S
C526 H498 0.929 . S
C526 C527 1.390 . S
C526 N529 1.391 . S
C527 H499 0.930 . S
C527 C526 1.390 . S
C527 C528 1.392 . S
C528 H500 0.929 . S
C528 C525 1.391 . S
C528 C527 1.392 . S
N529 Co473 2.257 . S
N529 C526 1.391 . S
N529 C530 1.388 . S
C530 H501 0.930 . S
C530 C525 1.391 . S
C530 N529 1.388 . S
Co531 O533 2.143 . S
Co531 O539 2.074 . S
Co531 O542 2.093 . S
Co531 O555 2.097 . S
Co531 N572 2.151 . S
Co531 N580 2.214 . S
Co532 O533 2.160 . S
Co532 O538 2.058 . S
Co532 O548 2.057 . S
Co532 O563 2.037 . S
Co532 N567 2.145 . S
Co532 N588 2.257 . S
O533 Co531 2.143 . S
O533 Co532 2.160 . S
C534 O535 1.278 . S
C534 O542 1.224 . S
O535 C534 1.278 . S
C536 O537 1.245 . S
C536 O548 1.232 . S
O537 C536 1.245 . S
O538 Co532 2.058 . S
O538 C564 1.269 . S
O539 Co531 2.074 . S
O539 C564 1.257 . S
H540 C565 0.930 . S
H541 C571 0.930 . S
O542 Co531 2.093 . S
O542 C534 1.224 . S
H543 C575 0.929 . S
H544 C577 0.930 . S
H545 C578 0.930 . S
H546 C576 0.929 . S
H547 C579 0.928 . S
O548 Co532 2.057 . S
O548 C536 1.232 . S
H549 C568 0.929 . S
H550 C569 0.929 . S
H551 C581 0.931 . S
H552 C573 0.929 . S
H553 C582 0.930 . S
H554 C574 0.931 . S
O555 Co531 2.097 . S
O555 C583 1.214 . S
H556 C584 0.929 . S
H557 C585 0.929 . S
H558 C586 0.930 . S
H559 C587 0.929 . S
H560 C589 0.930 . S
H561 C566 0.930 . S
H562 C570 0.930 . S
O563 Co532 2.037 . S
O563 C583 1.234 . S
C564 O538 1.269 . S
C564 O539 1.257 . S
C565 H540 0.930 . S
C565 C568 1.388 . S
C565 C570 1.418 . S
C566 H561 0.930 . S
C566 C569 1.404 . S
C566 C570 1.353 . S
N567 Co532 2.145 . S
N567 C568 1.397 . S
N567 C569 1.334 . S
C568 H549 0.929 . S
C568 C565 1.388 . S
C568 N567 1.397 . S
C569 H550 0.929 . S
C569 C566 1.404 . S
C569 N567 1.334 . S
C570 H562 0.930 . S
C570 C565 1.418 . S
C570 C566 1.353 . S
C571 H541 0.930 . S
C571 N572 1.330 . S
C571 C573 1.446 . S
N572 Co531 2.151 . S
N572 C571 1.330 . S
N572 C576 1.418 . S
C573 H552 0.929 . S
C573 C571 1.446 . S
C573 C574 1.332 . S
C574 H554 0.931 . S
C574 C573 1.332 . S
C574 C575 1.267 . S
C575 H543 0.929 . S
C575 C574 1.267 . S
C575 C576 1.251 . S
C576 H546 0.929 . S
C576 N572 1.418 . S
C576 C575 1.251 . S
C577 H544 0.930 . S
C577 C579 1.406 . S
C577 C582 1.261 . S
C578 H545 0.930 . S
C578 N580 1.325 . S
C578 C581 1.357 . S
C579 H547 0.928 . S
C579 C577 1.406 . S
C579 N580 1.261 . S
N580 Co531 2.214 . S
N580 C578 1.325 . S
N580 C579 1.261 . S
C581 H551 0.931 . S
C581 C578 1.357 . S
C581 C582 1.312 . S
C582 H553 0.930 . S
C582 C577 1.261 . S
C582 C581 1.312 . S
C583 O555 1.214 . S
C583 O563 1.234 . S
C584 H556 0.929 . S
C584 C587 1.391 . S
C584 C589 1.391 . S
C585 H557 0.929 . S
C585 C586 1.390 . S
C585 N588 1.391 . S
C586 H558 0.930 . S
C586 C585 1.390 . S
C586 C587 1.392 . S
C587 H559 0.929 . S
C587 C584 1.391 . S
C587 C586 1.392 . S
N588 Co532 2.257 . S
N588 C585 1.391 . S
N588 C589 1.388 . S
C589 H560 0.930 . S
C589 C584 1.391 . S
C589 N588 1.388 . S
Co590 O592 2.143 . S
Co590 O598 2.074 . S
Co590 O601 2.093 . S
Co590 O614 2.097 . S
Co590 N631 2.151 . S
Co590 N639 2.214 1_556 S
Co591 O592 2.160 . S
Co591 O597 2.058 . S
Co591 O607 2.057 . S
Co591 O622 2.037 . S
Co591 N626 2.145 . S
Co591 N647 2.257 . S
O592 Co590 2.143 . S
O592 Co591 2.160 . S
C593 O594 1.278 . S
C593 O601 1.224 . S
O594 C593 1.278 . S
C595 O596 1.245 . S
C595 O607 1.232 . S
O596 C595 1.245 . S
O597 Co591 2.058 . S
O597 C623 1.269 . S
O598 Co590 2.074 . S
O598 C623 1.257 . S
H599 C624 0.930 . S
H600 C630 0.930 . S
O601 Co590 2.093 . S
O601 C593 1.224 . S
H602 C634 0.929 . S
H603 C636 0.930 . S
H604 C637 0.930 . S
H605 C635 0.929 . S
H606 C638 0.928 . S
O607 Co591 2.057 . S
O607 C595 1.232 . S
H608 C627 0.929 . S
H609 C628 0.929 . S
H610 C640 0.931 . S
H611 C632 0.929 1_455 S
H612 C641 0.930 . S
H613 C633 0.931 1_455 S
O614 Co590 2.097 . S
O614 C642 1.214 . S
H615 C643 0.929 . S
H616 C644 0.929 . S
H617 C645 0.930 . S
H618 C646 0.929 . S
H619 C648 0.930 . S
H620 C625 0.930 . S
H621 C629 0.930 . S
O622 Co591 2.037 . S
O622 C642 1.234 . S
C623 O597 1.269 . S
C623 O598 1.257 . S
C624 H599 0.930 . S
C624 C627 1.388 . S
C624 C629 1.418 . S
C625 H620 0.930 . S
C625 C628 1.404 . S
C625 C629 1.353 . S
N626 Co591 2.145 . S
N626 C627 1.397 . S
N626 C628 1.334 . S
C627 H608 0.929 . S
C627 C624 1.388 . S
C627 N626 1.397 . S
C628 H609 0.929 . S
C628 C625 1.404 . S
C628 N626 1.334 . S
C629 H621 0.930 . S
C629 C624 1.418 . S
C629 C625 1.353 . S
C630 H600 0.930 . S
C630 N631 1.330 . S
C630 C632 1.446 . S
N631 Co590 2.151 . S
N631 C630 1.330 . S
N631 C635 1.418 . S
C632 H611 0.929 1_655 S
C632 C630 1.446 . S
C632 C633 1.332 . S
C633 H613 0.931 1_655 S
C633 C632 1.332 . S
C633 C634 1.267 . S
C634 H602 0.929 . S
C634 C633 1.267 . S
C634 C635 1.251 . S
C635 H605 0.929 . S
C635 N631 1.418 . S
C635 C634 1.251 . S
C636 H603 0.930 . S
C636 C638 1.406 . S
C636 C641 1.261 . S
C637 H604 0.930 . S
C637 N639 1.325 . S
C637 C640 1.357 . S
C638 H606 0.928 . S
C638 C636 1.406 . S
C638 N639 1.261 . S
N639 Co590 2.214 1_554 S
N639 C637 1.325 . S
N639 C638 1.261 . S
C640 H610 0.931 . S
C640 C637 1.357 . S
C640 C641 1.312 . S
C641 H612 0.930 . S
C641 C636 1.261 . S
C641 C640 1.312 . S
C642 O614 1.214 . S
C642 O622 1.234 . S
C643 H615 0.929 . S
C643 C646 1.391 . S
C643 C648 1.391 . S
C644 H616 0.929 . S
C644 C645 1.390 . S
C644 N647 1.391 . S
C645 H617 0.930 . S
C645 C644 1.390 . S
C645 C646 1.392 . S
C646 H618 0.929 . S
C646 C643 1.391 . S
C646 C645 1.392 . S
N647 Co591 2.257 . S
N647 C644 1.391 . S
N647 C648 1.388 . S
C648 H619 0.930 . S
C648 C643 1.391 . S
C648 N647 1.388 . S
Co649 O651 2.143 . S
Co649 O657 2.074 . S
Co649 O660 2.093 . S
Co649 O673 2.097 . S
Co649 N690 2.151 . S
Co649 N698 2.214 . S
Co650 O651 2.160 . S
Co650 O656 2.058 . S
Co650 O666 2.057 . S
Co650 O681 2.037 . S
Co650 N685 2.145 . S
Co650 N706 2.257 . S
O651 Co649 2.143 . S
O651 Co650 2.160 . S
C652 O653 1.278 . S
C652 O660 1.224 . S
O653 C652 1.278 . S
C654 O655 1.245 . S
C654 O666 1.232 . S
O655 C654 1.245 . S
O656 Co650 2.058 . S
O656 C682 1.269 . S
O657 Co649 2.074 . S
O657 C682 1.257 . S
H658 C683 0.930 . S
H659 C689 0.930 . S
O660 Co649 2.093 . S
O660 C652 1.224 . S
H661 C693 0.929 . S
H662 C695 0.930 . S
H663 C696 0.930 . S
H664 C694 0.929 . S
H665 C697 0.928 . S
O666 Co650 2.057 . S
O666 C654 1.232 . S
H667 C686 0.929 . S
H668 C687 0.929 . S
H669 C699 0.931 . S
H670 C691 0.929 1_545 S
H671 C700 0.930 . S
H672 C692 0.931 1_545 S
O673 Co649 2.097 . S
O673 C701 1.214 . S
H674 C702 0.929 . S
H675 C703 0.929 . S
H676 C704 0.930 . S
H677 C705 0.929 . S
H678 C707 0.930 . S
H679 C684 0.930 . S
H680 C688 0.930 . S
O681 Co650 2.037 . S
O681 C701 1.234 . S
C682 O656 1.269 . S
C682 O657 1.257 . S
C683 H658 0.930 . S
C683 C686 1.388 . S
C683 C688 1.418 . S
C684 H679 0.930 . S
C684 C687 1.404 . S
C684 C688 1.353 . S
N685 Co650 2.145 . S
N685 C686 1.397 . S
N685 C687 1.334 . S
C686 H667 0.929 . S
C686 C683 1.388 . S
C686 N685 1.397 . S
C687 H668 0.929 . S
C687 C684 1.404 . S
C687 N685 1.334 . S
C688 H680 0.930 . S
C688 C683 1.418 . S
C688 C684 1.353 . S
C689 H659 0.930 . S
C689 N690 1.330 . S
C689 C691 1.446 . S
N690 Co649 2.151 . S
N690 C689 1.330 . S
N690 C694 1.418 . S
C691 H670 0.929 1_565 S
C691 C689 1.446 . S
C691 C692 1.332 . S
C692 H672 0.931 1_565 S
C692 C691 1.332 . S
C692 C693 1.267 . S
C693 H661 0.929 . S
C693 C692 1.267 . S
C693 C694 1.251 . S
C694 H664 0.929 . S
C694 N690 1.418 . S
C694 C693 1.251 . S
C695 H662 0.930 . S
C695 C697 1.406 . S
C695 C700 1.261 . S
C696 H663 0.930 . S
C696 N698 1.325 . S
C696 C699 1.357 . S
C697 H665 0.928 . S
C697 C695 1.406 . S
C697 N698 1.261 . S
N698 Co649 2.214 . S
N698 C696 1.325 . S
N698 C697 1.261 . S
C699 H669 0.931 . S
C699 C696 1.357 . S
C699 C700 1.312 . S
C700 H671 0.930 . S
C700 C695 1.261 . S
C700 C699 1.312 . S
C701 O673 1.214 . S
C701 O681 1.234 . S
C702 H674 0.929 . S
C702 C705 1.391 . S
C702 C707 1.391 . S
C703 H675 0.929 . S
C703 C704 1.390 . S
C703 N706 1.391 . S
C704 H676 0.930 . S
C704 C703 1.390 . S
C704 C705 1.392 . S
C705 H677 0.929 . S
C705 C702 1.391 . S
C705 C704 1.392 . S
N706 Co650 2.257 . S
N706 C703 1.391 . S
N706 C707 1.388 . S
C707 H678 0.930 . S
C707 C702 1.391 . S
C707 N706 1.388 . S
H708 C720 0.930 . S
H709 C722 0.947 . S
H710 C723 0.930 . S
H711 C727 0.959 . S
H712 C727 0.959 . S
H713 C727 0.961 . S
H714 C728 0.960 . S
H715 C728 0.961 . S
H716 C728 0.959 . S
H717 C731 0.929 1_565 S
H718 C732 0.931 . S
H719 C734 0.930 1_556 S
C720 H708 0.930 . S
C720 C721 1.399 . S
C720 C725 1.399 . S
C721 C720 1.399 . S
C721 C722 1.376 . S
C722 H709 0.947 . S
C722 C721 1.376 . S
C722 C723 1.388 1_556 S
C723 H710 0.930 . S
C723 C722 1.388 1_554 S
C723 C724 1.390 . S
C724 C723 1.390 . S
C724 C725 1.394 1_554 S
C724 C730 1.465 1_565 S
C725 C720 1.399 . S
C725 C724 1.394 1_556 S
C725 C726 1.516 1_565 S
C726 C725 1.516 1_545 S
C726 C727 1.502 . S
C726 C728 1.561 . S
C726 C729 1.490 1_556 S
C727 H711 0.959 . S
C727 H712 0.959 . S
C727 H713 0.961 . S
C727 C726 1.502 . S
C728 H714 0.960 . S
C728 H715 0.961 . S
C728 H716 0.959 . S
C728 C726 1.561 . S
C729 C726 1.490 1_554 S
C729 C730 1.421 . S
C729 C734 1.403 . S
C730 C724 1.465 1_545 S
C730 C729 1.421 . S
C730 C731 1.399 . S
C731 H717 0.929 1_545 S
C731 C730 1.399 . S
C731 C732 1.385 . S
C732 H718 0.931 . S
C732 C731 1.385 . S
C732 C733 1.389 . S
C733 C732 1.389 . S
C733 C734 1.387 . S
C734 H719 0.930 1_554 S
C734 C729 1.403 . S
C734 C733 1.387 . S
H735 C747 0.930 . S
H736 C749 0.930 . S
H737 C750 0.930 . S
H738 C754 0.959 . S
H739 C754 0.959 . S
H740 C754 0.961 . S
H741 C755 0.960 . S
H742 C755 0.961 . S
H743 C755 0.959 . S
H744 C758 0.929 . S
H745 C759 0.931 . S
H746 C761 0.930 . S
C747 H735 0.930 . S
C747 C748 1.399 . S
C747 C752 1.399 . S
C748 C747 1.399 . S
C748 C749 1.376 . S
C749 H736 0.930 . S
C749 C748 1.376 . S
C749 C750 1.388 . S
C750 H737 0.930 . S
C750 C749 1.388 . S
C750 C751 1.390 . S
C751 C750 1.390 . S
C751 C752 1.394 . S
C751 C757 1.465 . S
C752 C747 1.399 . S
C752 C751 1.394 . S
C752 C753 1.516 . S
C753 C752 1.516 . S
C753 C754 1.502 . S
C753 C755 1.561 . S
C753 C756 1.526 . S
C754 H738 0.959 . S
C754 H739 0.959 . S
C754 H740 0.961 . S
C754 C753 1.502 . S
C755 H741 0.960 . S
C755 H742 0.961 . S
C755 H743 0.959 . S
C755 C753 1.561 . S
C756 C753 1.526 . S
C756 C757 1.396 . S
C756 C761 1.390 . S
C757 C751 1.465 . S
C757 C756 1.396 . S
C757 C758 1.399 . S
C758 H744 0.929 . S
C758 C757 1.399 . S
C758 C759 1.385 . S
C759 H745 0.931 . S
C759 C758 1.385 . S
C759 C760 1.389 . S
C760 C759 1.389 . S
C760 C761 1.387 . S
C761 H746 0.930 . S
C761 C756 1.390 . S
C761 C760 1.387 . S
H762 C774 0.930 . S
H763 C776 0.930 . S
H764 C777 0.930 . S
H765 C781 0.959 . S
H766 C781 0.959 . S
H767 C781 0.961 . S
H768 C782 0.960 . S
H769 C782 0.961 . S
H770 C782 0.959 . S
H771 C785 0.929 . S
H772 C786 0.931 . S
H773 C788 0.930 . S
C774 H762 0.930 . S
C774 C775 1.399 . S
C774 C779 1.399 . S
C775 C774 1.399 . S
C775 C776 1.376 . S
C776 H763 0.930 . S
C776 C775 1.376 . S
C776 C777 1.388 . S
C777 H764 0.930 . S
C777 C776 1.388 . S
C777 C778 1.390 . S
C778 C777 1.390 . S
C778 C779 1.394 . S
C778 C784 1.465 1_655 S
C779 C774 1.399 . S
C779 C778 1.394 . S
C779 C780 1.516 1_655 S
C780 C779 1.516 1_455 S
C780 C781 1.502 . S
C780 C782 1.561 . S
C780 C783 1.526 . S
C781 H765 0.959 . S
C781 H766 0.959 . S
C781 H767 0.961 . S
C781 C780 1.502 . S
C782 H768 0.960 . S
C782 H769 0.961 . S
C782 H770 0.959 . S
C782 C780 1.561 . S
C783 C780 1.526 . S
C783 C784 1.396 . S
C783 C788 1.390 . S
C784 C778 1.465 1_455 S
C784 C783 1.396 . S
C784 C785 1.399 . S
C785 H771 0.929 . S
C785 C784 1.399 . S
C785 C786 1.385 . S
C786 H772 0.931 . S
C786 C785 1.385 . S
C786 C787 1.389 . S
C787 C786 1.389 . S
C787 C788 1.387 . S
C788 H773 0.930 . S
C788 C783 1.390 . S
C788 C787 1.387 . S
H789 C801 0.930 . S
H790 C803 0.930 . S
H791 C804 0.930 . S
H792 C808 0.959 . S
H793 C808 0.959 . S
H794 C808 0.961 . S
H795 C809 0.960 . S
H796 C809 0.961 . S
H797 C809 0.959 . S
H798 C812 0.929 1_565 S
H799 C813 0.931 . S
H800 C815 0.922 1_554 S
C801 H789 0.930 . S
C801 C802 1.399 . S
C801 C806 1.399 . S
C802 C801 1.399 . S
C802 C803 1.376 . S
C803 H790 0.930 . S
C803 C802 1.376 . S
C803 C804 1.388 1_554 S
C804 H791 0.930 . S
C804 C803 1.388 1_556 S
C804 C805 1.390 . S
C805 C804 1.390 . S
C805 C806 1.394 1_556 S
C805 C811 1.465 1_565 S
C806 C801 1.399 . S
C806 C805 1.394 1_554 S
C806 C807 1.516 1_565 S
C807 C806 1.516 1_545 S
C807 C808 1.502 . S
C807 C809 1.561 . S
C807 C810 1.483 1_554 S
C808 H792 0.959 . S
C808 H793 0.959 . S
C808 H794 0.961 . S
C808 C807 1.502 . S
C809 H795 0.960 . S
C809 H796 0.961 . S
C809 H797 0.959 . S
C809 C807 1.561 . S
C810 C807 1.483 1_556 S
C810 C811 1.425 . S
C810 C815 1.407 . S
C811 C805 1.465 1_545 S
C811 C810 1.425 . S
C811 C812 1.399 . S
C812 H798 0.929 1_545 S
C812 C811 1.399 . S
C812 C813 1.385 . S
C813 H799 0.931 . S
C813 C812 1.385 . S
C813 C814 1.389 . S
C814 C813 1.389 . S
C814 C815 1.387 . S
C815 H800 0.922 1_556 S
C815 C810 1.407 . S
C815 C814 1.387 . S
H816 C828 0.930 . S
H817 C830 0.930 . S
H818 C831 0.930 . S
H819 C835 0.959 . S
H820 C835 0.959 . S
H821 C835 0.961 . S
H822 C836 0.960 . S
H823 C836 0.961 . S
H824 C836 0.959 . S
H825 C839 0.929 . S
H826 C840 0.931 . S
H827 C842 0.930 . S
C828 H816 0.930 . S
C828 C829 1.399 . S
C828 C833 1.399 . S
C829 C828 1.399 . S
C829 C830 1.376 . S
C830 H817 0.930 . S
C830 C829 1.376 . S
C830 C831 1.388 . S
C831 H818 0.930 . S
C831 C830 1.388 . S
C831 C832 1.390 . S
C832 C831 1.390 . S
C832 C833 1.394 . S
C832 C838 1.465 . S
C833 C828 1.399 . S
C833 C832 1.394 . S
C833 C834 1.516 . S
C834 C833 1.516 . S
C834 C835 1.502 . S
C834 C836 1.561 . S
C834 C837 1.526 . S
C835 H819 0.959 . S
C835 H820 0.959 . S
C835 H821 0.961 . S
C835 C834 1.502 . S
C836 H822 0.960 . S
C836 H823 0.961 . S
C836 H824 0.959 . S
C836 C834 1.561 . S
C837 C834 1.526 . S
C837 C838 1.396 . S
C837 C842 1.390 . S
C838 C832 1.465 . S
C838 C837 1.396 . S
C838 C839 1.399 . S
C839 H825 0.929 . S
C839 C838 1.399 . S
C839 C840 1.385 . S
C840 H826 0.931 . S
C840 C839 1.385 . S
C840 C841 1.389 . S
C841 C840 1.389 . S
C841 C842 1.387 . S
C842 H827 0.930 . S
C842 C837 1.390 . S
C842 C841 1.387 . S
H843 C855 0.930 . S
H844 C857 0.930 . S
H845 C858 0.930 . S
H846 C862 0.959 . S
H847 C862 0.959 . S
H848 C862 0.961 . S
H849 C863 0.960 . S
H850 C863 0.961 . S
H851 C863 0.959 . S
H852 C866 0.929 1_655 S
H853 C867 0.931 . S
H854 C869 0.930 . S
C855 H843 0.930 . S
C855 C856 1.399 . S
C855 C860 1.399 . S
C856 C855 1.399 . S
C856 C857 1.376 . S
C857 H844 0.930 . S
C857 C856 1.376 . S
C857 C858 1.388 . S
C858 H845 0.930 . S
C858 C857 1.388 . S
C858 C859 1.390 . S
C859 C858 1.390 . S
C859 C860 1.394 . S
C859 C865 1.465 1_655 S
C860 C855 1.399 . S
C860 C859 1.394 . S
C860 C861 1.516 1_655 S
C861 C860 1.516 1_455 S
C861 C862 1.502 . S
C861 C863 1.561 . S
C861 C864 1.526 . S
C862 H846 0.959 . S
C862 H847 0.959 . S
C862 H848 0.961 . S
C862 C861 1.502 . S
C863 H849 0.960 . S
C863 H850 0.961 . S
C863 H851 0.959 . S
C863 C861 1.561 . S
C864 C861 1.526 . S
C864 C865 1.396 . S
C864 C869 1.390 . S
C865 C859 1.465 1_455 S
C865 C864 1.396 . S
C865 C866 1.399 . S
C866 H852 0.929 1_455 S
C866 C865 1.399 . S
C866 C867 1.385 . S
C867 H853 0.931 . S
C867 C866 1.385 . S
C867 C868 1.389 . S
C868 C867 1.389 . S
C868 C869 1.387 . S
C869 H854 0.930 . S
C869 C864 1.390 . S
C869 C868 1.387 . S
H870 C882 0.930 . S
H871 C884 0.930 . S
H872 C885 0.930 . S
H873 C889 0.959 . S
H874 C889 0.959 . S
H875 C889 0.961 . S
H876 C890 0.960 . S
H877 C890 0.961 . S
H878 C890 0.959 . S
H879 C893 0.929 . S
H880 C894 0.931 . S
H881 C896 0.930 . S
C882 H870 0.930 . S
C882 C883 1.399 . S
C882 C887 1.399 . S
C883 C882 1.399 . S
C883 C884 1.376 . S
C884 H871 0.930 . S
C884 C883 1.376 . S
C884 C885 1.388 . S
C885 H872 0.930 . S
C885 C884 1.388 . S
C885 C886 1.390 . S
C886 C885 1.390 . S
C886 C887 1.394 . S
C886 C892 1.465 . S
C887 C882 1.399 . S
C887 C886 1.394 . S
C887 C888 1.516 1_556 S
C888 C887 1.516 1_554 S
C888 C889 1.502 . S
C888 C890 1.561 1_554 S
C888 C891 1.526 . S
C889 H873 0.959 . S
C889 H874 0.959 . S
C889 H875 0.961 . S
C889 C888 1.502 . S
C890 H876 0.960 . S
C890 H877 0.961 . S
C890 H878 0.959 . S
C890 C888 1.561 1_556 S
C891 C888 1.526 . S
C891 C892 1.396 1_554 S
C891 C896 1.390 . S
C892 C886 1.465 . S
C892 C891 1.396 1_556 S
C892 C893 1.399 . S
C893 H879 0.929 . S
C893 C892 1.399 . S
C893 C894 1.385 1_556 S
C894 H880 0.931 . S
C894 C893 1.385 1_554 S
C894 C895 1.389 . S
C895 C894 1.389 . S
C895 C896 1.387 . S
C896 H881 0.930 . S
C896 C891 1.390 . S
C896 C895 1.387 . S
H897 C909 0.930 . S
H898 C911 0.930 . S
H899 C912 0.930 . S
H900 C916 0.959 . S
H901 C916 0.959 . S
H902 C916 0.961 . S
H903 C917 0.960 . S
H904 C917 0.961 . S
H905 C917 0.959 . S
H906 C920 0.929 . S
H907 C921 0.931 . S
H908 C923 0.930 . S
C909 H897 0.930 . S
C909 C910 1.399 . S
C909 C914 1.399 . S
C910 C909 1.399 . S
C910 C911 1.376 . S
C911 H898 0.930 . S
C911 C910 1.376 . S
C911 C912 1.388 . S
C912 H899 0.930 . S
C912 C911 1.388 . S
C912 C913 1.390 . S
C913 C912 1.390 . S
C913 C914 1.394 . S
C913 C919 1.465 . S
C914 C909 1.399 . S
C914 C913 1.394 . S
C914 C915 1.516 . S
C915 C914 1.516 . S
C915 C916 1.502 . S
C915 C917 1.561 . S
C915 C918 1.526 . S
C916 H900 0.959 . S
C916 H901 0.959 . S
C916 H902 0.961 . S
C916 C915 1.502 . S
C917 H903 0.960 . S
C917 H904 0.961 . S
C917 H905 0.959 . S
C917 C915 1.561 . S
C918 C915 1.526 . S
C918 C919 1.396 . S
C918 C923 1.390 . S
C919 C913 1.465 . S
C919 C918 1.396 . S
C919 C920 1.399 . S
C920 H906 0.929 . S
C920 C919 1.399 . S
C920 C921 1.385 . S
C921 H907 0.931 . S
C921 C920 1.385 . S
C921 C922 1.389 . S
C922 C921 1.389 . S
C922 C923 1.387 . S
C923 H908 0.930 . S
C923 C918 1.390 . S
C923 C922 1.387 . S
H924 C936 0.930 . S
H925 C938 0.930 . S
H926 C939 0.930 . S
H927 C943 0.959 . S
H928 C943 0.959 . S
H929 C943 0.961 . S
H930 C944 0.960 . S
H931 C944 0.961 . S
H932 C944 0.959 . S
H933 C947 0.929 . S
H934 C948 0.931 . S
H935 C950 0.930 . S
C936 H924 0.930 . S
C936 C937 1.399 . S
C936 C941 1.399 . S
C937 C936 1.399 . S
C937 C938 1.376 . S
C938 H925 0.930 . S
C938 C937 1.376 . S
C938 C939 1.388 . S
C939 H926 0.930 . S
C939 C938 1.388 . S
C939 C940 1.390 . S
C940 C939 1.390 . S
C940 C941 1.394 . S
C940 C946 1.465 . S
C941 C936 1.399 . S
C941 C940 1.394 . S
C941 C942 1.516 . S
C942 C941 1.516 . S
C942 C943 1.502 . S
C942 C944 1.561 . S
C942 C945 1.526 . S
C943 H927 0.959 . S
C943 H928 0.959 . S
C943 H929 0.961 . S
C943 C942 1.502 . S
C944 H930 0.960 . S
C944 H931 0.961 . S
C944 H932 0.959 . S
C944 C942 1.561 . S
C945 C942 1.526 . S
C945 C946 1.396 . S
C945 C950 1.390 . S
C946 C940 1.465 . S
C946 C945 1.396 . S
C946 C947 1.399 . S
C947 H933 0.929 . S
C947 C946 1.399 . S
C947 C948 1.385 . S
C948 H934 0.931 . S
C948 C947 1.385 . S
C948 C949 1.389 . S
C949 C948 1.389 . S
C949 C950 1.387 . S
C950 H935 0.930 . S
C950 C945 1.390 . S
C950 C949 1.387 . S
H951 C963 0.930 . S
H952 C965 0.930 . S
H953 C966 0.930 . S
H954 C970 0.959 . S
H955 C970 0.959 . S
H956 C970 0.961 . S
H957 C971 0.960 . S
H958 C971 0.961 . S
H959 C971 0.959 . S
H960 C974 0.929 . S
H961 C975 0.931 . S
H962 C977 0.930 . S
C963 H951 0.930 . S
C963 C964 1.399 . S
C963 C968 1.399 . S
C964 C963 1.399 . S
C964 C965 1.376 . S
C965 H952 0.930 . S
C965 C964 1.376 . S
C965 C966 1.388 . S
C966 H953 0.930 . S
C966 C965 1.388 . S
C966 C967 1.390 . S
C967 C966 1.390 . S
C967 C968 1.394 . S
C967 C973 1.465 . S
C968 C963 1.399 . S
C968 C967 1.394 . S
C968 C969 1.516 1_556 S
C969 C968 1.516 1_554 S
C969 C970 1.502 . S
C969 C971 1.561 1_554 S
C969 C972 1.526 . S
C970 H954 0.959 . S
C970 H955 0.959 . S
C970 H956 0.961 . S
C970 C969 1.502 . S
C971 H957 0.960 . S
C971 H958 0.961 . S
C971 H959 0.959 . S
C971 C969 1.561 1_556 S
C972 C969 1.526 . S
C972 C973 1.396 1_554 S
C972 C977 1.390 . S
C973 C967 1.465 . S
C973 C972 1.396 1_556 S
C973 C974 1.399 . S
C974 H960 0.929 . S
C974 C973 1.399 . S
C974 C975 1.385 1_556 S
C975 H961 0.931 . S
C975 C974 1.385 1_554 S
C975 C976 1.389 . S
C976 C975 1.389 . S
C976 C977 1.387 . S
C977 H962 0.930 . S
C977 C972 1.390 . S
C977 C976 1.387 . S
H978 C990 0.930 . S
H979 C992 0.930 . S
H980 C993 0.930 . S
H981 C997 0.959 . S
H982 C997 0.959 . S
H983 C997 0.961 . S
H984 C998 0.960 . S
H985 C998 0.961 . S
H986 C998 0.959 . S
H987 C1001 0.929 . S
H988 C1002 0.931 . S
H989 C1004 0.930 . S
C990 H978 0.930 . S
C990 C991 1.399 . S
C990 C995 1.399 . S
C991 C990 1.399 . S
C991 C992 1.376 . S
C992 H979 0.930 . S
C992 C991 1.376 . S
C992 C993 1.388 . S
C993 H980 0.930 . S
C993 C992 1.388 . S
C993 C994 1.390 . S
C994 C993 1.390 . S
C994 C995 1.394 . S
C994 C1000 1.465 . S
C995 C990 1.399 . S
C995 C994 1.394 . S
C995 C996 1.516 . S
C996 C995 1.516 . S
C996 C997 1.502 . S
C996 C998 1.561 . S
C996 C999 1.526 . S
C997 H981 0.959 . S
C997 H982 0.959 . S
C997 H983 0.961 . S
C997 C996 1.502 . S
C998 H984 0.960 . S
C998 H985 0.961 . S
C998 H986 0.959 . S
C998 C996 1.561 . S
C999 C996 1.526 . S
C999 C1000 1.396 . S
C999 C1004 1.390 . S
C1000 C994 1.465 . S
C1000 C999 1.396 . S
C1000 C1001 1.399 . S
C1001 H987 0.929 . S
C1001 C1000 1.399 . S
C1001 C1002 1.385 . S
C1002 H988 0.931 . S
C1002 C1001 1.385 . S
C1002 C1003 1.389 . S
C1003 C1002 1.389 . S
C1003 C1004 1.387 . S
C1004 H989 0.930 . S
C1004 C999 1.390 . S
C1004 C1003 1.387 . S
H1005 C1017 0.930 . S
H1006 C1019 0.930 . S
H1007 C1020 0.930 . S
H1008 C1024 0.959 . S
H1009 C1024 0.959 . S
H1010 C1024 0.961 . S
H1011 C1025 0.960 . S
H1012 C1025 0.961 . S
H1013 C1025 0.959 . S
H1014 C1028 0.929 . S
H1015 C1029 0.931 . S
H1016 C1031 0.930 . S
C1017 H1005 0.930 . S
C1017 C1018 1.399 . S
C1017 C1022 1.399 . S
C1018 C1017 1.399 . S
C1018 C1019 1.376 . S
C1019 H1006 0.930 . S
C1019 C1018 1.376 . S
C1019 C1020 1.388 . S
C1020 H1007 0.930 . S
C1020 C1019 1.388 . S
C1020 C1021 1.390 . S
C1021 C1020 1.390 . S
C1021 C1022 1.394 . S
C1021 C1027 1.465 . S
C1022 C1017 1.399 . S
C1022 C1021 1.394 . S
C1022 C1023 1.516 . S
C1023 C1022 1.516 . S
C1023 C1024 1.502 . S
C1023 C1025 1.561 . S
C1023 C1026 1.526 . S
C1024 H1008 0.959 . S
C1024 H1009 0.959 . S
C1024 H1010 0.961 . S
C1024 C1023 1.502 . S
C1025 H1011 0.960 . S
C1025 H1012 0.961 . S
C1025 H1013 0.959 . S
C1025 C1023 1.561 . S
C1026 C1023 1.526 . S
C1026 C1027 1.396 . S
C1026 C1031 1.390 . S
C1027 C1021 1.465 . S
C1027 C1026 1.396 . S
C1027 C1028 1.399 . S
C1028 H1014 0.929 . S
C1028 C1027 1.399 . S
C1028 C1029 1.385 . S
C1029 H1015 0.931 . S
C1029 C1028 1.385 . S
C1029 C1030 1.389 . S
C1030 C1029 1.389 . S
C1030 C1031 1.387 . S
C1031 H1016 0.930 . S
C1031 C1026 1.390 . S
C1031 C1030 1.387 . S
H1032 C1044 0.930 . S
H1033 C1046 0.930 . S
H1034 C1047 0.930 . S
H1035 C1051 0.959 . S
H1036 C1051 0.959 . S
H1037 C1051 0.961 . S
H1038 C1052 0.960 . S
H1039 C1052 0.961 . S
H1040 C1052 0.959 . S
H1041 C1055 0.929 . S
H1042 C1056 0.931 . S
H1043 C1058 0.930 . S
C1044 H1032 0.930 . S
C1044 C1045 1.399 . S
C1044 C1049 1.399 . S
C1045 C1044 1.399 . S
C1045 C1046 1.376 . S
C1046 H1033 0.930 . S
C1046 C1045 1.376 . S
C1046 C1047 1.388 . S
C1047 H1034 0.930 . S
C1047 C1046 1.388 . S
C1047 C1048 1.390 . S
C1048 C1047 1.390 . S
C1048 C1049 1.394 . S
C1048 C1054 1.465 . S
C1049 C1044 1.399 . S
C1049 C1048 1.394 . S
C1049 C1050 1.516 . S
C1050 C1049 1.516 . S
C1050 C1051 1.502 . S
C1050 C1052 1.561 . S
C1050 C1053 1.526 . S
C1051 H1035 0.959 . S
C1051 H1036 0.959 . S
C1051 H1037 0.961 . S
C1051 C1050 1.502 . S
C1052 H1038 0.960 . S
C1052 H1039 0.961 . S
C1052 H1040 0.959 . S
C1052 C1050 1.561 . S
C1053 C1050 1.526 . S
C1053 C1054 1.396 . S
C1053 C1058 1.390 . S
C1054 C1048 1.465 . S
C1054 C1053 1.396 . S
C1054 C1055 1.399 . S
C1055 H1041 0.929 . S
C1055 C1054 1.399 . S
C1055 C1056 1.385 . S
C1056 H1042 0.931 . S
C1056 C1055 1.385 . S
C1056 C1057 1.389 . S
C1057 C1056 1.389 . S
C1057 C1058 1.387 . S
C1058 H1043 0.930 . S
C1058 C1053 1.390 . S
C1058 C1057 1.387 . S
H1059 C1071 0.930 . S
H1060 C1073 0.930 . S
H1061 C1074 0.930 . S
H1062 C1078 0.959 . S
H1063 C1078 0.959 . S
H1064 C1078 0.961 . S
H1065 C1079 0.960 . S
H1066 C1079 0.961 . S
H1067 C1079 0.959 . S
H1068 C1082 0.929 . S
H1069 C1083 0.931 . S
H1070 C1085 0.930 . S
C1071 H1059 0.930 . S
C1071 C1072 1.399 . S
C1071 C1076 1.399 . S
C1072 C1071 1.399 . S
C1072 C1073 1.376 . S
C1073 H1060 0.930 . S
C1073 C1072 1.376 . S
C1073 C1074 1.388 . S
C1074 H1061 0.930 . S
C1074 C1073 1.388 . S
C1074 C1075 1.390 . S
C1075 C1074 1.390 . S
C1075 C1076 1.394 . S
C1075 C1081 1.465 . S
C1076 C1071 1.399 . S
C1076 C1075 1.394 . S
C1076 C1077 1.516 . S
C1077 C1076 1.516 . S
C1077 C1078 1.502 . S
C1077 C1079 1.561 . S
C1077 C1080 1.526 . S
C1078 H1062 0.959 . S
C1078 H1063 0.959 . S
C1078 H1064 0.961 . S
C1078 C1077 1.502 . S
C1079 H1065 0.960 . S
C1079 H1066 0.961 . S
C1079 H1067 0.959 . S
C1079 C1077 1.561 . S
C1080 C1077 1.526 . S
C1080 C1081 1.396 . S
C1080 C1085 1.390 . S
C1081 C1075 1.465 . S
C1081 C1080 1.396 . S
C1081 C1082 1.399 . S
C1082 H1068 0.929 . S
C1082 C1081 1.399 . S
C1082 C1083 1.385 . S
C1083 H1069 0.931 . S
C1083 C1082 1.385 . S
C1083 C1084 1.389 . S
C1084 C1083 1.389 . S
C1084 C1085 1.387 . S
C1085 H1070 0.930 . S
C1085 C1080 1.390 . S
C1085 C1084 1.387 . S
H1086 C1098 0.930 . S
H1087 C1100 0.930 . S
H1088 C1101 0.930 . S
H1089 C1105 0.959 . S
H1090 C1105 0.959 . S
H1091 C1105 0.961 . S
H1092 C1106 0.960 . S
H1093 C1106 0.961 . S
H1094 C1106 0.959 . S
H1095 C1109 0.929 . S
H1096 C1110 0.931 . S
H1097 C1112 0.930 . S
C1098 H1086 0.930 . S
C1098 C1099 1.399 . S
C1098 C1103 1.399 . S
C1099 C1098 1.399 . S
C1099 C1100 1.376 . S
C1100 H1087 0.930 . S
C1100 C1099 1.376 . S
C1100 C1101 1.388 . S
C1101 H1088 0.930 . S
C1101 C1100 1.388 . S
C1101 C1102 1.390 . S
C1102 C1101 1.390 . S
C1102 C1103 1.394 . S
C1102 C1108 1.465 . S
C1103 C1098 1.399 . S
C1103 C1102 1.394 . S
C1103 C1104 1.516 . S
C1104 C1103 1.516 . S
C1104 C1105 1.502 . S
C1104 C1106 1.561 . S
C1104 C1107 1.526 . S
C1105 H1089 0.959 . S
C1105 H1090 0.959 . S
C1105 H1091 0.961 . S
C1105 C1104 1.502 . S
C1106 H1092 0.960 . S
C1106 H1093 0.961 . S
C1106 H1094 0.959 . S
C1106 C1104 1.561 . S
C1107 C1104 1.526 . S
C1107 C1108 1.396 . S
C1107 C1112 1.390 . S
C1108 C1102 1.465 . S
C1108 C1107 1.396 . S
C1108 C1109 1.399 . S
C1109 H1095 0.929 . S
C1109 C1108 1.399 . S
C1109 C1110 1.385 . S
C1110 H1096 0.931 . S
C1110 C1109 1.385 . S
C1110 C1111 1.389 . S
C1111 C1110 1.389 . S
C1111 C1112 1.387 . S
C1112 H1097 0.930 . S
C1112 C1107 1.390 . S
C1112 C1111 1.387 . S
H1113 C1125 0.930 . S
H1114 C1127 0.930 . S
H1115 C1128 0.930 . S
H1116 C1132 0.959 . S
H1117 C1132 0.959 . S
H1118 C1132 0.961 . S
H1119 C1133 0.960 . S
H1120 C1133 0.961 . S
H1121 C1133 0.959 . S
H1122 C1136 0.929 . S
H1123 C1137 0.931 . S
H1124 C1139 0.930 . S
C1125 H1113 0.930 . S
C1125 C1126 1.399 . S
C1125 C1130 1.399 . S
C1126 C1125 1.399 . S
C1126 C1127 1.376 . S
C1127 H1114 0.930 . S
C1127 C1126 1.376 . S
C1127 C1128 1.388 . S
C1128 H1115 0.930 . S
C1128 C1127 1.388 . S
C1128 C1129 1.390 . S
C1129 C1128 1.390 . S
C1129 C1130 1.394 . S
C1129 C1135 1.465 . S
C1130 C1125 1.399 . S
C1130 C1129 1.394 . S
C1130 C1131 1.516 . S
C1131 C1130 1.516 . S
C1131 C1132 1.502 . S
C1131 C1133 1.561 . S
C1131 C1134 1.526 . S
C1132 H1116 0.959 . S
C1132 H1117 0.959 . S
C1132 H1118 0.961 . S
C1132 C1131 1.502 . S
C1133 H1119 0.960 . S
C1133 H1120 0.961 . S
C1133 H1121 0.959 . S
C1133 C1131 1.561 . S
C1134 C1131 1.526 . S
C1134 C1135 1.396 . S
C1134 C1139 1.390 . S
C1135 C1129 1.465 . S
C1135 C1134 1.396 . S
C1135 C1136 1.399 . S
C1136 H1122 0.929 . S
C1136 C1135 1.399 . S
C1136 C1137 1.385 . S
C1137 H1123 0.931 . S
C1137 C1136 1.385 . S
C1137 C1138 1.389 . S
C1138 C1137 1.389 . S
C1138 C1139 1.387 . S
C1139 H1124 0.930 . S
C1139 C1134 1.390 . S
C1139 C1138 1.387 . S
H1140 C1152 0.930 . S
H1141 C1154 0.930 . S
H1142 C1155 0.930 . S
H1143 C1159 0.959 . S
H1144 C1159 0.959 . S
H1145 C1159 0.961 . S
H1146 C1160 0.960 . S
H1147 C1160 0.961 . S
H1148 C1160 0.959 . S
H1149 C1163 0.929 . S
H1150 C1164 0.931 . S
H1151 C1166 0.930 . S
C1152 H1140 0.930 . S
C1152 C1153 1.399 . S
C1152 C1157 1.399 . S
C1153 C1152 1.399 . S
C1153 C1154 1.376 . S
C1154 H1141 0.930 . S
C1154 C1153 1.376 . S
C1154 C1155 1.388 . S
C1155 H1142 0.930 . S
C1155 C1154 1.388 . S
C1155 C1156 1.390 . S
C1156 C1155 1.390 . S
C1156 C1157 1.394 . S
C1156 C1162 1.465 . S
C1157 C1152 1.399 . S
C1157 C1156 1.394 . S
C1157 C1158 1.516 . S
C1158 C1157 1.516 . S
C1158 C1159 1.502 . S
C1158 C1160 1.561 . S
C1158 C1161 1.526 . S
C1159 H1143 0.959 . S
C1159 H1144 0.959 . S
C1159 H1145 0.961 . S
C1159 C1158 1.502 . S
C1160 H1146 0.960 . S
C1160 H1147 0.961 . S
C1160 H1148 0.959 . S
C1160 C1158 1.561 . S
C1161 C1158 1.526 . S
C1161 C1162 1.396 . S
C1161 C1166 1.390 . S
C1162 C1156 1.465 . S
C1162 C1161 1.396 . S
C1162 C1163 1.399 . S
C1163 H1149 0.929 . S
C1163 C1162 1.399 . S
C1163 C1164 1.385 . S
C1164 H1150 0.931 . S
C1164 C1163 1.385 . S
C1164 C1165 1.389 . S
C1165 C1164 1.389 . S
C1165 C1166 1.387 . S
C1166 H1151 0.930 . S
C1166 C1161 1.390 . S
C1166 C1165 1.387 . S
H1167 C1179 0.930 . S
H1168 C1181 0.930 . S
H1169 C1182 0.930 . S
H1170 C1186 0.959 . S
H1171 C1186 0.959 . S
H1172 C1186 0.961 . S
H1173 C1187 0.960 . S
H1174 C1187 0.961 . S
H1175 C1187 0.959 . S
H1176 C1190 0.929 . S
H1177 C1191 0.931 . S
H1178 C1193 0.930 . S
C1179 H1167 0.930 . S
C1179 C1180 1.399 . S
C1179 C1184 1.399 . S
C1180 C1179 1.399 . S
C1180 C1181 1.376 . S
C1181 H1168 0.930 . S
C1181 C1180 1.376 . S
C1181 C1182 1.388 . S
C1182 H1169 0.930 . S
C1182 C1181 1.388 . S
C1182 C1183 1.390 . S
C1183 C1182 1.390 . S
C1183 C1184 1.394 . S
C1183 C1189 1.465 . S
C1184 C1179 1.399 . S
C1184 C1183 1.394 . S
C1184 C1185 1.516 . S
C1185 C1184 1.516 . S
C1185 C1186 1.502 . S
C1185 C1187 1.561 . S
C1185 C1188 1.526 . S
C1186 H1170 0.959 . S
C1186 H1171 0.959 . S
C1186 H1172 0.961 . S
C1186 C1185 1.502 . S
C1187 H1173 0.960 . S
C1187 H1174 0.961 . S
C1187 H1175 0.959 . S
C1187 C1185 1.561 . S
C1188 C1185 1.526 . S
C1188 C1189 1.396 . S
C1188 C1193 1.390 . S
C1189 C1183 1.465 . S
C1189 C1188 1.396 . S
C1189 C1190 1.399 . S
C1190 H1176 0.929 . S
C1190 C1189 1.399 . S
C1190 C1191 1.385 . S
C1191 H1177 0.931 . S
C1191 C1190 1.385 . S
C1191 C1192 1.389 . S
C1192 C1191 1.389 . S
C1192 C1193 1.387 . S
C1193 H1178 0.930 . S
C1193 C1188 1.390 . S
C1193 C1192 1.387 . S
H1194 C1206 0.930 . S
H1195 C1208 0.930 . S
H1196 C1209 0.930 . S
H1197 C1213 0.959 . S
H1198 C1213 0.959 . S
H1199 C1213 0.961 . S
H1200 C1214 0.960 . S
H1201 C1214 0.961 . S
H1202 C1214 0.959 . S
H1203 C1217 0.929 . S
H1204 C1218 0.931 . S
H1205 C1220 0.930 . S
C1206 H1194 0.930 . S
C1206 C1207 1.399 . S
C1206 C1211 1.399 . S
C1207 C1206 1.399 . S
C1207 C1208 1.376 . S
C1208 H1195 0.930 . S
C1208 C1207 1.376 . S
C1208 C1209 1.388 . S
C1209 H1196 0.930 . S
C1209 C1208 1.388 . S
C1209 C1210 1.390 . S
C1210 C1209 1.390 . S
C1210 C1211 1.394 . S
C1210 C1216 1.465 . S
C1211 C1206 1.399 . S
C1211 C1210 1.394 . S
C1211 C1212 1.516 . S
C1212 C1211 1.516 . S
C1212 C1213 1.502 . S
C1212 C1214 1.561 . S
C1212 C1215 1.526 . S
C1213 H1197 0.959 . S
C1213 H1198 0.959 . S
C1213 H1199 0.961 . S
C1213 C1212 1.502 . S
C1214 H1200 0.960 . S
C1214 H1201 0.961 . S
C1214 H1202 0.959 . S
C1214 C1212 1.561 . S
C1215 C1212 1.526 . S
C1215 C1216 1.396 . S
C1215 C1220 1.390 . S
C1216 C1210 1.465 . S
C1216 C1215 1.396 . S
C1216 C1217 1.399 . S
C1217 H1203 0.929 . S
C1217 C1216 1.399 . S
C1217 C1218 1.385 . S
C1218 H1204 0.931 . S
C1218 C1217 1.385 . S
C1218 C1219 1.389 . S
C1219 C1218 1.389 . S
C1219 C1220 1.387 . S
C1220 H1205 0.930 . S
C1220 C1215 1.390 . S
C1220 C1219 1.387 . S
H1221 C1233 0.930 . S
H1222 C1235 0.930 . S
H1223 C1236 0.930 1_455 S
H1224 C1240 0.959 . S
H1225 C1240 0.959 . S
H1226 C1240 0.961 . S
H1227 C1241 0.960 1_655 S
H1228 C1241 0.961 . S
H1229 C1241 0.959 . S
H1230 C1244 0.929 . S
H1231 C1245 0.931 . S
H1232 C1247 0.930 . S
C1233 H1221 0.930 . S
C1233 C1234 1.399 . S
C1233 C1238 1.399 . S
C1234 C1233 1.399 . S
C1234 C1235 1.376 . S
C1235 H1222 0.930 . S
C1235 C1234 1.376 . S
C1235 C1236 1.388 . S
C1236 H1223 0.930 1_655 S
C1236 C1235 1.388 . S
C1236 C1237 1.390 . S
C1237 C1236 1.390 . S
C1237 C1238 1.394 . S
C1237 C1243 1.465 1_655 S
C1238 C1233 1.399 . S
C1238 C1237 1.394 . S
C1238 C1239 1.516 . S
C1239 C1238 1.516 . S
C1239 C1240 1.502 . S
C1239 C1241 1.561 1_655 S
C1239 C1242 1.526 1_655 S
C1240 H1224 0.959 . S
C1240 H1225 0.959 . S
C1240 H1226 0.961 . S
C1240 C1239 1.502 . S
C1241 H1227 0.960 1_455 S
C1241 H1228 0.961 . S
C1241 H1229 0.959 . S
C1241 C1239 1.561 1_455 S
C1242 C1239 1.526 1_455 S
C1242 C1243 1.396 . S
C1242 C1247 1.390 . S
C1243 C1237 1.465 1_455 S
C1243 C1242 1.396 . S
C1243 C1244 1.399 . S
C1244 H1230 0.929 . S
C1244 C1243 1.399 . S
C1244 C1245 1.385 . S
C1245 H1231 0.931 . S
C1245 C1244 1.385 . S
C1245 C1246 1.389 . S
C1246 C1245 1.389 . S
C1246 C1247 1.387 . S
C1247 H1232 0.930 . S
C1247 C1242 1.390 . S
C1247 C1246 1.387 . S
H1248 C1260 0.930 . S
H1249 C1262 0.930 . S
H1250 C1263 0.930 . S
H1251 C1267 0.959 . S
H1252 C1267 0.959 . S
H1253 C1267 0.961 . S
H1254 C1268 0.960 . S
H1255 C1268 0.961 . S
H1256 C1268 0.959 . S
H1257 C1271 0.929 . S
H1258 C1272 0.931 . S
H1259 C1274 0.930 . S
C1260 H1248 0.930 . S
C1260 C1261 1.399 . S
C1260 C1265 1.399 . S
C1261 C1260 1.399 . S
C1261 C1262 1.376 . S
C1262 H1249 0.930 . S
C1262 C1261 1.376 . S
C1262 C1263 1.388 . S
C1263 H1250 0.930 . S
C1263 C1262 1.388 . S
C1263 C1264 1.390 . S
C1264 C1263 1.390 . S
C1264 C1265 1.394 . S
C1264 C1270 1.465 1_545 S
C1265 C1260 1.399 . S
C1265 C1264 1.394 . S
C1265 C1266 1.516 1_545 S
C1266 C1265 1.516 1_565 S
C1266 C1267 1.502 1_565 S
C1266 C1268 1.561 . S
C1266 C1269 1.526 . S
C1267 H1251 0.959 . S
C1267 H1252 0.959 . S
C1267 H1253 0.961 . S
C1267 C1266 1.502 1_545 S
C1268 H1254 0.960 . S
C1268 H1255 0.961 . S
C1268 H1256 0.959 . S
C1268 C1266 1.561 . S
C1269 C1266 1.526 . S
C1269 C1270 1.396 . S
C1269 C1274 1.390 . S
C1270 C1264 1.465 1_565 S
C1270 C1269 1.396 . S
C1270 C1271 1.399 . S
C1271 H1257 0.929 . S
C1271 C1270 1.399 . S
C1271 C1272 1.385 . S
C1272 H1258 0.931 . S
C1272 C1271 1.385 . S
C1272 C1273 1.389 . S
C1273 C1272 1.389 . S
C1273 C1274 1.387 . S
C1274 H1259 0.930 . S
C1274 C1269 1.390 . S
C1274 C1273 1.387 . S
H1275 C1287 0.930 . S
H1276 C1289 0.930 . S
H1277 C1290 0.930 . S
H1278 C1294 0.959 . S
H1279 C1294 0.959 . S
H1280 C1294 0.961 . S
H1281 C1295 0.960 . S
H1282 C1295 0.961 . S
H1283 C1295 0.959 . S
H1284 C1298 0.929 . S
H1285 C1299 0.931 . S
H1286 C1301 0.930 . S
C1287 H1275 0.930 . S
C1287 C1288 1.399 . S
C1287 C1292 1.399 . S
C1288 C1287 1.399 . S
C1288 C1289 1.376 . S
C1289 H1276 0.930 . S
C1289 C1288 1.376 . S
C1289 C1290 1.388 . S
C1290 H1277 0.930 . S
C1290 C1289 1.388 . S
C1290 C1291 1.390 . S
C1291 C1290 1.390 . S
C1291 C1292 1.394 . S
C1291 C1297 1.465 . S
C1292 C1287 1.399 . S
C1292 C1291 1.394 . S
C1292 C1293 1.516 . S
C1293 C1292 1.516 . S
C1293 C1294 1.502 . S
C1293 C1295 1.561 . S
C1293 C1296 1.526 . S
C1294 H1278 0.959 . S
C1294 H1279 0.959 . S
C1294 H1280 0.961 . S
C1294 C1293 1.502 . S
C1295 H1281 0.960 . S
C1295 H1282 0.961 . S
C1295 H1283 0.959 . S
C1295 C1293 1.561 . S
C1296 C1293 1.526 . S
C1296 C1297 1.396 . S
C1296 C1301 1.390 . S
C1297 C1291 1.465 . S
C1297 C1296 1.396 . S
C1297 C1298 1.399 . S
C1298 H1284 0.929 . S
C1298 C1297 1.399 . S
C1298 C1299 1.385 . S
C1299 H1285 0.931 . S
C1299 C1298 1.385 . S
C1299 C1300 1.389 . S
C1300 C1299 1.389 . S
C1300 C1301 1.387 . S
C1301 H1286 0.930 . S
C1301 C1296 1.390 . S
C1301 C1300 1.387 . S
H1302 C1314 0.930 . S
H1303 C1316 0.930 . S
H1304 C1317 0.930 . S
H1305 C1321 0.959 . S
H1306 C1321 0.959 . S
H1307 C1321 0.961 . S
H1308 C1322 0.960 . S
H1309 C1322 0.955 1_655 S
H1310 C1322 0.959 . S
H1311 C1325 0.929 1_455 S
H1312 C1326 0.931 . S
H1313 C1328 0.930 . S
C1314 H1302 0.930 . S
C1314 C1315 1.399 . S
C1314 C1319 1.399 . S
C1315 C1314 1.399 . S
C1315 C1316 1.376 . S
C1316 H1303 0.930 . S
C1316 C1315 1.376 . S
C1316 C1317 1.388 . S
C1317 H1304 0.930 . S
C1317 C1316 1.388 . S
C1317 C1318 1.390 . S
C1318 C1317 1.390 . S
C1318 C1319 1.394 . S
C1318 C1324 1.465 1_455 S
C1319 C1314 1.399 . S
C1319 C1318 1.394 . S
C1319 C1320 1.516 1_455 S
C1320 C1319 1.516 1_655 S
C1320 C1321 1.502 . S
C1320 C1322 1.561 1_655 S
C1320 C1323 1.526 . S
C1321 H1305 0.959 . S
C1321 H1306 0.959 . S
C1321 H1307 0.961 . S
C1321 C1320 1.502 . S
C1322 H1308 0.960 . S
C1322 H1309 0.955 1_455 S
C1322 H1310 0.959 . S
C1322 C1320 1.561 1_455 S
C1323 C1320 1.526 . S
C1323 C1324 1.396 . S
C1323 C1328 1.390 . S
C1324 C1318 1.465 1_655 S
C1324 C1323 1.396 . S
C1324 C1325 1.399 . S
C1325 H1311 0.929 1_655 S
C1325 C1324 1.399 . S
C1325 C1326 1.385 . S
C1326 H1312 0.931 . S
C1326 C1325 1.385 . S
C1326 C1327 1.389 . S
C1327 C1326 1.389 . S
C1327 C1328 1.387 . S
C1328 H1313 0.930 . S
C1328 C1323 1.390 . S
C1328 C1327 1.387 . S
H1329 C1341 0.930 . S
H1330 C1343 0.930 . S
H1331 C1344 0.930 . S
H1332 C1348 0.959 . S
H1333 C1348 0.959 . S
H1334 C1348 0.961 . S
H1335 C1349 0.960 . S
H1336 C1349 0.961 1_545 S
H1337 C1349 0.959 . S
H1338 C1352 0.929 1_565 S
H1339 C1353 0.931 . S
H1340 C1355 0.930 . S
C1341 H1329 0.930 . S
C1341 C1342 1.399 . S
C1341 C1346 1.399 . S
C1342 C1341 1.399 . S
C1342 C1343 1.376 . S
C1343 H1330 0.930 . S
C1343 C1342 1.376 . S
C1343 C1344 1.388 . S
C1344 H1331 0.930 . S
C1344 C1343 1.388 . S
C1344 C1345 1.390 . S
C1345 C1344 1.390 . S
C1345 C1346 1.394 . S
C1345 C1351 1.465 1_565 S
C1346 C1341 1.399 . S
C1346 C1345 1.394 . S
C1346 C1347 1.516 1_565 S
C1347 C1346 1.516 1_545 S
C1347 C1348 1.502 . S
C1347 C1349 1.561 1_545 S
C1347 C1350 1.526 . S
C1348 H1332 0.959 . S
C1348 H1333 0.959 . S
C1348 H1334 0.961 . S
C1348 C1347 1.502 . S
C1349 H1335 0.960 . S
C1349 H1336 0.961 1_565 S
C1349 H1337 0.959 . S
C1349 C1347 1.561 1_565 S
C1350 C1347 1.526 . S
C1350 C1351 1.396 . S
C1350 C1355 1.390 . S
C1351 C1345 1.465 1_545 S
C1351 C1350 1.396 . S
C1351 C1352 1.399 . S
C1352 H1338 0.929 1_545 S
C1352 C1351 1.399 . S
C1352 C1353 1.385 . S
C1353 H1339 0.931 . S
C1353 C1352 1.385 . S
C1353 C1354 1.389 . S
C1354 C1353 1.389 . S
C1354 C1355 1.387 . S
C1355 H1340 0.930 . S
C1355 C1350 1.390 . S
C1355 C1354 1.387 . S
C721 C446 1.550 . S
C733 C33 1.560 . S
C748 C92 1.538 . S
C760 C505 1.550 . S
C775 C151 1.559 . S
C787 C564 1.565 . S
C802 C210 1.553 . S
C814 C623 1.562 . S
C829 C682 1.531 . S
C841 C269 1.528 . S
C856 C387 1.554 . S
C868 C328 1.563 . S
C883 C642 1.709 . S
C895 C52 1.739 . S
C910 C111 1.704 . S
C922 C701 1.749 . S
C937 C170 1.737 . S
C949 C406 1.721 . S
C964 C465 1.708 . S
C976 C229 1.739 . S
C991 C524 1.716 . S
C1003 C288 1.731 . S
C1018 C583 1.724 . S
C1030 C347 1.722 . S
C1045 C5 1.735 . S
C1057 C477 1.731 . S
C1072 C64 1.729 . S
C1084 C536 1.732 . S
C1099 C595 1.753 . S
C1111 C123 1.754 . S
C1126 C182 1.730 . S
C1138 C654 1.728 . S
C1153 C359 1.752 . S
C1165 C241 1.749 . S
C1180 C418 1.753 . S
C1192 C300 1.755 . S
C1207 C180 1.239 . S
C1219 C3 1.288 . S
C1234 C239 1.300 . S
C1246 C62 1.263 . S
C1261 C121 1.293 . S
C1273 C298 1.275 . S
C1288 C357 1.252 . S
C1300 C534 1.266 . S
C1315 C416 1.242 . S
C1327 C593 1.279 . S
C1342 C652 1.242 . S
C1354 C475 1.280 . S
