# Generated by pormake.
# Topology sow, (4)-cn, num edge types: 1
# Building blocks:
#     Node 0, Type 0, BuildingBlock: ICAMEG_clean_sbu_1, # of connection points: 4
#     Node 1, Type 0, BuildingBlock: ICAMEG_clean_sbu_1, # of connection points: 4
#     Node 2, Type 0, BuildingBlock: ICAMEG_clean_sbu_1, # of connection points: 4
#     Node 3, Type 0, BuildingBlock: ICAMEG_clean_sbu_1, # of connection points: 4
#     Node 4, Type 0, BuildingBlock: ICAMEG_clean_sbu_1, # of connection points: 4
#     Node 5, Type 0, BuildingBlock: ICAMEG_clean_sbu_1, # of connection points: 4
#     Node 6, Type 0, BuildingBlock: ICAMEG_clean_sbu_1, # of connection points: 4
#     Node 7, Type 0, BuildingBlock: ICAMEG_clean_sbu_1, # of connection points: 4
#     Edge 8, Type (0, 0), BuildingBlock: CIFDUS_clean_linker_0, # of connection points: 2
#     Edge 9, Type (0, 0), BuildingBlock: CIFDUS_clean_linker_0, # of connection points: 2
#     Edge 10, Type (0, 0), BuildingBlock: CIFDUS_clean_linker_0, # of connection points: 2
#     Edge 11, Type (0, 0), BuildingBlock: CIFDUS_clean_linker_0, # of connection points: 2
#     Edge 12, Type (0, 0), BuildingBlock: CIFDUS_clean_linker_0, # of connection points: 2
#     Edge 13, Type (0, 0), BuildingBlock: CIFDUS_clean_linker_0, # of connection points: 2
#     Edge 14, Type (0, 0), BuildingBlock: CIFDUS_clean_linker_0, # of connection points: 2
#     Edge 15, Type (0, 0), BuildingBlock: CIFDUS_clean_linker_0, # of connection points: 2
#     Edge 16, Type (0, 0), BuildingBlock: CIFDUS_clean_linker_0, # of connection points: 2
#     Edge 17, Type (0, 0), BuildingBlock: CIFDUS_clean_linker_0, # of connection points: 2
#     Edge 18, Type (0, 0), BuildingBlock: CIFDUS_clean_linker_0, # of connection points: 2
#     Edge 19, Type (0, 0), BuildingBlock: CIFDUS_clean_linker_0, # of connection points: 2
#     Edge 20, Type (0, 0), BuildingBlock: CIFDUS_clean_linker_0, # of connection points: 2
#     Edge 21, Type (0, 0), BuildingBlock: CIFDUS_clean_linker_0, # of connection points: 2
#     Edge 22, Type (0, 0), BuildingBlock: CIFDUS_clean_linker_0, # of connection points: 2
#     Edge 23, Type (0, 0), BuildingBlock: CIFDUS_clean_linker_0, # of connection points: 2
# Relax obj value: 0.050
# Max RMSD: 0.150
# Mean RMSD: 0.150
data_MOF--net-sow--node1-ICAMEG_clean_sbu_1--edge1-CIFDUS_clean_linker_0
_symmetry_space_group_name_H-M    P1
_symmetry_Int_Tables_number       1
_symmetry_cell_setting            triclinic
loop_
_symmetry_equiv_pos_as_xyz
'x, y, z'
_cell_length_a     37.649522
_cell_length_b     16.424534
_cell_length_c     23.460185
_cell_angle_alpha  90.123366
_cell_angle_beta   90.095912
_cell_angle_gamma 89.856341
loop_
_atom_site_label
_atom_site_type_symbol
_atom_site_fract_x
_atom_site_fract_y
_atom_site_fract_z
_atom_type_partial_charge
Co0 Co 0.11235 0.31512 0.02615 0.0
Co1 Co 0.13028 0.16837 0.12667 0.0
O2 O 0.1454 0.25004 0.07152 0.0
C3 C 0.1591 0.23942 0.93973 0.0
O4 O 0.15222 0.16965 0.96454 0.0
C5 C 0.17927 0.26997 0.19584 0.0
O6 O 0.16102 0.33376 0.17891 0.0
O7 O 0.09893 0.24928 0.16526 0.0
O8 O 0.07884 0.32539 0.09226 0.0
H9 H 0.04207 0.01687 0.24685 0.0
H10 H 0.18805 0.36394 0.03218 0.0
O11 O 0.14522 0.30495 0.95893 0.0
H12 H 0.12059 0.59776 0.10831 0.0
H13 H 0.08051 0.53076 0.8823 0.0
H14 H 0.03414 0.31909 0.01077 0.0
H15 H 0.08951 0.47451 0.0749 0.0
H16 H 0.12137 0.44874 0.94145 0.0
O17 O 0.17096 0.19922 0.17793 0.0
H18 H 0.06106 0.11725 0.17513 0.0
H19 H 0.16881 0.04759 0.19882 0.0
H20 H 0.99234 0.40043 0.95311 0.0
H21 H 0.22005 0.48648 0.06426 0.0
H22 H 0.01548 0.50669 0.88807 0.0
H23 H 0.18643 0.60437 0.10293 0.0
O24 O 0.08646 0.21638 1.0008 0.0
H25 H 0.24312 0.07236 0.03389 0.0
H26 H 0.12008 0.99884 0.08351 0.0
H27 H 0.15742 0.90049 0.03103 0.0
H28 H 0.21943 0.93708 0.00587 0.0
H29 H 0.20484 0.16896 0.08623 0.0
H30 H 0.15101 0.94686 0.27114 0.0
H31 H 0.08722 0.93085 0.29546 0.0
O32 O 0.08916 0.13502 0.07737 0.0
C33 C 0.07753 0.30167 0.1441 0.0
C34 C 0.06993 0.02304 0.23647 0.0
C35 C 0.13108 0.98381 0.25014 0.0
N36 N 0.11596 0.08774 0.18239 0.0
C37 C 0.08084 0.07961 0.19575 0.0
C38 C 0.141 0.04102 0.2092 0.0
C39 C 0.09528 0.97486 0.26376 0.0
C40 C 0.17316 0.41526 0.04848 0.0
N41 N 0.13697 0.41225 0.05139 0.0
C42 C 0.19146 0.48436 0.06684 0.0
C43 C 0.17253 0.55048 0.08854 0.0
C44 C 0.13561 0.54679 0.0916 0.0
C45 C 0.11817 0.47673 0.07278 0.0
C46 C 0.0701 0.48467 0.91059 0.0
C47 C 0.0444 0.366 0.98314 0.0
C48 C 0.09311 0.43796 0.94409 0.0
N49 N 0.08011 0.37991 0.98009 0.0
C50 C 0.02061 0.41159 0.95038 0.0
C51 C 0.03362 0.47128 0.9139 0.0
C52 C 0.07618 0.15454 0.02895 0.0
C53 C 0.21622 0.05553 0.04491 0.0
C54 C 0.14704 0.01517 0.07278 0.0
C55 C 0.16808 0.95918 0.04313 0.0
C56 C 0.20288 0.97971 0.02906 0.0
N57 N 0.16033 0.08942 0.08818 0.0
C58 C 0.19446 0.10986 0.07471 0.0
Co59 Co 0.37676 0.16061 0.52295 0.0
Co60 Co 0.35357 0.29674 0.62762 0.0
O61 O 0.34125 0.21765 0.56889 0.0
C62 C 0.32931 0.2341 0.43666 0.0
O63 O 0.33438 0.30335 0.46347 0.0
C64 C 0.30326 0.19123 0.69186 0.0
O65 O 0.32175 0.1272 0.67594 0.0
O66 O 0.38491 0.21518 0.66562 0.0
O67 O 0.41009 0.15321 0.59003 0.0
H68 H 0.43626 0.4449 0.76038 0.0
H69 H 0.30246 0.09899 0.52444 0.0
O70 O 0.34433 0.16934 0.45481 0.0
H71 H 0.3763 0.8738 0.59774 0.0
H72 H 0.41506 0.95633 0.37481 0.0
H73 H 0.45513 0.1695 0.50834 0.0
H74 H 0.40372 0.00343 0.56871 0.0
H75 H 0.37193 0.02979 0.43519 0.0
O76 O 0.31191 0.26182 0.67453 0.0
H77 H 0.42058 0.34739 0.68446 0.0
H78 H 0.31175 0.41309 0.6988 0.0
H79 H 0.4992 0.09724 0.44913 0.0
H80 H 0.27404 0.96973 0.55266 0.0
H81 H 0.47923 0.98956 0.38182 0.0
H82 H 0.31097 0.85638 0.58952 0.0
O83 O 0.40036 0.26479 0.50182 0.0
H84 H 0.24356 0.3894 0.5251 0.0
H85 H 0.36307 0.46918 0.59063 0.0
H86 H 0.32692 0.56671 0.5354 0.0
H87 H 0.26691 0.52652 0.50159 0.0
H88 H 0.28054 0.29387 0.58058 0.0
H89 H 0.32624 0.51118 0.77506 0.0
H90 H 0.38891 0.52773 0.80623 0.0
O91 O 0.39552 0.33469 0.58351 0.0
C92 C 0.40974 0.17282 0.64293 0.0
C93 C 0.40887 0.43843 0.74706 0.0
C94 C 0.34712 0.47556 0.75534 0.0
N95 N 0.36532 0.37493 0.68686 0.0
C96 C 0.39983 0.38338 0.70399 0.0
C97 C 0.33907 0.41983 0.71217 0.0
C98 C 0.38229 0.48483 0.7728 0.0
C99 C 0.31876 0.0496 0.54012 0.0
N100 N 0.35473 0.05859 0.54466 0.0
C101 C 0.3025 0.97674 0.55609 0.0
C102 C 0.32326 0.91307 0.57695 0.0
C103 C 0.3599 0.92284 0.58163 0.0
C104 C 0.37525 0.99649 0.5653 0.0
C105 C 0.42411 0.00281 0.40419 0.0
C106 C 0.44629 0.12225 0.47963 0.0
C107 C 0.39981 0.04467 0.43847 0.0
N108 N 0.41108 0.10302 0.47599 0.0
C109 C 0.47134 0.08177 0.44597 0.0
C110 C 0.46011 0.02149 0.40814 0.0
C111 C 0.40986 0.32232 0.53512 0.0
C112 C 0.26968 0.40756 0.53957 0.0
C113 C 0.33683 0.45158 0.57654 0.0
C114 C 0.31651 0.50702 0.54525 0.0
C115 C 0.28282 0.48448 0.52635 0.0
N116 N 0.32387 0.37601 0.58894 0.0
C117 C 0.29065 0.35394 0.5713 0.0
Co118 Co 0.6077 0.22503 0.97462 0.0
Co119 Co 0.63108 0.34234 0.85982 0.0
O120 O 0.64339 0.27025 0.92321 0.0
C121 C 0.66058 0.29543 0.05592 0.0
O122 O 0.65733 0.3654 0.02942 0.0
C123 C 0.68398 0.22487 0.80912 0.0
O124 O 0.672 0.16584 0.84134 0.0
O125 O 0.59708 0.25963 0.82934 0.0
O126 O 0.57256 0.21445 0.91063 0.0
H127 H 0.5476 0.4837 0.72447 0.0
H128 H 0.67962 0.15051 0.97362 0.0
O129 O 0.6422 0.23432 0.03992 0.0
H130 H 0.59798 0.93012 0.91731 0.0
H131 H 0.56558 0.04192 0.1326 0.0
H132 H 0.53031 0.24981 0.99202 0.0
H133 H 0.57498 0.06735 0.93915 0.0
H134 H 0.61018 0.10397 0.06926 0.0
O135 O 0.67043 0.29585 0.81211 0.0
H136 H 0.56355 0.3954 0.80557 0.0
H137 H 0.67311 0.44113 0.77721 0.0
H138 H 0.48479 0.18881 0.05409 0.0
H139 H 0.70365 0.01381 0.95316 0.0
H140 H 0.50229 0.08357 0.12472 0.0
H141 H 0.66277 0.90255 0.92443 0.0
O142 O 0.58843 0.33591 0.99108 0.0
H143 H 0.7443 0.43147 0.95363 0.0
H144 H 0.62756 0.52162 0.88184 0.0
H145 H 0.66748 0.62143 0.92735 0.0
H146 H 0.72631 0.57643 0.96391 0.0
H147 H 0.70417 0.33461 0.90597 0.0
H148 H 0.65835 0.52945 0.69561 0.0
H149 H 0.59518 0.55148 0.66887 0.0
O150 O 0.59169 0.39326 0.90459 0.0
C151 C 0.57234 0.22325 0.85651 0.0
C152 C 0.57521 0.47476 0.7358 0.0
C153 C 0.63737 0.50036 0.71955 0.0
N154 N 0.61921 0.41336 0.79637 0.0
C155 C 0.58441 0.42492 0.78176 0.0
C156 C 0.64556 0.45009 0.76575 0.0
C157 C 0.60192 0.51271 0.70458 0.0
C158 C 0.66159 0.10223 0.9618 0.0
N159 N 0.62593 0.11695 0.95775 0.0
C160 C 0.67539 0.02502 0.94994 0.0
C161 C 0.65243 0.96266 0.93376 0.0
C162 C 0.61609 0.97813 0.92967 0.0
C163 C 0.60324 0.0561 0.94184 0.0
C164 C 0.5576 0.08748 0.10183 0.0
C165 C 0.53812 0.20398 0.02254 0.0
C166 C 0.58275 0.12301 0.06596 0.0
N167 N 0.57278 0.17967 0.02639 0.0
C168 C 0.51224 0.16981 0.0577 0.0
C169 C 0.52209 0.11087 0.09739 0.0
C170 C 0.57991 0.39143 0.95549 0.0
C171 C 0.71898 0.45219 0.9372 0.0
C172 C 0.65331 0.50188 0.89688 0.0
C173 C 0.67577 0.55862 0.92275 0.0
C174 C 0.70876 0.53335 0.94325 0.0
N175 N 0.66363 0.42247 0.89085 0.0
C176 C 0.69613 0.39754 0.91016 0.0
Co177 Co 0.87737 0.29844 0.47229 0.0
Co178 Co 0.8647 0.188 0.35079 0.0
O179 O 0.84596 0.24934 0.41529 0.0
C180 C 0.83894 0.23738 0.57589 0.0
O181 O 0.86733 0.19606 0.591 0.0
C182 C 0.81365 0.30153 0.29381 0.0
O183 O 0.82941 0.36264 0.31962 0.0
O184 O 0.89405 0.28282 0.32917 0.0
O185 O 0.91616 0.31809 0.41442 0.0
H186 H 0.96149 0.08746 0.22077 0.0
H187 H 0.80355 0.36299 0.46203 0.0
O188 O 0.83888 0.27913 0.53005 0.0
H189 H 0.88188 0.59815 0.42842 0.0
H190 H 0.90288 0.47262 0.64447 0.0
H191 H 0.95411 0.28653 0.50115 0.0
H192 H 0.90721 0.46214 0.4466 0.0
H193 H 0.8651 0.41216 0.56964 0.0
O194 O 0.82452 0.22887 0.30191 0.0
H195 H 0.937 0.15947 0.30421 0.0
H196 H 0.83239 0.09089 0.2562 0.0
H197 H 0.99286 0.34564 0.57517 0.0
H198 H 0.77724 0.49911 0.44712 0.0
H199 H 0.96729 0.43967 0.64745 0.0
H200 H 0.81642 0.6174 0.42927 0.0
O201 O 0.89905 0.19004 0.48779 0.0
H202 H 0.75131 0.04726 0.4039 0.0
H203 H 0.87905 0.01084 0.36524 0.0
H204 H 0.84228 0.89093 0.38693 0.0
H205 H 0.77786 0.90849 0.40466 0.0
H206 H 0.78922 0.16577 0.38287 0.0
H207 H 0.85579 0.01827 0.17208 0.0
H208 H 0.92078 0.0161 0.15396 0.0
O209 O 0.90519 0.14435 0.39823 0.0
C210 C 0.9178 0.31632 0.35995 0.0
C211 C 0.93312 0.08778 0.22826 0.0
C212 C 0.8738 0.04907 0.2009 0.0
N213 N 0.8833 0.12914 0.28534 0.0
C214 C 0.91908 0.12839 0.27554 0.0
C215 C 0.8607 0.09046 0.24856 0.0
C216 C 0.91027 0.04783 0.19077 0.0
C217 C 0.82086 0.41441 0.45517 0.0
N218 N 0.85693 0.40455 0.45564 0.0
C219 C 0.80577 0.49117 0.44625 0.0
C220 C 0.82778 0.55767 0.43639 0.0
C221 C 0.8645 0.54689 0.43587 0.0
C222 C 0.87868 0.46953 0.44576 0.0
C223 C 0.91435 0.43185 0.61317 0.0
C224 C 0.94278 0.32743 0.53234 0.0
C225 C 0.89309 0.39732 0.57072 0.0
N226 N 0.90742 0.34607 0.53086 0.0
C227 C 0.96485 0.36067 0.57423 0.0
C228 C 0.95049 0.41334 0.61481 0.0
C229 C 0.91367 0.1433 0.45107 0.0
C230 C 0.77936 0.03879 0.39582 0.0
C231 C 0.85115 0.01922 0.37439 0.0
C232 C 0.83044 0.95105 0.38633 0.0
C233 C 0.79426 0.96102 0.39656 0.0
N234 N 0.8362 0.09508 0.3724 0.0
C235 C 0.80092 0.10561 0.38381 0.0
Co236 Co 0.87125 0.81832 0.84417 0.0
Co237 Co 0.88332 0.69074 0.95815 0.0
O238 O 0.85323 0.74528 0.90222 0.0
C239 C 0.83064 0.69944 0.77331 0.0
O240 O 0.85157 0.64111 0.79179 0.0
C241 C 0.82821 0.77108 0.02729 0.0
O242 O 0.83474 0.83725 0.99786 0.0
O243 O 0.90473 0.79609 0.98128 0.0
O244 O 0.90733 0.86468 0.89851 0.0
H245 H 0.99702 0.63189 0.0631 0.0
H246 H 0.79398 0.81626 0.86908 0.0
O247 O 0.83531 0.77297 0.78937 0.0
H248 H 0.8318 0.09964 0.90245 0.0
H249 H 0.8594 0.0088 0.67714 0.0
H250 H 0.94299 0.8704 0.80703 0.0
H251 H 0.87517 0.99528 0.87236 0.0
H252 H 0.83723 0.91914 0.75343 0.0
O253 O 0.84497 0.70531 0.01635 0.0
H254 H 0.95925 0.70015 0.99169 0.0
H255 H 0.86949 0.56702 0.04824 0.0
H256 H 0.96626 0.95999 0.73164 0.0
H257 H 0.74968 0.91881 0.89864 0.0
H258 H 0.92433 0.02996 0.66602 0.0
H259 H 0.76851 0.06173 0.91547 0.0
O260 O 0.90652 0.73572 0.81954 0.0
H261 H 0.78434 0.50923 0.89289 0.0
H262 H 0.913 0.5273 0.92935 0.0
H263 H 0.88786 0.39936 0.89178 0.0
H264 H 0.82302 0.3899 0.87302 0.0
H265 H 0.81021 0.63432 0.93331 0.0
H266 H 0.9062 0.49806 0.12099 0.0
H267 H 0.9705 0.53035 0.12852 0.0
O268 O 0.92266 0.67629 0.90176 0.0
C269 C 0.91622 0.85455 0.9507 0.0
C270 C 0.96908 0.61708 0.06005 0.0
C271 C 0.91809 0.54207 0.09258 0.0
N272 N 0.91235 0.63665 0.01517 0.0
C273 C 0.9476 0.65524 0.01947 0.0
C274 C 0.89743 0.5814 0.05141 0.0
C275 C 0.95417 0.56009 0.09676 0.0
C276 C 0.80234 0.87841 0.87601 0.0
N277 N 0.83707 0.89986 0.86861 0.0
C278 C 0.77716 0.93616 0.89295 0.0
C279 C 0.78775 0.01629 0.90247 0.0
C280 C 0.82326 0.03759 0.8952 0.0
C281 C 0.84773 0.97818 0.87833 0.0
C282 C 0.87792 0.97889 0.70559 0.0
C283 C 0.92455 0.90107 0.77892 0.0
C284 C 0.86553 0.9279 0.74878 0.0
N285 N 0.88877 0.89011 0.78496 0.0
C286 C 0.9379 0.95155 0.73619 0.0
C287 C 0.91436 0.99073 0.69936 0.0
C288 C 0.92744 0.69153 0.84906 0.0
C289 C 0.81243 0.51187 0.9021 0.0
C290 C 0.88467 0.52302 0.92241 0.0
C291 C 0.87061 0.45054 0.90092 0.0
C292 C 0.83424 0.44524 0.89047 0.0
N293 N 0.86302 0.58788 0.93408 0.0
C294 C 0.82729 0.58273 0.92471 0.0
Co295 Co 0.64189 0.57862 0.34107 0.0
Co296 Co 0.63227 0.66726 0.47243 0.0
O297 O 0.66257 0.62489 0.41077 0.0
C298 C 0.69052 0.69399 0.27917 0.0
O299 O 0.67081 0.75695 0.29315 0.0
C300 C 0.69035 0.57468 0.53342 0.0
O301 O 0.69102 0.51833 0.49365 0.0
O302 O 0.60787 0.56029 0.47781 0.0
O303 O 0.6013 0.53111 0.38484 0.0
H304 H 0.51695 0.71023 0.5763 0.0
H305 H 0.71774 0.5411 0.36613 0.0
O306 O 0.68254 0.62267 0.29586 0.0
H307 H 0.65884 0.27453 0.34751 0.0
H308 H 0.64468 0.44565 0.147 0.0
H309 H 0.56873 0.5683 0.29495 0.0
H310 H 0.62429 0.40164 0.33983 0.0
H311 H 0.671 0.49681 0.23662 0.0
O312 O 0.66822 0.63324 0.53064 0.0
H313 H 0.55499 0.66268 0.4976 0.0
H314 H 0.64596 0.76044 0.57979 0.0
H315 H 0.54155 0.51672 0.20639 0.0
H316 H 0.75356 0.41508 0.37093 0.0
H317 H 0.57973 0.45481 0.13166 0.0
H318 H 0.72413 0.28092 0.36229 0.0
O319 O 0.61383 0.67989 0.32876 0.0
H320 H 0.73811 0.85183 0.46781 0.0
H321 H 0.6074 0.83969 0.46283 0.0
H322 H 0.63713 0.97307 0.45835 0.0
H323 H 0.70299 0.97994 0.46166 0.0
H324 H 0.70747 0.71988 0.46851 0.0
H325 H 0.60898 0.8085 0.65969 0.0
H326 H 0.54394 0.78355 0.65829 0.0
O327 O 0.59514 0.70465 0.41748 0.0
C328 C 0.59294 0.52138 0.4371 0.0
C329 C 0.54526 0.72138 0.5775 0.0
C330 C 0.59691 0.77635 0.62433 0.0
N331 N 0.60275 0.70795 0.5342 0.0
C332 C 0.56695 0.69459 0.53298 0.0
C333 C 0.61776 0.74856 0.57907 0.0
C334 C 0.56042 0.76243 0.62349 0.0
C335 C 0.70469 0.48284 0.36199 0.0
N336 N 0.66889 0.47891 0.35269 0.0
C337 C 0.72511 0.41179 0.3652 0.0
C338 C 0.70858 0.33636 0.3601 0.0
C339 C 0.67197 0.33277 0.35183 0.0
C340 C 0.65246 0.40503 0.34811 0.0
C341 C 0.62792 0.47202 0.17948 0.0
C342 C 0.58554 0.54078 0.26293 0.0
C343 C 0.64262 0.5014 0.23023 0.0
N344 N 0.62141 0.53506 0.27131 0.0
C345 C 0.56997 0.51192 0.21275 0.0
C346 C 0.59138 0.47728 0.17081 0.0
C347 C 0.5929 0.71462 0.36384 0.0
C348 C 0.70946 0.84987 0.46559 0.0
C349 C 0.63608 0.84199 0.46275 0.0
C350 C 0.65276 0.91778 0.46064 0.0
C351 C 0.68972 0.9216 0.46242 0.0
N352 N 0.65568 0.77194 0.46618 0.0
C353 C 0.69192 0.77517 0.46663 0.0
Co354 Co 0.3719 0.72074 0.17101 0.0
Co355 Co 0.39529 0.84334 0.05996 0.0
O356 O 0.35939 0.79326 0.10861 0.0
C357 C 0.32513 0.83353 0.23871 0.0
O358 O 0.34794 0.89311 0.23219 0.0
C359 C 0.34329 0.77783 0.97566 0.0
O360 O 0.34734 0.70554 0.99862 0.0
O361 O 0.41532 0.73372 0.04063 0.0
O362 O 0.41263 0.67459 0.12679 0.0
H363 H 0.51816 0.88797 0.98211 0.0
H364 H 0.29848 0.72042 0.12433 0.0
O365 O 0.33078 0.76397 0.2162 0.0
H366 H 0.34222 0.43876 0.10229 0.0
H367 H 0.34562 0.53169 0.33448 0.0
H368 H 0.43966 0.66937 0.22524 0.0
H369 H 0.37968 0.54354 0.14727 0.0
H370 H 0.33035 0.61988 0.25298 0.0
O371 O 0.36101 0.83827 0.99447 0.0
H372 H 0.47294 0.82186 0.04216 0.0
H373 H 0.3924 0.97092 0.96979 0.0
H374 H 0.45608 0.58181 0.3063 0.0
H375 H 0.25992 0.61721 0.07926 0.0
H376 H 0.40889 0.5121 0.36156 0.0
H377 H 0.28215 0.47523 0.06747 0.0
O378 O 0.40413 0.80452 0.20344 0.0
H379 H 0.29783 0.04629 0.09699 0.0
H380 H 0.42731 1.00005 0.09877 0.0
H381 H 0.40347 0.13348 0.12856 0.0
H382 H 0.33827 0.15725 0.12781 0.0
H383 H 0.32278 0.91384 0.06739 0.0
H384 H 0.43669 0.03798 0.90843 0.0
H385 H 0.50015 0.99732 0.91492 0.0
O386 O 0.43027 0.8501 0.12413 0.0
C387 C 0.42454 0.67813 0.07594 0.0
C388 C 0.49062 0.90658 0.97914 0.0
C389 C 0.44489 0.99069 0.93774 0.0
N390 N 0.43014 0.89328 0.01014 0.0
C391 C 0.4649 0.86951 0.01317 0.0
C392 C 0.41992 0.9523 0.97246 0.0
C393 C 0.4805 0.96783 0.94138 0.0
C394 C 0.30803 0.65861 0.11991 0.0
N395 N 0.34127 0.63803 0.13842 0.0
C396 C 0.28614 0.60049 0.09423 0.0
C397 C 0.29854 0.52094 0.08767 0.0
C398 C 0.33236 0.50036 0.10704 0.0
C399 C 0.35348 0.56004 0.13237 0.0
C400 C 0.36642 0.56172 0.31072 0.0
C401 C 0.41894 0.63923 0.24894 0.0
C402 C 0.35794 0.61189 0.26461 0.0
N403 N 0.38408 0.6497 0.23425 0.0
C404 C 0.42842 0.58971 0.29487 0.0
C405 C 0.40193 0.5507 0.32588 0.0
C406 C 0.42976 0.83962 0.17797 0.0
C407 C 0.32628 0.03681 0.0972 0.0
C408 C 0.39891 0.00996 0.0982 0.0
C409 C 0.38557 0.08568 0.11508 0.0
C410 C 0.34899 0.09899 0.11461 0.0
N411 N 0.37647 0.94938 0.08093 0.0
C412 C 0.34058 0.96199 0.08037 0.0
Co413 Co 0.14095 0.89686 0.67781 0.0
Co414 Co 0.13367 0.7903 0.55249 0.0
O415 O 0.16218 0.84496 0.61112 0.0
C416 C 0.19406 0.78652 0.73161 0.0
O417 O 0.18008 0.72652 0.70214 0.0
C418 C 0.18296 0.89472 0.4861 0.0
O419 O 0.17641 0.95493 0.52149 0.0
O420 O 0.1048 0.89077 0.54101 0.0
O421 O 0.09947 0.93647 0.63101 0.0
H422 H 0.02108 0.71394 0.45019 0.0
H423 H 0.21588 0.93452 0.64903 0.0
O424 O 0.18191 0.85865 0.72611 0.0
H425 H 0.15361 0.19904 0.6486 0.0
H426 H 0.14317 0.04672 0.86533 0.0
H427 H 0.06777 0.90811 0.72354 0.0
H428 H 0.12109 0.07225 0.66912 0.0
H429 H 0.16932 0.99146 0.77682 0.0
O430 O 0.16819 0.82584 0.49298 0.0
H431 H 0.05672 0.77981 0.52542 0.0
H432 H 0.15159 0.68767 0.45148 0.0
H433 H 0.04063 0.96409 0.81087 0.0
H434 H 0.24948 0.06017 0.62908 0.0
H435 H 0.07874 0.03285 0.88276 0.0
H436 H 0.21834 0.19337 0.62853 0.0
O437 O 0.1145 0.79589 0.69609 0.0
H438 H 0.24638 0.63315 0.58601 0.0
H439 H 0.11599 0.61523 0.57058 0.0
H440 H 0.15068 0.49208 0.59376 0.0
H441 H 0.21624 0.50087 0.60255 0.0
H442 H 0.21068 0.75483 0.56289 0.0
H443 H 0.11698 0.62121 0.37519 0.0
H444 H 0.05122 0.63386 0.37436 0.0
O445 O 0.09807 0.75247 0.60954 0.0
C446 C 0.08965 0.93506 0.57873 0.0
C447 C 0.0497 0.70767 0.45021 0.0
C448 C 0.10353 0.65573 0.40808 0.0
N449 N 0.10617 0.73696 0.49321 0.0
C450 C 0.07003 0.74464 0.49283 0.0
C451 C 0.12299 0.6936 0.45136 0.0
C452 C 0.06663 0.66285 0.40764 0.0
C453 C 0.20214 0.99239 0.64907 0.0
N454 N 0.16657 0.99606 0.6603 0.0
C455 C 0.22127 0.06319 0.63742 0.0
C456 C 0.20377 0.13803 0.63722 0.0
C457 C 0.16747 0.14123 0.64847 0.0
C458 C 0.14917 0.06919 0.65986 0.0
C459 C 0.12649 0.01713 0.83408 0.0
C460 C 0.08438 0.93944 0.7541 0.0
C461 C 0.1411 0.98546 0.78402 0.0
N462 N 0.12006 0.94693 0.74487 0.0
C463 C 0.06887 0.97066 0.80359 0.0
C464 C 0.0902 0.00939 0.84387 0.0
C465 C 0.09525 0.75215 0.6636 0.0
C466 C 0.2178 0.62855 0.58231 0.0
C467 C 0.14458 0.61938 0.57368 0.0
C468 C 0.16407 0.54943 0.58681 0.0
C469 C 0.2009 0.55434 0.59152 0.0
N470 N 0.16131 0.69213 0.56525 0.0
C471 C 0.19746 0.69717 0.56898 0.0
H472 H 0.26131 0.31247 0.73318 0.0
H473 H 0.27973 0.05357 0.74649 0.0
H474 H 0.23548 0.04551 0.82268 0.0
H475 H 0.19606 0.11371 0.89136 0.0
H476 H 0.17724 0.37226 0.87634 0.0
H477 H 0.21845 0.37873 0.79639 0.0
C478 C 0.25575 0.25401 0.75258 0.0
C479 C 0.2743 0.18393 0.73451 0.0
C480 C 0.23088 0.24988 0.797 0.0
C481 C 0.26623 0.1087 0.75983 0.0
C482 C 0.24109 0.10402 0.80364 0.0
C483 C 0.20042 0.17126 0.87001 0.0
C484 C 0.18335 0.2423 0.8899 0.0
C485 C 0.2239 0.1745 0.82348 0.0
C486 C 0.18999 0.31658 0.86221 0.0
C487 C 0.21352 0.32036 0.81632 0.0
H488 H 0.22841 0.15665 0.22789 0.0
H489 H 0.19458 0.40355 0.2611 0.0
H490 H 0.23858 0.41507 0.33732 0.0
H491 H 0.28464 0.35285 0.39783 0.0
H492 H 0.32054 0.10855 0.36149 0.0
H493 H 0.2776 0.09803 0.28365 0.0
C494 C 0.23074 0.21317 0.25159 0.0
C495 C 0.20793 0.2789 0.23901 0.0
C496 C 0.25626 0.21957 0.29527 0.0
C497 C 0.21168 0.35192 0.26982 0.0
C498 C 0.2368 0.35851 0.3136 0.0
C499 C 0.28326 0.29745 0.37268 0.0
C500 C 0.30515 0.23066 0.38659 0.0
C501 C 0.25893 0.29241 0.32719 0.0
C502 C 0.30326 0.15989 0.35291 0.0
C503 C 0.27888 0.15407 0.30806 0.0
H504 H 0.76862 0.18964 0.24867 0.0
H505 H 0.79202 0.44668 0.24706 0.0
H506 H 0.74651 0.46791 0.17376 0.0
H507 H 0.70249 0.41203 0.10613 0.0
H508 H 0.67778 0.15549 0.11198 0.0
H509 H 0.7218 0.1358 0.18683 0.0
C510 C 0.76379 0.25049 0.23245 0.0
C511 C 0.78418 0.31622 0.25279 0.0
C512 C 0.73754 0.26239 0.19061 0.0
C513 C 0.77699 0.3948 0.23192 0.0
C514 C 0.75102 0.40701 0.18989 0.0
C515 C 0.70641 0.35196 0.12419 0.0
C516 C 0.68665 0.28547 0.1032 0.0
C517 C 0.7315 0.34103 0.16824 0.0
C518 C 0.69243 0.20799 0.12707 0.0
C519 C 0.71766 0.19652 0.17003 0.0
H520 H 0.69993 0.31354 0.71595 0.0
H521 H 0.73552 0.10583 0.81284 0.0
H522 H 0.787 0.09081 0.74953 0.0
H523 H 0.82262 0.13988 0.66732 0.0
H524 H 0.78417 0.34486 0.56989 0.0
H525 H 0.73316 0.35755 0.63271 0.0
C526 C 0.71889 0.2648 0.72329 0.0
C527 C 0.71401 0.21124 0.76929 0.0
C528 C 0.74801 0.25616 0.68655 0.0
C529 C 0.73861 0.14779 0.77764 0.0
C530 C 0.76811 0.13941 0.74155 0.0
C531 C 0.80303 0.18713 0.65982 0.0
C532 C 0.80744 0.24151 0.6139 0.0
C533 C 0.77322 0.19369 0.69598 0.0
C534 C 0.78158 0.30206 0.60465 0.0
C535 C 0.75235 0.3096 0.64068 0.0
H536 H 0.81765 0.65585 0.10779 0.0
H537 H 0.77953 0.89046 0.0517 0.0
H538 H 0.735 0.8907 0.12758 0.0
H539 H 0.70507 0.82065 0.20734 0.0
H540 H 0.74391 0.58547 0.26153 0.0
H541 H 0.79028 0.59003 0.18956 0.0
C542 C 0.79964 0.70715 0.11207 0.0
C543 C 0.80173 0.77266 0.07383 0.0
C544 C 0.77425 0.70699 0.1557 0.0
C545 C 0.77843 0.83906 0.0805 0.0
C546 C 0.75295 0.83926 0.12389 0.0
C547 C 0.72396 0.77094 0.2038 0.0
C548 C 0.72082 0.70267 0.23957 0.0
C549 C 0.7504 0.77315 0.16148 0.0
C550 C 0.74547 0.63855 0.23431 0.0
C551 C 0.77199 0.64087 0.19304 0.0
H552 H 0.6942 0.68318 0.61979 0.0
H553 H 0.7486 0.47457 0.54944 0.0
H554 H 0.79626 0.49132 0.62009 0.0
H555 H 0.82392 0.57139 0.69877 0.0
H556 H 0.76983 0.78574 0.76144 0.0
H557 H 0.72057 0.76057 0.69658 0.0
C558 C 0.7163 0.64082 0.61971 0.0
C559 C 0.71778 0.57783 0.57901 0.0
C560 C 0.74381 0.65227 0.65906 0.0
C561 C 0.7467 0.52352 0.58028 0.0
C562 C 0.77402 0.53332 0.62054 0.0
C563 C 0.8012 0.61211 0.69835 0.0
C564 C 0.8006 0.68056 0.73477 0.0
C565 C 0.7731 0.59837 0.65967 0.0
C566 C 0.77112 0.73311 0.73359 0.0
C567 C 0.74287 0.71866 0.69661 0.0
H568 H 0.30757 0.66369 0.91222 0.0
H569 H 0.31954 0.92319 0.9351 0.0
H570 H 0.27557 0.94821 0.86132 0.0
H571 H 0.23242 0.89766 0.79153 0.0
H572 H 0.22053 0.63884 0.76619 0.0
H573 H 0.26568 0.61271 0.83902 0.0
C574 C 0.30054 0.72568 0.90099 0.0
C575 C 0.31691 0.79133 0.92944 0.0
C576 C 0.2751 0.74002 0.85793 0.0
C577 C 0.30757 0.87131 0.914 0.0
C578 C 0.28224 0.88587 0.87175 0.0
C579 C 0.23969 0.83546 0.8018 0.0
C580 C 0.22283 0.77039 0.7736 0.0
C581 C 0.26569 0.82084 0.84363 0.0
C582 C 0.23294 0.69021 0.78722 0.0
C583 C 0.25874 0.67516 0.82904 0.0
H584 H 0.31304 0.94991 0.32064 0.0
H585 H 0.26645 0.73824 0.24077 0.0
H586 H 0.21727 0.74252 0.3078 0.0
H587 H 0.18972 0.79909 0.39297 0.0
H588 H 0.23504 0.01018 0.47468 0.0
H589 H 0.28284 0.01181 0.40435 0.0
C590 C 0.29187 0.90548 0.31747 0.0
C591 C 0.29362 0.8435 0.2759 0.0
C592 C 0.26366 0.90746 0.35691 0.0
C593 C 0.26599 0.7862 0.27255 0.0
C594 C 0.23779 0.78851 0.3109 0.0
C595 C 0.20981 0.84625 0.39501 0.0
C596 C 0.2092 0.90354 0.43962 0.0
C597 C 0.23674 0.84774 0.35387 0.0
C598 C 0.23509 0.96492 0.44105 0.0
C599 C 0.26233 0.96623 0.4005 0.0
H600 H 0.07156 0.30073 0.2602 0.0
H601 H 0.01426 0.36254 0.10661 0.0
H602 H 0.96014 0.38247 0.16139 0.0
H603 H 0.9274 0.36603 0.25088 0.0
H604 H 0.98447 0.30807 0.40518 0.0
H605 H 0.04034 0.3056 0.35254 0.0
C606 C 0.0474 0.3201 0.23889 0.0
C607 C 0.04695 0.32865 0.1792 0.0
C608 C 0.01623 0.33245 0.2708 0.0
C609 C 0.01549 0.35492 0.15238 0.0
C610 C 0.98438 0.36625 0.18368 0.0
C611 C 0.95221 0.35497 0.27322 0.0
C612 C 0.95172 0.33668 0.33171 0.0
C613 C 0.98421 0.35288 0.24261 0.0
C614 C 0.98407 0.32289 0.36023 0.0
C615 C 0.01604 0.32052 0.33 0.0
H616 H 0.41785 0.17331 0.75882 0.0
H617 H 0.47662 0.14594 0.60216 0.0
H618 H 0.53237 0.15574 0.65414 0.0
H619 H 0.56469 0.18688 0.74313 0.0
H620 H 0.50597 0.20494 0.90051 0.0
H621 H 0.45051 0.18333 0.84952 0.0
C622 C 0.44284 0.16773 0.7362 0.0
C623 C 0.44281 0.15991 0.67647 0.0
C624 C 0.47507 0.1728 0.76649 0.0
C625 C 0.47557 0.1521 0.64802 0.0
C626 C 0.50765 0.15833 0.67772 0.0
C627 C 0.53979 0.18507 0.7663 0.0
C628 C 0.53962 0.19883 0.82548 0.0
C629 C 0.50775 0.17115 0.73677 0.0
C630 C 0.50709 0.19498 0.85495 0.0
C631 C 0.47518 0.18283 0.82577 0.0
H632 H 0.08497 0.7125 0.77495 0.0
H633 H 0.03594 0.69737 0.60873 0.0
H634 H 0.97943 0.66236 0.65216 0.0
H635 H 0.94184 0.66271 0.73762 0.0
H636 H 0.99087 0.67612 0.90369 0.0
H637 H 0.0494 0.68327 0.86007 0.0
C638 C 0.06213 0.69968 0.74818 0.0
C639 C 0.06445 0.71007 0.68887 0.0
C640 C 0.02953 0.68007 0.77341 0.0
C641 C 0.03484 0.69126 0.65462 0.0
C642 C 0.00236 0.67154 0.67941 0.0
C643 C 0.96545 0.66484 0.76418 0.0
C644 C 0.96203 0.67064 0.82361 0.0
C645 C 0.99904 0.66988 0.73882 0.0
C646 C 0.99275 0.67212 0.85775 0.0
C647 C 0.02628 0.67695 0.83283 0.0
H648 H 0.44073 0.82835 0.2926 0.0
H649 H 0.49529 0.87529 0.13429 0.0
H650 H 0.5521 0.84793 0.17985 0.0
H651 H 0.58497 0.78629 0.25984 0.0
H652 H 0.53039 0.74315 0.41858 0.0
H653 H 0.47525 0.79369 0.37767 0.0
C654 C 0.46508 0.83466 0.26835 0.0
C655 C 0.46351 0.85063 0.20957 0.0
C656 C 0.49777 0.81777 0.29458 0.0
C657 C 0.49546 0.86091 0.17928 0.0
C658 C 0.5281 0.84474 0.2052 0.0
C659 C 0.56113 0.78926 0.28569 0.0
C660 C 0.56166 0.7591 0.34165 0.0
C661 C 0.52935 0.81883 0.262 0.0
C662 C 0.53074 0.76504 0.37512 0.0
C663 C 0.49906 0.79381 0.35175 0.0
H664 H 0.04022 0.03251 0.08198 0.0
H665 H 0.04401 0.16816 0.92454 0.0
H666 H 0.99404 0.08986 0.88753 0.0
H667 H 0.94981 0.98179 0.89918 0.0
H668 H 0.94505 0.84916 0.0579 0.0
H669 H 0.99436 0.92894 0.09527 0.0
C670 C 0.03027 0.04498 0.03947 0.0
C671 C 0.04633 0.10555 0.00589 0.0
C672 C 1.00104 0.00088 0.01879 0.0
C673 C 0.03249 0.12151 0.95128 0.0
C674 C 0.00378 0.07692 0.93007 0.0
C675 C 0.95929 0.97058 0.94213 0.0
C676 C 0.94366 0.90906 0.97543 0.0
C677 C 0.98787 0.0164 0.96343 0.0
C678 C 0.95643 0.89591 0.0311 0.0
C679 C 0.98481 0.94128 0.05252 0.0
H680 H 0.55164 0.52422 0.53216 0.0
H681 H 0.56225 0.40651 0.36837 0.0
H682 H 0.50605 0.33613 0.38292 0.0
H683 H 0.4528 0.31104 0.4411 0.0
H684 H 0.4402 0.44111 0.60023 0.0
H685 H 0.49741 0.50585 0.58714 0.0
C686 C 0.54176 0.48332 0.49954 0.0
C687 C 0.56128 0.47098 0.44929 0.0
C688 C 0.50855 0.44631 0.50673 0.0
C689 C 0.54797 0.41703 0.40772 0.0
C690 C 0.5156 0.37722 0.41571 0.0
C691 C 0.46233 0.35424 0.47259 0.0
C692 C 0.44211 0.37028 0.52175 0.0
C693 C 0.49538 0.3923 0.46473 0.0
C694 C 0.45505 0.42682 0.562 0.0
C695 C 0.48799 0.46378 0.55483 0.0
H696 H 0.46621 0.6738 0.98014 0.0
H697 H 0.44554 0.54515 0.13705 0.0
H698 H 0.49229 0.4481 0.11519 0.0
H699 H 0.53895 0.39778 0.0515 0.0
H700 H 0.56023 0.52623 0.89482 0.0
H701 H 0.51379 0.6245 0.91698 0.0
C702 C 0.47171 0.62421 0.00932 0.0
C703 C 0.45196 0.61696 0.05988 0.0
C704 C 0.49907 0.56833 0.99686 0.0
C705 C 0.45993 0.55251 0.09749 0.0
C706 C 0.48687 0.49675 0.08523 0.0
C707 C 0.53372 0.44766 0.02243 0.0
C708 C 0.55331 0.45428 0.97171 0.0
C709 C 0.50667 0.50403 0.0351 0.0
C710 C 0.54576 0.51924 0.93435 0.0
C711 C 0.51903 0.57561 0.94682 0.0
H712 H 0.05329 0.93154 0.47757 0.0
H713 H 0.052 0.04269 0.64462 0.0
H714 H 0.99651 0.11204 0.62155 0.0
H715 H 0.94835 0.14234 0.55393 0.0
H716 H 0.94993 0.03171 0.38672 0.0
H717 H 0.00475 0.9603 0.41052 0.0
C718 C 0.0411 0.97136 0.5089 0.0
C719 C 0.0572 0.98193 0.56269 0.0
C720 C 0.00886 0.01071 0.49563 0.0
C721 C 0.04055 0.03342 0.60272 0.0
C722 C 0.00862 0.073 0.58969 0.0
C723 C 0.96045 0.10214 0.52276 0.0
C724 C 0.9448 0.09291 0.46849 0.0
C725 C 0.99246 0.06197 0.53634 0.0
C726 C 0.96115 0.04036 0.42884 0.0
C727 C 0.99271 0.99962 0.44228 0.0
loop_
_geom_bond_atom_site_label_1
_geom_bond_atom_site_label_2
_geom_bond_distance
_geom_bond_site_symmetry_2
_ccdc_geom_bond_type
Co0 O2 2.143 . S
Co0 O8 2.074 . S
Co0 O11 2.093 1_554 S
Co0 O24 2.097 . S
Co0 N41 2.151 . S
Co0 N49 2.214 1_554 S
Co1 O2 2.160 . S
Co1 O7 2.058 . S
Co1 O17 2.057 . S
Co1 O32 2.037 . S
Co1 N36 2.145 . S
Co1 N57 2.257 . S
O2 Co0 2.143 . S
O2 Co1 2.160 . S
C3 O4 1.278 1_556 S
C3 O11 1.224 . S
O4 C3 1.278 1_554 S
C5 O6 1.245 . S
C5 O17 1.232 . S
O6 C5 1.245 . S
O7 Co1 2.058 . S
O7 C33 1.269 . S
O8 Co0 2.074 . S
O8 C33 1.257 . S
H9 C34 0.930 . S
H10 C40 0.930 . S
O11 Co0 2.093 1_556 S
O11 C3 1.224 . S
H12 C44 0.929 . S
H13 C46 0.930 . S
H14 C47 0.930 1_554 S
H15 C45 0.929 . S
H16 C48 0.928 . S
O17 Co1 2.057 . S
O17 C5 1.232 . S
H18 C37 0.929 . S
H19 C38 0.929 . S
H20 C50 0.931 1_655 S
H21 C42 0.929 . S
H22 C51 0.930 1_655 S
H23 C43 0.931 . S
O24 Co0 2.097 . S
O24 C52 1.214 . S
H25 C53 0.929 . S
H26 C54 0.929 . S
H27 C55 0.930 . S
H28 C56 0.929 . S
H29 C58 0.930 . S
H30 C35 0.930 . S
H31 C39 0.930 . S
O32 Co1 2.037 . S
O32 C52 1.234 . S
C33 O7 1.269 . S
C33 O8 1.257 . S
C34 H9 0.930 . S
C34 C37 1.388 1_565 S
C34 C39 1.418 . S
C35 H30 0.930 . S
C35 C38 1.404 1_565 S
C35 C39 1.353 . S
N36 Co1 2.145 . S
N36 C37 1.397 . S
N36 C38 1.334 . S
C37 H18 0.929 . S
C37 C34 1.388 1_545 S
C37 N36 1.397 . S
C38 H19 0.929 . S
C38 C35 1.404 1_545 S
C38 N36 1.334 . S
C39 H31 0.930 . S
C39 C34 1.418 . S
C39 C35 1.353 . S
C40 H10 0.930 . S
C40 N41 1.330 . S
C40 C42 1.446 . S
N41 Co0 2.151 . S
N41 C40 1.330 . S
N41 C45 1.418 . S
C42 H21 0.929 . S
C42 C40 1.446 . S
C42 C43 1.332 . S
C43 H23 0.931 . S
C43 C42 1.332 . S
C43 C44 1.267 . S
C44 H12 0.929 . S
C44 C43 1.267 . S
C44 C45 1.251 . S
C45 H15 0.929 . S
C45 N41 1.418 . S
C45 C44 1.251 . S
C46 H13 0.930 . S
C46 C48 1.406 . S
C46 C51 1.261 . S
C47 H14 0.930 1_556 S
C47 N49 1.325 . S
C47 C50 1.357 . S
C48 H16 0.928 . S
C48 C46 1.406 . S
C48 N49 1.261 . S
N49 Co0 2.214 1_556 S
N49 C47 1.325 . S
N49 C48 1.261 . S
C50 H20 0.931 1_455 S
C50 C47 1.357 . S
C50 C51 1.312 . S
C51 H22 0.930 1_455 S
C51 C46 1.261 . S
C51 C50 1.312 . S
C52 O24 1.214 . S
C52 O32 1.234 . S
C53 H25 0.929 . S
C53 C56 1.391 1_545 S
C53 C58 1.391 . S
C54 H26 0.929 . S
C54 C55 1.390 . S
C54 N57 1.391 1_565 S
C55 H27 0.930 . S
C55 C54 1.390 . S
C55 C56 1.392 . S
C56 H28 0.929 . S
C56 C53 1.391 1_565 S
C56 C55 1.392 . S
N57 Co1 2.257 . S
N57 C54 1.391 1_545 S
N57 C58 1.388 . S
C58 H29 0.930 . S
C58 C53 1.391 . S
C58 N57 1.388 . S
Co59 O61 2.143 . S
Co59 O67 2.074 . S
Co59 O70 2.093 . S
Co59 O83 2.097 . S
Co59 N100 2.151 . S
Co59 N108 2.214 . S
Co60 O61 2.160 . S
Co60 O66 2.058 . S
Co60 O76 2.057 . S
Co60 O91 2.037 . S
Co60 N95 2.145 . S
Co60 N116 2.257 . S
O61 Co59 2.143 . S
O61 Co60 2.160 . S
C62 O63 1.278 . S
C62 O70 1.224 . S
O63 C62 1.278 . S
C64 O65 1.245 . S
C64 O76 1.232 . S
O65 C64 1.245 . S
O66 Co60 2.058 . S
O66 C92 1.269 . S
O67 Co59 2.074 . S
O67 C92 1.257 . S
H68 C93 0.930 . S
H69 C99 0.930 . S
O70 Co59 2.093 . S
O70 C62 1.224 . S
H71 C103 0.929 . S
H72 C105 0.930 . S
H73 C106 0.930 . S
H74 C104 0.929 . S
H75 C107 0.928 . S
O76 Co60 2.057 . S
O76 C64 1.232 . S
H77 C96 0.929 . S
H78 C97 0.929 . S
H79 C109 0.931 . S
H80 C101 0.929 . S
H81 C110 0.930 . S
H82 C102 0.931 . S
O83 Co59 2.097 . S
O83 C111 1.214 . S
H84 C112 0.929 . S
H85 C113 0.929 . S
H86 C114 0.930 . S
H87 C115 0.929 . S
H88 C117 0.930 . S
H89 C94 0.930 . S
H90 C98 0.930 . S
O91 Co60 2.037 . S
O91 C111 1.234 . S
C92 O66 1.269 . S
C92 O67 1.257 . S
C93 H68 0.930 . S
C93 C96 1.388 . S
C93 C98 1.418 . S
C94 H89 0.930 . S
C94 C97 1.404 . S
C94 C98 1.353 . S
N95 Co60 2.145 . S
N95 C96 1.397 . S
N95 C97 1.334 . S
C96 H77 0.929 . S
C96 C93 1.388 . S
C96 N95 1.397 . S
C97 H78 0.929 . S
C97 C94 1.404 . S
C97 N95 1.334 . S
C98 H90 0.930 . S
C98 C93 1.418 . S
C98 C94 1.353 . S
C99 H69 0.930 . S
C99 N100 1.330 . S
C99 C101 1.446 1_545 S
N100 Co59 2.151 . S
N100 C99 1.330 . S
N100 C104 1.418 . S
C101 H80 0.929 . S
C101 C99 1.446 1_565 S
C101 C102 1.332 . S
C102 H82 0.931 . S
C102 C101 1.332 . S
C102 C103 1.267 . S
C103 H71 0.929 . S
C103 C102 1.267 . S
C103 C104 1.251 1_565 S
C104 H74 0.929 . S
C104 N100 1.418 . S
C104 C103 1.251 1_545 S
C105 H72 0.930 . S
C105 C107 1.406 . S
C105 C110 1.261 . S
C106 H73 0.930 . S
C106 N108 1.325 . S
C106 C109 1.357 . S
C107 H75 0.928 . S
C107 C105 1.406 . S
C107 N108 1.261 . S
N108 Co59 2.214 . S
N108 C106 1.325 . S
N108 C107 1.261 . S
C109 H79 0.931 . S
C109 C106 1.357 . S
C109 C110 1.312 . S
C110 H81 0.930 . S
C110 C105 1.261 . S
C110 C109 1.312 . S
C111 O83 1.214 . S
C111 O91 1.234 . S
C112 H84 0.929 . S
C112 C115 1.391 . S
C112 C117 1.391 . S
C113 H85 0.929 . S
C113 C114 1.390 . S
C113 N116 1.391 . S
C114 H86 0.930 . S
C114 C113 1.390 . S
C114 C115 1.392 . S
C115 H87 0.929 . S
C115 C112 1.391 . S
C115 C114 1.392 . S
N116 Co60 2.257 . S
N116 C113 1.391 . S
N116 C117 1.388 . S
C117 H88 0.930 . S
C117 C112 1.391 . S
C117 N116 1.388 . S
Co118 O120 2.143 . S
Co118 O126 2.074 . S
Co118 O129 2.093 1_556 S
Co118 O142 2.097 . S
Co118 N159 2.151 . S
Co118 N167 2.214 1_556 S
Co119 O120 2.160 . S
Co119 O125 2.058 . S
Co119 O135 2.057 . S
Co119 O150 2.037 . S
Co119 N154 2.145 . S
Co119 N175 2.257 . S
O120 Co118 2.143 . S
O120 Co119 2.160 . S
C121 O122 1.278 1_554 S
C121 O129 1.224 . S
O122 C121 1.278 1_556 S
C123 O124 1.245 . S
C123 O135 1.232 . S
O124 C123 1.245 . S
O125 Co119 2.058 . S
O125 C151 1.269 . S
O126 Co118 2.074 . S
O126 C151 1.257 . S
H127 C152 0.930 . S
H128 C158 0.930 . S
O129 Co118 2.093 1_554 S
O129 C121 1.224 . S
H130 C162 0.929 . S
H131 C164 0.930 . S
H132 C165 0.930 1_556 S
H133 C163 0.929 . S
H134 C166 0.928 . S
O135 Co119 2.057 . S
O135 C123 1.232 . S
H136 C155 0.929 . S
H137 C156 0.929 . S
H138 C168 0.931 . S
H139 C160 0.929 . S
H140 C169 0.930 . S
H141 C161 0.931 . S
O142 Co118 2.097 . S
O142 C170 1.214 . S
H143 C171 0.929 . S
H144 C172 0.929 . S
H145 C173 0.930 . S
H146 C174 0.929 . S
H147 C176 0.930 . S
H148 C153 0.930 . S
H149 C157 0.930 . S
O150 Co119 2.037 . S
O150 C170 1.234 . S
C151 O125 1.269 . S
C151 O126 1.257 . S
C152 H127 0.930 . S
C152 C155 1.388 . S
C152 C157 1.418 . S
C153 H148 0.930 . S
C153 C156 1.404 . S
C153 C157 1.353 . S
N154 Co119 2.145 . S
N154 C155 1.397 . S
N154 C156 1.334 . S
C155 H136 0.929 . S
C155 C152 1.388 . S
C155 N154 1.397 . S
C156 H137 0.929 . S
C156 C153 1.404 . S
C156 N154 1.334 . S
C157 H149 0.930 . S
C157 C152 1.418 . S
C157 C153 1.353 . S
C158 H128 0.930 . S
C158 N159 1.330 . S
C158 C160 1.446 1_545 S
N159 Co118 2.151 . S
N159 C158 1.330 . S
N159 C163 1.418 . S
C160 H139 0.929 . S
C160 C158 1.446 1_565 S
C160 C161 1.332 . S
C161 H141 0.931 . S
C161 C160 1.332 . S
C161 C162 1.267 . S
C162 H130 0.929 . S
C162 C161 1.267 . S
C162 C163 1.251 1_565 S
C163 H133 0.929 . S
C163 N159 1.418 . S
C163 C162 1.251 1_545 S
C164 H131 0.930 . S
C164 C166 1.406 . S
C164 C169 1.261 . S
C165 H132 0.930 1_554 S
C165 N167 1.325 . S
C165 C168 1.357 . S
C166 H134 0.928 . S
C166 C164 1.406 . S
C166 N167 1.261 . S
N167 Co118 2.214 1_554 S
N167 C165 1.325 . S
N167 C166 1.261 . S
C168 H138 0.931 . S
C168 C165 1.357 . S
C168 C169 1.312 . S
C169 H140 0.930 . S
C169 C164 1.261 . S
C169 C168 1.312 . S
C170 O142 1.214 . S
C170 O150 1.234 . S
C171 H143 0.929 . S
C171 C174 1.391 . S
C171 C176 1.391 . S
C172 H144 0.929 . S
C172 C173 1.390 . S
C172 N175 1.391 . S
C173 H145 0.930 . S
C173 C172 1.390 . S
C173 C174 1.392 . S
C174 H146 0.929 . S
C174 C171 1.391 . S
C174 C173 1.392 . S
N175 Co119 2.257 . S
N175 C172 1.391 . S
N175 C176 1.388 . S
C176 H147 0.930 . S
C176 C171 1.391 . S
C176 N175 1.388 . S
Co177 O179 2.143 . S
Co177 O185 2.074 . S
Co177 O188 2.093 . S
Co177 O201 2.097 . S
Co177 N218 2.151 . S
Co177 N226 2.214 . S
Co178 O179 2.160 . S
Co178 O184 2.058 . S
Co178 O194 2.057 . S
Co178 O209 2.037 . S
Co178 N213 2.145 . S
Co178 N234 2.257 . S
O179 Co177 2.143 . S
O179 Co178 2.160 . S
C180 O181 1.278 . S
C180 O188 1.224 . S
O181 C180 1.278 . S
C182 O183 1.245 . S
C182 O194 1.232 . S
O183 C182 1.245 . S
O184 Co178 2.058 . S
O184 C210 1.269 . S
O185 Co177 2.074 . S
O185 C210 1.257 . S
H186 C211 0.930 . S
H187 C217 0.930 . S
O188 Co177 2.093 . S
O188 C180 1.224 . S
H189 C221 0.929 . S
H190 C223 0.930 . S
H191 C224 0.930 . S
H192 C222 0.929 . S
H193 C225 0.928 . S
O194 Co178 2.057 . S
O194 C182 1.232 . S
H195 C214 0.929 . S
H196 C215 0.929 . S
H197 C227 0.931 1_455 S
H198 C219 0.929 . S
H199 C228 0.930 1_455 S
H200 C220 0.931 . S
O201 Co177 2.097 . S
O201 C229 1.214 . S
H202 C230 0.929 . S
H203 C231 0.929 . S
H204 C232 0.930 . S
H205 C233 0.929 . S
H206 C235 0.930 . S
H207 C212 0.930 . S
H208 C216 0.930 . S
O209 Co178 2.037 . S
O209 C229 1.234 . S
C210 O184 1.269 . S
C210 O185 1.257 . S
C211 H186 0.930 . S
C211 C214 1.388 1_565 S
C211 C216 1.418 . S
C212 H207 0.930 . S
C212 C215 1.404 1_565 S
C212 C216 1.353 . S
N213 Co178 2.145 . S
N213 C214 1.397 . S
N213 C215 1.334 . S
C214 H195 0.929 . S
C214 C211 1.388 1_545 S
C214 N213 1.397 . S
C215 H196 0.929 . S
C215 C212 1.404 1_545 S
C215 N213 1.334 . S
C216 H208 0.930 . S
C216 C211 1.418 . S
C216 C212 1.353 . S
C217 H187 0.930 . S
C217 N218 1.330 . S
C217 C219 1.446 . S
N218 Co177 2.151 . S
N218 C217 1.330 . S
N218 C222 1.418 . S
C219 H198 0.929 . S
C219 C217 1.446 . S
C219 C220 1.332 . S
C220 H200 0.931 . S
C220 C219 1.332 . S
C220 C221 1.267 . S
C221 H189 0.929 . S
C221 C220 1.267 . S
C221 C222 1.251 . S
C222 H192 0.929 . S
C222 N218 1.418 . S
C222 C221 1.251 . S
C223 H190 0.930 . S
C223 C225 1.406 . S
C223 C228 1.261 . S
C224 H191 0.930 . S
C224 N226 1.325 . S
C224 C227 1.357 . S
C225 H193 0.928 . S
C225 C223 1.406 . S
C225 N226 1.261 . S
N226 Co177 2.214 . S
N226 C224 1.325 . S
N226 C225 1.261 . S
C227 H197 0.931 1_655 S
C227 C224 1.357 . S
C227 C228 1.312 . S
C228 H199 0.930 1_655 S
C228 C223 1.261 . S
C228 C227 1.312 . S
C229 O201 1.214 . S
C229 O209 1.234 . S
C230 H202 0.929 . S
C230 C233 1.391 1_545 S
C230 C235 1.391 . S
C231 H203 0.929 . S
C231 C232 1.390 . S
C231 N234 1.391 1_565 S
C232 H204 0.930 . S
C232 C231 1.390 . S
C232 C233 1.392 . S
C233 H205 0.929 . S
C233 C230 1.391 1_565 S
C233 C232 1.392 . S
N234 Co178 2.257 . S
N234 C231 1.391 1_545 S
N234 C235 1.388 . S
C235 H206 0.930 . S
C235 C230 1.391 . S
C235 N234 1.388 . S
Co236 O238 2.143 . S
Co236 O244 2.074 . S
Co236 O247 2.093 . S
Co236 O260 2.097 . S
Co236 N277 2.151 . S
Co236 N285 2.214 . S
Co237 O238 2.160 . S
Co237 O243 2.058 . S
Co237 O253 2.057 1_556 S
Co237 O268 2.037 . S
Co237 N272 2.145 1_556 S
Co237 N293 2.257 . S
O238 Co236 2.143 . S
O238 Co237 2.160 . S
C239 O240 1.278 . S
C239 O247 1.224 . S
O240 C239 1.278 . S
C241 O242 1.245 1_554 S
C241 O253 1.232 . S
O242 C241 1.245 1_556 S
O243 Co237 2.058 . S
O243 C269 1.269 . S
O244 Co236 2.074 . S
O244 C269 1.257 . S
H245 C270 0.930 1_455 S
H246 C276 0.930 . S
O247 Co236 2.093 . S
O247 C239 1.224 . S
H248 C280 0.929 . S
H249 C282 0.930 . S
H250 C283 0.930 . S
H251 C281 0.929 . S
H252 C284 0.928 . S
O253 Co237 2.057 1_554 S
O253 C241 1.232 . S
H254 C273 0.929 . S
H255 C274 0.929 . S
H256 C286 0.931 . S
H257 C278 0.929 1_565 S
H258 C287 0.930 . S
H259 C279 0.931 . S
O260 Co236 2.097 . S
O260 C288 1.214 . S
H261 C289 0.929 . S
H262 C290 0.929 . S
H263 C291 0.930 . S
H264 C292 0.929 . S
H265 C294 0.930 . S
H266 C271 0.930 . S
H267 C275 0.930 . S
O268 Co237 2.037 . S
O268 C288 1.234 . S
C269 O243 1.269 . S
C269 O244 1.257 . S
C270 H245 0.930 1_655 S
C270 C273 1.388 1_554 S
C270 C275 1.418 . S
C271 H266 0.930 . S
C271 C274 1.404 . S
C271 C275 1.353 . S
N272 Co237 2.145 1_554 S
N272 C273 1.397 1_554 S
N272 C274 1.334 . S
C273 H254 0.929 . S
C273 C270 1.388 1_556 S
C273 N272 1.397 1_556 S
C274 H255 0.929 . S
C274 C271 1.404 . S
C274 N272 1.334 . S
C275 H267 0.930 . S
C275 C270 1.418 . S
C275 C271 1.353 . S
C276 H246 0.930 . S
C276 N277 1.330 . S
C276 C278 1.446 1_565 S
N277 Co236 2.151 . S
N277 C276 1.330 . S
N277 C281 1.418 1_565 S
C278 H257 0.929 1_545 S
C278 C276 1.446 1_545 S
C278 C279 1.332 . S
C279 H259 0.931 . S
C279 C278 1.332 . S
C279 C280 1.267 . S
C280 H248 0.929 . S
C280 C279 1.267 . S
C280 C281 1.251 . S
C281 H251 0.929 . S
C281 N277 1.418 1_545 S
C281 C280 1.251 . S
C282 H249 0.930 . S
C282 C284 1.406 1_545 S
C282 C287 1.261 . S
C283 H250 0.930 . S
C283 N285 1.325 . S
C283 C286 1.357 . S
C284 H252 0.928 . S
C284 C282 1.406 1_565 S
C284 N285 1.261 . S
N285 Co236 2.214 . S
N285 C283 1.325 . S
N285 C284 1.261 . S
C286 H256 0.931 . S
C286 C283 1.357 . S
C286 C287 1.312 1_565 S
C287 H258 0.930 . S
C287 C282 1.261 . S
C287 C286 1.312 1_545 S
C288 O260 1.214 . S
C288 O268 1.234 . S
C289 H261 0.929 . S
C289 C292 1.391 . S
C289 C294 1.391 . S
C290 H262 0.929 . S
C290 C291 1.390 . S
C290 N293 1.391 . S
C291 H263 0.930 . S
C291 C290 1.390 . S
C291 C292 1.392 . S
C292 H264 0.929 . S
C292 C289 1.391 . S
C292 C291 1.392 . S
N293 Co237 2.257 . S
N293 C290 1.391 . S
N293 C294 1.388 . S
C294 H265 0.930 . S
C294 C289 1.391 . S
C294 N293 1.388 . S
Co295 O297 2.143 . S
Co295 O303 2.074 . S
Co295 O306 2.093 . S
Co295 O319 2.097 . S
Co295 N336 2.151 . S
Co295 N344 2.214 . S
Co296 O297 2.160 . S
Co296 O302 2.058 . S
Co296 O312 2.057 . S
Co296 O327 2.037 . S
Co296 N331 2.145 . S
Co296 N352 2.257 . S
O297 Co295 2.143 . S
O297 Co296 2.160 . S
C298 O299 1.278 . S
C298 O306 1.224 . S
O299 C298 1.278 . S
C300 O301 1.245 . S
C300 O312 1.232 . S
O301 C300 1.245 . S
O302 Co296 2.058 . S
O302 C328 1.269 . S
O303 Co295 2.074 . S
O303 C328 1.257 . S
H304 C329 0.930 . S
H305 C335 0.930 . S
O306 Co295 2.093 . S
O306 C298 1.224 . S
H307 C339 0.929 . S
H308 C341 0.930 . S
H309 C342 0.930 . S
H310 C340 0.929 . S
H311 C343 0.928 . S
O312 Co296 2.057 . S
O312 C300 1.232 . S
H313 C332 0.929 . S
H314 C333 0.929 . S
H315 C345 0.931 . S
H316 C337 0.929 . S
H317 C346 0.930 . S
H318 C338 0.931 . S
O319 Co295 2.097 . S
O319 C347 1.214 . S
H320 C348 0.929 . S
H321 C349 0.929 . S
H322 C350 0.930 . S
H323 C351 0.929 . S
H324 C353 0.930 . S
H325 C330 0.930 . S
H326 C334 0.930 1_545 S
O327 Co296 2.037 . S
O327 C347 1.234 . S
C328 O302 1.269 . S
C328 O303 1.257 . S
C329 H304 0.930 . S
C329 C332 1.388 . S
C329 C334 1.418 . S
C330 H325 0.930 . S
C330 C333 1.404 . S
C330 C334 1.353 . S
N331 Co296 2.145 . S
N331 C332 1.397 . S
N331 C333 1.334 . S
C332 H313 0.929 . S
C332 C329 1.388 . S
C332 N331 1.397 . S
C333 H314 0.929 . S
C333 C330 1.404 . S
C333 N331 1.334 . S
C334 H326 0.930 1_565 S
C334 C329 1.418 . S
C334 C330 1.353 . S
C335 H305 0.930 . S
C335 N336 1.330 . S
C335 C337 1.446 . S
N336 Co295 2.151 . S
N336 C335 1.330 . S
N336 C340 1.418 . S
C337 H316 0.929 . S
C337 C335 1.446 . S
C337 C338 1.332 . S
C338 H318 0.931 . S
C338 C337 1.332 . S
C338 C339 1.267 . S
C339 H307 0.929 . S
C339 C338 1.267 . S
C339 C340 1.251 . S
C340 H310 0.929 . S
C340 N336 1.418 . S
C340 C339 1.251 . S
C341 H308 0.930 . S
C341 C343 1.406 . S
C341 C346 1.261 . S
C342 H309 0.930 . S
C342 N344 1.325 . S
C342 C345 1.357 . S
C343 H311 0.928 . S
C343 C341 1.406 . S
C343 N344 1.261 . S
N344 Co295 2.214 . S
N344 C342 1.325 . S
N344 C343 1.261 . S
C345 H315 0.931 . S
C345 C342 1.357 . S
C345 C346 1.312 . S
C346 H317 0.930 . S
C346 C341 1.261 . S
C346 C345 1.312 . S
C347 O319 1.214 . S
C347 O327 1.234 . S
C348 H320 0.929 . S
C348 C351 1.391 . S
C348 C353 1.391 1_545 S
C349 H321 0.929 . S
C349 C350 1.390 1_565 S
C349 N352 1.391 . S
C350 H322 0.930 . S
C350 C349 1.390 1_545 S
C350 C351 1.392 . S
C351 H323 0.929 . S
C351 C348 1.391 . S
C351 C350 1.392 . S
N352 Co296 2.257 . S
N352 C349 1.391 . S
N352 C353 1.388 . S
C353 H324 0.930 . S
C353 C348 1.391 1_565 S
C353 N352 1.388 . S
Co354 O356 2.143 . S
Co354 O362 2.074 . S
Co354 O365 2.093 . S
Co354 O378 2.097 . S
Co354 N395 2.151 . S
Co354 N403 2.214 . S
Co355 O356 2.160 . S
Co355 O361 2.058 . S
Co355 O371 2.057 1_554 S
Co355 O386 2.037 . S
Co355 N390 2.145 1_554 S
Co355 N411 2.257 . S
O356 Co354 2.143 . S
O356 Co355 2.160 . S
C357 O358 1.278 . S
C357 O365 1.224 . S
O358 C357 1.278 . S
C359 O360 1.245 1_556 S
C359 O371 1.232 . S
O360 C359 1.245 1_554 S
O361 Co355 2.058 . S
O361 C387 1.269 . S
O362 Co354 2.074 . S
O362 C387 1.257 . S
H363 C388 0.930 . S
H364 C394 0.930 . S
O365 Co354 2.093 . S
O365 C357 1.224 . S
H366 C398 0.929 . S
H367 C400 0.930 . S
H368 C401 0.930 . S
H369 C399 0.929 . S
H370 C402 0.928 . S
O371 Co355 2.057 1_556 S
O371 C359 1.232 . S
H372 C391 0.929 . S
H373 C392 0.929 . S
H374 C404 0.931 . S
H375 C396 0.929 . S
H376 C405 0.930 . S
H377 C397 0.931 . S
O378 Co354 2.097 . S
O378 C406 1.214 . S
H379 C407 0.929 . S
H380 C408 0.929 . S
H381 C409 0.930 . S
H382 C410 0.929 . S
H383 C412 0.930 . S
H384 C389 0.930 . S
H385 C393 0.930 1_545 S
O386 Co355 2.037 . S
O386 C406 1.234 . S
C387 O361 1.269 . S
C387 O362 1.257 . S
C388 H363 0.930 . S
C388 C391 1.388 1_556 S
C388 C393 1.418 . S
C389 H384 0.930 . S
C389 C392 1.404 . S
C389 C393 1.353 . S
N390 Co355 2.145 1_556 S
N390 C391 1.397 1_556 S
N390 C392 1.334 . S
C391 H372 0.929 . S
C391 C388 1.388 1_554 S
C391 N390 1.397 1_554 S
C392 H373 0.929 . S
C392 C389 1.404 . S
C392 N390 1.334 . S
C393 H385 0.930 1_565 S
C393 C388 1.418 . S
C393 C389 1.353 . S
C394 H364 0.930 . S
C394 N395 1.330 . S
C394 C396 1.446 . S
N395 Co354 2.151 . S
N395 C394 1.330 . S
N395 C399 1.418 . S
C396 H375 0.929 . S
C396 C394 1.446 . S
C396 C397 1.332 . S
C397 H377 0.931 . S
C397 C396 1.332 . S
C397 C398 1.267 . S
C398 H366 0.929 . S
C398 C397 1.267 . S
C398 C399 1.251 . S
C399 H369 0.929 . S
C399 N395 1.418 . S
C399 C398 1.251 . S
C400 H367 0.930 . S
C400 C402 1.406 . S
C400 C405 1.261 . S
C401 H368 0.930 . S
C401 N403 1.325 . S
C401 C404 1.357 . S
C402 H370 0.928 . S
C402 C400 1.406 . S
C402 N403 1.261 . S
N403 Co354 2.214 . S
N403 C401 1.325 . S
N403 C402 1.261 . S
C404 H374 0.931 . S
C404 C401 1.357 . S
C404 C405 1.312 . S
C405 H376 0.930 . S
C405 C400 1.261 . S
C405 C404 1.312 . S
C406 O378 1.214 . S
C406 O386 1.234 . S
C407 H379 0.929 . S
C407 C410 1.391 . S
C407 C412 1.391 1_545 S
C408 H380 0.929 . S
C408 C409 1.390 1_565 S
C408 N411 1.391 . S
C409 H381 0.930 . S
C409 C408 1.390 1_545 S
C409 C410 1.392 . S
C410 H382 0.929 . S
C410 C407 1.391 . S
C410 C409 1.392 . S
N411 Co355 2.257 . S
N411 C408 1.391 . S
N411 C412 1.388 . S
C412 H383 0.930 . S
C412 C407 1.391 1_565 S
C412 N411 1.388 . S
Co413 O415 2.143 . S
Co413 O421 2.074 . S
Co413 O424 2.093 . S
Co413 O437 2.097 . S
Co413 N454 2.151 . S
Co413 N462 2.214 . S
Co414 O415 2.160 . S
Co414 O420 2.058 . S
Co414 O430 2.057 . S
Co414 O445 2.037 . S
Co414 N449 2.145 . S
Co414 N470 2.257 . S
O415 Co413 2.143 . S
O415 Co414 2.160 . S
C416 O417 1.278 . S
C416 O424 1.224 . S
O417 C416 1.278 . S
C418 O419 1.245 . S
C418 O430 1.232 . S
O419 C418 1.245 . S
O420 Co414 2.058 . S
O420 C446 1.269 . S
O421 Co413 2.074 . S
O421 C446 1.257 . S
H422 C447 0.930 1_655 S
H423 C453 0.930 . S
O424 Co413 2.093 . S
O424 C416 1.224 . S
H425 C457 0.929 . S
H426 C459 0.930 . S
H427 C460 0.930 . S
H428 C458 0.929 . S
H429 C461 0.928 . S
O430 Co414 2.057 . S
O430 C418 1.232 . S
H431 C450 0.929 . S
H432 C451 0.929 . S
H433 C463 0.931 . S
H434 C455 0.929 1_565 S
H435 C464 0.930 . S
H436 C456 0.931 . S
O437 Co413 2.097 . S
O437 C465 1.214 . S
H438 C466 0.929 . S
H439 C467 0.929 . S
H440 C468 0.930 . S
H441 C469 0.929 . S
H442 C471 0.930 . S
H443 C448 0.930 . S
H444 C452 0.930 . S
O445 Co414 2.037 . S
O445 C465 1.234 . S
C446 O420 1.269 . S
C446 O421 1.257 . S
C447 H422 0.930 1_455 S
C447 C450 1.388 . S
C447 C452 1.418 . S
C448 H443 0.930 . S
C448 C451 1.404 . S
C448 C452 1.353 . S
N449 Co414 2.145 . S
N449 C450 1.397 . S
N449 C451 1.334 . S
C450 H431 0.929 . S
C450 C447 1.388 . S
C450 N449 1.397 . S
C451 H432 0.929 . S
C451 C448 1.404 . S
C451 N449 1.334 . S
C452 H444 0.930 . S
C452 C447 1.418 . S
C452 C448 1.353 . S
C453 H423 0.930 . S
C453 N454 1.330 . S
C453 C455 1.446 1_565 S
N454 Co413 2.151 . S
N454 C453 1.330 . S
N454 C458 1.418 1_565 S
C455 H434 0.929 1_545 S
C455 C453 1.446 1_545 S
C455 C456 1.332 . S
C456 H436 0.931 . S
C456 C455 1.332 . S
C456 C457 1.267 . S
C457 H425 0.929 . S
C457 C456 1.267 . S
C457 C458 1.251 . S
C458 H428 0.929 . S
C458 N454 1.418 1_545 S
C458 C457 1.251 . S
C459 H426 0.930 . S
C459 C461 1.406 1_545 S
C459 C464 1.261 . S
C460 H427 0.930 . S
C460 N462 1.325 . S
C460 C463 1.357 . S
C461 H429 0.928 . S
C461 C459 1.406 1_565 S
C461 N462 1.261 . S
N462 Co413 2.214 . S
N462 C460 1.325 . S
N462 C461 1.261 . S
C463 H433 0.931 . S
C463 C460 1.357 . S
C463 C464 1.312 1_565 S
C464 H435 0.930 . S
C464 C459 1.261 . S
C464 C463 1.312 1_545 S
C465 O437 1.214 . S
C465 O445 1.234 . S
C466 H438 0.929 . S
C466 C469 1.391 . S
C466 C471 1.391 . S
C467 H439 0.929 . S
C467 C468 1.390 . S
C467 N470 1.391 . S
C468 H440 0.930 . S
C468 C467 1.390 . S
C468 C469 1.392 . S
C469 H441 0.929 . S
C469 C466 1.391 . S
C469 C468 1.392 . S
N470 Co414 2.257 . S
N470 C467 1.391 . S
N470 C471 1.388 . S
C471 H442 0.930 . S
C471 C466 1.391 . S
C471 N470 1.388 . S
H472 C478 0.930 . S
H473 C481 0.930 . S
H474 C482 0.930 . S
H475 C483 0.930 . S
H476 C486 0.930 . S
H477 C487 0.930 . S
C478 H472 0.930 . S
C478 C479 1.355 . S
C478 C480 1.415 . S
C479 C478 1.355 . S
C479 C481 1.419 . S
C480 C478 1.415 . S
C480 C485 1.425 . S
C480 C487 1.409 . S
C481 H473 0.930 . S
C481 C479 1.419 . S
C481 C482 1.362 . S
C482 H474 0.930 . S
C482 C481 1.362 . S
C482 C485 1.409 . S
C483 H475 0.930 . S
C483 C484 1.355 . S
C483 C485 1.415 . S
C484 C483 1.355 . S
C484 C486 1.419 . S
C485 C480 1.425 . S
C485 C482 1.409 . S
C485 C483 1.415 . S
C486 H476 0.930 . S
C486 C484 1.419 . S
C486 C487 1.362 . S
C487 H477 0.930 . S
C487 C480 1.409 . S
C487 C486 1.362 . S
H488 C494 0.930 . S
H489 C497 0.930 . S
H490 C498 0.930 . S
H491 C499 0.930 . S
H492 C502 0.930 . S
H493 C503 0.930 . S
C494 H488 0.930 . S
C494 C495 1.355 . S
C494 C496 1.415 . S
C495 C494 1.355 . S
C495 C497 1.419 . S
C496 C494 1.415 . S
C496 C501 1.425 . S
C496 C503 1.409 . S
C497 H489 0.930 . S
C497 C495 1.419 . S
C497 C498 1.362 . S
C498 H490 0.930 . S
C498 C497 1.362 . S
C498 C501 1.409 . S
C499 H491 0.930 . S
C499 C500 1.355 . S
C499 C501 1.415 . S
C500 C499 1.355 . S
C500 C502 1.419 . S
C501 C496 1.425 . S
C501 C498 1.409 . S
C501 C499 1.415 . S
C502 H492 0.930 . S
C502 C500 1.419 . S
C502 C503 1.362 . S
C503 H493 0.930 . S
C503 C496 1.409 . S
C503 C502 1.362 . S
H504 C510 0.930 . S
H505 C513 0.930 . S
H506 C514 0.930 . S
H507 C515 0.930 . S
H508 C518 0.930 . S
H509 C519 0.930 . S
C510 H504 0.930 . S
C510 C511 1.355 . S
C510 C512 1.415 . S
C511 C510 1.355 . S
C511 C513 1.419 . S
C512 C510 1.415 . S
C512 C517 1.425 . S
C512 C519 1.409 . S
C513 H505 0.930 . S
C513 C511 1.419 . S
C513 C514 1.362 . S
C514 H506 0.930 . S
C514 C513 1.362 . S
C514 C517 1.409 . S
C515 H507 0.930 . S
C515 C516 1.355 . S
C515 C517 1.415 . S
C516 C515 1.355 . S
C516 C518 1.419 . S
C517 C512 1.425 . S
C517 C514 1.409 . S
C517 C515 1.415 . S
C518 H508 0.930 . S
C518 C516 1.419 . S
C518 C519 1.362 . S
C519 H509 0.930 . S
C519 C512 1.409 . S
C519 C518 1.362 . S
H520 C526 0.930 . S
H521 C529 0.930 . S
H522 C530 0.930 . S
H523 C531 0.930 . S
H524 C534 0.930 . S
H525 C535 0.930 . S
C526 H520 0.930 . S
C526 C527 1.355 . S
C526 C528 1.415 . S
C527 C526 1.355 . S
C527 C529 1.419 . S
C528 C526 1.415 . S
C528 C533 1.425 . S
C528 C535 1.409 . S
C529 H521 0.930 . S
C529 C527 1.419 . S
C529 C530 1.362 . S
C530 H522 0.930 . S
C530 C529 1.362 . S
C530 C533 1.409 . S
C531 H523 0.930 . S
C531 C532 1.355 . S
C531 C533 1.415 . S
C532 C531 1.355 . S
C532 C534 1.419 . S
C533 C528 1.425 . S
C533 C530 1.409 . S
C533 C531 1.415 . S
C534 H524 0.930 . S
C534 C532 1.419 . S
C534 C535 1.362 . S
C535 H525 0.930 . S
C535 C528 1.409 . S
C535 C534 1.362 . S
H536 C542 0.930 . S
H537 C545 0.930 . S
H538 C546 0.930 . S
H539 C547 0.930 . S
H540 C550 0.930 . S
H541 C551 0.930 . S
C542 H536 0.930 . S
C542 C543 1.355 . S
C542 C544 1.415 . S
C543 C542 1.355 . S
C543 C545 1.419 . S
C544 C542 1.415 . S
C544 C549 1.425 . S
C544 C551 1.409 . S
C545 H537 0.930 . S
C545 C543 1.419 . S
C545 C546 1.362 . S
C546 H538 0.930 . S
C546 C545 1.362 . S
C546 C549 1.409 . S
C547 H539 0.930 . S
C547 C548 1.355 . S
C547 C549 1.415 . S
C548 C547 1.355 . S
C548 C550 1.419 . S
C549 C544 1.425 . S
C549 C546 1.409 . S
C549 C547 1.415 . S
C550 H540 0.930 . S
C550 C548 1.419 . S
C550 C551 1.362 . S
C551 H541 0.930 . S
C551 C544 1.409 . S
C551 C550 1.362 . S
H552 C558 0.930 . S
H553 C561 0.930 . S
H554 C562 0.930 . S
H555 C563 0.930 . S
H556 C566 0.930 . S
H557 C567 0.930 . S
C558 H552 0.930 . S
C558 C559 1.355 . S
C558 C560 1.415 . S
C559 C558 1.355 . S
C559 C561 1.419 . S
C560 C558 1.415 . S
C560 C565 1.425 . S
C560 C567 1.409 . S
C561 H553 0.930 . S
C561 C559 1.419 . S
C561 C562 1.362 . S
C562 H554 0.930 . S
C562 C561 1.362 . S
C562 C565 1.409 . S
C563 H555 0.930 . S
C563 C564 1.355 . S
C563 C565 1.415 . S
C564 C563 1.355 . S
C564 C566 1.419 . S
C565 C560 1.425 . S
C565 C562 1.409 . S
C565 C563 1.415 . S
C566 H556 0.930 . S
C566 C564 1.419 . S
C566 C567 1.362 . S
C567 H557 0.930 . S
C567 C560 1.409 . S
C567 C566 1.362 . S
H568 C574 0.930 . S
H569 C577 0.930 . S
H570 C578 0.930 . S
H571 C579 0.930 . S
H572 C582 0.930 . S
H573 C583 0.930 . S
C574 H568 0.930 . S
C574 C575 1.355 . S
C574 C576 1.415 . S
C575 C574 1.355 . S
C575 C577 1.419 . S
C576 C574 1.415 . S
C576 C581 1.425 . S
C576 C583 1.409 . S
C577 H569 0.930 . S
C577 C575 1.419 . S
C577 C578 1.362 . S
C578 H570 0.930 . S
C578 C577 1.362 . S
C578 C581 1.409 . S
C579 H571 0.930 . S
C579 C580 1.355 . S
C579 C581 1.415 . S
C580 C579 1.355 . S
C580 C582 1.419 . S
C581 C576 1.425 . S
C581 C578 1.409 . S
C581 C579 1.415 . S
C582 H572 0.930 . S
C582 C580 1.419 . S
C582 C583 1.362 . S
C583 H573 0.930 . S
C583 C576 1.409 . S
C583 C582 1.362 . S
H584 C590 0.930 . S
H585 C593 0.930 . S
H586 C594 0.930 . S
H587 C595 0.930 . S
H588 C598 0.930 . S
H589 C599 0.930 . S
C590 H584 0.930 . S
C590 C591 1.355 . S
C590 C592 1.415 . S
C591 C590 1.355 . S
C591 C593 1.419 . S
C592 C590 1.415 . S
C592 C597 1.425 . S
C592 C599 1.409 . S
C593 H585 0.930 . S
C593 C591 1.419 . S
C593 C594 1.362 . S
C594 H586 0.930 . S
C594 C593 1.362 . S
C594 C597 1.409 . S
C595 H587 0.930 . S
C595 C596 1.355 . S
C595 C597 1.415 . S
C596 C595 1.355 . S
C596 C598 1.419 . S
C597 C592 1.425 . S
C597 C594 1.409 . S
C597 C595 1.415 . S
C598 H588 0.930 . S
C598 C596 1.419 . S
C598 C599 1.362 . S
C599 H589 0.930 . S
C599 C592 1.409 . S
C599 C598 1.362 . S
H600 C606 0.930 . S
H601 C609 0.930 . S
H602 C610 0.930 . S
H603 C611 0.930 . S
H604 C614 0.930 . S
H605 C615 0.930 . S
C606 H600 0.930 . S
C606 C607 1.355 . S
C606 C608 1.415 . S
C607 C606 1.355 . S
C607 C609 1.419 . S
C608 C606 1.415 . S
C608 C613 1.425 1_455 S
C608 C615 1.409 . S
C609 H601 0.930 . S
C609 C607 1.419 . S
C609 C610 1.362 1_455 S
C610 H602 0.930 . S
C610 C609 1.362 1_655 S
C610 C613 1.409 . S
C611 H603 0.930 . S
C611 C612 1.355 . S
C611 C613 1.415 . S
C612 C611 1.355 . S
C612 C614 1.419 . S
C613 C608 1.425 1_655 S
C613 C610 1.409 . S
C613 C611 1.415 . S
C614 H604 0.930 . S
C614 C612 1.419 . S
C614 C615 1.362 1_655 S
C615 H605 0.930 . S
C615 C608 1.409 . S
C615 C614 1.362 1_455 S
H616 C622 0.930 . S
H617 C625 0.930 . S
H618 C626 0.930 . S
H619 C627 0.930 . S
H620 C630 0.930 . S
H621 C631 0.930 . S
C622 H616 0.930 . S
C622 C623 1.355 . S
C622 C624 1.415 . S
C623 C622 1.355 . S
C623 C625 1.419 . S
C624 C622 1.415 . S
C624 C629 1.425 . S
C624 C631 1.409 . S
C625 H617 0.930 . S
C625 C623 1.419 . S
C625 C626 1.362 . S
C626 H618 0.930 . S
C626 C625 1.362 . S
C626 C629 1.409 . S
C627 H619 0.930 . S
C627 C628 1.355 . S
C627 C629 1.415 . S
C628 C627 1.355 . S
C628 C630 1.419 . S
C629 C624 1.425 . S
C629 C626 1.409 . S
C629 C627 1.415 . S
C630 H620 0.930 . S
C630 C628 1.419 . S
C630 C631 1.362 . S
C631 H621 0.930 . S
C631 C624 1.409 . S
C631 C630 1.362 . S
H632 C638 0.930 . S
H633 C641 0.930 . S
H634 C642 0.930 . S
H635 C643 0.930 . S
H636 C646 0.930 . S
H637 C647 0.930 . S
C638 H632 0.930 . S
C638 C639 1.355 . S
C638 C640 1.415 . S
C639 C638 1.355 . S
C639 C641 1.419 . S
C640 C638 1.415 . S
C640 C645 1.425 1_455 S
C640 C647 1.409 . S
C641 H633 0.930 . S
C641 C639 1.419 . S
C641 C642 1.362 1_455 S
C642 H634 0.930 . S
C642 C641 1.362 1_655 S
C642 C645 1.409 . S
C643 H635 0.930 . S
C643 C644 1.355 . S
C643 C645 1.415 . S
C644 C643 1.355 . S
C644 C646 1.419 . S
C645 C640 1.425 1_655 S
C645 C642 1.409 . S
C645 C643 1.415 . S
C646 H636 0.930 . S
C646 C644 1.419 . S
C646 C647 1.362 1_655 S
C647 H637 0.930 . S
C647 C640 1.409 . S
C647 C646 1.362 1_455 S
H648 C654 0.930 . S
H649 C657 0.930 . S
H650 C658 0.930 . S
H651 C659 0.930 . S
H652 C662 0.930 . S
H653 C663 0.930 . S
C654 H648 0.930 . S
C654 C655 1.355 . S
C654 C656 1.415 . S
C655 C654 1.355 . S
C655 C657 1.419 . S
C656 C654 1.415 . S
C656 C661 1.425 . S
C656 C663 1.409 . S
C657 H649 0.930 . S
C657 C655 1.419 . S
C657 C658 1.362 . S
C658 H650 0.930 . S
C658 C657 1.362 . S
C658 C661 1.409 . S
C659 H651 0.930 . S
C659 C660 1.355 . S
C659 C661 1.415 . S
C660 C659 1.355 . S
C660 C662 1.419 . S
C661 C656 1.425 . S
C661 C658 1.409 . S
C661 C659 1.415 . S
C662 H652 0.930 . S
C662 C660 1.419 . S
C662 C663 1.362 . S
C663 H653 0.930 . S
C663 C656 1.409 . S
C663 C662 1.362 . S
H664 C670 0.930 . S
H665 C673 0.930 1_565 S
H666 C674 0.930 . S
H667 C675 0.930 . S
H668 C678 0.930 1_545 S
H669 C679 0.930 . S
C670 H664 0.930 . S
C670 C671 1.355 . S
C670 C672 1.415 1_455 S
C671 C670 1.355 . S
C671 C673 1.419 . S
C672 C670 1.415 1_655 S
C672 C677 1.425 1_644 S
C672 C679 1.409 . S
C673 H665 0.930 1_545 S
C673 C671 1.419 . S
C673 C674 1.362 1_544 S
C674 H666 0.930 . S
C674 C673 1.362 1_566 S
C674 C677 1.409 . S
C675 H667 0.930 . S
C675 C676 1.355 . S
C675 C677 1.415 1_655 S
C676 C675 1.355 . S
C676 C678 1.419 . S
C677 C672 1.425 1_466 S
C677 C674 1.409 . S
C677 C675 1.415 1_455 S
C678 H668 0.930 1_565 S
C678 C676 1.419 . S
C678 C679 1.362 1_566 S
C679 H669 0.930 . S
C679 C672 1.409 . S
C679 C678 1.362 1_544 S
H680 C686 0.930 . S
H681 C689 0.930 . S
H682 C690 0.930 . S
H683 C691 0.930 . S
H684 C694 0.930 . S
H685 C695 0.930 . S
C686 H680 0.930 . S
C686 C687 1.355 . S
C686 C688 1.415 . S
C687 C686 1.355 . S
C687 C689 1.419 . S
C688 C686 1.415 . S
C688 C693 1.425 . S
C688 C695 1.409 . S
C689 H681 0.930 . S
C689 C687 1.419 . S
C689 C690 1.362 . S
C690 H682 0.930 . S
C690 C689 1.362 . S
C690 C693 1.409 . S
C691 H683 0.930 . S
C691 C692 1.355 . S
C691 C693 1.415 . S
C692 C691 1.355 . S
C692 C694 1.419 . S
C693 C688 1.425 . S
C693 C690 1.409 . S
C693 C691 1.415 . S
C694 H684 0.930 . S
C694 C692 1.419 . S
C694 C695 1.362 . S
C695 H685 0.930 . S
C695 C688 1.409 . S
C695 C694 1.362 . S
H696 C702 0.930 1_556 S
H697 C705 0.930 . S
H698 C706 0.930 . S
H699 C707 0.930 1_554 S
H700 C710 0.930 . S
H701 C711 0.930 . S
C702 H696 0.930 1_554 S
C702 C703 1.355 . S
C702 C704 1.415 1_554 S
C703 C702 1.355 . S
C703 C705 1.419 . S
C704 C702 1.415 1_556 S
C704 C709 1.425 1_556 S
C704 C711 1.409 . S
C705 H697 0.930 . S
C705 C703 1.419 . S
C705 C706 1.362 . S
C706 H698 0.930 . S
C706 C705 1.362 . S
C706 C709 1.409 . S
C707 H699 0.930 1_556 S
C707 C708 1.355 . S
C707 C709 1.415 1_556 S
C708 C707 1.355 . S
C708 C710 1.419 . S
C709 C704 1.425 1_554 S
C709 C706 1.409 . S
C709 C707 1.415 1_554 S
C710 H700 0.930 . S
C710 C708 1.419 . S
C710 C711 1.362 . S
C711 H701 0.930 . S
C711 C704 1.409 . S
C711 C710 1.362 . S
H712 C718 0.930 1_545 S
H713 C721 0.930 . S
H714 C722 0.930 . S
H715 C723 0.930 1_565 S
H716 C726 0.930 . S
H717 C727 0.930 . S
C718 H712 0.930 1_565 S
C718 C719 1.355 . S
C718 C720 1.415 1_565 S
C719 C718 1.355 . S
C719 C721 1.419 . S
C720 C718 1.415 1_545 S
C720 C725 1.425 1_445 S
C720 C727 1.409 . S
C721 H713 0.930 . S
C721 C719 1.419 . S
C721 C722 1.362 1_455 S
C722 H714 0.930 . S
C722 C721 1.362 1_655 S
C722 C725 1.409 . S
C723 H715 0.930 1_545 S
C723 C724 1.355 . S
C723 C725 1.415 1_545 S
C724 C723 1.355 . S
C724 C726 1.419 . S
C725 C720 1.425 1_665 S
C725 C722 1.409 . S
C725 C723 1.415 1_565 S
C726 H716 0.930 . S
C726 C724 1.419 . S
C726 C727 1.362 1_655 S
C727 H717 0.930 . S
C727 C720 1.409 . S
C727 C726 1.362 1_455 S
C479 C64 1.624 . S
C484 C3 1.604 . S
C495 C5 1.625 . S
C500 C62 1.600 . S
C511 C182 1.605 . S
C516 C121 1.549 . S
C527 C123 1.625 . S
C532 C180 1.599 . S
C543 C241 1.581 . S
C548 C298 1.583 . S
C559 C300 1.586 . S
C564 C239 1.620 . S
C575 C359 1.604 . S
C580 C416 1.619 . S
C591 C357 1.618 . S
C596 C418 1.582 . S
C607 C33 0.870 . S
C612 C210 0.873 . S
C623 C92 0.878 . S
C628 C151 0.865 . S
C639 C465 0.878 . S
C644 C288 0.893 . S
C655 C406 0.880 . S
C660 C347 0.892 . S
C671 C52 1.540 . S
C676 C269 1.537 . S
C687 C328 1.504 . S
C692 C111 1.520 . S
C703 C387 1.504 . S
C708 C170 1.519 . S
C719 C446 1.504 . S
C724 C229 1.519 . S
