# Generated by pormake.
# Topology snp, (6)-cn, num edge types: 1
# Building blocks:
#     Node 0, Type 0, BuildingBlock: MIFKUJ_clean_sbu_0, # of connection points: 6
#     Node 1, Type 0, BuildingBlock: MIFKUJ_clean_sbu_0, # of connection points: 6
#     Node 2, Type 0, BuildingBlock: MIFKUJ_clean_sbu_0, # of connection points: 6
#     Node 3, Type 0, BuildingBlock: MIFKUJ_clean_sbu_0, # of connection points: 6
#     Edge 4, Type (0, 0), BuildingBlock: TEMPAE_clean_linker_10, # of connection points: 2
#     Edge 5, Type (0, 0), BuildingBlock: TEMPAE_clean_linker_10, # of connection points: 2
#     Edge 6, Type (0, 0), BuildingBlock: TEMPAE_clean_linker_10, # of connection points: 2
#     Edge 7, Type (0, 0), BuildingBlock: TEMPAE_clean_linker_10, # of connection points: 2
#     Edge 8, Type (0, 0), BuildingBlock: TEMPAE_clean_linker_10, # of connection points: 2
#     Edge 9, Type (0, 0), BuildingBlock: TEMPAE_clean_linker_10, # of connection points: 2
#     Edge 10, Type (0, 0), BuildingBlock: TEMPAE_clean_linker_10, # of connection points: 2
#     Edge 11, Type (0, 0), BuildingBlock: TEMPAE_clean_linker_10, # of connection points: 2
#     Edge 12, Type (0, 0), BuildingBlock: TEMPAE_clean_linker_10, # of connection points: 2
#     Edge 13, Type (0, 0), BuildingBlock: TEMPAE_clean_linker_10, # of connection points: 2
#     Edge 14, Type (0, 0), BuildingBlock: TEMPAE_clean_linker_10, # of connection points: 2
#     Edge 15, Type (0, 0), BuildingBlock: TEMPAE_clean_linker_10, # of connection points: 2
# Relax obj value: 0.280
# Max RMSD: 0.225
# Mean RMSD: 0.225
data_MOF--net-snp--node1-MIFKUJ_clean_sbu_0--edge1-TEMPAE_clean_linker_10
_symmetry_space_group_name_H-M    P1
_symmetry_Int_Tables_number       1
_symmetry_cell_setting            triclinic
loop_
_symmetry_equiv_pos_as_xyz
'x, y, z'
_cell_length_a     23.756634
_cell_length_b     23.868639
_cell_length_c     30.64715
_cell_angle_alpha  89.795786
_cell_angle_beta   90.036792
_cell_angle_gamma 89.901692
loop_
_atom_site_label
_atom_site_type_symbol
_atom_site_fract_x
_atom_site_fract_y
_atom_site_fract_z
_atom_type_partial_charge
Zn0 Zn 0.31736 0.94139 0.08135 0.0
Zn1 Zn 0.32166 0.93125 0.94042 0.0
C2 C 0.27325 0.84347 0.12449 0.0
O3 O 0.24317 0.83992 0.08862 0.0
C4 C 0.35503 0.01436 0.87727 0.0
O5 O 0.39385 0.97679 0.86848 0.0
O6 O 0.33438 0.01135 0.11577 0.0
O7 O 0.37223 0.93123 0.02983 0.0
O8 O 0.40117 0.91903 0.96236 0.0
C9 C 0.36696 0.01007 0.14873 0.0
O10 O 0.39468 0.9637 0.15751 0.0
O11 O 0.31307 0.87896 0.126 0.0
C12 C 0.24427 0.88786 0.88216 0.0
O13 O 0.22433 0.93741 0.8924 0.0
O14 O 0.28963 0.87155 0.90037 0.0
O15 O 0.27705 0.94015 0.99433 0.0
O16 O 0.23804 0.95215 0.05731 0.0
O17 O 0.32015 0.00458 0.90776 0.0
C18 C 0.41262 0.92796 1.00253 0.0
C19 C 0.23334 0.95076 0.01612 0.0
Zn20 Zn 0.17412 0.33864 0.58298 0.0
Zn21 Zn 0.20397 0.33788 0.44235 0.0
C22 C 0.20939 0.27828 0.65229 0.0
O23 O 0.15608 0.26619 0.64592 0.0
C24 C 0.14157 0.35611 0.36291 0.0
O25 O 0.19065 0.37345 0.34853 0.0
O26 O 0.10626 0.36869 0.61532 0.0
O27 O 0.19924 0.38558 0.53024 0.0
O28 O 0.22082 0.41621 0.46507 0.0
C29 C 0.11229 0.39555 0.6508 0.0
O30 O 0.16293 0.41233 0.66197 0.0
O31 O 0.23228 0.31553 0.62824 0.0
C32 C 0.2509 0.24977 0.39698 0.0
O33 O 0.20233 0.23065 0.41085 0.0
O34 O 0.26582 0.29869 0.40855 0.0
O35 O 0.17795 0.29475 0.49404 0.0
O36 O 0.15101 0.2638 0.55734 0.0
O37 O 0.13697 0.3412 0.40255 0.0
C38 C 0.2077 0.42685 0.50465 0.0
C39 C 0.15791 0.25548 0.51687 0.0
Zn40 Zn 0.80016 0.17515 0.07773 0.0
Zn41 Zn 0.79279 0.20094 0.93742 0.0
C42 C 0.86717 0.20231 0.14665 0.0
O43 O 0.8726 0.1479 0.14165 0.0
C44 C 0.77413 0.09217 0.89642 0.0
O45 O 0.76578 0.07397 0.9364 0.0
O46 O 0.76172 0.11369 0.112 0.0
O47 O 0.76115 0.21093 0.02625 0.0
O48 O 0.71595 0.21487 0.96477 0.0
C49 C 0.73365 0.1224 0.1466 0.0
O50 O 0.72015 0.17414 0.15676 0.0
O51 O 0.8335 0.22875 0.12156 0.0
C52 C 0.87946 0.25246 0.89393 0.0
O53 O 0.89825 0.20209 0.90353 0.0
O54 O 0.83108 0.26667 0.90797 0.0
O55 O 0.84388 0.16567 0.98303 0.0
O56 O 0.86783 0.14069 0.04975 0.0
O57 O 0.78399 0.14386 0.89004 0.0
C58 C 0.71607 0.20225 1.00509 0.0
C59 C 0.87857 0.1427 0.00912 0.0
Zn60 Zn 0.95214 0.81306 0.57569 0.0
Zn61 Zn 0.93377 0.81103 0.43455 0.0
C62 C 0.92 0.86007 0.653 0.0
O63 O 0.97392 0.87112 0.64897 0.0
C64 C 0.03849 0.77625 0.38928 0.0
O65 O 0.04235 0.73601 0.4185 0.0
O66 O 0.01983 0.77917 0.60623 0.0
O67 O 0.92126 0.77354 0.52228 0.0
O68 O 0.92292 0.73216 0.45923 0.0
C69 C 0.01553 0.74561 0.63835 0.0
O70 O 0.96585 0.72469 0.64773 0.0
O71 O 0.89572 0.83251 0.62286 0.0
C72 C 0.87963 0.89436 0.38919 0.0
O73 O 0.92887 0.9152 0.39987 0.0
O74 O 0.86726 0.84549 0.40286 0.0
O75 O 0.95802 0.85995 0.48473 0.0
O76 O 0.97675 0.88767 0.55129 0.0
O77 O -0.00267 0.81032 0.39086 0.0
C78 C 0.93239 0.73007 0.50008 0.0
C79 C 0.97514 0.8977 0.51048 0.0
C80 C 0.98 0.12685 0.01928 0.0
C81 C 0.93201 0.11931 0.99363 0.0
C82 C 0.02986 0.09843 0.00993 0.0
C83 C 0.03131 0.06047 0.97451 0.0
C84 C 0.98409 0.05574 0.94647 0.0
C85 C 0.93468 0.0857 0.95631 0.0
C86 C 0.07964 0.10606 0.04012 0.0
C87 C 0.98404 0.01631 0.90812 0.0
C88 C 0.18049 0.01075 0.96387 0.0
C89 C 0.18052 0.96803 0.9953 0.0
C90 C 0.13007 0.03726 0.95173 0.0
C91 C 0.07923 0.02073 0.97206 0.0
C92 C 0.07862 0.9732 0.99989 0.0
C93 C 0.12958 0.94789 0.01171 0.0
C94 C 0.13245 0.08686 0.92114 0.0
C95 C 0.02506 0.9532 0.02133 0.0
H96 H 0.97789 0.15372 0.04772 0.0
H97 H 0.89734 0.08017 0.93643 0.0
H98 H 0.08651 0.06714 0.05933 0.0
H99 H 0.11845 0.11423 0.02105 0.0
H100 H 0.07333 0.14121 0.06328 0.0
H101 H 0.95266 0.02937 0.88316 0.0
H102 H 0.02617 0.0138 0.89264 0.0
H103 H 0.97263 0.97367 0.91957 0.0
H104 H 0.22016 0.02647 0.95143 0.0
H105 H 0.12991 0.91447 0.0358 0.0
H106 H 0.1361 0.12587 0.94053 0.0
H107 H 0.09368 0.09 0.90107 0.0
H108 H 0.16954 0.08431 0.89915 0.0
H109 H 0.01347 0.98238 0.048 0.0
H110 H 0.0299 0.91055 0.0355 0.0
H111 H 0.98986 0.95274 0.99754 0.0
C112 C 0.97984 0.00033 0.5176 0.0
C113 C -0.00609 0.95228 0.49414 0.0
C114 C 0.00498 0.05171 0.50791 0.0
C115 C 0.0464 0.05443 0.47473 0.0
C116 C 0.05704 0.00702 0.44833 0.0
C117 C 0.03029 0.95613 0.45832 0.0
C118 C 0.99108 0.1017 0.53606 0.0
C119 C 0.10023 0.00847 0.41229 0.0
C120 C 0.09911 0.20265 0.46402 0.0
C121 C 0.13907 0.20282 0.49761 0.0
C122 C 0.07198 0.15272 0.45226 0.0
C123 C 0.08554 0.10263 0.47488 0.0
C124 C 0.13023 0.10211 0.50554 0.0
C125 C 0.15588 0.15255 0.51701 0.0
C126 C 0.02537 0.15498 0.41885 0.0
C127 C 0.14708 0.04936 0.52966 0.0
H128 H 0.95086 -0.00282 0.54485 0.0
H129 H 0.04083 0.91868 0.4401 0.0
H130 H 0.02674 0.11015 0.5585 0.0
H131 H 0.98464 0.13961 0.51561 0.0
H132 H 0.95267 0.09473 0.556 0.0
H133 H 0.09284 0.97467 0.38811 0.0
H134 H 0.10005 0.0495 0.39517 0.0
H135 H 0.14275 0.00226 0.42654 0.0
H136 H 0.08637 0.24195 0.44908 0.0
H137 H 0.18726 0.15314 0.54275 0.0
H138 H 0.98464 0.1617 0.43576 0.0
H139 H 0.02238 0.11525 0.40031 0.0
H140 H 0.03162 0.1902 0.39554 0.0
H141 H 0.1141 0.03855 0.5539 0.0
H142 H 0.18766 0.05437 0.54725 0.0
H143 H 0.15097 0.01369 0.50676 0.0
C144 C 0.69535 0.10637 0.03181 0.0
C145 C 0.67582 0.15949 0.01951 0.0
C146 C 0.65785 0.06197 0.03888 0.0
C147 C 0.59984 0.0703 0.03074 0.0
C148 C 0.5798 0.12437 0.01914 0.0
C149 C 0.61817 0.16842 0.01378 0.0
C150 C 0.68079 0.00551 0.05237 0.0
C151 C 0.51834 0.13483 0.00937 0.0
C152 C 0.50879 0.95844 0.98083 0.0
C153 C 0.46904 0.94975 0.014 0.0
C154 C 0.55441 -0.00539 0.98702 0.0
C155 C 0.56112 0.02169 0.02772 0.0
C156 C 0.5253 0.00762 0.06295 0.0
C157 C 0.47933 0.97194 0.05558 0.0
C158 C 0.59178 0.00822 0.94851 0.0
C159 C 0.53244 0.03386 0.10734 0.0
H160 H 0.74027 0.09867 0.0334 0.0
H161 H 0.60346 0.20927 1.0031 0.0
H162 H 0.65338 0.98584 0.07739 0.0
H163 H 0.68182 0.97728 0.02373 0.0
H164 H 0.7242 0.00875 0.06564 0.0
H165 H 0.50917 0.17989 1.00348 0.0
H166 H 0.50584 0.11089 0.97994 0.0
H167 H 0.49182 0.11999 0.03682 0.0
H168 H 0.50178 0.94078 0.94875 0.0
H169 H 0.4494 0.96465 0.08157 0.0
H170 H 0.6368 0.00546 0.95782 0.0
H171 H 0.58361 0.05188 0.93759 0.0
H172 H 0.5843 0.97975 0.92051 0.0
H173 H 0.57764 0.0377 0.11598 0.0
H174 H 0.51072 0.00921 0.13311 0.0
H175 H 0.51407 0.07662 0.10694 0.0
C176 C 0.16134 0.49346 0.55638 0.0
C177 C 0.18526 0.48302 0.51538 0.0
C178 C 0.12529 0.53941 0.56273 0.0
C179 C 0.1125 0.57491 0.52697 0.0
C180 C 0.14129 0.56797 0.4869 0.0
C181 C 0.17796 0.52252 0.48183 0.0
C182 C 0.09736 0.54677 0.60655 0.0
C183 C 0.12909 0.60498 0.44785 0.0
C184 C 0.96579 0.63246 0.50983 0.0
C185 C 0.97487 0.68981 0.51513 0.0
C186 C 0.00972 0.59403 0.51634 0.0
C187 C 0.06372 0.61375 0.52868 0.0
C188 C 0.07214 0.67153 0.53618 0.0
C189 C 0.02793 0.70907 0.52794 0.0
C190 C -0.0007 0.53279 0.50716 0.0
C191 C 0.12843 0.69386 0.55086 0.0
H192 H 0.16784 0.46382 0.5827 0.0
H193 H 0.19703 0.51542 0.4502 0.0
H194 H 0.08984 0.59166 0.61387 0.0
H195 H 0.05605 0.52516 0.60636 0.0
H196 H 0.12319 0.52813 0.63314 0.0
H197 H 0.15839 0.59693 0.42032 0.0
H198 H 0.08545 0.59737 0.43635 0.0
H199 H 0.13207 0.64984 0.45678 0.0
H200 H 0.925 0.618 0.4987 0.0
H201 H 0.0357 0.75375 0.5291 0.0
H202 H 0.01265 0.50682 0.5354 0.0
H203 H 0.02475 0.51955 0.47862 0.0
H204 H 0.95429 0.52398 0.50015 0.0
H205 H 0.14209 0.67174 0.58099 0.0
H206 H 0.12704 0.73957 0.55744 0.0
H207 H 0.1608 0.68585 0.52557 0.0
C208 C 0.323 0.24279 0.33715 0.0
C209 C 0.28248 0.21734 0.36391 0.0
C210 C 0.3464 0.21384 0.30152 0.0
C211 C 0.32873 0.15836 0.29265 0.0
C212 C 0.29009 0.13165 0.32103 0.0
C213 C 0.26756 0.16141 0.35624 0.0
C214 C 0.38787 0.2435 0.27224 0.0
C215 C 0.27027 0.07241 0.31302 0.0
C216 C 0.32238 0.09648 0.17923 0.0
C217 C 0.36489 0.05568 0.18141 0.0
C218 C 0.31259 0.13297 0.21422 0.0
C219 C 0.34659 0.12907 0.25211 0.0
C220 C 0.3926 0.09131 0.25293 0.0
C221 C 0.40103 0.05482 0.21765 0.0
C222 C 0.26303 0.17262 0.21196 0.0
C223 C 0.43051 0.08661 0.29232 0.0
H224 H 0.33465 0.28604 0.34285 0.0
H225 H 0.23667 0.14124 0.37703 0.0
H226 H 0.42452 0.2161 0.26526 0.0
H227 H 0.36742 0.25343 0.24058 0.0
H228 H 0.40321 0.28319 0.28683 0.0
H229 H 0.24249 0.05671 0.33952 0.0
H230 H 0.24668 0.07064 0.28179 0.0
H231 H 0.30684 0.04372 0.31009 0.0
H232 H 0.29441 0.09775 0.15128 0.0
H233 H 0.43448 0.02393 0.21936 0.0
H234 H 0.27561 0.21526 0.22235 0.0
H235 H 0.22969 0.15804 0.23466 0.0
H236 H 0.24484 0.17522 0.17861 0.0
H237 H 0.44207 0.12873 0.30458 0.0
H238 H 0.46965 0.06291 0.28498 0.0
H239 H 0.40784 0.06453 0.31892 0.0
C240 C 0.02064 0.35837 0.67852 0.0
C241 C 0.06698 0.39403 0.68408 0.0
C242 C 0.9851 0.34521 0.71364 0.0
C243 C -0.00438 0.36891 0.75515 0.0
C244 C 0.03871 0.40937 0.75978 0.0
C245 C 0.07412 0.42124 0.72422 0.0
C246 C 0.93963 0.30187 0.70719 0.0
C247 C 0.05048 0.43666 0.80317 0.0
C248 C 0.88754 0.33566 0.84345 0.0
C249 C 0.91144 0.28771 0.86265 0.0
C250 C 0.91545 0.36436 0.80956 0.0
C251 C 0.96813 0.34433 0.79449 0.0
C252 C -0.00653 0.29756 0.81523 0.0
C253 C 0.96497 0.27008 0.84906 0.0
C254 C 0.88753 0.41457 0.78871 0.0
C255 C 0.04969 0.27476 0.80039 0.0
H256 H 0.01443 0.33741 0.64758 0.0
H257 H 0.10934 0.44948 0.72866 0.0
H258 H 0.95232 0.26223 0.72353 0.0
H259 H 0.89958 0.31582 0.72223 0.0
H260 H 0.932 0.293 0.67212 0.0
H261 H 0.0773 0.47448 0.79953 0.0
H262 H 0.0107 0.44869 0.81963 0.0
H263 H 0.0727 0.40641 0.82473 0.0
H264 H 0.84625 0.34963 0.85381 0.0
H265 H 0.98409 0.23342 0.86393 0.0
H266 H 0.8724 0.40327 0.75565 0.0
H267 H 0.91806 0.44936 0.78483 0.0
H268 H 0.85106 0.42971 0.80807 0.0
H269 H 0.04628 0.25968 0.76627 0.0
H270 H 0.06469 0.23954 0.82117 0.0
H271 H 0.08192 0.30832 0.80085 0.0
C272 C 0.86206 0.97677 0.34108 0.0
C273 C 0.84342 0.92524 0.35779 0.0
C274 C 0.83277 0.00439 0.30769 0.0
C275 C 0.78283 0.98045 0.2908 0.0
C276 C 0.76197 0.92994 0.30902 0.0
C277 C 0.7928 0.90261 0.34215 0.0
C278 C 0.85682 0.0581 0.28922 0.0
C279 C 0.70831 0.90376 0.2925 0.0
C280 C 0.70776 0.08839 0.22142 0.0
C281 C 0.73182 0.07785 0.18045 0.0
C282 C 0.71899 0.05312 0.25723 0.0
C283 C 0.75582 0.00693 0.25197 0.0
C284 C 0.77525 -0.00715 0.20973 0.0
C285 C 0.76249 0.02815 0.1744 0.0
C286 C 0.69569 0.06839 0.3014 0.0
C287 C 0.81465 0.94405 0.20252 0.0
H288 H 0.90086 -0.00507 0.35309 0.0
H289 H 0.77794 0.86296 0.35502 0.0
H290 H 0.8676 0.05222 0.2543 0.0
H291 H 0.82513 0.09218 0.291 0.0
H292 H 0.8953 0.07185 0.30678 0.0
H293 H 0.69264 0.87056 0.31488 0.0
H294 H 0.67497 0.93596 0.28831 0.0
H295 H 0.71598 0.8847 0.26009 0.0
H296 H 0.68311 0.12612 0.22628 0.0
H297 H 0.78062 0.01904 0.14276 0.0
H298 H 0.72872 0.08995 0.32063 0.0
H299 H 0.68301 0.03034 0.31981 0.0
H300 H 0.65883 0.0969 0.29859 0.0
H301 H 0.85681 0.95452 0.21582 0.0
H302 H 0.81938 0.93391 0.16736 0.0
H303 H 0.79952 0.90621 0.21996 0.0
C304 C 0.11116 0.77416 0.664 0.0
C305 C 0.06124 0.74423 0.67137 0.0
C306 C 0.14776 0.78695 0.69849 0.0
C307 C 0.13425 0.7691 0.74133 0.0
C308 C 0.08746 0.73344 0.74803 0.0
C309 C 0.05144 0.72138 0.71292 0.0
C310 C 0.1974 0.82474 0.68972 0.0
C311 C 0.07209 0.7126 0.79301 0.0
C312 C 0.2376 0.80366 0.83284 0.0
C313 C 0.21541 0.85448 0.84811 0.0
C314 C 0.21115 0.77434 0.79866 0.0
C315 C 0.16175 0.79669 0.7793 0.0
C316 C 0.13877 0.8474 0.79524 0.0
C317 C 0.16565 0.87537 0.82944 0.0
C318 C 0.23658 0.72021 0.7827 0.0
C319 C 0.08614 0.8729 0.77567 0.0
H320 H 0.11964 0.79133 0.63188 0.0
H321 H 0.01343 0.6975 0.7189 0.0
H322 H 0.18728 0.86776 0.70096 0.0
H323 H 0.23507 0.81035 0.70799 0.0
H324 H 0.20789 0.82673 0.65442 0.0
H325 H 0.04242 0.67672 0.79159 0.0
H326 H 0.11017 0.69961 0.81144 0.0
H327 H 0.05162 0.74698 0.81145 0.0
H328 H 0.276 0.78721 0.84712 0.0
H329 H 0.14787 0.9144 0.8411 0.0
H330 H 0.2524 0.7259 0.74893 0.0
H331 H 0.20416 0.68684 0.7817 0.0
H332 H 0.27202 0.70588 0.80364 0.0
H333 H 0.09214 0.88039 0.74023 0.0
H334 H 0.07469 0.91331 0.79121 0.0
H335 H 0.05028 0.84355 0.7794 0.0
C336 C 0.79403 0.0724 0.81802 0.0
C337 C 0.78006 0.05235 0.85971 0.0
C338 C 0.8082 0.03557 0.78427 0.0
C339 C 0.80807 0.97712 0.79223 0.0
C340 C 0.79016 0.9564 0.83329 0.0
C341 C 0.77652 -0.00567 0.86667 0.0
C342 C 0.82715 0.05952 0.74102 0.0
C343 C 0.78882 0.89436 0.84285 0.0
C344 C 0.8304 0.88829 0.69082 0.0
C345 C 0.88916 0.88254 0.69106 0.0
C346 C 0.80257 0.91645 0.72487 0.0
C347 C 0.83439 0.93908 0.75973 0.0
C348 C 0.89327 0.9303 0.76128 0.0
C349 C 0.91984 0.9022 0.72698 0.0
C350 C 0.73964 0.92448 0.72241 0.0
C351 C 0.92881 0.95338 0.79798 0.0
H352 H 0.79639 0.11715 0.81215 0.0
H353 H 0.76527 0.97843 0.89866 0.0
H354 H 0.87294 0.05195 0.73685 0.0
H355 H 0.80518 0.03845 0.7137 0.0
H356 H 0.81932 0.10533 0.73858 0.0
H357 H 0.76486 0.88477 0.87309 0.0
H358 H 0.76974 0.87114 0.81527 0.0
H359 H 0.83248 0.87866 0.84703 0.0
H360 H 0.80647 0.87294 0.66322 0.0
H361 H 0.9652 0.8971 0.72777 0.0
H362 H 0.7301 0.96891 0.71458 0.0
H363 H 0.71983 0.91491 0.75435 0.0
H364 H 0.72017 0.89768 0.697 0.0
H365 H 0.92831 -0.00014 0.79669 0.0
H366 H 0.9732 0.93903 0.79616 0.0
H367 H 0.91133 0.94062 0.83004 0.0
C368 C 0.20347 0.78439 0.16477 0.0
C369 C 0.25133 0.81873 0.16564 0.0
C370 C 0.17425 0.77113 0.20326 0.0
C371 C 0.19333 0.79269 0.24363 0.0
C372 C 0.24416 0.82353 0.24516 0.0
C373 C 0.27265 0.83607 0.20616 0.0
C374 C 0.12049 0.73771 0.20018 0.0
C375 C 0.26617 0.84706 0.28752 0.0
C376 C 0.07818 0.82723 0.32499 0.0
C377 C 0.08044 0.78131 0.35364 0.0
C378 C 0.1155 0.83182 0.28976 0.0
C379 C 0.15626 0.78941 0.28278 0.0
C380 C 0.15978 0.74358 0.31216 0.0
C381 C 0.12183 0.74008 0.34731 0.0
C382 C 0.11049 0.88168 0.25945 0.0
C383 C 0.20284 0.69775 0.30594 0.0
H384 H 0.18689 0.77036 0.13372 0.0
H385 H 0.30972 0.86244 0.20731 0.0
H386 H 0.11961 0.70437 0.22547 0.0
H387 H 0.08398 0.76571 0.20616 0.0
H388 H 0.1152 0.71808 0.16762 0.0
H389 H 0.31017 0.86224 0.2844 0.0
H390 H 0.2393 0.88277 0.2977 0.0
H391 H 0.26441 0.81509 0.31383 0.0
H392 H 0.04673 0.85959 0.3298 0.0
H393 H 0.124 0.70453 0.36936 0.0
H394 H 0.09981 0.86728 0.22608 0.0
H395 H 0.15134 0.90399 0.25743 0.0
H396 H 0.07772 0.91186 0.27023 0.0
H397 H 0.1944 0.6754 0.27494 0.0
H398 H 0.20241 0.66679 0.3331 0.0
H399 H 0.24564 0.71598 0.30341 0.0
C400 C 0.2866 0.26751 0.70807 0.0
C401 C 0.2412 0.24514 0.68476 0.0
C402 C 0.31289 0.23616 0.74144 0.0
C403 C 0.29381 0.18112 0.75076 0.0
C404 C 0.24926 0.15796 0.72609 0.0
C405 C 0.22332 0.19039 0.69377 0.0
C406 C 0.35972 0.26237 0.76756 0.0
C407 C 0.22817 0.0991 0.73426 0.0
C408 C 0.37662 0.06785 0.80895 0.0
C409 C 0.34693 0.0636 0.84837 0.0
C410 C 0.3628 0.10909 0.77796 0.0
C411 C 0.31859 0.14724 0.78682 0.0
C412 C 0.29165 0.14598 0.82803 0.0
C413 C 0.30596 0.10401 0.85824 0.0
C414 C 0.39226 0.10865 0.73433 0.0
C415 C 0.24466 0.18622 0.839 0.0
H416 H 0.30021 0.30997 0.70126 0.0
H417 H 0.18863 0.17267 0.67542 0.0
H418 H 0.34603 0.26739 0.80194 0.0
H419 H 0.39725 0.23466 0.76781 0.0
H420 H 0.37204 0.30407 0.75452 0.0
H421 H 0.19503 0.08651 0.71067 0.0
H422 H 0.26348 0.06876 0.73203 0.0
H423 H 0.21054 0.0959 0.76769 0.0
H424 H 0.40863 0.03706 0.80117 0.0
H425 H 0.28329 0.10149 0.88888 0.0
H426 H 0.40332 0.1518 0.72394 0.0
H427 H 0.36349 0.09116 0.70931 0.0
H428 H 0.43118 0.08279 0.73502 0.0
H429 H 0.2558 0.2295 0.82894 0.0
H430 H 0.23472 0.18601 0.87442 0.0
H431 H 0.20609 0.17419 0.82088 0.0
C432 C 0.89234 0.2871 0.19111 0.0
C433 C 0.90242 0.23125 0.17936 0.0
C434 C 0.92677 0.31404 0.22196 0.0
C435 C 0.97263 0.28459 0.24078 0.0
C436 C 0.98281 0.22823 0.22899 0.0
C437 C 0.94741 0.20224 0.19874 0.0
C438 C 0.91419 0.37387 0.23442 0.0
C439 C 0.0316 0.19542 0.24795 0.0
C440 C 0.10168 0.35562 0.28736 0.0
C441 C 0.09451 0.34616 0.3322 0.0
C442 C 0.06058 0.33882 0.25725 0.0
C443 C 0.01105 0.31218 0.27238 0.0
C444 C 0.00203 0.30565 0.31776 0.0
C445 C 0.04392 0.32263 0.34714 0.0
C446 C 0.07197 0.34614 0.2091 0.0
C447 C 0.94974 0.27756 0.33524 0.0
H448 H 0.85745 0.30961 0.17641 0.0
H449 H 0.95571 0.15912 0.18976 0.0
H450 H 0.9077 0.37678 0.2702 0.0
H451 H 0.95058 0.40097 0.22618 0.0
H452 H 0.8762 0.3905 0.21761 0.0
H453 H 0.03388 0.15203 0.23506 0.0
H454 H 0.07182 0.21696 0.24041 0.0
H455 H 0.02783 0.19319 0.28399 0.0
H456 H 0.1405 0.37399 0.27554 0.0
H457 H 0.03785 0.31538 0.38176 0.0
H458 H 0.03487 0.36467 0.19243 0.0
H459 H 0.07984 0.30455 0.19418 0.0
H460 H 0.10912 0.3732 0.20283 0.0
H461 H 0.91159 0.29471 0.31909 0.0
H462 H 0.94542 0.28279 0.37109 0.0
H463 H 0.95147 0.23207 0.32804 0.0
loop_
_geom_bond_atom_site_label_1
_geom_bond_atom_site_label_2
_geom_bond_distance
_geom_bond_site_symmetry_2
_ccdc_geom_bond_type
Zn0 O6 1.969 . S
Zn0 O7 1.965 . S
Zn0 O11 2.024 1_545 S
Zn0 O16 1.969 . S
Zn1 O8 1.969 . S
Zn1 O14 1.969 . S
Zn1 O15 1.965 . S
Zn1 O17 2.024 1_565 S
C2 O3 1.229 . S
C2 O11 1.058 . S
O3 C2 1.229 . S
C4 O5 1.229 . S
C4 O17 1.058 . S
O5 C4 1.229 . S
O6 Zn0 1.969 . S
O6 C9 1.267 . S
O7 Zn0 1.965 . S
O7 C18 1.243 1_554 S
O8 Zn1 1.969 . S
O8 C18 1.283 1_565 S
C9 O6 1.267 . S
C9 O10 1.228 . S
O10 C9 1.228 . S
O11 Zn0 2.024 1_565 S
O11 C2 1.058 . S
C12 O13 1.228 . S
C12 O14 1.267 . S
O13 C12 1.228 . S
O14 Zn1 1.969 . S
O14 C12 1.267 . S
O15 Zn1 1.965 . S
O15 C19 1.253 1_566 S
O16 Zn0 1.969 . S
O16 C19 1.261 . S
O17 Zn1 2.024 1_545 S
O17 C4 1.058 . S
C18 O7 1.243 1_556 S
C18 O8 1.283 1_545 S
C19 O15 1.253 1_544 S
C19 O16 1.261 . S
Zn20 O26 1.969 . S
Zn20 O27 1.965 . S
Zn20 O31 2.024 . S
Zn20 O36 1.969 . S
Zn21 O28 1.969 . S
Zn21 O34 1.969 . S
Zn21 O35 1.965 . S
Zn21 O37 2.024 . S
C22 O23 1.229 . S
C22 O31 1.058 . S
O23 C22 1.229 . S
C24 O25 1.229 . S
C24 O37 1.058 . S
O25 C24 1.229 . S
O26 Zn20 1.969 . S
O26 C29 1.267 . S
O27 Zn20 1.965 . S
O27 C38 1.260 . S
O28 Zn21 1.969 . S
O28 C38 1.258 . S
C29 O26 1.267 . S
C29 O30 1.228 . S
O30 C29 1.228 . S
O31 Zn20 2.024 . S
O31 C22 1.058 . S
C32 O33 1.228 . S
C32 O34 1.267 . S
O33 C32 1.228 . S
O34 Zn21 1.969 . S
O34 C32 1.267 . S
O35 Zn21 1.965 . S
O35 C39 1.260 . S
O36 Zn20 1.969 . S
O36 C39 1.258 . S
O37 Zn21 2.024 . S
O37 C24 1.058 . S
C38 O27 1.260 . S
C38 O28 1.258 . S
C39 O35 1.260 . S
C39 O36 1.258 . S
Zn40 O46 1.969 . S
Zn40 O47 1.965 . S
Zn40 O51 2.024 . S
Zn40 O56 1.969 . S
Zn41 O48 1.969 . S
Zn41 O54 1.969 . S
Zn41 O55 1.965 . S
Zn41 O57 2.024 . S
C42 O43 1.229 . S
C42 O51 1.058 . S
O43 C42 1.229 . S
C44 O45 1.229 . S
C44 O57 1.058 . S
O45 C44 1.229 . S
O46 Zn40 1.969 . S
O46 C49 1.267 . S
O47 Zn40 1.965 . S
O47 C58 1.244 1_554 S
O48 Zn41 1.969 . S
O48 C58 1.283 . S
C49 O46 1.267 . S
C49 O50 1.228 . S
O50 C49 1.228 . S
O51 Zn40 2.024 . S
O51 C42 1.058 . S
C52 O53 1.228 . S
C52 O54 1.267 . S
O53 C52 1.228 . S
O54 Zn41 1.969 . S
O54 C52 1.267 . S
O55 Zn41 1.965 . S
O55 C59 1.260 1_556 S
O56 Zn40 1.969 . S
O56 C59 1.258 . S
O57 Zn41 2.024 . S
O57 C44 1.058 . S
C58 O47 1.244 1_556 S
C58 O48 1.283 . S
C59 O55 1.260 1_554 S
C59 O56 1.258 . S
Zn60 O66 1.969 . S
Zn60 O67 1.965 . S
Zn60 O71 2.024 1_455 S
Zn60 O76 1.969 . S
Zn61 O68 1.969 . S
Zn61 O74 1.969 . S
Zn61 O75 1.965 . S
Zn61 O77 2.024 1_655 S
C62 O63 1.229 . S
C62 O71 1.058 . S
O63 C62 1.229 . S
C64 O65 1.229 . S
C64 O77 1.058 . S
O65 C64 1.229 . S
O66 Zn60 1.969 . S
O66 C69 1.267 . S
O67 Zn60 1.965 . S
O67 C78 1.260 . S
O68 Zn61 1.969 . S
O68 C78 1.258 1_655 S
C69 O66 1.267 . S
C69 O70 1.228 . S
O70 C69 1.228 . S
O71 Zn60 2.024 1_655 S
O71 C62 1.058 . S
C72 O73 1.228 . S
C72 O74 1.267 . S
O73 C72 1.228 . S
O74 Zn61 1.969 . S
O74 C72 1.267 . S
O75 Zn61 1.965 . S
O75 C79 1.253 1_655 S
O76 Zn60 1.969 . S
O76 C79 1.261 . S
O77 Zn61 2.024 1_455 S
O77 C64 1.058 . S
C78 O67 1.260 . S
C78 O68 1.258 1_455 S
C79 O75 1.253 1_455 S
C79 O76 1.261 . S
C80 C81 1.383 1_554 S
C80 C82 1.394 1_655 S
C80 H96 0.931 . S
C81 C80 1.383 1_556 S
C81 C85 1.382 . S
C82 C80 1.394 1_455 S
C82 C83 1.369 . S
C82 C86 1.531 . S
C83 C82 1.369 . S
C83 C84 1.410 1_454 S
C83 C91 1.503 . S
C84 C83 1.410 1_656 S
C84 C85 1.392 . S
C84 C87 1.511 1_545 S
C85 C81 1.382 . S
C85 C84 1.392 . S
C85 H97 0.929 . S
C86 C82 1.531 . S
C86 H98 0.960 . S
C86 H99 0.962 . S
C86 H100 0.960 . S
C87 C84 1.511 1_565 S
C87 H101 0.961 . S
C87 H102 0.961 1_655 S
C87 H103 0.961 1_556 S
C88 C89 1.370 1_545 S
C88 C90 1.363 . S
C88 H104 0.931 . S
C89 C88 1.370 1_565 S
C89 C93 1.408 1_556 S
C90 C88 1.363 . S
C90 C91 1.370 1_556 S
C90 C94 1.524 . S
C91 C83 1.503 . S
C91 C90 1.370 1_554 S
C91 C92 1.403 . S
C92 C91 1.403 . S
C92 C93 1.404 1_545 S
C92 C95 1.539 . S
C93 C89 1.408 1_554 S
C93 C92 1.404 1_565 S
C93 H105 0.930 . S
C94 C90 1.524 . S
C94 H106 0.956 . S
C94 H107 0.961 . S
C94 H108 0.961 . S
C95 C92 1.539 . S
C95 H109 0.958 . S
C95 H110 0.961 1_545 S
C95 H111 0.960 . S
H96 C80 0.931 . S
H97 C85 0.929 . S
H98 C86 0.960 . S
H99 C86 0.962 . S
H100 C86 0.960 . S
H101 C87 0.961 . S
H102 C87 0.961 1_455 S
H103 C87 0.961 1_554 S
H104 C88 0.931 . S
H105 C93 0.930 . S
H106 C94 0.956 . S
H107 C94 0.961 . S
H108 C94 0.961 . S
H109 C95 0.958 . S
H110 C95 0.961 1_565 S
H111 C95 0.960 . S
C112 C113 1.391 1_655 S
C112 C114 1.394 1_665 S
C112 H128 0.931 . S
C113 C112 1.391 1_455 S
C113 C117 1.376 . S
C114 C112 1.394 1_445 S
C114 C115 1.369 . S
C114 C118 1.531 . S
C115 C114 1.369 . S
C115 C116 1.410 . S
C115 C123 1.503 . S
C116 C115 1.410 . S
C116 C117 1.392 1_545 S
C116 C119 1.511 . S
C117 C113 1.376 . S
C117 C116 1.392 1_565 S
C117 H129 0.929 . S
C118 C114 1.531 . S
C118 H130 0.960 . S
C118 H131 0.962 1_455 S
C118 H132 0.960 . S
C119 C116 1.511 . S
C119 H133 0.961 1_545 S
C119 H134 0.961 . S
C119 H135 0.961 1_545 S
C120 C121 1.370 . S
C120 C122 1.363 . S
C120 H136 0.931 . S
C121 C120 1.370 . S
C121 C125 1.408 . S
C122 C120 1.363 . S
C122 C123 1.370 . S
C122 C126 1.524 . S
C123 C115 1.503 . S
C123 C122 1.370 . S
C123 C124 1.403 . S
C124 C123 1.403 . S
C124 C125 1.404 . S
C124 C127 1.539 . S
C125 C121 1.408 . S
C125 C124 1.404 . S
C125 H137 0.930 . S
C126 C122 1.524 . S
C126 H138 0.956 1_455 S
C126 H139 0.961 . S
C126 H140 0.961 . S
C127 C124 1.539 . S
C127 H141 0.958 . S
C127 H142 0.961 . S
C127 H143 0.960 . S
H128 C112 0.931 . S
H129 C117 0.929 . S
H130 C118 0.960 . S
H131 C118 0.962 1_655 S
H132 C118 0.960 . S
H133 C119 0.961 1_565 S
H134 C119 0.961 . S
H135 C119 0.961 1_565 S
H136 C120 0.931 . S
H137 C125 0.930 . S
H138 C126 0.956 1_655 S
H139 C126 0.961 . S
H140 C126 0.961 . S
H141 C127 0.958 . S
H142 C127 0.961 . S
H143 C127 0.960 . S
C144 C145 1.391 1_556 S
C144 C146 1.392 1_556 S
C144 H160 0.931 . S
C145 C144 1.391 1_554 S
C145 C149 1.376 . S
C146 C144 1.392 1_554 S
C146 C147 1.376 . S
C146 C150 1.525 1_544 S
C147 C146 1.376 . S
C147 C148 1.410 . S
C147 C155 1.503 . S
C148 C147 1.410 . S
C148 C149 1.392 . S
C148 C151 1.511 . S
C149 C145 1.376 . S
C149 C148 1.392 . S
C149 H161 0.929 . S
C150 C146 1.525 1_566 S
C150 H162 0.960 1_556 S
C150 H163 0.962 . S
C150 H164 0.960 . S
C151 C148 1.511 . S
C151 H165 0.961 . S
C151 H166 0.961 . S
C151 H167 0.961 . S
C152 C153 1.370 1_556 S
C152 C154 1.363 . S
C152 H168 0.931 . S
C153 C152 1.370 1_554 S
C153 C157 1.408 1_545 S
C154 C152 1.363 . S
C154 C155 1.370 1_556 S
C154 C158 1.524 . S
C155 C147 1.503 . S
C155 C154 1.370 1_554 S
C155 C156 1.403 . S
C156 C155 1.403 . S
C156 C157 1.404 1_545 S
C156 C159 1.539 . S
C157 C153 1.408 1_565 S
C157 C156 1.404 1_565 S
C157 H169 0.930 . S
C158 C154 1.524 . S
C158 H170 0.956 . S
C158 H171 0.961 . S
C158 H172 0.961 . S
C159 C156 1.539 . S
C159 H173 0.958 1_545 S
C159 H174 0.961 . S
C159 H175 0.960 . S
H160 C144 0.931 . S
H161 C149 0.929 . S
H162 C150 0.960 1_554 S
H163 C150 0.962 . S
H164 C150 0.960 . S
H165 C151 0.961 . S
H166 C151 0.961 . S
H167 C151 0.961 . S
H168 C152 0.931 . S
H169 C157 0.930 . S
H170 C158 0.956 . S
H171 C158 0.961 . S
H172 C158 0.961 . S
H173 C159 0.958 1_565 S
H174 C159 0.961 . S
H175 C159 0.960 . S
C176 C177 1.391 . S
C176 C178 1.394 . S
C176 H192 0.931 . S
C177 C176 1.391 . S
C177 C181 1.376 . S
C178 C176 1.394 . S
C178 C179 1.369 . S
C178 C182 1.531 . S
C179 C178 1.369 . S
C179 C180 1.410 . S
C179 C187 1.503 . S
C180 C179 1.410 . S
C180 C181 1.392 . S
C180 C183 1.511 . S
C181 C177 1.376 . S
C181 C180 1.392 . S
C181 H193 0.929 . S
C182 C178 1.531 . S
C182 H194 0.960 . S
C182 H195 0.962 . S
C182 H196 0.960 . S
C183 C180 1.511 . S
C183 H197 0.961 . S
C183 H198 0.961 . S
C183 H199 0.961 . S
C184 C185 1.370 1_655 S
C184 C186 1.363 1_655 S
C184 H200 0.931 . S
C185 C184 1.370 1_455 S
C185 C189 1.408 . S
C186 C184 1.363 1_455 S
C186 C187 1.370 . S
C186 C190 1.524 1_455 S
C187 C179 1.503 . S
C187 C186 1.370 . S
C187 C188 1.403 . S
C188 C187 1.403 . S
C188 C189 1.404 . S
C188 C191 1.539 . S
C189 C185 1.408 . S
C189 C188 1.404 . S
C189 H201 0.930 . S
C190 C186 1.524 1_655 S
C190 H202 0.956 . S
C190 H203 0.961 1_655 S
C190 H204 0.961 . S
C191 C188 1.539 . S
C191 H205 0.958 . S
C191 H206 0.961 . S
C191 H207 0.960 . S
H192 C176 0.931 . S
H193 C181 0.929 . S
H194 C182 0.960 . S
H195 C182 0.962 . S
H196 C182 0.960 . S
H197 C183 0.961 . S
H198 C183 0.961 . S
H199 C183 0.961 . S
H200 C184 0.931 . S
H201 C189 0.930 . S
H202 C190 0.956 . S
H203 C190 0.961 1_455 S
H204 C190 0.961 . S
H205 C191 0.958 . S
H206 C191 0.961 . S
H207 C191 0.960 . S
C208 C209 1.391 . S
C208 C210 1.394 . S
C208 H224 0.931 . S
C209 C208 1.391 . S
C209 C213 1.376 . S
C210 C208 1.394 . S
C210 C211 1.369 . S
C210 C214 1.531 . S
C211 C210 1.369 . S
C211 C212 1.410 . S
C211 C219 1.503 . S
C212 C211 1.410 . S
C212 C213 1.392 . S
C212 C215 1.511 . S
C213 C209 1.376 . S
C213 C212 1.392 . S
C213 H225 0.929 . S
C214 C210 1.531 . S
C214 H226 0.960 . S
C214 H227 0.962 . S
C214 H228 0.960 . S
C215 C212 1.511 . S
C215 H229 0.961 . S
C215 H230 0.961 . S
C215 H231 0.961 . S
C216 C217 1.370 . S
C216 C218 1.363 . S
C216 H232 0.931 . S
C217 C216 1.370 . S
C217 C221 1.408 . S
C218 C216 1.363 . S
C218 C219 1.370 . S
C218 C222 1.524 . S
C219 C211 1.503 . S
C219 C218 1.370 . S
C219 C220 1.403 . S
C220 C219 1.403 . S
C220 C221 1.404 . S
C220 C223 1.539 . S
C221 C217 1.408 . S
C221 C220 1.404 . S
C221 H233 0.930 . S
C222 C218 1.524 . S
C222 H234 0.956 . S
C222 H235 0.961 . S
C222 H236 0.961 . S
C223 C220 1.539 . S
C223 H237 0.958 . S
C223 H238 0.961 . S
C223 H239 0.960 . S
H224 C208 0.931 . S
H225 C213 0.929 . S
H226 C214 0.960 . S
H227 C214 0.962 . S
H228 C214 0.960 . S
H229 C215 0.961 . S
H230 C215 0.961 . S
H231 C215 0.961 . S
H232 C216 0.931 . S
H233 C221 0.930 . S
H234 C222 0.956 . S
H235 C222 0.961 . S
H236 C222 0.961 . S
H237 C223 0.958 . S
H238 C223 0.961 . S
H239 C223 0.960 . S
C240 C241 1.391 1_655 S
C240 C242 1.394 . S
C240 H256 0.931 . S
C241 C240 1.391 1_455 S
C241 C245 1.376 . S
C242 C240 1.394 . S
C242 C243 1.369 . S
C242 C246 1.531 . S
C243 C242 1.369 . S
C243 C244 1.410 1_655 S
C243 C251 1.503 . S
C244 C243 1.410 1_455 S
C244 C245 1.392 . S
C244 C247 1.511 . S
C245 C241 1.376 . S
C245 C244 1.392 . S
C245 H257 0.929 . S
C246 C242 1.531 . S
C246 H258 0.960 . S
C246 H259 0.962 . S
C246 H260 0.960 . S
C247 C244 1.511 . S
C247 H261 0.961 . S
C247 H262 0.961 . S
C247 H263 0.961 . S
C248 C249 1.370 . S
C248 C250 1.363 . S
C248 H264 0.931 . S
C249 C248 1.370 . S
C249 C253 1.408 . S
C250 C248 1.363 . S
C250 C251 1.370 . S
C250 C254 1.524 . S
C251 C243 1.503 . S
C251 C250 1.370 . S
C251 C252 1.403 . S
C252 C251 1.403 . S
C252 C253 1.404 . S
C252 C255 1.539 1_655 S
C253 C249 1.408 . S
C253 C252 1.404 . S
C253 H265 0.930 . S
C254 C250 1.524 . S
C254 H266 0.956 . S
C254 H267 0.961 . S
C254 H268 0.961 . S
C255 C252 1.539 1_455 S
C255 H269 0.958 . S
C255 H270 0.961 . S
C255 H271 0.960 . S
H256 C240 0.931 . S
H257 C245 0.929 . S
H258 C246 0.960 . S
H259 C246 0.962 . S
H260 C246 0.960 . S
H261 C247 0.961 . S
H262 C247 0.961 . S
H263 C247 0.961 . S
H264 C248 0.931 . S
H265 C253 0.930 . S
H266 C254 0.956 . S
H267 C254 0.961 . S
H268 C254 0.961 . S
H269 C255 0.958 . S
H270 C255 0.961 . S
H271 C255 0.960 . S
C272 C273 1.391 . S
C272 C274 1.394 . S
C272 H288 0.931 . S
C273 C272 1.391 . S
C273 C277 1.376 . S
C274 C272 1.394 . S
C274 C275 1.369 . S
C274 C278 1.531 1_565 S
C275 C274 1.369 . S
C275 C276 1.410 . S
C275 C283 1.503 . S
C276 C275 1.410 . S
C276 C277 1.392 . S
C276 C279 1.511 . S
C277 C273 1.376 . S
C277 C276 1.392 . S
C277 H289 0.929 . S
C278 C274 1.531 1_545 S
C278 H290 0.960 . S
C278 H291 0.962 . S
C278 H292 0.960 . S
C279 C276 1.511 . S
C279 H293 0.961 . S
C279 H294 0.961 . S
C279 H295 0.961 . S
C280 C281 1.370 1_565 S
C280 C282 1.363 . S
C280 H296 0.931 . S
C281 C280 1.370 1_545 S
C281 C285 1.408 . S
C282 C280 1.363 . S
C282 C283 1.370 . S
C282 C286 1.524 . S
C283 C275 1.503 . S
C283 C282 1.370 . S
C283 C284 1.403 1_565 S
C284 C283 1.403 1_545 S
C284 C285 1.404 . S
C284 C287 1.539 . S
C285 C281 1.408 . S
C285 C284 1.404 . S
C285 H297 0.930 . S
C286 C282 1.524 . S
C286 H298 0.956 . S
C286 H299 0.961 . S
C286 H300 0.961 . S
C287 C284 1.539 . S
C287 H301 0.958 . S
C287 H302 0.961 . S
C287 H303 0.960 . S
H288 C272 0.931 . S
H289 C277 0.929 . S
H290 C278 0.960 . S
H291 C278 0.962 . S
H292 C278 0.960 . S
H293 C279 0.961 . S
H294 C279 0.961 . S
H295 C279 0.961 . S
H296 C280 0.931 . S
H297 C285 0.930 . S
H298 C286 0.956 . S
H299 C286 0.961 . S
H300 C286 0.961 . S
H301 C287 0.958 . S
H302 C287 0.961 . S
H303 C287 0.960 . S
C304 C305 1.391 . S
C304 C306 1.394 . S
C304 H320 0.931 . S
C305 C304 1.391 . S
C305 C309 1.376 . S
C306 C304 1.394 . S
C306 C307 1.369 . S
C306 C310 1.531 . S
C307 C306 1.369 . S
C307 C308 1.410 . S
C307 C315 1.503 . S
C308 C307 1.410 . S
C308 C309 1.392 . S
C308 C311 1.511 . S
C309 C305 1.376 . S
C309 C308 1.392 . S
C309 H321 0.929 . S
C310 C306 1.531 . S
C310 H322 0.960 . S
C310 H323 0.962 . S
C310 H324 0.960 . S
C311 C308 1.511 . S
C311 H325 0.961 . S
C311 H326 0.961 . S
C311 H327 0.961 . S
C312 C313 1.370 . S
C312 C314 1.363 . S
C312 H328 0.931 . S
C313 C312 1.370 . S
C313 C317 1.408 . S
C314 C312 1.363 . S
C314 C315 1.370 . S
C314 C318 1.524 . S
C315 C307 1.503 . S
C315 C314 1.370 . S
C315 C316 1.403 . S
C316 C315 1.403 . S
C316 C317 1.404 . S
C316 C319 1.539 . S
C317 C313 1.408 . S
C317 C316 1.404 . S
C317 H329 0.930 . S
C318 C314 1.524 . S
C318 H330 0.956 . S
C318 H331 0.961 . S
C318 H332 0.961 . S
C319 C316 1.539 . S
C319 H333 0.958 . S
C319 H334 0.961 . S
C319 H335 0.960 . S
H320 C304 0.931 . S
H321 C309 0.929 . S
H322 C310 0.960 . S
H323 C310 0.962 . S
H324 C310 0.960 . S
H325 C311 0.961 . S
H326 C311 0.961 . S
H327 C311 0.961 . S
H328 C312 0.931 . S
H329 C317 0.930 . S
H330 C318 0.956 . S
H331 C318 0.961 . S
H332 C318 0.961 . S
H333 C319 0.958 . S
H334 C319 0.961 . S
H335 C319 0.960 . S
C336 C337 1.391 . S
C336 C338 1.394 . S
C336 H352 0.931 . S
C337 C336 1.391 . S
C337 C341 1.376 1_545 S
C338 C336 1.394 . S
C338 C339 1.369 1_545 S
C338 C342 1.531 . S
C339 C338 1.369 1_565 S
C339 C340 1.410 . S
C339 C347 1.503 . S
C340 C339 1.410 . S
C340 C341 1.392 . S
C340 C343 1.511 . S
C341 C337 1.376 1_565 S
C341 C340 1.392 . S
C341 H353 0.929 . S
C342 C338 1.531 . S
C342 H354 0.960 1_545 S
C342 H355 0.962 . S
C342 H356 0.960 . S
C343 C340 1.511 . S
C343 H357 0.961 . S
C343 H358 0.961 . S
C343 H359 0.961 . S
C344 C345 1.370 . S
C344 C346 1.363 . S
C344 H360 0.931 . S
C345 C344 1.370 . S
C345 C349 1.408 . S
C346 C344 1.363 . S
C346 C347 1.370 . S
C346 C350 1.524 1_565 S
C347 C339 1.503 . S
C347 C346 1.370 . S
C347 C348 1.403 . S
C348 C347 1.403 . S
C348 C349 1.404 . S
C348 C351 1.539 . S
C349 C345 1.408 . S
C349 C348 1.404 . S
C349 H361 0.930 . S
C350 C346 1.524 1_545 S
C350 H362 0.956 . S
C350 H363 0.961 1_545 S
C350 H364 0.961 . S
C351 C348 1.539 . S
C351 H365 0.958 . S
C351 H366 0.961 . S
C351 H367 0.960 . S
H352 C336 0.931 . S
H353 C341 0.929 . S
H354 C342 0.960 1_565 S
H355 C342 0.962 . S
H356 C342 0.960 . S
H357 C343 0.961 . S
H358 C343 0.961 . S
H359 C343 0.961 . S
H360 C344 0.931 . S
H361 C349 0.930 . S
H362 C350 0.956 . S
H363 C350 0.961 1_565 S
H364 C350 0.961 . S
H365 C351 0.958 . S
H366 C351 0.961 . S
H367 C351 0.960 . S
C368 C369 1.391 . S
C368 C370 1.394 . S
C368 H384 0.931 . S
C369 C368 1.391 . S
C369 C373 1.376 . S
C370 C368 1.394 . S
C370 C371 1.369 . S
C370 C374 1.531 . S
C371 C370 1.369 . S
C371 C372 1.410 . S
C371 C379 1.503 . S
C372 C371 1.410 . S
C372 C373 1.392 . S
C372 C375 1.511 . S
C373 C369 1.376 . S
C373 C372 1.392 . S
C373 H385 0.929 . S
C374 C370 1.531 . S
C374 H386 0.960 . S
C374 H387 0.962 . S
C374 H388 0.960 . S
C375 C372 1.511 . S
C375 H389 0.961 . S
C375 H390 0.961 . S
C375 H391 0.961 . S
C376 C377 1.370 . S
C376 C378 1.363 . S
C376 H392 0.931 . S
C377 C376 1.370 . S
C377 C381 1.408 . S
C378 C376 1.363 . S
C378 C379 1.370 . S
C378 C382 1.524 . S
C379 C371 1.503 . S
C379 C378 1.370 . S
C379 C380 1.403 . S
C380 C379 1.403 . S
C380 C381 1.404 . S
C380 C383 1.539 . S
C381 C377 1.408 . S
C381 C380 1.404 . S
C381 H393 0.930 . S
C382 C378 1.524 . S
C382 H394 0.956 . S
C382 H395 0.961 . S
C382 H396 0.961 . S
C383 C380 1.539 . S
C383 H397 0.958 . S
C383 H398 0.961 . S
C383 H399 0.960 . S
H384 C368 0.931 . S
H385 C373 0.929 . S
H386 C374 0.960 . S
H387 C374 0.962 . S
H388 C374 0.960 . S
H389 C375 0.961 . S
H390 C375 0.961 . S
H391 C375 0.961 . S
H392 C376 0.931 . S
H393 C381 0.930 . S
H394 C382 0.956 . S
H395 C382 0.961 . S
H396 C382 0.961 . S
H397 C383 0.958 . S
H398 C383 0.961 . S
H399 C383 0.960 . S
C400 C401 1.391 . S
C400 C402 1.394 . S
C400 H416 0.931 . S
C401 C400 1.391 . S
C401 C405 1.376 . S
C402 C400 1.394 . S
C402 C403 1.369 . S
C402 C406 1.531 . S
C403 C402 1.369 . S
C403 C404 1.410 . S
C403 C411 1.503 . S
C404 C403 1.410 . S
C404 C405 1.392 . S
C404 C407 1.511 . S
C405 C401 1.376 . S
C405 C404 1.392 . S
C405 H417 0.929 . S
C406 C402 1.531 . S
C406 H418 0.960 . S
C406 H419 0.962 . S
C406 H420 0.960 . S
C407 C404 1.511 . S
C407 H421 0.961 . S
C407 H422 0.961 . S
C407 H423 0.961 . S
C408 C409 1.370 . S
C408 C410 1.363 . S
C408 H424 0.931 . S
C409 C408 1.370 . S
C409 C413 1.408 . S
C410 C408 1.363 . S
C410 C411 1.370 . S
C410 C414 1.524 . S
C411 C403 1.503 . S
C411 C410 1.370 . S
C411 C412 1.403 . S
C412 C411 1.403 . S
C412 C413 1.404 . S
C412 C415 1.539 . S
C413 C409 1.408 . S
C413 C412 1.404 . S
C413 H425 0.930 . S
C414 C410 1.524 . S
C414 H426 0.956 . S
C414 H427 0.961 . S
C414 H428 0.961 . S
C415 C412 1.539 . S
C415 H429 0.958 . S
C415 H430 0.961 . S
C415 H431 0.960 . S
H416 C400 0.931 . S
H417 C405 0.929 . S
H418 C406 0.960 . S
H419 C406 0.962 . S
H420 C406 0.960 . S
H421 C407 0.961 . S
H422 C407 0.961 . S
H423 C407 0.961 . S
H424 C408 0.931 . S
H425 C413 0.930 . S
H426 C414 0.956 . S
H427 C414 0.961 . S
H428 C414 0.961 . S
H429 C415 0.958 . S
H430 C415 0.961 . S
H431 C415 0.960 . S
C432 C433 1.391 . S
C432 C434 1.394 . S
C432 H448 0.931 . S
C433 C432 1.391 . S
C433 C437 1.376 . S
C434 C432 1.394 . S
C434 C435 1.369 . S
C434 C438 1.531 . S
C435 C434 1.369 . S
C435 C436 1.410 . S
C435 C443 1.503 . S
C436 C435 1.410 . S
C436 C437 1.392 . S
C436 C439 1.511 1_655 S
C437 C433 1.376 . S
C437 C436 1.392 . S
C437 H449 0.929 . S
C438 C434 1.531 . S
C438 H450 0.960 . S
C438 H451 0.962 . S
C438 H452 0.960 . S
C439 C436 1.511 1_455 S
C439 H453 0.961 . S
C439 H454 0.961 . S
C439 H455 0.961 1_455 S
C440 C441 1.370 . S
C440 C442 1.363 . S
C440 H456 0.931 . S
C441 C440 1.370 . S
C441 C445 1.408 1_455 S
C442 C440 1.363 . S
C442 C443 1.370 1_455 S
C442 C446 1.524 . S
C443 C435 1.503 . S
C443 C442 1.370 1_655 S
C443 C444 1.403 . S
C444 C443 1.403 . S
C444 C445 1.404 . S
C444 C447 1.539 . S
C445 C441 1.408 1_655 S
C445 C444 1.404 . S
C445 H457 0.930 . S
C446 C442 1.524 . S
C446 H458 0.956 1_455 S
C446 H459 0.961 . S
C446 H460 0.961 . S
C447 C444 1.539 . S
C447 H461 0.958 . S
C447 H462 0.961 . S
C447 H463 0.960 . S
H448 C432 0.931 . S
H449 C437 0.929 . S
H450 C438 0.960 . S
H451 C438 0.962 . S
H452 C438 0.960 . S
H453 C439 0.961 . S
H454 C439 0.961 . S
H455 C439 0.961 1_655 S
H456 C440 0.931 . S
H457 C445 0.930 . S
H458 C446 0.956 1_655 S
H459 C446 0.961 . S
H460 C446 0.961 . S
H461 C447 0.958 . S
H462 C447 0.961 . S
H463 C447 0.960 . S
C81 C59 0.270 1_556 S
C89 C19 0.356 1_566 S
C113 C79 0.286 . S
C121 C39 0.385 . S
C145 C58 1.169 1_554 S
C153 C18 1.181 1_554 S
C177 C38 1.222 . S
C185 C78 1.154 . S
C209 C32 1.213 . S
C217 C9 1.233 . S
C241 C29 1.181 . S
C249 C52 1.145 . S
C273 C72 1.109 . S
C281 C49 1.205 . S
C305 C69 1.180 . S
C313 C12 1.145 . S
C337 C44 1.663 . S
C345 C62 1.514 . S
C369 C2 1.564 . S
C377 C64 1.658 . S
C401 C22 1.492 . S
C409 C4 1.651 . S
C433 C42 1.489 . S
C441 C24 1.651 . S
