# Generated by pormake.
# Topology smc, (6)-cn, num edge types: 1
# Building blocks:
#     Node 0, Type 0, BuildingBlock: VOLQOD_clean_sbu_1, # of connection points: 6
#     Node 1, Type 0, BuildingBlock: VOLQOD_clean_sbu_1, # of connection points: 6
#     Node 2, Type 0, BuildingBlock: VOLQOD_clean_sbu_1, # of connection points: 6
#     Node 3, Type 0, BuildingBlock: VOLQOD_clean_sbu_1, # of connection points: 6
#     Node 4, Type 0, BuildingBlock: VOLQOD_clean_sbu_1, # of connection points: 6
#     Node 5, Type 0, BuildingBlock: VOLQOD_clean_sbu_1, # of connection points: 6
#     Node 6, Type 0, BuildingBlock: VOLQOD_clean_sbu_1, # of connection points: 6
#     Node 7, Type 0, BuildingBlock: VOLQOD_clean_sbu_1, # of connection points: 6
#     Node 8, Type 0, BuildingBlock: VOLQOD_clean_sbu_1, # of connection points: 6
#     Edge 9, Type (0, 0), BuildingBlock: MIFKUJ_clean_linker_0, # of connection points: 2
#     Edge 10, Type (0, 0), BuildingBlock: MIFKUJ_clean_linker_0, # of connection points: 2
#     Edge 11, Type (0, 0), BuildingBlock: MIFKUJ_clean_linker_0, # of connection points: 2
#     Edge 12, Type (0, 0), BuildingBlock: MIFKUJ_clean_linker_0, # of connection points: 2
#     Edge 13, Type (0, 0), BuildingBlock: MIFKUJ_clean_linker_0, # of connection points: 2
#     Edge 14, Type (0, 0), BuildingBlock: MIFKUJ_clean_linker_0, # of connection points: 2
#     Edge 15, Type (0, 0), BuildingBlock: MIFKUJ_clean_linker_0, # of connection points: 2
#     Edge 16, Type (0, 0), BuildingBlock: MIFKUJ_clean_linker_0, # of connection points: 2
#     Edge 17, Type (0, 0), BuildingBlock: MIFKUJ_clean_linker_0, # of connection points: 2
#     Edge 18, Type (0, 0), BuildingBlock: MIFKUJ_clean_linker_0, # of connection points: 2
#     Edge 19, Type (0, 0), BuildingBlock: MIFKUJ_clean_linker_0, # of connection points: 2
#     Edge 20, Type (0, 0), BuildingBlock: MIFKUJ_clean_linker_0, # of connection points: 2
#     Edge 21, Type (0, 0), BuildingBlock: MIFKUJ_clean_linker_0, # of connection points: 2
#     Edge 22, Type (0, 0), BuildingBlock: MIFKUJ_clean_linker_0, # of connection points: 2
#     Edge 23, Type (0, 0), BuildingBlock: MIFKUJ_clean_linker_0, # of connection points: 2
#     Edge 24, Type (0, 0), BuildingBlock: MIFKUJ_clean_linker_0, # of connection points: 2
#     Edge 25, Type (0, 0), BuildingBlock: MIFKUJ_clean_linker_0, # of connection points: 2
#     Edge 26, Type (0, 0), BuildingBlock: MIFKUJ_clean_linker_0, # of connection points: 2
#     Edge 27, Type (0, 0), BuildingBlock: MIFKUJ_clean_linker_0, # of connection points: 2
#     Edge 28, Type (0, 0), BuildingBlock: MIFKUJ_clean_linker_0, # of connection points: 2
#     Edge 29, Type (0, 0), BuildingBlock: MIFKUJ_clean_linker_0, # of connection points: 2
#     Edge 30, Type (0, 0), BuildingBlock: MIFKUJ_clean_linker_0, # of connection points: 2
#     Edge 31, Type (0, 0), BuildingBlock: MIFKUJ_clean_linker_0, # of connection points: 2
#     Edge 32, Type (0, 0), BuildingBlock: MIFKUJ_clean_linker_0, # of connection points: 2
#     Edge 33, Type (0, 0), BuildingBlock: MIFKUJ_clean_linker_0, # of connection points: 2
#     Edge 34, Type (0, 0), BuildingBlock: MIFKUJ_clean_linker_0, # of connection points: 2
#     Edge 35, Type (0, 0), BuildingBlock: MIFKUJ_clean_linker_0, # of connection points: 2
# Relax obj value: 0.337
# Max RMSD: 0.273
# Mean RMSD: 0.261
data_MOF--net-smc--node1-VOLQOD_clean_sbu_1--edge1-MIFKUJ_clean_linker_0
_symmetry_space_group_name_H-M    P1
_symmetry_Int_Tables_number       1
_symmetry_cell_setting            triclinic
loop_
_symmetry_equiv_pos_as_xyz
'x, y, z'
_cell_length_a     38.383018
_cell_length_b     39.004558
_cell_length_c     62.122936
_cell_angle_alpha  89.900006
_cell_angle_beta   90.148417
_cell_angle_gamma 121.47536
loop_
_atom_site_label
_atom_site_type_symbol
_atom_site_fract_x
_atom_site_fract_y
_atom_site_fract_z
_atom_type_partial_charge
O0 O 0.96096 0.47243 0.00382 0.0
Zn1 Zn 0.00093 0.45714 0.99608 0.0
O2 O 0.00506 0.42753 0.01976 0.0
Zn3 Zn 0.00049 0.37888 0.00882 0.0
Zn4 Zn 0.96608 0.41681 0.04211 0.0
Zn5 Zn 0.05757 0.46305 0.0317 0.0
O6 O 0.05706 0.38611 0.00715 0.0
O7 O 0.09556 0.44987 0.01802 0.0
O8 O 0.98314 0.42563 0.96879 0.0
O9 O 0.97861 0.36856 0.97834 0.0
O10 O 0.95806 0.33088 0.02581 0.0
O11 O 0.92664 0.3573 0.04323 0.0
O12 O 0.99313 0.43165 0.07127 0.0
O13 O 0.05208 0.51064 0.99131 0.0
O14 O 0.05861 0.45751 0.0637 0.0
O15 O 0.075 0.52013 0.02483 0.0
C16 C 0.9399 0.46903 0.02033 0.0
C17 C 0.09186 0.41828 0.00974 0.0
C18 C 0.92887 0.32709 0.03747 0.0
C19 C 0.97436 0.39014 0.96443 0.0
C20 C 0.02991 0.44593 0.07733 0.0
C21 C 0.07339 0.53401 0.00655 0.0
O22 O 0.93858 0.44852 0.03668 0.0
O23 O 0.56672 0.53072 0.98791 0.0
Zn24 Zn 0.58125 0.58466 0.97752 0.0
O25 O 0.61405 0.6252 -0.00123 0.0
Zn26 Zn 0.66275 0.66807 0.98408 0.0
Zn27 Zn 0.62813 0.60081 0.02186 0.0
Zn28 Zn 0.58181 0.64526 0.01142 0.0
O29 O 0.66196 0.71957 0.98381 0.0
O30 O 0.60462 0.70162 0.00172 0.0
O31 O 0.60795 0.59471 0.94864 0.0
O32 O 0.66413 0.6546 0.95274 0.0
O33 O 0.71405 0.67515 0.9979 0.0
O34 O 0.68829 0.6246 0.02151 0.0
O35 O 0.61542 0.61362 0.05099 0.0
O36 O 0.52709 0.57892 0.97378 0.0
O37 O 0.5838 0.64631 0.04393 0.0
O38 O 0.52286 0.61182 0.00176 0.0
C39 C 0.57392 0.51683 0.00472 0.0
C40 C 0.63613 0.7275 0.9914 0.0
C41 C 0.71863 0.65434 0.01224 0.0
C42 C 0.64061 0.62432 0.94106 0.0
C43 C 0.59813 0.63209 0.05735 0.0
C44 C 0.50654 0.58835 0.9857 0.0
O45 O 0.59773 0.54004 0.01942 0.0
O46 O 0.43247 0.93704 0.0002 0.0
Zn47 Zn 0.43434 0.98592 0.01129 0.0
O48 O 0.41296 0.00688 0.99018 0.0
Zn49 Zn 0.36863 0.01057 0.00277 0.0
Zn50 Zn 0.39391 0.97187 0.96543 0.0
Zn51 Zn 0.456 0.05918 0.9809 0.0
O52 O 0.38021 0.06759 0.00155 0.0
O53 O 0.44675 0.10021 0.99407 0.0
O54 O 0.40633 0.97549 0.03989 0.0
O55 O 0.36321 0.99636 0.03432 0.0
O56 O 0.31468 0.96909 0.98963 0.0
O57 O 0.33281 0.93751 0.96659 0.0
O58 O 0.41021 0.00353 0.93793 0.0
O59 O 0.4941 0.02444 0.01613 0.0
O60 O 0.45583 0.06547 0.94861 0.0
O61 O 0.51092 0.07078 0.99087 0.0
C62 C 0.43021 0.92423 0.9811 0.0
C63 C 0.41501 0.10001 0.00016 0.0
C64 C 0.30541 0.94069 0.97632 0.0
C65 C 0.37926 0.9823 0.04672 0.0
C66 C 0.4355 0.0404 0.93372 0.0
C67 C 0.52089 0.05532 0.00593 0.0
O68 O 0.41826 0.93689 0.96552 0.0
O69 O 0.62277 0.81329 0.32292 0.0
Zn70 Zn 0.66873 0.80729 0.31286 0.0
O71 O 0.6861 0.78433 0.33507 0.0
Zn72 Zn 0.67791 0.7332 0.32506 0.0
Zn73 Zn 0.65533 0.77807 0.36085 0.0
Zn74 Zn 0.74297 0.82082 0.34194 0.0
O75 O 0.73173 0.7349 0.32406 0.0
O76 O 0.7758 0.80028 0.32891 0.0
O77 O 0.65295 0.77546 0.28536 0.0
O78 O 0.6575 0.72281 0.29431 0.0
O79 O 0.63517 0.68753 0.34337 0.0
O80 O 0.61685 0.71976 0.36592 0.0
O81 O 0.6909 0.79739 0.38705 0.0
O82 O 0.71252 0.86432 0.30719 0.0
O83 O 0.75354 0.82455 0.37407 0.0
O84 O 0.76163 0.87588 0.3304 0.0
C85 C 0.61193 0.81666 0.34175 0.0
C86 C 0.76812 0.76533 0.32396 0.0
C87 C 0.61308 0.68745 0.35872 0.0
C88 C 0.64959 0.74212 0.28057 0.0
C89 C 0.72919 0.81418 0.38997 0.0
C90 C 0.74659 0.88816 0.31621 0.0
O91 O 0.62434 0.8068 0.35835 0.0
O92 O 0.25149 0.85836 0.32511 0.0
Zn93 Zn 0.24853 0.90384 0.31227 0.0
O94 O 0.27246 0.9501 0.33136 0.0
Zn95 Zn 0.31592 -0.00293 0.31624 0.0
Zn96 Zn 0.29465 0.93869 0.35623 0.0
Zn97 Zn 0.23008 0.95885 0.34161 0.0
O98 O 0.30538 0.04319 0.31765 0.0
O99 O 0.24087 0.01069 0.32923 0.0
O100 O 0.27275 0.91794 0.28272 0.0
O101 O 0.31563 0.98398 0.2847 0.0
O102 O 0.37204 0.01123 0.3274 0.0
O103 O 0.35475 0.9672 0.35412 0.0
O104 O 0.28126 0.95601 0.38345 0.0
O105 O 0.18842 0.88031 0.30888 0.0
O106 O 0.23008 0.9639 0.37414 0.0
O107 O 0.17431 0.91414 0.33237 0.0
C108 C 0.25788 0.85179 0.34438 0.0
C109 C 0.27203 0.04194 0.32152 0.0
C110 C 0.38167 0.99541 0.34249 0.0
C111 C 0.298 0.95139 0.27392 0.0
C112 C 0.25384 0.96356 0.38836 0.0
C113 C 0.16281 0.8859 0.31871 0.0
O114 O 0.27242 0.87955 0.35847 0.0
O115 O 0.18782 0.42459 0.34652 0.0
Zn116 Zn 0.13386 0.38456 0.33368 0.0
O117 O 0.09058 0.3686 0.35462 0.0
Zn118 Zn 0.05 0.37988 0.34352 0.0
Zn119 Zn 0.11319 0.39725 0.38118 0.0
Zn120 Zn 0.06555 0.31191 0.36039 0.0
O121 O 0.99462 0.32902 0.34016 0.0
O122 O 0.01273 0.28359 0.34452 0.0
O123 O 0.12397 0.40611 0.30641 0.0
O124 O 0.06532 0.40206 0.31355 0.0
O125 O 0.04876 0.42281 0.36101 0.0
O126 O 0.09809 0.43867 0.38493 0.0
O127 O 0.09084 0.36027 0.40639 0.0
O128 O 0.141 0.33863 0.32629 0.0
O129 O 0.05406 0.29929 0.39221 0.0
O130 O 0.10086 0.29122 0.34963 0.0
C131 C 0.19973 0.4351 0.36583 0.0
C132 C 0.98707 0.29318 0.33876 0.0
C133 C 0.07142 0.44457 0.37646 0.0
C134 C 0.09484 0.41092 0.30085 0.0
C135 C 0.06735 0.32244 0.40854 0.0
C136 C 0.12826 0.30463 0.33508 0.0
O137 O 0.17438 0.42491 0.38125 0.0
O138 O 0.27473 0.13082 0.65577 0.0
Zn139 Zn 0.31567 0.11963 0.6433 0.0
O140 O 0.3334 0.09513 0.66429 0.0
Zn141 Zn 0.32328 0.04378 0.65329 0.0
Zn142 Zn 0.30427 0.08771 0.69092 0.0
Zn143 Zn 0.39107 0.13124 0.66987 0.0
O144 O 0.37645 0.04422 0.65112 0.0
O145 O 0.42185 0.10954 0.65561 0.0
O146 O 0.29401 0.08688 0.61647 0.0
O147 O 0.29917 0.03375 0.62325 0.0
O148 O 0.28128 -0.002 0.67165 0.0
O149 O 0.26468 0.02918 0.69581 0.0
O150 O 0.34213 0.10726 0.71612 0.0
O151 O 0.36109 0.17438 0.63531 0.0
O152 O 0.40394 0.13456 0.70176 0.0
O153 O 0.41091 0.18682 0.65813 0.0
C154 C 0.26403 0.1316 0.67503 0.0
C155 C 0.41303 0.0743 0.65048 0.0
C156 C 0.25987 -0.00289 0.68755 0.0
C157 C 0.28934 0.05339 0.61081 0.0
C158 C 0.38064 0.12431 0.71812 0.0
C159 C 0.3959 0.19839 0.64353 0.0
O160 O 0.27455 0.11745 0.6905 0.0
O161 O 0.90681 0.16789 0.67977 0.0
Zn162 Zn 0.90253 0.21282 0.66738 0.0
O163 O 0.92952 0.26008 0.68588 0.0
Zn164 Zn 0.97185 0.30573 0.66927 0.0
Zn165 Zn 0.95349 0.24866 0.71006 0.0
Zn166 Zn 0.88976 0.27141 0.69771 0.0
O167 O 0.9603 0.35099 0.66804 0.0
O168 O 0.90202 0.32424 0.68635 0.0
O169 O 0.92523 0.22406 0.63737 0.0
O170 O 0.97213 0.28915 0.63859 0.0
O171 O 0.02849 0.32352 0.68079 0.0
O172 O 0.01366 0.27906 0.70703 0.0
O173 O 0.94178 0.26555 0.73781 0.0
O174 O 0.84241 0.19147 0.66553 0.0
O175 O 0.89135 0.27557 0.73029 0.0
O176 O 0.833 0.22978 0.68827 0.0
C177 C 0.91673 0.16198 0.69834 0.0
C178 C 0.93026 0.35279 0.67537 0.0
C179 C 0.03954 0.30844 0.69559 0.0
C180 C 0.95271 0.25613 0.62828 0.0
C181 C 0.91555 0.27405 0.74375 0.0
C182 C 0.81898 0.20043 0.67514 0.0
O183 O 0.93257 0.18962 0.71245 0.0
O184 O 0.76753 0.60698 0.66521 0.0
Zn185 Zn 0.76742 0.65428 0.67734 0.0
O186 O 0.74499 0.67546 0.65677 0.0
Zn187 Zn 0.69605 0.67117 0.66952 0.0
Zn188 Zn 0.73271 0.64544 0.63008 0.0
Zn189 Zn 0.78518 0.73071 0.64981 0.0
O190 O 0.70135 0.72567 0.67122 0.0
O191 O 0.76591 0.76547 0.66078 0.0
O192 O 0.73816 0.63965 0.70575 0.0
O193 O 0.68949 0.65326 0.70051 0.0
O194 O 0.64551 0.62942 0.65339 0.0
O195 O 0.6722 0.61125 0.6272 0.0
O196 O 0.75366 0.68101 0.60388 0.0
O197 O 0.82602 0.69531 0.68361 0.0
O198 O 0.79301 0.74151 0.61799 0.0
O199 O 0.83918 0.74789 0.66355 0.0
C200 C 0.76575 0.59493 0.64599 0.0
C201 C 0.7326 0.76051 0.66796 0.0
C202 C 0.64147 0.60799 0.63697 0.0
C203 C 0.70813 0.64169 0.71268 0.0
C204 C 0.77776 0.71875 0.60166 0.0
C205 C 0.8506 0.73078 0.67685 0.0
O206 O 0.75597 0.60932 0.63029 0.0
H207 H 0.45 0.59386 0.00982 0.0
H208 H 0.37584 0.54941 0.00815 0.0
H209 H 0.38765 0.48836 0.95339 0.0
H210 H 0.46165 0.53307 0.9546 0.0
H211 H 0.32408 0.49653 0.94833 0.0
H212 H 0.37113 0.44509 0.00209 0.0
H213 H 0.41072 0.44675 0.03381 0.0
H214 H 0.34512 0.48425 0.07346 0.0
H215 H 0.30556 0.48344 0.04192 0.0
H216 H 0.11352 0.3611 0.00967 0.0
H217 H 0.18011 0.37161 -0.00158 0.0
H218 H 0.21909 0.49292 0.9793 0.0
H219 H 0.15395 0.48287 0.99057 0.0
H220 H 0.25406 0.42907 0.01637 0.0
H221 H 0.27813 0.52029 0.93661 0.0
H222 H 0.23814 0.51459 0.90427 0.0
H223 H 0.16008 0.38766 0.91487 0.0
H224 H 0.19997 0.39239 0.94708 0.0
C225 C 0.43684 0.57145 0.9972 0.0
C226 C 0.46182 0.56672 0.98254 0.0
C227 C 0.39449 0.54581 0.99639 0.0
C228 C 0.37645 0.51487 0.98103 0.0
C229 C 0.40104 0.51171 0.96553 0.0
C230 C 0.44336 0.53741 0.96626 0.0
C231 C 0.33193 0.48561 0.98147 0.0
C232 C 0.30869 0.48141 0.96311 0.0
C233 C 0.31211 0.46421 0.00045 0.0
C234 C 0.33545 0.46432 0.01959 0.0
C235 C 0.36528 0.45389 0.01755 0.0
C236 C 0.38772 0.45468 0.0355 0.0
C237 C 0.38046 0.46563 0.05563 0.0
C238 C 0.35069 0.47575 0.05786 0.0
C239 C 0.3282 0.47507 0.03995 0.0
C240 C 0.13625 0.38965 0.00272 0.0
C241 C 0.12905 0.42137 0.00121 0.0
C242 C 0.17405 0.3956 0.99632 0.0
C243 C 0.20422 0.43288 0.98782 0.0
C244 C 0.19603 0.46372 0.98547 0.0
C245 C 0.15895 0.45808 0.99215 0.0
C246 C 0.24627 0.44252 0.98372 0.0
C247 C 0.26935 0.4431 0.00138 0.0
C248 C 0.26588 0.45977 0.96394 0.0
C249 C 0.24211 0.45674 0.94434 0.0
C250 C 0.25268 0.49108 0.93197 0.0
C251 C 0.22995 0.48803 0.91366 0.0
C252 C 0.19658 0.4508 0.90753 0.0
C253 C 0.1859 0.4165 0.91966 0.0
C254 C 0.20853 0.41937 0.93797 0.0
H255 H 0.17901 0.44852 0.89336 0.0
H256 H 0.39787 0.46624 0.06951 0.0
H257 H 0.45955 0.89351 0.01044 0.0
H258 H 0.50501 0.86889 0.00344 0.0
H259 H 0.49032 0.87616 0.93509 0.0
H260 H 0.44493 0.90173 0.94185 0.0
H261 H 0.49038 0.8032 0.95276 0.0
H262 H 0.56972 0.94613 0.94972 0.0
H263 H 0.59298 0.01532 0.96119 0.0
H264 H 0.63452 0.99487 0.02133 0.0
H265 H 0.61075 0.92519 0.01042 0.0
H266 H 0.64597 0.76013 0.95168 0.0
H267 H 0.62395 0.80664 0.94122 0.0
H268 H 0.60792 0.82449 0.00812 0.0
H269 H 0.62866 0.77728 0.01852 0.0
H270 H 0.6314 0.89374 0.98023 0.0
H271 H 0.53228 0.74859 0.98759 0.0
H272 H 0.50788 0.67793 0.97859 0.0
H273 H 0.50342 0.70289 0.91162 0.0
H274 H 0.52839 0.7739 0.92025 0.0
C275 C 0.4652 0.88923 0.99387 0.0
C276 C 0.44905 0.9002 0.9767 0.0
C277 C 0.49137 0.87532 0.98993 0.0
C278 C 0.50158 0.8717 0.96879 0.0
C279 C 0.48297 0.87926 0.95152 0.0
C280 C 0.45694 0.89365 0.95544 0.0
C281 C 0.53343 0.86201 0.96525 0.0
C282 C 0.5216 0.82343 0.95804 0.0
C283 C 0.57393 0.88839 0.97249 0.0
C284 C 0.58822 0.93028 0.97926 0.0
C285 C 0.58343 0.9562 0.96549 0.0
C286 C 0.59677 0.99554 0.97187 0.0
C287 C 0.61523 0.00946 0.99196 0.0
C288 C 0.62025 0.98402 0.00576 0.0
C289 C 0.60688 0.9446 -0.00054 0.0
C290 C 0.63972 0.77562 0.96413 0.0
C291 C 0.63871 0.76525 0.98586 0.0
C292 C 0.62704 0.80199 0.95814 0.0
C293 C 0.61398 0.81852 0.97392 0.0
C294 C 0.61805 0.81209 0.99575 0.0
C295 C 0.62983 0.78514 0.00169 0.0
C296 C 0.58809 0.83476 0.96813 0.0
C297 C 0.6008 0.8743 0.97392 0.0
C298 C 0.54833 0.80926 0.95969 0.0
C299 C 0.53261 0.76653 0.95451 0.0
C300 C 0.52633 0.73902 0.97093 0.0
C301 C 0.51239 0.69894 0.96591 0.0
C302 C 0.50422 0.68596 0.94454 0.0
C303 C 0.50985 0.71302 0.92816 0.0
C304 C 0.5239 0.75318 0.9331 0.0
H305 H 0.49343 0.65491 0.94068 0.0
H306 H 0.62581 0.04001 0.99678 0.0
H307 H 0.26991 0.88331 0.94506 0.0
H308 H 0.21058 0.81584 0.95011 0.0
H309 H 0.18667 0.85142 0.0113 0.0
H310 H 0.24556 0.91918 0.00626 0.0
H311 H 0.21241 0.79564 0.01303 0.0
H312 H 0.11087 0.8105 0.97831 0.0
H313 H 0.08023 0.83025 0.94965 0.0
H314 H 0.08817 0.74995 0.90556 0.0
H315 H 0.11941 0.73011 0.93386 0.0
H316 H 0.08764 0.58886 0.03759 0.0
H317 H 0.11181 0.65994 0.03273 0.0
H318 H 0.12463 0.64872 0.96449 0.0
H319 H 0.09839 0.57695 0.96917 0.0
H320 H 0.09414 0.69373 0.97032 0.0
H321 H 0.20744 0.68964 0.00126 0.0
H322 H 0.24293 0.672 0.02816 0.0
H323 H 0.21896 0.73478 0.077 0.0
H324 H 0.18276 0.75227 0.05044 0.0
C325 C 0.25095 0.8773 0.95914 0.0
C326 C 0.26292 0.90622 0.97549 0.0
C327 C 0.21689 0.83876 0.96195 0.0
C328 C 0.19461 0.82865 0.98119 0.0
C329 C 0.20355 0.85878 0.99634 0.0
C330 C 0.23726 0.89752 0.9934 0.0
C331 C 0.17003 0.78594 0.98756 0.0
C332 C 0.18579 0.77337 0.00409 0.0
C333 C 0.13635 0.75706 0.97535 0.0
C334 C 0.11777 0.76903 0.9582 0.0
C335 C 0.10644 0.79731 0.96245 0.0
C336 C 0.08887 0.80846 0.94628 0.0
C337 C 0.08232 0.79142 0.92579 0.0
C338 C 0.09327 0.76313 0.92144 0.0
C339 C 0.11085 0.75188 0.93756 0.0
C340 C 0.09607 0.60167 0.02159 0.0
C341 C 0.09181 0.57762 0.00378 0.0
C342 C 0.10975 0.64227 0.01882 0.0
C343 C 0.1206 0.65984 -0.00171 0.0
C344 C 0.11635 0.63581 0.98048 0.0
C345 C 0.10178 0.59496 0.98318 0.0
C346 C 0.13737 0.70345 0.99537 0.0
C347 C 0.12023 0.71607 0.97952 0.0
C348 C 0.17047 0.73259 0.00792 0.0
C349 C 0.19193 0.72179 0.02393 0.0
C350 C 0.20941 0.69935 0.01778 0.0
C351 C 0.2297 0.68943 0.03296 0.0
C352 C 0.23305 0.70212 0.05429 0.0
C353 C 0.21621 0.72485 0.06048 0.0
C354 C 0.1958 0.73477 0.04538 0.0
H355 H 0.24882 0.69445 0.06601 0.0
H356 H 0.06871 0.80008 0.91329 0.0
H357 H 0.47763 0.15978 0.02235 0.0
H358 H 0.49175 0.22779 0.02819 0.0
H359 H 0.37882 0.1963 0.99638 0.0
H360 H 0.36384 0.1273 0.99102 0.0
H361 H 0.45618 0.26301 0.9784 0.0
H362 H 0.38194 0.21905 0.04461 0.0
H363 H 0.3633 0.18496 0.07984 0.0
H364 H 0.48549 0.26422 0.10285 0.0
H365 H 0.50506 0.29843 0.06763 0.0
H366 H 0.50529 0.46171 0.98364 0.0
H367 H 0.46788 0.3891 0.98736 0.0
H368 H 0.55385 0.39885 0.03553 0.0
H369 H 0.58997 0.47231 0.03303 0.0
H370 H 0.48133 0.34044 0.04593 0.0
H371 H 0.56006 0.377 0.98116 0.0
H372 H 0.58537 0.41017 0.94598 0.0
H373 H 0.46361 0.34377 0.92026 0.0
H374 H 0.43748 0.31058 0.95539 0.0
C375 C 0.45539 0.16714 0.01702 0.0
C376 C 0.41983 0.13866 0.0061 0.0
C377 C 0.46335 0.20581 0.0205 0.0
C378 C 0.43622 0.2168 0.01279 0.0
C379 C 0.39985 0.18803 0.00258 0.0
C380 C 0.39136 0.14884 -0.00046 0.0
C381 C 0.44918 0.25963 0.01282 0.0
C382 C 0.46068 0.27991 0.99309 0.0
C383 C 0.45674 0.28152 0.03214 0.0
C384 C 0.44503 0.26115 0.0534 0.0
C385 C 0.40494 0.22902 0.05711 0.0
C386 C 0.39418 0.20971 0.0771 0.0
C387 C 0.42321 0.22238 0.09356 0.0
C388 C 0.46304 0.25444 0.09008 0.0
C389 C 0.47396 0.27385 0.07011 0.0
C390 C 0.51641 0.44854 0.99504 0.0
C391 C 0.55152 0.47276 0.00753 0.0
C392 C 0.49491 0.40692 0.99713 0.0
C393 C 0.50878 0.38842 0.01121 0.0
C394 C 0.54287 0.41249 0.02437 0.0
C395 C 0.56382 0.45442 0.02273 0.0
C396 C 0.48856 0.34404 0.01144 0.0
C397 C 0.4761 0.32355 0.03119 0.0
C398 C 0.48111 0.32187 0.99215 0.0
C399 C 0.49676 0.34164 0.97097 0.0
C400 C 0.53864 0.36968 0.96804 0.0
C401 C 0.55314 0.38846 0.94811 0.0
C402 C 0.5261 0.37917 0.93092 0.0
C403 C 0.48451 0.35099 0.9336 0.0
C404 C 0.46984 0.33216 0.95352 0.0
H405 H 0.53739 0.39374 0.9155 0.0
H406 H 0.41482 0.20738 0.10903 0.0
H407 H 0.55367 0.03191 0.03781 0.0
H408 H 0.62495 0.06685 0.04979 0.0
H409 H 0.65741 0.15553 -7e-05 0.0
H410 H 0.58652 0.12126 0.98792 0.0
H411 H 0.70097 0.09125 0.02918 0.0
H412 H 0.71416 0.24589 0.02296 0.0
H413 H 0.66947 0.2736 0.02607 0.0
H414 H 0.58896 0.17623 0.06778 0.0
H415 H 0.63348 0.1483 0.06519 0.0
H416 H 0.89804 0.26011 0.01252 0.0
H417 H 0.82996 0.20022 0.01544 0.0
H418 H 0.81268 0.24275 0.07626 0.0
H419 H 0.88006 0.30367 0.07279 0.0
H420 H 0.75718 0.23305 0.05089 0.0
H421 H 0.80713 0.14954 0.07052 0.0
H422 H 0.85026 0.11994 0.06935 0.0
H423 H 0.80427 0.07247 0.00636 0.0
H424 H 0.76132 0.1023 0.00697 0.0
C425 C 0.57603 0.05871 0.02929 0.0
C426 C 0.56431 0.07422 0.01212 0.0
C427 C 0.61671 0.07843 0.0361 0.0
C428 C 0.6461 0.11392 0.0259 0.0
C429 C 0.6349 0.12834 0.00813 0.0
C430 C 0.59437 0.10875 0.00133 0.0
C431 C 0.68797 0.13794 0.03457 0.0
C432 C 0.71351 0.1222 0.03412 0.0
C433 C 0.70351 0.1777 0.04169 0.0
C434 C 0.67705 0.19488 0.04376 0.0
C435 C 0.68707 0.23055 0.03291 0.0
C436 C 0.66173 0.24626 0.03456 0.0
C437 C 0.62634 0.22664 0.04707 0.0
C438 C 0.61631 0.19134 0.05804 0.0
C439 C 0.64157 0.17554 0.05647 0.0
C440 C 0.88027 0.25597 0.02687 0.0
C441 C 0.89388 0.28669 0.04226 0.0
C442 C 0.84135 0.22154 0.02861 0.0
C443 C 0.81597 0.21698 0.04603 0.0
C444 C 0.83153 0.24576 0.06258 0.0
C445 C 0.87 0.28054 0.0606 0.0
C446 C 0.77145 0.18721 0.0448 0.0
C447 C 0.74505 0.2019 0.04652 0.0
C448 C 0.75524 0.14637 0.03928 0.0
C449 C 0.78112 0.1284 0.03876 0.0
C450 C 0.80643 0.13307 0.05633 0.0
C451 C 0.83082 0.11619 0.05578 0.0
C452 C 0.83005 0.09439 0.03778 0.0
C453 C 0.80483 0.08937 0.0203 0.0
C454 C 0.7804 0.10621 0.02076 0.0
H455 H 0.84894 0.08134 0.03739 0.0
H456 H 0.60673 0.23881 0.04829 0.0
H457 H 0.94543 0.52238 0.99016 0.0
H458 H 0.92009 0.56779 0.99248 0.0
H459 H 0.86703 0.51831 0.05444 0.0
H460 H 0.8926 0.47243 0.05241 0.0
H461 H 0.81435 0.52327 0.0251 0.0
H462 H 0.95174 0.60843 0.05182 0.0
H463 H 0.02679 0.64211 0.05043 0.0
H464 H 0.02918 0.70425 0.99284 0.0
H465 H 0.95403 0.6704 0.99363 0.0
H466 H 0.74606 0.64422 0.05043 0.0
H467 H 0.801 0.63093 0.05503 0.0
H468 H 0.83698 0.66429 0.98895 0.0
H469 H 0.78205 0.67816 0.98427 0.0
H470 H 0.9029 0.67215 0.02157 0.0
H471 H 0.7732 0.57949 0.98828 0.0
H472 H 0.69847 0.547 0.98487 0.0
H473 H 0.68314 0.49878 0.0487 0.0
H474 H 0.75804 0.53174 0.05262 0.0
C475 C 0.92822 0.52084 0.0043 0.0
C476 C 0.92095 0.49362 0.02113 0.0
C477 C 0.91419 0.54721 0.00566 0.0
C478 C 0.89254 0.5469 0.02381 0.0
C479 C 0.88423 0.51921 0.04042 0.0
C480 C 0.89857 0.49289 0.03917 0.0
C481 C 0.8763 0.57376 0.02466 0.0
C482 C 0.83382 0.5558 0.0248 0.0
C483 C 0.90183 0.61618 0.02319 0.0
C484 C 0.94711 0.63663 0.02272 0.0
C485 C 0.96818 0.62899 0.03874 0.0
C486 C 0.01077 0.64816 0.03808 0.0
C487 C 0.0327 0.67531 0.02157 0.0
C488 C 0.01211 0.68324 0.00563 0.0
C489 C 0.96952 0.66409 0.00619 0.0
C490 C 0.76689 0.65056 0.03718 0.0
C491 C 0.75936 0.66119 0.01685 0.0
C492 C 0.79846 0.64329 0.03988 0.0
C493 C 0.8224 0.646 0.02222 0.0
C494 C 0.81878 0.66221 0.00276 0.0
C495 C 0.78727 0.6699 8e-05 0.0
C496 C 0.84127 0.62141 0.0224 0.0
C497 C 0.88382 0.63964 0.02222 0.0
C498 C 0.81606 0.57905 0.02312 0.0
C499 C 0.77109 0.55839 0.02082 0.0
C500 C 0.75388 0.56221 0.00165 0.0
C501 C 0.71157 0.54373 -0.00039 0.0
C502 C 0.68614 0.52095 0.01657 0.0
C503 C 0.70295 0.51652 0.0356 0.0
C504 C 0.74533 0.53509 0.03774 0.0
H505 H 0.65344 0.50664 0.01488 0.0
H506 H 0.06565 0.69034 0.02119 0.0
H507 H 0.84499 0.82527 0.31423 0.0
H508 H 0.90333 0.82006 0.30524 0.0
H509 H 0.82933 0.69083 0.31017 0.0
H510 H 0.76976 0.69578 0.31946 0.0
H511 H 0.90166 0.72186 0.33201 0.0
H512 H 0.86468 0.72804 0.26138 0.0
H513 H 0.83884 0.74854 0.23067 0.0
H514 H 0.94178 0.86919 0.23553 0.0
H515 H 0.96797 0.84968 0.26647 0.0
H516 H 0.12658 0.83342 0.28514 0.0
H517 H 0.05332 0.78653 0.27922 0.0
H518 H 0.02683 0.82716 0.33802 0.0
H519 H 0.09954 0.87413 0.34394 0.0
H520 H 0.9957 0.80633 0.27365 0.0
H521 H 0.94798 0.74912 0.3632 0.0
H522 H 0.97237 0.72376 0.39229 0.0
H523 H 0.03665 0.69513 0.34629 0.0
H524 H 0.01201 0.71948 0.31685 0.0
C525 C 0.84075 0.79558 0.31332 0.0
C526 C 0.80269 0.76092 0.31767 0.0
C527 C 0.87417 0.79265 0.30793 0.0
C528 C 0.87048 0.75502 0.30663 0.0
C529 C 0.83258 0.72011 0.31086 0.0
C530 C 0.79871 0.72301 0.31616 0.0
C531 C 0.90779 0.75383 0.3026 0.0
C532 C 0.92208 0.73957 0.31905 0.0
C533 C 0.9336 0.77512 0.28506 0.0
C534 C 0.91839 0.78727 0.26626 0.0
C535 C 0.88177 0.75899 0.25596 0.0
C536 C 0.86704 0.77045 0.2385 0.0
C537 C 0.88868 0.81012 0.23114 0.0
C538 C 0.92512 0.83843 0.24121 0.0
C539 C 0.93999 0.82714 0.25868 0.0
C540 C 0.1051 0.83218 0.29685 0.0
C541 C 0.11877 0.85768 0.31494 0.0
C542 C 0.06336 0.80527 0.29348 0.0
C543 C 0.03482 0.80291 0.30837 0.0
C544 C 0.04847 0.82794 0.32656 0.0
C545 C 0.09 0.85516 0.32978 0.0
C546 C 0.99046 0.77783 0.30417 0.0
C547 C 0.97492 0.78713 0.28614 0.0
C548 C 0.96336 0.75108 0.31994 0.0
C549 C 0.97811 0.73626 0.33775 0.0
C550 C 0.96701 0.73711 0.35922 0.0
C551 C 0.98095 0.72294 0.3758 0.0
C552 C 0.00601 0.7078 0.37114 0.0
C553 C 0.01724 0.70685 0.34989 0.0
C554 C 0.00333 0.7209 0.33325 0.0
H555 H 0.01673 0.6968 0.38399 0.0
H556 H 0.87721 0.81894 0.21763 0.0
H557 H 0.1191 0.2376 0.35477 0.0
H558 H 0.15692 0.20437 0.34748 0.0
H559 H 0.2209 0.28744 0.29563 0.0
H560 H 0.18315 0.32093 0.30274 0.0
H561 H 0.19635 0.20983 0.28479 0.0
H562 H 0.27111 0.30196 0.3406 0.0
H563 H 0.28139 0.33727 0.37508 0.0
H564 H 0.23505 0.22608 0.40935 0.0
H565 H 0.22391 0.18997 0.37505 0.0
H566 H 0.33208 0.12211 0.32243 0.0
H567 H 0.32236 0.1795 0.31869 0.0
H568 H 0.19391 0.09747 0.30676 0.0
H569 H 0.20321 0.04069 0.31065 0.0
H570 H 0.27162 0.19279 0.34485 0.0
H571 H 0.16008 0.13806 0.27106 0.0
H572 H 0.15307 0.10536 0.23605 0.0
H573 H 0.28141 0.14867 0.23601 0.0
H574 H 0.2894 0.18224 0.27083 0.0
C575 C 0.14091 0.24863 0.34169 0.0
C576 C 0.14821 0.28205 0.32942 0.0
C577 C 0.16271 0.22978 0.33764 0.0
C578 C 0.19217 0.24393 0.32125 0.0
C579 C 0.19848 0.27628 0.30844 0.0
C580 C 0.17686 0.29534 0.31255 0.0
C581 C 0.21628 0.22474 0.31771 0.0
C582 C 0.21315 0.20636 0.29782 0.0
C583 C 0.23951 0.22165 0.33448 0.0
C584 C 0.24649 0.24322 0.35522 0.0
C585 C 0.26287 0.28498 0.35548 0.0
C586 C 0.26888 0.30515 0.37499 0.0
C587 C 0.25883 0.28392 0.39439 0.0
C588 C 0.24283 0.24249 0.39431 0.0
C589 C 0.23672 0.22216 0.37483 0.0
C590 C 0.30199 0.11656 0.31866 0.0
C591 C 0.26834 0.07704 0.317 0.0
C592 C 0.29648 0.14923 0.31658 0.0
C593 C 0.25748 0.14264 0.31228 0.0
C594 C 0.22433 0.10324 0.30979 0.0
C595 C 0.22966 0.0708 0.31219 0.0
C596 C 0.24967 0.17598 0.31234 0.0
C597 C 0.25575 0.19705 0.33161 0.0
C598 C 0.2298 0.18209 0.29486 0.0
C599 C 0.22529 0.16257 0.27366 0.0
C600 C 0.18689 0.14091 0.26352 0.0
C601 C 0.18273 0.12215 0.24372 0.0
C602 C 0.21676 0.12488 0.23383 0.0
C603 C 0.25506 0.14649 0.24371 0.0
C604 C 0.2594 0.16535 0.2635 0.0
H605 H 0.21345 0.11028 0.21852 0.0
H606 H 0.26349 0.29958 0.40948 0.0
H607 H 0.90908 0.26392 0.35265 0.0
H608 H 0.84988 0.19806 0.34265 0.0
H609 H 0.92201 0.18588 0.2935 0.0
H610 H 0.98057 0.25107 0.30345 0.0
H611 H 0.84043 0.14263 0.28325 0.0
H612 H 0.93189 0.16335 0.3439 0.0
H613 H 0.96448 0.19457 0.37857 0.0
H614 H 0.84641 0.14541 0.4077 0.0
H615 H 0.81317 0.11442 0.37305 0.0
H616 H 0.82475 0.94714 0.32589 0.0
H617 H 0.8535 0.0196 0.32453 0.0
H618 H 0.7407 0.00011 0.29771 0.0
H619 H 0.71217 0.92764 0.29838 0.0
H620 H 0.82817 0.05936 0.3466 0.0
H621 H 0.7617 0.08553 0.26954 0.0
H622 H 0.73825 0.05623 0.23335 0.0
H623 H 0.81927 0.01129 0.23486 0.0
H624 H 0.84351 0.04072 0.27092 0.0
C625 C 0.91142 0.24783 0.33908 0.0
C626 C 0.94907 0.26176 0.32895 0.0
C627 C 0.87775 0.21038 0.33337 0.0
C628 C 0.88191 0.18692 0.3176 0.0
C629 C 0.91814 0.20346 0.30569 0.0
C630 C 0.95166 0.24052 0.31149 0.0
C631 C 0.85391 0.14289 0.31694 0.0
C632 C 0.8368 0.12422 0.29717 0.0
C633 C 0.85026 0.11908 0.335 0.0
C634 C 0.8701 0.13701 0.35589 0.0
C635 C 0.91293 0.15938 0.35769 0.0
C636 C 0.9315 0.17703 0.37732 0.0
C637 C 0.90753 0.17206 0.39532 0.0
C638 C 0.86493 0.14932 0.39373 0.0
C639 C 0.84621 0.13173 0.37411 0.0
C640 C 0.80636 0.9583 0.31931 0.0
C641 C 0.76622 0.93171 0.31229 0.0
C642 C 0.8227 -0.00032 0.31865 0.0
C643 C 0.79913 0.01521 0.31115 0.0
C644 C 0.75956 0.98881 0.30337 0.0
C645 C 0.74335 0.94739 0.30375 0.0
C646 C 0.81552 0.05889 0.31272 0.0
C647 C 0.83036 0.07741 0.33276 0.0
C648 C 0.81803 0.08245 0.29475 0.0
C649 C 0.80398 0.06487 0.27302 0.0
C650 C 0.77453 0.06945 0.26211 0.0
C651 C 0.76111 0.05282 0.24163 0.0
C652 C 0.77714 0.03177 0.23185 0.0
C653 C 0.80674 0.02744 0.2425 0.0
C654 C 0.82028 0.04403 0.26297 0.0
H655 H 0.7667 0.01891 0.216 0.0
H656 H 0.92196 0.18576 0.4105 0.0
H657 H 0.26666 0.82499 0.38368 0.0
H658 H 0.22918 0.7555 0.39673 0.0
H659 H 0.17393 0.71476 0.33416 0.0
H660 H 0.21128 0.78364 0.32087 0.0
H661 H 0.11752 0.68868 0.36929 0.0
H662 H 0.24312 0.69569 0.34782 0.0
H663 H 0.31747 0.72358 0.34861 0.0
H664 H 0.31236 0.70334 0.41679 0.0
H665 H 0.23794 0.67551 0.41641 0.0
H666 H 0.04556 0.48539 0.35214 0.0
H667 H 0.06826 0.55604 0.35608 0.0
H668 H 0.1225 0.55909 0.41756 0.0
H669 H 0.10094 0.48849 0.41334 0.0
H670 H 0.17809 0.60899 0.39198 0.0
H671 H 0.04925 0.58653 0.41153 0.0
H672 H 0.97499 0.55865 0.41104 0.0
H673 H 0.98424 0.60838 0.34812 0.0
H674 H 0.05841 0.6359 0.348 0.0
C675 C 0.24715 0.80115 0.37257 0.0
C676 C 0.24179 0.80989 0.35126 0.0
C677 C 0.22567 0.76157 0.3801 0.0
C678 C 0.19849 0.73034 0.36644 0.0
C679 C 0.1945 0.73869 0.34495 0.0
C680 C 0.21619 0.77806 0.33736 0.0
C681 C 0.17306 0.68888 0.37451 0.0
C682 C 0.13046 0.67092 0.3742 0.0
C683 C 0.19037 0.6668 0.38184 0.0
C684 C 0.23512 0.68402 0.38213 0.0
C685 C 0.25793 0.69757 0.36301 0.0
C686 C 0.30003 0.71323 0.36337 0.0
C687 C 0.3196 0.7153 0.38274 0.0
C688 C 0.29714 0.70178 0.40181 0.0
C689 C 0.255 0.68599 0.40152 0.0
C690 C 0.06086 0.5006 0.36691 0.0
C691 C 0.07234 0.48172 0.38219 0.0
C692 C 0.07371 0.54112 0.36921 0.0
C693 C 0.09751 0.56308 0.38703 0.0
C694 C 0.10453 0.54284 0.40358 0.0
C695 C 0.09218 0.50249 0.40114 0.0
C696 C 0.12183 0.60758 0.38604 0.0
C697 C 0.16455 0.6265 0.38767 0.0
C698 C 0.10445 0.63049 0.38 0.0
C699 C 0.05954 0.61312 0.37972 0.0
C700 C 0.03545 0.59116 0.39747 0.0
C701 C 0.99333 0.57548 0.39732 0.0
C702 C 0.9749 0.58169 0.37955 0.0
C703 C -0.00146 0.60355 0.36187 0.0
C704 C 0.04066 0.61924 0.36192 0.0
H705 H 0.94231 0.56961 0.37949 0.0
H706 H 0.35212 0.72717 0.38296 0.0
H707 H 0.23842 0.46791 0.4042 0.0
H708 H 0.31175 0.5012 0.41177 0.0
H709 H 0.33374 0.48363 0.3458 0.0
H710 H 0.26103 0.45052 0.33806 0.0
H711 H 0.37646 0.46498 0.3754 0.0
H712 H 0.34854 0.57149 0.36049 0.0
H713 H 0.31446 0.6094 0.3671 0.0
H714 H 0.36069 0.63396 0.43182 0.0
H715 H 0.39467 0.59578 0.42566 0.0
H716 H 0.56617 0.6174 0.33686 0.0
H717 H 0.49896 0.56244 0.34789 0.0
H718 H 0.51651 0.61645 0.4107 0.0
H719 H 0.58309 0.67229 0.39937 0.0
H720 H 0.4534 0.61034 0.39297 0.0
H721 H 0.49644 0.51826 0.40402 0.0
H722 H 0.53166 0.48175 0.39676 0.0
H723 H 0.45902 0.43012 0.33987 0.0
H724 H 0.42377 0.46677 0.34657 0.0
C725 C 0.2589 0.47122 0.39131 0.0
C726 C 0.24394 0.45684 0.37049 0.0
C727 C 0.30067 0.49004 0.39569 0.0
C728 C 0.32792 0.49459 0.37935 0.0
C729 C 0.31304 0.48002 0.35866 0.0
C730 C 0.2715 0.4615 0.35422 0.0
C731 C 0.37235 0.51652 0.38318 0.0
C732 C 0.39355 0.49677 0.37929 0.0
C733 C 0.39414 0.5575 0.38902 0.0
C734 C 0.3736 0.5803 0.39273 0.0
C735 C 0.3511 0.58466 0.37619 0.0
C736 C 0.33189 0.60626 0.37984 0.0
C737 C 0.33526 0.6239 0.3999 0.0
C738 C 0.358 0.62015 0.41632 0.0
C739 C 0.37724 0.59855 0.41276 0.0
C740 C 0.5563 0.6167 0.35327 0.0
C741 C 0.57928 0.64927 0.36716 0.0
C742 C 0.51792 0.58514 0.35964 0.0
C743 C 0.50255 0.58542 0.38012 0.0
C744 C 0.52762 0.61579 0.39478 0.0
C745 C 0.56559 0.64764 0.3883 0.0
C746 C 0.45826 0.5593 0.38444 0.0
C747 C 0.43678 0.57826 0.38981 0.0
C748 C 0.43639 0.51762 0.37996 0.0
C749 C 0.45753 0.49545 0.37578 0.0
C750 C 0.48815 0.49936 0.38987 0.0
C751 C 0.5081 0.47858 0.38587 0.0
C752 C 0.49761 0.45366 0.36786 0.0
C753 C 0.4671 0.44941 0.35382 0.0
C754 C 0.44706 0.47013 0.35774 0.0
H755 H 0.5131 0.4376 0.36479 0.0
H756 H 0.32031 0.64052 0.40271 0.0
H757 H 0.42298 0.00313 0.37934 0.0
H758 H 0.47764 0.98898 0.38293 0.0
H759 H 0.48604 0.98684 0.31371 0.0
H760 H 0.43256 0.00259 0.31017 0.0
H761 H 0.46041 0.9189 0.37089 0.0
H762 H 0.57103 0.98936 0.29766 0.0
H763 H 0.60948 0.05446 0.27883 0.0
H764 H 0.60723 0.11552 0.33576 0.0
H765 H 0.56932 0.0509 0.35505 0.0
H766 H 0.58025 0.84076 0.30991 0.0
H767 H 0.55096 0.88283 0.31348 0.0
H768 H 0.56383 0.88329 0.3825 0.0
H769 H 0.593 0.84077 0.37914 0.0
H770 H 0.58684 0.9587 0.3301 0.0
H771 H 0.48573 0.89064 0.40478 0.0
H772 H 0.44758 0.82591 0.42406 0.0
H773 H 0.43117 0.76234 0.36491 0.0
H774 H 0.46879 0.82666 0.34525 0.0
C775 C 0.43811 0.00179 0.36494 0.0
C776 C 0.42355 0.00369 0.34449 0.0
C777 C 0.4691 0.99338 0.36699 0.0
C778 C 0.48556 0.98619 0.34862 0.0
C779 C 0.47421 0.99264 0.32816 0.0
C780 C 0.44364 0.00178 0.32611 0.0
C781 C 0.50772 0.96452 0.3507 0.0
C782 C 0.48869 0.9283 0.36241 0.0
C783 C 0.54401 0.97605 0.33923 0.0
C784 C 0.567 0.01515 0.32776 0.0
C785 C 0.57889 0.01667 0.30621 0.0
C786 C 0.60057 0.05351 0.29544 0.0
C787 C 0.6107 0.08909 0.30608 0.0
C788 C 0.59923 0.08792 0.32752 0.0
C789 C 0.57757 0.05117 0.33836 0.0
C790 C 0.57641 0.8493 0.32591 0.0
C791 C 0.589 0.83734 0.34426 0.0
C792 C 0.55995 0.87364 0.32788 0.0
C793 C 0.55547 0.88637 0.34822 0.0
C794 C 0.56688 0.87363 0.36665 0.0
C795 C 0.58339 0.84919 0.36469 0.0
C796 C 0.53904 0.91317 0.34993 0.0
C797 C 0.55905 0.95005 0.3389 0.0
C798 C 0.50371 0.90241 0.36207 0.0
C799 C 0.48056 0.86348 0.37362 0.0
C800 C 0.47391 0.86283 0.39589 0.0
C801 C 0.4524 0.82623 0.40689 0.0
C802 C 0.4372 0.79006 0.39574 0.0
C803 C 0.44321 0.7904 0.37355 0.0
C804 C 0.46467 0.82692 0.36248 0.0
H805 H 0.42064 0.76176 0.4043 0.0
H806 H 0.62748 0.11757 0.29771 0.0
H807 H 0.77625 0.12972 0.65273 0.0
H808 H 0.70265 0.09033 0.64583 0.0
H809 H 0.68814 0.17764 0.68073 0.0
H810 H 0.76116 0.21649 0.68817 0.0
H811 H 0.62938 0.10433 0.69109 0.0
H812 H 0.69283 0.17826 0.62565 0.0
H813 H 0.73951 0.19844 0.59463 0.0
H814 H 0.67848 0.07582 0.57319 0.0
H815 H 0.63172 0.05486 0.60427 0.0
H816 H 0.48057 0.1253 0.62789 0.0
H817 H 0.54468 0.12659 0.62722 0.0
H818 H 0.48786 0.01372 0.66144 0.0
H819 H 0.42303 0.01221 0.66201 0.0
H820 H 0.57844 0.08232 0.61582 0.0
H821 H 0.5512 0.02983 0.70344 0.0
H822 H 0.50839 0.02421 0.73451 0.0
H823 H 0.50265 0.12481 0.71103 0.0
H824 H 0.5454 0.13097 0.68 0.0
C825 C 0.75732 0.1404 0.65903 0.0
C826 C 0.77455 0.17627 0.67099 0.0
C827 C 0.71531 0.11786 0.65505 0.0
C828 C 0.68999 0.13114 0.66271 0.0
C829 C 0.70709 0.16668 0.67482 0.0
C830 C 0.74891 0.18898 0.67897 0.0
C831 C 0.64583 0.10926 0.65759 0.0
C832 C 0.61816 0.09871 0.67464 0.0
C833 C 0.63124 0.10236 0.63612 0.0
C834 C 0.65917 0.11492 0.61741 0.0
C835 C 0.68958 0.15557 0.61441 0.0
C836 C 0.71601 0.16715 0.5968 0.0
C837 C 0.71207 0.13841 0.58199 0.0
C838 C 0.68157 0.09803 0.58471 0.0
C839 C 0.6551 0.08628 0.60231 0.0
C840 C 0.48139 0.10008 0.63463 0.0
C841 C 0.44721 0.06893 0.64525 0.0
C842 C 0.51795 0.1007 0.63411 0.0
C843 C 0.52109 0.0705 0.6445 0.0
C844 C 0.48595 0.03735 0.65339 0.0
C845 C 0.44902 0.03647 0.65367 0.0
C846 C 0.56232 0.07819 0.64932 0.0
C847 C 0.58945 0.08615 0.63227 0.0
C848 C 0.57685 0.08425 0.67076 0.0
C849 C 0.55091 0.08043 0.68931 0.0
C850 C 0.54066 0.05062 0.70494 0.0
C851 C 0.51641 0.04735 0.72253 0.0
C852 C 0.50257 0.07398 0.7247 0.0
C853 C 0.51306 0.10399 0.70931 0.0
C854 C 0.53723 0.10734 0.6917 0.0
H855 H 0.48387 0.07145 0.73834 0.0
H856 H 0.73256 0.14743 0.56837 0.0
H857 H 0.88624 0.37761 0.69702 0.0
H858 H 0.86464 0.42251 0.68399 0.0
H859 H 0.93951 0.4489 0.62749 0.0
H860 H 0.96156 0.4035 0.6405 0.0
H861 H 0.9348 0.51752 0.64802 0.0
H862 H 0.8515 0.38617 0.6178 0.0
H863 H 0.81248 0.31208 0.61894 0.0
H864 H 0.73045 0.31342 0.66531 0.0
H865 H 0.76939 0.38757 0.66473 0.0
H866 H 0.80779 0.59208 0.61134 0.0
H867 H 0.84031 0.55218 0.60823 0.0
H868 H 0.78638 0.49409 0.66862 0.0
H869 H 0.75484 0.53439 0.67207 0.0
H870 H 0.78494 0.44165 0.63529 0.0
H871 H 0.87568 0.56973 0.67111 0.0
H872 H 0.91565 0.6438 0.67288 0.0
H873 H 0.98368 0.64829 0.61706 0.0
H874 H 0.94358 0.57417 0.61478 0.0
C875 C 0.89885 0.39353 0.68202 0.0
C876 C 0.9251 0.38659 0.6696 0.0
C877 C 0.88648 0.41918 0.67462 0.0
C878 C 0.89993 0.43826 0.65464 0.0
C879 C 0.92875 0.43415 0.64293 0.0
C880 C 0.94133 0.40835 0.65039 0.0
C881 C 0.88022 0.45894 0.64552 0.0
C882 C 0.90231 0.50101 0.64454 0.0
C883 C 0.83773 0.43717 0.64125 0.0
C884 C 0.81351 0.39249 0.64128 0.0
C885 C 0.82527 0.37068 0.62833 0.0
C886 C 0.80316 0.32866 0.62887 0.0
C887 C 0.76904 0.30804 0.64221 0.0
C888 C 0.75688 0.32942 0.65498 0.0
C889 C 0.77892 0.37146 0.65452 0.0
C890 C 0.80218 0.57009 0.62366 0.0
C891 C 0.779 0.56628 0.64198 0.0
C892 C 0.82086 0.54755 0.62191 0.0
C893 C 0.8158 0.52046 0.63826 0.0
C894 C 0.79052 0.51483 0.65584 0.0
C895 C 0.77263 0.53788 0.65782 0.0
C896 C 0.83929 0.50025 0.63833 0.0
C897 C 0.81774 0.45817 0.63781 0.0
C898 C 0.8822 0.52203 0.64121 0.0
C899 C 0.90625 0.5665 0.64258 0.0
C900 C 0.89885 0.58654 0.65908 0.0
C901 C 0.92159 0.62851 0.66021 0.0
C902 C 0.95208 0.65075 0.64504 0.0
C903 C 0.95996 0.63103 0.62875 0.0
C904 C 0.93724 0.58905 0.62753 0.0
H905 H 0.96969 0.68324 0.64595 0.0
H906 H 0.752 0.27551 0.64264 0.0
H907 H 0.61618 0.57459 0.59734 0.0
H908 H 0.55973 0.50641 0.59003 0.0
H909 H 0.52055 0.49494 0.65609 0.0
H910 H 0.57621 0.56351 0.66328 0.0
H911 H 0.5644 0.44983 0.60888 0.0
H912 H 0.42665 0.41635 0.66315 0.0
H913 H 0.38537 0.446 0.67206 0.0
H914 H 0.4194 0.51047 0.61216 0.0
H915 H 0.46008 0.4804 0.60266 0.0
H916 H 0.47029 0.25993 0.65753 0.0
H917 H 0.50241 0.33134 0.64904 0.0
H918 H 0.40201 0.30527 0.60689 0.0
H919 H 0.36944 0.23392 0.61537 0.0
H920 H 0.42049 0.36751 0.63297 0.0
H921 H 0.49191 0.3305 0.58528 0.0
H922 H 0.5308 0.29927 0.57436 0.0
H923 H 0.62787 0.37681 0.61755 0.0
H924 H 0.5893 0.40812 0.62897 0.0
C925 C 0.59444 0.5581 0.61004 0.0
C926 C 0.60088 0.57394 0.63096 0.0
C927 C 0.56223 0.51915 0.60585 0.0
C928 C 0.53628 0.49536 0.62257 0.0
C929 C 0.53992 0.51279 0.64287 0.0
C930 C 0.57186 0.55204 0.647 0.0
C931 C 0.51194 0.45107 0.62019 0.0
C932 C 0.53275 0.43191 0.61393 0.0
C933 C 0.47059 0.4276 0.62656 0.0
C934 C 0.44642 0.44606 0.6322 0.0
C935 C 0.42501 0.43652 0.65178 0.0
C936 C 0.40178 0.45348 0.65696 0.0
C937 C 0.3998 0.48014 0.64269 0.0
C938 C 0.42102 0.48987 0.62321 0.0
C939 C 0.4442 0.47289 0.61793 0.0
C940 C 0.45523 0.26929 0.64628 0.0
C941 C 0.41737 0.24117 0.6371 0.0
C942 C 0.47363 0.31009 0.64143 0.0
C943 C 0.45464 0.32346 0.62723 0.0
C944 C 0.41711 0.2955 0.61788 0.0
C945 C 0.39871 0.25471 0.62268 0.0
C946 C 0.47366 0.36684 0.62268 0.0
C947 C 0.45192 0.38564 0.62767 0.0
C948 C 0.5141 0.39009 0.61497 0.0
C949 C 0.53757 0.3715 0.60807 0.0
C950 C 0.52142 0.34071 0.59256 0.0
C951 C 0.54343 0.32302 0.58627 0.0
C952 C 0.58175 0.33601 0.59528 0.0
C953 C 0.59818 0.36678 0.61058 0.0
C954 C 0.57628 0.38455 0.61695 0.0
H955 H 0.59874 0.32226 0.59039 0.0
H956 H 0.38182 0.49327 0.64673 0.0
H957 H 0.76639 0.83064 0.64652 0.0
H958 H 0.7892 0.8961 0.66249 0.0
H959 H 0.72601 0.83865 0.7213 0.0
H960 H 0.70273 0.77243 0.70522 0.0
H961 H 0.73516 0.92341 0.70145 0.0
H962 H 0.80453 0.85988 0.73154 0.0
H963 H 0.83329 0.81639 0.72862 0.0
H964 H 0.91681 0.89409 0.68009 0.0
H965 H 0.88806 0.93772 0.68246 0.0
H966 H 0.88203 0.12295 0.73574 0.0
H967 H 0.84579 0.04992 0.74142 0.0
H968 H 0.88744 0.03557 0.67957 0.0
H969 H 0.92242 0.10813 0.67354 0.0
H970 H 0.88353 0.98148 0.7141 0.0
H971 H 0.80499 0.03148 0.67738 0.0
H972 H 0.77598 0.07484 0.67555 0.0
H973 H 0.71035 0.02309 0.73428 0.0
H974 H 0.73958 0.9798 0.73659 0.0
C975 C 0.75587 0.83188 0.66251 0.0
C976 C 0.7331 0.79676 0.67473 0.0
C977 C 0.76896 0.8692 0.67162 0.0
C978 C 0.75971 0.87192 0.6931 0.0
C979 C 0.7333 0.83686 0.70466 0.0
C980 C 0.71989 0.79919 0.69544 0.0
C981 C 0.7836 0.91118 0.70384 0.0
C982 C 0.76721 0.93582 0.70514 0.0
C983 C 0.82558 0.92728 0.70813 0.0
C984 C 0.8439 0.90188 0.70708 0.0
C985 C 0.82882 0.86754 0.72013 0.0
C986 C 0.84511 0.84286 0.71857 0.0
C987 C 0.87665 0.85234 0.70408 0.0
C988 C 0.89222 0.8867 0.69123 0.0
C989 C 0.876 0.91147 0.69272 0.0
C990 C 0.8845 0.10423 0.72373 0.0
C991 C 0.9046 0.12076 0.70414 0.0
C992 C 0.86379 0.06268 0.72697 0.0
C993 C 0.86391 0.03762 0.71085 0.0
C994 C 0.88723 0.0546 0.6922 0.0
C995 C 0.90702 0.09589 0.68873 0.0
C996 C 0.83518 0.99382 0.71155 0.0
C997 C 0.85097 0.96858 0.71188 0.0
C998 C 0.79269 0.9772 0.70876 0.0
C999 C 0.77485 0.00286 0.70732 0.0
C1000 C 0.78466 0.02963 0.69 0.0
C1001 C 0.76814 0.05414 0.68885 0.0
C1002 C 0.74143 0.05185 0.70482 0.0
C1003 C 0.73112 0.02492 0.72195 0.0
C1004 C 0.74766 0.0004 0.72319 0.0
H1005 H 0.72865 0.07084 0.70389 0.0
H1006 H 0.88925 0.83323 0.70292 0.0
H1007 H 0.88636 0.70428 0.7052 0.0
H1008 H 0.95749 0.74045 0.71741 0.0
H1009 H 0.98256 0.84149 0.67752 0.0
H1010 H 0.91179 0.80611 0.66552 0.0
H1011 H 0.02724 0.76798 0.69588 0.0
H1012 H 0.04669 0.9268 0.70052 0.0
H1013 H 0.00557 0.9558 0.71119 0.0
H1014 H 0.93154 0.85374 0.75165 0.0
H1015 H 0.97249 0.82431 0.74145 0.0
H1016 H 0.21592 0.92839 0.66426 0.0
H1017 H 0.14875 0.87148 0.67329 0.0
H1018 H 0.15818 0.92082 0.73673 0.0
H1019 H 0.22474 0.97901 0.72728 0.0
H1020 H 0.09412 0.90971 0.72003 0.0
H1021 H 0.14493 0.82418 0.72805 0.0
H1022 H 0.18492 0.79264 0.72037 0.0
H1023 H 0.1185 0.74412 0.66142 0.0
H1024 H 0.07853 0.77587 0.66853 0.0
C1025 C 0.90699 0.73431 0.69912 0.0
C1026 C 0.89337 0.75241 0.68445 0.0
C1027 C 0.94758 0.75484 0.7061 0.0
C1028 C 0.97504 0.7938 0.69862 0.0
C1029 C 0.9616 0.81172 0.68384 0.0
C1030 C 0.92116 0.79134 0.67689 0.0
C1031 C 0.01827 0.81581 0.70552 0.0
C1032 C 0.04204 0.79884 0.70141 0.0
C1033 C 0.03703 0.85537 0.71366 0.0
C1034 C 0.01272 0.87333 0.72018 0.0
C1035 C 0.02189 0.91069 0.71184 0.0
C1036 C -0.00144 0.92718 0.71779 0.0
C1037 C 0.96609 0.9067 0.73215 0.0
C1038 C 0.95679 0.86963 0.74057 0.0
C1039 C 0.97999 0.85299 0.73467 0.0
C1040 C 0.20427 0.92646 0.68037 0.0
C1041 C 0.22517 0.95834 0.69496 0.0
C1042 C 0.16586 0.89368 0.68561 0.0
C1043 C 0.14821 0.89174 0.70573 0.0
C1044 C 0.17097 0.92176 0.72106 0.0
C1045 C 0.20899 0.95497 0.71565 0.0
C1046 C 0.10391 0.86287 0.70908 0.0
C1047 C 0.07967 0.87853 0.71513 0.0
C1048 C 0.08478 0.82181 0.70329 0.0
C1049 C 0.10875 0.80257 0.69883 0.0
C1050 C 0.13901 0.80702 0.71337 0.0
C1051 C 0.16166 0.78906 0.70913 0.0
C1052 C 0.15427 0.76641 0.69042 0.0
C1053 C 0.12417 0.76164 0.67592 0.0
C1054 C 0.10143 0.77956 0.68008 0.0
H1055 H 0.17185 0.75254 0.68716 0.0
H1056 H 0.94799 0.91946 0.73668 0.0
H1057 H 0.24921 0.17655 0.64707 0.0
H1058 H 0.22388 0.22062 0.65558 0.0
H1059 H 0.20864 0.1832 0.72201 0.0
H1060 H 0.23416 0.13882 0.7137 0.0
H1061 H 0.14273 0.18426 0.70555 0.0
H1062 H 0.28539 0.27185 0.71045 0.0
H1063 H 0.35696 0.30234 0.69897 0.0
H1064 H 0.33347 0.35323 0.64357 0.0
H1065 H 0.26133 0.32228 0.65447 0.0
H1066 H 0.0803 0.31185 0.73198 0.0
H1067 H 0.13649 0.29969 0.73327 0.0
H1068 H 0.14973 0.31404 0.66439 0.0
H1069 H 0.09394 0.32701 0.66305 0.0
H1070 H 0.2237 0.32977 0.68754 0.0
H1071 H 0.07778 0.22753 0.67991 0.0
H1072 H 0.00571 0.19365 0.6912 0.0
H1073 H 0.03784 0.17002 0.75339 0.0
H1074 H 0.11026 0.20421 0.74248 0.0
C1075 C 0.24012 0.17727 0.66348 0.0
C1076 C 0.24378 0.15418 0.67974 0.0
C1077 C 0.22607 0.20284 0.66833 0.0
C1078 C 0.2153 0.20573 0.68948 0.0
C1079 C 0.21731 0.18163 0.70562 0.0
C1080 C 0.23169 0.15619 0.70082 0.0
C1081 C 0.20067 0.23311 0.69443 0.0
C1082 C 0.16079 0.21623 0.7021 0.0
C1083 C 0.22423 0.27472 0.68965 0.0
C1084 C 0.26777 0.29436 0.68318 0.0
C1085 C 0.29534 0.28928 0.69573 0.0
C1086 C 0.33601 0.30664 0.68933 0.0
C1087 C 0.34966 0.32951 0.67051 0.0
C1088 C 0.32275 0.33536 0.65812 0.0
C1089 C 0.28194 0.31793 0.66441 0.0
C1090 C 0.09672 0.31465 0.71728 0.0
C1091 C 0.08235 0.31943 0.69736 0.0
C1092 C 0.12881 0.30772 0.71804 0.0
C1093 C 0.14629 0.30485 0.69886 0.0
C1094 C 0.13637 0.31595 0.67934 0.0
C1095 C 0.10449 0.32339 0.67859 0.0
C1096 C 0.16569 0.28066 0.69843 0.0
C1097 C 0.20617 0.298 0.69145 0.0
C1098 C 0.14286 0.23934 0.70395 0.0
C1099 C 0.09939 0.2188 0.71049 0.0
C1100 C 0.06948 0.21537 0.69604 0.0
C1101 C 0.02857 0.19607 0.70236 0.0
C1102 C 0.01721 0.17979 0.72304 0.0
C1103 C 0.04671 0.18272 0.7374 0.0
C1104 C 0.08767 0.20203 0.73116 0.0
H1105 H 0.98555 0.16479 0.72793 0.0
H1106 H 0.3811 0.34266 0.66559 0.0
H1107 H 0.03572 0.42108 0.28298 0.0
H1108 H 0.02892 0.43449 0.24534 0.0
H1109 H 0.14329 0.44376 0.23068 0.0
H1110 H 0.15059 0.43044 0.26843 0.0
H1111 H 0.1314 0.50106 0.20878 0.0
H1112 H 0.06074 0.35829 0.22182 0.0
H1113 H 0.01256 0.29587 0.2411 0.0
H1114 H 0.91362 0.31285 0.22522 0.0
H1115 H 0.96137 0.37576 0.20613 0.0
H1116 H 0.10157 0.46261 0.09625 0.0
H1117 H 0.11568 0.4633 0.13463 0.0
H1118 H 0.994 0.43606 0.14941 0.0
H1119 H 0.97925 0.43425 0.11105 0.0
H1120 H 0.01077 0.38947 0.17165 0.0
H1121 H 0.08001 0.53097 0.15767 0.0
H1122 H 0.12775 0.59425 0.13895 0.0
H1123 H 0.22836 0.58103 0.15662 0.0
H1124 H 0.18113 0.51735 0.1752 0.0
C1125 C 0.05979 0.42649 0.27187 0.0
C1126 C 0.09346 0.42413 0.27868 0.0
C1127 C 0.0558 0.43415 0.25036 0.0
C1128 C 0.08532 0.43953 0.23526 0.0
C1129 C 0.12015 0.43957 0.24215 0.0
C1130 C 0.12416 0.4318 0.2637 0.0
C1131 C 0.07807 0.44183 0.21207 0.0
C1132 C 0.10532 0.47659 0.20053 0.0
C1133 C 0.04356 0.4101 0.20155 0.0
C1134 C 0.01469 0.37194 0.21273 0.0
C1135 C 0.02876 0.34887 0.22257 0.0
C1136 C 0.00152 0.31338 0.23345 0.0
C1137 C 0.96007 0.30046 0.23444 0.0
C1138 C 0.94575 0.32293 0.22447 0.0
C1139 C 0.97288 0.35849 0.21361 0.0
C1140 C 0.07788 0.45703 0.10766 0.0
C1141 C 0.03924 0.44829 0.10058 0.0
C1142 C 0.08608 0.45765 0.12962 0.0
C1143 C 0.05604 0.45017 0.14491 0.0
C1144 C 0.01763 0.44192 0.13789 0.0
C1145 C 0.00927 0.44093 0.11595 0.0
C1146 C 0.0639 0.44897 0.16819 0.0
C1147 C 0.03681 0.41419 0.1798 0.0
C1148 C 0.09845 0.48079 0.17874 0.0
C1149 C 0.12696 0.51918 0.16766 0.0
C1150 C 0.11227 0.54139 0.15743 0.0
C1151 C 0.13925 0.57736 0.14686 0.0
C1152 C 0.18105 0.5916 0.14655 0.0
C1153 C 0.19597 0.56994 0.15685 0.0
C1154 C 0.16911 0.53393 0.16742 0.0
H1155 H 0.20188 0.61945 0.13836 0.0
H1156 H 0.93904 0.27299 0.24288 0.0
H1157 H 0.62361 0.77079 0.2479 0.0
H1158 H 0.60883 0.74738 0.21064 0.0
H1159 H 0.63486 0.65491 0.22544 0.0
H1160 H 0.64981 0.6781 0.26273 0.0
H1161 H 0.67502 0.698 0.18948 0.0
H1162 H 0.53829 0.63007 0.21713 0.0
H1163 H 0.47913 0.62482 0.23586 0.0
H1164 H 0.47516 0.70491 0.18979 0.0
H1165 H 0.5347 0.71109 0.17095 0.0
H1166 H 0.61414 0.59629 0.09055 0.0
H1167 H 0.61682 0.61075 0.12891 0.0
H1168 H 0.58246 0.69779 0.11556 0.0
H1169 H 0.57866 0.68273 0.0771 0.0
H1170 H 0.54527 0.6563 0.1511 0.0
H1171 H 0.68255 0.72684 0.12427 0.0
H1172 H 0.74249 0.73403 0.10543 0.0
H1173 H 0.7468 0.652 0.14997 0.0
H1174 H 0.68649 0.64387 0.1689 0.0
C1175 C 0.62589 0.74526 0.24331 0.0
C1176 C 0.638 0.72639 0.25833 0.0
C1177 C 0.61725 0.73182 0.22201 0.0
C1178 C 0.62055 0.69928 0.21532 0.0
C1179 C 0.6321 0.68006 0.2303 0.0
C1180 C 0.64052 0.6933 0.25163 0.0
C1181 C 0.61397 0.6866 0.19244 0.0
C1182 C 0.64642 0.68825 0.18117 0.0
C1183 C 0.57708 0.67508 0.18148 0.0
C1184 C 0.54121 0.67134 0.19275 0.0
C1185 C 0.52503 0.64684 0.2111 0.0
C1186 C 0.49138 0.64363 0.22171 0.0
C1187 C 0.47346 0.6646 0.21405 0.0
C1188 C 0.4891 0.68873 0.19572 0.0
C1189 C 0.52277 0.69206 0.18506 0.0
C1190 C 0.60685 0.61832 0.09575 0.0
C1191 C 0.59658 0.63866 0.08072 0.0
C1192 C 0.60852 0.62664 0.1177 0.0
C1193 C 0.60066 0.65594 0.12507 0.0
C1194 C 0.58882 0.67518 0.11022 0.0
C1195 C 0.58675 0.66658 0.08823 0.0
C1196 C 0.60629 0.66753 0.14815 0.0
C1197 C 0.57379 0.66586 0.15944 0.0
C1198 C 0.64329 0.67939 0.15913 0.0
C1199 C 0.67975 0.68444 0.14787 0.0
C1200 C 0.6961 0.71011 0.12995 0.0
C1201 C 0.73016 0.71439 0.11927 0.0
C1202 C 0.74837 0.6934 0.12646 0.0
C1203 C 0.73262 0.66819 0.14439 0.0
C1204 C 0.69852 0.66376 0.15512 0.0
H1205 H 0.77473 0.69674 0.11816 0.0
H1206 H 0.44741 0.66207 0.22229 0.0
H1207 H 0.41551 0.9649 0.07939 0.0
H1208 H 0.39798 0.95666 0.11753 0.0
H1209 H 0.29824 0.97468 0.10427 0.0
H1210 H 0.31624 0.98403 0.06612 0.0
H1211 H 0.33773 0.01628 0.13792 0.0
H1212 H 0.28126 0.88061 0.1162 0.0
H1213 H 0.27959 0.82268 0.09919 0.0
H1214 H 0.37335 0.83569 0.14232 0.0
H1215 H 0.37596 0.89404 0.15942 0.0
H1216 H 0.25403 0.89239 0.24436 0.0
H1217 H 0.26427 0.89533 0.20551 0.0
H1218 H 0.37003 0.01502 0.21164 0.0
H1219 H 0.35916 0.01282 0.25049 0.0
H1220 H 0.32076 0.90118 0.18088 0.0
H1221 H 0.38 0.07079 0.16798 0.0
H1222 H 0.37146 0.12373 0.1841 0.0
H1223 H 0.25387 0.03407 0.20852 0.0
H1224 H 0.26145 0.98065 0.1923 0.0
C1225 C 0.38965 0.96684 0.08453 0.0
C1226 C 0.36726 0.97511 0.06968 0.0
C1227 C 0.37957 0.96198 0.10636 0.0
C1228 C 0.34652 0.96465 0.11375 0.0
C1229 C 0.3239 0.97255 0.09894 0.0
C1230 C 0.33417 0.97777 0.07712 0.0
C1231 C 0.33638 0.96037 0.13702 0.0
C1232 C 0.33394 0.99107 0.1473 0.0
C1233 C 0.33047 0.92702 0.14919 0.0
C1234 C 0.32905 0.89194 0.13896 0.0
C1235 C 0.30175 0.87132 0.12195 0.0
C1236 C 0.30059 0.83837 0.11231 0.0
C1237 C 0.32642 0.82558 0.11964 0.0
C1238 C 0.35339 0.84566 0.13665 0.0
C1239 C 0.35469 0.87865 0.14634 0.0
C1240 C 0.27955 0.91934 0.23747 0.0
C1241 C 0.30565 0.95249 0.25052 0.0
C1242 C 0.28539 0.92094 0.21524 0.0
C1243 C 0.31757 0.95558 0.20559 0.0
C1244 C 0.34443 0.98829 0.21865 0.0
C1245 C 0.33831 0.98692 0.24088 0.0
C1246 C 0.32287 0.95747 0.18186 0.0
C1247 C 0.32447 0.92635 0.17149 0.0
C1248 C 0.32656 0.98973 0.16948 0.0
C1249 C 0.32152 0.02171 0.17911 0.0
C1250 C 0.35226 0.06239 0.17672 0.0
C1251 C 0.34759 0.09248 0.18589 0.0
C1252 C 0.31221 0.08226 0.19739 0.0
C1253 C 0.28134 0.04193 0.19968 0.0
C1254 C 0.28583 0.01174 0.19052 0.0
H1255 H 0.30866 0.10559 0.20449 0.0
H1256 H 0.32547 0.80006 0.11216 0.0
H1257 H 0.4728 0.11805 0.91902 0.0
H1258 H 0.4726 0.14027 0.88215 0.0
H1259 H 0.40864 0.01703 0.86063 0.0
H1260 H 0.40787 0.99451 0.89736 0.0
H1261 H 0.49942 0.13353 0.84252 0.0
H1262 H 0.33453 0.00205 0.82644 0.0
H1263 H 0.27201 0.95621 0.84685 0.0
H1264 H 0.30867 0.04434 0.89692 0.0
H1265 H 0.37109 0.09089 0.87668 0.0
H1266 H 0.44381 0.116 0.73098 0.0
H1267 H 0.46256 0.11105 0.76806 0.0
H1268 H 0.37401 0.13849 0.79152 0.0
H1269 H 0.35411 0.1416 0.75454 0.0
H1270 H 0.36166 0.07532 0.81001 0.0
H1271 H 0.4817 0.20422 0.79749 0.0
H1272 H 0.54371 0.25425 0.77809 0.0
H1273 H 0.59586 0.18096 0.78684 0.0
H1274 H 0.53394 0.13025 0.80608 0.0
C1275 C 0.45911 0.09571 0.90639 0.0
C1276 C 0.43976 0.05446 0.91118 0.0
C1277 C 0.45919 0.10849 0.88532 0.0
C1278 C 0.44003 0.08026 0.86874 0.0
C1279 C 0.42296 0.03927 0.87327 0.0
C1280 C 0.42252 0.02646 0.89429 0.0
C1281 C 0.43479 0.09309 0.84712 0.0
C1282 C 0.46936 0.12093 0.83535 0.0
C1283 C 0.3955 0.07727 0.838 0.0
C1284 C 0.35765 0.04978 0.85013 0.0
C1285 C 0.32914 0.0117 0.84176 0.0
C1286 C 0.29374 0.98559 0.8533 0.0
C1287 C 0.28644 -0.00269 0.8732 0.0
C1288 C 0.31443 0.03524 0.88155 0.0
C1289 C 0.34983 0.06149 0.87005 0.0
C1290 C 0.42923 0.12201 0.74408 0.0
C1291 C 0.39754 0.12909 0.73998 0.0
C1292 C 0.43995 0.11922 0.76528 0.0
C1293 C 0.41974 0.12444 0.78266 0.0
C1294 C 0.38983 0.13403 0.77842 0.0
C1295 C 0.37857 0.13595 0.75731 0.0
C1296 C 0.42633 0.11573 0.8051 0.0
C1297 C 0.39186 0.08832 0.81707 0.0
C1298 C 0.46562 0.13271 0.81448 0.0
C1299 C 0.50305 0.16331 0.80309 0.0
C1300 C 0.50629 0.19866 0.79516 0.0
C1301 C 0.54144 0.22716 0.78422 0.0
C1302 C 0.57367 0.22075 0.7812 0.0
C1303 C 0.57086 0.18588 0.78918 0.0
C1304 C 0.53577 0.15728 0.80014 0.0
H1305 H 0.60085 0.24284 0.77271 0.0
H1306 H 0.25906 0.97702 0.88213 0.0
H1307 H 0.9269 0.31145 0.95224 0.0
H1308 H 0.90415 0.28543 0.91578 0.0
H1309 H 0.9674 0.40678 0.89106 0.0
H1310 H 0.98826 0.43282 0.92748 0.0
H1311 H 0.90091 0.36611 0.86993 0.0
H1312 H 0.00917 0.34379 0.89067 0.0
H1313 H 0.04234 0.31695 0.91339 0.0
H1314 H 0.9417 0.19674 0.90256 0.0
H1315 H 0.90775 0.22296 0.87994 0.0
H1316 H 0.97686 0.29922 0.77278 0.0
H1317 H 0.97611 0.31347 0.81074 0.0
H1318 H 0.85053 0.28172 0.80517 0.0
H1319 H 0.85171 0.26894 0.76656 0.0
H1320 H 0.93683 0.26909 0.84257 0.0
H1321 H 0.83194 0.3335 0.84362 0.0
H1322 H 0.80941 0.3687 0.81954 0.0
H1323 H 0.92178 0.41922 0.78428 0.0
H1324 H 0.94512 0.3847 0.8083 0.0
C1325 C 0.93569 0.33249 0.939 0.0
C1326 C 0.95965 0.37412 0.94263 0.0
C1327 C 0.92273 0.31762 0.91819 0.0
C1328 C 0.93461 0.34411 0.9006 0.0
C1329 C 0.95769 0.38571 0.90434 0.0
C1330 C 0.96983 0.40058 0.92516 0.0
C1331 C 0.92527 0.32892 0.87815 0.0
C1332 C 0.90851 0.34468 0.86398 0.0
C1333 C 0.93537 0.30114 0.87029 0.0
C1334 C 0.95573 0.28534 0.88385 0.0
C1335 C 0.99402 0.31166 0.89326 0.0
C1336 C 0.01297 0.29656 0.9061 0.0
C1337 C 0.99408 0.25517 0.90948 0.0
C1338 C 0.95625 0.22879 0.89997 0.0
C1339 C 0.93715 0.24374 0.88713 0.0
C1340 C 0.94904 0.29531 0.77957 0.0
C1341 C 0.91432 0.28296 0.76671 0.0
C1342 C 0.9486 0.30333 0.80134 0.0
C1343 C 0.91329 0.29868 0.81087 0.0
C1344 C 0.87831 0.28604 0.79811 0.0
C1345 C 0.87898 0.27868 0.7761 0.0
C1346 C 0.91402 0.30749 0.83414 0.0
C1347 C 0.92866 0.29009 0.84856 0.0
C1348 C 0.90354 0.33498 0.842 0.0
C1349 C 0.88998 0.3561 0.82757 0.0
C1350 C 0.85183 0.35218 0.83074 0.0
C1351 C 0.83893 0.37201 0.81711 0.0
C1352 C 0.86408 0.39605 0.80034 0.0
C1353 C 0.90226 0.40045 0.79722 0.0
C1354 C 0.91531 0.38073 0.81082 0.0
H1355 H 0.85403 0.41135 0.7898 0.0
H1356 H 0.00879 0.24354 0.91942 0.0
H1357 H 0.65816 0.65897 0.73532 0.0
H1358 H 0.6466 0.65365 0.77411 0.0
H1359 H 0.72072 0.60091 0.78114 0.0
H1360 H 0.73347 0.60726 0.74239 0.0
H1361 H 0.61326 0.59658 0.80247 0.0
H1362 H 0.77453 0.63212 0.82757 0.0
H1363 H 0.84502 0.66907 0.81355 0.0
H1364 H 0.818 0.74572 0.77675 0.0
H1365 H 0.74757 0.7096 0.79078 0.0
H1366 H 0.60827 0.56009 0.91369 0.0
H1367 H 0.62034 0.56058 0.87509 0.0
H1368 H 0.70529 0.68875 0.87742 0.0
H1369 H 0.69442 0.68825 0.91621 0.0
H1370 H 0.73337 0.65716 0.85134 0.0
H1371 H 0.60486 0.64737 0.85995 0.0
H1372 H 0.53485 0.61921 0.87369 0.0
H1373 H 0.49717 0.50691 0.84247 0.0
H1374 H 0.56714 0.53424 0.82879 0.0
C1375 C 0.6717 0.64585 0.74506 0.0
C1376 C 0.69706 0.63388 0.73576 0.0
C1377 C 0.66502 0.6428 0.76727 0.0
C1378 C 0.68337 0.62755 0.78062 0.0
C1379 C 0.70699 0.61364 0.77123 0.0
C1380 C 0.71407 0.61709 0.74905 0.0
C1381 C 0.67889 0.62752 0.80437 0.0
C1382 C 0.63952 0.60969 0.81315 0.0
C1383 C 0.71317 0.64553 0.81833 0.0
C1384 C 0.75566 0.66784 0.81005 0.0
C1385 C 0.78369 0.65695 0.81655 0.0
C1386 C 0.82362 0.67774 0.8086 0.0
C1387 C 0.83593 0.70963 0.79421 0.0
C1388 C 0.80839 0.72092 0.78783 0.0
C1389 C 0.76845 0.70027 0.79576 0.0
C1390 C 0.62976 0.58836 0.90602 0.0
C1391 C 0.65015 0.6242 0.91799 0.0
C1392 C 0.6365 0.58862 0.88392 0.0
C1393 C 0.6631 0.62483 0.87324 0.0
C1394 C 0.68454 0.66045 0.88528 0.0
C1395 C 0.67824 0.66013 0.90746 0.0
C1396 C 0.6677 0.62576 0.84945 0.0
C1397 C 0.70709 0.6438 0.84067 0.0
C1398 C 0.6335 0.6092 0.83544 0.0
C1399 C 0.59132 0.59273 0.84352 0.0
C1400 C 0.58171 0.61658 0.85614 0.0
C1401 C 0.54203 0.60078 0.8639 0.0
C1402 C 0.51161 0.56126 0.859 0.0
C1403 C 0.52078 0.5375 0.84628 0.0
C1404 C 0.56043 0.55313 0.8385 0.0
H1405 H 0.48091 0.54908 0.86503 0.0
H1406 H 0.86684 0.72564 0.78805 0.0
H1407 H 0.68519 0.79277 0.42721 0.0
H1408 H 0.70862 0.791 0.46332 0.0
H1409 H 0.8318 0.84273 0.43985 0.0
H1410 H 0.80829 0.8437 0.40327 0.0
H1411 H 0.81259 0.78029 0.46391 0.0
H1412 H 0.80558 0.89681 0.47335 0.0
H1413 H 0.77621 0.93983 0.47114 0.0
H1414 H 0.67686 0.85784 0.5118 0.0
H1415 H 0.70528 0.814 0.51401 0.0
H1416 H 0.82131 0.79864 0.59085 0.0
H1417 H 0.82927 0.82814 0.55509 0.0
H1418 H 0.76011 0.7094 0.52746 0.0
H1419 H 0.75234 0.67967 0.56301 0.0
H1420 H 0.77107 0.8222 0.52954 0.0
H1421 H 0.79068 0.7093 0.47699 0.0
H1422 H 0.82519 0.67095 0.47941 0.0
H1423 H 0.91023 0.75563 0.52535 0.0
H1424 H 0.87665 0.79483 0.52297 0.0
C1425 C 0.71742 0.80437 0.42968 0.0
C1426 C 0.74482 0.81825 0.41226 0.0
C1427 C 0.73084 0.80357 0.45044 0.0
C1428 C 0.77208 0.81713 0.45439 0.0
C1429 C 0.79985 0.83219 0.43718 0.0
C1430 C 0.78638 0.83285 0.4163 0.0
C1431 C 0.78501 0.81228 0.47617 0.0
C1432 C 0.80392 0.78984 0.47826 0.0
C1433 C 0.77471 0.82563 0.49493 0.0
C1434 C 0.75753 0.85202 0.49377 0.0
C1435 C 0.77734 0.88782 0.48172 0.0
C1436 C 0.76087 0.91237 0.48048 0.0
C1437 C 0.72468 0.90156 0.49131 0.0
C1438 C 0.70491 0.86619 0.50343 0.0
C1439 C 0.72124 0.84152 0.50472 0.0
C1440 C 0.80829 0.77877 0.57713 0.0
C1441 C 0.78605 0.73674 0.57983 0.0
C1442 C 0.81281 0.79572 0.55671 0.0
C1443 C 0.79553 0.77102 0.53858 0.0
C1444 C 0.77428 0.72909 0.54116 0.0
C1445 C 0.76967 0.71212 0.56155 0.0
C1446 C 0.79684 0.78865 0.51719 0.0
C1447 C 0.78052 0.81338 0.5152 0.0
C1448 C 0.8103 0.77812 0.49856 0.0
C1449 C 0.83093 0.75487 0.49989 0.0
C1450 C 0.81688 0.71988 0.48751 0.0
C1451 C 0.83626 0.69796 0.4889 0.0
C1452 C 0.86982 0.71079 0.50256 0.0
C1453 C 0.88415 0.74564 0.51482 0.0
C1454 C 0.86491 0.76769 0.51349 0.0
H1455 H 0.88476 0.69377 0.50361 0.0
H1456 H 0.71197 0.9206 0.49032 0.0
H1457 H 0.31311 0.99426 0.41885 0.0
H1458 H 0.30591 0.00212 0.45714 0.0
H1459 H 0.1773 0.95606 0.44813 0.0
H1460 H 0.18485 0.94979 0.40932 0.0
H1461 H 0.2056 0.01309 0.47631 0.0
H1462 H 0.21107 0.89592 0.46936 0.0
H1463 H 0.23595 0.85261 0.45669 0.0
H1464 H 0.35016 0.92761 0.48919 0.0
H1465 H 0.32623 0.97175 0.50179 0.0
H1466 H 0.25101 0.97559 0.59663 0.0
H1467 H 0.22865 0.95131 0.55988 0.0
H1468 H 0.27341 0.07298 0.53885 0.0
H1469 H 0.29352 0.09682 0.57558 0.0
H1470 H 0.26855 0.96185 0.52671 0.0
H1471 H 0.2298 0.08006 0.49494 0.0
H1472 H 0.19558 0.11467 0.50812 0.0
H1473 H 0.12976 0.02114 0.55468 0.0
H1474 H 0.1631 0.98564 0.54159 0.0
C1475 C 0.28331 0.986 0.42498 0.0
C1476 C 0.24944 0.97103 0.41117 0.0
C1477 C 0.27916 0.99026 0.44691 0.0
C1478 C 0.24081 0.97852 0.45564 0.0
C1479 C 0.20712 0.96494 0.44177 0.0
C1480 C 0.21145 0.96141 0.41964 0.0
C1481 C 0.23648 0.98043 0.47928 0.0
C1482 C 0.21906 0.00166 0.48738 0.0
C1483 C 0.25234 0.96391 0.49381 0.0
C1484 C 0.26688 0.93727 0.48645 0.0
C1485 C 0.24158 0.90331 0.47371 0.0
C1486 C 0.25551 0.8786 0.46654 0.0
C1487 C 0.29463 0.88738 0.47211 0.0
C1488 C 0.31986 0.92085 0.48489 0.0
C1489 C 0.3061 0.94569 0.49209 0.0
C1490 C 0.25546 -0.00302 0.58417 0.0
C1491 C 0.27393 0.03807 0.58896 0.0
C1492 C 0.24269 0.98311 0.56318 0.0
C1493 C 0.24876 0.01016 0.54653 0.0
C1494 C 0.26709 0.0512 0.55141 0.0
C1495 C 0.27897 0.06491 0.57243 0.0
C1496 C 0.23952 0.99637 0.52379 0.0
C1497 C 0.25435 0.97274 0.51579 0.0
C1498 C 0.21971 0.00926 0.50953 0.0
C1499 C 0.19919 0.03029 0.51734 0.0
C1500 C 0.20784 0.06673 0.5079 0.0
C1501 C 0.18864 0.08654 0.51538 0.0
C1502 C 0.16058 0.07016 0.53226 0.0
C1503 C 0.15159 0.03386 0.54165 0.0
C1504 C 0.17068 0.01391 0.53422 0.0
H1505 H 0.14577 0.08556 0.53804 0.0
H1506 H 0.30537 0.86822 0.46653 0.0
H1507 H 0.01381 0.31674 0.60464 0.0
H1508 H 0.02995 0.31532 0.56684 0.0
H1509 H 0.93086 0.19192 0.56209 0.0
H1510 H 0.91419 0.19303 0.59999 0.0
H1511 H 0.05219 0.26787 0.54568 0.0
H1512 H 0.89118 0.18015 0.51 0.0
H1513 H 0.8212 0.16354 0.51842 0.0
H1514 H 0.86953 0.27441 0.55318 0.0
H1515 H 0.9397 0.29187 0.54473 0.0
H1516 H 0.00741 0.24592 0.42059 0.0
H1517 H 0.98516 0.22098 0.4574 0.0
H1518 H 0.07592 0.33704 0.48262 0.0
H1519 H 0.09847 0.36186 0.44636 0.0
H1520 H 0.95369 0.24787 0.48794 0.0
H1521 H 0.11478 0.3286 0.52842 0.0
H1522 H 0.18455 0.34518 0.51973 0.0
H1523 H 0.13632 0.24748 0.47466 0.0
H1524 H 0.06623 0.2299 0.48329 0.0
C1525 C 0.99536 0.28924 0.59561 0.0
C1526 C 0.96258 0.25505 0.60535 0.0
C1527 C 0.00479 0.28844 0.57402 0.0
C1528 C 0.98152 0.25358 0.56166 0.0
C1529 C 0.949 0.21922 0.57132 0.0
C1530 C 0.93958 0.21993 0.59299 0.0
C1531 C 0.99124 0.25396 0.53858 0.0
C1532 C 0.03074 0.26357 0.53303 0.0
C1533 C 0.96264 0.24673 0.52211 0.0
C1534 C 0.92063 0.23701 0.52697 0.0
C1535 C 0.88682 0.201 0.51939 0.0
C1536 C 0.84714 0.19144 0.52417 0.0
C1537 C 0.84093 0.21781 0.53641 0.0
C1538 C 0.87438 0.25392 0.54379 0.0
C1539 C 0.91411 0.26363 0.53903 0.0
C1540 C 0.0229 0.26591 0.43403 0.0
C1541 C 0.05477 0.30587 0.43053 0.0
C1542 C 0.01006 0.25166 0.45501 0.0
C1543 C 0.02926 0.277 0.47274 0.0
C1544 C 0.06119 0.3167 0.46922 0.0
C1545 C 0.07388 0.33093 0.4484 0.0
C1546 C 0.01524 0.26338 0.49505 0.0
C1547 C 0.97492 0.2512 0.50051 0.0
C1548 C 0.04306 0.26808 0.51146 0.0
C1549 C 0.08519 0.27806 0.50644 0.0
C1550 C 0.11901 0.31046 0.51676 0.0
C1551 C 0.15864 0.32008 0.51182 0.0
C1552 C 0.16487 0.29744 0.49663 0.0
C1553 C 0.13147 0.26506 0.48638 0.0
C1554 C 0.09177 0.25529 0.49127 0.0
H1555 H 0.19558 0.30497 0.49281 0.0
H1556 H 0.81019 0.21032 0.54013 0.0
loop_
_geom_bond_atom_site_label_1
_geom_bond_atom_site_label_2
_geom_bond_distance
_geom_bond_site_symmetry_2
_ccdc_geom_bond_type
O0 Zn1 1.987 . S
O0 C16 1.225 1_556 S
Zn1 O0 1.987 . S
Zn1 O2 1.933 1_656 S
Zn1 O8 1.913 . S
Zn1 O13 1.915 1_655 S
O2 Zn1 1.933 1_454 S
O2 Zn3 1.923 1_454 S
O2 Zn4 1.950 1_455 S
O2 Zn5 1.945 . S
Zn3 O2 1.923 1_656 S
Zn3 O6 1.933 1_655 S
Zn3 O9 1.941 . S
Zn3 O10 1.965 1_556 S
Zn4 O2 1.950 1_655 S
Zn4 O11 1.938 . S
Zn4 O12 1.906 . S
Zn4 O22 1.953 . S
Zn5 O2 1.945 . S
Zn5 O7 1.932 . S
Zn5 O14 1.977 . S
Zn5 O15 1.910 . S
O6 Zn3 1.933 1_455 S
O6 C17 1.226 1_556 S
O7 Zn5 1.932 . S
O7 C17 1.307 . S
O8 Zn1 1.913 . S
O8 C19 1.269 . S
O9 Zn3 1.941 . S
O9 C19 1.278 . S
O10 Zn3 1.965 1_554 S
O10 C18 1.303 . S
O11 Zn4 1.938 . S
O11 C18 1.247 . S
O12 Zn4 1.906 . S
O12 C20 1.304 1_655 S
O13 Zn1 1.915 1_455 S
O13 C21 1.311 1_556 S
O14 Zn5 1.977 . S
O14 C20 1.272 . S
O15 Zn5 1.910 . S
O15 C21 1.231 . S
C16 O0 1.225 1_554 S
C16 O22 1.298 . S
C17 O6 1.226 1_554 S
C17 O7 1.307 . S
C18 O10 1.303 . S
C18 O11 1.247 . S
C19 O8 1.269 . S
C19 O9 1.278 . S
C20 O12 1.304 1_455 S
C20 O14 1.272 . S
C21 O13 1.311 1_554 S
C21 O15 1.231 . S
O22 Zn4 1.953 . S
O22 C16 1.298 . S
O23 Zn24 1.953 . S
O23 C39 1.225 1_556 S
Zn24 O23 1.953 . S
Zn24 O25 1.949 1_556 S
Zn24 O31 1.919 . S
Zn24 O36 1.924 . S
O25 Zn24 1.949 1_554 S
O25 Zn26 1.923 1_554 S
O25 Zn27 1.950 . S
O25 Zn28 1.945 . S
Zn26 O25 1.923 1_556 S
Zn26 O29 1.933 . S
Zn26 O32 1.941 . S
Zn26 O33 1.965 1_556 S
Zn27 O25 1.950 . S
Zn27 O34 1.938 . S
Zn27 O35 1.906 . S
Zn27 O45 1.953 . S
Zn28 O25 1.945 . S
Zn28 O30 1.932 . S
Zn28 O37 1.977 . S
Zn28 O38 1.910 . S
O29 Zn26 1.933 . S
O29 C40 1.226 1_556 S
O30 Zn28 1.932 . S
O30 C40 1.307 . S
O31 Zn24 1.919 . S
O31 C42 1.253 . S
O32 Zn26 1.941 . S
O32 C42 1.283 . S
O33 Zn26 1.965 1_554 S
O33 C41 1.303 . S
O34 Zn27 1.938 . S
O34 C41 1.247 . S
O35 Zn27 1.906 . S
O35 C43 1.304 . S
O36 Zn24 1.924 . S
O36 C44 1.311 1_556 S
O37 Zn28 1.977 . S
O37 C43 1.272 . S
O38 Zn28 1.910 . S
O38 C44 1.231 . S
C39 O23 1.225 1_554 S
C39 O45 1.298 . S
C40 O29 1.226 1_554 S
C40 O30 1.307 . S
C41 O33 1.303 . S
C41 O34 1.247 . S
C42 O31 1.253 . S
C42 O32 1.283 . S
C43 O35 1.304 . S
C43 O37 1.272 . S
C44 O36 1.311 1_554 S
C44 O38 1.231 . S
O45 Zn27 1.953 . S
O45 C39 1.298 . S
O46 Zn47 1.953 1_565 S
O46 C62 1.225 . S
Zn47 O46 1.953 1_545 S
Zn47 O48 1.949 . S
Zn47 O54 1.919 . S
Zn47 O59 1.924 . S
O48 Zn47 1.949 . S
O48 Zn49 1.923 . S
O48 Zn50 1.950 1_544 S
O48 Zn51 1.945 1_554 S
Zn49 O48 1.923 . S
Zn49 O52 1.933 . S
Zn49 O55 1.941 . S
Zn49 O56 1.965 1_545 S
Zn50 O48 1.950 1_566 S
Zn50 O57 1.938 . S
Zn50 O58 1.906 1_565 S
Zn50 O68 1.953 . S
Zn51 O48 1.945 1_556 S
Zn51 O53 1.932 . S
Zn51 O60 1.977 . S
Zn51 O61 1.910 . S
O52 Zn49 1.933 . S
O52 C63 1.226 . S
O53 Zn51 1.932 . S
O53 C63 1.307 1_556 S
O54 Zn47 1.919 . S
O54 C65 1.253 . S
O55 Zn49 1.941 . S
O55 C65 1.283 . S
O56 Zn49 1.965 1_565 S
O56 C64 1.303 . S
O57 Zn50 1.938 . S
O57 C64 1.247 1_556 S
O58 Zn50 1.906 1_545 S
O58 C66 1.304 . S
O59 Zn47 1.924 . S
O59 C67 1.311 . S
O60 Zn51 1.977 . S
O60 C66 1.272 . S
O61 Zn51 1.910 . S
O61 C67 1.231 1_556 S
C62 O46 1.225 . S
C62 O68 1.298 1_554 S
C63 O52 1.226 . S
C63 O53 1.307 1_554 S
C64 O56 1.303 . S
C64 O57 1.247 1_554 S
C65 O54 1.253 . S
C65 O55 1.283 . S
C66 O58 1.304 . S
C66 O60 1.272 . S
C67 O59 1.311 . S
C67 O61 1.231 1_554 S
O68 Zn50 1.953 . S
O68 C62 1.298 1_556 S
O69 Zn70 1.953 . S
O69 C85 1.225 . S
Zn70 O69 1.953 . S
Zn70 O71 1.949 . S
Zn70 O77 1.919 . S
Zn70 O82 1.924 . S
O71 Zn70 1.949 . S
O71 Zn72 1.923 . S
O71 Zn73 1.950 . S
O71 Zn74 1.945 . S
Zn72 O71 1.923 . S
Zn72 O75 1.933 . S
Zn72 O78 1.941 . S
Zn72 O79 1.965 . S
Zn73 O71 1.950 . S
Zn73 O80 1.938 . S
Zn73 O81 1.906 . S
Zn73 O91 1.953 . S
Zn74 O71 1.945 . S
Zn74 O76 1.932 . S
Zn74 O83 1.977 . S
Zn74 O84 1.910 . S
O75 Zn72 1.933 . S
O75 C86 1.226 . S
O76 Zn74 1.932 . S
O76 C86 1.307 . S
O77 Zn70 1.919 . S
O77 C88 1.253 . S
O78 Zn72 1.941 . S
O78 C88 1.283 . S
O79 Zn72 1.965 . S
O79 C87 1.303 . S
O80 Zn73 1.938 . S
O80 C87 1.247 . S
O81 Zn73 1.906 . S
O81 C89 1.304 . S
O82 Zn70 1.924 . S
O82 C90 1.311 . S
O83 Zn74 1.977 . S
O83 C89 1.272 . S
O84 Zn74 1.910 . S
O84 C90 1.231 . S
C85 O69 1.225 . S
C85 O91 1.298 . S
C86 O75 1.226 . S
C86 O76 1.307 . S
C87 O79 1.303 . S
C87 O80 1.247 . S
C88 O77 1.253 . S
C88 O78 1.283 . S
C89 O81 1.304 . S
C89 O83 1.272 . S
C90 O82 1.311 . S
C90 O84 1.231 . S
O91 Zn73 1.953 . S
O91 C85 1.298 . S
O92 Zn93 1.953 . S
O92 C108 1.225 . S
Zn93 O92 1.953 . S
Zn93 O94 1.949 . S
Zn93 O100 1.919 . S
Zn93 O105 1.924 . S
O94 Zn93 1.949 . S
O94 Zn95 1.923 . S
O94 Zn96 1.950 . S
O94 Zn97 1.945 . S
Zn95 O94 1.923 . S
Zn95 O98 1.933 1_565 S
Zn95 O101 1.941 . S
Zn95 O102 1.965 . S
Zn96 O94 1.950 . S
Zn96 O103 1.938 . S
Zn96 O104 1.906 . S
Zn96 O114 1.953 . S
Zn97 O94 1.945 . S
Zn97 O99 1.932 1_565 S
Zn97 O106 1.977 . S
Zn97 O107 1.910 . S
O98 Zn95 1.933 1_545 S
O98 C109 1.226 . S
O99 Zn97 1.932 1_545 S
O99 C109 1.307 . S
O100 Zn93 1.919 . S
O100 C111 1.253 . S
O101 Zn95 1.941 . S
O101 C111 1.283 . S
O102 Zn95 1.965 . S
O102 C110 1.303 . S
O103 Zn96 1.938 . S
O103 C110 1.247 . S
O104 Zn96 1.906 . S
O104 C112 1.304 . S
O105 Zn93 1.924 . S
O105 C113 1.311 . S
O106 Zn97 1.977 . S
O106 C112 1.272 . S
O107 Zn97 1.910 . S
O107 C113 1.231 . S
C108 O92 1.225 . S
C108 O114 1.298 . S
C109 O98 1.226 . S
C109 O99 1.307 . S
C110 O102 1.303 . S
C110 O103 1.247 . S
C111 O100 1.253 . S
C111 O101 1.283 . S
C112 O104 1.304 . S
C112 O106 1.272 . S
C113 O105 1.311 . S
C113 O107 1.231 . S
O114 Zn96 1.953 . S
O114 C108 1.298 . S
O115 Zn116 1.953 . S
O115 C131 1.225 . S
Zn116 O115 1.953 . S
Zn116 O117 1.949 . S
Zn116 O123 1.919 . S
Zn116 O128 1.924 . S
O117 Zn116 1.949 . S
O117 Zn118 1.923 . S
O117 Zn119 1.950 . S
O117 Zn120 1.945 . S
Zn118 O117 1.923 . S
Zn118 O121 1.933 . S
Zn118 O124 1.941 . S
Zn118 O125 1.965 . S
Zn119 O117 1.950 . S
Zn119 O126 1.938 . S
Zn119 O127 1.906 . S
Zn119 O137 1.953 . S
Zn120 O117 1.945 . S
Zn120 O122 1.932 . S
Zn120 O129 1.977 . S
Zn120 O130 1.910 . S
O121 Zn118 1.933 . S
O121 C132 1.226 . S
O122 Zn120 1.932 . S
O122 C132 1.307 . S
O123 Zn116 1.919 . S
O123 C134 1.253 . S
O124 Zn118 1.941 . S
O124 C134 1.283 . S
O125 Zn118 1.965 . S
O125 C133 1.303 . S
O126 Zn119 1.938 . S
O126 C133 1.247 . S
O127 Zn119 1.906 . S
O127 C135 1.304 . S
O128 Zn116 1.924 . S
O128 C136 1.311 . S
O129 Zn120 1.977 . S
O129 C135 1.272 . S
O130 Zn120 1.910 . S
O130 C136 1.231 . S
C131 O115 1.225 . S
C131 O137 1.298 . S
C132 O121 1.226 . S
C132 O122 1.307 . S
C133 O125 1.303 . S
C133 O126 1.247 . S
C134 O123 1.253 . S
C134 O124 1.283 . S
C135 O127 1.304 . S
C135 O129 1.272 . S
C136 O128 1.311 . S
C136 O130 1.231 . S
O137 Zn119 1.953 . S
O137 C131 1.298 . S
O138 Zn139 1.953 . S
O138 C154 1.225 . S
Zn139 O138 1.953 . S
Zn139 O140 1.949 . S
Zn139 O146 1.919 . S
Zn139 O151 1.924 . S
O140 Zn139 1.949 . S
O140 Zn141 1.923 . S
O140 Zn142 1.950 . S
O140 Zn143 1.945 . S
Zn141 O140 1.923 . S
Zn141 O144 1.933 . S
Zn141 O147 1.941 . S
Zn141 O148 1.965 . S
Zn142 O140 1.950 . S
Zn142 O149 1.938 . S
Zn142 O150 1.906 . S
Zn142 O160 1.953 . S
Zn143 O140 1.945 . S
Zn143 O145 1.932 . S
Zn143 O152 1.977 . S
Zn143 O153 1.910 . S
O144 Zn141 1.933 . S
O144 C155 1.226 . S
O145 Zn143 1.932 . S
O145 C155 1.307 . S
O146 Zn139 1.919 . S
O146 C157 1.253 . S
O147 Zn141 1.941 . S
O147 C157 1.283 . S
O148 Zn141 1.965 . S
O148 C156 1.303 . S
O149 Zn142 1.938 . S
O149 C156 1.247 . S
O150 Zn142 1.906 . S
O150 C158 1.304 . S
O151 Zn139 1.924 . S
O151 C159 1.311 . S
O152 Zn143 1.977 . S
O152 C158 1.272 . S
O153 Zn143 1.910 . S
O153 C159 1.231 . S
C154 O138 1.225 . S
C154 O160 1.298 . S
C155 O144 1.226 . S
C155 O145 1.307 . S
C156 O148 1.303 . S
C156 O149 1.247 . S
C157 O146 1.253 . S
C157 O147 1.283 . S
C158 O150 1.304 . S
C158 O152 1.272 . S
C159 O151 1.311 . S
C159 O153 1.231 . S
O160 Zn142 1.953 . S
O160 C154 1.298 . S
O161 Zn162 1.953 . S
O161 C177 1.225 . S
Zn162 O161 1.953 . S
Zn162 O163 1.949 . S
Zn162 O169 1.919 . S
Zn162 O174 1.924 . S
O163 Zn162 1.949 . S
O163 Zn164 1.923 . S
O163 Zn165 1.950 . S
O163 Zn166 1.945 . S
Zn164 O163 1.923 . S
Zn164 O167 1.933 . S
Zn164 O170 1.941 . S
Zn164 O171 1.965 1_655 S
Zn165 O163 1.950 . S
Zn165 O172 1.938 . S
Zn165 O173 1.906 . S
Zn165 O183 1.953 . S
Zn166 O163 1.945 . S
Zn166 O168 1.932 . S
Zn166 O175 1.977 . S
Zn166 O176 1.910 . S
O167 Zn164 1.933 . S
O167 C178 1.226 . S
O168 Zn166 1.932 . S
O168 C178 1.307 . S
O169 Zn162 1.919 . S
O169 C180 1.253 . S
O170 Zn164 1.941 . S
O170 C180 1.283 . S
O171 Zn164 1.965 1_455 S
O171 C179 1.303 . S
O172 Zn165 1.938 . S
O172 C179 1.247 1_655 S
O173 Zn165 1.906 . S
O173 C181 1.304 . S
O174 Zn162 1.924 . S
O174 C182 1.311 . S
O175 Zn166 1.977 . S
O175 C181 1.272 . S
O176 Zn166 1.910 . S
O176 C182 1.231 . S
C177 O161 1.225 . S
C177 O183 1.298 . S
C178 O167 1.226 . S
C178 O168 1.307 . S
C179 O171 1.303 . S
C179 O172 1.247 1_455 S
C180 O169 1.253 . S
C180 O170 1.283 . S
C181 O173 1.304 . S
C181 O175 1.272 . S
C182 O174 1.311 . S
C182 O176 1.231 . S
O183 Zn165 1.953 . S
O183 C177 1.298 . S
O184 Zn185 1.953 . S
O184 C200 1.225 . S
Zn185 O184 1.953 . S
Zn185 O186 1.949 . S
Zn185 O192 1.919 . S
Zn185 O197 1.924 . S
O186 Zn185 1.949 . S
O186 Zn187 1.923 . S
O186 Zn188 1.950 . S
O186 Zn189 1.945 . S
Zn187 O186 1.923 . S
Zn187 O190 1.933 . S
Zn187 O193 1.941 . S
Zn187 O194 1.965 . S
Zn188 O186 1.950 . S
Zn188 O195 1.938 . S
Zn188 O196 1.906 . S
Zn188 O206 1.953 . S
Zn189 O186 1.945 . S
Zn189 O191 1.932 . S
Zn189 O198 1.977 . S
Zn189 O199 1.910 . S
O190 Zn187 1.933 . S
O190 C201 1.226 . S
O191 Zn189 1.932 . S
O191 C201 1.307 . S
O192 Zn185 1.919 . S
O192 C203 1.253 . S
O193 Zn187 1.941 . S
O193 C203 1.283 . S
O194 Zn187 1.965 . S
O194 C202 1.303 . S
O195 Zn188 1.938 . S
O195 C202 1.247 . S
O196 Zn188 1.906 . S
O196 C204 1.304 . S
O197 Zn185 1.924 . S
O197 C205 1.311 . S
O198 Zn189 1.977 . S
O198 C204 1.272 . S
O199 Zn189 1.910 . S
O199 C205 1.231 . S
C200 O184 1.225 . S
C200 O206 1.298 . S
C201 O190 1.226 . S
C201 O191 1.307 . S
C202 O194 1.303 . S
C202 O195 1.247 . S
C203 O192 1.253 . S
C203 O193 1.283 . S
C204 O196 1.304 . S
C204 O198 1.272 . S
C205 O197 1.311 . S
C205 O199 1.231 . S
O206 Zn188 1.953 . S
O206 C200 1.298 . S
H207 C225 0.951 . S
H208 C227 0.951 . S
H209 C229 0.953 . S
H210 C230 0.952 . S
H211 C232 0.950 . S
H212 C235 0.950 . S
H213 C236 0.950 . S
H214 C238 0.950 . S
H215 C239 0.950 . S
H216 C240 0.951 . S
H217 C242 0.947 1_556 S
H218 C244 0.950 . S
H219 C245 0.950 . S
H220 C247 0.950 . S
H221 C250 0.950 . S
H222 C251 0.950 . S
H223 C253 0.950 . S
H224 C254 0.950 . S
C225 H207 0.951 . S
C225 C226 1.366 . S
C225 C227 1.388 . S
C226 C225 1.366 . S
C226 C230 1.385 . S
C227 H208 0.951 . S
C227 C225 1.388 . S
C227 C228 1.366 . S
C228 C227 1.366 . S
C228 C229 1.414 . S
C228 C231 1.499 . S
C229 H209 0.953 . S
C229 C228 1.414 . S
C229 C230 1.374 . S
C230 H210 0.952 . S
C230 C226 1.385 . S
C230 C229 1.374 . S
C231 C228 1.499 . S
C231 C232 1.373 1_554 S
C231 C233 1.389 . S
C232 H211 0.950 . S
C232 C231 1.373 1_556 S
C232 C248 1.377 . S
C233 C231 1.389 . S
C233 C234 1.524 . S
C233 C247 1.377 . S
C234 C233 1.524 . S
C234 C235 1.397 . S
C234 C239 1.363 . S
C235 H212 0.950 . S
C235 C234 1.397 . S
C235 C236 1.334 . S
C236 H213 0.950 . S
C236 C235 1.334 . S
C236 C237 1.287 . S
C237 C236 1.287 . S
C237 C238 1.524 . S
C237 H256 0.913 . S
C238 H214 0.950 . S
C238 C237 1.524 . S
C238 C239 1.415 . S
C239 H215 0.950 . S
C239 C234 1.363 . S
C239 C238 1.415 . S
C240 H216 0.951 . S
C240 C241 1.366 . S
C240 C242 1.388 . S
C241 C240 1.366 . S
C241 C245 1.385 . S
C242 H217 0.947 1_554 S
C242 C240 1.388 . S
C242 C243 1.366 . S
C243 C242 1.366 . S
C243 C244 1.414 . S
C243 C246 1.499 . S
C244 H218 0.950 . S
C244 C243 1.414 . S
C244 C245 1.374 . S
C245 H219 0.950 . S
C245 C241 1.385 . S
C245 C244 1.374 . S
C246 C243 1.499 . S
C246 C247 1.373 . S
C246 C248 1.389 1_554 S
C247 H220 0.950 . S
C247 C233 1.377 . S
C247 C246 1.373 . S
C248 C232 1.377 . S
C248 C246 1.389 1_556 S
C248 C249 1.524 . S
C249 C248 1.524 . S
C249 C250 1.397 . S
C249 C254 1.363 . S
C250 H221 0.950 . S
C250 C249 1.397 . S
C250 C251 1.334 . S
C251 H222 0.950 . S
C251 C250 1.334 . S
C251 C252 1.287 . S
C252 C251 1.287 . S
C252 C253 1.524 . S
C252 H255 0.999 . S
C253 H223 0.950 . S
C253 C252 1.524 . S
C253 C254 1.415 . S
C254 H224 0.950 . S
C254 C249 1.363 . S
C254 C253 1.415 . S
H255 C252 0.999 . S
H256 C237 0.913 . S
H257 C275 0.951 . S
H258 C277 0.951 . S
H259 C279 0.950 . S
H260 C280 0.950 . S
H261 C282 0.950 . S
H262 C285 0.950 1_556 S
H263 C286 0.950 1_556 S
H264 C288 0.950 . S
H265 C289 0.950 . S
H266 C290 0.951 . S
H267 C292 0.951 . S
H268 C294 0.950 . S
H269 C295 0.950 . S
H270 C297 0.950 . S
H271 C300 0.950 . S
H272 C301 0.950 1_554 S
H273 C303 0.950 . S
H274 C304 0.950 . S
C275 H257 0.951 . S
C275 C276 1.366 . S
C275 C277 1.388 . S
C276 C275 1.366 . S
C276 C280 1.385 1_554 S
C277 H258 0.951 . S
C277 C275 1.388 . S
C277 C278 1.366 . S
C278 C277 1.366 . S
C278 C279 1.414 1_554 S
C278 C281 1.499 . S
C279 H259 0.950 . S
C279 C278 1.414 1_556 S
C279 C280 1.374 . S
C280 H260 0.950 . S
C280 C276 1.385 1_556 S
C280 C279 1.374 . S
C281 C278 1.499 . S
C281 C282 1.373 1_554 S
C281 C283 1.389 . S
C282 H261 0.950 . S
C282 C281 1.373 1_556 S
C282 C298 1.377 . S
C283 C281 1.389 . S
C283 C284 1.524 . S
C283 C297 1.377 . S
C284 C283 1.524 . S
C284 C285 1.397 . S
C284 C289 1.363 . S
C285 H262 0.950 1_554 S
C285 C284 1.397 . S
C285 C286 1.334 . S
C286 H263 0.950 1_554 S
C286 C285 1.334 . S
C286 C287 1.287 . S
C287 C286 1.287 . S
C287 C288 1.524 . S
C287 H306 0.913 1_565 S
C288 H264 0.950 . S
C288 C287 1.524 . S
C288 C289 1.415 . S
C289 H265 0.950 . S
C289 C284 1.363 . S
C289 C288 1.415 . S
C290 H266 0.951 . S
C290 C291 1.366 1_556 S
C290 C292 1.388 . S
C291 C290 1.366 1_554 S
C291 C295 1.385 . S
C292 H267 0.951 . S
C292 C290 1.388 . S
C292 C293 1.366 1_556 S
C293 C292 1.366 1_554 S
C293 C294 1.414 . S
C293 C296 1.499 . S
C294 H268 0.950 . S
C294 C293 1.414 . S
C294 C295 1.374 . S
C295 H269 0.950 . S
C295 C291 1.385 . S
C295 C294 1.374 . S
C296 C293 1.499 . S
C296 C297 1.373 . S
C296 C298 1.389 1_554 S
C297 H270 0.950 . S
C297 C283 1.377 . S
C297 C296 1.373 . S
C298 C282 1.377 . S
C298 C296 1.389 1_556 S
C298 C299 1.524 . S
C299 C298 1.524 . S
C299 C300 1.397 1_556 S
C299 C304 1.363 . S
C300 H271 0.950 . S
C300 C299 1.397 1_554 S
C300 C301 1.334 1_554 S
C301 H272 0.950 1_556 S
C301 C300 1.334 1_556 S
C301 C302 1.287 . S
C302 C301 1.287 . S
C302 C303 1.524 . S
C302 H305 0.999 . S
C303 H273 0.950 . S
C303 C302 1.524 . S
C303 C304 1.415 . S
C304 H274 0.950 . S
C304 C299 1.363 . S
C304 C303 1.415 . S
H305 C302 0.999 . S
H306 C287 0.913 1_545 S
H307 C325 0.951 . S
H308 C327 0.951 . S
H309 C329 0.950 . S
H310 C330 0.950 . S
H311 C332 0.950 . S
H312 C335 0.950 . S
H313 C336 0.950 . S
H314 C338 0.950 . S
H315 C339 0.950 . S
H316 C340 0.951 . S
H317 C342 0.951 . S
H318 C344 0.950 . S
H319 C345 0.950 . S
H320 C347 0.950 . S
H321 C350 0.950 . S
H322 C351 0.950 . S
H323 C353 0.950 . S
H324 C354 0.950 . S
C325 H307 0.951 . S
C325 C326 1.366 1_556 S
C325 C327 1.388 . S
C326 C325 1.366 1_554 S
C326 C330 1.385 . S
C327 H308 0.951 . S
C327 C325 1.388 . S
C327 C328 1.366 1_556 S
C328 C327 1.366 1_554 S
C328 C329 1.414 . S
C328 C331 1.499 . S
C329 H309 0.950 . S
C329 C328 1.414 . S
C329 C330 1.374 . S
C330 H310 0.950 . S
C330 C326 1.385 . S
C330 C329 1.374 . S
C331 C328 1.499 . S
C331 C332 1.373 . S
C331 C333 1.389 1_554 S
C332 H311 0.950 . S
C332 C331 1.373 . S
C332 C348 1.377 . S
C333 C331 1.389 1_556 S
C333 C334 1.524 . S
C333 C347 1.377 . S
C334 C333 1.524 . S
C334 C335 1.397 . S
C334 C339 1.363 . S
C335 H312 0.950 . S
C335 C334 1.397 . S
C335 C336 1.334 . S
C336 H313 0.950 . S
C336 C335 1.334 . S
C336 C337 1.287 . S
C337 C336 1.287 . S
C337 C338 1.524 . S
C337 H356 0.913 . S
C338 H314 0.950 . S
C338 C337 1.524 . S
C338 C339 1.415 . S
C339 H315 0.950 . S
C339 C334 1.363 . S
C339 C338 1.415 . S
C340 H316 0.951 . S
C340 C341 1.366 . S
C340 C342 1.388 . S
C341 C340 1.366 . S
C341 C345 1.385 1_554 S
C342 H317 0.951 . S
C342 C340 1.388 . S
C342 C343 1.366 . S
C343 C342 1.366 . S
C343 C344 1.414 1_554 S
C343 C346 1.499 . S
C344 H318 0.950 . S
C344 C343 1.414 1_556 S
C344 C345 1.374 . S
C345 H319 0.950 . S
C345 C341 1.385 1_556 S
C345 C344 1.374 . S
C346 C343 1.499 . S
C346 C347 1.373 1_554 S
C346 C348 1.389 . S
C347 H320 0.950 . S
C347 C333 1.377 . S
C347 C346 1.373 1_556 S
C348 C332 1.377 . S
C348 C346 1.389 . S
C348 C349 1.524 . S
C349 C348 1.524 . S
C349 C350 1.397 . S
C349 C354 1.363 . S
C350 H321 0.950 . S
C350 C349 1.397 . S
C350 C351 1.334 . S
C351 H322 0.950 . S
C351 C350 1.334 . S
C351 C352 1.287 . S
C352 C351 1.287 . S
C352 C353 1.524 . S
C352 H355 0.999 . S
C353 H323 0.950 . S
C353 C352 1.524 . S
C353 C354 1.415 . S
C354 H324 0.950 . S
C354 C349 1.363 . S
C354 C353 1.415 . S
H355 C352 0.999 . S
H356 C337 0.913 . S
H357 C375 0.951 . S
H358 C377 0.951 . S
H359 C379 0.950 1_556 S
H360 C380 0.950 1_556 S
H361 C382 0.950 . S
H362 C385 0.950 . S
H363 C386 0.950 . S
H364 C388 0.950 . S
H365 C389 0.950 . S
H366 C390 0.951 1_556 S
H367 C392 0.951 1_556 S
H368 C394 0.950 . S
H369 C395 0.950 . S
H370 C397 0.950 . S
H371 C400 0.950 . S
H372 C401 0.950 . S
H373 C403 0.950 . S
H374 C404 0.950 . S
C375 H357 0.951 . S
C375 C376 1.366 . S
C375 C377 1.388 . S
C376 C375 1.366 . S
C376 C380 1.385 . S
C377 H358 0.951 . S
C377 C375 1.388 . S
C377 C378 1.366 . S
C378 C377 1.366 . S
C378 C379 1.414 . S
C378 C381 1.499 . S
C379 H359 0.950 1_554 S
C379 C378 1.414 . S
C379 C380 1.374 . S
C380 H360 0.950 1_554 S
C380 C376 1.385 . S
C380 C379 1.374 . S
C381 C378 1.499 . S
C381 C382 1.373 1_554 S
C381 C383 1.389 . S
C382 H361 0.950 . S
C382 C381 1.373 1_556 S
C382 C398 1.377 . S
C383 C381 1.389 . S
C383 C384 1.524 . S
C383 C397 1.377 . S
C384 C383 1.524 . S
C384 C385 1.397 . S
C384 C389 1.363 . S
C385 H362 0.950 . S
C385 C384 1.397 . S
C385 C386 1.334 . S
C386 H363 0.950 . S
C386 C385 1.334 . S
C386 C387 1.287 . S
C387 C386 1.287 . S
C387 C388 1.524 . S
C387 H406 0.913 . S
C388 H364 0.950 . S
C388 C387 1.524 . S
C388 C389 1.415 . S
C389 H365 0.950 . S
C389 C384 1.363 . S
C389 C388 1.415 . S
C390 H366 0.951 1_554 S
C390 C391 1.366 . S
C390 C392 1.388 . S
C391 C390 1.366 . S
C391 C395 1.385 . S
C392 H367 0.951 1_554 S
C392 C390 1.388 . S
C392 C393 1.366 . S
C393 C392 1.366 . S
C393 C394 1.414 . S
C393 C396 1.499 . S
C394 H368 0.950 . S
C394 C393 1.414 . S
C394 C395 1.374 . S
C395 H369 0.950 . S
C395 C391 1.385 . S
C395 C394 1.374 . S
C396 C393 1.499 . S
C396 C397 1.373 . S
C396 C398 1.389 1_554 S
C397 H370 0.950 . S
C397 C383 1.377 . S
C397 C396 1.373 . S
C398 C382 1.377 . S
C398 C396 1.389 1_556 S
C398 C399 1.524 . S
C399 C398 1.524 . S
C399 C400 1.397 . S
C399 C404 1.363 . S
C400 H371 0.950 . S
C400 C399 1.397 . S
C400 C401 1.334 . S
C401 H372 0.950 . S
C401 C400 1.334 . S
C401 C402 1.287 . S
C402 C401 1.287 . S
C402 C403 1.524 . S
C402 H405 0.999 . S
C403 H373 0.950 . S
C403 C402 1.524 . S
C403 C404 1.415 . S
C404 H374 0.950 . S
C404 C399 1.363 . S
C404 C403 1.415 . S
H405 C402 0.999 . S
H406 C387 0.913 . S
H407 C425 0.951 . S
H408 C427 0.951 . S
H409 C429 0.957 . S
H410 C430 0.958 . S
H411 C432 0.950 . S
H412 C435 0.950 . S
H413 C436 0.950 . S
H414 C438 0.950 . S
H415 C439 0.950 1_554 S
H416 C440 0.951 1_556 S
H417 C442 0.951 1_556 S
H418 C444 0.950 . S
H419 C445 0.950 . S
H420 C447 0.950 1_556 S
H421 C450 0.950 . S
H422 C451 0.950 . S
H423 C453 0.950 . S
H424 C454 0.950 . S
C425 H407 0.951 . S
C425 C426 1.366 . S
C425 C427 1.388 . S
C426 C425 1.366 . S
C426 C430 1.377 1_554 S
C427 H408 0.951 . S
C427 C425 1.388 . S
C427 C428 1.366 . S
C428 C427 1.366 . S
C428 C429 1.408 1_554 S
C428 C431 1.499 . S
C429 H409 0.957 . S
C429 C428 1.408 1_556 S
C429 C430 1.374 . S
C430 H410 0.958 . S
C430 C426 1.377 1_556 S
C430 C429 1.374 . S
C431 C428 1.499 . S
C431 C432 1.373 . S
C431 C433 1.396 . S
C432 H411 0.950 . S
C432 C431 1.373 . S
C432 C448 1.377 . S
C433 C431 1.396 . S
C433 C434 1.514 1_554 S
C433 C447 1.379 . S
C434 C433 1.514 1_556 S
C434 C435 1.397 . S
C434 C439 1.363 . S
C435 H412 0.950 . S
C435 C434 1.397 . S
C435 C436 1.334 . S
C436 H413 0.950 . S
C436 C435 1.334 . S
C436 C437 1.287 . S
C437 C436 1.287 . S
C437 C438 1.524 . S
C437 H456 0.913 . S
C438 H414 0.950 . S
C438 C437 1.524 . S
C438 C439 1.415 . S
C439 H415 0.950 1_556 S
C439 C434 1.363 . S
C439 C438 1.415 . S
C440 H416 0.951 1_554 S
C440 C441 1.366 . S
C440 C442 1.388 . S
C441 C440 1.366 . S
C441 C445 1.385 . S
C442 H417 0.951 1_554 S
C442 C440 1.388 . S
C442 C443 1.366 . S
C443 C442 1.366 . S
C443 C444 1.414 . S
C443 C446 1.499 . S
C444 H418 0.950 . S
C444 C443 1.414 . S
C444 C445 1.374 . S
C445 H419 0.950 . S
C445 C441 1.385 . S
C445 C444 1.374 . S
C446 C443 1.499 . S
C446 C447 1.373 . S
C446 C448 1.389 . S
C447 H420 0.950 1_554 S
C447 C433 1.379 . S
C447 C446 1.373 . S
C448 C432 1.377 . S
C448 C446 1.389 . S
C448 C449 1.524 . S
C449 C448 1.524 . S
C449 C450 1.397 . S
C449 C454 1.363 . S
C450 H421 0.950 . S
C450 C449 1.397 . S
C450 C451 1.334 . S
C451 H422 0.950 . S
C451 C450 1.334 . S
C451 C452 1.287 . S
C452 C451 1.287 . S
C452 C453 1.524 . S
C452 H455 0.999 . S
C453 H423 0.950 . S
C453 C452 1.524 . S
C453 C454 1.415 . S
C454 H424 0.950 . S
C454 C449 1.363 . S
C454 C453 1.415 . S
H455 C452 0.999 . S
H456 C437 0.913 . S
H457 C475 0.951 . S
H458 C477 0.951 . S
H459 C479 0.950 . S
H460 C480 0.950 . S
H461 C482 0.950 . S
H462 C485 0.950 . S
H463 C486 0.950 . S
H464 C488 0.950 . S
H465 C489 0.950 1_556 S
H466 C490 0.951 . S
H467 C492 0.951 . S
H468 C494 0.950 . S
H469 C495 0.950 . S
H470 C497 0.950 . S
H471 C500 0.950 . S
H472 C501 0.950 . S
H473 C503 0.950 . S
H474 C504 0.950 . S
C475 H457 0.951 . S
C475 C476 1.366 1_556 S
C475 C477 1.388 . S
C476 C475 1.366 1_554 S
C476 C480 1.385 . S
C477 H458 0.951 . S
C477 C475 1.388 . S
C477 C478 1.366 1_556 S
C478 C477 1.366 1_554 S
C478 C479 1.414 . S
C478 C481 1.499 . S
C479 H459 0.950 . S
C479 C478 1.414 . S
C479 C480 1.374 . S
C480 H460 0.950 . S
C480 C476 1.385 . S
C480 C479 1.374 . S
C481 C478 1.499 . S
C481 C482 1.373 . S
C481 C483 1.389 . S
C482 H461 0.950 . S
C482 C481 1.373 . S
C482 C498 1.377 . S
C483 C481 1.389 . S
C483 C484 1.524 . S
C483 C497 1.377 . S
C484 C483 1.524 . S
C484 C485 1.397 . S
C484 C489 1.363 . S
C485 H462 0.950 . S
C485 C484 1.397 . S
C485 C486 1.334 . S
C486 H463 0.950 . S
C486 C485 1.334 . S
C486 C487 1.287 . S
C487 C486 1.287 . S
C487 C488 1.524 . S
C487 H506 0.913 . S
C488 H464 0.950 . S
C488 C487 1.524 . S
C488 C489 1.415 . S
C489 H465 0.950 1_554 S
C489 C484 1.363 . S
C489 C488 1.415 . S
C490 H466 0.951 . S
C490 C491 1.366 . S
C490 C492 1.388 . S
C491 C490 1.366 . S
C491 C495 1.385 1_554 S
C492 H467 0.951 . S
C492 C490 1.388 . S
C492 C493 1.366 . S
C493 C492 1.366 . S
C493 C494 1.414 1_554 S
C493 C496 1.499 . S
C494 H468 0.950 . S
C494 C493 1.414 1_556 S
C494 C495 1.374 . S
C495 H469 0.950 . S
C495 C491 1.385 1_556 S
C495 C494 1.374 . S
C496 C493 1.499 . S
C496 C497 1.373 . S
C496 C498 1.389 . S
C497 H470 0.950 . S
C497 C483 1.377 . S
C497 C496 1.373 . S
C498 C482 1.377 . S
C498 C496 1.389 . S
C498 C499 1.524 . S
C499 C498 1.524 . S
C499 C500 1.397 1_554 S
C499 C504 1.363 . S
C500 H471 0.950 . S
C500 C499 1.397 1_556 S
C500 C501 1.334 . S
C501 H472 0.950 . S
C501 C500 1.334 . S
C501 C502 1.287 . S
C502 C501 1.287 . S
C502 C503 1.524 1_556 S
C502 H505 0.999 . S
C503 H473 0.950 . S
C503 C502 1.524 1_554 S
C503 C504 1.415 . S
C504 H474 0.950 . S
C504 C499 1.363 . S
C504 C503 1.415 . S
H505 C502 0.999 . S
H506 C487 0.913 . S
H507 C525 0.951 . S
H508 C527 0.951 . S
H509 C529 0.950 . S
H510 C530 0.950 . S
H511 C532 0.950 . S
H512 C535 0.950 . S
H513 C536 0.950 . S
H514 C538 0.950 . S
H515 C539 0.950 . S
H516 C540 0.951 . S
H517 C542 0.951 . S
H518 C544 0.950 . S
H519 C545 0.950 . S
H520 C547 0.950 1_455 S
H521 C550 0.950 . S
H522 C551 0.950 . S
H523 C553 0.950 . S
H524 C554 0.950 . S
C525 H507 0.951 . S
C525 C526 1.366 . S
C525 C527 1.388 . S
C526 C525 1.366 . S
C526 C530 1.385 . S
C527 H508 0.951 . S
C527 C525 1.388 . S
C527 C528 1.366 . S
C528 C527 1.366 . S
C528 C529 1.414 . S
C528 C531 1.499 . S
C529 H509 0.950 . S
C529 C528 1.414 . S
C529 C530 1.374 . S
C530 H510 0.950 . S
C530 C526 1.385 . S
C530 C529 1.374 . S
C531 C528 1.499 . S
C531 C532 1.373 . S
C531 C533 1.389 . S
C532 H511 0.950 . S
C532 C531 1.373 . S
C532 C548 1.377 . S
C533 C531 1.389 . S
C533 C534 1.524 . S
C533 C547 1.377 . S
C534 C533 1.524 . S
C534 C535 1.397 . S
C534 C539 1.363 . S
C535 H512 0.950 . S
C535 C534 1.397 . S
C535 C536 1.334 . S
C536 H513 0.950 . S
C536 C535 1.334 . S
C536 C537 1.287 . S
C537 C536 1.287 . S
C537 C538 1.524 . S
C537 H556 0.913 . S
C538 H514 0.950 . S
C538 C537 1.524 . S
C538 C539 1.415 . S
C539 H515 0.950 . S
C539 C534 1.363 . S
C539 C538 1.415 . S
C540 H516 0.951 . S
C540 C541 1.366 . S
C540 C542 1.388 . S
C541 C540 1.366 . S
C541 C545 1.385 . S
C542 H517 0.951 . S
C542 C540 1.388 . S
C542 C543 1.366 . S
C543 C542 1.366 . S
C543 C544 1.414 . S
C543 C546 1.489 1_455 S
C544 H518 0.950 . S
C544 C543 1.414 . S
C544 C545 1.374 . S
C545 H519 0.950 . S
C545 C541 1.385 . S
C545 C544 1.374 . S
C546 C543 1.489 1_655 S
C546 C547 1.379 . S
C546 C548 1.393 . S
C547 H520 0.950 1_655 S
C547 C533 1.377 . S
C547 C546 1.379 . S
C548 C532 1.377 . S
C548 C546 1.393 . S
C548 C549 1.524 . S
C549 C548 1.524 . S
C549 C550 1.397 1_655 S
C549 C554 1.363 . S
C550 H521 0.950 . S
C550 C549 1.397 1_455 S
C550 C551 1.334 . S
C551 H522 0.950 . S
C551 C550 1.334 . S
C551 C552 1.287 . S
C552 C551 1.287 . S
C552 C553 1.524 1_455 S
C552 H555 0.999 . S
C553 H523 0.950 . S
C553 C552 1.524 1_655 S
C553 C554 1.415 . S
C554 H524 0.950 . S
C554 C549 1.363 . S
C554 C553 1.415 . S
H555 C552 0.999 . S
H556 C537 0.913 . S
H557 C575 0.951 . S
H558 C577 0.951 . S
H559 C579 0.950 . S
H560 C580 0.950 . S
H561 C582 0.950 . S
H562 C585 0.950 . S
H563 C586 0.950 . S
H564 C588 0.950 . S
H565 C589 0.950 . S
H566 C590 0.951 . S
H567 C592 0.951 . S
H568 C594 0.950 . S
H569 C595 0.950 . S
H570 C597 0.950 . S
H571 C600 0.950 . S
H572 C601 0.950 . S
H573 C603 0.950 . S
H574 C604 0.950 . S
C575 H557 0.951 . S
C575 C576 1.366 . S
C575 C577 1.388 . S
C576 C575 1.366 . S
C576 C580 1.385 . S
C577 H558 0.951 . S
C577 C575 1.388 . S
C577 C578 1.366 . S
C578 C577 1.366 . S
C578 C579 1.414 . S
C578 C581 1.499 . S
C579 H559 0.950 . S
C579 C578 1.414 . S
C579 C580 1.374 . S
C580 H560 0.950 . S
C580 C576 1.385 . S
C580 C579 1.374 . S
C581 C578 1.499 . S
C581 C582 1.373 . S
C581 C583 1.389 . S
C582 H561 0.950 . S
C582 C581 1.373 . S
C582 C598 1.377 . S
C583 C581 1.389 . S
C583 C584 1.524 . S
C583 C597 1.377 . S
C584 C583 1.524 . S
C584 C585 1.397 . S
C584 C589 1.363 . S
C585 H562 0.950 . S
C585 C584 1.397 . S
C585 C586 1.334 . S
C586 H563 0.950 . S
C586 C585 1.334 . S
C586 C587 1.287 . S
C587 C586 1.287 . S
C587 C588 1.524 . S
C587 H606 0.913 . S
C588 H564 0.950 . S
C588 C587 1.524 . S
C588 C589 1.415 . S
C589 H565 0.950 . S
C589 C584 1.363 . S
C589 C588 1.415 . S
C590 H566 0.951 . S
C590 C591 1.366 . S
C590 C592 1.388 . S
C591 C590 1.366 . S
C591 C595 1.385 . S
C592 H567 0.951 . S
C592 C590 1.388 . S
C592 C593 1.366 . S
C593 C592 1.366 . S
C593 C594 1.414 . S
C593 C596 1.499 . S
C594 H568 0.950 . S
C594 C593 1.414 . S
C594 C595 1.374 . S
C595 H569 0.950 . S
C595 C591 1.385 . S
C595 C594 1.374 . S
C596 C593 1.499 . S
C596 C597 1.373 . S
C596 C598 1.389 . S
C597 H570 0.950 . S
C597 C583 1.377 . S
C597 C596 1.373 . S
C598 C582 1.377 . S
C598 C596 1.389 . S
C598 C599 1.524 . S
C599 C598 1.524 . S
C599 C600 1.397 . S
C599 C604 1.363 . S
C600 H571 0.950 . S
C600 C599 1.397 . S
C600 C601 1.334 . S
C601 H572 0.950 . S
C601 C600 1.334 . S
C601 C602 1.287 . S
C602 C601 1.287 . S
C602 C603 1.524 . S
C602 H605 0.999 . S
C603 H573 0.950 . S
C603 C602 1.524 . S
C603 C604 1.415 . S
C604 H574 0.950 . S
C604 C599 1.363 . S
C604 C603 1.415 . S
H605 C602 0.999 . S
H606 C587 0.913 . S
H607 C625 0.951 . S
H608 C627 0.951 . S
H609 C629 0.950 . S
H610 C630 0.928 1_455 S
H611 C632 0.950 . S
H612 C635 0.950 . S
H613 C636 0.950 . S
H614 C638 0.950 . S
H615 C639 0.950 . S
H616 C640 0.951 . S
H617 C642 0.951 1_545 S
H618 C644 0.950 . S
H619 C645 0.950 . S
H620 C647 0.950 . S
H621 C650 0.950 . S
H622 C651 0.950 . S
H623 C653 0.950 . S
H624 C654 0.950 . S
C625 H607 0.951 . S
C625 C626 1.366 . S
C625 C627 1.388 . S
C626 C625 1.366 . S
C626 C630 1.403 . S
C627 H608 0.951 . S
C627 C625 1.388 . S
C627 C628 1.366 . S
C628 C627 1.366 . S
C628 C629 1.414 . S
C628 C631 1.499 . S
C629 H609 0.950 . S
C629 C628 1.414 . S
C629 C630 1.377 . S
C630 H610 0.928 1_655 S
C630 C626 1.403 . S
C630 C629 1.377 . S
C631 C628 1.499 . S
C631 C632 1.373 . S
C631 C633 1.389 . S
C632 H611 0.950 . S
C632 C631 1.373 . S
C632 C648 1.377 . S
C633 C631 1.389 . S
C633 C634 1.524 . S
C633 C647 1.377 . S
C634 C633 1.524 . S
C634 C635 1.397 . S
C634 C639 1.363 . S
C635 H612 0.950 . S
C635 C634 1.397 . S
C635 C636 1.334 . S
C636 H613 0.950 . S
C636 C635 1.334 . S
C636 C637 1.287 . S
C637 C636 1.287 . S
C637 C638 1.524 . S
C637 H656 0.913 . S
C638 H614 0.950 . S
C638 C637 1.524 . S
C638 C639 1.415 . S
C639 H615 0.950 . S
C639 C634 1.363 . S
C639 C638 1.415 . S
C640 H616 0.951 . S
C640 C641 1.366 . S
C640 C642 1.388 . S
C641 C640 1.366 . S
C641 C645 1.385 . S
C642 H617 0.951 1_565 S
C642 C640 1.388 . S
C642 C643 1.366 1_565 S
C643 C642 1.366 1_545 S
C643 C644 1.414 . S
C643 C646 1.499 . S
C644 H618 0.950 . S
C644 C643 1.414 . S
C644 C645 1.374 1_545 S
C645 H619 0.950 . S
C645 C641 1.385 . S
C645 C644 1.374 1_565 S
C646 C643 1.499 . S
C646 C647 1.373 . S
C646 C648 1.389 . S
C647 H620 0.950 . S
C647 C633 1.377 . S
C647 C646 1.373 . S
C648 C632 1.377 . S
C648 C646 1.389 . S
C648 C649 1.524 . S
C649 C648 1.524 . S
C649 C650 1.397 . S
C649 C654 1.363 . S
C650 H621 0.950 . S
C650 C649 1.397 . S
C650 C651 1.334 . S
C651 H622 0.950 . S
C651 C650 1.334 . S
C651 C652 1.287 . S
C652 C651 1.287 . S
C652 C653 1.524 . S
C652 H655 0.999 . S
C653 H623 0.950 . S
C653 C652 1.524 . S
C653 C654 1.415 . S
C654 H624 0.950 . S
C654 C649 1.363 . S
C654 C653 1.415 . S
H655 C652 0.999 . S
H656 C637 0.913 . S
H657 C675 0.951 . S
H658 C677 0.951 . S
H659 C679 0.950 . S
H660 C680 0.950 . S
H661 C682 0.950 . S
H662 C685 0.950 . S
H663 C686 0.950 . S
H664 C688 0.950 . S
H665 C689 0.950 . S
H666 C690 0.951 . S
H667 C692 0.951 . S
H668 C694 0.950 . S
H669 C695 0.950 . S
H670 C697 0.950 . S
H671 C700 0.950 . S
H672 C701 0.950 . S
H673 C703 0.950 1_655 S
H674 C704 0.950 . S
C675 H657 0.951 . S
C675 C676 1.366 . S
C675 C677 1.388 . S
C676 C675 1.366 . S
C676 C680 1.385 . S
C677 H658 0.951 . S
C677 C675 1.388 . S
C677 C678 1.366 . S
C678 C677 1.366 . S
C678 C679 1.414 . S
C678 C681 1.499 . S
C679 H659 0.950 . S
C679 C678 1.414 . S
C679 C680 1.374 . S
C680 H660 0.950 . S
C680 C676 1.385 . S
C680 C679 1.374 . S
C681 C678 1.499 . S
C681 C682 1.373 . S
C681 C683 1.389 . S
C682 H661 0.950 . S
C682 C681 1.373 . S
C682 C698 1.377 . S
C683 C681 1.389 . S
C683 C684 1.524 . S
C683 C697 1.377 . S
C684 C683 1.524 . S
C684 C685 1.397 . S
C684 C689 1.363 . S
C685 H662 0.950 . S
C685 C684 1.397 . S
C685 C686 1.334 . S
C686 H663 0.950 . S
C686 C685 1.334 . S
C686 C687 1.287 . S
C687 C686 1.287 . S
C687 C688 1.524 . S
C687 H706 0.913 . S
C688 H664 0.950 . S
C688 C687 1.524 . S
C688 C689 1.415 . S
C689 H665 0.950 . S
C689 C684 1.363 . S
C689 C688 1.415 . S
C690 H666 0.951 . S
C690 C691 1.366 . S
C690 C692 1.388 . S
C691 C690 1.366 . S
C691 C695 1.385 . S
C692 H667 0.951 . S
C692 C690 1.388 . S
C692 C693 1.366 . S
C693 C692 1.366 . S
C693 C694 1.414 . S
C693 C696 1.499 . S
C694 H668 0.950 . S
C694 C693 1.414 . S
C694 C695 1.374 . S
C695 H669 0.950 . S
C695 C691 1.385 . S
C695 C694 1.374 . S
C696 C693 1.499 . S
C696 C697 1.373 . S
C696 C698 1.389 . S
C697 H670 0.950 . S
C697 C683 1.377 . S
C697 C696 1.373 . S
C698 C682 1.377 . S
C698 C696 1.389 . S
C698 C699 1.524 . S
C699 C698 1.524 . S
C699 C700 1.397 . S
C699 C704 1.363 . S
C700 H671 0.950 . S
C700 C699 1.397 . S
C700 C701 1.334 . S
C701 H672 0.950 . S
C701 C700 1.334 . S
C701 C702 1.287 . S
C702 C701 1.287 . S
C702 C703 1.524 . S
C702 H705 0.999 1_455 S
C703 H673 0.950 1_455 S
C703 C702 1.524 . S
C703 C704 1.415 . S
C704 H674 0.950 . S
C704 C699 1.363 . S
C704 C703 1.415 . S
H705 C702 0.999 1_655 S
H706 C687 0.913 . S
H707 C725 0.951 . S
H708 C727 0.951 . S
H709 C729 0.950 . S
H710 C730 0.950 . S
H711 C732 0.950 . S
H712 C735 0.950 . S
H713 C736 0.950 . S
H714 C738 0.950 . S
H715 C739 0.950 . S
H716 C740 0.951 . S
H717 C742 0.951 . S
H718 C744 0.950 . S
H719 C745 0.950 . S
H720 C747 0.950 . S
H721 C750 0.950 . S
H722 C751 0.950 . S
H723 C753 0.950 . S
H724 C754 0.950 . S
C725 H707 0.951 . S
C725 C726 1.366 . S
C725 C727 1.388 . S
C726 C725 1.366 . S
C726 C730 1.385 . S
C727 H708 0.951 . S
C727 C725 1.388 . S
C727 C728 1.366 . S
C728 C727 1.366 . S
C728 C729 1.414 . S
C728 C731 1.499 . S
C729 H709 0.950 . S
C729 C728 1.414 . S
C729 C730 1.374 . S
C730 H710 0.950 . S
C730 C726 1.385 . S
C730 C729 1.374 . S
C731 C728 1.499 . S
C731 C732 1.373 . S
C731 C733 1.389 . S
C732 H711 0.950 . S
C732 C731 1.373 . S
C732 C748 1.377 . S
C733 C731 1.389 . S
C733 C734 1.524 . S
C733 C747 1.377 . S
C734 C733 1.524 . S
C734 C735 1.397 . S
C734 C739 1.363 . S
C735 H712 0.950 . S
C735 C734 1.397 . S
C735 C736 1.334 . S
C736 H713 0.950 . S
C736 C735 1.334 . S
C736 C737 1.287 . S
C737 C736 1.287 . S
C737 C738 1.524 . S
C737 H756 0.913 . S
C738 H714 0.950 . S
C738 C737 1.524 . S
C738 C739 1.415 . S
C739 H715 0.950 . S
C739 C734 1.363 . S
C739 C738 1.415 . S
C740 H716 0.951 . S
C740 C741 1.366 . S
C740 C742 1.388 . S
C741 C740 1.366 . S
C741 C745 1.385 . S
C742 H717 0.951 . S
C742 C740 1.388 . S
C742 C743 1.366 . S
C743 C742 1.366 . S
C743 C744 1.414 . S
C743 C746 1.499 . S
C744 H718 0.950 . S
C744 C743 1.414 . S
C744 C745 1.374 . S
C745 H719 0.950 . S
C745 C741 1.385 . S
C745 C744 1.374 . S
C746 C743 1.499 . S
C746 C747 1.373 . S
C746 C748 1.389 . S
C747 H720 0.950 . S
C747 C733 1.377 . S
C747 C746 1.373 . S
C748 C732 1.377 . S
C748 C746 1.389 . S
C748 C749 1.524 . S
C749 C748 1.524 . S
C749 C750 1.397 . S
C749 C754 1.363 . S
C750 H721 0.950 . S
C750 C749 1.397 . S
C750 C751 1.334 . S
C751 H722 0.950 . S
C751 C750 1.334 . S
C751 C752 1.287 . S
C752 C751 1.287 . S
C752 C753 1.524 . S
C752 H755 0.999 . S
C753 H723 0.950 . S
C753 C752 1.524 . S
C753 C754 1.415 . S
C754 H724 0.950 . S
C754 C749 1.363 . S
C754 C753 1.415 . S
H755 C752 0.999 . S
H756 C737 0.913 . S
H757 C775 0.951 1_545 S
H758 C777 0.951 . S
H759 C779 0.950 . S
H760 C780 0.950 . S
H761 C782 0.950 . S
H762 C785 0.950 . S
H763 C786 0.950 . S
H764 C788 0.950 . S
H765 C789 0.950 . S
H766 C790 0.951 . S
H767 C792 0.951 . S
H768 C794 0.950 . S
H769 C795 0.950 . S
H770 C797 0.950 . S
H771 C800 0.950 . S
H772 C801 0.950 . S
H773 C803 0.950 . S
H774 C804 0.950 . S
C775 H757 0.951 1_565 S
C775 C776 1.366 . S
C775 C777 1.388 . S
C776 C775 1.366 . S
C776 C780 1.385 . S
C777 H758 0.951 . S
C777 C775 1.388 . S
C777 C778 1.366 . S
C778 C777 1.366 . S
C778 C779 1.414 . S
C778 C781 1.499 . S
C779 H759 0.950 . S
C779 C778 1.414 . S
C779 C780 1.374 . S
C780 H760 0.950 . S
C780 C776 1.385 . S
C780 C779 1.374 . S
C781 C778 1.499 . S
C781 C782 1.373 . S
C781 C783 1.389 . S
C782 H761 0.950 . S
C782 C781 1.373 . S
C782 C798 1.377 . S
C783 C781 1.389 . S
C783 C784 1.524 . S
C783 C797 1.377 . S
C784 C783 1.524 . S
C784 C785 1.397 . S
C784 C789 1.363 1_565 S
C785 H762 0.950 . S
C785 C784 1.397 . S
C785 C786 1.334 . S
C786 H763 0.950 . S
C786 C785 1.334 . S
C786 C787 1.287 1_565 S
C787 C786 1.287 1_545 S
C787 C788 1.524 . S
C787 H806 0.913 . S
C788 H764 0.950 . S
C788 C787 1.524 . S
C788 C789 1.415 . S
C789 H765 0.950 . S
C789 C784 1.363 1_545 S
C789 C788 1.415 . S
C790 H766 0.951 . S
C790 C791 1.366 . S
C790 C792 1.388 . S
C791 C790 1.366 . S
C791 C795 1.385 . S
C792 H767 0.951 . S
C792 C790 1.388 . S
C792 C793 1.366 . S
C793 C792 1.366 . S
C793 C794 1.414 . S
C793 C796 1.499 . S
C794 H768 0.950 . S
C794 C793 1.414 . S
C794 C795 1.374 . S
C795 H769 0.950 . S
C795 C791 1.385 . S
C795 C794 1.374 . S
C796 C793 1.499 . S
C796 C797 1.373 . S
C796 C798 1.389 . S
C797 H770 0.950 . S
C797 C783 1.377 . S
C797 C796 1.373 . S
C798 C782 1.377 . S
C798 C796 1.389 . S
C798 C799 1.524 . S
C799 C798 1.524 . S
C799 C800 1.397 . S
C799 C804 1.363 . S
C800 H771 0.950 . S
C800 C799 1.397 . S
C800 C801 1.334 . S
C801 H772 0.950 . S
C801 C800 1.334 . S
C801 C802 1.287 . S
C802 C801 1.287 . S
C802 C803 1.524 . S
C802 H805 0.999 . S
C803 H773 0.950 . S
C803 C802 1.524 . S
C803 C804 1.415 . S
C804 H774 0.950 . S
C804 C799 1.363 . S
C804 C803 1.415 . S
H805 C802 0.999 . S
H806 C787 0.913 . S
H807 C825 0.951 . S
H808 C827 0.951 . S
H809 C829 0.950 . S
H810 C830 0.950 . S
H811 C832 0.950 . S
H812 C835 0.950 . S
H813 C836 0.950 . S
H814 C838 0.950 . S
H815 C839 0.950 . S
H816 C840 0.951 . S
H817 C842 0.951 . S
H818 C844 0.950 . S
H819 C845 0.950 . S
H820 C847 0.950 . S
H821 C850 0.950 . S
H822 C851 0.950 . S
H823 C853 0.950 . S
H824 C854 0.950 . S
C825 H807 0.951 . S
C825 C826 1.366 . S
C825 C827 1.388 . S
C826 C825 1.366 . S
C826 C830 1.385 . S
C827 H808 0.951 . S
C827 C825 1.388 . S
C827 C828 1.366 . S
C828 C827 1.366 . S
C828 C829 1.414 . S
C828 C831 1.499 . S
C829 H809 0.950 . S
C829 C828 1.414 . S
C829 C830 1.374 . S
C830 H810 0.950 . S
C830 C826 1.385 . S
C830 C829 1.374 . S
C831 C828 1.499 . S
C831 C832 1.373 . S
C831 C833 1.389 . S
C832 H811 0.950 . S
C832 C831 1.373 . S
C832 C848 1.377 . S
C833 C831 1.389 . S
C833 C834 1.524 . S
C833 C847 1.377 . S
C834 C833 1.524 . S
C834 C835 1.397 . S
C834 C839 1.363 . S
C835 H812 0.950 . S
C835 C834 1.397 . S
C835 C836 1.334 . S
C836 H813 0.950 . S
C836 C835 1.334 . S
C836 C837 1.287 . S
C837 C836 1.287 . S
C837 C838 1.524 . S
C837 H856 0.913 . S
C838 H814 0.950 . S
C838 C837 1.524 . S
C838 C839 1.415 . S
C839 H815 0.950 . S
C839 C834 1.363 . S
C839 C838 1.415 . S
C840 H816 0.951 . S
C840 C841 1.366 . S
C840 C842 1.388 . S
C841 C840 1.366 . S
C841 C845 1.385 . S
C842 H817 0.951 . S
C842 C840 1.388 . S
C842 C843 1.366 . S
C843 C842 1.366 . S
C843 C844 1.414 . S
C843 C846 1.499 . S
C844 H818 0.950 . S
C844 C843 1.414 . S
C844 C845 1.374 . S
C845 H819 0.950 . S
C845 C841 1.385 . S
C845 C844 1.374 . S
C846 C843 1.499 . S
C846 C847 1.373 . S
C846 C848 1.389 . S
C847 H820 0.950 . S
C847 C833 1.377 . S
C847 C846 1.373 . S
C848 C832 1.377 . S
C848 C846 1.389 . S
C848 C849 1.524 . S
C849 C848 1.524 . S
C849 C850 1.397 . S
C849 C854 1.363 . S
C850 H821 0.950 . S
C850 C849 1.397 . S
C850 C851 1.334 . S
C851 H822 0.950 . S
C851 C850 1.334 . S
C851 C852 1.287 . S
C852 C851 1.287 . S
C852 C853 1.524 . S
C852 H855 0.999 . S
C853 H823 0.950 . S
C853 C852 1.524 . S
C853 C854 1.415 . S
C854 H824 0.950 . S
C854 C849 1.363 . S
C854 C853 1.415 . S
H855 C852 0.999 . S
H856 C837 0.913 . S
H857 C875 0.951 . S
H858 C877 0.951 . S
H859 C879 0.950 . S
H860 C880 0.950 . S
H861 C882 0.950 . S
H862 C885 0.950 . S
H863 C886 0.950 . S
H864 C888 0.950 . S
H865 C889 0.950 . S
H866 C890 0.951 . S
H867 C892 0.951 . S
H868 C894 0.950 . S
H869 C895 0.950 . S
H870 C897 0.950 . S
H871 C900 0.950 . S
H872 C901 0.950 . S
H873 C903 0.932 1_455 S
H874 C904 0.950 . S
C875 H857 0.951 . S
C875 C876 1.366 . S
C875 C877 1.388 . S
C876 C875 1.366 . S
C876 C880 1.385 . S
C877 H858 0.951 . S
C877 C875 1.388 . S
C877 C878 1.366 . S
C878 C877 1.366 . S
C878 C879 1.414 . S
C878 C881 1.499 . S
C879 H859 0.950 . S
C879 C878 1.414 . S
C879 C880 1.374 . S
C880 H860 0.950 . S
C880 C876 1.385 . S
C880 C879 1.374 . S
C881 C878 1.499 . S
C881 C882 1.373 . S
C881 C883 1.389 . S
C882 H861 0.950 . S
C882 C881 1.373 . S
C882 C898 1.377 . S
C883 C881 1.389 . S
C883 C884 1.524 . S
C883 C897 1.377 . S
C884 C883 1.524 . S
C884 C885 1.397 . S
C884 C889 1.363 . S
C885 H862 0.950 . S
C885 C884 1.397 . S
C885 C886 1.334 . S
C886 H863 0.950 . S
C886 C885 1.334 . S
C886 C887 1.287 . S
C887 C886 1.287 . S
C887 C888 1.524 . S
C887 H906 0.913 . S
C888 H864 0.950 . S
C888 C887 1.524 . S
C888 C889 1.415 . S
C889 H865 0.950 . S
C889 C884 1.363 . S
C889 C888 1.415 . S
C890 H866 0.951 . S
C890 C891 1.366 . S
C890 C892 1.388 . S
C891 C890 1.366 . S
C891 C895 1.385 . S
C892 H867 0.951 . S
C892 C890 1.388 . S
C892 C893 1.366 . S
C893 C892 1.366 . S
C893 C894 1.414 . S
C893 C896 1.499 . S
C894 H868 0.950 . S
C894 C893 1.414 . S
C894 C895 1.374 . S
C895 H869 0.950 . S
C895 C891 1.385 . S
C895 C894 1.374 . S
C896 C893 1.499 . S
C896 C897 1.373 . S
C896 C898 1.389 . S
C897 H870 0.950 . S
C897 C883 1.377 . S
C897 C896 1.373 . S
C898 C882 1.377 . S
C898 C896 1.389 . S
C898 C899 1.524 . S
C899 C898 1.524 . S
C899 C900 1.397 . S
C899 C904 1.363 . S
C900 H871 0.950 . S
C900 C899 1.397 . S
C900 C901 1.334 . S
C901 H872 0.950 . S
C901 C900 1.334 . S
C901 C902 1.287 . S
C902 C901 1.287 . S
C902 C903 1.539 . S
C902 H905 0.999 . S
C903 H873 0.932 1_655 S
C903 C902 1.539 . S
C903 C904 1.420 . S
C904 H874 0.950 . S
C904 C899 1.363 . S
C904 C903 1.420 . S
H905 C902 0.999 . S
H906 C887 0.913 . S
H907 C925 0.951 . S
H908 C927 0.951 . S
H909 C929 0.950 . S
H910 C930 0.950 . S
H911 C932 0.950 . S
H912 C935 0.950 . S
H913 C936 0.950 . S
H914 C938 0.950 . S
H915 C939 0.950 . S
H916 C940 0.951 . S
H917 C942 0.951 . S
H918 C944 0.950 . S
H919 C945 0.950 . S
H920 C947 0.950 . S
H921 C950 0.950 . S
H922 C951 0.950 . S
H923 C953 0.950 . S
H924 C954 0.950 . S
C925 H907 0.951 . S
C925 C926 1.366 . S
C925 C927 1.388 . S
C926 C925 1.366 . S
C926 C930 1.385 . S
C927 H908 0.951 . S
C927 C925 1.388 . S
C927 C928 1.366 . S
C928 C927 1.366 . S
C928 C929 1.414 . S
C928 C931 1.499 . S
C929 H909 0.950 . S
C929 C928 1.414 . S
C929 C930 1.374 . S
C930 H910 0.950 . S
C930 C926 1.385 . S
C930 C929 1.374 . S
C931 C928 1.499 . S
C931 C932 1.373 . S
C931 C933 1.389 . S
C932 H911 0.950 . S
C932 C931 1.373 . S
C932 C948 1.377 . S
C933 C931 1.389 . S
C933 C934 1.524 . S
C933 C947 1.377 . S
C934 C933 1.524 . S
C934 C935 1.397 . S
C934 C939 1.363 . S
C935 H912 0.950 . S
C935 C934 1.397 . S
C935 C936 1.334 . S
C936 H913 0.950 . S
C936 C935 1.334 . S
C936 C937 1.287 . S
C937 C936 1.287 . S
C937 C938 1.524 . S
C937 H956 0.913 . S
C938 H914 0.950 . S
C938 C937 1.524 . S
C938 C939 1.415 . S
C939 H915 0.950 . S
C939 C934 1.363 . S
C939 C938 1.415 . S
C940 H916 0.951 . S
C940 C941 1.366 . S
C940 C942 1.388 . S
C941 C940 1.366 . S
C941 C945 1.385 . S
C942 H917 0.951 . S
C942 C940 1.388 . S
C942 C943 1.366 . S
C943 C942 1.366 . S
C943 C944 1.414 . S
C943 C946 1.499 . S
C944 H918 0.950 . S
C944 C943 1.414 . S
C944 C945 1.374 . S
C945 H919 0.950 . S
C945 C941 1.385 . S
C945 C944 1.374 . S
C946 C943 1.499 . S
C946 C947 1.373 . S
C946 C948 1.389 . S
C947 H920 0.950 . S
C947 C933 1.377 . S
C947 C946 1.373 . S
C948 C932 1.377 . S
C948 C946 1.389 . S
C948 C949 1.524 . S
C949 C948 1.524 . S
C949 C950 1.397 . S
C949 C954 1.363 . S
C950 H921 0.950 . S
C950 C949 1.397 . S
C950 C951 1.334 . S
C951 H922 0.950 . S
C951 C950 1.334 . S
C951 C952 1.287 . S
C952 C951 1.287 . S
C952 C953 1.524 . S
C952 H955 0.999 . S
C953 H923 0.950 . S
C953 C952 1.524 . S
C953 C954 1.415 . S
C954 H924 0.950 . S
C954 C949 1.363 . S
C954 C953 1.415 . S
H955 C952 0.999 . S
H956 C937 0.913 . S
H957 C975 0.951 . S
H958 C977 0.951 . S
H959 C979 0.950 . S
H960 C980 0.950 . S
H961 C982 0.950 . S
H962 C985 0.950 . S
H963 C986 0.950 . S
H964 C988 0.950 . S
H965 C989 0.950 . S
H966 C990 0.951 . S
H967 C992 0.951 . S
H968 C994 0.950 . S
H969 C995 0.950 . S
H970 C997 0.950 . S
H971 C1000 0.950 1_545 S
H972 C1001 0.950 . S
H973 C1003 0.950 . S
H974 C1004 0.950 . S
C975 H957 0.951 . S
C975 C976 1.366 . S
C975 C977 1.388 . S
C976 C975 1.366 . S
C976 C980 1.385 . S
C977 H958 0.951 . S
C977 C975 1.388 . S
C977 C978 1.366 . S
C978 C977 1.366 . S
C978 C979 1.414 . S
C978 C981 1.499 . S
C979 H959 0.950 . S
C979 C978 1.414 . S
C979 C980 1.374 . S
C980 H960 0.950 . S
C980 C976 1.385 . S
C980 C979 1.374 . S
C981 C978 1.499 . S
C981 C982 1.373 . S
C981 C983 1.389 . S
C982 H961 0.950 . S
C982 C981 1.373 . S
C982 C998 1.377 . S
C983 C981 1.389 . S
C983 C984 1.524 . S
C983 C997 1.377 . S
C984 C983 1.524 . S
C984 C985 1.397 . S
C984 C989 1.363 . S
C985 H962 0.950 . S
C985 C984 1.397 . S
C985 C986 1.334 . S
C986 H963 0.950 . S
C986 C985 1.334 . S
C986 C987 1.287 . S
C987 C986 1.287 . S
C987 C988 1.524 . S
C987 H1006 0.913 . S
C988 H964 0.950 . S
C988 C987 1.524 . S
C988 C989 1.415 . S
C989 H965 0.950 . S
C989 C984 1.363 . S
C989 C988 1.415 . S
C990 H966 0.951 . S
C990 C991 1.366 . S
C990 C992 1.388 . S
C991 C990 1.366 . S
C991 C995 1.385 . S
C992 H967 0.951 . S
C992 C990 1.388 . S
C992 C993 1.366 . S
C993 C992 1.366 . S
C993 C994 1.414 . S
C993 C996 1.499 1_545 S
C994 H968 0.950 . S
C994 C993 1.414 . S
C994 C995 1.374 . S
C995 H969 0.950 . S
C995 C991 1.385 . S
C995 C994 1.374 . S
C996 C993 1.499 1_565 S
C996 C997 1.373 . S
C996 C998 1.389 . S
C997 H970 0.950 . S
C997 C983 1.377 . S
C997 C996 1.373 . S
C998 C982 1.377 . S
C998 C996 1.389 . S
C998 C999 1.524 . S
C999 C998 1.524 . S
C999 C1000 1.397 . S
C999 C1004 1.363 . S
C1000 H971 0.950 1_565 S
C1000 C999 1.397 . S
C1000 C1001 1.334 1_565 S
C1001 H972 0.950 . S
C1001 C1000 1.334 1_545 S
C1001 C1002 1.287 1_545 S
C1002 C1001 1.287 1_565 S
C1002 C1003 1.524 . S
C1002 H1005 0.999 . S
C1003 H973 0.950 . S
C1003 C1002 1.524 . S
C1003 C1004 1.415 . S
C1004 H974 0.950 . S
C1004 C999 1.363 . S
C1004 C1003 1.415 . S
H1005 C1002 0.999 . S
H1006 C987 0.913 . S
H1007 C1025 0.951 . S
H1008 C1027 0.951 . S
H1009 C1029 0.950 . S
H1010 C1030 0.950 . S
H1011 C1032 0.950 . S
H1012 C1035 0.950 . S
H1013 C1036 0.950 . S
H1014 C1038 0.950 . S
H1015 C1039 0.950 . S
H1016 C1040 0.945 1_545 S
H1017 C1042 0.951 . S
H1018 C1044 0.950 . S
H1019 C1045 0.950 . S
H1020 C1047 0.950 . S
H1021 C1050 0.950 . S
H1022 C1051 0.950 . S
H1023 C1053 0.950 . S
H1024 C1054 0.950 . S
C1025 H1007 0.951 . S
C1025 C1026 1.366 . S
C1025 C1027 1.388 . S
C1026 C1025 1.366 . S
C1026 C1030 1.385 . S
C1027 H1008 0.951 . S
C1027 C1025 1.388 . S
C1027 C1028 1.366 . S
C1028 C1027 1.366 . S
C1028 C1029 1.414 . S
C1028 C1031 1.499 1_655 S
C1029 H1009 0.950 . S
C1029 C1028 1.414 . S
C1029 C1030 1.374 . S
C1030 H1010 0.950 . S
C1030 C1026 1.385 . S
C1030 C1029 1.374 . S
C1031 C1028 1.499 1_455 S
C1031 C1032 1.373 . S
C1031 C1033 1.389 . S
C1032 H1011 0.950 . S
C1032 C1031 1.373 . S
C1032 C1048 1.377 . S
C1033 C1031 1.389 . S
C1033 C1034 1.524 . S
C1033 C1047 1.377 . S
C1034 C1033 1.524 . S
C1034 C1035 1.397 1_455 S
C1034 C1039 1.363 . S
C1035 H1012 0.950 . S
C1035 C1034 1.397 1_655 S
C1035 C1036 1.334 . S
C1036 H1013 0.950 . S
C1036 C1035 1.334 . S
C1036 C1037 1.287 . S
C1037 C1036 1.287 . S
C1037 C1038 1.524 1_655 S
C1037 H1056 0.913 . S
C1038 H1014 0.950 . S
C1038 C1037 1.524 1_455 S
C1038 C1039 1.415 . S
C1039 H1015 0.950 . S
C1039 C1034 1.363 . S
C1039 C1038 1.415 . S
C1040 H1016 0.945 1_565 S
C1040 C1041 1.369 1_565 S
C1040 C1042 1.390 . S
C1041 C1040 1.369 1_545 S
C1041 C1045 1.385 1_545 S
C1042 H1017 0.951 . S
C1042 C1040 1.390 . S
C1042 C1043 1.366 . S
C1043 C1042 1.366 . S
C1043 C1044 1.414 . S
C1043 C1046 1.499 . S
C1044 H1018 0.950 . S
C1044 C1043 1.414 . S
C1044 C1045 1.374 . S
C1045 H1019 0.950 . S
C1045 C1041 1.385 1_565 S
C1045 C1044 1.374 . S
C1046 C1043 1.499 . S
C1046 C1047 1.373 . S
C1046 C1048 1.389 . S
C1047 H1020 0.950 . S
C1047 C1033 1.377 . S
C1047 C1046 1.373 . S
C1048 C1032 1.377 . S
C1048 C1046 1.389 . S
C1048 C1049 1.524 . S
C1049 C1048 1.524 . S
C1049 C1050 1.397 . S
C1049 C1054 1.363 . S
C1050 H1021 0.950 . S
C1050 C1049 1.397 . S
C1050 C1051 1.334 . S
C1051 H1022 0.950 . S
C1051 C1050 1.334 . S
C1051 C1052 1.287 . S
C1052 C1051 1.287 . S
C1052 C1053 1.524 . S
C1052 H1055 0.999 . S
C1053 H1023 0.950 . S
C1053 C1052 1.524 . S
C1053 C1054 1.415 . S
C1054 H1024 0.950 . S
C1054 C1049 1.363 . S
C1054 C1053 1.415 . S
H1055 C1052 0.999 . S
H1056 C1037 0.913 . S
H1057 C1075 0.951 . S
H1058 C1077 0.951 . S
H1059 C1079 0.950 . S
H1060 C1080 0.950 . S
H1061 C1082 0.950 . S
H1062 C1085 0.950 . S
H1063 C1086 0.950 . S
H1064 C1088 0.950 . S
H1065 C1089 0.950 . S
H1066 C1090 0.951 . S
H1067 C1092 0.951 . S
H1068 C1094 0.950 . S
H1069 C1095 0.950 . S
H1070 C1097 0.950 . S
H1071 C1100 0.950 . S
H1072 C1101 0.950 . S
H1073 C1103 0.950 . S
H1074 C1104 0.950 . S
C1075 H1057 0.951 . S
C1075 C1076 1.366 . S
C1075 C1077 1.388 . S
C1076 C1075 1.366 . S
C1076 C1080 1.385 . S
C1077 H1058 0.951 . S
C1077 C1075 1.388 . S
C1077 C1078 1.366 . S
C1078 C1077 1.366 . S
C1078 C1079 1.414 . S
C1078 C1081 1.499 . S
C1079 H1059 0.950 . S
C1079 C1078 1.414 . S
C1079 C1080 1.374 . S
C1080 H1060 0.950 . S
C1080 C1076 1.385 . S
C1080 C1079 1.374 . S
C1081 C1078 1.499 . S
C1081 C1082 1.373 . S
C1081 C1083 1.389 . S
C1082 H1061 0.950 . S
C1082 C1081 1.373 . S
C1082 C1098 1.377 . S
C1083 C1081 1.389 . S
C1083 C1084 1.524 . S
C1083 C1097 1.377 . S
C1084 C1083 1.524 . S
C1084 C1085 1.397 . S
C1084 C1089 1.363 . S
C1085 H1062 0.950 . S
C1085 C1084 1.397 . S
C1085 C1086 1.334 . S
C1086 H1063 0.950 . S
C1086 C1085 1.334 . S
C1086 C1087 1.287 . S
C1087 C1086 1.287 . S
C1087 C1088 1.524 . S
C1087 H1106 0.913 . S
C1088 H1064 0.950 . S
C1088 C1087 1.524 . S
C1088 C1089 1.415 . S
C1089 H1065 0.950 . S
C1089 C1084 1.363 . S
C1089 C1088 1.415 . S
C1090 H1066 0.951 . S
C1090 C1091 1.366 . S
C1090 C1092 1.388 . S
C1091 C1090 1.366 . S
C1091 C1095 1.385 . S
C1092 H1067 0.951 . S
C1092 C1090 1.388 . S
C1092 C1093 1.366 . S
C1093 C1092 1.366 . S
C1093 C1094 1.414 . S
C1093 C1096 1.499 . S
C1094 H1068 0.950 . S
C1094 C1093 1.414 . S
C1094 C1095 1.374 . S
C1095 H1069 0.950 . S
C1095 C1091 1.385 . S
C1095 C1094 1.374 . S
C1096 C1093 1.499 . S
C1096 C1097 1.373 . S
C1096 C1098 1.389 . S
C1097 H1070 0.950 . S
C1097 C1083 1.377 . S
C1097 C1096 1.373 . S
C1098 C1082 1.377 . S
C1098 C1096 1.389 . S
C1098 C1099 1.524 . S
C1099 C1098 1.524 . S
C1099 C1100 1.397 . S
C1099 C1104 1.363 . S
C1100 H1071 0.950 . S
C1100 C1099 1.397 . S
C1100 C1101 1.334 1_455 S
C1101 H1072 0.950 . S
C1101 C1100 1.334 1_655 S
C1101 C1102 1.287 . S
C1102 C1101 1.287 . S
C1102 C1103 1.524 1_655 S
C1102 H1105 0.999 . S
C1103 H1073 0.950 . S
C1103 C1102 1.524 1_455 S
C1103 C1104 1.415 . S
C1104 H1074 0.950 . S
C1104 C1099 1.363 . S
C1104 C1103 1.415 . S
H1105 C1102 0.999 . S
H1106 C1087 0.913 . S
H1107 C1125 0.951 . S
H1108 C1127 0.951 . S
H1109 C1129 0.950 . S
H1110 C1130 0.950 . S
H1111 C1132 0.950 . S
H1112 C1135 0.950 . S
H1113 C1136 0.950 . S
H1114 C1138 0.950 . S
H1115 C1139 0.950 . S
H1116 C1140 0.951 . S
H1117 C1142 0.951 . S
H1118 C1144 0.950 1_655 S
H1119 C1145 0.950 1_655 S
H1120 C1147 0.950 . S
H1121 C1150 0.950 . S
H1122 C1151 0.950 . S
H1123 C1153 0.950 . S
H1124 C1154 0.950 . S
C1125 H1107 0.951 . S
C1125 C1126 1.366 . S
C1125 C1127 1.388 . S
C1126 C1125 1.366 . S
C1126 C1130 1.385 . S
C1127 H1108 0.951 . S
C1127 C1125 1.388 . S
C1127 C1128 1.366 . S
C1128 C1127 1.366 . S
C1128 C1129 1.414 . S
C1128 C1131 1.499 . S
C1129 H1109 0.950 . S
C1129 C1128 1.414 . S
C1129 C1130 1.374 . S
C1130 H1110 0.950 . S
C1130 C1126 1.385 . S
C1130 C1129 1.374 . S
C1131 C1128 1.499 . S
C1131 C1132 1.373 . S
C1131 C1133 1.389 . S
C1132 H1111 0.950 . S
C1132 C1131 1.373 . S
C1132 C1148 1.377 . S
C1133 C1131 1.389 . S
C1133 C1134 1.524 . S
C1133 C1147 1.377 . S
C1134 C1133 1.524 . S
C1134 C1135 1.397 . S
C1134 C1139 1.363 1_455 S
C1135 H1112 0.950 . S
C1135 C1134 1.397 . S
C1135 C1136 1.334 . S
C1136 H1113 0.950 . S
C1136 C1135 1.334 . S
C1136 C1137 1.287 1_455 S
C1137 C1136 1.287 1_655 S
C1137 C1138 1.524 . S
C1137 H1156 0.913 . S
C1138 H1114 0.950 . S
C1138 C1137 1.524 . S
C1138 C1139 1.415 . S
C1139 H1115 0.950 . S
C1139 C1134 1.363 1_655 S
C1139 C1138 1.415 . S
C1140 H1116 0.951 . S
C1140 C1141 1.366 . S
C1140 C1142 1.388 . S
C1141 C1140 1.366 . S
C1141 C1145 1.385 . S
C1142 H1117 0.951 . S
C1142 C1140 1.388 . S
C1142 C1143 1.366 . S
C1143 C1142 1.366 . S
C1143 C1144 1.414 . S
C1143 C1146 1.499 . S
C1144 H1118 0.950 1_455 S
C1144 C1143 1.414 . S
C1144 C1145 1.374 . S
C1145 H1119 0.950 1_455 S
C1145 C1141 1.385 . S
C1145 C1144 1.374 . S
C1146 C1143 1.499 . S
C1146 C1147 1.373 . S
C1146 C1148 1.389 . S
C1147 H1120 0.950 . S
C1147 C1133 1.377 . S
C1147 C1146 1.373 . S
C1148 C1132 1.377 . S
C1148 C1146 1.389 . S
C1148 C1149 1.524 . S
C1149 C1148 1.524 . S
C1149 C1150 1.397 . S
C1149 C1154 1.363 . S
C1150 H1121 0.950 . S
C1150 C1149 1.397 . S
C1150 C1151 1.334 . S
C1151 H1122 0.950 . S
C1151 C1150 1.334 . S
C1151 C1152 1.287 . S
C1152 C1151 1.287 . S
C1152 C1153 1.524 . S
C1152 H1155 0.999 . S
C1153 H1123 0.950 . S
C1153 C1152 1.524 . S
C1153 C1154 1.415 . S
C1154 H1124 0.950 . S
C1154 C1149 1.363 . S
C1154 C1153 1.415 . S
H1155 C1152 0.999 . S
H1156 C1137 0.913 . S
H1157 C1175 0.951 . S
H1158 C1177 0.951 . S
H1159 C1179 0.950 . S
H1160 C1180 0.950 . S
H1161 C1182 0.950 . S
H1162 C1185 0.950 . S
H1163 C1186 0.950 . S
H1164 C1188 0.950 . S
H1165 C1189 0.950 . S
H1166 C1190 0.951 . S
H1167 C1192 0.951 . S
H1168 C1194 0.950 . S
H1169 C1195 0.950 . S
H1170 C1197 0.950 . S
H1171 C1200 0.950 . S
H1172 C1201 0.950 . S
H1173 C1203 0.950 . S
H1174 C1204 0.950 . S
C1175 H1157 0.951 . S
C1175 C1176 1.366 . S
C1175 C1177 1.388 . S
C1176 C1175 1.366 . S
C1176 C1180 1.385 . S
C1177 H1158 0.951 . S
C1177 C1175 1.388 . S
C1177 C1178 1.366 . S
C1178 C1177 1.366 . S
C1178 C1179 1.414 . S
C1178 C1181 1.499 . S
C1179 H1159 0.950 . S
C1179 C1178 1.414 . S
C1179 C1180 1.374 . S
C1180 H1160 0.950 . S
C1180 C1176 1.385 . S
C1180 C1179 1.374 . S
C1181 C1178 1.499 . S
C1181 C1182 1.373 . S
C1181 C1183 1.389 . S
C1182 H1161 0.950 . S
C1182 C1181 1.373 . S
C1182 C1198 1.377 . S
C1183 C1181 1.389 . S
C1183 C1184 1.524 . S
C1183 C1197 1.377 . S
C1184 C1183 1.524 . S
C1184 C1185 1.397 . S
C1184 C1189 1.363 . S
C1185 H1162 0.950 . S
C1185 C1184 1.397 . S
C1185 C1186 1.334 . S
C1186 H1163 0.950 . S
C1186 C1185 1.334 . S
C1186 C1187 1.287 . S
C1187 C1186 1.287 . S
C1187 C1188 1.524 . S
C1187 H1206 0.913 . S
C1188 H1164 0.950 . S
C1188 C1187 1.524 . S
C1188 C1189 1.415 . S
C1189 H1165 0.950 . S
C1189 C1184 1.363 . S
C1189 C1188 1.415 . S
C1190 H1166 0.951 . S
C1190 C1191 1.366 . S
C1190 C1192 1.388 . S
C1191 C1190 1.366 . S
C1191 C1195 1.385 . S
C1192 H1167 0.951 . S
C1192 C1190 1.388 . S
C1192 C1193 1.366 . S
C1193 C1192 1.366 . S
C1193 C1194 1.414 . S
C1193 C1196 1.499 . S
C1194 H1168 0.950 . S
C1194 C1193 1.414 . S
C1194 C1195 1.374 . S
C1195 H1169 0.950 . S
C1195 C1191 1.385 . S
C1195 C1194 1.374 . S
C1196 C1193 1.499 . S
C1196 C1197 1.373 . S
C1196 C1198 1.389 . S
C1197 H1170 0.950 . S
C1197 C1183 1.377 . S
C1197 C1196 1.373 . S
C1198 C1182 1.377 . S
C1198 C1196 1.389 . S
C1198 C1199 1.524 . S
C1199 C1198 1.524 . S
C1199 C1200 1.397 . S
C1199 C1204 1.363 . S
C1200 H1171 0.950 . S
C1200 C1199 1.397 . S
C1200 C1201 1.334 . S
C1201 H1172 0.950 . S
C1201 C1200 1.334 . S
C1201 C1202 1.287 . S
C1202 C1201 1.287 . S
C1202 C1203 1.524 . S
C1202 H1205 0.999 . S
C1203 H1173 0.950 . S
C1203 C1202 1.524 . S
C1203 C1204 1.415 . S
C1204 H1174 0.950 . S
C1204 C1199 1.363 . S
C1204 C1203 1.415 . S
H1205 C1202 0.999 . S
H1206 C1187 0.913 . S
H1207 C1225 0.951 . S
H1208 C1227 0.957 . S
H1209 C1229 0.950 . S
H1210 C1230 0.950 . S
H1211 C1232 0.950 . S
H1212 C1235 0.950 . S
H1213 C1236 0.950 . S
H1214 C1238 0.950 . S
H1215 C1239 0.950 . S
H1216 C1240 0.951 . S
H1217 C1242 0.930 1_545 S
H1218 C1244 0.950 . S
H1219 C1245 0.950 . S
H1220 C1247 0.950 . S
H1221 C1250 0.950 . S
H1222 C1251 0.950 . S
H1223 C1253 0.950 . S
H1224 C1254 0.950 . S
C1225 H1207 0.951 . S
C1225 C1226 1.366 . S
C1225 C1227 1.388 1_545 S
C1226 C1225 1.366 . S
C1226 C1230 1.385 . S
C1227 H1208 0.957 . S
C1227 C1225 1.388 1_565 S
C1227 C1228 1.359 1_565 S
C1228 C1227 1.359 1_545 S
C1228 C1229 1.414 . S
C1228 C1231 1.499 1_545 S
C1229 H1209 0.950 . S
C1229 C1228 1.414 . S
C1229 C1230 1.374 . S
C1230 H1210 0.950 . S
C1230 C1226 1.385 . S
C1230 C1229 1.374 . S
C1231 C1228 1.499 1_565 S
C1231 C1232 1.374 1_565 S
C1231 C1233 1.388 . S
C1232 H1211 0.950 . S
C1232 C1231 1.374 1_545 S
C1232 C1248 1.377 . S
C1233 C1231 1.388 . S
C1233 C1234 1.524 . S
C1233 C1247 1.377 . S
C1234 C1233 1.524 . S
C1234 C1235 1.397 . S
C1234 C1239 1.363 . S
C1235 H1212 0.950 . S
C1235 C1234 1.397 . S
C1235 C1236 1.334 . S
C1236 H1213 0.950 . S
C1236 C1235 1.334 . S
C1236 C1237 1.287 . S
C1237 C1236 1.287 . S
C1237 C1238 1.524 . S
C1237 H1256 0.913 . S
C1238 H1214 0.950 . S
C1238 C1237 1.524 . S
C1238 C1239 1.415 . S
C1239 H1215 0.950 . S
C1239 C1234 1.363 . S
C1239 C1238 1.415 . S
C1240 H1216 0.951 . S
C1240 C1241 1.366 . S
C1240 C1242 1.388 . S
C1241 C1240 1.366 . S
C1241 C1245 1.385 . S
C1242 H1217 0.930 1_565 S
C1242 C1240 1.388 . S
C1242 C1243 1.366 . S
C1243 C1242 1.366 . S
C1243 C1244 1.414 . S
C1243 C1246 1.499 . S
C1244 H1218 0.950 . S
C1244 C1243 1.414 . S
C1244 C1245 1.374 . S
C1245 H1219 0.950 . S
C1245 C1241 1.385 . S
C1245 C1244 1.374 . S
C1246 C1243 1.499 . S
C1246 C1247 1.373 . S
C1246 C1248 1.389 1_565 S
C1247 H1220 0.950 . S
C1247 C1233 1.377 . S
C1247 C1246 1.373 . S
C1248 C1232 1.377 . S
C1248 C1246 1.389 1_545 S
C1248 C1249 1.524 . S
C1249 C1248 1.524 . S
C1249 C1250 1.397 . S
C1249 C1254 1.363 . S
C1250 H1221 0.950 . S
C1250 C1249 1.397 . S
C1250 C1251 1.334 . S
C1251 H1222 0.950 . S
C1251 C1250 1.334 . S
C1251 C1252 1.287 . S
C1252 C1251 1.287 . S
C1252 C1253 1.524 . S
C1252 H1255 0.999 . S
C1253 H1223 0.950 . S
C1253 C1252 1.524 . S
C1253 C1254 1.415 . S
C1254 H1224 0.950 . S
C1254 C1249 1.363 . S
C1254 C1253 1.415 . S
H1255 C1252 0.999 . S
H1256 C1237 0.913 . S
H1257 C1275 0.951 . S
H1258 C1277 0.951 . S
H1259 C1279 0.950 . S
H1260 C1280 0.950 . S
H1261 C1282 0.950 . S
H1262 C1285 0.950 . S
H1263 C1286 0.950 . S
H1264 C1288 0.950 . S
H1265 C1289 0.950 . S
H1266 C1290 0.951 . S
H1267 C1292 0.951 . S
H1268 C1294 0.950 . S
H1269 C1295 0.950 . S
H1270 C1297 0.950 . S
H1271 C1300 0.950 . S
H1272 C1301 0.950 . S
H1273 C1303 0.950 . S
H1274 C1304 0.950 . S
C1275 H1257 0.951 . S
C1275 C1276 1.366 . S
C1275 C1277 1.388 . S
C1276 C1275 1.366 . S
C1276 C1280 1.385 . S
C1277 H1258 0.951 . S
C1277 C1275 1.388 . S
C1277 C1278 1.366 . S
C1278 C1277 1.366 . S
C1278 C1279 1.414 . S
C1278 C1281 1.499 . S
C1279 H1259 0.950 . S
C1279 C1278 1.414 . S
C1279 C1280 1.374 . S
C1280 H1260 0.950 . S
C1280 C1276 1.385 . S
C1280 C1279 1.374 . S
C1281 C1278 1.499 . S
C1281 C1282 1.373 . S
C1281 C1283 1.389 . S
C1282 H1261 0.950 . S
C1282 C1281 1.373 . S
C1282 C1298 1.377 . S
C1283 C1281 1.389 . S
C1283 C1284 1.524 . S
C1283 C1297 1.377 . S
C1284 C1283 1.524 . S
C1284 C1285 1.397 1_545 S
C1284 C1289 1.363 . S
C1285 H1262 0.950 . S
C1285 C1284 1.397 1_565 S
C1285 C1286 1.334 . S
C1286 H1263 0.950 . S
C1286 C1285 1.334 . S
C1286 C1287 1.287 . S
C1287 C1286 1.287 . S
C1287 C1288 1.524 . S
C1287 H1306 0.913 . S
C1288 H1264 0.950 . S
C1288 C1287 1.524 . S
C1288 C1289 1.415 1_565 S
C1289 H1265 0.950 . S
C1289 C1284 1.363 . S
C1289 C1288 1.415 1_545 S
C1290 H1266 0.951 . S
C1290 C1291 1.366 . S
C1290 C1292 1.388 . S
C1291 C1290 1.366 . S
C1291 C1295 1.385 . S
C1292 H1267 0.951 . S
C1292 C1290 1.388 . S
C1292 C1293 1.366 . S
C1293 C1292 1.366 . S
C1293 C1294 1.414 . S
C1293 C1296 1.499 . S
C1294 H1268 0.950 . S
C1294 C1293 1.414 . S
C1294 C1295 1.374 . S
C1295 H1269 0.950 . S
C1295 C1291 1.385 . S
C1295 C1294 1.374 . S
C1296 C1293 1.499 . S
C1296 C1297 1.373 . S
C1296 C1298 1.389 . S
C1297 H1270 0.950 . S
C1297 C1283 1.377 . S
C1297 C1296 1.373 . S
C1298 C1282 1.377 . S
C1298 C1296 1.389 . S
C1298 C1299 1.524 . S
C1299 C1298 1.524 . S
C1299 C1300 1.397 . S
C1299 C1304 1.363 . S
C1300 H1271 0.950 . S
C1300 C1299 1.397 . S
C1300 C1301 1.334 . S
C1301 H1272 0.950 . S
C1301 C1300 1.334 . S
C1301 C1302 1.287 . S
C1302 C1301 1.287 . S
C1302 C1303 1.524 . S
C1302 H1305 0.999 . S
C1303 H1273 0.950 . S
C1303 C1302 1.524 . S
C1303 C1304 1.415 . S
C1304 H1274 0.950 . S
C1304 C1299 1.363 . S
C1304 C1303 1.415 . S
H1305 C1302 0.999 . S
H1306 C1287 0.913 . S
H1307 C1325 0.951 . S
H1308 C1327 0.951 . S
H1309 C1329 0.950 . S
H1310 C1330 0.950 . S
H1311 C1332 0.950 . S
H1312 C1335 0.950 1_455 S
H1313 C1336 0.950 . S
H1314 C1338 0.950 . S
H1315 C1339 0.950 . S
H1316 C1340 0.951 . S
H1317 C1342 0.951 . S
H1318 C1344 0.950 . S
H1319 C1345 0.950 . S
H1320 C1347 0.950 . S
H1321 C1350 0.950 . S
H1322 C1351 0.950 . S
H1323 C1353 0.950 1_455 S
H1324 C1354 0.950 1_455 S
C1325 H1307 0.951 . S
C1325 C1326 1.375 . S
C1325 C1327 1.388 . S
C1326 C1325 1.375 . S
C1326 C1330 1.376 1_655 S
C1327 H1308 0.951 . S
C1327 C1325 1.388 . S
C1327 C1328 1.366 . S
C1328 C1327 1.366 . S
C1328 C1329 1.414 1_655 S
C1328 C1331 1.499 . S
C1329 H1309 0.950 . S
C1329 C1328 1.414 1_455 S
C1329 C1330 1.374 . S
C1330 H1310 0.950 . S
C1330 C1326 1.376 1_455 S
C1330 C1329 1.374 . S
C1331 C1328 1.499 . S
C1331 C1332 1.373 . S
C1331 C1333 1.389 . S
C1332 H1311 0.950 . S
C1332 C1331 1.373 . S
C1332 C1348 1.377 . S
C1333 C1331 1.389 . S
C1333 C1334 1.524 . S
C1333 C1347 1.377 . S
C1334 C1333 1.524 . S
C1334 C1335 1.397 . S
C1334 C1339 1.363 . S
C1335 H1312 0.950 1_655 S
C1335 C1334 1.397 . S
C1335 C1336 1.334 1_655 S
C1336 H1313 0.950 . S
C1336 C1335 1.334 1_455 S
C1336 C1337 1.287 1_455 S
C1337 C1336 1.287 1_655 S
C1337 C1338 1.524 . S
C1337 H1356 0.913 . S
C1338 H1314 0.950 . S
C1338 C1337 1.524 . S
C1338 C1339 1.415 . S
C1339 H1315 0.950 . S
C1339 C1334 1.363 . S
C1339 C1338 1.415 . S
C1340 H1316 0.951 . S
C1340 C1341 1.366 . S
C1340 C1342 1.388 . S
C1341 C1340 1.366 . S
C1341 C1345 1.385 . S
C1342 H1317 0.951 . S
C1342 C1340 1.388 . S
C1342 C1343 1.366 . S
C1343 C1342 1.366 . S
C1343 C1344 1.414 . S
C1343 C1346 1.499 . S
C1344 H1318 0.950 . S
C1344 C1343 1.414 . S
C1344 C1345 1.374 . S
C1345 H1319 0.950 . S
C1345 C1341 1.385 . S
C1345 C1344 1.374 . S
C1346 C1343 1.499 . S
C1346 C1347 1.373 . S
C1346 C1348 1.389 . S
C1347 H1320 0.950 . S
C1347 C1333 1.377 . S
C1347 C1346 1.373 . S
C1348 C1332 1.377 . S
C1348 C1346 1.389 . S
C1348 C1349 1.524 . S
C1349 C1348 1.524 . S
C1349 C1350 1.397 . S
C1349 C1354 1.363 . S
C1350 H1321 0.950 . S
C1350 C1349 1.397 . S
C1350 C1351 1.334 . S
C1351 H1322 0.950 . S
C1351 C1350 1.334 . S
C1351 C1352 1.287 . S
C1352 C1351 1.287 . S
C1352 C1353 1.524 . S
C1352 H1355 0.999 . S
C1353 H1323 0.950 1_655 S
C1353 C1352 1.524 . S
C1353 C1354 1.415 . S
C1354 H1324 0.950 1_655 S
C1354 C1349 1.363 . S
C1354 C1353 1.415 . S
H1355 C1352 0.999 . S
H1356 C1337 0.913 . S
H1357 C1375 0.951 . S
H1358 C1377 0.951 . S
H1359 C1379 0.950 . S
H1360 C1380 0.950 . S
H1361 C1382 0.950 . S
H1362 C1385 0.950 . S
H1363 C1386 0.950 . S
H1364 C1388 0.950 . S
H1365 C1389 0.950 . S
H1366 C1390 0.951 . S
H1367 C1392 0.951 . S
H1368 C1394 0.950 . S
H1369 C1395 0.950 . S
H1370 C1397 0.950 . S
H1371 C1400 0.950 . S
H1372 C1401 0.950 . S
H1373 C1403 0.950 . S
H1374 C1404 0.950 . S
C1375 H1357 0.951 . S
C1375 C1376 1.366 . S
C1375 C1377 1.388 . S
C1376 C1375 1.366 . S
C1376 C1380 1.385 . S
C1377 H1358 0.951 . S
C1377 C1375 1.388 . S
C1377 C1378 1.366 . S
C1378 C1377 1.366 . S
C1378 C1379 1.414 . S
C1378 C1381 1.499 . S
C1379 H1359 0.950 . S
C1379 C1378 1.414 . S
C1379 C1380 1.374 . S
C1380 H1360 0.950 . S
C1380 C1376 1.385 . S
C1380 C1379 1.374 . S
C1381 C1378 1.499 . S
C1381 C1382 1.373 . S
C1381 C1383 1.389 . S
C1382 H1361 0.950 . S
C1382 C1381 1.373 . S
C1382 C1398 1.377 . S
C1383 C1381 1.389 . S
C1383 C1384 1.524 . S
C1383 C1397 1.377 . S
C1384 C1383 1.524 . S
C1384 C1385 1.397 . S
C1384 C1389 1.363 . S
C1385 H1362 0.950 . S
C1385 C1384 1.397 . S
C1385 C1386 1.334 . S
C1386 H1363 0.950 . S
C1386 C1385 1.334 . S
C1386 C1387 1.287 . S
C1387 C1386 1.287 . S
C1387 C1388 1.524 . S
C1387 H1406 0.913 . S
C1388 H1364 0.950 . S
C1388 C1387 1.524 . S
C1388 C1389 1.415 . S
C1389 H1365 0.950 . S
C1389 C1384 1.363 . S
C1389 C1388 1.415 . S
C1390 H1366 0.951 . S
C1390 C1391 1.366 . S
C1390 C1392 1.388 . S
C1391 C1390 1.366 . S
C1391 C1395 1.385 . S
C1392 H1367 0.951 . S
C1392 C1390 1.388 . S
C1392 C1393 1.366 . S
C1393 C1392 1.366 . S
C1393 C1394 1.414 . S
C1393 C1396 1.499 . S
C1394 H1368 0.950 . S
C1394 C1393 1.414 . S
C1394 C1395 1.374 . S
C1395 H1369 0.950 . S
C1395 C1391 1.385 . S
C1395 C1394 1.374 . S
C1396 C1393 1.499 . S
C1396 C1397 1.373 . S
C1396 C1398 1.389 . S
C1397 H1370 0.950 . S
C1397 C1383 1.377 . S
C1397 C1396 1.373 . S
C1398 C1382 1.377 . S
C1398 C1396 1.389 . S
C1398 C1399 1.524 . S
C1399 C1398 1.524 . S
C1399 C1400 1.397 . S
C1399 C1404 1.363 . S
C1400 H1371 0.950 . S
C1400 C1399 1.397 . S
C1400 C1401 1.334 . S
C1401 H1372 0.950 . S
C1401 C1400 1.334 . S
C1401 C1402 1.287 . S
C1402 C1401 1.287 . S
C1402 C1403 1.524 . S
C1402 H1405 0.999 . S
C1403 H1373 0.950 . S
C1403 C1402 1.524 . S
C1403 C1404 1.415 . S
C1404 H1374 0.950 . S
C1404 C1399 1.363 . S
C1404 C1403 1.415 . S
H1405 C1402 0.999 . S
H1406 C1387 0.913 . S
H1407 C1425 0.951 . S
H1408 C1427 0.951 . S
H1409 C1429 0.950 . S
H1410 C1430 0.950 . S
H1411 C1432 0.950 . S
H1412 C1435 0.950 . S
H1413 C1436 0.950 . S
H1414 C1438 0.950 . S
H1415 C1439 0.950 . S
H1416 C1440 0.951 . S
H1417 C1442 0.951 . S
H1418 C1444 0.950 . S
H1419 C1445 0.950 . S
H1420 C1447 0.950 . S
H1421 C1450 0.950 . S
H1422 C1451 0.950 . S
H1423 C1453 0.950 . S
H1424 C1454 0.950 . S
C1425 H1407 0.951 . S
C1425 C1426 1.366 . S
C1425 C1427 1.388 . S
C1426 C1425 1.366 . S
C1426 C1430 1.385 . S
C1427 H1408 0.951 . S
C1427 C1425 1.388 . S
C1427 C1428 1.366 . S
C1428 C1427 1.366 . S
C1428 C1429 1.414 . S
C1428 C1431 1.499 . S
C1429 H1409 0.950 . S
C1429 C1428 1.414 . S
C1429 C1430 1.374 . S
C1430 H1410 0.950 . S
C1430 C1426 1.385 . S
C1430 C1429 1.374 . S
C1431 C1428 1.499 . S
C1431 C1432 1.373 . S
C1431 C1433 1.389 . S
C1432 H1411 0.950 . S
C1432 C1431 1.373 . S
C1432 C1448 1.377 . S
C1433 C1431 1.389 . S
C1433 C1434 1.524 . S
C1433 C1447 1.377 . S
C1434 C1433 1.524 . S
C1434 C1435 1.397 . S
C1434 C1439 1.363 . S
C1435 H1412 0.950 . S
C1435 C1434 1.397 . S
C1435 C1436 1.334 . S
C1436 H1413 0.950 . S
C1436 C1435 1.334 . S
C1436 C1437 1.287 . S
C1437 C1436 1.287 . S
C1437 C1438 1.524 . S
C1437 H1456 0.913 . S
C1438 H1414 0.950 . S
C1438 C1437 1.524 . S
C1438 C1439 1.415 . S
C1439 H1415 0.950 . S
C1439 C1434 1.363 . S
C1439 C1438 1.415 . S
C1440 H1416 0.951 . S
C1440 C1441 1.366 . S
C1440 C1442 1.388 . S
C1441 C1440 1.366 . S
C1441 C1445 1.385 . S
C1442 H1417 0.951 . S
C1442 C1440 1.388 . S
C1442 C1443 1.366 . S
C1443 C1442 1.366 . S
C1443 C1444 1.414 . S
C1443 C1446 1.499 . S
C1444 H1418 0.950 . S
C1444 C1443 1.414 . S
C1444 C1445 1.374 . S
C1445 H1419 0.950 . S
C1445 C1441 1.385 . S
C1445 C1444 1.374 . S
C1446 C1443 1.499 . S
C1446 C1447 1.373 . S
C1446 C1448 1.389 . S
C1447 H1420 0.950 . S
C1447 C1433 1.377 . S
C1447 C1446 1.373 . S
C1448 C1432 1.377 . S
C1448 C1446 1.389 . S
C1448 C1449 1.524 . S
C1449 C1448 1.524 . S
C1449 C1450 1.397 . S
C1449 C1454 1.363 . S
C1450 H1421 0.950 . S
C1450 C1449 1.397 . S
C1450 C1451 1.334 . S
C1451 H1422 0.950 . S
C1451 C1450 1.334 . S
C1451 C1452 1.287 . S
C1452 C1451 1.287 . S
C1452 C1453 1.524 . S
C1452 H1455 0.999 . S
C1453 H1423 0.950 . S
C1453 C1452 1.524 . S
C1453 C1454 1.415 . S
C1454 H1424 0.950 . S
C1454 C1449 1.363 . S
C1454 C1453 1.415 . S
H1455 C1452 0.999 . S
H1456 C1437 0.913 . S
H1457 C1475 0.951 . S
H1458 C1477 0.951 . S
H1459 C1479 0.950 . S
H1460 C1480 0.950 . S
H1461 C1482 0.950 . S
H1462 C1485 0.950 . S
H1463 C1486 0.950 . S
H1464 C1488 0.950 . S
H1465 C1489 0.950 . S
H1466 C1490 0.951 . S
H1467 C1492 0.951 . S
H1468 C1494 0.950 . S
H1469 C1495 0.950 . S
H1470 C1497 0.950 . S
H1471 C1500 0.950 . S
H1472 C1501 0.950 . S
H1473 C1503 0.950 . S
H1474 C1504 0.950 . S
C1475 H1457 0.951 . S
C1475 C1476 1.366 1_545 S
C1475 C1477 1.388 . S
C1476 C1475 1.366 1_565 S
C1476 C1480 1.385 . S
C1477 H1458 0.951 . S
C1477 C1475 1.388 . S
C1477 C1478 1.366 . S
C1478 C1477 1.366 . S
C1478 C1479 1.414 1_545 S
C1478 C1481 1.499 . S
C1479 H1459 0.950 . S
C1479 C1478 1.414 1_565 S
C1479 C1480 1.374 . S
C1480 H1460 0.950 . S
C1480 C1476 1.385 . S
C1480 C1479 1.374 . S
C1481 C1478 1.499 . S
C1481 C1482 1.373 . S
C1481 C1483 1.389 . S
C1482 H1461 0.950 . S
C1482 C1481 1.373 . S
C1482 C1498 1.377 . S
C1483 C1481 1.389 . S
C1483 C1484 1.524 . S
C1483 C1497 1.377 . S
C1484 C1483 1.524 . S
C1484 C1485 1.397 1_545 S
C1484 C1489 1.363 . S
C1485 H1462 0.950 . S
C1485 C1484 1.397 1_565 S
C1485 C1486 1.334 . S
C1486 H1463 0.950 . S
C1486 C1485 1.334 . S
C1486 C1487 1.287 . S
C1487 C1486 1.287 . S
C1487 C1488 1.524 1_565 S
C1487 H1506 0.913 . S
C1488 H1464 0.950 . S
C1488 C1487 1.524 1_545 S
C1488 C1489 1.415 . S
C1489 H1465 0.950 . S
C1489 C1484 1.363 . S
C1489 C1488 1.415 . S
C1490 H1466 0.951 . S
C1490 C1491 1.366 . S
C1490 C1492 1.388 . S
C1491 C1490 1.366 . S
C1491 C1495 1.385 . S
C1492 H1467 0.951 . S
C1492 C1490 1.388 . S
C1492 C1493 1.366 . S
C1493 C1492 1.366 . S
C1493 C1494 1.414 . S
C1493 C1496 1.499 . S
C1494 H1468 0.950 . S
C1494 C1493 1.414 . S
C1494 C1495 1.374 . S
C1495 H1469 0.950 . S
C1495 C1491 1.385 . S
C1495 C1494 1.374 . S
C1496 C1493 1.499 . S
C1496 C1497 1.373 . S
C1496 C1498 1.389 . S
C1497 H1470 0.950 . S
C1497 C1483 1.377 . S
C1497 C1496 1.373 . S
C1498 C1482 1.377 . S
C1498 C1496 1.389 . S
C1498 C1499 1.524 . S
C1499 C1498 1.524 . S
C1499 C1500 1.397 . S
C1499 C1504 1.363 . S
C1500 H1471 0.950 . S
C1500 C1499 1.397 . S
C1500 C1501 1.334 . S
C1501 H1472 0.950 . S
C1501 C1500 1.334 . S
C1501 C1502 1.287 . S
C1502 C1501 1.287 . S
C1502 C1503 1.524 . S
C1502 H1505 0.999 . S
C1503 H1473 0.950 . S
C1503 C1502 1.524 . S
C1503 C1504 1.415 . S
C1504 H1474 0.950 . S
C1504 C1499 1.363 . S
C1504 C1503 1.415 . S
H1505 C1502 0.999 . S
H1506 C1487 0.913 . S
H1507 C1525 0.951 . S
H1508 C1527 0.951 . S
H1509 C1529 0.950 1_455 S
H1510 C1530 0.950 . S
H1511 C1532 0.950 . S
H1512 C1535 0.950 . S
H1513 C1536 0.950 . S
H1514 C1538 0.950 . S
H1515 C1539 0.950 . S
H1516 C1540 0.951 . S
H1517 C1542 0.951 . S
H1518 C1544 0.950 . S
H1519 C1545 0.950 . S
H1520 C1547 0.950 . S
H1521 C1550 0.950 . S
H1522 C1551 0.950 . S
H1523 C1553 0.950 . S
H1524 C1554 0.950 . S
C1525 H1507 0.951 . S
C1525 C1526 1.366 . S
C1525 C1527 1.388 . S
C1526 C1525 1.366 . S
C1526 C1530 1.385 . S
C1527 H1508 0.951 . S
C1527 C1525 1.388 . S
C1527 C1528 1.366 . S
C1528 C1527 1.366 . S
C1528 C1529 1.414 . S
C1528 C1531 1.499 . S
C1529 H1509 0.950 1_655 S
C1529 C1528 1.414 . S
C1529 C1530 1.374 . S
C1530 H1510 0.950 . S
C1530 C1526 1.385 . S
C1530 C1529 1.374 . S
C1531 C1528 1.499 . S
C1531 C1532 1.373 1_655 S
C1531 C1533 1.389 . S
C1532 H1511 0.950 . S
C1532 C1531 1.373 1_455 S
C1532 C1548 1.377 . S
C1533 C1531 1.389 . S
C1533 C1534 1.524 . S
C1533 C1547 1.377 . S
C1534 C1533 1.524 . S
C1534 C1535 1.397 . S
C1534 C1539 1.363 . S
C1535 H1512 0.950 . S
C1535 C1534 1.397 . S
C1535 C1536 1.334 . S
C1536 H1513 0.950 . S
C1536 C1535 1.334 . S
C1536 C1537 1.287 . S
C1537 C1536 1.287 . S
C1537 C1538 1.524 . S
C1537 H1556 0.913 . S
C1538 H1514 0.950 . S
C1538 C1537 1.524 . S
C1538 C1539 1.415 . S
C1539 H1515 0.950 . S
C1539 C1534 1.363 . S
C1539 C1538 1.415 . S
C1540 H1516 0.951 . S
C1540 C1541 1.366 . S
C1540 C1542 1.388 . S
C1541 C1540 1.366 . S
C1541 C1545 1.385 . S
C1542 H1517 0.951 . S
C1542 C1540 1.388 . S
C1542 C1543 1.366 . S
C1543 C1542 1.366 . S
C1543 C1544 1.414 . S
C1543 C1546 1.499 . S
C1544 H1518 0.950 . S
C1544 C1543 1.414 . S
C1544 C1545 1.374 . S
C1545 H1519 0.950 . S
C1545 C1541 1.385 . S
C1545 C1544 1.374 . S
C1546 C1543 1.499 . S
C1546 C1547 1.373 1_455 S
C1546 C1548 1.389 . S
C1547 H1520 0.950 . S
C1547 C1533 1.377 . S
C1547 C1546 1.373 1_655 S
C1548 C1532 1.377 . S
C1548 C1546 1.389 . S
C1548 C1549 1.524 . S
C1549 C1548 1.524 . S
C1549 C1550 1.397 . S
C1549 C1554 1.363 . S
C1550 H1521 0.950 . S
C1550 C1549 1.397 . S
C1550 C1551 1.334 . S
C1551 H1522 0.950 . S
C1551 C1550 1.334 . S
C1551 C1552 1.287 . S
C1552 C1551 1.287 . S
C1552 C1553 1.524 . S
C1552 H1555 0.999 . S
C1553 H1523 0.950 . S
C1553 C1552 1.524 . S
C1553 C1554 1.415 . S
C1554 H1524 0.950 . S
C1554 C1549 1.363 . S
C1554 C1553 1.415 . S
H1555 C1552 0.999 . S
H1556 C1537 0.913 . S
C226 C44 0.862 . S
C241 C17 0.848 . S
C276 C62 1.155 . S
C291 C40 1.108 . S
C326 C64 0.988 . S
C341 C21 0.986 . S
C376 C63 0.906 . S
C391 C39 0.931 . S
C426 C67 0.499 . S
C441 C18 0.488 . S
C476 C16 1.002 . S
C491 C41 0.994 . S
C526 C86 0.981 . S
C541 C113 0.999 . S
C576 C136 1.139 . S
C591 C109 1.106 . S
C626 C132 0.781 1_655 S
C641 C90 0.784 . S
C676 C108 0.943 . S
C691 C133 0.937 . S
C726 C131 0.588 . S
C741 C87 0.596 . S
C776 C110 0.727 . S
C791 C85 0.726 . S
C826 C182 0.727 . S
C841 C155 0.730 . S
C876 C178 1.200 . S
C891 C200 1.248 . S
C926 C202 0.808 . S
C941 C159 0.808 . S
C976 C201 0.741 . S
C991 C177 0.738 . S
C1026 C205 0.594 . S
C1041 C156 0.586 . S
C1076 C154 0.875 . S
C1091 C179 0.871 . S
C1126 C134 1.570 . S
C1141 C20 1.626 . S
C1176 C88 1.801 . S
C1191 C43 1.885 . S
C1226 C65 1.655 . S
C1241 C111 1.641 . S
C1276 C66 1.586 . S
C1291 C158 1.586 . S
C1326 C19 1.666 . S
C1341 C181 1.740 . S
C1376 C203 1.799 . S
C1391 C42 1.797 . S
C1426 C89 1.753 . S
C1441 C204 1.752 . S
C1476 C112 1.594 . S
C1491 C157 1.536 . S
C1526 C180 1.757 . S
C1541 C135 1.828 . S
