# Generated by pormake.
# Topology wmi, (6)-cn, num edge types: 1
# Building blocks:
#     Node 0, Type 0, BuildingBlock: JUFBIX_clean_sbu_0, # of connection points: 6
#     Node 1, Type 0, BuildingBlock: JUFBIX_clean_sbu_0, # of connection points: 6
#     Node 2, Type 0, BuildingBlock: JUFBIX_clean_sbu_0, # of connection points: 6
#     Node 3, Type 0, BuildingBlock: JUFBIX_clean_sbu_0, # of connection points: 6
#     Node 4, Type 0, BuildingBlock: JUFBIX_clean_sbu_0, # of connection points: 6
#     Node 5, Type 0, BuildingBlock: JUFBIX_clean_sbu_0, # of connection points: 6
#     Node 6, Type 0, BuildingBlock: JUFBIX_clean_sbu_0, # of connection points: 6
#     Node 7, Type 0, BuildingBlock: JUFBIX_clean_sbu_0, # of connection points: 6
#     Node 8, Type 0, BuildingBlock: JUFBIX_clean_sbu_0, # of connection points: 6
#     Node 9, Type 0, BuildingBlock: JUFBIX_clean_sbu_0, # of connection points: 6
#     Node 10, Type 0, BuildingBlock: JUFBIX_clean_sbu_0, # of connection points: 6
#     Node 11, Type 0, BuildingBlock: JUFBIX_clean_sbu_0, # of connection points: 6
#     Node 12, Type 0, BuildingBlock: JUFBIX_clean_sbu_0, # of connection points: 6
#     Node 13, Type 0, BuildingBlock: JUFBIX_clean_sbu_0, # of connection points: 6
#     Node 14, Type 0, BuildingBlock: JUFBIX_clean_sbu_0, # of connection points: 6
#     Node 15, Type 0, BuildingBlock: JUFBIX_clean_sbu_0, # of connection points: 6
#     Node 16, Type 0, BuildingBlock: JUFBIX_clean_sbu_0, # of connection points: 6
#     Node 17, Type 0, BuildingBlock: JUFBIX_clean_sbu_0, # of connection points: 6
#     Edge 18, Type (0, 0), BuildingBlock: ZUJKAS_clean_linker_0, # of connection points: 2
#     Edge 19, Type (0, 0), BuildingBlock: ZUJKAS_clean_linker_0, # of connection points: 2
#     Edge 20, Type (0, 0), BuildingBlock: ZUJKAS_clean_linker_0, # of connection points: 2
#     Edge 21, Type (0, 0), BuildingBlock: ZUJKAS_clean_linker_0, # of connection points: 2
#     Edge 22, Type (0, 0), BuildingBlock: ZUJKAS_clean_linker_0, # of connection points: 2
#     Edge 23, Type (0, 0), BuildingBlock: ZUJKAS_clean_linker_0, # of connection points: 2
#     Edge 24, Type (0, 0), BuildingBlock: ZUJKAS_clean_linker_0, # of connection points: 2
#     Edge 25, Type (0, 0), BuildingBlock: ZUJKAS_clean_linker_0, # of connection points: 2
#     Edge 26, Type (0, 0), BuildingBlock: ZUJKAS_clean_linker_0, # of connection points: 2
#     Edge 27, Type (0, 0), BuildingBlock: ZUJKAS_clean_linker_0, # of connection points: 2
#     Edge 28, Type (0, 0), BuildingBlock: ZUJKAS_clean_linker_0, # of connection points: 2
#     Edge 29, Type (0, 0), BuildingBlock: ZUJKAS_clean_linker_0, # of connection points: 2
#     Edge 30, Type (0, 0), BuildingBlock: ZUJKAS_clean_linker_0, # of connection points: 2
#     Edge 31, Type (0, 0), BuildingBlock: ZUJKAS_clean_linker_0, # of connection points: 2
#     Edge 32, Type (0, 0), BuildingBlock: ZUJKAS_clean_linker_0, # of connection points: 2
#     Edge 33, Type (0, 0), BuildingBlock: ZUJKAS_clean_linker_0, # of connection points: 2
#     Edge 34, Type (0, 0), BuildingBlock: ZUJKAS_clean_linker_0, # of connection points: 2
#     Edge 35, Type (0, 0), BuildingBlock: ZUJKAS_clean_linker_0, # of connection points: 2
#     Edge 36, Type (0, 0), BuildingBlock: ZUJKAS_clean_linker_0, # of connection points: 2
#     Edge 37, Type (0, 0), BuildingBlock: ZUJKAS_clean_linker_0, # of connection points: 2
#     Edge 38, Type (0, 0), BuildingBlock: ZUJKAS_clean_linker_0, # of connection points: 2
#     Edge 39, Type (0, 0), BuildingBlock: ZUJKAS_clean_linker_0, # of connection points: 2
#     Edge 40, Type (0, 0), BuildingBlock: ZUJKAS_clean_linker_0, # of connection points: 2
#     Edge 41, Type (0, 0), BuildingBlock: ZUJKAS_clean_linker_0, # of connection points: 2
#     Edge 42, Type (0, 0), BuildingBlock: ZUJKAS_clean_linker_0, # of connection points: 2
#     Edge 43, Type (0, 0), BuildingBlock: ZUJKAS_clean_linker_0, # of connection points: 2
#     Edge 44, Type (0, 0), BuildingBlock: ZUJKAS_clean_linker_0, # of connection points: 2
#     Edge 45, Type (0, 0), BuildingBlock: ZUJKAS_clean_linker_0, # of connection points: 2
#     Edge 46, Type (0, 0), BuildingBlock: ZUJKAS_clean_linker_0, # of connection points: 2
#     Edge 47, Type (0, 0), BuildingBlock: ZUJKAS_clean_linker_0, # of connection points: 2
#     Edge 48, Type (0, 0), BuildingBlock: ZUJKAS_clean_linker_0, # of connection points: 2
#     Edge 49, Type (0, 0), BuildingBlock: ZUJKAS_clean_linker_0, # of connection points: 2
#     Edge 50, Type (0, 0), BuildingBlock: ZUJKAS_clean_linker_0, # of connection points: 2
#     Edge 51, Type (0, 0), BuildingBlock: ZUJKAS_clean_linker_0, # of connection points: 2
#     Edge 52, Type (0, 0), BuildingBlock: ZUJKAS_clean_linker_0, # of connection points: 2
#     Edge 53, Type (0, 0), BuildingBlock: ZUJKAS_clean_linker_0, # of connection points: 2
#     Edge 54, Type (0, 0), BuildingBlock: ZUJKAS_clean_linker_0, # of connection points: 2
#     Edge 55, Type (0, 0), BuildingBlock: ZUJKAS_clean_linker_0, # of connection points: 2
#     Edge 56, Type (0, 0), BuildingBlock: ZUJKAS_clean_linker_0, # of connection points: 2
#     Edge 57, Type (0, 0), BuildingBlock: ZUJKAS_clean_linker_0, # of connection points: 2
#     Edge 58, Type (0, 0), BuildingBlock: ZUJKAS_clean_linker_0, # of connection points: 2
#     Edge 59, Type (0, 0), BuildingBlock: ZUJKAS_clean_linker_0, # of connection points: 2
#     Edge 60, Type (0, 0), BuildingBlock: ZUJKAS_clean_linker_0, # of connection points: 2
#     Edge 61, Type (0, 0), BuildingBlock: ZUJKAS_clean_linker_0, # of connection points: 2
#     Edge 62, Type (0, 0), BuildingBlock: ZUJKAS_clean_linker_0, # of connection points: 2
#     Edge 63, Type (0, 0), BuildingBlock: ZUJKAS_clean_linker_0, # of connection points: 2
#     Edge 64, Type (0, 0), BuildingBlock: ZUJKAS_clean_linker_0, # of connection points: 2
#     Edge 65, Type (0, 0), BuildingBlock: ZUJKAS_clean_linker_0, # of connection points: 2
#     Edge 66, Type (0, 0), BuildingBlock: ZUJKAS_clean_linker_0, # of connection points: 2
#     Edge 67, Type (0, 0), BuildingBlock: ZUJKAS_clean_linker_0, # of connection points: 2
#     Edge 68, Type (0, 0), BuildingBlock: ZUJKAS_clean_linker_0, # of connection points: 2
#     Edge 69, Type (0, 0), BuildingBlock: ZUJKAS_clean_linker_0, # of connection points: 2
#     Edge 70, Type (0, 0), BuildingBlock: ZUJKAS_clean_linker_0, # of connection points: 2
#     Edge 71, Type (0, 0), BuildingBlock: ZUJKAS_clean_linker_0, # of connection points: 2
# Relax obj value: 0.289
# Max RMSD: 0.233
# Mean RMSD: 0.233
data_MOF--net-wmi--node1-JUFBIX_clean_sbu_0--edge1-ZUJKAS_clean_linker_0
_symmetry_space_group_name_H-M    P1
_symmetry_Int_Tables_number       1
_symmetry_cell_setting            triclinic
loop_
_symmetry_equiv_pos_as_xyz
'x, y, z'
_cell_length_a     41.685081
_cell_length_b     41.646202
_cell_length_c     110.09154
_cell_angle_alpha  89.994632
_cell_angle_beta   89.983663
_cell_angle_gamma 120.01433
loop_
_atom_site_label
_atom_site_type_symbol
_atom_site_fract_x
_atom_site_fract_y
_atom_site_fract_z
_atom_type_partial_charge
Co0 Co 0.48393 0.01403 0.10131 0.0
C1 C 0.48395 0.03888 0.07763 0.0
Co2 Co 0.45329 0.04401 0.09922 0.0
C3 C 0.5021 0.95541 0.10512 0.0
C4 C 0.54834 0.00743 0.09974 0.0
N5 N 0.5119 0.99083 0.10246 0.0
N6 N 0.53117 0.94961 0.10425 0.0
C7 C 0.56022 0.98235 0.1009 0.0
H8 H 0.47413 0.9342 0.1074 0.0
H9 H 0.5651 0.03574 0.09665 0.0
C10 C 0.45054 0.01712 0.12267 0.0
N11 N 0.42775 0.06952 0.09782 0.0
C12 C 0.44233 0.10418 0.09336 0.0
C13 C 0.39503 0.06189 0.1027 0.0
N14 N 0.42086 0.11923 0.09559 0.0
C15 C 0.39078 0.09252 0.10139 0.0
C16 C 0.41117 0.96822 0.09533 0.0
O17 O 0.46909 0.00341 0.11803 0.0
O18 O 0.44269 0.03743 0.11612 0.0
O19 O 0.40923 0.99773 0.09617 0.0
O20 O 0.44207 0.96973 0.09685 0.0
O21 O 0.46333 0.04988 0.08234 0.0
H22 H 0.37673 0.03676 0.10762 0.0
H23 H 0.46983 0.11928 0.08948 0.0
O24 O 0.49756 0.024 0.08444 0.0
O25 O 0.5258 0.05859 0.10592 0.0
O26 O 0.4979 0.09 0.1023 0.0
C27 C 0.52682 0.08935 0.10539 0.0
H28 H 0.58773 0.98736 0.0988 0.0
H29 H 0.36828 0.09552 0.10501 0.0
Co30 Co 0.02667 0.50094 0.10177 0.0
C31 C 0.00196 0.47827 0.07795 0.0
Co32 Co 0.99295 0.44057 0.09942 0.0
C33 C 0.08795 0.57569 0.1066 0.0
C34 C 0.0385 0.57386 0.10026 0.0
N35 N 0.05272 0.55199 0.10317 0.0
N36 N 0.09575 0.61129 0.1061 0.0
C37 C 0.06468 0.61013 0.10212 0.0
H38 H 0.10756 0.56711 0.10923 0.0
H39 H 0.01102 0.56419 0.09666 0.0
C40 C 0.01987 0.46248 0.12301 0.0
N41 N 0.96439 0.38973 0.09784 0.0
C42 C 0.93015 0.37279 0.09301 0.0
C43 C 0.96718 0.36264 0.10358 0.0
N44 N 0.91043 0.33668 0.09605 0.0
C45 C 0.9339 0.32988 0.10251 0.0
C46 C 0.06834 0.46928 0.0959 0.0
O47 O 0.03548 0.49508 0.11853 0.0
O48 O -0.00152 0.43517 0.11632 0.0
O49 O 0.03741 0.43906 0.09643 0.0
O50 O 0.06942 0.49995 0.09759 0.0
O51 O 0.98807 0.44607 0.08253 0.0
H52 H 0.99036 0.36714 0.1092 0.0
H53 H 0.91871 0.3876 0.0883 0.0
O54 O 0.01875 0.50633 0.08487 0.0
O55 O 0.98363 0.50178 0.10608 0.0
O56 O 0.94867 0.44281 0.10249 0.0
C57 C 0.95171 0.47359 0.10547 0.0
H58 H 0.06171 0.63398 0.10013 0.0
H59 H 0.92637 0.30422 0.1072 0.0
Co60 Co 0.53512 0.55383 0.09813 0.0
C61 C 0.55949 0.5543 0.07422 0.0
Co62 Co 0.59544 0.58187 0.0959 0.0
C63 C 0.45917 0.5358 0.10355 0.0
C64 C 0.46375 0.49165 0.09533 0.0
N65 N 0.48412 0.52704 0.09921 0.0
N66 N 0.42423 0.50689 0.10268 0.0
C67 C 0.42711 0.47919 0.09751 0.0
H68 H 0.46642 0.56271 0.10723 0.0
H69 H 0.47483 0.47594 0.09101 0.0
C70 C 0.57192 0.5843 0.11961 0.0
N71 N 0.64645 0.60585 0.09474 0.0
C72 C 0.66522 0.59026 0.09001 0.0
C73 C 0.67187 0.63557 0.10096 0.0
N74 N 0.70098 0.60752 0.09359 0.0
C75 C 0.70541 0.63664 0.10029 0.0
C76 C 0.56477 0.62732 0.09287 0.0
O77 O 0.53954 0.56748 0.115 0.0
O78 O 0.59947 0.59082 0.11295 0.0
O79 O 0.5954 0.62746 0.09348 0.0
O80 O 0.53448 0.59702 0.09415 0.0
O81 O 0.59139 0.57356 0.0789 0.0
H82 H 0.66564 0.65299 0.10662 0.0
H83 H 0.65178 0.56469 0.08491 0.0
O84 O 0.53121 0.54145 0.08111 0.0
O85 O 0.53573 0.51052 0.10232 0.0
O86 O 0.59461 0.53559 0.09838 0.0
C87 C 0.56427 0.50748 0.10148 0.0
H88 H 0.40418 0.45226 0.09505 0.0
H89 H 0.72995 0.65523 0.1054 0.0
Co90 Co 0.00408 0.4767 0.92365 0.0
C91 C 0.02951 0.48117 0.9476 0.0
Co92 Co 0.04245 0.45528 0.92621 0.0
C93 C 0.93962 0.4854 0.91796 0.0
C94 C 0.98519 0.53235 0.92644 0.0
N95 N 0.97409 0.49771 0.92241 0.0
N96 N 0.92957 0.51157 0.91888 0.0
C97 C 0.95817 0.54097 0.92422 0.0
H98 H 0.92236 0.45803 0.91417 0.0
H99 H 0.01125 0.55023 0.93093 0.0
C100 C 0.0149 0.44798 0.90249 0.0
N101 N 0.07463 0.43725 0.92779 0.0
C102 C 0.10885 0.45701 0.93253 0.0
C103 C 0.07394 0.40784 0.92242 0.0
N104 N 0.13048 0.44246 0.92982 0.0
C105 C 0.10836 0.41101 0.92364 0.0
C106 C 0.96861 0.40238 0.92933 0.0
O107 O -0.00171 0.46431 0.90668 0.0
O108 O 0.03636 0.44285 0.90942 0.0
O109 O 0.00153 0.40798 0.92961 0.0
O110 O 0.96311 0.42927 0.92711 0.0
O111 O 0.04766 0.46704 0.94307 0.0
H112 H 0.05112 0.38735 0.91705 0.0
H113 H 0.11855 0.48333 0.93705 0.0
O114 O 0.00931 0.48798 0.94065 0.0
O115 O 0.04552 0.52392 0.92011 0.0
O116 O 0.08366 0.50311 0.92264 0.0
C117 C 0.07839 0.52987 0.92029 0.0
H118 H 0.95891 0.56648 0.92672 0.0
H119 H 0.11731 0.39351 0.91929 0.0
Co120 Co 0.54982 0.54441 0.91976 0.0
C121 C 0.55234 0.56967 0.94367 0.0
Co122 Co 0.58351 0.60514 0.92213 0.0
C123 C 0.52576 0.46564 0.91557 0.0
C124 C 0.48241 0.47561 0.92124 0.0
N125 N 0.51892 0.49319 0.91855 0.0
N126 N 0.49472 0.4319 0.91612 0.0
C127 C 0.46752 0.43824 0.91967 0.0
H128 H 0.55291 0.47014 0.91319 0.0
H129 H 0.46749 0.48896 0.92449 0.0
C130 C 0.5836 0.58033 0.89845 0.0
N131 N 0.61168 0.65661 0.92338 0.0
C132 C 0.59903 0.67915 0.92716 0.0
C133 C 0.64497 0.67956 0.91836 0.0
N134 N 0.62232 0.71506 0.92435 0.0
C135 C 0.65152 0.71547 0.9189 0.0
C136 C 0.62214 0.56718 0.92528 0.0
O137 O 0.56366 0.54805 0.90296 0.0
O138 O 0.59308 0.60858 0.90515 0.0
O139 O 0.62614 0.59963 0.92475 0.0
O140 O 0.59021 0.53896 0.92385 0.0
O141 O 0.57431 0.60124 0.93909 0.0
H142 H 0.66203 0.67051 0.91378 0.0
H143 H 0.57168 0.66901 0.93096 0.0
O144 O 0.53728 0.54146 0.93671 0.0
O145 O 0.50951 0.5503 0.91549 0.0
O146 O 0.54047 0.60946 0.91946 0.0
C147 C 0.51052 0.58102 0.91633 0.0
H148 H 0.43917 0.41714 0.92154 0.0
H149 H 0.67502 0.73964 0.91499 0.0
Co150 Co 0.5082 0.05107 0.92396 0.0
C151 C 0.48019 0.02154 0.94694 0.0
Co152 Co 0.44921 0.00777 0.92399 0.0
C153 C 0.58753 0.09203 0.91931 0.0
C154 C 0.56946 0.12021 0.93138 0.0
N155 N 0.55701 0.08892 0.92473 0.0
N156 N 0.61803 0.1243 0.92218 0.0
C157 C 0.60689 0.14211 0.92973 0.0
H158 H 0.58748 0.07119 0.91343 0.0
H159 H 0.55258 0.12655 0.93725 0.0
C160 C 0.47654 0.03942 0.90116 0.0
N161 N 0.40005 0.97034 0.92324 0.0
C162 C 0.38522 0.93403 0.926 0.0
C163 C 0.37189 0.97319 0.91838 0.0
N164 N 0.34899 0.91407 0.92296 0.0
C165 C 0.34056 0.93879 0.91823 0.0
C166 C 0.45946 0.0778 0.92724 0.0
O167 O 0.50686 0.05873 0.90687 0.0
O168 O 0.44877 0.01429 0.90687 0.0
O169 O 0.43403 0.04417 0.92621 0.0
O170 O 0.49292 0.08575 0.92669 0.0
O171 O 0.44985 0.00211 0.94125 0.0
H172 H 0.37434 0.99836 0.91466 0.0
H173 H 0.40097 0.92235 0.92988 0.0
O174 O 0.50896 0.04389 0.94099 0.0
O175 O 0.52341 0.01595 0.92125 0.0
O176 O 0.46524 0.97192 0.92172 0.0
C177 C 0.4994 0.9817 0.92083 0.0
H178 H 0.62483 0.16857 0.93403 0.0
H179 H 0.31416 0.93228 0.91432 0.0
Co180 Co 0.15889 0.34456 0.43221 0.0
C181 C 0.16235 0.3683 0.40812 0.0
Co182 Co 0.13068 0.37647 0.42899 0.0
C183 C 0.17289 0.28382 0.43711 0.0
C184 C 0.22144 0.33458 0.43216 0.0
N185 N 0.18477 0.31956 0.43424 0.0
N186 N 0.20089 0.27631 0.43699 0.0
C187 C 0.2314 0.30824 0.43391 0.0
H188 H 0.14423 0.26355 0.43896 0.0
H189 H 0.23974 0.36261 0.42906 0.0
C190 C 0.12439 0.35052 0.45286 0.0
N191 N 0.10728 0.40378 0.42683 0.0
C192 C 0.12431 0.43824 0.42214 0.0
C193 C 0.07655 0.39991 0.43225 0.0
N194 N 0.10698 0.45717 0.42503 0.0
C195 C 0.07634 0.43282 0.43117 0.0
C196 C 0.08612 0.30082 0.42565 0.0
O197 O 0.14314 0.33618 0.4489 0.0
O198 O 0.11787 0.37068 0.44576 0.0
O199 O 0.08583 0.33127 0.42569 0.0
O200 O 0.11597 0.30086 0.42794 0.0
O201 O 0.14294 0.38155 0.41224 0.0
H202 H 0.05781 0.37634 0.43773 0.0
H203 H 0.15103 0.45042 0.4177 0.0
O204 O 0.17343 0.35213 0.41539 0.0
O205 O 0.20181 0.38857 0.4366 0.0
O206 O 0.17614 0.42163 0.43234 0.0
C207 C 0.2043 0.41994 0.4357 0.0
H208 H 0.25862 0.31177 0.43233 0.0
H209 H 0.05741 0.43951 0.43574 0.0
Co210 Co 0.69746 0.83594 0.43064 0.0
C211 C 0.67363 0.81258 0.40672 0.0
Co212 Co 0.66585 0.77554 0.4282 0.0
C213 C 0.75621 0.91189 0.43545 0.0
C214 C 0.70578 0.90752 0.42894 0.0
N215 N 0.72137 0.88698 0.43201 0.0
N216 N 0.76257 0.947 0.43474 0.0
C217 C 0.73086 0.94422 0.43067 0.0
H218 H 0.77662 0.9045 0.43819 0.0
H219 H 0.67818 0.89661 0.42528 0.0
C220 C 0.69191 0.79822 0.45189 0.0
N221 N 0.63965 0.72447 0.42669 0.0
C222 C 0.60445 0.70452 0.42272 0.0
C223 C 0.64768 0.69927 0.43124 0.0
N224 N 0.58947 0.66799 0.42499 0.0
C225 C 0.61679 0.66448 0.43025 0.0
C226 C 0.74205 0.80744 0.42499 0.0
O227 O 0.70674 0.83077 0.4474 0.0
O228 O 0.67116 0.77063 0.44519 0.0
O229 O 0.71178 0.77657 0.4255 0.0
O230 O 0.74162 0.83744 0.4265 0.0
O231 O 0.66125 0.78048 0.41126 0.0
H232 H 0.67331 0.70599 0.43578 0.0
H233 H 0.58897 0.71701 0.41923 0.0
O234 O 0.68891 0.84063 0.41372 0.0
O235 O 0.65323 0.83441 0.43495 0.0
O236 O 0.62012 0.77545 0.43095 0.0
C237 C 0.62187 0.80553 0.43411 0.0
H238 H 0.7267 0.96724 0.4285 0.0
H239 H 0.61407 0.639 0.4338 0.0
Co240 Co 0.20666 0.88292 0.43388 0.0
C241 C 0.22768 0.87885 0.40997 0.0
Co242 Co 0.26698 0.91283 0.43074 0.0
C243 C 0.13089 0.86669 0.43828 0.0
C244 C 0.13496 0.81869 0.43407 0.0
N245 N 0.15568 0.85563 0.43589 0.0
N246 N 0.09568 0.83799 0.43805 0.0
C247 C 0.0983 0.80782 0.43545 0.0
H248 H 0.13843 0.89529 0.43981 0.0
H249 H 0.14558 0.80081 0.43136 0.0
C250 C 0.24646 0.91963 0.4544 0.0
N251 N 0.31777 0.93786 0.42854 0.0
C252 C 0.33722 0.92234 0.42431 0.0
C253 C 0.34349 0.97163 0.43257 0.0
N254 N 0.37402 0.94433 0.42588 0.0
C255 C 0.37816 0.97564 0.43099 0.0
C256 C 0.23335 0.95488 0.42673 0.0
O257 O 0.21352 0.89955 0.45044 0.0
O258 O 0.27355 0.92695 0.44739 0.0
O259 O 0.26466 0.95642 0.42692 0.0
O260 O 0.20418 0.92463 0.42923 0.0
O261 O 0.26019 0.89922 0.41409 0.0
H262 H 0.33734 0.99098 0.4371 0.0
H263 H 0.32435 0.89403 0.42109 0.0
O264 O 0.20026 0.8675 0.41719 0.0
O265 O 0.20951 0.84123 0.43863 0.0
O266 O 0.26856 0.86877 0.43459 0.0
C267 C 0.23916 0.84009 0.438 0.0
H268 H 0.07525 0.78014 0.43394 0.0
H269 H 0.40412 -0.00106 0.43398 0.0
Co270 Co 0.67639 0.82573 0.25245 0.0
C271 C 0.70015 0.82588 0.27632 0.0
Co272 Co 0.70658 0.79549 0.25486 0.0
C273 C 0.61785 0.84354 0.24834 0.0
C274 C 0.66954 0.89013 0.25374 0.0
N275 N 0.65324 0.85365 0.25107 0.0
N276 N 0.61171 0.87241 0.24915 0.0
C277 C 0.64426 0.90171 0.25251 0.0
H278 H 0.59685 0.81544 0.2461 0.0
H279 H 0.69773 0.90708 0.25689 0.0
C280 C 0.68054 0.79254 0.23121 0.0
N281 N 0.73177 0.76974 0.25644 0.0
C282 C 0.76629 0.78403 0.26094 0.0
C283 C 0.72376 0.73676 0.25165 0.0
N284 N 0.78089 0.76209 0.25882 0.0
C285 C 0.75405 0.73205 0.25305 0.0
C286 C 0.63054 0.75284 0.25825 0.0
O287 O 0.66665 0.81109 0.23571 0.0
O288 O 0.70078 0.78494 0.23788 0.0
O289 O 0.66028 0.75133 0.25769 0.0
O290 O 0.63182 0.78364 0.25668 0.0
O291 O 0.7116 0.80539 0.27178 0.0
H292 H 0.69864 0.7186 0.24673 0.0
H293 H 0.78168 0.81162 0.26475 0.0
O294 O 0.6854 0.83921 0.26934 0.0
O295 O 0.72115 0.86778 0.24806 0.0
O296 O 0.75278 0.8403 0.25201 0.0
C297 C 0.75202 0.86916 0.24886 0.0
H298 H 0.64896 0.92912 0.25461 0.0
H299 H 0.75678 0.70933 0.24949 0.0
Co300 Co 0.21219 0.86911 0.25559 0.0
C301 C 0.21129 0.89113 0.27967 0.0
Co302 Co 0.24091 0.92946 0.25844 0.0
C303 C 0.19486 0.79331 0.25042 0.0
C304 C 0.14861 0.79751 0.25683 0.0
N305 N 0.18482 0.81814 0.25389 0.0
N306 N 0.16613 0.75817 0.251 0.0
C307 C 0.13707 0.76085 0.255 0.0
H308 H 0.22276 0.80079 0.24777 0.0
H309 H 0.13181 0.80829 0.2605 0.0
C310 C 0.24449 0.90806 0.23457 0.0
N311 N 0.26624 0.98039 0.26029 0.0
C312 C 0.2515 0.00072 0.26435 0.0
C313 C 0.30007 0.00537 0.25609 0.0
N314 N 0.27407 0.03733 0.26251 0.0
C315 C 0.30492 0.04045 0.2574 0.0
C316 C 0.28493 0.8969 0.26132 0.0
O317 O 0.22645 0.87523 0.23882 0.0
O318 O 0.25172 0.93529 0.24151 0.0
O319 O 0.28546 0.92776 0.26119 0.0
O320 O 0.25466 0.86707 0.25947 0.0
O321 O 0.2306 0.92357 0.27533 0.0
H322 H 0.3189 -0.0016 0.25161 0.0
H323 H 0.22336 0.98862 0.26765 0.0
O324 O 0.19921 0.86346 0.27252 0.0
O325 O 0.16966 0.87131 0.25153 0.0
O326 O 0.19582 0.93028 0.25565 0.0
C327 C 0.16746 0.90035 0.25242 0.0
H328 H 0.10985 0.73779 0.25709 0.0
H329 H 0.32842 0.06597 0.2542 0.0
Co330 Co 0.16757 0.3607 0.25377 0.0
C331 C 0.1464 0.33756 0.27784 0.0
Co332 Co 0.10734 0.32902 0.25675 0.0
C333 C 0.24265 0.42017 0.24862 0.0
C334 C 0.23967 0.36965 0.25437 0.0
N335 N 0.21844 0.38487 0.25185 0.0
N336 N 0.27801 0.42727 0.24896 0.0
C337 C 0.27611 0.39547 0.25254 0.0
H338 H 0.2346 0.44044 0.24634 0.0
H339 H 0.2295 0.34185 0.25778 0.0
C340 C 0.12798 0.35441 0.2329 0.0
N341 N 0.05655 0.30296 0.2588 0.0
C342 C 0.03677 0.26787 0.26291 0.0
C343 C 0.03112 0.31136 0.25474 0.0
N344 N 7e-05 0.25335 0.26123 0.0
C345 C 0.99632 0.28082 0.25618 0.0
C346 C 0.13946 0.40535 0.25979 0.0
O347 O 0.16085 0.36893 0.23707 0.0
O348 O 0.10089 0.33424 0.23987 0.0
O349 O 0.10865 0.37499 0.2597 0.0
O350 O 0.16923 0.40496 0.2578 0.0
O351 O 0.11388 0.32443 0.2736 0.0
H352 H 0.03757 0.33705 0.25028 0.0
H353 H 0.04933 0.25216 0.26613 0.0
O354 O 0.17387 0.3533 0.27063 0.0
O355 O 0.16573 0.31618 0.24958 0.0
O356 O 0.10686 0.28334 0.25377 0.0
C357 C 0.13674 0.28489 0.2505 0.0
H358 H 0.29955 0.39173 0.25437 0.0
H359 H 0.97054 0.27843 0.25312 0.0
Co360 Co 0.79927 0.66079 0.76233 0.0
C361 C 0.79886 0.69194 0.73967 0.0
Co362 Co 0.78422 0.70447 0.76296 0.0
C363 C 0.83651 0.61708 0.76409 0.0
C364 C 0.78917 0.59384 0.75237 0.0
N365 N 0.80855 0.62205 0.76018 0.0
N366 N 0.83528 0.58709 0.75888 0.0
C367 C 0.8053 0.57232 0.75162 0.0
H368 H 0.85825 0.63596 0.77015 0.0
H369 H 0.76562 0.58994 0.74709 0.0
C370 C 0.78241 0.67148 0.7855 0.0
N371 N 0.77453 0.74291 0.76465 0.0
C372 C 0.79679 0.77868 0.76149 0.0
C373 C 0.74645 0.74245 0.77087 0.0
N374 N 0.78424 0.80082 0.7657 0.0
C375 C 0.75231 0.77796 0.77152 0.0
C376 C 0.72306 0.63598 0.76027 0.0
O377 O 0.79234 0.65188 0.77942 0.0
O378 O 0.7794 0.69688 0.78011 0.0
O379 O 0.73236 0.66987 0.76135 0.0
O380 O 0.74807 0.62715 0.76018 0.0
O381 O 0.7885 0.71131 0.74565 0.0
H382 H 0.72428 0.71822 0.77524 0.0
H383 H 0.82247 0.78842 0.75656 0.0
O384 O 0.80536 0.6693 0.74535 0.0
O385 O 0.85069 0.69501 0.76457 0.0
O386 O 0.8363 0.73886 0.76471 0.0
C387 C 0.86084 0.72927 0.7652 0.0
H388 H 0.79595 0.54793 0.746 0.0
H389 H 0.73552 0.78648 0.77655 0.0
Co390 Co 0.38226 0.16712 0.76565 0.0
C391 C 0.35143 0.13643 0.74285 0.0
Co392 Co 0.34033 0.10725 0.76586 0.0
C393 C 0.42198 0.24849 0.76847 0.0
C394 C 0.44654 0.22816 0.75577 0.0
N395 N 0.41872 0.21675 0.76392 0.0
N396 N 0.4505 0.27891 0.76332 0.0
C397 C 0.46606 0.26602 0.75543 0.0
H398 H 0.40285 0.24927 0.77495 0.0
H399 H 0.45149 0.21009 0.74999 0.0
C400 C 0.37292 0.1374 0.78854 0.0
N401 N 0.30385 0.05732 0.76714 0.0
C402 C 0.26752 0.04041 0.76409 0.0
C403 C 0.3082 0.03043 0.77234 0.0
N404 N 0.24911 0.00403 0.76718 0.0
C405 C 0.27482 0.99781 0.77234 0.0
C406 C 0.41138 0.12031 0.76248 0.0
O407 O 0.39167 0.16767 0.78269 0.0
O408 O 0.34804 0.10901 0.78297 0.0
O409 O 0.37825 0.09386 0.76377 0.0
O410 O 0.41793 0.15339 0.76278 0.0
O411 O 0.33355 0.10596 0.74861 0.0
H412 H 0.33379 0.0345 0.77623 0.0
H413 H 0.25478 0.05463 0.7598 0.0
O414 O 0.37297 0.16571 0.7487 0.0
O415 O 0.34624 0.18059 0.76853 0.0
O416 O 0.30342 0.12178 0.76799 0.0
C417 C 0.31229 0.15574 0.76892 0.0
H418 H 0.48962 0.28285 0.74965 0.0
H419 H 0.26969 0.97185 0.77628 0.0
Co420 Co 0.88717 0.23422 0.76436 0.0
C421 C 0.91168 0.23413 0.74034 0.0
Co422 Co 0.94785 0.25981 0.76201 0.0
C423 C 0.80977 0.21471 0.7703 0.0
C424 C 0.8157 0.17432 0.76002 0.0
N425 N 0.83551 0.2083 0.76509 0.0
N426 N 0.7751 0.1855 0.76882 0.0
C427 C 0.7789 0.16027 0.76236 0.0
H428 H 0.81626 0.23977 0.7752 0.0
H429 H 0.82735 0.16034 0.75494 0.0
C430 C 0.9242 0.26299 0.78577 0.0
N431 N -0.00087 0.28282 0.76107 0.0
C432 C 0.01902 0.26663 0.75791 0.0
C433 C 0.02426 0.31631 0.7655 0.0
N434 N 0.05535 0.28807 0.76051 0.0
C435 C 0.05882 0.31956 0.7652 0.0
C436 C 0.92024 0.30828 0.75939 0.0
O437 O 0.89145 0.24513 0.78145 0.0
O438 O 0.95158 0.27027 0.7789 0.0
O439 O 0.94939 0.30564 0.75908 0.0
O440 O 0.88889 0.27947 0.76127 0.0
O441 O 0.94388 0.24998 0.74501 0.0
H442 H 0.01756 0.33603 0.76945 0.0
H443 H 0.00666 0.23838 0.75467 0.0
O444 O 0.88382 0.22471 0.74721 0.0
O445 O 0.88601 0.18919 0.7676 0.0
O446 O 0.94554 0.21357 0.7651 0.0
C447 C 0.9143 0.18548 0.76737 0.0
H448 H 0.75643 0.1337 0.75938 0.0
H449 H 0.08416 0.34256 0.76873 0.0
Co450 Co 0.34142 0.15379 0.58847 0.0
C451 C 0.36638 0.15206 0.61211 0.0
Co452 Co 0.37367 0.12534 0.59013 0.0
C453 C 0.2827 0.17186 0.58424 0.0
C454 C 0.33254 0.21612 0.59184 0.0
N455 N 0.31711 0.18076 0.5879 0.0
N456 N 0.27657 0.20062 0.58562 0.0
C457 C 0.30789 0.2284 0.59039 0.0
H458 H 0.26255 0.14488 0.58075 0.0
H459 H 0.35986 0.23189 0.5958 0.0
C460 C 0.34675 0.12381 0.56671 0.0
N461 N 0.40044 0.10093 0.59092 0.0
C462 C 0.43566 0.11612 0.59488 0.0
C463 C 0.39282 0.06836 0.58589 0.0
N464 N 0.45099 0.09516 0.59219 0.0
C465 C 0.42393 0.06478 0.58662 0.0
C466 C 0.29758 0.08019 0.59356 0.0
O467 O 0.33182 0.14102 0.57152 0.0
O468 O 0.36762 0.11658 0.57318 0.0
O469 O 0.32795 0.07986 0.59275 0.0
O470 O 0.29772 0.11058 0.5924 0.0
O471 O 0.37905 0.13335 0.60705 0.0
H472 H 0.36726 0.0497 0.58127 0.0
H473 H 0.45082 0.14364 0.59875 0.0
O474 O 0.35044 0.16517 0.60557 0.0
O475 O 0.38523 0.19712 0.58435 0.0
O476 O 0.41902 0.17149 0.58747 0.0
C477 C 0.41673 0.19983 0.58475 0.0
H478 H 0.31215 0.25524 0.5931 0.0
H479 H 0.42692 0.04254 0.58275 0.0
Co480 Co 0.88384 0.2104 0.5858 0.0
C481 C 0.88325 0.23358 0.60978 0.0
Co482 Co 0.91219 0.27091 0.58835 0.0
C483 C 0.86654 0.13447 0.58048 0.0
C484 C 0.82107 0.13867 0.58769 0.0
N485 N 0.85696 0.15929 0.58436 0.0
N486 N 0.83772 0.09938 0.5811 0.0
C487 C 0.80917 0.10205 0.58563 0.0
H488 H 0.89406 0.14189 0.57739 0.0
H489 H 0.80465 0.14948 0.59165 0.0
C490 C 0.91601 0.24876 0.5646 0.0
N491 N 0.93657 0.32195 0.58996 0.0
C492 C 0.921 0.34142 0.59413 0.0
C493 C 0.96968 0.3476 0.58547 0.0
N494 N 0.94227 0.37811 0.59208 0.0
C495 C 0.97322 0.3822 0.58671 0.0
C496 C 0.95685 0.23921 0.59153 0.0
O497 O 0.89774 0.216 0.56892 0.0
O498 O 0.92316 0.27612 0.57146 0.0
O499 O 0.95725 0.27004 0.59128 0.0
O500 O 0.92669 0.20924 0.58967 0.0
O501 O 0.90191 0.26574 0.6052 0.0
H502 H 0.98882 0.34136 0.58084 0.0
H503 H 0.89308 0.32852 0.59769 0.0
O504 O 0.87136 0.20545 0.60284 0.0
O505 O 0.84079 0.21159 0.58176 0.0
O506 O 0.86656 0.27079 0.58538 0.0
C507 C 0.83824 0.24047 0.5824 0.0
H508 H 0.78204 0.07896 0.5878 0.0
H509 H 0.9959 0.408 0.58333 0.0
Co510 Co 0.82814 0.69755 0.58531 0.0
C511 C 0.80011 0.67345 0.60881 0.0
Co512 Co 0.76744 0.6653 0.58644 0.0
C513 C 0.90508 0.75639 0.58149 0.0
C514 C 0.89913 0.70632 0.58905 0.0
N515 N 0.8794 0.72184 0.58501 0.0
N516 N 0.93987 0.76248 0.58302 0.0
C517 C 0.9361 0.73102 0.58776 0.0
H518 H 0.89845 0.77668 0.57799 0.0
H519 H 0.88741 0.6789 0.59296 0.0
C520 C 0.79427 0.69165 0.56315 0.0
N521 N 0.71632 0.63858 0.58701 0.0
C522 C 0.69635 0.60412 0.59162 0.0
C523 C 0.69137 0.64519 0.58147 0.0
N524 N 0.66007 0.58822 0.58888 0.0
C525 C 0.6567 0.61415 0.58256 0.0
C526 C 0.79818 0.74152 0.5896 0.0
O527 O 0.82593 0.70699 0.56829 0.0
O528 O 0.76564 0.67043 0.56936 0.0
O529 O 0.76758 0.71114 0.58853 0.0
O530 O 0.8285 0.74137 0.58895 0.0
O531 O 0.76916 0.66088 0.60347 0.0
H532 H 0.69825 0.66994 0.57632 0.0
H533 H 0.70877 0.5898 0.59605 0.0
O534 O 0.82961 0.68887 0.60248 0.0
O535 O 0.82777 0.65352 0.58148 0.0
O536 O 0.76824 0.61975 0.58433 0.0
C537 C 0.799 0.62195 0.58192 0.0
H538 H 0.95857 0.72675 0.59058 0.0
H539 H 0.63144 0.61035 0.57847 0.0
H540 H 0.5879 0.94053 0.11145 0.0
H541 H 0.59219 0.88442 0.10944 0.0
H542 H 0.47889 0.82428 0.09706 0.0
H543 H 0.47482 0.88086 0.09868 0.0
H544 H 0.55219 0.81367 0.11926 0.0
H545 H 0.53703 0.81222 0.06905 0.0
H546 H 0.5454 0.85152 0.07825 0.0
H547 H 0.4998 0.81148 0.0775 0.0
C548 C 0.56385 0.91531 0.10835 0.0
C549 C 0.53124 0.91519 0.10502 0.0
C550 C 0.56629 0.88327 0.10726 0.0
C551 C 0.53616 0.85053 0.10284 0.0
C552 C 0.50271 0.84958 0.10025 0.0
H553 H 0.50527 0.63469 0.08734 0.0
H554 H 0.50026 0.69039 0.08919 0.0
C555 C 0.50026 0.88175 0.10132 0.0
C556 C 0.54062 0.81807 0.10047 0.0
H557 H 0.54131 0.76258 0.07776 0.0
C558 C 0.54986 0.80248 0.11019 0.0
C559 C 0.53787 0.80388 0.0886 0.0
C560 C 0.52981 0.82077 0.07772 0.0
C561 C 0.55584 0.77255 0.1084 0.0
C562 C 0.55297 0.75833 0.09654 0.0
C563 C 0.54367 0.77384 0.08682 0.0
C564 C 0.55762 0.72604 0.09419 0.0
C565 C 0.56443 0.75586 0.11921 0.0
C566 C 0.59197 0.72814 0.09595 0.0
C567 C 0.59505 0.69634 0.09484 0.0
C568 C 0.56371 0.6621 0.09199 0.0
C569 C 0.52987 0.66065 0.08961 0.0
C570 C 0.52691 0.6924 0.09066 0.0
H571 H 0.55876 0.76544 0.12795 0.0
H572 H 0.54791 0.72511 0.11889 0.0
H573 H 0.59418 0.76405 0.11902 0.0
H574 H 0.61609 0.75413 0.09852 0.0
H575 H 0.62144 0.69824 0.09674 0.0
H576 H 0.40805 0.9041 0.08852 0.0
H577 H 0.35457 0.84166 0.08962 0.0
H578 H 0.28582 0.88679 0.10069 0.0
H579 H 0.33921 0.94963 0.09939 0.0
H580 H 0.31707 0.81127 0.11079 0.0
H581 H 0.22173 0.81012 0.07541 0.0
H582 H 0.27023 0.84496 0.07591 0.0
H583 H 0.23766 0.84837 0.08577 0.0
C584 C 0.38135 0.90081 0.09092 0.0
C585 C 0.37772 0.93167 0.0939 0.0
C586 C 0.3509 0.86513 0.09157 0.0
C587 C 0.31633 0.8597 0.0952 0.0
C588 C 0.31219 0.89051 0.09767 0.0
H589 H 0.10688 0.67568 0.11536 0.0
H590 H 0.16372 0.73577 0.1138 0.0
C591 C 0.34268 0.92635 0.09693 0.0
C592 C 0.28556 0.82174 0.09743 0.0
H593 H 0.19618 0.7605 0.08973 0.0
C594 C 0.29071 0.79997 0.10611 0.0
C595 C 0.25136 0.80725 0.0913 0.0
C596 C 0.24494 0.82873 0.08149 0.0
C597 C 0.26207 0.76428 0.10905 0.0
C598 C 0.2277 0.75019 0.1031 0.0
C599 C 0.22268 0.7717 0.09431 0.0
C600 C 0.196 0.71342 0.10595 0.0
C601 C 0.26831 0.74223 0.11868 0.0
C602 C 0.19597 0.68101 0.10244 0.0
C603 C 0.16349 0.64662 0.10334 0.0
C604 C 0.13076 0.64452 0.10764 0.0
C605 C 0.13171 0.67677 0.11189 0.0
C606 C 0.16405 0.71098 0.11102 0.0
H607 H 0.2944 0.75942 0.1238 0.0
H608 H 0.24478 0.73006 0.12518 0.0
H609 H 0.2699 0.71903 0.11433 0.0
H610 H 0.2204 0.68255 0.0984 0.0
H611 H 0.16328 0.62216 0.09991 0.0
H612 H 0.13469 0.52722 0.08918 0.0
H613 H 0.1951 0.53163 0.09073 0.0
H614 H 0.14254 0.41716 0.102 0.0
H615 H 0.08162 0.4123 0.10029 0.0
H616 H 0.22167 0.52065 0.11268 0.0
H617 H 0.21875 0.4256 0.07667 0.0
H618 H 0.18689 0.44307 0.07689 0.0
H619 H 0.17981 0.40591 0.08684 0.0
C620 C 0.13589 0.50271 0.09173 0.0
C621 C 0.10352 0.46942 0.09465 0.0
C622 C 0.17041 0.50535 0.09264 0.0
C623 C 0.17317 0.47477 0.09648 0.0
C624 C 0.14084 0.44092 0.09886 0.0
H625 H 0.36213 0.44884 0.11144 0.0
H626 H 0.30046 0.44221 0.11173 0.0
C627 C 0.10612 0.43816 0.09787 0.0
C628 C 0.21006 0.47948 0.0989 0.0
H629 H 0.26991 0.45067 0.09009 0.0
C630 C 0.23231 0.5054 0.10775 0.0
C631 C 0.22359 0.4594 0.09246 0.0
C632 C 0.20122 0.43213 0.08261 0.0
C633 C 0.26792 0.51177 0.11035 0.0
C634 C 0.28155 0.49194 0.10384 0.0
C635 C 0.25916 0.46573 0.09509 0.0
C636 C 0.3193 0.49828 0.10569 0.0
C637 C 0.29048 0.5393 0.12011 0.0
C638 C 0.35032 0.53243 0.10258 0.0
C639 C 0.3856 0.53629 0.10244 0.0
C640 C 0.39003 0.50586 0.10526 0.0
C641 C 0.35922 0.47251 0.10909 0.0
C642 C 0.32411 0.46871 0.10928 0.0
H643 H 0.27286 0.54516 0.12625 0.0
H644 H 0.30578 0.529 0.12563 0.0
H645 H 0.31107 0.56577 0.1158 0.0
H646 H 0.347 0.5554 0.09961 0.0
H647 H 0.40891 0.56212 0.09934 0.0
H648 H 0.92012 0.56499 0.90896 0.0
H649 H 0.863 0.56774 0.909 0.0
H650 H 0.80304 0.45565 0.92263 0.0
H651 H 0.86085 0.45324 0.92286 0.0
H652 H 0.79256 0.52716 0.89917 0.0
H653 H 0.79102 0.51684 0.94961 0.0
H654 H 0.83017 0.52388 0.94061 0.0
H655 H 0.78955 0.47872 0.94148 0.0
C656 C 0.89457 0.5407 0.91172 0.0
C657 C 0.89481 0.50913 0.91608 0.0
C658 C 0.86199 0.54225 0.91172 0.0
C659 C 0.82905 0.51225 0.9161 0.0
C660 C 0.82844 0.47937 0.91946 0.0
H661 H 0.62126 0.50383 0.93172 0.0
H662 H 0.67169 0.49038 0.92982 0.0
C663 C 0.86124 0.47781 0.91944 0.0
C664 C 0.79675 0.51727 0.91814 0.0
H665 H 0.74497 0.52582 0.9406 0.0
C666 C 0.78194 0.5266 0.90821 0.0
C667 C 0.78334 0.51696 0.92999 0.0
C668 C 0.79944 0.50888 0.94107 0.0
C669 C 0.75407 0.53574 0.9098 0.0
C670 C 0.74112 0.53596 0.92165 0.0
C671 C 0.7553 0.52587 0.93155 0.0
C672 C 0.71204 0.54561 0.92389 0.0
C673 C 0.73854 0.54494 0.89882 0.0
C674 C 0.71859 0.58159 0.92164 0.0
C675 C 0.68985 0.58954 0.92282 0.0
C676 C 0.65422 0.56147 0.9262 0.0
C677 C 0.6484 0.526 0.92904 0.0
C678 C 0.67711 0.51821 0.92795 0.0
H679 H 0.74601 0.53625 0.89023 0.0
H680 H 0.70789 0.53133 0.89941 0.0
H681 H 0.74983 0.57536 0.89843 0.0
H682 H 0.74564 0.60322 0.91868 0.0
H683 H 0.69507 0.61704 0.92053 0.0
H684 H 0.4024 0.08296 0.91678 0.0
H685 H 0.39958 0.14028 0.91428 0.0
H686 H 0.49786 0.19945 0.93625 0.0
H687 H 0.50046 0.14276 0.93888 0.0
H688 H 0.44521 0.22009 0.94089 0.0
H689 H 0.47418 0.222 0.89139 0.0
H690 H 0.43355 0.18164 0.89705 0.0
H691 H 0.47859 0.19101 0.90183 0.0
C692 C 0.42264 0.10801 0.92135 0.0
C693 C 0.45177 0.10861 0.92796 0.0
C694 C 0.42133 0.14077 0.91979 0.0
C695 C 0.44903 0.17424 0.92486 0.0
C696 C 0.47639 0.17403 0.93219 0.0
H697 H 0.54364 0.41063 0.92303 0.0
H698 H 0.53144 0.3465 0.9241 0.0
C699 C 0.47782 0.1416 0.93369 0.0
C700 C 0.4516 0.21025 0.92208 0.0
H701 H 0.47315 0.27393 0.89939 0.0
C702 C 0.45093 0.23171 0.9318 0.0
C703 C 0.45939 0.22542 0.91021 0.0
C704 C 0.46178 0.20407 0.8995 0.0
C705 C 0.45852 0.26818 0.93001 0.0
C706 C 0.46729 0.28364 0.91823 0.0
C707 C 0.46674 0.26191 0.90842 0.0
C708 C 0.47689 0.32244 0.91604 0.0
C709 C 0.45751 0.2902 0.94074 0.0
C710 C 0.45081 0.32994 0.91076 0.0
C711 C 0.45769 0.36633 0.91017 0.0
C712 C 0.49088 0.39581 0.91477 0.0
C713 C 0.518 0.38845 0.91935 0.0
C714 C 0.51094 0.35192 0.92004 0.0
H715 H 0.44469 0.27246 0.94886 0.0
H716 H 0.48621 0.31181 0.94311 0.0
H717 H 0.4418 0.30444 0.93844 0.0
H718 H 0.42447 0.30751 0.90759 0.0
H719 H 0.43652 0.37138 0.9065 0.0
H720 H 0.66288 0.18595 0.90996 0.0
H721 H 0.73052 0.21665 0.90951 0.0
H722 H 0.72596 0.12312 0.92803 0.0
H723 H 0.65779 0.0921 0.92822 0.0
H724 H 0.76301 0.19188 0.9406 0.0
H725 H 0.81559 0.20794 0.89359 0.0
H726 H 0.77775 0.2168 0.89474 0.0
H727 H 0.77012 0.17115 0.89804 0.0
C728 C 0.67645 0.17139 0.91339 0.0
C729 C 0.65568 0.13683 0.91902 0.0
C730 C 0.71494 0.18875 0.91312 0.0
C731 C 0.73318 0.17194 0.91863 0.0
C732 C 0.7123 0.13622 0.92357 0.0
H733 H 0.96956 0.33767 0.92687 0.0
H734 H 0.91594 0.27486 0.92563 0.0
C735 C 0.67359 0.11854 0.92365 0.0
C736 C 0.77306 0.1951 0.9213 0.0
H737 H 0.85382 0.25792 0.90768 0.0
C738 C 0.78331 0.20544 0.93344 0.0
C739 C 0.79944 0.21263 0.91197 0.0
C740 C 0.79026 0.20128 0.89886 0.0
C741 C 0.81818 0.23548 0.93636 0.0
C742 C 0.84313 0.25535 0.92691 0.0
C743 C 0.83433 0.24272 0.91489 0.0
C744 C 0.87577 0.29214 0.92905 0.0
C745 C 0.82725 0.24734 0.94944 0.0
C746 C 0.87064 0.32234 0.93148 0.0
C747 C 0.90101 0.35818 0.93205 0.0
C748 C 0.937 0.3643 0.9303 0.0
C749 C 0.94213 0.33375 0.92836 0.0
C750 C 0.91164 0.29792 0.92761 0.0
H751 H 0.80962 0.22443 0.95577 0.0
H752 H 0.85684 0.25695 0.95139 0.0
H753 H 0.82235 0.27078 0.9512 0.0
H754 H 0.84299 0.31829 0.93247 0.0
H755 H 0.89622 0.38117 0.93355 0.0
H756 H 0.28802 0.02722 0.42921 0.0
H757 H 0.2794 0.08123 0.43035 0.0
H758 H 0.16366 0.01186 0.42161 0.0
H759 H 0.1718 0.95783 0.42065 0.0
H760 H 0.25109 0.11382 0.41415 0.0
H761 H 0.16229 0.05488 0.45506 0.0
H762 H 0.19029 0.03669 0.44906 0.0
H763 H 0.14698 0.02516 0.44197 0.0
C764 C 0.26095 0.02368 0.42728 0.0
C765 C 0.23048 0.98836 0.425 0.0
C766 C 0.25603 0.05444 0.42799 0.0
C767 C 0.22069 0.05014 0.42638 0.0
C768 C 0.19091 0.01543 0.42318 0.0
H769 H 0.144 0.20963 0.42997 0.0
H770 H 0.1461 0.15199 0.42799 0.0
C771 C 0.1957 0.98471 0.42257 0.0
C772 C 0.21451 0.0815 0.42865 0.0
H773 H 0.16844 0.11066 0.44721 0.0
C774 C 0.23304 0.11317 0.42136 0.0
C775 C 0.19097 0.08041 0.43812 0.0
C776 C 0.17171 0.04762 0.44659 0.0
C777 C 0.22845 0.14388 0.42324 0.0
C778 C 0.20502 0.14278 0.4327 0.0
C779 C 0.1862 0.11106 0.43993 0.0
C780 C 0.20125 0.17524 0.43549 0.0
C781 C 0.24867 0.17739 0.41513 0.0
C782 C 0.2309 0.20643 0.44084 0.0
C783 C 0.22967 0.23905 0.44205 0.0
C784 C 0.1988 0.24096 0.4379 0.0
C785 C 0.16802 0.20883 0.4333 0.0
C786 C 0.16927 0.17607 0.4321 0.0
H787 H 0.2604 0.17137 0.40696 0.0
H788 H 0.22981 0.18751 0.41218 0.0
H789 H 0.27178 0.20006 0.42029 0.0
H790 H 0.25557 0.20594 0.44365 0.0
H791 H 0.25346 0.26328 0.44581 0.0
H792 H 0.0148 0.28621 0.42833 0.0
H793 H 0.95927 0.22473 0.42997 0.0
H794 H 0.02456 0.17343 0.42176 0.0
H795 H 0.08005 0.23441 0.42028 0.0
H796 H 0.92471 0.16302 0.41402 0.0
H797 H 0.98032 0.13162 0.45539 0.0
H798 H 9e-05 0.17779 0.44918 0.0
H799 H 0.01049 0.14473 0.44244 0.0
C800 C 0.01712 0.26183 0.42664 0.0
C801 C 0.05173 0.26499 0.42433 0.0
C802 C 0.9855 0.22682 0.42764 0.0
C803 C 0.98821 0.19475 0.42631 0.0
C804 C 0.02222 0.19794 0.42313 0.0
H805 H 0.83151 0.95934 0.42982 0.0
H806 H 0.88813 0.02022 0.4287 0.0
C807 C 0.05378 0.23278 0.42221 0.0
C808 C 0.95591 0.15789 0.42871 0.0
H809 H 0.92491 0.08215 0.44715 0.0
C810 C 0.92462 0.14537 0.42128 0.0
C811 C 0.95607 0.13513 0.43823 0.0
C812 C 0.98838 0.14805 0.44685 0.0
C813 C 0.89355 0.11019 0.42299 0.0
C814 C 0.89385 0.08737 0.43245 0.0
C815 C 0.92506 0.09985 0.43989 0.0
C816 C 0.86153 0.05058 0.43478 0.0
C817 C 0.86079 0.09741 0.41459 0.0
C818 C 0.82865 0.04777 0.43911 0.0
C819 C 0.79657 0.01327 0.43982 0.0
C820 C 0.79692 0.98108 0.43621 0.0
C821 C 0.83056 0.98371 0.4327 0.0
C822 C 0.86275 0.01837 0.43199 0.0
H823 H 0.86782 0.11509 0.40635 0.0
H824 H 0.85025 0.06825 0.41173 0.0
H825 H 0.8381 0.09862 0.41946 0.0
H826 H 0.82751 0.07242 0.4415 0.0
H827 H 0.77111 0.01184 0.44276 0.0
H828 H 0.02922 0.78346 0.44582 0.0
H829 H 0.96968 0.78062 0.44336 0.0
H830 H 0.02541 0.89228 0.42929 0.0
H831 H 0.08515 0.89478 0.4313 0.0
H832 H 0.94044 0.82235 0.45209 0.0
H833 H 0.9546 0.83288 0.40181 0.0
H834 H 0.98512 0.8249 0.41135 0.0
H835 H 0.99138 0.87071 0.40998 0.0
C836 C 0.02881 0.80745 0.44223 0.0
C837 C 0.06176 0.83907 0.43855 0.0
C838 C 0.99482 0.80586 0.44089 0.0
C839 C 0.99315 0.83588 0.43586 0.0
C840 C 0.02614 0.86849 0.43293 0.0
H841 H 0.80879 0.86767 0.41969 0.0
H842 H 0.8697 0.87322 0.42166 0.0
C843 C 0.06026 0.87006 0.43423 0.0
C844 C 0.95665 0.83212 0.43328 0.0
H845 H 0.90118 0.83051 0.41018 0.0
C846 C 0.93182 0.82412 0.44294 0.0
C847 C 0.94549 0.83414 0.42129 0.0
C848 C 0.97035 0.84079 0.41048 0.0
C849 C 0.89616 0.81848 0.44095 0.0
C850 C 0.88508 0.82055 0.42898 0.0
C851 C 0.9099 0.82878 0.41933 0.0
C852 C 0.84821 0.81567 0.42643 0.0
C853 C 0.87071 0.81087 0.45166 0.0
C854 C 0.81611 0.78106 0.42801 0.0
C855 C 0.78116 0.77767 0.42681 0.0
C856 C 0.77804 0.80895 0.42408 0.0
C857 C 0.81033 0.8431 0.42186 0.0
C858 C 0.84514 0.84637 0.42298 0.0
H859 H 0.88566 0.81658 0.46045 0.0
H860 H 0.85717 0.82799 0.4511 0.0
H861 H 0.84861 0.78128 0.45154 0.0
H862 H 0.81814 0.757 0.43054 0.0
H863 H 0.75677 0.75106 0.42859 0.0
H864 H 0.35623 0.95409 0.25891 0.0
H865 H 0.41199 0.94882 0.25688 0.0
H866 H 0.34708 0.83118 0.26357 0.0
H867 H 0.29133 0.83599 0.26544 0.0
H868 H 0.44636 0.92074 0.27233 0.0
H869 H 0.3933 0.83768 0.23007 0.0
H870 H 0.37267 0.86283 0.23662 0.0
H871 H 0.36267 0.81888 0.24286 0.0
C872 C 0.35399 0.92724 0.26016 0.0
C873 C 0.31941 0.8954 0.2622 0.0
C874 C 0.38577 0.92425 0.25894 0.0
C875 C 0.38331 0.88946 0.25977 0.0
C876 C 0.34928 0.85809 0.2626 0.0
H877 H 0.54342 0.8151 0.25461 0.0
H878 H 0.48639 0.81818 0.25649 0.0
C879 C 0.31754 0.86098 0.26374 0.0
C880 C 0.41601 0.88562 0.25729 0.0
H881 H 0.44877 0.84378 0.23827 0.0
C882 C 0.447 0.90406 0.26487 0.0
C883 C 0.4166 0.86386 0.2475 0.0
C884 C 0.38469 0.84494 0.23872 0.0
C885 C 0.47851 0.90079 0.26304 0.0
C886 C 0.47896 0.87884 0.25332 0.0
C887 C 0.44804 0.8604 0.24574 0.0
C888 C 0.51184 0.87548 0.25081 0.0
C889 C 0.51098 0.92046 0.27157 0.0
C890 C 0.54428 0.90621 0.24651 0.0
C891 C 0.57662 0.90445 0.24534 0.0
C892 C 0.57705 0.87194 0.24846 0.0
C893 C 0.54387 0.84043 0.25207 0.0
C894 C 0.5114 0.84221 0.25323 0.0
H895 H 0.50354 0.93033 0.27991 0.0
H896 H 0.52171 0.90186 0.27425 0.0
H897 H 0.53366 0.94486 0.26688 0.0
H898 H 0.54481 0.9319 0.24441 0.0
H899 H 0.60161 0.92889 0.2423 0.0
H900 H 0.1097 0.69294 0.24324 0.0
H901 H 0.10617 0.63262 0.24431 0.0
H902 H 0.21965 0.68565 0.25644 0.0
H903 H 0.22324 0.74625 0.25556 0.0
H904 H 0.19264 0.62318 0.23748 0.0
H905 H 0.10787 0.59073 0.27959 0.0
H906 H 0.09367 0.6077 0.26684 0.0
H907 H 0.137 0.63759 0.2742 0.0
C908 C 0.134 0.69177 0.24602 0.0
C909 C 0.16656 0.72414 0.2495 0.0
C910 C 0.13195 0.6574 0.2466 0.0
C911 C 0.16244 0.6549 0.25065 0.0
C912 C 0.19582 0.68727 0.25335 0.0
H913 H 0.20041 0.47253 0.2639 0.0
H914 H 0.2053 0.53321 0.2622 0.0
C915 C 0.1979 0.72179 0.25277 0.0
C916 C 0.1585 0.61824 0.25282 0.0
H917 H 0.11668 0.54309 0.27158 0.0
C918 C 0.17621 0.60564 0.24494 0.0
C919 C 0.13679 0.59562 0.26254 0.0
C920 C 0.11787 0.60852 0.27136 0.0
C921 C 0.17233 0.57046 0.24645 0.0
C922 C 0.1509 0.54793 0.25626 0.0
C923 C 0.13311 0.56055 0.2641 0.0
C924 C 0.14702 0.51128 0.25856 0.0
C925 C 0.19055 0.55737 0.23741 0.0
C926 C 0.11221 0.47901 0.25775 0.0
C927 C 0.10918 0.44416 0.25887 0.0
C928 C 0.14099 0.44134 0.26079 0.0
C929 C 0.17544 0.47384 0.2623 0.0
C930 C 0.17837 0.50852 0.26125 0.0
H931 H 0.19763 0.57356 0.22882 0.0
H932 H 0.2166 0.5609 0.24136 0.0
H933 H 0.17227 0.52755 0.23523 0.0
H934 H 0.08766 0.48076 0.2558 0.0
H935 H 0.08231 0.41958 0.25764 0.0
H936 H 0.61437 0.68093 0.25569 0.0
H937 H 0.55252 0.62606 0.25409 0.0
H938 H 0.50299 0.69343 0.26154 0.0
H939 H 0.5644 0.74834 0.26298 0.0
H940 H 0.49151 0.5935 0.27021 0.0
H941 H 0.45974 0.64675 0.22831 0.0
H942 H 0.50601 0.66657 0.23439 0.0
H943 H 0.47343 0.67772 0.24107 0.0
C944 C 0.5903 0.68391 0.25719 0.0
C945 C 0.59415 0.71892 0.25933 0.0
C946 C 0.55507 0.65264 0.25622 0.0
C947 C 0.52339 0.65605 0.2574 0.0
C948 C 0.52719 0.69052 0.2603 0.0
H949 H 0.28828 0.49522 0.25448 0.0
H950 H 0.34809 0.55296 0.25573 0.0
C951 C 0.56229 0.72176 0.2612 0.0
C952 C 0.48633 0.6238 0.25523 0.0
H953 H 0.41075 0.59135 0.23669 0.0
C954 C 0.47386 0.59295 0.26288 0.0
C955 C 0.46355 0.62335 0.24562 0.0
C956 C 0.4764 0.65521 0.23679 0.0
C957 C 0.43884 0.56162 0.26125 0.0
C958 C 0.41611 0.56121 0.25166 0.0
C959 C 0.42841 0.59207 0.24404 0.0
C960 C 0.37985 0.52826 0.24928 0.0
C961 C 0.42622 0.52918 0.26981 0.0
C962 C 0.37817 0.49607 0.24474 0.0
C963 C 0.34425 0.46333 0.24395 0.0
C964 C 0.31152 0.46231 0.2477 0.0
C965 C 0.31303 0.49528 0.25148 0.0
C966 C 0.3471 0.52814 0.25226 0.0
H967 H 0.444 0.53655 0.27802 0.0
H968 H 0.39712 0.51878 0.27269 0.0
H969 H 0.42731 0.50625 0.26505 0.0
H970 H 0.40327 0.49598 0.24225 0.0
H971 H 0.34372 0.43845 0.2408 0.0
H972 H 0.85412 0.55416 0.7415 0.0
H973 H 0.88728 0.52064 0.74431 0.0
H974 H 0.91015 0.55768 0.78156 0.0
H975 H 0.8749 0.59011 0.77889 0.0
H976 H 0.95504 0.53427 0.75107 0.0
H977 H 0.84923 0.44664 0.78563 0.0
H978 H 0.84466 0.48031 0.77667 0.0
H979 H 0.87741 0.49518 0.78895 0.0
C980 C 0.86624 0.55528 0.7503 0.0
C981 C 0.86088 0.57367 0.7601 0.0
C982 C 0.88566 0.53651 0.75185 0.0
C983 C 0.90044 0.5359 0.76322 0.0
C984 C 0.89817 0.55708 0.77278 0.0
H985 H 0.98183 0.37597 0.76312 0.0
H986 H 0.98425 0.43566 0.76531 0.0
C987 C 0.87833 0.5758 0.77123 0.0
C988 C 0.91374 0.50929 0.76509 0.0
H989 H 0.88627 0.42462 0.77772 0.0
C990 C 0.94064 0.51062 0.75708 0.0
C991 C 0.89469 0.4784 0.77291 0.0
C992 C 0.86473 0.4747 0.78149 0.0
C993 C 0.94682 0.48056 0.75596 0.0
C994 C 0.92622 0.44889 0.76331 0.0
C995 C 0.90169 0.4489 0.77203 0.0
C996 C 0.92619 0.41378 0.76124 0.0
C997 C 0.97325 0.48185 0.74635 0.0
C998 C 0.89278 0.38176 0.75821 0.0
C999 C 0.89119 0.34766 0.75711 0.0
C1000 C 0.92309 0.34499 0.75893 0.0
C1001 C 0.95688 0.3773 0.76152 0.0
C1002 C 0.95835 0.41143 0.76277 0.0
H1003 H 0.98171 0.50545 0.73998 0.0
H1004 H -0.00143 0.485 0.75077 0.0
H1005 H 0.9605 0.4557 0.74102 0.0
H1006 H 0.86767 0.38304 0.75693 0.0
H1007 H 0.86479 0.32326 0.7551 0.0
H1008 H 0.69492 0.56775 0.75039 0.0
H1009 H 0.63405 0.51386 0.75404 0.0
H1010 H 0.60207 0.58138 0.77466 0.0
H1011 H 0.66348 0.63611 0.77091 0.0
H1012 H 0.60971 0.49469 0.78079 0.0
H1013 H 0.51189 0.50957 0.75001 0.0
H1014 H 0.56003 0.52963 0.74581 0.0
H1015 H 0.54744 0.54877 0.75826 0.0
C1016 C 0.6747 0.57141 0.75546 0.0
C1017 C 0.68394 0.60607 0.76039 0.0
C1018 C 0.63997 0.54059 0.75755 0.0
C1019 C 0.61376 0.54368 0.76466 0.0
C1020 C 0.62196 0.57859 0.76909 0.0
H1021 H 0.44981 0.31306 0.78431 0.0
H1022 H 0.47976 0.38053 0.78754 0.0
C1023 C 0.65689 0.60977 0.7669 0.0
C1024 C 0.57969 0.50925 0.7682 0.0
H1025 H 0.49192 0.45023 0.75832 0.0
C1026 C 0.58345 0.48512 0.77619 0.0
C1027 C 0.5457 0.49726 0.76219 0.0
C1028 C 0.54063 0.5225 0.75358 0.0
C1029 C 0.55532 0.44803 0.77744 0.0
C1030 C 0.5222 0.43501 0.77067 0.0
C1031 C 0.51722 0.46023 0.76354 0.0
C1032 C 0.49677 0.39467 0.76878 0.0
C1033 C 0.56286 0.42239 0.78508 0.0
C1034 C 0.49426 0.38027 0.75709 0.0
C1035 C 0.47697 0.34216 0.75525 0.0
C1036 C 0.46188 0.31743 0.76506 0.0
C1037 C 0.46153 0.33156 0.77662 0.0
C1038 C 0.47886 0.37004 0.77847 0.0
H1039 H 0.59183 0.43614 0.78847 0.0
H1040 H 0.54407 0.41289 0.79305 0.0
H1041 H 0.55762 0.39759 0.77975 0.0
H1042 H 0.50761 0.39859 0.74944 0.0
H1043 H 0.47676 0.33203 0.74618 0.0
H1044 H 0.47319 0.15989 0.7492 0.0
H1045 H 0.53313 0.16419 0.75244 0.0
H1046 H 0.48353 0.07462 0.77832 0.0
H1047 H 0.42288 0.07014 0.77509 0.0
H1048 H 0.56043 0.17502 0.77981 0.0
H1049 H 0.55856 0.05995 0.75333 0.0
H1050 H 0.53229 0.08129 0.74834 0.0
H1051 H 0.51801 0.05257 0.76161 0.0
C1052 C 0.47477 0.14027 0.75529 0.0
C1053 C 0.44347 0.11461 0.76188 0.0
C1054 C 0.50904 0.14292 0.75718 0.0
C1055 C 0.51268 0.11997 0.76568 0.0
C1056 C 0.48107 0.09247 0.77168 0.0
H1057 H 0.72089 0.12655 0.78023 0.0
H1058 H 0.65618 0.11107 0.78198 0.0
C1059 C 0.44647 0.08968 0.76975 0.0
C1060 C 0.55027 0.12778 0.76898 0.0
H1061 H 0.61489 0.10309 0.76246 0.0
C1062 C 0.57233 0.15907 0.77617 0.0
C1063 C 0.56542 0.10684 0.76423 0.0
C1064 C 0.54257 0.07322 0.75643 0.0
C1065 C 0.60964 0.1705 0.77852 0.0
C1066 C 0.62541 0.15054 0.7733 0.0
C1067 C 0.60285 0.11847 0.76644 0.0
C1068 C 0.66548 0.16295 0.77437 0.0
C1069 C 0.63173 0.20381 0.78654 0.0
C1070 C 0.69256 0.19788 0.76996 0.0
C1071 C 0.72973 0.20695 0.76916 0.0
C1072 C 0.74009 0.18097 0.77256 0.0
C1073 C 0.7134 0.14701 0.77761 0.0
C1074 C 0.67648 0.1381 0.77854 0.0
H1075 H 0.61344 0.2083 0.79281 0.0
H1076 H 0.65245 0.20077 0.792 0.0
H1077 H 0.64664 0.22891 0.78078 0.0
H1078 H 0.68467 0.21723 0.76645 0.0
H1079 H 0.74977 0.23296 0.76503 0.0
H1080 H 0.96247 0.17878 0.59713 0.0
H1081 H 0.01773 0.17291 0.59621 0.0
H1082 H 0.08382 0.28906 0.58733 0.0
H1083 H 0.02845 0.29537 0.58842 0.0
H1084 H 0.05977 0.18592 0.57549 0.0
H1085 H 0.14533 0.27528 0.61356 0.0
H1086 H 0.09646 0.25931 0.6122 0.0
H1087 H 0.12946 0.29751 0.60313 0.0
C1088 C 0.98887 0.20329 0.5952 0.0
C1089 C 0.99119 0.23757 0.59282 0.0
C1090 C 0.02037 0.19983 0.59466 0.0
C1091 C 0.05479 0.23053 0.59173 0.0
C1092 C 0.05754 0.26516 0.58979 0.0
H1093 H 0.27111 0.25923 0.57821 0.0
H1094 H 0.21548 0.26479 0.57855 0.0
C1095 C 0.02595 0.26874 0.59041 0.0
C1096 C 0.08706 0.22541 0.5899 0.0
H1097 H 0.17413 0.25272 0.60017 0.0
C1098 C 0.08476 0.2004 0.58091 0.0
C1099 C 0.11951 0.24437 0.59699 0.0
C1100 C 0.12287 0.27039 0.60709 0.0
C1101 C 0.11435 0.19418 0.57871 0.0
C1102 C 0.14679 0.21322 0.58577 0.0
C1103 C 0.14913 0.23825 0.59475 0.0
C1104 C 0.17897 0.20795 0.58402 0.0
C1105 C 0.11098 0.16788 0.56872 0.0
C1106 C 0.17654 0.17381 0.58666 0.0
C1107 C 0.20837 0.17057 0.58646 0.0
C1108 C 0.24296 0.20156 0.58374 0.0
C1109 C 0.24483 0.23509 0.58049 0.0
C1110 C 0.21314 0.23828 0.58067 0.0
H1111 H 0.08783 0.1619 0.56242 0.0
H1112 H 0.13709 0.17939 0.56341 0.0
H1113 H 0.10563 0.14128 0.5728 0.0
H1114 H 0.15042 0.15021 0.58942 0.0
H1115 H 0.20629 0.14457 0.58912 0.0
H1116 H 0.85683 0.80766 0.59624 0.0
H1117 H 0.86272 0.86873 0.59449 0.0
H1118 H 0.74934 0.81828 0.58233 0.0
H1119 H 0.74297 0.7567 0.58425 0.0
H1120 H 0.85461 0.89767 0.57278 0.0
H1121 H 0.75637 0.89318 0.60778 0.0
H1122 H 0.77294 0.86057 0.60754 0.0
H1123 H 0.73697 0.85504 0.59729 0.0
C1124 C 0.83288 0.80946 0.59342 0.0
C1125 C 0.79941 0.77743 0.59036 0.0
C1126 C 0.83636 0.84437 0.59239 0.0
C1127 C 0.80649 0.84794 0.58831 0.0
C1128 C 0.77255 0.816 0.58568 0.0
H1129 H 0.78123 0.03651 0.57209 0.0
H1130 H 0.7755 0.97517 0.57236 0.0
C1131 C 0.76895 0.78089 0.58677 0.0
C1132 C 0.81189 0.88526 0.58603 0.0
H1133 H 0.78217 0.94477 0.59445 0.0
C1134 C 0.83887 0.90807 0.57753 0.0
C1135 C 0.79124 0.89857 0.59225 0.0
C1136 C 0.76297 0.87575 0.60181 0.0
C1137 C 0.84553 0.94388 0.57499 0.0
C1138 C 0.82489 0.95715 0.58121 0.0
C1139 C 0.79783 0.93431 0.58967 0.0
C1140 C 0.83087 0.99479 0.57921 0.0
C1141 C 0.87411 0.967 0.56556 0.0
C1142 C 0.86435 0.02617 0.58262 0.0
C1143 C 0.86769 0.06129 0.58244 0.0
C1144 C 0.83741 0.06524 0.57899 0.0
C1145 C 0.80477 0.03403 0.57492 0.0
C1146 C 0.80149 -0.00092 0.57506 0.0
H1147 H 0.88122 0.94983 0.55964 0.0
H1148 H 0.86412 0.98204 0.55977 0.0
H1149 H 0.8998 0.98788 0.57018 0.0
H1150 H 0.88715 0.02326 0.58602 0.0
H1151 H 0.89297 0.08488 0.58574 0.0
H1152 H 0.2315 0.07343 0.59981 0.0
H1153 H 0.17041 0.01833 0.59809 0.0
H1154 H 0.22072 0.95408 0.5872 0.0
H1155 H 0.28232 0.00923 0.58906 0.0
H1156 H 0.143 0.98052 0.57633 0.0
H1157 H 0.14353 0.88752 0.61243 0.0
H1158 H 0.17635 0.93667 0.61213 0.0
H1159 H 0.18256 0.90575 0.60231 0.0
C1160 C 0.22967 0.04741 0.59729 0.0
C1161 C 0.26167 0.0456 0.59454 0.0
C1162 C 0.19473 0.01602 0.59629 0.0
C1163 C 0.19112 0.98223 0.59254 0.0
C1164 C 0.22302 0.97985 0.59028 0.0
H1165 H 0.00398 0.76847 0.57553 0.0
H1166 H 0.0653 0.8239 0.57656 0.0
C1167 C 0.25815 0.01132 0.59135 0.0
C1168 C 0.15386 0.95043 0.59012 0.0
H1169 H 0.09316 0.86155 0.59862 0.0
C1170 C 0.13198 0.95451 0.58122 0.0
C1171 C 0.13976 0.91666 0.59652 0.0
C1172 C 0.16158 0.91133 0.60646 0.0
C1173 C 0.09639 0.92541 0.57845 0.0
C1174 C 0.08232 0.89165 0.58484 0.0
C1175 C 0.1042 0.88755 0.59372 0.0
C1176 C 0.04495 0.85994 0.58252 0.0
C1177 C 0.0744 0.93074 0.56857 0.0
C1178 C 0.0132 0.86224 0.58519 0.0
C1179 C 0.97808 0.83055 0.58457 0.0
C1180 C 0.97447 0.79623 0.58141 0.0
C1181 C 0.00617 0.79457 0.57812 0.0
C1182 C 0.04111 0.82613 0.57869 0.0
H1183 H 0.09227 0.95478 0.56265 0.0
H1184 H 0.05983 0.90551 0.56283 0.0
H1185 H 0.0532 0.93589 0.57278 0.0
H1186 H 0.01571 0.88804 0.58834 0.0
H1187 H 0.95409 0.8324 0.58728 0.0
H1188 H 0.52147 0.01271 0.06413 0.0
H1189 H 0.52468 0.01033 0.04194 0.0
H1190 H 0.45986 0.06441 0.03867 0.0
H1191 H 0.45705 0.0675 0.06075 0.0
H1192 H 0.46679 0.97469 0.02585 0.0
H1193 H 0.54507 0.12505 0.01564 0.0
H1194 H 0.54226 0.10699 0.03075 0.0
H1195 H 0.50479 0.112 0.0248 0.0
C1196 C 0.50842 0.02465 0.05869 0.0
C1197 C 0.48916 0.04046 0.06425 0.0
C1198 C 0.51012 0.0231 0.046 0.0
C1199 C 0.49286 0.03755 0.03861 0.0
C1200 C 0.47406 0.05376 0.04415 0.0
H1201 H 0.42295 0.98475 0.96314 0.0
H1202 H 0.42644 0.98697 0.98537 0.0
C1203 C 0.47236 0.05537 0.0568 0.0
C1204 C 0.49298 0.03423 0.02515 0.0
H1205 H 0.51492 0.08464 0.9989 0.0
C1206 C 0.47756 -0.00125 0.01995 0.0
C1207 C 0.50737 0.06561 0.01744 0.0
C1208 C 0.52614 0.10458 0.02243 0.0
C1209 C 0.4754 0.99376 1.00727 0.0
C1210 C 0.48841 0.02506 0.99957 0.0
C1211 C 0.50456 0.06058 1.00478 0.0
C1212 C 0.48611 0.02185 0.98608 0.0
C1213 C 0.45966 0.95505 1.00226 0.0
C1214 C 0.51835 0.04105 0.97905 0.0
C1215 C 0.5164 0.04012 0.96636 0.0
C1216 C 0.48209 0.01999 0.96039 0.0
C1217 C 0.44983 0.00027 0.96744 0.0
C1218 C 0.45181 0.00137 0.98016 0.0
H1219 H 0.46082 0.93592 1.00906 0.0
H1220 H 0.43018 0.94411 0.9998 0.0
H1221 H 0.47482 0.95493 0.99398 0.0
H1222 H 0.54512 0.0571 0.98338 0.0
H1223 H 0.54183 0.05567 0.96125 0.0
H1224 H 0.98032 0.49208 0.96082 0.0
H1225 H 0.97703 0.49599 0.98286 0.0
H1226 H 0.07605 0.48838 0.98657 0.0
H1227 H 0.07851 0.48276 0.9645 0.0
H1228 H 0.0269 0.44377 1.00185 0.0
H1229 H 0.03198 0.57841 1.00612 0.0
H1230 H 0.99448 0.54726 0.99655 0.0
H1231 H 0.04158 0.56297 0.99199 0.0
C1232 C 0.00171 0.49175 0.96631 0.0
C1233 C 0.02975 0.4872 0.96089 0.0
C1234 C -6e-05 0.49427 0.97894 0.0
C1235 C 0.02668 0.49322 0.98645 0.0
C1236 C 0.05514 0.4894 0.98101 0.0
H1237 H 0.04752 0.53952 0.0644 0.0
H1238 H 0.05337 0.54366 0.04225 0.0
C1239 C 0.05658 0.48627 0.96838 0.0
C1240 C 0.02354 0.49349 0.99995 0.0
H1241 H 0.01124 0.53915 0.02371 0.0
C1242 C 0.0238 0.46486 1.00662 0.0
C1243 C 0.02001 0.52123 1.00627 0.0
C1244 C 0.0224 0.5544 0.99987 0.0
C1245 C 0.02002 0.46278 0.01932 0.0
C1246 C 0.01434 0.48929 0.02557 0.0
C1247 C 0.01487 0.5184 0.01894 0.0
C1248 C 0.0087 0.48769 0.03898 0.0
C1249 C 0.02306 0.4326 0.0259 0.0
C1250 C 0.98076 0.45538 0.04456 0.0
C1251 C 0.97771 0.45277 0.05722 0.0
C1252 C 0.00194 0.48277 0.06459 0.0
C1253 C 0.02838 0.51592 0.05899 0.0
C1254 C 0.03181 0.5183 0.04631 0.0
H1255 H 0.03875 0.42253 0.02047 0.0
H1256 H 0.037 0.44241 0.03482 0.0
H1257 H 0.99488 0.40867 0.02745 0.0
H1258 H 0.96172 0.43182 0.03912 0.0
H1259 H 0.95678 0.42698 0.06125 0.0
H1260 H 0.58048 0.62421 0.96096 0.0
H1261 H 0.57675 0.61677 0.98304 0.0
H1262 H 0.50832 0.4984 0.97888 0.0
H1263 H 0.51221 0.5055 0.95675 0.0
H1264 H 0.51649 0.58523 0.99908 0.0
H1265 H 0.5945 0.50929 0.99999 0.0
H1266 H 0.59289 0.53396 0.98673 0.0
H1267 H 0.55419 0.48925 0.99042 0.0
C1268 C 0.56439 0.59657 0.96472 0.0
C1269 C 0.54686 0.56543 0.95705 0.0
C1270 C 0.56229 0.59238 0.97736 0.0
C1271 C 0.54282 0.55699 0.98263 0.0
C1272 C 0.52413 0.52593 0.97502 0.0
H1273 H 0.49523 0.52083 0.06087 0.0
H1274 H 0.48907 0.51872 0.0387 0.0
C1275 C 0.52617 0.53008 0.96236 0.0
C1276 C 0.54284 0.55277 0.99607 0.0
H1277 H 0.57148 0.51676 0.01875 0.0
C1278 C 0.52832 0.57009 1.00339 0.0
C1279 C 0.55874 0.53342 1.00169 0.0
C1280 C 0.57628 0.51565 0.99434 0.0
C1281 C 0.52929 0.56862 0.01614 0.0
C1282 C 0.54478 0.54888 0.02176 0.0
C1283 C 0.55927 0.53154 0.01444 0.0
C1284 C 0.54807 0.5477 0.0352 0.0
C1285 C 0.51479 0.58923 0.0235 0.0
C1286 C 0.5832 0.56341 0.04062 0.0
C1287 C 0.58682 0.56447 0.05328 0.0
C1288 C 0.55533 0.54964 0.06081 0.0
C1289 C 0.52007 0.53263 0.05535 0.0
C1290 C 0.5165 0.53164 0.04267 0.0
H1291 H 0.51154 0.60962 0.01791 0.0
H1292 H 0.48724 0.5691 0.02729 0.0
H1293 H 0.53359 0.60409 0.03122 0.0
H1294 H 0.60795 0.57578 0.03505 0.0
H1295 H 0.6144 0.57769 0.05715 0.0
H1296 H 0.17652 0.321 0.39502 0.0
H1297 H 0.17843 0.31648 0.37292 0.0
H1298 H 0.16524 0.41238 0.36913 0.0
H1299 H 0.16133 0.41573 0.39121 0.0
H1300 H 0.12015 0.3621 0.35473 0.0
H1301 H 0.25538 0.37026 0.34805 0.0
H1302 H 0.22631 0.33293 0.35804 0.0
H1303 H 0.24172 0.38011 0.36248 0.0
C1304 C 0.17472 0.34153 0.38947 0.0
C1305 C 0.16886 0.36879 0.39486 0.0
C1306 C 0.17603 0.33906 0.3768 0.0
C1307 C 0.17258 0.36443 0.36925 0.0
C1308 C 0.16799 0.39243 0.37469 0.0
H1309 H 0.20886 0.38329 0.29079 0.0
H1310 H 0.21544 0.38916 0.31289 0.0
C1311 C 0.16589 0.39443 0.38733 0.0
C1312 C 0.17078 0.36017 0.35575 0.0
H1313 H 0.2137 0.34809 0.33111 0.0
C1314 C 0.14085 0.35937 0.34958 0.0
C1315 C 0.19791 0.35702 0.34891 0.0
C1316 C 0.23232 0.36053 0.3547 0.0
C1317 C 0.13707 0.35522 0.33691 0.0
C1318 C 0.16309 0.35004 0.33015 0.0
C1319 C 0.19334 0.35136 0.33627 0.0
C1320 C 0.15994 0.34439 0.31672 0.0
C1321 C 0.10573 0.35755 0.33091 0.0
C1322 C 0.12705 0.31643 0.31143 0.0
C1323 C 0.12301 0.31347 0.29878 0.0
C1324 C 0.15216 0.3377 0.29114 0.0
C1325 C 0.18588 0.36414 0.29642 0.0
C1326 C 0.18966 0.36757 0.30908 0.0
H1327 H 0.0961 0.3731 0.33662 0.0
H1328 H 0.11411 0.37134 0.32191 0.0
H1329 H 0.08189 0.32915 0.32962 0.0
H1330 H 0.10416 0.29728 0.31708 0.0
H1331 H 0.09683 0.29252 0.29499 0.0
H1332 H 0.64385 0.75838 0.38936 0.0
H1333 H 0.64889 0.76605 0.3673 0.0
H1334 H 0.70732 0.88487 0.37161 0.0
H1335 H 0.70285 0.87749 0.39373 0.0
H1336 H 0.62521 0.80132 0.35113 0.0
H1337 H 0.7786 0.86716 0.35081 0.0
H1338 H 0.75099 0.84393 0.364 0.0
H1339 H 0.76074 0.88991 0.3602 0.0
C1340 C 0.65755 0.78619 0.38564 0.0
C1341 C 0.67317 0.81732 0.39335 0.0
C1342 C 0.66041 0.79052 0.373 0.0
C1343 C 0.67908 0.82603 0.36778 0.0
C1344 C 0.69347 0.85719 0.37543 0.0
H1345 H 0.6728 0.86317 0.28937 0.0
H1346 H 0.66877 0.86633 0.3115 0.0
C1347 C 0.69062 0.85291 0.38808 0.0
C1348 C 0.68399 0.83015 0.35436 0.0
H1349 H 0.74954 0.86213 0.33192 0.0
C1350 C 0.65238 0.8148 0.34693 0.0
C1351 C 0.71948 0.8473 0.34887 0.0
C1352 C 0.75444 0.86276 0.35635 0.0
C1353 C 0.65527 0.81604 0.33418 0.0
C1354 C 0.69076 0.83362 0.32869 0.0
C1355 C 0.72237 0.84903 0.33613 0.0
C1356 C 0.6956 0.83437 0.31527 0.0
C1357 C 0.62024 0.79741 0.32671 0.0
C1358 C 0.71338 0.81671 0.31001 0.0
C1359 C 0.71599 0.81509 0.29738 0.0
C1360 C 0.701 0.83128 0.2897 0.0
C1361 C 0.68451 0.85027 0.29499 0.0
C1362 C 0.68192 0.85186 0.30765 0.0
H1363 H 0.59585 0.77803 0.33224 0.0
H1364 H 0.61473 0.81884 0.3229 0.0
H1365 H 0.62313 0.78176 0.31903 0.0
H1366 H 0.72435 0.8032 0.3157 0.0
H1367 H 0.72897 0.80033 0.29364 0.0
H1368 H 0.21604 0.94096 0.29675 0.0
H1369 H 0.21417 0.9341 0.31885 0.0
H1370 H 0.19558 0.82301 0.31483 0.0
H1371 H 0.19551 0.82908 0.29273 0.0
H1372 H 0.15662 0.82445 0.33308 0.0
H1373 H 0.29853 0.94352 0.33831 0.0
H1374 H 0.26836 0.95721 0.33136 0.0
H1375 H 0.27865 0.92525 0.32364 0.0
C1376 C 0.21114 0.91492 0.30059 0.0
C1377 C 0.20618 0.88566 0.29299 0.0
C1378 C 0.21047 0.91115 0.31324 0.0
C1379 C 0.20596 0.87846 0.31857 0.0
C1380 C 0.19944 0.84865 0.31098 0.0
H1381 H 0.2768 0.88038 0.39323 0.0
H1382 H 0.26972 0.87564 0.37114 0.0
C1383 C 0.19935 0.85213 0.29833 0.0
C1384 C 0.20875 0.87557 0.33201 0.0
H1385 H 0.26369 0.91958 0.35649 0.0
C1386 C 0.18016 0.84515 0.33819 0.0
C1387 C 0.23984 0.90202 0.33871 0.0
C1388 C 0.27325 0.93358 0.33264 0.0
C1389 C 0.18145 0.84084 0.35084 0.0
C1390 C 0.21155 0.86844 0.35761 0.0
C1391 C 0.24037 0.89852 0.35139 0.0
C1392 C 0.21399 0.86707 0.37113 0.0
C1393 C 0.15094 0.80622 0.35669 0.0
C1394 C 0.18488 0.86321 0.3786 0.0
C1395 C 0.18858 0.86497 0.39127 0.0
C1396 C 0.22186 0.87172 0.39674 0.0
C1397 C 0.25079 0.87511 0.38929 0.0
C1398 C 0.24679 0.87254 0.37665 0.0
H1399 H 0.13805 0.78294 0.3501 0.0
H1400 H 0.16137 0.79735 0.36454 0.0
H1401 H 0.12894 0.81171 0.35994 0.0
H1402 H 0.15973 0.86016 0.37466 0.0
H1403 H 0.166 0.86285 0.39675 0.0
H1404 H 0.77643 0.72759 0.72356 0.0
H1405 H 0.77768 0.72549 0.70126 0.0
H1406 H 0.83047 0.6592 0.70316 0.0
H1407 H 0.82879 0.66056 0.72526 0.0
H1408 H 0.83529 0.7471 0.68443 0.0
H1409 H 0.73959 0.59528 0.68242 0.0
H1410 H 0.74646 0.62191 0.69608 0.0
H1411 H 0.77942 0.60805 0.69179 0.0
C1412 C 0.78847 0.71276 0.71921 0.0
C1413 C 0.80212 0.69392 0.72621 0.0
C1414 C 0.78915 0.71155 0.70647 0.0
C1415 C 0.80343 0.69148 0.70053 0.0
C1416 C 0.81845 0.67405 0.70752 0.0
H1417 H 0.86148 0.70206 0.6236 0.0
H1418 H 0.86302 0.7065 0.64582 0.0
C1419 C 0.81762 0.67505 0.72018 0.0
C1420 C 0.80227 0.68811 0.68706 0.0
H1421 H 0.77051 0.62446 0.66406 0.0
C1422 C 0.82101 0.72032 0.67996 0.0
C1423 C 0.78322 0.65317 0.68121 0.0
C1424 C 0.76072 0.61765 0.68825 0.0
C1425 C 0.8218 0.71849 0.6672 0.0
C1426 C 0.80395 0.68342 0.66139 0.0
C1427 C 0.78466 0.6513 0.6685 0.0
C1428 C 0.80346 0.67942 0.64794 0.0
C1429 C 0.8411 0.75417 0.66007 0.0
C1430 C 0.76951 0.66127 0.64174 0.0
C1431 C 0.76852 0.65823 0.62909 0.0
C1432 C 0.80153 0.67323 0.62229 0.0
C1433 C 0.83555 0.69032 0.62853 0.0
C1434 C 0.83649 0.69323 0.64124 0.0
H1435 H 0.84468 0.77818 0.66553 0.0
H1436 H 0.86902 0.75959 0.65735 0.0
H1437 H 0.82542 0.75235 0.6517 0.0
H1438 H 0.74364 0.65012 0.6467 0.0
H1439 H 0.7418 0.64484 0.62461 0.0
H1440 H 0.33602 0.18419 0.62639 0.0
H1441 H 0.33311 0.18432 0.64865 0.0
H1442 H 0.39436 0.12623 0.65045 0.0
H1443 H 0.39794 0.12649 0.62834 0.0
H1444 H 0.30098 0.12377 0.66416 0.0
H1445 H 0.45072 0.2108 0.67419 0.0
H1446 H 0.43182 0.20818 0.65924 0.0
H1447 H 0.44044 0.17225 0.66447 0.0
C1448 C 0.34938 0.17197 0.63153 0.0
C1449 C 0.36739 0.15551 0.62556 0.0
C1450 C 0.34752 0.1719 0.64425 0.0
C1451 C 0.36385 0.15563 0.65124 0.0
C1452 C 0.38218 0.13959 0.64529 0.0
H1453 H 0.31748 0.07894 0.7265 0.0
H1454 H 0.31843 0.08328 0.70426 0.0
C1455 C 0.38408 0.13967 0.63261 0.0
C1456 C 0.36061 0.15407 0.66472 0.0
H1457 H 0.4117 0.17704 0.69081 0.0
C1458 C 0.32517 0.13564 0.67 0.0
C1459 C 0.39216 0.16982 0.67235 0.0
C1460 C 0.43093 0.19169 0.66729 0.0
C1461 C 0.32045 0.13192 0.68268 0.0
C1462 C 0.35204 0.14648 0.69029 0.0
C1463 C 0.38745 0.1655 0.68499 0.0
C1464 C 0.34929 0.14332 0.70377 0.0
C1465 C 0.2817 0.11296 0.68782 0.0
C1466 C 0.3666 0.17549 0.71092 0.0
C1467 C 0.36641 0.17306 0.72358 0.0
C1468 C 0.34892 0.13835 0.72943 0.0
C1469 C 0.33096 0.10608 0.72229 0.0
C1470 C 0.33134 0.10855 0.70957 0.0
H1471 H 0.26141 0.1125 0.68118 0.0
H1472 H 0.27325 0.08383 0.6901 0.0
H1473 H 0.28035 0.12692 0.69624 0.0
H1474 H 0.38065 0.20261 0.70668 0.0
H1475 H 0.38049 0.19853 0.72877 0.0
H1476 H 0.87074 0.17364 0.62352 0.0
H1477 H 0.87266 0.17024 0.64567 0.0
H1478 H 0.88755 0.28024 0.64844 0.0
H1479 H 0.88748 0.28441 0.6263 0.0
H1480 H 0.935 0.27612 0.66227 0.0
H1481 H 0.79953 0.15144 0.67162 0.0
H1482 H 0.82685 0.14157 0.66135 0.0
H1483 H 0.8113 0.17317 0.65687 0.0
C1484 C 0.87371 0.19682 0.62887 0.0
C1485 C 0.87883 0.22925 0.62315 0.0
C1486 C 0.87465 0.19478 0.64157 0.0
C1487 C 0.87973 0.22476 0.64884 0.0
C1488 C 0.88361 0.2567 0.6431 0.0
H1489 H 0.85034 0.21937 0.72715 0.0
H1490 H 0.84345 0.21662 0.70509 0.0
C1491 C 0.8834 0.25901 0.63042 0.0
C1492 C 0.88359 0.22409 0.66232 0.0
H1493 H 0.84302 0.17347 0.68795 0.0
C1494 C 0.91469 0.25373 0.66787 0.0
C1495 C 0.85704 0.19516 0.66974 0.0
C1496 C 0.82163 0.16376 0.6646 0.0
C1497 C 0.92002 0.2553 0.68051 0.0
C1498 C 0.8943 0.2256 0.68788 0.0
C1499 C 0.8631 0.19601 0.68235 0.0
C1500 C 0.89832 0.22553 0.70137 0.0
C1501 C 0.95259 0.28948 0.68583 0.0
C1502 C 0.93115 0.23056 0.70675 0.0
C1503 C 0.93543 0.23283 0.71941 0.0
C1504 C 0.90658 0.22912 0.72698 0.0
C1505 C 0.87314 0.22234 0.7216 0.0
C1506 C 0.86914 0.22074 0.70895 0.0
H1507 H 0.96251 0.31368 0.67964 0.0
H1508 H 0.94541 0.29696 0.6947 0.0
H1509 H 0.97586 0.28413 0.68725 0.0
H1510 H 0.95367 0.23309 0.70116 0.0
H1511 H 0.96137 0.23765 0.72326 0.0
H1512 H 0.2727 0.97232 0.22156 0.0
H1513 H 0.30714 0.98741 0.20248 0.0
H1514 H 0.29058 0.87663 0.20086 0.0
H1515 H 0.25499 0.86098 0.21979 0.0
H1516 H 0.3709 0.98953 0.19841 0.0
H1517 H 0.26614 0.88828 0.16653 0.0
H1518 H 0.25402 0.8969 0.18142 0.0
H1519 H 0.27337 0.86704 0.17962 0.0
C1520 C 0.27568 0.95088 0.21702 0.0
C1521 C 0.26083 0.91534 0.22218 0.0
C1522 C 0.29558 0.95962 0.20612 0.0
C1523 C 0.30134 0.93315 0.20012 0.0
C1524 C 0.28587 0.89735 0.20512 0.0
H1525 H 0.44094 0.95836 0.13669 0.0
H1526 H 0.40691 0.93721 0.15597 0.0
C1527 C 0.26554 0.88843 0.21598 0.0
C1528 C 0.32542 0.94401 0.18909 0.0
H1529 H 0.32786 0.92299 0.15917 0.0
C1530 C 0.36136 0.97494 0.18984 0.0
C1531 C 0.31322 0.92497 0.17787 0.0
C1532 C 0.27447 0.89268 0.17624 0.0
C1533 C 0.38517 0.98742 0.17973 0.0
C1534 C 0.37286 0.96856 0.16854 0.0
C1535 C 0.3373 0.93724 0.1678 0.0
C1536 C 0.39561 0.98242 0.15732 0.0
C1537 C 0.42338 0.02078 0.18105 0.0
C1538 C 0.40082 0.015 0.15176 0.0
C1539 C 0.41998 0.027 0.14076 0.0
C1540 C 0.43464 0.00682 0.13509 0.0
C1541 C 0.43038 0.97476 0.14087 0.0
C1542 C 0.41074 0.9625 0.15184 0.0
H1543 H 0.4314 0.02774 0.19072 0.0
H1544 H 0.44428 0.01591 0.17644 0.0
H1545 H 0.42396 0.04505 0.17665 0.0
H1546 H 0.38914 0.03063 0.15579 0.0
H1547 H 0.4226 0.05171 0.13654 0.0
H1548 H 0.07978 0.50871 0.13713 0.0
H1549 H 0.10121 0.49217 0.1556 0.0
H1550 H 0.00403 0.38332 0.15503 0.0
H1551 H 0.98305 0.39923 0.13647 0.0
H1552 H 0.07374 0.4692 0.17835 0.0
H1553 H 0.08503 0.35737 0.15514 0.0
H1554 H 0.07749 0.39056 0.14697 0.0
H1555 H 0.03927 0.35098 0.1541 0.0
C1556 C 0.06271 0.48144 0.14104 0.0
C1557 C 0.02982 0.45521 0.13526 0.0
C1558 C 0.0751 0.47194 0.15157 0.0
C1559 C 0.05481 0.43609 0.15653 0.0
C1560 C 0.02083 0.41073 0.15118 0.0
H1561 H 0.06294 0.3207 0.22022 0.0
H1562 H 0.04827 0.34176 0.20136 0.0
C1563 C 0.00865 0.42003 0.14062 0.0
C1564 C 0.06929 0.42483 0.16712 0.0
H1565 H 0.08899 0.35846 0.17682 0.0
C1566 C 0.07745 0.44523 0.17797 0.0
C1567 C 0.07454 0.39371 0.16662 0.0
C1568 C 0.06901 0.37213 0.15504 0.0
C1569 C 0.08926 0.43453 0.18841 0.0
C1570 C 0.09315 0.40269 0.188 0.0
C1571 C 0.08578 0.38274 0.17712 0.0
C1572 C 0.10327 0.38881 0.19895 0.0
C1573 C 0.09653 0.45663 0.19995 0.0
C1574 C 0.13941 0.40768 0.20366 0.0
C1575 C 0.14808 0.39542 0.21438 0.0
C1576 C 0.12063 0.36423 0.22064 0.0
C1577 C 0.08476 0.34478 0.21564 0.0
C1578 C 0.07627 0.35682 0.20488 0.0
H1579 H 0.08816 0.47803 0.19919 0.0
H1580 H 0.08137 0.43792 0.20766 0.0
H1581 H 0.12655 0.47069 0.20211 0.0
H1582 H 0.16073 0.43227 0.19916 0.0
H1583 H 0.17588 0.41121 0.21801 0.0
H1584 H 0.62327 0.7848 0.2168 0.0
H1585 H 0.60149 0.74996 0.1977 0.0
H1586 H 0.69157 0.72724 0.19872 0.0
H1587 H 0.71333 0.76158 0.21781 0.0
H1588 H 0.67461 0.75362 0.17469 0.0
H1589 H 0.55516 0.63145 0.19641 0.0
H1590 H 0.56292 0.67707 0.19991 0.0
H1591 H 0.59546 0.66378 0.205 0.0
C1592 C 0.63879 0.77289 0.21286 0.0
C1593 C 0.6701 0.77605 0.21885 0.0
C1594 C 0.62612 0.75274 0.202 0.0
C1595 C 0.64469 0.73568 0.19687 0.0
C1596 C 0.67673 0.74003 0.20256 0.0
H1597 H 0.63468 0.60987 0.13321 0.0
H1598 H 0.65005 0.64547 0.15204 0.0
C1599 C 0.68918 0.75978 0.21346 0.0
C1600 C 0.63054 0.71263 0.18571 0.0
H1601 H 0.56402 0.62746 0.17547 0.0
C1602 C 0.65035 0.72611 0.17483 0.0
C1603 C 0.5987 0.67688 0.1859 0.0
C1604 C 0.57672 0.6611 0.19741 0.0
C1605 C 0.63931 0.70473 0.16414 0.0
C1606 C 0.60827 0.66829 0.16442 0.0
C1607 C 0.58793 0.65518 0.17525 0.0
C1608 C 0.59723 0.64328 0.15362 0.0
C1609 C 0.66079 0.72171 0.15262 0.0
C1610 C 0.56154 0.62801 0.14859 0.0
C1611 C 0.55235 0.60687 0.13788 0.0
C1612 C 0.57874 0.60065 0.132 0.0
C1613 C 0.61375 0.61433 0.13743 0.0
C1614 C 0.62275 0.63508 0.14815 0.0
H1615 H 0.67545 0.7525 0.15297 0.0
H1616 H 0.68199 0.71328 0.15144 0.0
H1617 H 0.64234 0.71232 0.14455 0.0
H1618 H 0.5412 0.63358 0.1527 0.0
H1619 H 0.52521 0.59691 0.13392 0.0
H1620 H 0.0205 0.38899 0.89494 0.0
H1621 H 0.00282 0.35734 0.87546 0.0
H1622 H 0.97242 0.43629 0.86252 0.0
H1623 H 0.98803 0.46691 0.88248 0.0
H1624 H 0.92376 0.37118 0.85489 0.0
H1625 H 0.0601 0.38546 0.84517 0.0
H1626 H 0.04222 0.36113 0.85917 0.0
H1627 H 0.05307 0.40872 0.8578 0.0
C1628 C 0.01047 0.39999 0.88792 0.0
C1629 C 0.00631 0.43095 0.8902 0.0
C1630 C 0.00051 0.38188 0.87671 0.0
C1631 C 0.98733 0.39494 0.86728 0.0
C1632 C 0.98284 0.42577 0.86956 0.0
H1633 H 0.98604 0.32504 0.79312 0.0
H1634 H -0.00149 0.35649 0.81257 0.0
C1635 C 0.99196 0.44342 0.88095 0.0
C1636 C 0.97759 0.37582 0.85522 0.0
H1637 H 0.00941 0.34053 0.83334 0.0
C1638 C 0.94267 0.36484 0.85011 0.0
C1639 C 0.00231 0.36788 0.8488 0.0
C1640 C 0.04162 0.38181 0.85296 0.0
C1641 C 0.9317 0.34591 0.83891 0.0
C1642 C 0.95566 0.33616 0.83285 0.0
C1643 C 0.99063 0.34738 0.83796 0.0
C1644 C 0.94649 0.31649 0.82086 0.0
C1645 C 0.89504 0.33773 0.83358 0.0
C1646 C 0.91296 0.28316 0.81884 0.0
C1647 C 0.90528 0.26541 0.80747 0.0
C1648 C 0.93157 0.27995 0.79806 0.0
C1649 C 0.96533 0.31273 0.80021 0.0
C1650 C 0.9725 0.33087 0.81138 0.0
H1651 H 0.88594 0.35676 0.83723 0.0
H1652 H 0.89654 0.34027 0.82353 0.0
H1653 H 0.87358 0.30903 0.83601 0.0
H1654 H 0.89279 0.27065 0.82605 0.0
H1655 H 0.87907 0.24017 0.80608 0.0
H1656 H 0.58645 0.52863 0.8836 0.0
H1657 H 0.62195 0.54051 0.86469 0.0
H1658 H 0.65297 0.65589 0.86647 0.0
H1659 H 0.61835 0.6445 0.88537 0.0
H1660 H 0.61969 0.56926 0.84216 0.0
H1661 H 0.75317 0.66196 0.86488 0.0
H1662 H 0.71124 0.63269 0.87324 0.0
H1663 H 0.71964 0.67638 0.86717 0.0
C1664 C 0.6004 0.55642 0.87987 0.0
C1665 C 0.59974 0.58566 0.88606 0.0
C1666 C 0.62084 0.56321 0.86909 0.0
C1667 C 0.641 0.59931 0.86433 0.0
C1668 C 0.63859 0.62803 0.87014 0.0
H1669 H 0.7691 0.71306 0.80171 0.0
H1670 H 0.73671 0.69305 0.82117 0.0
C1671 C 0.61844 0.62136 0.88091 0.0
C1672 C 0.66506 0.60739 0.85341 0.0
H1673 H 0.7535 0.66356 0.84315 0.0
C1674 C 0.64903 0.5895 0.8424 0.0
C1675 C 0.70349 0.63362 0.85374 0.0
C1676 C 0.72301 0.65199 0.86542 0.0
C1677 C 0.67 0.59842 0.83163 0.0
C1678 C 0.70806 0.62568 0.83189 0.0
C1679 C 0.7243 0.64278 0.84295 0.0
C1680 C 0.73083 0.63846 0.82064 0.0
C1681 C 0.65105 0.57968 0.81993 0.0
C1682 C 0.73952 0.61488 0.81407 0.0
C1683 C 0.7585 0.62642 0.80297 0.0
C1684 C 0.7689 0.66168 0.79821 0.0
C1685 C 0.76156 0.68575 0.8051 0.0
C1686 C 0.74292 0.67433 0.81622 0.0
H1687 H 0.62042 0.5635 0.8209 0.0
H1688 H 0.6582 0.60053 0.8126 0.0
H1689 H 0.66079 0.56046 0.81705 0.0
H1690 H 0.73086 0.58725 0.8174 0.0
H1691 H 0.76348 0.60709 0.79787 0.0
H1692 H 0.43486 0.18542 0.80164 0.0
H1693 H 0.45643 0.1722 0.82075 0.0
H1694 H 0.35626 0.06601 0.82288 0.0
H1695 H 0.33472 0.07869 0.80384 0.0
H1696 H 0.4263 0.15244 0.84468 0.0
H1697 H 0.43841 0.0389 0.82294 0.0
H1698 H 0.43274 0.07256 0.81429 0.0
H1699 H 0.39334 0.03407 0.82135 0.0
C1700 C 0.4171 0.15955 0.8063 0.0
C1701 C 0.38315 0.13302 0.80113 0.0
C1702 C 0.42957 0.15197 0.81719 0.0
C1703 C 0.40838 0.11772 0.82309 0.0
C1704 C 0.37351 0.09224 0.81835 0.0
H1705 H 0.41723 0.00086 0.8861 0.0
H1706 H 0.40427 0.02181 0.86695 0.0
C1707 C 0.3611 0.0997 0.80748 0.0
C1708 C 0.42303 0.10775 0.83393 0.0
H1709 H 0.44344 0.04278 0.8445 0.0
C1710 C 0.43044 0.12872 0.84462 0.0
C1711 C 0.42866 0.0769 0.83383 0.0
C1712 C 0.42324 0.05449 0.82246 0.0
C1713 C 0.44181 0.11873 0.85533 0.0
C1714 C 0.44641 0.08724 0.8553 0.0
C1715 C 0.43983 0.06683 0.84454 0.0
C1716 C 0.45607 0.07382 0.8665 0.0
C1717 C 0.44745 0.14109 0.86673 0.0
C1718 C 0.49012 0.09548 0.87243 0.0
C1719 C 0.49781 0.0834 0.88337 0.0
C1720 C 0.47153 0.04942 0.88861 0.0
C1721 C 0.43814 0.02714 0.88235 0.0
C1722 C 0.4306 0.03914 0.8714 0.0
H1723 H 0.43577 0.15983 0.86588 0.0
H1724 H 0.43443 0.12256 0.87466 0.0
H1725 H 0.47756 0.15837 0.86858 0.0
H1726 H 0.5105 0.12204 0.8687 0.0
H1727 H 0.52373 0.10134 0.88796 0.0
H1728 H 0.95832 0.3158 0.55359 0.0
H1729 H 0.99268 0.32891 0.53458 0.0
H1730 H 0.94794 0.21188 0.52862 0.0
H1731 H 0.91326 0.19829 0.54779 0.0
H1732 H 0.04684 0.30647 0.52919 0.0
H1733 H 0.93111 0.25274 0.49582 0.0
H1734 H 0.92606 0.2644 0.51124 0.0
H1735 H 0.9269 0.22253 0.50817 0.0
C1736 C 0.95523 0.29266 0.54819 0.0
C1737 C 0.93282 0.2559 0.55225 0.0
C1738 C 0.97511 0.3003 0.53733 0.0
C1739 C 0.97291 0.27144 0.53016 0.0
C1740 C 0.94981 0.2346 0.53396 0.0
H1741 H 0.1268 0.3038 0.47013 0.0
H1742 H 0.09128 0.28309 0.48913 0.0
C1743 C 0.92995 0.22688 0.54491 0.0
C1744 C 0.996 0.28041 0.51898 0.0
H1745 H 0.99151 0.27732 0.48797 0.0
C1746 C 0.03477 0.29984 0.52017 0.0
C1747 C 0.98021 0.27197 0.50723 0.0
C1748 C 0.9388 0.25197 0.50544 0.0
C1749 C 0.05814 0.31137 0.50993 0.0
C1750 C 0.04236 0.30318 0.49817 0.0
C1751 C 0.00358 0.28342 0.49699 0.0
C1752 C 0.0655 0.31674 0.48699 0.0
C1753 C 0.09954 0.33329 0.51173 0.0
C1754 C 0.06302 0.34266 0.4795 0.0
C1755 C 0.08339 0.3547 0.46871 0.0
C1756 C 0.10656 0.34085 0.46506 0.0
C1757 C 0.10953 0.31531 0.47269 0.0
C1758 C 0.08919 0.30339 0.48356 0.0
H1759 H 0.10713 0.3427 0.52128 0.0
H1760 H 0.11165 0.31568 0.50935 0.0
H1761 H 0.11218 0.35791 0.50568 0.0
H1762 H 0.04499 0.35339 0.48196 0.0
H1763 H 0.08018 0.37423 0.46308 0.0
H1764 H 0.65707 0.73446 0.46522 0.0
H1765 H 0.67768 0.7205 0.48427 0.0
H1766 H 0.7707 0.83188 0.48542 0.0
H1767 H 0.75011 0.84627 0.46631 0.0
H1768 H 0.78755 0.77118 0.48847 0.0
H1769 H 0.67643 0.75844 0.51934 0.0
H1770 H 0.66058 0.73361 0.50524 0.0
H1771 H 0.6871 0.78338 0.50512 0.0
C1772 C 0.68157 0.75626 0.46961 0.0
C1773 C 0.70178 0.7916 0.46426 0.0
C1774 C 0.69332 0.7482 0.48052 0.0
C1775 C 0.72563 0.77517 0.48631 0.0
C1776 C 0.74561 0.81068 0.48112 0.0
H1777 H 0.84216 0.75291 0.5498 0.0
H1778 H 0.82843 0.77472 0.53088 0.0
C1779 C 0.73363 0.81893 0.47025 0.0
C1780 C 0.73914 0.76548 0.49747 0.0
H1781 H 0.71508 0.73612 0.52675 0.0
C1782 C 0.77197 0.76385 0.4969 0.0
C1783 C 0.7187 0.75579 0.50842 0.0
C1784 C 0.68388 0.75813 0.50967 0.0
C1785 C 0.78415 0.75145 0.50685 0.0
C1786 C 0.76335 0.74118 0.51777 0.0
C1787 C 0.73098 0.74372 0.51839 0.0
C1788 C 0.77376 0.72675 0.52861 0.0
C1789 C 0.81833 0.74808 0.50539 0.0
C1790 C 0.74782 0.69251 0.53369 0.0
C1791 C 0.75546 0.68021 0.54455 0.0
C1792 C 0.78936 0.70177 0.55061 0.0
C1793 C 0.81604 0.73535 0.54527 0.0
C1794 C 0.80819 0.74785 0.53443 0.0
H1795 H 0.82498 0.74711 0.49567 0.0
H1796 H 0.8423 0.77259 0.50956 0.0
H1797 H 0.81491 0.72282 0.50998 0.0
H1798 H 0.72111 0.67563 0.5294 0.0
H1799 H 0.73424 0.65427 0.5484 0.0
H1800 H 0.3136 0.96761 0.46445 0.0
H1801 H 0.32608 0.00238 0.48337 0.0
H1802 H 0.20897 0.94895 0.49074 0.0
H1803 H 0.19603 0.91384 0.47171 0.0
H1804 H 0.29828 0.05189 0.48976 0.0
H1805 H 0.25644 0.93583 0.52255 0.0
H1806 H 0.26728 0.93249 0.50688 0.0
H1807 H 0.22399 0.92938 0.51071 0.0
C1808 C 0.29039 0.96279 0.47013 0.0
C1809 C 0.25375 0.93768 0.46655 0.0
C1810 C 0.29763 0.98292 0.48093 0.0
C1811 C 0.26852 0.97826 0.48849 0.0
C1812 C 0.2319 0.95276 0.4851 0.0
H1813 H 0.29542 0.12377 0.55084 0.0
H1814 H 0.27447 0.09008 0.53148 0.0
C1815 C 0.22456 0.93266 0.47422 0.0
C1816 C 0.27686 0.00081 0.49976 0.0
H1817 H 0.2775 0.99533 0.53073 0.0
C1818 C 0.29343 0.03953 0.49873 0.0
C1819 C 0.27071 0.98464 0.51144 0.0
C1820 C 0.25386 0.94334 0.51306 0.0
C1821 C 0.30444 0.06252 0.50906 0.0
C1822 C 0.29871 0.04638 0.52073 0.0
C1823 C 0.28167 0.00763 0.52177 0.0
C1824 C 0.31271 0.06922 0.53194 0.0
C1825 C 0.32331 0.104 0.50745 0.0
C1826 C 0.3414 0.06909 0.53853 0.0
C1827 C 0.35354 0.0884 0.54949 0.0
C1828 C 0.33705 0.10815 0.55422 0.0
C1829 C 0.30893 0.10914 0.54743 0.0
C1830 C 0.29687 0.08983 0.53638 0.0
H1831 H 0.33014 0.11239 0.49779 0.0
H1832 H 0.30479 0.11406 0.51079 0.0
H1833 H 0.34921 0.11786 0.51288 0.0
H1834 H 0.35408 0.05348 0.53527 0.0
H1835 H 0.3752 0.08687 0.55443 0.0
H1836 H 0.51659 0.45298 0.11637 0.0
H1837 H 0.49749 0.38736 0.11517 0.0
H1838 H 0.58059 0.41163 0.08777 0.0
H1839 H 0.6006 0.47792 0.0892 0.0
H1840 H 0.46847 0.34986 0.09396 0.0
H1841 H 0.58751 0.33419 0.10868 0.0
H1842 H 0.58427 0.37483 0.11221 0.0
H1843 H 0.5979 0.36893 0.09727 0.0
C1844 C 0.53162 0.44448 0.11038 0.0
C1845 C 0.55999 0.47038 0.10285 0.0
C1846 C 0.52058 0.40698 0.10967 0.0
C1847 C 0.53747 0.39457 0.10135 0.0
C1848 C 0.56752 0.42066 0.09437 0.0
H1849 H 0.46904 0.16796 0.07916 0.0
H1850 H 0.49699 0.23545 0.07955 0.0
C1851 C 0.57897 0.45849 0.0952 0.0
C1852 C 0.52042 0.35423 0.09908 0.0
H1853 H 0.53551 0.28096 0.10051 0.0
C1854 C 0.48315 0.3348 0.0954 0.0
C1855 C 0.53974 0.33476 0.10084 0.0
C1856 C 0.57948 0.35409 0.10506 0.0
C1857 C 0.46448 0.29634 0.09361 0.0
C1858 C 0.4835 0.27676 0.09563 0.0
C1859 C 0.52105 0.2962 0.09899 0.0
C1860 C 0.46449 0.23587 0.09479 0.0
C1861 C 0.42457 0.27694 0.08954 0.0
C1862 C 0.43652 0.21382 0.1031 0.0
C1863 C 0.42064 0.17527 0.10296 0.0
C1864 C 0.43262 0.1581 0.09453 0.0
C1865 C 0.45958 0.18031 0.08589 0.0
C1866 C 0.47556 0.21885 0.08607 0.0
H1867 H 0.41682 0.29665 0.08557 0.0
H1868 H 0.4192 0.25516 0.08272 0.0
H1869 H 0.40637 0.26335 0.09749 0.0
H1870 H 0.42792 0.22654 0.10998 0.0
H1871 H 0.40039 0.15919 0.10985 0.0
H1872 H 0.58394 0.0982 0.11938 0.0
H1873 H 0.64795 0.14886 0.11831 0.0
H1874 H 0.61562 0.20713 0.09324 0.0
H1875 H 0.55098 0.1564 0.09438 0.0
H1876 H 0.67203 0.18836 0.08504 0.0
H1877 H 0.70491 0.25989 0.12971 0.0
H1878 H 0.67942 0.21007 0.13042 0.0
H1879 H 0.65829 0.23434 0.12377 0.0
C1880 C 0.59026 0.12236 0.11394 0.0
C1881 C 0.56268 0.12348 0.10694 0.0
C1882 C 0.62678 0.15126 0.11336 0.0
C1883 C 0.63633 0.18161 0.10572 0.0
C1884 C 0.60855 0.18391 0.09924 0.0
H1885 H 0.86141 0.36126 0.09704 0.0
H1886 H 0.79439 0.32409 0.09826 0.0
C1887 C 0.57173 0.15512 0.09996 0.0
C1888 C 0.6758 0.20798 0.10338 0.0
H1889 H 0.75622 0.26967 0.11743 0.0
C1890 C 0.69045 0.20658 0.09204 0.0
C1891 C 0.69953 0.23141 0.11258 0.0
C1892 C 0.68481 0.23438 0.12479 0.0
C1893 C 0.72863 0.22729 0.08979 0.0
C1894 C 0.7525 0.24967 0.09914 0.0
C1895 C 0.73772 0.25203 0.11034 0.0
C1896 C 0.79297 0.27156 0.09743 0.0
C1897 C 0.74328 0.22503 0.07748 0.0
C1898 C 0.81432 0.25417 0.09648 0.0
C1899 C 0.85297 0.27548 0.09571 0.0
C1900 C 0.87064 0.31438 0.09582 0.0
C1901 C 0.84884 0.33145 0.0966 0.0
C1902 C 0.81046 0.31026 0.09742 0.0
H1903 H 0.72082 0.21182 0.07062 0.0
H1904 H 0.76409 0.25312 0.07423 0.0
H1905 H 0.75721 0.20833 0.07821 0.0
H1906 H 0.80115 0.22421 0.09662 0.0
H1907 H 0.86908 0.26166 0.09517 0.0
H1908 H 0.77502 0.64323 0.09838 0.0
H1909 H 0.81372 0.61475 0.1007 0.0
H1910 H 0.72176 0.50881 0.09032 0.0
H1911 H 0.68264 0.53606 0.08834 0.0
H1912 H 0.78927 0.54686 0.11741 0.0
H1913 H 0.81502 0.52655 0.0691 0.0
H1914 H 0.80487 0.56221 0.07368 0.0
H1915 H 0.76866 0.51463 0.0734 0.0
C1916 C 0.76295 0.61393 0.09653 0.0
C1917 C 0.72539 0.5922 0.09325 0.0
C1918 C 0.78519 0.59776 0.09782 0.0
C1919 C 0.77044 0.55978 0.09566 0.0
C1920 C 0.73363 0.53828 0.09192 0.0
H1921 H 0.88061 0.4279 0.09754 0.0
H1922 H 0.83086 0.44313 0.09659 0.0
C1923 C 0.71131 0.55423 0.09073 0.0
C1924 C 0.79271 0.54194 0.09805 0.0
H1925 H 0.83817 0.50319 0.0841 0.0
C1926 C 0.80001 0.53726 0.11015 0.0
C1927 C 0.8058 0.5288 0.08855 0.0
C1928 C 0.79846 0.53332 0.07542 0.0
C1929 C 0.82073 0.52018 0.11301 0.0
C1930 C 0.83518 0.50836 0.10349 0.0
C1931 C 0.82692 0.51212 0.09139 0.0
C1932 C 0.86222 0.4959 0.10578 0.0
C1933 C 0.82686 0.51493 0.1262 0.0
C1934 C 0.89587 0.5201 0.11147 0.0
C1935 C 0.924 0.5114 0.11209 0.0
C1936 C 0.91922 0.47844 0.1069 0.0
C1937 C 0.88487 0.45326 0.10173 0.0
C1938 C 0.85659 0.46205 0.10111 0.0
H1939 H 0.80401 0.5128 0.13198 0.0
H1940 H 0.82906 0.48968 0.12755 0.0
H1941 H 0.85297 0.53932 0.12935 0.0
H1942 H 0.90118 0.54671 0.11489 0.0
H1943 H 0.9502 0.53141 0.11612 0.0
H1944 H 0.45146 0.53628 0.90238 0.0
H1945 H 0.38856 0.52539 0.90463 0.0
H1946 H 0.42705 0.61387 0.93089 0.0
H1947 H 0.49055 0.62534 0.92855 0.0
H1948 H 0.37089 0.539 0.93892 0.0
H1949 H 0.33196 0.58201 0.89625 0.0
H1950 H 0.35629 0.55694 0.89413 0.0
H1951 H 0.37946 0.60176 0.90124 0.0
C1952 C 0.44674 0.5543 0.90831 0.0
C1953 C 0.47568 0.58156 0.91532 0.0
C1954 C 0.41085 0.54811 0.90956 0.0
C1955 C 0.40334 0.5689 0.9179 0.0
C1956 C 0.43255 0.59779 0.92435 0.0
H1957 H 0.17697 0.51703 0.93035 0.0
H1958 H 0.24399 0.54985 0.92895 0.0
C1959 C 0.46872 0.60442 0.92295 0.0
C1960 C 0.36451 0.55637 0.92108 0.0
H1961 H 0.28218 0.53839 0.90877 0.0
C1962 C 0.35152 0.53943 0.93243 0.0
C1963 C 0.33952 0.55691 0.91256 0.0
C1964 C 0.35246 0.57565 0.90039 0.0
C1965 C 0.31369 0.52151 0.93529 0.0
C1966 C 0.2885 0.52052 0.92653 0.0
C1967 C 0.30169 0.53892 0.9154 0.0
C1968 C 0.24819 0.50022 0.92866 0.0
C1969 C 0.30081 0.50331 0.94754 0.0
C1970 C 0.22842 0.46132 0.92911 0.0
C1971 C 0.18974 0.4422 0.92994 0.0
C1972 C 0.17038 0.46177 0.93034 0.0
C1973 C 0.19067 0.50085 0.93026 0.0
C1974 C 0.22913 0.51982 0.92937 0.0
H1975 H 0.32408 0.51295 0.9541 0.0
H1976 H 0.2795 0.50902 0.95136 0.0
H1977 H 0.28803 0.47283 0.9465 0.0
H1978 H 0.24281 0.44577 0.92844 0.0
H1979 H 0.17496 0.41219 0.93003 0.0
H1980 H 0.57032 0.99455 0.91981 0.0
H1981 H 0.59106 0.94915 0.92018 0.0
H1982 H 0.47751 0.86027 0.92099 0.0
H1983 H 0.45632 0.90563 0.92058 0.0
H1984 H 0.5756 0.8957 0.93856 0.0
H1985 H 0.52501 0.83051 0.89333 0.0
H1986 H 0.52981 0.87478 0.89732 0.0
H1987 H 0.4911 0.83263 0.90287 0.0
C1988 C 0.54963 0.96535 0.91993 0.0
C1989 C 0.51159 0.95377 0.92013 0.0
C1990 C 0.5616 0.93943 0.92018 0.0
C1991 C 0.53588 0.90133 0.92053 0.0
C1992 C 0.49786 0.88954 0.92055 0.0
H1993 H 0.57832 0.72345 0.94066 0.0
H1994 H 0.55803 0.76938 0.94005 0.0
C1995 C 0.48579 0.91551 0.92034 0.0
C1996 C 0.54914 0.87423 0.92132 0.0
H1997 H 0.55062 0.80341 0.90614 0.0
C1998 C 0.57012 0.87549 0.93148 0.0
C1999 C 0.54229 0.84815 0.91201 0.0
C2000 C 0.52109 0.84645 0.9007 0.0
C2001 C 0.58415 0.85117 0.93264 0.0
C2002 C 0.57679 0.82468 0.92343 0.0
C2003 C 0.55609 0.82363 0.91321 0.0
C2004 C 0.59047 0.79792 0.92419 0.0
C2005 C 0.60729 0.85441 0.9436 0.0
C2006 C 0.61541 0.79863 0.91548 0.0
C2007 C 0.62704 0.77239 0.9158 0.0
C2008 C 0.61361 0.74457 0.92477 0.0
C2009 C 0.58906 0.74435 0.9336 0.0
C2010 C 0.57761 0.77073 0.93331 0.0
H2011 H 0.61742 0.88129 0.94837 0.0
H2012 H 0.59023 0.8318 0.95008 0.0
H2013 H 0.63149 0.8516 0.94097 0.0
H2014 H 0.62557 0.81929 0.90833 0.0
H2015 H 0.64546 0.7731 0.90875 0.0
H2016 H 0.27402 0.87596 0.92388 0.0
H2017 H 0.2335 0.80886 0.92262 0.0
H2018 H 0.32885 0.79435 0.92162 0.0
H2019 H 0.36977 0.86161 0.92263 0.0
H2020 H 0.23654 0.76286 0.90277 0.0
H2021 H 0.25904 0.72164 0.94874 0.0
H2022 H 0.26879 0.76815 0.94541 0.0
H2023 H 0.29931 0.75263 0.93999 0.0
C2024 C 0.28647 0.8586 0.92339 0.0
C2025 C 0.32521 0.87432 0.9233 0.0
C2026 C 0.26325 0.82024 0.92272 0.0
C2027 C 0.27823 0.79675 0.92207 0.0
C2028 C 0.3168 0.81208 0.92226 0.0
H2029 H 0.15265 0.55324 0.92081 0.0
H2030 H 0.20431 0.61728 0.91996 0.0
C2031 C 0.34013 0.85055 0.92289 0.0
C2032 C 0.2532 0.75634 0.92068 0.0
H2033 H 0.21725 0.67399 0.93583 0.0
C2034 C 0.23246 0.74334 0.90995 0.0
C2035 C 0.24838 0.73103 0.93001 0.0
C2036 C 0.26982 0.74385 0.94174 0.0
C2037 C 0.20632 0.70568 0.90841 0.0
C2038 C 0.20019 0.68055 0.91797 0.0
C2039 C 0.22196 0.69334 0.92852 0.0
C2040 C 0.16941 0.6416 0.91761 0.0
C2041 C 0.18543 0.6932 0.89656 0.0
C2042 C 0.13275 0.63408 0.91656 0.0
C2043 C 0.10331 0.59767 0.91703 0.0
C2044 C 0.1099 0.56798 0.91868 0.0
C2045 C 0.14669 0.57549 0.91954 0.0
C2046 C 0.17621 0.61204 0.91906 0.0
H2047 H 0.20134 0.71231 0.88902 0.0
H2048 H 0.17914 0.66476 0.89413 0.0
H2049 H 0.15888 0.69313 0.89745 0.0
H2050 H 0.1268 0.6565 0.91572 0.0
H2051 H 0.07534 0.59293 0.91642 0.0
H2052 H 0.28364 0.81686 0.4276 0.0
H2053 H 0.26929 0.75219 0.42586 0.0
H2054 H 0.17527 0.71761 0.44957 0.0
H2055 H 0.1892 0.78174 0.45131 0.0
H2056 H 0.21929 0.67952 0.45256 0.0
H2057 H 0.17168 0.68306 0.40551 0.0
H2058 H 0.21787 0.71827 0.40965 0.0
H2059 H 0.17881 0.71764 0.41673 0.0
C2060 C 0.26069 0.79559 0.43276 0.0
C2061 C 0.23727 0.8041 0.43949 0.0
C2062 C 0.25239 0.75874 0.43168 0.0
C2063 C 0.22092 0.73032 0.43744 0.0
C2064 C 0.19957 0.73925 0.44503 0.0
H2065 H 0.07201 0.49731 0.42486 0.0
H2066 H 0.10109 0.56484 0.42742 0.0
C2067 C 0.20758 0.77585 0.44601 0.0
C2068 C 0.20742 0.69103 0.43459 0.0
H2069 H 0.16216 0.62571 0.41265 0.0
C2070 C 0.2072 0.66773 0.4438 0.0
C2071 C 0.19102 0.67589 0.42322 0.0
C2072 C 0.1895 0.6998 0.41318 0.0
C2073 C 0.19085 0.62941 0.44194 0.0
C2074 C 0.17447 0.61429 0.43057 0.0
C2075 C 0.17481 0.63759 0.42134 0.0
C2076 C 0.15701 0.57422 0.42814 0.0
C2077 C 0.19036 0.60519 0.45222 0.0
C2078 C 0.179 0.55768 0.42739 0.0
C2079 C 0.16262 0.51948 0.42594 0.0
C2080 C 0.1238 0.49697 0.42514 0.0
C2081 C 0.10188 0.51388 0.42549 0.0
C2082 C 0.11842 0.55232 0.42692 0.0
H2083 H 0.19778 0.6201 0.46105 0.0
H2084 H 0.16258 0.58003 0.45306 0.0
H2085 H 0.21068 0.59602 0.45029 0.0
H2086 H 0.20886 0.57427 0.42823 0.0
H2087 H 0.18049 0.50762 0.42598 0.0
H2088 H 0.53801 0.66753 0.40986 0.0
H2089 H 0.47082 0.6304 0.41213 0.0
H2090 H 0.48458 0.56994 0.44154 0.0
H2091 H 0.55175 0.6081 0.43973 0.0
H2092 H 0.42124 0.55686 0.41094 0.0
H2093 H 0.42286 0.60872 0.45742 0.0
H2094 H 0.46301 0.62934 0.44765 0.0
H2095 H 0.45116 0.58768 0.45599 0.0
C2096 C 0.52676 0.64632 0.41681 0.0
C2097 C 0.55036 0.64135 0.42477 0.0
C2098 C 0.48835 0.62505 0.41807 0.0
C2099 C 0.47279 0.59827 0.42726 0.0
C2100 C 0.49611 0.59131 0.43463 0.0
H2101 H 0.26243 0.42636 0.44866 0.0
H2102 H 0.32691 0.47567 0.44706 0.0
C2103 C 0.53456 0.61276 0.43344 0.0
C2104 C 0.4322 0.57797 0.42923 0.0
H2105 H 0.36571 0.55684 0.45083 0.0
C2106 C 0.40903 0.55721 0.41961 0.0
C2107 C 0.41637 0.5789 0.44051 0.0
C2108 C 0.4396 0.60267 0.45094 0.0
C2109 C 0.37053 0.53587 0.42115 0.0
C2110 C 0.3549 0.53567 0.43257 0.0
C2111 C 0.3779 0.55726 0.44208 0.0
C2112 C 0.31534 0.50989 0.43513 0.0
C2113 C 0.34695 0.51242 0.41072 0.0
C2114 C 0.28739 0.5138 0.4294 0.0
C2115 C 0.25032 0.48569 0.43038 0.0
C2116 C 0.24102 0.45335 0.43702 0.0
C2117 C 0.26886 0.45092 0.44344 0.0
C2118 C 0.30569 0.47904 0.44254 0.0
H2119 H 0.36391 0.51203 0.40299 0.0
H2120 H 0.32829 0.48346 0.41377 0.0
H2121 H 0.32935 0.52363 0.40741 0.0
H2122 H 0.29444 0.5377 0.42374 0.0
H2123 H 0.22942 0.48812 0.42528 0.0
H2124 H 0.61438 0.85392 0.44847 0.0
H2125 H 0.56723 0.872 0.44684 0.0
H2126 H 0.50881 0.78607 0.42022 0.0
H2127 H 0.5558 0.7672 0.42205 0.0
H2128 H 0.5579 0.89832 0.4249 0.0
H2129 H 0.42447 0.78021 0.44111 0.0
H2130 H 0.46874 0.7848 0.44489 0.0
H2131 H 0.4491 0.7689 0.43009 0.0
C2132 C 0.59082 0.83806 0.44257 0.0
C2133 C 0.5887 0.80923 0.43537 0.0
C2134 C 0.564 0.84852 0.44161 0.0
C2135 C 0.53463 0.83052 0.43338 0.0
C2136 C 0.53099 0.80001 0.42675 0.0
H2137 H 0.37254 0.89288 0.41047 0.0
H2138 H 0.41248 0.86546 0.41118 0.0
C2139 C 0.55777 0.7892 0.42782 0.0
C2140 C 0.51093 0.84686 0.43077 0.0
H2141 H 0.4224 0.83101 0.43231 0.0
C2142 C 0.52825 0.88358 0.42652 0.0
C2143 C 0.47226 0.82743 0.43276 0.0
C2144 C 0.45244 0.78824 0.43755 0.0
C2145 C 0.50806 0.90164 0.42438 0.0
C2146 C 0.46958 0.88259 0.42667 0.0
C2147 C 0.45199 0.84552 0.43059 0.0
C2148 C 0.44737 0.90117 0.42556 0.0
C2149 C 0.52804 0.94093 0.41966 0.0
C2150 C 0.4542 0.93072 0.43329 0.0
C2151 C 0.43133 0.94633 0.43296 0.0
C2152 C 0.40106 0.9325 0.42493 0.0
C2153 C 0.39528 0.90384 0.41687 0.0
C2154 C 0.41807 0.88816 0.41724 0.0
H2155 H 0.55496 0.94804 0.4154 0.0
H2156 H 0.51085 0.94533 0.4129 0.0
H2157 H 0.5337 0.96032 0.42734 0.0
H2158 H 0.47641 0.94081 0.43989 0.0
H2159 H 0.43631 0.96792 0.43941 0.0
H2160 H 0.82954 0.80909 0.27544 0.0
H2161 H 0.89699 0.83707 0.27494 0.0
H2162 H 0.88778 0.76949 0.24401 0.0
H2163 H 0.82044 0.74186 0.2443 0.0
H2164 H 0.93904 0.77529 0.26316 0.0
H2165 H 0.9608 0.91202 0.24757 0.0
H2166 H 0.93264 0.89238 0.2609 0.0
H2167 H 0.91646 0.86992 0.24648 0.0
C2168 C 0.84186 0.80004 0.26857 0.0
C2169 C 0.81962 0.77355 0.25983 0.0
C2170 C 0.88035 0.81611 0.26829 0.0
C2171 C 0.89723 0.80587 0.25927 0.0
C2172 C 0.87513 0.77791 0.25097 0.0
H2173 H 0.11342 0.85558 0.23687 0.0
H2174 H 0.04791 0.83688 0.23823 0.0
C2175 C 0.83662 0.7619 0.25123 0.0
C2176 C 0.938 0.82478 0.25829 0.0
H2177 H 0.01428 0.90716 0.25063 0.0
C2178 C 0.95554 0.80413 0.26045 0.0
C2179 C 0.9593 0.86248 0.25485 0.0
C2180 C 0.94148 0.8856 0.25222 0.0
C2181 C 0.99397 0.82013 0.2592 0.0
C2182 C 0.01521 0.85751 0.25536 0.0
C2183 C -0.00219 0.87848 0.25348 0.0
C2184 C 0.05533 0.87451 0.25292 0.0
C2185 C 0.01152 0.79688 0.26206 0.0
C2186 C 0.08143 0.90394 0.26007 0.0
C2187 C 0.11915 0.91529 0.25912 0.0
C2188 C 0.13084 0.89702 0.25107 0.0
C2189 C 0.10498 0.86989 0.24321 0.0
C2190 C 0.06758 0.85899 0.24404 0.0
H2191 H 0.99356 0.7731 0.26805 0.0
H2192 H 0.01583 0.78553 0.25348 0.0
H2193 H 0.03885 0.81371 0.26653 0.0
H2194 H 0.07242 0.91646 0.2669 0.0
H2195 H 0.1386 0.93612 0.26533 0.0
H2196 H 0.29794 0.09814 0.24818 0.0
H2197 H 0.27135 0.13858 0.24695 0.0
H2198 H 0.19697 0.07885 0.2764 0.0
H2199 H 0.22391 0.03855 0.27785 0.0
H2200 H 0.16214 0.08564 0.25473 0.0
H2201 H 0.27921 0.22056 0.27009 0.0
H2202 H 0.29128 0.19754 0.2587 0.0
H2203 H 0.27646 0.17679 0.27344 0.0
C2204 C 0.27673 0.09422 0.25464 0.0
C2205 C 0.26294 0.06496 0.26308 0.0
C2206 C 0.26141 0.11727 0.25388 0.0
C2207 C 0.23223 0.11162 0.26158 0.0
C2208 C 0.21939 0.08349 0.27035 0.0
H2209 H 0.0983 0.21946 0.26286 0.0
H2210 H 0.11712 0.17257 0.26512 0.0
C2211 C 0.23479 0.06051 0.27115 0.0
C2212 C 0.21365 0.13362 0.25994 0.0
H2213 H 0.22927 0.22209 0.26026 0.0
C2214 C 0.1766 0.11545 0.25603 0.0
C2215 C 0.23269 0.17239 0.26167 0.0
C2216 C 0.27201 0.19302 0.26631 0.0
C2217 C 0.15847 0.13537 0.25336 0.0
C2218 C 0.17785 0.17428 0.25482 0.0
C2219 C 0.21459 0.19224 0.25903 0.0
C2220 C 0.1613 0.19752 0.25184 0.0
C2221 C 0.11928 0.11486 0.24862 0.0
C2222 C 0.17914 0.22632 0.24339 0.0
C2223 C 0.16874 0.25314 0.24219 0.0
C2224 C 0.14014 0.25152 0.24938 0.0
C2225 C 0.12014 0.22102 0.25711 0.0
C2226 C 0.13091 0.19428 0.25841 0.0
H2227 H 0.1115 0.08665 0.24533 0.0
H2228 H 0.09996 0.11189 0.25604 0.0
H2229 H 0.11556 0.13044 0.24109 0.0
H2230 H 0.20254 0.22921 0.2382 0.0
H2231 H 0.18455 0.27639 0.23616 0.0
H2232 H 0.76196 0.92625 0.23463 0.0
H2233 H 0.80988 0.99108 0.23692 0.0
H2234 H 0.8649 0.9599 0.26368 0.0
H2235 H 0.81721 0.89452 0.2612 0.0
H2236 H 0.81663 0.02336 0.25953 0.0
H2237 H 0.95169 0.04113 0.24408 0.0
H2238 H 0.90782 0.00222 0.23946 0.0
H2239 H 0.92558 0.00341 0.25441 0.0
C2240 C 0.78502 0.93307 0.24068 0.0
C2241 C 0.78591 0.90553 0.24778 0.0
C2242 C 0.81227 0.9701 0.24201 0.0
C2243 C 0.84078 0.98028 0.25051 0.0
C2244 C 0.84338 0.95255 0.25696 0.0
H2245 H 0.00041 0.20232 0.27641 0.0
H2246 H 0.96066 0.13495 0.27506 0.0
C2247 C 0.81619 0.91524 0.25552 0.0
C2248 C 0.86418 0.01988 0.25371 0.0
H2249 H 0.95273 0.09284 0.25341 0.0
C2250 C 0.84641 0.03856 0.25819 0.0
C2251 C 0.90301 0.0394 0.25213 0.0
C2252 C 0.92327 0.02071 0.24718 0.0
C2253 C 0.86632 0.07647 0.2609 0.0
C2254 C 0.90496 0.09627 0.25896 0.0
C2255 C 0.923 0.07745 0.25485 0.0
C2256 C 0.92685 0.13692 0.26052 0.0
C2257 C 0.84587 0.09506 0.2658 0.0
C2258 C 0.92047 0.1602 0.25293 0.0
C2259 C 0.9432 0.19864 0.25362 0.0
C2260 C 0.97288 0.21446 0.26189 0.0
C2261 C 0.97811 0.19099 0.26984 0.0
C2262 C 0.95546 0.15254 0.2691 0.0
H2263 H 0.81868 0.07463 0.26978 0.0
H2264 H 0.8625 0.11588 0.27285 0.0
H2265 H 0.84067 0.10962 0.25828 0.0
H2266 H 0.89879 0.14857 0.24613 0.0
H2267 H 0.93867 0.21573 0.24724 0.0
H2268 H 0.8584 0.84809 0.76308 0.0
H2269 H 0.8908 0.9157 0.76417 0.0
H2270 H 0.78677 0.91233 0.76959 0.0
H2271 H 0.75386 0.84475 0.76818 0.0
H2272 H 0.87619 0.96793 0.7495 0.0
H2273 H 0.85617 0.97198 0.79923 0.0
H2274 H 0.85318 0.93208 0.79164 0.0
H2275 H 0.81517 0.94081 0.79087 0.0
C2276 C 0.84221 0.86158 0.76429 0.0
C2277 C 0.80337 0.8408 0.76559 0.0
C2278 C 0.86089 0.90026 0.76501 0.0
C2279 C 0.84115 0.91875 0.76715 0.0
C2280 C 0.80246 0.89834 0.76814 0.0
H2281 H 0.85151 0.12243 0.77375 0.0
H2282 H 0.84132 0.05967 0.77439 0.0
C2283 C 0.78372 0.85974 0.76735 0.0
C2284 C 0.8607 0.95947 0.76837 0.0
H2285 H 0.87472 0.02798 0.78827 0.0
C2286 C 0.87658 0.98131 0.758 0.0
C2287 C 0.86126 0.97652 0.77951 0.0
C2288 C 0.84584 0.95424 0.791 0.0
C2289 C 0.8908 0.0198 0.7583 0.0
C2290 C 0.88961 0.03665 0.76933 0.0
C2291 C 0.8756 0.01495 0.77984 0.0
C2292 C 0.89778 0.0755 0.76977 0.0
C2293 C 0.90479 0.04174 0.74668 0.0
C2294 C 0.93325 0.10538 0.76722 0.0
C2295 C 0.93925 0.1416 0.76681 0.0
C2296 C 0.90981 0.14825 0.76897 0.0
C2297 C 0.87477 0.1183 0.77198 0.0
C2298 C 0.86886 0.08236 0.77238 0.0
H2299 H 0.89865 0.02356 0.73861 0.0
H2300 H 0.89218 0.05947 0.74531 0.0
H2301 H 0.93526 0.06016 0.74727 0.0
H2302 H 0.95606 0.10063 0.76537 0.0
H2303 H 0.96657 0.16416 0.76451 0.0
H2304 H 0.21661 0.92921 0.76553 0.0
H2305 H 0.15041 0.88415 0.76503 0.0
H2306 H 0.12585 0.97312 0.7659 0.0
H2307 H 0.19222 0.01851 0.76644 0.0
H2308 H 0.09773 0.87327 0.78227 0.0
H2309 H 0.06153 0.90969 0.73781 0.0
H2310 H 0.1088 0.92555 0.74228 0.0
H2311 H 0.08469 0.94793 0.74815 0.0
C2312 C 0.19722 0.9393 0.76561 0.0
C2313 C 0.20992 0.97761 0.76605 0.0
C2314 C 0.1593 0.91344 0.76528 0.0
C2315 C 0.13305 0.92515 0.76531 0.0
C2316 C 0.14553 0.96337 0.76562 0.0
H2317 H 0.89128 0.80468 0.76634 0.0
H2318 H 0.95694 0.852 0.76684 0.0
C2319 C 0.18356 0.98934 0.76592 0.0
C2320 C 0.09275 0.89717 0.76553 0.0
H2321 H 0.01165 0.86597 0.74989 0.0
C2322 C 0.07894 0.87162 0.77517 0.0
C2323 C 0.06815 0.89507 0.7563 0.0
C2324 C 0.08148 0.92078 0.74548 0.0
C2325 C 0.04127 0.84432 0.77588 0.0
C2326 C 0.01672 0.84198 0.76659 0.0
C2327 C 0.03045 0.86773 0.757 0.0
C2328 C 0.97678 0.81293 0.76659 0.0
C2329 C 0.02797 0.81867 0.78671 0.0
C2330 C 0.96594 0.7751 0.76623 0.0
C2331 C 0.92834 0.74788 0.76597 0.0
C2332 C 0.90074 0.75793 0.766 0.0
C2333 C 0.91172 0.79587 0.76636 0.0
C2334 C 0.9493 0.82303 0.76661 0.0
H2335 H 0.04748 0.83034 0.79448 0.0
H2336 H 0.0002 0.81302 0.78971 0.0
H2337 H 0.02586 0.79189 0.78416 0.0
H2338 H 0.98659 0.76659 0.76595 0.0
H2339 H 0.92094 0.71899 0.7656 0.0
H2340 H 0.23652 0.11116 0.76801 0.0
H2341 H 0.19041 0.13128 0.76649 0.0
H2342 H 0.27736 0.24542 0.76911 0.0
H2343 H 0.32342 0.22587 0.77065 0.0
H2344 H 0.17694 0.18023 0.78288 0.0
H2345 H 0.22178 0.23663 0.73633 0.0
H2346 H 0.23272 0.2037 0.74306 0.0
H2347 H 0.25844 0.25174 0.74731 0.0
C2348 C 0.24576 0.14051 0.7684 0.0
C2349 C 0.28368 0.1669 0.76937 0.0
C2350 C 0.21941 0.15193 0.76751 0.0
C2351 C 0.23065 0.18982 0.76749 0.0
C2352 C 0.26825 0.21607 0.76892 0.0
H2353 H 0.11282 0.30944 0.77615 0.0
H2354 H 0.1547 0.2844 0.7775 0.0
C2355 C 0.2945 0.20477 0.76986 0.0
C2356 C 0.20345 0.20236 0.76569 0.0
H2357 H 0.18041 0.25166 0.7463 0.0
C2358 C 0.17746 0.19562 0.77486 0.0
C2359 C 0.20405 0.22208 0.75515 0.0
C2360 C 0.2305 0.22878 0.74483 0.0
C2361 C 0.15273 0.20918 0.77392 0.0
C2362 C 0.15437 0.2302 0.7636 0.0
C2363 C 0.17955 0.23588 0.75426 0.0
C2364 C 0.13023 0.2467 0.76237 0.0
C2365 C 0.12499 0.20085 0.78395 0.0
C2366 C 0.10354 0.23476 0.75313 0.0
C2367 C 0.07974 0.24923 0.75228 0.0
C2368 C 0.08243 0.27616 0.76058 0.0
C2369 C 0.11019 0.28904 0.76954 0.0
C2370 C 0.13384 0.27441 0.77043 0.0
H2371 H 0.12151 0.17749 0.78976 0.0
H2372 H 0.13475 0.22574 0.78979 0.0
H2373 H 0.09758 0.19394 0.78016 0.0
H2374 H 0.1006 0.21365 0.74675 0.0
H2375 H 0.05892 0.23906 0.74521 0.0
H2376 H 0.48967 0.07528 0.57709 0.0
H2377 H 0.55693 0.10344 0.57601 0.0
H2378 H 0.56883 0.17273 0.60673 0.0
H2379 H 0.50144 0.14414 0.60806 0.0
H2380 H 0.6119 0.21124 0.58533 0.0
H2381 H 0.6298 0.09297 0.59927 0.0
H2382 H 0.59524 0.08225 0.58779 0.0
H2383 H 0.58858 0.09515 0.60275 0.0
C2384 C 0.50641 0.09573 0.58383 0.0
C2385 C 0.49006 0.10753 0.59263 0.0
C2386 C 0.54491 0.11198 0.58315 0.0
C2387 C 0.56774 0.14016 0.59129 0.0
C2388 C 0.55161 0.15114 0.60034 0.0
H2389 H 0.80937 0.27701 0.59489 0.0
H2390 H 0.74324 0.25696 0.59668 0.0
C2391 C 0.51312 0.13479 0.60106 0.0
C2392 C 0.60848 0.15935 0.58993 0.0
H2393 H 0.68191 0.14477 0.59047 0.0
C2394 C 0.62739 0.1969 0.58653 0.0
C2395 C 0.62839 0.14048 0.59154 0.0
C2396 C 0.60961 0.10057 0.59564 0.0
C2397 C 0.66571 0.21577 0.58425 0.0
C2398 C 0.68549 0.19662 0.58562 0.0
C2399 C 0.66661 0.15932 0.58932 0.0
C2400 C 0.72565 0.21397 0.58302 0.0
C2401 C 0.68443 0.25554 0.58003 0.0
C2402 C 0.73772 0.19721 0.57453 0.0
C2403 C 0.77516 0.2083 0.57361 0.0
C2404 C 0.80132 0.23657 0.58109 0.0
C2405 C 0.78975 0.25549 0.5889 0.0
C2406 C 0.752 0.244 0.58994 0.0
H2407 H 0.66411 0.26332 0.57666 0.0
H2408 H 0.69968 0.27404 0.58775 0.0
H2409 H 0.7047 0.26052 0.57269 0.0
H2410 H 0.71789 0.17411 0.56907 0.0
H2411 H 0.78342 0.19327 0.56752 0.0
H2412 H 0.96416 0.43922 0.578 0.0
H2413 H 0.93616 0.4785 0.5773 0.0
H2414 H 0.86288 0.41609 0.60665 0.0
H2415 H 0.89129 0.37706 0.60762 0.0
H2416 H 0.82729 0.42407 0.58506 0.0
H2417 H 0.94309 0.55798 0.60169 0.0
H2418 H 0.95564 0.53612 0.59002 0.0
H2419 H 0.94059 0.51409 0.60458 0.0
C2420 C 0.94285 0.4344 0.58454 0.0
C2421 C 0.92989 0.40479 0.59283 0.0
C2422 C 0.9267 0.45679 0.58408 0.0
C2423 C 0.89746 0.45011 0.59191 0.0
C2424 C 0.88531 0.42152 0.60049 0.0
H2425 H 0.76066 0.5559 0.59404 0.0
H2426 H 0.78021 0.50948 0.59633 0.0
C2427 C 0.90156 0.39924 0.60101 0.0
C2428 C 0.87839 0.47182 0.59069 0.0
H2429 H 0.89293 0.55982 0.59216 0.0
C2430 C 0.84141 0.45371 0.58671 0.0
C2431 C 0.89696 0.51035 0.59289 0.0
C2432 C 0.93616 0.53083 0.59764 0.0
C2433 C 0.82297 0.47356 0.58438 0.0
C2434 C 0.84194 0.51231 0.58627 0.0
C2435 C 0.87854 0.53011 0.59061 0.0
C2436 C 0.82534 0.53564 0.58342 0.0
C2437 C 0.78394 0.45321 0.5795 0.0
C2438 C 0.84353 0.56503 0.57519 0.0
C2439 C 0.83272 0.59155 0.57399 0.0
C2440 C 0.8033 0.58906 0.58093 0.0
C2441 C 0.78312 0.55811 0.58848 0.0
C2442 C 0.79431 0.53166 0.58979 0.0
H2443 H 0.77638 0.42527 0.576 0.0
H2444 H 0.76434 0.44966 0.58689 0.0
H2445 H 0.78038 0.46924 0.57208 0.0
H2446 H 0.8674 0.56853 0.57014 0.0
H2447 H 0.8487 0.61516 0.5681 0.0
H2448 H 0.48259 0.22972 0.59702 0.0
H2449 H 0.5285 0.29628 0.5984 0.0
H2450 H 0.46967 0.31947 0.57072 0.0
H2451 H 0.4236 0.25364 0.56954 0.0
H2452 H 0.57501 0.35489 0.5816 0.0
H2453 H 0.46274 0.37341 0.60118 0.0
H2454 H 0.45879 0.32846 0.5995 0.0
H2455 H 0.45105 0.35058 0.5867 0.0
C2456 C 0.48026 0.249 0.59098 0.0
C2457 C 0.44951 0.23682 0.58326 0.0
C2458 C 0.50627 0.28692 0.59183 0.0
C2459 C 0.50175 0.31272 0.5849 0.0
C2460 C 0.47307 0.30003 0.57635 0.0
H2461 H 0.60123 0.54644 0.5742 0.0
H2462 H 0.56253 0.4789 0.57445 0.0
C2463 C 0.44697 0.26244 0.57562 0.0
C2464 C 0.52465 0.35297 0.58722 0.0
H2465 H 0.51788 0.42856 0.5953 0.0
C2466 C 0.56271 0.37101 0.58472 0.0
C2467 C 0.50843 0.37377 0.59143 0.0
C2468 C 0.46808 0.35555 0.59498 0.0
C2469 C 0.58472 0.40971 0.5858 0.0
C2470 C 0.56811 0.43054 0.58952 0.0
C2471 C 0.53033 0.4124 0.59235 0.0
C2472 C 0.58935 0.47141 0.59013 0.0
C2473 C 0.6253 0.42829 0.58258 0.0
C2474 C 0.61608 0.4894 0.59917 0.0
C2475 C 0.63785 0.52801 0.59917 0.0
C2476 C 0.63345 0.54927 0.59007 0.0
C2477 C 0.60524 0.53109 0.58139 0.0
C2478 C 0.58332 0.49246 0.58145 0.0
H2479 H 0.63278 0.40878 0.57828 0.0
H2480 H 0.63278 0.45186 0.57629 0.0
H2481 H 0.64212 0.43962 0.59094 0.0
H2482 H 0.62057 0.47353 0.60608 0.0
H2483 H 0.6588 0.54117 0.60613 0.0
loop_
_geom_bond_atom_site_label_1
_geom_bond_atom_site_label_2
_geom_bond_distance
_geom_bond_site_symmetry_2
_ccdc_geom_bond_type
Co0 N5 2.057 . S
Co0 O17 2.021 . S
Co0 O20 2.062 . S
Co0 O24 2.112 1_565 S
Co0 O25 2.020 1_565 S
C1 O21 1.259 . S
C1 O24 1.275 . S
Co2 N11 2.057 . S
Co2 O18 2.117 . S
Co2 O19 2.020 1_545 S
Co2 O21 2.021 . S
Co2 O26 2.062 . S
C3 N5 1.316 . S
C3 N6 1.347 . S
C3 H8 0.931 . S
C4 N5 1.375 . S
C4 C7 1.350 . S
C4 H9 0.930 . S
N5 Co0 2.057 . S
N5 C3 1.316 . S
N5 C4 1.375 . S
N6 C3 1.347 . S
N6 C7 1.373 . S
C7 C4 1.350 . S
C7 N6 1.373 . S
C7 H28 0.931 . S
H8 C3 0.931 . S
H9 C4 0.930 . S
C10 O17 1.259 1_545 S
C10 O18 1.258 . S
N11 Co2 2.057 . S
N11 C12 1.316 . S
N11 C13 1.375 . S
C12 N11 1.316 . S
C12 N14 1.347 . S
C12 H23 0.931 . S
C13 N11 1.375 . S
C13 C15 1.350 . S
C13 H22 0.930 . S
N14 C12 1.347 . S
N14 C15 1.373 . S
C15 C13 1.350 . S
C15 N14 1.373 . S
C15 H29 0.931 . S
C16 O19 1.256 . S
C16 O20 1.255 . S
O17 Co0 2.021 . S
O17 C10 1.259 1_565 S
O18 Co2 2.117 . S
O18 C10 1.258 . S
O19 Co2 2.020 1_565 S
O19 C16 1.256 . S
O20 Co0 2.062 . S
O20 C16 1.255 . S
O21 C1 1.259 . S
O21 Co2 2.021 . S
H22 C13 0.930 . S
H23 C12 0.931 . S
O24 Co0 2.112 1_545 S
O24 C1 1.275 . S
O25 Co0 2.020 1_545 S
O25 C27 1.256 . S
O26 Co2 2.062 . S
O26 C27 1.255 . S
C27 O25 1.256 . S
C27 O26 1.255 . S
H28 C7 0.931 . S
H29 C15 0.931 . S
Co30 N35 2.057 . S
Co30 O47 2.021 . S
Co30 O50 2.062 . S
Co30 O54 2.117 . S
Co30 O55 2.020 . S
C31 O51 1.259 . S
C31 O54 1.258 . S
Co32 N41 2.057 1_455 S
Co32 O48 2.117 . S
Co32 O49 2.020 . S
Co32 O51 2.021 . S
Co32 O56 2.062 1_455 S
C33 N35 1.316 . S
C33 N36 1.347 . S
C33 H38 0.931 . S
C34 N35 1.375 . S
C34 C37 1.350 . S
C34 H39 0.930 . S
N35 Co30 2.057 . S
N35 C33 1.316 . S
N35 C34 1.375 . S
N36 C33 1.347 . S
N36 C37 1.373 . S
C37 C34 1.350 . S
C37 N36 1.373 . S
C37 H58 0.931 . S
H38 C33 0.931 . S
H39 C34 0.930 . S
C40 O47 1.259 . S
C40 O48 1.258 . S
N41 Co32 2.057 1_655 S
N41 C42 1.316 . S
N41 C43 1.375 . S
C42 N41 1.316 . S
C42 N44 1.347 . S
C42 H53 0.931 . S
C43 N41 1.375 . S
C43 C45 1.350 . S
C43 H52 0.930 . S
N44 C42 1.347 . S
N44 C45 1.373 . S
C45 C43 1.350 . S
C45 N44 1.373 . S
C45 H59 0.931 . S
C46 O49 1.256 . S
C46 O50 1.255 . S
O47 Co30 2.021 . S
O47 C40 1.259 . S
O48 Co32 2.117 . S
O48 C40 1.258 . S
O49 Co32 2.020 . S
O49 C46 1.256 . S
O50 Co30 2.062 . S
O50 C46 1.255 . S
O51 C31 1.259 . S
O51 Co32 2.021 . S
H52 C43 0.930 . S
H53 C42 0.931 . S
O54 Co30 2.117 . S
O54 C31 1.258 . S
O55 Co30 2.020 . S
O55 C57 1.256 1_455 S
O56 Co32 2.062 1_655 S
O56 C57 1.255 . S
C57 O55 1.256 1_655 S
C57 O56 1.255 . S
H58 C37 0.931 . S
H59 C45 0.931 . S
Co60 N65 2.057 . S
Co60 O77 2.021 . S
Co60 O80 2.062 . S
Co60 O84 2.117 . S
Co60 O85 2.020 . S
C61 O81 1.259 . S
C61 O84 1.258 . S
Co62 N71 2.057 . S
Co62 O78 2.117 . S
Co62 O79 2.020 . S
Co62 O81 2.021 . S
Co62 O86 2.062 . S
C63 N65 1.316 . S
C63 N66 1.347 . S
C63 H68 0.931 . S
C64 N65 1.375 . S
C64 C67 1.350 . S
C64 H69 0.930 . S
N65 Co60 2.057 . S
N65 C63 1.316 . S
N65 C64 1.375 . S
N66 C63 1.347 . S
N66 C67 1.373 . S
C67 C64 1.350 . S
C67 N66 1.373 . S
C67 H88 0.931 . S
H68 C63 0.931 . S
H69 C64 0.930 . S
C70 O77 1.259 . S
C70 O78 1.258 . S
N71 Co62 2.057 . S
N71 C72 1.316 . S
N71 C73 1.375 . S
C72 N71 1.316 . S
C72 N74 1.347 . S
C72 H83 0.931 . S
C73 N71 1.375 . S
C73 C75 1.350 . S
C73 H82 0.930 . S
N74 C72 1.347 . S
N74 C75 1.373 . S
C75 C73 1.350 . S
C75 N74 1.373 . S
C75 H89 0.931 . S
C76 O79 1.256 . S
C76 O80 1.255 . S
O77 Co60 2.021 . S
O77 C70 1.259 . S
O78 Co62 2.117 . S
O78 C70 1.258 . S
O79 Co62 2.020 . S
O79 C76 1.256 . S
O80 Co60 2.062 . S
O80 C76 1.255 . S
O81 C61 1.259 . S
O81 Co62 2.021 . S
H82 C73 0.930 . S
H83 C72 0.931 . S
O84 Co60 2.117 . S
O84 C61 1.258 . S
O85 Co60 2.020 . S
O85 C87 1.256 . S
O86 Co62 2.062 . S
O86 C87 1.255 . S
C87 O85 1.256 . S
C87 O86 1.255 . S
H88 C67 0.931 . S
H89 C75 0.931 . S
Co90 N95 2.057 . S
Co90 O107 2.021 . S
Co90 O110 2.062 . S
Co90 O114 2.112 1_655 S
Co90 O115 2.020 1_655 S
C91 O111 1.259 . S
C91 O114 1.275 . S
Co92 N101 2.057 . S
Co92 O108 2.117 . S
Co92 O109 2.020 1_455 S
Co92 O111 2.021 . S
Co92 O116 2.062 . S
C93 N95 1.316 . S
C93 N96 1.347 . S
C93 H98 0.931 . S
C94 N95 1.375 . S
C94 C97 1.350 . S
C94 H99 0.930 . S
N95 Co90 2.057 . S
N95 C93 1.316 . S
N95 C94 1.375 . S
N96 C93 1.347 . S
N96 C97 1.373 . S
C97 C94 1.350 . S
C97 N96 1.373 . S
C97 H118 0.931 . S
H98 C93 0.931 . S
H99 C94 0.930 . S
C100 O107 1.259 1_455 S
C100 O108 1.258 . S
N101 Co92 2.057 . S
N101 C102 1.316 . S
N101 C103 1.375 . S
C102 N101 1.316 . S
C102 N104 1.347 . S
C102 H113 0.931 . S
C103 N101 1.375 . S
C103 C105 1.350 . S
C103 H112 0.930 . S
N104 C102 1.347 . S
N104 C105 1.373 . S
C105 C103 1.350 . S
C105 N104 1.373 . S
C105 H119 0.931 . S
C106 O109 1.256 . S
C106 O110 1.255 . S
O107 Co90 2.021 . S
O107 C100 1.259 1_655 S
O108 Co92 2.117 . S
O108 C100 1.258 . S
O109 Co92 2.020 1_655 S
O109 C106 1.256 . S
O110 Co90 2.062 . S
O110 C106 1.255 . S
O111 C91 1.259 . S
O111 Co92 2.021 . S
H112 C103 0.930 . S
H113 C102 0.931 . S
O114 Co90 2.112 1_455 S
O114 C91 1.275 . S
O115 Co90 2.020 1_455 S
O115 C117 1.256 . S
O116 Co92 2.062 . S
O116 C117 1.255 . S
C117 O115 1.256 . S
C117 O116 1.255 . S
H118 C97 0.931 . S
H119 C105 0.931 . S
Co120 N125 2.057 . S
Co120 O137 2.021 . S
Co120 O140 2.062 . S
Co120 O144 2.117 . S
Co120 O145 2.020 . S
C121 O141 1.259 . S
C121 O144 1.258 . S
Co122 N131 2.057 . S
Co122 O138 2.117 . S
Co122 O139 2.020 . S
Co122 O141 2.021 . S
Co122 O146 2.062 . S
C123 N125 1.316 . S
C123 N126 1.347 . S
C123 H128 0.931 . S
C124 N125 1.375 . S
C124 C127 1.350 . S
C124 H129 0.930 . S
N125 Co120 2.057 . S
N125 C123 1.316 . S
N125 C124 1.375 . S
N126 C123 1.347 . S
N126 C127 1.373 . S
C127 C124 1.350 . S
C127 N126 1.373 . S
C127 H148 0.931 . S
H128 C123 0.931 . S
H129 C124 0.930 . S
C130 O137 1.259 . S
C130 O138 1.258 . S
N131 Co122 2.057 . S
N131 C132 1.316 . S
N131 C133 1.375 . S
C132 N131 1.316 . S
C132 N134 1.347 . S
C132 H143 0.931 . S
C133 N131 1.375 . S
C133 C135 1.350 . S
C133 H142 0.930 . S
N134 C132 1.347 . S
N134 C135 1.373 . S
C135 C133 1.350 . S
C135 N134 1.373 . S
C135 H149 0.931 . S
C136 O139 1.256 . S
C136 O140 1.255 . S
O137 Co120 2.021 . S
O137 C130 1.259 . S
O138 Co122 2.117 . S
O138 C130 1.258 . S
O139 Co122 2.020 . S
O139 C136 1.256 . S
O140 Co120 2.062 . S
O140 C136 1.255 . S
O141 C121 1.259 . S
O141 Co122 2.021 . S
H142 C133 0.930 . S
H143 C132 0.931 . S
O144 Co120 2.117 . S
O144 C121 1.258 . S
O145 Co120 2.020 . S
O145 C147 1.256 . S
O146 Co122 2.062 . S
O146 C147 1.255 . S
C147 O145 1.256 . S
C147 O146 1.255 . S
H148 C127 0.931 . S
H149 C135 0.931 . S
Co150 N155 2.057 . S
Co150 O167 2.021 . S
Co150 O170 2.062 . S
Co150 O174 2.117 . S
Co150 O175 2.020 . S
C151 O171 1.259 . S
C151 O174 1.258 . S
Co152 N161 2.057 1_545 S
Co152 O168 2.117 . S
Co152 O169 2.020 . S
Co152 O171 2.021 . S
Co152 O176 2.062 1_545 S
C153 N155 1.316 . S
C153 N156 1.347 . S
C153 H158 0.931 . S
C154 N155 1.375 . S
C154 C157 1.350 . S
C154 H159 0.930 . S
N155 Co150 2.057 . S
N155 C153 1.316 . S
N155 C154 1.375 . S
N156 C153 1.347 . S
N156 C157 1.373 . S
C157 C154 1.350 . S
C157 N156 1.373 . S
C157 H178 0.931 . S
H158 C153 0.931 . S
H159 C154 0.930 . S
C160 O167 1.259 . S
C160 O168 1.258 . S
N161 Co152 2.057 1_565 S
N161 C162 1.316 . S
N161 C163 1.375 . S
C162 N161 1.316 . S
C162 N164 1.347 . S
C162 H173 0.931 . S
C163 N161 1.375 . S
C163 C165 1.350 . S
C163 H172 0.930 . S
N164 C162 1.347 . S
N164 C165 1.373 . S
C165 C163 1.350 . S
C165 N164 1.373 . S
C165 H179 0.931 . S
C166 O169 1.256 . S
C166 O170 1.255 . S
O167 Co150 2.021 . S
O167 C160 1.259 . S
O168 Co152 2.117 . S
O168 C160 1.258 . S
O169 Co152 2.020 . S
O169 C166 1.256 . S
O170 Co150 2.062 . S
O170 C166 1.255 . S
O171 C151 1.259 . S
O171 Co152 2.021 . S
H172 C163 0.930 . S
H173 C162 0.931 . S
O174 Co150 2.117 . S
O174 C151 1.258 . S
O175 Co150 2.020 . S
O175 C177 1.256 1_545 S
O176 Co152 2.062 1_565 S
O176 C177 1.255 . S
C177 O175 1.256 1_565 S
C177 O176 1.255 . S
H178 C157 0.931 . S
H179 C165 0.931 . S
Co180 N185 2.057 . S
Co180 O197 2.021 . S
Co180 O200 2.062 . S
Co180 O204 2.117 . S
Co180 O205 2.020 . S
C181 O201 1.259 . S
C181 O204 1.258 . S
Co182 N191 2.057 . S
Co182 O198 2.117 . S
Co182 O199 2.020 . S
Co182 O201 2.021 . S
Co182 O206 2.062 . S
C183 N185 1.316 . S
C183 N186 1.347 . S
C183 H188 0.931 . S
C184 N185 1.375 . S
C184 C187 1.350 . S
C184 H189 0.930 . S
N185 Co180 2.057 . S
N185 C183 1.316 . S
N185 C184 1.375 . S
N186 C183 1.347 . S
N186 C187 1.373 . S
C187 C184 1.350 . S
C187 N186 1.373 . S
C187 H208 0.931 . S
H188 C183 0.931 . S
H189 C184 0.930 . S
C190 O197 1.259 . S
C190 O198 1.258 . S
N191 Co182 2.057 . S
N191 C192 1.316 . S
N191 C193 1.375 . S
C192 N191 1.316 . S
C192 N194 1.347 . S
C192 H203 0.931 . S
C193 N191 1.375 . S
C193 C195 1.350 . S
C193 H202 0.930 . S
N194 C192 1.347 . S
N194 C195 1.373 . S
C195 C193 1.350 . S
C195 N194 1.373 . S
C195 H209 0.931 . S
C196 O199 1.256 . S
C196 O200 1.255 . S
O197 Co180 2.021 . S
O197 C190 1.259 . S
O198 Co182 2.117 . S
O198 C190 1.258 . S
O199 Co182 2.020 . S
O199 C196 1.256 . S
O200 Co180 2.062 . S
O200 C196 1.255 . S
O201 C181 1.259 . S
O201 Co182 2.021 . S
H202 C193 0.930 . S
H203 C192 0.931 . S
O204 Co180 2.117 . S
O204 C181 1.258 . S
O205 Co180 2.020 . S
O205 C207 1.256 . S
O206 Co182 2.062 . S
O206 C207 1.255 . S
C207 O205 1.256 . S
C207 O206 1.255 . S
H208 C187 0.931 . S
H209 C195 0.931 . S
Co210 N215 2.057 . S
Co210 O227 2.021 . S
Co210 O230 2.062 . S
Co210 O234 2.117 . S
Co210 O235 2.020 . S
C211 O231 1.259 . S
C211 O234 1.258 . S
Co212 N221 2.057 . S
Co212 O228 2.117 . S
Co212 O229 2.020 . S
Co212 O231 2.021 . S
Co212 O236 2.062 . S
C213 N215 1.316 . S
C213 N216 1.347 . S
C213 H218 0.931 . S
C214 N215 1.375 . S
C214 C217 1.350 . S
C214 H219 0.930 . S
N215 Co210 2.057 . S
N215 C213 1.316 . S
N215 C214 1.375 . S
N216 C213 1.347 . S
N216 C217 1.373 . S
C217 C214 1.350 . S
C217 N216 1.373 . S
C217 H238 0.931 . S
H218 C213 0.931 . S
H219 C214 0.930 . S
C220 O227 1.259 . S
C220 O228 1.258 . S
N221 Co212 2.057 . S
N221 C222 1.316 . S
N221 C223 1.375 . S
C222 N221 1.316 . S
C222 N224 1.347 . S
C222 H233 0.931 . S
C223 N221 1.375 . S
C223 C225 1.350 . S
C223 H232 0.930 . S
N224 C222 1.347 . S
N224 C225 1.373 . S
C225 C223 1.350 . S
C225 N224 1.373 . S
C225 H239 0.931 . S
C226 O229 1.256 . S
C226 O230 1.255 . S
O227 Co210 2.021 . S
O227 C220 1.259 . S
O228 Co212 2.117 . S
O228 C220 1.258 . S
O229 Co212 2.020 . S
O229 C226 1.256 . S
O230 Co210 2.062 . S
O230 C226 1.255 . S
O231 C211 1.259 . S
O231 Co212 2.021 . S
H232 C223 0.930 . S
H233 C222 0.931 . S
O234 Co210 2.117 . S
O234 C211 1.258 . S
O235 Co210 2.020 . S
O235 C237 1.256 . S
O236 Co212 2.062 . S
O236 C237 1.255 . S
C237 O235 1.256 . S
C237 O236 1.255 . S
H238 C217 0.931 . S
H239 C225 0.931 . S
Co240 N245 2.057 . S
Co240 O257 2.021 . S
Co240 O260 2.062 . S
Co240 O264 2.117 . S
Co240 O265 2.020 . S
C241 O261 1.259 . S
C241 O264 1.258 . S
Co242 N251 2.057 . S
Co242 O258 2.117 . S
Co242 O259 2.020 . S
Co242 O261 2.021 . S
Co242 O266 2.062 . S
C243 N245 1.316 . S
C243 N246 1.347 . S
C243 H248 0.931 . S
C244 N245 1.375 . S
C244 C247 1.350 . S
C244 H249 0.930 . S
N245 Co240 2.057 . S
N245 C243 1.316 . S
N245 C244 1.375 . S
N246 C243 1.347 . S
N246 C247 1.373 . S
C247 C244 1.350 . S
C247 N246 1.373 . S
C247 H268 0.931 . S
H248 C243 0.931 . S
H249 C244 0.930 . S
C250 O257 1.259 . S
C250 O258 1.258 . S
N251 Co242 2.057 . S
N251 C252 1.316 . S
N251 C253 1.375 . S
C252 N251 1.316 . S
C252 N254 1.347 . S
C252 H263 0.931 . S
C253 N251 1.375 . S
C253 C255 1.350 . S
C253 H262 0.930 . S
N254 C252 1.347 . S
N254 C255 1.373 . S
C255 C253 1.350 . S
C255 N254 1.373 . S
C255 H269 0.931 . S
C256 O259 1.256 . S
C256 O260 1.255 . S
O257 Co240 2.021 . S
O257 C250 1.259 . S
O258 Co242 2.117 . S
O258 C250 1.258 . S
O259 Co242 2.020 . S
O259 C256 1.256 . S
O260 Co240 2.062 . S
O260 C256 1.255 . S
O261 C241 1.259 . S
O261 Co242 2.021 . S
H262 C253 0.930 . S
H263 C252 0.931 . S
O264 Co240 2.117 . S
O264 C241 1.258 . S
O265 Co240 2.020 . S
O265 C267 1.256 . S
O266 Co242 2.062 . S
O266 C267 1.255 . S
C267 O265 1.256 . S
C267 O266 1.255 . S
H268 C247 0.931 . S
H269 C255 0.931 . S
Co270 N275 2.057 . S
Co270 O287 2.021 . S
Co270 O290 2.062 . S
Co270 O294 2.117 . S
Co270 O295 2.020 . S
C271 O291 1.259 . S
C271 O294 1.258 . S
Co272 N281 2.057 . S
Co272 O288 2.117 . S
Co272 O289 2.020 . S
Co272 O291 2.021 . S
Co272 O296 2.062 . S
C273 N275 1.316 . S
C273 N276 1.347 . S
C273 H278 0.931 . S
C274 N275 1.375 . S
C274 C277 1.350 . S
C274 H279 0.930 . S
N275 Co270 2.057 . S
N275 C273 1.316 . S
N275 C274 1.375 . S
N276 C273 1.347 . S
N276 C277 1.373 . S
C277 C274 1.350 . S
C277 N276 1.373 . S
C277 H298 0.931 . S
H278 C273 0.931 . S
H279 C274 0.930 . S
C280 O287 1.259 . S
C280 O288 1.258 . S
N281 Co272 2.057 . S
N281 C282 1.316 . S
N281 C283 1.375 . S
C282 N281 1.316 . S
C282 N284 1.347 . S
C282 H293 0.931 . S
C283 N281 1.375 . S
C283 C285 1.350 . S
C283 H292 0.930 . S
N284 C282 1.347 . S
N284 C285 1.373 . S
C285 C283 1.350 . S
C285 N284 1.373 . S
C285 H299 0.931 . S
C286 O289 1.256 . S
C286 O290 1.255 . S
O287 Co270 2.021 . S
O287 C280 1.259 . S
O288 Co272 2.117 . S
O288 C280 1.258 . S
O289 Co272 2.020 . S
O289 C286 1.256 . S
O290 Co270 2.062 . S
O290 C286 1.255 . S
O291 C271 1.259 . S
O291 Co272 2.021 . S
H292 C283 0.930 . S
H293 C282 0.931 . S
O294 Co270 2.117 . S
O294 C271 1.258 . S
O295 Co270 2.020 . S
O295 C297 1.256 . S
O296 Co272 2.062 . S
O296 C297 1.255 . S
C297 O295 1.256 . S
C297 O296 1.255 . S
H298 C277 0.931 . S
H299 C285 0.931 . S
Co300 N305 2.057 . S
Co300 O317 2.021 . S
Co300 O320 2.062 . S
Co300 O324 2.117 . S
Co300 O325 2.020 . S
C301 O321 1.259 . S
C301 O324 1.258 . S
Co302 N311 2.057 . S
Co302 O318 2.117 . S
Co302 O319 2.020 . S
Co302 O321 2.021 . S
Co302 O326 2.062 . S
C303 N305 1.316 . S
C303 N306 1.347 . S
C303 H308 0.931 . S
C304 N305 1.375 . S
C304 C307 1.350 . S
C304 H309 0.930 . S
N305 Co300 2.057 . S
N305 C303 1.316 . S
N305 C304 1.375 . S
N306 C303 1.347 . S
N306 C307 1.373 . S
C307 C304 1.350 . S
C307 N306 1.373 . S
C307 H328 0.931 . S
H308 C303 0.931 . S
H309 C304 0.930 . S
C310 O317 1.259 . S
C310 O318 1.258 . S
N311 Co302 2.057 . S
N311 C312 1.330 . S
N311 C313 1.375 . S
C312 N311 1.330 . S
C312 N314 1.332 1_565 S
C312 H323 0.932 . S
C313 N311 1.375 . S
C313 C315 1.350 1_565 S
C313 H322 0.930 . S
N314 C312 1.332 1_545 S
N314 C315 1.373 . S
C315 C313 1.350 1_545 S
C315 N314 1.373 . S
C315 H329 0.931 . S
C316 O319 1.256 . S
C316 O320 1.255 . S
O317 Co300 2.021 . S
O317 C310 1.259 . S
O318 Co302 2.117 . S
O318 C310 1.258 . S
O319 Co302 2.020 . S
O319 C316 1.256 . S
O320 Co300 2.062 . S
O320 C316 1.255 . S
O321 C301 1.259 . S
O321 Co302 2.021 . S
H322 C313 0.930 . S
H323 C312 0.932 . S
O324 Co300 2.117 . S
O324 C301 1.258 . S
O325 Co300 2.020 . S
O325 C327 1.256 . S
O326 Co302 2.062 . S
O326 C327 1.255 . S
C327 O325 1.256 . S
C327 O326 1.255 . S
H328 C307 0.931 . S
H329 C315 0.931 . S
Co330 N335 2.057 . S
Co330 O347 2.021 . S
Co330 O350 2.062 . S
Co330 O354 2.117 . S
Co330 O355 2.020 . S
C331 O351 1.259 . S
C331 O354 1.258 . S
Co332 N341 2.057 . S
Co332 O348 2.117 . S
Co332 O349 2.020 . S
Co332 O351 2.021 . S
Co332 O356 2.062 . S
C333 N335 1.316 . S
C333 N336 1.347 . S
C333 H338 0.931 . S
C334 N335 1.375 . S
C334 C337 1.350 . S
C334 H339 0.930 . S
N335 Co330 2.057 . S
N335 C333 1.316 . S
N335 C334 1.375 . S
N336 C333 1.347 . S
N336 C337 1.373 . S
C337 C334 1.350 . S
C337 N336 1.373 . S
C337 H358 0.931 . S
H338 C333 0.931 . S
H339 C334 0.930 . S
C340 O347 1.259 . S
C340 O348 1.258 . S
N341 Co332 2.057 . S
N341 C342 1.316 . S
N341 C343 1.375 . S
C342 N341 1.316 . S
C342 N344 1.347 . S
C342 H353 0.931 . S
C343 N341 1.375 . S
C343 C345 1.350 . S
C343 H352 0.930 . S
N344 C342 1.347 . S
N344 C345 1.373 . S
C345 C343 1.350 . S
C345 N344 1.373 . S
C345 H359 0.931 1_455 S
C346 O349 1.256 . S
C346 O350 1.255 . S
O347 Co330 2.021 . S
O347 C340 1.259 . S
O348 Co332 2.117 . S
O348 C340 1.258 . S
O349 Co332 2.020 . S
O349 C346 1.256 . S
O350 Co330 2.062 . S
O350 C346 1.255 . S
O351 C331 1.259 . S
O351 Co332 2.021 . S
H352 C343 0.930 . S
H353 C342 0.931 . S
O354 Co330 2.117 . S
O354 C331 1.258 . S
O355 Co330 2.020 . S
O355 C357 1.256 . S
O356 Co332 2.062 . S
O356 C357 1.255 . S
C357 O355 1.256 . S
C357 O356 1.255 . S
H358 C337 0.931 . S
H359 C345 0.931 1_655 S
Co360 N365 2.057 . S
Co360 O377 2.021 . S
Co360 O380 2.062 . S
Co360 O384 2.117 . S
Co360 O385 2.020 . S
C361 O381 1.259 . S
C361 O384 1.258 . S
Co362 N371 2.057 . S
Co362 O378 2.117 . S
Co362 O379 2.020 . S
Co362 O381 2.021 . S
Co362 O386 2.062 . S
C363 N365 1.316 . S
C363 N366 1.347 . S
C363 H368 0.931 . S
C364 N365 1.375 . S
C364 C367 1.350 . S
C364 H369 0.930 . S
N365 Co360 2.057 . S
N365 C363 1.316 . S
N365 C364 1.375 . S
N366 C363 1.347 . S
N366 C367 1.373 . S
C367 C364 1.350 . S
C367 N366 1.373 . S
C367 H388 0.931 . S
H368 C363 0.931 . S
H369 C364 0.930 . S
C370 O377 1.259 . S
C370 O378 1.258 . S
N371 Co362 2.057 . S
N371 C372 1.316 . S
N371 C373 1.375 . S
C372 N371 1.316 . S
C372 N374 1.347 . S
C372 H383 0.931 . S
C373 N371 1.375 . S
C373 C375 1.350 . S
C373 H382 0.930 . S
N374 C372 1.347 . S
N374 C375 1.373 . S
C375 C373 1.350 . S
C375 N374 1.373 . S
C375 H389 0.931 . S
C376 O379 1.256 . S
C376 O380 1.255 . S
O377 Co360 2.021 . S
O377 C370 1.259 . S
O378 Co362 2.117 . S
O378 C370 1.258 . S
O379 Co362 2.020 . S
O379 C376 1.256 . S
O380 Co360 2.062 . S
O380 C376 1.255 . S
O381 C361 1.259 . S
O381 Co362 2.021 . S
H382 C373 0.930 . S
H383 C372 0.931 . S
O384 Co360 2.117 . S
O384 C361 1.258 . S
O385 Co360 2.020 . S
O385 C387 1.256 . S
O386 Co362 2.062 . S
O386 C387 1.255 . S
C387 O385 1.256 . S
C387 O386 1.255 . S
H388 C367 0.931 . S
H389 C375 0.931 . S
Co390 N395 2.057 . S
Co390 O407 2.021 . S
Co390 O410 2.062 . S
Co390 O414 2.117 . S
Co390 O415 2.020 . S
C391 O411 1.259 . S
C391 O414 1.258 . S
Co392 N401 2.057 . S
Co392 O408 2.117 . S
Co392 O409 2.020 . S
Co392 O411 2.021 . S
Co392 O416 2.062 . S
C393 N395 1.316 . S
C393 N396 1.347 . S
C393 H398 0.931 . S
C394 N395 1.375 . S
C394 C397 1.350 . S
C394 H399 0.930 . S
N395 Co390 2.057 . S
N395 C393 1.316 . S
N395 C394 1.375 . S
N396 C393 1.347 . S
N396 C397 1.373 . S
C397 C394 1.350 . S
C397 N396 1.373 . S
C397 H418 0.931 . S
H398 C393 0.931 . S
H399 C394 0.930 . S
C400 O407 1.259 . S
C400 O408 1.258 . S
N401 Co392 2.057 . S
N401 C402 1.316 . S
N401 C403 1.375 . S
C402 N401 1.316 . S
C402 N404 1.347 . S
C402 H413 0.931 . S
C403 N401 1.375 . S
C403 C405 1.350 . S
C403 H412 0.930 . S
N404 C402 1.347 . S
N404 C405 1.373 . S
C405 C403 1.350 . S
C405 N404 1.373 . S
C405 H419 0.931 1_545 S
C406 O409 1.256 . S
C406 O410 1.255 . S
O407 Co390 2.021 . S
O407 C400 1.259 . S
O408 Co392 2.117 . S
O408 C400 1.258 . S
O409 Co392 2.020 . S
O409 C406 1.256 . S
O410 Co390 2.062 . S
O410 C406 1.255 . S
O411 C391 1.259 . S
O411 Co392 2.021 . S
H412 C403 0.930 . S
H413 C402 0.931 . S
O414 Co390 2.117 . S
O414 C391 1.258 . S
O415 Co390 2.020 . S
O415 C417 1.256 . S
O416 Co392 2.062 . S
O416 C417 1.255 . S
C417 O415 1.256 . S
C417 O416 1.255 . S
H418 C397 0.931 . S
H419 C405 0.931 1_565 S
Co420 N425 2.057 . S
Co420 O437 2.021 . S
Co420 O440 2.062 . S
Co420 O444 2.117 . S
Co420 O445 2.020 . S
C421 O441 1.259 . S
C421 O444 1.258 . S
Co422 N431 2.057 . S
Co422 O438 2.117 . S
Co422 O439 2.020 . S
Co422 O441 2.021 . S
Co422 O446 2.062 . S
C423 N425 1.316 . S
C423 N426 1.347 . S
C423 H428 0.931 . S
C424 N425 1.375 . S
C424 C427 1.350 . S
C424 H429 0.930 . S
N425 Co420 2.057 . S
N425 C423 1.316 . S
N425 C424 1.375 . S
N426 C423 1.347 . S
N426 C427 1.373 . S
C427 C424 1.350 . S
C427 N426 1.373 . S
C427 H448 0.931 . S
H428 C423 0.931 . S
H429 C424 0.930 . S
C430 O437 1.259 . S
C430 O438 1.258 . S
N431 Co422 2.057 . S
N431 C432 1.330 . S
N431 C433 1.375 . S
C432 N431 1.330 . S
C432 N434 1.332 1_655 S
C432 H443 0.932 . S
C433 N431 1.375 . S
C433 C435 1.350 1_655 S
C433 H442 0.930 . S
N434 C432 1.332 1_455 S
N434 C435 1.373 . S
C435 C433 1.350 1_455 S
C435 N434 1.373 . S
C435 H449 0.931 . S
C436 O439 1.256 . S
C436 O440 1.255 . S
O437 Co420 2.021 . S
O437 C430 1.259 . S
O438 Co422 2.117 . S
O438 C430 1.258 . S
O439 Co422 2.020 . S
O439 C436 1.256 . S
O440 Co420 2.062 . S
O440 C436 1.255 . S
O441 C421 1.259 . S
O441 Co422 2.021 . S
H442 C433 0.930 . S
H443 C432 0.932 . S
O444 Co420 2.117 . S
O444 C421 1.258 . S
O445 Co420 2.020 . S
O445 C447 1.256 . S
O446 Co422 2.062 . S
O446 C447 1.255 . S
C447 O445 1.256 . S
C447 O446 1.255 . S
H448 C427 0.931 . S
H449 C435 0.931 . S
Co450 N455 2.057 . S
Co450 O467 2.021 . S
Co450 O470 2.062 . S
Co450 O474 2.117 . S
Co450 O475 2.020 . S
C451 O471 1.259 . S
C451 O474 1.258 . S
Co452 N461 2.057 . S
Co452 O468 2.117 . S
Co452 O469 2.020 . S
Co452 O471 2.021 . S
Co452 O476 2.062 . S
C453 N455 1.316 . S
C453 N456 1.347 . S
C453 H458 0.931 . S
C454 N455 1.375 . S
C454 C457 1.350 . S
C454 H459 0.930 . S
N455 Co450 2.057 . S
N455 C453 1.316 . S
N455 C454 1.375 . S
N456 C453 1.347 . S
N456 C457 1.373 . S
C457 C454 1.350 . S
C457 N456 1.373 . S
C457 H478 0.931 . S
H458 C453 0.931 . S
H459 C454 0.930 . S
C460 O467 1.259 . S
C460 O468 1.258 . S
N461 Co452 2.057 . S
N461 C462 1.316 . S
N461 C463 1.375 . S
C462 N461 1.316 . S
C462 N464 1.347 . S
C462 H473 0.931 . S
C463 N461 1.375 . S
C463 C465 1.350 . S
C463 H472 0.930 . S
N464 C462 1.347 . S
N464 C465 1.373 . S
C465 C463 1.350 . S
C465 N464 1.373 . S
C465 H479 0.931 . S
C466 O469 1.256 . S
C466 O470 1.255 . S
O467 Co450 2.021 . S
O467 C460 1.259 . S
O468 Co452 2.117 . S
O468 C460 1.258 . S
O469 Co452 2.020 . S
O469 C466 1.256 . S
O470 Co450 2.062 . S
O470 C466 1.255 . S
O471 C451 1.259 . S
O471 Co452 2.021 . S
H472 C463 0.930 . S
H473 C462 0.931 . S
O474 Co450 2.117 . S
O474 C451 1.258 . S
O475 Co450 2.020 . S
O475 C477 1.256 . S
O476 Co452 2.062 . S
O476 C477 1.255 . S
C477 O475 1.256 . S
C477 O476 1.255 . S
H478 C457 0.931 . S
H479 C465 0.931 . S
Co480 N485 2.057 . S
Co480 O497 2.021 . S
Co480 O500 2.062 . S
Co480 O504 2.117 . S
Co480 O505 2.020 . S
C481 O501 1.259 . S
C481 O504 1.258 . S
Co482 N491 2.057 . S
Co482 O498 2.117 . S
Co482 O499 2.020 . S
Co482 O501 2.021 . S
Co482 O506 2.062 . S
C483 N485 1.316 . S
C483 N486 1.347 . S
C483 H488 0.931 . S
C484 N485 1.375 . S
C484 C487 1.350 . S
C484 H489 0.930 . S
N485 Co480 2.057 . S
N485 C483 1.316 . S
N485 C484 1.375 . S
N486 C483 1.347 . S
N486 C487 1.373 . S
C487 C484 1.350 . S
C487 N486 1.373 . S
C487 H508 0.931 . S
H488 C483 0.931 . S
H489 C484 0.930 . S
C490 O497 1.259 . S
C490 O498 1.258 . S
N491 Co482 2.057 . S
N491 C492 1.316 . S
N491 C493 1.375 . S
C492 N491 1.316 . S
C492 N494 1.347 . S
C492 H503 0.931 . S
C493 N491 1.375 . S
C493 C495 1.350 . S
C493 H502 0.930 . S
N494 C492 1.347 . S
N494 C495 1.373 . S
C495 C493 1.350 . S
C495 N494 1.373 . S
C495 H509 0.931 . S
C496 O499 1.256 . S
C496 O500 1.255 . S
O497 Co480 2.021 . S
O497 C490 1.259 . S
O498 Co482 2.117 . S
O498 C490 1.258 . S
O499 Co482 2.020 . S
O499 C496 1.256 . S
O500 Co480 2.062 . S
O500 C496 1.255 . S
O501 C481 1.259 . S
O501 Co482 2.021 . S
H502 C493 0.930 . S
H503 C492 0.931 . S
O504 Co480 2.117 . S
O504 C481 1.258 . S
O505 Co480 2.020 . S
O505 C507 1.256 . S
O506 Co482 2.062 . S
O506 C507 1.255 . S
C507 O505 1.256 . S
C507 O506 1.255 . S
H508 C487 0.931 . S
H509 C495 0.931 . S
Co510 N515 2.057 . S
Co510 O527 2.021 . S
Co510 O530 2.062 . S
Co510 O534 2.117 . S
Co510 O535 2.020 . S
C511 O531 1.259 . S
C511 O534 1.258 . S
Co512 N521 2.057 . S
Co512 O528 2.117 . S
Co512 O529 2.020 . S
Co512 O531 2.021 . S
Co512 O536 2.062 . S
C513 N515 1.316 . S
C513 N516 1.347 . S
C513 H518 0.931 . S
C514 N515 1.375 . S
C514 C517 1.350 . S
C514 H519 0.930 . S
N515 Co510 2.057 . S
N515 C513 1.316 . S
N515 C514 1.375 . S
N516 C513 1.347 . S
N516 C517 1.373 . S
C517 C514 1.350 . S
C517 N516 1.373 . S
C517 H538 0.931 . S
H518 C513 0.931 . S
H519 C514 0.930 . S
C520 O527 1.259 . S
C520 O528 1.258 . S
N521 Co512 2.057 . S
N521 C522 1.316 . S
N521 C523 1.375 . S
C522 N521 1.316 . S
C522 N524 1.347 . S
C522 H533 0.931 . S
C523 N521 1.375 . S
C523 C525 1.350 . S
C523 H532 0.930 . S
N524 C522 1.347 . S
N524 C525 1.373 . S
C525 C523 1.350 . S
C525 N524 1.373 . S
C525 H539 0.931 . S
C526 O529 1.256 . S
C526 O530 1.255 . S
O527 Co510 2.021 . S
O527 C520 1.259 . S
O528 Co512 2.117 . S
O528 C520 1.258 . S
O529 Co512 2.020 . S
O529 C526 1.256 . S
O530 Co510 2.062 . S
O530 C526 1.255 . S
O531 C511 1.259 . S
O531 Co512 2.021 . S
H532 C523 0.930 . S
H533 C522 0.931 . S
O534 Co510 2.117 . S
O534 C511 1.258 . S
O535 Co510 2.020 . S
O535 C537 1.256 . S
O536 Co512 2.062 . S
O536 C537 1.255 . S
C537 O535 1.256 . S
C537 O536 1.255 . S
H538 C517 0.931 . S
H539 C525 0.931 . S
H540 C548 0.929 . S
H541 C550 0.930 . S
H542 C552 0.930 . S
H543 C555 0.929 . S
H544 C558 0.930 . S
H545 C560 0.960 . S
H546 C560 0.960 . S
H547 C560 0.960 . S
C548 H540 0.929 . S
C548 C549 1.377 . S
C548 C550 1.384 . S
C549 C548 1.377 . S
C549 C555 1.390 . S
C550 H541 0.930 . S
C550 C548 1.384 . S
C550 C551 1.372 . S
C551 C550 1.372 . S
C551 C552 1.400 . S
C551 C556 1.490 . S
C552 H542 0.930 . S
C552 C551 1.400 . S
C552 C555 1.386 . S
H553 C569 0.930 . S
H554 C570 0.931 . S
C555 H543 0.929 . S
C555 C549 1.390 . S
C555 C552 1.386 . S
C556 C551 1.490 . S
C556 C558 1.395 . S
C556 C559 1.403 . S
H557 C563 0.930 . S
C558 H544 0.930 . S
C558 C556 1.395 . S
C558 C561 1.403 . S
C559 C556 1.403 . S
C559 C560 1.524 . S
C559 C563 1.400 . S
C560 H545 0.960 . S
C560 H546 0.960 . S
C560 H547 0.960 . S
C560 C559 1.524 . S
C561 C558 1.403 . S
C561 C562 1.392 . S
C561 C565 1.495 . S
C562 C561 1.392 . S
C562 C563 1.385 . S
C562 C564 1.478 . S
C563 H557 0.930 . S
C563 C559 1.400 . S
C563 C562 1.385 . S
C564 C562 1.478 . S
C564 C566 1.381 . S
C564 C570 1.383 . S
C565 C561 1.495 . S
C565 H571 0.959 . S
C565 H572 0.961 . S
C565 H573 0.960 . S
C566 C564 1.381 . S
C566 C567 1.394 . S
C566 H574 0.930 . S
C567 C566 1.394 . S
C567 C568 1.383 . S
C567 H575 0.929 . S
C568 C567 1.383 . S
C568 C569 1.377 . S
C569 H553 0.930 . S
C569 C568 1.377 . S
C569 C570 1.379 . S
C570 H554 0.931 . S
C570 C564 1.383 . S
C570 C569 1.379 . S
H571 C565 0.959 . S
H572 C565 0.961 . S
H573 C565 0.960 . S
H574 C566 0.930 . S
H575 C567 0.929 . S
H576 C584 0.929 . S
H577 C586 0.930 . S
H578 C588 0.930 . S
H579 C591 0.929 . S
H580 C594 0.930 . S
H581 C596 0.960 . S
H582 C596 0.960 . S
H583 C596 0.960 . S
C584 H576 0.929 . S
C584 C585 1.377 . S
C584 C586 1.384 . S
C585 C584 1.377 . S
C585 C591 1.390 . S
C586 H577 0.930 . S
C586 C584 1.384 . S
C586 C587 1.372 . S
C587 C586 1.372 . S
C587 C588 1.400 . S
C587 C592 1.490 . S
C588 H578 0.930 . S
C588 C587 1.400 . S
C588 C591 1.386 . S
H589 C605 0.930 . S
H590 C606 0.931 . S
C591 H579 0.929 . S
C591 C585 1.390 . S
C591 C588 1.386 . S
C592 C587 1.490 . S
C592 C594 1.395 . S
C592 C595 1.403 . S
H593 C599 0.930 . S
C594 H580 0.930 . S
C594 C592 1.395 . S
C594 C597 1.403 . S
C595 C592 1.403 . S
C595 C596 1.524 . S
C595 C599 1.400 . S
C596 H581 0.960 . S
C596 H582 0.960 . S
C596 H583 0.960 . S
C596 C595 1.524 . S
C597 C594 1.403 . S
C597 C598 1.392 . S
C597 C601 1.495 . S
C598 C597 1.392 . S
C598 C599 1.385 . S
C598 C600 1.478 . S
C599 H593 0.930 . S
C599 C595 1.400 . S
C599 C598 1.385 . S
C600 C598 1.478 . S
C600 C602 1.381 . S
C600 C606 1.383 . S
C601 C597 1.495 . S
C601 H607 0.959 . S
C601 H608 0.961 . S
C601 H609 0.960 . S
C602 C600 1.381 . S
C602 C603 1.394 . S
C602 H610 0.930 . S
C603 C602 1.394 . S
C603 C604 1.383 . S
C603 H611 0.929 . S
C604 C603 1.383 . S
C604 C605 1.377 . S
C605 H589 0.930 . S
C605 C604 1.377 . S
C605 C606 1.379 . S
C606 H590 0.931 . S
C606 C600 1.383 . S
C606 C605 1.379 . S
H607 C601 0.959 . S
H608 C601 0.961 . S
H609 C601 0.960 . S
H610 C602 0.930 . S
H611 C603 0.929 . S
H612 C620 0.929 . S
H613 C622 0.930 . S
H614 C624 0.930 . S
H615 C627 0.929 . S
H616 C630 0.930 . S
H617 C632 0.960 . S
H618 C632 0.960 . S
H619 C632 0.960 . S
C620 H612 0.929 . S
C620 C621 1.377 . S
C620 C622 1.384 . S
C621 C620 1.377 . S
C621 C627 1.390 . S
C622 H613 0.930 . S
C622 C620 1.384 . S
C622 C623 1.372 . S
C623 C622 1.372 . S
C623 C624 1.400 . S
C623 C628 1.490 . S
C624 H614 0.930 . S
C624 C623 1.400 . S
C624 C627 1.386 . S
H625 C641 0.930 . S
H626 C642 0.931 . S
C627 H615 0.929 . S
C627 C621 1.390 . S
C627 C624 1.386 . S
C628 C623 1.490 . S
C628 C630 1.395 . S
C628 C631 1.403 . S
H629 C635 0.930 . S
C630 H616 0.930 . S
C630 C628 1.395 . S
C630 C633 1.403 . S
C631 C628 1.403 . S
C631 C632 1.524 . S
C631 C635 1.400 . S
C632 H617 0.960 . S
C632 H618 0.960 . S
C632 H619 0.960 . S
C632 C631 1.524 . S
C633 C630 1.403 . S
C633 C634 1.392 . S
C633 C637 1.495 . S
C634 C633 1.392 . S
C634 C635 1.385 . S
C634 C636 1.478 . S
C635 H629 0.930 . S
C635 C631 1.400 . S
C635 C634 1.385 . S
C636 C634 1.478 . S
C636 C638 1.381 . S
C636 C642 1.383 . S
C637 C633 1.495 . S
C637 H643 0.959 . S
C637 H644 0.961 . S
C637 H645 0.960 . S
C638 C636 1.381 . S
C638 C639 1.394 . S
C638 H646 0.930 . S
C639 C638 1.394 . S
C639 C640 1.383 . S
C639 H647 0.929 . S
C640 C639 1.383 . S
C640 C641 1.377 . S
C641 H625 0.930 . S
C641 C640 1.377 . S
C641 C642 1.379 . S
C642 H626 0.931 . S
C642 C636 1.383 . S
C642 C641 1.379 . S
H643 C637 0.959 . S
H644 C637 0.961 . S
H645 C637 0.960 . S
H646 C638 0.930 . S
H647 C639 0.929 . S
H648 C656 0.929 . S
H649 C658 0.930 . S
H650 C660 0.930 . S
H651 C663 0.929 . S
H652 C666 0.930 . S
H653 C668 0.960 . S
H654 C668 0.960 . S
H655 C668 0.960 . S
C656 H648 0.929 . S
C656 C657 1.377 . S
C656 C658 1.384 . S
C657 C656 1.377 . S
C657 C663 1.390 . S
C658 H649 0.930 . S
C658 C656 1.384 . S
C658 C659 1.372 . S
C659 C658 1.372 . S
C659 C660 1.400 . S
C659 C664 1.490 . S
C660 H650 0.930 . S
C660 C659 1.400 . S
C660 C663 1.386 . S
H661 C677 0.930 . S
H662 C678 0.931 . S
C663 H651 0.929 . S
C663 C657 1.390 . S
C663 C660 1.386 . S
C664 C659 1.490 . S
C664 C666 1.395 . S
C664 C667 1.403 . S
H665 C671 0.930 . S
C666 H652 0.930 . S
C666 C664 1.395 . S
C666 C669 1.403 . S
C667 C664 1.403 . S
C667 C668 1.524 . S
C667 C671 1.400 . S
C668 H653 0.960 . S
C668 H654 0.960 . S
C668 H655 0.960 . S
C668 C667 1.524 . S
C669 C666 1.403 . S
C669 C670 1.392 . S
C669 C673 1.495 . S
C670 C669 1.392 . S
C670 C671 1.385 . S
C670 C672 1.478 . S
C671 H665 0.930 . S
C671 C667 1.400 . S
C671 C670 1.385 . S
C672 C670 1.478 . S
C672 C674 1.381 . S
C672 C678 1.383 . S
C673 C669 1.495 . S
C673 H679 0.959 . S
C673 H680 0.961 . S
C673 H681 0.960 . S
C674 C672 1.381 . S
C674 C675 1.394 . S
C674 H682 0.930 . S
C675 C674 1.394 . S
C675 C676 1.383 . S
C675 H683 0.929 . S
C676 C675 1.383 . S
C676 C677 1.377 . S
C677 H661 0.930 . S
C677 C676 1.377 . S
C677 C678 1.379 . S
C678 H662 0.931 . S
C678 C672 1.383 . S
C678 C677 1.379 . S
H679 C673 0.959 . S
H680 C673 0.961 . S
H681 C673 0.960 . S
H682 C674 0.930 . S
H683 C675 0.929 . S
H684 C692 0.929 . S
H685 C694 0.930 . S
H686 C696 0.930 . S
H687 C699 0.929 . S
H688 C702 0.930 . S
H689 C704 0.960 . S
H690 C704 0.960 . S
H691 C704 0.960 . S
C692 H684 0.929 . S
C692 C693 1.377 . S
C692 C694 1.384 . S
C693 C692 1.377 . S
C693 C699 1.390 . S
C694 H685 0.930 . S
C694 C692 1.384 . S
C694 C695 1.372 . S
C695 C694 1.372 . S
C695 C696 1.400 . S
C695 C700 1.490 . S
C696 H686 0.930 . S
C696 C695 1.400 . S
C696 C699 1.386 . S
H697 C713 0.930 . S
H698 C714 0.931 . S
C699 H687 0.929 . S
C699 C693 1.390 . S
C699 C696 1.386 . S
C700 C695 1.490 . S
C700 C702 1.395 . S
C700 C703 1.403 . S
H701 C707 0.930 . S
C702 H688 0.930 . S
C702 C700 1.395 . S
C702 C705 1.403 . S
C703 C700 1.403 . S
C703 C704 1.524 . S
C703 C707 1.400 . S
C704 H689 0.960 . S
C704 H690 0.960 . S
C704 H691 0.960 . S
C704 C703 1.524 . S
C705 C702 1.403 . S
C705 C706 1.392 . S
C705 C709 1.495 . S
C706 C705 1.392 . S
C706 C707 1.385 . S
C706 C708 1.478 . S
C707 H701 0.930 . S
C707 C703 1.400 . S
C707 C706 1.385 . S
C708 C706 1.478 . S
C708 C710 1.381 . S
C708 C714 1.383 . S
C709 C705 1.495 . S
C709 H715 0.959 . S
C709 H716 0.961 . S
C709 H717 0.960 . S
C710 C708 1.381 . S
C710 C711 1.394 . S
C710 H718 0.930 . S
C711 C710 1.394 . S
C711 C712 1.383 . S
C711 H719 0.929 . S
C712 C711 1.383 . S
C712 C713 1.377 . S
C713 H697 0.930 . S
C713 C712 1.377 . S
C713 C714 1.379 . S
C714 H698 0.931 . S
C714 C708 1.383 . S
C714 C713 1.379 . S
H715 C709 0.959 . S
H716 C709 0.961 . S
H717 C709 0.960 . S
H718 C710 0.930 . S
H719 C711 0.929 . S
H720 C728 0.929 . S
H721 C730 0.930 . S
H722 C732 0.930 . S
H723 C735 0.929 . S
H724 C738 0.930 . S
H725 C740 0.960 . S
H726 C740 0.960 . S
H727 C740 0.960 . S
C728 H720 0.929 . S
C728 C729 1.377 . S
C728 C730 1.384 . S
C729 C728 1.377 . S
C729 C735 1.390 . S
C730 H721 0.930 . S
C730 C728 1.384 . S
C730 C731 1.372 . S
C731 C730 1.372 . S
C731 C732 1.400 . S
C731 C736 1.490 . S
C732 H722 0.930 . S
C732 C731 1.400 . S
C732 C735 1.386 . S
H733 C749 0.930 . S
H734 C750 0.931 . S
C735 H723 0.929 . S
C735 C729 1.390 . S
C735 C732 1.386 . S
C736 C731 1.490 . S
C736 C738 1.395 . S
C736 C739 1.403 . S
H737 C743 0.930 . S
C738 H724 0.930 . S
C738 C736 1.395 . S
C738 C741 1.403 . S
C739 C736 1.403 . S
C739 C740 1.524 . S
C739 C743 1.400 . S
C740 H725 0.960 . S
C740 H726 0.960 . S
C740 H727 0.960 . S
C740 C739 1.524 . S
C741 C738 1.403 . S
C741 C742 1.392 . S
C741 C745 1.495 . S
C742 C741 1.392 . S
C742 C743 1.385 . S
C742 C744 1.478 . S
C743 H737 0.930 . S
C743 C739 1.400 . S
C743 C742 1.385 . S
C744 C742 1.478 . S
C744 C746 1.381 . S
C744 C750 1.383 . S
C745 C741 1.495 . S
C745 H751 0.959 . S
C745 H752 0.961 . S
C745 H753 0.960 . S
C746 C744 1.381 . S
C746 C747 1.394 . S
C746 H754 0.930 . S
C747 C746 1.394 . S
C747 C748 1.383 . S
C747 H755 0.929 . S
C748 C747 1.383 . S
C748 C749 1.377 . S
C749 H733 0.930 . S
C749 C748 1.377 . S
C749 C750 1.379 . S
C750 H734 0.931 . S
C750 C744 1.383 . S
C750 C749 1.379 . S
H751 C745 0.959 . S
H752 C745 0.961 . S
H753 C745 0.960 . S
H754 C746 0.930 . S
H755 C747 0.929 . S
H756 C764 0.928 1_565 S
H757 C766 0.930 . S
H758 C768 0.930 . S
H759 C771 0.929 . S
H760 C774 0.930 . S
H761 C776 0.960 . S
H762 C776 0.960 . S
H763 C776 0.960 . S
C764 H756 0.928 1_545 S
C764 C765 1.377 1_545 S
C764 C766 1.384 . S
C765 C764 1.377 1_565 S
C765 C771 1.390 . S
C766 H757 0.930 . S
C766 C764 1.384 . S
C766 C767 1.372 . S
C767 C766 1.372 . S
C767 C768 1.400 . S
C767 C772 1.490 . S
C768 H758 0.930 . S
C768 C767 1.400 . S
C768 C771 1.386 1_545 S
H769 C785 0.930 . S
H770 C786 0.931 . S
C771 H759 0.929 . S
C771 C765 1.390 . S
C771 C768 1.386 1_565 S
C772 C767 1.490 . S
C772 C774 1.395 . S
C772 C775 1.403 . S
H773 C779 0.930 . S
C774 H760 0.930 . S
C774 C772 1.395 . S
C774 C777 1.403 . S
C775 C772 1.403 . S
C775 C776 1.524 . S
C775 C779 1.400 . S
C776 H761 0.960 . S
C776 H762 0.960 . S
C776 H763 0.960 . S
C776 C775 1.524 . S
C777 C774 1.403 . S
C777 C778 1.392 . S
C777 C781 1.495 . S
C778 C777 1.392 . S
C778 C779 1.385 . S
C778 C780 1.478 . S
C779 H773 0.930 . S
C779 C775 1.400 . S
C779 C778 1.385 . S
C780 C778 1.478 . S
C780 C782 1.381 . S
C780 C786 1.383 . S
C781 C777 1.495 . S
C781 H787 0.959 . S
C781 H788 0.961 . S
C781 H789 0.960 . S
C782 C780 1.381 . S
C782 C783 1.394 . S
C782 H790 0.930 . S
C783 C782 1.394 . S
C783 C784 1.383 . S
C783 H791 0.929 . S
C784 C783 1.383 . S
C784 C785 1.377 . S
C785 H769 0.930 . S
C785 C784 1.377 . S
C785 C786 1.379 . S
C786 H770 0.931 . S
C786 C780 1.383 . S
C786 C785 1.379 . S
H787 C781 0.959 . S
H788 C781 0.961 . S
H789 C781 0.960 . S
H790 C782 0.930 . S
H791 C783 0.929 . S
H792 C800 0.929 . S
H793 C802 0.930 1_655 S
H794 C804 0.930 . S
H795 C807 0.929 . S
H796 C810 0.930 . S
H797 C812 0.960 . S
H798 C812 0.960 . S
H799 C812 0.960 . S
C800 H792 0.929 . S
C800 C801 1.377 . S
C800 C802 1.384 . S
C801 C800 1.377 . S
C801 C807 1.390 . S
C802 H793 0.930 1_455 S
C802 C800 1.384 . S
C802 C803 1.372 . S
C803 C802 1.372 . S
C803 C804 1.400 . S
C803 C808 1.490 1_455 S
C804 H794 0.930 . S
C804 C803 1.400 . S
C804 C807 1.386 . S
H805 C821 0.930 . S
H806 C822 0.931 . S
C807 H795 0.929 . S
C807 C801 1.390 . S
C807 C804 1.386 . S
C808 C803 1.490 1_655 S
C808 C810 1.395 . S
C808 C811 1.403 . S
H809 C815 0.930 . S
C810 H796 0.930 . S
C810 C808 1.395 . S
C810 C813 1.403 . S
C811 C808 1.403 . S
C811 C812 1.524 1_655 S
C811 C815 1.400 . S
C812 H797 0.960 . S
C812 H798 0.960 . S
C812 H799 0.960 . S
C812 C811 1.524 1_455 S
C813 C810 1.403 . S
C813 C814 1.392 . S
C813 C817 1.495 . S
C814 C813 1.392 . S
C814 C815 1.385 . S
C814 C816 1.478 . S
C815 H809 0.930 . S
C815 C811 1.400 . S
C815 C814 1.385 . S
C816 C814 1.478 . S
C816 C818 1.381 . S
C816 C822 1.383 . S
C817 C813 1.495 . S
C817 H823 0.959 . S
C817 H824 0.961 . S
C817 H825 0.960 . S
C818 C816 1.381 . S
C818 C819 1.394 . S
C818 H826 0.930 . S
C819 C818 1.394 . S
C819 C820 1.383 1_545 S
C819 H827 0.929 . S
C820 C819 1.383 1_565 S
C820 C821 1.377 . S
C821 H805 0.930 . S
C821 C820 1.377 . S
C821 C822 1.379 1_565 S
C822 H806 0.931 . S
C822 C816 1.383 . S
C822 C821 1.379 1_545 S
H823 C817 0.959 . S
H824 C817 0.961 . S
H825 C817 0.960 . S
H826 C818 0.930 . S
H827 C819 0.929 . S
H828 C836 0.929 . S
H829 C838 0.930 . S
H830 C840 0.930 . S
H831 C843 0.929 . S
H832 C846 0.930 . S
H833 C848 0.960 . S
H834 C848 0.960 . S
H835 C848 0.960 . S
C836 H828 0.929 . S
C836 C837 1.377 . S
C836 C838 1.384 1_455 S
C837 C836 1.377 . S
C837 C843 1.390 . S
C838 H829 0.930 . S
C838 C836 1.384 1_655 S
C838 C839 1.372 . S
C839 C838 1.372 . S
C839 C840 1.400 1_655 S
C839 C844 1.490 . S
C840 H830 0.930 . S
C840 C839 1.400 1_455 S
C840 C843 1.386 . S
H841 C857 0.930 . S
H842 C858 0.931 . S
C843 H831 0.929 . S
C843 C837 1.390 . S
C843 C840 1.386 . S
C844 C839 1.490 . S
C844 C846 1.395 . S
C844 C847 1.403 . S
H845 C851 0.930 . S
C846 H832 0.930 . S
C846 C844 1.395 . S
C846 C849 1.403 . S
C847 C844 1.403 . S
C847 C848 1.524 . S
C847 C851 1.400 . S
C848 H833 0.960 . S
C848 H834 0.960 . S
C848 H835 0.960 . S
C848 C847 1.524 . S
C849 C846 1.403 . S
C849 C850 1.392 . S
C849 C853 1.495 . S
C850 C849 1.392 . S
C850 C851 1.385 . S
C850 C852 1.478 . S
C851 H845 0.930 . S
C851 C847 1.400 . S
C851 C850 1.385 . S
C852 C850 1.478 . S
C852 C854 1.381 . S
C852 C858 1.383 . S
C853 C849 1.495 . S
C853 H859 0.959 . S
C853 H860 0.961 . S
C853 H861 0.960 . S
C854 C852 1.381 . S
C854 C855 1.394 . S
C854 H862 0.930 . S
C855 C854 1.394 . S
C855 C856 1.383 . S
C855 H863 0.929 . S
C856 C855 1.383 . S
C856 C857 1.377 . S
C857 H841 0.930 . S
C857 C856 1.377 . S
C857 C858 1.379 . S
C858 H842 0.931 . S
C858 C852 1.383 . S
C858 C857 1.379 . S
H859 C853 0.959 . S
H860 C853 0.961 . S
H861 C853 0.960 . S
H862 C854 0.930 . S
H863 C855 0.929 . S
H864 C872 0.929 . S
H865 C874 0.930 . S
H866 C876 0.930 . S
H867 C879 0.929 . S
H868 C882 0.930 . S
H869 C884 0.960 . S
H870 C884 0.960 . S
H871 C884 0.960 . S
C872 H864 0.929 . S
C872 C873 1.377 . S
C872 C874 1.384 . S
C873 C872 1.377 . S
C873 C879 1.390 . S
C874 H865 0.930 . S
C874 C872 1.384 . S
C874 C875 1.372 . S
C875 C874 1.372 . S
C875 C876 1.400 . S
C875 C880 1.490 . S
C876 H866 0.930 . S
C876 C875 1.400 . S
C876 C879 1.386 . S
H877 C893 0.930 . S
H878 C894 0.931 . S
C879 H867 0.929 . S
C879 C873 1.390 . S
C879 C876 1.386 . S
C880 C875 1.490 . S
C880 C882 1.395 . S
C880 C883 1.403 . S
H881 C887 0.930 . S
C882 H868 0.930 . S
C882 C880 1.395 . S
C882 C885 1.403 . S
C883 C880 1.403 . S
C883 C884 1.524 . S
C883 C887 1.400 . S
C884 H869 0.960 . S
C884 H870 0.960 . S
C884 H871 0.960 . S
C884 C883 1.524 . S
C885 C882 1.403 . S
C885 C886 1.392 . S
C885 C889 1.495 . S
C886 C885 1.392 . S
C886 C887 1.385 . S
C886 C888 1.478 . S
C887 H881 0.930 . S
C887 C883 1.400 . S
C887 C886 1.385 . S
C888 C886 1.478 . S
C888 C890 1.381 . S
C888 C894 1.383 . S
C889 C885 1.495 . S
C889 H895 0.959 . S
C889 H896 0.961 . S
C889 H897 0.960 . S
C890 C888 1.381 . S
C890 C891 1.394 . S
C890 H898 0.930 . S
C891 C890 1.394 . S
C891 C892 1.383 . S
C891 H899 0.929 . S
C892 C891 1.383 . S
C892 C893 1.377 . S
C893 H877 0.930 . S
C893 C892 1.377 . S
C893 C894 1.379 . S
C894 H878 0.931 . S
C894 C888 1.383 . S
C894 C893 1.379 . S
H895 C889 0.959 . S
H896 C889 0.961 . S
H897 C889 0.960 . S
H898 C890 0.930 . S
H899 C891 0.929 . S
H900 C908 0.929 . S
H901 C910 0.930 . S
H902 C912 0.930 . S
H903 C915 0.929 . S
H904 C918 0.930 . S
H905 C920 0.960 . S
H906 C920 0.960 . S
H907 C920 0.960 . S
C908 H900 0.929 . S
C908 C909 1.377 . S
C908 C910 1.384 . S
C909 C908 1.377 . S
C909 C915 1.390 . S
C910 H901 0.930 . S
C910 C908 1.384 . S
C910 C911 1.372 . S
C911 C910 1.372 . S
C911 C912 1.400 . S
C911 C916 1.490 . S
C912 H902 0.930 . S
C912 C911 1.400 . S
C912 C915 1.386 . S
H913 C929 0.930 . S
H914 C930 0.931 . S
C915 H903 0.929 . S
C915 C909 1.390 . S
C915 C912 1.386 . S
C916 C911 1.490 . S
C916 C918 1.395 . S
C916 C919 1.403 . S
H917 C923 0.930 . S
C918 H904 0.930 . S
C918 C916 1.395 . S
C918 C921 1.403 . S
C919 C916 1.403 . S
C919 C920 1.524 . S
C919 C923 1.400 . S
C920 H905 0.960 . S
C920 H906 0.960 . S
C920 H907 0.960 . S
C920 C919 1.524 . S
C921 C918 1.403 . S
C921 C922 1.392 . S
C921 C925 1.495 . S
C922 C921 1.392 . S
C922 C923 1.385 . S
C922 C924 1.478 . S
C923 H917 0.930 . S
C923 C919 1.400 . S
C923 C922 1.385 . S
C924 C922 1.478 . S
C924 C926 1.381 . S
C924 C930 1.383 . S
C925 C921 1.495 . S
C925 H931 0.959 . S
C925 H932 0.961 . S
C925 H933 0.960 . S
C926 C924 1.381 . S
C926 C927 1.394 . S
C926 H934 0.930 . S
C927 C926 1.394 . S
C927 C928 1.383 . S
C927 H935 0.929 . S
C928 C927 1.383 . S
C928 C929 1.377 . S
C929 H913 0.930 . S
C929 C928 1.377 . S
C929 C930 1.379 . S
C930 H914 0.931 . S
C930 C924 1.383 . S
C930 C929 1.379 . S
H931 C925 0.959 . S
H932 C925 0.961 . S
H933 C925 0.960 . S
H934 C926 0.930 . S
H935 C927 0.929 . S
H936 C944 0.929 . S
H937 C946 0.930 . S
H938 C948 0.930 . S
H939 C951 0.929 . S
H940 C954 0.930 . S
H941 C956 0.960 . S
H942 C956 0.960 . S
H943 C956 0.960 . S
C944 H936 0.929 . S
C944 C945 1.377 . S
C944 C946 1.384 . S
C945 C944 1.377 . S
C945 C951 1.390 . S
C946 H937 0.930 . S
C946 C944 1.384 . S
C946 C947 1.372 . S
C947 C946 1.372 . S
C947 C948 1.400 . S
C947 C952 1.490 . S
C948 H938 0.930 . S
C948 C947 1.400 . S
C948 C951 1.386 . S
H949 C965 0.930 . S
H950 C966 0.931 . S
C951 H939 0.929 . S
C951 C945 1.390 . S
C951 C948 1.386 . S
C952 C947 1.490 . S
C952 C954 1.395 . S
C952 C955 1.403 . S
H953 C959 0.930 . S
C954 H940 0.930 . S
C954 C952 1.395 . S
C954 C957 1.403 . S
C955 C952 1.403 . S
C955 C956 1.524 . S
C955 C959 1.400 . S
C956 H941 0.960 . S
C956 H942 0.960 . S
C956 H943 0.960 . S
C956 C955 1.524 . S
C957 C954 1.403 . S
C957 C958 1.392 . S
C957 C961 1.495 . S
C958 C957 1.392 . S
C958 C959 1.385 . S
C958 C960 1.478 . S
C959 H953 0.930 . S
C959 C955 1.400 . S
C959 C958 1.385 . S
C960 C958 1.478 . S
C960 C962 1.381 . S
C960 C966 1.383 . S
C961 C957 1.495 . S
C961 H967 0.959 . S
C961 H968 0.961 . S
C961 H969 0.960 . S
C962 C960 1.381 . S
C962 C963 1.394 . S
C962 H970 0.930 . S
C963 C962 1.394 . S
C963 C964 1.383 . S
C963 H971 0.929 . S
C964 C963 1.383 . S
C964 C965 1.377 . S
C965 H949 0.930 . S
C965 C964 1.377 . S
C965 C966 1.379 . S
C966 H950 0.931 . S
C966 C960 1.383 . S
C966 C965 1.379 . S
H967 C961 0.959 . S
H968 C961 0.961 . S
H969 C961 0.960 . S
H970 C962 0.930 . S
H971 C963 0.929 . S
H972 C980 0.929 . S
H973 C982 0.930 . S
H974 C984 0.930 . S
H975 C987 0.929 . S
H976 C990 0.930 . S
H977 C992 0.960 . S
H978 C992 0.960 . S
H979 C992 0.960 . S
C980 H972 0.929 . S
C980 C981 1.377 . S
C980 C982 1.384 . S
C981 C980 1.377 . S
C981 C987 1.390 . S
C982 H973 0.930 . S
C982 C980 1.384 . S
C982 C983 1.372 . S
C983 C982 1.372 . S
C983 C984 1.400 . S
C983 C988 1.490 . S
C984 H974 0.930 . S
C984 C983 1.400 . S
C984 C987 1.386 . S
H985 C1001 0.930 . S
H986 C1002 0.931 . S
C987 H975 0.929 . S
C987 C981 1.390 . S
C987 C984 1.386 . S
C988 C983 1.490 . S
C988 C990 1.395 . S
C988 C991 1.403 . S
H989 C995 0.930 . S
C990 H976 0.930 . S
C990 C988 1.395 . S
C990 C993 1.403 . S
C991 C988 1.403 . S
C991 C992 1.524 . S
C991 C995 1.400 . S
C992 H977 0.960 . S
C992 H978 0.960 . S
C992 H979 0.960 . S
C992 C991 1.524 . S
C993 C990 1.403 . S
C993 C994 1.392 . S
C993 C997 1.495 . S
C994 C993 1.392 . S
C994 C995 1.385 . S
C994 C996 1.478 . S
C995 H989 0.930 . S
C995 C991 1.400 . S
C995 C994 1.385 . S
C996 C994 1.478 . S
C996 C998 1.381 . S
C996 C1002 1.383 . S
C997 C993 1.495 . S
C997 H1003 0.959 . S
C997 H1004 0.961 . S
C997 H1005 0.960 . S
C998 C996 1.381 . S
C998 C999 1.394 . S
C998 H1006 0.930 . S
C999 C998 1.394 . S
C999 C1000 1.383 . S
C999 H1007 0.929 . S
C1000 C999 1.383 . S
C1000 C1001 1.377 . S
C1001 H985 0.930 . S
C1001 C1000 1.377 . S
C1001 C1002 1.379 . S
C1002 H986 0.931 . S
C1002 C996 1.383 . S
C1002 C1001 1.379 . S
H1003 C997 0.959 . S
H1004 C997 0.961 . S
H1005 C997 0.960 . S
H1006 C998 0.930 . S
H1007 C999 0.929 . S
H1008 C1016 0.929 . S
H1009 C1018 0.930 . S
H1010 C1020 0.930 . S
H1011 C1023 0.929 . S
H1012 C1026 0.930 . S
H1013 C1028 0.960 . S
H1014 C1028 0.960 . S
H1015 C1028 0.960 . S
C1016 H1008 0.929 . S
C1016 C1017 1.377 . S
C1016 C1018 1.384 . S
C1017 C1016 1.377 . S
C1017 C1023 1.390 . S
C1018 H1009 0.930 . S
C1018 C1016 1.384 . S
C1018 C1019 1.372 . S
C1019 C1018 1.372 . S
C1019 C1020 1.400 . S
C1019 C1024 1.490 . S
C1020 H1010 0.930 . S
C1020 C1019 1.400 . S
C1020 C1023 1.386 . S
H1021 C1037 0.930 . S
H1022 C1038 0.931 . S
C1023 H1011 0.929 . S
C1023 C1017 1.390 . S
C1023 C1020 1.386 . S
C1024 C1019 1.490 . S
C1024 C1026 1.395 . S
C1024 C1027 1.403 . S
H1025 C1031 0.930 . S
C1026 H1012 0.930 . S
C1026 C1024 1.395 . S
C1026 C1029 1.403 . S
C1027 C1024 1.403 . S
C1027 C1028 1.524 . S
C1027 C1031 1.400 . S
C1028 H1013 0.960 . S
C1028 H1014 0.960 . S
C1028 H1015 0.960 . S
C1028 C1027 1.524 . S
C1029 C1026 1.403 . S
C1029 C1030 1.392 . S
C1029 C1033 1.495 . S
C1030 C1029 1.392 . S
C1030 C1031 1.385 . S
C1030 C1032 1.478 . S
C1031 H1025 0.930 . S
C1031 C1027 1.400 . S
C1031 C1030 1.385 . S
C1032 C1030 1.478 . S
C1032 C1034 1.381 . S
C1032 C1038 1.383 . S
C1033 C1029 1.495 . S
C1033 H1039 0.959 . S
C1033 H1040 0.961 . S
C1033 H1041 0.960 . S
C1034 C1032 1.381 . S
C1034 C1035 1.394 . S
C1034 H1042 0.930 . S
C1035 C1034 1.394 . S
C1035 C1036 1.383 . S
C1035 H1043 0.929 . S
C1036 C1035 1.383 . S
C1036 C1037 1.377 . S
C1037 H1021 0.930 . S
C1037 C1036 1.377 . S
C1037 C1038 1.379 . S
C1038 H1022 0.931 . S
C1038 C1032 1.383 . S
C1038 C1037 1.379 . S
H1039 C1033 0.959 . S
H1040 C1033 0.961 . S
H1041 C1033 0.960 . S
H1042 C1034 0.930 . S
H1043 C1035 0.929 . S
H1044 C1052 0.929 . S
H1045 C1054 0.930 . S
H1046 C1056 0.930 . S
H1047 C1059 0.929 . S
H1048 C1062 0.930 . S
H1049 C1064 0.960 . S
H1050 C1064 0.960 . S
H1051 C1064 0.960 . S
C1052 H1044 0.929 . S
C1052 C1053 1.377 . S
C1052 C1054 1.384 . S
C1053 C1052 1.377 . S
C1053 C1059 1.390 . S
C1054 H1045 0.930 . S
C1054 C1052 1.384 . S
C1054 C1055 1.372 . S
C1055 C1054 1.372 . S
C1055 C1056 1.400 . S
C1055 C1060 1.490 . S
C1056 H1046 0.930 . S
C1056 C1055 1.400 . S
C1056 C1059 1.386 . S
H1057 C1073 0.930 . S
H1058 C1074 0.931 . S
C1059 H1047 0.929 . S
C1059 C1053 1.390 . S
C1059 C1056 1.386 . S
C1060 C1055 1.490 . S
C1060 C1062 1.395 . S
C1060 C1063 1.403 . S
H1061 C1067 0.930 . S
C1062 H1048 0.930 . S
C1062 C1060 1.395 . S
C1062 C1065 1.403 . S
C1063 C1060 1.403 . S
C1063 C1064 1.524 . S
C1063 C1067 1.400 . S
C1064 H1049 0.960 . S
C1064 H1050 0.960 . S
C1064 H1051 0.960 . S
C1064 C1063 1.524 . S
C1065 C1062 1.403 . S
C1065 C1066 1.392 . S
C1065 C1069 1.495 . S
C1066 C1065 1.392 . S
C1066 C1067 1.385 . S
C1066 C1068 1.478 . S
C1067 H1061 0.930 . S
C1067 C1063 1.400 . S
C1067 C1066 1.385 . S
C1068 C1066 1.478 . S
C1068 C1070 1.381 . S
C1068 C1074 1.383 . S
C1069 C1065 1.495 . S
C1069 H1075 0.959 . S
C1069 H1076 0.961 . S
C1069 H1077 0.960 . S
C1070 C1068 1.381 . S
C1070 C1071 1.394 . S
C1070 H1078 0.930 . S
C1071 C1070 1.394 . S
C1071 C1072 1.383 . S
C1071 H1079 0.929 . S
C1072 C1071 1.383 . S
C1072 C1073 1.377 . S
C1073 H1057 0.930 . S
C1073 C1072 1.377 . S
C1073 C1074 1.379 . S
C1074 H1058 0.931 . S
C1074 C1068 1.383 . S
C1074 C1073 1.379 . S
H1075 C1069 0.959 . S
H1076 C1069 0.961 . S
H1077 C1069 0.960 . S
H1078 C1070 0.930 . S
H1079 C1071 0.929 . S
H1080 C1088 0.929 . S
H1081 C1090 0.930 . S
H1082 C1092 0.930 . S
H1083 C1095 0.929 . S
H1084 C1098 0.930 . S
H1085 C1100 0.960 . S
H1086 C1100 0.960 . S
H1087 C1100 0.960 . S
C1088 H1080 0.929 . S
C1088 C1089 1.377 . S
C1088 C1090 1.384 1_655 S
C1089 C1088 1.377 . S
C1089 C1095 1.390 1_655 S
C1090 H1081 0.930 . S
C1090 C1088 1.384 1_455 S
C1090 C1091 1.372 . S
C1091 C1090 1.372 . S
C1091 C1092 1.400 . S
C1091 C1096 1.490 . S
C1092 H1082 0.930 . S
C1092 C1091 1.400 . S
C1092 C1095 1.386 . S
H1093 C1109 0.930 . S
H1094 C1110 0.931 . S
C1095 H1083 0.929 . S
C1095 C1089 1.390 1_455 S
C1095 C1092 1.386 . S
C1096 C1091 1.490 . S
C1096 C1098 1.395 . S
C1096 C1099 1.403 . S
H1097 C1103 0.930 . S
C1098 H1084 0.930 . S
C1098 C1096 1.395 . S
C1098 C1101 1.403 . S
C1099 C1096 1.403 . S
C1099 C1100 1.524 . S
C1099 C1103 1.400 . S
C1100 H1085 0.960 . S
C1100 H1086 0.960 . S
C1100 H1087 0.960 . S
C1100 C1099 1.524 . S
C1101 C1098 1.403 . S
C1101 C1102 1.392 . S
C1101 C1105 1.495 . S
C1102 C1101 1.392 . S
C1102 C1103 1.385 . S
C1102 C1104 1.478 . S
C1103 H1097 0.930 . S
C1103 C1099 1.400 . S
C1103 C1102 1.385 . S
C1104 C1102 1.478 . S
C1104 C1106 1.381 . S
C1104 C1110 1.383 . S
C1105 C1101 1.495 . S
C1105 H1111 0.959 . S
C1105 H1112 0.961 . S
C1105 H1113 0.960 . S
C1106 C1104 1.381 . S
C1106 C1107 1.394 . S
C1106 H1114 0.930 . S
C1107 C1106 1.394 . S
C1107 C1108 1.383 . S
C1107 H1115 0.929 . S
C1108 C1107 1.383 . S
C1108 C1109 1.377 . S
C1109 H1093 0.930 . S
C1109 C1108 1.377 . S
C1109 C1110 1.379 . S
C1110 H1094 0.931 . S
C1110 C1104 1.383 . S
C1110 C1109 1.379 . S
H1111 C1105 0.959 . S
H1112 C1105 0.961 . S
H1113 C1105 0.960 . S
H1114 C1106 0.930 . S
H1115 C1107 0.929 . S
H1116 C1124 0.929 . S
H1117 C1126 0.930 . S
H1118 C1128 0.930 . S
H1119 C1131 0.929 . S
H1120 C1134 0.930 . S
H1121 C1136 0.960 . S
H1122 C1136 0.960 . S
H1123 C1136 0.960 . S
C1124 H1116 0.929 . S
C1124 C1125 1.377 . S
C1124 C1126 1.384 . S
C1125 C1124 1.377 . S
C1125 C1131 1.390 . S
C1126 H1117 0.930 . S
C1126 C1124 1.384 . S
C1126 C1127 1.372 . S
C1127 C1126 1.372 . S
C1127 C1128 1.400 . S
C1127 C1132 1.490 . S
C1128 H1118 0.930 . S
C1128 C1127 1.400 . S
C1128 C1131 1.386 . S
H1129 C1145 0.930 . S
H1130 C1146 0.929 . S
C1131 H1119 0.929 . S
C1131 C1125 1.390 . S
C1131 C1128 1.386 . S
C1132 C1127 1.490 . S
C1132 C1134 1.395 . S
C1132 C1135 1.403 . S
H1133 C1139 0.930 . S
C1134 H1120 0.930 . S
C1134 C1132 1.395 . S
C1134 C1137 1.403 . S
C1135 C1132 1.403 . S
C1135 C1136 1.524 . S
C1135 C1139 1.400 . S
C1136 H1121 0.960 . S
C1136 H1122 0.960 . S
C1136 H1123 0.960 . S
C1136 C1135 1.524 . S
C1137 C1134 1.403 . S
C1137 C1138 1.392 . S
C1137 C1141 1.495 . S
C1138 C1137 1.392 . S
C1138 C1139 1.385 . S
C1138 C1140 1.478 . S
C1139 H1133 0.930 . S
C1139 C1135 1.400 . S
C1139 C1138 1.385 . S
C1140 C1138 1.478 . S
C1140 C1142 1.381 1_565 S
C1140 C1146 1.381 . S
C1141 C1137 1.495 . S
C1141 H1147 0.959 . S
C1141 H1148 0.961 . S
C1141 H1149 0.960 . S
C1142 C1140 1.381 1_545 S
C1142 C1143 1.394 . S
C1142 H1150 0.930 . S
C1143 C1142 1.394 . S
C1143 C1144 1.383 . S
C1143 H1151 0.929 . S
C1144 C1143 1.383 . S
C1144 C1145 1.377 . S
C1145 H1129 0.930 . S
C1145 C1144 1.377 . S
C1145 C1146 1.383 1_545 S
C1146 H1130 0.929 . S
C1146 C1140 1.381 . S
C1146 C1145 1.383 1_565 S
H1147 C1141 0.959 . S
H1148 C1141 0.961 . S
H1149 C1141 0.960 . S
H1150 C1142 0.930 . S
H1151 C1143 0.929 . S
H1152 C1160 0.929 . S
H1153 C1162 0.930 . S
H1154 C1164 0.930 . S
H1155 C1167 0.929 . S
H1156 C1170 0.930 1_545 S
H1157 C1172 0.960 . S
H1158 C1172 0.960 . S
H1159 C1172 0.960 . S
C1160 H1152 0.929 . S
C1160 C1161 1.377 . S
C1160 C1162 1.384 . S
C1161 C1160 1.377 . S
C1161 C1167 1.390 . S
C1162 H1153 0.930 . S
C1162 C1160 1.384 . S
C1162 C1163 1.372 . S
C1163 C1162 1.372 . S
C1163 C1164 1.400 . S
C1163 C1168 1.490 1_545 S
C1164 H1154 0.930 . S
C1164 C1163 1.400 . S
C1164 C1167 1.386 . S
H1165 C1181 0.930 . S
H1166 C1182 0.931 . S
C1167 H1155 0.929 . S
C1167 C1161 1.390 . S
C1167 C1164 1.386 . S
C1168 C1163 1.490 1_565 S
C1168 C1170 1.395 . S
C1168 C1171 1.403 . S
H1169 C1175 0.930 . S
C1170 H1156 0.930 1_565 S
C1170 C1168 1.395 . S
C1170 C1173 1.403 . S
C1171 C1168 1.403 . S
C1171 C1172 1.524 . S
C1171 C1175 1.400 . S
C1172 H1157 0.960 . S
C1172 H1158 0.960 . S
C1172 H1159 0.960 . S
C1172 C1171 1.524 . S
C1173 C1170 1.403 . S
C1173 C1174 1.392 . S
C1173 C1177 1.495 . S
C1174 C1173 1.392 . S
C1174 C1175 1.385 . S
C1174 C1176 1.478 . S
C1175 H1169 0.930 . S
C1175 C1171 1.400 . S
C1175 C1174 1.385 . S
C1176 C1174 1.478 . S
C1176 C1178 1.381 . S
C1176 C1182 1.383 . S
C1177 C1173 1.495 . S
C1177 H1183 0.959 . S
C1177 H1184 0.961 . S
C1177 H1185 0.960 . S
C1178 C1176 1.381 . S
C1178 C1179 1.407 . S
C1178 H1186 0.930 . S
C1179 C1178 1.407 . S
C1179 C1180 1.381 1_455 S
C1179 H1187 0.920 1_455 S
C1180 C1179 1.381 1_655 S
C1180 C1181 1.377 1_655 S
C1181 H1165 0.930 . S
C1181 C1180 1.377 1_455 S
C1181 C1182 1.379 . S
C1182 H1166 0.931 . S
C1182 C1176 1.383 . S
C1182 C1181 1.379 . S
H1183 C1177 0.959 . S
H1184 C1177 0.961 . S
H1185 C1177 0.960 . S
H1186 C1178 0.930 . S
H1187 C1179 0.920 1_655 S
H1188 C1196 0.929 . S
H1189 C1198 0.930 . S
H1190 C1200 0.927 1_565 S
H1191 C1203 0.932 . S
H1192 C1206 0.930 . S
H1193 C1208 0.960 . S
H1194 C1208 0.960 . S
H1195 C1208 0.960 . S
C1196 H1188 0.929 . S
C1196 C1197 1.377 . S
C1196 C1198 1.384 . S
C1197 C1196 1.377 . S
C1197 C1203 1.387 1_545 S
C1198 H1189 0.930 . S
C1198 C1196 1.384 . S
C1198 C1199 1.372 . S
C1199 C1198 1.372 . S
C1199 C1200 1.403 . S
C1199 C1204 1.490 . S
C1200 H1190 0.927 1_545 S
C1200 C1199 1.403 . S
C1200 C1203 1.386 1_545 S
H1201 C1217 0.930 . S
H1202 C1218 0.931 . S
C1203 H1191 0.932 . S
C1203 C1197 1.387 1_565 S
C1203 C1200 1.386 1_565 S
C1204 C1199 1.490 . S
C1204 C1206 1.395 . S
C1204 C1207 1.403 . S
H1205 C1211 0.930 . S
C1206 H1192 0.930 . S
C1206 C1204 1.395 . S
C1206 C1209 1.403 1_554 S
C1207 C1204 1.403 . S
C1207 C1208 1.524 . S
C1207 C1211 1.400 1_554 S
C1208 H1193 0.960 . S
C1208 H1194 0.960 . S
C1208 H1195 0.960 . S
C1208 C1207 1.524 . S
C1209 C1206 1.403 1_556 S
C1209 C1210 1.392 . S
C1209 C1213 1.495 . S
C1210 C1209 1.392 . S
C1210 C1211 1.385 . S
C1210 C1212 1.478 . S
C1211 H1205 0.930 . S
C1211 C1207 1.400 1_556 S
C1211 C1210 1.385 . S
C1212 C1210 1.478 . S
C1212 C1214 1.381 . S
C1212 C1218 1.383 1_545 S
C1213 C1209 1.495 . S
C1213 H1219 0.959 . S
C1213 H1220 0.961 1_545 S
C1213 H1221 0.960 . S
C1214 C1212 1.381 . S
C1214 C1215 1.394 . S
C1214 H1222 0.930 . S
C1215 C1214 1.394 . S
C1215 C1216 1.383 . S
C1215 H1223 0.929 . S
C1216 C1215 1.383 . S
C1216 C1217 1.377 1_545 S
C1217 H1201 0.930 . S
C1217 C1216 1.377 1_565 S
C1217 C1218 1.379 . S
C1218 H1202 0.931 . S
C1218 C1212 1.383 1_565 S
C1218 C1217 1.379 . S
H1219 C1213 0.959 . S
H1220 C1213 0.961 1_565 S
H1221 C1213 0.960 . S
H1222 C1214 0.930 . S
H1223 C1215 0.929 . S
H1224 C1232 0.929 . S
H1225 C1234 0.930 . S
H1226 C1236 0.930 . S
H1227 C1239 0.929 . S
H1228 C1242 0.930 . S
H1229 C1244 0.960 . S
H1230 C1244 0.960 . S
H1231 C1244 0.960 . S
C1232 H1224 0.929 . S
C1232 C1233 1.377 1_655 S
C1232 C1234 1.384 . S
C1233 C1232 1.377 1_455 S
C1233 C1239 1.390 . S
C1234 H1225 0.930 . S
C1234 C1232 1.384 . S
C1234 C1235 1.372 1_655 S
C1235 C1234 1.372 1_455 S
C1235 C1236 1.400 . S
C1235 C1240 1.490 . S
C1236 H1226 0.930 . S
C1236 C1235 1.400 . S
C1236 C1239 1.386 . S
H1237 C1253 0.930 . S
H1238 C1254 0.931 . S
C1239 H1227 0.929 . S
C1239 C1233 1.390 . S
C1239 C1236 1.386 . S
C1240 C1235 1.490 . S
C1240 C1242 1.395 1_455 S
C1240 C1243 1.403 . S
H1241 C1247 0.930 . S
C1242 H1228 0.930 . S
C1242 C1240 1.395 1_655 S
C1242 C1245 1.403 1_556 S
C1243 C1240 1.403 . S
C1243 C1244 1.524 . S
C1243 C1247 1.400 1_556 S
C1244 H1229 0.960 . S
C1244 H1230 0.960 . S
C1244 H1231 0.960 . S
C1244 C1243 1.524 . S
C1245 C1242 1.403 1_554 S
C1245 C1246 1.392 1_655 S
C1245 C1249 1.495 . S
C1246 C1245 1.392 1_455 S
C1246 C1247 1.385 . S
C1246 C1248 1.478 . S
C1247 H1241 0.930 . S
C1247 C1243 1.400 1_554 S
C1247 C1246 1.385 . S
C1248 C1246 1.478 . S
C1248 C1250 1.381 1_455 S
C1248 C1254 1.383 . S
C1249 C1245 1.495 . S
C1249 H1255 0.959 . S
C1249 H1256 0.961 . S
C1249 H1257 0.960 . S
C1250 C1248 1.381 1_655 S
C1250 C1251 1.394 . S
C1250 H1258 0.930 . S
C1251 C1250 1.394 . S
C1251 C1252 1.383 1_655 S
C1251 H1259 0.929 . S
C1252 C1251 1.383 1_455 S
C1252 C1253 1.377 . S
C1253 H1237 0.930 . S
C1253 C1252 1.377 . S
C1253 C1254 1.379 . S
C1254 H1238 0.931 . S
C1254 C1248 1.383 . S
C1254 C1253 1.379 . S
H1255 C1249 0.959 . S
H1256 C1249 0.961 . S
H1257 C1249 0.960 . S
H1258 C1250 0.930 . S
H1259 C1251 0.929 . S
H1260 C1268 0.929 . S
H1261 C1270 0.930 . S
H1262 C1272 0.930 . S
H1263 C1275 0.929 . S
H1264 C1278 0.930 . S
H1265 C1280 0.960 . S
H1266 C1280 0.960 . S
H1267 C1280 0.960 . S
C1268 H1260 0.929 . S
C1268 C1269 1.377 . S
C1268 C1270 1.384 . S
C1269 C1268 1.377 . S
C1269 C1275 1.390 . S
C1270 H1261 0.930 . S
C1270 C1268 1.384 . S
C1270 C1271 1.372 . S
C1271 C1270 1.372 . S
C1271 C1272 1.400 . S
C1271 C1276 1.490 . S
C1272 H1262 0.930 . S
C1272 C1271 1.400 . S
C1272 C1275 1.386 . S
H1273 C1289 0.930 . S
H1274 C1290 0.931 . S
C1275 H1263 0.929 . S
C1275 C1269 1.390 . S
C1275 C1272 1.386 . S
C1276 C1271 1.490 . S
C1276 C1278 1.395 . S
C1276 C1279 1.403 . S
H1277 C1283 0.930 . S
C1278 H1264 0.930 . S
C1278 C1276 1.395 . S
C1278 C1281 1.403 1_556 S
C1279 C1276 1.403 . S
C1279 C1280 1.524 . S
C1279 C1283 1.400 1_556 S
C1280 H1265 0.960 . S
C1280 H1266 0.960 . S
C1280 H1267 0.960 . S
C1280 C1279 1.524 . S
C1281 C1278 1.403 1_554 S
C1281 C1282 1.392 . S
C1281 C1285 1.495 . S
C1282 C1281 1.392 . S
C1282 C1283 1.385 . S
C1282 C1284 1.478 . S
C1283 H1277 0.930 . S
C1283 C1279 1.400 1_554 S
C1283 C1282 1.385 . S
C1284 C1282 1.478 . S
C1284 C1286 1.381 . S
C1284 C1290 1.383 . S
C1285 C1281 1.495 . S
C1285 H1291 0.959 . S
C1285 H1292 0.961 . S
C1285 H1293 0.960 . S
C1286 C1284 1.381 . S
C1286 C1287 1.394 . S
C1286 H1294 0.930 . S
C1287 C1286 1.394 . S
C1287 C1288 1.383 . S
C1287 H1295 0.929 . S
C1288 C1287 1.383 . S
C1288 C1289 1.377 . S
C1289 H1273 0.930 . S
C1289 C1288 1.377 . S
C1289 C1290 1.379 . S
C1290 H1274 0.931 . S
C1290 C1284 1.383 . S
C1290 C1289 1.379 . S
H1291 C1285 0.959 . S
H1292 C1285 0.961 . S
H1293 C1285 0.960 . S
H1294 C1286 0.930 . S
H1295 C1287 0.929 . S
H1296 C1304 0.929 . S
H1297 C1306 0.930 . S
H1298 C1308 0.930 . S
H1299 C1311 0.929 . S
H1300 C1314 0.930 . S
H1301 C1316 0.960 . S
H1302 C1316 0.960 . S
H1303 C1316 0.960 . S
C1304 H1296 0.929 . S
C1304 C1305 1.377 . S
C1304 C1306 1.384 . S
C1305 C1304 1.377 . S
C1305 C1311 1.390 . S
C1306 H1297 0.930 . S
C1306 C1304 1.384 . S
C1306 C1307 1.372 . S
C1307 C1306 1.372 . S
C1307 C1308 1.400 . S
C1307 C1312 1.490 . S
C1308 H1298 0.930 . S
C1308 C1307 1.400 . S
C1308 C1311 1.386 . S
H1309 C1325 0.930 . S
H1310 C1326 0.931 . S
C1311 H1299 0.929 . S
C1311 C1305 1.390 . S
C1311 C1308 1.386 . S
C1312 C1307 1.490 . S
C1312 C1314 1.395 . S
C1312 C1315 1.403 . S
H1313 C1319 0.930 . S
C1314 H1300 0.930 . S
C1314 C1312 1.395 . S
C1314 C1317 1.403 . S
C1315 C1312 1.403 . S
C1315 C1316 1.524 . S
C1315 C1319 1.400 . S
C1316 H1301 0.960 . S
C1316 H1302 0.960 . S
C1316 H1303 0.960 . S
C1316 C1315 1.524 . S
C1317 C1314 1.403 . S
C1317 C1318 1.392 . S
C1317 C1321 1.495 . S
C1318 C1317 1.392 . S
C1318 C1319 1.385 . S
C1318 C1320 1.478 . S
C1319 H1313 0.930 . S
C1319 C1315 1.400 . S
C1319 C1318 1.385 . S
C1320 C1318 1.478 . S
C1320 C1322 1.381 . S
C1320 C1326 1.383 . S
C1321 C1317 1.495 . S
C1321 H1327 0.959 . S
C1321 H1328 0.961 . S
C1321 H1329 0.960 . S
C1322 C1320 1.381 . S
C1322 C1323 1.394 . S
C1322 H1330 0.930 . S
C1323 C1322 1.394 . S
C1323 C1324 1.383 . S
C1323 H1331 0.929 . S
C1324 C1323 1.383 . S
C1324 C1325 1.377 . S
C1325 H1309 0.930 . S
C1325 C1324 1.377 . S
C1325 C1326 1.379 . S
C1326 H1310 0.931 . S
C1326 C1320 1.383 . S
C1326 C1325 1.379 . S
H1327 C1321 0.959 . S
H1328 C1321 0.961 . S
H1329 C1321 0.960 . S
H1330 C1322 0.930 . S
H1331 C1323 0.929 . S
H1332 C1340 0.929 . S
H1333 C1342 0.930 . S
H1334 C1344 0.930 . S
H1335 C1347 0.929 . S
H1336 C1350 0.930 . S
H1337 C1352 0.960 . S
H1338 C1352 0.960 . S
H1339 C1352 0.960 . S
C1340 H1332 0.929 . S
C1340 C1341 1.377 . S
C1340 C1342 1.384 . S
C1341 C1340 1.377 . S
C1341 C1347 1.390 . S
C1342 H1333 0.930 . S
C1342 C1340 1.384 . S
C1342 C1343 1.372 . S
C1343 C1342 1.372 . S
C1343 C1344 1.400 . S
C1343 C1348 1.490 . S
C1344 H1334 0.930 . S
C1344 C1343 1.400 . S
C1344 C1347 1.386 . S
H1345 C1361 0.930 . S
H1346 C1362 0.931 . S
C1347 H1335 0.929 . S
C1347 C1341 1.390 . S
C1347 C1344 1.386 . S
C1348 C1343 1.490 . S
C1348 C1350 1.395 . S
C1348 C1351 1.403 . S
H1349 C1355 0.930 . S
C1350 H1336 0.930 . S
C1350 C1348 1.395 . S
C1350 C1353 1.403 . S
C1351 C1348 1.403 . S
C1351 C1352 1.524 . S
C1351 C1355 1.400 . S
C1352 H1337 0.960 . S
C1352 H1338 0.960 . S
C1352 H1339 0.960 . S
C1352 C1351 1.524 . S
C1353 C1350 1.403 . S
C1353 C1354 1.392 . S
C1353 C1357 1.495 . S
C1354 C1353 1.392 . S
C1354 C1355 1.385 . S
C1354 C1356 1.478 . S
C1355 H1349 0.930 . S
C1355 C1351 1.400 . S
C1355 C1354 1.385 . S
C1356 C1354 1.478 . S
C1356 C1358 1.381 . S
C1356 C1362 1.383 . S
C1357 C1353 1.495 . S
C1357 H1363 0.959 . S
C1357 H1364 0.961 . S
C1357 H1365 0.960 . S
C1358 C1356 1.381 . S
C1358 C1359 1.394 . S
C1358 H1366 0.930 . S
C1359 C1358 1.394 . S
C1359 C1360 1.383 . S
C1359 H1367 0.929 . S
C1360 C1359 1.383 . S
C1360 C1361 1.377 . S
C1361 H1345 0.930 . S
C1361 C1360 1.377 . S
C1361 C1362 1.379 . S
C1362 H1346 0.931 . S
C1362 C1356 1.383 . S
C1362 C1361 1.379 . S
H1363 C1357 0.959 . S
H1364 C1357 0.961 . S
H1365 C1357 0.960 . S
H1366 C1358 0.930 . S
H1367 C1359 0.929 . S
H1368 C1376 0.929 . S
H1369 C1378 0.930 . S
H1370 C1380 0.930 . S
H1371 C1383 0.929 . S
H1372 C1386 0.930 . S
H1373 C1388 0.960 . S
H1374 C1388 0.960 . S
H1375 C1388 0.960 . S
C1376 H1368 0.929 . S
C1376 C1377 1.377 . S
C1376 C1378 1.384 . S
C1377 C1376 1.377 . S
C1377 C1383 1.390 . S
C1378 H1369 0.930 . S
C1378 C1376 1.384 . S
C1378 C1379 1.372 . S
C1379 C1378 1.372 . S
C1379 C1380 1.400 . S
C1379 C1384 1.490 . S
C1380 H1370 0.930 . S
C1380 C1379 1.400 . S
C1380 C1383 1.386 . S
H1381 C1397 0.930 . S
H1382 C1398 0.931 . S
C1383 H1371 0.929 . S
C1383 C1377 1.390 . S
C1383 C1380 1.386 . S
C1384 C1379 1.490 . S
C1384 C1386 1.395 . S
C1384 C1387 1.403 . S
H1385 C1391 0.930 . S
C1386 H1372 0.930 . S
C1386 C1384 1.395 . S
C1386 C1389 1.403 . S
C1387 C1384 1.403 . S
C1387 C1388 1.524 . S
C1387 C1391 1.400 . S
C1388 H1373 0.960 . S
C1388 H1374 0.960 . S
C1388 H1375 0.960 . S
C1388 C1387 1.524 . S
C1389 C1386 1.403 . S
C1389 C1390 1.392 . S
C1389 C1393 1.495 . S
C1390 C1389 1.392 . S
C1390 C1391 1.385 . S
C1390 C1392 1.478 . S
C1391 H1385 0.930 . S
C1391 C1387 1.400 . S
C1391 C1390 1.385 . S
C1392 C1390 1.478 . S
C1392 C1394 1.381 . S
C1392 C1398 1.383 . S
C1393 C1389 1.495 . S
C1393 H1399 0.959 . S
C1393 H1400 0.961 . S
C1393 H1401 0.960 . S
C1394 C1392 1.381 . S
C1394 C1395 1.394 . S
C1394 H1402 0.930 . S
C1395 C1394 1.394 . S
C1395 C1396 1.383 . S
C1395 H1403 0.929 . S
C1396 C1395 1.383 . S
C1396 C1397 1.377 . S
C1397 H1381 0.930 . S
C1397 C1396 1.377 . S
C1397 C1398 1.379 . S
C1398 H1382 0.931 . S
C1398 C1392 1.383 . S
C1398 C1397 1.379 . S
H1399 C1393 0.959 . S
H1400 C1393 0.961 . S
H1401 C1393 0.960 . S
H1402 C1394 0.930 . S
H1403 C1395 0.929 . S
H1404 C1412 0.929 . S
H1405 C1414 0.930 . S
H1406 C1416 0.930 . S
H1407 C1419 0.929 . S
H1408 C1422 0.930 . S
H1409 C1424 0.960 . S
H1410 C1424 0.960 . S
H1411 C1424 0.960 . S
C1412 H1404 0.929 . S
C1412 C1413 1.377 . S
C1412 C1414 1.384 . S
C1413 C1412 1.377 . S
C1413 C1419 1.390 . S
C1414 H1405 0.930 . S
C1414 C1412 1.384 . S
C1414 C1415 1.372 . S
C1415 C1414 1.372 . S
C1415 C1416 1.400 . S
C1415 C1420 1.490 . S
C1416 H1406 0.930 . S
C1416 C1415 1.400 . S
C1416 C1419 1.386 . S
H1417 C1433 0.930 . S
H1418 C1434 0.931 . S
C1419 H1407 0.929 . S
C1419 C1413 1.390 . S
C1419 C1416 1.386 . S
C1420 C1415 1.490 . S
C1420 C1422 1.395 . S
C1420 C1423 1.403 . S
H1421 C1427 0.930 . S
C1422 H1408 0.930 . S
C1422 C1420 1.395 . S
C1422 C1425 1.403 . S
C1423 C1420 1.403 . S
C1423 C1424 1.524 . S
C1423 C1427 1.400 . S
C1424 H1409 0.960 . S
C1424 H1410 0.960 . S
C1424 H1411 0.960 . S
C1424 C1423 1.524 . S
C1425 C1422 1.403 . S
C1425 C1426 1.392 . S
C1425 C1429 1.495 . S
C1426 C1425 1.392 . S
C1426 C1427 1.385 . S
C1426 C1428 1.478 . S
C1427 H1421 0.930 . S
C1427 C1423 1.400 . S
C1427 C1426 1.385 . S
C1428 C1426 1.478 . S
C1428 C1430 1.381 . S
C1428 C1434 1.383 . S
C1429 C1425 1.495 . S
C1429 H1435 0.959 . S
C1429 H1436 0.961 . S
C1429 H1437 0.960 . S
C1430 C1428 1.381 . S
C1430 C1431 1.394 . S
C1430 H1438 0.930 . S
C1431 C1430 1.394 . S
C1431 C1432 1.383 . S
C1431 H1439 0.929 . S
C1432 C1431 1.383 . S
C1432 C1433 1.377 . S
C1433 H1417 0.930 . S
C1433 C1432 1.377 . S
C1433 C1434 1.379 . S
C1434 H1418 0.931 . S
C1434 C1428 1.383 . S
C1434 C1433 1.379 . S
H1435 C1429 0.959 . S
H1436 C1429 0.961 . S
H1437 C1429 0.960 . S
H1438 C1430 0.930 . S
H1439 C1431 0.929 . S
H1440 C1448 0.929 . S
H1441 C1450 0.930 . S
H1442 C1452 0.930 . S
H1443 C1455 0.929 . S
H1444 C1458 0.930 . S
H1445 C1460 0.960 . S
H1446 C1460 0.960 . S
H1447 C1460 0.960 . S
C1448 H1440 0.929 . S
C1448 C1449 1.377 . S
C1448 C1450 1.384 . S
C1449 C1448 1.377 . S
C1449 C1455 1.390 . S
C1450 H1441 0.930 . S
C1450 C1448 1.384 . S
C1450 C1451 1.372 . S
C1451 C1450 1.372 . S
C1451 C1452 1.400 . S
C1451 C1456 1.490 . S
C1452 H1442 0.930 . S
C1452 C1451 1.400 . S
C1452 C1455 1.386 . S
H1453 C1469 0.930 . S
H1454 C1470 0.931 . S
C1455 H1443 0.929 . S
C1455 C1449 1.390 . S
C1455 C1452 1.386 . S
C1456 C1451 1.490 . S
C1456 C1458 1.395 . S
C1456 C1459 1.403 . S
H1457 C1463 0.930 . S
C1458 H1444 0.930 . S
C1458 C1456 1.395 . S
C1458 C1461 1.403 . S
C1459 C1456 1.403 . S
C1459 C1460 1.524 . S
C1459 C1463 1.400 . S
C1460 H1445 0.960 . S
C1460 H1446 0.960 . S
C1460 H1447 0.960 . S
C1460 C1459 1.524 . S
C1461 C1458 1.403 . S
C1461 C1462 1.392 . S
C1461 C1465 1.495 . S
C1462 C1461 1.392 . S
C1462 C1463 1.385 . S
C1462 C1464 1.478 . S
C1463 H1457 0.930 . S
C1463 C1459 1.400 . S
C1463 C1462 1.385 . S
C1464 C1462 1.478 . S
C1464 C1466 1.381 . S
C1464 C1470 1.383 . S
C1465 C1461 1.495 . S
C1465 H1471 0.959 . S
C1465 H1472 0.961 . S
C1465 H1473 0.960 . S
C1466 C1464 1.381 . S
C1466 C1467 1.394 . S
C1466 H1474 0.930 . S
C1467 C1466 1.394 . S
C1467 C1468 1.383 . S
C1467 H1475 0.929 . S
C1468 C1467 1.383 . S
C1468 C1469 1.377 . S
C1469 H1453 0.930 . S
C1469 C1468 1.377 . S
C1469 C1470 1.379 . S
C1470 H1454 0.931 . S
C1470 C1464 1.383 . S
C1470 C1469 1.379 . S
H1471 C1465 0.959 . S
H1472 C1465 0.961 . S
H1473 C1465 0.960 . S
H1474 C1466 0.930 . S
H1475 C1467 0.929 . S
H1476 C1484 0.929 . S
H1477 C1486 0.930 . S
H1478 C1488 0.930 . S
H1479 C1491 0.929 . S
H1480 C1494 0.930 . S
H1481 C1496 0.960 . S
H1482 C1496 0.960 . S
H1483 C1496 0.960 . S
C1484 H1476 0.929 . S
C1484 C1485 1.377 . S
C1484 C1486 1.384 . S
C1485 C1484 1.377 . S
C1485 C1491 1.390 . S
C1486 H1477 0.930 . S
C1486 C1484 1.384 . S
C1486 C1487 1.372 . S
C1487 C1486 1.372 . S
C1487 C1488 1.400 . S
C1487 C1492 1.490 . S
C1488 H1478 0.930 . S
C1488 C1487 1.400 . S
C1488 C1491 1.386 . S
H1489 C1505 0.930 . S
H1490 C1506 0.931 . S
C1491 H1479 0.929 . S
C1491 C1485 1.390 . S
C1491 C1488 1.386 . S
C1492 C1487 1.490 . S
C1492 C1494 1.395 . S
C1492 C1495 1.403 . S
H1493 C1499 0.930 . S
C1494 H1480 0.930 . S
C1494 C1492 1.395 . S
C1494 C1497 1.403 . S
C1495 C1492 1.403 . S
C1495 C1496 1.524 . S
C1495 C1499 1.400 . S
C1496 H1481 0.960 . S
C1496 H1482 0.960 . S
C1496 H1483 0.960 . S
C1496 C1495 1.524 . S
C1497 C1494 1.403 . S
C1497 C1498 1.392 . S
C1497 C1501 1.495 . S
C1498 C1497 1.392 . S
C1498 C1499 1.385 . S
C1498 C1500 1.478 . S
C1499 H1493 0.930 . S
C1499 C1495 1.400 . S
C1499 C1498 1.385 . S
C1500 C1498 1.478 . S
C1500 C1502 1.381 . S
C1500 C1506 1.383 . S
C1501 C1497 1.495 . S
C1501 H1507 0.959 . S
C1501 H1508 0.961 . S
C1501 H1509 0.960 . S
C1502 C1500 1.381 . S
C1502 C1503 1.394 . S
C1502 H1510 0.930 . S
C1503 C1502 1.394 . S
C1503 C1504 1.383 . S
C1503 H1511 0.929 . S
C1504 C1503 1.383 . S
C1504 C1505 1.377 . S
C1505 H1489 0.930 . S
C1505 C1504 1.377 . S
C1505 C1506 1.379 . S
C1506 H1490 0.931 . S
C1506 C1500 1.383 . S
C1506 C1505 1.379 . S
H1507 C1501 0.959 . S
H1508 C1501 0.961 . S
H1509 C1501 0.960 . S
H1510 C1502 0.930 . S
H1511 C1503 0.929 . S
H1512 C1520 0.929 . S
H1513 C1522 0.930 . S
H1514 C1524 0.930 . S
H1515 C1527 0.929 . S
H1516 C1530 0.930 . S
H1517 C1532 0.960 . S
H1518 C1532 0.960 . S
H1519 C1532 0.960 . S
C1520 H1512 0.929 . S
C1520 C1521 1.377 . S
C1520 C1522 1.384 . S
C1521 C1520 1.377 . S
C1521 C1527 1.390 . S
C1522 H1513 0.930 . S
C1522 C1520 1.384 . S
C1522 C1523 1.372 . S
C1523 C1522 1.372 . S
C1523 C1524 1.400 . S
C1523 C1528 1.490 . S
C1524 H1514 0.930 . S
C1524 C1523 1.400 . S
C1524 C1527 1.386 . S
H1525 C1541 0.930 . S
H1526 C1542 0.931 . S
C1527 H1515 0.929 . S
C1527 C1521 1.390 . S
C1527 C1524 1.386 . S
C1528 C1523 1.490 . S
C1528 C1530 1.395 . S
C1528 C1531 1.403 . S
H1529 C1535 0.930 . S
C1530 H1516 0.930 . S
C1530 C1528 1.395 . S
C1530 C1533 1.403 . S
C1531 C1528 1.403 . S
C1531 C1532 1.524 . S
C1531 C1535 1.400 . S
C1532 H1517 0.960 . S
C1532 H1518 0.960 . S
C1532 H1519 0.960 . S
C1532 C1531 1.524 . S
C1533 C1530 1.403 . S
C1533 C1534 1.392 . S
C1533 C1537 1.495 1_565 S
C1534 C1533 1.392 . S
C1534 C1535 1.385 . S
C1534 C1536 1.478 . S
C1535 H1529 0.930 . S
C1535 C1531 1.400 . S
C1535 C1534 1.385 . S
C1536 C1534 1.478 . S
C1536 C1538 1.381 . S
C1536 C1542 1.383 . S
C1537 C1533 1.495 1_545 S
C1537 H1543 0.959 . S
C1537 H1544 0.961 . S
C1537 H1545 0.960 . S
C1538 C1536 1.381 . S
C1538 C1539 1.394 1_565 S
C1538 H1546 0.930 1_565 S
C1539 C1538 1.394 1_545 S
C1539 C1540 1.383 1_545 S
C1539 H1547 0.929 . S
C1540 C1539 1.383 1_565 S
C1540 C1541 1.377 . S
C1541 H1525 0.930 . S
C1541 C1540 1.377 . S
C1541 C1542 1.379 . S
C1542 H1526 0.931 . S
C1542 C1536 1.383 . S
C1542 C1541 1.379 . S
H1543 C1537 0.959 . S
H1544 C1537 0.961 . S
H1545 C1537 0.960 . S
H1546 C1538 0.930 1_545 S
H1547 C1539 0.929 . S
H1548 C1556 0.929 . S
H1549 C1558 0.930 . S
H1550 C1560 0.930 . S
H1551 C1563 0.929 . S
H1552 C1566 0.930 . S
H1553 C1568 0.960 . S
H1554 C1568 0.960 . S
H1555 C1568 0.960 . S
C1556 H1548 0.929 . S
C1556 C1557 1.377 . S
C1556 C1558 1.384 . S
C1557 C1556 1.377 . S
C1557 C1563 1.390 . S
C1558 H1549 0.930 . S
C1558 C1556 1.384 . S
C1558 C1559 1.372 . S
C1559 C1558 1.372 . S
C1559 C1560 1.400 . S
C1559 C1564 1.490 . S
C1560 H1550 0.930 . S
C1560 C1559 1.400 . S
C1560 C1563 1.386 . S
H1561 C1577 0.930 . S
H1562 C1578 0.931 . S
C1563 H1551 0.929 . S
C1563 C1557 1.390 . S
C1563 C1560 1.386 . S
C1564 C1559 1.490 . S
C1564 C1566 1.395 . S
C1564 C1567 1.403 . S
H1565 C1571 0.930 . S
C1566 H1552 0.930 . S
C1566 C1564 1.395 . S
C1566 C1569 1.403 . S
C1567 C1564 1.403 . S
C1567 C1568 1.524 . S
C1567 C1571 1.400 . S
C1568 H1553 0.960 . S
C1568 H1554 0.960 . S
C1568 H1555 0.960 . S
C1568 C1567 1.524 . S
C1569 C1566 1.403 . S
C1569 C1570 1.392 . S
C1569 C1573 1.495 . S
C1570 C1569 1.392 . S
C1570 C1571 1.385 . S
C1570 C1572 1.478 . S
C1571 H1565 0.930 . S
C1571 C1567 1.400 . S
C1571 C1570 1.385 . S
C1572 C1570 1.478 . S
C1572 C1574 1.381 . S
C1572 C1578 1.383 . S
C1573 C1569 1.495 . S
C1573 H1579 0.959 . S
C1573 H1580 0.961 . S
C1573 H1581 0.960 . S
C1574 C1572 1.381 . S
C1574 C1575 1.394 . S
C1574 H1582 0.930 . S
C1575 C1574 1.394 . S
C1575 C1576 1.383 . S
C1575 H1583 0.929 . S
C1576 C1575 1.383 . S
C1576 C1577 1.377 . S
C1577 H1561 0.930 . S
C1577 C1576 1.377 . S
C1577 C1578 1.379 . S
C1578 H1562 0.931 . S
C1578 C1572 1.383 . S
C1578 C1577 1.379 . S
H1579 C1573 0.959 . S
H1580 C1573 0.961 . S
H1581 C1573 0.960 . S
H1582 C1574 0.930 . S
H1583 C1575 0.929 . S
H1584 C1592 0.929 . S
H1585 C1594 0.930 . S
H1586 C1596 0.930 . S
H1587 C1599 0.929 . S
H1588 C1602 0.930 . S
H1589 C1604 0.960 . S
H1590 C1604 0.960 . S
H1591 C1604 0.960 . S
C1592 H1584 0.929 . S
C1592 C1593 1.377 . S
C1592 C1594 1.384 . S
C1593 C1592 1.377 . S
C1593 C1599 1.390 . S
C1594 H1585 0.930 . S
C1594 C1592 1.384 . S
C1594 C1595 1.372 . S
C1595 C1594 1.372 . S
C1595 C1596 1.400 . S
C1595 C1600 1.490 . S
C1596 H1586 0.930 . S
C1596 C1595 1.400 . S
C1596 C1599 1.386 . S
H1597 C1613 0.930 . S
H1598 C1614 0.931 . S
C1599 H1587 0.929 . S
C1599 C1593 1.390 . S
C1599 C1596 1.386 . S
C1600 C1595 1.490 . S
C1600 C1602 1.395 . S
C1600 C1603 1.403 . S
H1601 C1607 0.930 . S
C1602 H1588 0.930 . S
C1602 C1600 1.395 . S
C1602 C1605 1.403 . S
C1603 C1600 1.403 . S
C1603 C1604 1.524 . S
C1603 C1607 1.400 . S
C1604 H1589 0.960 . S
C1604 H1590 0.960 . S
C1604 H1591 0.960 . S
C1604 C1603 1.524 . S
C1605 C1602 1.403 . S
C1605 C1606 1.392 . S
C1605 C1609 1.495 . S
C1606 C1605 1.392 . S
C1606 C1607 1.385 . S
C1606 C1608 1.478 . S
C1607 H1601 0.930 . S
C1607 C1603 1.400 . S
C1607 C1606 1.385 . S
C1608 C1606 1.478 . S
C1608 C1610 1.381 . S
C1608 C1614 1.383 . S
C1609 C1605 1.495 . S
C1609 H1615 0.959 . S
C1609 H1616 0.961 . S
C1609 H1617 0.960 . S
C1610 C1608 1.381 . S
C1610 C1611 1.394 . S
C1610 H1618 0.930 . S
C1611 C1610 1.394 . S
C1611 C1612 1.383 . S
C1611 H1619 0.929 . S
C1612 C1611 1.383 . S
C1612 C1613 1.377 . S
C1613 H1597 0.930 . S
C1613 C1612 1.377 . S
C1613 C1614 1.379 . S
C1614 H1598 0.931 . S
C1614 C1608 1.383 . S
C1614 C1613 1.379 . S
H1615 C1609 0.959 . S
H1616 C1609 0.961 . S
H1617 C1609 0.960 . S
H1618 C1610 0.930 . S
H1619 C1611 0.929 . S
H1620 C1628 0.929 . S
H1621 C1630 0.930 . S
H1622 C1632 0.930 1_455 S
H1623 C1635 0.929 . S
H1624 C1638 0.930 . S
H1625 C1640 0.960 . S
H1626 C1640 0.960 . S
H1627 C1640 0.960 . S
C1628 H1620 0.929 . S
C1628 C1629 1.377 . S
C1628 C1630 1.384 . S
C1629 C1628 1.377 . S
C1629 C1635 1.390 1_655 S
C1630 H1621 0.930 . S
C1630 C1628 1.384 . S
C1630 C1631 1.372 . S
C1631 C1630 1.372 . S
C1631 C1632 1.400 . S
C1631 C1636 1.490 . S
C1632 H1622 0.930 1_655 S
C1632 C1631 1.400 . S
C1632 C1635 1.386 1_655 S
H1633 C1649 0.930 . S
H1634 C1650 0.931 . S
C1635 H1623 0.929 . S
C1635 C1629 1.390 1_455 S
C1635 C1632 1.386 1_455 S
C1636 C1631 1.490 . S
C1636 C1638 1.395 . S
C1636 C1639 1.403 . S
H1637 C1643 0.930 . S
C1638 H1624 0.930 . S
C1638 C1636 1.395 . S
C1638 C1641 1.403 . S
C1639 C1636 1.403 . S
C1639 C1640 1.524 1_655 S
C1639 C1643 1.400 . S
C1640 H1625 0.960 . S
C1640 H1626 0.960 . S
C1640 H1627 0.960 . S
C1640 C1639 1.524 1_455 S
C1641 C1638 1.403 . S
C1641 C1642 1.392 . S
C1641 C1645 1.495 . S
C1642 C1641 1.392 . S
C1642 C1643 1.385 . S
C1642 C1644 1.478 . S
C1643 H1637 0.930 . S
C1643 C1639 1.400 . S
C1643 C1642 1.385 . S
C1644 C1642 1.478 . S
C1644 C1646 1.381 . S
C1644 C1650 1.383 . S
C1645 C1641 1.495 . S
C1645 H1651 0.959 . S
C1645 H1652 0.961 . S
C1645 H1653 0.960 . S
C1646 C1644 1.381 . S
C1646 C1647 1.394 . S
C1646 H1654 0.930 . S
C1647 C1646 1.394 . S
C1647 C1648 1.383 . S
C1647 H1655 0.929 . S
C1648 C1647 1.383 . S
C1648 C1649 1.377 . S
C1649 H1633 0.930 . S
C1649 C1648 1.377 . S
C1649 C1650 1.379 . S
C1650 H1634 0.931 . S
C1650 C1644 1.383 . S
C1650 C1649 1.379 . S
H1651 C1645 0.959 . S
H1652 C1645 0.961 . S
H1653 C1645 0.960 . S
H1654 C1646 0.930 . S
H1655 C1647 0.929 . S
H1656 C1664 0.929 . S
H1657 C1666 0.930 . S
H1658 C1668 0.930 . S
H1659 C1671 0.929 . S
H1660 C1674 0.930 . S
H1661 C1676 0.960 . S
H1662 C1676 0.960 . S
H1663 C1676 0.960 . S
C1664 H1656 0.929 . S
C1664 C1665 1.377 . S
C1664 C1666 1.384 . S
C1665 C1664 1.377 . S
C1665 C1671 1.390 . S
C1666 H1657 0.930 . S
C1666 C1664 1.384 . S
C1666 C1667 1.372 . S
C1667 C1666 1.372 . S
C1667 C1668 1.400 . S
C1667 C1672 1.490 . S
C1668 H1658 0.930 . S
C1668 C1667 1.400 . S
C1668 C1671 1.386 . S
H1669 C1685 0.930 . S
H1670 C1686 0.931 . S
C1671 H1659 0.929 . S
C1671 C1665 1.390 . S
C1671 C1668 1.386 . S
C1672 C1667 1.490 . S
C1672 C1674 1.395 . S
C1672 C1675 1.403 . S
H1673 C1679 0.930 . S
C1674 H1660 0.930 . S
C1674 C1672 1.395 . S
C1674 C1677 1.403 . S
C1675 C1672 1.403 . S
C1675 C1676 1.524 . S
C1675 C1679 1.400 . S
C1676 H1661 0.960 . S
C1676 H1662 0.960 . S
C1676 H1663 0.960 . S
C1676 C1675 1.524 . S
C1677 C1674 1.403 . S
C1677 C1678 1.392 . S
C1677 C1681 1.495 . S
C1678 C1677 1.392 . S
C1678 C1679 1.385 . S
C1678 C1680 1.478 . S
C1679 H1673 0.930 . S
C1679 C1675 1.400 . S
C1679 C1678 1.385 . S
C1680 C1678 1.478 . S
C1680 C1682 1.381 . S
C1680 C1686 1.383 . S
C1681 C1677 1.495 . S
C1681 H1687 0.959 . S
C1681 H1688 0.961 . S
C1681 H1689 0.960 . S
C1682 C1680 1.381 . S
C1682 C1683 1.394 . S
C1682 H1690 0.930 . S
C1683 C1682 1.394 . S
C1683 C1684 1.383 . S
C1683 H1691 0.929 . S
C1684 C1683 1.383 . S
C1684 C1685 1.377 . S
C1685 H1669 0.930 . S
C1685 C1684 1.377 . S
C1685 C1686 1.379 . S
C1686 H1670 0.931 . S
C1686 C1680 1.383 . S
C1686 C1685 1.379 . S
H1687 C1681 0.959 . S
H1688 C1681 0.961 . S
H1689 C1681 0.960 . S
H1690 C1682 0.930 . S
H1691 C1683 0.929 . S
H1692 C1700 0.929 . S
H1693 C1702 0.930 . S
H1694 C1704 0.930 . S
H1695 C1707 0.929 . S
H1696 C1710 0.930 . S
H1697 C1712 0.960 . S
H1698 C1712 0.960 . S
H1699 C1712 0.960 . S
C1700 H1692 0.929 . S
C1700 C1701 1.377 . S
C1700 C1702 1.384 . S
C1701 C1700 1.377 . S
C1701 C1707 1.390 . S
C1702 H1693 0.930 . S
C1702 C1700 1.384 . S
C1702 C1703 1.372 . S
C1703 C1702 1.372 . S
C1703 C1704 1.400 . S
C1703 C1708 1.490 . S
C1704 H1694 0.930 . S
C1704 C1703 1.400 . S
C1704 C1707 1.386 . S
H1705 C1721 0.930 . S
H1706 C1722 0.931 . S
C1707 H1695 0.929 . S
C1707 C1701 1.390 . S
C1707 C1704 1.386 . S
C1708 C1703 1.490 . S
C1708 C1710 1.395 . S
C1708 C1711 1.403 . S
H1709 C1715 0.930 . S
C1710 H1696 0.930 . S
C1710 C1708 1.395 . S
C1710 C1713 1.403 . S
C1711 C1708 1.403 . S
C1711 C1712 1.524 . S
C1711 C1715 1.400 . S
C1712 H1697 0.960 . S
C1712 H1698 0.960 . S
C1712 H1699 0.960 . S
C1712 C1711 1.524 . S
C1713 C1710 1.403 . S
C1713 C1714 1.392 . S
C1713 C1717 1.495 . S
C1714 C1713 1.392 . S
C1714 C1715 1.385 . S
C1714 C1716 1.478 . S
C1715 H1709 0.930 . S
C1715 C1711 1.400 . S
C1715 C1714 1.385 . S
C1716 C1714 1.478 . S
C1716 C1718 1.381 . S
C1716 C1722 1.383 . S
C1717 C1713 1.495 . S
C1717 H1723 0.959 . S
C1717 H1724 0.961 . S
C1717 H1725 0.960 . S
C1718 C1716 1.381 . S
C1718 C1719 1.394 . S
C1718 H1726 0.930 . S
C1719 C1718 1.394 . S
C1719 C1720 1.383 . S
C1719 H1727 0.929 . S
C1720 C1719 1.383 . S
C1720 C1721 1.377 . S
C1721 H1705 0.930 . S
C1721 C1720 1.377 . S
C1721 C1722 1.379 . S
C1722 H1706 0.931 . S
C1722 C1716 1.383 . S
C1722 C1721 1.379 . S
H1723 C1717 0.959 . S
H1724 C1717 0.961 . S
H1725 C1717 0.960 . S
H1726 C1718 0.930 . S
H1727 C1719 0.929 . S
H1728 C1736 0.929 . S
H1729 C1738 0.930 1_455 S
H1730 C1740 0.930 . S
H1731 C1743 0.929 . S
H1732 C1746 0.930 . S
H1733 C1748 0.960 . S
H1734 C1748 0.960 . S
H1735 C1748 0.960 . S
C1736 H1728 0.929 . S
C1736 C1737 1.377 . S
C1736 C1738 1.384 . S
C1737 C1736 1.377 . S
C1737 C1743 1.390 . S
C1738 H1729 0.930 1_655 S
C1738 C1736 1.384 . S
C1738 C1739 1.372 . S
C1739 C1738 1.372 . S
C1739 C1740 1.400 . S
C1739 C1744 1.490 1_655 S
C1740 H1730 0.930 . S
C1740 C1739 1.400 . S
C1740 C1743 1.386 . S
H1741 C1757 0.930 . S
H1742 C1758 0.931 . S
C1743 H1731 0.929 . S
C1743 C1737 1.390 . S
C1743 C1740 1.386 . S
C1744 C1739 1.490 1_455 S
C1744 C1746 1.395 . S
C1744 C1747 1.403 1_455 S
H1745 C1751 0.930 . S
C1746 H1732 0.930 . S
C1746 C1744 1.395 . S
C1746 C1749 1.403 . S
C1747 C1744 1.403 1_655 S
C1747 C1748 1.524 . S
C1747 C1751 1.400 1_655 S
C1748 H1733 0.960 . S
C1748 H1734 0.960 . S
C1748 H1735 0.960 . S
C1748 C1747 1.524 . S
C1749 C1746 1.403 . S
C1749 C1750 1.392 . S
C1749 C1753 1.495 . S
C1750 C1749 1.392 . S
C1750 C1751 1.385 . S
C1750 C1752 1.478 . S
C1751 H1745 0.930 . S
C1751 C1747 1.400 1_455 S
C1751 C1750 1.385 . S
C1752 C1750 1.478 . S
C1752 C1754 1.381 . S
C1752 C1758 1.383 . S
C1753 C1749 1.495 . S
C1753 H1759 0.959 . S
C1753 H1760 0.961 . S
C1753 H1761 0.960 . S
C1754 C1752 1.381 . S
C1754 C1755 1.394 . S
C1754 H1762 0.930 . S
C1755 C1754 1.394 . S
C1755 C1756 1.383 . S
C1755 H1763 0.929 . S
C1756 C1755 1.383 . S
C1756 C1757 1.377 . S
C1757 H1741 0.930 . S
C1757 C1756 1.377 . S
C1757 C1758 1.379 . S
C1758 H1742 0.931 . S
C1758 C1752 1.383 . S
C1758 C1757 1.379 . S
H1759 C1753 0.959 . S
H1760 C1753 0.961 . S
H1761 C1753 0.960 . S
H1762 C1754 0.930 . S
H1763 C1755 0.929 . S
H1764 C1772 0.929 . S
H1765 C1774 0.930 . S
H1766 C1776 0.930 . S
H1767 C1779 0.929 . S
H1768 C1782 0.930 . S
H1769 C1784 0.960 . S
H1770 C1784 0.960 . S
H1771 C1784 0.960 . S
C1772 H1764 0.929 . S
C1772 C1773 1.377 . S
C1772 C1774 1.384 . S
C1773 C1772 1.377 . S
C1773 C1779 1.390 . S
C1774 H1765 0.930 . S
C1774 C1772 1.384 . S
C1774 C1775 1.372 . S
C1775 C1774 1.372 . S
C1775 C1776 1.400 . S
C1775 C1780 1.490 . S
C1776 H1766 0.930 . S
C1776 C1775 1.400 . S
C1776 C1779 1.386 . S
H1777 C1793 0.930 . S
H1778 C1794 0.931 . S
C1779 H1767 0.929 . S
C1779 C1773 1.390 . S
C1779 C1776 1.386 . S
C1780 C1775 1.490 . S
C1780 C1782 1.395 . S
C1780 C1783 1.403 . S
H1781 C1787 0.930 . S
C1782 H1768 0.930 . S
C1782 C1780 1.395 . S
C1782 C1785 1.403 . S
C1783 C1780 1.403 . S
C1783 C1784 1.524 . S
C1783 C1787 1.400 . S
C1784 H1769 0.960 . S
C1784 H1770 0.960 . S
C1784 H1771 0.960 . S
C1784 C1783 1.524 . S
C1785 C1782 1.403 . S
C1785 C1786 1.392 . S
C1785 C1789 1.495 . S
C1786 C1785 1.392 . S
C1786 C1787 1.385 . S
C1786 C1788 1.478 . S
C1787 H1781 0.930 . S
C1787 C1783 1.400 . S
C1787 C1786 1.385 . S
C1788 C1786 1.478 . S
C1788 C1790 1.381 . S
C1788 C1794 1.383 . S
C1789 C1785 1.495 . S
C1789 H1795 0.959 . S
C1789 H1796 0.961 . S
C1789 H1797 0.960 . S
C1790 C1788 1.381 . S
C1790 C1791 1.394 . S
C1790 H1798 0.930 . S
C1791 C1790 1.394 . S
C1791 C1792 1.383 . S
C1791 H1799 0.929 . S
C1792 C1791 1.383 . S
C1792 C1793 1.377 . S
C1793 H1777 0.930 . S
C1793 C1792 1.377 . S
C1793 C1794 1.379 . S
C1794 H1778 0.931 . S
C1794 C1788 1.383 . S
C1794 C1793 1.379 . S
H1795 C1789 0.959 . S
H1796 C1789 0.961 . S
H1797 C1789 0.960 . S
H1798 C1790 0.930 . S
H1799 C1791 0.929 . S
H1800 C1808 0.929 . S
H1801 C1810 0.930 1_545 S
H1802 C1812 0.930 . S
H1803 C1815 0.929 . S
H1804 C1818 0.930 . S
H1805 C1820 0.960 . S
H1806 C1820 0.960 . S
H1807 C1820 0.960 . S
C1808 H1800 0.929 . S
C1808 C1809 1.377 . S
C1808 C1810 1.384 . S
C1809 C1808 1.377 . S
C1809 C1815 1.390 . S
C1810 H1801 0.930 1_565 S
C1810 C1808 1.384 . S
C1810 C1811 1.372 . S
C1811 C1810 1.372 . S
C1811 C1812 1.400 . S
C1811 C1816 1.490 1_565 S
C1812 H1802 0.930 . S
C1812 C1811 1.400 . S
C1812 C1815 1.386 . S
H1813 C1829 0.930 . S
H1814 C1830 0.931 . S
C1815 H1803 0.929 . S
C1815 C1809 1.390 . S
C1815 C1812 1.386 . S
C1816 C1811 1.490 1_545 S
C1816 C1818 1.395 . S
C1816 C1819 1.403 1_545 S
H1817 C1823 0.930 . S
C1818 H1804 0.930 . S
C1818 C1816 1.395 . S
C1818 C1821 1.403 . S
C1819 C1816 1.403 1_565 S
C1819 C1820 1.524 . S
C1819 C1823 1.400 1_565 S
C1820 H1805 0.960 . S
C1820 H1806 0.960 . S
C1820 H1807 0.960 . S
C1820 C1819 1.524 . S
C1821 C1818 1.403 . S
C1821 C1822 1.392 . S
C1821 C1825 1.495 . S
C1822 C1821 1.392 . S
C1822 C1823 1.385 . S
C1822 C1824 1.478 . S
C1823 H1817 0.930 . S
C1823 C1819 1.400 1_545 S
C1823 C1822 1.385 . S
C1824 C1822 1.478 . S
C1824 C1826 1.381 . S
C1824 C1830 1.383 . S
C1825 C1821 1.495 . S
C1825 H1831 0.959 . S
C1825 H1832 0.961 . S
C1825 H1833 0.960 . S
C1826 C1824 1.381 . S
C1826 C1827 1.394 . S
C1826 H1834 0.930 . S
C1827 C1826 1.394 . S
C1827 C1828 1.383 . S
C1827 H1835 0.929 . S
C1828 C1827 1.383 . S
C1828 C1829 1.377 . S
C1829 H1813 0.930 . S
C1829 C1828 1.377 . S
C1829 C1830 1.379 . S
C1830 H1814 0.931 . S
C1830 C1824 1.383 . S
C1830 C1829 1.379 . S
H1831 C1825 0.959 . S
H1832 C1825 0.961 . S
H1833 C1825 0.960 . S
H1834 C1826 0.930 . S
H1835 C1827 0.929 . S
H1836 C1844 0.929 . S
H1837 C1846 0.930 . S
H1838 C1848 0.930 . S
H1839 C1851 0.929 . S
H1840 C1854 0.930 . S
H1841 C1856 0.960 . S
H1842 C1856 0.960 . S
H1843 C1856 0.960 . S
C1844 H1836 0.929 . S
C1844 C1845 1.377 . S
C1844 C1846 1.384 . S
C1845 C1844 1.377 . S
C1845 C1851 1.390 . S
C1846 H1837 0.930 . S
C1846 C1844 1.384 . S
C1846 C1847 1.372 . S
C1847 C1846 1.372 . S
C1847 C1848 1.400 . S
C1847 C1852 1.490 . S
C1848 H1838 0.930 . S
C1848 C1847 1.400 . S
C1848 C1851 1.386 . S
H1849 C1865 0.930 . S
H1850 C1866 0.931 . S
C1851 H1839 0.929 . S
C1851 C1845 1.390 . S
C1851 C1848 1.386 . S
C1852 C1847 1.490 . S
C1852 C1854 1.395 . S
C1852 C1855 1.403 . S
H1853 C1859 0.930 . S
C1854 H1840 0.930 . S
C1854 C1852 1.395 . S
C1854 C1857 1.403 . S
C1855 C1852 1.403 . S
C1855 C1856 1.524 . S
C1855 C1859 1.400 . S
C1856 H1841 0.960 . S
C1856 H1842 0.960 . S
C1856 H1843 0.960 . S
C1856 C1855 1.524 . S
C1857 C1854 1.403 . S
C1857 C1858 1.392 . S
C1857 C1861 1.495 . S
C1858 C1857 1.392 . S
C1858 C1859 1.385 . S
C1858 C1860 1.478 . S
C1859 H1853 0.930 . S
C1859 C1855 1.400 . S
C1859 C1858 1.385 . S
C1860 C1858 1.478 . S
C1860 C1862 1.381 . S
C1860 C1866 1.383 . S
C1861 C1857 1.495 . S
C1861 H1867 0.959 . S
C1861 H1868 0.961 . S
C1861 H1869 0.960 . S
C1862 C1860 1.381 . S
C1862 C1863 1.394 . S
C1862 H1870 0.930 . S
C1863 C1862 1.394 . S
C1863 C1864 1.383 . S
C1863 H1871 0.929 . S
C1864 C1863 1.383 . S
C1864 C1865 1.377 . S
C1865 H1849 0.930 . S
C1865 C1864 1.377 . S
C1865 C1866 1.379 . S
C1866 H1850 0.931 . S
C1866 C1860 1.383 . S
C1866 C1865 1.379 . S
H1867 C1861 0.959 . S
H1868 C1861 0.961 . S
H1869 C1861 0.960 . S
H1870 C1862 0.930 . S
H1871 C1863 0.929 . S
H1872 C1880 0.929 . S
H1873 C1882 0.930 . S
H1874 C1884 0.930 . S
H1875 C1887 0.929 . S
H1876 C1890 0.930 . S
H1877 C1892 0.960 . S
H1878 C1892 0.960 . S
H1879 C1892 0.960 . S
C1880 H1872 0.929 . S
C1880 C1881 1.377 . S
C1880 C1882 1.384 . S
C1881 C1880 1.377 . S
C1881 C1887 1.390 . S
C1882 H1873 0.930 . S
C1882 C1880 1.384 . S
C1882 C1883 1.372 . S
C1883 C1882 1.372 . S
C1883 C1884 1.400 . S
C1883 C1888 1.490 . S
C1884 H1874 0.930 . S
C1884 C1883 1.400 . S
C1884 C1887 1.386 . S
H1885 C1901 0.930 . S
H1886 C1902 0.931 . S
C1887 H1875 0.929 . S
C1887 C1881 1.390 . S
C1887 C1884 1.386 . S
C1888 C1883 1.490 . S
C1888 C1890 1.395 . S
C1888 C1891 1.403 . S
H1889 C1895 0.930 . S
C1890 H1876 0.930 . S
C1890 C1888 1.395 . S
C1890 C1893 1.403 . S
C1891 C1888 1.403 . S
C1891 C1892 1.524 . S
C1891 C1895 1.400 . S
C1892 H1877 0.960 . S
C1892 H1878 0.960 . S
C1892 H1879 0.960 . S
C1892 C1891 1.524 . S
C1893 C1890 1.403 . S
C1893 C1894 1.392 . S
C1893 C1897 1.495 . S
C1894 C1893 1.392 . S
C1894 C1895 1.385 . S
C1894 C1896 1.478 . S
C1895 H1889 0.930 . S
C1895 C1891 1.400 . S
C1895 C1894 1.385 . S
C1896 C1894 1.478 . S
C1896 C1898 1.381 . S
C1896 C1902 1.383 . S
C1897 C1893 1.495 . S
C1897 H1903 0.959 . S
C1897 H1904 0.961 . S
C1897 H1905 0.960 . S
C1898 C1896 1.381 . S
C1898 C1899 1.394 . S
C1898 H1906 0.930 . S
C1899 C1898 1.394 . S
C1899 C1900 1.383 . S
C1899 H1907 0.929 . S
C1900 C1899 1.383 . S
C1900 C1901 1.377 . S
C1901 H1885 0.930 . S
C1901 C1900 1.377 . S
C1901 C1902 1.379 . S
C1902 H1886 0.931 . S
C1902 C1896 1.383 . S
C1902 C1901 1.379 . S
H1903 C1897 0.959 . S
H1904 C1897 0.961 . S
H1905 C1897 0.960 . S
H1906 C1898 0.930 . S
H1907 C1899 0.929 . S
H1908 C1916 0.929 . S
H1909 C1918 0.930 . S
H1910 C1920 0.930 . S
H1911 C1923 0.929 . S
H1912 C1926 0.930 . S
H1913 C1928 0.960 . S
H1914 C1928 0.960 . S
H1915 C1928 0.960 . S
C1916 H1908 0.929 . S
C1916 C1917 1.377 . S
C1916 C1918 1.384 . S
C1917 C1916 1.377 . S
C1917 C1923 1.390 . S
C1918 H1909 0.930 . S
C1918 C1916 1.384 . S
C1918 C1919 1.372 . S
C1919 C1918 1.372 . S
C1919 C1920 1.400 . S
C1919 C1924 1.490 . S
C1920 H1910 0.930 . S
C1920 C1919 1.400 . S
C1920 C1923 1.386 . S
H1921 C1937 0.930 . S
H1922 C1938 0.931 . S
C1923 H1911 0.929 . S
C1923 C1917 1.390 . S
C1923 C1920 1.386 . S
C1924 C1919 1.490 . S
C1924 C1926 1.395 . S
C1924 C1927 1.403 . S
H1925 C1931 0.930 . S
C1926 H1912 0.930 . S
C1926 C1924 1.395 . S
C1926 C1929 1.403 . S
C1927 C1924 1.403 . S
C1927 C1928 1.524 . S
C1927 C1931 1.400 . S
C1928 H1913 0.960 . S
C1928 H1914 0.960 . S
C1928 H1915 0.960 . S
C1928 C1927 1.524 . S
C1929 C1926 1.403 . S
C1929 C1930 1.392 . S
C1929 C1933 1.495 . S
C1930 C1929 1.392 . S
C1930 C1931 1.385 . S
C1930 C1932 1.478 . S
C1931 H1925 0.930 . S
C1931 C1927 1.400 . S
C1931 C1930 1.385 . S
C1932 C1930 1.478 . S
C1932 C1934 1.381 . S
C1932 C1938 1.383 . S
C1933 C1929 1.495 . S
C1933 H1939 0.959 . S
C1933 H1940 0.961 . S
C1933 H1941 0.960 . S
C1934 C1932 1.381 . S
C1934 C1935 1.394 . S
C1934 H1942 0.930 . S
C1935 C1934 1.394 . S
C1935 C1936 1.383 . S
C1935 H1943 0.929 . S
C1936 C1935 1.383 . S
C1936 C1937 1.377 . S
C1937 H1921 0.930 . S
C1937 C1936 1.377 . S
C1937 C1938 1.379 . S
C1938 H1922 0.931 . S
C1938 C1932 1.383 . S
C1938 C1937 1.379 . S
H1939 C1933 0.959 . S
H1940 C1933 0.961 . S
H1941 C1933 0.960 . S
H1942 C1934 0.930 . S
H1943 C1935 0.929 . S
H1944 C1952 0.929 . S
H1945 C1954 0.930 . S
H1946 C1956 0.930 . S
H1947 C1959 0.929 . S
H1948 C1962 0.930 . S
H1949 C1964 0.960 . S
H1950 C1964 0.960 . S
H1951 C1964 0.960 . S
C1952 H1944 0.929 . S
C1952 C1953 1.377 . S
C1952 C1954 1.384 . S
C1953 C1952 1.377 . S
C1953 C1959 1.390 . S
C1954 H1945 0.930 . S
C1954 C1952 1.384 . S
C1954 C1955 1.372 . S
C1955 C1954 1.372 . S
C1955 C1956 1.400 . S
C1955 C1960 1.490 . S
C1956 H1946 0.930 . S
C1956 C1955 1.400 . S
C1956 C1959 1.386 . S
H1957 C1973 0.930 . S
H1958 C1974 0.931 . S
C1959 H1947 0.929 . S
C1959 C1953 1.390 . S
C1959 C1956 1.386 . S
C1960 C1955 1.490 . S
C1960 C1962 1.395 . S
C1960 C1963 1.403 . S
H1961 C1967 0.930 . S
C1962 H1948 0.930 . S
C1962 C1960 1.395 . S
C1962 C1965 1.403 . S
C1963 C1960 1.403 . S
C1963 C1964 1.524 . S
C1963 C1967 1.400 . S
C1964 H1949 0.960 . S
C1964 H1950 0.960 . S
C1964 H1951 0.960 . S
C1964 C1963 1.524 . S
C1965 C1962 1.403 . S
C1965 C1966 1.392 . S
C1965 C1969 1.495 . S
C1966 C1965 1.392 . S
C1966 C1967 1.385 . S
C1966 C1968 1.478 . S
C1967 H1961 0.930 . S
C1967 C1963 1.400 . S
C1967 C1966 1.385 . S
C1968 C1966 1.478 . S
C1968 C1970 1.381 . S
C1968 C1974 1.383 . S
C1969 C1965 1.495 . S
C1969 H1975 0.959 . S
C1969 H1976 0.961 . S
C1969 H1977 0.960 . S
C1970 C1968 1.381 . S
C1970 C1971 1.394 . S
C1970 H1978 0.930 . S
C1971 C1970 1.394 . S
C1971 C1972 1.383 . S
C1971 H1979 0.929 . S
C1972 C1971 1.383 . S
C1972 C1973 1.377 . S
C1973 H1957 0.930 . S
C1973 C1972 1.377 . S
C1973 C1974 1.379 . S
C1974 H1958 0.931 . S
C1974 C1968 1.383 . S
C1974 C1973 1.379 . S
H1975 C1969 0.959 . S
H1976 C1969 0.961 . S
H1977 C1969 0.960 . S
H1978 C1970 0.930 . S
H1979 C1971 0.929 . S
H1980 C1988 0.929 . S
H1981 C1990 0.930 . S
H1982 C1992 0.930 . S
H1983 C1995 0.929 . S
H1984 C1998 0.930 . S
H1985 C2000 0.960 . S
H1986 C2000 0.960 . S
H1987 C2000 0.960 . S
C1988 H1980 0.929 . S
C1988 C1989 1.377 . S
C1988 C1990 1.384 . S
C1989 C1988 1.377 . S
C1989 C1995 1.390 . S
C1990 H1981 0.930 . S
C1990 C1988 1.384 . S
C1990 C1991 1.372 . S
C1991 C1990 1.372 . S
C1991 C1992 1.400 . S
C1991 C1996 1.490 . S
C1992 H1982 0.930 . S
C1992 C1991 1.400 . S
C1992 C1995 1.386 . S
H1993 C2009 0.930 . S
H1994 C2010 0.931 . S
C1995 H1983 0.929 . S
C1995 C1989 1.390 . S
C1995 C1992 1.386 . S
C1996 C1991 1.490 . S
C1996 C1998 1.395 . S
C1996 C1999 1.403 . S
H1997 C2003 0.930 . S
C1998 H1984 0.930 . S
C1998 C1996 1.395 . S
C1998 C2001 1.403 . S
C1999 C1996 1.403 . S
C1999 C2000 1.524 . S
C1999 C2003 1.400 . S
C2000 H1985 0.960 . S
C2000 H1986 0.960 . S
C2000 H1987 0.960 . S
C2000 C1999 1.524 . S
C2001 C1998 1.403 . S
C2001 C2002 1.392 . S
C2001 C2005 1.495 . S
C2002 C2001 1.392 . S
C2002 C2003 1.385 . S
C2002 C2004 1.478 . S
C2003 H1997 0.930 . S
C2003 C1999 1.400 . S
C2003 C2002 1.385 . S
C2004 C2002 1.478 . S
C2004 C2006 1.381 . S
C2004 C2010 1.383 . S
C2005 C2001 1.495 . S
C2005 H2011 0.959 . S
C2005 H2012 0.961 . S
C2005 H2013 0.960 . S
C2006 C2004 1.381 . S
C2006 C2007 1.394 . S
C2006 H2014 0.930 . S
C2007 C2006 1.394 . S
C2007 C2008 1.383 . S
C2007 H2015 0.929 . S
C2008 C2007 1.383 . S
C2008 C2009 1.377 . S
C2009 H1993 0.930 . S
C2009 C2008 1.377 . S
C2009 C2010 1.379 . S
C2010 H1994 0.931 . S
C2010 C2004 1.383 . S
C2010 C2009 1.379 . S
H2011 C2005 0.959 . S
H2012 C2005 0.961 . S
H2013 C2005 0.960 . S
H2014 C2006 0.930 . S
H2015 C2007 0.929 . S
H2016 C2024 0.929 . S
H2017 C2026 0.930 . S
H2018 C2028 0.930 . S
H2019 C2031 0.929 . S
H2020 C2034 0.930 . S
H2021 C2036 0.960 . S
H2022 C2036 0.960 . S
H2023 C2036 0.960 . S
C2024 H2016 0.929 . S
C2024 C2025 1.377 . S
C2024 C2026 1.384 . S
C2025 C2024 1.377 . S
C2025 C2031 1.390 . S
C2026 H2017 0.930 . S
C2026 C2024 1.384 . S
C2026 C2027 1.372 . S
C2027 C2026 1.372 . S
C2027 C2028 1.400 . S
C2027 C2032 1.490 . S
C2028 H2018 0.930 . S
C2028 C2027 1.400 . S
C2028 C2031 1.386 . S
H2029 C2045 0.930 . S
H2030 C2046 0.931 . S
C2031 H2019 0.929 . S
C2031 C2025 1.390 . S
C2031 C2028 1.386 . S
C2032 C2027 1.490 . S
C2032 C2034 1.395 . S
C2032 C2035 1.403 . S
H2033 C2039 0.930 . S
C2034 H2020 0.930 . S
C2034 C2032 1.395 . S
C2034 C2037 1.403 . S
C2035 C2032 1.403 . S
C2035 C2036 1.524 . S
C2035 C2039 1.400 . S
C2036 H2021 0.960 . S
C2036 H2022 0.960 . S
C2036 H2023 0.960 . S
C2036 C2035 1.524 . S
C2037 C2034 1.403 . S
C2037 C2038 1.392 . S
C2037 C2041 1.495 . S
C2038 C2037 1.392 . S
C2038 C2039 1.385 . S
C2038 C2040 1.478 . S
C2039 H2033 0.930 . S
C2039 C2035 1.400 . S
C2039 C2038 1.385 . S
C2040 C2038 1.478 . S
C2040 C2042 1.381 . S
C2040 C2046 1.383 . S
C2041 C2037 1.495 . S
C2041 H2047 0.959 . S
C2041 H2048 0.961 . S
C2041 H2049 0.960 . S
C2042 C2040 1.381 . S
C2042 C2043 1.394 . S
C2042 H2050 0.930 . S
C2043 C2042 1.394 . S
C2043 C2044 1.383 . S
C2043 H2051 0.929 . S
C2044 C2043 1.383 . S
C2044 C2045 1.377 . S
C2045 H2029 0.930 . S
C2045 C2044 1.377 . S
C2045 C2046 1.379 . S
C2046 H2030 0.931 . S
C2046 C2040 1.383 . S
C2046 C2045 1.379 . S
H2047 C2041 0.959 . S
H2048 C2041 0.961 . S
H2049 C2041 0.960 . S
H2050 C2042 0.930 . S
H2051 C2043 0.929 . S
H2052 C2060 0.929 . S
H2053 C2062 0.930 . S
H2054 C2064 0.930 . S
H2055 C2067 0.929 . S
H2056 C2070 0.930 . S
H2057 C2072 0.960 . S
H2058 C2072 0.960 . S
H2059 C2072 0.960 . S
C2060 H2052 0.929 . S
C2060 C2061 1.377 . S
C2060 C2062 1.384 . S
C2061 C2060 1.377 . S
C2061 C2067 1.390 . S
C2062 H2053 0.930 . S
C2062 C2060 1.384 . S
C2062 C2063 1.372 . S
C2063 C2062 1.372 . S
C2063 C2064 1.400 . S
C2063 C2068 1.490 . S
C2064 H2054 0.930 . S
C2064 C2063 1.400 . S
C2064 C2067 1.386 . S
H2065 C2081 0.930 . S
H2066 C2082 0.931 . S
C2067 H2055 0.929 . S
C2067 C2061 1.390 . S
C2067 C2064 1.386 . S
C2068 C2063 1.490 . S
C2068 C2070 1.395 . S
C2068 C2071 1.403 . S
H2069 C2075 0.930 . S
C2070 H2056 0.930 . S
C2070 C2068 1.395 . S
C2070 C2073 1.403 . S
C2071 C2068 1.403 . S
C2071 C2072 1.524 . S
C2071 C2075 1.400 . S
C2072 H2057 0.960 . S
C2072 H2058 0.960 . S
C2072 H2059 0.960 . S
C2072 C2071 1.524 . S
C2073 C2070 1.403 . S
C2073 C2074 1.392 . S
C2073 C2077 1.495 . S
C2074 C2073 1.392 . S
C2074 C2075 1.385 . S
C2074 C2076 1.478 . S
C2075 H2069 0.930 . S
C2075 C2071 1.400 . S
C2075 C2074 1.385 . S
C2076 C2074 1.478 . S
C2076 C2078 1.381 . S
C2076 C2082 1.383 . S
C2077 C2073 1.495 . S
C2077 H2083 0.959 . S
C2077 H2084 0.961 . S
C2077 H2085 0.960 . S
C2078 C2076 1.381 . S
C2078 C2079 1.394 . S
C2078 H2086 0.930 . S
C2079 C2078 1.394 . S
C2079 C2080 1.383 . S
C2079 H2087 0.929 . S
C2080 C2079 1.383 . S
C2080 C2081 1.377 . S
C2081 H2065 0.930 . S
C2081 C2080 1.377 . S
C2081 C2082 1.379 . S
C2082 H2066 0.931 . S
C2082 C2076 1.383 . S
C2082 C2081 1.379 . S
H2083 C2077 0.959 . S
H2084 C2077 0.961 . S
H2085 C2077 0.960 . S
H2086 C2078 0.930 . S
H2087 C2079 0.929 . S
H2088 C2096 0.929 . S
H2089 C2098 0.930 . S
H2090 C2100 0.930 . S
H2091 C2103 0.929 . S
H2092 C2106 0.930 . S
H2093 C2108 0.960 . S
H2094 C2108 0.960 . S
H2095 C2108 0.960 . S
C2096 H2088 0.929 . S
C2096 C2097 1.377 . S
C2096 C2098 1.384 . S
C2097 C2096 1.377 . S
C2097 C2103 1.390 . S
C2098 H2089 0.930 . S
C2098 C2096 1.384 . S
C2098 C2099 1.372 . S
C2099 C2098 1.372 . S
C2099 C2100 1.400 . S
C2099 C2104 1.490 . S
C2100 H2090 0.930 . S
C2100 C2099 1.400 . S
C2100 C2103 1.386 . S
H2101 C2117 0.930 . S
H2102 C2118 0.931 . S
C2103 H2091 0.929 . S
C2103 C2097 1.390 . S
C2103 C2100 1.386 . S
C2104 C2099 1.490 . S
C2104 C2106 1.395 . S
C2104 C2107 1.403 . S
H2105 C2111 0.930 . S
C2106 H2092 0.930 . S
C2106 C2104 1.395 . S
C2106 C2109 1.403 . S
C2107 C2104 1.403 . S
C2107 C2108 1.524 . S
C2107 C2111 1.400 . S
C2108 H2093 0.960 . S
C2108 H2094 0.960 . S
C2108 H2095 0.960 . S
C2108 C2107 1.524 . S
C2109 C2106 1.403 . S
C2109 C2110 1.392 . S
C2109 C2113 1.495 . S
C2110 C2109 1.392 . S
C2110 C2111 1.385 . S
C2110 C2112 1.478 . S
C2111 H2105 0.930 . S
C2111 C2107 1.400 . S
C2111 C2110 1.385 . S
C2112 C2110 1.478 . S
C2112 C2114 1.381 . S
C2112 C2118 1.383 . S
C2113 C2109 1.495 . S
C2113 H2119 0.959 . S
C2113 H2120 0.961 . S
C2113 H2121 0.960 . S
C2114 C2112 1.381 . S
C2114 C2115 1.394 . S
C2114 H2122 0.930 . S
C2115 C2114 1.394 . S
C2115 C2116 1.383 . S
C2115 H2123 0.929 . S
C2116 C2115 1.383 . S
C2116 C2117 1.377 . S
C2117 H2101 0.930 . S
C2117 C2116 1.377 . S
C2117 C2118 1.379 . S
C2118 H2102 0.931 . S
C2118 C2112 1.383 . S
C2118 C2117 1.379 . S
H2119 C2113 0.959 . S
H2120 C2113 0.961 . S
H2121 C2113 0.960 . S
H2122 C2114 0.930 . S
H2123 C2115 0.929 . S
H2124 C2132 0.929 . S
H2125 C2134 0.930 . S
H2126 C2136 0.930 . S
H2127 C2139 0.929 . S
H2128 C2142 0.930 . S
H2129 C2144 0.960 . S
H2130 C2144 0.960 . S
H2131 C2144 0.960 . S
C2132 H2124 0.929 . S
C2132 C2133 1.377 . S
C2132 C2134 1.384 . S
C2133 C2132 1.377 . S
C2133 C2139 1.390 . S
C2134 H2125 0.930 . S
C2134 C2132 1.384 . S
C2134 C2135 1.372 . S
C2135 C2134 1.372 . S
C2135 C2136 1.400 . S
C2135 C2140 1.490 . S
C2136 H2126 0.930 . S
C2136 C2135 1.400 . S
C2136 C2139 1.386 . S
H2137 C2153 0.930 . S
H2138 C2154 0.931 . S
C2139 H2127 0.929 . S
C2139 C2133 1.390 . S
C2139 C2136 1.386 . S
C2140 C2135 1.490 . S
C2140 C2142 1.395 . S
C2140 C2143 1.403 . S
H2141 C2147 0.930 . S
C2142 H2128 0.930 . S
C2142 C2140 1.395 . S
C2142 C2145 1.403 . S
C2143 C2140 1.403 . S
C2143 C2144 1.524 . S
C2143 C2147 1.400 . S
C2144 H2129 0.960 . S
C2144 H2130 0.960 . S
C2144 H2131 0.960 . S
C2144 C2143 1.524 . S
C2145 C2142 1.403 . S
C2145 C2146 1.392 . S
C2145 C2149 1.495 . S
C2146 C2145 1.392 . S
C2146 C2147 1.385 . S
C2146 C2148 1.478 . S
C2147 H2141 0.930 . S
C2147 C2143 1.400 . S
C2147 C2146 1.385 . S
C2148 C2146 1.478 . S
C2148 C2150 1.381 . S
C2148 C2154 1.383 . S
C2149 C2145 1.495 . S
C2149 H2155 0.959 . S
C2149 H2156 0.961 . S
C2149 H2157 0.960 . S
C2150 C2148 1.381 . S
C2150 C2151 1.394 . S
C2150 H2158 0.930 . S
C2151 C2150 1.394 . S
C2151 C2152 1.383 . S
C2151 H2159 0.929 . S
C2152 C2151 1.383 . S
C2152 C2153 1.377 . S
C2153 H2137 0.930 . S
C2153 C2152 1.377 . S
C2153 C2154 1.379 . S
C2154 H2138 0.931 . S
C2154 C2148 1.383 . S
C2154 C2153 1.379 . S
H2155 C2149 0.959 . S
H2156 C2149 0.961 . S
H2157 C2149 0.960 . S
H2158 C2150 0.930 . S
H2159 C2151 0.929 . S
H2160 C2168 0.929 . S
H2161 C2170 0.930 . S
H2162 C2172 0.930 . S
H2163 C2175 0.929 . S
H2164 C2178 0.930 . S
H2165 C2180 0.960 . S
H2166 C2180 0.960 . S
H2167 C2180 0.960 . S
C2168 H2160 0.929 . S
C2168 C2169 1.377 . S
C2168 C2170 1.384 . S
C2169 C2168 1.377 . S
C2169 C2175 1.390 . S
C2170 H2161 0.930 . S
C2170 C2168 1.384 . S
C2170 C2171 1.372 . S
C2171 C2170 1.372 . S
C2171 C2172 1.400 . S
C2171 C2176 1.490 . S
C2172 H2162 0.930 . S
C2172 C2171 1.400 . S
C2172 C2175 1.386 . S
H2173 C2189 0.930 . S
H2174 C2190 0.931 . S
C2175 H2163 0.929 . S
C2175 C2169 1.390 . S
C2175 C2172 1.386 . S
C2176 C2171 1.490 . S
C2176 C2178 1.395 . S
C2176 C2179 1.403 . S
H2177 C2183 0.930 . S
C2178 H2164 0.930 . S
C2178 C2176 1.395 . S
C2178 C2181 1.403 . S
C2179 C2176 1.403 . S
C2179 C2180 1.524 . S
C2179 C2183 1.400 1_655 S
C2180 H2165 0.960 . S
C2180 H2166 0.960 . S
C2180 H2167 0.960 . S
C2180 C2179 1.524 . S
C2181 C2178 1.403 . S
C2181 C2182 1.392 1_655 S
C2181 C2185 1.495 . S
C2182 C2181 1.392 1_455 S
C2182 C2183 1.385 . S
C2182 C2184 1.478 . S
C2183 H2177 0.930 . S
C2183 C2179 1.400 1_455 S
C2183 C2182 1.385 . S
C2184 C2182 1.478 . S
C2184 C2186 1.381 . S
C2184 C2190 1.383 . S
C2185 C2181 1.495 . S
C2185 H2191 0.959 . S
C2185 H2192 0.961 . S
C2185 H2193 0.960 1_655 S
C2186 C2184 1.381 . S
C2186 C2187 1.394 . S
C2186 H2194 0.930 . S
C2187 C2186 1.394 . S
C2187 C2188 1.383 . S
C2187 H2195 0.929 . S
C2188 C2187 1.383 . S
C2188 C2189 1.377 . S
C2189 H2173 0.930 . S
C2189 C2188 1.377 . S
C2189 C2190 1.379 . S
C2190 H2174 0.931 . S
C2190 C2184 1.383 . S
C2190 C2189 1.379 . S
H2191 C2185 0.959 . S
H2192 C2185 0.961 . S
H2193 C2185 0.960 1_455 S
H2194 C2186 0.930 . S
H2195 C2187 0.929 . S
H2196 C2204 0.929 . S
H2197 C2206 0.930 . S
H2198 C2208 0.930 . S
H2199 C2211 0.929 . S
H2200 C2214 0.930 . S
H2201 C2216 0.960 . S
H2202 C2216 0.960 . S
H2203 C2216 0.960 . S
C2204 H2196 0.929 . S
C2204 C2205 1.377 . S
C2204 C2206 1.384 . S
C2205 C2204 1.377 . S
C2205 C2211 1.390 . S
C2206 H2197 0.930 . S
C2206 C2204 1.384 . S
C2206 C2207 1.372 . S
C2207 C2206 1.372 . S
C2207 C2208 1.400 . S
C2207 C2212 1.490 . S
C2208 H2198 0.930 . S
C2208 C2207 1.400 . S
C2208 C2211 1.386 . S
H2209 C2225 0.930 . S
H2210 C2226 0.931 . S
C2211 H2199 0.929 . S
C2211 C2205 1.390 . S
C2211 C2208 1.386 . S
C2212 C2207 1.490 . S
C2212 C2214 1.395 . S
C2212 C2215 1.403 . S
H2213 C2219 0.930 . S
C2214 H2200 0.930 . S
C2214 C2212 1.395 . S
C2214 C2217 1.403 . S
C2215 C2212 1.403 . S
C2215 C2216 1.524 . S
C2215 C2219 1.400 . S
C2216 H2201 0.960 . S
C2216 H2202 0.960 . S
C2216 H2203 0.960 . S
C2216 C2215 1.524 . S
C2217 C2214 1.403 . S
C2217 C2218 1.392 . S
C2217 C2221 1.495 . S
C2218 C2217 1.392 . S
C2218 C2219 1.385 . S
C2218 C2220 1.478 . S
C2219 H2213 0.930 . S
C2219 C2215 1.400 . S
C2219 C2218 1.385 . S
C2220 C2218 1.478 . S
C2220 C2222 1.381 . S
C2220 C2226 1.383 . S
C2221 C2217 1.495 . S
C2221 H2227 0.959 . S
C2221 H2228 0.961 . S
C2221 H2229 0.960 . S
C2222 C2220 1.381 . S
C2222 C2223 1.394 . S
C2222 H2230 0.930 . S
C2223 C2222 1.394 . S
C2223 C2224 1.383 . S
C2223 H2231 0.929 . S
C2224 C2223 1.383 . S
C2224 C2225 1.377 . S
C2225 H2209 0.930 . S
C2225 C2224 1.377 . S
C2225 C2226 1.379 . S
C2226 H2210 0.931 . S
C2226 C2220 1.383 . S
C2226 C2225 1.379 . S
H2227 C2221 0.959 . S
H2228 C2221 0.961 . S
H2229 C2221 0.960 . S
H2230 C2222 0.930 . S
H2231 C2223 0.929 . S
H2232 C2240 0.929 . S
H2233 C2242 0.930 . S
H2234 C2244 0.930 . S
H2235 C2247 0.929 . S
H2236 C2250 0.930 . S
H2237 C2252 0.960 . S
H2238 C2252 0.960 . S
H2239 C2252 0.960 . S
C2240 H2232 0.929 . S
C2240 C2241 1.377 . S
C2240 C2242 1.384 . S
C2241 C2240 1.377 . S
C2241 C2247 1.390 . S
C2242 H2233 0.930 . S
C2242 C2240 1.384 . S
C2242 C2243 1.372 . S
C2243 C2242 1.372 . S
C2243 C2244 1.400 . S
C2243 C2248 1.490 1_565 S
C2244 H2234 0.930 . S
C2244 C2243 1.400 . S
C2244 C2247 1.386 . S
H2245 C2261 0.930 . S
H2246 C2262 0.931 . S
C2247 H2235 0.929 . S
C2247 C2241 1.390 . S
C2247 C2244 1.386 . S
C2248 C2243 1.490 1_545 S
C2248 C2250 1.395 . S
C2248 C2251 1.403 . S
H2249 C2255 0.930 . S
C2250 H2236 0.930 . S
C2250 C2248 1.395 . S
C2250 C2253 1.403 . S
C2251 C2248 1.403 . S
C2251 C2252 1.524 . S
C2251 C2255 1.400 . S
C2252 H2237 0.960 . S
C2252 H2238 0.960 . S
C2252 H2239 0.960 . S
C2252 C2251 1.524 . S
C2253 C2250 1.403 . S
C2253 C2254 1.392 . S
C2253 C2257 1.495 . S
C2254 C2253 1.392 . S
C2254 C2255 1.385 . S
C2254 C2256 1.478 . S
C2255 H2249 0.930 . S
C2255 C2251 1.400 . S
C2255 C2254 1.385 . S
C2256 C2254 1.478 . S
C2256 C2258 1.381 . S
C2256 C2262 1.383 . S
C2257 C2253 1.495 . S
C2257 H2263 0.959 . S
C2257 H2264 0.961 . S
C2257 H2265 0.960 . S
C2258 C2256 1.381 . S
C2258 C2259 1.394 . S
C2258 H2266 0.930 . S
C2259 C2258 1.394 . S
C2259 C2260 1.383 . S
C2259 H2267 0.929 . S
C2260 C2259 1.383 . S
C2260 C2261 1.377 . S
C2261 H2245 0.930 . S
C2261 C2260 1.377 . S
C2261 C2262 1.379 . S
C2262 H2246 0.931 . S
C2262 C2256 1.383 . S
C2262 C2261 1.379 . S
H2263 C2257 0.959 . S
H2264 C2257 0.961 . S
H2265 C2257 0.960 . S
H2266 C2258 0.930 . S
H2267 C2259 0.929 . S
H2268 C2276 0.929 . S
H2269 C2278 0.930 . S
H2270 C2280 0.930 . S
H2271 C2283 0.929 . S
H2272 C2286 0.930 . S
H2273 C2288 0.960 . S
H2274 C2288 0.960 . S
H2275 C2288 0.960 . S
C2276 H2268 0.929 . S
C2276 C2277 1.377 . S
C2276 C2278 1.384 . S
C2277 C2276 1.377 . S
C2277 C2283 1.390 . S
C2278 H2269 0.930 . S
C2278 C2276 1.384 . S
C2278 C2279 1.372 . S
C2279 C2278 1.372 . S
C2279 C2280 1.400 . S
C2279 C2284 1.490 . S
C2280 H2270 0.930 . S
C2280 C2279 1.400 . S
C2280 C2283 1.386 . S
H2281 C2297 0.930 . S
H2282 C2298 0.931 . S
C2283 H2271 0.929 . S
C2283 C2277 1.390 . S
C2283 C2280 1.386 . S
C2284 C2279 1.490 . S
C2284 C2286 1.395 . S
C2284 C2287 1.403 . S
H2285 C2291 0.930 . S
C2286 H2272 0.930 . S
C2286 C2284 1.395 . S
C2286 C2289 1.403 1_565 S
C2287 C2284 1.403 . S
C2287 C2288 1.524 . S
C2287 C2291 1.400 . S
C2288 H2273 0.960 . S
C2288 H2274 0.960 . S
C2288 H2275 0.960 . S
C2288 C2287 1.524 . S
C2289 C2286 1.403 1_545 S
C2289 C2290 1.392 . S
C2289 C2293 1.495 . S
C2290 C2289 1.392 . S
C2290 C2291 1.385 1_545 S
C2290 C2292 1.478 . S
C2291 H2285 0.930 . S
C2291 C2287 1.400 . S
C2291 C2290 1.385 1_565 S
C2292 C2290 1.478 . S
C2292 C2294 1.381 . S
C2292 C2298 1.383 . S
C2293 C2289 1.495 . S
C2293 H2299 0.959 . S
C2293 H2300 0.961 . S
C2293 H2301 0.960 . S
C2294 C2292 1.381 . S
C2294 C2295 1.394 . S
C2294 H2302 0.930 . S
C2295 C2294 1.394 . S
C2295 C2296 1.383 . S
C2295 H2303 0.929 . S
C2296 C2295 1.383 . S
C2296 C2297 1.377 . S
C2297 H2281 0.930 . S
C2297 C2296 1.377 . S
C2297 C2298 1.379 . S
C2298 H2282 0.931 . S
C2298 C2292 1.383 . S
C2298 C2297 1.379 . S
H2299 C2293 0.959 . S
H2300 C2293 0.961 . S
H2301 C2293 0.960 . S
H2302 C2294 0.930 . S
H2303 C2295 0.929 . S
H2304 C2312 0.929 . S
H2305 C2314 0.930 . S
H2306 C2316 0.930 . S
H2307 C2319 0.929 1_545 S
H2308 C2322 0.930 . S
H2309 C2324 0.960 . S
H2310 C2324 0.960 . S
H2311 C2324 0.960 . S
C2312 H2304 0.929 . S
C2312 C2313 1.377 . S
C2312 C2314 1.384 . S
C2313 C2312 1.377 . S
C2313 C2319 1.390 . S
C2314 H2305 0.930 . S
C2314 C2312 1.384 . S
C2314 C2315 1.372 . S
C2315 C2314 1.372 . S
C2315 C2316 1.400 . S
C2315 C2320 1.490 . S
C2316 H2306 0.930 . S
C2316 C2315 1.400 . S
C2316 C2319 1.386 . S
H2317 C2333 0.930 . S
H2318 C2334 0.931 . S
C2319 H2307 0.929 1_565 S
C2319 C2313 1.390 . S
C2319 C2316 1.386 . S
C2320 C2315 1.490 . S
C2320 C2322 1.395 . S
C2320 C2323 1.403 . S
H2321 C2327 0.930 . S
C2322 H2308 0.930 . S
C2322 C2320 1.395 . S
C2322 C2325 1.403 . S
C2323 C2320 1.403 . S
C2323 C2324 1.524 . S
C2323 C2327 1.400 . S
C2324 H2309 0.960 . S
C2324 H2310 0.960 . S
C2324 H2311 0.960 . S
C2324 C2323 1.524 . S
C2325 C2322 1.403 . S
C2325 C2326 1.392 . S
C2325 C2329 1.495 . S
C2326 C2325 1.392 . S
C2326 C2327 1.385 . S
C2326 C2328 1.478 1_455 S
C2327 H2321 0.930 . S
C2327 C2323 1.400 . S
C2327 C2326 1.385 . S
C2328 C2326 1.478 1_655 S
C2328 C2330 1.381 . S
C2328 C2334 1.383 . S
C2329 C2325 1.495 . S
C2329 H2335 0.959 . S
C2329 H2336 0.961 . S
C2329 H2337 0.960 . S
C2330 C2328 1.381 . S
C2330 C2331 1.394 . S
C2330 H2338 0.930 1_655 S
C2331 C2330 1.394 . S
C2331 C2332 1.383 . S
C2331 H2339 0.929 . S
C2332 C2331 1.383 . S
C2332 C2333 1.377 . S
C2333 H2317 0.930 . S
C2333 C2332 1.377 . S
C2333 C2334 1.379 . S
C2334 H2318 0.931 . S
C2334 C2328 1.383 . S
C2334 C2333 1.379 . S
H2335 C2329 0.959 . S
H2336 C2329 0.961 . S
H2337 C2329 0.960 . S
H2338 C2330 0.930 1_455 S
H2339 C2331 0.929 . S
H2340 C2348 0.929 . S
H2341 C2350 0.930 . S
H2342 C2352 0.930 . S
H2343 C2355 0.929 . S
H2344 C2358 0.930 . S
H2345 C2360 0.960 . S
H2346 C2360 0.960 . S
H2347 C2360 0.960 . S
C2348 H2340 0.929 . S
C2348 C2349 1.377 . S
C2348 C2350 1.384 . S
C2349 C2348 1.377 . S
C2349 C2355 1.390 . S
C2350 H2341 0.930 . S
C2350 C2348 1.384 . S
C2350 C2351 1.372 . S
C2351 C2350 1.372 . S
C2351 C2352 1.400 . S
C2351 C2356 1.490 . S
C2352 H2342 0.930 . S
C2352 C2351 1.400 . S
C2352 C2355 1.386 . S
H2353 C2369 0.930 . S
H2354 C2370 0.931 . S
C2355 H2343 0.929 . S
C2355 C2349 1.390 . S
C2355 C2352 1.386 . S
C2356 C2351 1.490 . S
C2356 C2358 1.395 . S
C2356 C2359 1.403 . S
H2357 C2363 0.930 . S
C2358 H2344 0.930 . S
C2358 C2356 1.395 . S
C2358 C2361 1.403 . S
C2359 C2356 1.403 . S
C2359 C2360 1.524 . S
C2359 C2363 1.400 . S
C2360 H2345 0.960 . S
C2360 H2346 0.960 . S
C2360 H2347 0.960 . S
C2360 C2359 1.524 . S
C2361 C2358 1.403 . S
C2361 C2362 1.392 . S
C2361 C2365 1.495 . S
C2362 C2361 1.392 . S
C2362 C2363 1.385 . S
C2362 C2364 1.478 . S
C2363 H2357 0.930 . S
C2363 C2359 1.400 . S
C2363 C2362 1.385 . S
C2364 C2362 1.478 . S
C2364 C2366 1.381 . S
C2364 C2370 1.383 . S
C2365 C2361 1.495 . S
C2365 H2371 0.959 . S
C2365 H2372 0.961 . S
C2365 H2373 0.960 . S
C2366 C2364 1.381 . S
C2366 C2367 1.394 . S
C2366 H2374 0.930 . S
C2367 C2366 1.394 . S
C2367 C2368 1.383 . S
C2367 H2375 0.929 . S
C2368 C2367 1.383 . S
C2368 C2369 1.377 . S
C2369 H2353 0.930 . S
C2369 C2368 1.377 . S
C2369 C2370 1.379 . S
C2370 H2354 0.931 . S
C2370 C2364 1.383 . S
C2370 C2369 1.379 . S
H2371 C2365 0.959 . S
H2372 C2365 0.961 . S
H2373 C2365 0.960 . S
H2374 C2366 0.930 . S
H2375 C2367 0.929 . S
H2376 C2384 0.929 . S
H2377 C2386 0.930 . S
H2378 C2388 0.930 . S
H2379 C2391 0.929 . S
H2380 C2394 0.930 . S
H2381 C2396 0.960 . S
H2382 C2396 0.960 . S
H2383 C2396 0.960 . S
C2384 H2376 0.929 . S
C2384 C2385 1.377 . S
C2384 C2386 1.384 . S
C2385 C2384 1.377 . S
C2385 C2391 1.390 . S
C2386 H2377 0.930 . S
C2386 C2384 1.384 . S
C2386 C2387 1.372 . S
C2387 C2386 1.372 . S
C2387 C2388 1.400 . S
C2387 C2392 1.490 . S
C2388 H2378 0.930 . S
C2388 C2387 1.400 . S
C2388 C2391 1.386 . S
H2389 C2405 0.930 . S
H2390 C2406 0.931 . S
C2391 H2379 0.929 . S
C2391 C2385 1.390 . S
C2391 C2388 1.386 . S
C2392 C2387 1.490 . S
C2392 C2394 1.395 . S
C2392 C2395 1.403 . S
H2393 C2399 0.930 . S
C2394 H2380 0.930 . S
C2394 C2392 1.395 . S
C2394 C2397 1.403 . S
C2395 C2392 1.403 . S
C2395 C2396 1.524 . S
C2395 C2399 1.400 . S
C2396 H2381 0.960 . S
C2396 H2382 0.960 . S
C2396 H2383 0.960 . S
C2396 C2395 1.524 . S
C2397 C2394 1.403 . S
C2397 C2398 1.392 . S
C2397 C2401 1.495 . S
C2398 C2397 1.392 . S
C2398 C2399 1.385 . S
C2398 C2400 1.478 . S
C2399 H2393 0.930 . S
C2399 C2395 1.400 . S
C2399 C2398 1.385 . S
C2400 C2398 1.478 . S
C2400 C2402 1.381 . S
C2400 C2406 1.383 . S
C2401 C2397 1.495 . S
C2401 H2407 0.959 . S
C2401 H2408 0.961 . S
C2401 H2409 0.960 . S
C2402 C2400 1.381 . S
C2402 C2403 1.394 . S
C2402 H2410 0.930 . S
C2403 C2402 1.394 . S
C2403 C2404 1.383 . S
C2403 H2411 0.929 . S
C2404 C2403 1.383 . S
C2404 C2405 1.377 . S
C2405 H2389 0.930 . S
C2405 C2404 1.377 . S
C2405 C2406 1.379 . S
C2406 H2390 0.931 . S
C2406 C2400 1.383 . S
C2406 C2405 1.379 . S
H2407 C2401 0.959 . S
H2408 C2401 0.961 . S
H2409 C2401 0.960 . S
H2410 C2402 0.930 . S
H2411 C2403 0.929 . S
H2412 C2420 0.929 . S
H2413 C2422 0.930 . S
H2414 C2424 0.930 . S
H2415 C2427 0.929 . S
H2416 C2430 0.930 . S
H2417 C2432 0.960 . S
H2418 C2432 0.960 . S
H2419 C2432 0.960 . S
C2420 H2412 0.929 . S
C2420 C2421 1.377 . S
C2420 C2422 1.384 . S
C2421 C2420 1.377 . S
C2421 C2427 1.390 . S
C2422 H2413 0.930 . S
C2422 C2420 1.384 . S
C2422 C2423 1.372 . S
C2423 C2422 1.372 . S
C2423 C2424 1.400 . S
C2423 C2428 1.490 . S
C2424 H2414 0.930 . S
C2424 C2423 1.400 . S
C2424 C2427 1.386 . S
H2425 C2441 0.930 . S
H2426 C2442 0.931 . S
C2427 H2415 0.929 . S
C2427 C2421 1.390 . S
C2427 C2424 1.386 . S
C2428 C2423 1.490 . S
C2428 C2430 1.395 . S
C2428 C2431 1.403 . S
H2429 C2435 0.930 . S
C2430 H2416 0.930 . S
C2430 C2428 1.395 . S
C2430 C2433 1.403 . S
C2431 C2428 1.403 . S
C2431 C2432 1.524 . S
C2431 C2435 1.400 . S
C2432 H2417 0.960 . S
C2432 H2418 0.960 . S
C2432 H2419 0.960 . S
C2432 C2431 1.524 . S
C2433 C2430 1.403 . S
C2433 C2434 1.392 . S
C2433 C2437 1.495 . S
C2434 C2433 1.392 . S
C2434 C2435 1.385 . S
C2434 C2436 1.478 . S
C2435 H2429 0.930 . S
C2435 C2431 1.400 . S
C2435 C2434 1.385 . S
C2436 C2434 1.478 . S
C2436 C2438 1.381 . S
C2436 C2442 1.383 . S
C2437 C2433 1.495 . S
C2437 H2443 0.959 . S
C2437 H2444 0.961 . S
C2437 H2445 0.960 . S
C2438 C2436 1.381 . S
C2438 C2439 1.394 . S
C2438 H2446 0.930 . S
C2439 C2438 1.394 . S
C2439 C2440 1.383 . S
C2439 H2447 0.929 . S
C2440 C2439 1.383 . S
C2440 C2441 1.377 . S
C2441 H2425 0.930 . S
C2441 C2440 1.377 . S
C2441 C2442 1.379 . S
C2442 H2426 0.931 . S
C2442 C2436 1.383 . S
C2442 C2441 1.379 . S
H2443 C2437 0.959 . S
H2444 C2437 0.961 . S
H2445 C2437 0.960 . S
H2446 C2438 0.930 . S
H2447 C2439 0.929 . S
H2448 C2456 0.929 . S
H2449 C2458 0.930 . S
H2450 C2460 0.930 . S
H2451 C2463 0.929 . S
H2452 C2466 0.930 . S
H2453 C2468 0.960 . S
H2454 C2468 0.960 . S
H2455 C2468 0.960 . S
C2456 H2448 0.929 . S
C2456 C2457 1.377 . S
C2456 C2458 1.384 . S
C2457 C2456 1.377 . S
C2457 C2463 1.390 . S
C2458 H2449 0.930 . S
C2458 C2456 1.384 . S
C2458 C2459 1.372 . S
C2459 C2458 1.372 . S
C2459 C2460 1.400 . S
C2459 C2464 1.490 . S
C2460 H2450 0.930 . S
C2460 C2459 1.400 . S
C2460 C2463 1.386 . S
H2461 C2477 0.930 . S
H2462 C2478 0.931 . S
C2463 H2451 0.929 . S
C2463 C2457 1.390 . S
C2463 C2460 1.386 . S
C2464 C2459 1.490 . S
C2464 C2466 1.395 . S
C2464 C2467 1.403 . S
H2465 C2471 0.930 . S
C2466 H2452 0.930 . S
C2466 C2464 1.395 . S
C2466 C2469 1.403 . S
C2467 C2464 1.403 . S
C2467 C2468 1.524 . S
C2467 C2471 1.400 . S
C2468 H2453 0.960 . S
C2468 H2454 0.960 . S
C2468 H2455 0.960 . S
C2468 C2467 1.524 . S
C2469 C2466 1.403 . S
C2469 C2470 1.392 . S
C2469 C2473 1.495 . S
C2470 C2469 1.392 . S
C2470 C2471 1.385 . S
C2470 C2472 1.478 . S
C2471 H2465 0.930 . S
C2471 C2467 1.400 . S
C2471 C2470 1.385 . S
C2472 C2470 1.478 . S
C2472 C2474 1.381 . S
C2472 C2478 1.383 . S
C2473 C2469 1.495 . S
C2473 H2479 0.959 . S
C2473 H2480 0.961 . S
C2473 H2481 0.960 . S
C2474 C2472 1.381 . S
C2474 C2475 1.394 . S
C2474 H2482 0.930 . S
C2475 C2474 1.394 . S
C2475 C2476 1.383 . S
C2475 H2483 0.929 . S
C2476 C2475 1.383 . S
C2476 C2477 1.377 . S
C2477 H2461 0.930 . S
C2477 C2476 1.377 . S
C2477 C2478 1.379 . S
C2478 H2462 0.931 . S
C2478 C2472 1.383 . S
C2478 C2477 1.379 . S
H2479 C2473 0.959 . S
H2480 C2473 0.961 . S
H2481 C2473 0.960 . S
H2482 C2474 0.930 . S
H2483 C2475 0.929 . S
C549 N6 0.567 . S
C568 C76 0.547 . S
C585 C16 0.569 . S
C604 N36 0.625 . S
C621 C46 0.566 . S
C640 N66 0.637 . S
C657 N96 0.566 . S
C676 C136 0.552 . S
C693 C166 0.556 . S
C712 N126 0.530 . S
C729 N156 0.587 . S
C748 C106 0.524 . S
C765 C256 0.555 . S
C784 N186 0.533 . S
C801 C196 0.558 . S
C820 N216 0.522 . S
C837 N246 0.567 . S
C856 C226 0.547 . S
C873 C316 0.560 . S
C892 N276 0.517 . S
C909 N306 0.582 . S
C928 C346 0.515 . S
C945 C286 0.553 . S
C964 N336 0.555 . S
C981 N366 0.573 . S
C1000 C436 0.607 . S
C1017 C376 0.572 . S
C1036 N396 0.560 . S
C1053 C406 0.572 . S
C1072 N426 0.590 . S
C1089 C496 0.567 . S
C1108 N456 0.636 . S
C1125 C526 0.571 . S
C1144 N486 0.608 . S
C1161 C466 0.572 . S
C1180 N516 0.604 . S
C1197 C1 1.689 . S
C1216 C151 1.697 . S
C1233 C91 1.691 . S
C1252 C31 1.678 . S
C1269 C121 1.690 . S
C1288 C61 1.674 . S
C1305 C181 1.690 . S
C1324 C331 1.673 . S
C1341 C211 1.687 . S
C1360 C271 1.683 . S
C1377 C301 1.689 . S
C1396 C241 1.698 . S
C1413 C361 1.687 . S
C1432 C511 1.684 . S
C1449 C451 1.692 . S
C1468 C391 1.683 . S
C1485 C481 1.690 . S
C1504 C421 1.674 . S
C1521 C310 1.952 . S
C1540 C10 1.956 1_565 S
C1557 C40 1.946 . S
C1576 C340 1.937 . S
C1593 C280 1.949 . S
C1612 C70 1.937 . S
C1629 C100 1.947 1_655 S
C1648 C430 1.945 . S
C1665 C130 1.947 . S
C1684 C370 1.931 . S
C1701 C400 1.946 . S
C1720 C160 1.939 . S
C1737 C490 1.949 . S
C1756 C190 1.953 . S
C1773 C220 1.948 . S
C1792 C520 1.950 . S
C1809 C250 1.950 . S
C1828 C460 1.958 . S
C1845 C87 1.179 . S
C1864 N14 1.168 . S
C1881 C27 1.179 . S
C1900 N44 1.178 . S
C1917 N74 1.159 . S
C1936 C57 1.181 . S
C1953 C147 1.177 . S
C1972 N104 1.179 . S
C1989 C177 1.180 . S
C2008 N134 1.172 . S
C2025 N164 1.158 . S
C2044 C117 1.186 . S
C2061 C267 1.177 . S
C2080 N194 1.123 . S
C2097 N224 1.148 . S
C2116 C207 1.175 . S
C2133 C237 1.180 . S
C2152 N254 1.158 . S
C2169 N284 1.157 . S
C2188 C327 1.170 . S
C2205 N314 1.148 . S
C2224 C357 1.179 . S
C2241 C297 1.180 . S
C2260 N344 1.151 1_655 S
C2277 N374 1.147 . S
C2296 C447 1.169 . S
C2313 N404 1.158 1_565 S
C2332 C387 1.186 . S
C2349 C417 1.174 . S
C2368 N434 1.129 . S
C2385 N464 1.150 . S
C2404 C507 1.182 . S
C2421 N494 1.149 . S
C2440 C537 1.180 . S
C2457 C477 1.174 . S
C2476 N524 1.141 . S
