# Generated by pormake.
# Topology ukg, (4)-cn, num edge types: 1
# Building blocks:
#     Node 0, Type 0, BuildingBlock: KUFVIS_clean_sbu_0, # of connection points: 4
#     Node 1, Type 0, BuildingBlock: KUFVIS_clean_sbu_0, # of connection points: 4
#     Node 2, Type 0, BuildingBlock: KUFVIS_clean_sbu_0, # of connection points: 4
#     Node 3, Type 0, BuildingBlock: KUFVIS_clean_sbu_0, # of connection points: 4
#     Node 4, Type 0, BuildingBlock: KUFVIS_clean_sbu_0, # of connection points: 4
#     Node 5, Type 0, BuildingBlock: KUFVIS_clean_sbu_0, # of connection points: 4
#     Node 6, Type 0, BuildingBlock: KUFVIS_clean_sbu_0, # of connection points: 4
#     Node 7, Type 0, BuildingBlock: KUFVIS_clean_sbu_0, # of connection points: 4
#     Edge 8, Type (0, 0), BuildingBlock: FUNLAD_clean_linker_0, # of connection points: 2
#     Edge 9, Type (0, 0), BuildingBlock: FUNLAD_clean_linker_0, # of connection points: 2
#     Edge 10, Type (0, 0), BuildingBlock: FUNLAD_clean_linker_0, # of connection points: 2
#     Edge 11, Type (0, 0), BuildingBlock: FUNLAD_clean_linker_0, # of connection points: 2
#     Edge 12, Type (0, 0), BuildingBlock: FUNLAD_clean_linker_0, # of connection points: 2
#     Edge 13, Type (0, 0), BuildingBlock: FUNLAD_clean_linker_0, # of connection points: 2
#     Edge 14, Type (0, 0), BuildingBlock: FUNLAD_clean_linker_0, # of connection points: 2
#     Edge 15, Type (0, 0), BuildingBlock: FUNLAD_clean_linker_0, # of connection points: 2
#     Edge 16, Type (0, 0), BuildingBlock: FUNLAD_clean_linker_0, # of connection points: 2
#     Edge 17, Type (0, 0), BuildingBlock: FUNLAD_clean_linker_0, # of connection points: 2
#     Edge 18, Type (0, 0), BuildingBlock: FUNLAD_clean_linker_0, # of connection points: 2
#     Edge 19, Type (0, 0), BuildingBlock: FUNLAD_clean_linker_0, # of connection points: 2
#     Edge 20, Type (0, 0), BuildingBlock: FUNLAD_clean_linker_0, # of connection points: 2
#     Edge 21, Type (0, 0), BuildingBlock: FUNLAD_clean_linker_0, # of connection points: 2
#     Edge 22, Type (0, 0), BuildingBlock: FUNLAD_clean_linker_0, # of connection points: 2
#     Edge 23, Type (0, 0), BuildingBlock: FUNLAD_clean_linker_0, # of connection points: 2
# Relax obj value: 0.156
# Max RMSD: 0.244
# Mean RMSD: 0.244
data_MOF--net-ukg--node1-KUFVIS_clean_sbu_0--edge1-FUNLAD_clean_linker_0
_symmetry_space_group_name_H-M    P1
_symmetry_Int_Tables_number       1
_symmetry_cell_setting            triclinic
loop_
_symmetry_equiv_pos_as_xyz
'x, y, z'
_cell_length_a     35.372677
_cell_length_b     35.33568
_cell_length_c     41.760919
_cell_angle_alpha  89.938301
_cell_angle_beta   89.978208
_cell_angle_gamma 89.934701
loop_
_atom_site_label
_atom_site_type_symbol
_atom_site_fract_x
_atom_site_fract_y
_atom_site_fract_z
_atom_type_partial_charge
Mn0 Mn 0.0108 0.66604 0.14123 0.0
Mn1 Mn 0.0083 0.71905 0.07412 0.0
C2 C -0.00107 0.72995 0.14478 0.0
C3 C 0.97915 0.62792 0.178 0.0
C4 C 0.08116 0.69427 0.10612 0.0
O5 O 0.00724 0.62663 0.10601 0.0
O6 O 0.00301 0.66442 0.06272 0.0
C7 C 0.92873 0.70473 0.05594 0.0
N8 N 0.95673 0.7295 0.06371 0.0
C9 C 0.91439 0.78254 0.05882 0.0
C10 C 0.88516 0.75763 0.05054 0.0
C11 C 0.89237 0.71855 0.04913 0.0
C12 C 0.95012 0.76715 0.06511 0.0
H13 H 0.93407 0.67466 0.05505 0.0
C14 C 0.00376 0.63159 0.0759 0.0
O15 O 0.0157 0.62599 0.17496 0.0
O16 O 0.96135 0.6506 0.15885 0.0
N17 N 0.01276 0.7723 0.08151 0.0
C18 C 0.04363 0.79235 0.09111 0.0
C19 C 0.0409 0.83179 0.09452 0.0
C20 C 0.00658 0.85021 0.08783 0.0
C21 C 0.97536 0.82904 0.07756 0.0
C22 C 0.97985 0.78984 0.07434 0.0
H23 H 0.07003 0.77833 0.09643 0.0
O24 O 0.01057 0.71112 0.16953 0.0
O25 O 0.99349 0.71048 0.1187 0.0
O26 O 0.06608 0.67647 0.12951 0.0
O27 O 0.06221 0.7104 0.08388 0.0
C28 C 0.93977 0.84519 0.07096 0.0
C29 C 0.9093 0.82196 0.06161 0.0
H30 H 0.85701 0.76815 0.04547 0.0
H31 H 0.86991 0.69913 0.04292 0.0
H32 H 0.06512 0.84793 0.10245 0.0
H33 H 0.00448 0.88059 0.0908 0.0
H34 H 0.93541 0.87541 0.07334 0.0
H35 H 0.88197 0.83467 0.05693 0.0
Mn36 Mn 0.31327 0.50851 0.6513 0.0
Mn37 Mn 0.2615 0.51184 0.58359 0.0
C38 C 0.24851 0.50191 0.65384 0.0
C39 C 0.34766 0.47275 0.6882 0.0
C40 C 0.29101 0.58188 0.61715 0.0
O41 O 0.35304 0.50242 0.61658 0.0
O42 O 0.31583 0.50317 0.57287 0.0
C43 C 0.27093 0.43193 0.56394 0.0
N44 N 0.24792 0.46141 0.57184 0.0
C45 C 0.19234 0.42313 0.56475 0.0
C46 C 0.21543 0.39243 0.55631 0.0
C47 C 0.2549 0.39686 0.55594 0.0
C48 C 0.20991 0.45748 0.57224 0.0
H49 H 0.30129 0.43514 0.56384 0.0
C50 C 0.34834 0.50069 0.58633 0.0
O51 O 0.35266 0.50911 0.68587 0.0
O52 O 0.32417 0.45747 0.6683 0.0
N53 N 0.20855 0.51978 0.5902 0.0
C54 C 0.19039 0.55168 0.60023 0.0
C55 C 0.15081 0.55165 0.6028 0.0
C56 C 0.13032 0.51897 0.5948 0.0
C57 C 0.14959 0.48667 0.5841 0.0
C58 C 0.18905 0.48846 0.58178 0.0
H59 H 0.206 0.57682 0.60655 0.0
O60 O 0.2677 0.51153 0.67896 0.0
O61 O 0.26803 0.49532 0.62796 0.0
O62 O 0.30776 0.56486 0.64017 0.0
O63 O 0.27343 0.56465 0.59475 0.0
C64 C 0.13127 0.45254 0.57625 0.0
C65 C 0.15263 0.42078 0.5666 0.0
H66 H 0.20319 0.36525 0.55034 0.0
H67 H 0.27291 0.37324 0.54962 0.0
H68 H 0.13614 0.57669 0.61107 0.0
H69 H 0.09981 0.51894 0.59711 0.0
H70 H 0.1008 0.45027 0.57789 0.0
H71 H 0.13825 0.39458 0.56097 0.0
Mn72 Mn 0.48425 0.82062 0.16349 0.0
Mn73 Mn 0.49035 0.77137 0.09453 0.0
C74 C 0.49983 0.75751 0.16541 0.0
C75 C 0.51321 0.86117 0.19968 0.0
C76 C 0.41595 0.78936 0.12745 0.0
O77 O 0.48408 0.86144 0.12943 0.0
O78 O 0.49303 0.82682 0.08497 0.0
C79 C 0.56944 0.79079 0.07827 0.0
N80 N 0.54259 0.76419 0.08452 0.0
C81 C 0.58774 0.71374 0.07827 0.0
C82 C 0.61581 0.74059 0.07152 0.0
C83 C 0.60662 0.77928 0.07157 0.0
C84 C 0.55116 0.7269 0.08467 0.0
H85 H 0.56255 0.82057 0.0785 0.0
C86 C 0.48917 0.85865 0.09934 0.0
O87 O 0.47658 0.85918 0.19792 0.0
O88 O 0.53264 0.83998 0.18045 0.0
N89 N 0.48845 0.71755 0.09953 0.0
C90 C 0.45814 0.69529 0.10667 0.0
C91 C 0.46267 0.65583 0.10795 0.0
C92 C 0.49814 0.63965 0.10147 0.0
C93 C 0.52867 0.66306 0.09338 0.0
C94 C 0.5224 0.70219 0.09227 0.0
H95 H 0.4308 0.70755 0.11168 0.0
O96 O 0.48833 0.77503 0.19087 0.0
O97 O 0.50401 0.77812 0.13968 0.0
O98 O 0.42981 0.80618 0.15187 0.0
O99 O 0.43596 0.77668 0.10426 0.0
C100 C 0.56519 0.64916 0.08676 0.0
C101 C 0.59472 0.67448 0.07927 0.0
H102 H 0.64456 0.73183 0.06646 0.0
H103 H 0.62817 0.80017 0.06655 0.0
H104 H 0.43892 0.63794 0.11405 0.0
H105 H 0.5016 0.60922 0.10275 0.0
H106 H 0.57094 0.61906 0.08758 0.0
H107 H 0.62274 0.66347 0.07445 0.0
Mn108 Mn 0.17872 0.98542 0.64691 0.0
Mn109 Mn 0.23243 0.00273 0.58182 0.0
C110 C 0.23962 0.0071 0.65334 0.0
C111 C 0.13374 0.00656 0.68329 0.0
C112 C 0.21801 0.92386 0.60825 0.0
O113 O 0.14074 0.985 0.61041 0.0
O114 O 0.17788 0.00352 0.5694 0.0
C115 C 0.20944 0.08215 0.5702 0.0
N116 N 0.23712 0.05615 0.57579 0.0
C117 C 0.28511 0.10436 0.57495 0.0
C118 C 0.25717 0.13157 0.56871 0.0
C119 C 0.21916 0.12041 0.56642 0.0
C120 C 0.27375 0.0666 0.57823 0.0
H121 H 0.18015 0.07379 0.56885 0.0
C122 C 0.14558 0.99488 0.58131 0.0
O123 O 0.13922 0.9706 0.67875 0.0
O124 O 0.15356 0.0299 0.66622 0.0
N125 N 0.28563 0.00338 0.59028 0.0
C126 C 0.30889 0.97397 0.598 0.0
C127 C 0.3477 0.98059 0.60225 0.0
C128 C 0.36224 0.01727 0.5983 0.0
C129 C 0.33786 0.04697 0.5899 0.0
C130 C 0.29948 0.03861 0.58569 0.0
H131 H 0.29791 0.94573 0.60117 0.0
O132 O 0.22195 0.99104 0.6769 0.0
O133 O 0.22047 0.01149 0.62697 0.0
O134 O 0.19893 0.93402 0.63273 0.0
O135 O 0.23015 0.94703 0.58705 0.0
C136 C 0.35001 0.08467 0.58616 0.0
C137 C 0.32365 0.11335 0.57872 0.0
H138 H 0.26452 0.16116 0.56602 0.0
H139 H 0.19739 0.14129 0.56192 0.0
H140 H 0.36633 0.95751 0.60871 0.0
H141 H 0.39213 0.02233 0.60192 0.0
H142 H 0.37949 0.092 0.58935 0.0
H143 H 0.33326 0.14231 0.57633 0.0
Mn144 Mn 0.98576 0.30548 0.84745 0.0
Mn145 Mn 0.98747 0.24969 0.91295 0.0
C146 C 0.99039 0.24102 0.84151 0.0
C147 C 0.01935 0.34175 0.81051 0.0
C148 C 0.91506 0.28078 0.88442 0.0
O149 O 0.99501 0.34294 0.8832 0.0
O150 O 0.99636 0.30359 0.92547 0.0
C151 C 0.06874 0.2592 0.92773 0.0
N152 N 0.03896 0.23619 0.92089 0.0
C153 C 0.07869 0.18089 0.92252 0.0
C154 C 0.10973 0.20397 0.92983 0.0
C155 C 0.10473 0.2433 0.93241 0.0
C156 C 0.04348 0.19833 0.91827 0.0
H157 H 0.0651 0.28947 0.92949 0.0
C158 C -0.00171 0.33677 0.91311 0.0
O159 O 0.98336 0.34734 0.81491 0.0
O160 O 0.03549 0.31655 0.82838 0.0
N161 N 0.97959 0.19695 0.90508 0.0
C162 C 0.94686 0.17873 0.89748 0.0
C163 C 0.94713 0.13926 0.89356 0.0
C164 C 0.98088 0.11891 0.89788 0.0
C165 C 0.014 0.13818 0.90643 0.0
C166 C 0.01196 0.17751 0.91023 0.0
H167 H 0.92085 0.19423 0.89404 0.0
O168 O 0.97971 0.26224 0.81787 0.0
O169 O -0.00013 0.25842 0.86786 0.0
O170 O 0.93035 0.29963 0.86162 0.0
O171 O 0.93389 0.26166 0.90502 0.0
C172 C 0.04908 0.11999 0.91087 0.0
C173 C 0.08141 0.14134 0.91886 0.0
H174 H 0.13756 0.19183 0.9333 0.0
H175 H 0.12858 0.26132 0.93787 0.0
H176 H 0.92142 0.12458 0.88708 0.0
H177 H 0.98105 0.08852 0.89454 0.0
H178 H 0.05157 0.08964 0.90794 0.0
H179 H 0.10828 0.12707 0.92196 0.0
Mn180 Mn 0.67322 0.48696 0.35529 0.0
Mn181 Mn 0.72996 0.49655 0.41963 0.0
C182 C 0.73475 0.50593 0.34808 0.0
C183 C 0.62753 0.51387 0.32233 0.0
C184 C 0.71149 0.42075 0.38927 0.0
O185 O 0.63674 0.48512 0.39277 0.0
O186 O 0.67602 0.49739 0.4338 0.0
C187 C 0.70958 0.5752 0.43679 0.0
N188 N 0.73628 0.54921 0.42849 0.0
C189 C 0.7854 0.59621 0.43005 0.0
C190 C 0.75848 0.62344 0.43886 0.0
C191 C 0.72039 0.61289 0.4422 0.0
C192 C 0.77298 0.55906 0.42515 0.0
H193 H 0.68023 0.56726 0.43916 0.0
C194 C 0.64293 0.49134 0.42237 0.0
O195 O 0.63141 0.47733 0.324 0.0
O196 O 0.64959 0.53434 0.33992 0.0
N197 N 0.78282 0.49652 0.40982 0.0
C198 C 0.8051 0.46705 0.40044 0.0
C199 C 0.84391 0.47303 0.39546 0.0
C200 C 0.85945 0.5091 0.40047 0.0
C201 C 0.8361 0.53881 0.41073 0.0
C202 C 0.79769 0.53109 0.41555 0.0
H203 H 0.79332 0.43928 0.3965 0.0
O204 O 0.71517 0.49307 0.32424 0.0
O205 O 0.717 0.50919 0.37531 0.0
O206 O 0.6918 0.43335 0.36589 0.0
O207 O 0.72559 0.44175 0.41117 0.0
C208 C 0.84931 0.5759 0.41587 0.0
C209 C 0.82397 0.6046 0.42549 0.0
H210 H 0.76667 0.65258 0.4429 0.0
H211 H 0.69941 0.63378 0.44883 0.0
H212 H 0.86176 0.44994 0.38763 0.0
H213 H 0.88932 0.51369 0.3963 0.0
H214 H 0.87884 0.58276 0.41221 0.0
H215 H 0.8344 0.63309 0.42907 0.0
Mn216 Mn 0.50579 0.18247 0.85998 0.0
Mn217 Mn 0.49767 0.23089 0.92908 0.0
C218 C 0.4944 0.2465 0.85855 0.0
C219 C 0.47713 0.14623 0.82031 0.0
C220 C 0.57312 0.20938 0.89992 0.0
O221 O 0.49958 0.14088 0.89295 0.0
O222 O 0.49295 0.17535 0.93782 0.0
C223 C 0.41726 0.2135 0.94207 0.0
N224 N 0.44512 0.23941 0.937 0.0
C225 C 0.40096 0.29099 0.94142 0.0
C226 C 0.37185 0.26488 0.94692 0.0
C227 C 0.38004 0.22597 0.94721 0.0
C228 C 0.43754 0.27691 0.93664 0.0
H229 H 0.42337 0.18356 0.94208 0.0
C230 C 0.49453 0.14355 0.92306 0.0
O231 O 0.51341 0.14432 0.82509 0.0
O232 O 0.4579 0.16814 0.83908 0.0
N233 N 0.50128 0.28467 0.92453 0.0
C234 C 0.53241 0.3061 0.91817 0.0
C235 C 0.5289 0.34564 0.91646 0.0
C236 C 0.49354 0.36273 0.92157 0.0
C237 C 0.46206 0.34013 0.92864 0.0
C238 C 0.46734 0.30089 0.93028 0.0
H239 H 0.55964 0.29311 0.91409 0.0
O240 O 0.50783 0.22913 0.8337 0.0
O241 O 0.48661 0.22545 0.88337 0.0
O242 O 0.55996 0.19223 0.8754 0.0
O243 O 0.55235 0.2242 0.92165 0.0
C244 C 0.42555 0.35495 0.93368 0.0
C245 C 0.39502 0.3304 0.94003 0.0
H246 H 0.34306 0.27437 0.95072 0.0
H247 H 0.35769 0.20563 0.95128 0.0
H248 H 0.55335 0.36289 0.91106 0.0
H249 H 0.49088 0.39321 0.91995 0.0
H250 H 0.42058 0.38517 0.93246 0.0
H251 H 0.36702 0.34212 0.9436 0.0
Mn252 Mn 0.83214 0.01385 0.3416 0.0
Mn253 Mn 0.77717 0.01526 0.40771 0.0
C254 C 0.76764 0.00957 0.33647 0.0
C255 C 0.86857 0.98013 0.30491 0.0
C256 C 0.80899 0.0861 0.37734 0.0
O257 O 0.86972 0.00416 0.37729 0.0
O258 O 0.83095 0.00593 0.42005 0.0
C259 C 0.78545 0.93434 0.42477 0.0
N260 N 0.7629 0.96434 0.41729 0.0
C261 C 0.70692 0.92597 0.42119 0.0
C262 C 0.72952 0.89473 0.42919 0.0
C263 C 0.76896 0.89894 0.43094 0.0
C264 C 0.72494 0.96059 0.41548 0.0
H265 H 0.81579 0.93737 0.42592 0.0
C266 C 0.86372 0.00222 0.40731 0.0
O267 O 0.87376 0.01618 0.30924 0.0
O268 O 0.84315 0.96383 0.32249 0.0
N269 N 0.72454 0.02385 0.39996 0.0
C270 C 0.70685 0.05655 0.39119 0.0
C271 C 0.66736 0.05696 0.38775 0.0
C272 C 0.64645 0.02392 0.39371 0.0
C273 C 0.66521 0.99084 0.40335 0.0
C274 C 0.70459 0.9922 0.40661 0.0
H275 H 0.72279 0.08201 0.38651 0.0
O276 O 0.78847 0.01981 0.31242 0.0
O277 O 0.78537 0.00073 0.36284 0.0
O278 O 0.8271 0.0697 0.35476 0.0
O279 O 0.7898 0.06841 0.39854 0.0
C280 C 0.64644 0.95639 0.40933 0.0
C281 C 0.66729 0.92397 0.4182 0.0
H282 H 0.71693 0.86733 0.4338 0.0
H283 H 0.78661 0.87491 0.43692 0.0
H284 H 0.65309 0.08263 0.38038 0.0
H285 H 0.61604 0.02425 0.39073 0.0
H286 H 0.61603 0.95443 0.40687 0.0
H287 H 0.65258 0.89757 0.42245 0.0
C288 C 0.00304 0.4069 0.92237 0.0
C289 C 0.00321 0.36983 0.93473 0.0
C290 C 0.0056 0.43816 0.94276 0.0
C291 C 0.0082 0.43317 0.97614 0.0
C292 C 0.00956 0.39616 0.9884 0.0
C293 C 0.00692 0.36486 0.96801 0.0
C294 C 0.01032 0.46567 0.99882 0.0
C295 C 0.99658 0.50047 0.99213 0.0
C296 C -0.00158 0.53331 0.01448 0.0
C297 C 0.99423 0.56993 0.00185 0.0
C298 C 0.99571 0.60171 0.02172 0.0
C299 C 0.00114 0.59771 0.05492 0.0
H300 H 0.00534 0.50156 0.0588 0.0
C301 C 0.00461 0.561 0.06771 0.0
C302 C 0.00321 0.52918 0.04779 0.0
H303 H 0.00853 0.55673 0.09318 0.0
H304 H 0.00064 0.41192 0.89686 0.0
H305 H 0.00593 0.46607 0.93211 0.0
H306 H 0.01205 0.3914 0.01395 0.0
H307 H 0.00741 0.33678 0.97843 0.0
H308 H 0.02308 0.46016 0.02198 0.0
H309 H 0.98359 0.50565 0.969 0.0
H310 H 0.99012 0.57405 0.97637 0.0
H311 H 0.9927 0.62945 0.01094 0.0
C312 C 0.4189 0.49868 0.57833 0.0
C313 C 0.38219 0.49691 0.56545 0.0
C314 C 0.45069 0.4973 0.55835 0.0
C315 C 0.44652 0.49385 0.5249 0.0
C316 C 0.40982 0.49157 0.51219 0.0
C317 C 0.37812 0.49301 0.53212 0.0
C318 C 0.47909 0.49382 0.50211 0.0
C319 C 0.51572 0.48988 0.51062 0.0
C320 C 0.54765 0.49047 0.48726 0.0
C321 C 0.58412 0.49915 0.49834 0.0
C322 C 0.61497 0.49971 0.47735 0.0
C323 C 0.61016 0.4913 0.44469 0.0
H324 H 0.51567 0.47351 0.44512 0.0
C325 C 0.5737 0.48227 0.43363 0.0
C326 C 0.54289 0.48166 0.45462 0.0
H327 H 0.56889 0.47523 0.40872 0.0
H328 H 0.42317 0.5019 0.60386 0.0
H329 H 0.47816 0.49984 0.5694 0.0
H330 H 0.40556 0.48893 0.4866 0.0
H331 H 0.35037 0.49146 0.52125 0.0
H332 H 0.47215 0.49762 0.47701 0.0
H333 H 0.52321 0.48682 0.53564 0.0
H334 H 0.58878 0.50575 0.52336 0.0
H335 H 0.64259 0.5067 0.48682 0.0
C336 C 0.49399 0.89326 0.04665 0.0
C337 C 0.49065 0.89418 0.08022 0.0
C338 C 0.49498 0.92688 0.02883 0.0
C339 C 0.49254 0.9623 0.0442 0.0
C340 C 0.48977 0.96313 0.07772 0.0
C341 C 0.48866 0.92961 0.09549 0.0
C342 C 0.49401 -0.001 0.02654 0.0
C343 C 0.48526 0.00299 0.99527 0.0
C344 C 0.48705 0.03971 0.97764 0.0
C345 C 0.49007 0.03897 0.94413 0.0
C346 C 0.4922 0.07255 0.92648 0.0
C347 C 0.49103 0.10794 0.94189 0.0
H348 H 0.48143 0.07717 0.01873 0.0
C349 C 0.48712 0.10877 0.97542 0.0
C350 C 0.48507 0.07511 0.99309 0.0
H351 H 0.48574 0.13545 0.98811 0.0
H352 H 0.49593 0.86654 0.03405 0.0
H353 H 0.49835 0.92481 0.00316 0.0
H354 H 0.48821 0.9899 0.09029 0.0
H355 H 0.48629 0.93161 0.12129 0.0
H356 H 0.5023 0.02367 0.04028 0.0
H357 H 0.47699 0.97832 0.98152 0.0
H358 H 0.49126 0.01223 0.93149 0.0
H359 H 0.49497 0.07064 0.9007 0.0
C360 C 0.89884 0.01457 0.45819 0.0
C361 C 0.89644 0.99585 0.4286 0.0
C362 C 0.9306 0.00981 0.47774 0.0
C363 C 0.96003 0.98544 0.46841 0.0
C364 C 0.9571 0.96584 0.43933 0.0
C365 C 0.92591 0.97153 0.41929 0.0
C366 C 0.99368 0.97977 0.48896 0.0
C367 C 0.01236 0.0091 0.50197 0.0
C368 C 0.04684 0.00401 0.52164 0.0
C369 C 0.07755 0.02854 0.51725 0.0
C370 C 0.11007 0.02487 0.53604 0.0
C371 C 0.11191 0.99745 0.5604 0.0
H372 H 0.0253 0.95715 0.54973 0.0
C373 C 0.08094 0.97315 0.56504 0.0
C374 C 0.04886 0.97607 0.54556 0.0
H375 H 0.0816 0.95174 0.58362 0.0
H376 H 0.87652 0.03352 0.46588 0.0
H377 H 0.93198 0.02482 0.50032 0.0
H378 H 0.97937 0.94674 0.4318 0.0
H379 H 0.9246 0.95659 0.39667 0.0
H380 H 0.00481 0.95125 0.4916 0.0
H381 H 0.0035 0.03784 0.49638 0.0
H382 H 0.07649 0.05041 0.49906 0.0
H383 H 0.1334 0.04411 0.53198 0.0
C384 C 0.14368 0.69797 0.13409 0.0
C385 C 0.12265 0.69887 0.10555 0.0
C386 C 0.18225 0.70662 0.13385 0.0
C387 C 0.2005 0.71589 0.10497 0.0
C388 C 0.17989 0.71496 0.07632 0.0
C389 C 0.14126 0.707 0.07661 0.0
C390 C 0.24097 0.72651 0.10379 0.0
C391 C 0.25783 0.7469 0.12701 0.0
C392 C 0.298 0.75947 0.12589 0.0
C393 C 0.31474 0.77326 0.15407 0.0
C394 C 0.35271 0.78427 0.15445 0.0
C395 C 0.37482 0.78167 0.12658 0.0
H396 H 0.3081 0.74952 0.07504 0.0
C397 C 0.35776 0.76916 0.09812 0.0
C398 C 0.31981 0.75844 0.09768 0.0
H399 H 0.37382 0.76727 0.07608 0.0
H400 H 0.1301 0.69181 0.15676 0.0
H401 H 0.19766 0.70603 0.15624 0.0
H402 H 0.19347 0.72156 0.05373 0.0
H403 H 0.12587 0.70764 0.05419 0.0
H404 H 0.25628 0.71862 0.08234 0.0
H405 H 0.24146 0.75488 0.14798 0.0
H406 H 0.2986 0.77486 0.17609 0.0
H407 H 0.36494 0.79375 0.17682 0.0
C408 C 0.27243 0.64308 0.5914 0.0
C409 C 0.28942 0.6238 0.61715 0.0
C410 C 0.26709 0.68215 0.59248 0.0
C411 C 0.27892 0.70309 0.61929 0.0
C412 C 0.29668 0.68403 0.6447 0.0
C413 C 0.30208 0.64482 0.64362 0.0
C414 C 0.27043 0.7441 0.62253 0.0
C415 C 0.26364 0.76699 0.59734 0.0
C416 C 0.2518 0.80708 0.60079 0.0
C417 C 0.25949 0.83256 0.57585 0.0
C418 C 0.24816 0.87036 0.57803 0.0
C419 C 0.22836 0.88338 0.6051 0.0
H420 H 0.22378 0.80076 0.64682 0.0
C421 C 0.2199 0.85758 0.62975 0.0
C422 C 0.23144 0.81986 0.62762 0.0
H423 H 0.20456 0.8665 0.65089 0.0
H424 H 0.26214 0.62788 0.57066 0.0
H425 H 0.25229 0.69539 0.57278 0.0
H426 H 0.30581 0.69943 0.66575 0.0
H427 H 0.31512 0.63092 0.66394 0.0
H428 H 0.27003 0.75574 0.64659 0.0
H429 H 0.26774 0.75651 0.57316 0.0
H430 H 0.27468 0.8233 0.55471 0.0
H431 H 0.25512 0.88936 0.55855 0.0
C432 C 0.63816 0.20894 0.87585 0.0
C433 C 0.61449 0.21508 0.90241 0.0
C434 C 0.67658 0.21804 0.87735 0.0
C435 C 0.69209 0.23341 0.9055 0.0
C436 C 0.66878 0.23807 0.93238 0.0
C437 C 0.63038 0.2293 0.93082 0.0
C438 C 0.73257 0.24385 0.90806 0.0
C439 C 0.75365 0.25478 0.88281 0.0
C440 C 0.79453 0.26409 0.88522 0.0
C441 C 0.81149 0.28589 0.86102 0.0
C442 C 0.85043 0.29287 0.86134 0.0
C443 C 0.87328 0.27788 0.88582 0.0
H444 H 0.80581 0.23196 0.92871 0.0
C445 C 0.85606 0.25685 0.91045 0.0
C446 C 0.81731 0.24983 0.91007 0.0
H447 H 0.87268 0.24459 0.92962 0.0
H448 H 0.6269 0.19792 0.85362 0.0
H449 H 0.69398 0.2128 0.85651 0.0
H450 H 0.68015 0.24931 0.9545 0.0
H451 H 0.61307 0.23417 0.95182 0.0
H452 H 0.74466 0.24426 0.93194 0.0
H453 H 0.74039 0.25793 0.8595 0.0
H454 H 0.79467 0.29705 0.84149 0.0
H455 H 0.86272 0.30901 0.84189 0.0
C456 C 0.72881 0.36286 0.42026 0.0
C457 C 0.72028 0.37991 0.39072 0.0
C458 C 0.73977 0.32496 0.42169 0.0
C459 C 0.7434 0.30357 0.39361 0.0
C460 C 0.73424 0.32032 0.36402 0.0
C461 C 0.72254 0.35814 0.36264 0.0
C462 C 0.75561 0.26359 0.39626 0.0
C463 C 0.77724 0.24627 0.37408 0.0
C464 C 0.78939 0.20597 0.37641 0.0
C465 C 0.802 0.18744 0.34861 0.0
C466 C 0.81061 0.14878 0.34918 0.0
C467 C 0.80667 0.12787 0.37761 0.0
H468 H 0.78041 0.19868 0.42772 0.0
C469 C 0.79628 0.14684 0.40581 0.0
C470 C 0.7881 0.18546 0.40534 0.0
H471 H 0.79363 0.13162 0.42824 0.0
H472 H 0.72712 0.37886 0.44233 0.0
H473 H 0.74621 0.31253 0.44479 0.0
H474 H 0.73576 0.30422 0.34202 0.0
H475 H 0.71621 0.37058 0.33953 0.0
H476 H 0.74701 0.24872 0.41776 0.0
H477 H 0.7857 0.26194 0.35285 0.0
H478 H 0.80389 0.20258 0.32609 0.0
H479 H 0.81852 0.13496 0.32702 0.0
C480 C 0.79877 0.49807 0.3252 0.0
C481 C 0.7727 0.52077 0.34163 0.0
C482 C 0.83161 0.5138 0.3123 0.0
C483 C 0.8386 0.55289 0.31512 0.0
C484 C 0.81309 0.57521 0.33278 0.0
C485 C 0.78025 0.55936 0.34569 0.0
C486 C 0.86811 0.57231 0.29579 0.0
C487 C 0.89634 0.55454 0.2801 0.0
C488 C 0.9181 0.57367 0.25435 0.0
C489 C 0.95603 0.56396 0.2486 0.0
C490 C 0.9762 0.58123 0.22361 0.0
C491 C 0.95837 0.60779 0.20357 0.0
H492 H 0.87068 0.60687 0.23682 0.0
C493 C 0.92014 0.61658 0.20889 0.0
C494 C 0.90028 0.5998 0.23392 0.0
H495 H 0.90544 0.63679 0.19384 0.0
H496 H 0.79286 0.46837 0.32113 0.0
H497 H 0.84984 0.49559 0.29837 0.0
H498 H 0.81747 0.60542 0.33507 0.0
H499 H 0.7598 0.57762 0.3573 0.0
H500 H 0.86466 0.60263 0.29239 0.0
H501 H 0.90297 0.52516 0.28516 0.0
H502 H 0.97015 0.54335 0.26366 0.0
H503 H 0.00562 0.57384 0.22002 0.0
C504 C 0.38877 0.46545 0.73724 0.0
C505 C 0.36507 0.44955 0.71381 0.0
C506 C 0.40242 0.44318 0.76262 0.0
C507 C 0.39238 0.40469 0.76493 0.0
C508 C 0.36894 0.38905 0.74136 0.0
C509 C 0.35567 0.41103 0.71607 0.0
C510 C 0.40509 0.37942 0.7913 0.0
C511 C 0.43682 0.38446 0.80859 0.0
C512 C 0.45218 0.35337 0.82878 0.0
C513 C 0.49119 0.34624 0.82817 0.0
C514 C 0.50555 0.31235 0.84044 0.0
C515 C 0.48129 0.28565 0.85444 0.0
H516 H 0.3982 0.33314 0.84677 0.0
C517 C 0.44274 0.29411 0.8575 0.0
C518 C 0.42831 0.32795 0.84512 0.0
H519 H 0.42339 0.27352 0.86753 0.0
H520 H 0.39621 0.49516 0.73628 0.0
H521 H 0.41997 0.45639 0.78062 0.0
H522 H 0.36079 0.35951 0.74244 0.0
H523 H 0.33738 0.3978 0.69856 0.0
H524 H 0.38956 0.35309 0.79409 0.0
H525 H 0.45474 0.40881 0.80405 0.0
H526 H 0.51019 0.36544 0.81592 0.0
H527 H 0.53533 0.30603 0.83744 0.0
C528 C 0.56787 0.90125 0.2145 0.0
C529 C 0.53273 0.88575 0.22278 0.0
C530 C 0.5889 0.92128 0.237 0.0
C531 C 0.57552 0.92567 0.26848 0.0
C532 C 0.54013 0.91054 0.27674 0.0
C533 C 0.51851 0.89126 0.25383 0.0
C534 C 0.60025 0.9426 0.29324 0.0
C535 C 0.62268 0.97222 0.28642 0.0
C536 C 0.65572 0.98354 0.306 0.0
C537 C 0.67042 0.02008 0.30193 0.0
C538 C 0.70596 0.02935 0.31407 0.0
C539 C 0.72737 0.00231 0.33068 0.0
H540 H 0.66664 0.92809 0.3267 0.0
C541 C 0.71232 0.96612 0.33577 0.0
C542 C 0.67653 0.95687 0.32389 0.0
H543 H 0.72907 0.94437 0.34733 0.0
H544 H 0.57948 0.89724 0.19072 0.0
H545 H 0.61648 0.93177 0.23008 0.0
H546 H 0.52951 0.9132 0.30096 0.0
H547 H 0.49162 0.87914 0.2608 0.0
H548 H 0.60158 0.92907 0.31659 0.0
H549 H 0.61838 0.98735 0.26401 0.0
H550 H 0.65524 0.04093 0.28788 0.0
H551 H 0.7175 0.05718 0.30925 0.0
C552 C 0.03315 0.18525 0.83769 0.0
C553 C 0.99674 0.20068 0.83516 0.0
C554 C 0.04143 0.15025 0.82367 0.0
C555 C 0.01351 0.13065 0.80626 0.0
C556 C 0.97668 0.14534 0.80529 0.0
C557 C 0.96841 0.1801 0.81948 0.0
C558 C 0.02337 0.09964 0.78384 0.0
C559 C 0.05417 0.0776 0.78679 0.0
C560 C 0.06944 0.05622 0.75913 0.0
C561 C 0.08735 0.02117 0.76379 0.0
C562 C 0.1061 0.00334 0.73835 0.0
C563 C 0.10827 0.02108 0.70829 0.0
H564 H 0.05736 0.10032 0.72432 0.0
C565 C 0.08962 0.05563 0.70347 0.0
C566 C 0.07008 0.07287 0.72852 0.0
H567 H 0.09115 0.06994 0.68054 0.0
H568 H 0.05576 0.20139 0.84858 0.0
H569 H 0.07039 0.14037 0.82426 0.0
H570 H 0.95478 0.13108 0.79177 0.0
H571 H 0.94033 0.19195 0.81666 0.0
H572 H 0.00612 0.09704 0.76239 0.0
H573 H 0.07002 0.07712 0.80906 0.0
H574 H 0.0876 0.00807 0.78726 0.0
H575 H 0.12077 0.9769 0.74269 0.0
C576 C 0.02632 0.39046 0.76654 0.0
C577 C 0.04128 0.36063 0.78492 0.0
C578 C 0.04783 0.40676 0.74181 0.0
C579 C 0.08442 0.39309 0.73504 0.0
C580 C 0.09884 0.36305 0.75325 0.0
C581 C 0.07777 0.34725 0.77796 0.0
C582 C 0.10922 0.40897 0.70969 0.0
C583 C 0.10765 0.44491 0.69901 0.0
C584 C 0.13965 0.46166 0.68073 0.0
C585 C 0.14969 0.49943 0.68663 0.0
C586 C 0.18429 0.51357 0.67575 0.0
C587 C 0.20893 0.49045 0.65813 0.0
H588 H 0.1557 0.41067 0.65488 0.0
C589 C 0.19782 0.45356 0.6503 0.0
C590 C 0.16311 0.43951 0.66089 0.0
H591 H 0.21685 0.43489 0.6375 0.0
H592 H -0.00187 0.40109 0.7712 0.0
H593 H 0.03556 0.4295 0.72788 0.0
H594 H 0.12687 0.3519 0.74861 0.0
H595 H 0.09012 0.32408 0.79139 0.0
H596 H 0.13302 0.39137 0.70268 0.0
H597 H 0.08598 0.46388 0.70806 0.0
H598 H 0.13209 0.51718 0.70164 0.0
H599 H 0.19265 0.54197 0.68243 0.0
C600 C 0.59706 0.52146 0.2686 0.0
C601 C 0.60022 0.53231 0.30083 0.0
C602 C 0.57585 0.54352 0.24718 0.0
C603 C 0.55684 0.57607 0.25805 0.0
C604 C 0.55825 0.58532 0.29068 0.0
C605 C 0.58027 0.56407 0.31175 0.0
C606 C 0.53643 0.60205 0.2362 0.0
C607 C 0.54999 0.61229 0.20728 0.0
C608 C 0.53504 0.64613 0.19028 0.0
C609 C 0.56036 0.6706 0.17465 0.0
C610 C 0.54837 0.70634 0.1642 0.0
C611 C 0.51065 0.71754 0.16841 0.0
H612 H 0.47628 0.63794 0.20363 0.0
C613 C 0.48485 0.69216 0.18213 0.0
C614 C 0.49675 0.65655 0.19252 0.0
H615 H 0.4557 0.7005 0.18593 0.0
H616 H 0.61251 0.49717 0.25968 0.0
H617 H 0.57471 0.53545 0.22218 0.0
H618 H 0.54368 0.61014 0.29964 0.0
H619 H 0.58236 0.57293 0.33652 0.0
H620 H 0.5129 0.61769 0.24647 0.0
H621 H 0.576 0.59958 0.19853 0.0
H622 H 0.58998 0.66319 0.17252 0.0
H623 H 0.56895 0.72594 0.15451 0.0
C624 C 0.42008 0.13462 0.78707 0.0
C625 C 0.45798 0.12601 0.79395 0.0
C626 C 0.40122 0.11644 0.76224 0.0
C627 C 0.41978 0.08911 0.74349 0.0
C628 C 0.45757 0.08003 0.75054 0.0
C629 C 0.47671 0.09864 0.77538 0.0
C630 C 0.3988 0.06773 0.71859 0.0
C631 C 0.36982 0.08338 0.70226 0.0
C632 C 0.34073 0.06177 0.68419 0.0
C633 C 0.31258 0.08227 0.66787 0.0
C634 C 0.28046 0.0641 0.65602 0.0
C635 C 0.2763 0.02493 0.65962 0.0
H636 H 0.3574 0.00513 0.69949 0.0
C637 C 0.30489 0.00407 0.67476 0.0
C638 C 0.33699 0.02217 0.68672 0.0
H639 H 0.30168 0.97387 0.6784 0.0
H640 H 0.40472 0.15545 0.80096 0.0
H641 H 0.3717 0.12318 0.75844 0.0
H642 H 0.47227 0.05857 0.73682 0.0
H643 H 0.5059 0.09135 0.78023 0.0
H644 H 0.40651 0.03834 0.71498 0.0
H645 H 0.36526 0.11372 0.7043 0.0
H646 H 0.3144 0.11278 0.66579 0.0
H647 H 0.25805 0.0809 0.64546 0.0
C648 C 0.00648 0.79465 0.16675 0.0
C649 C 0.98455 0.7685 0.14974 0.0
C650 C 0.99037 0.82808 0.17829 0.0
C651 C 0.95167 0.83566 0.1734 0.0
C652 C 0.93034 0.81015 0.15496 0.0
C653 C 0.9465 0.77669 0.14354 0.0
C654 C 0.93119 0.86602 0.19102 0.0
C655 C 0.94794 0.89335 0.20849 0.0
C656 C 0.92658 0.91631 0.23218 0.0
C657 C 0.93853 0.95315 0.23972 0.0
C658 C 0.91972 0.97425 0.26328 0.0
C659 C 0.88916 0.95846 0.28016 0.0
H660 H 0.88696 0.87182 0.24502 0.0
C661 C 0.87768 0.92142 0.2729 0.0
C662 C 0.8961 0.90061 0.24925 0.0
H663 H 0.85433 0.90834 0.28552 0.0
H664 H 0.03572 0.78834 0.1724 0.0
H665 H 0.00791 0.84635 0.19272 0.0
H666 H 0.90045 0.81498 0.15097 0.0
H667 H 0.9287 0.75624 0.13149 0.0
H668 H 0.90052 0.86404 0.19143 0.0
H669 H 0.97805 0.89849 0.20645 0.0
H670 H 0.96235 0.96563 0.2273 0.0
H671 H 0.92928 0.0027 0.26844 0.0
loop_
_geom_bond_atom_site_label_1
_geom_bond_atom_site_label_2
_geom_bond_distance
_geom_bond_site_symmetry_2
_ccdc_geom_bond_type
Mn0 O5 2.095 . S
Mn0 O15 2.162 . S
Mn0 O16 2.297 1_455 S
Mn0 O24 2.385 . S
Mn0 O25 2.204 1_455 S
Mn0 O26 2.094 . S
Mn1 O6 2.121 . S
Mn1 N8 2.257 . S
Mn1 N17 2.282 . S
Mn1 O25 2.206 1_455 S
Mn1 O27 2.117 . S
C2 O24 1.234 1_655 S
C2 O25 1.285 . S
C3 O15 1.281 1_655 S
C3 O16 1.236 . S
C4 O26 1.240 . S
C4 O27 1.264 . S
O5 Mn0 2.095 . S
O5 C14 1.250 . S
O6 Mn1 2.121 . S
O6 C14 1.258 . S
C7 N8 1.326 1_655 S
C7 C11 1.460 . S
C7 H13 0.929 . S
N8 Mn1 2.257 . S
N8 C7 1.326 1_455 S
N8 C12 1.362 . S
C9 C10 1.258 . S
C9 C12 1.431 1_655 S
C9 C29 1.449 . S
C10 C9 1.258 . S
C10 C11 1.477 . S
C10 H30 0.931 . S
C11 C7 1.460 . S
C11 C10 1.477 . S
C11 H31 0.930 . S
C12 N8 1.362 . S
C12 C9 1.431 1_455 S
C12 C22 1.476 . S
H13 C7 0.929 . S
C14 O5 1.250 . S
C14 O6 1.258 . S
O15 Mn0 2.162 . S
O15 C3 1.281 1_455 S
O16 Mn0 2.297 1_655 S
O16 C3 1.236 . S
N17 Mn1 2.282 . S
N17 C18 1.328 . S
N17 C22 1.318 . S
C18 N17 1.328 . S
C18 C19 1.457 . S
C18 H23 0.929 . S
C19 C18 1.457 . S
C19 C20 1.291 . S
C19 H32 0.931 . S
C20 C19 1.291 . S
C20 C21 1.373 . S
C20 H33 0.929 . S
C21 C20 1.373 . S
C21 C22 1.396 . S
C21 C28 1.403 . S
C22 C12 1.476 . S
C22 N17 1.318 . S
C22 C21 1.396 . S
H23 C18 0.929 . S
O24 Mn0 2.385 . S
O24 C2 1.234 1_455 S
O25 Mn0 2.204 1_655 S
O25 Mn1 2.206 1_655 S
O25 C2 1.285 . S
O26 Mn0 2.094 . S
O26 C4 1.240 . S
O27 Mn1 2.117 . S
O27 C4 1.264 . S
C28 C21 1.403 . S
C28 C29 1.399 1_455 S
C28 H34 0.929 . S
C29 C9 1.449 . S
C29 C28 1.399 1_655 S
C29 H35 0.930 . S
H30 C10 0.931 . S
H31 C11 0.930 . S
H32 C19 0.931 . S
H33 C20 0.929 . S
H34 C28 0.929 . S
H35 C29 0.930 . S
Mn36 O41 2.095 . S
Mn36 O51 2.162 . S
Mn36 O52 2.297 . S
Mn36 O60 2.385 . S
Mn36 O61 2.209 . S
Mn36 O62 2.094 . S
Mn37 O42 2.121 . S
Mn37 N44 2.257 . S
Mn37 N53 2.282 . S
Mn37 O61 2.215 . S
Mn37 O63 2.117 . S
C38 O60 1.234 . S
C38 O61 1.283 . S
C39 O51 1.281 . S
C39 O52 1.236 . S
C40 O62 1.240 . S
C40 O63 1.264 . S
O41 Mn36 2.095 . S
O41 C50 1.250 . S
O42 Mn37 2.121 . S
O42 C50 1.258 . S
C43 N44 1.326 . S
C43 C47 1.460 . S
C43 H49 0.929 . S
N44 Mn37 2.257 . S
N44 C43 1.326 . S
N44 C48 1.362 . S
C45 C46 1.258 . S
C45 C48 1.431 . S
C45 C65 1.449 . S
C46 C45 1.258 . S
C46 C47 1.477 . S
C46 H66 0.931 . S
C47 C43 1.460 . S
C47 C46 1.477 . S
C47 H67 0.930 . S
C48 N44 1.362 . S
C48 C45 1.431 . S
C48 C58 1.476 . S
H49 C43 0.929 . S
C50 O41 1.250 . S
C50 O42 1.258 . S
O51 Mn36 2.162 . S
O51 C39 1.281 . S
O52 Mn36 2.297 . S
O52 C39 1.236 . S
N53 Mn37 2.282 . S
N53 C54 1.328 . S
N53 C58 1.318 . S
C54 N53 1.328 . S
C54 C55 1.457 . S
C54 H59 0.929 . S
C55 C54 1.457 . S
C55 C56 1.291 . S
C55 H68 0.931 . S
C56 C55 1.291 . S
C56 C57 1.373 . S
C56 H69 0.929 . S
C57 C56 1.373 . S
C57 C58 1.396 . S
C57 C64 1.403 . S
C58 C48 1.476 . S
C58 N53 1.318 . S
C58 C57 1.396 . S
H59 C54 0.929 . S
O60 Mn36 2.385 . S
O60 C38 1.234 . S
O61 Mn36 2.209 . S
O61 Mn37 2.215 . S
O61 C38 1.283 . S
O62 Mn36 2.094 . S
O62 C40 1.240 . S
O63 Mn37 2.117 . S
O63 C40 1.264 . S
C64 C57 1.403 . S
C64 C65 1.399 . S
C64 H70 0.929 . S
C65 C45 1.449 . S
C65 C64 1.399 . S
C65 H71 0.930 . S
H66 C46 0.931 . S
H67 C47 0.930 . S
H68 C55 0.931 . S
H69 C56 0.929 . S
H70 C64 0.929 . S
H71 C65 0.930 . S
Mn72 O77 2.095 . S
Mn72 O87 2.162 . S
Mn72 O88 2.297 . S
Mn72 O96 2.385 . S
Mn72 O97 2.209 . S
Mn72 O98 2.094 . S
Mn73 O78 2.121 . S
Mn73 N80 2.257 . S
Mn73 N89 2.282 . S
Mn73 O97 2.215 . S
Mn73 O99 2.117 . S
C74 O96 1.234 . S
C74 O97 1.283 . S
C75 O87 1.281 . S
C75 O88 1.236 . S
C76 O98 1.240 . S
C76 O99 1.264 . S
O77 Mn72 2.095 . S
O77 C86 1.250 . S
O78 Mn73 2.121 . S
O78 C86 1.258 . S
C79 N80 1.326 . S
C79 C83 1.460 . S
C79 H85 0.929 . S
N80 Mn73 2.257 . S
N80 C79 1.326 . S
N80 C84 1.362 . S
C81 C82 1.258 . S
C81 C84 1.431 . S
C81 C101 1.449 . S
C82 C81 1.258 . S
C82 C83 1.477 . S
C82 H102 0.931 . S
C83 C79 1.460 . S
C83 C82 1.477 . S
C83 H103 0.930 . S
C84 N80 1.362 . S
C84 C81 1.431 . S
C84 C94 1.476 . S
H85 C79 0.929 . S
C86 O77 1.250 . S
C86 O78 1.258 . S
O87 Mn72 2.162 . S
O87 C75 1.281 . S
O88 Mn72 2.297 . S
O88 C75 1.236 . S
N89 Mn73 2.282 . S
N89 C90 1.328 . S
N89 C94 1.318 . S
C90 N89 1.328 . S
C90 C91 1.457 . S
C90 H95 0.929 . S
C91 C90 1.457 . S
C91 C92 1.291 . S
C91 H104 0.931 . S
C92 C91 1.291 . S
C92 C93 1.373 . S
C92 H105 0.929 . S
C93 C92 1.373 . S
C93 C94 1.396 . S
C93 C100 1.403 . S
C94 C84 1.476 . S
C94 N89 1.318 . S
C94 C93 1.396 . S
H95 C90 0.929 . S
O96 Mn72 2.385 . S
O96 C74 1.234 . S
O97 Mn72 2.209 . S
O97 Mn73 2.215 . S
O97 C74 1.283 . S
O98 Mn72 2.094 . S
O98 C76 1.240 . S
O99 Mn73 2.117 . S
O99 C76 1.264 . S
C100 C93 1.403 . S
C100 C101 1.399 . S
C100 H106 0.929 . S
C101 C81 1.449 . S
C101 C100 1.399 . S
C101 H107 0.930 . S
H102 C82 0.931 . S
H103 C83 0.930 . S
H104 C91 0.931 . S
H105 C92 0.929 . S
H106 C100 0.929 . S
H107 C101 0.930 . S
Mn108 O113 2.095 . S
Mn108 O123 2.162 . S
Mn108 O124 2.297 1_565 S
Mn108 O132 2.385 . S
Mn108 O133 2.204 1_565 S
Mn108 O134 2.094 . S
Mn109 O114 2.121 . S
Mn109 N116 2.257 . S
Mn109 N125 2.282 . S
Mn109 O133 2.206 1_565 S
Mn109 O135 2.117 . S
C110 O132 1.234 1_545 S
C110 O133 1.285 . S
C111 O123 1.281 1_545 S
C111 O124 1.236 . S
C112 O134 1.240 . S
C112 O135 1.264 . S
O113 Mn108 2.095 . S
O113 C122 1.250 . S
O114 Mn109 2.121 . S
O114 C122 1.258 . S
C115 N116 1.326 1_545 S
C115 C119 1.460 . S
C115 H121 0.929 . S
N116 Mn109 2.257 . S
N116 C115 1.326 1_565 S
N116 C120 1.362 . S
C117 C118 1.258 . S
C117 C120 1.431 1_545 S
C117 C137 1.449 . S
C118 C117 1.258 . S
C118 C119 1.477 . S
C118 H138 0.931 . S
C119 C115 1.460 . S
C119 C118 1.477 . S
C119 H139 0.930 . S
C120 N116 1.362 . S
C120 C117 1.431 1_565 S
C120 C130 1.476 . S
H121 C115 0.929 . S
C122 O113 1.250 . S
C122 O114 1.258 . S
O123 Mn108 2.162 . S
O123 C111 1.281 1_565 S
O124 Mn108 2.297 1_545 S
O124 C111 1.236 . S
N125 Mn109 2.282 . S
N125 C126 1.328 . S
N125 C130 1.318 . S
C126 N125 1.328 . S
C126 C127 1.457 . S
C126 H131 0.929 . S
C127 C126 1.457 . S
C127 C128 1.291 . S
C127 H140 0.931 . S
C128 C127 1.291 . S
C128 C129 1.373 . S
C128 H141 0.929 . S
C129 C128 1.373 . S
C129 C130 1.396 . S
C129 C136 1.403 . S
C130 C120 1.476 . S
C130 N125 1.318 . S
C130 C129 1.396 . S
H131 C126 0.929 . S
O132 Mn108 2.385 . S
O132 C110 1.234 1_565 S
O133 Mn108 2.204 1_545 S
O133 Mn109 2.206 1_545 S
O133 C110 1.285 . S
O134 Mn108 2.094 . S
O134 C112 1.240 . S
O135 Mn109 2.117 . S
O135 C112 1.264 . S
C136 C129 1.403 . S
C136 C137 1.399 1_565 S
C136 H142 0.929 . S
C137 C117 1.449 . S
C137 C136 1.399 1_545 S
C137 H143 0.930 . S
H138 C118 0.931 . S
H139 C119 0.930 . S
H140 C127 0.931 . S
H141 C128 0.929 . S
H142 C136 0.929 . S
H143 C137 0.930 . S
Mn144 O149 2.095 . S
Mn144 O159 2.162 . S
Mn144 O160 2.297 1_655 S
Mn144 O168 2.385 . S
Mn144 O169 2.204 1_655 S
Mn144 O170 2.094 . S
Mn145 O150 2.121 . S
Mn145 N152 2.257 . S
Mn145 N161 2.282 . S
Mn145 O169 2.206 1_655 S
Mn145 O171 2.117 . S
C146 O168 1.234 1_455 S
C146 O169 1.285 . S
C147 O159 1.281 1_455 S
C147 O160 1.236 . S
C148 O170 1.240 . S
C148 O171 1.264 . S
O149 Mn144 2.095 . S
O149 C158 1.250 . S
O150 Mn145 2.121 . S
O150 C158 1.258 . S
C151 N152 1.326 1_455 S
C151 C155 1.460 . S
C151 H157 0.929 . S
N152 Mn145 2.257 . S
N152 C151 1.326 1_655 S
N152 C156 1.362 . S
C153 C154 1.258 . S
C153 C156 1.431 1_455 S
C153 C173 1.449 . S
C154 C153 1.258 . S
C154 C155 1.477 . S
C154 H174 0.931 . S
C155 C151 1.460 . S
C155 C154 1.477 . S
C155 H175 0.930 . S
C156 N152 1.362 . S
C156 C153 1.431 1_655 S
C156 C166 1.476 . S
H157 C151 0.929 . S
C158 O149 1.250 . S
C158 O150 1.258 . S
O159 Mn144 2.162 . S
O159 C147 1.281 1_655 S
O160 Mn144 2.297 1_455 S
O160 C147 1.236 . S
N161 Mn145 2.282 . S
N161 C162 1.328 . S
N161 C166 1.318 . S
C162 N161 1.328 . S
C162 C163 1.457 . S
C162 H167 0.929 . S
C163 C162 1.457 . S
C163 C164 1.291 . S
C163 H176 0.931 . S
C164 C163 1.291 . S
C164 C165 1.373 . S
C164 H177 0.929 . S
C165 C164 1.373 . S
C165 C166 1.396 . S
C165 C172 1.403 . S
C166 C156 1.476 . S
C166 N161 1.318 . S
C166 C165 1.396 . S
H167 C162 0.929 . S
O168 Mn144 2.385 . S
O168 C146 1.234 1_655 S
O169 Mn144 2.204 1_455 S
O169 Mn145 2.206 1_455 S
O169 C146 1.285 . S
O170 Mn144 2.094 . S
O170 C148 1.240 . S
O171 Mn145 2.117 . S
O171 C148 1.264 . S
C172 C165 1.403 . S
C172 C173 1.399 1_655 S
C172 H178 0.929 . S
C173 C153 1.449 . S
C173 C172 1.399 1_455 S
C173 H179 0.930 . S
H174 C154 0.931 . S
H175 C155 0.930 . S
H176 C163 0.931 . S
H177 C164 0.929 . S
H178 C172 0.929 . S
H179 C173 0.930 . S
Mn180 O185 2.095 . S
Mn180 O195 2.162 . S
Mn180 O196 2.297 . S
Mn180 O204 2.385 . S
Mn180 O205 2.209 . S
Mn180 O206 2.094 . S
Mn181 O186 2.121 . S
Mn181 N188 2.257 . S
Mn181 N197 2.282 . S
Mn181 O205 2.215 . S
Mn181 O207 2.117 . S
C182 O204 1.234 . S
C182 O205 1.283 . S
C183 O195 1.281 . S
C183 O196 1.236 . S
C184 O206 1.240 . S
C184 O207 1.264 . S
O185 Mn180 2.095 . S
O185 C194 1.250 . S
O186 Mn181 2.121 . S
O186 C194 1.258 . S
C187 N188 1.326 . S
C187 C191 1.460 . S
C187 H193 0.929 . S
N188 Mn181 2.257 . S
N188 C187 1.326 . S
N188 C192 1.362 . S
C189 C190 1.258 . S
C189 C192 1.431 . S
C189 C209 1.449 . S
C190 C189 1.258 . S
C190 C191 1.477 . S
C190 H210 0.931 . S
C191 C187 1.460 . S
C191 C190 1.477 . S
C191 H211 0.930 . S
C192 N188 1.362 . S
C192 C189 1.431 . S
C192 C202 1.476 . S
H193 C187 0.929 . S
C194 O185 1.250 . S
C194 O186 1.258 . S
O195 Mn180 2.162 . S
O195 C183 1.281 . S
O196 Mn180 2.297 . S
O196 C183 1.236 . S
N197 Mn181 2.282 . S
N197 C198 1.328 . S
N197 C202 1.318 . S
C198 N197 1.328 . S
C198 C199 1.457 . S
C198 H203 0.929 . S
C199 C198 1.457 . S
C199 C200 1.291 . S
C199 H212 0.931 . S
C200 C199 1.291 . S
C200 C201 1.373 . S
C200 H213 0.929 . S
C201 C200 1.373 . S
C201 C202 1.396 . S
C201 C208 1.403 . S
C202 C192 1.476 . S
C202 N197 1.318 . S
C202 C201 1.396 . S
H203 C198 0.929 . S
O204 Mn180 2.385 . S
O204 C182 1.234 . S
O205 Mn180 2.209 . S
O205 Mn181 2.215 . S
O205 C182 1.283 . S
O206 Mn180 2.094 . S
O206 C184 1.240 . S
O207 Mn181 2.117 . S
O207 C184 1.264 . S
C208 C201 1.403 . S
C208 C209 1.399 . S
C208 H214 0.929 . S
C209 C189 1.449 . S
C209 C208 1.399 . S
C209 H215 0.930 . S
H210 C190 0.931 . S
H211 C191 0.930 . S
H212 C199 0.931 . S
H213 C200 0.929 . S
H214 C208 0.929 . S
H215 C209 0.930 . S
Mn216 O221 2.095 . S
Mn216 O231 2.162 . S
Mn216 O232 2.297 . S
Mn216 O240 2.385 . S
Mn216 O241 2.209 . S
Mn216 O242 2.094 . S
Mn217 O222 2.121 . S
Mn217 N224 2.257 . S
Mn217 N233 2.282 . S
Mn217 O241 2.215 . S
Mn217 O243 2.117 . S
C218 O240 1.234 . S
C218 O241 1.283 . S
C219 O231 1.281 . S
C219 O232 1.236 . S
C220 O242 1.240 . S
C220 O243 1.264 . S
O221 Mn216 2.095 . S
O221 C230 1.250 . S
O222 Mn217 2.121 . S
O222 C230 1.258 . S
C223 N224 1.326 . S
C223 C227 1.460 . S
C223 H229 0.929 . S
N224 Mn217 2.257 . S
N224 C223 1.326 . S
N224 C228 1.362 . S
C225 C226 1.258 . S
C225 C228 1.431 . S
C225 C245 1.449 . S
C226 C225 1.258 . S
C226 C227 1.477 . S
C226 H246 0.931 . S
C227 C223 1.460 . S
C227 C226 1.477 . S
C227 H247 0.930 . S
C228 N224 1.362 . S
C228 C225 1.431 . S
C228 C238 1.476 . S
H229 C223 0.929 . S
C230 O221 1.250 . S
C230 O222 1.258 . S
O231 Mn216 2.162 . S
O231 C219 1.281 . S
O232 Mn216 2.297 . S
O232 C219 1.236 . S
N233 Mn217 2.282 . S
N233 C234 1.328 . S
N233 C238 1.318 . S
C234 N233 1.328 . S
C234 C235 1.457 . S
C234 H239 0.929 . S
C235 C234 1.457 . S
C235 C236 1.291 . S
C235 H248 0.931 . S
C236 C235 1.291 . S
C236 C237 1.373 . S
C236 H249 0.929 . S
C237 C236 1.373 . S
C237 C238 1.396 . S
C237 C244 1.403 . S
C238 C228 1.476 . S
C238 N233 1.318 . S
C238 C237 1.396 . S
H239 C234 0.929 . S
O240 Mn216 2.385 . S
O240 C218 1.234 . S
O241 Mn216 2.209 . S
O241 Mn217 2.215 . S
O241 C218 1.283 . S
O242 Mn216 2.094 . S
O242 C220 1.240 . S
O243 Mn217 2.117 . S
O243 C220 1.264 . S
C244 C237 1.403 . S
C244 C245 1.399 . S
C244 H250 0.929 . S
C245 C225 1.449 . S
C245 C244 1.399 . S
C245 H251 0.930 . S
H246 C226 0.931 . S
H247 C227 0.930 . S
H248 C235 0.931 . S
H249 C236 0.929 . S
H250 C244 0.929 . S
H251 C245 0.930 . S
Mn252 O257 2.095 . S
Mn252 O267 2.162 . S
Mn252 O268 2.297 1_545 S
Mn252 O276 2.385 . S
Mn252 O277 2.204 1_545 S
Mn252 O278 2.094 . S
Mn253 O258 2.121 . S
Mn253 N260 2.257 . S
Mn253 N269 2.282 . S
Mn253 O277 2.206 1_545 S
Mn253 O279 2.117 . S
C254 O276 1.234 1_565 S
C254 O277 1.285 . S
C255 O267 1.281 1_565 S
C255 O268 1.236 . S
C256 O278 1.240 . S
C256 O279 1.264 . S
O257 Mn252 2.095 . S
O257 C266 1.250 . S
O258 Mn253 2.121 . S
O258 C266 1.258 . S
C259 N260 1.326 1_565 S
C259 C263 1.460 . S
C259 H265 0.929 . S
N260 Mn253 2.257 . S
N260 C259 1.326 1_545 S
N260 C264 1.362 . S
C261 C262 1.258 . S
C261 C264 1.431 1_565 S
C261 C281 1.449 . S
C262 C261 1.258 . S
C262 C263 1.477 . S
C262 H282 0.931 . S
C263 C259 1.460 . S
C263 C262 1.477 . S
C263 H283 0.930 . S
C264 N260 1.362 . S
C264 C261 1.431 1_545 S
C264 C274 1.476 . S
H265 C259 0.929 . S
C266 O257 1.250 . S
C266 O258 1.258 . S
O267 Mn252 2.162 . S
O267 C255 1.281 1_545 S
O268 Mn252 2.297 1_565 S
O268 C255 1.236 . S
N269 Mn253 2.282 . S
N269 C270 1.328 . S
N269 C274 1.318 . S
C270 N269 1.328 . S
C270 C271 1.457 . S
C270 H275 0.929 . S
C271 C270 1.457 . S
C271 C272 1.291 . S
C271 H284 0.931 . S
C272 C271 1.291 . S
C272 C273 1.373 . S
C272 H285 0.929 . S
C273 C272 1.373 . S
C273 C274 1.396 . S
C273 C280 1.403 . S
C274 C264 1.476 . S
C274 N269 1.318 . S
C274 C273 1.396 . S
H275 C270 0.929 . S
O276 Mn252 2.385 . S
O276 C254 1.234 1_545 S
O277 Mn252 2.204 1_565 S
O277 Mn253 2.206 1_565 S
O277 C254 1.285 . S
O278 Mn252 2.094 . S
O278 C256 1.240 . S
O279 Mn253 2.117 . S
O279 C256 1.264 . S
C280 C273 1.403 . S
C280 C281 1.399 1_545 S
C280 H286 0.929 . S
C281 C261 1.449 . S
C281 C280 1.399 1_565 S
C281 H287 0.930 . S
H282 C262 0.931 . S
H283 C263 0.930 . S
H284 C271 0.931 . S
H285 C272 0.929 . S
H286 C280 0.929 . S
H287 C281 0.930 . S
C288 C289 1.386 . S
C288 C290 1.383 . S
C288 H304 0.951 . S
C289 C288 1.386 . S
C289 C293 1.383 1_655 S
C290 C288 1.383 . S
C290 C291 1.402 1_655 S
C290 H305 0.951 . S
C291 C290 1.402 1_455 S
C291 C292 1.375 . S
C291 C294 1.481 1_556 S
C292 C291 1.375 . S
C292 C293 1.367 . S
C292 H306 0.951 . S
C293 C289 1.383 1_455 S
C293 C292 1.367 . S
C293 H307 0.950 . S
C294 C291 1.481 1_554 S
C294 C295 1.297 1_455 S
C294 H308 0.950 . S
C295 C294 1.297 1_655 S
C295 C296 1.479 . S
C295 H309 0.950 . S
C296 C295 1.479 . S
C296 C297 1.375 . S
C296 C302 1.404 1_655 S
C297 C296 1.375 . S
C297 C298 1.369 . S
C297 H310 0.950 . S
C298 C297 1.369 . S
C298 C299 1.392 1_655 S
C298 H311 0.951 . S
C299 C298 1.392 1_455 S
C299 C301 1.384 . S
H300 C302 0.949 . S
C301 C299 1.384 . S
C301 C302 1.385 . S
C301 H303 0.950 . S
C302 C296 1.404 1_455 S
C302 H300 0.949 . S
C302 C301 1.385 . S
H303 C301 0.950 . S
H304 C288 0.951 . S
H305 C290 0.951 . S
H306 C292 0.951 . S
H307 C293 0.950 . S
H308 C294 0.950 . S
H309 C295 0.950 . S
H310 C297 0.950 . S
H311 C298 0.951 . S
C312 C313 1.386 . S
C312 C314 1.383 . S
C312 H328 0.951 . S
C313 C312 1.386 . S
C313 C317 1.383 . S
C314 C312 1.383 . S
C314 C315 1.402 . S
C314 H329 0.951 . S
C315 C314 1.402 . S
C315 C316 1.375 . S
C315 C318 1.481 . S
C316 C315 1.375 . S
C316 C317 1.367 . S
C316 H330 0.951 . S
C317 C313 1.383 . S
C317 C316 1.367 . S
C317 H331 0.950 . S
C318 C315 1.481 . S
C318 C319 1.297 . S
C318 H332 0.950 . S
C319 C318 1.297 . S
C319 C320 1.479 . S
C319 H333 0.950 . S
C320 C319 1.479 . S
C320 C321 1.375 . S
C320 C326 1.404 . S
C321 C320 1.375 . S
C321 C322 1.369 . S
C321 H334 0.950 . S
C322 C321 1.369 . S
C322 C323 1.392 . S
C322 H335 0.951 . S
C323 C322 1.392 . S
C323 C325 1.384 . S
H324 C326 0.949 . S
C325 C323 1.384 . S
C325 C326 1.385 . S
C325 H327 0.950 . S
C326 C320 1.404 . S
C326 H324 0.949 . S
C326 C325 1.385 . S
H327 C325 0.950 . S
H328 C312 0.951 . S
H329 C314 0.951 . S
H330 C316 0.951 . S
H331 C317 0.950 . S
H332 C318 0.950 . S
H333 C319 0.950 . S
H334 C321 0.950 . S
H335 C322 0.951 . S
C336 C337 1.386 . S
C336 C338 1.383 . S
C336 H352 0.951 . S
C337 C336 1.386 . S
C337 C341 1.383 . S
C338 C336 1.383 . S
C338 C339 1.402 . S
C338 H353 0.951 . S
C339 C338 1.402 . S
C339 C340 1.375 . S
C339 C342 1.481 1_565 S
C340 C339 1.375 . S
C340 C341 1.367 . S
C340 H354 0.951 . S
C341 C337 1.383 . S
C341 C340 1.367 . S
C341 H355 0.950 . S
C342 C339 1.481 1_545 S
C342 C343 1.297 1_554 S
C342 H356 0.950 . S
C343 C342 1.297 1_556 S
C343 C344 1.479 . S
C343 H357 0.958 . S
C344 C343 1.479 . S
C344 C345 1.375 . S
C344 C350 1.404 . S
C345 C344 1.375 . S
C345 C346 1.369 . S
C345 H358 0.950 . S
C346 C345 1.369 . S
C346 C347 1.392 . S
C346 H359 0.951 . S
C347 C346 1.392 . S
C347 C349 1.384 . S
H348 C350 0.949 . S
C349 C347 1.384 . S
C349 C350 1.385 . S
C349 H351 0.950 . S
C350 C344 1.404 . S
C350 H348 0.949 . S
C350 C349 1.385 . S
H351 C349 0.950 . S
H352 C336 0.951 . S
H353 C338 0.951 . S
H354 C340 0.951 . S
H355 C341 0.950 . S
H356 C342 0.950 . S
H357 C343 0.958 . S
H358 C345 0.950 . S
H359 C346 0.951 . S
C360 C361 1.386 . S
C360 C362 1.383 . S
C360 H376 0.951 . S
C361 C360 1.386 . S
C361 C365 1.383 1_545 S
C362 C360 1.383 . S
C362 C363 1.402 1_545 S
C362 H377 0.951 . S
C363 C362 1.402 1_565 S
C363 C364 1.375 . S
C363 C366 1.481 . S
C364 C363 1.375 . S
C364 C365 1.367 . S
C364 H378 0.951 . S
C365 C361 1.383 1_565 S
C365 C364 1.367 . S
C365 H379 0.950 . S
C366 C363 1.481 . S
C366 C367 1.297 1_565 S
C366 H380 0.950 . S
C367 C366 1.297 1_545 S
C367 C368 1.479 1_645 S
C367 H381 0.950 . S
C368 C367 1.479 1_465 S
C368 C369 1.375 1_565 S
C368 C374 1.404 . S
C369 C368 1.375 1_545 S
C369 C370 1.369 . S
C369 H382 0.950 . S
C370 C369 1.369 . S
C370 C371 1.392 1_545 S
C370 H383 0.951 . S
C371 C370 1.392 1_565 S
C371 C373 1.384 . S
H372 C374 0.949 . S
C373 C371 1.384 . S
C373 C374 1.385 . S
C373 H375 0.950 . S
C374 C368 1.404 . S
C374 H372 0.949 . S
C374 C373 1.385 . S
H375 C373 0.950 . S
H376 C360 0.951 . S
H377 C362 0.951 . S
H378 C364 0.951 . S
H379 C365 0.950 . S
H380 C366 0.950 . S
H381 C367 0.950 . S
H382 C369 0.950 . S
H383 C370 0.951 . S
C384 C385 1.386 . S
C384 C386 1.383 . S
C384 H400 0.951 . S
C385 C384 1.386 . S
C385 C389 1.383 . S
C386 C384 1.383 . S
C386 C387 1.402 . S
C386 H401 0.951 . S
C387 C386 1.402 . S
C387 C388 1.375 . S
C387 C390 1.481 . S
C388 C387 1.375 . S
C388 C389 1.367 . S
C388 H402 0.951 . S
C389 C385 1.383 . S
C389 C388 1.367 . S
C389 H403 0.950 . S
C390 C387 1.481 . S
C390 C391 1.297 . S
C390 H404 0.950 . S
C391 C390 1.297 . S
C391 C392 1.479 . S
C391 H405 0.950 . S
C392 C391 1.479 . S
C392 C393 1.375 . S
C392 C398 1.404 . S
C393 C392 1.375 . S
C393 C394 1.369 . S
C393 H406 0.950 . S
C394 C393 1.369 . S
C394 C395 1.392 . S
C394 H407 0.951 . S
C395 C394 1.392 . S
C395 C397 1.384 . S
H396 C398 0.949 . S
C397 C395 1.384 . S
C397 C398 1.385 . S
C397 H399 0.950 . S
C398 C392 1.404 . S
C398 H396 0.949 . S
C398 C397 1.385 . S
H399 C397 0.950 . S
H400 C384 0.951 . S
H401 C386 0.951 . S
H402 C388 0.951 . S
H403 C389 0.950 . S
H404 C390 0.950 . S
H405 C391 0.950 . S
H406 C393 0.950 . S
H407 C394 0.951 . S
C408 C409 1.386 . S
C408 C410 1.383 . S
C408 H424 0.951 . S
C409 C408 1.386 . S
C409 C413 1.383 . S
C410 C408 1.383 . S
C410 C411 1.402 . S
C410 H425 0.951 . S
C411 C410 1.402 . S
C411 C412 1.375 . S
C411 C414 1.481 . S
C412 C411 1.375 . S
C412 C413 1.367 . S
C412 H426 0.951 . S
C413 C409 1.383 . S
C413 C412 1.367 . S
C413 H427 0.950 . S
C414 C411 1.481 . S
C414 C415 1.297 . S
C414 H428 0.950 . S
C415 C414 1.297 . S
C415 C416 1.479 . S
C415 H429 0.950 . S
C416 C415 1.479 . S
C416 C417 1.375 . S
C416 C422 1.404 . S
C417 C416 1.375 . S
C417 C418 1.369 . S
C417 H430 0.950 . S
C418 C417 1.369 . S
C418 C419 1.392 . S
C418 H431 0.951 . S
C419 C418 1.392 . S
C419 C421 1.384 . S
H420 C422 0.949 . S
C421 C419 1.384 . S
C421 C422 1.385 . S
C421 H423 0.950 . S
C422 C416 1.404 . S
C422 H420 0.949 . S
C422 C421 1.385 . S
H423 C421 0.950 . S
H424 C408 0.951 . S
H425 C410 0.951 . S
H426 C412 0.951 . S
H427 C413 0.950 . S
H428 C414 0.950 . S
H429 C415 0.950 . S
H430 C417 0.950 . S
H431 C418 0.951 . S
C432 C433 1.386 . S
C432 C434 1.383 . S
C432 H448 0.951 . S
C433 C432 1.386 . S
C433 C437 1.383 . S
C434 C432 1.383 . S
C434 C435 1.402 . S
C434 H449 0.951 . S
C435 C434 1.402 . S
C435 C436 1.375 . S
C435 C438 1.481 . S
C436 C435 1.375 . S
C436 C437 1.367 . S
C436 H450 0.951 . S
C437 C433 1.383 . S
C437 C436 1.367 . S
C437 H451 0.950 . S
C438 C435 1.481 . S
C438 C439 1.297 . S
C438 H452 0.950 . S
C439 C438 1.297 . S
C439 C440 1.479 . S
C439 H453 0.950 . S
C440 C439 1.479 . S
C440 C441 1.375 . S
C440 C446 1.404 . S
C441 C440 1.375 . S
C441 C442 1.369 . S
C441 H454 0.950 . S
C442 C441 1.369 . S
C442 C443 1.392 . S
C442 H455 0.951 . S
C443 C442 1.392 . S
C443 C445 1.384 . S
H444 C446 0.949 . S
C445 C443 1.384 . S
C445 C446 1.385 . S
C445 H447 0.950 . S
C446 C440 1.404 . S
C446 H444 0.949 . S
C446 C445 1.385 . S
H447 C445 0.950 . S
H448 C432 0.951 . S
H449 C434 0.951 . S
H450 C436 0.951 . S
H451 C437 0.950 . S
H452 C438 0.950 . S
H453 C439 0.950 . S
H454 C441 0.950 . S
H455 C442 0.951 . S
C456 C457 1.386 . S
C456 C458 1.383 . S
C456 H472 0.951 . S
C457 C456 1.386 . S
C457 C461 1.383 . S
C458 C456 1.383 . S
C458 C459 1.402 . S
C458 H473 0.951 . S
C459 C458 1.402 . S
C459 C460 1.375 . S
C459 C462 1.481 . S
C460 C459 1.375 . S
C460 C461 1.367 . S
C460 H474 0.951 . S
C461 C457 1.383 . S
C461 C460 1.367 . S
C461 H475 0.950 . S
C462 C459 1.481 . S
C462 C463 1.297 . S
C462 H476 0.950 . S
C463 C462 1.297 . S
C463 C464 1.479 . S
C463 H477 0.950 . S
C464 C463 1.479 . S
C464 C465 1.375 . S
C464 C470 1.404 . S
C465 C464 1.375 . S
C465 C466 1.369 . S
C465 H478 0.950 . S
C466 C465 1.369 . S
C466 C467 1.392 . S
C466 H479 0.951 . S
C467 C466 1.392 . S
C467 C469 1.384 . S
H468 C470 0.949 . S
C469 C467 1.384 . S
C469 C470 1.385 . S
C469 H471 0.950 . S
C470 C464 1.404 . S
C470 H468 0.949 . S
C470 C469 1.385 . S
H471 C469 0.950 . S
H472 C456 0.951 . S
H473 C458 0.951 . S
H474 C460 0.951 . S
H475 C461 0.950 . S
H476 C462 0.950 . S
H477 C463 0.950 . S
H478 C465 0.950 . S
H479 C466 0.951 . S
C480 C481 1.386 . S
C480 C482 1.383 . S
C480 H496 0.951 . S
C481 C480 1.386 . S
C481 C485 1.383 . S
C482 C480 1.383 . S
C482 C483 1.402 . S
C482 H497 0.951 . S
C483 C482 1.402 . S
C483 C484 1.375 . S
C483 C486 1.481 . S
C484 C483 1.375 . S
C484 C485 1.367 . S
C484 H498 0.951 . S
C485 C481 1.383 . S
C485 C484 1.367 . S
C485 H499 0.950 . S
C486 C483 1.481 . S
C486 C487 1.297 . S
C486 H500 0.950 . S
C487 C486 1.297 . S
C487 C488 1.479 . S
C487 H501 0.950 . S
C488 C487 1.479 . S
C488 C489 1.375 . S
C488 C494 1.404 . S
C489 C488 1.375 . S
C489 C490 1.369 . S
C489 H502 0.950 . S
C490 C489 1.369 . S
C490 C491 1.392 . S
C490 H503 0.951 . S
C491 C490 1.392 . S
C491 C493 1.384 . S
H492 C494 0.949 . S
C493 C491 1.384 . S
C493 C494 1.385 . S
C493 H495 0.950 . S
C494 C488 1.404 . S
C494 H492 0.949 . S
C494 C493 1.385 . S
H495 C493 0.950 . S
H496 C480 0.951 . S
H497 C482 0.951 . S
H498 C484 0.951 . S
H499 C485 0.950 . S
H500 C486 0.950 . S
H501 C487 0.950 . S
H502 C489 0.950 . S
H503 C490 0.951 . S
C504 C505 1.386 . S
C504 C506 1.383 . S
C504 H520 0.951 . S
C505 C504 1.386 . S
C505 C509 1.383 . S
C506 C504 1.383 . S
C506 C507 1.402 . S
C506 H521 0.951 . S
C507 C506 1.402 . S
C507 C508 1.375 . S
C507 C510 1.481 . S
C508 C507 1.375 . S
C508 C509 1.367 . S
C508 H522 0.951 . S
C509 C505 1.383 . S
C509 C508 1.367 . S
C509 H523 0.950 . S
C510 C507 1.481 . S
C510 C511 1.297 . S
C510 H524 0.950 . S
C511 C510 1.297 . S
C511 C512 1.479 . S
C511 H525 0.950 . S
C512 C511 1.479 . S
C512 C513 1.375 . S
C512 C518 1.404 . S
C513 C512 1.375 . S
C513 C514 1.369 . S
C513 H526 0.950 . S
C514 C513 1.369 . S
C514 C515 1.392 . S
C514 H527 0.951 . S
C515 C514 1.392 . S
C515 C517 1.384 . S
H516 C518 0.949 . S
C517 C515 1.384 . S
C517 C518 1.385 . S
C517 H519 0.950 . S
C518 C512 1.404 . S
C518 H516 0.949 . S
C518 C517 1.385 . S
H519 C517 0.950 . S
H520 C504 0.951 . S
H521 C506 0.951 . S
H522 C508 0.951 . S
H523 C509 0.950 . S
H524 C510 0.950 . S
H525 C511 0.950 . S
H526 C513 0.950 . S
H527 C514 0.951 . S
C528 C529 1.386 . S
C528 C530 1.383 . S
C528 H544 0.951 . S
C529 C528 1.386 . S
C529 C533 1.383 . S
C530 C528 1.383 . S
C530 C531 1.402 . S
C530 H545 0.951 . S
C531 C530 1.402 . S
C531 C532 1.375 . S
C531 C534 1.481 . S
C532 C531 1.375 . S
C532 C533 1.367 . S
C532 H546 0.951 . S
C533 C529 1.383 . S
C533 C532 1.367 . S
C533 H547 0.950 . S
C534 C531 1.481 . S
C534 C535 1.297 . S
C534 H548 0.950 . S
C535 C534 1.297 . S
C535 C536 1.479 . S
C535 H549 0.950 . S
C536 C535 1.479 . S
C536 C537 1.375 . S
C536 C542 1.404 . S
C537 C536 1.375 . S
C537 C538 1.369 . S
C537 H550 0.950 . S
C538 C537 1.369 . S
C538 C539 1.392 . S
C538 H551 0.951 . S
C539 C538 1.392 . S
C539 C541 1.384 . S
H540 C542 0.949 . S
C541 C539 1.384 . S
C541 C542 1.385 . S
C541 H543 0.950 1_565 S
C542 C536 1.404 . S
C542 H540 0.949 . S
C542 C541 1.385 . S
H543 C541 0.950 1_545 S
H544 C528 0.951 . S
H545 C530 0.951 . S
H546 C532 0.951 . S
H547 C533 0.950 . S
H548 C534 0.950 . S
H549 C535 0.950 . S
H550 C537 0.950 . S
H551 C538 0.951 . S
C552 C553 1.386 . S
C552 C554 1.383 . S
C552 H568 0.951 . S
C553 C552 1.386 . S
C553 C557 1.383 . S
C554 C552 1.383 . S
C554 C555 1.402 . S
C554 H569 0.951 . S
C555 C554 1.402 . S
C555 C556 1.375 . S
C555 C558 1.481 . S
C556 C555 1.375 . S
C556 C557 1.367 . S
C556 H570 0.951 . S
C557 C553 1.383 . S
C557 C556 1.367 . S
C557 H571 0.949 . S
C558 C555 1.481 . S
C558 C559 1.297 . S
C558 H572 0.950 . S
C559 C558 1.297 . S
C559 C560 1.479 . S
C559 H573 0.950 . S
C560 C559 1.479 . S
C560 C561 1.375 . S
C560 C566 1.404 . S
C561 C560 1.375 . S
C561 C562 1.369 . S
C561 H574 0.950 . S
C562 C561 1.369 . S
C562 C563 1.392 . S
C562 H575 0.951 . S
C563 C562 1.392 . S
C563 C565 1.384 . S
H564 C566 0.949 . S
C565 C563 1.384 . S
C565 C566 1.385 . S
C565 H567 0.950 . S
C566 C560 1.404 . S
C566 H564 0.949 . S
C566 C565 1.385 . S
H567 C565 0.950 . S
H568 C552 0.951 . S
H569 C554 0.951 . S
H570 C556 0.951 . S
H571 C557 0.949 . S
H572 C558 0.950 . S
H573 C559 0.950 . S
H574 C561 0.950 . S
H575 C562 0.951 . S
C576 C577 1.386 . S
C576 C578 1.383 . S
C576 H592 0.951 . S
C577 C576 1.386 . S
C577 C581 1.383 . S
C578 C576 1.383 . S
C578 C579 1.402 . S
C578 H593 0.951 . S
C579 C578 1.402 . S
C579 C580 1.375 . S
C579 C582 1.481 . S
C580 C579 1.375 . S
C580 C581 1.367 . S
C580 H594 0.951 . S
C581 C577 1.383 . S
C581 C580 1.367 . S
C581 H595 0.950 . S
C582 C579 1.481 . S
C582 C583 1.297 . S
C582 H596 0.950 . S
C583 C582 1.297 . S
C583 C584 1.479 . S
C583 H597 0.950 . S
C584 C583 1.479 . S
C584 C585 1.375 . S
C584 C590 1.404 . S
C585 C584 1.375 . S
C585 C586 1.369 . S
C585 H598 0.950 . S
C586 C585 1.369 . S
C586 C587 1.392 . S
C586 H599 0.951 . S
C587 C586 1.392 . S
C587 C589 1.384 . S
H588 C590 0.949 . S
C589 C587 1.384 . S
C589 C590 1.385 . S
C589 H591 0.950 . S
C590 C584 1.404 . S
C590 H588 0.949 . S
C590 C589 1.385 . S
H591 C589 0.950 . S
H592 C576 0.951 . S
H593 C578 0.951 . S
H594 C580 0.951 . S
H595 C581 0.950 . S
H596 C582 0.950 . S
H597 C583 0.950 . S
H598 C585 0.950 . S
H599 C586 0.951 . S
C600 C601 1.386 . S
C600 C602 1.383 . S
C600 H616 0.951 . S
C601 C600 1.386 . S
C601 C605 1.383 . S
C602 C600 1.383 . S
C602 C603 1.402 . S
C602 H617 0.951 . S
C603 C602 1.402 . S
C603 C604 1.375 . S
C603 C606 1.481 . S
C604 C603 1.375 . S
C604 C605 1.367 . S
C604 H618 0.951 . S
C605 C601 1.383 . S
C605 C604 1.367 . S
C605 H619 0.950 . S
C606 C603 1.481 . S
C606 C607 1.297 . S
C606 H620 0.950 . S
C607 C606 1.297 . S
C607 C608 1.479 . S
C607 H621 0.950 . S
C608 C607 1.479 . S
C608 C609 1.375 . S
C608 C614 1.404 . S
C609 C608 1.375 . S
C609 C610 1.369 . S
C609 H622 0.950 . S
C610 C609 1.369 . S
C610 C611 1.392 . S
C610 H623 0.951 . S
C611 C610 1.392 . S
C611 C613 1.384 . S
H612 C614 0.949 . S
C613 C611 1.384 . S
C613 C614 1.385 . S
C613 H615 0.950 . S
C614 C608 1.404 . S
C614 H612 0.949 . S
C614 C613 1.385 . S
H615 C613 0.950 . S
H616 C600 0.951 . S
H617 C602 0.951 . S
H618 C604 0.951 . S
H619 C605 0.950 . S
H620 C606 0.950 . S
H621 C607 0.950 . S
H622 C609 0.950 . S
H623 C610 0.951 . S
C624 C625 1.386 . S
C624 C626 1.383 . S
C624 H640 0.951 . S
C625 C624 1.386 . S
C625 C629 1.383 . S
C626 C624 1.383 . S
C626 C627 1.402 . S
C626 H641 0.951 . S
C627 C626 1.402 . S
C627 C628 1.375 . S
C627 C630 1.481 . S
C628 C627 1.375 . S
C628 C629 1.367 . S
C628 H642 0.951 . S
C629 C625 1.383 . S
C629 C628 1.367 . S
C629 H643 0.950 . S
C630 C627 1.481 . S
C630 C631 1.297 . S
C630 H644 0.950 . S
C631 C630 1.297 . S
C631 C632 1.479 . S
C631 H645 0.950 . S
C632 C631 1.479 . S
C632 C633 1.375 . S
C632 C638 1.404 . S
C633 C632 1.375 . S
C633 C634 1.369 . S
C633 H646 0.950 . S
C634 C633 1.369 . S
C634 C635 1.392 . S
C634 H647 0.951 . S
C635 C634 1.392 . S
C635 C637 1.384 . S
H636 C638 0.949 . S
C637 C635 1.384 . S
C637 C638 1.385 . S
C637 H639 0.950 1_545 S
C638 C632 1.404 . S
C638 H636 0.949 . S
C638 C637 1.385 . S
H639 C637 0.950 1_565 S
H640 C624 0.951 . S
H641 C626 0.951 . S
H642 C628 0.951 . S
H643 C629 0.950 . S
H644 C630 0.950 . S
H645 C631 0.950 . S
H646 C633 0.950 . S
H647 C634 0.951 . S
C648 C649 1.386 1_455 S
C648 C650 1.383 1_455 S
C648 H664 0.951 . S
C649 C648 1.386 1_655 S
C649 C653 1.383 . S
C650 C648 1.383 1_655 S
C650 C651 1.402 . S
C650 H665 0.937 1_655 S
C651 C650 1.402 . S
C651 C652 1.375 . S
C651 C654 1.481 . S
C652 C651 1.375 . S
C652 C653 1.367 . S
C652 H666 0.951 . S
C653 C649 1.383 . S
C653 C652 1.367 . S
C653 H667 0.950 . S
C654 C651 1.481 . S
C654 C655 1.297 . S
C654 H668 0.950 . S
C655 C654 1.297 . S
C655 C656 1.479 . S
C655 H669 0.950 . S
C656 C655 1.479 . S
C656 C657 1.375 . S
C656 C662 1.404 . S
C657 C656 1.375 . S
C657 C658 1.369 . S
C657 H670 0.950 . S
C658 C657 1.369 . S
C658 C659 1.392 . S
C658 H671 0.951 . S
C659 C658 1.392 . S
C659 C661 1.384 . S
H660 C662 0.949 . S
C661 C659 1.384 . S
C661 C662 1.385 . S
C661 H663 0.950 . S
C662 C656 1.404 . S
C662 H660 0.949 . S
C662 C661 1.385 . S
H663 C661 0.950 . S
H664 C648 0.951 . S
H665 C650 0.937 1_455 S
H666 C652 0.951 . S
H667 C653 0.950 . S
H668 C654 0.950 . S
H669 C655 0.950 . S
H670 C657 0.950 . S
H671 C658 0.951 . S
C289 C158 1.594 . S
C299 C14 1.602 . S
C313 C50 1.605 . S
C323 C194 1.568 . S
C337 C86 1.599 . S
C347 C230 1.595 . S
C361 C266 1.601 . S
C371 C122 1.591 . S
C385 C4 1.393 . S
C395 C76 1.351 . S
C409 C40 1.332 . S
C419 C112 1.369 . S
C433 C220 1.376 . S
C443 C148 1.348 . S
C457 C184 1.346 . S
C467 C256 1.369 . S
C481 C182 0.823 . S
C491 C3 0.842 . S
C505 C39 0.841 . S
C515 C218 0.927 . S
C529 C75 0.885 . S
C539 C254 0.787 . S
C553 C146 0.802 . S
C563 C111 0.901 . S
C577 C147 0.828 . S
C587 C38 0.771 . S
C601 C183 0.850 . S
C611 C74 0.798 . S
C625 C219 0.879 . S
C635 C110 0.926 . S
C649 C2 0.896 . S
C659 C255 0.902 . S
