# Generated by pormake.
# Topology upa, (4)-cn, num edge types: 1
# Building blocks:
#     Node 0, Type 0, BuildingBlock: CEKHIL_clean_sbu_0, # of connection points: 4
#     Node 1, Type 0, BuildingBlock: CEKHIL_clean_sbu_0, # of connection points: 4
#     Node 2, Type 0, BuildingBlock: CEKHIL_clean_sbu_0, # of connection points: 4
#     Node 3, Type 0, BuildingBlock: CEKHIL_clean_sbu_0, # of connection points: 4
#     Node 4, Type 0, BuildingBlock: CEKHIL_clean_sbu_0, # of connection points: 4
#     Node 5, Type 0, BuildingBlock: CEKHIL_clean_sbu_0, # of connection points: 4
#     Node 6, Type 0, BuildingBlock: CEKHIL_clean_sbu_0, # of connection points: 4
#     Node 7, Type 0, BuildingBlock: CEKHIL_clean_sbu_0, # of connection points: 4
#     Edge 8, Type (0, 0), BuildingBlock: XIVTED_clean_linker_0, # of connection points: 2
#     Edge 9, Type (0, 0), BuildingBlock: XIVTED_clean_linker_0, # of connection points: 2
#     Edge 10, Type (0, 0), BuildingBlock: XIVTED_clean_linker_0, # of connection points: 2
#     Edge 11, Type (0, 0), BuildingBlock: XIVTED_clean_linker_0, # of connection points: 2
#     Edge 12, Type (0, 0), BuildingBlock: XIVTED_clean_linker_0, # of connection points: 2
#     Edge 13, Type (0, 0), BuildingBlock: XIVTED_clean_linker_0, # of connection points: 2
#     Edge 14, Type (0, 0), BuildingBlock: XIVTED_clean_linker_0, # of connection points: 2
#     Edge 15, Type (0, 0), BuildingBlock: XIVTED_clean_linker_0, # of connection points: 2
#     Edge 16, Type (0, 0), BuildingBlock: XIVTED_clean_linker_0, # of connection points: 2
#     Edge 17, Type (0, 0), BuildingBlock: XIVTED_clean_linker_0, # of connection points: 2
#     Edge 18, Type (0, 0), BuildingBlock: XIVTED_clean_linker_0, # of connection points: 2
#     Edge 19, Type (0, 0), BuildingBlock: XIVTED_clean_linker_0, # of connection points: 2
#     Edge 20, Type (0, 0), BuildingBlock: XIVTED_clean_linker_0, # of connection points: 2
#     Edge 21, Type (0, 0), BuildingBlock: XIVTED_clean_linker_0, # of connection points: 2
#     Edge 22, Type (0, 0), BuildingBlock: XIVTED_clean_linker_0, # of connection points: 2
#     Edge 23, Type (0, 0), BuildingBlock: XIVTED_clean_linker_0, # of connection points: 2
# Relax obj value: 0.236
# Max RMSD: 0.138
# Mean RMSD: 0.138
data_MOF--net-upa--node1-CEKHIL_clean_sbu_0--edge1-XIVTED_clean_linker_0
_symmetry_space_group_name_H-M    P1
_symmetry_Int_Tables_number       1
_symmetry_cell_setting            triclinic
loop_
_symmetry_equiv_pos_as_xyz
'x, y, z'
_cell_length_a     25.766381
_cell_length_b     25.781579
_cell_length_c     43.145346
_cell_angle_alpha  90.007398
_cell_angle_beta   89.993859
_cell_angle_gamma 90.010295
loop_
_atom_site_label
_atom_site_type_symbol
_atom_site_fract_x
_atom_site_fract_y
_atom_site_fract_z
_atom_type_partial_charge
Co0 Co 0.18473 0.23709 0.33296 0.0
O1 O 0.24147 0.27956 0.31796 0.0
O2 O 0.24658 0.19533 0.32708 0.0
C3 C 0.12178 0.26633 0.30046 0.0
O4 O 0.13482 0.17981 0.34599 0.0
Co5 Co 0.08757 0.28613 0.36411 0.0
O6 O 0.05769 0.21608 0.35726 0.0
C7 C 0.18294 0.27371 0.40103 0.0
C8 C 0.2691 0.23741 0.31738 0.0
C9 C 0.08594 0.17646 0.35198 0.0
O10 O 0.20467 0.25002 0.37805 0.0
O11 O 0.13794 0.29452 0.39916 0.0
O12 O 0.15601 0.23291 0.29097 0.0
O13 O 0.13104 0.28601 0.32749 0.0
Co14 Co 0.26915 0.69102 0.83208 0.0
O15 O 0.22738 0.74936 0.81883 0.0
O16 O 0.31215 0.75205 0.82659 0.0
C17 C 0.23888 0.63034 0.7986 0.0
O18 O 0.32549 0.63929 0.8439 0.0
Co19 Co 0.21823 0.59376 0.86171 0.0
O20 O 0.28744 0.56255 0.85386 0.0
C21 C 0.23388 0.68678 0.90035 0.0
C22 C 0.27015 0.77605 0.81805 0.0
C23 C 0.32773 0.59011 0.84903 0.0
O24 O 0.25733 0.70906 0.87749 0.0
O25 O 0.21226 0.64223 0.89797 0.0
O26 O 0.27268 0.66461 0.78975 0.0
O27 O 0.21884 0.63866 0.8257 0.0
Co28 Co 0.81857 0.76406 0.33239 0.0
O29 O 0.76035 0.72129 0.31982 0.0
O30 O 0.75794 0.80659 0.32473 0.0
C31 C 0.88044 0.7299 0.30085 0.0
O32 O 0.86986 0.82155 0.34302 0.0
Co33 Co 0.91508 0.71628 0.365 0.0
O34 O 0.94577 0.78571 0.35734 0.0
C35 C 0.81984 0.73321 0.40138 0.0
C36 C 0.73389 0.76404 0.31735 0.0
C37 C 0.91831 0.825 0.35012 0.0
O38 O 0.79893 0.75643 0.37796 0.0
O39 O 0.86407 0.71074 0.39991 0.0
O40 O 0.84669 0.76276 0.29019 0.0
O41 O 0.87116 0.71348 0.32865 0.0
Co42 Co 0.73412 0.31458 0.83191 0.0
O43 O 0.7753 0.25581 0.8187 0.0
O44 O 0.69068 0.25376 0.82716 0.0
C45 C 0.7639 0.37444 0.79782 0.0
O46 O 0.67822 0.36675 0.84381 0.0
Co47 Co 0.7858 0.41225 0.86052 0.0
O48 O 0.71665 0.44363 0.85277 0.0
C49 C 0.77049 0.32007 0.89992 0.0
C50 C 0.73234 0.22939 0.81841 0.0
C51 C 0.6762 0.41606 0.84849 0.0
O52 O 0.74682 0.29734 0.8773 0.0
O53 O 0.792 0.36462 0.89717 0.0
O54 O 0.72978 0.34013 0.78947 0.0
O55 O 0.78449 0.36662 0.82482 0.0
Co56 Co 0.68473 0.26689 0.1865 0.0
O57 O 0.742 0.22491 0.20133 0.0
O58 O 0.74612 0.30921 0.19228 0.0
C59 C 0.62204 0.23717 0.21907 0.0
O60 O 0.63443 0.32373 0.17344 0.0
Co61 Co 0.58827 0.21678 0.1552 0.0
O62 O 0.55822 0.28708 0.1605 0.0
C63 C 0.68333 0.23091 0.11828 0.0
C64 C 0.76925 0.26735 0.20178 0.0
C65 C 0.58601 0.32682 0.16626 0.0
O66 O 0.70475 0.25438 0.14143 0.0
O67 O 0.63857 0.20955 0.12 0.0
O68 O 0.65614 0.27073 0.22852 0.0
O69 O 0.63132 0.21754 0.192 0.0
Co70 Co 0.23685 0.19097 0.68683 0.0
O71 O 0.27875 0.2492 0.70021 0.0
O72 O 0.19413 0.25224 0.69199 0.0
C73 C 0.26646 0.13042 0.72061 0.0
O74 O 0.18021 0.13972 0.67485 0.0
Co75 Co 0.28689 0.09255 0.65796 0.0
O76 O 0.21708 0.06229 0.66533 0.0
C77 C 0.27323 0.18546 0.61886 0.0
C78 C 0.23608 0.27606 0.70079 0.0
C79 C 0.17719 0.09057 0.66981 0.0
O80 O 0.24954 0.20844 0.6414 0.0
O81 O 0.29427 0.1407 0.62167 0.0
O82 O 0.23261 0.16482 0.72922 0.0
O83 O 0.28669 0.13834 0.69354 0.0
Co84 Co 0.31652 0.73398 0.18638 0.0
O85 O 0.25908 0.77399 0.20264 0.0
O86 O 0.2552 0.69079 0.19029 0.0
C87 C 0.37852 0.76031 0.22024 0.0
O88 O 0.36743 0.67906 0.17147 0.0
Co89 Co 0.41322 0.78737 0.15768 0.0
O90 O 0.44452 0.7176 0.16329 0.0
C91 C 0.31953 0.77465 0.11915 0.0
C92 C 0.23203 0.73151 0.20143 0.0
C93 C 0.41667 0.67707 0.16644 0.0
O94 O 0.29699 0.75089 0.1418 0.0
O95 O 0.36465 0.79508 0.12158 0.0
O96 O 0.34467 0.72536 0.2281 0.0
O97 O 0.36934 0.78323 0.1941 0.0
Co98 Co 0.77019 0.81457 0.68789 0.0
O99 O 0.7288 0.75597 0.70125 0.0
O100 O 0.8133 0.75352 0.69244 0.0
C101 C 0.74098 0.87448 0.72213 0.0
O102 O 0.82643 0.86619 0.67581 0.0
Co103 Co 0.71945 0.91313 0.65974 0.0
O104 O 0.78921 0.94364 0.6669 0.0
C105 C 0.73326 0.82093 0.62007 0.0
C106 C 0.77165 0.72936 0.7014 0.0
C107 C 0.82924 0.9154 0.67098 0.0
O108 O 0.75683 0.79763 0.64251 0.0
O109 O 0.71238 0.86573 0.62306 0.0
O110 O 0.77507 0.84007 0.73035 0.0
O111 O 0.72025 0.86692 0.69516 0.0
H112 H 0.98224 0.1542 0.35589 0.0
H113 H 0.02197 0.84692 0.35489 0.0
H114 H 0.13242 0.08068 0.34871 0.0
H115 H 0.87231 0.92083 0.34564 0.0
H116 H 0.06296 0.93214 0.35567 0.0
H117 H 0.9414 0.06895 0.35541 0.0
C118 C 0.00674 0.12016 0.35433 0.0
C119 C 0.06098 0.12474 0.35238 0.0
C120 C 0.02117 0.92972 0.35343 0.0
C121 C 0.01417 0.02681 0.35174 0.0
C122 C 0.99763 0.88104 0.35307 0.0
C123 C 0.94349 0.87661 0.35026 0.0
C124 C 0.99042 0.97446 0.35117 0.0
C125 C 0.91414 0.9223 0.3478 0.0
C126 C 0.98328 0.07146 0.35394 0.0
C127 C 0.09052 0.07912 0.35023 0.0
N128 N 0.93799 0.96932 0.34841 0.0
N129 N 0.06672 0.03206 0.35003 0.0
H130 H 0.34795 0.48604 0.85315 0.0
H131 H 0.65624 0.52035 0.85063 0.0
H132 H 0.42445 0.63461 0.84541 0.0
H133 H 0.57938 0.37153 0.8471 0.0
H134 H 0.57176 0.56285 0.85096 0.0
H135 H 0.43244 0.44364 0.85321 0.0
C136 C 0.38247 0.50986 0.85153 0.0
C137 C 0.37896 0.56411 0.84933 0.0
C138 C 0.57336 0.52091 0.85011 0.0
C139 C 0.47605 0.51552 0.84934 0.0
C140 C 0.62164 0.49651 0.85001 0.0
C141 C 0.62504 0.44216 0.84891 0.0
C142 C 0.52799 0.49083 0.84923 0.0
C143 C 0.57874 0.41348 0.84795 0.0
C144 C 0.43076 0.48551 0.85149 0.0
C145 C 0.42518 0.59274 0.84714 0.0
N146 N 0.53215 0.43818 0.84819 0.0
N147 N 0.4718 0.56809 0.84726 0.0
H148 H 0.48297 0.34875 0.15812 0.0
H149 H 0.52088 0.65628 0.16413 0.0
H150 H 0.63182 0.42276 0.17127 0.0
H151 H 0.37113 0.58088 0.16504 0.0
H152 H 0.56257 0.57137 0.16291 0.0
H153 H 0.44198 0.43381 0.15681 0.0
C154 C 0.50716 0.38286 0.16063 0.0
C155 C 0.56105 0.37847 0.16483 0.0
C156 C 0.5206 0.57343 0.16332 0.0
C157 C 0.51406 0.47622 0.16338 0.0
C158 C 0.49668 0.62192 0.16391 0.0
C159 C 0.44231 0.62582 0.16469 0.0
C160 C 0.49 0.5284 0.16337 0.0
C161 C 0.41312 0.57985 0.16453 0.0
C162 C 0.48361 0.43147 0.15995 0.0
C163 C 0.59018 0.42418 0.16805 0.0
N164 N 0.43735 0.53307 0.16387 0.0
N165 N 0.5663 0.47117 0.16724 0.0
H166 H 0.08147 0.13714 0.67263 0.0
H167 H 0.92504 0.86889 0.67243 0.0
H168 H 0.15481 0.98686 0.66595 0.0
H169 H 0.85141 0.01923 0.66782 0.0
H170 H 0.00968 0.91148 0.67165 0.0
H171 H 0.99678 0.09459 0.67244 0.0
C172 C 0.07985 0.09523 0.67109 0.0
C173 C 0.12545 0.0656 0.66926 0.0
C174 C 0.97497 0.93512 0.67074 0.0
C175 C 0.02851 0.01664 0.66914 0.0
C176 C 0.92659 0.91082 0.67123 0.0
C177 C 0.88092 0.94046 0.67015 0.0
C178 C 0.97781 0.98949 0.66933 0.0
C179 C 0.88549 0.99471 0.66858 0.0
C180 C 0.03143 0.07097 0.67094 0.0
C181 C 0.12079 0.01139 0.6673 0.0
N182 N 0.93303 0.01744 0.66829 0.0
N183 N 0.07324 0.9887 0.66736 0.0
H184 H 0.15694 0.33 0.45273 0.0
H185 H 0.32566 0.15371 0.56676 0.0
H186 H 0.26475 0.21328 0.42111 0.0
H187 H 0.21682 0.26965 0.5982 0.0
H188 H 0.31271 0.18312 0.5136 0.0
H189 H 0.18732 0.31674 0.50566 0.0
C190 C 0.18755 0.30202 0.45678 0.0
C191 C 0.20783 0.27232 0.43224 0.0
C192 C 0.29208 0.20257 0.53212 0.0
C193 C 0.24257 0.25654 0.49333 0.0
C194 C 0.29949 0.18585 0.56263 0.0
C195 C 0.27187 0.20879 0.58721 0.0
C196 C 0.25655 0.24249 0.52587 0.0
C197 C 0.23885 0.25055 0.58015 0.0
C198 C 0.20483 0.29442 0.48715 0.0
C199 C 0.24777 0.23702 0.43915 0.0
N200 N 0.23169 0.26559 0.55016 0.0
N201 N 0.26331 0.22967 0.46904 0.0
H202 H 0.29088 0.77145 0.91964 0.0
H203 H 0.23382 0.71943 0.0997 0.0
H204 H 0.18291 0.65642 0.95329 0.0
H205 H 0.351 0.82532 0.06632 0.0
H206 H 0.20488 0.70617 0.04628 0.0
H207 H 0.30351 0.80146 0.97294 0.0
C208 C 0.26918 0.75297 0.93809 0.0
C209 C 0.23615 0.71088 0.93179 0.0
C210 C 0.23652 0.73279 0.05068 0.0
C211 C 0.25082 0.74495 0.99314 0.0
C212 C 0.25294 0.74065 0.08129 0.0
C213 C 0.29538 0.77318 0.08771 0.0
C214 C 0.26263 0.75763 0.02618 0.0
C215 C 0.31848 0.79947 0.06265 0.0
C216 C 0.27662 0.77003 0.96861 0.0
C217 C 0.20918 0.68862 0.95687 0.0
N218 N 0.30218 0.79074 0.03309 0.0
N219 N 0.21745 0.70558 0.98633 0.0
H220 H 0.78519 0.73349 0.60018 0.0
H221 H 0.73906 0.79612 0.42025 0.0
H222 H 0.68543 0.85617 0.56714 0.0
H223 H 0.84439 0.67878 0.45396 0.0
H224 H 0.70903 0.81015 0.47349 0.0
H225 H 0.79725 0.70464 0.54666 0.0
C226 C 0.76516 0.75396 0.58181 0.0
C227 C 0.73467 0.79778 0.58837 0.0
C228 C 0.73828 0.78091 0.46916 0.0
C229 C 0.74881 0.76509 0.52673 0.0
C230 C 0.75529 0.77267 0.43869 0.0
C231 C 0.79482 0.7366 0.43248 0.0
C232 C 0.76088 0.75286 0.49369 0.0
C233 C 0.81432 0.70747 0.45751 0.0
C234 C 0.77226 0.73753 0.55115 0.0
C235 C 0.70973 0.82253 0.56337 0.0
N236 N 0.79755 0.71658 0.4869 0.0
N237 N 0.71775 0.80619 0.53375 0.0
H238 H 0.71665 0.23345 0.91927 0.0
H239 H 0.76657 0.29049 0.09952 0.0
H240 H 0.81907 0.35336 0.95307 0.0
H241 H 0.65617 0.17818 0.06541 0.0
H242 H 0.7964 0.30458 0.04629 0.0
H243 H 0.70424 0.20368 0.97259 0.0
C244 C 0.73718 0.25311 0.93777 0.0
C245 C 0.76856 0.29644 0.93148 0.0
C246 C 0.76608 0.27639 0.05051 0.0
C247 C 0.75408 0.26264 0.99289 0.0
C248 C 0.74918 0.26808 0.08099 0.0
C249 C 0.7083 0.23346 0.08711 0.0
C250 C 0.74203 0.24989 0.02587 0.0
C251 C 0.68735 0.20569 0.06195 0.0
C252 C 0.72987 0.23616 0.9683 0.0
C253 C 0.7941 0.32014 0.95663 0.0
N254 N 0.70407 0.21486 0.03254 0.0
N255 N 0.78592 0.30327 0.98613 0.0
H256 H 0.59996 0.25756 0.27991 0.0
H257 H 0.30863 0.29921 0.27179 0.0
H258 H 0.52887 0.20293 0.19548 0.0
H259 H 0.35045 0.1736 0.33287 0.0
H260 H 0.39554 0.29456 0.24824 0.0
H261 H 0.51436 0.25496 0.30531 0.0
C262 C 0.56653 0.24475 0.26676 0.0
C263 C 0.57165 0.23065 0.23544 0.0
C264 C 0.3855 0.26832 0.26692 0.0
C265 C 0.47402 0.22911 0.26411 0.0
C266 C 0.33626 0.27109 0.28047 0.0
C267 C 0.32239 0.23675 0.30434 0.0
C268 C 0.42157 0.23204 0.27791 0.0
C269 C 0.3596 0.20066 0.31448 0.0
C270 C 0.51793 0.2433 0.28128 0.0
C271 C 0.52687 0.21434 0.21956 0.0
N272 N 0.40784 0.19959 0.30144 0.0
N273 N 0.47973 0.21495 0.23389 0.0
H274 H 0.18881 0.84365 0.81254 0.0
H275 H 0.34033 0.05443 0.71285 0.0
H276 H 0.35354 0.83152 0.79637 0.0
H277 H 0.20316 0.09141 0.76572 0.0
H278 H 0.34345 0.9692 0.73846 0.0
H279 H 0.19026 0.93129 0.79059 0.0
C280 C 0.22534 0.85951 0.8045 0.0
C281 C 0.27115 0.83025 0.8064 0.0
C282 C 0.31298 0.99625 0.74459 0.0
C283 C 0.27292 0.93029 0.78071 0.0
C284 C 0.31116 0.04481 0.72998 0.0
C285 C 0.27161 0.08024 0.73726 0.0
C286 C 0.2743 0.9826 0.76609 0.0
C287 C 0.2346 0.06556 0.75953 0.0
C288 C 0.22616 0.90957 0.79202 0.0
C289 C 0.31738 0.85283 0.79554 0.0
N290 N 0.23653 0.01779 0.77287 0.0
N291 N 0.31702 0.90127 0.78287 0.0
H292 H 0.66654 0.68223 0.31185 0.0
H293 H 0.4538 0.83517 0.21355 0.0
H294 H 0.67836 0.84666 0.29486 0.0
H295 H 0.41914 0.69461 0.26364 0.0
H296 H 0.53939 0.83778 0.23872 0.0
H297 H 0.57888 0.68317 0.28977 0.0
C298 C 0.65065 0.71857 0.30357 0.0
C299 C 0.67983 0.76445 0.3053 0.0
C300 C 0.51282 0.80662 0.24434 0.0
C301 C 0.5797 0.76567 0.27953 0.0
C302 C 0.46402 0.8051 0.22998 0.0
C303 C 0.4291 0.76478 0.2366 0.0
C304 C 0.52723 0.76695 0.26499 0.0
C305 C 0.44458 0.72665 0.25797 0.0
C306 C 0.60056 0.7191 0.29103 0.0
C307 C 0.65717 0.81042 0.29415 0.0
N308 N 0.49254 0.72841 0.27114 0.0
N309 N 0.6087 0.80979 0.2815 0.0
H310 H 0.64797 0.17442 0.79778 0.0
H311 H 0.80513 0.91254 0.76702 0.0
H312 H 0.81303 0.16105 0.81236 0.0
H313 H 0.66686 0.95067 0.71547 0.0
H314 H 0.80142 0.9975 0.79208 0.0
H315 H 0.6474 0.08659 0.77564 0.0
C316 C 0.68398 0.15284 0.79663 0.0
C317 C 0.73066 0.17512 0.80693 0.0
C318 C 0.77171 0.98718 0.77542 0.0
C319 C 0.7301 0.07464 0.78188 0.0
C320 C 0.77356 0.93853 0.76122 0.0
C321 C 0.73615 0.92438 0.7391 0.0
C322 C 0.73168 0.02186 0.76792 0.0
C323 C 0.69646 0.95999 0.73238 0.0
C324 C 0.68363 0.1029 0.78382 0.0
C325 C 0.77621 0.14549 0.80464 0.0
N326 N 0.69512 0.00705 0.74681 0.0
N327 N 0.77475 0.09675 0.79252 0.0
H328 H 0.03162 0.30933 0.32292 0.0
H329 H 0.84627 0.33783 0.18926 0.0
H330 H 0.09598 0.23655 0.24144 0.0
H331 H 0.8144 0.2001 0.24275 0.0
H332 H 0.93407 0.34076 0.21202 0.0
H333 H 0.94612 0.31029 0.2976 0.0
C334 C 0.02806 0.29413 0.29963 0.0
C335 C 0.0711 0.2725 0.28436 0.0
C336 C 0.90761 0.30999 0.21857 0.0
C337 C 0.97381 0.27442 0.25537 0.0
C338 C 0.85772 0.30824 0.20571 0.0
C339 C 0.82306 0.26854 0.21407 0.0
C340 C 0.92237 0.27247 0.24034 0.0
C341 C 0.84 0.2311 0.23548 0.0
C342 C 0.9793 0.29465 0.28533 0.0
C343 C 0.06387 0.25337 0.25413 0.0
N344 N 0.88833 0.23425 0.24814 0.0
N345 N 0.01612 0.25478 0.24056 0.0
H346 H 0.31741 0.34361 0.70686 0.0
H347 H 0.1654 0.55386 0.80676 0.0
H348 H 0.15252 0.33127 0.72242 0.0
H349 H 0.30202 0.59134 0.75349 0.0
H350 H 0.16253 0.46849 0.7812 0.0
H351 H 0.31572 0.43105 0.72913 0.0
C352 C 0.2808 0.35938 0.71484 0.0
C353 C 0.23501 0.33015 0.71264 0.0
C354 C 0.19283 0.49569 0.77499 0.0
C355 C 0.23297 0.42992 0.73872 0.0
C356 C 0.1945 0.54432 0.78956 0.0
C357 C 0.23381 0.57994 0.78214 0.0
C358 C 0.23143 0.48219 0.7534 0.0
C359 C 0.27076 0.56536 0.7598 0.0
C360 C 0.27985 0.40932 0.7275 0.0
C361 C 0.18868 0.35259 0.72345 0.0
N362 N 0.26897 0.51755 0.74651 0.0
N363 N 0.1889 0.40091 0.73631 0.0
H364 H 0.14977 0.67313 0.18085 0.0
H365 H 0.97285 0.69726 0.32608 0.0
H366 H 0.19348 0.7832 0.25142 0.0
H367 H 0.90384 0.74486 0.23953 0.0
H368 H 0.05825 0.69667 0.30089 0.0
H369 H 0.06205 0.66858 0.20385 0.0
C370 C 0.14091 0.69621 0.20115 0.0
C371 C 0.17867 0.72889 0.21417 0.0
C372 C 0.02414 0.70664 0.28747 0.0
C373 C 0.07987 0.72235 0.24093 0.0
C374 C 0.97539 0.70694 0.30174 0.0
C375 C 0.93108 0.72191 0.28502 0.0
C376 C 0.02838 0.71945 0.256 0.0
C377 C 0.93701 0.73351 0.25335 0.0
C378 C 0.09108 0.69361 0.21414 0.0
C379 C 0.1653 0.75794 0.24052 0.0
N380 N 0.98477 0.73182 0.23978 0.0
N381 N 0.11721 0.75346 0.25332 0.0
H382 H 0.69961 0.41257 0.75309 0.0
H383 H 0.85615 0.67449 0.72186 0.0
H384 H 0.83781 0.45095 0.80466 0.0
H385 H 0.6909 0.66115 0.70802 0.0
H386 H 0.8569 0.58684 0.74422 0.0
H387 H 0.703 0.49761 0.72818 0.0
C388 C 0.7311 0.43864 0.75893 0.0
C389 C 0.7686 0.4245 0.781 0.0
C390 C 0.82058 0.60312 0.73616 0.0
C391 C 0.7727 0.52212 0.75232 0.0
C392 C 0.82012 0.65296 0.72322 0.0
C393 C 0.77335 0.67519 0.71305 0.0
C394 C 0.77412 0.57489 0.73835 0.0
C395 C 0.7278 0.64562 0.71562 0.0
C396 C 0.73276 0.48734 0.74481 0.0
C397 C 0.80817 0.46024 0.78777 0.0
N398 N 0.72937 0.59696 0.72784 0.0
N399 N 0.80934 0.50736 0.7734 0.0
loop_
_geom_bond_atom_site_label_1
_geom_bond_atom_site_label_2
_geom_bond_distance
_geom_bond_site_symmetry_2
_ccdc_geom_bond_type
Co0 O1 2.216 . S
Co0 O2 2.091 . S
Co0 O4 2.004 . S
Co0 O10 2.021 . S
Co0 O12 2.137 . S
Co0 O13 2.244 . S
O1 Co0 2.216 . S
O1 C8 1.247 . S
O2 Co0 2.091 . S
O2 C8 1.261 . S
C3 O12 1.247 . S
C3 O13 1.272 . S
O4 Co0 2.004 . S
O4 C9 1.259 . S
Co5 O6 2.061 . S
Co5 O11 2.052 . S
Co5 O13 2.135 . S
O6 Co5 2.061 . S
O6 C9 1.235 . S
C7 O10 1.238 . S
C7 O11 1.241 . S
C8 O1 1.247 . S
C8 O2 1.261 . S
C9 O4 1.259 . S
C9 O6 1.235 . S
O10 Co0 2.021 . S
O10 C7 1.238 . S
O11 Co5 2.052 . S
O11 C7 1.241 . S
O12 Co0 2.137 . S
O12 C3 1.247 . S
O13 Co0 2.244 . S
O13 C3 1.272 . S
O13 Co5 2.135 . S
Co14 O15 2.216 . S
Co14 O16 2.091 . S
Co14 O18 2.004 . S
Co14 O24 2.021 . S
Co14 O26 2.137 . S
Co14 O27 2.244 . S
O15 Co14 2.216 . S
O15 C22 1.247 . S
O16 Co14 2.091 . S
O16 C22 1.261 . S
C17 O26 1.247 . S
C17 O27 1.272 . S
O18 Co14 2.004 . S
O18 C23 1.259 . S
Co19 O20 2.061 . S
Co19 O25 2.052 . S
Co19 O27 2.135 . S
O20 Co19 2.061 . S
O20 C23 1.235 . S
C21 O24 1.238 . S
C21 O25 1.241 . S
C22 O15 1.247 . S
C22 O16 1.261 . S
C23 O18 1.259 . S
C23 O20 1.235 . S
O24 Co14 2.021 . S
O24 C21 1.238 . S
O25 Co19 2.052 . S
O25 C21 1.241 . S
O26 Co14 2.137 . S
O26 C17 1.247 . S
O27 Co14 2.244 . S
O27 C17 1.272 . S
O27 Co19 2.135 . S
Co28 O29 2.216 . S
Co28 O30 2.091 . S
Co28 O32 2.004 . S
Co28 O38 2.021 . S
Co28 O40 2.137 . S
Co28 O41 2.244 . S
O29 Co28 2.216 . S
O29 C36 1.247 . S
O30 Co28 2.091 . S
O30 C36 1.261 . S
C31 O40 1.247 . S
C31 O41 1.272 . S
O32 Co28 2.004 . S
O32 C37 1.259 . S
Co33 O34 2.061 . S
Co33 O39 2.052 . S
Co33 O41 2.135 . S
O34 Co33 2.061 . S
O34 C37 1.235 . S
C35 O38 1.238 . S
C35 O39 1.241 . S
C36 O29 1.247 . S
C36 O30 1.261 . S
C37 O32 1.259 . S
C37 O34 1.235 . S
O38 Co28 2.021 . S
O38 C35 1.238 . S
O39 Co33 2.052 . S
O39 C35 1.241 . S
O40 Co28 2.137 . S
O40 C31 1.247 . S
O41 Co28 2.244 . S
O41 C31 1.272 . S
O41 Co33 2.135 . S
Co42 O43 2.216 . S
Co42 O44 2.091 . S
Co42 O46 2.004 . S
Co42 O52 2.021 . S
Co42 O54 2.137 . S
Co42 O55 2.244 . S
O43 Co42 2.216 . S
O43 C50 1.247 . S
O44 Co42 2.091 . S
O44 C50 1.261 . S
C45 O54 1.247 . S
C45 O55 1.272 . S
O46 Co42 2.004 . S
O46 C51 1.259 . S
Co47 O48 2.061 . S
Co47 O53 2.052 . S
Co47 O55 2.135 . S
O48 Co47 2.061 . S
O48 C51 1.235 . S
C49 O52 1.238 . S
C49 O53 1.241 . S
C50 O43 1.247 . S
C50 O44 1.261 . S
C51 O46 1.259 . S
C51 O48 1.235 . S
O52 Co42 2.021 . S
O52 C49 1.238 . S
O53 Co47 2.052 . S
O53 C49 1.241 . S
O54 Co42 2.137 . S
O54 C45 1.247 . S
O55 Co42 2.244 . S
O55 C45 1.272 . S
O55 Co47 2.135 . S
Co56 O57 2.216 . S
Co56 O58 2.091 . S
Co56 O60 2.004 . S
Co56 O66 2.021 . S
Co56 O68 2.137 . S
Co56 O69 2.244 . S
O57 Co56 2.216 . S
O57 C64 1.247 . S
O58 Co56 2.091 . S
O58 C64 1.261 . S
C59 O68 1.247 . S
C59 O69 1.272 . S
O60 Co56 2.004 . S
O60 C65 1.259 . S
Co61 O62 2.061 . S
Co61 O67 2.052 . S
Co61 O69 2.135 . S
O62 Co61 2.061 . S
O62 C65 1.235 . S
C63 O66 1.238 . S
C63 O67 1.241 . S
C64 O57 1.247 . S
C64 O58 1.261 . S
C65 O60 1.259 . S
C65 O62 1.235 . S
O66 Co56 2.021 . S
O66 C63 1.238 . S
O67 Co61 2.052 . S
O67 C63 1.241 . S
O68 Co56 2.137 . S
O68 C59 1.247 . S
O69 Co56 2.244 . S
O69 C59 1.272 . S
O69 Co61 2.135 . S
Co70 O71 2.216 . S
Co70 O72 2.091 . S
Co70 O74 2.004 . S
Co70 O80 2.021 . S
Co70 O82 2.137 . S
Co70 O83 2.244 . S
O71 Co70 2.216 . S
O71 C78 1.247 . S
O72 Co70 2.091 . S
O72 C78 1.261 . S
C73 O82 1.247 . S
C73 O83 1.272 . S
O74 Co70 2.004 . S
O74 C79 1.259 . S
Co75 O76 2.061 . S
Co75 O81 2.052 . S
Co75 O83 2.135 . S
O76 Co75 2.061 . S
O76 C79 1.235 . S
C77 O80 1.238 . S
C77 O81 1.241 . S
C78 O71 1.247 . S
C78 O72 1.261 . S
C79 O74 1.259 . S
C79 O76 1.235 . S
O80 Co70 2.021 . S
O80 C77 1.238 . S
O81 Co75 2.052 . S
O81 C77 1.241 . S
O82 Co70 2.137 . S
O82 C73 1.247 . S
O83 Co70 2.244 . S
O83 C73 1.272 . S
O83 Co75 2.135 . S
Co84 O85 2.216 . S
Co84 O86 2.091 . S
Co84 O88 2.004 . S
Co84 O94 2.021 . S
Co84 O96 2.137 . S
Co84 O97 2.244 . S
O85 Co84 2.216 . S
O85 C92 1.247 . S
O86 Co84 2.091 . S
O86 C92 1.261 . S
C87 O96 1.247 . S
C87 O97 1.272 . S
O88 Co84 2.004 . S
O88 C93 1.259 . S
Co89 O90 2.061 . S
Co89 O95 2.052 . S
Co89 O97 2.135 . S
O90 Co89 2.061 . S
O90 C93 1.235 . S
C91 O94 1.238 . S
C91 O95 1.241 . S
C92 O85 1.247 . S
C92 O86 1.261 . S
C93 O88 1.259 . S
C93 O90 1.235 . S
O94 Co84 2.021 . S
O94 C91 1.238 . S
O95 Co89 2.052 . S
O95 C91 1.241 . S
O96 Co84 2.137 . S
O96 C87 1.247 . S
O97 Co84 2.244 . S
O97 C87 1.272 . S
O97 Co89 2.135 . S
Co98 O99 2.216 . S
Co98 O100 2.091 . S
Co98 O102 2.004 . S
Co98 O108 2.021 . S
Co98 O110 2.137 . S
Co98 O111 2.244 . S
O99 Co98 2.216 . S
O99 C106 1.247 . S
O100 Co98 2.091 . S
O100 C106 1.261 . S
C101 O110 1.247 . S
C101 O111 1.272 . S
O102 Co98 2.004 . S
O102 C107 1.259 . S
Co103 O104 2.061 . S
Co103 O109 2.052 . S
Co103 O111 2.135 . S
O104 Co103 2.061 . S
O104 C107 1.235 . S
C105 O108 1.238 . S
C105 O109 1.241 . S
C106 O99 1.247 . S
C106 O100 1.261 . S
C107 O102 1.259 . S
C107 O104 1.235 . S
O108 Co98 2.021 . S
O108 C105 1.238 . S
O109 Co103 2.052 . S
O109 C105 1.241 . S
O110 Co98 2.137 . S
O110 C101 1.247 . S
O111 Co98 2.244 . S
O111 C101 1.272 . S
O111 Co103 2.135 . S
H112 C118 0.930 . S
H113 C122 0.930 . S
H114 C127 0.929 . S
H115 C125 0.929 . S
H116 C120 0.929 . S
H117 C126 0.929 . S
C118 H112 0.930 . S
C118 C119 1.367 . S
C118 C126 1.378 1_455 S
C119 C118 1.367 . S
C119 C127 1.433 . S
C120 H116 0.929 . S
C120 C122 1.378 1_455 S
C120 C124 1.350 1_455 S
C121 C124 1.463 1_445 S
C121 C126 1.350 1_455 S
C121 N129 1.427 . S
C122 H113 0.930 . S
C122 C120 1.378 1_655 S
C122 C123 1.367 . S
C123 C122 1.367 . S
C123 C125 1.433 . S
C124 C120 1.350 1_655 S
C124 C121 1.463 1_665 S
C124 N128 1.427 . S
C125 H115 0.929 . S
C125 C123 1.433 . S
C125 N128 1.384 . S
C126 H117 0.929 . S
C126 C118 1.378 1_655 S
C126 C121 1.350 1_655 S
C127 H114 0.929 . S
C127 C119 1.433 . S
C127 N129 1.384 . S
N128 C124 1.427 . S
N128 C125 1.384 . S
N129 C121 1.427 . S
N129 C127 1.384 . S
H130 C136 0.930 . S
H131 C140 0.930 . S
H132 C145 0.929 . S
H133 C143 0.929 . S
H134 C138 0.929 . S
H135 C144 0.929 . S
C136 H130 0.930 . S
C136 C137 1.367 . S
C136 C144 1.378 . S
C137 C136 1.367 . S
C137 C145 1.433 . S
C138 H134 0.929 . S
C138 C140 1.378 . S
C138 C142 1.350 . S
C139 C142 1.463 . S
C139 C144 1.350 . S
C139 N147 1.427 . S
C140 H131 0.930 . S
C140 C138 1.378 . S
C140 C141 1.367 . S
C141 C140 1.367 . S
C141 C143 1.433 . S
C142 C138 1.350 . S
C142 C139 1.463 . S
C142 N146 1.427 . S
C143 H133 0.929 . S
C143 C141 1.433 . S
C143 N146 1.384 . S
C144 H135 0.929 . S
C144 C136 1.378 . S
C144 C139 1.350 . S
C145 H132 0.929 . S
C145 C137 1.433 . S
C145 N147 1.384 . S
N146 C142 1.427 . S
N146 C143 1.384 . S
N147 C139 1.427 . S
N147 C145 1.384 . S
H148 C154 0.930 . S
H149 C158 0.930 . S
H150 C163 0.929 . S
H151 C161 0.929 . S
H152 C156 0.929 . S
H153 C162 0.929 . S
C154 H148 0.930 . S
C154 C155 1.367 . S
C154 C162 1.378 . S
C155 C154 1.367 . S
C155 C163 1.433 . S
C156 H152 0.929 . S
C156 C158 1.378 . S
C156 C160 1.350 . S
C157 C160 1.463 . S
C157 C162 1.350 . S
C157 N165 1.427 . S
C158 H149 0.930 . S
C158 C156 1.378 . S
C158 C159 1.367 . S
C159 C158 1.367 . S
C159 C161 1.433 . S
C160 C156 1.350 . S
C160 C157 1.463 . S
C160 N164 1.427 . S
C161 H151 0.929 . S
C161 C159 1.433 . S
C161 N164 1.384 . S
C162 H153 0.929 . S
C162 C154 1.378 . S
C162 C157 1.350 . S
C163 H150 0.929 . S
C163 C155 1.433 . S
C163 N165 1.384 . S
N164 C160 1.427 . S
N164 C161 1.384 . S
N165 C157 1.427 . S
N165 C163 1.384 . S
H166 C172 0.930 . S
H167 C176 0.930 . S
H168 C181 0.929 . S
H169 C179 0.929 . S
H170 C174 0.929 1_455 S
H171 C180 0.929 1_655 S
C172 H166 0.930 . S
C172 C173 1.367 . S
C172 C180 1.378 . S
C173 C172 1.367 . S
C173 C181 1.433 . S
C174 H170 0.929 1_655 S
C174 C176 1.378 . S
C174 C178 1.350 . S
C175 C178 1.463 1_445 S
C175 C180 1.350 . S
C175 N183 1.427 . S
C176 H167 0.930 . S
C176 C174 1.378 . S
C176 C177 1.367 . S
C177 C176 1.367 . S
C177 C179 1.433 . S
C178 C174 1.350 . S
C178 C175 1.463 1_665 S
C178 N182 1.427 . S
C179 H169 0.929 . S
C179 C177 1.433 . S
C179 N182 1.384 . S
C180 H171 0.929 1_455 S
C180 C172 1.378 . S
C180 C175 1.350 . S
C181 H168 0.929 . S
C181 C173 1.433 . S
C181 N183 1.384 . S
N182 C178 1.427 . S
N182 C179 1.384 . S
N183 C175 1.427 . S
N183 C181 1.384 . S
H184 C190 0.930 . S
H185 C194 0.930 . S
H186 C199 0.929 . S
H187 C197 0.929 . S
H188 C192 0.929 . S
H189 C198 0.929 . S
C190 H184 0.930 . S
C190 C191 1.367 . S
C190 C198 1.378 . S
C191 C190 1.367 . S
C191 C199 1.433 . S
C192 H188 0.929 . S
C192 C194 1.378 . S
C192 C196 1.350 . S
C193 C196 1.463 . S
C193 C198 1.350 . S
C193 N201 1.427 . S
C194 H185 0.930 . S
C194 C192 1.378 . S
C194 C195 1.367 . S
C195 C194 1.367 . S
C195 C197 1.433 . S
C196 C192 1.350 . S
C196 C193 1.463 . S
C196 N200 1.427 . S
C197 H187 0.929 . S
C197 C195 1.433 . S
C197 N200 1.384 . S
C198 H189 0.929 . S
C198 C190 1.378 . S
C198 C193 1.350 . S
C199 H186 0.929 . S
C199 C191 1.433 . S
C199 N201 1.384 . S
N200 C196 1.427 . S
N200 C197 1.384 . S
N201 C193 1.427 . S
N201 C199 1.384 . S
H202 C208 0.930 . S
H203 C212 0.930 . S
H204 C217 0.929 . S
H205 C215 0.929 . S
H206 C210 0.929 . S
H207 C216 0.929 . S
C208 H202 0.930 . S
C208 C209 1.367 . S
C208 C216 1.378 . S
C209 C208 1.367 . S
C209 C217 1.433 . S
C210 H206 0.929 . S
C210 C212 1.378 . S
C210 C214 1.350 . S
C211 C214 1.463 1_556 S
C211 C216 1.350 . S
C211 N219 1.427 . S
C212 H203 0.930 . S
C212 C210 1.378 . S
C212 C213 1.367 . S
C213 C212 1.367 . S
C213 C215 1.433 . S
C214 C210 1.350 . S
C214 C211 1.463 1_554 S
C214 N218 1.427 . S
C215 H205 0.929 . S
C215 C213 1.433 . S
C215 N218 1.384 . S
C216 H207 0.929 . S
C216 C208 1.378 . S
C216 C211 1.350 . S
C217 H204 0.929 . S
C217 C209 1.433 . S
C217 N219 1.384 . S
N218 C214 1.427 . S
N218 C215 1.384 . S
N219 C211 1.427 . S
N219 C217 1.384 . S
H220 C226 0.930 . S
H221 C230 0.930 . S
H222 C235 0.929 . S
H223 C233 0.929 . S
H224 C228 0.929 . S
H225 C234 0.929 . S
C226 H220 0.930 . S
C226 C227 1.367 . S
C226 C234 1.378 . S
C227 C226 1.367 . S
C227 C235 1.433 . S
C228 H224 0.929 . S
C228 C230 1.378 . S
C228 C232 1.350 . S
C229 C232 1.463 . S
C229 C234 1.350 . S
C229 N237 1.427 . S
C230 H221 0.930 . S
C230 C228 1.378 . S
C230 C231 1.367 . S
C231 C230 1.367 . S
C231 C233 1.433 . S
C232 C228 1.350 . S
C232 C229 1.463 . S
C232 N236 1.427 . S
C233 H223 0.929 . S
C233 C231 1.433 . S
C233 N236 1.384 . S
C234 H225 0.929 . S
C234 C226 1.378 . S
C234 C229 1.350 . S
C235 H222 0.929 . S
C235 C227 1.433 . S
C235 N237 1.384 . S
N236 C232 1.427 . S
N236 C233 1.384 . S
N237 C229 1.427 . S
N237 C235 1.384 . S
H238 C244 0.930 . S
H239 C248 0.930 . S
H240 C253 0.929 . S
H241 C251 0.929 . S
H242 C246 0.929 . S
H243 C252 0.929 . S
C244 H238 0.930 . S
C244 C245 1.367 . S
C244 C252 1.378 . S
C245 C244 1.367 . S
C245 C253 1.433 . S
C246 H242 0.929 . S
C246 C248 1.378 . S
C246 C250 1.350 . S
C247 C250 1.463 1_556 S
C247 C252 1.350 . S
C247 N255 1.427 . S
C248 H239 0.930 . S
C248 C246 1.378 . S
C248 C249 1.367 . S
C249 C248 1.367 . S
C249 C251 1.433 . S
C250 C246 1.350 . S
C250 C247 1.463 1_554 S
C250 N254 1.427 . S
C251 H241 0.929 . S
C251 C249 1.433 . S
C251 N254 1.384 . S
C252 H243 0.929 . S
C252 C244 1.378 . S
C252 C247 1.350 . S
C253 H240 0.929 . S
C253 C245 1.433 . S
C253 N255 1.384 . S
N254 C250 1.427 . S
N254 C251 1.384 . S
N255 C247 1.427 . S
N255 C253 1.384 . S
H256 C262 0.930 . S
H257 C266 0.930 . S
H258 C271 0.929 . S
H259 C269 0.929 . S
H260 C264 0.929 . S
H261 C270 0.929 . S
C262 H256 0.930 . S
C262 C263 1.367 . S
C262 C270 1.378 . S
C263 C262 1.367 . S
C263 C271 1.433 . S
C264 H260 0.929 . S
C264 C266 1.378 . S
C264 C268 1.350 . S
C265 C268 1.463 . S
C265 C270 1.350 . S
C265 N273 1.427 . S
C266 H257 0.930 . S
C266 C264 1.378 . S
C266 C267 1.367 . S
C267 C266 1.367 . S
C267 C269 1.433 . S
C268 C264 1.350 . S
C268 C265 1.463 . S
C268 N272 1.427 . S
C269 H259 0.929 . S
C269 C267 1.433 . S
C269 N272 1.384 . S
C270 H261 0.929 . S
C270 C262 1.378 . S
C270 C265 1.350 . S
C271 H258 0.929 . S
C271 C263 1.433 . S
C271 N273 1.384 . S
N272 C268 1.427 . S
N272 C269 1.384 . S
N273 C265 1.427 . S
N273 C271 1.384 . S
H274 C280 0.930 . S
H275 C284 0.930 . S
H276 C289 0.929 . S
H277 C287 0.929 . S
H278 C282 0.929 . S
H279 C288 0.929 . S
C280 H274 0.930 . S
C280 C281 1.367 . S
C280 C288 1.378 . S
C281 C280 1.367 . S
C281 C289 1.433 . S
C282 H278 0.929 . S
C282 C284 1.378 . S
C282 C286 1.350 . S
C283 C286 1.463 . S
C283 C288 1.350 . S
C283 N291 1.427 . S
C284 H275 0.930 . S
C284 C282 1.378 . S
C284 C285 1.367 1_565 S
C285 C284 1.367 1_545 S
C285 C287 1.433 . S
C286 C282 1.350 . S
C286 C283 1.463 . S
C286 N290 1.427 . S
C287 H277 0.929 . S
C287 C285 1.433 . S
C287 N290 1.384 1_545 S
C288 H279 0.929 . S
C288 C280 1.378 . S
C288 C283 1.350 . S
C289 H276 0.929 . S
C289 C281 1.433 . S
C289 N291 1.384 . S
N290 C286 1.427 . S
N290 C287 1.384 1_565 S
N291 C283 1.427 . S
N291 C289 1.384 . S
H292 C298 0.930 . S
H293 C302 0.930 . S
H294 C307 0.929 . S
H295 C305 0.929 . S
H296 C300 0.929 . S
H297 C306 0.929 . S
C298 H292 0.930 . S
C298 C299 1.367 . S
C298 C306 1.378 . S
C299 C298 1.367 . S
C299 C307 1.433 . S
C300 H296 0.929 . S
C300 C302 1.378 . S
C300 C304 1.350 . S
C301 C304 1.463 . S
C301 C306 1.350 . S
C301 N309 1.427 . S
C302 H293 0.930 . S
C302 C300 1.378 . S
C302 C303 1.367 . S
C303 C302 1.367 . S
C303 C305 1.433 . S
C304 C300 1.350 . S
C304 C301 1.463 . S
C304 N308 1.427 . S
C305 H295 0.929 . S
C305 C303 1.433 . S
C305 N308 1.384 . S
C306 H297 0.929 . S
C306 C298 1.378 . S
C306 C301 1.350 . S
C307 H294 0.929 . S
C307 C299 1.433 . S
C307 N309 1.384 . S
N308 C304 1.427 . S
N308 C305 1.384 . S
N309 C301 1.427 . S
N309 C307 1.384 . S
H310 C316 0.930 . S
H311 C320 0.930 . S
H312 C325 0.929 . S
H313 C323 0.929 . S
H314 C318 0.929 . S
H315 C324 0.929 . S
C316 H310 0.930 . S
C316 C317 1.367 . S
C316 C324 1.378 . S
C317 C316 1.367 . S
C317 C325 1.433 . S
C318 H314 0.929 . S
C318 C320 1.378 1_545 S
C318 C322 1.350 . S
C319 C322 1.463 . S
C319 C324 1.350 . S
C319 N327 1.427 . S
C320 H311 0.930 . S
C320 C318 1.378 1_565 S
C320 C321 1.367 . S
C321 C320 1.367 . S
C321 C323 1.433 1_565 S
C322 C318 1.350 . S
C322 C319 1.463 . S
C322 N326 1.427 . S
C323 H313 0.929 . S
C323 C321 1.433 1_545 S
C323 N326 1.384 . S
C324 H315 0.929 . S
C324 C316 1.378 . S
C324 C319 1.350 . S
C325 H312 0.929 . S
C325 C317 1.433 . S
C325 N327 1.384 . S
N326 C322 1.427 . S
N326 C323 1.384 . S
N327 C319 1.427 . S
N327 C325 1.384 . S
H328 C334 0.930 . S
H329 C338 0.930 . S
H330 C343 0.929 . S
H331 C341 0.929 . S
H332 C336 0.929 . S
H333 C342 0.929 . S
C334 H328 0.930 . S
C334 C335 1.367 1_655 S
C334 C342 1.378 . S
C335 C334 1.367 1_455 S
C335 C343 1.433 . S
C336 H332 0.929 . S
C336 C338 1.378 . S
C336 C340 1.350 . S
C337 C340 1.463 . S
C337 C342 1.350 . S
C337 N345 1.427 . S
C338 H329 0.930 . S
C338 C336 1.378 . S
C338 C339 1.367 . S
C339 C338 1.367 . S
C339 C341 1.433 . S
C340 C336 1.350 . S
C340 C337 1.463 . S
C340 N344 1.427 . S
C341 H331 0.929 . S
C341 C339 1.433 . S
C341 N344 1.384 . S
C342 H333 0.929 . S
C342 C334 1.378 . S
C342 C337 1.350 . S
C343 H330 0.929 . S
C343 C335 1.433 . S
C343 N345 1.384 1_455 S
N344 C340 1.427 . S
N344 C341 1.384 . S
N345 C337 1.427 . S
N345 C343 1.384 1_655 S
H346 C352 0.930 . S
H347 C356 0.930 . S
H348 C361 0.929 . S
H349 C359 0.929 . S
H350 C354 0.929 . S
H351 C360 0.929 . S
C352 H346 0.930 . S
C352 C353 1.367 . S
C352 C360 1.378 . S
C353 C352 1.367 . S
C353 C361 1.433 . S
C354 H350 0.929 . S
C354 C356 1.378 . S
C354 C358 1.350 . S
C355 C358 1.463 . S
C355 C360 1.350 . S
C355 N363 1.427 . S
C356 H347 0.930 . S
C356 C354 1.378 . S
C356 C357 1.367 . S
C357 C356 1.367 . S
C357 C359 1.433 . S
C358 C354 1.350 . S
C358 C355 1.463 . S
C358 N362 1.427 . S
C359 H349 0.929 . S
C359 C357 1.433 . S
C359 N362 1.384 . S
C360 H351 0.929 . S
C360 C352 1.378 . S
C360 C355 1.350 . S
C361 H348 0.929 . S
C361 C353 1.433 . S
C361 N363 1.384 . S
N362 C358 1.427 . S
N362 C359 1.384 . S
N363 C355 1.427 . S
N363 C361 1.384 . S
H364 C370 0.930 . S
H365 C374 0.930 . S
H366 C379 0.929 . S
H367 C377 0.929 . S
H368 C372 0.929 . S
H369 C378 0.929 . S
C370 H364 0.930 . S
C370 C371 1.367 . S
C370 C378 1.378 . S
C371 C370 1.367 . S
C371 C379 1.433 . S
C372 H368 0.929 . S
C372 C374 1.378 . S
C372 C376 1.350 . S
C373 C376 1.463 . S
C373 C378 1.350 . S
C373 N381 1.427 . S
C374 H365 0.930 . S
C374 C372 1.378 . S
C374 C375 1.367 1_455 S
C375 C374 1.367 1_655 S
C375 C377 1.433 . S
C376 C372 1.350 . S
C376 C373 1.463 . S
C376 N380 1.427 . S
C377 H367 0.929 . S
C377 C375 1.433 . S
C377 N380 1.384 1_655 S
C378 H369 0.929 . S
C378 C370 1.378 . S
C378 C373 1.350 . S
C379 H366 0.929 . S
C379 C371 1.433 . S
C379 N381 1.384 . S
N380 C376 1.427 . S
N380 C377 1.384 1_455 S
N381 C373 1.427 . S
N381 C379 1.384 . S
H382 C388 0.930 . S
H383 C392 0.930 . S
H384 C397 0.929 . S
H385 C395 0.929 . S
H386 C390 0.929 . S
H387 C396 0.929 . S
C388 H382 0.930 . S
C388 C389 1.367 . S
C388 C396 1.378 . S
C389 C388 1.367 . S
C389 C397 1.433 . S
C390 H386 0.929 . S
C390 C392 1.378 . S
C390 C394 1.350 . S
C391 C394 1.463 . S
C391 C396 1.350 . S
C391 N399 1.427 . S
C392 H383 0.930 . S
C392 C390 1.378 . S
C392 C393 1.367 . S
C393 C392 1.367 . S
C393 C395 1.433 . S
C394 C390 1.350 . S
C394 C391 1.463 . S
C394 N398 1.427 . S
C395 H385 0.929 . S
C395 C393 1.433 . S
C395 N398 1.384 . S
C396 H387 0.929 . S
C396 C388 1.378 . S
C396 C391 1.350 . S
C397 H384 0.929 . S
C397 C389 1.433 . S
C397 N399 1.384 . S
N398 C394 1.427 . S
N398 C395 1.384 . S
N399 C391 1.427 . S
N399 C397 1.384 . S
C119 C9 0.503 . S
C123 C37 0.504 . S
C137 C23 0.511 . S
C141 C51 0.515 . S
C155 C65 0.508 . S
C159 C93 0.511 . S
C173 C79 0.535 . S
C177 C107 0.533 . S
C191 C7 1.350 . S
C195 C77 1.343 . S
C209 C21 1.356 . S
C213 C91 1.339 . S
C227 C105 1.356 . S
C231 C35 1.340 . S
C245 C49 1.356 . S
C249 C63 1.339 . S
C263 C59 1.723 . S
C267 C8 1.762 . S
C281 C22 1.765 . S
C285 C73 1.724 . S
C299 C36 1.762 . S
C303 C87 1.720 . S
C317 C50 1.755 . S
C321 C101 1.713 . S
C335 C3 1.717 . S
C339 C64 1.760 . S
C353 C78 1.764 . S
C357 C17 1.725 . S
C371 C92 1.760 . S
C375 C31 1.717 . S
C389 C45 1.716 . S
C393 C106 1.757 . S
