# Generated by pormake.
# Topology wse, (4)-cn, num edge types: 1
# Building blocks:
#     Node 0, Type 0, BuildingBlock: CEKHIL_clean_sbu_0, # of connection points: 4
#     Node 1, Type 0, BuildingBlock: CEKHIL_clean_sbu_0, # of connection points: 4
#     Node 2, Type 0, BuildingBlock: CEKHIL_clean_sbu_0, # of connection points: 4
#     Node 3, Type 0, BuildingBlock: CEKHIL_clean_sbu_0, # of connection points: 4
#     Node 4, Type 0, BuildingBlock: CEKHIL_clean_sbu_0, # of connection points: 4
#     Node 5, Type 0, BuildingBlock: CEKHIL_clean_sbu_0, # of connection points: 4
#     Node 6, Type 0, BuildingBlock: CEKHIL_clean_sbu_0, # of connection points: 4
#     Node 7, Type 0, BuildingBlock: CEKHIL_clean_sbu_0, # of connection points: 4
#     Node 8, Type 0, BuildingBlock: CEKHIL_clean_sbu_0, # of connection points: 4
#     Node 9, Type 0, BuildingBlock: CEKHIL_clean_sbu_0, # of connection points: 4
#     Node 10, Type 0, BuildingBlock: CEKHIL_clean_sbu_0, # of connection points: 4
#     Node 11, Type 0, BuildingBlock: CEKHIL_clean_sbu_0, # of connection points: 4
#     Node 12, Type 0, BuildingBlock: CEKHIL_clean_sbu_0, # of connection points: 4
#     Node 13, Type 0, BuildingBlock: CEKHIL_clean_sbu_0, # of connection points: 4
#     Node 14, Type 0, BuildingBlock: CEKHIL_clean_sbu_0, # of connection points: 4
#     Node 15, Type 0, BuildingBlock: CEKHIL_clean_sbu_0, # of connection points: 4
#     Node 16, Type 0, BuildingBlock: CEKHIL_clean_sbu_0, # of connection points: 4
#     Node 17, Type 0, BuildingBlock: CEKHIL_clean_sbu_0, # of connection points: 4
#     Node 18, Type 0, BuildingBlock: CEKHIL_clean_sbu_0, # of connection points: 4
#     Node 19, Type 0, BuildingBlock: CEKHIL_clean_sbu_0, # of connection points: 4
#     Node 20, Type 0, BuildingBlock: CEKHIL_clean_sbu_0, # of connection points: 4
#     Node 21, Type 0, BuildingBlock: CEKHIL_clean_sbu_0, # of connection points: 4
#     Node 22, Type 0, BuildingBlock: CEKHIL_clean_sbu_0, # of connection points: 4
#     Node 23, Type 0, BuildingBlock: CEKHIL_clean_sbu_0, # of connection points: 4
#     Node 24, Type 0, BuildingBlock: CEKHIL_clean_sbu_0, # of connection points: 4
#     Node 25, Type 0, BuildingBlock: CEKHIL_clean_sbu_0, # of connection points: 4
#     Node 26, Type 0, BuildingBlock: CEKHIL_clean_sbu_0, # of connection points: 4
#     Node 27, Type 0, BuildingBlock: CEKHIL_clean_sbu_0, # of connection points: 4
#     Node 28, Type 0, BuildingBlock: CEKHIL_clean_sbu_0, # of connection points: 4
#     Node 29, Type 0, BuildingBlock: CEKHIL_clean_sbu_0, # of connection points: 4
#     Node 30, Type 0, BuildingBlock: CEKHIL_clean_sbu_0, # of connection points: 4
#     Node 31, Type 0, BuildingBlock: CEKHIL_clean_sbu_0, # of connection points: 4
#     Node 32, Type 0, BuildingBlock: CEKHIL_clean_sbu_0, # of connection points: 4
#     Node 33, Type 0, BuildingBlock: CEKHIL_clean_sbu_0, # of connection points: 4
#     Node 34, Type 0, BuildingBlock: CEKHIL_clean_sbu_0, # of connection points: 4
#     Node 35, Type 0, BuildingBlock: CEKHIL_clean_sbu_0, # of connection points: 4
#     Node 36, Type 0, BuildingBlock: CEKHIL_clean_sbu_0, # of connection points: 4
#     Node 37, Type 0, BuildingBlock: CEKHIL_clean_sbu_0, # of connection points: 4
#     Node 38, Type 0, BuildingBlock: CEKHIL_clean_sbu_0, # of connection points: 4
#     Node 39, Type 0, BuildingBlock: CEKHIL_clean_sbu_0, # of connection points: 4
#     Node 40, Type 0, BuildingBlock: CEKHIL_clean_sbu_0, # of connection points: 4
#     Node 41, Type 0, BuildingBlock: CEKHIL_clean_sbu_0, # of connection points: 4
#     Node 42, Type 0, BuildingBlock: CEKHIL_clean_sbu_0, # of connection points: 4
#     Node 43, Type 0, BuildingBlock: CEKHIL_clean_sbu_0, # of connection points: 4
#     Node 44, Type 0, BuildingBlock: CEKHIL_clean_sbu_0, # of connection points: 4
#     Node 45, Type 0, BuildingBlock: CEKHIL_clean_sbu_0, # of connection points: 4
#     Node 46, Type 0, BuildingBlock: CEKHIL_clean_sbu_0, # of connection points: 4
#     Node 47, Type 0, BuildingBlock: CEKHIL_clean_sbu_0, # of connection points: 4
#     Node 48, Type 0, BuildingBlock: CEKHIL_clean_sbu_0, # of connection points: 4
#     Node 49, Type 0, BuildingBlock: CEKHIL_clean_sbu_0, # of connection points: 4
#     Node 50, Type 0, BuildingBlock: CEKHIL_clean_sbu_0, # of connection points: 4
#     Node 51, Type 0, BuildingBlock: CEKHIL_clean_sbu_0, # of connection points: 4
#     Node 52, Type 0, BuildingBlock: CEKHIL_clean_sbu_0, # of connection points: 4
#     Node 53, Type 0, BuildingBlock: CEKHIL_clean_sbu_0, # of connection points: 4
#     Node 54, Type 0, BuildingBlock: CEKHIL_clean_sbu_0, # of connection points: 4
#     Node 55, Type 0, BuildingBlock: CEKHIL_clean_sbu_0, # of connection points: 4
#     Node 56, Type 0, BuildingBlock: CEKHIL_clean_sbu_0, # of connection points: 4
#     Node 57, Type 0, BuildingBlock: CEKHIL_clean_sbu_0, # of connection points: 4
#     Node 58, Type 0, BuildingBlock: CEKHIL_clean_sbu_0, # of connection points: 4
#     Node 59, Type 0, BuildingBlock: CEKHIL_clean_sbu_0, # of connection points: 4
#     Node 60, Type 0, BuildingBlock: CEKHIL_clean_sbu_0, # of connection points: 4
#     Node 61, Type 0, BuildingBlock: CEKHIL_clean_sbu_0, # of connection points: 4
#     Node 62, Type 0, BuildingBlock: CEKHIL_clean_sbu_0, # of connection points: 4
#     Node 63, Type 0, BuildingBlock: CEKHIL_clean_sbu_0, # of connection points: 4
#     Node 64, Type 0, BuildingBlock: CEKHIL_clean_sbu_0, # of connection points: 4
#     Node 65, Type 0, BuildingBlock: CEKHIL_clean_sbu_0, # of connection points: 4
#     Node 66, Type 0, BuildingBlock: CEKHIL_clean_sbu_0, # of connection points: 4
#     Node 67, Type 0, BuildingBlock: CEKHIL_clean_sbu_0, # of connection points: 4
#     Node 68, Type 0, BuildingBlock: CEKHIL_clean_sbu_0, # of connection points: 4
#     Node 69, Type 0, BuildingBlock: CEKHIL_clean_sbu_0, # of connection points: 4
#     Node 70, Type 0, BuildingBlock: CEKHIL_clean_sbu_0, # of connection points: 4
#     Node 71, Type 0, BuildingBlock: CEKHIL_clean_sbu_0, # of connection points: 4
#     Node 72, Type 0, BuildingBlock: CEKHIL_clean_sbu_0, # of connection points: 4
#     Node 73, Type 0, BuildingBlock: CEKHIL_clean_sbu_0, # of connection points: 4
#     Node 74, Type 0, BuildingBlock: CEKHIL_clean_sbu_0, # of connection points: 4
#     Node 75, Type 0, BuildingBlock: CEKHIL_clean_sbu_0, # of connection points: 4
#     Node 76, Type 0, BuildingBlock: CEKHIL_clean_sbu_0, # of connection points: 4
#     Node 77, Type 0, BuildingBlock: CEKHIL_clean_sbu_0, # of connection points: 4
#     Node 78, Type 0, BuildingBlock: CEKHIL_clean_sbu_0, # of connection points: 4
#     Node 79, Type 0, BuildingBlock: CEKHIL_clean_sbu_0, # of connection points: 4
#     Node 80, Type 0, BuildingBlock: CEKHIL_clean_sbu_0, # of connection points: 4
#     Node 81, Type 0, BuildingBlock: CEKHIL_clean_sbu_0, # of connection points: 4
#     Node 82, Type 0, BuildingBlock: CEKHIL_clean_sbu_0, # of connection points: 4
#     Node 83, Type 0, BuildingBlock: CEKHIL_clean_sbu_0, # of connection points: 4
#     Node 84, Type 0, BuildingBlock: CEKHIL_clean_sbu_0, # of connection points: 4
#     Node 85, Type 0, BuildingBlock: CEKHIL_clean_sbu_0, # of connection points: 4
#     Node 86, Type 0, BuildingBlock: CEKHIL_clean_sbu_0, # of connection points: 4
#     Node 87, Type 0, BuildingBlock: CEKHIL_clean_sbu_0, # of connection points: 4
#     Node 88, Type 0, BuildingBlock: CEKHIL_clean_sbu_0, # of connection points: 4
#     Node 89, Type 0, BuildingBlock: CEKHIL_clean_sbu_0, # of connection points: 4
#     Node 90, Type 0, BuildingBlock: CEKHIL_clean_sbu_0, # of connection points: 4
#     Node 91, Type 0, BuildingBlock: CEKHIL_clean_sbu_0, # of connection points: 4
#     Node 92, Type 0, BuildingBlock: CEKHIL_clean_sbu_0, # of connection points: 4
#     Node 93, Type 0, BuildingBlock: CEKHIL_clean_sbu_0, # of connection points: 4
#     Node 94, Type 0, BuildingBlock: CEKHIL_clean_sbu_0, # of connection points: 4
#     Node 95, Type 0, BuildingBlock: CEKHIL_clean_sbu_0, # of connection points: 4
#     Edge 96, Type (0, 0), BuildingBlock: OJICUG_clean_linker_0, # of connection points: 2
#     Edge 97, Type (0, 0), BuildingBlock: OJICUG_clean_linker_0, # of connection points: 2
#     Edge 98, Type (0, 0), BuildingBlock: OJICUG_clean_linker_0, # of connection points: 2
#     Edge 99, Type (0, 0), BuildingBlock: OJICUG_clean_linker_0, # of connection points: 2
#     Edge 100, Type (0, 0), BuildingBlock: OJICUG_clean_linker_0, # of connection points: 2
#     Edge 101, Type (0, 0), BuildingBlock: OJICUG_clean_linker_0, # of connection points: 2
#     Edge 102, Type (0, 0), BuildingBlock: OJICUG_clean_linker_0, # of connection points: 2
#     Edge 103, Type (0, 0), BuildingBlock: OJICUG_clean_linker_0, # of connection points: 2
#     Edge 104, Type (0, 0), BuildingBlock: OJICUG_clean_linker_0, # of connection points: 2
#     Edge 105, Type (0, 0), BuildingBlock: OJICUG_clean_linker_0, # of connection points: 2
#     Edge 106, Type (0, 0), BuildingBlock: OJICUG_clean_linker_0, # of connection points: 2
#     Edge 107, Type (0, 0), BuildingBlock: OJICUG_clean_linker_0, # of connection points: 2
#     Edge 108, Type (0, 0), BuildingBlock: OJICUG_clean_linker_0, # of connection points: 2
#     Edge 109, Type (0, 0), BuildingBlock: OJICUG_clean_linker_0, # of connection points: 2
#     Edge 110, Type (0, 0), BuildingBlock: OJICUG_clean_linker_0, # of connection points: 2
#     Edge 111, Type (0, 0), BuildingBlock: OJICUG_clean_linker_0, # of connection points: 2
#     Edge 112, Type (0, 0), BuildingBlock: OJICUG_clean_linker_0, # of connection points: 2
#     Edge 113, Type (0, 0), BuildingBlock: OJICUG_clean_linker_0, # of connection points: 2
#     Edge 114, Type (0, 0), BuildingBlock: OJICUG_clean_linker_0, # of connection points: 2
#     Edge 115, Type (0, 0), BuildingBlock: OJICUG_clean_linker_0, # of connection points: 2
#     Edge 116, Type (0, 0), BuildingBlock: OJICUG_clean_linker_0, # of connection points: 2
#     Edge 117, Type (0, 0), BuildingBlock: OJICUG_clean_linker_0, # of connection points: 2
#     Edge 118, Type (0, 0), BuildingBlock: OJICUG_clean_linker_0, # of connection points: 2
#     Edge 119, Type (0, 0), BuildingBlock: OJICUG_clean_linker_0, # of connection points: 2
#     Edge 120, Type (0, 0), BuildingBlock: OJICUG_clean_linker_0, # of connection points: 2
#     Edge 121, Type (0, 0), BuildingBlock: OJICUG_clean_linker_0, # of connection points: 2
#     Edge 122, Type (0, 0), BuildingBlock: OJICUG_clean_linker_0, # of connection points: 2
#     Edge 123, Type (0, 0), BuildingBlock: OJICUG_clean_linker_0, # of connection points: 2
#     Edge 124, Type (0, 0), BuildingBlock: OJICUG_clean_linker_0, # of connection points: 2
#     Edge 125, Type (0, 0), BuildingBlock: OJICUG_clean_linker_0, # of connection points: 2
#     Edge 126, Type (0, 0), BuildingBlock: OJICUG_clean_linker_0, # of connection points: 2
#     Edge 127, Type (0, 0), BuildingBlock: OJICUG_clean_linker_0, # of connection points: 2
#     Edge 128, Type (0, 0), BuildingBlock: OJICUG_clean_linker_0, # of connection points: 2
#     Edge 129, Type (0, 0), BuildingBlock: OJICUG_clean_linker_0, # of connection points: 2
#     Edge 130, Type (0, 0), BuildingBlock: OJICUG_clean_linker_0, # of connection points: 2
#     Edge 131, Type (0, 0), BuildingBlock: OJICUG_clean_linker_0, # of connection points: 2
#     Edge 132, Type (0, 0), BuildingBlock: OJICUG_clean_linker_0, # of connection points: 2
#     Edge 133, Type (0, 0), BuildingBlock: OJICUG_clean_linker_0, # of connection points: 2
#     Edge 134, Type (0, 0), BuildingBlock: OJICUG_clean_linker_0, # of connection points: 2
#     Edge 135, Type (0, 0), BuildingBlock: OJICUG_clean_linker_0, # of connection points: 2
#     Edge 136, Type (0, 0), BuildingBlock: OJICUG_clean_linker_0, # of connection points: 2
#     Edge 137, Type (0, 0), BuildingBlock: OJICUG_clean_linker_0, # of connection points: 2
#     Edge 138, Type (0, 0), BuildingBlock: OJICUG_clean_linker_0, # of connection points: 2
#     Edge 139, Type (0, 0), BuildingBlock: OJICUG_clean_linker_0, # of connection points: 2
#     Edge 140, Type (0, 0), BuildingBlock: OJICUG_clean_linker_0, # of connection points: 2
#     Edge 141, Type (0, 0), BuildingBlock: OJICUG_clean_linker_0, # of connection points: 2
#     Edge 142, Type (0, 0), BuildingBlock: OJICUG_clean_linker_0, # of connection points: 2
#     Edge 143, Type (0, 0), BuildingBlock: OJICUG_clean_linker_0, # of connection points: 2
#     Edge 144, Type (0, 0), BuildingBlock: OJICUG_clean_linker_0, # of connection points: 2
#     Edge 145, Type (0, 0), BuildingBlock: OJICUG_clean_linker_0, # of connection points: 2
#     Edge 146, Type (0, 0), BuildingBlock: OJICUG_clean_linker_0, # of connection points: 2
#     Edge 147, Type (0, 0), BuildingBlock: OJICUG_clean_linker_0, # of connection points: 2
#     Edge 148, Type (0, 0), BuildingBlock: OJICUG_clean_linker_0, # of connection points: 2
#     Edge 149, Type (0, 0), BuildingBlock: OJICUG_clean_linker_0, # of connection points: 2
#     Edge 150, Type (0, 0), BuildingBlock: OJICUG_clean_linker_0, # of connection points: 2
#     Edge 151, Type (0, 0), BuildingBlock: OJICUG_clean_linker_0, # of connection points: 2
#     Edge 152, Type (0, 0), BuildingBlock: OJICUG_clean_linker_0, # of connection points: 2
#     Edge 153, Type (0, 0), BuildingBlock: OJICUG_clean_linker_0, # of connection points: 2
#     Edge 154, Type (0, 0), BuildingBlock: OJICUG_clean_linker_0, # of connection points: 2
#     Edge 155, Type (0, 0), BuildingBlock: OJICUG_clean_linker_0, # of connection points: 2
#     Edge 156, Type (0, 0), BuildingBlock: OJICUG_clean_linker_0, # of connection points: 2
#     Edge 157, Type (0, 0), BuildingBlock: OJICUG_clean_linker_0, # of connection points: 2
#     Edge 158, Type (0, 0), BuildingBlock: OJICUG_clean_linker_0, # of connection points: 2
#     Edge 159, Type (0, 0), BuildingBlock: OJICUG_clean_linker_0, # of connection points: 2
#     Edge 160, Type (0, 0), BuildingBlock: OJICUG_clean_linker_0, # of connection points: 2
#     Edge 161, Type (0, 0), BuildingBlock: OJICUG_clean_linker_0, # of connection points: 2
#     Edge 162, Type (0, 0), BuildingBlock: OJICUG_clean_linker_0, # of connection points: 2
#     Edge 163, Type (0, 0), BuildingBlock: OJICUG_clean_linker_0, # of connection points: 2
#     Edge 164, Type (0, 0), BuildingBlock: OJICUG_clean_linker_0, # of connection points: 2
#     Edge 165, Type (0, 0), BuildingBlock: OJICUG_clean_linker_0, # of connection points: 2
#     Edge 166, Type (0, 0), BuildingBlock: OJICUG_clean_linker_0, # of connection points: 2
#     Edge 167, Type (0, 0), BuildingBlock: OJICUG_clean_linker_0, # of connection points: 2
#     Edge 168, Type (0, 0), BuildingBlock: OJICUG_clean_linker_0, # of connection points: 2
#     Edge 169, Type (0, 0), BuildingBlock: OJICUG_clean_linker_0, # of connection points: 2
#     Edge 170, Type (0, 0), BuildingBlock: OJICUG_clean_linker_0, # of connection points: 2
#     Edge 171, Type (0, 0), BuildingBlock: OJICUG_clean_linker_0, # of connection points: 2
#     Edge 172, Type (0, 0), BuildingBlock: OJICUG_clean_linker_0, # of connection points: 2
#     Edge 173, Type (0, 0), BuildingBlock: OJICUG_clean_linker_0, # of connection points: 2
#     Edge 174, Type (0, 0), BuildingBlock: OJICUG_clean_linker_0, # of connection points: 2
#     Edge 175, Type (0, 0), BuildingBlock: OJICUG_clean_linker_0, # of connection points: 2
#     Edge 176, Type (0, 0), BuildingBlock: OJICUG_clean_linker_0, # of connection points: 2
#     Edge 177, Type (0, 0), BuildingBlock: OJICUG_clean_linker_0, # of connection points: 2
#     Edge 178, Type (0, 0), BuildingBlock: OJICUG_clean_linker_0, # of connection points: 2
#     Edge 179, Type (0, 0), BuildingBlock: OJICUG_clean_linker_0, # of connection points: 2
#     Edge 180, Type (0, 0), BuildingBlock: OJICUG_clean_linker_0, # of connection points: 2
#     Edge 181, Type (0, 0), BuildingBlock: OJICUG_clean_linker_0, # of connection points: 2
#     Edge 182, Type (0, 0), BuildingBlock: OJICUG_clean_linker_0, # of connection points: 2
#     Edge 183, Type (0, 0), BuildingBlock: OJICUG_clean_linker_0, # of connection points: 2
#     Edge 184, Type (0, 0), BuildingBlock: OJICUG_clean_linker_0, # of connection points: 2
#     Edge 185, Type (0, 0), BuildingBlock: OJICUG_clean_linker_0, # of connection points: 2
#     Edge 186, Type (0, 0), BuildingBlock: OJICUG_clean_linker_0, # of connection points: 2
#     Edge 187, Type (0, 0), BuildingBlock: OJICUG_clean_linker_0, # of connection points: 2
#     Edge 188, Type (0, 0), BuildingBlock: OJICUG_clean_linker_0, # of connection points: 2
#     Edge 189, Type (0, 0), BuildingBlock: OJICUG_clean_linker_0, # of connection points: 2
#     Edge 190, Type (0, 0), BuildingBlock: OJICUG_clean_linker_0, # of connection points: 2
#     Edge 191, Type (0, 0), BuildingBlock: OJICUG_clean_linker_0, # of connection points: 2
#     Edge 192, Type (0, 0), BuildingBlock: OJICUG_clean_linker_0, # of connection points: 2
#     Edge 193, Type (0, 0), BuildingBlock: OJICUG_clean_linker_0, # of connection points: 2
#     Edge 194, Type (0, 0), BuildingBlock: OJICUG_clean_linker_0, # of connection points: 2
#     Edge 195, Type (0, 0), BuildingBlock: OJICUG_clean_linker_0, # of connection points: 2
#     Edge 196, Type (0, 0), BuildingBlock: OJICUG_clean_linker_0, # of connection points: 2
#     Edge 197, Type (0, 0), BuildingBlock: OJICUG_clean_linker_0, # of connection points: 2
#     Edge 198, Type (0, 0), BuildingBlock: OJICUG_clean_linker_0, # of connection points: 2
#     Edge 199, Type (0, 0), BuildingBlock: OJICUG_clean_linker_0, # of connection points: 2
#     Edge 200, Type (0, 0), BuildingBlock: OJICUG_clean_linker_0, # of connection points: 2
#     Edge 201, Type (0, 0), BuildingBlock: OJICUG_clean_linker_0, # of connection points: 2
#     Edge 202, Type (0, 0), BuildingBlock: OJICUG_clean_linker_0, # of connection points: 2
#     Edge 203, Type (0, 0), BuildingBlock: OJICUG_clean_linker_0, # of connection points: 2
#     Edge 204, Type (0, 0), BuildingBlock: OJICUG_clean_linker_0, # of connection points: 2
#     Edge 205, Type (0, 0), BuildingBlock: OJICUG_clean_linker_0, # of connection points: 2
#     Edge 206, Type (0, 0), BuildingBlock: OJICUG_clean_linker_0, # of connection points: 2
#     Edge 207, Type (0, 0), BuildingBlock: OJICUG_clean_linker_0, # of connection points: 2
#     Edge 208, Type (0, 0), BuildingBlock: OJICUG_clean_linker_0, # of connection points: 2
#     Edge 209, Type (0, 0), BuildingBlock: OJICUG_clean_linker_0, # of connection points: 2
#     Edge 210, Type (0, 0), BuildingBlock: OJICUG_clean_linker_0, # of connection points: 2
#     Edge 211, Type (0, 0), BuildingBlock: OJICUG_clean_linker_0, # of connection points: 2
#     Edge 212, Type (0, 0), BuildingBlock: OJICUG_clean_linker_0, # of connection points: 2
#     Edge 213, Type (0, 0), BuildingBlock: OJICUG_clean_linker_0, # of connection points: 2
#     Edge 214, Type (0, 0), BuildingBlock: OJICUG_clean_linker_0, # of connection points: 2
#     Edge 215, Type (0, 0), BuildingBlock: OJICUG_clean_linker_0, # of connection points: 2
#     Edge 216, Type (0, 0), BuildingBlock: OJICUG_clean_linker_0, # of connection points: 2
#     Edge 217, Type (0, 0), BuildingBlock: OJICUG_clean_linker_0, # of connection points: 2
#     Edge 218, Type (0, 0), BuildingBlock: OJICUG_clean_linker_0, # of connection points: 2
#     Edge 219, Type (0, 0), BuildingBlock: OJICUG_clean_linker_0, # of connection points: 2
#     Edge 220, Type (0, 0), BuildingBlock: OJICUG_clean_linker_0, # of connection points: 2
#     Edge 221, Type (0, 0), BuildingBlock: OJICUG_clean_linker_0, # of connection points: 2
#     Edge 222, Type (0, 0), BuildingBlock: OJICUG_clean_linker_0, # of connection points: 2
#     Edge 223, Type (0, 0), BuildingBlock: OJICUG_clean_linker_0, # of connection points: 2
#     Edge 224, Type (0, 0), BuildingBlock: OJICUG_clean_linker_0, # of connection points: 2
#     Edge 225, Type (0, 0), BuildingBlock: OJICUG_clean_linker_0, # of connection points: 2
#     Edge 226, Type (0, 0), BuildingBlock: OJICUG_clean_linker_0, # of connection points: 2
#     Edge 227, Type (0, 0), BuildingBlock: OJICUG_clean_linker_0, # of connection points: 2
#     Edge 228, Type (0, 0), BuildingBlock: OJICUG_clean_linker_0, # of connection points: 2
#     Edge 229, Type (0, 0), BuildingBlock: OJICUG_clean_linker_0, # of connection points: 2
#     Edge 230, Type (0, 0), BuildingBlock: OJICUG_clean_linker_0, # of connection points: 2
#     Edge 231, Type (0, 0), BuildingBlock: OJICUG_clean_linker_0, # of connection points: 2
#     Edge 232, Type (0, 0), BuildingBlock: OJICUG_clean_linker_0, # of connection points: 2
#     Edge 233, Type (0, 0), BuildingBlock: OJICUG_clean_linker_0, # of connection points: 2
#     Edge 234, Type (0, 0), BuildingBlock: OJICUG_clean_linker_0, # of connection points: 2
#     Edge 235, Type (0, 0), BuildingBlock: OJICUG_clean_linker_0, # of connection points: 2
#     Edge 236, Type (0, 0), BuildingBlock: OJICUG_clean_linker_0, # of connection points: 2
#     Edge 237, Type (0, 0), BuildingBlock: OJICUG_clean_linker_0, # of connection points: 2
#     Edge 238, Type (0, 0), BuildingBlock: OJICUG_clean_linker_0, # of connection points: 2
#     Edge 239, Type (0, 0), BuildingBlock: OJICUG_clean_linker_0, # of connection points: 2
#     Edge 240, Type (0, 0), BuildingBlock: OJICUG_clean_linker_0, # of connection points: 2
#     Edge 241, Type (0, 0), BuildingBlock: OJICUG_clean_linker_0, # of connection points: 2
#     Edge 242, Type (0, 0), BuildingBlock: OJICUG_clean_linker_0, # of connection points: 2
#     Edge 243, Type (0, 0), BuildingBlock: OJICUG_clean_linker_0, # of connection points: 2
#     Edge 244, Type (0, 0), BuildingBlock: OJICUG_clean_linker_0, # of connection points: 2
#     Edge 245, Type (0, 0), BuildingBlock: OJICUG_clean_linker_0, # of connection points: 2
#     Edge 246, Type (0, 0), BuildingBlock: OJICUG_clean_linker_0, # of connection points: 2
#     Edge 247, Type (0, 0), BuildingBlock: OJICUG_clean_linker_0, # of connection points: 2
#     Edge 248, Type (0, 0), BuildingBlock: OJICUG_clean_linker_0, # of connection points: 2
#     Edge 249, Type (0, 0), BuildingBlock: OJICUG_clean_linker_0, # of connection points: 2
#     Edge 250, Type (0, 0), BuildingBlock: OJICUG_clean_linker_0, # of connection points: 2
#     Edge 251, Type (0, 0), BuildingBlock: OJICUG_clean_linker_0, # of connection points: 2
#     Edge 252, Type (0, 0), BuildingBlock: OJICUG_clean_linker_0, # of connection points: 2
#     Edge 253, Type (0, 0), BuildingBlock: OJICUG_clean_linker_0, # of connection points: 2
#     Edge 254, Type (0, 0), BuildingBlock: OJICUG_clean_linker_0, # of connection points: 2
#     Edge 255, Type (0, 0), BuildingBlock: OJICUG_clean_linker_0, # of connection points: 2
#     Edge 256, Type (0, 0), BuildingBlock: OJICUG_clean_linker_0, # of connection points: 2
#     Edge 257, Type (0, 0), BuildingBlock: OJICUG_clean_linker_0, # of connection points: 2
#     Edge 258, Type (0, 0), BuildingBlock: OJICUG_clean_linker_0, # of connection points: 2
#     Edge 259, Type (0, 0), BuildingBlock: OJICUG_clean_linker_0, # of connection points: 2
#     Edge 260, Type (0, 0), BuildingBlock: OJICUG_clean_linker_0, # of connection points: 2
#     Edge 261, Type (0, 0), BuildingBlock: OJICUG_clean_linker_0, # of connection points: 2
#     Edge 262, Type (0, 0), BuildingBlock: OJICUG_clean_linker_0, # of connection points: 2
#     Edge 263, Type (0, 0), BuildingBlock: OJICUG_clean_linker_0, # of connection points: 2
#     Edge 264, Type (0, 0), BuildingBlock: OJICUG_clean_linker_0, # of connection points: 2
#     Edge 265, Type (0, 0), BuildingBlock: OJICUG_clean_linker_0, # of connection points: 2
#     Edge 266, Type (0, 0), BuildingBlock: OJICUG_clean_linker_0, # of connection points: 2
#     Edge 267, Type (0, 0), BuildingBlock: OJICUG_clean_linker_0, # of connection points: 2
#     Edge 268, Type (0, 0), BuildingBlock: OJICUG_clean_linker_0, # of connection points: 2
#     Edge 269, Type (0, 0), BuildingBlock: OJICUG_clean_linker_0, # of connection points: 2
#     Edge 270, Type (0, 0), BuildingBlock: OJICUG_clean_linker_0, # of connection points: 2
#     Edge 271, Type (0, 0), BuildingBlock: OJICUG_clean_linker_0, # of connection points: 2
#     Edge 272, Type (0, 0), BuildingBlock: OJICUG_clean_linker_0, # of connection points: 2
#     Edge 273, Type (0, 0), BuildingBlock: OJICUG_clean_linker_0, # of connection points: 2
#     Edge 274, Type (0, 0), BuildingBlock: OJICUG_clean_linker_0, # of connection points: 2
#     Edge 275, Type (0, 0), BuildingBlock: OJICUG_clean_linker_0, # of connection points: 2
#     Edge 276, Type (0, 0), BuildingBlock: OJICUG_clean_linker_0, # of connection points: 2
#     Edge 277, Type (0, 0), BuildingBlock: OJICUG_clean_linker_0, # of connection points: 2
#     Edge 278, Type (0, 0), BuildingBlock: OJICUG_clean_linker_0, # of connection points: 2
#     Edge 279, Type (0, 0), BuildingBlock: OJICUG_clean_linker_0, # of connection points: 2
#     Edge 280, Type (0, 0), BuildingBlock: OJICUG_clean_linker_0, # of connection points: 2
#     Edge 281, Type (0, 0), BuildingBlock: OJICUG_clean_linker_0, # of connection points: 2
#     Edge 282, Type (0, 0), BuildingBlock: OJICUG_clean_linker_0, # of connection points: 2
#     Edge 283, Type (0, 0), BuildingBlock: OJICUG_clean_linker_0, # of connection points: 2
#     Edge 284, Type (0, 0), BuildingBlock: OJICUG_clean_linker_0, # of connection points: 2
#     Edge 285, Type (0, 0), BuildingBlock: OJICUG_clean_linker_0, # of connection points: 2
#     Edge 286, Type (0, 0), BuildingBlock: OJICUG_clean_linker_0, # of connection points: 2
#     Edge 287, Type (0, 0), BuildingBlock: OJICUG_clean_linker_0, # of connection points: 2
# Relax obj value: 0.320
# Max RMSD: 0.158
# Mean RMSD: 0.152
data_MOF--net-wse--node1-CEKHIL_clean_sbu_0--edge1-OJICUG_clean_linker_0
_symmetry_space_group_name_H-M    P1
_symmetry_Int_Tables_number       1
_symmetry_cell_setting            triclinic
loop_
_symmetry_equiv_pos_as_xyz
'x, y, z'
_cell_length_a     70.622433
_cell_length_b     70.636232
_cell_length_c     70.645699
_cell_angle_alpha  90.002317
_cell_angle_beta   90.002996
_cell_angle_gamma 89.998541
loop_
_atom_site_label
_atom_site_type_symbol
_atom_site_fract_x
_atom_site_fract_y
_atom_site_fract_z
_atom_type_partial_charge
Co0 Co 0.10352 0.19299 0.43099 0.0
O1 O 0.12965 0.18404 0.43208 0.0
O2 O 0.1059 0.1678 0.42008 0.0
C3 C 0.11044 0.22331 0.42158 0.0
O4 O 0.07479 0.19634 0.42687 0.0
Co5 Co 0.08756 0.22627 0.45484 0.0
O6 O 0.06333 0.22243 0.44093 0.0
C7 C 0.09889 0.19017 0.47279 0.0
C8 C 0.12372 0.16827 0.42462 0.0
C9 C 0.061 0.20774 0.43071 0.0
O10 O 0.09871 0.18166 0.4567 0.0
O11 O 0.09714 0.20813 0.47457 0.0
O12 O 0.10927 0.20975 0.40909 0.0
O13 O 0.10811 0.21804 0.43879 0.0
Co14 Co 0.83461 0.10318 0.43107 0.0
O15 O 0.84356 0.12931 0.43206 0.0
O16 O 0.85986 0.1055 0.42026 0.0
C17 C 0.80435 0.11004 0.42147 0.0
O18 O 0.83127 0.07444 0.42707 0.0
Co19 Co 0.8012 0.08736 0.45484 0.0
O20 O 0.80506 0.06309 0.44101 0.0
C21 C 0.83725 0.09869 0.47291 0.0
C22 C 0.85936 0.12335 0.4247 0.0
C23 C 0.81981 0.0607 0.43089 0.0
O24 O 0.84583 0.09849 0.45685 0.0
O25 O 0.81928 0.09695 0.47463 0.0
O26 O 0.81797 0.1088 0.40906 0.0
O27 O 0.80952 0.10782 0.43872 0.0
Co28 Co 0.92424 0.83431 0.43136 0.0
O29 O 0.8981 0.84325 0.43243 0.0
O30 O 0.92187 0.85954 0.42053 0.0
C31 C 0.91736 0.80404 0.4218 0.0
O32 O 0.95297 0.83097 0.42726 0.0
Co33 Co 0.94016 0.80093 0.4551 0.0
O34 O 0.96439 0.80479 0.44119 0.0
C35 C 0.92886 0.83698 0.47318 0.0
C36 C 0.90403 0.85904 0.42504 0.0
C37 C 0.96674 0.81953 0.43104 0.0
O38 O 0.92901 0.84554 0.45712 0.0
O39 O 0.93062 0.81902 0.4749 0.0
O40 O 0.91855 0.81765 0.40937 0.0
O41 O 0.91964 0.80923 0.43904 0.0
Co42 Co 0.1931 0.92408 0.43109 0.0
O43 O 0.18417 0.89795 0.43219 0.0
O44 O 0.16785 0.9217 0.42028 0.0
C45 C 0.22337 0.91719 0.42153 0.0
O46 O 0.19643 0.9528 0.42697 0.0
Co47 Co 0.2265 0.94002 0.45479 0.0
O48 O 0.22262 0.96423 0.44086 0.0
C49 C 0.19046 0.92872 0.47292 0.0
C50 C 0.16836 0.90387 0.4248 0.0
C51 C 0.20788 0.96658 0.43073 0.0
O52 O 0.18188 0.92886 0.45686 0.0
O53 O 0.20843 0.93049 0.47462 0.0
O54 O 0.20975 0.91837 0.4091 0.0
O55 O 0.2182 0.91949 0.43877 0.0
Co56 Co 0.10388 0.83452 0.59644 0.0
O57 O 0.13 0.84351 0.59539 0.0
O58 O 0.10619 0.85977 0.60724 0.0
C59 C 0.11079 0.80427 0.60603 0.0
O60 O 0.07515 0.83114 0.60052 0.0
Co61 Co 0.08803 0.8011 0.57272 0.0
O62 O 0.06379 0.80492 0.58662 0.0
C63 C 0.0993 0.83714 0.55461 0.0
C64 C 0.12403 0.8593 0.60275 0.0
C65 C 0.06141 0.81966 0.59675 0.0
O66 O 0.09911 0.84572 0.57067 0.0
O67 O 0.09757 0.81917 0.55291 0.0
O68 O 0.10957 0.81789 0.61845 0.0
O69 O 0.10852 0.80943 0.58878 0.0
Co70 Co 0.19309 0.10357 0.5962 0.0
O71 O 0.18411 0.12969 0.59511 0.0
O72 O 0.16785 0.10591 0.60704 0.0
C73 C 0.22336 0.1105 0.60572 0.0
O74 O 0.19646 0.07485 0.60032 0.0
Co75 Co 0.22647 0.08767 0.57245 0.0
O76 O 0.22265 0.06346 0.58638 0.0
C77 C 0.19039 0.09893 0.55438 0.0
C78 C 0.16832 0.12374 0.60252 0.0
C79 C 0.20793 0.06109 0.59654 0.0
O80 O 0.18184 0.09877 0.57045 0.0
O81 O 0.20836 0.09719 0.55265 0.0
O82 O 0.20976 0.1093 0.61817 0.0
O83 O 0.21817 0.1082 0.58849 0.0
Co84 Co 0.92407 0.19288 0.5962 0.0
O85 O 0.89795 0.18389 0.59517 0.0
O86 O 0.92176 0.16764 0.60703 0.0
C87 C 0.91717 0.22314 0.60575 0.0
O88 O 0.9528 0.19626 0.60024 0.0
Co89 Co 0.93988 0.22626 0.5724 0.0
O90 O 0.96414 0.22246 0.58627 0.0
C91 C 0.92863 0.19017 0.55436 0.0
C92 C 0.90392 0.16811 0.60256 0.0
C93 C 0.96654 0.20774 0.59643 0.0
O94 O 0.92881 0.18163 0.57043 0.0
O95 O 0.93035 0.20814 0.55262 0.0
O96 O 0.9184 0.20953 0.61818 0.0
O97 O 0.91941 0.21795 0.58851 0.0
Co98 Co 0.83485 0.92386 0.59673 0.0
O99 O 0.84383 0.89774 0.59575 0.0
O100 O 0.86016 0.92159 0.60742 0.0
C101 C 0.80465 0.91702 0.60649 0.0
O102 O 0.83149 0.95261 0.60068 0.0
Co103 Co 0.80132 0.93959 0.57307 0.0
O104 O 0.80518 0.96388 0.58687 0.0
C105 C 0.8373 0.92829 0.55485 0.0
C106 C 0.85966 0.90374 0.60302 0.0
C107 C 0.81998 0.96632 0.59692 0.0
O108 O 0.84594 0.92851 0.57088 0.0
O109 O 0.81932 0.93001 0.55321 0.0
O110 O 0.81833 0.9183 0.61884 0.0
O111 O 0.80973 0.91919 0.58921 0.0
Co112 Co 0.43097 0.10341 0.19288 0.0
O113 O 0.43199 0.12953 0.1839 0.0
O114 O 0.4203 0.10569 0.16757 0.0
C115 C 0.42118 0.11027 0.22306 0.0
O116 O 0.42697 0.07468 0.19624 0.0
Co117 Co 0.45457 0.08766 0.22644 0.0
O118 O 0.44074 0.06339 0.22256 0.0
C119 C 0.47285 0.09892 0.19048 0.0
C120 C 0.42472 0.12354 0.16806 0.0
C121 C 0.4307 0.06096 0.20776 0.0
O122 O 0.45683 0.09873 0.18183 0.0
O123 O 0.47447 0.0972 0.20845 0.0
O124 O 0.40884 0.10902 0.20937 0.0
O125 O 0.43847 0.10808 0.21801 0.0
Co126 Co 0.92414 0.43102 0.193 0.0
O127 O 0.898 0.43206 0.18405 0.0
O128 O 0.92182 0.42028 0.16773 0.0
C129 C 0.91729 0.42134 0.22322 0.0
O130 O 0.95287 0.42699 0.19633 0.0
Co131 Co 0.93999 0.45469 0.22646 0.0
O132 O 0.96425 0.44084 0.22256 0.0
C133 C 0.92865 0.47288 0.19048 0.0
C134 C 0.90397 0.42474 0.16823 0.0
C135 C 0.96663 0.43075 0.2078 0.0
O136 O 0.92884 0.45684 0.18187 0.0
O137 O 0.9304 0.47454 0.20845 0.0
O138 O 0.91851 0.40896 0.20957 0.0
O139 O 0.91951 0.4386 0.21811 0.0
Co140 Co 0.59644 0.92396 0.19301 0.0
O141 O 0.59538 0.89784 0.18405 0.0
O142 O 0.60727 0.92162 0.16777 0.0
C143 C 0.606 0.91707 0.22327 0.0
O144 O 0.60051 0.95269 0.19636 0.0
Co145 Co 0.57267 0.93983 0.22639 0.0
O146 O 0.58656 0.96407 0.22255 0.0
C147 C 0.55459 0.92854 0.19033 0.0
C148 C 0.60277 0.90378 0.16826 0.0
C149 C 0.59671 0.96645 0.20782 0.0
O150 O 0.57066 0.92872 0.18178 0.0
O151 O 0.55287 0.93028 0.2083 0.0
O152 O 0.61843 0.91828 0.20967 0.0
O153 O 0.58875 0.91934 0.21809 0.0
Co154 Co 0.10363 0.59628 0.19272 0.0
O155 O 0.12976 0.59518 0.18377 0.0
O156 O 0.106 0.60709 0.16748 0.0
C157 C 0.11054 0.60583 0.22298 0.0
O158 O 0.07489 0.60039 0.19607 0.0
Co159 Co 0.08773 0.57253 0.2261 0.0
O160 O 0.06352 0.58646 0.22227 0.0
C161 C 0.099 0.55445 0.19004 0.0
C162 C 0.12383 0.60257 0.16797 0.0
C163 C 0.06114 0.59661 0.20754 0.0
O164 O 0.09884 0.57051 0.18149 0.0
O165 O 0.09726 0.55272 0.208 0.0
O166 O 0.10935 0.61826 0.20937 0.0
O167 O 0.10824 0.58859 0.2178 0.0
Co168 Co 0.43118 0.92416 0.83443 0.0
O169 O 0.43219 0.89802 0.84337 0.0
O170 O 0.42049 0.92185 0.85972 0.0
C171 C 0.42141 0.91733 0.80423 0.0
O172 O 0.4272 0.9529 0.83109 0.0
Co173 Co 0.45482 0.93992 0.8009 0.0
O174 O 0.44099 0.96419 0.80478 0.0
C175 C 0.47307 0.92866 0.83688 0.0
C176 C 0.42491 0.904 0.85921 0.0
C177 C 0.43095 0.96662 0.81958 0.0
O178 O 0.45704 0.92883 0.84551 0.0
O179 O 0.47471 0.9304 0.81891 0.0
O180 O 0.40907 0.91858 0.81791 0.0
O181 O 0.4387 0.9195 0.8093 0.0
Co182 Co 0.10332 0.4314 0.83415 0.0
O183 O 0.12947 0.43242 0.84306 0.0
O184 O 0.1057 0.42059 0.85939 0.0
C185 C 0.11015 0.42181 0.80389 0.0
O186 O 0.07457 0.42738 0.83085 0.0
Co187 Co 0.08745 0.45517 0.80078 0.0
O188 O 0.06318 0.44133 0.80467 0.0
C189 C 0.09877 0.47325 0.83682 0.0
C190 C 0.12355 0.42505 0.85886 0.0
C191 C 0.06081 0.4312 0.81941 0.0
O192 O 0.09862 0.45718 0.84538 0.0
O193 O 0.09701 0.47497 0.81886 0.0
O194 O 0.10895 0.40939 0.81751 0.0
O195 O 0.10792 0.43906 0.80906 0.0
Co196 Co 0.59701 0.1037 0.8346 0.0
O197 O 0.59604 0.12982 0.84359 0.0
O198 O 0.60763 0.10594 0.85993 0.0
C199 C 0.60689 0.11054 0.80444 0.0
O200 O 0.60095 0.07496 0.83123 0.0
Co201 Co 0.57346 0.08801 0.80097 0.0
O202 O 0.58724 0.06372 0.80487 0.0
C203 C 0.55511 0.09926 0.8369 0.0
C204 C 0.60325 0.12381 0.85943 0.0
C205 C 0.59722 0.06126 0.8197 0.0
O206 O 0.57111 0.09907 0.84559 0.0
O207 O 0.55353 0.09754 0.81892 0.0
O208 O 0.61919 0.10925 0.81816 0.0
O209 O 0.58958 0.1084 0.80945 0.0
Co210 Co 0.92361 0.59702 0.83465 0.0
O211 O 0.8975 0.59609 0.84369 0.0
O212 O 0.92143 0.60764 0.85999 0.0
C213 C 0.91675 0.6069 0.8045 0.0
O214 O 0.95235 0.60092 0.83123 0.0
Co215 Co 0.9392 0.57342 0.80101 0.0
O216 O 0.96352 0.58719 0.80485 0.0
C217 C 0.92799 0.55512 0.83697 0.0
C218 C 0.90355 0.60329 0.85952 0.0
C219 C 0.96603 0.59718 0.81967 0.0
O220 O 0.92823 0.57112 0.84564 0.0
O221 O 0.92967 0.55352 0.81898 0.0
O222 O 0.91807 0.6192 0.81822 0.0
O223 O 0.91887 0.5896 0.80952 0.0
Co224 Co 0.1929 0.43058 0.10295 0.0
O225 O 0.184 0.43155 0.12909 0.0
O226 O 0.16752 0.42005 0.10525 0.0
C227 C 0.22304 0.42057 0.10968 0.0
O228 O 0.19617 0.42668 0.07419 0.0
Co229 Co 0.22658 0.45404 0.08722 0.0
O230 O 0.22259 0.44028 0.06293 0.0
C231 C 0.19072 0.47249 0.09859 0.0
C232 C 0.1681 0.4244 0.12312 0.0
C233 C 0.20771 0.43037 0.06048 0.0
O234 O 0.18198 0.45652 0.0984 0.0
O235 O 0.20871 0.47402 0.09682 0.0
O236 O 0.20926 0.40833 0.10841 0.0
O237 O 0.21809 0.4379 0.10759 0.0
Co238 Co 0.19263 0.59677 0.92375 0.0
O239 O 0.18367 0.59585 0.89762 0.0
O240 O 0.16726 0.60733 0.92151 0.0
C241 C 0.22276 0.60676 0.91697 0.0
O242 O 0.19597 0.60063 0.9525 0.0
Co243 Co 0.22633 0.57325 0.93937 0.0
O244 O 0.22241 0.587 0.96368 0.0
C245 C 0.19043 0.55485 0.92808 0.0
C246 C 0.16779 0.60301 0.90364 0.0
C247 C 0.20755 0.59692 0.96618 0.0
O248 O 0.1817 0.57083 0.9283 0.0
O249 O 0.20841 0.5533 0.9298 0.0
O250 O 0.209 0.61901 0.91829 0.0
O251 O 0.2178 0.58943 0.91905 0.0
Co252 Co 0.43161 0.193 0.92386 0.0
O253 O 0.43277 0.18408 0.89773 0.0
O254 O 0.42073 0.1678 0.92143 0.0
C255 C 0.42217 0.2233 0.91695 0.0
O256 O 0.42742 0.19631 0.95258 0.0
Co257 Co 0.45536 0.22631 0.93991 0.0
O258 O 0.44138 0.22244 0.96409 0.0
C259 C 0.47342 0.19024 0.92862 0.0
C260 C 0.42531 0.1683 0.90362 0.0
C261 C 0.43119 0.20772 0.96638 0.0
O262 O 0.45734 0.18171 0.92872 0.0
O263 O 0.47516 0.2082 0.9304 0.0
O264 O 0.40969 0.20973 0.91809 0.0
O265 O 0.43938 0.21807 0.91931 0.0
Co266 Co 0.83454 0.43172 0.9241 0.0
O267 O 0.84345 0.43289 0.89797 0.0
O268 O 0.85973 0.42079 0.92164 0.0
C269 C 0.80421 0.42235 0.91718 0.0
O270 O 0.83121 0.4275 0.95281 0.0
Co271 Co 0.80127 0.45553 0.94016 0.0
O272 O 0.80509 0.44149 0.9643 0.0
C273 C 0.83739 0.47351 0.92887 0.0
C274 C 0.85922 0.42539 0.90384 0.0
C275 C 0.81979 0.43127 0.9666 0.0
O276 O 0.84589 0.45742 0.92898 0.0
O277 O 0.81942 0.47529 0.93065 0.0
O278 O 0.81776 0.40985 0.9183 0.0
O279 O 0.80949 0.43955 0.91956 0.0
Co280 Co 0.59686 0.83482 0.92406 0.0
O281 O 0.59588 0.84375 0.89792 0.0
O282 O 0.60737 0.86021 0.92177 0.0
C283 C 0.6069 0.80471 0.91733 0.0
O284 O 0.60079 0.83153 0.95281 0.0
Co285 Co 0.57342 0.80111 0.93977 0.0
O286 O 0.58724 0.80506 0.96403 0.0
C287 C 0.55493 0.83696 0.92845 0.0
C288 C 0.60303 0.85964 0.9039 0.0
C289 C 0.59714 0.81995 0.9665 0.0
O290 O 0.5709 0.84571 0.92863 0.0
O291 O 0.55342 0.81897 0.93021 0.0
O292 O 0.61913 0.8185 0.9186 0.0
O293 O 0.58957 0.80963 0.91941 0.0
Co294 Co 0.8344 0.59637 0.1038 0.0
O295 O 0.84341 0.59523 0.1299 0.0
O296 O 0.8596 0.60729 0.10616 0.0
C297 C 0.80409 0.60576 0.11077 0.0
O298 O 0.83101 0.60057 0.07509 0.0
Co299 Co 0.8011 0.57255 0.08783 0.0
O300 O 0.80488 0.58655 0.06364 0.0
C301 C 0.83723 0.55457 0.09906 0.0
C302 C 0.85917 0.6027 0.12397 0.0
C303 C 0.81957 0.59678 0.06132 0.0
O304 O 0.84573 0.57067 0.09891 0.0
O305 O 0.81926 0.5528 0.09733 0.0
O306 O 0.81765 0.61826 0.10961 0.0
O307 O 0.80936 0.58856 0.1084 0.0
Co308 Co 0.43115 0.8346 0.10336 0.0
O309 O 0.43221 0.84352 0.12949 0.0
O310 O 0.42031 0.85983 0.10574 0.0
C311 C 0.4216 0.80432 0.11024 0.0
O312 O 0.42707 0.83128 0.07463 0.0
Co313 Co 0.4549 0.80123 0.08744 0.0
O314 O 0.441 0.8051 0.06321 0.0
C315 C 0.47298 0.83727 0.09877 0.0
C316 C 0.42482 0.85932 0.12357 0.0
C317 C 0.43086 0.81984 0.06086 0.0
O318 O 0.45692 0.84584 0.09861 0.0
O319 O 0.4747 0.81931 0.09701 0.0
O320 O 0.40916 0.81793 0.10904 0.0
O321 O 0.43884 0.80952 0.10795 0.0
Co322 Co 0.59657 0.19295 0.10363 0.0
O323 O 0.59548 0.18399 0.12975 0.0
O324 O 0.60733 0.16769 0.10598 0.0
C325 C 0.60622 0.22319 0.11051 0.0
O326 O 0.60068 0.19631 0.07491 0.0
Co327 Co 0.5729 0.22641 0.08775 0.0
O328 O 0.58685 0.22256 0.06354 0.0
C329 C 0.55472 0.19039 0.09898 0.0
C330 C 0.60283 0.16818 0.12381 0.0
C331 C 0.59696 0.2078 0.06117 0.0
O332 O 0.57077 0.18179 0.09885 0.0
O333 O 0.55304 0.20836 0.09723 0.0
O334 O 0.61861 0.20954 0.10931 0.0
O335 O 0.58896 0.21806 0.10824 0.0
Co336 Co 0.95378 0.84166 0.58626 0.0
O337 O 0.94445 0.86587 0.59563 0.0
O338 O 0.9276 0.83963 0.59465 0.0
C339 C 0.98304 0.84145 0.60006 0.0
O340 O 0.95788 0.81411 0.57813 0.0
Co341 Co 0.98894 0.83955 0.55968 0.0
O342 O 0.98474 0.81169 0.56118 0.0
C343 C 0.95305 0.85421 0.54506 0.0
C344 C 0.92811 0.85772 0.59807 0.0
C345 C 0.97021 0.80424 0.56895 0.0
O346 O 0.94454 0.84824 0.56003 0.0
O347 O 0.97109 0.85439 0.54339 0.0
O348 O 0.9682 0.83628 0.60976 0.0
O349 O 0.97936 0.8484 0.58368 0.0
Co350 Co 0.18594 0.95353 0.58603 0.0
O351 O 0.16175 0.94414 0.59542 0.0
O352 O 0.18803 0.92734 0.59437 0.0
C353 C 0.18612 0.98276 0.59987 0.0
O354 O 0.21347 0.95769 0.57787 0.0
Co355 Co 0.18796 0.98873 0.55951 0.0
O356 O 0.21584 0.98459 0.56099 0.0
C357 C 0.17334 0.95284 0.54484 0.0
C358 C 0.16994 0.92781 0.59781 0.0
C359 C 0.22332 0.97006 0.56872 0.0
O360 O 0.17934 0.94432 0.55979 0.0
O361 O 0.17313 0.97088 0.54319 0.0
O362 O 0.19132 0.96792 0.60954 0.0
O363 O 0.17915 0.97909 0.5835 0.0
Co364 Co 0.07415 0.18574 0.58582 0.0
O365 O 0.08351 0.16155 0.59525 0.0
O366 O 0.10035 0.1878 0.59415 0.0
C367 C 0.04492 0.18599 0.59967 0.0
O368 O 0.07004 0.21327 0.57763 0.0
Co369 Co 0.03896 0.18779 0.5593 0.0
O370 O 0.04318 0.21566 0.56068 0.0
C371 C 0.0748 0.17304 0.54467 0.0
C372 C 0.09985 0.16972 0.59762 0.0
C373 C 0.05771 0.22312 0.56843 0.0
O374 O 0.08334 0.17908 0.5596 0.0
O375 O 0.05676 0.17286 0.54304 0.0
O376 O 0.05977 0.19118 0.60933 0.0
O377 O 0.04857 0.179 0.5833 0.0
Co378 Co 0.84187 0.07394 0.58604 0.0
O379 O 0.86608 0.08331 0.59538 0.0
O380 O 0.83982 0.10013 0.59437 0.0
C381 C 0.84169 0.04472 0.59989 0.0
O382 O 0.81431 0.06981 0.57792 0.0
Co383 Co 0.83977 0.03874 0.55952 0.0
O384 O 0.8119 0.04293 0.56101 0.0
C385 C 0.85441 0.07461 0.54483 0.0
C386 C 0.85791 0.09965 0.59779 0.0
C387 C 0.80445 0.05746 0.56876 0.0
O388 O 0.84843 0.08314 0.55979 0.0
O389 O 0.8546 0.05657 0.5432 0.0
O390 O 0.83651 0.05957 0.60956 0.0
O391 O 0.84862 0.04837 0.5835 0.0
Co392 Co 0.95347 0.18547 0.44128 0.0
O393 O 0.94413 0.16127 0.4319 0.0
O394 O 0.92727 0.18751 0.43294 0.0
C395 C 0.98271 0.18573 0.42744 0.0
O396 O 0.95758 0.21301 0.44944 0.0
Co397 Co 0.98866 0.18753 0.46782 0.0
O398 O 0.98445 0.21539 0.46638 0.0
C399 C 0.95279 0.17289 0.48249 0.0
C400 C 0.92778 0.16942 0.4295 0.0
C401 C 0.96992 0.22286 0.45863 0.0
O402 O 0.94427 0.17887 0.46752 0.0
O403 O 0.97083 0.1727 0.48414 0.0
O404 O 0.96784 0.19089 0.41777 0.0
O405 O 0.97905 0.17875 0.44381 0.0
Co406 Co 0.84187 0.95311 0.44168 0.0
O407 O 0.86609 0.94377 0.43233 0.0
O408 O 0.83984 0.92692 0.43332 0.0
C409 C 0.84166 0.98235 0.42785 0.0
O410 O 0.81431 0.95723 0.44979 0.0
Co411 Co 0.83978 0.98828 0.46822 0.0
O412 O 0.81191 0.9841 0.46673 0.0
C413 C 0.8544 0.9524 0.48289 0.0
C414 C 0.85793 0.92742 0.42991 0.0
C415 C 0.80445 0.96958 0.45896 0.0
O416 O 0.84843 0.94389 0.46792 0.0
O417 O 0.85459 0.97044 0.48455 0.0
O418 O 0.8365 0.9675 0.41816 0.0
O419 O 0.84861 0.97868 0.44423 0.0
Co420 Co 0.07434 0.84166 0.44153 0.0
O421 O 0.08364 0.86589 0.43215 0.0
O422 O 0.10052 0.83965 0.43314 0.0
C423 C 0.04507 0.84142 0.42774 0.0
O424 O 0.07026 0.81411 0.44965 0.0
Co425 Co 0.03919 0.83953 0.46812 0.0
O426 O 0.04342 0.81167 0.46663 0.0
C427 C 0.07507 0.85423 0.48272 0.0
C428 C 0.1 0.85774 0.42972 0.0
C429 C 0.05794 0.80423 0.45884 0.0
O430 O 0.08358 0.84825 0.46775 0.0
O431 O 0.05703 0.8544 0.48439 0.0
O432 O 0.05992 0.83627 0.41803 0.0
O433 O 0.04876 0.84838 0.44411 0.0
Co434 Co 0.18574 0.07411 0.44129 0.0
O435 O 0.16154 0.08349 0.4319 0.0
O436 O 0.18781 0.1003 0.43295 0.0
C437 C 0.18595 0.04488 0.42744 0.0
O438 O 0.21328 0.06997 0.44944 0.0
Co439 Co 0.18779 0.03892 0.46781 0.0
O440 O 0.21567 0.04309 0.46634 0.0
C441 C 0.17316 0.07479 0.48249 0.0
C442 C 0.16972 0.09982 0.42951 0.0
C443 C 0.22313 0.05762 0.4586 0.0
O444 O 0.17914 0.08332 0.46753 0.0
O445 O 0.17296 0.05675 0.48413 0.0
O446 O 0.19113 0.05973 0.41777 0.0
O447 O 0.17898 0.04855 0.44382 0.0
Co448 Co 0.58627 0.95362 0.8416 0.0
O449 O 0.59557 0.94431 0.86584 0.0
O450 O 0.59465 0.92743 0.83961 0.0
C451 C 0.6001 0.98286 0.84141 0.0
O452 O 0.5782 0.95773 0.81402 0.0
Co453 Co 0.55971 0.9888 0.83945 0.0
O454 O 0.5613 0.98462 0.81159 0.0
C455 C 0.54501 0.95291 0.85402 0.0
C456 C 0.59803 0.92796 0.85771 0.0
C457 C 0.56906 0.97008 0.80415 0.0
O458 O 0.56001 0.9444 0.84811 0.0
O459 O 0.54334 0.97095 0.85419 0.0
O460 O 0.6098 0.96801 0.83627 0.0
O461 O 0.5837 0.97919 0.84832 0.0
Co462 Co 0.07375 0.58631 0.84143 0.0
O463 O 0.08305 0.59567 0.86565 0.0
O464 O 0.09993 0.5947 0.83943 0.0
C465 C 0.04449 0.60011 0.84121 0.0
O466 O 0.06966 0.57818 0.81387 0.0
Co467 Co 0.03859 0.55972 0.83931 0.0
O468 O 0.04282 0.5612 0.81145 0.0
C469 C 0.07448 0.5451 0.85397 0.0
C470 C 0.09941 0.59811 0.85752 0.0
C471 C 0.05734 0.56898 0.80401 0.0
O472 O 0.08299 0.56008 0.848 0.0
O473 O 0.05644 0.54343 0.85414 0.0
O474 O 0.05933 0.60981 0.83605 0.0
O475 O 0.04817 0.58372 0.84815 0.0
Co476 Co 0.44185 0.07426 0.84141 0.0
O477 O 0.43255 0.08361 0.86564 0.0
O478 O 0.43348 0.10044 0.83938 0.0
C479 C 0.42802 0.04502 0.84127 0.0
O480 O 0.44991 0.07012 0.81384 0.0
Co481 Co 0.4684 0.03908 0.83928 0.0
O482 O 0.46679 0.04322 0.81142 0.0
C483 C 0.48311 0.07498 0.85383 0.0
C484 C 0.43011 0.09995 0.85748 0.0
C485 C 0.45902 0.05775 0.80397 0.0
O486 O 0.46811 0.08349 0.8479 0.0
O487 O 0.48478 0.05695 0.85401 0.0
O488 O 0.41831 0.05986 0.83611 0.0
O489 O 0.44442 0.04869 0.84816 0.0
Co490 Co 0.95316 0.44193 0.84149 0.0
O491 O 0.94387 0.43262 0.86573 0.0
O492 O 0.92699 0.43351 0.83951 0.0
C493 C 0.98244 0.42816 0.84128 0.0
O494 O 0.95724 0.44999 0.81391 0.0
Co495 Co 0.98828 0.46856 0.83932 0.0
O496 O 0.98406 0.467 0.81147 0.0
C497 C 0.95236 0.48318 0.85392 0.0
C498 C 0.92752 0.43015 0.8576 0.0
C499 C 0.96955 0.45918 0.80403 0.0
O500 O 0.94389 0.46817 0.84799 0.0
O501 O 0.9704 0.48488 0.8541 0.0
O502 O 0.9676 0.41843 0.83616 0.0
O503 O 0.97874 0.44456 0.84819 0.0
Co504 Co 0.58608 0.07405 0.18586 0.0
O505 O 0.59543 0.08342 0.16165 0.0
O506 O 0.59445 0.10023 0.18792 0.0
C507 C 0.59991 0.0448 0.18602 0.0
O508 O 0.57797 0.06989 0.2134 0.0
Co509 Co 0.55952 0.03887 0.18791 0.0
O510 O 0.56107 0.043 0.21577 0.0
C511 C 0.54484 0.07478 0.17337 0.0
C512 C 0.59786 0.09975 0.16983 0.0
C513 C 0.56883 0.05752 0.22325 0.0
O514 O 0.55983 0.08328 0.17932 0.0
O515 O 0.54318 0.05674 0.17315 0.0
O516 O 0.6096 0.05964 0.1912 0.0
O517 O 0.58352 0.04848 0.17908 0.0
Co518 Co 0.95348 0.58605 0.18579 0.0
O519 O 0.94405 0.59541 0.16161 0.0
O520 O 0.9273 0.59441 0.18791 0.0
C521 C 0.98274 0.59988 0.18588 0.0
O522 O 0.9577 0.57794 0.21332 0.0
Co523 Co 0.98868 0.55951 0.18778 0.0
O524 O 0.98459 0.56103 0.21565 0.0
C525 C 0.95274 0.54483 0.17327 0.0
C526 C 0.92773 0.59783 0.16982 0.0
C527 C 0.97008 0.56879 0.22315 0.0
O528 O 0.94424 0.55981 0.17926 0.0
O529 O 0.97078 0.54318 0.17303 0.0
O530 O 0.96791 0.60957 0.1911 0.0
O531 O 0.97904 0.58349 0.17896 0.0
Co532 Co 0.44147 0.95335 0.18578 0.0
O533 O 0.43209 0.94403 0.16157 0.0
O534 O 0.43311 0.92716 0.1878 0.0
C535 C 0.42763 0.98258 0.18602 0.0
O536 O 0.44961 0.95744 0.21333 0.0
Co537 Co 0.46801 0.98853 0.1879 0.0
O538 O 0.46656 0.9843 0.21575 0.0
C539 C 0.48267 0.95267 0.1732 0.0
C540 C 0.42968 0.92767 0.16971 0.0
C541 C 0.4588 0.96977 0.2232 0.0
O542 O 0.46771 0.94414 0.17918 0.0
O543 O 0.48432 0.97071 0.17302 0.0
O544 O 0.41795 0.96773 0.19119 0.0
O545 O 0.44401 0.97892 0.17907 0.0
Co546 Co 0.0742 0.44136 0.18549 0.0
O547 O 0.08345 0.43195 0.16126 0.0
O548 O 0.10039 0.43297 0.18745 0.0
C549 C 0.04495 0.42755 0.18582 0.0
O550 O 0.07018 0.44953 0.21305 0.0
Co551 Co 0.03904 0.46793 0.18765 0.0
O552 O 0.04333 0.4665 0.2155 0.0
C553 C 0.07488 0.48255 0.17288 0.0
C554 C 0.09982 0.42953 0.16936 0.0
C555 C 0.05788 0.45873 0.22292 0.0
O556 O 0.08341 0.46758 0.17885 0.0
O557 O 0.05684 0.4842 0.17273 0.0
O558 O 0.05981 0.41786 0.19095 0.0
O559 O 0.04861 0.44392 0.17884 0.0
Co560 Co 0.8417 0.58653 0.95378 0.0
O561 O 0.86588 0.59596 0.94442 0.0
O562 O 0.83962 0.59488 0.9276 0.0
C563 C 0.84145 0.60035 0.98303 0.0
O564 O 0.81416 0.57833 0.9579 0.0
Co565 Co 0.83965 0.55997 0.98895 0.0
O566 O 0.81177 0.5614 0.98476 0.0
C567 C 0.85441 0.54537 0.9531 0.0
C568 C 0.8577 0.59834 0.92808 0.0
C569 C 0.80431 0.56915 0.97023 0.0
O570 O 0.84836 0.5603 0.94458 0.0
O571 O 0.85459 0.54373 0.97114 0.0
O572 O 0.83625 0.61002 0.96818 0.0
O573 O 0.84844 0.58399 0.97935 0.0
Co574 Co 0.84188 0.44153 0.07414 0.0
O575 O 0.86609 0.43215 0.08347 0.0
O576 O 0.83984 0.43314 0.10031 0.0
C577 C 0.84166 0.42773 0.04489 0.0
O578 O 0.81432 0.44966 0.07005 0.0
Co579 Co 0.83975 0.4681 0.039 0.0
O580 O 0.81188 0.4666 0.0432 0.0
C581 C 0.85446 0.48272 0.07486 0.0
C582 C 0.85793 0.42972 0.09981 0.0
C583 C 0.80444 0.45883 0.05772 0.0
O584 O 0.84847 0.46776 0.08337 0.0
O585 O 0.85463 0.48438 0.05683 0.0
O586 O 0.83649 0.41803 0.05972 0.0
O587 O 0.84861 0.44411 0.04858 0.0
Co588 Co 0.58616 0.84172 0.07412 0.0
O589 O 0.59551 0.86592 0.0835 0.0
O590 O 0.59448 0.83967 0.10032 0.0
C591 C 0.60004 0.84155 0.04491 0.0
O592 O 0.57804 0.81416 0.06998 0.0
Co593 Co 0.55968 0.83961 0.0389 0.0
O594 O 0.56119 0.81174 0.04306 0.0
C595 C 0.54496 0.85429 0.07473 0.0
C596 C 0.59791 0.85776 0.09983 0.0
C597 C 0.56892 0.80429 0.05761 0.0
O598 O 0.5599 0.8483 0.08329 0.0
O599 O 0.54335 0.85447 0.0567 0.0
O600 O 0.6097 0.83636 0.05976 0.0
O601 O 0.58364 0.84848 0.04856 0.0
Co602 Co 0.18595 0.58583 0.07388 0.0
O603 O 0.16172 0.59511 0.08325 0.0
O604 O 0.188 0.59422 0.10006 0.0
C605 C 0.18603 0.59966 0.04464 0.0
O606 O 0.21353 0.5778 0.06971 0.0
Co607 Co 0.18807 0.55928 0.0387 0.0
O608 O 0.21594 0.56088 0.04284 0.0
C609 C 0.1736 0.54457 0.07462 0.0
C610 C 0.16989 0.59758 0.09958 0.0
C611 C 0.2234 0.56865 0.05735 0.0
O612 O 0.17951 0.55957 0.08312 0.0
O613 O 0.17337 0.5429 0.05659 0.0
O614 O 0.1912 0.60936 0.05947 0.0
O615 O 0.17916 0.58324 0.04833 0.0
Co616 Co 0.44158 0.18555 0.07392 0.0
O617 O 0.43222 0.16134 0.08328 0.0
O618 O 0.43317 0.18761 0.10009 0.0
C619 C 0.42779 0.18572 0.04466 0.0
O620 O 0.44968 0.21311 0.06978 0.0
Co621 Co 0.46818 0.18761 0.03878 0.0
O622 O 0.46662 0.21548 0.04291 0.0
C623 C 0.48282 0.17309 0.07471 0.0
C624 C 0.42977 0.16952 0.09961 0.0
C625 C 0.45884 0.22296 0.05742 0.0
O626 O 0.46782 0.17903 0.08319 0.0
O627 O 0.48452 0.17288 0.05668 0.0
O628 O 0.41807 0.19089 0.05948 0.0
O629 O 0.44417 0.17879 0.04836 0.0
Co630 Co 0.18586 0.44153 0.95287 0.0
O631 O 0.16161 0.43226 0.94352 0.0
O632 O 0.18786 0.43317 0.92667 0.0
C633 C 0.18599 0.42766 0.98209 0.0
O634 O 0.21345 0.44955 0.95702 0.0
Co635 Co 0.188 0.46803 0.98807 0.0
O636 O 0.21587 0.46638 0.98395 0.0
C637 C 0.17348 0.48279 0.95219 0.0
C638 C 0.16976 0.42982 0.92718 0.0
C639 C 0.22332 0.45864 0.96941 0.0
O640 O 0.1794 0.4678 0.94367 0.0
O641 O 0.17329 0.48444 0.97022 0.0
O642 O 0.19114 0.41797 0.96723 0.0
O643 O 0.17911 0.44408 0.97843 0.0
Co644 Co 0.5865 0.18583 0.95358 0.0
O645 O 0.59589 0.16162 0.94424 0.0
O646 O 0.59487 0.18787 0.9274 0.0
C647 C 0.60031 0.18605 0.98283 0.0
O648 O 0.57835 0.21338 0.95768 0.0
Co649 Co 0.55994 0.18794 0.98874 0.0
O650 O 0.56144 0.21581 0.98455 0.0
C651 C 0.54531 0.17322 0.95288 0.0
C652 C 0.59831 0.16978 0.9279 0.0
C653 C 0.5692 0.22325 0.97002 0.0
O654 O 0.56026 0.17922 0.94436 0.0
O655 O 0.54366 0.17305 0.97092 0.0
O656 O 0.61001 0.19122 0.96799 0.0
O657 O 0.58393 0.17909 0.97914 0.0
Co658 Co 0.44156 0.8418 0.95327 0.0
O659 O 0.43231 0.86605 0.94392 0.0
O660 O 0.43315 0.83979 0.92709 0.0
C661 C 0.42775 0.84169 0.98252 0.0
O662 O 0.44955 0.81421 0.95742 0.0
Co663 Co 0.46813 0.83964 0.98843 0.0
O664 O 0.46647 0.81178 0.98429 0.0
C665 C 0.48286 0.85409 0.95251 0.0
C666 C 0.42982 0.8579 0.92759 0.0
C667 C 0.45867 0.80433 0.96978 0.0
O668 O 0.46783 0.84821 0.94402 0.0
O669 O 0.48453 0.85431 0.97054 0.0
O670 O 0.41802 0.83656 0.96769 0.0
O671 O 0.44416 0.84855 0.97883 0.0
Co672 Co 0.60323 0.69317 0.93169 0.0
O673 O 0.62937 0.68428 0.93287 0.0
O674 O 0.60573 0.66804 0.92065 0.0
C675 C 0.61016 0.72356 0.92249 0.0
O676 O 0.5745 0.69649 0.92743 0.0
Co677 Co 0.58709 0.7263 0.95563 0.0
O678 O 0.56294 0.72249 0.94158 0.0
C679 C 0.59845 0.69013 0.97344 0.0
C680 C 0.62353 0.66854 0.92531 0.0
C681 C 0.56068 0.70786 0.93127 0.0
O682 O 0.59832 0.68169 0.95731 0.0
O683 O 0.59666 0.70808 0.9753 0.0
O684 O 0.60908 0.71007 0.90991 0.0
O685 O 0.60773 0.71818 0.93965 0.0
Co686 Co 0.33426 0.60351 0.93112 0.0
O687 O 0.34321 0.62964 0.93229 0.0
O688 O 0.35945 0.60595 0.92018 0.0
C689 C 0.30393 0.61045 0.92179 0.0
O690 O 0.33092 0.5748 0.9269 0.0
Co691 Co 0.30103 0.58746 0.95497 0.0
O692 O 0.30484 0.5633 0.94095 0.0
C693 C 0.33716 0.59875 0.9729 0.0
C694 C 0.35897 0.62375 0.92479 0.0
C695 C 0.31951 0.561 0.9307 0.0
O696 O 0.34564 0.59862 0.9568 0.0
O697 O 0.3192 0.59699 0.9747 0.0
O698 O 0.31747 0.60933 0.90927 0.0
O699 O 0.30922 0.60806 0.93898 0.0
Co700 Co 0.42414 0.33462 0.93051 0.0
O701 O 0.398 0.34358 0.93142 0.0
O702 O 0.4219 0.35995 0.91988 0.0
C703 C 0.41736 0.30445 0.92062 0.0
O704 O 0.4529 0.33127 0.92663 0.0
Co705 Co 0.4398 0.301 0.9541 0.0
O706 O 0.46412 0.30491 0.94037 0.0
C707 C 0.42847 0.33693 0.97241 0.0
C708 C 0.40402 0.35943 0.92421 0.0
C709 C 0.4666 0.31974 0.93039 0.0
O710 O 0.4287 0.34562 0.95641 0.0
O711 O 0.43019 0.31895 0.97399 0.0
O712 O 0.41866 0.31817 0.90832 0.0
O713 O 0.41945 0.30947 0.93792 0.0
Co714 Co 0.6929 0.4244 0.93093 0.0
O715 O 0.68402 0.39824 0.93187 0.0
O716 O 0.66755 0.42208 0.92035 0.0
C717 C 0.72306 0.41768 0.92098 0.0
O718 O 0.69616 0.45316 0.92704 0.0
Co719 Co 0.72652 0.44014 0.95446 0.0
O720 O 0.72255 0.46443 0.94071 0.0
C721 C 0.69064 0.42873 0.97283 0.0
C722 C 0.66813 0.4042 0.92468 0.0
C723 C 0.70768 0.46688 0.93077 0.0
O724 O 0.68193 0.42893 0.95685 0.0
O725 O 0.70862 0.43051 0.97439 0.0
O726 O 0.70931 0.41895 0.90871 0.0
O727 O 0.71808 0.41977 0.9383 0.0
Co728 Co 0.60355 0.33457 0.0964 0.0
O729 O 0.62969 0.34351 0.09543 0.0
O730 O 0.60586 0.35984 0.10715 0.0
C731 C 0.61039 0.30434 0.10609 0.0
O732 O 0.5748 0.33122 0.10035 0.0
Co733 Co 0.5878 0.3011 0.07266 0.0
O734 O 0.56351 0.30496 0.08646 0.0
C735 C 0.59911 0.33712 0.05453 0.0
C736 C 0.62372 0.35933 0.10273 0.0
C737 C 0.56107 0.31973 0.09654 0.0
O738 O 0.5989 0.34572 0.07058 0.0
O739 O 0.59738 0.31915 0.05285 0.0
O740 O 0.60913 0.31799 0.11847 0.0
O741 O 0.60821 0.30946 0.08883 0.0
Co742 Co 0.69275 0.60355 0.09704 0.0
O743 O 0.68379 0.62968 0.0961 0.0
O744 O 0.6674 0.60581 0.10764 0.0
C745 C 0.72292 0.61034 0.10695 0.0
O746 O 0.69609 0.5748 0.10093 0.0
Co747 Co 0.72638 0.58788 0.07347 0.0
O748 O 0.72247 0.56357 0.08722 0.0
C749 C 0.69045 0.59921 0.05514 0.0
C750 C 0.66793 0.62368 0.10329 0.0
C751 C 0.70763 0.5611 0.09719 0.0
O752 O 0.68176 0.59898 0.07114 0.0
O753 O 0.70844 0.59748 0.05356 0.0
O754 O 0.70918 0.60905 0.11924 0.0
O755 O 0.71791 0.60824 0.08964 0.0
Co756 Co 0.42383 0.693 0.09662 0.0
O757 O 0.39772 0.68398 0.09559 0.0
O758 O 0.42159 0.66768 0.10727 0.0
C759 C 0.41694 0.72318 0.10642 0.0
O760 O 0.45256 0.6964 0.10065 0.0
Co761 Co 0.43957 0.72658 0.07304 0.0
O762 O 0.46383 0.72274 0.0869 0.0
C763 C 0.4283 0.69063 0.05475 0.0
C764 C 0.40373 0.66815 0.10284 0.0
C765 C 0.46627 0.70794 0.09694 0.0
O766 O 0.42853 0.68197 0.07076 0.0
O767 O 0.43001 0.70861 0.05314 0.0
O768 O 0.4182 0.70948 0.11875 0.0
O769 O 0.41914 0.71813 0.08913 0.0
Co770 Co 0.33455 0.42385 0.09566 0.0
O771 O 0.3435 0.39772 0.09451 0.0
O772 O 0.35972 0.42142 0.10666 0.0
C773 C 0.3042 0.4169 0.10495 0.0
O774 O 0.33119 0.45256 0.09988 0.0
Co775 Co 0.30134 0.4399 0.07177 0.0
O776 O 0.30512 0.46406 0.08581 0.0
C777 C 0.3375 0.42861 0.05389 0.0
C778 C 0.35925 0.40361 0.10205 0.0
C779 C 0.31978 0.46635 0.09608 0.0
O780 O 0.34597 0.42874 0.07 0.0
O781 O 0.31954 0.43037 0.05207 0.0
O782 O 0.31772 0.41802 0.11749 0.0
O783 O 0.30953 0.41929 0.08777 0.0
Co784 Co 0.93106 0.60354 0.69304 0.0
O785 O 0.93221 0.62967 0.68412 0.0
O786 O 0.92016 0.60596 0.66785 0.0
C787 C 0.92164 0.61046 0.72335 0.0
O788 O 0.92687 0.57482 0.69636 0.0
Co789 Co 0.95485 0.58749 0.72632 0.0
O790 O 0.94088 0.5633 0.72245 0.0
C791 C 0.97286 0.5988 0.69024 0.0
C792 C 0.92475 0.62377 0.66834 0.0
C793 C 0.93067 0.56101 0.70775 0.0
O794 O 0.95677 0.59868 0.68173 0.0
O795 O 0.97463 0.59703 0.7082 0.0
O796 O 0.90915 0.60932 0.70979 0.0
O797 O 0.93885 0.60809 0.7181 0.0
Co798 Co 0.42417 0.93137 0.69284 0.0
O799 O 0.39804 0.93243 0.68389 0.0
O800 O 0.42182 0.92056 0.6676 0.0
C801 C 0.41729 0.92179 0.72309 0.0
O802 O 0.45291 0.92728 0.69619 0.0
Co803 Co 0.44005 0.95512 0.72623 0.0
O804 O 0.46428 0.9412 0.7224 0.0
C805 C 0.42877 0.97321 0.69018 0.0
C806 C 0.40399 0.92505 0.66809 0.0
C807 C 0.46666 0.93106 0.70767 0.0
O808 O 0.42893 0.95714 0.68162 0.0
O809 O 0.43051 0.97493 0.70814 0.0
O810 O 0.41849 0.90937 0.70948 0.0
O811 O 0.41955 0.93904 0.71792 0.0
Co812 Co 0.09634 0.42398 0.69258 0.0
O813 O 0.09531 0.39785 0.68362 0.0
O814 O 0.10702 0.42167 0.66728 0.0
C815 C 0.10612 0.41714 0.72276 0.0
O816 O 0.10035 0.45271 0.69593 0.0
Co817 Co 0.07273 0.43976 0.72613 0.0
O818 O 0.08661 0.464 0.72226 0.0
C819 C 0.05445 0.42852 0.69016 0.0
C820 C 0.1026 0.40382 0.66779 0.0
C821 C 0.09664 0.46643 0.70746 0.0
O822 O 0.07048 0.42867 0.68151 0.0
O823 O 0.05283 0.43026 0.70813 0.0
O824 O 0.11846 0.41838 0.70907 0.0
O825 O 0.08883 0.41932 0.71771 0.0
Co826 Co 0.60378 0.09639 0.69301 0.0
O827 O 0.62991 0.09529 0.68406 0.0
O828 O 0.60616 0.10727 0.6678 0.0
C829 C 0.6107 0.10585 0.7233 0.0
O830 O 0.57505 0.10052 0.69634 0.0
Co831 Co 0.58782 0.07259 0.72631 0.0
O832 O 0.5636 0.08651 0.72246 0.0
C833 C 0.59914 0.05458 0.69024 0.0
C834 C 0.62399 0.10272 0.66828 0.0
C835 C 0.56127 0.09671 0.70776 0.0
O836 O 0.59898 0.07066 0.68171 0.0
O837 O 0.59739 0.05283 0.7082 0.0
O838 O 0.60952 0.11832 0.70972 0.0
O839 O 0.60837 0.08863 0.71807 0.0
Co840 Co 0.93143 0.42383 0.33455 0.0
O841 O 0.93245 0.3977 0.34348 0.0
O842 O 0.92072 0.42151 0.35983 0.0
C843 C 0.92168 0.41699 0.30434 0.0
O844 O 0.92742 0.45257 0.33122 0.0
Co845 Co 0.95505 0.43963 0.30103 0.0
O846 O 0.94122 0.4639 0.30494 0.0
C847 C 0.97331 0.42837 0.33701 0.0
C848 C 0.92515 0.40366 0.35931 0.0
C849 C 0.93117 0.46631 0.31973 0.0
O850 O 0.95727 0.42852 0.34564 0.0
O851 O 0.97494 0.43011 0.31904 0.0
O852 O 0.90932 0.41823 0.31802 0.0
O853 O 0.93896 0.41919 0.30942 0.0
Co854 Co 0.60373 0.93078 0.33461 0.0
O855 O 0.62986 0.93179 0.34358 0.0
O856 O 0.60602 0.92009 0.35991 0.0
C857 C 0.61057 0.92101 0.30441 0.0
O858 O 0.57499 0.92678 0.33125 0.0
Co859 Co 0.58796 0.95441 0.30108 0.0
O860 O 0.56369 0.94057 0.30495 0.0
C861 C 0.59922 0.97266 0.33705 0.0
C862 C 0.62387 0.92451 0.3594 0.0
C863 C 0.56126 0.93053 0.31974 0.0
O864 O 0.59905 0.95663 0.34569 0.0
O865 O 0.59748 0.97429 0.31908 0.0
O866 O 0.60932 0.90867 0.31809 0.0
O867 O 0.60839 0.9383 0.30948 0.0
Co868 Co 0.09692 0.60362 0.33432 0.0
O869 O 0.09591 0.62975 0.34329 0.0
O870 O 0.10762 0.60591 0.35962 0.0
C871 C 0.10667 0.61045 0.30412 0.0
O872 O 0.10091 0.57488 0.33098 0.0
Co873 Co 0.07327 0.58785 0.30081 0.0
O874 O 0.08711 0.56358 0.30468 0.0
C875 C 0.05503 0.59911 0.33679 0.0
C876 C 0.10319 0.62377 0.35912 0.0
C877 C 0.09717 0.56116 0.31947 0.0
O878 O 0.07107 0.59894 0.34541 0.0
O879 O 0.05339 0.59738 0.31881 0.0
O880 O 0.11903 0.6092 0.3178 0.0
O881 O 0.08939 0.60827 0.3092 0.0
Co882 Co 0.42396 0.09619 0.33446 0.0
O883 O 0.39782 0.09516 0.3434 0.0
O884 O 0.42162 0.10701 0.3597 0.0
C885 C 0.41709 0.10576 0.3042 0.0
O886 O 0.4527 0.10023 0.33113 0.0
Co887 Co 0.43983 0.07243 0.30107 0.0
O888 O 0.46409 0.08629 0.30494 0.0
C889 C 0.42854 0.05434 0.33712 0.0
C890 C 0.40377 0.10254 0.3592 0.0
C891 C 0.46646 0.09643 0.31968 0.0
O892 O 0.42869 0.07041 0.34568 0.0
O893 O 0.43029 0.05263 0.31915 0.0
O894 O 0.41831 0.11819 0.31781 0.0
O895 O 0.41934 0.08852 0.30937 0.0
Co896 Co 0.69322 0.93102 0.60356 0.0
O897 O 0.68425 0.93211 0.62967 0.0
O898 O 0.66797 0.92021 0.6059 0.0
C899 C 0.72348 0.92146 0.61047 0.0
O900 O 0.69657 0.92692 0.57484 0.0
Co901 Co 0.72662 0.95474 0.58766 0.0
O902 O 0.72277 0.94083 0.56344 0.0
C903 C 0.69057 0.97285 0.59894 0.0
C904 C 0.66845 0.92473 0.62373 0.0
C905 C 0.70803 0.93068 0.56108 0.0
O906 O 0.682 0.95679 0.59877 0.0
O907 O 0.70855 0.97456 0.59719 0.0
O908 O 0.70987 0.90903 0.60927 0.0
O909 O 0.71831 0.9387 0.60818 0.0
Co910 Co 0.69297 0.09627 0.42407 0.0
O911 O 0.684 0.09521 0.39795 0.0
O912 O 0.66767 0.10699 0.42175 0.0
C913 C 0.72318 0.10597 0.41718 0.0
O914 O 0.69633 0.10033 0.45279 0.0
Co915 Co 0.72648 0.07265 0.43989 0.0
O916 O 0.72263 0.08655 0.46412 0.0
C917 C 0.69048 0.05441 0.42864 0.0
C918 C 0.66817 0.10253 0.40391 0.0
C919 C 0.70784 0.09661 0.46652 0.0
O920 O 0.68185 0.07045 0.4288 0.0
O921 O 0.70846 0.05277 0.43038 0.0
O922 O 0.70952 0.11834 0.41841 0.0
O923 O 0.71808 0.08871 0.41942 0.0
Co924 Co 0.93124 0.69272 0.42413 0.0
O925 O 0.93227 0.68379 0.398 0.0
O926 O 0.92059 0.6674 0.42181 0.0
C927 C 0.92143 0.72291 0.41731 0.0
O928 O 0.92724 0.69605 0.45287 0.0
Co929 Co 0.95483 0.72628 0.43992 0.0
O930 O 0.94097 0.72239 0.46416 0.0
C931 C 0.97313 0.69035 0.42859 0.0
C932 C 0.92501 0.66794 0.40396 0.0
C933 C 0.93095 0.70758 0.46659 0.0
O934 O 0.95712 0.68168 0.42879 0.0
O935 O 0.97474 0.70832 0.43034 0.0
O936 O 0.9091 0.70921 0.41855 0.0
O937 O 0.93872 0.71786 0.41949 0.0
Co938 Co 0.33473 0.93097 0.42393 0.0
O939 O 0.34369 0.93192 0.39781 0.0
O940 O 0.36004 0.92027 0.42166 0.0
C941 C 0.30453 0.92119 0.41711 0.0
O942 O 0.33139 0.92703 0.45268 0.0
Co943 Co 0.30119 0.95462 0.43966 0.0
O944 O 0.30509 0.94084 0.46396 0.0
C945 C 0.33717 0.97285 0.42836 0.0
C946 C 0.35952 0.92465 0.4038 0.0
C947 C 0.31989 0.93081 0.4664 0.0
O948 O 0.34582 0.95682 0.42856 0.0
O949 O 0.31919 0.97448 0.43008 0.0
O950 O 0.31821 0.90885 0.41838 0.0
O951 O 0.3096 0.93848 0.41927 0.0
Co952 Co 0.09686 0.33462 0.42365 0.0
O953 O 0.09589 0.34358 0.39752 0.0
O954 O 0.10747 0.35996 0.42139 0.0
C955 C 0.10676 0.30446 0.41684 0.0
O956 O 0.1008 0.33128 0.45239 0.0
Co957 Co 0.07333 0.30098 0.43936 0.0
O958 O 0.08712 0.3049 0.46365 0.0
C959 C 0.05496 0.3369 0.42812 0.0
C960 C 0.10311 0.35943 0.40352 0.0
C961 C 0.09709 0.31975 0.4661 0.0
O962 O 0.07095 0.3456 0.42828 0.0
O963 O 0.05338 0.31892 0.42985 0.0
O964 O 0.11905 0.31819 0.41812 0.0
O965 O 0.08945 0.30946 0.41898 0.0
Co966 Co 0.33473 0.09678 0.60337 0.0
O967 O 0.34372 0.09581 0.62949 0.0
O968 O 0.36004 0.10746 0.60563 0.0
C969 C 0.30453 0.10656 0.61021 0.0
O970 O 0.33136 0.10071 0.57463 0.0
Co971 Co 0.30118 0.07311 0.58768 0.0
O972 O 0.30503 0.0869 0.56339 0.0
C973 C 0.33717 0.05489 0.59895 0.0
C974 C 0.35955 0.10307 0.62348 0.0
C975 C 0.31983 0.09694 0.56093 0.0
O976 O 0.34581 0.07092 0.59873 0.0
O977 O 0.31919 0.05325 0.59724 0.0
O978 O 0.31822 0.1189 0.60893 0.0
O979 O 0.3096 0.08927 0.60806 0.0
Co980 Co 0.931 0.33449 0.60341 0.0
O981 O 0.93198 0.34348 0.62952 0.0
O982 O 0.9203 0.35979 0.60567 0.0
C983 C 0.92123 0.30429 0.61026 0.0
O984 O 0.92704 0.33111 0.57467 0.0
Co985 Co 0.95465 0.30094 0.5877 0.0
O986 O 0.94084 0.3048 0.56342 0.0
C987 C 0.97289 0.33695 0.5989 0.0
C988 C 0.9247 0.3593 0.62353 0.0
C989 C 0.9308 0.31959 0.56097 0.0
O990 O 0.95685 0.34557 0.59874 0.0
O991 O 0.97454 0.31897 0.59718 0.0
O992 O 0.90888 0.31797 0.60899 0.0
O993 O 0.93852 0.30937 0.60809 0.0
Co994 Co 0.09675 0.69292 0.60335 0.0
O995 O 0.09569 0.68398 0.62947 0.0
O996 O 0.10742 0.66762 0.60567 0.0
C997 C 0.10651 0.72312 0.6102 0.0
O998 O 0.10079 0.69625 0.57462 0.0
Co999 Co 0.07315 0.72644 0.58751 0.0
O1000 O 0.08701 0.72253 0.56326 0.0
C1001 C 0.05488 0.6905 0.59886 0.0
C1002 C 0.10297 0.66813 0.62351 0.0
C1003 C 0.09706 0.70774 0.56087 0.0
O1004 O 0.0709 0.68185 0.59865 0.0
O1005 O 0.05326 0.70848 0.5971 0.0
O1006 O 0.11886 0.70944 0.60897 0.0
O1007 O 0.08922 0.71805 0.60798 0.0
Co1008 Co 0.45338 0.34148 0.08563 0.0
O1009 O 0.444 0.36571 0.09493 0.0
O1010 O 0.42719 0.33943 0.094 0.0
C1011 C 0.48263 0.34136 0.09945 0.0
O1012 O 0.45753 0.31392 0.07758 0.0
Co1013 Co 0.48855 0.33938 0.05907 0.0
O1014 O 0.4844 0.31152 0.06063 0.0
C1015 C 0.45263 0.35392 0.0444 0.0
C1016 C 0.42767 0.35754 0.09737 0.0
C1017 C 0.46989 0.30406 0.06842 0.0
O1018 O 0.44413 0.34797 0.05938 0.0
O1019 O 0.47067 0.35413 0.04273 0.0
O1020 O 0.46779 0.3362 0.10915 0.0
O1021 O 0.47894 0.34826 0.08305 0.0
Co1022 Co 0.68591 0.45341 0.08613 0.0
O1023 O 0.66167 0.44406 0.09541 0.0
O1024 O 0.68793 0.42723 0.09451 0.0
C1025 C 0.68603 0.48266 0.09996 0.0
O1026 O 0.71349 0.45757 0.07809 0.0
Co1027 Co 0.68802 0.4886 0.05959 0.0
O1028 O 0.71589 0.48444 0.06116 0.0
C1029 C 0.67351 0.45269 0.04488 0.0
C1030 C 0.66983 0.42772 0.09787 0.0
C1031 C 0.72335 0.46992 0.06894 0.0
O1032 O 0.67944 0.44418 0.05987 0.0
O1033 O 0.67329 0.47072 0.04323 0.0
O1034 O 0.69119 0.46781 0.10966 0.0
O1035 O 0.67914 0.47898 0.08356 0.0
Co1036 Co 0.57388 0.68585 0.0864 0.0
O1037 O 0.58316 0.66165 0.09586 0.0
O1038 O 0.60008 0.68785 0.09473 0.0
C1039 C 0.54464 0.6862 0.10024 0.0
O1040 O 0.56984 0.71339 0.07816 0.0
Co1041 Co 0.53868 0.68798 0.05988 0.0
O1042 O 0.54299 0.71584 0.0612 0.0
C1043 C 0.57446 0.67304 0.04529 0.0
C1044 C 0.59953 0.66978 0.09823 0.0
C1045 C 0.55755 0.72326 0.06894 0.0
O1046 O 0.58304 0.67912 0.06018 0.0
O1047 O 0.55642 0.6729 0.04368 0.0
O1048 O 0.55951 0.69137 0.1099 0.0
O1049 O 0.54828 0.67918 0.08388 0.0
Co1050 Co 0.34187 0.57391 0.0859 0.0
O1051 O 0.36606 0.58328 0.09532 0.0
O1052 O 0.33979 0.60009 0.09427 0.0
C1053 C 0.34165 0.54465 0.0997 0.0
O1054 O 0.31433 0.56979 0.07772 0.0
Co1055 Co 0.33981 0.53875 0.05933 0.0
O1056 O 0.31194 0.54295 0.06075 0.0
C1057 C 0.35451 0.57463 0.04472 0.0
C1058 C 0.35787 0.59961 0.09773 0.0
C1059 C 0.30448 0.55747 0.06852 0.0
O1060 O 0.34849 0.58314 0.05968 0.0
O1061 O 0.35471 0.55659 0.04307 0.0
O1062 O 0.33645 0.55949 0.10939 0.0
O1063 O 0.34863 0.54834 0.08333 0.0
Co1064 Co 0.45311 0.68582 0.94152 0.0
O1065 O 0.44373 0.6616 0.93219 0.0
O1066 O 0.42693 0.68788 0.93313 0.0
C1067 C 0.48238 0.68596 0.92773 0.0
O1068 O 0.45726 0.71337 0.9496 0.0
Co1069 Co 0.48826 0.68788 0.96811 0.0
O1070 O 0.48412 0.71575 0.96657 0.0
C1071 C 0.45233 0.67337 0.98276 0.0
C1072 C 0.4274 0.66978 0.92974 0.0
C1073 C 0.46961 0.72322 0.95878 0.0
O1074 O 0.44384 0.67932 0.96777 0.0
O1075 O 0.47037 0.67313 0.98443 0.0
O1076 O 0.46754 0.69113 0.91802 0.0
O1077 O 0.47867 0.67904 0.94412 0.0
Co1078 Co 0.34184 0.45349 0.94092 0.0
O1079 O 0.36606 0.4442 0.9315 0.0
O1080 O 0.33985 0.4273 0.93256 0.0
C1081 C 0.34152 0.48274 0.92712 0.0
O1082 O 0.31429 0.45753 0.94911 0.0
Co1083 Co 0.33971 0.48864 0.96749 0.0
O1084 O 0.31185 0.48436 0.96609 0.0
C1085 C 0.35457 0.45283 0.98207 0.0
C1086 C 0.35793 0.42784 0.9291 0.0
C1087 C 0.30442 0.46983 0.95832 0.0
O1088 O 0.34853 0.44429 0.96714 0.0
O1089 O 0.35472 0.47086 0.98371 0.0
O1090 O 0.33637 0.46789 0.91743 0.0
O1091 O 0.34852 0.47908 0.94348 0.0
Co1092 Co 0.57426 0.34174 0.94141 0.0
O1093 O 0.58352 0.36599 0.93207 0.0
O1094 O 0.60046 0.3398 0.93303 0.0
C1095 C 0.54501 0.34148 0.92759 0.0
O1096 O 0.57022 0.31417 0.94953 0.0
Co1097 Co 0.5391 0.33957 0.96797 0.0
O1098 O 0.54337 0.31172 0.9665 0.0
C1099 C 0.57496 0.35427 0.98262 0.0
C1100 C 0.59989 0.35789 0.92962 0.0
C1101 C 0.55791 0.30429 0.95873 0.0
O1102 O 0.58348 0.34832 0.96765 0.0
O1103 O 0.55692 0.35443 0.98428 0.0
O1104 O 0.55987 0.33635 0.9179 0.0
O1105 O 0.54867 0.34842 0.94398 0.0
Co1106 Co 0.68579 0.57452 0.94187 0.0
O1107 O 0.66156 0.58387 0.93257 0.0
O1108 O 0.68782 0.60071 0.93352 0.0
C1109 C 0.68593 0.54529 0.92802 0.0
O1110 O 0.71336 0.57037 0.94994 0.0
Co1111 Co 0.6879 0.53932 0.96839 0.0
O1112 O 0.71576 0.54347 0.96683 0.0
C1113 C 0.67335 0.57521 0.98311 0.0
C1114 C 0.66972 0.60021 0.93014 0.0
C1115 C 0.72322 0.558 0.95907 0.0
O1116 O 0.67929 0.58373 0.96813 0.0
O1117 O 0.67315 0.55717 0.98476 0.0
O1118 O 0.6911 0.56014 0.91834 0.0
O1119 O 0.67903 0.54895 0.94442 0.0
Co1120 Co 0.08645 0.45351 0.34137 0.0
O1121 O 0.09581 0.44418 0.36559 0.0
O1122 O 0.09485 0.42733 0.33935 0.0
C1123 C 0.10025 0.48277 0.34118 0.0
O1124 O 0.07834 0.45762 0.31382 0.0
Co1125 Co 0.05986 0.48866 0.33927 0.0
O1126 O 0.06141 0.48449 0.31141 0.0
C1127 C 0.04523 0.45276 0.3539 0.0
C1128 C 0.09825 0.42784 0.35744 0.0
C1129 C 0.06918 0.46997 0.30396 0.0
O1130 O 0.06022 0.44426 0.34793 0.0
O1131 O 0.04355 0.47079 0.35408 0.0
O1132 O 0.10996 0.46793 0.33602 0.0
O1133 O 0.08387 0.47908 0.34811 0.0
Co1134 Co 0.5741 0.0858 0.34175 0.0
O1135 O 0.58342 0.09513 0.36598 0.0
O1136 O 0.60027 0.09422 0.33974 0.0
C1137 C 0.54482 0.09957 0.34156 0.0
O1138 O 0.57 0.07772 0.31419 0.0
Co1139 Co 0.53898 0.05918 0.33962 0.0
O1140 O 0.54317 0.06072 0.31177 0.0
C1141 C 0.5749 0.04456 0.3542 0.0
C1142 C 0.59976 0.0976 0.35784 0.0
C1143 C 0.55767 0.06853 0.30432 0.0
O1144 O 0.58338 0.05957 0.34827 0.0
O1145 O 0.55686 0.04286 0.35439 0.0
O1146 O 0.55966 0.1093 0.33642 0.0
O1147 O 0.54853 0.08318 0.34848 0.0
Co1148 Co 0.94187 0.57397 0.34169 0.0
O1149 O 0.93257 0.58326 0.36594 0.0
O1150 O 0.93341 0.60013 0.33971 0.0
C1151 C 0.92813 0.54469 0.34151 0.0
O1152 O 0.94992 0.56989 0.31411 0.0
Co1153 Co 0.96853 0.53888 0.3395 0.0
O1154 O 0.96695 0.54308 0.31165 0.0
C1155 C 0.98314 0.57481 0.35406 0.0
C1156 C 0.93006 0.5996 0.35781 0.0
C1157 C 0.95911 0.55758 0.30422 0.0
O1158 O 0.96811 0.58327 0.34816 0.0
O1159 O 0.98486 0.55678 0.35424 0.0
O1160 O 0.91838 0.55951 0.33639 0.0
O1161 O 0.94453 0.5484 0.3484 0.0
Co1162 Co 0.45361 0.94127 0.34166 0.0
O1163 O 0.44428 0.93192 0.36588 0.0
O1164 O 0.42742 0.93289 0.33964 0.0
C1165 C 0.48286 0.92746 0.34146 0.0
O1166 O 0.45771 0.94938 0.3141 0.0
Co1167 Co 0.48877 0.96784 0.33954 0.0
O1168 O 0.48459 0.96631 0.31168 0.0
C1169 C 0.45288 0.98248 0.35419 0.0
C1170 C 0.42793 0.92948 0.35773 0.0
C1171 C 0.47006 0.95854 0.30424 0.0
O1172 O 0.44437 0.9675 0.34823 0.0
O1173 O 0.47092 0.98416 0.35436 0.0
O1174 O 0.46802 0.91776 0.3363 0.0
O1175 O 0.47918 0.94385 0.34839 0.0
Co1176 Co 0.08596 0.57405 0.68557 0.0
O1177 O 0.09535 0.58338 0.66136 0.0
O1178 O 0.09434 0.60023 0.68761 0.0
C1179 C 0.09979 0.54481 0.68578 0.0
O1180 O 0.07782 0.56996 0.71312 0.0
Co1181 Co 0.05942 0.53887 0.68769 0.0
O1182 O 0.06089 0.54309 0.71555 0.0
C1183 C 0.04476 0.57473 0.67299 0.0
C1184 C 0.09778 0.59972 0.66952 0.0
C1185 C 0.06864 0.55763 0.72299 0.0
O1186 O 0.05972 0.58326 0.67897 0.0
O1187 O 0.04312 0.55669 0.67281 0.0
O1188 O 0.10948 0.55965 0.69096 0.0
O1189 O 0.0834 0.54848 0.67884 0.0
Co1190 Co 0.45369 0.08629 0.68553 0.0
O1191 O 0.44436 0.09569 0.66133 0.0
O1192 O 0.42751 0.09468 0.68757 0.0
C1193 C 0.48296 0.10009 0.68578 0.0
O1194 O 0.4578 0.07813 0.71307 0.0
Co1195 Co 0.48884 0.0597 0.68759 0.0
O1196 O 0.48464 0.06114 0.71545 0.0
C1197 C 0.45295 0.04509 0.67294 0.0
C1198 C 0.42801 0.09811 0.66949 0.0
C1199 C 0.47012 0.06892 0.72291 0.0
O1200 O 0.44445 0.06006 0.67892 0.0
O1201 O 0.47099 0.04342 0.67274 0.0
O1202 O 0.46811 0.10978 0.69094 0.0
O1203 O 0.47927 0.08372 0.6788 0.0
Co1204 Co 0.94123 0.4535 0.68555 0.0
O1205 O 0.9319 0.44411 0.66134 0.0
O1206 O 0.93288 0.4273 0.68761 0.0
C1207 C 0.92737 0.48273 0.68572 0.0
O1208 O 0.94932 0.45767 0.7131 0.0
Co1209 Co 0.96776 0.4887 0.68759 0.0
O1210 O 0.96616 0.4846 0.71546 0.0
C1211 C 0.98248 0.45279 0.67309 0.0
C1212 C 0.92949 0.42778 0.66952 0.0
C1213 C 0.95843 0.47008 0.72294 0.0
O1214 O 0.96749 0.44429 0.67903 0.0
O1215 O 0.98414 0.47083 0.67288 0.0
O1216 O 0.91769 0.46788 0.69089 0.0
O1217 O 0.94376 0.47906 0.67878 0.0
Co1218 Co 0.57429 0.94152 0.68571 0.0
O1219 O 0.58364 0.93211 0.66152 0.0
O1220 O 0.60047 0.93314 0.68778 0.0
C1221 C 0.54503 0.92772 0.68592 0.0
O1222 O 0.57018 0.94969 0.71325 0.0
Co1223 Co 0.53913 0.9681 0.68778 0.0
O1224 O 0.54334 0.96667 0.71564 0.0
C1225 C 0.57501 0.9827 0.67308 0.0
C1226 C 0.59998 0.9297 0.66969 0.0
C1227 C 0.55786 0.95889 0.7231 0.0
O1228 O 0.58353 0.96774 0.67909 0.0
O1229 O 0.55697 0.98435 0.67288 0.0
O1230 O 0.55987 0.91803 0.69111 0.0
O1231 O 0.54872 0.94409 0.67896 0.0
Co1232 Co 0.34163 0.08602 0.45328 0.0
O1233 O 0.36585 0.09536 0.44393 0.0
O1234 O 0.33959 0.09439 0.4271 0.0
C1235 C 0.34147 0.09986 0.48252 0.0
O1236 O 0.31407 0.07793 0.45742 0.0
Co1237 Co 0.33954 0.05947 0.48845 0.0
O1238 O 0.31167 0.06099 0.48428 0.0
C1239 C 0.35415 0.04481 0.45256 0.0
C1240 C 0.35769 0.09778 0.42759 0.0
C1241 C 0.30421 0.06876 0.46976 0.0
O1242 O 0.34818 0.05978 0.44406 0.0
O1243 O 0.35434 0.04314 0.4706 0.0
O1244 O 0.3363 0.10955 0.46768 0.0
O1245 O 0.34839 0.08346 0.47884 0.0
Co1246 Co 0.34183 0.94171 0.57402 0.0
O1247 O 0.36606 0.93238 0.58337 0.0
O1248 O 0.3398 0.93333 0.6002 0.0
C1249 C 0.34166 0.92789 0.54478 0.0
O1250 O 0.31427 0.9498 0.56989 0.0
Co1251 Co 0.33973 0.96828 0.53887 0.0
O1252 O 0.31186 0.96676 0.54305 0.0
C1253 C 0.35431 0.98295 0.57476 0.0
C1254 C 0.3579 0.92994 0.5997 0.0
C1255 C 0.3044 0.95898 0.55756 0.0
O1256 O 0.34836 0.96796 0.58326 0.0
O1257 O 0.3545 0.98462 0.55673 0.0
O1258 O 0.3365 0.91819 0.55962 0.0
O1259 O 0.34858 0.94429 0.54846 0.0
Co1260 Co 0.08606 0.34162 0.57373 0.0
O1261 O 0.09535 0.36586 0.58307 0.0
O1262 O 0.09444 0.33961 0.59991 0.0
C1263 C 0.09989 0.34147 0.54449 0.0
O1264 O 0.078 0.31405 0.56959 0.0
Co1265 Co 0.0595 0.33949 0.53856 0.0
O1266 O 0.06112 0.31163 0.5427 0.0
C1267 C 0.04479 0.35402 0.57446 0.0
C1268 C 0.0978 0.35771 0.59941 0.0
C1269 C 0.06888 0.30418 0.55722 0.0
O1270 O 0.0598 0.34811 0.58296 0.0
O1271 O 0.04311 0.3542 0.55643 0.0
O1272 O 0.10959 0.33632 0.55933 0.0
O1273 O 0.08348 0.34837 0.54817 0.0
Co1274 Co 0.68597 0.08597 0.57412 0.0
O1275 O 0.66178 0.09536 0.5835 0.0
O1276 O 0.68806 0.09433 0.6003 0.0
C1277 C 0.68614 0.09981 0.54489 0.0
O1278 O 0.71352 0.07783 0.56997 0.0
Co1279 Co 0.68802 0.05944 0.53894 0.0
O1280 O 0.7159 0.06092 0.54309 0.0
C1281 C 0.6734 0.04477 0.57482 0.0
C1282 C 0.66997 0.09777 0.59983 0.0
C1283 C 0.72337 0.06867 0.55761 0.0
O1284 O 0.67939 0.05974 0.58334 0.0
O1285 O 0.6732 0.04313 0.55679 0.0
O1286 O 0.69134 0.10949 0.55973 0.0
O1287 O 0.67919 0.08343 0.54857 0.0
Co1288 Co 0.94162 0.6858 0.57423 0.0
O1289 O 0.93225 0.66161 0.5836 0.0
O1290 O 0.93323 0.68788 0.60041 0.0
C1291 C 0.92781 0.68595 0.54498 0.0
O1292 O 0.94975 0.71335 0.57008 0.0
Co1293 Co 0.96819 0.68786 0.53907 0.0
O1294 O 0.96671 0.71573 0.54324 0.0
C1295 C 0.98284 0.67328 0.57497 0.0
C1296 C 0.92981 0.66979 0.59993 0.0
C1297 C 0.95894 0.7232 0.55775 0.0
O1298 O 0.96787 0.67926 0.58348 0.0
O1299 O 0.98449 0.67305 0.55694 0.0
O1300 O 0.91811 0.69114 0.55981 0.0
O1301 O 0.9442 0.67902 0.54868 0.0
Co1302 Co 0.68594 0.94124 0.45354 0.0
O1303 O 0.66173 0.93189 0.44418 0.0
O1304 O 0.68799 0.93287 0.42735 0.0
C1305 C 0.68613 0.92741 0.48277 0.0
O1306 O 0.7135 0.94935 0.45768 0.0
Co1307 Co 0.68802 0.96778 0.48872 0.0
O1308 O 0.71589 0.96623 0.48457 0.0
C1309 C 0.67342 0.98246 0.45283 0.0
C1310 C 0.66989 0.92946 0.42784 0.0
C1311 C 0.72336 0.95848 0.47004 0.0
O1312 O 0.67939 0.96748 0.44432 0.0
O1313 O 0.67323 0.98412 0.47087 0.0
O1314 O 0.6913 0.91772 0.46793 0.0
O1315 O 0.67919 0.94379 0.4791 0.0
Co1316 Co 0.0864 0.68577 0.45329 0.0
O1317 O 0.09575 0.66157 0.4439 0.0
O1318 O 0.09476 0.68784 0.42711 0.0
C1319 C 0.10024 0.68592 0.48253 0.0
O1320 O 0.07828 0.71331 0.45746 0.0
Co1321 Co 0.05986 0.6878 0.48848 0.0
O1322 O 0.0614 0.71567 0.48436 0.0
C1323 C 0.04517 0.67325 0.45258 0.0
C1324 C 0.09818 0.66975 0.42758 0.0
C1325 C 0.06914 0.72315 0.46984 0.0
O1326 O 0.06014 0.67922 0.44407 0.0
O1327 O 0.04352 0.67302 0.47061 0.0
O1328 O 0.10992 0.69111 0.46769 0.0
O1329 O 0.08385 0.67898 0.47884 0.0
Co1330 Co 0.94172 0.3414 0.45332 0.0
O1331 O 0.93244 0.36565 0.44399 0.0
O1332 O 0.93332 0.3394 0.42714 0.0
C1333 C 0.92791 0.34126 0.48257 0.0
O1334 O 0.94975 0.31382 0.45744 0.0
Co1335 Co 0.96831 0.33924 0.48846 0.0
O1336 O 0.96666 0.31138 0.48432 0.0
C1337 C 0.98299 0.35378 0.45255 0.0
C1338 C 0.92997 0.35751 0.42765 0.0
C1339 C 0.95888 0.30394 0.4698 0.0
O1340 O 0.96798 0.34787 0.44407 0.0
O1341 O 0.98469 0.35395 0.47058 0.0
O1342 O 0.91819 0.33612 0.46773 0.0
O1343 O 0.94432 0.34814 0.47888 0.0
C1344 C 0.15556 0.15201 0.42742 0.0
C1345 C 0.13605 0.15103 0.4234 0.0
H1346 H 0.18149 0.13682 0.43211 0.0
C1347 C 0.12814 0.13308 0.41977 0.0
H1348 H 0.16218 0.16553 0.43031 0.0
C1349 C 0.13919 0.11654 0.421 0.0
C1350 C 0.15856 0.11747 0.42564 0.0
H1351 H 0.11318 0.13169 0.4167 0.0
H1352 H 0.13241 0.10297 0.41881 0.0
C1353 C 0.16667 0.13549 0.4284 0.0
C1354 C 0.87559 0.15521 0.4274 0.0
C1355 C 0.8766 0.13569 0.42346 0.0
H1356 H 0.89075 0.18117 0.432 0.0
C1357 C 0.89457 0.12777 0.41989 0.0
H1358 H 0.86206 0.16182 0.43024 0.0
C1359 C 0.91109 0.13885 0.42109 0.0
C1360 C 0.91014 0.15823 0.42565 0.0
H1361 H 0.89597 0.11281 0.41688 0.0
H1362 H 0.92468 0.13207 0.41895 0.0
C1363 C 0.8921 0.16633 0.42836 0.0
C1364 C 0.8885 0.91075 0.42146 0.0
C1365 C 0.86913 0.9098 0.42605 0.0
H1366 H 0.91455 0.89565 0.41721 0.0
C1367 C 0.86103 0.89176 0.42877 0.0
H1368 H 0.89527 0.92434 0.41931 0.0
C1369 C 0.87217 0.87526 0.42779 0.0
C1370 C 0.89168 0.87627 0.42383 0.0
H1371 H 0.84621 0.8904 0.43243 0.0
H1372 H 0.86556 0.86172 0.43065 0.0
C1373 C 0.89958 0.89424 0.42024 0.0
C1374 C 0.13566 0.86086 0.42855 0.0
C1375 C 0.11762 0.86895 0.42585 0.0
H1376 H 0.16571 0.8654 0.43041 0.0
C1377 C 0.11664 0.88832 0.42126 0.0
H1378 H 0.13703 0.84604 0.43221 0.0
C1379 C 0.13316 0.89941 0.42003 0.0
C1380 C 0.15114 0.89151 0.4236 0.0
H1381 H 0.10305 0.89508 0.41912 0.0
H1382 H 0.13174 0.91437 0.417 0.0
C1383 C 0.15216 0.872 0.42757 0.0
C1384 C 0.13942 0.91106 0.60629 0.0
C1385 C 0.1588 0.91015 0.60169 0.0
H1386 H 0.11342 0.89588 0.61057 0.0
C1387 C 0.16694 0.89213 0.59897 0.0
H1388 H 0.13261 0.92463 0.60844 0.0
C1389 C 0.15585 0.8756 0.59997 0.0
C1390 C 0.13633 0.87656 0.60395 0.0
H1391 H 0.18177 0.89082 0.5953 0.0
H1392 H 0.16249 0.86208 0.59711 0.0
C1393 C 0.12839 0.89451 0.60752 0.0
C1394 C 0.11658 0.13918 0.6061 0.0
C1395 C 0.1175 0.15856 0.60149 0.0
H1396 H 0.13173 0.11317 0.61038 0.0
C1397 C 0.13553 0.16667 0.59875 0.0
H1398 H 0.103 0.1324 0.60827 0.0
C1399 C 0.15205 0.15556 0.59974 0.0
C1400 C 0.15107 0.13606 0.60373 0.0
H1401 H 0.13686 0.18149 0.59507 0.0
H1402 H 0.16558 0.16219 0.59687 0.0
C1403 C 0.13312 0.12813 0.60733 0.0
C1404 C 0.89954 0.1329 0.60737 0.0
C1405 C 0.8916 0.15086 0.6038 0.0
H1406 H 0.89528 0.10279 0.60832 0.0
C1407 C 0.87208 0.15184 0.59986 0.0
H1408 H 0.91451 0.13152 0.61038 0.0
C1409 C 0.86097 0.13532 0.59891 0.0
C1410 C 0.86909 0.1173 0.60162 0.0
H1411 H 0.86544 0.16537 0.59701 0.0
H1412 H 0.84613 0.13665 0.59527 0.0
C1413 C 0.88848 0.11637 0.60618 0.0
C1414 C 0.91142 0.8883 0.60647 0.0
C1415 C 0.91048 0.8689 0.60195 0.0
H1416 H 0.89629 0.91433 0.61067 0.0
C1417 C 0.89243 0.86078 0.59933 0.0
H1418 H 0.92501 0.89509 0.60854 0.0
C1419 C 0.87592 0.87189 0.60033 0.0
C1420 C 0.87692 0.89142 0.60422 0.0
H1421 H 0.89109 0.84594 0.59573 0.0
H1422 H 0.86237 0.86525 0.59755 0.0
C1423 C 0.89489 0.89936 0.6077 0.0
C1424 C 0.42748 0.15537 0.15179 0.0
C1425 C 0.42356 0.13585 0.1508 0.0
H1426 H 0.43211 0.18132 0.13661 0.0
C1427 C 0.42008 0.12791 0.13284 0.0
H1428 H 0.43025 0.16202 0.16533 0.0
C1429 C 0.42134 0.13895 0.11631 0.0
C1430 C 0.42587 0.15834 0.11724 0.0
H1431 H 0.41709 0.11293 0.13145 0.0
H1432 H 0.41926 0.13215 0.10272 0.0
C1433 C 0.4285 0.16648 0.13527 0.0
C1434 C 0.87212 0.42749 0.15198 0.0
C1435 C 0.89164 0.42356 0.15098 0.0
H1436 H 0.84617 0.43214 0.13682 0.0
C1437 C 0.89957 0.42003 0.13302 0.0
H1438 H 0.86549 0.4303 0.16552 0.0
C1439 C 0.8885 0.42127 0.11649 0.0
C1440 C 0.86912 0.42583 0.11744 0.0
H1441 H 0.91454 0.41702 0.13162 0.0
H1442 H 0.89529 0.41916 0.10291 0.0
C1443 C 0.861 0.4285 0.13547 0.0
C1444 C 0.60757 0.89937 0.13306 0.0
C1445 C 0.60398 0.89145 0.15102 0.0
H1446 H 0.60852 0.89509 0.10296 0.0
C1447 C 0.6 0.87194 0.15201 0.0
H1448 H 0.61062 0.91433 0.13167 0.0
C1449 C 0.59903 0.86083 0.1355 0.0
C1450 C 0.60176 0.86893 0.11747 0.0
H1451 H 0.59714 0.86532 0.16554 0.0
H1452 H 0.59536 0.846 0.13683 0.0
C1453 C 0.60636 0.88831 0.11654 0.0
C1454 C 0.12826 0.6073 0.13277 0.0
C1455 C 0.13617 0.60375 0.15074 0.0
H1456 H 0.13255 0.60818 0.10267 0.0
C1457 C 0.15568 0.59978 0.15175 0.0
H1458 H 0.11329 0.61034 0.13137 0.0
C1459 C 0.16681 0.59877 0.13524 0.0
C1460 C 0.15871 0.60146 0.11721 0.0
H1461 H 0.1623 0.59694 0.16528 0.0
H1462 H 0.18164 0.5951 0.13659 0.0
C1463 C 0.13933 0.60605 0.11625 0.0
C1464 C 0.42024 0.89958 0.89442 0.0
C1465 C 0.42372 0.89166 0.87644 0.0
H1466 H 0.41938 0.89528 0.92453 0.0
C1467 C 0.4276 0.87213 0.87542 0.0
H1468 H 0.41727 0.91455 0.89584 0.0
C1469 C 0.42859 0.861 0.89193 0.0
C1470 C 0.42596 0.8691 0.90997 0.0
H1471 H 0.43038 0.86551 0.86188 0.0
H1472 H 0.43218 0.84615 0.89056 0.0
C1473 C 0.42146 0.8885 0.91093 0.0
C1474 C 0.15544 0.42775 0.87503 0.0
C1475 C 0.13592 0.42382 0.87607 0.0
H1476 H 0.18144 0.43234 0.89014 0.0
C1477 C 0.12804 0.42024 0.89405 0.0
H1478 H 0.16203 0.4306 0.86149 0.0
C1479 C 0.13915 0.42143 0.91054 0.0
C1480 C 0.15854 0.42599 0.90956 0.0
H1481 H 0.11307 0.41723 0.89548 0.0
H1482 H 0.1324 0.41928 0.92414 0.0
C1483 C 0.1666 0.4287 0.89152 0.0
C1484 C 0.60791 0.12816 0.89466 0.0
C1485 C 0.60443 0.13611 0.8767 0.0
H1486 H 0.60875 0.1324 0.92478 0.0
C1487 C 0.60056 0.15564 0.87571 0.0
H1488 H 0.61087 0.11318 0.89605 0.0
C1489 C 0.59956 0.16674 0.89223 0.0
C1490 C 0.60218 0.1586 0.91026 0.0
H1491 H 0.59779 0.16229 0.86218 0.0
H1492 H 0.59597 0.18159 0.89089 0.0
C1493 C 0.60668 0.13921 0.9112 0.0
C1494 C 0.86068 0.59961 0.89241 0.0
C1495 C 0.86885 0.60222 0.91043 0.0
H1496 H 0.86507 0.59784 0.86235 0.0
C1497 C 0.88826 0.60671 0.91132 0.0
H1498 H 0.84582 0.59603 0.8911 0.0
C1499 C 0.89928 0.60794 0.89477 0.0
C1500 C 0.89128 0.60448 0.87681 0.0
H1501 H 0.89509 0.60877 0.92489 0.0
H1502 H 0.91426 0.6109 0.89613 0.0
C1503 C 0.87175 0.60061 0.87587 0.0
C1504 C 0.15196 0.42713 0.15502 0.0
C1505 C 0.15088 0.42326 0.13549 0.0
H1506 H 0.13689 0.43176 0.18102 0.0
C1507 C 0.13287 0.41984 0.12761 0.0
H1508 H 0.16553 0.42986 0.16161 0.0
C1509 C 0.11638 0.42111 0.13873 0.0
C1510 C 0.11741 0.42561 0.15812 0.0
H1511 H 0.13141 0.41688 0.11264 0.0
H1512 H 0.10276 0.41908 0.13197 0.0
C1513 C 0.13548 0.42817 0.16618 0.0
C1514 C 0.13508 0.59939 0.86063 0.0
C1515 C 0.11702 0.60198 0.86873 0.0
H1516 H 0.16513 0.59764 0.86514 0.0
C1517 C 0.11604 0.60643 0.88814 0.0
H1518 H 0.13645 0.59584 0.84578 0.0
C1519 C 0.13256 0.60765 0.89923 0.0
C1520 C 0.15055 0.60421 0.8913 0.0
H1521 H 0.10244 0.60847 0.89492 0.0
H1522 H 0.13114 0.61057 0.91421 0.0
C1523 C 0.15158 0.60038 0.87177 0.0
C1524 C 0.42905 0.13561 0.86061 0.0
C1525 C 0.42627 0.11758 0.86868 0.0
H1526 H 0.43099 0.16565 0.86517 0.0
C1527 C 0.42164 0.11661 0.88804 0.0
H1528 H 0.43274 0.13697 0.84579 0.0
C1529 C 0.42044 0.13312 0.89913 0.0
C1530 C 0.42408 0.15109 0.89125 0.0
H1531 H 0.41944 0.10302 0.89479 0.0
H1532 H 0.41737 0.13171 0.91408 0.0
C1533 C 0.42809 0.15211 0.87176 0.0
C1534 C 0.8944 0.42052 0.89931 0.0
C1535 C 0.87642 0.42415 0.89145 0.0
H1536 H 0.9245 0.41953 0.89493 0.0
C1537 C 0.87537 0.42813 0.87195 0.0
H1538 H 0.89584 0.41747 0.91427 0.0
C1539 C 0.89185 0.42908 0.86078 0.0
C1540 C 0.90991 0.42631 0.86883 0.0
H1541 H 0.86182 0.43102 0.86538 0.0
H1542 H 0.89047 0.43276 0.84597 0.0
C1543 C 0.9109 0.42171 0.8882 0.0
C1544 C 0.60638 0.91136 0.88834 0.0
C1545 C 0.6019 0.91036 0.86894 0.0
H1546 H 0.61057 0.8963 0.91441 0.0
C1547 C 0.59931 0.8923 0.86086 0.0
H1548 H 0.60843 0.92496 0.8951 0.0
C1549 C 0.60032 0.87581 0.87201 0.0
C1550 C 0.60418 0.87687 0.89154 0.0
H1551 H 0.59574 0.89091 0.84602 0.0
H1552 H 0.59758 0.86225 0.86541 0.0
C1553 C 0.60762 0.89486 0.89944 0.0
C1554 C 0.89204 0.59889 0.16684 0.0
C1555 C 0.91005 0.60168 0.1587 0.0
H1556 H 0.86198 0.59696 0.1624 0.0
C1557 C 0.91093 0.60634 0.13934 0.0
H1558 H 0.89075 0.59518 0.18165 0.0
C1559 C 0.89437 0.60756 0.12832 0.0
C1560 C 0.87643 0.60391 0.13627 0.0
H1561 H 0.9245 0.60854 0.13253 0.0
H1562 H 0.89573 0.61064 0.11337 0.0
C1563 C 0.8755 0.59987 0.15576 0.0
C1564 C 0.42001 0.89452 0.12805 0.0
C1565 C 0.4236 0.87654 0.13593 0.0
H1566 H 0.41906 0.92462 0.13238 0.0
C1567 C 0.42757 0.87552 0.15544 0.0
H1568 H 0.41697 0.89593 0.11309 0.0
C1569 C 0.42855 0.89201 0.16658 0.0
C1570 C 0.42582 0.91006 0.15851 0.0
H1571 H 0.43044 0.86197 0.16203 0.0
H1572 H 0.43222 0.89065 0.1814 0.0
C1573 C 0.42122 0.91103 0.13914 0.0
C1574 C 0.60003 0.15194 0.15564 0.0
C1575 C 0.604 0.15094 0.13614 0.0
H1576 H 0.59536 0.13676 0.18158 0.0
C1577 C 0.60757 0.13297 0.12822 0.0
H1578 H 0.59719 0.16547 0.16226 0.0
C1579 C 0.60633 0.11645 0.13928 0.0
C1580 C 0.60173 0.11739 0.15865 0.0
H1581 H 0.61061 0.13157 0.11326 0.0
H1582 H 0.60846 0.10286 0.1325 0.0
C1583 C 0.59903 0.13542 0.16676 0.0
C1584 C 0.63916 0.61687 0.92159 0.0
C1585 C 0.65852 0.61784 0.92629 0.0
H1586 H 0.61312 0.63195 0.91725 0.0
C1587 C 0.66656 0.63588 0.92912 0.0
H1588 H 0.63243 0.60328 0.91934 0.0
C1589 C 0.65541 0.65237 0.92815 0.0
C1590 C 0.63592 0.65134 0.92407 0.0
H1591 H 0.68137 0.63724 0.93287 0.0
H1592 H 0.66198 0.6659 0.93111 0.0
C1593 C 0.62806 0.63337 0.92037 0.0
C1594 C 0.4107 0.63926 0.9212 0.0
C1595 C 0.40976 0.65862 0.92586 0.0
H1596 H 0.39556 0.61324 0.91687 0.0
C1597 C 0.39173 0.66671 0.92863 0.0
H1598 H 0.42428 0.63249 0.91901 0.0
C1599 C 0.37521 0.65559 0.92764 0.0
C1600 C 0.37621 0.6361 0.9236 0.0
H1601 H 0.39039 0.68152 0.93235 0.0
H1602 H 0.36168 0.6622 0.93053 0.0
C1603 C 0.39417 0.6282 0.91996 0.0
C1604 C 0.39963 0.39466 0.91955 0.0
C1605 C 0.39169 0.37668 0.92301 0.0
H1606 H 0.39534 0.42477 0.91871 0.0
C1607 C 0.37216 0.37567 0.92685 0.0
H1608 H 0.41461 0.39607 0.91661 0.0
C1609 C 0.36103 0.39218 0.92783 0.0
C1610 C 0.36914 0.41022 0.92524 0.0
H1611 H 0.36552 0.36212 0.92961 0.0
H1612 H 0.34618 0.39081 0.9314 0.0
C1613 C 0.38855 0.41118 0.92077 0.0
C1614 C 0.61644 0.38855 0.92127 0.0
C1615 C 0.61747 0.36915 0.92575 0.0
H1616 H 0.63145 0.41466 0.9171 0.0
C1617 C 0.63555 0.3611 0.92834 0.0
H1618 H 0.60282 0.39529 0.91921 0.0
C1619 C 0.65202 0.37229 0.92734 0.0
C1620 C 0.65093 0.39182 0.92349 0.0
H1621 H 0.63696 0.34626 0.93191 0.0
H1622 H 0.66559 0.3657 0.93009 0.0
C1623 C 0.63292 0.39968 0.92004 0.0
C1624 C 0.62814 0.39455 0.10746 0.0
C1625 C 0.63606 0.37657 0.10395 0.0
H1626 H 0.63245 0.42465 0.10833 0.0
C1627 C 0.65559 0.37555 0.10006 0.0
H1628 H 0.61317 0.39596 0.11043 0.0
C1629 C 0.66673 0.39205 0.09908 0.0
C1630 C 0.65862 0.4101 0.10172 0.0
H1631 H 0.66221 0.36201 0.09726 0.0
H1632 H 0.68157 0.39069 0.09547 0.0
C1633 C 0.63923 0.41106 0.10624 0.0
C1634 C 0.63269 0.62809 0.1079 0.0
C1635 C 0.65068 0.63601 0.10445 0.0
H1636 H 0.60257 0.63239 0.1087 0.0
C1637 C 0.65171 0.65554 0.10057 0.0
H1638 H 0.63127 0.61312 0.11087 0.0
C1639 C 0.6352 0.66667 0.09954 0.0
C1640 C 0.61715 0.65857 0.10213 0.0
H1641 H 0.66526 0.66216 0.09782 0.0
H1642 H 0.63657 0.68151 0.09595 0.0
C1643 C 0.61617 0.63917 0.10665 0.0
C1644 C 0.36085 0.63528 0.09902 0.0
C1645 C 0.36902 0.61726 0.10164 0.0
H1646 H 0.36526 0.66535 0.09728 0.0
C1647 C 0.38841 0.61636 0.10619 0.0
H1648 H 0.34601 0.6366 0.09539 0.0
C1649 C 0.39943 0.63291 0.10746 0.0
C1650 C 0.39145 0.65087 0.10398 0.0
H1651 H 0.39524 0.60278 0.10826 0.0
H1652 H 0.41441 0.63154 0.11046 0.0
C1653 C 0.37193 0.65182 0.10006 0.0
C1654 C 0.39199 0.36063 0.09837 0.0
C1655 C 0.41002 0.36872 0.10118 0.0
H1656 H 0.36195 0.36516 0.09636 0.0
C1657 C 0.41096 0.38808 0.10582 0.0
H1658 H 0.39066 0.34581 0.09466 0.0
C1659 C 0.39443 0.39916 0.10699 0.0
C1660 C 0.37648 0.39126 0.10331 0.0
H1661 H 0.42454 0.39485 0.10804 0.0
H1662 H 0.39582 0.41411 0.11006 0.0
C1663 C 0.37548 0.37176 0.09929 0.0
C1664 C 0.92123 0.63927 0.61662 0.0
C1665 C 0.92591 0.65863 0.61756 0.0
H1666 H 0.91686 0.61327 0.63175 0.0
C1667 C 0.92866 0.66672 0.63559 0.0
H1668 H 0.91905 0.6325 0.60304 0.0
C1669 C 0.92763 0.65561 0.6521 0.0
C1670 C 0.92358 0.63612 0.65111 0.0
H1671 H 0.93239 0.68154 0.63693 0.0
H1672 H 0.93052 0.66222 0.66563 0.0
C1673 C 0.91996 0.62822 0.63315 0.0
C1674 C 0.36099 0.92877 0.63536 0.0
C1675 C 0.3691 0.92608 0.61733 0.0
H1676 H 0.36551 0.93063 0.6654 0.0
C1677 C 0.38848 0.92151 0.61637 0.0
H1678 H 0.34616 0.93242 0.63671 0.0
C1679 C 0.39956 0.92029 0.63289 0.0
C1680 C 0.39164 0.92384 0.65086 0.0
H1681 H 0.39526 0.91937 0.60279 0.0
H1682 H 0.41452 0.91727 0.63149 0.0
C1683 C 0.37213 0.92779 0.65187 0.0
C1684 C 0.10733 0.39939 0.63259 0.0
C1685 C 0.10381 0.39148 0.65056 0.0
H1686 H 0.10825 0.39509 0.60249 0.0
C1687 C 0.09992 0.37195 0.65157 0.0
H1688 H 0.11031 0.41437 0.63117 0.0
C1689 C 0.09897 0.36081 0.63507 0.0
C1690 C 0.10163 0.36892 0.61703 0.0
H1691 H 0.09712 0.36533 0.66511 0.0
H1692 H 0.09537 0.34597 0.63643 0.0
C1693 C 0.10614 0.38831 0.61607 0.0
C1694 C 0.62839 0.10753 0.63308 0.0
C1695 C 0.63631 0.10392 0.65104 0.0
H1696 H 0.63265 0.10847 0.60298 0.0
C1697 C 0.65582 0.0999 0.65202 0.0
H1698 H 0.61343 0.11061 0.6317 0.0
C1699 C 0.66692 0.0989 0.6355 0.0
C1700 C 0.65881 0.10165 0.61747 0.0
H1701 H 0.66244 0.09701 0.66554 0.0
H1702 H 0.68174 0.09519 0.63682 0.0
C1703 C 0.63944 0.10629 0.61655 0.0
C1704 C 0.92878 0.36063 0.392 0.0
C1705 C 0.92612 0.36872 0.41004 0.0
H1706 H 0.93062 0.36517 0.36196 0.0
C1707 C 0.92162 0.38812 0.41102 0.0
H1708 H 0.93238 0.34579 0.39063 0.0
C1709 C 0.92042 0.39921 0.39451 0.0
C1710 C 0.92393 0.3913 0.37654 0.0
H1711 H 0.91952 0.39489 0.42461 0.0
H1712 H 0.91745 0.41418 0.39594 0.0
C1713 C 0.92782 0.37178 0.3755 0.0
C1714 C 0.63932 0.92105 0.41115 0.0
C1715 C 0.65871 0.92559 0.41021 0.0
H1716 H 0.61329 0.91682 0.39602 0.0
C1717 C 0.66684 0.92824 0.39218 0.0
H1718 H 0.63252 0.91895 0.42473 0.0
C1719 C 0.65572 0.92724 0.37566 0.0
C1720 C 0.6362 0.92333 0.37666 0.0
H1721 H 0.68168 0.93186 0.39083 0.0
H1722 H 0.66236 0.93004 0.36213 0.0
C1723 C 0.62826 0.91982 0.39462 0.0
C1724 C 0.0994 0.66671 0.39191 0.0
C1725 C 0.10206 0.65858 0.40994 0.0
H1726 H 0.09761 0.66224 0.36186 0.0
C1727 C 0.10663 0.6392 0.41087 0.0
H1728 H 0.09576 0.68154 0.39057 0.0
C1729 C 0.10788 0.62815 0.39434 0.0
C1730 C 0.10436 0.63608 0.37637 0.0
H1731 H 0.10873 0.6324 0.42445 0.0
H1732 H 0.11089 0.61318 0.39573 0.0
C1733 C 0.10042 0.6556 0.37539 0.0
C1734 C 0.39934 0.10737 0.39439 0.0
C1735 C 0.39143 0.10378 0.37643 0.0
H1736 H 0.39504 0.10834 0.42449 0.0
C1737 C 0.37191 0.09984 0.37542 0.0
H1738 H 0.41431 0.11039 0.39579 0.0
C1739 C 0.36078 0.09889 0.39193 0.0
C1740 C 0.36888 0.10162 0.40996 0.0
H1741 H 0.36529 0.09698 0.36189 0.0
H1742 H 0.34594 0.09525 0.39058 0.0
C1743 C 0.38827 0.10618 0.41091 0.0
C1744 C 0.63566 0.92852 0.66665 0.0
C1745 C 0.61763 0.92581 0.65853 0.0
H1746 H 0.66571 0.93037 0.66218 0.0
C1747 C 0.6167 0.9212 0.63916 0.0
H1748 H 0.63699 0.93219 0.68147 0.0
C1749 C 0.63323 0.91996 0.62811 0.0
C1750 C 0.6512 0.92354 0.63604 0.0
H1751 H 0.60311 0.91906 0.63237 0.0
H1752 H 0.63185 0.91692 0.61315 0.0
C1753 C 0.65218 0.92752 0.65555 0.0
C1754 C 0.65194 0.09982 0.37206 0.0
C1755 C 0.65093 0.10372 0.39158 0.0
H1756 H 0.63679 0.09522 0.34609 0.0
C1757 C 0.63295 0.10722 0.3995 0.0
H1758 H 0.66549 0.09702 0.36544 0.0
C1759 C 0.61643 0.106 0.38842 0.0
C1760 C 0.61739 0.10147 0.36903 0.0
H1761 H 0.63154 0.11021 0.41447 0.0
H1762 H 0.60283 0.10809 0.3952 0.0
C1763 C 0.63543 0.09883 0.36093 0.0
C1764 C 0.92875 0.63526 0.36094 0.0
C1765 C 0.92616 0.6172 0.36903 0.0
H1766 H 0.93047 0.66531 0.36548 0.0
C1767 C 0.92167 0.61621 0.38842 0.0
H1768 H 0.93233 0.63664 0.3461 0.0
C1769 C 0.92041 0.63271 0.39952 0.0
C1770 C 0.92385 0.65071 0.39161 0.0
H1771 H 0.91962 0.60261 0.39519 0.0
H1772 H 0.91745 0.63128 0.41449 0.0
C1773 C 0.92773 0.65175 0.37209 0.0
C1774 C 0.41127 0.92112 0.38832 0.0
C1775 C 0.41031 0.92563 0.36893 0.0
H1776 H 0.39615 0.91696 0.41437 0.0
C1777 C 0.39226 0.92827 0.36082 0.0
H1778 H 0.42486 0.91904 0.3951 0.0
C1779 C 0.37575 0.9273 0.37194 0.0
C1780 C 0.37677 0.92343 0.39147 0.0
H1781 H 0.39091 0.93186 0.34597 0.0
H1782 H 0.36221 0.93009 0.36532 0.0
C1783 C 0.39474 0.91992 0.39939 0.0
C1784 C 0.09947 0.39217 0.36053 0.0
C1785 C 0.1021 0.41021 0.36864 0.0
H1786 H 0.09766 0.36212 0.36503 0.0
C1787 C 0.10659 0.41117 0.38804 0.0
H1788 H 0.09589 0.39081 0.34569 0.0
C1789 C 0.10779 0.39465 0.39912 0.0
C1790 C 0.10431 0.37668 0.39119 0.0
H1791 H 0.10867 0.42476 0.39483 0.0
H1792 H 0.11075 0.39606 0.41409 0.0
C1793 C 0.10044 0.37566 0.37166 0.0
C1794 C 0.37582 0.10038 0.65532 0.0
C1795 C 0.37681 0.10427 0.6358 0.0
H1796 H 0.39099 0.09578 0.68127 0.0
C1797 C 0.39478 0.10775 0.62786 0.0
H1798 H 0.36228 0.09761 0.66196 0.0
C1799 C 0.41132 0.10651 0.63891 0.0
C1800 C 0.41038 0.102 0.6583 0.0
H1801 H 0.39618 0.11072 0.61288 0.0
H1802 H 0.42491 0.10859 0.63211 0.0
C1803 C 0.39234 0.09938 0.66643 0.0
C1804 C 0.92738 0.37558 0.65536 0.0
C1805 C 0.92348 0.37656 0.63584 0.0
H1806 H 0.93194 0.39077 0.68131 0.0
C1807 C 0.91994 0.39452 0.6279 0.0
H1808 H 0.93019 0.36205 0.662 0.0
C1809 C 0.92113 0.41105 0.63895 0.0
C1810 C 0.92565 0.41013 0.65834 0.0
H1811 H 0.91696 0.3959 0.61292 0.0
H1812 H 0.91902 0.42463 0.63215 0.0
C1813 C 0.92833 0.3921 0.66647 0.0
C1814 C 0.10629 0.61638 0.63897 0.0
C1815 C 0.10171 0.61734 0.65834 0.0
H1816 H 0.11061 0.6315 0.61295 0.0
C1817 C 0.09908 0.63538 0.66646 0.0
H1818 H 0.10837 0.60279 0.63218 0.0
C1819 C 0.10013 0.6519 0.65534 0.0
C1820 C 0.10409 0.65088 0.63583 0.0
H1821 H 0.09543 0.63674 0.68128 0.0
H1822 H 0.09735 0.66544 0.66197 0.0
C1823 C 0.10758 0.63291 0.62791 0.0
C1824 C 0.12377 0.25521 0.42943 0.0
C1825 C 0.11276 0.24382 0.41725 0.0
H1826 H 0.13117 0.28339 0.4384 0.0
C1827 C 0.10189 0.25274 0.40323 0.0
H1828 H 0.13214 0.24872 0.44053 0.0
C1829 C 0.10101 0.27262 0.40236 0.0
C1830 C 0.11144 0.284 0.41504 0.0
H1831 H 0.09301 0.24442 0.39389 0.0
H1832 H 0.09146 0.27915 0.39228 0.0
C1833 C 0.12334 0.27507 0.42817 0.0
C1834 C 0.77491 0.10039 0.40378 0.0
C1835 C 0.78385 0.11218 0.41701 0.0
H1836 H 0.7485 0.08918 0.39365 0.0
C1837 C 0.77248 0.12389 0.42854 0.0
H1838 H 0.78322 0.09095 0.395 0.0
C1839 C 0.75261 0.12329 0.42743 0.0
C1840 C 0.74366 0.11052 0.41515 0.0
H1841 H 0.779 0.13295 0.43906 0.0
H1842 H 0.7443 0.13174 0.43716 0.0
C1843 C 0.75503 0.09936 0.40308 0.0
C1844 C 0.9037 0.77215 0.42908 0.0
C1845 C 0.91519 0.78355 0.41736 0.0
H1846 H 0.89602 0.74395 0.43778 0.0
C1847 C 0.92673 0.77464 0.40388 0.0
H1848 H 0.89483 0.77864 0.43978 0.0
C1849 C 0.92775 0.75476 0.40312 0.0
C1850 C 0.91681 0.74337 0.41536 0.0
H1851 H 0.936 0.78297 0.39495 0.0
H1852 H 0.93776 0.74826 0.39349 0.0
C1853 C 0.90428 0.75229 0.4279 0.0
C1854 C 0.25525 0.90346 0.42877 0.0
C1855 C 0.24386 0.91501 0.41708 0.0
H1856 H 0.28344 0.89573 0.43747 0.0
C1857 C 0.25279 0.92659 0.40366 0.0
H1858 H 0.24874 0.89457 0.43944 0.0
C1859 C 0.27268 0.92759 0.40292 0.0
C1860 C 0.28405 0.91661 0.41514 0.0
H1861 H 0.24448 0.93589 0.39476 0.0
H1862 H 0.2792 0.93764 0.39334 0.0
C1863 C 0.27512 0.90404 0.42762 0.0
C1864 C 0.12395 0.75252 0.60007 0.0
C1865 C 0.11109 0.74359 0.61227 0.0
H1866 H 0.13374 0.7789 0.58853 0.0
C1867 C 0.0999 0.75497 0.6243 0.0
H1868 H 0.13243 0.7442 0.59037 0.0
C1869 C 0.10099 0.77484 0.62364 0.0
C1870 C 0.11288 0.78377 0.61049 0.0
H1871 H 0.08965 0.74846 0.63367 0.0
H1872 H 0.09153 0.78317 0.63238 0.0
C1873 C 0.12461 0.77239 0.599 0.0
C1874 C 0.2528 0.10125 0.62367 0.0
C1875 C 0.24387 0.1127 0.61014 0.0
H1876 H 0.2792 0.0903 0.63411 0.0
C1877 C 0.25525 0.12415 0.59837 0.0
H1878 H 0.24448 0.09201 0.63266 0.0
C1879 C 0.27512 0.12361 0.59954 0.0
C1880 C 0.28406 0.11115 0.61215 0.0
H1881 H 0.24874 0.13296 0.58763 0.0
H1882 H 0.28344 0.13183 0.58963 0.0
C1883 C 0.27268 0.10026 0.62444 0.0
C1884 C 0.90407 0.2749 0.59969 0.0
C1885 C 0.91664 0.28382 0.6122 0.0
H1886 H 0.89459 0.24855 0.58783 0.0
C1887 C 0.92761 0.27242 0.6244 0.0
H1888 H 0.89578 0.28324 0.58985 0.0
C1889 C 0.9266 0.25254 0.62364 0.0
C1890 C 0.91502 0.24364 0.6102 0.0
H1891 H 0.93766 0.27892 0.634 0.0
H1892 H 0.93589 0.24421 0.63255 0.0
C1893 C 0.90349 0.25504 0.59851 0.0
C1894 C 0.7728 0.90284 0.6001 0.0
C1895 C 0.78417 0.91506 0.61107 0.0
H1896 H 0.7446 0.89466 0.5918 0.0
C1897 C 0.77523 0.92756 0.62362 0.0
H1898 H 0.77932 0.89324 0.59007 0.0
C1899 C 0.75536 0.92872 0.62419 0.0
C1900 C 0.74398 0.91702 0.61266 0.0
H1901 H 0.78356 0.93742 0.63192 0.0
H1902 H 0.74885 0.93939 0.63308 0.0
C1903 C 0.75291 0.90358 0.6011 0.0
C1904 C 0.42653 0.12365 0.27481 0.0
C1905 C 0.41494 0.11022 0.28371 0.0
H1906 H 0.43761 0.13401 0.24843 0.0
C1907 C 0.4034 0.09855 0.27231 0.0
H1908 H 0.43583 0.13256 0.28314 0.0
C1909 C 0.40399 0.09972 0.25244 0.0
C1910 C 0.41658 0.11222 0.24353 0.0
H1911 H 0.39449 0.08788 0.27879 0.0
H1912 H 0.39569 0.08988 0.2441 0.0
C1913 C 0.42755 0.12442 0.25493 0.0
C1914 C 0.90344 0.42819 0.25512 0.0
C1915 C 0.91525 0.41681 0.2437 0.0
H1916 H 0.89559 0.43669 0.28334 0.0
C1917 C 0.92725 0.40373 0.25259 0.0
H1918 H 0.89423 0.4386 0.24864 0.0
C1919 C 0.92837 0.40303 0.27246 0.0
C1920 C 0.9171 0.41495 0.28387 0.0
H1921 H 0.93677 0.39508 0.24424 0.0
H1922 H 0.9387 0.39372 0.27893 0.0
C1923 C 0.90414 0.42707 0.27499 0.0
C1924 C 0.59987 0.90397 0.27502 0.0
C1925 C 0.61249 0.91642 0.28394 0.0
H1926 H 0.58792 0.89461 0.24867 0.0
C1927 C 0.62477 0.92731 0.27255 0.0
H1928 H 0.58996 0.89574 0.28335 0.0
C1929 C 0.62398 0.92633 0.25268 0.0
C1930 C 0.61044 0.91487 0.24376 0.0
H1931 H 0.63445 0.93727 0.27907 0.0
H1932 H 0.63296 0.93556 0.24435 0.0
C1933 C 0.59868 0.90342 0.25516 0.0
C1934 C 0.10136 0.62385 0.25239 0.0
C1935 C 0.11276 0.61027 0.24347 0.0
H1936 H 0.09047 0.63437 0.27878 0.0
C1937 C 0.12418 0.59847 0.25486 0.0
H1938 H 0.09215 0.63286 0.24407 0.0
C1939 C 0.12366 0.59968 0.27472 0.0
C1940 C 0.11126 0.61235 0.28365 0.0
H1941 H 0.13295 0.58769 0.24837 0.0
H1942 H 0.13186 0.58975 0.28305 0.0
C1943 C 0.1004 0.62466 0.27226 0.0
C1944 C 0.40418 0.9278 0.77485 0.0
C1945 C 0.41683 0.91536 0.78376 0.0
H1946 H 0.39462 0.93959 0.7485 0.0
C1947 C 0.42785 0.90321 0.77236 0.0
H1948 H 0.39584 0.9376 0.78319 0.0
C1949 C 0.42681 0.90396 0.75249 0.0
C1950 C 0.41515 0.91733 0.74358 0.0
H1951 H 0.43795 0.89366 0.77886 0.0
H1952 H 0.43615 0.8951 0.74415 0.0
C1953 C 0.40358 0.92896 0.75498 0.0
C1954 C 0.12378 0.42907 0.77199 0.0
C1955 C 0.11232 0.41734 0.7834 0.0
H1956 H 0.13145 0.43773 0.74378 0.0
C1957 C 0.10083 0.40381 0.77452 0.0
H1958 H 0.13262 0.43981 0.77846 0.0
C1959 C 0.09983 0.403 0.75464 0.0
C1960 C 0.11073 0.41524 0.74323 0.0
H1961 H 0.09159 0.39486 0.78286 0.0
H1962 H 0.08984 0.39332 0.74815 0.0
C1963 C 0.12322 0.42785 0.75213 0.0
C1964 C 0.60189 0.12408 0.75272 0.0
C1965 C 0.61297 0.11023 0.7438 0.0
H1966 H 0.59126 0.13487 0.77911 0.0
C1967 C 0.62413 0.09819 0.7552 0.0
H1968 H 0.59289 0.1333 0.74439 0.0
C1969 C 0.62365 0.09942 0.77506 0.0
C1970 C 0.61155 0.11238 0.78398 0.0
H1971 H 0.63265 0.0872 0.74872 0.0
H1972 H 0.63162 0.08931 0.78339 0.0
C1973 C 0.60096 0.12493 0.77259 0.0
C1974 C 0.9295 0.62377 0.75525 0.0
C1975 C 0.91728 0.61281 0.74386 0.0
H1976 H 0.93846 0.63117 0.78344 0.0
C1977 C 0.90319 0.60202 0.75277 0.0
H1978 H 0.94066 0.63208 0.74877 0.0
C1979 C 0.90228 0.60118 0.77265 0.0
C1980 C 0.915 0.61157 0.78404 0.0
H1981 H 0.89382 0.59318 0.74445 0.0
H1982 H 0.89215 0.59169 0.77918 0.0
C1983 C 0.92821 0.62338 0.77511 0.0
C1984 C 0.25486 0.42599 0.12433 0.0
C1985 C 0.24348 0.41582 0.11143 0.0
H1986 H 0.28307 0.43379 0.13298 0.0
C1987 C 0.25242 0.40422 0.09805 0.0
H1988 H 0.24833 0.43532 0.1346 0.0
C1989 C 0.27228 0.4038 0.09679 0.0
C1990 C 0.28367 0.41455 0.1092 0.0
H1991 H 0.24409 0.39661 0.08765 0.0
H1992 H 0.27876 0.39566 0.08552 0.0
C1993 C 0.27475 0.42512 0.12345 0.0
C1994 C 0.25213 0.62318 0.92855 0.0
C1995 C 0.24321 0.61149 0.91523 0.0
H1996 H 0.27847 0.63181 0.94106 0.0
C1997 C 0.25461 0.60125 0.9024 0.0
H1998 H 0.24379 0.63085 0.93889 0.0
C1999 C 0.2745 0.60213 0.9033 0.0
C2000 C 0.2834 0.61279 0.91749 0.0
H2001 H 0.24809 0.59185 0.89218 0.0
H2002 H 0.28283 0.59341 0.89383 0.0
C2003 C 0.27199 0.62361 0.92983 0.0
C2004 C 0.40381 0.25272 0.92554 0.0
C2005 C 0.4178 0.24381 0.91462 0.0
H2006 H 0.39288 0.27912 0.93601 0.0
C2007 C 0.42993 0.2552 0.90357 0.0
H2008 H 0.39452 0.24439 0.93446 0.0
C2009 C 0.42866 0.27506 0.90401 0.0
C2010 C 0.41557 0.28399 0.91595 0.0
H2011 H 0.44101 0.24872 0.89517 0.0
H2012 H 0.43885 0.2834 0.89614 0.0
C2013 C 0.40293 0.2726 0.92643 0.0
C2014 C 0.77478 0.40401 0.92574 0.0
C2015 C 0.78369 0.41804 0.91488 0.0
H2016 H 0.74837 0.39307 0.9362 0.0
C2017 C 0.77229 0.43025 0.90392 0.0
H2018 H 0.78311 0.39465 0.93458 0.0
C2019 C 0.75243 0.42902 0.90439 0.0
C2020 C 0.74351 0.41587 0.91627 0.0
H2021 H 0.77878 0.44136 0.89556 0.0
H2022 H 0.7441 0.43926 0.89659 0.0
C2023 C 0.75489 0.40316 0.92666 0.0
C2024 C 0.60201 0.77288 0.90253 0.0
C2025 C 0.61169 0.78427 0.91578 0.0
H2026 H 0.59445 0.74466 0.8937 0.0
C2027 C 0.62265 0.77535 0.92971 0.0
H2028 H 0.59314 0.7794 0.89185 0.0
C2029 C 0.62291 0.7555 0.93109 0.0
C2030 C 0.61264 0.74409 0.91829 0.0
H2031 H 0.62984 0.7837 0.94038 0.0
H2032 H 0.63055 0.74905 0.94272 0.0
C2033 C 0.60274 0.75299 0.90356 0.0
C2034 C 0.75232 0.59918 0.12365 0.0
C2035 C 0.74338 0.61219 0.11163 0.0
H2036 H 0.77868 0.58695 0.1326 0.0
C2037 C 0.75475 0.62481 0.10112 0.0
H2038 H 0.74399 0.58901 0.13156 0.0
C2039 C 0.77464 0.624 0.10205 0.0
C2040 C 0.78357 0.61009 0.11305 0.0
H2041 H 0.74822 0.6348 0.09148 0.0
H2042 H 0.78295 0.63327 0.09311 0.0
C2043 C 0.77219 0.59797 0.12414 0.0
C2044 C 0.42784 0.75257 0.12332 0.0
C2045 C 0.41506 0.74365 0.11103 0.0
H2046 H 0.43992 0.77893 0.13249 0.0
C2047 C 0.40266 0.75503 0.10027 0.0
H2048 H 0.43784 0.74424 0.13143 0.0
C2049 C 0.40348 0.77491 0.10121 0.0
C2050 C 0.41717 0.78383 0.11249 0.0
H2051 H 0.39285 0.74851 0.09044 0.0
H2052 H 0.3944 0.78323 0.09208 0.0
C2053 C 0.42906 0.77244 0.12382 0.0
C2054 C 0.59943 0.25508 0.12443 0.0
C2055 C 0.61073 0.24368 0.11252 0.0
H2056 H 0.59095 0.28328 0.13235 0.0
C2057 C 0.62367 0.25259 0.1004 0.0
H2058 H 0.58912 0.24858 0.13373 0.0
C2059 C 0.62431 0.27246 0.09926 0.0
C2060 C 0.61247 0.28386 0.11063 0.0
H2061 H 0.63225 0.24425 0.0908 0.0
H2062 H 0.63351 0.27895 0.08884 0.0
C2063 C 0.60049 0.27495 0.12371 0.0
C2064 C 0.95353 0.77351 0.57709 0.0
C2065 C 0.9672 0.78346 0.56651 0.0
H2066 H 0.94021 0.74674 0.58279 0.0
C2067 C 0.97787 0.77338 0.55304 0.0
H2068 H 0.94503 0.78078 0.58758 0.0
C2069 C 0.97494 0.75402 0.55013 0.0
C2070 C 0.9614 0.74398 0.56074 0.0
H2071 H 0.98845 0.78048 0.54451 0.0
H2072 H 0.98352 0.74688 0.53961 0.0
C2073 C 0.95075 0.75397 0.57434 0.0
C2074 C 0.25409 0.95342 0.57685 0.0
C2075 C 0.24411 0.9671 0.56629 0.0
H2076 H 0.28089 0.94015 0.58254 0.0
C2077 C 0.25418 0.97782 0.55286 0.0
H2078 H 0.24683 0.94488 0.58731 0.0
C2079 C 0.27355 0.97495 0.54996 0.0
C2080 C 0.28361 0.96139 0.56055 0.0
H2081 H 0.24706 0.98841 0.54435 0.0
H2082 H 0.28068 0.98356 0.53947 0.0
C2083 C 0.27363 0.9507 0.57411 0.0
C2084 C 0.05018 0.25392 0.55235 0.0
C2085 C 0.06073 0.2439 0.56596 0.0
H2086 H 0.0446 0.28037 0.53882 0.0
C2087 C 0.07426 0.2539 0.57667 0.0
H2088 H 0.03972 0.24677 0.54371 0.0
C2089 C 0.07701 0.27344 0.57392 0.0
C2090 C 0.06648 0.28338 0.5602 0.0
H2091 H 0.08266 0.24667 0.58726 0.0
H2092 H 0.08744 0.28072 0.58248 0.0
C2093 C 0.05308 0.27328 0.54944 0.0
C2094 C 0.77359 0.04985 0.5528 0.0
C2095 C 0.78365 0.06046 0.56633 0.0
H2096 H 0.7471 0.04423 0.53934 0.0
C2097 C 0.77368 0.07406 0.57698 0.0
H2098 H 0.78071 0.03933 0.54422 0.0
C2099 C 0.75414 0.07682 0.57424 0.0
C2100 C 0.74416 0.06623 0.56059 0.0
H2101 H 0.78094 0.08252 0.58751 0.0
H2102 H 0.74688 0.08731 0.58275 0.0
C2103 C 0.75423 0.05276 0.54991 0.0
C2104 C 0.95341 0.25366 0.45038 0.0
C2105 C 0.96693 0.24364 0.46108 0.0
H2106 H 0.94027 0.2805 0.44456 0.0
C2107 C 0.9775 0.25366 0.47468 0.0
H2108 H 0.94499 0.24644 0.43979 0.0
C2109 C 0.97464 0.27303 0.47757 0.0
C2110 C 0.96125 0.28314 0.46682 0.0
H2111 H 0.98797 0.2465 0.48331 0.0
H2112 H 0.98314 0.28011 0.48819 0.0
C2113 C 0.9507 0.2732 0.45312 0.0
C2114 C 0.75412 0.95032 0.4534 0.0
C2115 C 0.74416 0.96089 0.46708 0.0
H2116 H 0.78091 0.94462 0.44012 0.0
C2117 C 0.75424 0.9743 0.47782 0.0
H2118 H 0.74684 0.93988 0.44485 0.0
C2119 C 0.77362 0.97718 0.47495 0.0
C2120 C 0.78366 0.96659 0.46139 0.0
H2121 H 0.74714 0.98281 0.48842 0.0
H2122 H 0.78076 0.98765 0.48357 0.0
C2123 C 0.77367 0.95305 0.45068 0.0
C2124 C 0.0504 0.77338 0.47481 0.0
C2125 C 0.06096 0.78345 0.46125 0.0
H2126 H 0.04482 0.74689 0.48827 0.0
C2127 C 0.07451 0.77348 0.45052 0.0
H2128 H 0.03992 0.7805 0.48346 0.0
C2129 C 0.07726 0.75393 0.45322 0.0
C2130 C 0.06672 0.74395 0.46691 0.0
H2131 H 0.08291 0.78074 0.43996 0.0
H2132 H 0.0877 0.74668 0.44466 0.0
C2133 C 0.05331 0.75401 0.47767 0.0
C2134 C 0.2539 0.07424 0.45043 0.0
C2135 C 0.24393 0.0606 0.46104 0.0
H2136 H 0.2807 0.0875 0.44471 0.0
C2137 C 0.25399 0.04993 0.47451 0.0
H2138 H 0.24664 0.08274 0.43994 0.0
C2139 C 0.27336 0.05282 0.47741 0.0
C2140 C 0.28342 0.06634 0.46678 0.0
H2141 H 0.24687 0.03938 0.48306 0.0
H2142 H 0.28048 0.04425 0.48794 0.0
C2143 C 0.27344 0.07698 0.45318 0.0
C2144 C 0.57443 0.95065 0.75387 0.0
C2145 C 0.56087 0.96134 0.74388 0.0
H2146 H 0.58764 0.94486 0.78068 0.0
C2147 C 0.5503 0.97492 0.75392 0.0
H2148 H 0.58285 0.94008 0.74663 0.0
C2149 C 0.55321 0.97782 0.77328 0.0
C2150 C 0.56664 0.9671 0.78336 0.0
H2151 H 0.53981 0.98354 0.74678 0.0
H2152 H 0.54471 0.98843 0.78038 0.0
C2153 C 0.57718 0.9534 0.77341 0.0
C2154 C 0.07674 0.57436 0.75371 0.0
C2155 C 0.06618 0.56066 0.74377 0.0
H2156 H 0.0824 0.58771 0.78048 0.0
C2157 C 0.05272 0.54998 0.75384 0.0
H2158 H 0.08723 0.58286 0.74645 0.0
C2159 C 0.04979 0.55293 0.77319 0.0
C2160 C 0.06037 0.5665 0.78323 0.0
H2161 H 0.04421 0.53938 0.74675 0.0
H2162 H 0.03927 0.54434 0.78032 0.0
C2163 C 0.07396 0.57715 0.77324 0.0
C2164 C 0.45361 0.07719 0.7537 0.0
C2165 C 0.46713 0.06646 0.74369 0.0
H2166 H 0.44046 0.08301 0.78053 0.0
C2167 C 0.47767 0.05285 0.75371 0.0
H2168 H 0.44521 0.08778 0.74648 0.0
C2169 C 0.47479 0.04995 0.77307 0.0
C2170 C 0.46141 0.06072 0.78318 0.0
H2171 H 0.48813 0.04421 0.74656 0.0
H2172 H 0.48328 0.03933 0.78016 0.0
C2173 C 0.45088 0.07444 0.77324 0.0
C2174 C 0.97416 0.47801 0.75382 0.0
C2175 C 0.96083 0.46717 0.74374 0.0
H2176 H 0.98746 0.48389 0.78033 0.0
C2177 C 0.95035 0.45343 0.75371 0.0
H2178 H 0.9826 0.48865 0.74671 0.0
C2179 C 0.95308 0.45076 0.77326 0.0
C2180 C 0.96655 0.46156 0.78325 0.0
H2181 H 0.93996 0.4448 0.74645 0.0
H2182 H 0.94471 0.44015 0.78051 0.0
C2183 C 0.97705 0.47518 0.77319 0.0
C2184 C 0.55299 0.04971 0.25411 0.0
C2185 C 0.56641 0.06046 0.24404 0.0
H2186 H 0.53962 0.04393 0.2806 0.0
C2187 C 0.57696 0.07414 0.25402 0.0
H2188 H 0.54449 0.03912 0.24699 0.0
C2189 C 0.57422 0.07685 0.27356 0.0
C2190 C 0.56067 0.06613 0.28353 0.0
H2191 H 0.5874 0.0827 0.24676 0.0
H2192 H 0.58264 0.08741 0.28082 0.0
C2193 C 0.5501 0.05257 0.27347 0.0
C2194 C 0.95347 0.5769 0.25393 0.0
C2195 C 0.96715 0.56636 0.24394 0.0
H2196 H 0.94021 0.58256 0.28074 0.0
C2197 C 0.97791 0.55294 0.25399 0.0
H2198 H 0.94491 0.58735 0.24669 0.0
C2199 C 0.97506 0.55003 0.27336 0.0
C2200 C 0.9615 0.56059 0.28343 0.0
H2201 H 0.9885 0.54445 0.24686 0.0
H2202 H 0.9837 0.53955 0.28047 0.0
C2203 C 0.95077 0.57415 0.27347 0.0
C2204 C 0.4506 0.95317 0.25396 0.0
C2205 C 0.46127 0.96675 0.24398 0.0
H2206 H 0.44484 0.93994 0.28077 0.0
C2207 C 0.47484 0.97733 0.25401 0.0
H2208 H 0.44003 0.94474 0.24673 0.0
C2209 C 0.47776 0.97442 0.27337 0.0
C2210 C 0.46705 0.96097 0.28345 0.0
H2211 H 0.48344 0.98783 0.24688 0.0
H2212 H 0.48835 0.98293 0.28047 0.0
C2213 C 0.45336 0.95041 0.2735 0.0
C2214 C 0.07727 0.45327 0.27321 0.0
C2215 C 0.06674 0.46698 0.28317 0.0
H2216 H 0.0829 0.43992 0.24644 0.0
C2217 C 0.05331 0.47771 0.27309 0.0
H2218 H 0.08773 0.44472 0.28048 0.0
C2219 C 0.05039 0.4748 0.25374 0.0
C2220 C 0.06093 0.4612 0.2437 0.0
H2221 H 0.04483 0.48833 0.28019 0.0
H2222 H 0.0399 0.48342 0.24661 0.0
C2223 C 0.0745 0.45051 0.25368 0.0
C2224 C 0.75409 0.5503 0.97497 0.0
C2225 C 0.74402 0.56097 0.96149 0.0
H2226 H 0.78058 0.54462 0.9884 0.0
C2227 C 0.75399 0.57461 0.95089 0.0
H2228 H 0.74697 0.53975 0.98352 0.0
C2229 C 0.77354 0.57734 0.95363 0.0
C2230 C 0.78352 0.5667 0.96723 0.0
H2231 H 0.74674 0.5831 0.94039 0.0
H2232 H 0.78079 0.58786 0.94516 0.0
C2233 C 0.77346 0.55319 0.97787 0.0
C2234 C 0.77356 0.47471 0.05007 0.0
C2235 C 0.78365 0.46124 0.06074 0.0
H2236 H 0.74705 0.48811 0.04441 0.0
C2237 C 0.7737 0.45064 0.07439 0.0
H2238 H 0.78066 0.48326 0.0395 0.0
C2239 C 0.75415 0.45336 0.07714 0.0
C2240 C 0.74415 0.46695 0.06651 0.0
H2241 H 0.78097 0.44015 0.08288 0.0
H2242 H 0.74691 0.44489 0.08767 0.0
C2243 C 0.75419 0.47759 0.05298 0.0
C2244 C 0.55012 0.75406 0.0528 0.0
C2245 C 0.56062 0.74403 0.06643 0.0
H2246 H 0.54461 0.7805 0.03922 0.0
C2247 C 0.57417 0.75403 0.07714 0.0
H2248 H 0.53964 0.74692 0.04416 0.0
C2249 C 0.57696 0.77356 0.07436 0.0
C2250 C 0.56647 0.7835 0.06061 0.0
H2251 H 0.58254 0.7468 0.08776 0.0
H2252 H 0.58739 0.78083 0.08292 0.0
C2253 C 0.55306 0.77341 0.04986 0.0
C2254 C 0.27371 0.57408 0.07671 0.0
C2255 C 0.28369 0.56048 0.06607 0.0
H2256 H 0.24691 0.58733 0.08247 0.0
C2257 C 0.27363 0.54986 0.05254 0.0
H2258 H 0.28096 0.58254 0.08724 0.0
C2259 C 0.25427 0.55277 0.04964 0.0
C2260 C 0.2442 0.56624 0.06032 0.0
H2261 H 0.28076 0.53933 0.04397 0.0
H2262 H 0.24715 0.54423 0.03908 0.0
C2263 C 0.25417 0.57684 0.07397 0.0
C2264 C 0.47467 0.25383 0.04964 0.0
C2265 C 0.46123 0.24376 0.06037 0.0
H2266 H 0.48803 0.28033 0.04389 0.0
C2267 C 0.45064 0.25373 0.07402 0.0
H2268 H 0.4832 0.24671 0.03907 0.0
C2269 C 0.45336 0.27328 0.07672 0.0
C2270 C 0.46692 0.28326 0.06603 0.0
H2271 H 0.44018 0.24646 0.08256 0.0
H2272 H 0.44491 0.28053 0.08726 0.0
C2273 C 0.47754 0.2732 0.0525 0.0
C2274 C 0.25423 0.47438 0.97728 0.0
C2275 C 0.24413 0.46103 0.96647 0.0
H2276 H 0.28074 0.48772 0.98308 0.0
C2277 C 0.25409 0.45055 0.95272 0.0
H2278 H 0.24713 0.48283 0.98792 0.0
C2279 C 0.27364 0.45329 0.95 0.0
C2280 C 0.28363 0.46679 0.96077 0.0
H2281 H 0.24681 0.44015 0.94412 0.0
H2282 H 0.28087 0.44493 0.93939 0.0
C2283 C 0.2736 0.47729 0.9744 0.0
C2284 C 0.55042 0.27349 0.97482 0.0
C2285 C 0.56095 0.28351 0.9612 0.0
H2286 H 0.54487 0.24704 0.98838 0.0
C2287 C 0.5745 0.27352 0.9505 0.0
H2288 H 0.53994 0.28063 0.98344 0.0
C2289 C 0.57727 0.25398 0.95328 0.0
C2290 C 0.56675 0.24404 0.96701 0.0
H2291 H 0.58289 0.28075 0.9399 0.0
H2292 H 0.58771 0.24671 0.94473 0.0
C2293 C 0.55335 0.25413 0.97774 0.0
C2294 C 0.45043 0.77357 0.95318 0.0
C2295 C 0.46103 0.78353 0.96684 0.0
H2296 H 0.44466 0.74678 0.93994 0.0
C2297 C 0.47444 0.77343 0.97757 0.0
H2298 H 0.43998 0.78086 0.94464 0.0
C2299 C 0.47728 0.75406 0.97471 0.0
C2300 C 0.46666 0.74402 0.96118 0.0
H2301 H 0.48298 0.78053 0.98814 0.0
H2302 H 0.48776 0.74691 0.98333 0.0
C2303 C 0.45312 0.75402 0.95048 0.0
C2304 C 0.03603 0.18312 0.42416 0.0
C2305 C 0.04119 0.20233 0.42539 0.0
H2306 H 1.01334 0.16285 0.42389 0.0
C2307 C 0.02672 0.21605 0.42414 0.0
H2308 H 0.04669 0.17215 0.4253 0.0
C2309 C 1.00758 0.21065 0.42268 0.0
C2310 C 1.00244 0.19143 0.42289 0.0
H2311 H 0.03013 0.23096 0.42512 0.0
H2312 H 0.99674 0.22151 0.42289 0.0
C2313 C 0.0169 0.17776 0.42328 0.0
C2314 C 0.84441 0.03566 0.42454 0.0
C2315 C 0.8252 0.04086 0.42566 0.0
H2316 H 0.86463 1.01292 0.4244 0.0
C2317 C 0.81145 0.02642 0.42436 0.0
H2318 H 0.8554 0.04628 0.42571 0.0
C2319 C 0.81681 1.00727 0.42297 0.0
C2320 C 0.83602 1.00209 0.42328 0.0
H2321 H 0.79654 0.02987 0.42527 0.0
H2322 H 0.80593 0.99646 0.42314 0.0
C2323 C 0.84973 0.01651 0.42371 0.0
C2324 C 1.001 0.81118 0.42442 0.0
C2325 C 0.98656 0.82492 0.42574 0.0
H2326 H 0.03097 0.80567 0.42313 0.0
C2327 C 0.99175 0.84413 0.42454 0.0
H2328 H 0.99757 0.79627 0.42538 0.0
C2329 C 1.01089 0.84946 0.42365 0.0
C2330 C 0.02532 0.83576 0.4232 0.0
H2331 H 0.98111 0.85511 0.42572 0.0
H2332 H 0.01448 0.86436 0.42429 0.0
C2333 C 0.02015 0.81655 0.42296 0.0
C2334 C 0.18325 0.99156 0.42425 0.0
C2335 C 0.20247 0.98638 0.42542 0.0
H2336 H 0.16301 0.01428 0.42403 0.0
C2337 C 0.2162 1.00083 0.42408 0.0
H2338 H 0.17227 0.98093 0.42546 0.0
C2339 C 0.21082 0.01997 0.42262 0.0
C2340 C 0.19161 0.02513 0.4229 0.0
H2341 H 0.23112 0.9974 0.42501 0.0
H2342 H 0.2217 0.03079 0.42277 0.0
C2343 C 0.17791 1.0107 0.42336 0.0
C2344 C 0.01721 0.84953 0.60416 0.0
C2345 C 1.0028 0.83581 0.60459 0.0
H2346 H 0.04698 0.85523 0.60208 0.0
C2347 C 1.008 0.8166 0.60482 0.0
H2348 H 1.01361 0.86442 0.60353 0.0
C2349 C 0.02715 0.81126 0.60335 0.0
C2350 C 0.04158 0.82502 0.60205 0.0
H2351 H 0.99719 0.80571 0.60465 0.0
H2352 H 0.03061 0.79635 0.60239 0.0
C2353 C 0.03636 0.84422 0.60326 0.0
C2354 C 0.21632 0.02685 0.60318 0.0
C2355 C 0.20256 0.04128 0.60186 0.0
H2356 H 0.22186 0.9969 0.60448 0.0
C2357 C 0.18336 0.03607 0.60307 0.0
H2358 H 0.23123 0.0303 0.60222 0.0
C2359 C 0.17805 0.01693 0.60397 0.0
C2360 C 0.19176 1.00252 0.60441 0.0
H2361 H 0.17235 0.04669 0.60188 0.0
H2362 H 0.16315 1.01332 0.60333 0.0
C2363 C 0.21097 1.0077 0.60466 0.0
C2364 C 0.01996 0.21083 0.6044 0.0
C2365 C 0.02516 0.19163 0.60422 0.0
H2366 H 0.99735 0.23107 0.60195 0.0
C2367 C 1.01076 0.17791 0.60386 0.0
H2368 H 0.03076 0.22172 0.60417 0.0
C2369 C 0.9916 0.1832 0.60298 0.0
C2370 C 0.98638 0.2024 0.60172 0.0
H2371 H 0.01437 0.16301 0.60327 0.0
H2372 H 0.98099 0.17219 0.60185 0.0
C2373 C 1.0008 0.21616 0.60295 0.0
C2374 C 0.81689 0.01975 0.60481 0.0
C2375 C 0.83609 0.02496 0.60448 0.0
H2376 H 0.79665 0.99711 0.60255 0.0
C2377 C 0.84983 1.01057 0.60403 0.0
H2378 H 0.80599 0.03054 0.60465 0.0
C2379 C 0.84454 0.99141 0.60322 0.0
C2380 C 0.82534 0.98617 0.60211 0.0
H2381 H 0.86472 0.01419 0.60333 0.0
H2382 H 0.85556 0.98081 0.60203 0.0
C2383 C 0.81157 1.00058 0.60343 0.0
C2384 C 0.42416 0.0267 0.21616 0.0
C2385 C 0.42548 0.04112 0.2024 0.0
H2386 H 0.42293 0.99675 0.22173 0.0
C2387 C 0.42434 0.03588 0.1832 0.0
H2388 H 0.42507 0.03017 0.23107 0.0
C2389 C 0.42349 0.01673 0.17791 0.0
C2390 C 0.42305 1.00233 0.19164 0.0
H2391 H 0.42552 0.04649 0.17219 0.0
H2392 H 0.42418 1.01312 0.16302 0.0
C2393 C 0.42275 1.00754 0.21084 0.0
C2394 C 1.01076 0.4234 0.17783 0.0
C2395 C 0.02521 0.423 0.19151 0.0
H2396 H 0.98098 0.42543 0.1722 0.0
C2397 C 0.02006 0.42278 0.21073 0.0
H2398 H 0.01433 0.42403 0.16293 0.0
C2399 C 1.00092 0.42422 0.21611 0.0
C2400 C 0.98646 0.42549 0.20239 0.0
H2401 H 0.0309 0.42298 0.22159 0.0
H2402 H 0.9975 0.42519 0.23103 0.0
C2403 C 0.99163 0.42428 0.18318 0.0
C2404 C 0.60333 1.0007 0.21619 0.0
C2405 C 0.60199 0.98627 0.20244 0.0
H2406 H 0.60463 0.03065 0.22173 0.0
C2407 C 0.60312 0.99149 0.18324 0.0
H2408 H 0.60243 0.99724 0.2311 0.0
C2409 C 0.60399 1.01063 0.17793 0.0
C2410 C 0.60446 0.02504 0.19164 0.0
H2411 H 0.60191 0.98087 0.17224 0.0
H2412 H 0.60329 0.01424 0.16304 0.0
C2413 C 0.60477 0.01985 0.21084 0.0
C2414 C 0.03606 0.60304 0.183 0.0
C2415 C 0.04131 0.60192 0.20219 0.0
H2416 H 1.01327 0.60321 0.16284 0.0
C2417 C 0.02691 0.6033 0.21596 0.0
H2418 H 0.04666 0.6018 0.17198 0.0
C2419 C 1.00774 0.60475 0.21065 0.0
C2420 C 1.00251 0.60443 0.19146 0.0
H2421 H 0.03039 0.60241 0.23087 0.0
H2422 H 0.99696 0.60463 0.22156 0.0
C2423 C 0.0169 0.60392 0.17772 0.0
C2424 C 0.42436 1.00087 0.81118 0.0
C2425 C 0.42575 0.98647 0.82495 0.0
H2426 H 0.4231 0.03082 0.8056 0.0
C2427 C 0.42474 0.99172 0.84415 0.0
H2428 H 0.42518 0.99739 0.79628 0.0
C2429 C 0.42394 1.01087 0.84943 0.0
C2430 C 0.42342 0.02526 0.83569 0.0
H2431 H 0.42599 0.98111 0.85516 0.0
H2432 H 0.42472 0.0145 0.86431 0.0
C2433 C 0.423 0.02003 0.8165 0.0
C2434 C 0.03577 0.4249 0.84403 0.0
C2435 C 0.04097 0.42598 0.82482 0.0
H2436 H 1.01303 0.42481 0.86425 0.0
C2437 C 0.02653 0.42464 0.81108 0.0
H2438 H 0.04641 0.42611 0.85501 0.0
C2439 C 1.00737 0.42326 0.81645 0.0
C2440 C 1.0022 0.42361 0.83565 0.0
H2441 H 0.02997 0.42551 0.79617 0.0
H2442 H 0.99656 0.4234 0.80557 0.0
C2443 C 0.01662 0.42408 0.84935 0.0
C2444 C 0.60375 0.02699 0.81131 0.0
C2445 C 0.60239 0.0414 0.82507 0.0
H2446 H 0.60498 0.99704 0.80573 0.0
C2447 C 0.60341 0.03616 0.84427 0.0
H2448 H 0.60293 0.03047 0.7964 0.0
C2449 C 0.6042 0.01701 0.84956 0.0
C2450 C 0.6047 1.00262 0.83583 0.0
H2451 H 0.60219 0.04677 0.85528 0.0
H2452 H 0.60344 1.01338 0.86444 0.0
C2453 C 0.60511 1.00783 0.81663 0.0
C2454 C 1.01036 0.60426 0.84941 0.0
C2455 C 0.02472 0.6047 0.83565 0.0
H2456 H 0.9806 0.60228 0.8552 0.0
C2457 C 0.01947 0.60501 0.81646 0.0
H2458 H 0.01401 0.60356 0.86429 0.0
C2459 C 1.00029 0.60364 0.81118 0.0
C2460 C 0.9859 0.60234 0.82498 0.0
H2461 H 0.03023 0.60484 0.80554 0.0
H2462 H 0.99678 0.60276 0.79628 0.0
C2463 C 0.99119 0.60345 0.84417 0.0
C2464 C 0.21606 0.42378 0.02623 0.0
C2465 C 0.2023 0.42525 0.04063 0.0
H2466 H 0.22164 0.4225 0.99628 0.0
C2467 C 0.18309 0.42438 0.03538 0.0
H2468 H 0.23098 0.42448 0.02971 0.0
C2469 C 0.1778 0.42363 0.01623 0.0
C2470 C 0.19154 0.42303 1.00184 0.0
H2471 H 0.17208 0.42569 0.04598 0.0
H2472 H 0.16292 0.42451 1.0126 0.0
C2473 C 0.21073 0.42247 1.00706 0.0
C2474 C 0.183 0.60295 0.99135 0.0
C2475 C 0.20219 0.60203 0.98605 0.0
H2476 H 0.16289 0.60286 0.01418 0.0
C2477 C 0.216 0.60346 1.00042 0.0
H2478 H 0.17196 0.60167 0.98078 0.0
C2479 C 0.21072 0.60478 0.0196 0.0
C2480 C 0.19154 0.60427 0.02487 0.0
H2481 H 0.23091 0.60273 0.99691 0.0
H2482 H 0.22165 0.60471 0.03036 0.0
C2483 C 0.17776 0.6037 1.01052 0.0
C2484 C 0.4238 0.17771 1.01046 0.0
C2485 C 0.42328 0.19139 0.0249 0.0
H2486 H 0.42596 0.1721 0.98069 0.0
C2487 C 0.42296 0.21061 0.01976 0.0
H2488 H 0.4245 0.16281 0.01403 0.0
C2489 C 0.42445 0.216 1.00062 0.0
C2490 C 0.42584 0.20229 0.98617 0.0
H2491 H 0.42307 0.22147 0.03059 0.0
H2492 H 0.42535 0.23092 0.99721 0.0
C2493 C 0.42471 0.18307 0.99133 0.0
C2494 C 0.84438 0.42461 0.99158 0.0
C2495 C 0.82517 0.42586 0.98639 0.0
H2496 H 0.86461 0.42427 0.0143 0.0
C2497 C 0.81142 0.42453 1.00082 0.0
H2498 H 0.85537 0.42581 0.98095 0.0
C2499 C 0.81678 0.42301 0.01996 0.0
C2500 C 0.836 0.42321 0.02513 0.0
H2501 H 0.79651 0.42552 0.99739 0.0
H2502 H 0.80591 0.42317 0.03078 0.0
C2503 C 0.8497 0.42366 1.01071 0.0
C2504 C 0.60512 0.81683 0.01991 0.0
C2505 C 0.60466 0.83601 0.02515 0.0
H2506 H 0.60297 0.79662 0.99724 0.0
C2507 C 0.6041 0.84977 1.01078 0.0
H2508 H 0.60504 0.80591 0.03068 0.0
C2509 C 0.60329 0.84451 0.99162 0.0
C2510 C 0.60232 0.82531 0.98635 0.0
H2511 H 0.60329 0.86465 0.01443 0.0
H2512 H 0.60202 0.85553 0.98104 0.0
C2513 C 0.60375 0.81153 1.00074 0.0
C2514 C 0.84413 0.60351 0.03634 0.0
C2515 C 0.82493 0.60218 0.04152 0.0
H2516 H 0.86437 0.60393 1.01362 0.0
C2517 C 0.81118 0.60344 0.02708 0.0
H2518 H 0.85513 0.60237 0.04696 0.0
C2519 C 0.81654 0.60497 1.00794 0.0
C2520 C 0.83576 0.60485 1.00277 0.0
H2521 H 0.79627 0.60238 0.03051 0.0
H2522 H 0.80567 0.60475 0.99712 0.0
C2523 C 0.84946 0.60448 0.0172 0.0
C2524 C 0.4228 0.81687 1.00746 0.0
C2525 C 0.42318 0.83608 1.00228 0.0
H2526 H 0.42506 0.7966 0.03005 0.0
C2527 C 0.4237 0.84978 0.01669 0.0
H2528 H 0.4229 0.80599 0.99665 0.0
C2529 C 0.42454 0.84446 0.03584 0.0
C2530 C 0.4256 0.82525 0.04104 0.0
H2531 H 0.42445 0.86468 1.01309 0.0
H2532 H 0.42579 0.85545 0.04646 0.0
C2533 C 0.42421 0.81151 0.02661 0.0
C2534 C 0.6051 0.21087 1.00779 0.0
C2535 C 0.60485 0.19167 1.00258 0.0
H2536 H 0.60267 0.23111 0.03039 0.0
C2537 C 0.60439 0.17795 0.01698 0.0
H2538 H 0.60495 0.22176 0.99699 0.0
C2539 C 0.60348 0.18324 0.03613 0.0
C2540 C 0.60228 0.20244 0.04135 0.0
H2541 H 0.60374 0.16305 1.01337 0.0
H2542 H 0.60227 0.17223 0.04673 0.0
C2543 C 0.60362 0.2162 0.02694 0.0
C2544 C 0.53571 0.68325 0.92464 0.0
C2545 C 0.54089 0.70246 0.92585 0.0
H2546 H 0.51299 0.66301 0.92434 0.0
C2547 C 0.52645 0.71619 0.9245 0.0
H2548 H 0.54635 0.67227 0.92585 0.0
C2549 C 0.50731 0.71082 0.92298 0.0
C2550 C 0.50214 0.69161 0.92322 0.0
H2551 H 0.52987 0.73111 0.92547 0.0
H2552 H 0.49649 0.7217 0.92313 0.0
C2553 C 0.51657 0.67791 0.92369 0.0
C2554 C 0.34411 0.53606 0.92393 0.0
C2555 C 0.3249 0.54121 0.92529 0.0
H2556 H 0.36439 0.51337 0.92349 0.0
C2557 C 0.31118 0.52675 0.92405 0.0
H2558 H 0.35509 0.54671 0.92505 0.0
C2559 C 0.31657 0.50761 0.92251 0.0
C2560 C 0.33579 0.50248 0.92261 0.0
H2561 H 0.29626 0.53015 0.92513 0.0
H2562 H 0.30571 0.49678 0.92276 0.0
C2563 C 0.34947 0.51693 0.92296 0.0
C2564 C 0.50089 0.31135 0.92396 0.0
C2565 C 0.48647 0.32511 0.92527 0.0
H2566 H 0.53085 0.30578 0.92279 0.0
C2567 C 0.49171 0.34431 0.92421 0.0
H2568 H 0.49741 0.29644 0.92481 0.0
C2569 C 0.51086 0.3496 0.92343 0.0
C2570 C 0.52526 0.33587 0.92299 0.0
H2571 H 0.48109 0.35532 0.92539 0.0
H2572 H 0.51448 0.36449 0.92416 0.0
C2573 C 0.52005 0.31668 0.92262 0.0
C2574 C 0.67777 0.51113 0.92398 0.0
C2575 C 0.6915 0.52553 0.9234 0.0
H2576 H 0.67206 0.48137 0.92602 0.0
C2577 C 0.7107 0.52031 0.92289 0.0
H2578 H 0.66288 0.51476 0.92482 0.0
C2579 C 0.71603 0.50115 0.92421 0.0
C2580 C 0.70227 0.48674 0.92565 0.0
H2581 H 0.7216 0.5311 0.92295 0.0
H2582 H 0.73095 0.49767 0.92495 0.0
C2583 C 0.68306 0.49198 0.92473 0.0
C2584 C 0.52682 0.3113 0.10308 0.0
C2585 C 0.54121 0.32509 0.10172 0.0
H2586 H 0.49686 0.30569 0.1043 0.0
C2587 C 0.53595 0.34428 0.10276 0.0
H2588 H 0.53031 0.2964 0.10224 0.0
C2589 C 0.51678 0.34955 0.10355 0.0
C2590 C 0.5024 0.3358 0.10404 0.0
H2591 H 0.54655 0.3553 0.10154 0.0
H2592 H 0.51314 0.36443 0.1028 0.0
C2593 C 0.50764 0.31661 0.10443 0.0
C2594 C 0.71606 0.52684 0.10372 0.0
C2595 C 0.70227 0.54123 0.10232 0.0
H2596 H 0.72168 0.4969 0.10495 0.0
C2597 C 0.68307 0.53596 0.10328 0.0
H2598 H 0.73097 0.53034 0.10294 0.0
C2599 C 0.67781 0.51679 0.10404 0.0
C2600 C 0.69157 0.50242 0.10458 0.0
H2601 H 0.67204 0.54654 0.10203 0.0
H2602 H 0.66293 0.51314 0.10323 0.0
C2603 C 0.71076 0.50767 0.10504 0.0
C2604 C 0.49134 0.68342 0.10353 0.0
C2605 C 0.48611 0.70261 0.10222 0.0
H2606 H 0.5141 0.66323 0.10389 0.0
C2607 C 0.50053 0.71638 0.10345 0.0
H2608 H 0.48072 0.67241 0.10242 0.0
C2609 C 0.51969 0.71106 0.10493 0.0
C2610 C 0.52489 0.69185 0.10479 0.0
H2611 H 0.49708 0.73129 0.10242 0.0
H2612 H 0.53049 0.72195 0.10468 0.0
C2613 C 0.51049 0.67813 0.10445 0.0
C2614 C 0.3114 0.50058 0.10279 0.0
C2615 C 0.32515 0.48615 0.1015 0.0
H2616 H 0.30588 0.53054 0.10413 0.0
C2617 C 0.34435 0.49133 0.10281 0.0
H2618 H 0.29649 0.49715 0.10174 0.0
C2619 C 0.34968 0.51047 0.10379 0.0
C2620 C 0.33597 0.5249 0.10419 0.0
H2621 H 0.35535 0.48071 0.10165 0.0
H2622 H 0.36458 0.51406 0.10322 0.0
C2623 C 0.31676 0.51972 0.10433 0.0
C2624 C 0.9242 0.53606 0.68309 0.0
C2625 C 0.92533 0.54122 0.70231 0.0
H2626 H 0.92402 0.51337 0.66282 0.0
C2627 C 0.92396 0.52675 0.71602 0.0
H2628 H 0.92544 0.54671 0.67213 0.0
C2629 C 0.9225 0.50762 0.71061 0.0
C2630 C 0.92283 0.50248 0.69139 0.0
H2631 H 0.92487 0.53016 0.73094 0.0
H2632 H 0.92263 0.49678 0.72147 0.0
C2633 C 0.92332 0.51693 0.67773 0.0
C2634 C 0.51086 0.92362 0.67783 0.0
C2635 C 0.52527 0.92319 0.69155 0.0
H2636 H 0.4811 0.92571 0.67211 0.0
C2637 C 0.52006 0.92296 0.71075 0.0
H2638 H 0.51448 0.92426 0.66294 0.0
C2639 C 0.5009 0.92444 0.71608 0.0
C2640 C 0.48648 0.92575 0.70231 0.0
H2641 H 0.53086 0.92314 0.72164 0.0
H2642 H 0.49745 0.92541 0.73098 0.0
C2643 C 0.49171 0.92453 0.68312 0.0
C2644 C 0.10467 0.51983 0.71057 0.0
C2645 C 0.10436 0.52505 0.69137 0.0
H2646 H 0.10234 0.49719 0.73079 0.0
C2647 C 0.10389 0.51066 0.67764 0.0
H2648 H 0.10452 0.53062 0.72147 0.0
C2649 C 0.10302 0.49151 0.68291 0.0
C2650 C 0.10189 0.48626 0.70211 0.0
H2651 H 0.1032 0.51429 0.66275 0.0
H2652 H 0.10182 0.48091 0.6719 0.0
C2653 C 0.10324 0.50067 0.71588 0.0
C2654 C 0.51715 0.10418 0.67779 0.0
C2655 C 0.50271 0.1046 0.69147 0.0
H2656 H 0.54693 0.1021 0.67217 0.0
C2657 C 0.50785 0.10481 0.71069 0.0
H2658 H 0.51358 0.10356 0.66289 0.0
C2659 C 0.527 0.10333 0.71607 0.0
C2660 C 0.54146 0.10204 0.70235 0.0
H2661 H 0.49702 0.10463 0.72155 0.0
H2662 H 0.53041 0.10235 0.73099 0.0
C2663 C 0.53629 0.10327 0.68314 0.0
C2664 C 0.92493 0.49137 0.34433 0.0
C2665 C 0.92597 0.48614 0.32513 0.0
H2666 H 0.92487 0.51413 0.36452 0.0
C2667 C 0.92458 0.50056 0.31138 0.0
H2668 H 0.92618 0.48075 0.35533 0.0
C2669 C 0.92319 0.51972 0.31672 0.0
C2670 C 0.92358 0.52492 0.33592 0.0
H2671 H 0.92541 0.4971 0.29646 0.0
H2672 H 0.92329 0.53052 0.30583 0.0
C2673 C 0.92411 0.51052 0.34964 0.0
C2674 C 0.50784 0.92255 0.31667 0.0
C2675 C 0.50263 0.92289 0.33586 0.0
H2676 H 0.53047 0.92483 0.29643 0.0
C2677 C 0.51703 0.92337 0.34959 0.0
H2678 H 0.49704 0.92269 0.30577 0.0
C2679 C 0.53618 0.92421 0.3443 0.0
C2680 C 0.54142 0.9253 0.32511 0.0
H2681 H 0.5134 0.92408 0.36448 0.0
H2682 H 0.54679 0.92542 0.35531 0.0
C2683 C 0.527 0.92396 0.31134 0.0
C2684 C 0.10375 0.52691 0.31107 0.0
C2685 C 0.10239 0.54132 0.32483 0.0
H2686 H 0.10503 0.49696 0.30549 0.0
C2687 C 0.10348 0.53608 0.34403 0.0
H2688 H 0.10288 0.53038 0.29616 0.0
C2689 C 0.10432 0.51692 0.34932 0.0
C2690 C 0.10481 0.50253 0.33559 0.0
H2691 H 0.10226 0.54668 0.35504 0.0
H2692 H 0.1036 0.5133 0.3642 0.0
C2693 C 0.10516 0.50774 0.31639 0.0
C2694 C 0.51064 0.10363 0.34962 0.0
C2695 C 0.52506 0.10411 0.33592 0.0
H2696 H 0.48086 0.10157 0.35528 0.0
C2697 C 0.51989 0.10443 0.31672 0.0
H2698 H 0.51423 0.10292 0.36452 0.0
C2699 C 0.50073 0.10302 0.31135 0.0
C2700 C 0.48629 0.10167 0.32509 0.0
H2701 H 0.5307 0.1043 0.30584 0.0
H2702 H 0.49729 0.10213 0.29644 0.0
C2703 C 0.49149 0.10278 0.3443 0.0
C2704 C 0.67809 0.92332 0.51694 0.0
C2705 C 0.69179 0.92286 0.50252 0.0
H2706 H 0.67243 0.92542 0.5467 0.0
C2707 C 0.71101 0.92258 0.50769 0.0
H2708 H 0.66319 0.92399 0.51335 0.0
C2709 C 0.71637 0.92404 0.52683 0.0
C2710 C 0.70263 0.92538 0.54127 0.0
H2711 H 0.72188 0.92273 0.49687 0.0
H2712 H 0.73129 0.92498 0.53026 0.0
C2713 C 0.68342 0.92421 0.53608 0.0
C2714 C 0.678 0.10388 0.51074 0.0
C2715 C 0.69174 0.10437 0.52513 0.0
H2716 H 0.67227 0.10179 0.48099 0.0
C2717 C 0.71094 0.10469 0.51991 0.0
H2718 H 0.66311 0.10318 0.51437 0.0
C2719 C 0.71626 0.10325 0.50075 0.0
C2720 C 0.70248 0.10188 0.48635 0.0
H2721 H 0.72184 0.10455 0.5307 0.0
H2722 H 0.73117 0.10235 0.49728 0.0
C2723 C 0.68328 0.10301 0.49159 0.0
C2724 C 0.92464 0.68303 0.49168 0.0
C2725 C 0.92571 0.70222 0.48643 0.0
H2726 H 0.92451 0.66288 0.51448 0.0
C2727 C 0.92432 0.71601 0.50082 0.0
H2728 H 0.92588 0.67201 0.48109 0.0
C2729 C 0.92289 0.7107 0.51998 0.0
C2730 C 0.92325 0.69151 0.52521 0.0
H2731 H 0.92518 0.73092 0.49733 0.0
H2732 H 0.923 0.72162 0.53076 0.0
C2733 C 0.92377 0.67777 0.51084 0.0
C2734 C 0.31152 0.92429 0.50066 0.0
C2735 C 0.32528 0.92564 0.48625 0.0
H2736 H 0.30595 0.92306 0.53061 0.0
C2737 C 0.34448 0.9246 0.49148 0.0
H2738 H 0.2966 0.92513 0.49719 0.0
C2739 C 0.34978 0.92381 0.51063 0.0
C2740 C 0.33606 0.92332 0.52502 0.0
H2741 H 0.35549 0.92582 0.48087 0.0
H2742 H 0.36467 0.92456 0.51424 0.0
C2743 C 0.31685 0.92293 0.51982 0.0
C2744 C 0.10394 0.34964 0.51035 0.0
C2745 C 0.1045 0.33591 0.52474 0.0
H2746 H 0.1019 0.35535 0.48059 0.0
C2747 C 0.10498 0.31671 0.51952 0.0
H2748 H 0.10311 0.36452 0.51397 0.0
C2749 C 0.10365 0.31138 0.50036 0.0
C2750 C 0.10223 0.32514 0.48595 0.0
H2751 H 0.10491 0.30581 0.53031 0.0
H2752 H 0.10289 0.29647 0.49688 0.0
C2753 C 0.10317 0.34435 0.49119 0.0
C2754 C 0.34438 0.10319 0.53581 0.0
C2755 C 0.32518 0.10212 0.54107 0.0
H2756 H 0.36453 0.10326 0.51302 0.0
C2757 C 0.31139 0.10344 0.52667 0.0
H2758 H 0.3554 0.10199 0.54641 0.0
C2759 C 0.3167 0.10481 0.50751 0.0
C2760 C 0.3359 0.10445 0.50228 0.0
H2761 H 0.29648 0.10258 0.53016 0.0
H2762 H 0.30578 0.10466 0.49673 0.0
C2763 C 0.34965 0.10399 0.51665 0.0
C2764 C 0.92382 0.34943 0.5167 0.0
C2765 C 0.92332 0.33569 0.50232 0.0
H2766 H 0.92584 0.35517 0.54646 0.0
C2767 C 0.92291 0.3165 0.50755 0.0
H2768 H 0.92459 0.36431 0.51307 0.0
C2769 C 0.92426 0.31118 0.52672 0.0
C2770 C 0.92563 0.32496 0.54111 0.0
H2771 H 0.92302 0.30559 0.49677 0.0
H2772 H 0.92508 0.29627 0.5302 0.0
C2773 C 0.92461 0.34416 0.53586 0.0
C2774 C 0.10426 0.67782 0.51669 0.0
C2775 C 0.10479 0.69154 0.50228 0.0
H2776 H 0.10215 0.67214 0.54645 0.0
C2777 C 0.10515 0.71074 0.50748 0.0
H2778 H 0.10353 0.66293 0.51308 0.0
C2779 C 0.10371 0.71609 0.52663 0.0
C2780 C 0.10232 0.70234 0.54105 0.0
H2781 H 0.10505 0.72163 0.49668 0.0
H2782 H 0.10285 0.731 0.53008 0.0
C2783 C 0.1034 0.68313 0.53583 0.0
C2784 C 0.0774 0.16168 0.5113 0.0
C2785 C 0.08582 0.1705 0.52708 0.0
H2786 H 0.07559 0.16076 0.48103 0.0
C2787 C 0.1024 0.18115 0.52443 0.0
H2788 H 0.06476 0.15315 0.51296 0.0
C2789 C 0.10838 0.18569 0.50617 0.0
C2790 C 0.09818 0.17919 0.49041 0.0
H2791 H 0.10934 0.188 0.53628 0.0
H2792 H 0.11973 0.19586 0.50441 0.0
C2793 C 0.08365 0.16593 0.49301 0.0
C2794 C 0.84159 0.10812 0.50633 0.0
C2795 C 0.84817 0.09798 0.49057 0.0
H2796 H 0.83923 0.10904 0.53644 0.0
C2797 C 0.8615 0.08351 0.49318 0.0
H2798 H 0.83136 0.11942 0.50457 0.0
C2799 C 0.86576 0.07727 0.51147 0.0
C2800 C 0.85689 0.08563 0.52724 0.0
H2801 H 0.86674 0.0755 0.48119 0.0
H2802 H 0.87435 0.06467 0.51312 0.0
C2803 C 0.84614 0.10215 0.5246 0.0
C2804 C 0.92548 0.84591 0.52487 0.0
C2805 C 0.942 0.85667 0.52748 0.0
H2806 H 0.90818 0.83111 0.50488 0.0
C2807 C 0.95034 0.86553 0.51168 0.0
H2808 H 0.91861 0.83903 0.53673 0.0
C2809 C 0.94407 0.86124 0.49341 0.0
C2810 C 0.9296 0.84791 0.49083 0.0
H2811 H 0.96293 0.87412 0.51331 0.0
H2812 H 0.95207 0.86647 0.48141 0.0
C2813 C 0.91948 0.84134 0.50662 0.0
C2814 C 0.16624 0.94392 0.49318 0.0
C2815 C 0.17955 0.92945 0.49058 0.0
H2816 H 0.15339 0.96277 0.51312 0.0
C2817 C 0.18614 0.91931 0.50634 0.0
H2818 H 0.161 0.95193 0.48119 0.0
C2819 C 0.1816 0.92529 0.52461 0.0
C2820 C 0.17085 0.94182 0.52724 0.0
H2821 H 0.19636 0.90801 0.50458 0.0
H2822 H 0.1885 0.91841 0.53645 0.0
C2823 C 0.16198 0.95017 0.51147 0.0
C2824 C 0.07779 0.86561 0.51607 0.0
C2825 C 0.08613 0.85673 0.50029 0.0
H2826 H 0.07606 0.86661 0.54635 0.0
C2827 C 0.10266 0.846 0.50292 0.0
H2828 H 0.06518 0.87419 0.51443 0.0
C2829 C 0.10867 0.84147 0.52117 0.0
C2830 C 0.09855 0.84805 0.53695 0.0
H2831 H 0.10953 0.8391 0.49106 0.0
H2832 H 0.11999 0.83125 0.52292 0.0
C2833 C 0.08406 0.86136 0.53436 0.0
C2834 C 0.16185 0.07746 0.51587 0.0
C2835 C 0.17069 0.08582 0.50008 0.0
H2836 H 0.16092 0.07569 0.54614 0.0
C2837 C 0.18143 0.10235 0.50271 0.0
H2838 H 0.15326 0.06485 0.51423 0.0
C2839 C 0.186 0.10833 0.52096 0.0
C2840 C 0.17945 0.09819 0.53674 0.0
H2841 H 0.1883 0.10924 0.49085 0.0
H2842 H 0.19621 0.11965 0.52271 0.0
C2843 C 0.16613 0.0837 0.53415 0.0
C2844 C 0.94385 0.16591 0.53415 0.0
C2845 C 0.92937 0.17923 0.53672 0.0
H2846 H 0.96271 0.15302 0.51425 0.0
C2847 C 0.91923 0.18577 0.52093 0.0
H2848 H 0.95186 0.1607 0.54616 0.0
C2849 C 0.92522 0.18118 0.50268 0.0
C2850 C 0.94175 0.17043 0.50008 0.0
H2851 H 0.90792 0.19599 0.52267 0.0
H2852 H 0.91833 0.18804 0.49082 0.0
C2853 C 0.9501 0.16161 0.51588 0.0
C2854 C 0.84602 0.92489 0.50312 0.0
C2855 C 0.85685 0.94136 0.50048 0.0
H2856 H 0.83122 0.90766 0.52316 0.0
C2857 C 0.86578 0.94967 0.51624 0.0
H2858 H 0.83907 0.91805 0.49128 0.0
C2859 C 0.86153 0.94342 0.53453 0.0
C2860 C 0.84815 0.92901 0.53715 0.0
H2861 H 0.87443 0.96223 0.51458 0.0
H2862 H 0.86684 0.9514 0.54652 0.0
C2863 C 0.84149 0.91892 0.52139 0.0
C2864 C 0.50634 0.10826 0.18634 0.0
C2865 C 0.49057 0.09819 0.17965 0.0
H2866 H 0.53645 0.1091 0.18876 0.0
C2867 C 0.49318 0.08379 0.16626 0.0
H2868 H 0.50457 0.11951 0.19662 0.0
C2869 C 0.51148 0.07754 0.162 0.0
C2870 C 0.52725 0.08583 0.17094 0.0
H2871 H 0.48119 0.07583 0.16094 0.0
H2872 H 0.51313 0.06499 0.15334 0.0
C2873 C 0.52461 0.10228 0.18179 0.0
C2874 C 0.94376 0.49318 0.16622 0.0
C2875 C 0.92936 0.49057 0.17961 0.0
H2876 H 0.96255 0.51311 0.15327 0.0
C2877 C 0.91927 0.50634 0.18627 0.0
H2878 H 0.95173 0.48118 0.16092 0.0
C2879 C 0.92524 0.52461 0.1817 0.0
C2880 C 0.9417 0.52724 0.17085 0.0
H2881 H 0.90802 0.50458 0.19655 0.0
H2882 H 0.9184 0.53645 0.18865 0.0
C2883 C 0.94999 0.51146 0.16193 0.0
C2884 C 0.5029 0.9251 0.18142 0.0
C2885 C 0.50027 0.94164 0.1707 0.0
H2886 H 0.52292 0.9078 0.19617 0.0
C2887 C 0.51605 0.95001 0.16185 0.0
H2888 H 0.49105 0.91821 0.1883 0.0
C2889 C 0.53434 0.94376 0.16611 0.0
C2890 C 0.53694 0.92927 0.17941 0.0
H2891 H 0.5144 0.96262 0.15328 0.0
H2892 H 0.54634 0.95178 0.16089 0.0
C2893 C 0.52116 0.91912 0.18597 0.0
C2894 C 0.08378 0.5342 0.16581 0.0
C2895 C 0.09827 0.5368 0.17911 0.0
H2896 H 0.06492 0.51427 0.15296 0.0
C2897 C 0.10843 0.52102 0.18565 0.0
H2898 H 0.07576 0.5462 0.1606 0.0
C2899 C 0.10245 0.50276 0.18109 0.0
C2900 C 0.08591 0.50013 0.17037 0.0
H2901 H 0.11975 0.52278 0.19586 0.0
H2902 H 0.10935 0.49091 0.18797 0.0
C2903 C 0.07754 0.51592 0.16153 0.0
C2904 C 0.49335 0.94388 0.86109 0.0
C2905 C 0.49077 0.92943 0.84773 0.0
H2906 H 0.51326 0.96274 0.87397 0.0
C2907 C 0.50656 0.91936 0.84109 0.0
H2908 H 0.48134 0.95183 0.86637 0.0
C2909 C 0.52481 0.92537 0.84564 0.0
C2910 C 0.52742 0.94186 0.85645 0.0
H2911 H 0.50481 0.90808 0.83084 0.0
H2912 H 0.53667 0.91854 0.83871 0.0
C2913 C 0.51163 0.95016 0.86535 0.0
C2914 C 0.10209 0.52494 0.84573 0.0
C2915 C 0.08555 0.52753 0.85646 0.0
H2916 H 0.11945 0.50496 0.83098 0.0
C2917 C 0.07722 0.51173 0.8653 0.0
H2918 H 0.10896 0.5368 0.83886 0.0
C2919 C 0.08351 0.49346 0.86105 0.0
C2920 C 0.09801 0.4909 0.84775 0.0
H2921 H 0.0646 0.51335 0.87388 0.0
H2922 H 0.07552 0.48145 0.86627 0.0
C2923 C 0.10812 0.50669 0.84119 0.0
C2924 C 0.50332 0.10251 0.84546 0.0
C2925 C 0.50069 0.08604 0.85628 0.0
H2926 H 0.52336 0.1198 0.83072 0.0
C2927 C 0.51646 0.07776 0.86524 0.0
H2928 H 0.49148 0.10933 0.83849 0.0
C2929 C 0.53475 0.08405 0.86104 0.0
C2930 C 0.53737 0.09849 0.84769 0.0
H2931 H 0.5148 0.06519 0.87388 0.0
H2932 H 0.54674 0.07611 0.86638 0.0
C2933 C 0.52159 0.10854 0.84098 0.0
C2934 C 0.94953 0.51651 0.86534 0.0
C2935 C 0.94127 0.50073 0.85638 0.0
H2936 H 0.95114 0.54679 0.86647 0.0
C2937 C 0.92479 0.50334 0.84555 0.0
H2938 H 0.96209 0.51487 0.87399 0.0
C2939 C 0.91875 0.5216 0.84106 0.0
C2940 C 0.92878 0.53739 0.84777 0.0
H2941 H 0.918 0.49149 0.83858 0.0
H2942 H 0.90748 0.52335 0.8308 0.0
C2943 C 0.94321 0.53479 0.86114 0.0
C2944 C 0.16647 0.49292 0.08362 0.0
C2945 C 0.17998 0.49026 0.09791 0.0
H2946 H 0.15344 0.51291 0.06495 0.0
C2947 C 0.18679 0.50601 0.10793 0.0
H2948 H 0.16105 0.48095 0.07571 0.0
C2949 C 0.18224 0.52429 0.10201 0.0
C2950 C 0.17124 0.52697 0.08566 0.0
H2951 H 0.19717 0.50421 0.11909 0.0
H2952 H 0.18929 0.53611 0.10878 0.0
C2953 C 0.1622 0.51122 0.07743 0.0
C2954 C 0.18195 0.50306 0.92473 0.0
C2955 C 0.17106 0.50038 0.94116 0.0
H2956 H 0.19674 0.52313 0.90753 0.0
C2957 C 0.16206 0.51613 0.94943 0.0
H2958 H 0.18896 0.49123 0.91793 0.0
C2959 C 0.16626 0.53443 0.94318 0.0
C2960 C 0.17967 0.53709 0.9288 0.0
H2961 H 0.15337 0.51444 0.96196 0.0
H2962 H 0.16088 0.5464 0.95112 0.0
C2963 C 0.18644 0.52134 0.91876 0.0
C2964 C 0.49365 0.16607 0.94394 0.0
C2965 C 0.49106 0.1793 0.92939 0.0
H2966 H 0.51357 0.15333 0.96288 0.0
C2967 C 0.50685 0.18582 0.91923 0.0
H2968 H 0.48165 0.16088 0.95196 0.0
C2969 C 0.52511 0.18131 0.92525 0.0
C2970 C 0.52773 0.17067 0.94185 0.0
H2971 H 0.50509 0.19598 0.90786 0.0
H2972 H 0.53696 0.18817 0.91835 0.0
C2973 C 0.51194 0.16184 0.95023 0.0
C2974 C 0.84639 0.52516 0.92546 0.0
C2975 C 0.85699 0.52779 0.94208 0.0
H2976 H 0.83175 0.50515 0.90805 0.0
C2977 C 0.86579 0.512 0.95049 0.0
H2978 H 0.83956 0.53702 0.91853 0.0
C2979 C 0.86157 0.49372 0.94421 0.0
C2980 C 0.84836 0.49113 0.92963 0.0
H2981 H 0.87428 0.51364 0.96316 0.0
H2982 H 0.86673 0.48172 0.95226 0.0
C2983 C 0.84189 0.50691 0.91944 0.0
C2984 C 0.50311 0.84542 0.92511 0.0
C2985 C 0.50045 0.85643 0.94145 0.0
H2986 H 0.52317 0.83049 0.90801 0.0
C2987 C 0.51621 0.86547 0.94966 0.0
H2988 H 0.49127 0.83837 0.91836 0.0
C2989 C 0.53451 0.8612 0.94344 0.0
C2990 C 0.53715 0.84769 0.92915 0.0
H2991 H 0.51453 0.87424 0.96213 0.0
H2992 H 0.54649 0.86663 0.95134 0.0
C2993 C 0.52139 0.84086 0.91917 0.0
C2994 C 0.84627 0.50291 0.10246 0.0
C2995 C 0.85696 0.50031 0.0859 0.0
H2996 H 0.83152 0.52289 0.11981 0.0
C2997 C 0.86576 0.51611 0.07752 0.0
H2998 H 0.83943 0.49104 0.10936 0.0
C2999 C 0.86148 0.53439 0.08379 0.0
C3000 C 0.8482 0.53695 0.09831 0.0
H3001 H 0.87431 0.51449 0.06489 0.0
H3002 H 0.86665 0.54639 0.07576 0.0
C3003 C 0.84171 0.52116 0.10847 0.0
C3004 C 0.5064 0.84162 0.10825 0.0
C3005 C 0.49065 0.84819 0.09806 0.0
H3006 H 0.53651 0.83924 0.1092 0.0
C3007 C 0.49328 0.86146 0.08355 0.0
H3008 H 0.50461 0.83144 0.11958 0.0
C3009 C 0.51159 0.86568 0.07732 0.0
C3010 C 0.52735 0.85682 0.08573 0.0
H3011 H 0.4813 0.86668 0.07551 0.0
H3012 H 0.51326 0.87423 0.0647 0.0
C3013 C 0.52468 0.84613 0.10228 0.0
C3014 C 0.52123 0.18611 0.10827 0.0
C3015 C 0.53704 0.17949 0.09821 0.0
H3016 H 0.49111 0.18844 0.10908 0.0
C3017 C 0.53449 0.16611 0.08379 0.0
H3018 H 0.52296 0.19639 0.11953 0.0
C3019 C 0.51622 0.16181 0.07751 0.0
C3020 C 0.5004 0.17069 0.08578 0.0
H3021 H 0.54651 0.16084 0.07584 0.0
H3022 H 0.51461 0.15316 0.06494 0.0
C3023 C 0.50299 0.18152 0.10226 0.0
C3024 C 0.60806 0.68548 1.00675 0.0
C3025 C 0.59776 0.67908 0.99101 0.0
H3026 H 0.60911 0.68774 0.03685 0.0
C3027 C 0.58316 0.6659 0.99362 0.0
H3028 H 0.61947 0.69558 1.00497 0.0
C3029 C 0.57694 0.66165 1.01192 0.0
C3030 C 0.58544 0.67041 0.02769 0.0
H3031 H 0.57504 0.66081 0.98165 0.0
H3032 H 0.56425 0.6532 1.01359 0.0
C3033 C 0.6021 0.68095 0.02502 0.0
C3034 C 0.34629 0.60222 0.02454 0.0
C3035 C 0.357 0.58566 0.02714 0.0
H3036 H 0.33149 0.61954 1.00457 0.0
C3037 C 0.36578 0.57728 1.01133 0.0
H3038 H 0.33947 0.60913 0.03641 0.0
C3039 C 0.36146 0.58352 0.99306 0.0
C3040 C 0.34817 0.59803 0.9905 0.0
H3041 H 0.37434 0.56465 1.01295 0.0
H3042 H 0.36662 0.57549 0.98105 0.0
C3043 C 0.34169 0.6082 1.00629 0.0
C3044 C 0.42513 0.3455 0.02417 0.0
C3045 C 0.44157 0.35636 0.02682 0.0
H3046 H 0.4079 0.3307 1.00412 0.0
C3047 C 0.44984 0.36535 1.01107 0.0
H3048 H 0.41832 0.3385 0.036 0.0
C3049 C 0.44358 0.36113 0.99277 0.0
C3050 C 0.42919 0.34773 0.99014 0.0
H3051 H 0.46238 0.37402 1.01273 0.0
H3052 H 0.45152 0.36649 0.98079 0.0
C3053 C 0.41914 0.34099 1.0059 0.0
C3054 C 0.66211 0.4499 1.01154 0.0
C3055 C 0.67114 0.44165 0.02728 0.0
H3056 H 0.66097 0.45164 0.98128 0.0
C3057 C 0.68211 0.42528 0.0246 0.0
H3058 H 0.65337 0.46239 1.01324 0.0
C3059 C 0.68666 0.41936 1.00632 0.0
C3060 C 0.67986 0.4294 0.99058 0.0
H3061 H 0.68914 0.41849 0.03642 0.0
H3062 H 0.69701 0.40818 1.00452 0.0
C3063 C 0.66638 0.44371 0.99324 0.0
C3064 C 0.58393 0.36136 0.03426 0.0
C3065 C 0.59838 0.34801 0.03686 0.0
H3066 H 0.56509 0.37424 0.01434 0.0
C3067 C 0.6085 0.34141 0.02109 0.0
H3068 H 0.57594 0.36662 0.04626 0.0
C3069 C 0.60251 0.34596 1.00283 0.0
C3070 C 0.58601 0.35674 1.0002 0.0
H3071 H 0.61979 0.33116 0.02285 0.0
H3072 H 0.60937 0.33905 0.99098 0.0
C3073 C 0.57768 0.36563 0.01598 0.0
C3074 C 0.66196 0.57796 0.01645 0.0
C3075 C 0.67095 0.58624 1.00071 0.0
H3076 H 0.66085 0.57622 0.04672 0.0
C3077 C 0.68186 0.60265 1.00338 0.0
H3078 H 0.65326 0.56544 0.01477 0.0
C3079 C 0.6864 0.60858 0.02166 0.0
C3080 C 0.67966 0.59852 0.03741 0.0
H3081 H 0.68886 0.60946 0.99156 0.0
H3082 H 0.69672 0.6198 0.02346 0.0
C3083 C 0.66621 0.58417 0.03475 0.0
C3084 C 0.41895 0.68653 0.02126 0.0
C3085 C 0.429 0.67981 0.03703 0.0
H3086 H 0.41808 0.68894 0.99116 0.0
C3087 C 0.44333 0.66633 0.03441 0.0
H3088 H 0.40775 0.69687 0.02304 0.0
C3089 C 0.44954 0.66203 0.01612 0.0
C3090 C 0.44128 0.671 1.00035 0.0
H3091 H 0.45127 0.66097 0.04639 0.0
H3092 H 0.46204 0.6533 0.01445 0.0
C3093 C 0.42488 0.68194 1.003 0.0
C3094 C 0.36594 0.45024 0.01544 0.0
C3095 C 0.35717 0.4418 0.99965 0.0
H3096 H 0.36683 0.45204 0.04571 0.0
C3097 C 0.3466 0.42516 1.00227 0.0
H3098 H 0.37441 0.46293 0.0138 0.0
C3099 C 0.34209 0.41914 0.02053 0.0
C3100 C 0.34852 0.42936 0.0363 0.0
H3101 H 0.3398 0.4182 0.99042 0.0
H3102 H 0.33197 0.40774 0.02227 0.0
C3103 C 0.36171 0.44396 0.03372 0.0
C3104 C 1.00627 0.60826 0.68579 0.0
C3105 C 0.99049 0.59808 0.67928 0.0
H3106 H 0.03638 0.60921 0.68806 0.0
C3107 C 0.99308 0.58359 0.66598 0.0
H3108 H 1.00451 0.61958 0.69599 0.0
C3109 C 1.01136 0.57736 0.66169 0.0
C3110 C 0.02716 0.58575 0.6705 0.0
H3111 H 0.98108 0.57555 0.6608 0.0
H3112 H 1.01301 0.56474 0.65312 0.0
C3113 C 0.02453 0.60229 0.68121 0.0
C3114 C 0.45022 1.01171 0.66162 0.0
C3115 C 0.44189 0.02751 0.67048 0.0
H3116 H 0.45195 0.98143 0.66067 0.0
C3117 C 0.42538 0.0249 0.68126 0.0
H3118 H 0.46281 1.01335 0.65301 0.0
C3119 C 0.41939 1.00665 0.68583 0.0
C3120 C 0.42951 0.99086 0.67925 0.0
H3121 H 0.41852 0.03676 0.68814 0.0
H3122 H 0.40809 1.00491 0.69607 0.0
C3123 C 0.44396 0.99344 0.66591 0.0
C3124 C 0.02095 0.41924 0.68598 0.0
C3125 C 0.03674 0.4293 0.67932 0.0
H3126 H 0.99084 0.41842 0.68841 0.0
C3127 C 0.03414 0.44374 0.66598 0.0
H3128 H 0.02271 0.40796 0.69623 0.0
C3129 C 0.01585 0.45003 0.66174 0.0
C3130 C 1.00007 0.44174 0.67066 0.0
H3131 H 0.04614 0.4517 0.66068 0.0
H3132 H 0.01421 0.46261 0.65311 0.0
C3133 C 1.00269 0.42525 0.68146 0.0
C3134 C 0.57768 0.01606 0.66172 0.0
C3135 C 0.58605 1.00028 0.67056 0.0
H3136 H 0.5759 0.04634 0.66078 0.0
C3137 C 0.6026 1.00291 0.68127 0.0
H3138 H 0.56506 0.01442 0.65315 0.0
C3139 C 0.60859 0.02117 0.68583 0.0
C3140 C 0.59842 0.03694 0.67929 0.0
H3141 H 0.6095 0.99106 0.68814 0.0
H3142 H 0.61991 0.02292 0.69603 0.0
C3143 C 0.58393 0.03435 0.66599 0.0
C3144 C 1.01189 0.44999 0.36532 0.0
C3145 C 0.02767 0.44168 0.35641 0.0
H3146 H 0.9816 0.45163 0.36642 0.0
C3147 C 0.02506 0.42515 0.34568 0.0
H3148 H 1.01353 0.4626 0.3739 0.0
C3149 C 1.0068 0.41909 0.34122 0.0
C3150 C 0.99101 0.42916 0.34785 0.0
H3151 H 0.03691 0.4183 0.33875 0.0
H3152 H 1.00504 0.40777 0.33101 0.0
C3153 C 0.99361 0.44366 0.36114 0.0
C3154 C 0.60246 0.0244 0.34579 0.0
C3155 C 0.58599 0.027 0.35663 0.0
H3156 H 0.61975 1.00442 0.33097 0.0
C3157 C 0.57773 1.0112 0.36555 0.0
H3158 H 0.60926 0.03627 0.33885 0.0
C3159 C 0.58402 0.99293 0.36129 0.0
C3160 C 0.59845 0.99036 0.3479 0.0
H3161 H 0.56516 1.01282 0.3742 0.0
H3162 H 0.57609 0.98092 0.36659 0.0
C3163 C 0.60849 1.00615 0.34124 0.0
C3164 C 1.00328 0.60235 0.34557 0.0
C3165 C 1.00071 0.58591 0.35645 0.0
H3166 H 0.02324 0.61961 0.33068 0.0
C3167 C 0.01652 0.57767 0.36536 0.0
H3168 H 0.9914 0.60913 0.33862 0.0
C3169 C 0.03479 0.58396 0.36107 0.0
C3170 C 0.03734 0.59835 0.34765 0.0
H3171 H 0.01491 0.56513 0.37404 0.0
H3172 H 0.04681 0.57604 0.36637 0.0
C3173 C 0.02153 0.60837 0.34098 0.0
C3174 C 0.42525 1.00265 0.346 0.0
C3175 C 0.44182 1.00005 0.3567 0.0
H3176 H 0.40787 0.02263 0.33128 0.0
C3177 C 0.45015 0.01585 0.36555 0.0
H3178 H 0.41838 0.99078 0.33912 0.0
C3179 C 0.44384 0.03412 0.36131 0.0
C3180 C 0.42932 0.03669 0.34804 0.0
H3181 H 0.46278 0.01423 0.3741 0.0
H3182 H 0.45184 0.04613 0.36653 0.0
C3183 C 0.41921 0.0209 0.34148 0.0
C3184 C 0.68624 1.00629 0.60834 0.0
C3185 C 0.67966 0.99052 0.59821 0.0
H3186 H 0.68859 0.03639 0.60924 0.0
C3187 C 0.66633 0.99311 0.58374 0.0
H3188 H 0.69647 1.00452 0.61964 0.0
C3189 C 0.66206 1.0114 0.5775 0.0
C3190 C 0.67093 0.02718 0.58585 0.0
H3191 H 0.66109 0.98112 0.57574 0.0
H3192 H 0.65346 1.01305 0.56491 0.0
C3193 C 0.68169 0.02455 0.60237 0.0
C3194 C 0.66205 0.01582 0.45011 0.0
C3195 C 0.67096 1.00005 0.44179 0.0
H3196 H 0.661 0.0461 0.45183 0.0
C3197 C 0.68174 1.00268 0.4253 0.0
H3198 H 0.65343 0.01416 0.46269 0.0
C3199 C 0.68627 0.02095 0.4193 0.0
C3200 C 0.67962 0.03672 0.4294 0.0
H3201 H 0.68868 0.99084 0.41845 0.0
H3202 H 0.69651 0.02271 0.40802 0.0
C3203 C 0.66628 0.03411 0.44385 0.0
C3204 C 0.02489 0.68171 0.42513 0.0
C3205 C 0.02757 0.67082 0.44155 0.0
H3206 H 1.00482 0.69655 0.40797 0.0
C3207 C 1.01182 0.66185 0.44984 0.0
H3208 H 0.03672 0.68869 0.4183 0.0
C3209 C 0.99351 0.66611 0.44364 0.0
C3210 C 0.99086 0.67953 0.42927 0.0
H3211 H 1.0135 0.65316 0.46237 0.0
H3212 H 0.98154 0.66076 0.4516 0.0
C3213 C 1.00661 0.68625 0.41919 0.0
C3214 C 0.36557 1.01147 0.44982 0.0
C3215 C 0.35663 0.02723 0.44151 0.0
H3216 H 0.36667 0.98119 0.45152 0.0
C3217 C 0.34584 0.02459 0.42502 0.0
H3218 H 0.37419 1.01313 0.4624 0.0
C3219 C 0.34135 1.00632 0.41901 0.0
C3220 C 0.34801 0.99055 0.4291 0.0
H3221 H 0.33889 0.03642 0.41818 0.0
H3222 H 0.3311 1.00454 0.40773 0.0
C3223 C 0.36136 0.99318 0.44354 0.0
C3224 C 0.01633 0.3652 0.44973 0.0
C3225 C 1.00055 0.35624 0.44147 0.0
H3226 H 0.04661 0.36636 0.45132 0.0
C3227 C 1.00316 0.34543 0.42498 0.0
H3228 H 0.01469 0.37382 0.4623 0.0
C3229 C 0.02142 0.34097 0.41892 0.0
C3230 C 0.03721 0.34769 0.42894 0.0
H3231 H 0.99131 0.33846 0.41819 0.0
H3232 H 0.02318 0.33072 0.40764 0.0
C3233 C 0.03461 0.36103 0.44339 0.0
C3234 C 0.34136 0.02141 0.60828 0.0
C3235 C 0.34803 0.03719 0.59821 0.0
H3236 H 0.33895 0.99131 0.60911 0.0
C3237 C 0.36141 0.03459 0.58379 0.0
H3238 H 0.33109 0.02317 0.61953 0.0
C3239 C 0.36567 0.0163 0.57753 0.0
C3240 C 0.35674 1.00053 0.58582 0.0
H3241 H 0.36672 0.04658 0.57584 0.0
H3242 H 0.37432 0.01466 0.56497 0.0
C3243 C 0.34591 1.00315 0.60229 0.0
C3244 C 1.0064 0.34118 0.60812 0.0
C3245 C 0.99059 0.3478 0.59807 0.0
H3246 H 0.03651 0.33878 0.60888 0.0
C3247 C 0.99314 0.36111 0.58358 0.0
H3248 H 1.00467 0.33095 0.61943 0.0
C3249 C 1.01141 0.36534 0.57725 0.0
C3250 C 0.02722 0.35646 0.58553 0.0
H3251 H 0.98112 0.36638 0.57564 0.0
H3252 H 1.01302 0.37394 0.56465 0.0
C3253 C 0.02464 0.3457 0.60206 0.0
C3254 C 1.00313 0.68181 0.60239 0.0
C3255 C 1.00045 0.67088 0.586 0.0
H3256 H 0.0232 0.69672 0.61949 0.0
C3257 C 0.0162 0.6619 0.57771 0.0
H3258 H 0.9913 0.68879 0.60922 0.0
C3259 C 0.03451 0.6662 0.58388 0.0
C3260 C 0.03716 0.67967 0.59821 0.0
H3261 H 0.01451 0.65318 0.56521 0.0
H3262 H 0.04648 0.66085 0.57592 0.0
C3263 C 0.02141 0.68639 0.60829 0.0
loop_
_geom_bond_atom_site_label_1
_geom_bond_atom_site_label_2
_geom_bond_distance
_geom_bond_site_symmetry_2
_ccdc_geom_bond_type
Co0 O1 2.216 . S
Co0 O2 2.091 . S
Co0 O4 2.004 . S
Co0 O10 2.021 . S
Co0 O12 2.137 . S
Co0 O13 2.244 . S
O1 Co0 2.216 . S
O1 C8 1.247 . S
O2 Co0 2.091 . S
O2 C8 1.261 . S
C3 O12 1.247 . S
C3 O13 1.272 . S
O4 Co0 2.004 . S
O4 C9 1.259 . S
Co5 O6 2.061 . S
Co5 O11 2.052 . S
Co5 O13 2.135 . S
O6 Co5 2.061 . S
O6 C9 1.235 . S
C7 O10 1.238 . S
C7 O11 1.241 . S
C8 O1 1.247 . S
C8 O2 1.261 . S
C9 O4 1.259 . S
C9 O6 1.235 . S
O10 Co0 2.021 . S
O10 C7 1.238 . S
O11 Co5 2.052 . S
O11 C7 1.241 . S
O12 Co0 2.137 . S
O12 C3 1.247 . S
O13 Co0 2.244 . S
O13 C3 1.272 . S
O13 Co5 2.135 . S
Co14 O15 2.216 . S
Co14 O16 2.091 . S
Co14 O18 2.004 . S
Co14 O24 2.021 . S
Co14 O26 2.137 . S
Co14 O27 2.244 . S
O15 Co14 2.216 . S
O15 C22 1.247 . S
O16 Co14 2.091 . S
O16 C22 1.261 . S
C17 O26 1.247 . S
C17 O27 1.272 . S
O18 Co14 2.004 . S
O18 C23 1.259 . S
Co19 O20 2.061 . S
Co19 O25 2.052 . S
Co19 O27 2.135 . S
O20 Co19 2.061 . S
O20 C23 1.235 . S
C21 O24 1.238 . S
C21 O25 1.241 . S
C22 O15 1.247 . S
C22 O16 1.261 . S
C23 O18 1.259 . S
C23 O20 1.235 . S
O24 Co14 2.021 . S
O24 C21 1.238 . S
O25 Co19 2.052 . S
O25 C21 1.241 . S
O26 Co14 2.137 . S
O26 C17 1.247 . S
O27 Co14 2.244 . S
O27 C17 1.272 . S
O27 Co19 2.135 . S
Co28 O29 2.216 . S
Co28 O30 2.091 . S
Co28 O32 2.004 . S
Co28 O38 2.021 . S
Co28 O40 2.137 . S
Co28 O41 2.244 . S
O29 Co28 2.216 . S
O29 C36 1.247 . S
O30 Co28 2.091 . S
O30 C36 1.261 . S
C31 O40 1.247 . S
C31 O41 1.272 . S
O32 Co28 2.004 . S
O32 C37 1.259 . S
Co33 O34 2.061 . S
Co33 O39 2.052 . S
Co33 O41 2.135 . S
O34 Co33 2.061 . S
O34 C37 1.235 . S
C35 O38 1.238 . S
C35 O39 1.241 . S
C36 O29 1.247 . S
C36 O30 1.261 . S
C37 O32 1.259 . S
C37 O34 1.235 . S
O38 Co28 2.021 . S
O38 C35 1.238 . S
O39 Co33 2.052 . S
O39 C35 1.241 . S
O40 Co28 2.137 . S
O40 C31 1.247 . S
O41 Co28 2.244 . S
O41 C31 1.272 . S
O41 Co33 2.135 . S
Co42 O43 2.216 . S
Co42 O44 2.091 . S
Co42 O46 2.004 . S
Co42 O52 2.021 . S
Co42 O54 2.137 . S
Co42 O55 2.244 . S
O43 Co42 2.216 . S
O43 C50 1.247 . S
O44 Co42 2.091 . S
O44 C50 1.261 . S
C45 O54 1.247 . S
C45 O55 1.272 . S
O46 Co42 2.004 . S
O46 C51 1.259 . S
Co47 O48 2.061 . S
Co47 O53 2.052 . S
Co47 O55 2.135 . S
O48 Co47 2.061 . S
O48 C51 1.235 . S
C49 O52 1.238 . S
C49 O53 1.241 . S
C50 O43 1.247 . S
C50 O44 1.261 . S
C51 O46 1.259 . S
C51 O48 1.235 . S
O52 Co42 2.021 . S
O52 C49 1.238 . S
O53 Co47 2.052 . S
O53 C49 1.241 . S
O54 Co42 2.137 . S
O54 C45 1.247 . S
O55 Co42 2.244 . S
O55 C45 1.272 . S
O55 Co47 2.135 . S
Co56 O57 2.216 . S
Co56 O58 2.091 . S
Co56 O60 2.004 . S
Co56 O66 2.021 . S
Co56 O68 2.137 . S
Co56 O69 2.244 . S
O57 Co56 2.216 . S
O57 C64 1.247 . S
O58 Co56 2.091 . S
O58 C64 1.261 . S
C59 O68 1.247 . S
C59 O69 1.272 . S
O60 Co56 2.004 . S
O60 C65 1.259 . S
Co61 O62 2.061 . S
Co61 O67 2.052 . S
Co61 O69 2.135 . S
O62 Co61 2.061 . S
O62 C65 1.235 . S
C63 O66 1.238 . S
C63 O67 1.241 . S
C64 O57 1.247 . S
C64 O58 1.261 . S
C65 O60 1.259 . S
C65 O62 1.235 . S
O66 Co56 2.021 . S
O66 C63 1.238 . S
O67 Co61 2.052 . S
O67 C63 1.241 . S
O68 Co56 2.137 . S
O68 C59 1.247 . S
O69 Co56 2.244 . S
O69 C59 1.272 . S
O69 Co61 2.135 . S
Co70 O71 2.216 . S
Co70 O72 2.091 . S
Co70 O74 2.004 . S
Co70 O80 2.021 . S
Co70 O82 2.137 . S
Co70 O83 2.244 . S
O71 Co70 2.216 . S
O71 C78 1.247 . S
O72 Co70 2.091 . S
O72 C78 1.261 . S
C73 O82 1.247 . S
C73 O83 1.272 . S
O74 Co70 2.004 . S
O74 C79 1.259 . S
Co75 O76 2.061 . S
Co75 O81 2.052 . S
Co75 O83 2.135 . S
O76 Co75 2.061 . S
O76 C79 1.235 . S
C77 O80 1.238 . S
C77 O81 1.241 . S
C78 O71 1.247 . S
C78 O72 1.261 . S
C79 O74 1.259 . S
C79 O76 1.235 . S
O80 Co70 2.021 . S
O80 C77 1.238 . S
O81 Co75 2.052 . S
O81 C77 1.241 . S
O82 Co70 2.137 . S
O82 C73 1.247 . S
O83 Co70 2.244 . S
O83 C73 1.272 . S
O83 Co75 2.135 . S
Co84 O85 2.216 . S
Co84 O86 2.091 . S
Co84 O88 2.004 . S
Co84 O94 2.021 . S
Co84 O96 2.137 . S
Co84 O97 2.244 . S
O85 Co84 2.216 . S
O85 C92 1.247 . S
O86 Co84 2.091 . S
O86 C92 1.261 . S
C87 O96 1.247 . S
C87 O97 1.272 . S
O88 Co84 2.004 . S
O88 C93 1.259 . S
Co89 O90 2.061 . S
Co89 O95 2.052 . S
Co89 O97 2.135 . S
O90 Co89 2.061 . S
O90 C93 1.235 . S
C91 O94 1.238 . S
C91 O95 1.241 . S
C92 O85 1.247 . S
C92 O86 1.261 . S
C93 O88 1.259 . S
C93 O90 1.235 . S
O94 Co84 2.021 . S
O94 C91 1.238 . S
O95 Co89 2.052 . S
O95 C91 1.241 . S
O96 Co84 2.137 . S
O96 C87 1.247 . S
O97 Co84 2.244 . S
O97 C87 1.272 . S
O97 Co89 2.135 . S
Co98 O99 2.216 . S
Co98 O100 2.091 . S
Co98 O102 2.004 . S
Co98 O108 2.021 . S
Co98 O110 2.137 . S
Co98 O111 2.244 . S
O99 Co98 2.216 . S
O99 C106 1.247 . S
O100 Co98 2.091 . S
O100 C106 1.261 . S
C101 O110 1.247 . S
C101 O111 1.272 . S
O102 Co98 2.004 . S
O102 C107 1.259 . S
Co103 O104 2.061 . S
Co103 O109 2.052 . S
Co103 O111 2.135 . S
O104 Co103 2.061 . S
O104 C107 1.235 . S
C105 O108 1.238 . S
C105 O109 1.241 . S
C106 O99 1.247 . S
C106 O100 1.261 . S
C107 O102 1.259 . S
C107 O104 1.235 . S
O108 Co98 2.021 . S
O108 C105 1.238 . S
O109 Co103 2.052 . S
O109 C105 1.241 . S
O110 Co98 2.137 . S
O110 C101 1.247 . S
O111 Co98 2.244 . S
O111 C101 1.272 . S
O111 Co103 2.135 . S
Co112 O113 2.216 . S
Co112 O114 2.091 . S
Co112 O116 2.004 . S
Co112 O122 2.021 . S
Co112 O124 2.137 . S
Co112 O125 2.244 . S
O113 Co112 2.216 . S
O113 C120 1.247 . S
O114 Co112 2.091 . S
O114 C120 1.261 . S
C115 O124 1.247 . S
C115 O125 1.272 . S
O116 Co112 2.004 . S
O116 C121 1.259 . S
Co117 O118 2.061 . S
Co117 O123 2.052 . S
Co117 O125 2.135 . S
O118 Co117 2.061 . S
O118 C121 1.235 . S
C119 O122 1.238 . S
C119 O123 1.241 . S
C120 O113 1.247 . S
C120 O114 1.261 . S
C121 O116 1.259 . S
C121 O118 1.235 . S
O122 Co112 2.021 . S
O122 C119 1.238 . S
O123 Co117 2.052 . S
O123 C119 1.241 . S
O124 Co112 2.137 . S
O124 C115 1.247 . S
O125 Co112 2.244 . S
O125 C115 1.272 . S
O125 Co117 2.135 . S
Co126 O127 2.216 . S
Co126 O128 2.091 . S
Co126 O130 2.004 . S
Co126 O136 2.021 . S
Co126 O138 2.137 . S
Co126 O139 2.244 . S
O127 Co126 2.216 . S
O127 C134 1.247 . S
O128 Co126 2.091 . S
O128 C134 1.261 . S
C129 O138 1.247 . S
C129 O139 1.272 . S
O130 Co126 2.004 . S
O130 C135 1.259 . S
Co131 O132 2.061 . S
Co131 O137 2.052 . S
Co131 O139 2.135 . S
O132 Co131 2.061 . S
O132 C135 1.235 . S
C133 O136 1.238 . S
C133 O137 1.241 . S
C134 O127 1.247 . S
C134 O128 1.261 . S
C135 O130 1.259 . S
C135 O132 1.235 . S
O136 Co126 2.021 . S
O136 C133 1.238 . S
O137 Co131 2.052 . S
O137 C133 1.241 . S
O138 Co126 2.137 . S
O138 C129 1.247 . S
O139 Co126 2.244 . S
O139 C129 1.272 . S
O139 Co131 2.135 . S
Co140 O141 2.216 . S
Co140 O142 2.091 . S
Co140 O144 2.004 . S
Co140 O150 2.021 . S
Co140 O152 2.137 . S
Co140 O153 2.244 . S
O141 Co140 2.216 . S
O141 C148 1.247 . S
O142 Co140 2.091 . S
O142 C148 1.261 . S
C143 O152 1.247 . S
C143 O153 1.272 . S
O144 Co140 2.004 . S
O144 C149 1.259 . S
Co145 O146 2.061 . S
Co145 O151 2.052 . S
Co145 O153 2.135 . S
O146 Co145 2.061 . S
O146 C149 1.235 . S
C147 O150 1.238 . S
C147 O151 1.241 . S
C148 O141 1.247 . S
C148 O142 1.261 . S
C149 O144 1.259 . S
C149 O146 1.235 . S
O150 Co140 2.021 . S
O150 C147 1.238 . S
O151 Co145 2.052 . S
O151 C147 1.241 . S
O152 Co140 2.137 . S
O152 C143 1.247 . S
O153 Co140 2.244 . S
O153 C143 1.272 . S
O153 Co145 2.135 . S
Co154 O155 2.216 . S
Co154 O156 2.091 . S
Co154 O158 2.004 . S
Co154 O164 2.021 . S
Co154 O166 2.137 . S
Co154 O167 2.244 . S
O155 Co154 2.216 . S
O155 C162 1.247 . S
O156 Co154 2.091 . S
O156 C162 1.261 . S
C157 O166 1.247 . S
C157 O167 1.272 . S
O158 Co154 2.004 . S
O158 C163 1.259 . S
Co159 O160 2.061 . S
Co159 O165 2.052 . S
Co159 O167 2.135 . S
O160 Co159 2.061 . S
O160 C163 1.235 . S
C161 O164 1.238 . S
C161 O165 1.241 . S
C162 O155 1.247 . S
C162 O156 1.261 . S
C163 O158 1.259 . S
C163 O160 1.235 . S
O164 Co154 2.021 . S
O164 C161 1.238 . S
O165 Co159 2.052 . S
O165 C161 1.241 . S
O166 Co154 2.137 . S
O166 C157 1.247 . S
O167 Co154 2.244 . S
O167 C157 1.272 . S
O167 Co159 2.135 . S
Co168 O169 2.216 . S
Co168 O170 2.091 . S
Co168 O172 2.004 . S
Co168 O178 2.021 . S
Co168 O180 2.137 . S
Co168 O181 2.244 . S
O169 Co168 2.216 . S
O169 C176 1.247 . S
O170 Co168 2.091 . S
O170 C176 1.261 . S
C171 O180 1.247 . S
C171 O181 1.272 . S
O172 Co168 2.004 . S
O172 C177 1.259 . S
Co173 O174 2.061 . S
Co173 O179 2.052 . S
Co173 O181 2.135 . S
O174 Co173 2.061 . S
O174 C177 1.235 . S
C175 O178 1.238 . S
C175 O179 1.241 . S
C176 O169 1.247 . S
C176 O170 1.261 . S
C177 O172 1.259 . S
C177 O174 1.235 . S
O178 Co168 2.021 . S
O178 C175 1.238 . S
O179 Co173 2.052 . S
O179 C175 1.241 . S
O180 Co168 2.137 . S
O180 C171 1.247 . S
O181 Co168 2.244 . S
O181 C171 1.272 . S
O181 Co173 2.135 . S
Co182 O183 2.216 . S
Co182 O184 2.091 . S
Co182 O186 2.004 . S
Co182 O192 2.021 . S
Co182 O194 2.137 . S
Co182 O195 2.244 . S
O183 Co182 2.216 . S
O183 C190 1.247 . S
O184 Co182 2.091 . S
O184 C190 1.261 . S
C185 O194 1.247 . S
C185 O195 1.272 . S
O186 Co182 2.004 . S
O186 C191 1.259 . S
Co187 O188 2.061 . S
Co187 O193 2.052 . S
Co187 O195 2.135 . S
O188 Co187 2.061 . S
O188 C191 1.235 . S
C189 O192 1.238 . S
C189 O193 1.241 . S
C190 O183 1.247 . S
C190 O184 1.261 . S
C191 O186 1.259 . S
C191 O188 1.235 . S
O192 Co182 2.021 . S
O192 C189 1.238 . S
O193 Co187 2.052 . S
O193 C189 1.241 . S
O194 Co182 2.137 . S
O194 C185 1.247 . S
O195 Co182 2.244 . S
O195 C185 1.272 . S
O195 Co187 2.135 . S
Co196 O197 2.216 . S
Co196 O198 2.091 . S
Co196 O200 2.004 . S
Co196 O206 2.021 . S
Co196 O208 2.137 . S
Co196 O209 2.244 . S
O197 Co196 2.216 . S
O197 C204 1.247 . S
O198 Co196 2.091 . S
O198 C204 1.261 . S
C199 O208 1.247 . S
C199 O209 1.272 . S
O200 Co196 2.004 . S
O200 C205 1.259 . S
Co201 O202 2.061 . S
Co201 O207 2.052 . S
Co201 O209 2.135 . S
O202 Co201 2.061 . S
O202 C205 1.235 . S
C203 O206 1.238 . S
C203 O207 1.241 . S
C204 O197 1.247 . S
C204 O198 1.261 . S
C205 O200 1.259 . S
C205 O202 1.235 . S
O206 Co196 2.021 . S
O206 C203 1.238 . S
O207 Co201 2.052 . S
O207 C203 1.241 . S
O208 Co196 2.137 . S
O208 C199 1.247 . S
O209 Co196 2.244 . S
O209 C199 1.272 . S
O209 Co201 2.135 . S
Co210 O211 2.216 . S
Co210 O212 2.091 . S
Co210 O214 2.004 . S
Co210 O220 2.021 . S
Co210 O222 2.137 . S
Co210 O223 2.244 . S
O211 Co210 2.216 . S
O211 C218 1.247 . S
O212 Co210 2.091 . S
O212 C218 1.261 . S
C213 O222 1.247 . S
C213 O223 1.272 . S
O214 Co210 2.004 . S
O214 C219 1.259 . S
Co215 O216 2.061 . S
Co215 O221 2.052 . S
Co215 O223 2.135 . S
O216 Co215 2.061 . S
O216 C219 1.235 . S
C217 O220 1.238 . S
C217 O221 1.241 . S
C218 O211 1.247 . S
C218 O212 1.261 . S
C219 O214 1.259 . S
C219 O216 1.235 . S
O220 Co210 2.021 . S
O220 C217 1.238 . S
O221 Co215 2.052 . S
O221 C217 1.241 . S
O222 Co210 2.137 . S
O222 C213 1.247 . S
O223 Co210 2.244 . S
O223 C213 1.272 . S
O223 Co215 2.135 . S
Co224 O225 2.216 . S
Co224 O226 2.091 . S
Co224 O228 2.004 . S
Co224 O234 2.021 . S
Co224 O236 2.137 . S
Co224 O237 2.244 . S
O225 Co224 2.216 . S
O225 C232 1.247 . S
O226 Co224 2.091 . S
O226 C232 1.261 . S
C227 O236 1.247 . S
C227 O237 1.272 . S
O228 Co224 2.004 . S
O228 C233 1.259 . S
Co229 O230 2.061 . S
Co229 O235 2.052 . S
Co229 O237 2.135 . S
O230 Co229 2.061 . S
O230 C233 1.235 . S
C231 O234 1.238 . S
C231 O235 1.241 . S
C232 O225 1.247 . S
C232 O226 1.261 . S
C233 O228 1.259 . S
C233 O230 1.235 . S
O234 Co224 2.021 . S
O234 C231 1.238 . S
O235 Co229 2.052 . S
O235 C231 1.241 . S
O236 Co224 2.137 . S
O236 C227 1.247 . S
O237 Co224 2.244 . S
O237 C227 1.272 . S
O237 Co229 2.135 . S
Co238 O239 2.216 . S
Co238 O240 2.091 . S
Co238 O242 2.004 . S
Co238 O248 2.021 . S
Co238 O250 2.137 . S
Co238 O251 2.244 . S
O239 Co238 2.216 . S
O239 C246 1.247 . S
O240 Co238 2.091 . S
O240 C246 1.261 . S
C241 O250 1.247 . S
C241 O251 1.272 . S
O242 Co238 2.004 . S
O242 C247 1.259 . S
Co243 O244 2.061 . S
Co243 O249 2.052 . S
Co243 O251 2.135 . S
O244 Co243 2.061 . S
O244 C247 1.235 . S
C245 O248 1.238 . S
C245 O249 1.241 . S
C246 O239 1.247 . S
C246 O240 1.261 . S
C247 O242 1.259 . S
C247 O244 1.235 . S
O248 Co238 2.021 . S
O248 C245 1.238 . S
O249 Co243 2.052 . S
O249 C245 1.241 . S
O250 Co238 2.137 . S
O250 C241 1.247 . S
O251 Co238 2.244 . S
O251 C241 1.272 . S
O251 Co243 2.135 . S
Co252 O253 2.216 . S
Co252 O254 2.091 . S
Co252 O256 2.004 . S
Co252 O262 2.021 . S
Co252 O264 2.137 . S
Co252 O265 2.244 . S
O253 Co252 2.216 . S
O253 C260 1.247 . S
O254 Co252 2.091 . S
O254 C260 1.261 . S
C255 O264 1.247 . S
C255 O265 1.272 . S
O256 Co252 2.004 . S
O256 C261 1.259 . S
Co257 O258 2.061 . S
Co257 O263 2.052 . S
Co257 O265 2.135 . S
O258 Co257 2.061 . S
O258 C261 1.235 . S
C259 O262 1.238 . S
C259 O263 1.241 . S
C260 O253 1.247 . S
C260 O254 1.261 . S
C261 O256 1.259 . S
C261 O258 1.235 . S
O262 Co252 2.021 . S
O262 C259 1.238 . S
O263 Co257 2.052 . S
O263 C259 1.241 . S
O264 Co252 2.137 . S
O264 C255 1.247 . S
O265 Co252 2.244 . S
O265 C255 1.272 . S
O265 Co257 2.135 . S
Co266 O267 2.216 . S
Co266 O268 2.091 . S
Co266 O270 2.004 . S
Co266 O276 2.021 . S
Co266 O278 2.137 . S
Co266 O279 2.244 . S
O267 Co266 2.216 . S
O267 C274 1.247 . S
O268 Co266 2.091 . S
O268 C274 1.261 . S
C269 O278 1.247 . S
C269 O279 1.272 . S
O270 Co266 2.004 . S
O270 C275 1.259 . S
Co271 O272 2.061 . S
Co271 O277 2.052 . S
Co271 O279 2.135 . S
O272 Co271 2.061 . S
O272 C275 1.235 . S
C273 O276 1.238 . S
C273 O277 1.241 . S
C274 O267 1.247 . S
C274 O268 1.261 . S
C275 O270 1.259 . S
C275 O272 1.235 . S
O276 Co266 2.021 . S
O276 C273 1.238 . S
O277 Co271 2.052 . S
O277 C273 1.241 . S
O278 Co266 2.137 . S
O278 C269 1.247 . S
O279 Co266 2.244 . S
O279 C269 1.272 . S
O279 Co271 2.135 . S
Co280 O281 2.216 . S
Co280 O282 2.091 . S
Co280 O284 2.004 . S
Co280 O290 2.021 . S
Co280 O292 2.137 . S
Co280 O293 2.244 . S
O281 Co280 2.216 . S
O281 C288 1.247 . S
O282 Co280 2.091 . S
O282 C288 1.261 . S
C283 O292 1.247 . S
C283 O293 1.272 . S
O284 Co280 2.004 . S
O284 C289 1.259 . S
Co285 O286 2.061 . S
Co285 O291 2.052 . S
Co285 O293 2.135 . S
O286 Co285 2.061 . S
O286 C289 1.235 . S
C287 O290 1.238 . S
C287 O291 1.241 . S
C288 O281 1.247 . S
C288 O282 1.261 . S
C289 O284 1.259 . S
C289 O286 1.235 . S
O290 Co280 2.021 . S
O290 C287 1.238 . S
O291 Co285 2.052 . S
O291 C287 1.241 . S
O292 Co280 2.137 . S
O292 C283 1.247 . S
O293 Co280 2.244 . S
O293 C283 1.272 . S
O293 Co285 2.135 . S
Co294 O295 2.216 . S
Co294 O296 2.091 . S
Co294 O298 2.004 . S
Co294 O304 2.021 . S
Co294 O306 2.137 . S
Co294 O307 2.244 . S
O295 Co294 2.216 . S
O295 C302 1.247 . S
O296 Co294 2.091 . S
O296 C302 1.261 . S
C297 O306 1.247 . S
C297 O307 1.272 . S
O298 Co294 2.004 . S
O298 C303 1.259 . S
Co299 O300 2.061 . S
Co299 O305 2.052 . S
Co299 O307 2.135 . S
O300 Co299 2.061 . S
O300 C303 1.235 . S
C301 O304 1.238 . S
C301 O305 1.241 . S
C302 O295 1.247 . S
C302 O296 1.261 . S
C303 O298 1.259 . S
C303 O300 1.235 . S
O304 Co294 2.021 . S
O304 C301 1.238 . S
O305 Co299 2.052 . S
O305 C301 1.241 . S
O306 Co294 2.137 . S
O306 C297 1.247 . S
O307 Co294 2.244 . S
O307 C297 1.272 . S
O307 Co299 2.135 . S
Co308 O309 2.216 . S
Co308 O310 2.091 . S
Co308 O312 2.004 . S
Co308 O318 2.021 . S
Co308 O320 2.137 . S
Co308 O321 2.244 . S
O309 Co308 2.216 . S
O309 C316 1.247 . S
O310 Co308 2.091 . S
O310 C316 1.261 . S
C311 O320 1.247 . S
C311 O321 1.272 . S
O312 Co308 2.004 . S
O312 C317 1.259 . S
Co313 O314 2.061 . S
Co313 O319 2.052 . S
Co313 O321 2.135 . S
O314 Co313 2.061 . S
O314 C317 1.235 . S
C315 O318 1.238 . S
C315 O319 1.241 . S
C316 O309 1.247 . S
C316 O310 1.261 . S
C317 O312 1.259 . S
C317 O314 1.235 . S
O318 Co308 2.021 . S
O318 C315 1.238 . S
O319 Co313 2.052 . S
O319 C315 1.241 . S
O320 Co308 2.137 . S
O320 C311 1.247 . S
O321 Co308 2.244 . S
O321 C311 1.272 . S
O321 Co313 2.135 . S
Co322 O323 2.216 . S
Co322 O324 2.091 . S
Co322 O326 2.004 . S
Co322 O332 2.021 . S
Co322 O334 2.137 . S
Co322 O335 2.244 . S
O323 Co322 2.216 . S
O323 C330 1.247 . S
O324 Co322 2.091 . S
O324 C330 1.261 . S
C325 O334 1.247 . S
C325 O335 1.272 . S
O326 Co322 2.004 . S
O326 C331 1.259 . S
Co327 O328 2.061 . S
Co327 O333 2.052 . S
Co327 O335 2.135 . S
O328 Co327 2.061 . S
O328 C331 1.235 . S
C329 O332 1.238 . S
C329 O333 1.241 . S
C330 O323 1.247 . S
C330 O324 1.261 . S
C331 O326 1.259 . S
C331 O328 1.235 . S
O332 Co322 2.021 . S
O332 C329 1.238 . S
O333 Co327 2.052 . S
O333 C329 1.241 . S
O334 Co322 2.137 . S
O334 C325 1.247 . S
O335 Co322 2.244 . S
O335 C325 1.272 . S
O335 Co327 2.135 . S
Co336 O337 2.216 . S
Co336 O338 2.091 . S
Co336 O340 2.004 . S
Co336 O346 2.021 . S
Co336 O348 2.137 . S
Co336 O349 2.244 . S
O337 Co336 2.216 . S
O337 C344 1.247 . S
O338 Co336 2.091 . S
O338 C344 1.261 . S
C339 O348 1.247 . S
C339 O349 1.272 . S
O340 Co336 2.004 . S
O340 C345 1.259 . S
Co341 O342 2.061 . S
Co341 O347 2.052 . S
Co341 O349 2.135 . S
O342 Co341 2.061 . S
O342 C345 1.235 . S
C343 O346 1.238 . S
C343 O347 1.241 . S
C344 O337 1.247 . S
C344 O338 1.261 . S
C345 O340 1.259 . S
C345 O342 1.235 . S
O346 Co336 2.021 . S
O346 C343 1.238 . S
O347 Co341 2.052 . S
O347 C343 1.241 . S
O348 Co336 2.137 . S
O348 C339 1.247 . S
O349 Co336 2.244 . S
O349 C339 1.272 . S
O349 Co341 2.135 . S
Co350 O351 2.216 . S
Co350 O352 2.091 . S
Co350 O354 2.004 . S
Co350 O360 2.021 . S
Co350 O362 2.137 . S
Co350 O363 2.244 . S
O351 Co350 2.216 . S
O351 C358 1.247 . S
O352 Co350 2.091 . S
O352 C358 1.261 . S
C353 O362 1.247 . S
C353 O363 1.272 . S
O354 Co350 2.004 . S
O354 C359 1.259 . S
Co355 O356 2.061 . S
Co355 O361 2.052 . S
Co355 O363 2.135 . S
O356 Co355 2.061 . S
O356 C359 1.235 . S
C357 O360 1.238 . S
C357 O361 1.241 . S
C358 O351 1.247 . S
C358 O352 1.261 . S
C359 O354 1.259 . S
C359 O356 1.235 . S
O360 Co350 2.021 . S
O360 C357 1.238 . S
O361 Co355 2.052 . S
O361 C357 1.241 . S
O362 Co350 2.137 . S
O362 C353 1.247 . S
O363 Co350 2.244 . S
O363 C353 1.272 . S
O363 Co355 2.135 . S
Co364 O365 2.216 . S
Co364 O366 2.091 . S
Co364 O368 2.004 . S
Co364 O374 2.021 . S
Co364 O376 2.137 . S
Co364 O377 2.244 . S
O365 Co364 2.216 . S
O365 C372 1.247 . S
O366 Co364 2.091 . S
O366 C372 1.261 . S
C367 O376 1.247 . S
C367 O377 1.272 . S
O368 Co364 2.004 . S
O368 C373 1.259 . S
Co369 O370 2.061 . S
Co369 O375 2.052 . S
Co369 O377 2.135 . S
O370 Co369 2.061 . S
O370 C373 1.235 . S
C371 O374 1.238 . S
C371 O375 1.241 . S
C372 O365 1.247 . S
C372 O366 1.261 . S
C373 O368 1.259 . S
C373 O370 1.235 . S
O374 Co364 2.021 . S
O374 C371 1.238 . S
O375 Co369 2.052 . S
O375 C371 1.241 . S
O376 Co364 2.137 . S
O376 C367 1.247 . S
O377 Co364 2.244 . S
O377 C367 1.272 . S
O377 Co369 2.135 . S
Co378 O379 2.216 . S
Co378 O380 2.091 . S
Co378 O382 2.004 . S
Co378 O388 2.021 . S
Co378 O390 2.137 . S
Co378 O391 2.244 . S
O379 Co378 2.216 . S
O379 C386 1.247 . S
O380 Co378 2.091 . S
O380 C386 1.261 . S
C381 O390 1.247 . S
C381 O391 1.272 . S
O382 Co378 2.004 . S
O382 C387 1.259 . S
Co383 O384 2.061 . S
Co383 O389 2.052 . S
Co383 O391 2.135 . S
O384 Co383 2.061 . S
O384 C387 1.235 . S
C385 O388 1.238 . S
C385 O389 1.241 . S
C386 O379 1.247 . S
C386 O380 1.261 . S
C387 O382 1.259 . S
C387 O384 1.235 . S
O388 Co378 2.021 . S
O388 C385 1.238 . S
O389 Co383 2.052 . S
O389 C385 1.241 . S
O390 Co378 2.137 . S
O390 C381 1.247 . S
O391 Co378 2.244 . S
O391 C381 1.272 . S
O391 Co383 2.135 . S
Co392 O393 2.216 . S
Co392 O394 2.091 . S
Co392 O396 2.004 . S
Co392 O402 2.021 . S
Co392 O404 2.137 . S
Co392 O405 2.244 . S
O393 Co392 2.216 . S
O393 C400 1.247 . S
O394 Co392 2.091 . S
O394 C400 1.261 . S
C395 O404 1.247 . S
C395 O405 1.272 . S
O396 Co392 2.004 . S
O396 C401 1.259 . S
Co397 O398 2.061 . S
Co397 O403 2.052 . S
Co397 O405 2.135 . S
O398 Co397 2.061 . S
O398 C401 1.235 . S
C399 O402 1.238 . S
C399 O403 1.241 . S
C400 O393 1.247 . S
C400 O394 1.261 . S
C401 O396 1.259 . S
C401 O398 1.235 . S
O402 Co392 2.021 . S
O402 C399 1.238 . S
O403 Co397 2.052 . S
O403 C399 1.241 . S
O404 Co392 2.137 . S
O404 C395 1.247 . S
O405 Co392 2.244 . S
O405 C395 1.272 . S
O405 Co397 2.135 . S
Co406 O407 2.216 . S
Co406 O408 2.091 . S
Co406 O410 2.004 . S
Co406 O416 2.021 . S
Co406 O418 2.137 . S
Co406 O419 2.244 . S
O407 Co406 2.216 . S
O407 C414 1.247 . S
O408 Co406 2.091 . S
O408 C414 1.261 . S
C409 O418 1.247 . S
C409 O419 1.272 . S
O410 Co406 2.004 . S
O410 C415 1.259 . S
Co411 O412 2.061 . S
Co411 O417 2.052 . S
Co411 O419 2.135 . S
O412 Co411 2.061 . S
O412 C415 1.235 . S
C413 O416 1.238 . S
C413 O417 1.241 . S
C414 O407 1.247 . S
C414 O408 1.261 . S
C415 O410 1.259 . S
C415 O412 1.235 . S
O416 Co406 2.021 . S
O416 C413 1.238 . S
O417 Co411 2.052 . S
O417 C413 1.241 . S
O418 Co406 2.137 . S
O418 C409 1.247 . S
O419 Co406 2.244 . S
O419 C409 1.272 . S
O419 Co411 2.135 . S
Co420 O421 2.216 . S
Co420 O422 2.091 . S
Co420 O424 2.004 . S
Co420 O430 2.021 . S
Co420 O432 2.137 . S
Co420 O433 2.244 . S
O421 Co420 2.216 . S
O421 C428 1.247 . S
O422 Co420 2.091 . S
O422 C428 1.261 . S
C423 O432 1.247 . S
C423 O433 1.272 . S
O424 Co420 2.004 . S
O424 C429 1.259 . S
Co425 O426 2.061 . S
Co425 O431 2.052 . S
Co425 O433 2.135 . S
O426 Co425 2.061 . S
O426 C429 1.235 . S
C427 O430 1.238 . S
C427 O431 1.241 . S
C428 O421 1.247 . S
C428 O422 1.261 . S
C429 O424 1.259 . S
C429 O426 1.235 . S
O430 Co420 2.021 . S
O430 C427 1.238 . S
O431 Co425 2.052 . S
O431 C427 1.241 . S
O432 Co420 2.137 . S
O432 C423 1.247 . S
O433 Co420 2.244 . S
O433 C423 1.272 . S
O433 Co425 2.135 . S
Co434 O435 2.216 . S
Co434 O436 2.091 . S
Co434 O438 2.004 . S
Co434 O444 2.021 . S
Co434 O446 2.137 . S
Co434 O447 2.244 . S
O435 Co434 2.216 . S
O435 C442 1.247 . S
O436 Co434 2.091 . S
O436 C442 1.261 . S
C437 O446 1.247 . S
C437 O447 1.272 . S
O438 Co434 2.004 . S
O438 C443 1.259 . S
Co439 O440 2.061 . S
Co439 O445 2.052 . S
Co439 O447 2.135 . S
O440 Co439 2.061 . S
O440 C443 1.235 . S
C441 O444 1.238 . S
C441 O445 1.241 . S
C442 O435 1.247 . S
C442 O436 1.261 . S
C443 O438 1.259 . S
C443 O440 1.235 . S
O444 Co434 2.021 . S
O444 C441 1.238 . S
O445 Co439 2.052 . S
O445 C441 1.241 . S
O446 Co434 2.137 . S
O446 C437 1.247 . S
O447 Co434 2.244 . S
O447 C437 1.272 . S
O447 Co439 2.135 . S
Co448 O449 2.216 . S
Co448 O450 2.091 . S
Co448 O452 2.004 . S
Co448 O458 2.021 . S
Co448 O460 2.137 . S
Co448 O461 2.244 . S
O449 Co448 2.216 . S
O449 C456 1.247 . S
O450 Co448 2.091 . S
O450 C456 1.261 . S
C451 O460 1.247 . S
C451 O461 1.272 . S
O452 Co448 2.004 . S
O452 C457 1.259 . S
Co453 O454 2.061 . S
Co453 O459 2.052 . S
Co453 O461 2.135 . S
O454 Co453 2.061 . S
O454 C457 1.235 . S
C455 O458 1.238 . S
C455 O459 1.241 . S
C456 O449 1.247 . S
C456 O450 1.261 . S
C457 O452 1.259 . S
C457 O454 1.235 . S
O458 Co448 2.021 . S
O458 C455 1.238 . S
O459 Co453 2.052 . S
O459 C455 1.241 . S
O460 Co448 2.137 . S
O460 C451 1.247 . S
O461 Co448 2.244 . S
O461 C451 1.272 . S
O461 Co453 2.135 . S
Co462 O463 2.216 . S
Co462 O464 2.091 . S
Co462 O466 2.004 . S
Co462 O472 2.021 . S
Co462 O474 2.137 . S
Co462 O475 2.244 . S
O463 Co462 2.216 . S
O463 C470 1.247 . S
O464 Co462 2.091 . S
O464 C470 1.261 . S
C465 O474 1.247 . S
C465 O475 1.272 . S
O466 Co462 2.004 . S
O466 C471 1.259 . S
Co467 O468 2.061 . S
Co467 O473 2.052 . S
Co467 O475 2.135 . S
O468 Co467 2.061 . S
O468 C471 1.235 . S
C469 O472 1.238 . S
C469 O473 1.241 . S
C470 O463 1.247 . S
C470 O464 1.261 . S
C471 O466 1.259 . S
C471 O468 1.235 . S
O472 Co462 2.021 . S
O472 C469 1.238 . S
O473 Co467 2.052 . S
O473 C469 1.241 . S
O474 Co462 2.137 . S
O474 C465 1.247 . S
O475 Co462 2.244 . S
O475 C465 1.272 . S
O475 Co467 2.135 . S
Co476 O477 2.216 . S
Co476 O478 2.091 . S
Co476 O480 2.004 . S
Co476 O486 2.021 . S
Co476 O488 2.137 . S
Co476 O489 2.244 . S
O477 Co476 2.216 . S
O477 C484 1.247 . S
O478 Co476 2.091 . S
O478 C484 1.261 . S
C479 O488 1.247 . S
C479 O489 1.272 . S
O480 Co476 2.004 . S
O480 C485 1.259 . S
Co481 O482 2.061 . S
Co481 O487 2.052 . S
Co481 O489 2.135 . S
O482 Co481 2.061 . S
O482 C485 1.235 . S
C483 O486 1.238 . S
C483 O487 1.241 . S
C484 O477 1.247 . S
C484 O478 1.261 . S
C485 O480 1.259 . S
C485 O482 1.235 . S
O486 Co476 2.021 . S
O486 C483 1.238 . S
O487 Co481 2.052 . S
O487 C483 1.241 . S
O488 Co476 2.137 . S
O488 C479 1.247 . S
O489 Co476 2.244 . S
O489 C479 1.272 . S
O489 Co481 2.135 . S
Co490 O491 2.216 . S
Co490 O492 2.091 . S
Co490 O494 2.004 . S
Co490 O500 2.021 . S
Co490 O502 2.137 . S
Co490 O503 2.244 . S
O491 Co490 2.216 . S
O491 C498 1.247 . S
O492 Co490 2.091 . S
O492 C498 1.261 . S
C493 O502 1.247 . S
C493 O503 1.272 . S
O494 Co490 2.004 . S
O494 C499 1.259 . S
Co495 O496 2.061 . S
Co495 O501 2.052 . S
Co495 O503 2.135 . S
O496 Co495 2.061 . S
O496 C499 1.235 . S
C497 O500 1.238 . S
C497 O501 1.241 . S
C498 O491 1.247 . S
C498 O492 1.261 . S
C499 O494 1.259 . S
C499 O496 1.235 . S
O500 Co490 2.021 . S
O500 C497 1.238 . S
O501 Co495 2.052 . S
O501 C497 1.241 . S
O502 Co490 2.137 . S
O502 C493 1.247 . S
O503 Co490 2.244 . S
O503 C493 1.272 . S
O503 Co495 2.135 . S
Co504 O505 2.216 . S
Co504 O506 2.091 . S
Co504 O508 2.004 . S
Co504 O514 2.021 . S
Co504 O516 2.137 . S
Co504 O517 2.244 . S
O505 Co504 2.216 . S
O505 C512 1.247 . S
O506 Co504 2.091 . S
O506 C512 1.261 . S
C507 O516 1.247 . S
C507 O517 1.272 . S
O508 Co504 2.004 . S
O508 C513 1.259 . S
Co509 O510 2.061 . S
Co509 O515 2.052 . S
Co509 O517 2.135 . S
O510 Co509 2.061 . S
O510 C513 1.235 . S
C511 O514 1.238 . S
C511 O515 1.241 . S
C512 O505 1.247 . S
C512 O506 1.261 . S
C513 O508 1.259 . S
C513 O510 1.235 . S
O514 Co504 2.021 . S
O514 C511 1.238 . S
O515 Co509 2.052 . S
O515 C511 1.241 . S
O516 Co504 2.137 . S
O516 C507 1.247 . S
O517 Co504 2.244 . S
O517 C507 1.272 . S
O517 Co509 2.135 . S
Co518 O519 2.216 . S
Co518 O520 2.091 . S
Co518 O522 2.004 . S
Co518 O528 2.021 . S
Co518 O530 2.137 . S
Co518 O531 2.244 . S
O519 Co518 2.216 . S
O519 C526 1.247 . S
O520 Co518 2.091 . S
O520 C526 1.261 . S
C521 O530 1.247 . S
C521 O531 1.272 . S
O522 Co518 2.004 . S
O522 C527 1.259 . S
Co523 O524 2.061 . S
Co523 O529 2.052 . S
Co523 O531 2.135 . S
O524 Co523 2.061 . S
O524 C527 1.235 . S
C525 O528 1.238 . S
C525 O529 1.241 . S
C526 O519 1.247 . S
C526 O520 1.261 . S
C527 O522 1.259 . S
C527 O524 1.235 . S
O528 Co518 2.021 . S
O528 C525 1.238 . S
O529 Co523 2.052 . S
O529 C525 1.241 . S
O530 Co518 2.137 . S
O530 C521 1.247 . S
O531 Co518 2.244 . S
O531 C521 1.272 . S
O531 Co523 2.135 . S
Co532 O533 2.216 . S
Co532 O534 2.091 . S
Co532 O536 2.004 . S
Co532 O542 2.021 . S
Co532 O544 2.137 . S
Co532 O545 2.244 . S
O533 Co532 2.216 . S
O533 C540 1.247 . S
O534 Co532 2.091 . S
O534 C540 1.261 . S
C535 O544 1.247 . S
C535 O545 1.272 . S
O536 Co532 2.004 . S
O536 C541 1.259 . S
Co537 O538 2.061 . S
Co537 O543 2.052 . S
Co537 O545 2.135 . S
O538 Co537 2.061 . S
O538 C541 1.235 . S
C539 O542 1.238 . S
C539 O543 1.241 . S
C540 O533 1.247 . S
C540 O534 1.261 . S
C541 O536 1.259 . S
C541 O538 1.235 . S
O542 Co532 2.021 . S
O542 C539 1.238 . S
O543 Co537 2.052 . S
O543 C539 1.241 . S
O544 Co532 2.137 . S
O544 C535 1.247 . S
O545 Co532 2.244 . S
O545 C535 1.272 . S
O545 Co537 2.135 . S
Co546 O547 2.216 . S
Co546 O548 2.091 . S
Co546 O550 2.004 . S
Co546 O556 2.021 . S
Co546 O558 2.137 . S
Co546 O559 2.244 . S
O547 Co546 2.216 . S
O547 C554 1.247 . S
O548 Co546 2.091 . S
O548 C554 1.261 . S
C549 O558 1.247 . S
C549 O559 1.272 . S
O550 Co546 2.004 . S
O550 C555 1.259 . S
Co551 O552 2.061 . S
Co551 O557 2.052 . S
Co551 O559 2.135 . S
O552 Co551 2.061 . S
O552 C555 1.235 . S
C553 O556 1.238 . S
C553 O557 1.241 . S
C554 O547 1.247 . S
C554 O548 1.261 . S
C555 O550 1.259 . S
C555 O552 1.235 . S
O556 Co546 2.021 . S
O556 C553 1.238 . S
O557 Co551 2.052 . S
O557 C553 1.241 . S
O558 Co546 2.137 . S
O558 C549 1.247 . S
O559 Co546 2.244 . S
O559 C549 1.272 . S
O559 Co551 2.135 . S
Co560 O561 2.216 . S
Co560 O562 2.091 . S
Co560 O564 2.004 . S
Co560 O570 2.021 . S
Co560 O572 2.137 . S
Co560 O573 2.244 . S
O561 Co560 2.216 . S
O561 C568 1.247 . S
O562 Co560 2.091 . S
O562 C568 1.261 . S
C563 O572 1.247 . S
C563 O573 1.272 . S
O564 Co560 2.004 . S
O564 C569 1.259 . S
Co565 O566 2.061 . S
Co565 O571 2.052 . S
Co565 O573 2.135 . S
O566 Co565 2.061 . S
O566 C569 1.235 . S
C567 O570 1.238 . S
C567 O571 1.241 . S
C568 O561 1.247 . S
C568 O562 1.261 . S
C569 O564 1.259 . S
C569 O566 1.235 . S
O570 Co560 2.021 . S
O570 C567 1.238 . S
O571 Co565 2.052 . S
O571 C567 1.241 . S
O572 Co560 2.137 . S
O572 C563 1.247 . S
O573 Co560 2.244 . S
O573 C563 1.272 . S
O573 Co565 2.135 . S
Co574 O575 2.216 . S
Co574 O576 2.091 . S
Co574 O578 2.004 . S
Co574 O584 2.021 . S
Co574 O586 2.137 . S
Co574 O587 2.244 . S
O575 Co574 2.216 . S
O575 C582 1.247 . S
O576 Co574 2.091 . S
O576 C582 1.261 . S
C577 O586 1.247 . S
C577 O587 1.272 . S
O578 Co574 2.004 . S
O578 C583 1.259 . S
Co579 O580 2.061 . S
Co579 O585 2.052 . S
Co579 O587 2.135 . S
O580 Co579 2.061 . S
O580 C583 1.235 . S
C581 O584 1.238 . S
C581 O585 1.241 . S
C582 O575 1.247 . S
C582 O576 1.261 . S
C583 O578 1.259 . S
C583 O580 1.235 . S
O584 Co574 2.021 . S
O584 C581 1.238 . S
O585 Co579 2.052 . S
O585 C581 1.241 . S
O586 Co574 2.137 . S
O586 C577 1.247 . S
O587 Co574 2.244 . S
O587 C577 1.272 . S
O587 Co579 2.135 . S
Co588 O589 2.216 . S
Co588 O590 2.091 . S
Co588 O592 2.004 . S
Co588 O598 2.021 . S
Co588 O600 2.137 . S
Co588 O601 2.244 . S
O589 Co588 2.216 . S
O589 C596 1.247 . S
O590 Co588 2.091 . S
O590 C596 1.261 . S
C591 O600 1.247 . S
C591 O601 1.272 . S
O592 Co588 2.004 . S
O592 C597 1.259 . S
Co593 O594 2.061 . S
Co593 O599 2.052 . S
Co593 O601 2.135 . S
O594 Co593 2.061 . S
O594 C597 1.235 . S
C595 O598 1.238 . S
C595 O599 1.241 . S
C596 O589 1.247 . S
C596 O590 1.261 . S
C597 O592 1.259 . S
C597 O594 1.235 . S
O598 Co588 2.021 . S
O598 C595 1.238 . S
O599 Co593 2.052 . S
O599 C595 1.241 . S
O600 Co588 2.137 . S
O600 C591 1.247 . S
O601 Co588 2.244 . S
O601 C591 1.272 . S
O601 Co593 2.135 . S
Co602 O603 2.216 . S
Co602 O604 2.091 . S
Co602 O606 2.004 . S
Co602 O612 2.021 . S
Co602 O614 2.137 . S
Co602 O615 2.244 . S
O603 Co602 2.216 . S
O603 C610 1.247 . S
O604 Co602 2.091 . S
O604 C610 1.261 . S
C605 O614 1.247 . S
C605 O615 1.272 . S
O606 Co602 2.004 . S
O606 C611 1.259 . S
Co607 O608 2.061 . S
Co607 O613 2.052 . S
Co607 O615 2.135 . S
O608 Co607 2.061 . S
O608 C611 1.235 . S
C609 O612 1.238 . S
C609 O613 1.241 . S
C610 O603 1.247 . S
C610 O604 1.261 . S
C611 O606 1.259 . S
C611 O608 1.235 . S
O612 Co602 2.021 . S
O612 C609 1.238 . S
O613 Co607 2.052 . S
O613 C609 1.241 . S
O614 Co602 2.137 . S
O614 C605 1.247 . S
O615 Co602 2.244 . S
O615 C605 1.272 . S
O615 Co607 2.135 . S
Co616 O617 2.216 . S
Co616 O618 2.091 . S
Co616 O620 2.004 . S
Co616 O626 2.021 . S
Co616 O628 2.137 . S
Co616 O629 2.244 . S
O617 Co616 2.216 . S
O617 C624 1.247 . S
O618 Co616 2.091 . S
O618 C624 1.261 . S
C619 O628 1.247 . S
C619 O629 1.272 . S
O620 Co616 2.004 . S
O620 C625 1.259 . S
Co621 O622 2.061 . S
Co621 O627 2.052 . S
Co621 O629 2.135 . S
O622 Co621 2.061 . S
O622 C625 1.235 . S
C623 O626 1.238 . S
C623 O627 1.241 . S
C624 O617 1.247 . S
C624 O618 1.261 . S
C625 O620 1.259 . S
C625 O622 1.235 . S
O626 Co616 2.021 . S
O626 C623 1.238 . S
O627 Co621 2.052 . S
O627 C623 1.241 . S
O628 Co616 2.137 . S
O628 C619 1.247 . S
O629 Co616 2.244 . S
O629 C619 1.272 . S
O629 Co621 2.135 . S
Co630 O631 2.216 . S
Co630 O632 2.091 . S
Co630 O634 2.004 . S
Co630 O640 2.021 . S
Co630 O642 2.137 . S
Co630 O643 2.244 . S
O631 Co630 2.216 . S
O631 C638 1.247 . S
O632 Co630 2.091 . S
O632 C638 1.261 . S
C633 O642 1.247 . S
C633 O643 1.272 . S
O634 Co630 2.004 . S
O634 C639 1.259 . S
Co635 O636 2.061 . S
Co635 O641 2.052 . S
Co635 O643 2.135 . S
O636 Co635 2.061 . S
O636 C639 1.235 . S
C637 O640 1.238 . S
C637 O641 1.241 . S
C638 O631 1.247 . S
C638 O632 1.261 . S
C639 O634 1.259 . S
C639 O636 1.235 . S
O640 Co630 2.021 . S
O640 C637 1.238 . S
O641 Co635 2.052 . S
O641 C637 1.241 . S
O642 Co630 2.137 . S
O642 C633 1.247 . S
O643 Co630 2.244 . S
O643 C633 1.272 . S
O643 Co635 2.135 . S
Co644 O645 2.216 . S
Co644 O646 2.091 . S
Co644 O648 2.004 . S
Co644 O654 2.021 . S
Co644 O656 2.137 . S
Co644 O657 2.244 . S
O645 Co644 2.216 . S
O645 C652 1.247 . S
O646 Co644 2.091 . S
O646 C652 1.261 . S
C647 O656 1.247 . S
C647 O657 1.272 . S
O648 Co644 2.004 . S
O648 C653 1.259 . S
Co649 O650 2.061 . S
Co649 O655 2.052 . S
Co649 O657 2.135 . S
O650 Co649 2.061 . S
O650 C653 1.235 . S
C651 O654 1.238 . S
C651 O655 1.241 . S
C652 O645 1.247 . S
C652 O646 1.261 . S
C653 O648 1.259 . S
C653 O650 1.235 . S
O654 Co644 2.021 . S
O654 C651 1.238 . S
O655 Co649 2.052 . S
O655 C651 1.241 . S
O656 Co644 2.137 . S
O656 C647 1.247 . S
O657 Co644 2.244 . S
O657 C647 1.272 . S
O657 Co649 2.135 . S
Co658 O659 2.216 . S
Co658 O660 2.091 . S
Co658 O662 2.004 . S
Co658 O668 2.021 . S
Co658 O670 2.137 . S
Co658 O671 2.244 . S
O659 Co658 2.216 . S
O659 C666 1.247 . S
O660 Co658 2.091 . S
O660 C666 1.261 . S
C661 O670 1.247 . S
C661 O671 1.272 . S
O662 Co658 2.004 . S
O662 C667 1.259 . S
Co663 O664 2.061 . S
Co663 O669 2.052 . S
Co663 O671 2.135 . S
O664 Co663 2.061 . S
O664 C667 1.235 . S
C665 O668 1.238 . S
C665 O669 1.241 . S
C666 O659 1.247 . S
C666 O660 1.261 . S
C667 O662 1.259 . S
C667 O664 1.235 . S
O668 Co658 2.021 . S
O668 C665 1.238 . S
O669 Co663 2.052 . S
O669 C665 1.241 . S
O670 Co658 2.137 . S
O670 C661 1.247 . S
O671 Co658 2.244 . S
O671 C661 1.272 . S
O671 Co663 2.135 . S
Co672 O673 2.216 . S
Co672 O674 2.091 . S
Co672 O676 2.004 . S
Co672 O682 2.021 . S
Co672 O684 2.137 . S
Co672 O685 2.244 . S
O673 Co672 2.216 . S
O673 C680 1.247 . S
O674 Co672 2.091 . S
O674 C680 1.261 . S
C675 O684 1.247 . S
C675 O685 1.272 . S
O676 Co672 2.004 . S
O676 C681 1.259 . S
Co677 O678 2.061 . S
Co677 O683 2.052 . S
Co677 O685 2.135 . S
O678 Co677 2.061 . S
O678 C681 1.235 . S
C679 O682 1.238 . S
C679 O683 1.241 . S
C680 O673 1.247 . S
C680 O674 1.261 . S
C681 O676 1.259 . S
C681 O678 1.235 . S
O682 Co672 2.021 . S
O682 C679 1.238 . S
O683 Co677 2.052 . S
O683 C679 1.241 . S
O684 Co672 2.137 . S
O684 C675 1.247 . S
O685 Co672 2.244 . S
O685 C675 1.272 . S
O685 Co677 2.135 . S
Co686 O687 2.216 . S
Co686 O688 2.091 . S
Co686 O690 2.004 . S
Co686 O696 2.021 . S
Co686 O698 2.137 . S
Co686 O699 2.244 . S
O687 Co686 2.216 . S
O687 C694 1.247 . S
O688 Co686 2.091 . S
O688 C694 1.261 . S
C689 O698 1.247 . S
C689 O699 1.272 . S
O690 Co686 2.004 . S
O690 C695 1.259 . S
Co691 O692 2.061 . S
Co691 O697 2.052 . S
Co691 O699 2.135 . S
O692 Co691 2.061 . S
O692 C695 1.235 . S
C693 O696 1.238 . S
C693 O697 1.241 . S
C694 O687 1.247 . S
C694 O688 1.261 . S
C695 O690 1.259 . S
C695 O692 1.235 . S
O696 Co686 2.021 . S
O696 C693 1.238 . S
O697 Co691 2.052 . S
O697 C693 1.241 . S
O698 Co686 2.137 . S
O698 C689 1.247 . S
O699 Co686 2.244 . S
O699 C689 1.272 . S
O699 Co691 2.135 . S
Co700 O701 2.216 . S
Co700 O702 2.091 . S
Co700 O704 2.004 . S
Co700 O710 2.021 . S
Co700 O712 2.137 . S
Co700 O713 2.244 . S
O701 Co700 2.216 . S
O701 C708 1.247 . S
O702 Co700 2.091 . S
O702 C708 1.261 . S
C703 O712 1.247 . S
C703 O713 1.272 . S
O704 Co700 2.004 . S
O704 C709 1.259 . S
Co705 O706 2.061 . S
Co705 O711 2.052 . S
Co705 O713 2.135 . S
O706 Co705 2.061 . S
O706 C709 1.235 . S
C707 O710 1.238 . S
C707 O711 1.241 . S
C708 O701 1.247 . S
C708 O702 1.261 . S
C709 O704 1.259 . S
C709 O706 1.235 . S
O710 Co700 2.021 . S
O710 C707 1.238 . S
O711 Co705 2.052 . S
O711 C707 1.241 . S
O712 Co700 2.137 . S
O712 C703 1.247 . S
O713 Co700 2.244 . S
O713 C703 1.272 . S
O713 Co705 2.135 . S
Co714 O715 2.216 . S
Co714 O716 2.091 . S
Co714 O718 2.004 . S
Co714 O724 2.021 . S
Co714 O726 2.137 . S
Co714 O727 2.244 . S
O715 Co714 2.216 . S
O715 C722 1.247 . S
O716 Co714 2.091 . S
O716 C722 1.261 . S
C717 O726 1.247 . S
C717 O727 1.272 . S
O718 Co714 2.004 . S
O718 C723 1.259 . S
Co719 O720 2.061 . S
Co719 O725 2.052 . S
Co719 O727 2.135 . S
O720 Co719 2.061 . S
O720 C723 1.235 . S
C721 O724 1.238 . S
C721 O725 1.241 . S
C722 O715 1.247 . S
C722 O716 1.261 . S
C723 O718 1.259 . S
C723 O720 1.235 . S
O724 Co714 2.021 . S
O724 C721 1.238 . S
O725 Co719 2.052 . S
O725 C721 1.241 . S
O726 Co714 2.137 . S
O726 C717 1.247 . S
O727 Co714 2.244 . S
O727 C717 1.272 . S
O727 Co719 2.135 . S
Co728 O729 2.216 . S
Co728 O730 2.091 . S
Co728 O732 2.004 . S
Co728 O738 2.021 . S
Co728 O740 2.137 . S
Co728 O741 2.244 . S
O729 Co728 2.216 . S
O729 C736 1.247 . S
O730 Co728 2.091 . S
O730 C736 1.261 . S
C731 O740 1.247 . S
C731 O741 1.272 . S
O732 Co728 2.004 . S
O732 C737 1.259 . S
Co733 O734 2.061 . S
Co733 O739 2.052 . S
Co733 O741 2.135 . S
O734 Co733 2.061 . S
O734 C737 1.235 . S
C735 O738 1.238 . S
C735 O739 1.241 . S
C736 O729 1.247 . S
C736 O730 1.261 . S
C737 O732 1.259 . S
C737 O734 1.235 . S
O738 Co728 2.021 . S
O738 C735 1.238 . S
O739 Co733 2.052 . S
O739 C735 1.241 . S
O740 Co728 2.137 . S
O740 C731 1.247 . S
O741 Co728 2.244 . S
O741 C731 1.272 . S
O741 Co733 2.135 . S
Co742 O743 2.216 . S
Co742 O744 2.091 . S
Co742 O746 2.004 . S
Co742 O752 2.021 . S
Co742 O754 2.137 . S
Co742 O755 2.244 . S
O743 Co742 2.216 . S
O743 C750 1.247 . S
O744 Co742 2.091 . S
O744 C750 1.261 . S
C745 O754 1.247 . S
C745 O755 1.272 . S
O746 Co742 2.004 . S
O746 C751 1.259 . S
Co747 O748 2.061 . S
Co747 O753 2.052 . S
Co747 O755 2.135 . S
O748 Co747 2.061 . S
O748 C751 1.235 . S
C749 O752 1.238 . S
C749 O753 1.241 . S
C750 O743 1.247 . S
C750 O744 1.261 . S
C751 O746 1.259 . S
C751 O748 1.235 . S
O752 Co742 2.021 . S
O752 C749 1.238 . S
O753 Co747 2.052 . S
O753 C749 1.241 . S
O754 Co742 2.137 . S
O754 C745 1.247 . S
O755 Co742 2.244 . S
O755 C745 1.272 . S
O755 Co747 2.135 . S
Co756 O757 2.216 . S
Co756 O758 2.091 . S
Co756 O760 2.004 . S
Co756 O766 2.021 . S
Co756 O768 2.137 . S
Co756 O769 2.244 . S
O757 Co756 2.216 . S
O757 C764 1.247 . S
O758 Co756 2.091 . S
O758 C764 1.261 . S
C759 O768 1.247 . S
C759 O769 1.272 . S
O760 Co756 2.004 . S
O760 C765 1.259 . S
Co761 O762 2.061 . S
Co761 O767 2.052 . S
Co761 O769 2.135 . S
O762 Co761 2.061 . S
O762 C765 1.235 . S
C763 O766 1.238 . S
C763 O767 1.241 . S
C764 O757 1.247 . S
C764 O758 1.261 . S
C765 O760 1.259 . S
C765 O762 1.235 . S
O766 Co756 2.021 . S
O766 C763 1.238 . S
O767 Co761 2.052 . S
O767 C763 1.241 . S
O768 Co756 2.137 . S
O768 C759 1.247 . S
O769 Co756 2.244 . S
O769 C759 1.272 . S
O769 Co761 2.135 . S
Co770 O771 2.216 . S
Co770 O772 2.091 . S
Co770 O774 2.004 . S
Co770 O780 2.021 . S
Co770 O782 2.137 . S
Co770 O783 2.244 . S
O771 Co770 2.216 . S
O771 C778 1.247 . S
O772 Co770 2.091 . S
O772 C778 1.261 . S
C773 O782 1.247 . S
C773 O783 1.272 . S
O774 Co770 2.004 . S
O774 C779 1.259 . S
Co775 O776 2.061 . S
Co775 O781 2.052 . S
Co775 O783 2.135 . S
O776 Co775 2.061 . S
O776 C779 1.235 . S
C777 O780 1.238 . S
C777 O781 1.241 . S
C778 O771 1.247 . S
C778 O772 1.261 . S
C779 O774 1.259 . S
C779 O776 1.235 . S
O780 Co770 2.021 . S
O780 C777 1.238 . S
O781 Co775 2.052 . S
O781 C777 1.241 . S
O782 Co770 2.137 . S
O782 C773 1.247 . S
O783 Co770 2.244 . S
O783 C773 1.272 . S
O783 Co775 2.135 . S
Co784 O785 2.216 . S
Co784 O786 2.091 . S
Co784 O788 2.004 . S
Co784 O794 2.021 . S
Co784 O796 2.137 . S
Co784 O797 2.244 . S
O785 Co784 2.216 . S
O785 C792 1.247 . S
O786 Co784 2.091 . S
O786 C792 1.261 . S
C787 O796 1.247 . S
C787 O797 1.272 . S
O788 Co784 2.004 . S
O788 C793 1.259 . S
Co789 O790 2.061 . S
Co789 O795 2.052 . S
Co789 O797 2.135 . S
O790 Co789 2.061 . S
O790 C793 1.235 . S
C791 O794 1.238 . S
C791 O795 1.241 . S
C792 O785 1.247 . S
C792 O786 1.261 . S
C793 O788 1.259 . S
C793 O790 1.235 . S
O794 Co784 2.021 . S
O794 C791 1.238 . S
O795 Co789 2.052 . S
O795 C791 1.241 . S
O796 Co784 2.137 . S
O796 C787 1.247 . S
O797 Co784 2.244 . S
O797 C787 1.272 . S
O797 Co789 2.135 . S
Co798 O799 2.216 . S
Co798 O800 2.091 . S
Co798 O802 2.004 . S
Co798 O808 2.021 . S
Co798 O810 2.137 . S
Co798 O811 2.244 . S
O799 Co798 2.216 . S
O799 C806 1.247 . S
O800 Co798 2.091 . S
O800 C806 1.261 . S
C801 O810 1.247 . S
C801 O811 1.272 . S
O802 Co798 2.004 . S
O802 C807 1.259 . S
Co803 O804 2.061 . S
Co803 O809 2.052 . S
Co803 O811 2.135 . S
O804 Co803 2.061 . S
O804 C807 1.235 . S
C805 O808 1.238 . S
C805 O809 1.241 . S
C806 O799 1.247 . S
C806 O800 1.261 . S
C807 O802 1.259 . S
C807 O804 1.235 . S
O808 Co798 2.021 . S
O808 C805 1.238 . S
O809 Co803 2.052 . S
O809 C805 1.241 . S
O810 Co798 2.137 . S
O810 C801 1.247 . S
O811 Co798 2.244 . S
O811 C801 1.272 . S
O811 Co803 2.135 . S
Co812 O813 2.216 . S
Co812 O814 2.091 . S
Co812 O816 2.004 . S
Co812 O822 2.021 . S
Co812 O824 2.137 . S
Co812 O825 2.244 . S
O813 Co812 2.216 . S
O813 C820 1.247 . S
O814 Co812 2.091 . S
O814 C820 1.261 . S
C815 O824 1.247 . S
C815 O825 1.272 . S
O816 Co812 2.004 . S
O816 C821 1.259 . S
Co817 O818 2.061 . S
Co817 O823 2.052 . S
Co817 O825 2.135 . S
O818 Co817 2.061 . S
O818 C821 1.235 . S
C819 O822 1.238 . S
C819 O823 1.241 . S
C820 O813 1.247 . S
C820 O814 1.261 . S
C821 O816 1.259 . S
C821 O818 1.235 . S
O822 Co812 2.021 . S
O822 C819 1.238 . S
O823 Co817 2.052 . S
O823 C819 1.241 . S
O824 Co812 2.137 . S
O824 C815 1.247 . S
O825 Co812 2.244 . S
O825 C815 1.272 . S
O825 Co817 2.135 . S
Co826 O827 2.216 . S
Co826 O828 2.091 . S
Co826 O830 2.004 . S
Co826 O836 2.021 . S
Co826 O838 2.137 . S
Co826 O839 2.244 . S
O827 Co826 2.216 . S
O827 C834 1.247 . S
O828 Co826 2.091 . S
O828 C834 1.261 . S
C829 O838 1.247 . S
C829 O839 1.272 . S
O830 Co826 2.004 . S
O830 C835 1.259 . S
Co831 O832 2.061 . S
Co831 O837 2.052 . S
Co831 O839 2.135 . S
O832 Co831 2.061 . S
O832 C835 1.235 . S
C833 O836 1.238 . S
C833 O837 1.241 . S
C834 O827 1.247 . S
C834 O828 1.261 . S
C835 O830 1.259 . S
C835 O832 1.235 . S
O836 Co826 2.021 . S
O836 C833 1.238 . S
O837 Co831 2.052 . S
O837 C833 1.241 . S
O838 Co826 2.137 . S
O838 C829 1.247 . S
O839 Co826 2.244 . S
O839 C829 1.272 . S
O839 Co831 2.135 . S
Co840 O841 2.216 . S
Co840 O842 2.091 . S
Co840 O844 2.004 . S
Co840 O850 2.021 . S
Co840 O852 2.137 . S
Co840 O853 2.244 . S
O841 Co840 2.216 . S
O841 C848 1.247 . S
O842 Co840 2.091 . S
O842 C848 1.261 . S
C843 O852 1.247 . S
C843 O853 1.272 . S
O844 Co840 2.004 . S
O844 C849 1.259 . S
Co845 O846 2.061 . S
Co845 O851 2.052 . S
Co845 O853 2.135 . S
O846 Co845 2.061 . S
O846 C849 1.235 . S
C847 O850 1.238 . S
C847 O851 1.241 . S
C848 O841 1.247 . S
C848 O842 1.261 . S
C849 O844 1.259 . S
C849 O846 1.235 . S
O850 Co840 2.021 . S
O850 C847 1.238 . S
O851 Co845 2.052 . S
O851 C847 1.241 . S
O852 Co840 2.137 . S
O852 C843 1.247 . S
O853 Co840 2.244 . S
O853 C843 1.272 . S
O853 Co845 2.135 . S
Co854 O855 2.216 . S
Co854 O856 2.091 . S
Co854 O858 2.004 . S
Co854 O864 2.021 . S
Co854 O866 2.137 . S
Co854 O867 2.244 . S
O855 Co854 2.216 . S
O855 C862 1.247 . S
O856 Co854 2.091 . S
O856 C862 1.261 . S
C857 O866 1.247 . S
C857 O867 1.272 . S
O858 Co854 2.004 . S
O858 C863 1.259 . S
Co859 O860 2.061 . S
Co859 O865 2.052 . S
Co859 O867 2.135 . S
O860 Co859 2.061 . S
O860 C863 1.235 . S
C861 O864 1.238 . S
C861 O865 1.241 . S
C862 O855 1.247 . S
C862 O856 1.261 . S
C863 O858 1.259 . S
C863 O860 1.235 . S
O864 Co854 2.021 . S
O864 C861 1.238 . S
O865 Co859 2.052 . S
O865 C861 1.241 . S
O866 Co854 2.137 . S
O866 C857 1.247 . S
O867 Co854 2.244 . S
O867 C857 1.272 . S
O867 Co859 2.135 . S
Co868 O869 2.216 . S
Co868 O870 2.091 . S
Co868 O872 2.004 . S
Co868 O878 2.021 . S
Co868 O880 2.137 . S
Co868 O881 2.244 . S
O869 Co868 2.216 . S
O869 C876 1.247 . S
O870 Co868 2.091 . S
O870 C876 1.261 . S
C871 O880 1.247 . S
C871 O881 1.272 . S
O872 Co868 2.004 . S
O872 C877 1.259 . S
Co873 O874 2.061 . S
Co873 O879 2.052 . S
Co873 O881 2.135 . S
O874 Co873 2.061 . S
O874 C877 1.235 . S
C875 O878 1.238 . S
C875 O879 1.241 . S
C876 O869 1.247 . S
C876 O870 1.261 . S
C877 O872 1.259 . S
C877 O874 1.235 . S
O878 Co868 2.021 . S
O878 C875 1.238 . S
O879 Co873 2.052 . S
O879 C875 1.241 . S
O880 Co868 2.137 . S
O880 C871 1.247 . S
O881 Co868 2.244 . S
O881 C871 1.272 . S
O881 Co873 2.135 . S
Co882 O883 2.216 . S
Co882 O884 2.091 . S
Co882 O886 2.004 . S
Co882 O892 2.021 . S
Co882 O894 2.137 . S
Co882 O895 2.244 . S
O883 Co882 2.216 . S
O883 C890 1.247 . S
O884 Co882 2.091 . S
O884 C890 1.261 . S
C885 O894 1.247 . S
C885 O895 1.272 . S
O886 Co882 2.004 . S
O886 C891 1.259 . S
Co887 O888 2.061 . S
Co887 O893 2.052 . S
Co887 O895 2.135 . S
O888 Co887 2.061 . S
O888 C891 1.235 . S
C889 O892 1.238 . S
C889 O893 1.241 . S
C890 O883 1.247 . S
C890 O884 1.261 . S
C891 O886 1.259 . S
C891 O888 1.235 . S
O892 Co882 2.021 . S
O892 C889 1.238 . S
O893 Co887 2.052 . S
O893 C889 1.241 . S
O894 Co882 2.137 . S
O894 C885 1.247 . S
O895 Co882 2.244 . S
O895 C885 1.272 . S
O895 Co887 2.135 . S
Co896 O897 2.216 . S
Co896 O898 2.091 . S
Co896 O900 2.004 . S
Co896 O906 2.021 . S
Co896 O908 2.137 . S
Co896 O909 2.244 . S
O897 Co896 2.216 . S
O897 C904 1.247 . S
O898 Co896 2.091 . S
O898 C904 1.261 . S
C899 O908 1.247 . S
C899 O909 1.272 . S
O900 Co896 2.004 . S
O900 C905 1.259 . S
Co901 O902 2.061 . S
Co901 O907 2.052 . S
Co901 O909 2.135 . S
O902 Co901 2.061 . S
O902 C905 1.235 . S
C903 O906 1.238 . S
C903 O907 1.241 . S
C904 O897 1.247 . S
C904 O898 1.261 . S
C905 O900 1.259 . S
C905 O902 1.235 . S
O906 Co896 2.021 . S
O906 C903 1.238 . S
O907 Co901 2.052 . S
O907 C903 1.241 . S
O908 Co896 2.137 . S
O908 C899 1.247 . S
O909 Co896 2.244 . S
O909 C899 1.272 . S
O909 Co901 2.135 . S
Co910 O911 2.216 . S
Co910 O912 2.091 . S
Co910 O914 2.004 . S
Co910 O920 2.021 . S
Co910 O922 2.137 . S
Co910 O923 2.244 . S
O911 Co910 2.216 . S
O911 C918 1.247 . S
O912 Co910 2.091 . S
O912 C918 1.261 . S
C913 O922 1.247 . S
C913 O923 1.272 . S
O914 Co910 2.004 . S
O914 C919 1.259 . S
Co915 O916 2.061 . S
Co915 O921 2.052 . S
Co915 O923 2.135 . S
O916 Co915 2.061 . S
O916 C919 1.235 . S
C917 O920 1.238 . S
C917 O921 1.241 . S
C918 O911 1.247 . S
C918 O912 1.261 . S
C919 O914 1.259 . S
C919 O916 1.235 . S
O920 Co910 2.021 . S
O920 C917 1.238 . S
O921 Co915 2.052 . S
O921 C917 1.241 . S
O922 Co910 2.137 . S
O922 C913 1.247 . S
O923 Co910 2.244 . S
O923 C913 1.272 . S
O923 Co915 2.135 . S
Co924 O925 2.216 . S
Co924 O926 2.091 . S
Co924 O928 2.004 . S
Co924 O934 2.021 . S
Co924 O936 2.137 . S
Co924 O937 2.244 . S
O925 Co924 2.216 . S
O925 C932 1.247 . S
O926 Co924 2.091 . S
O926 C932 1.261 . S
C927 O936 1.247 . S
C927 O937 1.272 . S
O928 Co924 2.004 . S
O928 C933 1.259 . S
Co929 O930 2.061 . S
Co929 O935 2.052 . S
Co929 O937 2.135 . S
O930 Co929 2.061 . S
O930 C933 1.235 . S
C931 O934 1.238 . S
C931 O935 1.241 . S
C932 O925 1.247 . S
C932 O926 1.261 . S
C933 O928 1.259 . S
C933 O930 1.235 . S
O934 Co924 2.021 . S
O934 C931 1.238 . S
O935 Co929 2.052 . S
O935 C931 1.241 . S
O936 Co924 2.137 . S
O936 C927 1.247 . S
O937 Co924 2.244 . S
O937 C927 1.272 . S
O937 Co929 2.135 . S
Co938 O939 2.216 . S
Co938 O940 2.091 . S
Co938 O942 2.004 . S
Co938 O948 2.021 . S
Co938 O950 2.137 . S
Co938 O951 2.244 . S
O939 Co938 2.216 . S
O939 C946 1.247 . S
O940 Co938 2.091 . S
O940 C946 1.261 . S
C941 O950 1.247 . S
C941 O951 1.272 . S
O942 Co938 2.004 . S
O942 C947 1.259 . S
Co943 O944 2.061 . S
Co943 O949 2.052 . S
Co943 O951 2.135 . S
O944 Co943 2.061 . S
O944 C947 1.235 . S
C945 O948 1.238 . S
C945 O949 1.241 . S
C946 O939 1.247 . S
C946 O940 1.261 . S
C947 O942 1.259 . S
C947 O944 1.235 . S
O948 Co938 2.021 . S
O948 C945 1.238 . S
O949 Co943 2.052 . S
O949 C945 1.241 . S
O950 Co938 2.137 . S
O950 C941 1.247 . S
O951 Co938 2.244 . S
O951 C941 1.272 . S
O951 Co943 2.135 . S
Co952 O953 2.216 . S
Co952 O954 2.091 . S
Co952 O956 2.004 . S
Co952 O962 2.021 . S
Co952 O964 2.137 . S
Co952 O965 2.244 . S
O953 Co952 2.216 . S
O953 C960 1.247 . S
O954 Co952 2.091 . S
O954 C960 1.261 . S
C955 O964 1.247 . S
C955 O965 1.272 . S
O956 Co952 2.004 . S
O956 C961 1.259 . S
Co957 O958 2.061 . S
Co957 O963 2.052 . S
Co957 O965 2.135 . S
O958 Co957 2.061 . S
O958 C961 1.235 . S
C959 O962 1.238 . S
C959 O963 1.241 . S
C960 O953 1.247 . S
C960 O954 1.261 . S
C961 O956 1.259 . S
C961 O958 1.235 . S
O962 Co952 2.021 . S
O962 C959 1.238 . S
O963 Co957 2.052 . S
O963 C959 1.241 . S
O964 Co952 2.137 . S
O964 C955 1.247 . S
O965 Co952 2.244 . S
O965 C955 1.272 . S
O965 Co957 2.135 . S
Co966 O967 2.216 . S
Co966 O968 2.091 . S
Co966 O970 2.004 . S
Co966 O976 2.021 . S
Co966 O978 2.137 . S
Co966 O979 2.244 . S
O967 Co966 2.216 . S
O967 C974 1.247 . S
O968 Co966 2.091 . S
O968 C974 1.261 . S
C969 O978 1.247 . S
C969 O979 1.272 . S
O970 Co966 2.004 . S
O970 C975 1.259 . S
Co971 O972 2.061 . S
Co971 O977 2.052 . S
Co971 O979 2.135 . S
O972 Co971 2.061 . S
O972 C975 1.235 . S
C973 O976 1.238 . S
C973 O977 1.241 . S
C974 O967 1.247 . S
C974 O968 1.261 . S
C975 O970 1.259 . S
C975 O972 1.235 . S
O976 Co966 2.021 . S
O976 C973 1.238 . S
O977 Co971 2.052 . S
O977 C973 1.241 . S
O978 Co966 2.137 . S
O978 C969 1.247 . S
O979 Co966 2.244 . S
O979 C969 1.272 . S
O979 Co971 2.135 . S
Co980 O981 2.216 . S
Co980 O982 2.091 . S
Co980 O984 2.004 . S
Co980 O990 2.021 . S
Co980 O992 2.137 . S
Co980 O993 2.244 . S
O981 Co980 2.216 . S
O981 C988 1.247 . S
O982 Co980 2.091 . S
O982 C988 1.261 . S
C983 O992 1.247 . S
C983 O993 1.272 . S
O984 Co980 2.004 . S
O984 C989 1.259 . S
Co985 O986 2.061 . S
Co985 O991 2.052 . S
Co985 O993 2.135 . S
O986 Co985 2.061 . S
O986 C989 1.235 . S
C987 O990 1.238 . S
C987 O991 1.241 . S
C988 O981 1.247 . S
C988 O982 1.261 . S
C989 O984 1.259 . S
C989 O986 1.235 . S
O990 Co980 2.021 . S
O990 C987 1.238 . S
O991 Co985 2.052 . S
O991 C987 1.241 . S
O992 Co980 2.137 . S
O992 C983 1.247 . S
O993 Co980 2.244 . S
O993 C983 1.272 . S
O993 Co985 2.135 . S
Co994 O995 2.216 . S
Co994 O996 2.091 . S
Co994 O998 2.004 . S
Co994 O1004 2.021 . S
Co994 O1006 2.137 . S
Co994 O1007 2.244 . S
O995 Co994 2.216 . S
O995 C1002 1.247 . S
O996 Co994 2.091 . S
O996 C1002 1.261 . S
C997 O1006 1.247 . S
C997 O1007 1.272 . S
O998 Co994 2.004 . S
O998 C1003 1.259 . S
Co999 O1000 2.061 . S
Co999 O1005 2.052 . S
Co999 O1007 2.135 . S
O1000 Co999 2.061 . S
O1000 C1003 1.235 . S
C1001 O1004 1.238 . S
C1001 O1005 1.241 . S
C1002 O995 1.247 . S
C1002 O996 1.261 . S
C1003 O998 1.259 . S
C1003 O1000 1.235 . S
O1004 Co994 2.021 . S
O1004 C1001 1.238 . S
O1005 Co999 2.052 . S
O1005 C1001 1.241 . S
O1006 Co994 2.137 . S
O1006 C997 1.247 . S
O1007 Co994 2.244 . S
O1007 C997 1.272 . S
O1007 Co999 2.135 . S
Co1008 O1009 2.216 . S
Co1008 O1010 2.091 . S
Co1008 O1012 2.004 . S
Co1008 O1018 2.021 . S
Co1008 O1020 2.137 . S
Co1008 O1021 2.244 . S
O1009 Co1008 2.216 . S
O1009 C1016 1.247 . S
O1010 Co1008 2.091 . S
O1010 C1016 1.261 . S
C1011 O1020 1.247 . S
C1011 O1021 1.272 . S
O1012 Co1008 2.004 . S
O1012 C1017 1.259 . S
Co1013 O1014 2.061 . S
Co1013 O1019 2.052 . S
Co1013 O1021 2.135 . S
O1014 Co1013 2.061 . S
O1014 C1017 1.235 . S
C1015 O1018 1.238 . S
C1015 O1019 1.241 . S
C1016 O1009 1.247 . S
C1016 O1010 1.261 . S
C1017 O1012 1.259 . S
C1017 O1014 1.235 . S
O1018 Co1008 2.021 . S
O1018 C1015 1.238 . S
O1019 Co1013 2.052 . S
O1019 C1015 1.241 . S
O1020 Co1008 2.137 . S
O1020 C1011 1.247 . S
O1021 Co1008 2.244 . S
O1021 C1011 1.272 . S
O1021 Co1013 2.135 . S
Co1022 O1023 2.216 . S
Co1022 O1024 2.091 . S
Co1022 O1026 2.004 . S
Co1022 O1032 2.021 . S
Co1022 O1034 2.137 . S
Co1022 O1035 2.244 . S
O1023 Co1022 2.216 . S
O1023 C1030 1.247 . S
O1024 Co1022 2.091 . S
O1024 C1030 1.261 . S
C1025 O1034 1.247 . S
C1025 O1035 1.272 . S
O1026 Co1022 2.004 . S
O1026 C1031 1.259 . S
Co1027 O1028 2.061 . S
Co1027 O1033 2.052 . S
Co1027 O1035 2.135 . S
O1028 Co1027 2.061 . S
O1028 C1031 1.235 . S
C1029 O1032 1.238 . S
C1029 O1033 1.241 . S
C1030 O1023 1.247 . S
C1030 O1024 1.261 . S
C1031 O1026 1.259 . S
C1031 O1028 1.235 . S
O1032 Co1022 2.021 . S
O1032 C1029 1.238 . S
O1033 Co1027 2.052 . S
O1033 C1029 1.241 . S
O1034 Co1022 2.137 . S
O1034 C1025 1.247 . S
O1035 Co1022 2.244 . S
O1035 C1025 1.272 . S
O1035 Co1027 2.135 . S
Co1036 O1037 2.216 . S
Co1036 O1038 2.091 . S
Co1036 O1040 2.004 . S
Co1036 O1046 2.021 . S
Co1036 O1048 2.137 . S
Co1036 O1049 2.244 . S
O1037 Co1036 2.216 . S
O1037 C1044 1.247 . S
O1038 Co1036 2.091 . S
O1038 C1044 1.261 . S
C1039 O1048 1.247 . S
C1039 O1049 1.272 . S
O1040 Co1036 2.004 . S
O1040 C1045 1.259 . S
Co1041 O1042 2.061 . S
Co1041 O1047 2.052 . S
Co1041 O1049 2.135 . S
O1042 Co1041 2.061 . S
O1042 C1045 1.235 . S
C1043 O1046 1.238 . S
C1043 O1047 1.241 . S
C1044 O1037 1.247 . S
C1044 O1038 1.261 . S
C1045 O1040 1.259 . S
C1045 O1042 1.235 . S
O1046 Co1036 2.021 . S
O1046 C1043 1.238 . S
O1047 Co1041 2.052 . S
O1047 C1043 1.241 . S
O1048 Co1036 2.137 . S
O1048 C1039 1.247 . S
O1049 Co1036 2.244 . S
O1049 C1039 1.272 . S
O1049 Co1041 2.135 . S
Co1050 O1051 2.216 . S
Co1050 O1052 2.091 . S
Co1050 O1054 2.004 . S
Co1050 O1060 2.021 . S
Co1050 O1062 2.137 . S
Co1050 O1063 2.244 . S
O1051 Co1050 2.216 . S
O1051 C1058 1.247 . S
O1052 Co1050 2.091 . S
O1052 C1058 1.261 . S
C1053 O1062 1.247 . S
C1053 O1063 1.272 . S
O1054 Co1050 2.004 . S
O1054 C1059 1.259 . S
Co1055 O1056 2.061 . S
Co1055 O1061 2.052 . S
Co1055 O1063 2.135 . S
O1056 Co1055 2.061 . S
O1056 C1059 1.235 . S
C1057 O1060 1.238 . S
C1057 O1061 1.241 . S
C1058 O1051 1.247 . S
C1058 O1052 1.261 . S
C1059 O1054 1.259 . S
C1059 O1056 1.235 . S
O1060 Co1050 2.021 . S
O1060 C1057 1.238 . S
O1061 Co1055 2.052 . S
O1061 C1057 1.241 . S
O1062 Co1050 2.137 . S
O1062 C1053 1.247 . S
O1063 Co1050 2.244 . S
O1063 C1053 1.272 . S
O1063 Co1055 2.135 . S
Co1064 O1065 2.216 . S
Co1064 O1066 2.091 . S
Co1064 O1068 2.004 . S
Co1064 O1074 2.021 . S
Co1064 O1076 2.137 . S
Co1064 O1077 2.244 . S
O1065 Co1064 2.216 . S
O1065 C1072 1.247 . S
O1066 Co1064 2.091 . S
O1066 C1072 1.261 . S
C1067 O1076 1.247 . S
C1067 O1077 1.272 . S
O1068 Co1064 2.004 . S
O1068 C1073 1.259 . S
Co1069 O1070 2.061 . S
Co1069 O1075 2.052 . S
Co1069 O1077 2.135 . S
O1070 Co1069 2.061 . S
O1070 C1073 1.235 . S
C1071 O1074 1.238 . S
C1071 O1075 1.241 . S
C1072 O1065 1.247 . S
C1072 O1066 1.261 . S
C1073 O1068 1.259 . S
C1073 O1070 1.235 . S
O1074 Co1064 2.021 . S
O1074 C1071 1.238 . S
O1075 Co1069 2.052 . S
O1075 C1071 1.241 . S
O1076 Co1064 2.137 . S
O1076 C1067 1.247 . S
O1077 Co1064 2.244 . S
O1077 C1067 1.272 . S
O1077 Co1069 2.135 . S
Co1078 O1079 2.216 . S
Co1078 O1080 2.091 . S
Co1078 O1082 2.004 . S
Co1078 O1088 2.021 . S
Co1078 O1090 2.137 . S
Co1078 O1091 2.244 . S
O1079 Co1078 2.216 . S
O1079 C1086 1.247 . S
O1080 Co1078 2.091 . S
O1080 C1086 1.261 . S
C1081 O1090 1.247 . S
C1081 O1091 1.272 . S
O1082 Co1078 2.004 . S
O1082 C1087 1.259 . S
Co1083 O1084 2.061 . S
Co1083 O1089 2.052 . S
Co1083 O1091 2.135 . S
O1084 Co1083 2.061 . S
O1084 C1087 1.235 . S
C1085 O1088 1.238 . S
C1085 O1089 1.241 . S
C1086 O1079 1.247 . S
C1086 O1080 1.261 . S
C1087 O1082 1.259 . S
C1087 O1084 1.235 . S
O1088 Co1078 2.021 . S
O1088 C1085 1.238 . S
O1089 Co1083 2.052 . S
O1089 C1085 1.241 . S
O1090 Co1078 2.137 . S
O1090 C1081 1.247 . S
O1091 Co1078 2.244 . S
O1091 C1081 1.272 . S
O1091 Co1083 2.135 . S
Co1092 O1093 2.216 . S
Co1092 O1094 2.091 . S
Co1092 O1096 2.004 . S
Co1092 O1102 2.021 . S
Co1092 O1104 2.137 . S
Co1092 O1105 2.244 . S
O1093 Co1092 2.216 . S
O1093 C1100 1.247 . S
O1094 Co1092 2.091 . S
O1094 C1100 1.261 . S
C1095 O1104 1.247 . S
C1095 O1105 1.272 . S
O1096 Co1092 2.004 . S
O1096 C1101 1.259 . S
Co1097 O1098 2.061 . S
Co1097 O1103 2.052 . S
Co1097 O1105 2.135 . S
O1098 Co1097 2.061 . S
O1098 C1101 1.235 . S
C1099 O1102 1.238 . S
C1099 O1103 1.241 . S
C1100 O1093 1.247 . S
C1100 O1094 1.261 . S
C1101 O1096 1.259 . S
C1101 O1098 1.235 . S
O1102 Co1092 2.021 . S
O1102 C1099 1.238 . S
O1103 Co1097 2.052 . S
O1103 C1099 1.241 . S
O1104 Co1092 2.137 . S
O1104 C1095 1.247 . S
O1105 Co1092 2.244 . S
O1105 C1095 1.272 . S
O1105 Co1097 2.135 . S
Co1106 O1107 2.216 . S
Co1106 O1108 2.091 . S
Co1106 O1110 2.004 . S
Co1106 O1116 2.021 . S
Co1106 O1118 2.137 . S
Co1106 O1119 2.244 . S
O1107 Co1106 2.216 . S
O1107 C1114 1.247 . S
O1108 Co1106 2.091 . S
O1108 C1114 1.261 . S
C1109 O1118 1.247 . S
C1109 O1119 1.272 . S
O1110 Co1106 2.004 . S
O1110 C1115 1.259 . S
Co1111 O1112 2.061 . S
Co1111 O1117 2.052 . S
Co1111 O1119 2.135 . S
O1112 Co1111 2.061 . S
O1112 C1115 1.235 . S
C1113 O1116 1.238 . S
C1113 O1117 1.241 . S
C1114 O1107 1.247 . S
C1114 O1108 1.261 . S
C1115 O1110 1.259 . S
C1115 O1112 1.235 . S
O1116 Co1106 2.021 . S
O1116 C1113 1.238 . S
O1117 Co1111 2.052 . S
O1117 C1113 1.241 . S
O1118 Co1106 2.137 . S
O1118 C1109 1.247 . S
O1119 Co1106 2.244 . S
O1119 C1109 1.272 . S
O1119 Co1111 2.135 . S
Co1120 O1121 2.216 . S
Co1120 O1122 2.091 . S
Co1120 O1124 2.004 . S
Co1120 O1130 2.021 . S
Co1120 O1132 2.137 . S
Co1120 O1133 2.244 . S
O1121 Co1120 2.216 . S
O1121 C1128 1.247 . S
O1122 Co1120 2.091 . S
O1122 C1128 1.261 . S
C1123 O1132 1.247 . S
C1123 O1133 1.272 . S
O1124 Co1120 2.004 . S
O1124 C1129 1.259 . S
Co1125 O1126 2.061 . S
Co1125 O1131 2.052 . S
Co1125 O1133 2.135 . S
O1126 Co1125 2.061 . S
O1126 C1129 1.235 . S
C1127 O1130 1.238 . S
C1127 O1131 1.241 . S
C1128 O1121 1.247 . S
C1128 O1122 1.261 . S
C1129 O1124 1.259 . S
C1129 O1126 1.235 . S
O1130 Co1120 2.021 . S
O1130 C1127 1.238 . S
O1131 Co1125 2.052 . S
O1131 C1127 1.241 . S
O1132 Co1120 2.137 . S
O1132 C1123 1.247 . S
O1133 Co1120 2.244 . S
O1133 C1123 1.272 . S
O1133 Co1125 2.135 . S
Co1134 O1135 2.216 . S
Co1134 O1136 2.091 . S
Co1134 O1138 2.004 . S
Co1134 O1144 2.021 . S
Co1134 O1146 2.137 . S
Co1134 O1147 2.244 . S
O1135 Co1134 2.216 . S
O1135 C1142 1.247 . S
O1136 Co1134 2.091 . S
O1136 C1142 1.261 . S
C1137 O1146 1.247 . S
C1137 O1147 1.272 . S
O1138 Co1134 2.004 . S
O1138 C1143 1.259 . S
Co1139 O1140 2.061 . S
Co1139 O1145 2.052 . S
Co1139 O1147 2.135 . S
O1140 Co1139 2.061 . S
O1140 C1143 1.235 . S
C1141 O1144 1.238 . S
C1141 O1145 1.241 . S
C1142 O1135 1.247 . S
C1142 O1136 1.261 . S
C1143 O1138 1.259 . S
C1143 O1140 1.235 . S
O1144 Co1134 2.021 . S
O1144 C1141 1.238 . S
O1145 Co1139 2.052 . S
O1145 C1141 1.241 . S
O1146 Co1134 2.137 . S
O1146 C1137 1.247 . S
O1147 Co1134 2.244 . S
O1147 C1137 1.272 . S
O1147 Co1139 2.135 . S
Co1148 O1149 2.216 . S
Co1148 O1150 2.091 . S
Co1148 O1152 2.004 . S
Co1148 O1158 2.021 . S
Co1148 O1160 2.137 . S
Co1148 O1161 2.244 . S
O1149 Co1148 2.216 . S
O1149 C1156 1.247 . S
O1150 Co1148 2.091 . S
O1150 C1156 1.261 . S
C1151 O1160 1.247 . S
C1151 O1161 1.272 . S
O1152 Co1148 2.004 . S
O1152 C1157 1.259 . S
Co1153 O1154 2.061 . S
Co1153 O1159 2.052 . S
Co1153 O1161 2.135 . S
O1154 Co1153 2.061 . S
O1154 C1157 1.235 . S
C1155 O1158 1.238 . S
C1155 O1159 1.241 . S
C1156 O1149 1.247 . S
C1156 O1150 1.261 . S
C1157 O1152 1.259 . S
C1157 O1154 1.235 . S
O1158 Co1148 2.021 . S
O1158 C1155 1.238 . S
O1159 Co1153 2.052 . S
O1159 C1155 1.241 . S
O1160 Co1148 2.137 . S
O1160 C1151 1.247 . S
O1161 Co1148 2.244 . S
O1161 C1151 1.272 . S
O1161 Co1153 2.135 . S
Co1162 O1163 2.216 . S
Co1162 O1164 2.091 . S
Co1162 O1166 2.004 . S
Co1162 O1172 2.021 . S
Co1162 O1174 2.137 . S
Co1162 O1175 2.244 . S
O1163 Co1162 2.216 . S
O1163 C1170 1.247 . S
O1164 Co1162 2.091 . S
O1164 C1170 1.261 . S
C1165 O1174 1.247 . S
C1165 O1175 1.272 . S
O1166 Co1162 2.004 . S
O1166 C1171 1.259 . S
Co1167 O1168 2.061 . S
Co1167 O1173 2.052 . S
Co1167 O1175 2.135 . S
O1168 Co1167 2.061 . S
O1168 C1171 1.235 . S
C1169 O1172 1.238 . S
C1169 O1173 1.241 . S
C1170 O1163 1.247 . S
C1170 O1164 1.261 . S
C1171 O1166 1.259 . S
C1171 O1168 1.235 . S
O1172 Co1162 2.021 . S
O1172 C1169 1.238 . S
O1173 Co1167 2.052 . S
O1173 C1169 1.241 . S
O1174 Co1162 2.137 . S
O1174 C1165 1.247 . S
O1175 Co1162 2.244 . S
O1175 C1165 1.272 . S
O1175 Co1167 2.135 . S
Co1176 O1177 2.216 . S
Co1176 O1178 2.091 . S
Co1176 O1180 2.004 . S
Co1176 O1186 2.021 . S
Co1176 O1188 2.137 . S
Co1176 O1189 2.244 . S
O1177 Co1176 2.216 . S
O1177 C1184 1.247 . S
O1178 Co1176 2.091 . S
O1178 C1184 1.261 . S
C1179 O1188 1.247 . S
C1179 O1189 1.272 . S
O1180 Co1176 2.004 . S
O1180 C1185 1.259 . S
Co1181 O1182 2.061 . S
Co1181 O1187 2.052 . S
Co1181 O1189 2.135 . S
O1182 Co1181 2.061 . S
O1182 C1185 1.235 . S
C1183 O1186 1.238 . S
C1183 O1187 1.241 . S
C1184 O1177 1.247 . S
C1184 O1178 1.261 . S
C1185 O1180 1.259 . S
C1185 O1182 1.235 . S
O1186 Co1176 2.021 . S
O1186 C1183 1.238 . S
O1187 Co1181 2.052 . S
O1187 C1183 1.241 . S
O1188 Co1176 2.137 . S
O1188 C1179 1.247 . S
O1189 Co1176 2.244 . S
O1189 C1179 1.272 . S
O1189 Co1181 2.135 . S
Co1190 O1191 2.216 . S
Co1190 O1192 2.091 . S
Co1190 O1194 2.004 . S
Co1190 O1200 2.021 . S
Co1190 O1202 2.137 . S
Co1190 O1203 2.244 . S
O1191 Co1190 2.216 . S
O1191 C1198 1.247 . S
O1192 Co1190 2.091 . S
O1192 C1198 1.261 . S
C1193 O1202 1.247 . S
C1193 O1203 1.272 . S
O1194 Co1190 2.004 . S
O1194 C1199 1.259 . S
Co1195 O1196 2.061 . S
Co1195 O1201 2.052 . S
Co1195 O1203 2.135 . S
O1196 Co1195 2.061 . S
O1196 C1199 1.235 . S
C1197 O1200 1.238 . S
C1197 O1201 1.241 . S
C1198 O1191 1.247 . S
C1198 O1192 1.261 . S
C1199 O1194 1.259 . S
C1199 O1196 1.235 . S
O1200 Co1190 2.021 . S
O1200 C1197 1.238 . S
O1201 Co1195 2.052 . S
O1201 C1197 1.241 . S
O1202 Co1190 2.137 . S
O1202 C1193 1.247 . S
O1203 Co1190 2.244 . S
O1203 C1193 1.272 . S
O1203 Co1195 2.135 . S
Co1204 O1205 2.216 . S
Co1204 O1206 2.091 . S
Co1204 O1208 2.004 . S
Co1204 O1214 2.021 . S
Co1204 O1216 2.137 . S
Co1204 O1217 2.244 . S
O1205 Co1204 2.216 . S
O1205 C1212 1.247 . S
O1206 Co1204 2.091 . S
O1206 C1212 1.261 . S
C1207 O1216 1.247 . S
C1207 O1217 1.272 . S
O1208 Co1204 2.004 . S
O1208 C1213 1.259 . S
Co1209 O1210 2.061 . S
Co1209 O1215 2.052 . S
Co1209 O1217 2.135 . S
O1210 Co1209 2.061 . S
O1210 C1213 1.235 . S
C1211 O1214 1.238 . S
C1211 O1215 1.241 . S
C1212 O1205 1.247 . S
C1212 O1206 1.261 . S
C1213 O1208 1.259 . S
C1213 O1210 1.235 . S
O1214 Co1204 2.021 . S
O1214 C1211 1.238 . S
O1215 Co1209 2.052 . S
O1215 C1211 1.241 . S
O1216 Co1204 2.137 . S
O1216 C1207 1.247 . S
O1217 Co1204 2.244 . S
O1217 C1207 1.272 . S
O1217 Co1209 2.135 . S
Co1218 O1219 2.216 . S
Co1218 O1220 2.091 . S
Co1218 O1222 2.004 . S
Co1218 O1228 2.021 . S
Co1218 O1230 2.137 . S
Co1218 O1231 2.244 . S
O1219 Co1218 2.216 . S
O1219 C1226 1.247 . S
O1220 Co1218 2.091 . S
O1220 C1226 1.261 . S
C1221 O1230 1.247 . S
C1221 O1231 1.272 . S
O1222 Co1218 2.004 . S
O1222 C1227 1.259 . S
Co1223 O1224 2.061 . S
Co1223 O1229 2.052 . S
Co1223 O1231 2.135 . S
O1224 Co1223 2.061 . S
O1224 C1227 1.235 . S
C1225 O1228 1.238 . S
C1225 O1229 1.241 . S
C1226 O1219 1.247 . S
C1226 O1220 1.261 . S
C1227 O1222 1.259 . S
C1227 O1224 1.235 . S
O1228 Co1218 2.021 . S
O1228 C1225 1.238 . S
O1229 Co1223 2.052 . S
O1229 C1225 1.241 . S
O1230 Co1218 2.137 . S
O1230 C1221 1.247 . S
O1231 Co1218 2.244 . S
O1231 C1221 1.272 . S
O1231 Co1223 2.135 . S
Co1232 O1233 2.216 . S
Co1232 O1234 2.091 . S
Co1232 O1236 2.004 . S
Co1232 O1242 2.021 . S
Co1232 O1244 2.137 . S
Co1232 O1245 2.244 . S
O1233 Co1232 2.216 . S
O1233 C1240 1.247 . S
O1234 Co1232 2.091 . S
O1234 C1240 1.261 . S
C1235 O1244 1.247 . S
C1235 O1245 1.272 . S
O1236 Co1232 2.004 . S
O1236 C1241 1.259 . S
Co1237 O1238 2.061 . S
Co1237 O1243 2.052 . S
Co1237 O1245 2.135 . S
O1238 Co1237 2.061 . S
O1238 C1241 1.235 . S
C1239 O1242 1.238 . S
C1239 O1243 1.241 . S
C1240 O1233 1.247 . S
C1240 O1234 1.261 . S
C1241 O1236 1.259 . S
C1241 O1238 1.235 . S
O1242 Co1232 2.021 . S
O1242 C1239 1.238 . S
O1243 Co1237 2.052 . S
O1243 C1239 1.241 . S
O1244 Co1232 2.137 . S
O1244 C1235 1.247 . S
O1245 Co1232 2.244 . S
O1245 C1235 1.272 . S
O1245 Co1237 2.135 . S
Co1246 O1247 2.216 . S
Co1246 O1248 2.091 . S
Co1246 O1250 2.004 . S
Co1246 O1256 2.021 . S
Co1246 O1258 2.137 . S
Co1246 O1259 2.244 . S
O1247 Co1246 2.216 . S
O1247 C1254 1.247 . S
O1248 Co1246 2.091 . S
O1248 C1254 1.261 . S
C1249 O1258 1.247 . S
C1249 O1259 1.272 . S
O1250 Co1246 2.004 . S
O1250 C1255 1.259 . S
Co1251 O1252 2.061 . S
Co1251 O1257 2.052 . S
Co1251 O1259 2.135 . S
O1252 Co1251 2.061 . S
O1252 C1255 1.235 . S
C1253 O1256 1.238 . S
C1253 O1257 1.241 . S
C1254 O1247 1.247 . S
C1254 O1248 1.261 . S
C1255 O1250 1.259 . S
C1255 O1252 1.235 . S
O1256 Co1246 2.021 . S
O1256 C1253 1.238 . S
O1257 Co1251 2.052 . S
O1257 C1253 1.241 . S
O1258 Co1246 2.137 . S
O1258 C1249 1.247 . S
O1259 Co1246 2.244 . S
O1259 C1249 1.272 . S
O1259 Co1251 2.135 . S
Co1260 O1261 2.216 . S
Co1260 O1262 2.091 . S
Co1260 O1264 2.004 . S
Co1260 O1270 2.021 . S
Co1260 O1272 2.137 . S
Co1260 O1273 2.244 . S
O1261 Co1260 2.216 . S
O1261 C1268 1.247 . S
O1262 Co1260 2.091 . S
O1262 C1268 1.261 . S
C1263 O1272 1.247 . S
C1263 O1273 1.272 . S
O1264 Co1260 2.004 . S
O1264 C1269 1.259 . S
Co1265 O1266 2.061 . S
Co1265 O1271 2.052 . S
Co1265 O1273 2.135 . S
O1266 Co1265 2.061 . S
O1266 C1269 1.235 . S
C1267 O1270 1.238 . S
C1267 O1271 1.241 . S
C1268 O1261 1.247 . S
C1268 O1262 1.261 . S
C1269 O1264 1.259 . S
C1269 O1266 1.235 . S
O1270 Co1260 2.021 . S
O1270 C1267 1.238 . S
O1271 Co1265 2.052 . S
O1271 C1267 1.241 . S
O1272 Co1260 2.137 . S
O1272 C1263 1.247 . S
O1273 Co1260 2.244 . S
O1273 C1263 1.272 . S
O1273 Co1265 2.135 . S
Co1274 O1275 2.216 . S
Co1274 O1276 2.091 . S
Co1274 O1278 2.004 . S
Co1274 O1284 2.021 . S
Co1274 O1286 2.137 . S
Co1274 O1287 2.244 . S
O1275 Co1274 2.216 . S
O1275 C1282 1.247 . S
O1276 Co1274 2.091 . S
O1276 C1282 1.261 . S
C1277 O1286 1.247 . S
C1277 O1287 1.272 . S
O1278 Co1274 2.004 . S
O1278 C1283 1.259 . S
Co1279 O1280 2.061 . S
Co1279 O1285 2.052 . S
Co1279 O1287 2.135 . S
O1280 Co1279 2.061 . S
O1280 C1283 1.235 . S
C1281 O1284 1.238 . S
C1281 O1285 1.241 . S
C1282 O1275 1.247 . S
C1282 O1276 1.261 . S
C1283 O1278 1.259 . S
C1283 O1280 1.235 . S
O1284 Co1274 2.021 . S
O1284 C1281 1.238 . S
O1285 Co1279 2.052 . S
O1285 C1281 1.241 . S
O1286 Co1274 2.137 . S
O1286 C1277 1.247 . S
O1287 Co1274 2.244 . S
O1287 C1277 1.272 . S
O1287 Co1279 2.135 . S
Co1288 O1289 2.216 . S
Co1288 O1290 2.091 . S
Co1288 O1292 2.004 . S
Co1288 O1298 2.021 . S
Co1288 O1300 2.137 . S
Co1288 O1301 2.244 . S
O1289 Co1288 2.216 . S
O1289 C1296 1.247 . S
O1290 Co1288 2.091 . S
O1290 C1296 1.261 . S
C1291 O1300 1.247 . S
C1291 O1301 1.272 . S
O1292 Co1288 2.004 . S
O1292 C1297 1.259 . S
Co1293 O1294 2.061 . S
Co1293 O1299 2.052 . S
Co1293 O1301 2.135 . S
O1294 Co1293 2.061 . S
O1294 C1297 1.235 . S
C1295 O1298 1.238 . S
C1295 O1299 1.241 . S
C1296 O1289 1.247 . S
C1296 O1290 1.261 . S
C1297 O1292 1.259 . S
C1297 O1294 1.235 . S
O1298 Co1288 2.021 . S
O1298 C1295 1.238 . S
O1299 Co1293 2.052 . S
O1299 C1295 1.241 . S
O1300 Co1288 2.137 . S
O1300 C1291 1.247 . S
O1301 Co1288 2.244 . S
O1301 C1291 1.272 . S
O1301 Co1293 2.135 . S
Co1302 O1303 2.216 . S
Co1302 O1304 2.091 . S
Co1302 O1306 2.004 . S
Co1302 O1312 2.021 . S
Co1302 O1314 2.137 . S
Co1302 O1315 2.244 . S
O1303 Co1302 2.216 . S
O1303 C1310 1.247 . S
O1304 Co1302 2.091 . S
O1304 C1310 1.261 . S
C1305 O1314 1.247 . S
C1305 O1315 1.272 . S
O1306 Co1302 2.004 . S
O1306 C1311 1.259 . S
Co1307 O1308 2.061 . S
Co1307 O1313 2.052 . S
Co1307 O1315 2.135 . S
O1308 Co1307 2.061 . S
O1308 C1311 1.235 . S
C1309 O1312 1.238 . S
C1309 O1313 1.241 . S
C1310 O1303 1.247 . S
C1310 O1304 1.261 . S
C1311 O1306 1.259 . S
C1311 O1308 1.235 . S
O1312 Co1302 2.021 . S
O1312 C1309 1.238 . S
O1313 Co1307 2.052 . S
O1313 C1309 1.241 . S
O1314 Co1302 2.137 . S
O1314 C1305 1.247 . S
O1315 Co1302 2.244 . S
O1315 C1305 1.272 . S
O1315 Co1307 2.135 . S
Co1316 O1317 2.216 . S
Co1316 O1318 2.091 . S
Co1316 O1320 2.004 . S
Co1316 O1326 2.021 . S
Co1316 O1328 2.137 . S
Co1316 O1329 2.244 . S
O1317 Co1316 2.216 . S
O1317 C1324 1.247 . S
O1318 Co1316 2.091 . S
O1318 C1324 1.261 . S
C1319 O1328 1.247 . S
C1319 O1329 1.272 . S
O1320 Co1316 2.004 . S
O1320 C1325 1.259 . S
Co1321 O1322 2.061 . S
Co1321 O1327 2.052 . S
Co1321 O1329 2.135 . S
O1322 Co1321 2.061 . S
O1322 C1325 1.235 . S
C1323 O1326 1.238 . S
C1323 O1327 1.241 . S
C1324 O1317 1.247 . S
C1324 O1318 1.261 . S
C1325 O1320 1.259 . S
C1325 O1322 1.235 . S
O1326 Co1316 2.021 . S
O1326 C1323 1.238 . S
O1327 Co1321 2.052 . S
O1327 C1323 1.241 . S
O1328 Co1316 2.137 . S
O1328 C1319 1.247 . S
O1329 Co1316 2.244 . S
O1329 C1319 1.272 . S
O1329 Co1321 2.135 . S
Co1330 O1331 2.216 . S
Co1330 O1332 2.091 . S
Co1330 O1334 2.004 . S
Co1330 O1340 2.021 . S
Co1330 O1342 2.137 . S
Co1330 O1343 2.244 . S
O1331 Co1330 2.216 . S
O1331 C1338 1.247 . S
O1332 Co1330 2.091 . S
O1332 C1338 1.261 . S
C1333 O1342 1.247 . S
C1333 O1343 1.272 . S
O1334 Co1330 2.004 . S
O1334 C1339 1.259 . S
Co1335 O1336 2.061 . S
Co1335 O1341 2.052 . S
Co1335 O1343 2.135 . S
O1336 Co1335 2.061 . S
O1336 C1339 1.235 . S
C1337 O1340 1.238 . S
C1337 O1341 1.241 . S
C1338 O1331 1.247 . S
C1338 O1332 1.261 . S
C1339 O1334 1.259 . S
C1339 O1336 1.235 . S
O1340 Co1330 2.021 . S
O1340 C1337 1.238 . S
O1341 Co1335 2.052 . S
O1341 C1337 1.241 . S
O1342 Co1330 2.137 . S
O1342 C1333 1.247 . S
O1343 Co1330 2.244 . S
O1343 C1333 1.272 . S
O1343 Co1335 2.135 . S
C1344 C1345 1.387 . S
C1344 H1348 0.950 . S
C1344 C1353 1.390 . S
C1345 C1344 1.387 . S
C1345 C1347 1.387 . S
H1346 C1353 0.950 . S
C1347 C1345 1.387 . S
C1347 C1349 1.390 . S
C1347 H1351 0.950 . S
H1348 C1344 0.950 . S
C1349 C1347 1.390 . S
C1349 C1350 1.387 . S
C1349 H1352 0.950 . S
C1350 C1349 1.387 . S
C1350 C1353 1.387 . S
H1351 C1347 0.950 . S
H1352 C1349 0.950 . S
C1353 C1344 1.390 . S
C1353 H1346 0.950 . S
C1353 C1350 1.387 . S
C1354 C1355 1.387 . S
C1354 H1358 0.950 . S
C1354 C1363 1.390 . S
C1355 C1354 1.387 . S
C1355 C1357 1.387 . S
H1356 C1363 0.950 . S
C1357 C1355 1.387 . S
C1357 C1359 1.390 . S
C1357 H1361 0.950 . S
H1358 C1354 0.950 . S
C1359 C1357 1.390 . S
C1359 C1360 1.387 . S
C1359 H1362 0.950 . S
C1360 C1359 1.387 . S
C1360 C1363 1.387 . S
H1361 C1357 0.950 . S
H1362 C1359 0.950 . S
C1363 C1354 1.390 . S
C1363 H1356 0.950 . S
C1363 C1360 1.387 . S
C1364 C1365 1.387 . S
C1364 H1368 0.950 . S
C1364 C1373 1.390 . S
C1365 C1364 1.387 . S
C1365 C1367 1.387 . S
H1366 C1373 0.950 . S
C1367 C1365 1.387 . S
C1367 C1369 1.390 . S
C1367 H1371 0.950 . S
H1368 C1364 0.950 . S
C1369 C1367 1.390 . S
C1369 C1370 1.387 . S
C1369 H1372 0.950 . S
C1370 C1369 1.387 . S
C1370 C1373 1.387 . S
H1371 C1367 0.950 . S
H1372 C1369 0.950 . S
C1373 C1364 1.390 . S
C1373 H1366 0.950 . S
C1373 C1370 1.387 . S
C1374 C1375 1.387 . S
C1374 H1378 0.950 . S
C1374 C1383 1.390 . S
C1375 C1374 1.387 . S
C1375 C1377 1.387 . S
H1376 C1383 0.950 . S
C1377 C1375 1.387 . S
C1377 C1379 1.390 . S
C1377 H1381 0.950 . S
H1378 C1374 0.950 . S
C1379 C1377 1.390 . S
C1379 C1380 1.387 . S
C1379 H1382 0.950 . S
C1380 C1379 1.387 . S
C1380 C1383 1.387 . S
H1381 C1377 0.950 . S
H1382 C1379 0.950 . S
C1383 C1374 1.390 . S
C1383 H1376 0.950 . S
C1383 C1380 1.387 . S
C1384 C1385 1.387 . S
C1384 H1388 0.950 . S
C1384 C1393 1.390 . S
C1385 C1384 1.387 . S
C1385 C1387 1.387 . S
H1386 C1393 0.950 . S
C1387 C1385 1.387 . S
C1387 C1389 1.390 . S
C1387 H1391 0.950 . S
H1388 C1384 0.950 . S
C1389 C1387 1.390 . S
C1389 C1390 1.387 . S
C1389 H1392 0.950 . S
C1390 C1389 1.387 . S
C1390 C1393 1.387 . S
H1391 C1387 0.950 . S
H1392 C1389 0.950 . S
C1393 C1384 1.390 . S
C1393 H1386 0.950 . S
C1393 C1390 1.387 . S
C1394 C1395 1.387 . S
C1394 H1398 0.950 . S
C1394 C1403 1.390 . S
C1395 C1394 1.387 . S
C1395 C1397 1.387 . S
H1396 C1403 0.950 . S
C1397 C1395 1.387 . S
C1397 C1399 1.390 . S
C1397 H1401 0.950 . S
H1398 C1394 0.950 . S
C1399 C1397 1.390 . S
C1399 C1400 1.387 . S
C1399 H1402 0.950 . S
C1400 C1399 1.387 . S
C1400 C1403 1.387 . S
H1401 C1397 0.950 . S
H1402 C1399 0.950 . S
C1403 C1394 1.390 . S
C1403 H1396 0.950 . S
C1403 C1400 1.387 . S
C1404 C1405 1.387 . S
C1404 H1408 0.950 . S
C1404 C1413 1.390 . S
C1405 C1404 1.387 . S
C1405 C1407 1.387 . S
H1406 C1413 0.950 . S
C1407 C1405 1.387 . S
C1407 C1409 1.390 . S
C1407 H1411 0.950 . S
H1408 C1404 0.950 . S
C1409 C1407 1.390 . S
C1409 C1410 1.387 . S
C1409 H1412 0.950 . S
C1410 C1409 1.387 . S
C1410 C1413 1.387 . S
H1411 C1407 0.950 . S
H1412 C1409 0.950 . S
C1413 C1404 1.390 . S
C1413 H1406 0.950 . S
C1413 C1410 1.387 . S
C1414 C1415 1.387 . S
C1414 H1418 0.950 . S
C1414 C1423 1.390 . S
C1415 C1414 1.387 . S
C1415 C1417 1.387 . S
H1416 C1423 0.950 . S
C1417 C1415 1.387 . S
C1417 C1419 1.390 . S
C1417 H1421 0.950 . S
H1418 C1414 0.950 . S
C1419 C1417 1.390 . S
C1419 C1420 1.387 . S
C1419 H1422 0.950 . S
C1420 C1419 1.387 . S
C1420 C1423 1.387 . S
H1421 C1417 0.950 . S
H1422 C1419 0.950 . S
C1423 C1414 1.390 . S
C1423 H1416 0.950 . S
C1423 C1420 1.387 . S
C1424 C1425 1.387 . S
C1424 H1428 0.950 . S
C1424 C1433 1.390 . S
C1425 C1424 1.387 . S
C1425 C1427 1.387 . S
H1426 C1433 0.950 . S
C1427 C1425 1.387 . S
C1427 C1429 1.390 . S
C1427 H1431 0.950 . S
H1428 C1424 0.950 . S
C1429 C1427 1.390 . S
C1429 C1430 1.387 . S
C1429 H1432 0.950 . S
C1430 C1429 1.387 . S
C1430 C1433 1.387 . S
H1431 C1427 0.950 . S
H1432 C1429 0.950 . S
C1433 C1424 1.390 . S
C1433 H1426 0.950 . S
C1433 C1430 1.387 . S
C1434 C1435 1.387 . S
C1434 H1438 0.950 . S
C1434 C1443 1.390 . S
C1435 C1434 1.387 . S
C1435 C1437 1.387 . S
H1436 C1443 0.950 . S
C1437 C1435 1.387 . S
C1437 C1439 1.390 . S
C1437 H1441 0.950 . S
H1438 C1434 0.950 . S
C1439 C1437 1.390 . S
C1439 C1440 1.387 . S
C1439 H1442 0.950 . S
C1440 C1439 1.387 . S
C1440 C1443 1.387 . S
H1441 C1437 0.950 . S
H1442 C1439 0.950 . S
C1443 C1434 1.390 . S
C1443 H1436 0.950 . S
C1443 C1440 1.387 . S
C1444 C1445 1.387 . S
C1444 H1448 0.950 . S
C1444 C1453 1.390 . S
C1445 C1444 1.387 . S
C1445 C1447 1.387 . S
H1446 C1453 0.950 . S
C1447 C1445 1.387 . S
C1447 C1449 1.390 . S
C1447 H1451 0.950 . S
H1448 C1444 0.950 . S
C1449 C1447 1.390 . S
C1449 C1450 1.387 . S
C1449 H1452 0.950 . S
C1450 C1449 1.387 . S
C1450 C1453 1.387 . S
H1451 C1447 0.950 . S
H1452 C1449 0.950 . S
C1453 C1444 1.390 . S
C1453 H1446 0.950 . S
C1453 C1450 1.387 . S
C1454 C1455 1.387 . S
C1454 H1458 0.950 . S
C1454 C1463 1.390 . S
C1455 C1454 1.387 . S
C1455 C1457 1.387 . S
H1456 C1463 0.950 . S
C1457 C1455 1.387 . S
C1457 C1459 1.390 . S
C1457 H1461 0.950 . S
H1458 C1454 0.950 . S
C1459 C1457 1.390 . S
C1459 C1460 1.387 . S
C1459 H1462 0.950 . S
C1460 C1459 1.387 . S
C1460 C1463 1.387 . S
H1461 C1457 0.950 . S
H1462 C1459 0.950 . S
C1463 C1454 1.390 . S
C1463 H1456 0.950 . S
C1463 C1460 1.387 . S
C1464 C1465 1.387 . S
C1464 H1468 0.950 . S
C1464 C1473 1.390 . S
C1465 C1464 1.387 . S
C1465 C1467 1.387 . S
H1466 C1473 0.950 . S
C1467 C1465 1.387 . S
C1467 C1469 1.390 . S
C1467 H1471 0.950 . S
H1468 C1464 0.950 . S
C1469 C1467 1.390 . S
C1469 C1470 1.387 . S
C1469 H1472 0.950 . S
C1470 C1469 1.387 . S
C1470 C1473 1.387 . S
H1471 C1467 0.950 . S
H1472 C1469 0.950 . S
C1473 C1464 1.390 . S
C1473 H1466 0.950 . S
C1473 C1470 1.387 . S
C1474 C1475 1.387 . S
C1474 H1478 0.950 . S
C1474 C1483 1.390 . S
C1475 C1474 1.387 . S
C1475 C1477 1.387 . S
H1476 C1483 0.950 . S
C1477 C1475 1.387 . S
C1477 C1479 1.390 . S
C1477 H1481 0.950 . S
H1478 C1474 0.950 . S
C1479 C1477 1.390 . S
C1479 C1480 1.387 . S
C1479 H1482 0.950 . S
C1480 C1479 1.387 . S
C1480 C1483 1.387 . S
H1481 C1477 0.950 . S
H1482 C1479 0.950 . S
C1483 C1474 1.390 . S
C1483 H1476 0.950 . S
C1483 C1480 1.387 . S
C1484 C1485 1.387 . S
C1484 H1488 0.950 . S
C1484 C1493 1.390 . S
C1485 C1484 1.387 . S
C1485 C1487 1.387 . S
H1486 C1493 0.950 . S
C1487 C1485 1.387 . S
C1487 C1489 1.390 . S
C1487 H1491 0.950 . S
H1488 C1484 0.950 . S
C1489 C1487 1.390 . S
C1489 C1490 1.387 . S
C1489 H1492 0.950 . S
C1490 C1489 1.387 . S
C1490 C1493 1.387 . S
H1491 C1487 0.950 . S
H1492 C1489 0.950 . S
C1493 C1484 1.390 . S
C1493 H1486 0.950 . S
C1493 C1490 1.387 . S
C1494 C1495 1.387 . S
C1494 H1498 0.950 . S
C1494 C1503 1.390 . S
C1495 C1494 1.387 . S
C1495 C1497 1.387 . S
H1496 C1503 0.950 . S
C1497 C1495 1.387 . S
C1497 C1499 1.390 . S
C1497 H1501 0.950 . S
H1498 C1494 0.950 . S
C1499 C1497 1.390 . S
C1499 C1500 1.387 . S
C1499 H1502 0.950 . S
C1500 C1499 1.387 . S
C1500 C1503 1.387 . S
H1501 C1497 0.950 . S
H1502 C1499 0.950 . S
C1503 C1494 1.390 . S
C1503 H1496 0.950 . S
C1503 C1500 1.387 . S
C1504 C1505 1.387 . S
C1504 H1508 0.950 . S
C1504 C1513 1.390 . S
C1505 C1504 1.387 . S
C1505 C1507 1.387 . S
H1506 C1513 0.950 . S
C1507 C1505 1.387 . S
C1507 C1509 1.390 . S
C1507 H1511 0.950 . S
H1508 C1504 0.950 . S
C1509 C1507 1.390 . S
C1509 C1510 1.387 . S
C1509 H1512 0.950 . S
C1510 C1509 1.387 . S
C1510 C1513 1.387 . S
H1511 C1507 0.950 . S
H1512 C1509 0.950 . S
C1513 C1504 1.390 . S
C1513 H1506 0.950 . S
C1513 C1510 1.387 . S
C1514 C1515 1.387 . S
C1514 H1518 0.950 . S
C1514 C1523 1.390 . S
C1515 C1514 1.387 . S
C1515 C1517 1.387 . S
H1516 C1523 0.950 . S
C1517 C1515 1.387 . S
C1517 C1519 1.390 . S
C1517 H1521 0.950 . S
H1518 C1514 0.950 . S
C1519 C1517 1.390 . S
C1519 C1520 1.387 . S
C1519 H1522 0.950 . S
C1520 C1519 1.387 . S
C1520 C1523 1.387 . S
H1521 C1517 0.950 . S
H1522 C1519 0.950 . S
C1523 C1514 1.390 . S
C1523 H1516 0.950 . S
C1523 C1520 1.387 . S
C1524 C1525 1.387 . S
C1524 H1528 0.950 . S
C1524 C1533 1.390 . S
C1525 C1524 1.387 . S
C1525 C1527 1.387 . S
H1526 C1533 0.950 . S
C1527 C1525 1.387 . S
C1527 C1529 1.390 . S
C1527 H1531 0.950 . S
H1528 C1524 0.950 . S
C1529 C1527 1.390 . S
C1529 C1530 1.387 . S
C1529 H1532 0.950 . S
C1530 C1529 1.387 . S
C1530 C1533 1.387 . S
H1531 C1527 0.950 . S
H1532 C1529 0.950 . S
C1533 C1524 1.390 . S
C1533 H1526 0.950 . S
C1533 C1530 1.387 . S
C1534 C1535 1.387 . S
C1534 H1538 0.950 . S
C1534 C1543 1.390 . S
C1535 C1534 1.387 . S
C1535 C1537 1.387 . S
H1536 C1543 0.950 . S
C1537 C1535 1.387 . S
C1537 C1539 1.390 . S
C1537 H1541 0.950 . S
H1538 C1534 0.950 . S
C1539 C1537 1.390 . S
C1539 C1540 1.387 . S
C1539 H1542 0.950 . S
C1540 C1539 1.387 . S
C1540 C1543 1.387 . S
H1541 C1537 0.950 . S
H1542 C1539 0.950 . S
C1543 C1534 1.390 . S
C1543 H1536 0.950 . S
C1543 C1540 1.387 . S
C1544 C1545 1.387 . S
C1544 H1548 0.950 . S
C1544 C1553 1.390 . S
C1545 C1544 1.387 . S
C1545 C1547 1.387 . S
H1546 C1553 0.950 . S
C1547 C1545 1.387 . S
C1547 C1549 1.390 . S
C1547 H1551 0.950 . S
H1548 C1544 0.950 . S
C1549 C1547 1.390 . S
C1549 C1550 1.387 . S
C1549 H1552 0.950 . S
C1550 C1549 1.387 . S
C1550 C1553 1.387 . S
H1551 C1547 0.950 . S
H1552 C1549 0.950 . S
C1553 C1544 1.390 . S
C1553 H1546 0.950 . S
C1553 C1550 1.387 . S
C1554 C1555 1.387 . S
C1554 H1558 0.950 . S
C1554 C1563 1.390 . S
C1555 C1554 1.387 . S
C1555 C1557 1.387 . S
H1556 C1563 0.950 . S
C1557 C1555 1.387 . S
C1557 C1559 1.390 . S
C1557 H1561 0.950 . S
H1558 C1554 0.950 . S
C1559 C1557 1.390 . S
C1559 C1560 1.387 . S
C1559 H1562 0.950 . S
C1560 C1559 1.387 . S
C1560 C1563 1.387 . S
H1561 C1557 0.950 . S
H1562 C1559 0.950 . S
C1563 C1554 1.390 . S
C1563 H1556 0.950 . S
C1563 C1560 1.387 . S
C1564 C1565 1.387 . S
C1564 H1568 0.950 . S
C1564 C1573 1.390 . S
C1565 C1564 1.387 . S
C1565 C1567 1.387 . S
H1566 C1573 0.950 . S
C1567 C1565 1.387 . S
C1567 C1569 1.390 . S
C1567 H1571 0.950 . S
H1568 C1564 0.950 . S
C1569 C1567 1.390 . S
C1569 C1570 1.387 . S
C1569 H1572 0.950 . S
C1570 C1569 1.387 . S
C1570 C1573 1.387 . S
H1571 C1567 0.950 . S
H1572 C1569 0.950 . S
C1573 C1564 1.390 . S
C1573 H1566 0.950 . S
C1573 C1570 1.387 . S
C1574 C1575 1.387 . S
C1574 H1578 0.950 . S
C1574 C1583 1.390 . S
C1575 C1574 1.387 . S
C1575 C1577 1.387 . S
H1576 C1583 0.950 . S
C1577 C1575 1.387 . S
C1577 C1579 1.390 . S
C1577 H1581 0.950 . S
H1578 C1574 0.950 . S
C1579 C1577 1.390 . S
C1579 C1580 1.387 . S
C1579 H1582 0.950 . S
C1580 C1579 1.387 . S
C1580 C1583 1.387 . S
H1581 C1577 0.950 . S
H1582 C1579 0.950 . S
C1583 C1574 1.390 . S
C1583 H1576 0.950 . S
C1583 C1580 1.387 . S
C1584 C1585 1.387 . S
C1584 H1588 0.950 . S
C1584 C1593 1.390 . S
C1585 C1584 1.387 . S
C1585 C1587 1.387 . S
H1586 C1593 0.950 . S
C1587 C1585 1.387 . S
C1587 C1589 1.390 . S
C1587 H1591 0.950 . S
H1588 C1584 0.950 . S
C1589 C1587 1.390 . S
C1589 C1590 1.387 . S
C1589 H1592 0.950 . S
C1590 C1589 1.387 . S
C1590 C1593 1.387 . S
H1591 C1587 0.950 . S
H1592 C1589 0.950 . S
C1593 C1584 1.390 . S
C1593 H1586 0.950 . S
C1593 C1590 1.387 . S
C1594 C1595 1.387 . S
C1594 H1598 0.950 . S
C1594 C1603 1.390 . S
C1595 C1594 1.387 . S
C1595 C1597 1.387 . S
H1596 C1603 0.950 . S
C1597 C1595 1.387 . S
C1597 C1599 1.390 . S
C1597 H1601 0.950 . S
H1598 C1594 0.950 . S
C1599 C1597 1.390 . S
C1599 C1600 1.387 . S
C1599 H1602 0.950 . S
C1600 C1599 1.387 . S
C1600 C1603 1.387 . S
H1601 C1597 0.950 . S
H1602 C1599 0.950 . S
C1603 C1594 1.390 . S
C1603 H1596 0.950 . S
C1603 C1600 1.387 . S
C1604 C1605 1.387 . S
C1604 H1608 0.950 . S
C1604 C1613 1.390 . S
C1605 C1604 1.387 . S
C1605 C1607 1.387 . S
H1606 C1613 0.950 . S
C1607 C1605 1.387 . S
C1607 C1609 1.390 . S
C1607 H1611 0.950 . S
H1608 C1604 0.950 . S
C1609 C1607 1.390 . S
C1609 C1610 1.387 . S
C1609 H1612 0.950 . S
C1610 C1609 1.387 . S
C1610 C1613 1.387 . S
H1611 C1607 0.950 . S
H1612 C1609 0.950 . S
C1613 C1604 1.390 . S
C1613 H1606 0.950 . S
C1613 C1610 1.387 . S
C1614 C1615 1.387 . S
C1614 H1618 0.950 . S
C1614 C1623 1.390 . S
C1615 C1614 1.387 . S
C1615 C1617 1.387 . S
H1616 C1623 0.950 . S
C1617 C1615 1.387 . S
C1617 C1619 1.390 . S
C1617 H1621 0.950 . S
H1618 C1614 0.950 . S
C1619 C1617 1.390 . S
C1619 C1620 1.387 . S
C1619 H1622 0.950 . S
C1620 C1619 1.387 . S
C1620 C1623 1.387 . S
H1621 C1617 0.950 . S
H1622 C1619 0.950 . S
C1623 C1614 1.390 . S
C1623 H1616 0.950 . S
C1623 C1620 1.387 . S
C1624 C1625 1.387 . S
C1624 H1628 0.950 . S
C1624 C1633 1.390 . S
C1625 C1624 1.387 . S
C1625 C1627 1.387 . S
H1626 C1633 0.950 . S
C1627 C1625 1.387 . S
C1627 C1629 1.390 . S
C1627 H1631 0.950 . S
H1628 C1624 0.950 . S
C1629 C1627 1.390 . S
C1629 C1630 1.387 . S
C1629 H1632 0.950 . S
C1630 C1629 1.387 . S
C1630 C1633 1.387 . S
H1631 C1627 0.950 . S
H1632 C1629 0.950 . S
C1633 C1624 1.390 . S
C1633 H1626 0.950 . S
C1633 C1630 1.387 . S
C1634 C1635 1.387 . S
C1634 H1638 0.950 . S
C1634 C1643 1.390 . S
C1635 C1634 1.387 . S
C1635 C1637 1.387 . S
H1636 C1643 0.950 . S
C1637 C1635 1.387 . S
C1637 C1639 1.390 . S
C1637 H1641 0.950 . S
H1638 C1634 0.950 . S
C1639 C1637 1.390 . S
C1639 C1640 1.387 . S
C1639 H1642 0.950 . S
C1640 C1639 1.387 . S
C1640 C1643 1.387 . S
H1641 C1637 0.950 . S
H1642 C1639 0.950 . S
C1643 C1634 1.390 . S
C1643 H1636 0.950 . S
C1643 C1640 1.387 . S
C1644 C1645 1.387 . S
C1644 H1648 0.950 . S
C1644 C1653 1.390 . S
C1645 C1644 1.387 . S
C1645 C1647 1.387 . S
H1646 C1653 0.950 . S
C1647 C1645 1.387 . S
C1647 C1649 1.390 . S
C1647 H1651 0.950 . S
H1648 C1644 0.950 . S
C1649 C1647 1.390 . S
C1649 C1650 1.387 . S
C1649 H1652 0.950 . S
C1650 C1649 1.387 . S
C1650 C1653 1.387 . S
H1651 C1647 0.950 . S
H1652 C1649 0.950 . S
C1653 C1644 1.390 . S
C1653 H1646 0.950 . S
C1653 C1650 1.387 . S
C1654 C1655 1.387 . S
C1654 H1658 0.950 . S
C1654 C1663 1.390 . S
C1655 C1654 1.387 . S
C1655 C1657 1.387 . S
H1656 C1663 0.950 . S
C1657 C1655 1.387 . S
C1657 C1659 1.390 . S
C1657 H1661 0.950 . S
H1658 C1654 0.950 . S
C1659 C1657 1.390 . S
C1659 C1660 1.387 . S
C1659 H1662 0.950 . S
C1660 C1659 1.387 . S
C1660 C1663 1.387 . S
H1661 C1657 0.950 . S
H1662 C1659 0.950 . S
C1663 C1654 1.390 . S
C1663 H1656 0.950 . S
C1663 C1660 1.387 . S
C1664 C1665 1.387 . S
C1664 H1668 0.950 . S
C1664 C1673 1.390 . S
C1665 C1664 1.387 . S
C1665 C1667 1.387 . S
H1666 C1673 0.950 . S
C1667 C1665 1.387 . S
C1667 C1669 1.390 . S
C1667 H1671 0.950 . S
H1668 C1664 0.950 . S
C1669 C1667 1.390 . S
C1669 C1670 1.387 . S
C1669 H1672 0.950 . S
C1670 C1669 1.387 . S
C1670 C1673 1.387 . S
H1671 C1667 0.950 . S
H1672 C1669 0.950 . S
C1673 C1664 1.390 . S
C1673 H1666 0.950 . S
C1673 C1670 1.387 . S
C1674 C1675 1.387 . S
C1674 H1678 0.950 . S
C1674 C1683 1.390 . S
C1675 C1674 1.387 . S
C1675 C1677 1.387 . S
H1676 C1683 0.950 . S
C1677 C1675 1.387 . S
C1677 C1679 1.390 . S
C1677 H1681 0.950 . S
H1678 C1674 0.950 . S
C1679 C1677 1.390 . S
C1679 C1680 1.387 . S
C1679 H1682 0.950 . S
C1680 C1679 1.387 . S
C1680 C1683 1.387 . S
H1681 C1677 0.950 . S
H1682 C1679 0.950 . S
C1683 C1674 1.390 . S
C1683 H1676 0.950 . S
C1683 C1680 1.387 . S
C1684 C1685 1.387 . S
C1684 H1688 0.950 . S
C1684 C1693 1.390 . S
C1685 C1684 1.387 . S
C1685 C1687 1.387 . S
H1686 C1693 0.950 . S
C1687 C1685 1.387 . S
C1687 C1689 1.390 . S
C1687 H1691 0.950 . S
H1688 C1684 0.950 . S
C1689 C1687 1.390 . S
C1689 C1690 1.387 . S
C1689 H1692 0.950 . S
C1690 C1689 1.387 . S
C1690 C1693 1.387 . S
H1691 C1687 0.950 . S
H1692 C1689 0.950 . S
C1693 C1684 1.390 . S
C1693 H1686 0.950 . S
C1693 C1690 1.387 . S
C1694 C1695 1.387 . S
C1694 H1698 0.950 . S
C1694 C1703 1.390 . S
C1695 C1694 1.387 . S
C1695 C1697 1.387 . S
H1696 C1703 0.950 . S
C1697 C1695 1.387 . S
C1697 C1699 1.390 . S
C1697 H1701 0.950 . S
H1698 C1694 0.950 . S
C1699 C1697 1.390 . S
C1699 C1700 1.387 . S
C1699 H1702 0.950 . S
C1700 C1699 1.387 . S
C1700 C1703 1.387 . S
H1701 C1697 0.950 . S
H1702 C1699 0.950 . S
C1703 C1694 1.390 . S
C1703 H1696 0.950 . S
C1703 C1700 1.387 . S
C1704 C1705 1.387 . S
C1704 H1708 0.950 . S
C1704 C1713 1.390 . S
C1705 C1704 1.387 . S
C1705 C1707 1.387 . S
H1706 C1713 0.950 . S
C1707 C1705 1.387 . S
C1707 C1709 1.390 . S
C1707 H1711 0.950 . S
H1708 C1704 0.950 . S
C1709 C1707 1.390 . S
C1709 C1710 1.387 . S
C1709 H1712 0.950 . S
C1710 C1709 1.387 . S
C1710 C1713 1.387 . S
H1711 C1707 0.950 . S
H1712 C1709 0.950 . S
C1713 C1704 1.390 . S
C1713 H1706 0.950 . S
C1713 C1710 1.387 . S
C1714 C1715 1.387 . S
C1714 H1718 0.950 . S
C1714 C1723 1.390 . S
C1715 C1714 1.387 . S
C1715 C1717 1.387 . S
H1716 C1723 0.950 . S
C1717 C1715 1.387 . S
C1717 C1719 1.390 . S
C1717 H1721 0.950 . S
H1718 C1714 0.950 . S
C1719 C1717 1.390 . S
C1719 C1720 1.387 . S
C1719 H1722 0.950 . S
C1720 C1719 1.387 . S
C1720 C1723 1.387 . S
H1721 C1717 0.950 . S
H1722 C1719 0.950 . S
C1723 C1714 1.390 . S
C1723 H1716 0.950 . S
C1723 C1720 1.387 . S
C1724 C1725 1.387 . S
C1724 H1728 0.950 . S
C1724 C1733 1.390 . S
C1725 C1724 1.387 . S
C1725 C1727 1.387 . S
H1726 C1733 0.950 . S
C1727 C1725 1.387 . S
C1727 C1729 1.390 . S
C1727 H1731 0.950 . S
H1728 C1724 0.950 . S
C1729 C1727 1.390 . S
C1729 C1730 1.387 . S
C1729 H1732 0.950 . S
C1730 C1729 1.387 . S
C1730 C1733 1.387 . S
H1731 C1727 0.950 . S
H1732 C1729 0.950 . S
C1733 C1724 1.390 . S
C1733 H1726 0.950 . S
C1733 C1730 1.387 . S
C1734 C1735 1.387 . S
C1734 H1738 0.950 . S
C1734 C1743 1.390 . S
C1735 C1734 1.387 . S
C1735 C1737 1.387 . S
H1736 C1743 0.950 . S
C1737 C1735 1.387 . S
C1737 C1739 1.390 . S
C1737 H1741 0.950 . S
H1738 C1734 0.950 . S
C1739 C1737 1.390 . S
C1739 C1740 1.387 . S
C1739 H1742 0.950 . S
C1740 C1739 1.387 . S
C1740 C1743 1.387 . S
H1741 C1737 0.950 . S
H1742 C1739 0.950 . S
C1743 C1734 1.390 . S
C1743 H1736 0.950 . S
C1743 C1740 1.387 . S
C1744 C1745 1.387 . S
C1744 H1748 0.950 . S
C1744 C1753 1.390 . S
C1745 C1744 1.387 . S
C1745 C1747 1.387 . S
H1746 C1753 0.950 . S
C1747 C1745 1.387 . S
C1747 C1749 1.390 . S
C1747 H1751 0.950 . S
H1748 C1744 0.950 . S
C1749 C1747 1.390 . S
C1749 C1750 1.387 . S
C1749 H1752 0.950 . S
C1750 C1749 1.387 . S
C1750 C1753 1.387 . S
H1751 C1747 0.950 . S
H1752 C1749 0.950 . S
C1753 C1744 1.390 . S
C1753 H1746 0.950 . S
C1753 C1750 1.387 . S
C1754 C1755 1.387 . S
C1754 H1758 0.950 . S
C1754 C1763 1.390 . S
C1755 C1754 1.387 . S
C1755 C1757 1.387 . S
H1756 C1763 0.950 . S
C1757 C1755 1.387 . S
C1757 C1759 1.390 . S
C1757 H1761 0.950 . S
H1758 C1754 0.950 . S
C1759 C1757 1.390 . S
C1759 C1760 1.387 . S
C1759 H1762 0.950 . S
C1760 C1759 1.387 . S
C1760 C1763 1.387 . S
H1761 C1757 0.950 . S
H1762 C1759 0.950 . S
C1763 C1754 1.390 . S
C1763 H1756 0.950 . S
C1763 C1760 1.387 . S
C1764 C1765 1.387 . S
C1764 H1768 0.950 . S
C1764 C1773 1.390 . S
C1765 C1764 1.387 . S
C1765 C1767 1.387 . S
H1766 C1773 0.950 . S
C1767 C1765 1.387 . S
C1767 C1769 1.390 . S
C1767 H1771 0.950 . S
H1768 C1764 0.950 . S
C1769 C1767 1.390 . S
C1769 C1770 1.387 . S
C1769 H1772 0.950 . S
C1770 C1769 1.387 . S
C1770 C1773 1.387 . S
H1771 C1767 0.950 . S
H1772 C1769 0.950 . S
C1773 C1764 1.390 . S
C1773 H1766 0.950 . S
C1773 C1770 1.387 . S
C1774 C1775 1.387 . S
C1774 H1778 0.950 . S
C1774 C1783 1.390 . S
C1775 C1774 1.387 . S
C1775 C1777 1.387 . S
H1776 C1783 0.950 . S
C1777 C1775 1.387 . S
C1777 C1779 1.390 . S
C1777 H1781 0.950 . S
H1778 C1774 0.950 . S
C1779 C1777 1.390 . S
C1779 C1780 1.387 . S
C1779 H1782 0.950 . S
C1780 C1779 1.387 . S
C1780 C1783 1.387 . S
H1781 C1777 0.950 . S
H1782 C1779 0.950 . S
C1783 C1774 1.390 . S
C1783 H1776 0.950 . S
C1783 C1780 1.387 . S
C1784 C1785 1.387 . S
C1784 H1788 0.950 . S
C1784 C1793 1.390 . S
C1785 C1784 1.387 . S
C1785 C1787 1.387 . S
H1786 C1793 0.950 . S
C1787 C1785 1.387 . S
C1787 C1789 1.390 . S
C1787 H1791 0.950 . S
H1788 C1784 0.950 . S
C1789 C1787 1.390 . S
C1789 C1790 1.387 . S
C1789 H1792 0.950 . S
C1790 C1789 1.387 . S
C1790 C1793 1.387 . S
H1791 C1787 0.950 . S
H1792 C1789 0.950 . S
C1793 C1784 1.390 . S
C1793 H1786 0.950 . S
C1793 C1790 1.387 . S
C1794 C1795 1.387 . S
C1794 H1798 0.950 . S
C1794 C1803 1.390 . S
C1795 C1794 1.387 . S
C1795 C1797 1.387 . S
H1796 C1803 0.950 . S
C1797 C1795 1.387 . S
C1797 C1799 1.390 . S
C1797 H1801 0.950 . S
H1798 C1794 0.950 . S
C1799 C1797 1.390 . S
C1799 C1800 1.387 . S
C1799 H1802 0.950 . S
C1800 C1799 1.387 . S
C1800 C1803 1.387 . S
H1801 C1797 0.950 . S
H1802 C1799 0.950 . S
C1803 C1794 1.390 . S
C1803 H1796 0.950 . S
C1803 C1800 1.387 . S
C1804 C1805 1.387 . S
C1804 H1808 0.950 . S
C1804 C1813 1.390 . S
C1805 C1804 1.387 . S
C1805 C1807 1.387 . S
H1806 C1813 0.950 . S
C1807 C1805 1.387 . S
C1807 C1809 1.390 . S
C1807 H1811 0.950 . S
H1808 C1804 0.950 . S
C1809 C1807 1.390 . S
C1809 C1810 1.387 . S
C1809 H1812 0.950 . S
C1810 C1809 1.387 . S
C1810 C1813 1.387 . S
H1811 C1807 0.950 . S
H1812 C1809 0.950 . S
C1813 C1804 1.390 . S
C1813 H1806 0.950 . S
C1813 C1810 1.387 . S
C1814 C1815 1.387 . S
C1814 H1818 0.950 . S
C1814 C1823 1.390 . S
C1815 C1814 1.387 . S
C1815 C1817 1.387 . S
H1816 C1823 0.950 . S
C1817 C1815 1.387 . S
C1817 C1819 1.390 . S
C1817 H1821 0.950 . S
H1818 C1814 0.950 . S
C1819 C1817 1.390 . S
C1819 C1820 1.387 . S
C1819 H1822 0.950 . S
C1820 C1819 1.387 . S
C1820 C1823 1.387 . S
H1821 C1817 0.950 . S
H1822 C1819 0.950 . S
C1823 C1814 1.390 . S
C1823 H1816 0.950 . S
C1823 C1820 1.387 . S
C1824 C1825 1.387 . S
C1824 H1828 0.950 . S
C1824 C1833 1.390 . S
C1825 C1824 1.387 . S
C1825 C1827 1.387 . S
H1826 C1833 0.950 . S
C1827 C1825 1.387 . S
C1827 C1829 1.390 . S
C1827 H1831 0.950 . S
H1828 C1824 0.950 . S
C1829 C1827 1.390 . S
C1829 C1830 1.387 . S
C1829 H1832 0.950 . S
C1830 C1829 1.387 . S
C1830 C1833 1.387 . S
H1831 C1827 0.950 . S
H1832 C1829 0.950 . S
C1833 C1824 1.390 . S
C1833 H1826 0.950 . S
C1833 C1830 1.387 . S
C1834 C1835 1.387 . S
C1834 H1838 0.950 . S
C1834 C1843 1.390 . S
C1835 C1834 1.387 . S
C1835 C1837 1.387 . S
H1836 C1843 0.950 . S
C1837 C1835 1.387 . S
C1837 C1839 1.390 . S
C1837 H1841 0.950 . S
H1838 C1834 0.950 . S
C1839 C1837 1.390 . S
C1839 C1840 1.387 . S
C1839 H1842 0.950 . S
C1840 C1839 1.387 . S
C1840 C1843 1.387 . S
H1841 C1837 0.950 . S
H1842 C1839 0.950 . S
C1843 C1834 1.390 . S
C1843 H1836 0.950 . S
C1843 C1840 1.387 . S
C1844 C1845 1.387 . S
C1844 H1848 0.950 . S
C1844 C1853 1.390 . S
C1845 C1844 1.387 . S
C1845 C1847 1.387 . S
H1846 C1853 0.950 . S
C1847 C1845 1.387 . S
C1847 C1849 1.390 . S
C1847 H1851 0.950 . S
H1848 C1844 0.950 . S
C1849 C1847 1.390 . S
C1849 C1850 1.387 . S
C1849 H1852 0.950 . S
C1850 C1849 1.387 . S
C1850 C1853 1.387 . S
H1851 C1847 0.950 . S
H1852 C1849 0.950 . S
C1853 C1844 1.390 . S
C1853 H1846 0.950 . S
C1853 C1850 1.387 . S
C1854 C1855 1.387 . S
C1854 H1858 0.950 . S
C1854 C1863 1.390 . S
C1855 C1854 1.387 . S
C1855 C1857 1.387 . S
H1856 C1863 0.950 . S
C1857 C1855 1.387 . S
C1857 C1859 1.390 . S
C1857 H1861 0.950 . S
H1858 C1854 0.950 . S
C1859 C1857 1.390 . S
C1859 C1860 1.387 . S
C1859 H1862 0.950 . S
C1860 C1859 1.387 . S
C1860 C1863 1.387 . S
H1861 C1857 0.950 . S
H1862 C1859 0.950 . S
C1863 C1854 1.390 . S
C1863 H1856 0.950 . S
C1863 C1860 1.387 . S
C1864 C1865 1.387 . S
C1864 H1868 0.950 . S
C1864 C1873 1.390 . S
C1865 C1864 1.387 . S
C1865 C1867 1.387 . S
H1866 C1873 0.950 . S
C1867 C1865 1.387 . S
C1867 C1869 1.390 . S
C1867 H1871 0.950 . S
H1868 C1864 0.950 . S
C1869 C1867 1.390 . S
C1869 C1870 1.387 . S
C1869 H1872 0.950 . S
C1870 C1869 1.387 . S
C1870 C1873 1.387 . S
H1871 C1867 0.950 . S
H1872 C1869 0.950 . S
C1873 C1864 1.390 . S
C1873 H1866 0.950 . S
C1873 C1870 1.387 . S
C1874 C1875 1.387 . S
C1874 H1878 0.950 . S
C1874 C1883 1.390 . S
C1875 C1874 1.387 . S
C1875 C1877 1.387 . S
H1876 C1883 0.950 . S
C1877 C1875 1.387 . S
C1877 C1879 1.390 . S
C1877 H1881 0.950 . S
H1878 C1874 0.950 . S
C1879 C1877 1.390 . S
C1879 C1880 1.387 . S
C1879 H1882 0.950 . S
C1880 C1879 1.387 . S
C1880 C1883 1.387 . S
H1881 C1877 0.950 . S
H1882 C1879 0.950 . S
C1883 C1874 1.390 . S
C1883 H1876 0.950 . S
C1883 C1880 1.387 . S
C1884 C1885 1.387 . S
C1884 H1888 0.950 . S
C1884 C1893 1.390 . S
C1885 C1884 1.387 . S
C1885 C1887 1.387 . S
H1886 C1893 0.950 . S
C1887 C1885 1.387 . S
C1887 C1889 1.390 . S
C1887 H1891 0.950 . S
H1888 C1884 0.950 . S
C1889 C1887 1.390 . S
C1889 C1890 1.387 . S
C1889 H1892 0.950 . S
C1890 C1889 1.387 . S
C1890 C1893 1.387 . S
H1891 C1887 0.950 . S
H1892 C1889 0.950 . S
C1893 C1884 1.390 . S
C1893 H1886 0.950 . S
C1893 C1890 1.387 . S
C1894 C1895 1.387 . S
C1894 H1898 0.950 . S
C1894 C1903 1.390 . S
C1895 C1894 1.387 . S
C1895 C1897 1.387 . S
H1896 C1903 0.950 . S
C1897 C1895 1.387 . S
C1897 C1899 1.390 . S
C1897 H1901 0.950 . S
H1898 C1894 0.950 . S
C1899 C1897 1.390 . S
C1899 C1900 1.387 . S
C1899 H1902 0.950 . S
C1900 C1899 1.387 . S
C1900 C1903 1.387 . S
H1901 C1897 0.950 . S
H1902 C1899 0.950 . S
C1903 C1894 1.390 . S
C1903 H1896 0.950 . S
C1903 C1900 1.387 . S
C1904 C1905 1.387 . S
C1904 H1908 0.950 . S
C1904 C1913 1.390 . S
C1905 C1904 1.387 . S
C1905 C1907 1.387 . S
H1906 C1913 0.950 . S
C1907 C1905 1.387 . S
C1907 C1909 1.390 . S
C1907 H1911 0.950 . S
H1908 C1904 0.950 . S
C1909 C1907 1.390 . S
C1909 C1910 1.387 . S
C1909 H1912 0.950 . S
C1910 C1909 1.387 . S
C1910 C1913 1.387 . S
H1911 C1907 0.950 . S
H1912 C1909 0.950 . S
C1913 C1904 1.390 . S
C1913 H1906 0.950 . S
C1913 C1910 1.387 . S
C1914 C1915 1.387 . S
C1914 H1918 0.950 . S
C1914 C1923 1.390 . S
C1915 C1914 1.387 . S
C1915 C1917 1.387 . S
H1916 C1923 0.950 . S
C1917 C1915 1.387 . S
C1917 C1919 1.390 . S
C1917 H1921 0.950 . S
H1918 C1914 0.950 . S
C1919 C1917 1.390 . S
C1919 C1920 1.387 . S
C1919 H1922 0.950 . S
C1920 C1919 1.387 . S
C1920 C1923 1.387 . S
H1921 C1917 0.950 . S
H1922 C1919 0.950 . S
C1923 C1914 1.390 . S
C1923 H1916 0.950 . S
C1923 C1920 1.387 . S
C1924 C1925 1.387 . S
C1924 H1928 0.950 . S
C1924 C1933 1.390 . S
C1925 C1924 1.387 . S
C1925 C1927 1.387 . S
H1926 C1933 0.950 . S
C1927 C1925 1.387 . S
C1927 C1929 1.390 . S
C1927 H1931 0.950 . S
H1928 C1924 0.950 . S
C1929 C1927 1.390 . S
C1929 C1930 1.387 . S
C1929 H1932 0.950 . S
C1930 C1929 1.387 . S
C1930 C1933 1.387 . S
H1931 C1927 0.950 . S
H1932 C1929 0.950 . S
C1933 C1924 1.390 . S
C1933 H1926 0.950 . S
C1933 C1930 1.387 . S
C1934 C1935 1.387 . S
C1934 H1938 0.950 . S
C1934 C1943 1.390 . S
C1935 C1934 1.387 . S
C1935 C1937 1.387 . S
H1936 C1943 0.950 . S
C1937 C1935 1.387 . S
C1937 C1939 1.390 . S
C1937 H1941 0.950 . S
H1938 C1934 0.950 . S
C1939 C1937 1.390 . S
C1939 C1940 1.387 . S
C1939 H1942 0.950 . S
C1940 C1939 1.387 . S
C1940 C1943 1.387 . S
H1941 C1937 0.950 . S
H1942 C1939 0.950 . S
C1943 C1934 1.390 . S
C1943 H1936 0.950 . S
C1943 C1940 1.387 . S
C1944 C1945 1.387 . S
C1944 H1948 0.950 . S
C1944 C1953 1.390 . S
C1945 C1944 1.387 . S
C1945 C1947 1.387 . S
H1946 C1953 0.950 . S
C1947 C1945 1.387 . S
C1947 C1949 1.390 . S
C1947 H1951 0.950 . S
H1948 C1944 0.950 . S
C1949 C1947 1.390 . S
C1949 C1950 1.387 . S
C1949 H1952 0.950 . S
C1950 C1949 1.387 . S
C1950 C1953 1.387 . S
H1951 C1947 0.950 . S
H1952 C1949 0.950 . S
C1953 C1944 1.390 . S
C1953 H1946 0.950 . S
C1953 C1950 1.387 . S
C1954 C1955 1.387 . S
C1954 H1958 0.950 . S
C1954 C1963 1.390 . S
C1955 C1954 1.387 . S
C1955 C1957 1.387 . S
H1956 C1963 0.950 . S
C1957 C1955 1.387 . S
C1957 C1959 1.390 . S
C1957 H1961 0.950 . S
H1958 C1954 0.950 . S
C1959 C1957 1.390 . S
C1959 C1960 1.387 . S
C1959 H1962 0.950 . S
C1960 C1959 1.387 . S
C1960 C1963 1.387 . S
H1961 C1957 0.950 . S
H1962 C1959 0.950 . S
C1963 C1954 1.390 . S
C1963 H1956 0.950 . S
C1963 C1960 1.387 . S
C1964 C1965 1.387 . S
C1964 H1968 0.950 . S
C1964 C1973 1.390 . S
C1965 C1964 1.387 . S
C1965 C1967 1.387 . S
H1966 C1973 0.950 . S
C1967 C1965 1.387 . S
C1967 C1969 1.390 . S
C1967 H1971 0.950 . S
H1968 C1964 0.950 . S
C1969 C1967 1.390 . S
C1969 C1970 1.387 . S
C1969 H1972 0.950 . S
C1970 C1969 1.387 . S
C1970 C1973 1.387 . S
H1971 C1967 0.950 . S
H1972 C1969 0.950 . S
C1973 C1964 1.390 . S
C1973 H1966 0.950 . S
C1973 C1970 1.387 . S
C1974 C1975 1.387 . S
C1974 H1978 0.950 . S
C1974 C1983 1.390 . S
C1975 C1974 1.387 . S
C1975 C1977 1.387 . S
H1976 C1983 0.950 . S
C1977 C1975 1.387 . S
C1977 C1979 1.390 . S
C1977 H1981 0.950 . S
H1978 C1974 0.950 . S
C1979 C1977 1.390 . S
C1979 C1980 1.387 . S
C1979 H1982 0.950 . S
C1980 C1979 1.387 . S
C1980 C1983 1.387 . S
H1981 C1977 0.950 . S
H1982 C1979 0.950 . S
C1983 C1974 1.390 . S
C1983 H1976 0.950 . S
C1983 C1980 1.387 . S
C1984 C1985 1.387 . S
C1984 H1988 0.950 . S
C1984 C1993 1.390 . S
C1985 C1984 1.387 . S
C1985 C1987 1.387 . S
H1986 C1993 0.950 . S
C1987 C1985 1.387 . S
C1987 C1989 1.390 . S
C1987 H1991 0.950 . S
H1988 C1984 0.950 . S
C1989 C1987 1.390 . S
C1989 C1990 1.387 . S
C1989 H1992 0.950 . S
C1990 C1989 1.387 . S
C1990 C1993 1.387 . S
H1991 C1987 0.950 . S
H1992 C1989 0.950 . S
C1993 C1984 1.390 . S
C1993 H1986 0.950 . S
C1993 C1990 1.387 . S
C1994 C1995 1.387 . S
C1994 H1998 0.950 . S
C1994 C2003 1.390 . S
C1995 C1994 1.387 . S
C1995 C1997 1.387 . S
H1996 C2003 0.950 . S
C1997 C1995 1.387 . S
C1997 C1999 1.390 . S
C1997 H2001 0.950 . S
H1998 C1994 0.950 . S
C1999 C1997 1.390 . S
C1999 C2000 1.387 . S
C1999 H2002 0.950 . S
C2000 C1999 1.387 . S
C2000 C2003 1.387 . S
H2001 C1997 0.950 . S
H2002 C1999 0.950 . S
C2003 C1994 1.390 . S
C2003 H1996 0.950 . S
C2003 C2000 1.387 . S
C2004 C2005 1.387 . S
C2004 H2008 0.950 . S
C2004 C2013 1.390 . S
C2005 C2004 1.387 . S
C2005 C2007 1.387 . S
H2006 C2013 0.950 . S
C2007 C2005 1.387 . S
C2007 C2009 1.390 . S
C2007 H2011 0.950 . S
H2008 C2004 0.950 . S
C2009 C2007 1.390 . S
C2009 C2010 1.387 . S
C2009 H2012 0.950 . S
C2010 C2009 1.387 . S
C2010 C2013 1.387 . S
H2011 C2007 0.950 . S
H2012 C2009 0.950 . S
C2013 C2004 1.390 . S
C2013 H2006 0.950 . S
C2013 C2010 1.387 . S
C2014 C2015 1.387 . S
C2014 H2018 0.950 . S
C2014 C2023 1.390 . S
C2015 C2014 1.387 . S
C2015 C2017 1.387 . S
H2016 C2023 0.950 . S
C2017 C2015 1.387 . S
C2017 C2019 1.390 . S
C2017 H2021 0.950 . S
H2018 C2014 0.950 . S
C2019 C2017 1.390 . S
C2019 C2020 1.387 . S
C2019 H2022 0.950 . S
C2020 C2019 1.387 . S
C2020 C2023 1.387 . S
H2021 C2017 0.950 . S
H2022 C2019 0.950 . S
C2023 C2014 1.390 . S
C2023 H2016 0.950 . S
C2023 C2020 1.387 . S
C2024 C2025 1.387 . S
C2024 H2028 0.950 . S
C2024 C2033 1.390 . S
C2025 C2024 1.387 . S
C2025 C2027 1.387 . S
H2026 C2033 0.950 . S
C2027 C2025 1.387 . S
C2027 C2029 1.390 . S
C2027 H2031 0.950 . S
H2028 C2024 0.950 . S
C2029 C2027 1.390 . S
C2029 C2030 1.387 . S
C2029 H2032 0.950 . S
C2030 C2029 1.387 . S
C2030 C2033 1.387 . S
H2031 C2027 0.950 . S
H2032 C2029 0.950 . S
C2033 C2024 1.390 . S
C2033 H2026 0.950 . S
C2033 C2030 1.387 . S
C2034 C2035 1.387 . S
C2034 H2038 0.950 . S
C2034 C2043 1.390 . S
C2035 C2034 1.387 . S
C2035 C2037 1.387 . S
H2036 C2043 0.950 . S
C2037 C2035 1.387 . S
C2037 C2039 1.390 . S
C2037 H2041 0.950 . S
H2038 C2034 0.950 . S
C2039 C2037 1.390 . S
C2039 C2040 1.387 . S
C2039 H2042 0.950 . S
C2040 C2039 1.387 . S
C2040 C2043 1.387 . S
H2041 C2037 0.950 . S
H2042 C2039 0.950 . S
C2043 C2034 1.390 . S
C2043 H2036 0.950 . S
C2043 C2040 1.387 . S
C2044 C2045 1.387 . S
C2044 H2048 0.950 . S
C2044 C2053 1.390 . S
C2045 C2044 1.387 . S
C2045 C2047 1.387 . S
H2046 C2053 0.950 . S
C2047 C2045 1.387 . S
C2047 C2049 1.390 . S
C2047 H2051 0.950 . S
H2048 C2044 0.950 . S
C2049 C2047 1.390 . S
C2049 C2050 1.387 . S
C2049 H2052 0.950 . S
C2050 C2049 1.387 . S
C2050 C2053 1.387 . S
H2051 C2047 0.950 . S
H2052 C2049 0.950 . S
C2053 C2044 1.390 . S
C2053 H2046 0.950 . S
C2053 C2050 1.387 . S
C2054 C2055 1.387 . S
C2054 H2058 0.950 . S
C2054 C2063 1.390 . S
C2055 C2054 1.387 . S
C2055 C2057 1.387 . S
H2056 C2063 0.950 . S
C2057 C2055 1.387 . S
C2057 C2059 1.390 . S
C2057 H2061 0.950 . S
H2058 C2054 0.950 . S
C2059 C2057 1.390 . S
C2059 C2060 1.387 . S
C2059 H2062 0.950 . S
C2060 C2059 1.387 . S
C2060 C2063 1.387 . S
H2061 C2057 0.950 . S
H2062 C2059 0.950 . S
C2063 C2054 1.390 . S
C2063 H2056 0.950 . S
C2063 C2060 1.387 . S
C2064 C2065 1.387 . S
C2064 H2068 0.950 . S
C2064 C2073 1.390 . S
C2065 C2064 1.387 . S
C2065 C2067 1.387 . S
H2066 C2073 0.950 . S
C2067 C2065 1.387 . S
C2067 C2069 1.390 . S
C2067 H2071 0.950 . S
H2068 C2064 0.950 . S
C2069 C2067 1.390 . S
C2069 C2070 1.387 . S
C2069 H2072 0.950 . S
C2070 C2069 1.387 . S
C2070 C2073 1.387 . S
H2071 C2067 0.950 . S
H2072 C2069 0.950 . S
C2073 C2064 1.390 . S
C2073 H2066 0.950 . S
C2073 C2070 1.387 . S
C2074 C2075 1.387 . S
C2074 H2078 0.950 . S
C2074 C2083 1.390 . S
C2075 C2074 1.387 . S
C2075 C2077 1.387 . S
H2076 C2083 0.950 . S
C2077 C2075 1.387 . S
C2077 C2079 1.390 . S
C2077 H2081 0.950 . S
H2078 C2074 0.950 . S
C2079 C2077 1.390 . S
C2079 C2080 1.387 . S
C2079 H2082 0.950 . S
C2080 C2079 1.387 . S
C2080 C2083 1.387 . S
H2081 C2077 0.950 . S
H2082 C2079 0.950 . S
C2083 C2074 1.390 . S
C2083 H2076 0.950 . S
C2083 C2080 1.387 . S
C2084 C2085 1.387 . S
C2084 H2088 0.950 . S
C2084 C2093 1.390 . S
C2085 C2084 1.387 . S
C2085 C2087 1.387 . S
H2086 C2093 0.950 . S
C2087 C2085 1.387 . S
C2087 C2089 1.390 . S
C2087 H2091 0.950 . S
H2088 C2084 0.950 . S
C2089 C2087 1.390 . S
C2089 C2090 1.387 . S
C2089 H2092 0.950 . S
C2090 C2089 1.387 . S
C2090 C2093 1.387 . S
H2091 C2087 0.950 . S
H2092 C2089 0.950 . S
C2093 C2084 1.390 . S
C2093 H2086 0.950 . S
C2093 C2090 1.387 . S
C2094 C2095 1.387 . S
C2094 H2098 0.950 . S
C2094 C2103 1.390 . S
C2095 C2094 1.387 . S
C2095 C2097 1.387 . S
H2096 C2103 0.950 . S
C2097 C2095 1.387 . S
C2097 C2099 1.390 . S
C2097 H2101 0.950 . S
H2098 C2094 0.950 . S
C2099 C2097 1.390 . S
C2099 C2100 1.387 . S
C2099 H2102 0.950 . S
C2100 C2099 1.387 . S
C2100 C2103 1.387 . S
H2101 C2097 0.950 . S
H2102 C2099 0.950 . S
C2103 C2094 1.390 . S
C2103 H2096 0.950 . S
C2103 C2100 1.387 . S
C2104 C2105 1.387 . S
C2104 H2108 0.950 . S
C2104 C2113 1.390 . S
C2105 C2104 1.387 . S
C2105 C2107 1.387 . S
H2106 C2113 0.950 . S
C2107 C2105 1.387 . S
C2107 C2109 1.390 . S
C2107 H2111 0.950 . S
H2108 C2104 0.950 . S
C2109 C2107 1.390 . S
C2109 C2110 1.387 . S
C2109 H2112 0.950 . S
C2110 C2109 1.387 . S
C2110 C2113 1.387 . S
H2111 C2107 0.950 . S
H2112 C2109 0.950 . S
C2113 C2104 1.390 . S
C2113 H2106 0.950 . S
C2113 C2110 1.387 . S
C2114 C2115 1.387 . S
C2114 H2118 0.950 . S
C2114 C2123 1.390 . S
C2115 C2114 1.387 . S
C2115 C2117 1.387 . S
H2116 C2123 0.950 . S
C2117 C2115 1.387 . S
C2117 C2119 1.390 . S
C2117 H2121 0.950 . S
H2118 C2114 0.950 . S
C2119 C2117 1.390 . S
C2119 C2120 1.387 . S
C2119 H2122 0.950 . S
C2120 C2119 1.387 . S
C2120 C2123 1.387 . S
H2121 C2117 0.950 . S
H2122 C2119 0.950 . S
C2123 C2114 1.390 . S
C2123 H2116 0.950 . S
C2123 C2120 1.387 . S
C2124 C2125 1.387 . S
C2124 H2128 0.950 . S
C2124 C2133 1.390 . S
C2125 C2124 1.387 . S
C2125 C2127 1.387 . S
H2126 C2133 0.950 . S
C2127 C2125 1.387 . S
C2127 C2129 1.390 . S
C2127 H2131 0.950 . S
H2128 C2124 0.950 . S
C2129 C2127 1.390 . S
C2129 C2130 1.387 . S
C2129 H2132 0.950 . S
C2130 C2129 1.387 . S
C2130 C2133 1.387 . S
H2131 C2127 0.950 . S
H2132 C2129 0.950 . S
C2133 C2124 1.390 . S
C2133 H2126 0.950 . S
C2133 C2130 1.387 . S
C2134 C2135 1.387 . S
C2134 H2138 0.950 . S
C2134 C2143 1.390 . S
C2135 C2134 1.387 . S
C2135 C2137 1.387 . S
H2136 C2143 0.950 . S
C2137 C2135 1.387 . S
C2137 C2139 1.390 . S
C2137 H2141 0.950 . S
H2138 C2134 0.950 . S
C2139 C2137 1.390 . S
C2139 C2140 1.387 . S
C2139 H2142 0.950 . S
C2140 C2139 1.387 . S
C2140 C2143 1.387 . S
H2141 C2137 0.950 . S
H2142 C2139 0.950 . S
C2143 C2134 1.390 . S
C2143 H2136 0.950 . S
C2143 C2140 1.387 . S
C2144 C2145 1.387 . S
C2144 H2148 0.950 . S
C2144 C2153 1.390 . S
C2145 C2144 1.387 . S
C2145 C2147 1.387 . S
H2146 C2153 0.950 . S
C2147 C2145 1.387 . S
C2147 C2149 1.390 . S
C2147 H2151 0.950 . S
H2148 C2144 0.950 . S
C2149 C2147 1.390 . S
C2149 C2150 1.387 . S
C2149 H2152 0.950 . S
C2150 C2149 1.387 . S
C2150 C2153 1.387 . S
H2151 C2147 0.950 . S
H2152 C2149 0.950 . S
C2153 C2144 1.390 . S
C2153 H2146 0.950 . S
C2153 C2150 1.387 . S
C2154 C2155 1.387 . S
C2154 H2158 0.950 . S
C2154 C2163 1.390 . S
C2155 C2154 1.387 . S
C2155 C2157 1.387 . S
H2156 C2163 0.950 . S
C2157 C2155 1.387 . S
C2157 C2159 1.390 . S
C2157 H2161 0.950 . S
H2158 C2154 0.950 . S
C2159 C2157 1.390 . S
C2159 C2160 1.387 . S
C2159 H2162 0.950 . S
C2160 C2159 1.387 . S
C2160 C2163 1.387 . S
H2161 C2157 0.950 . S
H2162 C2159 0.950 . S
C2163 C2154 1.390 . S
C2163 H2156 0.950 . S
C2163 C2160 1.387 . S
C2164 C2165 1.387 . S
C2164 H2168 0.950 . S
C2164 C2173 1.390 . S
C2165 C2164 1.387 . S
C2165 C2167 1.387 . S
H2166 C2173 0.950 . S
C2167 C2165 1.387 . S
C2167 C2169 1.390 . S
C2167 H2171 0.950 . S
H2168 C2164 0.950 . S
C2169 C2167 1.390 . S
C2169 C2170 1.387 . S
C2169 H2172 0.950 . S
C2170 C2169 1.387 . S
C2170 C2173 1.387 . S
H2171 C2167 0.950 . S
H2172 C2169 0.950 . S
C2173 C2164 1.390 . S
C2173 H2166 0.950 . S
C2173 C2170 1.387 . S
C2174 C2175 1.387 . S
C2174 H2178 0.950 . S
C2174 C2183 1.390 . S
C2175 C2174 1.387 . S
C2175 C2177 1.387 . S
H2176 C2183 0.950 . S
C2177 C2175 1.387 . S
C2177 C2179 1.390 . S
C2177 H2181 0.950 . S
H2178 C2174 0.950 . S
C2179 C2177 1.390 . S
C2179 C2180 1.387 . S
C2179 H2182 0.950 . S
C2180 C2179 1.387 . S
C2180 C2183 1.387 . S
H2181 C2177 0.950 . S
H2182 C2179 0.950 . S
C2183 C2174 1.390 . S
C2183 H2176 0.950 . S
C2183 C2180 1.387 . S
C2184 C2185 1.387 . S
C2184 H2188 0.950 . S
C2184 C2193 1.390 . S
C2185 C2184 1.387 . S
C2185 C2187 1.387 . S
H2186 C2193 0.950 . S
C2187 C2185 1.387 . S
C2187 C2189 1.390 . S
C2187 H2191 0.950 . S
H2188 C2184 0.950 . S
C2189 C2187 1.390 . S
C2189 C2190 1.387 . S
C2189 H2192 0.950 . S
C2190 C2189 1.387 . S
C2190 C2193 1.387 . S
H2191 C2187 0.950 . S
H2192 C2189 0.950 . S
C2193 C2184 1.390 . S
C2193 H2186 0.950 . S
C2193 C2190 1.387 . S
C2194 C2195 1.387 . S
C2194 H2198 0.950 . S
C2194 C2203 1.390 . S
C2195 C2194 1.387 . S
C2195 C2197 1.387 . S
H2196 C2203 0.950 . S
C2197 C2195 1.387 . S
C2197 C2199 1.390 . S
C2197 H2201 0.950 . S
H2198 C2194 0.950 . S
C2199 C2197 1.390 . S
C2199 C2200 1.387 . S
C2199 H2202 0.950 . S
C2200 C2199 1.387 . S
C2200 C2203 1.387 . S
H2201 C2197 0.950 . S
H2202 C2199 0.950 . S
C2203 C2194 1.390 . S
C2203 H2196 0.950 . S
C2203 C2200 1.387 . S
C2204 C2205 1.387 . S
C2204 H2208 0.950 . S
C2204 C2213 1.390 . S
C2205 C2204 1.387 . S
C2205 C2207 1.387 . S
H2206 C2213 0.950 . S
C2207 C2205 1.387 . S
C2207 C2209 1.390 . S
C2207 H2211 0.950 . S
H2208 C2204 0.950 . S
C2209 C2207 1.390 . S
C2209 C2210 1.387 . S
C2209 H2212 0.950 . S
C2210 C2209 1.387 . S
C2210 C2213 1.387 . S
H2211 C2207 0.950 . S
H2212 C2209 0.950 . S
C2213 C2204 1.390 . S
C2213 H2206 0.950 . S
C2213 C2210 1.387 . S
C2214 C2215 1.387 . S
C2214 H2218 0.950 . S
C2214 C2223 1.390 . S
C2215 C2214 1.387 . S
C2215 C2217 1.387 . S
H2216 C2223 0.950 . S
C2217 C2215 1.387 . S
C2217 C2219 1.390 . S
C2217 H2221 0.950 . S
H2218 C2214 0.950 . S
C2219 C2217 1.390 . S
C2219 C2220 1.387 . S
C2219 H2222 0.950 . S
C2220 C2219 1.387 . S
C2220 C2223 1.387 . S
H2221 C2217 0.950 . S
H2222 C2219 0.950 . S
C2223 C2214 1.390 . S
C2223 H2216 0.950 . S
C2223 C2220 1.387 . S
C2224 C2225 1.387 . S
C2224 H2228 0.950 . S
C2224 C2233 1.390 . S
C2225 C2224 1.387 . S
C2225 C2227 1.387 . S
H2226 C2233 0.950 . S
C2227 C2225 1.387 . S
C2227 C2229 1.390 . S
C2227 H2231 0.950 . S
H2228 C2224 0.950 . S
C2229 C2227 1.390 . S
C2229 C2230 1.387 . S
C2229 H2232 0.950 . S
C2230 C2229 1.387 . S
C2230 C2233 1.387 . S
H2231 C2227 0.950 . S
H2232 C2229 0.950 . S
C2233 C2224 1.390 . S
C2233 H2226 0.950 . S
C2233 C2230 1.387 . S
C2234 C2235 1.387 . S
C2234 H2238 0.950 . S
C2234 C2243 1.390 . S
C2235 C2234 1.387 . S
C2235 C2237 1.387 . S
H2236 C2243 0.950 . S
C2237 C2235 1.387 . S
C2237 C2239 1.390 . S
C2237 H2241 0.950 . S
H2238 C2234 0.950 . S
C2239 C2237 1.390 . S
C2239 C2240 1.387 . S
C2239 H2242 0.950 . S
C2240 C2239 1.387 . S
C2240 C2243 1.387 . S
H2241 C2237 0.950 . S
H2242 C2239 0.950 . S
C2243 C2234 1.390 . S
C2243 H2236 0.950 . S
C2243 C2240 1.387 . S
C2244 C2245 1.387 . S
C2244 H2248 0.950 . S
C2244 C2253 1.390 . S
C2245 C2244 1.387 . S
C2245 C2247 1.387 . S
H2246 C2253 0.950 . S
C2247 C2245 1.387 . S
C2247 C2249 1.390 . S
C2247 H2251 0.950 . S
H2248 C2244 0.950 . S
C2249 C2247 1.390 . S
C2249 C2250 1.387 . S
C2249 H2252 0.950 . S
C2250 C2249 1.387 . S
C2250 C2253 1.387 . S
H2251 C2247 0.950 . S
H2252 C2249 0.950 . S
C2253 C2244 1.390 . S
C2253 H2246 0.950 . S
C2253 C2250 1.387 . S
C2254 C2255 1.387 . S
C2254 H2258 0.950 . S
C2254 C2263 1.390 . S
C2255 C2254 1.387 . S
C2255 C2257 1.387 . S
H2256 C2263 0.950 . S
C2257 C2255 1.387 . S
C2257 C2259 1.390 . S
C2257 H2261 0.950 . S
H2258 C2254 0.950 . S
C2259 C2257 1.390 . S
C2259 C2260 1.387 . S
C2259 H2262 0.950 . S
C2260 C2259 1.387 . S
C2260 C2263 1.387 . S
H2261 C2257 0.950 . S
H2262 C2259 0.950 . S
C2263 C2254 1.390 . S
C2263 H2256 0.950 . S
C2263 C2260 1.387 . S
C2264 C2265 1.387 . S
C2264 H2268 0.950 . S
C2264 C2273 1.390 . S
C2265 C2264 1.387 . S
C2265 C2267 1.387 . S
H2266 C2273 0.950 . S
C2267 C2265 1.387 . S
C2267 C2269 1.390 . S
C2267 H2271 0.950 . S
H2268 C2264 0.950 . S
C2269 C2267 1.390 . S
C2269 C2270 1.387 . S
C2269 H2272 0.950 . S
C2270 C2269 1.387 . S
C2270 C2273 1.387 . S
H2271 C2267 0.950 . S
H2272 C2269 0.950 . S
C2273 C2264 1.390 . S
C2273 H2266 0.950 . S
C2273 C2270 1.387 . S
C2274 C2275 1.387 . S
C2274 H2278 0.950 . S
C2274 C2283 1.390 . S
C2275 C2274 1.387 . S
C2275 C2277 1.387 . S
H2276 C2283 0.950 . S
C2277 C2275 1.387 . S
C2277 C2279 1.390 . S
C2277 H2281 0.950 . S
H2278 C2274 0.950 . S
C2279 C2277 1.390 . S
C2279 C2280 1.387 . S
C2279 H2282 0.950 . S
C2280 C2279 1.387 . S
C2280 C2283 1.387 . S
H2281 C2277 0.950 . S
H2282 C2279 0.950 . S
C2283 C2274 1.390 . S
C2283 H2276 0.950 . S
C2283 C2280 1.387 . S
C2284 C2285 1.387 . S
C2284 H2288 0.950 . S
C2284 C2293 1.390 . S
C2285 C2284 1.387 . S
C2285 C2287 1.387 . S
H2286 C2293 0.950 . S
C2287 C2285 1.387 . S
C2287 C2289 1.390 . S
C2287 H2291 0.950 . S
H2288 C2284 0.950 . S
C2289 C2287 1.390 . S
C2289 C2290 1.387 . S
C2289 H2292 0.950 . S
C2290 C2289 1.387 . S
C2290 C2293 1.387 . S
H2291 C2287 0.950 . S
H2292 C2289 0.950 . S
C2293 C2284 1.390 . S
C2293 H2286 0.950 . S
C2293 C2290 1.387 . S
C2294 C2295 1.387 . S
C2294 H2298 0.950 . S
C2294 C2303 1.390 . S
C2295 C2294 1.387 . S
C2295 C2297 1.387 . S
H2296 C2303 0.950 . S
C2297 C2295 1.387 . S
C2297 C2299 1.390 . S
C2297 H2301 0.950 . S
H2298 C2294 0.950 . S
C2299 C2297 1.390 . S
C2299 C2300 1.387 . S
C2299 H2302 0.950 . S
C2300 C2299 1.387 . S
C2300 C2303 1.387 . S
H2301 C2297 0.950 . S
H2302 C2299 0.950 . S
C2303 C2294 1.390 . S
C2303 H2296 0.950 . S
C2303 C2300 1.387 . S
C2304 C2305 1.387 . S
C2304 H2308 0.950 . S
C2304 C2313 1.390 1_455 S
C2305 C2304 1.387 . S
C2305 C2307 1.387 . S
H2306 C2313 0.950 . S
C2307 C2305 1.387 . S
C2307 C2309 1.390 1_455 S
C2307 H2311 0.950 . S
H2308 C2304 0.950 . S
C2309 C2307 1.390 1_655 S
C2309 C2310 1.387 . S
C2309 H2312 0.950 . S
C2310 C2309 1.387 . S
C2310 C2313 1.387 . S
H2311 C2307 0.950 . S
H2312 C2309 0.950 . S
C2313 C2304 1.390 1_655 S
C2313 H2306 0.950 . S
C2313 C2310 1.387 . S
C2314 C2315 1.387 . S
C2314 H2318 0.950 . S
C2314 C2323 1.390 1_545 S
C2315 C2314 1.387 . S
C2315 C2317 1.387 . S
H2316 C2323 0.950 . S
C2317 C2315 1.387 . S
C2317 C2319 1.390 1_545 S
C2317 H2321 0.950 . S
H2318 C2314 0.950 . S
C2319 C2317 1.390 1_565 S
C2319 C2320 1.387 . S
C2319 H2322 0.950 . S
C2320 C2319 1.387 . S
C2320 C2323 1.387 . S
H2321 C2317 0.950 . S
H2322 C2319 0.950 . S
C2323 C2314 1.390 1_565 S
C2323 H2316 0.950 . S
C2323 C2320 1.387 . S
C2324 C2325 1.387 . S
C2324 H2328 0.950 . S
C2324 C2333 1.390 1_655 S
C2325 C2324 1.387 . S
C2325 C2327 1.387 . S
H2326 C2333 0.950 . S
C2327 C2325 1.387 . S
C2327 C2329 1.390 1_655 S
C2327 H2331 0.950 . S
H2328 C2324 0.950 . S
C2329 C2327 1.390 1_455 S
C2329 C2330 1.387 . S
C2329 H2332 0.950 . S
C2330 C2329 1.387 . S
C2330 C2333 1.387 . S
H2331 C2327 0.950 . S
H2332 C2329 0.950 . S
C2333 C2324 1.390 1_455 S
C2333 H2326 0.950 . S
C2333 C2330 1.387 . S
C2334 C2335 1.387 . S
C2334 H2338 0.950 . S
C2334 C2343 1.390 1_565 S
C2335 C2334 1.387 . S
C2335 C2337 1.387 . S
H2336 C2343 0.950 . S
C2337 C2335 1.387 . S
C2337 C2339 1.390 1_565 S
C2337 H2341 0.950 . S
H2338 C2334 0.950 . S
C2339 C2337 1.390 1_545 S
C2339 C2340 1.387 . S
C2339 H2342 0.950 . S
C2340 C2339 1.387 . S
C2340 C2343 1.387 . S
H2341 C2337 0.950 . S
H2342 C2339 0.950 . S
C2343 C2334 1.390 1_545 S
C2343 H2336 0.950 . S
C2343 C2340 1.387 . S
C2344 C2345 1.387 . S
C2344 H2348 0.950 . S
C2344 C2353 1.390 1_655 S
C2345 C2344 1.387 . S
C2345 C2347 1.387 . S
H2346 C2353 0.950 . S
C2347 C2345 1.387 . S
C2347 C2349 1.390 1_655 S
C2347 H2351 0.950 . S
H2348 C2344 0.950 . S
C2349 C2347 1.390 1_455 S
C2349 C2350 1.387 . S
C2349 H2352 0.950 . S
C2350 C2349 1.387 . S
C2350 C2353 1.387 . S
H2351 C2347 0.950 . S
H2352 C2349 0.950 . S
C2353 C2344 1.390 1_455 S
C2353 H2346 0.950 . S
C2353 C2350 1.387 . S
C2354 C2355 1.387 . S
C2354 H2358 0.950 . S
C2354 C2363 1.390 1_545 S
C2355 C2354 1.387 . S
C2355 C2357 1.387 . S
H2356 C2363 0.950 . S
C2357 C2355 1.387 . S
C2357 C2359 1.390 1_545 S
C2357 H2361 0.950 . S
H2358 C2354 0.950 . S
C2359 C2357 1.390 1_565 S
C2359 C2360 1.387 . S
C2359 H2362 0.950 . S
C2360 C2359 1.387 . S
C2360 C2363 1.387 . S
H2361 C2357 0.950 . S
H2362 C2359 0.950 . S
C2363 C2354 1.390 1_565 S
C2363 H2356 0.950 . S
C2363 C2360 1.387 . S
C2364 C2365 1.387 . S
C2364 H2368 0.950 . S
C2364 C2373 1.390 1_455 S
C2365 C2364 1.387 . S
C2365 C2367 1.387 . S
H2366 C2373 0.950 . S
C2367 C2365 1.387 . S
C2367 C2369 1.390 1_455 S
C2367 H2371 0.950 . S
H2368 C2364 0.950 . S
C2369 C2367 1.390 1_655 S
C2369 C2370 1.387 . S
C2369 H2372 0.950 . S
C2370 C2369 1.387 . S
C2370 C2373 1.387 . S
H2371 C2367 0.950 . S
H2372 C2369 0.950 . S
C2373 C2364 1.390 1_655 S
C2373 H2366 0.950 . S
C2373 C2370 1.387 . S
C2374 C2375 1.387 . S
C2374 H2378 0.950 . S
C2374 C2383 1.390 1_545 S
C2375 C2374 1.387 . S
C2375 C2377 1.387 . S
H2376 C2383 0.950 . S
C2377 C2375 1.387 . S
C2377 C2379 1.390 1_545 S
C2377 H2381 0.950 . S
H2378 C2374 0.950 . S
C2379 C2377 1.390 1_565 S
C2379 C2380 1.387 . S
C2379 H2382 0.950 . S
C2380 C2379 1.387 . S
C2380 C2383 1.387 . S
H2381 C2377 0.950 . S
H2382 C2379 0.950 . S
C2383 C2374 1.390 1_565 S
C2383 H2376 0.950 . S
C2383 C2380 1.387 . S
C2384 C2385 1.387 . S
C2384 H2388 0.950 . S
C2384 C2393 1.390 1_545 S
C2385 C2384 1.387 . S
C2385 C2387 1.387 . S
H2386 C2393 0.950 . S
C2387 C2385 1.387 . S
C2387 C2389 1.390 1_545 S
C2387 H2391 0.950 . S
H2388 C2384 0.950 . S
C2389 C2387 1.390 1_565 S
C2389 C2390 1.387 . S
C2389 H2392 0.950 . S
C2390 C2389 1.387 . S
C2390 C2393 1.387 . S
H2391 C2387 0.950 . S
H2392 C2389 0.950 . S
C2393 C2384 1.390 1_565 S
C2393 H2386 0.950 . S
C2393 C2390 1.387 . S
C2394 C2395 1.387 . S
C2394 H2398 0.950 . S
C2394 C2403 1.390 1_455 S
C2395 C2394 1.387 . S
C2395 C2397 1.387 . S
H2396 C2403 0.950 . S
C2397 C2395 1.387 . S
C2397 C2399 1.390 1_455 S
C2397 H2401 0.950 . S
H2398 C2394 0.950 . S
C2399 C2397 1.390 1_655 S
C2399 C2400 1.387 . S
C2399 H2402 0.950 . S
C2400 C2399 1.387 . S
C2400 C2403 1.387 . S
H2401 C2397 0.950 . S
H2402 C2399 0.950 . S
C2403 C2394 1.390 1_655 S
C2403 H2396 0.950 . S
C2403 C2400 1.387 . S
C2404 C2405 1.387 . S
C2404 H2408 0.950 . S
C2404 C2413 1.390 1_565 S
C2405 C2404 1.387 . S
C2405 C2407 1.387 . S
H2406 C2413 0.950 . S
C2407 C2405 1.387 . S
C2407 C2409 1.390 1_565 S
C2407 H2411 0.950 . S
H2408 C2404 0.950 . S
C2409 C2407 1.390 1_545 S
C2409 C2410 1.387 . S
C2409 H2412 0.950 . S
C2410 C2409 1.387 . S
C2410 C2413 1.387 . S
H2411 C2407 0.950 . S
H2412 C2409 0.950 . S
C2413 C2404 1.390 1_545 S
C2413 H2406 0.950 . S
C2413 C2410 1.387 . S
C2414 C2415 1.387 . S
C2414 H2418 0.950 . S
C2414 C2423 1.390 1_455 S
C2415 C2414 1.387 . S
C2415 C2417 1.387 . S
H2416 C2423 0.950 . S
C2417 C2415 1.387 . S
C2417 C2419 1.390 1_455 S
C2417 H2421 0.950 . S
H2418 C2414 0.950 . S
C2419 C2417 1.390 1_655 S
C2419 C2420 1.387 . S
C2419 H2422 0.950 . S
C2420 C2419 1.387 . S
C2420 C2423 1.387 . S
H2421 C2417 0.950 . S
H2422 C2419 0.950 . S
C2423 C2414 1.390 1_655 S
C2423 H2416 0.950 . S
C2423 C2420 1.387 . S
C2424 C2425 1.387 . S
C2424 H2428 0.950 . S
C2424 C2433 1.390 1_565 S
C2425 C2424 1.387 . S
C2425 C2427 1.387 . S
H2426 C2433 0.950 . S
C2427 C2425 1.387 . S
C2427 C2429 1.390 1_565 S
C2427 H2431 0.950 . S
H2428 C2424 0.950 . S
C2429 C2427 1.390 1_545 S
C2429 C2430 1.387 . S
C2429 H2432 0.950 . S
C2430 C2429 1.387 . S
C2430 C2433 1.387 . S
H2431 C2427 0.950 . S
H2432 C2429 0.950 . S
C2433 C2424 1.390 1_545 S
C2433 H2426 0.950 . S
C2433 C2430 1.387 . S
C2434 C2435 1.387 . S
C2434 H2438 0.950 . S
C2434 C2443 1.390 1_455 S
C2435 C2434 1.387 . S
C2435 C2437 1.387 . S
H2436 C2443 0.950 . S
C2437 C2435 1.387 . S
C2437 C2439 1.390 1_455 S
C2437 H2441 0.950 . S
H2438 C2434 0.950 . S
C2439 C2437 1.390 1_655 S
C2439 C2440 1.387 . S
C2439 H2442 0.950 . S
C2440 C2439 1.387 . S
C2440 C2443 1.387 . S
H2441 C2437 0.950 . S
H2442 C2439 0.950 . S
C2443 C2434 1.390 1_655 S
C2443 H2436 0.950 . S
C2443 C2440 1.387 . S
C2444 C2445 1.387 . S
C2444 H2448 0.950 . S
C2444 C2453 1.390 1_545 S
C2445 C2444 1.387 . S
C2445 C2447 1.387 . S
H2446 C2453 0.950 . S
C2447 C2445 1.387 . S
C2447 C2449 1.390 1_545 S
C2447 H2451 0.950 . S
H2448 C2444 0.950 . S
C2449 C2447 1.390 1_565 S
C2449 C2450 1.387 . S
C2449 H2452 0.950 . S
C2450 C2449 1.387 . S
C2450 C2453 1.387 . S
H2451 C2447 0.950 . S
H2452 C2449 0.950 . S
C2453 C2444 1.390 1_565 S
C2453 H2446 0.950 . S
C2453 C2450 1.387 . S
C2454 C2455 1.387 . S
C2454 H2458 0.950 . S
C2454 C2463 1.390 1_455 S
C2455 C2454 1.387 . S
C2455 C2457 1.387 . S
H2456 C2463 0.950 . S
C2457 C2455 1.387 . S
C2457 C2459 1.390 1_455 S
C2457 H2461 0.950 . S
H2458 C2454 0.950 . S
C2459 C2457 1.390 1_655 S
C2459 C2460 1.387 . S
C2459 H2462 0.950 . S
C2460 C2459 1.387 . S
C2460 C2463 1.387 . S
H2461 C2457 0.950 . S
H2462 C2459 0.950 . S
C2463 C2454 1.390 1_655 S
C2463 H2456 0.950 . S
C2463 C2460 1.387 . S
C2464 C2465 1.387 . S
C2464 H2468 0.950 . S
C2464 C2473 1.390 1_554 S
C2465 C2464 1.387 . S
C2465 C2467 1.387 . S
H2466 C2473 0.950 . S
C2467 C2465 1.387 . S
C2467 C2469 1.390 1_554 S
C2467 H2471 0.950 . S
H2468 C2464 0.950 . S
C2469 C2467 1.390 1_556 S
C2469 C2470 1.387 . S
C2469 H2472 0.950 . S
C2470 C2469 1.387 . S
C2470 C2473 1.387 . S
H2471 C2467 0.950 . S
H2472 C2469 0.950 . S
C2473 C2464 1.390 1_556 S
C2473 H2466 0.950 . S
C2473 C2470 1.387 . S
C2474 C2475 1.387 . S
C2474 H2478 0.950 . S
C2474 C2483 1.390 1_556 S
C2475 C2474 1.387 . S
C2475 C2477 1.387 . S
H2476 C2483 0.950 . S
C2477 C2475 1.387 . S
C2477 C2479 1.390 1_556 S
C2477 H2481 0.950 . S
H2478 C2474 0.950 . S
C2479 C2477 1.390 1_554 S
C2479 C2480 1.387 . S
C2479 H2482 0.950 . S
C2480 C2479 1.387 . S
C2480 C2483 1.387 . S
H2481 C2477 0.950 . S
H2482 C2479 0.950 . S
C2483 C2474 1.390 1_554 S
C2483 H2476 0.950 . S
C2483 C2480 1.387 . S
C2484 C2485 1.387 . S
C2484 H2488 0.950 . S
C2484 C2493 1.390 1_554 S
C2485 C2484 1.387 . S
C2485 C2487 1.387 . S
H2486 C2493 0.950 . S
C2487 C2485 1.387 . S
C2487 C2489 1.390 1_554 S
C2487 H2491 0.950 . S
H2488 C2484 0.950 . S
C2489 C2487 1.390 1_556 S
C2489 C2490 1.387 . S
C2489 H2492 0.950 . S
C2490 C2489 1.387 . S
C2490 C2493 1.387 . S
H2491 C2487 0.950 . S
H2492 C2489 0.950 . S
C2493 C2484 1.390 1_556 S
C2493 H2486 0.950 . S
C2493 C2490 1.387 . S
C2494 C2495 1.387 . S
C2494 H2498 0.950 . S
C2494 C2503 1.390 1_556 S
C2495 C2494 1.387 . S
C2495 C2497 1.387 . S
H2496 C2503 0.950 . S
C2497 C2495 1.387 . S
C2497 C2499 1.390 1_556 S
C2497 H2501 0.950 . S
H2498 C2494 0.950 . S
C2499 C2497 1.390 1_554 S
C2499 C2500 1.387 . S
C2499 H2502 0.950 . S
C2500 C2499 1.387 . S
C2500 C2503 1.387 . S
H2501 C2497 0.950 . S
H2502 C2499 0.950 . S
C2503 C2494 1.390 1_554 S
C2503 H2496 0.950 . S
C2503 C2500 1.387 . S
C2504 C2505 1.387 . S
C2504 H2508 0.950 . S
C2504 C2513 1.390 1_554 S
C2505 C2504 1.387 . S
C2505 C2507 1.387 . S
H2506 C2513 0.950 . S
C2507 C2505 1.387 . S
C2507 C2509 1.390 1_554 S
C2507 H2511 0.950 . S
H2508 C2504 0.950 . S
C2509 C2507 1.390 1_556 S
C2509 C2510 1.387 . S
C2509 H2512 0.950 . S
C2510 C2509 1.387 . S
C2510 C2513 1.387 . S
H2511 C2507 0.950 . S
H2512 C2509 0.950 . S
C2513 C2504 1.390 1_556 S
C2513 H2506 0.950 . S
C2513 C2510 1.387 . S
C2514 C2515 1.387 . S
C2514 H2518 0.950 . S
C2514 C2523 1.390 1_554 S
C2515 C2514 1.387 . S
C2515 C2517 1.387 . S
H2516 C2523 0.950 . S
C2517 C2515 1.387 . S
C2517 C2519 1.390 1_554 S
C2517 H2521 0.950 . S
H2518 C2514 0.950 . S
C2519 C2517 1.390 1_556 S
C2519 C2520 1.387 . S
C2519 H2522 0.950 . S
C2520 C2519 1.387 . S
C2520 C2523 1.387 . S
H2521 C2517 0.950 . S
H2522 C2519 0.950 . S
C2523 C2514 1.390 1_556 S
C2523 H2516 0.950 . S
C2523 C2520 1.387 . S
C2524 C2525 1.387 . S
C2524 H2528 0.950 . S
C2524 C2533 1.390 1_556 S
C2525 C2524 1.387 . S
C2525 C2527 1.387 . S
H2526 C2533 0.950 . S
C2527 C2525 1.387 . S
C2527 C2529 1.390 1_556 S
C2527 H2531 0.950 . S
H2528 C2524 0.950 . S
C2529 C2527 1.390 1_554 S
C2529 C2530 1.387 . S
C2529 H2532 0.950 . S
C2530 C2529 1.387 . S
C2530 C2533 1.387 . S
H2531 C2527 0.950 . S
H2532 C2529 0.950 . S
C2533 C2524 1.390 1_554 S
C2533 H2526 0.950 . S
C2533 C2530 1.387 . S
C2534 C2535 1.387 . S
C2534 H2538 0.950 . S
C2534 C2543 1.390 1_556 S
C2535 C2534 1.387 . S
C2535 C2537 1.387 . S
H2536 C2543 0.950 . S
C2537 C2535 1.387 . S
C2537 C2539 1.390 1_556 S
C2537 H2541 0.950 . S
H2538 C2534 0.950 . S
C2539 C2537 1.390 1_554 S
C2539 C2540 1.387 . S
C2539 H2542 0.950 . S
C2540 C2539 1.387 . S
C2540 C2543 1.387 . S
H2541 C2537 0.950 . S
H2542 C2539 0.950 . S
C2543 C2534 1.390 1_554 S
C2543 H2536 0.950 . S
C2543 C2540 1.387 . S
C2544 C2545 1.387 . S
C2544 H2548 0.950 . S
C2544 C2553 1.390 . S
C2545 C2544 1.387 . S
C2545 C2547 1.387 . S
H2546 C2553 0.950 . S
C2547 C2545 1.387 . S
C2547 C2549 1.390 . S
C2547 H2551 0.950 . S
H2548 C2544 0.950 . S
C2549 C2547 1.390 . S
C2549 C2550 1.387 . S
C2549 H2552 0.950 . S
C2550 C2549 1.387 . S
C2550 C2553 1.387 . S
H2551 C2547 0.950 . S
H2552 C2549 0.950 . S
C2553 C2544 1.390 . S
C2553 H2546 0.950 . S
C2553 C2550 1.387 . S
C2554 C2555 1.387 . S
C2554 H2558 0.950 . S
C2554 C2563 1.390 . S
C2555 C2554 1.387 . S
C2555 C2557 1.387 . S
H2556 C2563 0.950 . S
C2557 C2555 1.387 . S
C2557 C2559 1.390 . S
C2557 H2561 0.950 . S
H2558 C2554 0.950 . S
C2559 C2557 1.390 . S
C2559 C2560 1.387 . S
C2559 H2562 0.950 . S
C2560 C2559 1.387 . S
C2560 C2563 1.387 . S
H2561 C2557 0.950 . S
H2562 C2559 0.950 . S
C2563 C2554 1.390 . S
C2563 H2556 0.950 . S
C2563 C2560 1.387 . S
C2564 C2565 1.387 . S
C2564 H2568 0.950 . S
C2564 C2573 1.390 . S
C2565 C2564 1.387 . S
C2565 C2567 1.387 . S
H2566 C2573 0.950 . S
C2567 C2565 1.387 . S
C2567 C2569 1.390 . S
C2567 H2571 0.950 . S
H2568 C2564 0.950 . S
C2569 C2567 1.390 . S
C2569 C2570 1.387 . S
C2569 H2572 0.950 . S
C2570 C2569 1.387 . S
C2570 C2573 1.387 . S
H2571 C2567 0.950 . S
H2572 C2569 0.950 . S
C2573 C2564 1.390 . S
C2573 H2566 0.950 . S
C2573 C2570 1.387 . S
C2574 C2575 1.387 . S
C2574 H2578 0.950 . S
C2574 C2583 1.390 . S
C2575 C2574 1.387 . S
C2575 C2577 1.387 . S
H2576 C2583 0.950 . S
C2577 C2575 1.387 . S
C2577 C2579 1.390 . S
C2577 H2581 0.950 . S
H2578 C2574 0.950 . S
C2579 C2577 1.390 . S
C2579 C2580 1.387 . S
C2579 H2582 0.950 . S
C2580 C2579 1.387 . S
C2580 C2583 1.387 . S
H2581 C2577 0.950 . S
H2582 C2579 0.950 . S
C2583 C2574 1.390 . S
C2583 H2576 0.950 . S
C2583 C2580 1.387 . S
C2584 C2585 1.387 . S
C2584 H2588 0.950 . S
C2584 C2593 1.390 . S
C2585 C2584 1.387 . S
C2585 C2587 1.387 . S
H2586 C2593 0.950 . S
C2587 C2585 1.387 . S
C2587 C2589 1.390 . S
C2587 H2591 0.950 . S
H2588 C2584 0.950 . S
C2589 C2587 1.390 . S
C2589 C2590 1.387 . S
C2589 H2592 0.950 . S
C2590 C2589 1.387 . S
C2590 C2593 1.387 . S
H2591 C2587 0.950 . S
H2592 C2589 0.950 . S
C2593 C2584 1.390 . S
C2593 H2586 0.950 . S
C2593 C2590 1.387 . S
C2594 C2595 1.387 . S
C2594 H2598 0.950 . S
C2594 C2603 1.390 . S
C2595 C2594 1.387 . S
C2595 C2597 1.387 . S
H2596 C2603 0.950 . S
C2597 C2595 1.387 . S
C2597 C2599 1.390 . S
C2597 H2601 0.950 . S
H2598 C2594 0.950 . S
C2599 C2597 1.390 . S
C2599 C2600 1.387 . S
C2599 H2602 0.950 . S
C2600 C2599 1.387 . S
C2600 C2603 1.387 . S
H2601 C2597 0.950 . S
H2602 C2599 0.950 . S
C2603 C2594 1.390 . S
C2603 H2596 0.950 . S
C2603 C2600 1.387 . S
C2604 C2605 1.387 . S
C2604 H2608 0.950 . S
C2604 C2613 1.390 . S
C2605 C2604 1.387 . S
C2605 C2607 1.387 . S
H2606 C2613 0.950 . S
C2607 C2605 1.387 . S
C2607 C2609 1.390 . S
C2607 H2611 0.950 . S
H2608 C2604 0.950 . S
C2609 C2607 1.390 . S
C2609 C2610 1.387 . S
C2609 H2612 0.950 . S
C2610 C2609 1.387 . S
C2610 C2613 1.387 . S
H2611 C2607 0.950 . S
H2612 C2609 0.950 . S
C2613 C2604 1.390 . S
C2613 H2606 0.950 . S
C2613 C2610 1.387 . S
C2614 C2615 1.387 . S
C2614 H2618 0.950 . S
C2614 C2623 1.390 . S
C2615 C2614 1.387 . S
C2615 C2617 1.387 . S
H2616 C2623 0.950 . S
C2617 C2615 1.387 . S
C2617 C2619 1.390 . S
C2617 H2621 0.950 . S
H2618 C2614 0.950 . S
C2619 C2617 1.390 . S
C2619 C2620 1.387 . S
C2619 H2622 0.950 . S
C2620 C2619 1.387 . S
C2620 C2623 1.387 . S
H2621 C2617 0.950 . S
H2622 C2619 0.950 . S
C2623 C2614 1.390 . S
C2623 H2616 0.950 . S
C2623 C2620 1.387 . S
C2624 C2625 1.387 . S
C2624 H2628 0.950 . S
C2624 C2633 1.390 . S
C2625 C2624 1.387 . S
C2625 C2627 1.387 . S
H2626 C2633 0.950 . S
C2627 C2625 1.387 . S
C2627 C2629 1.390 . S
C2627 H2631 0.950 . S
H2628 C2624 0.950 . S
C2629 C2627 1.390 . S
C2629 C2630 1.387 . S
C2629 H2632 0.950 . S
C2630 C2629 1.387 . S
C2630 C2633 1.387 . S
H2631 C2627 0.950 . S
H2632 C2629 0.950 . S
C2633 C2624 1.390 . S
C2633 H2626 0.950 . S
C2633 C2630 1.387 . S
C2634 C2635 1.387 . S
C2634 H2638 0.950 . S
C2634 C2643 1.390 . S
C2635 C2634 1.387 . S
C2635 C2637 1.387 . S
H2636 C2643 0.950 . S
C2637 C2635 1.387 . S
C2637 C2639 1.390 . S
C2637 H2641 0.950 . S
H2638 C2634 0.950 . S
C2639 C2637 1.390 . S
C2639 C2640 1.387 . S
C2639 H2642 0.950 . S
C2640 C2639 1.387 . S
C2640 C2643 1.387 . S
H2641 C2637 0.950 . S
H2642 C2639 0.950 . S
C2643 C2634 1.390 . S
C2643 H2636 0.950 . S
C2643 C2640 1.387 . S
C2644 C2645 1.387 . S
C2644 H2648 0.950 . S
C2644 C2653 1.390 . S
C2645 C2644 1.387 . S
C2645 C2647 1.387 . S
H2646 C2653 0.950 . S
C2647 C2645 1.387 . S
C2647 C2649 1.390 . S
C2647 H2651 0.950 . S
H2648 C2644 0.950 . S
C2649 C2647 1.390 . S
C2649 C2650 1.387 . S
C2649 H2652 0.950 . S
C2650 C2649 1.387 . S
C2650 C2653 1.387 . S
H2651 C2647 0.950 . S
H2652 C2649 0.950 . S
C2653 C2644 1.390 . S
C2653 H2646 0.950 . S
C2653 C2650 1.387 . S
C2654 C2655 1.387 . S
C2654 H2658 0.950 . S
C2654 C2663 1.390 . S
C2655 C2654 1.387 . S
C2655 C2657 1.387 . S
H2656 C2663 0.950 . S
C2657 C2655 1.387 . S
C2657 C2659 1.390 . S
C2657 H2661 0.950 . S
H2658 C2654 0.950 . S
C2659 C2657 1.390 . S
C2659 C2660 1.387 . S
C2659 H2662 0.950 . S
C2660 C2659 1.387 . S
C2660 C2663 1.387 . S
H2661 C2657 0.950 . S
H2662 C2659 0.950 . S
C2663 C2654 1.390 . S
C2663 H2656 0.950 . S
C2663 C2660 1.387 . S
C2664 C2665 1.387 . S
C2664 H2668 0.950 . S
C2664 C2673 1.390 . S
C2665 C2664 1.387 . S
C2665 C2667 1.387 . S
H2666 C2673 0.950 . S
C2667 C2665 1.387 . S
C2667 C2669 1.390 . S
C2667 H2671 0.950 . S
H2668 C2664 0.950 . S
C2669 C2667 1.390 . S
C2669 C2670 1.387 . S
C2669 H2672 0.950 . S
C2670 C2669 1.387 . S
C2670 C2673 1.387 . S
H2671 C2667 0.950 . S
H2672 C2669 0.950 . S
C2673 C2664 1.390 . S
C2673 H2666 0.950 . S
C2673 C2670 1.387 . S
C2674 C2675 1.387 . S
C2674 H2678 0.950 . S
C2674 C2683 1.390 . S
C2675 C2674 1.387 . S
C2675 C2677 1.387 . S
H2676 C2683 0.950 . S
C2677 C2675 1.387 . S
C2677 C2679 1.390 . S
C2677 H2681 0.950 . S
H2678 C2674 0.950 . S
C2679 C2677 1.390 . S
C2679 C2680 1.387 . S
C2679 H2682 0.950 . S
C2680 C2679 1.387 . S
C2680 C2683 1.387 . S
H2681 C2677 0.950 . S
H2682 C2679 0.950 . S
C2683 C2674 1.390 . S
C2683 H2676 0.950 . S
C2683 C2680 1.387 . S
C2684 C2685 1.387 . S
C2684 H2688 0.950 . S
C2684 C2693 1.390 . S
C2685 C2684 1.387 . S
C2685 C2687 1.387 . S
H2686 C2693 0.950 . S
C2687 C2685 1.387 . S
C2687 C2689 1.390 . S
C2687 H2691 0.950 . S
H2688 C2684 0.950 . S
C2689 C2687 1.390 . S
C2689 C2690 1.387 . S
C2689 H2692 0.950 . S
C2690 C2689 1.387 . S
C2690 C2693 1.387 . S
H2691 C2687 0.950 . S
H2692 C2689 0.950 . S
C2693 C2684 1.390 . S
C2693 H2686 0.950 . S
C2693 C2690 1.387 . S
C2694 C2695 1.387 . S
C2694 H2698 0.950 . S
C2694 C2703 1.390 . S
C2695 C2694 1.387 . S
C2695 C2697 1.387 . S
H2696 C2703 0.950 . S
C2697 C2695 1.387 . S
C2697 C2699 1.390 . S
C2697 H2701 0.950 . S
H2698 C2694 0.950 . S
C2699 C2697 1.390 . S
C2699 C2700 1.387 . S
C2699 H2702 0.950 . S
C2700 C2699 1.387 . S
C2700 C2703 1.387 . S
H2701 C2697 0.950 . S
H2702 C2699 0.950 . S
C2703 C2694 1.390 . S
C2703 H2696 0.950 . S
C2703 C2700 1.387 . S
C2704 C2705 1.387 . S
C2704 H2708 0.950 . S
C2704 C2713 1.390 . S
C2705 C2704 1.387 . S
C2705 C2707 1.387 . S
H2706 C2713 0.950 . S
C2707 C2705 1.387 . S
C2707 C2709 1.390 . S
C2707 H2711 0.950 . S
H2708 C2704 0.950 . S
C2709 C2707 1.390 . S
C2709 C2710 1.387 . S
C2709 H2712 0.950 . S
C2710 C2709 1.387 . S
C2710 C2713 1.387 . S
H2711 C2707 0.950 . S
H2712 C2709 0.950 . S
C2713 C2704 1.390 . S
C2713 H2706 0.950 . S
C2713 C2710 1.387 . S
C2714 C2715 1.387 . S
C2714 H2718 0.950 . S
C2714 C2723 1.390 . S
C2715 C2714 1.387 . S
C2715 C2717 1.387 . S
H2716 C2723 0.950 . S
C2717 C2715 1.387 . S
C2717 C2719 1.390 . S
C2717 H2721 0.950 . S
H2718 C2714 0.950 . S
C2719 C2717 1.390 . S
C2719 C2720 1.387 . S
C2719 H2722 0.950 . S
C2720 C2719 1.387 . S
C2720 C2723 1.387 . S
H2721 C2717 0.950 . S
H2722 C2719 0.950 . S
C2723 C2714 1.390 . S
C2723 H2716 0.950 . S
C2723 C2720 1.387 . S
C2724 C2725 1.387 . S
C2724 H2728 0.950 . S
C2724 C2733 1.390 . S
C2725 C2724 1.387 . S
C2725 C2727 1.387 . S
H2726 C2733 0.950 . S
C2727 C2725 1.387 . S
C2727 C2729 1.390 . S
C2727 H2731 0.950 . S
H2728 C2724 0.950 . S
C2729 C2727 1.390 . S
C2729 C2730 1.387 . S
C2729 H2732 0.950 . S
C2730 C2729 1.387 . S
C2730 C2733 1.387 . S
H2731 C2727 0.950 . S
H2732 C2729 0.950 . S
C2733 C2724 1.390 . S
C2733 H2726 0.950 . S
C2733 C2730 1.387 . S
C2734 C2735 1.387 . S
C2734 H2738 0.950 . S
C2734 C2743 1.390 . S
C2735 C2734 1.387 . S
C2735 C2737 1.387 . S
H2736 C2743 0.950 . S
C2737 C2735 1.387 . S
C2737 C2739 1.390 . S
C2737 H2741 0.950 . S
H2738 C2734 0.950 . S
C2739 C2737 1.390 . S
C2739 C2740 1.387 . S
C2739 H2742 0.950 . S
C2740 C2739 1.387 . S
C2740 C2743 1.387 . S
H2741 C2737 0.950 . S
H2742 C2739 0.950 . S
C2743 C2734 1.390 . S
C2743 H2736 0.950 . S
C2743 C2740 1.387 . S
C2744 C2745 1.387 . S
C2744 H2748 0.950 . S
C2744 C2753 1.390 . S
C2745 C2744 1.387 . S
C2745 C2747 1.387 . S
H2746 C2753 0.950 . S
C2747 C2745 1.387 . S
C2747 C2749 1.390 . S
C2747 H2751 0.950 . S
H2748 C2744 0.950 . S
C2749 C2747 1.390 . S
C2749 C2750 1.387 . S
C2749 H2752 0.950 . S
C2750 C2749 1.387 . S
C2750 C2753 1.387 . S
H2751 C2747 0.950 . S
H2752 C2749 0.950 . S
C2753 C2744 1.390 . S
C2753 H2746 0.950 . S
C2753 C2750 1.387 . S
C2754 C2755 1.387 . S
C2754 H2758 0.950 . S
C2754 C2763 1.390 . S
C2755 C2754 1.387 . S
C2755 C2757 1.387 . S
H2756 C2763 0.950 . S
C2757 C2755 1.387 . S
C2757 C2759 1.390 . S
C2757 H2761 0.950 . S
H2758 C2754 0.950 . S
C2759 C2757 1.390 . S
C2759 C2760 1.387 . S
C2759 H2762 0.950 . S
C2760 C2759 1.387 . S
C2760 C2763 1.387 . S
H2761 C2757 0.950 . S
H2762 C2759 0.950 . S
C2763 C2754 1.390 . S
C2763 H2756 0.950 . S
C2763 C2760 1.387 . S
C2764 C2765 1.387 . S
C2764 H2768 0.950 . S
C2764 C2773 1.390 . S
C2765 C2764 1.387 . S
C2765 C2767 1.387 . S
H2766 C2773 0.950 . S
C2767 C2765 1.387 . S
C2767 C2769 1.390 . S
C2767 H2771 0.950 . S
H2768 C2764 0.950 . S
C2769 C2767 1.390 . S
C2769 C2770 1.387 . S
C2769 H2772 0.950 . S
C2770 C2769 1.387 . S
C2770 C2773 1.387 . S
H2771 C2767 0.950 . S
H2772 C2769 0.950 . S
C2773 C2764 1.390 . S
C2773 H2766 0.950 . S
C2773 C2770 1.387 . S
C2774 C2775 1.387 . S
C2774 H2778 0.950 . S
C2774 C2783 1.390 . S
C2775 C2774 1.387 . S
C2775 C2777 1.387 . S
H2776 C2783 0.950 . S
C2777 C2775 1.387 . S
C2777 C2779 1.390 . S
C2777 H2781 0.950 . S
H2778 C2774 0.950 . S
C2779 C2777 1.390 . S
C2779 C2780 1.387 . S
C2779 H2782 0.950 . S
C2780 C2779 1.387 . S
C2780 C2783 1.387 . S
H2781 C2777 0.950 . S
H2782 C2779 0.950 . S
C2783 C2774 1.390 . S
C2783 H2776 0.950 . S
C2783 C2780 1.387 . S
C2784 C2785 1.387 . S
C2784 H2788 0.950 . S
C2784 C2793 1.390 . S
C2785 C2784 1.387 . S
C2785 C2787 1.387 . S
H2786 C2793 0.950 . S
C2787 C2785 1.387 . S
C2787 C2789 1.390 . S
C2787 H2791 0.950 . S
H2788 C2784 0.950 . S
C2789 C2787 1.390 . S
C2789 C2790 1.387 . S
C2789 H2792 0.950 . S
C2790 C2789 1.387 . S
C2790 C2793 1.387 . S
H2791 C2787 0.950 . S
H2792 C2789 0.950 . S
C2793 C2784 1.390 . S
C2793 H2786 0.950 . S
C2793 C2790 1.387 . S
C2794 C2795 1.387 . S
C2794 H2798 0.950 . S
C2794 C2803 1.390 . S
C2795 C2794 1.387 . S
C2795 C2797 1.387 . S
H2796 C2803 0.950 . S
C2797 C2795 1.387 . S
C2797 C2799 1.390 . S
C2797 H2801 0.950 . S
H2798 C2794 0.950 . S
C2799 C2797 1.390 . S
C2799 C2800 1.387 . S
C2799 H2802 0.950 . S
C2800 C2799 1.387 . S
C2800 C2803 1.387 . S
H2801 C2797 0.950 . S
H2802 C2799 0.950 . S
C2803 C2794 1.390 . S
C2803 H2796 0.950 . S
C2803 C2800 1.387 . S
C2804 C2805 1.387 . S
C2804 H2808 0.950 . S
C2804 C2813 1.390 . S
C2805 C2804 1.387 . S
C2805 C2807 1.387 . S
H2806 C2813 0.950 . S
C2807 C2805 1.387 . S
C2807 C2809 1.390 . S
C2807 H2811 0.950 . S
H2808 C2804 0.950 . S
C2809 C2807 1.390 . S
C2809 C2810 1.387 . S
C2809 H2812 0.950 . S
C2810 C2809 1.387 . S
C2810 C2813 1.387 . S
H2811 C2807 0.950 . S
H2812 C2809 0.950 . S
C2813 C2804 1.390 . S
C2813 H2806 0.950 . S
C2813 C2810 1.387 . S
C2814 C2815 1.387 . S
C2814 H2818 0.950 . S
C2814 C2823 1.390 . S
C2815 C2814 1.387 . S
C2815 C2817 1.387 . S
H2816 C2823 0.950 . S
C2817 C2815 1.387 . S
C2817 C2819 1.390 . S
C2817 H2821 0.950 . S
H2818 C2814 0.950 . S
C2819 C2817 1.390 . S
C2819 C2820 1.387 . S
C2819 H2822 0.950 . S
C2820 C2819 1.387 . S
C2820 C2823 1.387 . S
H2821 C2817 0.950 . S
H2822 C2819 0.950 . S
C2823 C2814 1.390 . S
C2823 H2816 0.950 . S
C2823 C2820 1.387 . S
C2824 C2825 1.387 . S
C2824 H2828 0.950 . S
C2824 C2833 1.390 . S
C2825 C2824 1.387 . S
C2825 C2827 1.387 . S
H2826 C2833 0.950 . S
C2827 C2825 1.387 . S
C2827 C2829 1.390 . S
C2827 H2831 0.950 . S
H2828 C2824 0.950 . S
C2829 C2827 1.390 . S
C2829 C2830 1.387 . S
C2829 H2832 0.950 . S
C2830 C2829 1.387 . S
C2830 C2833 1.387 . S
H2831 C2827 0.950 . S
H2832 C2829 0.950 . S
C2833 C2824 1.390 . S
C2833 H2826 0.950 . S
C2833 C2830 1.387 . S
C2834 C2835 1.387 . S
C2834 H2838 0.950 . S
C2834 C2843 1.390 . S
C2835 C2834 1.387 . S
C2835 C2837 1.387 . S
H2836 C2843 0.950 . S
C2837 C2835 1.387 . S
C2837 C2839 1.390 . S
C2837 H2841 0.950 . S
H2838 C2834 0.950 . S
C2839 C2837 1.390 . S
C2839 C2840 1.387 . S
C2839 H2842 0.950 . S
C2840 C2839 1.387 . S
C2840 C2843 1.387 . S
H2841 C2837 0.950 . S
H2842 C2839 0.950 . S
C2843 C2834 1.390 . S
C2843 H2836 0.950 . S
C2843 C2840 1.387 . S
C2844 C2845 1.387 . S
C2844 H2848 0.950 . S
C2844 C2853 1.390 . S
C2845 C2844 1.387 . S
C2845 C2847 1.387 . S
H2846 C2853 0.950 . S
C2847 C2845 1.387 . S
C2847 C2849 1.390 . S
C2847 H2851 0.950 . S
H2848 C2844 0.950 . S
C2849 C2847 1.390 . S
C2849 C2850 1.387 . S
C2849 H2852 0.950 . S
C2850 C2849 1.387 . S
C2850 C2853 1.387 . S
H2851 C2847 0.950 . S
H2852 C2849 0.950 . S
C2853 C2844 1.390 . S
C2853 H2846 0.950 . S
C2853 C2850 1.387 . S
C2854 C2855 1.387 . S
C2854 H2858 0.950 . S
C2854 C2863 1.390 . S
C2855 C2854 1.387 . S
C2855 C2857 1.387 . S
H2856 C2863 0.950 . S
C2857 C2855 1.387 . S
C2857 C2859 1.390 . S
C2857 H2861 0.950 . S
H2858 C2854 0.950 . S
C2859 C2857 1.390 . S
C2859 C2860 1.387 . S
C2859 H2862 0.950 . S
C2860 C2859 1.387 . S
C2860 C2863 1.387 . S
H2861 C2857 0.950 . S
H2862 C2859 0.950 . S
C2863 C2854 1.390 . S
C2863 H2856 0.950 . S
C2863 C2860 1.387 . S
C2864 C2865 1.387 . S
C2864 H2868 0.950 . S
C2864 C2873 1.390 . S
C2865 C2864 1.387 . S
C2865 C2867 1.387 . S
H2866 C2873 0.950 . S
C2867 C2865 1.387 . S
C2867 C2869 1.390 . S
C2867 H2871 0.950 . S
H2868 C2864 0.950 . S
C2869 C2867 1.390 . S
C2869 C2870 1.387 . S
C2869 H2872 0.950 . S
C2870 C2869 1.387 . S
C2870 C2873 1.387 . S
H2871 C2867 0.950 . S
H2872 C2869 0.950 . S
C2873 C2864 1.390 . S
C2873 H2866 0.950 . S
C2873 C2870 1.387 . S
C2874 C2875 1.387 . S
C2874 H2878 0.950 . S
C2874 C2883 1.390 . S
C2875 C2874 1.387 . S
C2875 C2877 1.387 . S
H2876 C2883 0.950 . S
C2877 C2875 1.387 . S
C2877 C2879 1.390 . S
C2877 H2881 0.950 . S
H2878 C2874 0.950 . S
C2879 C2877 1.390 . S
C2879 C2880 1.387 . S
C2879 H2882 0.950 . S
C2880 C2879 1.387 . S
C2880 C2883 1.387 . S
H2881 C2877 0.950 . S
H2882 C2879 0.950 . S
C2883 C2874 1.390 . S
C2883 H2876 0.950 . S
C2883 C2880 1.387 . S
C2884 C2885 1.387 . S
C2884 H2888 0.950 . S
C2884 C2893 1.390 . S
C2885 C2884 1.387 . S
C2885 C2887 1.387 . S
H2886 C2893 0.950 . S
C2887 C2885 1.387 . S
C2887 C2889 1.390 . S
C2887 H2891 0.950 . S
H2888 C2884 0.950 . S
C2889 C2887 1.390 . S
C2889 C2890 1.387 . S
C2889 H2892 0.950 . S
C2890 C2889 1.387 . S
C2890 C2893 1.387 . S
H2891 C2887 0.950 . S
H2892 C2889 0.950 . S
C2893 C2884 1.390 . S
C2893 H2886 0.950 . S
C2893 C2890 1.387 . S
C2894 C2895 1.387 . S
C2894 H2898 0.950 . S
C2894 C2903 1.390 . S
C2895 C2894 1.387 . S
C2895 C2897 1.387 . S
H2896 C2903 0.950 . S
C2897 C2895 1.387 . S
C2897 C2899 1.390 . S
C2897 H2901 0.950 . S
H2898 C2894 0.950 . S
C2899 C2897 1.390 . S
C2899 C2900 1.387 . S
C2899 H2902 0.950 . S
C2900 C2899 1.387 . S
C2900 C2903 1.387 . S
H2901 C2897 0.950 . S
H2902 C2899 0.950 . S
C2903 C2894 1.390 . S
C2903 H2896 0.950 . S
C2903 C2900 1.387 . S
C2904 C2905 1.387 . S
C2904 H2908 0.950 . S
C2904 C2913 1.390 . S
C2905 C2904 1.387 . S
C2905 C2907 1.387 . S
H2906 C2913 0.950 . S
C2907 C2905 1.387 . S
C2907 C2909 1.390 . S
C2907 H2911 0.950 . S
H2908 C2904 0.950 . S
C2909 C2907 1.390 . S
C2909 C2910 1.387 . S
C2909 H2912 0.950 . S
C2910 C2909 1.387 . S
C2910 C2913 1.387 . S
H2911 C2907 0.950 . S
H2912 C2909 0.950 . S
C2913 C2904 1.390 . S
C2913 H2906 0.950 . S
C2913 C2910 1.387 . S
C2914 C2915 1.387 . S
C2914 H2918 0.950 . S
C2914 C2923 1.390 . S
C2915 C2914 1.387 . S
C2915 C2917 1.387 . S
H2916 C2923 0.950 . S
C2917 C2915 1.387 . S
C2917 C2919 1.390 . S
C2917 H2921 0.950 . S
H2918 C2914 0.950 . S
C2919 C2917 1.390 . S
C2919 C2920 1.387 . S
C2919 H2922 0.950 . S
C2920 C2919 1.387 . S
C2920 C2923 1.387 . S
H2921 C2917 0.950 . S
H2922 C2919 0.950 . S
C2923 C2914 1.390 . S
C2923 H2916 0.950 . S
C2923 C2920 1.387 . S
C2924 C2925 1.387 . S
C2924 H2928 0.950 . S
C2924 C2933 1.390 . S
C2925 C2924 1.387 . S
C2925 C2927 1.387 . S
H2926 C2933 0.950 . S
C2927 C2925 1.387 . S
C2927 C2929 1.390 . S
C2927 H2931 0.950 . S
H2928 C2924 0.950 . S
C2929 C2927 1.390 . S
C2929 C2930 1.387 . S
C2929 H2932 0.950 . S
C2930 C2929 1.387 . S
C2930 C2933 1.387 . S
H2931 C2927 0.950 . S
H2932 C2929 0.950 . S
C2933 C2924 1.390 . S
C2933 H2926 0.950 . S
C2933 C2930 1.387 . S
C2934 C2935 1.387 . S
C2934 H2938 0.950 . S
C2934 C2943 1.390 . S
C2935 C2934 1.387 . S
C2935 C2937 1.387 . S
H2936 C2943 0.950 . S
C2937 C2935 1.387 . S
C2937 C2939 1.390 . S
C2937 H2941 0.950 . S
H2938 C2934 0.950 . S
C2939 C2937 1.390 . S
C2939 C2940 1.387 . S
C2939 H2942 0.950 . S
C2940 C2939 1.387 . S
C2940 C2943 1.387 . S
H2941 C2937 0.950 . S
H2942 C2939 0.950 . S
C2943 C2934 1.390 . S
C2943 H2936 0.950 . S
C2943 C2940 1.387 . S
C2944 C2945 1.387 . S
C2944 H2948 0.950 . S
C2944 C2953 1.390 . S
C2945 C2944 1.387 . S
C2945 C2947 1.387 . S
H2946 C2953 0.950 . S
C2947 C2945 1.387 . S
C2947 C2949 1.390 . S
C2947 H2951 0.950 . S
H2948 C2944 0.950 . S
C2949 C2947 1.390 . S
C2949 C2950 1.387 . S
C2949 H2952 0.950 . S
C2950 C2949 1.387 . S
C2950 C2953 1.387 . S
H2951 C2947 0.950 . S
H2952 C2949 0.950 . S
C2953 C2944 1.390 . S
C2953 H2946 0.950 . S
C2953 C2950 1.387 . S
C2954 C2955 1.387 . S
C2954 H2958 0.950 . S
C2954 C2963 1.390 . S
C2955 C2954 1.387 . S
C2955 C2957 1.387 . S
H2956 C2963 0.950 . S
C2957 C2955 1.387 . S
C2957 C2959 1.390 . S
C2957 H2961 0.950 . S
H2958 C2954 0.950 . S
C2959 C2957 1.390 . S
C2959 C2960 1.387 . S
C2959 H2962 0.950 . S
C2960 C2959 1.387 . S
C2960 C2963 1.387 . S
H2961 C2957 0.950 . S
H2962 C2959 0.950 . S
C2963 C2954 1.390 . S
C2963 H2956 0.950 . S
C2963 C2960 1.387 . S
C2964 C2965 1.387 . S
C2964 H2968 0.950 . S
C2964 C2973 1.390 . S
C2965 C2964 1.387 . S
C2965 C2967 1.387 . S
H2966 C2973 0.950 . S
C2967 C2965 1.387 . S
C2967 C2969 1.390 . S
C2967 H2971 0.950 . S
H2968 C2964 0.950 . S
C2969 C2967 1.390 . S
C2969 C2970 1.387 . S
C2969 H2972 0.950 . S
C2970 C2969 1.387 . S
C2970 C2973 1.387 . S
H2971 C2967 0.950 . S
H2972 C2969 0.950 . S
C2973 C2964 1.390 . S
C2973 H2966 0.950 . S
C2973 C2970 1.387 . S
C2974 C2975 1.387 . S
C2974 H2978 0.950 . S
C2974 C2983 1.390 . S
C2975 C2974 1.387 . S
C2975 C2977 1.387 . S
H2976 C2983 0.950 . S
C2977 C2975 1.387 . S
C2977 C2979 1.390 . S
C2977 H2981 0.950 . S
H2978 C2974 0.950 . S
C2979 C2977 1.390 . S
C2979 C2980 1.387 . S
C2979 H2982 0.950 . S
C2980 C2979 1.387 . S
C2980 C2983 1.387 . S
H2981 C2977 0.950 . S
H2982 C2979 0.950 . S
C2983 C2974 1.390 . S
C2983 H2976 0.950 . S
C2983 C2980 1.387 . S
C2984 C2985 1.387 . S
C2984 H2988 0.950 . S
C2984 C2993 1.390 . S
C2985 C2984 1.387 . S
C2985 C2987 1.387 . S
H2986 C2993 0.950 . S
C2987 C2985 1.387 . S
C2987 C2989 1.390 . S
C2987 H2991 0.950 . S
H2988 C2984 0.950 . S
C2989 C2987 1.390 . S
C2989 C2990 1.387 . S
C2989 H2992 0.950 . S
C2990 C2989 1.387 . S
C2990 C2993 1.387 . S
H2991 C2987 0.950 . S
H2992 C2989 0.950 . S
C2993 C2984 1.390 . S
C2993 H2986 0.950 . S
C2993 C2990 1.387 . S
C2994 C2995 1.387 . S
C2994 H2998 0.950 . S
C2994 C3003 1.390 . S
C2995 C2994 1.387 . S
C2995 C2997 1.387 . S
H2996 C3003 0.950 . S
C2997 C2995 1.387 . S
C2997 C2999 1.390 . S
C2997 H3001 0.950 . S
H2998 C2994 0.950 . S
C2999 C2997 1.390 . S
C2999 C3000 1.387 . S
C2999 H3002 0.950 . S
C3000 C2999 1.387 . S
C3000 C3003 1.387 . S
H3001 C2997 0.950 . S
H3002 C2999 0.950 . S
C3003 C2994 1.390 . S
C3003 H2996 0.950 . S
C3003 C3000 1.387 . S
C3004 C3005 1.387 . S
C3004 H3008 0.950 . S
C3004 C3013 1.390 . S
C3005 C3004 1.387 . S
C3005 C3007 1.387 . S
H3006 C3013 0.950 . S
C3007 C3005 1.387 . S
C3007 C3009 1.390 . S
C3007 H3011 0.950 . S
H3008 C3004 0.950 . S
C3009 C3007 1.390 . S
C3009 C3010 1.387 . S
C3009 H3012 0.950 . S
C3010 C3009 1.387 . S
C3010 C3013 1.387 . S
H3011 C3007 0.950 . S
H3012 C3009 0.950 . S
C3013 C3004 1.390 . S
C3013 H3006 0.950 . S
C3013 C3010 1.387 . S
C3014 C3015 1.387 . S
C3014 H3018 0.950 . S
C3014 C3023 1.390 . S
C3015 C3014 1.387 . S
C3015 C3017 1.387 . S
H3016 C3023 0.950 . S
C3017 C3015 1.387 . S
C3017 C3019 1.390 . S
C3017 H3021 0.950 . S
H3018 C3014 0.950 . S
C3019 C3017 1.390 . S
C3019 C3020 1.387 . S
C3019 H3022 0.950 . S
C3020 C3019 1.387 . S
C3020 C3023 1.387 . S
H3021 C3017 0.950 . S
H3022 C3019 0.950 . S
C3023 C3014 1.390 . S
C3023 H3016 0.950 . S
C3023 C3020 1.387 . S
C3024 C3025 1.387 . S
C3024 H3028 0.950 . S
C3024 C3033 1.390 . S
C3025 C3024 1.387 . S
C3025 C3027 1.387 . S
H3026 C3033 0.950 1_554 S
C3027 C3025 1.387 . S
C3027 C3029 1.390 1_556 S
C3027 H3031 0.950 . S
H3028 C3024 0.950 . S
C3029 C3027 1.390 1_554 S
C3029 C3030 1.387 . S
C3029 H3032 0.950 . S
C3030 C3029 1.387 . S
C3030 C3033 1.387 1_554 S
H3031 C3027 0.950 . S
H3032 C3029 0.950 . S
C3033 C3024 1.390 . S
C3033 H3026 0.950 1_556 S
C3033 C3030 1.387 1_556 S
C3034 C3035 1.387 1_556 S
C3034 H3038 0.950 1_556 S
C3034 C3043 1.390 . S
C3035 C3034 1.387 1_554 S
C3035 C3037 1.387 . S
H3036 C3043 0.950 . S
C3037 C3035 1.387 . S
C3037 C3039 1.390 1_554 S
C3037 H3041 0.950 . S
H3038 C3034 0.950 1_554 S
C3039 C3037 1.390 1_556 S
C3039 C3040 1.387 . S
C3039 H3042 0.950 . S
C3040 C3039 1.387 . S
C3040 C3043 1.387 . S
H3041 C3037 0.950 . S
H3042 C3039 0.950 . S
C3043 C3034 1.390 . S
C3043 H3036 0.950 . S
C3043 C3040 1.387 . S
C3044 C3045 1.387 1_556 S
C3044 H3048 0.950 1_556 S
C3044 C3053 1.390 . S
C3045 C3044 1.387 1_554 S
C3045 C3047 1.387 . S
H3046 C3053 0.950 . S
C3047 C3045 1.387 . S
C3047 C3049 1.390 1_554 S
C3047 H3051 0.950 . S
H3048 C3044 0.950 1_554 S
C3049 C3047 1.390 1_556 S
C3049 C3050 1.387 . S
C3049 H3052 0.950 . S
C3050 C3049 1.387 . S
C3050 C3053 1.387 . S
H3051 C3047 0.950 . S
H3052 C3049 0.950 . S
C3053 C3044 1.390 . S
C3053 H3046 0.950 . S
C3053 C3050 1.387 . S
C3054 C3055 1.387 . S
C3054 H3058 0.950 . S
C3054 C3063 1.390 1_554 S
C3055 C3054 1.387 . S
C3055 C3057 1.387 1_554 S
H3056 C3063 0.950 . S
C3057 C3055 1.387 1_556 S
C3057 C3059 1.390 . S
C3057 H3061 0.950 1_556 S
H3058 C3054 0.950 . S
C3059 C3057 1.390 . S
C3059 C3060 1.387 . S
C3059 H3062 0.950 . S
C3060 C3059 1.387 . S
C3060 C3063 1.387 . S
H3061 C3057 0.950 1_554 S
H3062 C3059 0.950 . S
C3063 C3054 1.390 1_556 S
C3063 H3056 0.950 . S
C3063 C3060 1.387 . S
C3064 C3065 1.387 . S
C3064 H3068 0.950 . S
C3064 C3073 1.390 1_554 S
C3065 C3064 1.387 . S
C3065 C3067 1.387 . S
H3066 C3073 0.950 . S
C3067 C3065 1.387 . S
C3067 C3069 1.390 . S
C3067 H3071 0.950 . S
H3068 C3064 0.950 . S
C3069 C3067 1.390 . S
C3069 C3070 1.387 1_554 S
C3069 H3072 0.950 1_554 S
C3070 C3069 1.387 1_556 S
C3070 C3073 1.387 . S
H3071 C3067 0.950 . S
H3072 C3069 0.950 1_556 S
C3073 C3064 1.390 1_556 S
C3073 H3066 0.950 . S
C3073 C3070 1.387 . S
C3074 C3075 1.387 . S
C3074 H3078 0.950 . S
C3074 C3083 1.390 1_556 S
C3075 C3074 1.387 . S
C3075 C3077 1.387 1_556 S
H3076 C3083 0.950 . S
C3077 C3075 1.387 1_554 S
C3077 C3079 1.390 . S
C3077 H3081 0.950 1_554 S
H3078 C3074 0.950 . S
C3079 C3077 1.390 . S
C3079 C3080 1.387 . S
C3079 H3082 0.950 . S
C3080 C3079 1.387 . S
C3080 C3083 1.387 . S
H3081 C3077 0.950 1_556 S
H3082 C3079 0.950 . S
C3083 C3074 1.390 1_554 S
C3083 H3076 0.950 . S
C3083 C3080 1.387 . S
C3084 C3085 1.387 . S
C3084 H3088 0.950 . S
C3084 C3093 1.390 . S
C3085 C3084 1.387 . S
C3085 C3087 1.387 . S
H3086 C3093 0.950 1_556 S
C3087 C3085 1.387 . S
C3087 C3089 1.390 1_554 S
C3087 H3091 0.950 . S
H3088 C3084 0.950 . S
C3089 C3087 1.390 1_556 S
C3089 C3090 1.387 . S
C3089 H3092 0.950 . S
C3090 C3089 1.387 . S
C3090 C3093 1.387 1_556 S
H3091 C3087 0.950 . S
H3092 C3089 0.950 . S
C3093 C3084 1.390 . S
C3093 H3086 0.950 1_554 S
C3093 C3090 1.387 1_554 S
C3094 C3095 1.387 . S
C3094 H3098 0.950 . S
C3094 C3103 1.390 1_556 S
C3095 C3094 1.387 . S
C3095 C3097 1.387 1_556 S
H3096 C3103 0.950 . S
C3097 C3095 1.387 1_554 S
C3097 C3099 1.390 . S
C3097 H3101 0.950 1_554 S
H3098 C3094 0.950 . S
C3099 C3097 1.390 . S
C3099 C3100 1.387 . S
C3099 H3102 0.950 . S
C3100 C3099 1.387 . S
C3100 C3103 1.387 . S
H3101 C3097 0.950 1_556 S
H3102 C3099 0.950 . S
C3103 C3094 1.390 1_554 S
C3103 H3096 0.950 . S
C3103 C3100 1.387 . S
C3104 C3105 1.387 . S
C3104 H3108 0.950 . S
C3104 C3113 1.390 . S
C3105 C3104 1.387 . S
C3105 C3107 1.387 . S
H3106 C3113 0.950 1_455 S
C3107 C3105 1.387 . S
C3107 C3109 1.390 1_655 S
C3107 H3111 0.950 . S
H3108 C3104 0.950 . S
C3109 C3107 1.390 1_455 S
C3109 C3110 1.387 . S
C3109 H3112 0.950 . S
C3110 C3109 1.387 . S
C3110 C3113 1.387 1_455 S
H3111 C3107 0.950 . S
H3112 C3109 0.950 . S
C3113 C3104 1.390 . S
C3113 H3106 0.950 1_655 S
C3113 C3110 1.387 1_655 S
C3114 C3115 1.367 1_565 S
C3114 H3118 0.931 1_565 S
C3114 C3123 1.430 . S
C3115 C3114 1.367 1_545 S
C3115 C3117 1.389 . S
H3116 C3123 0.950 . S
C3117 C3115 1.389 . S
C3117 C3119 1.386 1_545 S
C3117 H3121 0.952 . S
H3118 C3114 0.931 1_545 S
C3119 C3117 1.386 1_565 S
C3119 C3120 1.387 . S
C3119 H3122 0.950 . S
C3120 C3119 1.387 . S
C3120 C3123 1.387 . S
H3121 C3117 0.952 . S
H3122 C3119 0.950 . S
C3123 C3114 1.430 . S
C3123 H3116 0.950 . S
C3123 C3120 1.387 . S
C3124 C3125 1.387 . S
C3124 H3128 0.950 . S
C3124 C3133 1.428 . S
C3125 C3124 1.387 . S
C3125 C3127 1.387 . S
H3126 C3133 0.932 1_655 S
C3127 C3125 1.387 . S
C3127 C3129 1.392 1_455 S
C3127 H3131 0.950 . S
H3128 C3124 0.950 . S
C3129 C3127 1.392 1_655 S
C3129 C3130 1.387 . S
C3129 H3132 0.949 . S
C3130 C3129 1.387 . S
C3130 C3133 1.368 1_655 S
H3131 C3127 0.950 . S
H3132 C3129 0.949 . S
C3133 C3124 1.428 . S
C3133 H3126 0.932 1_455 S
C3133 C3130 1.368 1_455 S
C3134 C3135 1.387 . S
C3134 H3138 0.950 . S
C3134 C3143 1.390 1_565 S
C3135 C3134 1.387 . S
C3135 C3137 1.387 1_565 S
H3136 C3143 0.950 . S
C3137 C3135 1.387 1_545 S
C3137 C3139 1.390 . S
C3137 H3141 0.950 1_545 S
H3138 C3134 0.950 . S
C3139 C3137 1.390 . S
C3139 C3140 1.387 . S
C3139 H3142 0.950 . S
C3140 C3139 1.387 . S
C3140 C3143 1.387 . S
H3141 C3137 0.950 1_565 S
H3142 C3139 0.950 . S
C3143 C3134 1.390 1_545 S
C3143 H3136 0.950 . S
C3143 C3140 1.387 . S
C3144 C3145 1.387 . S
C3144 H3148 0.950 . S
C3144 C3153 1.390 1_455 S
C3145 C3144 1.387 . S
C3145 C3147 1.387 1_455 S
H3146 C3153 0.950 . S
C3147 C3145 1.387 1_655 S
C3147 C3149 1.390 . S
C3147 H3151 0.950 1_655 S
H3148 C3144 0.950 . S
C3149 C3147 1.390 . S
C3149 C3150 1.387 . S
C3149 H3152 0.950 . S
C3150 C3149 1.387 . S
C3150 C3153 1.387 . S
H3151 C3147 0.950 1_455 S
H3152 C3149 0.950 . S
C3153 C3144 1.390 1_655 S
C3153 H3146 0.950 . S
C3153 C3150 1.387 . S
C3154 C3155 1.387 1_565 S
C3154 H3158 0.950 1_565 S
C3154 C3163 1.390 . S
C3155 C3154 1.387 1_545 S
C3155 C3157 1.387 . S
H3156 C3163 0.950 . S
C3157 C3155 1.387 . S
C3157 C3159 1.390 1_545 S
C3157 H3161 0.950 . S
H3158 C3154 0.950 1_545 S
C3159 C3157 1.390 1_565 S
C3159 C3160 1.387 . S
C3159 H3162 0.950 . S
C3160 C3159 1.387 . S
C3160 C3163 1.387 . S
H3161 C3157 0.950 . S
H3162 C3159 0.950 . S
C3163 C3154 1.390 . S
C3163 H3156 0.950 . S
C3163 C3160 1.387 . S
C3164 C3165 1.387 1_455 S
C3164 H3168 0.949 1_455 S
C3164 C3173 1.391 . S
C3165 C3164 1.387 1_655 S
C3165 C3167 1.375 1_655 S
H3166 C3173 0.950 . S
C3167 C3165 1.375 1_455 S
C3167 C3169 1.414 . S
C3167 H3171 0.938 1_455 S
H3168 C3164 0.949 1_655 S
C3169 C3167 1.414 . S
C3169 C3170 1.387 . S
C3169 H3172 0.950 . S
C3170 C3169 1.387 . S
C3170 C3173 1.387 . S
H3171 C3167 0.938 1_655 S
H3172 C3169 0.950 . S
C3173 C3164 1.391 . S
C3173 H3166 0.950 . S
C3173 C3170 1.387 . S
C3174 C3175 1.387 1_545 S
C3174 H3178 0.950 1_545 S
C3174 C3183 1.390 . S
C3175 C3174 1.387 1_565 S
C3175 C3177 1.387 . S
H3176 C3183 0.950 . S
C3177 C3175 1.387 . S
C3177 C3179 1.390 1_565 S
C3177 H3181 0.950 . S
H3178 C3174 0.950 1_565 S
C3179 C3177 1.390 1_545 S
C3179 C3180 1.387 . S
C3179 H3182 0.950 . S
C3180 C3179 1.387 . S
C3180 C3183 1.387 . S
H3181 C3177 0.950 . S
H3182 C3179 0.950 . S
C3183 C3174 1.390 . S
C3183 H3176 0.950 . S
C3183 C3180 1.387 . S
C3184 C3185 1.387 . S
C3184 H3188 0.950 . S
C3184 C3193 1.409 . S
C3185 C3184 1.387 . S
C3185 C3187 1.387 . S
H3186 C3193 0.941 1_545 S
C3187 C3185 1.387 . S
C3187 C3189 1.397 . S
C3187 H3191 0.950 . S
H3188 C3184 0.950 . S
C3189 C3187 1.397 . S
C3189 C3190 1.384 1_565 S
C3189 H3192 0.946 1_565 S
C3190 C3189 1.384 1_545 S
C3190 C3193 1.378 1_545 S
H3191 C3187 0.950 . S
H3192 C3189 0.946 1_545 S
C3193 C3184 1.409 . S
C3193 H3186 0.941 1_565 S
C3193 C3190 1.378 1_565 S
C3194 C3195 1.387 . S
C3194 H3198 0.950 . S
C3194 C3203 1.390 1_565 S
C3195 C3194 1.387 . S
C3195 C3197 1.387 1_565 S
H3196 C3203 0.950 . S
C3197 C3195 1.387 1_545 S
C3197 C3199 1.390 . S
C3197 H3201 0.950 1_545 S
H3198 C3194 0.950 . S
C3199 C3197 1.390 . S
C3199 C3200 1.387 . S
C3199 H3202 0.950 . S
C3200 C3199 1.387 . S
C3200 C3203 1.387 . S
H3201 C3197 0.950 1_565 S
H3202 C3199 0.950 . S
C3203 C3194 1.390 1_545 S
C3203 H3196 0.950 . S
C3203 C3200 1.387 . S
C3204 C3205 1.361 1_655 S
C3204 H3208 0.927 1_655 S
C3204 C3213 1.441 . S
C3205 C3204 1.361 1_455 S
C3205 C3207 1.394 . S
H3206 C3213 0.950 . S
C3207 C3205 1.394 . S
C3207 C3209 1.376 1_455 S
C3207 H3211 0.957 . S
H3208 C3204 0.927 1_455 S
C3209 C3207 1.376 1_655 S
C3209 C3210 1.387 . S
C3209 H3212 0.950 . S
C3210 C3209 1.387 . S
C3210 C3213 1.387 . S
H3211 C3207 0.957 . S
H3212 C3209 0.950 . S
C3213 C3204 1.441 . S
C3213 H3206 0.950 . S
C3213 C3210 1.387 . S
C3214 C3215 1.387 . S
C3214 H3218 0.950 . S
C3214 C3223 1.390 1_545 S
C3215 C3214 1.387 . S
C3215 C3217 1.387 1_545 S
H3216 C3223 0.950 . S
C3217 C3215 1.387 1_565 S
C3217 C3219 1.390 . S
C3217 H3221 0.950 1_565 S
H3218 C3214 0.950 . S
C3219 C3217 1.390 . S
C3219 C3220 1.387 . S
C3219 H3222 0.950 . S
C3220 C3219 1.387 . S
C3220 C3223 1.387 . S
H3221 C3217 0.950 1_545 S
H3222 C3219 0.950 . S
C3223 C3214 1.390 1_565 S
C3223 H3216 0.950 . S
C3223 C3220 1.387 . S
C3224 C3225 1.387 . S
C3224 H3228 0.950 . S
C3224 C3233 1.390 1_655 S
C3225 C3224 1.387 . S
C3225 C3227 1.387 1_655 S
H3226 C3233 0.950 . S
C3227 C3225 1.387 1_455 S
C3227 C3229 1.390 . S
C3227 H3231 0.950 1_455 S
H3228 C3224 0.950 . S
C3229 C3227 1.390 . S
C3229 C3230 1.387 . S
C3229 H3232 0.950 . S
C3230 C3229 1.387 . S
C3230 C3233 1.387 . S
H3231 C3227 0.950 1_655 S
H3232 C3229 0.950 . S
C3233 C3224 1.390 1_455 S
C3233 H3226 0.950 . S
C3233 C3230 1.387 . S
C3234 C3235 1.387 . S
C3234 H3238 0.950 . S
C3234 C3243 1.390 . S
C3235 C3234 1.387 . S
C3235 C3237 1.387 . S
H3236 C3243 0.933 1_565 S
C3237 C3235 1.387 . S
C3237 C3239 1.390 1_545 S
C3237 H3241 0.950 . S
H3238 C3234 0.950 . S
C3239 C3237 1.390 1_565 S
C3239 C3240 1.387 . S
C3239 H3242 0.950 . S
C3240 C3239 1.387 . S
C3240 C3243 1.387 1_565 S
H3241 C3237 0.950 . S
H3242 C3239 0.950 . S
C3243 C3234 1.390 . S
C3243 H3236 0.933 1_545 S
C3243 C3240 1.387 1_545 S
C3244 C3245 1.387 . S
C3244 H3248 0.950 . S
C3244 C3253 1.390 . S
C3245 C3244 1.387 . S
C3245 C3247 1.387 . S
H3246 C3253 0.950 1_455 S
C3247 C3245 1.387 . S
C3247 C3249 1.346 1_655 S
C3247 H3251 0.950 . S
H3248 C3244 0.950 . S
C3249 C3247 1.346 1_455 S
C3249 C3250 1.408 . S
C3249 H3252 0.975 . S
C3250 C3249 1.408 . S
C3250 C3253 1.387 1_455 S
H3251 C3247 0.950 . S
H3252 C3249 0.975 . S
C3253 C3244 1.390 . S
C3253 H3246 0.950 1_655 S
C3253 C3250 1.387 1_655 S
C3254 C3255 1.372 1_455 S
C3254 H3258 0.935 1_455 S
C3254 C3263 1.420 . S
C3255 C3254 1.372 1_655 S
C3255 C3257 1.385 . S
H3256 C3263 0.950 . S
C3257 C3255 1.385 . S
C3257 C3259 1.396 1_655 S
C3257 H3261 0.947 . S
H3258 C3254 0.935 1_655 S
C3259 C3257 1.396 1_455 S
C3259 C3260 1.387 . S
C3259 H3262 0.950 . S
C3260 C3259 1.387 . S
C3260 C3263 1.387 . S
H3261 C3257 0.947 . S
H3262 C3259 0.950 . S
C3263 C3254 1.420 . S
C3263 H3256 0.950 . S
C3263 C3260 1.387 . S
C1345 C8 1.400 . S
C1350 C442 1.450 . S
C1355 C22 1.399 . S
C1360 C400 1.447 . S
C1365 C414 1.449 . S
C1370 C36 1.400 . S
C1375 C428 1.447 . S
C1380 C50 1.398 . S
C1385 C358 1.450 . S
C1390 C64 1.400 . S
C1395 C372 1.450 . S
C1400 C78 1.400 . S
C1405 C92 1.397 . S
C1410 C386 1.447 . S
C1415 C344 1.449 . S
C1420 C106 1.399 . S
C1425 C120 1.401 . S
C1430 C624 1.449 . S
C1435 C134 1.398 . S
C1440 C582 1.447 . S
C1445 C148 1.398 . S
C1450 C596 1.449 . S
C1455 C162 1.397 . S
C1460 C610 1.448 . S
C1465 C176 1.397 . S
C1470 C666 1.448 . S
C1475 C190 1.400 . S
C1480 C638 1.450 . S
C1485 C204 1.398 . S
C1490 C652 1.449 . S
C1495 C568 1.447 . S
C1500 C218 1.398 . S
C1505 C232 1.401 . S
C1510 C554 1.449 . S
C1515 C470 1.447 . S
C1520 C246 1.398 . S
C1525 C484 1.450 . S
C1530 C260 1.401 . S
C1535 C274 1.398 . S
C1540 C498 1.447 . S
C1545 C456 1.448 . S
C1550 C288 1.397 . S
C1555 C526 1.450 . S
C1560 C302 1.400 . S
C1565 C316 1.398 . S
C1570 C540 1.449 . S
C1575 C330 1.401 . S
C1580 C512 1.449 . S
C1585 C1114 1.449 . S
C1590 C680 1.400 . S
C1595 C1072 1.449 . S
C1600 C694 1.398 . S
C1605 C708 1.400 . S
C1610 C1086 1.449 . S
C1615 C1100 1.449 . S
C1620 C722 1.400 . S
C1625 C736 1.397 . S
C1630 C1030 1.448 . S
C1635 C750 1.399 . S
C1640 C1044 1.449 . S
C1645 C1058 1.450 . S
C1650 C764 1.401 . S
C1655 C1016 1.447 . S
C1660 C778 1.399 . S
C1665 C1296 1.449 . S
C1670 C792 1.400 . S
C1675 C1254 1.447 . S
C1680 C806 1.398 . S
C1685 C820 1.397 . S
C1690 C1268 1.448 . S
C1695 C834 1.397 . S
C1700 C1282 1.447 . S
C1705 C1338 1.450 . S
C1710 C848 1.401 . S
C1715 C1310 1.447 . S
C1720 C862 1.398 . S
C1725 C1324 1.448 . S
C1730 C876 1.400 . S
C1735 C890 1.397 . S
C1740 C1240 1.447 . S
C1745 C1226 1.450 . S
C1750 C904 1.401 . S
C1755 C918 1.399 . S
C1760 C1142 1.447 . S
C1765 C1156 1.448 . S
C1770 C932 1.399 . S
C1775 C1170 1.448 . S
C1780 C946 1.398 . S
C1785 C1128 1.449 . S
C1790 C960 1.401 . S
C1795 C974 1.399 . S
C1800 C1198 1.448 . S
C1805 C988 1.399 . S
C1810 C1212 1.447 . S
C1815 C1184 1.449 . S
C1820 C1002 1.398 . S
C1825 C3 1.987 . S
C1830 C955 1.988 . S
C1835 C17 1.987 . S
C1840 C913 1.985 . S
C1845 C31 1.986 . S
C1850 C927 1.988 . S
C1855 C45 1.986 . S
C1860 C941 1.988 . S
C1865 C997 1.987 . S
C1870 C59 1.985 . S
C1875 C73 1.986 . S
C1880 C969 1.985 . S
C1885 C983 1.987 . S
C1890 C87 1.986 . S
C1895 C101 1.985 . S
C1900 C899 1.986 . S
C1905 C885 1.987 . S
C1910 C115 1.985 . S
C1915 C129 1.986 . S
C1920 C843 1.988 . S
C1925 C857 1.988 . S
C1930 C143 1.987 . S
C1935 C157 1.986 . S
C1940 C871 1.985 . S
C1945 C171 1.987 . S
C1950 C801 1.986 . S
C1955 C185 1.986 . S
C1960 C815 1.988 . S
C1965 C829 1.986 . S
C1970 C199 1.985 . S
C1975 C787 1.987 . S
C1980 C213 1.987 . S
C1985 C227 1.985 . S
C1990 C773 1.985 . S
C1995 C241 1.987 . S
C2000 C689 1.987 . S
C2005 C255 1.986 . S
C2010 C703 1.985 . S
C2015 C269 1.985 . S
C2020 C717 1.985 . S
C2025 C283 1.985 . S
C2030 C675 1.985 . S
C2035 C745 1.987 . S
C2040 C297 1.987 . S
C2045 C759 1.988 . S
C2050 C311 1.987 . S
C2055 C325 1.985 . S
C2060 C731 1.987 . S
C2065 C345 1.177 . S
C2070 C1297 1.175 . S
C2075 C359 1.177 . S
C2080 C1255 1.176 . S
C2085 C373 1.177 . S
C2090 C1269 1.176 . S
C2095 C387 1.177 . S
C2100 C1283 1.177 . S
C2105 C401 1.175 . S
C2110 C1339 1.178 . S
C2115 C1311 1.177 . S
C2120 C415 1.175 . S
C2125 C429 1.178 . S
C2130 C1325 1.175 . S
C2135 C443 1.176 . S
C2140 C1241 1.176 . S
C2145 C1227 1.176 . S
C2150 C457 1.177 . S
C2155 C1185 1.177 . S
C2160 C471 1.176 . S
C2165 C1199 1.175 . S
C2170 C485 1.178 . S
C2175 C1213 1.175 . S
C2180 C499 1.178 . S
C2185 C513 1.175 . S
C2190 C1143 1.178 . S
C2195 C527 1.178 . S
C2200 C1157 1.175 . S
C2205 C541 1.175 . S
C2210 C1171 1.178 . S
C2215 C1129 1.177 . S
C2220 C555 1.176 . S
C2225 C1115 1.177 . S
C2230 C569 1.177 . S
C2235 C583 1.176 . S
C2240 C1031 1.177 . S
C2245 C1045 1.177 . S
C2250 C597 1.176 . S
C2255 C1059 1.176 . S
C2260 C611 1.176 . S
C2265 C625 1.175 . S
C2270 C1017 1.178 . S
C2275 C639 1.175 . S
C2280 C1087 1.178 . S
C2285 C1101 1.178 . S
C2290 C653 1.175 . S
C2295 C667 1.177 . S
C2300 C1073 1.176 . S
C2305 C9 1.555 . S
C2310 C395 1.573 . S
C2315 C23 1.556 . S
C2320 C409 1.573 . S
C2325 C37 1.554 . S
C2330 C423 1.573 . S
C2335 C51 1.555 . S
C2340 C437 1.572 . S
C2345 C339 1.573 . S
C2350 C65 1.555 . S
C2355 C79 1.555 . S
C2360 C353 1.573 . S
C2365 C367 1.573 . S
C2370 C93 1.554 . S
C2375 C381 1.573 . S
C2380 C107 1.555 . S
C2385 C121 1.553 . S
C2390 C535 1.574 . S
C2395 C549 1.573 . S
C2400 C135 1.555 . S
C2405 C149 1.553 . S
C2410 C507 1.574 . S
C2415 C163 1.556 . S
C2420 C521 1.572 . S
C2425 C177 1.554 . S
C2430 C479 1.573 . S
C2435 C191 1.556 . S
C2440 C493 1.572 . S
C2445 C205 1.553 . S
C2450 C451 1.573 . S
C2455 C465 1.573 . S
C2460 C219 1.555 . S
C2465 C233 1.554 . S
C2470 C633 1.574 . S
C2475 C247 1.555 . S
C2480 C605 1.572 . S
C2485 C619 1.572 . S
C2490 C261 1.556 . S
C2495 C275 1.556 . S
C2500 C577 1.573 . S
C2505 C591 1.573 . S
C2510 C289 1.554 . S
C2515 C303 1.555 . S
C2520 C563 1.573 . S
C2525 C661 1.573 . S
C2530 C317 1.554 . S
C2535 C647 1.574 . S
C2540 C331 1.553 . S
C2545 C681 1.556 . S
C2550 C1067 1.572 . S
C2555 C695 1.556 . S
C2560 C1081 1.572 . S
C2565 C709 1.554 . S
C2570 C1095 1.574 . S
C2575 C1109 1.572 . S
C2580 C723 1.555 . S
C2585 C737 1.554 . S
C2590 C1011 1.573 . S
C2595 C751 1.554 . S
C2600 C1025 1.574 . S
C2605 C765 1.556 . S
C2610 C1039 1.572 . S
C2615 C779 1.553 . S
C2620 C1053 1.574 . S
C2625 C793 1.556 . S
C2630 C1207 1.572 . S
C2635 C1221 1.572 . S
C2640 C807 1.556 . S
C2645 C1179 1.573 . S
C2650 C821 1.554 . S
C2655 C1193 1.572 . S
C2660 C835 1.556 . S
C2665 C849 1.556 . S
C2670 C1151 1.572 . S
C2675 C1165 1.574 . S
C2680 C863 1.553 . S
C2685 C877 1.554 . S
C2690 C1123 1.573 . S
C2695 C1137 1.572 . S
C2700 C891 1.555 . S
C2705 C1305 1.572 . S
C2710 C905 1.556 . S
C2715 C1277 1.572 . S
C2720 C919 1.556 . S
C2725 C933 1.556 . S
C2730 C1291 1.572 . S
C2735 C947 1.555 . S
C2740 C1249 1.573 . S
C2745 C1263 1.572 . S
C2750 C961 1.556 . S
C2755 C975 1.556 . S
C2760 C1235 1.572 . S
C2765 C1333 1.572 . S
C2770 C989 1.556 . S
C2775 C1319 1.572 . S
C2780 C1003 1.556 . S
C2785 C371 1.447 . S
C2790 C7 1.444 . S
C2795 C21 1.448 . S
C2800 C385 1.447 . S
C2805 C343 1.446 . S
C2810 C35 1.445 . S
C2815 C49 1.444 . S
C2820 C357 1.448 . S
C2825 C427 1.447 . S
C2830 C63 1.444 . S
C2835 C441 1.449 . S
C2840 C77 1.447 . S
C2845 C91 1.444 . S
C2850 C399 1.449 . S
C2855 C413 1.447 . S
C2860 C105 1.448 . S
C2865 C119 1.445 . S
C2870 C511 1.446 . S
C2875 C133 1.446 . S
C2880 C525 1.449 . S
C2885 C539 1.446 . S
C2890 C147 1.445 . S
C2895 C161 1.445 . S
C2900 C553 1.449 . S
C2905 C175 1.444 . S
C2910 C455 1.447 . S
C2915 C469 1.446 . S
C2920 C189 1.446 . S
C2925 C483 1.448 . S
C2930 C203 1.447 . S
C2935 C497 1.446 . S
C2940 C217 1.445 . S
C2945 C231 1.444 . S
C2950 C609 1.448 . S
C2955 C637 1.448 . S
C2960 C245 1.447 . S
C2965 C259 1.444 . S
C2970 C651 1.448 . S
C2975 C567 1.446 . S
C2980 C273 1.446 . S
C2985 C665 1.446 . S
C2990 C287 1.445 . S
C2995 C581 1.446 . S
C3000 C301 1.447 . S
C3005 C315 1.447 . S
C3010 C595 1.448 . S
C3015 C329 1.447 . S
C3020 C623 1.448 . S
C3025 C679 1.447 . S
C3030 C1043 1.448 . S
C3035 C1057 1.446 . S
C3040 C693 1.448 . S
C3045 C1015 1.446 . S
C3050 C707 1.446 . S
C3055 C1029 1.448 . S
C3060 C721 1.444 . S
C3065 C735 1.446 . S
C3070 C1099 1.449 . S
C3075 C1113 1.449 . S
C3080 C749 1.444 . S
C3085 C763 1.447 . S
C3090 C1071 1.446 . S
C3095 C1085 1.448 . S
C3100 C777 1.444 . S
C3105 C791 1.447 . S
C3110 C1183 1.446 . S
C3115 C1197 1.446 . S
C3120 C805 1.445 . S
C3125 C819 1.447 . S
C3130 C1211 1.448 . S
C3135 C1225 1.449 . S
C3140 C833 1.444 . S
C3145 C1127 1.448 . S
C3150 C847 1.444 . S
C3155 C1141 1.446 . S
C3160 C861 1.446 . S
C3165 C1155 1.448 . S
C3170 C875 1.447 . S
C3175 C1169 1.446 . S
C3180 C889 1.448 . S
C3185 C903 1.447 . S
C3190 C1281 1.448 . S
C3195 C1309 1.448 . S
C3200 C917 1.444 . S
C3205 C1323 1.446 . S
C3210 C931 1.445 . S
C3215 C1239 1.447 . S
C3220 C945 1.444 . S
C3225 C1337 1.447 . S
C3230 C959 1.444 . S
C3235 C973 1.447 . S
C3240 C1253 1.446 . S
C3245 C987 1.447 . S
C3250 C1267 1.448 . S
C3255 C1295 1.446 . S
C3260 C1001 1.445 . S
