# Generated by pormake.
# Topology vby, (6)-cn, num edge types: 1
# Building blocks:
#     Node 0, Type 0, BuildingBlock: KUMBUR_clean_sbu_0, # of connection points: 6
#     Node 1, Type 0, BuildingBlock: KUMBUR_clean_sbu_0, # of connection points: 6
#     Node 2, Type 0, BuildingBlock: KUMBUR_clean_sbu_0, # of connection points: 6
#     Node 3, Type 0, BuildingBlock: KUMBUR_clean_sbu_0, # of connection points: 6
#     Node 4, Type 0, BuildingBlock: KUMBUR_clean_sbu_0, # of connection points: 6
#     Node 5, Type 0, BuildingBlock: KUMBUR_clean_sbu_0, # of connection points: 6
#     Node 6, Type 0, BuildingBlock: KUMBUR_clean_sbu_0, # of connection points: 6
#     Node 7, Type 0, BuildingBlock: KUMBUR_clean_sbu_0, # of connection points: 6
#     Edge 8, Type (0, 0), BuildingBlock: CIFDUS_clean_linker_0, # of connection points: 2
#     Edge 9, Type (0, 0), BuildingBlock: CIFDUS_clean_linker_0, # of connection points: 2
#     Edge 10, Type (0, 0), BuildingBlock: CIFDUS_clean_linker_0, # of connection points: 2
#     Edge 11, Type (0, 0), BuildingBlock: CIFDUS_clean_linker_0, # of connection points: 2
#     Edge 12, Type (0, 0), BuildingBlock: CIFDUS_clean_linker_0, # of connection points: 2
#     Edge 13, Type (0, 0), BuildingBlock: CIFDUS_clean_linker_0, # of connection points: 2
#     Edge 14, Type (0, 0), BuildingBlock: CIFDUS_clean_linker_0, # of connection points: 2
#     Edge 15, Type (0, 0), BuildingBlock: CIFDUS_clean_linker_0, # of connection points: 2
#     Edge 16, Type (0, 0), BuildingBlock: CIFDUS_clean_linker_0, # of connection points: 2
#     Edge 17, Type (0, 0), BuildingBlock: CIFDUS_clean_linker_0, # of connection points: 2
#     Edge 18, Type (0, 0), BuildingBlock: CIFDUS_clean_linker_0, # of connection points: 2
#     Edge 19, Type (0, 0), BuildingBlock: CIFDUS_clean_linker_0, # of connection points: 2
#     Edge 20, Type (0, 0), BuildingBlock: CIFDUS_clean_linker_0, # of connection points: 2
#     Edge 21, Type (0, 0), BuildingBlock: CIFDUS_clean_linker_0, # of connection points: 2
#     Edge 22, Type (0, 0), BuildingBlock: CIFDUS_clean_linker_0, # of connection points: 2
#     Edge 23, Type (0, 0), BuildingBlock: CIFDUS_clean_linker_0, # of connection points: 2
#     Edge 24, Type (0, 0), BuildingBlock: CIFDUS_clean_linker_0, # of connection points: 2
#     Edge 25, Type (0, 0), BuildingBlock: CIFDUS_clean_linker_0, # of connection points: 2
#     Edge 26, Type (0, 0), BuildingBlock: CIFDUS_clean_linker_0, # of connection points: 2
#     Edge 27, Type (0, 0), BuildingBlock: CIFDUS_clean_linker_0, # of connection points: 2
#     Edge 28, Type (0, 0), BuildingBlock: CIFDUS_clean_linker_0, # of connection points: 2
#     Edge 29, Type (0, 0), BuildingBlock: CIFDUS_clean_linker_0, # of connection points: 2
#     Edge 30, Type (0, 0), BuildingBlock: CIFDUS_clean_linker_0, # of connection points: 2
#     Edge 31, Type (0, 0), BuildingBlock: CIFDUS_clean_linker_0, # of connection points: 2
# Relax obj value: 0.108
# Max RMSD: 0.198
# Mean RMSD: 0.198
data_MOF--net-vby--node1-KUMBUR_clean_sbu_0--edge1-CIFDUS_clean_linker_0
_symmetry_space_group_name_H-M    P1
_symmetry_Int_Tables_number       1
_symmetry_cell_setting            triclinic
loop_
_symmetry_equiv_pos_as_xyz
'x, y, z'
_cell_length_a     12.690741
_cell_length_b     91.830522
_cell_length_c     26.393041
_cell_angle_alpha  114.95406
_cell_angle_beta   89.873279
_cell_angle_gamma 90.032851
loop_
_atom_site_label
_atom_site_type_symbol
_atom_site_fract_x
_atom_site_fract_y
_atom_site_fract_z
_atom_type_partial_charge
Tb0 Tb 0.08845 0.39829 0.03523 0.0
C1 C 0.08367 0.33318 0.84892 0.0
C2 C 0.90588 0.32299 0.82557 0.0
C3 C 1.04155 0.31464 0.7536 0.0
C4 C 0.98052 0.33265 0.86471 0.0
C5 C 0.11517 0.32443 0.79295 0.0
C6 C 0.93713 0.31388 0.76993 0.0
C7 C 0.28777 0.33632 0.81876 0.0
N8 N 0.15119 0.34316 0.88813 0.0
C9 C 0.2526 0.34475 0.87384 0.0
C10 C 0.21892 0.32608 0.77814 0.0
Tb11 Tb 0.08518 0.35609 0.97723 0.0
N12 N 0.95293 0.34205 0.9185 0.0
C13 C 0.85373 0.34127 0.93691 0.0
C14 C 0.80232 0.32283 0.84369 0.0
C15 C 0.7764 0.33192 0.8998 0.0
H16 H 0.30723 0.3524 0.90445 0.0
H17 H 0.69767 0.33142 0.91482 0.0
H18 H 0.88104 0.30633 0.73917 0.0
H19 H 0.36815 0.33772 0.80772 0.0
H20 H 0.8364 0.34702 0.98075 0.0
H21 H 0.47849 0.42324 0.0893 0.0
H22 H 0.74247 0.31551 0.81506 0.0
H23 H 0.87248 0.40258 0.11196 0.0
H24 H 0.33416 0.40852 0.02596 0.0
H25 H 0.82117 0.41604 0.21116 0.0
H26 H 0.06426 0.30774 0.71039 0.0
H27 H 0.44619 0.43682 0.19132 0.0
H28 H 0.3175 0.44428 0.27146 0.0
H29 H 0.24632 0.31961 0.73551 0.0
H30 H 0.13787 0.44268 0.30445 0.0
N31 N 0.22629 0.41183 0.09111 0.0
C32 C 0.32173 0.41345 0.07036 0.0
C33 C 0.38374 0.42993 0.16367 0.0
C34 C 0.28351 0.42911 0.18452 0.0
C35 C 0.4025 0.42221 0.10619 0.0
C36 C 0.2054 0.42 0.14663 0.0
H37 H 0.95199 0.43209 0.28228 0.0
N38 N 1.03146 0.41053 0.12637 0.0
C39 C 0.90107 0.41709 0.19867 0.0
C40 C 0.10393 0.41941 0.16501 0.0
C41 C 0.93054 0.40941 0.14233 0.0
C42 C 0.97508 0.42616 0.23873 0.0
C43 C 0.07805 0.42747 0.22205 0.0
O44 O 0.99402 0.41762 0.04033 0.0
O45 O 0.98685 0.37737 0.01931 0.0
O46 O 1.03098 0.36427 0.91458 0.0
O47 O 0.12704 0.38768 0.94505 0.0
O48 O 0.92315 0.39607 0.00908 0.0
O49 O 0.15054 0.4146 0.00538 0.0
O50 O 0.17653 0.33677 0.97622 0.0
O51 O 0.18611 0.37708 0.99184 0.0
O52 O 0.13973 0.3892 0.09637 0.0
O53 O 1.03531 0.36686 0.0654 0.0
O54 O 0.24968 0.35889 0.00542 0.0
O55 O 1.01859 0.34078 0.00983 0.0
C56 C 0.90264 0.38192 0.00403 0.0
C57 C 0.08326 0.44133 0.05059 0.0
C58 C 0.08822 0.46817 0.05173 0.0
C59 C 0.07613 0.45133 0.02231 0.0
C60 C 0.11212 0.47464 0.10913 0.0
C61 C 0.09941 0.44842 0.10846 0.0
C62 C 0.11629 0.46484 0.13725 0.0
C63 C 0.07034 0.37636 0.90591 0.0
C64 C 0.06694 0.42376 0.02027 0.0
C65 C 0.156 0.43639 0.26033 0.0
C66 C 0.25843 0.43725 0.24158 0.0
C67 C 0.27012 0.37283 0.0082 0.0
C68 C 0.08345 0.31387 0.97229 0.0
C69 C 0.14522 0.30404 0.98943 0.0
C70 C 0.12484 0.2874 0.96885 0.0
C71 C 1.04339 0.28073 0.92967 0.0
C72 C 1.00323 0.30681 0.9331 0.0
C73 C 0.98414 0.29037 0.91157 0.0
C74 C 0.09218 0.37775 0.10543 0.0
C75 C 0.10128 0.33145 -0.00237 0.0
H76 H 0.05787 0.44602 0.9781 0.0
H77 H 0.12652 0.48736 0.13275 0.0
H78 H 0.0966 0.44145 0.13197 0.0
H79 H 0.13101 0.47003 0.1818 0.0
H80 H 0.20825 0.30941 0.01916 0.0
H81 H 1.02316 0.26813 0.91391 0.0
H82 H 0.95345 0.31391 0.91971 0.0
H83 H 0.92134 0.28513 0.88165 0.0
Tb84 Tb 0.98228 0.65114 0.03405 0.0
C85 C 0.87297 0.58741 0.84656 0.0
C86 C 0.68852 0.58328 0.85814 0.0
C87 C 0.76556 0.57257 0.76498 0.0
C88 C 0.78681 0.58996 0.88071 0.0
C89 C 0.86489 0.57819 0.78849 0.0
C90 C 0.67727 0.57512 0.79985 0.0
C91 C 0.05488 0.5785 0.78339 0.0
N92 N 0.9674 0.5926 0.87161 0.0
C93 C 0.05848 0.58747 0.84141 0.0
C94 C 0.95748 0.57413 0.7566 0.0
Tb95 Tb 0.96707 0.60735 0.96697 0.0
N96 N 0.80282 0.59725 0.93662 0.0
C97 C 0.727 0.59654 0.97218 0.0
C98 C 0.60695 0.58405 0.89493 0.0
C99 C 0.6272 0.59034 0.9522 0.0
H100 H 0.13409 0.59069 0.86182 0.0
H101 H 0.56634 0.59034 0.98098 0.0
H102 H 0.60201 0.57005 0.78158 0.0
H103 H 0.12719 0.57492 0.75946 0.0
H104 H 0.74288 0.60106 0.01639 0.0
H105 H 0.38006 0.67239 0.05278 0.0
H106 H 0.53003 0.57907 0.87944 0.0
H107 H 0.79302 0.65692 0.12836 0.0
H108 H 0.21903 0.65855 0.00333 0.0
H109 H 0.76919 0.67219 0.22995 0.0
H110 H 0.75707 0.5656 0.72034 0.0
H111 H 0.37797 0.6872 0.15598 0.0
H112 H 0.27369 0.69684 0.24602 0.0
H113 H 0.95488 0.56703 0.7118 0.0
H114 H 0.10558 0.69743 0.29394 0.0
N115 N 0.13281 0.66355 0.07752 0.0
C116 C 0.22025 0.66404 0.04834 0.0
C117 C 0.30852 0.68069 0.13442 0.0
C118 C 0.21572 0.6811 0.1638 0.0
C119 C 0.31027 0.67228 0.07625 0.0
C120 C 0.12793 0.67243 0.13356 0.0
H121 H 0.9164 0.68827 0.28823 0.0
N122 N 0.9518 0.66449 0.12844 0.0
C123 C 0.84376 0.67266 0.2107 0.0
C124 C 1.03311 0.67322 0.15998 0.0
C125 C 0.85744 0.66408 0.15292 0.0
C126 C 0.927 0.68173 0.24349 0.0
C127 C 1.02347 0.68205 0.21819 0.0
O128 O 0.88728 0.67084 0.042 0.0
O129 O 0.88082 0.62995 0.00455 0.0
O130 O 0.96034 0.61643 0.90222 0.0
O131 O 1.03957 0.64163 0.94729 0.0
O132 O 0.80882 0.6513 0.0295 0.0
O133 O 1.02843 0.66515 0.99185 0.0
O134 O 0.07232 0.58882 0.95959 0.0
O135 O 0.06727 0.62855 -0.00226 0.0
O136 O 1.02721 0.64132 0.09353 0.0
O137 O 0.92675 0.61811 0.05666 0.0
O138 O 0.14119 0.60714 0.96555 0.0
O139 O 0.92795 0.59196 0.00517 0.0
C140 C 0.78968 0.63627 0.00831 0.0
C141 C 0.97515 0.69255 0.03369 0.0
C142 C 0.94121 0.71923 0.03652 0.0
C143 C 0.91568 0.70272 0.01679 0.0
C144 C 1.02709 0.72524 0.07317 0.0
C145 C 0.05909 0.69909 0.07079 0.0
C146 C 0.0847 0.71527 0.09038 0.0
C147 C 1.00514 0.62941 0.90181 0.0
C148 C 0.95017 0.6752 0.01175 0.0
C149 C 0.11108 0.69054 0.24909 0.0
C150 C 0.207 0.69012 0.22188 0.0
C151 C 0.15918 0.62225 0.98919 0.0
C152 C 0.98924 0.56536 0.95551 0.0
C153 C 1.00738 0.55523 0.98236 0.0
C154 C 0.98953 0.53852 0.95385 0.0
C155 C 0.95227 0.53222 0.89856 0.0
C156 C 0.9531 0.55865 0.90019 0.0
C157 C 0.9345 0.54224 0.87201 0.0
C158 C 0.98334 0.62879 0.09782 0.0
C159 C 1.00961 0.5828 0.98483 0.0
H160 H 0.84989 0.69778 0.98859 0.0
H161 H 0.05161 0.73765 0.08789 0.0
H162 H 0.10632 0.69178 0.08435 0.0
H163 H 0.15058 0.72007 0.11855 0.0
H164 H 1.0366 0.56031 0.02489 0.0
H165 H 0.93537 0.51953 0.87592 0.0
H166 H 0.93965 0.566 0.87839 0.0
H167 H 0.90605 0.53727 0.8294 0.0
Tb168 Tb 0.10252 0.61415 0.47849 0.0
C169 C 0.95715 0.67931 0.64228 0.0
C170 C 0.79031 0.68247 0.60386 0.0
C171 C 0.81978 0.69566 0.70421 0.0
C172 C 0.89197 0.67577 0.59667 0.0
C173 C 0.92315 0.68966 0.69639 0.0
C174 C 0.75348 0.69207 0.65802 0.0
C175 C 0.09974 0.68893 0.72953 0.0
N176 N 0.05754 0.67369 0.63258 0.0
C177 C 0.13037 0.67891 0.6749 0.0
C178 C 0.99532 0.69417 0.74047 0.0
Tb179 Tb 0.09807 0.65732 0.54138 0.0
N180 N 0.93116 0.66675 0.54492 0.0
C181 C 0.87518 0.66485 0.49834 0.0
C182 C 0.73023 0.67978 0.55631 0.0
C183 C 0.7735 0.67112 0.50332 0.0
H184 H 0.21128 0.67493 0.66675 0.0
H185 H 0.72851 0.6692 0.46626 0.0
H186 H 0.67502 0.69718 0.66445 0.0
H187 H 0.15674 0.69268 0.76309 0.0
H188 H 0.90702 0.65812 0.45708 0.0
H189 H 0.43718 0.60926 0.59644 0.0
H190 H 0.65147 0.68466 0.56002 0.0
H191 H 0.05033 0.5932 0.34171 0.0
H192 H 0.25855 0.61677 0.58392 0.0
H193 H 0.15054 0.5787 0.2549 0.0
H194 H 0.79151 0.7035 0.74555 0.0
H195 H 0.55414 0.59606 0.51469 0.0
H196 H 0.57869 0.58456 0.41074 0.0
H197 H 0.9721 0.70207 0.78274 0.0
H198 H 0.50242 0.5772 0.31753 0.0
N199 N 0.27015 0.60803 0.49506 0.0
C200 C 0.30629 0.61085 0.54728 0.0
C201 C 0.47448 0.59924 0.50868 0.0
C202 C 0.43612 0.59581 0.45522 0.0
C203 C 0.40877 0.60665 0.55486 0.0
C204 C 0.33206 0.60031 0.44969 0.0
H205 H 0.34284 0.57501 0.25883 0.0
N206 N 0.18642 0.59961 0.39435 0.0
C207 C 0.19121 0.58383 0.2946 0.0
C208 C 0.28976 0.59642 0.39751 0.0
C209 C 0.13502 0.59222 0.34397 0.0
C210 C 0.29961 0.58181 0.29701 0.0
C211 C 0.34944 0.58756 0.34904 0.0
O212 O 1.02203 0.59207 0.43902 0.0
O213 O 1.00418 0.63538 0.51611 0.0
O214 O 0.05368 0.65044 0.60776 0.0
O215 O 0.08753 0.62296 0.57035 0.0
O216 O 0.93743 0.61558 0.45552 0.0
O217 O 0.08272 0.5994 0.5215 0.0
O218 O 0.20882 0.67625 0.56518 0.0
O219 O 0.19813 0.63607 0.49964 0.0
O220 O 0.08455 0.62107 0.40892 0.0
O221 O 0.08638 0.64905 0.45098 0.0
O222 O 0.25675 0.65473 0.56882 0.0
O223 O 0.09558 0.67277 0.50086 0.0
C224 C 0.91755 0.63017 0.48988 0.0
C225 C 0.08488 0.5714 0.4632 0.0
C226 C 0.0931 0.54585 0.4726 0.0
C227 C 0.04979 0.56143 0.48863 0.0
C228 C 0.17246 0.54062 0.43147 0.0
C229 C 0.16284 0.56552 0.42169 0.0
C230 C 0.20699 0.5504 0.40649 0.0
C231 C 0.06445 0.63685 0.61272 0.0
C232 C 1.03962 0.58773 0.47918 0.0
C233 C 0.45491 0.58382 0.35425 0.0
C234 C 0.4981 0.5879 0.40729 0.0
C235 C 0.28103 0.64104 0.52972 0.0
C236 C 0.15049 0.69946 0.55501 0.0
C237 C 0.20693 0.70924 0.53529 0.0
C238 C 0.1856 0.7259 0.55667 0.0
C239 C 0.10678 0.7325 0.59763 0.0
C240 C 0.07324 0.70652 0.59609 0.0
C241 C 0.05161 0.72286 0.61731 0.0
C242 C 0.08144 0.63515 0.40674 0.0
C243 C 0.17038 0.68194 0.5315 0.0
H244 H 0.989 0.56576 0.52044 0.0
H245 H 0.20585 0.52869 0.41702 0.0
H246 H 0.18867 0.5724 0.39986 0.0
H247 H 0.26691 0.5461 0.37425 0.0
H248 H 0.2672 0.70391 0.50366 0.0
H249 H 0.086 0.74509 0.61386 0.0
H250 H 1.02856 0.6995 0.61165 0.0
H251 H 0.99093 0.72805 0.64874 0.0
Tb252 Tb 0.99733 0.36081 0.48836 0.0
C253 C 0.76921 0.41602 0.58971 0.0
C254 C 0.6596 0.41787 0.5174 0.0
C255 C 0.58719 0.42503 0.60997 0.0
C256 C 0.75667 0.41405 0.53494 0.0
C257 C 0.68493 0.42194 0.62808 0.0
C258 C 0.5747 0.42307 0.55487 0.0
C259 C 0.80378 0.42408 0.70176 0.0
N260 N 0.86559 0.41338 0.60648 0.0
C261 C 0.88532 0.41876 0.66271 0.0
C262 C 0.70236 0.4253 0.68416 0.0
Tb263 Tb 0.99096 0.40409 0.53686 0.0
N264 N 0.83888 0.40839 0.49883 0.0
C265 C 0.83161 0.4079 0.44627 0.0
C266 C 0.65033 0.41632 0.46261 0.0
C267 C 0.7372 0.4115 0.42713 0.0
H268 H 0.96406 0.41972 0.67896 0.0
H269 H 0.73222 0.41082 0.38526 0.0
H270 H 0.49923 0.42578 0.54177 0.0
H271 H 0.82009 0.42778 0.74571 0.0
H272 H 0.89858 0.4055 0.41898 0.0
H273 H 0.33033 0.35272 0.59907 0.0
H274 H 0.57708 0.4191 0.44763 0.0
H275 H 0.93979 0.33838 0.35262 0.0
H276 H 0.14917 0.3601 0.5886 0.0
H277 H 1.03817 0.32511 0.26434 0.0
H278 H 0.52145 0.42937 0.63873 0.0
H279 H 0.45138 0.34294 0.51784 0.0
H280 H 0.47764 0.33451 0.41472 0.0
H281 H 0.63952 0.42978 0.71473 0.0
H282 H 0.39771 0.3276 0.3225 0.0
N283 N 0.16615 0.35513 0.50239 0.0
C284 C 0.20046 0.35611 0.55279 0.0
C285 C 0.37134 0.34621 0.51294 0.0
C286 C 0.33376 0.34432 0.46073 0.0
C287 C 0.30333 0.3517 0.55884 0.0
C288 C 0.22868 0.34863 0.45659 0.0
H289 H 0.23278 0.32377 0.26562 0.0
N290 N 0.07789 0.34634 0.40324 0.0
C291 C 0.08031 0.33066 0.3035 0.0
C292 C 0.18323 0.34443 0.405 0.0
C293 C 1.02506 0.33829 0.3537 0.0
C294 C 0.19003 0.33001 0.3044 0.0
C295 C 0.24245 0.33628 0.35579 0.0
O296 O 0.92723 0.33794 0.45128 0.0
O297 O 0.89814 0.3821 0.51475 0.0
O298 O 1.04224 0.3989 0.60731 0.0
O299 O 0.9861 0.37247 0.57978 0.0
O300 O 0.82709 0.36014 0.4766 0.0
O301 O 0.97317 0.34794 0.53739 0.0
O302 O 1.03618 0.42725 0.59393 0.0
O303 O 0.09024 0.38288 0.51305 0.0
O304 O 0.96419 0.36687 0.41798 0.0
O305 O 1.02851 0.39288 0.44716 0.0
O306 O 0.16336 0.40461 0.53806 0.0
O307 O 1.02423 0.42145 0.50613 0.0
C308 C 0.80773 0.37524 0.50031 0.0
C309 C 0.98022 0.31966 0.48753 0.0
C310 C 0.95693 0.29311 0.487 0.0
C311 C 0.91709 0.30847 0.49706 0.0
C312 C 0.06147 0.28934 0.46808 0.0
C313 C 0.08369 0.31548 0.46832 0.0
C314 C 0.12424 0.30048 0.45913 0.0
C315 C 1.02057 0.38635 0.61806 0.0
C316 C 0.93608 0.33536 0.49582 0.0
C317 C 0.35036 0.3336 0.35979 0.0
C318 C 0.39584 0.3375 0.41227 0.0
C319 C 0.18175 0.3895 0.51959 0.0
C320 C 0.98162 0.44821 0.56918 0.0
C321 C 1.01751 0.45909 0.54777 0.0
C322 C 0.96676 0.47412 0.56259 0.0
C323 C 0.87854 0.47777 0.59832 0.0
C324 C 0.89368 0.45239 0.6048 0.0
C325 C 0.84215 0.46695 0.61871 0.0
C326 C 0.99948 0.37886 0.40759 0.0
C327 C 1.03818 0.43286 0.55596 0.0
H328 H 0.8371 0.31172 0.51203 0.0
H329 H 0.09426 0.27759 0.45866 0.0
H330 H 0.1329 0.32366 0.45958 0.0
H331 H 0.20417 0.29738 0.44404 0.0
H332 H 0.08513 0.45587 0.52006 0.0
H333 H 0.83891 0.48924 0.61218 0.0
H334 H 0.86573 0.44461 0.62311 0.0
H335 H 0.77487 0.47004 0.64658 0.0
Tb336 Tb 0.64824 0.90065 0.03789 0.0
C337 C 0.51087 0.83517 0.86875 0.0
C338 C 0.32892 0.83361 0.89268 0.0
C339 C 0.38753 0.81925 0.79641 0.0
C340 C 0.43105 0.83993 0.90771 0.0
C341 C 0.49131 0.82432 0.81302 0.0
C342 C 0.3063 0.82388 0.83631 0.0
C343 C 0.67953 0.82243 0.7972 0.0
N344 N 0.60994 0.83997 0.88726 0.0
C345 C 0.69474 0.83329 0.85298 0.0
C346 C 0.57718 0.81819 0.77678 0.0
Tb347 Tb 0.62723 0.85759 0.97956 0.0
N348 N 0.45781 0.84862 0.96186 0.0
C349 C 0.38998 0.84967 0.0035 0.0
C350 C 0.25552 0.83612 0.93522 0.0
C351 C 0.28728 0.84376 0.99095 0.0
H352 H 0.77404 0.8367 0.86816 0.0
H353 H 0.23276 0.84517 0.02429 0.0
H354 H 0.22775 0.81913 0.82371 0.0
H355 H 0.74659 0.81746 0.76992 0.0
H356 H 0.41364 0.85553 0.04676 0.0
H357 H 0.9892 0.90665 0.92684 0.0
H358 H 0.17617 0.83143 0.92558 0.0
H359 H 0.58087 0.91993 0.17171 0.0
H360 H 0.80869 0.89838 0.93557 0.0
H361 H 0.67056 0.93627 0.26104 0.0
H362 H 0.37024 0.8111 0.75357 0.0
H363 H 0.09993 0.91982 0.01107 0.0
H364 H 0.11557 0.93129 0.11581 0.0
H365 H 0.56552 0.80977 0.73364 0.0
H366 H 1.02938 0.939 0.20722 0.0
N367 N 0.8157 0.90684 0.02423 0.0
C368 C 0.85506 0.90428 0.97288 0.0
C369 C 1.02003 0.91633 0.0153 0.0
C370 C 0.9776 0.91949 0.06794 0.0
C371 C 0.95774 0.90896 0.96767 0.0
C372 C 0.87342 0.91467 0.07109 0.0
H373 H 0.86236 0.94129 0.26187 0.0
N374 N 0.72193 0.91526 0.1233 0.0
C375 C 0.71517 0.9313 0.22246 0.0
C376 C 0.82543 0.91883 0.12247 0.0
C377 C 0.66472 0.92209 0.17194 0.0
C378 C 0.82357 0.93404 0.22275 0.0
C379 C 0.87952 0.92814 0.1722 0.0
O380 O 0.55602 0.92173 0.07326 0.0
O381 O 0.53749 0.88034 0.00386 0.0
O382 O 0.61983 0.86364 0.90757 0.0
O383 O 0.63005 0.89169 0.94688 0.0
O384 O 0.49169 0.90054 0.07229 0.0
O385 O 0.64546 0.91644 -0.00151 0.0
O386 O 0.72698 0.83812 0.96899 0.0
O387 O 0.73302 0.87814 0.00618 0.0
O388 O 0.69079 0.892 0.10103 0.0
O389 O 0.59179 0.86876 0.06945 0.0
O390 O 0.80017 0.85635 0.96953 0.0
O391 O 0.60184 0.84488 0.02903 0.0
C392 C 0.45932 0.8867 0.0371 0.0
C393 C 0.62399 0.94396 0.05934 0.0
C394 C 0.62445 0.97028 0.05616 0.0
C395 C 0.58943 0.95416 0.03506 0.0
C396 C 0.69539 0.97591 0.10121 0.0
C397 C 0.69324 0.95013 0.10486 0.0
C398 C 0.72947 0.96587 0.1252 0.0
C399 C 0.62196 0.87755 0.90351 0.0
C400 C 0.58728 0.92704 0.0371 0.0
C401 C 0.98572 0.93206 0.16944 0.0
C402 C 1.0347 0.92772 0.11738 0.0
C403 C 0.8234 0.87126 0.99331 0.0
C404 C 0.64565 0.81725 0.98458 0.0
C405 C 0.70363 0.80692 0.00126 0.0
C406 C 0.6748 0.79057 0.98233 0.0
C407 C 0.58728 0.78486 0.9467 0.0
C408 C 0.55961 0.81106 0.94872 0.0
C409 C 0.53077 0.79502 0.92987 0.0
C410 C 0.64219 0.88054 0.10976 0.0
C411 C 0.67513 0.83435 0.00425 0.0
H412 H 0.53546 0.94958 5e-05 0.0
H413 H 0.72227 0.98825 0.11918 0.0
H414 H 0.71858 0.943 0.12568 0.0
H415 H 0.78286 0.97039 0.16041 0.0
H416 H 0.77106 0.81159 0.02847 0.0
H417 H 0.56081 0.77255 0.93251 0.0
H418 H 0.51382 0.8186 0.93545 0.0
H419 H 0.46355 0.79048 0.9025 0.0
Tb420 Tb 0.48596 0.15284 0.03478 0.0
C421 C 0.27615 0.09515 0.92565 0.0
C422 C 0.15634 0.09562 -0.00207 0.0
C423 C 0.09866 0.0844 0.9014 0.0
C424 C 0.25591 0.09896 0.98133 0.0
C425 C 0.19835 0.0874 0.88488 0.0
C426 C 0.07761 0.08854 0.95782 0.0
C427 C 0.32675 0.08412 0.81368 0.0
N428 N 0.3736 0.09814 0.91102 0.0
C429 C 0.40154 0.09144 0.85539 0.0
C430 C 0.22387 0.0824 0.8285 0.0
Tb431 Tb 0.48965 0.11044 0.98407 0.0
N432 N 0.3333 0.10597 0.01927 0.0
C433 C 0.31774 0.10875 0.07403 0.0
C434 C 0.13863 0.09945 0.05438 0.0
C435 C 0.2202 0.10588 0.09247 0.0
H436 H 0.48235 0.09104 0.84215 0.0
H437 H 0.20867 0.10838 0.13602 0.0
H438 H 1.00052 0.08603 0.96994 0.0
H439 H 0.34948 0.07935 0.77009 0.0
H440 H 0.37978 0.11269 0.10419 0.0
H441 H 0.84653 0.1603 0.94051 0.0
H442 H 0.06308 0.09716 0.06878 0.0
H443 H 0.38883 0.17664 0.16041 0.0
H444 H 0.66414 0.15155 0.9412 0.0
H445 H 0.45857 0.19477 0.25293 0.0
H446 H 1.03781 0.07862 0.87072 0.0
H447 H 0.94125 0.17486 0.02967 0.0
H448 H 0.93537 0.18806 0.13492 0.0
H449 H 0.16626 0.07646 0.79607 0.0
H450 H 0.82942 0.19708 0.22112 0.0
N451 N 0.65516 0.16052 0.02993 0.0
C452 C 0.70382 0.15783 0.98047 0.0
C453 C 0.8608 0.171 0.03024 0.0
C454 C 0.80804 0.17466 0.08079 0.0
C455 C 0.80757 0.16284 0.97986 0.0
C456 C 0.70362 0.16929 0.07912 0.0
H457 H 0.65026 0.19994 0.2656 0.0
N458 N 0.54048 0.17073 0.12194 0.0
C459 C 0.51192 0.18901 0.21807 0.0
C460 C 0.64439 0.17433 0.12731 0.0
C461 C 0.47278 0.17881 0.16553 0.0
C462 C 0.62019 0.1918 0.22513 0.0
C463 C 0.68741 0.18491 0.17892 0.0
O464 O 0.37975 0.17231 0.05709 0.0
O465 O 0.38863 0.13124 0.99601 0.0
O466 O 0.53013 0.1151 0.91223 0.0
O467 O 0.48422 0.14195 0.94306 0.0
O468 O 0.32839 0.15081 0.06326 0.0
O469 O 0.4825 0.16633 0.98703 0.0
O470 O 0.55439 0.0878 0.93447 0.0
O471 O 0.58657 0.13195 0.02027 0.0
O472 O 0.48301 0.14791 0.10868 0.0
O473 O 0.53123 0.12098 0.0738 0.0
O474 O 0.65317 0.11174 0.95985 0.0
O475 O 0.52022 0.09435 0.02082 0.0
C476 C 0.30602 0.13667 0.02645 0.0
C477 C 0.44043 0.19369 0.03717 0.0
C478 C 0.40721 0.21966 0.03515 0.0
C479 C 0.38046 0.20336 0.01864 0.0
C480 C 0.4945 0.22606 0.07034 0.0
C481 C 0.52719 0.20042 0.07196 0.0
C482 C 0.55369 0.21649 0.08868 0.0
C483 C 0.51428 0.128 0.90356 0.0
C484 C 0.41383 0.17657 0.01895 0.0
C485 C 0.79424 0.18916 0.18172 0.0
C486 C 0.85448 0.18407 0.13262 0.0
C487 C 0.67276 0.12642 0.99349 0.0
C488 C 0.49777 0.06689 0.95822 0.0
C489 C 0.53263 0.0566 0.98205 0.0
C490 C 0.4895 0.04101 0.96463 0.0
C491 C 0.40932 0.03614 0.92404 0.0
C492 C 0.41836 0.0615 0.91749 0.0
C493 C 0.37368 0.04637 0.90117 0.0
C494 C 0.51095 0.1351 0.11584 0.0
C495 C 0.54826 0.08277 0.97362 0.0
H496 H 0.31328 0.19823 0.99166 0.0
H497 H 0.51867 0.23841 0.0828 0.0
H498 H 0.57547 0.19331 0.08587 0.0
H499 H 0.6212 0.22149 0.11542 0.0
H500 H 0.59403 0.06069 0.01342 0.0
H501 H 0.37609 0.02418 0.90831 0.0
H502 H 0.39235 0.06869 0.89679 0.0
H503 H 0.31304 0.04238 0.86942 0.0
Tb504 Tb 0.60277 0.11306 0.48598 0.0
C505 C 0.47802 0.18061 0.64676 0.0
C506 C 0.30461 0.18441 0.61655 0.0
C507 C 0.35473 0.1989 0.71404 0.0
C508 C 0.40344 0.17671 0.60516 0.0
C509 C 0.45503 0.1918 0.70169 0.0
C510 C 0.27976 0.19526 0.67147 0.0
C511 C 0.63333 0.18864 0.72728 0.0
N512 N 0.57415 0.17358 0.63284 0.0
C513 C 0.65268 0.1777 0.67207 0.0
C514 C 0.53391 0.19567 0.74227 0.0
Tb515 Tb 0.59647 0.15585 0.54098 0.0
N516 N 0.43126 0.16644 0.55241 0.0
C517 C 0.36689 0.16434 0.5084 0.0
C518 C 0.2357 0.18149 0.57198 0.0
C519 C 0.26768 0.1716 0.51758 0.0
H520 H 0.72991 0.17239 0.66154 0.0
H521 H 0.21609 0.16957 0.48265 0.0
H522 H 0.20378 0.20118 0.68118 0.0
H523 H 0.69516 0.19165 0.75824 0.0
H524 H 0.39055 0.15683 0.46608 0.0
H525 H 0.98199 0.09882 0.5439 0.0
H526 H 0.15902 0.18719 0.57892 0.0
H527 H 0.47095 0.09822 0.3642 0.0
H528 H 0.80919 0.11229 0.5607 0.0
H529 H 0.50395 0.07869 0.26768 0.0
H530 H 0.33515 0.20748 0.75606 0.0
H531 H 1.03446 0.0802 0.4479 0.0
H532 H 0.98715 0.06591 0.34609 0.0
H533 H 0.51923 0.20418 0.78504 0.0
H534 H 0.85692 0.06035 0.27116 0.0
N535 N 0.7658 0.1019 0.47479 0.0
C536 C 0.83145 0.10428 0.51855 0.0
C537 C 0.95861 0.08614 0.455 0.0
C538 C 0.88875 0.08317 0.41075 0.0
C539 C 0.92932 0.09662 0.50924 0.0
C540 C 0.79131 0.09126 0.42224 0.0
H541 H 0.6763 0.06494 0.24162 0.0
N542 N 0.62451 0.09597 0.39348 0.0
C543 C 0.56501 0.08128 0.29887 0.0
C544 C 0.71818 0.08812 0.38016 0.0
C545 C 0.54668 0.09238 0.35394 0.0
C546 C 0.66241 0.07355 0.28432 0.0
C547 C 0.74015 0.07683 0.32523 0.0
O548 O 0.48611 0.09574 0.47538 0.0
O549 O 0.50244 0.13428 0.52217 0.0
O550 O 0.54902 0.14926 0.60773 0.0
O551 O 0.62896 0.12427 0.57758 0.0
O552 O 0.43969 0.11455 0.46047 0.0
O553 O 0.61958 0.09796 0.52796 0.0
O554 O 0.69979 0.17538 0.55678 0.0
O555 O 0.69695 0.13464 0.50595 0.0
O556 O 0.64828 0.11983 0.41891 0.0
O557 O 0.56244 0.14436 0.45071 0.0
O558 O 0.75973 0.15436 0.56672 0.0
O559 O 0.59169 0.16774 0.48809 0.0
C560 C 0.41769 0.12901 0.49447 0.0
C561 C 0.55132 0.0716 0.47654 0.0
C562 C 0.56683 0.04564 0.48222 0.0
C563 C 0.55993 0.06263 0.5087 0.0
C564 C 0.56869 0.03791 0.42353 0.0
C565 C 0.55145 0.06336 0.41798 0.0
C566 C 0.56132 0.04672 0.39184 0.0
C567 C 0.58441 0.13712 0.6172 0.0
C568 C 0.53751 0.08936 0.50373 0.0
C569 C 0.8382 0.06902 0.31317 0.0
C570 C 0.91238 0.07219 0.35583 0.0
C571 C 0.78161 0.13984 0.53357 0.0
C572 C 0.63226 0.19549 0.53121 0.0
C573 C 0.70321 0.20587 0.52142 0.0
C574 C 0.67344 0.22187 0.53361 0.0
C575 C 0.57377 0.22739 0.55728 0.0
C576 C 0.53231 0.20134 0.553 0.0
C577 C 0.5038 0.21716 0.56661 0.0
C578 C 0.60603 0.1317 0.41006 0.0
C579 C 0.66079 0.17853 0.51689 0.0
H580 H 0.5584 0.06879 0.55391 0.0
H581 H 0.57637 0.02498 0.40194 0.0
H582 H 0.542 0.06965 0.39197 0.0
H583 H 0.562 0.0406 0.34666 0.0
H584 H 0.77984 0.20142 0.50332 0.0
H585 H 0.54963 0.23969 0.56879 0.0
H586 H 0.47484 0.19375 0.55885 0.0
H587 H 0.42663 0.22146 0.58404 0.0
Tb588 Tb 0.49709 0.86208 0.4892 0.0
C589 C 0.25647 0.91679 0.56079 0.0
C590 C 0.19051 0.92052 0.48084 0.0
C591 C 0.07761 0.92648 0.56135 0.0
C592 C 0.27234 0.91601 0.50763 0.0
C593 C 0.15868 0.9221 0.58812 0.0
C594 C 0.0933 0.92562 0.5078 0.0
C595 C 0.22473 0.91757 0.66564 0.0
N596 N 0.3342 0.91162 0.58458 0.0
C597 C 0.3194 0.91217 0.63691 0.0
C598 C 0.14388 0.92253 0.64116 0.0
Tb599 Tb 0.49029 0.90535 0.53598 0.0
N600 N 0.36692 0.91083 0.4821 0.0
C601 C 0.38744 0.91211 0.43282 0.0
C602 C 0.2084 0.91984 0.42769 0.0
C603 C 0.30798 0.91586 0.40399 0.0
H604 H 0.37898 0.9088 0.65849 0.0
H605 H 0.32487 0.91625 0.36436 0.0
H606 H 1.02967 0.92898 0.48758 0.0
H607 H 0.21442 0.91794 0.7069 0.0
H608 H 0.4657 0.91108 0.41577 0.0
H609 H 0.9021 0.84596 0.49385 0.0
H610 H 0.14713 0.92301 0.40562 0.0
H611 H 0.31574 0.84365 0.39168 0.0
H612 H 0.7284 0.85726 0.53343 0.0
H613 H 0.31066 0.82504 0.29178 0.0
H614 H 1.00191 0.9304 0.58156 0.0
H615 H 0.92504 0.83196 0.39122 0.0
H616 H 0.83922 0.81995 0.2961 0.0
H617 H 0.07007 0.92656 0.66339 0.0
H618 H 0.67554 0.81362 0.24079 0.0
N619 N 0.65842 0.85157 0.4545 0.0
C620 C 0.73922 0.85177 0.48867 0.0
C621 C 0.8497 0.83731 0.40845 0.0
C622 C 0.76249 0.83535 0.37382 0.0
C623 C 0.83707 0.84516 0.46635 0.0
C624 C 0.66654 0.84255 0.39865 0.0
H625 H 0.47685 0.81508 0.23924 0.0
N626 N 0.48376 0.84457 0.39593 0.0
C627 C 0.38565 0.82881 0.31274 0.0
C628 C 0.57503 0.83855 0.36816 0.0
C629 C 0.38896 0.83932 0.36955 0.0
C630 C 0.47962 0.82326 0.28314 0.0
C631 C 0.57595 0.82789 0.31113 0.0
O632 O 0.39433 0.84417 0.4909 0.0
O633 O 0.39916 0.8835 0.51503 0.0
O634 O 0.5323 0.90167 0.61101 0.0
O635 O 0.53598 0.87368 0.57865 0.0
O636 O 0.32451 0.86211 0.49147 0.0
O637 O 0.54313 0.84853 0.53281 0.0
O638 O 0.52323 0.92627 0.60904 0.0
O639 O 0.5887 0.88447 0.52024 0.0
O640 O 0.49073 0.86757 0.41602 0.0
O641 O 0.53994 0.89444 0.44802 0.0
O642 O 0.66118 0.90453 0.52208 0.0
O643 O 0.5253 0.92667 0.52692 0.0
C644 C 0.30743 0.87712 0.50839 0.0
C645 C 0.48154 0.8218 0.49351 0.0
C646 C 0.44833 0.79523 0.4909 0.0
C647 C 0.42629 0.81186 0.51294 0.0
C648 C 0.52598 0.78881 0.44912 0.0
C649 C 0.55782 0.81497 0.45163 0.0
C650 C 0.57956 0.79861 0.42948 0.0
C651 C 0.54153 0.8884 0.61939 0.0
C652 C 0.46093 0.83924 0.5176 0.0
C653 C 0.67261 0.82175 0.28476 0.0
C654 C 0.7659 0.82543 0.31618 0.0
C655 C 0.67931 0.89002 0.51515 0.0
C656 C 0.56044 0.95225 0.607 0.0
C657 C 0.55331 0.9619 0.5771 0.0
C658 C 0.57029 0.97874 0.60424 0.0
C659 C 0.59502 0.98554 0.66164 0.0
C660 C 0.5867 0.9595 0.66385 0.0
C661 C 0.60413 0.97598 0.69077 0.0
C662 C 0.5222 0.88006 0.40756 0.0
C663 C 0.53443 0.93486 0.58065 0.0
H664 H 0.36652 0.81707 0.54495 0.0
H665 H 0.54725 0.77623 0.43226 0.0
H666 H 0.60205 0.82224 0.43646 0.0
H667 H 0.63937 0.79355 0.39748 0.0
H668 H 0.53386 0.95628 0.53308 0.0
H669 H 0.60519 0.99836 0.68489 0.0
H670 H 0.59248 0.95245 0.68789 0.0
H671 H 0.62314 0.98146 0.73484 0.0
H672 H 0.43564 0.36993 0.06764 0.0
H673 H 0.36101 0.38359 0.93456 0.0
H674 H 0.54973 0.38667 0.92025 0.0
H675 H 0.73737 0.38501 0.94468 0.0
H676 H 0.81145 0.37128 0.0777 0.0
H677 H 0.62278 0.36831 0.09208 0.0
C678 C 0.4606 0.37386 0.03609 0.0
C679 C 0.38313 0.37714 0.00372 0.0
C680 C 0.56977 0.37515 0.02716 0.0
C681 C 0.41777 0.38158 0.96154 0.0
C682 C 0.52607 0.38314 0.95294 0.0
C683 C 0.71222 0.38107 0.97618 0.0
C684 C 0.78956 0.37769 0.00844 0.0
C685 C 0.60296 0.37981 0.98513 0.0
C686 C 0.75481 0.37332 0.05073 0.0
C687 C 0.64653 0.37182 0.05938 0.0
H688 H 0.3153 0.6246 0.06409 0.0
H689 H 0.25708 0.63101 0.9143 0.0
H690 H 0.44646 0.63409 0.90329 0.0
H691 H 0.63199 0.63439 0.93501 0.0
H692 H 0.69031 0.62888 0.0864 0.0
H693 H 0.50075 0.62578 0.09751 0.0
C694 C 0.34376 0.62723 0.03008 0.0
C695 C 0.26978 0.62854 0.99193 0.0
C696 C 0.45444 0.62853 0.02312 0.0
C697 C 0.31022 0.63082 0.94605 0.0
C698 C 0.41936 0.63231 0.93923 0.0
C699 C 0.60352 0.63197 0.96946 0.0
C700 C 0.67767 0.63061 0.00743 0.0
C701 C 0.49279 0.63093 0.97694 0.0
C702 C 0.63707 0.62887 0.05435 0.0
C703 C 0.52787 0.6274 0.06128 0.0
H704 H 0.74543 0.6248 0.42293 0.0
H705 H 0.83195 0.64517 0.59677 0.0
H706 H 0.64528 0.65011 0.62332 0.0
H707 H 0.45487 0.64773 0.59712 0.0
H708 H 0.36913 0.62838 0.42322 0.0
H709 H 0.55598 0.62368 0.39682 0.0
C710 C 0.72363 0.63053 0.46673 0.0
C711 C 0.80446 0.63507 0.5077 0.0
C712 C 0.61513 0.63317 0.48164 0.0
C713 C 0.77332 0.64205 0.56418 0.0
C714 C 0.66579 0.64469 0.57934 0.0
C715 C 0.47688 0.64239 0.55332 0.0
C716 C 0.39606 0.63768 0.51221 0.0
C717 C 0.58567 0.64018 0.53848 0.0
C718 C 0.42775 0.63144 0.45585 0.0
C719 C 0.53529 0.62893 0.44077 0.0
H720 H 0.65763 0.38388 0.58302 0.0
H721 H 0.70477 0.37558 0.41157 0.0
H722 H 0.51441 0.37703 0.39935 0.0
H723 H 0.33177 0.38061 0.43731 0.0
H724 H 0.28485 0.38999 0.60968 0.0
H725 H 0.47506 0.38825 0.62181 0.0
C726 C 0.62642 0.383 0.54361 0.0
C727 C 0.69705 0.38074 0.49932 0.0
C728 C 0.51556 0.38352 0.53656 0.0
C729 C 0.65358 0.37836 0.44737 0.0
C730 C 0.54414 0.37889 0.44008 0.0
C731 C 0.36303 0.38167 0.47692 0.0
C732 C 0.29238 0.38407 0.52129 0.0
C733 C 0.47389 0.3813 0.48416 0.0
C734 C 0.33596 0.38691 0.57367 0.0
C735 C 0.44534 0.38622 0.58091 0.0
H736 H 0.96413 0.88388 0.0831 0.0
H737 H 0.9459 0.86745 0.90487 0.0
H738 H 0.13762 0.86942 0.8992 0.0
H739 H 0.31634 0.87569 0.94503 0.0
H740 H 0.33209 0.89121 0.12333 0.0
H741 H 0.14071 0.88997 0.12853 0.0
C742 C 1.00153 0.88128 0.04324 0.0
C743 C 0.93759 0.87654 0.99483 0.0
C744 C 0.11413 0.88204 0.04001 0.0
C745 C 0.99079 0.87204 0.94333 0.0
C746 C 0.10156 0.87296 0.93993 0.0
C747 C 0.27819 0.87854 0.98487 0.0
C748 C 0.34131 0.88316 0.03371 0.0
C749 C 0.16514 0.87787 0.98792 0.0
C750 C 0.28762 0.88726 0.08481 0.0
C751 C 0.17708 0.88665 0.08798 0.0
H752 H 0.13665 0.1426 0.09569 0.0
H753 H 0.21623 0.12444 0.92103 0.0
H754 H 1.02867 0.11998 0.89666 0.0
H755 H 0.84097 0.12117 0.92496 0.0
H756 H 0.75985 0.14067 0.09968 0.0
H757 H 0.94776 0.14501 0.12422 0.0
C758 C 0.11298 0.13752 0.05219 0.0
C759 C 0.19181 0.13306 0.01009 0.0
C760 C 1.00411 0.13553 0.03867 0.0
C761 C 0.15869 0.12721 0.95417 0.0
C762 C 0.05095 0.12487 0.94032 0.0
C763 C 0.86438 0.12659 0.96853 0.0
C764 C 0.7854 0.1311 0.01046 0.0
C765 C 0.97291 0.12895 0.98217 0.0
C766 C 0.8178 0.13761 0.06658 0.0
C767 C 0.92567 0.13992 0.08052 0.0
H768 H 0.24396 0.11987 0.42798 0.0
H769 H 0.33198 0.14679 0.60019 0.0
H770 H 0.14551 0.15234 0.62598 0.0
H771 H 0.95537 0.14902 0.60008 0.0
H772 H 0.86718 0.12171 0.4281 0.0
H773 H 0.05379 0.11631 0.40225 0.0
C774 C 0.22254 0.12708 0.47121 0.0
C775 C 0.30379 0.13344 0.51165 0.0
C776 C 0.11405 0.12977 0.486 0.0
C777 C 0.27307 0.14229 0.56764 0.0
C778 C 0.16567 0.14527 0.58251 0.0
C779 C 0.97677 0.14174 0.5569 0.0
C780 C 0.89548 0.13532 0.5165 0.0
C781 C 0.08524 0.13901 0.54214 0.0
C782 C 0.92616 0.12633 0.46058 0.0
C783 C 1.03361 0.12342 0.44569 0.0
H784 H 0.83909 0.88612 0.44242 0.0
H785 H 0.7736 0.88605 0.60231 0.0
H786 H 0.96267 0.88361 0.61684 0.0
H787 H 0.14905 0.88146 0.58366 0.0
H788 H 0.21338 0.88203 0.42444 0.0
H789 H 1.02452 0.88451 0.41033 0.0
C790 C 0.86606 0.88511 0.47978 0.0
C791 C 0.7907 0.88518 0.51947 0.0
C792 C 0.97579 0.88431 0.4887 0.0
C793 C 0.82834 0.88503 0.56945 0.0
C794 C 0.93705 0.8839 0.57815 0.0
C795 C 0.12186 0.88268 0.54674 0.0
C796 C 0.197 0.88275 0.50697 0.0
C797 C 1.01189 0.88366 0.53825 0.0
C798 C 0.15885 0.88305 0.45743 0.0
C799 C 0.05029 0.88415 0.44889 0.0
H800 H 0.07702 0.50865 0.90827 0.0
H801 H 0.94055 0.54367 0.06112 0.0
H802 H 0.95638 0.52479 0.10376 0.0
H803 H 1.00089 0.49809 0.09614 0.0
H804 H 0.14268 0.46321 0.94452 0.0
H805 H 0.12608 0.48202 0.90157 0.0
C806 C 0.05011 0.51213 0.95083 0.0
C807 C 1.00694 0.52754 0.98131 0.0
C808 C 0.05808 0.50114 0.97481 0.0
C809 C 0.97487 0.53197 0.03685 0.0
C810 C 0.9829 0.52112 0.06106 0.0
C811 C 1.03024 0.49462 0.05403 0.0
C812 C 0.07437 0.47924 0.02402 0.0
C813 C 1.02348 0.50564 0.03023 0.0
C814 C 0.10776 0.47486 0.96867 0.0
C815 C 0.09932 0.48569 0.94423 0.0
H816 H 0.85313 0.49581 0.53797 0.0
H817 H 0.17247 0.48053 0.54542 0.0
H818 H 0.23888 0.50172 0.5213 0.0
H819 H 0.20733 0.525 0.50031 0.0
H820 H 0.88863 0.54064 0.49472 0.0
H821 H 0.82184 0.51956 0.51978 0.0
C822 C 0.93748 0.49717 0.53515 0.0
C823 C 1.00726 0.48643 0.54386 0.0
C824 C 0.97561 0.50973 0.52288 0.0
C825 C 0.11617 0.48829 0.5382 0.0
C826 C 0.15453 0.5006 0.5251 0.0
C827 C 0.1231 0.52381 0.50444 0.0
C828 C 0.0532 0.53442 0.49521 0.0
C829 C 0.08505 0.51144 0.51769 0.0
C830 C 0.94454 0.53284 0.50209 0.0
C831 C 0.90616 0.52063 0.51574 0.0
H832 H 0.73552 0.99283 0.03657 0.0
H833 H 0.42205 0.97361 0.0272 0.0
H834 H 0.35232 0.99426 0.00095 0.0
H835 H 0.37914 0.01838 0.98483 0.0
H836 H 0.69371 0.03709 0.99107 0.0
H837 H 0.763 0.0166 0.01794 0.0
C838 C 0.65183 0.99316 0.02888 0.0
C839 C 0.58408 0.98169 0.03407 0.0
C840 C 0.61205 1.00522 0.01471 0.0
C841 C 0.47622 0.98214 0.02289 0.0
C842 C 0.4361 0.99407 0.00854 0.0
C843 C 0.46315 0.01792 0.99135 0.0
C844 C 0.53082 0.02934 0.9856 0.0
C845 C 0.50315 1.00576 0.00491 0.0
C846 C 0.63907 0.02871 0.99594 0.0
C847 C 0.67915 0.01683 0.0106 0.0
H848 H 0.4587 0.01817 0.46295 0.0
H849 H 0.68987 0.05043 0.57317 0.0
H850 H 0.71442 0.03229 0.61862 0.0
H851 H 0.67703 0.00672 0.62358 0.0
H852 H 0.43743 0.9752 0.51694 0.0
H853 H 0.41425 0.9932 0.47146 0.0
C854 C 0.51446 0.02125 0.497 0.0
C855 C 0.573 0.03562 0.51434 0.0
C856 C 0.52855 0.01071 0.52266 0.0
C857 C 0.64336 0.03955 0.5592 0.0
C858 C 0.65812 0.02908 0.58481 0.0
C859 C 0.61805 1.00381 0.59117 0.0
C860 C 0.55901 0.98944 0.57431 0.0
C861 C 0.602 0.01454 0.56644 0.0
C862 C 0.48578 0.98588 0.53064 0.0
C863 C 0.47129 0.99632 0.50492 0.0
H864 H 0.18402 0.2562 0.9098 0.0
H865 H 0.19994 0.2952 0.07482 0.0
H866 H 0.28708 0.27761 0.10966 0.0
H867 H 0.35114 0.2509 0.09433 0.0
H868 H 0.32997 0.21175 0.93003 0.0
H869 H 0.24497 0.22949 0.89488 0.0
C870 C 0.2049 0.26086 0.95362 0.0
C871 C 0.18436 0.27703 0.98954 0.0
C872 C 0.25153 0.25056 0.9739 0.0
C873 C 0.21563 0.2829 0.04583 0.0
C874 C 0.26434 0.27279 0.06606 0.0
C875 C 0.32861 0.24625 0.05071 0.0
C876 C 0.34753 0.23003 0.01481 0.0
C877 C 0.28153 0.25656 0.03057 0.0
C878 C 0.31545 0.22413 0.95874 0.0
C879 C 0.26794 0.23431 0.93845 0.0
H880 H 0.72089 0.7589 0.9201 0.0
H881 H 0.75748 0.797 0.08565 0.0
H882 H 0.83847 0.77815 0.1171 0.0
H883 H 0.89218 0.75078 0.09875 0.0
H884 H 0.8578 0.71268 0.93298 0.0
H885 H 0.77556 0.73148 0.90162 0.0
C886 C 0.7456 0.7631 0.96326 0.0
C887 C 0.73221 0.7794 0.00047 0.0
C888 C 0.79003 0.75213 0.98141 0.0
C889 C 0.7676 0.78463 0.05582 0.0
C890 C 0.81284 0.7738 0.07405 0.0
C891 C 0.86795 0.74655 0.05551 0.0
C892 C 0.88238 0.73027 0.01828 0.0
C893 C 0.82353 0.75751 0.03733 0.0
C894 C 0.84704 0.72503 0.96289 0.0
C895 C 0.80109 0.73584 0.94469 0.0
H896 H 0.25153 0.75663 0.61718 0.0
H897 H 0.24525 0.71914 0.44907 0.0
H898 H 0.3229 0.73747 0.4141 0.0
H899 H 0.38431 0.76437 0.43063 0.0
H900 H 0.39066 0.80187 0.59878 0.0
H901 H 0.31386 0.78351 0.63381 0.0
C902 C 0.26615 0.75247 0.57276 0.0
C903 C 0.24166 0.73652 0.5358 0.0
C904 C 0.30814 0.76317 0.55277 0.0
C905 C 0.26415 0.73126 0.47861 0.0
C906 C 0.30738 0.7418 0.45847 0.0
C907 C 0.3701 0.76853 0.47508 0.0
C908 C 0.3941 0.7845 0.51197 0.0
C909 C 0.32851 0.75781 0.49512 0.0
C910 C 0.37205 0.78974 0.56922 0.0
C911 C 0.32928 0.77918 0.58942 0.0
H912 H 1.01425 0.27095 0.52581 0.0
H913 H 0.74717 0.2872 0.46227 0.0
H914 H 0.63858 0.26612 0.46846 0.0
H915 H 0.61988 0.24286 0.49014 0.0
H916 H 0.88591 0.22631 0.55306 0.0
H917 H 0.99646 0.24715 0.54534 0.0
C918 C 0.93262 0.2698 0.51267 0.0
C919 C 0.88935 0.28074 0.49359 0.0
C920 C 0.87105 0.25739 0.51505 0.0
C921 C 0.78255 0.27921 0.47803 0.0
C922 C 0.72055 0.26701 0.48089 0.0
C923 C 0.70203 0.24383 0.50242 0.0
C924 C 0.7443 0.23314 0.52276 0.0
C925 C 0.76412 0.25602 0.49911 0.0
C926 C 0.85153 0.23431 0.53699 0.0
C927 C 0.9144 0.24633 0.53317 0.0
H928 H 0.96365 0.36189 0.14914 0.0
H929 H 0.21769 0.39626 0.19234 0.0
H930 H 0.2079 0.40023 0.28931 0.0
H931 H 0.12873 0.39388 0.36252 0.0
H932 H 0.87925 0.35884 0.31985 0.0
H933 H 0.88761 0.35491 0.22237 0.0
C934 C 1.01739 0.37014 0.17969 0.0
C935 C 0.08997 0.37897 0.1634 0.0
C936 C 1.0129 0.37216 0.23567 0.0
C937 C 0.15928 0.38957 0.20367 0.0
C938 C 0.1543 0.39179 0.25929 0.0
C939 C 0.07591 0.38543 0.33192 0.0
C940 C 1.00397 0.37661 0.34849 0.0
C941 C 0.08125 0.3832 0.27587 0.0
C942 C 0.93656 0.36562 0.30816 0.0
C943 C 0.94087 0.36342 0.25238 0.0
H944 H 0.08428 0.64906 0.19233 0.0
H945 H 0.90464 0.60509 0.12494 0.0
H946 H 0.9222 0.60272 0.21342 0.0
H947 H 0.98613 0.61352 0.31123 0.0
H948 H 0.15642 0.65838 0.37848 0.0
H949 H 0.14207 0.66023 0.28935 0.0
C950 C 0.04722 0.63908 0.19696 0.0
C951 C 0.99204 0.62741 0.15188 0.0
C952 C 0.05572 0.63797 0.24827 0.0
C953 C 0.94714 0.61435 0.15881 0.0
C954 C 0.95716 0.61297 0.20951 0.0
C955 C 1.02107 0.62359 0.30612 0.0
C956 C 0.07312 0.63571 0.35148 0.0
C957 C 1.01121 0.62473 0.25466 0.0
C958 C 0.11578 0.64888 0.34444 0.0
C959 C 0.10788 0.64995 0.29338 0.0
H960 H 0.92341 0.64849 0.8569 0.0
H961 H 0.15051 0.61099 0.8267 0.0
H962 H 0.1814 0.60861 0.73224 0.0
H963 H 0.14514 0.61755 0.65827 0.0
H964 H 0.93186 0.65713 0.69216 0.0
H965 H 0.89629 0.65871 0.78502 0.0
C966 C 0.97961 0.63984 0.82943 0.0
C967 C 1.03032 0.62926 0.84716 0.0
C968 C 1.0004 0.6391 0.776 0.0
C969 C 0.10519 0.61842 0.81224 0.0
C970 C 0.12443 0.61731 0.75864 0.0
C971 C 0.09071 0.62647 0.68589 0.0
C972 C 1.04162 0.63723 0.66826 0.0
C973 C 0.0718 0.62749 0.73982 0.0
C974 C 0.97183 0.64882 0.70485 0.0
C975 C 0.95093 0.6497 0.758 0.0
H976 H 0.95143 0.36567 0.66016 0.0
H977 H 0.12955 0.4094 0.7057 0.0
H978 H 0.16111 0.41037 0.79867 0.0
H979 H 0.14032 0.39835 0.86704 0.0
H980 H 0.95828 0.3548 0.8186 0.0
H981 H 0.92885 0.35409 0.72709 0.0
C982 C 0.99733 0.37546 0.6902 0.0
C983 C 1.03756 0.38748 0.67561 0.0
C984 C 1.01587 0.37587 0.7433 0.0
C985 C 0.09647 0.40005 0.71567 0.0
C986 C 0.11512 0.40056 0.76888 0.0
C987 C 0.09447 0.3887 0.83642 0.0
C988 C 0.05361 0.37647 0.85002 0.0
C989 C 0.07558 0.38848 0.78321 0.0
C990 C 0.99318 0.36419 0.80965 0.0
C991 C 0.97526 0.36382 0.75703 0.0
H992 H 0.50999 0.86441 0.15015 0.0
H993 H 0.76502 0.89865 0.19953 0.0
H994 H 0.74817 0.90203 0.296 0.0
H995 H 0.66064 0.89526 0.36697 0.0
H996 H 0.41084 0.86023 0.31648 0.0
H997 H 0.42843 0.85672 0.21994 0.0
C998 C 0.56251 0.87254 0.18185 0.0
C999 C 0.63682 0.88162 0.16763 0.0
C1000 C 0.55422 0.87411 0.23717 0.0
C1001 C 0.70455 0.89196 0.20946 0.0
C1002 C 0.69575 0.89377 0.26466 0.0
C1003 C 0.61012 0.88688 0.33476 0.0
C1004 C 0.53513 0.8779 0.34889 0.0
C1005 C 0.62041 0.88499 0.27914 0.0
C1006 C 0.47075 0.867 0.30662 0.0
C1007 C 0.48005 0.86512 0.2514 0.0
H1008 H 0.62477 0.11635 0.15286 0.0
H1009 H 0.41617 0.15727 0.20921 0.0
H1010 H 0.43098 0.16026 0.305 0.0
H1011 H 0.49841 0.15082 0.37261 0.0
H1012 H 0.70778 0.10997 0.31727 0.0
H1013 H 0.69516 0.10716 0.22135 0.0
C1014 C 0.5826 0.12591 0.18613 0.0
C1015 C 0.52097 0.13674 0.1739 0.0
C1016 C 0.5904 0.12746 0.24132 0.0
C1017 C 0.46668 0.14905 0.21752 0.0
C1018 C 0.47413 0.15067 0.27237 0.0
C1019 C 0.54189 0.14134 0.33974 0.0
C1020 C 0.6027 0.13048 0.35222 0.0
C1021 C 0.53551 0.13992 0.28475 0.0
C1022 C 0.65866 0.11832 0.30887 0.0
C1023 C 0.65203 0.11675 0.25394 0.0
H1024 H 0.45719 0.14952 0.86304 0.0
H1025 H 0.62042 0.10447 0.81705 0.0
H1026 H 0.65699 0.10323 0.72453 0.0
H1027 H 0.64466 0.11518 0.65674 0.0
H1028 H 0.47942 0.16016 0.70432 0.0
H1029 H 0.44488 0.16135 0.7962 0.0
C1030 C 0.50076 0.13941 0.83288 0.0
C1031 C 0.5345 0.12701 0.8469 0.0
C1032 C 0.52289 0.13886 0.78005 0.0
C1033 C 0.59118 0.11403 0.80713 0.0
C1034 C 0.61314 0.11337 0.75426 0.0
C1035 C 0.60144 0.12526 0.68725 0.0
C1036 C 0.56651 0.13769 0.67354 0.0
C1037 C 0.57957 0.12575 0.74025 0.0
C1038 C 0.50968 0.15058 0.71366 0.0
C1039 C 0.48877 0.15122 0.76635 0.0
H1040 H 0.58504 0.86407 0.64893 0.0
H1041 H 0.54406 0.91553 0.71958 0.0
H1042 H 0.56608 0.91682 0.81364 0.0
H1043 H 0.59286 0.90309 0.87596 0.0
H1044 H 0.62988 0.85162 0.80225 0.0
H1045 H 0.6137 0.85064 0.70961 0.0
C1046 C 0.58114 0.87565 0.68462 0.0
C1047 C 0.56239 0.88968 0.67673 0.0
C1048 C 0.59308 0.8763 0.73838 0.0
C1049 C 0.55844 0.90451 0.72405 0.0
C1050 C 0.57076 0.90525 0.77798 0.0
C1051 C 0.59774 0.89165 0.83969 0.0
C1052 C 0.61269 0.87735 0.84678 0.0
C1053 C 0.58745 0.89118 0.78571 0.0
C1054 C 0.61829 0.86274 0.79884 0.0
C1055 C 0.60907 0.86219 0.74544 0.0
loop_
_geom_bond_atom_site_label_1
_geom_bond_atom_site_label_2
_geom_bond_distance
_geom_bond_site_symmetry_2
_ccdc_geom_bond_type
Tb0 N31 2.660 . S
Tb0 N38 2.600 . S
Tb0 O44 2.546 . S
Tb0 O45 2.610 1_454 S
Tb0 O47 2.320 1_554 S
Tb0 O48 2.552 1_455 S
Tb0 O49 2.413 . S
Tb0 O51 2.362 . S
Tb0 O52 2.421 . S
Tb0 C64 2.833 . S
C1 C4 1.432 . S
C1 C5 1.414 . S
C1 N8 1.359 . S
C2 C4 1.417 . S
C2 C6 1.432 . S
C2 C14 1.410 1_556 S
C3 C5 1.444 . S
C3 C6 1.317 . S
C3 H26 0.929 . S
C4 C1 1.432 . S
C4 C2 1.417 . S
C4 N12 1.360 1_556 S
C5 C1 1.414 . S
C5 C3 1.444 . S
C5 C10 1.385 . S
C6 C2 1.432 . S
C6 C3 1.317 . S
C6 H18 0.930 . S
C7 C9 1.392 . S
C7 C10 1.370 . S
C7 H19 0.931 . S
N8 C1 1.359 . S
N8 C9 1.327 . S
N8 Tb11 2.600 1_655 S
C9 C7 1.392 . S
C9 N8 1.327 . S
C9 H16 0.930 1_655 S
C10 C5 1.385 . S
C10 C7 1.370 . S
C10 H29 0.930 . S
Tb11 N8 2.600 1_455 S
Tb11 N12 2.660 1_456 S
Tb11 O45 2.362 1_455 S
Tb11 O46 2.421 . S
Tb11 O50 2.546 . S
Tb11 O51 2.610 1_556 S
Tb11 O53 2.320 1_556 S
Tb11 O54 2.552 . S
Tb11 O55 2.413 . S
Tb11 C75 2.833 . S
N12 C4 1.360 1_554 S
N12 Tb11 2.660 1_654 S
N12 C13 1.305 . S
C13 N12 1.305 . S
C13 C15 1.407 . S
C13 H20 0.930 . S
C14 C2 1.410 1_554 S
C14 C15 1.345 . S
C14 H22 0.930 . S
C15 C13 1.407 . S
C15 C14 1.345 . S
C15 H17 0.930 . S
H16 C9 0.930 1_455 S
H17 C15 0.930 . S
H18 C6 0.930 . S
H19 C7 0.931 . S
H20 C13 0.930 . S
H21 C35 0.930 . S
H22 C14 0.930 . S
H23 C41 0.930 . S
H24 C32 0.930 . S
H25 C39 0.931 . S
H26 C3 0.929 . S
H27 C33 0.930 . S
H28 C66 0.930 . S
H29 C10 0.930 . S
H30 C65 0.929 . S
N31 Tb0 2.660 . S
N31 C32 1.305 1_554 S
N31 C36 1.360 . S
C32 H24 0.930 . S
C32 N31 1.305 1_556 S
C32 C35 1.407 . S
C33 H27 0.930 . S
C33 C34 1.410 1_556 S
C33 C35 1.345 . S
C34 C33 1.410 1_554 S
C34 C36 1.417 . S
C34 C66 1.432 . S
C35 H21 0.930 . S
C35 C32 1.407 . S
C35 C33 1.345 . S
C36 N31 1.360 . S
C36 C34 1.417 . S
C36 C40 1.432 . S
H37 C42 0.930 . S
N38 Tb0 2.600 . S
N38 C40 1.359 . S
N38 C41 1.327 . S
C39 H25 0.931 . S
C39 C41 1.392 . S
C39 C42 1.370 . S
C40 C36 1.432 . S
C40 N38 1.359 . S
C40 C43 1.414 . S
C41 H23 0.930 . S
C41 N38 1.327 . S
C41 C39 1.392 . S
C42 H37 0.930 . S
C42 C39 1.370 . S
C42 C43 1.385 . S
C43 C40 1.414 . S
C43 C42 1.385 . S
C43 C65 1.444 . S
O44 Tb0 2.546 . S
O44 C64 1.251 . S
O45 Tb0 2.610 1_656 S
O45 Tb11 2.362 1_655 S
O45 C56 1.283 1_556 S
O46 Tb11 2.421 . S
O46 C63 1.262 . S
O47 Tb0 2.320 1_556 S
O47 C63 1.260 . S
O48 Tb0 2.552 1_655 S
O48 C56 1.243 . S
O49 Tb0 2.413 . S
O49 C64 1.256 . S
O50 Tb11 2.546 . S
O50 C75 1.251 . S
O51 Tb0 2.362 . S
O51 Tb11 2.610 1_554 S
O51 C67 1.283 . S
O52 Tb0 2.421 . S
O52 C74 1.262 . S
O53 Tb11 2.320 1_554 S
O53 C74 1.260 . S
O54 Tb11 2.552 . S
O54 C67 1.243 1_556 S
O55 Tb11 2.413 . S
O55 C75 1.256 . S
C56 O45 1.283 1_554 S
C56 O48 1.243 . S
C57 C59 1.382 . S
C57 C61 1.393 . S
C57 C64 1.500 1_655 S
C58 C59 1.400 . S
C58 C60 1.384 . S
C59 C57 1.382 . S
C59 C58 1.400 . S
C59 H76 0.930 1_554 S
C60 C58 1.384 . S
C60 C62 1.392 . S
C60 H77 0.931 . S
C61 C57 1.393 . S
C61 C62 1.401 . S
C61 H78 0.930 1_655 S
C62 C60 1.392 . S
C62 C61 1.401 . S
C62 H79 0.930 . S
C63 O46 1.262 . S
C63 O47 1.260 . S
C64 Tb0 2.833 . S
C64 O44 1.251 . S
C64 O49 1.256 . S
C64 C57 1.500 1_455 S
C65 H30 0.929 . S
C65 C43 1.444 . S
C65 C66 1.317 . S
C66 H28 0.930 . S
C66 C34 1.432 . S
C66 C65 1.317 . S
C67 O51 1.283 . S
C67 O54 1.243 1_554 S
C68 C69 1.382 . S
C68 C72 1.393 . S
C68 C75 1.500 . S
C69 C68 1.382 . S
C69 C70 1.400 . S
C69 H80 0.930 1_556 S
C70 C69 1.400 . S
C70 C71 1.384 . S
C71 C70 1.384 . S
C71 C73 1.392 . S
C71 H81 0.931 . S
C72 C68 1.393 . S
C72 C73 1.401 . S
C72 H82 0.930 . S
C73 C71 1.392 . S
C73 C72 1.401 . S
C73 H83 0.930 . S
C74 O52 1.262 . S
C74 O53 1.260 . S
C75 Tb11 2.833 . S
C75 O50 1.251 . S
C75 O55 1.256 . S
C75 C68 1.500 . S
H76 C59 0.930 1_556 S
H77 C60 0.931 . S
H78 C61 0.930 1_455 S
H79 C62 0.930 . S
H80 C69 0.930 1_554 S
H81 C71 0.931 . S
H82 C72 0.930 . S
H83 C73 0.930 . S
Tb84 N115 2.660 1_655 S
Tb84 N122 2.600 1_655 S
Tb84 O128 2.546 . S
Tb84 O129 2.610 . S
Tb84 O131 2.320 1_554 S
Tb84 O132 2.552 . S
Tb84 O133 2.413 . S
Tb84 O135 2.362 1_655 S
Tb84 O136 2.421 . S
Tb84 C148 2.833 . S
C85 C88 1.432 . S
C85 C89 1.414 . S
C85 N92 1.359 . S
C86 C88 1.417 . S
C86 C90 1.432 . S
C86 C98 1.410 1_556 S
C87 C89 1.444 . S
C87 C90 1.317 . S
C87 H110 0.929 . S
C88 C85 1.432 . S
C88 C86 1.417 . S
C88 N96 1.360 1_556 S
C89 C85 1.414 . S
C89 C87 1.444 . S
C89 C94 1.385 . S
C90 C86 1.432 . S
C90 C87 1.317 . S
C90 H102 0.930 . S
C91 C93 1.392 . S
C91 C94 1.370 . S
C91 H103 0.931 . S
N92 C85 1.359 . S
N92 C93 1.327 . S
N92 Tb95 2.600 . S
C93 C91 1.392 . S
C93 N92 1.327 . S
C93 H100 0.930 . S
C94 C89 1.385 . S
C94 C91 1.370 . S
C94 H113 0.930 . S
Tb95 N92 2.600 . S
Tb95 N96 2.660 1_556 S
Tb95 O129 2.362 1_556 S
Tb95 O130 2.421 . S
Tb95 O134 2.546 . S
Tb95 O135 2.610 1_656 S
Tb95 O137 2.320 1_556 S
Tb95 O138 2.552 1_655 S
Tb95 O139 2.413 1_556 S
Tb95 C159 2.833 . S
N96 C88 1.360 1_554 S
N96 Tb95 2.660 1_554 S
N96 C97 1.305 . S
C97 N96 1.305 . S
C97 C99 1.407 . S
C97 H104 0.930 . S
C98 C86 1.410 1_554 S
C98 C99 1.345 . S
C98 H106 0.930 . S
C99 C97 1.407 . S
C99 C98 1.345 . S
C99 H101 0.930 . S
H100 C93 0.930 . S
H101 C99 0.930 . S
H102 C90 0.930 . S
H103 C91 0.931 . S
H104 C97 0.930 . S
H105 C119 0.930 . S
H106 C98 0.930 . S
H107 C125 0.930 1_655 S
H108 C116 0.930 . S
H109 C123 0.931 . S
H110 C87 0.929 . S
H111 C117 0.930 . S
H112 C150 0.930 . S
H113 C94 0.930 . S
H114 C149 0.929 . S
N115 Tb84 2.660 1_455 S
N115 C116 1.305 1_554 S
N115 C120 1.360 . S
C116 H108 0.930 . S
C116 N115 1.305 1_556 S
C116 C119 1.407 . S
C117 H111 0.930 . S
C117 C118 1.410 1_556 S
C117 C119 1.345 . S
C118 C117 1.410 1_554 S
C118 C120 1.417 . S
C118 C150 1.432 . S
C119 H105 0.930 . S
C119 C116 1.407 . S
C119 C117 1.345 . S
C120 N115 1.360 . S
C120 C118 1.417 . S
C120 C124 1.432 . S
H121 C126 0.930 . S
N122 Tb84 2.600 1_455 S
N122 C124 1.359 . S
N122 C125 1.327 . S
C123 H109 0.931 . S
C123 C125 1.392 . S
C123 C126 1.370 . S
C124 C120 1.432 . S
C124 N122 1.359 . S
C124 C127 1.414 . S
C125 H107 0.930 1_455 S
C125 N122 1.327 . S
C125 C123 1.392 . S
C126 H121 0.930 . S
C126 C123 1.370 . S
C126 C127 1.385 . S
C127 C124 1.414 . S
C127 C126 1.385 . S
C127 C149 1.444 . S
O128 Tb84 2.546 . S
O128 C148 1.251 . S
O129 Tb84 2.610 . S
O129 Tb95 2.362 1_554 S
O129 C140 1.283 . S
O130 Tb95 2.421 . S
O130 C147 1.262 . S
O131 Tb84 2.320 1_556 S
O131 C147 1.260 . S
O132 Tb84 2.552 . S
O132 C140 1.243 . S
O133 Tb84 2.413 . S
O133 C148 1.256 . S
O134 Tb95 2.546 . S
O134 C159 1.251 . S
O135 Tb84 2.362 1_455 S
O135 Tb95 2.610 1_454 S
O135 C151 1.283 . S
O136 Tb84 2.421 . S
O136 C158 1.262 . S
O137 Tb95 2.320 1_554 S
O137 C158 1.260 . S
O138 Tb95 2.552 1_455 S
O138 C151 1.243 1_556 S
O139 Tb95 2.413 1_554 S
O139 C159 1.256 1_554 S
C140 O129 1.283 . S
C140 O132 1.243 . S
C141 C143 1.382 . S
C141 C145 1.393 . S
C141 C148 1.500 . S
C142 C143 1.400 . S
C142 C144 1.384 . S
C143 C141 1.382 . S
C143 C142 1.400 . S
C143 H160 0.924 1_554 S
C144 C142 1.384 . S
C144 C146 1.392 . S
C144 H161 0.931 . S
C145 C141 1.393 . S
C145 C146 1.401 . S
C145 H162 0.930 . S
C146 C144 1.392 . S
C146 C145 1.401 . S
C146 H163 0.930 . S
C147 O130 1.262 . S
C147 O131 1.260 . S
C148 Tb84 2.833 . S
C148 O128 1.251 . S
C148 O133 1.256 . S
C148 C141 1.500 . S
C149 H114 0.929 . S
C149 C127 1.444 . S
C149 C150 1.317 . S
C150 H112 0.930 . S
C150 C118 1.432 . S
C150 C149 1.317 . S
C151 O135 1.283 . S
C151 O138 1.243 1_554 S
C152 C153 1.382 . S
C152 C156 1.393 . S
C152 C159 1.500 1_455 S
C153 C152 1.382 . S
C153 C154 1.400 . S
C153 H164 0.930 1_556 S
C154 C153 1.400 . S
C154 C155 1.384 . S
C155 C154 1.384 . S
C155 C157 1.392 . S
C155 H165 0.931 . S
C156 C152 1.393 . S
C156 C157 1.401 . S
C156 H166 0.930 1_455 S
C157 C155 1.392 . S
C157 C156 1.401 . S
C157 H167 0.930 . S
C158 O136 1.262 . S
C158 O137 1.260 . S
C159 Tb95 2.833 . S
C159 O134 1.251 . S
C159 O139 1.256 1_556 S
C159 C152 1.500 1_655 S
H160 C143 0.924 1_556 S
H161 C144 0.931 . S
H162 C145 0.930 . S
H163 C146 0.930 . S
H164 C153 0.930 1_554 S
H165 C155 0.931 . S
H166 C156 0.930 1_655 S
H167 C157 0.930 . S
Tb168 N199 2.660 . S
Tb168 N206 2.600 . S
Tb168 O212 2.546 . S
Tb168 O213 2.610 1_455 S
Tb168 O215 2.320 . S
Tb168 O216 2.552 1_455 S
Tb168 O217 2.413 . S
Tb168 O219 2.362 . S
Tb168 O220 2.421 . S
Tb168 C232 2.833 . S
C169 C172 1.432 . S
C169 C173 1.414 . S
C169 N176 1.359 . S
C170 C172 1.417 . S
C170 C174 1.432 . S
C170 C182 1.410 . S
C171 C173 1.444 . S
C171 C174 1.317 . S
C171 H194 0.929 . S
C172 C169 1.432 . S
C172 C170 1.417 . S
C172 N180 1.360 . S
C173 C169 1.414 . S
C173 C171 1.444 . S
C173 C178 1.385 . S
C174 C170 1.432 . S
C174 C171 1.317 . S
C174 H186 0.930 . S
C175 C177 1.392 . S
C175 C178 1.370 . S
C175 H187 0.931 . S
N176 C169 1.359 . S
N176 C177 1.327 . S
N176 Tb179 2.600 1_655 S
C177 C175 1.392 . S
C177 N176 1.327 . S
C177 H184 0.930 1_655 S
C178 C173 1.385 . S
C178 C175 1.370 . S
C178 H197 0.930 . S
Tb179 N176 2.600 1_455 S
Tb179 N180 2.660 1_455 S
Tb179 O213 2.362 1_455 S
Tb179 O214 2.421 . S
Tb179 O218 2.546 . S
Tb179 O219 2.610 . S
Tb179 O221 2.320 . S
Tb179 O222 2.552 . S
Tb179 O223 2.413 . S
Tb179 C243 2.833 . S
N180 C172 1.360 . S
N180 Tb179 2.660 1_655 S
N180 C181 1.305 . S
C181 N180 1.305 . S
C181 C183 1.407 . S
C181 H188 0.930 . S
C182 C170 1.410 . S
C182 C183 1.345 . S
C182 H190 0.930 . S
C183 C181 1.407 . S
C183 C182 1.345 . S
C183 H185 0.930 . S
H184 C177 0.930 1_455 S
H185 C183 0.930 . S
H186 C174 0.930 . S
H187 C175 0.931 . S
H188 C181 0.930 . S
H189 C203 0.930 . S
H190 C182 0.930 . S
H191 C209 0.930 . S
H192 C200 0.930 . S
H193 C207 0.931 . S
H194 C171 0.929 . S
H195 C201 0.930 . S
H196 C234 0.930 . S
H197 C178 0.930 . S
H198 C233 0.929 . S
N199 Tb168 2.660 . S
N199 C200 1.305 . S
N199 C204 1.360 . S
C200 H192 0.930 . S
C200 N199 1.305 . S
C200 C203 1.407 . S
C201 H195 0.930 . S
C201 C202 1.410 . S
C201 C203 1.345 . S
C202 C201 1.410 . S
C202 C204 1.417 . S
C202 C234 1.432 . S
C203 H189 0.930 . S
C203 C200 1.407 . S
C203 C201 1.345 . S
C204 N199 1.360 . S
C204 C202 1.417 . S
C204 C208 1.432 . S
H205 C210 0.930 . S
N206 Tb168 2.600 . S
N206 C208 1.359 . S
N206 C209 1.327 . S
C207 H193 0.931 . S
C207 C209 1.392 . S
C207 C210 1.370 . S
C208 C204 1.432 . S
C208 N206 1.359 . S
C208 C211 1.414 . S
C209 H191 0.930 . S
C209 N206 1.327 . S
C209 C207 1.392 . S
C210 H205 0.930 . S
C210 C207 1.370 . S
C210 C211 1.385 . S
C211 C208 1.414 . S
C211 C210 1.385 . S
C211 C233 1.444 . S
O212 Tb168 2.546 . S
O212 C232 1.251 . S
O213 Tb168 2.610 1_655 S
O213 Tb179 2.362 1_655 S
O213 C224 1.283 . S
O214 Tb179 2.421 . S
O214 C231 1.262 . S
O215 Tb168 2.320 . S
O215 C231 1.260 . S
O216 Tb168 2.552 1_655 S
O216 C224 1.243 . S
O217 Tb168 2.413 . S
O217 C232 1.256 . S
O218 Tb179 2.546 . S
O218 C243 1.251 . S
O219 Tb168 2.362 . S
O219 Tb179 2.610 . S
O219 C235 1.283 . S
O220 Tb168 2.421 . S
O220 C242 1.262 . S
O221 Tb179 2.320 . S
O221 C242 1.260 . S
O222 Tb179 2.552 . S
O222 C235 1.243 . S
O223 Tb179 2.413 . S
O223 C243 1.256 . S
C224 O213 1.283 . S
C224 O216 1.243 . S
C225 C227 1.382 . S
C225 C229 1.393 . S
C225 C232 1.500 1_655 S
C226 C227 1.400 . S
C226 C228 1.384 . S
C227 C225 1.382 . S
C227 C226 1.400 . S
C227 H244 0.930 . S
C228 C226 1.384 . S
C228 C230 1.392 . S
C228 H245 0.931 . S
C229 C225 1.393 . S
C229 C230 1.401 . S
C229 H246 0.930 1_655 S
C230 C228 1.392 . S
C230 C229 1.401 . S
C230 H247 0.930 . S
C231 O214 1.262 . S
C231 O215 1.260 . S
C232 Tb168 2.833 . S
C232 O212 1.251 . S
C232 O217 1.256 . S
C232 C225 1.500 1_455 S
C233 H198 0.929 . S
C233 C211 1.444 . S
C233 C234 1.317 . S
C234 H196 0.930 . S
C234 C202 1.432 . S
C234 C233 1.317 . S
C235 O219 1.283 . S
C235 O222 1.243 . S
C236 C237 1.382 . S
C236 C240 1.393 . S
C236 C243 1.500 . S
C237 C236 1.382 . S
C237 C238 1.400 . S
C237 H248 0.930 . S
C238 C237 1.400 . S
C238 C239 1.384 . S
C239 C238 1.384 . S
C239 C241 1.392 . S
C239 H249 0.931 . S
C240 C236 1.393 . S
C240 C241 1.401 . S
C240 H250 0.930 . S
C241 C239 1.392 . S
C241 C240 1.401 . S
C241 H251 0.930 . S
C242 O220 1.262 . S
C242 O221 1.260 . S
C243 Tb179 2.833 . S
C243 O218 1.251 . S
C243 O223 1.256 . S
C243 C236 1.500 . S
H244 C227 0.930 . S
H245 C228 0.931 . S
H246 C229 0.930 1_455 S
H247 C230 0.930 . S
H248 C237 0.930 . S
H249 C239 0.931 . S
H250 C240 0.930 . S
H251 C241 0.930 . S
Tb252 N283 2.660 1_655 S
Tb252 N290 2.600 1_655 S
Tb252 O296 2.546 . S
Tb252 O297 2.610 . S
Tb252 O299 2.320 . S
Tb252 O300 2.552 . S
Tb252 O301 2.413 . S
Tb252 O303 2.362 1_655 S
Tb252 O304 2.421 . S
Tb252 C316 2.833 . S
C253 C256 1.432 . S
C253 C257 1.414 . S
C253 N260 1.359 . S
C254 C256 1.417 . S
C254 C258 1.432 . S
C254 C266 1.410 . S
C255 C257 1.444 . S
C255 C258 1.317 . S
C255 H278 0.929 . S
C256 C253 1.432 . S
C256 C254 1.417 . S
C256 N264 1.360 . S
C257 C253 1.414 . S
C257 C255 1.444 . S
C257 C262 1.385 . S
C258 C254 1.432 . S
C258 C255 1.317 . S
C258 H270 0.930 . S
C259 C261 1.392 . S
C259 C262 1.370 . S
C259 H271 0.931 . S
N260 C253 1.359 . S
N260 C261 1.327 . S
N260 Tb263 2.600 . S
C261 C259 1.392 . S
C261 N260 1.327 . S
C261 H268 0.930 . S
C262 C257 1.385 . S
C262 C259 1.370 . S
C262 H281 0.930 . S
Tb263 N260 2.600 . S
Tb263 N264 2.660 . S
Tb263 O297 2.362 . S
Tb263 O298 2.421 . S
Tb263 O302 2.546 . S
Tb263 O303 2.610 1_655 S
Tb263 O305 2.320 . S
Tb263 O306 2.552 1_655 S
Tb263 O307 2.413 . S
Tb263 C327 2.833 . S
N264 C256 1.360 . S
N264 Tb263 2.660 . S
N264 C265 1.305 . S
C265 N264 1.305 . S
C265 C267 1.407 . S
C265 H272 0.930 . S
C266 C254 1.410 . S
C266 C267 1.345 . S
C266 H274 0.930 . S
C267 C265 1.407 . S
C267 C266 1.345 . S
C267 H269 0.930 . S
H268 C261 0.930 . S
H269 C267 0.930 . S
H270 C258 0.930 . S
H271 C259 0.931 . S
H272 C265 0.930 . S
H273 C287 0.930 . S
H274 C266 0.930 . S
H275 C293 0.930 1_655 S
H276 C284 0.930 . S
H277 C291 0.931 . S
H278 C255 0.929 . S
H279 C285 0.930 . S
H280 C318 0.930 . S
H281 C262 0.930 . S
H282 C317 0.929 . S
N283 Tb252 2.660 1_455 S
N283 C284 1.305 . S
N283 C288 1.360 . S
C284 H276 0.930 . S
C284 N283 1.305 . S
C284 C287 1.407 . S
C285 H279 0.930 . S
C285 C286 1.410 . S
C285 C287 1.345 . S
C286 C285 1.410 . S
C286 C288 1.417 . S
C286 C318 1.432 . S
C287 H273 0.930 . S
C287 C284 1.407 . S
C287 C285 1.345 . S
C288 N283 1.360 . S
C288 C286 1.417 . S
C288 C292 1.432 . S
H289 C294 0.930 . S
N290 Tb252 2.600 1_455 S
N290 C292 1.359 . S
N290 C293 1.327 . S
C291 H277 0.931 . S
C291 C293 1.392 . S
C291 C294 1.370 . S
C292 C288 1.432 . S
C292 N290 1.359 . S
C292 C295 1.414 . S
C293 H275 0.930 1_455 S
C293 N290 1.327 . S
C293 C291 1.392 . S
C294 H289 0.930 . S
C294 C291 1.370 . S
C294 C295 1.385 . S
C295 C292 1.414 . S
C295 C294 1.385 . S
C295 C317 1.444 . S
O296 Tb252 2.546 . S
O296 C316 1.251 . S
O297 Tb252 2.610 . S
O297 Tb263 2.362 . S
O297 C308 1.283 . S
O298 Tb263 2.421 . S
O298 C315 1.262 . S
O299 Tb252 2.320 . S
O299 C315 1.260 . S
O300 Tb252 2.552 . S
O300 C308 1.243 . S
O301 Tb252 2.413 . S
O301 C316 1.256 . S
O302 Tb263 2.546 . S
O302 C327 1.251 . S
O303 Tb252 2.362 1_455 S
O303 Tb263 2.610 1_455 S
O303 C319 1.283 . S
O304 Tb252 2.421 . S
O304 C326 1.262 . S
O305 Tb263 2.320 . S
O305 C326 1.260 . S
O306 Tb263 2.552 1_455 S
O306 C319 1.243 . S
O307 Tb263 2.413 . S
O307 C327 1.256 . S
C308 O297 1.283 . S
C308 O300 1.243 . S
C309 C311 1.382 . S
C309 C313 1.393 . S
C309 C316 1.500 . S
C310 C311 1.400 . S
C310 C312 1.384 . S
C311 C309 1.382 . S
C311 C310 1.400 . S
C311 H328 0.930 . S
C312 C310 1.384 . S
C312 C314 1.392 . S
C312 H329 0.931 . S
C313 C309 1.393 . S
C313 C314 1.401 . S
C313 H330 0.930 . S
C314 C312 1.392 . S
C314 C313 1.401 . S
C314 H331 0.930 . S
C315 O298 1.262 . S
C315 O299 1.260 . S
C316 Tb252 2.833 . S
C316 O296 1.251 . S
C316 O301 1.256 . S
C316 C309 1.500 . S
C317 H282 0.929 . S
C317 C295 1.444 . S
C317 C318 1.317 . S
C318 H280 0.930 . S
C318 C286 1.432 . S
C318 C317 1.317 . S
C319 O303 1.283 . S
C319 O306 1.243 . S
C320 C321 1.382 . S
C320 C324 1.393 . S
C320 C327 1.500 1_455 S
C321 C320 1.382 . S
C321 C322 1.400 . S
C321 H332 0.930 . S
C322 C321 1.400 . S
C322 C323 1.384 . S
C323 C322 1.384 . S
C323 C325 1.392 . S
C323 H333 0.931 . S
C324 C320 1.393 . S
C324 C325 1.401 . S
C324 H334 0.930 1_455 S
C325 C323 1.392 . S
C325 C324 1.401 . S
C325 H335 0.930 . S
C326 O304 1.262 . S
C326 O305 1.260 . S
C327 Tb263 2.833 . S
C327 O302 1.251 . S
C327 O307 1.256 . S
C327 C320 1.500 1_655 S
H328 C311 0.930 . S
H329 C312 0.931 . S
H330 C313 0.930 . S
H331 C314 0.930 . S
H332 C321 0.930 . S
H333 C323 0.931 . S
H334 C324 0.930 1_655 S
H335 C325 0.930 . S
Tb336 N367 2.660 . S
Tb336 N374 2.600 . S
Tb336 O380 2.546 . S
Tb336 O381 2.610 1_554 S
Tb336 O383 2.320 1_554 S
Tb336 O384 2.552 . S
Tb336 O385 2.413 . S
Tb336 O387 2.362 . S
Tb336 O388 2.421 . S
Tb336 C400 2.833 . S
C337 C340 1.432 . S
C337 C341 1.414 . S
C337 N344 1.359 . S
C338 C340 1.417 . S
C338 C342 1.432 . S
C338 C350 1.410 1_556 S
C339 C341 1.444 . S
C339 C342 1.317 . S
C339 H362 0.929 . S
C340 C337 1.432 . S
C340 C338 1.417 . S
C340 N348 1.360 1_556 S
C341 C337 1.414 . S
C341 C339 1.444 . S
C341 C346 1.385 . S
C342 C338 1.432 . S
C342 C339 1.317 . S
C342 H354 0.930 . S
C343 C345 1.392 . S
C343 C346 1.370 . S
C343 H355 0.931 . S
N344 C337 1.359 . S
N344 C345 1.327 . S
N344 Tb347 2.600 . S
C345 C343 1.392 . S
C345 N344 1.327 . S
C345 H352 0.930 . S
C346 C341 1.385 . S
C346 C343 1.370 . S
C346 H365 0.930 . S
Tb347 N344 2.600 . S
Tb347 N348 2.660 1_556 S
Tb347 O381 2.362 . S
Tb347 O382 2.421 . S
Tb347 O386 2.546 . S
Tb347 O387 2.610 1_556 S
Tb347 O389 2.320 1_556 S
Tb347 O390 2.552 . S
Tb347 O391 2.413 . S
Tb347 C411 2.833 . S
N348 C340 1.360 1_554 S
N348 Tb347 2.660 1_554 S
N348 C349 1.305 . S
C349 N348 1.305 . S
C349 C351 1.407 . S
C349 H356 0.930 . S
C350 C338 1.410 1_554 S
C350 C351 1.345 . S
C350 H358 0.930 . S
C351 C349 1.407 . S
C351 C350 1.345 . S
C351 H353 0.930 . S
H352 C345 0.930 . S
H353 C351 0.930 . S
H354 C342 0.930 . S
H355 C343 0.931 . S
H356 C349 0.930 . S
H357 C371 0.930 . S
H358 C350 0.930 . S
H359 C377 0.930 . S
H360 C368 0.930 . S
H361 C375 0.931 . S
H362 C339 0.929 . S
H363 C369 0.930 . S
H364 C402 0.930 1_455 S
H365 C346 0.930 . S
H366 C401 0.929 . S
N367 Tb336 2.660 . S
N367 C368 1.305 1_554 S
N367 C372 1.360 . S
C368 H360 0.930 . S
C368 N367 1.305 1_556 S
C368 C371 1.407 . S
C369 H363 0.930 . S
C369 C370 1.410 1_556 S
C369 C371 1.345 . S
C370 C369 1.410 1_554 S
C370 C372 1.417 . S
C370 C402 1.432 . S
C371 H357 0.930 . S
C371 C368 1.407 . S
C371 C369 1.345 . S
C372 N367 1.360 . S
C372 C370 1.417 . S
C372 C376 1.432 . S
H373 C378 0.930 . S
N374 Tb336 2.600 . S
N374 C376 1.359 . S
N374 C377 1.327 . S
C375 H361 0.931 . S
C375 C377 1.392 . S
C375 C378 1.370 . S
C376 C372 1.432 . S
C376 N374 1.359 . S
C376 C379 1.414 . S
C377 H359 0.930 . S
C377 N374 1.327 . S
C377 C375 1.392 . S
C378 H373 0.930 . S
C378 C375 1.370 . S
C378 C379 1.385 . S
C379 C376 1.414 . S
C379 C378 1.385 . S
C379 C401 1.444 . S
O380 Tb336 2.546 . S
O380 C400 1.251 . S
O381 Tb336 2.610 1_556 S
O381 Tb347 2.362 . S
O381 C392 1.283 1_556 S
O382 Tb347 2.421 . S
O382 C399 1.262 . S
O383 Tb336 2.320 1_556 S
O383 C399 1.260 . S
O384 Tb336 2.552 . S
O384 C392 1.243 . S
O385 Tb336 2.413 . S
O385 C400 1.256 . S
O386 Tb347 2.546 . S
O386 C411 1.251 . S
O387 Tb336 2.362 . S
O387 Tb347 2.610 1_554 S
O387 C403 1.283 . S
O388 Tb336 2.421 . S
O388 C410 1.262 . S
O389 Tb347 2.320 1_554 S
O389 C410 1.260 . S
O390 Tb347 2.552 . S
O390 C403 1.243 1_556 S
O391 Tb347 2.413 . S
O391 C411 1.256 . S
C392 O381 1.283 1_554 S
C392 O384 1.243 . S
C393 C395 1.382 . S
C393 C397 1.393 . S
C393 C400 1.500 . S
C394 C395 1.400 . S
C394 C396 1.384 . S
C395 C393 1.382 . S
C395 C394 1.400 . S
C395 H412 0.930 1_554 S
C396 C394 1.384 . S
C396 C398 1.392 . S
C396 H413 0.931 . S
C397 C393 1.393 . S
C397 C398 1.401 . S
C397 H414 0.930 . S
C398 C396 1.392 . S
C398 C397 1.401 . S
C398 H415 0.930 . S
C399 O382 1.262 . S
C399 O383 1.260 . S
C400 Tb336 2.833 . S
C400 O380 1.251 . S
C400 O385 1.256 . S
C400 C393 1.500 . S
C401 H366 0.929 . S
C401 C379 1.444 . S
C401 C402 1.317 . S
C402 H364 0.930 1_655 S
C402 C370 1.432 . S
C402 C401 1.317 . S
C403 O387 1.283 . S
C403 O390 1.243 1_554 S
C404 C405 1.382 . S
C404 C408 1.393 . S
C404 C411 1.500 . S
C405 C404 1.382 . S
C405 C406 1.400 . S
C405 H416 0.930 1_556 S
C406 C405 1.400 . S
C406 C407 1.384 . S
C407 C406 1.384 . S
C407 C409 1.392 . S
C407 H417 0.931 . S
C408 C404 1.393 . S
C408 C409 1.401 . S
C408 H418 0.930 . S
C409 C407 1.392 . S
C409 C408 1.401 . S
C409 H419 0.930 . S
C410 O388 1.262 . S
C410 O389 1.260 . S
C411 Tb347 2.833 . S
C411 O386 1.251 . S
C411 O391 1.256 . S
C411 C404 1.500 . S
H412 C395 0.930 1_556 S
H413 C396 0.931 . S
H414 C397 0.930 . S
H415 C398 0.930 . S
H416 C405 0.930 1_554 S
H417 C407 0.931 . S
H418 C408 0.930 . S
H419 C409 0.930 . S
Tb420 N451 2.660 . S
Tb420 N458 2.600 . S
Tb420 O464 2.546 . S
Tb420 O465 2.610 . S
Tb420 O467 2.320 1_554 S
Tb420 O468 2.552 . S
Tb420 O469 2.413 . S
Tb420 O471 2.362 . S
Tb420 O472 2.421 . S
Tb420 C484 2.833 . S
C421 C424 1.432 . S
C421 C425 1.414 . S
C421 N428 1.359 . S
C422 C424 1.417 . S
C422 C426 1.432 . S
C422 C434 1.410 1_556 S
C423 C425 1.444 . S
C423 C426 1.317 . S
C423 H446 0.929 . S
C424 C421 1.432 . S
C424 C422 1.417 . S
C424 N432 1.360 1_556 S
C425 C421 1.414 . S
C425 C423 1.444 . S
C425 C430 1.385 . S
C426 C422 1.432 . S
C426 C423 1.317 . S
C426 H438 0.930 1_455 S
C427 C429 1.392 . S
C427 C430 1.370 . S
C427 H439 0.931 . S
N428 C421 1.359 . S
N428 C429 1.327 . S
N428 Tb431 2.600 . S
C429 C427 1.392 . S
C429 N428 1.327 . S
C429 H436 0.930 . S
C430 C425 1.385 . S
C430 C427 1.370 . S
C430 H449 0.930 . S
Tb431 N428 2.600 . S
Tb431 N432 2.660 1_556 S
Tb431 O465 2.362 1_556 S
Tb431 O466 2.421 . S
Tb431 O470 2.546 . S
Tb431 O471 2.610 1_556 S
Tb431 O473 2.320 1_556 S
Tb431 O474 2.552 . S
Tb431 O475 2.413 1_556 S
Tb431 C495 2.833 . S
N432 C424 1.360 1_554 S
N432 Tb431 2.660 1_554 S
N432 C433 1.305 . S
C433 N432 1.305 . S
C433 C435 1.407 . S
C433 H440 0.930 . S
C434 C422 1.410 1_554 S
C434 C435 1.345 . S
C434 H442 0.930 . S
C435 C433 1.407 . S
C435 C434 1.345 . S
C435 H437 0.930 . S
H436 C429 0.930 . S
H437 C435 0.930 . S
H438 C426 0.930 1_655 S
H439 C427 0.931 . S
H440 C433 0.930 . S
H441 C455 0.930 . S
H442 C434 0.930 . S
H443 C461 0.930 . S
H444 C452 0.930 . S
H445 C459 0.931 . S
H446 C423 0.929 . S
H447 C453 0.930 . S
H448 C486 0.930 . S
H449 C430 0.930 . S
H450 C485 0.929 . S
N451 Tb420 2.660 . S
N451 C452 1.305 1_554 S
N451 C456 1.360 . S
C452 H444 0.930 . S
C452 N451 1.305 1_556 S
C452 C455 1.407 . S
C453 H447 0.930 . S
C453 C454 1.410 1_556 S
C453 C455 1.345 . S
C454 C453 1.410 1_554 S
C454 C456 1.417 . S
C454 C486 1.432 . S
C455 H441 0.930 . S
C455 C452 1.407 . S
C455 C453 1.345 . S
C456 N451 1.360 . S
C456 C454 1.417 . S
C456 C460 1.432 . S
H457 C462 0.930 . S
N458 Tb420 2.600 . S
N458 C460 1.359 . S
N458 C461 1.327 . S
C459 H445 0.931 . S
C459 C461 1.392 . S
C459 C462 1.370 . S
C460 C456 1.432 . S
C460 N458 1.359 . S
C460 C463 1.414 . S
C461 H443 0.930 . S
C461 N458 1.327 . S
C461 C459 1.392 . S
C462 H457 0.930 . S
C462 C459 1.370 . S
C462 C463 1.385 . S
C463 C460 1.414 . S
C463 C462 1.385 . S
C463 C485 1.444 . S
O464 Tb420 2.546 . S
O464 C484 1.251 . S
O465 Tb420 2.610 . S
O465 Tb431 2.362 1_554 S
O465 C476 1.283 . S
O466 Tb431 2.421 . S
O466 C483 1.262 . S
O467 Tb420 2.320 1_556 S
O467 C483 1.260 . S
O468 Tb420 2.552 . S
O468 C476 1.243 . S
O469 Tb420 2.413 . S
O469 C484 1.256 . S
O470 Tb431 2.546 . S
O470 C495 1.251 . S
O471 Tb420 2.362 . S
O471 Tb431 2.610 1_554 S
O471 C487 1.283 . S
O472 Tb420 2.421 . S
O472 C494 1.262 . S
O473 Tb431 2.320 1_554 S
O473 C494 1.260 . S
O474 Tb431 2.552 . S
O474 C487 1.243 1_556 S
O475 Tb431 2.413 1_554 S
O475 C495 1.256 1_554 S
C476 O465 1.283 . S
C476 O468 1.243 . S
C477 C479 1.382 . S
C477 C481 1.393 . S
C477 C484 1.500 . S
C478 C479 1.400 . S
C478 C480 1.384 . S
C479 C477 1.382 . S
C479 C478 1.400 . S
C479 H496 0.924 1_554 S
C480 C478 1.384 . S
C480 C482 1.392 . S
C480 H497 0.931 . S
C481 C477 1.393 . S
C481 C482 1.401 . S
C481 H498 0.930 . S
C482 C480 1.392 . S
C482 C481 1.401 . S
C482 H499 0.930 . S
C483 O466 1.262 . S
C483 O467 1.260 . S
C484 Tb420 2.833 . S
C484 O464 1.251 . S
C484 O469 1.256 . S
C484 C477 1.500 . S
C485 H450 0.929 . S
C485 C463 1.444 . S
C485 C486 1.317 . S
C486 H448 0.930 . S
C486 C454 1.432 . S
C486 C485 1.317 . S
C487 O471 1.283 . S
C487 O474 1.243 1_554 S
C488 C489 1.382 . S
C488 C492 1.393 . S
C488 C495 1.500 . S
C489 C488 1.382 . S
C489 C490 1.400 . S
C489 H500 0.930 1_556 S
C490 C489 1.400 . S
C490 C491 1.384 . S
C491 C490 1.384 . S
C491 C493 1.392 . S
C491 H501 0.931 . S
C492 C488 1.393 . S
C492 C493 1.401 . S
C492 H502 0.930 . S
C493 C491 1.392 . S
C493 C492 1.401 . S
C493 H503 0.930 . S
C494 O472 1.262 . S
C494 O473 1.260 . S
C495 Tb431 2.833 . S
C495 O470 1.251 . S
C495 O475 1.256 1_556 S
C495 C488 1.500 . S
H496 C479 0.924 1_556 S
H497 C480 0.931 . S
H498 C481 0.930 . S
H499 C482 0.930 . S
H500 C489 0.930 1_554 S
H501 C491 0.931 . S
H502 C492 0.930 . S
H503 C493 0.930 . S
Tb504 N535 2.660 . S
Tb504 N542 2.600 . S
Tb504 O548 2.546 . S
Tb504 O549 2.610 . S
Tb504 O551 2.320 . S
Tb504 O552 2.552 . S
Tb504 O553 2.413 . S
Tb504 O555 2.362 . S
Tb504 O556 2.421 . S
Tb504 C568 2.833 . S
C505 C508 1.432 . S
C505 C509 1.414 . S
C505 N512 1.359 . S
C506 C508 1.417 . S
C506 C510 1.432 . S
C506 C518 1.410 . S
C507 C509 1.444 . S
C507 C510 1.317 . S
C507 H530 0.929 . S
C508 C505 1.432 . S
C508 C506 1.417 . S
C508 N516 1.360 . S
C509 C505 1.414 . S
C509 C507 1.444 . S
C509 C514 1.385 . S
C510 C506 1.432 . S
C510 C507 1.317 . S
C510 H522 0.930 . S
C511 C513 1.392 . S
C511 C514 1.370 . S
C511 H523 0.931 . S
N512 C505 1.359 . S
N512 C513 1.327 . S
N512 Tb515 2.600 . S
C513 C511 1.392 . S
C513 N512 1.327 . S
C513 H520 0.930 . S
C514 C509 1.385 . S
C514 C511 1.370 . S
C514 H533 0.930 . S
Tb515 N512 2.600 . S
Tb515 N516 2.660 . S
Tb515 O549 2.362 . S
Tb515 O550 2.421 . S
Tb515 O554 2.546 . S
Tb515 O555 2.610 . S
Tb515 O557 2.320 . S
Tb515 O558 2.552 . S
Tb515 O559 2.413 . S
Tb515 C579 2.833 . S
N516 C508 1.360 . S
N516 Tb515 2.660 . S
N516 C517 1.305 . S
C517 N516 1.305 . S
C517 C519 1.407 . S
C517 H524 0.930 . S
C518 C506 1.410 . S
C518 C519 1.345 . S
C518 H526 0.930 . S
C519 C517 1.407 . S
C519 C518 1.345 . S
C519 H521 0.930 . S
H520 C513 0.930 . S
H521 C519 0.930 . S
H522 C510 0.930 . S
H523 C511 0.931 . S
H524 C517 0.930 . S
H525 C539 0.930 . S
H526 C518 0.930 . S
H527 C545 0.930 . S
H528 C536 0.930 . S
H529 C543 0.931 . S
H530 C507 0.929 . S
H531 C537 0.930 . S
H532 C570 0.930 1_455 S
H533 C514 0.930 . S
H534 C569 0.929 . S
N535 Tb504 2.660 . S
N535 C536 1.305 . S
N535 C540 1.360 . S
C536 H528 0.930 . S
C536 N535 1.305 . S
C536 C539 1.407 . S
C537 H531 0.930 . S
C537 C538 1.410 . S
C537 C539 1.345 . S
C538 C537 1.410 . S
C538 C540 1.417 . S
C538 C570 1.432 . S
C539 H525 0.930 . S
C539 C536 1.407 . S
C539 C537 1.345 . S
C540 N535 1.360 . S
C540 C538 1.417 . S
C540 C544 1.432 . S
H541 C546 0.930 . S
N542 Tb504 2.600 . S
N542 C544 1.359 . S
N542 C545 1.327 . S
C543 H529 0.931 . S
C543 C545 1.392 . S
C543 C546 1.370 . S
C544 C540 1.432 . S
C544 N542 1.359 . S
C544 C547 1.414 . S
C545 H527 0.930 . S
C545 N542 1.327 . S
C545 C543 1.392 . S
C546 H541 0.930 . S
C546 C543 1.370 . S
C546 C547 1.385 . S
C547 C544 1.414 . S
C547 C546 1.385 . S
C547 C569 1.444 . S
O548 Tb504 2.546 . S
O548 C568 1.251 . S
O549 Tb504 2.610 . S
O549 Tb515 2.362 . S
O549 C560 1.283 . S
O550 Tb515 2.421 . S
O550 C567 1.262 . S
O551 Tb504 2.320 . S
O551 C567 1.260 . S
O552 Tb504 2.552 . S
O552 C560 1.243 . S
O553 Tb504 2.413 . S
O553 C568 1.256 . S
O554 Tb515 2.546 . S
O554 C579 1.251 . S
O555 Tb504 2.362 . S
O555 Tb515 2.610 . S
O555 C571 1.283 . S
O556 Tb504 2.421 . S
O556 C578 1.262 . S
O557 Tb515 2.320 . S
O557 C578 1.260 . S
O558 Tb515 2.552 . S
O558 C571 1.243 . S
O559 Tb515 2.413 . S
O559 C579 1.256 . S
C560 O549 1.283 . S
C560 O552 1.243 . S
C561 C563 1.382 . S
C561 C565 1.393 . S
C561 C568 1.500 . S
C562 C563 1.400 . S
C562 C564 1.384 . S
C563 C561 1.382 . S
C563 C562 1.400 . S
C563 H580 0.930 . S
C564 C562 1.384 . S
C564 C566 1.392 . S
C564 H581 0.931 . S
C565 C561 1.393 . S
C565 C566 1.401 . S
C565 H582 0.930 . S
C566 C564 1.392 . S
C566 C565 1.401 . S
C566 H583 0.930 . S
C567 O550 1.262 . S
C567 O551 1.260 . S
C568 Tb504 2.833 . S
C568 O548 1.251 . S
C568 O553 1.256 . S
C568 C561 1.500 . S
C569 H534 0.929 . S
C569 C547 1.444 . S
C569 C570 1.317 . S
C570 H532 0.930 1_655 S
C570 C538 1.432 . S
C570 C569 1.317 . S
C571 O555 1.283 . S
C571 O558 1.243 . S
C572 C573 1.382 . S
C572 C576 1.393 . S
C572 C579 1.500 . S
C573 C572 1.382 . S
C573 C574 1.400 . S
C573 H584 0.930 . S
C574 C573 1.400 . S
C574 C575 1.384 . S
C575 C574 1.384 . S
C575 C577 1.392 . S
C575 H585 0.931 . S
C576 C572 1.393 . S
C576 C577 1.401 . S
C576 H586 0.930 . S
C577 C575 1.392 . S
C577 C576 1.401 . S
C577 H587 0.930 . S
C578 O556 1.262 . S
C578 O557 1.260 . S
C579 Tb515 2.833 . S
C579 O554 1.251 . S
C579 O559 1.256 . S
C579 C572 1.500 . S
H580 C563 0.930 . S
H581 C564 0.931 . S
H582 C565 0.930 . S
H583 C566 0.930 . S
H584 C573 0.930 . S
H585 C575 0.931 . S
H586 C576 0.930 . S
H587 C577 0.930 . S
Tb588 N619 2.660 . S
Tb588 N626 2.600 . S
Tb588 O632 2.546 . S
Tb588 O633 2.610 . S
Tb588 O635 2.320 . S
Tb588 O636 2.552 . S
Tb588 O637 2.413 . S
Tb588 O639 2.362 . S
Tb588 O640 2.421 . S
Tb588 C652 2.833 . S
C589 C592 1.432 . S
C589 C593 1.414 . S
C589 N596 1.359 . S
C590 C592 1.417 . S
C590 C594 1.432 . S
C590 C602 1.410 . S
C591 C593 1.444 . S
C591 C594 1.317 . S
C591 H614 0.929 . S
C592 C589 1.432 . S
C592 C590 1.417 . S
C592 N600 1.360 . S
C593 C589 1.414 . S
C593 C591 1.444 . S
C593 C598 1.385 . S
C594 C590 1.432 . S
C594 C591 1.317 . S
C594 H606 0.930 1_455 S
C595 C597 1.392 . S
C595 C598 1.370 . S
C595 H607 0.931 . S
N596 C589 1.359 . S
N596 C597 1.327 . S
N596 Tb599 2.600 . S
C597 C595 1.392 . S
C597 N596 1.327 . S
C597 H604 0.930 . S
C598 C593 1.385 . S
C598 C595 1.370 . S
C598 H617 0.930 . S
Tb599 N596 2.600 . S
Tb599 N600 2.660 . S
Tb599 O633 2.362 . S
Tb599 O634 2.421 . S
Tb599 O638 2.546 . S
Tb599 O639 2.610 . S
Tb599 O641 2.320 . S
Tb599 O642 2.552 . S
Tb599 O643 2.413 . S
Tb599 C663 2.833 . S
N600 C592 1.360 . S
N600 Tb599 2.660 . S
N600 C601 1.305 . S
C601 N600 1.305 . S
C601 C603 1.407 . S
C601 H608 0.930 . S
C602 C590 1.410 . S
C602 C603 1.345 . S
C602 H610 0.930 . S
C603 C601 1.407 . S
C603 C602 1.345 . S
C603 H605 0.930 . S
H604 C597 0.930 . S
H605 C603 0.930 . S
H606 C594 0.930 1_655 S
H607 C595 0.931 . S
H608 C601 0.930 . S
H609 C623 0.930 . S
H610 C602 0.930 . S
H611 C629 0.930 . S
H612 C620 0.930 . S
H613 C627 0.931 . S
H614 C591 0.929 . S
H615 C621 0.930 . S
H616 C654 0.930 . S
H617 C598 0.930 . S
H618 C653 0.929 . S
N619 Tb588 2.660 . S
N619 C620 1.305 . S
N619 C624 1.360 . S
C620 H612 0.930 . S
C620 N619 1.305 . S
C620 C623 1.407 . S
C621 H615 0.930 . S
C621 C622 1.410 . S
C621 C623 1.345 . S
C622 C621 1.410 . S
C622 C624 1.417 . S
C622 C654 1.432 . S
C623 H609 0.930 . S
C623 C620 1.407 . S
C623 C621 1.345 . S
C624 N619 1.360 . S
C624 C622 1.417 . S
C624 C628 1.432 . S
H625 C630 0.930 . S
N626 Tb588 2.600 . S
N626 C628 1.359 . S
N626 C629 1.327 . S
C627 H613 0.931 . S
C627 C629 1.392 . S
C627 C630 1.370 . S
C628 C624 1.432 . S
C628 N626 1.359 . S
C628 C631 1.414 . S
C629 H611 0.930 . S
C629 N626 1.327 . S
C629 C627 1.392 . S
C630 H625 0.930 . S
C630 C627 1.370 . S
C630 C631 1.385 . S
C631 C628 1.414 . S
C631 C630 1.385 . S
C631 C653 1.444 . S
O632 Tb588 2.546 . S
O632 C652 1.251 . S
O633 Tb588 2.610 . S
O633 Tb599 2.362 . S
O633 C644 1.283 . S
O634 Tb599 2.421 . S
O634 C651 1.262 . S
O635 Tb588 2.320 . S
O635 C651 1.260 . S
O636 Tb588 2.552 . S
O636 C644 1.243 . S
O637 Tb588 2.413 . S
O637 C652 1.256 . S
O638 Tb599 2.546 . S
O638 C663 1.251 . S
O639 Tb588 2.362 . S
O639 Tb599 2.610 . S
O639 C655 1.283 . S
O640 Tb588 2.421 . S
O640 C662 1.262 . S
O641 Tb599 2.320 . S
O641 C662 1.260 . S
O642 Tb599 2.552 . S
O642 C655 1.243 . S
O643 Tb599 2.413 . S
O643 C663 1.256 . S
C644 O633 1.283 . S
C644 O636 1.243 . S
C645 C647 1.382 . S
C645 C649 1.393 . S
C645 C652 1.500 . S
C646 C647 1.400 . S
C646 C648 1.384 . S
C647 C645 1.382 . S
C647 C646 1.400 . S
C647 H664 0.930 . S
C648 C646 1.384 . S
C648 C650 1.392 . S
C648 H665 0.931 . S
C649 C645 1.393 . S
C649 C650 1.401 . S
C649 H666 0.930 . S
C650 C648 1.392 . S
C650 C649 1.401 . S
C650 H667 0.930 . S
C651 O634 1.262 . S
C651 O635 1.260 . S
C652 Tb588 2.833 . S
C652 O632 1.251 . S
C652 O637 1.256 . S
C652 C645 1.500 . S
C653 H618 0.929 . S
C653 C631 1.444 . S
C653 C654 1.317 . S
C654 H616 0.930 . S
C654 C622 1.432 . S
C654 C653 1.317 . S
C655 O639 1.283 . S
C655 O642 1.243 . S
C656 C657 1.382 . S
C656 C660 1.393 . S
C656 C663 1.500 . S
C657 C656 1.382 . S
C657 C658 1.400 . S
C657 H668 0.930 . S
C658 C657 1.400 . S
C658 C659 1.384 . S
C659 C658 1.384 . S
C659 C661 1.392 . S
C659 H669 0.931 . S
C660 C656 1.393 . S
C660 C661 1.401 . S
C660 H670 0.930 . S
C661 C659 1.392 . S
C661 C660 1.401 . S
C661 H671 0.930 . S
C662 O640 1.262 . S
C662 O641 1.260 . S
C663 Tb599 2.833 . S
C663 O638 1.251 . S
C663 O643 1.256 . S
C663 C656 1.500 . S
H664 C647 0.930 . S
H665 C648 0.931 . S
H666 C649 0.930 . S
H667 C650 0.930 . S
H668 C657 0.930 . S
H669 C659 0.931 . S
H670 C660 0.930 . S
H671 C661 0.930 . S
H672 C678 0.930 . S
H673 C681 0.930 . S
H674 C682 0.930 . S
H675 C683 0.930 . S
H676 C686 0.930 . S
H677 C687 0.930 . S
C678 H672 0.930 . S
C678 C679 1.355 . S
C678 C680 1.415 . S
C679 C678 1.355 . S
C679 C681 1.419 1_554 S
C680 C678 1.415 . S
C680 C685 1.425 1_554 S
C680 C687 1.409 . S
C681 H673 0.930 . S
C681 C679 1.419 1_556 S
C681 C682 1.362 . S
C682 H674 0.930 . S
C682 C681 1.362 . S
C682 C685 1.409 . S
C683 H675 0.930 . S
C683 C684 1.354 1_556 S
C683 C685 1.415 . S
C684 C683 1.354 1_554 S
C684 C686 1.420 . S
C685 C680 1.425 1_556 S
C685 C682 1.409 . S
C685 C683 1.415 . S
C686 H676 0.930 . S
C686 C684 1.420 . S
C686 C687 1.362 . S
C687 H677 0.930 . S
C687 C680 1.409 . S
C687 C686 1.362 . S
H688 C694 0.930 . S
H689 C697 0.930 1_556 S
H690 C698 0.930 . S
H691 C699 0.930 . S
H692 C702 0.930 . S
H693 C703 0.930 . S
C694 H688 0.930 . S
C694 C695 1.355 . S
C694 C696 1.415 . S
C695 C694 1.355 . S
C695 C697 1.419 . S
C696 C694 1.415 . S
C696 C701 1.425 . S
C696 C703 1.409 . S
C697 H689 0.930 1_554 S
C697 C695 1.419 . S
C697 C698 1.362 1_554 S
C698 H690 0.930 . S
C698 C697 1.362 1_556 S
C698 C701 1.409 1_556 S
C699 H691 0.930 . S
C699 C700 1.355 1_556 S
C699 C701 1.415 1_556 S
C700 C699 1.355 1_554 S
C700 C702 1.419 . S
C701 C696 1.425 . S
C701 C698 1.409 1_554 S
C701 C699 1.415 1_554 S
C702 H692 0.930 . S
C702 C700 1.419 . S
C702 C703 1.362 . S
C703 H693 0.930 . S
C703 C696 1.409 . S
C703 C702 1.362 . S
H704 C710 0.930 . S
H705 C713 0.930 . S
H706 C714 0.930 . S
H707 C715 0.930 . S
H708 C718 0.930 . S
H709 C719 0.930 . S
C710 H704 0.930 . S
C710 C711 1.355 . S
C710 C712 1.415 . S
C711 C710 1.355 . S
C711 C713 1.419 . S
C712 C710 1.415 . S
C712 C717 1.425 . S
C712 C719 1.409 . S
C713 H705 0.930 . S
C713 C711 1.419 . S
C713 C714 1.362 . S
C714 H706 0.930 . S
C714 C713 1.362 . S
C714 C717 1.409 . S
C715 H707 0.930 . S
C715 C716 1.355 . S
C715 C717 1.415 . S
C716 C715 1.355 . S
C716 C718 1.419 . S
C717 C712 1.425 . S
C717 C714 1.409 . S
C717 C715 1.415 . S
C718 H708 0.930 . S
C718 C716 1.419 . S
C718 C719 1.362 . S
C719 H709 0.930 . S
C719 C712 1.409 . S
C719 C718 1.362 . S
H720 C726 0.930 . S
H721 C729 0.930 . S
H722 C730 0.930 . S
H723 C731 0.930 . S
H724 C734 0.930 . S
H725 C735 0.930 . S
C726 H720 0.930 . S
C726 C727 1.355 . S
C726 C728 1.415 . S
C727 C726 1.355 . S
C727 C729 1.419 . S
C728 C726 1.415 . S
C728 C733 1.425 . S
C728 C735 1.409 . S
C729 H721 0.930 . S
C729 C727 1.419 . S
C729 C730 1.362 . S
C730 H722 0.930 . S
C730 C729 1.362 . S
C730 C733 1.409 . S
C731 H723 0.930 . S
C731 C732 1.355 . S
C731 C733 1.415 . S
C732 C731 1.355 . S
C732 C734 1.419 . S
C733 C728 1.425 . S
C733 C730 1.409 . S
C733 C731 1.415 . S
C734 H724 0.930 . S
C734 C732 1.419 . S
C734 C735 1.362 . S
C735 H725 0.930 . S
C735 C728 1.409 . S
C735 C734 1.362 . S
H736 C742 0.930 . S
H737 C745 0.930 . S
H738 C746 0.930 . S
H739 C747 0.930 . S
H740 C750 0.930 . S
H741 C751 0.930 . S
C742 H736 0.930 . S
C742 C743 1.355 . S
C742 C744 1.415 1_655 S
C743 C742 1.355 . S
C743 C745 1.419 . S
C744 C742 1.415 1_455 S
C744 C749 1.425 . S
C744 C751 1.409 . S
C745 H737 0.930 . S
C745 C743 1.419 . S
C745 C746 1.362 1_554 S
C746 H738 0.930 . S
C746 C745 1.362 1_556 S
C746 C749 1.409 1_656 S
C747 H739 0.930 . S
C747 C748 1.355 . S
C747 C749 1.415 1_556 S
C748 C747 1.355 . S
C748 C750 1.419 1_556 S
C749 C744 1.425 . S
C749 C746 1.409 1_454 S
C749 C747 1.415 1_554 S
C750 H740 0.930 . S
C750 C748 1.419 1_554 S
C750 C751 1.362 . S
C751 H741 0.930 . S
C751 C744 1.409 . S
C751 C750 1.362 . S
H752 C758 0.930 . S
H753 C761 0.930 . S
H754 C762 0.930 . S
H755 C763 0.930 . S
H756 C766 0.930 . S
H757 C767 0.930 . S
C758 H752 0.930 . S
C758 C759 1.355 1_554 S
C758 C760 1.415 1_455 S
C759 C758 1.355 1_556 S
C759 C761 1.419 . S
C760 C758 1.415 1_655 S
C760 C765 1.425 1_554 S
C760 C767 1.409 . S
C761 H753 0.930 . S
C761 C759 1.419 . S
C761 C762 1.362 1_455 S
C762 H754 0.930 . S
C762 C761 1.362 1_655 S
C762 C765 1.409 . S
C763 H755 0.930 . S
C763 C764 1.355 1_556 S
C763 C765 1.415 . S
C764 C763 1.355 1_554 S
C764 C766 1.419 . S
C765 C760 1.425 1_556 S
C765 C762 1.409 . S
C765 C763 1.415 . S
C766 H756 0.930 . S
C766 C764 1.419 . S
C766 C767 1.362 . S
C767 H757 0.930 . S
C767 C760 1.409 . S
C767 C766 1.362 . S
H768 C774 0.930 . S
H769 C777 0.930 . S
H770 C778 0.930 . S
H771 C779 0.930 . S
H772 C782 0.930 . S
H773 C783 0.930 . S
C774 H768 0.930 . S
C774 C775 1.355 . S
C774 C776 1.415 . S
C775 C774 1.355 . S
C775 C777 1.419 . S
C776 C774 1.415 . S
C776 C781 1.425 . S
C776 C783 1.409 . S
C777 H769 0.930 . S
C777 C775 1.419 . S
C777 C778 1.362 . S
C778 H770 0.930 . S
C778 C777 1.362 . S
C778 C781 1.409 . S
C779 H771 0.930 . S
C779 C780 1.355 . S
C779 C781 1.415 1_655 S
C780 C779 1.355 . S
C780 C782 1.419 . S
C781 C776 1.425 . S
C781 C778 1.409 . S
C781 C779 1.415 1_455 S
C782 H772 0.930 . S
C782 C780 1.419 . S
C782 C783 1.362 1_655 S
C783 H773 0.930 . S
C783 C776 1.409 . S
C783 C782 1.362 1_455 S
H784 C790 0.930 . S
H785 C793 0.930 . S
H786 C794 0.930 . S
H787 C795 0.930 . S
H788 C798 0.930 . S
H789 C799 0.930 . S
C790 H784 0.930 . S
C790 C791 1.355 . S
C790 C792 1.415 . S
C791 C790 1.355 . S
C791 C793 1.419 . S
C792 C790 1.415 . S
C792 C797 1.425 . S
C792 C799 1.409 . S
C793 H785 0.930 . S
C793 C791 1.419 . S
C793 C794 1.362 . S
C794 H786 0.930 . S
C794 C793 1.362 . S
C794 C797 1.409 . S
C795 H787 0.930 . S
C795 C796 1.355 . S
C795 C797 1.415 1_455 S
C796 C795 1.355 . S
C796 C798 1.419 . S
C797 C792 1.425 . S
C797 C794 1.409 . S
C797 C795 1.415 1_655 S
C798 H788 0.930 . S
C798 C796 1.419 . S
C798 C799 1.362 1_455 S
C799 H789 0.930 . S
C799 C792 1.409 . S
C799 C798 1.362 1_655 S
H800 C806 0.930 . S
H801 C809 0.930 . S
H802 C810 0.930 . S
H803 C811 0.930 . S
H804 C814 0.930 . S
H805 C815 0.930 . S
C806 H800 0.930 . S
C806 C807 1.355 . S
C806 C808 1.415 . S
C807 C806 1.355 . S
C807 C809 1.419 1_554 S
C808 C806 1.415 . S
C808 C813 1.425 1_454 S
C808 C815 1.409 1_455 S
C809 H801 0.930 . S
C809 C807 1.419 1_556 S
C809 C810 1.362 . S
C810 H802 0.930 . S
C810 C809 1.362 . S
C810 C813 1.409 1_455 S
C811 H803 0.930 . S
C811 C812 1.355 1_556 S
C811 C813 1.415 . S
C812 C811 1.355 1_554 S
C812 C814 1.419 . S
C813 C808 1.425 1_656 S
C813 C810 1.409 1_655 S
C813 C811 1.415 . S
C814 H804 0.930 . S
C814 C812 1.419 . S
C814 C815 1.362 . S
C815 H805 0.930 . S
C815 C808 1.409 1_655 S
C815 C814 1.362 . S
H816 C822 0.930 1_655 S
H817 C825 0.930 . S
H818 C826 0.930 . S
H819 C827 0.930 1_455 S
H820 C830 0.930 . S
H821 C831 0.930 . S
C822 H816 0.930 1_455 S
C822 C823 1.355 . S
C822 C824 1.415 1_455 S
C823 C822 1.355 . S
C823 C825 1.419 . S
C824 C822 1.415 1_655 S
C824 C829 1.425 1_655 S
C824 C831 1.409 . S
C825 H817 0.930 . S
C825 C823 1.419 . S
C825 C826 1.362 . S
C826 H818 0.930 . S
C826 C825 1.362 . S
C826 C829 1.409 . S
C827 H819 0.930 1_655 S
C827 C828 1.355 . S
C827 C829 1.415 1_655 S
C828 C827 1.355 . S
C828 C830 1.419 . S
C829 C824 1.425 1_455 S
C829 C826 1.409 . S
C829 C827 1.415 1_455 S
C830 H820 0.930 . S
C830 C828 1.419 . S
C830 C831 1.362 . S
C831 H821 0.930 . S
C831 C824 1.409 . S
C831 C830 1.362 . S
H832 C838 0.930 . S
H833 C841 0.930 . S
H834 C842 0.930 1_556 S
H835 C843 0.930 1_556 S
H836 C846 0.930 . S
H837 C847 0.930 . S
C838 H832 0.930 . S
C838 C839 1.355 . S
C838 C840 1.415 . S
C839 C838 1.355 . S
C839 C841 1.419 . S
C840 C838 1.415 . S
C840 C845 1.425 1_565 S
C840 C847 1.409 . S
C841 H833 0.930 . S
C841 C839 1.419 . S
C841 C842 1.363 1_565 S
C842 H834 0.930 1_554 S
C842 C841 1.363 1_545 S
C842 C845 1.409 . S
C843 H835 0.930 1_554 S
C843 C844 1.355 . S
C843 C845 1.415 . S
C844 C843 1.355 . S
C844 C846 1.419 . S
C845 C840 1.425 1_545 S
C845 C842 1.409 . S
C845 C843 1.415 . S
C846 H836 0.930 . S
C846 C844 1.419 . S
C846 C847 1.363 1_545 S
C847 H837 0.930 . S
C847 C840 1.409 . S
C847 C846 1.363 1_565 S
H848 C854 0.930 . S
H849 C857 0.930 . S
H850 C858 0.930 . S
H851 C859 0.930 . S
H852 C862 0.930 . S
H853 C863 0.930 . S
C854 H848 0.930 . S
C854 C855 1.355 . S
C854 C856 1.415 . S
C855 C854 1.355 . S
C855 C857 1.419 . S
C856 C854 1.415 . S
C856 C861 1.425 1_545 S
C856 C863 1.409 1_545 S
C857 H849 0.930 . S
C857 C855 1.419 . S
C857 C858 1.362 . S
C858 H850 0.930 . S
C858 C857 1.362 . S
C858 C861 1.409 1_545 S
C859 H851 0.930 . S
C859 C860 1.355 . S
C859 C861 1.415 . S
C860 C859 1.355 . S
C860 C862 1.419 . S
C861 C856 1.425 1_565 S
C861 C858 1.409 1_565 S
C861 C859 1.415 . S
C862 H852 0.930 . S
C862 C860 1.419 . S
C862 C863 1.362 . S
C863 H853 0.930 . S
C863 C856 1.409 1_565 S
C863 C862 1.362 . S
H864 C870 0.930 . S
H865 C873 0.930 . S
H866 C874 0.930 . S
H867 C875 0.930 . S
H868 C878 0.930 . S
H869 C879 0.930 . S
C870 H864 0.930 . S
C870 C871 1.355 1_556 S
C870 C872 1.415 . S
C871 C870 1.355 1_554 S
C871 C873 1.419 . S
C872 C870 1.415 . S
C872 C877 1.425 1_556 S
C872 C879 1.409 . S
C873 H865 0.930 . S
C873 C871 1.419 . S
C873 C874 1.362 . S
C874 H866 0.930 . S
C874 C873 1.362 . S
C874 C877 1.409 . S
C875 H867 0.930 . S
C875 C876 1.355 . S
C875 C877 1.415 . S
C876 C875 1.355 . S
C876 C878 1.419 1_554 S
C877 C872 1.425 1_554 S
C877 C874 1.409 . S
C877 C875 1.415 . S
C878 H868 0.930 . S
C878 C876 1.419 1_556 S
C878 C879 1.362 . S
C879 H869 0.930 . S
C879 C872 1.409 . S
C879 C878 1.362 . S
H880 C886 0.930 . S
H881 C889 0.930 . S
H882 C890 0.930 . S
H883 C891 0.930 1_556 S
H884 C894 0.930 . S
H885 C895 0.930 . S
C886 H880 0.930 . S
C886 C887 1.355 . S
C886 C888 1.415 . S
C887 C886 1.355 . S
C887 C889 1.419 1_554 S
C888 C886 1.415 . S
C888 C893 1.425 . S
C888 C895 1.409 . S
C889 H881 0.930 . S
C889 C887 1.419 1_556 S
C889 C890 1.362 . S
C890 H882 0.930 . S
C890 C889 1.362 . S
C890 C893 1.409 1_556 S
C891 H883 0.930 1_554 S
C891 C892 1.355 . S
C891 C893 1.415 . S
C892 C891 1.355 . S
C892 C894 1.419 . S
C893 C888 1.425 . S
C893 C890 1.409 1_554 S
C893 C891 1.415 . S
C894 H884 0.930 . S
C894 C892 1.419 . S
C894 C895 1.362 . S
C895 H885 0.930 . S
C895 C888 1.409 . S
C895 C894 1.362 . S
H896 C902 0.930 . S
H897 C905 0.930 . S
H898 C906 0.930 . S
H899 C907 0.930 . S
H900 C910 0.930 . S
H901 C911 0.930 . S
C902 H896 0.930 . S
C902 C903 1.355 . S
C902 C904 1.415 . S
C903 C902 1.355 . S
C903 C905 1.419 . S
C904 C902 1.415 . S
C904 C909 1.425 . S
C904 C911 1.409 . S
C905 H897 0.930 . S
C905 C903 1.419 . S
C905 C906 1.362 . S
C906 H898 0.930 . S
C906 C905 1.362 . S
C906 C909 1.409 . S
C907 H899 0.930 . S
C907 C908 1.355 . S
C907 C909 1.415 . S
C908 C907 1.355 . S
C908 C910 1.419 . S
C909 C904 1.425 . S
C909 C906 1.409 . S
C909 C907 1.415 . S
C910 H900 0.930 . S
C910 C908 1.419 . S
C910 C911 1.362 . S
C911 H901 0.930 . S
C911 C904 1.409 . S
C911 C910 1.362 . S
H912 C918 0.930 . S
H913 C921 0.930 . S
H914 C922 0.930 . S
H915 C923 0.930 . S
H916 C926 0.930 . S
H917 C927 0.930 . S
C918 H912 0.930 . S
C918 C919 1.355 . S
C918 C920 1.415 . S
C919 C918 1.355 . S
C919 C921 1.419 . S
C920 C918 1.415 . S
C920 C925 1.425 . S
C920 C927 1.409 . S
C921 H913 0.930 . S
C921 C919 1.419 . S
C921 C922 1.362 . S
C922 H914 0.930 . S
C922 C921 1.362 . S
C922 C925 1.409 . S
C923 H915 0.930 . S
C923 C924 1.355 . S
C923 C925 1.415 . S
C924 C923 1.355 . S
C924 C926 1.419 . S
C925 C920 1.425 . S
C925 C922 1.409 . S
C925 C923 1.415 . S
C926 H916 0.930 . S
C926 C924 1.419 . S
C926 C927 1.362 . S
C927 H917 0.930 . S
C927 C920 1.409 . S
C927 C926 1.362 . S
H928 C934 0.930 . S
H929 C937 0.930 . S
H930 C938 0.930 . S
H931 C939 0.930 . S
H932 C942 0.930 . S
H933 C943 0.930 . S
C934 H928 0.930 . S
C934 C935 1.355 . S
C934 C936 1.415 . S
C935 C934 1.355 . S
C935 C937 1.419 . S
C936 C934 1.415 . S
C936 C941 1.425 . S
C936 C943 1.409 1_455 S
C937 H929 0.930 . S
C937 C935 1.419 . S
C937 C938 1.362 . S
C938 H930 0.930 . S
C938 C937 1.362 . S
C938 C941 1.409 . S
C939 H931 0.930 . S
C939 C940 1.355 1_455 S
C939 C941 1.415 . S
C940 C939 1.355 1_655 S
C940 C942 1.419 . S
C941 C936 1.425 . S
C941 C938 1.409 . S
C941 C939 1.415 . S
C942 H932 0.930 . S
C942 C940 1.419 . S
C942 C943 1.362 . S
C943 H933 0.930 . S
C943 C936 1.409 1_655 S
C943 C942 1.362 . S
H944 C950 0.930 . S
H945 C953 0.930 . S
H946 C954 0.930 . S
H947 C955 0.930 1_655 S
H948 C958 0.930 . S
H949 C959 0.930 . S
C950 H944 0.930 . S
C950 C951 1.355 1_455 S
C950 C952 1.415 . S
C951 C950 1.355 1_655 S
C951 C953 1.419 . S
C952 C950 1.415 . S
C952 C957 1.425 1_455 S
C952 C959 1.409 . S
C953 H945 0.930 . S
C953 C951 1.419 . S
C953 C954 1.362 . S
C954 H946 0.930 . S
C954 C953 1.362 . S
C954 C957 1.409 . S
C955 H947 0.930 1_455 S
C955 C956 1.355 . S
C955 C957 1.415 1_455 S
C956 C955 1.355 . S
C956 C958 1.419 . S
C957 C952 1.425 1_655 S
C957 C954 1.409 . S
C957 C955 1.415 1_655 S
C958 H948 0.930 . S
C958 C956 1.419 . S
C958 C959 1.362 . S
C959 H949 0.930 . S
C959 C952 1.409 . S
C959 C958 1.362 . S
H960 C966 0.930 . S
H961 C969 0.930 . S
H962 C970 0.930 . S
H963 C971 0.930 . S
H964 C974 0.930 . S
H965 C975 0.930 . S
C966 H960 0.930 . S
C966 C967 1.355 . S
C966 C968 1.415 . S
C967 C966 1.355 . S
C967 C969 1.419 . S
C968 C966 1.415 . S
C968 C973 1.425 . S
C968 C975 1.409 . S
C969 H961 0.930 . S
C969 C967 1.419 . S
C969 C970 1.362 . S
C970 H962 0.930 . S
C970 C969 1.362 . S
C970 C973 1.409 . S
C971 H963 0.930 . S
C971 C972 1.355 . S
C971 C973 1.415 1_455 S
C972 C971 1.355 . S
C972 C974 1.419 . S
C973 C968 1.425 . S
C973 C970 1.409 . S
C973 C971 1.415 1_655 S
C974 H964 0.930 . S
C974 C972 1.419 . S
C974 C975 1.362 1_455 S
C975 H965 0.930 . S
C975 C968 1.409 . S
C975 C974 1.362 1_655 S
H976 C982 0.930 . S
H977 C985 0.930 . S
H978 C986 0.930 . S
H979 C987 0.930 . S
H980 C990 0.930 . S
H981 C991 0.930 . S
C982 H976 0.930 . S
C982 C983 1.355 . S
C982 C984 1.415 . S
C983 C982 1.355 . S
C983 C985 1.419 1_655 S
C984 C982 1.415 . S
C984 C989 1.425 1_655 S
C984 C991 1.409 . S
C985 H977 0.930 . S
C985 C983 1.419 1_455 S
C985 C986 1.362 . S
C986 H978 0.930 . S
C986 C985 1.362 . S
C986 C989 1.409 . S
C987 H979 0.930 . S
C987 C988 1.355 . S
C987 C989 1.415 . S
C988 C987 1.355 . S
C988 C990 1.419 1_455 S
C989 C984 1.425 1_455 S
C989 C986 1.409 . S
C989 C987 1.415 . S
C990 H980 0.930 . S
C990 C988 1.419 1_655 S
C990 C991 1.362 . S
C991 H981 0.930 . S
C991 C984 1.409 . S
C991 C990 1.362 . S
H992 C998 0.930 . S
H993 C1001 0.930 . S
H994 C1002 0.930 . S
H995 C1003 0.930 . S
H996 C1006 0.930 . S
H997 C1007 0.930 . S
C998 H992 0.930 . S
C998 C999 1.355 . S
C998 C1000 1.415 . S
C999 C998 1.355 . S
C999 C1001 1.419 . S
C1000 C998 1.415 . S
C1000 C1005 1.425 . S
C1000 C1007 1.409 . S
C1001 H993 0.930 . S
C1001 C999 1.419 . S
C1001 C1002 1.362 . S
C1002 H994 0.930 . S
C1002 C1001 1.362 . S
C1002 C1005 1.409 . S
C1003 H995 0.930 . S
C1003 C1004 1.355 . S
C1003 C1005 1.415 . S
C1004 C1003 1.355 . S
C1004 C1006 1.419 . S
C1005 C1000 1.425 . S
C1005 C1002 1.409 . S
C1005 C1003 1.415 . S
C1006 H996 0.930 . S
C1006 C1004 1.419 . S
C1006 C1007 1.362 . S
C1007 H997 0.930 . S
C1007 C1000 1.409 . S
C1007 C1006 1.362 . S
H1008 C1014 0.930 . S
H1009 C1017 0.930 . S
H1010 C1018 0.930 . S
H1011 C1019 0.930 . S
H1012 C1022 0.930 . S
H1013 C1023 0.930 . S
C1014 H1008 0.930 . S
C1014 C1015 1.355 . S
C1014 C1016 1.415 . S
C1015 C1014 1.355 . S
C1015 C1017 1.419 . S
C1016 C1014 1.415 . S
C1016 C1021 1.425 . S
C1016 C1023 1.409 . S
C1017 H1009 0.930 . S
C1017 C1015 1.419 . S
C1017 C1018 1.362 . S
C1018 H1010 0.930 . S
C1018 C1017 1.362 . S
C1018 C1021 1.409 . S
C1019 H1011 0.930 . S
C1019 C1020 1.355 . S
C1019 C1021 1.415 . S
C1020 C1019 1.355 . S
C1020 C1022 1.419 . S
C1021 C1016 1.425 . S
C1021 C1018 1.409 . S
C1021 C1019 1.415 . S
C1022 H1012 0.930 . S
C1022 C1020 1.419 . S
C1022 C1023 1.362 . S
C1023 H1013 0.930 . S
C1023 C1016 1.409 . S
C1023 C1022 1.362 . S
H1024 C1030 0.930 . S
H1025 C1033 0.930 . S
H1026 C1034 0.930 . S
H1027 C1035 0.930 . S
H1028 C1038 0.930 . S
H1029 C1039 0.930 . S
C1030 H1024 0.930 . S
C1030 C1031 1.355 . S
C1030 C1032 1.415 . S
C1031 C1030 1.355 . S
C1031 C1033 1.419 . S
C1032 C1030 1.415 . S
C1032 C1037 1.425 . S
C1032 C1039 1.409 . S
C1033 H1025 0.930 . S
C1033 C1031 1.419 . S
C1033 C1034 1.362 . S
C1034 H1026 0.930 . S
C1034 C1033 1.362 . S
C1034 C1037 1.409 . S
C1035 H1027 0.930 . S
C1035 C1036 1.355 . S
C1035 C1037 1.415 . S
C1036 C1035 1.355 . S
C1036 C1038 1.419 . S
C1037 C1032 1.425 . S
C1037 C1034 1.409 . S
C1037 C1035 1.415 . S
C1038 H1028 0.930 . S
C1038 C1036 1.419 . S
C1038 C1039 1.362 . S
C1039 H1029 0.930 . S
C1039 C1032 1.409 . S
C1039 C1038 1.362 . S
H1040 C1046 0.930 . S
H1041 C1049 0.930 . S
H1042 C1050 0.930 . S
H1043 C1051 0.930 . S
H1044 C1054 0.930 . S
H1045 C1055 0.930 . S
C1046 H1040 0.930 . S
C1046 C1047 1.355 . S
C1046 C1048 1.415 . S
C1047 C1046 1.355 . S
C1047 C1049 1.419 . S
C1048 C1046 1.415 . S
C1048 C1053 1.425 . S
C1048 C1055 1.409 . S
C1049 H1041 0.930 . S
C1049 C1047 1.419 . S
C1049 C1050 1.362 . S
C1050 H1042 0.930 . S
C1050 C1049 1.362 . S
C1050 C1053 1.409 . S
C1051 H1043 0.930 . S
C1051 C1052 1.355 . S
C1051 C1053 1.415 . S
C1052 C1051 1.355 . S
C1052 C1054 1.419 . S
C1053 C1048 1.425 . S
C1053 C1050 1.409 . S
C1053 C1051 1.415 . S
C1054 H1044 0.930 . S
C1054 C1052 1.419 . S
C1054 C1055 1.362 . S
C1055 H1045 0.930 . S
C1055 C1048 1.409 . S
C1055 C1054 1.362 . S
C679 C67 2.080 . S
C684 C56 2.080 . S
C695 C151 2.082 . S
C700 C140 2.082 . S
C711 C224 2.098 . S
C716 C235 2.098 . S
C727 C308 2.053 . S
C732 C319 2.053 . S
C743 C403 2.085 . S
C748 C392 2.085 1_556 S
C759 C476 2.094 1_556 S
C764 C487 2.094 . S
C775 C560 2.095 . S
C780 C571 2.095 . S
C791 C655 2.058 . S
C796 C644 2.058 . S
C807 C154 1.825 1_554 S
C812 C58 1.825 . S
C823 C322 1.866 . S
C828 C226 1.866 . S
C839 C394 1.871 . S
C844 C490 1.871 1_554 S
C855 C562 1.801 . S
C860 C658 1.801 . S
C871 C70 1.438 1_554 S
C876 C478 1.438 . S
C887 C406 1.344 1_554 S
C892 C142 1.344 . S
C903 C238 1.377 . S
C908 C646 1.377 . S
C919 C310 1.466 . S
C924 C574 1.466 . S
C935 C74 1.489 . S
C940 C326 1.586 . S
C951 C158 1.591 . S
C956 C242 1.525 . S
C967 C147 1.502 . S
C972 C231 1.583 . S
C983 C315 1.452 . S
C988 C63 1.607 . S
C999 C410 1.529 . S
C1004 C662 1.577 . S
C1015 C494 1.578 . S
C1020 C578 1.519 . S
C1031 C483 1.515 . S
C1036 C567 1.579 . S
C1047 C651 1.540 . S
C1052 C399 1.577 . S
