# Generated by pormake.
# Topology wjd, (6)-cn, num edge types: 1
# Building blocks:
#     Node 0, Type 0, BuildingBlock: MAKGUD_clean_sbu_1, # of connection points: 6
#     Node 1, Type 0, BuildingBlock: MAKGUD_clean_sbu_1, # of connection points: 6
#     Node 2, Type 0, BuildingBlock: MAKGUD_clean_sbu_1, # of connection points: 6
#     Node 3, Type 0, BuildingBlock: MAKGUD_clean_sbu_1, # of connection points: 6
#     Node 4, Type 0, BuildingBlock: MAKGUD_clean_sbu_1, # of connection points: 6
#     Node 5, Type 0, BuildingBlock: MAKGUD_clean_sbu_1, # of connection points: 6
#     Node 6, Type 0, BuildingBlock: MAKGUD_clean_sbu_1, # of connection points: 6
#     Node 7, Type 0, BuildingBlock: MAKGUD_clean_sbu_1, # of connection points: 6
#     Node 8, Type 0, BuildingBlock: MAKGUD_clean_sbu_1, # of connection points: 6
#     Node 9, Type 0, BuildingBlock: MAKGUD_clean_sbu_1, # of connection points: 6
#     Node 10, Type 0, BuildingBlock: MAKGUD_clean_sbu_1, # of connection points: 6
#     Node 11, Type 0, BuildingBlock: MAKGUD_clean_sbu_1, # of connection points: 6
#     Edge 12, Type (0, 0), BuildingBlock: OJICUG_clean_linker_0, # of connection points: 2
#     Edge 13, Type (0, 0), BuildingBlock: OJICUG_clean_linker_0, # of connection points: 2
#     Edge 14, Type (0, 0), BuildingBlock: OJICUG_clean_linker_0, # of connection points: 2
#     Edge 15, Type (0, 0), BuildingBlock: OJICUG_clean_linker_0, # of connection points: 2
#     Edge 16, Type (0, 0), BuildingBlock: OJICUG_clean_linker_0, # of connection points: 2
#     Edge 17, Type (0, 0), BuildingBlock: OJICUG_clean_linker_0, # of connection points: 2
#     Edge 18, Type (0, 0), BuildingBlock: OJICUG_clean_linker_0, # of connection points: 2
#     Edge 19, Type (0, 0), BuildingBlock: OJICUG_clean_linker_0, # of connection points: 2
#     Edge 20, Type (0, 0), BuildingBlock: OJICUG_clean_linker_0, # of connection points: 2
#     Edge 21, Type (0, 0), BuildingBlock: OJICUG_clean_linker_0, # of connection points: 2
#     Edge 22, Type (0, 0), BuildingBlock: OJICUG_clean_linker_0, # of connection points: 2
#     Edge 23, Type (0, 0), BuildingBlock: OJICUG_clean_linker_0, # of connection points: 2
#     Edge 24, Type (0, 0), BuildingBlock: OJICUG_clean_linker_0, # of connection points: 2
#     Edge 25, Type (0, 0), BuildingBlock: OJICUG_clean_linker_0, # of connection points: 2
#     Edge 26, Type (0, 0), BuildingBlock: OJICUG_clean_linker_0, # of connection points: 2
#     Edge 27, Type (0, 0), BuildingBlock: OJICUG_clean_linker_0, # of connection points: 2
#     Edge 28, Type (0, 0), BuildingBlock: OJICUG_clean_linker_0, # of connection points: 2
#     Edge 29, Type (0, 0), BuildingBlock: OJICUG_clean_linker_0, # of connection points: 2
#     Edge 30, Type (0, 0), BuildingBlock: OJICUG_clean_linker_0, # of connection points: 2
#     Edge 31, Type (0, 0), BuildingBlock: OJICUG_clean_linker_0, # of connection points: 2
#     Edge 32, Type (0, 0), BuildingBlock: OJICUG_clean_linker_0, # of connection points: 2
#     Edge 33, Type (0, 0), BuildingBlock: OJICUG_clean_linker_0, # of connection points: 2
#     Edge 34, Type (0, 0), BuildingBlock: OJICUG_clean_linker_0, # of connection points: 2
#     Edge 35, Type (0, 0), BuildingBlock: OJICUG_clean_linker_0, # of connection points: 2
#     Edge 36, Type (0, 0), BuildingBlock: OJICUG_clean_linker_0, # of connection points: 2
#     Edge 37, Type (0, 0), BuildingBlock: OJICUG_clean_linker_0, # of connection points: 2
#     Edge 38, Type (0, 0), BuildingBlock: OJICUG_clean_linker_0, # of connection points: 2
#     Edge 39, Type (0, 0), BuildingBlock: OJICUG_clean_linker_0, # of connection points: 2
#     Edge 40, Type (0, 0), BuildingBlock: OJICUG_clean_linker_0, # of connection points: 2
#     Edge 41, Type (0, 0), BuildingBlock: OJICUG_clean_linker_0, # of connection points: 2
#     Edge 42, Type (0, 0), BuildingBlock: OJICUG_clean_linker_0, # of connection points: 2
#     Edge 43, Type (0, 0), BuildingBlock: OJICUG_clean_linker_0, # of connection points: 2
#     Edge 44, Type (0, 0), BuildingBlock: OJICUG_clean_linker_0, # of connection points: 2
#     Edge 45, Type (0, 0), BuildingBlock: OJICUG_clean_linker_0, # of connection points: 2
#     Edge 46, Type (0, 0), BuildingBlock: OJICUG_clean_linker_0, # of connection points: 2
#     Edge 47, Type (0, 0), BuildingBlock: OJICUG_clean_linker_0, # of connection points: 2
# Relax obj value: 0.150
# Max RMSD: 0.291
# Mean RMSD: 0.291
data_MOF--net-wjd--node1-MAKGUD_clean_sbu_1--edge1-OJICUG_clean_linker_0
_symmetry_space_group_name_H-M    P1
_symmetry_Int_Tables_number       1
_symmetry_cell_setting            triclinic
loop_
_symmetry_equiv_pos_as_xyz
'x, y, z'
_cell_length_a     27.839043
_cell_length_b     28.060502
_cell_length_c     37.137453
_cell_angle_alpha  89.969238
_cell_angle_beta   90.858938
_cell_angle_gamma 119.20414
loop_
_atom_site_label
_atom_site_type_symbol
_atom_site_fract_x
_atom_site_fract_y
_atom_site_fract_z
_atom_type_partial_charge
O0 O 0.57366 0.21658 0.06737 0.0
Tb1 Tb 0.49128 0.19152 0.08723 0.0
C2 C 0.42055 0.14379 0.15693 0.0
O3 O 0.36334 0.13637 0.04826 0.0
Tb4 Tb 0.32654 0.10393 0.09984 0.0
C5 C 0.2365 1.0061 0.09622 0.0
O6 O 0.44235 0.13058 0.04641 0.0
O7 O 0.29617 0.16097 0.10986 0.0
C8 C 0.27277 0.1736 0.08316 0.0
O9 O 0.27412 0.1563 0.05053 0.0
O10 O 0.45587 0.18781 0.13982 0.0
O11 O 0.38226 0.10055 0.14001 0.0
O12 O 0.51614 0.2773 0.07911 0.0
C13 C 0.39398 0.11907 0.03272 0.0
C14 C 0.58764 0.19247 0.09193 0.0
O15 O 0.27739 1.02356 0.07416 0.0
O16 O 0.24663 1.04356 0.12025 0.0
C17 C 0.53988 0.3103 0.10687 0.0
O18 O 0.54227 0.2889 0.13785 0.0
O19 O 0.54706 0.16748 0.11411 0.0
O20 O 0.73967 0.55351 0.40507 0.0
Tb21 Tb 0.80972 0.6265 0.38368 0.0
C22 C 0.86636 0.72145 0.32707 0.0
O23 O 0.88956 0.72382 0.42658 0.0
Tb24 Tb 0.93431 0.79613 0.39504 0.0
C25 C 0.91587 0.87884 0.40921 0.0
O26 O 0.79999 0.66561 0.43101 0.0
O27 O 1.02319 0.83054 0.39131 0.0
C28 C 1.05588 0.85265 0.41951 0.0
O29 O 1.03382 0.84764 0.45129 0.0
O30 O 0.82221 0.69276 0.34678 0.0
O31 O 0.91311 0.76124 0.34077 0.0
O32 O 0.87756 0.60876 0.38606 0.0
C33 C 0.84261 0.71092 0.4418 0.0
C34 C 0.71676 0.5319 0.37422 0.0
O35 O 0.9374 0.85845 0.43155 0.0
O36 O 0.90293 0.85122 0.37907 0.0
C37 C 0.88792 0.58799 0.35732 0.0
O38 O 0.86214 0.58609 0.32697 0.0
O39 O 0.74599 0.56413 0.34844 0.0
O40 O 0.91045 0.3862 0.08054 0.0
Tb41 Tb 0.93506 0.32917 0.10374 0.0
C42 C 0.9773 0.28756 0.16987 0.0
O43 O 0.98561 0.25518 0.05682 0.0
Tb44 Tb 1.00828 0.23233 0.1078 0.0
C45 C 0.10508 0.23399 0.10435 0.0
O46 O 1.00137 0.34279 0.06711 0.0
O47 O 0.9499 0.14473 0.1097 0.0
C48 C 0.95125 0.11577 0.08211 0.0
O49 O 0.98118 0.14268 0.05448 0.0
O50 O 0.93965 0.29891 0.1571 0.0
O51 O 1.01713 0.29084 0.14962 0.0
O52 O 0.85088 0.26734 0.09004 0.0
C53 C 1.00618 0.30651 0.04708 0.0
C54 C 0.92923 0.42207 0.10648 0.0
O55 O 0.08494 0.25285 0.07992 0.0
O56 O 1.07102 0.21501 0.13085 0.0
C57 C 0.81378 0.24886 0.11558 0.0
O58 O 0.83029 0.26196 0.1492 0.0
O59 O 0.95175 0.4057 0.13106 0.0
O60 O 0.60842 0.20992 0.40185 0.0
Tb61 Tb 0.52786 0.18791 0.37797 0.0
C62 C 0.43347 0.14933 0.31229 0.0
O63 O 0.42532 0.15612 0.42148 0.0
Tb64 Tb 0.35756 0.13062 0.38412 0.0
C65 C 0.27352 1.03148 0.39802 0.0
O66 O 0.48457 0.12461 0.41673 0.0
O67 O 0.32325 0.18547 0.38049 0.0
C68 C 0.30811 0.20057 0.40982 0.0
O69 O 0.32017 0.18734 0.44131 0.0
O70 O 0.48255 0.16281 0.3267 0.0
O71 O 0.38776 0.13966 0.32917 0.0
O72 O 0.54247 0.27098 0.38443 0.0
C73 C 0.4406 0.12072 0.43132 0.0
C74 C 0.62819 0.19796 0.37397 0.0
O75 O 0.3061 1.04335 0.3707 0.0
O76 O 0.28861 0.07518 0.41731 0.0
C77 C 0.56143 0.30348 0.35643 0.0
O78 O 0.56221 0.28183 0.32523 0.0
O79 O 0.59134 0.18026 0.34813 0.0
O80 O 0.73352 0.55941 0.07356 0.0
Tb81 Tb 0.79105 0.63521 0.10159 0.0
C82 C 0.84455 0.71612 0.17097 0.0
O83 O 0.85887 0.74324 0.05131 0.0
Tb84 Tb 0.89585 0.79307 0.09897 0.0
C85 C 0.89741 0.88907 0.09191 0.0
O86 O 0.77066 0.68436 0.06599 0.0
O87 O 0.98223 0.81615 0.10464 0.0
C88 C 1.01517 0.83185 0.07689 0.0
O89 O 0.99382 0.82466 0.04424 0.0
O90 O 0.8074 0.66965 0.15581 0.0
O91 O 0.8794 0.76109 0.15381 0.0
O92 O 0.85572 0.61334 0.0938 0.0
C93 C 0.806 0.7226 0.0451 0.0
C94 C 0.69986 0.53774 0.10002 0.0
O95 O 0.93019 0.87498 0.07652 0.0
O96 O 0.86262 0.84851 0.11146 0.0
C97 C 0.86909 0.5916 0.12109 0.0
O98 O 0.85074 0.59352 0.15315 0.0
O99 O 0.7176 0.57105 0.12748 0.0
O100 O 0.97727 0.41919 0.4037 0.0
Tb101 Tb 0.97622 0.34564 0.38313 0.0
C102 C 1.00166 0.28072 0.3247 0.0
O103 O 0.99747 0.26529 0.42652 0.0
Tb104 Tb 1.0221 0.22003 0.39139 0.0
C105 C 0.12689 0.24331 0.39894 0.0
O106 O 1.03 0.35576 0.42868 0.0
O107 O 0.9709 0.13161 0.39346 0.0
C108 C 0.97359 0.10449 0.42162 0.0
O109 O 1.00425 0.13208 0.4494 0.0
O110 O 1.0222 0.32662 0.3436 0.0
O111 O 0.99765 0.23519 0.3382 0.0
O112 O 0.89165 0.28141 0.38935 0.0
C113 C 1.03315 0.31318 0.43984 0.0
C114 C 0.97241 0.43805 0.37269 0.0
O115 O 0.09121 0.22801 0.42455 0.0
O116 O 0.10385 0.24697 0.36905 0.0
C117 C 0.85843 0.26546 0.36097 0.0
O118 O 0.87958 0.28254 0.32907 0.0
O119 O 0.97104 0.40534 0.3473 0.0
O120 O 0.22912 0.5455 0.58989 0.0
Tb121 Tb 0.23758 0.4773 0.61114 0.0
C122 C 0.19655 0.37874 0.6644 0.0
O123 O 0.21619 0.37311 0.5762 0.0
Tb124 Tb 0.17737 0.29451 0.6019 0.0
C125 C 1.07343 0.22615 0.58363 0.0
O126 O 0.20195 0.44134 0.55902 0.0
O127 O 0.21915 0.24686 0.61088 0.0
C128 C 0.23938 0.22975 0.58528 0.0
O129 O 0.24056 0.24646 0.55209 0.0
O130 O 0.18072 0.40439 0.64127 0.0
O131 O 0.1919 0.33087 0.65559 0.0
O132 O 0.32362 0.49773 0.6113 0.0
C133 C 0.19306 0.3917 0.55322 0.0
C134 C 0.23067 0.56809 0.62075 0.0
O135 O 0.11513 0.24274 0.56215 0.0
O136 O 0.09034 0.24931 0.61515 0.0
C137 C 0.35579 0.52263 0.63931 0.0
O138 O 0.33363 0.52875 0.6687 0.0
O139 O 0.23498 0.5387 0.64652 0.0
O140 O 0.41618 0.89891 0.88364 0.0
Tb141 Tb 0.3414 0.89774 0.86438 0.0
C142 C 0.27866 0.94642 0.8209 0.0
O143 O 0.26508 0.92668 0.907 0.0
Tb144 Tb 0.22224 0.96758 0.88458 0.0
C145 C 0.25203 0.07066 0.90145 0.0
O146 O 0.34554 0.92928 0.91831 0.0
O147 O 0.13272 0.92189 0.88787 0.0
C148 C 0.09978 0.90452 0.85933 0.0
O149 O 0.12088 0.90919 0.82728 0.0
O150 O 0.31735 0.95695 0.84536 0.0
O151 O 0.23752 0.95511 0.82898 0.0
O152 O 0.27616 0.81391 0.85905 0.0
C153 C 0.31109 0.94694 0.92621 0.0
C154 C 0.4393 0.9059 0.85247 0.0
O155 O 0.22998 1.0295 0.92323 0.0
O156 O 0.25897 0.05383 0.87027 0.0
C157 C 0.26843 0.78745 0.8284 0.0
O158 O 0.29771 0.81395 0.80046 0.0
O159 O 0.40741 0.9094 0.82758 0.0
O160 O 0.60113 0.68531 0.58153 0.0
Tb161 Tb 0.66863 0.76656 0.59468 0.0
C162 C 0.77301 0.83592 0.64378 0.0
O163 O 0.76673 0.84561 0.5559 0.0
Tb164 Tb 0.8474 0.89424 0.57987 0.0
C165 C 0.92868 0.87618 0.56145 0.0
O166 O 0.70099 0.76127 0.54268 0.0
O167 O 0.8785 0.9814 0.58545 0.0
C168 C 0.89253 1.01408 0.5576 0.0
O169 O 0.88268 0.99296 0.52498 0.0
O170 O 0.74907 0.79461 0.62087 0.0
O171 O 0.8208 0.87792 0.6353 0.0
O172 O 0.64116 0.82653 0.59045 0.0
C173 C 0.74961 0.80215 0.53531 0.0
C174 C 0.58357 0.6719 0.61424 0.0
O175 O 0.90939 0.90173 0.54178 0.0
O176 O 0.90096 0.85939 0.59112 0.0
C177 C 0.62745 0.84328 0.61962 0.0
O178 O 0.6373 0.82847 0.65123 0.0
O179 O 0.61534 0.71139 0.63625 0.0
O180 O 0.17763 0.53842 0.87329 0.0
Tb181 Tb 0.19572 0.47316 0.86098 0.0
C182 C 0.16022 0.36668 0.81538 0.0
O183 O 0.16402 0.37119 0.90201 0.0
Tb184 Tb 0.12753 0.2889 0.88052 0.0
C185 C 1.0231 0.21308 0.89056 0.0
O186 O 0.15812 0.44566 0.91344 0.0
O187 O 0.18072 0.2527 0.8839 0.0
C188 C 0.19315 0.23744 0.9145 0.0
O189 O 0.17441 0.2458 0.94473 0.0
O190 O 0.14283 0.39385 0.83538 0.0
O191 O 0.14883 0.31706 0.82535 0.0
O192 O 0.28316 0.49998 0.86684 0.0
C193 C 0.14329 0.39504 0.92201 0.0
C194 C 0.18439 0.55823 0.84098 0.0
O195 O 1.04297 0.23857 0.86041 0.0
O196 O 1.06185 0.23178 0.91522 0.0
C197 C 0.31458 0.51581 0.83829 0.0
O198 O 0.29109 0.50838 0.8063 0.0
O199 O 0.19602 0.5288 0.81934 0.0
O200 O 0.42914 0.89698 0.58169 0.0
Tb201 Tb 0.36681 0.9109 0.60724 0.0
C202 C 0.30433 0.92452 0.66959 0.0
O203 O 0.28478 0.93287 0.54837 0.0
Tb204 Tb 0.25181 0.93988 0.59944 0.0
C205 C 0.267 1.04109 0.60783 0.0
O206 O 0.37535 0.96887 0.56595 0.0
O207 O 0.16651 0.89288 0.58231 0.0
C208 C 0.14891 0.91224 0.55612 0.0
O209 O 0.18519 0.95516 0.53856 0.0
O210 O 0.35376 0.94396 0.65636 0.0
O211 O 0.26047 0.90191 0.64843 0.0
O212 O 0.30205 0.82598 0.60515 0.0
C213 C 0.33756 0.96186 0.54175 0.0
C214 C 0.46093 0.90759 0.60992 0.0
O215 O 0.30274 1.02905 0.59437 0.0
O216 O 0.22405 0.99638 0.61766 0.0
C217 C 0.29573 0.7959 0.63385 0.0
O218 O 0.32323 0.82039 0.66342 0.0
O219 O 0.43984 0.92041 0.63674 0.0
O220 O 0.56832 0.70066 0.88157 0.0
Tb221 Tb 0.64396 0.76359 0.85716 0.0
C222 C 0.72431 0.82354 0.79525 0.0
O223 O 0.7407 0.84081 0.91492 0.0
Tb224 Tb 0.78761 0.88025 0.86727 0.0
C225 C 0.87883 0.87105 0.86751 0.0
O226 O 0.69218 0.75101 0.89861 0.0
O227 O 0.81899 0.9682 0.8692 0.0
C228 C 0.8398 0.9958 0.89939 0.0
O229 O 0.83378 0.96858 0.92933 0.0
O230 O 0.69329 0.77561 0.80992 0.0
O231 O 0.74724 0.86918 0.81449 0.0
O232 O 0.62656 0.83106 0.86087 0.0
C233 C 0.72508 0.78927 0.92133 0.0
C234 C 0.54551 0.67347 0.85212 0.0
O235 O 0.87049 0.9044 0.88712 0.0
O236 O 0.83533 0.8421 0.84731 0.0
C237 C 0.60372 0.84123 0.83267 0.0
O238 O 0.60094 0.81638 0.8021 0.0
O239 O 0.57857 0.69673 0.82548 0.0
C240 C 0.17836 0.23334 0.06654 0.0
C241 C 0.15405 0.22699 0.10031 0.0
H242 H 0.23536 0.22163 0.03469 0.0
C243 C 0.17368 0.20892 0.12941 0.0
H244 H 0.16402 0.24716 0.04363 0.0
C245 C 0.2151 0.19497 0.12444 0.0
C246 C 0.237 0.19799 0.09013 0.0
H247 H 0.15569 0.20376 0.15576 0.0
H248 H 0.22773 0.17903 0.14705 0.0
C249 C 0.21916 0.21862 0.06144 0.0
C250 C 0.19194 0.94592 0.37485 0.0
C251 C 0.22255 0.97944 0.40397 0.0
H252 H 0.11464 0.87936 0.35677 0.0
C253 C 0.20089 0.9662 0.43868 0.0
H254 H 0.20778 0.95534 0.34779 0.0
C255 C 0.14832 0.92203 0.44397 0.0
C256 C 0.11545 0.89128 0.41456 0.0
H257 H 0.22393 0.99108 0.46165 0.0
H258 H 0.13249 0.91358 0.47094 0.0
C259 C 0.13858 0.90249 0.38003 0.0
C260 C 0.93962 1.02914 0.055 0.0
C261 C 0.929 0.05539 0.08364 0.0
H262 H 0.93815 0.9567 0.03549 0.0
C263 C 0.90218 1.02424 0.11409 0.0
H264 H 0.95982 0.05129 0.03095 0.0
C265 C 0.88861 0.96884 0.11629 0.0
C266 C 0.9026 0.94413 0.08838 0.0
H267 H 0.89338 1.04305 0.13663 0.0
H268 H 0.86983 0.94626 0.14049 0.0
C269 C 0.92719 0.97466 0.05752 0.0
C270 C 0.24391 0.22763 0.43851 0.0
C271 C 0.26908 0.2223 0.40734 0.0
H272 H 0.17927 0.23903 0.4602 0.0
C273 C 0.25184 0.23194 0.37361 0.0
H274 H 0.2563 0.22082 0.46495 0.0
C275 C 0.20784 0.24279 0.37097 0.0
C276 C 0.18012 0.24387 0.40198 0.0
H277 H 0.27052 0.22849 0.34908 0.0
H278 H 0.19354 0.24714 0.34452 0.0
C279 C 0.19974 0.23809 0.43583 0.0
C280 C 0.16575 0.92882 0.05877 0.0
C281 C 0.18358 0.95521 0.09233 0.0
H282 H 0.09785 0.86859 0.0274 0.0
C283 C 0.148 0.93586 0.12162 0.0
H284 H 0.19253 0.94313 0.03576 0.0
C285 C 0.09443 0.89274 0.11709 0.0
C286 C 1.0749 0.86884 0.08294 0.0
H287 H 0.16096 0.95538 0.14782 0.0
H288 H 1.06742 0.88044 0.13999 0.0
C289 C 0.1116 0.88624 0.05402 0.0
C290 C 0.90948 0.95929 0.38544 0.0
C291 C 0.91932 0.93264 0.41431 0.0
H292 H 0.91842 1.03475 0.36517 0.0
C293 C 0.94047 0.96106 0.44685 0.0
H294 H 0.89321 0.93829 0.35999 0.0
C295 C 0.95581 1.0163 0.44968 0.0
C296 C 0.94933 1.0442 0.42017 0.0
H297 H 0.94795 0.94134 0.46958 0.0
H298 H 0.97519 1.03757 0.47452 0.0
C299 C 0.92419 1.0146 0.38839 0.0
C300 C 0.2939 0.12944 0.5762 0.0
C301 C 0.26824 0.09427 0.60519 0.0
H302 H 0.30412 0.19963 0.54663 0.0
C303 C 0.23711 0.10659 0.62897 0.0
H304 H 0.31751 0.1204 0.55716 0.0
C305 C 0.23041 0.15233 0.62345 0.0
C306 C 0.25335 0.18597 0.59335 0.0
H307 H 0.21657 0.0799 0.65135 0.0
H308 H 0.20489 0.15969 0.64186 0.0
C309 C 0.28591 0.17453 0.57004 0.0
C310 C 1.02203 0.9008 0.89451 0.0
C311 C 1.04056 0.8879 0.8629 0.0
H312 H 0.95637 0.90566 0.92044 0.0
C313 C 1.0031 0.86377 0.83387 0.0
H314 H 1.04961 0.91943 0.91738 0.0
C315 C 0.94902 0.85496 0.83594 0.0
C316 C 0.93195 0.87113 0.86678 0.0
H317 H 1.01603 0.8532 0.80918 0.0
H318 H 0.92159 0.83817 0.81279 0.0
C319 C 0.96858 0.89303 0.89626 0.0
C320 C 0.95776 0.10727 0.53448 0.0
C321 C 0.92942 0.07338 0.56342 0.0
H322 H 1.02666 0.18297 0.51823 0.0
C323 C 0.94254 0.09503 0.59859 0.0
H324 H 0.94729 0.09235 0.50712 0.0
C325 C 0.9867 0.14737 0.60489 0.0
C326 C 1.01899 0.17856 0.5762 0.0
H327 H 0.92089 0.07038 0.6215 0.0
H328 H 0.99811 0.16155 0.63244 0.0
C329 C 1.00281 0.15918 0.54082 0.0
C330 C 0.24219 0.19673 0.88145 0.0
C331 C 0.2205 0.20357 0.91378 0.0
H332 H 0.27072 0.14968 0.85245 0.0
C333 C 0.21962 0.17298 0.94399 0.0
H334 H 0.24426 0.22029 0.85783 0.0
C335 C 0.23493 0.13253 0.94085 0.0
C336 C 0.25158 0.12232 0.90754 0.0
H337 H 0.20366 0.17764 0.96938 0.0
H338 H 0.23015 0.10686 0.96384 0.0
C339 C 0.25775 0.15653 0.87839 0.0
C340 C 1.07217 0.92351 0.52948 0.0
C341 C 0.0896 0.89472 0.55229 0.0
H342 H 1.00717 0.9394 0.51421 0.0
C343 C 1.05094 0.85417 0.57475 0.0
H344 H 0.10091 0.95566 0.51228 0.0
C345 C 0.99707 0.8455 0.5762 0.0
C346 C 0.9809 0.87669 0.55487 0.0
H347 H 1.06302 0.83127 0.59267 0.0
H348 H 0.96887 0.81626 0.59518 0.0
C349 C 1.01824 0.91422 0.53054 0.0
C350 C 0.93664 0.13692 0.86353 0.0
C351 C 0.96961 0.1625 0.89411 0.0
H352 H 0.86923 0.06416 0.84118 0.0
C353 C 0.9547 0.13566 0.92735 0.0
H354 H 0.94714 0.15667 0.83755 0.0
C355 C 0.90999 0.08273 0.92951 0.0
C356 C 0.87941 0.05536 0.8984 0.0
H357 H 0.97925 0.15447 0.95141 0.0
H358 H 0.90137 0.06228 0.95526 0.0
C359 C 0.89202 0.08383 0.86563 0.0
C360 C 0.3801 0.1119 0.25452 0.0
C361 C 0.43006 0.14631 0.27252 0.0
H362 H 0.33814 0.08339 0.20366 0.0
C363 C 0.47694 0.17888 0.25215 0.0
H364 H 0.34337 0.08616 0.26952 0.0
C365 C 0.47374 0.17793 0.21461 0.0
C366 C 0.42387 0.14358 0.19661 0.0
H367 H 0.51598 0.20604 0.2652 0.0
H368 H 0.51045 0.20398 0.19968 0.0
C369 C 0.37719 0.11011 0.21687 0.0
C370 C 0.81431 0.67656 0.26967 0.0
C371 C 0.85987 0.71977 0.28719 0.0
H372 H 0.77355 0.64126 0.21942 0.0
C373 C 0.89965 0.76187 0.26614 0.0
H374 H 0.78304 0.64336 0.28501 0.0
C375 C 0.89405 0.76099 0.22869 0.0
C376 C 0.84879 0.71768 0.21102 0.0
H377 H 0.93532 0.79598 0.27853 0.0
H378 H 0.92583 0.79415 0.21361 0.0
C379 C 0.80895 0.67538 0.23202 0.0
C380 C 1.00197 0.25208 0.22477 0.0
C381 C 0.9836 0.28617 0.20945 0.0
H382 H 1.02098 0.22274 0.27321 0.0
C383 C 0.97185 0.31908 0.23222 0.0
H384 H 1.01134 0.22637 0.20781 0.0
C385 C 0.97896 0.31829 0.26962 0.0
C386 C 0.99606 0.28319 0.28505 0.0
H387 H 0.95807 0.34614 0.2211 0.0
H388 H 0.9702 0.34448 0.28648 0.0
C389 C 1.0073 0.24994 0.2622 0.0
C390 C 0.17086 0.41502 0.71899 0.0
C391 C 0.19919 0.39016 0.70365 0.0
H392 H 0.13653 0.42776 0.76725 0.0
C393 C 0.22342 0.36781 0.72667 0.0
H394 H 0.15192 0.43281 0.70199 0.0
C395 C 0.21445 0.36474 0.76363 0.0
C396 C 0.18145 0.38437 0.77864 0.0
H397 H 0.24637 0.34926 0.71581 0.0
H398 H 0.23058 0.34381 0.78022 0.0
C399 C 0.16209 0.4122 0.75636 0.0
C400 C 0.23865 0.91148 0.75997 0.0
C401 C 0.28458 0.93327 0.7834 0.0
H402 H 0.20883 0.89146 0.70574 0.0
C403 C 0.33671 0.94841 0.76958 0.0
H404 H 0.19793 0.89938 0.76994 0.0
C405 C 0.34312 0.94424 0.73264 0.0
C406 C 0.29744 0.92472 0.70896 0.0
H407 H 0.37293 0.96617 0.78695 0.0
H408 H 0.38407 0.95782 0.72258 0.0
C409 C 0.24497 0.90708 0.72316 0.0
C410 C 0.77524 0.87987 0.70244 0.0
C411 C 0.75417 0.83216 0.68124 0.0
H412 H 0.78245 0.91469 0.75471 0.0
C413 C 0.71999 0.78164 0.69728 0.0
H414 H 0.80146 0.91953 0.69081 0.0
C415 C 0.70907 0.77881 0.73418 0.0
C416 C 0.73216 0.82648 0.7557 0.0
H417 H 0.70366 0.74416 0.68175 0.0
H418 H 0.68375 0.73909 0.74598 0.0
C419 C 0.76439 0.8771 0.73917 0.0
C420 C 0.38753 1.029 0.95547 0.0
C421 C 0.33058 0.99451 0.95067 0.0
H422 H 0.45193 0.0951 0.98502 0.0
C423 C 0.29424 1.00386 0.97131 0.0
H424 H 0.4168 1.02293 0.93997 0.0
C425 C 0.31456 1.04766 -0.00415 0.0
C426 C 0.37161 0.07981 0.00225 0.0
H427 H 0.25031 0.97651 0.96919 0.0
H428 H 0.28556 0.05467 0.01084 0.0
C429 C 0.40777 0.07066 0.98119 0.0
C430 C 0.80041 0.77028 0.45037 0.0
C431 C 0.83326 0.749 0.46408 0.0
H432 H 0.74937 0.80568 0.46264 0.0
C433 C 0.84458 0.75252 0.50125 0.0
H434 H 0.78995 0.76664 0.42191 0.0
C435 C 0.82024 0.77356 0.5246 0.0
C436 C 0.78564 0.79283 0.511 0.0
H437 H 0.8683 0.73473 0.51253 0.0
H438 H 0.82542 0.77132 0.55339 0.0
C439 C 0.77709 0.79236 0.47364 0.0
C440 C 1.0743 0.39244 0.96526 0.0
C441 C 0.1043 0.3682 0.95178 0.0
H442 H 1.02021 0.39211 0.00571 0.0
C443 C 0.1001 0.32189 0.96915 0.0
H444 H 1.07683 0.42846 0.95275 0.0
C445 C 1.06607 0.29988 -0.00092 0.0
C446 C 1.03761 0.3254 0.01321 0.0
H447 H 0.12456 0.30388 0.96039 0.0
H448 H 1.06387 0.26428 0.01194 0.0
C449 C 1.0418 0.37162 -0.00429 0.0
C450 C 0.4235 1.03516 0.46237 0.0
C451 C 0.40814 0.0754 0.45618 0.0
H452 H 0.41274 0.96742 0.49464 0.0
C453 C 0.36492 0.07404 0.47606 0.0
H454 H 0.45678 1.0351 0.44767 0.0
C455 C 0.33821 1.03368 0.50199 0.0
C456 C 0.35585 0.99553 0.5093 0.0
H457 H 0.35335 0.10545 0.47275 0.0
H458 H 0.30638 1.03457 0.51793 0.0
C459 C 0.39813 0.99613 0.48903 0.0
C460 C 0.73358 0.70526 -0.00159 0.0
C461 C 0.78556 0.74052 0.01372 0.0
H462 H 0.67409 0.69292 0.95707 0.0
C463 C 0.81703 0.79284 -0.00094 0.0
H464 H 0.70839 0.66469 0.00908 0.0
C465 C 0.79672 0.80953 0.9697 0.0
C466 C 0.74517 0.77369 0.95397 0.0
H467 H 0.85708 0.82101 0.01047 0.0
H468 H 0.82189 0.84992 0.95876 0.0
C469 C 0.71393 0.72141 0.96861 0.0
C470 C 0.09532 0.33417 0.53312 0.0
C471 C 0.15163 0.35785 0.52568 0.0
H472 H 1.013 0.29876 0.5113 0.0
C473 C 0.16789 0.36047 0.4898 0.0
H474 H 1.08199 0.33361 0.56045 0.0
C475 C 0.1287 0.34223 0.46167 0.0
C476 C 1.07253 0.31986 0.46905 0.0
H477 H 0.21118 0.38027 0.48333 0.0
H478 H 0.14249 0.34828 0.43409 0.0
C479 C 1.05599 0.31449 0.50504 0.0
C480 C 0.71508 0.19816 0.13383 0.0
C481 C 0.75422 0.22458 0.10687 0.0
H482 H 0.63133 0.16649 0.15005 0.0
C483 C 0.73645 0.23456 0.07351 0.0
H484 H 0.72748 0.18984 0.15982 0.0
C485 C 0.68157 0.22196 0.0682 0.0
C486 C 0.64324 0.19835 0.09589 0.0
H487 H 0.76555 0.25515 0.05229 0.0
H488 H 0.6696 0.23256 0.04283 0.0
C489 C 0.66003 0.18482 0.1283 0.0
C490 C 0.65327 0.45289 0.33497 0.0
C491 C 0.67004 0.47591 0.36949 0.0
H492 H 0.60485 0.38039 0.30377 0.0
C493 C 0.64521 0.44326 0.39968 0.0
H494 H 0.67152 0.47713 0.31124 0.0
C495 C 0.60685 0.38773 0.39549 0.0
C496 C 0.59274 0.36376 0.361 0.0
H497 H 0.6572 0.46003 0.42665 0.0
H498 H 0.59053 0.36311 0.41933 0.0
C499 C 0.61501 0.39741 0.33077 0.0
C500 C 0.90107 0.4869 0.07898 0.0
C501 C 0.92117 0.47066 0.10887 0.0
H502 H 0.87027 0.53893 0.059 0.0
C503 C 0.92994 0.49905 0.14157 0.0
H504 H 0.89403 0.46591 0.05335 0.0
C505 C 0.91589 0.54055 0.14489 0.0
C506 C 0.89355 0.55533 0.11543 0.0
H507 H 0.94543 0.48761 0.16506 0.0
H508 H 0.92078 0.55984 0.17096 0.0
C509 C 0.88783 0.52906 0.08213 0.0
C510 C 0.71987 0.22356 0.40201 0.0
C511 C 0.68525 0.20784 0.37133 0.0
H512 H 0.80164 0.25287 0.423 0.0
C513 C 0.7067 0.20514 0.33792 0.0
H514 H 0.70426 0.22566 0.42816 0.0
C515 C 0.76259 0.22102 0.33488 0.0
C516 C 0.79797 0.23938 0.36528 0.0
H517 H 0.68085 0.19296 0.31386 0.0
H518 H 0.77847 0.22081 0.30847 0.0
C519 C 0.7756 0.23885 0.39906 0.0
C520 C 0.59679 0.39386 0.07011 0.0
C521 C 0.57242 0.37026 0.10296 0.0
H522 H 0.65704 0.46584 0.04351 0.0
C523 C 0.58609 0.40375 0.13381 0.0
H524 H 0.58741 0.36898 0.046 0.0
C525 C 0.62556 0.45896 0.13237 0.0
C526 C 0.65265 0.48171 0.10014 0.0
H527 H 0.56785 0.38672 0.1595 0.0
H528 H 0.63667 0.48316 0.15689 0.0
C529 C 0.6369 0.44914 0.06877 0.0
C530 C 0.92562 0.53141 0.33008 0.0
C531 C 0.91885 0.5574 0.36049 0.0
H532 H 0.94833 0.47355 0.31006 0.0
C533 C 0.93623 0.54849 0.39436 0.0
H534 H 0.91292 0.53746 0.30354 0.0
C535 C 0.95651 0.51178 0.39801 0.0
C536 C 0.96 0.48335 0.36789 0.0
H537 H 0.93173 0.56783 0.41833 0.0
H538 H 0.96719 0.50389 0.42468 0.0
C539 C 0.94597 0.49477 0.33375 0.0
C540 C 0.26445 0.70437 0.66204 0.0
C541 C 0.26848 0.73539 0.63124 0.0
H542 H 0.24882 0.62687 0.68292 0.0
C543 C 0.25281 0.70873 0.59762 0.0
H544 H 0.27582 0.72346 0.68843 0.0
C545 C 0.23738 0.6533 0.59455 0.0
C546 C 0.2371 0.62338 0.62503 0.0
H547 H 0.25532 0.73127 0.57339 0.0
H548 H 0.2282 0.63455 0.56804 0.0
C549 C 0.24892 0.64894 0.65895 0.0
C550 C 0.50249 0.89179 0.81172 0.0
C551 C 0.48881 0.90035 0.84642 0.0
H552 H 0.55032 0.86702 0.78006 0.0
C553 C 0.51902 0.89705 0.8761 0.0
H554 H 0.47996 0.89413 0.78836 0.0
C555 C 0.55948 0.88177 0.87143 0.0
C556 C 0.57032 0.86903 0.83698 0.0
H557 H 0.50958 0.90376 0.90319 0.0
H558 H 0.57991 0.8769 0.89507 0.0
C559 C 0.54279 0.87618 0.80703 0.0
C560 C 0.50663 0.62259 0.65732 0.0
C561 C 0.52895 0.62592 0.62316 0.0
H562 H 0.43426 0.58673 0.68943 0.0
C563 C 0.49567 0.58943 0.59597 0.0
H564 H 0.53138 0.65022 0.6788 0.0
C565 C 0.44004 0.55309 0.60199 0.0
C566 C 0.41649 0.55262 0.6353 0.0
H567 H 0.51185 0.59094 0.5694 0.0
H568 H 0.41491 0.52748 0.57985 0.0
C569 C 0.45091 0.58627 0.66336 0.0
C570 C 0.23979 0.69693 0.79872 0.0
C571 C 0.23565 0.72711 0.82763 0.0
H572 H 0.22592 0.61875 0.78009 0.0
C573 C 0.20545 0.69905 0.8579 0.0
H574 H 0.26242 0.71729 0.77487 0.0
C575 C 0.18435 0.64275 0.86072 0.0
C576 C 0.19309 0.61344 0.83336 0.0
H577 H 0.20082 0.72094 0.88041 0.0
H578 H 0.16432 0.62282 0.88539 0.0
C579 C 0.21873 0.64045 0.80161 0.0
C580 C 0.53349 0.8994 0.64549 0.0
C581 C 0.50934 0.89942 0.61204 0.0
H582 H 0.59042 0.88197 0.67417 0.0
C583 C 0.52894 0.88712 0.58077 0.0
H584 H 0.51918 0.90889 0.67 0.0
C585 C 0.56997 0.87218 0.58303 0.0
C586 C 0.59181 0.86871 0.61671 0.0
H587 H 0.5112 0.88717 0.5546 0.0
H588 H 0.5826 0.86084 0.55853 0.0
C589 C 0.57427 0.88399 0.64782 0.0
C590 C 0.45594 0.60732 0.87966 0.0
C591 C 0.48839 0.62781 0.84891 0.0
H592 H 0.37575 0.55518 0.90055 0.0
C593 C 0.46451 0.60706 0.81493 0.0
H594 H 0.47335 0.62248 0.90622 0.0
C595 C 0.40852 0.56859 0.81163 0.0
C596 C 0.37529 0.54991 0.84226 0.0
H597 H 0.48857 0.62204 0.79077 0.0
H598 H 0.39093 0.55493 0.78492 0.0
C599 C 0.40002 0.56864 0.8764 0.0
loop_
_geom_bond_atom_site_label_1
_geom_bond_atom_site_label_2
_geom_bond_distance
_geom_bond_site_symmetry_2
_ccdc_geom_bond_type
O0 Tb1 2.506 . S
O0 C14 1.265 . S
Tb1 O0 2.506 . S
Tb1 O6 2.312 . S
Tb1 O10 2.271 . S
Tb1 O12 2.338 . S
Tb1 O19 2.441 . S
C2 O10 1.252 . S
C2 O11 1.253 . S
O3 Tb4 2.271 . S
O3 C13 1.252 . S
Tb4 O3 2.271 . S
Tb4 O7 2.338 . S
Tb4 O11 2.312 . S
Tb4 O15 2.441 . S
Tb4 O16 2.506 . S
C5 O15 1.244 . S
C5 O16 1.265 . S
O6 Tb1 2.312 . S
O6 C13 1.253 . S
O7 Tb4 2.338 . S
O7 C8 1.258 . S
C8 O7 1.258 . S
C8 O9 1.251 . S
O9 C8 1.251 . S
O10 Tb1 2.271 . S
O10 C2 1.252 . S
O11 C2 1.253 . S
O11 Tb4 2.312 . S
O12 Tb1 2.338 . S
O12 C17 1.258 . S
C13 O3 1.252 . S
C13 O6 1.253 . S
C14 O0 1.265 . S
C14 O19 1.244 . S
O15 Tb4 2.441 . S
O15 C5 1.244 . S
O16 Tb4 2.506 . S
O16 C5 1.265 . S
C17 O12 1.258 . S
C17 O18 1.251 . S
O18 C17 1.251 . S
O19 Tb1 2.441 . S
O19 C14 1.244 . S
O20 Tb21 2.506 . S
O20 C34 1.265 . S
Tb21 O20 2.506 . S
Tb21 O26 2.312 . S
Tb21 O30 2.271 . S
Tb21 O32 2.338 . S
Tb21 O39 2.441 . S
C22 O30 1.252 . S
C22 O31 1.253 . S
O23 Tb24 2.271 . S
O23 C33 1.252 . S
Tb24 O23 2.271 . S
Tb24 O27 2.338 . S
Tb24 O31 2.312 . S
Tb24 O35 2.441 . S
Tb24 O36 2.506 . S
C25 O35 1.244 . S
C25 O36 1.265 . S
O26 Tb21 2.312 . S
O26 C33 1.253 . S
O27 Tb24 2.338 . S
O27 C28 1.258 . S
C28 O27 1.258 . S
C28 O29 1.251 . S
O29 C28 1.251 . S
O30 Tb21 2.271 . S
O30 C22 1.252 . S
O31 C22 1.253 . S
O31 Tb24 2.312 . S
O32 Tb21 2.338 . S
O32 C37 1.258 . S
C33 O23 1.252 . S
C33 O26 1.253 . S
C34 O20 1.265 . S
C34 O39 1.244 . S
O35 Tb24 2.441 . S
O35 C25 1.244 . S
O36 Tb24 2.506 . S
O36 C25 1.265 . S
C37 O32 1.258 . S
C37 O38 1.251 . S
O38 C37 1.251 . S
O39 Tb21 2.441 . S
O39 C34 1.244 . S
O40 Tb41 2.506 . S
O40 C54 1.265 . S
Tb41 O40 2.506 . S
Tb41 O46 2.312 . S
Tb41 O50 2.271 . S
Tb41 O52 2.338 . S
Tb41 O59 2.441 . S
C42 O50 1.252 . S
C42 O51 1.253 . S
O43 Tb44 2.271 . S
O43 C53 1.252 . S
Tb44 O43 2.271 . S
Tb44 O47 2.338 . S
Tb44 O51 2.312 . S
Tb44 O55 2.441 . S
Tb44 O56 2.506 . S
C45 O55 1.244 . S
C45 O56 1.265 . S
O46 Tb41 2.312 . S
O46 C53 1.253 . S
O47 Tb44 2.338 . S
O47 C48 1.258 . S
C48 O47 1.258 . S
C48 O49 1.251 . S
O49 C48 1.251 . S
O50 Tb41 2.271 . S
O50 C42 1.252 . S
O51 C42 1.253 . S
O51 Tb44 2.312 . S
O52 Tb41 2.338 . S
O52 C57 1.258 . S
C53 O43 1.252 . S
C53 O46 1.253 . S
C54 O40 1.265 . S
C54 O59 1.244 . S
O55 Tb44 2.441 . S
O55 C45 1.244 . S
O56 Tb44 2.506 . S
O56 C45 1.265 . S
C57 O52 1.258 . S
C57 O58 1.251 . S
O58 C57 1.251 . S
O59 Tb41 2.441 . S
O59 C54 1.244 . S
O60 Tb61 2.506 . S
O60 C74 1.265 . S
Tb61 O60 2.506 . S
Tb61 O66 2.312 . S
Tb61 O70 2.271 . S
Tb61 O72 2.338 . S
Tb61 O79 2.441 . S
C62 O70 1.252 . S
C62 O71 1.253 . S
O63 Tb64 2.271 . S
O63 C73 1.252 . S
Tb64 O63 2.271 . S
Tb64 O67 2.338 . S
Tb64 O71 2.312 . S
Tb64 O75 2.441 . S
Tb64 O76 2.506 . S
C65 O75 1.244 . S
C65 O76 1.265 . S
O66 Tb61 2.312 . S
O66 C73 1.253 . S
O67 Tb64 2.338 . S
O67 C68 1.258 . S
C68 O67 1.258 . S
C68 O69 1.251 . S
O69 C68 1.251 . S
O70 Tb61 2.271 . S
O70 C62 1.252 . S
O71 C62 1.253 . S
O71 Tb64 2.312 . S
O72 Tb61 2.338 . S
O72 C77 1.258 . S
C73 O63 1.252 . S
C73 O66 1.253 . S
C74 O60 1.265 . S
C74 O79 1.244 . S
O75 Tb64 2.441 . S
O75 C65 1.244 . S
O76 Tb64 2.506 . S
O76 C65 1.265 . S
C77 O72 1.258 . S
C77 O78 1.251 . S
O78 C77 1.251 . S
O79 Tb61 2.441 . S
O79 C74 1.244 . S
O80 Tb81 2.506 . S
O80 C94 1.265 . S
Tb81 O80 2.506 . S
Tb81 O86 2.312 . S
Tb81 O90 2.271 . S
Tb81 O92 2.338 . S
Tb81 O99 2.441 . S
C82 O90 1.252 . S
C82 O91 1.253 . S
O83 Tb84 2.271 . S
O83 C93 1.252 . S
Tb84 O83 2.271 . S
Tb84 O87 2.338 . S
Tb84 O91 2.312 . S
Tb84 O95 2.441 . S
Tb84 O96 2.506 . S
C85 O95 1.244 . S
C85 O96 1.265 . S
O86 Tb81 2.312 . S
O86 C93 1.253 . S
O87 Tb84 2.338 . S
O87 C88 1.258 . S
C88 O87 1.258 . S
C88 O89 1.251 . S
O89 C88 1.251 . S
O90 Tb81 2.271 . S
O90 C82 1.252 . S
O91 C82 1.253 . S
O91 Tb84 2.312 . S
O92 Tb81 2.338 . S
O92 C97 1.258 . S
C93 O83 1.252 . S
C93 O86 1.253 . S
C94 O80 1.265 . S
C94 O99 1.244 . S
O95 Tb84 2.441 . S
O95 C85 1.244 . S
O96 Tb84 2.506 . S
O96 C85 1.265 . S
C97 O92 1.258 . S
C97 O98 1.251 . S
O98 C97 1.251 . S
O99 Tb81 2.441 . S
O99 C94 1.244 . S
O100 Tb101 2.506 . S
O100 C114 1.265 . S
Tb101 O100 2.506 . S
Tb101 O106 2.312 . S
Tb101 O110 2.271 . S
Tb101 O112 2.338 . S
Tb101 O119 2.441 . S
C102 O110 1.252 . S
C102 O111 1.253 . S
O103 Tb104 2.271 . S
O103 C113 1.252 . S
Tb104 O103 2.271 . S
Tb104 O107 2.338 . S
Tb104 O111 2.312 . S
Tb104 O115 2.441 . S
Tb104 O116 2.506 . S
C105 O115 1.244 . S
C105 O116 1.265 . S
O106 Tb101 2.312 . S
O106 C113 1.253 . S
O107 Tb104 2.338 . S
O107 C108 1.258 . S
C108 O107 1.258 . S
C108 O109 1.251 . S
O109 C108 1.251 . S
O110 Tb101 2.271 . S
O110 C102 1.252 . S
O111 C102 1.253 . S
O111 Tb104 2.312 . S
O112 Tb101 2.338 . S
O112 C117 1.258 . S
C113 O103 1.252 . S
C113 O106 1.253 . S
C114 O100 1.265 . S
C114 O119 1.244 . S
O115 Tb104 2.441 . S
O115 C105 1.244 . S
O116 Tb104 2.506 . S
O116 C105 1.265 . S
C117 O112 1.258 . S
C117 O118 1.251 . S
O118 C117 1.251 . S
O119 Tb101 2.441 . S
O119 C114 1.244 . S
O120 Tb121 2.506 . S
O120 C134 1.265 . S
Tb121 O120 2.506 . S
Tb121 O126 2.312 . S
Tb121 O130 2.271 . S
Tb121 O132 2.338 . S
Tb121 O139 2.441 . S
C122 O130 1.252 . S
C122 O131 1.253 . S
O123 Tb124 2.271 . S
O123 C133 1.252 . S
Tb124 O123 2.271 . S
Tb124 O127 2.338 . S
Tb124 O131 2.312 . S
Tb124 O135 2.441 . S
Tb124 O136 2.506 . S
C125 O135 1.244 . S
C125 O136 1.265 . S
O126 Tb121 2.312 . S
O126 C133 1.253 . S
O127 Tb124 2.338 . S
O127 C128 1.258 . S
C128 O127 1.258 . S
C128 O129 1.251 . S
O129 C128 1.251 . S
O130 Tb121 2.271 . S
O130 C122 1.252 . S
O131 C122 1.253 . S
O131 Tb124 2.312 . S
O132 Tb121 2.338 . S
O132 C137 1.258 . S
C133 O123 1.252 . S
C133 O126 1.253 . S
C134 O120 1.265 . S
C134 O139 1.244 . S
O135 Tb124 2.441 . S
O135 C125 1.244 . S
O136 Tb124 2.506 . S
O136 C125 1.265 . S
C137 O132 1.258 . S
C137 O138 1.251 . S
O138 C137 1.251 . S
O139 Tb121 2.441 . S
O139 C134 1.244 . S
O140 Tb141 2.506 . S
O140 C154 1.265 . S
Tb141 O140 2.506 . S
Tb141 O146 2.312 . S
Tb141 O150 2.271 . S
Tb141 O152 2.338 . S
Tb141 O159 2.441 . S
C142 O150 1.252 . S
C142 O151 1.253 . S
O143 Tb144 2.271 . S
O143 C153 1.252 . S
Tb144 O143 2.271 . S
Tb144 O147 2.338 . S
Tb144 O151 2.312 . S
Tb144 O155 2.441 . S
Tb144 O156 2.506 . S
C145 O155 1.244 . S
C145 O156 1.265 . S
O146 Tb141 2.312 . S
O146 C153 1.253 . S
O147 Tb144 2.338 . S
O147 C148 1.258 . S
C148 O147 1.258 . S
C148 O149 1.251 . S
O149 C148 1.251 . S
O150 Tb141 2.271 . S
O150 C142 1.252 . S
O151 C142 1.253 . S
O151 Tb144 2.312 . S
O152 Tb141 2.338 . S
O152 C157 1.258 . S
C153 O143 1.252 . S
C153 O146 1.253 . S
C154 O140 1.265 . S
C154 O159 1.244 . S
O155 Tb144 2.441 . S
O155 C145 1.244 . S
O156 Tb144 2.506 . S
O156 C145 1.265 . S
C157 O152 1.258 . S
C157 O158 1.251 . S
O158 C157 1.251 . S
O159 Tb141 2.441 . S
O159 C154 1.244 . S
O160 Tb161 2.506 . S
O160 C174 1.265 . S
Tb161 O160 2.506 . S
Tb161 O166 2.312 . S
Tb161 O170 2.271 . S
Tb161 O172 2.338 . S
Tb161 O179 2.441 . S
C162 O170 1.252 . S
C162 O171 1.253 . S
O163 Tb164 2.271 . S
O163 C173 1.252 . S
Tb164 O163 2.271 . S
Tb164 O167 2.338 . S
Tb164 O171 2.312 . S
Tb164 O175 2.441 . S
Tb164 O176 2.506 . S
C165 O175 1.244 . S
C165 O176 1.265 . S
O166 Tb161 2.312 . S
O166 C173 1.253 . S
O167 Tb164 2.338 . S
O167 C168 1.258 . S
C168 O167 1.258 . S
C168 O169 1.251 . S
O169 C168 1.251 . S
O170 Tb161 2.271 . S
O170 C162 1.252 . S
O171 C162 1.253 . S
O171 Tb164 2.312 . S
O172 Tb161 2.338 . S
O172 C177 1.258 . S
C173 O163 1.252 . S
C173 O166 1.253 . S
C174 O160 1.265 . S
C174 O179 1.244 . S
O175 Tb164 2.441 . S
O175 C165 1.244 . S
O176 Tb164 2.506 . S
O176 C165 1.265 . S
C177 O172 1.258 . S
C177 O178 1.251 . S
O178 C177 1.251 . S
O179 Tb161 2.441 . S
O179 C174 1.244 . S
O180 Tb181 2.506 . S
O180 C194 1.265 . S
Tb181 O180 2.506 . S
Tb181 O186 2.312 . S
Tb181 O190 2.271 . S
Tb181 O192 2.338 . S
Tb181 O199 2.441 . S
C182 O190 1.252 . S
C182 O191 1.253 . S
O183 Tb184 2.271 . S
O183 C193 1.252 . S
Tb184 O183 2.271 . S
Tb184 O187 2.338 . S
Tb184 O191 2.312 . S
Tb184 O195 2.441 . S
Tb184 O196 2.506 . S
C185 O195 1.244 . S
C185 O196 1.265 . S
O186 Tb181 2.312 . S
O186 C193 1.253 . S
O187 Tb184 2.338 . S
O187 C188 1.258 . S
C188 O187 1.258 . S
C188 O189 1.251 . S
O189 C188 1.251 . S
O190 Tb181 2.271 . S
O190 C182 1.252 . S
O191 C182 1.253 . S
O191 Tb184 2.312 . S
O192 Tb181 2.338 . S
O192 C197 1.258 . S
C193 O183 1.252 . S
C193 O186 1.253 . S
C194 O180 1.265 . S
C194 O199 1.244 . S
O195 Tb184 2.441 . S
O195 C185 1.244 . S
O196 Tb184 2.506 . S
O196 C185 1.265 . S
C197 O192 1.258 . S
C197 O198 1.251 . S
O198 C197 1.251 . S
O199 Tb181 2.441 . S
O199 C194 1.244 . S
O200 Tb201 2.506 . S
O200 C214 1.265 . S
Tb201 O200 2.506 . S
Tb201 O206 2.312 . S
Tb201 O210 2.271 . S
Tb201 O212 2.338 . S
Tb201 O219 2.441 . S
C202 O210 1.252 . S
C202 O211 1.253 . S
O203 Tb204 2.271 . S
O203 C213 1.252 . S
Tb204 O203 2.271 . S
Tb204 O207 2.338 . S
Tb204 O211 2.312 . S
Tb204 O215 2.441 . S
Tb204 O216 2.506 . S
C205 O215 1.244 . S
C205 O216 1.265 . S
O206 Tb201 2.312 . S
O206 C213 1.253 . S
O207 Tb204 2.338 . S
O207 C208 1.258 . S
C208 O207 1.258 . S
C208 O209 1.251 . S
O209 C208 1.251 . S
O210 Tb201 2.271 . S
O210 C202 1.252 . S
O211 C202 1.253 . S
O211 Tb204 2.312 . S
O212 Tb201 2.338 . S
O212 C217 1.258 . S
C213 O203 1.252 . S
C213 O206 1.253 . S
C214 O200 1.265 . S
C214 O219 1.244 . S
O215 Tb204 2.441 . S
O215 C205 1.244 . S
O216 Tb204 2.506 . S
O216 C205 1.265 . S
C217 O212 1.258 . S
C217 O218 1.251 . S
O218 C217 1.251 . S
O219 Tb201 2.441 . S
O219 C214 1.244 . S
O220 Tb221 2.506 . S
O220 C234 1.265 . S
Tb221 O220 2.506 . S
Tb221 O226 2.312 . S
Tb221 O230 2.271 . S
Tb221 O232 2.338 . S
Tb221 O239 2.441 . S
C222 O230 1.252 . S
C222 O231 1.253 . S
O223 Tb224 2.271 . S
O223 C233 1.252 . S
Tb224 O223 2.271 . S
Tb224 O227 2.338 . S
Tb224 O231 2.312 . S
Tb224 O235 2.441 . S
Tb224 O236 2.506 . S
C225 O235 1.244 . S
C225 O236 1.265 . S
O226 Tb221 2.312 . S
O226 C233 1.253 . S
O227 Tb224 2.338 . S
O227 C228 1.258 . S
C228 O227 1.258 . S
C228 O229 1.251 . S
O229 C228 1.251 . S
O230 Tb221 2.271 . S
O230 C222 1.252 . S
O231 C222 1.253 . S
O231 Tb224 2.312 . S
O232 Tb221 2.338 . S
O232 C237 1.258 . S
C233 O223 1.252 . S
C233 O226 1.253 . S
C234 O220 1.265 . S
C234 O239 1.244 . S
O235 Tb224 2.441 . S
O235 C225 1.244 . S
O236 Tb224 2.506 . S
O236 C225 1.265 . S
C237 O232 1.258 . S
C237 O238 1.251 . S
O238 C237 1.251 . S
O239 Tb221 2.441 . S
O239 C234 1.244 . S
C240 C241 1.387 . S
C240 H244 0.950 . S
C240 C249 1.390 . S
C241 C240 1.387 . S
C241 C243 1.387 . S
H242 C249 0.950 . S
C243 C241 1.387 . S
C243 C245 1.390 . S
C243 H247 0.950 . S
H244 C240 0.950 . S
C245 C243 1.390 . S
C245 C246 1.387 . S
C245 H248 0.950 . S
C246 C245 1.387 . S
C246 C249 1.387 . S
H247 C243 0.950 . S
H248 C245 0.950 . S
C249 C240 1.390 . S
C249 H242 0.950 . S
C249 C246 1.387 . S
C250 C251 1.387 . S
C250 H254 0.950 . S
C250 C259 1.390 . S
C251 C250 1.387 . S
C251 C253 1.387 . S
H252 C259 0.950 . S
C253 C251 1.387 . S
C253 C255 1.390 1_455 S
C253 H257 0.950 . S
H254 C250 0.950 . S
C255 C253 1.390 1_655 S
C255 C256 1.387 . S
C255 H258 0.950 . S
C256 C255 1.387 . S
C256 C259 1.387 1_655 S
H257 C253 0.950 . S
H258 C255 0.950 . S
C259 C250 1.390 . S
C259 H252 0.950 . S
C259 C256 1.387 1_455 S
C260 C261 1.387 1_565 S
C260 H264 0.950 . S
C260 C269 1.390 . S
C261 C260 1.387 1_545 S
C261 C263 1.387 . S
H262 C269 0.950 . S
C263 C261 1.387 . S
C263 C265 1.390 1_545 S
C263 H267 0.950 . S
H264 C260 0.950 . S
C265 C263 1.390 1_565 S
C265 C266 1.387 . S
C265 H268 0.950 . S
C266 C265 1.387 . S
C266 C269 1.387 . S
H267 C263 0.950 . S
H268 C265 0.950 . S
C269 C260 1.390 . S
C269 H262 0.950 . S
C269 C266 1.387 . S
C270 C271 1.387 . S
C270 H274 0.950 . S
C270 C279 1.390 . S
C271 C270 1.387 . S
C271 C273 1.387 . S
H272 C279 0.950 . S
C273 C271 1.387 . S
C273 C275 1.390 . S
C273 H277 0.950 . S
H274 C270 0.950 . S
C275 C273 1.390 . S
C275 C276 1.387 . S
C275 H278 0.950 . S
C276 C275 1.387 . S
C276 C279 1.387 . S
H277 C273 0.950 . S
H278 C275 0.950 . S
C279 C270 1.390 . S
C279 H272 0.950 . S
C279 C276 1.387 . S
C280 C281 1.387 . S
C280 H284 0.950 . S
C280 C289 1.390 . S
C281 C280 1.387 . S
C281 C283 1.387 . S
H282 C289 0.950 . S
C283 C281 1.387 . S
C283 C285 1.390 1_455 S
C283 H287 0.950 . S
H284 C280 0.950 . S
C285 C283 1.390 1_655 S
C285 C286 1.387 . S
C285 H288 0.950 . S
C286 C285 1.387 . S
C286 C289 1.387 1_655 S
H287 C283 0.950 . S
H288 C285 0.950 . S
C289 C280 1.390 . S
C289 H282 0.950 . S
C289 C286 1.387 1_455 S
C290 C291 1.387 . S
C290 H294 0.950 . S
C290 C299 1.390 . S
C291 C290 1.387 . S
C291 C293 1.387 . S
H292 C299 0.950 . S
C293 C291 1.387 . S
C293 C295 1.390 1_565 S
C293 H297 0.950 . S
H294 C290 0.950 . S
C295 C293 1.390 1_545 S
C295 C296 1.387 . S
C295 H298 0.950 . S
C296 C295 1.387 . S
C296 C299 1.387 1_545 S
H297 C293 0.950 . S
H298 C295 0.950 . S
C299 C290 1.390 . S
C299 H292 0.950 . S
C299 C296 1.387 1_565 S
C300 C301 1.387 . S
C300 H304 0.950 . S
C300 C309 1.390 . S
C301 C300 1.387 . S
C301 C303 1.387 . S
H302 C309 0.950 . S
C303 C301 1.387 . S
C303 C305 1.390 . S
C303 H307 0.950 . S
H304 C300 0.950 . S
C305 C303 1.390 . S
C305 C306 1.387 . S
C305 H308 0.950 . S
C306 C305 1.387 . S
C306 C309 1.387 . S
H307 C303 0.950 . S
H308 C305 0.950 . S
C309 C300 1.390 . S
C309 H302 0.950 . S
C309 C306 1.387 . S
C310 C311 1.387 1_655 S
C310 H314 0.950 . S
C310 C319 1.390 . S
C311 C310 1.387 1_455 S
C311 C313 1.387 . S
H312 C319 0.950 . S
C313 C311 1.387 . S
C313 C315 1.390 1_455 S
C313 H317 0.950 . S
H314 C310 0.950 . S
C315 C313 1.390 1_655 S
C315 C316 1.387 . S
C315 H318 0.950 . S
C316 C315 1.387 . S
C316 C319 1.387 . S
H317 C313 0.950 . S
H318 C315 0.950 . S
C319 C310 1.390 . S
C319 H312 0.950 . S
C319 C316 1.387 . S
C320 C321 1.387 1_545 S
C320 H324 0.950 . S
C320 C329 1.390 . S
C321 C320 1.387 1_565 S
C321 C323 1.388 1_565 S
H322 C329 0.950 . S
C323 C321 1.388 1_545 S
C323 C325 1.390 . S
C323 H327 0.950 1_545 S
H324 C320 0.950 . S
C325 C323 1.390 . S
C325 C326 1.387 . S
C325 H328 0.950 . S
C326 C325 1.387 . S
C326 C329 1.387 . S
H327 C323 0.950 1_565 S
H328 C325 0.950 . S
C329 C320 1.390 . S
C329 H322 0.950 . S
C329 C326 1.387 . S
C330 C331 1.387 . S
C330 H334 0.950 . S
C330 C339 1.390 . S
C331 C330 1.387 . S
C331 C333 1.387 . S
H332 C339 0.950 . S
C333 C331 1.387 . S
C333 C335 1.390 . S
C333 H337 0.950 . S
H334 C330 0.950 . S
C335 C333 1.390 . S
C335 C336 1.387 . S
C335 H338 0.950 . S
C336 C335 1.387 . S
C336 C339 1.387 . S
H337 C333 0.950 . S
H338 C335 0.950 . S
C339 C330 1.390 . S
C339 H332 0.950 . S
C339 C336 1.387 . S
C340 C341 1.387 1_655 S
C340 H344 0.950 . S
C340 C349 1.390 . S
C341 C340 1.387 1_455 S
C341 C343 1.387 . S
H342 C349 0.950 . S
C343 C341 1.387 . S
C343 C345 1.390 1_455 S
C343 H347 0.950 . S
H344 C340 0.950 . S
C345 C343 1.390 1_655 S
C345 C346 1.387 . S
C345 H348 0.950 . S
C346 C345 1.387 . S
C346 C349 1.387 . S
H347 C343 0.950 . S
H348 C345 0.950 . S
C349 C340 1.390 . S
C349 H342 0.950 . S
C349 C346 1.387 . S
C350 C351 1.387 . S
C350 H354 0.950 . S
C350 C359 1.390 . S
C351 C350 1.387 . S
C351 C353 1.387 . S
H352 C359 0.950 1_565 S
C353 C351 1.387 . S
C353 C355 1.390 . S
C353 H357 0.950 . S
H354 C350 0.950 . S
C355 C353 1.390 . S
C355 C356 1.387 1_545 S
C355 H358 0.950 . S
C356 C355 1.387 1_565 S
C356 C359 1.387 1_565 S
H357 C353 0.950 . S
H358 C355 0.950 . S
C359 C350 1.390 . S
C359 H352 0.950 1_545 S
C359 C356 1.387 1_545 S
C360 C361 1.387 . S
C360 H364 0.950 . S
C360 C369 1.390 . S
C361 C360 1.387 . S
C361 C363 1.387 . S
H362 C369 0.950 . S
C363 C361 1.387 . S
C363 C365 1.390 . S
C363 H367 0.950 . S
H364 C360 0.950 . S
C365 C363 1.390 . S
C365 C366 1.387 . S
C365 H368 0.950 . S
C366 C365 1.387 . S
C366 C369 1.387 . S
H367 C363 0.950 . S
H368 C365 0.950 . S
C369 C360 1.390 . S
C369 H362 0.950 . S
C369 C366 1.387 . S
C370 C371 1.387 . S
C370 H374 0.950 . S
C370 C379 1.390 . S
C371 C370 1.387 . S
C371 C373 1.387 . S
H372 C379 0.950 . S
C373 C371 1.387 . S
C373 C375 1.390 . S
C373 H377 0.950 . S
H374 C370 0.950 . S
C375 C373 1.390 . S
C375 C376 1.387 . S
C375 H378 0.950 . S
C376 C375 1.387 . S
C376 C379 1.387 . S
H377 C373 0.950 . S
H378 C375 0.950 . S
C379 C370 1.390 . S
C379 H372 0.950 . S
C379 C376 1.387 . S
C380 C381 1.387 . S
C380 H384 0.950 . S
C380 C389 1.390 . S
C381 C380 1.387 . S
C381 C383 1.387 . S
H382 C389 0.950 . S
C383 C381 1.387 . S
C383 C385 1.390 . S
C383 H387 0.950 . S
H384 C380 0.950 . S
C385 C383 1.390 . S
C385 C386 1.387 . S
C385 H388 0.950 . S
C386 C385 1.387 . S
C386 C389 1.387 . S
H387 C383 0.950 . S
H388 C385 0.950 . S
C389 C380 1.390 . S
C389 H382 0.950 . S
C389 C386 1.387 . S
C390 C391 1.387 . S
C390 H394 0.950 . S
C390 C399 1.390 . S
C391 C390 1.387 . S
C391 C393 1.387 . S
H392 C399 0.950 . S
C393 C391 1.387 . S
C393 C395 1.390 . S
C393 H397 0.950 . S
H394 C390 0.950 . S
C395 C393 1.390 . S
C395 C396 1.387 . S
C395 H398 0.950 . S
C396 C395 1.387 . S
C396 C399 1.387 . S
H397 C393 0.950 . S
H398 C395 0.950 . S
C399 C390 1.390 . S
C399 H392 0.950 . S
C399 C396 1.387 . S
C400 C401 1.387 . S
C400 H404 0.950 . S
C400 C409 1.390 . S
C401 C400 1.387 . S
C401 C403 1.387 . S
H402 C409 0.950 . S
C403 C401 1.387 . S
C403 C405 1.390 . S
C403 H407 0.950 . S
H404 C400 0.950 . S
C405 C403 1.390 . S
C405 C406 1.387 . S
C405 H408 0.950 . S
C406 C405 1.387 . S
C406 C409 1.387 . S
H407 C403 0.950 . S
H408 C405 0.950 . S
C409 C400 1.390 . S
C409 H402 0.950 . S
C409 C406 1.387 . S
C410 C411 1.387 . S
C410 H414 0.950 . S
C410 C419 1.390 . S
C411 C410 1.387 . S
C411 C413 1.387 . S
H412 C419 0.950 . S
C413 C411 1.387 . S
C413 C415 1.390 . S
C413 H417 0.950 . S
H414 C410 0.950 . S
C415 C413 1.390 . S
C415 C416 1.387 . S
C415 H418 0.950 . S
C416 C415 1.387 . S
C416 C419 1.387 . S
H417 C413 0.950 . S
H418 C415 0.950 . S
C419 C410 1.390 . S
C419 H412 0.950 . S
C419 C416 1.387 . S
C420 C421 1.387 . S
C420 H424 0.950 . S
C420 C429 1.390 1_566 S
C421 C420 1.387 . S
C421 C423 1.387 . S
H422 C429 0.950 . S
C423 C421 1.387 . S
C423 C425 1.390 1_566 S
C423 H427 0.950 . S
H424 C420 0.950 . S
C425 C423 1.390 1_544 S
C425 C426 1.387 . S
C425 H428 0.950 . S
C426 C425 1.387 . S
C426 C429 1.387 . S
H427 C423 0.950 . S
H428 C425 0.950 . S
C429 C420 1.390 1_544 S
C429 H422 0.950 . S
C429 C426 1.387 . S
C430 C431 1.387 . S
C430 H434 0.950 . S
C430 C439 1.390 . S
C431 C430 1.387 . S
C431 C433 1.387 . S
H432 C439 0.950 . S
C433 C431 1.387 . S
C433 C435 1.390 . S
C433 H437 0.950 . S
H434 C430 0.950 . S
C435 C433 1.390 . S
C435 C436 1.387 . S
C435 H438 0.950 . S
C436 C435 1.387 . S
C436 C439 1.387 . S
H437 C433 0.950 . S
H438 C435 0.950 . S
C439 C430 1.390 . S
C439 H432 0.950 . S
C439 C436 1.387 . S
C440 C441 1.387 1_554 S
C440 H444 0.950 . S
C440 C449 1.390 1_455 S
C441 C440 1.387 1_556 S
C441 C443 1.387 . S
H442 C449 0.950 . S
C443 C441 1.387 . S
C443 C445 1.390 1_455 S
C443 H447 0.950 . S
H444 C440 0.950 . S
C445 C443 1.390 1_655 S
C445 C446 1.387 1_556 S
C445 H448 0.950 . S
C446 C445 1.387 1_554 S
C446 C449 1.387 . S
H447 C443 0.950 . S
H448 C445 0.950 . S
C449 C440 1.390 1_655 S
C449 H442 0.950 . S
C449 C446 1.387 . S
C450 C451 1.387 . S
C450 H454 0.950 . S
C450 C459 1.390 1_545 S
C451 C450 1.387 . S
C451 C453 1.387 . S
H452 C459 0.950 . S
C453 C451 1.387 . S
C453 C455 1.390 1_545 S
C453 H457 0.950 . S
H454 C450 0.950 . S
C455 C453 1.390 1_565 S
C455 C456 1.387 . S
C455 H458 0.950 . S
C456 C455 1.387 . S
C456 C459 1.387 . S
H457 C453 0.950 . S
H458 C455 0.950 . S
C459 C450 1.390 1_565 S
C459 H452 0.950 . S
C459 C456 1.387 . S
C460 C461 1.387 1_556 S
C460 H464 0.950 . S
C460 C469 1.390 . S
C461 C460 1.387 1_554 S
C461 C463 1.387 . S
H462 C469 0.950 . S
C463 C461 1.387 . S
C463 C465 1.390 . S
C463 H467 0.950 . S
H464 C460 0.950 . S
C465 C463 1.390 . S
C465 C466 1.387 1_554 S
C465 H468 0.950 . S
C466 C465 1.387 1_556 S
C466 C469 1.387 . S
H467 C463 0.950 . S
H468 C465 0.950 . S
C469 C460 1.390 . S
C469 H462 0.950 . S
C469 C466 1.387 . S
C470 C471 1.387 . S
C470 H474 0.950 . S
C470 C479 1.390 1_455 S
C471 C470 1.387 . S
C471 C473 1.387 . S
H472 C479 0.950 . S
C473 C471 1.387 . S
C473 C475 1.390 1_455 S
C473 H477 0.950 . S
H474 C470 0.950 . S
C475 C473 1.390 1_655 S
C475 C476 1.387 . S
C475 H478 0.950 . S
C476 C475 1.387 . S
C476 C479 1.387 . S
H477 C473 0.950 . S
H478 C475 0.950 . S
C479 C470 1.390 1_655 S
C479 H472 0.950 . S
C479 C476 1.387 . S
C480 C481 1.387 . S
C480 H484 0.950 . S
C480 C489 1.390 . S
C481 C480 1.387 . S
C481 C483 1.387 . S
H482 C489 0.950 . S
C483 C481 1.387 . S
C483 C485 1.390 . S
C483 H487 0.950 . S
H484 C480 0.950 . S
C485 C483 1.390 . S
C485 C486 1.387 . S
C485 H488 0.950 . S
C486 C485 1.387 . S
C486 C489 1.387 . S
H487 C483 0.950 . S
H488 C485 0.950 . S
C489 C480 1.390 . S
C489 H482 0.950 . S
C489 C486 1.387 . S
C490 C491 1.387 . S
C490 H494 0.950 . S
C490 C499 1.390 . S
C491 C490 1.387 . S
C491 C493 1.387 . S
H492 C499 0.950 . S
C493 C491 1.387 . S
C493 C495 1.390 . S
C493 H497 0.950 . S
H494 C490 0.950 . S
C495 C493 1.390 . S
C495 C496 1.387 . S
C495 H498 0.950 . S
C496 C495 1.387 . S
C496 C499 1.387 . S
H497 C493 0.950 . S
H498 C495 0.950 . S
C499 C490 1.390 . S
C499 H492 0.950 . S
C499 C496 1.387 . S
C500 C501 1.387 . S
C500 H504 0.950 . S
C500 C509 1.390 . S
C501 C500 1.387 . S
C501 C503 1.387 . S
H502 C509 0.950 . S
C503 C501 1.387 . S
C503 C505 1.390 . S
C503 H507 0.950 . S
H504 C500 0.950 . S
C505 C503 1.390 . S
C505 C506 1.387 . S
C505 H508 0.950 . S
C506 C505 1.387 . S
C506 C509 1.387 . S
H507 C503 0.950 . S
H508 C505 0.950 . S
C509 C500 1.390 . S
C509 H502 0.950 . S
C509 C506 1.387 . S
C510 C511 1.387 . S
C510 H514 0.950 . S
C510 C519 1.390 . S
C511 C510 1.387 . S
C511 C513 1.387 . S
H512 C519 0.950 . S
C513 C511 1.387 . S
C513 C515 1.390 . S
C513 H517 0.950 . S
H514 C510 0.950 . S
C515 C513 1.390 . S
C515 C516 1.387 . S
C515 H518 0.950 . S
C516 C515 1.387 . S
C516 C519 1.387 . S
H517 C513 0.950 . S
H518 C515 0.950 . S
C519 C510 1.390 . S
C519 H512 0.950 . S
C519 C516 1.387 . S
C520 C521 1.387 . S
C520 H524 0.950 . S
C520 C529 1.390 . S
C521 C520 1.387 . S
C521 C523 1.387 . S
H522 C529 0.950 . S
C523 C521 1.387 . S
C523 C525 1.390 . S
C523 H527 0.950 . S
H524 C520 0.950 . S
C525 C523 1.390 . S
C525 C526 1.387 . S
C525 H528 0.950 . S
C526 C525 1.387 . S
C526 C529 1.387 . S
H527 C523 0.950 . S
H528 C525 0.950 . S
C529 C520 1.390 . S
C529 H522 0.950 . S
C529 C526 1.387 . S
C530 C531 1.387 . S
C530 H534 0.950 . S
C530 C539 1.390 . S
C531 C530 1.387 . S
C531 C533 1.387 . S
H532 C539 0.950 . S
C533 C531 1.387 . S
C533 C535 1.390 . S
C533 H537 0.950 . S
H534 C530 0.950 . S
C535 C533 1.390 . S
C535 C536 1.387 . S
C535 H538 0.950 . S
C536 C535 1.387 . S
C536 C539 1.387 . S
H537 C533 0.950 . S
H538 C535 0.950 . S
C539 C530 1.390 . S
C539 H532 0.950 . S
C539 C536 1.387 . S
C540 C541 1.387 . S
C540 H544 0.950 . S
C540 C549 1.390 . S
C541 C540 1.387 . S
C541 C543 1.387 . S
H542 C549 0.950 . S
C543 C541 1.387 . S
C543 C545 1.390 . S
C543 H547 0.950 . S
H544 C540 0.950 . S
C545 C543 1.390 . S
C545 C546 1.387 . S
C545 H548 0.950 . S
C546 C545 1.387 . S
C546 C549 1.387 . S
H547 C543 0.950 . S
H548 C545 0.950 . S
C549 C540 1.390 . S
C549 H542 0.950 . S
C549 C546 1.387 . S
C550 C551 1.387 . S
C550 H554 0.950 . S
C550 C559 1.390 . S
C551 C550 1.387 . S
C551 C553 1.387 . S
H552 C559 0.950 . S
C553 C551 1.387 . S
C553 C555 1.390 . S
C553 H557 0.950 . S
H554 C550 0.950 . S
C555 C553 1.390 . S
C555 C556 1.387 . S
C555 H558 0.950 . S
C556 C555 1.387 . S
C556 C559 1.387 . S
H557 C553 0.950 . S
H558 C555 0.950 . S
C559 C550 1.390 . S
C559 H552 0.950 . S
C559 C556 1.387 . S
C560 C561 1.387 . S
C560 H564 0.950 . S
C560 C569 1.390 . S
C561 C560 1.387 . S
C561 C563 1.387 . S
H562 C569 0.950 . S
C563 C561 1.387 . S
C563 C565 1.390 . S
C563 H567 0.950 . S
H564 C560 0.950 . S
C565 C563 1.390 . S
C565 C566 1.387 . S
C565 H568 0.950 . S
C566 C565 1.387 . S
C566 C569 1.387 . S
H567 C563 0.950 . S
H568 C565 0.950 . S
C569 C560 1.390 . S
C569 H562 0.950 . S
C569 C566 1.387 . S
C570 C571 1.387 . S
C570 H574 0.950 . S
C570 C579 1.390 . S
C571 C570 1.387 . S
C571 C573 1.387 . S
H572 C579 0.950 . S
C573 C571 1.387 . S
C573 C575 1.390 . S
C573 H577 0.950 . S
H574 C570 0.950 . S
C575 C573 1.390 . S
C575 C576 1.387 . S
C575 H578 0.950 . S
C576 C575 1.387 . S
C576 C579 1.387 . S
H577 C573 0.950 . S
H578 C575 0.950 . S
C579 C570 1.390 . S
C579 H572 0.950 . S
C579 C576 1.387 . S
C580 C581 1.387 . S
C580 H584 0.950 . S
C580 C589 1.390 . S
C581 C580 1.387 . S
C581 C583 1.387 . S
H582 C589 0.950 . S
C583 C581 1.387 . S
C583 C585 1.390 . S
C583 H587 0.950 . S
H584 C580 0.950 . S
C585 C583 1.390 . S
C585 C586 1.387 . S
C585 H588 0.950 . S
C586 C585 1.387 . S
C586 C589 1.387 . S
H587 C583 0.950 . S
H588 C585 0.950 . S
C589 C580 1.390 . S
C589 H582 0.950 . S
C589 C586 1.387 . S
C590 C591 1.387 . S
C590 H594 0.950 . S
C590 C599 1.390 . S
C591 C590 1.387 . S
C591 C593 1.387 . S
H592 C599 0.950 . S
C593 C591 1.387 . S
C593 C595 1.390 . S
C593 H597 0.950 . S
H594 C590 0.950 . S
C595 C593 1.390 . S
C595 C596 1.387 . S
C595 H598 0.950 . S
C596 C595 1.387 . S
C596 C599 1.387 . S
H597 C593 0.950 . S
H598 C595 0.950 . S
C599 C590 1.390 . S
C599 H592 0.950 . S
C599 C596 1.387 . S
C241 C45 2.154 1_455 S
C246 C8 1.746 . S
C251 C65 2.155 1_565 S
C256 C28 1.750 . S
C261 C48 1.746 . S
C266 C85 2.154 . S
C271 C68 1.747 . S
C276 C105 2.154 1_455 S
C281 C5 2.155 1_565 S
C286 C88 1.747 . S
C291 C25 2.155 . S
C296 C108 1.750 . S
C301 C205 2.154 1_545 S
C306 C128 1.749 . S
C311 C148 1.746 . S
C316 C225 2.154 . S
C321 C168 1.749 . S
C326 C125 2.154 1_655 S
C331 C188 1.749 . S
C336 C145 2.154 1_545 S
C341 C208 1.751 . S
C346 C165 2.155 . S
C351 C185 2.154 1_655 S
C356 C228 1.748 . S
C361 C62 1.819 . S
C366 C2 1.818 . S
C371 C22 1.819 . S
C376 C82 1.817 . S
C381 C42 1.819 . S
C386 C102 1.817 . S
C391 C122 1.817 . S
C396 C182 1.819 . S
C401 C142 1.819 . S
C406 C202 1.817 . S
C411 C162 1.817 . S
C416 C222 1.819 . S
C421 C153 1.920 . S
C426 C13 1.920 . S
C431 C33 1.919 . S
C436 C173 1.917 . S
C441 C193 1.920 . S
C446 C53 1.919 . S
C451 C73 1.917 . S
C456 C213 1.917 . S
C461 C93 1.920 . S
C466 C233 1.919 . S
C471 C133 1.919 . S
C476 C113 1.918 . S
C481 C57 1.698 . S
C486 C14 1.836 . S
C491 C34 1.835 . S
C496 C77 1.700 . S
C501 C54 1.835 . S
C506 C97 1.700 . S
C511 C74 1.836 . S
C516 C117 1.698 . S
C521 C17 1.700 . S
C526 C94 1.835 . S
C531 C37 1.700 . S
C536 C114 1.835 . S
C541 C217 1.701 . S
C546 C134 1.835 . S
C551 C154 1.836 . S
C556 C237 1.698 . S
C561 C174 1.835 . S
C566 C137 1.700 . S
C571 C157 1.699 . S
C576 C194 1.837 . S
C581 C214 1.835 . S
C586 C177 1.702 . S
C591 C234 1.835 . S
C596 C197 1.701 . S
