# Generated by pormake.
# Topology ukh, (4)-cn, num edge types: 1
# Building blocks:
#     Node 0, Type 0, BuildingBlock: UXUYUI_clean_sbu_0, # of connection points: 4
#     Node 1, Type 0, BuildingBlock: UXUYUI_clean_sbu_0, # of connection points: 4
#     Node 2, Type 0, BuildingBlock: UXUYUI_clean_sbu_0, # of connection points: 4
#     Node 3, Type 0, BuildingBlock: UXUYUI_clean_sbu_0, # of connection points: 4
#     Node 4, Type 0, BuildingBlock: UXUYUI_clean_sbu_0, # of connection points: 4
#     Node 5, Type 0, BuildingBlock: UXUYUI_clean_sbu_0, # of connection points: 4
#     Node 6, Type 0, BuildingBlock: UXUYUI_clean_sbu_0, # of connection points: 4
#     Node 7, Type 0, BuildingBlock: UXUYUI_clean_sbu_0, # of connection points: 4
#     Node 8, Type 0, BuildingBlock: UXUYUI_clean_sbu_0, # of connection points: 4
#     Node 9, Type 0, BuildingBlock: UXUYUI_clean_sbu_0, # of connection points: 4
#     Node 10, Type 0, BuildingBlock: UXUYUI_clean_sbu_0, # of connection points: 4
#     Node 11, Type 0, BuildingBlock: UXUYUI_clean_sbu_0, # of connection points: 4
#     Edge 12, Type (0, 0), None
#     Edge 13, Type (0, 0), None
#     Edge 14, Type (0, 0), None
#     Edge 15, Type (0, 0), None
#     Edge 16, Type (0, 0), None
#     Edge 17, Type (0, 0), None
#     Edge 18, Type (0, 0), None
#     Edge 19, Type (0, 0), None
#     Edge 20, Type (0, 0), None
#     Edge 21, Type (0, 0), None
#     Edge 22, Type (0, 0), None
#     Edge 23, Type (0, 0), None
#     Edge 24, Type (0, 0), None
#     Edge 25, Type (0, 0), None
#     Edge 26, Type (0, 0), None
#     Edge 27, Type (0, 0), None
#     Edge 28, Type (0, 0), None
#     Edge 29, Type (0, 0), None
#     Edge 30, Type (0, 0), None
#     Edge 31, Type (0, 0), None
#     Edge 32, Type (0, 0), None
#     Edge 33, Type (0, 0), None
#     Edge 34, Type (0, 0), None
#     Edge 35, Type (0, 0), None
# Relax obj value: 0.278
# Max RMSD: 0.251
# Mean RMSD: 0.251
data_MOF--net-ukh--node1-UXUYUI_clean_sbu_0--edge1-none
_symmetry_space_group_name_H-M    P1
_symmetry_Int_Tables_number       1
_symmetry_cell_setting            triclinic
loop_
_symmetry_equiv_pos_as_xyz
'x, y, z'
_cell_length_a     28.926193
_cell_length_b     28.918447
_cell_length_c     56.401628
_cell_angle_alpha  89.992311
_cell_angle_beta   90.00674
_cell_angle_gamma 120.00089
loop_
_atom_site_label
_atom_site_type_symbol
_atom_site_fract_x
_atom_site_fract_y
_atom_site_fract_z
_atom_type_partial_charge
Li0 Li 0.37969 0.28602 0.04413 0.0
Li1 Li 0.33211 0.21344 0.07558 0.0
Li2 Li 0.34795 0.19165 0.0362 0.0
Li3 Li 0.28508 0.22121 0.04096 0.0
C4 C 0.43641 0.21771 0.0611 0.0
N5 N 0.50208 0.17378 0.06307 0.0
C6 C 0.43897 0.19227 0.08174 0.0
C7 C 0.4679 0.22142 0.04159 0.0
C8 C 0.47226 0.17018 0.08236 0.0
C9 C 0.50062 0.19875 0.04289 0.0
C10 C 0.28015 0.2806 0.07446 0.0
C11 C 0.19742 0.24825 0.09583 0.0
N12 N 0.19425 0.29121 0.08822 0.0
C13 C 0.27616 0.3245 0.06689 0.0
C14 C 0.24054 0.24216 0.08907 0.0
C15 C 0.23239 0.32911 0.07403 0.0
C16 C 0.40565 0.38793 0.02922 0.0
N17 N 0.42755 0.36062 0.03932 0.0
C18 C 0.50975 0.44198 0.04569 0.0
C19 C 0.47879 0.38625 0.04728 0.0
C20 C 0.48727 0.47139 0.03627 0.0
C21 C 0.43471 0.44361 0.02773 0.0
H22 H 0.36492 0.36639 0.02289 0.0
H23 H 0.4951 0.36359 0.05539 0.0
C24 C 0.30565 0.14452 0.11475 0.0
N25 N 0.32889 0.19666 0.10828 0.0
C26 C 0.30475 0.13062 0.13852 0.0
C27 C 0.35199 0.22448 0.14852 0.0
C28 C 0.35173 0.23653 0.12454 0.0
C29 C 0.32841 0.17084 0.15581 0.0
H30 H 0.28851 0.11376 0.10138 0.0
H31 H 0.37043 0.2777 0.1188 0.0
C32 C 0.36329 0.25598 0.99453 0.0
N33 N 0.41023 0.28078 0.95021 0.0
C34 C 0.33157 0.24089 0.97414 0.0
C35 C 0.41882 0.28448 0.99239 0.0
C36 C 0.35607 0.25354 0.95189 0.0
C37 C 0.44182 0.29644 0.96983 0.0
C38 C 0.24327 0.11113 0.04295 0.0
C39 C 0.2328 0.1139 0.01894 0.0
C40 C 0.2176 0.06173 0.05451 0.0
C41 C 0.19689 0.06739 0.00694 0.0
C42 C 0.18202 0.01604 0.04186 0.0
N43 N 0.17249 0.01979 0.01853 0.0
C44 C 0.3534 0.09767 0.03586 0.0
C45 C 0.34308 0.12454 0.99755 0.0
C46 C 0.33847 0.04654 0.02758 0.0
N47 N 0.3539 0.13501 0.02102 0.0
C48 C 0.32664 0.07353 0.98863 0.0
C49 C 0.32182 0.03277 0.00392 0.0
H50 H 0.35987 0.10587 0.05463 0.0
H51 H 0.3417 0.15371 0.98616 0.0
C52 C 0.23045 0.25344 0.01159 0.0
N53 N 0.22207 0.21775 0.02905 0.0
C54 C 0.18745 0.25322 0.0004 0.0
C55 C 0.12768 0.18019 0.0258 0.0
C56 C 0.17205 0.1817 0.03648 0.0
C57 C 0.13515 0.21611 0.00737 0.0
H58 H 0.27076 0.28176 0.00616 0.0
H59 H 0.16666 0.15394 0.05051 0.0
O60 O 0.40377 0.23936 0.0602 0.0
O61 O 0.32164 0.27423 0.06702 0.0
O62 O 0.33977 0.24433 0.01642 0.0
O63 O 0.28018 0.1559 0.05483 0.0
H64 H 0.41559 0.18958 0.09715 0.0
H65 H 0.46666 0.24087 0.02547 0.0
H66 H 0.4744 0.1502 0.09818 0.0
H67 H 0.52481 0.20095 0.02783 0.0
H68 H 0.16634 0.21867 0.10704 0.0
H69 H 0.30632 0.35457 0.05556 0.0
H70 H 0.2426 0.20756 0.09482 0.0
H71 H 0.22869 0.36279 0.06825 0.0
H72 H 0.55012 0.46203 0.05257 0.0
H73 H 0.41618 0.46477 0.02013 0.0
H74 H 0.28553 0.08877 0.14327 0.0
H75 H 0.37146 0.2569 0.16111 0.0
H76 H 0.28846 0.21927 0.97548 0.0
H77 H 0.44393 0.29784 0.00795 0.0
H78 H 0.33202 0.24176 0.93596 0.0
H79 H 0.48479 0.31839 0.96792 0.0
H80 H 0.25276 0.15139 0.00951 0.0
H81 H 0.22532 0.0585 0.07301 0.0
H82 H 0.18874 0.06916 0.98836 0.0
H83 H 0.1621 0.97756 0.05057 0.0
H84 H 0.33668 0.01726 0.04006 0.0
H85 H 0.31346 0.06538 0.97039 0.0
H86 H 0.19517 0.28123 0.98613 0.0
H87 H 0.08808 0.1515 0.03201 0.0
Li88 Li 0.09452 0.37835 0.3758 0.0
Li89 Li 0.12167 0.33394 0.4088 0.0
Li90 Li 0.16065 0.34643 0.36909 0.0
Li91 Li 0.06833 0.28516 0.37402 0.0
C92 C 0.21672 0.44308 0.38714 0.0
N93 N 0.31999 0.52119 0.37675 0.0
C94 C 0.25782 0.45467 0.40324 0.0
C95 C 0.22796 0.4713 0.36582 0.0
C96 C 0.30983 0.49429 0.39763 0.0
C97 C 0.28049 0.51063 0.36088 0.0
C98 C 0.00406 0.2841 0.40998 0.0
C99 C 0.95527 0.20204 0.432 0.0
N100 N 0.91118 0.2074 0.43138 0.0
C101 C 0.95836 0.28898 0.40967 0.0
C102 C 1.00262 0.24046 0.42132 0.0
C103 C 0.91176 0.24972 0.42055 0.0
C104 C 0.01483 0.40202 0.36469 0.0
N105 N 0.06743 0.426 0.37052 0.0
C106 C 0.07203 0.51087 0.37295 0.0
C107 C 0.09642 0.4795 0.37448 0.0
C108 C 0.01722 0.4868 0.36758 0.0
C109 C 0.98884 0.43166 0.36313 0.0
H110 H 0.99262 0.35937 0.36177 0.0
H111 H 0.13798 0.49756 0.37949 0.0
C112 C 0.17969 0.32706 0.44681 0.0
N113 N 0.13749 0.3335 0.44137 0.0
C114 C 0.19372 0.32629 0.47042 0.0
C115 C 0.12115 0.33991 0.48241 0.0
C116 C 0.10832 0.34006 0.45853 0.0
C117 C 0.16432 0.33276 0.48867 0.0
H118 H 0.2023 0.32222 0.43272 0.0
H119 H 0.07527 0.34564 0.45365 0.0
C120 C 0.07516 0.31287 0.32852 0.0
N121 N 0.01717 0.25514 0.2895 0.0
C122 C 0.08152 0.27125 0.31963 0.0
C123 C 0.04003 0.32575 0.31726 0.0
C124 C 0.05163 0.24235 0.29998 0.0
C125 C 0.0109 0.29595 0.29762 0.0
C126 C 0.13499 0.23911 0.39004 0.0
C127 C 0.15405 0.22412 0.37039 0.0
C128 C 0.12451 0.21019 0.41115 0.0
C129 C 0.16227 0.18058 0.37221 0.0
C130 C 0.13297 0.16671 0.41222 0.0
N131 N 0.15159 0.15298 0.3929 0.0
C132 C 0.2604 0.35347 0.37025 0.0
C133 C 0.22573 0.34571 0.33151 0.0
C134 C 0.29747 0.3396 0.36212 0.0
N135 N 0.22424 0.35422 0.3551 0.0
C136 C 0.26121 0.33032 0.3227 0.0
C137 C 0.29613 0.32451 0.3383 0.0
H138 H 0.25736 0.35885 0.38904 0.0
H139 H 0.19595 0.34564 0.31991 0.0
C140 C 0.96591 0.22515 0.3563 0.0
N141 N 0.00845 0.22033 0.36297 0.0
C142 C 0.92231 0.18305 0.34508 0.0
C143 C 0.96628 0.1309 0.34823 0.0
C144 C 0.00919 0.17419 0.35944 0.0
C145 C 0.9223 0.13527 0.34069 0.0
H146 H 0.96683 0.26262 0.35891 0.0
H147 H 0.04348 0.17127 0.36466 0.0
O148 O 0.16577 0.40379 0.39206 0.0
O149 O 0.04993 0.32163 0.39914 0.0
O150 O 0.10306 0.3408 0.34814 0.0
O151 O 0.12827 0.28278 0.38896 0.0
H152 H 0.24966 0.43304 0.4198 0.0
H153 H 0.19648 0.46257 0.35316 0.0
H154 H 0.34213 0.50358 0.40987 0.0
H155 H 0.28987 0.53269 0.34441 0.0
H156 H 0.95357 0.16793 0.44075 0.0
H157 H 0.95881 0.32271 0.40118 0.0
H158 H 0.03759 0.23615 0.42172 0.0
H159 H 0.87607 0.25291 0.4204 0.0
H160 H 0.09539 0.55315 0.37681 0.0
H161 H 0.94679 0.41146 0.35868 0.0
H162 H 0.2268 0.31996 0.47431 0.0
H163 H 0.09789 0.34601 0.49579 0.0
H164 H 0.10843 0.26066 0.32808 0.0
H165 H 0.03525 0.35838 0.32359 0.0
H166 H 0.05569 0.20961 0.29314 0.0
H167 H 0.98331 0.30528 0.28884 0.0
H168 H 0.16248 0.24571 0.3539 0.0
H169 H 0.11029 0.2213 0.42665 0.0
H170 H 0.17727 0.1688 0.35719 0.0
H171 H 0.12497 0.14404 0.42846 0.0
H172 H 0.32428 0.33716 0.37478 0.0
H173 H 0.25767 0.31864 0.30428 0.0
H174 H 0.88965 0.1885 0.33929 0.0
H175 H 0.96756 0.09451 0.34545 0.0
Li176 Li 0.79087 0.12074 0.74237 0.0
Li177 Li 0.71783 0.09465 0.7108 0.0
Li178 Li 0.78261 0.06447 0.70787 0.0
Li179 Li 0.81218 0.15702 0.70277 0.0
C180 C 0.72339 1.00117 0.74164 0.0
N181 N 0.71251 0.90467 0.75568 0.0
C182 C 0.67904 0.95326 0.73443 0.0
C183 C 0.76215 1.00002 0.75603 0.0
C184 C 0.67429 0.90488 0.7417 0.0
C185 C 0.75592 0.95082 0.76294 0.0
C186 C 0.78481 0.21981 0.72634 0.0
C187 C 0.80194 0.30042 0.70613 0.0
N188 N 0.82613 0.32913 0.72597 0.0
C189 C 0.80936 0.25008 0.7466 0.0
C190 C 0.78057 0.24511 0.70601 0.0
C191 C 0.83017 0.30529 0.74603 0.0
C192 C 0.85984 0.17268 0.78055 0.0
N193 N 0.80877 0.13581 0.7749 0.0
C194 C 0.78375 0.12404 0.81576 0.0
C195 C 0.7708 0.11142 0.79186 0.0
C196 C 0.83628 0.16217 0.82221 0.0
C197 C 0.87458 0.18648 0.80419 0.0
H198 H 0.88892 0.19199 0.76661 0.0
H199 H 0.73036 0.08256 0.78679 0.0
C200 C 0.61596 0.0184 0.69601 0.0
N201 N 0.64326 0.0678 0.70594 0.0
C202 C 0.56028 0.99172 0.69457 0.0
C203 C 0.5619 0.06866 0.71222 0.0
C204 C 0.61764 0.09352 0.71375 0.0
C205 C 0.53249 0.01659 0.70299 0.0
H206 H 0.63749 0.99911 0.6898 0.0
H207 H 0.6403 0.13264 0.72174 0.0
C208 C 0.89393 0.13517 0.71064 0.0
N209 N 0.98835 0.16047 0.68784 0.0
C210 C 0.89349 0.12105 0.6869 0.0
C211 C 0.9425 0.1621 0.72279 0.0
C212 C 0.94157 0.13412 0.67571 0.0
C213 C 0.98979 0.17458 0.71094 0.0
C214 C 0.74874 0.10562 0.66082 0.0
C215 C 0.76596 0.08856 0.64126 0.0
C216 C 0.7189 0.13092 0.65728 0.0
C217 C 0.75407 0.09825 0.61843 0.0
C218 C 0.70777 0.13983 0.63417 0.0
N219 N 0.7255 0.12352 0.61539 0.0
C220 C 0.74979 0.97677 0.67902 0.0
C221 C 0.82243 0.99116 0.70351 0.0
C222 C 0.75001 0.9339 0.66791 0.0
N223 N 0.78597 0.00469 0.69622 0.0
C224 C 0.82388 0.94815 0.69295 0.0
C225 C 0.78755 0.91915 0.67472 0.0
H226 H 0.72115 0.98841 0.67369 0.0
H227 H 0.85058 0.01402 0.71734 0.0
C228 C 0.90595 0.25669 0.7022 0.0
N229 N 0.86889 0.2193 0.68745 0.0
C230 C 0.95713 0.29275 0.69393 0.0
C231 C 0.93061 0.25284 0.65515 0.0
C232 C 0.8796 0.21832 0.66406 0.0
C233 C 0.97113 0.28931 0.67038 0.0
H234 H 0.89748 0.25549 0.72092 0.0
H235 H 0.85061 0.1874 0.65275 0.0
O236 O 0.72987 0.049 0.73408 0.0
O237 O 0.76452 0.1657 0.7266 0.0
O238 O 0.8475 0.12499 0.72162 0.0
O239 O 0.75955 0.09578 0.68327 0.0
H240 H 0.64871 0.95334 0.72327 0.0
H241 H 0.7971 0.03671 0.76151 0.0
H242 H 0.64026 0.86749 0.73619 0.0
H243 H 0.78573 0.94934 0.77398 0.0
H244 H 0.79936 0.32053 0.69044 0.0
H245 H 0.81224 0.2312 0.76263 0.0
H246 H 0.76175 0.22255 0.69018 0.0
H247 H 0.84947 0.32919 0.76156 0.0
H248 H 0.75269 0.10486 0.82898 0.0
H249 H 0.91561 0.21564 0.80829 0.0
H250 H 0.53914 0.95189 0.68711 0.0
H251 H 0.54187 0.08906 0.71902 0.0
H252 H 0.85654 0.10112 0.67705 0.0
H253 H 0.9438 0.17366 0.74111 0.0
H254 H 0.94166 0.12362 0.65732 0.0
H255 H 0.02767 0.19566 0.72009 0.0
H256 H 0.78863 0.06839 0.64368 0.0
H257 H 0.70392 0.14297 0.67218 0.0
H258 H 0.76748 0.08563 0.60313 0.0
H259 H 0.68481 0.15948 0.63118 0.0
H260 H 0.72168 0.91326 0.65379 0.0
H261 H 0.8529 0.93762 0.69907 0.0
H262 H 0.98628 0.32062 0.70634 0.0
H263 H 0.939 0.2474 0.63699 0.0
Li264 Li 0.67292 0.78904 0.07483 0.0
Li265 Li 0.62544 0.71621 0.04342 0.0
Li266 Li 0.72003 0.78103 0.04021 0.0
Li267 Li 0.6571 0.81051 0.03538 0.0
C268 C 0.72507 0.72194 0.07381 0.0
N269 N 0.81111 0.71154 0.08757 0.0
C270 C 0.72908 0.67802 0.06631 0.0
C271 C 0.76474 0.7605 0.08837 0.0
C272 C 0.77292 0.67351 0.07344 0.0
C273 C 0.80792 0.75452 0.09513 0.0
C274 C 0.56824 0.78406 0.06005 0.0
C275 C 0.50446 0.80295 0.04132 0.0
N276 N 0.50173 0.82708 0.06154 0.0
C277 C 0.56436 0.8086 0.08073 0.0
C278 C 0.53761 0.78073 0.04026 0.0
C279 C 0.53068 0.83026 0.0811 0.0
C280 C 0.69558 0.85859 0.11331 0.0
N281 N 0.67633 0.80659 0.10741 0.0
C282 C 0.65813 0.78041 0.14805 0.0
C283 C 0.65787 0.76759 0.12413 0.0
C284 C 0.67764 0.83391 0.15476 0.0
C285 C 0.69679 0.87325 0.13698 0.0
H286 H 0.7092 0.88857 0.09956 0.0
H287 H 0.64231 0.72648 0.11884 0.0
C288 C 0.59938 0.61407 0.02877 0.0
N289 N 0.57757 0.64156 0.03877 0.0
C290 C 0.57031 0.55836 0.0275 0.0
C291 C 0.49544 0.56032 0.04544 0.0
C292 C 0.52641 0.61608 0.04681 0.0
C293 C 0.51783 0.53074 0.03615 0.0
H294 H 0.64006 0.63548 0.02237 0.0
H295 H 0.51018 0.6389 0.05485 0.0
C296 C 0.76162 0.89141 0.04239 0.0
N297 N 0.8322 0.98362 0.01846 0.0
C298 C 0.77278 0.88932 0.01842 0.0
C299 C 0.78653 0.94054 0.05418 0.0
C300 C 0.80857 0.93628 0.00666 0.0
C301 C 0.82202 0.98668 0.04177 0.0
C302 C 0.64221 0.74633 0.99371 0.0
C303 C 0.67428 0.76198 0.97342 0.0
C304 C 0.58671 0.71742 0.99138 0.0
C305 C 0.65017 0.74949 0.95109 0.0
C306 C 0.56411 0.70565 0.96873 0.0
N307 N 0.59604 0.72187 0.94923 0.0
C308 C 0.77493 0.74897 0.01092 0.0
C309 C 0.83307 0.82078 0.03583 0.0
C310 C 0.81804 0.7493 0.9998 0.0
N311 N 0.78313 0.78463 0.02836 0.0
C312 C 0.87755 0.8224 0.02523 0.0
C313 C 0.87028 0.78651 0.00682 0.0
H314 H 0.73467 0.72058 0.00545 0.0
H315 H 0.83832 0.84852 0.04984 0.0
C316 C 0.65147 0.90436 0.03511 0.0
N317 N 0.65126 0.86723 0.02022 0.0
C318 C 0.66656 0.95561 0.02692 0.0
C319 C 0.67906 0.92913 0.98798 0.0
C320 C 0.66247 0.878 0.9968 0.0
C321 C 0.68362 0.96969 0.00333 0.0
H322 H 0.64464 0.89589 0.05384 0.0
H323 H 0.66406 0.84898 0.98539 0.0
O324 O 0.6835 0.7282 0.06639 0.0
O325 O 0.60128 0.76288 0.0594 0.0
O326 O 0.7248 0.8462 0.05401 0.0
O327 O 0.66535 0.75778 0.01568 0.0
H328 H 0.69888 0.64786 0.05502 0.0
H329 H 0.76266 0.79513 0.09408 0.0
H330 H 0.77664 0.63982 0.06769 0.0
H331 H 0.83904 0.78419 0.10628 0.0
H332 H 0.48095 0.80107 0.02605 0.0
H333 H 0.58696 0.81084 0.09636 0.0
H334 H 0.5399 0.76199 0.02411 0.0
H335 H 0.52751 0.84954 0.09695 0.0
H336 H 0.64221 0.74861 0.16105 0.0
H337 H 0.71278 0.91501 0.14127 0.0
H338 H 0.58877 0.53705 0.01999 0.0
H339 H 0.45514 0.54041 0.0524 0.0
H340 H 0.75339 0.852 0.00883 0.0
H341 H 0.7783 0.94317 0.07267 0.0
H342 H 0.81724 0.93507 0.9881 0.0
H343 H 0.84135 0.02496 0.05065 0.0
H344 H 0.71736 0.7839 0.97492 0.0
H345 H 0.56134 0.70362 0.00684 0.0
H346 H 0.67449 0.76171 0.93524 0.0
H347 H 0.52119 0.6834 0.96667 0.0
H348 H 0.81047 0.72131 0.98554 0.0
H349 H 0.91709 0.85115 0.03147 0.0
H350 H 0.66816 0.98473 0.03944 0.0
H351 H 0.69255 0.93753 0.96978 0.0
Li352 Li 0.91596 0.62988 0.37659 0.0
Li353 Li 0.88917 0.67355 0.41024 0.0
Li354 Li 0.8513 0.66407 0.37013 0.0
Li355 Li 0.94427 0.72303 0.37627 0.0
C356 C 0.79379 0.56578 0.38669 0.0
N357 N 0.69167 0.48767 0.3746 0.0
C358 C 0.75108 0.55435 0.40178 0.0
C359 C 0.78475 0.53741 0.36553 0.0
C360 C 0.69968 0.51473 0.39533 0.0
C361 C 0.73276 0.49808 0.35972 0.0
C362 C 0.01024 0.72158 0.4086 0.0
C363 C 0.06766 0.80241 0.43014 0.0
N364 N 0.11089 0.79931 0.42292 0.0
C365 C 0.05517 0.71885 0.40162 0.0
C366 C 0.01646 0.76338 0.42316 0.0
C367 C 0.10574 0.75866 0.40896 0.0
C368 C 0.98876 0.60059 0.35962 0.0
N369 N 0.94061 0.5806 0.37056 0.0
C370 C 0.93865 0.49818 0.37806 0.0
C371 C 0.91502 0.53019 0.3795 0.0
C372 C 0.98937 0.5185 0.36758 0.0
C373 C 0.01399 0.5702 0.35796 0.0
H374 H 0.00867 0.6411 0.353 0.0
H375 H 0.87725 0.51559 0.38854 0.0
C376 C 0.83001 0.67977 0.44789 0.0
N377 N 0.87178 0.67247 0.44266 0.0
C378 C 0.81522 0.67993 0.47144 0.0
C379 C 0.88612 0.66397 0.48373 0.0
C380 C 0.89977 0.66449 0.45992 0.0
C381 C 0.84341 0.67201 0.4898 0.0
H382 H 0.80845 0.6859 0.43371 0.0
H383 H 0.93259 0.65842 0.45518 0.0
C384 C 0.93198 0.69829 0.32932 0.0
N385 N 0.97905 0.75653 0.28872 0.0
C386 C 0.92763 0.7431 0.3238 0.0
C387 C 0.95967 0.68269 0.314 0.0
C388 C 0.95188 0.77215 0.30326 0.0
C389 C 0.98333 0.71276 0.2936 0.0
C390 C 0.88198 0.77187 0.3941 0.0
C391 C 0.86128 0.79031 0.37641 0.0
C392 C 0.89863 0.79947 0.4156 0.0
C393 C 0.85784 0.83614 0.38051 0.0
C394 C 0.89488 0.84534 0.41894 0.0
N395 N 0.87467 0.86253 0.40149 0.0
C396 C 0.75222 0.65936 0.37051 0.0
C397 C 0.78903 0.66863 0.33216 0.0
C398 C 0.71571 0.67373 0.36206 0.0
N399 N 0.7891 0.65895 0.35571 0.0
C400 C 0.75436 0.68477 0.32308 0.0
C401 C 0.71843 0.68991 0.33829 0.0
H402 H 0.75394 0.65281 0.38929 0.0
H403 H 0.81894 0.66844 0.32077 0.0
C404 C 0.04206 0.78071 0.35394 0.0
N405 N 0.00516 0.78797 0.36568 0.0
C406 C 0.08488 0.82327 0.34257 0.0
C407 C 0.05287 0.88119 0.35656 0.0
C408 C 0.0101 0.83714 0.36746 0.0
C409 C 0.0906 0.87441 0.34358 0.0
H410 H 0.037 0.74114 0.35265 0.0
H411 H 0.98052 0.84225 0.37688 0.0
O412 O 0.8442 0.60505 0.39244 0.0
O413 O 0.9604 0.68372 0.40119 0.0
O414 O 0.90952 0.66995 0.34965 0.0
O415 O 0.88419 0.72608 0.39077 0.0
H416 H 0.75755 0.57611 0.41821 0.0
H417 H 0.81751 0.546 0.35367 0.0
H418 H 0.66616 0.50556 0.40677 0.0
H419 H 0.72508 0.47589 0.34336 0.0
H420 H 0.07303 0.83517 0.4413 0.0
H421 H 0.05118 0.68655 0.39056 0.0
H422 H 0.98211 0.76572 0.42893 0.0
H423 H 0.14088 0.75723 0.40355 0.0
H424 H 0.91842 0.45878 0.38598 0.0
H425 H 0.05274 0.58734 0.34953 0.0
H426 H 0.78257 0.68701 0.47518 0.0
H427 H 0.90847 0.65678 0.4972 0.0
H428 H 0.90654 0.75584 0.33548 0.0
H429 H 0.96287 0.64774 0.31781 0.0
H430 H 0.94924 0.8072 0.29893 0.0
H431 H 0.0051 0.70128 0.28165 0.0
H432 H 0.84761 0.7694 0.35974 0.0
H433 H 0.91389 0.78549 0.42967 0.0
H434 H 0.8415 0.85057 0.36708 0.0
H435 H 0.90772 0.86708 0.43549 0.0
H436 H 0.688 0.67526 0.37446 0.0
H437 H 0.75912 0.69713 0.30473 0.0
H438 H 0.11226 0.81565 0.33252 0.0
H439 H 0.05618 0.92003 0.35823 0.0
Li440 Li 0.2878 0.90964 0.71073 0.0
Li441 Li 0.21485 0.88374 0.74233 0.0
Li442 Li 0.19342 0.84711 0.7028 0.0
Li443 Li 0.22292 0.93968 0.7077 0.0
C444 C 0.22113 0.78466 0.72648 0.0
N445 N 0.18019 0.6754 0.7263 0.0
C446 C 0.19684 0.75453 0.74681 0.0
C447 C 0.22529 0.75925 0.70618 0.0
C448 C 0.17623 0.69934 0.74634 0.0
C449 C 0.20412 0.70397 0.7064 0.0
C450 C 0.28215 0.00331 0.74138 0.0
C451 C 0.24955 0.05367 0.76261 0.0
N452 N 0.2928 0.09982 0.75522 0.0
C453 C 0.32633 0.05121 0.73405 0.0
C454 C 0.24344 0.00447 0.7558 0.0
C455 C 0.33097 0.0996 0.74122 0.0
C456 C 0.38967 0.98584 0.6959 0.0
N457 N 0.36236 0.93649 0.70587 0.0
C458 C 0.44372 0.93568 0.71227 0.0
C459 C 0.38798 0.91082 0.71376 0.0
C460 C 0.47314 0.9877 0.70298 0.0
C461 C 0.44535 0.01252 0.69448 0.0
H462 H 0.36815 0.00509 0.68963 0.0
H463 H 0.36531 0.87175 0.7218 0.0
C464 C 0.14604 0.83183 0.78054 0.0
N465 N 0.19708 0.86876 0.77487 0.0
C466 C 0.13142 0.81786 0.80418 0.0
C467 C 0.2223 0.88026 0.81571 0.0
C468 C 0.23513 0.89307 0.79181 0.0
C469 C 0.16981 0.84203 0.82218 0.0
H470 H 0.11691 0.81256 0.76662 0.0
H471 H 0.27554 0.92195 0.78672 0.0
C472 C 0.25659 0.89808 0.66075 0.0
N473 N 0.27954 0.87971 0.61535 0.0
C474 C 0.2391 0.9148 0.64116 0.0
C475 C 0.28655 0.8729 0.65726 0.0
C476 C 0.25086 0.90486 0.61835 0.0
C477 C 0.29753 0.86374 0.63417 0.0
C478 C 0.11161 0.86892 0.71061 0.0
C479 C 0.11191 0.88279 0.68684 0.0
C480 C 0.0631 0.84204 0.7228 0.0
C481 C 0.06375 0.86953 0.67566 0.0
C482 C 0.01573 0.82936 0.71097 0.0
N483 N 0.01703 0.84323 0.68784 0.0
C484 C 0.09978 0.74738 0.70251 0.0
C485 C 0.12565 0.78532 0.66427 0.0
C486 C 0.04851 0.71119 0.69438 0.0
N487 N 0.13665 0.78462 0.68764 0.0
C488 C 0.07453 0.75068 0.6555 0.0
C489 C 0.03422 0.71436 0.67085 0.0
H490 H 0.10847 0.7488 0.72122 0.0
H491 H 0.15449 0.81613 0.65288 0.0
C492 C 0.25554 0.02704 0.67864 0.0
N493 N 0.21945 0.99931 0.6959 0.0
C494 C 0.25522 0.06973 0.66741 0.0
C495 C 0.18144 0.05572 0.69245 0.0
C496 C 0.18299 0.01288 0.70314 0.0
C497 C 0.21766 0.08451 0.67416 0.0
H498 H 0.28419 0.01537 0.67336 0.0
H499 H 0.15491 0.99017 0.71701 0.0
O500 O 0.24122 0.83874 0.72665 0.0
O501 O 0.27577 0.95546 0.73392 0.0
O502 O 0.24594 0.90818 0.68319 0.0
O503 O 0.15812 0.87927 0.72157 0.0
H504 H 0.19403 0.77351 0.76282 0.0
H505 H 0.24389 0.7817 0.6903 0.0
H506 H 0.15714 0.67556 0.76192 0.0
H507 H 0.20664 0.68378 0.69073 0.0
H508 H 0.21976 0.05517 0.77366 0.0
H509 H 0.35662 0.05113 0.72287 0.0
H510 H 0.20861 0.96778 0.76138 0.0
H511 H 0.36487 0.13699 0.73561 0.0
H512 H 0.46375 0.91532 0.71912 0.0
H513 H 0.46651 0.05231 0.68697 0.0
H514 H 0.09042 0.78864 0.80829 0.0
H515 H 0.25343 0.89935 0.8289 0.0
H516 H 0.21635 0.93489 0.64354 0.0
H517 H 0.30174 0.86113 0.67218 0.0
H518 H 0.23724 0.91722 0.60302 0.0
H519 H 0.32058 0.84418 0.63121 0.0
H520 H 0.14881 0.90268 0.67695 0.0
H521 H 0.06191 0.83066 0.74115 0.0
H522 H 0.06355 0.87982 0.65725 0.0
H523 H 0.9779 0.80832 0.72016 0.0
H524 H 0.01952 0.68346 0.70688 0.0
H525 H 0.06592 0.7559 0.63735 0.0
H526 H 0.28347 0.09022 0.65325 0.0
H527 H 0.15241 0.06629 0.69852 0.0
Li528 Li 0.78472 0.72365 0.62983 0.0
Li529 Li 0.81665 0.66209 0.63417 0.0
Li530 Li 0.78657 0.67328 0.59528 0.0
Li531 Li 0.71794 0.62784 0.62819 0.0
C532 C 0.88528 0.7755 0.60782 0.0
N533 N 0.96391 0.87641 0.5944 0.0
C534 C 0.93511 0.7995 0.61897 0.0
C535 C 0.87554 0.80257 0.58975 0.0
C536 C 0.97433 0.85061 0.61194 0.0
C537 C 0.91577 0.85364 0.58326 0.0
C538 C 0.7699 0.69772 0.67512 0.0
C539 C 0.72999 0.72193 0.70676 0.0
N540 N 0.77937 0.76059 0.71378 0.0
C541 C 0.8203 0.73752 0.68274 0.0
C542 C 0.72437 0.68963 0.68729 0.0
C543 C 0.82424 0.76892 0.70229 0.0
C544 C 0.74245 0.78571 0.64518 0.0
N545 N 0.78997 0.7884 0.64099 0.0
C546 C 0.83718 0.87585 0.65788 0.0
C547 C 0.83696 0.83236 0.64701 0.0
C548 C 0.78859 0.87386 0.66278 0.0
C549 C 0.74078 0.82804 0.65614 0.0
H550 H 0.70569 0.74976 0.6407 0.0
H551 H 0.87419 0.83307 0.64425 0.0
C552 C 0.91163 0.66009 0.63164 0.0
N553 N 0.87452 0.65664 0.64742 0.0
C554 C 0.9629 0.67389 0.63924 0.0
C555 C 0.93626 0.67836 0.67936 0.0
C556 C 0.88501 0.66301 0.67103 0.0
C557 C 0.97691 0.68629 0.66324 0.0
H558 H 0.90278 0.65633 0.61287 0.0
H559 H 0.85506 0.66068 0.6832 0.0
C560 C 0.70157 0.69622 0.5894 0.0
N561 N 0.64639 0.71674 0.55492 0.0
C562 C 0.65485 0.6544 0.57971 0.0
C563 C 0.71986 0.74855 0.58181 0.0
C564 C 0.62763 0.66557 0.56222 0.0
C565 C 0.6915 0.75808 0.56428 0.0
C566 C 0.77829 0.56629 0.61537 0.0
C567 C 0.80947 0.55836 0.59875 0.0
C568 C 0.76242 0.53605 0.63618 0.0
C569 C 0.82466 0.52034 0.60334 0.0
C570 C 0.77843 0.49841 0.64011 0.0
N571 N 0.80898 0.49143 0.62375 0.0
C572 C 0.85366 0.69448 0.55627 0.0
C573 C 0.76218 0.65157 0.54578 0.0
C574 C 0.86822 0.69476 0.53268 0.0
N575 N 0.8015 0.6737 0.56233 0.0
C576 C 0.77492 0.65068 0.52192 0.0
C577 C 0.82865 0.67254 0.51507 0.0
H578 H 0.88411 0.71049 0.56984 0.0
H579 H 0.72091 0.63371 0.5511 0.0
C580 C 0.6145 0.60232 0.64066 0.0
N581 N 0.64347 0.57957 0.63352 0.0
C582 C 0.55885 0.57205 0.64208 0.0
C583 C 0.56357 0.49513 0.6288 0.0
C584 C 0.61931 0.52694 0.62774 0.0
C585 C 0.53233 0.51772 0.6358 0.0
H586 H 0.63461 0.64459 0.64455 0.0
H587 H 0.64311 0.51009 0.6215 0.0
O588 O 0.84657 0.72541 0.6144 0.0
O589 O 0.76517 0.66744 0.65564 0.0
O590 O 0.72846 0.6861 0.60668 0.0
O591 O 0.76387 0.60396 0.61142 0.0
H592 H 0.94329 0.77897 0.63298 0.0
H593 H 0.83749 0.78415 0.58072 0.0
H594 H 0.01305 0.86977 0.62039 0.0
H595 H 0.90879 0.8751 0.56931 0.0
H596 H 0.69507 0.71627 0.71628 0.0
H597 H 0.85592 0.74502 0.67326 0.0
H598 H 0.68512 0.65884 0.68174 0.0
H599 H 0.86294 0.8002 0.70822 0.0
H600 H 0.87502 0.9105 0.66248 0.0
H601 H 0.70233 0.82422 0.65994 0.0
H602 H 0.99207 0.67805 0.62614 0.0
H603 H 0.9446 0.68795 0.69797 0.0
H604 H 0.64001 0.61369 0.58551 0.0
H605 H 0.75531 0.7815 0.58948 0.0
H606 H 0.59159 0.63357 0.55446 0.0
H607 H 0.70525 0.79836 0.55818 0.0
H608 H 0.8221 0.58162 0.58257 0.0
H609 H 0.73835 0.54193 0.64921 0.0
H610 H 0.84899 0.51389 0.5907 0.0
H611 H 0.76665 0.47483 0.65618 0.0
H612 H 0.91015 0.71253 0.52831 0.0
H613 H 0.74291 0.63207 0.50909 0.0
H614 H 0.53687 0.59129 0.64781 0.0
H615 H 0.54517 0.45379 0.62334 0.0
Li616 Li 0.15656 0.81554 0.96667 0.0
Li617 Li 0.0631 0.78358 0.96235 0.0
Li618 Li 0.09213 0.71681 0.96096 0.0
Li619 Li 0.11505 0.78505 0.9278 0.0
C620 C 0.07432 0.76947 0.00768 0.0
N621 N 0.02107 0.77966 0.04621 0.0
C622 C 0.08495 0.82002 0.01508 0.0
C623 C 0.03692 0.72416 0.02 0.0
C624 C 0.05757 0.82433 0.03458 0.0
C625 C 0.01032 0.73013 0.0394 0.0
C626 C 0.11268 0.88451 0.94016 0.0
C627 C 0.06742 0.91677 0.91506 0.0
N628 N 0.09232 0.96439 0.92665 0.0
C629 C 0.13811 0.93385 0.95175 0.0
C630 C 0.07732 0.87593 0.92159 0.0
C631 C 0.12717 0.9737 0.94467 0.0
C632 C 0.25369 0.91078 0.96428 0.0
N633 N 0.21984 0.87343 0.97994 0.0
C634 C 0.25961 0.93463 0.01208 0.0
C635 C 0.22377 0.88353 0.00359 0.0
C636 C 0.29254 0.97556 0.99611 0.0
C637 C 0.29115 0.96193 0.97206 0.0
H638 H 0.24881 0.90221 0.9455 0.0
H639 H 0.19605 0.85337 0.01566 0.0
C640 C 0.95878 0.74133 0.97761 0.0
N641 N 0.00358 0.78886 0.97337 0.0
C642 C 0.91469 0.73969 0.98845 0.0
C643 C 0.96319 0.83615 0.99001 0.0
C644 C 0.00651 0.83589 0.97922 0.0
C645 C 0.91662 0.78754 0.99495 0.0
H646 H 0.95805 0.70455 0.97326 0.0
H647 H 0.04298 0.87313 0.97639 0.0
C648 C 0.21388 0.777 0.94825 0.0
N649 N 0.31922 0.80781 0.95723 0.0
C650 C 0.25341 0.80832 0.93181 0.0
C651 C 0.22774 0.76106 0.96918 0.0
C652 C 0.30651 0.82357 0.9367 0.0
C653 C 0.28128 0.77713 0.97341 0.0
C654 C 0.00586 0.70051 0.92263 0.0
C655 C 0.99777 0.65218 0.91339 0.0
C656 C 0.97356 0.72092 0.91511 0.0
C657 C 0.95791 0.62542 0.89642 0.0
C658 C 0.93412 0.69295 0.89811 0.0
N659 N 0.92721 0.64621 0.88919 0.0
C660 C 0.01429 0.61361 0.97375 0.0
C661 C 0.09439 0.61819 0.96088 0.0
C662 C 0.9889 0.55798 0.97537 0.0
N663 N 0.06597 0.64245 0.96654 0.0
C664 C 0.07046 0.56246 0.96214 0.0
C665 C 0.01666 0.53135 0.96921 0.0
H666 H 0.99218 0.63381 0.97755 0.0
H667 H 0.135 0.64188 0.95459 0.0
C668 C 0.16362 0.85145 0.88902 0.0
N669 N 0.12884 0.79981 0.89484 0.0
C670 C 0.17722 0.86618 0.86537 0.0
C671 C 0.11979 0.77403 0.85408 0.0
C672 C 0.10717 0.76111 0.878 0.0
C673 C 0.1553 0.82725 0.84748 0.0
H674 H 0.18106 0.88129 0.90281 0.0
H675 H 0.08074 0.72013 0.88309 0.0
O676 O 0.09978 0.76437 0.98826 0.0
O677 O 0.12316 0.84521 0.94679 0.0
O678 O 0.16189 0.76255 0.94402 0.0
O679 O 0.04441 0.72701 0.93938 0.0
H680 H 0.11306 0.85548 0.00549 0.0
H681 H 0.02843 0.68479 0.01462 0.0
H682 H 0.06503 0.86315 0.04034 0.0
H683 H 0.98109 0.69538 0.04903 0.0
H684 H 0.04008 0.91068 0.90074 0.0
H685 H 0.16572 0.94114 0.96614 0.0
H686 H 0.05806 0.8383 0.91221 0.0
H687 H 0.14639 0.01203 0.95348 0.0
H688 H 0.25814 0.94261 0.03072 0.0
H689 H 0.31636 0.99126 0.95905 0.0
H690 H 0.88004 0.70126 0.99227 0.0
H691 H 0.96629 0.87399 0.99453 0.0
H692 H 0.24319 0.82102 0.91554 0.0
H693 H 0.19747 0.73689 0.98208 0.0
H694 H 0.33761 0.84801 0.9242 0.0
H695 H 0.29269 0.7653 0.98958 0.0
H696 H 0.0223 0.63574 0.91912 0.0
H697 H 0.97857 0.75771 0.92244 0.0
H698 H 0.95138 0.58812 0.88901 0.0
H699 H 0.90889 0.70832 0.89208 0.0
H700 H 0.94771 0.53609 0.98113 0.0
H701 H 0.09334 0.54394 0.95677 0.0
H702 H 0.20434 0.90772 0.86118 0.0
H703 H 0.10273 0.74248 0.84098 0.0
Li704 Li 0.28482 0.06547 0.29663 0.0
Li705 Li 0.34514 0.15825 0.30067 0.0
Li706 Li 0.33179 0.1172 0.2613 0.0
Li707 Li 0.37781 0.09245 0.29459 0.0
C708 C 0.23661 0.12965 0.28015 0.0
N709 N 0.14845 0.14295 0.27741 0.0
C710 C 0.22142 0.14882 0.29968 0.0
C711 C 0.20692 0.11746 0.25919 0.0
C712 C 0.17682 0.15532 0.29794 0.0
C713 C 0.16242 0.12426 0.25819 0.0
C714 C 0.31503 0.07657 0.34248 0.0
C715 C 0.30386 0.01896 0.37555 0.0
N716 N 0.26173 0.02353 0.38321 0.0
C717 C 0.27209 0.08128 0.35088 0.0
C718 C 0.33145 0.04565 0.35506 0.0
C719 C 0.24547 0.05393 0.37142 0.0
C720 C 0.22759 0.96657 0.31804 0.0
N721 N 0.22058 0.00565 0.30835 0.0
C722 C 0.12898 0.96016 0.32023 0.0
C723 C 0.1723 0.00296 0.30896 0.0
C724 C 0.13559 0.92001 0.33107 0.0
C725 C 0.18578 0.92361 0.3297 0.0
H726 H 0.26645 0.96982 0.31739 0.0
H727 H 0.16738 0.0342 0.30109 0.0
C728 C 0.35151 0.25782 0.29874 0.0
N729 N 0.35262 0.2222 0.31413 0.0
C730 C 0.33829 0.2955 0.30668 0.0
C731 C 0.33007 0.26074 0.34635 0.0
C732 C 0.34478 0.22462 0.33772 0.0
C733 C 0.32421 0.29537 0.33058 0.0
H734 H 0.35635 0.25403 0.27996 0.0
H735 H 0.3449 0.19522 0.34951 0.0
C736 C 0.28143 0.9986 0.2627 0.0
N737 N 0.20064 0.90231 0.24561 0.0
C738 C 0.28374 0.95189 0.26598 0.0
C739 C 0.23833 0.9964 0.25052 0.0
C740 C 0.24243 0.90358 0.25726 0.0
C741 C 0.1978 0.94735 0.24207 0.0
C742 C 0.44131 0.21398 0.28212 0.0
C743 C 0.45224 0.25447 0.26575 0.0
C744 C 0.4702 0.22609 0.30327 0.0
C745 C 0.49187 0.30674 0.27094 0.0
C746 C 0.50952 0.27886 0.30779 0.0
N747 N 0.51943 0.31776 0.29168 0.0
C748 C 0.32376 0.17359 0.22297 0.0
C749 C 0.33635 0.10169 0.21168 0.0
C750 C 0.32268 0.18691 0.19928 0.0
N751 N 0.3303 0.13156 0.22865 0.0
C752 C 0.33583 0.11379 0.18771 0.0
C753 C 0.32889 0.15696 0.18121 0.0
H754 H 0.31924 0.19669 0.23693 0.0
H755 H 0.34192 0.06874 0.21676 0.0
C756 C 0.40371 0.01519 0.30746 0.0
N757 N 0.42652 0.06681 0.30014 0.0
C758 C 0.43374 0.98961 0.30889 0.0
C759 C 0.51122 0.07155 0.29626 0.0
C760 C 0.4794 0.09544 0.29478 0.0
C761 C 0.48812 0.01754 0.30293 0.0
H762 H 0.36158 0.99332 0.31157 0.0
H763 H 0.49649 0.13618 0.28864 0.0
O764 O 0.28103 0.12425 0.28119 0.0
O765 O 0.34095 0.10209 0.32209 0.0
O766 O 0.32088 0.04627 0.27146 0.0
O767 O 0.40201 0.16279 0.27761 0.0
H768 H 0.24376 0.15882 0.31601 0.0
H769 H 0.21818 0.10313 0.24378 0.0
H770 H 0.16482 0.17036 0.31287 0.0
H771 H 0.13913 0.11491 0.24208 0.0
H772 H 0.31594 0.99461 0.38536 0.0
H773 H 0.25881 0.10496 0.34141 0.0
H774 H 0.36512 0.04224 0.34907 0.0
H775 H 0.21178 0.05674 0.37793 0.0
H776 H 0.09079 0.95857 0.32039 0.0
H777 H 0.19326 0.89427 0.33805 0.0
H778 H 0.3357 0.32197 0.29387 0.0
H779 H 0.31904 0.25803 0.36484 0.0
H780 H 0.31703 0.95281 0.27511 0.0
H781 H 0.23606 0.03216 0.24777 0.0
H782 H 0.24362 0.86709 0.25974 0.0
H783 H 0.16407 0.94508 0.23272 0.0
H784 H 0.43009 0.24563 0.24931 0.0
H785 H 0.46199 0.19509 0.31612 0.0
H786 H 0.50066 0.33857 0.2585 0.0
H787 H 0.53209 0.28892 0.32413 0.0
H788 H 0.31648 0.22 0.19519 0.0
H789 H 0.34166 0.09009 0.17447 0.0
H790 H 0.41444 0.94817 0.31435 0.0
H791 H 0.55291 0.09443 0.29129 0.0
Li792 Li 0.22023 0.27964 0.62896 0.0
Li793 Li 0.18833 0.34119 0.63331 0.0
Li794 Li 0.21877 0.33024 0.59443 0.0
Li795 Li 0.2871 0.37547 0.62749 0.0
C796 C 0.11951 0.22786 0.60716 0.0
N797 N 0.0402 0.12675 0.59438 0.0
C798 C 0.07007 0.20426 0.61865 0.0
C799 C 0.1285 0.20029 0.58908 0.0
C800 C 0.0305 0.15304 0.61193 0.0
C801 C 0.08794 0.14912 0.58292 0.0
C802 C 0.23469 0.3053 0.67431 0.0
C803 C 0.27431 0.28088 0.70601 0.0
N804 N 0.22484 0.24228 0.71297 0.0
C805 C 0.18422 0.26556 0.68186 0.0
C806 C 0.28011 0.31325 0.68654 0.0
C807 C 0.18008 0.23408 0.70143 0.0
C808 C 0.26251 0.21762 0.64432 0.0
N809 N 0.21495 0.21485 0.64013 0.0
C810 C 0.16788 0.12752 0.65716 0.0
C811 C 0.16801 0.1709 0.64621 0.0
C812 C 0.21652 0.12962 0.66209 0.0
C813 C 0.26427 0.17541 0.65537 0.0
H814 H 0.29923 0.25357 0.6398 0.0
H815 H 0.13075 0.17011 0.64345 0.0
C816 C 0.09322 0.3431 0.63088 0.0
N817 N 0.13051 0.34669 0.64659 0.0
C818 C 0.04205 0.3294 0.63859 0.0
C819 C 0.06918 0.32537 0.67867 0.0
C820 C 0.12032 0.3406 0.67023 0.0
C821 C 0.02834 0.31727 0.66263 0.0
H822 H 0.10186 0.34668 0.6121 0.0
H823 H 0.15042 0.34308 0.68235 0.0
C824 C 0.30323 0.30685 0.58859 0.0
N825 N 0.35747 0.2856 0.55393 0.0
C826 C 0.35019 0.34834 0.57892 0.0
C827 C 0.28423 0.25447 0.5809 0.0
C828 C 0.37693 0.3368 0.56133 0.0
C829 C 0.31212 0.24457 0.56329 0.0
C830 C 0.22668 0.437 0.61456 0.0
C831 C 0.1954 0.4447 0.59791 0.0
C832 C 0.24242 0.46729 0.63535 0.0
C833 C 0.17997 0.48256 0.60246 0.0
C834 C 0.22618 0.50476 0.63924 0.0
N835 N 0.19553 0.51153 0.62286 0.0
C836 C 0.15232 0.30846 0.55504 0.0
C837 C 0.24418 0.35335 0.54513 0.0
C838 C 0.13836 0.30844 0.53136 0.0
N839 N 0.20441 0.3301 0.56142 0.0
C840 C 0.23204 0.35454 0.52121 0.0
C841 C 0.17843 0.33182 0.51401 0.0
H842 H 0.12146 0.29158 0.56841 0.0
H843 H 0.28534 0.37189 0.55072 0.0
C844 C 0.39036 0.40076 0.64013 0.0
N845 N 0.36151 0.42366 0.633 0.0
C846 C 0.44598 0.431 0.64176 0.0
C847 C 0.4415 0.50818 0.62868 0.0
C848 C 0.38578 0.4764 0.6274 0.0
C849 C 0.47261 0.48545 0.63568 0.0
H850 H 0.37017 0.35842 0.64388 0.0
H851 H 0.36209 0.49337 0.62118 0.0
O852 O 0.15854 0.27807 0.61341 0.0
O853 O 0.23962 0.33566 0.65483 0.0
O854 O 0.27678 0.31735 0.60594 0.0
O855 O 0.24133 0.39948 0.61066 0.0
H856 H 0.06247 0.22517 0.63267 0.0
H857 H 0.16622 0.2184 0.57979 0.0
H858 H 0.99207 0.13419 0.62064 0.0
H859 H 0.09435 0.12727 0.56897 0.0
H860 H 0.30914 0.28642 0.71557 0.0
H861 H 0.14867 0.25817 0.67235 0.0
H862 H 0.31943 0.34399 0.68104 0.0
H863 H 0.14131 0.20286 0.70731 0.0
H864 H 0.13008 0.0929 0.66182 0.0
H865 H 0.30275 0.17932 0.65917 0.0
H866 H 0.01273 0.32512 0.62554 0.0
H867 H 0.06107 0.316 0.69731 0.0
H868 H 0.36558 0.38908 0.5848 0.0
H869 H 0.24859 0.22176 0.58858 0.0
H870 H 0.41315 0.36855 0.55358 0.0
H871 H 0.29782 0.20424 0.55711 0.0
H872 H 0.18286 0.42139 0.58175 0.0
H873 H 0.26657 0.46158 0.64841 0.0
H874 H 0.15555 0.48884 0.5898 0.0
H875 H 0.23785 0.52839 0.65529 0.0
H876 H 0.09651 0.29001 0.52673 0.0
H877 H 0.2644 0.37407 0.5086 0.0
H878 H 0.46785 0.41165 0.64749 0.0
H879 H 0.46 0.54964 0.62337 0.0
Li880 Li 0.84934 0.18738 0.96667 0.0
Li881 Li 0.94284 0.21943 0.96252 0.0
Li882 Li 0.91379 0.28619 0.9611 0.0
Li883 Li 0.89116 0.21815 0.92789 0.0
C884 C 0.93128 0.23341 0.00785 0.0
N885 N 0.98436 0.22329 0.04647 0.0
C886 C 0.92064 0.18288 0.01528 0.0
C887 C 0.9686 0.27874 0.02018 0.0
C888 C 0.94793 0.17861 0.03483 0.0
C889 C 0.99511 0.2728 0.03963 0.0
C890 C 0.8937 0.11884 0.94009 0.0
C891 C 0.93963 0.08741 0.91495 0.0
N892 N 0.91467 0.03952 0.92631 0.0
C893 C 0.86822 0.06923 0.95144 0.0
C894 C 0.92943 0.12798 0.92161 0.0
C895 C 0.87947 0.02967 0.94424 0.0
C896 C 0.75228 0.09219 0.96401 0.0
N897 N 0.78593 0.12934 0.97979 0.0
C898 C 0.74579 0.0677 0.01176 0.0
C899 C 0.78174 0.11892 0.00341 0.0
C900 C 0.71304 0.02699 0.99566 0.0
C901 C 0.71472 0.04095 0.97164 0.0
H902 H 0.75738 0.10102 0.94525 0.0
H903 H 0.80932 0.14892 0.01558 0.0
C904 C 0.04705 0.26155 0.97796 0.0
N905 N 1.00224 0.21406 0.97366 0.0
C906 C 0.091 0.26308 0.98889 0.0
C907 C 0.04236 0.16663 0.99041 0.0
C908 C 0.99918 0.16698 0.97953 0.0
C909 C 0.08894 0.21518 0.99542 0.0
H910 H 0.04787 0.29838 0.97359 0.0
H911 H 0.96269 0.12978 0.97665 0.0
C912 C 0.79221 0.22619 0.94824 0.0
N913 N 0.68691 0.19564 0.95715 0.0
C914 C 0.75271 0.19501 0.93176 0.0
C915 C 0.77835 0.24211 0.96917 0.0
C916 C 0.69963 0.1799 0.93662 0.0
C917 C 0.72483 0.22618 0.97337 0.0
C918 C 1.00036 0.30294 0.92292 0.0
C919 C 0.00814 0.35117 0.9137 0.0
C920 C 0.03309 0.28299 0.91548 0.0
C921 C 0.04813 0.37829 0.89682 0.0
C922 C 0.07265 0.3113 0.89857 0.0
N923 N 0.07925 0.35794 0.88966 0.0
C924 C 0.99154 0.3894 0.97394 0.0
C925 C 0.91148 0.38477 0.96093 0.0
C926 C 0.01691 0.44504 0.9755 0.0
N927 N 0.93989 0.36053 0.96668 0.0
C928 C 0.93541 0.4405 0.96215 0.0
C929 C 0.98918 0.47164 0.96924 0.0
H930 H 0.01365 0.36923 0.97779 0.0
H931 H 0.87091 0.36105 0.9546 0.0
C932 C 0.84279 0.15206 0.889 0.0
N933 N 0.87754 0.20365 0.89491 0.0
C934 C 0.82912 0.13757 0.86534 0.0
C935 C 0.88646 0.22984 0.85421 0.0
C936 C 0.89914 0.24252 0.87813 0.0
C937 C 0.85095 0.17669 0.84753 0.0
H938 H 0.82538 0.12208 0.90274 0.0
H939 H 0.92552 0.28346 0.8833 0.0
O940 O 0.9059 0.23847 0.98838 0.0
O941 O 0.88294 0.15786 0.94684 0.0
O942 O 0.84418 0.24051 0.94405 0.0
O943 O 0.96171 0.27611 0.93959 0.0
H944 H 0.89259 0.1474 0.00569 0.0
H945 H 0.97709 0.3181 0.01477 0.0
H946 H 0.94047 0.1398 0.04061 0.0
H947 H 0.02428 0.30757 0.04927 0.0
H948 H 0.96725 0.09393 0.90069 0.0
H949 H 0.84033 0.0615 0.96576 0.0
H950 H 0.94875 0.16583 0.9124 0.0
H951 H 0.86021 0.99113 0.95287 0.0
H952 H 0.74702 0.05946 0.03038 0.0
H953 H 0.68968 0.01178 0.95855 0.0
H954 H 0.12567 0.30148 0.99275 0.0
H955 H 0.03916 0.12875 0.99496 0.0
H956 H 0.76294 0.18233 0.9155 0.0
H957 H 0.8086 0.26616 0.9821 0.0
H958 H 0.66855 0.15557 0.92409 0.0
H959 H 0.71341 0.238 0.98953 0.0
H960 H 0.98327 0.36727 0.91937 0.0
H961 H 0.02833 0.24628 0.9228 0.0
H962 H 0.05442 0.41552 0.88943 0.0
H963 H 0.09822 0.29628 0.8926 0.0
H964 H 0.05809 0.46696 0.98129 0.0
H965 H 0.91254 0.45899 0.9567 0.0
H966 H 0.802 0.09607 0.86108 0.0
H967 H 0.90345 0.26153 0.84116 0.0
Li968 Li 0.72641 0.94675 0.29421 0.0
Li969 Li 0.66504 0.85406 0.29969 0.0
Li970 Li 0.67647 0.89131 0.25983 0.0
Li971 Li 0.63054 0.9161 0.29285 0.0
C972 C 0.77498 0.8851 0.28257 0.0
N973 N 0.86799 0.88156 0.28843 0.0
C974 C 0.79035 0.87794 0.30514 0.0
C975 C 0.80696 0.8906 0.26299 0.0
C976 C 0.83747 0.87616 0.30772 0.0
C977 C 0.85386 0.88873 0.26633 0.0
C978 C 0.67248 0.90978 0.34334 0.0
C979 C 0.62512 0.88879 0.38052 0.0
N980 N 0.67098 0.90056 0.39212 0.0
C981 C 0.71926 0.92209 0.35563 0.0
C982 C 0.6251 0.89337 0.35586 0.0
C983 C 0.71762 0.91701 0.38028 0.0
C984 C 0.78148 0.03557 0.3221 0.0
N985 N 0.79023 0.00607 0.30588 0.0
C986 C 0.88456 0.06013 0.31105 0.0
C987 C 0.8405 0.01788 0.29989 0.0
C988 C 0.87654 0.09047 0.32834 0.0
C989 C 0.82414 0.07795 0.33365 0.0
H990 H 0.74103 0.02538 0.32639 0.0
H991 H 0.84655 0.99453 0.28662 0.0
C992 C 0.66554 0.75848 0.29828 0.0
N993 N 0.66026 0.79124 0.31397 0.0
C994 C 0.6794 0.72116 0.30607 0.0
C995 C 0.68008 0.75027 0.34621 0.0
C996 C 0.66453 0.78586 0.33768 0.0
C997 C 0.69015 0.71876 0.33024 0.0
H998 H 0.66301 0.76411 0.27947 0.0
H999 H 0.6602 0.81194 0.34996 0.0
C1000 C 0.72779 0.01144 0.26209 0.0
N1001 N 0.81274 0.1097 0.24958 0.0
C1002 C 0.7304 0.05827 0.27029 0.0
C1003 C 0.76825 0.01451 0.24748 0.0
C1004 C 0.77372 0.10759 0.26378 0.0
C1005 C 0.81089 0.06458 0.24136 0.0
C1006 C 0.56966 0.79386 0.2821 0.0
C1007 C 0.56137 0.75263 0.26666 0.0
C1008 C 0.54033 0.78214 0.30311 0.0
C1009 C 0.52405 0.70002 0.27266 0.0
C1010 C 0.50339 0.72902 0.30847 0.0
N1011 N 0.49612 0.6894 0.29327 0.0
C1012 C 0.68844 0.83645 0.22181 0.0
C1013 C 0.66594 0.90159 0.21031 0.0
C1014 C 0.68909 0.82241 0.19819 0.0
N1015 N 0.67715 0.87546 0.22734 0.0
C1016 C 0.66588 0.88866 0.18642 0.0
C1017 C 0.6776 0.84854 0.18007 0.0
H1018 H 0.69697 0.81625 0.23582 0.0
H1019 H 0.65675 0.93223 0.2153 0.0
C1020 C 0.6021 0.98918 0.30989 0.0
N1021 N 0.58168 0.94101 0.29891 0.0
C1022 C 0.57188 0.01456 0.3118 0.0
C1023 C 0.49903 0.93896 0.29217 0.0
C1024 C 0.53097 0.91533 0.29034 0.0
C1025 C 0.51983 0.98979 0.30258 0.0
H1026 H 0.64265 0.00872 0.31647 0.0
H1027 H 0.51598 0.8774 0.28139 0.0
O1028 O 0.72875 0.88639 0.27947 0.0
O1029 O 0.67318 0.91482 0.31924 0.0
O1030 O 0.68688 0.9627 0.26895 0.0
O1031 O 0.60675 0.84546 0.27682 0.0
H1032 H 0.76622 0.87378 0.32048 0.0
H1033 H 0.79578 0.89648 0.24541 0.0
H1034 H 0.84984 0.87053 0.32505 0.0
H1035 H 0.87902 0.89298 0.25134 0.0
H1036 H 0.58871 0.87597 0.39045 0.0
H1037 H 0.75638 0.93523 0.34625 0.0
H1038 H 0.58873 0.88434 0.34663 0.0
H1039 H 0.75343 0.92615 0.39001 0.0
H1040 H 0.92439 0.06918 0.3061 0.0
H1041 H 0.81604 0.09997 0.34695 0.0
H1042 H 0.68471 0.69685 0.29299 0.0
H1043 H 0.68799 0.75088 0.36497 0.0
H1044 H 0.69953 0.0566 0.28168 0.0
H1045 H 0.76711 0.97857 0.24121 0.0
H1046 H 0.77639 0.14419 0.27006 0.0
H1047 H 0.84264 0.06758 0.23016 0.0
H1048 H 0.58384 0.76118 0.25032 0.0
H1049 H 0.54634 0.81373 0.31519 0.0
H1050 H 0.51737 0.66762 0.26095 0.0
H1051 H 0.48056 0.71928 0.32473 0.0
H1052 H 0.69903 0.79179 0.19419 0.0
H1053 H 0.65595 0.90931 0.17314 0.0
H1054 H 0.58926 0.05341 0.32016 0.0
H1055 H 0.45926 0.91866 0.28464 0.0
loop_
_geom_bond_atom_site_label_1
_geom_bond_atom_site_label_2
_geom_bond_distance
_geom_bond_site_symmetry_2
_ccdc_geom_bond_type
Li0 N17 1.990 . S
Li0 O60 1.956 . S
Li0 O61 1.970 . S
Li0 O62 1.961 . S
Li1 N25 1.990 . S
Li1 O60 1.970 . S
Li1 O61 1.956 . S
Li1 O63 1.961 . S
Li2 N47 1.990 . S
Li2 O60 1.961 . S
Li2 O62 1.956 . S
Li2 O63 1.970 . S
Li3 N53 1.990 . S
Li3 O61 1.961 . S
Li3 O62 1.970 . S
Li3 O63 1.956 . S
C4 C6 1.348 . S
C4 C7 1.356 . S
C4 O60 1.325 . S
N5 C8 1.314 . S
N5 C9 1.279 . S
C6 C4 1.348 . S
C6 C8 1.353 . S
C6 H64 0.929 . S
C7 C4 1.356 . S
C7 C9 1.358 . S
C7 H65 0.930 . S
C8 N5 1.314 . S
C8 C6 1.353 . S
C8 H66 0.930 . S
C9 N5 1.279 . S
C9 C7 1.358 . S
C9 H67 0.930 . S
C10 C13 1.348 . S
C10 C14 1.356 . S
C10 O61 1.325 . S
C11 N12 1.279 . S
C11 C14 1.358 . S
C11 H68 0.930 . S
N12 C11 1.279 . S
N12 C15 1.314 . S
C13 C10 1.348 . S
C13 C15 1.353 . S
C13 H69 0.929 . S
C14 C10 1.356 . S
C14 C11 1.358 . S
C14 H70 0.930 . S
C15 N12 1.314 . S
C15 C13 1.353 . S
C15 H71 0.930 . S
C16 N17 1.314 . S
C16 C21 1.353 . S
C16 H22 0.930 . S
N17 Li0 1.990 . S
N17 C16 1.314 . S
N17 C19 1.279 . S
C18 C19 1.358 . S
C18 C20 1.356 . S
C18 H72 0.930 . S
C19 N17 1.279 . S
C19 C18 1.358 . S
C19 H23 0.930 . S
C20 C18 1.356 . S
C20 C21 1.348 . S
C21 C16 1.353 . S
C21 C20 1.348 . S
C21 H73 0.929 1_554 S
H22 C16 0.930 . S
H23 C19 0.930 . S
C24 N25 1.314 . S
C24 C26 1.353 . S
C24 H30 0.930 . S
N25 Li1 1.990 . S
N25 C24 1.314 . S
N25 C28 1.279 . S
C26 C24 1.353 . S
C26 C29 1.348 . S
C26 H74 0.929 . S
C27 C28 1.358 . S
C27 C29 1.356 . S
C27 H75 0.930 . S
C28 N25 1.279 . S
C28 C27 1.358 . S
C28 H31 0.930 . S
C29 C26 1.348 . S
C29 C27 1.356 . S
H30 C24 0.930 . S
H31 C28 0.930 . S
C32 C34 1.348 . S
C32 C35 1.356 . S
C32 O62 1.325 1_556 S
N33 C36 1.314 . S
N33 C37 1.279 . S
C34 C32 1.348 . S
C34 C36 1.353 . S
C34 H76 0.929 . S
C35 C32 1.356 . S
C35 C37 1.358 . S
C35 H77 0.930 . S
C36 N33 1.314 . S
C36 C34 1.353 . S
C36 H78 0.930 . S
C37 N33 1.279 . S
C37 C35 1.358 . S
C37 H79 0.930 . S
C38 C39 1.348 . S
C38 C40 1.356 . S
C38 O63 1.325 . S
C39 C38 1.348 . S
C39 C41 1.353 . S
C39 H80 0.929 . S
C40 C38 1.356 . S
C40 C42 1.358 . S
C40 H81 0.930 . S
C41 C39 1.353 . S
C41 N43 1.314 . S
C41 H82 0.930 . S
C42 C40 1.358 . S
C42 N43 1.279 . S
C42 H83 0.930 . S
N43 C41 1.314 . S
N43 C42 1.279 . S
C44 C46 1.353 . S
C44 N47 1.314 . S
C44 H50 0.930 . S
C45 N47 1.279 1_556 S
C45 C48 1.358 . S
C45 H51 0.930 . S
C46 C44 1.353 . S
C46 C49 1.348 1_554 S
C46 H84 0.929 . S
N47 Li2 1.990 . S
N47 C44 1.314 . S
N47 C45 1.279 1_554 S
C48 C45 1.358 . S
C48 C49 1.356 . S
C48 H85 0.930 . S
C49 C46 1.348 1_556 S
C49 C48 1.356 . S
H50 C44 0.930 . S
H51 C45 0.930 . S
C52 N53 1.314 . S
C52 C54 1.353 . S
C52 H58 0.930 . S
N53 Li3 1.990 . S
N53 C52 1.314 . S
N53 C56 1.279 . S
C54 C52 1.353 . S
C54 C57 1.348 . S
C54 H86 0.929 . S
C55 C56 1.358 . S
C55 C57 1.356 . S
C55 H87 0.930 . S
C56 N53 1.279 . S
C56 C55 1.358 . S
C56 H59 0.930 . S
C57 C54 1.348 . S
C57 C55 1.356 . S
H58 C52 0.930 . S
H59 C56 0.930 . S
O60 Li0 1.956 . S
O60 Li1 1.970 . S
O60 Li2 1.961 . S
O60 C4 1.325 . S
O61 Li0 1.970 . S
O61 Li1 1.956 . S
O61 Li3 1.961 . S
O61 C10 1.325 . S
O62 Li0 1.961 . S
O62 Li2 1.956 . S
O62 Li3 1.970 . S
O62 C32 1.325 1_554 S
O63 Li1 1.961 . S
O63 Li2 1.970 . S
O63 Li3 1.956 . S
O63 C38 1.325 . S
H64 C6 0.929 . S
H65 C7 0.930 . S
H66 C8 0.930 . S
H67 C9 0.930 . S
H68 C11 0.930 . S
H69 C13 0.929 . S
H70 C14 0.930 . S
H71 C15 0.930 . S
H72 C18 0.930 . S
H73 C21 0.929 1_556 S
H74 C26 0.929 . S
H75 C27 0.930 . S
H76 C34 0.929 . S
H77 C35 0.930 . S
H78 C36 0.930 . S
H79 C37 0.930 . S
H80 C39 0.929 . S
H81 C40 0.930 . S
H82 C41 0.930 . S
H83 C42 0.930 . S
H84 C46 0.929 . S
H85 C48 0.930 . S
H86 C54 0.929 . S
H87 C55 0.930 . S
Li88 N105 1.990 . S
Li88 O148 1.956 . S
Li88 O149 1.970 . S
Li88 O150 1.961 . S
Li89 N113 1.990 . S
Li89 O148 1.970 . S
Li89 O149 1.956 . S
Li89 O151 1.961 . S
Li90 N135 1.990 . S
Li90 O148 1.961 . S
Li90 O150 1.956 . S
Li90 O151 1.970 . S
Li91 N141 1.990 1_455 S
Li91 O149 1.961 . S
Li91 O150 1.970 . S
Li91 O151 1.956 . S
C92 C94 1.348 . S
C92 C95 1.356 . S
C92 O148 1.325 . S
N93 C96 1.314 . S
N93 C97 1.279 . S
C94 C92 1.348 . S
C94 C96 1.353 . S
C94 H152 0.929 . S
C95 C92 1.356 . S
C95 C97 1.358 . S
C95 H153 0.930 . S
C96 N93 1.314 . S
C96 C94 1.353 . S
C96 H154 0.930 . S
C97 N93 1.279 . S
C97 C95 1.358 . S
C97 H155 0.930 . S
C98 C101 1.348 . S
C98 C102 1.356 1_455 S
C98 O149 1.325 . S
C99 N100 1.279 . S
C99 C102 1.358 . S
C99 H156 0.930 . S
N100 C99 1.279 . S
N100 C103 1.314 . S
C101 C98 1.348 . S
C101 C103 1.353 1_455 S
C101 H157 0.929 . S
C102 C98 1.356 1_655 S
C102 C99 1.358 . S
C102 H158 0.930 . S
C103 N100 1.314 . S
C103 C101 1.353 1_655 S
C103 H159 0.930 . S
C104 N105 1.314 . S
C104 C109 1.353 . S
C104 H110 0.930 . S
N105 Li88 1.990 . S
N105 C104 1.314 . S
N105 C107 1.279 . S
C106 C107 1.358 . S
C106 C108 1.356 . S
C106 H160 0.930 . S
C107 N105 1.279 . S
C107 C106 1.358 . S
C107 H111 0.930 . S
C108 C106 1.356 . S
C108 C109 1.348 . S
C109 C104 1.353 . S
C109 C108 1.348 . S
C109 H161 0.929 . S
H110 C104 0.930 . S
H111 C107 0.930 . S
C112 N113 1.314 . S
C112 C114 1.353 . S
C112 H118 0.930 . S
N113 Li89 1.990 . S
N113 C112 1.314 . S
N113 C116 1.279 . S
C114 C112 1.353 . S
C114 C117 1.348 . S
C114 H162 0.929 . S
C115 C116 1.358 . S
C115 C117 1.356 . S
C115 H163 0.930 . S
C116 N113 1.279 . S
C116 C115 1.358 . S
C116 H119 0.930 . S
C117 C114 1.348 . S
C117 C115 1.356 . S
H118 C112 0.930 . S
H119 C116 0.930 . S
C120 C122 1.348 . S
C120 C123 1.356 . S
C120 O150 1.325 . S
N121 C124 1.314 . S
N121 C125 1.279 . S
C122 C120 1.348 . S
C122 C124 1.353 . S
C122 H164 0.929 . S
C123 C120 1.356 . S
C123 C125 1.358 . S
C123 H165 0.930 . S
C124 N121 1.314 . S
C124 C122 1.353 . S
C124 H166 0.930 . S
C125 N121 1.279 . S
C125 C123 1.358 . S
C125 H167 0.930 . S
C126 C127 1.348 . S
C126 C128 1.356 . S
C126 O151 1.325 . S
C127 C126 1.348 . S
C127 C129 1.353 . S
C127 H168 0.929 . S
C128 C126 1.356 . S
C128 C130 1.358 . S
C128 H169 0.930 . S
C129 C127 1.353 . S
C129 N131 1.314 . S
C129 H170 0.930 . S
C130 C128 1.358 . S
C130 N131 1.279 . S
C130 H171 0.930 . S
N131 C129 1.314 . S
N131 C130 1.279 . S
C132 C134 1.353 . S
C132 N135 1.314 . S
C132 H138 0.930 . S
C133 N135 1.279 . S
C133 C136 1.358 . S
C133 H139 0.930 . S
C134 C132 1.353 . S
C134 C137 1.348 . S
C134 H172 0.929 . S
N135 Li90 1.990 . S
N135 C132 1.314 . S
N135 C133 1.279 . S
C136 C133 1.358 . S
C136 C137 1.356 . S
C136 H173 0.930 . S
C137 C134 1.348 . S
C137 C136 1.356 . S
H138 C132 0.930 . S
H139 C133 0.930 . S
C140 N141 1.314 . S
C140 C142 1.353 . S
C140 H146 0.930 . S
N141 Li91 1.990 1_655 S
N141 C140 1.314 . S
N141 C144 1.279 . S
C142 C140 1.353 . S
C142 C145 1.348 . S
C142 H174 0.929 . S
C143 C144 1.358 . S
C143 C145 1.356 . S
C143 H175 0.930 . S
C144 N141 1.279 . S
C144 C143 1.358 . S
C144 H147 0.930 1_655 S
C145 C142 1.348 . S
C145 C143 1.356 . S
H146 C140 0.930 . S
H147 C144 0.930 1_455 S
O148 Li88 1.956 . S
O148 Li89 1.970 . S
O148 Li90 1.961 . S
O148 C92 1.325 . S
O149 Li88 1.970 . S
O149 Li89 1.956 . S
O149 Li91 1.961 . S
O149 C98 1.325 . S
O150 Li88 1.961 . S
O150 Li90 1.956 . S
O150 Li91 1.970 . S
O150 C120 1.325 . S
O151 Li89 1.961 . S
O151 Li90 1.970 . S
O151 Li91 1.956 . S
O151 C126 1.325 . S
H152 C94 0.929 . S
H153 C95 0.930 . S
H154 C96 0.930 . S
H155 C97 0.930 . S
H156 C99 0.930 . S
H157 C101 0.929 . S
H158 C102 0.930 . S
H159 C103 0.930 . S
H160 C106 0.930 . S
H161 C109 0.929 . S
H162 C114 0.929 . S
H163 C115 0.930 . S
H164 C122 0.929 . S
H165 C123 0.930 . S
H166 C124 0.930 . S
H167 C125 0.930 . S
H168 C127 0.929 . S
H169 C128 0.930 . S
H170 C129 0.930 . S
H171 C130 0.930 . S
H172 C134 0.929 . S
H173 C136 0.930 . S
H174 C142 0.929 . S
H175 C143 0.930 . S
Li176 N193 1.990 . S
Li176 O236 1.956 . S
Li176 O237 1.970 . S
Li176 O238 1.961 . S
Li177 N201 1.990 . S
Li177 O236 1.970 . S
Li177 O237 1.956 . S
Li177 O239 1.961 . S
Li178 N223 1.990 1_545 S
Li178 O236 1.961 . S
Li178 O238 1.956 . S
Li178 O239 1.970 . S
Li179 N229 1.990 . S
Li179 O237 1.961 . S
Li179 O238 1.970 . S
Li179 O239 1.956 . S
C180 C182 1.348 . S
C180 C183 1.356 1_545 S
C180 O236 1.325 . S
N181 C184 1.314 . S
N181 C185 1.279 . S
C182 C180 1.348 . S
C182 C184 1.353 1_545 S
C182 H240 0.929 . S
C183 C180 1.356 1_565 S
C183 C185 1.358 . S
C183 H241 0.930 . S
C184 N181 1.314 . S
C184 C182 1.353 1_565 S
C184 H242 0.930 . S
C185 N181 1.279 . S
C185 C183 1.358 . S
C185 H243 0.930 . S
C186 C189 1.348 . S
C186 C190 1.356 . S
C186 O237 1.325 . S
C187 N188 1.279 . S
C187 C190 1.358 . S
C187 H244 0.930 . S
N188 C187 1.279 . S
N188 C191 1.314 . S
C189 C186 1.348 . S
C189 C191 1.353 . S
C189 H245 0.929 . S
C190 C186 1.356 . S
C190 C187 1.358 . S
C190 H246 0.930 . S
C191 N188 1.314 . S
C191 C189 1.353 . S
C191 H247 0.930 . S
C192 N193 1.314 . S
C192 C197 1.353 . S
C192 H198 0.930 . S
N193 Li176 1.990 . S
N193 C192 1.314 . S
N193 C195 1.279 . S
C194 C195 1.358 . S
C194 C196 1.356 . S
C194 H248 0.930 . S
C195 N193 1.279 . S
C195 C194 1.358 . S
C195 H199 0.930 . S
C196 C194 1.356 . S
C196 C197 1.348 . S
C197 C192 1.353 . S
C197 C196 1.348 . S
C197 H249 0.929 . S
H198 C192 0.930 . S
H199 C195 0.930 . S
C200 N201 1.314 . S
C200 C202 1.353 . S
C200 H206 0.930 . S
N201 Li177 1.990 . S
N201 C200 1.314 . S
N201 C204 1.279 . S
C202 C200 1.353 . S
C202 C205 1.348 . S
C202 H250 0.929 . S
C203 C204 1.358 . S
C203 C205 1.356 . S
C203 H251 0.930 . S
C204 N201 1.279 . S
C204 C203 1.358 . S
C204 H207 0.930 . S
C205 C202 1.348 . S
C205 C203 1.356 . S
H206 C200 0.930 . S
H207 C204 0.930 . S
C208 C210 1.348 . S
C208 C211 1.356 . S
C208 O238 1.325 . S
N209 C212 1.314 . S
N209 C213 1.279 . S
C210 C208 1.348 . S
C210 C212 1.353 . S
C210 H252 0.929 . S
C211 C208 1.356 . S
C211 C213 1.358 . S
C211 H253 0.930 . S
C212 N209 1.314 . S
C212 C210 1.353 . S
C212 H254 0.930 . S
C213 N209 1.279 . S
C213 C211 1.358 . S
C213 H255 0.930 . S
C214 C215 1.348 . S
C214 C216 1.356 . S
C214 O239 1.325 . S
C215 C214 1.348 . S
C215 C217 1.353 . S
C215 H256 0.929 . S
C216 C214 1.356 . S
C216 C218 1.358 . S
C216 H257 0.930 . S
C217 C215 1.353 . S
C217 N219 1.314 . S
C217 H258 0.930 . S
C218 C216 1.358 . S
C218 N219 1.279 . S
C218 H259 0.930 . S
N219 C217 1.314 . S
N219 C218 1.279 . S
C220 C222 1.353 . S
C220 N223 1.314 . S
C220 H226 0.930 . S
C221 N223 1.279 . S
C221 C224 1.358 . S
C221 H227 0.930 1_565 S
C222 C220 1.353 . S
C222 C225 1.348 . S
C222 H260 0.929 . S
N223 Li178 1.990 1_565 S
N223 C220 1.314 . S
N223 C221 1.279 . S
C224 C221 1.358 . S
C224 C225 1.356 . S
C224 H261 0.930 . S
C225 C222 1.348 . S
C225 C224 1.356 . S
H226 C220 0.930 . S
H227 C221 0.930 1_545 S
C228 N229 1.314 . S
C228 C230 1.353 . S
C228 H234 0.930 . S
N229 Li179 1.990 . S
N229 C228 1.314 . S
N229 C232 1.279 . S
C230 C228 1.353 . S
C230 C233 1.348 . S
C230 H262 0.929 . S
C231 C232 1.358 . S
C231 C233 1.356 . S
C231 H263 0.930 . S
C232 N229 1.279 . S
C232 C231 1.358 . S
C232 H235 0.930 . S
C233 C230 1.348 . S
C233 C231 1.356 . S
H234 C228 0.930 . S
H235 C232 0.930 . S
O236 Li176 1.956 . S
O236 Li177 1.970 . S
O236 Li178 1.961 . S
O236 C180 1.325 . S
O237 Li176 1.970 . S
O237 Li177 1.956 . S
O237 Li179 1.961 . S
O237 C186 1.325 . S
O238 Li176 1.961 . S
O238 Li178 1.956 . S
O238 Li179 1.970 . S
O238 C208 1.325 . S
O239 Li177 1.961 . S
O239 Li178 1.970 . S
O239 Li179 1.956 . S
O239 C214 1.325 . S
H240 C182 0.929 . S
H241 C183 0.930 . S
H242 C184 0.930 . S
H243 C185 0.930 . S
H244 C187 0.930 . S
H245 C189 0.929 . S
H246 C190 0.930 . S
H247 C191 0.930 . S
H248 C194 0.930 . S
H249 C197 0.929 . S
H250 C202 0.929 . S
H251 C203 0.930 . S
H252 C210 0.929 . S
H253 C211 0.930 . S
H254 C212 0.930 . S
H255 C213 0.930 . S
H256 C215 0.929 . S
H257 C216 0.930 . S
H258 C217 0.930 . S
H259 C218 0.930 . S
H260 C222 0.929 . S
H261 C224 0.930 . S
H262 C230 0.929 . S
H263 C231 0.930 . S
Li264 N281 1.990 . S
Li264 O324 1.956 . S
Li264 O325 1.970 . S
Li264 O326 1.961 . S
Li265 N289 1.990 . S
Li265 O324 1.970 . S
Li265 O325 1.956 . S
Li265 O327 1.961 . S
Li266 N311 1.990 . S
Li266 O324 1.961 . S
Li266 O326 1.956 . S
Li266 O327 1.970 . S
Li267 N317 1.990 . S
Li267 O325 1.961 . S
Li267 O326 1.970 . S
Li267 O327 1.956 . S
C268 C270 1.348 . S
C268 C271 1.356 . S
C268 O324 1.325 . S
N269 C272 1.314 . S
N269 C273 1.279 . S
C270 C268 1.348 . S
C270 C272 1.353 . S
C270 H328 0.929 . S
C271 C268 1.356 . S
C271 C273 1.358 . S
C271 H329 0.930 . S
C272 N269 1.314 . S
C272 C270 1.353 . S
C272 H330 0.930 . S
C273 N269 1.279 . S
C273 C271 1.358 . S
C273 H331 0.930 . S
C274 C277 1.348 . S
C274 C278 1.356 . S
C274 O325 1.325 . S
C275 N276 1.279 . S
C275 C278 1.358 . S
C275 H332 0.930 . S
N276 C275 1.279 . S
N276 C279 1.314 . S
C277 C274 1.348 . S
C277 C279 1.353 . S
C277 H333 0.929 . S
C278 C274 1.356 . S
C278 C275 1.358 . S
C278 H334 0.930 . S
C279 N276 1.314 . S
C279 C277 1.353 . S
C279 H335 0.930 . S
C280 N281 1.314 . S
C280 C285 1.353 . S
C280 H286 0.930 . S
N281 Li264 1.990 . S
N281 C280 1.314 . S
N281 C283 1.279 . S
C282 C283 1.358 . S
C282 C284 1.356 . S
C282 H336 0.930 . S
C283 N281 1.279 . S
C283 C282 1.358 . S
C283 H287 0.930 . S
C284 C282 1.356 . S
C284 C285 1.348 . S
C285 C280 1.353 . S
C285 C284 1.348 . S
C285 H337 0.929 . S
H286 C280 0.930 . S
H287 C283 0.930 . S
C288 N289 1.314 . S
C288 C290 1.353 . S
C288 H294 0.930 . S
N289 Li265 1.990 . S
N289 C288 1.314 . S
N289 C292 1.279 . S
C290 C288 1.353 . S
C290 C293 1.348 . S
C290 H338 0.929 1_554 S
C291 C292 1.358 . S
C291 C293 1.356 . S
C291 H339 0.930 . S
C292 N289 1.279 . S
C292 C291 1.358 . S
C292 H295 0.930 . S
C293 C290 1.348 . S
C293 C291 1.356 . S
H294 C288 0.930 . S
H295 C292 0.930 . S
C296 C298 1.348 . S
C296 C299 1.356 . S
C296 O326 1.325 . S
N297 C300 1.314 . S
N297 C301 1.279 . S
C298 C296 1.348 . S
C298 C300 1.353 . S
C298 H340 0.929 . S
C299 C296 1.356 . S
C299 C301 1.358 . S
C299 H341 0.930 . S
C300 N297 1.314 . S
C300 C298 1.353 . S
C300 H342 0.930 . S
C301 N297 1.279 . S
C301 C299 1.358 . S
C301 H343 0.930 . S
C302 C303 1.348 . S
C302 C304 1.356 . S
C302 O327 1.325 1_556 S
C303 C302 1.348 . S
C303 C305 1.353 . S
C303 H344 0.929 . S
C304 C302 1.356 . S
C304 C306 1.358 . S
C304 H345 0.930 . S
C305 C303 1.353 . S
C305 N307 1.314 . S
C305 H346 0.930 . S
C306 C304 1.358 . S
C306 N307 1.279 . S
C306 H347 0.930 . S
N307 C305 1.314 . S
N307 C306 1.279 . S
C308 C310 1.353 . S
C308 N311 1.314 . S
C308 H314 0.930 . S
C309 N311 1.279 . S
C309 C312 1.358 . S
C309 H315 0.930 . S
C310 C308 1.353 . S
C310 C313 1.348 . S
C310 H348 0.929 . S
N311 Li266 1.990 . S
N311 C308 1.314 . S
N311 C309 1.279 . S
C312 C309 1.358 . S
C312 C313 1.356 . S
C312 H349 0.930 . S
C313 C310 1.348 . S
C313 C312 1.356 . S
H314 C308 0.930 . S
H315 C309 0.930 . S
C316 N317 1.314 . S
C316 C318 1.353 . S
C316 H322 0.930 . S
N317 Li267 1.990 . S
N317 C316 1.314 . S
N317 C320 1.279 1_554 S
C318 C316 1.353 . S
C318 C321 1.348 1_554 S
C318 H350 0.929 . S
C319 C320 1.358 . S
C319 C321 1.356 . S
C319 H351 0.930 . S
C320 N317 1.279 1_556 S
C320 C319 1.358 . S
C320 H323 0.930 . S
C321 C318 1.348 1_556 S
C321 C319 1.356 . S
H322 C316 0.930 . S
H323 C320 0.930 . S
O324 Li264 1.956 . S
O324 Li265 1.970 . S
O324 Li266 1.961 . S
O324 C268 1.325 . S
O325 Li264 1.970 . S
O325 Li265 1.956 . S
O325 Li267 1.961 . S
O325 C274 1.325 . S
O326 Li264 1.961 . S
O326 Li266 1.956 . S
O326 Li267 1.970 . S
O326 C296 1.325 . S
O327 Li265 1.961 . S
O327 Li266 1.970 . S
O327 Li267 1.956 . S
O327 C302 1.325 1_554 S
H328 C270 0.929 . S
H329 C271 0.930 . S
H330 C272 0.930 . S
H331 C273 0.930 . S
H332 C275 0.930 . S
H333 C277 0.929 . S
H334 C278 0.930 . S
H335 C279 0.930 . S
H336 C282 0.930 . S
H337 C285 0.929 . S
H338 C290 0.929 1_556 S
H339 C291 0.930 . S
H340 C298 0.929 . S
H341 C299 0.930 . S
H342 C300 0.930 . S
H343 C301 0.930 . S
H344 C303 0.929 . S
H345 C304 0.930 . S
H346 C305 0.930 . S
H347 C306 0.930 . S
H348 C310 0.929 . S
H349 C312 0.930 . S
H350 C318 0.929 . S
H351 C319 0.930 . S
Li352 N369 1.990 . S
Li352 O412 1.956 . S
Li352 O413 1.970 . S
Li352 O414 1.961 . S
Li353 N377 1.990 . S
Li353 O412 1.970 . S
Li353 O413 1.956 . S
Li353 O415 1.961 . S
Li354 N399 1.990 . S
Li354 O412 1.961 . S
Li354 O414 1.956 . S
Li354 O415 1.970 . S
Li355 N405 1.990 1_655 S
Li355 O413 1.961 . S
Li355 O414 1.970 . S
Li355 O415 1.956 . S
C356 C358 1.348 . S
C356 C359 1.356 . S
C356 O412 1.325 . S
N357 C360 1.314 . S
N357 C361 1.279 . S
C358 C356 1.348 . S
C358 C360 1.353 . S
C358 H416 0.929 . S
C359 C356 1.356 . S
C359 C361 1.358 . S
C359 H417 0.930 . S
C360 N357 1.314 . S
C360 C358 1.353 . S
C360 H418 0.930 . S
C361 N357 1.279 . S
C361 C359 1.358 . S
C361 H419 0.930 . S
C362 C365 1.348 . S
C362 C366 1.356 1_655 S
C362 O413 1.325 . S
C363 N364 1.279 . S
C363 C366 1.358 . S
C363 H420 0.930 . S
N364 C363 1.279 . S
N364 C367 1.314 . S
C365 C362 1.348 . S
C365 C367 1.353 1_655 S
C365 H421 0.929 . S
C366 C362 1.356 1_455 S
C366 C363 1.358 . S
C366 H422 0.930 . S
C367 N364 1.314 . S
C367 C365 1.353 1_455 S
C367 H423 0.930 . S
C368 N369 1.314 . S
C368 C373 1.353 . S
C368 H374 0.930 . S
N369 Li352 1.990 . S
N369 C368 1.314 . S
N369 C371 1.279 . S
C370 C371 1.358 . S
C370 C372 1.356 . S
C370 H424 0.930 . S
C371 N369 1.279 . S
C371 C370 1.358 . S
C371 H375 0.930 . S
C372 C370 1.356 . S
C372 C373 1.348 . S
C373 C368 1.353 . S
C373 C372 1.348 . S
C373 H425 0.929 . S
H374 C368 0.930 . S
H375 C371 0.930 . S
C376 N377 1.314 . S
C376 C378 1.353 . S
C376 H382 0.930 . S
N377 Li353 1.990 . S
N377 C376 1.314 . S
N377 C380 1.279 . S
C378 C376 1.353 . S
C378 C381 1.348 . S
C378 H426 0.929 . S
C379 C380 1.358 . S
C379 C381 1.356 . S
C379 H427 0.930 . S
C380 N377 1.279 . S
C380 C379 1.358 . S
C380 H383 0.930 . S
C381 C378 1.348 . S
C381 C379 1.356 . S
H382 C376 0.930 . S
H383 C380 0.930 . S
C384 C386 1.348 . S
C384 C387 1.356 . S
C384 O414 1.325 . S
N385 C388 1.314 . S
N385 C389 1.279 . S
C386 C384 1.348 . S
C386 C388 1.353 . S
C386 H428 0.929 . S
C387 C384 1.356 . S
C387 C389 1.358 . S
C387 H429 0.930 . S
C388 N385 1.314 . S
C388 C386 1.353 . S
C388 H430 0.930 . S
C389 N385 1.279 . S
C389 C387 1.358 . S
C389 H431 0.930 . S
C390 C391 1.348 . S
C390 C392 1.356 . S
C390 O415 1.325 . S
C391 C390 1.348 . S
C391 C393 1.353 . S
C391 H432 0.929 . S
C392 C390 1.356 . S
C392 C394 1.358 . S
C392 H433 0.930 . S
C393 C391 1.353 . S
C393 N395 1.314 . S
C393 H434 0.930 . S
C394 C392 1.358 . S
C394 N395 1.279 . S
C394 H435 0.930 . S
N395 C393 1.314 . S
N395 C394 1.279 . S
C396 C398 1.353 . S
C396 N399 1.314 . S
C396 H402 0.930 . S
C397 N399 1.279 . S
C397 C400 1.358 . S
C397 H403 0.930 . S
C398 C396 1.353 . S
C398 C401 1.348 . S
C398 H436 0.929 . S
N399 Li354 1.990 . S
N399 C396 1.314 . S
N399 C397 1.279 . S
C400 C397 1.358 . S
C400 C401 1.356 . S
C400 H437 0.930 . S
C401 C398 1.348 . S
C401 C400 1.356 . S
H402 C396 0.930 . S
H403 C397 0.930 . S
C404 N405 1.314 . S
C404 C406 1.353 . S
C404 H410 0.930 . S
N405 Li355 1.990 1_455 S
N405 C404 1.314 . S
N405 C408 1.279 . S
C406 C404 1.353 . S
C406 C409 1.348 . S
C406 H438 0.929 . S
C407 C408 1.358 . S
C407 C409 1.356 . S
C407 H439 0.930 . S
C408 N405 1.279 . S
C408 C407 1.358 . S
C408 H411 0.930 1_455 S
C409 C406 1.348 . S
C409 C407 1.356 . S
H410 C404 0.930 . S
H411 C408 0.930 1_655 S
O412 Li352 1.956 . S
O412 Li353 1.970 . S
O412 Li354 1.961 . S
O412 C356 1.325 . S
O413 Li352 1.970 . S
O413 Li353 1.956 . S
O413 Li355 1.961 . S
O413 C362 1.325 . S
O414 Li352 1.961 . S
O414 Li354 1.956 . S
O414 Li355 1.970 . S
O414 C384 1.325 . S
O415 Li353 1.961 . S
O415 Li354 1.970 . S
O415 Li355 1.956 . S
O415 C390 1.325 . S
H416 C358 0.929 . S
H417 C359 0.930 . S
H418 C360 0.930 . S
H419 C361 0.930 . S
H420 C363 0.930 . S
H421 C365 0.929 . S
H422 C366 0.930 . S
H423 C367 0.930 . S
H424 C370 0.930 . S
H425 C373 0.929 . S
H426 C378 0.929 . S
H427 C379 0.930 . S
H428 C386 0.929 . S
H429 C387 0.930 . S
H430 C388 0.930 . S
H431 C389 0.930 . S
H432 C391 0.929 . S
H433 C392 0.930 . S
H434 C393 0.930 . S
H435 C394 0.930 . S
H436 C398 0.929 . S
H437 C400 0.930 . S
H438 C406 0.929 . S
H439 C407 0.930 . S
Li440 N457 1.990 . S
Li440 O500 1.956 . S
Li440 O501 1.970 . S
Li440 O502 1.961 . S
Li441 N465 1.990 . S
Li441 O500 1.970 . S
Li441 O501 1.956 . S
Li441 O503 1.961 . S
Li442 N487 1.990 . S
Li442 O500 1.961 . S
Li442 O502 1.956 . S
Li442 O503 1.970 . S
Li443 N493 1.990 1_565 S
Li443 O501 1.961 . S
Li443 O502 1.970 . S
Li443 O503 1.956 . S
C444 C446 1.348 . S
C444 C447 1.356 . S
C444 O500 1.325 . S
N445 C448 1.314 . S
N445 C449 1.279 . S
C446 C444 1.348 . S
C446 C448 1.353 . S
C446 H504 0.929 . S
C447 C444 1.356 . S
C447 C449 1.358 . S
C447 H505 0.930 . S
C448 N445 1.314 . S
C448 C446 1.353 . S
C448 H506 0.930 . S
C449 N445 1.279 . S
C449 C447 1.358 . S
C449 H507 0.930 . S
C450 C453 1.348 . S
C450 C454 1.356 1_565 S
C450 O501 1.325 . S
C451 N452 1.279 . S
C451 C454 1.358 . S
C451 H508 0.930 . S
N452 C451 1.279 . S
N452 C455 1.314 . S
C453 C450 1.348 . S
C453 C455 1.353 1_565 S
C453 H509 0.929 . S
C454 C450 1.356 1_545 S
C454 C451 1.358 . S
C454 H510 0.930 . S
C455 N452 1.314 . S
C455 C453 1.353 1_545 S
C455 H511 0.930 . S
C456 N457 1.314 . S
C456 C461 1.353 . S
C456 H462 0.930 . S
N457 Li440 1.990 . S
N457 C456 1.314 . S
N457 C459 1.279 . S
C458 C459 1.358 . S
C458 C460 1.356 . S
C458 H512 0.930 . S
C459 N457 1.279 . S
C459 C458 1.358 . S
C459 H463 0.930 . S
C460 C458 1.356 . S
C460 C461 1.348 . S
C461 C456 1.353 . S
C461 C460 1.348 . S
C461 H513 0.929 . S
H462 C456 0.930 . S
H463 C459 0.930 . S
C464 N465 1.314 . S
C464 C466 1.353 . S
C464 H470 0.930 . S
N465 Li441 1.990 . S
N465 C464 1.314 . S
N465 C468 1.279 . S
C466 C464 1.353 . S
C466 C469 1.348 . S
C466 H514 0.929 . S
C467 C468 1.358 . S
C467 C469 1.356 . S
C467 H515 0.930 . S
C468 N465 1.279 . S
C468 C467 1.358 . S
C468 H471 0.930 . S
C469 C466 1.348 . S
C469 C467 1.356 . S
H470 C464 0.930 . S
H471 C468 0.930 . S
C472 C474 1.348 . S
C472 C475 1.356 . S
C472 O502 1.325 . S
N473 C476 1.314 . S
N473 C477 1.279 . S
C474 C472 1.348 . S
C474 C476 1.353 . S
C474 H516 0.929 . S
C475 C472 1.356 . S
C475 C477 1.358 . S
C475 H517 0.930 . S
C476 N473 1.314 . S
C476 C474 1.353 . S
C476 H518 0.930 . S
C477 N473 1.279 . S
C477 C475 1.358 . S
C477 H519 0.930 . S
C478 C479 1.348 . S
C478 C480 1.356 . S
C478 O503 1.325 . S
C479 C478 1.348 . S
C479 C481 1.353 . S
C479 H520 0.929 . S
C480 C478 1.356 . S
C480 C482 1.358 . S
C480 H521 0.930 . S
C481 C479 1.353 . S
C481 N483 1.314 . S
C481 H522 0.930 . S
C482 C480 1.358 . S
C482 N483 1.279 . S
C482 H523 0.930 . S
N483 C481 1.314 . S
N483 C482 1.279 . S
C484 C486 1.353 . S
C484 N487 1.314 . S
C484 H490 0.930 . S
C485 N487 1.279 . S
C485 C488 1.358 . S
C485 H491 0.930 . S
C486 C484 1.353 . S
C486 C489 1.348 . S
C486 H524 0.929 . S
N487 Li442 1.990 . S
N487 C484 1.314 . S
N487 C485 1.279 . S
C488 C485 1.358 . S
C488 C489 1.356 . S
C488 H525 0.930 . S
C489 C486 1.348 . S
C489 C488 1.356 . S
H490 C484 0.930 . S
H491 C485 0.930 . S
C492 N493 1.314 . S
C492 C494 1.353 . S
C492 H498 0.930 . S
N493 Li443 1.990 1_545 S
N493 C492 1.314 . S
N493 C496 1.279 . S
C494 C492 1.353 . S
C494 C497 1.348 . S
C494 H526 0.929 . S
C495 C496 1.358 . S
C495 C497 1.356 . S
C495 H527 0.930 . S
C496 N493 1.279 . S
C496 C495 1.358 . S
C496 H499 0.930 1_545 S
C497 C494 1.348 . S
C497 C495 1.356 . S
H498 C492 0.930 . S
H499 C496 0.930 1_565 S
O500 Li440 1.956 . S
O500 Li441 1.970 . S
O500 Li442 1.961 . S
O500 C444 1.325 . S
O501 Li440 1.970 . S
O501 Li441 1.956 . S
O501 Li443 1.961 . S
O501 C450 1.325 . S
O502 Li440 1.961 . S
O502 Li442 1.956 . S
O502 Li443 1.970 . S
O502 C472 1.325 . S
O503 Li441 1.961 . S
O503 Li442 1.970 . S
O503 Li443 1.956 . S
O503 C478 1.325 . S
H504 C446 0.929 . S
H505 C447 0.930 . S
H506 C448 0.930 . S
H507 C449 0.930 . S
H508 C451 0.930 . S
H509 C453 0.929 . S
H510 C454 0.930 . S
H511 C455 0.930 . S
H512 C458 0.930 . S
H513 C461 0.929 . S
H514 C466 0.929 . S
H515 C467 0.930 . S
H516 C474 0.929 . S
H517 C475 0.930 . S
H518 C476 0.930 . S
H519 C477 0.930 . S
H520 C479 0.929 . S
H521 C480 0.930 . S
H522 C481 0.930 . S
H523 C482 0.930 . S
H524 C486 0.929 . S
H525 C488 0.930 . S
H526 C494 0.929 . S
H527 C495 0.930 . S
Li528 N545 1.990 . S
Li528 O588 1.956 . S
Li528 O589 1.970 . S
Li528 O590 1.961 . S
Li529 N553 1.990 . S
Li529 O588 1.970 . S
Li529 O589 1.956 . S
Li529 O591 1.961 . S
Li530 N575 1.990 . S
Li530 O588 1.961 . S
Li530 O590 1.956 . S
Li530 O591 1.970 . S
Li531 N581 1.990 . S
Li531 O589 1.961 . S
Li531 O590 1.970 . S
Li531 O591 1.956 . S
C532 C534 1.348 . S
C532 C535 1.356 . S
C532 O588 1.325 . S
N533 C536 1.314 . S
N533 C537 1.279 . S
C534 C532 1.348 . S
C534 C536 1.353 . S
C534 H592 0.929 . S
C535 C532 1.356 . S
C535 C537 1.358 . S
C535 H593 0.930 . S
C536 N533 1.314 . S
C536 C534 1.353 . S
C536 H594 0.930 . S
C537 N533 1.279 . S
C537 C535 1.358 . S
C537 H595 0.930 . S
C538 C541 1.348 . S
C538 C542 1.356 . S
C538 O589 1.325 . S
C539 N540 1.279 . S
C539 C542 1.358 . S
C539 H596 0.930 . S
N540 C539 1.279 . S
N540 C543 1.314 . S
C541 C538 1.348 . S
C541 C543 1.353 . S
C541 H597 0.929 . S
C542 C538 1.356 . S
C542 C539 1.358 . S
C542 H598 0.930 . S
C543 N540 1.314 . S
C543 C541 1.353 . S
C543 H599 0.930 . S
C544 N545 1.314 . S
C544 C549 1.353 . S
C544 H550 0.930 . S
N545 Li528 1.990 . S
N545 C544 1.314 . S
N545 C547 1.279 . S
C546 C547 1.358 . S
C546 C548 1.356 . S
C546 H600 0.930 . S
C547 N545 1.279 . S
C547 C546 1.358 . S
C547 H551 0.930 . S
C548 C546 1.356 . S
C548 C549 1.348 . S
C549 C544 1.353 . S
C549 C548 1.348 . S
C549 H601 0.929 . S
H550 C544 0.930 . S
H551 C547 0.930 . S
C552 N553 1.314 . S
C552 C554 1.353 . S
C552 H558 0.930 . S
N553 Li529 1.990 . S
N553 C552 1.314 . S
N553 C556 1.279 . S
C554 C552 1.353 . S
C554 C557 1.348 . S
C554 H602 0.929 . S
C555 C556 1.358 . S
C555 C557 1.356 . S
C555 H603 0.930 . S
C556 N553 1.279 . S
C556 C555 1.358 . S
C556 H559 0.930 . S
C557 C554 1.348 . S
C557 C555 1.356 . S
H558 C552 0.930 . S
H559 C556 0.930 . S
C560 C562 1.348 . S
C560 C563 1.356 . S
C560 O590 1.325 . S
N561 C564 1.314 . S
N561 C565 1.279 . S
C562 C560 1.348 . S
C562 C564 1.353 . S
C562 H604 0.929 . S
C563 C560 1.356 . S
C563 C565 1.358 . S
C563 H605 0.930 . S
C564 N561 1.314 . S
C564 C562 1.353 . S
C564 H606 0.930 . S
C565 N561 1.279 . S
C565 C563 1.358 . S
C565 H607 0.930 . S
C566 C567 1.348 . S
C566 C568 1.356 . S
C566 O591 1.325 . S
C567 C566 1.348 . S
C567 C569 1.353 . S
C567 H608 0.929 . S
C568 C566 1.356 . S
C568 C570 1.358 . S
C568 H609 0.930 . S
C569 C567 1.353 . S
C569 N571 1.314 . S
C569 H610 0.930 . S
C570 C568 1.358 . S
C570 N571 1.279 . S
C570 H611 0.930 . S
N571 C569 1.314 . S
N571 C570 1.279 . S
C572 C574 1.353 . S
C572 N575 1.314 . S
C572 H578 0.930 . S
C573 N575 1.279 . S
C573 C576 1.358 . S
C573 H579 0.930 . S
C574 C572 1.353 . S
C574 C577 1.348 . S
C574 H612 0.929 . S
N575 Li530 1.990 . S
N575 C572 1.314 . S
N575 C573 1.279 . S
C576 C573 1.358 . S
C576 C577 1.356 . S
C576 H613 0.930 . S
C577 C574 1.348 . S
C577 C576 1.356 . S
H578 C572 0.930 . S
H579 C573 0.930 . S
C580 N581 1.314 . S
C580 C582 1.353 . S
C580 H586 0.930 . S
N581 Li531 1.990 . S
N581 C580 1.314 . S
N581 C584 1.279 . S
C582 C580 1.353 . S
C582 C585 1.348 . S
C582 H614 0.929 . S
C583 C584 1.358 . S
C583 C585 1.356 . S
C583 H615 0.930 . S
C584 N581 1.279 . S
C584 C583 1.358 . S
C584 H587 0.930 . S
C585 C582 1.348 . S
C585 C583 1.356 . S
H586 C580 0.930 . S
H587 C584 0.930 . S
O588 Li528 1.956 . S
O588 Li529 1.970 . S
O588 Li530 1.961 . S
O588 C532 1.325 . S
O589 Li528 1.970 . S
O589 Li529 1.956 . S
O589 Li531 1.961 . S
O589 C538 1.325 . S
O590 Li528 1.961 . S
O590 Li530 1.956 . S
O590 Li531 1.970 . S
O590 C560 1.325 . S
O591 Li529 1.961 . S
O591 Li530 1.970 . S
O591 Li531 1.956 . S
O591 C566 1.325 . S
H592 C534 0.929 . S
H593 C535 0.930 . S
H594 C536 0.930 . S
H595 C537 0.930 . S
H596 C539 0.930 . S
H597 C541 0.929 . S
H598 C542 0.930 . S
H599 C543 0.930 . S
H600 C546 0.930 . S
H601 C549 0.929 . S
H602 C554 0.929 . S
H603 C555 0.930 . S
H604 C562 0.929 . S
H605 C563 0.930 . S
H606 C564 0.930 . S
H607 C565 0.930 . S
H608 C567 0.929 . S
H609 C568 0.930 . S
H610 C569 0.930 . S
H611 C570 0.930 . S
H612 C574 0.929 . S
H613 C576 0.930 . S
H614 C582 0.929 . S
H615 C583 0.930 . S
Li616 N633 1.990 . S
Li616 O676 1.956 . S
Li616 O677 1.970 . S
Li616 O678 1.961 . S
Li617 N641 1.990 1_455 S
Li617 O676 1.970 . S
Li617 O677 1.956 . S
Li617 O679 1.961 . S
Li618 N663 1.990 . S
Li618 O676 1.961 . S
Li618 O678 1.956 . S
Li618 O679 1.970 . S
Li619 N669 1.990 . S
Li619 O677 1.961 . S
Li619 O678 1.970 . S
Li619 O679 1.956 . S
C620 C622 1.348 . S
C620 C623 1.356 . S
C620 O676 1.325 1_554 S
N621 C624 1.314 . S
N621 C625 1.279 . S
C622 C620 1.348 . S
C622 C624 1.353 . S
C622 H680 0.929 . S
C623 C620 1.356 . S
C623 C625 1.358 . S
C623 H681 0.930 . S
C624 N621 1.314 . S
C624 C622 1.353 . S
C624 H682 0.930 . S
C625 N621 1.279 . S
C625 C623 1.358 . S
C625 H683 0.930 . S
C626 C629 1.348 . S
C626 C630 1.356 . S
C626 O677 1.325 . S
C627 N628 1.279 . S
C627 C630 1.358 . S
C627 H684 0.930 . S
N628 C627 1.279 . S
N628 C631 1.314 . S
C629 C626 1.348 . S
C629 C631 1.353 . S
C629 H685 0.929 . S
C630 C626 1.356 . S
C630 C627 1.358 . S
C630 H686 0.930 . S
C631 N628 1.314 . S
C631 C629 1.353 . S
C631 H687 0.930 . S
C632 N633 1.314 . S
C632 C637 1.353 . S
C632 H638 0.930 . S
N633 Li616 1.990 . S
N633 C632 1.314 . S
N633 C635 1.279 1_556 S
C634 C635 1.358 . S
C634 C636 1.356 . S
C634 H688 0.930 . S
C635 N633 1.279 1_554 S
C635 C634 1.358 . S
C635 H639 0.930 . S
C636 C634 1.356 . S
C636 C637 1.348 1_554 S
C637 C632 1.353 . S
C637 C636 1.348 1_556 S
C637 H689 0.929 . S
H638 C632 0.930 . S
H639 C635 0.930 . S
C640 N641 1.314 . S
C640 C642 1.353 . S
C640 H646 0.930 . S
N641 Li617 1.990 1_655 S
N641 C640 1.314 . S
N641 C644 1.279 . S
C642 C640 1.353 . S
C642 C645 1.348 . S
C642 H690 0.929 . S
C643 C644 1.358 . S
C643 C645 1.356 . S
C643 H691 0.930 . S
C644 N641 1.279 . S
C644 C643 1.358 . S
C644 H647 0.930 1_655 S
C645 C642 1.348 . S
C645 C643 1.356 . S
H646 C640 0.930 . S
H647 C644 0.930 1_455 S
C648 C650 1.348 . S
C648 C651 1.356 . S
C648 O678 1.325 . S
N649 C652 1.314 . S
N649 C653 1.279 . S
C650 C648 1.348 . S
C650 C652 1.353 . S
C650 H692 0.929 . S
C651 C648 1.356 . S
C651 C653 1.358 . S
C651 H693 0.930 . S
C652 N649 1.314 . S
C652 C650 1.353 . S
C652 H694 0.930 . S
C653 N649 1.279 . S
C653 C651 1.358 . S
C653 H695 0.930 . S
C654 C655 1.348 . S
C654 C656 1.356 1_455 S
C654 O679 1.325 . S
C655 C654 1.348 . S
C655 C657 1.353 1_455 S
C655 H696 0.929 . S
C656 C654 1.356 1_655 S
C656 C658 1.358 . S
C656 H697 0.930 . S
C657 C655 1.353 1_655 S
C657 N659 1.314 . S
C657 H698 0.930 . S
C658 C656 1.358 . S
C658 N659 1.279 . S
C658 H699 0.930 . S
N659 C657 1.314 . S
N659 C658 1.279 . S
C660 C662 1.353 . S
C660 N663 1.314 . S
C660 H666 0.930 . S
C661 N663 1.279 . S
C661 C664 1.358 . S
C661 H667 0.930 . S
C662 C660 1.353 . S
C662 C665 1.348 . S
C662 H700 0.929 1_556 S
N663 Li618 1.990 . S
N663 C660 1.314 . S
N663 C661 1.279 . S
C664 C661 1.358 . S
C664 C665 1.356 . S
C664 H701 0.930 . S
C665 C662 1.348 . S
C665 C664 1.356 . S
H666 C660 0.930 . S
H667 C661 0.930 . S
C668 N669 1.314 . S
C668 C670 1.353 . S
C668 H674 0.930 . S
N669 Li619 1.990 . S
N669 C668 1.314 . S
N669 C672 1.279 . S
C670 C668 1.353 . S
C670 C673 1.348 . S
C670 H702 0.929 . S
C671 C672 1.358 . S
C671 C673 1.356 . S
C671 H703 0.930 . S
C672 N669 1.279 . S
C672 C671 1.358 . S
C672 H675 0.930 . S
C673 C670 1.348 . S
C673 C671 1.356 . S
H674 C668 0.930 . S
H675 C672 0.930 . S
O676 Li616 1.956 . S
O676 Li617 1.970 . S
O676 Li618 1.961 . S
O676 C620 1.325 1_556 S
O677 Li616 1.970 . S
O677 Li617 1.956 . S
O677 Li619 1.961 . S
O677 C626 1.325 . S
O678 Li616 1.961 . S
O678 Li618 1.956 . S
O678 Li619 1.970 . S
O678 C648 1.325 . S
O679 Li617 1.961 . S
O679 Li618 1.970 . S
O679 Li619 1.956 . S
O679 C654 1.325 . S
H680 C622 0.929 . S
H681 C623 0.930 . S
H682 C624 0.930 . S
H683 C625 0.930 . S
H684 C627 0.930 . S
H685 C629 0.929 . S
H686 C630 0.930 . S
H687 C631 0.930 . S
H688 C634 0.930 . S
H689 C637 0.929 . S
H690 C642 0.929 . S
H691 C643 0.930 . S
H692 C650 0.929 . S
H693 C651 0.930 . S
H694 C652 0.930 . S
H695 C653 0.930 . S
H696 C655 0.929 . S
H697 C656 0.930 . S
H698 C657 0.930 . S
H699 C658 0.930 . S
H700 C662 0.929 1_554 S
H701 C664 0.930 . S
H702 C670 0.929 . S
H703 C671 0.930 . S
Li704 N721 1.990 1_545 S
Li704 O764 1.956 . S
Li704 O765 1.970 . S
Li704 O766 1.961 . S
Li705 N729 1.990 . S
Li705 O764 1.970 . S
Li705 O765 1.956 . S
Li705 O767 1.961 . S
Li706 N751 1.990 . S
Li706 O764 1.961 . S
Li706 O766 1.956 . S
Li706 O767 1.970 . S
Li707 N757 1.990 . S
Li707 O765 1.961 . S
Li707 O766 1.970 . S
Li707 O767 1.956 . S
C708 C710 1.348 . S
C708 C711 1.356 . S
C708 O764 1.325 . S
N709 C712 1.314 . S
N709 C713 1.279 . S
C710 C708 1.348 . S
C710 C712 1.353 . S
C710 H768 0.929 . S
C711 C708 1.356 . S
C711 C713 1.358 . S
C711 H769 0.930 . S
C712 N709 1.314 . S
C712 C710 1.353 . S
C712 H770 0.930 . S
C713 N709 1.279 . S
C713 C711 1.358 . S
C713 H771 0.930 . S
C714 C717 1.348 . S
C714 C718 1.356 . S
C714 O765 1.325 . S
C715 N716 1.279 . S
C715 C718 1.358 . S
C715 H772 0.930 . S
N716 C715 1.279 . S
N716 C719 1.314 . S
C717 C714 1.348 . S
C717 C719 1.353 . S
C717 H773 0.929 . S
C718 C714 1.356 . S
C718 C715 1.358 . S
C718 H774 0.930 . S
C719 N716 1.314 . S
C719 C717 1.353 . S
C719 H775 0.930 . S
C720 N721 1.314 . S
C720 C725 1.353 . S
C720 H726 0.930 . S
N721 Li704 1.990 1_565 S
N721 C720 1.314 . S
N721 C723 1.279 . S
C722 C723 1.358 . S
C722 C724 1.356 . S
C722 H776 0.930 . S
C723 N721 1.279 . S
C723 C722 1.358 . S
C723 H727 0.930 1_565 S
C724 C722 1.356 . S
C724 C725 1.348 . S
C725 C720 1.353 . S
C725 C724 1.348 . S
C725 H777 0.929 . S
H726 C720 0.930 . S
H727 C723 0.930 1_545 S
C728 N729 1.314 . S
C728 C730 1.353 . S
C728 H734 0.930 . S
N729 Li705 1.990 . S
N729 C728 1.314 . S
N729 C732 1.279 . S
C730 C728 1.353 . S
C730 C733 1.348 . S
C730 H778 0.929 . S
C731 C732 1.358 . S
C731 C733 1.356 . S
C731 H779 0.930 . S
C732 N729 1.279 . S
C732 C731 1.358 . S
C732 H735 0.930 . S
C733 C730 1.348 . S
C733 C731 1.356 . S
H734 C728 0.930 . S
H735 C732 0.930 . S
C736 C738 1.348 . S
C736 C739 1.356 1_545 S
C736 O766 1.325 . S
N737 C740 1.314 . S
N737 C741 1.279 . S
C738 C736 1.348 . S
C738 C740 1.353 1_545 S
C738 H780 0.929 . S
C739 C736 1.356 1_565 S
C739 C741 1.358 . S
C739 H781 0.930 . S
C740 N737 1.314 . S
C740 C738 1.353 1_565 S
C740 H782 0.930 . S
C741 N737 1.279 . S
C741 C739 1.358 . S
C741 H783 0.930 . S
C742 C743 1.348 . S
C742 C744 1.356 . S
C742 O767 1.325 . S
C743 C742 1.348 . S
C743 C745 1.353 . S
C743 H784 0.929 . S
C744 C742 1.356 . S
C744 C746 1.358 . S
C744 H785 0.930 . S
C745 C743 1.353 . S
C745 N747 1.314 . S
C745 H786 0.930 . S
C746 C744 1.358 . S
C746 N747 1.279 . S
C746 H787 0.930 . S
N747 C745 1.314 . S
N747 C746 1.279 . S
C748 C750 1.353 . S
C748 N751 1.314 . S
C748 H754 0.930 . S
C749 N751 1.279 . S
C749 C752 1.358 . S
C749 H755 0.930 . S
C750 C748 1.353 . S
C750 C753 1.348 . S
C750 H788 0.929 . S
N751 Li706 1.990 . S
N751 C748 1.314 . S
N751 C749 1.279 . S
C752 C749 1.358 . S
C752 C753 1.356 . S
C752 H789 0.930 . S
C753 C750 1.348 . S
C753 C752 1.356 . S
H754 C748 0.930 . S
H755 C749 0.930 . S
C756 N757 1.314 . S
C756 C758 1.353 . S
C756 H762 0.930 . S
N757 Li707 1.990 . S
N757 C756 1.314 . S
N757 C760 1.279 . S
C758 C756 1.353 . S
C758 C761 1.348 . S
C758 H790 0.929 . S
C759 C760 1.358 . S
C759 C761 1.356 . S
C759 H791 0.930 . S
C760 N757 1.279 . S
C760 C759 1.358 . S
C760 H763 0.930 . S
C761 C758 1.348 . S
C761 C759 1.356 . S
H762 C756 0.930 . S
H763 C760 0.930 . S
O764 Li704 1.956 . S
O764 Li705 1.970 . S
O764 Li706 1.961 . S
O764 C708 1.325 . S
O765 Li704 1.970 . S
O765 Li705 1.956 . S
O765 Li707 1.961 . S
O765 C714 1.325 . S
O766 Li704 1.961 . S
O766 Li706 1.956 . S
O766 Li707 1.970 . S
O766 C736 1.325 . S
O767 Li705 1.961 . S
O767 Li706 1.970 . S
O767 Li707 1.956 . S
O767 C742 1.325 . S
H768 C710 0.929 . S
H769 C711 0.930 . S
H770 C712 0.930 . S
H771 C713 0.930 . S
H772 C715 0.930 . S
H773 C717 0.929 . S
H774 C718 0.930 . S
H775 C719 0.930 . S
H776 C722 0.930 . S
H777 C725 0.929 . S
H778 C730 0.929 . S
H779 C731 0.930 . S
H780 C738 0.929 . S
H781 C739 0.930 . S
H782 C740 0.930 . S
H783 C741 0.930 . S
H784 C743 0.929 . S
H785 C744 0.930 . S
H786 C745 0.930 . S
H787 C746 0.930 . S
H788 C750 0.929 . S
H789 C752 0.930 . S
H790 C758 0.929 . S
H791 C759 0.930 . S
Li792 N809 1.990 . S
Li792 O852 1.956 . S
Li792 O853 1.970 . S
Li792 O854 1.961 . S
Li793 N817 1.990 . S
Li793 O852 1.970 . S
Li793 O853 1.956 . S
Li793 O855 1.961 . S
Li794 N839 1.990 . S
Li794 O852 1.961 . S
Li794 O854 1.956 . S
Li794 O855 1.970 . S
Li795 N845 1.990 . S
Li795 O853 1.961 . S
Li795 O854 1.970 . S
Li795 O855 1.956 . S
C796 C798 1.348 . S
C796 C799 1.356 . S
C796 O852 1.325 . S
N797 C800 1.314 . S
N797 C801 1.279 . S
C798 C796 1.348 . S
C798 C800 1.353 . S
C798 H856 0.929 . S
C799 C796 1.356 . S
C799 C801 1.358 . S
C799 H857 0.930 . S
C800 N797 1.314 . S
C800 C798 1.353 . S
C800 H858 0.930 . S
C801 N797 1.279 . S
C801 C799 1.358 . S
C801 H859 0.930 . S
C802 C805 1.348 . S
C802 C806 1.356 . S
C802 O853 1.325 . S
C803 N804 1.279 . S
C803 C806 1.358 . S
C803 H860 0.930 . S
N804 C803 1.279 . S
N804 C807 1.314 . S
C805 C802 1.348 . S
C805 C807 1.353 . S
C805 H861 0.929 . S
C806 C802 1.356 . S
C806 C803 1.358 . S
C806 H862 0.930 . S
C807 N804 1.314 . S
C807 C805 1.353 . S
C807 H863 0.930 . S
C808 N809 1.314 . S
C808 C813 1.353 . S
C808 H814 0.930 . S
N809 Li792 1.990 . S
N809 C808 1.314 . S
N809 C811 1.279 . S
C810 C811 1.358 . S
C810 C812 1.356 . S
C810 H864 0.930 . S
C811 N809 1.279 . S
C811 C810 1.358 . S
C811 H815 0.930 . S
C812 C810 1.356 . S
C812 C813 1.348 . S
C813 C808 1.353 . S
C813 C812 1.348 . S
C813 H865 0.929 . S
H814 C808 0.930 . S
H815 C811 0.930 . S
C816 N817 1.314 . S
C816 C818 1.353 . S
C816 H822 0.930 . S
N817 Li793 1.990 . S
N817 C816 1.314 . S
N817 C820 1.279 . S
C818 C816 1.353 . S
C818 C821 1.348 . S
C818 H866 0.929 . S
C819 C820 1.358 . S
C819 C821 1.356 . S
C819 H867 0.930 . S
C820 N817 1.279 . S
C820 C819 1.358 . S
C820 H823 0.930 . S
C821 C818 1.348 . S
C821 C819 1.356 . S
H822 C816 0.930 . S
H823 C820 0.930 . S
C824 C826 1.348 . S
C824 C827 1.356 . S
C824 O854 1.325 . S
N825 C828 1.314 . S
N825 C829 1.279 . S
C826 C824 1.348 . S
C826 C828 1.353 . S
C826 H868 0.929 . S
C827 C824 1.356 . S
C827 C829 1.358 . S
C827 H869 0.930 . S
C828 N825 1.314 . S
C828 C826 1.353 . S
C828 H870 0.930 . S
C829 N825 1.279 . S
C829 C827 1.358 . S
C829 H871 0.930 . S
C830 C831 1.348 . S
C830 C832 1.356 . S
C830 O855 1.325 . S
C831 C830 1.348 . S
C831 C833 1.353 . S
C831 H872 0.929 . S
C832 C830 1.356 . S
C832 C834 1.358 . S
C832 H873 0.930 . S
C833 C831 1.353 . S
C833 N835 1.314 . S
C833 H874 0.930 . S
C834 C832 1.358 . S
C834 N835 1.279 . S
C834 H875 0.930 . S
N835 C833 1.314 . S
N835 C834 1.279 . S
C836 C838 1.353 . S
C836 N839 1.314 . S
C836 H842 0.930 . S
C837 N839 1.279 . S
C837 C840 1.358 . S
C837 H843 0.930 . S
C838 C836 1.353 . S
C838 C841 1.348 . S
C838 H876 0.929 . S
N839 Li794 1.990 . S
N839 C836 1.314 . S
N839 C837 1.279 . S
C840 C837 1.358 . S
C840 C841 1.356 . S
C840 H877 0.930 . S
C841 C838 1.348 . S
C841 C840 1.356 . S
H842 C836 0.930 . S
H843 C837 0.930 . S
C844 N845 1.314 . S
C844 C846 1.353 . S
C844 H850 0.930 . S
N845 Li795 1.990 . S
N845 C844 1.314 . S
N845 C848 1.279 . S
C846 C844 1.353 . S
C846 C849 1.348 . S
C846 H878 0.929 . S
C847 C848 1.358 . S
C847 C849 1.356 . S
C847 H879 0.930 . S
C848 N845 1.279 . S
C848 C847 1.358 . S
C848 H851 0.930 . S
C849 C846 1.348 . S
C849 C847 1.356 . S
H850 C844 0.930 . S
H851 C848 0.930 . S
O852 Li792 1.956 . S
O852 Li793 1.970 . S
O852 Li794 1.961 . S
O852 C796 1.325 . S
O853 Li792 1.970 . S
O853 Li793 1.956 . S
O853 Li795 1.961 . S
O853 C802 1.325 . S
O854 Li792 1.961 . S
O854 Li794 1.956 . S
O854 Li795 1.970 . S
O854 C824 1.325 . S
O855 Li793 1.961 . S
O855 Li794 1.970 . S
O855 Li795 1.956 . S
O855 C830 1.325 . S
H856 C798 0.929 . S
H857 C799 0.930 . S
H858 C800 0.930 . S
H859 C801 0.930 . S
H860 C803 0.930 . S
H861 C805 0.929 . S
H862 C806 0.930 . S
H863 C807 0.930 . S
H864 C810 0.930 . S
H865 C813 0.929 . S
H866 C818 0.929 . S
H867 C819 0.930 . S
H868 C826 0.929 . S
H869 C827 0.930 . S
H870 C828 0.930 . S
H871 C829 0.930 . S
H872 C831 0.929 . S
H873 C832 0.930 . S
H874 C833 0.930 . S
H875 C834 0.930 . S
H876 C838 0.929 . S
H877 C840 0.930 . S
H878 C846 0.929 . S
H879 C847 0.930 . S
Li880 N897 1.990 . S
Li880 O940 1.956 . S
Li880 O941 1.970 . S
Li880 O942 1.961 . S
Li881 N905 1.990 1_655 S
Li881 O940 1.970 . S
Li881 O941 1.956 . S
Li881 O943 1.961 . S
Li882 N927 1.990 . S
Li882 O940 1.961 . S
Li882 O942 1.956 . S
Li882 O943 1.970 . S
Li883 N933 1.990 . S
Li883 O941 1.961 . S
Li883 O942 1.970 . S
Li883 O943 1.956 . S
C884 C886 1.348 . S
C884 C887 1.356 . S
C884 O940 1.325 1_554 S
N885 C888 1.314 . S
N885 C889 1.279 . S
C886 C884 1.348 . S
C886 C888 1.353 . S
C886 H944 0.929 . S
C887 C884 1.356 . S
C887 C889 1.358 . S
C887 H945 0.930 . S
C888 N885 1.314 . S
C888 C886 1.353 . S
C888 H946 0.930 . S
C889 N885 1.279 . S
C889 C887 1.358 . S
C889 H947 0.930 . S
C890 C893 1.348 . S
C890 C894 1.356 . S
C890 O941 1.325 . S
C891 N892 1.279 . S
C891 C894 1.358 . S
C891 H948 0.930 . S
N892 C891 1.279 . S
N892 C895 1.314 . S
C893 C890 1.348 . S
C893 C895 1.353 . S
C893 H949 0.929 . S
C894 C890 1.356 . S
C894 C891 1.358 . S
C894 H950 0.930 . S
C895 N892 1.314 . S
C895 C893 1.353 . S
C895 H951 0.930 . S
C896 N897 1.314 . S
C896 C901 1.353 . S
C896 H902 0.930 . S
N897 Li880 1.990 . S
N897 C896 1.314 . S
N897 C899 1.279 1_556 S
C898 C899 1.358 . S
C898 C900 1.356 . S
C898 H952 0.930 . S
C899 N897 1.279 1_554 S
C899 C898 1.358 . S
C899 H903 0.930 . S
C900 C898 1.356 . S
C900 C901 1.348 1_554 S
C901 C896 1.353 . S
C901 C900 1.348 1_556 S
C901 H953 0.929 . S
H902 C896 0.930 . S
H903 C899 0.930 . S
C904 N905 1.314 . S
C904 C906 1.353 . S
C904 H910 0.930 . S
N905 Li881 1.990 1_455 S
N905 C904 1.314 . S
N905 C908 1.279 . S
C906 C904 1.353 . S
C906 C909 1.348 . S
C906 H954 0.929 . S
C907 C908 1.358 . S
C907 C909 1.356 . S
C907 H955 0.930 . S
C908 N905 1.279 . S
C908 C907 1.358 . S
C908 H911 0.930 1_455 S
C909 C906 1.348 . S
C909 C907 1.356 . S
H910 C904 0.930 . S
H911 C908 0.930 1_655 S
C912 C914 1.348 . S
C912 C915 1.356 . S
C912 O942 1.325 . S
N913 C916 1.314 . S
N913 C917 1.279 . S
C914 C912 1.348 . S
C914 C916 1.353 . S
C914 H956 0.929 . S
C915 C912 1.356 . S
C915 C917 1.358 . S
C915 H957 0.930 . S
C916 N913 1.314 . S
C916 C914 1.353 . S
C916 H958 0.930 . S
C917 N913 1.279 . S
C917 C915 1.358 . S
C917 H959 0.930 . S
C918 C919 1.348 . S
C918 C920 1.356 1_655 S
C918 O943 1.325 . S
C919 C918 1.348 . S
C919 C921 1.353 1_655 S
C919 H960 0.929 . S
C920 C918 1.356 1_455 S
C920 C922 1.358 . S
C920 H961 0.930 . S
C921 C919 1.353 1_455 S
C921 N923 1.314 . S
C921 H962 0.930 . S
C922 C920 1.358 . S
C922 N923 1.279 . S
C922 H963 0.930 . S
N923 C921 1.314 . S
N923 C922 1.279 . S
C924 C926 1.353 . S
C924 N927 1.314 . S
C924 H930 0.930 . S
C925 N927 1.279 . S
C925 C928 1.358 . S
C925 H931 0.930 . S
C926 C924 1.353 . S
C926 C929 1.348 . S
C926 H964 0.929 1_556 S
N927 Li882 1.990 . S
N927 C924 1.314 . S
N927 C925 1.279 . S
C928 C925 1.358 . S
C928 C929 1.356 . S
C928 H965 0.930 . S
C929 C926 1.348 . S
C929 C928 1.356 . S
H930 C924 0.930 . S
H931 C925 0.930 . S
C932 N933 1.314 . S
C932 C934 1.353 . S
C932 H938 0.930 . S
N933 Li883 1.990 . S
N933 C932 1.314 . S
N933 C936 1.279 . S
C934 C932 1.353 . S
C934 C937 1.348 . S
C934 H966 0.929 . S
C935 C936 1.358 . S
C935 C937 1.356 . S
C935 H967 0.930 . S
C936 N933 1.279 . S
C936 C935 1.358 . S
C936 H939 0.930 . S
C937 C934 1.348 . S
C937 C935 1.356 . S
H938 C932 0.930 . S
H939 C936 0.930 . S
O940 Li880 1.956 . S
O940 Li881 1.970 . S
O940 Li882 1.961 . S
O940 C884 1.325 1_556 S
O941 Li880 1.970 . S
O941 Li881 1.956 . S
O941 Li883 1.961 . S
O941 C890 1.325 . S
O942 Li880 1.961 . S
O942 Li882 1.956 . S
O942 Li883 1.970 . S
O942 C912 1.325 . S
O943 Li881 1.961 . S
O943 Li882 1.970 . S
O943 Li883 1.956 . S
O943 C918 1.325 . S
H944 C886 0.929 . S
H945 C887 0.930 . S
H946 C888 0.930 . S
H947 C889 0.930 . S
H948 C891 0.930 . S
H949 C893 0.929 . S
H950 C894 0.930 . S
H951 C895 0.930 . S
H952 C898 0.930 . S
H953 C901 0.929 . S
H954 C906 0.929 . S
H955 C907 0.930 . S
H956 C914 0.929 . S
H957 C915 0.930 . S
H958 C916 0.930 . S
H959 C917 0.930 . S
H960 C919 0.929 . S
H961 C920 0.930 . S
H962 C921 0.930 . S
H963 C922 0.930 . S
H964 C926 0.929 1_554 S
H965 C928 0.930 . S
H966 C934 0.929 . S
H967 C935 0.930 . S
Li968 N985 1.990 1_565 S
Li968 O1028 1.956 . S
Li968 O1029 1.970 . S
Li968 O1030 1.961 . S
Li969 N993 1.990 . S
Li969 O1028 1.970 . S
Li969 O1029 1.956 . S
Li969 O1031 1.961 . S
Li970 N1015 1.990 . S
Li970 O1028 1.961 . S
Li970 O1030 1.956 . S
Li970 O1031 1.970 . S
Li971 N1021 1.990 . S
Li971 O1029 1.961 . S
Li971 O1030 1.970 . S
Li971 O1031 1.956 . S
C972 C974 1.348 . S
C972 C975 1.356 . S
C972 O1028 1.325 . S
N973 C976 1.314 . S
N973 C977 1.279 . S
C974 C972 1.348 . S
C974 C976 1.353 . S
C974 H1032 0.929 . S
C975 C972 1.356 . S
C975 C977 1.358 . S
C975 H1033 0.930 . S
C976 N973 1.314 . S
C976 C974 1.353 . S
C976 H1034 0.930 . S
C977 N973 1.279 . S
C977 C975 1.358 . S
C977 H1035 0.930 . S
C978 C981 1.348 . S
C978 C982 1.356 . S
C978 O1029 1.325 . S
C979 N980 1.279 . S
C979 C982 1.358 . S
C979 H1036 0.930 . S
N980 C979 1.279 . S
N980 C983 1.314 . S
C981 C978 1.348 . S
C981 C983 1.353 . S
C981 H1037 0.929 . S
C982 C978 1.356 . S
C982 C979 1.358 . S
C982 H1038 0.930 . S
C983 N980 1.314 . S
C983 C981 1.353 . S
C983 H1039 0.930 . S
C984 N985 1.314 . S
C984 C989 1.353 . S
C984 H990 0.930 . S
N985 Li968 1.990 1_545 S
N985 C984 1.314 . S
N985 C987 1.279 . S
C986 C987 1.358 . S
C986 C988 1.356 . S
C986 H1040 0.930 . S
C987 N985 1.279 . S
C987 C986 1.358 . S
C987 H991 0.930 1_545 S
C988 C986 1.356 . S
C988 C989 1.348 . S
C989 C984 1.353 . S
C989 C988 1.348 . S
C989 H1041 0.929 . S
H990 C984 0.930 . S
H991 C987 0.930 1_565 S
C992 N993 1.314 . S
C992 C994 1.353 . S
C992 H998 0.930 . S
N993 Li969 1.990 . S
N993 C992 1.314 . S
N993 C996 1.279 . S
C994 C992 1.353 . S
C994 C997 1.348 . S
C994 H1042 0.929 . S
C995 C996 1.358 . S
C995 C997 1.356 . S
C995 H1043 0.930 . S
C996 N993 1.279 . S
C996 C995 1.358 . S
C996 H999 0.930 . S
C997 C994 1.348 . S
C997 C995 1.356 . S
H998 C992 0.930 . S
H999 C996 0.930 . S
C1000 C1002 1.348 . S
C1000 C1003 1.356 1_565 S
C1000 O1030 1.325 . S
N1001 C1004 1.314 . S
N1001 C1005 1.279 . S
C1002 C1000 1.348 . S
C1002 C1004 1.353 1_565 S
C1002 H1044 0.929 . S
C1003 C1000 1.356 1_545 S
C1003 C1005 1.358 . S
C1003 H1045 0.930 . S
C1004 N1001 1.314 . S
C1004 C1002 1.353 1_545 S
C1004 H1046 0.930 . S
C1005 N1001 1.279 . S
C1005 C1003 1.358 . S
C1005 H1047 0.930 . S
C1006 C1007 1.348 . S
C1006 C1008 1.356 . S
C1006 O1031 1.325 . S
C1007 C1006 1.348 . S
C1007 C1009 1.353 . S
C1007 H1048 0.929 . S
C1008 C1006 1.356 . S
C1008 C1010 1.358 . S
C1008 H1049 0.930 . S
C1009 C1007 1.353 . S
C1009 N1011 1.314 . S
C1009 H1050 0.930 . S
C1010 C1008 1.358 . S
C1010 N1011 1.279 . S
C1010 H1051 0.930 . S
N1011 C1009 1.314 . S
N1011 C1010 1.279 . S
C1012 C1014 1.353 . S
C1012 N1015 1.314 . S
C1012 H1018 0.930 . S
C1013 N1015 1.279 . S
C1013 C1016 1.358 . S
C1013 H1019 0.930 . S
C1014 C1012 1.353 . S
C1014 C1017 1.348 . S
C1014 H1052 0.929 . S
N1015 Li970 1.990 . S
N1015 C1012 1.314 . S
N1015 C1013 1.279 . S
C1016 C1013 1.358 . S
C1016 C1017 1.356 . S
C1016 H1053 0.930 . S
C1017 C1014 1.348 . S
C1017 C1016 1.356 . S
H1018 C1012 0.930 . S
H1019 C1013 0.930 . S
C1020 N1021 1.314 . S
C1020 C1022 1.353 . S
C1020 H1026 0.930 . S
N1021 Li971 1.990 . S
N1021 C1020 1.314 . S
N1021 C1024 1.279 . S
C1022 C1020 1.353 . S
C1022 C1025 1.348 . S
C1022 H1054 0.929 . S
C1023 C1024 1.358 . S
C1023 C1025 1.356 . S
C1023 H1055 0.930 . S
C1024 N1021 1.279 . S
C1024 C1023 1.358 . S
C1024 H1027 0.930 . S
C1025 C1022 1.348 . S
C1025 C1023 1.356 . S
H1026 C1020 0.930 . S
H1027 C1024 0.930 . S
O1028 Li968 1.956 . S
O1028 Li969 1.970 . S
O1028 Li970 1.961 . S
O1028 C972 1.325 . S
O1029 Li968 1.970 . S
O1029 Li969 1.956 . S
O1029 Li971 1.961 . S
O1029 C978 1.325 . S
O1030 Li968 1.961 . S
O1030 Li970 1.956 . S
O1030 Li971 1.970 . S
O1030 C1000 1.325 . S
O1031 Li969 1.961 . S
O1031 Li970 1.970 . S
O1031 Li971 1.956 . S
O1031 C1006 1.325 . S
H1032 C974 0.929 . S
H1033 C975 0.930 . S
H1034 C976 0.930 . S
H1035 C977 0.930 . S
H1036 C979 0.930 . S
H1037 C981 0.929 . S
H1038 C982 0.930 . S
H1039 C983 0.930 . S
H1040 C986 0.930 . S
H1041 C989 0.929 . S
H1042 C994 0.929 . S
H1043 C995 0.930 . S
H1044 C1002 0.929 . S
H1045 C1003 0.930 . S
H1046 C1004 0.930 . S
H1047 C1005 0.930 . S
H1048 C1007 0.929 . S
H1049 C1008 0.930 . S
H1050 C1009 0.930 . S
H1051 C1010 0.930 . S
H1052 C1014 0.929 . S
H1053 C1016 0.930 . S
H1054 C1022 0.929 . S
H1055 C1023 0.930 . S
C293 C20 4.645 . S
C108 C372 4.647 1_455 S
C460 C205 4.646 1_565 S
C585 C849 4.646 . S
C929 C665 4.647 1_655 S
C761 C1025 4.645 1_545 S
C753 C29 1.663 . S
C117 C841 1.663 . S
C196 C937 1.663 . S
C284 C1017 1.663 . S
C577 C381 1.663 . S
C673 C469 1.663 . S
C636 C49 3.042 1_564 S
C137 C733 3.042 . S
C233 C821 3.043 1_655 S
C321 C900 3.042 1_566 S
C997 C401 3.042 . S
C489 C557 3.043 1_455 S
C909 C57 1.849 1_556 S
C988 C145 1.849 . S
C548 C225 1.849 . S
C313 C645 1.849 1_554 S
C409 C724 1.849 . S
C497 C812 1.849 . S
