# Generated by pormake.
# Topology smc, (6)-cn, num edge types: 1
# Building blocks:
#     Node 0, Type 0, BuildingBlock: MIDCAF_clean_sbu_0, # of connection points: 6
#     Node 1, Type 0, BuildingBlock: MIDCAF_clean_sbu_0, # of connection points: 6
#     Node 2, Type 0, BuildingBlock: MIDCAF_clean_sbu_0, # of connection points: 6
#     Node 3, Type 0, BuildingBlock: MIDCAF_clean_sbu_0, # of connection points: 6
#     Node 4, Type 0, BuildingBlock: MIDCAF_clean_sbu_0, # of connection points: 6
#     Node 5, Type 0, BuildingBlock: MIDCAF_clean_sbu_0, # of connection points: 6
#     Node 6, Type 0, BuildingBlock: MIDCAF_clean_sbu_0, # of connection points: 6
#     Node 7, Type 0, BuildingBlock: MIDCAF_clean_sbu_0, # of connection points: 6
#     Node 8, Type 0, BuildingBlock: MIDCAF_clean_sbu_0, # of connection points: 6
#     Edge 9, Type (0, 0), BuildingBlock: XUDNAN_clean_linker_2, # of connection points: 2
#     Edge 10, Type (0, 0), BuildingBlock: XUDNAN_clean_linker_2, # of connection points: 2
#     Edge 11, Type (0, 0), BuildingBlock: XUDNAN_clean_linker_2, # of connection points: 2
#     Edge 12, Type (0, 0), BuildingBlock: XUDNAN_clean_linker_2, # of connection points: 2
#     Edge 13, Type (0, 0), BuildingBlock: XUDNAN_clean_linker_2, # of connection points: 2
#     Edge 14, Type (0, 0), BuildingBlock: XUDNAN_clean_linker_2, # of connection points: 2
#     Edge 15, Type (0, 0), BuildingBlock: XUDNAN_clean_linker_2, # of connection points: 2
#     Edge 16, Type (0, 0), BuildingBlock: XUDNAN_clean_linker_2, # of connection points: 2
#     Edge 17, Type (0, 0), BuildingBlock: XUDNAN_clean_linker_2, # of connection points: 2
#     Edge 18, Type (0, 0), BuildingBlock: XUDNAN_clean_linker_2, # of connection points: 2
#     Edge 19, Type (0, 0), BuildingBlock: XUDNAN_clean_linker_2, # of connection points: 2
#     Edge 20, Type (0, 0), BuildingBlock: XUDNAN_clean_linker_2, # of connection points: 2
#     Edge 21, Type (0, 0), BuildingBlock: XUDNAN_clean_linker_2, # of connection points: 2
#     Edge 22, Type (0, 0), BuildingBlock: XUDNAN_clean_linker_2, # of connection points: 2
#     Edge 23, Type (0, 0), BuildingBlock: XUDNAN_clean_linker_2, # of connection points: 2
#     Edge 24, Type (0, 0), BuildingBlock: XUDNAN_clean_linker_2, # of connection points: 2
#     Edge 25, Type (0, 0), BuildingBlock: XUDNAN_clean_linker_2, # of connection points: 2
#     Edge 26, Type (0, 0), BuildingBlock: XUDNAN_clean_linker_2, # of connection points: 2
#     Edge 27, Type (0, 0), BuildingBlock: XUDNAN_clean_linker_2, # of connection points: 2
#     Edge 28, Type (0, 0), BuildingBlock: XUDNAN_clean_linker_2, # of connection points: 2
#     Edge 29, Type (0, 0), BuildingBlock: XUDNAN_clean_linker_2, # of connection points: 2
#     Edge 30, Type (0, 0), BuildingBlock: XUDNAN_clean_linker_2, # of connection points: 2
#     Edge 31, Type (0, 0), BuildingBlock: XUDNAN_clean_linker_2, # of connection points: 2
#     Edge 32, Type (0, 0), BuildingBlock: XUDNAN_clean_linker_2, # of connection points: 2
#     Edge 33, Type (0, 0), BuildingBlock: XUDNAN_clean_linker_2, # of connection points: 2
#     Edge 34, Type (0, 0), BuildingBlock: XUDNAN_clean_linker_2, # of connection points: 2
#     Edge 35, Type (0, 0), BuildingBlock: XUDNAN_clean_linker_2, # of connection points: 2
# Relax obj value: 0.332
# Max RMSD: 0.258
# Mean RMSD: 0.258
data_MOF--net-smc--node1-MIDCAF_clean_sbu_0--edge1-XUDNAN_clean_linker_2
_symmetry_space_group_name_H-M    P1
_symmetry_Int_Tables_number       1
_symmetry_cell_setting            triclinic
loop_
_symmetry_equiv_pos_as_xyz
'x, y, z'
_cell_length_a     28.050155
_cell_length_b     27.915923
_cell_length_c     43.951639
_cell_angle_alpha  89.410457
_cell_angle_beta   90.594046
_cell_angle_gamma 120.1521
loop_
_atom_site_label
_atom_site_type_symbol
_atom_site_fract_x
_atom_site_fract_y
_atom_site_fract_z
_atom_type_partial_charge
Zn0 Zn 0.05993 0.42032 0.99659 0.0
Zn1 Zn 0.92735 0.36225 0.08928 0.0
Zn2 Zn -0.0059 0.38313 0.04352 0.0
C3 C 0.88432 0.26942 0.04819 0.0
C4 C 0.02045 0.36802 0.1146 0.0
O5 O 0.01626 0.46819 0.03191 0.0
O6 O 0.07266 0.497 0.99259 0.0
C7 C 0.9685 0.32803 0.97489 0.0
O8 O 0.92459 0.30199 0.0308 0.0
O9 O 0.87852 0.28634 0.07371 0.0
O10 O 0.97683 0.36697 0.12247 0.0
O11 O 0.03379 0.37248 0.08619 0.0
O12 O 0.01469 0.3662 0.96587 0.0
O13 O 0.95438 0.32561 1.0031 0.0
O14 O 0.0719 0.39363 0.0614 0.0
O15 O 0.11764 0.41257 0.01811 0.0
C16 C 0.11548 0.40468 0.04654 0.0
O17 O 0.96576 0.4434 0.04744 0.0
O18 O 0.90568 0.42019 0.08462 0.0
C19 C 0.04736 0.50657 1.01302 0.0
C20 C 0.9318 0.45187 0.0627 0.0
Zn21 Zn 0.56881 0.61318 0.96683 0.0
Zn22 Zn 0.59601 0.54144 0.05032 0.0
Zn23 Zn 0.6043 0.6034 1.01203 0.0
C24 C 0.70723 0.5999 0.02873 0.0
C25 C 0.58223 0.61959 0.08196 0.0
O26 O 0.54204 0.62184 0.02831 0.0
O27 O 0.49441 0.57522 0.98812 0.0
C28 C 0.65738 0.6098 0.95121 0.0
O29 O 0.68978 0.62605 1.01231 0.0
O30 O 0.67408 0.55989 0.04538 0.0
O31 O 0.58347 0.57536 0.08561 0.0
O32 O 0.5877 0.63996 0.05466 0.0
O33 O 0.60686 0.57973 0.94427 0.0
O34 O 0.66991 0.63405 0.97731 0.0
O35 O 0.59677 0.67712 0.01994 0.0
O36 O 0.61273 0.69597 0.97125 0.0
C37 C 0.61148 0.71234 0.9978 0.0
O38 O 0.54626 0.52304 0.99417 0.0
O39 O 0.53244 0.4715 0.03465 0.0
C40 C 0.49511 0.59082 0.01526 0.0
C41 C 0.52041 0.47632 1.00748 0.0
Zn42 Zn 0.43166 0.07178 0.03783 0.0
Zn43 Zn 0.36649 0.93586 0.94685 0.0
Zn44 Zn 0.3878 5e-05 0.99555 0.0
C45 C 0.28064 0.88567 0.99279 0.0
C46 C 0.3683 0.03019 0.9257 0.0
O47 O 0.47459 0.02429 1.00418 0.0
O48 O 0.51032 0.09471 0.03608 0.0
C49 C 0.3485 0.97589 0.06485 0.0
O50 O 0.31343 0.92622 1.00995 0.0
O51 O 0.29315 0.8837 0.96541 0.0
O52 O 0.37106 0.98954 0.9155 0.0
O53 O 0.37058 0.03849 0.95468 0.0
O54 O 0.39091 0.0215 0.07095 0.0
O55 O 0.33537 0.9608 0.03687 0.0
O56 O 0.38505 0.07317 0.97982 0.0
O57 O 0.40711 0.12197 0.02219 0.0
C58 C 0.39127 0.11522 0.9948 0.0
O59 O 0.44945 0.97462 0.98862 0.0
O60 O 0.42592 0.91648 0.95015 0.0
C61 C 0.51605 0.06193 0.01907 0.0
C62 C 0.45778 0.94163 0.97216 0.0
Zn63 Zn 0.7553 0.80245 0.30751 0.0
Zn64 Zn 0.66113 0.81449 0.38871 0.0
Zn65 Zn 0.69926 0.79284 0.34919 0.0
C66 C 0.60758 0.69886 0.37959 0.0
C67 C 0.7178 0.77827 0.42088 0.0
O68 O 0.75528 0.87866 0.35543 0.0
O69 O 0.78607 0.88548 0.309 0.0
C70 C 0.65128 0.75291 0.28248 0.0
O71 O 0.65826 0.71429 0.37362 0.0
O72 O 0.5949 0.73577 0.38428 0.0
O73 O 0.71307 0.82086 0.42423 0.0
O74 O 0.70821 0.75585 0.39416 0.0
O75 O 0.69842 0.76059 0.27625 0.0
O76 O 0.64215 0.76581 0.30896 0.0
O77 O 0.72489 0.73485 0.36547 0.0
O78 O 0.78833 0.76328 0.32966 0.0
C79 C 0.76631 0.73447 0.35327 0.0
O80 O 0.63202 0.80114 0.33032 0.0
O81 O 0.65684 0.87156 0.36133 0.0
C82 C 0.78162 0.90853 0.33261 0.0
C83 C 0.63223 0.84593 0.33722 0.0
Zn84 Zn 0.29235 0.87376 0.37628 0.0
Zn85 Zn 0.18787 0.93696 0.31644 0.0
Zn86 Zn 0.24323 0.90524 0.34133 0.0
C87 C 0.26446 0.02747 0.34384 0.0
C88 C 0.22767 0.89747 0.27172 0.0
O89 O 0.18468 0.81897 0.35292 0.0
O90 O 0.24377 0.79287 0.36726 0.0
C91 C 0.28773 0.95324 0.40865 0.0
O92 O 0.26372 0.98703 0.35855 0.0
O93 O 0.23962 0.01859 0.31865 0.0
O94 O 0.18445 0.89858 0.27812 0.0
O95 O 0.26438 0.90877 0.29261 0.0
O96 O 0.2868 0.90864 0.41528 0.0
O97 O 0.27935 0.96264 0.38084 0.0
O98 O 0.30494 0.90499 0.31166 0.0
O99 O 0.35971 0.91243 0.35006 0.0
C100 C 0.35179 0.91387 0.32174 0.0
O101 O 0.15602 0.84493 0.34996 0.0
O102 O 0.12253 0.90107 0.34434 0.0
C103 C 0.19596 0.78049 0.35852 0.0
C104 C 0.11668 0.85538 0.35337 0.0
Zn105 Zn 0.13327 0.41691 0.42244 0.0
Zn106 Zn 0.07088 0.24802 0.37718 0.0
Zn107 Zn 0.10597 0.33818 0.39063 0.0
C108 C 0.98676 0.26628 0.37433 0.0
C109 C 0.09025 0.31114 0.32293 0.0
O110 O 0.19582 0.3825 0.38693 0.0
O111 O 0.21531 0.45053 0.41869 0.0
C112 C 0.06477 0.32245 0.45731 0.0
O113 O 0.02829 0.3114 0.36441 0.0
O114 O -0.00351 0.23416 0.39029 0.0
O115 O 0.09322 0.26909 0.33133 0.0
O116 O 0.08002 0.33785 0.34326 0.0
O117 O 0.09417 0.37449 0.45966 0.0
O118 O 0.06371 0.29954 0.43222 0.0
O119 O 0.07288 0.37804 0.36147 0.0
O120 O 0.09481 0.44488 0.39489 0.0
C121 C 0.07301 0.4221 0.36982 0.0
O122 O 0.17294 0.3207 0.38518 0.0
O123 O 0.12158 0.23871 0.4056 0.0
C124 C 0.23143 0.42702 0.40038 0.0
C125 C 0.16883 0.27734 0.39806 0.0
Zn126 Zn 0.4138 0.19251 0.64079 0.0
Zn127 Zn 0.23904 0.10281 0.69267 0.0
Zn128 Zn 0.32442 0.14488 0.66599 0.0
C129 C 0.24939 0.01781 0.66825 0.0
C130 C 0.31175 0.15909 0.7372 0.0
O131 O 0.36896 0.22358 0.69117 0.0
O132 O 0.42414 0.26594 0.6525 0.0
C133 C 0.33675 0.15512 0.59465 0.0
O134 O 0.30026 0.05655 0.66841 0.0
O135 O 0.21218 0.02883 0.67465 0.0
O136 O 0.26513 0.11592 0.73498 0.0
O137 O 0.33951 0.18289 0.71285 0.0
O138 O 0.38553 0.16602 0.59963 0.0
O139 O 0.30643 0.15371 0.617 0.0
O140 O 0.35785 0.08836 0.67109 0.0
O141 O 0.4448 0.15295 0.66428 0.0
C142 C 0.40963 0.10439 0.67257 0.0
O143 O 0.27154 0.16325 0.63576 0.0
O144 O 0.21958 0.15577 0.67483 0.0
C145 C 0.40232 0.26853 0.67694 0.0
C146 C 0.23624 0.17343 0.64829 0.0
Zn147 Zn 0.87191 0.14172 0.71997 0.0
Zn148 Zn 0.80445 0.2583 0.68611 0.0
Zn149 Zn 0.84536 0.20198 0.70037 0.0
C150 C 0.90424 0.32865 0.70418 0.0
C151 C 0.8275 0.21055 0.63543 0.0
O152 O 0.80345 0.12673 0.67196 0.0
O153 O 0.79839 0.07399 0.7107 0.0
C154 C 0.85595 0.18612 0.77064 0.0
O155 O 0.90931 0.28954 0.69233 0.0
O156 O 0.85792 0.31665 0.71497 0.0
O157 O 0.83003 0.25498 0.64395 0.0
O158 O 0.81589 0.17194 0.65511 0.0
O159 O 0.8893 0.17097 0.76234 0.0
O160 O 0.82502 0.19081 0.75025 0.0
O161 O 0.93345 0.25159 0.69177 0.0
O162 O 0.93153 0.17206 0.68815 0.0
C163 C 0.95494 0.22336 0.68224 0.0
O164 O 0.77824 0.17806 0.73323 0.0
O165 O 0.73235 0.19781 0.69927 0.0
C166 C 0.78168 0.07861 0.68464 0.0
C167 C 0.73221 0.17073 0.72244 0.0
Zn168 Zn 0.85042 0.77191 0.70003 0.0
Zn169 Zn 0.74792 0.58767 0.67729 0.0
Zn170 Zn 0.79574 0.68059 0.68219 0.0
C171 C 0.67623 0.61085 0.69743 0.0
C172 C 0.78036 0.64598 0.61916 0.0
O173 O 0.87296 0.71186 0.65457 0.0
O174 O 0.9213 0.78765 0.68191 0.0
C175 C 0.81952 0.70165 0.75138 0.0
O176 O 0.70517 0.64898 0.67786 0.0
O177 O 0.698 0.58549 0.70973 0.0
O178 O 0.73868 0.60522 0.63143 0.0
O179 O 0.82236 0.67624 0.63636 0.0
O180 O 0.83894 0.75221 0.74455 0.0
O181 O 0.80343 0.66573 0.73016 0.0
O182 O 0.74069 0.70994 0.6674 0.0
O183 O 0.80444 0.79633 0.6769 0.0
C184 C 0.75806 0.76195 0.66564 0.0
O185 O 0.84916 0.64989 0.66112 0.0
O186 O 0.80894 0.5749 0.6894 0.0
C187 C 0.91935 0.75577 0.66114 0.0
C188 C 0.84996 0.60856 0.67391 0.0
H189 H 0.40695 0.49198 1.00349 0.0
H190 H 0.46564 0.6305 0.06534 0.0
H191 H 0.3734 0.58473 0.09018 0.0
H192 H 0.27909 0.47669 0.99044 0.0
H193 H 0.24547 0.40245 0.98681 0.0
H194 H 0.31727 0.44434 0.97809 0.0
H195 H 0.33734 0.38645 0.0162 0.0
H196 H 0.26607 0.3462 0.02717 0.0
H197 H 0.3186 0.38266 0.05568 0.0
H198 H 0.26796 0.52953 0.10059 0.0
H199 H 0.16652 0.4758 0.09384 0.0
H200 H 0.18357 0.37004 0.02919 0.0
C201 C 0.40086 0.51281 0.02245 0.0
C202 C 0.44286 0.56513 0.03221 0.0
C203 C 0.43354 0.59042 0.05743 0.0
C204 C 0.38149 0.56454 0.0717 0.0
C205 C 0.34033 0.51299 0.06087 0.0
C206 C 0.3502 0.4876 0.0369 0.0
C207 C 0.29923 0.43543 0.02708 0.0
C208 C 0.28439 0.44007 0.99367 0.0
C209 C 0.30576 0.38468 0.0319 0.0
C210 C 0.25804 0.43504 0.04883 0.0
C211 C 0.2819 0.48 0.06828 0.0
C212 C 0.24936 0.4931 0.08635 0.0
C213 C 0.1916 0.4617 0.08288 0.0
C214 C 0.16752 0.41783 0.06167 0.0
C215 C 0.20108 0.40209 0.04635 0.0
H216 H 0.51335 0.90823 0.93562 0.0
H217 H 0.49689 0.94368 0.0294 0.0
H218 H 0.55688 0.90735 0.04595 0.0
H219 H 0.49637 0.78403 0.94722 0.0
H220 H 0.54551 0.78731 0.91995 0.0
H221 H 0.51525 0.8301 0.91484 0.0
H222 H 0.61256 0.91762 0.91317 0.0
H223 H 0.64335 0.87479 0.9183 0.0
H224 H 0.66041 0.93111 0.94404 0.0
H225 H 0.59813 0.84674 0.05329 0.0
H226 H 0.61825 0.77006 0.04979 0.0
H227 H 0.60915 0.77608 0.95159 0.0
C228 C 0.52419 0.91016 0.95948 0.0
C229 C 0.5012 0.92926 0.98115 0.0
C230 C 0.51514 0.93028 1.0123 0.0
C231 C 0.54926 0.90976 0.02195 0.0
C232 C 0.56961 0.88899 1.0001 0.0
C233 C 0.5584 0.89007 0.96939 0.0
C234 C 0.57839 0.85839 0.95091 0.0
C235 C 0.53106 0.81224 0.93218 0.0
C236 C 0.62656 0.89785 0.9304 0.0
C237 C 0.59779 0.83507 0.97621 0.0
C238 C 0.59395 0.85427 1.00439 0.0
C239 C 0.60243 0.83234 0.03128 0.0
C240 C 0.61293 0.78825 0.02923 0.0
C241 C 0.61376 0.76617 1.00064 0.0
C242 C 0.60906 0.79208 0.97391 0.0
H243 H 0.19156 0.81242 0.9602 0.0
H244 H 0.26046 0.84611 0.05103 0.0
H245 H 0.1831 0.75762 0.06904 0.0
H246 H 0.03829 0.71169 0.98019 0.0
H247 H 0.03282 0.6678 0.94899 0.0
H248 H 0.07691 0.74191 0.94587 0.0
H249 H 0.15934 0.72836 0.93287 0.0
H250 H 0.11584 0.65483 0.93608 0.0
H251 H 0.17782 0.68975 0.95881 0.0
H252 H 0.11185 0.65945 0.07494 0.0
H253 H 0.06756 0.55863 0.06709 0.0
H254 H 0.05713 0.58231 0.97029 0.0
C255 C 0.18872 0.8022 0.9842 0.0
C256 C 0.23008 0.83776 1.0048 0.0
C257 C 0.22683 0.82182 0.03561 0.0
C258 C 0.18325 0.77102 0.04583 0.0
C259 C 0.1441 0.73583 0.02468 0.0
C260 C 0.14697 0.75058 0.9943 0.0
C261 C 0.11008 0.70101 0.97471 0.0
C262 C 0.06165 0.70591 0.96168 0.0
C263 C 0.14276 0.69304 0.94917 0.0
C264 C 0.09025 0.65534 0.9983 0.0
C265 C 0.10724 0.67663 0.02725 0.0
C266 C 0.0976 0.64239 0.05249 0.0
C267 C 0.07254 0.58525 0.04782 0.0
C268 C 0.05961 0.56348 0.01805 0.0
C269 C 0.06664 0.59851 0.9932 0.0
H270 H 0.34257 0.16562 0.01976 0.0
H271 H 0.43141 0.16635 0.94003 0.0
H272 H 0.44398 0.2572 0.9248 0.0
H273 H 0.29645 0.27422 0.99504 0.0
H274 H 0.31107 0.2916 0.03489 0.0
H275 H 0.28494 0.22178 0.023 0.0
H276 H 0.37269 0.23628 0.05524 0.0
H277 H 0.40029 0.30914 0.0587 0.0
H278 H 0.44022 0.28358 0.04032 0.0
H279 H 0.47284 0.35573 0.92692 0.0
H280 H 0.52382 0.44997 0.94827 0.0
H281 H 0.42861 0.39065 0.03089 0.0
C282 C 0.36179 0.18385 0.99819 0.0
C283 C 0.3841 0.15862 0.9804 0.0
C284 C 0.41156 0.18404 0.95309 0.0
C285 C 0.41916 0.23592 0.94446 0.0
C286 C 0.40058 0.26227 0.96398 0.0
C287 C 0.37265 0.23681 0.99051 0.0
C288 C 0.37187 0.27765 1.01236 0.0
C289 C 0.31262 0.2658 0.01641 0.0
C290 C 0.39788 0.27658 0.0434 0.0
C291 C 0.4074 0.33106 0.99515 0.0
C292 C 0.42123 0.32121 0.96661 0.0
C293 C 0.46113 0.36404 0.94876 0.0
C294 C 0.49003 0.41744 0.96104 0.0
C295 C 0.47981 0.42673 0.99116 0.0
C296 C 0.43624 0.38399 1.00764 0.0
H297 H 0.58118 0.06953 0.06596 0.0
H298 H 0.57185 0.0656 0.96776 0.0
H299 H 0.67055 0.0932 0.96522 0.0
H300 H 0.69144 0.18347 0.07466 0.0
H301 H 0.72213 0.1665 0.10616 0.0
H302 H 0.64932 0.12733 0.10034 0.0
H303 H 0.65345 0.03677 0.09825 0.0
H304 H 0.72709 0.07608 0.10412 0.0
H305 H 0.69885 0.03093 0.07176 0.0
H306 H 0.77194 0.1479 0.97322 0.0
H307 H 0.86202 0.22328 0.99081 0.0
H308 H 0.80592 0.18976 0.08374 0.0
C309 C 0.59979 0.07235 0.04406 0.0
C310 C 0.57007 0.06619 0.01711 0.0
C311 C 0.5946 0.07017 0.98863 0.0
C312 C 0.65038 0.08529 0.98705 0.0
C313 C 0.68004 0.09455 0.0142 0.0
C314 C 0.65497 0.08665 0.04228 0.0
C315 C 0.69674 0.10832 0.06787 0.0
C316 C 0.68949 0.14883 0.08837 0.0
C317 C 0.69387 0.06015 0.0866 0.0
C318 C 0.74927 0.13708 0.04964 0.0
C319 C 0.73925 0.1263 0.01884 0.0
C320 C 0.7803 0.15551 0.99732 0.0
C321 C 0.83131 0.19904 1.00735 0.0
C322 C 0.84005 0.21408 0.03829 0.0
C323 C 0.80006 0.17977 0.05976 0.0
H324 H 0.8971 0.50802 0.09802 0.0
H325 H 0.9385 0.49284 1.00534 0.0
H326 H 0.90837 0.55746 0.9879 0.0
H327 H 0.77681 0.49568 0.08301 0.0
H328 H 0.77911 0.54452 0.11036 0.0
H329 H 0.81969 0.51225 0.11656 0.0
H330 H 0.90773 0.60904 0.12063 0.0
H331 H 0.867 0.64171 0.11405 0.0
H332 H 0.92515 0.6585 0.09005 0.0
H333 H 0.85138 0.60075 0.97864 0.0
H334 H 0.77109 0.61465 0.97898 0.0
H335 H 0.76823 0.60578 0.0772 0.0
C336 C 0.90159 0.52005 0.07426 0.0
C337 C 0.92106 0.4964 0.05316 0.0
C338 C 0.92526 0.51181 0.02208 0.0
C339 C 0.90824 0.54861 1.01194 0.0
C340 C 0.88741 0.56997 0.03318 0.0
C341 C 0.88469 0.55673 0.06383 0.0
C342 C 0.85234 0.57723 0.08125 0.0
C343 C 0.80415 0.52959 0.09876 0.0
C344 C 0.89034 0.62444 0.10276 0.0
C345 C 0.83237 0.59867 0.05522 0.0
C346 C 0.85474 0.59626 0.02775 0.0
C347 C 0.83523 0.60503 1.00005 0.0
C348 C 0.78986 0.61338 1.00035 0.0
C349 C 0.76462 0.61234 0.02813 0.0
C350 C 0.7881 0.6081 0.05579 0.0
H351 H 0.81062 0.67787 0.32877 0.0
H352 H 0.8029 0.75537 0.4112 0.0
H353 H 0.88749 0.76155 0.42956 0.0
H354 H 0.91316 0.62527 0.36191 0.0
H355 H 0.94827 0.64448 0.32591 0.0
H356 H 0.87432 0.61393 0.32716 0.0
H357 H 0.88297 0.69743 0.29656 0.0
H358 H 0.95622 0.72876 0.29581 0.0
H359 H 0.92553 0.76652 0.31129 0.0
H360 H 0.98501 0.80035 0.42831 0.0
H361 H 0.08015 0.85772 0.40967 0.0
H362 H 0.03572 0.764 0.3263 0.0
C363 C 0.82492 0.69175 0.35172 0.0
C364 C 0.79825 0.71317 0.36938 0.0
C365 C 0.81928 0.73428 0.39851 0.0
C366 C 0.8689 0.73932 0.40874 0.0
C367 C 0.89799 0.72428 0.38922 0.0
C368 C 0.876 0.69919 0.36147 0.0
C369 C 0.92042 0.70062 0.34132 0.0
C370 C 0.91363 0.64262 0.33895 0.0
C371 C 0.92132 0.72487 0.30943 0.0
C372 C 0.97135 0.7384 0.35977 0.0
C373 C 0.95742 0.74893 0.38809 0.0
C374 C -0.00344 0.79051 0.40685 0.0
C375 C 0.05038 0.82327 0.39607 0.0
C376 C 0.06448 0.81409 0.36692 0.0
C377 C 0.0254 0.77007 0.34907 0.0
H378 H 0.17485 0.20013 0.43236 0.0
H379 H 0.26325 0.32623 0.36418 0.0
H380 H 0.32269 0.28678 0.35461 0.0
H381 H 0.28775 0.16376 0.45438 0.0
H382 H 0.23271 0.09221 0.45588 0.0
H383 H 0.21981 0.14665 0.4665 0.0
H384 H 0.13875 0.10436 0.42725 0.0
H385 H 0.15634 0.05409 0.41556 0.0
H386 H 0.15375 0.10074 0.3878 0.0
H387 H 0.34713 0.21814 0.33932 0.0
H388 H 0.33609 0.12964 0.32116 0.0
H389 H 0.22967 0.04374 0.39715 0.0
C390 C 0.20872 0.22109 0.41658 0.0
C391 C 0.2151 0.26664 0.39928 0.0
C392 C 0.25884 0.29246 0.37835 0.0
C393 C 0.29257 0.26984 0.37264 0.0
C394 C 0.28165 0.22134 0.38799 0.0
C395 C 0.24091 0.19758 0.40986 0.0
C396 C 0.22703 0.13912 0.41753 0.0
C397 C 0.24295 0.13527 0.45055 0.0
C398 C 0.16541 0.09722 0.41163 0.0
C399 C 0.26363 0.13208 0.39518 0.0
C400 C 0.29593 0.18043 0.37884 0.0
C401 C 0.32417 0.18082 0.35277 0.0
C402 C 0.31758 0.1305 0.34251 0.0
C403 C 0.28356 0.08088 0.35849 0.0
C404 C 0.25802 0.08198 0.3856 0.0
H405 H 0.88919 0.20226 0.40111 0.0
H406 H 0.96517 0.26525 0.31375 0.0
H407 H 0.89921 0.1769 0.29007 0.0
H408 H 0.89356 0.09524 0.39969 0.0
H409 H 0.82955 0.04472 0.41695 0.0
H410 H 0.85775 0.11666 0.42513 0.0
H411 H 0.76922 0.11483 0.40656 0.0
H412 H 0.73861 0.04149 0.3999 0.0
H413 H 0.74055 0.08664 0.36973 0.0
H414 H 0.85717 0.07749 0.28097 0.0
H415 H 0.82664 0.97838 0.2841 0.0
H416 H 0.78011 0.97474 0.37832 0.0
C417 C 0.88838 0.19872 0.37657 0.0
C418 C 0.93248 0.23971 0.3593 0.0
C419 C 0.93163 0.23433 0.32737 0.0
C420 C 0.89458 0.18362 0.31381 0.0
C421 C 0.8579 0.13996 0.33248 0.0
C422 C 0.85279 0.14756 0.36313 0.0
C423 C 0.82006 0.09231 0.3796 0.0
C424 C 0.85221 0.08701 0.4069 0.0
C425 C 0.76375 0.08328 0.38952 0.0
C426 C 0.81338 0.0529 0.3544 0.0
C427 C 0.83383 0.08105 0.32722 0.0
C428 C 0.83911 0.05479 0.30179 0.0
C429 C 0.82244 -0.00152 0.304 0.0
C430 C 0.80109 0.96867 0.33156 0.0
C431 C 0.79595 0.9963 0.35693 0.0
H432 H 0.21605 0.71166 0.32617 0.0
H433 H 0.08678 0.72064 0.37388 0.0
H434 H 0.02301 0.62101 0.36406 0.0
H435 H 0.11809 0.59551 0.26991 0.0
H436 H 0.16259 0.56628 0.27151 0.0
H437 H 0.19156 0.6403 0.27385 0.0
H438 H 0.24007 0.64218 0.32477 0.0
H439 H 0.21265 0.5692 0.32193 0.0
H440 H 0.19949 0.59729 0.35551 0.0
H441 H 0.9859 0.52054 0.36348 0.0
H442 H 0.98277 0.43269 0.37534 0.0
H443 H 0.13048 0.48516 0.32325 0.0
C444 C 0.17374 0.69259 0.33376 0.0
C445 C 0.1559 0.72294 0.35084 0.0
C446 C 0.10065 0.69768 0.36051 0.0
C447 C 0.06423 0.64132 0.35479 0.0
C448 C 0.08353 0.61162 0.3386 0.0
C449 C 0.13694 0.63684 0.32774 0.0
C450 C 0.1508 0.59496 0.31541 0.0
C451 C 0.15604 0.59955 0.2806 0.0
C452 C 0.20375 0.60126 0.33035 0.0
C453 C 0.09966 0.54174 0.32473 0.0
C454 C 0.06014 0.55208 0.33679 0.0
C455 C 0.01513 0.51143 0.35294 0.0
C456 C 0.01321 0.46124 0.35936 0.0
C457 C 0.05582 0.45233 0.34947 0.0
C458 C 0.09637 0.49063 0.3297 0.0
H459 H 0.31482 0.4955 0.4381 0.0
H460 H 0.28253 0.41571 0.35026 0.0
H461 H 0.38287 0.46268 0.34057 0.0
H462 H 0.41151 0.62236 0.41303 0.0
H463 H 0.45405 0.64165 0.44679 0.0
H464 H 0.3819 0.59194 0.44936 0.0
H465 H 0.40529 0.52139 0.47417 0.0
H466 H 0.47791 0.57103 0.47124 0.0
H467 H 0.45027 0.50326 0.45475 0.0
H468 H 0.48535 0.5297 0.33727 0.0
H469 H 0.5763 0.61614 0.33832 0.0
H470 H 0.53977 0.6539 0.42728 0.0
C471 C 0.32893 0.48673 0.41716 0.0
C472 C 0.2911 0.45084 0.39526 0.0
C473 C 0.311 0.44149 0.36781 0.0
C474 C 0.36792 0.4681 0.36213 0.0
C475 C 0.40425 0.50389 0.38414 0.0
C476 C 0.38529 0.51323 0.41111 0.0
C477 C 0.43123 0.55949 0.4291 0.0
C478 C 0.41894 0.60662 0.43487 0.0
C479 C 0.44179 0.53745 0.45909 0.0
C480 C 0.47856 0.57706 0.40733 0.0
C481 C 0.46288 0.54345 0.38193 0.0
C482 C 0.49844 0.55541 0.35736 0.0
C483 C 0.55014 0.60426 0.35819 0.0
C484 C 0.56483 0.64061 0.38313 0.0
C485 C 0.52964 0.62571 0.40838 0.0
H486 H 0.35648 0.82824 0.29824 0.0
H487 H 0.44595 0.00647 0.30546 0.0
H488 H 0.53278 0.00818 0.29465 0.0
H489 H 0.43417 0.80551 0.34025 0.0
H490 H 0.43446 0.74894 0.321 0.0
H491 H 0.37819 0.76111 0.31515 0.0
H492 H 0.39411 0.76931 0.25706 0.0
H493 H 0.45008 0.75567 0.26248 0.0
H494 H 0.46146 0.81694 0.24218 0.0
H495 H 0.60806 0.98971 0.30272 0.0
H496 H 0.66522 0.95313 0.32393 0.0
H497 H 0.53058 0.78553 0.31114 0.0
C498 C 0.39396 0.86764 0.29502 0.0
C499 C 0.39475 0.91735 0.30161 0.0
C500 C 0.44455 0.96828 0.29935 0.0
C501 C 0.49411 0.96944 0.29341 0.0
C502 C 0.49299 0.91923 0.28976 0.0
C503 C 0.44386 0.86908 0.28959 0.0
C504 C 0.45439 0.82078 0.29166 0.0
C505 C 0.42353 0.78192 0.31862 0.0
C506 C 0.43911 0.78879 0.26155 0.0
C507 C 0.51627 0.85151 0.29665 0.0
C508 C 0.53796 0.90827 0.29441 0.0
C509 C 0.59208 0.94546 0.30329 0.0
C510 C 0.62417 0.92438 0.31554 0.0
C511 C 0.60225 0.86664 0.31869 0.0
C512 C 0.54855 0.8298 0.30798 0.0
H513 H 0.66681 0.08716 0.68712 0.0
H514 H 0.67509 0.15715 0.77537 0.0
H515 H 0.5733 0.10913 0.77682 0.0
H516 H 0.59281 0.12956 0.65857 0.0
H517 H 0.5508 0.07401 0.63274 0.0
H518 H 0.61632 0.08442 0.64463 0.0
H519 H 0.57112 0.98376 0.66479 0.0
H520 H 0.50475 0.97239 0.65228 0.0
H521 H 0.5148 0.95853 0.69125 0.0
H522 H 0.47838 0.08184 0.76213 0.0
H523 H 0.40743 0.09046 0.7325 0.0
H524 H 0.46473 0.05555 0.64996 0.0
C525 C 0.64657 0.08866 0.70765 0.0
C526 C 0.67819 0.12437 0.73145 0.0
C527 C 0.65143 0.12837 0.75744 0.0
C528 C 0.59345 0.1014 0.7582 0.0
C529 C 0.56329 0.07155 0.73259 0.0
C530 C 0.5893 0.06495 0.7077 0.0
C531 C 0.55211 0.0468 0.67976 0.0
C532 C 0.57965 0.08611 0.6524 0.0
C533 C 0.53464 0.98679 0.67154 0.0
C534 C 0.50364 0.05051 0.6917 0.0
C535 C 0.50901 0.06066 0.72273 0.0
C536 C 0.47277 0.07216 0.73814 0.0
C537 C 0.4325 0.07684 0.72131 0.0
C538 C 0.43033 0.07265 0.68939 0.0
C539 C 0.46451 0.0568 0.67456 0.0
H540 H 0.93656 0.41666 0.74072 0.0
H541 H 0.9469 0.37134 0.64845 0.0
H542 H 0.96332 0.46221 0.63023 0.0
H543 H 0.85709 0.46283 0.7292 0.0
H544 H 0.88528 0.52115 0.75464 0.0
H545 H 0.89825 0.46563 0.7617 0.0
H546 H 0.0035 0.53384 0.76106 0.0
H547 H 0.99086 0.5904 0.75439 0.0
H548 H 0.03442 0.57949 0.72892 0.0
H549 H 0.94308 0.53901 0.6208 0.0
H550 H 0.89542 0.59344 0.62235 0.0
H551 H 0.90204 0.59265 0.72052 0.0
C552 C 0.94655 0.42785 0.71702 0.0
C553 C 0.94108 0.38749 0.69607 0.0
C554 C 0.95218 0.40216 0.66498 0.0
C555 C 0.96113 0.45378 0.65441 0.0
C556 C 0.96057 0.49087 0.67536 0.0
C557 C 0.95563 0.47925 0.70632 0.0
C558 C 0.946 0.52022 0.72368 0.0
C559 C 0.89354 0.49066 0.74338 0.0
C560 C -0.00327 0.55825 0.74316 0.0
C561 C 0.93941 0.55223 0.69755 0.0
C562 C 0.94999 0.53643 0.66983 0.0
C563 C 0.93702 0.55343 0.64239 0.0
C564 C 0.91019 0.58468 0.64336 0.0
C565 C 0.89621 0.59788 0.67158 0.0
C566 C 0.91394 0.58423 0.69873 0.0
H567 H 0.61517 0.54579 0.74362 0.0
H568 H 0.60121 0.61027 0.65613 0.0
H569 H 0.50544 0.53299 0.6514 0.0
H570 H 0.57523 0.42546 0.71967 0.0
H571 H 0.5378 0.38448 0.75225 0.0
H572 H 0.59039 0.45512 0.75726 0.0
H573 H 0.52128 0.47699 0.78312 0.0
H574 H 0.46803 0.40552 0.77879 0.0
H575 H 0.45742 0.46006 0.7642 0.0
H576 H 0.42798 0.4378 0.64763 0.0
H577 H 0.38203 0.33651 0.64296 0.0
H578 H 0.45085 0.3256 0.72945 0.0
C579 C 0.59065 0.5453 0.7243 0.0
C580 C 0.61552 0.58388 0.70019 0.0
C581 C 0.58285 0.58177 0.67505 0.0
C582 C 0.52832 0.53756 0.67219 0.0
C583 C 0.50735 0.49602 0.69463 0.0
C584 C 0.53756 0.49994 0.72051 0.0
C585 C 0.51352 0.44459 0.7371 0.0
C586 C 0.55679 0.4264 0.74177 0.0
C587 C 0.48856 0.44694 0.76761 0.0
C588 C 0.46876 0.40743 0.71486 0.0
C589 C 0.46376 0.43854 0.69151 0.0
C590 C 0.43051 0.41337 0.66619 0.0
C591 C 0.40455 0.3557 0.6637 0.0
C592 C 0.41256 0.32359 0.68609 0.0
C593 C 0.44277 0.34933 0.71266 0.0
H594 H 0.79135 0.83951 0.62255 0.0
H595 H 0.65601 0.74065 0.68287 0.0
H596 H 0.62594 0.80978 0.67888 0.0
H597 H 0.8365 0.95175 0.65299 0.0
H598 H 0.85519 -0.00111 0.6211 0.0
H599 H 0.85008 0.93317 0.61618 0.0
H600 H 0.77993 0.91006 0.5727 0.0
H601 H 0.78414 0.97621 0.57719 0.0
H602 H 0.71815 0.91329 0.57877 0.0
H603 H 0.63542 0.90063 0.68626 0.0
H604 H 0.67928 -0.00143 0.70122 0.0
H605 H 0.80599 0.04211 0.6341 0.0
C606 C 0.75279 0.83066 0.63277 0.0
C607 C 0.72526 0.78475 0.65245 0.0
C608 C 0.67659 0.7749 0.66701 0.0
C609 C 0.65951 0.81431 0.6649 0.0
C610 C 0.69096 0.86247 0.64765 0.0
C611 C 0.73564 0.86978 0.63078 0.0
C612 C 0.7698 0.9291 0.61951 0.0
C613 C 0.8314 0.95464 0.62804 0.0
C614 C 0.76251 0.93232 0.58499 0.0
C615 C 0.74267 0.9559 0.63651 0.0
C616 C 0.69563 0.91643 0.65145 0.0
C617 C 0.67042 0.93162 0.67359 0.0
C618 C 0.69553 0.98745 0.68199 0.0
C619 C 0.74494 0.02753 0.66806 0.0
C620 C 0.76676 0.01216 0.64387 0.0
H621 H -0.00213 0.7565 0.6955 0.0
H622 H 0.96058 0.78011 0.60299 0.0
H623 H 0.06004 0.82796 0.59071 0.0
H624 H 0.08802 0.87911 0.7075 0.0
H625 H 0.13556 0.8696 0.73123 0.0
H626 H 0.06536 0.81576 0.72881 0.0
H627 H 0.09603 0.74694 0.71171 0.0
H628 H 0.16718 0.80139 0.71412 0.0
H629 H 0.14052 0.76319 0.67929 0.0
H630 H 0.15901 0.89739 0.59287 0.0
H631 H 0.23768 0.98561 0.60998 0.0
H632 H 0.21219 0.92548 0.70233 0.0
C633 C 0.01092 0.76891 0.67223 0.0
C634 C 0.97229 0.76421 0.65003 0.0
C635 C 0.98976 0.7822 0.62002 0.0
C636 C 0.04629 0.80945 0.61297 0.0
C637 C 0.08438 0.81807 0.63622 0.0
C638 C 0.06706 0.79747 0.66533 0.0
C639 C 0.11412 0.82361 0.68812 0.0
C640 C 0.09989 0.84855 0.71542 0.0
C641 C 0.13044 0.78126 0.69893 0.0
C642 C 0.15872 0.86772 0.66831 0.0
C643 C 0.14223 0.86121 0.63801 0.0
C644 C 0.17287 0.90176 0.61628 0.0
C645 C 0.21807 0.95184 0.62609 0.0
C646 C 0.23103 0.96163 0.65734 0.0
C647 C 0.20389 0.91773 0.67823 0.0
H648 H 0.24119 0.26231 0.67295 0.0
H649 H 0.17721 0.15475 0.59502 0.0
H650 H 0.10915 0.18527 0.58634 0.0
H651 H 0.12547 0.22107 0.70391 0.0
H652 H 0.13665 0.28491 0.72028 0.0
H653 H 0.19433 0.27645 0.71236 0.0
H654 H 0.23757 0.36474 0.67871 0.0
H655 H 0.17995 0.37419 0.68695 0.0
H656 H 0.19798 0.37123 0.64804 0.0
H657 H 0.03218 0.20248 0.59593 0.0
H658 H 0.95455 0.1995 0.6232 0.0
H659 H 0.0628 0.29057 0.69779 0.0
C660 C 0.21518 0.2483 0.65283 0.0
C661 C 0.21503 0.20728 0.63421 0.0
C662 C 0.17914 0.18754 0.60888 0.0
C663 C 0.14006 0.20452 0.60403 0.0
C664 C 0.13768 0.24122 0.62468 0.0
C665 C 0.17512 0.26356 0.64845 0.0
C666 C 0.15678 0.29091 0.67164 0.0
C667 C 0.15303 0.26681 0.70389 0.0
C668 C 0.19536 0.35402 0.6713 0.0
C669 C 0.10046 0.27562 0.65903 0.0
C670 C 0.0914 0.24947 0.63112 0.0
C671 C 0.03962 0.22445 0.61718 0.0
C672 C -0.00435 0.22326 0.63276 0.0
C673 C 0.0033 0.24636 0.66213 0.0
C674 C 0.05674 0.27505 0.67476 0.0
H675 H 0.03926 0.2453 0.27326 0.0
H676 H 0.15046 0.41494 0.30016 0.0
H677 H 0.1579 0.44542 0.24648 0.0
H678 H 0.0984 0.25029 0.19745 0.0
H679 H 0.03161 0.20909 0.17994 0.0
H680 H 0.04146 0.19915 0.21961 0.0
H681 H 0.96219 0.21661 0.2342 0.0
H682 H 0.95157 0.22561 0.19463 0.0
H683 H 0.96448 0.27931 0.22144 0.0
H684 H 0.14835 0.45849 0.19065 0.0
H685 H 0.11086 0.45549 0.13909 0.0
H686 H 0.00217 0.27861 0.14832 0.0
C687 C 0.06611 0.28859 0.2676 0.0
C688 C 0.09511 0.32782 0.2906 0.0
C689 C 0.12823 0.3844 0.2827 0.0
C690 C 0.13309 0.40194 0.25228 0.0
C691 C 0.10397 0.36239 0.22999 0.0
C692 C 0.07033 0.30699 0.23733 0.0
C693 C 0.03771 0.27423 0.20976 0.0
C694 C 0.05325 0.2306 0.20119 0.0
C695 C 0.97532 0.2474 0.21534 0.0
C696 C 0.0575 0.31993 0.18592 0.0
C697 C 0.09684 0.37023 0.19787 0.0
C698 C 0.11847 0.41917 0.18084 0.0
C699 C 0.09765 0.41706 0.15137 0.0
C700 C 0.05557 0.36651 0.13928 0.0
C701 C 0.03621 0.31728 0.15656 0.0
H702 H 0.59905 0.6508 0.25895 0.0
H703 H 0.62064 0.81434 0.24765 0.0
H704 H 0.58867 0.79275 0.1941 0.0
H705 H 0.65656 0.64868 0.19544 0.0
H706 H 0.61255 0.57678 0.18582 0.0
H707 H 0.61967 0.59793 0.22474 0.0
H708 H 0.51406 0.55593 0.22923 0.0
H709 H 0.50614 0.533 0.19035 0.0
H710 H 0.47807 0.57544 0.20211 0.0
H711 H 0.57564 0.75958 0.13821 0.0
H712 H 0.57719 0.71663 0.08922 0.0
H713 H 0.56627 0.57683 0.13901 0.0
C714 C 0.59326 0.6805 0.24575 0.0
C715 C 0.6105 0.73342 0.25754 0.0
C716 C 0.6056 0.77277 0.23926 0.0
C717 C 0.58803 0.76097 0.20869 0.0
C718 C 0.57492 0.70937 0.19696 0.0
C719 C 0.57593 0.66922 0.21537 0.0
C720 C 0.568 0.6203 0.19696 0.0
C721 C 0.61711 0.61044 0.20098 0.0
C722 C 0.5133 0.56808 0.20515 0.0
C723 C 0.56586 0.6404 0.16519 0.0
C724 C 0.56881 0.69124 0.16532 0.0
C725 C 0.57249 0.71933 0.13804 0.0
C726 C 0.57412 0.69512 0.11022 0.0
C727 C 0.57337 0.6441 0.10993 0.0
C728 C 0.56732 0.61611 0.13796 0.0
H729 H 0.39206 0.96631 0.11783 0.0
H730 H 0.23578 0.91376 0.07244 0.0
H731 H 0.18703 0.86998 0.12048 0.0
H732 H 0.34571 0.85011 0.17508 0.0
H733 H 0.38847 0.89735 0.20438 0.0
H734 H 0.40991 0.91106 0.16518 0.0
H735 H 0.41881 0.00781 0.16884 0.0
H736 H 0.39736 0.99435 0.20786 0.0
H737 H 0.36032 0.01293 0.18095 0.0
H738 H 0.15702 0.8445 0.17419 0.0
H739 H 0.1468 0.84694 0.22943 0.0
H740 H 0.32406 0.9244 0.24131 0.0
C741 C 0.34739 0.94379 0.11774 0.0
C742 C 0.31735 0.94139 0.09115 0.0
C743 C 0.25925 0.91384 0.09218 0.0
C744 C 0.23143 0.88915 0.11941 0.0
C745 C 0.26255 0.89339 0.1454 0.0
C746 C 0.31938 0.92035 0.1448 0.0
C747 C 0.34377 0.92763 0.17658 0.0
C748 C 0.37373 0.89455 0.18053 0.0
C749 C 0.38229 0.98932 0.18397 0.0
C750 C 0.29185 0.90278 0.19544 0.0
C751 C 0.24548 0.88175 0.1769 0.0
C752 C 0.19295 0.86026 0.18885 0.0
C753 C 0.18771 0.86212 0.22034 0.0
C754 C 0.23478 0.88626 0.23972 0.0
C755 C 0.28738 0.90508 0.22715 0.0
H756 H 0.42051 0.06264 0.87175 0.0
H757 H 0.30673 0.0819 0.92901 0.0
H758 H 0.29623 0.13915 0.88877 0.0
H759 H 0.4856 0.19645 0.83003 0.0
H760 H 0.48319 0.16289 0.79475 0.0
H761 H 0.49042 0.13442 0.83033 0.0
H762 H 0.40606 0.04115 0.81659 0.0
H763 H 0.39265 0.0668 0.78198 0.0
H764 H 0.34018 0.03641 0.81024 0.0
H765 H 0.28593 0.17922 0.83856 0.0
H766 H 0.2727 0.19236 0.78398 0.0
H767 H 0.39671 0.15114 0.76037 0.0
C768 C 0.39479 0.0805 0.87623 0.0
C769 C 0.3654 0.06906 0.90367 0.0
C770 C 0.33053 0.0913 0.90833 0.0
C771 C 0.32457 0.12401 0.88563 0.0
C772 C 0.35387 0.13402 0.85851 0.0
C773 C 0.38847 0.11292 0.85392 0.0
C774 C 0.40737 0.12015 0.8213 0.0
C775 C 0.47041 0.1556 0.81899 0.0
C776 C 0.38536 0.06282 0.80669 0.0
C777 C 0.37938 0.15001 0.80804 0.0
C778 C 0.3483 0.15741 0.82977 0.0
C779 C 0.31168 0.17553 0.82167 0.0
C780 C 0.30486 0.18361 0.79063 0.0
C781 C 0.33525 0.17467 0.7681 0.0
C782 C 0.37485 0.16047 0.77719 0.0
H783 H 0.98676 0.26461 0.93595 0.0
H784 H 0.8687 0.31523 0.95803 0.0
H785 H 0.81918 0.27552 0.9094 0.0
H786 H 0.00115 0.30113 0.86142 0.0
H787 H 0.0075 0.24418 0.84736 0.0
H788 H 0.02687 0.26687 0.88593 0.0
H789 H 0.95942 0.16793 0.90591 0.0
H790 H 0.94043 0.14451 0.86727 0.0
H791 H 0.88802 0.13376 0.89431 0.0
H792 H 0.79244 0.24348 0.85376 0.0
H793 H 0.78769 0.21659 0.7996 0.0
H794 H 0.92303 0.18612 0.81585 0.0
C795 C 0.94899 0.26496 0.93113 0.0
C796 C 0.93046 0.29133 0.95106 0.0
C797 C 0.88239 0.29349 0.94345 0.0
C798 C 0.85433 0.27141 0.91577 0.0
C799 C 0.87482 0.24716 0.89604 0.0
C800 C 0.92054 0.24292 0.90379 0.0
C801 C 0.93746 0.21941 0.87792 0.0
C802 C -0.00328 0.26035 0.86756 0.0
C803 C 0.93092 0.16304 0.88689 0.0
C804 C 0.89562 0.21298 0.85393 0.0
C805 C 0.85943 0.22874 0.86464 0.0
C806 C 0.81994 0.22999 0.84543 0.0
C807 C 0.8176 0.21483 0.81465 0.0
C808 C 0.85463 0.19878 0.80338 0.0
C809 C 0.8935 0.1974 0.82362 0.0
H810 H 0.73514 0.60908 0.77874 0.0
H811 H 0.88756 0.76126 0.79774 0.0
H812 H 0.8695 0.74595 0.85281 0.0
H813 H 0.6579 0.62929 0.8309 0.0
H814 H 0.61569 0.55803 0.84261 0.0
H815 H 0.64571 0.57407 0.80534 0.0
H816 H 0.69222 0.51572 0.81621 0.0
H817 H 0.66206 0.4991 0.85361 0.0
H818 H 0.73561 0.53019 0.84938 0.0
H819 H 0.82821 0.72261 0.90503 0.0
H820 H 0.76623 0.69323 0.94955 0.0
H821 H 0.64073 0.55612 0.89713 0.0
C822 C 0.76573 0.6378 0.79461 0.0
C823 C 0.8132 0.68588 0.78402 0.0
C824 C 0.85121 0.72385 0.8054 0.0
C825 C 0.84137 0.71544 0.83676 0.0
C826 C 0.7932 0.66878 0.84655 0.0
C827 C 0.75612 0.63031 0.82612 0.0
C828 C 0.70441 0.58747 0.84228 0.0
C829 C 0.65293 0.58726 0.82953 0.0
C830 C 0.69824 0.52969 0.84025 0.0
C831 C 0.71733 0.60922 0.87463 0.0
C832 C 0.76912 0.65557 0.87677 0.0
C833 C 0.78803 0.68559 0.9038 0.0
C834 C 0.75264 0.66855 0.92905 0.0
C835 C 0.69885 0.62203 0.92708 0.0
C836 C 0.68189 0.59141 0.89964 0.0
H837 H 0.76399 0.82259 0.47751 0.0
H838 H 0.69226 0.67031 0.42564 0.0
H839 H 0.70696 0.62263 0.46911 0.0
H840 H 0.86903 0.8046 0.51719 0.0
H841 H 0.86175 0.83211 0.55266 0.0
H842 H 0.8473 0.85541 0.51719 0.0
H843 H 0.74919 0.82718 0.53586 0.0
H844 H 0.76426 0.80499 0.57142 0.0
H845 H 0.70468 0.75757 0.54955 0.0
H846 H 0.72443 0.58932 0.51917 0.0
H847 H 0.74306 0.57304 0.57227 0.0
H848 H 0.80717 0.74649 0.59241 0.0
C849 C 0.75165 0.77929 0.47526 0.0
C850 C 0.72747 0.75055 0.44779 0.0
C851 C 0.7114 0.69364 0.44611 0.0
C852 C 0.71965 0.66608 0.47077 0.0
C853 C 0.74404 0.69561 0.49731 0.0
C854 C 0.75984 0.75096 0.49979 0.0
C855 C 0.7835 0.7723 0.53137 0.0
C856 C 0.844 0.81887 0.52948 0.0
C857 C 0.74827 0.79164 0.54802 0.0
C858 C 0.7786 0.72041 0.54622 0.0
C859 C 0.75545 0.67662 0.52609 0.0
C860 C 0.74339 0.62354 0.53493 0.0
C861 C 0.75433 0.61466 0.56514 0.0
C862 C 0.77808 0.65865 0.58628 0.0
C863 C 0.79096 0.71245 0.57648 0.0
H864 H 0.24378 0.93188 0.46599 0.0
H865 H 0.35302 0.06555 0.40588 0.0
H866 H 0.36686 0.13379 0.44555 0.0
H867 H 0.17932 0.00331 0.50027 0.0
H868 H 0.17564 0.97445 0.53766 0.0
H869 H 0.17314 0.93608 0.50435 0.0
H870 H 0.2567 0.92888 0.52434 0.0
H871 H 0.25812 0.96576 0.55794 0.0
H872 H 0.31913 0.99116 0.53504 0.0
H873 H 0.37187 0.18696 0.49251 0.0
H874 H 0.37515 0.22035 0.54474 0.0
H875 H 0.25962 0.05333 0.57406 0.0
C876 C 0.2706 0.97557 0.46127 0.0
C877 C 0.29695 0.99371 0.43279 0.0
C878 C 0.33191 0.05103 0.42741 0.0
C879 C 0.34008 0.08997 0.44983 0.0
C880 C 0.31267 0.0709 0.4775 0.0
C881 C 0.27868 0.01505 0.48333 0.0
C882 C 0.25521 0.00549 0.51523 0.0
C883 C 0.19207 0.97821 0.5143 0.0
C884 C 0.27341 0.97081 0.53426 0.0
C885 C 0.28179 0.06467 0.5266 0.0
C886 C 0.31431 0.10175 0.50431 0.0
C887 C 0.34596 0.15838 0.50998 0.0
C888 C 0.34689 0.17717 0.5396 0.0
C889 C 0.31627 0.13964 0.5632 0.0
C890 C 0.28162 0.08306 0.55623 0.0
H891 H 0.90522 0.30127 0.60699 0.0
H892 H 0.81226 0.12231 0.59953 0.0
H893 H 0.86527 0.12883 0.55291 0.0
H894 H 0.91781 0.3366 0.52932 0.0
H895 H 0.98721 0.39374 0.53358 0.0
H896 H 0.94018 0.37299 0.56496 0.0
H897 H 0.00939 0.36009 0.59916 0.0
H898 H 0.05655 0.3818 0.56772 0.0
H899 H 0.03511 0.31631 0.58619 0.0
H900 H 0.92854 0.15944 0.50457 0.0
H901 H -0.00429 0.20869 0.46305 0.0
H902 H 0.04926 0.36479 0.50881 0.0
C903 C 0.895 0.26321 0.59541 0.0
C904 C 0.85365 0.21135 0.60635 0.0
C905 C 0.84322 0.16256 0.59108 0.0
C906 C 0.8733 0.16596 0.56477 0.0
C907 C 0.91437 0.2183 0.55482 0.0
C908 C 0.92534 0.26578 0.57014 0.0
C909 C 0.97231 0.31716 0.55633 0.0
C910 C 0.9532 0.35745 0.54539 0.0
C911 C 0.02119 0.34546 0.57869 0.0
C912 C 0.98564 0.29185 0.53009 0.0
C913 C 0.95204 0.2349 0.5292 0.0
C914 C 0.95551 0.2039 0.50544 0.0
C915 C -0.00622 0.23213 0.482 0.0
C916 C 0.02818 0.29055 0.48282 0.0
C917 C 0.0243 0.32009 0.50755 0.0
loop_
_geom_bond_atom_site_label_1
_geom_bond_atom_site_label_2
_geom_bond_distance
_geom_bond_site_symmetry_2
_ccdc_geom_bond_type
Zn0 O6 1.920 . S
Zn0 O12 1.898 . S
Zn0 O15 1.905 . S
Zn1 O9 1.905 . S
Zn1 O10 1.898 . S
Zn1 O18 1.920 . S
Zn2 O5 2.080 . S
Zn2 O8 2.114 1_455 S
Zn2 O11 2.120 . S
Zn2 O13 2.120 1_454 S
Zn2 O14 2.114 . S
Zn2 O17 2.080 1_455 S
C3 O8 1.166 . S
C3 O9 1.182 . S
C4 O10 1.167 . S
C4 O11 1.299 1_655 S
O5 Zn2 2.080 . S
O5 C19 1.305 1_554 S
O6 Zn0 1.920 . S
O6 C19 1.234 . S
C7 O12 1.167 . S
C7 O13 1.299 1_455 S
O8 Zn2 2.114 1_655 S
O8 C3 1.166 . S
O9 Zn1 1.905 . S
O9 C3 1.182 . S
O10 Zn1 1.898 . S
O10 C4 1.167 . S
O11 Zn2 2.120 . S
O11 C4 1.299 1_455 S
O12 Zn0 1.898 . S
O12 C7 1.167 . S
O13 Zn2 2.120 1_656 S
O13 C7 1.299 1_655 S
O14 Zn2 2.114 . S
O14 C16 1.168 . S
O15 Zn0 1.905 . S
O15 C16 1.170 1_556 S
C16 O14 1.168 . S
C16 O15 1.170 1_554 S
O17 Zn2 2.080 1_655 S
O17 C20 1.305 . S
O18 Zn1 1.920 . S
O18 C20 1.234 . S
C19 O5 1.305 1_556 S
C19 O6 1.234 . S
C20 O17 1.305 . S
C20 O18 1.234 . S
Zn21 O27 1.920 . S
Zn21 O33 1.898 . S
Zn21 O36 1.905 . S
Zn22 O30 1.905 . S
Zn22 O31 1.898 . S
Zn22 O39 1.920 . S
Zn23 O26 2.080 . S
Zn23 O29 2.114 . S
Zn23 O32 2.120 . S
Zn23 O34 2.120 1_554 S
Zn23 O35 2.114 . S
Zn23 O38 2.080 . S
C24 O29 1.166 . S
C24 O30 1.182 . S
C25 O31 1.167 . S
C25 O32 1.299 . S
O26 Zn23 2.080 . S
O26 C40 1.305 1_554 S
O27 Zn21 1.920 . S
O27 C40 1.234 . S
C28 O33 1.167 . S
C28 O34 1.299 . S
O29 Zn23 2.114 . S
O29 C24 1.166 . S
O30 Zn22 1.905 . S
O30 C24 1.182 . S
O31 Zn22 1.898 . S
O31 C25 1.167 . S
O32 Zn23 2.120 . S
O32 C25 1.299 . S
O33 Zn21 1.898 . S
O33 C28 1.167 . S
O34 Zn23 2.120 1_556 S
O34 C28 1.299 . S
O35 Zn23 2.114 . S
O35 C37 1.168 . S
O36 Zn21 1.905 . S
O36 C37 1.170 1_556 S
C37 O35 1.168 . S
C37 O36 1.170 1_554 S
O38 Zn23 2.080 . S
O38 C41 1.305 . S
O39 Zn22 1.920 . S
O39 C41 1.234 . S
C40 O26 1.305 1_556 S
C40 O27 1.234 . S
C41 O38 1.305 . S
C41 O39 1.234 . S
Zn42 O48 1.920 . S
Zn42 O54 1.898 . S
Zn42 O57 1.905 . S
Zn43 O51 1.905 . S
Zn43 O52 1.898 . S
Zn43 O60 1.920 . S
Zn44 O47 2.080 . S
Zn44 O50 2.114 1_545 S
Zn44 O53 2.120 1_554 S
Zn44 O55 2.120 1_545 S
Zn44 O56 2.114 . S
Zn44 O59 2.080 1_545 S
C45 O50 1.168 . S
C45 O51 1.170 1_554 S
C46 O52 1.167 . S
C46 O53 1.299 1_565 S
O47 Zn44 2.080 . S
O47 C61 1.305 . S
O48 Zn42 1.920 . S
O48 C61 1.234 . S
C49 O54 1.167 . S
C49 O55 1.299 1_545 S
O50 Zn44 2.114 1_565 S
O50 C45 1.168 . S
O51 Zn43 1.905 . S
O51 C45 1.170 1_556 S
O52 Zn43 1.898 . S
O52 C46 1.167 . S
O53 Zn44 2.120 1_556 S
O53 C46 1.299 1_545 S
O54 Zn42 1.898 . S
O54 C49 1.167 . S
O55 Zn44 2.120 1_565 S
O55 C49 1.299 1_565 S
O56 Zn44 2.114 . S
O56 C58 1.166 . S
O57 Zn42 1.905 . S
O57 C58 1.182 . S
C58 O56 1.166 . S
C58 O57 1.182 . S
O59 Zn44 2.080 1_565 S
O59 C62 1.305 1_554 S
O60 Zn43 1.920 . S
O60 C62 1.234 . S
C61 O47 1.305 . S
C61 O48 1.234 . S
C62 O59 1.305 1_556 S
C62 O60 1.234 . S
Zn63 O69 1.920 . S
Zn63 O75 1.898 . S
Zn63 O78 1.905 . S
Zn64 O72 1.905 . S
Zn64 O73 1.898 . S
Zn64 O81 1.920 . S
Zn65 O68 2.080 . S
Zn65 O71 2.114 . S
Zn65 O74 2.120 . S
Zn65 O76 2.120 . S
Zn65 O77 2.114 . S
Zn65 O80 2.080 . S
C66 O71 1.166 . S
C66 O72 1.182 . S
C67 O73 1.167 . S
C67 O74 1.299 . S
O68 Zn65 2.080 . S
O68 C82 1.305 . S
O69 Zn63 1.920 . S
O69 C82 1.234 . S
C70 O75 1.167 . S
C70 O76 1.299 . S
O71 Zn65 2.114 . S
O71 C66 1.166 . S
O72 Zn64 1.905 . S
O72 C66 1.182 . S
O73 Zn64 1.898 . S
O73 C67 1.167 . S
O74 Zn65 2.120 . S
O74 C67 1.299 . S
O75 Zn63 1.898 . S
O75 C70 1.167 . S
O76 Zn65 2.120 . S
O76 C70 1.299 . S
O77 Zn65 2.114 . S
O77 C79 1.166 . S
O78 Zn63 1.905 . S
O78 C79 1.182 . S
C79 O77 1.166 . S
C79 O78 1.182 . S
O80 Zn65 2.080 . S
O80 C83 1.305 . S
O81 Zn64 1.920 . S
O81 C83 1.234 . S
C82 O68 1.305 . S
C82 O69 1.234 . S
C83 O80 1.305 . S
C83 O81 1.234 . S
Zn84 O90 1.920 . S
Zn84 O96 1.898 . S
Zn84 O99 1.905 . S
Zn85 O93 1.905 1_565 S
Zn85 O94 1.898 . S
Zn85 O102 1.920 . S
Zn86 O89 2.080 . S
Zn86 O92 2.114 . S
Zn86 O95 2.120 . S
Zn86 O97 2.120 . S
Zn86 O98 2.114 . S
Zn86 O101 2.080 . S
C87 O92 1.166 1_545 S
C87 O93 1.182 . S
C88 O94 1.167 . S
C88 O95 1.299 . S
O89 Zn86 2.080 . S
O89 C103 1.305 . S
O90 Zn84 1.920 . S
O90 C103 1.234 . S
C91 O96 1.167 . S
C91 O97 1.299 . S
O92 Zn86 2.114 . S
O92 C87 1.166 1_565 S
O93 Zn85 1.905 1_545 S
O93 C87 1.182 . S
O94 Zn85 1.898 . S
O94 C88 1.167 . S
O95 Zn86 2.120 . S
O95 C88 1.299 . S
O96 Zn84 1.898 . S
O96 C91 1.167 . S
O97 Zn86 2.120 . S
O97 C91 1.299 . S
O98 Zn86 2.114 . S
O98 C100 1.166 . S
O99 Zn84 1.905 . S
O99 C100 1.182 . S
C100 O98 1.166 . S
C100 O99 1.182 . S
O101 Zn86 2.080 . S
O101 C104 1.305 . S
O102 Zn85 1.920 . S
O102 C104 1.234 . S
C103 O89 1.305 . S
C103 O90 1.234 . S
C104 O101 1.305 . S
C104 O102 1.234 . S
Zn105 O111 1.920 . S
Zn105 O117 1.898 . S
Zn105 O120 1.905 . S
Zn106 O114 1.905 1_455 S
Zn106 O115 1.898 . S
Zn106 O123 1.920 . S
Zn107 O110 2.080 . S
Zn107 O113 2.114 . S
Zn107 O116 2.120 . S
Zn107 O118 2.120 . S
Zn107 O119 2.114 . S
Zn107 O122 2.080 . S
C108 O113 1.166 1_655 S
C108 O114 1.182 . S
C109 O115 1.167 . S
C109 O116 1.299 . S
O110 Zn107 2.080 . S
O110 C124 1.305 . S
O111 Zn105 1.920 . S
O111 C124 1.234 . S
C112 O117 1.167 . S
C112 O118 1.299 . S
O113 Zn107 2.114 . S
O113 C108 1.166 1_455 S
O114 Zn106 1.905 1_655 S
O114 C108 1.182 . S
O115 Zn106 1.898 . S
O115 C109 1.167 . S
O116 Zn107 2.120 . S
O116 C109 1.299 . S
O117 Zn105 1.898 . S
O117 C112 1.167 . S
O118 Zn107 2.120 . S
O118 C112 1.299 . S
O119 Zn107 2.114 . S
O119 C121 1.166 . S
O120 Zn105 1.905 . S
O120 C121 1.182 . S
C121 O119 1.166 . S
C121 O120 1.182 . S
O122 Zn107 2.080 . S
O122 C125 1.305 . S
O123 Zn106 1.920 . S
O123 C125 1.234 . S
C124 O110 1.305 . S
C124 O111 1.234 . S
C125 O122 1.305 . S
C125 O123 1.234 . S
Zn126 O132 1.920 . S
Zn126 O138 1.898 . S
Zn126 O141 1.905 . S
Zn127 O135 1.905 1_545 S
Zn127 O136 1.898 . S
Zn127 O144 1.920 . S
Zn128 O131 2.080 . S
Zn128 O134 2.114 . S
Zn128 O137 2.120 . S
Zn128 O139 2.120 . S
Zn128 O140 2.114 . S
Zn128 O143 2.080 . S
C129 O134 1.166 1_565 S
C129 O135 1.182 . S
C130 O136 1.167 . S
C130 O137 1.299 . S
O131 Zn128 2.080 . S
O131 C145 1.305 . S
O132 Zn126 1.920 . S
O132 C145 1.234 . S
C133 O138 1.167 . S
C133 O139 1.299 . S
O134 Zn128 2.114 . S
O134 C129 1.166 1_545 S
O135 Zn127 1.905 1_565 S
O135 C129 1.182 . S
O136 Zn127 1.898 . S
O136 C130 1.167 . S
O137 Zn128 2.120 . S
O137 C130 1.299 . S
O138 Zn126 1.898 . S
O138 C133 1.167 . S
O139 Zn128 2.120 . S
O139 C133 1.299 . S
O140 Zn128 2.114 . S
O140 C142 1.166 . S
O141 Zn126 1.905 . S
O141 C142 1.182 . S
C142 O140 1.166 . S
C142 O141 1.182 . S
O143 Zn128 2.080 . S
O143 C146 1.305 . S
O144 Zn127 1.920 . S
O144 C146 1.234 . S
C145 O131 1.305 . S
C145 O132 1.234 . S
C146 O143 1.305 . S
C146 O144 1.234 . S
Zn147 O153 1.920 . S
Zn147 O159 1.898 . S
Zn147 O162 1.905 1_655 S
Zn148 O156 1.905 . S
Zn148 O157 1.898 . S
Zn148 O165 1.920 . S
Zn149 O152 2.080 . S
Zn149 O155 2.114 . S
Zn149 O158 2.120 . S
Zn149 O160 2.120 . S
Zn149 O161 2.114 . S
Zn149 O164 2.080 . S
C150 O155 1.166 . S
C150 O156 1.182 . S
C151 O157 1.167 . S
C151 O158 1.299 . S
O152 Zn149 2.080 . S
O152 C166 1.305 . S
O153 Zn147 1.920 . S
O153 C166 1.234 . S
C154 O159 1.167 . S
C154 O160 1.299 . S
O155 Zn149 2.114 . S
O155 C150 1.166 . S
O156 Zn148 1.905 . S
O156 C150 1.182 . S
O157 Zn148 1.898 . S
O157 C151 1.167 . S
O158 Zn149 2.120 . S
O158 C151 1.299 . S
O159 Zn147 1.898 . S
O159 C154 1.167 . S
O160 Zn149 2.120 . S
O160 C154 1.299 . S
O161 Zn149 2.114 . S
O161 C163 1.166 1_655 S
O162 Zn147 1.905 1_455 S
O162 C163 1.182 . S
C163 O161 1.166 1_455 S
C163 O162 1.182 . S
O164 Zn149 2.080 . S
O164 C167 1.305 . S
O165 Zn148 1.920 . S
O165 C167 1.234 . S
C166 O152 1.305 . S
C166 O153 1.234 . S
C167 O164 1.305 . S
C167 O165 1.234 . S
Zn168 O174 1.920 . S
Zn168 O180 1.898 . S
Zn168 O183 1.905 . S
Zn169 O177 1.905 . S
Zn169 O178 1.898 . S
Zn169 O186 1.920 . S
Zn170 O173 2.080 . S
Zn170 O176 2.114 . S
Zn170 O179 2.120 . S
Zn170 O181 2.120 . S
Zn170 O182 2.114 . S
Zn170 O185 2.080 . S
C171 O176 1.166 . S
C171 O177 1.182 . S
C172 O178 1.167 . S
C172 O179 1.299 . S
O173 Zn170 2.080 . S
O173 C187 1.305 . S
O174 Zn168 1.920 . S
O174 C187 1.234 . S
C175 O180 1.167 . S
C175 O181 1.299 . S
O176 Zn170 2.114 . S
O176 C171 1.166 . S
O177 Zn169 1.905 . S
O177 C171 1.182 . S
O178 Zn169 1.898 . S
O178 C172 1.167 . S
O179 Zn170 2.120 . S
O179 C172 1.299 . S
O180 Zn168 1.898 . S
O180 C175 1.167 . S
O181 Zn170 2.120 . S
O181 C175 1.299 . S
O182 Zn170 2.114 . S
O182 C184 1.166 . S
O183 Zn168 1.905 . S
O183 C184 1.182 . S
C184 O182 1.166 . S
C184 O183 1.182 . S
O185 Zn170 2.080 . S
O185 C188 1.305 . S
O186 Zn169 1.920 . S
O186 C188 1.234 . S
C187 O173 1.305 . S
C187 O174 1.234 . S
C188 O185 1.305 . S
C188 O186 1.234 . S
H189 C201 0.930 . S
H190 C203 0.930 . S
H191 C204 0.930 . S
H192 C208 0.959 . S
H193 C208 0.959 . S
H194 C208 0.961 . S
H195 C209 0.960 . S
H196 C209 0.961 . S
H197 C209 0.959 . S
H198 C212 0.929 . S
H199 C213 0.931 . S
H200 C215 0.930 . S
C201 H189 0.930 . S
C201 C202 1.399 . S
C201 C206 1.399 . S
C202 C201 1.399 . S
C202 C203 1.376 1_556 S
C203 H190 0.930 . S
C203 C202 1.376 1_554 S
C203 C204 1.388 . S
C204 H191 0.930 . S
C204 C203 1.388 . S
C204 C205 1.390 . S
C205 C204 1.390 . S
C205 C206 1.394 1_554 S
C205 C211 1.465 . S
C206 C201 1.399 . S
C206 C205 1.394 1_556 S
C206 C207 1.516 . S
C207 C206 1.516 . S
C207 C208 1.502 . S
C207 C209 1.561 . S
C207 C210 1.526 . S
C208 H192 0.959 . S
C208 H193 0.959 . S
C208 H194 0.961 . S
C208 C207 1.502 . S
C209 H195 0.960 . S
C209 H196 0.961 . S
C209 H197 0.959 . S
C209 C207 1.561 . S
C210 C207 1.526 . S
C210 C211 1.396 1_556 S
C210 C215 1.390 . S
C211 C205 1.465 . S
C211 C210 1.396 1_554 S
C211 C212 1.399 . S
C212 H198 0.929 . S
C212 C211 1.399 . S
C212 C213 1.385 . S
C213 H199 0.931 . S
C213 C212 1.385 . S
C213 C214 1.389 . S
C214 C213 1.389 . S
C214 C215 1.387 1_554 S
C215 H200 0.930 . S
C215 C210 1.390 . S
C215 C214 1.387 1_556 S
H216 C228 0.930 . S
H217 C230 0.930 . S
H218 C231 0.930 . S
H219 C235 0.959 . S
H220 C235 0.959 . S
H221 C235 0.961 . S
H222 C236 0.960 . S
H223 C236 0.961 . S
H224 C236 0.959 . S
H225 C239 0.929 . S
H226 C240 0.931 . S
H227 C242 0.930 . S
C228 H216 0.930 . S
C228 C229 1.399 . S
C228 C233 1.399 . S
C229 C228 1.399 . S
C229 C230 1.376 1_556 S
C230 H217 0.930 . S
C230 C229 1.376 1_554 S
C230 C231 1.388 . S
C231 H218 0.930 . S
C231 C230 1.388 . S
C231 C232 1.390 . S
C232 C231 1.390 . S
C232 C233 1.394 1_554 S
C232 C238 1.465 . S
C233 C228 1.399 . S
C233 C232 1.394 1_556 S
C233 C234 1.516 . S
C234 C233 1.516 . S
C234 C235 1.502 . S
C234 C236 1.561 . S
C234 C237 1.526 . S
C235 H219 0.959 . S
C235 H220 0.959 . S
C235 H221 0.961 . S
C235 C234 1.502 . S
C236 H222 0.960 . S
C236 H223 0.961 . S
C236 H224 0.959 . S
C236 C234 1.561 . S
C237 C234 1.526 . S
C237 C238 1.396 1_556 S
C237 C242 1.390 . S
C238 C232 1.465 . S
C238 C237 1.396 1_554 S
C238 C239 1.399 . S
C239 H225 0.929 . S
C239 C238 1.399 . S
C239 C240 1.385 . S
C240 H226 0.931 . S
C240 C239 1.385 . S
C240 C241 1.389 . S
C241 C240 1.389 . S
C241 C242 1.387 1_554 S
C242 H227 0.930 . S
C242 C237 1.390 . S
C242 C241 1.387 1_556 S
H243 C255 0.930 . S
H244 C257 0.930 . S
H245 C258 0.930 . S
H246 C262 0.959 1_554 S
H247 C262 0.959 . S
H248 C262 0.961 . S
H249 C263 0.960 . S
H250 C263 0.961 . S
H251 C263 0.959 . S
H252 C266 0.929 . S
H253 C267 0.931 . S
H254 C269 0.930 . S
C255 H243 0.930 . S
C255 C256 1.399 1_556 S
C255 C260 1.399 . S
C256 C255 1.399 1_554 S
C256 C257 1.376 . S
C257 H244 0.930 . S
C257 C256 1.376 . S
C257 C258 1.388 . S
C258 H245 0.930 . S
C258 C257 1.388 . S
C258 C259 1.390 . S
C259 C258 1.390 . S
C259 C260 1.394 1_554 S
C259 C265 1.465 . S
C260 C255 1.399 . S
C260 C259 1.394 1_556 S
C260 C261 1.516 . S
C261 C260 1.516 . S
C261 C262 1.502 . S
C261 C263 1.561 . S
C261 C264 1.526 . S
C262 H246 0.959 1_556 S
C262 H247 0.959 . S
C262 H248 0.961 . S
C262 C261 1.502 . S
C263 H249 0.960 . S
C263 H250 0.961 . S
C263 H251 0.959 . S
C263 C261 1.561 . S
C264 C261 1.526 . S
C264 C265 1.396 1_556 S
C264 C269 1.390 . S
C265 C259 1.465 . S
C265 C264 1.396 1_554 S
C265 C266 1.399 . S
C266 H252 0.929 . S
C266 C265 1.399 . S
C266 C267 1.385 . S
C267 H253 0.931 . S
C267 C266 1.385 . S
C267 C268 1.389 1_554 S
C268 C267 1.389 1_556 S
C268 C269 1.387 . S
C269 H254 0.930 . S
C269 C264 1.390 . S
C269 C268 1.387 . S
H270 C282 0.936 . S
H271 C284 0.930 . S
H272 C285 0.930 . S
H273 C289 0.959 . S
H274 C289 0.959 . S
H275 C289 0.961 . S
H276 C290 0.960 . S
H277 C290 0.961 . S
H278 C290 0.959 . S
H279 C293 0.929 . S
H280 C294 0.931 . S
H281 C296 0.930 . S
C282 H270 0.936 . S
C282 C283 1.397 1_556 S
C282 C287 1.395 1_556 S
C283 C282 1.397 1_554 S
C283 C284 1.376 . S
C284 H271 0.930 . S
C284 C283 1.376 . S
C284 C285 1.388 . S
C285 H272 0.930 . S
C285 C284 1.388 . S
C285 C286 1.390 . S
C286 C285 1.390 . S
C286 C287 1.394 . S
C286 C292 1.465 . S
C287 C282 1.395 1_554 S
C287 C286 1.394 . S
C287 C288 1.516 . S
C288 C287 1.516 . S
C288 C289 1.502 1_554 S
C288 C290 1.561 . S
C288 C291 1.526 . S
C289 H273 0.959 . S
C289 H274 0.959 . S
C289 H275 0.961 . S
C289 C288 1.502 1_556 S
C290 H276 0.960 . S
C290 H277 0.961 . S
C290 H278 0.959 . S
C290 C288 1.561 . S
C291 C288 1.526 . S
C291 C292 1.396 . S
C291 C296 1.390 . S
C292 C286 1.465 . S
C292 C291 1.396 . S
C292 C293 1.399 . S
C293 H279 0.929 . S
C293 C292 1.399 . S
C293 C294 1.385 . S
C294 H280 0.931 . S
C294 C293 1.385 . S
C294 C295 1.389 . S
C295 C294 1.389 . S
C295 C296 1.387 . S
C296 H281 0.930 . S
C296 C291 1.390 . S
C296 C295 1.387 . S
H297 C309 0.930 . S
H298 C311 0.930 . S
H299 C312 0.930 . S
H300 C316 0.959 . S
H301 C316 0.959 . S
H302 C316 0.961 . S
H303 C317 0.960 . S
H304 C317 0.961 . S
H305 C317 0.959 . S
H306 C320 0.929 . S
H307 C321 0.931 . S
H308 C323 0.930 . S
C309 H297 0.930 . S
C309 C310 1.399 . S
C309 C314 1.399 . S
C310 C309 1.399 . S
C310 C311 1.376 . S
C311 H298 0.930 . S
C311 C310 1.376 . S
C311 C312 1.388 . S
C312 H299 0.930 . S
C312 C311 1.388 . S
C312 C313 1.390 . S
C313 C312 1.390 . S
C313 C314 1.394 . S
C313 C319 1.465 . S
C314 C309 1.399 . S
C314 C313 1.394 . S
C314 C315 1.510 1_554 S
C315 C314 1.510 1_556 S
C315 C316 1.485 1_556 S
C315 C317 1.588 . S
C315 C318 1.524 1_556 S
C316 H300 0.959 . S
C316 H301 0.959 . S
C316 H302 0.961 . S
C316 C315 1.485 1_554 S
C317 H303 0.960 . S
C317 H304 0.961 . S
C317 H305 0.959 . S
C317 C315 1.588 . S
C318 C315 1.524 1_554 S
C318 C319 1.396 . S
C318 C323 1.390 1_554 S
C319 C313 1.465 . S
C319 C318 1.396 . S
C319 C320 1.399 . S
C320 H306 0.929 . S
C320 C319 1.399 . S
C320 C321 1.385 . S
C321 H307 0.931 . S
C321 C320 1.385 . S
C321 C322 1.389 . S
C322 C321 1.389 . S
C322 C323 1.387 1_554 S
C323 H308 0.930 . S
C323 C318 1.390 1_556 S
C323 C322 1.387 1_556 S
H324 C336 0.930 . S
H325 C338 0.930 . S
H326 C339 0.930 . S
H327 C343 0.959 . S
H328 C343 0.959 . S
H329 C343 0.961 . S
H330 C344 0.960 . S
H331 C344 0.961 . S
H332 C344 0.959 . S
H333 C347 0.929 . S
H334 C348 0.931 . S
H335 C350 0.930 . S
C336 H324 0.930 . S
C336 C337 1.399 . S
C336 C341 1.399 . S
C337 C336 1.399 . S
C337 C338 1.376 1_554 S
C338 H325 0.930 . S
C338 C337 1.376 1_556 S
C338 C339 1.388 . S
C339 H326 0.930 . S
C339 C338 1.388 . S
C339 C340 1.390 . S
C340 C339 1.390 . S
C340 C341 1.394 1_556 S
C340 C346 1.465 . S
C341 C336 1.399 . S
C341 C340 1.394 1_554 S
C341 C342 1.516 . S
C342 C341 1.516 . S
C342 C343 1.502 . S
C342 C344 1.561 . S
C342 C345 1.526 . S
C343 H327 0.959 . S
C343 H328 0.959 . S
C343 H329 0.961 . S
C343 C342 1.502 . S
C344 H330 0.960 . S
C344 H331 0.961 . S
C344 H332 0.959 . S
C344 C342 1.561 . S
C345 C342 1.526 . S
C345 C346 1.396 1_554 S
C345 C350 1.390 . S
C346 C340 1.465 . S
C346 C345 1.396 1_556 S
C346 C347 1.399 . S
C347 H333 0.929 . S
C347 C346 1.399 . S
C347 C348 1.385 . S
C348 H334 0.931 . S
C348 C347 1.385 . S
C348 C349 1.389 . S
C349 C348 1.389 . S
C349 C350 1.387 1_556 S
C350 H335 0.930 . S
C350 C345 1.390 . S
C350 C349 1.387 1_554 S
H351 C363 0.930 . S
H352 C365 0.930 . S
H353 C366 0.930 . S
H354 C370 0.959 . S
H355 C370 0.959 . S
H356 C370 0.961 . S
H357 C371 0.960 . S
H358 C371 0.961 . S
H359 C371 0.959 . S
H360 C374 0.929 . S
H361 C375 0.931 . S
H362 C377 0.930 . S
C363 H351 0.930 . S
C363 C364 1.399 . S
C363 C368 1.399 . S
C364 C363 1.399 . S
C364 C365 1.376 . S
C365 H352 0.930 . S
C365 C364 1.376 . S
C365 C366 1.388 . S
C366 H353 0.930 . S
C366 C365 1.388 . S
C366 C367 1.390 . S
C367 C366 1.390 . S
C367 C368 1.394 . S
C367 C373 1.465 . S
C368 C363 1.399 . S
C368 C367 1.394 . S
C368 C369 1.516 . S
C369 C368 1.516 . S
C369 C370 1.502 . S
C369 C371 1.561 . S
C369 C372 1.526 . S
C370 H354 0.959 . S
C370 H355 0.959 . S
C370 H356 0.961 . S
C370 C369 1.502 . S
C371 H357 0.960 . S
C371 H358 0.961 . S
C371 H359 0.959 . S
C371 C369 1.561 . S
C372 C369 1.526 . S
C372 C373 1.396 . S
C372 C377 1.390 1_655 S
C373 C367 1.465 . S
C373 C372 1.396 . S
C373 C374 1.399 1_655 S
C374 H360 0.929 . S
C374 C373 1.399 1_455 S
C374 C375 1.385 . S
C375 H361 0.931 . S
C375 C374 1.385 . S
C375 C376 1.389 . S
C376 C375 1.389 . S
C376 C377 1.387 . S
C377 H362 0.930 . S
C377 C372 1.390 1_455 S
C377 C376 1.387 . S
H378 C390 0.930 . S
H379 C392 0.930 . S
H380 C393 0.930 . S
H381 C397 0.959 . S
H382 C397 0.959 . S
H383 C397 0.961 . S
H384 C398 0.960 . S
H385 C398 0.961 . S
H386 C398 0.959 . S
H387 C401 0.929 . S
H388 C402 0.931 . S
H389 C404 0.930 . S
C390 H378 0.930 . S
C390 C391 1.399 . S
C390 C395 1.399 . S
C391 C390 1.399 . S
C391 C392 1.376 . S
C392 H379 0.930 . S
C392 C391 1.376 . S
C392 C393 1.388 . S
C393 H380 0.930 . S
C393 C392 1.388 . S
C393 C394 1.390 . S
C394 C393 1.390 . S
C394 C395 1.394 . S
C394 C400 1.465 . S
C395 C390 1.399 . S
C395 C394 1.394 . S
C395 C396 1.516 . S
C396 C395 1.516 . S
C396 C397 1.502 . S
C396 C398 1.561 . S
C396 C399 1.526 . S
C397 H381 0.959 . S
C397 H382 0.959 . S
C397 H383 0.961 . S
C397 C396 1.502 . S
C398 H384 0.960 . S
C398 H385 0.961 . S
C398 H386 0.959 . S
C398 C396 1.561 . S
C399 C396 1.526 . S
C399 C400 1.396 . S
C399 C404 1.390 . S
C400 C394 1.465 . S
C400 C399 1.396 . S
C400 C401 1.399 . S
C401 H387 0.929 . S
C401 C400 1.399 . S
C401 C402 1.385 . S
C402 H388 0.931 . S
C402 C401 1.385 . S
C402 C403 1.389 . S
C403 C402 1.389 . S
C403 C404 1.387 . S
C404 H389 0.930 . S
C404 C399 1.390 . S
C404 C403 1.387 . S
H405 C417 0.930 . S
H406 C419 0.930 . S
H407 C420 0.930 . S
H408 C424 0.959 . S
H409 C424 0.959 . S
H410 C424 0.961 . S
H411 C425 0.960 . S
H412 C425 0.961 . S
H413 C425 0.959 . S
H414 C428 0.929 . S
H415 C429 0.931 . S
H416 C431 0.930 . S
C417 H405 0.930 . S
C417 C418 1.399 . S
C417 C422 1.399 . S
C418 C417 1.399 . S
C418 C419 1.376 . S
C419 H406 0.930 . S
C419 C418 1.376 . S
C419 C420 1.388 . S
C420 H407 0.930 . S
C420 C419 1.388 . S
C420 C421 1.390 . S
C421 C420 1.390 . S
C421 C422 1.394 . S
C421 C427 1.465 . S
C422 C417 1.399 . S
C422 C421 1.394 . S
C422 C423 1.516 . S
C423 C422 1.516 . S
C423 C424 1.502 . S
C423 C425 1.561 . S
C423 C426 1.526 . S
C424 H408 0.959 . S
C424 H409 0.959 . S
C424 H410 0.961 . S
C424 C423 1.502 . S
C425 H411 0.960 . S
C425 H412 0.961 . S
C425 H413 0.959 . S
C425 C423 1.561 . S
C426 C423 1.526 . S
C426 C427 1.396 . S
C426 C431 1.390 1_545 S
C427 C421 1.465 . S
C427 C426 1.396 . S
C427 C428 1.399 . S
C428 H414 0.929 . S
C428 C427 1.399 . S
C428 C429 1.385 1_545 S
C429 H415 0.931 . S
C429 C428 1.385 1_565 S
C429 C430 1.389 . S
C430 C429 1.389 . S
C430 C431 1.387 . S
C431 H416 0.930 . S
C431 C426 1.390 1_565 S
C431 C430 1.387 . S
H432 C444 0.930 . S
H433 C446 0.930 . S
H434 C447 0.930 . S
H435 C451 0.959 . S
H436 C451 0.959 . S
H437 C451 0.961 . S
H438 C452 0.960 . S
H439 C452 0.961 . S
H440 C452 0.959 . S
H441 C455 0.929 . S
H442 C456 0.931 . S
H443 C458 0.930 . S
C444 H432 0.930 . S
C444 C445 1.399 . S
C444 C449 1.399 . S
C445 C444 1.399 . S
C445 C446 1.376 . S
C446 H433 0.930 . S
C446 C445 1.376 . S
C446 C447 1.388 . S
C447 H434 0.930 . S
C447 C446 1.388 . S
C447 C448 1.390 . S
C448 C447 1.390 . S
C448 C449 1.394 . S
C448 C454 1.465 . S
C449 C444 1.399 . S
C449 C448 1.394 . S
C449 C450 1.516 . S
C450 C449 1.516 . S
C450 C451 1.502 . S
C450 C452 1.561 . S
C450 C453 1.526 . S
C451 H435 0.959 . S
C451 H436 0.959 . S
C451 H437 0.961 . S
C451 C450 1.502 . S
C452 H438 0.960 . S
C452 H439 0.961 . S
C452 H440 0.959 . S
C452 C450 1.561 . S
C453 C450 1.526 . S
C453 C454 1.396 . S
C453 C458 1.390 . S
C454 C448 1.465 . S
C454 C453 1.396 . S
C454 C455 1.399 . S
C455 H441 0.929 . S
C455 C454 1.399 . S
C455 C456 1.385 . S
C456 H442 0.931 . S
C456 C455 1.385 . S
C456 C457 1.389 . S
C457 C456 1.389 . S
C457 C458 1.387 . S
C458 H443 0.930 . S
C458 C453 1.390 . S
C458 C457 1.387 . S
H459 C471 0.930 . S
H460 C473 0.930 . S
H461 C474 0.930 . S
H462 C478 0.959 . S
H463 C478 0.959 . S
H464 C478 0.961 . S
H465 C479 0.960 . S
H466 C479 0.961 . S
H467 C479 0.959 . S
H468 C482 0.929 . S
H469 C483 0.931 . S
H470 C485 0.930 . S
C471 H459 0.930 . S
C471 C472 1.399 . S
C471 C476 1.399 . S
C472 C471 1.399 . S
C472 C473 1.376 . S
C473 H460 0.930 . S
C473 C472 1.376 . S
C473 C474 1.388 . S
C474 H461 0.930 . S
C474 C473 1.388 . S
C474 C475 1.390 . S
C475 C474 1.390 . S
C475 C476 1.394 . S
C475 C481 1.465 . S
C476 C471 1.399 . S
C476 C475 1.394 . S
C476 C477 1.516 . S
C477 C476 1.516 . S
C477 C478 1.502 . S
C477 C479 1.561 . S
C477 C480 1.526 . S
C478 H462 0.959 . S
C478 H463 0.959 . S
C478 H464 0.961 . S
C478 C477 1.502 . S
C479 H465 0.960 . S
C479 H466 0.961 . S
C479 H467 0.959 . S
C479 C477 1.561 . S
C480 C477 1.526 . S
C480 C481 1.396 . S
C480 C485 1.390 . S
C481 C475 1.465 . S
C481 C480 1.396 . S
C481 C482 1.399 . S
C482 H468 0.929 . S
C482 C481 1.399 . S
C482 C483 1.385 . S
C483 H469 0.931 . S
C483 C482 1.385 . S
C483 C484 1.389 . S
C484 C483 1.389 . S
C484 C485 1.387 . S
C485 H470 0.930 . S
C485 C480 1.390 . S
C485 C484 1.387 . S
H486 C498 0.930 . S
H487 C500 0.930 1_545 S
H488 C501 0.930 . S
H489 C505 0.959 . S
H490 C505 0.959 . S
H491 C505 0.961 . S
H492 C506 0.960 . S
H493 C506 0.961 . S
H494 C506 0.959 . S
H495 C509 0.929 . S
H496 C510 0.931 . S
H497 C512 0.930 . S
C498 H486 0.930 . S
C498 C499 1.399 . S
C498 C503 1.399 . S
C499 C498 1.399 . S
C499 C500 1.376 . S
C500 H487 0.930 1_565 S
C500 C499 1.376 . S
C500 C501 1.388 . S
C501 H488 0.930 . S
C501 C500 1.388 . S
C501 C502 1.390 . S
C502 C501 1.390 . S
C502 C503 1.394 . S
C502 C508 1.465 . S
C503 C498 1.399 . S
C503 C502 1.394 . S
C503 C504 1.516 . S
C504 C503 1.516 . S
C504 C505 1.502 . S
C504 C506 1.561 . S
C504 C507 1.526 . S
C505 H489 0.959 . S
C505 H490 0.959 . S
C505 H491 0.961 . S
C505 C504 1.502 . S
C506 H492 0.960 . S
C506 H493 0.961 . S
C506 H494 0.959 . S
C506 C504 1.561 . S
C507 C504 1.526 . S
C507 C508 1.396 . S
C507 C512 1.390 . S
C508 C502 1.465 . S
C508 C507 1.396 . S
C508 C509 1.399 . S
C509 H495 0.929 . S
C509 C508 1.399 . S
C509 C510 1.385 . S
C510 H496 0.931 . S
C510 C509 1.385 . S
C510 C511 1.389 . S
C511 C510 1.389 . S
C511 C512 1.387 . S
C512 H497 0.930 . S
C512 C507 1.390 . S
C512 C511 1.387 . S
H513 C525 0.930 . S
H514 C527 0.930 . S
H515 C528 0.930 . S
H516 C532 0.959 . S
H517 C532 0.959 . S
H518 C532 0.961 . S
H519 C533 0.960 . S
H520 C533 0.961 . S
H521 C533 0.959 . S
H522 C536 0.929 . S
H523 C537 0.931 . S
H524 C539 0.930 . S
C525 H513 0.930 . S
C525 C526 1.399 . S
C525 C530 1.399 . S
C526 C525 1.399 . S
C526 C527 1.376 . S
C527 H514 0.930 . S
C527 C526 1.376 . S
C527 C528 1.388 . S
C528 H515 0.930 . S
C528 C527 1.388 . S
C528 C529 1.390 . S
C529 C528 1.390 . S
C529 C530 1.394 . S
C529 C535 1.465 . S
C530 C525 1.399 . S
C530 C529 1.394 . S
C530 C531 1.516 . S
C531 C530 1.516 . S
C531 C532 1.502 . S
C531 C533 1.561 . S
C531 C534 1.526 . S
C532 H516 0.959 . S
C532 H517 0.959 . S
C532 H518 0.961 . S
C532 C531 1.502 . S
C533 H519 0.960 . S
C533 H520 0.961 . S
C533 H521 0.959 . S
C533 C531 1.561 . S
C534 C531 1.526 . S
C534 C535 1.396 . S
C534 C539 1.390 . S
C535 C529 1.465 . S
C535 C534 1.396 . S
C535 C536 1.399 . S
C536 H522 0.929 . S
C536 C535 1.399 . S
C536 C537 1.385 . S
C537 H523 0.931 . S
C537 C536 1.385 . S
C537 C538 1.389 . S
C538 C537 1.389 . S
C538 C539 1.387 . S
C539 H524 0.930 . S
C539 C534 1.390 . S
C539 C538 1.387 . S
H540 C552 0.930 . S
H541 C554 0.930 . S
H542 C555 0.930 . S
H543 C559 0.959 . S
H544 C559 0.959 . S
H545 C559 0.961 . S
H546 C560 0.960 . S
H547 C560 0.961 . S
H548 C560 0.959 . S
H549 C563 0.929 . S
H550 C564 0.931 . S
H551 C566 0.930 . S
C552 H540 0.930 . S
C552 C553 1.399 . S
C552 C557 1.399 . S
C553 C552 1.399 . S
C553 C554 1.376 . S
C554 H541 0.930 . S
C554 C553 1.376 . S
C554 C555 1.388 . S
C555 H542 0.930 . S
C555 C554 1.388 . S
C555 C556 1.390 . S
C556 C555 1.390 . S
C556 C557 1.394 . S
C556 C562 1.465 . S
C557 C552 1.399 . S
C557 C556 1.394 . S
C557 C558 1.516 . S
C558 C557 1.516 . S
C558 C559 1.502 . S
C558 C560 1.561 . S
C558 C561 1.526 . S
C559 H543 0.959 . S
C559 H544 0.959 . S
C559 H545 0.961 . S
C559 C558 1.502 . S
C560 H546 0.960 . S
C560 H547 0.961 . S
C560 H548 0.959 . S
C560 C558 1.561 . S
C561 C558 1.526 . S
C561 C562 1.396 . S
C561 C566 1.390 . S
C562 C556 1.465 . S
C562 C561 1.396 . S
C562 C563 1.399 . S
C563 H549 0.929 . S
C563 C562 1.399 . S
C563 C564 1.385 . S
C564 H550 0.931 . S
C564 C563 1.385 . S
C564 C565 1.389 . S
C565 C564 1.389 . S
C565 C566 1.387 . S
C566 H551 0.930 . S
C566 C561 1.390 . S
C566 C565 1.387 . S
H567 C579 0.930 . S
H568 C581 0.930 . S
H569 C582 0.930 . S
H570 C586 0.959 . S
H571 C586 0.959 . S
H572 C586 0.961 . S
H573 C587 0.960 . S
H574 C587 0.961 . S
H575 C587 0.959 . S
H576 C590 0.929 . S
H577 C591 0.931 . S
H578 C593 0.930 . S
C579 H567 0.930 . S
C579 C580 1.399 . S
C579 C584 1.399 . S
C580 C579 1.399 . S
C580 C581 1.376 . S
C581 H568 0.930 . S
C581 C580 1.376 . S
C581 C582 1.388 . S
C582 H569 0.930 . S
C582 C581 1.388 . S
C582 C583 1.390 . S
C583 C582 1.390 . S
C583 C584 1.394 . S
C583 C589 1.465 . S
C584 C579 1.399 . S
C584 C583 1.394 . S
C584 C585 1.516 . S
C585 C584 1.516 . S
C585 C586 1.502 . S
C585 C587 1.561 . S
C585 C588 1.526 . S
C586 H570 0.959 . S
C586 H571 0.959 . S
C586 H572 0.961 . S
C586 C585 1.502 . S
C587 H573 0.960 . S
C587 H574 0.961 . S
C587 H575 0.959 . S
C587 C585 1.561 . S
C588 C585 1.526 . S
C588 C589 1.396 . S
C588 C593 1.390 . S
C589 C583 1.465 . S
C589 C588 1.396 . S
C589 C590 1.399 . S
C590 H576 0.929 . S
C590 C589 1.399 . S
C590 C591 1.385 . S
C591 H577 0.931 . S
C591 C590 1.385 . S
C591 C592 1.389 . S
C592 C591 1.389 . S
C592 C593 1.387 . S
C593 H578 0.930 . S
C593 C588 1.390 . S
C593 C592 1.387 . S
H594 C606 0.930 . S
H595 C608 0.930 . S
H596 C609 0.930 . S
H597 C613 0.959 . S
H598 C613 0.959 1_545 S
H599 C613 0.961 . S
H600 C614 0.960 . S
H601 C614 0.961 . S
H602 C614 0.959 . S
H603 C617 0.929 . S
H604 C618 0.931 . S
H605 C620 0.930 . S
C606 H594 0.930 . S
C606 C607 1.399 . S
C606 C611 1.399 . S
C607 C606 1.399 . S
C607 C608 1.376 . S
C608 H595 0.930 . S
C608 C607 1.376 . S
C608 C609 1.388 . S
C609 H596 0.930 . S
C609 C608 1.388 . S
C609 C610 1.390 . S
C610 C609 1.390 . S
C610 C611 1.394 . S
C610 C616 1.465 . S
C611 C606 1.399 . S
C611 C610 1.394 . S
C611 C612 1.516 . S
C612 C611 1.516 . S
C612 C613 1.502 . S
C612 C614 1.561 . S
C612 C615 1.526 . S
C613 H597 0.959 . S
C613 H598 0.959 1_565 S
C613 H599 0.961 . S
C613 C612 1.502 . S
C614 H600 0.960 . S
C614 H601 0.961 . S
C614 H602 0.959 . S
C614 C612 1.561 . S
C615 C612 1.526 . S
C615 C616 1.396 . S
C615 C620 1.390 1_565 S
C616 C610 1.465 . S
C616 C615 1.396 . S
C616 C617 1.399 . S
C617 H603 0.929 . S
C617 C616 1.399 . S
C617 C618 1.385 1_565 S
C618 H604 0.931 . S
C618 C617 1.385 1_545 S
C618 C619 1.389 . S
C619 C618 1.389 . S
C619 C620 1.387 . S
C620 H605 0.930 . S
C620 C615 1.390 1_545 S
C620 C619 1.387 . S
H621 C633 0.930 . S
H622 C635 0.930 . S
H623 C636 0.930 1_455 S
H624 C640 0.959 . S
H625 C640 0.959 . S
H626 C640 0.961 . S
H627 C641 0.960 . S
H628 C641 0.961 . S
H629 C641 0.959 . S
H630 C644 0.929 . S
H631 C645 0.931 . S
H632 C647 0.930 . S
C633 H621 0.930 . S
C633 C634 1.399 . S
C633 C638 1.399 1_655 S
C634 C633 1.399 . S
C634 C635 1.376 . S
C635 H622 0.930 . S
C635 C634 1.376 . S
C635 C636 1.388 . S
C636 H623 0.930 1_655 S
C636 C635 1.388 . S
C636 C637 1.390 1_655 S
C637 C636 1.390 1_455 S
C637 C638 1.394 . S
C637 C643 1.465 . S
C638 C633 1.399 1_455 S
C638 C637 1.394 . S
C638 C639 1.516 . S
C639 C638 1.516 . S
C639 C640 1.502 . S
C639 C641 1.561 . S
C639 C642 1.526 . S
C640 H624 0.959 . S
C640 H625 0.959 . S
C640 H626 0.961 . S
C640 C639 1.502 . S
C641 H627 0.960 . S
C641 H628 0.961 . S
C641 H629 0.959 . S
C641 C639 1.561 . S
C642 C639 1.526 . S
C642 C643 1.396 . S
C642 C647 1.390 . S
C643 C637 1.465 . S
C643 C642 1.396 . S
C643 C644 1.399 . S
C644 H630 0.929 . S
C644 C643 1.399 . S
C644 C645 1.385 . S
C645 H631 0.931 . S
C645 C644 1.385 . S
C645 C646 1.389 . S
C646 C645 1.389 . S
C646 C647 1.387 . S
C647 H632 0.930 . S
C647 C642 1.390 . S
C647 C646 1.387 . S
H648 C660 0.930 . S
H649 C662 0.930 . S
H650 C663 0.930 . S
H651 C667 0.959 . S
H652 C667 0.959 . S
H653 C667 0.961 . S
H654 C668 0.960 . S
H655 C668 0.961 . S
H656 C668 0.959 . S
H657 C671 0.929 . S
H658 C672 0.931 . S
H659 C674 0.930 . S
C660 H648 0.930 . S
C660 C661 1.399 . S
C660 C665 1.399 . S
C661 C660 1.399 . S
C661 C662 1.376 . S
C662 H649 0.930 . S
C662 C661 1.376 . S
C662 C663 1.388 . S
C663 H650 0.930 . S
C663 C662 1.388 . S
C663 C664 1.390 . S
C664 C663 1.390 . S
C664 C665 1.394 . S
C664 C670 1.465 . S
C665 C660 1.399 . S
C665 C664 1.394 . S
C665 C666 1.516 . S
C666 C665 1.516 . S
C666 C667 1.502 . S
C666 C668 1.561 . S
C666 C669 1.526 . S
C667 H651 0.959 . S
C667 H652 0.959 . S
C667 H653 0.961 . S
C667 C666 1.502 . S
C668 H654 0.960 . S
C668 H655 0.961 . S
C668 H656 0.959 . S
C668 C666 1.561 . S
C669 C666 1.526 . S
C669 C670 1.396 . S
C669 C674 1.390 . S
C670 C664 1.465 . S
C670 C669 1.396 . S
C670 C671 1.399 . S
C671 H657 0.929 . S
C671 C670 1.399 . S
C671 C672 1.385 . S
C672 H658 0.931 . S
C672 C671 1.385 . S
C672 C673 1.389 . S
C673 C672 1.389 . S
C673 C674 1.387 . S
C674 H659 0.930 . S
C674 C669 1.390 . S
C674 C673 1.387 . S
H675 C687 0.930 . S
H676 C689 0.930 . S
H677 C690 0.930 . S
H678 C694 0.959 . S
H679 C694 0.959 . S
H680 C694 0.961 . S
H681 C695 0.955 1_455 S
H682 C695 0.961 . S
H683 C695 0.959 . S
H684 C698 0.929 . S
H685 C699 0.931 . S
H686 C701 0.930 . S
C687 H675 0.930 . S
C687 C688 1.399 . S
C687 C692 1.399 . S
C688 C687 1.399 . S
C688 C689 1.376 . S
C689 H676 0.930 . S
C689 C688 1.376 . S
C689 C690 1.388 . S
C690 H677 0.930 . S
C690 C689 1.388 . S
C690 C691 1.390 . S
C691 C690 1.390 . S
C691 C692 1.394 . S
C691 C697 1.465 . S
C692 C687 1.399 . S
C692 C691 1.394 . S
C692 C693 1.516 . S
C693 C692 1.516 . S
C693 C694 1.502 . S
C693 C695 1.561 1_455 S
C693 C696 1.526 . S
C694 H678 0.959 . S
C694 H679 0.959 . S
C694 H680 0.961 . S
C694 C693 1.502 . S
C695 H681 0.955 1_655 S
C695 H682 0.961 . S
C695 H683 0.959 . S
C695 C693 1.561 1_655 S
C696 C693 1.526 . S
C696 C697 1.396 . S
C696 C701 1.390 . S
C697 C691 1.465 . S
C697 C696 1.396 . S
C697 C698 1.399 . S
C698 H684 0.929 . S
C698 C697 1.399 . S
C698 C699 1.385 . S
C699 H685 0.931 . S
C699 C698 1.385 . S
C699 C700 1.389 . S
C700 C699 1.389 . S
C700 C701 1.387 . S
C701 H686 0.930 . S
C701 C696 1.390 . S
C701 C700 1.387 . S
H702 C714 0.930 . S
H703 C716 0.930 . S
H704 C717 0.930 . S
H705 C721 0.959 . S
H706 C721 0.959 . S
H707 C721 0.961 . S
H708 C722 0.960 . S
H709 C722 0.961 . S
H710 C722 0.959 . S
H711 C725 0.929 . S
H712 C726 0.931 . S
H713 C728 0.930 . S
C714 H702 0.930 . S
C714 C715 1.399 . S
C714 C719 1.399 . S
C715 C714 1.399 . S
C715 C716 1.376 . S
C716 H703 0.930 . S
C716 C715 1.376 . S
C716 C717 1.388 . S
C717 H704 0.930 . S
C717 C716 1.388 . S
C717 C718 1.390 . S
C718 C717 1.390 . S
C718 C719 1.394 . S
C718 C724 1.465 . S
C719 C714 1.399 . S
C719 C718 1.394 . S
C719 C720 1.516 . S
C720 C719 1.516 . S
C720 C721 1.502 . S
C720 C722 1.561 . S
C720 C723 1.526 . S
C721 H705 0.959 . S
C721 H706 0.959 . S
C721 H707 0.961 . S
C721 C720 1.502 . S
C722 H708 0.960 . S
C722 H709 0.961 . S
C722 H710 0.959 . S
C722 C720 1.561 . S
C723 C720 1.526 . S
C723 C724 1.396 . S
C723 C728 1.390 . S
C724 C718 1.465 . S
C724 C723 1.396 . S
C724 C725 1.399 . S
C725 H711 0.929 . S
C725 C724 1.399 . S
C725 C726 1.385 . S
C726 H712 0.931 . S
C726 C725 1.385 . S
C726 C727 1.389 . S
C727 C726 1.389 . S
C727 C728 1.387 . S
C728 H713 0.930 . S
C728 C723 1.390 . S
C728 C727 1.387 . S
H729 C741 0.930 . S
H730 C743 0.930 . S
H731 C744 0.930 . S
H732 C748 0.959 1_565 S
H733 C748 0.959 . S
H734 C748 0.961 . S
H735 C749 0.960 . S
H736 C749 0.961 . S
H737 C749 0.959 . S
H738 C752 0.929 . S
H739 C753 0.931 . S
H740 C755 0.930 1_545 S
C741 H729 0.930 . S
C741 C742 1.399 1_545 S
C741 C746 1.399 1_545 S
C742 C741 1.399 1_565 S
C742 C743 1.376 . S
C743 H730 0.930 . S
C743 C742 1.376 . S
C743 C744 1.388 . S
C744 H731 0.930 . S
C744 C743 1.388 . S
C744 C745 1.390 . S
C745 C744 1.390 . S
C745 C746 1.394 . S
C745 C751 1.465 . S
C746 C741 1.399 1_565 S
C746 C745 1.394 . S
C746 C747 1.516 1_565 S
C747 C746 1.516 1_545 S
C747 C748 1.502 . S
C747 C749 1.561 . S
C747 C750 1.526 1_545 S
C748 H732 0.959 1_545 S
C748 H733 0.959 . S
C748 H734 0.961 . S
C748 C747 1.502 . S
C749 H735 0.960 . S
C749 H736 0.961 . S
C749 H737 0.959 . S
C749 C747 1.561 . S
C750 C747 1.526 1_565 S
C750 C751 1.396 . S
C750 C755 1.390 . S
C751 C745 1.465 . S
C751 C750 1.396 . S
C751 C752 1.399 . S
C752 H738 0.929 . S
C752 C751 1.399 . S
C752 C753 1.385 . S
C753 H739 0.931 . S
C753 C752 1.385 . S
C753 C754 1.389 . S
C754 C753 1.389 . S
C754 C755 1.387 . S
C755 H740 0.930 1_565 S
C755 C750 1.390 . S
C755 C754 1.387 . S
H756 C768 0.930 1_565 S
H757 C770 0.930 . S
H758 C771 0.930 . S
H759 C775 0.959 . S
H760 C775 0.959 . S
H761 C775 0.961 . S
H762 C776 0.960 . S
H763 C776 0.961 . S
H764 C776 0.959 . S
H765 C779 0.929 . S
H766 C780 0.931 . S
H767 C782 0.930 . S
C768 H756 0.930 1_545 S
C768 C769 1.399 . S
C768 C773 1.399 . S
C769 C768 1.399 . S
C769 C770 1.376 . S
C770 H757 0.930 . S
C770 C769 1.376 . S
C770 C771 1.388 . S
C771 H758 0.930 . S
C771 C770 1.388 . S
C771 C772 1.390 . S
C772 C771 1.390 . S
C772 C773 1.394 . S
C772 C778 1.465 . S
C773 C768 1.399 . S
C773 C772 1.394 . S
C773 C774 1.516 . S
C774 C773 1.516 . S
C774 C775 1.502 . S
C774 C776 1.561 1_545 S
C774 C777 1.526 . S
C775 H759 0.959 . S
C775 H760 0.959 . S
C775 H761 0.961 . S
C775 C774 1.502 . S
C776 H762 0.960 . S
C776 H763 0.961 . S
C776 H764 0.959 . S
C776 C774 1.561 1_565 S
C777 C774 1.526 . S
C777 C778 1.396 . S
C777 C782 1.390 . S
C778 C772 1.465 . S
C778 C777 1.396 . S
C778 C779 1.399 . S
C779 H765 0.929 . S
C779 C778 1.399 . S
C779 C780 1.385 . S
C780 H766 0.931 . S
C780 C779 1.385 . S
C780 C781 1.389 . S
C781 C780 1.389 . S
C781 C782 1.387 . S
C782 H767 0.930 . S
C782 C777 1.390 . S
C782 C781 1.387 . S
H783 C795 0.930 . S
H784 C797 0.930 . S
H785 C798 0.930 . S
H786 C802 0.959 1_455 S
H787 C802 0.959 . S
H788 C802 0.961 . S
H789 C803 0.960 . S
H790 C803 0.961 . S
H791 C803 0.959 . S
H792 C806 0.929 . S
H793 C807 0.931 . S
H794 C809 0.930 . S
C795 H783 0.930 . S
C795 C796 1.399 . S
C795 C800 1.399 . S
C796 C795 1.399 . S
C796 C797 1.376 . S
C797 H784 0.930 . S
C797 C796 1.376 . S
C797 C798 1.388 . S
C798 H785 0.930 . S
C798 C797 1.388 . S
C798 C799 1.390 . S
C799 C798 1.390 . S
C799 C800 1.394 . S
C799 C805 1.465 . S
C800 C795 1.399 . S
C800 C799 1.394 . S
C800 C801 1.516 . S
C801 C800 1.516 . S
C801 C802 1.502 . S
C801 C803 1.561 . S
C801 C804 1.526 . S
C802 H786 0.959 1_655 S
C802 H787 0.959 . S
C802 H788 0.961 . S
C802 C801 1.502 . S
C803 H789 0.960 . S
C803 H790 0.961 . S
C803 H791 0.959 . S
C803 C801 1.561 . S
C804 C801 1.526 . S
C804 C805 1.396 . S
C804 C809 1.390 . S
C805 C799 1.465 . S
C805 C804 1.396 . S
C805 C806 1.399 . S
C806 H792 0.929 . S
C806 C805 1.399 . S
C806 C807 1.385 . S
C807 H793 0.931 . S
C807 C806 1.385 . S
C807 C808 1.389 . S
C808 C807 1.389 . S
C808 C809 1.387 . S
C809 H794 0.930 . S
C809 C804 1.390 . S
C809 C808 1.387 . S
H810 C822 0.930 . S
H811 C824 0.930 . S
H812 C825 0.930 . S
H813 C829 0.959 . S
H814 C829 0.959 . S
H815 C829 0.961 . S
H816 C830 0.960 . S
H817 C830 0.961 . S
H818 C830 0.959 . S
H819 C833 0.929 . S
H820 C834 0.931 . S
H821 C836 0.930 . S
C822 H810 0.930 . S
C822 C823 1.399 . S
C822 C827 1.399 . S
C823 C822 1.399 . S
C823 C824 1.376 . S
C824 H811 0.930 . S
C824 C823 1.376 . S
C824 C825 1.388 . S
C825 H812 0.930 . S
C825 C824 1.388 . S
C825 C826 1.390 . S
C826 C825 1.390 . S
C826 C827 1.394 . S
C826 C832 1.465 . S
C827 C822 1.399 . S
C827 C826 1.394 . S
C827 C828 1.516 . S
C828 C827 1.516 . S
C828 C829 1.502 . S
C828 C830 1.561 . S
C828 C831 1.526 . S
C829 H813 0.959 . S
C829 H814 0.959 . S
C829 H815 0.961 . S
C829 C828 1.502 . S
C830 H816 0.960 . S
C830 H817 0.961 . S
C830 H818 0.959 . S
C830 C828 1.561 . S
C831 C828 1.526 . S
C831 C832 1.396 . S
C831 C836 1.390 . S
C832 C826 1.465 . S
C832 C831 1.396 . S
C832 C833 1.399 . S
C833 H819 0.929 . S
C833 C832 1.399 . S
C833 C834 1.385 . S
C834 H820 0.931 . S
C834 C833 1.385 . S
C834 C835 1.389 . S
C835 C834 1.389 . S
C835 C836 1.387 . S
C836 H821 0.930 . S
C836 C831 1.390 . S
C836 C835 1.387 . S
H837 C849 0.930 . S
H838 C851 0.930 . S
H839 C852 0.930 . S
H840 C856 0.959 . S
H841 C856 0.959 . S
H842 C856 0.961 . S
H843 C857 0.960 . S
H844 C857 0.961 . S
H845 C857 0.959 . S
H846 C860 0.929 . S
H847 C861 0.931 . S
H848 C863 0.930 . S
C849 H837 0.930 . S
C849 C850 1.399 . S
C849 C854 1.399 . S
C850 C849 1.399 . S
C850 C851 1.376 . S
C851 H838 0.930 . S
C851 C850 1.376 . S
C851 C852 1.388 . S
C852 H839 0.930 . S
C852 C851 1.388 . S
C852 C853 1.390 . S
C853 C852 1.390 . S
C853 C854 1.394 . S
C853 C859 1.465 . S
C854 C849 1.399 . S
C854 C853 1.394 . S
C854 C855 1.516 . S
C855 C854 1.516 . S
C855 C856 1.502 . S
C855 C857 1.561 . S
C855 C858 1.526 . S
C856 H840 0.959 . S
C856 H841 0.959 . S
C856 H842 0.961 . S
C856 C855 1.502 . S
C857 H843 0.960 . S
C857 H844 0.961 . S
C857 H845 0.959 . S
C857 C855 1.561 . S
C858 C855 1.526 . S
C858 C859 1.396 . S
C858 C863 1.390 . S
C859 C853 1.465 . S
C859 C858 1.396 . S
C859 C860 1.399 . S
C860 H846 0.929 . S
C860 C859 1.399 . S
C860 C861 1.385 . S
C861 H847 0.931 . S
C861 C860 1.385 . S
C861 C862 1.389 . S
C862 C861 1.389 . S
C862 C863 1.387 . S
C863 H848 0.930 . S
C863 C858 1.390 . S
C863 C862 1.387 . S
H864 C876 0.930 . S
H865 C878 0.930 . S
H866 C879 0.930 . S
H867 C883 0.959 . S
H868 C883 0.959 . S
H869 C883 0.961 . S
H870 C884 0.960 . S
H871 C884 0.961 . S
H872 C884 0.959 . S
H873 C887 0.929 . S
H874 C888 0.931 . S
H875 C890 0.930 1_565 S
C876 H864 0.930 . S
C876 C877 1.399 . S
C876 C881 1.399 . S
C877 C876 1.399 . S
C877 C878 1.376 1_565 S
C878 H865 0.930 . S
C878 C877 1.376 1_545 S
C878 C879 1.388 . S
C879 H866 0.930 . S
C879 C878 1.388 . S
C879 C880 1.390 . S
C880 C879 1.390 . S
C880 C881 1.394 1_545 S
C880 C886 1.465 . S
C881 C876 1.399 . S
C881 C880 1.394 1_565 S
C881 C882 1.516 . S
C882 C881 1.516 . S
C882 C883 1.502 . S
C882 C884 1.561 . S
C882 C885 1.526 . S
C883 H867 0.959 . S
C883 H868 0.959 . S
C883 H869 0.961 . S
C883 C882 1.502 . S
C884 H870 0.960 . S
C884 H871 0.961 . S
C884 H872 0.959 . S
C884 C882 1.561 . S
C885 C882 1.526 . S
C885 C886 1.396 1_565 S
C885 C890 1.390 1_565 S
C886 C880 1.465 . S
C886 C885 1.396 1_545 S
C886 C887 1.399 . S
C887 H873 0.929 . S
C887 C886 1.399 . S
C887 C888 1.385 . S
C888 H874 0.931 . S
C888 C887 1.385 . S
C888 C889 1.389 . S
C889 C888 1.389 . S
C889 C890 1.387 . S
C890 H875 0.930 1_545 S
C890 C885 1.390 1_545 S
C890 C889 1.387 . S
H891 C903 0.930 1_455 S
H892 C905 0.930 . S
H893 C906 0.930 . S
H894 C910 0.959 . S
H895 C910 0.959 . S
H896 C910 0.961 . S
H897 C911 0.960 . S
H898 C911 0.961 . S
H899 C911 0.959 . S
H900 C914 0.929 . S
H901 C915 0.931 . S
H902 C917 0.930 . S
C903 H891 0.930 1_655 S
C903 C904 1.399 . S
C903 C908 1.399 1_655 S
C904 C903 1.399 . S
C904 C905 1.376 . S
C905 H892 0.930 . S
C905 C904 1.376 . S
C905 C906 1.388 . S
C906 H893 0.930 . S
C906 C905 1.388 . S
C906 C907 1.390 . S
C907 C906 1.390 . S
C907 C908 1.394 1_655 S
C907 C913 1.465 1_655 S
C908 C903 1.399 1_455 S
C908 C907 1.394 1_455 S
C908 C909 1.516 . S
C909 C908 1.516 . S
C909 C910 1.502 . S
C909 C911 1.561 . S
C909 C912 1.526 . S
C910 H894 0.959 . S
C910 H895 0.959 . S
C910 H896 0.961 . S
C910 C909 1.502 . S
C911 H897 0.960 . S
C911 H898 0.961 . S
C911 H899 0.959 . S
C911 C909 1.561 . S
C912 C909 1.526 . S
C912 C913 1.396 . S
C912 C917 1.390 . S
C913 C907 1.465 1_455 S
C913 C912 1.396 . S
C913 C914 1.399 1_455 S
C914 H900 0.929 . S
C914 C913 1.399 1_655 S
C914 C915 1.385 1_655 S
C915 H901 0.931 . S
C915 C914 1.385 1_455 S
C915 C916 1.389 . S
C916 C915 1.389 . S
C916 C917 1.387 . S
C917 H902 0.930 . S
C917 C912 1.390 . S
C917 C916 1.387 . S
C202 C40 1.103 . S
C214 C16 1.040 . S
C229 C62 1.116 . S
C241 C37 1.047 . S
C256 C45 0.879 . S
C268 C19 0.994 . S
C283 C58 0.817 . S
C295 C41 0.973 . S
C310 C61 0.986 . S
C322 C3 0.856 . S
C337 C20 1.107 . S
C349 C24 1.032 1_556 S
C364 C79 0.906 . S
C376 C104 1.016 . S
C391 C125 0.992 . S
C403 C87 0.835 . S
C418 C108 0.913 . S
C430 C82 1.047 . S
C445 C103 0.991 . S
C457 C121 0.833 . S
C472 C124 1.089 . S
C484 C66 1.013 . S
C499 C100 0.997 . S
C511 C83 1.096 . S
C526 C167 1.109 . S
C538 C142 1.034 . S
C553 C150 0.918 . S
C565 C188 1.050 . S
C580 C171 0.942 . S
C592 C145 1.065 . S
C607 C184 0.929 . S
C619 C166 1.057 . S
C634 C187 1.100 . S
C646 C129 1.025 . S
C661 C146 1.062 . S
C673 C163 0.977 . S
C688 C109 1.464 . S
C700 C4 1.413 1_455 S
C715 C70 1.460 . S
C727 C25 1.486 . S
C742 C49 1.468 1_565 S
C754 C88 1.417 . S
C769 C46 1.446 1_545 S
C781 C130 1.396 . S
C796 C7 1.442 1_655 S
C808 C154 1.482 . S
C823 C175 1.390 . S
C835 C28 1.439 . S
C850 C67 1.396 . S
C862 C172 1.383 . S
C877 C91 1.440 . S
C889 C133 1.392 . S
C904 C151 1.466 . S
C916 C112 1.485 . S
