# Generated by pormake.
# Topology snl, (6)-cn, num edge types: 1
# Building blocks:
#     Node 0, Type 0, BuildingBlock: CUWYAW_clean_sbu_0, # of connection points: 6
#     Node 1, Type 0, BuildingBlock: CUWYAW_clean_sbu_0, # of connection points: 6
#     Node 2, Type 0, BuildingBlock: CUWYAW_clean_sbu_0, # of connection points: 6
#     Node 3, Type 0, BuildingBlock: CUWYAW_clean_sbu_0, # of connection points: 6
#     Node 4, Type 0, BuildingBlock: CUWYAW_clean_sbu_0, # of connection points: 6
#     Node 5, Type 0, BuildingBlock: CUWYAW_clean_sbu_0, # of connection points: 6
#     Node 6, Type 0, BuildingBlock: CUWYAW_clean_sbu_0, # of connection points: 6
#     Node 7, Type 0, BuildingBlock: CUWYAW_clean_sbu_0, # of connection points: 6
#     Node 8, Type 0, BuildingBlock: CUWYAW_clean_sbu_0, # of connection points: 6
#     Node 9, Type 0, BuildingBlock: CUWYAW_clean_sbu_0, # of connection points: 6
#     Node 10, Type 0, BuildingBlock: CUWYAW_clean_sbu_0, # of connection points: 6
#     Node 11, Type 0, BuildingBlock: CUWYAW_clean_sbu_0, # of connection points: 6
#     Node 12, Type 0, BuildingBlock: CUWYAW_clean_sbu_0, # of connection points: 6
#     Node 13, Type 0, BuildingBlock: CUWYAW_clean_sbu_0, # of connection points: 6
#     Node 14, Type 0, BuildingBlock: CUWYAW_clean_sbu_0, # of connection points: 6
#     Node 15, Type 0, BuildingBlock: CUWYAW_clean_sbu_0, # of connection points: 6
#     Edge 16, Type (0, 0), BuildingBlock: XUDNAN_clean_linker_2, # of connection points: 2
#     Edge 17, Type (0, 0), BuildingBlock: XUDNAN_clean_linker_2, # of connection points: 2
#     Edge 18, Type (0, 0), BuildingBlock: XUDNAN_clean_linker_2, # of connection points: 2
#     Edge 19, Type (0, 0), BuildingBlock: XUDNAN_clean_linker_2, # of connection points: 2
#     Edge 20, Type (0, 0), BuildingBlock: XUDNAN_clean_linker_2, # of connection points: 2
#     Edge 21, Type (0, 0), BuildingBlock: XUDNAN_clean_linker_2, # of connection points: 2
#     Edge 22, Type (0, 0), BuildingBlock: XUDNAN_clean_linker_2, # of connection points: 2
#     Edge 23, Type (0, 0), BuildingBlock: XUDNAN_clean_linker_2, # of connection points: 2
#     Edge 24, Type (0, 0), BuildingBlock: XUDNAN_clean_linker_2, # of connection points: 2
#     Edge 25, Type (0, 0), BuildingBlock: XUDNAN_clean_linker_2, # of connection points: 2
#     Edge 26, Type (0, 0), BuildingBlock: XUDNAN_clean_linker_2, # of connection points: 2
#     Edge 27, Type (0, 0), BuildingBlock: XUDNAN_clean_linker_2, # of connection points: 2
#     Edge 28, Type (0, 0), BuildingBlock: XUDNAN_clean_linker_2, # of connection points: 2
#     Edge 29, Type (0, 0), BuildingBlock: XUDNAN_clean_linker_2, # of connection points: 2
#     Edge 30, Type (0, 0), BuildingBlock: XUDNAN_clean_linker_2, # of connection points: 2
#     Edge 31, Type (0, 0), BuildingBlock: XUDNAN_clean_linker_2, # of connection points: 2
#     Edge 32, Type (0, 0), BuildingBlock: XUDNAN_clean_linker_2, # of connection points: 2
#     Edge 33, Type (0, 0), BuildingBlock: XUDNAN_clean_linker_2, # of connection points: 2
#     Edge 34, Type (0, 0), BuildingBlock: XUDNAN_clean_linker_2, # of connection points: 2
#     Edge 35, Type (0, 0), BuildingBlock: XUDNAN_clean_linker_2, # of connection points: 2
#     Edge 36, Type (0, 0), BuildingBlock: XUDNAN_clean_linker_2, # of connection points: 2
#     Edge 37, Type (0, 0), BuildingBlock: XUDNAN_clean_linker_2, # of connection points: 2
#     Edge 38, Type (0, 0), BuildingBlock: XUDNAN_clean_linker_2, # of connection points: 2
#     Edge 39, Type (0, 0), BuildingBlock: XUDNAN_clean_linker_2, # of connection points: 2
#     Edge 40, Type (0, 0), BuildingBlock: XUDNAN_clean_linker_2, # of connection points: 2
#     Edge 41, Type (0, 0), BuildingBlock: XUDNAN_clean_linker_2, # of connection points: 2
#     Edge 42, Type (0, 0), BuildingBlock: XUDNAN_clean_linker_2, # of connection points: 2
#     Edge 43, Type (0, 0), BuildingBlock: XUDNAN_clean_linker_2, # of connection points: 2
#     Edge 44, Type (0, 0), BuildingBlock: XUDNAN_clean_linker_2, # of connection points: 2
#     Edge 45, Type (0, 0), BuildingBlock: XUDNAN_clean_linker_2, # of connection points: 2
#     Edge 46, Type (0, 0), BuildingBlock: XUDNAN_clean_linker_2, # of connection points: 2
#     Edge 47, Type (0, 0), BuildingBlock: XUDNAN_clean_linker_2, # of connection points: 2
#     Edge 48, Type (0, 0), BuildingBlock: XUDNAN_clean_linker_2, # of connection points: 2
#     Edge 49, Type (0, 0), BuildingBlock: XUDNAN_clean_linker_2, # of connection points: 2
#     Edge 50, Type (0, 0), BuildingBlock: XUDNAN_clean_linker_2, # of connection points: 2
#     Edge 51, Type (0, 0), BuildingBlock: XUDNAN_clean_linker_2, # of connection points: 2
#     Edge 52, Type (0, 0), BuildingBlock: XUDNAN_clean_linker_2, # of connection points: 2
#     Edge 53, Type (0, 0), BuildingBlock: XUDNAN_clean_linker_2, # of connection points: 2
#     Edge 54, Type (0, 0), BuildingBlock: XUDNAN_clean_linker_2, # of connection points: 2
#     Edge 55, Type (0, 0), BuildingBlock: XUDNAN_clean_linker_2, # of connection points: 2
#     Edge 56, Type (0, 0), BuildingBlock: XUDNAN_clean_linker_2, # of connection points: 2
#     Edge 57, Type (0, 0), BuildingBlock: XUDNAN_clean_linker_2, # of connection points: 2
#     Edge 58, Type (0, 0), BuildingBlock: XUDNAN_clean_linker_2, # of connection points: 2
#     Edge 59, Type (0, 0), BuildingBlock: XUDNAN_clean_linker_2, # of connection points: 2
#     Edge 60, Type (0, 0), BuildingBlock: XUDNAN_clean_linker_2, # of connection points: 2
#     Edge 61, Type (0, 0), BuildingBlock: XUDNAN_clean_linker_2, # of connection points: 2
#     Edge 62, Type (0, 0), BuildingBlock: XUDNAN_clean_linker_2, # of connection points: 2
#     Edge 63, Type (0, 0), BuildingBlock: XUDNAN_clean_linker_2, # of connection points: 2
# Relax obj value: 0.187
# Max RMSD: 0.246
# Mean RMSD: 0.224
data_MOF--net-snl--node1-CUWYAW_clean_sbu_0--edge1-XUDNAN_clean_linker_2
_symmetry_space_group_name_H-M    P1
_symmetry_Int_Tables_number       1
_symmetry_cell_setting            triclinic
loop_
_symmetry_equiv_pos_as_xyz
'x, y, z'
_cell_length_a     57.179252
_cell_length_b     56.630039
_cell_length_c     25.865603
_cell_angle_alpha  87.354377
_cell_angle_beta   92.553136
_cell_angle_gamma 90.406111
loop_
_atom_site_label
_atom_site_type_symbol
_atom_site_fract_x
_atom_site_fract_y
_atom_site_fract_z
_atom_type_partial_charge
C0 C 0.13822 0.64852 0.99958 0.0
Eu1 Eu 0.14574 0.63545 0.09749 0.0
C2 C 0.14305 0.64138 0.94642 0.0
C3 C 0.16578 0.63617 0.93194 0.0
C4 C 0.16997 0.6307 0.88077 0.0
C5 C 0.15154 0.63017 0.84264 0.0
C6 C 0.12878 0.63521 0.85755 0.0
C7 C 0.12462 0.64077 0.90867 0.0
C8 C 0.18779 0.63714 0.15148 0.0
C9 C 0.15316 0.57816 0.10655 0.0
C10 C 0.15219 0.59725 0.30052 0.0
Eu11 Eu 0.14569 0.61102 0.20254 0.0
C12 C 0.15478 0.60464 0.35518 0.0
C13 C 0.13501 0.60794 0.38466 0.0
C14 C 0.13743 0.61108 0.43821 0.0
C15 C 0.15966 0.61079 0.46392 0.0
C16 C 0.17945 0.60845 0.43397 0.0
C17 C 0.17704 0.60534 0.38048 0.0
C18 C 0.10275 0.61195 0.15129 0.0
C19 C 0.13824 0.66852 0.18907 0.0
O20 O 0.12364 0.63538 0.02605 0.0
O21 O 0.15578 0.65613 0.02857 0.0
O22 O 0.17925 0.6541 0.12106 0.0
O23 O 0.17444 0.61919 0.1499 0.0
O24 O 0.14863 0.59741 0.07745 0.0
O25 O 0.15463 0.57856 0.1578 0.0
O26 O 0.1693 0.60163 0.26943 0.0
O27 O 0.13166 0.59916 0.27653 0.0
O28 O 0.11122 0.59385 0.17829 0.0
O29 O 0.11737 0.6288 0.15263 0.0
O30 O 0.14696 0.65075 0.2191 0.0
O31 O 0.13186 0.66533 0.14031 0.0
H32 H 0.18041 0.63655 0.95998 0.0
H33 H 0.18781 0.6273 0.87098 0.0
H34 H 0.11404 0.63465 0.82985 0.0
H35 H 0.10693 0.64475 0.9187 0.0
H36 H 0.11755 0.60719 0.3668 0.0
H37 H 0.12177 0.61261 0.45983 0.0
H38 H 0.1969 0.60852 0.45206 0.0
H39 H 0.19265 0.60264 0.35925 0.0
C40 C 0.64429 0.85983 0.53342 0.0
Eu41 Eu 0.6445 0.87164 0.43439 0.0
C42 C 0.64039 0.8688 0.58534 0.0
C43 C 0.65898 0.86841 0.62273 0.0
C44 C 0.65545 0.87463 0.67352 0.0
C45 C 0.63315 0.88127 0.68843 0.0
C46 C 0.61461 0.88213 0.65061 0.0
C47 C 0.61817 0.87594 0.59968 0.0
C48 C 0.68497 0.87049 0.38108 0.0
C49 C 0.64638 0.92785 0.41901 0.0
C50 C 0.64516 0.90407 0.23088 0.0
Eu51 Eu 0.63974 0.8918 0.32853 0.0
C52 C 0.63951 0.89887 0.17601 0.0
C53 C 0.61667 0.90116 0.15391 0.0
C54 C 0.61246 0.89944 0.10039 0.0
C55 C 0.63096 0.89547 0.0677 0.0
C56 C 0.65364 0.89236 0.09027 0.0
C57 C 0.65784 0.89411 0.1437 0.0
C58 C 0.59767 0.89027 0.37549 0.0
C59 C 0.63582 0.83399 0.3491 0.0
O60 O 0.62619 0.85729 0.50129 0.0
O61 O 0.66289 0.86743 0.51005 0.0
O62 O 0.67723 0.85345 0.41084 0.0
O63 O 0.67115 0.88791 0.38104 0.0
O64 O 0.63845 0.91021 0.44814 0.0
O65 O 0.65225 0.92416 0.37117 0.0
O66 O 0.65926 0.88973 0.25801 0.0
O67 O 0.62869 0.91236 0.25836 0.0
O68 O 0.60472 0.90744 0.34505 0.0
O69 O 0.61308 0.87416 0.37934 0.0
O70 O 0.63791 0.8519 0.31467 0.0
O71 O 0.63568 0.83731 0.39907 0.0
H72 H 0.67626 0.86285 0.61289 0.0
H73 H 0.67025 0.87415 0.70117 0.0
H74 H 0.59714 0.88692 0.66067 0.0
H75 H 0.60341 0.87629 0.57192 0.0
H76 H 0.60214 0.90491 0.17767 0.0
H77 H 0.59471 0.90157 0.0845 0.0
H78 H 0.66838 0.88958 0.06641 0.0
H79 H 0.67567 0.89258 0.15954 0.0
C80 C 0.37049 0.35718 0.53025 0.0
Eu81 Eu 0.37361 0.37103 0.62584 0.0
C82 C 0.37441 0.36449 0.47564 0.0
C83 C 0.37938 0.38801 0.46017 0.0
C84 C 0.38284 0.39424 0.40781 0.0
C85 C 0.38141 0.37706 0.36988 0.0
C86 C 0.37641 0.35354 0.38594 0.0
C87 C 0.37296 0.34738 0.43812 0.0
C88 C 0.33476 0.3749 0.68391 0.0
C89 C 0.3753 0.42726 0.6251 0.0
C90 C 0.37808 0.4068 0.82141 0.0
Eu91 Eu 0.38174 0.39332 0.72641 0.0
C92 C 0.38189 0.40066 0.87777 0.0
C93 C 0.40442 0.40037 0.90198 0.0
C94 C 0.40735 0.39791 0.95613 0.0
C95 C 0.38786 0.3958 0.98759 0.0
C96 C 0.36539 0.39526 0.9631 0.0
C97 C 0.36246 0.39774 0.90899 0.0
C98 C 0.4221 0.39057 0.67452 0.0
C99 C 0.3853 0.33521 0.71944 0.0
O100 O 0.38896 0.35393 0.56127 0.0
O101 O 0.35348 0.36736 0.55277 0.0
O102 O 0.33991 0.356 0.66041 0.0
O103 O 0.35014 0.39048 0.6757 0.0
O104 O 0.38177 0.40857 0.60118 0.0
O105 O 0.37086 0.42565 0.67496 0.0
O106 O 0.36147 0.39571 0.79579 0.0
O107 O 0.39624 0.41144 0.79354 0.0
O108 O 0.41637 0.40815 0.70176 0.0
O109 O 0.40635 0.37463 0.67677 0.0
O110 O 0.3823 0.35323 0.74969 0.0
O111 O 0.38502 0.33827 0.66886 0.0
H112 H 0.38059 0.40152 0.48847 0.0
H113 H 0.38639 0.41257 0.39702 0.0
H114 H 0.37556 0.33973 0.35831 0.0
H115 H 0.3692 0.32911 0.44924 0.0
H116 H 0.4198 0.40269 0.87927 0.0
H117 H 0.42495 0.39802 0.9734 0.0
H118 H 0.34993 0.39395 0.9858 0.0
H119 H 0.34486 0.39822 0.89164 0.0
C120 C 0.88292 0.14794 0.02688 0.0
Eu121 Eu 0.87563 0.13451 0.93206 0.0
C122 C 0.87753 0.14243 0.08194 0.0
C123 C 0.85531 0.14683 0.10053 0.0
C124 C 0.85144 0.14449 0.15367 0.0
C125 C 0.86967 0.13779 0.1897 0.0
C126 C 0.89163 0.13249 0.17082 0.0
C127 C 0.89553 0.13489 0.11766 0.0
C128 C 0.83409 0.13042 0.87635 0.0
C129 C 0.87077 0.07668 0.93212 0.0
C130 C 0.86047 0.09585 0.73461 0.0
Eu131 Eu 0.87621 0.10907 0.82516 0.0
C132 C 0.86158 0.10229 0.67834 0.0
C133 C 0.88207 0.09985 0.65083 0.0
C134 C 0.88218 0.106 0.59751 0.0
C135 C 0.86185 0.11482 0.57069 0.0
C136 C 0.84136 0.11684 0.59831 0.0
C137 C 0.84123 0.11062 0.65123 0.0
C138 C 0.92135 0.11741 0.8597 0.0
C139 C 0.88474 0.16633 0.83182 0.0
O140 O 0.89672 0.13347 1.00471 0.0
O141 O 0.86618 0.15637 0.99513 0.0
O142 O 0.83961 0.14885 0.9026 0.0
O143 O 0.85009 0.11532 0.88282 0.0
O144 O 0.87229 0.09627 0.9581 0.0
O145 O 0.87144 0.07668 0.88066 0.0
O146 O 0.84971 0.11088 0.76225 0.0
O147 O 0.87886 0.08631 0.75943 0.0
O148 O 0.91561 0.10733 0.81681 0.0
O149 O 0.90277 0.12261 0.88137 0.0
O150 O 0.87548 0.14906 0.8042 0.0
O151 O 0.8908 0.16301 0.88139 0.0
H152 H 0.84102 0.1527 0.07428 0.0
H153 H 0.83419 0.14836 0.16665 0.0
H154 H 0.90614 0.12749 0.19732 0.0
H155 H 0.91291 0.13161 0.10465 0.0
H156 H 0.89803 0.09333 0.67046 0.0
H157 H 0.89828 0.10431 0.57751 0.0
H158 H 0.82526 0.12312 0.57889 0.0
H159 H 0.82508 0.11235 0.6711 0.0
C160 C 0.14918 0.36165 0.02933 0.0
Eu161 Eu 0.14761 0.3742 0.93071 0.0
C162 C 0.14617 0.37073 0.08125 0.0
C163 C 0.16062 0.36188 0.12277 0.0
C164 C 0.158 0.36947 0.17285 0.0
C165 C 0.14074 0.38606 0.18276 0.0
C166 C 0.12645 0.39519 0.14074 0.0
C167 C 0.12916 0.38762 0.09044 0.0
C168 C 0.18658 0.37667 0.87212 0.0
C169 C 0.14678 0.43113 0.91451 0.0
C170 C 0.15253 0.40956 0.72496 0.0
Eu171 Eu 0.14161 0.39592 0.81861 0.0
C172 C 0.14645 0.40722 0.66894 0.0
C173 C 0.1276 0.41963 0.64401 0.0
C174 C 0.12384 0.41939 0.59009 0.0
C175 C 0.13888 0.4068 0.55973 0.0
C176 C 0.15736 0.39392 0.58494 0.0
C177 C 0.16114 0.39421 0.63876 0.0
C178 C 0.09768 0.38948 0.85467 0.0
C179 C 0.13611 0.33854 0.84249 0.0
O180 O 0.13048 0.35941 0.99875 0.0
O181 O 0.16734 0.36942 1.00461 0.0
O182 O 0.18133 0.35834 0.90142 0.0
O183 O 0.1712 0.39225 0.87536 0.0
O184 O 0.14262 0.41279 0.94618 0.0
O185 O 0.14971 0.42868 0.86438 0.0
O186 O 0.16189 0.39117 0.75054 0.0
O187 O 0.13835 0.42136 0.75273 0.0
O188 O 0.10216 0.39861 0.80926 0.0
O189 O 0.11682 0.38444 0.87937 0.0
O190 O 0.14205 0.35569 0.80861 0.0
O191 O 0.13371 0.34244 0.89177 0.0
H192 H 0.17397 0.34895 0.11647 0.0
H193 H 0.16971 0.36242 0.20374 0.0
H194 H 0.11286 0.40787 0.14678 0.0
H195 H 0.11787 0.39481 0.05891 0.0
H196 H 0.11602 0.42999 0.66592 0.0
H197 H 0.10927 0.42928 0.5721 0.0
H198 H 0.1695 0.38431 0.56289 0.0
H199 H 0.17605 0.38478 0.65662 0.0
C200 C 0.87023 0.86123 0.0343 0.0
Eu201 Eu 0.87244 0.87147 0.13199 0.0
C202 C 0.87577 0.86879 0.98078 0.0
C203 C 0.85848 0.86628 0.94121 0.0
C204 C 0.86378 0.87019 0.88928 0.0
C205 C 0.88656 0.87667 0.87566 0.0
C206 C 0.90369 0.88006 0.91555 0.0
C207 C 0.89835 0.87615 0.96765 0.0
C208 C 0.83217 0.86847 0.18674 0.0
C209 C 0.87197 0.92665 0.14188 0.0
C210 C 0.87277 0.89868 0.33176 0.0
Eu211 Eu 0.87775 0.88864 0.23511 0.0
C212 C 0.87919 0.89225 0.38668 0.0
C213 C 0.90205 0.89543 0.40764 0.0
C214 C 0.90693 0.89194 0.46101 0.0
C215 C 0.88905 0.8853 0.49458 0.0
C216 C 0.86636 0.88151 0.47318 0.0
C217 C 0.8615 0.88501 0.41995 0.0
C218 C 0.91976 0.88952 0.18767 0.0
C219 C 0.88362 0.83182 0.21847 0.0
O220 O 0.88752 0.85506 0.06673 0.0
O221 O 0.85372 0.87244 0.05621 0.0
O222 O 0.84018 0.85195 0.15961 0.0
O223 O 0.84583 0.88612 0.18437 0.0
O224 O 0.88075 0.90989 0.11539 0.0
O225 O 0.86496 0.9216 0.18913 0.0
O226 O 0.85887 0.88435 0.3066 0.0
O227 O 0.8887 0.90829 0.3027 0.0
O228 O 0.91277 0.90547 0.21774 0.0
O229 O 0.90448 0.87322 0.18491 0.0
O230 O 0.87921 0.84822 0.25173 0.0
O231 O 0.88479 0.83736 0.16881 0.0
H232 H 0.841 0.86042 0.95039 0.0
H233 H 0.85021 0.8671 0.85976 0.0
H234 H 0.92133 0.88537 0.90649 0.0
H235 H 0.91203 0.87826 0.99746 0.0
H236 H 0.91605 0.90121 0.38312 0.0
H237 H 0.92456 0.89523 0.47616 0.0
H238 H 0.85225 0.876 0.49766 0.0
H239 H 0.84369 0.88262 0.40492 0.0
C240 C 0.38058 0.645 0.52187 0.0
Eu241 Eu 0.37763 0.63316 0.42524 0.0
C242 C 0.38381 0.63648 0.57664 0.0
C243 C 0.36721 0.64275 0.61186 0.0
C244 C 0.37098 0.63768 0.66496 0.0
C245 C 0.39155 0.62626 0.6842 0.0
C246 C 0.40782 0.61922 0.64867 0.0
C247 C 0.40401 0.62428 0.59539 0.0
C248 C 0.33598 0.63587 0.36865 0.0
C249 C 0.37298 0.5774 0.41669 0.0
C250 C 0.37101 0.60346 0.2249 0.0
Eu251 Eu 0.3788 0.61415 0.32153 0.0
C252 C 0.37826 0.60866 0.17122 0.0
C253 C 0.40008 0.60139 0.15475 0.0
C254 C 0.40554 0.60423 0.10258 0.0
C255 C 0.38932 0.61437 0.06559 0.0
C256 C 0.36771 0.62209 0.08244 0.0
C257 C 0.36224 0.61918 0.13454 0.0
C258 C 0.42217 0.6141 0.37134 0.0
C259 C 0.38583 0.67115 0.33447 0.0
O260 O 0.39851 0.64456 0.49225 0.0
O261 O 0.36085 0.63991 0.49739 0.0
O262 O 0.34492 0.65264 0.39572 0.0
O263 O 0.34934 0.61811 0.37245 0.0
O264 O 0.38235 0.59419 0.44444 0.0
O265 O 0.36586 0.58208 0.368 0.0
O266 O 0.35951 0.6198 0.24711 0.0
O267 O 0.38559 0.59202 0.2572 0.0
O268 O 0.41454 0.59814 0.34044 0.0
O269 O 0.40709 0.63029 0.37221 0.0
O270 O 0.37973 0.65423 0.30271 0.0
O271 O 0.3893 0.66649 0.38453 0.0
H272 H 0.35161 0.65237 0.59844 0.0
H273 H 0.3582 0.64364 0.69109 0.0
H274 H 0.4237 0.61012 0.6621 0.0
H275 H 0.41713 0.61919 0.56915 0.0
H276 H 0.41276 0.59299 0.18187 0.0
H277 H 0.42223 0.59782 0.09102 0.0
H278 H 0.35493 0.63031 0.05531 0.0
H279 H 0.34521 0.62477 0.14601 0.0
C280 C 0.63958 0.14793 0.50696 0.0
Eu281 Eu 0.64433 0.13327 0.60467 0.0
C282 C 0.64433 0.14208 0.4526 0.0
C283 C 0.66672 0.14509 0.43273 0.0
C284 C 0.67024 0.14257 0.37987 0.0
C285 C 0.65148 0.13708 0.34512 0.0
C286 C 0.62926 0.13323 0.36543 0.0
C287 C 0.62573 0.1358 0.41831 0.0
C288 C 0.68577 0.1287 0.66159 0.0
C289 C 0.64753 0.07544 0.61058 0.0
C290 C 0.64632 0.09376 0.80633 0.0
Eu291 Eu 0.64123 0.10776 0.70812 0.0
C292 C 0.64834 0.1025 0.86007 0.0
C293 C 0.62924 0.10045 0.89257 0.0
C294 C 0.63141 0.10682 0.94447 0.0
C295 C 0.6528 0.11533 0.96562 0.0
C296 C 0.6719 0.11737 0.93294 0.0
C297 C 0.66972 0.11104 0.88107 0.0
C298 C 0.59898 0.11154 0.65518 0.0
C299 C 0.63756 0.1658 0.69692 0.0
O300 O 0.62375 0.13542 0.53117 0.0
O301 O 0.65716 0.15387 0.53797 0.0
O302 O 0.67987 0.14769 0.63425 0.0
O303 O 0.67019 0.1131 0.6559 0.0
O304 O 0.64384 0.09521 0.58249 0.0
O305 O 0.64912 0.07534 0.66197 0.0
O306 O 0.6638 0.09754 0.77595 0.0
O307 O 0.62607 0.0957 0.78107 0.0
O308 O 0.60641 0.09286 0.68176 0.0
O309 O 0.61443 0.12774 0.65737 0.0
O310 O 0.645 0.14727 0.72635 0.0
O311 O 0.63166 0.16352 0.64766 0.0
H312 H 0.68149 0.15002 0.45771 0.0
H313 H 0.6877 0.14529 0.36606 0.0
H314 H 0.61432 0.12921 0.34008 0.0
H315 H 0.60819 0.13364 0.43207 0.0
H316 H 0.61259 0.09363 0.87802 0.0
H317 H 0.6162 0.1052 0.96788 0.0
H318 H 0.68882 0.12341 0.94768 0.0
H319 H 0.68497 0.1125 0.8577 0.0
C320 C 0.87847 0.4094 0.71749 0.0
Eu321 Eu 0.88333 0.39481 0.81545 0.0
C322 C 0.87655 0.40162 0.66299 0.0
C323 C 0.89281 0.41002 0.62712 0.0
C324 C 0.88996 0.4053 0.57431 0.0
C325 C 0.87062 0.39215 0.55567 0.0
C326 C 0.85475 0.3831 0.592 0.0
C327 C 0.85764 0.38779 0.64483 0.0
C328 C 0.92554 0.39098 0.86863 0.0
C329 C 0.88687 0.33682 0.82633 0.0
C330 C 0.88302 0.35461 1.01609 0.0
Eu331 Eu 0.8796 0.36921 0.91803 0.0
C332 C 0.87797 0.36129 0.06986 0.0
C333 C 0.85812 0.35216 0.09422 0.0
C334 C 0.8543 0.35651 0.14619 0.0
C335 C 0.87028 0.37004 0.17578 0.0
C336 C 0.89016 0.37922 0.15137 0.0
C337 C 0.89395 0.3749 0.09925 0.0
C338 C 0.8381 0.37486 0.86065 0.0
C339 C 0.87767 0.42669 0.91365 0.0
O340 O 0.86094 0.40512 0.74746 0.0
O341 O 0.89869 0.40728 0.74277 0.0
O342 O 0.91817 0.40961 0.84178 0.0
O343 O 0.91007 0.37472 0.86661 0.0
O344 O 0.87948 0.35535 0.79688 0.0
O345 O 0.89251 0.33901 0.87568 0.0
O346 O 0.89956 0.36614 0.99211 0.0
O347 O 0.86545 0.3493 0.9845 0.0
O348 O 0.84387 0.35558 0.88709 0.0
O349 O 0.85398 0.39011 0.86711 0.0
O350 O 0.88194 0.4069 0.94096 0.0
O351 O 0.8753 0.42701 0.86232 0.0
H352 H 0.90744 0.42093 0.63972 0.0
H353 H 0.90244 0.41279 0.5478 0.0
H354 H 0.83985 0.37256 0.57955 0.0
H355 H 0.84474 0.38099 0.67118 0.0
H356 H 0.84567 0.3412 0.07337 0.0
H357 H 0.83899 0.34873 0.16352 0.0
H358 H 0.90278 0.38989 0.17245 0.0
H359 H 0.90964 0.38199 0.08224 0.0
C360 C 0.37487 0.09223 0.8206 0.0
Eu361 Eu 0.38553 0.10718 0.7274 0.0
C362 C 0.38066 0.09416 0.877 0.0
C363 C 0.39471 0.07709 0.90435 0.0
C364 C 0.39764 0.0771 0.95849 0.0
C365 C 0.38646 0.09407 0.98684 0.0
C366 C 0.37292 0.11152 0.95926 0.0
C367 C 0.37 0.11151 0.90518 0.0
C368 C 0.4288 0.11672 0.69035 0.0
C369 C 0.38844 0.16502 0.7088 0.0
C370 C 0.38142 0.14518 0.51644 0.0
Eu371 Eu 0.37949 0.13151 0.61409 0.0
C372 C 0.3827 0.13553 0.46444 0.0
C373 C 0.37191 0.14792 0.42178 0.0
C374 C 0.37303 0.13959 0.37184 0.0
C375 C 0.38512 0.11865 0.36318 0.0
C376 C 0.39576 0.1061 0.40634 0.0
C377 C 0.39452 0.11443 0.45645 0.0
C378 C 0.34022 0.12629 0.67032 0.0
C379 C 0.38175 0.07397 0.62723 0.0
O380 O 0.36525 0.11063 0.79568 0.0
O381 O 0.38935 0.08104 0.79236 0.0
O382 O 0.42529 0.10662 0.73547 0.0
O383 O 0.40912 0.1213 0.66799 0.0
O384 O 0.38351 0.14677 0.74065 0.0
O385 O 0.39103 0.16284 0.6587 0.0
O386 O 0.39991 0.14293 0.54807 0.0
O387 O 0.36181 0.14174 0.53992 0.0
O388 O 0.3441 0.14448 0.63928 0.0
O389 O 0.35669 0.11167 0.66845 0.0
O390 O 0.38228 0.0931 0.59609 0.0
O391 O 0.38113 0.0748 0.67852 0.0
H392 H 0.40297 0.0633 0.88406 0.0
H393 H 0.40846 0.06356 0.97821 0.0
H394 H 0.36375 0.12467 0.97958 0.0
H395 H 0.35872 0.12472 0.88566 0.0
H396 H 0.36255 0.16414 0.42709 0.0
H397 H 0.36416 0.14951 0.34007 0.0
H398 H 0.40538 0.09002 0.40141 0.0
H399 H 0.40291 0.10447 0.48882 0.0
C400 C 0.66104 0.61918 0.52164 0.0
Eu401 Eu 0.65195 0.62194 0.42172 0.0
C402 C 0.65371 0.62496 0.57363 0.0
C403 C 0.65331 0.64832 0.58976 0.0
C404 C 0.64919 0.65283 0.64141 0.0
C405 C 0.64558 0.63407 0.67787 0.0
C406 C 0.64523 0.61081 0.66105 0.0
C407 C 0.64932 0.60633 0.60962 0.0
C408 C 0.64949 0.66213 0.36066 0.0
C409 C 0.59516 0.61839 0.39058 0.0
C410 C 0.62759 0.60785 0.2161 0.0
Eu411 Eu 0.63673 0.61166 0.31517 0.0
C412 C 0.63413 0.61508 0.16313 0.0
C413 C 0.6347 0.59782 0.12609 0.0
C414 C 0.63744 0.60426 0.07393 0.0
C415 C 0.63964 0.62819 0.05759 0.0
C416 C 0.64 0.64543 0.09515 0.0
C417 C 0.63728 0.63895 0.14747 0.0
C418 C 0.64162 0.57291 0.38285 0.0
C419 C 0.69153 0.61811 0.33951 0.0
O420 O 0.64862 0.60347 0.49686 0.0
O421 O 0.66898 0.63612 0.49093 0.0
O422 O 0.66531 0.6576 0.39716 0.0
O423 O 0.63473 0.64523 0.35832 0.0
O424 O 0.61171 0.62087 0.42773 0.0
O425 O 0.60053 0.61564 0.34239 0.0
O426 O 0.61828 0.62379 0.24374 0.0
O427 O 0.64143 0.59336 0.24359 0.0
O428 O 0.62435 0.57554 0.34899 0.0
O429 O 0.65525 0.59022 0.37816 0.0
O430 O 0.67444 0.62373 0.3053 0.0
O431 O 0.6865 0.61204 0.38783 0.0
H432 H 0.6568 0.66305 0.56296 0.0
H433 H 0.6497 0.67094 0.65317 0.0
H434 H 0.64209 0.59598 0.68784 0.0
H435 H 0.64969 0.58815 0.59827 0.0
H436 H 0.63208 0.57934 0.13723 0.0
H437 H 0.63677 0.59052 0.04612 0.0
H438 H 0.64199 0.66398 0.08398 0.0
H439 H 0.63693 0.65264 0.17533 0.0
C440 C 0.14676 0.90732 0.31655 0.0
Eu441 Eu 0.13791 0.89756 0.21964 0.0
C442 C 0.13957 0.90208 0.37015 0.0
C443 C 0.11647 0.9055 0.38461 0.0
C444 C 0.11072 0.90257 0.43662 0.0
C445 C 0.12792 0.89615 0.47531 0.0
C446 C 0.15089 0.8922 0.46037 0.0
C447 C 0.15663 0.8952 0.40846 0.0
C448 C 0.09306 0.89564 0.17691 0.0
C449 C 0.13306 0.84042 0.20317 0.0
C450 C 0.13388 0.87001 1.01914 0.0
Eu451 Eu 0.13765 0.88061 0.11665 0.0
C452 C 0.13026 0.87854 0.96436 0.0
C453 C 0.14832 0.87567 0.93018 0.0
C454 C 0.14447 0.88005 0.87687 0.0
C455 C 0.12237 0.88732 0.85628 0.0
C456 C 0.10451 0.89111 0.89075 0.0
C457 C 0.10839 0.88673 0.94423 0.0
C458 C 0.18103 0.87904 0.16763 0.0
C459 C 0.13953 0.93603 0.1266 0.0
O460 O 0.15742 0.89067 0.29353 0.0
O461 O 0.13242 0.91945 0.28504 0.0
O462 O 0.10117 0.91212 0.20583 0.0
O463 O 0.10885 0.88036 0.17269 0.0
O464 O 0.13957 0.85702 0.23556 0.0
O465 O 0.12782 0.84608 0.15426 0.0
O466 O 0.11622 0.86997 0.04955 0.0
O467 O 0.1537 0.87513 0.04313 0.0
O468 O 0.17172 0.86232 0.141 0.0
O469 O 0.16702 0.89632 0.16666 0.0
O470 O 0.12967 0.91918 0.10004 0.0
O471 O 0.14874 0.93091 0.17353 0.0
H472 H 0.10293 0.91091 0.35598 0.0
H473 H 0.09292 0.906 0.44663 0.0
H474 H 0.16451 0.88682 0.48883 0.0
H475 H 0.17458 0.89255 0.39832 0.0
H476 H 0.16525 0.86905 0.9445 0.0
H477 H 0.15854 0.87662 0.85162 0.0
H478 H 0.08737 0.89702 0.8763 0.0
H479 H 0.09406 0.88905 0.9695 0.0
C480 C 0.89273 0.58961 0.3155 0.0
Eu481 Eu 0.89119 0.60305 0.21684 0.0
C482 C 0.88643 0.59632 0.36818 0.0
C483 C 0.90232 0.60886 0.39993 0.0
C484 C 0.89751 0.61282 0.45156 0.0
C485 C 0.87673 0.60423 0.47306 0.0
C486 C 0.86072 0.59195 0.44097 0.0
C487 C 0.86551 0.58802 0.38938 0.0
C488 C 0.93073 0.6073 0.16188 0.0
C489 C 0.88898 0.66036 0.20107 0.0
C490 C 0.88427 0.6401 1.01275 0.0
Eu491 Eu 0.88281 0.62566 0.11035 0.0
C492 C 0.88145 0.63252 0.95864 0.0
C493 C 0.86231 0.61876 0.94159 0.0
C494 C 0.85907 0.61386 0.889 0.0
C495 C 0.87489 0.62258 0.85228 0.0
C496 C 0.89443 0.63566 0.86997 0.0
C497 C 0.89761 0.64059 0.92243 0.0
C498 C 0.84339 0.62052 0.16701 0.0
C499 C 0.88368 0.56828 0.12247 0.0
O500 O 0.87589 0.58386 0.28256 0.0
O501 O 0.90953 0.60132 0.29295 0.0
O502 O 0.92533 0.589 0.19093 0.0
O503 O 0.91491 0.62285 0.16302 0.0
O504 O 0.88332 0.64186 0.23135 0.0
O505 O 0.89386 0.65771 0.15243 0.0
O506 O 0.90254 0.63236 0.04047 0.0
O507 O 0.86558 0.6412 0.03991 0.0
O508 O 0.84724 0.63848 0.13547 0.0
O509 O 0.85969 0.60574 0.16482 0.0
O510 O 0.88592 0.58725 0.09156 0.0
O511 O 0.8828 0.5698 0.17337 0.0
H512 H 0.91876 0.61525 0.38523 0.0
H513 H 0.91015 0.62261 0.47464 0.0
H514 H 0.8447 0.5847 0.4561 0.0
H515 H 0.85305 0.57792 0.36649 0.0
H516 H 0.84963 0.61216 0.96866 0.0
H517 H 0.84403 0.60341 0.87702 0.0
H518 H 0.90685 0.64288 0.84299 0.0
H519 H 0.91246 0.65131 0.93454 0.0
C520 C 0.16441 0.12933 0.0256 0.0
Eu521 Eu 0.14875 0.12847 0.92933 0.0
C522 C 0.15927 0.13602 0.07874 0.0
C523 C 0.17277 0.15359 0.10273 0.0
C524 C 0.17053 0.15776 0.15526 0.0
C525 C 0.15489 0.14426 0.18519 0.0
C526 C 0.14088 0.12717 0.16075 0.0
C527 C 0.14303 0.12308 0.10822 0.0
C528 C 0.13331 0.16678 0.87024 0.0
C529 C 0.09389 0.1231 0.89583 0.0
C530 C 0.1262 0.11066 0.72169 0.0
Eu531 Eu 0.13529 0.11658 0.82005 0.0
C532 C 0.13266 0.11731 0.66848 0.0
C533 C 0.12193 0.10528 0.62761 0.0
C534 C 0.12667 0.11163 0.5763 0.0
C535 C 0.14235 0.13017 0.56461 0.0
C536 C 0.15333 0.14208 0.60592 0.0
C537 C 0.14852 0.13569 0.6575 0.0
C538 C 0.13819 0.07908 0.89192 0.0
C539 C 0.18983 0.12591 0.8454 0.0
O540 O 0.15239 0.11176 1.00633 0.0
O541 O 0.16897 0.14607 0.99067 0.0
O542 O 0.12875 0.16245 0.91839 0.0
O543 O 0.14634 0.15072 0.85492 0.0
O544 O 0.10969 0.11908 0.93443 0.0
O545 O 0.10051 0.12719 0.8481 0.0
O546 O 0.11634 0.12691 0.74773 0.0
O547 O 0.1408 0.09738 0.75032 0.0
O548 O 0.12175 0.08116 0.856 0.0
O549 O 0.15188 0.09626 0.88713 0.0
O550 O 0.17321 0.12581 0.80844 0.0
O551 O 0.18482 0.12496 0.89506 0.0
H552 H 0.18567 0.16359 0.08129 0.0
H553 H 0.18174 0.17092 0.17291 0.0
H554 H 0.12842 0.11669 0.18244 0.0
H555 H 0.13243 0.10929 0.09121 0.0
H556 H 0.10953 0.09113 0.63536 0.0
H557 H 0.11755 0.10232 0.54573 0.0
H558 H 0.16568 0.15629 0.59843 0.0
H559 H 0.15699 0.14518 0.68865 0.0
C560 C 0.64482 0.40623 0.81581 0.0
Eu561 Eu 0.63808 0.39443 0.71943 0.0
C562 C 0.64685 0.39695 0.87053 0.0
C563 C 0.62741 0.39711 0.90199 0.0
C564 C 0.62983 0.39093 0.95504 0.0
C565 C 0.65179 0.38459 0.97809 0.0
C566 C 0.67115 0.38412 0.94639 0.0
C567 C 0.66873 0.39028 0.89338 0.0
C568 C 0.59481 0.39148 0.67073 0.0
C569 C 0.63456 0.3373 0.70865 0.0
C570 C 0.6353 0.36167 0.52179 0.0
Eu571 Eu 0.64008 0.37452 0.61762 0.0
C572 C 0.64112 0.3672 0.46723 0.0
C573 C 0.66414 0.36563 0.45076 0.0
C574 C 0.66865 0.36759 0.39791 0.0
C575 C 0.65026 0.37111 0.36031 0.0
C576 C 0.62739 0.37363 0.37712 0.0
C577 C 0.62289 0.37162 0.4299 0.0
C578 C 0.68281 0.37888 0.67024 0.0
C579 C 0.64069 0.43158 0.62254 0.0
O580 O 0.66174 0.40167 0.78543 0.0
O581 O 0.62427 0.4058 0.79169 0.0
O582 O 0.6024 0.40934 0.69642 0.0
O583 O 0.61053 0.37574 0.67142 0.0
O584 O 0.6429 0.35432 0.73799 0.0
O585 O 0.62716 0.34247 0.66073 0.0
O586 O 0.62059 0.37551 0.54286 0.0
O587 O 0.65193 0.35399 0.55454 0.0
O588 O 0.67652 0.36054 0.64481 0.0
O589 O 0.66673 0.39397 0.66554 0.0
O590 O 0.63552 0.41337 0.59415 0.0
O591 O 0.6456 0.42855 0.67289 0.0
H592 H 0.61036 0.40248 0.88586 0.0
H593 H 0.61447 0.39122 0.97802 0.0
H594 H 0.68841 0.37971 0.96279 0.0
H595 H 0.68418 0.39038 0.87061 0.0
H596 H 0.67861 0.3622 0.47849 0.0
H597 H 0.68653 0.36594 0.38644 0.0
H598 H 0.61276 0.37608 0.34938 0.0
H599 H 0.60495 0.37265 0.44142 0.0
C600 C 0.37573 0.91433 0.22127 0.0
Eu601 Eu 0.38162 0.90065 0.31958 0.0
C602 C 0.37947 0.90682 0.16769 0.0
C603 C 0.40195 0.90227 0.15063 0.0
C604 C 0.40516 0.89685 0.09897 0.0
C605 C 0.38601 0.89579 0.06276 0.0
C606 C 0.36352 0.90021 0.08013 0.0
C607 C 0.36032 0.90567 0.13179 0.0
C608 C 0.42435 0.89523 0.37063 0.0
C609 C 0.38503 0.84217 0.33353 0.0
C610 C 0.37343 0.8636 0.51952 0.0
Eu611 Eu 0.37649 0.87682 0.42125 0.0
C612 C 0.37845 0.86993 0.57434 0.0
C613 C 0.35971 0.8734 0.60658 0.0
C614 C 0.36362 0.87644 0.65984 0.0
C615 C 0.38644 0.87595 0.68264 0.0
C616 C 0.40528 0.87325 0.64995 0.0
C617 C 0.40135 0.87023 0.5966 0.0
C618 C 0.33579 0.88003 0.36085 0.0
C619 C 0.3842 0.9327 0.41678 0.0
O620 O 0.35972 0.90322 0.24763 0.0
O621 O 0.39406 0.91963 0.2505 0.0
O622 O 0.41798 0.91345 0.34127 0.0
O623 O 0.40787 0.87998 0.37126 0.0
O624 O 0.38116 0.86092 0.30147 0.0
O625 O 0.38676 0.84424 0.38396 0.0
O626 O 0.39074 0.85777 0.49126 0.0
O627 O 0.35727 0.87557 0.4926 0.0
O628 O 0.34316 0.86116 0.38641 0.0
O629 O 0.35056 0.89662 0.36703 0.0
O630 O 0.38982 0.91249 0.44063 0.0
O631 O 0.37594 0.93308 0.36801 0.0
H632 H 0.41715 0.9032 0.17697 0.0
H633 H 0.42281 0.89395 0.08724 0.0
H634 H 0.34827 0.89928 0.05392 0.0
H635 H 0.3428 0.90924 0.14362 0.0
H636 H 0.34184 0.87298 0.59085 0.0
H637 H 0.34862 0.87818 0.68348 0.0
H638 H 0.42314 0.87316 0.6657 0.0
H639 H 0.41624 0.86757 0.57311 0.0
H640 H 0.13027 0.64849 0.75067 0.0
H641 H 0.18295 0.59806 0.80974 0.0
H642 H 0.19112 0.58858 0.72036 0.0
H643 H 0.10785 0.61331 0.64574 0.0
H644 H 0.10282 0.63843 0.60136 0.0
H645 H 0.10136 0.64175 0.67007 0.0
H646 H 0.13242 0.6752 0.6654 0.0
H647 H 0.13402 0.67193 0.5967 0.0
H648 H 0.1602 0.66962 0.63807 0.0
H649 H 0.19372 0.58433 0.62434 0.0
H650 H 0.18979 0.58481 0.52907 0.0
H651 H 0.13492 0.63734 0.53088 0.0
C652 C 0.1434 0.63529 0.74503 0.0
C653 C 0.15608 0.62422 0.78791 0.0
C654 C 0.17328 0.60724 0.77807 0.0
C655 C 0.17796 0.60158 0.72724 0.0
C656 C 0.16527 0.61289 0.68613 0.0
C657 C 0.14825 0.62931 0.69438 0.0
C658 C 0.13697 0.63869 0.64319 0.0
C659 C 0.11069 0.63268 0.63991 0.0
C660 C 0.14116 0.66545 0.63539 0.0
C661 C 0.1503 0.62497 0.60492 0.0
C662 C 0.1666 0.61025 0.63062 0.0
C663 C 0.18107 0.59586 0.60385 0.0
C664 C 0.17881 0.59641 0.5495 0.0
C665 C 0.16218 0.61124 0.52192 0.0
C666 C 0.14774 0.62569 0.55046 0.0
H667 H 0.65069 0.86699 0.99757 0.0
H668 H 0.60253 0.92539 1.00711 0.0
H669 H 0.59723 0.92766 0.91182 0.0
H670 H 0.67894 0.88954 0.88498 0.0
H671 H 0.68205 0.86104 0.85785 0.0
H672 H 0.6813 0.86328 0.92698 0.0
H673 H 0.64662 0.83362 0.9297 0.0
H674 H 0.64733 0.83121 0.86059 0.0
H675 H 0.62061 0.83951 0.8893 0.0
H676 H 0.5984 0.92465 0.81472 0.0
H677 H 0.60517 0.91587 0.72397 0.0
H678 H 0.65226 0.8592 0.77774 0.0
C679 C 0.63902 0.88027 0.9797 0.0
C680 C 0.62694 0.89593 1.01016 0.0
C681 C 0.61168 0.9129 0.98495 0.0
C682 C 0.60868 0.91445 0.93071 0.0
C683 C 0.62101 0.8989 0.90194 0.0
C684 C 0.63579 0.88205 0.92557 0.0
C685 C 0.64717 0.86761 0.88572 0.0
C686 C 0.67395 0.87056 0.8891 0.0
C687 C 0.64 0.84144 0.89169 0.0
C688 C 0.63666 0.87911 0.83598 0.0
C689 C 0.62159 0.8971 0.84615 0.0
C690 C 0.61003 0.91046 0.80634 0.0
C691 C 0.6139 0.90525 0.75483 0.0
C692 C 0.62921 0.88679 0.74334 0.0
C693 C 0.64067 0.87361 0.78485 0.0
H694 H 0.35867 0.35996 0.28234 0.0
H695 H 0.41379 0.40842 0.33043 0.0
H696 H 0.42137 0.41829 0.23874 0.0
H697 H 0.38816 0.33771 0.17439 0.0
H698 H 0.36182 0.33554 0.13391 0.0
H699 H 0.36037 0.33259 0.20334 0.0
H700 H 0.33003 0.36642 0.20098 0.0
H701 H 0.33138 0.36946 0.13155 0.0
H702 H 0.33707 0.39467 0.17037 0.0
H703 H 0.42343 0.42252 0.1413 0.0
H704 H 0.41901 0.42171 0.04614 0.0
H705 H 0.36322 0.36973 0.06086 0.0
C706 C 0.37245 0.37256 0.27376 0.0
C707 C 0.38558 0.38342 0.31409 0.0
C708 C 0.4032 0.40007 0.30063 0.0
C709 C 0.40778 0.40568 0.24851 0.0
C710 C 0.39461 0.39454 0.20993 0.0
C711 C 0.37726 0.37837 0.22189 0.0
C712 C 0.36562 0.36892 0.17302 0.0
C713 C 0.36921 0.3421 0.17107 0.0
C714 C 0.33948 0.37525 0.16874 0.0
C715 C 0.37914 0.38231 0.13168 0.0
C716 C 0.39582 0.39694 0.15384 0.0
C717 C 0.41047 0.41105 0.1236 0.0
C718 C 0.40793 0.41031 0.0694 0.0
C719 C 0.39087 0.39555 0.04552 0.0
C720 C 0.37634 0.38136 0.07753 0.0
H721 H 0.88199 0.09277 0.48998 0.0
H722 H 0.84161 0.15436 0.52405 0.0
H723 H 0.83934 0.16653 0.43131 0.0
H724 H 0.91549 0.12173 0.38796 0.0
H725 H 0.91504 0.09626 0.34861 0.0
H726 H 0.91396 0.09243 0.418 0.0
H727 H 0.87575 0.06797 0.40738 0.0
H728 H 0.87666 0.07182 0.33797 0.0
H729 H 0.85107 0.08061 0.37037 0.0
H730 H 0.84048 0.17181 0.33508 0.0
H731 H 0.84599 0.17052 0.24136 0.0
H732 H 0.88579 0.10572 0.26756 0.0
C733 C 0.8729 0.10896 0.47798 0.0
C734 C 0.86181 0.12249 0.51455 0.0
C735 C 0.84991 0.14344 0.49694 0.0
C736 C 0.84862 0.1506 0.44426 0.0
C737 C 0.85937 0.13671 0.40925 0.0
C738 C 0.87139 0.11639 0.42524 0.0
C739 C 0.88112 0.1046 0.37914 0.0
C740 C 0.908 0.10371 0.38371 0.0
C741 C 0.87051 0.07978 0.37339 0.0
C742 C 0.87265 0.12148 0.33493 0.0
C743 C 0.86011 0.13983 0.35333 0.0
C744 C 0.85025 0.15751 0.32019 0.0
C745 C 0.85333 0.1565 0.26684 0.0
C746 C 0.86617 0.13794 0.24669 0.0
C747 C 0.87599 0.12023 0.28155 0.0
H748 H 0.14482 0.35897 0.27416 0.0
H749 H 0.13022 0.43049 0.21415 0.0
H750 H 0.12625 0.44311 0.30345 0.0
H751 H 0.10588 0.35832 0.38044 0.0
H752 H 0.12567 0.3416 0.42399 0.0
H753 H 0.12612 0.33795 0.35522 0.0
H754 H 0.17039 0.34814 0.35716 0.0
H755 H 0.17009 0.3518 0.42591 0.0
H756 H 0.18042 0.37548 0.38375 0.0
H757 H 0.12517 0.44821 0.40017 0.0
H758 H 0.12791 0.44558 0.49579 0.0
H759 H 0.14399 0.37088 0.49249 0.0
C760 C 0.14091 0.37734 0.27958 0.0
C761 C 0.13779 0.39369 0.2367 0.0
C762 C 0.13232 0.41748 0.24599 0.0
C763 C 0.13016 0.42487 0.29671 0.0
C764 C 0.13352 0.4083 0.33793 0.0
C765 C 0.13881 0.38504 0.32988 0.0
C766 C 0.14227 0.37087 0.38082 0.0
C767 C 0.12389 0.35101 0.38537 0.0
C768 C 0.16728 0.361 0.38727 0.0
C769 C 0.13832 0.38984 0.41891 0.0
C770 C 0.13313 0.41127 0.39342 0.0
C771 C 0.12907 0.43147 0.42046 0.0
C772 C 0.13052 0.42975 0.47488 0.0
C773 C 0.13608 0.40801 0.50195 0.0
C774 C 0.13987 0.38781 0.4732 0.0
H775 H 0.86011 0.89552 0.79227 0.0
H776 H 0.92642 0.86108 0.8329 0.0
H777 H 0.93508 0.86091 0.74026 0.0
H778 H 0.84603 0.86295 0.6816 0.0
H779 H 0.83287 0.88746 0.64431 0.0
H780 H 0.83269 0.8866 0.71395 0.0
H781 H 0.85309 0.9276 0.71501 0.0
H782 H 0.85319 0.92866 0.6453 0.0
H783 H 0.88021 0.93206 0.68288 0.0
H784 H 0.93538 0.86226 0.64235 0.0
H785 H 0.92767 0.86599 0.54754 0.0
H786 H 0.86117 0.89946 0.57129 0.0
C787 C 0.87651 0.88803 0.78179 0.0
C788 C 0.89261 0.8784 0.8201 0.0
C789 C 0.91396 0.86895 0.80452 0.0
C790 C 0.91898 0.86861 0.75189 0.0
C791 C 0.90252 0.87786 0.71519 0.0
C792 C 0.88179 0.88753 0.7295 0.0
C793 C 0.86674 0.8957 0.68246 0.0
C794 C 0.84319 0.88238 0.68048 0.0
C795 C 0.8631 0.92261 0.68136 0.0
C796 C 0.88206 0.88875 0.63941 0.0
C797 C 0.90268 0.87859 0.65902 0.0
C798 C 0.91937 0.87038 0.62659 0.0
C799 C 0.91488 0.87266 0.57275 0.0
C800 C 0.89382 0.88301 0.55175 0.0
C801 C 0.87731 0.89119 0.58589 0.0
H802 H 0.36087 0.61319 0.75984 0.0
H803 H 0.43337 0.63293 0.73787 0.0
H804 H 0.44105 0.63087 0.83264 0.0
H805 H 0.35317 0.64719 0.86941 0.0
H806 H 0.33482 0.62572 0.90183 0.0
H807 H 0.33534 0.62714 0.83221 0.0
H808 H 0.34653 0.58285 0.83334 0.0
H809 H 0.34587 0.58124 0.90299 0.0
H810 H 0.37182 0.57256 0.87178 0.0
H811 H 0.44024 0.62902 0.93031 0.0
H812 H 0.43132 0.62612 0.02293 0.0
H813 H 0.35944 0.60726 0.98106 0.0
C814 C 0.3784 0.61699 0.77489 0.0
C815 C 0.39653 0.62314 0.7412 0.0
C816 C 0.41926 0.62779 0.76267 0.0
C817 C 0.42376 0.62683 0.81654 0.0
C818 C 0.4054 0.6211 0.84857 0.0
C819 C 0.38321 0.61608 0.82854 0.0
C820 C 0.36641 0.61088 0.87138 0.0
C821 C 0.34625 0.6288 0.86852 0.0
C822 C 0.35712 0.58536 0.86977 0.0
C823 C 0.38253 0.61413 0.91865 0.0
C824 C 0.40496 0.61995 0.9047 0.0
C825 C 0.42278 0.62424 0.94168 0.0
C826 C 0.41756 0.62245 0.99427 0.0
C827 C 0.39468 0.6164 1.00959 0.0
C828 C 0.37703 0.61219 0.97091 0.0
H829 H 0.63264 0.09427 0.05256 0.0
H830 H 0.67839 0.15216 1.00545 0.0
H831 H 0.6834 0.16318 0.09629 0.0
H832 H 0.60356 0.12577 0.15021 0.0
H833 H 0.60159 0.10028 0.19422 0.0
H834 H 0.60179 0.09654 0.12545 0.0
H835 H 0.63729 0.06848 0.13949 0.0
H836 H 0.63723 0.07219 0.20829 0.0
H837 H 0.66339 0.07854 0.17368 0.0
H838 H 0.68365 0.16817 0.19252 0.0
H839 H 0.67833 0.16737 0.28657 0.0
H840 H 0.63192 0.10675 0.27289 0.0
C841 C 0.64356 0.10941 0.06111 0.0
C842 C 0.65526 0.12217 0.02119 0.0
C843 C 0.66957 0.1417 0.03486 0.0
C844 C 0.67243 0.14824 0.08654 0.0
C845 C 0.66081 0.13523 0.1247 0.0
C846 C 0.64657 0.11627 0.1127 0.0
C847 C 0.63599 0.10537 0.1613 0.0
C848 C 0.60914 0.1071 0.15755 0.0
C849 C 0.64395 0.07962 0.17127 0.0
C850 C 0.64645 0.1212 0.20239 0.0
C851 C 0.66079 0.13824 0.18033 0.0
C852 C 0.67252 0.15484 0.21019 0.0
C853 C 0.66951 0.15411 0.26387 0.0
C854 C 0.65484 0.1369 0.28779 0.0
C855 C 0.64315 0.12025 0.25616 0.0
H856 H 0.90255 0.3716 0.25968 0.0
H857 H 0.82835 0.37876 0.21911 0.0
H858 H 0.82066 0.38467 0.31057 0.0
H859 H 0.8963 0.34026 0.38244 0.0
H860 H 0.92048 0.355 0.41466 0.0
H861 H 0.92043 0.35143 0.3458 0.0
H862 H 0.92556 0.39662 0.33021 0.0
H863 H 0.9257 0.40032 0.39903 0.0
H864 H 0.90502 0.41638 0.35639 0.0
H865 H 0.82067 0.38948 0.40691 0.0
H866 H 0.82848 0.39379 0.50043 0.0
H867 H 0.90272 0.38394 0.48041 0.0
C868 C 0.88469 0.37465 0.26982 0.0
C869 C 0.86605 0.37449 0.23158 0.0
C870 C 0.84295 0.37831 0.24725 0.0
C871 C 0.83839 0.38185 0.29929 0.0
C872 C 0.85706 0.38164 0.33584 0.0
C873 C 0.87979 0.37824 0.32186 0.0
C874 C 0.89664 0.37877 0.36911 0.0
C875 C 0.9092 0.35495 0.37855 0.0
C876 C 0.91427 0.39924 0.36333 0.0
C877 C 0.87983 0.38302 0.41172 0.0
C878 C 0.85708 0.38455 0.39156 0.0
C879 C 0.83842 0.38824 0.42309 0.0
C880 C 0.84305 0.39048 0.47648 0.0
C881 C 0.86622 0.38905 0.49852 0.0
C882 C 0.88482 0.38529 0.46519 0.0
H883 H 0.38916 0.14506 0.27129 0.0
H884 H 0.38381 0.07261 0.33262 0.0
H885 H 0.38532 0.05847 0.24401 0.0
H886 H 0.3518 0.13744 0.15831 0.0
H887 H 0.36848 0.15714 0.11724 0.0
H888 H 0.36822 0.16148 0.18574 0.0
H889 H 0.41352 0.15955 0.19207 0.0
H890 H 0.41392 0.15517 0.12357 0.0
H891 H 0.42808 0.13419 0.16904 0.0
H892 H 0.38619 0.05224 0.14772 0.0
H893 H 0.38565 0.05442 0.05221 0.0
H894 H 0.38983 0.13098 0.05343 0.0
C895 C 0.38815 0.1262 0.26631 0.0
C896 C 0.38643 0.11 0.30948 0.0
C897 C 0.38554 0.08545 0.30068 0.0
C898 C 0.38623 0.07722 0.2503 0.0
C899 C 0.38779 0.09371 0.20881 0.0
C900 C 0.3887 0.11769 0.21629 0.0
C901 C 0.38974 0.13176 0.16505 0.0
C902 C 0.36828 0.1479 0.15607 0.0
C903 C 0.41268 0.14601 0.16229 0.0
C904 C 0.38913 0.11196 0.12747 0.0
C905 C 0.38812 0.09014 0.1535 0.0
C906 C 0.38713 0.06924 0.12702 0.0
C907 C 0.387 0.07068 0.07262 0.0
C908 C 0.38783 0.09286 0.04487 0.0
C909 C 0.38901 0.11373 0.07313 0.0
H910 H 0.66276 0.60619 0.98228 0.0
H911 H 0.61691 0.66521 1.00523 0.0
H912 H 0.61486 0.67449 0.91091 0.0
H913 H 0.69423 0.63369 0.8751 0.0
H914 H 0.69579 0.60647 0.84199 0.0
H915 H 0.69512 0.60579 0.91162 0.0
H916 H 0.65898 0.57792 0.90782 0.0
H917 H 0.65945 0.57863 0.83824 0.0
H918 H 0.63328 0.58691 0.86916 0.0
H919 H 0.61581 0.6757 0.81293 0.0
H920 H 0.62029 0.66902 0.72 0.0
H921 H 0.66523 0.60908 0.76197 0.0
C922 C 0.65238 0.62116 0.96758 0.0
C923 C 0.64008 0.63502 1.00134 0.0
C924 C 0.62684 0.65456 0.98037 0.0
C925 C 0.62544 0.65989 0.92676 0.0
C926 C 0.63744 0.64558 0.89457 0.0
C927 C 0.65078 0.6267 0.91427 0.0
C928 C 0.66133 0.61355 0.87138 0.0
C929 C 0.68821 0.61497 0.87526 0.0
C930 C 0.65274 0.58773 0.87169 0.0
C931 C 0.65148 0.62768 0.8244 0.0
C932 C 0.63788 0.64619 0.83846 0.0
C933 C 0.6266 0.66137 0.8015 0.0
C934 C 0.6293 0.65749 0.74883 0.0
C935 C 0.64305 0.6385 0.73361 0.0
C936 C 0.65435 0.62357 0.77219 0.0
H937 H 0.15475 0.9096 0.56029 0.0
H938 H 0.08789 0.87764 0.51689 0.0
H939 H 0.07824 0.87413 0.60903 0.0
H940 H 0.16641 0.87251 0.67393 0.0
H941 H 0.17997 0.89567 0.71047 0.0
H942 H 0.18105 0.89675 0.64095 0.0
H943 H 0.16228 0.93835 0.63649 0.0
H944 H 0.16105 0.93735 0.70604 0.0
H945 H 0.13476 0.94254 0.66617 0.0
H946 H 0.0764 0.87293 0.70648 0.0
H947 H 0.08307 0.87288 0.8014 0.0
H948 H 0.15125 0.90538 0.78122 0.0
C949 C 0.13812 0.90172 0.57002 0.0
C950 C 0.12207 0.89395 0.53102 0.0
C951 C 0.10036 0.88406 0.54576 0.0
C952 C 0.09475 0.8819 0.59809 0.0
C953 C 0.11099 0.88971 0.6354 0.0
C954 C 0.13226 0.89937 0.62203 0.0
C955 C 0.14691 0.90582 0.66967 0.0
C956 C 0.16994 0.89185 0.674 0.0
C957 C 0.15151 0.93261 0.66957 0.0
C958 C 0.13069 0.89799 0.71201 0.0
C959 C 0.10998 0.88892 0.69143 0.0
C960 C 0.09248 0.88016 0.72299 0.0
C961 C 0.09637 0.88038 0.77696 0.0
C962 C 0.11764 0.88923 0.79903 0.0
C963 C 0.13485 0.89837 0.76576 0.0
H964 H 0.9068 0.61284 0.77858 0.0
H965 H 0.83285 0.62519 0.79691 0.0
H966 H 0.82534 0.6216 0.70293 0.0
H967 H 0.91117 0.64594 0.65787 0.0
H968 H 0.93123 0.62579 0.63138 0.0
H969 H 0.93082 0.62854 0.70043 0.0
H970 H 0.92371 0.58346 0.71308 0.0
H971 H 0.92422 0.58055 0.64408 0.0
H972 H 0.8993 0.56999 0.67885 0.0
H973 H 0.82597 0.61816 0.60606 0.0
H974 H 0.83444 0.61362 0.51443 0.0
H975 H 0.90791 0.60283 0.55844 0.0
C976 C 0.88901 0.61481 0.76289 0.0
C977 C 0.8704 0.61922 0.79557 0.0
C978 C 0.84738 0.62143 0.77317 0.0
C979 C 0.84294 0.6196 0.71963 0.0
C980 C 0.86168 0.61545 0.68862 0.0
C981 C 0.88425 0.61294 0.70943 0.0
C982 C 0.90124 0.60856 0.66742 0.0
C983 C 0.9197 0.62839 0.66409 0.0
C984 C 0.9128 0.58419 0.6764 0.0
C985 C 0.88474 0.60925 0.61971 0.0
C986 C 0.862 0.61325 0.63284 0.0
C987 C 0.8437 0.61483 0.59543 0.0
C988 C 0.84869 0.61208 0.54335 0.0
C989 C 0.87184 0.60771 0.52871 0.0
C990 C 0.89006 0.60639 0.56783 0.0
H991 H 0.14662 0.10134 0.48265 0.0
H992 H 0.14713 0.17515 0.52114 0.0
H993 H 0.15147 0.18691 0.42885 0.0
H994 H 0.18841 0.10674 0.38107 0.0
H995 H 0.17317 0.08569 0.34145 0.0
H996 H 0.17156 0.08322 0.41088 0.0
H997 H 0.12627 0.08429 0.40138 0.0
H998 H 0.12774 0.0869 0.33197 0.0
H999 H 0.11214 0.10867 0.36549 0.0
H1000 H 0.15407 0.19058 0.33095 0.0
H1001 H 0.1553 0.18576 0.23652 0.0
H1002 H 0.15233 0.10958 0.26266 0.0
C1003 C 0.14763 0.12001 0.47182 0.0
C1004 C 0.14654 0.1373 0.50945 0.0
C1005 C 0.14826 0.16152 0.49338 0.0
C1006 C 0.15057 0.16839 0.44091 0.0
C1007 C 0.15118 0.15086 0.40485 0.0
C1008 C 0.14986 0.12716 0.41972 0.0
C1009 C 0.15039 0.11178 0.37337 0.0
C1010 C 0.17218 0.09593 0.37692 0.0
C1011 C 0.12779 0.09705 0.36774 0.0
C1012 C 0.15187 0.13053 0.32993 0.0
C1013 C 0.15245 0.15296 0.34881 0.0
C1014 C 0.15373 0.17308 0.31582 0.0
C1015 C 0.15449 0.17016 0.26224 0.0
C1016 C 0.15384 0.14731 0.24201 0.0
C1017 C 0.15253 0.12731 0.27666 0.0
H1018 H 0.63056 0.39909 0.27958 0.0
H1019 H 0.67945 0.3415 0.31292 0.0
H1020 H 0.68541 0.33898 0.2195 0.0
H1021 H 0.60345 0.37585 0.16528 0.0
H1022 H 0.60025 0.40421 0.13116 0.0
H1023 H 0.60045 0.40222 0.20088 0.0
H1024 H 0.63475 0.4323 0.2053 0.0
H1025 H 0.63456 0.43449 0.13558 0.0
H1026 H 0.66112 0.42663 0.17234 0.0
H1027 H 0.68497 0.34161 0.12207 0.0
H1028 H 0.67921 0.35017 0.02799 0.0
H1029 H 0.63088 0.40629 0.05757 0.0
C1030 C 0.64253 0.38595 0.26729 0.0
C1031 C 0.65464 0.37058 0.30389 0.0
C1032 C 0.67028 0.35377 0.28594 0.0
C1033 C 0.67365 0.35206 0.23283 0.0
C1034 C 0.6613 0.36731 0.19789 0.0
C1035 C 0.64615 0.38402 0.21434 0.0
C1036 C 0.63493 0.39819 0.16867 0.0
C1037 C 0.60819 0.39491 0.16638 0.0
C1038 C 0.64176 0.42446 0.1706 0.0
C1039 C 0.64598 0.38667 0.12398 0.0
C1040 C 0.66114 0.36891 0.14171 0.0
C1041 C 0.67327 0.35561 0.10776 0.0
C1042 C 0.66996 0.36069 0.0543 0.0
C1043 C 0.65466 0.37897 0.03504 0.0
C1044 C 0.6425 0.39202 0.07072 0.0
H1045 H 0.36279 0.91378 0.97266 0.0
H1046 H 0.41716 0.86425 0.02672 0.0
H1047 H 0.42374 0.85489 0.93645 0.0
H1048 H 0.33889 0.87853 0.86963 0.0
H1049 H 0.33281 0.90358 0.82567 0.0
H1050 H 0.33265 0.9069 0.89459 0.0
H1051 H 0.36325 0.94066 0.88694 0.0
H1052 H 0.36356 0.9374 0.81801 0.0
H1053 H 0.39048 0.93536 0.85694 0.0
H1054 H 0.4244 0.8505 0.83991 0.0
H1055 H 0.41837 0.85064 0.74497 0.0
H1056 H 0.3633 0.90264 0.75217 0.0
C1057 C 0.37597 0.90082 0.96572 0.0
C1058 C 0.38956 0.88994 1.00747 0.0
C1059 C 0.40678 0.87326 0.99593 0.0
C1060 C 0.41057 0.86768 0.94458 0.0
C1061 C 0.397 0.8788 0.9046 0.0
C1062 C 0.37998 0.89497 0.91451 0.0
C1063 C 0.36767 0.9042 0.8643 0.0
C1064 C 0.34145 0.89792 0.86352 0.0
C1065 C 0.37147 0.931 0.85608 0.0
C1066 C 0.38035 0.89061 0.82471 0.0
C1067 C 0.39727 0.87615 0.84886 0.0
C1068 C 0.41125 0.86185 0.82062 0.0
C1069 C 0.4078 0.86221 0.76643 0.0
C1070 C 0.39046 0.87675 0.74042 0.0
C1071 C 0.37661 0.89117 0.77045 0.0
H1072 H 0.11486 0.70598 0.14204 0.0
H1073 H 0.15846 0.68639 0.27852 0.0
H1074 H 0.15892 0.72823 0.30341 0.0
H1075 H 0.14351 0.75838 0.11018 0.0
H1076 H 0.11745 0.77405 0.08739 0.0
H1077 H 0.1185 0.74243 0.08462 0.0
H1078 H 0.08124 0.73853 0.13804 0.0
H1079 H 0.08005 0.77023 0.14092 0.0
H1080 H 0.08071 0.75193 0.19986 0.0
H1081 H 0.15735 0.77409 0.30768 0.0
H1082 H 0.15416 0.81753 0.29017 0.0
H1083 H 0.11141 0.8052 0.15124 0.0
C1084 C 0.12421 0.7103 0.17772 0.0
C1085 C 0.13658 0.6928 0.20838 0.0
C1086 C 0.14867 0.6994 0.25459 0.0
C1087 C 0.14905 0.72317 0.26897 0.0
C1088 C 0.13705 0.74008 0.23701 0.0
C1089 C 0.12471 0.73374 0.19253 0.0
C1090 C 0.11441 0.75505 0.16267 0.0
C1091 C 0.12405 0.75762 0.10802 0.0
C1092 C 0.08751 0.75386 0.16025 0.0
C1093 C 0.12329 0.77459 0.19638 0.0
C1094 C 0.13615 0.76581 0.23945 0.0
C1095 C 0.14705 0.78103 0.27436 0.0
C1096 C 0.14509 0.8057 0.26428 0.0
C1097 C 0.13251 0.81486 0.21942 0.0
C1098 C 0.12113 0.79891 0.186 0.0
H1099 H 0.56179 0.92184 0.35611 0.0
H1100 H 0.57565 0.85045 0.41669 0.0
H1101 H 0.53301 0.84402 0.42648 0.0
H1102 H 0.51347 0.93398 0.43873 0.0
H1103 H 0.49752 0.95084 0.3881 0.0
H1104 H 0.52903 0.94989 0.38886 0.0
H1105 H 0.52706 0.93499 0.29557 0.0
H1106 H 0.49559 0.93586 0.29455 0.0
H1107 H 0.51024 0.90881 0.28168 0.0
H1108 H 0.48731 0.84515 0.42464 0.0
H1109 H 0.44483 0.85392 0.41228 0.0
H1110 H 0.46177 0.92466 0.35392 0.0
C1111 C 0.55594 0.9049 0.37203 0.0
C1112 C 0.57223 0.88665 0.38573 0.0
C1113 C 0.56364 0.86476 0.40611 0.0
C1114 C 0.53938 0.86095 0.41172 0.0
C1115 C 0.52376 0.87924 0.39707 0.0
C1116 C 0.53185 0.90085 0.37791 0.0
C1117 C 0.51166 0.91752 0.36353 0.0
C1118 C 0.51301 0.93935 0.39679 0.0
C1119 C 0.51111 0.92471 0.30539 0.0
C1120 C 0.49085 0.90196 0.37687 0.0
C1121 C 0.49805 0.87992 0.39634 0.0
C1122 C 0.48165 0.86245 0.40977 0.0
C1123 C 0.45748 0.86757 0.40272 0.0
C1124 C 0.44979 0.89 0.38233 0.0
C1125 C 0.46691 0.90736 0.36988 0.0
H1126 H 0.41089 0.30228 0.67646 0.0
H1127 H 0.36739 0.31232 0.80649 0.0
H1128 H 0.36755 0.26886 0.82606 0.0
H1129 H 0.38134 0.25498 0.63107 0.0
H1130 H 0.4065 0.2399 0.60933 0.0
H1131 H 0.40704 0.27148 0.61303 0.0
H1132 H 0.44453 0.26893 0.67312 0.0
H1133 H 0.44433 0.23724 0.66909 0.0
H1134 H 0.44472 0.25022 0.73145 0.0
H1135 H 0.36828 0.22315 0.8223 0.0
H1136 H 0.36924 0.18158 0.79612 0.0
H1137 H 0.41078 0.20325 0.66585 0.0
C1138 C 0.40194 0.29546 0.7101 0.0
C1139 C 0.38921 0.31065 0.74016 0.0
C1140 C 0.37757 0.30103 0.7835 0.0
C1141 C 0.37749 0.27635 0.79461 0.0
C1142 C 0.38933 0.26174 0.76229 0.0
C1143 C 0.40156 0.27115 0.72123 0.0
C1144 C 0.41077 0.25213 0.68851 0.0
C1145 C 0.40081 0.25479 0.6322 0.0
C1146 C 0.43769 0.25213 0.6907 0.0
C1147 C 0.40118 0.23037 0.71622 0.0
C1148 C 0.38922 0.23604 0.75929 0.0
C1149 C 0.37788 0.21862 0.78906 0.0
C1150 C 0.37853 0.19503 0.77393 0.0
C1151 C 0.39007 0.18916 0.72888 0.0
C1152 C 0.40182 0.20712 0.70047 0.0
H1153 H 0.9595 0.11634 0.80185 0.0
H1154 H 0.93939 0.12641 0.95872 0.0
H1155 H 0.98151 0.12887 0.98724 0.0
H1156 H 1.00881 0.08021 0.83187 0.0
H1157 H 0.02582 0.09312 0.78069 0.0
H1158 H 0.99436 0.09283 0.77377 0.0
H1159 H 0.99423 0.13834 0.75728 0.0
H1160 H 0.02571 0.13874 0.76371 0.0
H1161 H 1.00885 0.15679 0.80376 0.0
H1162 H 0.02764 0.12777 0.99776 0.0
H1163 H 0.0707 0.12672 0.98755 0.0
H1164 H 0.05853 0.11878 0.82261 0.0
C1165 C 0.96388 0.11923 0.84225 0.0
C1166 C 0.94612 0.12113 0.87811 0.0
C1167 C 0.95267 0.12502 0.93051 0.0
C1168 C 0.97659 0.12632 0.947 0.0
C1169 C 0.99371 0.12397 0.91047 0.0
C1170 C 0.98744 0.12084 0.85898 0.0
C1171 C 1.00872 0.119 0.82666 0.0
C1172 C 1.00946 0.09485 0.8018 0.0
C1173 C 1.00941 0.13943 0.78543 0.0
C1174 C 0.02815 0.12131 0.86778 0.0
C1175 C 0.01939 0.12403 0.91609 0.0
C1176 C 0.03451 0.12585 0.95988 0.0
C1177 C 0.05899 0.12514 0.95382 0.0
C1178 C 0.06816 0.12285 0.90427 0.0
C1179 C 0.0523 0.12082 0.86107 0.0
H1180 H 0.11167 0.30337 0.89118 0.0
H1181 H 0.15578 0.31702 0.761 0.0
H1182 H 0.15645 0.27398 0.74637 0.0
H1183 H 0.14017 0.25386 0.94183 0.0
H1184 H 0.11428 0.23843 0.96244 0.0
H1185 H 0.11463 0.27018 0.95719 0.0
H1186 H 0.07787 0.26986 0.89483 0.0
H1187 H 0.07732 0.23801 0.90011 0.0
H1188 H 0.07813 0.25309 0.83729 0.0
H1189 H 0.1562 0.22813 0.75448 0.0
H1190 H 0.15436 0.18569 0.78317 0.0
H1191 H 0.10989 0.20352 0.90687 0.0
C1192 C 0.12107 0.29744 0.85878 0.0
C1193 C 0.13364 0.31361 0.82714 0.0
C1194 C 0.14579 0.30501 0.78537 0.0
C1195 C 0.14632 0.28056 0.77693 0.0
C1196 C 0.1343 0.26501 0.81011 0.0
C1197 C 0.12164 0.27329 0.84977 0.0
C1198 C 0.11151 0.25323 0.88251 0.0
C1199 C 0.12071 0.25398 0.93932 0.0
C1200 C 0.08461 0.25357 0.87841 0.0
C1201 C 0.12105 0.23222 0.85642 0.0
C1202 C 0.13399 0.23917 0.81438 0.0
C1203 C 0.14577 0.22258 0.78681 0.0
C1204 C 0.14462 0.19849 0.80328 0.0
C1205 C 0.13191 0.19127 0.84712 0.0
C1206 C 0.11959 0.20841 0.87294 0.0
H1207 H 0.05653 0.92349 0.20324 0.0
H1208 H 0.07103 0.85748 0.13283 0.0
H1209 H 0.02839 0.84918 0.12427 0.0
H1210 H 1.00935 0.90216 0.27787 0.0
H1211 H 0.9926 0.92902 0.26939 0.0
H1212 H 0.02402 0.93014 0.2672 0.0
H1213 H 0.02053 0.95153 0.17653 0.0
H1214 H 0.98908 0.9505 0.17847 0.0
H1215 H 1.00343 0.93824 0.12522 0.0
H1216 H 0.98312 0.84759 0.12697 0.0
H1217 H 0.94082 0.85288 0.14078 0.0
H1218 H 0.9563 0.91993 0.20942 0.0
C1219 C 0.05077 0.90737 0.18551 0.0
C1220 C 0.06729 0.89116 0.16855 0.0
C1221 C 0.05885 0.87023 0.14595 0.0
C1222 C 0.03459 0.86537 0.14098 0.0
C1223 C 0.01879 0.88162 0.15867 0.0
C1224 C 0.02664 0.90225 0.18036 0.0
C1225 C 1.00625 0.91658 0.1977 0.0
C1226 C 1.00818 0.91965 0.25653 0.0
C1227 C 1.00474 0.94064 0.16768 0.0
C1228 C 0.98565 0.90077 0.18294 0.0
C1229 C 0.99316 0.8807 0.16026 0.0
C1230 C 0.97718 0.86334 0.14448 0.0
C1231 C 0.95311 0.86648 0.15242 0.0
C1232 C 0.94507 0.88682 0.17608 0.0
C1233 C 0.96173 0.9042 0.19101 0.0
H1234 H 0.40901 0.70638 0.38299 0.0
H1235 H 0.36666 0.69268 0.2443 0.0
H1236 H 0.3657 0.73577 0.22144 0.0
H1237 H 0.37895 0.75481 0.41718 0.0
H1238 H 0.40421 0.77058 0.44206 0.0
H1239 H 0.40452 0.73887 0.44217 0.0
H1240 H 0.44213 0.74034 0.38965 0.0
H1241 H 0.44201 0.77217 0.38955 0.0
H1242 H 0.44241 0.7575 0.32921 0.0
H1243 H 0.36557 0.78167 0.22087 0.0
H1244 H 0.36616 0.82396 0.24315 0.0
H1245 H 0.40856 0.80569 0.38211 0.0
C1246 C 0.39994 0.71231 0.34712 0.0
C1247 C 0.38796 0.69615 0.31535 0.0
C1248 C 0.37621 0.70472 0.26894 0.0
C1249 C 0.37554 0.72918 0.25575 0.0
C1250 C 0.38698 0.74473 0.28905 0.0
C1251 C 0.39917 0.73643 0.33352 0.0
C1252 C 0.40843 0.7564 0.36549 0.0
C1253 C 0.39842 0.75508 0.4199 0.0
C1254 C 0.43534 0.75661 0.36863 0.0
C1255 C 0.3989 0.77735 0.33323 0.0
C1256 C 0.38683 0.77053 0.28882 0.0
C1257 C 0.37531 0.78714 0.25515 0.0
C1258 C 0.37578 0.81112 0.26793 0.0
C1259 C 0.38741 0.81809 0.31429 0.0
C1260 C 0.39953 0.80096 0.34632 0.0
H1261 H 0.56324 0.08366 0.68898 0.0
H1262 H 0.57658 0.14958 0.60331 0.0
H1263 H 0.53369 0.15713 0.5952 0.0
H1264 H 0.50854 0.06747 0.62198 0.0
H1265 H 0.49598 0.05605 0.6808 0.0
H1266 H 0.52719 0.05507 0.67422 0.0
H1267 H 0.53361 0.07787 0.75836 0.0
H1268 H 0.50248 0.07887 0.76524 0.0
H1269 H 0.51934 0.10589 0.7636 0.0
H1270 H 0.48771 0.15725 0.59969 0.0
H1271 H 0.44612 0.15178 0.6233 0.0
H1272 H 0.46524 0.08737 0.71124 0.0
C1273 C 0.55723 0.09954 0.66765 0.0
C1274 C 0.57335 0.11589 0.64618 0.0
C1275 C 0.56459 0.13667 0.61966 0.0
C1276 C 0.54023 0.14106 0.61487 0.0
C1277 C 0.52482 0.12462 0.63724 0.0
C1278 C 0.5332 0.10435 0.66346 0.0
C1279 C 0.51368 0.09024 0.68796 0.0
C1280 C 0.51121 0.06576 0.66484 0.0
C1281 C 0.51751 0.08811 0.74729 0.0
C1282 C 0.49287 0.10569 0.67204 0.0
C1283 C 0.49934 0.12528 0.64197 0.0
C1284 C 0.48263 0.14194 0.62322 0.0
C1285 C 0.45901 0.13867 0.6365 0.0
C1286 C 0.45248 0.11917 0.66908 0.0
C1287 C 0.46969 0.10248 0.6863 0.0
H1288 H 0.91314 0.20114 0.86735 0.0
H1289 H 0.85982 0.18737 0.748 0.0
H1290 H 0.85825 0.23031 0.72375 0.0
H1291 H 0.88781 0.24981 0.91186 0.0
H1292 H 0.91467 0.26556 0.92598 0.0
H1293 H 0.91465 0.23385 0.92646 0.0
H1294 H 0.94691 0.23495 0.85904 0.0
H1295 H 0.94716 0.26679 0.85859 0.0
H1296 H 0.94234 0.25196 0.79883 0.0
H1297 H 0.85881 0.27614 0.72223 0.0
H1298 H 0.86135 0.31842 0.74395 0.0
H1299 H 0.91393 0.30053 0.86498 0.0
C1300 C 0.90156 0.207 0.83508 0.0
C1301 C 0.88667 0.19087 0.80943 0.0
C1302 C 0.87164 0.19936 0.76775 0.0
C1303 C 0.8706 0.22375 0.75386 0.0
C1304 C 0.88492 0.23932 0.78159 0.0
C1305 C 0.90033 0.23107 0.82096 0.0
C1306 C 0.91224 0.25112 0.8486 0.0
C1307 C 0.90701 0.25001 0.90662 0.0
C1308 C 0.93873 0.25121 0.84077 0.0
C1309 C 0.90052 0.27206 0.82022 0.0
C1310 C 0.88508 0.26514 0.78104 0.0
C1311 C 0.87117 0.28168 0.75225 0.0
C1312 C 0.87276 0.30568 0.76468 0.0
C1313 C 0.88787 0.31277 0.80606 0.0
C1314 C 0.90227 0.29571 0.83298 0.0
H1315 H 0.66628 0.80015 0.38291 0.0
H1316 H 0.60481 0.81199 0.28162 0.0
H1317 H 0.60248 0.76882 0.26695 0.0
H1318 H 0.6915 0.75301 0.30833 0.0
H1319 H 0.70275 0.73751 0.36652 0.0
H1320 H 0.70006 0.76923 0.36453 0.0
H1321 H 0.67482 0.766 0.44544 0.0
H1322 H 0.67726 0.73434 0.4474 0.0
H1323 H 0.64876 0.74788 0.44413 0.0
H1324 H 0.60488 0.72263 0.27353 0.0
H1325 H 0.61339 0.68015 0.29512 0.0
H1326 H 0.67487 0.7007 0.38684 0.0
C1327 C 0.65262 0.79368 0.35675 0.0
C1328 C 0.63578 0.80924 0.33318 0.0
C1329 C 0.61803 0.80027 0.29949 0.0
C1330 C 0.61656 0.7758 0.2912 0.0
C1331 C 0.63328 0.76074 0.31606 0.0
C1332 C 0.65125 0.76958 0.34733 0.0
C1333 C 0.66679 0.7501 0.37087 0.0
C1334 C 0.69175 0.75261 0.35138 0.0
C1335 C 0.66689 0.74956 0.43047 0.0
C1336 C 0.65446 0.72869 0.34958 0.0
C1337 C 0.63514 0.73494 0.31802 0.0
C1338 C 0.62024 0.71767 0.29743 0.0
C1339 C 0.62516 0.69358 0.30986 0.0
C1340 C 0.64486 0.68704 0.34239 0.0
C1341 C 0.65978 0.70497 0.36142 0.0
H1342 H 0.90752 0.69978 0.15434 0.0
H1343 H 0.87065 0.67628 0.29049 0.0
H1344 H 0.86858 0.71788 0.3165 0.0
H1345 H 0.94122 0.74754 0.21372 0.0
H1346 H 0.93863 0.7662 0.15541 0.0
H1347 H 0.93902 0.73453 0.15137 0.0
H1348 H 0.89954 0.7361 0.09795 0.0
H1349 H 0.89905 0.7677 0.10173 0.0
H1350 H 0.87473 0.75018 0.12396 0.0
H1351 H 0.86768 0.76374 0.32211 0.0
H1352 H 0.8676 0.80738 0.30554 0.0
H1353 H 0.90567 0.79875 0.16647 0.0
C1354 C 0.89924 0.70321 0.19007 0.0
C1355 C 0.88922 0.68471 0.22033 0.0
C1356 C 0.87857 0.69014 0.26676 0.0
C1357 C 0.87732 0.71374 0.28181 0.0
C1358 C 0.88706 0.73163 0.25034 0.0
C1359 C 0.89797 0.72644 0.20559 0.0
C1360 C 0.90598 0.74855 0.17648 0.0
C1361 C 0.9328 0.74924 0.17414 0.0
C1362 C 0.89411 0.75076 0.12183 0.0
C1363 C 0.89737 0.76719 0.21087 0.0
C1364 C 0.88669 0.75732 0.25367 0.0
C1365 C 0.8763 0.77155 0.28901 0.0
C1366 C 0.87642 0.79633 0.27952 0.0
C1367 C 0.88666 0.8065 0.2348 0.0
C1368 C 0.89772 0.79161 0.2011 0.0
H1369 H 0.6118 0.20287 0.65655 0.0
H1370 H 0.66176 0.18353 0.78201 0.0
H1371 H 0.66364 0.22547 0.80653 0.0
H1372 H 0.63844 0.2549 0.61681 0.0
H1373 H 0.61161 0.27061 0.60057 0.0
H1374 H 0.61222 0.23896 0.59819 0.0
H1375 H 0.57828 0.23546 0.66141 0.0
H1376 H 0.57753 0.2672 0.66389 0.0
H1377 H 0.58119 0.24916 0.72292 0.0
H1378 H 0.66301 0.27153 0.80963 0.0
H1379 H 0.65965 0.31492 0.79116 0.0
H1380 H 0.60955 0.30203 0.6647 0.0
C1381 C 0.62283 0.20728 0.68988 0.0
C1382 C 0.63661 0.18988 0.71741 0.0
C1383 C 0.65085 0.19651 0.76065 0.0
C1384 C 0.65206 0.22032 0.77472 0.0
C1385 C 0.63865 0.23719 0.74564 0.0
C1386 C 0.62409 0.23073 0.70446 0.0
C1387 C 0.61249 0.25196 0.6769 0.0
C1388 C 0.6191 0.25423 0.61978 0.0
C1389 C 0.58579 0.25087 0.68159 0.0
C1390 C 0.62324 0.2716 0.70779 0.0
C1391 C 0.63815 0.26297 0.74768 0.0
C1392 C 0.65108 0.27834 0.77896 0.0
C1393 C 0.64902 0.30298 0.76838 0.0
C1394 C 0.63429 0.31195 0.72662 0.0
C1395 C 0.62092 0.29588 0.69709 0.0
H1396 H 0.96156 0.41817 0.83321 0.0
H1397 H 0.9479 0.35445 0.92642 0.0
H1398 H 0.99085 0.34806 0.93981 0.0
H1399 H 1.00849 0.39478 0.76736 0.0
H1400 H 0.02445 0.42233 0.76395 0.0
H1401 H 0.99306 0.42246 0.76645 0.0
H1402 H 0.99629 0.44799 0.8471 0.0
H1403 H 0.02773 0.44785 0.84498 0.0
H1404 H 0.01383 0.43774 0.90321 0.0
H1405 H 0.03718 0.34926 0.94132 0.0
H1406 H 0.07933 0.35563 0.92341 0.0
H1407 H 0.06058 0.41688 0.8243 0.0
C1408 C 0.96748 0.40297 0.85707 0.0
C1409 C 0.95122 0.38695 0.87931 0.0
C1410 C 0.95994 0.36708 0.9093 0.0
C1411 C 0.98436 0.36336 0.91713 0.0
C1412 C 0.99992 0.37953 0.89423 0.0
C1413 C 0.9916 0.39882 0.86435 0.0
C1414 C 1.01141 0.41286 0.84064 0.0
C1415 C 1.00922 0.41311 0.78109 0.0
C1416 C 0.01236 0.4381 0.86016 0.0
C1417 C 0.03234 0.39857 0.86148 0.0
C1418 C 0.02564 0.37958 0.89308 0.0
C1419 C 0.04242 0.3641 0.91653 0.0
C1420 C 0.06638 0.3679 0.90649 0.0
C1421 C 0.07328 0.38676 0.87254 0.0
C1422 C 0.05591 0.40229 0.85046 0.0
H1423 H 0.4593 0.59303 0.32895 0.0
H1424 H 0.44263 0.64224 0.44511 0.0
H1425 H 0.48506 0.64714 0.46748 0.0
H1426 H 0.50951 0.56528 0.39601 0.0
H1427 H 0.52557 0.56346 0.33794 0.0
H1428 H 0.49404 0.56277 0.33423 0.0
H1429 H 0.49357 0.59836 0.26754 0.0
H1430 H 0.52508 0.59909 0.27089 0.0
H1431 H 0.50882 0.62519 0.28366 0.0
H1432 H 0.53062 0.646 0.47698 0.0
H1433 H 0.57341 0.64228 0.46607 0.0
H1434 H 0.55921 0.59619 0.33912 0.0
C1435 C 0.46452 0.60468 0.35951 0.0
C1436 C 0.44757 0.61704 0.38577 0.0
C1437 C 0.45525 0.63247 0.42472 0.0
C1438 C 0.47935 0.6353 0.43772 0.0
C1439 C 0.49564 0.62285 0.41089 0.0
C1440 C 0.48842 0.60807 0.3721 0.0
C1441 C 0.5092 0.59782 0.34655 0.0
C1442 C 0.5096 0.57072 0.35416 0.0
C1443 C 0.50916 0.60559 0.28875 0.0
C1444 C 0.52932 0.60906 0.37685 0.0
C1445 C 0.5213 0.62317 0.41442 0.0
C1446 C 0.53697 0.63505 0.44745 0.0
C1447 C 0.56128 0.63276 0.44121 0.0
C1448 C 0.56974 0.61906 0.40161 0.0
C1449 C 0.55338 0.60695 0.36956 0.0
H1450 H 0.45881 0.42156 0.6837 0.0
H1451 H 0.44228 0.3501 0.64057 0.0
H1452 H 0.48454 0.34284 0.62953 0.0
H1453 H 0.5067 0.43237 0.59624 0.0
H1454 H 0.52351 0.44907 0.64266 0.0
H1455 H 0.492 0.44882 0.64314 0.0
H1456 H 0.49419 0.43428 0.73966 0.0
H1457 H 0.52566 0.43443 0.73947 0.0
H1458 H 0.51028 0.4078 0.75875 0.0
H1459 H 0.53002 0.34312 0.62856 0.0
H1460 H 0.57278 0.35086 0.63788 0.0
H1461 H 0.55868 0.4221 0.68208 0.0
C1462 C 0.46398 0.40445 0.6712 0.0
C1463 C 0.4471 0.38642 0.66279 0.0
C1464 C 0.45478 0.36425 0.64692 0.0
C1465 C 0.4788 0.35998 0.64066 0.0
C1466 C 0.49503 0.37807 0.6502 0.0
C1467 C 0.48779 0.39991 0.66492 0.0
C1468 C 0.50854 0.4162 0.67501 0.0
C1469 C 0.50763 0.4379 0.63699 0.0
C1470 C 0.50973 0.4236 0.73157 0.0
C1471 C 0.52872 0.40012 0.66441 0.0
C1472 C 0.52068 0.3782 0.64983 0.0
C1473 C 0.53636 0.36031 0.6396 0.0
C1474 C 0.56067 0.36486 0.6449 0.0
C1475 C 0.56921 0.38711 0.66054 0.0
C1476 C 0.55284 0.40493 0.66976 0.0
H1477 H 0.06761 0.57949 0.16728 0.0
H1478 H 0.07964 0.65183 0.11233 0.0
H1479 H 0.03676 0.65812 0.10276 0.0
H1480 H 0.0151 0.5685 0.08421 0.0
H1481 H 1.00127 0.55094 0.13422 0.0
H1482 H 0.03273 0.5518 0.13228 0.0
H1483 H 0.03556 0.5652 0.22679 0.0
H1484 H 1.00415 0.56443 0.22898 0.0
H1485 H 0.01996 0.59117 0.24327 0.0
H1486 H 0.99168 0.65702 0.10549 0.0
H1487 H 0.94976 0.64856 0.12028 0.0
H1488 H 0.96782 0.57698 0.17317 0.0
C1489 C 0.06126 0.59655 0.15237 0.0
C1490 C 0.07707 0.61515 0.14033 0.0
C1491 C 0.06793 0.63727 0.12154 0.0
C1492 C 0.04356 0.641 0.11602 0.0
C1493 C 0.02843 0.6224 0.12921 0.0
C1494 C 0.03702 0.60055 0.14673 0.0
C1495 C 0.01726 0.58375 0.1607 0.0
C1496 C 0.01655 0.56249 0.12576 0.0
C1497 C 0.01936 0.57568 0.21835 0.0
C1498 C 0.99618 0.59958 0.14928 0.0
C1499 C 1.00287 0.62179 0.13079 0.0
C1500 C 0.98633 0.6396 0.11951 0.0
C1501 C 0.96252 0.63465 0.12795 0.0
C1502 C 0.95541 0.61211 0.1477 0.0
C1503 C 0.97257 0.59436 0.15769 0.0
H1504 H 0.13965 0.53098 0.12727 0.0
H1505 H 0.17642 0.57694 1.01881 0.0
H1506 H 0.17916 0.54444 0.95986 0.0
H1507 H 0.1725 0.47592 0.1017 0.0
H1508 H 0.14691 0.4573 0.10661 0.0
H1509 H 0.14951 0.48355 0.14334 0.0
H1510 H 0.10973 0.49815 0.10264 0.0
H1511 H 0.10722 0.4721 0.06531 0.0
H1512 H 0.10565 0.501 0.03311 0.0
H1513 H 0.17474 0.50898 0.90795 0.0
H1514 H 0.16702 0.47045 0.86981 0.0
H1515 H 0.13415 0.44553 1.01053 0.0
C1516 C 0.14888 0.53389 0.09187 0.0
C1517 C 0.15793 0.55658 0.0779 0.0
C1518 C 0.16935 0.55981 0.03049 0.0
C1519 C 0.17098 0.54143 0.99654 0.0
C1520 C 0.16122 0.51961 1.01024 0.0
C1521 C 0.15071 0.51549 0.05702 0.0
C1522 C 0.14101 0.49034 0.06062 0.0
C1523 C 0.15322 0.47592 0.10575 0.0
C1524 C 0.11432 0.49042 0.06572 0.0
C1525 C 0.14748 0.48134 1.00845 0.0
C1526 C 0.15903 0.49865 0.9801 0.0
C1527 C 0.16596 0.49513 0.93001 0.0
C1528 C 0.16134 0.47319 0.90846 0.0
C1529 C 0.15003 0.45482 0.93694 0.0
C1530 C 0.14297 0.45911 0.9877 0.0
H1531 H 0.71688 0.90459 0.34161 0.0
H1532 H 0.70055 0.82957 0.34705 0.0
H1533 H 0.73543 0.82193 0.29846 0.0
H1534 H 0.74113 0.9074 0.21165 0.0
H1535 H 0.76441 0.92766 0.22837 0.0
H1536 H 0.73737 0.92805 0.26158 0.0
H1537 H 0.76038 0.92202 0.34952 0.0
H1538 H 0.78748 0.92152 0.31656 0.0
H1539 H 0.77981 0.89714 0.35993 0.0
H1540 H 0.77185 0.8214 0.25079 0.0
H1541 H 0.80862 0.82792 0.20659 0.0
H1542 H 0.80494 0.90303 0.232 0.0
C1543 C 0.72056 0.88664 0.33191 0.0
C1544 C 0.70569 0.86766 0.34817 0.0
C1545 C 0.71147 0.84441 0.33532 0.0
C1546 C 0.73134 0.83985 0.30756 0.0
C1547 C 0.74579 0.85866 0.29287 0.0
C1548 C 0.74086 0.88162 0.30451 0.0
C1549 C 0.7602 0.89822 0.2851 0.0
C1550 C 0.75018 0.91641 0.24424 0.0
C1551 C 0.7727 0.91045 0.33049 0.0
C1552 C 0.77658 0.88094 0.2609 0.0
C1553 C 0.76763 0.85826 0.26587 0.0
C1554 C 0.77903 0.83908 0.24668 0.0
C1555 C 0.80002 0.84302 0.22148 0.0
C1556 C 0.80992 0.86595 0.21551 0.0
C1557 C 0.79799 0.88524 0.23596 0.0
H1558 H 0.38726 0.47434 0.64096 0.0
H1559 H 0.35188 0.42824 0.53291 0.0
H1560 H 0.34626 0.4617 0.46962 0.0
H1561 H 0.35159 0.52778 0.60592 0.0
H1562 H 0.37629 0.5476 0.61144 0.0
H1563 H 0.37579 0.52049 0.65073 0.0
H1564 H 0.41552 0.50865 0.61541 0.0
H1565 H 0.41601 0.53561 0.57573 0.0
H1566 H 0.41839 0.50751 0.54643 0.0
H1567 H 0.34653 0.49902 0.41533 0.0
H1568 H 0.35182 0.53878 0.37417 0.0
H1569 H 0.3873 0.56156 0.51546 0.0
C1570 C 0.37786 0.47155 0.60448 0.0
C1571 C 0.36989 0.44872 0.59189 0.0
C1572 C 0.35816 0.44557 0.54325 0.0
C1573 C 0.35483 0.46448 0.50702 0.0
C1574 C 0.36336 0.48661 0.51971 0.0
C1575 C 0.37452 0.49038 0.56726 0.0
C1576 C 0.38302 0.51583 0.5694 0.0
C1577 C 0.37094 0.52868 0.61189 0.0
C1578 C 0.40982 0.51695 0.5772 0.0
C1579 C 0.37506 0.52551 0.51566 0.0
C1580 C 0.36368 0.50832 0.48782 0.0
C1581 C 0.35526 0.51273 0.43685 0.0
C1582 C 0.35841 0.53537 0.41369 0.0
C1583 C 0.36992 0.55339 0.44138 0.0
C1584 C 0.37833 0.54826 0.49314 0.0
H1585 H 0.8025 0.16344 0.83094 0.0
H1586 H 0.81558 0.08815 0.851 0.0
H1587 H 0.77934 0.07994 0.79961 0.0
H1588 H 0.73898 0.16064 0.83536 0.0
H1589 H 0.73386 0.18341 0.78519 0.0
H1590 H 0.76045 0.18368 0.82529 0.0
H1591 H 0.78492 0.18412 0.7434 0.0
H1592 H 0.75841 0.18382 0.70305 0.0
H1593 H 0.78022 0.16136 0.6975 0.0
H1594 H 0.74114 0.07942 0.74874 0.0
H1595 H 0.70481 0.08671 0.69551 0.0
H1596 H 0.71662 0.16231 0.70115 0.0
C1597 C 0.79757 0.14526 0.82475 0.0
C1598 C 0.81183 0.12639 0.84555 0.0
C1599 C 0.80498 0.10287 0.83576 0.0
C1600 C 0.78436 0.09802 0.8066 0.0
C1601 C 0.77072 0.11687 0.78657 0.0
C1602 C 0.77708 0.14006 0.79465 0.0
C1603 C 0.75954 0.15692 0.76669 0.0
C1604 C 0.7475 0.17206 0.80545 0.0
C1605 C 0.77149 0.17247 0.72519 0.0
C1606 C 0.74233 0.13958 0.7421 0.0
C1607 C 0.74909 0.11657 0.75469 0.0
C1608 C 0.7358 0.09736 0.73825 0.0
C1609 C 0.71513 0.10168 0.70801 0.0
C1610 C 0.70793 0.12503 0.6936 0.0
C1611 C 0.72181 0.14425 0.71092 0.0
H1612 H 0.89625 0.55631 0.02533 0.0
H1613 H 0.86414 0.5278 0.16401 0.0
H1614 H 0.85656 0.49018 0.12137 0.0
H1615 H 0.85801 0.52817 0.93131 0.0
H1616 H 0.88096 0.52203 0.88836 0.0
H1617 H 0.88342 0.54713 0.9287 0.0
H1618 H 0.92325 0.53179 0.96769 0.0
H1619 H 0.92105 0.50681 0.92708 0.0
H1620 H 0.92518 0.50219 0.99629 0.0
H1621 H 0.85173 0.45636 0.06448 0.0
H1622 H 0.85431 0.42566 1.00123 0.0
H1623 H 0.89117 0.47431 0.89837 0.0
C1624 C 0.88762 0.54213 0.04676 0.0
C1625 C 0.88067 0.54507 0.09815 0.0
C1626 C 0.86969 0.52599 0.1249 0.0
C1627 C 0.86516 0.50462 0.10078 0.0
C1628 C 0.87191 0.50246 0.05001 0.0
C1629 C 0.88326 0.5205 0.02348 0.0
C1630 C 0.88968 0.51297 0.97009 0.0
C1631 C 0.87727 0.5285 0.92707 0.0
C1632 C 0.91638 0.51347 0.96501 0.0
C1633 C 0.88019 0.48778 0.9708 0.0
C1634 C 0.86975 0.48239 1.01722 0.0
C1635 C 0.85993 0.46034 0.02815 0.0
C1636 C 0.86148 0.44301 0.99175 0.0
C1637 C 0.87296 0.44749 0.94471 0.0
C1638 C 0.882 0.47043 0.93351 0.0
H1639 H 0.21142 0.15206 0.76839 0.0
H1640 H 0.22378 0.09634 0.88677 0.0
H1641 H 0.26328 0.09007 0.85437 0.0
H1642 H 0.24136 0.12728 0.6671 0.0
H1643 H 0.25419 0.15464 0.64345 0.0
H1644 H 0.22698 0.15494 0.6759 0.0
H1645 H 0.24489 0.18375 0.74193 0.0
H1646 H 0.2721 0.18374 0.70934 0.0
H1647 H 0.27174 0.17599 0.77768 0.0
H1648 H 0.29927 0.08639 0.801 0.0
H1649 H 0.33233 0.09081 0.74297 0.0
H1650 H 0.29991 0.15314 0.66816 0.0
C1651 C 0.22263 0.13879 0.7879 0.0
C1652 C 0.21456 0.12465 0.83018 0.0
C1653 C 0.22969 0.10749 0.85473 0.0
C1654 C 0.25209 0.10369 0.83629 0.0
C1655 C 0.25941 0.11765 0.79404 0.0
C1656 C 0.24541 0.13534 0.77112 0.0
C1657 C 0.25791 0.14847 0.72762 0.0
C1658 C 0.24429 0.14619 0.67544 0.0
C1659 C 0.2619 0.17453 0.73989 0.0
C1660 C 0.28092 0.13509 0.72893 0.0
C1661 C 0.28119 0.11706 0.76687 0.0
C1662 C 0.29959 0.10097 0.77249 0.0
C1663 C 0.31843 0.10372 0.73954 0.0
C1664 C 0.31937 0.12297 0.70272 0.0
C1665 C 0.30012 0.13868 0.69706 0.0
H1666 H 0.61566 0.53157 0.39581 0.0
H1667 H 0.67498 0.56992 0.46127 0.0
H1668 H 0.67934 0.53959 0.53248 0.0
H1669 H 0.59185 0.50894 0.51563 0.0
H1670 H 0.5847 0.48021 0.49198 0.0
H1671 H 0.58506 0.50567 0.44759 0.0
H1672 H 0.61472 0.48491 0.39222 0.0
H1673 H 0.6143 0.45933 0.43622 0.0
H1674 H 0.64168 0.47376 0.42252 0.0
H1675 H 0.67643 0.5057 0.59915 0.0
H1676 H 0.67027 0.46781 0.64852 0.0
H1677 H 0.61587 0.44887 0.53551 0.0
C1678 C 0.6295 0.53358 0.42525 0.0
C1679 C 0.64456 0.55355 0.42366 0.0
C1680 C 0.66283 0.55516 0.46225 0.0
C1681 C 0.66549 0.53797 0.50294 0.0
C1682 C 0.65017 0.51873 0.50399 0.0
C1683 C 0.63285 0.51612 0.46555 0.0
C1684 C 0.61983 0.49286 0.47408 0.0
C1685 C 0.59382 0.49719 0.48284 0.0
C1686 C 0.62282 0.47676 0.42856 0.0
C1687 C 0.63246 0.48292 0.52326 0.0
C1688 C 0.64961 0.49836 0.54041 0.0
C1689 C 0.66317 0.49339 0.58582 0.0
C1690 C 0.65947 0.47189 0.61384 0.0
C1691 C 0.64268 0.45534 0.59589 0.0
C1692 C 0.62894 0.46111 0.55009 0.0
H1693 H 0.29812 0.91172 0.34372 0.0
H1694 H 0.32649 0.84627 0.29316 0.0
H1695 H 0.29124 0.84063 0.23679 0.0
H1696 H 0.23905 0.89069 0.35029 0.0
H1697 H 0.2252 0.91786 0.32696 0.0
H1698 H 0.25357 0.91859 0.36013 0.0
H1699 H 0.27044 0.94195 0.28187 0.0
H1700 H 0.24207 0.94144 0.24857 0.0
H1701 H 0.26725 0.9302 0.21832 0.0
H1702 H 0.25252 0.84001 0.19046 0.0
H1703 H 0.21232 0.84465 0.15448 0.0
H1704 H 0.206 0.91028 0.23305 0.0
C1705 C 0.29708 0.89657 0.31967 0.0
C1706 C 0.31541 0.87958 0.3223 0.0
C1707 C 0.31294 0.8596 0.29153 0.0
C1708 C 0.29289 0.85623 0.25935 0.0
C1709 C 0.27498 0.87284 0.25832 0.0
C1710 C 0.27674 0.89269 0.28742 0.0
C1711 C 0.25401 0.90693 0.28057 0.0
C1712 C 0.24227 0.90862 0.33259 0.0
C1713 C 0.25873 0.9316 0.25586 0.0
C1714 C 0.23932 0.89186 0.24353 0.0
C1715 C 0.25203 0.87235 0.23138 0.0
C1716 C 0.24249 0.85532 0.19938 0.0
C1717 C 0.21947 0.85815 0.17909 0.0
C1718 C 0.20575 0.87789 0.19031 0.0
C1719 C 0.21596 0.89508 0.22313 0.0
H1720 H 0.63224 0.9424 0.51353 0.0
H1721 H 0.66729 0.96727 0.3756 0.0
H1722 H 0.6732 0.00627 0.41314 0.0
H1723 H 0.60193 0.99674 0.53244 0.0
H1724 H 0.6049 0.9943 0.60215 0.0
H1725 H 0.60398 0.96802 0.56541 0.0
H1726 H 0.64344 0.9546 0.6096 0.0
H1727 H 0.6446 0.98093 0.64626 0.0
H1728 H 0.66852 0.97402 0.60652 0.0
H1729 H 0.67498 0.04247 0.46396 0.0
H1730 H 0.67072 0.0749 0.52249 0.0
H1731 H 0.63423 0.02797 0.62955 0.0
C1732 C 0.64121 0.95603 0.49118 0.0
C1733 C 0.64936 0.95162 0.44135 0.0
C1734 C 0.66086 0.97008 0.41357 0.0
C1735 C 0.66439 0.99231 0.43475 0.0
C1736 C 0.65628 0.99598 0.48386 0.0
C1737 C 0.64479 0.97845 0.51172 0.0
C1738 C 0.63722 0.98746 0.56308 0.0
C1739 C 0.61041 0.98658 0.56592 0.0
C1740 C 0.64916 0.97341 0.60908 0.0
C1741 C 0.64617 0.01287 0.55962 0.0
C1742 C 0.65721 0.01717 0.51353 0.0
C1743 C 0.66642 0.03927 0.50012 0.0
C1744 C 0.66388 0.05763 0.53382 0.0
C1745 C 0.6522 0.0541 0.58087 0.0
C1746 C 0.64357 0.03119 0.59439 0.0
H1747 H 0.21785 0.34302 0.84045 0.0
H1748 H 0.20461 0.41843 0.83612 0.0
H1749 H 0.24078 0.42577 0.78927 0.0
H1750 H 0.28108 0.34589 0.85619 0.0
H1751 H 0.28629 0.32236 0.81358 0.0
H1752 H 0.25961 0.32272 0.84809 0.0
H1753 H 0.23531 0.32096 0.76151 0.0
H1754 H 0.26192 0.32055 0.72674 0.0
H1755 H 0.24019 0.34287 0.71027 0.0
H1756 H 0.27943 0.42546 0.74679 0.0
H1757 H 0.3159 0.41732 0.7034 0.0
H1758 H 0.30374 0.34198 0.72704 0.0
C1759 C 0.22264 0.36105 0.82969 0.0
C1760 C 0.20839 0.3802 0.84259 0.0
C1761 C 0.21516 0.40348 0.82703 0.0
C1762 C 0.23577 0.40785 0.80041 0.0
C1763 C 0.24948 0.38873 0.78851 0.0
C1764 C 0.24309 0.36574 0.8019 0.0
C1765 C 0.2607 0.34846 0.78235 0.0
C1766 C 0.27262 0.334 0.82777 0.0
C1767 C 0.24882 0.33225 0.74287 0.0
C1768 C 0.27803 0.36535 0.75648 0.0
C1769 C 0.27126 0.3885 0.76118 0.0
C1770 C 0.28473 0.40738 0.74238 0.0
C1771 C 0.30551 0.40257 0.71782 0.0
C1772 C 0.31267 0.37904 0.71115 0.0
C1773 C 0.29863 0.36017 0.73086 0.0
H1774 H 0.88877 0.94362 0.04895 0.0
H1775 H 0.84824 0.96406 0.17761 0.0
H1776 H 0.84173 0.00335 0.13413 0.0
H1777 H 0.91717 0.99999 0.02758 0.0
H1778 H 0.91655 0.99841 0.95809 0.0
H1779 H 0.91755 0.97166 0.99856 0.0
H1780 H 0.88015 0.95652 0.95033 0.0
H1781 H 0.8789 0.98332 0.90997 0.0
H1782 H 0.85407 0.97433 0.94684 0.0
H1783 H 0.83966 0.04007 0.07799 0.0
H1784 H 0.84436 0.07363 1.01578 0.0
H1785 H 0.88666 0.03056 0.92193 0.0
C1786 C 0.8785 0.95635 0.06804 0.0
C1787 C 0.86895 0.95068 0.11686 0.0
C1788 C 0.85577 0.96793 0.14047 0.0
C1789 C 0.85188 0.99027 0.11588 0.0
C1790 C 0.86134 0.99517 0.0677 0.0
C1791 C 0.87455 0.97883 0.04412 0.0
C1792 C 0.88334 0.98901 0.99297 0.0
C1793 C 0.91025 0.98982 0.99441 0.0
C1794 C 0.87352 0.97495 0.94733 0.0
C1795 C 0.87306 0.01373 0.99158 0.0
C1796 C 0.86031 0.01668 0.03508 0.0
C1797 C 0.84958 0.03796 0.04385 0.0
C1798 C 0.85239 0.05695 1.00814 0.0
C1799 C 0.86589 0.05479 0.96388 0.0
C1800 C 0.87599 0.03267 0.95493 0.0
H1801 H 0.21623 0.60264 0.20497 0.0
H1802 H 0.20945 0.67822 0.17187 0.0
H1803 H 0.24598 0.68517 0.22239 0.0
H1804 H 0.24132 0.60675 0.33712 0.0
H1805 H 0.26149 0.5827 0.3326 0.0
H1806 H 0.23426 0.58312 0.29467 0.0
H1807 H 0.25705 0.57965 0.21109 0.0
H1808 H 0.28434 0.57934 0.24878 0.0
H1809 H 0.27958 0.60102 0.1962 0.0
H1810 H 0.28257 0.68492 0.27612 0.0
H1811 H 0.31835 0.67734 0.33032 0.0
H1812 H 0.30478 0.60186 0.32888 0.0
C1813 C 0.22246 0.62061 0.20865 0.0
C1814 C 0.20982 0.63991 0.18414 0.0
C1815 C 0.2187 0.66312 0.1898 0.0
C1816 C 0.23951 0.6673 0.21861 0.0
C1817 C 0.25166 0.6481 0.2417 0.0
C1818 C 0.24365 0.62517 0.23719 0.0
C1819 C 0.26074 0.60795 0.26585 0.0
C1820 C 0.24874 0.59432 0.31019 0.0
C1821 C 0.27103 0.59098 0.22822 0.0
C1822 C 0.27948 0.62485 0.28678 0.0
C1823 C 0.27358 0.64792 0.27239 0.0
C1824 C 0.28743 0.66693 0.28751 0.0
C1825 C 0.30778 0.66242 0.31846 0.0
C1826 C 0.31453 0.63905 0.33391 0.0
C1827 C 0.30023 0.61992 0.31735 0.0
H1828 H 0.36566 0.9791 0.4036 0.0
H1829 H 0.4125 0.93469 0.50253 0.0
H1830 H 0.41557 0.96515 0.56575 0.0
H1831 H 0.39781 0.03529 0.43462 0.0
H1832 H 0.37144 0.05257 0.43328 0.0
H1833 H 0.37307 0.02754 0.39305 0.0
H1834 H 0.33586 0.00988 0.43377 0.0
H1835 H 0.33436 0.03469 0.47465 0.0
H1836 H 0.33537 0.00504 0.50311 0.0
H1837 H 0.41045 0.9973 0.62432 0.0
H1838 H 0.4036 0.03437 0.66781 0.0
H1839 H 0.36393 0.06154 0.53113 0.0
C1840 C 0.37691 0.97606 0.438 0.0
C1841 C 0.38837 0.95404 0.44805 0.0
C1842 C 0.40299 0.95097 0.49381 0.0
C1843 C 0.40497 0.96825 0.53041 0.0
C1844 C 0.39275 0.98913 0.52079 0.0
C1845 C 0.37961 0.99363 0.4752 0.0
C1846 C 0.3689 0.01823 0.4753 0.0
C1847 C 0.37837 0.03436 0.43146 0.0
C1848 C 0.34203 0.01686 0.47148 0.0
C1849 C 0.3777 0.0262 0.52835 0.0
C1850 C 0.39114 0.00887 0.55398 0.0
C1851 C 0.40026 0.01126 0.60443 0.0
C1852 C 0.3961 0.03227 0.62908 0.0
C1853 C 0.38332 0.05082 0.60299 0.0
C1854 C 0.37389 0.04765 0.55196 0.0
H1855 H 0.80206 0.64626 0.16195 0.0
H1856 H 0.83593 0.58588 0.24145 0.0
H1857 H 0.80233 0.58057 0.29741 0.0
H1858 H 0.77229 0.6688 0.26987 0.0
H1859 H 0.7456 0.67581 0.2328 0.0
H1860 H 0.77313 0.67622 0.20144 0.0
H1861 H 0.7566 0.64655 0.13572 0.0
H1862 H 0.729 0.64614 0.16672 0.0
H1863 H 0.74432 0.61889 0.15919 0.0
H1864 H 0.76542 0.58271 0.34748 0.0
H1865 H 0.72575 0.58822 0.37913 0.0
H1866 H 0.7128 0.64377 0.26042 0.0
C1867 C 0.80244 0.63201 0.19137 0.0
C1868 C 0.8222 0.61698 0.19854 0.0
C1869 C 0.82158 0.59817 0.23647 0.0
C1870 C 0.8024 0.59491 0.26827 0.0
C1871 C 0.78339 0.61016 0.2608 0.0
C1872 C 0.78296 0.62801 0.22245 0.0
C1873 C 0.75952 0.64073 0.22009 0.0
C1874 C 0.76284 0.66695 0.23175 0.0
C1875 C 0.7466 0.63791 0.16729 0.0
C1876 C 0.74697 0.62739 0.26331 0.0
C1877 C 0.76127 0.61011 0.28687 0.0
C1878 C 0.75399 0.59602 0.32893 0.0
C1879 C 0.73143 0.59937 0.34687 0.0
C1880 C 0.71604 0.61632 0.32226 0.0
C1881 C 0.72405 0.63053 0.27989 0.0
H1882 H 0.11151 0.03826 0.90665 0.0
H1883 H 0.17247 0.0754 0.96807 0.0
H1884 H 0.17773 0.0446 0.03798 0.0
H1885 H 0.08978 0.01533 0.02901 0.0
H1886 H 0.08158 0.98692 1.005 0.0
H1887 H 0.08145 0.0127 0.96146 0.0
H1888 H 0.10935 0.99187 0.90205 0.0
H1889 H 0.10945 0.966 0.94526 0.0
H1890 H 0.13669 0.9801 0.92907 0.0
H1891 H 0.17625 0.0098 0.10273 0.0
H1892 H 0.17074 0.97144 0.15077 0.0
H1893 H 0.11292 0.95493 0.04391 0.0
C1894 C 0.12586 0.03994 0.93504 0.0
C1895 C 0.14118 0.05968 0.93263 0.0
C1896 C 0.16007 0.06088 0.96985 0.0
C1897 C 0.16329 0.04337 1.00972 0.0
C1898 C 0.14777 0.02432 1.01152 0.0
C1899 C 0.12965 0.02224 0.97468 0.0
C1900 C 0.11643 0.99915 0.98377 0.0
C1901 C 0.09079 0.00382 0.99551 0.0
C1902 C 0.11809 0.98335 0.93728 0.0
C1903 C 0.12993 0.98867 0.0313 0.0
C1904 C 0.14773 0.00364 0.04716 0.0
C1905 C 0.16241 0.99789 0.09051 0.0
C1906 C 0.15909 0.9761 0.11777 0.0
C1907 C 0.14148 0.9601 0.1012 0.0
C1908 C 0.12663 0.96671 0.05757 0.0
H1909 H 0.71532 0.34521 0.70773 0.0
H1910 H 0.7026 0.4207 0.69726 0.0
H1911 H 0.74073 0.42763 0.743 0.0
H1912 H 0.74235 0.34447 0.83772 0.0
H1913 H 0.76331 0.32192 0.82593 0.0
H1914 H 0.73546 0.32277 0.79044 0.0
H1915 H 0.75667 0.32452 0.704 0.0
H1916 H 0.78459 0.3237 0.73923 0.0
H1917 H 0.77808 0.34744 0.69208 0.0
H1918 H 0.78114 0.42668 0.78691 0.0
H1919 H 0.81905 0.41779 0.83296 0.0
H1920 H 0.8052 0.34274 0.82257 0.0
C1921 C 0.72066 0.36319 0.71486 0.0
C1922 C 0.70598 0.38247 0.69822 0.0
C1923 C 0.71348 0.40568 0.70924 0.0
C1924 C 0.73519 0.40979 0.73519 0.0
C1925 C 0.74927 0.3905 0.75096 0.0
C1926 C 0.74221 0.36761 0.74185 0.0
C1927 C 0.76034 0.35004 0.76502 0.0
C1928 C 0.74973 0.33384 0.80729 0.0
C1929 C 0.77052 0.33557 0.72254 0.0
C1930 C 0.77874 0.36661 0.78813 0.0
C1931 C 0.77205 0.38989 0.77893 0.0
C1932 C 0.7864 0.4085 0.79474 0.0
C1933 C 0.80799 0.40327 0.82088 0.0
C1934 C 0.81512 0.37959 0.83203 0.0
C1935 C 0.80017 0.36103 0.81529 0.0
loop_
_geom_bond_atom_site_label_1
_geom_bond_atom_site_label_2
_geom_bond_distance
_geom_bond_site_symmetry_2
_ccdc_geom_bond_type
C0 Eu1 2.835 . S
C0 C2 1.500 1_554 S
C0 O20 1.257 . S
C0 O21 1.260 . S
Eu1 C0 2.835 . S
Eu1 O20 2.473 . S
Eu1 O21 2.480 . S
Eu1 O22 2.430 . S
Eu1 O23 2.670 . S
Eu1 O24 2.394 . S
Eu1 O29 2.355 . S
Eu1 O31 2.374 . S
C2 C0 1.500 1_556 S
C2 C3 1.377 . S
C2 C7 1.377 . S
C3 C2 1.377 . S
C3 C4 1.395 . S
C3 H32 0.931 . S
C4 C3 1.395 . S
C4 C5 1.383 . S
C4 H33 0.931 . S
C5 C4 1.383 . S
C5 C6 1.394 . S
C6 C5 1.394 . S
C6 C7 1.378 . S
C6 H34 0.931 . S
C7 C2 1.377 . S
C7 C6 1.378 . S
C7 H35 0.931 . S
C8 O22 1.259 . S
C8 O23 1.270 . S
C9 O24 1.251 . S
C9 O25 1.251 . S
C10 Eu11 2.835 . S
C10 C12 1.500 . S
C10 O26 1.257 . S
C10 O27 1.260 . S
Eu11 C10 2.835 . S
Eu11 O23 2.355 . S
Eu11 O25 2.374 . S
Eu11 O26 2.473 . S
Eu11 O27 2.480 . S
Eu11 O28 2.430 . S
Eu11 O29 2.670 . S
Eu11 O30 2.394 . S
C12 C10 1.500 . S
C12 C13 1.377 . S
C12 C17 1.377 . S
C13 C12 1.377 . S
C13 C14 1.395 . S
C13 H36 0.931 . S
C14 C13 1.395 . S
C14 C15 1.383 . S
C14 H37 0.931 . S
C15 C14 1.383 . S
C15 C16 1.394 . S
C16 C15 1.394 . S
C16 C17 1.378 . S
C16 H38 0.931 . S
C17 C12 1.377 . S
C17 C16 1.378 . S
C17 H39 0.931 . S
C18 O28 1.259 . S
C18 O29 1.270 . S
C19 O30 1.251 . S
C19 O31 1.251 . S
O20 C0 1.257 . S
O20 Eu1 2.473 . S
O21 C0 1.260 . S
O21 Eu1 2.480 . S
O22 Eu1 2.430 . S
O22 C8 1.259 . S
O23 Eu1 2.670 . S
O23 C8 1.270 . S
O23 Eu11 2.355 . S
O24 Eu1 2.394 . S
O24 C9 1.251 . S
O25 C9 1.251 . S
O25 Eu11 2.374 . S
O26 C10 1.257 . S
O26 Eu11 2.473 . S
O27 C10 1.260 . S
O27 Eu11 2.480 . S
O28 Eu11 2.430 . S
O28 C18 1.259 . S
O29 Eu1 2.355 . S
O29 Eu11 2.670 . S
O29 C18 1.270 . S
O30 Eu11 2.394 . S
O30 C19 1.251 . S
O31 Eu1 2.374 . S
O31 C19 1.251 . S
H32 C3 0.931 . S
H33 C4 0.931 . S
H34 C6 0.931 . S
H35 C7 0.931 . S
H36 C13 0.931 . S
H37 C14 0.931 . S
H38 C16 0.931 . S
H39 C17 0.931 . S
C40 Eu41 2.835 . S
C40 C42 1.500 . S
C40 O60 1.257 . S
C40 O61 1.260 . S
Eu41 C40 2.835 . S
Eu41 O60 2.473 . S
Eu41 O61 2.480 . S
Eu41 O62 2.430 . S
Eu41 O63 2.670 . S
Eu41 O64 2.394 . S
Eu41 O69 2.355 . S
Eu41 O71 2.374 . S
C42 C40 1.500 . S
C42 C43 1.377 . S
C42 C47 1.377 . S
C43 C42 1.377 . S
C43 C44 1.395 . S
C43 H72 0.931 . S
C44 C43 1.395 . S
C44 C45 1.383 . S
C44 H73 0.931 . S
C45 C44 1.383 . S
C45 C46 1.394 . S
C46 C45 1.394 . S
C46 C47 1.378 . S
C46 H74 0.931 . S
C47 C42 1.377 . S
C47 C46 1.378 . S
C47 H75 0.931 . S
C48 O62 1.259 . S
C48 O63 1.270 . S
C49 O64 1.251 . S
C49 O65 1.251 . S
C50 Eu51 2.835 . S
C50 C52 1.500 . S
C50 O66 1.257 . S
C50 O67 1.260 . S
Eu51 C50 2.835 . S
Eu51 O63 2.355 . S
Eu51 O65 2.374 . S
Eu51 O66 2.473 . S
Eu51 O67 2.480 . S
Eu51 O68 2.430 . S
Eu51 O69 2.670 . S
Eu51 O70 2.394 . S
C52 C50 1.500 . S
C52 C53 1.377 . S
C52 C57 1.377 . S
C53 C52 1.377 . S
C53 C54 1.395 . S
C53 H76 0.931 . S
C54 C53 1.395 . S
C54 C55 1.383 . S
C54 H77 0.931 . S
C55 C54 1.383 . S
C55 C56 1.394 . S
C56 C55 1.394 . S
C56 C57 1.378 . S
C56 H78 0.931 . S
C57 C52 1.377 . S
C57 C56 1.378 . S
C57 H79 0.931 . S
C58 O68 1.259 . S
C58 O69 1.270 . S
C59 O70 1.251 . S
C59 O71 1.251 . S
O60 C40 1.257 . S
O60 Eu41 2.473 . S
O61 C40 1.260 . S
O61 Eu41 2.480 . S
O62 Eu41 2.430 . S
O62 C48 1.259 . S
O63 Eu41 2.670 . S
O63 C48 1.270 . S
O63 Eu51 2.355 . S
O64 Eu41 2.394 . S
O64 C49 1.251 . S
O65 C49 1.251 . S
O65 Eu51 2.374 . S
O66 C50 1.257 . S
O66 Eu51 2.473 . S
O67 C50 1.260 . S
O67 Eu51 2.480 . S
O68 Eu51 2.430 . S
O68 C58 1.259 . S
O69 Eu41 2.355 . S
O69 Eu51 2.670 . S
O69 C58 1.270 . S
O70 Eu51 2.394 . S
O70 C59 1.251 . S
O71 Eu41 2.374 . S
O71 C59 1.251 . S
H72 C43 0.931 . S
H73 C44 0.931 . S
H74 C46 0.931 . S
H75 C47 0.931 . S
H76 C53 0.931 . S
H77 C54 0.931 . S
H78 C56 0.931 . S
H79 C57 0.931 . S
C80 Eu81 2.835 . S
C80 C82 1.500 . S
C80 O100 1.257 . S
C80 O101 1.260 . S
Eu81 C80 2.835 . S
Eu81 O100 2.473 . S
Eu81 O101 2.480 . S
Eu81 O102 2.430 . S
Eu81 O103 2.670 . S
Eu81 O104 2.394 . S
Eu81 O109 2.355 . S
Eu81 O111 2.374 . S
C82 C80 1.500 . S
C82 C83 1.377 . S
C82 C87 1.377 . S
C83 C82 1.377 . S
C83 C84 1.395 . S
C83 H112 0.931 . S
C84 C83 1.395 . S
C84 C85 1.383 . S
C84 H113 0.931 . S
C85 C84 1.383 . S
C85 C86 1.394 . S
C86 C85 1.394 . S
C86 C87 1.378 . S
C86 H114 0.931 . S
C87 C82 1.377 . S
C87 C86 1.378 . S
C87 H115 0.931 . S
C88 O102 1.259 . S
C88 O103 1.270 . S
C89 O104 1.251 . S
C89 O105 1.251 . S
C90 Eu91 2.835 . S
C90 C92 1.500 . S
C90 O106 1.257 . S
C90 O107 1.260 . S
Eu91 C90 2.835 . S
Eu91 O103 2.355 . S
Eu91 O105 2.374 . S
Eu91 O106 2.473 . S
Eu91 O107 2.480 . S
Eu91 O108 2.430 . S
Eu91 O109 2.670 . S
Eu91 O110 2.394 . S
C92 C90 1.500 . S
C92 C93 1.377 . S
C92 C97 1.377 . S
C93 C92 1.377 . S
C93 C94 1.395 . S
C93 H116 0.931 . S
C94 C93 1.395 . S
C94 C95 1.383 1_556 S
C94 H117 0.931 1_556 S
C95 C94 1.383 1_554 S
C95 C96 1.394 1_554 S
C96 C95 1.394 1_556 S
C96 C97 1.378 . S
C96 H118 0.931 . S
C97 C92 1.377 . S
C97 C96 1.378 . S
C97 H119 0.931 . S
C98 O108 1.259 . S
C98 O109 1.270 . S
C99 O110 1.251 . S
C99 O111 1.251 . S
O100 C80 1.257 . S
O100 Eu81 2.473 . S
O101 C80 1.260 . S
O101 Eu81 2.480 . S
O102 Eu81 2.430 . S
O102 C88 1.259 . S
O103 Eu81 2.670 . S
O103 C88 1.270 . S
O103 Eu91 2.355 . S
O104 Eu81 2.394 . S
O104 C89 1.251 . S
O105 C89 1.251 . S
O105 Eu91 2.374 . S
O106 C90 1.257 . S
O106 Eu91 2.473 . S
O107 C90 1.260 . S
O107 Eu91 2.480 . S
O108 Eu91 2.430 . S
O108 C98 1.259 . S
O109 Eu81 2.355 . S
O109 Eu91 2.670 . S
O109 C98 1.270 . S
O110 Eu91 2.394 . S
O110 C99 1.251 . S
O111 Eu81 2.374 . S
O111 C99 1.251 . S
H112 C83 0.931 . S
H113 C84 0.931 . S
H114 C86 0.931 . S
H115 C87 0.931 . S
H116 C93 0.931 . S
H117 C94 0.931 1_554 S
H118 C96 0.931 . S
H119 C97 0.931 . S
C120 Eu121 2.835 1_554 S
C120 C122 1.500 . S
C120 O140 1.257 1_554 S
C120 O141 1.260 1_554 S
Eu121 C120 2.835 1_556 S
Eu121 O140 2.473 . S
Eu121 O141 2.480 . S
Eu121 O142 2.430 . S
Eu121 O143 2.670 . S
Eu121 O144 2.394 . S
Eu121 O149 2.355 . S
Eu121 O151 2.374 . S
C122 C120 1.500 . S
C122 C123 1.377 . S
C122 C127 1.377 . S
C123 C122 1.377 . S
C123 C124 1.395 . S
C123 H152 0.931 . S
C124 C123 1.395 . S
C124 C125 1.383 . S
C124 H153 0.931 . S
C125 C124 1.383 . S
C125 C126 1.394 . S
C126 C125 1.394 . S
C126 C127 1.378 . S
C126 H154 0.931 . S
C127 C122 1.377 . S
C127 C126 1.378 . S
C127 H155 0.931 . S
C128 O142 1.259 . S
C128 O143 1.270 . S
C129 O144 1.251 . S
C129 O145 1.251 . S
C130 Eu131 2.835 . S
C130 C132 1.500 . S
C130 O146 1.257 . S
C130 O147 1.260 . S
Eu131 C130 2.835 . S
Eu131 O143 2.355 . S
Eu131 O145 2.374 . S
Eu131 O146 2.473 . S
Eu131 O147 2.480 . S
Eu131 O148 2.430 . S
Eu131 O149 2.670 . S
Eu131 O150 2.394 . S
C132 C130 1.500 . S
C132 C133 1.377 . S
C132 C137 1.377 . S
C133 C132 1.377 . S
C133 C134 1.395 . S
C133 H156 0.931 . S
C134 C133 1.395 . S
C134 C135 1.383 . S
C134 H157 0.931 . S
C135 C134 1.383 . S
C135 C136 1.394 . S
C136 C135 1.394 . S
C136 C137 1.378 . S
C136 H158 0.931 . S
C137 C132 1.377 . S
C137 C136 1.378 . S
C137 H159 0.931 . S
C138 O148 1.259 . S
C138 O149 1.270 . S
C139 O150 1.251 . S
C139 O151 1.251 . S
O140 C120 1.257 1_556 S
O140 Eu121 2.473 . S
O141 C120 1.260 1_556 S
O141 Eu121 2.480 . S
O142 Eu121 2.430 . S
O142 C128 1.259 . S
O143 Eu121 2.670 . S
O143 C128 1.270 . S
O143 Eu131 2.355 . S
O144 Eu121 2.394 . S
O144 C129 1.251 . S
O145 C129 1.251 . S
O145 Eu131 2.374 . S
O146 C130 1.257 . S
O146 Eu131 2.473 . S
O147 C130 1.260 . S
O147 Eu131 2.480 . S
O148 Eu131 2.430 . S
O148 C138 1.259 . S
O149 Eu121 2.355 . S
O149 Eu131 2.670 . S
O149 C138 1.270 . S
O150 Eu131 2.394 . S
O150 C139 1.251 . S
O151 Eu121 2.374 . S
O151 C139 1.251 . S
H152 C123 0.931 . S
H153 C124 0.931 . S
H154 C126 0.931 . S
H155 C127 0.931 . S
H156 C133 0.931 . S
H157 C134 0.931 . S
H158 C136 0.931 . S
H159 C137 0.931 . S
C160 Eu161 2.835 1_554 S
C160 C162 1.500 . S
C160 O180 1.257 1_554 S
C160 O181 1.260 1_554 S
Eu161 C160 2.835 1_556 S
Eu161 O180 2.473 . S
Eu161 O181 2.480 . S
Eu161 O182 2.430 . S
Eu161 O183 2.670 . S
Eu161 O184 2.394 . S
Eu161 O189 2.355 . S
Eu161 O191 2.374 . S
C162 C160 1.500 . S
C162 C163 1.377 . S
C162 C167 1.377 . S
C163 C162 1.377 . S
C163 C164 1.395 . S
C163 H192 0.931 . S
C164 C163 1.395 . S
C164 C165 1.383 . S
C164 H193 0.931 . S
C165 C164 1.383 . S
C165 C166 1.394 . S
C166 C165 1.394 . S
C166 C167 1.378 . S
C166 H194 0.931 . S
C167 C162 1.377 . S
C167 C166 1.378 . S
C167 H195 0.931 . S
C168 O182 1.259 . S
C168 O183 1.270 . S
C169 O184 1.251 . S
C169 O185 1.251 . S
C170 Eu171 2.835 . S
C170 C172 1.500 . S
C170 O186 1.257 . S
C170 O187 1.260 . S
Eu171 C170 2.835 . S
Eu171 O183 2.355 . S
Eu171 O185 2.374 . S
Eu171 O186 2.473 . S
Eu171 O187 2.480 . S
Eu171 O188 2.430 . S
Eu171 O189 2.670 . S
Eu171 O190 2.394 . S
C172 C170 1.500 . S
C172 C173 1.377 . S
C172 C177 1.377 . S
C173 C172 1.377 . S
C173 C174 1.395 . S
C173 H196 0.931 . S
C174 C173 1.395 . S
C174 C175 1.383 . S
C174 H197 0.931 . S
C175 C174 1.383 . S
C175 C176 1.394 . S
C176 C175 1.394 . S
C176 C177 1.378 . S
C176 H198 0.931 . S
C177 C172 1.377 . S
C177 C176 1.378 . S
C177 H199 0.931 . S
C178 O188 1.259 . S
C178 O189 1.270 . S
C179 O190 1.251 . S
C179 O191 1.251 . S
O180 C160 1.257 1_556 S
O180 Eu161 2.473 . S
O181 C160 1.260 1_556 S
O181 Eu161 2.480 . S
O182 Eu161 2.430 . S
O182 C168 1.259 . S
O183 Eu161 2.670 . S
O183 C168 1.270 . S
O183 Eu171 2.355 . S
O184 Eu161 2.394 . S
O184 C169 1.251 . S
O185 C169 1.251 . S
O185 Eu171 2.374 . S
O186 C170 1.257 . S
O186 Eu171 2.473 . S
O187 C170 1.260 . S
O187 Eu171 2.480 . S
O188 Eu171 2.430 . S
O188 C178 1.259 . S
O189 Eu161 2.355 . S
O189 Eu171 2.670 . S
O189 C178 1.270 . S
O190 Eu171 2.394 . S
O190 C179 1.251 . S
O191 Eu161 2.374 . S
O191 C179 1.251 . S
H192 C163 0.931 . S
H193 C164 0.931 . S
H194 C166 0.931 . S
H195 C167 0.931 . S
H196 C173 0.931 . S
H197 C174 0.931 . S
H198 C176 0.931 . S
H199 C177 0.931 . S
C200 Eu201 2.835 . S
C200 C202 1.500 1_554 S
C200 O220 1.257 . S
C200 O221 1.260 . S
Eu201 C200 2.835 . S
Eu201 O220 2.473 . S
Eu201 O221 2.480 . S
Eu201 O222 2.430 . S
Eu201 O223 2.670 . S
Eu201 O224 2.394 . S
Eu201 O229 2.355 . S
Eu201 O231 2.374 . S
C202 C200 1.500 1_556 S
C202 C203 1.377 . S
C202 C207 1.377 . S
C203 C202 1.377 . S
C203 C204 1.395 . S
C203 H232 0.931 . S
C204 C203 1.395 . S
C204 C205 1.383 . S
C204 H233 0.931 . S
C205 C204 1.383 . S
C205 C206 1.394 . S
C206 C205 1.394 . S
C206 C207 1.378 . S
C206 H234 0.931 . S
C207 C202 1.377 . S
C207 C206 1.378 . S
C207 H235 0.931 . S
C208 O222 1.259 . S
C208 O223 1.270 . S
C209 O224 1.251 . S
C209 O225 1.251 . S
C210 Eu211 2.835 . S
C210 C212 1.500 . S
C210 O226 1.257 . S
C210 O227 1.260 . S
Eu211 C210 2.835 . S
Eu211 O223 2.355 . S
Eu211 O225 2.374 . S
Eu211 O226 2.473 . S
Eu211 O227 2.480 . S
Eu211 O228 2.430 . S
Eu211 O229 2.670 . S
Eu211 O230 2.394 . S
C212 C210 1.500 . S
C212 C213 1.377 . S
C212 C217 1.377 . S
C213 C212 1.377 . S
C213 C214 1.395 . S
C213 H236 0.931 . S
C214 C213 1.395 . S
C214 C215 1.383 . S
C214 H237 0.931 . S
C215 C214 1.383 . S
C215 C216 1.394 . S
C216 C215 1.394 . S
C216 C217 1.378 . S
C216 H238 0.931 . S
C217 C212 1.377 . S
C217 C216 1.378 . S
C217 H239 0.931 . S
C218 O228 1.259 . S
C218 O229 1.270 . S
C219 O230 1.251 . S
C219 O231 1.251 . S
O220 C200 1.257 . S
O220 Eu201 2.473 . S
O221 C200 1.260 . S
O221 Eu201 2.480 . S
O222 Eu201 2.430 . S
O222 C208 1.259 . S
O223 Eu201 2.670 . S
O223 C208 1.270 . S
O223 Eu211 2.355 . S
O224 Eu201 2.394 . S
O224 C209 1.251 . S
O225 C209 1.251 . S
O225 Eu211 2.374 . S
O226 C210 1.257 . S
O226 Eu211 2.473 . S
O227 C210 1.260 . S
O227 Eu211 2.480 . S
O228 Eu211 2.430 . S
O228 C218 1.259 . S
O229 Eu201 2.355 . S
O229 Eu211 2.670 . S
O229 C218 1.270 . S
O230 Eu211 2.394 . S
O230 C219 1.251 . S
O231 Eu201 2.374 . S
O231 C219 1.251 . S
H232 C203 0.931 . S
H233 C204 0.931 . S
H234 C206 0.931 . S
H235 C207 0.931 . S
H236 C213 0.931 . S
H237 C214 0.931 . S
H238 C216 0.931 . S
H239 C217 0.931 . S
C240 Eu241 2.835 . S
C240 C242 1.500 . S
C240 O260 1.257 . S
C240 O261 1.260 . S
Eu241 C240 2.835 . S
Eu241 O260 2.473 . S
Eu241 O261 2.480 . S
Eu241 O262 2.430 . S
Eu241 O263 2.670 . S
Eu241 O264 2.394 . S
Eu241 O269 2.355 . S
Eu241 O271 2.374 . S
C242 C240 1.500 . S
C242 C243 1.377 . S
C242 C247 1.377 . S
C243 C242 1.377 . S
C243 C244 1.395 . S
C243 H272 0.931 . S
C244 C243 1.395 . S
C244 C245 1.383 . S
C244 H273 0.931 . S
C245 C244 1.383 . S
C245 C246 1.394 . S
C246 C245 1.394 . S
C246 C247 1.378 . S
C246 H274 0.931 . S
C247 C242 1.377 . S
C247 C246 1.378 . S
C247 H275 0.931 . S
C248 O262 1.259 . S
C248 O263 1.270 . S
C249 O264 1.251 . S
C249 O265 1.251 . S
C250 Eu251 2.835 . S
C250 C252 1.500 . S
C250 O266 1.257 . S
C250 O267 1.260 . S
Eu251 C250 2.835 . S
Eu251 O263 2.355 . S
Eu251 O265 2.374 . S
Eu251 O266 2.473 . S
Eu251 O267 2.480 . S
Eu251 O268 2.430 . S
Eu251 O269 2.670 . S
Eu251 O270 2.394 . S
C252 C250 1.500 . S
C252 C253 1.377 . S
C252 C257 1.377 . S
C253 C252 1.377 . S
C253 C254 1.395 . S
C253 H276 0.931 . S
C254 C253 1.395 . S
C254 C255 1.383 . S
C254 H277 0.931 . S
C255 C254 1.383 . S
C255 C256 1.394 . S
C256 C255 1.394 . S
C256 C257 1.378 . S
C256 H278 0.931 . S
C257 C252 1.377 . S
C257 C256 1.378 . S
C257 H279 0.931 . S
C258 O268 1.259 . S
C258 O269 1.270 . S
C259 O270 1.251 . S
C259 O271 1.251 . S
O260 C240 1.257 . S
O260 Eu241 2.473 . S
O261 C240 1.260 . S
O261 Eu241 2.480 . S
O262 Eu241 2.430 . S
O262 C248 1.259 . S
O263 Eu241 2.670 . S
O263 C248 1.270 . S
O263 Eu251 2.355 . S
O264 Eu241 2.394 . S
O264 C249 1.251 . S
O265 C249 1.251 . S
O265 Eu251 2.374 . S
O266 C250 1.257 . S
O266 Eu251 2.473 . S
O267 C250 1.260 . S
O267 Eu251 2.480 . S
O268 Eu251 2.430 . S
O268 C258 1.259 . S
O269 Eu241 2.355 . S
O269 Eu251 2.670 . S
O269 C258 1.270 . S
O270 Eu251 2.394 . S
O270 C259 1.251 . S
O271 Eu241 2.374 . S
O271 C259 1.251 . S
H272 C243 0.931 . S
H273 C244 0.931 . S
H274 C246 0.931 . S
H275 C247 0.931 . S
H276 C253 0.931 . S
H277 C254 0.931 . S
H278 C256 0.931 . S
H279 C257 0.931 . S
C280 Eu281 2.835 . S
C280 C282 1.500 . S
C280 O300 1.257 . S
C280 O301 1.260 . S
Eu281 C280 2.835 . S
Eu281 O300 2.473 . S
Eu281 O301 2.480 . S
Eu281 O302 2.430 . S
Eu281 O303 2.670 . S
Eu281 O304 2.394 . S
Eu281 O309 2.355 . S
Eu281 O311 2.374 . S
C282 C280 1.500 . S
C282 C283 1.377 . S
C282 C287 1.377 . S
C283 C282 1.377 . S
C283 C284 1.395 . S
C283 H312 0.931 . S
C284 C283 1.395 . S
C284 C285 1.383 . S
C284 H313 0.931 . S
C285 C284 1.383 . S
C285 C286 1.394 . S
C286 C285 1.394 . S
C286 C287 1.378 . S
C286 H314 0.931 . S
C287 C282 1.377 . S
C287 C286 1.378 . S
C287 H315 0.931 . S
C288 O302 1.259 . S
C288 O303 1.270 . S
C289 O304 1.251 . S
C289 O305 1.251 . S
C290 Eu291 2.835 . S
C290 C292 1.500 . S
C290 O306 1.257 . S
C290 O307 1.260 . S
Eu291 C290 2.835 . S
Eu291 O303 2.355 . S
Eu291 O305 2.374 . S
Eu291 O306 2.473 . S
Eu291 O307 2.480 . S
Eu291 O308 2.430 . S
Eu291 O309 2.670 . S
Eu291 O310 2.394 . S
C292 C290 1.500 . S
C292 C293 1.377 . S
C292 C297 1.377 . S
C293 C292 1.377 . S
C293 C294 1.395 . S
C293 H316 0.931 . S
C294 C293 1.395 . S
C294 C295 1.383 1_556 S
C294 H317 0.931 1_556 S
C295 C294 1.383 1_554 S
C295 C296 1.394 1_554 S
C296 C295 1.394 1_556 S
C296 C297 1.378 . S
C296 H318 0.931 . S
C297 C292 1.377 . S
C297 C296 1.378 . S
C297 H319 0.931 . S
C298 O308 1.259 . S
C298 O309 1.270 . S
C299 O310 1.251 . S
C299 O311 1.251 . S
O300 C280 1.257 . S
O300 Eu281 2.473 . S
O301 C280 1.260 . S
O301 Eu281 2.480 . S
O302 Eu281 2.430 . S
O302 C288 1.259 . S
O303 Eu281 2.670 . S
O303 C288 1.270 . S
O303 Eu291 2.355 . S
O304 Eu281 2.394 . S
O304 C289 1.251 . S
O305 C289 1.251 . S
O305 Eu291 2.374 . S
O306 C290 1.257 . S
O306 Eu291 2.473 . S
O307 C290 1.260 . S
O307 Eu291 2.480 . S
O308 Eu291 2.430 . S
O308 C298 1.259 . S
O309 Eu281 2.355 . S
O309 Eu291 2.670 . S
O309 C298 1.270 . S
O310 Eu291 2.394 . S
O310 C299 1.251 . S
O311 Eu281 2.374 . S
O311 C299 1.251 . S
H312 C283 0.931 . S
H313 C284 0.931 . S
H314 C286 0.931 . S
H315 C287 0.931 . S
H316 C293 0.931 . S
H317 C294 0.931 1_554 S
H318 C296 0.931 . S
H319 C297 0.931 . S
C320 Eu321 2.835 . S
C320 C322 1.500 . S
C320 O340 1.257 . S
C320 O341 1.260 . S
Eu321 C320 2.835 . S
Eu321 O340 2.473 . S
Eu321 O341 2.480 . S
Eu321 O342 2.430 . S
Eu321 O343 2.670 . S
Eu321 O344 2.394 . S
Eu321 O349 2.355 . S
Eu321 O351 2.374 . S
C322 C320 1.500 . S
C322 C323 1.377 . S
C322 C327 1.377 . S
C323 C322 1.377 . S
C323 C324 1.395 . S
C323 H352 0.931 . S
C324 C323 1.395 . S
C324 C325 1.383 . S
C324 H353 0.931 . S
C325 C324 1.383 . S
C325 C326 1.394 . S
C326 C325 1.394 . S
C326 C327 1.378 . S
C326 H354 0.931 . S
C327 C322 1.377 . S
C327 C326 1.378 . S
C327 H355 0.931 . S
C328 O342 1.259 . S
C328 O343 1.270 . S
C329 O344 1.251 . S
C329 O345 1.251 . S
C330 Eu331 2.835 . S
C330 C332 1.500 1_556 S
C330 O346 1.257 . S
C330 O347 1.260 . S
Eu331 C330 2.835 . S
Eu331 O343 2.355 . S
Eu331 O345 2.374 . S
Eu331 O346 2.473 . S
Eu331 O347 2.480 . S
Eu331 O348 2.430 . S
Eu331 O349 2.670 . S
Eu331 O350 2.394 . S
C332 C330 1.500 1_554 S
C332 C333 1.377 . S
C332 C337 1.377 . S
C333 C332 1.377 . S
C333 C334 1.395 . S
C333 H356 0.931 . S
C334 C333 1.395 . S
C334 C335 1.383 . S
C334 H357 0.931 . S
C335 C334 1.383 . S
C335 C336 1.394 . S
C336 C335 1.394 . S
C336 C337 1.378 . S
C336 H358 0.931 . S
C337 C332 1.377 . S
C337 C336 1.378 . S
C337 H359 0.931 . S
C338 O348 1.259 . S
C338 O349 1.270 . S
C339 O350 1.251 . S
C339 O351 1.251 . S
O340 C320 1.257 . S
O340 Eu321 2.473 . S
O341 C320 1.260 . S
O341 Eu321 2.480 . S
O342 Eu321 2.430 . S
O342 C328 1.259 . S
O343 Eu321 2.670 . S
O343 C328 1.270 . S
O343 Eu331 2.355 . S
O344 Eu321 2.394 . S
O344 C329 1.251 . S
O345 C329 1.251 . S
O345 Eu331 2.374 . S
O346 C330 1.257 . S
O346 Eu331 2.473 . S
O347 C330 1.260 . S
O347 Eu331 2.480 . S
O348 Eu331 2.430 . S
O348 C338 1.259 . S
O349 Eu321 2.355 . S
O349 Eu331 2.670 . S
O349 C338 1.270 . S
O350 Eu331 2.394 . S
O350 C339 1.251 . S
O351 Eu321 2.374 . S
O351 C339 1.251 . S
H352 C323 0.931 . S
H353 C324 0.931 . S
H354 C326 0.931 . S
H355 C327 0.931 . S
H356 C333 0.931 . S
H357 C334 0.931 . S
H358 C336 0.931 . S
H359 C337 0.931 . S
C360 Eu361 2.835 . S
C360 C362 1.500 . S
C360 O380 1.257 . S
C360 O381 1.260 . S
Eu361 C360 2.835 . S
Eu361 O380 2.473 . S
Eu361 O381 2.480 . S
Eu361 O382 2.430 . S
Eu361 O383 2.670 . S
Eu361 O384 2.394 . S
Eu361 O389 2.355 . S
Eu361 O391 2.374 . S
C362 C360 1.500 . S
C362 C363 1.377 . S
C362 C367 1.377 . S
C363 C362 1.377 . S
C363 C364 1.395 . S
C363 H392 0.931 . S
C364 C363 1.395 . S
C364 C365 1.383 . S
C364 H393 0.931 . S
C365 C364 1.383 . S
C365 C366 1.394 . S
C366 C365 1.394 . S
C366 C367 1.378 . S
C366 H394 0.931 . S
C367 C362 1.377 . S
C367 C366 1.378 . S
C367 H395 0.931 . S
C368 O382 1.259 . S
C368 O383 1.270 . S
C369 O384 1.251 . S
C369 O385 1.251 . S
C370 Eu371 2.835 . S
C370 C372 1.500 . S
C370 O386 1.257 . S
C370 O387 1.260 . S
Eu371 C370 2.835 . S
Eu371 O383 2.355 . S
Eu371 O385 2.374 . S
Eu371 O386 2.473 . S
Eu371 O387 2.480 . S
Eu371 O388 2.430 . S
Eu371 O389 2.670 . S
Eu371 O390 2.394 . S
C372 C370 1.500 . S
C372 C373 1.377 . S
C372 C377 1.377 . S
C373 C372 1.377 . S
C373 C374 1.395 . S
C373 H396 0.931 . S
C374 C373 1.395 . S
C374 C375 1.383 . S
C374 H397 0.931 . S
C375 C374 1.383 . S
C375 C376 1.394 . S
C376 C375 1.394 . S
C376 C377 1.378 . S
C376 H398 0.931 . S
C377 C372 1.377 . S
C377 C376 1.378 . S
C377 H399 0.931 . S
C378 O388 1.259 . S
C378 O389 1.270 . S
C379 O390 1.251 . S
C379 O391 1.251 . S
O380 C360 1.257 . S
O380 Eu361 2.473 . S
O381 C360 1.260 . S
O381 Eu361 2.480 . S
O382 Eu361 2.430 . S
O382 C368 1.259 . S
O383 Eu361 2.670 . S
O383 C368 1.270 . S
O383 Eu371 2.355 . S
O384 Eu361 2.394 . S
O384 C369 1.251 . S
O385 C369 1.251 . S
O385 Eu371 2.374 . S
O386 C370 1.257 . S
O386 Eu371 2.473 . S
O387 C370 1.260 . S
O387 Eu371 2.480 . S
O388 Eu371 2.430 . S
O388 C378 1.259 . S
O389 Eu361 2.355 . S
O389 Eu371 2.670 . S
O389 C378 1.270 . S
O390 Eu371 2.394 . S
O390 C379 1.251 . S
O391 Eu361 2.374 . S
O391 C379 1.251 . S
H392 C363 0.931 . S
H393 C364 0.931 . S
H394 C366 0.931 . S
H395 C367 0.931 . S
H396 C373 0.931 . S
H397 C374 0.931 . S
H398 C376 0.931 . S
H399 C377 0.931 . S
C400 Eu401 2.835 . S
C400 C402 1.500 . S
C400 O420 1.257 . S
C400 O421 1.260 . S
Eu401 C400 2.835 . S
Eu401 O420 2.473 . S
Eu401 O421 2.480 . S
Eu401 O422 2.430 . S
Eu401 O423 2.670 . S
Eu401 O424 2.394 . S
Eu401 O429 2.355 . S
Eu401 O431 2.374 . S
C402 C400 1.500 . S
C402 C403 1.377 . S
C402 C407 1.377 . S
C403 C402 1.377 . S
C403 C404 1.395 . S
C403 H432 0.931 . S
C404 C403 1.395 . S
C404 C405 1.383 . S
C404 H433 0.931 . S
C405 C404 1.383 . S
C405 C406 1.394 . S
C406 C405 1.394 . S
C406 C407 1.378 . S
C406 H434 0.931 . S
C407 C402 1.377 . S
C407 C406 1.378 . S
C407 H435 0.931 . S
C408 O422 1.259 . S
C408 O423 1.270 . S
C409 O424 1.251 . S
C409 O425 1.251 . S
C410 Eu411 2.835 . S
C410 C412 1.500 . S
C410 O426 1.257 . S
C410 O427 1.260 . S
Eu411 C410 2.835 . S
Eu411 O423 2.355 . S
Eu411 O425 2.374 . S
Eu411 O426 2.473 . S
Eu411 O427 2.480 . S
Eu411 O428 2.430 . S
Eu411 O429 2.670 . S
Eu411 O430 2.394 . S
C412 C410 1.500 . S
C412 C413 1.377 . S
C412 C417 1.377 . S
C413 C412 1.377 . S
C413 C414 1.395 . S
C413 H436 0.931 . S
C414 C413 1.395 . S
C414 C415 1.383 . S
C414 H437 0.931 . S
C415 C414 1.383 . S
C415 C416 1.394 . S
C416 C415 1.394 . S
C416 C417 1.378 . S
C416 H438 0.931 . S
C417 C412 1.377 . S
C417 C416 1.378 . S
C417 H439 0.931 . S
C418 O428 1.259 . S
C418 O429 1.270 . S
C419 O430 1.251 . S
C419 O431 1.251 . S
O420 C400 1.257 . S
O420 Eu401 2.473 . S
O421 C400 1.260 . S
O421 Eu401 2.480 . S
O422 Eu401 2.430 . S
O422 C408 1.259 . S
O423 Eu401 2.670 . S
O423 C408 1.270 . S
O423 Eu411 2.355 . S
O424 Eu401 2.394 . S
O424 C409 1.251 . S
O425 C409 1.251 . S
O425 Eu411 2.374 . S
O426 C410 1.257 . S
O426 Eu411 2.473 . S
O427 C410 1.260 . S
O427 Eu411 2.480 . S
O428 Eu411 2.430 . S
O428 C418 1.259 . S
O429 Eu401 2.355 . S
O429 Eu411 2.670 . S
O429 C418 1.270 . S
O430 Eu411 2.394 . S
O430 C419 1.251 . S
O431 Eu401 2.374 . S
O431 C419 1.251 . S
H432 C403 0.931 . S
H433 C404 0.931 . S
H434 C406 0.931 . S
H435 C407 0.931 . S
H436 C413 0.931 . S
H437 C414 0.931 . S
H438 C416 0.931 . S
H439 C417 0.931 . S
C440 Eu441 2.835 . S
C440 C442 1.500 . S
C440 O460 1.257 . S
C440 O461 1.260 . S
Eu441 C440 2.835 . S
Eu441 O460 2.473 . S
Eu441 O461 2.480 . S
Eu441 O462 2.430 . S
Eu441 O463 2.670 . S
Eu441 O464 2.394 . S
Eu441 O469 2.355 . S
Eu441 O471 2.374 . S
C442 C440 1.500 . S
C442 C443 1.377 . S
C442 C447 1.377 . S
C443 C442 1.377 . S
C443 C444 1.395 . S
C443 H472 0.931 . S
C444 C443 1.395 . S
C444 C445 1.383 . S
C444 H473 0.931 . S
C445 C444 1.383 . S
C445 C446 1.394 . S
C446 C445 1.394 . S
C446 C447 1.378 . S
C446 H474 0.931 . S
C447 C442 1.377 . S
C447 C446 1.378 . S
C447 H475 0.931 . S
C448 O462 1.259 . S
C448 O463 1.270 . S
C449 O464 1.251 . S
C449 O465 1.251 . S
C450 Eu451 2.835 1_556 S
C450 C452 1.500 . S
C450 O466 1.257 1_556 S
C450 O467 1.260 1_556 S
Eu451 C450 2.835 1_554 S
Eu451 O463 2.355 . S
Eu451 O465 2.374 . S
Eu451 O466 2.473 . S
Eu451 O467 2.480 . S
Eu451 O468 2.430 . S
Eu451 O469 2.670 . S
Eu451 O470 2.394 . S
C452 C450 1.500 . S
C452 C453 1.377 . S
C452 C457 1.377 . S
C453 C452 1.377 . S
C453 C454 1.395 . S
C453 H476 0.931 . S
C454 C453 1.395 . S
C454 C455 1.383 . S
C454 H477 0.931 . S
C455 C454 1.383 . S
C455 C456 1.394 . S
C456 C455 1.394 . S
C456 C457 1.378 . S
C456 H478 0.931 . S
C457 C452 1.377 . S
C457 C456 1.378 . S
C457 H479 0.931 . S
C458 O468 1.259 . S
C458 O469 1.270 . S
C459 O470 1.251 . S
C459 O471 1.251 . S
O460 C440 1.257 . S
O460 Eu441 2.473 . S
O461 C440 1.260 . S
O461 Eu441 2.480 . S
O462 Eu441 2.430 . S
O462 C448 1.259 . S
O463 Eu441 2.670 . S
O463 C448 1.270 . S
O463 Eu451 2.355 . S
O464 Eu441 2.394 . S
O464 C449 1.251 . S
O465 C449 1.251 . S
O465 Eu451 2.374 . S
O466 C450 1.257 1_554 S
O466 Eu451 2.473 . S
O467 C450 1.260 1_554 S
O467 Eu451 2.480 . S
O468 Eu451 2.430 . S
O468 C458 1.259 . S
O469 Eu441 2.355 . S
O469 Eu451 2.670 . S
O469 C458 1.270 . S
O470 Eu451 2.394 . S
O470 C459 1.251 . S
O471 Eu441 2.374 . S
O471 C459 1.251 . S
H472 C443 0.931 . S
H473 C444 0.931 . S
H474 C446 0.931 . S
H475 C447 0.931 . S
H476 C453 0.931 . S
H477 C454 0.931 . S
H478 C456 0.931 . S
H479 C457 0.931 . S
C480 Eu481 2.835 . S
C480 C482 1.500 . S
C480 O500 1.257 . S
C480 O501 1.260 . S
Eu481 C480 2.835 . S
Eu481 O500 2.473 . S
Eu481 O501 2.480 . S
Eu481 O502 2.430 . S
Eu481 O503 2.670 . S
Eu481 O504 2.394 . S
Eu481 O509 2.355 . S
Eu481 O511 2.374 . S
C482 C480 1.500 . S
C482 C483 1.377 . S
C482 C487 1.377 . S
C483 C482 1.377 . S
C483 C484 1.395 . S
C483 H512 0.931 . S
C484 C483 1.395 . S
C484 C485 1.383 . S
C484 H513 0.931 . S
C485 C484 1.383 . S
C485 C486 1.394 . S
C486 C485 1.394 . S
C486 C487 1.378 . S
C486 H514 0.931 . S
C487 C482 1.377 . S
C487 C486 1.378 . S
C487 H515 0.931 . S
C488 O502 1.259 . S
C488 O503 1.270 . S
C489 O504 1.251 . S
C489 O505 1.251 . S
C490 Eu491 2.835 1_556 S
C490 C492 1.500 . S
C490 O506 1.257 1_556 S
C490 O507 1.260 1_556 S
Eu491 C490 2.835 1_554 S
Eu491 O503 2.355 . S
Eu491 O505 2.374 . S
Eu491 O506 2.473 . S
Eu491 O507 2.480 . S
Eu491 O508 2.430 . S
Eu491 O509 2.670 . S
Eu491 O510 2.394 . S
C492 C490 1.500 . S
C492 C493 1.377 . S
C492 C497 1.377 . S
C493 C492 1.377 . S
C493 C494 1.395 . S
C493 H516 0.931 . S
C494 C493 1.395 . S
C494 C495 1.383 . S
C494 H517 0.931 . S
C495 C494 1.383 . S
C495 C496 1.394 . S
C496 C495 1.394 . S
C496 C497 1.378 . S
C496 H518 0.931 . S
C497 C492 1.377 . S
C497 C496 1.378 . S
C497 H519 0.931 . S
C498 O508 1.259 . S
C498 O509 1.270 . S
C499 O510 1.251 . S
C499 O511 1.251 . S
O500 C480 1.257 . S
O500 Eu481 2.473 . S
O501 C480 1.260 . S
O501 Eu481 2.480 . S
O502 Eu481 2.430 . S
O502 C488 1.259 . S
O503 Eu481 2.670 . S
O503 C488 1.270 . S
O503 Eu491 2.355 . S
O504 Eu481 2.394 . S
O504 C489 1.251 . S
O505 C489 1.251 . S
O505 Eu491 2.374 . S
O506 C490 1.257 1_554 S
O506 Eu491 2.473 . S
O507 C490 1.260 1_554 S
O507 Eu491 2.480 . S
O508 Eu491 2.430 . S
O508 C498 1.259 . S
O509 Eu481 2.355 . S
O509 Eu491 2.670 . S
O509 C498 1.270 . S
O510 Eu491 2.394 . S
O510 C499 1.251 . S
O511 Eu481 2.374 . S
O511 C499 1.251 . S
H512 C483 0.931 . S
H513 C484 0.931 . S
H514 C486 0.931 . S
H515 C487 0.931 . S
H516 C493 0.931 . S
H517 C494 0.931 . S
H518 C496 0.931 . S
H519 C497 0.931 . S
C520 Eu521 2.835 . S
C520 C522 1.500 1_556 S
C520 O540 1.257 . S
C520 O541 1.260 . S
Eu521 C520 2.835 . S
Eu521 O540 2.473 . S
Eu521 O541 2.480 . S
Eu521 O542 2.430 . S
Eu521 O543 2.670 . S
Eu521 O544 2.394 . S
Eu521 O549 2.355 . S
Eu521 O551 2.374 . S
C522 C520 1.500 1_554 S
C522 C523 1.377 . S
C522 C527 1.377 . S
C523 C522 1.377 . S
C523 C524 1.395 . S
C523 H552 0.931 . S
C524 C523 1.395 . S
C524 C525 1.383 . S
C524 H553 0.931 . S
C525 C524 1.383 . S
C525 C526 1.394 . S
C526 C525 1.394 . S
C526 C527 1.378 . S
C526 H554 0.931 . S
C527 C522 1.377 . S
C527 C526 1.378 . S
C527 H555 0.931 . S
C528 O542 1.259 . S
C528 O543 1.270 . S
C529 O544 1.251 . S
C529 O545 1.251 . S
C530 Eu531 2.835 . S
C530 C532 1.500 . S
C530 O546 1.257 . S
C530 O547 1.260 . S
Eu531 C530 2.835 . S
Eu531 O543 2.355 . S
Eu531 O545 2.374 . S
Eu531 O546 2.473 . S
Eu531 O547 2.480 . S
Eu531 O548 2.430 . S
Eu531 O549 2.670 . S
Eu531 O550 2.394 . S
C532 C530 1.500 . S
C532 C533 1.377 . S
C532 C537 1.377 . S
C533 C532 1.377 . S
C533 C534 1.395 . S
C533 H556 0.931 . S
C534 C533 1.395 . S
C534 C535 1.383 . S
C534 H557 0.931 . S
C535 C534 1.383 . S
C535 C536 1.394 . S
C536 C535 1.394 . S
C536 C537 1.378 . S
C536 H558 0.931 . S
C537 C532 1.377 . S
C537 C536 1.378 . S
C537 H559 0.931 . S
C538 O548 1.259 . S
C538 O549 1.270 . S
C539 O550 1.251 . S
C539 O551 1.251 . S
O540 C520 1.257 . S
O540 Eu521 2.473 . S
O541 C520 1.260 . S
O541 Eu521 2.480 . S
O542 Eu521 2.430 . S
O542 C528 1.259 . S
O543 Eu521 2.670 . S
O543 C528 1.270 . S
O543 Eu531 2.355 . S
O544 Eu521 2.394 . S
O544 C529 1.251 . S
O545 C529 1.251 . S
O545 Eu531 2.374 . S
O546 C530 1.257 . S
O546 Eu531 2.473 . S
O547 C530 1.260 . S
O547 Eu531 2.480 . S
O548 Eu531 2.430 . S
O548 C538 1.259 . S
O549 Eu521 2.355 . S
O549 Eu531 2.670 . S
O549 C538 1.270 . S
O550 Eu531 2.394 . S
O550 C539 1.251 . S
O551 Eu521 2.374 . S
O551 C539 1.251 . S
H552 C523 0.931 . S
H553 C524 0.931 . S
H554 C526 0.931 . S
H555 C527 0.931 . S
H556 C533 0.931 . S
H557 C534 0.931 . S
H558 C536 0.931 . S
H559 C537 0.931 . S
C560 Eu561 2.835 . S
C560 C562 1.500 . S
C560 O580 1.257 . S
C560 O581 1.260 . S
Eu561 C560 2.835 . S
Eu561 O580 2.473 . S
Eu561 O581 2.480 . S
Eu561 O582 2.430 . S
Eu561 O583 2.670 . S
Eu561 O584 2.394 . S
Eu561 O589 2.355 . S
Eu561 O591 2.374 . S
C562 C560 1.500 . S
C562 C563 1.377 . S
C562 C567 1.377 . S
C563 C562 1.377 . S
C563 C564 1.395 . S
C563 H592 0.931 . S
C564 C563 1.395 . S
C564 C565 1.383 . S
C564 H593 0.931 . S
C565 C564 1.383 . S
C565 C566 1.394 . S
C566 C565 1.394 . S
C566 C567 1.378 . S
C566 H594 0.931 . S
C567 C562 1.377 . S
C567 C566 1.378 . S
C567 H595 0.931 . S
C568 O582 1.259 . S
C568 O583 1.270 . S
C569 O584 1.251 . S
C569 O585 1.251 . S
C570 Eu571 2.835 . S
C570 C572 1.500 . S
C570 O586 1.257 . S
C570 O587 1.260 . S
Eu571 C570 2.835 . S
Eu571 O583 2.355 . S
Eu571 O585 2.374 . S
Eu571 O586 2.473 . S
Eu571 O587 2.480 . S
Eu571 O588 2.430 . S
Eu571 O589 2.670 . S
Eu571 O590 2.394 . S
C572 C570 1.500 . S
C572 C573 1.377 . S
C572 C577 1.377 . S
C573 C572 1.377 . S
C573 C574 1.395 . S
C573 H596 0.931 . S
C574 C573 1.395 . S
C574 C575 1.383 . S
C574 H597 0.931 . S
C575 C574 1.383 . S
C575 C576 1.394 . S
C576 C575 1.394 . S
C576 C577 1.378 . S
C576 H598 0.931 . S
C577 C572 1.377 . S
C577 C576 1.378 . S
C577 H599 0.931 . S
C578 O588 1.259 . S
C578 O589 1.270 . S
C579 O590 1.251 . S
C579 O591 1.251 . S
O580 C560 1.257 . S
O580 Eu561 2.473 . S
O581 C560 1.260 . S
O581 Eu561 2.480 . S
O582 Eu561 2.430 . S
O582 C568 1.259 . S
O583 Eu561 2.670 . S
O583 C568 1.270 . S
O583 Eu571 2.355 . S
O584 Eu561 2.394 . S
O584 C569 1.251 . S
O585 C569 1.251 . S
O585 Eu571 2.374 . S
O586 C570 1.257 . S
O586 Eu571 2.473 . S
O587 C570 1.260 . S
O587 Eu571 2.480 . S
O588 Eu571 2.430 . S
O588 C578 1.259 . S
O589 Eu561 2.355 . S
O589 Eu571 2.670 . S
O589 C578 1.270 . S
O590 Eu571 2.394 . S
O590 C579 1.251 . S
O591 Eu561 2.374 . S
O591 C579 1.251 . S
H592 C563 0.931 . S
H593 C564 0.931 . S
H594 C566 0.931 . S
H595 C567 0.931 . S
H596 C573 0.931 . S
H597 C574 0.931 . S
H598 C576 0.931 . S
H599 C577 0.931 . S
C600 Eu601 2.835 . S
C600 C602 1.500 . S
C600 O620 1.257 . S
C600 O621 1.260 . S
Eu601 C600 2.835 . S
Eu601 O620 2.473 . S
Eu601 O621 2.480 . S
Eu601 O622 2.430 . S
Eu601 O623 2.670 . S
Eu601 O624 2.394 . S
Eu601 O629 2.355 . S
Eu601 O631 2.374 . S
C602 C600 1.500 . S
C602 C603 1.377 . S
C602 C607 1.377 . S
C603 C602 1.377 . S
C603 C604 1.395 . S
C603 H632 0.931 . S
C604 C603 1.395 . S
C604 C605 1.383 1_554 S
C604 H633 0.931 1_554 S
C605 C604 1.383 1_556 S
C605 C606 1.394 1_556 S
C606 C605 1.394 1_554 S
C606 C607 1.378 . S
C606 H634 0.931 . S
C607 C602 1.377 . S
C607 C606 1.378 . S
C607 H635 0.931 . S
C608 O622 1.259 . S
C608 O623 1.270 . S
C609 O624 1.251 . S
C609 O625 1.251 . S
C610 Eu611 2.835 . S
C610 C612 1.500 . S
C610 O626 1.257 . S
C610 O627 1.260 . S
Eu611 C610 2.835 . S
Eu611 O623 2.355 . S
Eu611 O625 2.374 . S
Eu611 O626 2.473 . S
Eu611 O627 2.480 . S
Eu611 O628 2.430 . S
Eu611 O629 2.670 . S
Eu611 O630 2.394 . S
C612 C610 1.500 . S
C612 C613 1.377 . S
C612 C617 1.377 . S
C613 C612 1.377 . S
C613 C614 1.395 . S
C613 H636 0.931 . S
C614 C613 1.395 . S
C614 C615 1.383 . S
C614 H637 0.931 . S
C615 C614 1.383 . S
C615 C616 1.394 . S
C616 C615 1.394 . S
C616 C617 1.378 . S
C616 H638 0.931 . S
C617 C612 1.377 . S
C617 C616 1.378 . S
C617 H639 0.931 . S
C618 O628 1.259 . S
C618 O629 1.270 . S
C619 O630 1.251 . S
C619 O631 1.251 . S
O620 C600 1.257 . S
O620 Eu601 2.473 . S
O621 C600 1.260 . S
O621 Eu601 2.480 . S
O622 Eu601 2.430 . S
O622 C608 1.259 . S
O623 Eu601 2.670 . S
O623 C608 1.270 . S
O623 Eu611 2.355 . S
O624 Eu601 2.394 . S
O624 C609 1.251 . S
O625 C609 1.251 . S
O625 Eu611 2.374 . S
O626 C610 1.257 . S
O626 Eu611 2.473 . S
O627 C610 1.260 . S
O627 Eu611 2.480 . S
O628 Eu611 2.430 . S
O628 C618 1.259 . S
O629 Eu601 2.355 . S
O629 Eu611 2.670 . S
O629 C618 1.270 . S
O630 Eu611 2.394 . S
O630 C619 1.251 . S
O631 Eu601 2.374 . S
O631 C619 1.251 . S
H632 C603 0.931 . S
H633 C604 0.931 1_556 S
H634 C606 0.931 . S
H635 C607 0.931 . S
H636 C613 0.931 . S
H637 C614 0.931 . S
H638 C616 0.931 . S
H639 C617 0.931 . S
H640 C652 0.930 . S
H641 C654 0.930 . S
H642 C655 0.930 . S
H643 C659 0.959 . S
H644 C659 0.959 . S
H645 C659 0.961 . S
H646 C660 0.960 . S
H647 C660 0.961 . S
H648 C660 0.959 . S
H649 C663 0.929 . S
H650 C664 0.931 . S
H651 C666 0.930 . S
C652 H640 0.930 . S
C652 C653 1.399 . S
C652 C657 1.399 . S
C653 C652 1.399 . S
C653 C654 1.376 . S
C654 H641 0.930 . S
C654 C653 1.376 . S
C654 C655 1.388 . S
C655 H642 0.930 . S
C655 C654 1.388 . S
C655 C656 1.390 . S
C656 C655 1.390 . S
C656 C657 1.394 . S
C656 C662 1.465 . S
C657 C652 1.399 . S
C657 C656 1.394 . S
C657 C658 1.516 . S
C658 C657 1.516 . S
C658 C659 1.502 . S
C658 C660 1.561 . S
C658 C661 1.526 . S
C659 H643 0.959 . S
C659 H644 0.959 . S
C659 H645 0.961 . S
C659 C658 1.502 . S
C660 H646 0.960 . S
C660 H647 0.961 . S
C660 H648 0.959 . S
C660 C658 1.561 . S
C661 C658 1.526 . S
C661 C662 1.396 . S
C661 C666 1.390 . S
C662 C656 1.465 . S
C662 C661 1.396 . S
C662 C663 1.399 . S
C663 H649 0.929 . S
C663 C662 1.399 . S
C663 C664 1.385 . S
C664 H650 0.931 . S
C664 C663 1.385 . S
C664 C665 1.389 . S
C665 C664 1.389 . S
C665 C666 1.387 . S
C666 H651 0.930 . S
C666 C661 1.390 . S
C666 C665 1.387 . S
H667 C679 0.930 . S
H668 C681 0.930 . S
H669 C682 0.930 . S
H670 C686 0.959 . S
H671 C686 0.959 . S
H672 C686 0.961 . S
H673 C687 0.960 . S
H674 C687 0.961 . S
H675 C687 0.959 . S
H676 C690 0.929 . S
H677 C691 0.931 . S
H678 C693 0.930 . S
C679 H667 0.930 . S
C679 C680 1.399 . S
C679 C684 1.399 . S
C680 C679 1.399 . S
C680 C681 1.376 . S
C681 H668 0.930 . S
C681 C680 1.376 . S
C681 C682 1.388 . S
C682 H669 0.930 . S
C682 C681 1.388 . S
C682 C683 1.390 . S
C683 C682 1.390 . S
C683 C684 1.394 . S
C683 C689 1.465 . S
C684 C679 1.399 . S
C684 C683 1.394 . S
C684 C685 1.516 . S
C685 C684 1.516 . S
C685 C686 1.502 . S
C685 C687 1.561 . S
C685 C688 1.526 . S
C686 H670 0.959 . S
C686 H671 0.959 . S
C686 H672 0.961 . S
C686 C685 1.502 . S
C687 H673 0.960 . S
C687 H674 0.961 . S
C687 H675 0.959 . S
C687 C685 1.561 . S
C688 C685 1.526 . S
C688 C689 1.396 . S
C688 C693 1.390 . S
C689 C683 1.465 . S
C689 C688 1.396 . S
C689 C690 1.399 . S
C690 H676 0.929 . S
C690 C689 1.399 . S
C690 C691 1.385 . S
C691 H677 0.931 . S
C691 C690 1.385 . S
C691 C692 1.389 . S
C692 C691 1.389 . S
C692 C693 1.387 . S
C693 H678 0.930 . S
C693 C688 1.390 . S
C693 C692 1.387 . S
H694 C706 0.930 . S
H695 C708 0.930 . S
H696 C709 0.930 . S
H697 C713 0.959 . S
H698 C713 0.959 . S
H699 C713 0.961 . S
H700 C714 0.960 . S
H701 C714 0.961 . S
H702 C714 0.959 . S
H703 C717 0.929 . S
H704 C718 0.931 . S
H705 C720 0.930 . S
C706 H694 0.930 . S
C706 C707 1.399 . S
C706 C711 1.399 . S
C707 C706 1.399 . S
C707 C708 1.376 . S
C708 H695 0.930 . S
C708 C707 1.376 . S
C708 C709 1.388 . S
C709 H696 0.930 . S
C709 C708 1.388 . S
C709 C710 1.390 . S
C710 C709 1.390 . S
C710 C711 1.394 . S
C710 C716 1.465 . S
C711 C706 1.399 . S
C711 C710 1.394 . S
C711 C712 1.516 . S
C712 C711 1.516 . S
C712 C713 1.502 . S
C712 C714 1.561 . S
C712 C715 1.526 . S
C713 H697 0.959 . S
C713 H698 0.959 . S
C713 H699 0.961 . S
C713 C712 1.502 . S
C714 H700 0.960 . S
C714 H701 0.961 . S
C714 H702 0.959 . S
C714 C712 1.561 . S
C715 C712 1.526 . S
C715 C716 1.396 . S
C715 C720 1.390 . S
C716 C710 1.465 . S
C716 C715 1.396 . S
C716 C717 1.399 . S
C717 H703 0.929 . S
C717 C716 1.399 . S
C717 C718 1.385 . S
C718 H704 0.931 . S
C718 C717 1.385 . S
C718 C719 1.389 . S
C719 C718 1.389 . S
C719 C720 1.387 . S
C720 H705 0.930 . S
C720 C715 1.390 . S
C720 C719 1.387 . S
H721 C733 0.930 . S
H722 C735 0.930 . S
H723 C736 0.930 . S
H724 C740 0.959 . S
H725 C740 0.959 . S
H726 C740 0.961 . S
H727 C741 0.960 . S
H728 C741 0.961 . S
H729 C741 0.959 . S
H730 C744 0.929 . S
H731 C745 0.931 . S
H732 C747 0.930 . S
C733 H721 0.930 . S
C733 C734 1.399 . S
C733 C738 1.399 . S
C734 C733 1.399 . S
C734 C735 1.376 . S
C735 H722 0.930 . S
C735 C734 1.376 . S
C735 C736 1.388 . S
C736 H723 0.930 . S
C736 C735 1.388 . S
C736 C737 1.390 . S
C737 C736 1.390 . S
C737 C738 1.394 . S
C737 C743 1.465 . S
C738 C733 1.399 . S
C738 C737 1.394 . S
C738 C739 1.516 . S
C739 C738 1.516 . S
C739 C740 1.502 . S
C739 C741 1.561 . S
C739 C742 1.526 . S
C740 H724 0.959 . S
C740 H725 0.959 . S
C740 H726 0.961 . S
C740 C739 1.502 . S
C741 H727 0.960 . S
C741 H728 0.961 . S
C741 H729 0.959 . S
C741 C739 1.561 . S
C742 C739 1.526 . S
C742 C743 1.396 . S
C742 C747 1.390 . S
C743 C737 1.465 . S
C743 C742 1.396 . S
C743 C744 1.399 . S
C744 H730 0.929 . S
C744 C743 1.399 . S
C744 C745 1.385 . S
C745 H731 0.931 . S
C745 C744 1.385 . S
C745 C746 1.389 . S
C746 C745 1.389 . S
C746 C747 1.387 . S
C747 H732 0.930 . S
C747 C742 1.390 . S
C747 C746 1.387 . S
H748 C760 0.930 . S
H749 C762 0.930 . S
H750 C763 0.930 . S
H751 C767 0.959 . S
H752 C767 0.959 . S
H753 C767 0.961 . S
H754 C768 0.960 . S
H755 C768 0.961 . S
H756 C768 0.959 . S
H757 C771 0.929 . S
H758 C772 0.931 . S
H759 C774 0.930 . S
C760 H748 0.930 . S
C760 C761 1.399 . S
C760 C765 1.399 . S
C761 C760 1.399 . S
C761 C762 1.376 . S
C762 H749 0.930 . S
C762 C761 1.376 . S
C762 C763 1.388 . S
C763 H750 0.930 . S
C763 C762 1.388 . S
C763 C764 1.390 . S
C764 C763 1.390 . S
C764 C765 1.394 . S
C764 C770 1.465 . S
C765 C760 1.399 . S
C765 C764 1.394 . S
C765 C766 1.516 . S
C766 C765 1.516 . S
C766 C767 1.502 . S
C766 C768 1.561 . S
C766 C769 1.526 . S
C767 H751 0.959 . S
C767 H752 0.959 . S
C767 H753 0.961 . S
C767 C766 1.502 . S
C768 H754 0.960 . S
C768 H755 0.961 . S
C768 H756 0.959 . S
C768 C766 1.561 . S
C769 C766 1.526 . S
C769 C770 1.396 . S
C769 C774 1.390 . S
C770 C764 1.465 . S
C770 C769 1.396 . S
C770 C771 1.399 . S
C771 H757 0.929 . S
C771 C770 1.399 . S
C771 C772 1.385 . S
C772 H758 0.931 . S
C772 C771 1.385 . S
C772 C773 1.389 . S
C773 C772 1.389 . S
C773 C774 1.387 . S
C774 H759 0.930 . S
C774 C769 1.390 . S
C774 C773 1.387 . S
H775 C787 0.930 . S
H776 C789 0.930 . S
H777 C790 0.930 . S
H778 C794 0.959 . S
H779 C794 0.959 . S
H780 C794 0.961 . S
H781 C795 0.960 . S
H782 C795 0.961 . S
H783 C795 0.959 . S
H784 C798 0.929 . S
H785 C799 0.931 . S
H786 C801 0.930 . S
C787 H775 0.930 . S
C787 C788 1.399 . S
C787 C792 1.399 . S
C788 C787 1.399 . S
C788 C789 1.376 . S
C789 H776 0.930 . S
C789 C788 1.376 . S
C789 C790 1.388 . S
C790 H777 0.930 . S
C790 C789 1.388 . S
C790 C791 1.390 . S
C791 C790 1.390 . S
C791 C792 1.394 . S
C791 C797 1.465 . S
C792 C787 1.399 . S
C792 C791 1.394 . S
C792 C793 1.516 . S
C793 C792 1.516 . S
C793 C794 1.502 . S
C793 C795 1.561 . S
C793 C796 1.526 . S
C794 H778 0.959 . S
C794 H779 0.959 . S
C794 H780 0.961 . S
C794 C793 1.502 . S
C795 H781 0.960 . S
C795 H782 0.961 . S
C795 H783 0.959 . S
C795 C793 1.561 . S
C796 C793 1.526 . S
C796 C797 1.396 . S
C796 C801 1.390 . S
C797 C791 1.465 . S
C797 C796 1.396 . S
C797 C798 1.399 . S
C798 H784 0.929 . S
C798 C797 1.399 . S
C798 C799 1.385 . S
C799 H785 0.931 . S
C799 C798 1.385 . S
C799 C800 1.389 . S
C800 C799 1.389 . S
C800 C801 1.387 . S
C801 H786 0.930 . S
C801 C796 1.390 . S
C801 C800 1.387 . S
H802 C814 0.930 . S
H803 C816 0.930 . S
H804 C817 0.930 . S
H805 C821 0.959 . S
H806 C821 0.959 . S
H807 C821 0.961 . S
H808 C822 0.960 . S
H809 C822 0.961 . S
H810 C822 0.959 . S
H811 C825 0.929 . S
H812 C826 0.931 . S
H813 C828 0.930 . S
C814 H802 0.930 . S
C814 C815 1.399 . S
C814 C819 1.399 . S
C815 C814 1.399 . S
C815 C816 1.376 . S
C816 H803 0.930 . S
C816 C815 1.376 . S
C816 C817 1.388 . S
C817 H804 0.930 . S
C817 C816 1.388 . S
C817 C818 1.390 . S
C818 C817 1.390 . S
C818 C819 1.394 . S
C818 C824 1.465 . S
C819 C814 1.399 . S
C819 C818 1.394 . S
C819 C820 1.516 . S
C820 C819 1.516 . S
C820 C821 1.502 . S
C820 C822 1.561 . S
C820 C823 1.526 . S
C821 H805 0.959 . S
C821 H806 0.959 . S
C821 H807 0.961 . S
C821 C820 1.502 . S
C822 H808 0.960 . S
C822 H809 0.961 . S
C822 H810 0.959 . S
C822 C820 1.561 . S
C823 C820 1.526 . S
C823 C824 1.396 . S
C823 C828 1.390 . S
C824 C818 1.465 . S
C824 C823 1.396 . S
C824 C825 1.399 . S
C825 H811 0.929 . S
C825 C824 1.399 . S
C825 C826 1.385 . S
C826 H812 0.931 . S
C826 C825 1.385 . S
C826 C827 1.389 . S
C827 C826 1.389 . S
C827 C828 1.387 . S
C828 H813 0.930 . S
C828 C823 1.390 . S
C828 C827 1.387 . S
H829 C841 0.930 . S
H830 C843 0.930 . S
H831 C844 0.930 . S
H832 C848 0.959 . S
H833 C848 0.959 . S
H834 C848 0.961 . S
H835 C849 0.960 . S
H836 C849 0.961 . S
H837 C849 0.959 . S
H838 C852 0.929 . S
H839 C853 0.931 . S
H840 C855 0.930 . S
C841 H829 0.930 . S
C841 C842 1.399 . S
C841 C846 1.399 . S
C842 C841 1.399 . S
C842 C843 1.376 . S
C843 H830 0.930 . S
C843 C842 1.376 . S
C843 C844 1.388 . S
C844 H831 0.930 . S
C844 C843 1.388 . S
C844 C845 1.390 . S
C845 C844 1.390 . S
C845 C846 1.394 . S
C845 C851 1.465 . S
C846 C841 1.399 . S
C846 C845 1.394 . S
C846 C847 1.516 . S
C847 C846 1.516 . S
C847 C848 1.502 . S
C847 C849 1.561 . S
C847 C850 1.526 . S
C848 H832 0.959 . S
C848 H833 0.959 . S
C848 H834 0.961 . S
C848 C847 1.502 . S
C849 H835 0.960 . S
C849 H836 0.961 . S
C849 H837 0.959 . S
C849 C847 1.561 . S
C850 C847 1.526 . S
C850 C851 1.396 . S
C850 C855 1.390 . S
C851 C845 1.465 . S
C851 C850 1.396 . S
C851 C852 1.399 . S
C852 H838 0.929 . S
C852 C851 1.399 . S
C852 C853 1.385 . S
C853 H839 0.931 . S
C853 C852 1.385 . S
C853 C854 1.389 . S
C854 C853 1.389 . S
C854 C855 1.387 . S
C855 H840 0.930 . S
C855 C850 1.390 . S
C855 C854 1.387 . S
H856 C868 0.930 . S
H857 C870 0.930 . S
H858 C871 0.930 . S
H859 C875 0.959 . S
H860 C875 0.959 . S
H861 C875 0.961 . S
H862 C876 0.960 . S
H863 C876 0.961 . S
H864 C876 0.959 . S
H865 C879 0.929 . S
H866 C880 0.931 . S
H867 C882 0.930 . S
C868 H856 0.930 . S
C868 C869 1.399 . S
C868 C873 1.399 . S
C869 C868 1.399 . S
C869 C870 1.376 . S
C870 H857 0.930 . S
C870 C869 1.376 . S
C870 C871 1.388 . S
C871 H858 0.930 . S
C871 C870 1.388 . S
C871 C872 1.390 . S
C872 C871 1.390 . S
C872 C873 1.394 . S
C872 C878 1.465 . S
C873 C868 1.399 . S
C873 C872 1.394 . S
C873 C874 1.516 . S
C874 C873 1.516 . S
C874 C875 1.502 . S
C874 C876 1.561 . S
C874 C877 1.526 . S
C875 H859 0.959 . S
C875 H860 0.959 . S
C875 H861 0.961 . S
C875 C874 1.502 . S
C876 H862 0.960 . S
C876 H863 0.961 . S
C876 H864 0.959 . S
C876 C874 1.561 . S
C877 C874 1.526 . S
C877 C878 1.396 . S
C877 C882 1.390 . S
C878 C872 1.465 . S
C878 C877 1.396 . S
C878 C879 1.399 . S
C879 H865 0.929 . S
C879 C878 1.399 . S
C879 C880 1.385 . S
C880 H866 0.931 . S
C880 C879 1.385 . S
C880 C881 1.389 . S
C881 C880 1.389 . S
C881 C882 1.387 . S
C882 H867 0.930 . S
C882 C877 1.390 . S
C882 C881 1.387 . S
H883 C895 0.930 . S
H884 C897 0.930 . S
H885 C898 0.930 . S
H886 C902 0.959 . S
H887 C902 0.959 . S
H888 C902 0.961 . S
H889 C903 0.960 . S
H890 C903 0.961 . S
H891 C903 0.959 . S
H892 C906 0.929 . S
H893 C907 0.931 . S
H894 C909 0.930 . S
C895 H883 0.930 . S
C895 C896 1.399 . S
C895 C900 1.399 . S
C896 C895 1.399 . S
C896 C897 1.376 . S
C897 H884 0.930 . S
C897 C896 1.376 . S
C897 C898 1.388 . S
C898 H885 0.930 . S
C898 C897 1.388 . S
C898 C899 1.390 . S
C899 C898 1.390 . S
C899 C900 1.394 . S
C899 C905 1.465 . S
C900 C895 1.399 . S
C900 C899 1.394 . S
C900 C901 1.516 . S
C901 C900 1.516 . S
C901 C902 1.502 . S
C901 C903 1.561 . S
C901 C904 1.526 . S
C902 H886 0.959 . S
C902 H887 0.959 . S
C902 H888 0.961 . S
C902 C901 1.502 . S
C903 H889 0.960 . S
C903 H890 0.961 . S
C903 H891 0.959 . S
C903 C901 1.561 . S
C904 C901 1.526 . S
C904 C905 1.396 . S
C904 C909 1.390 . S
C905 C899 1.465 . S
C905 C904 1.396 . S
C905 C906 1.399 . S
C906 H892 0.929 . S
C906 C905 1.399 . S
C906 C907 1.385 . S
C907 H893 0.931 . S
C907 C906 1.385 . S
C907 C908 1.389 . S
C908 C907 1.389 . S
C908 C909 1.387 . S
C909 H894 0.930 . S
C909 C904 1.390 . S
C909 C908 1.387 . S
H910 C922 0.930 . S
H911 C924 0.930 . S
H912 C925 0.930 . S
H913 C929 0.959 . S
H914 C929 0.959 . S
H915 C929 0.961 . S
H916 C930 0.960 . S
H917 C930 0.961 . S
H918 C930 0.959 . S
H919 C933 0.929 . S
H920 C934 0.931 . S
H921 C936 0.930 . S
C922 H910 0.930 . S
C922 C923 1.399 . S
C922 C927 1.399 . S
C923 C922 1.399 . S
C923 C924 1.376 . S
C924 H911 0.930 . S
C924 C923 1.376 . S
C924 C925 1.388 . S
C925 H912 0.930 . S
C925 C924 1.388 . S
C925 C926 1.390 . S
C926 C925 1.390 . S
C926 C927 1.394 . S
C926 C932 1.465 . S
C927 C922 1.399 . S
C927 C926 1.394 . S
C927 C928 1.516 . S
C928 C927 1.516 . S
C928 C929 1.502 . S
C928 C930 1.561 . S
C928 C931 1.526 . S
C929 H913 0.959 . S
C929 H914 0.959 . S
C929 H915 0.961 . S
C929 C928 1.502 . S
C930 H916 0.960 . S
C930 H917 0.961 . S
C930 H918 0.959 . S
C930 C928 1.561 . S
C931 C928 1.526 . S
C931 C932 1.396 . S
C931 C936 1.390 . S
C932 C926 1.465 . S
C932 C931 1.396 . S
C932 C933 1.399 . S
C933 H919 0.929 . S
C933 C932 1.399 . S
C933 C934 1.385 . S
C934 H920 0.931 . S
C934 C933 1.385 . S
C934 C935 1.389 . S
C935 C934 1.389 . S
C935 C936 1.387 . S
C936 H921 0.930 . S
C936 C931 1.390 . S
C936 C935 1.387 . S
H937 C949 0.930 . S
H938 C951 0.930 . S
H939 C952 0.930 . S
H940 C956 0.959 . S
H941 C956 0.959 . S
H942 C956 0.961 . S
H943 C957 0.960 . S
H944 C957 0.961 . S
H945 C957 0.959 . S
H946 C960 0.929 . S
H947 C961 0.931 . S
H948 C963 0.930 . S
C949 H937 0.930 . S
C949 C950 1.399 . S
C949 C954 1.399 . S
C950 C949 1.399 . S
C950 C951 1.376 . S
C951 H938 0.930 . S
C951 C950 1.376 . S
C951 C952 1.388 . S
C952 H939 0.930 . S
C952 C951 1.388 . S
C952 C953 1.390 . S
C953 C952 1.390 . S
C953 C954 1.394 . S
C953 C959 1.465 . S
C954 C949 1.399 . S
C954 C953 1.394 . S
C954 C955 1.516 . S
C955 C954 1.516 . S
C955 C956 1.502 . S
C955 C957 1.561 . S
C955 C958 1.526 . S
C956 H940 0.959 . S
C956 H941 0.959 . S
C956 H942 0.961 . S
C956 C955 1.502 . S
C957 H943 0.960 . S
C957 H944 0.961 . S
C957 H945 0.959 . S
C957 C955 1.561 . S
C958 C955 1.526 . S
C958 C959 1.396 . S
C958 C963 1.390 . S
C959 C953 1.465 . S
C959 C958 1.396 . S
C959 C960 1.399 . S
C960 H946 0.929 . S
C960 C959 1.399 . S
C960 C961 1.385 . S
C961 H947 0.931 . S
C961 C960 1.385 . S
C961 C962 1.389 . S
C962 C961 1.389 . S
C962 C963 1.387 . S
C963 H948 0.930 . S
C963 C958 1.390 . S
C963 C962 1.387 . S
H964 C976 0.930 . S
H965 C978 0.930 . S
H966 C979 0.930 . S
H967 C983 0.959 . S
H968 C983 0.959 . S
H969 C983 0.961 . S
H970 C984 0.960 . S
H971 C984 0.961 . S
H972 C984 0.959 . S
H973 C987 0.929 . S
H974 C988 0.931 . S
H975 C990 0.930 . S
C976 H964 0.930 . S
C976 C977 1.399 . S
C976 C981 1.399 . S
C977 C976 1.399 . S
C977 C978 1.376 . S
C978 H965 0.930 . S
C978 C977 1.376 . S
C978 C979 1.388 . S
C979 H966 0.930 . S
C979 C978 1.388 . S
C979 C980 1.390 . S
C980 C979 1.390 . S
C980 C981 1.394 . S
C980 C986 1.465 . S
C981 C976 1.399 . S
C981 C980 1.394 . S
C981 C982 1.516 . S
C982 C981 1.516 . S
C982 C983 1.502 . S
C982 C984 1.561 . S
C982 C985 1.526 . S
C983 H967 0.959 . S
C983 H968 0.959 . S
C983 H969 0.961 . S
C983 C982 1.502 . S
C984 H970 0.960 . S
C984 H971 0.961 . S
C984 H972 0.959 . S
C984 C982 1.561 . S
C985 C982 1.526 . S
C985 C986 1.396 . S
C985 C990 1.390 . S
C986 C980 1.465 . S
C986 C985 1.396 . S
C986 C987 1.399 . S
C987 H973 0.929 . S
C987 C986 1.399 . S
C987 C988 1.385 . S
C988 H974 0.931 . S
C988 C987 1.385 . S
C988 C989 1.389 . S
C989 C988 1.389 . S
C989 C990 1.387 . S
C990 H975 0.930 . S
C990 C985 1.390 . S
C990 C989 1.387 . S
H991 C1003 0.930 . S
H992 C1005 0.930 . S
H993 C1006 0.930 . S
H994 C1010 0.959 . S
H995 C1010 0.959 . S
H996 C1010 0.961 . S
H997 C1011 0.960 . S
H998 C1011 0.961 . S
H999 C1011 0.959 . S
H1000 C1014 0.929 . S
H1001 C1015 0.931 . S
H1002 C1017 0.930 . S
C1003 H991 0.930 . S
C1003 C1004 1.399 . S
C1003 C1008 1.399 . S
C1004 C1003 1.399 . S
C1004 C1005 1.376 . S
C1005 H992 0.930 . S
C1005 C1004 1.376 . S
C1005 C1006 1.388 . S
C1006 H993 0.930 . S
C1006 C1005 1.388 . S
C1006 C1007 1.390 . S
C1007 C1006 1.390 . S
C1007 C1008 1.394 . S
C1007 C1013 1.465 . S
C1008 C1003 1.399 . S
C1008 C1007 1.394 . S
C1008 C1009 1.516 . S
C1009 C1008 1.516 . S
C1009 C1010 1.502 . S
C1009 C1011 1.561 . S
C1009 C1012 1.526 . S
C1010 H994 0.959 . S
C1010 H995 0.959 . S
C1010 H996 0.961 . S
C1010 C1009 1.502 . S
C1011 H997 0.960 . S
C1011 H998 0.961 . S
C1011 H999 0.959 . S
C1011 C1009 1.561 . S
C1012 C1009 1.526 . S
C1012 C1013 1.396 . S
C1012 C1017 1.390 . S
C1013 C1007 1.465 . S
C1013 C1012 1.396 . S
C1013 C1014 1.399 . S
C1014 H1000 0.929 . S
C1014 C1013 1.399 . S
C1014 C1015 1.385 . S
C1015 H1001 0.931 . S
C1015 C1014 1.385 . S
C1015 C1016 1.389 . S
C1016 C1015 1.389 . S
C1016 C1017 1.387 . S
C1017 H1002 0.930 . S
C1017 C1012 1.390 . S
C1017 C1016 1.387 . S
H1018 C1030 0.930 . S
H1019 C1032 0.930 . S
H1020 C1033 0.930 . S
H1021 C1037 0.959 . S
H1022 C1037 0.959 . S
H1023 C1037 0.961 . S
H1024 C1038 0.960 . S
H1025 C1038 0.961 . S
H1026 C1038 0.959 . S
H1027 C1041 0.929 . S
H1028 C1042 0.931 . S
H1029 C1044 0.930 . S
C1030 H1018 0.930 . S
C1030 C1031 1.399 . S
C1030 C1035 1.399 . S
C1031 C1030 1.399 . S
C1031 C1032 1.376 . S
C1032 H1019 0.930 . S
C1032 C1031 1.376 . S
C1032 C1033 1.388 . S
C1033 H1020 0.930 . S
C1033 C1032 1.388 . S
C1033 C1034 1.390 . S
C1034 C1033 1.390 . S
C1034 C1035 1.394 . S
C1034 C1040 1.465 . S
C1035 C1030 1.399 . S
C1035 C1034 1.394 . S
C1035 C1036 1.516 . S
C1036 C1035 1.516 . S
C1036 C1037 1.502 . S
C1036 C1038 1.561 . S
C1036 C1039 1.526 . S
C1037 H1021 0.959 . S
C1037 H1022 0.959 . S
C1037 H1023 0.961 . S
C1037 C1036 1.502 . S
C1038 H1024 0.960 . S
C1038 H1025 0.961 . S
C1038 H1026 0.959 . S
C1038 C1036 1.561 . S
C1039 C1036 1.526 . S
C1039 C1040 1.396 . S
C1039 C1044 1.390 . S
C1040 C1034 1.465 . S
C1040 C1039 1.396 . S
C1040 C1041 1.399 . S
C1041 H1027 0.929 . S
C1041 C1040 1.399 . S
C1041 C1042 1.385 . S
C1042 H1028 0.931 . S
C1042 C1041 1.385 . S
C1042 C1043 1.389 . S
C1043 C1042 1.389 . S
C1043 C1044 1.387 . S
C1044 H1029 0.930 . S
C1044 C1039 1.390 . S
C1044 C1043 1.387 . S
H1045 C1057 0.930 . S
H1046 C1059 0.930 . S
H1047 C1060 0.930 . S
H1048 C1064 0.959 . S
H1049 C1064 0.959 . S
H1050 C1064 0.961 . S
H1051 C1065 0.960 . S
H1052 C1065 0.961 . S
H1053 C1065 0.959 . S
H1054 C1068 0.929 . S
H1055 C1069 0.931 . S
H1056 C1071 0.930 . S
C1057 H1045 0.930 . S
C1057 C1058 1.399 . S
C1057 C1062 1.399 . S
C1058 C1057 1.399 . S
C1058 C1059 1.376 . S
C1059 H1046 0.930 . S
C1059 C1058 1.376 . S
C1059 C1060 1.388 . S
C1060 H1047 0.930 . S
C1060 C1059 1.388 . S
C1060 C1061 1.390 . S
C1061 C1060 1.390 . S
C1061 C1062 1.394 . S
C1061 C1067 1.465 . S
C1062 C1057 1.399 . S
C1062 C1061 1.394 . S
C1062 C1063 1.516 . S
C1063 C1062 1.516 . S
C1063 C1064 1.502 . S
C1063 C1065 1.561 . S
C1063 C1066 1.526 . S
C1064 H1048 0.959 . S
C1064 H1049 0.959 . S
C1064 H1050 0.961 . S
C1064 C1063 1.502 . S
C1065 H1051 0.960 . S
C1065 H1052 0.961 . S
C1065 H1053 0.959 . S
C1065 C1063 1.561 . S
C1066 C1063 1.526 . S
C1066 C1067 1.396 . S
C1066 C1071 1.390 . S
C1067 C1061 1.465 . S
C1067 C1066 1.396 . S
C1067 C1068 1.399 . S
C1068 H1054 0.929 . S
C1068 C1067 1.399 . S
C1068 C1069 1.385 . S
C1069 H1055 0.931 . S
C1069 C1068 1.385 . S
C1069 C1070 1.389 . S
C1070 C1069 1.389 . S
C1070 C1071 1.387 . S
C1071 H1056 0.930 . S
C1071 C1066 1.390 . S
C1071 C1070 1.387 . S
H1072 C1084 0.930 . S
H1073 C1086 0.930 . S
H1074 C1087 0.930 . S
H1075 C1091 0.959 . S
H1076 C1091 0.959 . S
H1077 C1091 0.961 . S
H1078 C1092 0.960 . S
H1079 C1092 0.961 . S
H1080 C1092 0.959 . S
H1081 C1095 0.929 . S
H1082 C1096 0.931 . S
H1083 C1098 0.930 . S
C1084 H1072 0.930 . S
C1084 C1085 1.399 . S
C1084 C1089 1.399 . S
C1085 C1084 1.399 . S
C1085 C1086 1.376 . S
C1086 H1073 0.930 . S
C1086 C1085 1.376 . S
C1086 C1087 1.388 . S
C1087 H1074 0.930 . S
C1087 C1086 1.388 . S
C1087 C1088 1.390 . S
C1088 C1087 1.390 . S
C1088 C1089 1.394 . S
C1088 C1094 1.465 . S
C1089 C1084 1.399 . S
C1089 C1088 1.394 . S
C1089 C1090 1.516 . S
C1090 C1089 1.516 . S
C1090 C1091 1.502 . S
C1090 C1092 1.561 . S
C1090 C1093 1.526 . S
C1091 H1075 0.959 . S
C1091 H1076 0.959 . S
C1091 H1077 0.961 . S
C1091 C1090 1.502 . S
C1092 H1078 0.960 . S
C1092 H1079 0.961 . S
C1092 H1080 0.959 . S
C1092 C1090 1.561 . S
C1093 C1090 1.526 . S
C1093 C1094 1.396 . S
C1093 C1098 1.390 . S
C1094 C1088 1.465 . S
C1094 C1093 1.396 . S
C1094 C1095 1.399 . S
C1095 H1081 0.929 . S
C1095 C1094 1.399 . S
C1095 C1096 1.385 . S
C1096 H1082 0.931 . S
C1096 C1095 1.385 . S
C1096 C1097 1.389 . S
C1097 C1096 1.389 . S
C1097 C1098 1.387 . S
C1098 H1083 0.930 . S
C1098 C1093 1.390 . S
C1098 C1097 1.387 . S
H1099 C1111 0.930 . S
H1100 C1113 0.930 . S
H1101 C1114 0.930 . S
H1102 C1118 0.959 . S
H1103 C1118 0.959 . S
H1104 C1118 0.961 . S
H1105 C1119 0.960 . S
H1106 C1119 0.961 . S
H1107 C1119 0.959 . S
H1108 C1122 0.929 . S
H1109 C1123 0.931 . S
H1110 C1125 0.930 . S
C1111 H1099 0.930 . S
C1111 C1112 1.399 . S
C1111 C1116 1.399 . S
C1112 C1111 1.399 . S
C1112 C1113 1.376 . S
C1113 H1100 0.930 . S
C1113 C1112 1.376 . S
C1113 C1114 1.388 . S
C1114 H1101 0.930 . S
C1114 C1113 1.388 . S
C1114 C1115 1.390 . S
C1115 C1114 1.390 . S
C1115 C1116 1.394 . S
C1115 C1121 1.465 . S
C1116 C1111 1.399 . S
C1116 C1115 1.394 . S
C1116 C1117 1.516 . S
C1117 C1116 1.516 . S
C1117 C1118 1.502 . S
C1117 C1119 1.561 . S
C1117 C1120 1.526 . S
C1118 H1102 0.959 . S
C1118 H1103 0.959 . S
C1118 H1104 0.961 . S
C1118 C1117 1.502 . S
C1119 H1105 0.960 . S
C1119 H1106 0.961 . S
C1119 H1107 0.959 . S
C1119 C1117 1.561 . S
C1120 C1117 1.526 . S
C1120 C1121 1.396 . S
C1120 C1125 1.390 . S
C1121 C1115 1.465 . S
C1121 C1120 1.396 . S
C1121 C1122 1.399 . S
C1122 H1108 0.929 . S
C1122 C1121 1.399 . S
C1122 C1123 1.385 . S
C1123 H1109 0.931 . S
C1123 C1122 1.385 . S
C1123 C1124 1.389 . S
C1124 C1123 1.389 . S
C1124 C1125 1.387 . S
C1125 H1110 0.930 . S
C1125 C1120 1.390 . S
C1125 C1124 1.387 . S
H1126 C1138 0.930 . S
H1127 C1140 0.930 . S
H1128 C1141 0.930 . S
H1129 C1145 0.959 . S
H1130 C1145 0.959 . S
H1131 C1145 0.961 . S
H1132 C1146 0.960 . S
H1133 C1146 0.961 . S
H1134 C1146 0.959 . S
H1135 C1149 0.929 . S
H1136 C1150 0.931 . S
H1137 C1152 0.930 . S
C1138 H1126 0.930 . S
C1138 C1139 1.399 . S
C1138 C1143 1.399 . S
C1139 C1138 1.399 . S
C1139 C1140 1.376 . S
C1140 H1127 0.930 . S
C1140 C1139 1.376 . S
C1140 C1141 1.388 . S
C1141 H1128 0.930 . S
C1141 C1140 1.388 . S
C1141 C1142 1.390 . S
C1142 C1141 1.390 . S
C1142 C1143 1.394 . S
C1142 C1148 1.465 . S
C1143 C1138 1.399 . S
C1143 C1142 1.394 . S
C1143 C1144 1.516 . S
C1144 C1143 1.516 . S
C1144 C1145 1.502 . S
C1144 C1146 1.561 . S
C1144 C1147 1.526 . S
C1145 H1129 0.959 . S
C1145 H1130 0.959 . S
C1145 H1131 0.961 . S
C1145 C1144 1.502 . S
C1146 H1132 0.960 . S
C1146 H1133 0.961 . S
C1146 H1134 0.959 . S
C1146 C1144 1.561 . S
C1147 C1144 1.526 . S
C1147 C1148 1.396 . S
C1147 C1152 1.390 . S
C1148 C1142 1.465 . S
C1148 C1147 1.396 . S
C1148 C1149 1.399 . S
C1149 H1135 0.929 . S
C1149 C1148 1.399 . S
C1149 C1150 1.385 . S
C1150 H1136 0.931 . S
C1150 C1149 1.385 . S
C1150 C1151 1.389 . S
C1151 C1150 1.389 . S
C1151 C1152 1.387 . S
C1152 H1137 0.930 . S
C1152 C1147 1.390 . S
C1152 C1151 1.387 . S
H1153 C1165 0.930 . S
H1154 C1167 0.930 . S
H1155 C1168 0.930 . S
H1156 C1172 0.959 . S
H1157 C1172 0.959 1_455 S
H1158 C1172 0.961 . S
H1159 C1173 0.957 . S
H1160 C1173 0.964 1_455 S
H1161 C1173 0.959 1_455 S
H1162 C1176 0.929 . S
H1163 C1177 0.931 . S
H1164 C1179 0.930 . S
C1165 H1153 0.930 . S
C1165 C1166 1.399 . S
C1165 C1170 1.399 . S
C1166 C1165 1.399 . S
C1166 C1167 1.376 . S
C1167 H1154 0.930 . S
C1167 C1166 1.376 . S
C1167 C1168 1.388 . S
C1168 H1155 0.930 . S
C1168 C1167 1.388 . S
C1168 C1169 1.390 . S
C1169 C1168 1.390 . S
C1169 C1170 1.394 . S
C1169 C1175 1.465 1_655 S
C1170 C1165 1.399 . S
C1170 C1169 1.394 . S
C1170 C1171 1.516 . S
C1171 C1170 1.516 . S
C1171 C1172 1.502 . S
C1171 C1173 1.561 . S
C1171 C1174 1.526 1_655 S
C1172 H1156 0.959 . S
C1172 H1157 0.959 1_655 S
C1172 H1158 0.961 . S
C1172 C1171 1.502 . S
C1173 H1159 0.957 . S
C1173 H1160 0.964 1_655 S
C1173 H1161 0.959 1_655 S
C1173 C1171 1.561 . S
C1174 C1171 1.526 1_455 S
C1174 C1175 1.396 . S
C1174 C1179 1.390 . S
C1175 C1169 1.465 1_455 S
C1175 C1174 1.396 . S
C1175 C1176 1.399 . S
C1176 H1162 0.929 . S
C1176 C1175 1.399 . S
C1176 C1177 1.385 . S
C1177 H1163 0.931 . S
C1177 C1176 1.385 . S
C1177 C1178 1.389 . S
C1178 C1177 1.389 . S
C1178 C1179 1.387 . S
C1179 H1164 0.930 . S
C1179 C1174 1.390 . S
C1179 C1178 1.387 . S
H1180 C1192 0.930 . S
H1181 C1194 0.930 . S
H1182 C1195 0.930 . S
H1183 C1199 0.959 . S
H1184 C1199 0.959 . S
H1185 C1199 0.961 . S
H1186 C1200 0.960 . S
H1187 C1200 0.961 . S
H1188 C1200 0.959 . S
H1189 C1203 0.929 . S
H1190 C1204 0.931 . S
H1191 C1206 0.930 . S
C1192 H1180 0.930 . S
C1192 C1193 1.399 . S
C1192 C1197 1.399 . S
C1193 C1192 1.399 . S
C1193 C1194 1.376 . S
C1194 H1181 0.930 . S
C1194 C1193 1.376 . S
C1194 C1195 1.388 . S
C1195 H1182 0.930 . S
C1195 C1194 1.388 . S
C1195 C1196 1.390 . S
C1196 C1195 1.390 . S
C1196 C1197 1.394 . S
C1196 C1202 1.465 . S
C1197 C1192 1.399 . S
C1197 C1196 1.394 . S
C1197 C1198 1.516 . S
C1198 C1197 1.516 . S
C1198 C1199 1.502 . S
C1198 C1200 1.561 . S
C1198 C1201 1.526 . S
C1199 H1183 0.959 . S
C1199 H1184 0.959 . S
C1199 H1185 0.961 . S
C1199 C1198 1.502 . S
C1200 H1186 0.960 . S
C1200 H1187 0.961 . S
C1200 H1188 0.959 . S
C1200 C1198 1.561 . S
C1201 C1198 1.526 . S
C1201 C1202 1.396 . S
C1201 C1206 1.390 . S
C1202 C1196 1.465 . S
C1202 C1201 1.396 . S
C1202 C1203 1.399 . S
C1203 H1189 0.929 . S
C1203 C1202 1.399 . S
C1203 C1204 1.385 . S
C1204 H1190 0.931 . S
C1204 C1203 1.385 . S
C1204 C1205 1.389 . S
C1205 C1204 1.389 . S
C1205 C1206 1.387 . S
C1206 H1191 0.930 . S
C1206 C1201 1.390 . S
C1206 C1205 1.387 . S
H1207 C1219 0.930 . S
H1208 C1221 0.930 . S
H1209 C1222 0.930 . S
H1210 C1226 0.959 . S
H1211 C1226 0.959 1_655 S
H1212 C1226 0.961 . S
H1213 C1227 0.960 1_455 S
H1214 C1227 0.961 . S
H1215 C1227 0.959 . S
H1216 C1230 0.929 . S
H1217 C1231 0.931 . S
H1218 C1233 0.930 . S
C1219 H1207 0.930 . S
C1219 C1220 1.399 . S
C1219 C1224 1.399 . S
C1220 C1219 1.399 . S
C1220 C1221 1.376 . S
C1221 H1208 0.930 . S
C1221 C1220 1.376 . S
C1221 C1222 1.388 . S
C1222 H1209 0.930 . S
C1222 C1221 1.388 . S
C1222 C1223 1.390 . S
C1223 C1222 1.390 . S
C1223 C1224 1.394 . S
C1223 C1229 1.465 1_455 S
C1224 C1219 1.399 . S
C1224 C1223 1.394 . S
C1224 C1225 1.514 . S
C1225 C1224 1.514 . S
C1225 C1226 1.502 . S
C1225 C1227 1.562 1_455 S
C1225 C1228 1.528 1_455 S
C1226 H1210 0.959 . S
C1226 H1211 0.959 1_455 S
C1226 H1212 0.961 . S
C1226 C1225 1.502 . S
C1227 H1213 0.960 1_655 S
C1227 H1214 0.961 . S
C1227 H1215 0.959 . S
C1227 C1225 1.562 1_655 S
C1228 C1225 1.528 1_655 S
C1228 C1229 1.396 . S
C1228 C1233 1.390 . S
C1229 C1223 1.465 1_655 S
C1229 C1228 1.396 . S
C1229 C1230 1.399 . S
C1230 H1216 0.929 . S
C1230 C1229 1.399 . S
C1230 C1231 1.385 . S
C1231 H1217 0.931 . S
C1231 C1230 1.385 . S
C1231 C1232 1.389 . S
C1232 C1231 1.389 . S
C1232 C1233 1.387 . S
C1233 H1218 0.930 . S
C1233 C1228 1.390 . S
C1233 C1232 1.387 . S
H1234 C1246 0.930 . S
H1235 C1248 0.930 . S
H1236 C1249 0.930 . S
H1237 C1253 0.959 . S
H1238 C1253 0.959 . S
H1239 C1253 0.961 . S
H1240 C1254 0.960 . S
H1241 C1254 0.961 . S
H1242 C1254 0.959 . S
H1243 C1257 0.929 . S
H1244 C1258 0.931 . S
H1245 C1260 0.930 . S
C1246 H1234 0.930 . S
C1246 C1247 1.399 . S
C1246 C1251 1.399 . S
C1247 C1246 1.399 . S
C1247 C1248 1.376 . S
C1248 H1235 0.930 . S
C1248 C1247 1.376 . S
C1248 C1249 1.388 . S
C1249 H1236 0.930 . S
C1249 C1248 1.388 . S
C1249 C1250 1.390 . S
C1250 C1249 1.390 . S
C1250 C1251 1.394 . S
C1250 C1256 1.465 . S
C1251 C1246 1.399 . S
C1251 C1250 1.394 . S
C1251 C1252 1.516 . S
C1252 C1251 1.516 . S
C1252 C1253 1.502 . S
C1252 C1254 1.561 . S
C1252 C1255 1.526 . S
C1253 H1237 0.959 . S
C1253 H1238 0.959 . S
C1253 H1239 0.961 . S
C1253 C1252 1.502 . S
C1254 H1240 0.960 . S
C1254 H1241 0.961 . S
C1254 H1242 0.959 . S
C1254 C1252 1.561 . S
C1255 C1252 1.526 . S
C1255 C1256 1.396 . S
C1255 C1260 1.390 . S
C1256 C1250 1.465 . S
C1256 C1255 1.396 . S
C1256 C1257 1.399 . S
C1257 H1243 0.929 . S
C1257 C1256 1.399 . S
C1257 C1258 1.385 . S
C1258 H1244 0.931 . S
C1258 C1257 1.385 . S
C1258 C1259 1.389 . S
C1259 C1258 1.389 . S
C1259 C1260 1.387 . S
C1260 H1245 0.930 . S
C1260 C1255 1.390 . S
C1260 C1259 1.387 . S
H1261 C1273 0.930 . S
H1262 C1275 0.930 . S
H1263 C1276 0.930 . S
H1264 C1280 0.959 . S
H1265 C1280 0.959 . S
H1266 C1280 0.961 . S
H1267 C1281 0.960 . S
H1268 C1281 0.961 . S
H1269 C1281 0.959 . S
H1270 C1284 0.929 . S
H1271 C1285 0.931 . S
H1272 C1287 0.930 . S
C1273 H1261 0.930 . S
C1273 C1274 1.399 . S
C1273 C1278 1.399 . S
C1274 C1273 1.399 . S
C1274 C1275 1.376 . S
C1275 H1262 0.930 . S
C1275 C1274 1.376 . S
C1275 C1276 1.388 . S
C1276 H1263 0.930 . S
C1276 C1275 1.388 . S
C1276 C1277 1.390 . S
C1277 C1276 1.390 . S
C1277 C1278 1.394 . S
C1277 C1283 1.465 . S
C1278 C1273 1.399 . S
C1278 C1277 1.394 . S
C1278 C1279 1.516 . S
C1279 C1278 1.516 . S
C1279 C1280 1.502 . S
C1279 C1281 1.561 . S
C1279 C1282 1.526 . S
C1280 H1264 0.959 . S
C1280 H1265 0.959 . S
C1280 H1266 0.961 . S
C1280 C1279 1.502 . S
C1281 H1267 0.960 . S
C1281 H1268 0.961 . S
C1281 H1269 0.959 . S
C1281 C1279 1.561 . S
C1282 C1279 1.526 . S
C1282 C1283 1.396 . S
C1282 C1287 1.390 . S
C1283 C1277 1.465 . S
C1283 C1282 1.396 . S
C1283 C1284 1.399 . S
C1284 H1270 0.929 . S
C1284 C1283 1.399 . S
C1284 C1285 1.385 . S
C1285 H1271 0.931 . S
C1285 C1284 1.385 . S
C1285 C1286 1.389 . S
C1286 C1285 1.389 . S
C1286 C1287 1.387 . S
C1287 H1272 0.930 . S
C1287 C1282 1.390 . S
C1287 C1286 1.387 . S
H1288 C1300 0.930 . S
H1289 C1302 0.930 . S
H1290 C1303 0.930 . S
H1291 C1307 0.959 . S
H1292 C1307 0.959 . S
H1293 C1307 0.961 . S
H1294 C1308 0.960 . S
H1295 C1308 0.961 . S
H1296 C1308 0.959 . S
H1297 C1311 0.929 . S
H1298 C1312 0.931 . S
H1299 C1314 0.930 . S
C1300 H1288 0.930 . S
C1300 C1301 1.399 . S
C1300 C1305 1.399 . S
C1301 C1300 1.399 . S
C1301 C1302 1.376 . S
C1302 H1289 0.930 . S
C1302 C1301 1.376 . S
C1302 C1303 1.388 . S
C1303 H1290 0.930 . S
C1303 C1302 1.388 . S
C1303 C1304 1.390 . S
C1304 C1303 1.390 . S
C1304 C1305 1.394 . S
C1304 C1310 1.465 . S
C1305 C1300 1.399 . S
C1305 C1304 1.394 . S
C1305 C1306 1.516 . S
C1306 C1305 1.516 . S
C1306 C1307 1.502 . S
C1306 C1308 1.561 . S
C1306 C1309 1.526 . S
C1307 H1291 0.959 . S
C1307 H1292 0.959 . S
C1307 H1293 0.961 . S
C1307 C1306 1.502 . S
C1308 H1294 0.960 . S
C1308 H1295 0.961 . S
C1308 H1296 0.959 . S
C1308 C1306 1.561 . S
C1309 C1306 1.526 . S
C1309 C1310 1.396 . S
C1309 C1314 1.390 . S
C1310 C1304 1.465 . S
C1310 C1309 1.396 . S
C1310 C1311 1.399 . S
C1311 H1297 0.929 . S
C1311 C1310 1.399 . S
C1311 C1312 1.385 . S
C1312 H1298 0.931 . S
C1312 C1311 1.385 . S
C1312 C1313 1.389 . S
C1313 C1312 1.389 . S
C1313 C1314 1.387 . S
C1314 H1299 0.930 . S
C1314 C1309 1.390 . S
C1314 C1313 1.387 . S
H1315 C1327 0.930 . S
H1316 C1329 0.930 . S
H1317 C1330 0.930 . S
H1318 C1334 0.959 . S
H1319 C1334 0.959 . S
H1320 C1334 0.961 . S
H1321 C1335 0.960 . S
H1322 C1335 0.961 . S
H1323 C1335 0.959 . S
H1324 C1338 0.929 . S
H1325 C1339 0.931 . S
H1326 C1341 0.930 . S
C1327 H1315 0.930 . S
C1327 C1328 1.399 . S
C1327 C1332 1.399 . S
C1328 C1327 1.399 . S
C1328 C1329 1.376 . S
C1329 H1316 0.930 . S
C1329 C1328 1.376 . S
C1329 C1330 1.388 . S
C1330 H1317 0.930 . S
C1330 C1329 1.388 . S
C1330 C1331 1.390 . S
C1331 C1330 1.390 . S
C1331 C1332 1.394 . S
C1331 C1337 1.465 . S
C1332 C1327 1.399 . S
C1332 C1331 1.394 . S
C1332 C1333 1.516 . S
C1333 C1332 1.516 . S
C1333 C1334 1.502 . S
C1333 C1335 1.561 . S
C1333 C1336 1.526 . S
C1334 H1318 0.959 . S
C1334 H1319 0.959 . S
C1334 H1320 0.961 . S
C1334 C1333 1.502 . S
C1335 H1321 0.960 . S
C1335 H1322 0.961 . S
C1335 H1323 0.959 . S
C1335 C1333 1.561 . S
C1336 C1333 1.526 . S
C1336 C1337 1.396 . S
C1336 C1341 1.390 . S
C1337 C1331 1.465 . S
C1337 C1336 1.396 . S
C1337 C1338 1.399 . S
C1338 H1324 0.929 . S
C1338 C1337 1.399 . S
C1338 C1339 1.385 . S
C1339 H1325 0.931 . S
C1339 C1338 1.385 . S
C1339 C1340 1.389 . S
C1340 C1339 1.389 . S
C1340 C1341 1.387 . S
C1341 H1326 0.930 . S
C1341 C1336 1.390 . S
C1341 C1340 1.387 . S
H1342 C1354 0.930 . S
H1343 C1356 0.930 . S
H1344 C1357 0.930 . S
H1345 C1361 0.959 . S
H1346 C1361 0.959 . S
H1347 C1361 0.961 . S
H1348 C1362 0.960 . S
H1349 C1362 0.961 . S
H1350 C1362 0.959 . S
H1351 C1365 0.929 . S
H1352 C1366 0.931 . S
H1353 C1368 0.930 . S
C1354 H1342 0.930 . S
C1354 C1355 1.399 . S
C1354 C1359 1.399 . S
C1355 C1354 1.399 . S
C1355 C1356 1.376 . S
C1356 H1343 0.930 . S
C1356 C1355 1.376 . S
C1356 C1357 1.388 . S
C1357 H1344 0.930 . S
C1357 C1356 1.388 . S
C1357 C1358 1.390 . S
C1358 C1357 1.390 . S
C1358 C1359 1.394 . S
C1358 C1364 1.465 . S
C1359 C1354 1.399 . S
C1359 C1358 1.394 . S
C1359 C1360 1.516 . S
C1360 C1359 1.516 . S
C1360 C1361 1.502 . S
C1360 C1362 1.561 . S
C1360 C1363 1.526 . S
C1361 H1345 0.959 . S
C1361 H1346 0.959 . S
C1361 H1347 0.961 . S
C1361 C1360 1.502 . S
C1362 H1348 0.960 . S
C1362 H1349 0.961 . S
C1362 H1350 0.959 . S
C1362 C1360 1.561 . S
C1363 C1360 1.526 . S
C1363 C1364 1.396 . S
C1363 C1368 1.390 . S
C1364 C1358 1.465 . S
C1364 C1363 1.396 . S
C1364 C1365 1.399 . S
C1365 H1351 0.929 . S
C1365 C1364 1.399 . S
C1365 C1366 1.385 . S
C1366 H1352 0.931 . S
C1366 C1365 1.385 . S
C1366 C1367 1.389 . S
C1367 C1366 1.389 . S
C1367 C1368 1.387 . S
C1368 H1353 0.930 . S
C1368 C1363 1.390 . S
C1368 C1367 1.387 . S
H1369 C1381 0.930 . S
H1370 C1383 0.930 . S
H1371 C1384 0.930 . S
H1372 C1388 0.959 . S
H1373 C1388 0.959 . S
H1374 C1388 0.961 . S
H1375 C1389 0.960 . S
H1376 C1389 0.961 . S
H1377 C1389 0.959 . S
H1378 C1392 0.929 . S
H1379 C1393 0.931 . S
H1380 C1395 0.930 . S
C1381 H1369 0.930 . S
C1381 C1382 1.399 . S
C1381 C1386 1.399 . S
C1382 C1381 1.399 . S
C1382 C1383 1.376 . S
C1383 H1370 0.930 . S
C1383 C1382 1.376 . S
C1383 C1384 1.388 . S
C1384 H1371 0.930 . S
C1384 C1383 1.388 . S
C1384 C1385 1.390 . S
C1385 C1384 1.390 . S
C1385 C1386 1.394 . S
C1385 C1391 1.465 . S
C1386 C1381 1.399 . S
C1386 C1385 1.394 . S
C1386 C1387 1.516 . S
C1387 C1386 1.516 . S
C1387 C1388 1.502 . S
C1387 C1389 1.561 . S
C1387 C1390 1.526 . S
C1388 H1372 0.959 . S
C1388 H1373 0.959 . S
C1388 H1374 0.961 . S
C1388 C1387 1.502 . S
C1389 H1375 0.960 . S
C1389 H1376 0.961 . S
C1389 H1377 0.959 . S
C1389 C1387 1.561 . S
C1390 C1387 1.526 . S
C1390 C1391 1.396 . S
C1390 C1395 1.390 . S
C1391 C1385 1.465 . S
C1391 C1390 1.396 . S
C1391 C1392 1.399 . S
C1392 H1378 0.929 . S
C1392 C1391 1.399 . S
C1392 C1393 1.385 . S
C1393 H1379 0.931 . S
C1393 C1392 1.385 . S
C1393 C1394 1.389 . S
C1394 C1393 1.389 . S
C1394 C1395 1.387 . S
C1395 H1380 0.930 . S
C1395 C1390 1.390 . S
C1395 C1394 1.387 . S
H1396 C1408 0.930 . S
H1397 C1410 0.930 . S
H1398 C1411 0.930 . S
H1399 C1415 0.959 . S
H1400 C1415 0.959 . S
H1401 C1415 0.961 1_655 S
H1402 C1416 0.960 1_655 S
H1403 C1416 0.961 . S
H1404 C1416 0.959 . S
H1405 C1419 0.929 . S
H1406 C1420 0.931 . S
H1407 C1422 0.930 . S
C1408 H1396 0.930 . S
C1408 C1409 1.399 . S
C1408 C1413 1.399 . S
C1409 C1408 1.399 . S
C1409 C1410 1.376 . S
C1410 H1397 0.930 . S
C1410 C1409 1.376 . S
C1410 C1411 1.388 . S
C1411 H1398 0.930 . S
C1411 C1410 1.388 . S
C1411 C1412 1.390 . S
C1412 C1411 1.390 . S
C1412 C1413 1.394 . S
C1412 C1418 1.465 1_655 S
C1413 C1408 1.399 . S
C1413 C1412 1.394 . S
C1413 C1414 1.516 1_655 S
C1414 C1413 1.516 1_455 S
C1414 C1415 1.502 . S
C1414 C1416 1.561 . S
C1414 C1417 1.526 . S
C1415 H1399 0.959 . S
C1415 H1400 0.959 . S
C1415 H1401 0.961 1_455 S
C1415 C1414 1.502 . S
C1416 H1402 0.960 1_455 S
C1416 H1403 0.961 . S
C1416 H1404 0.959 . S
C1416 C1414 1.561 . S
C1417 C1414 1.526 . S
C1417 C1418 1.396 . S
C1417 C1422 1.390 . S
C1418 C1412 1.465 1_455 S
C1418 C1417 1.396 . S
C1418 C1419 1.399 . S
C1419 H1405 0.929 . S
C1419 C1418 1.399 . S
C1419 C1420 1.385 . S
C1420 H1406 0.931 . S
C1420 C1419 1.385 . S
C1420 C1421 1.389 . S
C1421 C1420 1.389 . S
C1421 C1422 1.387 . S
C1422 H1407 0.930 . S
C1422 C1417 1.390 . S
C1422 C1421 1.387 . S
H1423 C1435 0.930 . S
H1424 C1437 0.930 . S
H1425 C1438 0.930 . S
H1426 C1442 0.959 . S
H1427 C1442 0.959 . S
H1428 C1442 0.961 . S
H1429 C1443 0.960 . S
H1430 C1443 0.961 . S
H1431 C1443 0.959 . S
H1432 C1446 0.929 . S
H1433 C1447 0.931 . S
H1434 C1449 0.930 . S
C1435 H1423 0.930 . S
C1435 C1436 1.399 . S
C1435 C1440 1.399 . S
C1436 C1435 1.399 . S
C1436 C1437 1.376 . S
C1437 H1424 0.930 . S
C1437 C1436 1.376 . S
C1437 C1438 1.388 . S
C1438 H1425 0.930 . S
C1438 C1437 1.388 . S
C1438 C1439 1.390 . S
C1439 C1438 1.390 . S
C1439 C1440 1.394 . S
C1439 C1445 1.465 . S
C1440 C1435 1.399 . S
C1440 C1439 1.394 . S
C1440 C1441 1.516 . S
C1441 C1440 1.516 . S
C1441 C1442 1.502 . S
C1441 C1443 1.561 . S
C1441 C1444 1.526 . S
C1442 H1426 0.959 . S
C1442 H1427 0.959 . S
C1442 H1428 0.961 . S
C1442 C1441 1.502 . S
C1443 H1429 0.960 . S
C1443 H1430 0.961 . S
C1443 H1431 0.959 . S
C1443 C1441 1.561 . S
C1444 C1441 1.526 . S
C1444 C1445 1.396 . S
C1444 C1449 1.390 . S
C1445 C1439 1.465 . S
C1445 C1444 1.396 . S
C1445 C1446 1.399 . S
C1446 H1432 0.929 . S
C1446 C1445 1.399 . S
C1446 C1447 1.385 . S
C1447 H1433 0.931 . S
C1447 C1446 1.385 . S
C1447 C1448 1.389 . S
C1448 C1447 1.389 . S
C1448 C1449 1.387 . S
C1449 H1434 0.930 . S
C1449 C1444 1.390 . S
C1449 C1448 1.387 . S
H1450 C1462 0.930 . S
H1451 C1464 0.930 . S
H1452 C1465 0.930 . S
H1453 C1469 0.959 . S
H1454 C1469 0.959 . S
H1455 C1469 0.961 . S
H1456 C1470 0.960 . S
H1457 C1470 0.961 . S
H1458 C1470 0.959 . S
H1459 C1473 0.929 . S
H1460 C1474 0.931 . S
H1461 C1476 0.930 . S
C1462 H1450 0.930 . S
C1462 C1463 1.399 . S
C1462 C1467 1.399 . S
C1463 C1462 1.399 . S
C1463 C1464 1.376 . S
C1464 H1451 0.930 . S
C1464 C1463 1.376 . S
C1464 C1465 1.388 . S
C1465 H1452 0.930 . S
C1465 C1464 1.388 . S
C1465 C1466 1.390 . S
C1466 C1465 1.390 . S
C1466 C1467 1.394 . S
C1466 C1472 1.465 . S
C1467 C1462 1.399 . S
C1467 C1466 1.394 . S
C1467 C1468 1.516 . S
C1468 C1467 1.516 . S
C1468 C1469 1.502 . S
C1468 C1470 1.561 . S
C1468 C1471 1.526 . S
C1469 H1453 0.959 . S
C1469 H1454 0.959 . S
C1469 H1455 0.961 . S
C1469 C1468 1.502 . S
C1470 H1456 0.960 . S
C1470 H1457 0.961 . S
C1470 H1458 0.959 . S
C1470 C1468 1.561 . S
C1471 C1468 1.526 . S
C1471 C1472 1.396 . S
C1471 C1476 1.390 . S
C1472 C1466 1.465 . S
C1472 C1471 1.396 . S
C1472 C1473 1.399 . S
C1473 H1459 0.929 . S
C1473 C1472 1.399 . S
C1473 C1474 1.385 . S
C1474 H1460 0.931 . S
C1474 C1473 1.385 . S
C1474 C1475 1.389 . S
C1475 C1474 1.389 . S
C1475 C1476 1.387 . S
C1476 H1461 0.930 . S
C1476 C1471 1.390 . S
C1476 C1475 1.387 . S
H1477 C1489 0.930 . S
H1478 C1491 0.930 . S
H1479 C1492 0.930 . S
H1480 C1496 0.959 . S
H1481 C1496 0.959 . S
H1482 C1496 0.961 1_455 S
H1483 C1497 0.960 1_455 S
H1484 C1497 0.961 . S
H1485 C1497 0.959 . S
H1486 C1500 0.929 . S
H1487 C1501 0.931 . S
H1488 C1503 0.930 . S
C1489 H1477 0.930 . S
C1489 C1490 1.399 . S
C1489 C1494 1.399 . S
C1490 C1489 1.399 . S
C1490 C1491 1.376 . S
C1491 H1478 0.930 . S
C1491 C1490 1.376 . S
C1491 C1492 1.388 . S
C1492 H1479 0.930 . S
C1492 C1491 1.388 . S
C1492 C1493 1.390 . S
C1493 C1492 1.390 . S
C1493 C1494 1.394 . S
C1493 C1499 1.465 1_455 S
C1494 C1489 1.399 . S
C1494 C1493 1.394 . S
C1494 C1495 1.516 1_455 S
C1495 C1494 1.516 1_655 S
C1495 C1496 1.502 . S
C1495 C1497 1.561 . S
C1495 C1498 1.526 . S
C1496 H1480 0.959 . S
C1496 H1481 0.959 . S
C1496 H1482 0.961 1_655 S
C1496 C1495 1.502 . S
C1497 H1483 0.960 1_655 S
C1497 H1484 0.961 . S
C1497 H1485 0.959 . S
C1497 C1495 1.561 . S
C1498 C1495 1.526 . S
C1498 C1499 1.396 . S
C1498 C1503 1.390 . S
C1499 C1493 1.465 1_655 S
C1499 C1498 1.396 . S
C1499 C1500 1.399 . S
C1500 H1486 0.929 . S
C1500 C1499 1.399 . S
C1500 C1501 1.385 . S
C1501 H1487 0.931 . S
C1501 C1500 1.385 . S
C1501 C1502 1.389 . S
C1502 C1501 1.389 . S
C1502 C1503 1.387 . S
C1503 H1488 0.930 . S
C1503 C1498 1.390 . S
C1503 C1502 1.387 . S
H1504 C1516 0.930 . S
H1505 C1518 0.930 . S
H1506 C1519 0.930 1_556 S
H1507 C1523 0.959 . S
H1508 C1523 0.959 . S
H1509 C1523 0.961 . S
H1510 C1524 0.960 . S
H1511 C1524 0.961 . S
H1512 C1524 0.959 . S
H1513 C1527 0.929 . S
H1514 C1528 0.931 . S
H1515 C1530 0.930 . S
C1516 H1504 0.930 . S
C1516 C1517 1.399 . S
C1516 C1521 1.399 . S
C1517 C1516 1.399 . S
C1517 C1518 1.376 . S
C1518 H1505 0.930 . S
C1518 C1517 1.376 . S
C1518 C1519 1.388 . S
C1519 H1506 0.930 1_554 S
C1519 C1518 1.388 . S
C1519 C1520 1.390 . S
C1520 C1519 1.390 . S
C1520 C1521 1.394 . S
C1520 C1526 1.465 1_554 S
C1521 C1516 1.399 . S
C1521 C1520 1.394 . S
C1521 C1522 1.516 . S
C1522 C1521 1.516 . S
C1522 C1523 1.502 . S
C1522 C1524 1.561 . S
C1522 C1525 1.526 . S
C1523 H1507 0.959 . S
C1523 H1508 0.959 . S
C1523 H1509 0.961 . S
C1523 C1522 1.502 . S
C1524 H1510 0.960 . S
C1524 H1511 0.961 . S
C1524 H1512 0.959 . S
C1524 C1522 1.561 . S
C1525 C1522 1.526 . S
C1525 C1526 1.396 1_554 S
C1525 C1530 1.390 1_554 S
C1526 C1520 1.465 1_556 S
C1526 C1525 1.396 1_556 S
C1526 C1527 1.399 . S
C1527 H1513 0.929 . S
C1527 C1526 1.399 . S
C1527 C1528 1.385 . S
C1528 H1514 0.931 . S
C1528 C1527 1.385 . S
C1528 C1529 1.389 . S
C1529 C1528 1.389 . S
C1529 C1530 1.387 . S
C1530 H1515 0.930 . S
C1530 C1525 1.390 1_556 S
C1530 C1529 1.387 . S
H1531 C1543 0.930 . S
H1532 C1545 0.930 . S
H1533 C1546 0.930 . S
H1534 C1550 0.959 . S
H1535 C1550 0.959 . S
H1536 C1550 0.961 . S
H1537 C1551 0.960 . S
H1538 C1551 0.961 . S
H1539 C1551 0.959 . S
H1540 C1554 0.929 . S
H1541 C1555 0.931 . S
H1542 C1557 0.930 . S
C1543 H1531 0.930 . S
C1543 C1544 1.399 . S
C1543 C1548 1.399 . S
C1544 C1543 1.399 . S
C1544 C1545 1.376 . S
C1545 H1532 0.930 . S
C1545 C1544 1.376 . S
C1545 C1546 1.388 . S
C1546 H1533 0.930 . S
C1546 C1545 1.388 . S
C1546 C1547 1.390 . S
C1547 C1546 1.390 . S
C1547 C1548 1.394 . S
C1547 C1553 1.465 . S
C1548 C1543 1.399 . S
C1548 C1547 1.394 . S
C1548 C1549 1.516 . S
C1549 C1548 1.516 . S
C1549 C1550 1.502 . S
C1549 C1551 1.561 . S
C1549 C1552 1.526 . S
C1550 H1534 0.959 . S
C1550 H1535 0.959 . S
C1550 H1536 0.961 . S
C1550 C1549 1.502 . S
C1551 H1537 0.960 . S
C1551 H1538 0.961 . S
C1551 H1539 0.959 . S
C1551 C1549 1.561 . S
C1552 C1549 1.526 . S
C1552 C1553 1.396 . S
C1552 C1557 1.390 . S
C1553 C1547 1.465 . S
C1553 C1552 1.396 . S
C1553 C1554 1.399 . S
C1554 H1540 0.929 . S
C1554 C1553 1.399 . S
C1554 C1555 1.385 . S
C1555 H1541 0.931 . S
C1555 C1554 1.385 . S
C1555 C1556 1.389 . S
C1556 C1555 1.389 . S
C1556 C1557 1.387 . S
C1557 H1542 0.930 . S
C1557 C1552 1.390 . S
C1557 C1556 1.387 . S
H1558 C1570 0.930 . S
H1559 C1572 0.930 . S
H1560 C1573 0.930 . S
H1561 C1577 0.959 . S
H1562 C1577 0.959 . S
H1563 C1577 0.961 . S
H1564 C1578 0.960 . S
H1565 C1578 0.961 . S
H1566 C1578 0.959 . S
H1567 C1581 0.929 . S
H1568 C1582 0.931 . S
H1569 C1584 0.930 . S
C1570 H1558 0.930 . S
C1570 C1571 1.399 . S
C1570 C1575 1.399 . S
C1571 C1570 1.399 . S
C1571 C1572 1.376 . S
C1572 H1559 0.930 . S
C1572 C1571 1.376 . S
C1572 C1573 1.388 . S
C1573 H1560 0.930 . S
C1573 C1572 1.388 . S
C1573 C1574 1.390 . S
C1574 C1573 1.390 . S
C1574 C1575 1.394 . S
C1574 C1580 1.465 . S
C1575 C1570 1.399 . S
C1575 C1574 1.394 . S
C1575 C1576 1.516 . S
C1576 C1575 1.516 . S
C1576 C1577 1.502 . S
C1576 C1578 1.561 . S
C1576 C1579 1.526 . S
C1577 H1561 0.959 . S
C1577 H1562 0.959 . S
C1577 H1563 0.961 . S
C1577 C1576 1.502 . S
C1578 H1564 0.960 . S
C1578 H1565 0.961 . S
C1578 H1566 0.959 . S
C1578 C1576 1.561 . S
C1579 C1576 1.526 . S
C1579 C1580 1.396 . S
C1579 C1584 1.390 . S
C1580 C1574 1.465 . S
C1580 C1579 1.396 . S
C1580 C1581 1.399 . S
C1581 H1567 0.929 . S
C1581 C1580 1.399 . S
C1581 C1582 1.385 . S
C1582 H1568 0.931 . S
C1582 C1581 1.385 . S
C1582 C1583 1.389 . S
C1583 C1582 1.389 . S
C1583 C1584 1.387 . S
C1584 H1569 0.930 . S
C1584 C1579 1.390 . S
C1584 C1583 1.387 . S
H1585 C1597 0.930 . S
H1586 C1599 0.930 . S
H1587 C1600 0.930 . S
H1588 C1604 0.959 . S
H1589 C1604 0.959 . S
H1590 C1604 0.961 . S
H1591 C1605 0.960 . S
H1592 C1605 0.961 . S
H1593 C1605 0.959 . S
H1594 C1608 0.929 . S
H1595 C1609 0.931 . S
H1596 C1611 0.930 . S
C1597 H1585 0.930 . S
C1597 C1598 1.399 . S
C1597 C1602 1.399 . S
C1598 C1597 1.399 . S
C1598 C1599 1.376 . S
C1599 H1586 0.930 . S
C1599 C1598 1.376 . S
C1599 C1600 1.388 . S
C1600 H1587 0.930 . S
C1600 C1599 1.388 . S
C1600 C1601 1.390 . S
C1601 C1600 1.390 . S
C1601 C1602 1.394 . S
C1601 C1607 1.465 . S
C1602 C1597 1.399 . S
C1602 C1601 1.394 . S
C1602 C1603 1.516 . S
C1603 C1602 1.516 . S
C1603 C1604 1.502 . S
C1603 C1605 1.561 . S
C1603 C1606 1.526 . S
C1604 H1588 0.959 . S
C1604 H1589 0.959 . S
C1604 H1590 0.961 . S
C1604 C1603 1.502 . S
C1605 H1591 0.960 . S
C1605 H1592 0.961 . S
C1605 H1593 0.959 . S
C1605 C1603 1.561 . S
C1606 C1603 1.526 . S
C1606 C1607 1.396 . S
C1606 C1611 1.390 . S
C1607 C1601 1.465 . S
C1607 C1606 1.396 . S
C1607 C1608 1.399 . S
C1608 H1594 0.929 . S
C1608 C1607 1.399 . S
C1608 C1609 1.385 . S
C1609 H1595 0.931 . S
C1609 C1608 1.385 . S
C1609 C1610 1.389 . S
C1610 C1609 1.389 . S
C1610 C1611 1.387 . S
C1611 H1596 0.930 . S
C1611 C1606 1.390 . S
C1611 C1610 1.387 . S
H1612 C1624 0.930 . S
H1613 C1626 0.930 . S
H1614 C1627 0.930 . S
H1615 C1631 0.959 . S
H1616 C1631 0.959 . S
H1617 C1631 0.961 . S
H1618 C1632 0.960 . S
H1619 C1632 0.961 . S
H1620 C1632 0.959 . S
H1621 C1635 0.929 1_554 S
H1622 C1636 0.931 . S
H1623 C1638 0.930 . S
C1624 H1612 0.930 . S
C1624 C1625 1.399 . S
C1624 C1629 1.399 . S
C1625 C1624 1.399 . S
C1625 C1626 1.376 . S
C1626 H1613 0.930 . S
C1626 C1625 1.376 . S
C1626 C1627 1.388 . S
C1627 H1614 0.930 . S
C1627 C1626 1.388 . S
C1627 C1628 1.390 . S
C1628 C1627 1.390 . S
C1628 C1629 1.394 . S
C1628 C1634 1.465 1_554 S
C1629 C1624 1.399 . S
C1629 C1628 1.394 . S
C1629 C1630 1.516 1_554 S
C1630 C1629 1.516 1_556 S
C1630 C1631 1.502 . S
C1630 C1632 1.561 . S
C1630 C1633 1.526 . S
C1631 H1615 0.959 . S
C1631 H1616 0.959 . S
C1631 H1617 0.961 . S
C1631 C1630 1.502 . S
C1632 H1618 0.960 . S
C1632 H1619 0.961 . S
C1632 H1620 0.959 . S
C1632 C1630 1.561 . S
C1633 C1630 1.526 . S
C1633 C1634 1.396 . S
C1633 C1638 1.390 . S
C1634 C1628 1.465 1_556 S
C1634 C1633 1.396 . S
C1634 C1635 1.399 . S
C1635 H1621 0.929 1_556 S
C1635 C1634 1.399 . S
C1635 C1636 1.385 . S
C1636 H1622 0.931 . S
C1636 C1635 1.385 . S
C1636 C1637 1.389 . S
C1637 C1636 1.389 . S
C1637 C1638 1.387 . S
C1638 H1623 0.930 . S
C1638 C1633 1.390 . S
C1638 C1637 1.387 . S
H1639 C1651 0.930 . S
H1640 C1653 0.930 . S
H1641 C1654 0.930 . S
H1642 C1658 0.959 . S
H1643 C1658 0.959 . S
H1644 C1658 0.961 . S
H1645 C1659 0.960 . S
H1646 C1659 0.961 . S
H1647 C1659 0.959 . S
H1648 C1662 0.929 . S
H1649 C1663 0.931 . S
H1650 C1665 0.930 . S
C1651 H1639 0.930 . S
C1651 C1652 1.399 . S
C1651 C1656 1.399 . S
C1652 C1651 1.399 . S
C1652 C1653 1.376 . S
C1653 H1640 0.930 . S
C1653 C1652 1.376 . S
C1653 C1654 1.388 . S
C1654 H1641 0.930 . S
C1654 C1653 1.388 . S
C1654 C1655 1.390 . S
C1655 C1654 1.390 . S
C1655 C1656 1.394 . S
C1655 C1661 1.465 . S
C1656 C1651 1.399 . S
C1656 C1655 1.394 . S
C1656 C1657 1.516 . S
C1657 C1656 1.516 . S
C1657 C1658 1.502 . S
C1657 C1659 1.561 . S
C1657 C1660 1.526 . S
C1658 H1642 0.959 . S
C1658 H1643 0.959 . S
C1658 H1644 0.961 . S
C1658 C1657 1.502 . S
C1659 H1645 0.960 . S
C1659 H1646 0.961 . S
C1659 H1647 0.959 . S
C1659 C1657 1.561 . S
C1660 C1657 1.526 . S
C1660 C1661 1.396 . S
C1660 C1665 1.390 . S
C1661 C1655 1.465 . S
C1661 C1660 1.396 . S
C1661 C1662 1.399 . S
C1662 H1648 0.929 . S
C1662 C1661 1.399 . S
C1662 C1663 1.385 . S
C1663 H1649 0.931 . S
C1663 C1662 1.385 . S
C1663 C1664 1.389 . S
C1664 C1663 1.389 . S
C1664 C1665 1.387 . S
C1665 H1650 0.930 . S
C1665 C1660 1.390 . S
C1665 C1664 1.387 . S
H1666 C1678 0.930 . S
H1667 C1680 0.930 . S
H1668 C1681 0.930 . S
H1669 C1685 0.959 . S
H1670 C1685 0.959 . S
H1671 C1685 0.961 . S
H1672 C1686 0.960 . S
H1673 C1686 0.961 . S
H1674 C1686 0.959 . S
H1675 C1689 0.929 . S
H1676 C1690 0.931 . S
H1677 C1692 0.930 . S
C1678 H1666 0.930 . S
C1678 C1679 1.399 . S
C1678 C1683 1.399 . S
C1679 C1678 1.399 . S
C1679 C1680 1.376 . S
C1680 H1667 0.930 . S
C1680 C1679 1.376 . S
C1680 C1681 1.388 . S
C1681 H1668 0.930 . S
C1681 C1680 1.388 . S
C1681 C1682 1.390 . S
C1682 C1681 1.390 . S
C1682 C1683 1.394 . S
C1682 C1688 1.465 . S
C1683 C1678 1.399 . S
C1683 C1682 1.394 . S
C1683 C1684 1.516 . S
C1684 C1683 1.516 . S
C1684 C1685 1.502 . S
C1684 C1686 1.561 . S
C1684 C1687 1.526 . S
C1685 H1669 0.959 . S
C1685 H1670 0.959 . S
C1685 H1671 0.961 . S
C1685 C1684 1.502 . S
C1686 H1672 0.960 . S
C1686 H1673 0.961 . S
C1686 H1674 0.959 . S
C1686 C1684 1.561 . S
C1687 C1684 1.526 . S
C1687 C1688 1.396 . S
C1687 C1692 1.390 . S
C1688 C1682 1.465 . S
C1688 C1687 1.396 . S
C1688 C1689 1.399 . S
C1689 H1675 0.929 . S
C1689 C1688 1.399 . S
C1689 C1690 1.385 . S
C1690 H1676 0.931 . S
C1690 C1689 1.385 . S
C1690 C1691 1.389 . S
C1691 C1690 1.389 . S
C1691 C1692 1.387 . S
C1692 H1677 0.930 . S
C1692 C1687 1.390 . S
C1692 C1691 1.387 . S
H1693 C1705 0.930 . S
H1694 C1707 0.930 . S
H1695 C1708 0.930 . S
H1696 C1712 0.959 . S
H1697 C1712 0.959 . S
H1698 C1712 0.961 . S
H1699 C1713 0.960 . S
H1700 C1713 0.961 . S
H1701 C1713 0.959 . S
H1702 C1716 0.929 . S
H1703 C1717 0.931 . S
H1704 C1719 0.930 . S
C1705 H1693 0.930 . S
C1705 C1706 1.399 . S
C1705 C1710 1.399 . S
C1706 C1705 1.399 . S
C1706 C1707 1.376 . S
C1707 H1694 0.930 . S
C1707 C1706 1.376 . S
C1707 C1708 1.388 . S
C1708 H1695 0.930 . S
C1708 C1707 1.388 . S
C1708 C1709 1.390 . S
C1709 C1708 1.390 . S
C1709 C1710 1.394 . S
C1709 C1715 1.465 . S
C1710 C1705 1.399 . S
C1710 C1709 1.394 . S
C1710 C1711 1.516 . S
C1711 C1710 1.516 . S
C1711 C1712 1.502 . S
C1711 C1713 1.561 . S
C1711 C1714 1.526 . S
C1712 H1696 0.959 . S
C1712 H1697 0.959 . S
C1712 H1698 0.961 . S
C1712 C1711 1.502 . S
C1713 H1699 0.960 . S
C1713 H1700 0.961 . S
C1713 H1701 0.959 . S
C1713 C1711 1.561 . S
C1714 C1711 1.526 . S
C1714 C1715 1.396 . S
C1714 C1719 1.390 . S
C1715 C1709 1.465 . S
C1715 C1714 1.396 . S
C1715 C1716 1.399 . S
C1716 H1702 0.929 . S
C1716 C1715 1.399 . S
C1716 C1717 1.385 . S
C1717 H1703 0.931 . S
C1717 C1716 1.385 . S
C1717 C1718 1.389 . S
C1718 C1717 1.389 . S
C1718 C1719 1.387 . S
C1719 H1704 0.930 . S
C1719 C1714 1.390 . S
C1719 C1718 1.387 . S
H1720 C1732 0.930 . S
H1721 C1734 0.930 . S
H1722 C1735 0.930 . S
H1723 C1739 0.959 1_545 S
H1724 C1739 0.959 . S
H1725 C1739 0.961 . S
H1726 C1740 0.960 . S
H1727 C1740 0.961 . S
H1728 C1740 0.959 . S
H1729 C1743 0.929 . S
H1730 C1744 0.931 . S
H1731 C1746 0.930 . S
C1732 H1720 0.930 . S
C1732 C1733 1.399 . S
C1732 C1737 1.399 . S
C1733 C1732 1.399 . S
C1733 C1734 1.376 . S
C1734 H1721 0.930 . S
C1734 C1733 1.376 . S
C1734 C1735 1.388 . S
C1735 H1722 0.930 . S
C1735 C1734 1.388 . S
C1735 C1736 1.390 . S
C1736 C1735 1.390 . S
C1736 C1737 1.394 . S
C1736 C1742 1.465 1_565 S
C1737 C1732 1.399 . S
C1737 C1736 1.394 . S
C1737 C1738 1.516 . S
C1738 C1737 1.516 . S
C1738 C1739 1.502 . S
C1738 C1740 1.561 . S
C1738 C1741 1.526 1_565 S
C1739 H1723 0.959 1_565 S
C1739 H1724 0.959 . S
C1739 H1725 0.961 . S
C1739 C1738 1.502 . S
C1740 H1726 0.960 . S
C1740 H1727 0.961 . S
C1740 H1728 0.959 . S
C1740 C1738 1.561 . S
C1741 C1738 1.526 1_545 S
C1741 C1742 1.396 . S
C1741 C1746 1.390 . S
C1742 C1736 1.465 1_545 S
C1742 C1741 1.396 . S
C1742 C1743 1.399 . S
C1743 H1729 0.929 . S
C1743 C1742 1.399 . S
C1743 C1744 1.385 . S
C1744 H1730 0.931 . S
C1744 C1743 1.385 . S
C1744 C1745 1.389 . S
C1745 C1744 1.389 . S
C1745 C1746 1.387 . S
C1746 H1731 0.930 . S
C1746 C1741 1.390 . S
C1746 C1745 1.387 . S
H1747 C1759 0.930 . S
H1748 C1761 0.930 . S
H1749 C1762 0.930 . S
H1750 C1766 0.959 . S
H1751 C1766 0.959 . S
H1752 C1766 0.961 . S
H1753 C1767 0.960 . S
H1754 C1767 0.961 . S
H1755 C1767 0.959 . S
H1756 C1770 0.929 . S
H1757 C1771 0.931 . S
H1758 C1773 0.930 . S
C1759 H1747 0.930 . S
C1759 C1760 1.399 . S
C1759 C1764 1.399 . S
C1760 C1759 1.399 . S
C1760 C1761 1.376 . S
C1761 H1748 0.930 . S
C1761 C1760 1.376 . S
C1761 C1762 1.388 . S
C1762 H1749 0.930 . S
C1762 C1761 1.388 . S
C1762 C1763 1.390 . S
C1763 C1762 1.390 . S
C1763 C1764 1.394 . S
C1763 C1769 1.465 . S
C1764 C1759 1.399 . S
C1764 C1763 1.394 . S
C1764 C1765 1.516 . S
C1765 C1764 1.516 . S
C1765 C1766 1.502 . S
C1765 C1767 1.561 . S
C1765 C1768 1.526 . S
C1766 H1750 0.959 . S
C1766 H1751 0.959 . S
C1766 H1752 0.961 . S
C1766 C1765 1.502 . S
C1767 H1753 0.960 . S
C1767 H1754 0.961 . S
C1767 H1755 0.959 . S
C1767 C1765 1.561 . S
C1768 C1765 1.526 . S
C1768 C1769 1.396 . S
C1768 C1773 1.390 . S
C1769 C1763 1.465 . S
C1769 C1768 1.396 . S
C1769 C1770 1.399 . S
C1770 H1756 0.929 . S
C1770 C1769 1.399 . S
C1770 C1771 1.385 . S
C1771 H1757 0.931 . S
C1771 C1770 1.385 . S
C1771 C1772 1.389 . S
C1772 C1771 1.389 . S
C1772 C1773 1.387 . S
C1773 H1758 0.930 . S
C1773 C1768 1.390 . S
C1773 C1772 1.387 . S
H1774 C1786 0.930 . S
H1775 C1788 0.930 . S
H1776 C1789 0.930 1_545 S
H1777 C1793 0.959 . S
H1778 C1793 0.959 . S
H1779 C1793 0.961 . S
H1780 C1794 0.960 . S
H1781 C1794 0.961 . S
H1782 C1794 0.959 . S
H1783 C1797 0.929 . S
H1784 C1798 0.931 . S
H1785 C1800 0.930 . S
C1786 H1774 0.930 . S
C1786 C1787 1.399 . S
C1786 C1791 1.399 . S
C1787 C1786 1.399 . S
C1787 C1788 1.376 . S
C1788 H1775 0.930 . S
C1788 C1787 1.376 . S
C1788 C1789 1.388 . S
C1789 H1776 0.930 1_565 S
C1789 C1788 1.388 . S
C1789 C1790 1.390 . S
C1790 C1789 1.390 . S
C1790 C1791 1.412 . S
C1790 C1796 1.449 1_565 S
C1791 C1786 1.399 . S
C1791 C1790 1.412 . S
C1791 C1792 1.516 1_554 S
C1792 C1791 1.516 1_556 S
C1792 C1793 1.502 . S
C1792 C1794 1.561 . S
C1792 C1795 1.526 1_565 S
C1793 H1777 0.959 . S
C1793 H1778 0.959 . S
C1793 H1779 0.961 . S
C1793 C1792 1.502 . S
C1794 H1780 0.960 . S
C1794 H1781 0.961 . S
C1794 H1782 0.959 . S
C1794 C1792 1.561 . S
C1795 C1792 1.526 1_545 S
C1795 C1796 1.396 1_556 S
C1795 C1800 1.390 . S
C1796 C1790 1.449 1_545 S
C1796 C1795 1.396 1_554 S
C1796 C1797 1.399 . S
C1797 H1783 0.929 . S
C1797 C1796 1.399 . S
C1797 C1798 1.385 1_554 S
C1798 H1784 0.931 . S
C1798 C1797 1.385 1_556 S
C1798 C1799 1.389 . S
C1799 C1798 1.389 . S
C1799 C1800 1.387 . S
C1800 H1785 0.930 . S
C1800 C1795 1.390 . S
C1800 C1799 1.387 . S
H1801 C1813 0.930 . S
H1802 C1815 0.930 . S
H1803 C1816 0.930 . S
H1804 C1820 0.959 . S
H1805 C1820 0.959 . S
H1806 C1820 0.961 . S
H1807 C1821 0.960 . S
H1808 C1821 0.961 . S
H1809 C1821 0.959 . S
H1810 C1824 0.929 . S
H1811 C1825 0.931 . S
H1812 C1827 0.930 . S
C1813 H1801 0.930 . S
C1813 C1814 1.399 . S
C1813 C1818 1.399 . S
C1814 C1813 1.399 . S
C1814 C1815 1.376 . S
C1815 H1802 0.930 . S
C1815 C1814 1.376 . S
C1815 C1816 1.388 . S
C1816 H1803 0.930 . S
C1816 C1815 1.388 . S
C1816 C1817 1.390 . S
C1817 C1816 1.390 . S
C1817 C1818 1.394 . S
C1817 C1823 1.465 . S
C1818 C1813 1.399 . S
C1818 C1817 1.394 . S
C1818 C1819 1.516 . S
C1819 C1818 1.516 . S
C1819 C1820 1.502 . S
C1819 C1821 1.561 . S
C1819 C1822 1.526 . S
C1820 H1804 0.959 . S
C1820 H1805 0.959 . S
C1820 H1806 0.961 . S
C1820 C1819 1.502 . S
C1821 H1807 0.960 . S
C1821 H1808 0.961 . S
C1821 H1809 0.959 . S
C1821 C1819 1.561 . S
C1822 C1819 1.526 . S
C1822 C1823 1.396 . S
C1822 C1827 1.390 . S
C1823 C1817 1.465 . S
C1823 C1822 1.396 . S
C1823 C1824 1.399 . S
C1824 H1810 0.929 . S
C1824 C1823 1.399 . S
C1824 C1825 1.385 . S
C1825 H1811 0.931 . S
C1825 C1824 1.385 . S
C1825 C1826 1.389 . S
C1826 C1825 1.389 . S
C1826 C1827 1.387 . S
C1827 H1812 0.930 . S
C1827 C1822 1.390 . S
C1827 C1826 1.387 . S
H1828 C1840 0.930 . S
H1829 C1842 0.930 . S
H1830 C1843 0.930 . S
H1831 C1847 0.959 . S
H1832 C1847 0.959 . S
H1833 C1847 0.961 . S
H1834 C1848 0.960 . S
H1835 C1848 0.961 . S
H1836 C1848 0.959 . S
H1837 C1851 0.937 . S
H1838 C1852 0.931 . S
H1839 C1854 0.930 . S
C1840 H1828 0.930 . S
C1840 C1841 1.399 . S
C1840 C1845 1.399 . S
C1841 C1840 1.399 . S
C1841 C1842 1.376 . S
C1842 H1829 0.930 . S
C1842 C1841 1.376 . S
C1842 C1843 1.388 . S
C1843 H1830 0.930 . S
C1843 C1842 1.388 . S
C1843 C1844 1.390 . S
C1844 C1843 1.390 . S
C1844 C1845 1.394 . S
C1844 C1850 1.465 1_565 S
C1845 C1840 1.399 . S
C1845 C1844 1.394 . S
C1845 C1846 1.516 1_565 S
C1846 C1845 1.516 1_545 S
C1846 C1847 1.502 . S
C1846 C1848 1.561 . S
C1846 C1849 1.526 . S
C1847 H1831 0.959 . S
C1847 H1832 0.959 . S
C1847 H1833 0.961 . S
C1847 C1846 1.502 . S
C1848 H1834 0.960 . S
C1848 H1835 0.961 . S
C1848 H1836 0.959 . S
C1848 C1846 1.561 . S
C1849 C1846 1.526 . S
C1849 C1850 1.396 . S
C1849 C1854 1.390 . S
C1850 C1844 1.465 1_545 S
C1850 C1849 1.396 . S
C1850 C1851 1.399 1_545 S
C1851 H1837 0.937 . S
C1851 C1850 1.399 1_565 S
C1851 C1852 1.377 1_565 S
C1852 H1838 0.931 . S
C1852 C1851 1.377 1_545 S
C1852 C1853 1.389 . S
C1853 C1852 1.389 . S
C1853 C1854 1.387 . S
C1854 H1839 0.930 . S
C1854 C1849 1.390 . S
C1854 C1853 1.387 . S
H1855 C1867 0.930 . S
H1856 C1869 0.930 . S
H1857 C1870 0.930 . S
H1858 C1874 0.959 . S
H1859 C1874 0.959 . S
H1860 C1874 0.961 . S
H1861 C1875 0.960 . S
H1862 C1875 0.961 . S
H1863 C1875 0.959 . S
H1864 C1878 0.929 . S
H1865 C1879 0.931 . S
H1866 C1881 0.930 . S
C1867 H1855 0.930 . S
C1867 C1868 1.399 . S
C1867 C1872 1.399 . S
C1868 C1867 1.399 . S
C1868 C1869 1.376 . S
C1869 H1856 0.930 . S
C1869 C1868 1.376 . S
C1869 C1870 1.388 . S
C1870 H1857 0.930 . S
C1870 C1869 1.388 . S
C1870 C1871 1.390 . S
C1871 C1870 1.390 . S
C1871 C1872 1.394 . S
C1871 C1877 1.465 . S
C1872 C1867 1.399 . S
C1872 C1871 1.394 . S
C1872 C1873 1.516 . S
C1873 C1872 1.516 . S
C1873 C1874 1.502 . S
C1873 C1875 1.561 . S
C1873 C1876 1.526 . S
C1874 H1858 0.959 . S
C1874 H1859 0.959 . S
C1874 H1860 0.961 . S
C1874 C1873 1.502 . S
C1875 H1861 0.960 . S
C1875 H1862 0.961 . S
C1875 H1863 0.959 . S
C1875 C1873 1.561 . S
C1876 C1873 1.526 . S
C1876 C1877 1.396 . S
C1876 C1881 1.390 . S
C1877 C1871 1.465 . S
C1877 C1876 1.396 . S
C1877 C1878 1.399 . S
C1878 H1864 0.929 . S
C1878 C1877 1.399 . S
C1878 C1879 1.385 . S
C1879 H1865 0.931 . S
C1879 C1878 1.385 . S
C1879 C1880 1.389 . S
C1880 C1879 1.389 . S
C1880 C1881 1.387 . S
C1881 H1866 0.930 . S
C1881 C1876 1.390 . S
C1881 C1880 1.387 . S
H1882 C1894 0.930 . S
H1883 C1896 0.930 . S
H1884 C1897 0.930 1_565 S
H1885 C1901 0.959 . S
H1886 C1901 0.959 . S
H1887 C1901 0.961 . S
H1888 C1902 0.960 . S
H1889 C1902 0.961 1_554 S
H1890 C1902 0.959 1_565 S
H1891 C1905 0.929 . S
H1892 C1906 0.931 . S
H1893 C1908 0.930 . S
C1894 H1882 0.930 . S
C1894 C1895 1.399 . S
C1894 C1899 1.399 . S
C1895 C1894 1.399 . S
C1895 C1896 1.376 . S
C1896 H1883 0.930 . S
C1896 C1895 1.376 . S
C1896 C1897 1.388 . S
C1897 H1884 0.930 1_545 S
C1897 C1896 1.388 . S
C1897 C1898 1.390 . S
C1898 C1897 1.390 . S
C1898 C1899 1.394 . S
C1898 C1904 1.465 1_545 S
C1899 C1894 1.399 . S
C1899 C1898 1.394 . S
C1899 C1900 1.516 . S
C1900 C1899 1.516 . S
C1900 C1901 1.502 1_556 S
C1900 C1902 1.561 . S
C1900 C1903 1.526 1_546 S
C1901 H1885 0.959 . S
C1901 H1886 0.959 . S
C1901 H1887 0.961 . S
C1901 C1900 1.502 1_554 S
C1902 H1888 0.960 . S
C1902 H1889 0.961 1_556 S
C1902 H1890 0.959 1_545 S
C1902 C1900 1.561 . S
C1903 C1900 1.526 1_564 S
C1903 C1904 1.396 1_554 S
C1903 C1908 1.390 . S
C1904 C1898 1.465 1_565 S
C1904 C1903 1.396 1_556 S
C1904 C1905 1.399 . S
C1905 H1891 0.929 . S
C1905 C1904 1.399 . S
C1905 C1906 1.385 1_556 S
C1906 H1892 0.931 . S
C1906 C1905 1.385 1_554 S
C1906 C1907 1.389 . S
C1907 C1906 1.389 . S
C1907 C1908 1.387 . S
C1908 H1893 0.930 . S
C1908 C1903 1.390 . S
C1908 C1907 1.387 . S
H1909 C1921 0.930 . S
H1910 C1923 0.930 . S
H1911 C1924 0.930 . S
H1912 C1928 0.959 . S
H1913 C1928 0.959 . S
H1914 C1928 0.961 . S
H1915 C1929 0.960 . S
H1916 C1929 0.961 . S
H1917 C1929 0.959 . S
H1918 C1932 0.929 . S
H1919 C1933 0.931 . S
H1920 C1935 0.930 . S
C1921 H1909 0.930 . S
C1921 C1922 1.399 . S
C1921 C1926 1.399 . S
C1922 C1921 1.399 . S
C1922 C1923 1.376 . S
C1923 H1910 0.930 . S
C1923 C1922 1.376 . S
C1923 C1924 1.388 . S
C1924 H1911 0.930 . S
C1924 C1923 1.388 . S
C1924 C1925 1.390 . S
C1925 C1924 1.390 . S
C1925 C1926 1.394 . S
C1925 C1931 1.465 . S
C1926 C1921 1.399 . S
C1926 C1925 1.394 . S
C1926 C1927 1.516 . S
C1927 C1926 1.516 . S
C1927 C1928 1.502 . S
C1927 C1929 1.561 . S
C1927 C1930 1.526 . S
C1928 H1912 0.959 . S
C1928 H1913 0.959 . S
C1928 H1914 0.961 . S
C1928 C1927 1.502 . S
C1929 H1915 0.960 . S
C1929 H1916 0.961 . S
C1929 H1917 0.959 . S
C1929 C1927 1.561 . S
C1930 C1927 1.526 . S
C1930 C1931 1.396 . S
C1930 C1935 1.390 . S
C1931 C1925 1.465 . S
C1931 C1930 1.396 . S
C1931 C1932 1.399 . S
C1932 H1918 0.929 . S
C1932 C1931 1.399 . S
C1932 C1933 1.385 . S
C1933 H1919 0.931 . S
C1933 C1932 1.385 . S
C1933 C1934 1.389 . S
C1934 C1933 1.389 . S
C1934 C1935 1.387 . S
C1935 H1920 0.930 . S
C1935 C1930 1.390 . S
C1935 C1934 1.387 . S
C653 C5 1.602 . S
C665 C15 1.565 . S
C680 C55 1.496 1_556 S
C692 C45 1.538 . S
C707 C85 1.799 . S
C719 C95 1.744 . S
C734 C135 1.701 . S
C746 C125 1.641 . S
C761 C165 1.535 . S
C773 C175 1.492 . S
C788 C205 1.751 . S
C800 C215 1.802 . S
C815 C245 1.670 . S
C827 C255 1.685 1_556 S
C842 C295 1.611 . S
C854 C285 1.559 . S
C869 C335 1.601 . S
C881 C325 1.570 . S
C896 C375 1.533 . S
C908 C365 1.488 1_554 S
C923 C415 1.793 1_556 S
C935 C405 1.850 . S
C950 C445 1.693 . S
C962 C455 1.653 . S
C977 C495 1.490 . S
C989 C485 1.536 . S
C1004 C535 1.795 . S
C1016 C525 1.847 . S
C1031 C575 1.646 . S
C1043 C565 1.709 1_554 S
C1058 C605 1.594 . S
C1070 C615 1.562 . S
C1085 C19 1.974 . S
C1097 C449 1.979 . S
C1112 C58 1.516 . S
C1124 C608 1.543 . S
C1139 C99 1.925 . S
C1151 C369 1.978 . S
C1166 C138 1.495 . S
C1178 C529 1.553 . S
C1193 C179 1.875 . S
C1205 C528 1.798 . S
C1220 C448 1.517 . S
C1232 C218 1.553 . S
C1247 C259 1.892 . S
C1259 C609 1.877 . S
C1274 C298 1.520 . S
C1286 C368 1.492 . S
C1301 C139 1.916 . S
C1313 C329 1.922 . S
C1328 C59 1.873 . S
C1340 C408 1.798 . S
C1355 C489 1.965 . S
C1367 C219 1.902 . S
C1382 C299 1.972 . S
C1394 C569 1.973 . S
C1409 C328 1.592 . S
C1421 C178 1.569 . S
C1436 C258 1.480 . S
C1448 C409 1.543 . S
C1463 C98 1.550 . S
C1475 C568 1.513 . S
C1490 C18 1.530 . S
C1502 C488 1.533 . S
C1517 C9 1.979 . S
C1529 C169 2.005 . S
C1544 C48 1.726 . S
C1556 C208 1.720 . S
C1571 C89 1.711 . S
C1583 C249 1.725 . S
C1598 C128 1.494 . S
C1610 C288 1.474 . S
C1625 C499 1.967 . S
C1637 C339 1.934 . S
C1652 C539 1.613 . S
C1664 C378 1.631 . S
C1679 C418 1.909 . S
C1691 C579 1.943 . S
C1706 C618 1.494 . S
C1718 C458 1.501 . S
C1733 C49 1.985 . S
C1745 C289 1.971 . S
C1760 C168 1.751 . S
C1772 C88 1.744 . S
C1787 C209 1.729 . S
C1799 C129 1.718 . S
C1814 C8 1.431 . S
C1826 C248 1.465 . S
C1841 C619 1.935 . S
C1853 C379 1.970 . S
C1868 C498 1.606 . S
C1880 C419 1.629 . S
C1895 C538 1.934 . S
C1907 C459 1.913 . S
C1922 C578 1.540 . S
C1934 C338 1.533 . S
